# Generated by pormake.
# Topology vcc, (6)-cn, num edge types: 1
# Building blocks:
#     Node 0, Type 0, BuildingBlock: JUFBIX_clean_sbu_0, # of connection points: 6
#     Node 1, Type 0, BuildingBlock: JUFBIX_clean_sbu_0, # of connection points: 6
#     Node 2, Type 0, BuildingBlock: JUFBIX_clean_sbu_0, # of connection points: 6
#     Node 3, Type 0, BuildingBlock: JUFBIX_clean_sbu_0, # of connection points: 6
#     Node 4, Type 0, BuildingBlock: JUFBIX_clean_sbu_0, # of connection points: 6
#     Node 5, Type 0, BuildingBlock: JUFBIX_clean_sbu_0, # of connection points: 6
#     Node 6, Type 0, BuildingBlock: JUFBIX_clean_sbu_0, # of connection points: 6
#     Node 7, Type 0, BuildingBlock: JUFBIX_clean_sbu_0, # of connection points: 6
#     Node 8, Type 0, BuildingBlock: JUFBIX_clean_sbu_0, # of connection points: 6
#     Node 9, Type 0, BuildingBlock: JUFBIX_clean_sbu_0, # of connection points: 6
#     Node 10, Type 0, BuildingBlock: JUFBIX_clean_sbu_0, # of connection points: 6
#     Node 11, Type 0, BuildingBlock: JUFBIX_clean_sbu_0, # of connection points: 6
#     Node 12, Type 0, BuildingBlock: JUFBIX_clean_sbu_0, # of connection points: 6
#     Node 13, Type 0, BuildingBlock: JUFBIX_clean_sbu_0, # of connection points: 6
#     Node 14, Type 0, BuildingBlock: JUFBIX_clean_sbu_0, # of connection points: 6
#     Node 15, Type 0, BuildingBlock: JUFBIX_clean_sbu_0, # of connection points: 6
#     Node 16, Type 0, BuildingBlock: JUFBIX_clean_sbu_0, # of connection points: 6
#     Node 17, Type 0, BuildingBlock: JUFBIX_clean_sbu_0, # of connection points: 6
#     Node 18, Type 0, BuildingBlock: JUFBIX_clean_sbu_0, # of connection points: 6
#     Node 19, Type 0, BuildingBlock: JUFBIX_clean_sbu_0, # of connection points: 6
#     Node 20, Type 0, BuildingBlock: JUFBIX_clean_sbu_0, # of connection points: 6
#     Node 21, Type 0, BuildingBlock: JUFBIX_clean_sbu_0, # of connection points: 6
#     Node 22, Type 0, BuildingBlock: JUFBIX_clean_sbu_0, # of connection points: 6
#     Node 23, Type 0, BuildingBlock: JUFBIX_clean_sbu_0, # of connection points: 6
#     Node 24, Type 0, BuildingBlock: JUFBIX_clean_sbu_0, # of connection points: 6
#     Node 25, Type 0, BuildingBlock: JUFBIX_clean_sbu_0, # of connection points: 6
#     Node 26, Type 0, BuildingBlock: JUFBIX_clean_sbu_0, # of connection points: 6
#     Node 27, Type 0, BuildingBlock: JUFBIX_clean_sbu_0, # of connection points: 6
#     Node 28, Type 0, BuildingBlock: JUFBIX_clean_sbu_0, # of connection points: 6
#     Node 29, Type 0, BuildingBlock: JUFBIX_clean_sbu_0, # of connection points: 6
#     Node 30, Type 0, BuildingBlock: JUFBIX_clean_sbu_0, # of connection points: 6
#     Node 31, Type 0, BuildingBlock: JUFBIX_clean_sbu_0, # of connection points: 6
#     Edge 32, Type (0, 0), BuildingBlock: EZIPEK_clean_linker_0, # of connection points: 2
#     Edge 33, Type (0, 0), BuildingBlock: EZIPEK_clean_linker_0, # of connection points: 2
#     Edge 34, Type (0, 0), BuildingBlock: EZIPEK_clean_linker_0, # of connection points: 2
#     Edge 35, Type (0, 0), BuildingBlock: EZIPEK_clean_linker_0, # of connection points: 2
#     Edge 36, Type (0, 0), BuildingBlock: EZIPEK_clean_linker_0, # of connection points: 2
#     Edge 37, Type (0, 0), BuildingBlock: EZIPEK_clean_linker_0, # of connection points: 2
#     Edge 38, Type (0, 0), BuildingBlock: EZIPEK_clean_linker_0, # of connection points: 2
#     Edge 39, Type (0, 0), BuildingBlock: EZIPEK_clean_linker_0, # of connection points: 2
#     Edge 40, Type (0, 0), BuildingBlock: EZIPEK_clean_linker_0, # of connection points: 2
#     Edge 41, Type (0, 0), BuildingBlock: EZIPEK_clean_linker_0, # of connection points: 2
#     Edge 42, Type (0, 0), BuildingBlock: EZIPEK_clean_linker_0, # of connection points: 2
#     Edge 43, Type (0, 0), BuildingBlock: EZIPEK_clean_linker_0, # of connection points: 2
#     Edge 44, Type (0, 0), BuildingBlock: EZIPEK_clean_linker_0, # of connection points: 2
#     Edge 45, Type (0, 0), BuildingBlock: EZIPEK_clean_linker_0, # of connection points: 2
#     Edge 46, Type (0, 0), BuildingBlock: EZIPEK_clean_linker_0, # of connection points: 2
#     Edge 47, Type (0, 0), BuildingBlock: EZIPEK_clean_linker_0, # of connection points: 2
#     Edge 48, Type (0, 0), BuildingBlock: EZIPEK_clean_linker_0, # of connection points: 2
#     Edge 49, Type (0, 0), BuildingBlock: EZIPEK_clean_linker_0, # of connection points: 2
#     Edge 50, Type (0, 0), BuildingBlock: EZIPEK_clean_linker_0, # of connection points: 2
#     Edge 51, Type (0, 0), BuildingBlock: EZIPEK_clean_linker_0, # of connection points: 2
#     Edge 52, Type (0, 0), BuildingBlock: EZIPEK_clean_linker_0, # of connection points: 2
#     Edge 53, Type (0, 0), BuildingBlock: EZIPEK_clean_linker_0, # of connection points: 2
#     Edge 54, Type (0, 0), BuildingBlock: EZIPEK_clean_linker_0, # of connection points: 2
#     Edge 55, Type (0, 0), BuildingBlock: EZIPEK_clean_linker_0, # of connection points: 2
#     Edge 56, Type (0, 0), BuildingBlock: EZIPEK_clean_linker_0, # of connection points: 2
#     Edge 57, Type (0, 0), BuildingBlock: EZIPEK_clean_linker_0, # of connection points: 2
#     Edge 58, Type (0, 0), BuildingBlock: EZIPEK_clean_linker_0, # of connection points: 2
#     Edge 59, Type (0, 0), BuildingBlock: EZIPEK_clean_linker_0, # of connection points: 2
#     Edge 60, Type (0, 0), BuildingBlock: EZIPEK_clean_linker_0, # of connection points: 2
#     Edge 61, Type (0, 0), BuildingBlock: EZIPEK_clean_linker_0, # of connection points: 2
#     Edge 62, Type (0, 0), BuildingBlock: EZIPEK_clean_linker_0, # of connection points: 2
#     Edge 63, Type (0, 0), BuildingBlock: EZIPEK_clean_linker_0, # of connection points: 2
#     Edge 64, Type (0, 0), BuildingBlock: EZIPEK_clean_linker_0, # of connection points: 2
#     Edge 65, Type (0, 0), BuildingBlock: EZIPEK_clean_linker_0, # of connection points: 2
#     Edge 66, Type (0, 0), BuildingBlock: EZIPEK_clean_linker_0, # of connection points: 2
#     Edge 67, Type (0, 0), BuildingBlock: EZIPEK_clean_linker_0, # of connection points: 2
#     Edge 68, Type (0, 0), BuildingBlock: EZIPEK_clean_linker_0, # of connection points: 2
#     Edge 69, Type (0, 0), BuildingBlock: EZIPEK_clean_linker_0, # of connection points: 2
#     Edge 70, Type (0, 0), BuildingBlock: EZIPEK_clean_linker_0, # of connection points: 2
#     Edge 71, Type (0, 0), BuildingBlock: EZIPEK_clean_linker_0, # of connection points: 2
#     Edge 72, Type (0, 0), BuildingBlock: EZIPEK_clean_linker_0, # of connection points: 2
#     Edge 73, Type (0, 0), BuildingBlock: EZIPEK_clean_linker_0, # of connection points: 2
#     Edge 74, Type (0, 0), BuildingBlock: EZIPEK_clean_linker_0, # of connection points: 2
#     Edge 75, Type (0, 0), BuildingBlock: EZIPEK_clean_linker_0, # of connection points: 2
#     Edge 76, Type (0, 0), BuildingBlock: EZIPEK_clean_linker_0, # of connection points: 2
#     Edge 77, Type (0, 0), BuildingBlock: EZIPEK_clean_linker_0, # of connection points: 2
#     Edge 78, Type (0, 0), BuildingBlock: EZIPEK_clean_linker_0, # of connection points: 2
#     Edge 79, Type (0, 0), BuildingBlock: EZIPEK_clean_linker_0, # of connection points: 2
#     Edge 80, Type (0, 0), BuildingBlock: EZIPEK_clean_linker_0, # of connection points: 2
#     Edge 81, Type (0, 0), BuildingBlock: EZIPEK_clean_linker_0, # of connection points: 2
#     Edge 82, Type (0, 0), BuildingBlock: EZIPEK_clean_linker_0, # of connection points: 2
#     Edge 83, Type (0, 0), BuildingBlock: EZIPEK_clean_linker_0, # of connection points: 2
#     Edge 84, Type (0, 0), BuildingBlock: EZIPEK_clean_linker_0, # of connection points: 2
#     Edge 85, Type (0, 0), BuildingBlock: EZIPEK_clean_linker_0, # of connection points: 2
#     Edge 86, Type (0, 0), BuildingBlock: EZIPEK_clean_linker_0, # of connection points: 2
#     Edge 87, Type (0, 0), BuildingBlock: EZIPEK_clean_linker_0, # of connection points: 2
#     Edge 88, Type (0, 0), BuildingBlock: EZIPEK_clean_linker_0, # of connection points: 2
#     Edge 89, Type (0, 0), BuildingBlock: EZIPEK_clean_linker_0, # of connection points: 2
#     Edge 90, Type (0, 0), BuildingBlock: EZIPEK_clean_linker_0, # of connection points: 2
#     Edge 91, Type (0, 0), BuildingBlock: EZIPEK_clean_linker_0, # of connection points: 2
#     Edge 92, Type (0, 0), BuildingBlock: EZIPEK_clean_linker_0, # of connection points: 2
#     Edge 93, Type (0, 0), BuildingBlock: EZIPEK_clean_linker_0, # of connection points: 2
#     Edge 94, Type (0, 0), BuildingBlock: EZIPEK_clean_linker_0, # of connection points: 2
#     Edge 95, Type (0, 0), BuildingBlock: EZIPEK_clean_linker_0, # of connection points: 2
#     Edge 96, Type (0, 0), BuildingBlock: EZIPEK_clean_linker_0, # of connection points: 2
#     Edge 97, Type (0, 0), BuildingBlock: EZIPEK_clean_linker_0, # of connection points: 2
#     Edge 98, Type (0, 0), BuildingBlock: EZIPEK_clean_linker_0, # of connection points: 2
#     Edge 99, Type (0, 0), BuildingBlock: EZIPEK_clean_linker_0, # of connection points: 2
#     Edge 100, Type (0, 0), BuildingBlock: EZIPEK_clean_linker_0, # of connection points: 2
#     Edge 101, Type (0, 0), BuildingBlock: EZIPEK_clean_linker_0, # of connection points: 2
#     Edge 102, Type (0, 0), BuildingBlock: EZIPEK_clean_linker_0, # of connection points: 2
#     Edge 103, Type (0, 0), BuildingBlock: EZIPEK_clean_linker_0, # of connection points: 2
#     Edge 104, Type (0, 0), BuildingBlock: EZIPEK_clean_linker_0, # of connection points: 2
#     Edge 105, Type (0, 0), BuildingBlock: EZIPEK_clean_linker_0, # of connection points: 2
#     Edge 106, Type (0, 0), BuildingBlock: EZIPEK_clean_linker_0, # of connection points: 2
#     Edge 107, Type (0, 0), BuildingBlock: EZIPEK_clean_linker_0, # of connection points: 2
#     Edge 108, Type (0, 0), BuildingBlock: EZIPEK_clean_linker_0, # of connection points: 2
#     Edge 109, Type (0, 0), BuildingBlock: EZIPEK_clean_linker_0, # of connection points: 2
#     Edge 110, Type (0, 0), BuildingBlock: EZIPEK_clean_linker_0, # of connection points: 2
#     Edge 111, Type (0, 0), BuildingBlock: EZIPEK_clean_linker_0, # of connection points: 2
#     Edge 112, Type (0, 0), BuildingBlock: EZIPEK_clean_linker_0, # of connection points: 2
#     Edge 113, Type (0, 0), BuildingBlock: EZIPEK_clean_linker_0, # of connection points: 2
#     Edge 114, Type (0, 0), BuildingBlock: EZIPEK_clean_linker_0, # of connection points: 2
#     Edge 115, Type (0, 0), BuildingBlock: EZIPEK_clean_linker_0, # of connection points: 2
#     Edge 116, Type (0, 0), BuildingBlock: EZIPEK_clean_linker_0, # of connection points: 2
#     Edge 117, Type (0, 0), BuildingBlock: EZIPEK_clean_linker_0, # of connection points: 2
#     Edge 118, Type (0, 0), BuildingBlock: EZIPEK_clean_linker_0, # of connection points: 2
#     Edge 119, Type (0, 0), BuildingBlock: EZIPEK_clean_linker_0, # of connection points: 2
#     Edge 120, Type (0, 0), BuildingBlock: EZIPEK_clean_linker_0, # of connection points: 2
#     Edge 121, Type (0, 0), BuildingBlock: EZIPEK_clean_linker_0, # of connection points: 2
#     Edge 122, Type (0, 0), BuildingBlock: EZIPEK_clean_linker_0, # of connection points: 2
#     Edge 123, Type (0, 0), BuildingBlock: EZIPEK_clean_linker_0, # of connection points: 2
#     Edge 124, Type (0, 0), BuildingBlock: EZIPEK_clean_linker_0, # of connection points: 2
#     Edge 125, Type (0, 0), BuildingBlock: EZIPEK_clean_linker_0, # of connection points: 2
#     Edge 126, Type (0, 0), BuildingBlock: EZIPEK_clean_linker_0, # of connection points: 2
#     Edge 127, Type (0, 0), BuildingBlock: EZIPEK_clean_linker_0, # of connection points: 2
# Relax obj value: 0.452
# Max RMSD: 0.199
# Mean RMSD: 0.199
data_MOF--net-vcc--node1-JUFBIX_clean_sbu_0--edge1-EZIPEK_clean_linker_0
_symmetry_space_group_name_H-M    P1
_symmetry_Int_Tables_number       1
_symmetry_cell_setting            triclinic
loop_
_symmetry_equiv_pos_as_xyz
'x, y, z'
_cell_length_a     50.73968
_cell_length_b     40.933445
_cell_length_c     26.605242
_cell_angle_alpha  90.233448
_cell_angle_beta   90.171756
_cell_angle_gamma 89.845225
loop_
_atom_site_label
_atom_site_type_symbol
_atom_site_fract_x
_atom_site_fract_y
_atom_site_fract_z
_atom_type_partial_charge
Co0 Co 0.35975 0.02751 0.15414 0.0
C1 C 0.36151 0.95904 0.13673 0.0
Co2 Co 0.32484 1.01233 0.11937 0.0
C3 C 0.40775 0.06123 0.16859 0.0
C4 C 0.39844 0.03041 0.2312 0.0
N5 N 0.38961 0.04017 0.18595 0.0
N6 N 0.42787 0.06452 0.20097 0.0
C7 C 0.42211 0.0454 0.24053 0.0
H8 H 0.40639 0.07355 0.13276 0.0
H9 H 0.38855 1.0131 0.25523 0.0
C10 C 0.32774 0.08195 0.1462 0.0
N11 N 0.29389 0.99919 0.09085 0.0
C12 C 0.28973 0.9794 1.05112 0.0
C13 C 0.26985 1.00469 0.11051 0.0
N14 N 0.26389 0.97276 1.04463 0.0
C15 C 0.25158 0.98808 0.08293 0.0
C16 C 0.31387 1.01518 0.22736 0.0
O17 O 0.3513 0.07263 0.14946 0.0
O18 O 0.31144 0.06032 0.129 0.0
O19 O 0.30662 1.0032 0.18547 0.0
O20 O 0.33781 0.02646 0.22499 0.0
O21 O 0.33958 0.96546 0.11423 0.0
H22 H 0.26571 0.02051 0.1422 0.0
H23 H 0.30515 0.97153 1.02574 0.0
O24 O 0.37167 0.98249 0.16117 0.0
O25 O 0.37905 0.02896 0.08263 0.0
O26 O 0.34122 0.0209 1.04802 0.0
C27 C 0.36609 0.02547 1.04071 0.0
H28 H 0.43453 0.04194 0.27322 0.0
H29 H 0.23041 0.99062 0.08671 0.0
Co30 Co 0.92366 0.25078 0.15374 0.0
C31 C 0.92209 0.31834 0.12837 0.0
Co32 Co 0.9579 0.26273 0.11207 0.0
C33 C 0.88787 0.21865 0.22208 0.0
C34 C 0.86954 0.25327 0.17252 0.0
N35 N 0.89316 0.241 0.18636 0.0
N36 N 0.86181 0.21668 0.23046 0.0
C37 C 0.85028 0.23855 0.19983 0.0
H38 H 0.90256 0.20349 0.24017 0.0
H39 H 0.8664 0.27113 0.14325 0.0
C40 C 0.95594 0.19471 0.14737 0.0
N41 N 0.98782 0.27186 0.07856 0.0
C42 C 0.99219 0.29495 1.04381 0.0
C43 C 1.01123 0.25684 0.08579 0.0
N44 N 0.01749 0.29472 1.02957 0.0
C45 C 0.02957 0.27093 1.05554 0.0
C46 C 0.97038 0.26577 0.21993 0.0
O47 O 0.93322 0.205 0.15885 0.0
O48 O 0.97007 0.21461 0.12152 0.0
O49 O 0.97835 0.27213 0.17564 0.0
O50 O 0.94543 0.2583 0.22194 0.0
O51 O 0.94401 0.311 0.10623 0.0
H52 H 0.015 0.23737 0.11208 0.0
H53 H 0.97743 0.31182 1.02993 0.0
O54 O 0.91187 0.29567 0.15356 0.0
O55 O 0.9039 0.24387 0.08243 0.0
O56 O 0.9403 0.25365 1.04432 0.0
C57 C 0.91574 0.2475 1.03946 0.0
H58 H 0.82929 0.24309 0.19707 0.0
H59 H 0.05032 0.2648 1.05329 0.0
Co60 Co 0.34961 0.27488 0.20951 0.0
C61 C 0.34882 0.34374 0.23078 0.0
Co62 Co 0.31589 0.28741 0.25214 0.0
C63 C 0.38716 0.24366 0.14225 0.0
C64 C 0.40263 0.28348 0.18586 0.0
N65 N 0.38021 0.26693 0.1757 0.0
N66 N 0.41297 0.24565 0.13129 0.0
C67 C 0.42271 0.27059 0.15832 0.0
H68 H 0.37404 0.22491 0.12814 0.0
H69 H 0.40459 0.30286 0.21335 0.0
C70 C 0.32093 0.21834 0.22432 0.0
N71 N 0.28639 0.29799 0.28692 0.0
C72 C 0.26954 0.32241 0.27561 0.0
C73 C 0.27612 0.283 0.32721 0.0
N74 N 0.24884 0.32291 0.30682 0.0
C75 C 0.25291 0.29832 0.33951 0.0
C76 C 0.30106 0.28396 0.14388 0.0
O77 O 0.34313 0.22918 0.21122 0.0
O78 O 0.30514 0.23872 0.24622 0.0
O79 O 0.2943 0.29429 0.18751 0.0
O80 O 0.32591 0.27572 0.1419 0.0
O81 O 0.32825 0.33569 0.25606 0.0
H82 H 0.28451 0.26172 0.34525 0.0
H83 H 0.27188 0.33867 0.24397 0.0
O84 O 0.35851 0.32124 0.20397 0.0
O85 O 0.37107 0.2723 0.27954 0.0
O86 O 0.33491 0.28009 0.31954 0.0
C87 C 0.35974 0.27494 0.32318 0.0
H88 H 0.44323 0.27778 0.15975 0.0
H89 H 0.23937 0.29095 0.36857 0.0
Co90 Co 0.92566 0.01978 0.21169 0.0
C91 C 0.91385 0.95393 0.21904 0.0
Co92 Co 0.95972 0.99776 0.24568 0.0
C93 C 0.87754 0.04704 0.16238 0.0
C94 C 0.89389 0.07475 0.22296 0.0
N95 N 0.8982 0.04769 0.19425 0.0
N96 N 0.86136 0.07287 0.17025 0.0
C97 C 0.87159 0.09028 0.20803 0.0
H98 H 0.87346 0.02716 0.13657 0.0
H99 H 0.90534 0.0819 0.25552 0.0
C100 C 0.96748 0.06408 0.23211 0.0
N101 N 0.98716 0.97116 0.26617 0.0
C102 C 1.01013 0.97799 0.2892 0.0
C103 C 0.99014 0.94009 0.24911 0.0
N104 N 0.02686 0.95232 0.28721 0.0
C105 C 1.01449 0.9285 0.26203 0.0
C106 C 0.96834 1.00772 0.13578 0.0
O107 O 0.94417 0.05821 0.22054 0.0
O108 O 0.98098 0.04025 0.25046 0.0
O109 O 0.976 0.99414 0.17651 0.0
O110 O 0.94432 0.01925 0.13909 0.0
O111 O 0.93694 0.95643 0.23867 0.0
H112 H 0.9766 0.9273 0.22466 0.0
H113 H 0.0153 1.0019 0.30365 0.0
O114 O 0.90458 0.97995 0.19936 0.0
O115 O 0.90981 0.02097 0.28494 0.0
O116 O 0.94544 1.00201 0.3184 0.0
C117 C 0.9217 1.01214 0.32571 0.0
H118 H 0.86233 0.1109 0.2264 0.0
H119 H 0.0232 0.90542 0.25085 0.0
Co120 Co 0.71036 0.02271 0.99449 0.0
C121 C 0.7029 0.95519 0.96951 0.0
Co122 Co 0.67529 1.01411 0.95375 0.0
C123 C 0.74693 0.05623 0.05811 0.0
C124 C 0.76341 1.01413 1.02141 0.0
N125 N 0.7409 0.03138 1.02694 0.0
N126 N 0.77236 0.05484 0.07172 0.0
C127 C 0.78281 0.02851 1.04906 0.0
H128 H 0.73318 0.07484 0.07045 0.0
H129 H 0.76585 0.99265 0.99848 0.0
C130 C 0.67803 0.08179 0.97177 0.0
N131 N 0.64508 1.0039 0.92117 0.0
C132 C 0.62618 0.98398 0.93874 0.0
C133 C 0.63656 1.01401 0.87585 0.0
N134 N 0.60601 0.98162 0.90646 0.0
C135 C 0.61234 1.00024 0.86668 0.0
C136 C 0.66749 1.01495 0.06802 0.0
O137 O 0.69903 0.0722 0.99541 0.0
O138 O 0.66592 0.05987 0.94736 0.0
O139 O 0.65508 1.01329 1.0252 0.0
O140 O 0.69248 0.01726 0.06269 0.0
O141 O 0.68186 0.96896 0.95593 0.0
H142 H 0.64712 0.03056 0.85158 0.0
H143 H 0.62699 0.97174 0.97464 0.0
O144 O 0.71966 0.97392 0.99123 0.0
O145 O 0.73112 0.02743 0.92962 0.0
O146 O 0.69742 1.01386 0.88502 0.0
C147 C 0.72268 0.01916 0.88611 0.0
H148 H 0.80305 0.02035 1.05267 0.0
H149 H 0.6001 1.00399 0.83384 0.0
Co150 Co 0.07208 0.7568 1.00315 0.0
C151 C 0.07842 0.82467 0.9736 0.0
Co152 Co 0.1066 0.76668 0.96173 0.0
C153 C 0.03712 0.72499 0.07149 0.0
C154 C 0.01843 0.7627 1.02806 0.0
N155 N 0.04183 0.74811 1.03673 0.0
N156 N 1.0116 0.72475 0.08452 0.0
C157 C 0.99977 0.74838 0.0576 0.0
H158 H 0.05185 0.70848 0.08639 0.0
H159 H 0.01504 0.78202 1.00117 0.0
C160 C 0.10529 0.69918 0.98402 0.0
N161 N 0.13684 0.77399 0.9281 0.0
C162 C 0.14106 0.79161 0.88635 0.0
C163 C 0.16058 0.76191 0.94158 0.0
N164 N 0.16661 0.79086 0.87365 0.0
C165 C 0.179 0.77234 0.908 0.0
C166 C 0.11511 0.76823 0.07611 0.0
O167 O 0.08421 0.70787 1.00779 0.0
O168 O 0.11587 0.72115 0.95804 0.0
O169 O 0.12726 0.77 1.03312 0.0
O170 O 0.09019 0.76477 0.07093 0.0
O171 O 0.10032 0.81251 0.96115 0.0
H172 H 0.16423 0.74662 0.97394 0.0
H173 H 0.12598 0.80524 0.86653 0.0
O174 O 0.06218 0.8055 0.99605 0.0
O175 O 0.05105 0.74934 0.93855 0.0
O176 O 0.08382 0.76391 0.89316 0.0
C177 C 0.05882 0.7567 0.89434 0.0
H178 H 0.97905 0.75468 0.05935 0.0
H179 H 0.19998 0.76745 0.90912 0.0
Co180 Co 0.70935 0.75367 0.85833 0.0
C181 C 0.70564 0.8219 0.8816 0.0
Co182 Co 0.6751 0.76658 0.89936 0.0
C183 C 0.75645 0.71802 0.83556 0.0
C184 C 0.74819 0.75567 0.78179 0.0
N185 N 0.73857 0.74111 0.82315 0.0
N186 N 0.77704 0.71809 0.8039 0.0
C187 C 0.77191 0.74153 0.76989 0.0
H188 H 0.7552 0.70282 0.86865 0.0
H189 H 0.7392 0.77631 0.76308 0.0
C190 C 0.67301 0.69931 0.88115 0.0
N191 N 0.64597 0.77959 0.93398 0.0
C192 C 0.62701 0.8004 0.9184 0.0
C193 C 0.63825 0.7692 0.97957 0.0
N194 N 0.60751 0.80285 0.95222 0.0
C195 C 0.61447 0.78349 0.99086 0.0
C196 C 0.66621 0.76594 0.78656 0.0
O197 O 0.69436 0.70606 0.85675 0.0
O198 O 0.66337 0.72238 0.90693 0.0
O199 O 0.65395 0.76864 0.82926 0.0
O200 O 0.69098 0.76166 0.79181 0.0
O201 O 0.68381 0.81037 0.89496 0.0
H202 H 0.64886 0.75168 1.00232 0.0
H203 H 0.6271 0.81277 0.88254 0.0
O204 O 0.722 0.8015 0.86181 0.0
O205 O 0.73041 0.74612 0.92247 0.0
O206 O 0.69863 0.76534 0.96706 0.0
C207 C 0.72329 0.75642 0.96577 0.0
H208 H 0.78518 0.74911 0.74039 0.0
H209 H 0.60271 0.77927 1.02409 0.0
Co210 Co 0.06705 0.02825 0.85882 0.0
C211 C 0.07959 0.96126 0.89249 0.0
Co212 Co 0.10271 0.0224 0.89911 0.0
C213 C 0.01702 0.05536 0.83927 0.0
C214 C 0.02396 1.01221 0.79491 0.0
N215 N 0.03532 0.03254 0.82838 0.0
N216 N 0.99456 0.04985 0.81415 0.0
C217 C 0.99866 0.02283 0.78618 0.0
H218 H 0.01966 0.07469 0.86669 0.0
H219 H 0.03311 0.99045 0.77962 0.0
C220 C 0.09396 0.08977 0.8767 0.0
N221 N 0.13702 0.02195 0.92436 0.0
C222 C 0.15285 1.0023 0.95213 0.0
C223 C 0.15408 0.04046 0.89777 0.0
N224 N 0.17872 1.00733 0.94124 0.0
C225 C 0.17898 0.03047 0.90578 0.0
C226 C 0.10866 0.0204 0.78319 0.0
O227 O 0.07448 0.07829 0.85091 0.0
O228 O 0.10605 0.06925 0.90306 0.0
O229 O 0.12091 0.02094 0.82577 0.0
O230 O 0.08365 0.02109 0.78868 0.0
O231 O 0.10139 0.97558 0.90011 0.0
H232 H 0.1489 0.05856 0.86994 0.0
H233 H 0.14563 0.98379 0.97748 0.0
O234 O 0.06143 0.97861 0.87091 0.0
O235 O 0.04758 0.03457 0.92466 0.0
O236 O 0.08152 0.02272 0.96989 0.0
C237 C 0.05605 0.0281 0.96881 0.0
H238 H 0.98404 1.01098 0.76275 0.0
H239 H 0.19623 0.03962 0.88659 0.0
Co240 Co 0.35276 0.52914 0.66052 0.0
C241 C 0.35661 0.46244 0.63314 0.0
Co242 Co 0.31951 0.51674 0.6151 0.0
C243 C 0.39889 0.56376 0.68732 0.0
C244 C 0.38968 0.52654 0.7411 0.0
N245 N 0.38102 0.54065 0.69851 0.0
N246 N 0.41882 0.56397 0.72056 0.0
C247 C 0.4131 0.54085 0.7547 0.0
H248 H 0.39783 0.57923 0.65447 0.0
H249 H 0.38015 0.50632 0.7597 0.0
C250 C 0.31957 0.58431 0.65111 0.0
N251 N 0.29091 0.50565 0.57692 0.0
C252 C 0.27279 0.48267 0.5875 0.0
C253 C 0.28144 0.52168 0.53656 0.0
N254 N 0.25223 0.4841 0.55574 0.0
C255 C 0.2575 0.50848 0.52352 0.0
C256 C 0.30439 0.51319 0.72155 0.0
O257 O 0.34194 0.57398 0.66475 0.0
O258 O 0.30583 0.56441 0.6238 0.0
O259 O 0.29743 0.50681 0.6765 0.0
O260 O 0.32915 0.52101 0.72577 0.0
O261 O 0.33483 0.46938 0.60998 0.0
H262 H 0.29054 0.54286 0.51978 0.0
H263 H 0.2737 0.4667 0.61978 0.0
O264 O 0.36605 0.48499 0.66035 0.0
O265 O 0.37465 0.53674 0.59275 0.0
O266 O 0.33936 0.52669 0.55023 0.0
C267 C 0.36398 0.53318 0.54858 0.0
H268 H 0.42559 0.53394 0.78598 0.0
H269 H 0.24413 0.51743 0.49488 0.0
Co270 Co 0.92644 0.75616 0.6517 0.0
C271 C 0.92576 0.82384 0.63242 0.0
Co272 Co 0.96088 0.76968 0.61082 0.0
C273 C 0.89183 0.72438 0.72276 0.0
C274 C 0.87205 0.7558 0.67022 0.0
N275 N 0.8961 0.74502 0.68416 0.0
N276 N 0.86594 0.72207 0.73297 0.0
C277 C 0.85348 0.74176 0.70024 0.0
H278 H 0.90721 0.71128 0.74258 0.0
H279 H 0.86826 0.77276 0.63998 0.0
C280 C 0.95749 0.70175 0.63649 0.0
N281 N 0.99097 0.78104 0.57846 0.0
C282 C 0.99469 0.80202 0.54016 0.0
C283 C 0.01517 0.77016 0.59113 0.0
N284 N 0.02042 0.80468 0.52908 0.0
C285 C 0.03332 0.78467 0.56078 0.0
C286 C 0.97334 0.76735 0.72034 0.0
O287 O 0.93514 0.71184 0.64992 0.0
O288 O 0.9727 0.72217 0.61433 0.0
O289 O 0.98117 0.7764 0.67687 0.0
O290 O 0.94859 0.7589 0.72071 0.0
O291 O 0.94743 0.81705 0.60944 0.0
H292 H 0.01934 0.75276 0.62061 0.0
H293 H 0.97899 0.8148 0.52077 0.0
O294 O 0.9153 0.80086 0.65671 0.0
O295 O 0.90641 0.75263 0.58016 0.0
O296 O 0.94282 0.76285 0.54204 0.0
C297 C 0.91816 0.75673 0.53721 0.0
H298 H 0.83239 0.74575 0.69855 0.0
H299 H 0.0544 0.78039 0.56096 0.0
Co300 Co 0.35711 0.75876 0.71499 0.0
C301 C 0.36976 0.82475 0.72308 0.0
Co302 Co 0.3237 0.782 0.74965 0.0
C303 C 0.40606 0.7345 0.66784 0.0
C304 C 0.38763 0.70135 0.7184 0.0
N305 N 0.38412 0.7307 0.69545 0.0
N306 N 0.42235 0.70849 0.67252 0.0
C307 C 0.41084 0.68766 0.70396 0.0
H308 H 0.41104 0.75675 0.64821 0.0
H309 H 0.37527 0.69136 0.74754 0.0
C310 C 0.31432 0.71579 0.73459 0.0
N311 N 0.29666 0.80894 0.77045 0.0
C312 C 0.27341 0.80172 0.79172 0.0
C313 C 0.2934 0.83959 0.75223 0.0
N314 N 0.25607 0.8266 0.78706 0.0
C315 C 0.26845 0.85037 0.76215 0.0
C316 C 0.3147 0.77286 0.63967 0.0
O317 O 0.33768 0.72062 0.72228 0.0
O318 O 0.30185 0.74009 0.75416 0.0
O319 O 0.30716 0.78607 0.6808 0.0
O320 O 0.33857 0.76096 0.6425 0.0
O321 O 0.34674 0.8229 0.74281 0.0
H322 H 0.30708 0.85226 0.72823 0.0
H323 H 0.26841 0.77781 0.80601 0.0
O324 O 0.37875 0.79831 0.70409 0.0
O325 O 0.37316 0.75601 0.78845 0.0
O326 O 0.33841 0.77734 0.82213 0.0
C327 C 0.36174 0.76572 0.82937 0.0
H328 H 0.41972 0.66558 0.71842 0.0
H329 H 0.25941 0.87275 0.74894 0.0
Co330 Co 0.92389 0.51183 0.70927 0.0
C331 C 0.92385 0.44472 0.73072 0.0
Co332 Co 0.95824 0.50099 0.7502 0.0
C333 C 0.87543 0.54262 0.68794 0.0
C334 C 0.88715 0.51101 0.62735 0.0
N335 N 0.89469 0.52213 0.67288 0.0
N336 N 0.85597 0.54433 0.65394 0.0
C337 C 0.86311 0.52469 0.6156 0.0
H338 H 0.87535 0.55553 0.72353 0.0
H339 H 0.89814 0.49367 0.60485 0.0
C340 C 0.95303 0.56858 0.71884 0.0
N341 N 0.98763 0.49189 0.78658 0.0
C342 C 0.99177 0.46822 0.82086 0.0
C343 C 1.01105 0.50685 0.78079 0.0
N344 N 0.01698 0.46799 0.83628 0.0
C345 C 0.02913 0.49222 0.81148 0.0
C346 C 0.97368 0.5012 0.64406 0.0
O347 O 0.93037 0.55722 0.71176 0.0
O348 O 0.96944 0.5492 0.7407 0.0
O349 O 0.98044 0.49239 0.6882 0.0
O350 O 0.94877 0.50915 0.64218 0.0
O351 O 0.94499 0.45282 0.75503 0.0
H352 H 0.01498 0.52646 0.7548 0.0
H353 H 0.97689 0.45126 0.83353 0.0
O354 O 0.91379 0.4668 0.70368 0.0
O355 O 0.90204 0.51451 0.77772 0.0
O356 O 0.93892 0.50977 0.81691 0.0
C357 C 0.91387 0.51291 0.82099 0.0
H358 H 0.85145 0.52007 0.58219 0.0
H359 H 0.04976 0.49843 0.81491 0.0
Co360 Co 0.70707 0.52423 0.50193 0.0
C361 C 0.70427 0.45587 0.47671 0.0
Co362 Co 0.67271 0.50952 0.46144 0.0
C363 C 0.74181 0.55625 0.57314 0.0
C364 C 0.76149 0.5253 0.51966 0.0
N365 N 0.73746 0.53588 0.53397 0.0
N366 N 0.76776 0.55886 0.58306 0.0
C367 C 0.78011 0.5394 0.5497 0.0
H368 H 0.72641 0.5685 0.59409 0.0
H369 H 0.76524 0.50815 0.48946 0.0
C370 C 0.67159 0.57816 0.48037 0.0
N371 N 0.64256 0.4984 0.42816 0.0
C372 C 0.63889 0.47926 0.38729 0.0
C373 C 0.61838 0.50914 0.44111 0.0
N374 N 0.61325 0.47796 0.37451 0.0
C375 C 0.60031 0.49661 0.4081 0.0
C376 C 0.66443 0.51065 0.57619 0.0
O377 O 0.69342 0.57174 0.50327 0.0
O378 O 0.66127 0.55471 0.45632 0.0
O379 O 0.65271 0.50609 0.53306 0.0
O380 O 0.689 0.5176 0.57127 0.0
O381 O 0.68159 0.46497 0.46334 0.0
H382 H 0.61419 0.52529 0.47236 0.0
H383 H 0.65452 0.46658 0.36758 0.0
O384 O 0.71913 0.47701 0.49851 0.0
O385 O 0.72732 0.53019 0.43512 0.0
O386 O 0.69483 0.51155 0.39228 0.0
C387 C 0.71957 0.51996 0.3919 0.0
H388 H 0.80115 0.5349 0.54852 0.0
H389 H 0.57924 0.50077 0.40855 0.0
Co390 Co 0.07078 0.26163 0.49787 0.0
C391 C 0.0718 0.32927 0.46487 0.0
Co392 Co 0.10417 0.27377 0.45359 0.0
C393 C 0.0254 0.22581 0.52293 0.0
C394 C 0.03103 0.26685 0.57235 0.0
N395 N 0.04211 0.25031 0.534 0.0
N396 N 1.004 0.22688 0.5522 0.0
C397 C 1.00737 0.25246 0.58353 0.0
H398 H 0.02785 0.20907 0.49166 0.0
H399 H 0.03885 0.28903 0.58879 0.0
C400 C 0.10688 0.20708 0.47874 0.0
N401 N 0.13332 0.28488 0.41779 0.0
C402 C 0.13621 0.30733 0.38119 0.0
C403 C 0.15788 0.27442 0.42863 0.0
N404 N 0.1617 0.31123 0.3694 0.0
C405 C 0.17537 0.29057 0.39883 0.0
C406 C 0.11461 0.27685 0.56625 0.0
O407 O 0.08545 0.21435 0.50238 0.0
O408 O 0.1164 0.2294 0.45175 0.0
O409 O 0.12562 0.28012 0.52252 0.0
O410 O 0.08992 0.27098 0.56372 0.0
O411 O 0.09415 0.31879 0.45165 0.0
H412 H 0.16283 0.25702 0.45769 0.0
H413 H 0.12025 0.32127 0.36487 0.0
O414 O 0.0575 0.30927 0.49038 0.0
O415 O 0.04919 0.25225 0.43533 0.0
O416 O 0.08101 0.26708 0.38717 0.0
C417 C 0.05627 0.25903 0.39065 0.0
H418 H 0.99289 0.26136 0.61011 0.0
H419 H 0.19657 0.28806 0.39953 0.0
Co420 Co 0.70828 0.2562 0.36102 0.0
C421 C 0.70377 0.32285 0.39605 0.0
Co422 Co 0.67474 0.26541 0.40693 0.0
C423 C 0.75332 0.22164 0.33112 0.0
C424 C 0.748 0.26486 0.28661 0.0
N425 N 0.73704 0.24717 0.32357 0.0
N426 N 0.77427 0.22297 0.30078 0.0
C427 C 0.77114 0.24993 0.27253 0.0
H428 H 0.7506 0.20338 0.35996 0.0
H429 H 0.74019 0.28765 0.27241 0.0
C430 C 0.67554 0.19942 0.37918 0.0
N431 N 0.64522 0.27302 0.44568 0.0
C432 C 0.63934 0.29897 0.47517 0.0
C433 C 0.62336 0.25421 0.44638 0.0
N434 N 0.61488 0.29677 0.49385 0.0
C435 C 0.60482 0.26865 0.47621 0.0
C436 C 0.66273 0.26911 0.29449 0.0
O437 O 0.69602 0.20823 0.3543 0.0
O438 O 0.66584 0.22053 0.40813 0.0
O439 O 0.65193 0.27042 0.33885 0.0
O440 O 0.68779 0.26526 0.29614 0.0
O441 O 0.68197 0.31084 0.40902 0.0
H442 H 0.62027 0.2323 0.42435 0.0
H443 H 0.65182 0.32007 0.48035 0.0
O444 O 0.71912 0.30416 0.37014 0.0
O445 O 0.73123 0.24763 0.42291 0.0
O446 O 0.69921 0.26041 0.47218 0.0
C447 C 0.7243 0.25417 0.46801 0.0
H448 H 0.7852 0.25884 0.24532 0.0
H449 H 0.58472 0.26054 0.48141 0.0
Co450 Co 0.07368 0.52975 0.36834 0.0
C451 C 0.0689 0.46185 0.38643 0.0
Co452 Co 0.10743 0.50908 0.40503 0.0
C453 C 0.02314 0.5455 0.3196 0.0
C454 C 0.04104 0.58446 0.3609 0.0
N455 N 0.04536 0.55347 0.34441 0.0
N456 N 1.00572 0.57053 0.31989 0.0
C457 C 0.01681 0.59495 0.3458 0.0
H458 H 0.01896 0.5213 0.30514 0.0
H459 H 0.05348 0.5979 0.38661 0.0
C460 C 0.11684 0.57648 0.39223 0.0
N461 N 0.1363 0.4889 0.43333 0.0
C462 C 0.13875 0.47406 0.47836 0.0
C463 C 0.16039 0.48692 0.41236 0.0
N464 N 0.16351 0.46314 0.48633 0.0
C465 C 0.17704 0.47113 0.44467 0.0
C466 C 0.11251 0.51248 0.28993 0.0
O467 O 0.09436 0.57297 0.37087 0.0
O468 O 0.12556 0.55135 0.41469 0.0
O469 O 0.12463 0.50527 0.33162 0.0
O470 O 0.08883 0.52299 0.29678 0.0
O471 O 0.09251 0.46757 0.39829 0.0
H472 H 0.16601 0.49762 0.37696 0.0
H473 H 0.1229 0.47188 0.50503 0.0
O474 O 0.05521 0.48555 0.36758 0.0
O475 O 0.05567 0.53546 0.43639 0.0
O476 O 0.08691 0.5116 0.476 0.0
C477 C 0.06274 0.52243 0.47789 0.0
H478 H 1.00723 0.61768 0.35602 0.0
H479 H 0.19807 0.46796 0.43962 0.0
Co480 Co 0.85527 1.01181 0.64936 0.0
C481 C 0.85764 0.94418 0.63102 0.0
Co482 Co 0.82197 0.99736 0.60669 0.0
C483 C 0.88473 0.04498 0.72578 0.0
C484 C 0.90889 0.01644 0.67583 0.0
N485 N 0.8837 0.02441 0.68606 0.0
N486 N 0.90973 0.05024 0.7402 0.0
C487 C 0.92497 0.03233 0.70918 0.0
H488 H 0.86766 0.05608 0.74327 0.0
H489 H 0.91513 1.00025 0.6459 0.0
C490 C 0.82402 0.06544 0.63156 0.0
N491 N 0.79349 0.9849 0.56923 0.0
C492 C 0.77624 0.96067 0.5787 0.0
C493 C 0.78435 0.99984 0.52769 0.0
N494 N 0.75645 0.96027 0.54495 0.0
C495 C 0.76155 0.98473 0.51269 0.0
C496 C 0.80638 1.00066 0.71272 0.0
O497 O 0.84671 0.05613 0.64408 0.0
O498 O 0.80868 0.04423 0.61104 0.0
O499 O 0.80016 0.98906 0.66957 0.0
O500 O 0.83067 1.01073 0.71486 0.0
O501 O 0.83689 0.9507 0.60481 0.0
H502 H 0.79312 0.02115 0.51068 0.0
H503 H 0.77769 0.94445 0.61061 0.0
O504 O 0.8666 0.96721 0.65787 0.0
O505 O 0.87776 1.01373 0.58149 0.0
O506 O 0.84164 1.00609 0.54106 0.0
C507 C 0.86653 1.01063 0.53785 0.0
H508 H 0.94625 0.03074 0.71097 0.0
H509 H 0.74881 0.99224 0.4821 0.0
Co510 Co 0.42382 0.27396 0.65186 0.0
C511 C 0.42587 0.34142 0.62825 0.0
Co512 Co 0.45785 0.28323 0.61028 0.0
C513 C 0.38515 0.24408 0.71705 0.0
C514 C 0.37144 0.28726 0.67988 0.0
N515 N 0.39307 0.26835 0.68664 0.0
N516 N 0.35971 0.24766 0.72958 0.0
C517 C 0.351 0.27473 0.70663 0.0
H518 H 0.39698 0.22316 0.72708 0.0
H519 H 0.36998 0.3078 0.65459 0.0
C520 C 0.45128 0.21508 0.64299 0.0
N521 N 0.48738 0.29063 0.57469 0.0
C522 C 0.504 0.31597 0.58029 0.0
C523 C 0.49832 0.27093 0.5399 0.0
N524 N 0.52517 0.31254 0.55073 0.0
C525 C 0.5217 0.28443 0.52503 0.0
C526 C 0.473 0.28229 0.71705 0.0
O527 O 0.4288 0.22728 0.65161 0.0
O528 O 0.46792 0.23431 0.6214 0.0
O529 O 0.47977 0.29227 0.6735 0.0
O530 O 0.44795 0.27521 0.71873 0.0
O531 O 0.44596 0.33212 0.60215 0.0
H532 H 0.49016 0.24789 0.52739 0.0
H533 H 0.50102 0.33591 0.60652 0.0
O534 O 0.41656 0.32003 0.65684 0.0
O535 O 0.40193 0.27234 0.58199 0.0
O536 O 0.43893 0.27387 0.54347 0.0
C537 C 0.41385 0.27268 0.53875 0.0
H538 H 0.33081 0.28341 0.70661 0.0
H539 H 0.53559 0.274 0.49859 0.0
Co540 Co 0.85796 0.25507 0.70646 0.0
C541 C 0.85742 0.3221 0.73189 0.0
Co542 Co 0.82308 0.26516 0.74754 0.0
C543 C 0.89132 0.22724 0.63116 0.0
C544 C 0.91251 0.2543 0.68755 0.0
N545 N 0.88807 0.24592 0.67255 0.0
N546 N 0.91694 0.22345 0.62034 0.0
C547 C 0.93036 0.2405 0.65535 0.0
H548 H 0.8754 0.21622 0.61006 0.0
H549 H 0.91704 0.26911 0.7202 0.0
C550 C 0.8283 0.19813 0.71339 0.0
N551 N 0.79261 0.27296 0.7809 0.0
C552 C 0.78641 0.29666 0.81403 0.0
C553 C 0.7702 0.25577 0.77386 0.0
N554 N 0.76101 0.29452 0.82752 0.0
C555 C 0.75075 0.26897 0.80266 0.0
C556 C 0.81028 0.26734 0.63959 0.0
O557 O 0.85044 0.20965 0.70209 0.0
O558 O 0.81284 0.21715 0.73802 0.0
O559 O 0.80217 0.27377 0.68387 0.0
O560 O 0.83549 0.2609 0.63794 0.0
O561 O 0.83568 0.31388 0.75393 0.0
H562 H 0.76775 0.23533 0.74859 0.0
H563 H 0.79991 0.31522 0.82735 0.0
O564 O 0.86845 0.29997 0.70632 0.0
O565 O 0.87806 0.24934 0.77809 0.0
O566 O 0.84084 0.25609 0.81501 0.0
C567 C 0.86561 0.25152 0.8208 0.0
H568 H 0.9516 0.24274 0.65725 0.0
H569 H 0.73047 0.26091 0.80481 0.0
Co570 Co 0.42676 0.02065 0.70694 0.0
C571 C 0.42989 0.9525 0.7264 0.0
Co572 Co 0.4616 1.01066 0.74823 0.0
C573 C 0.39221 0.05124 0.63582 0.0
C574 C 0.37303 1.01564 0.68216 0.0
N575 N 0.39664 0.02918 0.67241 0.0
N576 N 0.36666 0.05186 0.62275 0.0
C577 C 0.35452 0.02956 0.65149 0.0
H578 H 0.40711 0.06718 0.62037 0.0
H579 H 0.36943 0.99748 0.71073 0.0
C580 C 0.45508 0.07851 0.72075 0.0
N581 N 0.4914 1.00169 0.78292 0.0
C582 C 0.49477 0.9797 0.81993 0.0
C583 C 0.51525 1.0151 0.77525 0.0
N584 N 0.51989 0.97899 0.83549 0.0
C585 C 0.53287 1.00116 0.8078 0.0
C586 C 0.47477 1.01169 0.63948 0.0
O587 O 0.43317 0.06659 0.70795 0.0
O588 O 0.47131 0.05917 0.74312 0.0
O589 O 0.483 1.00414 0.68352 0.0
O590 O 0.44967 0.01859 0.63869 0.0
O591 O 0.45059 0.96188 0.7506 0.0
H592 H 0.51952 0.03362 0.74758 0.0
H593 H 0.47933 0.9645 0.83498 0.0
O594 O 0.41793 0.97443 0.70194 0.0
O595 O 0.40561 0.02347 0.7781 0.0
O596 O 0.44259 0.0177 0.81643 0.0
C597 C 0.4176 0.02145 0.82143 0.0
H598 H 0.33358 0.02451 0.65116 0.0
H599 H 0.55358 1.00695 0.81137 0.0
Co600 Co 0.20992 0.03188 0.5033 0.0
C601 C 0.20597 0.96372 0.4746 0.0
Co602 Co 0.17662 0.01982 0.4585 0.0
C603 C 0.25644 0.06576 0.52938 0.0
C604 C 0.2487 0.02619 0.57996 0.0
N605 N 0.23884 0.04223 0.54004 0.0
N606 N 0.27728 0.06447 0.56041 0.0
C607 C 0.2725 0.03986 0.59255 0.0
H608 H 0.25478 0.08221 0.49776 0.0
H609 H 0.23981 1.00497 0.59701 0.0
C610 C 0.17636 0.08749 0.48097 0.0
N611 N 0.14699 1.01121 0.42261 0.0
C612 C 0.14241 0.98965 0.38526 0.0
C613 C 0.12344 0.02516 0.43265 0.0
N614 N 0.11685 0.98992 0.37205 0.0
C615 C 0.10486 1.01214 0.40142 0.0
C616 C 0.16502 0.01967 0.57126 0.0
O617 O 0.19726 0.07992 0.50596 0.0
O618 O 0.16678 0.0651 0.45399 0.0
O619 O 0.15439 1.01629 0.52704 0.0
O620 O 0.18984 0.02504 0.56932 0.0
O621 O 0.1841 0.97456 0.45932 0.0
H622 H 0.11985 0.04308 0.46185 0.0
H623 H 0.15712 0.9734 0.36952 0.0
O624 O 0.22098 0.98375 0.49881 0.0
O625 O 0.23244 0.0382 0.43983 0.0
O626 O 0.20063 0.02236 0.39219 0.0
C627 C 0.22554 0.02976 0.39524 0.0
H628 H 0.28604 0.0312 0.62108 0.0
H629 H 0.08396 0.01757 0.40127 0.0
Co630 Co 0.57349 0.75987 0.49814 0.0
C631 C 0.57988 0.82665 0.47102 0.0
Co632 Co 0.60813 0.76882 0.4563 0.0
C633 C 0.53815 0.73088 0.56834 0.0
C634 C 0.5199 0.76565 0.51882 0.0
N635 N 0.54319 0.75156 0.5305 0.0
N636 N 0.51252 0.73183 0.58033 0.0
C637 C 0.50094 0.75351 0.54959 0.0
H638 H 0.55274 0.71553 0.58641 0.0
H639 H 0.51681 0.78323 0.48921 0.0
C640 C 0.60663 0.702 0.47768 0.0
N641 N 0.63801 0.77872 0.42269 0.0
C642 C 0.65658 0.80011 0.43764 0.0
C643 C 0.64658 0.76624 0.37878 0.0
N644 N 0.67666 0.80107 0.40511 0.0
C645 C 0.67051 0.78003 0.36784 0.0
C646 C 0.61646 0.7698 0.56976 0.0
O647 O 0.58511 0.71089 0.50001 0.0
O648 O 0.61819 0.72383 0.45268 0.0
O649 O 0.6285 0.77204 0.52683 0.0
O650 O 0.59159 0.76579 0.56557 0.0
O651 O 0.60082 0.81325 0.45636 0.0
H652 H 0.63628 0.74801 0.35675 0.0
H653 H 0.65562 0.81431 0.47198 0.0
O654 O 0.56377 0.80828 0.49468 0.0
O655 O 0.55263 0.75437 0.43369 0.0
O656 O 0.58589 0.76661 0.3881 0.0
C657 C 0.56067 0.76141 0.3897 0.0
H658 H 0.48019 0.7598 0.5495 0.0
H659 H 0.68272 0.77472 0.33552 0.0
Co660 Co 0.21219 0.75992 0.36405 0.0
C661 C 0.20549 0.8276 0.39603 0.0
Co662 Co 0.17761 0.769 0.40582 0.0
C663 C 0.24608 0.72908 0.29234 0.0
C664 C 0.26517 0.76666 0.33571 0.0
N665 N 0.24182 0.75179 0.32828 0.0
N666 N 0.27132 0.72933 0.27749 0.0
C667 C 0.28338 0.75288 0.30435 0.0
H668 H 0.23121 0.71259 0.27787 0.0
H669 H 0.26887 0.78576 0.36302 0.0
C670 C 0.1799 0.70174 0.38415 0.0
N671 N 0.14809 0.77824 0.44147 0.0
C672 C 0.12858 0.79827 0.42615 0.0
C673 C 0.14034 0.76648 0.48624 0.0
N674 N 0.10874 0.79901 0.45918 0.0
C675 C 0.11591 0.77924 0.49721 0.0
C676 C 0.16774 0.77081 0.29297 0.0
O677 O 0.20067 0.71097 0.36001 0.0
O678 O 0.16832 0.72358 0.4095 0.0
O679 O 0.15602 0.77228 0.33633 0.0
O680 O 0.19277 0.7675 0.29713 0.0
O681 O 0.18367 0.81473 0.40606 0.0
H682 H 0.15141 0.74918 0.50859 0.0
H683 H 0.12853 0.81139 0.39091 0.0
O684 O 0.22202 0.80899 0.3727 0.0
O685 O 0.23424 0.75229 0.42626 0.0
O686 O 0.20175 0.76546 0.47324 0.0
C687 C 0.22683 0.75852 0.471 0.0
H688 H 0.30399 0.75936 0.30155 0.0
H689 H 0.10394 0.77375 0.5297 0.0
Co690 Co 0.57269 0.0253 0.35569 0.0
C691 C 0.57827 0.95822 0.38157 0.0
Co692 Co 0.60718 1.01454 0.39847 0.0
C693 C 0.53978 0.0585 0.28501 0.0
C694 C 0.51894 0.02326 0.32938 0.0
N695 N 0.54303 0.03589 0.32125 0.0
N696 N 0.51445 0.06038 0.2706 0.0
C697 C 0.5013 0.0383 0.29811 0.0
H698 H 0.55548 0.07328 0.26976 0.0
H699 H 0.51447 1.00466 0.35678 0.0
C700 C 0.6067 0.08109 0.37794 0.0
N701 N 0.63754 1.004 0.43248 0.0
C702 C 0.64251 0.97973 0.46551 0.0
C703 C 0.66113 0.01795 0.42361 0.0
N704 N 0.6683 0.97832 0.47725 0.0
C705 C 0.68004 1.00228 0.45126 0.0
C706 C 0.61623 1.01404 0.28467 0.0
O707 O 0.58541 0.0733 0.35418 0.0
O708 O 0.61715 0.05895 0.40404 0.0
O709 O 0.628 1.01157 0.32806 0.0
O710 O 0.59135 0.01857 0.28841 0.0
O711 O 0.59959 0.97075 0.39602 0.0
H712 H 0.66453 0.03753 0.39726 0.0
H713 H 0.62785 0.96279 0.47914 0.0
O714 O 0.56197 0.97723 0.35892 0.0
O715 O 0.5514 0.03164 0.42069 0.0
O716 O 0.58432 0.01653 0.46642 0.0
C717 C 0.55924 0.02351 0.46477 0.0
H718 H 0.48039 0.03347 0.29554 0.0
H719 H 0.70098 1.0073 0.45124 0.0
Co720 Co 0.85297 0.50835 0.15044 0.0
C721 C 0.85323 0.44018 0.12986 0.0
Co722 Co 0.81852 0.49649 0.10985 0.0
C723 C 0.88893 0.5378 0.22102 0.0
C724 C 0.90673 0.50388 0.16937 0.0
N725 N 0.88344 0.51726 0.18286 0.0
N726 N 0.91482 0.53741 0.23145 0.0
C727 C 0.9261 0.51623 0.19938 0.0
H728 H 0.87455 0.55313 0.23977 0.0
H729 H 0.9095 0.4865 0.1391 0.0
C730 C 0.82336 0.56466 0.13679 0.0
N731 N 0.78882 0.48567 0.07562 0.0
C732 C 0.77199 0.46122 0.08607 0.0
C733 C 0.77855 0.50119 1.03558 0.0
N734 N 0.75137 0.46119 1.05432 0.0
C735 C 0.75543 0.48614 1.0224 0.0
C736 C 0.80534 0.49995 0.21878 0.0
O737 O 0.84576 0.5537 0.14874 0.0
O738 O 0.80728 0.54455 0.11543 0.0
O739 O 0.79756 0.49022 0.17529 0.0
O740 O 0.83036 0.50729 0.21922 0.0
O741 O 0.83187 0.44791 0.10607 0.0
H742 H 0.78694 0.5226 1.01818 0.0
H743 H 0.77434 0.44454 0.11724 0.0
O744 O 0.86309 0.4628 0.15607 0.0
O745 O 0.87347 0.51085 0.07954 0.0
O746 O 0.83653 0.50402 1.04189 0.0
C747 C 0.86131 0.50839 1.03666 0.0
H748 H 0.94697 0.51076 0.19741 0.0
H749 H 0.74195 0.49379 0.99311 0.0
Co750 Co 0.42581 0.76731 0.15479 0.0
C751 C 0.42613 0.8346 0.13307 0.0
Co752 Co 0.46051 0.77816 0.11541 0.0
C753 C 0.37852 0.73488 0.17629 0.0
C754 C 0.38795 0.7698 0.23401 0.0
N755 N 0.3966 0.75716 0.19027 0.0
N756 N 0.35861 0.73358 0.20905 0.0
C757 C 0.36436 0.75527 0.24566 0.0
H758 H 0.37968 0.72029 0.14235 0.0
H759 H 0.39789 0.78867 0.25534 0.0
C760 C 0.45612 0.71068 0.14879 0.0
N761 N 0.49042 0.78685 0.0799 0.0
C762 C 0.49465 0.80798 1.04194 0.0
C763 C 0.51405 0.77298 0.08936 0.0
N764 N 0.52002 0.80743 1.02751 0.0
C765 C 0.53225 0.78553 0.05706 0.0
C766 C 0.47413 0.77959 0.22149 0.0
O767 O 0.43297 0.72133 0.15347 0.0
O768 O 0.47232 0.73032 0.12732 0.0
O769 O 0.48166 0.78822 0.17785 0.0
O770 O 0.44956 0.77065 0.22197 0.0
O771 O 0.44713 0.82613 0.10873 0.0
H772 H 0.5179 0.75512 0.11831 0.0
H773 H 0.4797 0.82351 1.02556 0.0
O774 O 0.41566 0.81259 0.1595 0.0
O775 O 0.40421 0.76443 0.08623 0.0
O776 O 0.44142 0.76778 1.04825 0.0
C777 C 0.41627 0.76533 1.04337 0.0
H778 H 0.35206 0.76065 0.27782 0.0
H779 H 0.55293 0.77903 1.055 0.0
Co780 Co 0.85591 0.75877 0.20737 0.0
C781 C 0.85354 0.82635 0.22723 0.0
Co782 Co 0.82093 0.76824 0.24806 0.0
C783 C 0.90389 0.72719 0.18677 0.0
C784 C 0.89356 0.76056 0.12776 0.0
N785 N 0.88532 0.74873 0.17213 0.0
N786 N 0.92369 0.72556 0.15373 0.0
C787 C 0.91738 0.74631 0.11636 0.0
H788 H 0.90317 0.71341 0.22136 0.0
H789 H 0.88318 0.77873 0.10583 0.0
C790 C 0.82698 0.70047 0.217 0.0
N791 N 0.79156 0.77708 0.28453 0.0
C792 C 0.78785 0.80129 0.31836 0.0
C793 C 0.7686 0.76065 0.28257 0.0
N794 N 0.76342 0.80042 0.33728 0.0
C795 C 0.75122 0.775 0.31512 0.0
C796 C 0.80708 0.76827 0.1414 0.0
O797 O 0.84909 0.71281 0.20729 0.0
O798 O 0.81068 0.71946 0.2401 0.0
O799 O 0.79897 0.77569 0.18538 0.0
O800 O 0.83227 0.76195 0.14002 0.0
O801 O 0.83273 0.8171 0.25118 0.0
H802 H 0.76461 0.73975 0.25889 0.0
H803 H 0.80254 0.8192 0.32876 0.0
O804 O 0.86557 0.80434 0.20297 0.0
O805 O 0.87745 0.7558 0.27729 0.0
O806 O 0.84036 0.76048 0.31529 0.0
C807 C 0.8654 0.75746 0.32031 0.0
H808 H 0.92952 0.75133 0.08391 0.0
H809 H 0.7311 0.76757 0.322 0.0
Co810 Co 0.42496 0.5335 0.22146 0.0
C811 C 0.41613 0.46668 0.23316 0.0
Co812 Co 0.45919 0.51457 0.25923 0.0
C813 C 0.37555 0.55138 0.16836 0.0
C814 C 0.39126 0.58794 0.21727 0.0
N815 N 0.39676 0.55806 0.19713 0.0
N816 N 0.35795 0.57624 0.16961 0.0
C817 C 0.36781 0.5992 0.1999 0.0
H818 H 0.37202 0.52799 0.15048 0.0
H819 H 0.40235 0.60003 0.24663 0.0
C820 C 0.46441 0.58098 0.23976 0.0
N821 N 0.48742 0.49502 0.29029 0.0
C822 C 0.5051 0.47368 0.27108 0.0
C823 C 0.49719 0.5037 0.33556 0.0
N824 N 0.52573 0.46947 0.30221 0.0
C825 C 0.52068 0.48795 0.343 0.0
C826 C 0.46984 0.51943 0.14928 0.0
O827 O 0.44163 0.57355 0.22661 0.0
O828 O 0.47788 0.5587 0.26172 0.0
O829 O 0.47783 0.50867 0.1919 0.0
O830 O 0.44537 0.52969 0.15051 0.0
O831 O 0.43911 0.47007 0.25416 0.0
H832 H 0.48883 0.5221 0.36008 0.0
H833 H 0.50382 0.46308 0.23395 0.0
O834 O 0.40644 0.49211 0.21253 0.0
O835 O 0.40674 0.53764 0.29356 0.0
O836 O 0.44232 0.52142 0.32903 0.0
C837 C 0.41841 0.53058 0.33548 0.0
H838 H 0.35754 0.62102 0.21198 0.0
H839 H 0.53407 0.49167 0.37424 0.0
Co840 Co 0.20579 0.51869 0.99818 0.0
C841 C 0.20194 0.45129 0.96335 0.0
Co842 Co 0.17095 0.50786 0.95835 0.0
C843 C 0.24147 0.54936 0.06727 0.0
C844 C 0.25875 0.51021 1.02457 0.0
N845 N 0.23596 0.52663 1.03222 0.0
N846 N 0.26678 0.54728 0.0815 0.0
C847 C 0.27773 0.52287 1.05502 0.0
H848 H 0.22761 0.56729 0.08129 0.0
H849 H 0.26175 0.49069 0.99787 0.0
C850 C 0.1708 0.57512 0.98228 0.0
N851 N 0.14136 0.49772 0.92359 0.0
C852 C 0.12391 0.47449 0.93636 0.0
C853 C 0.13211 0.511 0.88083 0.0
N854 N 0.10382 0.47313 0.90366 0.0
C855 C 0.10883 0.49585 0.86847 0.0
C856 C 0.16283 0.50635 0.07161 0.0
O857 O 0.1925 0.56706 1.00496 0.0
O858 O 0.16006 0.55284 0.95646 0.0
O859 O 0.15032 0.50395 1.02895 0.0
O860 O 0.18777 0.5093 0.06567 0.0
O861 O 0.17889 0.46173 0.95592 0.0
H862 H 0.14154 0.53055 0.86046 0.0
H863 H 0.12581 0.45905 0.96912 0.0
O864 O 0.21722 0.47093 0.98721 0.0
O865 O 0.22666 0.52813 0.9356 0.0
O866 O 0.1938 0.51285 0.89026 0.0
C867 C 0.21869 0.52047 0.89173 0.0
H868 H 0.29817 0.51526 0.05722 0.0
H869 H 0.09635 0.5013 0.83653 0.0
Co870 Co 0.57083 0.25356 0.99781 0.0
C871 C 0.56339 0.3217 0.98413 0.0
Co872 Co 0.60418 0.27661 0.9654 0.0
C873 C 0.52076 0.23522 1.04455 0.0
C874 C 0.54095 0.19587 1.0082 0.0
N875 N 0.54345 0.22785 1.02094 0.0
N876 N 0.50478 0.20896 1.04728 0.0
C877 C 0.5173 0.18421 1.0246 0.0
H878 H 0.51541 0.25956 0.05697 0.0
H879 H 0.55447 0.18205 0.98511 0.0
C880 C 0.61617 0.20957 0.97139 0.0
N881 N 0.63207 0.30299 0.94527 0.0
C882 C 0.65292 0.29867 0.9147 0.0
C883 C 0.63775 0.33098 0.97078 0.0
N884 N 0.67059 0.3231 0.92028 0.0
C885 C 0.66114 0.34333 0.95534 0.0
C886 C 0.60909 0.26914 0.07919 0.0
O887 O 0.59391 0.21195 0.99408 0.0
O888 O 0.62414 0.23565 0.95016 0.0
O889 O 0.62163 0.27662 1.03843 0.0
O890 O 0.58507 0.26043 0.07068 0.0
O891 O 0.58721 0.31606 0.97701 0.0
H892 H 0.62675 0.34078 1.00213 0.0
H893 H 0.65616 0.27698 0.89211 0.0
O894 O 0.54936 0.29715 0.99845 0.0
O895 O 0.55457 0.24655 0.92889 0.0
O896 O 0.5831 0.27754 0.89366 0.0
C897 C 0.55993 0.26354 0.89007 0.0
H898 H 0.50918 0.16014 1.01791 0.0
H899 H 0.67166 0.36358 0.97203 0.0
Co900 Co 0.20438 0.25588 0.86202 0.0
C901 C 0.21384 0.32246 0.87403 0.0
Co902 Co 0.17146 0.2806 0.89433 0.0
C903 C 0.25313 0.23498 0.81435 0.0
C904 C 0.23194 0.19617 0.84915 0.0
N905 N 0.23043 0.22847 0.83812 0.0
N906 N 0.26825 0.20801 0.81007 0.0
C907 C 0.2551 0.18349 0.8315 0.0
H908 H 0.25911 0.25917 0.80276 0.0
H909 H 0.21804 0.18271 0.87163 0.0
C910 C 0.15738 0.21474 0.88715 0.0
N911 N 0.14486 0.30899 0.91666 0.0
C912 C 0.12258 0.30311 0.94241 0.0
C913 C 0.14187 0.34035 0.90061 0.0
N914 N 0.10655 0.3295 0.94307 0.0
C915 C 0.11862 0.35292 0.91721 0.0
C916 C 0.1665 0.27374 0.7815 0.0
O917 O 0.17998 0.21595 0.86571 0.0
O918 O 0.15 0.24107 0.90889 0.0
O919 O 0.15399 0.28188 0.8221 0.0
O920 O 0.19014 0.26353 0.79001 0.0
O921 O 0.18996 0.31802 0.88202 0.0
H922 H 0.15455 0.35312 0.87483 0.0
H923 H 0.11721 0.27942 0.95707 0.0
O924 O 0.22732 0.29732 0.86031 0.0
O925 O 0.22076 0.24858 0.93078 0.0
O926 O 0.19246 0.28049 0.96571 0.0
C927 C 0.21539 0.26592 0.96953 0.0
H928 H 0.26248 0.15887 0.83653 0.0
H929 H 0.11022 0.37644 0.90815 0.0
Co930 Co 0.56826 0.52323 0.86707 0.0
C931 C 0.5712 0.45516 0.90136 0.0
Co932 Co 0.60281 0.51205 0.90876 0.0
C933 C 0.53344 0.55746 0.79977 0.0
C934 C 0.51466 0.51873 0.84035 0.0
N935 N 0.53814 0.53326 0.83293 0.0
N936 N 0.50789 0.55832 0.7865 0.0
C937 C 0.49603 0.53406 0.81165 0.0
H938 H 0.54812 0.57448 0.78655 0.0
H939 H 0.51105 0.49898 0.86626 0.0
C940 C 0.60387 0.57897 0.88358 0.0
N941 N 0.63321 0.50221 0.94271 0.0
C942 C 0.63809 0.47879 0.9771 0.0
C943 C 0.6569 0.51545 0.93242 0.0
N944 N 0.66387 0.47718 0.98835 0.0
C945 C 0.67577 0.50018 0.96064 0.0
C946 C 0.61113 0.50915 0.79385 0.0
O947 O 0.5823 0.57118 0.8605 0.0
O948 O 0.61399 0.55683 0.91015 0.0
O949 O 0.62318 0.50654 0.83709 0.0
O950 O 0.58619 0.51324 0.79912 0.0
O951 O 0.5939 0.46597 0.91185 0.0
H952 H 0.66043 0.53407 0.90453 0.0
H953 H 0.62343 0.46235 0.99189 0.0
O954 O 0.55607 0.4751 0.87721 0.0
O955 O 0.54779 0.53344 0.93126 0.0
O956 O 0.5805 0.5188 0.97724 0.0
C957 C 0.55573 0.5275 0.97599 0.0
H958 H 0.47522 0.52834 0.80989 0.0
H959 H 0.69678 0.50459 0.95948 0.0
C960 C 0.40591 0.88502 0.17749 0.0
C961 C 0.41217 0.86859 0.13148 0.0
C962 C 0.385 0.91145 0.08753 0.0
C963 C 0.37672 0.92588 0.13411 0.0
N964 N 0.37654 0.92129 0.22422 0.0
N965 N 0.40315 0.86425 1.04289 0.0
C966 C 0.38658 0.91118 0.17915 0.0
C967 C 0.40051 0.88147 0.08659 0.0
N968 N 0.41918 0.87623 0.22011 0.0
N969 N 0.37903 0.92704 1.04367 0.0
H970 H 0.41419 0.84283 1.04064 0.0
H971 H 0.39278 0.86974 1.01014 0.0
H972 H 0.36778 0.94836 1.04235 0.0
H973 H 0.38702 0.92037 1.0091 0.0
H974 H 0.41795 0.88912 0.25384 0.0
H975 H 0.43363 0.85803 0.22034 0.0
H976 H 0.38047 0.9096 0.25811 0.0
H977 H 0.362 0.93926 0.22713 0.0
C978 C 0.87937 0.39391 0.08112 0.0
C979 C 0.86872 0.40689 0.12705 0.0
C980 C 0.89804 0.36667 0.17208 0.0
C981 C 0.90678 0.35165 0.12631 0.0
N982 N 0.90122 0.34897 1.03658 0.0
N983 N 0.86553 0.40002 0.21648 0.0
C984 C 0.89616 0.36485 0.08071 0.0
C985 C 0.87755 0.39157 0.17241 0.0
N986 N 0.87454 0.41023 1.03751 0.0
N987 N 0.91014 0.35791 0.21597 0.0
H988 H 0.85023 0.41707 0.21823 0.0
H989 H 0.86866 0.38775 0.25018 0.0
H990 H 0.92542 0.34081 0.21732 0.0
H991 H 0.90708 0.36995 0.25001 0.0
H992 H 0.88387 0.40478 1.00367 0.0
H993 H 0.86272 0.43101 1.03633 0.0
H994 H 0.89169 0.3545 1.00292 0.0
H995 H 0.91355 0.32859 1.03445 0.0
C996 C 0.39099 0.41925 0.27932 0.0
C997 C 0.39955 0.43431 0.23359 0.0
C998 C 0.37016 0.3943 0.18811 0.0
C999 C 0.36358 0.37732 0.23335 0.0
N1000 N 0.37229 0.3719 0.32194 0.0
N1001 N 0.39935 0.43158 0.14332 0.0
C1002 C 0.37523 0.38951 0.27886 0.0
C1003 C 0.38951 0.42051 0.18783 0.0
N1004 N 0.39686 0.43423 0.32385 0.0
N1005 N 0.3571 0.38606 0.14493 0.0
H1006 H 0.41358 0.44988 0.14139 0.0
H1007 H 0.39545 0.42059 0.10875 0.0
H1008 H 0.34275 0.36786 0.14372 0.0
H1009 H 0.35845 0.39929 0.11171 0.0
H1010 H 0.38896 0.42712 0.35818 0.0
H1011 H 0.40779 0.45568 0.32579 0.0
H1012 H 0.38281 0.37671 0.35481 0.0
H1013 H 0.36084 0.35084 0.32373 0.0
C1014 C 0.86712 0.88001 0.1825 0.0
C1015 C 0.86556 0.8614 0.22781 0.0
C1016 C 0.8936 0.90469 0.26846 0.0
C1017 C 0.89731 0.92169 0.22189 0.0
N1018 N 0.88977 0.92125 0.13252 0.0
N1019 N 0.88164 0.85451 0.31213 0.0
C1020 C 0.88439 0.90822 0.17854 0.0
C1021 C 0.87992 0.87355 0.27024 0.0
N1022 N 0.85156 0.87094 0.14288 0.0
N1023 N 0.90223 0.91884 0.31204 0.0
H1024 H 0.8719 0.83224 0.31512 0.0
H1025 H 0.8943 0.85945 0.34208 0.0
H1026 H 0.91207 0.94111 0.31312 0.0
H1027 H 0.89745 0.91011 0.34757 0.0
H1028 H 0.8492 0.88489 0.11055 0.0
H1029 H 0.83899 0.85082 0.14436 0.0
H1030 H 0.88363 0.91082 0.09874 0.0
H1031 H 0.90258 0.94083 0.12765 0.0
C1032 C 0.66026 0.13428 0.92765 0.0
C1033 C 0.66568 0.117 0.97333 0.0
C1034 C 0.64108 0.16206 1.01807 0.0
C1035 C 0.63329 0.17745 0.97194 0.0
N1036 N 0.6337 0.1743 0.88168 0.0
N1037 N 0.65686 0.11337 0.06186 0.0
C1038 C 0.64266 0.1625 0.92655 0.0
C1039 C 0.65496 0.13084 1.01841 0.0
N1040 N 0.67263 0.12411 0.8848 0.0
N1041 N 0.63625 0.178 0.06227 0.0
H1042 H 0.66681 0.09113 0.06387 0.0
H1043 H 0.64686 0.11957 0.09469 0.0
H1044 H 0.62697 0.20071 0.06378 0.0
H1045 H 0.64372 0.17039 0.09681 0.0
H1046 H 0.67219 0.13707 0.85123 0.0
H1047 H 0.68555 0.10423 0.88417 0.0
H1048 H 0.637 0.16276 0.84734 0.0
H1049 H 0.62086 0.19416 0.87911 0.0
C1050 C 0.13088 0.65246 1.03147 0.0
C1051 C 0.11962 0.66531 0.98616 0.0
C1052 C 0.14698 0.62379 0.93963 0.0
C1053 C 0.1562 0.60882 0.985 0.0
N1054 N 0.15194 0.60687 0.07497 0.0
N1055 N 0.1144 0.65797 0.89704 0.0
C1056 C 0.14676 0.62275 1.03109 0.0
C1057 C 0.12708 0.64935 0.94039 0.0
N1058 N 0.1275 0.66945 0.07514 0.0
N1059 N 0.15807 0.61438 0.89512 0.0
H1060 H 0.09954 0.67563 0.89615 0.0
H1061 H 0.11654 0.64534 0.86324 0.0
H1062 H 0.17303 0.59688 0.89297 0.0
H1063 H 0.15458 0.62626 0.86121 0.0
H1064 H 0.13745 0.66394 0.10836 0.0
H1065 H 0.11634 0.69077 0.07681 0.0
H1066 H 0.14332 0.6132 0.10914 0.0
H1067 H 0.16324 0.58565 0.07621 0.0
C1068 C 0.64836 0.6522 0.92534 0.0
C1069 C 0.65734 0.66647 0.87947 0.0
C1070 C 0.63 0.62413 0.83444 0.0
C1071 C 0.61911 0.61203 0.88037 0.0
N1072 N 0.61532 0.62012 0.96958 0.0
N1073 N 0.6517 0.66848 0.78965 0.0
C1074 C 0.62769 0.62777 0.92566 0.0
C1075 C 0.64677 0.65296 0.83388 0.0
N1076 N 0.66037 0.66118 0.96928 0.0
N1077 N 0.62532 0.60728 0.79103 0.0
H1078 H 0.66355 0.68912 0.7876 0.0
H1079 H 0.64233 0.66252 0.75595 0.0
H1080 H 0.61335 0.5867 0.78992 0.0
H1081 H 0.63491 0.61214 0.75733 0.0
H1082 H 0.65702 0.64959 1.00343 0.0
H1083 H 0.67586 0.67788 0.97063 0.0
H1084 H 0.61834 0.63278 1.00313 0.0
H1085 H 0.59987 0.60337 0.97126 0.0
C1086 C 0.12667 0.17013 0.92679 0.0
C1087 C 0.13911 0.18388 0.88353 0.0
C1088 C 0.11901 0.13779 0.83338 0.0
C1089 C 0.10535 0.12518 0.87601 0.0
N1090 N 0.09306 0.13411 0.96202 0.0
N1091 N 0.14059 0.18385 0.79299 0.0
C1092 C 0.10832 0.14297 0.92216 0.0
C1093 C 0.13338 0.16845 0.83618 0.0
N1094 N 0.13341 0.18182 0.97321 0.0
N1095 N 0.11941 0.11971 0.7902 0.0
H1096 H 0.14984 0.2065 0.79306 0.0
H1097 H 0.13484 0.176 0.75732 0.0
H1098 H 0.10905 0.09792 0.78639 0.0
H1099 H 0.13153 0.12503 0.75978 0.0
H1100 H 0.12763 0.1709 1.00667 0.0
H1101 H 0.14689 0.20072 0.97846 0.0
H1102 H 0.09182 0.14756 0.99522 0.0
H1103 H 0.07955 0.11496 0.95986 0.0
C1104 C 0.39859 0.38729 0.5815 0.0
C1105 C 0.41099 0.37501 0.62619 0.0
C1106 C 0.38312 0.41528 0.67418 0.0
C1107 C 0.37265 0.42976 0.62941 0.0
N1108 N 0.37523 0.43172 0.53908 0.0
N1109 N 0.41782 0.38342 0.71472 0.0
C1110 C 0.38175 0.41625 0.58274 0.0
C1111 C 0.40393 0.39093 0.67222 0.0
N1112 N 0.40178 0.37041 0.53768 0.0
N1113 N 0.3723 0.4238 0.71936 0.0
H1114 H 0.43342 0.36676 0.7147 0.0
H1115 H 0.41587 0.39622 0.74842 0.0
H1116 H 0.35657 0.44014 0.72249 0.0
H1117 H 0.37682 0.41201 0.75292 0.0
H1118 H 0.39111 0.37536 0.50507 0.0
H1119 H 0.41366 0.34972 0.53532 0.0
H1120 H 0.38361 0.4258 0.50452 0.0
H1121 H 0.36305 0.45224 0.53806 0.0
C1122 C 0.88108 0.89619 0.6751 0.0
C1123 C 0.8734 0.91167 0.62929 0.0
C1124 C 0.9012 0.87019 0.58408 0.0
C1125 C 0.91073 0.85677 0.63026 0.0
N1126 N 0.91272 0.86221 0.72023 0.0
N1127 N 0.88132 0.9163 0.54036 0.0
C1128 C 0.9014 0.87136 0.67578 0.0
C1129 C 0.88486 0.89931 0.58386 0.0
N1130 N 0.8682 0.90445 0.71837 0.0
N1131 N 0.90678 0.85445 0.54002 0.0
H1132 H 0.87006 0.93752 0.53867 0.0
H1133 H 0.89142 0.91102 0.50725 0.0
H1134 H 0.91875 0.83376 0.53813 0.0
H1135 H 0.89784 0.86039 0.50594 0.0
H1136 H 0.87065 0.89198 0.7521 0.0
H1137 H 0.85294 0.92159 0.71928 0.0
H1138 H 0.90905 0.87397 0.75428 0.0
H1139 H 0.92797 0.8451 0.7222 0.0
C1140 C 0.40433 0.90565 0.77122 0.0
C1141 C 0.41775 0.91753 0.72779 0.0
C1142 C 0.39837 0.86998 0.68029 0.0
C1143 C 0.3864 0.85688 0.72456 0.0
N1144 N 0.38337 0.86038 0.81487 0.0
N1145 N 0.43032 0.90711 0.64231 0.0
C1146 C 0.39094 0.87431 0.77066 0.0
C1147 C 0.4155 0.8984 0.68286 0.0
N1148 N 0.40315 0.92514 0.81291 0.0
N1149 N 0.39226 0.85632 0.63481 0.0
H1150 H 0.44282 0.92732 0.64285 0.0
H1151 H 0.43217 0.8928 0.61008 0.0
H1152 H 0.37961 0.83643 0.631 0.0
H1153 H 0.39766 0.86644 0.60054 0.0
H1154 H 0.39118 0.92024 0.84369 0.0
H1155 H 0.41251 0.94771 0.81488 0.0
H1156 H 0.38875 0.86954 0.85 0.0
H1157 H 0.37388 0.83789 0.81667 0.0
C1158 C 0.88232 0.36932 0.77996 0.0
C1159 C 0.8717 0.3559 0.73435 0.0
C1160 C 0.90014 0.39598 0.68821 0.0
C1161 C 0.90893 0.41142 0.73361 0.0
N1162 N 0.90384 0.4148 0.82347 0.0
N1163 N 0.86768 0.3621 0.64487 0.0
C1164 C 0.89875 0.39851 0.77966 0.0
C1165 C 0.87993 0.371 0.68861 0.0
N1166 N 0.8777 0.35338 0.82392 0.0
N1167 N 0.91198 0.40434 0.64406 0.0
H1168 H 0.85256 0.34488 0.64366 0.0
H1169 H 0.87041 0.37418 0.61092 0.0
H1170 H 0.92723 0.42135 0.64223 0.0
H1171 H 0.90881 0.39196 0.61031 0.0
H1172 H 0.88712 0.35911 0.85764 0.0
H1173 H 0.86581 0.33276 0.82557 0.0
H1174 H 0.89457 0.40938 0.85731 0.0
H1175 H 0.91584 0.43539 0.82523 0.0
C1176 C 0.64496 0.62397 0.52719 0.0
C1177 C 0.65649 0.61135 0.48193 0.0
C1178 C 0.62967 0.65293 0.43507 0.0
C1179 C 0.62023 0.66781 0.48038 0.0
N1180 N 0.62201 0.66837 0.57083 0.0
N1181 N 0.662 0.61815 0.39295 0.0
C1182 C 0.62868 0.65337 0.52673 0.0
C1183 C 0.64929 0.62713 0.43607 0.0
N1184 N 0.64869 0.60713 0.57084 0.0
N1185 N 0.61897 0.66266 0.39036 0.0
H1186 H 0.67656 0.6001 0.39218 0.0
H1187 H 0.66013 0.6307 0.35916 0.0
H1188 H 0.60413 0.68031 0.38811 0.0
H1189 H 0.62259 0.65093 0.35628 0.0
H1190 H 0.63843 0.61212 0.60384 0.0
H1191 H 0.66073 0.5865 0.57312 0.0
H1192 H 0.62995 0.66188 0.60552 0.0
H1193 H 0.60987 0.68891 0.57238 0.0
C1194 C 0.15307 0.13568 0.4375 0.0
C1195 C 0.16104 0.12042 0.4833 0.0
C1196 C 0.13217 0.16116 0.5282 0.0
C1197 C 0.12247 0.17434 0.48183 0.0
N1198 N 0.1205 0.16797 0.39197 0.0
N1199 N 0.15388 0.11629 0.57252 0.0
C1200 C 0.13215 0.15975 0.43655 0.0
C1201 C 0.14942 0.13266 0.52871 0.0
N1202 N 0.16622 0.12787 0.39433 0.0
N1203 N 0.12581 0.17653 0.57215 0.0
H1204 H 0.1665 0.09622 0.57488 0.0
H1205 H 0.14362 0.12109 0.6056 0.0
H1206 H 0.11319 0.19663 0.57372 0.0
H1207 H 0.13461 0.17095 0.60649 0.0
H1208 H 0.16356 0.14028 0.36059 0.0
H1209 H 0.1819 0.11132 0.39361 0.0
H1210 H 0.12448 0.15606 0.35816 0.0
H1211 H 0.10465 0.1842 0.38971 0.0
C1212 C 0.65288 0.1509 0.42059 0.0
C1213 C 0.66075 0.16653 0.37522 0.0
C1214 C 0.63108 0.12745 0.32924 0.0
C1215 C 0.62155 0.11401 0.37537 0.0
N1216 N 0.61993 0.11937 0.46535 0.0
N1217 N 0.65387 0.17172 0.286 0.0
C1218 C 0.63157 0.12771 0.42098 0.0
C1219 C 0.64891 0.15523 0.32943 0.0
N1220 N 0.6665 0.15753 0.46382 0.0
N1221 N 0.62391 0.11306 0.28492 0.0
H1222 H 0.66705 0.19114 0.28418 0.0
H1223 H 0.64364 0.16764 0.25258 0.0
H1224 H 0.61069 0.09367 0.28289 0.0
H1225 H 0.63241 0.1188 0.2505 0.0
H1226 H 0.66377 0.14476 0.49717 0.0
H1227 H 0.68261 0.17333 0.46481 0.0
H1228 H 0.62426 0.13072 0.49947 0.0
H1229 H 0.60376 0.1037 0.4671 0.0
C1230 C 0.15486 0.65376 0.33976 0.0
C1231 C 0.16742 0.66696 0.38353 0.0
C1232 C 0.14483 0.62303 0.43321 0.0
C1233 C 0.13358 0.60849 0.38909 0.0
N1234 N 0.13299 0.60781 0.29844 0.0
N1235 N 0.17748 0.65954 0.47099 0.0
C1236 C 0.14003 0.62338 0.34192 0.0
C1237 C 0.16323 0.65009 0.42982 0.0
N1238 N 0.15605 0.67099 0.29599 0.0
N1239 N 0.13688 0.61213 0.47918 0.0
H1240 H 0.19109 0.67861 0.46986 0.0
H1241 H 0.17787 0.64659 0.50458 0.0
H1242 H 0.12317 0.59343 0.48352 0.0
H1243 H 0.14175 0.62364 0.5129 0.0
H1244 H 0.14468 0.66547 0.26444 0.0
H1245 H 0.16711 0.69229 0.2924 0.0
H1246 H 0.13959 0.61491 0.26311 0.0
H1247 H 0.12251 0.58597 0.29787 0.0
C1248 C 0.29283 0.04232 0.3132 0.0
C1249 C 0.29268 0.01767 0.27399 0.0
C1250 C 0.24784 1.00115 0.31241 0.0
C1251 C 0.24758 0.02661 0.35038 0.0
N1252 N 0.26917 0.07659 0.37425 0.0
N1253 N 0.27182 0.96684 0.25195 0.0
C1254 C 0.27013 0.04821 0.34718 0.0
C1255 C 0.27034 0.9957 0.27779 0.0
N1256 N 0.31556 0.05928 0.321 0.0
N1257 N 0.22614 0.9817 0.30812 0.0
H1258 H 0.2884 0.95981 0.2316 0.0
H1259 H 0.25858 0.9477 0.25635 0.0
H1260 H 0.21064 0.98211 0.33351 0.0
H1261 H 0.22255 0.96663 0.27725 0.0
H1262 H 0.31863 0.07474 0.35162 0.0
H1263 H 0.3327 0.05444 0.30112 0.0
H1264 H 0.28264 0.09552 0.37005 0.0
H1265 H 0.25304 0.08314 0.39628 0.0
C1266 C 0.03737 0.24553 0.298 0.0
C1267 C 0.03439 0.26106 0.34614 0.0
C1268 C 0.98863 0.27887 0.31362 0.0
C1269 C 0.99169 0.2633 0.26545 0.0
N1270 N 0.01806 0.2242 0.22009 0.0
N1271 N 1.00713 0.29812 0.39385 0.0
C1272 C 0.01606 0.24502 0.26008 0.0
C1273 C 1.00974 0.27877 0.3522 0.0
N1274 N 0.06103 0.23108 0.28767 0.0
N1275 N 0.96502 0.29364 0.3233 0.0
H1276 H 0.02169 0.30012 0.42123 0.0
H1277 H 0.99181 0.31464 0.39944 0.0
H1278 H 0.95029 0.29591 0.29614 0.0
H1279 H 0.95917 0.3016 0.35873 0.0
H1280 H 0.06661 0.22341 0.2519 0.0
H1281 H 0.07599 0.22887 0.31438 0.0
H1282 H 0.03316 0.20723 0.2155 0.0
H1283 H 1.00284 0.22099 0.19437 0.0
C1284 C 0.23095 0.27207 0.06773 0.0
C1285 C 0.2373 0.27047 1.01489 0.0
C1286 C 0.28507 0.28087 1.04599 0.0
C1287 C 0.27909 0.27936 0.09878 0.0
N1288 N 0.24418 0.26318 0.15521 0.0
N1289 N 0.27517 0.26657 0.959 0.0
C1290 C 0.25135 0.27244 0.10796 0.0
C1291 C 0.2657 0.27257 1.0061 0.0
N1292 N 0.20498 0.27233 0.08071 0.0
N1293 N 0.3093 0.29225 1.03259 0.0
H1294 H 0.26351 0.26413 0.92715 0.0
H1295 H 0.29511 0.26261 0.95191 0.0
H1296 H 0.32341 0.29951 0.05882 0.0
H1297 H 0.31423 0.29812 0.99573 0.0
H1298 H 0.19846 0.27758 0.11693 0.0
H1299 H 0.18983 0.26933 1.05466 0.0
H1300 H 0.22563 0.25392 0.1637 0.0
H1301 H 0.25747 0.26063 0.18476 0.0
C1302 C 0.98787 0.03625 1.04986 0.0
C1303 C 0.98956 1.01218 0.08962 0.0
C1304 C 0.03654 1.002 1.0556 0.0
C1305 C 0.03463 0.02489 1.0147 0.0
N1306 N 1.00899 0.07064 0.98592 0.0
N1307 N 0.01472 0.96434 0.11287 0.0
C1308 C 1.01015 0.04339 1.01535 0.0
C1309 C 1.01383 0.99326 0.08751 0.0
N1310 N 0.96439 0.05195 1.04294 0.0
N1311 N 0.0607 0.98935 0.0668 0.0
H1312 H 0.99832 0.95436 0.13045 0.0
H1313 H 0.03024 0.94776 0.10965 0.0
H1314 H 0.07772 0.99692 1.04873 0.0
H1315 H 0.0644 0.97538 0.09871 0.0
H1316 H 0.95994 0.0659 1.01143 0.0
H1317 H 0.94813 0.04846 0.06583 0.0
H1318 H 0.99384 0.08778 0.98717 0.0
H1319 H 0.02497 0.07872 0.9649 0.0
C1320 C 0.76894 0.99859 0.84795 0.0
C1321 C 0.74331 1.0134 0.84015 0.0
C1322 C 0.75742 1.01558 0.74798 0.0
C1323 C 0.78447 1.0048 0.75715 0.0
N1324 N 0.81486 0.98979 0.82283 0.0
N1325 N 0.71635 0.04052 0.77908 0.0
C1326 C 0.78975 0.99794 0.80929 0.0
C1327 C 0.73856 0.02278 0.78896 0.0
N1328 N 0.77295 0.98202 0.89164 0.0
N1329 N 0.74911 0.0195 0.69953 0.0
H1330 H 0.7026 0.04638 0.80674 0.0
H1331 H 0.71284 0.05215 0.74495 0.0
H1332 H 0.76146 0.01836 0.66854 0.0
H1333 H 0.72935 0.02239 0.68973 0.0
H1334 H 0.78962 0.9679 0.8989 0.0
H1335 H 0.75788 0.97853 0.91741 0.0
H1336 H 0.82112 0.9889 0.86014 0.0
H1337 H 0.82987 0.98593 0.79687 0.0
C1338 C 0.01563 0.73602 0.84287 0.0
C1339 C 0.03772 0.75839 0.84753 0.0
C1340 C 0.01514 0.78871 0.77438 0.0
C1341 C 0.99418 0.76516 0.76733 0.0
N1342 N 0.97792 0.71336 0.79593 0.0
N1343 N 0.0584 0.80457 0.80793 0.0
C1344 C 0.99541 0.73833 0.80248 0.0
C1345 C 0.03732 0.784 0.81011 0.0
N1346 N 1.01393 0.71136 0.87706 0.0
N1347 N 1.013 0.81759 0.74916 0.0
H1348 H 0.0737 0.8043 0.83396 0.0
H1349 H 0.06169 0.82045 0.77815 0.0
H1350 H 0.9971 0.82304 0.72573 0.0
H1351 H 0.02505 0.83768 0.756 0.0
H1352 H 0.99684 0.698 0.88336 0.0
H1353 H 0.02954 0.70461 0.90031 0.0
H1354 H 0.97907 0.69115 0.81464 0.0
H1355 H 0.9633 0.71352 0.76846 0.0
C1356 C 0.73993 0.74941 0.06214 0.0
C1357 C 0.74479 0.75971 1.01133 0.0
C1358 C 0.79108 0.77562 1.04447 0.0
C1359 C 0.78618 0.76475 0.09501 0.0
N1360 N 0.75666 0.73197 0.14426 0.0
N1361 N 0.77643 0.78613 0.95773 0.0
C1362 C 0.76061 0.74957 0.10147 0.0
C1363 C 0.77101 0.77325 1.00381 0.0
N1364 N 0.71515 0.73905 0.07369 0.0
N1365 N 0.81543 0.78826 1.03478 0.0
H1366 H 0.7631 0.78589 0.9281 0.0
H1367 H 0.79337 0.79899 0.94873 0.0
H1368 H 0.82917 0.79303 0.06299 0.0
H1369 H 0.82279 0.79295 0.99916 0.0
H1370 H 0.7086 0.73583 0.11038 0.0
H1371 H 0.70046 0.73586 1.0467 0.0
H1372 H 0.74031 0.71724 0.1503 0.0
H1373 H 0.77135 0.72848 0.17109 0.0
C1374 C 0.26388 0.49873 0.85114 0.0
C1375 C 0.23978 0.51755 0.84612 0.0
C1376 C 0.25796 0.5333 0.75998 0.0
C1377 C 0.28243 0.51511 0.76576 0.0
N1378 N 0.30863 0.48401 0.82348 0.0
N1379 N 0.21349 0.54894 0.78915 0.0
C1380 C 0.28519 0.49909 0.81343 0.0
C1381 C 0.2369 0.53357 0.79845 0.0
N1382 N 0.26557 0.47762 0.89056 0.0
N1383 N 0.25549 0.55282 0.71872 0.0
H1384 H 0.19877 0.55111 0.81625 0.0
H1385 H 0.20772 0.55754 0.75406 0.0
H1386 H 0.26999 0.55459 0.69138 0.0
H1387 H 0.24036 0.56963 0.71336 0.0
H1388 H 0.28046 0.46034 0.89494 0.0
H1389 H 0.25026 0.47462 0.91592 0.0
H1390 H 0.31409 0.47581 0.85901 0.0
H1391 H 0.32356 0.48174 0.79686 0.0
C1392 C 0.24699 0.78142 0.55948 0.0
C1393 C 0.24859 0.75976 0.5167 0.0
C1394 C 0.2941 0.74452 0.5545 0.0
C1395 C 0.29365 0.76959 0.59308 0.0
N1396 N 0.26987 0.81853 0.61666 0.0
N1397 N 0.27688 0.71973 0.47705 0.0
C1398 C 0.27008 0.78966 0.59083 0.0
C1399 C 0.27327 0.74153 0.51534 0.0
N1400 N 0.22298 0.79363 0.5727 0.0
N1401 N 0.3137 0.72164 0.55628 0.0
H1402 H 0.26146 0.7108 0.45513 0.0
H1403 H 0.2953 0.71062 0.46685 0.0
H1404 H 0.32884 0.722 0.58258 0.0
H1405 H 0.31391 0.70054 0.53435 0.0
H1406 H 0.21996 0.8071 0.60554 0.0
H1407 H 0.20561 0.78618 0.55538 0.0
H1408 H 0.25458 0.83548 0.61363 0.0
H1409 H 0.2865 0.82778 0.63474 0.0
C1410 C 0.01665 0.53601 0.52554 0.0
C1411 C 0.0412 0.51769 0.52369 0.0
C1412 C 0.02149 0.48815 0.60072 0.0
C1413 C 0.99595 0.50455 0.59911 0.0
N1414 N 0.96939 0.5374 0.54331 0.0
N1415 N 0.06313 0.47137 0.56127 0.0
C1416 C 0.99378 0.52637 0.55662 0.0
C1417 C 0.04246 0.49278 0.56233 0.0
N1418 N 0.01521 0.56462 0.49954 0.0
N1419 N 0.02598 0.46648 0.63862 0.0
H1420 H 0.07841 0.47276 0.53564 0.0
H1421 H 0.06413 0.45026 0.58284 0.0
H1422 H 1.01092 0.45556 0.6589 0.0
H1423 H 0.0448 0.45925 0.64982 0.0
H1424 H 0.9993 0.58068 0.50247 0.0
H1425 H 0.03136 0.57473 0.48129 0.0
H1426 H 0.96589 0.55062 0.51055 0.0
H1427 H 0.95228 0.52932 0.56053 0.0
C1428 C 0.7851 0.53035 0.30276 0.0
C1429 C 0.78413 0.50454 0.26522 0.0
C1430 C 0.73941 0.49044 0.30666 0.0
C1431 C 0.7406 0.51579 0.34494 0.0
N1432 N 0.76347 0.56543 0.36571 0.0
N1433 N 0.76119 0.45496 0.24454 0.0
C1434 C 0.76347 0.53674 0.33928 0.0
C1435 C 0.76121 0.48373 0.27074 0.0
N1436 N 0.80723 0.54919 0.30479 0.0
N1437 N 0.7169 0.47242 0.30303 0.0
H1438 H 0.77682 0.44755 0.2219 0.0
H1439 H 0.74747 0.43646 0.24991 0.0
H1440 H 0.70155 0.47403 0.3286 0.0
H1441 H 0.71244 0.45764 0.27224 0.0
H1442 H 0.81185 0.56445 0.33492 0.0
H1443 H 0.82207 0.5481 0.27805 0.0
H1444 H 0.777 0.58412 0.36023 0.0
H1445 H 0.74788 0.57267 0.38858 0.0
C1446 C 0.74396 0.24272 0.56117 0.0
C1447 C 0.74635 0.25761 0.51251 0.0
C1448 C 0.79148 0.27814 0.54513 0.0
C1449 C 0.78898 0.26326 0.59382 0.0
N1450 N 0.76395 0.22355 0.63974 0.0
N1451 N 0.77241 0.29522 0.46422 0.0
C1452 C 0.76525 0.24388 0.59932 0.0
C1453 C 0.77041 0.27641 0.50632 0.0
N1454 N 0.72087 0.22723 0.57181 0.0
N1455 N 0.81456 0.29386 0.53515 0.0
H1456 H 0.7578 0.29615 0.43675 0.0
H1457 H 0.78714 0.31237 0.45835 0.0
H1458 H 0.82917 0.29718 0.56231 0.0
H1459 H 0.82016 0.30158 0.49957 0.0
H1460 H 0.71551 0.21997 0.6078 0.0
H1461 H 0.70611 0.22364 0.54507 0.0
H1462 H 0.74946 0.20592 0.64463 0.0
H1463 H 0.77925 0.22141 0.66554 0.0
C1464 C 0.50916 0.26918 0.85488 0.0
C1465 C 0.5376 0.268 0.84513 0.0
C1466 C 0.52315 0.27302 0.75249 0.0
C1467 C 0.49505 0.27733 0.76227 0.0
N1468 N 0.4628 0.27391 0.82786 0.0
N1469 N 0.56949 0.2745 0.77933 0.0
C1470 C 0.48882 0.27383 0.81497 0.0
C1471 C 0.54363 0.27197 0.7925 0.0
N1472 N 0.50095 0.26885 0.90379 0.0
N1473 N 0.53069 0.26579 0.70446 0.0
H1474 H 0.58491 0.27082 0.80456 0.0
H1475 H 0.57556 0.28245 0.74408 0.0
H1476 H 0.51747 0.26155 0.67529 0.0
H1477 H 0.54978 0.25885 0.69483 0.0
H1478 H 0.4821 0.27531 0.91535 0.0
H1479 H 0.5133 0.26624 0.93457 0.0
H1480 H 0.4555 0.26395 0.86091 0.0
H1481 H 0.44799 0.28269 0.80447 0.0
C1482 C 0.51648 0.9901 0.58493 0.0
C1483 C 0.49543 1.01374 0.59221 0.0
C1484 C 0.51719 0.04422 0.51871 0.0
C1485 C 0.53816 0.02065 0.51112 0.0
N1486 N 0.55682 0.97065 0.54223 0.0
N1487 N 0.4744 0.06034 0.55406 0.0
C1488 C 0.53737 0.99364 0.54609 0.0
C1489 C 0.49555 0.0397 0.55541 0.0
N1490 N 0.51525 0.96213 0.6127 0.0
N1491 N 0.51888 0.07302 0.4932 0.0
H1492 H 0.45931 0.0598 0.58035 0.0
H1493 H 0.47075 0.07648 0.5247 0.0
H1494 H 0.53428 0.07826 0.46872 0.0
H1495 H 0.50695 0.09321 0.5005 0.0
H1496 H 0.52767 0.94211 0.60837 0.0
H1497 H 0.49994 0.95734 0.63758 0.0
H1498 H 0.56067 0.95281 0.56896 0.0
H1499 H 0.5702 0.97003 0.51268 0.0
C1500 C 0.49279 0.75577 0.31012 0.0
C1501 C 0.49533 0.77727 0.26765 0.0
C1502 C 0.54136 0.78966 0.30458 0.0
C1503 C 0.53945 0.76567 0.3442 0.0
N1504 N 0.5136 0.71975 0.37154 0.0
N1505 N 0.52082 0.82273 0.23804 0.0
C1506 C 0.51514 0.74733 0.34305 0.0
C1507 C 0.51962 0.79592 0.2684 0.0
N1508 N 0.46829 0.7451 0.32272 0.0
N1509 N 0.56425 0.8069 0.30068 0.0
H1510 H 0.50485 0.83081 0.21677 0.0
H1511 H 0.536 0.83973 0.23859 0.0
H1512 H 0.5791 0.80628 0.3276 0.0
H1513 H 0.56945 0.8204 0.26922 0.0
H1514 H 0.46444 0.73219 0.35556 0.0
H1515 H 0.45131 0.75346 0.30498 0.0
H1516 H 0.49803 0.70328 0.36876 0.0
H1517 H 0.52941 0.7109 0.39259 0.0
C1518 C 0.51428 0.50158 0.10053 0.0
C1519 C 0.49073 0.52166 0.10219 0.0
C1520 C 0.51084 0.54805 1.02283 0.0
C1521 C 0.53469 0.52817 1.02299 0.0
N1522 N 0.5611 0.49723 0.08136 0.0
N1523 N 0.46761 0.56423 0.05781 0.0
C1524 C 0.53684 0.50831 0.06743 0.0
C1525 C 0.48949 0.54487 0.06108 0.0
N1526 N 0.5147 0.47357 0.12806 0.0
N1527 N 0.50979 0.57296 0.98881 0.0
H1528 H 0.45333 0.56538 0.08558 0.0
H1529 H 0.46263 0.57825 1.02674 0.0
H1530 H 0.52557 0.57884 0.96566 0.0
H1531 H 0.4949 0.59034 0.98665 0.0
H1532 H 0.53 0.45657 0.12582 0.0
H1533 H 0.49808 0.46494 0.14659 0.0
H1534 H 0.5645 0.48544 0.11546 0.0
H1535 H 0.57823 0.50365 0.06247 0.0
C1536 C 0.3682 0.04174 0.94092 0.0
C1537 C 0.37949 0.02524 0.98428 0.0
C1538 C 0.41339 1.00363 0.9199 0.0
C1539 C 0.40362 0.02245 0.87746 0.0
N1540 N 0.37255 0.06452 0.85569 0.0
N1541 N 0.41686 0.99305 1.0105 0.0
C1542 C 0.38109 0.04254 0.8906 0.0
C1543 C 0.40331 1.00736 0.97202 0.0
N1544 N 0.34471 0.05747 0.94736 0.0
N1545 N 0.43146 0.97967 0.91034 0.0
H1546 H 0.40969 0.99173 1.04702 0.0
H1547 H 0.43607 0.98433 1.00689 0.0
H1548 H 0.43844 0.97452 0.87453 0.0
H1549 H 0.43718 0.96221 0.93659 0.0
H1550 H 0.33308 0.06561 0.9176 0.0
H1551 H 0.33606 0.06082 0.98244 0.0
H1552 H 0.35878 0.08276 0.86323 0.0
H1553 H 0.38119 0.06668 0.8204 0.0
C1554 C 0.87844 0.26497 0.9716 0.0
C1555 C 0.90187 0.24662 0.98397 0.0
C1556 C 0.90082 0.22925 0.89053 0.0
C1557 C 0.87878 0.24995 0.87712 0.0
N1558 N 0.85046 0.29263 0.9099 0.0
N1559 N 0.93627 0.21309 0.94861 0.0
C1560 C 0.86865 0.26877 0.91942 0.0
C1561 C 0.91322 0.22965 0.94118 0.0
N1562 N 0.86502 0.27954 1.01006 0.0
N1563 N 0.90926 0.2071 0.85558 0.0
H1564 H 0.94433 0.20919 0.98415 0.0
H1565 H 0.94806 0.20457 0.91937 0.0
H1566 H 0.90082 0.2051 0.81998 0.0
H1567 H 0.92271 0.18853 0.86328 0.0
H1568 H 0.84598 0.28878 1.00634 0.0
H1569 H 0.87207 0.28038 1.0468 0.0
H1570 H 0.8449 0.31027 0.93611 0.0
H1571 H 0.84286 0.2974 0.87443 0.0
C1572 C 0.39875 0.28969 0.38961 0.0
C1573 C 0.37442 0.27301 0.37797 0.0
C1574 C 0.3766 0.25404 0.47051 0.0
C1575 C 0.39973 0.27292 0.48324 0.0
N1576 N 0.42968 0.31338 0.45048 0.0
N1577 N 0.33995 0.24016 0.41378 0.0
C1578 C 0.4099 0.29158 0.44115 0.0
C1579 C 0.36341 0.2558 0.42065 0.0
N1580 N 0.4118 0.30433 0.35101 0.0
N1581 N 0.36788 0.23217 0.50528 0.0
H1582 H 0.33152 0.23644 0.3785 0.0
H1583 H 0.32829 0.23194 0.44324 0.0
H1584 H 0.37677 0.22935 0.54033 0.0
H1585 H 0.35359 0.21459 0.49797 0.0
H1586 H 0.43126 0.31218 0.35354 0.0
H1587 H 0.40387 0.30676 0.31512 0.0
H1588 H 0.43555 0.33117 0.42506 0.0
H1589 H 0.43865 0.31624 0.48534 0.0
C1590 C 0.88265 0.99683 0.38943 0.0
C1591 C 0.90767 1.01229 0.38039 0.0
C1592 C 0.90501 0.02953 0.47321 0.0
C1593 C 0.88137 1.01106 0.4836 0.0
N1594 N 0.85231 0.97036 0.44725 0.0
N1595 N 0.94352 0.04083 0.42022 0.0
C1596 C 0.87153 0.99318 0.44022 0.0
C1597 C 0.91902 0.0275 0.42451 0.0
N1598 N 0.86888 0.98501 0.34914 0.0
N1599 N 0.91355 0.05113 0.50887 0.0
H1600 H 0.95333 0.04259 0.38599 0.0
H1601 H 0.95476 0.04823 0.45101 0.0
H1602 H 0.90387 0.05474 0.54287 0.0
H1603 H 0.92845 0.06806 0.50269 0.0
H1604 H 0.84918 0.97807 0.35121 0.0
H1605 H 0.87637 0.98435 0.31278 0.0
H1606 H 0.84669 0.95363 0.41964 0.0
H1607 H 0.84406 0.96505 0.48191 0.0
C1608 C 0.66412 0.034 0.1657 0.0
C1609 C 0.65391 1.01487 0.12376 0.0
C1610 C 0.62016 0.99398 0.18804 0.0
C1611 C 0.63053 1.01278 0.22989 0.0
N1612 N 0.66172 0.0541 0.25312 0.0
N1613 N 0.62426 0.9712 0.10268 0.0
C1614 C 0.65262 0.03317 0.21691 0.0
C1615 C 0.63224 0.99383 0.13734 0.0
N1616 N 0.68541 0.0535 0.15701 0.0
N1617 N 0.59818 0.97568 0.19649 0.0
H1618 H 0.63267 0.96915 0.06718 0.0
H1619 H 0.61122 0.95231 0.11029 0.0
H1620 H 0.59076 0.97148 0.23235 0.0
H1621 H 0.58655 0.96583 0.16796 0.0
H1622 H 0.69732 0.06325 0.18514 0.0
H1623 H 0.69185 0.05951 0.12121 0.0
H1624 H 0.67486 0.07305 0.2467 0.0
H1625 H 0.65466 0.05418 0.28982 0.0
C1626 C 0.11926 0.75021 0.17411 0.0
C1627 C 0.12887 0.76926 0.13195 0.0
C1628 C 0.16394 0.78916 0.19513 0.0
C1629 C 0.15333 0.77163 0.23788 0.0
N1630 N 0.11684 0.73851 0.26444 0.0
N1631 N 0.15877 0.81234 0.1104 0.0
C1632 C 0.12977 0.75341 0.22593 0.0
C1633 C 0.15095 0.78986 0.14503 0.0
N1634 N 0.10077 0.72679 0.16466 0.0
N1635 N 0.18676 0.80617 0.2021 0.0
H1636 H 0.14987 0.81459 0.07526 0.0
H1637 H 0.17215 0.83095 0.11804 0.0
H1638 H 0.1949 0.81062 0.23743 0.0
H1639 H 0.19821 0.81481 0.17262 0.0
H1640 H 0.0955 0.70889 0.19039 0.0
H1641 H 0.09251 0.72277 0.12948 0.0
H1642 H 0.0977 0.72958 0.26129 0.0
H1643 H 0.12437 0.73696 0.30074 0.0
C1644 C 0.63202 0.7891 0.71692 0.0
C1645 C 0.65287 0.7668 0.73089 0.0
C1646 C 0.65166 0.74871 0.63794 0.0
C1647 C 0.63043 0.77042 0.62454 0.0
N1648 N 0.59905 0.80931 0.65663 0.0
N1649 N 0.68356 0.7267 0.69826 0.0
C1650 C 0.62035 0.78977 0.66589 0.0
C1651 C 0.66282 0.74722 0.68928 0.0
N1652 N 0.62452 0.81204 0.75151 0.0
N1653 N 0.66011 0.72713 0.60206 0.0
H1654 H 0.68959 0.71982 0.73402 0.0
H1655 H 0.69548 0.71693 0.67021 0.0
H1656 H 0.65329 0.72745 0.56513 0.0
H1657 H 0.67234 0.70724 0.60909 0.0
H1658 H 0.61217 0.83168 0.74356 0.0
H1659 H 0.63263 0.81344 0.78741 0.0
H1660 H 0.58757 0.81987 0.68472 0.0
H1661 H 0.59199 0.81385 0.6205 0.0
C1662 C 0.11377 0.03881 0.68584 0.0
C1663 C 0.12291 0.01964 0.72822 0.0
C1664 C 0.15951 1.00069 0.66799 0.0
C1665 C 0.14949 0.01839 0.62485 0.0
N1666 N 0.11358 0.05183 0.59566 0.0
N1667 N 0.15325 0.97728 0.75217 0.0
C1668 C 0.12554 0.03639 0.635 0.0
C1669 C 0.14562 0.99958 0.71692 0.0
N1670 N 0.09449 0.06146 0.69448 0.0
N1671 N 0.18267 0.98404 0.66249 0.0
H1672 H 0.14376 0.97481 0.78661 0.0
H1673 H 0.16716 0.95904 0.7457 0.0
H1674 H 0.19158 0.98022 0.62774 0.0
H1675 H 0.19368 0.97518 0.6926 0.0
H1676 H 0.08914 0.07944 0.66883 0.0
H1677 H 0.08542 0.06454 0.72919 0.0
H1678 H 0.09451 0.0612 0.59714 0.0
H1679 H 0.12203 0.05348 0.56018 0.0
C1680 C 0.37046 0.55427 0.45343 0.0
C1681 C 0.37935 0.53455 0.49518 0.0
C1682 C 0.41209 0.51043 0.43185 0.0
C1683 C 0.40476 0.53212 0.39098 0.0
N1684 N 0.37924 0.5803 0.37223 0.0
N1685 N 0.41302 0.49694 0.52175 0.0
C1686 C 0.38441 0.55531 0.40465 0.0
C1687 C 0.40157 0.51394 0.4834 0.0
N1688 N 0.34835 0.57282 0.46009 0.0
N1689 N 0.42804 0.48437 0.42135 0.0
H1690 H 0.40548 0.49677 0.55812 0.0
H1691 H 0.43114 0.48512 0.51851 0.0
H1692 H 0.43561 0.47948 0.38588 0.0
H1693 H 0.43142 0.46535 0.44643 0.0
H1694 H 0.33829 0.58399 0.43059 0.0
H1695 H 0.33915 0.5755 0.49485 0.0
H1696 H 0.36714 0.60006 0.38107 0.0
H1697 H 0.38938 0.58338 0.33864 0.0
C1698 C 0.91484 0.73812 0.43918 0.0
C1699 C 0.90394 0.75563 0.4819 0.0
C1700 C 0.86985 0.77662 0.41788 0.0
C1701 C 0.87941 0.75706 0.37599 0.0
N1702 N 0.91003 0.71441 0.35442 0.0
N1703 N 0.86736 0.78895 0.50826 0.0
C1704 C 0.9018 0.73686 0.3891 0.0
C1705 C 0.88029 0.77372 0.4698 0.0
N1706 N 0.93807 0.72186 0.44615 0.0
N1707 N 0.85162 0.80034 0.40786 0.0
H1708 H 0.87487 0.79029 0.54465 0.0
H1709 H 0.84833 0.79828 0.50495 0.0
H1710 H 0.84421 0.80473 0.37207 0.0
H1711 H 0.84601 0.81822 0.43365 0.0
H1712 H 0.94954 0.71297 0.41671 0.0
H1713 H 0.94663 0.71864 0.48142 0.0
H1714 H 0.92376 0.69614 0.36201 0.0
H1715 H 0.90119 0.71191 0.31925 0.0
C1716 C 0.36384 0.7503 0.9282 0.0
C1717 C 0.37578 0.76479 0.88434 0.0
C1718 C 0.41236 0.78223 0.94525 0.0
C1719 C 0.40185 0.76504 0.98833 0.0
N1720 N 0.36816 0.72701 1.01286 0.0
N1721 N 0.41537 0.79035 0.85422 0.0
C1722 C 0.37761 0.74783 0.9773 0.0
C1723 C 0.40125 0.77907 0.89411 0.0
N1724 N 0.33895 0.73816 0.92327 0.0
N1725 N 0.43217 0.80415 0.95313 0.0
H1726 H 0.40792 0.79129 0.81777 0.0
H1727 H 0.43524 0.79653 0.8567 0.0
H1728 H 0.43978 0.80935 0.98849 0.0
H1729 H 0.43877 0.8203 0.92581 0.0
H1730 H 0.32735 0.73146 0.95374 0.0
H1731 H 0.32922 0.73671 0.88878 0.0
H1732 H 0.35264 0.71093 1.00652 0.0
H1733 H 0.37764 0.72314 1.04706 0.0
C1734 C 0.87633 0.4941 0.88706 0.0
C1735 C 0.89947 0.51317 0.8758 0.0
C1736 C 0.89655 0.53134 0.96865 0.0
C1737 C 0.87495 0.50992 0.98108 0.0
N1738 N 0.84775 0.46657 0.94745 0.0
N1739 N 0.93216 0.54869 0.91251 0.0
C1740 C 0.8658 0.49054 0.93861 0.0
C1741 C 0.90966 0.53103 0.91886 0.0
N1742 N 0.86383 0.47873 0.84813 0.0
N1743 N 0.90373 0.55421 1.00357 0.0
H1744 H 0.94038 0.55314 0.8774 0.0
H1745 H 0.94333 0.55778 0.94231 0.0
H1746 H 0.89464 0.55633 1.03846 0.0
H1747 H 0.91669 0.57326 0.9963 0.0
H1748 H 0.84493 0.46905 0.85082 0.0
H1749 H 0.87146 0.47746 0.81195 0.0
H1750 H 0.84306 0.44837 0.92151 0.0
H1751 H 0.83919 0.46252 0.98224 0.0
C1752 C 0.61483 0.52758 0.69525 0.0
C1753 C 0.62509 0.50901 0.73773 0.0
C1754 C 0.66169 0.49254 0.6749 0.0
C1755 C 0.65021 0.50899 0.63171 0.0
N1756 N 0.61192 0.53895 0.6047 0.0
N1757 N 0.65752 0.46847 0.75926 0.0
C1758 C 0.6256 0.52514 0.64345 0.0
C1759 C 0.64845 0.49039 0.72475 0.0
N1760 N 0.59546 0.55004 0.70435 0.0
N1761 N 0.68572 0.47809 0.66866 0.0
H1762 H 0.64862 0.46518 0.79407 0.0
H1763 H 0.67205 0.45115 0.75167 0.0
H1764 H 0.69464 0.47541 0.63368 0.0
H1765 H 0.69744 0.47026 0.69849 0.0
H1766 H 0.58945 0.56747 0.67831 0.0
H1767 H 0.58731 0.5541 0.73954 0.0
H1768 H 0.59235 0.54643 0.60757 0.0
H1769 H 0.61945 0.54088 0.5685 0.0
C1770 C 0.13453 0.29964 0.71031 0.0
C1771 C 0.15382 0.27544 0.72524 0.0
C1772 C 0.15101 0.25651 0.63306 0.0
C1773 C 0.12958 0.27807 0.62009 0.0
N1774 N 0.09953 0.31826 0.65321 0.0
N1775 N 0.17567 0.22613 0.69682 0.0
C1776 C 0.12097 0.29871 0.66108 0.0
C1777 C 0.16081 0.25292 0.68513 0.0
N1778 N 0.13012 0.32541 0.74195 0.0
N1779 N 0.16238 0.23875 0.59537 0.0
H1780 H 0.18252 0.22119 0.73285 0.0
H1781 H 0.17874 0.20674 0.67206 0.0
H1782 H 0.1554 0.23898 0.55851 0.0
H1783 H 0.17997 0.2259 0.59974 0.0
H1784 H 0.11881 0.34569 0.73218 0.0
H1785 H 0.14024 0.32856 0.77571 0.0
H1786 H 0.08965 0.33032 0.68212 0.0
H1787 H 0.09066 0.32089 0.61806 0.0
C1788 C 0.61556 0.24691 0.17482 0.0
C1789 C 0.62222 0.26993 0.13551 0.0
C1790 C 0.65547 0.29217 0.20033 0.0
C1791 C 0.6473 0.2709 0.24069 0.0
N1792 N 0.61473 0.23122 0.26394 0.0
N1793 N 0.64587 0.31983 0.12061 0.0
C1794 C 0.62581 0.24958 0.22694 0.0
C1795 C 0.64163 0.29374 0.15126 0.0
N1796 N 0.60055 0.22051 0.16207 0.0
N1797 N 0.67671 0.31185 0.20866 0.0
H1798 H 0.63561 0.32324 0.08713 0.0
H1799 H 0.65714 0.34001 0.13094 0.0
H1800 H 0.68553 0.3145 0.24386 0.0
H1801 H 0.68645 0.32419 0.18006 0.0
H1802 H 0.59757 0.20073 0.18585 0.0
H1803 H 0.59346 0.2164 0.12588 0.0
H1804 H 0.59717 0.21844 0.25929 0.0
H1805 H 0.62196 0.23084 0.30061 0.0
C1806 C 0.16091 0.52564 0.1696 0.0
C1807 C 0.14946 0.50746 0.12779 0.0
C1808 C 0.11292 0.49401 0.1916 0.0
C1809 C 0.12567 0.50978 0.23406 0.0
N1810 N 0.16557 0.53666 0.25996 0.0
N1811 N 0.1152 0.46907 0.10734 0.0
C1812 C 0.15079 0.52399 0.22166 0.0
C1813 C 0.12551 0.49054 0.14144 0.0
N1814 N 0.18077 0.54707 0.15967 0.0
N1815 N 0.08831 0.48157 0.19891 0.0
H1816 H 0.12368 0.46479 0.07234 0.0
H1817 H 0.09995 0.453 0.11543 0.0
H1818 H 0.07955 0.48037 0.23421 0.0
H1819 H 0.07601 0.47416 0.16965 0.0
H1820 H 0.18774 0.5641 0.18564 0.0
H1821 H 0.18827 0.55097 0.124 0.0
H1822 H 0.18539 0.5427 0.25614 0.0
H1823 H 0.15869 0.53898 0.29662 0.0
C1824 C 0.32759 0.15757 0.23922 0.0
C1825 C 0.31493 0.1823 0.21127 0.0
C1826 C 0.30442 0.13955 0.14577 0.0
C1827 C 0.32066 0.11581 0.17032 0.0
N1828 N 0.34978 0.10567 0.24197 0.0
N1829 N 0.29108 0.19672 0.1367 0.0
C1830 C 0.33259 0.12584 0.21754 0.0
C1831 C 0.30301 0.17301 0.16447 0.0
N1832 N 0.33456 0.16431 0.28784 0.0
N1833 N 0.29064 0.13049 0.10386 0.0
H1834 H 0.28814 0.22009 0.15109 0.0
H1835 H 0.28495 0.19375 0.0996 0.0
H1836 H 0.29226 0.10738 0.08764 0.0
H1837 H 0.27636 0.14507 0.0869 0.0
H1838 H 0.34091 0.14659 0.31317 0.0
H1839 H 0.33114 0.18709 0.30444 0.0
H1840 H 0.3626 0.1137 0.27004 0.0
H1841 H 0.35237 0.08125 0.23357 0.0
C1842 C 0.96402 0.12475 0.24663 0.0
C1843 C 0.97605 0.0989 0.21963 0.0
C1844 C 0.97876 0.13655 0.14535 0.0
C1845 C 0.96609 0.16242 0.17236 0.0
N1846 N 0.95603 0.18235 0.25588 0.0
N1847 N 1.00117 0.08339 0.14746 0.0
C1848 C 0.96151 0.15672 0.22503 0.0
C1849 C 0.98554 0.10606 0.17037 0.0
N1850 N 0.95378 0.11838 0.29301 0.0
N1851 N 0.98305 0.14018 0.0951 0.0
H1852 H 1.00634 0.06163 0.16539 0.0
H1853 H 1.01104 0.08756 0.11386 0.0
H1854 H 0.97843 0.16166 0.07603 0.0
H1855 H 0.98952 0.12132 0.07182 0.0
H1856 H 0.94104 0.13424 0.31179 0.0
H1857 H 0.95696 0.09621 0.3114 0.0
H1858 H 0.95527 0.18078 0.29492 0.0
H1859 H 0.95578 0.20591 0.2428 0.0
C1860 C 0.68632 0.87738 0.89744 0.0
C1861 C 0.70968 0.85839 0.89423 0.0
C1862 C 0.73172 0.90322 0.94344 0.0
C1863 C 0.70683 0.91915 0.95234 0.0
N1864 N 0.65986 0.90939 0.95391 0.0
N1865 N 0.75589 0.85499 0.91331 0.0
C1866 C 0.68403 0.90259 0.93404 0.0
C1867 C 0.73284 0.87193 0.91688 0.0
N1868 N 0.66583 0.87097 0.86559 0.0
N1869 N 0.75431 0.91748 0.96039 0.0
H1870 H 0.75801 0.8353 0.88878 0.0
H1871 H 0.77269 0.86039 0.93424 0.0
H1872 H 0.7543 0.93695 0.9855 0.0
H1873 H 0.77308 0.9101 0.94941 0.0
H1874 H 0.64886 0.88534 0.86451 0.0
H1875 H 0.66731 0.85379 0.83659 0.0
H1876 H 0.64286 0.89704 0.94285 0.0
H1877 H 0.65757 0.92377 0.9861 0.0
C1878 C 0.08956 0.88544 0.98096 0.0
C1879 C 0.07339 0.86071 0.95969 0.0
C1880 C 0.06038 0.90114 0.89305 0.0
C1881 C 0.07559 0.92661 0.9161 0.0
N1882 N 0.09787 0.94282 0.99324 0.0
N1883 N 0.03942 0.84749 0.90004 0.0
C1884 C 0.08824 0.91856 0.96311 0.0
C1885 C 0.05744 0.86953 0.91738 0.0
N1886 N 0.10675 0.87734 1.0186 0.0
N1887 N 0.04998 0.90618 0.84635 0.0
H1888 H 0.03706 0.82459 0.91642 0.0
H1889 H 0.02536 0.85291 0.87271 0.0
H1890 H 0.05219 0.92805 0.82697 0.0
H1891 H 0.04124 0.88781 0.82492 0.0
H1892 H 0.12197 0.89263 1.03041 0.0
H1893 H 0.10684 0.85453 1.03597 0.0
H1894 H 0.1045 0.93895 1.02984 0.0
H1895 H 0.09623 0.96736 0.98478 0.0
C1896 C 0.29356 0.6747 0.67337 0.0
C1897 C 0.30423 0.6815 0.72214 0.0
C1898 C 0.31481 0.62258 0.72819 0.0
C1899 C 0.30974 0.61688 0.67567 0.0
N1900 N 0.29272 0.63931 0.59877 0.0
N1901 N 0.32612 0.66064 0.79516 0.0
C1902 C 0.29819 0.64339 0.6486 0.0
C1903 C 0.31491 0.65489 0.74923 0.0
N1904 N 0.2789 0.69843 0.65082 0.0
N1905 N 0.31805 0.59665 0.75934 0.0
H1906 H 0.32489 0.6833 0.81318 0.0
H1907 H 0.33776 0.64351 0.81386 0.0
H1908 H 0.31486 0.57318 0.74668 0.0
H1909 H 0.31958 0.59858 0.7983 0.0
H1910 H 0.26836 0.69483 0.61765 0.0
H1911 H 0.27526 0.72078 0.6686 0.0
H1912 H 0.28642 0.65813 0.57543 0.0
H1913 H 0.29574 0.61715 0.5802 0.0
C1914 C 0.94674 0.64214 0.6267 0.0
C1915 C 0.96363 0.66605 0.64744 0.0
C1916 C 0.97654 0.62585 0.71386 0.0
C1917 C 0.95947 0.60156 0.69285 0.0
N1918 N 0.93531 0.58577 0.61705 0.0
N1919 N 0.99935 0.6781 0.70365 0.0
C1920 C 0.94669 0.60955 0.64581 0.0
C1921 C 0.98018 0.65689 0.68855 0.0
N1922 N 0.92986 0.65078 0.58876 0.0
N1923 N 0.98808 0.6203 0.75943 0.0
H1924 H 1.00207 0.70065 0.68628 0.0
H1925 H 1.01378 0.67233 0.73007 0.0
H1926 H 0.98557 0.59867 0.77928 0.0
H1927 H 0.99855 0.63796 0.77936 0.0
H1928 H 0.91375 0.63664 0.5779 0.0
H1929 H 0.93109 0.67306 0.56994 0.0
H1930 H 0.92895 0.5894 0.58022 0.0
H1931 H 0.93484 0.5615 0.62678 0.0
C1932 C 0.70417 0.36227 0.47114 0.0
C1933 C 0.71119 0.35611 0.41974 0.0
C1934 C 0.72527 0.41414 0.41694 0.0
C1935 C 0.71226 0.42113 0.46332 0.0
N1936 N 0.68753 0.40059 0.53316 0.0
N1937 N 0.72861 0.37859 0.34332 0.0
C1938 C 0.70116 0.39478 0.48982 0.0
C1939 C 0.72219 0.38268 0.39266 0.0
N1940 N 0.70237 0.33692 0.50372 0.0
N1941 N 0.74106 0.4374 0.39659 0.0
H1942 H 0.72672 0.35622 0.32479 0.0
H1943 H 0.73407 0.39788 0.3202 0.0
H1944 H 0.74422 0.45976 0.41452 0.0
H1945 H 0.75317 0.43297 0.36574 0.0
H1946 H 0.69919 0.33976 0.54219 0.0
H1947 H 0.70849 0.31383 0.49332 0.0
H1948 H 0.67624 0.38275 0.55074 0.0
H1949 H 0.68639 0.42369 0.54981 0.0
C1950 C 0.06805 0.36832 0.3896 0.0
C1951 C 0.06264 0.36222 0.44164 0.0
C1952 C 0.04778 0.42032 0.4459 0.0
C1953 C 0.05934 0.4274 0.39823 0.0
N1954 N 0.0817 0.40665 0.32544 0.0
N1955 N 0.046 0.38436 0.51915 0.0
C1956 C 0.0697 0.40086 0.3704 0.0
C1957 C 0.05168 0.38873 0.46959 0.0
N1958 N 0.06982 0.34274 0.35713 0.0
N1959 N 0.03273 0.4438 0.46818 0.0
H1960 H 0.04842 0.36189 0.53693 0.0
H1961 H 0.04025 0.4033 0.54298 0.0
H1962 H 0.0293 0.46626 0.45089 0.0
H1963 H 0.02152 0.43966 0.50025 0.0
H1964 H 0.07167 0.34527 0.31834 0.0
H1965 H 0.06513 0.31944 0.36858 0.0
H1966 H 0.09275 0.38901 0.30648 0.0
H1967 H 0.08167 0.42965 0.30858 0.0
C1968 C 0.82686 0.12647 0.61798 0.0
C1969 C 0.81664 0.10025 0.64602 0.0
C1970 C 0.81072 0.13854 0.71868 0.0
C1971 C 0.82052 0.16503 0.68998 0.0
N1972 N 0.82784 0.1845 0.60558 0.0
N1973 N 0.7926 0.08355 0.71883 0.0
C1974 C 0.8257 0.15896 0.63771 0.0
C1975 C 0.80653 0.10716 0.69505 0.0
N1976 N 0.8383 0.1204 0.57245 0.0
N1977 N 0.80655 0.14272 0.76895 0.0
H1978 H 0.78841 0.06172 0.70058 0.0
H1979 H 0.78282 0.087 0.7528 0.0
H1980 H 0.80919 0.16512 0.78704 0.0
H1981 H 0.80225 0.12358 0.79322 0.0
H1982 H 0.84934 0.13776 0.55323 0.0
H1983 H 0.83798 0.0974 0.55536 0.0
H1984 H 0.82931 0.18199 0.5667 0.0
H1985 H 0.82406 0.20799 0.61744 0.0
C1986 C 0.47118 0.15517 0.63995 0.0
C1987 C 0.45759 0.18076 0.66594 0.0
C1988 C 0.44609 0.1396 0.73198 0.0
C1989 C 0.46029 0.11446 0.70728 0.0
N1990 N 0.49199 0.10118 0.6435 0.0
N1991 N 0.4424 0.19718 0.74838 0.0
C1992 C 0.47467 0.12326 0.66314 0.0
C1993 C 0.44794 0.1728 0.71519 0.0
N1994 N 0.47974 0.16057 0.59217 0.0
N1995 N 0.43051 0.13203 0.77206 0.0
H1996 H 0.44606 0.22132 0.74009 0.0
H1997 H 0.4378 0.19319 0.78602 0.0
H1998 H 0.42993 0.10875 0.78787 0.0
H1999 H 0.41702 0.14848 0.78748 0.0
H2000 H 0.48716 0.14215 0.56904 0.0
H2001 H 0.47756 0.18306 0.57439 0.0
H2002 H 0.50501 0.1067 0.61459 0.0
H2003 H 0.49497 0.07828 0.65965 0.0
C2004 C 0.2253 0.88737 0.3956 0.0
C2005 C 0.21099 0.86185 0.41977 0.0
C2006 C 0.19747 0.90294 0.48516 0.0
C2007 C 0.21236 0.92794 0.46226 0.0
N2008 N 0.24533 0.94163 0.40144 0.0
N2009 N 0.19159 0.84546 0.49909 0.0
C2010 C 0.22791 0.91927 0.41943 0.0
C2011 C 0.19946 0.86981 0.4678 0.0
N2012 N 0.2352 0.88202 0.34867 0.0
N2013 N 0.18081 0.91077 0.5237 0.0
H2014 H 0.19451 0.82107 0.49081 0.0
H2015 H 0.18559 0.84939 0.53605 0.0
H2016 H 0.18025 0.93389 0.54035 0.0
H2017 H 0.16645 0.89484 0.537 0.0
H2018 H 0.24321 0.90041 0.32657 0.0
H2019 H 0.23354 0.85963 0.33021 0.0
H2020 H 0.25906 0.93639 0.37351 0.0
H2021 H 0.24764 0.96455 0.41812 0.0
C2022 C 0.59894 0.87975 0.44152 0.0
C2023 C 0.57578 0.86231 0.45459 0.0
C2024 C 0.55072 0.90905 0.41712 0.0
C2025 C 0.57439 0.92246 0.39661 0.0
N2026 N 0.6196 0.91024 0.37544 0.0
N2027 N 0.52819 0.86032 0.44696 0.0
C2028 C 0.59788 0.90416 0.40401 0.0
C2029 C 0.55113 0.8769 0.44015 0.0
N2030 N 0.62214 0.87381 0.46597 0.0
N2031 N 0.52806 0.927 0.41655 0.0
H2032 H 0.52731 0.83782 0.46475 0.0
H2033 H 0.51026 0.86823 0.43209 0.0
H2034 H 0.5267 0.94978 0.39953 0.0
H2035 H 0.51116 0.92003 0.43588 0.0
H2036 H 0.63916 0.88732 0.45913 0.0
H2037 H 0.62321 0.85858 0.4973 0.0
H2038 H 0.63678 0.89639 0.37847 0.0
H2039 H 0.61915 0.9264 0.34517 0.0
C2040 C 0.83276 0.62534 0.12673 0.0
C2041 C 0.81769 0.60056 0.1499 0.0
C2042 C 0.80618 0.6412 0.21747 0.0
C2043 C 0.8207 0.66645 0.19306 0.0
N2044 N 0.83901 0.68278 0.11287 0.0
N2045 N 0.7851 0.58755 0.21185 0.0
C2046 C 0.83145 0.65844 0.14445 0.0
C2047 C 0.80273 0.60948 0.19341 0.0
N2048 N 0.84884 0.61735 0.08737 0.0
N2049 N 0.79683 0.64664 0.26479 0.0
H2050 H 0.7822 0.56475 0.19511 0.0
H2051 H 0.77175 0.59306 0.24032 0.0
H2052 H 0.79906 0.66891 0.28337 0.0
H2053 H 0.7887 0.62839 0.28701 0.0
H2054 H 0.86327 0.63304 0.07371 0.0
H2055 H 0.84881 0.59434 0.07032 0.0
H2056 H 0.84457 0.67885 0.07565 0.0
H2057 H 0.83601 0.70713 0.12118 0.0
C2058 C 0.48479 0.62299 0.18083 0.0
C2059 C 0.47228 0.616 0.22752 0.0
C2060 C 0.45362 0.67215 0.22665 0.0
C2061 C 0.46364 0.67844 0.17666 0.0
N2062 N 0.48819 0.65754 0.10617 0.0
N2063 N 0.44511 0.63401 0.29511 0.0
C2064 C 0.47955 0.65336 0.15428 0.0
C2065 C 0.45736 0.64105 0.25066 0.0
N2066 N 0.5015 0.59998 0.16158 0.0
N2067 N 0.4406 0.69602 0.2526 0.0
H2068 H 0.44948 0.61297 0.31563 0.0
H2069 H 0.42968 0.64755 0.31038 0.0
H2070 H 0.43512 0.71823 0.23792 0.0
H2071 H 0.43622 0.69481 0.29068 0.0
H2072 H 0.51302 0.60329 0.12975 0.0
H2073 H 0.50539 0.57818 0.18049 0.0
H2074 H 0.49756 0.63948 0.08516 0.0
H2075 H 0.48443 0.67866 0.08563 0.0
C2076 C 0.20446 0.41372 0.88389 0.0
C2077 C 0.21103 0.41939 0.93613 0.0
C2078 C 0.23341 0.36479 0.93399 0.0
C2079 C 0.22281 0.35735 0.88567 0.0
N2080 N 0.19938 0.37593 0.81339 0.0
N2081 N 0.23214 0.39816 1.01037 0.0
C2082 C 0.20938 0.38268 0.86008 0.0
C2083 C 0.22609 0.39448 0.96065 0.0
N2084 N 0.19373 0.43812 0.8557 0.0
N2085 N 0.25086 0.34319 0.95409 0.0
H2086 H 0.22695 0.41889 1.03098 0.0
H2087 H 0.24056 0.37982 1.03216 0.0
H2088 H 0.25699 0.32292 0.93337 0.0
H2089 H 0.26125 0.34712 0.98735 0.0
H2090 H 0.1933 0.43787 0.81656 0.0
H2091 H 0.18613 0.45936 0.87057 0.0
H2092 H 0.18537 0.39031 0.79518 0.0
H2093 H 0.20428 0.35455 0.7939 0.0
C2094 C 0.54502 0.36474 0.92209 0.0
C2095 C 0.55507 0.35704 0.97106 0.0
C2096 C 0.56837 0.4154 0.9774 0.0
C2097 C 0.56256 0.42191 0.9254 0.0
N2098 N 0.54554 0.4001 0.84795 0.0
N2099 N 0.57833 0.37638 1.04369 0.0
C2100 C 0.55055 0.39586 0.89791 0.0
C2101 C 0.5671 0.38297 0.99807 0.0
N2102 N 0.52982 0.342 0.89878 0.0
N2103 N 0.57385 0.44078 1.00864 0.0
H2104 H 0.57591 0.35401 0.06182 0.0
H2105 H 0.5912 0.39228 0.06203 0.0
H2106 H 0.57288 0.46457 0.99626 0.0
H2107 H 0.57596 0.43853 1.04739 0.0
H2108 H 0.51996 0.34572 0.86491 0.0
H2109 H 0.52492 0.32068 0.91747 0.0
H2110 H 0.53954 0.38134 0.82403 0.0
H2111 H 0.54915 0.42211 0.82965 0.0
C2112 C 0.22882 0.94838 0.99531 0.0
C2113 C 0.25076 0.96957 0.99731 0.0
C2114 C 0.22515 1.01348 0.96526 0.0
C2115 C 0.20252 0.99325 0.96144 0.0
N2116 N 0.186 0.93772 0.95808 0.0
N2117 N 0.27224 1.01424 0.95597 0.0
C2118 C 0.20519 0.95927 0.97157 0.0
C2119 C 0.24979 0.99856 0.96969 0.0
N2120 N 0.23026 0.9192 1.01953 0.0
N2121 N 0.22306 0.0466 0.96975 0.0
H2122 H 0.29069 1.00316 0.95924 0.0
H2123 H 0.2718 0.03617 0.93607 0.0
H2124 H 0.20496 0.05831 0.9748 0.0
H2125 H 0.23945 0.06154 0.97536 0.0
H2126 H 0.2141 0.90391 1.02449 0.0
H2127 H 0.24784 0.91146 1.03633 0.0
H2128 H 0.18763 0.9127 0.96435 0.0
H2129 H 0.1699 0.94437 0.936 0.0
C2130 C 0.06136 0.31186 0.92694 0.0
C2131 C 0.07942 0.33001 0.95629 0.0
C2132 C 0.04567 0.34125 1.01838 0.0
C2133 C 0.0307 0.31609 0.99627 0.0
N2134 N 0.02021 0.28169 0.92644 0.0
N2135 N 0.08862 0.36699 1.0245 0.0
C2136 C 0.03684 0.3037 0.94833 0.0
C2137 C 0.07126 0.34716 0.99973 0.0
N2138 N 0.06815 0.30206 0.8796 0.0
N2139 N 0.03585 0.35718 0.05938 0.0
H2140 H 0.10763 0.37124 1.01133 0.0
H2141 H 0.0846 0.37858 0.0585 0.0
H2142 H 0.01709 0.35196 0.07318 0.0
H2143 H 0.04513 0.3767 0.07717 0.0
H2144 H 0.05535 0.29016 0.85504 0.0
H2145 H 0.0862 0.30819 0.86354 0.0
H2146 H 0.0245 0.26867 0.89378 0.0
H2147 H 1.00197 0.27619 0.94236 0.0
C2148 C 0.20542 0.32599 0.26817 0.0
C2149 C 0.22433 0.33989 0.30083 0.0
C2150 C 0.1892 0.35811 0.35579 0.0
C2151 C 0.17348 0.33331 0.33476 0.0
N2152 N 0.16214 0.30076 0.26337 0.0
N2153 N 0.23414 0.3771 0.36764 0.0
C2154 C 0.1797 0.32078 0.28695 0.0
C2155 C 0.2159 0.35988 0.3409 0.0
N2156 N 0.21271 0.31606 0.22137 0.0
N2157 N 0.17907 0.37708 0.3931 0.0
H2158 H 0.25382 0.37785 0.35624 0.0
H2159 H 0.22989 0.38978 0.40068 0.0
H2160 H 0.15962 0.37404 0.40506 0.0
H2161 H 0.18898 0.39711 0.40817 0.0
H2162 H 0.19945 0.30698 0.19493 0.0
H2163 H 0.23162 0.32028 0.20772 0.0
H2164 H 0.16634 0.28762 0.23077 0.0
H2165 H 0.14327 0.29717 0.2779 0.0
C2166 C 0.07135 0.97224 0.27041 0.0
C2167 C 0.05422 0.95278 0.29942 0.0
C2168 C 0.08902 0.94284 0.36038 0.0
C2169 C 0.10308 0.96879 0.33862 0.0
N2170 N 0.11137 1.00468 0.27 0.0
N2171 N 0.04672 0.91581 0.36789 0.0
C2172 C 0.09581 0.98153 0.29151 0.0
C2173 C 0.06334 0.93604 0.34248 0.0
N2174 N 0.06367 0.98223 0.2237 0.0
N2175 N 0.09981 0.92676 0.40028 0.0
H2176 H 0.02765 0.91083 0.35537 0.0
H2177 H 0.05133 0.90486 0.40204 0.0
H2178 H 0.1186 0.93251 0.41374 0.0
H2179 H 0.09134 0.90646 0.41713 0.0
H2180 H 0.07574 0.99509 0.19925 0.0
H2181 H 0.04563 0.97536 0.20801 0.0
H2182 H 0.10618 0.01785 0.23808 0.0
H2183 H 0.12961 1.01097 0.2855 0.0
C2184 C 0.83121 0.09628 0.10835 0.0
C2185 C 0.83532 0.07712 0.15165 0.0
C2186 C 0.78879 0.06364 0.15502 0.0
C2187 C 0.78662 0.07508 0.10552 0.0
N2188 N 0.80178 0.10855 1.03856 0.0
N2189 N 0.81844 0.04627 0.22139 0.0
C2190 C 0.80638 0.09468 0.08427 0.0
C2191 C 0.81402 0.06259 0.17746 0.0
N2192 N 0.85128 0.11489 0.09011 0.0
N2193 N 0.76694 0.05145 0.17796 0.0
H2194 H 0.83696 0.04506 0.23837 0.0
H2195 H 0.80414 0.03295 0.24021 0.0
H2196 H 0.74857 0.05185 0.1602 0.0
H2197 H 0.7665 0.04353 0.21506 0.0
H2198 H 0.84931 0.13082 0.05996 0.0
H2199 H 0.86978 0.1156 0.10735 0.0
H2200 H 0.81588 0.12092 1.01776 0.0
H2201 H 0.78323 0.10711 1.0215 0.0
C2202 C 0.99481 0.71974 0.16829 0.0
C2203 C 0.99848 0.70521 0.12091 0.0
C2204 C 0.95382 0.68445 0.1217 0.0
C2205 C 0.94813 0.70836 0.15835 0.0
N2206 N 0.9629 0.74182 0.22733 0.0
N2207 N 0.98622 0.66424 0.06164 0.0
C2208 C 0.96873 0.72279 0.18665 0.0
C2209 C 0.97972 0.68302 0.10214 0.0
N2210 N 0.01595 0.73348 0.19185 0.0
N2211 N 0.93378 0.66581 0.10317 0.0
H2212 H 1.00536 0.66449 1.04723 0.0
H2213 H 0.97325 0.64856 1.04325 0.0
H2214 H 0.91472 0.66783 0.11769 0.0
H2215 H 0.93615 0.64771 0.07599 0.0
H2216 H 0.01521 0.74437 0.22722 0.0
H2217 H 0.03481 0.73172 0.17639 0.0
H2218 H 0.97675 0.75541 0.24726 0.0
H2219 H 0.94383 0.74372 0.24145 0.0
C2220 C 0.83569 0.67923 0.75516 0.0
C2221 C 0.85271 0.70425 0.77146 0.0
C2222 C 0.8218 0.71941 0.83715 0.0
C2223 C 0.80219 0.70258 0.80961 0.0
N2224 N 0.7904 0.65976 0.75278 0.0
N2225 N 0.86653 0.74089 0.83629 0.0
C2226 C 0.80944 0.67916 0.7732 0.0
C2227 C 0.84758 0.72095 0.81681 0.0
N2228 N 0.84421 0.65829 0.71875 0.0
N2229 N 0.81494 0.73578 0.8799 0.0
H2230 H 0.88541 0.74166 0.82082 0.0
H2231 H 0.86384 0.75617 0.86719 0.0
H2232 H 0.79592 0.73448 0.89445 0.0
H2233 H 0.82815 0.74853 0.90255 0.0
H2234 H 0.83317 0.63878 0.70519 0.0
H2235 H 0.86339 0.65976 0.70472 0.0
H2236 H 0.79352 0.64355 0.72314 0.0
H2237 H 0.77111 0.66028 0.76648 0.0
C2238 C 0.9238 0.05047 0.82641 0.0
C2239 C 0.91955 0.06841 0.78213 0.0
C2240 C 0.96327 0.09152 0.78702 0.0
C2241 C 0.96978 0.06597 0.82023 0.0
N2242 N 0.95646 0.0301 0.88608 0.0
N2243 N 0.92854 0.11745 0.73777 0.0
C2244 C 0.94977 0.04918 0.84614 0.0
C2245 C 0.93686 0.09392 0.77013 0.0
N2246 N 0.90385 0.03174 0.84451 0.0
N2247 N 0.98279 0.11056 0.76794 0.0
H2248 H 0.90929 0.11723 0.72363 0.0
H2249 H 0.93974 0.1378 0.72847 0.0
H2250 H 1.00222 0.10847 0.78062 0.0
H2251 H 0.97983 0.12783 0.73985 0.0
H2252 H 0.9056 1.01625 0.87524 0.0
H2253 H 0.88506 0.03274 0.82846 0.0
H2254 H 0.94304 0.01664 0.90693 0.0
H2255 H 0.97583 0.02924 0.89946 0.0
C2256 C 0.22197 0.43823 0.54118 0.0
C2257 C 0.22695 0.46933 0.5623 0.0
C2258 C 0.17984 0.47993 0.56807 0.0
C2259 C 0.17615 0.45453 0.53284 0.0
N2260 N 0.18857 0.40052 0.5097 0.0
N2261 N 0.21154 0.51614 0.60831 0.0
C2262 C 0.19553 0.42999 0.52938 0.0
C2263 C 0.20601 0.48865 0.58114 0.0
N2264 N 0.24256 0.4184 0.52858 0.0
N2265 N 0.15846 0.49616 0.58645 0.0
H2266 H 0.23077 0.52199 0.61907 0.0
H2267 H 0.19744 0.53307 0.61973 0.0
H2268 H 0.13937 0.48844 0.57824 0.0
H2269 H 0.15951 0.51478 0.6131 0.0
H2270 H 0.24047 0.39645 0.50909 0.0
H2271 H 0.262 0.42455 0.53732 0.0
H2272 H 0.20137 0.38071 0.50651 0.0
H2273 H 0.16899 0.3959 0.49961 0.0
C2274 C 0.0632 0.79717 0.42854 0.0
C2275 C 0.08358 0.81434 0.45356 0.0
C2276 C 0.05144 0.84497 0.50208 0.0
C2277 C 0.03285 0.82111 0.48834 0.0
N2278 N 0.01598 0.78657 0.42367 0.0
N2279 N 0.09764 0.86109 0.50052 0.0
C2280 C 0.03694 0.80221 0.44485 0.0
C2281 C 0.07767 0.8413 0.48474 0.0
N2282 N 0.06939 0.77411 0.39332 0.0
N2283 N 0.04435 0.86794 0.53669 0.0
H2284 H 0.1169 0.85775 0.48761 0.0
H2285 H 0.09514 0.88108 0.52431 0.0
H2286 H 0.02501 0.86908 0.55005 0.0
H2287 H 0.05692 0.88582 0.55079 0.0
H2288 H 0.05569 0.75864 0.37652 0.0
H2289 H 0.08866 0.77047 0.38098 0.0
H2290 H 0.01708 0.77251 0.39107 0.0
H2291 H 0.99695 0.78996 0.43765 0.0
C2292 C 0.21715 0.84546 0.83383 0.0
C2293 C 0.22846 0.82512 0.79654 0.0
C2294 C 0.18929 0.79122 0.79379 0.0
C2295 C 0.17982 0.80874 0.83564 0.0
N2296 N 0.17789 0.85897 0.88149 0.0
N2297 N 0.22225 0.78738 0.7281 0.0
C2298 C 0.19127 0.83859 0.84999 0.0
C2299 C 0.21327 0.80102 0.77172 0.0
N2300 N 0.23187 0.86911 0.85678 0.0
N2301 N 0.17632 0.76376 0.77856 0.0
H2302 H 0.23975 0.79499 0.71131 0.0
H2303 H 0.21139 0.77089 0.70657 0.0
H2304 H 0.15836 0.75705 0.79453 0.0
H2305 H 0.18357 0.74754 0.75169 0.0
H2306 H 0.22544 0.8824 0.88789 0.0
H2307 H 0.25123 0.87414 0.84655 0.0
H2308 H 0.18416 0.88256 0.88976 0.0
H2309 H 0.15908 0.8533 0.89455 0.0
C2310 C 0.07584 0.43173 0.86526 0.0
C2311 C 0.08067 0.4533 0.90579 0.0
C2312 C 0.0336 0.45966 0.91951 0.0
C2313 C 0.02993 0.44683 0.87097 0.0
N2314 N 0.04277 0.40664 0.81105 0.0
N2315 N 0.06517 0.47777 0.98267 0.0
C2316 C 0.04945 0.42666 0.84998 0.0
C2317 C 0.05977 0.46304 0.93776 0.0
N2318 N 0.09659 0.41957 0.83861 0.0
N2319 N 1.01233 0.47243 0.94385 0.0
H2320 H 0.08435 0.48041 0.99608 0.0
H2321 H 0.05086 0.4857 1.00783 0.0
H2322 H 0.99342 0.47026 0.92854 0.0
H2323 H 1.01315 0.48433 0.97843 0.0
H2324 H 0.09465 0.40581 0.80583 0.0
H2325 H 0.11602 0.42374 0.85002 0.0
H2326 H 0.05585 0.39048 0.79388 0.0
H2327 H 0.02322 0.4051 0.79878 0.0
C2328 C 0.78408 0.55359 0.66724 0.0
C2329 C 0.78091 0.57363 0.62487 0.0
C2330 C 0.82701 0.58902 0.62846 0.0
C2331 C 0.83135 0.56114 0.65843 0.0
N2332 N 0.8149 0.52103 0.71609 0.0
N2333 N 0.79497 0.62049 0.58002 0.0
C2334 C 0.81005 0.54547 0.68258 0.0
C2335 C 0.80091 0.59588 0.61243 0.0
N2336 N 0.76231 0.53998 0.68833 0.0
N2337 N 0.8481 0.60681 0.61275 0.0
H2338 H 0.77563 0.62386 0.56731 0.0
H2339 H 0.80844 0.63771 0.56746 0.0
H2340 H 0.86721 0.60142 0.62492 0.0
H2341 H 0.84674 0.62706 0.58938 0.0
H2342 H 0.76276 0.5254 0.72027 0.0
H2343 H 0.74345 0.54574 0.67526 0.0
H2344 H 0.80031 0.50655 0.73188 0.0
H2345 H 0.83394 0.515 0.7277 0.0
C2346 C 0.95957 0.22742 0.51763 0.0
C2347 C 0.97954 0.21053 0.54411 0.0
C2348 C 0.94661 0.18164 0.59212 0.0
C2349 C 0.92888 0.20668 0.57913 0.0
N2350 N 0.91325 0.24346 0.51646 0.0
N2351 N 0.99277 0.16553 0.59537 0.0
C2352 C 0.93339 0.22528 0.53569 0.0
C2353 C 0.97309 0.18455 0.5763 0.0
N2354 N 0.96638 0.24747 0.47901 0.0
N2355 N 0.93845 0.15801 0.62429 0.0
H2356 H 1.01223 0.16821 0.58341 0.0
H2357 H 0.98992 0.14762 0.62245 0.0
H2358 H 0.91901 0.15765 0.6372 0.0
H2359 H 0.95006 0.13824 0.63511 0.0
H2360 H 0.95304 0.2614 0.45842 0.0
H2361 H 0.98579 0.24894 0.4664 0.0
H2362 H 0.915 0.25904 0.48588 0.0
H2363 H 0.89421 0.24168 0.53099 0.0
C2364 C 0.819 0.21455 0.33213 0.0
C2365 C 0.79756 0.20339 0.3028 0.0
C2366 C 0.8272 0.17774 0.24343 0.0
C2367 C 0.84758 0.19669 0.26477 0.0
N2368 N 0.86673 0.21873 0.33955 0.0
N2369 N 0.78046 0.16445 0.24421 0.0
C2370 C 0.84483 0.20911 0.31383 0.0
C2371 C 0.80159 0.18059 0.26386 0.0
N2372 N 0.81429 0.23293 0.37403 0.0
N2373 N 0.83185 0.16202 0.19909 0.0
H2374 H 0.76158 0.16776 0.25899 0.0
H2375 H 0.78186 0.14659 0.21638 0.0
H2376 H 0.85071 0.16163 0.18341 0.0
H2377 H 0.81742 0.15017 0.17805 0.0
H2378 H 0.82895 0.24452 0.39486 0.0
H2379 H 0.79524 0.23667 0.38758 0.0
H2380 H 0.86642 0.22757 0.37628 0.0
H2381 H 0.88554 0.21519 0.32464 0.0
C2382 C 0.94396 0.58266 0.24607 0.0
C2383 C 0.92928 0.55673 0.26622 0.0
C2384 C 0.96114 0.54987 0.33354 0.0
C2385 C 0.97869 0.56944 0.30564 0.0
N2386 N 0.98705 0.60763 0.23902 0.0
N2387 N 0.92056 0.51865 0.33188 0.0
C2388 C 0.96994 0.58764 0.26369 0.0
C2389 C 0.93646 0.54207 0.31204 0.0
N2390 N 0.93338 0.60049 0.20777 0.0
N2391 N 0.9684 0.53873 0.37988 0.0
H2392 H 0.90209 0.51347 0.31635 0.0
H2393 H 0.92577 0.50406 0.36228 0.0
H2394 H 0.98651 0.54462 0.39623 0.0
H2395 H 0.95583 0.52604 0.40364 0.0
H2396 H 0.9423 0.62097 0.19232 0.0
H2397 H 0.91434 0.59596 0.19443 0.0
H2398 H 0.98253 0.61968 0.20572 0.0
H2399 H 1.00646 0.61105 0.25087 0.0
C2400 C 0.72419 0.92646 0.5031 0.0
C2401 C 0.73172 0.94343 0.54691 0.0
C2402 C 0.68696 0.96338 0.5581 0.0
C2403 C 0.68222 0.95511 0.50741 0.0
N2404 N 0.69177 0.92173 0.4359 0.0
N2405 N 0.71824 0.96338 0.62763 0.0
C2406 C 0.69898 0.93289 0.48224 0.0
C2407 C 0.71209 0.95626 0.57895 0.0
N2408 N 0.7424 0.90724 0.4797 0.0
N2409 N 0.66848 0.98107 0.58354 0.0
H2410 H 0.73665 0.9577 0.64274 0.0
H2411 H 0.7047 0.97203 0.65382 0.0
H2412 H 0.65003 0.98599 0.56777 0.0
H2413 H 0.67131 0.99088 0.61927 0.0
H2414 H 0.73867 0.89353 0.44746 0.0
H2415 H 0.76116 0.90398 0.49527 0.0
H2416 H 0.70378 0.90758 0.41286 0.0
H2417 H 0.67327 0.92721 0.42075 0.0
C2418 C 0.55518 0.34401 0.50146 0.0
C2419 C 0.54851 0.33194 0.54897 0.0
C2420 C 0.59463 0.32105 0.56715 0.0
C2421 C 0.59909 0.32218 0.51502 0.0
N2422 N 0.58633 0.33992 0.43294 0.0
N2423 N 0.56176 0.32094 0.63368 0.0
C2424 C 0.58064 0.33729 0.48277 0.0
C2425 C 0.56849 0.32557 0.58469 0.0
N2426 N 0.53602 0.35819 0.47298 0.0
N2427 N 0.61491 0.31223 0.598 0.0
H2428 H 0.54254 0.32475 0.64617 0.0
H2429 H 0.57504 0.31466 0.66188 0.0
H2430 H 0.63383 0.30835 0.58374 0.0
H2431 H 0.61341 0.31009 0.63682 0.0
H2432 H 0.53946 0.36855 0.438 0.0
H2433 H 0.51697 0.36143 0.48705 0.0
H2434 H 0.57223 0.34491 0.40552 0.0
H2435 H 0.60528 0.33556 0.41924 0.0
C2436 C 0.74201 0.30297 0.90904 0.0
C2437 C 0.74615 0.31485 0.86023 0.0
C2438 C 0.70347 0.34186 0.86014 0.0
C2439 C 0.6971 0.32348 0.90318 0.0
N2440 N 0.71023 0.29122 0.97449 0.0
N2441 N 0.7348 0.35027 0.79246 0.0
C2442 C 0.7166 0.30599 0.93021 0.0
C2443 C 0.72838 0.33689 0.83767 0.0
N2444 N 0.7621 0.28694 0.93267 0.0
N2445 N 0.68533 0.36299 0.84052 0.0
H2446 H 0.75341 0.34671 0.77662 0.0
H2447 H 0.72207 0.36436 0.77077 0.0
H2448 H 0.66669 0.36614 0.8563 0.0
H2449 H 0.68907 0.37859 0.81062 0.0
H2450 H 0.76114 0.27788 0.96907 0.0
H2451 H 0.78065 0.28467 0.91607 0.0
H2452 H 0.72297 0.27634 0.99484 0.0
H2453 H 0.69164 0.29344 0.99078 0.0
C2454 C 0.54969 0.93667 0.86096 0.0
C2455 C 0.53139 0.9607 0.87542 0.0
C2456 C 0.56108 0.98121 0.93931 0.0
C2457 C 0.58156 0.965 0.91317 0.0
N2458 N 0.59571 0.91977 0.86309 0.0
N2459 N 0.51403 0.99363 0.9414 0.0
C2460 C 0.57571 0.93915 0.87983 0.0
C2461 C 0.53504 0.9778 0.92075 0.0
N2462 N 0.54269 0.91497 0.8244 0.0
N2463 N 0.56708 1.00203 0.97778 0.0
H2464 H 0.49525 0.99152 0.92548 0.0
H2465 H 0.51479 1.00687 0.97483 0.0
H2466 H 0.58622 1.00429 0.99167 0.0
H2467 H 0.55331 0.01655 0.9963 0.0
H2468 H 0.55515 0.89704 0.80997 0.0
H2469 H 0.52352 0.9148 0.80992 0.0
H2470 H 0.59337 0.90063 0.83764 0.0
H2471 H 0.61486 0.92292 0.87665 0.0
C2472 C 0.32103 0.06503 0.52302 0.0
C2473 C 0.30232 0.08002 0.55502 0.0
C2474 C 0.3372 0.09742 0.61155 0.0
C2475 C 0.35326 0.07337 0.58923 0.0
N2476 N 0.3653 0.0421 0.51714 0.0
N2477 N 0.29249 0.11843 0.61995 0.0
C2478 C 0.34708 0.06094 0.5413 0.0
C2479 C 0.31074 0.10011 0.59502 0.0
N2480 N 0.31311 0.0525 0.4779 0.0
N2481 N 0.34669 0.11428 0.65194 0.0
H2482 H 0.27301 0.11982 0.60722 0.0
H2483 H 0.29645 0.1319 0.65231 0.0
H2484 H 0.36612 0.11105 0.66416 0.0
H2485 H 0.33613 0.13205 0.6714 0.0
H2486 H 0.32571 0.04146 0.45214 0.0
H2487 H 0.29386 0.05533 0.46485 0.0
H2488 H 0.36186 0.02972 0.48355 0.0
H2489 H 0.3843 0.03922 0.53171 0.0
C2490 C 0.45714 0.68541 0.61951 0.0
C2491 C 0.44934 0.70676 0.65862 0.0
C2492 C 0.49284 0.73109 0.66236 0.0
C2493 C 0.4988 0.71416 0.61769 0.0
N2494 N 0.49248 0.66837 0.56343 0.0
N2495 N 0.46113 0.74105 0.72877 0.0
C2496 C 0.48303 0.68818 0.60059 0.0
C2497 C 0.46785 0.72652 0.68431 0.0
N2498 N 0.43926 0.66436 0.59882 0.0
N2499 N 0.51024 0.75378 0.68003 0.0
H2500 H 0.44272 0.73772 0.74533 0.0
H2501 H 0.4742 0.75435 0.75096 0.0
H2502 H 0.52882 0.75659 0.66388 0.0
H2503 H 0.50629 0.76987 0.70945 0.0
H2504 H 0.44311 0.64939 0.56802 0.0
H2505 H 0.42 0.66247 0.61203 0.0
H2506 H 0.48256 0.6481 0.54927 0.0
H2507 H 0.5115 0.67139 0.54927 0.0
C2508 C 0.32965 0.6919 0.24261 0.0
C2509 C 0.33473 0.71528 0.2051 0.0
C2510 C 0.28779 0.72447 0.19356 0.0
C2511 C 0.28419 0.70969 0.24058 0.0
N2512 N 0.2966 0.66732 0.29683 0.0
N2513 N 0.3194 0.74541 0.13324 0.0
C2514 C 0.30337 0.68803 0.25913 0.0
C2515 C 0.31388 0.7279 0.1754 0.0
N2516 N 0.35034 0.67657 0.26536 0.0
N2517 N 0.26655 0.73853 0.17074 0.0
H2518 H 0.33855 0.7479 0.11978 0.0
H2519 H 0.30523 0.7564 0.11061 0.0
H2520 H 0.24772 0.73634 0.1861 0.0
H2521 H 0.26725 0.75099 0.13678 0.0
H2522 H 0.34849 0.66073 0.29564 0.0
H2523 H 0.36963 0.67982 0.25274 0.0
H2524 H 0.30941 0.65037 0.31279 0.0
H2525 H 0.27719 0.66636 0.30978 0.0
C2526 C 0.48525 0.10466 0.24996 0.0
C2527 C 0.50259 0.08025 0.23279 0.0
C2528 C 0.47224 0.06577 0.16584 0.0
C2529 C 0.45229 0.08135 0.19432 0.0
N2530 N 0.43965 0.12325 0.25205 0.0
N2531 N 0.51804 0.04735 0.16499 0.0
C2532 C 0.45911 0.10462 0.23128 0.0
C2533 C 0.49816 0.06518 0.18595 0.0
N2534 N 0.49327 0.12462 0.28807 0.0
N2535 N 0.46573 0.04938 0.12288 0.0
H2536 H 0.5368 0.04694 0.18128 0.0
H2537 H 0.51636 0.03397 0.13184 0.0
H2538 H 0.44673 0.05007 0.108 0.0
H2539 H 0.47914 0.03672 0.1006 0.0
H2540 H 0.48182 0.14334 0.30317 0.0
H2541 H 0.51243 0.123 0.3024 0.0
H2542 H 0.44247 0.13935 0.28191 0.0
H2543 H 0.4204 0.12245 0.23797 0.0
C2544 C 0.68189 0.46154 0.06925 0.0
C2545 C 0.67762 0.45375 1.01826 0.0
C2546 C 0.71979 0.42578 1.01455 0.0
C2547 C 0.72714 0.44354 0.05766 0.0
N2548 N 0.71422 0.46658 0.13671 0.0
N2549 N 0.68838 0.42188 0.9457 0.0
C2550 C 0.70746 0.45645 0.08956 0.0
C2551 C 0.69481 0.43216 0.99295 0.0
N2552 N 0.66227 0.47662 0.09555 0.0
N2553 N 0.73802 0.40612 0.99213 0.0
H2554 H 0.66989 0.42695 0.93015 0.0
H2555 H 0.70101 0.40868 0.92246 0.0
H2556 H 0.75677 0.40318 1.00791 0.0
H2557 H 0.73409 0.39147 0.96093 0.0
H2558 H 0.66385 0.48396 0.13289 0.0
H2559 H 0.64371 0.48047 0.07957 0.0
H2560 H 0.70133 0.47774 0.16182 0.0
H2561 H 0.73301 0.46238 0.15128 0.0
C2562 C 0.56177 0.80329 0.92255 0.0
C2563 C 0.58268 0.81935 0.94777 0.0
C2564 C 0.55143 0.84778 1.00155 0.0
C2565 C 0.53268 0.82425 0.98737 0.0
N2566 N 0.51484 0.79026 0.92306 0.0
N2567 N 0.5977 0.86329 0.99974 0.0
C2568 C 0.53597 0.80651 0.94246 0.0
C2569 C 0.57732 0.8448 0.98224 0.0
N2570 N 0.5672 0.78287 0.88327 0.0
N2571 N 0.54485 0.8699 1.03781 0.0
H2572 H 0.61681 0.85985 0.98629 0.0
H2573 H 0.59581 0.88174 1.0265 0.0
H2574 H 0.52578 0.87057 1.05257 0.0
H2575 H 0.55743 0.88795 1.05132 0.0
H2576 H 0.55318 0.76877 0.86471 0.0
H2577 H 0.58609 0.78072 0.86835 0.0
H2578 H 0.51529 0.77623 0.89039 0.0
H2579 H 0.49621 0.79253 0.93937 0.0
C2580 C 0.7064 0.84136 0.37037 0.0
C2581 C 0.70076 0.81893 0.40898 0.0
C2582 C 0.7475 0.80857 0.42093 0.0
C2583 C 0.7513 0.82174 0.3729 0.0
N2584 N 0.73983 0.86297 0.31402 0.0
N2585 N 0.7155 0.78922 0.48169 0.0
C2586 C 0.73268 0.84365 0.35318 0.0
C2587 C 0.72136 0.80618 0.43918 0.0
N2588 N 0.68607 0.85721 0.34732 0.0
N2589 N 0.76858 0.79497 0.4449 0.0
H2590 H 0.69633 0.78756 0.49533 0.0
H2591 H 0.72944 0.77749 0.50401 0.0
H2592 H 0.7874 0.7961 0.42911 0.0
H2593 H 0.76781 0.78433 0.48028 0.0
H2594 H 0.68823 0.87279 0.31683 0.0
H2595 H 0.66674 0.85449 0.35992 0.0
H2596 H 0.72737 0.87979 0.2968 0.0
H2597 H 0.75923 0.86286 0.30088 0.0
C2598 C 0.57002 0.47617 0.26858 0.0
C2599 C 0.55114 0.45581 0.29166 0.0
C2600 C 0.58416 0.43438 0.3485 0.0
C2601 C 0.60063 0.46044 0.33461 0.0
N2602 N 0.61497 0.4972 0.27099 0.0
N2603 N 0.54276 0.40602 0.33447 0.0
C2604 C 0.59575 0.47756 0.28971 0.0
C2605 C 0.55958 0.43087 0.32397 0.0
N2606 N 0.56234 0.4963 0.23055 0.0
N2607 N 0.59041 0.41671 0.39009 0.0
H2608 H 0.52411 0.40492 0.31775 0.0
H2609 H 0.54825 0.38569 0.3554 0.0
H2610 H 0.60871 0.4191 0.40782 0.0
H2611 H 0.57697 0.40173 0.40818 0.0
H2612 H 0.57435 0.5139 0.21439 0.0
H2613 H 0.54356 0.49485 0.21474 0.0
H2614 H 0.61325 0.51031 0.23772 0.0
H2615 H 0.63353 0.49842 0.28799 0.0
C2616 C 0.31277 0.55751 0.18265 0.0
C2617 C 0.33115 0.57557 0.15419 0.0
C2618 C 0.29696 0.59138 0.09506 0.0
C2619 C 0.28105 0.56691 0.11599 0.0
N2620 N 0.26988 0.53127 0.18324 0.0
N2621 N 0.34095 0.61421 0.08912 0.0
C2622 C 0.2874 0.55241 0.16228 0.0
C2623 C 0.32311 0.59465 0.11272 0.0
N2624 N 0.31987 0.54521 0.2284 0.0
N2625 N 0.28731 0.6092 1.05589 0.0
H2626 H 0.36042 0.61641 0.10141 0.0
H2627 H 0.33691 0.62754 1.0568 0.0
H2628 H 0.26804 0.60595 1.0429 0.0
H2629 H 0.29735 0.62825 1.03877 0.0
H2630 H 0.30689 0.53347 0.25248 0.0
H2631 H 0.33857 0.54872 0.24386 0.0
H2632 H 0.27393 0.51674 0.2143 0.0
H2633 H 0.25102 0.52815 0.16809 0.0
C2634 C 0.44651 0.20364 0.13151 0.0
C2635 C 0.42909 0.22352 0.1036 0.0
C2636 C 0.45832 0.22159 1.03157 0.0
C2637 C 0.47803 0.20869 0.06347 0.0
N2638 N 0.49093 0.18169 0.13961 0.0
N2639 N 0.41556 0.24816 1.02635 0.0
C2640 C 0.47194 0.19719 0.11201 0.0
C2641 C 0.43377 0.2305 1.05263 0.0
N2642 N 0.43899 0.19349 0.17809 0.0
N2643 N 0.46346 0.22548 0.98165 0.0
H2644 H 0.39725 0.25413 1.04163 0.0
H2645 H 0.41873 0.25745 0.99051 0.0
H2646 H 0.48149 0.21875 0.96595 0.0
H2647 H 0.4494 0.23276 0.95538 0.0
H2648 H 0.45062 0.17945 0.20191 0.0
H2649 H 0.42014 0.19834 0.19192 0.0
H2650 H 0.48838 0.17347 0.17621 0.0
H2651 H 0.50973 0.1771 0.12551 0.0
C2652 C 0.32453 0.20825 0.72169 0.0
C2653 C 0.34287 0.22453 0.7528 0.0
C2654 C 0.31522 0.21616 0.82584 0.0
C2655 C 0.29471 0.20695 0.79269 0.0
N2656 N 0.27926 0.19033 0.71131 0.0
N2657 N 0.35862 0.24059 0.83402 0.0
C2658 C 0.29941 0.20089 0.74131 0.0
C2659 C 0.33946 0.22641 0.80523 0.0
N2660 N 0.33101 0.20192 0.67285 0.0
N2661 N 0.31091 0.21604 0.87645 0.0
H2662 H 0.3767 0.24758 0.81886 0.0
H2663 H 0.35658 0.24599 0.87204 0.0
H2664 H 0.29288 0.20911 0.89182 0.0
H2665 H 0.32547 0.22059 0.90317 0.0
H2666 H 0.31901 0.18928 0.64773 0.0
H2667 H 0.34961 0.2076 0.65864 0.0
H2668 H 0.2804 0.1885 0.67239 0.0
H2669 H 0.26081 0.18428 0.72579 0.0
C2670 C 0.47636 0.60169 0.77633 0.0
C2671 C 0.49439 0.58017 0.75355 0.0
C2672 C 0.46342 0.56873 0.68622 0.0
C2673 C 0.44335 0.58112 0.71807 0.0
N2674 N 0.43019 0.61695 0.78457 0.0
N2675 N 0.51007 0.55463 0.67897 0.0
C2676 C 0.44992 0.60141 0.75922 0.0
C2677 C 0.48971 0.56867 0.70454 0.0
N2678 N 0.48425 0.61882 0.81768 0.0
N2679 N 0.45684 0.55452 0.64148 0.0
H2680 H 0.5291 0.55436 0.69411 0.0
H2681 H 0.50859 0.54471 0.64304 0.0
H2682 H 0.43767 0.55486 0.62749 0.0
H2683 H 0.47027 0.5435 0.61729 0.0
H2684 H 0.47235 0.63526 0.83713 0.0
H2685 H 0.50371 0.61736 0.83051 0.0
H2686 H 0.43296 0.63075 0.81705 0.0
H2687 H 0.4107 0.61598 0.77181 0.0
loop_
_geom_bond_atom_site_label_1
_geom_bond_atom_site_label_2
_geom_bond_distance
_geom_bond_site_symmetry_2
_ccdc_geom_bond_type
Co0 N5 2.055 1_545 S
Co0 O17 2.021 . S
Co0 O20 2.062 . S
Co0 O24 2.117 1_545 S
Co0 O25 2.020 . S
C1 O21 1.259 . S
C1 O24 1.258 . S
Co2 N11 2.057 1_565 S
Co2 O18 2.117 1_565 S
Co2 O19 2.020 . S
Co2 O21 2.021 . S
Co2 O26 2.049 1_564 S
C3 N5 1.308 1_545 S
C3 N6 1.347 . S
C3 H8 0.931 . S
C4 N5 1.386 . S
C4 C7 1.350 . S
C4 H9 0.930 . S
N5 Co0 2.055 1_565 S
N5 C3 1.308 1_565 S
N5 C4 1.386 . S
N6 C3 1.347 . S
N6 C7 1.373 1_545 S
C7 C4 1.350 . S
C7 N6 1.373 1_565 S
C7 H28 0.931 . S
H8 C3 0.931 . S
H9 C4 0.930 . S
C10 O17 1.259 . S
C10 O18 1.258 . S
N11 Co2 2.057 1_545 S
N11 C12 1.316 1_544 S
N11 C13 1.375 . S
C12 N11 1.316 1_566 S
C12 N14 1.363 . S
C12 H23 0.931 . S
C13 N11 1.375 . S
C13 C15 1.350 1_554 S
C13 H22 0.930 . S
N14 C12 1.363 . S
N14 C15 1.339 1_565 S
C15 C13 1.350 1_556 S
C15 N14 1.339 1_545 S
C15 H29 0.931 . S
C16 O19 1.256 . S
C16 O20 1.255 1_565 S
O17 Co0 2.021 . S
O17 C10 1.259 . S
O18 Co2 2.117 1_545 S
O18 C10 1.258 . S
O19 Co2 2.020 . S
O19 C16 1.256 . S
O20 Co0 2.062 . S
O20 C16 1.255 1_545 S
O21 C1 1.259 . S
O21 Co2 2.021 . S
H22 C13 0.930 . S
H23 C12 0.931 . S
O24 Co0 2.117 1_565 S
O24 C1 1.258 . S
O25 Co0 2.020 . S
O25 C27 1.256 1_554 S
O26 Co2 2.049 1_546 S
O26 C27 1.255 . S
C27 O25 1.256 1_556 S
C27 O26 1.255 . S
H28 C7 0.931 . S
H29 C15 0.931 . S
Co30 N35 2.057 . S
Co30 O47 2.021 . S
Co30 O50 2.062 . S
Co30 O54 2.117 . S
Co30 O55 2.020 . S
C31 O51 1.259 . S
C31 O54 1.258 . S
Co32 N41 2.057 . S
Co32 O48 2.117 . S
Co32 O49 2.020 . S
Co32 O51 2.021 . S
Co32 O56 2.049 1_554 S
C33 N35 1.316 . S
C33 N36 1.347 . S
C33 H38 0.931 . S
C34 N35 1.375 . S
C34 C37 1.350 . S
C34 H39 0.930 . S
N35 Co30 2.057 . S
N35 C33 1.316 . S
N35 C34 1.375 . S
N36 C33 1.347 . S
N36 C37 1.373 . S
C37 C34 1.350 . S
C37 N36 1.373 . S
C37 H58 0.931 . S
H38 C33 0.931 . S
H39 C34 0.930 . S
C40 O47 1.259 . S
C40 O48 1.258 . S
N41 Co32 2.057 . S
N41 C42 1.316 1_554 S
N41 C43 1.375 . S
C42 N41 1.316 1_556 S
C42 N44 1.347 1_655 S
C42 H53 0.931 . S
C43 N41 1.375 . S
C43 C45 1.350 1_654 S
C43 H52 0.930 . S
N44 C42 1.347 1_455 S
N44 C45 1.373 . S
C45 C43 1.350 1_456 S
C45 N44 1.373 . S
C45 H59 0.931 . S
C46 O49 1.256 . S
C46 O50 1.255 . S
O47 Co30 2.021 . S
O47 C40 1.259 . S
O48 Co32 2.117 . S
O48 C40 1.258 . S
O49 Co32 2.020 . S
O49 C46 1.256 . S
O50 Co30 2.062 . S
O50 C46 1.255 . S
O51 C31 1.259 . S
O51 Co32 2.021 . S
H52 C43 0.930 . S
H53 C42 0.931 . S
O54 Co30 2.117 . S
O54 C31 1.258 . S
O55 Co30 2.020 . S
O55 C57 1.256 1_554 S
O56 Co32 2.049 1_556 S
O56 C57 1.255 . S
C57 O55 1.256 1_556 S
C57 O56 1.255 . S
H58 C37 0.931 . S
H59 C45 0.931 . S
Co60 N65 2.057 . S
Co60 O77 2.021 . S
Co60 O80 2.062 . S
Co60 O84 2.117 . S
Co60 O85 2.020 . S
C61 O81 1.259 . S
C61 O84 1.258 . S
Co62 N71 2.057 . S
Co62 O78 2.117 . S
Co62 O79 2.020 . S
Co62 O81 2.021 . S
Co62 O86 2.062 . S
C63 N65 1.316 . S
C63 N66 1.347 . S
C63 H68 0.931 . S
C64 N65 1.375 . S
C64 C67 1.350 . S
C64 H69 0.930 . S
N65 Co60 2.057 . S
N65 C63 1.316 . S
N65 C64 1.375 . S
N66 C63 1.347 . S
N66 C67 1.373 . S
C67 C64 1.350 . S
C67 N66 1.373 . S
C67 H88 0.931 . S
H68 C63 0.931 . S
H69 C64 0.930 . S
C70 O77 1.259 . S
C70 O78 1.258 . S
N71 Co62 2.057 . S
N71 C72 1.316 . S
N71 C73 1.375 . S
C72 N71 1.316 . S
C72 N74 1.347 . S
C72 H83 0.931 . S
C73 N71 1.375 . S
C73 C75 1.350 . S
C73 H82 0.930 . S
N74 C72 1.347 . S
N74 C75 1.373 . S
C75 C73 1.350 . S
C75 N74 1.373 . S
C75 H89 0.931 . S
C76 O79 1.256 . S
C76 O80 1.255 . S
O77 Co60 2.021 . S
O77 C70 1.259 . S
O78 Co62 2.117 . S
O78 C70 1.258 . S
O79 Co62 2.020 . S
O79 C76 1.256 . S
O80 Co60 2.062 . S
O80 C76 1.255 . S
O81 C61 1.259 . S
O81 Co62 2.021 . S
H82 C73 0.930 . S
H83 C72 0.931 . S
O84 Co60 2.117 . S
O84 C61 1.258 . S
O85 Co60 2.020 . S
O85 C87 1.256 . S
O86 Co62 2.062 . S
O86 C87 1.255 . S
C87 O85 1.256 . S
C87 O86 1.255 . S
H88 C67 0.931 . S
H89 C75 0.931 . S
Co90 N95 2.055 1_545 S
Co90 O107 2.021 . S
Co90 O110 2.062 . S
Co90 O114 2.117 1_545 S
Co90 O115 2.020 . S
C91 O111 1.259 . S
C91 O114 1.258 . S
Co92 N101 2.057 1_565 S
Co92 O108 2.117 1_565 S
Co92 O109 2.020 . S
Co92 O111 2.021 . S
Co92 O116 2.062 1_565 S
C93 N95 1.308 1_545 S
C93 N96 1.347 . S
C93 H98 0.931 . S
C94 N95 1.386 . S
C94 C97 1.350 . S
C94 H99 0.930 . S
N95 Co90 2.055 1_565 S
N95 C93 1.308 1_565 S
N95 C94 1.386 . S
N96 C93 1.347 . S
N96 C97 1.373 1_545 S
C97 C94 1.350 . S
C97 N96 1.373 1_565 S
C97 H118 0.931 . S
H98 C93 0.931 . S
H99 C94 0.930 . S
C100 O107 1.259 . S
C100 O108 1.258 . S
N101 Co92 2.057 1_545 S
N101 C102 1.316 1_545 S
N101 C103 1.375 . S
C102 N101 1.316 1_565 S
C102 N104 1.363 1_655 S
C102 H113 0.931 . S
C103 N101 1.375 . S
C103 C105 1.350 1_655 S
C103 H112 0.930 . S
N104 C102 1.363 1_455 S
N104 C105 1.339 1_565 S
C105 C103 1.350 1_455 S
C105 N104 1.339 1_545 S
C105 H119 0.931 . S
C106 O109 1.256 . S
C106 O110 1.255 1_565 S
O107 Co90 2.021 . S
O107 C100 1.259 . S
O108 Co92 2.117 1_545 S
O108 C100 1.258 . S
O109 Co92 2.020 . S
O109 C106 1.256 . S
O110 Co90 2.062 . S
O110 C106 1.255 1_545 S
O111 C91 1.259 . S
O111 Co92 2.021 . S
H112 C103 0.930 . S
H113 C102 0.931 . S
O114 Co90 2.117 1_565 S
O114 C91 1.258 . S
O115 Co90 2.020 . S
O115 C117 1.256 . S
O116 Co92 2.062 1_545 S
O116 C117 1.255 . S
C117 O115 1.256 . S
C117 O116 1.255 . S
H118 C97 0.931 . S
H119 C105 0.931 . S
Co120 N125 2.057 1_545 S
Co120 O137 2.021 . S
Co120 O140 2.049 1_546 S
Co120 O144 2.117 1_545 S
Co120 O145 2.020 . S
C121 O141 1.259 . S
C121 O144 1.258 . S
Co122 N131 2.055 1_565 S
Co122 O138 2.117 1_565 S
Co122 O139 2.020 . S
Co122 O141 2.021 . S
Co122 O146 2.062 . S
C123 N125 1.316 1_544 S
C123 N126 1.363 . S
C123 H128 0.931 . S
C124 N125 1.375 . S
C124 C127 1.350 1_556 S
C124 H129 0.930 . S
N125 Co120 2.057 1_565 S
N125 C123 1.316 1_566 S
N125 C124 1.375 . S
N126 C123 1.363 . S
N126 C127 1.339 1_545 S
C127 C124 1.350 1_554 S
C127 N126 1.339 1_565 S
C127 H148 0.931 . S
H128 C123 0.931 . S
H129 C124 0.930 . S
C130 O137 1.259 . S
C130 O138 1.258 . S
N131 Co122 2.055 1_545 S
N131 C132 1.308 1_545 S
N131 C133 1.386 . S
C132 N131 1.308 1_565 S
C132 N134 1.347 . S
C132 H143 0.931 . S
C133 N131 1.386 . S
C133 C135 1.350 . S
C133 H142 0.930 . S
N134 C132 1.347 . S
N134 C135 1.373 1_565 S
C135 C133 1.350 . S
C135 N134 1.373 1_545 S
C135 H149 0.931 . S
C136 O139 1.256 1_554 S
C136 O140 1.255 . S
O137 Co120 2.021 . S
O137 C130 1.259 . S
O138 Co122 2.117 1_545 S
O138 C130 1.258 . S
O139 Co122 2.020 . S
O139 C136 1.256 1_556 S
O140 Co120 2.049 1_564 S
O140 C136 1.255 . S
O141 C121 1.259 . S
O141 Co122 2.021 . S
H142 C133 0.930 . S
H143 C132 0.931 . S
O144 Co120 2.117 1_565 S
O144 C121 1.258 . S
O145 Co120 2.020 . S
O145 C147 1.256 . S
O146 Co122 2.062 . S
O146 C147 1.255 1_565 S
C147 O145 1.256 . S
C147 O146 1.255 1_545 S
H148 C127 0.931 . S
H149 C135 0.931 . S
Co150 N155 2.057 . S
Co150 O167 2.021 . S
Co150 O170 2.049 1_556 S
Co150 O174 2.117 . S
Co150 O175 2.020 . S
C151 O171 1.259 . S
C151 O174 1.258 . S
Co152 N161 2.057 . S
Co152 O168 2.117 . S
Co152 O169 2.020 . S
Co152 O171 2.021 . S
Co152 O176 2.062 . S
C153 N155 1.316 1_554 S
C153 N156 1.347 1_455 S
C153 H158 0.931 . S
C154 N155 1.375 . S
C154 C157 1.350 1_456 S
C154 H159 0.930 . S
N155 Co150 2.057 . S
N155 C153 1.316 1_556 S
N155 C154 1.375 . S
N156 C153 1.347 1_655 S
N156 C157 1.373 . S
C157 C154 1.350 1_654 S
C157 N156 1.373 . S
C157 H178 0.931 . S
H158 C153 0.931 . S
H159 C154 0.930 . S
C160 O167 1.259 . S
C160 O168 1.258 . S
N161 Co152 2.057 . S
N161 C162 1.316 . S
N161 C163 1.375 . S
C162 N161 1.316 . S
C162 N164 1.347 . S
C162 H173 0.931 . S
C163 N161 1.375 . S
C163 C165 1.350 . S
C163 H172 0.930 . S
N164 C162 1.347 . S
N164 C165 1.373 . S
C165 C163 1.350 . S
C165 N164 1.373 . S
C165 H179 0.931 . S
C166 O169 1.256 1_554 S
C166 O170 1.255 . S
O167 Co150 2.021 . S
O167 C160 1.259 . S
O168 Co152 2.117 . S
O168 C160 1.258 . S
O169 Co152 2.020 . S
O169 C166 1.256 1_556 S
O170 Co150 2.049 1_554 S
O170 C166 1.255 . S
O171 C151 1.259 . S
O171 Co152 2.021 . S
H172 C163 0.930 . S
H173 C162 0.931 . S
O174 Co150 2.117 . S
O174 C151 1.258 . S
O175 Co150 2.020 . S
O175 C177 1.256 . S
O176 Co152 2.062 . S
O176 C177 1.255 . S
C177 O175 1.256 . S
C177 O176 1.255 . S
H178 C157 0.931 . S
H179 C165 0.931 . S
Co180 N185 2.057 . S
Co180 O197 2.021 . S
Co180 O200 2.062 . S
Co180 O204 2.117 . S
Co180 O205 2.020 . S
C181 O201 1.259 . S
C181 O204 1.258 . S
Co182 N191 2.057 . S
Co182 O198 2.117 . S
Co182 O199 2.020 . S
Co182 O201 2.021 . S
Co182 O206 2.062 . S
C183 N185 1.316 . S
C183 N186 1.347 . S
C183 H188 0.931 . S
C184 N185 1.375 . S
C184 C187 1.350 . S
C184 H189 0.930 . S
N185 Co180 2.057 . S
N185 C183 1.316 . S
N185 C184 1.375 . S
N186 C183 1.347 . S
N186 C187 1.373 . S
C187 C184 1.350 . S
C187 N186 1.373 . S
C187 H208 0.931 . S
H188 C183 0.931 . S
H189 C184 0.930 . S
C190 O197 1.259 . S
C190 O198 1.258 . S
N191 Co182 2.057 . S
N191 C192 1.316 . S
N191 C193 1.375 . S
C192 N191 1.316 . S
C192 N194 1.347 . S
C192 H203 0.931 . S
C193 N191 1.375 . S
C193 C195 1.350 . S
C193 H202 0.930 . S
N194 C192 1.347 . S
N194 C195 1.373 . S
C195 C193 1.350 . S
C195 N194 1.373 . S
C195 H209 0.931 . S
C196 O199 1.256 . S
C196 O200 1.255 . S
O197 Co180 2.021 . S
O197 C190 1.259 . S
O198 Co182 2.117 . S
O198 C190 1.258 . S
O199 Co182 2.020 . S
O199 C196 1.256 . S
O200 Co180 2.062 . S
O200 C196 1.255 . S
O201 C181 1.259 . S
O201 Co182 2.021 . S
H202 C193 0.930 . S
H203 C192 0.931 . S
O204 Co180 2.117 . S
O204 C181 1.258 . S
O205 Co180 2.020 . S
O205 C207 1.256 . S
O206 Co182 2.062 . S
O206 C207 1.255 . S
C207 O205 1.256 . S
C207 O206 1.255 . S
H208 C187 0.931 . S
H209 C195 0.931 . S
Co210 N215 2.057 1_545 S
Co210 O227 2.021 . S
Co210 O230 2.062 1_545 S
Co210 O234 2.117 1_545 S
Co210 O235 2.020 . S
C211 O231 1.259 . S
C211 O234 1.258 . S
Co212 N221 2.055 1_565 S
Co212 O228 2.117 1_565 S
Co212 O229 2.020 . S
Co212 O231 2.021 . S
Co212 O236 2.062 . S
C213 N215 1.316 1_545 S
C213 N216 1.363 1_455 S
C213 H218 0.931 . S
C214 N215 1.375 . S
C214 C217 1.350 1_455 S
C214 H219 0.930 . S
N215 Co210 2.057 1_565 S
N215 C213 1.316 1_565 S
N215 C214 1.375 . S
N216 C213 1.363 1_655 S
N216 C217 1.339 1_545 S
C217 C214 1.350 1_655 S
C217 N216 1.339 1_565 S
C217 H238 0.931 . S
H218 C213 0.931 . S
H219 C214 0.930 . S
C220 O227 1.259 . S
C220 O228 1.258 . S
N221 Co212 2.055 1_545 S
N221 C222 1.308 1_545 S
N221 C223 1.386 . S
C222 N221 1.308 1_565 S
C222 N224 1.347 . S
C222 H233 0.931 . S
C223 N221 1.386 . S
C223 C225 1.350 . S
C223 H232 0.930 . S
N224 C222 1.347 . S
N224 C225 1.373 1_565 S
C225 C223 1.350 . S
C225 N224 1.373 1_545 S
C225 H239 0.931 . S
C226 O229 1.256 . S
C226 O230 1.255 . S
O227 Co210 2.021 . S
O227 C220 1.259 . S
O228 Co212 2.117 1_545 S
O228 C220 1.258 . S
O229 Co212 2.020 . S
O229 C226 1.256 . S
O230 Co210 2.062 1_565 S
O230 C226 1.255 . S
O231 C211 1.259 . S
O231 Co212 2.021 . S
H232 C223 0.930 . S
H233 C222 0.931 . S
O234 Co210 2.117 1_565 S
O234 C211 1.258 . S
O235 Co210 2.020 . S
O235 C237 1.256 . S
O236 Co212 2.062 . S
O236 C237 1.255 1_565 S
C237 O235 1.256 . S
C237 O236 1.255 1_545 S
H238 C217 0.931 . S
H239 C225 0.931 . S
Co240 N245 2.057 . S
Co240 O257 2.021 . S
Co240 O260 2.062 . S
Co240 O264 2.117 . S
Co240 O265 2.020 . S
C241 O261 1.259 . S
C241 O264 1.258 . S
Co242 N251 2.057 . S
Co242 O258 2.117 . S
Co242 O259 2.020 . S
Co242 O261 2.021 . S
Co242 O266 2.062 . S
C243 N245 1.316 . S
C243 N246 1.347 . S
C243 H248 0.931 . S
C244 N245 1.375 . S
C244 C247 1.350 . S
C244 H249 0.930 . S
N245 Co240 2.057 . S
N245 C243 1.316 . S
N245 C244 1.375 . S
N246 C243 1.347 . S
N246 C247 1.373 . S
C247 C244 1.350 . S
C247 N246 1.373 . S
C247 H268 0.931 . S
H248 C243 0.931 . S
H249 C244 0.930 . S
C250 O257 1.259 . S
C250 O258 1.258 . S
N251 Co242 2.057 . S
N251 C252 1.316 . S
N251 C253 1.375 . S
C252 N251 1.316 . S
C252 N254 1.347 . S
C252 H263 0.931 . S
C253 N251 1.375 . S
C253 C255 1.350 . S
C253 H262 0.930 . S
N254 C252 1.347 . S
N254 C255 1.373 . S
C255 C253 1.350 . S
C255 N254 1.373 . S
C255 H269 0.931 . S
C256 O259 1.256 . S
C256 O260 1.255 . S
O257 Co240 2.021 . S
O257 C250 1.259 . S
O258 Co242 2.117 . S
O258 C250 1.258 . S
O259 Co242 2.020 . S
O259 C256 1.256 . S
O260 Co240 2.062 . S
O260 C256 1.255 . S
O261 C241 1.259 . S
O261 Co242 2.021 . S
H262 C253 0.930 . S
H263 C252 0.931 . S
O264 Co240 2.117 . S
O264 C241 1.258 . S
O265 Co240 2.020 . S
O265 C267 1.256 . S
O266 Co242 2.062 . S
O266 C267 1.255 . S
C267 O265 1.256 . S
C267 O266 1.255 . S
H268 C247 0.931 . S
H269 C255 0.931 . S
Co270 N275 2.057 . S
Co270 O287 2.021 . S
Co270 O290 2.062 . S
Co270 O294 2.117 . S
Co270 O295 2.020 . S
C271 O291 1.259 . S
C271 O294 1.258 . S
Co272 N281 2.057 . S
Co272 O288 2.117 . S
Co272 O289 2.020 . S
Co272 O291 2.021 . S
Co272 O296 2.062 . S
C273 N275 1.316 . S
C273 N276 1.347 . S
C273 H278 0.931 . S
C274 N275 1.375 . S
C274 C277 1.350 . S
C274 H279 0.930 . S
N275 Co270 2.057 . S
N275 C273 1.316 . S
N275 C274 1.375 . S
N276 C273 1.347 . S
N276 C277 1.373 . S
C277 C274 1.350 . S
C277 N276 1.373 . S
C277 H298 0.931 . S
H278 C273 0.931 . S
H279 C274 0.930 . S
C280 O287 1.259 . S
C280 O288 1.258 . S
N281 Co272 2.057 . S
N281 C282 1.316 . S
N281 C283 1.375 . S
C282 N281 1.316 . S
C282 N284 1.347 1_655 S
C282 H293 0.931 . S
C283 N281 1.375 . S
C283 C285 1.350 1_655 S
C283 H292 0.930 . S
N284 C282 1.347 1_455 S
N284 C285 1.373 . S
C285 C283 1.350 1_455 S
C285 N284 1.373 . S
C285 H299 0.931 . S
C286 O289 1.256 . S
C286 O290 1.255 . S
O287 Co270 2.021 . S
O287 C280 1.259 . S
O288 Co272 2.117 . S
O288 C280 1.258 . S
O289 Co272 2.020 . S
O289 C286 1.256 . S
O290 Co270 2.062 . S
O290 C286 1.255 . S
O291 C271 1.259 . S
O291 Co272 2.021 . S
H292 C283 0.930 . S
H293 C282 0.931 . S
O294 Co270 2.117 . S
O294 C271 1.258 . S
O295 Co270 2.020 . S
O295 C297 1.256 . S
O296 Co272 2.062 . S
O296 C297 1.255 . S
C297 O295 1.256 . S
C297 O296 1.255 . S
H298 C277 0.931 . S
H299 C285 0.931 . S
Co300 N305 2.057 . S
Co300 O317 2.021 . S
Co300 O320 2.062 . S
Co300 O324 2.117 . S
Co300 O325 2.020 . S
C301 O321 1.259 . S
C301 O324 1.258 . S
Co302 N311 2.057 . S
Co302 O318 2.117 . S
Co302 O319 2.020 . S
Co302 O321 2.021 . S
Co302 O326 2.062 . S
C303 N305 1.316 . S
C303 N306 1.347 . S
C303 H308 0.931 . S
C304 N305 1.375 . S
C304 C307 1.350 . S
C304 H309 0.930 . S
N305 Co300 2.057 . S
N305 C303 1.316 . S
N305 C304 1.375 . S
N306 C303 1.347 . S
N306 C307 1.373 . S
C307 C304 1.350 . S
C307 N306 1.373 . S
C307 H328 0.931 . S
H308 C303 0.931 . S
H309 C304 0.930 . S
C310 O317 1.259 . S
C310 O318 1.258 . S
N311 Co302 2.057 . S
N311 C312 1.316 . S
N311 C313 1.375 . S
C312 N311 1.316 . S
C312 N314 1.347 . S
C312 H323 0.931 . S
C313 N311 1.375 . S
C313 C315 1.350 . S
C313 H322 0.930 . S
N314 C312 1.347 . S
N314 C315 1.373 . S
C315 C313 1.350 . S
C315 N314 1.373 . S
C315 H329 0.931 . S
C316 O319 1.256 . S
C316 O320 1.255 . S
O317 Co300 2.021 . S
O317 C310 1.259 . S
O318 Co302 2.117 . S
O318 C310 1.258 . S
O319 Co302 2.020 . S
O319 C316 1.256 . S
O320 Co300 2.062 . S
O320 C316 1.255 . S
O321 C301 1.259 . S
O321 Co302 2.021 . S
H322 C313 0.930 . S
H323 C312 0.931 . S
O324 Co300 2.117 . S
O324 C301 1.258 . S
O325 Co300 2.020 . S
O325 C327 1.256 . S
O326 Co302 2.062 . S
O326 C327 1.255 . S
C327 O325 1.256 . S
C327 O326 1.255 . S
H328 C307 0.931 . S
H329 C315 0.931 . S
Co330 N335 2.057 . S
Co330 O347 2.021 . S
Co330 O350 2.062 . S
Co330 O354 2.117 . S
Co330 O355 2.020 . S
C331 O351 1.259 . S
C331 O354 1.258 . S
Co332 N341 2.057 . S
Co332 O348 2.117 . S
Co332 O349 2.020 . S
Co332 O351 2.021 . S
Co332 O356 2.062 . S
C333 N335 1.316 . S
C333 N336 1.347 . S
C333 H338 0.931 . S
C334 N335 1.375 . S
C334 C337 1.350 . S
C334 H339 0.930 . S
N335 Co330 2.057 . S
N335 C333 1.316 . S
N335 C334 1.375 . S
N336 C333 1.347 . S
N336 C337 1.373 . S
C337 C334 1.350 . S
C337 N336 1.373 . S
C337 H358 0.931 . S
H338 C333 0.931 . S
H339 C334 0.930 . S
C340 O347 1.259 . S
C340 O348 1.258 . S
N341 Co332 2.057 . S
N341 C342 1.316 . S
N341 C343 1.375 . S
C342 N341 1.316 . S
C342 N344 1.347 1_655 S
C342 H353 0.931 . S
C343 N341 1.375 . S
C343 C345 1.350 1_655 S
C343 H352 0.930 . S
N344 C342 1.347 1_455 S
N344 C345 1.373 . S
C345 C343 1.350 1_455 S
C345 N344 1.373 . S
C345 H359 0.931 . S
C346 O349 1.256 . S
C346 O350 1.255 . S
O347 Co330 2.021 . S
O347 C340 1.259 . S
O348 Co332 2.117 . S
O348 C340 1.258 . S
O349 Co332 2.020 . S
O349 C346 1.256 . S
O350 Co330 2.062 . S
O350 C346 1.255 . S
O351 C331 1.259 . S
O351 Co332 2.021 . S
H352 C343 0.930 . S
H353 C342 0.931 . S
O354 Co330 2.117 . S
O354 C331 1.258 . S
O355 Co330 2.020 . S
O355 C357 1.256 . S
O356 Co332 2.062 . S
O356 C357 1.255 . S
C357 O355 1.256 . S
C357 O356 1.255 . S
H358 C337 0.931 . S
H359 C345 0.931 . S
Co360 N365 2.057 . S
Co360 O377 2.021 . S
Co360 O380 2.062 . S
Co360 O384 2.117 . S
Co360 O385 2.020 . S
C361 O381 1.259 . S
C361 O384 1.258 . S
Co362 N371 2.057 . S
Co362 O378 2.117 . S
Co362 O379 2.020 . S
Co362 O381 2.021 . S
Co362 O386 2.062 . S
C363 N365 1.316 . S
C363 N366 1.347 . S
C363 H368 0.931 . S
C364 N365 1.375 . S
C364 C367 1.350 . S
C364 H369 0.930 . S
N365 Co360 2.057 . S
N365 C363 1.316 . S
N365 C364 1.375 . S
N366 C363 1.347 . S
N366 C367 1.373 . S
C367 C364 1.350 . S
C367 N366 1.373 . S
C367 H388 0.931 . S
H368 C363 0.931 . S
H369 C364 0.930 . S
C370 O377 1.259 . S
C370 O378 1.258 . S
N371 Co362 2.057 . S
N371 C372 1.316 . S
N371 C373 1.375 . S
C372 N371 1.316 . S
C372 N374 1.347 . S
C372 H383 0.931 . S
C373 N371 1.375 . S
C373 C375 1.350 . S
C373 H382 0.930 . S
N374 C372 1.347 . S
N374 C375 1.373 . S
C375 C373 1.350 . S
C375 N374 1.373 . S
C375 H389 0.931 . S
C376 O379 1.256 . S
C376 O380 1.255 . S
O377 Co360 2.021 . S
O377 C370 1.259 . S
O378 Co362 2.117 . S
O378 C370 1.258 . S
O379 Co362 2.020 . S
O379 C376 1.256 . S
O380 Co360 2.062 . S
O380 C376 1.255 . S
O381 C361 1.259 . S
O381 Co362 2.021 . S
H382 C373 0.930 . S
H383 C372 0.931 . S
O384 Co360 2.117 . S
O384 C361 1.258 . S
O385 Co360 2.020 . S
O385 C387 1.256 . S
O386 Co362 2.062 . S
O386 C387 1.255 . S
C387 O385 1.256 . S
C387 O386 1.255 . S
H388 C367 0.931 . S
H389 C375 0.931 . S
Co390 N395 2.057 . S
Co390 O407 2.021 . S
Co390 O410 2.062 . S
Co390 O414 2.117 . S
Co390 O415 2.020 . S
C391 O411 1.259 . S
C391 O414 1.258 . S
Co392 N401 2.057 . S
Co392 O408 2.117 . S
Co392 O409 2.020 . S
Co392 O411 2.021 . S
Co392 O416 2.062 . S
C393 N395 1.316 . S
C393 N396 1.347 1_455 S
C393 H398 0.931 . S
C394 N395 1.375 . S
C394 C397 1.350 1_455 S
C394 H399 0.930 . S
N395 Co390 2.057 . S
N395 C393 1.316 . S
N395 C394 1.375 . S
N396 C393 1.347 1_655 S
N396 C397 1.373 . S
C397 C394 1.350 1_655 S
C397 N396 1.373 . S
C397 H418 0.931 . S
H398 C393 0.931 . S
H399 C394 0.930 . S
C400 O407 1.259 . S
C400 O408 1.258 . S
N401 Co392 2.057 . S
N401 C402 1.316 . S
N401 C403 1.375 . S
C402 N401 1.316 . S
C402 N404 1.347 . S
C402 H413 0.931 . S
C403 N401 1.375 . S
C403 C405 1.350 . S
C403 H412 0.930 . S
N404 C402 1.347 . S
N404 C405 1.373 . S
C405 C403 1.350 . S
C405 N404 1.373 . S
C405 H419 0.931 . S
C406 O409 1.256 . S
C406 O410 1.255 . S
O407 Co390 2.021 . S
O407 C400 1.259 . S
O408 Co392 2.117 . S
O408 C400 1.258 . S
O409 Co392 2.020 . S
O409 C406 1.256 . S
O410 Co390 2.062 . S
O410 C406 1.255 . S
O411 C391 1.259 . S
O411 Co392 2.021 . S
H412 C403 0.930 . S
H413 C402 0.931 . S
O414 Co390 2.117 . S
O414 C391 1.258 . S
O415 Co390 2.020 . S
O415 C417 1.256 . S
O416 Co392 2.062 . S
O416 C417 1.255 . S
C417 O415 1.256 . S
C417 O416 1.255 . S
H418 C397 0.931 . S
H419 C405 0.931 . S
Co420 N425 2.057 . S
Co420 O437 2.021 . S
Co420 O440 2.062 . S
Co420 O444 2.117 . S
Co420 O445 2.020 . S
C421 O441 1.259 . S
C421 O444 1.258 . S
Co422 N431 2.057 . S
Co422 O438 2.117 . S
Co422 O439 2.020 . S
Co422 O441 2.021 . S
Co422 O446 2.062 . S
C423 N425 1.316 . S
C423 N426 1.347 . S
C423 H428 0.931 . S
C424 N425 1.375 . S
C424 C427 1.350 . S
C424 H429 0.930 . S
N425 Co420 2.057 . S
N425 C423 1.316 . S
N425 C424 1.375 . S
N426 C423 1.347 . S
N426 C427 1.373 . S
C427 C424 1.350 . S
C427 N426 1.373 . S
C427 H448 0.931 . S
H428 C423 0.931 . S
H429 C424 0.930 . S
C430 O437 1.259 . S
C430 O438 1.258 . S
N431 Co422 2.057 . S
N431 C432 1.316 . S
N431 C433 1.375 . S
C432 N431 1.316 . S
C432 N434 1.347 . S
C432 H443 0.931 . S
C433 N431 1.375 . S
C433 C435 1.350 . S
C433 H442 0.930 . S
N434 C432 1.347 . S
N434 C435 1.373 . S
C435 C433 1.350 . S
C435 N434 1.373 . S
C435 H449 0.931 . S
C436 O439 1.256 . S
C436 O440 1.255 . S
O437 Co420 2.021 . S
O437 C430 1.259 . S
O438 Co422 2.117 . S
O438 C430 1.258 . S
O439 Co422 2.020 . S
O439 C436 1.256 . S
O440 Co420 2.062 . S
O440 C436 1.255 . S
O441 C421 1.259 . S
O441 Co422 2.021 . S
H442 C433 0.930 . S
H443 C432 0.931 . S
O444 Co420 2.117 . S
O444 C421 1.258 . S
O445 Co420 2.020 . S
O445 C447 1.256 . S
O446 Co422 2.062 . S
O446 C447 1.255 . S
C447 O445 1.256 . S
C447 O446 1.255 . S
H448 C427 0.931 . S
H449 C435 0.931 . S
Co450 N455 2.057 . S
Co450 O467 2.021 . S
Co450 O470 2.062 . S
Co450 O474 2.117 . S
Co450 O475 2.020 . S
C451 O471 1.259 . S
C451 O474 1.258 . S
Co452 N461 2.057 . S
Co452 O468 2.117 . S
Co452 O469 2.020 . S
Co452 O471 2.021 . S
Co452 O476 2.062 . S
C453 N455 1.316 . S
C453 N456 1.347 1_455 S
C453 H458 0.931 . S
C454 N455 1.375 . S
C454 C457 1.350 1_455 S
C454 H459 0.930 . S
N455 Co450 2.057 . S
N455 C453 1.316 . S
N455 C454 1.375 . S
N456 C453 1.347 1_655 S
N456 C457 1.373 . S
C457 C454 1.350 1_655 S
C457 N456 1.373 . S
C457 H478 0.931 . S
H458 C453 0.931 . S
H459 C454 0.930 . S
C460 O467 1.259 . S
C460 O468 1.258 . S
N461 Co452 2.057 . S
N461 C462 1.316 . S
N461 C463 1.375 . S
C462 N461 1.316 . S
C462 N464 1.347 . S
C462 H473 0.931 . S
C463 N461 1.375 . S
C463 C465 1.350 . S
C463 H472 0.930 . S
N464 C462 1.347 . S
N464 C465 1.373 . S
C465 C463 1.350 . S
C465 N464 1.373 . S
C465 H479 0.931 . S
C466 O469 1.256 . S
C466 O470 1.255 . S
O467 Co450 2.021 . S
O467 C460 1.259 . S
O468 Co452 2.117 . S
O468 C460 1.258 . S
O469 Co452 2.020 . S
O469 C466 1.256 . S
O470 Co450 2.062 . S
O470 C466 1.255 . S
O471 C451 1.259 . S
O471 Co452 2.021 . S
H472 C463 0.930 . S
H473 C462 0.931 . S
O474 Co450 2.117 . S
O474 C451 1.258 . S
O475 Co450 2.020 . S
O475 C477 1.256 . S
O476 Co452 2.062 . S
O476 C477 1.255 . S
C477 O475 1.256 . S
C477 O476 1.255 . S
H478 C457 0.931 . S
H479 C465 0.931 . S
Co480 N485 2.055 1_545 S
Co480 O497 2.021 . S
Co480 O500 2.062 . S
Co480 O504 2.117 1_545 S
Co480 O505 2.020 . S
C481 O501 1.259 . S
C481 O504 1.258 . S
Co482 N491 2.057 1_565 S
Co482 O498 2.117 1_565 S
Co482 O499 2.020 . S
Co482 O501 2.021 . S
Co482 O506 2.062 1_565 S
C483 N485 1.308 1_545 S
C483 N486 1.347 . S
C483 H488 0.931 . S
C484 N485 1.385 . S
C484 C487 1.350 . S
C484 H489 0.930 . S
N485 Co480 2.055 1_565 S
N485 C483 1.308 1_565 S
N485 C484 1.385 . S
N486 C483 1.347 . S
N486 C487 1.373 1_545 S
C487 C484 1.350 . S
C487 N486 1.373 1_565 S
C487 H508 0.931 . S
H488 C483 0.931 . S
H489 C484 0.930 . S
C490 O497 1.259 . S
C490 O498 1.258 . S
N491 Co482 2.057 1_545 S
N491 C492 1.316 1_545 S
N491 C493 1.375 . S
C492 N491 1.316 1_565 S
C492 N494 1.363 . S
C492 H503 0.931 . S
C493 N491 1.375 . S
C493 C495 1.350 . S
C493 H502 0.930 . S
N494 C492 1.363 . S
N494 C495 1.339 1_565 S
C495 C493 1.350 . S
C495 N494 1.339 1_545 S
C495 H509 0.931 . S
C496 O499 1.256 . S
C496 O500 1.255 1_565 S
O497 Co480 2.021 . S
O497 C490 1.259 . S
O498 Co482 2.117 1_545 S
O498 C490 1.258 . S
O499 Co482 2.020 . S
O499 C496 1.256 . S
O500 Co480 2.062 . S
O500 C496 1.255 1_545 S
O501 C481 1.259 . S
O501 Co482 2.021 . S
H502 C493 0.930 . S
H503 C492 0.931 . S
O504 Co480 2.117 1_565 S
O504 C481 1.258 . S
O505 Co480 2.020 . S
O505 C507 1.256 . S
O506 Co482 2.062 1_545 S
O506 C507 1.255 . S
C507 O505 1.256 . S
C507 O506 1.255 . S
H508 C487 0.931 . S
H509 C495 0.931 . S
Co510 N515 2.057 . S
Co510 O527 2.021 . S
Co510 O530 2.062 . S
Co510 O534 2.117 . S
Co510 O535 2.020 . S
C511 O531 1.259 . S
C511 O534 1.258 . S
Co512 N521 2.057 . S
Co512 O528 2.117 . S
Co512 O529 2.020 . S
Co512 O531 2.021 . S
Co512 O536 2.062 . S
C513 N515 1.316 . S
C513 N516 1.347 . S
C513 H518 0.931 . S
C514 N515 1.375 . S
C514 C517 1.350 . S
C514 H519 0.930 . S
N515 Co510 2.057 . S
N515 C513 1.316 . S
N515 C514 1.375 . S
N516 C513 1.347 . S
N516 C517 1.373 . S
C517 C514 1.350 . S
C517 N516 1.373 . S
C517 H538 0.931 . S
H518 C513 0.931 . S
H519 C514 0.930 . S
C520 O527 1.259 . S
C520 O528 1.258 . S
N521 Co512 2.057 . S
N521 C522 1.316 . S
N521 C523 1.375 . S
C522 N521 1.316 . S
C522 N524 1.347 . S
C522 H533 0.931 . S
C523 N521 1.375 . S
C523 C525 1.350 . S
C523 H532 0.930 . S
N524 C522 1.347 . S
N524 C525 1.373 . S
C525 C523 1.350 . S
C525 N524 1.373 . S
C525 H539 0.931 . S
C526 O529 1.256 . S
C526 O530 1.255 . S
O527 Co510 2.021 . S
O527 C520 1.259 . S
O528 Co512 2.117 . S
O528 C520 1.258 . S
O529 Co512 2.020 . S
O529 C526 1.256 . S
O530 Co510 2.062 . S
O530 C526 1.255 . S
O531 C511 1.259 . S
O531 Co512 2.021 . S
H532 C523 0.930 . S
H533 C522 0.931 . S
O534 Co510 2.117 . S
O534 C511 1.258 . S
O535 Co510 2.020 . S
O535 C537 1.256 . S
O536 Co512 2.062 . S
O536 C537 1.255 . S
C537 O535 1.256 . S
C537 O536 1.255 . S
H538 C517 0.931 . S
H539 C525 0.931 . S
Co540 N545 2.057 . S
Co540 O557 2.021 . S
Co540 O560 2.062 . S
Co540 O564 2.117 . S
Co540 O565 2.020 . S
C541 O561 1.259 . S
C541 O564 1.258 . S
Co542 N551 2.057 . S
Co542 O558 2.117 . S
Co542 O559 2.020 . S
Co542 O561 2.021 . S
Co542 O566 2.062 . S
C543 N545 1.316 . S
C543 N546 1.347 . S
C543 H548 0.931 . S
C544 N545 1.375 . S
C544 C547 1.350 . S
C544 H549 0.930 . S
N545 Co540 2.057 . S
N545 C543 1.316 . S
N545 C544 1.375 . S
N546 C543 1.347 . S
N546 C547 1.373 . S
C547 C544 1.350 . S
C547 N546 1.373 . S
C547 H568 0.931 . S
H548 C543 0.931 . S
H549 C544 0.930 . S
C550 O557 1.259 . S
C550 O558 1.258 . S
N551 Co542 2.057 . S
N551 C552 1.316 . S
N551 C553 1.375 . S
C552 N551 1.316 . S
C552 N554 1.347 . S
C552 H563 0.931 . S
C553 N551 1.375 . S
C553 C555 1.350 . S
C553 H562 0.930 . S
N554 C552 1.347 . S
N554 C555 1.373 . S
C555 C553 1.350 . S
C555 N554 1.373 . S
C555 H569 0.931 . S
C556 O559 1.256 . S
C556 O560 1.255 . S
O557 Co540 2.021 . S
O557 C550 1.259 . S
O558 Co542 2.117 . S
O558 C550 1.258 . S
O559 Co542 2.020 . S
O559 C556 1.256 . S
O560 Co540 2.062 . S
O560 C556 1.255 . S
O561 C541 1.259 . S
O561 Co542 2.021 . S
H562 C553 0.930 . S
H563 C552 0.931 . S
O564 Co540 2.117 . S
O564 C541 1.258 . S
O565 Co540 2.020 . S
O565 C567 1.256 . S
O566 Co542 2.062 . S
O566 C567 1.255 . S
C567 O565 1.256 . S
C567 O566 1.255 . S
H568 C547 0.931 . S
H569 C555 0.931 . S
Co570 N575 2.055 1_545 S
Co570 O587 2.021 . S
Co570 O590 2.062 . S
Co570 O594 2.117 1_545 S
Co570 O595 2.020 . S
C571 O591 1.259 . S
C571 O594 1.258 . S
Co572 N581 2.057 1_565 S
Co572 O588 2.117 1_565 S
Co572 O589 2.020 . S
Co572 O591 2.021 . S
Co572 O596 2.062 1_565 S
C573 N575 1.308 1_545 S
C573 N576 1.347 . S
C573 H578 0.931 . S
C574 N575 1.386 . S
C574 C577 1.350 . S
C574 H579 0.930 . S
N575 Co570 2.055 1_565 S
N575 C573 1.308 1_565 S
N575 C574 1.386 . S
N576 C573 1.347 . S
N576 C577 1.373 1_545 S
C577 C574 1.350 . S
C577 N576 1.373 1_565 S
C577 H598 0.931 . S
H578 C573 0.931 . S
H579 C574 0.930 . S
C580 O587 1.259 . S
C580 O588 1.258 . S
N581 Co572 2.057 1_545 S
N581 C582 1.316 1_545 S
N581 C583 1.375 . S
C582 N581 1.316 1_565 S
C582 N584 1.363 . S
C582 H593 0.931 . S
C583 N581 1.375 . S
C583 C585 1.350 . S
C583 H592 0.930 . S
N584 C582 1.363 . S
N584 C585 1.339 1_565 S
C585 C583 1.350 . S
C585 N584 1.339 1_545 S
C585 H599 0.931 . S
C586 O589 1.256 . S
C586 O590 1.255 1_565 S
O587 Co570 2.021 . S
O587 C580 1.259 . S
O588 Co572 2.117 1_545 S
O588 C580 1.258 . S
O589 Co572 2.020 . S
O589 C586 1.256 . S
O590 Co570 2.062 . S
O590 C586 1.255 1_545 S
O591 C571 1.259 . S
O591 Co572 2.021 . S
H592 C583 0.930 . S
H593 C582 0.931 . S
O594 Co570 2.117 1_565 S
O594 C571 1.258 . S
O595 Co570 2.020 . S
O595 C597 1.256 . S
O596 Co572 2.062 1_545 S
O596 C597 1.255 . S
C597 O595 1.256 . S
C597 O596 1.255 . S
H598 C577 0.931 . S
H599 C585 0.931 . S
Co600 N605 2.057 1_545 S
Co600 O617 2.021 . S
Co600 O620 2.062 1_545 S
Co600 O624 2.117 1_545 S
Co600 O625 2.020 . S
C601 O621 1.259 . S
C601 O624 1.258 . S
Co602 N611 2.055 1_565 S
Co602 O618 2.117 1_565 S
Co602 O619 2.020 . S
Co602 O621 2.021 . S
Co602 O626 2.062 . S
C603 N605 1.316 1_545 S
C603 N606 1.363 . S
C603 H608 0.931 . S
C604 N605 1.375 . S
C604 C607 1.350 . S
C604 H609 0.930 . S
N605 Co600 2.057 1_565 S
N605 C603 1.316 1_565 S
N605 C604 1.375 . S
N606 C603 1.363 . S
N606 C607 1.339 1_545 S
C607 C604 1.350 . S
C607 N606 1.339 1_565 S
C607 H628 0.931 . S
H608 C603 0.931 . S
H609 C604 0.930 . S
C610 O617 1.259 . S
C610 O618 1.258 . S
N611 Co602 2.055 1_545 S
N611 C612 1.308 1_545 S
N611 C613 1.385 . S
C612 N611 1.308 1_565 S
C612 N614 1.347 . S
C612 H623 0.931 . S
C613 N611 1.385 . S
C613 C615 1.350 . S
C613 H622 0.930 . S
N614 C612 1.347 . S
N614 C615 1.373 1_565 S
C615 C613 1.350 . S
C615 N614 1.373 1_545 S
C615 H629 0.931 . S
C616 O619 1.256 . S
C616 O620 1.255 . S
O617 Co600 2.021 . S
O617 C610 1.259 . S
O618 Co602 2.117 1_545 S
O618 C610 1.258 . S
O619 Co602 2.020 . S
O619 C616 1.256 . S
O620 Co600 2.062 1_565 S
O620 C616 1.255 . S
O621 C601 1.259 . S
O621 Co602 2.021 . S
H622 C613 0.930 . S
H623 C612 0.931 . S
O624 Co600 2.117 1_565 S
O624 C601 1.258 . S
O625 Co600 2.020 . S
O625 C627 1.256 . S
O626 Co602 2.062 . S
O626 C627 1.255 1_565 S
C627 O625 1.256 . S
C627 O626 1.255 1_545 S
H628 C607 0.931 . S
H629 C615 0.931 . S
Co630 N635 2.057 . S
Co630 O647 2.021 . S
Co630 O650 2.062 . S
Co630 O654 2.117 . S
Co630 O655 2.020 . S
C631 O651 1.259 . S
C631 O654 1.258 . S
Co632 N641 2.057 . S
Co632 O648 2.117 . S
Co632 O649 2.020 . S
Co632 O651 2.021 . S
Co632 O656 2.062 . S
C633 N635 1.316 . S
C633 N636 1.347 . S
C633 H638 0.931 . S
C634 N635 1.375 . S
C634 C637 1.350 . S
C634 H639 0.930 . S
N635 Co630 2.057 . S
N635 C633 1.316 . S
N635 C634 1.375 . S
N636 C633 1.347 . S
N636 C637 1.373 . S
C637 C634 1.350 . S
C637 N636 1.373 . S
C637 H658 0.931 . S
H638 C633 0.931 . S
H639 C634 0.930 . S
C640 O647 1.259 . S
C640 O648 1.258 . S
N641 Co632 2.057 . S
N641 C642 1.316 . S
N641 C643 1.375 . S
C642 N641 1.316 . S
C642 N644 1.347 . S
C642 H653 0.931 . S
C643 N641 1.375 . S
C643 C645 1.350 . S
C643 H652 0.930 . S
N644 C642 1.347 . S
N644 C645 1.373 . S
C645 C643 1.350 . S
C645 N644 1.373 . S
C645 H659 0.931 . S
C646 O649 1.256 . S
C646 O650 1.255 . S
O647 Co630 2.021 . S
O647 C640 1.259 . S
O648 Co632 2.117 . S
O648 C640 1.258 . S
O649 Co632 2.020 . S
O649 C646 1.256 . S
O650 Co630 2.062 . S
O650 C646 1.255 . S
O651 C631 1.259 . S
O651 Co632 2.021 . S
H652 C643 0.930 . S
H653 C642 0.931 . S
O654 Co630 2.117 . S
O654 C631 1.258 . S
O655 Co630 2.020 . S
O655 C657 1.256 . S
O656 Co632 2.062 . S
O656 C657 1.255 . S
C657 O655 1.256 . S
C657 O656 1.255 . S
H658 C637 0.931 . S
H659 C645 0.931 . S
Co660 N665 2.057 . S
Co660 O677 2.021 . S
Co660 O680 2.062 . S
Co660 O684 2.117 . S
Co660 O685 2.020 . S
C661 O681 1.259 . S
C661 O684 1.258 . S
Co662 N671 2.057 . S
Co662 O678 2.117 . S
Co662 O679 2.020 . S
Co662 O681 2.021 . S
Co662 O686 2.062 . S
C663 N665 1.316 . S
C663 N666 1.347 . S
C663 H668 0.931 . S
C664 N665 1.375 . S
C664 C667 1.350 . S
C664 H669 0.930 . S
N665 Co660 2.057 . S
N665 C663 1.316 . S
N665 C664 1.375 . S
N666 C663 1.347 . S
N666 C667 1.373 . S
C667 C664 1.350 . S
C667 N666 1.373 . S
C667 H688 0.931 . S
H668 C663 0.931 . S
H669 C664 0.930 . S
C670 O677 1.259 . S
C670 O678 1.258 . S
N671 Co662 2.057 . S
N671 C672 1.316 . S
N671 C673 1.375 . S
C672 N671 1.316 . S
C672 N674 1.347 . S
C672 H683 0.931 . S
C673 N671 1.375 . S
C673 C675 1.350 . S
C673 H682 0.930 . S
N674 C672 1.347 . S
N674 C675 1.373 . S
C675 C673 1.350 . S
C675 N674 1.373 . S
C675 H689 0.931 . S
C676 O679 1.256 . S
C676 O680 1.255 . S
O677 Co660 2.021 . S
O677 C670 1.259 . S
O678 Co662 2.117 . S
O678 C670 1.258 . S
O679 Co662 2.020 . S
O679 C676 1.256 . S
O680 Co660 2.062 . S
O680 C676 1.255 . S
O681 C661 1.259 . S
O681 Co662 2.021 . S
H682 C673 0.930 . S
H683 C672 0.931 . S
O684 Co660 2.117 . S
O684 C661 1.258 . S
O685 Co660 2.020 . S
O685 C687 1.256 . S
O686 Co662 2.062 . S
O686 C687 1.255 . S
C687 O685 1.256 . S
C687 O686 1.255 . S
H688 C667 0.931 . S
H689 C675 0.931 . S
Co690 N695 2.057 1_545 S
Co690 O707 2.021 . S
Co690 O710 2.062 1_545 S
Co690 O714 2.117 1_545 S
Co690 O715 2.020 . S
C691 O711 1.259 . S
C691 O714 1.258 . S
Co692 N701 2.055 1_565 S
Co692 O708 2.117 1_565 S
Co692 O709 2.020 . S
Co692 O711 2.021 . S
Co692 O716 2.062 . S
C693 N695 1.316 1_545 S
C693 N696 1.363 . S
C693 H698 0.931 . S
C694 N695 1.375 . S
C694 C697 1.350 . S
C694 H699 0.930 . S
N695 Co690 2.057 1_565 S
N695 C693 1.316 1_565 S
N695 C694 1.375 . S
N696 C693 1.363 . S
N696 C697 1.339 1_545 S
C697 C694 1.350 . S
C697 N696 1.339 1_565 S
C697 H718 0.931 . S
H698 C693 0.931 . S
H699 C694 0.930 . S
C700 O707 1.259 . S
C700 O708 1.258 . S
N701 Co692 2.055 1_545 S
N701 C702 1.308 1_545 S
N701 C703 1.386 . S
C702 N701 1.308 1_565 S
C702 N704 1.347 . S
C702 H713 0.931 . S
C703 N701 1.386 . S
C703 C705 1.350 . S
C703 H712 0.930 . S
N704 C702 1.347 . S
N704 C705 1.373 1_565 S
C705 C703 1.350 . S
C705 N704 1.373 1_545 S
C705 H719 0.931 . S
C706 O709 1.256 . S
C706 O710 1.255 . S
O707 Co690 2.021 . S
O707 C700 1.259 . S
O708 Co692 2.117 1_545 S
O708 C700 1.258 . S
O709 Co692 2.020 . S
O709 C706 1.256 . S
O710 Co690 2.062 1_565 S
O710 C706 1.255 . S
O711 C691 1.259 . S
O711 Co692 2.021 . S
H712 C703 0.930 . S
H713 C702 0.931 . S
O714 Co690 2.117 1_565 S
O714 C691 1.258 . S
O715 Co690 2.020 . S
O715 C717 1.256 . S
O716 Co692 2.062 . S
O716 C717 1.255 1_565 S
C717 O715 1.256 . S
C717 O716 1.255 1_545 S
H718 C697 0.931 . S
H719 C705 0.931 . S
Co720 N725 2.057 . S
Co720 O737 2.021 . S
Co720 O740 2.062 . S
Co720 O744 2.117 . S
Co720 O745 2.020 . S
C721 O741 1.259 . S
C721 O744 1.258 . S
Co722 N731 2.057 . S
Co722 O738 2.117 . S
Co722 O739 2.020 . S
Co722 O741 2.021 . S
Co722 O746 2.049 1_554 S
C723 N725 1.316 . S
C723 N726 1.347 . S
C723 H728 0.931 . S
C724 N725 1.375 . S
C724 C727 1.350 . S
C724 H729 0.930 . S
N725 Co720 2.057 . S
N725 C723 1.316 . S
N725 C724 1.375 . S
N726 C723 1.347 . S
N726 C727 1.373 . S
C727 C724 1.350 . S
C727 N726 1.373 . S
C727 H748 0.931 . S
H728 C723 0.931 . S
H729 C724 0.930 . S
C730 O737 1.259 . S
C730 O738 1.258 . S
N731 Co722 2.057 . S
N731 C732 1.316 1_554 S
N731 C733 1.375 . S
C732 N731 1.316 1_556 S
C732 N734 1.347 . S
C732 H743 0.931 . S
C733 N731 1.375 . S
C733 C735 1.350 1_554 S
C733 H742 0.930 . S
N734 C732 1.347 . S
N734 C735 1.373 . S
C735 C733 1.350 1_556 S
C735 N734 1.373 . S
C735 H749 0.931 . S
C736 O739 1.256 . S
C736 O740 1.255 . S
O737 Co720 2.021 . S
O737 C730 1.259 . S
O738 Co722 2.117 . S
O738 C730 1.258 . S
O739 Co722 2.020 . S
O739 C736 1.256 . S
O740 Co720 2.062 . S
O740 C736 1.255 . S
O741 C721 1.259 . S
O741 Co722 2.021 . S
H742 C733 0.930 . S
H743 C732 0.931 . S
O744 Co720 2.117 . S
O744 C721 1.258 . S
O745 Co720 2.020 . S
O745 C747 1.256 1_554 S
O746 Co722 2.049 1_556 S
O746 C747 1.255 . S
C747 O745 1.256 1_556 S
C747 O746 1.255 . S
H748 C727 0.931 . S
H749 C735 0.931 . S
Co750 N755 2.057 . S
Co750 O767 2.021 . S
Co750 O770 2.062 . S
Co750 O774 2.117 . S
Co750 O775 2.020 . S
C751 O771 1.259 . S
C751 O774 1.258 . S
Co752 N761 2.057 . S
Co752 O768 2.117 . S
Co752 O769 2.020 . S
Co752 O771 2.021 . S
Co752 O776 2.049 1_554 S
C753 N755 1.316 . S
C753 N756 1.347 . S
C753 H758 0.931 . S
C754 N755 1.375 . S
C754 C757 1.350 . S
C754 H759 0.930 . S
N755 Co750 2.057 . S
N755 C753 1.316 . S
N755 C754 1.375 . S
N756 C753 1.347 . S
N756 C757 1.373 . S
C757 C754 1.350 . S
C757 N756 1.373 . S
C757 H778 0.931 . S
H758 C753 0.931 . S
H759 C754 0.930 . S
C760 O767 1.259 . S
C760 O768 1.258 . S
N761 Co752 2.057 . S
N761 C762 1.316 1_554 S
N761 C763 1.375 . S
C762 N761 1.316 1_556 S
C762 N764 1.347 . S
C762 H773 0.931 . S
C763 N761 1.375 . S
C763 C765 1.350 1_554 S
C763 H772 0.930 . S
N764 C762 1.347 . S
N764 C765 1.373 . S
C765 C763 1.350 1_556 S
C765 N764 1.373 . S
C765 H779 0.931 . S
C766 O769 1.256 . S
C766 O770 1.255 . S
O767 Co750 2.021 . S
O767 C760 1.259 . S
O768 Co752 2.117 . S
O768 C760 1.258 . S
O769 Co752 2.020 . S
O769 C766 1.256 . S
O770 Co750 2.062 . S
O770 C766 1.255 . S
O771 C751 1.259 . S
O771 Co752 2.021 . S
H772 C763 0.930 . S
H773 C762 0.931 . S
O774 Co750 2.117 . S
O774 C751 1.258 . S
O775 Co750 2.020 . S
O775 C777 1.256 1_554 S
O776 Co752 2.049 1_556 S
O776 C777 1.255 . S
C777 O775 1.256 1_556 S
C777 O776 1.255 . S
H778 C757 0.931 . S
H779 C765 0.931 . S
Co780 N785 2.057 . S
Co780 O797 2.021 . S
Co780 O800 2.062 . S
Co780 O804 2.117 . S
Co780 O805 2.020 . S
C781 O801 1.259 . S
C781 O804 1.258 . S
Co782 N791 2.057 . S
Co782 O798 2.117 . S
Co782 O799 2.020 . S
Co782 O801 2.021 . S
Co782 O806 2.062 . S
C783 N785 1.316 . S
C783 N786 1.347 . S
C783 H788 0.931 . S
C784 N785 1.375 . S
C784 C787 1.350 . S
C784 H789 0.930 . S
N785 Co780 2.057 . S
N785 C783 1.316 . S
N785 C784 1.375 . S
N786 C783 1.347 . S
N786 C787 1.373 . S
C787 C784 1.350 . S
C787 N786 1.373 . S
C787 H808 0.931 . S
H788 C783 0.931 . S
H789 C784 0.930 . S
C790 O797 1.259 . S
C790 O798 1.258 . S
N791 Co782 2.057 . S
N791 C792 1.316 . S
N791 C793 1.375 . S
C792 N791 1.316 . S
C792 N794 1.347 . S
C792 H803 0.931 . S
C793 N791 1.375 . S
C793 C795 1.350 . S
C793 H802 0.930 . S
N794 C792 1.347 . S
N794 C795 1.373 . S
C795 C793 1.350 . S
C795 N794 1.373 . S
C795 H809 0.931 . S
C796 O799 1.256 . S
C796 O800 1.255 . S
O797 Co780 2.021 . S
O797 C790 1.259 . S
O798 Co782 2.117 . S
O798 C790 1.258 . S
O799 Co782 2.020 . S
O799 C796 1.256 . S
O800 Co780 2.062 . S
O800 C796 1.255 . S
O801 C781 1.259 . S
O801 Co782 2.021 . S
H802 C793 0.930 . S
H803 C792 0.931 . S
O804 Co780 2.117 . S
O804 C781 1.258 . S
O805 Co780 2.020 . S
O805 C807 1.256 . S
O806 Co782 2.062 . S
O806 C807 1.255 . S
C807 O805 1.256 . S
C807 O806 1.255 . S
H808 C787 0.931 . S
H809 C795 0.931 . S
Co810 N815 2.057 . S
Co810 O827 2.021 . S
Co810 O830 2.062 . S
Co810 O834 2.117 . S
Co810 O835 2.020 . S
C811 O831 1.259 . S
C811 O834 1.258 . S
Co812 N821 2.057 . S
Co812 O828 2.117 . S
Co812 O829 2.020 . S
Co812 O831 2.021 . S
Co812 O836 2.062 . S
C813 N815 1.316 . S
C813 N816 1.347 . S
C813 H818 0.931 . S
C814 N815 1.375 . S
C814 C817 1.350 . S
C814 H819 0.930 . S
N815 Co810 2.057 . S
N815 C813 1.316 . S
N815 C814 1.375 . S
N816 C813 1.347 . S
N816 C817 1.373 . S
C817 C814 1.350 . S
C817 N816 1.373 . S
C817 H838 0.931 . S
H818 C813 0.931 . S
H819 C814 0.930 . S
C820 O827 1.259 . S
C820 O828 1.258 . S
N821 Co812 2.057 . S
N821 C822 1.316 . S
N821 C823 1.375 . S
C822 N821 1.316 . S
C822 N824 1.347 . S
C822 H833 0.931 . S
C823 N821 1.375 . S
C823 C825 1.350 . S
C823 H832 0.930 . S
N824 C822 1.347 . S
N824 C825 1.373 . S
C825 C823 1.350 . S
C825 N824 1.373 . S
C825 H839 0.931 . S
C826 O829 1.256 . S
C826 O830 1.255 . S
O827 Co810 2.021 . S
O827 C820 1.259 . S
O828 Co812 2.117 . S
O828 C820 1.258 . S
O829 Co812 2.020 . S
O829 C826 1.256 . S
O830 Co810 2.062 . S
O830 C826 1.255 . S
O831 C811 1.259 . S
O831 Co812 2.021 . S
H832 C823 0.930 . S
H833 C822 0.931 . S
O834 Co810 2.117 . S
O834 C811 1.258 . S
O835 Co810 2.020 . S
O835 C837 1.256 . S
O836 Co812 2.062 . S
O836 C837 1.255 . S
C837 O835 1.256 . S
C837 O836 1.255 . S
H838 C817 0.931 . S
H839 C825 0.931 . S
Co840 N845 2.057 . S
Co840 O857 2.021 . S
Co840 O860 2.049 1_556 S
Co840 O864 2.117 . S
Co840 O865 2.020 . S
C841 O861 1.259 . S
C841 O864 1.258 . S
Co842 N851 2.057 . S
Co842 O858 2.117 . S
Co842 O859 2.020 . S
Co842 O861 2.021 . S
Co842 O866 2.062 . S
C843 N845 1.316 1_554 S
C843 N846 1.347 . S
C843 H848 0.931 . S
C844 N845 1.375 . S
C844 C847 1.350 1_556 S
C844 H849 0.930 . S
N845 Co840 2.057 . S
N845 C843 1.316 1_556 S
N845 C844 1.375 . S
N846 C843 1.347 . S
N846 C847 1.373 . S
C847 C844 1.350 1_554 S
C847 N846 1.373 . S
C847 H868 0.931 . S
H848 C843 0.931 . S
H849 C844 0.930 . S
C850 O857 1.259 . S
C850 O858 1.258 . S
N851 Co842 2.057 . S
N851 C852 1.316 . S
N851 C853 1.375 . S
C852 N851 1.316 . S
C852 N854 1.347 . S
C852 H863 0.931 . S
C853 N851 1.375 . S
C853 C855 1.350 . S
C853 H862 0.930 . S
N854 C852 1.347 . S
N854 C855 1.373 . S
C855 C853 1.350 . S
C855 N854 1.373 . S
C855 H869 0.931 . S
C856 O859 1.256 1_554 S
C856 O860 1.255 . S
O857 Co840 2.021 . S
O857 C850 1.259 . S
O858 Co842 2.117 . S
O858 C850 1.258 . S
O859 Co842 2.020 . S
O859 C856 1.256 1_556 S
O860 Co840 2.049 1_554 S
O860 C856 1.255 . S
O861 C841 1.259 . S
O861 Co842 2.021 . S
H862 C853 0.930 . S
H863 C852 0.931 . S
O864 Co840 2.117 . S
O864 C841 1.258 . S
O865 Co840 2.020 . S
O865 C867 1.256 . S
O866 Co842 2.062 . S
O866 C867 1.255 . S
C867 O865 1.256 . S
C867 O866 1.255 . S
H868 C847 0.931 . S
H869 C855 0.931 . S
Co870 N875 2.057 . S
Co870 O887 2.021 . S
Co870 O890 2.049 1_556 S
Co870 O894 2.117 . S
Co870 O895 2.020 . S
C871 O891 1.259 . S
C871 O894 1.258 . S
Co872 N881 2.057 . S
Co872 O888 2.117 . S
Co872 O889 2.020 . S
Co872 O891 2.021 . S
Co872 O896 2.062 . S
C873 N875 1.316 1_554 S
C873 N876 1.347 . S
C873 H878 0.931 . S
C874 N875 1.375 . S
C874 C877 1.350 1_556 S
C874 H879 0.930 . S
N875 Co870 2.057 . S
N875 C873 1.316 1_556 S
N875 C874 1.375 . S
N876 C873 1.347 . S
N876 C877 1.373 . S
C877 C874 1.350 1_554 S
C877 N876 1.373 . S
C877 H898 0.931 . S
H878 C873 0.931 . S
H879 C874 0.930 . S
C880 O887 1.259 . S
C880 O888 1.258 . S
N881 Co872 2.057 . S
N881 C882 1.316 . S
N881 C883 1.375 . S
C882 N881 1.316 . S
C882 N884 1.347 . S
C882 H893 0.931 . S
C883 N881 1.375 . S
C883 C885 1.350 . S
C883 H892 0.930 . S
N884 C882 1.347 . S
N884 C885 1.373 . S
C885 C883 1.350 . S
C885 N884 1.373 . S
C885 H899 0.931 . S
C886 O889 1.256 1_554 S
C886 O890 1.255 . S
O887 Co870 2.021 . S
O887 C880 1.259 . S
O888 Co872 2.117 . S
O888 C880 1.258 . S
O889 Co872 2.020 . S
O889 C886 1.256 1_556 S
O890 Co870 2.049 1_554 S
O890 C886 1.255 . S
O891 C871 1.259 . S
O891 Co872 2.021 . S
H892 C883 0.930 . S
H893 C882 0.931 . S
O894 Co870 2.117 . S
O894 C871 1.258 . S
O895 Co870 2.020 . S
O895 C897 1.256 . S
O896 Co872 2.062 . S
O896 C897 1.255 . S
C897 O895 1.256 . S
C897 O896 1.255 . S
H898 C877 0.931 . S
H899 C885 0.931 . S
Co900 N905 2.057 . S
Co900 O917 2.021 . S
Co900 O920 2.062 . S
Co900 O924 2.117 . S
Co900 O925 2.020 . S
C901 O921 1.259 . S
C901 O924 1.258 . S
Co902 N911 2.057 . S
Co902 O918 2.117 . S
Co902 O919 2.020 . S
Co902 O921 2.021 . S
Co902 O926 2.062 . S
C903 N905 1.316 . S
C903 N906 1.347 . S
C903 H908 0.931 . S
C904 N905 1.375 . S
C904 C907 1.350 . S
C904 H909 0.930 . S
N905 Co900 2.057 . S
N905 C903 1.316 . S
N905 C904 1.375 . S
N906 C903 1.347 . S
N906 C907 1.373 . S
C907 C904 1.350 . S
C907 N906 1.373 . S
C907 H928 0.931 . S
H908 C903 0.931 . S
H909 C904 0.930 . S
C910 O917 1.259 . S
C910 O918 1.258 . S
N911 Co902 2.057 . S
N911 C912 1.316 . S
N911 C913 1.375 . S
C912 N911 1.316 . S
C912 N914 1.347 . S
C912 H923 0.931 . S
C913 N911 1.375 . S
C913 C915 1.350 . S
C913 H922 0.930 . S
N914 C912 1.347 . S
N914 C915 1.373 . S
C915 C913 1.350 . S
C915 N914 1.373 . S
C915 H929 0.931 . S
C916 O919 1.256 . S
C916 O920 1.255 . S
O917 Co900 2.021 . S
O917 C910 1.259 . S
O918 Co902 2.117 . S
O918 C910 1.258 . S
O919 Co902 2.020 . S
O919 C916 1.256 . S
O920 Co900 2.062 . S
O920 C916 1.255 . S
O921 C901 1.259 . S
O921 Co902 2.021 . S
H922 C913 0.930 . S
H923 C912 0.931 . S
O924 Co900 2.117 . S
O924 C901 1.258 . S
O925 Co900 2.020 . S
O925 C927 1.256 . S
O926 Co902 2.062 . S
O926 C927 1.255 . S
C927 O925 1.256 . S
C927 O926 1.255 . S
H928 C907 0.931 . S
H929 C915 0.931 . S
Co930 N935 2.057 . S
Co930 O947 2.021 . S
Co930 O950 2.062 . S
Co930 O954 2.117 . S
Co930 O955 2.020 . S
C931 O951 1.259 . S
C931 O954 1.258 . S
Co932 N941 2.057 . S
Co932 O948 2.117 . S
Co932 O949 2.020 . S
Co932 O951 2.021 . S
Co932 O956 2.062 . S
C933 N935 1.316 . S
C933 N936 1.347 . S
C933 H938 0.931 . S
C934 N935 1.375 . S
C934 C937 1.350 . S
C934 H939 0.930 . S
N935 Co930 2.057 . S
N935 C933 1.316 . S
N935 C934 1.375 . S
N936 C933 1.347 . S
N936 C937 1.373 . S
C937 C934 1.350 . S
C937 N936 1.373 . S
C937 H958 0.931 . S
H938 C933 0.931 . S
H939 C934 0.930 . S
C940 O947 1.259 . S
C940 O948 1.258 . S
N941 Co932 2.057 . S
N941 C942 1.316 . S
N941 C943 1.375 . S
C942 N941 1.316 . S
C942 N944 1.347 . S
C942 H953 0.931 . S
C943 N941 1.375 . S
C943 C945 1.350 . S
C943 H952 0.930 . S
N944 C942 1.347 . S
N944 C945 1.373 . S
C945 C943 1.350 . S
C945 N944 1.373 . S
C945 H959 0.931 . S
C946 O949 1.256 . S
C946 O950 1.255 . S
O947 Co930 2.021 . S
O947 C940 1.259 . S
O948 Co932 2.117 . S
O948 C940 1.258 . S
O949 Co932 2.020 . S
O949 C946 1.256 . S
O950 Co930 2.062 . S
O950 C946 1.255 . S
O951 C931 1.259 . S
O951 Co932 2.021 . S
H952 C943 0.930 . S
H953 C942 0.931 . S
O954 Co930 2.117 . S
O954 C931 1.258 . S
O955 Co930 2.020 . S
O955 C957 1.256 . S
O956 Co932 2.062 . S
O956 C957 1.255 . S
C957 O955 1.256 . S
C957 O956 1.255 . S
H958 C937 0.931 . S
H959 C945 0.931 . S
C960 C961 1.363 . S
C960 C966 1.379 . S
C960 N968 1.356 . S
C961 C960 1.363 . S
C961 C967 1.363 . S
C962 C963 1.363 . S
C962 C967 1.379 . S
C962 N969 1.356 . S
C963 C962 1.363 . S
C963 C966 1.363 . S
N964 C966 1.356 . S
N964 H976 0.984 . S
N964 H977 0.985 . S
N965 C967 1.356 . S
N965 H970 0.984 . S
N965 H971 0.985 1_554 S
C966 C960 1.379 . S
C966 C963 1.363 . S
C966 N964 1.356 . S
C967 C961 1.363 . S
C967 C962 1.379 . S
C967 N965 1.356 . S
N968 C960 1.356 . S
N968 H974 0.984 . S
N968 H975 0.984 . S
N969 C962 1.356 . S
N969 H972 0.984 . S
N969 H973 0.985 1_554 S
H970 N965 0.984 . S
H971 N965 0.985 1_556 S
H972 N969 0.984 . S
H973 N969 0.985 1_556 S
H974 N968 0.984 . S
H975 N968 0.984 . S
H976 N964 0.984 . S
H977 N964 0.985 . S
C978 C979 1.363 . S
C978 C984 1.379 . S
C978 N986 1.356 . S
C979 C978 1.363 . S
C979 C985 1.363 . S
C980 C981 1.363 . S
C980 C985 1.379 . S
C980 N987 1.356 . S
C981 C980 1.363 . S
C981 C984 1.363 . S
N982 C984 1.356 . S
N982 H994 0.984 1_554 S
N982 H995 0.985 . S
N983 C985 1.356 . S
N983 H988 0.984 . S
N983 H989 0.985 . S
C984 C978 1.379 . S
C984 C981 1.363 . S
C984 N982 1.356 . S
C985 C979 1.363 . S
C985 C980 1.379 . S
C985 N983 1.356 . S
N986 C978 1.356 . S
N986 H992 0.984 1_554 S
N986 H993 0.984 . S
N987 C980 1.356 . S
N987 H990 0.984 . S
N987 H991 0.985 . S
H988 N983 0.984 . S
H989 N983 0.985 . S
H990 N987 0.984 . S
H991 N987 0.985 . S
H992 N986 0.984 1_556 S
H993 N986 0.984 . S
H994 N982 0.984 1_556 S
H995 N982 0.985 . S
C996 C997 1.363 . S
C996 C1002 1.379 . S
C996 N1004 1.356 . S
C997 C996 1.363 . S
C997 C1003 1.363 . S
C998 C999 1.363 . S
C998 C1003 1.379 . S
C998 N1005 1.356 . S
C999 C998 1.363 . S
C999 C1002 1.363 . S
N1000 C1002 1.356 . S
N1000 H1012 0.984 . S
N1000 H1013 0.985 . S
N1001 C1003 1.356 . S
N1001 H1006 0.984 . S
N1001 H1007 0.985 . S
C1002 C996 1.379 . S
C1002 C999 1.363 . S
C1002 N1000 1.356 . S
C1003 C997 1.363 . S
C1003 C998 1.379 . S
C1003 N1001 1.356 . S
N1004 C996 1.356 . S
N1004 H1010 0.984 . S
N1004 H1011 0.984 . S
N1005 C998 1.356 . S
N1005 H1008 0.984 . S
N1005 H1009 0.985 . S
H1006 N1001 0.984 . S
H1007 N1001 0.985 . S
H1008 N1005 0.984 . S
H1009 N1005 0.985 . S
H1010 N1004 0.984 . S
H1011 N1004 0.984 . S
H1012 N1000 0.984 . S
H1013 N1000 0.985 . S
C1014 C1015 1.363 . S
C1014 C1020 1.379 . S
C1014 N1022 1.356 . S
C1015 C1014 1.363 . S
C1015 C1021 1.363 . S
C1016 C1017 1.363 . S
C1016 C1021 1.379 . S
C1016 N1023 1.356 . S
C1017 C1016 1.363 . S
C1017 C1020 1.363 . S
N1018 C1020 1.356 . S
N1018 H1030 0.984 . S
N1018 H1031 0.985 . S
N1019 C1021 1.356 . S
N1019 H1024 0.984 . S
N1019 H1025 0.985 . S
C1020 C1014 1.379 . S
C1020 C1017 1.363 . S
C1020 N1018 1.356 . S
C1021 C1015 1.363 . S
C1021 C1016 1.379 . S
C1021 N1019 1.356 . S
N1022 C1014 1.356 . S
N1022 H1028 0.984 . S
N1022 H1029 0.984 . S
N1023 C1016 1.356 . S
N1023 H1026 0.984 . S
N1023 H1027 0.985 . S
H1024 N1019 0.984 . S
H1025 N1019 0.985 . S
H1026 N1023 0.984 . S
H1027 N1023 0.985 . S
H1028 N1022 0.984 . S
H1029 N1022 0.984 . S
H1030 N1018 0.984 . S
H1031 N1018 0.985 . S
C1032 C1033 1.363 . S
C1032 C1038 1.379 . S
C1032 N1040 1.356 . S
C1033 C1032 1.363 . S
C1033 C1039 1.363 . S
C1034 C1035 1.363 . S
C1034 C1039 1.379 . S
C1034 N1041 1.356 . S
C1035 C1034 1.363 . S
C1035 C1038 1.363 . S
N1036 C1038 1.356 . S
N1036 H1048 0.984 . S
N1036 H1049 0.985 . S
N1037 C1039 1.356 . S
N1037 H1042 0.984 . S
N1037 H1043 0.985 1_556 S
C1038 C1032 1.379 . S
C1038 C1035 1.363 . S
C1038 N1036 1.356 . S
C1039 C1033 1.363 . S
C1039 C1034 1.379 . S
C1039 N1037 1.356 . S
N1040 C1032 1.356 . S
N1040 H1046 0.984 . S
N1040 H1047 0.984 . S
N1041 C1034 1.356 . S
N1041 H1044 0.984 . S
N1041 H1045 0.985 1_556 S
H1042 N1037 0.984 . S
H1043 N1037 0.985 1_554 S
H1044 N1041 0.984 . S
H1045 N1041 0.985 1_554 S
H1046 N1040 0.984 . S
H1047 N1040 0.984 . S
H1048 N1036 0.984 . S
H1049 N1036 0.985 . S
C1050 C1051 1.363 . S
C1050 C1056 1.379 . S
C1050 N1058 1.356 . S
C1051 C1050 1.363 . S
C1051 C1057 1.363 . S
C1052 C1053 1.363 . S
C1052 C1057 1.379 . S
C1052 N1059 1.356 . S
C1053 C1052 1.363 . S
C1053 C1056 1.363 . S
N1054 C1056 1.356 . S
N1054 H1066 0.984 1_556 S
N1054 H1067 0.985 . S
N1055 C1057 1.356 . S
N1055 H1060 0.984 . S
N1055 H1061 0.985 . S
C1056 C1050 1.379 . S
C1056 C1053 1.363 . S
C1056 N1054 1.356 . S
C1057 C1051 1.363 . S
C1057 C1052 1.379 . S
C1057 N1055 1.356 . S
N1058 C1050 1.356 . S
N1058 H1064 0.984 1_556 S
N1058 H1065 0.984 . S
N1059 C1052 1.356 . S
N1059 H1062 0.984 . S
N1059 H1063 0.985 . S
H1060 N1055 0.984 . S
H1061 N1055 0.985 . S
H1062 N1059 0.984 . S
H1063 N1059 0.985 . S
H1064 N1058 0.984 1_554 S
H1065 N1058 0.984 . S
H1066 N1054 0.984 1_554 S
H1067 N1054 0.985 . S
C1068 C1069 1.363 . S
C1068 C1074 1.379 . S
C1068 N1076 1.356 . S
C1069 C1068 1.363 . S
C1069 C1075 1.363 . S
C1070 C1071 1.363 . S
C1070 C1075 1.379 . S
C1070 N1077 1.356 . S
C1071 C1070 1.363 . S
C1071 C1074 1.363 . S
N1072 C1074 1.356 . S
N1072 H1084 0.984 . S
N1072 H1085 0.985 . S
N1073 C1075 1.356 . S
N1073 H1078 0.984 . S
N1073 H1079 0.985 . S
C1074 C1068 1.379 . S
C1074 C1071 1.363 . S
C1074 N1072 1.356 . S
C1075 C1069 1.363 . S
C1075 C1070 1.379 . S
C1075 N1073 1.356 . S
N1076 C1068 1.356 . S
N1076 H1082 0.984 . S
N1076 H1083 0.984 . S
N1077 C1070 1.356 . S
N1077 H1080 0.984 . S
N1077 H1081 0.985 . S
H1078 N1073 0.984 . S
H1079 N1073 0.985 . S
H1080 N1077 0.984 . S
H1081 N1077 0.985 . S
H1082 N1076 0.984 . S
H1083 N1076 0.984 . S
H1084 N1072 0.984 . S
H1085 N1072 0.985 . S
C1086 C1087 1.363 . S
C1086 C1092 1.379 . S
C1086 N1094 1.356 . S
C1087 C1086 1.363 . S
C1087 C1093 1.363 . S
C1088 C1089 1.363 . S
C1088 C1093 1.379 . S
C1088 N1095 1.356 . S
C1089 C1088 1.363 . S
C1089 C1092 1.363 . S
N1090 C1092 1.356 . S
N1090 H1102 0.984 . S
N1090 H1103 0.985 . S
N1091 C1093 1.356 . S
N1091 H1096 0.984 . S
N1091 H1097 0.985 . S
C1092 C1086 1.379 . S
C1092 C1089 1.363 . S
C1092 N1090 1.356 . S
C1093 C1087 1.363 . S
C1093 C1088 1.379 . S
C1093 N1091 1.356 . S
N1094 C1086 1.356 . S
N1094 H1100 0.984 . S
N1094 H1101 0.984 . S
N1095 C1088 1.356 . S
N1095 H1098 0.984 . S
N1095 H1099 0.985 . S
H1096 N1091 0.984 . S
H1097 N1091 0.985 . S
H1098 N1095 0.984 . S
H1099 N1095 0.985 . S
H1100 N1094 0.984 . S
H1101 N1094 0.984 . S
H1102 N1090 0.984 . S
H1103 N1090 0.985 . S
C1104 C1105 1.363 . S
C1104 C1110 1.379 . S
C1104 N1112 1.356 . S
C1105 C1104 1.363 . S
C1105 C1111 1.363 . S
C1106 C1107 1.363 . S
C1106 C1111 1.379 . S
C1106 N1113 1.356 . S
C1107 C1106 1.363 . S
C1107 C1110 1.363 . S
N1108 C1110 1.356 . S
N1108 H1120 0.984 . S
N1108 H1121 0.985 . S
N1109 C1111 1.356 . S
N1109 H1114 0.984 . S
N1109 H1115 0.985 . S
C1110 C1104 1.379 . S
C1110 C1107 1.363 . S
C1110 N1108 1.356 . S
C1111 C1105 1.363 . S
C1111 C1106 1.379 . S
C1111 N1109 1.356 . S
N1112 C1104 1.356 . S
N1112 H1118 0.984 . S
N1112 H1119 0.984 . S
N1113 C1106 1.356 . S
N1113 H1116 0.984 . S
N1113 H1117 0.985 . S
H1114 N1109 0.984 . S
H1115 N1109 0.985 . S
H1116 N1113 0.984 . S
H1117 N1113 0.985 . S
H1118 N1112 0.984 . S
H1119 N1112 0.984 . S
H1120 N1108 0.984 . S
H1121 N1108 0.985 . S
C1122 C1123 1.363 . S
C1122 C1128 1.379 . S
C1122 N1130 1.356 . S
C1123 C1122 1.363 . S
C1123 C1129 1.363 . S
C1124 C1125 1.363 . S
C1124 C1129 1.379 . S
C1124 N1131 1.356 . S
C1125 C1124 1.363 . S
C1125 C1128 1.363 . S
N1126 C1128 1.356 . S
N1126 H1138 0.984 . S
N1126 H1139 0.985 . S
N1127 C1129 1.356 . S
N1127 H1132 0.984 . S
N1127 H1133 0.985 . S
C1128 C1122 1.379 . S
C1128 C1125 1.363 . S
C1128 N1126 1.356 . S
C1129 C1123 1.363 . S
C1129 C1124 1.379 . S
C1129 N1127 1.356 . S
N1130 C1122 1.356 . S
N1130 H1136 0.984 . S
N1130 H1137 0.984 . S
N1131 C1124 1.356 . S
N1131 H1134 0.984 . S
N1131 H1135 0.985 . S
H1132 N1127 0.984 . S
H1133 N1127 0.985 . S
H1134 N1131 0.984 . S
H1135 N1131 0.985 . S
H1136 N1130 0.984 . S
H1137 N1130 0.984 . S
H1138 N1126 0.984 . S
H1139 N1126 0.985 . S
C1140 C1141 1.363 . S
C1140 C1146 1.379 . S
C1140 N1148 1.356 . S
C1141 C1140 1.363 . S
C1141 C1147 1.363 . S
C1142 C1143 1.363 . S
C1142 C1147 1.379 . S
C1142 N1149 1.356 . S
C1143 C1142 1.363 . S
C1143 C1146 1.363 . S
N1144 C1146 1.356 . S
N1144 H1156 0.984 . S
N1144 H1157 0.985 . S
N1145 C1147 1.356 . S
N1145 H1150 0.984 . S
N1145 H1151 0.985 . S
C1146 C1140 1.379 . S
C1146 C1143 1.363 . S
C1146 N1144 1.356 . S
C1147 C1141 1.363 . S
C1147 C1142 1.379 . S
C1147 N1145 1.356 . S
N1148 C1140 1.356 . S
N1148 H1154 0.984 . S
N1148 H1155 0.984 . S
N1149 C1142 1.356 . S
N1149 H1152 0.984 . S
N1149 H1153 0.985 . S
H1150 N1145 0.984 . S
H1151 N1145 0.985 . S
H1152 N1149 0.984 . S
H1153 N1149 0.985 . S
H1154 N1148 0.984 . S
H1155 N1148 0.984 . S
H1156 N1144 0.984 . S
H1157 N1144 0.985 . S
C1158 C1159 1.363 . S
C1158 C1164 1.379 . S
C1158 N1166 1.356 . S
C1159 C1158 1.363 . S
C1159 C1165 1.363 . S
C1160 C1161 1.363 . S
C1160 C1165 1.379 . S
C1160 N1167 1.356 . S
C1161 C1160 1.363 . S
C1161 C1164 1.363 . S
N1162 C1164 1.356 . S
N1162 H1174 0.984 . S
N1162 H1175 0.985 . S
N1163 C1165 1.356 . S
N1163 H1168 0.984 . S
N1163 H1169 0.985 . S
C1164 C1158 1.379 . S
C1164 C1161 1.363 . S
C1164 N1162 1.356 . S
C1165 C1159 1.363 . S
C1165 C1160 1.379 . S
C1165 N1163 1.356 . S
N1166 C1158 1.356 . S
N1166 H1172 0.984 . S
N1166 H1173 0.984 . S
N1167 C1160 1.356 . S
N1167 H1170 0.984 . S
N1167 H1171 0.985 . S
H1168 N1163 0.984 . S
H1169 N1163 0.985 . S
H1170 N1167 0.984 . S
H1171 N1167 0.985 . S
H1172 N1166 0.984 . S
H1173 N1166 0.984 . S
H1174 N1162 0.984 . S
H1175 N1162 0.985 . S
C1176 C1177 1.363 . S
C1176 C1182 1.379 . S
C1176 N1184 1.356 . S
C1177 C1176 1.363 . S
C1177 C1183 1.363 . S
C1178 C1179 1.363 . S
C1178 C1183 1.379 . S
C1178 N1185 1.356 . S
C1179 C1178 1.363 . S
C1179 C1182 1.363 . S
N1180 C1182 1.356 . S
N1180 H1192 0.984 . S
N1180 H1193 0.985 . S
N1181 C1183 1.356 . S
N1181 H1186 0.984 . S
N1181 H1187 0.985 . S
C1182 C1176 1.379 . S
C1182 C1179 1.363 . S
C1182 N1180 1.356 . S
C1183 C1177 1.363 . S
C1183 C1178 1.379 . S
C1183 N1181 1.356 . S
N1184 C1176 1.356 . S
N1184 H1190 0.984 . S
N1184 H1191 0.984 . S
N1185 C1178 1.356 . S
N1185 H1188 0.984 . S
N1185 H1189 0.985 . S
H1186 N1181 0.984 . S
H1187 N1181 0.985 . S
H1188 N1185 0.984 . S
H1189 N1185 0.985 . S
H1190 N1184 0.984 . S
H1191 N1184 0.984 . S
H1192 N1180 0.984 . S
H1193 N1180 0.985 . S
C1194 C1195 1.363 . S
C1194 C1200 1.379 . S
C1194 N1202 1.356 . S
C1195 C1194 1.363 . S
C1195 C1201 1.363 . S
C1196 C1197 1.363 . S
C1196 C1201 1.379 . S
C1196 N1203 1.356 . S
C1197 C1196 1.363 . S
C1197 C1200 1.363 . S
N1198 C1200 1.356 . S
N1198 H1210 0.984 . S
N1198 H1211 0.985 . S
N1199 C1201 1.356 . S
N1199 H1204 0.984 . S
N1199 H1205 0.985 . S
C1200 C1194 1.379 . S
C1200 C1197 1.363 . S
C1200 N1198 1.356 . S
C1201 C1195 1.363 . S
C1201 C1196 1.379 . S
C1201 N1199 1.356 . S
N1202 C1194 1.356 . S
N1202 H1208 0.984 . S
N1202 H1209 0.984 . S
N1203 C1196 1.356 . S
N1203 H1206 0.984 . S
N1203 H1207 0.985 . S
H1204 N1199 0.984 . S
H1205 N1199 0.985 . S
H1206 N1203 0.984 . S
H1207 N1203 0.985 . S
H1208 N1202 0.984 . S
H1209 N1202 0.984 . S
H1210 N1198 0.984 . S
H1211 N1198 0.985 . S
C1212 C1213 1.363 . S
C1212 C1218 1.379 . S
C1212 N1220 1.356 . S
C1213 C1212 1.363 . S
C1213 C1219 1.363 . S
C1214 C1215 1.363 . S
C1214 C1219 1.379 . S
C1214 N1221 1.356 . S
C1215 C1214 1.363 . S
C1215 C1218 1.363 . S
N1216 C1218 1.356 . S
N1216 H1228 0.984 . S
N1216 H1229 0.985 . S
N1217 C1219 1.356 . S
N1217 H1222 0.984 . S
N1217 H1223 0.985 . S
C1218 C1212 1.379 . S
C1218 C1215 1.363 . S
C1218 N1216 1.356 . S
C1219 C1213 1.363 . S
C1219 C1214 1.379 . S
C1219 N1217 1.356 . S
N1220 C1212 1.356 . S
N1220 H1226 0.984 . S
N1220 H1227 0.984 . S
N1221 C1214 1.356 . S
N1221 H1224 0.984 . S
N1221 H1225 0.985 . S
H1222 N1217 0.984 . S
H1223 N1217 0.985 . S
H1224 N1221 0.984 . S
H1225 N1221 0.985 . S
H1226 N1220 0.984 . S
H1227 N1220 0.984 . S
H1228 N1216 0.984 . S
H1229 N1216 0.985 . S
C1230 C1231 1.363 . S
C1230 C1236 1.379 . S
C1230 N1238 1.356 . S
C1231 C1230 1.363 . S
C1231 C1237 1.363 . S
C1232 C1233 1.363 . S
C1232 C1237 1.379 . S
C1232 N1239 1.356 . S
C1233 C1232 1.363 . S
C1233 C1236 1.363 . S
N1234 C1236 1.356 . S
N1234 H1246 0.984 . S
N1234 H1247 0.985 . S
N1235 C1237 1.356 . S
N1235 H1240 0.984 . S
N1235 H1241 0.985 . S
C1236 C1230 1.379 . S
C1236 C1233 1.363 . S
C1236 N1234 1.356 . S
C1237 C1231 1.363 . S
C1237 C1232 1.379 . S
C1237 N1235 1.356 . S
N1238 C1230 1.356 . S
N1238 H1244 0.984 . S
N1238 H1245 0.984 . S
N1239 C1232 1.356 . S
N1239 H1242 0.984 . S
N1239 H1243 0.985 . S
H1240 N1235 0.984 . S
H1241 N1235 0.985 . S
H1242 N1239 0.984 . S
H1243 N1239 0.985 . S
H1244 N1238 0.984 . S
H1245 N1238 0.984 . S
H1246 N1234 0.984 . S
H1247 N1234 0.985 . S
C1248 C1249 1.363 1_545 S
C1248 C1254 1.379 . S
C1248 N1256 1.356 . S
C1249 C1248 1.363 1_565 S
C1249 C1255 1.363 . S
C1250 C1251 1.363 1_565 S
C1250 C1255 1.379 . S
C1250 N1257 1.356 . S
C1251 C1250 1.363 1_545 S
C1251 C1254 1.363 . S
N1252 C1254 1.356 . S
N1252 H1264 0.984 . S
N1252 H1265 0.985 . S
N1253 C1255 1.356 . S
N1253 H1258 0.984 . S
N1253 H1259 0.985 . S
C1254 C1248 1.379 . S
C1254 C1251 1.363 . S
C1254 N1252 1.356 . S
C1255 C1249 1.363 . S
C1255 C1250 1.379 . S
C1255 N1253 1.356 . S
N1256 C1248 1.356 . S
N1256 H1262 0.984 . S
N1256 H1263 0.984 . S
N1257 C1250 1.356 . S
N1257 H1260 0.984 . S
N1257 H1261 0.985 . S
H1258 N1253 0.984 . S
H1259 N1253 0.985 . S
H1260 N1257 0.984 . S
H1261 N1257 0.985 . S
H1262 N1256 0.984 . S
H1263 N1256 0.984 . S
H1264 N1252 0.984 . S
H1265 N1252 0.985 . S
C1266 C1267 1.363 . S
C1266 C1272 1.379 1_455 S
C1266 N1274 1.356 . S
C1267 C1266 1.363 . S
C1267 C1273 1.363 . S
C1268 C1269 1.363 . S
C1268 C1273 1.379 1_655 S
C1268 N1275 1.356 . S
C1269 C1268 1.363 . S
C1269 C1272 1.363 . S
N1270 C1272 1.356 . S
N1270 H1282 0.984 . S
N1270 H1283 0.985 . S
N1271 C1273 1.356 . S
N1271 H1276 0.984 . S
N1271 H1277 0.985 . S
C1272 C1266 1.379 1_655 S
C1272 C1269 1.363 . S
C1272 N1270 1.356 . S
C1273 C1267 1.363 . S
C1273 C1268 1.379 1_455 S
C1273 N1271 1.356 . S
N1274 C1266 1.356 . S
N1274 H1280 0.984 . S
N1274 H1281 0.984 . S
N1275 C1268 1.356 . S
N1275 H1278 0.984 . S
N1275 H1279 0.985 . S
H1276 N1271 0.984 . S
H1277 N1271 0.985 . S
H1278 N1275 0.984 . S
H1279 N1275 0.985 . S
H1280 N1274 0.984 . S
H1281 N1274 0.984 . S
H1282 N1270 0.984 . S
H1283 N1270 0.985 . S
C1284 C1285 1.363 1_554 S
C1284 C1290 1.379 . S
C1284 N1292 1.358 . S
C1285 C1284 1.363 1_556 S
C1285 C1291 1.363 . S
C1286 C1287 1.363 1_556 S
C1286 C1291 1.379 . S
C1286 N1293 1.358 . S
C1287 C1286 1.363 1_554 S
C1287 C1290 1.363 . S
N1288 C1290 1.356 . S
N1288 H1300 0.984 . S
N1288 H1301 0.985 . S
N1289 C1291 1.356 . S
N1289 H1294 0.984 . S
N1289 H1295 0.985 . S
C1290 C1284 1.379 . S
C1290 C1287 1.363 . S
C1290 N1288 1.356 . S
C1291 C1285 1.363 . S
C1291 C1286 1.379 . S
C1291 N1289 1.356 . S
N1292 C1284 1.358 . S
N1292 H1298 0.995 . S
N1292 H1299 0.972 1_554 S
N1293 C1286 1.358 . S
N1293 H1296 0.972 1_556 S
N1293 H1297 0.995 . S
H1294 N1289 0.984 . S
H1295 N1289 0.985 . S
H1296 N1293 0.972 1_554 S
H1297 N1293 0.995 . S
H1298 N1292 0.995 . S
H1299 N1292 0.972 1_556 S
H1300 N1288 0.984 . S
H1301 N1288 0.985 . S
C1302 C1303 1.363 1_545 S
C1302 C1308 1.379 1_654 S
C1302 N1310 1.356 . S
C1303 C1302 1.363 1_565 S
C1303 C1309 1.363 . S
C1304 C1305 1.363 1_565 S
C1304 C1309 1.379 1_456 S
C1304 N1311 1.356 . S
C1305 C1304 1.363 1_545 S
C1305 C1308 1.363 . S
N1306 C1308 1.356 . S
N1306 H1318 0.984 . S
N1306 H1319 0.985 . S
N1307 C1309 1.356 . S
N1307 H1312 0.984 . S
N1307 H1313 0.985 . S
C1308 C1302 1.379 1_456 S
C1308 C1305 1.363 . S
C1308 N1306 1.356 . S
C1309 C1303 1.363 . S
C1309 C1304 1.379 1_654 S
C1309 N1307 1.356 . S
N1310 C1302 1.356 . S
N1310 H1316 0.975 1_554 S
N1310 H1317 0.984 . S
N1311 C1304 1.356 . S
N1311 H1314 0.984 . S
N1311 H1315 0.975 1_556 S
H1312 N1307 0.984 . S
H1313 N1307 0.985 . S
H1314 N1311 0.984 . S
H1315 N1311 0.975 1_554 S
H1316 N1310 0.975 1_556 S
H1317 N1310 0.984 . S
H1318 N1306 0.984 . S
H1319 N1306 0.985 . S
C1320 C1321 1.363 1_565 S
C1320 C1326 1.379 . S
C1320 N1328 1.356 . S
C1321 C1320 1.363 1_545 S
C1321 C1327 1.363 . S
C1322 C1323 1.363 1_545 S
C1322 C1327 1.379 . S
C1322 N1329 1.356 . S
C1323 C1322 1.363 1_565 S
C1323 C1326 1.363 . S
N1324 C1326 1.356 . S
N1324 H1336 0.984 . S
N1324 H1337 0.985 . S
N1325 C1327 1.356 . S
N1325 H1330 0.984 . S
N1325 H1331 0.985 . S
C1326 C1320 1.379 . S
C1326 C1323 1.363 . S
C1326 N1324 1.356 . S
C1327 C1321 1.363 . S
C1327 C1322 1.379 . S
C1327 N1325 1.356 . S
N1328 C1320 1.356 . S
N1328 H1334 0.984 . S
N1328 H1335 0.984 . S
N1329 C1322 1.356 . S
N1329 H1332 0.984 . S
N1329 H1333 0.985 . S
H1330 N1325 0.984 . S
H1331 N1325 0.985 . S
H1332 N1329 0.984 . S
H1333 N1329 0.985 . S
H1334 N1328 0.984 . S
H1335 N1328 0.984 . S
H1336 N1324 0.984 . S
H1337 N1324 0.985 . S
C1338 C1339 1.363 . S
C1338 C1344 1.379 1_455 S
C1338 N1346 1.356 . S
C1339 C1338 1.363 . S
C1339 C1345 1.363 . S
C1340 C1341 1.363 . S
C1340 C1345 1.379 1_655 S
C1340 N1347 1.356 . S
C1341 C1340 1.363 . S
C1341 C1344 1.363 . S
N1342 C1344 1.356 . S
N1342 H1354 0.984 . S
N1342 H1355 0.985 . S
N1343 C1345 1.356 . S
N1343 H1348 0.984 . S
N1343 H1349 0.985 . S
C1344 C1338 1.379 1_655 S
C1344 C1341 1.363 . S
C1344 N1342 1.356 . S
C1345 C1339 1.363 . S
C1345 C1340 1.379 1_455 S
C1345 N1343 1.356 . S
N1346 C1338 1.356 . S
N1346 H1352 0.984 . S
N1346 H1353 0.984 . S
N1347 C1340 1.356 . S
N1347 H1350 0.984 . S
N1347 H1351 0.985 . S
H1348 N1343 0.984 . S
H1349 N1343 0.985 . S
H1350 N1347 0.984 . S
H1351 N1347 0.985 . S
H1352 N1346 0.984 . S
H1353 N1346 0.984 . S
H1354 N1342 0.984 . S
H1355 N1342 0.985 . S
C1356 C1357 1.363 1_554 S
C1356 C1362 1.379 . S
C1356 N1364 1.356 . S
C1357 C1356 1.363 1_556 S
C1357 C1363 1.363 . S
C1358 C1359 1.363 1_556 S
C1358 C1363 1.379 . S
C1358 N1365 1.356 . S
C1359 C1358 1.363 1_554 S
C1359 C1362 1.363 . S
N1360 C1362 1.356 . S
N1360 H1372 0.984 . S
N1360 H1373 0.985 . S
N1361 C1363 1.356 . S
N1361 H1366 0.984 . S
N1361 H1367 0.985 . S
C1362 C1356 1.379 . S
C1362 C1359 1.363 . S
C1362 N1360 1.356 . S
C1363 C1357 1.363 . S
C1363 C1358 1.379 . S
C1363 N1361 1.356 . S
N1364 C1356 1.356 . S
N1364 H1370 0.984 . S
N1364 H1371 0.984 1_554 S
N1365 C1358 1.356 . S
N1365 H1368 0.984 1_556 S
N1365 H1369 0.985 . S
H1366 N1361 0.984 . S
H1367 N1361 0.985 . S
H1368 N1365 0.984 1_554 S
H1369 N1365 0.985 . S
H1370 N1364 0.984 . S
H1371 N1364 0.984 1_556 S
H1372 N1360 0.984 . S
H1373 N1360 0.985 . S
C1374 C1375 1.363 . S
C1374 C1380 1.379 . S
C1374 N1382 1.356 . S
C1375 C1374 1.363 . S
C1375 C1381 1.363 . S
C1376 C1377 1.363 . S
C1376 C1381 1.379 . S
C1376 N1383 1.356 . S
C1377 C1376 1.363 . S
C1377 C1380 1.363 . S
N1378 C1380 1.356 . S
N1378 H1390 0.984 . S
N1378 H1391 0.985 . S
N1379 C1381 1.356 . S
N1379 H1384 0.984 . S
N1379 H1385 0.985 . S
C1380 C1374 1.379 . S
C1380 C1377 1.363 . S
C1380 N1378 1.356 . S
C1381 C1375 1.363 . S
C1381 C1376 1.379 . S
C1381 N1379 1.356 . S
N1382 C1374 1.356 . S
N1382 H1388 0.984 . S
N1382 H1389 0.984 . S
N1383 C1376 1.356 . S
N1383 H1386 0.984 . S
N1383 H1387 0.985 . S
H1384 N1379 0.984 . S
H1385 N1379 0.985 . S
H1386 N1383 0.984 . S
H1387 N1383 0.985 . S
H1388 N1382 0.984 . S
H1389 N1382 0.984 . S
H1390 N1378 0.984 . S
H1391 N1378 0.985 . S
C1392 C1393 1.363 . S
C1392 C1398 1.379 . S
C1392 N1400 1.356 . S
C1393 C1392 1.363 . S
C1393 C1399 1.363 . S
C1394 C1395 1.363 . S
C1394 C1399 1.379 . S
C1394 N1401 1.356 . S
C1395 C1394 1.363 . S
C1395 C1398 1.363 . S
N1396 C1398 1.356 . S
N1396 H1408 0.984 . S
N1396 H1409 0.985 . S
N1397 C1399 1.356 . S
N1397 H1402 0.984 . S
N1397 H1403 0.985 . S
C1398 C1392 1.379 . S
C1398 C1395 1.363 . S
C1398 N1396 1.356 . S
C1399 C1393 1.363 . S
C1399 C1394 1.379 . S
C1399 N1397 1.356 . S
N1400 C1392 1.356 . S
N1400 H1406 0.984 . S
N1400 H1407 0.984 . S
N1401 C1394 1.356 . S
N1401 H1404 0.984 . S
N1401 H1405 0.985 . S
H1402 N1397 0.984 . S
H1403 N1397 0.985 . S
H1404 N1401 0.984 . S
H1405 N1401 0.985 . S
H1406 N1400 0.984 . S
H1407 N1400 0.984 . S
H1408 N1396 0.984 . S
H1409 N1396 0.985 . S
C1410 C1411 1.363 . S
C1410 C1416 1.379 1_455 S
C1410 N1418 1.356 . S
C1411 C1410 1.363 . S
C1411 C1417 1.363 . S
C1412 C1413 1.363 . S
C1412 C1417 1.379 1_655 S
C1412 N1419 1.356 . S
C1413 C1412 1.363 . S
C1413 C1416 1.363 . S
N1414 C1416 1.356 . S
N1414 H1426 0.984 . S
N1414 H1427 0.985 . S
N1415 C1417 1.356 . S
N1415 H1420 0.984 . S
N1415 H1421 0.985 . S
C1416 C1410 1.379 1_655 S
C1416 C1413 1.363 . S
C1416 N1414 1.356 . S
C1417 C1411 1.363 . S
C1417 C1412 1.379 1_455 S
C1417 N1415 1.356 . S
N1418 C1410 1.356 . S
N1418 H1424 0.984 . S
N1418 H1425 0.984 . S
N1419 C1412 1.356 . S
N1419 H1422 0.984 . S
N1419 H1423 0.985 . S
H1420 N1415 0.984 . S
H1421 N1415 0.985 . S
H1422 N1419 0.984 . S
H1423 N1419 0.985 . S
H1424 N1418 0.984 . S
H1425 N1418 0.984 . S
H1426 N1414 0.984 . S
H1427 N1414 0.985 . S
C1428 C1429 1.363 . S
C1428 C1434 1.379 . S
C1428 N1436 1.356 . S
C1429 C1428 1.363 . S
C1429 C1435 1.363 . S
C1430 C1431 1.363 . S
C1430 C1435 1.379 . S
C1430 N1437 1.356 . S
C1431 C1430 1.363 . S
C1431 C1434 1.363 . S
N1432 C1434 1.356 . S
N1432 H1444 0.984 . S
N1432 H1445 0.985 . S
N1433 C1435 1.356 . S
N1433 H1438 0.984 . S
N1433 H1439 0.985 . S
C1434 C1428 1.379 . S
C1434 C1431 1.363 . S
C1434 N1432 1.356 . S
C1435 C1429 1.363 . S
C1435 C1430 1.379 . S
C1435 N1433 1.356 . S
N1436 C1428 1.356 . S
N1436 H1442 0.984 . S
N1436 H1443 0.984 . S
N1437 C1430 1.356 . S
N1437 H1440 0.984 . S
N1437 H1441 0.985 . S
H1438 N1433 0.984 . S
H1439 N1433 0.985 . S
H1440 N1437 0.984 . S
H1441 N1437 0.985 . S
H1442 N1436 0.984 . S
H1443 N1436 0.984 . S
H1444 N1432 0.984 . S
H1445 N1432 0.985 . S
C1446 C1447 1.363 . S
C1446 C1452 1.379 . S
C1446 N1454 1.356 . S
C1447 C1446 1.363 . S
C1447 C1453 1.363 . S
C1448 C1449 1.363 . S
C1448 C1453 1.379 . S
C1448 N1455 1.356 . S
C1449 C1448 1.363 . S
C1449 C1452 1.363 . S
N1450 C1452 1.356 . S
N1450 H1462 0.984 . S
N1450 H1463 0.985 . S
N1451 C1453 1.356 . S
N1451 H1456 0.984 . S
N1451 H1457 0.985 . S
C1452 C1446 1.379 . S
C1452 C1449 1.363 . S
C1452 N1450 1.356 . S
C1453 C1447 1.363 . S
C1453 C1448 1.379 . S
C1453 N1451 1.356 . S
N1454 C1446 1.356 . S
N1454 H1460 0.984 . S
N1454 H1461 0.984 . S
N1455 C1448 1.356 . S
N1455 H1458 0.984 . S
N1455 H1459 0.985 . S
H1456 N1451 0.984 . S
H1457 N1451 0.985 . S
H1458 N1455 0.984 . S
H1459 N1455 0.985 . S
H1460 N1454 0.984 . S
H1461 N1454 0.984 . S
H1462 N1450 0.984 . S
H1463 N1450 0.985 . S
C1464 C1465 1.363 . S
C1464 C1470 1.379 . S
C1464 N1472 1.356 . S
C1465 C1464 1.363 . S
C1465 C1471 1.363 . S
C1466 C1467 1.363 . S
C1466 C1471 1.379 . S
C1466 N1473 1.356 . S
C1467 C1466 1.363 . S
C1467 C1470 1.363 . S
N1468 C1470 1.356 . S
N1468 H1480 0.984 . S
N1468 H1481 0.985 . S
N1469 C1471 1.356 . S
N1469 H1474 0.984 . S
N1469 H1475 0.985 . S
C1470 C1464 1.379 . S
C1470 C1467 1.363 . S
C1470 N1468 1.356 . S
C1471 C1465 1.363 . S
C1471 C1466 1.379 . S
C1471 N1469 1.356 . S
N1472 C1464 1.356 . S
N1472 H1478 0.984 . S
N1472 H1479 0.984 . S
N1473 C1466 1.356 . S
N1473 H1476 0.984 . S
N1473 H1477 0.985 . S
H1474 N1469 0.984 . S
H1475 N1469 0.985 . S
H1476 N1473 0.984 . S
H1477 N1473 0.985 . S
H1478 N1472 0.984 . S
H1479 N1472 0.984 . S
H1480 N1468 0.984 . S
H1481 N1468 0.985 . S
C1482 C1483 1.363 . S
C1482 C1488 1.379 . S
C1482 N1490 1.356 . S
C1483 C1482 1.363 . S
C1483 C1489 1.363 1_565 S
C1484 C1485 1.363 . S
C1484 C1489 1.379 . S
C1484 N1491 1.356 . S
C1485 C1484 1.363 . S
C1485 C1488 1.363 1_545 S
N1486 C1488 1.356 . S
N1486 H1498 0.984 . S
N1486 H1499 0.985 . S
N1487 C1489 1.356 . S
N1487 H1492 0.984 . S
N1487 H1493 0.985 . S
C1488 C1482 1.379 . S
C1488 C1485 1.363 1_565 S
C1488 N1486 1.356 . S
C1489 C1483 1.363 1_545 S
C1489 C1484 1.379 . S
C1489 N1487 1.356 . S
N1490 C1482 1.356 . S
N1490 H1496 0.984 . S
N1490 H1497 0.984 . S
N1491 C1484 1.356 . S
N1491 H1494 0.984 . S
N1491 H1495 0.985 . S
H1492 N1487 0.984 . S
H1493 N1487 0.985 . S
H1494 N1491 0.984 . S
H1495 N1491 0.985 . S
H1496 N1490 0.984 . S
H1497 N1490 0.984 . S
H1498 N1486 0.984 . S
H1499 N1486 0.985 . S
C1500 C1501 1.363 . S
C1500 C1506 1.379 . S
C1500 N1508 1.356 . S
C1501 C1500 1.363 . S
C1501 C1507 1.363 . S
C1502 C1503 1.363 . S
C1502 C1507 1.379 . S
C1502 N1509 1.356 . S
C1503 C1502 1.363 . S
C1503 C1506 1.363 . S
N1504 C1506 1.356 . S
N1504 H1516 0.984 . S
N1504 H1517 0.985 . S
N1505 C1507 1.356 . S
N1505 H1510 0.984 . S
N1505 H1511 0.985 . S
C1506 C1500 1.379 . S
C1506 C1503 1.363 . S
C1506 N1504 1.356 . S
C1507 C1501 1.363 . S
C1507 C1502 1.379 . S
C1507 N1505 1.356 . S
N1508 C1500 1.356 . S
N1508 H1514 0.984 . S
N1508 H1515 0.984 . S
N1509 C1502 1.356 . S
N1509 H1512 0.984 . S
N1509 H1513 0.985 . S
H1510 N1505 0.984 . S
H1511 N1505 0.985 . S
H1512 N1509 0.984 . S
H1513 N1509 0.985 . S
H1514 N1508 0.984 . S
H1515 N1508 0.984 . S
H1516 N1504 0.984 . S
H1517 N1504 0.985 . S
C1518 C1519 1.363 . S
C1518 C1524 1.366 1_554 S
C1518 N1526 1.356 . S
C1519 C1518 1.363 . S
C1519 C1525 1.376 . S
C1520 C1521 1.363 . S
C1520 C1525 1.366 1_556 S
C1520 N1527 1.356 . S
C1521 C1520 1.363 . S
C1521 C1524 1.376 . S
N1522 C1524 1.361 . S
N1522 H1534 0.984 1_556 S
N1522 H1535 0.985 . S
N1523 C1525 1.361 . S
N1523 H1528 0.984 . S
N1523 H1529 0.985 1_554 S
C1524 C1518 1.366 1_556 S
C1524 C1521 1.376 . S
C1524 N1522 1.361 . S
C1525 C1519 1.376 . S
C1525 C1520 1.366 1_554 S
C1525 N1523 1.361 . S
N1526 C1518 1.356 . S
N1526 H1532 0.984 . S
N1526 H1533 0.984 . S
N1527 C1520 1.356 . S
N1527 H1530 0.984 . S
N1527 H1531 0.985 . S
H1528 N1523 0.984 . S
H1529 N1523 0.985 1_556 S
H1530 N1527 0.984 . S
H1531 N1527 0.985 . S
H1532 N1526 0.984 . S
H1533 N1526 0.984 . S
H1534 N1522 0.984 1_554 S
H1535 N1522 0.985 . S
C1536 C1537 1.363 . S
C1536 C1542 1.379 . S
C1536 N1544 1.356 . S
C1537 C1536 1.363 . S
C1537 C1543 1.363 1_545 S
C1538 C1539 1.363 1_565 S
C1538 C1543 1.379 . S
C1538 N1545 1.356 . S
C1539 C1538 1.363 1_545 S
C1539 C1542 1.363 . S
N1540 C1542 1.356 . S
N1540 H1552 0.984 . S
N1540 H1553 0.985 . S
N1541 C1543 1.356 . S
N1541 H1546 0.984 . S
N1541 H1547 0.985 . S
C1542 C1536 1.379 . S
C1542 C1539 1.363 . S
C1542 N1540 1.356 . S
C1543 C1537 1.363 1_565 S
C1543 C1538 1.379 . S
C1543 N1541 1.356 . S
N1544 C1536 1.356 . S
N1544 H1550 0.984 . S
N1544 H1551 0.984 . S
N1545 C1538 1.356 . S
N1545 H1548 0.984 . S
N1545 H1549 0.985 . S
H1546 N1541 0.984 . S
H1547 N1541 0.985 . S
H1548 N1545 0.984 . S
H1549 N1545 0.985 . S
H1550 N1544 0.984 . S
H1551 N1544 0.984 . S
H1552 N1540 0.984 . S
H1553 N1540 0.985 . S
C1554 C1555 1.363 . S
C1554 C1560 1.379 . S
C1554 N1562 1.356 . S
C1555 C1554 1.363 . S
C1555 C1561 1.363 . S
C1556 C1557 1.363 . S
C1556 C1561 1.379 . S
C1556 N1563 1.356 . S
C1557 C1556 1.363 . S
C1557 C1560 1.363 . S
N1558 C1560 1.356 . S
N1558 H1570 0.984 . S
N1558 H1571 0.985 . S
N1559 C1561 1.356 . S
N1559 H1564 0.984 . S
N1559 H1565 0.985 . S
C1560 C1554 1.379 . S
C1560 C1557 1.363 . S
C1560 N1558 1.356 . S
C1561 C1555 1.363 . S
C1561 C1556 1.379 . S
C1561 N1559 1.356 . S
N1562 C1554 1.356 . S
N1562 H1568 0.984 . S
N1562 H1569 0.984 . S
N1563 C1556 1.356 . S
N1563 H1566 0.984 . S
N1563 H1567 0.985 . S
H1564 N1559 0.984 . S
H1565 N1559 0.985 . S
H1566 N1563 0.984 . S
H1567 N1563 0.985 . S
H1568 N1562 0.984 . S
H1569 N1562 0.984 . S
H1570 N1558 0.984 . S
H1571 N1558 0.985 . S
C1572 C1573 1.363 . S
C1572 C1578 1.379 . S
C1572 N1580 1.356 . S
C1573 C1572 1.363 . S
C1573 C1579 1.363 . S
C1574 C1575 1.363 . S
C1574 C1579 1.379 . S
C1574 N1581 1.356 . S
C1575 C1574 1.363 . S
C1575 C1578 1.363 . S
N1576 C1578 1.356 . S
N1576 H1588 0.984 . S
N1576 H1589 0.985 . S
N1577 C1579 1.356 . S
N1577 H1582 0.984 . S
N1577 H1583 0.985 . S
C1578 C1572 1.379 . S
C1578 C1575 1.363 . S
C1578 N1576 1.356 . S
C1579 C1573 1.363 . S
C1579 C1574 1.379 . S
C1579 N1577 1.356 . S
N1580 C1572 1.356 . S
N1580 H1586 0.984 . S
N1580 H1587 0.984 . S
N1581 C1574 1.356 . S
N1581 H1584 0.984 . S
N1581 H1585 0.985 . S
H1582 N1577 0.984 . S
H1583 N1577 0.985 . S
H1584 N1581 0.984 . S
H1585 N1581 0.985 . S
H1586 N1580 0.984 . S
H1587 N1580 0.984 . S
H1588 N1576 0.984 . S
H1589 N1576 0.985 . S
C1590 C1591 1.363 1_565 S
C1590 C1596 1.379 . S
C1590 N1598 1.356 . S
C1591 C1590 1.363 1_545 S
C1591 C1597 1.363 . S
C1592 C1593 1.363 . S
C1592 C1597 1.379 . S
C1592 N1599 1.356 . S
C1593 C1592 1.363 . S
C1593 C1596 1.363 1_545 S
N1594 C1596 1.356 . S
N1594 H1606 0.984 . S
N1594 H1607 0.985 . S
N1595 C1597 1.356 . S
N1595 H1600 0.984 . S
N1595 H1601 0.985 . S
C1596 C1590 1.379 . S
C1596 C1593 1.363 1_565 S
C1596 N1594 1.356 . S
C1597 C1591 1.363 . S
C1597 C1592 1.379 . S
C1597 N1595 1.356 . S
N1598 C1590 1.356 . S
N1598 H1604 0.984 . S
N1598 H1605 0.984 . S
N1599 C1592 1.356 . S
N1599 H1602 0.984 . S
N1599 H1603 0.985 . S
H1600 N1595 0.984 . S
H1601 N1595 0.985 . S
H1602 N1599 0.984 . S
H1603 N1599 0.985 . S
H1604 N1598 0.984 . S
H1605 N1598 0.984 . S
H1606 N1594 0.984 . S
H1607 N1594 0.985 . S
C1608 C1609 1.363 1_545 S
C1608 C1614 1.379 . S
C1608 N1616 1.356 . S
C1609 C1608 1.363 1_565 S
C1609 C1615 1.363 . S
C1610 C1611 1.363 . S
C1610 C1615 1.379 . S
C1610 N1617 1.356 . S
C1611 C1610 1.363 . S
C1611 C1614 1.363 1_565 S
N1612 C1614 1.356 . S
N1612 H1624 0.984 . S
N1612 H1625 0.985 . S
N1613 C1615 1.356 . S
N1613 H1618 0.984 . S
N1613 H1619 0.985 . S
C1614 C1608 1.379 . S
C1614 C1611 1.363 1_545 S
C1614 N1612 1.356 . S
C1615 C1609 1.363 . S
C1615 C1610 1.379 . S
C1615 N1613 1.356 . S
N1616 C1608 1.356 . S
N1616 H1622 0.984 . S
N1616 H1623 0.984 . S
N1617 C1610 1.356 . S
N1617 H1620 0.984 . S
N1617 H1621 0.985 . S
H1618 N1613 0.984 . S
H1619 N1613 0.985 . S
H1620 N1617 0.984 . S
H1621 N1617 0.985 . S
H1622 N1616 0.984 . S
H1623 N1616 0.984 . S
H1624 N1612 0.984 . S
H1625 N1612 0.985 . S
C1626 C1627 1.363 . S
C1626 C1632 1.379 . S
C1626 N1634 1.356 . S
C1627 C1626 1.363 . S
C1627 C1633 1.363 . S
C1628 C1629 1.363 . S
C1628 C1633 1.379 . S
C1628 N1635 1.356 . S
C1629 C1628 1.363 . S
C1629 C1632 1.363 . S
N1630 C1632 1.356 . S
N1630 H1642 0.984 . S
N1630 H1643 0.985 . S
N1631 C1633 1.356 . S
N1631 H1636 0.984 . S
N1631 H1637 0.985 . S
C1632 C1626 1.379 . S
C1632 C1629 1.363 . S
C1632 N1630 1.356 . S
C1633 C1627 1.363 . S
C1633 C1628 1.379 . S
C1633 N1631 1.356 . S
N1634 C1626 1.356 . S
N1634 H1640 0.984 . S
N1634 H1641 0.984 . S
N1635 C1628 1.356 . S
N1635 H1638 0.984 . S
N1635 H1639 0.985 . S
H1636 N1631 0.984 . S
H1637 N1631 0.985 . S
H1638 N1635 0.984 . S
H1639 N1635 0.985 . S
H1640 N1634 0.984 . S
H1641 N1634 0.984 . S
H1642 N1630 0.984 . S
H1643 N1630 0.985 . S
C1644 C1645 1.363 . S
C1644 C1650 1.379 . S
C1644 N1652 1.356 . S
C1645 C1644 1.363 . S
C1645 C1651 1.363 . S
C1646 C1647 1.363 . S
C1646 C1651 1.379 . S
C1646 N1653 1.356 . S
C1647 C1646 1.363 . S
C1647 C1650 1.363 . S
N1648 C1650 1.356 . S
N1648 H1660 0.984 . S
N1648 H1661 0.985 . S
N1649 C1651 1.356 . S
N1649 H1654 0.984 . S
N1649 H1655 0.985 . S
C1650 C1644 1.379 . S
C1650 C1647 1.363 . S
C1650 N1648 1.356 . S
C1651 C1645 1.363 . S
C1651 C1646 1.379 . S
C1651 N1649 1.356 . S
N1652 C1644 1.356 . S
N1652 H1658 0.984 . S
N1652 H1659 0.984 . S
N1653 C1646 1.356 . S
N1653 H1656 0.984 . S
N1653 H1657 0.985 . S
H1654 N1649 0.984 . S
H1655 N1649 0.985 . S
H1656 N1653 0.984 . S
H1657 N1653 0.985 . S
H1658 N1652 0.984 . S
H1659 N1652 0.984 . S
H1660 N1648 0.984 . S
H1661 N1648 0.985 . S
C1662 C1663 1.363 1_545 S
C1662 C1668 1.379 . S
C1662 N1670 1.356 . S
C1663 C1662 1.363 1_565 S
C1663 C1669 1.363 . S
C1664 C1665 1.363 . S
C1664 C1669 1.379 . S
C1664 N1671 1.356 . S
C1665 C1664 1.363 . S
C1665 C1668 1.363 1_565 S
N1666 C1668 1.356 . S
N1666 H1678 0.984 . S
N1666 H1679 0.985 . S
N1667 C1669 1.356 . S
N1667 H1672 0.984 . S
N1667 H1673 0.985 . S
C1668 C1662 1.379 . S
C1668 C1665 1.363 1_545 S
C1668 N1666 1.356 . S
C1669 C1663 1.363 . S
C1669 C1664 1.379 . S
C1669 N1667 1.356 . S
N1670 C1662 1.356 . S
N1670 H1676 0.984 . S
N1670 H1677 0.984 . S
N1671 C1664 1.356 . S
N1671 H1674 0.984 . S
N1671 H1675 0.985 . S
H1672 N1667 0.984 . S
H1673 N1667 0.985 . S
H1674 N1671 0.984 . S
H1675 N1671 0.985 . S
H1676 N1670 0.984 . S
H1677 N1670 0.984 . S
H1678 N1666 0.984 . S
H1679 N1666 0.985 . S
C1680 C1681 1.363 . S
C1680 C1686 1.379 . S
C1680 N1688 1.356 . S
C1681 C1680 1.363 . S
C1681 C1687 1.363 . S
C1682 C1683 1.363 . S
C1682 C1687 1.379 . S
C1682 N1689 1.356 . S
C1683 C1682 1.363 . S
C1683 C1686 1.363 . S
N1684 C1686 1.356 . S
N1684 H1696 0.984 . S
N1684 H1697 0.985 . S
N1685 C1687 1.356 . S
N1685 H1690 0.984 . S
N1685 H1691 0.985 . S
C1686 C1680 1.379 . S
C1686 C1683 1.363 . S
C1686 N1684 1.356 . S
C1687 C1681 1.363 . S
C1687 C1682 1.379 . S
C1687 N1685 1.356 . S
N1688 C1680 1.356 . S
N1688 H1694 0.984 . S
N1688 H1695 0.984 . S
N1689 C1682 1.356 . S
N1689 H1692 0.984 . S
N1689 H1693 0.985 . S
H1690 N1685 0.984 . S
H1691 N1685 0.985 . S
H1692 N1689 0.984 . S
H1693 N1689 0.985 . S
H1694 N1688 0.984 . S
H1695 N1688 0.984 . S
H1696 N1684 0.984 . S
H1697 N1684 0.985 . S
C1698 C1699 1.363 . S
C1698 C1704 1.379 . S
C1698 N1706 1.356 . S
C1699 C1698 1.363 . S
C1699 C1705 1.363 . S
C1700 C1701 1.363 . S
C1700 C1705 1.379 . S
C1700 N1707 1.356 . S
C1701 C1700 1.363 . S
C1701 C1704 1.363 . S
N1702 C1704 1.356 . S
N1702 H1714 0.984 . S
N1702 H1715 0.985 . S
N1703 C1705 1.356 . S
N1703 H1708 0.984 . S
N1703 H1709 0.985 . S
C1704 C1698 1.379 . S
C1704 C1701 1.363 . S
C1704 N1702 1.356 . S
C1705 C1699 1.363 . S
C1705 C1700 1.379 . S
C1705 N1703 1.356 . S
N1706 C1698 1.356 . S
N1706 H1712 0.984 . S
N1706 H1713 0.984 . S
N1707 C1700 1.356 . S
N1707 H1710 0.984 . S
N1707 H1711 0.985 . S
H1708 N1703 0.984 . S
H1709 N1703 0.985 . S
H1710 N1707 0.984 . S
H1711 N1707 0.985 . S
H1712 N1706 0.984 . S
H1713 N1706 0.984 . S
H1714 N1702 0.984 . S
H1715 N1702 0.985 . S
C1716 C1717 1.363 . S
C1716 C1722 1.379 . S
C1716 N1724 1.356 . S
C1717 C1716 1.363 . S
C1717 C1723 1.363 . S
C1718 C1719 1.363 . S
C1718 C1723 1.379 . S
C1718 N1725 1.356 . S
C1719 C1718 1.363 . S
C1719 C1722 1.363 . S
N1720 C1722 1.356 . S
N1720 H1732 0.984 . S
N1720 H1733 0.985 . S
N1721 C1723 1.356 . S
N1721 H1726 0.984 . S
N1721 H1727 0.985 . S
C1722 C1716 1.379 . S
C1722 C1719 1.363 . S
C1722 N1720 1.356 . S
C1723 C1717 1.363 . S
C1723 C1718 1.379 . S
C1723 N1721 1.356 . S
N1724 C1716 1.356 . S
N1724 H1730 0.984 . S
N1724 H1731 0.984 . S
N1725 C1718 1.356 . S
N1725 H1728 0.984 . S
N1725 H1729 0.985 . S
H1726 N1721 0.984 . S
H1727 N1721 0.985 . S
H1728 N1725 0.984 . S
H1729 N1725 0.985 . S
H1730 N1724 0.984 . S
H1731 N1724 0.984 . S
H1732 N1720 0.984 . S
H1733 N1720 0.985 . S
C1734 C1735 1.363 . S
C1734 C1740 1.379 . S
C1734 N1742 1.356 . S
C1735 C1734 1.363 . S
C1735 C1741 1.363 . S
C1736 C1737 1.363 . S
C1736 C1741 1.379 . S
C1736 N1743 1.356 . S
C1737 C1736 1.363 . S
C1737 C1740 1.363 . S
N1738 C1740 1.356 . S
N1738 H1750 0.984 . S
N1738 H1751 0.985 . S
N1739 C1741 1.356 . S
N1739 H1744 0.984 . S
N1739 H1745 0.985 . S
C1740 C1734 1.379 . S
C1740 C1737 1.363 . S
C1740 N1738 1.356 . S
C1741 C1735 1.363 . S
C1741 C1736 1.379 . S
C1741 N1739 1.356 . S
N1742 C1734 1.356 . S
N1742 H1748 0.984 . S
N1742 H1749 0.984 . S
N1743 C1736 1.356 . S
N1743 H1746 0.984 . S
N1743 H1747 0.985 . S
H1744 N1739 0.984 . S
H1745 N1739 0.985 . S
H1746 N1743 0.984 . S
H1747 N1743 0.985 . S
H1748 N1742 0.984 . S
H1749 N1742 0.984 . S
H1750 N1738 0.984 . S
H1751 N1738 0.985 . S
C1752 C1753 1.363 . S
C1752 C1758 1.379 . S
C1752 N1760 1.356 . S
C1753 C1752 1.363 . S
C1753 C1759 1.363 . S
C1754 C1755 1.363 . S
C1754 C1759 1.379 . S
C1754 N1761 1.356 . S
C1755 C1754 1.363 . S
C1755 C1758 1.363 . S
N1756 C1758 1.356 . S
N1756 H1768 0.984 . S
N1756 H1769 0.985 . S
N1757 C1759 1.356 . S
N1757 H1762 0.984 . S
N1757 H1763 0.985 . S
C1758 C1752 1.379 . S
C1758 C1755 1.363 . S
C1758 N1756 1.356 . S
C1759 C1753 1.363 . S
C1759 C1754 1.379 . S
C1759 N1757 1.356 . S
N1760 C1752 1.356 . S
N1760 H1766 0.984 . S
N1760 H1767 0.984 . S
N1761 C1754 1.356 . S
N1761 H1764 0.984 . S
N1761 H1765 0.985 . S
H1762 N1757 0.984 . S
H1763 N1757 0.985 . S
H1764 N1761 0.984 . S
H1765 N1761 0.985 . S
H1766 N1760 0.984 . S
H1767 N1760 0.984 . S
H1768 N1756 0.984 . S
H1769 N1756 0.985 . S
C1770 C1771 1.363 . S
C1770 C1776 1.379 . S
C1770 N1778 1.356 . S
C1771 C1770 1.363 . S
C1771 C1777 1.363 . S
C1772 C1773 1.363 . S
C1772 C1777 1.379 . S
C1772 N1779 1.356 . S
C1773 C1772 1.363 . S
C1773 C1776 1.363 . S
N1774 C1776 1.356 . S
N1774 H1786 0.984 . S
N1774 H1787 0.985 . S
N1775 C1777 1.356 . S
N1775 H1780 0.984 . S
N1775 H1781 0.985 . S
C1776 C1770 1.379 . S
C1776 C1773 1.363 . S
C1776 N1774 1.356 . S
C1777 C1771 1.363 . S
C1777 C1772 1.379 . S
C1777 N1775 1.356 . S
N1778 C1770 1.356 . S
N1778 H1784 0.984 . S
N1778 H1785 0.984 . S
N1779 C1772 1.356 . S
N1779 H1782 0.984 . S
N1779 H1783 0.985 . S
H1780 N1775 0.984 . S
H1781 N1775 0.985 . S
H1782 N1779 0.984 . S
H1783 N1779 0.985 . S
H1784 N1778 0.984 . S
H1785 N1778 0.984 . S
H1786 N1774 0.984 . S
H1787 N1774 0.985 . S
C1788 C1789 1.363 . S
C1788 C1794 1.379 . S
C1788 N1796 1.356 . S
C1789 C1788 1.363 . S
C1789 C1795 1.363 . S
C1790 C1791 1.363 . S
C1790 C1795 1.379 . S
C1790 N1797 1.356 . S
C1791 C1790 1.363 . S
C1791 C1794 1.363 . S
N1792 C1794 1.356 . S
N1792 H1804 0.984 . S
N1792 H1805 0.985 . S
N1793 C1795 1.356 . S
N1793 H1798 0.984 . S
N1793 H1799 0.985 . S
C1794 C1788 1.379 . S
C1794 C1791 1.363 . S
C1794 N1792 1.356 . S
C1795 C1789 1.363 . S
C1795 C1790 1.379 . S
C1795 N1793 1.356 . S
N1796 C1788 1.356 . S
N1796 H1802 0.984 . S
N1796 H1803 0.984 . S
N1797 C1790 1.356 . S
N1797 H1800 0.984 . S
N1797 H1801 0.985 . S
H1798 N1793 0.984 . S
H1799 N1793 0.985 . S
H1800 N1797 0.984 . S
H1801 N1797 0.985 . S
H1802 N1796 0.984 . S
H1803 N1796 0.984 . S
H1804 N1792 0.984 . S
H1805 N1792 0.985 . S
C1806 C1807 1.363 . S
C1806 C1812 1.379 . S
C1806 N1814 1.356 . S
C1807 C1806 1.363 . S
C1807 C1813 1.363 . S
C1808 C1809 1.363 . S
C1808 C1813 1.379 . S
C1808 N1815 1.356 . S
C1809 C1808 1.363 . S
C1809 C1812 1.363 . S
N1810 C1812 1.356 . S
N1810 H1822 0.984 . S
N1810 H1823 0.985 . S
N1811 C1813 1.356 . S
N1811 H1816 0.984 . S
N1811 H1817 0.985 . S
C1812 C1806 1.379 . S
C1812 C1809 1.363 . S
C1812 N1810 1.356 . S
C1813 C1807 1.363 . S
C1813 C1808 1.379 . S
C1813 N1811 1.356 . S
N1814 C1806 1.356 . S
N1814 H1820 0.984 . S
N1814 H1821 0.984 . S
N1815 C1808 1.356 . S
N1815 H1818 0.984 . S
N1815 H1819 0.985 . S
H1816 N1811 0.984 . S
H1817 N1811 0.985 . S
H1818 N1815 0.984 . S
H1819 N1815 0.985 . S
H1820 N1814 0.984 . S
H1821 N1814 0.984 . S
H1822 N1810 0.984 . S
H1823 N1810 0.985 . S
C1824 C1825 1.363 . S
C1824 C1830 1.379 . S
C1824 N1832 1.356 . S
C1825 C1824 1.363 . S
C1825 C1831 1.363 . S
C1826 C1827 1.363 . S
C1826 C1831 1.379 . S
C1826 N1833 1.356 . S
C1827 C1826 1.363 . S
C1827 C1830 1.363 . S
N1828 C1830 1.356 . S
N1828 H1840 0.984 . S
N1828 H1841 0.985 . S
N1829 C1831 1.356 . S
N1829 H1834 0.984 . S
N1829 H1835 0.985 . S
C1830 C1824 1.379 . S
C1830 C1827 1.363 . S
C1830 N1828 1.356 . S
C1831 C1825 1.363 . S
C1831 C1826 1.379 . S
C1831 N1829 1.356 . S
N1832 C1824 1.356 . S
N1832 H1838 0.984 . S
N1832 H1839 0.984 . S
N1833 C1826 1.356 . S
N1833 H1836 0.984 . S
N1833 H1837 0.985 . S
H1834 N1829 0.984 . S
H1835 N1829 0.985 . S
H1836 N1833 0.984 . S
H1837 N1833 0.985 . S
H1838 N1832 0.984 . S
H1839 N1832 0.984 . S
H1840 N1828 0.984 . S
H1841 N1828 0.985 . S
C1842 C1843 1.363 . S
C1842 C1848 1.379 . S
C1842 N1850 1.356 . S
C1843 C1842 1.363 . S
C1843 C1849 1.363 . S
C1844 C1845 1.363 . S
C1844 C1849 1.379 . S
C1844 N1851 1.356 . S
C1845 C1844 1.363 . S
C1845 C1848 1.363 . S
N1846 C1848 1.356 . S
N1846 H1858 0.984 . S
N1846 H1859 0.985 . S
N1847 C1849 1.356 . S
N1847 H1852 0.984 . S
N1847 H1853 0.985 . S
C1848 C1842 1.379 . S
C1848 C1845 1.363 . S
C1848 N1846 1.356 . S
C1849 C1843 1.363 . S
C1849 C1844 1.379 . S
C1849 N1847 1.356 . S
N1850 C1842 1.356 . S
N1850 H1856 0.984 . S
N1850 H1857 0.984 . S
N1851 C1844 1.356 . S
N1851 H1854 0.984 . S
N1851 H1855 0.985 . S
H1852 N1847 0.984 . S
H1853 N1847 0.985 . S
H1854 N1851 0.984 . S
H1855 N1851 0.985 . S
H1856 N1850 0.984 . S
H1857 N1850 0.984 . S
H1858 N1846 0.984 . S
H1859 N1846 0.985 . S
C1860 C1861 1.363 . S
C1860 C1866 1.379 . S
C1860 N1868 1.356 . S
C1861 C1860 1.363 . S
C1861 C1867 1.363 . S
C1862 C1863 1.363 . S
C1862 C1867 1.379 . S
C1862 N1869 1.356 . S
C1863 C1862 1.363 . S
C1863 C1866 1.363 . S
N1864 C1866 1.356 . S
N1864 H1876 0.984 . S
N1864 H1877 0.985 . S
N1865 C1867 1.356 . S
N1865 H1870 0.984 . S
N1865 H1871 0.985 . S
C1866 C1860 1.379 . S
C1866 C1863 1.363 . S
C1866 N1864 1.356 . S
C1867 C1861 1.363 . S
C1867 C1862 1.379 . S
C1867 N1865 1.356 . S
N1868 C1860 1.356 . S
N1868 H1874 0.984 . S
N1868 H1875 0.984 . S
N1869 C1862 1.356 . S
N1869 H1872 0.984 . S
N1869 H1873 0.985 . S
H1870 N1865 0.984 . S
H1871 N1865 0.985 . S
H1872 N1869 0.984 . S
H1873 N1869 0.985 . S
H1874 N1868 0.984 . S
H1875 N1868 0.984 . S
H1876 N1864 0.984 . S
H1877 N1864 0.985 . S
C1878 C1879 1.363 . S
C1878 C1884 1.379 . S
C1878 N1886 1.356 . S
C1879 C1878 1.363 . S
C1879 C1885 1.363 . S
C1880 C1881 1.363 . S
C1880 C1885 1.379 . S
C1880 N1887 1.356 . S
C1881 C1880 1.363 . S
C1881 C1884 1.363 . S
N1882 C1884 1.356 . S
N1882 H1894 0.984 . S
N1882 H1895 0.985 . S
N1883 C1885 1.356 . S
N1883 H1888 0.984 . S
N1883 H1889 0.985 . S
C1884 C1878 1.379 . S
C1884 C1881 1.363 . S
C1884 N1882 1.356 . S
C1885 C1879 1.363 . S
C1885 C1880 1.379 . S
C1885 N1883 1.356 . S
N1886 C1878 1.356 . S
N1886 H1892 0.984 . S
N1886 H1893 0.984 . S
N1887 C1880 1.356 . S
N1887 H1890 0.984 . S
N1887 H1891 0.985 . S
H1888 N1883 0.984 . S
H1889 N1883 0.985 . S
H1890 N1887 0.984 . S
H1891 N1887 0.985 . S
H1892 N1886 0.984 . S
H1893 N1886 0.984 . S
H1894 N1882 0.984 . S
H1895 N1882 0.985 . S
C1896 C1897 1.363 . S
C1896 C1902 1.379 . S
C1896 N1904 1.356 . S
C1897 C1896 1.363 . S
C1897 C1903 1.363 . S
C1898 C1899 1.363 . S
C1898 C1903 1.379 . S
C1898 N1905 1.356 . S
C1899 C1898 1.363 . S
C1899 C1902 1.363 . S
N1900 C1902 1.356 . S
N1900 H1912 0.984 . S
N1900 H1913 0.985 . S
N1901 C1903 1.356 . S
N1901 H1906 0.984 . S
N1901 H1907 0.985 . S
C1902 C1896 1.379 . S
C1902 C1899 1.363 . S
C1902 N1900 1.356 . S
C1903 C1897 1.363 . S
C1903 C1898 1.379 . S
C1903 N1901 1.356 . S
N1904 C1896 1.356 . S
N1904 H1910 0.984 . S
N1904 H1911 0.984 . S
N1905 C1898 1.356 . S
N1905 H1908 0.984 . S
N1905 H1909 0.985 . S
H1906 N1901 0.984 . S
H1907 N1901 0.985 . S
H1908 N1905 0.984 . S
H1909 N1905 0.985 . S
H1910 N1904 0.984 . S
H1911 N1904 0.984 . S
H1912 N1900 0.984 . S
H1913 N1900 0.985 . S
C1914 C1915 1.363 . S
C1914 C1920 1.379 . S
C1914 N1922 1.356 . S
C1915 C1914 1.363 . S
C1915 C1921 1.363 . S
C1916 C1917 1.363 . S
C1916 C1921 1.379 . S
C1916 N1923 1.356 . S
C1917 C1916 1.363 . S
C1917 C1920 1.363 . S
N1918 C1920 1.356 . S
N1918 H1930 0.984 . S
N1918 H1931 0.985 . S
N1919 C1921 1.356 . S
N1919 H1924 0.984 . S
N1919 H1925 0.985 . S
C1920 C1914 1.379 . S
C1920 C1917 1.363 . S
C1920 N1918 1.356 . S
C1921 C1915 1.363 . S
C1921 C1916 1.379 . S
C1921 N1919 1.356 . S
N1922 C1914 1.356 . S
N1922 H1928 0.984 . S
N1922 H1929 0.984 . S
N1923 C1916 1.356 . S
N1923 H1926 0.984 . S
N1923 H1927 0.985 . S
H1924 N1919 0.984 . S
H1925 N1919 0.985 . S
H1926 N1923 0.984 . S
H1927 N1923 0.985 . S
H1928 N1922 0.984 . S
H1929 N1922 0.984 . S
H1930 N1918 0.984 . S
H1931 N1918 0.985 . S
C1932 C1933 1.363 . S
C1932 C1938 1.379 . S
C1932 N1940 1.356 . S
C1933 C1932 1.363 . S
C1933 C1939 1.363 . S
C1934 C1935 1.363 . S
C1934 C1939 1.379 . S
C1934 N1941 1.356 . S
C1935 C1934 1.363 . S
C1935 C1938 1.363 . S
N1936 C1938 1.356 . S
N1936 H1948 0.984 . S
N1936 H1949 0.985 . S
N1937 C1939 1.356 . S
N1937 H1942 0.984 . S
N1937 H1943 0.985 . S
C1938 C1932 1.379 . S
C1938 C1935 1.363 . S
C1938 N1936 1.356 . S
C1939 C1933 1.363 . S
C1939 C1934 1.379 . S
C1939 N1937 1.356 . S
N1940 C1932 1.356 . S
N1940 H1946 0.984 . S
N1940 H1947 0.984 . S
N1941 C1934 1.356 . S
N1941 H1944 0.984 . S
N1941 H1945 0.985 . S
H1942 N1937 0.984 . S
H1943 N1937 0.985 . S
H1944 N1941 0.984 . S
H1945 N1941 0.985 . S
H1946 N1940 0.984 . S
H1947 N1940 0.984 . S
H1948 N1936 0.984 . S
H1949 N1936 0.985 . S
C1950 C1951 1.363 . S
C1950 C1956 1.379 . S
C1950 N1958 1.356 . S
C1951 C1950 1.363 . S
C1951 C1957 1.363 . S
C1952 C1953 1.363 . S
C1952 C1957 1.379 . S
C1952 N1959 1.356 . S
C1953 C1952 1.363 . S
C1953 C1956 1.363 . S
N1954 C1956 1.356 . S
N1954 H1966 0.984 . S
N1954 H1967 0.985 . S
N1955 C1957 1.356 . S
N1955 H1960 0.984 . S
N1955 H1961 0.985 . S
C1956 C1950 1.379 . S
C1956 C1953 1.363 . S
C1956 N1954 1.356 . S
C1957 C1951 1.363 . S
C1957 C1952 1.379 . S
C1957 N1955 1.356 . S
N1958 C1950 1.356 . S
N1958 H1964 0.984 . S
N1958 H1965 0.984 . S
N1959 C1952 1.356 . S
N1959 H1962 0.984 . S
N1959 H1963 0.985 . S
H1960 N1955 0.984 . S
H1961 N1955 0.985 . S
H1962 N1959 0.984 . S
H1963 N1959 0.985 . S
H1964 N1958 0.984 . S
H1965 N1958 0.984 . S
H1966 N1954 0.984 . S
H1967 N1954 0.985 . S
C1968 C1969 1.363 . S
C1968 C1974 1.379 . S
C1968 N1976 1.356 . S
C1969 C1968 1.363 . S
C1969 C1975 1.363 . S
C1970 C1971 1.363 . S
C1970 C1975 1.379 . S
C1970 N1977 1.356 . S
C1971 C1970 1.363 . S
C1971 C1974 1.363 . S
N1972 C1974 1.356 . S
N1972 H1984 0.984 . S
N1972 H1985 0.985 . S
N1973 C1975 1.356 . S
N1973 H1978 0.984 . S
N1973 H1979 0.985 . S
C1974 C1968 1.379 . S
C1974 C1971 1.363 . S
C1974 N1972 1.356 . S
C1975 C1969 1.363 . S
C1975 C1970 1.379 . S
C1975 N1973 1.356 . S
N1976 C1968 1.356 . S
N1976 H1982 0.984 . S
N1976 H1983 0.984 . S
N1977 C1970 1.356 . S
N1977 H1980 0.984 . S
N1977 H1981 0.985 . S
H1978 N1973 0.984 . S
H1979 N1973 0.985 . S
H1980 N1977 0.984 . S
H1981 N1977 0.985 . S
H1982 N1976 0.984 . S
H1983 N1976 0.984 . S
H1984 N1972 0.984 . S
H1985 N1972 0.985 . S
C1986 C1987 1.363 . S
C1986 C1992 1.379 . S
C1986 N1994 1.356 . S
C1987 C1986 1.363 . S
C1987 C1993 1.363 . S
C1988 C1989 1.363 . S
C1988 C1993 1.379 . S
C1988 N1995 1.356 . S
C1989 C1988 1.363 . S
C1989 C1992 1.363 . S
N1990 C1992 1.356 . S
N1990 H2002 0.984 . S
N1990 H2003 0.985 . S
N1991 C1993 1.356 . S
N1991 H1996 0.984 . S
N1991 H1997 0.985 . S
C1992 C1986 1.379 . S
C1992 C1989 1.363 . S
C1992 N1990 1.356 . S
C1993 C1987 1.363 . S
C1993 C1988 1.379 . S
C1993 N1991 1.356 . S
N1994 C1986 1.356 . S
N1994 H2000 0.984 . S
N1994 H2001 0.984 . S
N1995 C1988 1.356 . S
N1995 H1998 0.984 . S
N1995 H1999 0.985 . S
H1996 N1991 0.984 . S
H1997 N1991 0.985 . S
H1998 N1995 0.984 . S
H1999 N1995 0.985 . S
H2000 N1994 0.984 . S
H2001 N1994 0.984 . S
H2002 N1990 0.984 . S
H2003 N1990 0.985 . S
C2004 C2005 1.363 . S
C2004 C2010 1.379 . S
C2004 N2012 1.356 . S
C2005 C2004 1.363 . S
C2005 C2011 1.363 . S
C2006 C2007 1.363 . S
C2006 C2011 1.379 . S
C2006 N2013 1.356 . S
C2007 C2006 1.363 . S
C2007 C2010 1.363 . S
N2008 C2010 1.356 . S
N2008 H2020 0.984 . S
N2008 H2021 0.985 . S
N2009 C2011 1.356 . S
N2009 H2014 0.984 . S
N2009 H2015 0.985 . S
C2010 C2004 1.379 . S
C2010 C2007 1.363 . S
C2010 N2008 1.356 . S
C2011 C2005 1.363 . S
C2011 C2006 1.379 . S
C2011 N2009 1.356 . S
N2012 C2004 1.356 . S
N2012 H2018 0.984 . S
N2012 H2019 0.984 . S
N2013 C2006 1.356 . S
N2013 H2016 0.984 . S
N2013 H2017 0.985 . S
H2014 N2009 0.984 . S
H2015 N2009 0.985 . S
H2016 N2013 0.984 . S
H2017 N2013 0.985 . S
H2018 N2012 0.984 . S
H2019 N2012 0.984 . S
H2020 N2008 0.984 . S
H2021 N2008 0.985 . S
C2022 C2023 1.363 . S
C2022 C2028 1.379 . S
C2022 N2030 1.356 . S
C2023 C2022 1.363 . S
C2023 C2029 1.363 . S
C2024 C2025 1.363 . S
C2024 C2029 1.379 . S
C2024 N2031 1.356 . S
C2025 C2024 1.363 . S
C2025 C2028 1.363 . S
N2026 C2028 1.356 . S
N2026 H2038 0.984 . S
N2026 H2039 0.985 . S
N2027 C2029 1.356 . S
N2027 H2032 0.984 . S
N2027 H2033 0.985 . S
C2028 C2022 1.379 . S
C2028 C2025 1.363 . S
C2028 N2026 1.356 . S
C2029 C2023 1.363 . S
C2029 C2024 1.379 . S
C2029 N2027 1.356 . S
N2030 C2022 1.356 . S
N2030 H2036 0.984 . S
N2030 H2037 0.984 . S
N2031 C2024 1.356 . S
N2031 H2034 0.984 . S
N2031 H2035 0.985 . S
H2032 N2027 0.984 . S
H2033 N2027 0.985 . S
H2034 N2031 0.984 . S
H2035 N2031 0.985 . S
H2036 N2030 0.984 . S
H2037 N2030 0.984 . S
H2038 N2026 0.984 . S
H2039 N2026 0.985 . S
C2040 C2041 1.363 . S
C2040 C2046 1.379 . S
C2040 N2048 1.356 . S
C2041 C2040 1.363 . S
C2041 C2047 1.363 . S
C2042 C2043 1.363 . S
C2042 C2047 1.379 . S
C2042 N2049 1.356 . S
C2043 C2042 1.363 . S
C2043 C2046 1.363 . S
N2044 C2046 1.356 . S
N2044 H2056 0.984 . S
N2044 H2057 0.985 . S
N2045 C2047 1.356 . S
N2045 H2050 0.984 . S
N2045 H2051 0.985 . S
C2046 C2040 1.379 . S
C2046 C2043 1.363 . S
C2046 N2044 1.356 . S
C2047 C2041 1.363 . S
C2047 C2042 1.379 . S
C2047 N2045 1.356 . S
N2048 C2040 1.356 . S
N2048 H2054 0.984 . S
N2048 H2055 0.984 . S
N2049 C2042 1.356 . S
N2049 H2052 0.984 . S
N2049 H2053 0.985 . S
H2050 N2045 0.984 . S
H2051 N2045 0.985 . S
H2052 N2049 0.984 . S
H2053 N2049 0.985 . S
H2054 N2048 0.984 . S
H2055 N2048 0.984 . S
H2056 N2044 0.984 . S
H2057 N2044 0.985 . S
C2058 C2059 1.363 . S
C2058 C2064 1.379 . S
C2058 N2066 1.356 . S
C2059 C2058 1.363 . S
C2059 C2065 1.363 . S
C2060 C2061 1.363 . S
C2060 C2065 1.379 . S
C2060 N2067 1.356 . S
C2061 C2060 1.363 . S
C2061 C2064 1.363 . S
N2062 C2064 1.356 . S
N2062 H2074 0.984 . S
N2062 H2075 0.985 . S
N2063 C2065 1.356 . S
N2063 H2068 0.984 . S
N2063 H2069 0.985 . S
C2064 C2058 1.379 . S
C2064 C2061 1.363 . S
C2064 N2062 1.356 . S
C2065 C2059 1.363 . S
C2065 C2060 1.379 . S
C2065 N2063 1.356 . S
N2066 C2058 1.356 . S
N2066 H2072 0.984 . S
N2066 H2073 0.984 . S
N2067 C2060 1.356 . S
N2067 H2070 0.984 . S
N2067 H2071 0.985 . S
H2068 N2063 0.984 . S
H2069 N2063 0.985 . S
H2070 N2067 0.984 . S
H2071 N2067 0.985 . S
H2072 N2066 0.984 . S
H2073 N2066 0.984 . S
H2074 N2062 0.984 . S
H2075 N2062 0.985 . S
C2076 C2077 1.363 . S
C2076 C2082 1.379 . S
C2076 N2084 1.356 . S
C2077 C2076 1.363 . S
C2077 C2083 1.363 . S
C2078 C2079 1.363 . S
C2078 C2083 1.379 . S
C2078 N2085 1.356 . S
C2079 C2078 1.363 . S
C2079 C2082 1.363 . S
N2080 C2082 1.356 . S
N2080 H2092 0.984 . S
N2080 H2093 0.985 . S
N2081 C2083 1.356 . S
N2081 H2086 0.984 . S
N2081 H2087 0.985 . S
C2082 C2076 1.379 . S
C2082 C2079 1.363 . S
C2082 N2080 1.356 . S
C2083 C2077 1.363 . S
C2083 C2078 1.379 . S
C2083 N2081 1.356 . S
N2084 C2076 1.356 . S
N2084 H2090 0.984 . S
N2084 H2091 0.984 . S
N2085 C2078 1.356 . S
N2085 H2088 0.984 . S
N2085 H2089 0.985 . S
H2086 N2081 0.984 . S
H2087 N2081 0.985 . S
H2088 N2085 0.984 . S
H2089 N2085 0.985 . S
H2090 N2084 0.984 . S
H2091 N2084 0.984 . S
H2092 N2080 0.984 . S
H2093 N2080 0.985 . S
C2094 C2095 1.363 . S
C2094 C2100 1.379 . S
C2094 N2102 1.356 . S
C2095 C2094 1.363 . S
C2095 C2101 1.363 . S
C2096 C2097 1.363 . S
C2096 C2101 1.379 . S
C2096 N2103 1.356 . S
C2097 C2096 1.363 . S
C2097 C2100 1.363 . S
N2098 C2100 1.356 . S
N2098 H2110 0.984 . S
N2098 H2111 0.985 . S
N2099 C2101 1.356 . S
N2099 H2104 0.984 . S
N2099 H2105 0.985 . S
C2100 C2094 1.379 . S
C2100 C2097 1.363 . S
C2100 N2098 1.356 . S
C2101 C2095 1.363 . S
C2101 C2096 1.379 . S
C2101 N2099 1.356 . S
N2102 C2094 1.356 . S
N2102 H2108 0.984 . S
N2102 H2109 0.984 . S
N2103 C2096 1.356 . S
N2103 H2106 0.984 . S
N2103 H2107 0.985 . S
H2104 N2099 0.984 . S
H2105 N2099 0.985 . S
H2106 N2103 0.984 . S
H2107 N2103 0.985 . S
H2108 N2102 0.984 . S
H2109 N2102 0.984 . S
H2110 N2098 0.984 . S
H2111 N2098 0.985 . S
C2112 C2113 1.363 . S
C2112 C2118 1.379 . S
C2112 N2120 1.356 . S
C2113 C2112 1.363 . S
C2113 C2119 1.363 1_565 S
C2114 C2115 1.363 1_545 S
C2114 C2119 1.379 . S
C2114 N2121 1.356 . S
C2115 C2114 1.363 1_565 S
C2115 C2118 1.363 . S
N2116 C2118 1.356 . S
N2116 H2128 0.984 . S
N2116 H2129 0.985 . S
N2117 C2119 1.356 . S
N2117 H2122 0.984 . S
N2117 H2123 0.985 . S
C2118 C2112 1.379 . S
C2118 C2115 1.363 . S
C2118 N2116 1.356 . S
C2119 C2113 1.363 1_545 S
C2119 C2114 1.379 . S
C2119 N2117 1.356 . S
N2120 C2112 1.356 . S
N2120 H2126 0.984 . S
N2120 H2127 0.984 . S
N2121 C2114 1.356 . S
N2121 H2124 0.984 . S
N2121 H2125 0.985 . S
H2122 N2117 0.984 . S
H2123 N2117 0.985 . S
H2124 N2121 0.984 . S
H2125 N2121 0.985 . S
H2126 N2120 0.984 . S
H2127 N2120 0.984 . S
H2128 N2116 0.984 . S
H2129 N2116 0.985 . S
C2130 C2131 1.363 . S
C2130 C2136 1.379 . S
C2130 N2138 1.356 . S
C2131 C2130 1.363 . S
C2131 C2137 1.363 . S
C2132 C2133 1.363 . S
C2132 C2137 1.379 . S
C2132 N2139 1.356 . S
C2133 C2132 1.363 . S
C2133 C2136 1.363 . S
N2134 C2136 1.356 . S
N2134 H2146 0.984 . S
N2134 H2147 0.985 1_455 S
N2135 C2137 1.356 . S
N2135 H2140 0.984 . S
N2135 H2141 0.985 . S
C2136 C2130 1.379 . S
C2136 C2133 1.363 . S
C2136 N2134 1.356 . S
C2137 C2131 1.363 . S
C2137 C2132 1.379 . S
C2137 N2135 1.356 . S
N2138 C2130 1.356 . S
N2138 H2144 0.984 . S
N2138 H2145 0.984 . S
N2139 C2132 1.356 . S
N2139 H2142 0.984 1_455 S
N2139 H2143 0.985 . S
H2140 N2135 0.984 . S
H2141 N2135 0.985 . S
H2142 N2139 0.984 1_655 S
H2143 N2139 0.985 . S
H2144 N2138 0.984 . S
H2145 N2138 0.984 . S
H2146 N2134 0.984 . S
H2147 N2134 0.985 1_655 S
C2148 C2149 1.363 . S
C2148 C2154 1.379 . S
C2148 N2156 1.356 . S
C2149 C2148 1.363 . S
C2149 C2155 1.363 . S
C2150 C2151 1.363 . S
C2150 C2155 1.379 . S
C2150 N2157 1.356 . S
C2151 C2150 1.363 . S
C2151 C2154 1.363 . S
N2152 C2154 1.356 . S
N2152 H2164 0.984 . S
N2152 H2165 0.985 . S
N2153 C2155 1.356 . S
N2153 H2158 0.984 . S
N2153 H2159 0.985 . S
C2154 C2148 1.379 . S
C2154 C2151 1.363 . S
C2154 N2152 1.356 . S
C2155 C2149 1.363 . S
C2155 C2150 1.379 . S
C2155 N2153 1.356 . S
N2156 C2148 1.356 . S
N2156 H2162 0.984 . S
N2156 H2163 0.984 . S
N2157 C2150 1.356 . S
N2157 H2160 0.984 . S
N2157 H2161 0.985 . S
H2158 N2153 0.984 . S
H2159 N2153 0.985 . S
H2160 N2157 0.984 . S
H2161 N2157 0.985 . S
H2162 N2156 0.984 . S
H2163 N2156 0.984 . S
H2164 N2152 0.984 . S
H2165 N2152 0.985 . S
C2166 C2167 1.363 1_545 S
C2166 C2172 1.379 . S
C2166 N2174 1.356 . S
C2167 C2166 1.363 1_565 S
C2167 C2173 1.363 . S
C2168 C2169 1.363 . S
C2168 C2173 1.379 . S
C2168 N2175 1.356 . S
C2169 C2168 1.363 . S
C2169 C2172 1.363 1_565 S
N2170 C2172 1.356 . S
N2170 H2182 0.984 . S
N2170 H2183 0.985 . S
N2171 C2173 1.356 . S
N2171 H2176 0.984 1_455 S
N2171 H2177 0.985 . S
C2172 C2166 1.379 . S
C2172 C2169 1.363 1_545 S
C2172 N2170 1.356 . S
C2173 C2167 1.363 . S
C2173 C2168 1.379 . S
C2173 N2171 1.356 . S
N2174 C2166 1.356 . S
N2174 H2180 0.984 . S
N2174 H2181 0.984 1_455 S
N2175 C2168 1.356 . S
N2175 H2178 0.984 . S
N2175 H2179 0.985 . S
H2176 N2171 0.984 1_655 S
H2177 N2171 0.985 . S
H2178 N2175 0.984 . S
H2179 N2175 0.985 . S
H2180 N2174 0.984 . S
H2181 N2174 0.984 1_655 S
H2182 N2170 0.984 . S
H2183 N2170 0.985 . S
C2184 C2185 1.363 . S
C2184 C2190 1.379 . S
C2184 N2192 1.356 . S
C2185 C2184 1.363 . S
C2185 C2191 1.363 1_545 S
C2186 C2187 1.363 1_565 S
C2186 C2191 1.379 . S
C2186 N2193 1.356 . S
C2187 C2186 1.363 1_545 S
C2187 C2190 1.363 . S
N2188 C2190 1.356 . S
N2188 H2200 0.984 . S
N2188 H2201 0.985 . S
N2189 C2191 1.356 . S
N2189 H2194 0.984 . S
N2189 H2195 0.985 . S
C2190 C2184 1.379 . S
C2190 C2187 1.363 . S
C2190 N2188 1.356 . S
C2191 C2185 1.363 1_565 S
C2191 C2186 1.379 . S
C2191 N2189 1.356 . S
N2192 C2184 1.356 . S
N2192 H2198 0.984 . S
N2192 H2199 0.984 . S
N2193 C2186 1.356 . S
N2193 H2196 0.984 . S
N2193 H2197 0.985 . S
H2194 N2189 0.984 . S
H2195 N2189 0.985 . S
H2196 N2193 0.984 . S
H2197 N2193 0.985 . S
H2198 N2192 0.984 . S
H2199 N2192 0.984 . S
H2200 N2188 0.984 . S
H2201 N2188 0.985 . S
C2202 C2203 1.363 . S
C2202 C2208 1.379 . S
C2202 N2210 1.356 . S
C2203 C2202 1.363 . S
C2203 C2209 1.363 . S
C2204 C2205 1.363 . S
C2204 C2209 1.379 . S
C2204 N2211 1.356 1_554 S
C2205 C2204 1.363 . S
C2205 C2208 1.363 . S
N2206 C2208 1.356 . S
N2206 H2218 0.984 . S
N2206 H2219 0.985 . S
N2207 C2209 1.356 1_556 S
N2207 H2212 0.984 1_655 S
N2207 H2213 0.985 . S
C2208 C2202 1.379 . S
C2208 C2205 1.363 . S
C2208 N2206 1.356 . S
C2209 C2203 1.363 . S
C2209 C2204 1.379 . S
C2209 N2207 1.356 1_554 S
N2210 C2202 1.356 . S
N2210 H2216 0.984 . S
N2210 H2217 0.984 1_655 S
N2211 C2204 1.356 1_556 S
N2211 H2214 0.984 . S
N2211 H2215 0.985 . S
H2212 N2207 0.984 1_455 S
H2213 N2207 0.985 . S
H2214 N2211 0.984 . S
H2215 N2211 0.985 . S
H2216 N2210 0.984 . S
H2217 N2210 0.984 1_455 S
H2218 N2206 0.984 . S
H2219 N2206 0.985 . S
C2220 C2221 1.363 . S
C2220 C2226 1.379 . S
C2220 N2228 1.356 . S
C2221 C2220 1.363 . S
C2221 C2227 1.363 . S
C2222 C2223 1.363 . S
C2222 C2227 1.379 . S
C2222 N2229 1.356 . S
C2223 C2222 1.363 . S
C2223 C2226 1.363 . S
N2224 C2226 1.356 . S
N2224 H2236 0.984 . S
N2224 H2237 0.985 . S
N2225 C2227 1.356 . S
N2225 H2230 0.984 . S
N2225 H2231 0.985 . S
C2226 C2220 1.379 . S
C2226 C2223 1.363 . S
C2226 N2224 1.356 . S
C2227 C2221 1.363 . S
C2227 C2222 1.379 . S
C2227 N2225 1.356 . S
N2228 C2220 1.356 . S
N2228 H2234 0.984 . S
N2228 H2235 0.984 . S
N2229 C2222 1.356 . S
N2229 H2232 0.984 . S
N2229 H2233 0.985 . S
H2230 N2225 0.984 . S
H2231 N2225 0.985 . S
H2232 N2229 0.984 . S
H2233 N2229 0.985 . S
H2234 N2228 0.984 . S
H2235 N2228 0.984 . S
H2236 N2224 0.984 . S
H2237 N2224 0.985 . S
C2238 C2239 1.363 1_565 S
C2238 C2244 1.379 . S
C2238 N2246 1.356 . S
C2239 C2238 1.363 1_545 S
C2239 C2245 1.363 . S
C2240 C2241 1.363 . S
C2240 C2245 1.379 . S
C2240 N2247 1.356 . S
C2241 C2240 1.363 . S
C2241 C2244 1.363 1_545 S
N2242 C2244 1.356 . S
N2242 H2254 0.984 . S
N2242 H2255 0.985 1_655 S
N2243 C2245 1.356 . S
N2243 H2248 0.984 . S
N2243 H2249 0.985 . S
C2244 C2238 1.379 . S
C2244 C2241 1.363 1_565 S
C2244 N2242 1.356 . S
C2245 C2239 1.363 . S
C2245 C2240 1.379 . S
C2245 N2243 1.356 . S
N2246 C2238 1.356 . S
N2246 H2252 0.984 . S
N2246 H2253 0.984 . S
N2247 C2240 1.356 . S
N2247 H2250 0.984 1_655 S
N2247 H2251 0.985 . S
H2248 N2243 0.984 . S
H2249 N2243 0.985 . S
H2250 N2247 0.984 1_455 S
H2251 N2247 0.985 . S
H2252 N2246 0.984 . S
H2253 N2246 0.984 . S
H2254 N2242 0.984 . S
H2255 N2242 0.985 1_455 S
C2256 C2257 1.363 . S
C2256 C2262 1.379 . S
C2256 N2264 1.356 . S
C2257 C2256 1.363 . S
C2257 C2263 1.363 . S
C2258 C2259 1.363 . S
C2258 C2263 1.379 . S
C2258 N2265 1.356 . S
C2259 C2258 1.363 . S
C2259 C2262 1.363 . S
N2260 C2262 1.356 . S
N2260 H2272 0.984 . S
N2260 H2273 0.985 . S
N2261 C2263 1.356 . S
N2261 H2266 0.984 . S
N2261 H2267 0.985 . S
C2262 C2256 1.379 . S
C2262 C2259 1.363 . S
C2262 N2260 1.356 . S
C2263 C2257 1.363 . S
C2263 C2258 1.379 . S
C2263 N2261 1.356 . S
N2264 C2256 1.356 . S
N2264 H2270 0.984 . S
N2264 H2271 0.984 . S
N2265 C2258 1.356 . S
N2265 H2268 0.984 . S
N2265 H2269 0.985 . S
H2266 N2261 0.984 . S
H2267 N2261 0.985 . S
H2268 N2265 0.984 . S
H2269 N2265 0.985 . S
H2270 N2264 0.984 . S
H2271 N2264 0.984 . S
H2272 N2260 0.984 . S
H2273 N2260 0.985 . S
C2274 C2275 1.363 . S
C2274 C2280 1.379 . S
C2274 N2282 1.356 . S
C2275 C2274 1.363 . S
C2275 C2281 1.363 . S
C2276 C2277 1.363 . S
C2276 C2281 1.379 . S
C2276 N2283 1.356 . S
C2277 C2276 1.363 . S
C2277 C2280 1.363 . S
N2278 C2280 1.356 . S
N2278 H2290 0.984 . S
N2278 H2291 0.985 1_455 S
N2279 C2281 1.356 . S
N2279 H2284 0.984 . S
N2279 H2285 0.985 . S
C2280 C2274 1.379 . S
C2280 C2277 1.363 . S
C2280 N2278 1.356 . S
C2281 C2275 1.363 . S
C2281 C2276 1.379 . S
C2281 N2279 1.356 . S
N2282 C2274 1.356 . S
N2282 H2288 0.984 . S
N2282 H2289 0.984 . S
N2283 C2276 1.356 . S
N2283 H2286 0.984 1_455 S
N2283 H2287 0.985 . S
H2284 N2279 0.984 . S
H2285 N2279 0.985 . S
H2286 N2283 0.984 1_655 S
H2287 N2283 0.985 . S
H2288 N2282 0.984 . S
H2289 N2282 0.984 . S
H2290 N2278 0.984 . S
H2291 N2278 0.985 1_655 S
C2292 C2293 1.363 . S
C2292 C2298 1.379 . S
C2292 N2300 1.356 . S
C2293 C2292 1.363 . S
C2293 C2299 1.363 . S
C2294 C2295 1.363 . S
C2294 C2299 1.379 . S
C2294 N2301 1.356 . S
C2295 C2294 1.363 . S
C2295 C2298 1.363 . S
N2296 C2298 1.356 . S
N2296 H2308 0.984 . S
N2296 H2309 0.985 . S
N2297 C2299 1.356 . S
N2297 H2302 0.984 . S
N2297 H2303 0.985 . S
C2298 C2292 1.379 . S
C2298 C2295 1.363 . S
C2298 N2296 1.356 . S
C2299 C2293 1.363 . S
C2299 C2294 1.379 . S
C2299 N2297 1.356 . S
N2300 C2292 1.356 . S
N2300 H2306 0.984 . S
N2300 H2307 0.984 . S
N2301 C2294 1.356 . S
N2301 H2304 0.984 . S
N2301 H2305 0.985 . S
H2302 N2297 0.984 . S
H2303 N2297 0.985 . S
H2304 N2301 0.984 . S
H2305 N2301 0.985 . S
H2306 N2300 0.984 . S
H2307 N2300 0.984 . S
H2308 N2296 0.984 . S
H2309 N2296 0.985 . S
C2310 C2311 1.363 . S
C2310 C2316 1.379 . S
C2310 N2318 1.356 . S
C2311 C2310 1.363 . S
C2311 C2317 1.363 . S
C2312 C2313 1.363 . S
C2312 C2317 1.379 . S
C2312 N2319 1.356 . S
C2313 C2312 1.363 . S
C2313 C2316 1.363 . S
N2314 C2316 1.356 . S
N2314 H2326 0.984 . S
N2314 H2327 0.985 1_455 S
N2315 C2317 1.356 . S
N2315 H2320 0.984 . S
N2315 H2321 0.985 . S
C2316 C2310 1.379 . S
C2316 C2313 1.363 . S
C2316 N2314 1.356 . S
C2317 C2311 1.363 . S
C2317 C2312 1.379 . S
C2317 N2315 1.356 . S
N2318 C2310 1.356 . S
N2318 H2324 0.984 . S
N2318 H2325 0.984 . S
N2319 C2312 1.356 . S
N2319 H2322 0.984 1_455 S
N2319 H2323 0.985 . S
H2320 N2315 0.984 . S
H2321 N2315 0.985 . S
H2322 N2319 0.984 1_655 S
H2323 N2319 0.985 . S
H2324 N2318 0.984 . S
H2325 N2318 0.984 . S
H2326 N2314 0.984 . S
H2327 N2314 0.985 1_655 S
C2328 C2329 1.363 . S
C2328 C2334 1.379 . S
C2328 N2336 1.356 . S
C2329 C2328 1.363 . S
C2329 C2335 1.363 . S
C2330 C2331 1.363 . S
C2330 C2335 1.379 . S
C2330 N2337 1.356 . S
C2331 C2330 1.363 . S
C2331 C2334 1.363 . S
N2332 C2334 1.356 . S
N2332 H2344 0.984 . S
N2332 H2345 0.985 . S
N2333 C2335 1.356 . S
N2333 H2338 0.984 . S
N2333 H2339 0.985 . S
C2334 C2328 1.379 . S
C2334 C2331 1.363 . S
C2334 N2332 1.356 . S
C2335 C2329 1.363 . S
C2335 C2330 1.379 . S
C2335 N2333 1.356 . S
N2336 C2328 1.356 . S
N2336 H2342 0.984 . S
N2336 H2343 0.984 . S
N2337 C2330 1.356 . S
N2337 H2340 0.984 . S
N2337 H2341 0.985 . S
H2338 N2333 0.984 . S
H2339 N2333 0.985 . S
H2340 N2337 0.984 . S
H2341 N2337 0.985 . S
H2342 N2336 0.984 . S
H2343 N2336 0.984 . S
H2344 N2332 0.984 . S
H2345 N2332 0.985 . S
C2346 C2347 1.363 . S
C2346 C2352 1.379 . S
C2346 N2354 1.356 . S
C2347 C2346 1.363 . S
C2347 C2353 1.363 . S
C2348 C2349 1.363 . S
C2348 C2353 1.379 . S
C2348 N2355 1.356 . S
C2349 C2348 1.363 . S
C2349 C2352 1.363 . S
N2350 C2352 1.356 . S
N2350 H2362 0.984 . S
N2350 H2363 0.985 . S
N2351 C2353 1.356 . S
N2351 H2356 0.984 1_655 S
N2351 H2357 0.985 . S
C2352 C2346 1.379 . S
C2352 C2349 1.363 . S
C2352 N2350 1.356 . S
C2353 C2347 1.363 . S
C2353 C2348 1.379 . S
C2353 N2351 1.356 . S
N2354 C2346 1.356 . S
N2354 H2360 0.984 . S
N2354 H2361 0.984 1_655 S
N2355 C2348 1.356 . S
N2355 H2358 0.984 . S
N2355 H2359 0.985 . S
H2356 N2351 0.984 1_455 S
H2357 N2351 0.985 . S
H2358 N2355 0.984 . S
H2359 N2355 0.985 . S
H2360 N2354 0.984 . S
H2361 N2354 0.984 1_455 S
H2362 N2350 0.984 . S
H2363 N2350 0.985 . S
C2364 C2365 1.363 . S
C2364 C2370 1.379 . S
C2364 N2372 1.356 . S
C2365 C2364 1.363 . S
C2365 C2371 1.363 . S
C2366 C2367 1.363 . S
C2366 C2371 1.379 . S
C2366 N2373 1.356 . S
C2367 C2366 1.363 . S
C2367 C2370 1.363 . S
N2368 C2370 1.356 . S
N2368 H2380 0.984 . S
N2368 H2381 0.985 . S
N2369 C2371 1.356 . S
N2369 H2374 0.984 . S
N2369 H2375 0.985 . S
C2370 C2364 1.379 . S
C2370 C2367 1.363 . S
C2370 N2368 1.356 . S
C2371 C2365 1.363 . S
C2371 C2366 1.379 . S
C2371 N2369 1.356 . S
N2372 C2364 1.356 . S
N2372 H2378 0.984 . S
N2372 H2379 0.984 . S
N2373 C2366 1.356 . S
N2373 H2376 0.984 . S
N2373 H2377 0.985 . S
H2374 N2369 0.984 . S
H2375 N2369 0.985 . S
H2376 N2373 0.984 . S
H2377 N2373 0.985 . S
H2378 N2372 0.984 . S
H2379 N2372 0.984 . S
H2380 N2368 0.984 . S
H2381 N2368 0.985 . S
C2382 C2383 1.363 . S
C2382 C2388 1.379 . S
C2382 N2390 1.356 . S
C2383 C2382 1.363 . S
C2383 C2389 1.363 . S
C2384 C2385 1.363 . S
C2384 C2389 1.379 . S
C2384 N2391 1.356 . S
C2385 C2384 1.363 . S
C2385 C2388 1.363 . S
N2386 C2388 1.356 . S
N2386 H2398 0.984 . S
N2386 H2399 0.985 1_655 S
N2387 C2389 1.356 . S
N2387 H2392 0.984 . S
N2387 H2393 0.985 . S
C2388 C2382 1.379 . S
C2388 C2385 1.363 . S
C2388 N2386 1.356 . S
C2389 C2383 1.363 . S
C2389 C2384 1.379 . S
C2389 N2387 1.356 . S
N2390 C2382 1.356 . S
N2390 H2396 0.984 . S
N2390 H2397 0.984 . S
N2391 C2384 1.356 . S
N2391 H2394 0.984 1_655 S
N2391 H2395 0.985 . S
H2392 N2387 0.984 . S
H2393 N2387 0.985 . S
H2394 N2391 0.984 1_455 S
H2395 N2391 0.985 . S
H2396 N2390 0.984 . S
H2397 N2390 0.984 . S
H2398 N2386 0.984 . S
H2399 N2386 0.985 1_455 S
C2400 C2401 1.363 . S
C2400 C2406 1.379 . S
C2400 N2408 1.356 . S
C2401 C2400 1.363 . S
C2401 C2407 1.363 1_565 S
C2402 C2403 1.363 1_545 S
C2402 C2407 1.379 . S
C2402 N2409 1.356 . S
C2403 C2402 1.363 1_565 S
C2403 C2406 1.363 . S
N2404 C2406 1.356 . S
N2404 H2416 0.984 . S
N2404 H2417 0.985 . S
N2405 C2407 1.356 . S
N2405 H2410 0.984 . S
N2405 H2411 0.985 . S
C2406 C2400 1.379 . S
C2406 C2403 1.363 . S
C2406 N2404 1.356 . S
C2407 C2401 1.363 1_545 S
C2407 C2402 1.379 . S
C2407 N2405 1.356 . S
N2408 C2400 1.356 . S
N2408 H2414 0.984 . S
N2408 H2415 0.984 . S
N2409 C2402 1.356 . S
N2409 H2412 0.984 . S
N2409 H2413 0.985 . S
H2410 N2405 0.984 . S
H2411 N2405 0.985 . S
H2412 N2409 0.984 . S
H2413 N2409 0.985 . S
H2414 N2408 0.984 . S
H2415 N2408 0.984 . S
H2416 N2404 0.984 . S
H2417 N2404 0.985 . S
C2418 C2419 1.363 . S
C2418 C2424 1.379 . S
C2418 N2426 1.356 . S
C2419 C2418 1.363 . S
C2419 C2425 1.363 . S
C2420 C2421 1.363 . S
C2420 C2425 1.379 . S
C2420 N2427 1.356 . S
C2421 C2420 1.363 . S
C2421 C2424 1.363 . S
N2422 C2424 1.356 . S
N2422 H2434 0.984 . S
N2422 H2435 0.985 . S
N2423 C2425 1.356 . S
N2423 H2428 0.984 . S
N2423 H2429 0.985 . S
C2424 C2418 1.379 . S
C2424 C2421 1.363 . S
C2424 N2422 1.356 . S
C2425 C2419 1.363 . S
C2425 C2420 1.379 . S
C2425 N2423 1.356 . S
N2426 C2418 1.356 . S
N2426 H2432 0.984 . S
N2426 H2433 0.984 . S
N2427 C2420 1.356 . S
N2427 H2430 0.984 . S
N2427 H2431 0.985 . S
H2428 N2423 0.984 . S
H2429 N2423 0.985 . S
H2430 N2427 0.984 . S
H2431 N2427 0.985 . S
H2432 N2426 0.984 . S
H2433 N2426 0.984 . S
H2434 N2422 0.984 . S
H2435 N2422 0.985 . S
C2436 C2437 1.363 . S
C2436 C2442 1.379 . S
C2436 N2444 1.356 . S
C2437 C2436 1.363 . S
C2437 C2443 1.363 . S
C2438 C2439 1.363 . S
C2438 C2443 1.379 . S
C2438 N2445 1.356 . S
C2439 C2438 1.363 . S
C2439 C2442 1.363 . S
N2440 C2442 1.356 . S
N2440 H2452 0.984 . S
N2440 H2453 0.985 . S
N2441 C2443 1.356 . S
N2441 H2446 0.984 . S
N2441 H2447 0.985 . S
C2442 C2436 1.379 . S
C2442 C2439 1.363 . S
C2442 N2440 1.356 . S
C2443 C2437 1.363 . S
C2443 C2438 1.379 . S
C2443 N2441 1.356 . S
N2444 C2436 1.356 . S
N2444 H2450 0.984 . S
N2444 H2451 0.984 . S
N2445 C2438 1.356 . S
N2445 H2448 0.984 . S
N2445 H2449 0.985 . S
H2446 N2441 0.984 . S
H2447 N2441 0.985 . S
H2448 N2445 0.984 . S
H2449 N2445 0.985 . S
H2450 N2444 0.984 . S
H2451 N2444 0.984 . S
H2452 N2440 0.984 . S
H2453 N2440 0.985 . S
C2454 C2455 1.363 . S
C2454 C2460 1.379 . S
C2454 N2462 1.356 . S
C2455 C2454 1.363 . S
C2455 C2461 1.363 . S
C2456 C2457 1.363 . S
C2456 C2461 1.379 . S
C2456 N2463 1.356 . S
C2457 C2456 1.363 . S
C2457 C2460 1.363 . S
N2458 C2460 1.356 . S
N2458 H2470 0.984 . S
N2458 H2471 0.985 . S
N2459 C2461 1.356 1_545 S
N2459 H2464 0.984 . S
N2459 H2465 0.985 . S
C2460 C2454 1.379 . S
C2460 C2457 1.363 . S
C2460 N2458 1.356 . S
C2461 C2455 1.363 . S
C2461 C2456 1.379 . S
C2461 N2459 1.356 1_565 S
N2462 C2454 1.356 . S
N2462 H2468 0.984 . S
N2462 H2469 0.984 . S
N2463 C2456 1.356 . S
N2463 H2466 0.984 . S
N2463 H2467 0.981 1_565 S
H2464 N2459 0.984 . S
H2465 N2459 0.985 . S
H2466 N2463 0.984 . S
H2467 N2463 0.981 1_545 S
H2468 N2462 0.984 . S
H2469 N2462 0.984 . S
H2470 N2458 0.984 . S
H2471 N2458 0.985 . S
C2472 C2473 1.363 1_565 S
C2472 C2478 1.379 . S
C2472 N2480 1.356 . S
C2473 C2472 1.363 1_545 S
C2473 C2479 1.363 . S
C2474 C2475 1.363 . S
C2474 C2479 1.379 . S
C2474 N2481 1.356 . S
C2475 C2474 1.363 . S
C2475 C2478 1.363 1_545 S
N2476 C2478 1.356 . S
N2476 H2488 0.984 . S
N2476 H2489 0.985 . S
N2477 C2479 1.356 . S
N2477 H2482 0.984 . S
N2477 H2483 0.985 . S
C2478 C2472 1.379 . S
C2478 C2475 1.363 1_565 S
C2478 N2476 1.356 . S
C2479 C2473 1.363 . S
C2479 C2474 1.379 . S
C2479 N2477 1.356 . S
N2480 C2472 1.356 . S
N2480 H2486 0.984 . S
N2480 H2487 0.984 . S
N2481 C2474 1.356 . S
N2481 H2484 0.984 . S
N2481 H2485 0.985 . S
H2482 N2477 0.984 . S
H2483 N2477 0.985 . S
H2484 N2481 0.984 . S
H2485 N2481 0.985 . S
H2486 N2480 0.984 . S
H2487 N2480 0.984 . S
H2488 N2476 0.984 . S
H2489 N2476 0.985 . S
C2490 C2491 1.363 . S
C2490 C2496 1.379 . S
C2490 N2498 1.356 . S
C2491 C2490 1.363 . S
C2491 C2497 1.363 . S
C2492 C2493 1.363 . S
C2492 C2497 1.379 . S
C2492 N2499 1.356 . S
C2493 C2492 1.363 . S
C2493 C2496 1.363 . S
N2494 C2496 1.356 . S
N2494 H2506 0.984 . S
N2494 H2507 0.985 . S
N2495 C2497 1.356 . S
N2495 H2500 0.984 . S
N2495 H2501 0.985 . S
C2496 C2490 1.379 . S
C2496 C2493 1.363 . S
C2496 N2494 1.356 . S
C2497 C2491 1.363 . S
C2497 C2492 1.379 . S
C2497 N2495 1.356 . S
N2498 C2490 1.356 . S
N2498 H2504 0.984 . S
N2498 H2505 0.984 . S
N2499 C2492 1.356 . S
N2499 H2502 0.984 . S
N2499 H2503 0.985 . S
H2500 N2495 0.984 . S
H2501 N2495 0.985 . S
H2502 N2499 0.984 . S
H2503 N2499 0.985 . S
H2504 N2498 0.984 . S
H2505 N2498 0.984 . S
H2506 N2494 0.984 . S
H2507 N2494 0.985 . S
C2508 C2509 1.363 . S
C2508 C2514 1.379 . S
C2508 N2516 1.356 . S
C2509 C2508 1.363 . S
C2509 C2515 1.363 . S
C2510 C2511 1.363 . S
C2510 C2515 1.379 . S
C2510 N2517 1.356 . S
C2511 C2510 1.363 . S
C2511 C2514 1.363 . S
N2512 C2514 1.356 . S
N2512 H2524 0.984 . S
N2512 H2525 0.985 . S
N2513 C2515 1.356 . S
N2513 H2518 0.984 . S
N2513 H2519 0.985 . S
C2514 C2508 1.379 . S
C2514 C2511 1.363 . S
C2514 N2512 1.356 . S
C2515 C2509 1.363 . S
C2515 C2510 1.379 . S
C2515 N2513 1.356 . S
N2516 C2508 1.356 . S
N2516 H2522 0.984 . S
N2516 H2523 0.984 . S
N2517 C2510 1.356 . S
N2517 H2520 0.984 . S
N2517 H2521 0.985 . S
H2518 N2513 0.984 . S
H2519 N2513 0.985 . S
H2520 N2517 0.984 . S
H2521 N2517 0.985 . S
H2522 N2516 0.984 . S
H2523 N2516 0.984 . S
H2524 N2512 0.984 . S
H2525 N2512 0.985 . S
C2526 C2527 1.363 . S
C2526 C2532 1.379 . S
C2526 N2534 1.356 . S
C2527 C2526 1.363 . S
C2527 C2533 1.363 1_545 S
C2528 C2529 1.363 1_565 S
C2528 C2533 1.379 . S
C2528 N2535 1.356 . S
C2529 C2528 1.363 1_545 S
C2529 C2532 1.363 . S
N2530 C2532 1.356 . S
N2530 H2542 0.984 . S
N2530 H2543 0.985 . S
N2531 C2533 1.356 . S
N2531 H2536 0.984 . S
N2531 H2537 0.985 . S
C2532 C2526 1.379 . S
C2532 C2529 1.363 . S
C2532 N2530 1.356 . S
C2533 C2527 1.363 1_565 S
C2533 C2528 1.379 . S
C2533 N2531 1.356 . S
N2534 C2526 1.356 . S
N2534 H2540 0.984 . S
N2534 H2541 0.984 . S
N2535 C2528 1.356 . S
N2535 H2538 0.984 . S
N2535 H2539 0.985 . S
H2536 N2531 0.984 . S
H2537 N2531 0.985 . S
H2538 N2535 0.984 . S
H2539 N2535 0.985 . S
H2540 N2534 0.984 . S
H2541 N2534 0.984 . S
H2542 N2530 0.984 . S
H2543 N2530 0.985 . S
C2544 C2545 1.363 . S
C2544 C2550 1.379 . S
C2544 N2552 1.356 1_556 S
C2545 C2544 1.363 . S
C2545 C2551 1.363 . S
C2546 C2547 1.363 . S
C2546 C2551 1.379 . S
C2546 N2553 1.356 . S
C2547 C2546 1.363 . S
C2547 C2550 1.363 . S
N2548 C2550 1.356 1_554 S
N2548 H2560 0.984 . S
N2548 H2561 0.985 . S
N2549 C2551 1.356 . S
N2549 H2554 0.984 . S
N2549 H2555 0.985 . S
C2550 C2544 1.379 . S
C2550 C2547 1.363 . S
C2550 N2548 1.356 1_556 S
C2551 C2545 1.363 . S
C2551 C2546 1.379 . S
C2551 N2549 1.356 . S
N2552 C2544 1.356 1_554 S
N2552 H2558 0.984 . S
N2552 H2559 0.984 . S
N2553 C2546 1.356 . S
N2553 H2556 0.984 . S
N2553 H2557 0.985 . S
H2554 N2549 0.984 . S
H2555 N2549 0.985 . S
H2556 N2553 0.984 . S
H2557 N2553 0.985 . S
H2558 N2552 0.984 . S
H2559 N2552 0.984 . S
H2560 N2548 0.984 . S
H2561 N2548 0.985 . S
C2562 C2563 1.363 . S
C2562 C2568 1.379 . S
C2562 N2570 1.356 . S
C2563 C2562 1.363 . S
C2563 C2569 1.363 . S
C2564 C2565 1.363 . S
C2564 C2569 1.379 . S
C2564 N2571 1.356 1_556 S
C2565 C2564 1.363 . S
C2565 C2568 1.363 . S
N2566 C2568 1.356 . S
N2566 H2578 0.984 . S
N2566 H2579 0.985 . S
N2567 C2569 1.356 1_554 S
N2567 H2572 0.994 . S
N2567 H2573 0.985 . S
C2568 C2562 1.379 . S
C2568 C2565 1.363 . S
C2568 N2566 1.356 . S
C2569 C2563 1.363 . S
C2569 C2564 1.379 . S
C2569 N2567 1.356 1_556 S
N2570 C2562 1.356 . S
N2570 H2576 0.984 . S
N2570 H2577 0.984 . S
N2571 C2564 1.356 1_554 S
N2571 H2574 0.984 . S
N2571 H2575 0.985 . S
H2572 N2567 0.994 . S
H2573 N2567 0.985 . S
H2574 N2571 0.984 . S
H2575 N2571 0.985 . S
H2576 N2570 0.984 . S
H2577 N2570 0.984 . S
H2578 N2566 0.984 . S
H2579 N2566 0.985 . S
C2580 C2581 1.363 . S
C2580 C2586 1.379 . S
C2580 N2588 1.356 . S
C2581 C2580 1.363 . S
C2581 C2587 1.363 . S
C2582 C2583 1.363 . S
C2582 C2587 1.379 . S
C2582 N2589 1.356 . S
C2583 C2582 1.363 . S
C2583 C2586 1.363 . S
N2584 C2586 1.356 . S
N2584 H2596 0.984 . S
N2584 H2597 0.985 . S
N2585 C2587 1.356 . S
N2585 H2590 0.984 . S
N2585 H2591 0.985 . S
C2586 C2580 1.379 . S
C2586 C2583 1.363 . S
C2586 N2584 1.356 . S
C2587 C2581 1.363 . S
C2587 C2582 1.379 . S
C2587 N2585 1.356 . S
N2588 C2580 1.356 . S
N2588 H2594 0.984 . S
N2588 H2595 0.984 . S
N2589 C2582 1.356 . S
N2589 H2592 0.984 . S
N2589 H2593 0.985 . S
H2590 N2585 0.984 . S
H2591 N2585 0.985 . S
H2592 N2589 0.984 . S
H2593 N2589 0.985 . S
H2594 N2588 0.984 . S
H2595 N2588 0.984 . S
H2596 N2584 0.984 . S
H2597 N2584 0.985 . S
C2598 C2599 1.363 . S
C2598 C2604 1.379 . S
C2598 N2606 1.356 . S
C2599 C2598 1.363 . S
C2599 C2605 1.363 . S
C2600 C2601 1.363 . S
C2600 C2605 1.379 . S
C2600 N2607 1.356 . S
C2601 C2600 1.363 . S
C2601 C2604 1.363 . S
N2602 C2604 1.356 . S
N2602 H2614 0.984 . S
N2602 H2615 0.985 . S
N2603 C2605 1.356 . S
N2603 H2608 0.984 . S
N2603 H2609 0.985 . S
C2604 C2598 1.379 . S
C2604 C2601 1.363 . S
C2604 N2602 1.356 . S
C2605 C2599 1.363 . S
C2605 C2600 1.379 . S
C2605 N2603 1.356 . S
N2606 C2598 1.356 . S
N2606 H2612 0.984 . S
N2606 H2613 0.984 . S
N2607 C2600 1.356 . S
N2607 H2610 0.984 . S
N2607 H2611 0.985 . S
H2608 N2603 0.984 . S
H2609 N2603 0.985 . S
H2610 N2607 0.984 . S
H2611 N2607 0.985 . S
H2612 N2606 0.984 . S
H2613 N2606 0.984 . S
H2614 N2602 0.984 . S
H2615 N2602 0.985 . S
C2616 C2617 1.363 . S
C2616 C2622 1.379 . S
C2616 N2624 1.356 . S
C2617 C2616 1.363 . S
C2617 C2623 1.363 . S
C2618 C2619 1.363 . S
C2618 C2623 1.379 . S
C2618 N2625 1.356 . S
C2619 C2618 1.363 . S
C2619 C2622 1.363 . S
N2620 C2622 1.356 . S
N2620 H2632 0.984 . S
N2620 H2633 0.985 . S
N2621 C2623 1.356 . S
N2621 H2626 0.984 . S
N2621 H2627 0.985 . S
C2622 C2616 1.379 . S
C2622 C2619 1.363 . S
C2622 N2620 1.356 . S
C2623 C2617 1.363 . S
C2623 C2618 1.379 . S
C2623 N2621 1.356 . S
N2624 C2616 1.356 . S
N2624 H2630 0.984 . S
N2624 H2631 0.984 . S
N2625 C2618 1.356 . S
N2625 H2628 0.984 . S
N2625 H2629 0.985 . S
H2626 N2621 0.984 . S
H2627 N2621 0.985 . S
H2628 N2625 0.984 . S
H2629 N2625 0.985 . S
H2630 N2624 0.984 . S
H2631 N2624 0.984 . S
H2632 N2620 0.984 . S
H2633 N2620 0.985 . S
C2634 C2635 1.363 . S
C2634 C2640 1.379 . S
C2634 N2642 1.356 . S
C2635 C2634 1.363 . S
C2635 C2641 1.363 . S
C2636 C2637 1.363 . S
C2636 C2641 1.379 . S
C2636 N2643 1.356 . S
C2637 C2636 1.363 . S
C2637 C2640 1.363 . S
N2638 C2640 1.356 . S
N2638 H2650 0.984 . S
N2638 H2651 0.985 . S
N2639 C2641 1.356 . S
N2639 H2644 0.984 . S
N2639 H2645 0.985 . S
C2640 C2634 1.379 . S
C2640 C2637 1.363 . S
C2640 N2638 1.356 . S
C2641 C2635 1.363 . S
C2641 C2636 1.379 . S
C2641 N2639 1.356 . S
N2642 C2634 1.356 . S
N2642 H2648 0.984 . S
N2642 H2649 0.984 . S
N2643 C2636 1.356 . S
N2643 H2646 0.984 . S
N2643 H2647 0.985 . S
H2644 N2639 0.984 . S
H2645 N2639 0.985 . S
H2646 N2643 0.984 . S
H2647 N2643 0.985 . S
H2648 N2642 0.984 . S
H2649 N2642 0.984 . S
H2650 N2638 0.984 . S
H2651 N2638 0.985 . S
C2652 C2653 1.363 . S
C2652 C2658 1.379 . S
C2652 N2660 1.356 . S
C2653 C2652 1.363 . S
C2653 C2659 1.363 . S
C2654 C2655 1.363 . S
C2654 C2659 1.379 . S
C2654 N2661 1.356 . S
C2655 C2654 1.363 . S
C2655 C2658 1.363 . S
N2656 C2658 1.356 . S
N2656 H2668 0.984 . S
N2656 H2669 0.985 . S
N2657 C2659 1.356 . S
N2657 H2662 0.984 . S
N2657 H2663 0.985 . S
C2658 C2652 1.379 . S
C2658 C2655 1.363 . S
C2658 N2656 1.356 . S
C2659 C2653 1.363 . S
C2659 C2654 1.379 . S
C2659 N2657 1.356 . S
N2660 C2652 1.356 . S
N2660 H2666 0.984 . S
N2660 H2667 0.984 . S
N2661 C2654 1.356 . S
N2661 H2664 0.984 . S
N2661 H2665 0.985 . S
H2662 N2657 0.984 . S
H2663 N2657 0.985 . S
H2664 N2661 0.984 . S
H2665 N2661 0.985 . S
H2666 N2660 0.984 . S
H2667 N2660 0.984 . S
H2668 N2656 0.984 . S
H2669 N2656 0.985 . S
C2670 C2671 1.363 . S
C2670 C2676 1.379 . S
C2670 N2678 1.356 . S
C2671 C2670 1.363 . S
C2671 C2677 1.363 . S
C2672 C2673 1.363 . S
C2672 C2677 1.379 . S
C2672 N2679 1.356 . S
C2673 C2672 1.363 . S
C2673 C2676 1.363 . S
N2674 C2676 1.356 . S
N2674 H2686 0.984 . S
N2674 H2687 0.985 . S
N2675 C2677 1.356 . S
N2675 H2680 0.984 . S
N2675 H2681 0.985 . S
C2676 C2670 1.379 . S
C2676 C2673 1.363 . S
C2676 N2674 1.356 . S
C2677 C2671 1.363 . S
C2677 C2672 1.379 . S
C2677 N2675 1.356 . S
N2678 C2670 1.356 . S
N2678 H2684 0.984 . S
N2678 H2685 0.984 . S
N2679 C2672 1.356 . S
N2679 H2682 0.984 . S
N2679 H2683 0.985 . S
H2680 N2675 0.984 . S
H2681 N2675 0.985 . S
H2682 N2679 0.984 . S
H2683 N2679 0.985 . S
H2684 N2678 0.984 . S
H2685 N2678 0.984 . S
H2686 N2674 0.984 . S
H2687 N2674 0.985 . S
C961 C751 2.111 . S
C963 C1 2.111 . S
C979 C721 2.111 . S
C981 C31 2.111 . S
C997 C811 2.111 . S
C999 C61 2.111 . S
C1015 C781 2.111 . S
C1017 C91 2.111 . S
C1033 C130 2.111 . S
C1035 C880 2.111 . S
C1051 C160 2.111 . S
C1053 C850 2.111 . S
C1069 C190 2.111 . S
C1071 C940 2.111 . S
C1087 C910 2.111 . S
C1089 C220 2.111 . S
C1105 C511 2.111 . S
C1107 C241 2.111 . S
C1123 C481 2.111 . S
C1125 C271 2.111 . S
C1141 C571 2.111 . S
C1143 C301 2.111 . S
C1159 C541 2.111 . S
C1161 C331 2.111 . S
C1177 C370 2.111 . S
C1179 C640 2.111 . S
C1195 C610 2.111 . S
C1197 C400 2.111 . S
C1213 C430 2.111 . S
C1215 C700 2.111 . S
C1231 C670 2.111 . S
C1233 C460 2.111 . S
C1249 C16 2.840 . S
C1251 C627 2.840 . S
C1267 C417 2.840 . S
C1269 C46 2.840 . S
C1285 C927 2.840 . S
C1287 C76 2.840 . S
C1303 C106 2.840 . S
C1305 C237 2.840 . S
C1321 C147 2.840 . S
C1323 C496 2.840 . S
C1339 C177 2.840 . S
C1341 C286 2.840 . S
C1357 C207 2.840 . S
C1359 C796 2.840 . S
C1375 C867 2.840 . S
C1377 C256 2.840 . S
C1393 C687 2.840 . S
C1395 C316 2.840 . S
C1411 C477 2.840 . S
C1413 C346 2.840 . S
C1429 C736 2.840 . S
C1431 C387 2.840 . S
C1447 C447 2.840 . S
C1449 C556 2.840 . S
C1465 C897 2.840 . S
C1467 C526 2.840 . S
C1483 C586 2.840 . S
C1485 C717 2.840 . S
C1501 C766 2.840 . S
C1503 C657 2.840 . S
C1519 C826 2.840 . S
C1521 C957 2.840 . S
C1537 C27 2.409 . S
C1539 C597 2.409 . S
C1555 C57 2.408 . S
C1557 C567 2.408 . S
C1573 C87 2.408 . S
C1575 C537 2.408 . S
C1591 C117 2.409 . S
C1593 C507 2.409 . S
C1609 C136 2.409 . S
C1611 C706 2.409 . S
C1627 C166 2.408 . S
C1629 C676 2.408 . S
C1645 C196 2.408 . S
C1647 C646 2.408 . S
C1663 C226 2.409 . S
C1665 C616 2.409 . S
C1681 C267 2.408 . S
C1683 C837 2.408 . S
C1699 C297 2.408 . S
C1701 C807 2.408 . S
C1717 C327 2.408 . S
C1719 C777 2.408 . S
C1735 C357 2.409 . S
C1737 C747 2.409 . S
C1753 C946 2.408 . S
C1755 C376 2.408 . S
C1771 C916 2.408 . S
C1773 C406 2.408 . S
C1789 C886 2.408 . S
C1791 C436 2.408 . S
C1807 C856 2.409 . S
C1809 C466 2.409 . S
C1825 C70 1.456 . S
C1827 C10 1.456 . S
C1843 C100 1.457 . S
C1845 C40 1.457 . S
C1861 C181 1.456 . S
C1863 C121 1.456 . S
C1879 C151 1.457 . S
C1881 C211 1.457 . S
C1897 C310 1.456 . S
C1899 C250 1.456 . S
C1915 C280 1.457 . S
C1917 C340 1.457 . S
C1933 C421 1.456 . S
C1935 C361 1.456 . S
C1951 C391 1.457 . S
C1953 C451 1.457 . S
C1969 C490 1.456 . S
C1971 C550 1.456 . S
C1987 C520 1.457 . S
C1989 C580 1.457 . S
C2005 C661 1.456 . S
C2007 C601 1.456 . S
C2023 C631 1.457 . S
C2025 C691 1.457 . S
C2041 C730 1.456 . S
C2043 C790 1.456 . S
C2059 C820 1.456 . S
C2061 C760 1.457 . S
C2077 C841 1.456 . S
C2079 C901 1.456 . S
C2095 C871 1.457 . S
C2097 C931 1.456 . S
C2113 N14 0.751 . S
C2115 N224 0.737 . S
C2131 N914 0.737 . S
C2133 N44 0.736 . S
C2149 N74 0.736 . S
C2151 N404 0.737 . S
C2167 N104 0.751 . S
C2169 N614 0.737 . S
C2185 N96 0.737 . S
C2187 N126 0.751 . S
C2203 N156 0.736 . S
C2205 N786 0.737 . S
C2221 N276 0.737 . S
C2223 N186 0.736 . S
C2239 N486 0.737 . S
C2241 N216 0.751 . S
C2257 N254 0.736 . S
C2259 N464 0.737 . S
C2275 N674 0.737 . S
C2277 N284 0.736 . S
C2293 N314 0.736 . S
C2295 N164 0.737 . S
C2311 N854 0.737 . S
C2313 N344 0.736 . S
C2329 N366 0.736 . S
C2331 N336 0.737 . S
C2347 N396 0.736 . S
C2349 N546 0.737 . S
C2365 N426 0.736 . S
C2367 N36 0.737 . S
C2383 N726 0.737 . S
C2385 N456 0.736 . S
C2401 N494 0.751 . S
C2403 N704 0.737 . S
C2419 N524 0.736 . S
C2421 N434 0.737 . S
C2437 N554 0.736 . S
C2439 N884 0.737 . S
C2455 N584 0.751 . S
C2457 N134 0.737 . S
C2473 N606 0.751 . S
C2475 N576 0.737 . S
C2491 N306 0.737 . S
C2493 N636 0.736 . S
C2509 N756 0.737 . S
C2511 N666 0.736 . S
C2527 N696 0.751 . S
C2529 N6 0.737 . S
C2545 N944 0.737 . S
C2547 N734 0.736 . S
C2563 N194 0.737 . S
C2565 N764 0.736 . S
C2581 N644 0.737 . S
C2583 N794 0.736 . S
C2599 N824 0.736 . S
C2601 N374 0.737 . S
C2617 N816 0.737 . S
C2619 N846 0.736 . S
C2635 N66 0.737 . S
C2637 N876 0.736 . S
C2653 N516 0.737 . S
C2655 N906 0.736 . S
C2671 N936 0.736 . S
C2673 N246 0.737 . S
