# Generated by pormake.
# Topology whz, (6)-cn, num edge types: 1
# Building blocks:
#     Node 0, Type 0, BuildingBlock: FUNLAD_clean_sbu_0, # of connection points: 6
#     Node 1, Type 0, BuildingBlock: FUNLAD_clean_sbu_0, # of connection points: 6
#     Node 2, Type 0, BuildingBlock: FUNLAD_clean_sbu_0, # of connection points: 6
#     Node 3, Type 0, BuildingBlock: FUNLAD_clean_sbu_0, # of connection points: 6
#     Node 4, Type 0, BuildingBlock: FUNLAD_clean_sbu_0, # of connection points: 6
#     Node 5, Type 0, BuildingBlock: FUNLAD_clean_sbu_0, # of connection points: 6
#     Node 6, Type 0, BuildingBlock: FUNLAD_clean_sbu_0, # of connection points: 6
#     Node 7, Type 0, BuildingBlock: FUNLAD_clean_sbu_0, # of connection points: 6
#     Node 8, Type 0, BuildingBlock: FUNLAD_clean_sbu_0, # of connection points: 6
#     Node 9, Type 0, BuildingBlock: FUNLAD_clean_sbu_0, # of connection points: 6
#     Node 10, Type 0, BuildingBlock: FUNLAD_clean_sbu_0, # of connection points: 6
#     Node 11, Type 0, BuildingBlock: FUNLAD_clean_sbu_0, # of connection points: 6
#     Node 12, Type 0, BuildingBlock: FUNLAD_clean_sbu_0, # of connection points: 6
#     Node 13, Type 0, BuildingBlock: FUNLAD_clean_sbu_0, # of connection points: 6
#     Node 14, Type 0, BuildingBlock: FUNLAD_clean_sbu_0, # of connection points: 6
#     Node 15, Type 0, BuildingBlock: FUNLAD_clean_sbu_0, # of connection points: 6
#     Edge 16, Type (0, 0), None
#     Edge 17, Type (0, 0), None
#     Edge 18, Type (0, 0), None
#     Edge 19, Type (0, 0), None
#     Edge 20, Type (0, 0), None
#     Edge 21, Type (0, 0), None
#     Edge 22, Type (0, 0), None
#     Edge 23, Type (0, 0), None
#     Edge 24, Type (0, 0), None
#     Edge 25, Type (0, 0), None
#     Edge 26, Type (0, 0), None
#     Edge 27, Type (0, 0), None
#     Edge 28, Type (0, 0), None
#     Edge 29, Type (0, 0), None
#     Edge 30, Type (0, 0), None
#     Edge 31, Type (0, 0), None
#     Edge 32, Type (0, 0), None
#     Edge 33, Type (0, 0), None
#     Edge 34, Type (0, 0), None
#     Edge 35, Type (0, 0), None
#     Edge 36, Type (0, 0), None
#     Edge 37, Type (0, 0), None
#     Edge 38, Type (0, 0), None
#     Edge 39, Type (0, 0), None
#     Edge 40, Type (0, 0), None
#     Edge 41, Type (0, 0), None
#     Edge 42, Type (0, 0), None
#     Edge 43, Type (0, 0), None
#     Edge 44, Type (0, 0), None
#     Edge 45, Type (0, 0), None
#     Edge 46, Type (0, 0), None
#     Edge 47, Type (0, 0), None
#     Edge 48, Type (0, 0), None
#     Edge 49, Type (0, 0), None
#     Edge 50, Type (0, 0), None
#     Edge 51, Type (0, 0), None
#     Edge 52, Type (0, 0), None
#     Edge 53, Type (0, 0), None
#     Edge 54, Type (0, 0), None
#     Edge 55, Type (0, 0), None
#     Edge 56, Type (0, 0), None
#     Edge 57, Type (0, 0), None
#     Edge 58, Type (0, 0), None
#     Edge 59, Type (0, 0), None
#     Edge 60, Type (0, 0), None
#     Edge 61, Type (0, 0), None
#     Edge 62, Type (0, 0), None
#     Edge 63, Type (0, 0), None
# Relax obj value: 0.767
# Max RMSD: 0.312
# Mean RMSD: 0.312
data_MOF--net-whz--node1-FUNLAD_clean_sbu_0--edge1-none
_symmetry_space_group_name_H-M    P1
_symmetry_Int_Tables_number       1
_symmetry_cell_setting            triclinic
loop_
_symmetry_equiv_pos_as_xyz
'x, y, z'
_cell_length_a     19.479645
_cell_length_b     19.479541
_cell_length_c     30.043944
_cell_angle_alpha  89.999999
_cell_angle_beta   90.000002
_cell_angle_gamma 90.000352
loop_
_atom_site_label
_atom_site_type_symbol
_atom_site_fract_x
_atom_site_fract_y
_atom_site_fract_z
_atom_type_partial_charge
C0 C 0.36484 0.1217 0.08441 0.0
N1 N 0.27355 0.29251 0.11409 0.0
C2 C 0.30498 0.35123 0.10079 0.0
C3 C 0.26583 0.41058 0.09465 0.0
C4 C 0.19503 0.40871 0.10398 0.0
C5 C 0.16379 0.34766 0.11535 0.0
C6 C 0.20373 0.28984 0.11953 0.0
Zn7 Zn 0.32313 0.21447 0.14524 0.0
C8 C 0.21946 0.10262 0.15633 0.0
N9 N 0.36434 0.04484 0.23243 0.0
C10 C 0.40694 0.98998 0.22715 0.0
C11 C 0.31659 0.04325 0.26618 0.0
C12 C 0.31145 0.98832 0.29611 0.0
C13 C 0.35755 0.93365 0.29366 0.0
C14 C 0.40478 0.93436 0.25754 0.0
Zn15 Zn 0.35065 0.13295 0.18917 0.0
O16 O 0.37519 0.18491 0.09009 0.0
C17 C 0.46705 0.23784 0.17836 0.0
O18 O 0.36154 0.08327 0.11972 0.0
H19 H 0.28046 0.08462 0.27038 0.0
H20 H 0.36027 0.35313 0.09776 0.0
H21 H 0.44331 0.98948 0.19994 0.0
O22 O 0.41576 0.27346 0.16431 0.0
O23 O 0.45679 0.17468 0.18881 0.0
H24 H 0.1781 0.24559 0.13265 0.0
O25 O 0.32258 0.1935 0.24739 0.0
O26 O 0.26699 0.25046 0.19689 0.0
O27 O 0.25545 0.09405 0.19003 0.0
O28 O 0.23724 0.14709 0.12777 0.0
C29 C 0.27565 0.23632 0.23677 0.0
H30 H 0.29079 0.458 0.08497 0.0
H31 H 0.10915 0.34481 0.12195 0.0
H32 H 0.27473 0.99159 0.3231 0.0
H33 H 0.44244 0.89379 0.25417 0.0
C34 C 0.63404 0.6148 0.33444 0.0
N35 N 0.4632 0.52351 0.36405 0.0
C36 C 0.40444 0.55497 0.35084 0.0
C37 C 0.34507 0.51583 0.34475 0.0
C38 C 0.34696 0.44501 0.35402 0.0
C39 C 0.40806 0.41374 0.36528 0.0
C40 C 0.46588 0.45368 0.36942 0.0
Zn41 Zn 0.54123 0.57306 0.39523 0.0
C42 C 0.65308 0.4694 0.40634 0.0
N43 N 0.7108 0.61426 0.48245 0.0
C44 C 0.76568 0.65684 0.47716 0.0
C45 C 0.71238 0.56652 0.51621 0.0
C46 C 0.76732 0.56137 0.54613 0.0
C47 C 0.822 0.60746 0.54368 0.0
C48 C 0.82129 0.65468 0.50756 0.0
Zn49 Zn 0.62272 0.60057 0.43918 0.0
O50 O 0.57083 0.62516 0.34011 0.0
C51 C 0.51783 0.71696 0.42837 0.0
O52 O 0.67245 0.61149 0.36975 0.0
H53 H 0.671 0.5304 0.52041 0.0
H54 H 0.40252 0.61026 0.34788 0.0
H55 H 0.76619 0.69321 0.44995 0.0
O56 O 0.48221 0.66568 0.41431 0.0
O57 O 0.58099 0.70671 0.43882 0.0
H58 H 0.51016 0.42801 0.38247 0.0
O59 O 0.56212 0.57248 0.49737 0.0
O60 O 0.5052 0.51688 0.44685 0.0
O61 O 0.66164 0.50537 0.44005 0.0
O62 O 0.60863 0.4872 0.37777 0.0
C63 C 0.51932 0.52554 0.48674 0.0
H64 H 0.29763 0.5408 0.33514 0.0
H65 H 0.41092 0.35908 0.37182 0.0
H66 H 0.76404 0.52466 0.57313 0.0
H67 H 0.86187 0.69233 0.50417 0.0
C68 C 0.14083 0.88397 0.58441 0.0
N69 N 0.23211 0.71316 0.61409 0.0
C70 C 0.20068 0.65444 0.60079 0.0
C71 C 0.23983 0.59509 0.59465 0.0
C72 C 0.31063 0.59696 0.60398 0.0
C73 C 0.34188 0.65801 0.61535 0.0
C74 C 0.30193 0.71583 0.61953 0.0
Zn75 Zn 0.18253 0.7912 0.64523 0.0
C76 C 0.2862 0.90305 0.65633 0.0
N77 N 0.14133 0.96083 0.73243 0.0
C78 C 0.09873 0.01569 0.72714 0.0
C79 C 0.18907 0.96242 0.76618 0.0
C80 C 0.19422 0.01735 0.79611 0.0
C81 C 0.14812 0.07202 0.79366 0.0
C82 C 0.10088 0.07131 0.75754 0.0
Zn83 Zn 0.15502 0.87272 0.68917 0.0
O84 O 0.13048 0.82076 0.59009 0.0
C85 C 0.03862 0.76783 0.67836 0.0
O86 O 0.14412 0.9224 0.61972 0.0
H87 H 0.22521 0.92105 0.77038 0.0
H88 H 0.14539 0.65254 0.59777 0.0
H89 H 0.06235 0.01619 0.69994 0.0
O90 O 0.0899 0.73221 0.6643 0.0
O91 O 0.04887 0.83099 0.68881 0.0
H92 H 0.32757 0.76008 0.63264 0.0
O93 O 0.18308 0.81217 0.74739 0.0
O94 O 0.23867 0.75521 0.69689 0.0
O95 O 0.25021 0.91162 0.69003 0.0
O96 O 0.26842 0.85858 0.62777 0.0
C97 C 0.23002 0.76935 0.73676 0.0
H98 H 0.21487 0.54767 0.58497 0.0
H99 H 0.39652 0.66086 0.62194 0.0
H100 H 0.23093 0.01408 0.8231 0.0
H101 H 0.06322 0.11188 0.75417 0.0
C102 C 0.87162 0.39087 0.83444 0.0
N103 N 0.04247 0.48216 0.86405 0.0
C104 C 0.10122 0.45071 0.85084 0.0
C105 C 0.16059 0.48985 0.84474 0.0
C106 C 0.1587 0.56066 0.85402 0.0
C107 C 0.09761 0.59193 0.86528 0.0
C108 C 0.03978 0.55199 0.86942 0.0
Zn109 Zn 0.96444 0.43261 0.89523 0.0
C110 C 0.85258 0.53627 0.90634 0.0
N111 N 0.79487 0.39141 0.98245 0.0
C112 C 0.73999 0.34883 0.97716 0.0
C113 C 0.79328 0.43915 0.01621 0.0
C114 C 0.73835 0.4443 0.04613 0.0
C115 C 0.68367 0.39821 0.04368 0.0
C116 C 0.68437 0.35099 0.00756 0.0
Zn117 Zn 0.88295 0.4051 0.93918 0.0
O118 O 0.93483 0.38051 0.84011 0.0
C119 C 0.98783 0.28871 0.92837 0.0
O120 O 0.83321 0.39418 0.86975 0.0
H121 H 0.83467 0.47527 0.02041 0.0
H122 H 0.10314 0.39541 0.84788 0.0
H123 H 0.73948 0.31247 0.94995 0.0
O124 O 0.02345 0.33999 0.91431 0.0
O125 O 0.92468 0.29896 0.93882 0.0
H126 H 0.9955 0.57766 0.88247 0.0
O127 O 0.94354 0.43319 0.99737 0.0
O128 O 1.00046 0.48879 0.94685 0.0
O129 O 0.84403 0.5003 0.94005 0.0
O130 O 0.89703 0.51847 0.87777 0.0
C131 C 0.98635 0.48013 0.98674 0.0
H132 H 0.20804 0.46487 0.83514 0.0
H133 H 0.09474 0.64659 0.87182 0.0
H134 H 0.74162 0.48101 0.07313 0.0
H135 H 0.64379 0.31334 0.00417 0.0
C136 C 0.73002 0.76926 0.76885 0.0
N137 N 0.64134 0.96077 0.77313 0.0
C138 C 0.68907 0.96234 0.73937 0.0
C139 C 0.69424 0.01728 0.70945 0.0
C140 C 0.6482 0.07199 0.71192 0.0
C141 C 0.601 0.07131 0.74806 0.0
C142 C 0.59882 0.0157 0.77845 0.0
Zn143 Zn 0.65504 0.87269 0.81641 0.0
C144 C 0.53862 0.76782 0.82726 0.0
N145 N 0.73209 0.71315 0.89156 0.0
C146 C 0.80191 0.71583 0.88612 0.0
C147 C 0.70066 0.6544 0.9048 0.0
C148 C 0.73982 0.59505 0.91091 0.0
C149 C 0.81062 0.59693 0.9016 0.0
C150 C 0.84186 0.65801 0.89026 0.0
Zn151 Zn 0.68254 0.79118 0.86037 0.0
O152 O 0.68309 0.81208 0.75822 0.0
C153 C 0.78623 0.90302 0.84923 0.0
O154 O 0.73868 0.75514 0.80873 0.0
H155 H 0.64537 0.65248 0.90781 0.0
H156 H 0.72517 0.92094 0.73516 0.0
H157 H 0.82756 0.76009 0.87302 0.0
O158 O 0.75025 0.91159 0.81553 0.0
O159 O 0.76843 0.85858 0.8778 0.0
H160 H 0.56248 0.01623 0.80568 0.0
O161 O 0.63049 0.82082 0.9155 0.0
O162 O 0.64417 0.92244 0.88585 0.0
O163 O 0.5899 0.73219 0.84132 0.0
O164 O 0.54889 0.83097 0.8168 0.0
C165 C 0.64087 0.88403 0.92117 0.0
H166 H 0.73094 0.01398 0.68245 0.0
H167 H 0.56339 0.11193 0.75145 0.0
H168 H 0.71486 0.54761 0.92056 0.0
H169 H 0.89651 0.66087 0.88368 0.0
C170 C 0.48644 0.48016 0.51891 0.0
N171 N 0.29493 0.39142 0.52311 0.0
C172 C 0.29338 0.43913 0.48935 0.0
C173 C 0.23845 0.44431 0.45942 0.0
C174 C 0.18373 0.39827 0.46189 0.0
C175 C 0.18438 0.35109 0.49804 0.0
C176 C 0.23999 0.34891 0.52843 0.0
Zn177 Zn 0.38297 0.40513 0.56642 0.0
C178 C 0.48784 0.28871 0.57726 0.0
N179 N 0.54246 0.48212 0.64163 0.0
C180 C 0.53976 0.55196 0.63629 0.0
C181 C 0.60127 0.45066 0.65472 0.0
C182 C 0.66066 0.4898 0.66077 0.0
C183 C 0.65873 0.56062 0.65155 0.0
C184 C 0.5976 0.5919 0.64038 0.0
Zn185 Zn 0.46444 0.43262 0.61039 0.0
O186 O 0.44364 0.43322 0.50827 0.0
C187 C 0.35259 0.53629 0.59924 0.0
O188 O 0.50054 0.48882 0.5588 0.0
H189 H 0.60322 0.39536 0.65764 0.0
H190 H 0.33479 0.47522 0.48514 0.0
H191 H 0.49545 0.57766 0.62332 0.0
O192 O 0.34405 0.50032 0.56553 0.0
O193 O 0.39701 0.51847 0.62782 0.0
H194 H 0.23944 0.31259 0.55567 0.0
O195 O 0.43475 0.38049 0.6655 0.0
O196 O 0.33316 0.39421 0.63583 0.0
O197 O 0.52346 0.33999 0.59133 0.0
O198 O 0.42469 0.29898 0.5668 0.0
C199 C 0.37154 0.39088 0.67115 0.0
H200 H 0.24175 0.481 0.43241 0.0
H201 H 0.14376 0.31349 0.50144 0.0
H202 H 0.70814 0.46481 0.6703 0.0
H203 H 0.59471 0.64657 0.63389 0.0
C204 C 0.77565 0.23641 0.26885 0.0
N205 N 0.86432 0.0449 0.27313 0.0
C206 C 0.8166 0.04333 0.23938 0.0
C207 C 0.81142 0.98839 0.20945 0.0
C208 C 0.85747 0.93368 0.21192 0.0
C209 C 0.90467 0.93436 0.24806 0.0
C210 C 0.90685 0.98997 0.27845 0.0
Zn211 Zn 0.85062 0.13298 0.31641 0.0
C212 C 0.96704 0.23785 0.32726 0.0
N213 N 0.77358 0.29252 0.39156 0.0
C214 C 0.70376 0.28984 0.38612 0.0
C215 C 0.805 0.35127 0.4048 0.0
C216 C 0.76585 0.41062 0.41091 0.0
C217 C 0.69505 0.40874 0.4016 0.0
C218 C 0.6638 0.34766 0.39027 0.0
Zn219 Zn 0.82312 0.21449 0.36037 0.0
O220 O 0.82257 0.19359 0.25822 0.0
C221 C 0.71943 0.10265 0.34923 0.0
O222 O 0.76699 0.25054 0.30873 0.0
H223 H 0.8603 0.35319 0.4078 0.0
H224 H 0.7805 0.08473 0.23516 0.0
H225 H 0.67811 0.24558 0.37303 0.0
O226 O 0.75542 0.09408 0.31553 0.0
O227 O 0.73723 0.14709 0.3778 0.0
H228 H 0.94318 0.98944 0.30568 0.0
O229 O 0.87518 0.18485 0.4155 0.0
O230 O 0.86149 0.08323 0.38585 0.0
O231 O 0.91577 0.27348 0.34132 0.0
O232 O 0.95678 0.1747 0.3168 0.0
C233 C 0.8648 0.12164 0.42117 0.0
H234 H 0.77473 0.99169 0.18245 0.0
H235 H 0.94228 0.89375 0.25145 0.0
H236 H 0.79081 0.45806 0.42055 0.0
H237 H 0.60916 0.3448 0.38368 0.0
C238 C 0.01922 0.52551 0.01891 0.0
N239 N 0.21074 0.61426 0.02311 0.0
C240 C 0.21228 0.56654 0.98935 0.0
C241 C 0.26722 0.56136 0.95942 0.0
C242 C 0.32194 0.6074 0.96189 0.0
C243 C 0.32128 0.65458 0.99804 0.0
C244 C 0.26567 0.65676 0.02843 0.0
Zn245 Zn 0.1227 0.60055 0.06642 0.0
C246 C 0.01783 0.71696 0.07727 0.0
N247 N 0.9632 0.52355 0.14163 0.0
C248 C 0.9659 0.45371 0.13629 0.0
C249 C 0.90439 0.55501 0.15473 0.0
C250 C 0.84501 0.51587 0.16077 0.0
C251 C 0.84693 0.44505 0.15155 0.0
C252 C 0.90806 0.41377 0.14038 0.0
Zn253 Zn 0.04122 0.57306 0.11039 0.0
O254 O 0.06203 0.57245 0.00827 0.0
C255 C 0.15308 0.46938 0.09924 0.0
O256 O 0.00513 0.51685 0.0588 0.0
H257 H 0.90245 0.61031 0.15764 0.0
H258 H 0.17088 0.53045 0.98514 0.0
H259 H 0.01021 0.42801 0.12332 0.0
O260 O 0.16162 0.50535 0.06553 0.0
O261 O 0.10865 0.4872 0.12782 0.0
H262 H 0.26622 0.69308 0.05567 0.0
O263 O 0.07091 0.62518 0.1655 0.0
O264 O 0.17251 0.61146 0.13583 0.0
O265 O 0.9822 0.66568 0.09133 0.0
O266 O 0.08098 0.70669 0.0668 0.0
C267 C 0.13412 0.61479 0.17115 0.0
H268 H 0.26391 0.52467 0.93241 0.0
H269 H 0.36191 0.69218 1.00144 0.0
H270 H 0.79753 0.54086 0.1703 0.0
H271 H 0.91095 0.3591 0.13389 0.0
C272 C 0.86488 0.62168 0.58444 0.0
N273 N 0.77347 0.79252 0.61399 0.0
C274 C 0.80494 0.85132 0.60087 0.0
C275 C 0.76581 0.9107 0.59481 0.0
C276 C 0.69497 0.90877 0.60402 0.0
C277 C 0.66369 0.84764 0.61518 0.0
C278 C 0.70363 0.78981 0.61929 0.0
Zn279 Zn 0.82301 0.7145 0.64519 0.0
C280 C 0.7194 0.60258 0.65628 0.0
N281 N 0.86423 0.54495 0.73245 0.0
C282 C 0.90684 0.49008 0.72717 0.0
C283 C 0.81648 0.54336 0.76619 0.0
C284 C 0.81134 0.48844 0.79613 0.0
C285 C 0.85745 0.43379 0.79368 0.0
C286 C 0.90469 0.43447 0.75757 0.0
Zn287 Zn 0.85053 0.633 0.68915 0.0
O288 O 0.87517 0.68491 0.59008 0.0
C289 C 0.9669 0.73793 0.67836 0.0
O290 O 0.86154 0.58324 0.61974 0.0
H291 H 0.78034 0.58473 0.77038 0.0
H292 H 0.86025 0.85326 0.59796 0.0
H293 H 0.94321 0.48958 0.69996 0.0
O294 O 0.91561 0.77354 0.66429 0.0
O295 O 0.95665 0.67477 0.68882 0.0
H296 H 0.67794 0.74549 0.63226 0.0
O297 O 0.82236 0.69361 0.74731 0.0
O298 O 0.76676 0.75052 0.69679 0.0
O299 O 0.75536 0.59404 0.68999 0.0
O300 O 0.73718 0.64705 0.62772 0.0
C301 C 0.77541 0.7364 0.73667 0.0
H302 H 0.7908 0.95817 0.58528 0.0
H303 H 0.60902 0.84475 0.62166 0.0
H304 H 0.77462 0.49171 0.82312 0.0
H305 H 0.94235 0.3939 0.7542 0.0
C306 C 0.1339 0.1149 0.83443 0.0
N307 N 0.9631 0.02351 0.86406 0.0
C308 C 0.90436 0.05494 0.85079 0.0
C309 C 0.84501 0.01579 0.84467 0.0
C310 C 0.8469 0.94498 0.85397 0.0
C311 C 0.90797 0.91373 0.86529 0.0
C312 C 0.96579 0.95368 0.86946 0.0
Zn313 Zn 0.04113 0.07308 0.89521 0.0
C314 C 0.15303 0.96945 0.90629 0.0
N315 N 0.21075 0.11431 0.98243 0.0
C316 C 0.26561 0.15693 0.97715 0.0
C317 C 0.21235 0.06655 0.01617 0.0
C318 C 0.26728 0.06141 0.0461 0.0
C319 C 0.32192 0.10753 0.04366 0.0
C320 C 0.32122 0.15478 0.00755 0.0
Zn321 Zn 0.12266 0.10061 0.93916 0.0
O322 O 0.07067 0.12518 0.84008 0.0
C323 C 0.01774 0.21698 0.92837 0.0
O324 O 0.17236 0.11157 0.86972 0.0
H325 H 0.17099 0.0304 0.02035 0.0
H326 H 0.90244 0.11023 0.8478 0.0
H327 H 0.2661 0.19332 0.94995 0.0
O328 O 0.98212 0.1657 0.9143 0.0
O329 O 0.08089 0.20674 0.93882 0.0
H330 H 0.01006 0.92804 0.88255 0.0
O331 O 0.0621 0.07249 0.99736 0.0
O332 O 0.00515 0.0169 0.94685 0.0
O333 O 0.1616 0.00544 0.93999 0.0
O334 O 0.10854 0.98722 0.87774 0.0
C335 C 0.0193 0.02554 0.98673 0.0
H336 H 0.79758 0.04075 0.83502 0.0
H337 H 0.91084 0.85908 0.87186 0.0
H338 H 0.26402 0.02468 0.07309 0.0
H339 H 0.36179 0.19245 0.00419 0.0
C340 C 0.64079 0.38399 0.08444 0.0
N341 N 0.73219 0.21315 0.11399 0.0
C342 C 0.70072 0.15435 0.10087 0.0
C343 C 0.73986 0.09497 0.09481 0.0
C344 C 0.81069 0.0969 0.10402 0.0
C345 C 0.84198 0.15803 0.11518 0.0
C346 C 0.80203 0.21586 0.11929 0.0
Zn347 Zn 0.68265 0.29117 0.14519 0.0
C348 C 0.78627 0.40309 0.15628 0.0
N349 N 0.64143 0.46072 0.23245 0.0
C350 C 0.59882 0.51559 0.22717 0.0
C351 C 0.68918 0.46231 0.26619 0.0
C352 C 0.69433 0.51723 0.29613 0.0
C353 C 0.64822 0.57189 0.29368 0.0
C354 C 0.60098 0.5712 0.25757 0.0
Zn355 Zn 0.65513 0.37267 0.18915 0.0
O356 O 0.6305 0.32076 0.09009 0.0
C357 C 0.53877 0.26774 0.17836 0.0
O358 O 0.64413 0.42243 0.11974 0.0
H359 H 0.72533 0.42094 0.27038 0.0
H360 H 0.64542 0.15241 0.09796 0.0
H361 H 0.56245 0.51609 0.19996 0.0
O362 O 0.59005 0.23213 0.16429 0.0
O363 O 0.54902 0.3309 0.18882 0.0
H364 H 0.82772 0.26018 0.13226 0.0
O365 O 0.68331 0.31206 0.24731 0.0
O366 O 0.7389 0.25515 0.19679 0.0
O367 O 0.7503 0.41163 0.18999 0.0
O368 O 0.76849 0.35862 0.12772 0.0
C369 C 0.73026 0.26927 0.23667 0.0
H370 H 0.71487 0.0475 0.08528 0.0
H371 H 0.89665 0.16092 0.12166 0.0
H372 H 0.73105 0.51396 0.32312 0.0
H373 H 0.56332 0.61177 0.2542 0.0
C374 C 0.37176 0.89077 0.33443 0.0
N375 N 0.54257 0.98216 0.36406 0.0
C376 C 0.6013 0.95073 0.3508 0.0
C377 C 0.66065 0.98988 0.34467 0.0
C378 C 0.65877 0.06069 0.35397 0.0
C379 C 0.59769 0.09194 0.36529 0.0
C380 C 0.53988 0.05199 0.36946 0.0
Zn381 Zn 0.46454 0.93259 0.39521 0.0
C382 C 0.35264 0.03622 0.40629 0.0
N383 N 0.29491 0.89136 0.48243 0.0
C384 C 0.24006 0.84874 0.47715 0.0
C385 C 0.29331 0.93912 0.51617 0.0
C386 C 0.23838 0.94426 0.5461 0.0
C387 C 0.18374 0.89815 0.54366 0.0
C388 C 0.18444 0.85089 0.50755 0.0
Zn389 Zn 0.38301 0.90506 0.43916 0.0
O390 O 0.43499 0.88049 0.34008 0.0
C391 C 0.48793 0.78869 0.42837 0.0
O392 O 0.33331 0.89409 0.36972 0.0
H393 H 0.33467 0.97527 0.52035 0.0
H394 H 0.60322 0.89544 0.3478 0.0
H395 H 0.23957 0.81235 0.44995 0.0
O396 O 0.52355 0.83997 0.4143 0.0
O397 O 0.42477 0.79893 0.43882 0.0
H398 H 0.49561 0.07763 0.38254 0.0
O399 O 0.44356 0.93318 0.49736 0.0
O400 O 0.50051 0.98877 0.44685 0.0
O401 O 0.34407 1.00023 0.43999 0.0
O402 O 0.39712 0.01845 0.37774 0.0
C403 C 0.48637 0.98013 0.48673 0.0
H404 H 0.70809 0.96492 0.33502 0.0
H405 H 0.59483 0.14659 0.37186 0.0
H406 H 0.24164 0.98099 0.57309 0.0
H407 H 0.14388 0.81322 0.50418 0.0
C408 C 0.23026 0.26917 0.26895 0.0
N409 N 0.14145 0.46067 0.27311 0.0
C410 C 0.18918 0.46222 0.23936 0.0
C411 C 0.19435 0.51715 0.20942 0.0
C412 C 0.1483 0.57185 0.2119 0.0
C413 C 0.10109 0.5712 0.24803 0.0
C414 C 0.09892 0.51559 0.27842 0.0
Zn415 Zn 0.15516 0.37265 0.31644 0.0
C416 C 0.03877 0.26774 0.32726 0.0
N417 N 0.23217 0.21315 0.39166 0.0
C418 C 0.30201 0.21587 0.38636 0.0
C419 C 0.2007 0.15431 0.40472 0.0
C420 C 0.23984 0.09493 0.41075 0.0
C421 C 0.31068 0.09688 0.40156 0.0
C422 C 0.34196 0.15803 0.39044 0.0
Zn423 Zn 0.18266 0.29116 0.36041 0.0
O424 O 0.18332 0.31197 0.2583 0.0
C425 C 0.2863 0.40306 0.34928 0.0
O426 O 0.23891 0.25507 0.30883 0.0
H427 H 0.1454 0.15235 0.4076 0.0
H428 H 0.22529 0.42083 0.23516 0.0
H429 H 0.32771 0.26019 0.37342 0.0
O430 O 0.25034 0.4116 0.31556 0.0
O431 O 0.26849 0.35862 0.37785 0.0
H432 H 0.06259 0.51614 0.30566 0.0
O433 O 0.13051 0.32083 0.41551 0.0
O434 O 0.14418 0.42247 0.38583 0.0
O435 O 0.09005 0.23212 0.34134 0.0
O436 O 0.04903 0.33089 0.31679 0.0
C437 C 0.14083 0.38405 0.42113 0.0
H438 H 0.23105 0.51386 0.18242 0.0
H439 H 0.06349 0.61182 0.25142 0.0
H440 H 0.21485 0.04744 0.42025 0.0
H441 H 0.39663 0.16094 0.38397 0.0
C442 C 0.98646 0.98014 0.01891 0.0
N443 N 0.79497 0.89136 0.02314 0.0
C444 C 0.79341 0.9391 0.98939 0.0
C445 C 0.73848 0.94427 0.95945 0.0
C446 C 0.6838 0.8982 0.96192 0.0
C447 C 0.68445 0.85099 0.99804 0.0
C448 C 0.74006 0.84881 0.02844 0.0
Zn449 Zn 0.88303 0.90508 0.06645 0.0
C450 C 0.98793 0.78869 0.07727 0.0
N451 N 0.04256 0.98213 0.14162 0.0
C452 C 0.03986 0.05196 0.13625 0.0
C453 C 0.10135 0.95068 0.15478 0.0
C454 C 0.16072 0.98984 0.16085 0.0
C455 C 0.1588 0.06065 0.1516 0.0
C456 C 0.09769 0.09191 0.14037 0.0
Zn457 Zn 0.96454 0.93259 0.11041 0.0
O458 O 0.94365 0.93321 0.00828 0.0
C459 C 0.85264 0.03623 0.09929 0.0
O460 O 1.00059 0.98879 0.0588 0.0
H461 H 0.1033 0.89539 0.15772 0.0
H462 H 0.8348 0.97522 0.98519 0.0
H463 H 0.99556 0.07763 0.12323 0.0
O464 O 0.84409 1.00025 0.06558 0.0
O465 O 0.8971 0.01845 0.12785 0.0
H466 H 0.73953 0.81247 0.05566 0.0
O467 O 0.93491 0.88048 0.16553 0.0
O468 O 0.83326 0.89412 0.13586 0.0
O469 O 0.02356 0.83997 0.09134 0.0
O470 O 0.92478 0.79895 0.0668 0.0
C471 C 0.87169 0.89079 0.17116 0.0
H472 H 0.74177 0.98098 0.93246 0.0
H473 H 0.64385 0.81337 1.00143 0.0
H474 H 0.20818 0.96486 0.17042 0.0
H475 H 0.0948 0.14657 0.13384 0.0
C476 C 0.27541 0.7365 0.76894 0.0
N477 N 0.36422 0.545 0.77311 0.0
C478 C 0.31649 0.54345 0.73936 0.0
C479 C 0.31131 0.48852 0.70942 0.0
C480 C 0.35737 0.43382 0.7119 0.0
C481 C 0.40457 0.43447 0.74803 0.0
C482 C 0.40675 0.49008 0.77842 0.0
Zn483 Zn 0.3505 0.63302 0.81644 0.0
C484 C 0.46689 0.73793 0.82726 0.0
N485 N 0.2735 0.79253 0.89166 0.0
C486 C 0.20365 0.78981 0.88636 0.0
C487 C 0.30496 0.85136 0.90472 0.0
C488 C 0.26582 0.91074 0.91075 0.0
C489 C 0.19499 0.90879 0.90156 0.0
C490 C 0.16371 0.84764 0.89044 0.0
Zn491 Zn 0.32301 0.71451 0.86041 0.0
O492 O 0.32235 0.6937 0.7583 0.0
C493 C 0.21937 0.60261 0.84928 0.0
O494 O 0.26676 0.7506 0.80883 0.0
H495 H 0.36027 0.85332 0.90761 0.0
H496 H 0.28038 0.58484 0.73516 0.0
H497 H 0.17795 0.74548 0.87341 0.0
O498 O 0.25533 0.59407 0.81556 0.0
O499 O 0.23717 0.64706 0.87785 0.0
H500 H 0.44308 0.48953 0.80565 0.0
O501 O 0.37516 0.68485 0.91551 0.0
O502 O 0.36148 0.5832 0.88583 0.0
O503 O 0.41562 0.77355 0.84134 0.0
O504 O 0.45663 0.67478 0.81679 0.0
C505 C 0.36484 0.62162 0.92113 0.0
H506 H 0.27461 0.49181 0.68242 0.0
H507 H 0.44218 0.39385 0.75142 0.0
H508 H 0.29081 0.95823 0.92025 0.0
H509 H 0.10903 0.84474 0.88397 0.0
C510 C 0.51921 0.02553 0.51891 0.0
N511 N 0.71069 0.11431 0.52314 0.0
C512 C 0.71226 0.06657 0.48939 0.0
C513 C 0.76718 0.0614 0.45945 0.0
C514 C 0.82187 0.10747 0.46192 0.0
C515 C 0.82121 0.15468 0.49804 0.0
C516 C 0.7656 0.15686 0.52844 0.0
Zn517 Zn 0.62264 0.10059 0.56645 0.0
C518 C 0.51773 0.21698 0.57727 0.0
N519 N 0.4631 0.02354 0.64162 0.0
C520 C 0.4658 0.95371 0.63625 0.0
C521 C 0.40431 0.05499 0.65477 0.0
C522 C 0.34495 0.01584 0.66085 0.0
C523 C 0.34687 0.94502 0.6516 0.0
C524 C 0.40798 0.91376 0.64037 0.0
Zn525 Zn 0.54113 0.07308 0.61041 0.0
O526 O 0.56201 0.07246 0.50828 0.0
C527 C 0.65302 0.96944 0.59929 0.0
O528 O 0.50508 0.01688 0.55879 0.0
H529 H 0.40237 0.11029 0.65772 0.0
H530 H 0.67087 0.03045 0.48519 0.0
H531 H 0.5101 0.92804 0.62323 0.0
O532 O 0.66158 0.00542 0.56558 0.0
O533 O 0.60856 0.98722 0.62785 0.0
H534 H 0.76614 0.1932 0.55567 0.0
O535 O 0.57075 0.12519 0.66553 0.0
O536 O 0.67241 0.11155 0.63586 0.0
O537 O 0.48211 0.1657 0.59134 0.0
O538 O 0.58088 0.20672 0.5668 0.0
C539 C 0.63398 0.11488 0.67116 0.0
H540 H 0.7639 0.02469 0.43246 0.0
H541 H 0.86182 0.1923 0.50143 0.0
H542 H 0.29748 0.04081 0.67042 0.0
H543 H 0.41086 0.8591 0.63384 0.0
loop_
_geom_bond_atom_site_label_1
_geom_bond_atom_site_label_2
_geom_bond_distance
_geom_bond_site_symmetry_2
_ccdc_geom_bond_type
C0 O16 1.251 . S
C0 O18 1.254 . S
N1 C2 1.333 . S
N1 C6 1.307 . S
N1 Zn7 2.020 . S
C2 N1 1.333 . S
C2 C3 1.379 . S
C2 H20 0.952 . S
C3 C2 1.379 . S
C3 C4 1.390 . S
C3 H30 0.949 . S
C4 C3 1.390 . S
C4 C5 1.357 . S
C5 C4 1.357 . S
C5 C6 1.370 . S
C5 H31 0.950 . S
C6 N1 1.307 . S
C6 C5 1.370 . S
C6 H24 0.948 . S
Zn7 N1 2.020 . S
Zn7 O16 2.039 . S
Zn7 O22 2.034 . S
Zn7 O26 2.025 . S
Zn7 O28 2.024 . S
C8 O27 1.246 . S
C8 O28 1.249 . S
N9 C10 1.307 1_545 S
N9 C11 1.333 . S
N9 Zn15 2.020 . S
C10 N9 1.307 1_565 S
C10 C14 1.370 . S
C10 H21 0.948 1_565 S
C11 N9 1.333 . S
C11 C12 1.379 1_545 S
C11 H19 0.952 . S
C12 C11 1.379 1_565 S
C12 C13 1.390 . S
C12 H32 0.949 . S
C13 C12 1.390 . S
C13 C14 1.357 . S
C14 C10 1.370 . S
C14 C13 1.357 . S
C14 H33 0.950 . S
Zn15 N9 2.020 . S
Zn15 O18 2.025 . S
Zn15 O23 2.024 . S
Zn15 O25 2.039 . S
Zn15 O27 2.034 . S
O16 C0 1.251 . S
O16 Zn7 2.039 . S
C17 O22 1.246 . S
C17 O23 1.249 . S
O18 C0 1.254 . S
O18 Zn15 2.025 . S
H19 C11 0.952 . S
H20 C2 0.952 . S
H21 C10 0.948 1_545 S
O22 Zn7 2.034 . S
O22 C17 1.246 . S
O23 Zn15 2.024 . S
O23 C17 1.249 . S
H24 C6 0.948 . S
O25 Zn15 2.039 . S
O25 C29 1.251 . S
O26 Zn7 2.025 . S
O26 C29 1.254 . S
O27 C8 1.246 . S
O27 Zn15 2.034 . S
O28 Zn7 2.024 . S
O28 C8 1.249 . S
C29 O25 1.251 . S
C29 O26 1.254 . S
H30 C3 0.949 . S
H31 C5 0.950 . S
H32 C12 0.949 . S
H33 C14 0.950 . S
C34 O50 1.251 . S
C34 O52 1.254 . S
N35 C36 1.333 . S
N35 C40 1.307 . S
N35 Zn41 2.020 . S
C36 N35 1.333 . S
C36 C37 1.379 . S
C36 H54 0.952 . S
C37 C36 1.379 . S
C37 C38 1.390 . S
C37 H64 0.949 . S
C38 C37 1.390 . S
C38 C39 1.357 . S
C39 C38 1.357 . S
C39 C40 1.370 . S
C39 H65 0.950 . S
C40 N35 1.307 . S
C40 C39 1.370 . S
C40 H58 0.948 . S
Zn41 N35 2.020 . S
Zn41 O50 2.039 . S
Zn41 O56 2.034 . S
Zn41 O60 2.025 . S
Zn41 O62 2.024 . S
C42 O61 1.246 . S
C42 O62 1.249 . S
N43 C44 1.307 . S
N43 C45 1.333 . S
N43 Zn49 2.020 . S
C44 N43 1.307 . S
C44 C48 1.370 . S
C44 H55 0.948 . S
C45 N43 1.333 . S
C45 C46 1.379 . S
C45 H53 0.952 . S
C46 C45 1.379 . S
C46 C47 1.390 . S
C46 H66 0.949 . S
C47 C46 1.390 . S
C47 C48 1.357 . S
C48 C44 1.370 . S
C48 C47 1.357 . S
C48 H67 0.950 . S
Zn49 N43 2.020 . S
Zn49 O52 2.025 . S
Zn49 O57 2.024 . S
Zn49 O59 2.039 . S
Zn49 O61 2.034 . S
O50 C34 1.251 . S
O50 Zn41 2.039 . S
C51 O56 1.246 . S
C51 O57 1.249 . S
O52 C34 1.254 . S
O52 Zn49 2.025 . S
H53 C45 0.952 . S
H54 C36 0.952 . S
H55 C44 0.948 . S
O56 Zn41 2.034 . S
O56 C51 1.246 . S
O57 Zn49 2.024 . S
O57 C51 1.249 . S
H58 C40 0.948 . S
O59 Zn49 2.039 . S
O59 C63 1.251 . S
O60 Zn41 2.025 . S
O60 C63 1.254 . S
O61 C42 1.246 . S
O61 Zn49 2.034 . S
O62 Zn41 2.024 . S
O62 C42 1.249 . S
C63 O59 1.251 . S
C63 O60 1.254 . S
H64 C37 0.949 . S
H65 C39 0.950 . S
H66 C46 0.949 . S
H67 C48 0.950 . S
C68 O84 1.251 . S
C68 O86 1.254 . S
N69 C70 1.333 . S
N69 C74 1.307 . S
N69 Zn75 2.020 . S
C70 N69 1.333 . S
C70 C71 1.379 . S
C70 H88 0.952 . S
C71 C70 1.379 . S
C71 C72 1.390 . S
C71 H98 0.949 . S
C72 C71 1.390 . S
C72 C73 1.357 . S
C73 C72 1.357 . S
C73 C74 1.370 . S
C73 H99 0.950 . S
C74 N69 1.307 . S
C74 C73 1.370 . S
C74 H92 0.948 . S
Zn75 N69 2.020 . S
Zn75 O84 2.039 . S
Zn75 O90 2.034 . S
Zn75 O94 2.025 . S
Zn75 O96 2.024 . S
C76 O95 1.246 . S
C76 O96 1.249 . S
N77 C78 1.307 1_565 S
N77 C79 1.333 . S
N77 Zn83 2.020 . S
C78 N77 1.307 1_545 S
C78 C82 1.370 . S
C78 H89 0.948 1_545 S
C79 N77 1.333 . S
C79 C80 1.379 1_565 S
C79 H87 0.952 . S
C80 C79 1.379 1_545 S
C80 C81 1.390 . S
C80 H100 0.949 . S
C81 C80 1.390 . S
C81 C82 1.357 . S
C82 C78 1.370 . S
C82 C81 1.357 . S
C82 H101 0.950 1_455 S
Zn83 N77 2.020 . S
Zn83 O86 2.025 . S
Zn83 O91 2.024 . S
Zn83 O93 2.039 . S
Zn83 O95 2.034 . S
O84 C68 1.251 . S
O84 Zn75 2.039 . S
C85 O90 1.246 . S
C85 O91 1.249 . S
O86 C68 1.254 . S
O86 Zn83 2.025 . S
H87 C79 0.952 . S
H88 C70 0.952 . S
H89 C78 0.948 1_565 S
O90 Zn75 2.034 . S
O90 C85 1.246 . S
O91 Zn83 2.024 . S
O91 C85 1.249 . S
H92 C74 0.948 . S
O93 Zn83 2.039 . S
O93 C97 1.251 . S
O94 Zn75 2.025 . S
O94 C97 1.254 . S
O95 C76 1.246 . S
O95 Zn83 2.034 . S
O96 Zn75 2.024 . S
O96 C76 1.249 . S
C97 O93 1.251 . S
C97 O94 1.254 . S
H98 C71 0.949 . S
H99 C73 0.950 . S
H100 C80 0.949 . S
H101 C82 0.950 1_655 S
C102 O118 1.251 . S
C102 O120 1.254 . S
N103 C104 1.333 . S
N103 C108 1.307 . S
N103 Zn109 2.020 1_455 S
C104 N103 1.333 . S
C104 C105 1.379 . S
C104 H122 0.952 . S
C105 C104 1.379 . S
C105 C106 1.390 . S
C105 H132 0.949 . S
C106 C105 1.390 . S
C106 C107 1.357 . S
C107 C106 1.357 . S
C107 C108 1.370 . S
C107 H133 0.950 . S
C108 N103 1.307 . S
C108 C107 1.370 . S
C108 H126 0.948 . S
Zn109 N103 2.020 1_655 S
Zn109 O118 2.039 . S
Zn109 O124 2.034 1_655 S
Zn109 O128 2.025 1_655 S
Zn109 O130 2.024 . S
C110 O129 1.246 . S
C110 O130 1.249 . S
N111 C112 1.307 . S
N111 C113 1.333 . S
N111 Zn117 2.020 . S
C112 N111 1.307 . S
C112 C116 1.370 . S
C112 H123 0.948 . S
C113 N111 1.333 . S
C113 C114 1.379 1_556 S
C113 H121 0.952 1_556 S
C114 C113 1.379 1_554 S
C114 C115 1.390 1_554 S
C114 H134 0.949 . S
C115 C114 1.390 1_556 S
C115 C116 1.357 . S
C116 C112 1.370 . S
C116 C115 1.357 . S
C116 H135 0.950 . S
Zn117 N111 2.020 . S
Zn117 O120 2.025 . S
Zn117 O125 2.024 . S
Zn117 O127 2.039 . S
Zn117 O129 2.034 . S
O118 C102 1.251 . S
O118 Zn109 2.039 . S
C119 O124 1.246 1_655 S
C119 O125 1.249 . S
O120 C102 1.254 . S
O120 Zn117 2.025 . S
H121 C113 0.952 1_554 S
H122 C104 0.952 . S
H123 C112 0.948 . S
O124 Zn109 2.034 1_455 S
O124 C119 1.246 1_455 S
O125 Zn117 2.024 . S
O125 C119 1.249 . S
H126 C108 0.948 . S
O127 Zn117 2.039 . S
O127 C131 1.251 . S
O128 Zn109 2.025 1_455 S
O128 C131 1.254 1_455 S
O129 C110 1.246 . S
O129 Zn117 2.034 . S
O130 Zn109 2.024 . S
O130 C110 1.249 . S
C131 O127 1.251 . S
C131 O128 1.254 1_655 S
H132 C105 0.949 . S
H133 C107 0.950 . S
H134 C114 0.949 . S
H135 C116 0.950 . S
C136 O152 1.251 . S
C136 O154 1.254 . S
N137 C138 1.333 . S
N137 C142 1.307 1_565 S
N137 Zn143 2.020 . S
C138 N137 1.333 . S
C138 C139 1.379 1_565 S
C138 H156 0.952 . S
C139 C138 1.379 1_545 S
C139 C140 1.390 . S
C139 H166 0.949 . S
C140 C139 1.390 . S
C140 C141 1.357 . S
C141 C140 1.357 . S
C141 C142 1.370 . S
C141 H167 0.950 . S
C142 N137 1.307 1_545 S
C142 C141 1.370 . S
C142 H160 0.948 1_545 S
Zn143 N137 2.020 . S
Zn143 O152 2.039 . S
Zn143 O158 2.034 . S
Zn143 O162 2.025 . S
Zn143 O164 2.024 . S
C144 O163 1.246 . S
C144 O164 1.249 . S
N145 C146 1.307 . S
N145 C147 1.333 . S
N145 Zn151 2.020 . S
C146 N145 1.307 . S
C146 C150 1.370 . S
C146 H157 0.948 . S
C147 N145 1.333 . S
C147 C148 1.379 . S
C147 H155 0.952 . S
C148 C147 1.379 . S
C148 C149 1.390 . S
C148 H168 0.949 . S
C149 C148 1.390 . S
C149 C150 1.357 . S
C150 C146 1.370 . S
C150 C149 1.357 . S
C150 H169 0.950 . S
Zn151 N145 2.020 . S
Zn151 O154 2.025 . S
Zn151 O159 2.024 . S
Zn151 O161 2.039 . S
Zn151 O163 2.034 . S
O152 C136 1.251 . S
O152 Zn143 2.039 . S
C153 O158 1.246 . S
C153 O159 1.249 . S
O154 C136 1.254 . S
O154 Zn151 2.025 . S
H155 C147 0.952 . S
H156 C138 0.952 . S
H157 C146 0.948 . S
O158 Zn143 2.034 . S
O158 C153 1.246 . S
O159 Zn151 2.024 . S
O159 C153 1.249 . S
H160 C142 0.948 1_565 S
O161 Zn151 2.039 . S
O161 C165 1.251 . S
O162 Zn143 2.025 . S
O162 C165 1.254 . S
O163 C144 1.246 . S
O163 Zn151 2.034 . S
O164 Zn143 2.024 . S
O164 C144 1.249 . S
C165 O161 1.251 . S
C165 O162 1.254 . S
H166 C139 0.949 . S
H167 C141 0.950 . S
H168 C148 0.949 . S
H169 C150 0.950 . S
C170 O186 1.251 . S
C170 O188 1.254 . S
N171 C172 1.333 . S
N171 C176 1.307 . S
N171 Zn177 2.020 . S
C172 N171 1.333 . S
C172 C173 1.379 . S
C172 H190 0.952 . S
C173 C172 1.379 . S
C173 C174 1.390 . S
C173 H200 0.949 . S
C174 C173 1.390 . S
C174 C175 1.357 . S
C175 C174 1.357 . S
C175 C176 1.370 . S
C175 H201 0.950 . S
C176 N171 1.307 . S
C176 C175 1.370 . S
C176 H194 0.948 . S
Zn177 N171 2.020 . S
Zn177 O186 2.039 . S
Zn177 O192 2.034 . S
Zn177 O196 2.025 . S
Zn177 O198 2.024 . S
C178 O197 1.246 . S
C178 O198 1.249 . S
N179 C180 1.307 . S
N179 C181 1.333 . S
N179 Zn185 2.020 . S
C180 N179 1.307 . S
C180 C184 1.370 . S
C180 H191 0.948 . S
C181 N179 1.333 . S
C181 C182 1.379 . S
C181 H189 0.952 . S
C182 C181 1.379 . S
C182 C183 1.390 . S
C182 H202 0.949 . S
C183 C182 1.390 . S
C183 C184 1.357 . S
C184 C180 1.370 . S
C184 C183 1.357 . S
C184 H203 0.950 . S
Zn185 N179 2.020 . S
Zn185 O188 2.025 . S
Zn185 O193 2.024 . S
Zn185 O195 2.039 . S
Zn185 O197 2.034 . S
O186 C170 1.251 . S
O186 Zn177 2.039 . S
C187 O192 1.246 . S
C187 O193 1.249 . S
O188 C170 1.254 . S
O188 Zn185 2.025 . S
H189 C181 0.952 . S
H190 C172 0.952 . S
H191 C180 0.948 . S
O192 Zn177 2.034 . S
O192 C187 1.246 . S
O193 Zn185 2.024 . S
O193 C187 1.249 . S
H194 C176 0.948 . S
O195 Zn185 2.039 . S
O195 C199 1.251 . S
O196 Zn177 2.025 . S
O196 C199 1.254 . S
O197 C178 1.246 . S
O197 Zn185 2.034 . S
O198 Zn177 2.024 . S
O198 C178 1.249 . S
C199 O195 1.251 . S
C199 O196 1.254 . S
H200 C173 0.949 . S
H201 C175 0.950 . S
H202 C182 0.949 . S
H203 C184 0.950 . S
C204 O220 1.251 . S
C204 O222 1.254 . S
N205 C206 1.333 . S
N205 C210 1.307 1_545 S
N205 Zn211 2.020 . S
C206 N205 1.333 . S
C206 C207 1.379 1_545 S
C206 H224 0.952 . S
C207 C206 1.379 1_565 S
C207 C208 1.390 . S
C207 H234 0.949 . S
C208 C207 1.390 . S
C208 C209 1.357 . S
C209 C208 1.357 . S
C209 C210 1.370 . S
C209 H235 0.950 1_655 S
C210 N205 1.307 1_565 S
C210 C209 1.370 . S
C210 H228 0.948 1_565 S
Zn211 N205 2.020 . S
Zn211 O220 2.039 . S
Zn211 O226 2.034 . S
Zn211 O230 2.025 . S
Zn211 O232 2.024 . S
C212 O231 1.246 . S
C212 O232 1.249 . S
N213 C214 1.307 . S
N213 C215 1.333 . S
N213 Zn219 2.020 . S
C214 N213 1.307 . S
C214 C218 1.370 . S
C214 H225 0.948 . S
C215 N213 1.333 . S
C215 C216 1.379 . S
C215 H223 0.952 . S
C216 C215 1.379 . S
C216 C217 1.390 . S
C216 H236 0.949 . S
C217 C216 1.390 . S
C217 C218 1.357 . S
C218 C214 1.370 . S
C218 C217 1.357 . S
C218 H237 0.950 . S
Zn219 N213 2.020 . S
Zn219 O222 2.025 . S
Zn219 O227 2.024 . S
Zn219 O229 2.039 . S
Zn219 O231 2.034 . S
O220 C204 1.251 . S
O220 Zn211 2.039 . S
C221 O226 1.246 . S
C221 O227 1.249 . S
O222 C204 1.254 . S
O222 Zn219 2.025 . S
H223 C215 0.952 . S
H224 C206 0.952 . S
H225 C214 0.948 . S
O226 Zn211 2.034 . S
O226 C221 1.246 . S
O227 Zn219 2.024 . S
O227 C221 1.249 . S
H228 C210 0.948 1_545 S
O229 Zn219 2.039 . S
O229 C233 1.251 . S
O230 Zn211 2.025 . S
O230 C233 1.254 . S
O231 C212 1.246 . S
O231 Zn219 2.034 . S
O232 Zn211 2.024 . S
O232 C212 1.249 . S
C233 O229 1.251 . S
C233 O230 1.254 . S
H234 C207 0.949 . S
H235 C209 0.950 1_455 S
H236 C216 0.949 . S
H237 C218 0.950 . S
C238 O254 1.251 . S
C238 O256 1.254 1_455 S
N239 C240 1.333 . S
N239 C244 1.307 . S
N239 Zn245 2.020 . S
C240 N239 1.333 . S
C240 C241 1.379 1_554 S
C240 H258 0.952 1_554 S
C241 C240 1.379 1_556 S
C241 C242 1.390 1_556 S
C241 H268 0.949 . S
C242 C241 1.390 1_554 S
C242 C243 1.357 . S
C243 C242 1.357 . S
C243 C244 1.370 . S
C243 H269 0.950 . S
C244 N239 1.307 . S
C244 C243 1.370 . S
C244 H262 0.948 . S
Zn245 N239 2.020 . S
Zn245 O254 2.039 . S
Zn245 O260 2.034 . S
Zn245 O264 2.025 . S
Zn245 O266 2.024 . S
C246 O265 1.246 1_455 S
C246 O266 1.249 . S
N247 C248 1.307 . S
N247 C249 1.333 . S
N247 Zn253 2.020 1_655 S
C248 N247 1.307 . S
C248 C252 1.370 . S
C248 H259 0.948 . S
C249 N247 1.333 . S
C249 C250 1.379 . S
C249 H257 0.952 . S
C250 C249 1.379 . S
C250 C251 1.390 . S
C250 H270 0.949 . S
C251 C250 1.390 . S
C251 C252 1.357 . S
C252 C248 1.370 . S
C252 C251 1.357 . S
C252 H271 0.950 . S
Zn253 N247 2.020 1_455 S
Zn253 O256 2.025 1_455 S
Zn253 O261 2.024 . S
Zn253 O263 2.039 . S
Zn253 O265 2.034 1_455 S
O254 C238 1.251 . S
O254 Zn245 2.039 . S
C255 O260 1.246 . S
C255 O261 1.249 . S
O256 C238 1.254 1_655 S
O256 Zn253 2.025 1_655 S
H257 C249 0.952 . S
H258 C240 0.952 1_556 S
H259 C248 0.948 . S
O260 Zn245 2.034 . S
O260 C255 1.246 . S
O261 Zn253 2.024 . S
O261 C255 1.249 . S
H262 C244 0.948 . S
O263 Zn253 2.039 . S
O263 C267 1.251 . S
O264 Zn245 2.025 . S
O264 C267 1.254 . S
O265 C246 1.246 1_655 S
O265 Zn253 2.034 1_655 S
O266 Zn245 2.024 . S
O266 C246 1.249 . S
C267 O263 1.251 . S
C267 O264 1.254 . S
H268 C241 0.949 . S
H269 C243 0.950 . S
H270 C250 0.949 . S
H271 C252 0.950 . S
C272 O288 1.251 . S
C272 O290 1.254 . S
N273 C274 1.333 . S
N273 C278 1.307 . S
N273 Zn279 2.020 . S
C274 N273 1.333 . S
C274 C275 1.379 . S
C274 H292 0.952 . S
C275 C274 1.379 . S
C275 C276 1.390 . S
C275 H302 0.949 . S
C276 C275 1.390 . S
C276 C277 1.357 . S
C277 C276 1.357 . S
C277 C278 1.370 . S
C277 H303 0.950 . S
C278 N273 1.307 . S
C278 C277 1.370 . S
C278 H296 0.948 . S
Zn279 N273 2.020 . S
Zn279 O288 2.039 . S
Zn279 O294 2.034 . S
Zn279 O298 2.025 . S
Zn279 O300 2.024 . S
C280 O299 1.246 . S
C280 O300 1.249 . S
N281 C282 1.307 . S
N281 C283 1.333 . S
N281 Zn287 2.020 . S
C282 N281 1.307 . S
C282 C286 1.370 . S
C282 H293 0.948 . S
C283 N281 1.333 . S
C283 C284 1.379 . S
C283 H291 0.952 . S
C284 C283 1.379 . S
C284 C285 1.390 . S
C284 H304 0.949 . S
C285 C284 1.390 . S
C285 C286 1.357 . S
C286 C282 1.370 . S
C286 C285 1.357 . S
C286 H305 0.950 1_655 S
Zn287 N281 2.020 . S
Zn287 O290 2.025 . S
Zn287 O295 2.024 . S
Zn287 O297 2.039 . S
Zn287 O299 2.034 . S
O288 C272 1.251 . S
O288 Zn279 2.039 . S
C289 O294 1.246 . S
C289 O295 1.249 . S
O290 C272 1.254 . S
O290 Zn287 2.025 . S
H291 C283 0.952 . S
H292 C274 0.952 . S
H293 C282 0.948 . S
O294 Zn279 2.034 . S
O294 C289 1.246 . S
O295 Zn287 2.024 . S
O295 C289 1.249 . S
H296 C278 0.948 . S
O297 Zn287 2.039 . S
O297 C301 1.251 . S
O298 Zn279 2.025 . S
O298 C301 1.254 . S
O299 C280 1.246 . S
O299 Zn287 2.034 . S
O300 Zn279 2.024 . S
O300 C280 1.249 . S
C301 O297 1.251 . S
C301 O298 1.254 . S
H302 C275 0.949 . S
H303 C277 0.950 . S
H304 C284 0.949 . S
H305 C286 0.950 1_455 S
C306 O322 1.251 . S
C306 O324 1.254 . S
N307 C308 1.333 . S
N307 C312 1.307 1_545 S
N307 Zn313 2.020 1_655 S
C308 N307 1.333 . S
C308 C309 1.379 1_545 S
C308 H326 0.952 . S
C309 C308 1.379 1_565 S
C309 C310 1.390 . S
C309 H336 0.949 1_565 S
C310 C309 1.390 . S
C310 C311 1.357 . S
C311 C310 1.357 . S
C311 C312 1.370 . S
C311 H337 0.950 . S
C312 N307 1.307 1_565 S
C312 C311 1.370 . S
C312 H330 0.948 . S
Zn313 N307 2.020 1_455 S
Zn313 O322 2.039 . S
Zn313 O328 2.034 1_455 S
Zn313 O332 2.025 1_455 S
Zn313 O334 2.024 1_545 S
C314 O333 1.246 1_565 S
C314 O334 1.249 . S
N315 C316 1.307 . S
N315 C317 1.333 . S
N315 Zn321 2.020 . S
C316 N315 1.307 . S
C316 C320 1.370 . S
C316 H327 0.948 . S
C317 N315 1.333 . S
C317 C318 1.379 1_556 S
C317 H325 0.952 1_556 S
C318 C317 1.379 1_554 S
C318 C319 1.390 1_554 S
C318 H338 0.949 . S
C319 C318 1.390 1_556 S
C319 C320 1.357 . S
C320 C316 1.370 . S
C320 C319 1.357 . S
C320 H339 0.950 . S
Zn321 N315 2.020 . S
Zn321 O324 2.025 . S
Zn321 O329 2.024 . S
Zn321 O331 2.039 . S
Zn321 O333 2.034 . S
O322 C306 1.251 . S
O322 Zn313 2.039 . S
C323 O328 1.246 1_455 S
C323 O329 1.249 . S
O324 C306 1.254 . S
O324 Zn321 2.025 . S
H325 C317 0.952 1_554 S
H326 C308 0.952 . S
H327 C316 0.948 . S
O328 Zn313 2.034 1_655 S
O328 C323 1.246 1_655 S
O329 Zn321 2.024 . S
O329 C323 1.249 . S
H330 C312 0.948 . S
O331 Zn321 2.039 . S
O331 C335 1.251 . S
O332 Zn313 2.025 1_655 S
O332 C335 1.254 1_655 S
O333 C314 1.246 1_545 S
O333 Zn321 2.034 . S
O334 Zn313 2.024 1_565 S
O334 C314 1.249 . S
C335 O331 1.251 . S
C335 O332 1.254 1_455 S
H336 C309 0.949 1_545 S
H337 C311 0.950 . S
H338 C318 0.949 . S
H339 C320 0.950 . S
C340 O356 1.251 . S
C340 O358 1.254 . S
N341 C342 1.333 . S
N341 C346 1.307 . S
N341 Zn347 2.020 . S
C342 N341 1.333 . S
C342 C343 1.379 . S
C342 H360 0.952 . S
C343 C342 1.379 . S
C343 C344 1.390 . S
C343 H370 0.949 . S
C344 C343 1.390 . S
C344 C345 1.357 . S
C345 C344 1.357 . S
C345 C346 1.370 . S
C345 H371 0.950 . S
C346 N341 1.307 . S
C346 C345 1.370 . S
C346 H364 0.948 . S
Zn347 N341 2.020 . S
Zn347 O356 2.039 . S
Zn347 O362 2.034 . S
Zn347 O366 2.025 . S
Zn347 O368 2.024 . S
C348 O367 1.246 . S
C348 O368 1.249 . S
N349 C350 1.307 . S
N349 C351 1.333 . S
N349 Zn355 2.020 . S
C350 N349 1.307 . S
C350 C354 1.370 . S
C350 H361 0.948 . S
C351 N349 1.333 . S
C351 C352 1.379 . S
C351 H359 0.952 . S
C352 C351 1.379 . S
C352 C353 1.390 . S
C352 H372 0.949 . S
C353 C352 1.390 . S
C353 C354 1.357 . S
C354 C350 1.370 . S
C354 C353 1.357 . S
C354 H373 0.950 . S
Zn355 N349 2.020 . S
Zn355 O358 2.025 . S
Zn355 O363 2.024 . S
Zn355 O365 2.039 . S
Zn355 O367 2.034 . S
O356 C340 1.251 . S
O356 Zn347 2.039 . S
C357 O362 1.246 . S
C357 O363 1.249 . S
O358 C340 1.254 . S
O358 Zn355 2.025 . S
H359 C351 0.952 . S
H360 C342 0.952 . S
H361 C350 0.948 . S
O362 Zn347 2.034 . S
O362 C357 1.246 . S
O363 Zn355 2.024 . S
O363 C357 1.249 . S
H364 C346 0.948 . S
O365 Zn355 2.039 . S
O365 C369 1.251 . S
O366 Zn347 2.025 . S
O366 C369 1.254 . S
O367 C348 1.246 . S
O367 Zn355 2.034 . S
O368 Zn347 2.024 . S
O368 C348 1.249 . S
C369 O365 1.251 . S
C369 O366 1.254 . S
H370 C343 0.949 . S
H371 C345 0.950 . S
H372 C352 0.949 . S
H373 C354 0.950 . S
C374 O390 1.251 . S
C374 O392 1.254 . S
N375 C376 1.333 . S
N375 C380 1.307 1_565 S
N375 Zn381 2.020 . S
C376 N375 1.333 . S
C376 C377 1.379 1_565 S
C376 H394 0.952 . S
C377 C376 1.379 1_545 S
C377 C378 1.390 . S
C377 H404 0.949 1_545 S
C378 C377 1.390 . S
C378 C379 1.357 . S
C379 C378 1.357 . S
C379 C380 1.370 . S
C379 H405 0.950 . S
C380 N375 1.307 1_545 S
C380 C379 1.370 . S
C380 H398 0.948 . S
Zn381 N375 2.020 . S
Zn381 O390 2.039 . S
Zn381 O396 2.034 . S
Zn381 O400 2.025 . S
Zn381 O402 2.024 1_565 S
C382 O401 1.246 1_545 S
C382 O402 1.249 . S
N383 C384 1.307 . S
N383 C385 1.333 . S
N383 Zn389 2.020 . S
C384 N383 1.307 . S
C384 C388 1.370 . S
C384 H395 0.948 . S
C385 N383 1.333 . S
C385 C386 1.379 . S
C385 H393 0.952 . S
C386 C385 1.379 . S
C386 C387 1.390 . S
C386 H406 0.949 . S
C387 C386 1.390 . S
C387 C388 1.357 . S
C388 C384 1.370 . S
C388 C387 1.357 . S
C388 H407 0.950 . S
Zn389 N383 2.020 . S
Zn389 O392 2.025 . S
Zn389 O397 2.024 . S
Zn389 O399 2.039 . S
Zn389 O401 2.034 . S
O390 C374 1.251 . S
O390 Zn381 2.039 . S
C391 O396 1.246 . S
C391 O397 1.249 . S
O392 C374 1.254 . S
O392 Zn389 2.025 . S
H393 C385 0.952 . S
H394 C376 0.952 . S
H395 C384 0.948 . S
O396 Zn381 2.034 . S
O396 C391 1.246 . S
O397 Zn389 2.024 . S
O397 C391 1.249 . S
H398 C380 0.948 . S
O399 Zn389 2.039 . S
O399 C403 1.251 . S
O400 Zn381 2.025 . S
O400 C403 1.254 . S
O401 C382 1.246 1_565 S
O401 Zn389 2.034 . S
O402 Zn381 2.024 1_545 S
O402 C382 1.249 . S
C403 O399 1.251 . S
C403 O400 1.254 . S
H404 C377 0.949 1_565 S
H405 C379 0.950 . S
H406 C386 0.949 . S
H407 C388 0.950 . S
C408 O424 1.251 . S
C408 O426 1.254 . S
N409 C410 1.333 . S
N409 C414 1.307 . S
N409 Zn415 2.020 . S
C410 N409 1.333 . S
C410 C411 1.379 . S
C410 H428 0.952 . S
C411 C410 1.379 . S
C411 C412 1.390 . S
C411 H438 0.949 . S
C412 C411 1.390 . S
C412 C413 1.357 . S
C413 C412 1.357 . S
C413 C414 1.370 . S
C413 H439 0.950 1_455 S
C414 N409 1.307 . S
C414 C413 1.370 . S
C414 H432 0.948 . S
Zn415 N409 2.020 . S
Zn415 O424 2.039 . S
Zn415 O430 2.034 . S
Zn415 O434 2.025 . S
Zn415 O436 2.024 . S
C416 O435 1.246 . S
C416 O436 1.249 . S
N417 C418 1.307 . S
N417 C419 1.333 . S
N417 Zn423 2.020 . S
C418 N417 1.307 . S
C418 C422 1.370 . S
C418 H429 0.948 . S
C419 N417 1.333 . S
C419 C420 1.379 . S
C419 H427 0.952 . S
C420 C419 1.379 . S
C420 C421 1.390 . S
C420 H440 0.949 . S
C421 C420 1.390 . S
C421 C422 1.357 . S
C422 C418 1.370 . S
C422 C421 1.357 . S
C422 H441 0.950 . S
Zn423 N417 2.020 . S
Zn423 O426 2.025 . S
Zn423 O431 2.024 . S
Zn423 O433 2.039 . S
Zn423 O435 2.034 . S
O424 C408 1.251 . S
O424 Zn415 2.039 . S
C425 O430 1.246 . S
C425 O431 1.249 . S
O426 C408 1.254 . S
O426 Zn423 2.025 . S
H427 C419 0.952 . S
H428 C410 0.952 . S
H429 C418 0.948 . S
O430 Zn415 2.034 . S
O430 C425 1.246 . S
O431 Zn423 2.024 . S
O431 C425 1.249 . S
H432 C414 0.948 . S
O433 Zn423 2.039 . S
O433 C437 1.251 . S
O434 Zn415 2.025 . S
O434 C437 1.254 . S
O435 C416 1.246 . S
O435 Zn423 2.034 . S
O436 Zn415 2.024 . S
O436 C416 1.249 . S
C437 O433 1.251 . S
C437 O434 1.254 . S
H438 C411 0.949 . S
H439 C413 0.950 1_655 S
H440 C420 0.949 . S
H441 C422 0.950 . S
C442 O458 1.251 . S
C442 O460 1.254 1_655 S
N443 C444 1.333 . S
N443 C448 1.307 . S
N443 Zn449 2.020 . S
C444 N443 1.333 . S
C444 C445 1.379 1_554 S
C444 H462 0.952 1_554 S
C445 C444 1.379 1_556 S
C445 C446 1.390 1_556 S
C445 H472 0.949 . S
C446 C445 1.390 1_554 S
C446 C447 1.357 . S
C447 C446 1.357 . S
C447 C448 1.370 . S
C447 H473 0.950 . S
C448 N443 1.307 . S
C448 C447 1.370 . S
C448 H466 0.948 . S
Zn449 N443 2.020 . S
Zn449 O458 2.039 . S
Zn449 O464 2.034 . S
Zn449 O468 2.025 . S
Zn449 O470 2.024 . S
C450 O469 1.246 1_655 S
C450 O470 1.249 . S
N451 C452 1.307 1_565 S
N451 C453 1.333 . S
N451 Zn457 2.020 1_455 S
C452 N451 1.307 1_545 S
C452 C456 1.370 . S
C452 H463 0.948 . S
C453 N451 1.333 . S
C453 C454 1.379 1_565 S
C453 H461 0.952 . S
C454 C453 1.379 1_545 S
C454 C455 1.390 . S
C454 H474 0.949 1_545 S
C455 C454 1.390 . S
C455 C456 1.357 . S
C456 C452 1.370 . S
C456 C455 1.357 . S
C456 H475 0.950 . S
Zn457 N451 2.020 1_655 S
Zn457 O460 2.025 1_655 S
Zn457 O465 2.024 1_565 S
Zn457 O467 2.039 . S
Zn457 O469 2.034 1_655 S
O458 C442 1.251 . S
O458 Zn449 2.039 . S
C459 O464 1.246 1_545 S
C459 O465 1.249 . S
O460 C442 1.254 1_455 S
O460 Zn457 2.025 1_455 S
H461 C453 0.952 . S
H462 C444 0.952 1_556 S
H463 C452 0.948 . S
O464 Zn449 2.034 . S
O464 C459 1.246 1_565 S
O465 Zn457 2.024 1_545 S
O465 C459 1.249 . S
H466 C448 0.948 . S
O467 Zn457 2.039 . S
O467 C471 1.251 . S
O468 Zn449 2.025 . S
O468 C471 1.254 . S
O469 C450 1.246 1_455 S
O469 Zn457 2.034 1_455 S
O470 Zn449 2.024 . S
O470 C450 1.249 . S
C471 O467 1.251 . S
C471 O468 1.254 . S
H472 C445 0.949 . S
H473 C447 0.950 . S
H474 C454 0.949 1_565 S
H475 C456 0.950 . S
C476 O492 1.251 . S
C476 O494 1.254 . S
N477 C478 1.333 . S
N477 C482 1.307 . S
N477 Zn483 2.020 . S
C478 N477 1.333 . S
C478 C479 1.379 . S
C478 H496 0.952 . S
C479 C478 1.379 . S
C479 C480 1.390 . S
C479 H506 0.949 . S
C480 C479 1.390 . S
C480 C481 1.357 . S
C481 C480 1.357 . S
C481 C482 1.370 . S
C481 H507 0.950 . S
C482 N477 1.307 . S
C482 C481 1.370 . S
C482 H500 0.948 . S
Zn483 N477 2.020 . S
Zn483 O492 2.039 . S
Zn483 O498 2.034 . S
Zn483 O502 2.025 . S
Zn483 O504 2.024 . S
C484 O503 1.246 . S
C484 O504 1.249 . S
N485 C486 1.307 . S
N485 C487 1.333 . S
N485 Zn491 2.020 . S
C486 N485 1.307 . S
C486 C490 1.370 . S
C486 H497 0.948 . S
C487 N485 1.333 . S
C487 C488 1.379 . S
C487 H495 0.952 . S
C488 C487 1.379 . S
C488 C489 1.390 . S
C488 H508 0.949 . S
C489 C488 1.390 . S
C489 C490 1.357 . S
C490 C486 1.370 . S
C490 C489 1.357 . S
C490 H509 0.950 . S
Zn491 N485 2.020 . S
Zn491 O494 2.025 . S
Zn491 O499 2.024 . S
Zn491 O501 2.039 . S
Zn491 O503 2.034 . S
O492 C476 1.251 . S
O492 Zn483 2.039 . S
C493 O498 1.246 . S
C493 O499 1.249 . S
O494 C476 1.254 . S
O494 Zn491 2.025 . S
H495 C487 0.952 . S
H496 C478 0.952 . S
H497 C486 0.948 . S
O498 Zn483 2.034 . S
O498 C493 1.246 . S
O499 Zn491 2.024 . S
O499 C493 1.249 . S
H500 C482 0.948 . S
O501 Zn491 2.039 . S
O501 C505 1.251 . S
O502 Zn483 2.025 . S
O502 C505 1.254 . S
O503 C484 1.246 . S
O503 Zn491 2.034 . S
O504 Zn483 2.024 . S
O504 C484 1.249 . S
C505 O501 1.251 . S
C505 O502 1.254 . S
H506 C479 0.949 . S
H507 C481 0.950 . S
H508 C488 0.949 . S
H509 C490 0.950 . S
C510 O526 1.251 . S
C510 O528 1.254 . S
N511 C512 1.333 . S
N511 C516 1.307 . S
N511 Zn517 2.020 . S
C512 N511 1.333 . S
C512 C513 1.379 . S
C512 H530 0.952 . S
C513 C512 1.379 . S
C513 C514 1.390 . S
C513 H540 0.949 . S
C514 C513 1.390 . S
C514 C515 1.357 . S
C515 C514 1.357 . S
C515 C516 1.370 . S
C515 H541 0.950 . S
C516 N511 1.307 . S
C516 C515 1.370 . S
C516 H534 0.948 . S
Zn517 N511 2.020 . S
Zn517 O526 2.039 . S
Zn517 O532 2.034 . S
Zn517 O536 2.025 . S
Zn517 O538 2.024 . S
C518 O537 1.246 . S
C518 O538 1.249 . S
N519 C520 1.307 1_545 S
N519 C521 1.333 . S
N519 Zn525 2.020 . S
C520 N519 1.307 1_565 S
C520 C524 1.370 . S
C520 H531 0.948 . S
C521 N519 1.333 . S
C521 C522 1.379 1_545 S
C521 H529 0.952 . S
C522 C521 1.379 1_565 S
C522 C523 1.390 . S
C522 H542 0.949 1_565 S
C523 C522 1.390 . S
C523 C524 1.357 . S
C524 C520 1.370 . S
C524 C523 1.357 . S
C524 H543 0.950 . S
Zn525 N519 2.020 . S
Zn525 O528 2.025 . S
Zn525 O533 2.024 1_545 S
Zn525 O535 2.039 . S
Zn525 O537 2.034 . S
O526 C510 1.251 . S
O526 Zn517 2.039 . S
C527 O532 1.246 1_565 S
C527 O533 1.249 . S
O528 C510 1.254 . S
O528 Zn525 2.025 . S
H529 C521 0.952 . S
H530 C512 0.952 . S
H531 C520 0.948 . S
O532 Zn517 2.034 . S
O532 C527 1.246 1_545 S
O533 Zn525 2.024 1_565 S
O533 C527 1.249 . S
H534 C516 0.948 . S
O535 Zn525 2.039 . S
O535 C539 1.251 . S
O536 Zn517 2.025 . S
O536 C539 1.254 . S
O537 C518 1.246 . S
O537 Zn525 2.034 . S
O538 Zn517 2.024 . S
O538 C518 1.249 . S
C539 O535 1.251 . S
C539 O536 1.254 . S
H540 C513 0.949 . S
H541 C515 0.950 . S
H542 C522 0.949 1_545 S
H543 C524 0.950 . S
C29 C408 3.048 . S
C170 C63 3.047 . S
C97 C476 3.048 . S
C131 C238 3.048 1_656 S
C136 C301 3.048 . S
C369 C204 3.048 . S
C442 C335 3.048 1_664 S
C403 C510 3.048 1_565 S
C319 C0 2.977 1_556 S
C34 C353 2.977 . S
C68 C387 2.977 . S
C285 C102 2.977 . S
C446 C165 2.977 1_554 S
C480 C199 2.977 . S
C233 C514 2.977 . S
C412 C267 2.977 . S
C272 C47 2.977 . S
C306 C81 2.977 . S
C340 C115 2.977 1_554 S
C13 C374 2.977 . S
C174 C437 2.977 . S
C471 C208 2.977 . S
C242 C505 2.977 1_554 S
C539 C140 2.977 . S
C17 C357 2.159 . S
C51 C391 2.159 . S
C289 C85 2.159 1_655 S
C119 C323 2.159 1_655 S
C144 C484 2.159 . S
C178 C518 2.159 . S
C416 C212 2.159 1_455 S
C246 C450 2.159 1_455 S
C4 C255 1.714 . S
C425 C38 1.714 . S
C72 C187 1.714 . S
C106 C493 1.714 . S
C149 C110 1.714 . S
C280 C183 1.714 . S
C217 C42 1.714 . S
C348 C251 1.714 . S
C276 C527 1.714 . S
C153 C310 1.714 . S
C459 C344 1.714 . S
C378 C221 1.714 . S
C421 C382 1.714 . S
C455 C8 1.714 . S
C314 C489 1.714 . S
C76 C523 1.714 . S
