# Generated by pormake.
# Topology wir, (6)-cn, num edge types: 1
# Building blocks:
#     Node 0, Type 0, BuildingBlock: KUMJIN_clean_sbu_1, # of connection points: 6
#     Node 1, Type 0, BuildingBlock: KUMJIN_clean_sbu_1, # of connection points: 6
#     Node 2, Type 0, BuildingBlock: KUMJIN_clean_sbu_1, # of connection points: 6
#     Node 3, Type 0, BuildingBlock: KUMJIN_clean_sbu_1, # of connection points: 6
#     Node 4, Type 0, BuildingBlock: KUMJIN_clean_sbu_1, # of connection points: 6
#     Node 5, Type 0, BuildingBlock: KUMJIN_clean_sbu_1, # of connection points: 6
#     Node 6, Type 0, BuildingBlock: KUMJIN_clean_sbu_1, # of connection points: 6
#     Node 7, Type 0, BuildingBlock: KUMJIN_clean_sbu_1, # of connection points: 6
#     Node 8, Type 0, BuildingBlock: KUMJIN_clean_sbu_1, # of connection points: 6
#     Node 9, Type 0, BuildingBlock: KUMJIN_clean_sbu_1, # of connection points: 6
#     Node 10, Type 0, BuildingBlock: KUMJIN_clean_sbu_1, # of connection points: 6
#     Node 11, Type 0, BuildingBlock: KUMJIN_clean_sbu_1, # of connection points: 6
#     Node 12, Type 0, BuildingBlock: KUMJIN_clean_sbu_1, # of connection points: 6
#     Node 13, Type 0, BuildingBlock: KUMJIN_clean_sbu_1, # of connection points: 6
#     Node 14, Type 0, BuildingBlock: KUMJIN_clean_sbu_1, # of connection points: 6
#     Node 15, Type 0, BuildingBlock: KUMJIN_clean_sbu_1, # of connection points: 6
#     Node 16, Type 0, BuildingBlock: KUMJIN_clean_sbu_1, # of connection points: 6
#     Node 17, Type 0, BuildingBlock: KUMJIN_clean_sbu_1, # of connection points: 6
#     Node 18, Type 0, BuildingBlock: KUMJIN_clean_sbu_1, # of connection points: 6
#     Node 19, Type 0, BuildingBlock: KUMJIN_clean_sbu_1, # of connection points: 6
#     Node 20, Type 0, BuildingBlock: KUMJIN_clean_sbu_1, # of connection points: 6
#     Node 21, Type 0, BuildingBlock: KUMJIN_clean_sbu_1, # of connection points: 6
#     Node 22, Type 0, BuildingBlock: KUMJIN_clean_sbu_1, # of connection points: 6
#     Node 23, Type 0, BuildingBlock: KUMJIN_clean_sbu_1, # of connection points: 6
#     Node 24, Type 0, BuildingBlock: KUMJIN_clean_sbu_1, # of connection points: 6
#     Node 25, Type 0, BuildingBlock: KUMJIN_clean_sbu_1, # of connection points: 6
#     Node 26, Type 0, BuildingBlock: KUMJIN_clean_sbu_1, # of connection points: 6
#     Node 27, Type 0, BuildingBlock: KUMJIN_clean_sbu_1, # of connection points: 6
#     Node 28, Type 0, BuildingBlock: KUMJIN_clean_sbu_1, # of connection points: 6
#     Node 29, Type 0, BuildingBlock: KUMJIN_clean_sbu_1, # of connection points: 6
#     Node 30, Type 0, BuildingBlock: KUMJIN_clean_sbu_1, # of connection points: 6
#     Node 31, Type 0, BuildingBlock: KUMJIN_clean_sbu_1, # of connection points: 6
#     Edge 32, Type (0, 0), BuildingBlock: KIFKEQ_clean_linker_1, # of connection points: 2
#     Edge 33, Type (0, 0), BuildingBlock: KIFKEQ_clean_linker_1, # of connection points: 2
#     Edge 34, Type (0, 0), BuildingBlock: KIFKEQ_clean_linker_1, # of connection points: 2
#     Edge 35, Type (0, 0), BuildingBlock: KIFKEQ_clean_linker_1, # of connection points: 2
#     Edge 36, Type (0, 0), BuildingBlock: KIFKEQ_clean_linker_1, # of connection points: 2
#     Edge 37, Type (0, 0), BuildingBlock: KIFKEQ_clean_linker_1, # of connection points: 2
#     Edge 38, Type (0, 0), BuildingBlock: KIFKEQ_clean_linker_1, # of connection points: 2
#     Edge 39, Type (0, 0), BuildingBlock: KIFKEQ_clean_linker_1, # of connection points: 2
#     Edge 40, Type (0, 0), BuildingBlock: KIFKEQ_clean_linker_1, # of connection points: 2
#     Edge 41, Type (0, 0), BuildingBlock: KIFKEQ_clean_linker_1, # of connection points: 2
#     Edge 42, Type (0, 0), BuildingBlock: KIFKEQ_clean_linker_1, # of connection points: 2
#     Edge 43, Type (0, 0), BuildingBlock: KIFKEQ_clean_linker_1, # of connection points: 2
#     Edge 44, Type (0, 0), BuildingBlock: KIFKEQ_clean_linker_1, # of connection points: 2
#     Edge 45, Type (0, 0), BuildingBlock: KIFKEQ_clean_linker_1, # of connection points: 2
#     Edge 46, Type (0, 0), BuildingBlock: KIFKEQ_clean_linker_1, # of connection points: 2
#     Edge 47, Type (0, 0), BuildingBlock: KIFKEQ_clean_linker_1, # of connection points: 2
#     Edge 48, Type (0, 0), BuildingBlock: KIFKEQ_clean_linker_1, # of connection points: 2
#     Edge 49, Type (0, 0), BuildingBlock: KIFKEQ_clean_linker_1, # of connection points: 2
#     Edge 50, Type (0, 0), BuildingBlock: KIFKEQ_clean_linker_1, # of connection points: 2
#     Edge 51, Type (0, 0), BuildingBlock: KIFKEQ_clean_linker_1, # of connection points: 2
#     Edge 52, Type (0, 0), BuildingBlock: KIFKEQ_clean_linker_1, # of connection points: 2
#     Edge 53, Type (0, 0), BuildingBlock: KIFKEQ_clean_linker_1, # of connection points: 2
#     Edge 54, Type (0, 0), BuildingBlock: KIFKEQ_clean_linker_1, # of connection points: 2
#     Edge 55, Type (0, 0), BuildingBlock: KIFKEQ_clean_linker_1, # of connection points: 2
#     Edge 56, Type (0, 0), BuildingBlock: KIFKEQ_clean_linker_1, # of connection points: 2
#     Edge 57, Type (0, 0), BuildingBlock: KIFKEQ_clean_linker_1, # of connection points: 2
#     Edge 58, Type (0, 0), BuildingBlock: KIFKEQ_clean_linker_1, # of connection points: 2
#     Edge 59, Type (0, 0), BuildingBlock: KIFKEQ_clean_linker_1, # of connection points: 2
#     Edge 60, Type (0, 0), BuildingBlock: KIFKEQ_clean_linker_1, # of connection points: 2
#     Edge 61, Type (0, 0), BuildingBlock: KIFKEQ_clean_linker_1, # of connection points: 2
#     Edge 62, Type (0, 0), BuildingBlock: KIFKEQ_clean_linker_1, # of connection points: 2
#     Edge 63, Type (0, 0), BuildingBlock: KIFKEQ_clean_linker_1, # of connection points: 2
#     Edge 64, Type (0, 0), BuildingBlock: KIFKEQ_clean_linker_1, # of connection points: 2
#     Edge 65, Type (0, 0), BuildingBlock: KIFKEQ_clean_linker_1, # of connection points: 2
#     Edge 66, Type (0, 0), BuildingBlock: KIFKEQ_clean_linker_1, # of connection points: 2
#     Edge 67, Type (0, 0), BuildingBlock: KIFKEQ_clean_linker_1, # of connection points: 2
#     Edge 68, Type (0, 0), BuildingBlock: KIFKEQ_clean_linker_1, # of connection points: 2
#     Edge 69, Type (0, 0), BuildingBlock: KIFKEQ_clean_linker_1, # of connection points: 2
#     Edge 70, Type (0, 0), BuildingBlock: KIFKEQ_clean_linker_1, # of connection points: 2
#     Edge 71, Type (0, 0), BuildingBlock: KIFKEQ_clean_linker_1, # of connection points: 2
#     Edge 72, Type (0, 0), BuildingBlock: KIFKEQ_clean_linker_1, # of connection points: 2
#     Edge 73, Type (0, 0), BuildingBlock: KIFKEQ_clean_linker_1, # of connection points: 2
#     Edge 74, Type (0, 0), BuildingBlock: KIFKEQ_clean_linker_1, # of connection points: 2
#     Edge 75, Type (0, 0), BuildingBlock: KIFKEQ_clean_linker_1, # of connection points: 2
#     Edge 76, Type (0, 0), BuildingBlock: KIFKEQ_clean_linker_1, # of connection points: 2
#     Edge 77, Type (0, 0), BuildingBlock: KIFKEQ_clean_linker_1, # of connection points: 2
#     Edge 78, Type (0, 0), BuildingBlock: KIFKEQ_clean_linker_1, # of connection points: 2
#     Edge 79, Type (0, 0), BuildingBlock: KIFKEQ_clean_linker_1, # of connection points: 2
#     Edge 80, Type (0, 0), BuildingBlock: KIFKEQ_clean_linker_1, # of connection points: 2
#     Edge 81, Type (0, 0), BuildingBlock: KIFKEQ_clean_linker_1, # of connection points: 2
#     Edge 82, Type (0, 0), BuildingBlock: KIFKEQ_clean_linker_1, # of connection points: 2
#     Edge 83, Type (0, 0), BuildingBlock: KIFKEQ_clean_linker_1, # of connection points: 2
#     Edge 84, Type (0, 0), BuildingBlock: KIFKEQ_clean_linker_1, # of connection points: 2
#     Edge 85, Type (0, 0), BuildingBlock: KIFKEQ_clean_linker_1, # of connection points: 2
#     Edge 86, Type (0, 0), BuildingBlock: KIFKEQ_clean_linker_1, # of connection points: 2
#     Edge 87, Type (0, 0), BuildingBlock: KIFKEQ_clean_linker_1, # of connection points: 2
#     Edge 88, Type (0, 0), BuildingBlock: KIFKEQ_clean_linker_1, # of connection points: 2
#     Edge 89, Type (0, 0), BuildingBlock: KIFKEQ_clean_linker_1, # of connection points: 2
#     Edge 90, Type (0, 0), BuildingBlock: KIFKEQ_clean_linker_1, # of connection points: 2
#     Edge 91, Type (0, 0), BuildingBlock: KIFKEQ_clean_linker_1, # of connection points: 2
#     Edge 92, Type (0, 0), BuildingBlock: KIFKEQ_clean_linker_1, # of connection points: 2
#     Edge 93, Type (0, 0), BuildingBlock: KIFKEQ_clean_linker_1, # of connection points: 2
#     Edge 94, Type (0, 0), BuildingBlock: KIFKEQ_clean_linker_1, # of connection points: 2
#     Edge 95, Type (0, 0), BuildingBlock: KIFKEQ_clean_linker_1, # of connection points: 2
#     Edge 96, Type (0, 0), BuildingBlock: KIFKEQ_clean_linker_1, # of connection points: 2
#     Edge 97, Type (0, 0), BuildingBlock: KIFKEQ_clean_linker_1, # of connection points: 2
#     Edge 98, Type (0, 0), BuildingBlock: KIFKEQ_clean_linker_1, # of connection points: 2
#     Edge 99, Type (0, 0), BuildingBlock: KIFKEQ_clean_linker_1, # of connection points: 2
#     Edge 100, Type (0, 0), BuildingBlock: KIFKEQ_clean_linker_1, # of connection points: 2
#     Edge 101, Type (0, 0), BuildingBlock: KIFKEQ_clean_linker_1, # of connection points: 2
#     Edge 102, Type (0, 0), BuildingBlock: KIFKEQ_clean_linker_1, # of connection points: 2
#     Edge 103, Type (0, 0), BuildingBlock: KIFKEQ_clean_linker_1, # of connection points: 2
#     Edge 104, Type (0, 0), BuildingBlock: KIFKEQ_clean_linker_1, # of connection points: 2
#     Edge 105, Type (0, 0), BuildingBlock: KIFKEQ_clean_linker_1, # of connection points: 2
#     Edge 106, Type (0, 0), BuildingBlock: KIFKEQ_clean_linker_1, # of connection points: 2
#     Edge 107, Type (0, 0), BuildingBlock: KIFKEQ_clean_linker_1, # of connection points: 2
#     Edge 108, Type (0, 0), BuildingBlock: KIFKEQ_clean_linker_1, # of connection points: 2
#     Edge 109, Type (0, 0), BuildingBlock: KIFKEQ_clean_linker_1, # of connection points: 2
#     Edge 110, Type (0, 0), BuildingBlock: KIFKEQ_clean_linker_1, # of connection points: 2
#     Edge 111, Type (0, 0), BuildingBlock: KIFKEQ_clean_linker_1, # of connection points: 2
#     Edge 112, Type (0, 0), BuildingBlock: KIFKEQ_clean_linker_1, # of connection points: 2
#     Edge 113, Type (0, 0), BuildingBlock: KIFKEQ_clean_linker_1, # of connection points: 2
#     Edge 114, Type (0, 0), BuildingBlock: KIFKEQ_clean_linker_1, # of connection points: 2
#     Edge 115, Type (0, 0), BuildingBlock: KIFKEQ_clean_linker_1, # of connection points: 2
#     Edge 116, Type (0, 0), BuildingBlock: KIFKEQ_clean_linker_1, # of connection points: 2
#     Edge 117, Type (0, 0), BuildingBlock: KIFKEQ_clean_linker_1, # of connection points: 2
#     Edge 118, Type (0, 0), BuildingBlock: KIFKEQ_clean_linker_1, # of connection points: 2
#     Edge 119, Type (0, 0), BuildingBlock: KIFKEQ_clean_linker_1, # of connection points: 2
#     Edge 120, Type (0, 0), BuildingBlock: KIFKEQ_clean_linker_1, # of connection points: 2
#     Edge 121, Type (0, 0), BuildingBlock: KIFKEQ_clean_linker_1, # of connection points: 2
#     Edge 122, Type (0, 0), BuildingBlock: KIFKEQ_clean_linker_1, # of connection points: 2
#     Edge 123, Type (0, 0), BuildingBlock: KIFKEQ_clean_linker_1, # of connection points: 2
#     Edge 124, Type (0, 0), BuildingBlock: KIFKEQ_clean_linker_1, # of connection points: 2
#     Edge 125, Type (0, 0), BuildingBlock: KIFKEQ_clean_linker_1, # of connection points: 2
#     Edge 126, Type (0, 0), BuildingBlock: KIFKEQ_clean_linker_1, # of connection points: 2
#     Edge 127, Type (0, 0), BuildingBlock: KIFKEQ_clean_linker_1, # of connection points: 2
# Relax obj value: 0.341
# Max RMSD: 0.189
# Mean RMSD: 0.189
data_MOF--net-wir--node1-KUMJIN_clean_sbu_1--edge1-KIFKEQ_clean_linker_1
_symmetry_space_group_name_H-M    P1
_symmetry_Int_Tables_number       1
_symmetry_cell_setting            triclinic
loop_
_symmetry_equiv_pos_as_xyz
'x, y, z'
_cell_length_a     41.476999
_cell_length_b     41.498653
_cell_length_c     98.111342
_cell_angle_alpha  90.108061
_cell_angle_beta   89.644638
_cell_angle_gamma 90.013419
loop_
_atom_site_label
_atom_site_type_symbol
_atom_site_fract_x
_atom_site_fract_y
_atom_site_fract_z
_atom_type_partial_charge
Eu0 Eu 0.23087 0.1942 0.37749 0.0
C1 C 0.32182 0.31287 0.38076 0.0
N2 N 0.31724 0.2836 0.38672 0.0
C3 C 0.3741 0.27333 0.3858 0.0
C4 C 0.35295 0.32329 0.37694 0.0
C5 C 0.3428 0.26387 0.38933 0.0
C6 C 0.37923 0.30321 0.37964 0.0
C7 C 0.29876 0.36089 0.37067 0.0
C8 C 0.29495 0.33145 0.37767 0.0
C9 C 0.3298 0.37173 0.36718 0.0
C10 C 0.35681 0.35301 0.37032 0.0
Eu11 Eu 0.26422 0.27259 0.39445 0.0
N12 N 0.2651 0.32016 0.38105 0.0
C13 C 0.27123 0.37842 0.36721 0.0
C14 C 0.23822 0.33753 0.37785 0.0
C15 C 0.24086 0.36657 0.37074 0.0
H16 H 0.33931 0.24083 0.39415 0.0
H17 H 0.21943 0.38015 0.36822 0.0
H18 H 0.19466 0.22514 0.34971 0.0
H19 H 0.21191 0.07727 0.40165 0.0
H20 H 0.21457 0.32976 0.38092 0.0
H21 H 0.27315 0.4011 0.36181 0.0
H22 H 0.23977 0.12859 0.39701 0.0
H23 H 0.39429 0.2576 0.38787 0.0
H24 H 0.33314 0.39438 0.36188 0.0
H25 H 0.38056 0.36148 0.36738 0.0
H26 H 0.14847 0.21344 0.33497 0.0
H27 H 0.40352 0.31038 0.37687 0.0
H28 H 0.16273 0.06297 0.38884 0.0
N29 N 0.1881 0.18361 0.36216 0.0
C30 C 0.17057 0.1565 0.36433 0.0
C31 C 0.15437 0.19722 0.34321 0.0
C32 C 0.14389 0.14879 0.35609 0.0
C33 C 0.18069 0.20373 0.35162 0.0
C34 C 0.13574 0.16974 0.3455 0.0
N35 N 0.20649 0.14363 0.38191 0.0
C36 C 0.21836 0.12271 0.39136 0.0
C37 C 0.16342 0.10666 0.3768 0.0
C38 C 0.18009 0.13582 0.37454 0.0
C39 C 0.17484 0.0856 0.38679 0.0
C40 C 0.20261 0.09357 0.39402 0.0
H41 H 0.11542 0.16471 0.33894 0.0
H42 H 0.10592 0.11401 0.35235 0.0
H43 H 0.1231 0.07702 0.37049 0.0
O44 O 0.28126 0.19455 0.37103 0.0
O45 O 0.21127 0.18848 0.39921 0.0
O46 O 0.2343 0.23181 0.39512 0.0
O47 O 0.24779 0.15896 0.36266 0.0
O48 O 0.26895 0.17986 0.39555 0.0
O49 O 0.28968 0.22693 0.40535 0.0
O50 O 0.24623 0.30945 0.40828 0.0
O51 O 0.28355 0.2642 0.37263 0.0
O52 O 0.23899 0.2408 0.36354 0.0
O53 O 0.28896 0.28281 0.41364 0.0
O54 O 0.20657 0.27856 0.38986 0.0
O55 O 0.1873 0.23271 0.37851 0.0
C56 C 0.21876 0.21588 0.4043 0.0
C57 C 0.29123 0.17533 0.34864 0.0
C58 C 0.33138 0.1593 0.33157 0.0
C59 C 0.31985 0.18381 0.32295 0.0
C60 C 0.27811 0.19713 0.33934 0.0
C61 C 0.29306 0.20216 0.32675 0.0
C62 C 0.31747 0.15617 0.34467 0.0
C63 C 0.28905 0.19422 0.40465 0.0
C64 C 0.27697 0.17101 0.36225 0.0
C65 C 0.12658 0.12025 0.35853 0.0
C66 C 0.13634 0.09921 0.36886 0.0
C67 C 0.26582 0.25847 0.36181 0.0
C68 C 0.29063 0.33975 0.41549 0.0
C69 C 0.28837 0.39722 0.41055 0.0
C70 C 0.32201 0.39819 0.40925 0.0
C71 C 0.32442 0.34078 0.41404 0.0
C72 C 0.27321 0.36831 0.41421 0.0
C73 C 0.33996 0.36997 0.41107 0.0
C74 C 0.18167 0.26217 0.38397 0.0
C75 C 0.27243 0.30912 0.41555 0.0
H76 H 0.33049 0.18786 0.313 0.0
H77 H 0.25621 0.20999 0.34177 0.0
H78 H 0.28332 0.21967 0.31973 0.0
H79 H 0.32553 0.13755 0.35158 0.0
H80 H 0.3342 0.42052 0.40677 0.0
H81 H 0.3387 0.319 0.41471 0.0
H82 H 0.24723 0.36777 0.41558 0.0
H83 H 0.36591 0.37053 0.40987 0.0
Eu84 Eu 0.16977 0.97606 0.62601 0.0
C85 C 0.05639 0.0714 0.63083 0.0
N86 N 0.08675 0.06428 0.63516 0.0
C87 C 0.1029 0.11914 0.63167 0.0
C88 C 1.04814 0.10297 0.62688 0.0
C89 C 0.1101 0.08745 0.63541 0.0
C90 C 0.07173 0.12702 0.62755 0.0
C91 C 1.00365 1.05243 0.62373 0.0
C92 C 1.03443 1.04631 0.62916 0.0
C93 C 0.99489 0.08411 0.62038 0.0
C94 C 1.01707 0.1093 0.62194 0.0
Eu95 Eu 0.09365 1.01125 0.64354 0.0
N96 N 1.04387 1.01572 0.63217 0.0
C97 C 0.98272 1.02646 0.62165 0.0
C98 C 1.02348 0.99035 0.63026 0.0
C99 C 0.99276 0.99529 0.62486 0.0
H100 H 0.13438 0.08182 0.6384 0.0
H101 H 0.97662 0.9751 0.62338 0.0
H102 H 0.13692 0.93819 0.59854 0.0
H103 H 0.28779 0.95666 0.64902 0.0
H104 H 1.03032 0.96633 0.6332 0.0
H105 H 0.95883 1.03018 0.61753 0.0
H106 H 0.23367 0.97976 0.64689 0.0
H107 H 0.12145 0.13747 0.63195 0.0
H108 H 0.97123 0.0893 0.61631 0.0
H109 H 1.01022 0.13347 0.61898 0.0
H110 H 0.1524 0.89942 0.58099 0.0
H111 H 0.06635 0.15157 0.62458 0.0
H112 H 0.30734 0.91678 0.63214 0.0
N113 N 0.18235 0.93743 0.6087 0.0
C114 C 0.21191 0.92348 0.60911 0.0
C115 C 0.16951 0.90612 0.58879 0.0
C116 C 0.22162 0.90056 0.59923 0.0
C117 C 0.16097 0.92862 0.5988 0.0
C118 C 0.20003 0.89213 0.58895 0.0
N119 N 0.22201 0.95362 0.62887 0.0
C120 C 0.24164 0.96262 0.63935 0.0
C121 C 0.26334 0.91785 0.62039 0.0
C122 C 0.23238 0.93184 0.61953 0.0
C123 C 0.28343 0.92696 0.63112 0.0
C124 C 0.27249 0.94945 0.64065 0.0
H125 H 0.20654 0.87463 0.5812 0.0
H126 H 0.26026 0.86904 0.59249 0.0
H127 H 0.29691 0.88429 0.61104 0.0
O128 O 0.16249 1.02738 0.62211 0.0
O129 O 0.17376 0.9513 0.64674 0.0
O130 O 0.13421 0.98109 0.64425 0.0
O131 O 0.20366 1.00142 0.61309 0.0
O132 O 0.18655 1.01142 0.64488 0.0
O133 O 0.14057 1.03743 0.65334 0.0
O134 O 0.0628 0.98952 0.65902 0.0
O135 O 0.09414 1.02393 0.62052 0.0
O136 O 0.1252 0.98395 0.61091 0.0
O137 O 0.0783 1.0387 0.66155 0.0
O138 O 0.08504 0.954 0.63893 0.0
O139 O 0.12991 0.93388 0.62699 0.0
C140 C 0.14821 0.96175 0.65264 0.0
C141 C 0.18372 1.0455 0.60083 0.0
C142 C 0.20342 0.0874 0.58544 0.0
C143 C 0.18505 0.0735 0.57489 0.0
C144 C 0.16771 1.03082 0.58994 0.0
C145 C 0.1671 1.04559 0.57721 0.0
C146 C 0.20071 0.07423 0.59864 0.0
C147 C 0.17317 1.03384 0.65336 0.0
C148 C 0.18758 1.02862 0.61384 0.0
C149 C 0.2524 0.88662 0.59999 0.0
C150 C 0.27324 0.89527 0.61055 0.0
C151 C 0.10366 1.00798 0.60955 0.0
C152 C 1.02263 1.02743 0.66441 0.0
C153 C 0.96742 1.0111 0.65923 0.0
C154 C 0.95914 1.04345 0.65699 0.0
C155 C 1.01393 0.05978 0.66222 0.0
C156 C 0.99882 1.00366 0.66347 0.0
C157 C 0.98228 0.06766 0.65864 0.0
C158 C 0.10053 0.9289 0.63268 0.0
C159 C 0.05679 1.01716 0.66484 0.0
H160 H 0.18647 0.08241 0.56455 0.0
H161 H 0.15685 1.00736 0.59111 0.0
H162 H 0.15445 1.03422 0.56886 0.0
H163 H 0.21396 0.08473 0.60704 0.0
H164 H 0.93497 1.04994 0.65392 0.0
H165 H 1.03177 0.0788 0.66269 0.0
H166 H 1.00525 0.97887 0.66561 0.0
H167 H 0.97591 0.09254 0.65676 0.0
Eu168 Eu 0.38775 0.92496 0.87558 0.0
C169 C 0.30048 0.80444 0.88144 0.0
N170 N 0.30374 0.83509 0.88623 0.0
C171 C 0.24679 0.84361 0.88406 0.0
C172 C 0.27006 0.79243 0.87756 0.0
C173 C 0.27743 0.85463 0.88767 0.0
C174 C 0.24306 0.81235 0.87903 0.0
C175 C 0.32567 0.75482 0.87375 0.0
C176 C 0.32805 0.78585 0.87957 0.0
C177 C 0.29534 0.74255 0.87015 0.0
C178 C 0.26761 0.76126 0.87208 0.0
Eu179 Eu 0.35563 0.8492 0.89425 0.0
N180 N 0.3572 0.79841 0.88309 0.0
C181 C 0.35389 0.73705 0.8716 0.0
C182 C 0.38468 0.78071 0.88132 0.0
C183 C 0.38349 0.75007 0.8754 0.0
H184 H 0.27981 0.8788 0.89154 0.0
H185 H 0.4054 0.73625 0.87402 0.0
H186 H 0.4257 0.89053 0.84859 0.0
H187 H 0.40304 1.04608 0.8963 0.0
H188 H 0.40765 0.78945 0.88469 0.0
H189 H 0.35306 0.71317 0.86713 0.0
H190 H 0.37676 0.99334 0.89316 0.0
H191 H 0.22605 0.85923 0.88517 0.0
H192 H 0.2931 0.7187 0.86574 0.0
H193 H 0.24442 0.7516 0.86909 0.0
H194 H 0.47154 0.90125 0.83338 0.0
H195 H 0.21929 0.80398 0.87618 0.0
H196 H 0.45206 0.05966 0.883 0.0
N197 N 0.43066 0.93423 0.85985 0.0
C198 C 0.44739 0.96212 0.86121 0.0
C199 C 0.46505 0.9186 0.84117 0.0
C200 C 0.47391 0.96927 0.85265 0.0
C201 C 0.43885 0.91268 0.84985 0.0
C202 C 0.4828 0.94694 0.84262 0.0
N203 N 0.41096 0.97669 0.87853 0.0
C204 C 0.39821 0.99884 0.88736 0.0
C205 C 0.45291 1.01406 0.87223 0.0
C206 C 0.43719 0.98408 0.87086 0.0
C207 C 0.44069 1.03637 0.88164 0.0
C208 C 0.41302 1.02881 0.88915 0.0
H209 H 0.50302 0.95151 0.83585 0.0
H210 H 0.51083 1.0045 0.84779 0.0
H211 H 0.49234 1.04383 0.86494 0.0
O212 O 0.33728 0.92215 0.86946 0.0
O213 O 0.4046 0.93517 0.8972 0.0
O214 O 0.38846 0.88846 0.89454 0.0
O215 O 0.36934 0.95871 0.86069 0.0
O216 O 0.3489 0.94088 0.89335 0.0
O217 O 0.32719 0.89484 0.90346 0.0
O218 O 0.37073 0.81379 0.90923 0.0
O219 O 0.33672 0.85355 0.87207 0.0
O220 O 0.37987 0.87797 0.86203 0.0
O221 O 0.33097 0.84551 0.91397 0.0
O222 O 0.41381 0.84357 0.89024 0.0
O223 O 0.43211 0.88689 0.87698 0.0
C224 C 0.39886 0.90875 0.90348 0.0
C225 C 0.32664 0.94047 0.84705 0.0
C226 C 0.28663 0.95673 0.83025 0.0
C227 C 0.30297 0.93786 0.82042 0.0
C228 C 0.34326 0.9231 0.837 0.0
C229 C 0.33086 0.92094 0.82385 0.0
C230 C 0.29795 0.95638 0.84377 0.0
C231 C 0.32774 0.92729 0.90233 0.0
C232 C 0.34065 0.9455 0.86056 0.0
C233 C 0.49033 0.99865 0.85422 0.0
C234 C 0.47982 1.02102 0.86399 0.0
C235 C 0.3535 0.85956 0.86087 0.0
C236 C 0.32422 0.78995 0.91866 0.0
C237 C 0.31925 0.73154 0.91704 0.0
C238 C 0.28562 0.73409 0.91785 0.0
C239 C 0.29038 0.79239 0.91927 0.0
C240 C 0.3382 0.75941 0.91788 0.0
C241 C 0.27128 0.76453 0.91898 0.0
C242 C 0.43834 0.85857 0.88334 0.0
C243 C 0.34522 0.81843 0.91683 0.0
H244 H 0.29559 0.93767 0.80987 0.0
H245 H 0.36617 0.91194 0.83924 0.0
H246 H 0.34377 0.90742 0.81611 0.0
H247 H 0.28561 0.97003 0.85165 0.0
H248 H 0.27062 0.71273 0.91758 0.0
H249 H 0.27868 0.8157 0.91967 0.0
H250 H 0.36428 0.75731 0.91769 0.0
H251 H 0.24528 0.76659 0.91945 0.0
Eu252 Eu 0.4395 0.14421 0.12857 0.0
C253 C 0.55636 1.05153 0.1312 0.0
N254 N 0.52626 1.05645 0.13647 0.0
C255 C 0.51391 1.00039 0.13368 0.0
C256 C 0.56627 1.0206 0.12693 0.0
C257 C 0.50503 1.03148 0.13774 0.0
C258 C 0.54471 0.99487 0.12835 0.0
C259 C 0.60695 0.07399 0.12304 0.0
C260 C 0.57637 0.07807 0.12918 0.0
C261 C 0.61724 1.04306 0.11915 0.0
C262 C 0.59696 1.01646 0.12108 0.0
Eu263 Eu 0.51625 0.10872 0.14523 0.0
N264 N 0.56558 0.10788 0.13288 0.0
C265 C 0.62631 0.10114 0.12094 0.0
C266 C 0.58474 0.13431 0.1311 0.0
C267 C 0.61512 0.1314 0.12497 0.0
H268 H 0.48118 1.03528 0.14184 0.0
H269 H 0.63016 0.15247 0.12358 0.0
H270 H 0.47151 0.18011 0.10046 0.0
H271 H 0.32254 0.16514 0.15289 0.0
H272 H 0.57744 0.15768 0.13471 0.0
H273 H 0.64998 0.09899 0.1163 0.0
H274 H 0.37527 0.13941 0.14951 0.0
H275 H 0.497 0.98066 0.1347 0.0
H276 H 0.64073 1.0395 0.11449 0.0
H277 H 0.60506 0.99283 0.11782 0.0
H278 H 0.45742 0.22158 0.08392 0.0
H279 H 0.55142 0.97075 0.12518 0.0
H280 H 0.30502 0.20872 0.13746 0.0
N281 N 0.42771 0.18414 0.11189 0.0
C282 C 0.3992 0.19994 0.11313 0.0
C283 C 0.44073 0.21568 0.09206 0.0
C284 C 0.39024 0.22421 0.10382 0.0
C285 C 0.44852 0.19181 0.10152 0.0
C286 C 0.41146 0.23197 0.0932 0.0
N287 N 0.38816 0.16803 0.13233 0.0
C288 C 0.36817 0.15828 0.14265 0.0
C289 C 0.34865 0.20705 0.12524 0.0
C290 C 0.37878 0.19161 0.12369 0.0
C291 C 0.32833 0.19746 0.13592 0.0
C292 C 0.33812 0.17288 0.14464 0.0
H293 H 0.4055 0.25046 0.08586 0.0
H294 H 0.3532 0.25861 0.09834 0.0
H295 H 0.31667 0.24348 0.11712 0.0
O296 O 0.44348 0.0929 0.12385 0.0
O297 O 0.43562 0.16787 0.14962 0.0
O298 O 0.47588 0.13929 0.14652 0.0
O299 O 0.40441 0.1221 0.11526 0.0
O300 O 0.4234 0.10842 0.14739 0.0
O301 O 0.46957 0.08216 0.1552 0.0
O302 O 0.54857 0.12825 0.16057 0.0
O303 O 0.51136 0.09275 0.12272 0.0
O304 O 0.48456 0.1355 0.1135 0.0
O305 O 0.53021 0.07998 0.16295 0.0
O306 O 0.52378 0.16657 0.14111 0.0
O307 O 0.47915 0.1865 0.12924 0.0
C308 C 0.46153 0.15784 0.15522 0.0
C309 C 0.4225 0.07815 0.10219 0.0
C310 C 0.4036 1.03712 0.08625 0.0
C311 C 0.42265 1.05147 0.07596 0.0
C312 C 0.43956 0.09313 0.0916 0.0
C313 C 0.44069 0.0791 0.07869 0.0
C314 C 0.40522 1.04981 0.09957 0.0
C315 C 0.43702 0.08584 0.1556 0.0
C316 C 0.41879 0.09395 0.1155 0.0
C317 C 0.36045 0.2399 0.10538 0.0
C318 C 0.33967 0.23132 0.11607 0.0
C319 C 0.50381 0.10967 0.11185 0.0
C320 C 0.58649 0.08774 0.1651 0.0
C321 C 0.6424 0.10111 0.15962 0.0
C322 C 0.64854 0.06862 0.15657 0.0
C323 C 0.59305 1.05517 0.16214 0.0
C324 C 0.61166 0.11005 0.16433 0.0
C325 C 0.62398 1.04574 0.15797 0.0
C326 C 0.50832 0.19168 0.13492 0.0
C327 C 0.5531 0.10008 0.1661 0.0
H328 H 0.42195 1.04292 0.06554 0.0
H329 H 0.45115 0.11612 0.09317 0.0
H330 H 0.45412 0.09068 0.07057 0.0
H331 H 0.39133 1.03898 0.10776 0.0
H332 H 0.67219 0.06098 0.15312 0.0
H333 H 0.57407 1.03726 0.16246 0.0
H334 H 0.60685 0.13493 0.16706 0.0
H335 H 0.6287 1.02075 0.1555 0.0
Eu336 Eu 0.22816 0.93146 0.25324 0.0
C337 C 0.31579 0.8117 0.24637 0.0
N338 N 0.31266 0.84201 0.24125 0.0
C339 C 0.36958 0.8506 0.24344 0.0
C340 C 0.34613 0.79989 0.25043 0.0
C341 C 0.33901 0.86141 0.23965 0.0
C342 C 0.37319 0.8197 0.24882 0.0
C343 C 0.29039 0.76253 0.25437 0.0
C344 C 0.28813 0.79337 0.24841 0.0
C345 C 0.32065 0.75043 0.25815 0.0
C346 C 0.34843 0.76906 0.2562 0.0
Eu347 Eu 0.26069 0.85658 0.23355 0.0
N348 N 0.25902 0.80597 0.24486 0.0
C349 C 0.26215 0.74475 0.25643 0.0
C350 C 0.23147 0.78839 0.24671 0.0
C351 C 0.2326 0.75774 0.25257 0.0
H352 H 0.33665 0.88529 0.23549 0.0
H353 H 0.21067 0.74396 0.25394 0.0
H354 H 0.18933 0.89552 0.2795 0.0
H355 H 0.21359 1.05383 0.23397 0.0
H356 H 0.2085 0.79709 0.24335 0.0
H357 H 0.2629 0.72095 0.26094 0.0
H358 H 0.2403 1.00126 0.23689 0.0
H359 H 0.39037 0.86611 0.2422 0.0
H360 H 0.3228 0.72677 0.26272 0.0
H361 H 0.37155 0.75955 0.25933 0.0
H362 H 0.14191 0.90463 0.29411 0.0
H363 H 0.39691 0.81149 0.25182 0.0
H364 H 0.16306 0.06583 0.24652 0.0
N365 N 0.18411 0.93938 0.26848 0.0
C366 C 0.16703 0.96704 0.26715 0.0
C367 C 0.14866 0.92239 0.28654 0.0
C368 C 0.1397 0.97334 0.27536 0.0
C369 C 0.17568 0.91736 0.27822 0.0
C370 C 0.13041 0.95039 0.28505 0.0
N371 N 0.20489 0.98321 0.25065 0.0
C372 C 0.21821 1.00609 0.24237 0.0
C373 C 0.16179 1.01954 0.25667 0.0
C374 C 0.17781 0.98972 0.25793 0.0
C375 C 0.17462 1.04263 0.24778 0.0
C376 C 0.20315 1.03596 0.2407 0.0
H377 H 0.10956 0.95428 0.29155 0.0
H378 H 0.1018 1.0077 0.28 0.0
H379 H 0.12123 1.04827 0.26362 0.0
O380 O 0.27814 0.92936 0.25999 0.0
O381 O 0.21144 0.943 0.2317 0.0
O382 O 0.22908 0.89672 0.23414 0.0
O383 O 0.24452 0.96374 0.26924 0.0
O384 O 0.26724 0.94851 0.2356 0.0
O385 O 0.28813 0.90315 0.22451 0.0
O386 O 0.24231 0.82469 0.21792 0.0
O387 O 0.2794 0.86021 0.25581 0.0
O388 O 0.2353 0.8828 0.26581 0.0
O389 O 0.28687 0.85032 0.21421 0.0
O390 O 0.20262 0.85074 0.23742 0.0
O391 O 0.184 0.8934 0.25106 0.0
C392 C 0.21738 0.91665 0.22537 0.0
C393 C 0.28667 0.94432 0.28301 0.0
C394 C 0.32638 0.95612 0.30064 0.0
C395 C 0.31245 0.93188 0.30881 0.0
C396 C 0.27148 0.92248 0.2918 0.0
C397 C 0.28492 0.91557 0.30447 0.0
C398 C 0.31379 0.9613 0.28749 0.0
C399 C 0.28771 0.93557 0.22611 0.0
C400 C 0.2735 0.95127 0.26947 0.0
C401 C 0.12295 1.00252 0.27384 0.0
C402 C 0.134 1.0256 0.26451 0.0
C403 C 0.26187 0.86463 0.26693 0.0
C404 C 0.28285 0.79696 0.20585 0.0
C405 C 0.27925 0.73838 0.2065 0.0
C406 C 0.29832 0.7371 0.19451 0.0
C407 C 0.30128 0.7954 0.19388 0.0
C408 C 0.27514 0.76848 0.21277 0.0
C409 C 0.31008 0.76542 0.18855 0.0
C410 C 0.17798 0.86545 0.24435 0.0
C411 C 0.26779 0.82741 0.21017 0.0
H412 H 0.32188 0.92651 0.31881 0.0
H413 H 0.24916 0.91101 0.28891 0.0
H414 H 0.27344 0.89823 0.31114 0.0
H415 H 0.32362 0.97998 0.28098 0.0
H416 H 0.30255 0.71475 0.18911 0.0
H417 H 0.30794 0.81717 0.18848 0.0
H418 H 0.26275 0.77007 0.2224 0.0
H419 H 0.32405 0.76416 0.1792 0.0
Eu420 Eu 0.4481 0.98746 0.49835 0.0
C421 C 0.56836 0.06878 0.49991 0.0
N422 N 0.53849 0.07073 0.49432 0.0
C423 C 0.53506 0.12661 0.50048 0.0
C424 C 0.58194 0.09543 0.50673 0.0
C425 C 0.52245 0.09951 0.49391 0.0
C426 C 0.56468 0.12443 0.50712 0.0
C427 C 0.61735 1.03822 0.50358 0.0
C428 C 0.58589 1.04051 0.49826 0.0
C429 C 0.63018 0.06402 0.51109 0.0
C430 C 0.61256 0.0926 0.51262 0.0
Eu431 Eu 0.51911 1.02373 0.48336 0.0
N432 N 0.57316 1.01622 0.49065 0.0
C433 C 0.63548 1.01054 0.50078 0.0
C434 C 0.59168 0.9902 0.48714 0.0
C435 C 0.62278 0.9867 0.49233 0.0
H436 H 0.4995 0.10125 0.48883 0.0
H437 H 0.63705 0.96573 0.4897 0.0
H438 H 0.47106 0.95504 0.52847 0.0
H439 H 0.34102 0.95441 0.46898 0.0
H440 H 0.58276 0.97197 0.48027 0.0
H441 H 0.65972 1.00788 0.50468 0.0
H442 H 0.38216 0.99105 0.47785 0.0
H443 H 0.5219 0.14913 0.50046 0.0
H444 H 0.65414 0.0625 0.51537 0.0
H445 H 0.62318 0.11265 0.51808 0.0
H446 H 0.46511 0.90411 0.54091 0.0
H447 H 0.57435 0.14545 0.51223 0.0
H448 H 0.33663 0.89888 0.47791 0.0
N449 N 0.43894 0.94177 0.51253 0.0
C450 C 0.41795 0.91928 0.50796 0.0
C451 C 0.45181 0.90797 0.5316 0.0
C452 C 0.41386 0.8896 0.51474 0.0
C453 C 0.45504 0.93698 0.52448 0.0
C454 C 0.43153 0.88392 0.52659 0.0
N455 N 0.40254 0.95661 0.4914 0.0
C456 C 0.38115 0.96696 0.48182 0.0
C457 C 0.37559 0.9051 0.49225 0.0
C458 C 0.39918 0.92691 0.49694 0.0
C459 C 0.35505 0.91489 0.48181 0.0
C460 C 0.35743 0.94621 0.47677 0.0
H461 H 0.42909 0.86146 0.53212 0.0
H462 H 0.38857 0.84386 0.51463 0.0
H463 H 0.35499 0.85745 0.49484 0.0
O464 O 0.40809 1.00225 0.51144 0.0
O465 O 0.45419 0.9834 0.47549 0.0
O466 O 0.50763 0.97689 0.47325 0.0
O467 O 0.44505 1.03702 0.50564 0.0
O468 O 0.43094 1.0186 0.479 0.0
O469 O 0.47208 1.05467 0.47698 0.0
O470 O 0.55633 1.04411 0.47034 0.0
O471 O 0.50782 1.04223 0.50514 0.0
O472 O 0.49177 0.99526 0.51365 0.0
O473 O 0.50816 1.03807 0.46244 0.0
O474 O 0.52962 0.96604 0.48885 0.0
O475 O 0.48385 0.94334 0.49828 0.0
C476 C 0.47853 0.96862 0.46976 0.0
C477 C 0.41983 1.04405 0.527 0.0
C478 C 0.39744 0.0809 0.54402 0.0
C479 C 0.41797 0.06711 0.55382 0.0
C480 C 0.43928 1.03005 0.53699 0.0
C481 C 0.43892 1.0421 0.55026 0.0
C482 C 0.39957 0.06982 0.53046 0.0
C483 C 0.44157 1.04666 0.4738 0.0
C484 C 0.41937 1.03146 0.51304 0.0
C485 C 0.39172 0.86699 0.50969 0.0
C486 C 0.37262 0.87472 0.49843 0.0
C487 C 0.50653 1.02322 0.51579 0.0
C488 C 0.55162 1.03028 0.44749 0.0
C489 C 0.58742 0.98974 0.43828 0.0
C490 C 0.58668 1.00517 0.42554 0.0
C491 C 0.55051 1.04561 0.43479 0.0
C492 C 0.56868 1.00155 0.44896 0.0
C493 C 0.56763 1.03265 0.42375 0.0
C494 C 0.51434 0.93954 0.49421 0.0
C495 C 0.53799 1.04537 0.45963 0.0
H496 H 0.41681 0.07439 0.56441 0.0
H497 H 0.45439 1.00961 0.53459 0.0
H498 H 0.45408 1.03124 0.55793 0.0
H499 H 0.38467 0.08042 0.52262 0.0
H500 H 0.60134 0.99641 0.41714 0.0
H501 H 0.53721 0.06786 0.43354 0.0
H502 H 0.56959 0.98985 0.45879 0.0
H503 H 0.5672 1.04461 0.41396 0.0
Eu504 Eu 0.38203 0.18581 0.75041 0.0
C505 C 0.28782 0.29915 0.74459 0.0
N506 N 0.29575 0.26847 0.74085 0.0
C507 C 0.24152 0.25119 0.74528 0.0
C508 C 0.25604 0.30705 0.74854 0.0
C509 C 0.27336 0.24438 0.7415 0.0
C510 C 0.23269 0.28271 0.74861 0.0
C511 C 0.30529 0.35335 0.75048 0.0
C512 C 0.31228 0.32205 0.7457 0.0
C513 C 0.27334 0.36169 0.75372 0.0
C514 C 0.24881 0.33859 0.75279 0.0
Eu515 Eu 0.34927 0.26211 0.73267 0.0
N516 N 0.3432 0.31294 0.74305 0.0
C517 C 0.33075 0.37513 0.75217 0.0
C518 C 0.36816 0.33386 0.74485 0.0
C519 C 0.36232 0.36527 0.74942 0.0
H520 H 0.2797 0.21977 0.73929 0.0
H521 H 0.38214 0.38197 0.75066 0.0
H522 H 0.42152 0.21997 0.7772 0.0
H523 H 0.39882 0.066 0.72844 0.0
H524 H 0.39251 0.32687 0.74233 0.0
H525 H 0.32635 0.39946 0.75575 0.0
H526 H 0.37767 0.1211 0.72995 0.0
H527 H 0.2238 0.23206 0.74568 0.0
H528 H 0.26749 0.3857 0.75731 0.0
H529 H 0.22445 0.34514 0.75573 0.0
H530 H 0.45886 0.20442 0.79512 0.0
H531 H 0.20803 0.28779 0.75162 0.0
H532 H 0.43682 1.04605 0.74581 0.0
N533 N 0.4199 0.17337 0.76789 0.0
C534 C 0.43256 0.14323 0.76792 0.0
C535 C 0.45145 0.18682 0.78761 0.0
C536 C 0.45473 0.13347 0.77798 0.0
C537 C 0.42966 0.19539 0.77742 0.0
C538 C 0.46386 0.15565 0.78797 0.0
N539 N 0.40307 0.13284 0.74809 0.0
C540 C 0.39403 0.11295 0.73767 0.0
C541 C 0.43672 0.09081 0.75719 0.0
C542 C 0.42387 0.12231 0.75768 0.0
C543 C 0.42749 0.07038 0.74656 0.0
C544 C 0.40607 0.08155 0.73674 0.0
H545 H 0.48084 0.14912 0.79584 0.0
H546 H 0.48437 0.09417 0.78529 0.0
H547 H 0.46847 1.0567 0.76707 0.0
O548 O 0.33095 0.19543 0.7542 0.0
O549 O 0.40732 0.18081 0.72974 0.0
O550 O 0.37772 0.22056 0.73233 0.0
O551 O 0.3544 0.15236 0.76266 0.0
O552 O 0.34682 0.16919 0.73147 0.0
O553 O 0.32173 0.21559 0.72309 0.0
O554 O 0.37573 0.28593 0.71642 0.0
O555 O 0.33921 0.26603 0.75588 0.0
O556 O 0.37384 0.22964 0.76595 0.0
O557 O 0.3241 0.28214 0.71501 0.0
O558 O 0.4058 0.27075 0.73802 0.0
O559 O 0.42522 0.22488 0.74921 0.0
C560 C 0.39719 0.20641 0.72393 0.0
C561 C 0.30946 0.17231 0.77463 0.0
C562 C 0.26798 0.14907 0.78942 0.0
C563 C 0.27911 0.16873 0.80016 0.0
C564 C 0.32152 0.18968 0.78571 0.0
C565 C 0.3055 0.18912 0.79823 0.0
C566 C 0.28216 0.15282 0.77641 0.0
C567 C 0.32469 0.18291 0.72304 0.0
C568 C 0.3279 0.16955 0.76187 0.0
C569 C 0.4674 0.1021 0.77764 0.0
C570 C 0.45839 0.08079 0.76727 0.0
C571 C 0.35258 0.25408 0.76699 0.0
C572 C 0.34773 0.33268 0.70996 0.0
C573 C 0.37303 0.38509 0.71403 0.0
C574 C 0.34332 0.40009 0.71126 0.0
C575 C 0.31844 0.34812 0.70716 0.0
C576 C 0.3747 0.35139 0.71342 0.0
C577 C 0.31628 0.38166 0.7079 0.0
C578 C 0.43063 0.25455 0.74392 0.0
C579 C 0.34979 0.2972 0.71077 0.0
H580 H 0.26934 0.16662 0.81037 0.0
H581 H 0.34409 0.20232 0.78492 0.0
H582 H 0.31489 0.20281 0.80673 0.0
H583 H 0.27373 0.13857 0.76788 0.0
H584 H 0.34106 0.42607 0.71123 0.0
H585 H 0.29713 0.33428 0.70466 0.0
H586 H 0.39705 0.33953 0.716 0.0
H587 H 0.29362 0.39347 0.70573 0.0
Eu588 Eu 0.17077 0.12954 0.99985 0.0
C589 C 1.05472 1.03585 0.99493 0.0
N590 N 0.08474 1.04206 0.98986 0.0
C591 C 0.09795 0.9859 0.99096 0.0
C592 C 1.04524 1.00417 0.99823 0.0
C593 C 0.10639 1.0177 0.98789 0.0
C594 C 0.06718 0.97905 0.99604 0.0
C595 C 1.00399 1.05628 1.00389 0.0
C596 C 1.03436 0.06169 0.99778 0.0
C597 C 0.99402 1.02464 1.00674 0.0
C598 C 1.01458 0.99867 1.00391 0.0
Eu599 Eu 0.09363 0.09565 0.98257 0.0
N600 N 1.04488 0.09215 0.99511 0.0
C601 C 0.98468 0.08287 1.00715 0.0
C602 C 1.02599 0.11813 0.99817 0.0
C603 C 0.99586 0.1139 1.00438 0.0
H604 H 0.13021 1.02254 0.98397 0.0
H605 H 0.98099 0.13459 1.00679 0.0
H606 H 0.13684 0.16543 1.02758 0.0
H607 H 0.2893 0.15013 0.97708 0.0
H608 H 1.03351 0.1422 0.9956 0.0
H609 H 0.9612 0.07971 1.01186 0.0
H610 H 0.23701 0.12313 0.98036 0.0
H611 H 0.11518 0.96664 0.98937 0.0
H612 H 0.97066 1.02004 1.01134 0.0
H613 H 1.00679 0.97446 1.00642 0.0
H614 H 0.14862 0.20895 1.04363 0.0
H615 H 0.06081 0.95438 0.99846 0.0
H616 H 0.30418 0.19636 0.9917 0.0
N617 N 0.18063 0.17069 1.01626 0.0
C618 C 0.20859 0.18744 1.01501 0.0
C619 C 0.16576 0.20313 1.03564 0.0
C620 C 0.21624 0.21282 1.02403 0.0
C621 C 0.15928 0.17815 1.02647 0.0
C622 C 0.19433 0.22061 1.0344 0.0
N623 N 0.2219 0.15388 0.99653 0.0
C624 C 0.24304 0.14326 0.98679 0.0
C625 C 0.25967 0.1949 1.00334 0.0
C626 C 0.2299 0.17875 1.00481 0.0
C627 C 0.28109 0.18461 0.99316 0.0
C628 C 0.27279 0.15852 0.9849 0.0
H629 H 0.19929 0.23994 1.04153 0.0
H630 H 0.25178 0.24902 1.02929 0.0
H631 H 0.28992 0.23324 1.01116 0.0
O632 O 0.20648 0.10914 1.01334 0.0
O633 O 0.17654 0.15093 0.97845 0.0
O634 O 0.13409 0.12594 0.98205 0.0
O635 O 0.16779 0.0786 1.00528 0.0
O636 O 0.18665 0.0936 0.98114 0.0
O637 O 0.14021 0.0712 0.97152 0.0
O638 O 0.05817 0.11507 0.96865 0.0
O639 O 0.09858 0.07756 1.00478 0.0
O640 O 0.12494 0.12012 1.01444 0.0
O641 O 0.08236 0.07072 0.96346 0.0
O642 O 0.08644 0.15297 0.98772 0.0
O643 O 0.13224 0.17296 0.99881 0.0
C644 C 0.14956 0.14292 0.97316 0.0
C645 C 0.18948 0.06596 1.02702 0.0
C646 C 0.21099 1.02833 1.04377 0.0
C647 C 0.19037 1.04209 1.05368 0.0
C648 C 0.17069 0.08046 1.03722 0.0
C649 C 0.17017 0.06775 1.05035 0.0
C650 C 0.20892 1.03947 1.03024 0.0
C651 C 0.17295 0.0731 0.97203 0.0
C652 C 0.19263 0.08073 1.0135 0.0
C653 C 0.24555 0.22942 1.02248 0.0
C654 C 0.26724 0.22046 1.01216 0.0
C655 C 0.10572 0.09416 1.01583 0.0
C656 C 1.02541 0.07276 0.96128 0.0
C657 C 0.9679 0.0793 0.96575 0.0
C658 C 0.9646 1.04589 0.96729 0.0
C659 C 1.02198 1.03924 0.96294 0.0
C660 C 0.99801 0.09218 0.9622 0.0
C661 C 0.99162 1.02594 0.96579 0.0
C662 C 0.10274 0.17819 0.99343 0.0
C663 C 0.05721 0.08881 0.96138 0.0
H664 H 0.19133 1.03474 0.06425 0.0
H665 H 0.15733 0.10221 1.03516 0.0
H666 H 0.15546 0.07899 1.05817 0.0
H667 H 0.22399 1.02901 1.02233 0.0
H668 H 0.94137 1.03538 0.96974 0.0
H669 H 1.04277 1.02348 0.96254 0.0
H670 H 1.00046 0.11795 0.96063 0.0
H671 H 0.9892 1.00018 0.96718 0.0
Eu672 Eu 0.85037 0.8501 0.73173 0.0
C673 C 0.93415 0.96914 0.76696 0.0
N674 N 0.92085 0.93927 0.76716 0.0
C675 C 0.95197 0.92624 0.78703 0.0
C676 C 0.95659 0.97892 0.77692 0.0
C677 C 0.92992 0.91764 0.77693 0.0
C678 C 0.96524 0.95708 0.78708 0.0
C679 C 0.93896 1.02113 0.75598 0.0
C680 C 0.92564 0.98985 0.75664 0.0
C681 C 0.96105 1.03112 0.76592 0.0
C682 C 0.96987 1.01003 0.77637 0.0
Eu683 Eu 0.88291 0.92666 0.74974 0.0
N684 N 0.90435 0.9794 0.7472 0.0
C685 C 0.9297 1.04144 0.74534 0.0
C686 C 0.89518 0.99922 0.73681 0.0
C687 C 0.90771 1.0304 0.73571 0.0
H688 H 0.92093 0.89336 0.777 0.0
H689 H 0.90038 1.04587 0.72742 0.0
H690 H 0.77859 0.88912 0.73725 0.0
H691 H 0.88785 0.73272 0.75115 0.0
H692 H 0.87838 0.99116 0.72922 0.0
H693 H 0.93938 0.06561 0.74447 0.0
H694 H 0.89622 0.7876 0.74249 0.0
H695 H 0.95888 0.90893 0.79472 0.0
H696 H 0.97152 1.05503 0.76558 0.0
H697 H 0.98708 1.01795 0.78394 0.0
H698 H 0.72291 0.87439 0.74305 0.0
H699 H 0.9824 0.96363 0.7949 0.0
H700 H 0.83265 0.71282 0.7557 0.0
N701 N 0.79689 0.84142 0.7395 0.0
C702 C 0.79021 0.81056 0.74334 0.0
C703 C 0.74158 0.85617 0.74306 0.0
C704 C 0.75858 0.80129 0.74695 0.0
C705 C 0.7733 0.86437 0.73963 0.0
C706 C 0.73408 0.82443 0.74654 0.0
N707 N 0.84629 0.79944 0.7425 0.0
C708 C 0.87205 0.77978 0.74477 0.0
C709 C 0.80984 0.75759 0.74983 0.0
C710 C 0.81567 0.78897 0.7449 0.0
C711 C 0.83615 0.73716 0.75199 0.0
C712 C 0.86737 0.74838 0.74954 0.0
H713 H 0.70949 0.81826 0.74927 0.0
H714 H 0.72838 0.76202 0.75402 0.0
H715 H 0.77319 0.72374 0.75643 0.0
O716 O 0.87628 0.82557 0.71546 0.0
O717 O 0.838 0.84791 0.75472 0.0
O718 O 0.8752 0.8817 0.7647 0.0
O719 O 0.82482 0.83122 0.71391 0.0
O720 O 0.90723 0.84234 0.73689 0.0
O721 O 0.92622 0.88787 0.74855 0.0
O722 O 0.85636 0.96001 0.76249 0.0
O723 O 0.908 0.9317 0.72903 0.0
O724 O 0.87842 0.89189 0.73161 0.0
O725 O 0.83176 0.91786 0.75375 0.0
O726 O 0.8474 0.94318 0.73096 0.0
O727 O 0.8227 0.8967 0.72238 0.0
C728 C 0.85252 0.85859 0.7658 0.0
C729 C 0.84652 0.77987 0.70891 0.0
C730 C 0.86892 0.7264 0.71351 0.0
C731 C 0.83933 0.71266 0.70953 0.0
C732 C 0.81738 0.76568 0.70493 0.0
C733 C 0.81378 0.73223 0.70536 0.0
C734 C 0.8718 0.76005 0.71334 0.0
C735 C 0.93189 0.85848 0.74301 0.0
C736 C 0.85 0.81522 0.70974 0.0
C737 C 0.75259 0.76964 0.75133 0.0
C738 C 0.77813 0.74784 0.75274 0.0
C739 C 0.89787 0.90604 0.72323 0.0
C740 C 0.81249 0.93934 0.77486 0.0
C741 C 0.77117 0.95993 0.79042 0.0
C742 C 0.78449 0.9409 0.80089 0.0
C743 C 0.82667 0.9227 0.78566 0.0
C744 C 0.78426 0.95711 0.77717 0.0
C745 C 0.81186 0.9222 0.79844 0.0
C746 C 0.82539 0.92939 0.7225 0.0
C747 C 0.82961 0.94317 0.76183 0.0
H748 H 0.8361 0.68681 0.70909 0.0
H749 H 0.79731 0.78043 0.70169 0.0
H750 H 0.79125 0.72138 0.70226 0.0
H751 H 0.89386 0.77103 0.71686 0.0
H752 H 0.77562 0.94236 0.81126 0.0
H753 H 0.84988 0.91139 0.7844 0.0
H754 H 0.77419 0.97088 0.76884 0.0
H755 H 0.82289 0.90908 0.80672 0.0
Eu756 Eu 1.01758 0.09515 0.48198 0.0
C757 C 0.91083 0.19086 0.51143 0.0
N758 N 0.93485 0.16997 0.51443 0.0
C759 C 0.94629 0.19984 0.53486 0.0
C760 C 0.90395 0.21755 0.51991 0.0
C761 C 0.95214 0.17376 0.52615 0.0
C762 C 0.92228 0.22203 0.53167 0.0
C763 C 0.86638 0.20537 0.49683 0.0
C764 C 0.89237 0.18485 0.50009 0.0
C765 C 0.85994 0.23246 0.505 0.0
C766 C 0.8787 0.23854 0.51653 0.0
Eu767 Eu 0.94572 0.12782 0.49857 0.0
N768 N 0.89911 0.15829 0.49252 0.0
C769 C 0.8473 0.19779 0.48558 0.0
C770 C 0.87982 0.15036 0.48175 0.0
C771 C 0.85392 0.17 0.47808 0.0
H772 H 0.97066 0.15695 0.52893 0.0
H773 H 0.83907 0.16365 0.46944 0.0
H774 H 0.9966 1.01683 0.48491 0.0
H775 H 0.13255 0.15323 0.4949 0.0
H776 H 0.88414 0.12906 0.47577 0.0
H777 H 0.82716 0.21292 0.48273 0.0
H778 H 0.08013 0.14879 0.48377 0.0
H779 H 0.96032 0.20277 0.54405 0.0
H780 H 0.84022 0.24857 0.5026 0.0
H781 H 0.87319 0.25924 0.52288 0.0
H782 H 1.01812 0.96692 0.49488 0.0
H783 H 0.91775 0.24219 0.53846 0.0
H784 H 0.15448 0.1071 0.50775 0.0
N785 N 1.03591 1.04594 0.49144 0.0
C786 C 0.06543 1.04655 0.49744 0.0
C787 C 1.03156 0.98919 0.49574 0.0
C788 C 0.07847 1.01851 0.50337 0.0
C789 C 1.01942 1.01758 0.4901 0.0
C790 C 0.06104 0.9897 0.50252 0.0
N791 N 0.07006 0.10166 0.4913 0.0
C792 C 0.08825 0.12895 0.48988 0.0
C793 C 0.11323 0.07656 0.50383 0.0
C794 C 0.08258 0.07534 0.49765 0.0
C795 C 0.13087 0.10524 0.50315 0.0
C796 C 0.11853 0.13135 0.49596 0.0
H797 H 0.07027 0.96768 0.50694 0.0
H798 H 0.11866 0.99881 0.51463 0.0
H799 H 0.14909 1.04961 0.51503 0.0
O800 O 0.05887 0.08549 0.46872 0.0
O801 O 1.00803 0.07476 0.50364 0.0
O802 O 0.99128 0.12081 0.51282 0.0
O803 O 1.01075 0.07745 0.4612 0.0
O804 O 1.02485 0.15318 0.48684 0.0
O805 O 0.97953 0.17373 0.49752 0.0
O806 O 0.945 0.07785 0.50534 0.0
O807 O 0.94586 0.13275 0.47569 0.0
O808 O 0.99908 0.13995 0.47216 0.0
O809 O 0.90726 0.11108 0.512 0.0
O810 O 0.92732 0.09397 0.48016 0.0
O811 O 0.97172 0.06356 0.4747 0.0
C812 C 1.00658 0.09302 0.51456 0.0
C813 C 1.04674 0.10485 0.44702 0.0
C814 C 0.06449 0.15871 0.4405 0.0
C815 C 0.06029 0.15008 0.4267 0.0
C816 C 1.04261 0.09656 0.43332 0.0
C817 C 1.04885 0.11941 0.4232 0.0
C818 C 1.0558 0.13632 0.45049 0.0
C819 C 1.00914 0.17892 0.49252 0.0
C820 C 1.04092 0.08166 0.45799 0.0
C821 C 0.10845 1.02002 0.5099 0.0
C822 C 0.12573 1.04897 0.51015 0.0
C823 C 0.96967 0.14172 0.46785 0.0
C824 C 0.92025 0.06793 0.52662 0.0
C825 C 0.89677 1.03021 0.54294 0.0
C826 C 0.91757 1.04255 0.553 0.0
C827 C 0.94 0.08057 0.53684 0.0
C828 C 0.89948 1.0423 0.52958 0.0
C829 C 0.93926 0.0673 0.54989 0.0
C830 C 0.93973 0.06836 0.47348 0.0
C831 C 0.91942 0.08207 0.51298 0.0
H832 H 0.06717 0.16625 0.41855 0.0
H833 H 1.03473 0.07259 0.4305 0.0
H834 H 1.04594 0.11299 0.41258 0.0
H835 H 0.05734 0.14295 0.46113 0.0
H836 H 0.91604 1.03443 0.56346 0.0
H837 H 0.95549 0.10093 0.5348 0.0
H838 H 0.88446 1.03276 0.52153 0.0
H839 H 0.95461 0.07708 0.55777 0.0
Eu840 Eu 0.76561 0.26079 0.23408 0.0
C841 C 0.66895 0.15191 0.26801 0.0
N842 N 0.68653 0.17933 0.26916 0.0
C843 C 0.65312 0.19644 0.28791 0.0
C844 C 0.64248 0.14575 0.27673 0.0
C845 C 0.6792 0.2014 0.27906 0.0
C846 C 0.63456 0.16857 0.28671 0.0
C847 C 0.66117 0.10014 0.25708 0.0
C848 C 0.67806 0.12952 0.25833 0.0
C849 C 0.63441 0.09413 0.26554 0.0
C850 C 0.62506 0.11691 0.27534 0.0
Eu851 Eu 0.72916 0.18697 0.25318 0.0
N852 N 0.70414 0.13601 0.25041 0.0
C853 C 0.67201 0.07749 0.24752 0.0
C854 C 0.71533 0.11361 0.24132 0.0
C855 C 0.69936 0.08419 0.23967 0.0
H856 H 0.693 0.2232 0.28015 0.0
H857 H 0.70818 0.0667 0.23235 0.0
H858 H 0.84011 0.23192 0.24024 0.0
H859 H 0.71544 0.38058 0.24408 0.0
H860 H 0.73642 0.11836 0.23519 0.0
H861 H 0.65971 1.05465 0.24625 0.0
H862 H 0.71479 0.32465 0.23594 0.0
H863 H 0.64734 0.21418 0.29565 0.0
H864 H 0.62103 0.07179 0.26469 0.0
H865 H 0.60459 0.11183 0.28191 0.0
H866 H 0.89227 0.25194 0.24869 0.0
H867 H 0.6144 0.16476 0.2936 0.0
H868 H 0.76524 0.40365 0.25377 0.0
N869 N 0.81572 0.27645 0.24345 0.0
C870 C 0.81825 0.30783 0.24738 0.0
C871 C 0.87161 0.26785 0.24842 0.0
C872 C 0.84759 0.32014 0.25237 0.0
C873 C 0.842 0.25658 0.24363 0.0
C874 C 0.87442 0.29972 0.25284 0.0
N875 N 0.76304 0.31473 0.24194 0.0
C876 C 0.73632 0.33368 0.24068 0.0
C877 C 0.79264 0.3596 0.25129 0.0
C878 C 0.79101 0.32727 0.24685 0.0
C879 C 0.76496 0.37873 0.25046 0.0
C880 C 0.73675 0.36575 0.24506 0.0
H881 H 0.89738 0.30831 0.25661 0.0
H882 H 0.87152 0.36212 0.26073 0.0
H883 H 0.82344 0.39666 0.25978 0.0
O884 O 0.75597 0.2921 0.21664 0.0
O885 O 0.78246 0.25814 0.25651 0.0
O886 O 0.73797 0.23517 0.26624 0.0
O887 O 0.79297 0.25548 0.21531 0.0
O888 O 0.70716 0.26842 0.23754 0.0
O889 O 0.68712 0.2267 0.25133 0.0
O890 O 0.77974 0.18851 0.25913 0.0
O891 O 0.70768 0.17918 0.23194 0.0
O892 O 0.7341 0.22117 0.2345 0.0
O893 O 0.74665 0.15382 0.26857 0.0
O894 O 0.76597 0.16825 0.23503 0.0
O895 O 0.79422 0.213 0.22695 0.0
C896 C 0.7646 0.25346 0.2675 0.0
C897 C 0.80405 0.30503 0.20492 0.0
C898 C 0.8137 0.35348 0.19185 0.0
C899 C 0.84491 0.3558 0.19713 0.0
C900 C 0.83565 0.30691 0.21004 0.0
C901 C 0.85602 0.33214 0.20607 0.0
C902 C 0.79362 0.32793 0.19564 0.0
C903 C 0.68195 0.25443 0.24445 0.0
C904 C 0.78072 0.28107 0.2098 0.0
C905 C 0.8492 0.35226 0.25683 0.0
C906 C 0.8218 0.37191 0.25631 0.0
C907 C 0.71726 0.20477 0.22589 0.0
C908 C 0.78998 0.1724 0.2819 0.0
C909 C 0.8299 0.15863 0.29918 0.0
C910 C 0.81774 0.18369 0.30744 0.0
C911 C 0.77624 0.19479 0.2909 0.0
C912 C 0.81646 0.15409 0.28612 0.0
C913 C 0.79077 0.20123 0.30339 0.0
C914 C 0.78975 0.18066 0.22697 0.0
C915 C 0.77573 0.16616 0.26847 0.0
H916 H 0.8603 0.37597 0.1945 0.0
H917 H 0.84443 0.28936 0.21726 0.0
H918 H 0.88011 0.33376 0.21019 0.0
H919 H 0.76903 0.32689 0.19193 0.0
H920 H 0.82799 0.18871 0.31734 0.0
H921 H 0.75412 0.20698 0.28833 0.0
H922 H 0.825 0.13494 0.27951 0.0
H923 H 0.78051 0.21915 0.31017 0.0
Eu924 Eu 0.5913 1.01569 0.98331 0.0
C925 C 0.70607 0.92778 1.01653 0.0
N926 N 0.67766 0.94376 1.01777 0.0
C927 C 0.66227 0.90917 1.03633 0.0
C928 C 0.71366 0.90164 1.02512 0.0
C929 C 0.65591 0.93501 1.02762 0.0
C930 C 0.6912 0.89229 1.03504 0.0
C931 C 0.75847 0.92329 1.00565 0.0
C932 C 0.72807 0.9383 1.00693 0.0
C933 C 0.7659 0.89681 1.01395 0.0
C934 C 0.74351 0.88598 1.02366 0.0
Eu935 Eu 0.66801 0.9862 1.00203 0.0
N936 N 0.72024 0.96408 0.99919 0.0
C937 C 0.7807 0.93577 0.99626 0.0
C938 C 0.74222 0.97704 0.99034 0.0
C939 C 0.77261 0.96295 0.98865 0.0
H940 H 0.63325 0.94738 1.02874 0.0
H941 H 0.78978 0.9731 0.98149 0.0
H942 H 0.62148 0.09205 0.98316 0.0
H943 H 0.48288 0.97025 1.00912 0.0
H944 H 0.73625 0.99811 0.98446 0.0
H945 H 0.8043 0.92495 0.99497 0.0
H946 H 0.53577 0.96567 0.99819 0.0
H947 H 0.64477 0.90225 1.04401 0.0
H948 H 0.78904 0.88485 1.01307 0.0
H949 H 0.7497 0.86578 1.03012 0.0
H950 H 0.60205 0.14679 0.98789 0.0
H951 H 0.69609 0.87233 1.04182 0.0
H952 H 0.45864 1.0238 1.01317 0.0
N953 N 0.57795 0.06918 0.98955 0.0
C954 C 0.54772 0.07331 0.99479 0.0
C955 C 0.58652 0.12633 0.98984 0.0
C956 C 0.53577 0.10441 0.99772 0.0
C957 C 0.59746 0.09508 0.98715 0.0
C958 C 0.55547 0.13105 0.99503 0.0
N959 N 0.54276 1.01638 0.99621 0.0
C960 C 0.52629 0.98935 1.00006 0.0
C961 C 0.49916 1.04972 1.00452 0.0
C962 C 0.52968 1.04616 0.99826 0.0
C963 C 0.48219 1.02205 1.00839 0.0
C964 C 0.49588 0.99179 1.0062 0.0
H965 H 0.54717 0.15531 0.99716 0.0
H966 H 0.49536 0.13166 1.00579 0.0
H967 H 0.46326 0.08383 1.01166 0.0
O968 O 0.56325 0.98883 0.96867 0.0
O969 O 0.59359 1.03445 1.00566 0.0
O970 O 0.6214 0.99399 1.01606 0.0
O971 O 0.57165 1.03927 0.96509 0.0
O972 O 0.58604 0.95844 0.98803 0.0
O973 O 0.63101 0.9409 1.00029 0.0
O974 O 0.66424 1.03651 1.00847 0.0
O975 O 0.67882 0.9675 0.98064 0.0
O976 O 0.63301 0.98612 0.98323 0.0
O977 O 0.70254 1.00549 1.01637 0.0
O978 O 0.68279 1.02489 0.98404 0.0
O979 O 0.63659 1.04279 0.97276 0.0
C980 C 0.60125 1.01919 1.017 0.0
C981 C 0.51838 1.01938 0.96217 0.0
C982 C 0.46428 0.99843 0.96715 0.0
C983 C 0.45125 1.02752 0.96219 0.0
C984 C 0.50486 1.04796 0.95723 0.0
C985 C 0.47145 1.05216 0.95747 0.0
C986 C 0.49795 0.99551 0.9676 0.0
C987 C 0.60229 0.93424 0.99435 0.0
C988 C 0.55367 1.01443 0.96229 0.0
C989 C 0.505 0.10794 1.00357 0.0
C990 C 0.48674 0.08069 1.00694 0.0
C991 C 0.6524 0.9731 0.97443 0.0
C992 C 0.68468 1.04741 1.03059 0.0
C993 C 0.7049 0.08424 1.04801 0.0
C994 C 0.68472 0.06892 1.05765 0.0
C995 C 0.66616 1.03153 1.04047 0.0
C996 C 0.70324 0.0742 1.03429 0.0
C997 C 0.66527 1.043 1.05384 0.0
C998 C 0.66907 1.04395 0.97435 0.0
C999 C 0.68859 1.03379 1.01689 0.0
H1000 H 0.4255 1.03092 0.9613 0.0
H1001 H 0.52007 0.06699 0.95323 0.0
H1002 H 0.46109 0.07422 0.95359 0.0
H1003 H 0.50839 0.9741 0.97199 0.0
H1004 H 0.6854 0.07536 0.06834 0.0
H1005 H 0.65333 1.0097 1.03796 0.0
H1006 H 0.71793 0.08583 1.02657 0.0
H1007 H 0.65084 1.03066 1.06143 0.0
Eu1008 Eu 0.84702 0.26948 0.89495 0.0
C1009 C 0.94256 0.16218 0.86592 0.0
N1010 N 0.92238 0.18681 0.86292 0.0
C1011 C 0.95428 0.19924 0.84307 0.0
C1012 C 0.96986 0.15544 0.85772 0.0
C1013 C 0.92755 0.20492 0.85148 0.0
C1014 C 0.97572 0.17456 0.84626 0.0
C1015 C 0.95501 0.11641 0.88018 0.0
C1016 C 0.93524 0.143 0.87694 0.0
C1017 C 0.98269 0.11009 0.87231 0.0
C1018 C 0.99011 0.12957 0.86109 0.0
Eu1019 Eu 0.87893 0.19711 0.87832 0.0
N1020 N 0.90814 0.14964 0.88422 0.0
C1021 C 0.94611 0.09665 0.89109 0.0
C1022 C 0.89891 0.12971 0.89464 0.0
C1023 C 0.91777 0.10321 0.89828 0.0
H1024 H 0.91147 0.22412 0.84875 0.0
H1025 H 0.91039 0.08783 0.90663 0.0
H1026 H 0.76844 0.2495 0.89204 0.0
H1027 H 0.90615 0.38438 0.8827 0.0
H1028 H 0.87711 0.13395 0.90033 0.0
H1029 H 0.96064 0.07604 0.89391 0.0
H1030 H 0.90092 0.33164 0.89367 0.0
H1031 H 0.95833 0.21394 0.83412 0.0
H1032 H 0.99824 0.08991 0.87469 0.0
H1033 H 1.01127 0.12416 0.85497 0.0
H1034 H 0.71882 0.27176 0.88212 0.0
H1035 H 0.9964 0.17017 0.83971 0.0
H1036 H 0.86055 0.40702 0.86976 0.0
N1037 N 0.79807 0.28857 0.88554 0.0
C1038 C 0.79904 0.31819 0.87961 0.0
C1039 C 0.74126 0.28495 0.88126 0.0
C1040 C 0.77119 0.33165 0.8737 0.0
C1041 C 0.76948 0.2724 0.88689 0.0
C1042 C 0.74217 0.31452 0.87452 0.0
N1043 N 0.85402 0.32219 0.88588 0.0
C1044 C 0.88139 0.34013 0.88748 0.0
C1045 C 0.82958 0.3659 0.87344 0.0
C1046 C 0.82797 0.33508 0.87949 0.0
C1047 C 0.85838 0.38329 0.87427 0.0
C1048 C 0.88421 0.37055 0.88151 0.0
H1049 H 0.72028 0.32409 0.87012 0.0
H1050 H 0.75203 0.37231 0.86254 0.0
H1051 H 0.80313 0.4023 0.86231 0.0
O1052 O 0.83908 0.31044 0.90855 0.0
O1053 O 0.82633 0.26021 0.87334 0.0
O1054 O 0.87199 0.24261 0.86399 0.0
O1055 O 0.82834 0.26239 0.91559 0.0
O1056 O 0.90496 0.27647 0.88972 0.0
O1057 O 0.92511 0.23074 0.87929 0.0
O1058 O 0.86268 0.15895 0.86473 0.0
O1059 O 0.8837 0.19662 0.90118 0.0
O1060 O 0.89169 0.24971 0.90444 0.0
O1061 O 0.82921 0.19656 0.87123 0.0
O1062 O 0.84466 0.1794 0.89687 0.0
O1063 O 0.81484 0.22413 0.90239 0.0
C1064 C 0.84439 0.25829 0.86234 0.0
C1065 C 0.85668 0.29601 0.9303 0.0
C1066 C 0.91148 0.30907 0.93742 0.0
C1067 C 0.90148 0.30507 0.95112 0.0
C1068 C 0.84718 0.29203 0.94388 0.0
C1069 C 0.86976 0.29605 0.95425 0.0
C1070 C 0.88899 0.30274 0.92717 0.0
C1071 C 0.93054 0.26049 0.88404 0.0
C1072 C 0.83384 0.29209 0.91909 0.0
C1073 C 0.77308 0.36177 0.86726 0.0
C1074 C 0.80221 0.37881 0.8671 0.0
C1075 C 0.89286 0.22039 0.90893 0.0
C1076 C 0.82109 0.17321 0.8496 0.0
C1077 C 0.7837 0.1527 0.83254 0.0
C1078 C 0.79816 0.17327 0.82283 0.0
C1079 C 0.83578 0.19266 0.83971 0.0
C1080 C 0.7947 0.15394 0.84608 0.0
C1081 C 0.82379 0.19329 0.82647 0.0
C1082 C 0.81928 0.19211 0.90366 0.0
C1083 C 0.83384 0.17133 0.86347 0.0
H1084 H 0.91746 0.31024 0.95951 0.0
H1085 H 0.82248 0.28592 0.94643 0.0
H1086 H 0.8624 0.29325 0.96479 0.0
H1087 H 0.89622 0.30409 0.9166 0.0
H1088 H 0.79094 0.17279 0.81225 0.0
H1089 H 0.85672 0.20694 0.84217 0.0
H1090 H 0.78361 0.13901 0.85386 0.0
H1091 H 0.83518 0.20844 0.81887 0.0
Eu1092 Eu 0.59519 0.10533 0.64463 0.0
C1093 C 0.71171 0.19431 0.61135 0.0
N1094 N 0.68277 0.17926 0.61042 0.0
C1095 C 0.66849 0.21374 0.59172 0.0
C1096 C 0.72021 0.21976 0.6025 0.0
C1097 C 0.6612 0.18862 0.6007 0.0
C1098 C 0.6981 0.22945 0.59263 0.0
C1099 C 0.76388 0.19811 0.62216 0.0
C1100 C 0.73312 0.1838 0.62104 0.0
C1101 C 0.77234 0.22372 0.61352 0.0
C1102 C 0.75053 0.23455 0.60371 0.0
Eu1103 Eu 0.6715 0.13765 0.62651 0.0
N1104 N 0.72421 0.15896 0.62916 0.0
C1105 C 0.78535 0.18595 0.63181 0.0
C1106 C 0.74541 0.14647 0.63835 0.0
C1107 C 0.77611 0.15986 0.63989 0.0
H1108 H 0.63794 0.17739 0.59985 0.0
H1109 H 0.79264 0.15001 0.64729 0.0
H1110 H 0.63238 1.03246 0.64096 0.0
H1111 H 0.48139 0.14558 0.62261 0.0
H1112 H 0.73872 0.12629 0.64463 0.0
H1113 H 0.80918 0.19625 0.63299 0.0
H1114 H 0.5348 0.15251 0.63292 0.0
H1115 H 0.65116 0.22106 0.58412 0.0
H1116 H 0.79579 0.2351 0.61426 0.0
H1117 H 0.75742 0.25418 0.59703 0.0
H1118 H 0.61709 0.97702 0.63502 0.0
H1119 H 0.70369 0.24891 0.58565 0.0
H1120 H 0.46119 0.09102 0.61724 0.0
N1121 N 0.58614 1.05216 0.63666 0.0
C1122 C 0.55575 1.04618 0.63206 0.0
C1123 C 0.59959 0.99625 0.6342 0.0
C1124 C 0.54615 1.01475 0.62842 0.0
C1125 C 0.60815 1.02783 0.63762 0.0
C1126 C 0.56839 0.98961 0.62972 0.0
N1127 N 0.54595 0.10245 0.63268 0.0
C1128 C 0.52696 0.12862 0.63022 0.0
C1129 C 0.50447 0.06712 0.62418 0.0
C1130 C 0.53519 0.07216 0.62987 0.0
C1131 C 0.48498 0.09389 0.62158 0.0
C1132 C 0.49638 0.12476 0.62453 0.0
H1133 H 0.56194 0.96512 0.62702 0.0
H1134 H 0.50723 0.98552 0.62047 0.0
H1135 H 0.4707 1.03132 0.61683 0.0
O1136 O 0.5615 0.1269 0.65899 0.0
O1137 O 0.59725 0.08976 0.62188 0.0
O1138 O 0.62548 0.13119 0.6122 0.0
O1139 O 0.58072 0.07983 0.66328 0.0
O1140 O 0.58857 0.16296 0.64026 0.0
O1141 O 0.63365 0.18192 0.62817 0.0
O1142 O 0.70437 0.11534 0.61212 0.0
O1143 O 0.68048 0.15623 0.64807 0.0
O1144 O 0.63512 0.13711 0.6451 0.0
O1145 O 0.66529 0.08684 0.62134 0.0
O1146 O 0.68707 0.09968 0.64452 0.0
O1147 O 0.64084 0.07867 0.65495 0.0
C1148 C 0.60503 0.10632 0.61086 0.0
C1149 C 0.52402 0.0875 0.66526 0.0
C1150 C 0.46794 0.10032 0.66005 0.0
C1151 C 0.46162 0.06751 0.65785 0.0
C1152 C 0.51738 1.05466 0.66305 0.0
C1153 C 0.48624 1.04479 0.65949 0.0
C1154 C 0.4988 0.10972 0.6643 0.0
C1155 C 0.60453 0.18773 0.63401 0.0
C1156 C 0.55738 0.10012 0.66566 0.0
C1157 C 0.51512 1.00956 0.6232 0.0
C1158 C 0.49434 1.03566 0.6211 0.0
C1159 C 0.65383 0.14971 0.65412 0.0
C1160 C 0.6843 0.07195 0.59931 0.0
C1161 C 0.70197 1.03049 0.58326 0.0
C1162 C 0.68383 1.04581 0.57301 0.0
C1163 C 0.66809 0.0878 0.58881 0.0
C1164 C 0.70008 1.0428 0.59664 0.0
C1165 C 0.66669 0.07402 0.57586 0.0
C1166 C 0.67348 0.07919 0.65375 0.0
C1167 C 0.68928 0.08756 0.61253 0.0
H1168 H 0.43785 0.05953 0.65482 0.0
H1169 H 0.53639 1.03682 0.6635 0.0
H1170 H 0.4814 1.01954 0.65762 0.0
H1171 H 0.5037 0.13491 0.66641 0.0
H1172 H 0.68465 1.03761 0.56254 0.0
H1173 H 0.65749 0.11126 0.5905 0.0
H1174 H 0.71299 1.03117 0.60484 0.0
H1175 H 0.65397 0.08628 0.56778 0.0
Eu1176 Eu 0.76269 0.84048 0.39416 0.0
C1177 C 0.66888 0.95879 0.36502 0.0
N1178 N 0.68641 0.93189 0.3624 0.0
C1179 C 0.653 0.92004 0.34313 0.0
C1180 C 0.64235 0.96727 0.35684 0.0
C1181 C 0.67913 0.9127 0.35152 0.0
C1182 C 0.6344 0.94735 0.34584 0.0
C1183 C 0.66123 1.00716 0.3785 0.0
C1184 C 0.67814 0.97839 0.37567 0.0
C1185 C 0.63435 1.01541 0.3706 0.0
C1186 C 0.62493 0.9955 0.35978 0.0
Eu1187 Eu 0.72896 0.91984 0.37759 0.0
N1188 N 0.70434 0.96984 0.38301 0.0
C1189 C 0.67214 1.027 0.38906 0.0
C1190 C 0.71566 0.98958 0.39305 0.0
C1191 C 0.69964 1.01826 0.3963 0.0
H1192 H 0.69309 0.89145 0.34929 0.0
H1193 H 0.7085 1.03358 0.40439 0.0
H1194 H 0.83781 0.8718 0.39305 0.0
H1195 H 0.71625 0.72985 0.37091 0.0
H1196 H 0.73677 0.98307 0.39876 0.0
H1197 H 0.6598 1.04927 0.39157 0.0
H1198 H 0.71242 0.78142 0.38294 0.0
H1199 H 0.64721 0.90459 0.33459 0.0
H1200 H 0.62096 1.03732 0.37265 0.0
H1201 H 0.6044 1.00233 0.35365 0.0
H1202 H 0.89223 0.85513 0.38579 0.0
H1203 H 0.6142 0.95302 0.33931 0.0
H1204 H 0.76921 0.70953 0.36309 0.0
N1205 N 0.8152 0.82889 0.38602 0.0
C1206 C 0.81921 0.79965 0.37992 0.0
C1207 C 0.87189 0.83932 0.38408 0.0
C1208 C 0.84997 0.78923 0.37559 0.0
C1209 C 0.84094 0.84871 0.38819 0.0
C1210 C 0.87646 0.80942 0.37782 0.0
N1211 N 0.76254 0.79217 0.38121 0.0
C1212 C 0.7356 0.77392 0.37915 0.0
C1213 C 0.79535 0.75102 0.3706 0.0
C1214 C 0.79208 0.78094 0.37733 0.0
C1215 C 0.76768 0.73269 0.36818 0.0
C1216 C 0.73772 0.74417 0.3725 0.0
H1217 H 0.90048 0.80228 0.37463 0.0
H1218 H 0.87673 0.75089 0.36566 0.0
H1219 H 0.82898 0.71733 0.36139 0.0
O1220 O 0.7396 0.8097 0.40925 0.0
O1221 O 0.78035 0.84796 0.37209 0.0
O1222 O 0.73646 0.87354 0.36329 0.0
O1223 O 0.78905 0.82418 0.41217 0.0
O1224 O 0.70494 0.83494 0.38963 0.0
O1225 O 0.68597 0.88086 0.37823 0.0
O1226 O 0.77915 0.91928 0.37085 0.0
O1227 O 0.70852 0.92298 0.39932 0.0
O1228 O 0.73526 0.88219 0.39442 0.0
O1229 O 0.74582 0.95565 0.36303 0.0
O1230 O 0.76778 0.93374 0.39546 0.0
O1231 O 0.78888 0.88635 0.40495 0.0
C1232 C 0.7628 0.85518 0.36139 0.0
C1233 C 0.77658 0.76849 0.41382 0.0
C1234 C 0.75856 0.71421 0.40791 0.0
C1235 C 0.79045 0.70545 0.40483 0.0
C1236 C 0.8085 0.75936 0.41074 0.0
C1237 C 0.81532 0.72794 0.40638 0.0
C1238 C 0.75221 0.74532 0.41289 0.0
C1239 C 0.68023 0.85145 0.38366 0.0
C1240 C 0.76701 0.80276 0.41498 0.0
C1241 C 0.85326 0.75935 0.369 0.0
C1242 C 0.82605 0.74028 0.36654 0.0
C1243 C 0.71818 0.89575 0.40375 0.0
C1244 C 0.78821 0.93897 0.34849 0.0
C1245 C 0.82749 0.95464 0.33101 0.0
C1246 C 0.81515 0.93028 0.32248 0.0
C1247 C 0.77425 0.91742 0.33927 0.0
C1248 C 0.81441 0.9579 0.34428 0.0
C1249 C 0.78834 0.9123 0.32651 0.0
C1250 C 0.78826 0.91918 0.40434 0.0
C1251 C 0.7748 0.94319 0.36228 0.0
H1252 H 0.79607 0.68141 0.40123 0.0
H1253 H 0.82794 0.77675 0.41113 0.0
H1254 H 0.83986 0.72124 0.40385 0.0
H1255 H 0.72774 0.75206 0.41562 0.0
H1256 H 0.82518 0.92606 0.31243 0.0
H1257 H 0.75237 0.90475 0.34189 0.0
H1258 H 0.82315 0.97637 0.35114 0.0
H1259 H 0.77794 0.89499 0.31954 0.0
Eu1260 Eu 1.01605 1.00692 0.14489 0.0
C1261 C 0.89744 0.92334 0.10985 0.0
N1262 N 0.92748 0.93629 0.10991 0.0
C1263 C 0.94142 0.90477 0.09012 0.0
C1264 C 0.88798 0.901 0.09976 0.0
C1265 C 0.94968 0.92673 0.10034 0.0
C1266 C 0.91036 0.89202 0.08975 0.0
C1267 C 0.84484 0.91898 0.12052 0.0
C1268 C 0.87628 0.932 0.12009 0.0
C1269 C 0.83513 0.89709 0.11042 0.0
C1270 C 0.85668 0.8881 0.10006 0.0
Eu1271 Eu 0.93933 0.97446 0.12745 0.0
N1272 N 0.88648 0.9531 0.12968 0.0
C1273 C 0.82411 0.92833 0.1311 0.0
C1274 C 0.86627 0.96234 0.14003 0.0
C1275 C 0.83492 0.9501 0.14091 0.0
H1276 H 0.97417 0.9352 0.10056 0.0
H1277 H 0.81911 0.95751 0.14916 0.0
H1278 H 0.97563 0.078 0.13997 0.0
H1279 H 0.13244 0.97096 0.1235 0.0
H1280 H 0.87414 0.97907 0.1477 0.0
H1281 H 0.79979 0.91889 0.1318 0.0
H1282 H 0.07788 0.96189 0.13272 0.0
H1283 H 0.95915 0.8975 0.08258 0.0
H1284 H 0.81108 0.88688 0.11057 0.0
H1285 H 0.84899 0.871 0.09237 0.0
H1286 H 0.98942 0.13396 0.13434 0.0
H1287 H 0.90407 0.87492 0.08184 0.0
H1288 H 0.15179 1.02645 0.11931 0.0
N1289 N 1.02352 0.06045 0.13717 0.0
C1290 C 1.05421 0.06763 0.13313 0.0
C1291 C 1.00791 0.11556 0.13408 0.0
C1292 C 0.06296 0.0994 0.12964 0.0
C1293 C 1.00023 0.08369 0.13738 0.0
C1294 C 1.03947 0.12355 0.13039 0.0
N1295 N 0.0659 1.0117 0.13339 0.0
C1296 C 0.08557 0.98617 0.13061 0.0
C1297 C 0.10714 1.04871 0.12594 0.0
C1298 C 0.07604 1.04247 0.13118 0.0
C1299 C 0.12766 1.02264 0.12328 0.0
C1300 C 0.11672 0.99125 0.12552 0.0
H1301 H 1.04523 0.14825 0.12775 0.0
H1302 H 0.10164 0.13017 0.1224 0.0
H1303 H 0.14035 0.08586 0.11926 0.0
O1304 O 1.0439 0.98218 0.16036 0.0
O1305 O 1.01789 1.01934 0.12184 0.0
O1306 O 0.98297 0.98344 0.11172 0.0
O1307 O 1.03453 1.03298 0.16266 0.0
O1308 O 1.02362 0.94984 0.1399 0.0
O1309 O 0.97794 0.9309 0.12843 0.0
O1310 O 0.9478 1.02569 0.1237 0.0
O1311 O 0.93409 0.94952 0.14814 0.0
O1312 O 0.97468 0.97786 0.14555 0.0
O1313 O 0.90504 1.00126 0.11544 0.0
O1314 O 0.9231 1.00914 0.14672 0.0
O1315 O 0.96968 1.03398 0.15501 0.0
C1316 C 1.00654 1.00569 0.11066 0.0
C1317 C 0.08773 1.01512 0.16662 0.0
C1318 C 0.14277 0.9969 0.16157 0.0
C1319 C 0.15421 1.02733 0.16582 0.0
C1320 C 0.09974 1.04505 0.17085 0.0
C1321 C 0.1328 1.05118 0.17029 0.0
C1322 C 0.10932 0.99167 0.16174 0.0
C1323 C 1.00731 0.92514 0.13387 0.0
C1324 C 1.05268 1.0089 0.16624 0.0
C1325 C 0.09441 0.10584 0.125 0.0
C1326 C 0.11645 0.08059 0.12318 0.0
C1327 C 0.95997 0.95893 0.15398 0.0
C1328 C 0.92421 1.046 0.10327 0.0
C1329 C 0.90144 0.08749 0.08855 0.0
C1330 C 0.92057 0.07564 0.0777 0.0
C1331 C 0.94105 1.03328 0.0921 0.0
C1332 C 0.90508 0.07352 0.10154 0.0
C1333 C 0.94043 1.04889 0.07955 0.0
C1334 C 0.93701 1.03097 0.15525 0.0
C1335 C 0.92178 1.02807 0.11612 0.0
H1336 H 0.17971 1.03256 0.16631 0.0
H1337 H 0.08357 0.06377 0.17445 0.0
H1338 H 0.14196 0.07431 0.1736 0.0
H1339 H 0.09981 0.96915 0.158 0.0
H1340 H 0.91844 0.08522 0.0675 0.0
H1341 H 0.9534 1.01055 0.09288 0.0
H1342 H 0.89112 0.08244 0.11013 0.0
H1343 H 0.95371 1.03898 0.07098 0.0
Eu1344 Eu 0.73607 0.69326 0.87728 0.0
C1345 C 0.83082 0.80752 0.88168 0.0
N1346 N 0.8234 0.77767 0.88659 0.0
C1347 C 0.87851 0.76125 0.884 0.0
C1348 C 0.8627 0.81535 0.87787 0.0
C1349 C 0.84655 0.75444 0.88758 0.0
C1350 C 0.8867 0.79191 0.87927 0.0
C1351 C 0.81253 0.85956 0.87341 0.0
C1352 C 0.80586 0.82932 0.87933 0.0
C1353 C 0.84447 0.86788 0.87016 0.0
C1354 C 0.86946 0.84583 0.87235 0.0
Eu1355 Eu 0.76952 0.77129 0.89417 0.0
N1356 N 0.77494 0.8202 0.88211 0.0
C1357 C 0.78682 0.8804 0.87074 0.0
C1358 C 0.74982 0.84046 0.87953 0.0
C1359 C 0.75536 0.87077 0.87379 0.0
H1360 H 0.84067 0.73051 0.891 0.0
H1361 H 0.73537 0.88687 0.87187 0.0
H1362 H 0.6996 0.7242 0.84923 0.0
H1363 H 0.7172 0.57634 0.90148 0.0
H1364 H 0.7255 0.83403 0.88229 0.0
H1365 H 0.79099 0.9039 0.86626 0.0
H1366 H 0.74242 0.62925 0.89793 0.0
H1367 H 0.89682 0.7428 0.88485 0.0
H1368 H 0.85003 0.89108 0.86567 0.0
H1369 H 0.89386 0.85233 0.86946 0.0
H1370 H 0.65777 0.7095 0.83297 0.0
H1371 H 0.91146 0.79699 0.87642 0.0
H1372 H 0.67306 0.55834 0.88643 0.0
N1373 N 0.69596 0.68076 0.86078 0.0
C1374 C 0.68033 0.6522 0.86213 0.0
C1375 C 0.66391 0.69308 0.84111 0.0
C1376 C 0.65586 0.6429 0.85298 0.0
C1377 C 0.68799 0.70123 0.85041 0.0
C1378 C 0.64775 0.66379 0.84239 0.0
N1379 N 0.71293 0.64171 0.88108 0.0
C1380 C 0.72329 0.6219 0.89125 0.0
C1381 C 0.67394 0.60182 0.87426 0.0
C1382 C 0.68911 0.63204 0.87262 0.0
C1383 C 0.68409 0.58172 0.88483 0.0
C1384 C 0.70899 0.59177 0.89333 0.0
H1385 H 0.62909 0.65755 0.83516 0.0
H1386 H 0.62151 0.60554 0.84774 0.0
H1387 H 0.63744 0.56947 0.8664 0.0
O1388 O 0.78706 0.69816 0.8719 0.0
O1389 O 0.71276 0.689 0.89839 0.0
O1390 O 0.74036 0.72998 0.89505 0.0
O1391 O 0.75838 0.65774 0.86408 0.0
O1392 O 0.77233 0.67842 0.89598 0.0
O1393 O 0.79454 0.72534 0.90538 0.0
O1394 O 0.74439 0.79837 0.90975 0.0
O1395 O 0.78471 0.76806 0.87155 0.0
O1396 O 0.74369 0.73835 0.86232 0.0
O1397 O 0.79569 0.79324 0.9113 0.0
O1398 O 0.71344 0.77973 0.88765 0.0
O1399 O 0.69288 0.73219 0.87808 0.0
C1400 C 0.72141 0.71584 0.90365 0.0
C1401 C 0.80126 0.67552 0.85034 0.0
C1402 C 0.8392 0.65345 0.83361 0.0
C1403 C 0.82538 0.67348 0.82362 0.0
C1404 C 0.78665 0.69359 0.84005 0.0
C1405 C 0.7995 0.6936 0.82689 0.0
C1406 C 0.82793 0.65611 0.84716 0.0
C1407 C 0.79292 0.69251 0.90496 0.0
C1408 C 0.78622 0.67274 0.86386 0.0
C1409 C 0.64037 0.61305 0.85465 0.0
C1410 C 0.64941 0.59253 0.86527 0.0
C1411 C 0.76842 0.75902 0.86072 0.0
C1412 C 0.77323 0.84505 0.91533 0.0
C1413 C 0.7481 0.89756 0.91122 0.0
C1414 C 0.7773 0.91253 0.91495 0.0
C1415 C 0.80195 0.86043 0.91904 0.0
C1416 C 0.74699 0.86382 0.91105 0.0
C1417 C 0.80404 0.89402 0.91866 0.0
C1418 C 0.68805 0.76275 0.8825 0.0
C1419 C 0.77049 0.80956 0.91519 0.0
H1420 H 0.83283 0.67207 0.81305 0.0
H1421 H 0.76464 0.70666 0.84202 0.0
H1422 H 0.78817 0.70779 0.81901 0.0
H1423 H 0.83841 0.64147 0.85512 0.0
H1424 H 0.77931 0.93847 0.91559 0.0
H1425 H 0.82274 0.84653 0.92215 0.0
H1426 H 0.72532 0.85195 0.90762 0.0
H1427 H 0.82622 0.90582 0.92158 0.0
Eu1428 Eu 0.66627 0.49392 0.12561 0.0
C1429 C 0.5434 0.57164 0.12769 0.0
N1430 N 0.57247 0.57281 0.13411 0.0
C1431 C 0.57766 0.62891 0.12877 0.0
C1432 C 0.53103 0.59912 0.12108 0.0
C1433 C 0.58921 0.60105 0.13507 0.0
C1434 C 0.54859 0.62791 0.12167 0.0
C1435 C 0.49634 0.54092 0.12078 0.0
C1436 C 0.52622 0.54271 0.12755 0.0
C1437 C 0.4845 0.56802 0.11387 0.0
C1438 C 0.50173 0.59703 0.11406 0.0
Eu1439 Eu 0.58871 0.52476 0.14494 0.0
N1440 N 0.53798 0.5168 0.13447 0.0
C1441 C 0.47875 0.51218 0.12143 0.0
C1442 C 0.51988 0.48948 0.13584 0.0
C1443 C 0.49037 0.48654 0.12916 0.0
H1444 H 0.61162 0.60213 0.14055 0.0
H1445 H 0.47633 0.46467 0.13016 0.0
H1446 H 0.63908 0.44966 0.09936 0.0
H1447 H 0.78374 0.48348 0.15068 0.0
H1448 H 0.52753 0.47023 0.1424 0.0
H1449 H 0.45572 0.50989 0.11637 0.0
H1450 H 0.73487 0.51094 0.14328 0.0
H1451 H 0.59121 0.65116 0.12938 0.0
H1452 H 0.46172 0.56695 0.10854 0.0
H1453 H 0.49206 0.61781 0.1088 0.0
H1454 H 0.64914 0.39661 0.08886 0.0
H1455 H 0.53986 0.64952 0.11673 0.0
H1456 H 0.79453 0.42758 0.14329 0.0
N1457 N 0.67647 0.44497 0.114 0.0
C1458 C 0.70157 0.42702 0.11845 0.0
C1459 C 0.664 0.40479 0.09721 0.0
C1460 C 0.70852 0.39672 0.11257 0.0
C1461 C 0.65841 0.4349 0.10318 0.0
C1462 C 0.68891 0.38541 0.10204 0.0
N1463 N 0.71521 0.47004 0.13307 0.0
C1464 C 0.73779 0.48604 0.14059 0.0
C1465 C 0.75018 0.42363 0.13189 0.0
C1466 C 0.72175 0.44007 0.12819 0.0
C1467 C 0.77228 0.43924 0.14033 0.0
C1468 C 0.76625 0.47074 0.14455 0.0
H1469 H 0.6934 0.36222 0.0973 0.0
H1470 H 0.74101 0.35582 0.1127 0.0
H1471 H 0.77782 0.37964 0.12949 0.0
O1472 O 0.70242 0.50999 0.11096 0.0
O1473 O 0.63838 0.49988 0.14336 0.0
O1474 O 0.60828 0.48606 0.15934 0.0
O1475 O 0.66324 0.54201 0.11661 0.0
O1476 O 0.68242 0.52837 0.1445 0.0
O1477 O 0.63637 0.55617 0.15182 0.0
O1478 O 0.54437 0.53505 0.15615 0.0
O1479 O 0.59942 0.54114 0.12223 0.0
O1480 O 0.62205 0.4987 0.11109 0.0
O1481 O 0.59003 0.54704 0.16519 0.0
O1482 O 0.584 0.46701 0.13945 0.0
O1483 O 0.63073 0.44838 0.12826 0.0
C1484 C 0.63636 0.48281 0.15426 0.0
C1485 C 0.68646 0.54833 0.09471 0.0
C1486 C 0.7134 0.57796 0.07646 0.0
C1487 C 0.69305 0.56236 0.06699 0.0
C1488 C 0.66745 0.53216 0.08516 0.0
C1489 C 0.6698 0.54022 0.0714 0.0
C1490 C 0.70758 0.57255 0.09043 0.0
C1491 C 0.66903 0.55242 0.15214 0.0
C1492 C 0.68844 0.53769 0.10888 0.0
C1493 C 0.73546 0.37926 0.117 0.0
C1494 C 0.75639 0.3928 0.12657 0.0
C1495 C 0.60174 0.52345 0.11088 0.0
C1496 C 0.55142 0.52181 0.17893 0.0
C1497 C 0.53545 0.4687 0.18702 0.0
C1498 C 0.53443 0.48097 0.20043 0.0
C1499 C 0.55035 0.53383 0.19226 0.0
C1500 C 0.54518 0.48913 0.1765 0.0
C1501 C 0.54223 0.51324 0.20301 0.0
C1502 C 0.6011 0.44235 0.13364 0.0
C1503 C 0.55939 0.54239 0.16731 0.0
H1504 H 0.69623 0.56528 1.05613 0.0
H1505 H 0.65173 0.5127 0.08824 0.0
H1506 H 0.65506 0.52771 0.06401 0.0
H1507 H 0.7213 0.58517 0.09812 0.0
H1508 H 0.52638 0.46614 0.20886 0.0
H1509 H 0.55562 0.55894 0.1943 0.0
H1510 H 0.54695 0.47976 0.16622 0.0
H1511 H 0.54111 0.52252 0.21332 0.0
Eu1512 Eu 0.88306 0.4235 0.3777 0.0
C1513 C 0.78836 0.30917 0.38276 0.0
N1514 N 0.79535 0.33919 0.38758 0.0
C1515 C 0.73958 0.35395 0.3862 0.0
C1516 C 0.75647 0.30044 0.37951 0.0
C1517 C 0.77158 0.36164 0.38921 0.0
C1518 C 0.73193 0.32315 0.38146 0.0
C1519 C 0.80758 0.25782 0.37401 0.0
C1520 C 0.81371 0.2881 0.38 0.0
C1521 C 0.7757 0.24856 0.37129 0.0
C1522 C 0.75022 0.2698 0.37404 0.0
Eu1523 Eu 0.8491 0.34659 0.39495 0.0
N1524 N 0.84443 0.29797 0.38251 0.0
C1525 C 0.83374 0.23796 0.37069 0.0
C1526 C 0.87 0.27859 0.37939 0.0
C1527 C 0.86505 0.24854 0.37327 0.0
H1528 H 0.77699 0.38555 0.3928 0.0
H1529 H 0.88542 0.23327 0.37078 0.0
H1530 H 0.91976 0.38996 0.34999 0.0
H1531 H 0.90253 0.54202 0.40039 0.0
H1532 H 0.89425 0.28568 0.38182 0.0
H1533 H 0.83003 0.21454 0.36606 0.0
H1534 H 0.87653 0.48927 0.3974 0.0
H1535 H 0.72079 0.37179 0.38755 0.0
H1536 H 0.77054 0.22526 0.3668 0.0
H1537 H 0.72582 0.26257 0.37159 0.0
H1538 H 0.96253 0.40271 0.33366 0.0
H1539 H 0.70712 0.31737 0.37907 0.0
H1540 H 0.94776 0.55802 0.38531 0.0
N1541 N 0.92383 0.43411 0.36107 0.0
C1542 C 0.93994 0.46246 0.36214 0.0
C1543 C 0.95638 0.41981 0.3416 0.0
C1544 C 0.96496 0.47064 0.35295 0.0
C1545 C 0.93176 0.4128 0.35093 0.0
C1546 C 0.9731 0.44885 0.34261 0.0
N1547 N 0.90671 0.47498 0.38086 0.0
C1548 C 0.89615 0.49578 0.39073 0.0
C1549 C 0.94671 0.51362 0.37369 0.0
C1550 C 0.93109 0.48356 0.37236 0.0
C1551 C 0.9364 0.53473 0.38396 0.0
C1552 C 0.91089 0.5258 0.39248 0.0
H1553 H 0.99217 0.45421 0.33536 0.0
H1554 H 1.00025 0.50694 0.34738 0.0
H1555 H 0.98417 0.54468 0.36556 0.0
O1556 O 0.8618 0.45875 0.36424 0.0
O1557 O 0.90576 0.4292 0.39883 0.0
O1558 O 0.87928 0.38745 0.39619 0.0
O1559 O 0.83203 0.41958 0.37255 0.0
O1560 O 0.84698 0.43946 0.39637 0.0
O1561 O 0.82448 0.39305 0.40602 0.0
O1562 O 0.86769 0.31017 0.40868 0.0
O1563 O 0.83203 0.35098 0.3726 0.0
O1564 O 0.87455 0.37782 0.36302 0.0
O1565 O 0.82386 0.33511 0.41403 0.0
O1566 O 0.90614 0.33876 0.38939 0.0
O1567 O 0.92641 0.38512 0.37879 0.0
C1568 C 0.8975 0.40281 0.40464 0.0
C1569 C 0.81865 0.44105 0.35081 0.0
C1570 C 0.78038 0.46206 0.33423 0.0
C1571 C 0.79451 0.44199 0.32423 0.0
C1572 C 0.83351 0.42286 0.34052 0.0
C1573 C 0.82068 0.42233 0.32743 0.0
C1574 C 0.79168 0.45993 0.34773 0.0
C1575 C 0.82628 0.42579 0.40547 0.0
C1576 C 0.83361 0.44442 0.36425 0.0
C1577 C 0.98095 0.5003 0.35432 0.0
C1578 C 0.97182 0.52177 0.36467 0.0
C1579 C 0.84895 0.35816 0.36159 0.0
C1580 C 0.82466 0.27814 0.41606 0.0
C1581 C 0.82972 0.22056 0.41154 0.0
C1582 C 0.79619 0.21809 0.4102 0.0
C1583 C 0.79101 0.27553 0.41462 0.0
C1584 C 0.84342 0.25032 0.41499 0.0
C1585 C 0.77691 0.24555 0.41182 0.0
C1586 C 0.93147 0.35529 0.38384 0.0
C1587 C 0.84142 0.30957 0.41601 0.0
H1588 H 0.78704 0.44302 0.31369 0.0
H1589 H 0.85564 0.41005 0.34245 0.0
H1590 H 0.8322 0.40808 0.31953 0.0
H1591 H 0.78095 0.47459 0.3557 0.0
H1592 H 0.78505 0.19516 0.40784 0.0
H1593 H 0.77574 0.29666 0.41515 0.0
H1594 H 0.86929 0.25213 0.4164 0.0
H1595 H 0.75106 0.24376 0.4106 0.0
Eu1596 Eu 0.9364 0.62988 0.62495 0.0
C1597 C 1.05193 0.53842 0.63088 0.0
N1598 N 1.02132 0.54527 0.63514 0.0
C1599 C 1.00624 0.48994 0.6322 0.0
C1600 C 0.06089 0.50673 0.6273 0.0
C1601 C 0.99835 0.52174 0.63558 0.0
C1602 C 1.03771 0.48231 0.62822 0.0
C1603 C 0.10461 0.55782 0.62363 0.0
C1604 C 0.07349 0.56377 0.62891 0.0
C1605 C 0.11408 0.52606 0.62069 0.0
C1606 C 0.09226 0.50061 0.62248 0.0
Eu1607 Eu 1.01327 0.59886 0.64277 0.0
N1608 N 0.06324 0.59442 0.63136 0.0
C1609 C 0.1251 0.58404 0.62123 0.0
C1610 C 0.08303 0.62007 0.62898 0.0
C1611 C 0.11421 0.61528 0.62386 0.0
H1612 H 0.97383 0.52719 0.6384 0.0
H1613 H 0.12995 0.63568 0.62211 0.0
H1614 H 0.97034 0.67086 0.59846 0.0
H1615 H 0.81493 0.64073 0.64606 0.0
H1616 H 0.07538 0.64422 0.63141 0.0
H1617 H 0.14926 0.58044 0.61724 0.0
H1618 H 0.86923 0.61774 0.64326 0.0
H1619 H 0.988 0.47131 0.63263 0.0
H1620 H 0.13798 0.52101 0.61671 0.0
H1621 H 0.09966 0.47636 0.6198 0.0
H1622 H 0.9568 0.71439 0.58281 0.0
H1623 H 1.04364 0.45767 0.62553 0.0
H1624 H 0.79799 0.68674 0.6318 0.0
N1625 N 0.92506 0.6716 0.60896 0.0
C1626 C 0.89586 0.68618 0.60994 0.0
C1627 C 0.93934 0.70664 0.59036 0.0
C1628 C 0.8872 0.71161 0.60114 0.0
C1629 C 0.94679 0.68153 0.59929 0.0
C1630 C 0.90942 0.72179 0.59129 0.0
N1631 N 0.88348 0.65058 0.62774 0.0
C1632 C 0.86233 0.63783 0.637 0.0
C1633 C 0.84343 0.68921 0.62085 0.0
C1634 C 0.87438 0.67532 0.61965 0.0
C1635 C 0.82197 0.67675 0.63055 0.0
C1636 C 0.83143 0.6508 0.63861 0.0
H1637 H 0.90373 0.74124 0.58436 0.0
H1638 H 0.84963 0.74554 0.59578 0.0
H1639 H 0.81118 0.7258 0.61305 0.0
O1640 O 0.9028 0.60702 0.61121 0.0
O1641 O 0.92722 0.6491 0.64642 0.0
O1642 O 0.97225 0.62914 0.64319 0.0
O1643 O 0.94336 0.57931 0.61944 0.0
O1644 O 0.92151 0.59193 0.64323 0.0
O1645 O 0.96805 0.57187 0.65357 0.0
O1646 O 1.04141 0.62502 0.65754 0.0
O1647 O 1.01412 0.5852 0.61977 0.0
O1648 O 0.9816 0.62334 0.60998 0.0
O1649 O 1.03302 0.57448 0.66079 0.0
O1650 O 1.02025 0.65572 0.6376 0.0
O1651 O 0.97409 0.67455 0.62649 0.0
C1652 C 0.95402 0.64282 0.65223 0.0
C1653 C 0.92247 0.56444 0.59777 0.0
C1654 C 0.90307 0.52452 0.58144 0.0
C1655 C 0.92173 0.53964 0.57122 0.0
C1656 C 0.93909 0.58022 0.58728 0.0
C1657 C 0.93984 0.56709 0.57419 0.0
C1658 C 0.90533 0.53616 0.59492 0.0
C1659 C 0.93537 0.57195 0.65254 0.0
C1660 C 0.91849 0.57958 0.61118 0.0
C1661 C 0.85665 0.72595 0.60241 0.0
C1662 C 0.83478 0.71474 0.61225 0.0
C1663 C 1.00393 0.60008 0.6087 0.0
C1664 C 0.08601 0.59473 0.66446 0.0
C1665 C 0.14007 0.61751 0.66129 0.0
C1666 C 0.15326 0.58721 0.66458 0.0
C1667 C 0.09965 0.56486 0.66775 0.0
C1668 C 0.10642 0.62045 0.66091 0.0
C1669 C 0.13313 0.5611 0.66764 0.0
C1670 C 1.00367 0.68042 0.63179 0.0
C1671 C 1.0507 0.59932 0.66393 0.0
H1672 H 0.92057 0.53194 0.56069 0.0
H1673 H 0.95038 0.60325 0.58908 0.0
H1674 H 0.95287 0.57935 0.56614 0.0
H1675 H 0.89182 0.52471 0.60306 0.0
H1676 H 0.17903 0.58378 0.66535 0.0
H1677 H 0.08451 0.54446 0.67032 0.0
H1678 H 0.09592 0.64311 0.65783 0.0
H1679 H 0.14357 0.53802 0.67023 0.0
Eu1680 Eu 0.7274 0.42078 0.75081 0.0
C1681 C 0.82073 0.30471 0.74481 0.0
N1682 N 0.81438 0.33522 0.74043 0.0
C1683 C 0.87001 0.3495 0.7431 0.0
C1684 C 0.85233 0.29539 0.74827 0.0
C1685 C 0.83832 0.35778 0.73984 0.0
C1686 C 0.87715 0.3181 0.74715 0.0
C1687 C 0.80062 0.2527 0.75244 0.0
C1688 C 0.79503 0.28362 0.74699 0.0
C1689 C 0.83227 0.24288 0.75525 0.0
C1690 C 0.85803 0.26418 0.7532 0.0
Eu1691 Eu 0.7608 0.3439 0.73309 0.0
N1692 N 0.76446 0.29418 0.74467 0.0
C1693 C 0.77415 0.23278 0.7552 0.0
C1694 C 0.73856 0.27499 0.74752 0.0
C1695 C 0.74302 0.24406 0.7528 0.0
H1696 H 0.83336 0.3823 0.737 0.0
H1697 H 0.72241 0.22879 0.75488 0.0
H1698 H 0.68907 0.3877 0.77823 0.0
H1699 H 0.70944 0.53922 0.72795 0.0
H1700 H 0.7144 0.28277 0.74535 0.0
H1701 H 0.77747 0.20882 0.75933 0.0
H1702 H 0.73267 0.48514 0.73024 0.0
H1703 H 0.88894 0.36742 0.74253 0.0
H1704 H 0.83701 0.21913 0.75935 0.0
H1705 H 0.88221 0.25653 0.75579 0.0
H1706 H 0.64944 0.40284 0.79555 0.0
H1707 H 0.90172 0.31188 0.74975 0.0
H1708 H 0.66836 0.55827 0.74446 0.0
N1709 N 0.68822 0.43307 0.76797 0.0
C1710 C 0.6741 0.46253 0.76745 0.0
C1711 C 0.65629 0.41999 0.78776 0.0
C1712 C 0.65073 0.47205 0.77719 0.0
C1713 C 0.67926 0.41164 0.77788 0.0
C1714 C 0.64205 0.45038 0.78746 0.0
N1715 N 0.70521 0.47304 0.74791 0.0
C1716 C 0.71491 0.4929 0.73757 0.0
C1717 C 0.66885 0.51407 0.75616 0.0
C1718 C 0.68286 0.48315 0.75708 0.0
C1719 C 0.67854 0.53438 0.74553 0.0
C1720 C 0.70171 0.52372 0.7362 0.0
H1721 H 0.6242 0.45675 0.79511 0.0
H1722 H 0.61873 0.51046 0.78373 0.0
H1723 H 0.6347 0.54737 0.76529 0.0
O1724 O 0.77855 0.41383 0.75518 0.0
O1725 O 0.70292 0.42539 0.73011 0.0
O1726 O 0.73241 0.38557 0.7327 0.0
O1727 O 0.75203 0.45532 0.76357 0.0
O1728 O 0.76333 0.43687 0.73187 0.0
O1729 O 0.78802 0.39032 0.72323 0.0
O1730 O 0.73477 0.31916 0.71704 0.0
O1731 O 0.77364 0.34341 0.75607 0.0
O1732 O 0.73538 0.37631 0.76597 0.0
O1733 O 0.78642 0.32312 0.71551 0.0
O1734 O 0.70389 0.33605 0.7382 0.0
O1735 O 0.68434 0.38158 0.74977 0.0
C1736 C 0.71304 0.39963 0.72433 0.0
C1737 C 0.79556 0.43624 0.77637 0.0
C1738 C 0.8359 0.45721 0.79212 0.0
C1739 C 0.82213 0.43817 0.80253 0.0
C1740 C 0.78103 0.41937 0.78711 0.0
C1741 C 0.79505 0.41921 0.79997 0.0
C1742 C 0.82337 0.45451 0.77883 0.0
C1743 C 0.78526 0.42301 0.72327 0.0
C1744 C 0.77933 0.43934 0.76319 0.0
C1745 C 0.63667 0.50275 0.77634 0.0
C1746 C 0.64573 0.52374 0.76584 0.0
C1747 C 0.75872 0.35395 0.76716 0.0
C1748 C 0.76324 0.2721 0.71111 0.0
C1749 C 0.73922 0.21956 0.7164 0.0
C1750 C 0.76813 0.20474 0.71204 0.0
C1751 C 0.79163 0.2568 0.70679 0.0
C1752 C 0.73758 0.25332 0.71612 0.0
C1753 C 0.79411 0.22328 0.7074 0.0
C1754 C 0.67898 0.35211 0.74426 0.0
C1755 C 0.7609 0.3076 0.71151 0.0
H1756 H 0.83055 0.43966 0.81293 0.0
H1757 H 0.75816 0.4075 0.78571 0.0
H1758 H 0.78375 0.40594 0.8082 0.0
H1759 H 0.83374 0.46842 0.77056 0.0
H1760 H 0.77048 0.1788 0.71165 0.0
H1761 H 0.81197 0.27074 0.70311 0.0
H1762 H 0.71617 0.2652 0.71991 0.0
H1763 H 0.81606 0.21156 0.70402 0.0
Eu1764 Eu 0.94292 0.47718 0.99898 0.0
C1765 C 1.04451 0.57559 0.99958 0.0
N1766 N 1.01648 0.56346 0.99454 0.0
C1767 C 0.98864 0.61151 1.00156 0.0
C1768 C 1.04578 0.60663 1.00545 0.0
C1769 C 0.98855 0.58058 0.99588 0.0
C1770 C 1.01747 0.62483 1.00616 0.0
C1771 C 0.10028 0.56656 1.00594 0.0
C1772 C 0.07142 0.55582 0.99993 0.0
C1773 C 0.10212 0.59805 1.01111 0.0
C1774 C 0.0749 0.61803 1.0109 0.0
Eu1775 Eu 1.02107 0.51224 0.98359 0.0
N1776 N 0.06846 0.52506 0.99541 0.0
C1777 C 0.126 0.54487 1.00704 0.0
C1778 C 0.09315 0.50361 0.99661 0.0
C1779 C 0.12226 0.51316 1.00251 0.0
H1780 H 0.96591 0.57051 0.99294 0.0
H1781 H 0.1419 0.49617 1.00348 0.0
H1782 H 0.90989 0.40665 0.99018 0.0
H1783 H 0.88502 0.59067 1.01416 0.0
H1784 H 0.09043 0.47931 0.9928 0.0
H1785 H 0.14856 0.55218 1.01162 0.0
H1786 H 0.93053 0.55378 1.01053 0.0
H1787 H 0.96636 0.62494 1.0025 0.0
H1788 H 0.12415 0.60683 1.01569 0.0
H1789 H 0.07637 0.64192 1.01533 0.0
H1790 H 0.85573 0.38483 0.98494 0.0
H1791 H 1.01739 0.64871 1.01064 0.0
H1792 H 0.8296 0.57319 1.00874 0.0
N1793 N 0.89249 0.45376 0.99446 0.0
C1794 C 0.86652 0.47355 0.99566 0.0
C1795 C 0.85845 0.40981 0.98791 0.0
C1796 C 0.83521 0.46201 0.99296 0.0
C1797 C 0.889 0.4222 0.99081 0.0
C1798 C 0.83146 0.42983 0.98892 0.0
N1799 N 0.90154 0.51548 1.00287 0.0
C1800 C 0.90665 0.54567 1.00803 0.0
C1801 C 0.84434 0.52564 1.00205 0.0
C1802 C 0.8711 0.5051 1.00012 0.0
C1803 C 0.84956 0.5568 1.00705 0.0
C1804 C 0.88082 0.56676 1.01012 0.0
H1805 H 0.80779 0.4201 0.98674 0.0
H1806 H 0.78444 0.47426 0.99252 0.0
H1807 H 0.79241 0.52985 1.00052 0.0
O1808 O 0.91542 0.45263 1.01491 0.0
O1809 O 0.94288 0.45176 0.97815 0.0
O1810 O 0.97879 0.4855 0.9806 0.0
O1811 O 0.967 0.45958 1.01722 0.0
O1812 O 0.92849 0.51984 0.98288 0.0
O1813 O 0.97564 0.53847 0.97236 0.0
O1814 O 1.05626 0.49341 0.96901 0.0
O1815 O 1.02601 0.50775 1.00691 0.0
O1816 O 0.97288 0.51523 1.01235 0.0
O1817 O 1.03742 0.54124 0.96631 0.0
O1818 O 1.02926 0.4549 0.98824 0.0
O1819 O 0.97918 0.43298 0.9945 0.0
C1820 C 0.96603 0.46607 0.97192 0.0
C1821 C 0.93482 0.46758 1.03657 0.0
C1822 C 0.91008 0.51094 1.04982 0.0
C1823 C 0.92838 0.50153 1.06118 0.0
C1824 C 0.95301 0.45853 1.04792 0.0
C1825 C 0.94974 0.47549 1.06019 0.0
C1826 C 0.91373 0.49377 1.03761 0.0
C1827 C 0.94279 0.53887 0.97332 0.0
C1828 C 0.93987 0.4521 1.02326 0.0
C1829 C 0.80866 0.48268 0.99458 0.0
C1830 C 0.8132 0.51435 0.99914 0.0
C1831 C 1.00408 0.51598 1.01608 0.0
C1832 C 0.09373 0.53466 0.96427 0.0
C1833 C 0.14994 0.52344 0.96958 0.0
C1834 C 0.15535 0.55632 0.97197 0.0
C1835 C 0.0994 0.56764 0.96671 0.0
C1836 C 0.11949 0.51316 0.9652 0.0
C1837 C 0.13014 0.57834 0.97042 0.0
C1838 C 1.01078 0.42871 0.99156 0.0
C1839 C 0.0607 0.52144 0.96333 0.0
H1840 H 0.92588 0.51385 0.07086 0.0
H1841 H 0.96997 0.43874 1.04723 0.0
H1842 H 0.96381 0.46848 0.06895 0.0
H1843 H 0.90042 0.50114 1.02875 0.0
H1844 H 0.17887 0.56484 0.97508 0.0
H1845 H 0.07994 0.58499 0.96624 0.0
H1846 H 0.11541 0.48787 0.96298 0.0
H1847 H 0.13421 0.60367 0.97241 0.0
Eu1848 Eu 0.8801 0.70055 0.24792 0.0
C1849 C 0.78651 0.81663 0.2453 0.0
N1850 N 0.79311 0.78716 0.2398 0.0
C1851 C 0.73741 0.77231 0.24178 0.0
C1852 C 0.75483 0.82506 0.24919 0.0
C1853 C 0.7692 0.76492 0.23813 0.0
C1854 C 0.73013 0.80259 0.24721 0.0
C1855 C 0.80626 0.86727 0.25449 0.0
C1856 C 0.81205 0.83739 0.24806 0.0
C1857 C 0.77458 0.8762 0.25791 0.0
C1858 C 0.74895 0.85515 0.25528 0.0
Eu1859 Eu 0.8467 0.77992 0.23192 0.0
N1860 N 0.84261 0.82781 0.24489 0.0
C1861 C 0.83254 0.88723 0.25739 0.0
C1862 C 0.86825 0.84743 0.24752 0.0
C1863 C 0.86363 0.87722 0.25392 0.0
H1864 H 0.77435 0.74136 0.23405 0.0
H1865 H 0.88405 0.89269 0.25597 0.0
H1866 H 0.91653 0.72963 0.27628 0.0
H1867 H 0.89893 0.58538 0.2221 0.0
H1868 H 0.89226 0.84082 0.24437 0.0
H1869 H 0.82907 0.91041 0.26229 0.0
H1870 H 0.87286 0.63755 0.22672 0.0
H1871 H 0.71852 0.75463 0.24041 0.0
H1872 H 0.76968 0.89916 0.26278 0.0
H1873 H 0.72472 0.86212 0.25825 0.0
H1874 H 0.95981 0.71478 0.29186 0.0
H1875 H 0.70548 0.80814 0.25009 0.0
H1876 H 0.94478 0.56754 0.23622 0.0
N1877 N 0.92111 0.68757 0.26387 0.0
C1878 C 0.93738 0.65958 0.26187 0.0
C1879 C 0.95374 0.69897 0.28347 0.0
C1880 C 0.96258 0.65016 0.27061 0.0
C1881 C 0.92891 0.70723 0.27456 0.0
C1882 C 0.97071 0.67034 0.28149 0.0
N1883 N 0.90369 0.64965 0.2432 0.0
C1884 C 0.89277 0.63018 0.23298 0.0
C1885 C 0.94401 0.61023 0.24894 0.0
C1886 C 0.92836 0.63999 0.25119 0.0
C1887 C 0.93341 0.59056 0.23828 0.0
C1888 C 0.90753 0.60053 0.23031 0.0
H1889 H 0.98992 0.66399 0.28842 0.0
H1890 H 0.99812 0.61328 0.27488 0.0
H1891 H 0.98176 0.57821 0.25589 0.0
O1892 O 0.82931 0.70376 0.2538 0.0
O1893 O 0.90175 0.69698 0.2265 0.0
O1894 O 0.87601 0.7388 0.23062 0.0
O1895 O 0.85945 0.6639 0.26101 0.0
O1896 O 0.84276 0.68719 0.22948 0.0
O1897 O 0.8215 0.73469 0.2203 0.0
O1898 O 0.86973 0.81305 0.21779 0.0
O1899 O 0.83049 0.77389 0.25433 0.0
O1900 O 0.87244 0.74501 0.26317 0.0
O1901 O 0.82096 0.79786 0.21399 0.0
O1902 O 0.90345 0.78694 0.23767 0.0
O1903 O 0.92338 0.73946 0.24747 0.0
C1904 C 0.89349 0.72427 0.2216 0.0
C1905 C 0.81677 0.68007 0.27524 0.0
C1906 C 0.77908 0.65769 0.29194 0.0
C1907 C 0.79329 0.67726 0.30203 0.0
C1908 C 0.83174 0.69772 0.28559 0.0
C1909 C 0.81926 0.69728 0.29881 0.0
C1910 C 0.7901 0.66066 0.27837 0.0
C1911 C 0.82241 0.70187 0.22061 0.0
C1912 C 0.83123 0.67808 0.26159 0.0
C1913 C 0.97867 0.62085 0.2683 0.0
C1914 C 0.96938 0.60091 0.25748 0.0
C1915 C 0.84712 0.76475 0.26506 0.0
C1916 C 0.83266 0.8539 0.21291 0.0
C1917 C 0.84953 0.90845 0.21901 0.0
C1918 C 0.8173 0.91697 0.22146 0.0
C1919 C 0.8004 0.86269 0.21544 0.0
C1920 C 0.85666 0.87735 0.21422 0.0
C1921 C 0.79283 0.89416 0.21957 0.0
C1922 C 0.92855 0.76988 0.24297 0.0
C1923 C 0.84279 0.8198 0.21168 0.0
H1924 H 0.78601 0.67553 0.31261 0.0
H1925 H 0.85369 0.71087 0.28356 0.0
H1926 H 0.83087 0.71112 0.30675 0.0
H1927 H 0.77935 0.6463 0.27036 0.0
H1928 H 0.81112 0.94105 0.22485 0.0
H1929 H 0.78121 0.84508 0.21475 0.0
H1930 H 0.88144 0.87088 0.21191 0.0
H1931 H 0.768 0.90064 0.22164 0.0
Eu1932 Eu 0.67531 0.64066 0.50071 0.0
C1933 C 0.5557 0.55022 0.49741 0.0
N1934 N 0.58608 0.55392 0.4923 0.0
C1935 C 0.59562 0.49719 0.49455 0.0
C1936 C 0.54422 0.51961 0.50136 0.0
C1937 C 0.60607 0.52799 0.49083 0.0
C1938 C 0.56451 0.49293 0.49975 0.0
C1939 C 0.50623 0.57472 0.50574 0.0
C1940 C 0.53694 0.57756 0.49958 0.0
C1941 C 0.49434 0.54415 0.50927 0.0
C1942 C 0.51326 0.51668 0.50708 0.0
Eu1943 Eu 0.59859 0.60578 0.48378 0.0
N1944 N 0.54921 0.60695 0.49616 0.0
C1945 C 0.48849 0.60272 0.50835 0.0
C1946 C 0.5317 0.63428 0.49855 0.0
C1947 C 0.50142 0.6326 0.50485 0.0
H1948 H 0.63009 0.53078 0.48677 0.0
H1949 H 0.48774 0.65439 0.50673 0.0
H1950 H 0.64305 0.67664 0.52877 0.0
H1951 H 0.79288 0.66072 0.47683 0.0
H1952 H 0.54028 0.65756 0.49544 0.0
H1953 H 0.46485 0.60154 0.51308 0.0
H1954 H 0.73972 0.63561 0.4799 0.0
H1955 H 0.61155 0.47671 0.49336 0.0
H1956 H 0.4707 0.54155 0.51391 0.0
H1957 H 0.50396 0.49333 0.51008 0.0
H1958 H 0.6573 0.71766 0.54557 0.0
H1959 H 0.55657 0.46903 0.50266 0.0
H1960 H 0.8107 0.70372 0.49257 0.0
N1961 N 0.68723 0.6802 0.51759 0.0
C1962 C 0.71596 0.69564 0.51654 0.0
C1963 C 0.67412 0.71164 0.53748 0.0
C1964 C 0.72502 0.71964 0.52599 0.0
C1965 C 0.66623 0.68802 0.52788 0.0
C1966 C 0.70366 0.72752 0.53655 0.0
N1967 N 0.72695 0.664 0.4972 0.0
C1968 C 0.74699 0.65421 0.48689 0.0
C1969 C 0.76683 0.70235 0.50463 0.0
C1970 C 0.73647 0.68726 0.50601 0.0
C1971 C 0.78722 0.69273 0.49397 0.0
C1972 C 0.77726 0.66847 0.48509 0.0
H1973 H 0.70969 0.74582 0.54401 0.0
H1974 H 0.76239 0.75346 0.53178 0.0
H1975 H 0.79912 0.73822 0.51306 0.0
O1976 O 0.67059 0.5893 0.50508 0.0
O1977 O 0.67992 0.66397 0.47963 0.0
O1978 O 0.63955 0.63545 0.48271 0.0
O1979 O 0.70955 0.6179 0.51419 0.0
O1980 O 0.69166 0.60417 0.48217 0.0
O1981 O 0.64529 0.57799 0.4745 0.0
O1982 O 0.565 0.62313 0.46848 0.0
O1983 O 0.60314 0.58939 0.5062 0.0
O1984 O 0.6298 0.6323 0.51551 0.0
O1985 O 0.5888 0.57746 0.46545 0.0
O1986 O 0.59227 0.66408 0.48713 0.0
O1987 O 0.63606 0.68335 0.49978 0.0
C1988 C 0.65412 0.65371 0.47401 0.0
C1989 C 0.69127 0.57289 0.52652 0.0
C1990 C 0.71035 0.53043 0.54166 0.0
C1991 C 0.69157 0.54393 0.55226 0.0
C1992 C 0.67439 0.58695 0.5374 0.0
C1993 C 0.67347 0.57179 0.55006 0.0
C1994 C 0.70837 0.54423 0.52857 0.0
C1995 C 0.67787 0.5812 0.47419 0.0
C1996 C 0.69509 0.58981 0.51352 0.0
C1997 C 0.75506 0.73498 0.52462 0.0
C1998 C 0.77594 0.72632 0.51396 0.0
C1999 C 0.61046 0.60651 0.5171 0.0
C2000 C 0.53234 0.57888 0.46265 0.0
C2001 C 0.47476 0.5842 0.4673 0.0
C2002 C 0.47229 0.55074 0.46897 0.0
C2003 C 0.52959 0.54528 0.46433 0.0
C2004 C 0.5046 0.59779 0.46375 0.0
C2005 C 0.49967 0.53138 0.46741 0.0
C2006 C 0.60753 0.68899 0.4936 0.0
C2007 C 0.56404 0.59519 0.46237 0.0
H2008 H 0.69251 0.53451 0.56253 0.0
H2009 H 0.66281 0.61009 0.53623 0.0
H2010 H 0.66019 0.58267 0.55842 0.0
H2011 H 0.72194 0.53404 0.52013 0.0
H2012 H 0.44934 0.53969 0.47145 0.0
H2013 H 0.55064 0.52989 0.46376 0.0
H2014 H 0.50646 0.62356 0.4621 0.0
H2015 H 0.49783 0.50558 0.46883 0.0
Eu2016 Eu 0.34886 0.33615 0.23259 0.0
C2017 C 0.43852 0.45762 0.26274 0.0
N2018 N 0.42264 0.42938 0.26462 0.0
C2019 C 0.45503 0.41848 0.28433 0.0
C2020 C 0.46336 0.46745 0.2716 0.0
C2021 C 0.43058 0.4098 0.27528 0.0
C2022 C 0.47154 0.44741 0.28248 0.0
C2023 C 0.44496 0.50688 0.24982 0.0
C2024 C 0.42958 0.47697 0.25201 0.0
C2025 C 0.46991 0.51665 0.2585 0.0
C2026 C 0.47911 0.49696 0.26938 0.0
Eu2027 Eu 0.38217 0.4157 0.24848 0.0
N2028 N 0.40535 0.46685 0.24386 0.0
C2029 C 0.43456 0.52622 0.23904 0.0
C2030 C 0.39468 0.48596 0.2335 0.0
C2031 C 0.40918 0.51575 0.23089 0.0
H2032 H 0.41864 0.38713 0.27689 0.0
H2033 H 0.40077 0.53061 0.22258 0.0
H2034 H 0.27645 0.37465 0.23482 0.0
H2035 H 0.38649 0.22405 0.25689 0.0
H2036 H 0.3752 0.47822 0.22708 0.0
H2037 H 0.44575 0.54934 0.23702 0.0
H2038 H 0.3946 0.27595 0.24534 0.0
H2039 H 0.46119 0.40274 0.2927 0.0
H2040 H 0.48207 0.53948 0.25696 0.0
H2041 H 0.49828 0.50485 0.27606 0.0
H2042 H 0.2206 0.36118 0.24106 0.0
H2043 H 0.49048 0.45407 0.2895 0.0
H2044 H 0.33148 0.20589 0.26291 0.0
N2045 N 0.29526 0.32884 0.24043 0.0
C2046 C 0.28869 0.29932 0.24585 0.0
C2047 C 0.23952 0.34353 0.2424 0.0
C2048 C 0.25701 0.29078 0.24967 0.0
C2049 C 0.27133 0.35104 0.23881 0.0
C2050 C 0.23226 0.31318 0.24772 0.0
N2051 N 0.34482 0.28841 0.24557 0.0
C2052 C 0.37056 0.26909 0.24834 0.0
C2053 C 0.30854 0.24879 0.25502 0.0
C2054 C 0.31427 0.27865 0.24862 0.0
C2055 C 0.33489 0.22905 0.25803 0.0
C2056 C 0.36601 0.23931 0.25471 0.0
H2057 H 0.20761 0.30755 0.25055 0.0
H2058 H 0.22693 0.25358 0.2586 0.0
H2059 H 0.27199 0.21675 0.26319 0.0
O2060 O 0.37209 0.30284 0.21855 0.0
O2061 O 0.33317 0.34165 0.2551 0.0
O2062 O 0.37463 0.37153 0.2639 0.0
O2063 O 0.32342 0.31804 0.21459 0.0
O2064 O 0.40599 0.32961 0.23809 0.0
O2065 O 0.42575 0.37721 0.24795 0.0
O2066 O 0.36011 0.45186 0.26144 0.0
O2067 O 0.40329 0.41885 0.22691 0.0
O2068 O 0.37796 0.37714 0.23152 0.0
O2069 O 0.33125 0.4112 0.25393 0.0
O2070 O 0.34495 0.42905 0.23004 0.0
O2071 O 0.32341 0.3814 0.22101 0.0
C2072 C 0.34968 0.35125 0.2658 0.0
C2073 C 0.33505 0.26196 0.21358 0.0
C2074 C 0.35163 0.20742 0.21976 0.0
C2075 C 0.3193 0.19898 0.22203 0.0
C2076 C 0.30271 0.25323 0.21592 0.0
C2077 C 0.29495 0.22182 0.22001 0.0
C2078 C 0.35897 0.23849 0.21503 0.0
C2079 C 0.4311 0.34687 0.24337 0.0
C2080 C 0.34525 0.29604 0.21236 0.0
C2081 C 0.25116 0.26064 0.2557 0.0
C2082 C 0.27685 0.2397 0.25835 0.0
C2083 C 0.39487 0.39132 0.22227 0.0
C2084 C 0.31679 0.435 0.27517 0.0
C2085 C 0.27767 0.45753 0.29123 0.0
C2086 C 0.29154 0.43875 0.30164 0.0
C2087 C 0.33142 0.41818 0.28582 0.0
C2088 C 0.28948 0.45387 0.27782 0.0
C2089 C 0.31802 0.41899 0.29887 0.0
C2090 C 0.32442 0.41428 0.22125 0.0
C2091 C 0.33218 0.43702 0.26172 0.0
H2092 H 0.31297 0.17494 0.22538 0.0
H2093 H 0.28357 0.27086 0.21512 0.0
H2094 H 0.27005 0.21539 0.22194 0.0
H2095 H 0.38384 0.2449 0.21287 0.0
H2096 H 0.28364 0.44097 0.31213 0.0
H2097 H 0.35378 0.40545 0.28415 0.0
H2098 H 0.27894 0.46749 0.26955 0.0
H2099 H 0.32936 0.40578 0.30705 0.0
Eu2100 Eu 0.51546 0.60101 0.9823 0.0
C2101 C 0.40594 0.69615 1.0111 0.0
N2102 N 0.43087 0.67643 1.01417 0.0
C2103 C 0.44139 0.7077 1.03434 0.0
C2104 C 0.39799 0.72282 1.01944 0.0
C2105 C 0.44828 0.68161 1.02577 0.0
C2106 C 0.41627 0.72857 1.03111 0.0
C2107 C 0.361 0.70848 0.99643 0.0
C2108 C 0.38776 0.68906 0.99981 0.0
C2109 C 0.3534 0.73546 1.00449 0.0
C2110 C 0.37187 0.74261 1.01599 0.0
Eu2111 Eu 0.44336 0.63388 0.99866 0.0
N2112 N 0.39567 0.66265 0.99234 0.0
C2113 C 0.34241 0.70004 0.98515 0.0
C2114 C 0.37689 0.65396 0.9815 0.0
C2115 C 0.35031 0.67253 0.9777 0.0
H2116 H 0.46776 0.66598 1.02856 0.0
H2117 H 0.33593 0.66555 0.96901 0.0
H2118 H 0.49176 0.52413 0.98774 0.0
H2119 H 0.63301 0.65714 0.99175 0.0
H2120 H 0.38208 0.63292 0.97549 0.0
H2121 H 0.32174 0.71434 0.98221 0.0
H2122 H 0.57865 0.65343 0.98218 0.0
H2123 H 0.4555 0.71168 1.04343 0.0
H2124 H 0.33306 0.7507 1.00201 0.0
H2125 H 0.36553 0.76327 1.02222 0.0
H2126 H 0.51327 0.47452 0.99801 0.0
H2127 H 0.41095 0.74876 1.03778 0.0
H2128 H 0.65581 0.61119 1.00445 0.0
N2129 N 0.53308 0.55239 0.99249 0.0
C2130 C 0.56355 0.55257 0.99761 0.0
C2131 C 0.52756 0.49635 0.99803 0.0
C2132 C 0.57661 0.52472 1.00368 0.0
C2133 C 0.51546 0.52453 0.99219 0.0
C2134 C 0.55813 0.49649 1.0039 0.0
N2135 N 0.56902 0.60686 0.99035 0.0
C2136 C 0.58747 0.6337 0.9882 0.0
C2137 C 0.61322 0.58156 1.0021 0.0
C2138 C 0.58165 0.58075 0.9968 0.0
C2139 C 0.63149 0.60966 1.00053 0.0
C2140 C 0.61868 0.63568 0.9934 0.0
H2141 H 0.56735 0.47462 1.00846 0.0
H2142 H 0.61796 0.50472 1.01408 0.0
H2143 H 0.64998 0.55445 1.01271 0.0
O2144 O 0.55575 0.59041 0.96863 0.0
O2145 O 0.50756 0.58313 1.00447 0.0
O2146 O 0.48908 0.62943 1.01291 0.0
O2147 O 0.50708 0.58137 0.96197 0.0
O2148 O 0.52362 0.65868 0.98727 0.0
O2149 O 0.47796 0.67934 0.99771 0.0
O2150 O 0.40635 0.61578 1.01247 0.0
O2151 O 0.44372 0.63887 0.97592 0.0
O2152 O 0.49705 0.64566 0.97217 0.0
O2153 O 0.44474 0.58384 1.00538 0.0
O2154 O 0.42545 0.59951 0.9802 0.0
O2155 O 0.46998 0.5692 0.97496 0.0
C2156 C 0.5053 0.60237 1.01506 0.0
C2157 C 0.54193 0.60654 0.94666 0.0
C2158 C 0.55886 0.65943 0.93868 0.0
C2159 C 0.55488 0.64866 0.92514 0.0
C2160 C 0.53801 0.59603 0.93323 0.0
C2161 C 0.5439 0.61735 0.92248 0.0
C2162 C 0.55032 0.6386 0.94926 0.0
C2163 C 0.50788 0.68435 0.99295 0.0
C2164 C 0.537 0.58503 0.95826 0.0
C2165 C 0.60766 0.5258 1.00927 0.0
C2166 C 0.62588 0.55415 1.00851 0.0
C2167 C 0.46744 0.64779 0.96805 0.0
C2168 C 0.42266 0.57405 1.02719 0.0
C2169 C 0.40439 0.53489 1.04408 0.0
C2170 C 0.4237 0.55048 1.05389 0.0
C2171 C 0.44069 0.58986 1.03719 0.0
C2172 C 0.4054 0.54618 1.03055 0.0
C2173 C 0.44197 0.57753 1.05038 0.0
C2174 C 0.43811 0.57403 0.97348 0.0
C2175 C 0.41974 0.58731 1.01343 0.0
H2176 H 0.56164 0.66362 0.91657 0.0
H2177 H 0.53066 0.5715 0.93108 0.0
H2178 H 0.54118 0.60924 0.91206 0.0
H2179 H 0.55176 0.64684 0.95969 0.0
H2180 H 0.42339 0.54311 0.06446 0.0
H2181 H 0.45331 0.61193 1.03486 0.0
H2182 H 0.39155 0.53426 1.02268 0.0
H2183 H 0.45605 0.58978 1.05807 0.0
Eu2184 Eu 0.26372 0.77425 0.73279 0.0
C2185 C 0.17071 0.66158 0.76505 0.0
N2186 N 0.18769 0.68919 0.76681 0.0
C2187 C 0.15176 0.70497 0.78493 0.0
C2188 C 0.14319 0.65472 0.77306 0.0
C2189 C 0.179 0.71057 0.7768 0.0
C2190 C 0.1336 0.67704 0.78298 0.0
C2191 C 0.16595 0.60965 0.75393 0.0
C2192 C 0.18181 0.63945 0.75561 0.0
C2193 C 0.13794 0.60307 0.76156 0.0
C2194 C 0.12656 0.62559 0.7711 0.0
Eu2195 Eu 0.23202 0.69811 0.75184 0.0
N2196 N 0.20909 0.64644 0.74856 0.0
C2197 C 0.17916 0.58707 0.74487 0.0
C2198 C 0.22283 0.62401 0.74013 0.0
C2199 C 0.20793 0.59418 0.73805 0.0
H2200 H 0.1926 0.73233 0.77843 0.0
H2201 H 0.21868 0.57669 0.7312 0.0
H2202 H 0.33938 0.7436 0.73435 0.0
H2203 H 0.21622 0.88607 0.75492 0.0
H2204 H 0.24511 0.62926 0.73486 0.0
H2205 H 0.16773 0.5639 0.74329 0.0
H2206 H 0.21275 0.83321 0.74399 0.0
H2207 H 0.1448 0.72222 0.79269 0.0
H2208 H 0.12528 0.58041 0.76034 0.0
H2209 H 0.10527 0.61999 0.77709 0.0
H2210 H 0.39362 0.76194 0.74067 0.0
H2211 H 0.11259 0.6727 0.78933 0.0
H2212 H 0.26917 0.90829 0.76146 0.0
N2213 N 0.31624 0.78714 0.74045 0.0
C2214 C 0.32002 0.81723 0.7458 0.0
C2215 C 0.37311 0.77771 0.74216 0.0
C2216 C 0.35073 0.82859 0.7496 0.0
C2217 C 0.34221 0.76738 0.73857 0.0
C2218 C 0.37743 0.80848 0.74762 0.0
N2219 N 0.26318 0.82366 0.74503 0.0
C2220 C 0.236 0.84157 0.7472 0.0
C2221 C 0.29571 0.86652 0.75437 0.0
C2222 C 0.29269 0.83584 0.74828 0.0
C2223 C 0.26783 0.88459 0.75684 0.0
C2224 C 0.23788 0.87204 0.75324 0.0
H2225 H 0.40142 0.81633 0.75041 0.0
H2226 H 0.37721 0.86849 0.75837 0.0
H2227 H 0.3291 0.90179 0.76246 0.0
O2228 O 0.24097 0.80532 0.71792 0.0
O2229 O 0.28216 0.76989 0.75501 0.0
O2230 O 0.23884 0.74591 0.76499 0.0
O2231 O 0.28963 0.78931 0.71427 0.0
O2232 O 0.20605 0.77986 0.73722 0.0
O2233 O 0.1876 0.73571 0.74992 0.0
O2234 O 0.28171 0.69957 0.75897 0.0
O2235 O 0.21516 0.68711 0.7303 0.0
O2236 O 0.23275 0.73342 0.73265 0.0
O2237 O 0.24767 0.66455 0.76745 0.0
O2238 O 0.27194 0.68289 0.73425 0.0
O2239 O 0.29099 0.72861 0.7228 0.0
C2240 C 0.26516 0.76434 0.76615 0.0
C2241 C 0.27806 0.84523 0.71191 0.0
C2242 C 0.26066 0.90045 0.71656 0.0
C2243 C 0.29268 0.90928 0.71919 0.0
C2244 C 0.31008 0.85437 0.71458 0.0
C2245 C 0.31729 0.88631 0.71807 0.0
C2246 C 0.25395 0.86879 0.71241 0.0
C2247 C 0.18149 0.76424 0.74375 0.0
C2248 C 0.26795 0.81104 0.71153 0.0
C2249 C 0.35378 0.8593 0.75547 0.0
C2250 C 0.32636 0.87823 0.75783 0.0
C2251 C 0.22104 0.71335 0.72391 0.0
C2252 C 0.28971 0.68216 0.78171 0.0
C2253 C 0.32757 0.66653 0.7995 0.0
C2254 C 0.31518 0.69141 0.80781 0.0
C2255 C 0.27577 0.7046 0.79061 0.0
C2256 C 0.31524 0.66297 0.78621 0.0
C2257 C 0.28916 0.70996 0.80343 0.0
C2258 C 0.29171 0.69623 0.72461 0.0
C2259 C 0.27672 0.67678 0.76801 0.0
H2260 H 0.29858 0.93371 0.72216 0.0
H2261 H 0.32929 0.8367 0.71452 0.0
H2262 H 0.34192 0.89307 0.72027 0.0
H2263 H 0.22937 0.86198 0.71002 0.0
H2264 H 0.32455 0.6956 0.81793 0.0
H2265 H 0.25435 0.7176 0.78771 0.0
H2266 H 0.32389 0.64391 0.77957 0.0
H2267 H 0.27872 0.72781 0.81019 0.0
Eu2268 Eu 0.09059 0.51312 0.47974 0.0
C2269 C 0.19804 0.4198 0.50973 0.0
N2270 N 0.1734 0.4401 0.51274 0.0
C2271 C 0.16144 0.40947 0.53293 0.0
C2272 C 0.20501 0.39306 0.5181 0.0
C2273 C 0.15553 0.43564 0.52434 0.0
C2274 C 0.1861 0.38789 0.52973 0.0
C2275 C 0.24369 0.4067 0.49531 0.0
C2276 C 0.21703 0.42653 0.49855 0.0
C2277 C 0.25023 0.37953 0.50334 0.0
C2278 C 0.23091 0.37272 0.51472 0.0
Eu2279 Eu 0.16252 0.48245 0.49709 0.0
N2280 N 0.21017 0.45316 0.49113 0.0
C2281 C 0.26331 0.41506 0.48424 0.0
C2282 C 0.23001 0.46191 0.48056 0.0
C2283 C 0.25657 0.44295 0.47691 0.0
H2284 H 0.13647 0.45197 0.5271 0.0
H2285 H 0.27184 0.44993 0.46842 0.0
H2286 H 0.10678 0.59184 0.48428 0.0
H2287 H 0.97548 0.44996 0.48668 0.0
H2288 H 0.22564 0.48334 0.47473 0.0
H2289 H 0.28397 0.40047 0.48141 0.0
H2290 H 1.03002 0.45814 0.47738 0.0
H2291 H 0.14694 0.406 0.54202 0.0
H2292 H 0.27046 0.36394 0.50096 0.0
H2293 H 0.23651 0.35198 0.52097 0.0
H2294 H 0.08136 0.63976 0.49475 0.0
H2295 H 0.19068 0.36766 0.53641 0.0
H2296 H 0.94936 0.49288 0.50034 0.0
N2297 N 0.06814 0.56038 0.48952 0.0
C2298 C 1.03781 0.55781 0.49476 0.0
C2299 C 0.06897 0.61681 0.49491 0.0
C2300 C 1.02252 0.5845 0.50094 0.0
C2301 C 0.08328 0.58964 0.48898 0.0
C2302 C 1.03865 0.61415 0.50108 0.0
N2303 N 1.03652 0.5039 0.48688 0.0
C2304 C 1.01973 0.47644 0.4839 0.0
C2305 C 0.99012 0.52531 0.49877 0.0
C2306 C 1.02185 0.52855 0.49366 0.0
C2307 C 0.97374 0.4963 0.49658 0.0
C2308 C 0.98843 0.47198 0.48891 0.0
H2309 H 1.02768 0.63522 0.50571 0.0
H2310 H 0.97953 0.60107 0.51148 0.0
H2311 H 0.95116 0.54922 0.50959 0.0
O2312 O 1.05242 0.51976 0.4647 0.0
O2313 O 0.09713 0.53339 0.50172 0.0
O2314 O 0.11626 0.4885 0.51115 0.0
O2315 O 0.10079 0.5353 0.46003 0.0
O2316 O 0.08402 0.45539 0.48493 0.0
O2317 O 0.12912 0.43617 0.49599 0.0
O2318 O 0.16147 0.53215 0.50433 0.0
O2319 O 0.16406 0.47767 0.47426 0.0
O2320 O 0.11145 0.46874 0.47006 0.0
O2321 O 0.20024 0.49988 0.51054 0.0
O2322 O 0.18088 0.51684 0.47882 0.0
O2323 O 0.1361 0.54637 0.47337 0.0
C2324 C 0.09963 0.51559 0.51274 0.0
C2325 C 0.07431 0.50641 0.44308 0.0
C2326 C 0.06969 0.45136 0.43425 0.0
C2327 C 0.08896 0.46029 0.423 0.0
C2328 C 0.0924 0.51512 0.43155 0.0
C2329 C 0.09966 0.4921 0.42157 0.0
C2330 C 0.06242 0.47493 0.44412 0.0
C2331 C 0.09983 0.43029 0.49088 0.0
C2332 C 0.07276 0.52774 0.45509 0.0
C2333 C 0.99151 0.58094 0.50655 0.0
C2334 C 0.97537 0.55139 0.50549 0.0
C2335 C 0.1414 0.46772 0.46615 0.0
C2336 C 0.18585 0.5418 0.52564 0.0
C2337 C 0.20893 0.57833 0.54247 0.0
C2338 C 0.18791 0.56525 0.55238 0.0
C2339 C 0.16593 0.52839 0.5357 0.0
C2340 C 0.20658 0.56719 0.52895 0.0
C2341 C 0.16635 0.5407 0.54894 0.0
C2342 C 0.16823 0.54227 0.47221 0.0
C2343 C 0.18715 0.52843 0.51183 0.0
H2344 H 0.09559 0.44294 0.41523 0.0
H2345 H 0.10227 0.5392 0.43062 0.0
H2346 H 0.11435 0.49872 0.41286 0.0
H2347 H 1.04727 0.46896 0.45275 0.0
H2348 H 0.18917 0.57265 0.56294 0.0
H2349 H 0.1506 0.50811 0.53338 0.0
H2350 H 0.22185 0.57727 0.52103 0.0
H2351 H 0.15086 0.5303 0.55668 0.0
Eu2352 Eu 0.34514 0.77102 0.39501 0.0
C2353 C 0.43939 0.66433 0.36398 0.0
N2354 N 0.41911 0.68905 0.36126 0.0
C2355 C 0.44967 0.70128 0.34099 0.0
C2356 C 0.46607 0.65744 0.35544 0.0
C2357 C 0.42359 0.70711 0.34975 0.0
C2358 C 0.47121 0.67652 0.34391 0.0
C2359 C 0.45264 0.61849 0.37805 0.0
C2360 C 0.43276 0.6452 0.37508 0.0
C2361 C 0.47971 0.61202 0.36983 0.0
C2362 C 0.48641 0.63147 0.35854 0.0
Eu2363 Eu 0.37691 0.6999 0.37725 0.0
N2364 N 0.40626 0.65203 0.38271 0.0
C2365 C 0.44448 0.59878 0.38908 0.0
C2366 C 0.39781 0.63216 0.39328 0.0
C2367 C 0.41679 0.60553 0.39665 0.0
H2368 H 0.40737 0.72624 0.34715 0.0
H2369 H 0.40999 0.59023 0.40512 0.0
H2370 H 0.2675 0.75678 0.38836 0.0
H2371 H 0.40976 0.88615 0.39393 0.0
H2372 H 0.37663 0.6365 0.39936 0.0
H2373 H 0.4591 0.57809 0.39169 0.0
H2374 H 0.39997 0.82989 0.40076 0.0
H2375 H 0.45311 0.71593 0.33198 0.0
H2376 H 0.49532 0.59176 0.37201 0.0
H2377 H 0.5071 0.62596 0.35215 0.0
H2378 H 0.22079 0.78458 0.37805 0.0
H2379 H 0.49138 0.67202 0.3371 0.0
H2380 H 0.3689 0.91552 0.38053 0.0
N2381 N 0.29974 0.79579 0.38489 0.0
C2382 C 0.30304 0.82695 0.38093 0.0
C2383 C 0.24387 0.79666 0.37868 0.0
C2384 C 0.27722 0.84366 0.3749 0.0
C2385 C 0.27026 0.78101 0.38451 0.0
C2386 C 0.24749 0.82795 0.37365 0.0
N2387 N 0.35533 0.82622 0.39024 0.0
C2388 C 0.38254 0.8419 0.3944 0.0
C2389 C 0.33608 0.87499 0.37972 0.0
C2390 C 0.33197 0.84241 0.38344 0.0
C2391 C 0.36481 0.89053 0.38322 0.0
C2392 C 0.38794 0.87402 0.39076 0.0
H2393 H 0.22703 0.84 0.36911 0.0
H2394 H 0.26222 0.88881 0.36586 0.0
H2395 H 0.31388 0.91621 0.36999 0.0
O2396 O 0.34 0.80428 0.4123 0.0
O2397 O 0.32695 0.76727 0.37266 0.0
O2398 O 0.37153 0.7463 0.36329 0.0
O2399 O 0.31428 0.75905 0.41223 0.0
O2400 O 0.40319 0.77788 0.39018 0.0
O2401 O 0.42289 0.73337 0.37863 0.0
O2402 O 0.32719 0.70242 0.37022 0.0
O2403 O 0.38165 0.69837 0.40013 0.0
O2404 O 0.38924 0.7511 0.40491 0.0
O2405 O 0.35838 0.66273 0.36377 0.0
O2406 O 0.34308 0.68044 0.3955 0.0
O2407 O 0.31263 0.72461 0.40088 0.0
C2408 C 0.34499 0.76385 0.3617 0.0
C2409 C 0.33386 0.77559 0.43325 0.0
C2410 C 0.37642 0.77348 0.45028 0.0
C2411 C 0.35646 0.7545 0.45865 0.0
C2412 C 0.3141 0.75683 0.44178 0.0
C2413 C 0.32544 0.74626 0.45439 0.0
C2414 C 0.36488 0.78379 0.43756 0.0
C2415 C 0.4285 0.76238 0.38408 0.0
C2416 C 0.32294 0.78383 0.41943 0.0
C2417 C 0.28163 0.87568 0.37067 0.0
C2418 C 0.31105 0.89127 0.37303 0.0
C2419 C 0.39094 0.72106 0.40844 0.0
C2420 C 0.3171 0.67836 0.34879 0.0
C2421 C 0.28115 0.65551 0.33171 0.0
C2422 C 0.29493 0.67632 0.32192 0.0
C2423 C 0.33126 0.69795 0.33883 0.0
C2424 C 0.29158 0.65795 0.34531 0.0
C2425 C 0.31955 0.69762 0.32554 0.0
C2426 C 0.31728 0.69263 0.40209 0.0
C2427 C 0.33021 0.67665 0.3626 0.0
H2428 H 0.36469 0.74636 0.46851 0.0
H2429 H 0.29017 0.74979 0.43856 0.0
H2430 H 0.31018 0.73158 0.46086 0.0
H2431 H 0.37979 0.79888 0.4311 0.0
H2432 H 0.28813 0.67502 0.31131 0.0
H2433 H 0.35176 0.71286 0.34125 0.0
H2434 H 0.28098 0.64286 0.35315 0.0
H2435 H 0.33055 0.71288 0.31787 0.0
Eu2436 Eu 0.09322 0.59271 0.14512 0.0
C2437 C 0.20449 0.68233 0.11432 0.0
N2438 N 0.18086 0.66112 0.1112 0.0
C2439 C 0.17492 0.68599 0.08925 0.0
C2440 C 0.21391 0.70676 0.10511 0.0
C2441 C 0.16657 0.66222 0.09871 0.0
C2442 C 0.19847 0.70864 0.09251 0.0
C2443 C 0.24597 0.69931 0.12993 0.0
C2444 C 0.2202 0.67861 0.12648 0.0
C2445 C 0.2548 0.72436 0.12105 0.0
C2446 C 0.23878 0.72808 0.10865 0.0
Eu2447 Eu 0.16434 0.62346 0.12814 0.0
N2448 N 0.21115 0.6539 0.13469 0.0
C2449 C 0.26249 0.69391 0.14207 0.0
C2450 C 0.22817 0.64802 0.14637 0.0
C2451 C 0.25371 0.66795 0.15025 0.0
H2452 H 0.14873 0.64482 0.09589 0.0
H2453 H 0.2666 0.66323 0.1596 0.0
H2454 H 0.12323 0.51868 0.13692 0.0
H2455 H 0.97214 0.64165 0.13741 0.0
H2456 H 0.22235 0.62827 0.153 0.0
H2457 H 0.28234 0.70927 0.1451 0.0
H2458 H 1.02885 0.64301 0.14447 0.0
H2459 H 0.1632 0.68677 0.07943 0.0
H2460 H 0.27435 0.7406 0.12358 0.0
H2461 H 0.24618 0.74712 0.10176 0.0
H2462 H 0.10285 0.46674 0.12858 0.0
H2463 H 0.20499 0.727 0.08516 0.0
H2464 H 0.94878 0.59142 0.12816 0.0
N2465 N 0.0777 0.54234 0.13577 0.0
C2466 C 1.04585 0.53947 0.13258 0.0
C2467 C 0.08659 0.48699 0.12968 0.0
C2468 C 1.0334 0.51013 0.12756 0.0
C2469 C 0.09802 0.51653 0.13452 0.0
C2470 C 1.05418 0.48375 0.1262 0.0
N2471 N 1.03843 0.59453 0.13859 0.0
C2472 C 1.01945 0.62124 0.14003 0.0
C2473 C 0.99331 0.56451 0.1298 0.0
C2474 C 1.02597 0.56647 0.13368 0.0
C2475 C 0.97395 0.59199 0.13104 0.0
C2476 C 0.98706 0.62042 0.13622 0.0
H2477 H 1.04551 0.46085 0.12236 0.0
H2478 H 0.99096 0.48586 0.11986 0.0
H2479 H 0.95592 0.53339 0.12182 0.0
O2480 O 1.05424 0.58401 0.15967 0.0
O2481 O 0.09443 0.57706 0.12236 0.0
O2482 O 0.11874 0.62076 0.11354 0.0
O2483 O 0.10356 0.57639 0.16582 0.0
O2484 O 0.08466 0.64994 0.13952 0.0
O2485 O 0.13022 0.66952 0.12862 0.0
O2486 O 0.20119 0.60037 0.11567 0.0
O2487 O 0.16347 0.62898 0.15097 0.0
O2488 O 0.11086 0.63864 0.15416 0.0
O2489 O 0.15858 0.57318 0.1221 0.0
O2490 O 0.18372 0.59025 0.14647 0.0
O2491 O 0.13913 0.56048 0.15209 0.0
C2492 C 0.09911 0.59569 0.1117 0.0
C2493 C 0.06966 0.60418 0.1809 0.0
C2494 C 1.05303 0.65832 0.18778 0.0
C2495 C 0.05939 0.64988 0.20144 0.0
C2496 C 0.07598 0.59623 0.19445 0.0
C2497 C 0.07131 0.61928 0.20467 0.0
C2498 C 0.05988 0.63553 0.17762 0.0
C2499 C 0.10043 0.67513 0.1335 0.0
C2500 C 0.0739 0.58067 0.16986 0.0
C2501 C 1.00087 0.50818 0.12377 0.0
C2502 C 0.98093 0.53528 0.12485 0.0
C2503 C 0.14015 0.64 0.15854 0.0
C2504 C 0.18501 0.55713 0.10169 0.0
C2505 C 0.21035 0.51938 0.08581 0.0
C2506 C 0.18931 0.53028 0.07555 0.0
C2507 C 0.16537 0.56848 0.09123 0.0
C2508 C 0.20677 0.53206 0.09906 0.0
C2509 C 0.16677 0.55443 0.07833 0.0
C2510 C 0.17125 0.56484 0.15321 0.0
C2511 C 0.18551 0.573 0.11504 0.0
H2512 H 1.05398 0.66617 0.20976 0.0
H2513 H 0.08437 0.57234 0.19711 0.0
H2514 H 0.07593 0.61309 0.21519 0.0
H2515 H 0.05674 0.64176 0.16703 0.0
H2516 H 0.19144 0.52176 0.06515 0.0
H2517 H 0.14978 0.58874 0.09296 0.0
H2518 H 0.22207 0.52374 0.10725 0.0
H2519 H 0.15145 0.56337 0.07028 0.0
Eu2520 Eu 0.26578 0.34417 0.89414 0.0
C2521 C 0.16791 0.44905 0.86581 0.0
N2522 N 0.18867 0.42498 0.86258 0.0
C2523 C 0.15691 0.41186 0.84293 0.0
C2524 C 0.14033 0.45511 0.85786 0.0
C2525 C 0.18393 0.40688 0.85111 0.0
C2526 C 0.13482 0.43589 0.84639 0.0
C2527 C 0.15463 0.49449 0.88026 0.0
C2528 C 0.17498 0.4684 0.87682 0.0
C2529 C 0.12664 0.50011 0.87264 0.0
C2530 C 0.1195 0.48044 0.86145 0.0
Eu2531 Eu 0.23266 0.41579 0.87752 0.0
N2532 N 0.20239 0.46245 0.88384 0.0
C2533 C 0.16328 0.5145 0.89111 0.0
C2534 C 0.21134 0.4826 0.89421 0.0
C2535 C 0.19191 0.50865 0.89804 0.0
H2536 H 0.20064 0.38823 0.84821 0.0
H2537 H 0.19908 0.52423 0.90635 0.0
H2538 H 0.34381 0.3661 0.89102 0.0
H2539 H 0.20908 0.22844 0.88133 0.0
H2540 H 0.23332 0.47885 0.89972 0.0
H2541 H 0.14831 0.53476 0.89408 0.0
H2542 H 0.21284 0.28115 0.89245 0.0
H2543 H 0.15315 0.39714 0.83396 0.0
H2544 H 0.11064 0.5199 0.87519 0.0
H2545 H 0.0981 0.48533 0.85552 0.0
H2546 H 0.39415 0.34495 0.88099 0.0
H2547 H 0.11393 0.43976 0.84002 0.0
H2548 H 0.25561 0.20676 0.86841 0.0
N2549 N 0.31525 0.32635 0.88453 0.0
C2550 C 0.31505 0.2967 0.87855 0.0
C2551 C 0.37204 0.33125 0.88016 0.0
C2552 C 0.34333 0.28386 0.87259 0.0
C2553 C 0.34342 0.34317 0.88584 0.0
C2554 C 0.37194 0.30164 0.87339 0.0
N2555 N 0.25995 0.29153 0.88482 0.0
C2556 C 0.23282 0.2731 0.88629 0.0
C2557 C 0.28566 0.24842 0.87226 0.0
C2558 C 0.28647 0.27921 0.87841 0.0
C2559 C 0.25716 0.23048 0.873 0.0
C2560 C 0.23082 0.24268 0.88023 0.0
H2561 H 0.39414 0.29256 0.86895 0.0
H2562 H 0.36363 0.24366 0.86133 0.0
H2563 H 0.31316 0.21264 0.86103 0.0
O2564 O 0.27449 0.30313 0.90749 0.0
O2565 O 0.28635 0.35406 0.87256 0.0
O2566 O 0.2399 0.36941 0.86358 0.0
O2567 O 0.28416 0.35123 0.91473 0.0
O2568 O 0.20775 0.33635 0.8892 0.0
O2569 O 0.18704 0.38155 0.8787 0.0
O2570 O 0.28184 0.41782 0.86967 0.0
O2571 O 0.22843 0.41632 0.90052 0.0
O2572 O 0.22059 0.36325 0.90353 0.0
O2573 O 0.24673 0.4537 0.86327 0.0
O2574 O 0.26759 0.4348 0.8955 0.0
O2575 O 0.29669 0.39023 0.90177 0.0
C2576 C 0.26787 0.3544 0.86178 0.0
C2577 C 0.25574 0.31695 0.92923 0.0
C2578 C 0.20163 0.30053 0.93611 0.0
C2579 C 0.21029 0.30586 0.94983 0.0
C2580 C 0.26409 0.32216 0.94284 0.0
C2581 C 0.24109 0.31725 0.9531 0.0
C2582 C 0.22408 0.3083 0.92596 0.0
C2583 C 0.18198 0.35186 0.88353 0.0
C2584 C 0.279 0.32141 0.91811 0.0
C2585 C 0.34224 0.25373 0.86609 0.0
C2586 C 0.31347 0.23611 0.86589 0.0
C2587 C 0.21941 0.39237 0.90824 0.0
C2588 C 0.28828 0.43976 0.84768 0.0
C2589 C 0.32553 0.45868 0.83004 0.0
C2590 C 0.31506 0.43344 0.82152 0.0
C2591 C 0.27653 0.41643 0.83867 0.0
C2592 C 0.31238 0.46103 0.8433 0.0
C2593 C 0.29047 0.41272 0.82578 0.0
C2594 C 0.29247 0.4224 0.90259 0.0
C2595 C 0.27592 0.44231 0.8617 0.0
H2596 H 0.19409 0.29983 0.95812 0.0
H2597 H 0.28819 0.3299 0.9455 0.0
H2598 H 0.24753 0.32104 0.96366 0.0
H2599 H 0.21741 0.3062 0.91537 0.0
H2600 H 0.32511 0.43026 0.8114 0.0
H2601 H 0.25661 0.4012 0.84158 0.0
H2602 H 0.31972 0.48022 0.8501 0.0
H2603 H 0.2818 0.39412 0.81898 0.0
Eu2604 Eu 0.52202 0.51964 0.6459 0.0
C2605 C 0.40587 0.43093 0.61281 0.0
N2606 N 0.43445 0.44661 0.61161 0.0
C2607 C 0.44903 0.41251 0.59271 0.0
C2608 C 0.39774 0.40527 0.604 0.0
C2609 C 0.45594 0.43785 0.60164 0.0
C2610 C 0.41984 0.39606 0.59391 0.0
C2611 C 0.35386 0.4263 0.62398 0.0
C2612 C 0.38435 0.44113 0.62265 0.0
C2613 C 0.34582 0.4004 0.61542 0.0
C2614 C 0.36775 0.38988 0.60545 0.0
Eu2615 Eu 0.44508 0.48842 0.62767 0.0
N2616 N 0.39281 0.46631 0.63067 0.0
C2617 C 0.33219 0.43831 0.63372 0.0
C2618 C 0.37138 0.47873 0.63991 0.0
C2619 C 0.34093 0.46481 0.64165 0.0
H2620 H 0.47883 0.44978 0.60056 0.0
H2621 H 0.32421 0.47458 0.6491 0.0
H2622 H 0.48671 0.59337 0.64295 0.0
H2623 H 0.63661 0.47763 0.62459 0.0
H2624 H 0.37775 0.49927 0.64605 0.0
H2625 H 0.30854 0.42761 0.63505 0.0
H2626 H 0.58264 0.47157 0.63468 0.0
H2627 H 0.4663 0.40563 0.58492 0.0
H2628 H 0.3226 0.38861 0.61632 0.0
H2629 H 0.36114 0.37008 0.59881 0.0
H2630 H 0.50314 0.64856 0.6371 0.0
H2631 H 0.41454 0.37647 0.58696 0.0
H2632 H 0.65755 0.5318 0.61899 0.0
N2633 N 0.53251 0.57278 0.6383 0.0
C2634 C 0.56304 0.57817 0.6336 0.0
C2635 C 0.52024 0.62898 0.63612 0.0
C2636 C 0.57331 0.60944 0.63004 0.0
C2637 C 0.51103 0.59755 0.63949 0.0
C2638 C 0.55157 0.63501 0.63151 0.0
N2639 N 0.57186 0.5217 0.63411 0.0
C2640 C 0.59075 0.49528 0.63187 0.0
C2641 C 0.6142 0.55636 0.62569 0.0
C2642 C 0.58316 0.55182 0.63131 0.0
C2643 C 0.63351 0.5293 0.62324 0.0
C2644 C 0.62169 0.49866 0.62631 0.0
H2645 H 0.55853 0.65939 0.62886 0.0
H2646 H 0.6129 0.63798 0.62207 0.0
H2647 H 0.64877 0.59157 0.61839 0.0
O2648 O 0.55305 0.49592 0.66048 0.0
O2649 O 0.52021 0.53619 0.62332 0.0
O2650 O 0.49132 0.49565 0.61334 0.0
O2651 O 0.53772 0.5446 0.66447 0.0
O2652 O 0.52803 0.46226 0.64094 0.0
O2653 O 0.48274 0.44391 0.62899 0.0
O2654 O 0.45019 0.53897 0.62186 0.0
O2655 O 0.43598 0.46968 0.64919 0.0
O2656 O 0.48128 0.48913 0.64597 0.0
O2657 O 0.41078 0.50946 0.61374 0.0
O2658 O 0.43 0.52635 0.64588 0.0
O2659 O 0.47634 0.54651 0.65639 0.0
C2660 C 0.51198 0.52041 0.61217 0.0
C2661 C 0.59344 0.53204 0.66683 0.0
C2662 C 0.64847 0.51405 0.66206 0.0
C2663 C 0.65784 0.54608 0.65975 0.0
C2664 C 0.60313 0.56406 0.6645 0.0
C2665 C 0.63525 0.57097 0.66111 0.0
C2666 C 0.61664 0.50761 0.66615 0.0
C2667 C 0.51182 0.43777 0.63467 0.0
C2668 C 0.55907 0.52245 0.66708 0.0
C2669 C 0.60452 0.61408 0.62477 0.0
C2670 C 0.62491 0.58763 0.62262 0.0
C2671 C 0.46286 0.4758 0.65497 0.0
C2672 C 0.42898 0.55213 0.60009 0.0
C2673 C 0.40688 0.58927 0.58331 0.0
C2674 C 0.427 0.5751 0.57331 0.0
C2675 C 0.44725 0.53718 0.58985 0.0
C2676 C 0.40979 0.57877 0.5969 0.0
C2677 C 0.44732 0.54951 0.57665 0.0
C2678 C 0.44372 0.54639 0.65521 0.0
C2679 C 0.42545 0.53744 0.61357 0.0
H2680 H 0.68239 0.55178 0.65682 0.0
H2681 H 0.58576 0.58353 0.66472 0.0
H2682 H 0.64244 0.59561 0.65915 0.0
H2683 H 0.60939 0.48302 0.66831 0.0
H2684 H 0.42548 0.58199 0.56271 0.0
H2685 H 0.46036 0.5153 0.59194 0.0
H2686 H 0.39525 0.58962 0.60489 0.0
H2687 H 0.4616 0.53792 0.56877 0.0
H2688 H 0.2931 0.45326 0.42466 0.0
H2689 H 0.23622 0.40454 0.39431 0.0
H2690 H 0.24531 0.48209 0.43241 0.0
H2691 H 0.18802 0.43208 0.40251 0.0
H2692 H 0.15459 0.51697 0.44898 0.0
H2693 H 0.18699 0.51345 0.42838 0.0
H2694 H 0.17799 0.40987 0.42934 0.0
H2695 H 0.14714 0.41354 0.45068 0.0
C2696 C 0.2709 0.45039 0.41902 0.0
C2697 C 0.26789 0.42598 0.40924 0.0
C2698 C 0.24341 0.46671 0.4235 0.0
C2699 C 0.21303 0.4583 0.41828 0.0
C2700 C 0.21121 0.4386 0.40673 0.0
C2701 C 0.23884 0.42302 0.40201 0.0
C2702 C 0.15921 0.49351 0.44477 0.0
C2703 C 0.14943 0.46548 0.45164 0.0
C2704 C 0.17715 0.49161 0.4328 0.0
C2705 C 0.18494 0.4615 0.42736 0.0
C2706 C 0.1718 0.43348 0.4333 0.0
C2707 C 0.15432 0.43546 0.4455 0.0
H2708 H 0.97549 0.95076 0.64831 0.0
H2709 H 0.90523 1.01127 0.66856 0.0
H2710 H 0.95008 0.90327 0.6581 0.0
H2711 H 0.87874 0.9637 0.67753 0.0
H2712 H 0.85534 0.8851 0.70343 0.0
H2713 H 0.86173 0.89678 0.67936 0.0
H2714 H 0.96212 0.91862 0.68602 0.0
H2715 H 0.95489 0.90988 0.71032 0.0
C2716 C 0.95343 0.95384 0.65413 0.0
C2717 C 0.94346 0.98471 0.65842 0.0
C2718 C 0.93863 0.92651 0.65954 0.0
C2719 C 0.91333 0.93009 0.66893 0.0
C2720 C 0.8986 0.96043 0.67042 0.0
C2721 C 0.91394 0.98785 0.66534 0.0
C2722 C 0.87893 0.89151 0.69982 0.0
C2723 C 0.90427 0.89812 0.70886 0.0
C2724 C 0.88267 0.89758 0.68591 0.0
C2725 C 0.91224 0.90887 0.68091 0.0
C2726 C 0.93901 0.90975 0.68962 0.0
C2727 C 0.93488 0.90503 0.70357 0.0
H2728 H 0.36459 0.71267 0.89872 0.0
H2729 H 0.31363 0.6818 0.93482 0.0
H2730 H 0.41148 0.68129 0.90551 0.0
H2731 H 0.35982 0.64894 0.94121 0.0
H2732 H 0.46014 0.70402 0.95458 0.0
H2733 H 0.42509 0.71039 0.9348 0.0
H2734 H 0.41896 0.60711 0.93055 0.0
H2735 H 0.45586 0.60088 0.94958 0.0
C2736 C 0.36256 0.6972 0.90754 0.0
C2737 C 0.33615 0.70036 0.91651 0.0
C2738 C 0.3894 0.67933 0.9114 0.0
C2739 C 0.38915 0.66338 0.92394 0.0
C2740 C 0.36029 0.66116 0.93146 0.0
C2741 C 0.33377 0.67982 0.92778 0.0
C2742 C 0.45314 0.68287 0.94882 0.0
C2743 C 0.46022 0.65203 0.95363 0.0
C2744 C 0.43304 0.68641 0.93757 0.0
C2745 C 0.4194 0.65911 0.93133 0.0
C2746 C 0.42946 0.62836 0.93517 0.0
C2747 C 0.45035 0.62491 0.94613 0.0
H2748 H 0.76456 0.20898 0.20603 0.0
H2749 H 0.66165 0.20998 0.21227 0.0
H2750 H 0.75751 0.19845 0.18219 0.0
H2751 H 0.65436 0.1994 0.18805 0.0
H2752 H 0.63867 0.16311 0.1502 0.0
H2753 H 0.66686 0.2075 0.16115 0.0
H2754 H 0.73303 0.1398 0.17914 0.0
H2755 H 0.70391 0.09547 0.16891 0.0
C2756 C 0.74042 0.20903 0.20233 0.0
C2757 C 0.71369 0.21026 0.21117 0.0
C2758 C 0.73641 0.20296 0.18848 0.0
C2759 C 0.70552 0.19792 0.18329 0.0
C2760 C 0.67857 0.20353 0.19176 0.0
C2761 C 0.68268 0.20923 0.20566 0.0
C2762 C 0.66023 0.15784 0.15595 0.0
C2763 C 0.66806 0.12585 0.1594 0.0
C2764 C 0.67647 0.18334 0.1621 0.0
C2765 C 0.70122 0.17686 0.17135 0.0
C2766 C 0.71366 0.14539 0.17217 0.0
C2767 C 0.69691 0.11983 0.1663 0.0
H2768 H 0.22119 0.74055 0.22117 0.0
H2769 H 0.28565 0.67272 0.20117 0.0
H2770 H 0.17711 0.7048 0.21771 0.0
H2771 H 0.24005 0.6382 0.19671 0.0
H2772 H 0.16244 0.59629 0.17662 0.0
H2773 H 0.18969 0.60864 0.19784 0.0
H2774 H 0.15893 0.70786 0.19421 0.0
H2775 H 0.13154 0.69498 0.17304 0.0
C2776 C 0.22685 0.71775 0.21643 0.0
C2777 C 0.25723 0.71115 0.21034 0.0
C2778 C 0.2009 0.69707 0.21445 0.0
C2779 C 0.20461 0.66994 0.20613 0.0
C2780 C 0.23604 0.6597 0.20276 0.0
C2781 C 0.26228 0.68004 0.20504 0.0
C2782 C 0.16081 0.62048 0.1806 0.0
C2783 C 0.1463 0.64512 0.17302 0.0
C2784 C 0.17611 0.62746 0.19283 0.0
C2785 C 0.17745 0.65935 0.19749 0.0
C2786 C 0.15859 0.68295 0.19091 0.0
C2787 C 0.14308 0.67581 0.17869 0.0
H2788 H 0.75136 0.90669 0.4273 0.0
H2789 H 0.6689 0.85658 0.41108 0.0
H2790 H 0.72434 0.91049 0.44924 0.0
H2791 H 0.642 0.86116 0.43277 0.0
H2792 H 0.5773 0.92996 0.44928 0.0
H2793 H 0.61798 0.88779 0.45269 0.0
H2794 H 0.69171 0.95435 0.43881 0.0
H2795 H 0.65141 0.99508 0.43531 0.0
C2796 C 0.72833 0.89483 0.42859 0.0
C2797 C 0.71134 0.883 0.41733 0.0
C2798 C 0.71295 0.89648 0.44128 0.0
C2799 C 0.67965 0.89011 0.44196 0.0
C2800 C 0.66684 0.86909 0.43213 0.0
C2801 C 0.68215 0.8668 0.41949 0.0
C2802 C 0.60239 0.93522 0.44711 0.0
C2803 C 0.61137 0.96481 0.44129 0.0
C2804 C 0.62567 0.91145 0.44933 0.0
C2805 C 0.65811 0.91723 0.44582 0.0
C2806 C 0.66712 0.94851 0.44162 0.0
C2807 C 0.64394 0.9718 0.4392 0.0
H2808 H 0.41792 0.49843 0.67222 0.0
H2809 H 0.51329 0.45742 0.67103 0.0
H2810 H 0.41548 0.49146 0.69638 0.0
H2811 H 0.51101 0.44949 0.69571 0.0
H2812 H 0.43522 0.36873 0.70675 0.0
H2813 H 0.47759 0.40535 0.70184 0.0
H2814 H 0.4235 0.48284 0.72041 0.0
H2815 H 0.38047 0.44509 0.72614 0.0
C2816 C 0.43917 0.48941 0.6773 0.0
C2817 C 0.46585 0.4786 0.6698 0.0
C2818 C 0.438 0.48559 0.69133 0.0
C2819 C 0.46261 0.46864 0.69804 0.0
C2820 C 0.49138 0.46209 0.69081 0.0
C2821 C 0.49278 0.46661 0.67667 0.0
C2822 C 0.43248 0.39305 0.71055 0.0
C2823 C 0.40302 0.40437 0.71593 0.0
C2824 C 0.45745 0.41442 0.70778 0.0
C2825 C 0.45254 0.44765 0.70957 0.0
C2826 C 0.42697 0.45753 0.71812 0.0
C2827 C 0.4019 0.43603 0.72108 0.0
H2828 H 0.9104 0.07509 0.95272 0.0
H2829 H 0.96449 0.13489 0.9804 0.0
H2830 H 0.88077 0.12226 0.94512 0.0
H2831 H 0.93582 0.18229 0.97238 0.0
H2832 H 0.94802 0.21761 0.92354 0.0
H2833 H 0.95379 0.19022 0.94545 0.0
H2834 H 0.85038 0.18046 0.94854 0.0
H2835 H 0.84475 0.20912 0.92712 0.0
C2836 C 0.91451 0.09791 0.95781 0.0
C2837 C 0.94039 0.10169 0.96677 0.0
C2838 C 0.8976 0.12501 0.95345 0.0
C2839 C 0.90688 0.15587 0.95793 0.0
C2840 C 0.92856 0.15874 0.96873 0.0
C2841 C 0.94491 0.13157 0.9733 0.0
C2842 C 0.92659 0.21105 0.92927 0.0
C2843 C 0.89605 0.21443 0.92353 0.0
C2844 C 0.92977 0.19559 0.94182 0.0
C2845 C 0.90241 0.18302 0.94854 0.0
C2846 C 0.87172 0.18993 0.94353 0.0
C2847 C 0.8686 0.20585 0.93115 0.0
H2848 H 0.87272 0.66419 0.72392 0.0
H2849 H 0.93316 0.74204 0.70926 0.0
H2850 H 0.9147 0.62608 0.71737 0.0
H2851 H 0.9742 0.70487 0.70354 0.0
H2852 H 1.0038 0.6612 0.66872 0.0
H2853 H 1.00313 0.66357 0.69356 0.0
H2854 H 0.90689 0.62295 0.69346 0.0
H2855 H 0.90855 0.61998 0.66915 0.0
C2856 C 0.89506 0.67342 0.7197 0.0
C2857 C 0.89798 0.70597 0.71588 0.0
C2858 C 0.91951 0.6516 0.71626 0.0
C2859 C 0.94599 0.66222 0.7084 0.0
C2860 C 0.95295 0.69533 0.70856 0.0
C2861 C 0.92868 0.71713 0.71183 0.0
C2862 C 0.98366 0.65072 0.67415 0.0
C2863 C 0.95668 0.63955 0.66707 0.0
C2864 C 0.98298 0.6524 0.6884 0.0
C2865 C 0.95457 0.64452 0.69565 0.0
C2866 C 0.92929 0.62958 0.68849 0.0
C2867 C 0.92999 0.62811 0.67438 0.0
H2868 H 0.10434 0.16727 0.46271 0.0
H2869 H 0.06716 0.21783 0.4276 0.0
H2870 H 0.14857 0.20424 0.46392 0.0
H2871 H 0.11352 0.25306 0.42815 0.0
H2872 H 0.19898 0.27526 0.41374 0.0
H2873 H 0.16329 0.28245 0.43294 0.0
H2874 H 0.18438 0.18529 0.44592 0.0
H2875 H 0.22006 0.17836 0.42663 0.0
C2876 C 0.10442 0.18701 0.45556 0.0
C2877 C 0.08299 0.18809 0.44443 0.0
C2878 C 0.13018 0.20845 0.45633 0.0
C2879 C 0.13594 0.22982 0.44556 0.0
C2880 C 0.11069 0.23581 0.43634 0.0
C2881 C 0.08434 0.21495 0.43577 0.0
C2882 C 0.19775 0.25612 0.42104 0.0
C2883 C 0.21131 0.22574 0.41836 0.0
C2884 C 0.17708 0.26033 0.43218 0.0
C2885 C 0.16946 0.23394 0.4405 0.0
C2886 C 0.1888 0.20605 0.43951 0.0
C2887 C 0.20918 0.2018 0.42833 0.0
H2888 H 0.64962 0.41855 0.1511 0.0
H2889 H 0.6815 0.50551 0.17095 0.0
H2890 H 0.69723 0.39048 0.15927 0.0
H2891 H 0.73067 0.47916 0.17788 0.0
H2892 H 0.79716 0.41192 0.20123 0.0
H2893 H 0.75342 0.44405 0.19229 0.0
H2894 H 0.75115 0.38335 0.15631 0.0
H2895 H 0.79426 0.35088 0.16569 0.0
C2896 C 0.66709 0.43169 0.15707 0.0
C2897 C 0.66264 0.46428 0.16011 0.0
C2898 C 0.69466 0.41584 0.16161 0.0
C2899 C 0.7184 0.43262 0.16904 0.0
C2900 C 0.71303 0.46514 0.17236 0.0
C2901 C 0.68509 0.48053 0.16817 0.0
C2902 C 0.7883 0.40669 0.19109 0.0
C2903 C 0.79904 0.3794 0.18402 0.0
C2904 C 0.76293 0.42485 0.18597 0.0
C2905 C 0.74822 0.41618 0.17358 0.0
C2906 C 0.76129 0.39049 0.16597 0.0
C2907 C 0.78652 0.37228 0.17115 0.0
H2908 H 0.37749 0.9585 0.91847 0.0
H2909 H 0.40514 0.85866 0.92155 0.0
H2910 H 0.37345 0.96256 0.9427 0.0
H2911 H 0.40259 0.86281 0.94652 0.0
H2912 H 0.48085 0.93369 0.96484 0.0
H2913 H 0.44507 0.89271 0.95761 0.0
H2914 H 0.36354 0.9531 0.96715 0.0
H2915 H 0.39978 0.99501 0.97525 0.0
C2916 C 0.38172 0.93696 0.92442 0.0
C2917 C 0.39175 0.90828 0.91817 0.0
C2918 C 0.37892 0.93907 0.93845 0.0
C2919 C 0.38831 0.91312 0.94675 0.0
C2920 C 0.3953 0.88329 0.94045 0.0
C2921 C 0.39703 0.88092 0.92619 0.0
C2922 C 0.45543 0.93842 0.96621 0.0
C2923 C 0.44344 0.96941 0.96939 0.0
C2924 C 0.43449 0.91412 0.96211 0.0
C2925 C 0.40175 0.92128 0.96034 0.0
C2926 C 0.38915 0.94802 0.96745 0.0
C2927 C 0.41004 0.97249 0.97172 0.0
H2928 H 0.96888 0.30957 0.95186 0.0
H2929 H 0.92716 0.34524 0.91442 0.0
H2930 H 1.00564 0.35468 0.95177 0.0
H2931 H 0.96591 0.3877 0.91376 0.0
H2932 H 0.93285 0.46302 0.94878 0.0
H2933 H 0.9425 0.42437 0.93083 0.0
H2934 H 1.03674 0.40412 0.94728 0.0
H2935 H 1.02711 0.4431 0.96495 0.0
C2936 C 0.96812 0.32608 0.94334 0.0
C2937 C 0.94277 0.3251 0.9339 0.0
C2938 C 0.99002 0.35162 0.94305 0.0
C2939 C 0.98673 0.37618 0.93326 0.0
C2940 C 0.96776 0.36995 0.92181 0.0
C2941 C 0.94514 0.34519 0.9223 0.0
C2942 C 0.95635 0.45166 0.94811 0.0
C2943 C 0.97863 0.45538 0.95862 0.0
C2944 C 0.96216 0.42951 0.93771 0.0
C2945 C 0.98996 0.40995 0.93802 0.0
C2946 C 1.01478 0.41824 0.94699 0.0
C2947 C 1.00904 0.44076 0.9573 0.0
H2948 H 0.40649 0.09759 0.67011 0.0
H2949 H 0.47229 0.16008 0.64844 0.0
H2950 H 0.37869 0.14447 0.67918 0.0
H2951 H 0.44561 0.2069 0.65824 0.0
H2952 H 0.4538 0.20168 0.71078 0.0
H2953 H 0.46013 0.19108 0.68656 0.0
H2954 H 0.3597 0.21308 0.68024 0.0
H2955 H 0.3543 0.22705 0.70418 0.0
C2956 C 0.4138 0.12122 0.66658 0.0
C2957 C 0.44255 0.1253 0.6592 0.0
C2958 C 0.39773 0.14821 0.67172 0.0
C2959 C 0.41098 0.17908 0.66979 0.0
C2960 C 0.43527 0.18327 0.65999 0.0
C2961 C 0.45077 0.15634 0.65453 0.0
C2962 C 0.4336 0.20622 0.70409 0.0
C2963 C 0.40323 0.21379 0.70949 0.0
C2964 C 0.43721 0.20036 0.6902 0.0
C2965 C 0.41016 0.20077 0.68164 0.0
C2966 C 0.38082 0.21259 0.68667 0.0
C2967 C 0.37766 0.21995 0.70051 0.0
H2968 H 0.75762 0.65236 0.41721 0.0
H2969 H 0.6981 0.72374 0.39765 0.0
H2970 H 0.7099 0.62817 0.42725 0.0
H2971 H 0.65047 0.70061 0.40844 0.0
H2972 H 0.65856 0.70922 0.46015 0.0
H2973 H 0.66666 0.71395 0.43569 0.0
H2974 H 0.64425 0.6131 0.43071 0.0
H2975 H 0.634 0.60909 0.45497 0.0
C2976 C 0.73423 0.66169 0.41435 0.0
C2977 C 0.73159 0.69093 0.40732 0.0
C2978 C 0.70672 0.64772 0.42007 0.0
C2979 C 0.67683 0.66352 0.41905 0.0
C2980 C 0.67338 0.68838 0.40953 0.0
C2981 C 0.70077 0.7018 0.4035 0.0
C2982 C 0.65351 0.68855 0.45374 0.0
C2983 C 0.64654 0.65856 0.45954 0.0
C2984 C 0.65784 0.69126 0.4397 0.0
C2985 C 0.65642 0.66368 0.43137 0.0
C2986 C 0.64531 0.63467 0.43693 0.0
C2987 C 0.63981 0.63234 0.45094 0.0
H2988 H 0.23783 0.96546 0.20957 0.0
H2989 H 0.20737 0.86636 0.20789 0.0
H2990 H 0.24 0.96772 0.18519 0.0
H2991 H 0.21037 0.86773 0.18301 0.0
H2992 H 0.13079 0.9309 0.16378 0.0
H2993 H 0.16936 0.89292 0.17096 0.0
H2994 H 0.24634 0.95874 0.16109 0.0
H2995 H 0.20709 0.99761 0.15292 0.0
C2996 C 0.23279 0.94363 0.2039 0.0
C2997 C 0.22275 0.91558 0.21057 0.0
C2998 C 0.23457 0.94464 0.18978 0.0
C2999 C 0.22463 0.91802 0.18192 0.0
C3000 C 0.21786 0.88881 0.18869 0.0
C3001 C 0.21629 0.88784 0.20294 0.0
C3002 C 0.15574 0.93759 0.1624 0.0
C3003 C 0.16543 0.96932 0.15919 0.0
C3004 C 0.17842 0.915 0.1665 0.0
C3005 C 0.21053 0.92469 0.16829 0.0
C3006 C 0.22112 0.95191 0.16098 0.0
C3007 C 0.19848 0.97463 0.15665 0.0
H3008 H 0.6042 0.95592 0.95676 0.0
H3009 H 0.69978 0.99627 0.95864 0.0
H3010 H 0.60857 0.95327 0.9319 0.0
H3011 H 0.70429 0.99439 0.93437 0.0
H3012 H 0.73981 0.96055 0.9022 0.0
H3013 H 0.69605 0.99536 0.90989 0.0
H3014 H 0.64239 0.91188 0.92305 0.0
H3015 H 0.68528 0.87783 0.91628 0.0
C3016 C 0.6252 0.96611 0.95183 0.0
C3017 C 0.65135 0.97687 0.95956 0.0
C3018 C 0.62783 0.96454 0.93759 0.0
C3019 C 0.65699 0.97304 0.93103 0.0
C3020 C 0.68134 0.98761 0.93883 0.0
C3021 C 0.67896 0.98841 0.95291 0.0
C3022 C 0.71837 0.94954 0.90647 0.0
C3023 C 0.71768 0.91651 0.9097 0.0
C3024 C 0.69285 0.96949 0.91055 0.0
C3025 C 0.66724 0.95652 0.91827 0.0
C3026 C 0.66263 0.92305 0.91787 0.0
C3027 C 0.68802 0.90315 0.914 0.0
H3028 H 0.42401 0.33449 0.21482 0.0
H3029 H 0.38524 0.42288 0.19874 0.0
H3030 H 0.4597 0.32984 0.1955 0.0
H3031 H 0.42139 0.41871 0.17947 0.0
H3032 H 0.50063 0.45112 0.1644 0.0
H3033 H 0.46358 0.40648 0.16307 0.0
H3034 H 0.50144 0.36897 0.20078 0.0
H3035 H 0.53985 0.41262 0.20173 0.0
C3036 C 0.42135 0.35183 0.20678 0.0
C3037 C 0.4026 0.37972 0.20852 0.0
C3038 C 0.44206 0.3491 0.19558 0.0
C3039 C 0.44517 0.37507 0.18652 0.0
C3040 C 0.42078 0.39877 0.18656 0.0
C3041 C 0.40006 0.40148 0.19773 0.0
C3042 C 0.50251 0.43249 0.17205 0.0
C3043 C 0.52197 0.43648 0.18368 0.0
C3044 C 0.48116 0.40664 0.17119 0.0
C3045 C 0.47793 0.38552 0.18226 0.0
C3046 C 0.50222 0.38555 0.19227 0.0
C3047 C 0.52392 0.41112 0.19304 0.0
H3048 H 0.96823 0.19685 0.45311 0.0
H3049 H 0.9566 0.09392 0.4499 0.0
H3050 H 0.94061 0.20331 0.43133 0.0
H3051 H 0.92773 0.10027 0.42859 0.0
H3052 H 0.82409 0.16315 0.42463 0.0
H3053 H 0.87051 0.13217 0.43208 0.0
H3054 H 0.9318 0.18567 0.40455 0.0
H3055 H 0.88514 0.21577 0.39673 0.0
C3056 C 0.96093 0.17561 0.44747 0.0
C3057 C 0.96352 0.14503 0.45328 0.0
C3058 C 0.94533 0.17917 0.435 0.0
C3059 C 0.93183 0.15217 0.42842 0.0
C3060 C 0.93791 0.12133 0.43349 0.0
C3061 C 0.95397 0.11782 0.4458 0.0
C3062 C 0.84697 0.16666 0.41946 0.0
C3063 C 0.85138 0.19249 0.41048 0.0
C3064 C 0.87365 0.14897 0.42373 0.0
C3065 C 0.90471 0.1574 0.41912 0.0
C3066 C 0.90808 0.17906 0.4083 0.0
C3067 C 0.88133 0.19623 0.40384 0.0
H3068 H 0.20358 0.62305 0.65235 0.0
H3069 H 0.12382 0.6805 0.66753 0.0
H3070 H 0.24061 0.66498 0.65986 0.0
H3071 H 0.15999 0.72175 0.67408 0.0
H3072 H 0.20814 0.76191 0.70575 0.0
H3073 H 0.20415 0.75563 0.68097 0.0
H3074 H 0.24121 0.65854 0.68454 0.0
H3075 H 0.24365 0.66461 0.70873 0.0
C3076 C 0.1937 0.64479 0.65683 0.0
C3077 C 0.16076 0.64692 0.66026 0.0
C3078 C 0.21493 0.66924 0.66081 0.0
C3079 C 0.20338 0.6955 0.66854 0.0
C3080 C 0.17005 0.70123 0.66871 0.0
C3081 C 0.14892 0.67684 0.66496 0.0
C3082 C 0.21688 0.73998 0.70105 0.0
C3083 C 0.2261 0.71374 0.70908 0.0
C3084 C 0.21476 0.73635 0.68687 0.0
C3085 C 0.22153 0.7063 0.68072 0.0
C3086 C 0.23554 0.68205 0.68872 0.0
C3087 C 0.23666 0.68534 0.70276 0.0
H3088 H 0.6025 0.15997 0.67135 0.0
H3089 H 0.70166 0.12916 0.67015 0.0
H3090 H 0.60372 0.15929 0.69632 0.0
H3091 H 0.7031 0.12749 0.69449 0.0
H3092 H 0.73351 0.15686 0.72628 0.0
H3093 H 0.69078 0.12062 0.71904 0.0
H3094 H 0.63305 0.20205 0.7073 0.0
H3095 H 0.67501 0.23776 0.71356 0.0
C3096 C 0.6239 0.15139 0.67641 0.0
C3097 C 0.65189 0.14452 0.6689 0.0
C3098 C 0.62464 0.15087 0.69069 0.0
C3099 C 0.65359 0.14382 0.69755 0.0
C3100 C 0.68021 0.13307 0.68981 0.0
C3101 C 0.67965 0.13448 0.67571 0.0
C3102 C 0.71143 0.16716 0.72241 0.0
C3103 C 0.70947 0.20012 0.71911 0.0
C3104 C 0.68643 0.14635 0.71866 0.0
C3105 C 0.66049 0.15854 0.71105 0.0
C3106 C 0.65408 0.19164 0.71208 0.0
C3107 C 0.67893 0.21251 0.7156 0.0
H3108 H 0.26862 0.40365 0.92579 0.0
H3109 H 0.16555 0.39148 0.92403 0.0
H3110 H 0.26441 0.42488 0.94867 0.0
H3111 H 0.16102 0.41289 0.94719 0.0
H3112 H 0.14761 0.46455 0.98192 0.0
H3113 H 0.17567 0.41774 0.97281 0.0
H3114 H 0.23882 0.48069 0.94996 0.0
H3115 H 0.21022 0.52725 0.95873 0.0
C3116 C 0.24509 0.40486 0.93038 0.0
C3117 C 0.21724 0.39729 0.92298 0.0
C3118 C 0.2428 0.41647 0.94363 0.0
C3119 C 0.21247 0.421 0.94962 0.0
C3120 C 0.18485 0.4095 0.94284 0.0
C3121 C 0.18726 0.39772 0.92953 0.0
C3122 C 0.16868 0.46841 0.97557 0.0
C3123 C 0.17589 0.49928 0.97046 0.0
C3124 C 0.18474 0.44156 0.97039 0.0
C3125 C 0.20839 0.44566 0.9603 0.0
C3126 C 0.22026 0.47682 0.95761 0.0
C3127 C 0.20387 0.50366 0.96263 0.0
H3128 H 0.94696 0.90561 0.16842 0.0
H3129 H 0.98667 1.00099 0.17281 0.0
H3130 H 0.93638 0.90407 0.19279 0.0
H3131 H 0.97298 1.00087 0.19689 0.0
H3132 H 0.90792 0.89985 0.2312 0.0
H3133 H 0.9571 0.92033 0.22078 0.0
H3134 H 0.9016 0.99108 0.19898 0.0
H3135 H 0.85222 0.96933 0.20868 0.0
C3136 C 0.95455 0.92581 0.17464 0.0
C3137 C 0.96631 0.95399 0.16858 0.0
C3138 C 0.94871 0.9249 0.18862 0.0
C3139 C 0.95347 0.95263 0.19662 0.0
C3140 C 0.96915 0.97926 0.19091 0.0
C3141 C 0.97641 0.97948 0.17699 0.0
C3142 C 0.90638 0.92109 0.22483 0.0
C3143 C 0.8763 0.93184 0.22006 0.0
C3144 C 0.93469 0.933 0.219 0.0
C3145 C 0.93278 0.9563 0.20873 0.0
C3146 C 0.90349 0.97267 0.20677 0.0
C3147 C 0.87506 0.96012 0.21229 0.0
H3148 H 0.41727 0.57537 0.45472 0.0
H3149 H 0.46903 0.64199 0.48036 0.0
H3150 H 0.38503 0.61953 0.44608 0.0
H3151 H 0.43739 0.68645 0.4714 0.0
H3152 H 0.44541 0.72324 0.42369 0.0
H3153 H 0.45301 0.69627 0.44561 0.0
H3154 H 0.35162 0.67258 0.44701 0.0
H3155 H 0.34413 0.70089 0.42562 0.0
C3156 C 0.42042 0.59909 0.45914 0.0
C3157 C 0.44638 0.60558 0.46778 0.0
C3158 C 0.40198 0.62451 0.45418 0.0
C3159 C 0.40969 0.65643 0.45777 0.0
C3160 C 0.43149 0.66206 0.46834 0.0
C3161 C 0.44952 0.63658 0.47347 0.0
C3162 C 0.42469 0.71334 0.429 0.0
C3163 C 0.39445 0.71284 0.42282 0.0
C3164 C 0.42884 0.69818 0.44156 0.0
C3165 C 0.40282 0.68205 0.44787 0.0
C3166 C 0.37203 0.68455 0.44228 0.0
C3167 C 0.36791 0.70009 0.42989 0.0
H3168 H 0.40973 0.21591 0.23224 0.0
H3169 H 0.35439 0.14644 0.20943 0.0
H3170 H 0.45913 0.195 0.22216 0.0
H3171 H 0.40393 0.12438 0.20002 0.0
H3172 H 0.48689 0.11412 0.17354 0.0
H3173 H 0.47374 0.11375 0.19768 0.0
H3174 H 0.44075 0.21203 0.19455 0.0
H3175 H 0.45086 0.21107 0.17014 0.0
C3176 C 0.40828 0.19461 0.22588 0.0
C3177 C 0.37829 0.18395 0.22093 0.0
C3178 C 0.4367 0.18244 0.22023 0.0
C3179 C 0.43501 0.15911 0.20993 0.0
C3180 C 0.4057 0.14285 0.20782 0.0
C3181 C 0.37716 0.1556 0.21317 0.0
C3182 C 0.47767 0.13583 0.17796 0.0
C3183 C 0.46835 0.16199 0.16983 0.0
C3184 C 0.47068 0.13576 0.19191 0.0
C3185 C 0.45603 0.16269 0.1979 0.0
C3186 C 0.45226 0.19093 0.19017 0.0
C3187 C 0.45781 0.19036 0.17617 0.0
H3188 H 0.56156 0.7164 0.92422 0.0
H3189 H 0.59844 0.67129 0.9607 0.0
H3190 H 0.6075 0.752 0.92405 0.0
H3191 H 0.64206 0.70895 0.96126 0.0
H3192 H 0.72094 0.68336 0.92729 0.0
H3193 H 0.68117 0.69077 0.94511 0.0
H3194 H 0.65454 0.78269 0.92788 0.0
H3195 H 0.69163 0.77371 0.90964 0.0
C3196 C 0.57858 0.71484 0.93252 0.0
C3197 C 0.57722 0.68935 0.94187 0.0
C3198 C 0.60475 0.73593 0.93266 0.0
C3199 C 0.62974 0.73166 0.94219 0.0
C3200 C 0.62397 0.71171 0.95342 0.0
C3201 C 0.59846 0.68998 0.95307 0.0
C3202 C 0.70766 0.70585 0.9277 0.0
C3203 C 0.70957 0.7277 0.9169 0.0
C3204 C 0.68492 0.71044 0.93804 0.0
C3205 C 0.66343 0.73679 0.93751 0.0
C3206 C 0.67003 0.76169 0.92832 0.0
C3207 C 0.69204 0.75661 0.91778 0.0
H3208 H 0.25919 0.96093 0.70574 0.0
H3209 H 0.20097 0.89246 0.72802 0.0
H3210 H 0.2106 0.98515 0.69662 0.0
H3211 H 0.15245 0.91563 0.71822 0.0
H3212 H 0.15398 0.9059 0.66602 0.0
H3213 H 0.16589 0.9011 0.69013 0.0
H3214 H 0.14223 1.0014 0.69607 0.0
H3215 H 0.12685 1.00513 0.67224 0.0
C3216 C 0.23602 0.9523 0.70936 0.0
C3217 C 0.23378 0.92389 0.71701 0.0
C3218 C 0.20806 0.9663 0.70418 0.0
C3219 C 0.178 0.95142 0.70639 0.0
C3220 C 0.17541 0.92726 0.71629 0.0
C3221 C 0.20328 0.91379 0.72174 0.0
C3222 C 0.14931 0.92635 0.67263 0.0
C3223 C 0.14098 0.95628 0.66714 0.0
C3224 C 0.15597 0.92362 0.68647 0.0
C3225 C 0.15557 0.95114 0.69484 0.0
C3226 C 0.1428 0.97993 0.68977 0.0
C3227 C 0.13458 0.98216 0.67601 0.0
H3228 H 1.05082 0.41665 0.4572 0.0
H3229 H 1.05114 0.41179 0.41311 0.0
H3230 H 1.00073 0.38594 0.45768 0.0
H3231 H 1.0045 0.37745 0.4139 0.0
H3232 H 0.91235 0.43996 0.42631 0.0
H3233 H 0.95735 0.42886 0.44133 0.0
H3234 H 0.96075 0.3309 0.42679 0.0
H3235 H 0.91483 0.34128 0.41269 0.0
C3236 C 1.04119 0.40796 0.44764 0.0
C3237 C 1.05322 0.41942 0.43504 0.0
C3238 C 1.01298 0.38959 0.44803 0.0
C3239 C 0.99833 0.38047 0.43581 0.0
C3240 C 1.01521 0.38473 0.42348 0.0
C3241 C 1.04217 0.40468 0.42303 0.0
C3242 C 0.92117 0.41543 0.42703 0.0
C3243 C 0.9108 0.39189 0.41778 0.0
C3244 C 0.94681 0.40894 0.43575 0.0
C3245 C 0.963 0.37924 0.43485 0.0
C3246 C 0.94873 0.35402 0.4276 0.0
C3247 C 0.92237 0.36028 0.41926 0.0
H3248 H 0.4217 0.94364 0.46135 0.0
H3249 H 0.52315 0.92114 0.46436 0.0
H3250 H 0.40959 0.88672 0.45867 0.0
H3251 H 0.51078 0.86367 0.46144 0.0
H3252 H 0.4334 0.78182 0.4363 0.0
H3253 H 0.47027 0.82638 0.44076 0.0
H3254 H 0.4261 0.8405 0.4802 0.0
H3255 H 0.38835 0.7972 0.47564 0.0
C3256 C 0.44141 0.92659 0.4613 0.0
C3257 C 0.47307 0.93658 0.46377 0.0
C3258 C 0.43452 0.89409 0.4598 0.0
C3259 C 0.45926 0.87114 0.46047 0.0
C3260 C 0.4914 0.88116 0.46126 0.0
C3261 C 0.49833 0.91394 0.46283 0.0
C3262 C 0.43254 0.79344 0.44618 0.0
C3263 C 0.40705 0.78711 0.45536 0.0
C3264 C 0.45386 0.81871 0.44875 0.0
C3265 C 0.45011 0.83707 0.46062 0.0
C3266 C 0.42895 0.8266 0.47091 0.0
C3267 C 0.40738 0.8017 0.46828 0.0
H3268 H 0.92156 0.7821 0.21454 0.0
H3269 H 0.89006 0.691 0.19819 0.0
H3270 H 0.96122 0.78684 0.19665 0.0
H3271 H 0.93012 0.69511 0.18041 0.0
H3272 H 1.01286 0.66944 0.16568 0.0
H3273 H 0.97082 0.70869 0.16454 0.0
H3274 H 1.00682 0.75386 0.2011 0.0
H3275 H 1.05165 0.71687 0.20139 0.0
C3276 C 0.92149 0.76399 0.2067 0.0
C3277 C 0.90335 0.73559 0.20804 0.0
C3278 C 0.94465 0.76666 0.19639 0.0
C3279 C 0.95038 0.74049 0.18762 0.0
C3280 C 0.9273 0.71552 0.1872 0.0
C3281 C 0.90419 0.71292 0.19749 0.0
C3282 C 1.0135 0.68865 0.1731 0.0
C3283 C 1.03488 0.68831 0.18427 0.0
C3284 C 0.98887 0.71136 0.1724 0.0
C3285 C 0.98391 0.73278 0.18326 0.0
C3286 C 1.00894 0.73679 0.19278 0.0
C3287 C 1.03438 0.71481 0.19321 0.0
H3288 H 0.14282 0.29711 0.94955 0.0
H3289 H 0.1929 0.25988 0.91398 0.0
H3290 H 0.10938 0.24946 0.94972 0.0
H3291 H 0.15766 0.21431 0.91356 0.0
H3292 H 0.1872 0.14447 0.95076 0.0
H3293 H 0.17918 0.18056 0.9318 0.0
H3294 H 0.08151 0.19857 0.94537 0.0
H3295 H 0.08995 0.16319 0.96431 0.0
C3296 C 0.14596 0.27964 0.94144 0.0
C3297 C 0.17241 0.28142 0.93247 0.0
C3298 C 0.1261 0.2525 0.9413 0.0
C3299 C 0.13262 0.22701 0.93217 0.0
C3300 C 0.15315 0.23296 0.92108 0.0
C3301 C 0.1736 0.25953 0.92141 0.0
C3302 C 0.16348 0.15481 0.94927 0.0
C3303 C 0.13959 0.15158 0.95929 0.0
C3304 C 0.1586 0.17538 0.93828 0.0
C3305 C 0.13001 0.19368 0.93746 0.0
C3306 C 0.10402 0.1854 0.94594 0.0
C3307 C 0.10895 0.16475 0.95691 0.0
H3308 H 0.70944 0.51131 0.6723 0.0
H3309 H 0.6392 0.45486 0.6504 0.0
H3310 H 0.73389 0.46209 0.68068 0.0
H3311 H 0.66262 0.40565 0.65949 0.0
H3312 H 0.65622 0.40361 0.71165 0.0
H3313 H 0.64986 0.41591 0.68764 0.0
H3314 H 0.7504 0.39475 0.68053 0.0
H3315 H 0.75579 0.37898 0.70423 0.0
C3316 C 0.70037 0.48843 0.66862 0.0
C3317 C 0.6715 0.48683 0.6613 0.0
C3318 C 0.71451 0.4601 0.67336 0.0
C3319 C 0.69933 0.43027 0.67107 0.0
C3320 C 0.67449 0.42842 0.66149 0.0
C3321 C 0.66087 0.45668 0.65646 0.0
C3322 C 0.67642 0.39953 0.7048 0.0
C3323 C 0.70687 0.39194 0.70995 0.0
C3324 C 0.6728 0.40641 0.69101 0.0
C3325 C 0.69993 0.407 0.68236 0.0
C3326 C 0.72924 0.39465 0.68705 0.0
C3327 C 0.73241 0.38626 0.70077 0.0
H3328 H 0.12084 0.23212 0.37827 0.0
H3329 H 0.1552 0.32569 0.38981 0.0
H3330 H 0.0651 0.25231 0.37853 0.0
H3331 H 0.09942 0.34625 0.38969 0.0
H3332 H 0.99277 0.38603 0.37998 0.0
H3333 H 1.04845 0.36577 0.38033 0.0
H3334 H 1.01309 0.27021 0.3879 0.0
H3335 H 0.95729 0.29081 0.38797 0.0
C3336 C 0.11717 0.25724 0.38084 0.0
C3337 C 0.14504 0.27638 0.38396 0.0
C3338 C 0.08402 0.26922 0.38104 0.0
C3339 C 0.07506 0.3019 0.3841 0.0
C3340 C 0.10303 0.32115 0.38712 0.0
C3341 C 0.13618 0.30897 0.3872 0.0
C3342 C 0.99619 0.36052 0.38175 0.0
C3343 C 0.96803 0.34094 0.38385 0.0
C3344 C 1.02931 0.34849 0.38201 0.0
C3345 C 1.03797 0.31536 0.38409 0.0
C3346 C 1.00973 0.29569 0.38611 0.0
C3347 C 0.97656 0.30789 0.38617 0.0
H3348 H 0.97384 0.74189 0.62678 0.0
H3349 H 0.06759 0.70583 0.63686 0.0
H3350 H 0.99483 0.7974 0.62723 0.0
H3351 H 0.0889 0.76126 0.63689 0.0
H3352 H 0.12962 0.86757 0.62718 0.0
H3353 H 0.10834 0.81228 0.62716 0.0
H3354 H 1.01432 0.84848 0.6374 0.0
H3355 H 1.03598 0.90387 0.63784 0.0
C3356 C 0.99914 0.74514 0.62905 0.0
C3357 C 1.0181 0.71692 0.63173 0.0
C3358 C 1.01159 0.77811 0.62937 0.0
C3359 C 1.04457 0.78645 0.63209 0.0
C3360 C 0.06361 0.75812 0.63461 0.0
C3361 C 1.05098 0.72518 0.63461 0.0
C3362 C 0.10427 0.86442 0.62949 0.0
C3363 C 0.08548 0.89265 0.63249 0.0
C3364 C 0.09165 0.83154 0.62953 0.0
C3365 C 0.05861 0.82327 0.63225 0.0
C3366 C 1.03967 0.8516 0.6351 0.0
C3367 C 1.0525 0.8845 0.63538 0.0
H3368 H 0.49924 0.88706 0.87581 0.0
H3369 H 0.46495 0.79606 0.89063 0.0
H3370 H 0.55488 0.86637 0.87583 0.0
H3371 H 0.52046 0.77494 0.89019 0.0
H3372 H 0.62619 0.73242 0.87959 0.0
H3373 H 0.57074 0.75342 0.88006 0.0
H3374 H 0.60738 0.84926 0.88554 0.0
H3375 H 0.66293 0.82797 0.88554 0.0
C3376 C 0.50287 0.86242 0.87907 0.0
C3377 C 0.475 0.84419 0.8832 0.0
C3378 C 0.53596 0.85015 0.87912 0.0
C3379 C 0.54487 0.81796 0.88297 0.0
C3380 C 0.51692 0.7996 0.88696 0.0
C3381 C 0.48388 0.81214 0.88724 0.0
C3382 C 0.62312 0.75814 0.88091 0.0
C3383 C 0.65159 0.77754 0.88241 0.0
C3384 C 0.59013 0.77062 0.88125 0.0
C3385 C 0.58187 0.80406 0.88281 0.0
C3386 C 0.61041 0.82356 0.88419 0.0
C3387 C 0.64344 0.81094 0.88419 0.0
H3388 H 0.57267 0.21782 0.1398 0.0
H3389 H 0.47846 0.25269 0.12975 0.0
H3390 H 0.59349 0.27356 0.13929 0.0
H3391 H 0.49888 0.30829 0.12971 0.0
H3392 H 0.53772 0.4153 0.13939 0.0
H3393 H 0.51759 0.35961 0.13955 0.0
H3394 H 0.61211 0.32535 0.12897 0.0
H3395 H 0.632 0.38127 0.1284 0.0
C3396 C 0.55583 0.23692 0.13748 0.0
C3397 C 0.52295 0.2282 0.13477 0.0
C3398 C 0.56817 0.27005 0.13716 0.0
C3399 C 0.54881 0.29813 0.13447 0.0
C3400 C 0.51589 0.28929 0.13195 0.0
C3401 C 0.50377 0.2562 0.13193 0.0
C3402 C 0.55475 0.39643 0.13696 0.0
C3403 C 0.58737 0.40546 0.13378 0.0
C3404 C 0.54277 0.36323 0.13704 0.0
C3405 C 0.56225 0.33525 0.13428 0.0
C3406 C 0.59501 0.34429 0.13129 0.0
C3407 C 0.60681 0.37755 0.1309 0.0
H3408 H 0.95381 0.83504 0.24037 0.0
H3409 H 0.99019 0.73933 0.24611 0.0
H3410 H 1.00935 0.85628 0.24087 0.0
H3411 H 1.04567 0.7603 0.24613 0.0
H3412 H 0.15172 0.80331 0.23631 0.0
H3413 H 0.0962 0.78217 0.23624 0.0
H3414 H 0.06132 0.87294 0.25129 0.0
H3415 H 0.11694 0.89362 0.25182 0.0
C3416 C 0.97323 0.81797 0.24175 0.0
C3417 C 0.96501 0.78455 0.2433 0.0
C3418 C 1.00624 0.83055 0.24206 0.0
C3419 C 1.03466 0.81099 0.24356 0.0
C3420 C 1.02634 0.77752 0.24488 0.0
C3421 C 0.99335 0.76507 0.24493 0.0
C3422 C 0.13267 0.81922 0.23976 0.0
C3423 C 0.14137 0.85108 0.24415 0.0
C3424 C 0.09965 0.80667 0.23973 0.0
C3425 C 0.07161 0.82487 0.24373 0.0
C3426 C 0.08035 0.85687 0.24795 0.0
C3427 C 0.11341 0.86914 0.2483 0.0
H3428 H 0.48385 0.87824 0.49714 0.0
H3429 H 0.57979 0.91392 0.4907 0.0
H3430 H 0.50405 0.82268 0.49663 0.0
H3431 H 0.60034 0.85805 0.49061 0.0
H3432 H 0.63706 0.74965 0.50011 0.0
H3433 H 0.61716 0.80546 0.49993 0.0
H3434 H 0.52429 0.77185 0.4871 0.0
H3435 H 0.54461 0.71599 0.4869 0.0
C3436 C 0.50954 0.8749 0.49571 0.0
C3437 C 0.52927 0.90315 0.49408 0.0
C3438 C 0.52153 0.8418 0.49534 0.0
C3439 C 0.55482 0.83311 0.49363 0.0
C3440 C 0.57469 0.86141 0.49209 0.0
C3441 C 0.56254 0.89464 0.49213 0.0
C3442 C 0.61224 0.75347 0.49717 0.0
C3443 C 0.59337 0.72572 0.49355 0.0
C3444 C 0.60044 0.7867 0.49702 0.0
C3445 C 0.56815 0.79592 0.49353 0.0
C3446 C 0.54911 0.76808 0.49002 0.0
C3447 C 0.56116 0.73485 0.48987 0.0
H3448 H 0.65395 0.28799 0.73886 0.0
H3449 H 0.6174 0.38128 0.74976 0.0
H3450 H 0.59858 0.26636 0.739 0.0
H3451 H 0.56202 0.36 0.74948 0.0
H3452 H 0.45571 0.31899 0.73921 0.0
H3453 H 0.51108 0.34064 0.7395 0.0
H3454 H 0.54748 0.24647 0.74884 0.0
H3455 H 0.49212 0.22515 0.74896 0.0
C3456 C 0.63452 0.30444 0.74133 0.0
C3457 C 0.64261 0.33729 0.7444 0.0
C3458 C 0.60162 0.29161 0.74143 0.0
C3459 C 0.57319 0.31044 0.74424 0.0
C3460 C 0.58138 0.34339 0.74713 0.0
C3461 C 0.61429 0.35601 0.74735 0.0
C3462 C 0.47511 0.30243 0.74145 0.0
C3463 C 0.46697 0.2694 0.74415 0.0
C3464 C 0.50801 0.31526 0.74164 0.0
C3465 C 0.53639 0.29629 0.74419 0.0
C3466 C 0.52816 0.2632 0.74671 0.0
C3467 C 0.49526 0.25055 0.74684 0.0
H3468 H 0.13192 0.2389 1.00008 0.0
H3469 H 1.0404 0.20477 0.98597 0.0
H3470 H 0.11211 0.29464 0.99933 0.0
H3471 H 1.02021 0.2606 0.98544 0.0
H3472 H 0.97903 0.36741 0.99223 0.0
H3473 H 0.99907 0.31178 0.99245 0.0
H3474 H 0.09641 0.34697 0.99125 0.0
H3475 H 0.07612 0.40282 0.99078 0.0
C3476 C 0.10731 0.24264 0.99683 0.0
C3477 C 0.0886 0.21481 0.9932 0.0
C3478 C 0.09556 0.27582 0.99632 0.0
C3479 C 0.06356 0.28491 0.99232 0.0
C3480 C 1.04476 0.25698 0.98875 0.0
C3481 C 0.05671 0.22376 0.98905 0.0
C3482 C 1.00489 0.36397 0.99198 0.0
C3483 C 1.02503 0.39212 0.99151 0.0
C3484 C 1.01683 0.33084 0.99207 0.0
C3485 C 1.05034 0.32209 0.99194 0.0
C3486 C 0.07055 0.35033 0.99149 0.0
C3487 C 0.05855 0.38355 0.99116 0.0
H3488 H 0.15526 0.82722 0.73725 0.0
H3489 H 0.12043 0.73469 0.75004 0.0
H3490 H 0.09964 0.84805 0.73733 0.0
H3491 H 0.0647 0.75512 0.74963 0.0
H3492 H 0.95764 0.79409 0.73851 0.0
H3493 H 1.01327 0.77307 0.73891 0.0
H3494 H 1.04864 0.86797 0.74777 0.0
H3495 H 0.99305 0.88865 0.74785 0.0
C3496 C 0.13617 0.81076 0.74011 0.0
C3497 C 0.14485 0.77839 0.74371 0.0
C3498 C 0.10311 0.82311 0.74018 0.0
C3499 C 0.07504 0.80421 0.74346 0.0
C3500 C 0.08377 0.77172 0.74688 0.0
C3501 C 0.11688 0.75961 0.74716 0.0
C3502 C 0.97686 0.81095 0.74067 0.0
C3503 C 0.96837 0.84397 0.74322 0.0
C3504 C 1.0099 0.79849 0.74092 0.0
C3505 C 1.03807 0.81788 0.74337 0.0
C3506 C 1.02949 0.85096 0.74573 0.0
C3507 C 0.99646 0.86322 0.74583 0.0
H3508 H 0.07302 0.20571 0.4867 0.0
H3509 H 0.97858 0.23983 0.4974 0.0
H3510 H 0.09299 0.26164 0.48639 0.0
H3511 H 0.99822 0.29571 0.49669 0.0
H3512 H 1.03605 0.40302 0.48591 0.0
H3513 H 1.01618 0.34705 0.48632 0.0
H3514 H 0.11123 0.31378 0.49607 0.0
H3515 H 0.13078 0.36975 0.49604 0.0
C3516 C 1.05595 0.22464 0.48902 0.0
C3517 C 1.02329 0.21563 0.49217 0.0
C3518 C 0.0678 0.25794 0.48886 0.0
C3519 C 1.04814 0.28591 0.4915 0.0
C3520 C 1.01543 0.2768 0.49445 0.0
C3521 C 1.00378 0.24356 0.49492 0.0
C3522 C 1.05322 0.38424 0.48822 0.0
C3523 C 0.08591 0.3935 0.49097 0.0
C3524 C 1.04142 0.35094 0.4885 0.0
C3525 C 0.06118 0.32318 0.49124 0.0
C3526 C 0.09395 0.33251 0.4938 0.0
C3527 C 0.10555 0.36581 0.49382 0.0
H3528 H 0.62114 0.22554 0.25116 0.0
H3529 H 0.65527 0.31717 0.23699 0.0
H3530 H 0.56537 0.24549 0.25066 0.0
H3531 H 0.59941 0.3376 0.23692 0.0
H3532 H 0.49228 0.37822 0.2467 0.0
H3533 H 0.54809 0.3582 0.24658 0.0
H3534 H 0.51333 0.26181 0.24063 0.0
H3535 H 0.45743 0.28212 0.24029 0.0
C3536 C 0.61743 0.25018 0.24793 0.0
C3537 C 0.64531 0.26879 0.24413 0.0
C3538 C 0.58424 0.26202 0.2476 0.0
C3539 C 0.57515 0.29412 0.24375 0.0
C3540 C 0.6031 0.31292 0.24009 0.0
C3541 C 0.63633 0.3008 0.2401 0.0
C3542 C 0.49585 0.35258 0.24532 0.0
C3543 C 0.46779 0.3327 0.24357 0.0
C3544 C 0.52905 0.34069 0.2452 0.0
C3545 C 0.53795 0.30742 0.24364 0.0
C3546 C 0.50981 0.28744 0.242 0.0
C3547 C 0.47657 0.29947 0.24179 0.0
H3548 H 0.53934 0.90781 0.98817 0.0
H3549 H 0.63227 0.87308 1.00019 0.0
H3550 H 0.51863 0.85217 0.98801 0.0
H3551 H 0.61192 0.81731 0.99958 0.0
H3552 H 0.57277 0.71002 0.98864 0.0
H3553 H 0.59385 0.76558 0.98917 0.0
H3554 H 0.49868 0.80113 0.99772 0.0
H3555 H 0.47791 0.74565 0.9976 0.0
C3556 C 0.55591 0.88872 0.99082 0.0
C3557 C 0.58836 0.89748 0.99429 0.0
C3558 C 0.54362 0.85563 0.99074 0.0
C3559 C 0.56264 0.82755 0.99375 0.0
C3560 C 0.59521 0.83635 0.99704 0.0
C3561 C 0.60728 0.8695 0.99746 0.0
C3562 C 0.55582 0.72924 0.99072 0.0
C3563 C 0.52267 0.72079 0.9931 0.0
C3564 C 0.56834 0.76229 0.99107 0.0
C3565 C 0.54894 0.79053 0.99349 0.0
C3566 C 0.51575 0.78198 0.9957 0.0
C3567 C 0.50342 0.74897 0.99567 0.0
H3568 H 0.15517 0.28787 0.88906 0.0
H3569 H 0.12113 0.38217 0.8786 0.0
H3570 H 0.09921 0.26776 0.8891 0.0
H3571 H 0.06527 0.36241 0.87905 0.0
H3572 H 0.95753 0.32445 0.8892 0.0
H3573 H 1.01348 0.3444 0.88905 0.0
H3574 H 1.04737 0.24936 0.87931 0.0
H3575 H 0.99143 0.22971 0.87907 0.0
C3576 C 0.13625 0.30488 0.88675 0.0
C3577 C 0.14529 0.33755 0.88375 0.0
C3578 C 0.10294 0.29295 0.88674 0.0
C3579 C 0.07498 0.31253 0.88409 0.0
C3580 C 0.08414 0.34525 0.88129 0.0
C3581 C 0.11739 0.35697 0.88098 0.0
C3582 C 0.97642 0.30729 0.88692 0.0
C3583 C 0.96732 0.27456 0.88408 0.0
C3584 C 1.00974 0.31914 0.8868 0.0
C3585 C 1.03769 0.29942 0.88416 0.0
C3586 C 1.02851 0.26663 0.88152 0.0
C3587 C 0.99521 0.25497 0.88134 0.0
H3588 H 0.48145 0.37695 0.62905 0.0
H3589 H 0.57536 0.41132 0.63997 0.0
H3590 H 0.50161 0.32117 0.62916 0.0
H3591 H 0.59588 0.35556 0.63962 0.0
H3592 H 0.63487 0.24869 0.62875 0.0
H3593 H 0.61462 0.30441 0.62914 0.0
H3594 H 0.52007 0.26967 0.63937 0.0
H3595 H 0.54069 0.21391 0.63945 0.0
C3596 C 0.50662 0.37327 0.63145 0.0
C3597 C 0.52587 0.40113 0.63448 0.0
C3598 C 0.51857 0.34013 0.63156 0.0
C3599 C 0.55133 0.33122 0.63437 0.0
C3600 C 0.5707 0.35917 0.63724 0.0
C3601 C 0.55854 0.39229 0.63747 0.0
C3602 C 0.60962 0.25227 0.63116 0.0
C3603 C 0.59033 0.22432 0.63406 0.0
C3604 C 0.59761 0.28538 0.63143 0.0
C3605 C 0.56476 0.29418 0.63428 0.0
C3606 C 0.54533 0.26614 0.637 0.0
C3607 C 0.55755 0.23302 0.63707 0.0
H3608 H 0.61983 0.88256 0.37841 0.0
H3609 H 0.65285 0.78807 0.38916 0.0
H3610 H 0.56374 0.86333 0.37882 0.0
H3611 H 0.5967 0.76848 0.38914 0.0
H3612 H 0.48906 0.73112 0.37928 0.0
H3613 H 0.54508 0.75043 0.37944 0.0
H3614 H 0.51176 0.84592 0.38875 0.0
H3615 H 0.45561 0.82627 0.38898 0.0
C3616 C 0.61579 0.85742 0.38082 0.0
C3617 C 0.64341 0.83772 0.38367 0.0
C3618 C 0.58243 0.84603 0.38111 0.0
C3619 C 0.57299 0.81343 0.38399 0.0
C3620 C 0.60069 0.79359 0.38672 0.0
C3621 C 0.63407 0.8052 0.38674 0.0
C3622 C 0.493 0.7564 0.38145 0.0
C3623 C 0.46528 0.77623 0.38415 0.0
C3624 C 0.52632 0.76785 0.38158 0.0
C3625 C 0.53566 0.80064 0.38409 0.0
C3626 C 0.50786 0.82062 0.38664 0.0
C3627 C 0.47448 0.80897 0.38683 0.0
H3628 H 0.07129 0.89896 0.1386 0.0
H3629 H 0.97678 0.86412 0.12893 0.0
H3630 H 0.09185 0.84319 0.13837 0.0
H3631 H 0.997 0.80839 0.12913 0.0
H3632 H 1.03655 0.70133 0.13911 0.0
H3633 H 1.01592 0.75705 0.13905 0.0
H3634 H 0.11024 0.79174 0.12838 0.0
H3635 H 0.13053 0.73606 0.12807 0.0
C3636 C 1.05435 0.87982 0.1364 0.0
C3637 C 1.0215 0.88853 0.13371 0.0
C3638 C 0.06653 0.84669 0.13624 0.0
C3639 C 1.04702 0.81862 0.13374 0.0
C3640 C 1.0141 0.82742 0.13123 0.0
C3641 C 1.00211 0.86055 0.13106 0.0
C3642 C 1.05336 0.7204 0.13662 0.0
C3643 C 0.08608 0.71168 0.13349 0.0
C3644 C 1.04112 0.75352 0.13656 0.0
C3645 C 0.06047 0.78156 0.1337 0.0
C3646 C 0.09327 0.77274 0.13076 0.0
C3647 C 0.1053 0.73963 0.13053 0.0
H3648 H 0.32689 0.27999 0.35372 0.0
H3649 H 0.2319 0.2701 0.33706 0.0
H3650 H 0.34664 0.30138 0.33215 0.0
H3651 H 0.25123 0.29217 0.31537 0.0
H3652 H 0.29249 0.32015 0.27318 0.0
H3653 H 0.27333 0.29882 0.29471 0.0
H3654 H 0.36033 0.33198 0.31405 0.0
H3655 H 0.38001 0.35219 0.29205 0.0
C3656 C 0.30977 0.28254 0.34551 0.0
C3657 C 0.27729 0.27266 0.34771 0.0
C3658 C 0.32138 0.2952 0.33278 0.0
C3659 C 0.30138 0.29927 0.32115 0.0
C3660 C 0.26862 0.28968 0.32345 0.0
C3661 C 0.25705 0.27683 0.33622 0.0
C3662 C 0.30809 0.32278 0.28188 0.0
C3663 C 0.33846 0.33831 0.28019 0.0
C3664 C 0.29659 0.31054 0.29468 0.0
C3665 C 0.31441 0.31292 0.307 0.0
C3666 C 0.34497 0.32858 0.30531 0.0
C3667 C 0.35658 0.34071 0.2924 0.0
H3668 H 1.01945 0.1263 0.53943 0.0
H3669 H 1.02588 1.03104 0.52256 0.0
H3670 H 1.04199 0.10659 0.56089 0.0
H3671 H 1.04844 1.01103 0.54383 0.0
H3672 H 0.10408 0.97841 0.58298 0.0
H3673 H 0.08234 0.99808 0.5613 0.0
H3674 H 1.04788 0.08365 0.58161 0.0
H3675 H 0.07038 0.06442 0.60286 0.0
C3676 C 1.02559 0.10101 0.54014 0.0
C3677 C 1.02063 0.08091 0.52859 0.0
C3678 C 1.03877 0.08925 0.55278 0.0
C3679 C 1.04802 1.05639 0.55491 0.0
C3680 C 1.04279 1.03642 0.54328 0.0
C3681 C 1.02957 1.04819 0.53071 0.0
C3682 C 0.0919 1.00147 0.58294 0.0
C3683 C 0.08951 1.01915 0.59536 0.0
C3684 C 0.07892 1.01309 0.57021 0.0
C3685 C 0.06247 1.04328 0.56887 0.0
C3686 C 0.06014 0.06068 0.58137 0.0
C3687 C 0.0731 1.04913 0.59401 0.0
H3688 H 0.38438 0.85399 0.83488 0.0
H3689 H 0.29369 0.83251 0.85413 0.0
H3690 H 0.36386 0.83328 0.81326 0.0
H3691 H 0.27328 0.81075 0.83285 0.0
H3692 H 0.23199 0.77774 0.79111 0.0
H3693 H 0.25214 0.79988 0.81256 0.0
H3694 H 0.34744 0.80644 0.79494 0.0
H3695 H 0.32683 0.78501 0.77362 0.0
C3696 C 0.35998 0.84476 0.83467 0.0
C3697 C 0.34126 0.8456 0.84685 0.0
C3698 C 0.3478 0.83235 0.82195 0.0
C3699 C 0.31598 0.81949 0.82041 0.0
C3700 C 0.29756 0.82014 0.83274 0.0
C3701 C 0.30968 0.8327 0.84538 0.0
C3702 C 0.2573 0.78392 0.79172 0.0
C3703 C 0.27723 0.77889 0.78007 0.0
C3704 C 0.26935 0.79686 0.80436 0.0
C3705 C 0.30237 0.80568 0.8064 0.0
C3706 C 0.32205 0.8008 0.79459 0.0
C3707 C 0.30994 0.78813 0.78197 0.0
H3708 H 0.51008 0.14076 0.08575 0.0
H3709 H 0.52898 1.04955 0.10462 0.0
H3710 H 0.53219 0.12013 0.0642 0.0
H3711 H 0.55097 1.02878 0.08346 0.0
H3712 H 0.598 0.99062 1.04351 0.0
H3713 H 0.57624 1.01175 0.06491 0.0
H3714 H 0.54723 0.09857 1.04425 0.0
H3715 H 0.56993 0.07755 1.02312 0.0
C3716 C 0.51892 0.11623 0.08548 0.0
C3717 C 0.51742 0.09757 0.09762 0.0
C3718 C 0.53196 0.10389 0.07279 0.0
C3719 C 0.54448 0.07186 0.07119 0.0
C3720 C 0.54263 1.05342 0.08342 0.0
C3721 C 0.52971 0.06573 0.09601 0.0
C3722 C 0.58718 1.01435 1.04342 0.0
C3723 C 0.58661 1.0318 1.03096 0.0
C3724 C 0.5741 1.02691 1.05603 0.0
C3725 C 0.55901 0.05788 1.05723 0.0
C3726 C 0.55823 0.07501 1.04463 0.0
C3727 C 0.57145 0.06251 1.03209 0.0
H3728 H 0.37762 0.77128 0.33607 0.0
H3729 H 0.28517 0.78976 0.35427 0.0
H3730 H 0.35845 0.7932 0.31445 0.0
H3731 H 0.26601 0.81266 0.33305 0.0
H3732 H 0.22764 0.85005 0.29151 0.0
H3733 H 0.24657 0.82658 0.31285 0.0
H3734 H 0.34252 0.81976 0.29592 0.0
H3735 H 0.32312 0.84268 0.27468 0.0
C3736 C 0.3531 0.78011 0.33565 0.0
C3737 C 0.33356 0.77827 0.3476 0.0
C3738 C 0.3417 0.79322 0.32292 0.0
C3739 C 0.30981 0.80575 0.32109 0.0
C3740 C 0.29048 0.80381 0.33315 0.0
C3741 C 0.30186 0.79059 0.34579 0.0
C3742 C 0.25284 0.84355 0.29222 0.0
C3743 C 0.2733 0.84904 0.28078 0.0
C3744 C 0.26419 0.82977 0.30483 0.0
C3745 C 0.29701 0.82046 0.30706 0.0
C3746 C 0.31723 0.82577 0.29544 0.0
C3747 C 0.30582 0.8393 0.28285 0.0
H3748 H 0.60213 0.13727 0.58478 0.0
H3749 H 0.574 1.0486 0.60395 0.0
H3750 H 0.57993 0.11791 0.56314 0.0
H3751 H 0.55091 1.02956 0.5827 0.0
H3752 H 0.52091 0.98871 0.5402 0.0
H3753 H 0.54373 1.00784 0.56176 0.0
H3754 H 0.54622 0.10458 0.54589 0.0
H3755 H 0.52352 0.08515 0.52458 0.0
C3756 C 0.59109 0.11364 0.58458 0.0
C3757 C 0.59046 0.09512 0.59676 0.0
C3758 C 0.57781 0.1022 0.57187 0.0
C3759 C 0.56269 0.07136 0.57034 0.0
C3760 C 0.56206 1.05309 0.58263 0.0
C3761 C 0.57537 0.06448 0.59525 0.0
C3762 C 0.52626 1.01413 0.54121 0.0
C3763 C 0.52027 1.03478 0.52996 0.0
C3764 C 0.5396 1.02555 0.5539 0.0
C3765 C 0.54791 0.05855 0.55637 0.0
C3766 C 0.54145 0.07906 0.54507 0.0
C3767 C 0.52813 0.06763 0.53246 0.0
H3768 H 0.37968 0.25018 0.79381 0.0
H3769 H 0.2988 0.29224 0.77329 0.0
H3770 H 0.35997 0.27268 0.81553 0.0
H3771 H 0.27938 0.315 0.7947 0.0
H3772 H 0.23411 0.339 0.83737 0.0
H3773 H 0.2539 0.31575 0.81584 0.0
H3774 H 0.34992 0.31206 0.83221 0.0
H3775 H 0.33002 0.33567 0.85349 0.0
C3776 C 0.35776 0.26432 0.79373 0.0
C3777 C 0.34148 0.26883 0.78114 0.0
C3778 C 0.34618 0.27767 0.80646 0.0
C3779 C 0.31732 0.29641 0.80761 0.0
C3780 C 0.30125 0.30084 0.79497 0.0
C3781 C 0.3129 0.28771 0.78231 0.0
C3782 C 0.25951 0.3333 0.8365 0.0
C3783 C 0.27985 0.33945 0.84783 0.0
C3784 C 0.27126 0.31977 0.82385 0.0
C3785 C 0.30424 0.31113 0.82156 0.0
C3786 C 0.32443 0.31729 0.83297 0.0
C3787 C 0.31272 0.33105 0.84553 0.0
H3788 H 0.10041 0.12455 1.0421 0.0
H3789 H 0.07747 1.03485 1.02256 0.0
H3790 H 0.07758 0.10416 1.06353 0.0
H3791 H 1.05486 1.01427 1.04373 0.0
H3792 H 1.00181 0.98031 0.08341 0.0
H3793 H 1.02382 1.00105 1.06189 0.0
H3794 H 0.06809 0.0796 0.08363 0.0
H3795 H 1.04526 0.0594 0.10477 0.0
C3796 C 0.09061 0.10038 1.0422 0.0
C3797 C 0.09138 0.08204 1.02993 0.0
C3798 C 0.07721 0.08818 1.05483 0.0
C3799 C 0.06341 1.05666 1.05622 0.0
C3800 C 0.06425 1.03855 1.04386 0.0
C3801 C 0.07762 1.05072 1.03131 0.0
C3802 C 1.01618 1.00207 0.08373 0.0
C3803 C 1.02108 1.01749 0.09652 0.0
C3804 C 1.02936 1.01432 0.07106 0.0
C3805 C 1.04868 1.04292 0.07015 0.0
C3806 C 1.0536 0.05801 0.08304 0.0
C3807 C 1.04038 1.04585 0.09561 0.0
H3808 H 0.82663 0.78848 0.85365 0.0
H3809 H 0.73736 0.76224 0.83467 0.0
H3810 H 0.8463 0.81094 0.8324 0.0
H3811 H 0.75676 0.7851 0.81312 0.0
H3812 H 0.7988 0.82026 0.77189 0.0
H3813 H 0.77945 0.79706 0.79306 0.0
H3814 H 0.8597 0.8399 0.81416 0.0
H3815 H 0.87955 0.86213 0.79262 0.0
C3816 C 0.81066 0.78761 0.84499 0.0
C3817 C 0.77977 0.77305 0.84654 0.0
C3818 C 0.82228 0.80089 0.83239 0.0
C3819 C 0.80395 0.80089 0.82016 0.0
C3820 C 0.77284 0.78621 0.82172 0.0
C3821 C 0.76122 0.77279 0.83441 0.0
C3822 C 0.81286 0.8247 0.78093 0.0
C3823 C 0.84137 0.8437 0.77987 0.0
C3824 C 0.80124 0.81126 0.79351 0.0
C3825 C 0.81708 0.81572 0.80622 0.0
C3826 C 0.84585 0.83471 0.80513 0.0
C3827 C 0.8576 0.84804 0.79246 0.0
H3828 H 0.87947 0.35457 0.3352 0.0
H3829 H 0.79102 0.32725 0.35497 0.0
H3830 H 0.85979 0.33152 0.31376 0.0
H3831 H 0.7717 0.30329 0.33398 0.0
H3832 H 0.73074 0.26776 0.29239 0.0
H3833 H 0.75009 0.29224 0.31357 0.0
H3834 H 0.84536 0.29992 0.29608 0.0
H3835 H 0.82566 0.27595 0.27507 0.0
C3836 C 0.85581 0.34358 0.33518 0.0
C3837 C 0.83751 0.3434 0.3475 0.0
C3838 C 0.84415 0.32977 0.32258 0.0
C3839 C 0.81328 0.31451 0.32127 0.0
C3840 C 0.79524 0.31441 0.33369 0.0
C3841 C 0.80682 0.32827 0.34619 0.0
C3842 C 0.75587 0.27465 0.29294 0.0
C3843 C 0.77602 0.26925 0.28137 0.0
C3844 C 0.76746 0.28899 0.30543 0.0
C3845 C 0.80019 0.29902 0.30742 0.0
C3846 C 0.82011 0.2936 0.29573 0.0
C3847 C 0.8085 0.27944 0.28328 0.0
H3848 H 0.73029 0.35621 0.79395 0.0
H3849 H 0.81417 0.3186 0.77356 0.0
H3850 H 0.75017 0.33481 0.81565 0.0
H3851 H 0.83363 0.2965 0.79491 0.0
H3852 H 0.87732 0.26973 0.83717 0.0
H3853 H 0.85748 0.29178 0.81562 0.0
H3854 H 0.76245 0.30066 0.83321 0.0
H3855 H 0.78255 0.27854 0.85456 0.0
C3856 C 0.75295 0.34329 0.79389 0.0
C3857 C 0.77002 0.33982 0.78134 0.0
C3858 C 0.76466 0.33049 0.80664 0.0
C3859 C 0.79435 0.31313 0.80786 0.0
C3860 C 0.81112 0.3096 0.79522 0.0
C3861 C 0.79945 0.32235 0.78255 0.0
C3862 C 0.85212 0.27632 0.83656 0.0
C3863 C 0.83219 0.27211 0.84827 0.0
C3864 C 0.84029 0.28919 0.82387 0.0
C3865 C 0.80755 0.29896 0.82186 0.0
C3866 C 0.78775 0.29455 0.83365 0.0
C3867 C 0.79958 0.28159 0.84628 0.0
H3868 H 0.72873 0.84431 0.33656 0.0
H3869 H 0.82381 0.83444 0.35312 0.0
H3870 H 0.74813 0.82282 0.31474 0.0
H3871 H 0.84363 0.81376 0.33146 0.0
H3872 H 0.87782 0.76491 0.29116 0.0
H3873 H 0.85797 0.78466 0.31319 0.0
H3874 H 0.76982 0.81542 0.29411 0.0
H3875 H 0.78922 0.79444 0.27251 0.0
C3876 C 0.7539 0.83774 0.33567 0.0
C3877 C 0.77417 0.84168 0.34716 0.0
C3878 C 0.76551 0.8252 0.32283 0.0
C3879 C 0.79833 0.81583 0.32047 0.0
C3880 C 0.81833 0.81978 0.33211 0.0
C3881 C 0.80668 0.83203 0.3449 0.0
C3882 C 0.8541 0.77575 0.29157 0.0
C3883 C 0.83572 0.77756 0.27943 0.0
C3884 C 0.84237 0.78762 0.30451 0.0
C3885 C 0.81144 0.80248 0.30628 0.0
C3886 C 0.79338 0.80434 0.29402 0.0
C3887 C 0.805 0.79231 0.28119 0.0
H3888 H 0.58872 0.48936 0.08665 0.0
H3889 H 0.58235 0.58559 0.10242 0.0
H3890 H 0.56666 0.50737 0.06503 0.0
H3891 H 0.55974 0.60415 0.08093 0.0
H3892 H 0.51497 0.63761 1.03975 0.0
H3893 H 0.53652 0.61996 1.06166 0.0
H3894 H 0.54974 0.52436 1.04519 0.0
H3895 H 0.52743 0.54215 1.02372 0.0
C3896 C 0.58246 0.51457 0.08565 0.0
C3897 C 0.5873 0.5354 0.09696 0.0
C3898 C 0.56945 0.52537 0.07288 0.0
C3899 C 0.56029 0.55803 0.07031 0.0
C3900 C 0.56545 0.57884 0.08172 0.0
C3901 C 0.57849 0.56795 0.09448 0.0
C3902 C 0.52242 0.61274 1.04072 0.0
C3903 C 0.51921 0.59187 1.0293 0.0
C3904 C 0.53524 0.60221 1.05362 0.0
C3905 C 0.54597 0.56995 1.05612 0.0
C3906 C 0.54251 0.54928 1.04457 0.0
C3907 C 0.52961 0.55979 1.03177 0.0
H3908 H 1.0027 0.62926 0.58222 0.0
H3909 H 1.03886 0.54439 0.60189 0.0
H3910 H 1.02396 0.6097 0.56035 0.0
H3911 H 0.06099 0.52521 0.58035 0.0
H3912 H 0.08958 0.48283 0.53794 0.0
H3913 H 0.06772 0.50236 0.55966 0.0
H3914 H 1.05574 0.59681 0.54223 0.0
H3915 H 0.07749 0.57692 0.52065 0.0
C3916 C 1.01526 0.6064 0.58207 0.0
C3917 C 1.01827 0.58893 0.59446 0.0
C3918 C 1.02801 0.59487 0.56921 0.0
C3919 C 1.04498 0.565 0.56771 0.0
C3920 C 1.04819 0.54788 0.58023 0.0
C3921 C 1.03542 0.55936 0.59301 0.0
C3922 C 0.08234 0.50783 0.53861 0.0
C3923 C 0.08565 0.52766 0.52688 0.0
C3924 C 0.06957 0.5195 0.55142 0.0
C3925 C 0.05904 0.55199 0.55356 0.0
C3926 C 0.06251 0.57169 0.54173 0.0
C3927 C 0.07529 0.56001 0.52897 0.0
H3928 H 0.10436 0.62402 0.08505 0.0
H3929 H 0.05677 0.54515 0.10509 0.0
H3930 H 0.08237 0.60572 1.0631 0.0
H3931 H 1.03276 0.52857 0.08344 0.0
H3932 H 0.96979 0.53661 1.03996 0.0
H3933 H 0.99055 0.5551 1.06224 0.0
H3934 H 0.08756 0.54685 1.04703 0.0
H3935 H 0.0671 0.52558 1.02549 0.0
C3936 C 0.08913 0.60292 0.08505 0.0
C3937 C 0.08336 0.58637 0.09755 0.0
C3938 C 0.07612 0.59229 0.07219 0.0
C3939 C 1.05512 0.56528 0.07097 0.0
C3940 C 1.04839 0.54947 0.08349 0.0
C3941 C 0.0624 0.55932 0.0962 0.0
C3942 C 0.99557 0.53818 1.0413 0.0
C3943 C 1.01613 0.52917 1.03028 0.0
C3944 C 1.00775 0.54918 1.05427 0.0
C3945 C 1.04131 0.55321 1.05692 0.0
C3946 C 0.06171 0.5448 1.04581 0.0
C3947 C 1.04962 0.53261 1.03313 0.0
H3948 H 0.54316 0.57834 0.60562 0.0
H3949 H 0.5148 0.49053 0.58584 0.0
H3950 H 0.56597 0.59828 0.58443 0.0
H3951 H 0.53688 0.51053 0.56432 0.0
H3952 H 0.58258 0.54749 0.52418 0.0
H3953 H 0.56015 0.52762 0.54539 0.0
H3954 H 0.58341 0.61803 0.56474 0.0
H3955 H 0.60576 0.63776 0.54317 0.0
C3956 C 0.54172 0.56282 0.59678 0.0
C3957 C 0.52652 0.5322 0.5981 0.0
C3958 C 0.555 0.57469 0.58418 0.0
C3959 C 0.55423 0.55697 0.57171 0.0
C3960 C 0.539 0.52611 0.57309 0.0
C3961 C 0.5258 0.51419 0.58577 0.0
C3962 C 0.58278 0.56364 0.53283 0.0
C3963 C 0.59638 0.59493 0.53127 0.0
C3964 C 0.56963 0.55184 0.54545 0.0
C3965 C 0.56889 0.57032 0.55772 0.0
C3966 C 0.58267 0.60181 0.55613 0.0
C3967 C 0.59588 0.61363 0.54342 0.0
H3968 H 0.2907 0.12571 0.41065 0.0
H3969 H 0.34107 0.21101 0.42296 0.0
H3970 H 0.32422 0.09328 0.426 0.0
H3971 H 0.37503 0.1786 0.43819 0.0
H3972 H 0.4493 0.11128 0.46282 0.0
H3973 H 0.41555 0.14409 0.44763 0.0
H3974 H 0.34699 0.06683 0.44525 0.0
H3975 H 0.38056 1.03438 0.46054 0.0
C3976 C 0.30882 0.13824 0.41652 0.0
C3977 C 0.3115 0.17256 0.41484 0.0
C3978 C 0.32879 0.11893 0.42571 0.0
C3979 C 0.35416 0.13159 0.43415 0.0
C3980 C 0.35694 0.16595 0.43237 0.0
C3981 C 0.33664 0.18532 0.42332 0.0
C3982 C 0.42704 0.10072 0.45923 0.0
C3983 C 0.41922 0.06865 0.4637 0.0
C3984 C 0.40685 0.12027 0.45019 0.0
C3985 C 0.37673 0.10984 0.44439 0.0
C3986 C 0.36913 0.07761 0.44881 0.0
C3987 C 0.38908 0.05827 0.45799 0.0
H3988 H 0.32944 0.11614 0.71401 0.0
H3989 H 0.26697 0.19683 0.70756 0.0
H3990 H 0.29636 0.08328 0.69853 0.0
H3991 H 0.23337 0.16385 0.69233 0.0
H3992 H 0.16029 0.09204 0.66892 0.0
H3993 H 0.19381 0.12508 0.68416 0.0
H3994 H 0.27304 0.0602 0.67788 0.0
H3995 H 0.23968 1.02768 0.66238 0.0
C3996 C 0.30867 0.12754 0.70947 0.0
C3997 C 0.30253 0.16078 0.71282 0.0
C3998 C 0.28895 0.10798 0.70019 0.0
C3999 C 0.26035 0.11912 0.69337 0.0
C4000 C 0.25412 0.15234 0.69683 0.0
C4001 C 0.2742 0.17207 0.70589 0.0
C4002 C 0.18486 0.08427 0.67057 0.0
C4003 C 0.19562 1.05561 0.66361 0.0
C4004 C 0.20492 0.10401 0.67964 0.0
C4005 C 0.23794 0.09708 0.68308 0.0
C4006 C 0.24854 0.06814 0.67623 0.0
C4007 C 0.22868 1.04876 0.66694 0.0
H4008 H 0.1605 1.01545 0.9561 0.0
H4009 H 0.23944 0.07988 0.96318 0.0
H4010 H 0.19485 0.983 0.94075 0.0
H4011 H 0.27352 1.0481 0.94753 0.0
H4012 H 0.32913 0.9951 0.91003 0.0
H4013 H 0.29516 1.02729 0.92562 0.0
H4014 H 0.23708 0.94396 0.9339 0.0
H4015 H 0.27174 0.91161 0.91867 0.0
C4016 C 0.1851 1.02337 0.95452 0.0
C4017 C 0.19556 1.0518 0.96164 0.0
C4018 C 0.20561 1.00401 0.94542 0.0
C4019 C 0.2387 1.01133 0.9421 0.0
C4020 C 0.24897 1.04004 0.9491 0.0
C4021 C 0.22871 0.05893 0.95846 0.0
C4022 C 0.30926 0.98299 0.91506 0.0
C4023 C 0.30476 0.94923 0.91233 0.0
C4024 C 0.28909 1.00211 0.92438 0.0
C4025 C 0.26158 0.98987 0.93178 0.0
C4026 C 0.25691 0.95617 0.92889 0.0
C4027 C 0.27757 0.93689 0.91984 0.0
H4028 H 0.34181 0.92102 0.20836 0.0
H4029 H 0.28624 1.00414 0.21949 0.0
H4030 H 0.37497 0.95431 0.19297 0.0
H4031 H 0.31879 1.03738 0.20379 0.0
H4032 H 0.37199 0.09374 0.16648 0.0
H4033 H 0.33921 0.06111 0.18231 0.0
H4034 H 0.4163 0.99264 0.18526 0.0
H4035 H 0.44935 1.02582 0.16975 0.0
C4036 C 0.33609 0.94642 0.20774 0.0
C4037 C 0.30987 0.95827 0.21602 0.0
C4038 C 0.35589 0.9663 0.19857 0.0
C4039 C 0.35132 1.00029 0.19631 0.0
C4040 C 0.32478 1.01206 0.20448 0.0
C4041 C 0.30544 0.9923 0.2139 0.0
C4042 C 0.38262 0.07182 0.17036 0.0
C4043 C 0.41492 0.064 0.16603 0.0
C4044 C 0.36312 1.05239 0.17984 0.0
C4045 C 0.37333 1.02244 0.18585 0.0
C4046 C 0.40557 1.01454 0.18141 0.0
C4047 C 0.42533 1.03435 0.17219 0.0
H4048 H 0.83137 0.9954 0.71287 0.0
H4049 H 0.76616 0.91618 0.70793 0.0
H4050 H 0.79812 1.02831 0.69751 0.0
H4051 H 0.73231 0.94935 0.6929 0.0
H4052 H 0.65911 1.02388 0.67082 0.0
H4053 H 0.69272 0.99048 0.68587 0.0
H4054 H 0.7749 1.04903 0.67615 0.0
H4055 H 0.74149 0.0817 0.66081 0.0
C4056 C 0.80994 0.98437 0.7087 0.0
C4057 C 0.80309 0.95151 0.71239 0.0
C4058 C 0.79015 1.00394 0.69951 0.0
C4059 C 0.76073 0.99324 0.69319 0.0
C4060 C 0.75375 0.96045 0.69702 0.0
C4061 C 0.77396 0.94063 0.70595 0.0
C4062 C 0.68436 1.03011 0.67165 0.0
C4063 C 0.69594 1.05706 0.66381 0.0
C4064 C 0.70443 1.01018 0.6806 0.0
C4065 C 0.73828 1.01534 0.68302 0.0
C4066 C 0.74972 1.04258 0.6753 0.0
C4067 C 0.72983 0.06203 0.6661 0.0
H4068 H 0.95038 1.006 0.46071 0.0
H4069 H 0.87624 0.07786 0.46204 0.0
H4070 H 0.91686 0.9727 0.44554 0.0
H4071 H 0.84297 1.04506 0.44666 0.0
H4072 H 0.84199 0.90313 0.42194 0.0
H4073 H 0.87581 0.936 0.43715 0.0
H4074 H 0.82137 1.02005 0.42646 0.0
H4075 H 0.78814 0.98728 0.41108 0.0
C4076 C 0.92695 1.01531 0.45793 0.0
C4077 C 0.9175 1.04607 0.46342 0.0
C4078 C 0.90693 0.99548 0.44891 0.0
C4079 C 0.87543 1.00444 0.44408 0.0
C4080 C 0.86624 1.03546 0.44946 0.0
C4081 C 0.886 1.05498 0.45868 0.0
C4082 C 0.83674 0.92863 0.42262 0.0
C4083 C 0.81071 0.94095 0.41453 0.0
C4084 C 0.85694 0.94827 0.43165 0.0
C4085 C 0.85306 0.98241 0.43385 0.0
C4086 C 0.82678 0.9946 0.42583 0.0
C4087 C 0.80699 0.97508 0.41662 0.0
H4088 H 0.95143 0.08793 0.17126 0.0
H4089 H 0.87046 1.02581 0.16467 0.0
H4090 H 0.91889 0.12087 0.18707 0.0
H4091 H 0.83802 0.05826 0.18071 0.0
H4092 H 0.78285 0.11427 0.21749 0.0
H4093 H 0.81502 0.08116 0.20156 0.0
H4094 H 0.88082 0.15989 0.19597 0.0
H4095 H 0.84824 0.19306 0.21165 0.0
C4096 C 0.92669 0.08066 0.17301 0.0
C4097 C 0.91516 1.05267 0.16586 0.0
C4098 C 0.90721 0.10034 0.18241 0.0
C4099 C 0.87406 0.094 0.18601 0.0
C4100 C 0.86269 0.06571 0.17897 0.0
C4101 C 0.88199 1.04638 0.16935 0.0
C4102 C 0.80415 0.12513 0.21304 0.0
C4103 C 0.81149 0.15791 0.21672 0.0
C4104 C 0.82328 0.10546 0.20348 0.0
C4105 C 0.85233 0.11605 0.19666 0.0
C4106 C 0.85968 0.14879 0.20045 0.0
C4107 C 0.84024 0.16862 0.2098 0.0
H4108 H 0.73801 1.04556 0.96872 0.0
H4109 H 0.65318 0.09488 0.95534 0.0
H4110 H 0.77109 0.07795 0.95296 0.0
H4111 H 0.68629 0.12793 0.93982 0.0
H4112 H 0.75627 0.20269 0.91598 0.0
H4113 H 0.72289 0.16987 0.93152 0.0
H4114 H 0.79647 0.09723 0.932 0.0
H4115 H 0.82934 0.12971 0.9162 0.0
C4116 C 0.72573 0.0633 0.96258 0.0
C4117 C 0.69131 0.06604 0.9641 0.0
C4118 C 0.74542 0.08255 0.95314 0.0
C4119 C 0.7331 0.10731 0.94431 0.0
C4120 C 0.69867 0.11025 0.94595 0.0
C4121 C 0.67891 0.09052 0.95518 0.0
C4122 C 0.76584 0.17966 0.91918 0.0
C4123 C 0.79695 0.17028 0.91397 0.0
C4124 C 0.74596 0.16006 0.92842 0.0
C4125 C 0.75522 0.12915 0.93381 0.0
C4126 C 0.78661 0.12007 0.92874 0.0
C4127 C 0.80616 0.13934 0.91927 0.0
H4128 H 0.78657 0.6264 0.9144 0.0
H4129 H 0.85209 0.70514 0.9199 0.0
H4130 H 0.81934 0.59289 0.92968 0.0
H4131 H 0.88559 0.67126 0.93484 0.0
H4132 H 0.95837 0.59412 0.95621 0.0
H4133 H 0.92521 0.62853 0.94135 0.0
H4134 H 0.84175 0.57221 0.95147 0.0
H4135 H 0.87472 0.5386 0.96668 0.0
C4136 C 0.80795 0.63725 0.91869 0.0
C4137 C 0.81494 0.67022 0.91518 0.0
C4138 C 0.82749 0.61728 0.92784 0.0
C4139 C 0.85689 0.62756 0.93428 0.0
C4140 C 0.8641 0.66045 0.93063 0.0
C4141 C 0.84408 0.6807 0.92175 0.0
C4142 C 0.93293 0.58858 0.9555 0.0
C4143 C 0.92087 0.5619 0.96339 0.0
C4144 C 0.91313 0.60912 0.94667 0.0
C4145 C 0.87906 0.60489 0.94439 0.0
C4146 C 0.86713 0.57795 0.95219 0.0
C4147 C 0.88676 0.55794 0.96129 0.0
H4148 H 0.65805 0.61414 0.16551 0.0
H4149 H 0.73352 0.54387 0.16287 0.0
H4150 H 0.69198 0.6476 0.18046 0.0
H4151 H 0.7672 0.57684 0.17794 0.0
H4152 H 0.8233 0.63411 0.21329 0.0
H4153 H 0.78963 0.6014 0.19807 0.0
H4154 H 0.73312 0.68491 0.1886 0.0
H4155 H 0.76741 0.71777 0.20364 0.0
C4156 C 0.68184 0.60519 0.16793 0.0
C4157 C 0.69149 0.57481 0.16212 0.0
C4158 C 0.70212 0.62515 0.17682 0.0
C4159 C 0.73415 0.61669 0.18119 0.0
C4160 C 0.74355 0.58607 0.17549 0.0
C4161 C 0.72353 0.56645 0.1664 0.0
C4162 C 0.80394 0.64624 0.20804 0.0
C4163 C 0.79985 0.68023 0.2104 0.0
C4164 C 0.78385 0.62674 0.19893 0.0
C4165 C 0.75685 0.63877 0.1913 0.0
C4166 C 0.75258 0.67276 0.19378 0.0
C4167 C 0.77307 0.6924 0.2027 0.0
H4168 H 0.76988 0.41256 0.4223 0.0
H4169 H 0.8305 0.49331 0.41299 0.0
H4170 H 0.73677 0.44696 0.43737 0.0
H4171 H 0.79803 0.52752 0.42828 0.0
H4172 H 0.74397 0.58619 0.46439 0.0
H4173 H 0.77663 0.552 0.4491 0.0
H4174 H 0.69691 0.48691 0.44489 0.0
H4175 H 0.66406 0.52163 0.4599 0.0
C4176 C 0.77683 0.43758 0.42332 0.0
C4177 C 0.8045 0.44846 0.41569 0.0
C4178 C 0.75706 0.45814 0.43226 0.0
C4179 C 0.76305 0.49181 0.43485 0.0
C4180 C 0.79095 0.50254 0.42731 0.0
C4181 C 0.8103 0.48216 0.41816 0.0
C4182 C 0.73275 0.56472 0.46032 0.0
C4183 C 0.69981 0.55832 0.46413 0.0
C4184 C 0.75216 0.54436 0.45117 0.0
C4185 C 0.74114 0.51485 0.44499 0.0
C4186 C 0.70824 0.50836 0.44891 0.0
C4187 C 0.68862 0.52908 0.45783 0.0
H4188 H 0.77843 0.48851 0.71312 0.0
H4189 H 0.84469 0.40999 0.70849 0.0
H4190 H 0.81124 0.52117 0.69733 0.0
H4191 H 0.87812 0.44294 0.69302 0.0
H4192 H 0.9504 0.51752 0.66997 0.0
H4193 H 0.91721 0.48433 0.68544 0.0
H4194 H 0.83426 0.54127 0.67566 0.0
H4195 H 0.86727 0.57372 0.6599 0.0
C4196 C 0.80002 0.47759 0.70894 0.0
C4197 C 0.8073 0.44501 0.71288 0.0
C4198 C 0.81955 0.49702 0.69948 0.0
C4199 C 0.84913 0.48645 0.6931 0.0
C4200 C 0.85653 0.45393 0.69716 0.0
C4201 C 0.83658 0.43424 0.70636 0.0
C4202 C 0.92506 0.52344 0.67087 0.0
C4203 C 0.91316 0.54988 0.66286 0.0
C4204 C 0.90524 0.50362 0.68007 0.0
C4205 C 0.87131 0.5084 0.68263 0.0
C4206 C 0.85953 0.53514 0.67474 0.0
C4207 C 0.87919 0.55445 0.66529 0.0
H4208 H 0.26917 0.39862 0.20425 0.0
H4209 H 0.32548 0.48201 0.21402 0.0
H4210 H 0.23497 0.43169 0.1893 0.0
H4211 H 0.2919 0.51492 0.19891 0.0
H4212 H 0.23568 0.57311 0.16391 0.0
H4213 H 0.26928 0.53995 0.17896 0.0
H4214 H 0.19407 0.4691 0.1811 0.0
H4215 H 0.16021 0.50279 0.16626 0.0
C4216 C 0.27496 0.42396 0.20336 0.0
C4217 C 0.30185 0.43597 0.21106 0.0
C4218 C 0.25451 0.44374 0.19448 0.0
C4219 C 0.2589 0.47775 0.19207 0.0
C4220 C 0.286 0.48961 0.19971 0.0
C4221 C 0.30605 0.46997 0.20876 0.0
C4222 C 0.22566 0.55052 0.16743 0.0
C4223 C 0.19364 0.54221 0.16308 0.0
C4224 C 0.24564 0.53076 0.17646 0.0
C4225 C 0.23623 0.50002 0.18203 0.0
C4226 C 0.20422 0.49163 0.17758 0.0
C4227 C 0.18399 0.51171 0.16875 0.0
H4228 H 0.37339 0.58096 0.9626 0.0
H4229 H 0.45148 0.51374 0.95949 0.0
H4230 H 0.34143 0.54778 0.94687 0.0
H4231 H 0.41947 0.4802 0.9439 0.0
H4232 H 0.35062 0.4096 0.91807 0.0
H4233 H 0.38283 0.44299 0.93367 0.0
H4234 H 0.3177 0.52195 0.92761 0.0
H4235 H 0.28592 0.48862 0.91189 0.0
C4236 C 0.38434 0.55906 0.95878 0.0
C4237 C 0.41651 0.55156 0.96318 0.0
C4238 C 0.36533 0.53928 0.94933 0.0
C4239 C 0.37608 0.50941 0.94328 0.0
C4240 C 0.40828 0.50194 0.94775 0.0
C4241 C 0.42744 0.52196 0.95705 0.0
C4242 C 0.34271 0.43412 0.91982 0.0
C4243 C 0.31424 0.44483 0.91285 0.0
C4244 C 0.36192 0.4541 0.92912 0.0
C4245 C 0.35465 0.48703 0.93275 0.0
C4246 C 0.32592 0.49756 0.92585 0.0
C4247 C 0.30698 0.47772 0.91641 0.0
H4248 H 0.3764 0.54225 0.66342 0.0
H4249 H 0.45754 0.60325 0.6714 0.0
H4250 H 0.34304 0.57482 0.67908 0.0
H4251 H 0.42383 0.6367 0.68665 0.0
H4252 H 0.34698 0.71109 0.7076 0.0
H4253 H 0.38103 0.67788 0.69243 0.0
H4254 H 0.32342 0.59502 0.70199 0.0
H4255 H 0.29026 0.62799 0.7176 0.0
C4256 C 0.38776 0.56263 0.66832 0.0
C4257 C 0.4213 0.5685 0.6654 0.0
C4258 C 0.36792 0.58199 0.67768 0.0
C4259 C 0.37903 0.61009 0.68489 0.0
C4260 C 0.41247 0.61623 0.6818 0.0
C4261 C 0.43257 0.5963 0.67275 0.0
C4262 C 0.34114 0.68575 0.70674 0.0
C4263 C 0.31433 0.67381 0.71462 0.0
C4264 C 0.36143 0.66596 0.69772 0.0
C4265 C 0.35664 0.63211 0.6952 0.0
C4266 C 0.32952 0.62027 0.70294 0.0
C4267 C 0.30982 0.63987 0.71228 0.0
H4268 H 0.23358 0.53576 0.46194 0.0
H4269 H 0.15505 0.6021 0.458 0.0
H4270 H 0.26631 0.56875 0.44634 0.0
H4271 H 0.18786 0.6355 0.44252 0.0
H4272 H 0.32336 0.62675 0.41147 0.0
H4273 H 0.29067 0.59371 0.42707 0.0
H4274 H 0.22517 0.67279 0.43265 0.0
H4275 H 0.25827 0.70587 0.41716 0.0
C4276 C 0.22272 0.55747 0.45796 0.0
C4277 C 0.19021 0.56483 0.46208 0.0
C4278 C 0.24216 0.57709 0.44859 0.0
C4279 C 0.23152 0.60663 0.44237 0.0
C4280 C 0.19896 0.61399 0.44655 0.0
C4281 C 0.17935 0.5941 0.45577 0.0
C4282 C 0.302 0.63768 0.41585 0.0
C4283 C 0.29485 0.67044 0.41219 0.0
C4284 C 0.28255 0.61806 0.42521 0.0
C4285 C 0.25345 0.62877 0.43192 0.0
C4286 C 0.24633 0.6616 0.42822 0.0
C4287 C 0.26603 0.68136 0.41898 0.0
H4288 H 0.33614 0.13656 0.30536 0.0
H4289 H 0.37681 0.12326 0.34549 0.0
H4290 H 0.35718 0.0852 0.29837 0.0
H4291 H 0.39632 0.07022 0.33851 0.0
H4292 H 0.32958 0.97762 0.32704 0.0
H4293 H 0.35309 1.02745 0.33459 0.0
H4294 H 0.39838 1.04021 0.29525 0.0
H4295 H 0.37607 0.98878 0.28772 0.0
C4296 C 0.35072 0.12351 0.31259 0.0
C4297 C 0.3535 0.13379 0.32622 0.0
C4298 C 0.36295 0.09375 0.30851 0.0
C4299 C 0.37771 0.07331 0.318 0.0
C4300 C 0.38454 0.08533 0.33105 0.0
C4301 C 0.37287 0.11554 0.33509 0.0
C4302 C 0.34595 0.9898 0.32013 0.0
C4303 C 0.34972 0.97963 0.30652 0.0
C4304 C 0.35961 1.01864 0.32454 0.0
C4305 C 0.37687 1.03817 0.31538 0.0
C4306 C 0.38466 1.02583 0.30244 0.0
C4307 C 0.37146 0.99658 0.29808 0.0
H4308 H 0.26283 0.09195 0.59753 0.0
H4309 H 0.20591 0.13425 0.56534 0.0
H4310 H 0.31109 0.112 0.58704 0.0
H4311 H 0.25541 0.15299 0.55437 0.0
H4312 H 0.39749 0.12693 0.56446 0.0
H4313 H 0.34981 0.14993 0.5755 0.0
H4314 H 0.28995 0.10904 0.54406 0.0
H4315 H 0.33649 0.08497 0.5335 0.0
C4316 C 0.26015 0.1068 0.58856 0.0
C4317 C 0.2302 0.1101 0.582 0.0
C4318 C 0.28825 0.11844 0.58249 0.0
C4319 C 0.28715 0.13315 0.56964 0.0
C4320 C 0.25696 0.14105 0.56415 0.0
C4321 C 0.22865 0.1299 0.57037 0.0
C4322 C 0.37422 0.12334 0.55976 0.0
C4323 C 0.37092 0.10305 0.54832 0.0
C4324 C 0.34699 0.13695 0.56599 0.0
C4325 C 0.31611 0.13092 0.56076 0.0
C4326 C 0.31339 0.11442 0.54832 0.0
C4327 C 0.34039 0.10041 0.54224 0.0
H4328 H 0.27002 0.08935 0.77731 0.0
H4329 H 0.21941 0.14272 0.80878 0.0
H4330 H 0.25265 1.03967 0.78735 0.0
H4331 H 0.20336 0.09192 0.81932 0.0
H4332 H 0.2753 1.01674 0.84112 0.0
H4333 H 0.2484 0.0609 0.83037 0.0
H4334 H 0.2164 0.99803 0.79808 0.0
H4335 H 0.24212 0.95244 0.80935 0.0
C4336 C 0.25393 0.09084 0.786 0.0
C4337 C 0.24737 0.12044 0.79252 0.0
C4338 C 0.24385 0.06191 0.79181 0.0
C4339 C 0.22748 0.06184 0.80436 0.0
C4340 C 0.21658 0.09131 0.80976 0.0
C4341 C 0.22619 0.12041 0.8038 0.0
C4342 C 0.26117 1.01143 0.83217 0.0
C4343 C 0.262 0.98084 0.82592 0.0
C4344 C 0.24551 1.03714 0.82596 0.0
C4345 C 0.23083 1.03313 0.81322 0.0
C4346 C 0.22798 1.00187 0.80782 0.0
C4347 C 0.24317 0.97587 0.81419 0.0
H4348 H 0.27207 1.02602 1.0329 0.0
H4349 H 0.21297 0.98346 0.06463 0.0
H4350 H 0.31972 1.00659 1.04391 0.0
H4351 H 0.26175 0.96531 0.07611 0.0
H4352 H 0.34312 1.03144 0.09746 0.0
H4353 H 0.29675 1.00778 0.08689 0.0
H4354 H 0.35713 0.96727 1.05523 0.0
H4355 H 0.40466 0.98987 0.06628 0.0
C4356 C 0.26887 1.0113 1.0419 0.0
C4357 C 0.23837 1.0074 1.04808 0.0
C4358 C 0.29657 1.00002 1.04826 0.0
C4359 C 0.29457 0.98507 1.06106 0.0
C4360 C 0.26399 0.97727 0.06635 0.0
C4361 C 0.23609 0.98808 1.05984 0.0
C4362 C 0.34721 1.01607 0.0887 0.0
C4363 C 0.37782 1.01368 0.08249 0.0
C4364 C 0.32026 1.00233 0.08259 0.0
C4365 C 0.32318 0.98634 0.07003 0.0
C4366 C 0.35417 0.98001 0.06481 0.0
C4367 C 0.38132 0.99334 0.07106 0.0
H4368 H 0.72442 0.9635 0.8107 0.0
H4369 H 0.76865 1.01972 0.7785 0.0
H4370 H 0.7074 1.01332 0.82187 0.0
H4371 H 0.75028 0.06836 0.78919 0.0
H4372 H 0.73799 0.15467 0.81211 0.0
H4373 H 0.71368 0.10803 0.80095 0.0
H4374 H 0.75247 1.04609 0.83211 0.0
H4375 H 0.77784 0.09153 0.84277 0.0
C4376 C 0.72955 0.98619 0.80571 0.0
C4377 C 0.74938 0.98736 0.79401 0.0
C4378 C 0.71939 1.01471 0.81205 0.0
C4379 C 0.72832 1.04473 0.8066 0.0
C4380 C 0.74306 1.04565 0.7937 0.0
C4381 C 0.75372 1.01733 0.78752 0.0
C4382 C 0.74085 0.13117 0.81672 0.0
C4383 C 0.7609 0.12695 0.82812 0.0
C4384 C 0.72649 0.10455 0.81042 0.0
C4385 C 0.73151 0.07336 0.81554 0.0
C4386 C 0.74784 0.06979 0.82794 0.0
C4387 C 0.7626 0.09617 0.83409 0.0
H4388 H 0.70253 0.98537 0.56233 0.0
H4389 H 0.76094 1.02187 0.59539 0.0
H4390 H 0.75115 0.96432 0.55139 0.0
H4391 H 0.8081 0.99957 0.58493 0.0
H4392 H 0.89418 0.98291 0.56279 0.0
H4393 H 0.84516 0.96105 0.57315 0.0
H4394 H 0.78837 1.00623 0.5418 0.0
H4395 H 0.83615 1.02912 0.53195 0.0
C4396 C 0.72531 0.98802 0.56754 0.0
C4397 C 0.72768 1.00683 0.57946 0.0
C4398 C 0.7531 0.9755 0.56134 0.0
C4399 C 0.78354 0.98111 0.56711 0.0
C4400 C 0.78508 0.99486 0.58015 0.0
C4401 C 0.75757 1.00785 0.58621 0.0
C4402 C 0.87129 0.98767 0.55796 0.0
C4403 C 0.86928 1.00879 0.54677 0.0
C4404 C 0.84327 0.9747 0.56378 0.0
C4405 C 0.81287 0.98232 0.55842 0.0
C4406 C 0.81137 0.99962 0.54616 0.0
C4407 C 0.83914 1.01296 0.54049 0.0
H4408 H 0.83127 0.97699 0.30474 0.0
H4409 H 0.87416 0.99022 0.34448 0.0
H4410 H 0.85371 1.02735 0.29735 0.0
H4411 H 0.89517 1.04233 0.3371 0.0
H4412 H 0.83313 0.13767 0.32562 0.0
H4413 H 0.8542 0.08692 0.33323 0.0
H4414 H 0.89655 0.07019 0.29356 0.0
H4415 H 0.87677 0.1225 0.28594 0.0
C4416 C 0.84658 0.98977 0.31181 0.0
C4417 C 0.84973 0.97977 0.32545 0.0
C4418 C 0.85962 1.01897 0.30749 0.0
C4419 C 0.8756 1.03916 0.31674 0.0
C4420 C 0.88249 1.0274 0.32982 0.0
C4421 C 0.86997 0.99775 0.33409 0.0
C4422 C 0.8484 0.12436 0.31863 0.0
C4423 C 0.85203 0.13385 0.30493 0.0
C4424 C 0.86064 0.09497 0.32307 0.0
C4425 C 0.87631 0.07419 0.31388 0.0
C4426 C 0.88403 0.08557 0.30078 0.0
C4427 C 0.87226 0.11535 0.29638 0.0
H4428 H 0.84164 0.08713 0.10067 0.0
H4429 H 0.89691 0.13641 0.06948 0.0
H4430 H 0.79256 0.10718 0.091 0.0
H4431 H 0.84675 0.15523 1.05933 0.0
H4432 H 0.7052 0.12702 0.06975 0.0
H4433 H 0.75319 0.14755 0.08117 0.0
H4434 H 0.81235 0.11258 1.04797 0.0
H4435 H 0.76564 0.09063 1.03704 0.0
C4436 C 0.8437 0.10344 0.09213 0.0
C4437 C 0.87352 0.10904 0.0856 0.0
C4438 C 0.81518 0.11505 0.08654 0.0
C4439 C 0.81573 0.13207 0.0742 0.0
C4440 C 0.84564 0.14164 0.06874 0.0
C4441 C 0.87433 0.13048 0.07448 0.0
C4442 C 0.72836 0.1242 0.06475 0.0
C4443 C 0.73136 0.10602 1.05266 0.0
C4444 C 0.75578 0.1364 0.07123 0.0
C4445 C 0.78655 0.13127 0.06556 0.0
C4446 C 0.78899 0.11719 1.05258 0.0
C4447 C 0.76183 0.10446 1.04627 0.0
H4448 H 0.88426 0.65085 0.81267 0.0
H4449 H 0.84183 0.59288 0.84474 0.0
H4450 H 0.9031 0.60175 0.80142 0.0
H4451 H 0.86201 0.5449 0.83396 0.0
H4452 H 0.83945 0.51732 0.78059 0.0
H4453 H 0.86111 0.56508 0.79093 0.0
H4454 H 0.9032 0.5079 0.82291 0.0
H4455 H 0.88277 0.45901 0.8121 0.0
C4456 C 0.8798 0.62793 0.81758 0.0
C4457 C 0.86037 0.62602 0.82939 0.0
C4458 C 0.89099 0.59985 0.8112 0.0
C4459 C 0.88354 0.56947 0.81668 0.0
C4460 C 0.86833 0.56791 0.82948 0.0
C4461 C 0.85664 0.59579 0.83571 0.0
C4462 C 0.85478 0.51427 0.78938 0.0
C4463 C 0.85826 0.48407 0.79574 0.0
C4464 C 0.86733 0.54201 0.79535 0.0
C4465 C 0.8832 0.54033 0.80792 0.0
C4466 C 0.89055 0.50989 0.81332 0.0
C4467 C 0.87847 0.48195 0.80719 0.0
H4468 H 0.85163 0.51456 1.03714 0.0
H4469 H 0.91405 0.56791 0.06424 0.0
H4470 H 0.80953 0.55335 1.04074 0.0
H4471 H 0.87047 0.60651 0.06836 0.0
H4472 H 0.77006 0.58571 0.09105 0.0
H4473 H 0.82265 0.58972 0.0817 0.0
H4474 H 0.78326 0.60777 1.04185 0.0
H4475 H 0.72899 0.60614 1.05143 0.0
C4476 C 0.8569 0.53514 1.04355 0.0
C4477 C 0.88617 0.53757 1.05066 0.0
C4478 C 0.83259 0.55773 1.04553 0.0
C4479 C 0.8365 0.58291 1.05495 0.0
C4480 C 0.86674 0.58716 1.06112 0.0
C4481 C 0.89142 0.56471 1.05896 0.0
C4482 C 0.77163 0.59237 0.08044 0.0
C4483 C 0.74435 0.5934 0.0719 0.0
C4484 C 0.80256 0.59481 0.07503 0.0
C4485 C 0.8071 0.59757 1.06093 0.0
C4486 C 0.78032 0.60455 1.05275 0.0
C4487 C 0.74913 0.60292 1.05824 0.0
H4488 H 0.73526 0.4635 0.31353 0.0
H4489 H 0.77688 0.52281 0.34522 0.0
H4490 H 0.71546 0.51206 0.30233 0.0
H4491 H 0.75583 0.57021 0.3345 0.0
H4492 H 0.73366 0.65536 0.31269 0.0
H4493 H 0.71438 0.60635 0.3238 0.0
H4494 H 0.75608 0.54927 0.29138 0.0
H4495 H 0.77645 0.59724 0.28068 0.0
C4496 C 0.73936 0.48659 0.31837 0.0
C4497 C 0.7588 0.48906 0.33006 0.0
C4498 C 0.72763 0.51435 0.31202 0.0
C4499 C 0.73458 0.54496 0.3174 0.0
C4500 C 0.74986 0.54702 0.3301 0.0
C4501 C 0.76206 0.51947 0.3363 0.0
C4502 C 0.73809 0.6324 0.30776 0.0
C4503 C 0.75772 0.63039 0.29602 0.0
C4504 C 0.72668 0.60438 0.31407 0.0
C4505 C 0.73426 0.57396 0.30861 0.0
C4506 C 0.74967 0.57231 0.29585 0.0
C4507 C 0.76148 0.60015 0.28967 0.0
H4508 H 0.71039 0.48188 0.56103 0.0
H4509 H 0.77022 0.52531 0.52976 0.0
H4510 H 0.75852 0.45858 0.57128 0.0
H4511 H 0.81706 0.50102 0.53952 0.0
H4512 H 0.90203 0.47953 0.56052 0.0
H4513 H 0.85334 0.45946 0.54953 0.0
H4514 H 0.79591 0.49685 0.58281 0.0
H4515 H 0.84333 0.51805 0.59335 0.0
C4516 C 0.73344 0.48565 0.55605 0.0
C4517 C 0.7363 0.50673 0.54487 0.0
C4518 C 0.76095 0.4719 0.56184 0.0
C4519 C 0.79166 0.4786 0.5564 0.0
C4520 C 0.79382 0.49528 0.544 0.0
C4521 C 0.76655 0.50941 0.53836 0.0
C4522 C 0.87909 0.48281 0.56566 0.0
C4523 C 0.87675 0.50177 0.57755 0.0
C4524 C 0.85125 0.4709 0.55943 0.0
C4525 C 0.82072 0.4773 0.56512 0.0
C4526 C 0.819 0.49145 0.57811 0.0
C4527 C 0.84661 0.5038 0.5842 0.0
H4528 H 0.23674 0.65337 0.31076 0.0
H4529 H 0.27818 0.59478 0.34264 0.0
H4530 H 0.21582 0.60462 0.29997 0.0
H4531 H 0.25602 0.5473 0.33235 0.0
H4532 H 0.23179 0.46162 0.31179 0.0
H4533 H 0.21305 0.51164 0.32231 0.0
H4534 H 0.25504 0.56578 0.28915 0.0
H4535 H 0.27495 0.51693 0.27906 0.0
C4536 C 0.24064 0.63043 0.31571 0.0
C4537 C 0.26013 0.62819 0.32738 0.0
C4538 C 0.22822 0.60258 0.30962 0.0
C4539 C 0.2346 0.57212 0.31522 0.0
C4540 C 0.25035 0.57038 0.32782 0.0
C4541 C 0.26322 0.59797 0.33375 0.0
C4542 C 0.23638 0.48413 0.30657 0.0
C4543 C 0.25611 0.48508 0.29484 0.0
C4544 C 0.22525 0.51273 0.31253 0.0
C4545 C 0.23323 0.54264 0.30671 0.0
C4546 C 0.24842 0.54316 0.2939 0.0
C4547 C 0.25997 0.51476 0.28808 0.0
H4548 H 0.34429 0.52539 1.03322 0.0
H4549 H 0.40715 0.49005 0.06494 0.0
H4550 H 0.29918 0.4996 1.04399 0.0
H4551 H 0.36064 0.46553 0.07623 0.0
H4552 H 0.27074 0.52214 0.09703 0.0
H4553 H 0.32012 0.50397 0.08679 0.0
H4554 H 0.26678 0.45522 1.05525 0.0
H4555 H 0.21628 0.47202 0.06602 0.0
C4556 C 0.34904 0.51101 1.04217 0.0
C4557 C 0.37953 0.51093 1.04841 0.0
C4558 C 0.32281 0.496 1.04838 0.0
C4559 C 0.32621 0.48113 1.06112 0.0
C4560 C 0.3573 0.47729 0.06649 0.0
C4561 C 0.38382 0.49181 1.06011 0.0
C4562 C 0.26896 0.50606 0.08838 0.0
C4563 C 0.23918 0.49962 0.08211 0.0
C4564 C 0.29767 0.49549 0.08247 0.0
C4565 C 0.29736 0.47881 0.07002 0.0
C4566 C 0.26766 0.46852 0.06475 0.0
C4567 C 0.23877 0.4786 0.07082 0.0
H4568 H 0.37486 0.6305 0.78654 0.0
H4569 H 0.32818 0.6438 0.82573 0.0
H4570 H 0.39312 0.57735 0.7938 0.0
H4571 H 0.34802 0.59221 0.83305 0.0
H4572 H 0.37116 0.49487 0.84367 0.0
H4573 H 0.39083 0.54786 0.83674 0.0
H4574 H 0.34842 0.5344 0.79708 0.0
H4575 H 0.32727 0.48287 0.80408 0.0
C4576 C 0.36936 0.62273 0.79682 0.0
C4577 C 0.34876 0.64102 0.80529 0.0
C4578 C 0.38025 0.59247 0.80101 0.0
C4579 C 0.37146 0.58047 0.81387 0.0
C4580 C 0.35528 0.60084 0.82307 0.0
C4581 C 0.34381 0.63069 0.81881 0.0
C4582 C 0.36649 0.50294 0.83338 0.0
C4583 C 0.34648 0.48498 0.82464 0.0
C4584 C 0.37821 0.53309 0.82938 0.0
C4585 C 0.37078 0.54537 0.81645 0.0
C4586 C 0.35475 0.52549 0.80709 0.0
C4587 C 0.3425 0.49574 0.81116 0.0
H4588 H 0.21046 0.62452 0.56284 0.0
H4589 H 0.26995 0.58026 0.53161 0.0
H4590 H 0.25886 0.64707 0.57325 0.0
H4591 H 0.31716 0.60388 0.54154 0.0
H4592 H 0.40232 0.63227 0.56181 0.0
H4593 H 0.35221 0.64848 0.55084 0.0
H4594 H 0.2979 0.60956 0.58467 0.0
H4595 H 0.34675 0.59192 0.59517 0.0
C4596 C 0.23354 0.6203 0.55795 0.0
C4597 C 0.23615 0.59967 0.54658 0.0
C4598 C 0.26118 0.63364 0.56382 0.0
C4599 C 0.29182 0.62696 0.5583 0.0
C4600 C 0.29393 0.60982 0.54599 0.0
C4601 C 0.26653 0.5961 0.54027 0.0
C4602 C 0.37974 0.62775 0.56706 0.0
C4603 C 0.37886 0.60953 0.57915 0.0
C4604 C 0.35108 0.63746 0.56084 0.0
C4605 C 0.32115 0.62967 0.56677 0.0
C4606 C 0.32054 0.61604 0.57983 0.0
C4607 C 0.34899 0.60581 0.5859 0.0
loop_
_geom_bond_atom_site_label_1
_geom_bond_atom_site_label_2
_geom_bond_distance
_geom_bond_site_symmetry_2
_ccdc_geom_bond_type
Eu0 N29 2.600 . S
Eu0 N35 2.562 . S
Eu0 O44 2.462 . S
Eu0 O45 2.373 . S
Eu0 O47 2.432 . S
Eu0 O48 2.291 . S
Eu0 O52 2.335 . S
Eu0 O55 2.372 . S
Eu0 C64 2.787 . S
C1 N2 1.365 . S
C1 C4 1.405 . S
C1 C8 1.448 . S
N2 C1 1.365 . S
N2 C5 1.319 . S
N2 Eu11 2.600 . S
C3 C5 1.397 . S
C3 C6 1.367 . S
C3 H23 0.931 . S
C4 C1 1.405 . S
C4 C6 1.403 . S
C4 C10 1.439 . S
C5 N2 1.319 . S
C5 C3 1.397 . S
C5 H16 0.930 . S
C6 C3 1.367 . S
C6 C4 1.403 . S
C6 H27 0.929 . S
C7 C8 1.430 . S
C7 C9 1.387 . S
C7 C13 1.404 . S
C8 C1 1.448 . S
C8 C7 1.430 . S
C8 N12 1.351 . S
C9 C7 1.387 . S
C9 C10 1.374 . S
C9 H24 0.931 . S
C10 C4 1.439 . S
C10 C9 1.374 . S
C10 H25 0.931 . S
Eu11 N2 2.600 . S
Eu11 N12 2.562 . S
Eu11 O46 2.335 . S
Eu11 O49 2.372 . S
Eu11 O50 2.462 . S
Eu11 O51 2.373 . S
Eu11 O53 2.432 . S
Eu11 O54 2.291 . S
Eu11 C75 2.787 . S
N12 C8 1.351 . S
N12 Eu11 2.562 . S
N12 C14 1.325 . S
C13 C7 1.404 . S
C13 C15 1.366 . S
C13 H21 0.930 . S
C14 N12 1.325 . S
C14 C15 1.416 . S
C14 H20 0.929 . S
C15 C13 1.366 . S
C15 C14 1.416 . S
C15 H17 0.930 . S
H16 C5 0.930 . S
H17 C15 0.930 . S
H18 C33 0.930 . S
H19 C40 0.930 . S
H20 C14 0.929 . S
H21 C13 0.930 . S
H22 C36 0.929 . S
H23 C3 0.931 . S
H24 C9 0.931 . S
H25 C10 0.931 . S
H26 C31 0.931 . S
H27 C6 0.929 . S
H28 C39 0.930 . S
N29 Eu0 2.600 . S
N29 C30 1.365 . S
N29 C33 1.319 . S
C30 N29 1.365 . S
C30 C32 1.405 . S
C30 C38 1.448 . S
C31 H26 0.931 . S
C31 C33 1.397 . S
C31 C34 1.367 . S
C32 C30 1.405 . S
C32 C34 1.403 . S
C32 C65 1.439 . S
C33 H18 0.930 . S
C33 N29 1.319 . S
C33 C31 1.397 . S
C34 C31 1.367 . S
C34 C32 1.403 . S
C34 H41 0.929 . S
N35 Eu0 2.562 . S
N35 C36 1.325 . S
N35 C38 1.351 . S
C36 H22 0.929 . S
C36 N35 1.325 . S
C36 C40 1.416 . S
C37 C38 1.430 . S
C37 C39 1.404 . S
C37 C66 1.387 . S
C38 C30 1.448 . S
C38 N35 1.351 . S
C38 C37 1.430 . S
C39 H28 0.930 . S
C39 C37 1.404 . S
C39 C40 1.366 . S
C40 H19 0.930 . S
C40 C36 1.416 . S
C40 C39 1.366 . S
H41 C34 0.929 . S
H42 C65 0.931 . S
H43 C66 0.931 . S
O44 Eu0 2.462 . S
O44 C64 1.252 . S
O45 Eu0 2.373 . S
O45 C56 1.249 . S
O46 Eu11 2.335 . S
O46 C56 1.264 . S
O47 Eu0 2.432 . S
O47 C64 1.268 . S
O48 Eu0 2.291 . S
O48 C63 1.255 . S
O49 Eu11 2.372 . S
O49 C63 1.257 . S
O50 Eu11 2.462 . S
O50 C75 1.252 . S
O51 Eu11 2.373 . S
O51 C67 1.249 . S
O52 Eu0 2.335 . S
O52 C67 1.264 . S
O53 Eu11 2.432 . S
O53 C75 1.268 . S
O54 Eu11 2.291 . S
O54 C74 1.255 . S
O55 Eu0 2.372 . S
O55 C74 1.257 . S
C56 O45 1.249 . S
C56 O46 1.264 . S
C57 C60 1.382 . S
C57 C62 1.390 . S
C57 C64 1.506 . S
C58 C59 1.398 . S
C58 C62 1.392 . S
C59 C58 1.398 . S
C59 C61 1.372 . S
C59 H76 0.931 . S
C60 C57 1.382 . S
C60 C61 1.390 . S
C60 H77 0.931 . S
C61 C59 1.372 . S
C61 C60 1.390 . S
C61 H78 0.929 . S
C62 C57 1.390 . S
C62 C58 1.392 . S
C62 H79 0.930 . S
C63 O48 1.255 . S
C63 O49 1.257 . S
C64 Eu0 2.787 . S
C64 O44 1.252 . S
C64 O47 1.268 . S
C64 C57 1.506 . S
C65 C32 1.439 . S
C65 H42 0.931 . S
C65 C66 1.374 . S
C66 C37 1.387 . S
C66 H43 0.931 . S
C66 C65 1.374 . S
C67 O51 1.249 . S
C67 O52 1.264 . S
C68 C71 1.382 . S
C68 C72 1.390 . S
C68 C75 1.506 . S
C69 C70 1.398 . S
C69 C72 1.392 . S
C70 C69 1.398 . S
C70 C73 1.372 . S
C70 H80 0.931 . S
C71 C68 1.382 . S
C71 C73 1.390 . S
C71 H81 0.931 . S
C72 C68 1.390 . S
C72 C69 1.392 . S
C72 H82 0.930 . S
C73 C70 1.372 . S
C73 C71 1.390 . S
C73 H83 0.929 . S
C74 O54 1.255 . S
C74 O55 1.257 . S
C75 Eu11 2.787 . S
C75 O50 1.252 . S
C75 O53 1.268 . S
C75 C68 1.506 . S
H76 C59 0.931 . S
H77 C60 0.931 . S
H78 C61 0.929 . S
H79 C62 0.930 . S
H80 C70 0.931 . S
H81 C71 0.931 . S
H82 C72 0.930 . S
H83 C73 0.929 . S
Eu84 N113 2.600 . S
Eu84 N119 2.562 . S
Eu84 O128 2.462 . S
Eu84 O129 2.373 . S
Eu84 O131 2.432 . S
Eu84 O132 2.291 . S
Eu84 O136 2.335 . S
Eu84 O139 2.372 . S
Eu84 C148 2.787 . S
C85 N86 1.365 . S
C85 C88 1.405 . S
C85 C92 1.448 1_545 S
N86 C85 1.365 . S
N86 C89 1.319 1_655 S
N86 Eu95 2.600 1_645 S
C87 C89 1.397 . S
C87 C90 1.367 1_455 S
C87 H107 0.931 . S
C88 C85 1.405 . S
C88 C90 1.403 . S
C88 C94 1.439 . S
C89 N86 1.319 1_455 S
C89 C87 1.397 . S
C89 H100 0.930 . S
C90 C87 1.367 1_655 S
C90 C88 1.403 . S
C90 H111 0.929 . S
C91 C92 1.430 1_545 S
C91 C93 1.387 . S
C91 C97 1.404 1_545 S
C92 C85 1.448 1_565 S
C92 C91 1.430 1_565 S
C92 N96 1.351 . S
C93 C91 1.387 . S
C93 C94 1.374 . S
C93 H108 0.931 . S
C94 C88 1.439 . S
C94 C93 1.374 . S
C94 H109 0.931 . S
Eu95 N86 2.600 1_465 S
Eu95 N96 2.562 1_455 S
Eu95 O130 2.335 . S
Eu95 O133 2.372 . S
Eu95 O134 2.462 1_455 S
Eu95 O135 2.373 . S
Eu95 O137 2.432 1_455 S
Eu95 O138 2.291 . S
Eu95 C159 2.787 1_455 S
N96 C92 1.351 . S
N96 Eu95 2.562 1_655 S
N96 C98 1.325 . S
C97 C91 1.404 1_565 S
C97 C99 1.366 . S
C97 H105 0.930 . S
C98 N96 1.325 . S
C98 C99 1.416 . S
C98 H104 0.929 . S
C99 C97 1.366 . S
C99 C98 1.416 . S
C99 H101 0.930 . S
H100 C89 0.930 . S
H101 C99 0.930 . S
H102 C117 0.930 . S
H103 C124 0.930 . S
H104 C98 0.929 . S
H105 C97 0.930 . S
H106 C120 0.929 . S
H107 C87 0.931 . S
H108 C93 0.931 . S
H109 C94 0.931 . S
H110 C115 0.931 . S
H111 C90 0.929 . S
H112 C123 0.930 . S
N113 Eu84 2.600 . S
N113 C114 1.365 . S
N113 C117 1.319 . S
C114 N113 1.365 . S
C114 C116 1.405 . S
C114 C122 1.448 . S
C115 H110 0.931 . S
C115 C117 1.397 . S
C115 C118 1.367 . S
C116 C114 1.405 . S
C116 C118 1.403 . S
C116 C149 1.439 . S
C117 H102 0.930 . S
C117 N113 1.319 . S
C117 C115 1.397 . S
C118 C115 1.367 . S
C118 C116 1.403 . S
C118 H125 0.929 . S
N119 Eu84 2.562 . S
N119 C120 1.325 . S
N119 C122 1.351 . S
C120 H106 0.929 . S
C120 N119 1.325 . S
C120 C124 1.416 . S
C121 C122 1.430 . S
C121 C123 1.404 . S
C121 C150 1.387 . S
C122 C114 1.448 . S
C122 N119 1.351 . S
C122 C121 1.430 . S
C123 H112 0.930 . S
C123 C121 1.404 . S
C123 C124 1.366 . S
C124 H103 0.930 . S
C124 C120 1.416 . S
C124 C123 1.366 . S
H125 C118 0.929 . S
H126 C149 0.931 . S
H127 C150 0.931 . S
O128 Eu84 2.462 . S
O128 C148 1.252 . S
O129 Eu84 2.373 . S
O129 C140 1.249 . S
O130 Eu95 2.335 . S
O130 C140 1.264 . S
O131 Eu84 2.432 . S
O131 C148 1.268 . S
O132 Eu84 2.291 . S
O132 C147 1.255 . S
O133 Eu95 2.372 . S
O133 C147 1.257 . S
O134 Eu95 2.462 1_655 S
O134 C159 1.252 . S
O135 Eu95 2.373 . S
O135 C151 1.249 . S
O136 Eu84 2.335 . S
O136 C151 1.264 . S
O137 Eu95 2.432 1_655 S
O137 C159 1.268 . S
O138 Eu95 2.291 . S
O138 C158 1.255 . S
O139 Eu84 2.372 . S
O139 C158 1.257 . S
C140 O129 1.249 . S
C140 O130 1.264 . S
C141 C144 1.382 . S
C141 C146 1.390 . S
C141 C148 1.506 . S
C142 C143 1.398 . S
C142 C146 1.392 . S
C143 C142 1.398 . S
C143 C145 1.372 . S
C143 H160 0.931 . S
C144 C141 1.382 . S
C144 C145 1.390 . S
C144 H161 0.931 . S
C145 C143 1.372 . S
C145 C144 1.390 . S
C145 H162 0.929 . S
C146 C141 1.390 . S
C146 C142 1.392 . S
C146 H163 0.930 . S
C147 O132 1.255 . S
C147 O133 1.257 . S
C148 Eu84 2.787 . S
C148 O128 1.252 . S
C148 O131 1.268 . S
C148 C141 1.506 . S
C149 C116 1.439 . S
C149 H126 0.931 . S
C149 C150 1.374 . S
C150 C121 1.387 . S
C150 H127 0.931 . S
C150 C149 1.374 . S
C151 O135 1.249 . S
C151 O136 1.264 . S
C152 C155 1.382 . S
C152 C156 1.390 . S
C152 C159 1.506 . S
C153 C154 1.398 . S
C153 C156 1.392 . S
C154 C153 1.398 . S
C154 C157 1.372 . S
C154 H164 0.931 . S
C155 C152 1.382 . S
C155 C157 1.390 . S
C155 H165 0.931 . S
C156 C152 1.390 . S
C156 C153 1.392 . S
C156 H166 0.930 . S
C157 C154 1.372 . S
C157 C155 1.390 . S
C157 H167 0.929 . S
C158 O138 1.255 . S
C158 O139 1.257 . S
C159 Eu95 2.787 1_655 S
C159 O134 1.252 . S
C159 O137 1.268 . S
C159 C152 1.506 . S
H160 C143 0.931 . S
H161 C144 0.931 . S
H162 C145 0.929 . S
H163 C146 0.930 . S
H164 C154 0.931 . S
H165 C155 0.931 . S
H166 C156 0.930 . S
H167 C157 0.929 . S
Eu168 N197 2.600 . S
Eu168 N203 2.562 . S
Eu168 O212 2.462 . S
Eu168 O213 2.373 . S
Eu168 O215 2.432 . S
Eu168 O216 2.291 . S
Eu168 O220 2.335 . S
Eu168 O223 2.372 . S
Eu168 C232 2.787 . S
C169 N170 1.365 . S
C169 C172 1.405 . S
C169 C176 1.448 . S
N170 C169 1.365 . S
N170 C173 1.319 . S
N170 Eu179 2.600 . S
C171 C173 1.397 . S
C171 C174 1.367 . S
C171 H191 0.931 . S
C172 C169 1.405 . S
C172 C174 1.403 . S
C172 C178 1.439 . S
C173 N170 1.319 . S
C173 C171 1.397 . S
C173 H184 0.930 . S
C174 C171 1.367 . S
C174 C172 1.403 . S
C174 H195 0.929 . S
C175 C176 1.430 . S
C175 C177 1.387 . S
C175 C181 1.404 . S
C176 C169 1.448 . S
C176 C175 1.430 . S
C176 N180 1.351 . S
C177 C175 1.387 . S
C177 C178 1.374 . S
C177 H192 0.931 . S
C178 C172 1.439 . S
C178 C177 1.374 . S
C178 H193 0.931 . S
Eu179 N170 2.600 . S
Eu179 N180 2.562 . S
Eu179 O214 2.335 . S
Eu179 O217 2.372 . S
Eu179 O218 2.462 . S
Eu179 O219 2.373 . S
Eu179 O221 2.432 . S
Eu179 O222 2.291 . S
Eu179 C243 2.787 . S
N180 C176 1.351 . S
N180 Eu179 2.562 . S
N180 C182 1.325 . S
C181 C175 1.404 . S
C181 C183 1.366 . S
C181 H189 0.930 . S
C182 N180 1.325 . S
C182 C183 1.416 . S
C182 H188 0.929 . S
C183 C181 1.366 . S
C183 C182 1.416 . S
C183 H185 0.930 . S
H184 C173 0.930 . S
H185 C183 0.930 . S
H186 C201 0.930 . S
H187 C208 0.930 . S
H188 C182 0.929 . S
H189 C181 0.930 . S
H190 C204 0.929 . S
H191 C171 0.931 . S
H192 C177 0.931 . S
H193 C178 0.931 . S
H194 C199 0.931 . S
H195 C174 0.929 . S
H196 C207 0.930 . S
N197 Eu168 2.600 . S
N197 C198 1.365 . S
N197 C201 1.319 . S
C198 N197 1.365 . S
C198 C200 1.405 . S
C198 C206 1.448 . S
C199 H194 0.931 . S
C199 C201 1.397 . S
C199 C202 1.367 . S
C200 C198 1.405 . S
C200 C202 1.403 . S
C200 C233 1.439 . S
C201 H186 0.930 . S
C201 N197 1.319 . S
C201 C199 1.397 . S
C202 C199 1.367 . S
C202 C200 1.403 . S
C202 H209 0.929 . S
N203 Eu168 2.562 . S
N203 C204 1.325 . S
N203 C206 1.351 . S
C204 H190 0.929 . S
C204 N203 1.325 . S
C204 C208 1.416 . S
C205 C206 1.430 . S
C205 C207 1.404 . S
C205 C234 1.387 . S
C206 C198 1.448 . S
C206 N203 1.351 . S
C206 C205 1.430 . S
C207 H196 0.930 . S
C207 C205 1.404 . S
C207 C208 1.366 . S
C208 H187 0.930 . S
C208 C204 1.416 . S
C208 C207 1.366 . S
H209 C202 0.929 . S
H210 C233 0.931 . S
H211 C234 0.931 . S
O212 Eu168 2.462 . S
O212 C232 1.252 . S
O213 Eu168 2.373 . S
O213 C224 1.249 . S
O214 Eu179 2.335 . S
O214 C224 1.264 . S
O215 Eu168 2.432 . S
O215 C232 1.268 . S
O216 Eu168 2.291 . S
O216 C231 1.255 . S
O217 Eu179 2.372 . S
O217 C231 1.257 . S
O218 Eu179 2.462 . S
O218 C243 1.252 . S
O219 Eu179 2.373 . S
O219 C235 1.249 . S
O220 Eu168 2.335 . S
O220 C235 1.264 . S
O221 Eu179 2.432 . S
O221 C243 1.268 . S
O222 Eu179 2.291 . S
O222 C242 1.255 . S
O223 Eu168 2.372 . S
O223 C242 1.257 . S
C224 O213 1.249 . S
C224 O214 1.264 . S
C225 C228 1.382 . S
C225 C230 1.390 . S
C225 C232 1.506 . S
C226 C227 1.398 . S
C226 C230 1.392 . S
C227 C226 1.398 . S
C227 C229 1.372 . S
C227 H244 0.931 . S
C228 C225 1.382 . S
C228 C229 1.390 . S
C228 H245 0.931 . S
C229 C227 1.372 . S
C229 C228 1.390 . S
C229 H246 0.929 . S
C230 C225 1.390 . S
C230 C226 1.392 . S
C230 H247 0.930 . S
C231 O216 1.255 . S
C231 O217 1.257 . S
C232 Eu168 2.787 . S
C232 O212 1.252 . S
C232 O215 1.268 . S
C232 C225 1.506 . S
C233 C200 1.439 . S
C233 H210 0.931 . S
C233 C234 1.374 . S
C234 C205 1.387 . S
C234 H211 0.931 . S
C234 C233 1.374 . S
C235 O219 1.249 . S
C235 O220 1.264 . S
C236 C239 1.382 . S
C236 C240 1.390 . S
C236 C243 1.506 . S
C237 C238 1.398 . S
C237 C240 1.392 . S
C238 C237 1.398 . S
C238 C241 1.372 . S
C238 H248 0.931 . S
C239 C236 1.382 . S
C239 C241 1.390 . S
C239 H249 0.931 . S
C240 C236 1.390 . S
C240 C237 1.392 . S
C240 H250 0.930 . S
C241 C238 1.372 . S
C241 C239 1.390 . S
C241 H251 0.929 . S
C242 O222 1.255 . S
C242 O223 1.257 . S
C243 Eu179 2.787 . S
C243 O218 1.252 . S
C243 O221 1.268 . S
C243 C236 1.506 . S
H244 C227 0.931 . S
H245 C228 0.931 . S
H246 C229 0.929 . S
H247 C230 0.930 . S
H248 C238 0.931 . S
H249 C239 0.931 . S
H250 C240 0.930 . S
H251 C241 0.929 . S
Eu252 N281 2.600 . S
Eu252 N287 2.562 . S
Eu252 O296 2.462 . S
Eu252 O297 2.373 . S
Eu252 O299 2.432 . S
Eu252 O300 2.291 . S
Eu252 O304 2.335 . S
Eu252 O307 2.372 . S
Eu252 C316 2.787 . S
C253 N254 1.365 . S
C253 C256 1.405 . S
C253 C260 1.448 1_565 S
N254 C253 1.365 . S
N254 C257 1.319 . S
N254 Eu263 2.600 1_565 S
C255 C257 1.397 . S
C255 C258 1.367 . S
C255 H275 0.931 . S
C256 C253 1.405 . S
C256 C258 1.403 . S
C256 C262 1.439 . S
C257 N254 1.319 . S
C257 C255 1.397 . S
C257 H268 0.930 . S
C258 C255 1.367 . S
C258 C256 1.403 . S
C258 H279 0.929 . S
C259 C260 1.430 1_565 S
C259 C261 1.387 . S
C259 C265 1.404 1_565 S
C260 C253 1.448 1_545 S
C260 C259 1.430 1_545 S
C260 N264 1.351 . S
C261 C259 1.387 . S
C261 C262 1.374 . S
C261 H276 0.931 . S
C262 C256 1.439 . S
C262 C261 1.374 . S
C262 H277 0.931 . S
Eu263 N254 2.600 1_545 S
Eu263 N264 2.562 . S
Eu263 O298 2.335 . S
Eu263 O301 2.372 . S
Eu263 O302 2.462 . S
Eu263 O303 2.373 . S
Eu263 O305 2.432 . S
Eu263 O306 2.291 . S
Eu263 C327 2.787 . S
N264 C260 1.351 . S
N264 Eu263 2.562 . S
N264 C266 1.325 . S
C265 C259 1.404 1_545 S
C265 C267 1.366 . S
C265 H273 0.930 . S
C266 N264 1.325 . S
C266 C267 1.416 . S
C266 H272 0.929 . S
C267 C265 1.366 . S
C267 C266 1.416 . S
C267 H269 0.930 . S
H268 C257 0.930 . S
H269 C267 0.930 . S
H270 C285 0.930 . S
H271 C292 0.930 . S
H272 C266 0.929 . S
H273 C265 0.930 . S
H274 C288 0.929 . S
H275 C255 0.931 . S
H276 C261 0.931 . S
H277 C262 0.931 . S
H278 C283 0.931 . S
H279 C258 0.929 . S
H280 C291 0.930 . S
N281 Eu252 2.600 . S
N281 C282 1.365 . S
N281 C285 1.319 . S
C282 N281 1.365 . S
C282 C284 1.405 . S
C282 C290 1.448 . S
C283 H278 0.931 . S
C283 C285 1.397 . S
C283 C286 1.367 . S
C284 C282 1.405 . S
C284 C286 1.403 . S
C284 C317 1.439 . S
C285 H270 0.930 . S
C285 N281 1.319 . S
C285 C283 1.397 . S
C286 C283 1.367 . S
C286 C284 1.403 . S
C286 H293 0.929 . S
N287 Eu252 2.562 . S
N287 C288 1.325 . S
N287 C290 1.351 . S
C288 H274 0.929 . S
C288 N287 1.325 . S
C288 C292 1.416 . S
C289 C290 1.430 . S
C289 C291 1.404 . S
C289 C318 1.387 . S
C290 C282 1.448 . S
C290 N287 1.351 . S
C290 C289 1.430 . S
C291 H280 0.930 . S
C291 C289 1.404 . S
C291 C292 1.366 . S
C292 H271 0.930 . S
C292 C288 1.416 . S
C292 C291 1.366 . S
H293 C286 0.929 . S
H294 C317 0.931 . S
H295 C318 0.931 . S
O296 Eu252 2.462 . S
O296 C316 1.252 . S
O297 Eu252 2.373 . S
O297 C308 1.249 . S
O298 Eu263 2.335 . S
O298 C308 1.264 . S
O299 Eu252 2.432 . S
O299 C316 1.268 . S
O300 Eu252 2.291 . S
O300 C315 1.255 . S
O301 Eu263 2.372 . S
O301 C315 1.257 . S
O302 Eu263 2.462 . S
O302 C327 1.252 . S
O303 Eu263 2.373 . S
O303 C319 1.249 . S
O304 Eu252 2.335 . S
O304 C319 1.264 . S
O305 Eu263 2.432 . S
O305 C327 1.268 . S
O306 Eu263 2.291 . S
O306 C326 1.255 . S
O307 Eu252 2.372 . S
O307 C326 1.257 . S
C308 O297 1.249 . S
C308 O298 1.264 . S
C309 C312 1.382 . S
C309 C314 1.390 . S
C309 C316 1.506 . S
C310 C311 1.398 . S
C310 C314 1.392 . S
C311 C310 1.398 . S
C311 C313 1.372 . S
C311 H328 0.931 . S
C312 C309 1.382 . S
C312 C313 1.390 . S
C312 H329 0.931 . S
C313 C311 1.372 . S
C313 C312 1.390 . S
C313 H330 0.929 . S
C314 C309 1.390 . S
C314 C310 1.392 . S
C314 H331 0.930 . S
C315 O300 1.255 . S
C315 O301 1.257 . S
C316 Eu252 2.787 . S
C316 O296 1.252 . S
C316 O299 1.268 . S
C316 C309 1.506 . S
C317 C284 1.439 . S
C317 H294 0.931 . S
C317 C318 1.374 . S
C318 C289 1.387 . S
C318 H295 0.931 . S
C318 C317 1.374 . S
C319 O303 1.249 . S
C319 O304 1.264 . S
C320 C323 1.382 . S
C320 C324 1.390 . S
C320 C327 1.506 . S
C321 C322 1.398 . S
C321 C324 1.392 . S
C322 C321 1.398 . S
C322 C325 1.372 . S
C322 H332 0.931 . S
C323 C320 1.382 . S
C323 C325 1.390 . S
C323 H333 0.931 . S
C324 C320 1.390 . S
C324 C321 1.392 . S
C324 H334 0.930 . S
C325 C322 1.372 . S
C325 C323 1.390 . S
C325 H335 0.929 . S
C326 O306 1.255 . S
C326 O307 1.257 . S
C327 Eu263 2.787 . S
C327 O302 1.252 . S
C327 O305 1.268 . S
C327 C320 1.506 . S
H328 C311 0.931 . S
H329 C312 0.931 . S
H330 C313 0.929 . S
H331 C314 0.930 . S
H332 C322 0.931 . S
H333 C323 0.931 . S
H334 C324 0.930 . S
H335 C325 0.929 . S
Eu336 N365 2.600 . S
Eu336 N371 2.562 . S
Eu336 O380 2.462 . S
Eu336 O381 2.373 . S
Eu336 O383 2.432 . S
Eu336 O384 2.291 . S
Eu336 O388 2.335 . S
Eu336 O391 2.372 . S
Eu336 C400 2.787 . S
C337 N338 1.365 . S
C337 C340 1.405 . S
C337 C344 1.448 . S
N338 C337 1.365 . S
N338 C341 1.319 . S
N338 Eu347 2.600 . S
C339 C341 1.397 . S
C339 C342 1.367 . S
C339 H359 0.931 . S
C340 C337 1.405 . S
C340 C342 1.403 . S
C340 C346 1.439 . S
C341 N338 1.319 . S
C341 C339 1.397 . S
C341 H352 0.930 . S
C342 C339 1.367 . S
C342 C340 1.403 . S
C342 H363 0.929 . S
C343 C344 1.430 . S
C343 C345 1.387 . S
C343 C349 1.404 . S
C344 C337 1.448 . S
C344 C343 1.430 . S
C344 N348 1.351 . S
C345 C343 1.387 . S
C345 C346 1.374 . S
C345 H360 0.931 . S
C346 C340 1.439 . S
C346 C345 1.374 . S
C346 H361 0.931 . S
Eu347 N338 2.600 . S
Eu347 N348 2.562 . S
Eu347 O382 2.335 . S
Eu347 O385 2.372 . S
Eu347 O386 2.462 . S
Eu347 O387 2.373 . S
Eu347 O389 2.432 . S
Eu347 O390 2.291 . S
Eu347 C411 2.787 . S
N348 C344 1.351 . S
N348 Eu347 2.562 . S
N348 C350 1.325 . S
C349 C343 1.404 . S
C349 C351 1.366 . S
C349 H357 0.930 . S
C350 N348 1.325 . S
C350 C351 1.416 . S
C350 H356 0.929 . S
C351 C349 1.366 . S
C351 C350 1.416 . S
C351 H353 0.930 . S
H352 C341 0.930 . S
H353 C351 0.930 . S
H354 C369 0.930 . S
H355 C376 0.930 . S
H356 C350 0.929 . S
H357 C349 0.930 . S
H358 C372 0.929 . S
H359 C339 0.931 . S
H360 C345 0.931 . S
H361 C346 0.931 . S
H362 C367 0.931 . S
H363 C342 0.929 . S
H364 C375 0.930 . S
N365 Eu336 2.600 . S
N365 C366 1.365 . S
N365 C369 1.319 . S
C366 N365 1.365 . S
C366 C368 1.405 . S
C366 C374 1.448 . S
C367 H362 0.931 . S
C367 C369 1.397 . S
C367 C370 1.367 . S
C368 C366 1.405 . S
C368 C370 1.403 . S
C368 C401 1.439 . S
C369 H354 0.930 . S
C369 N365 1.319 . S
C369 C367 1.397 . S
C370 C367 1.367 . S
C370 C368 1.403 . S
C370 H377 0.929 . S
N371 Eu336 2.562 . S
N371 C372 1.325 . S
N371 C374 1.351 . S
C372 H358 0.929 . S
C372 N371 1.325 . S
C372 C376 1.416 . S
C373 C374 1.430 . S
C373 C375 1.404 . S
C373 C402 1.387 . S
C374 C366 1.448 . S
C374 N371 1.351 . S
C374 C373 1.430 . S
C375 H364 0.930 . S
C375 C373 1.404 . S
C375 C376 1.366 . S
C376 H355 0.930 . S
C376 C372 1.416 . S
C376 C375 1.366 . S
H377 C370 0.929 . S
H378 C401 0.931 . S
H379 C402 0.931 . S
O380 Eu336 2.462 . S
O380 C400 1.252 . S
O381 Eu336 2.373 . S
O381 C392 1.249 . S
O382 Eu347 2.335 . S
O382 C392 1.264 . S
O383 Eu336 2.432 . S
O383 C400 1.268 . S
O384 Eu336 2.291 . S
O384 C399 1.255 . S
O385 Eu347 2.372 . S
O385 C399 1.257 . S
O386 Eu347 2.462 . S
O386 C411 1.252 . S
O387 Eu347 2.373 . S
O387 C403 1.249 . S
O388 Eu336 2.335 . S
O388 C403 1.264 . S
O389 Eu347 2.432 . S
O389 C411 1.268 . S
O390 Eu347 2.291 . S
O390 C410 1.255 . S
O391 Eu336 2.372 . S
O391 C410 1.257 . S
C392 O381 1.249 . S
C392 O382 1.264 . S
C393 C396 1.382 . S
C393 C398 1.390 . S
C393 C400 1.506 . S
C394 C395 1.398 . S
C394 C398 1.392 . S
C395 C394 1.398 . S
C395 C397 1.372 . S
C395 H412 0.931 . S
C396 C393 1.382 . S
C396 C397 1.390 . S
C396 H413 0.931 . S
C397 C395 1.372 . S
C397 C396 1.390 . S
C397 H414 0.929 . S
C398 C393 1.390 . S
C398 C394 1.392 . S
C398 H415 0.930 . S
C399 O384 1.255 . S
C399 O385 1.257 . S
C400 Eu336 2.787 . S
C400 O380 1.252 . S
C400 O383 1.268 . S
C400 C393 1.506 . S
C401 C368 1.439 . S
C401 H378 0.931 . S
C401 C402 1.374 . S
C402 C373 1.387 . S
C402 H379 0.931 . S
C402 C401 1.374 . S
C403 O387 1.249 . S
C403 O388 1.264 . S
C404 C407 1.382 . S
C404 C408 1.390 . S
C404 C411 1.506 . S
C405 C406 1.398 . S
C405 C408 1.392 . S
C406 C405 1.398 . S
C406 C409 1.372 . S
C406 H416 0.931 . S
C407 C404 1.382 . S
C407 C409 1.390 . S
C407 H417 0.931 . S
C408 C404 1.390 . S
C408 C405 1.392 . S
C408 H418 0.930 . S
C409 C406 1.372 . S
C409 C407 1.390 . S
C409 H419 0.929 . S
C410 O390 1.255 . S
C410 O391 1.257 . S
C411 Eu347 2.787 . S
C411 O386 1.252 . S
C411 O389 1.268 . S
C411 C404 1.506 . S
H412 C395 0.931 . S
H413 C396 0.931 . S
H414 C397 0.929 . S
H415 C398 0.930 . S
H416 C406 0.931 . S
H417 C407 0.931 . S
H418 C408 0.930 . S
H419 C409 0.929 . S
Eu420 N449 2.600 . S
Eu420 N455 2.562 . S
Eu420 O464 2.462 . S
Eu420 O465 2.373 . S
Eu420 O467 2.432 . S
Eu420 O468 2.291 . S
Eu420 O472 2.335 . S
Eu420 O475 2.372 . S
Eu420 C484 2.787 . S
C421 N422 1.365 . S
C421 C424 1.405 . S
C421 C428 1.448 1_545 S
N422 C421 1.365 . S
N422 C425 1.319 . S
N422 Eu431 2.600 1_545 S
C423 C425 1.397 . S
C423 C426 1.367 . S
C423 H443 0.931 . S
C424 C421 1.405 . S
C424 C426 1.403 . S
C424 C430 1.439 . S
C425 N422 1.319 . S
C425 C423 1.397 . S
C425 H436 0.930 . S
C426 C423 1.367 . S
C426 C424 1.403 . S
C426 H447 0.929 . S
C427 C428 1.430 1_545 S
C427 C429 1.387 . S
C427 C433 1.404 1_545 S
C428 C421 1.448 1_565 S
C428 C427 1.430 1_565 S
C428 N432 1.351 . S
C429 C427 1.387 . S
C429 C430 1.374 . S
C429 H444 0.931 . S
C430 C424 1.439 . S
C430 C429 1.374 . S
C430 H445 0.931 . S
Eu431 N422 2.600 1_565 S
Eu431 N432 2.562 . S
Eu431 O466 2.335 . S
Eu431 O469 2.372 . S
Eu431 O470 2.462 . S
Eu431 O471 2.373 . S
Eu431 O473 2.432 . S
Eu431 O474 2.291 . S
Eu431 C495 2.787 . S
N432 C428 1.351 . S
N432 Eu431 2.562 . S
N432 C434 1.325 . S
C433 C427 1.404 1_565 S
C433 C435 1.366 . S
C433 H441 0.930 . S
C434 N432 1.325 . S
C434 C435 1.416 . S
C434 H440 0.929 . S
C435 C433 1.366 . S
C435 C434 1.416 . S
C435 H437 0.930 . S
H436 C425 0.930 . S
H437 C435 0.930 . S
H438 C453 0.930 . S
H439 C460 0.930 . S
H440 C434 0.929 . S
H441 C433 0.930 . S
H442 C456 0.929 . S
H443 C423 0.931 . S
H444 C429 0.931 . S
H445 C430 0.931 . S
H446 C451 0.931 . S
H447 C426 0.929 . S
H448 C459 0.930 . S
N449 Eu420 2.600 . S
N449 C450 1.365 . S
N449 C453 1.319 . S
C450 N449 1.365 . S
C450 C452 1.405 . S
C450 C458 1.448 . S
C451 H446 0.931 . S
C451 C453 1.397 . S
C451 C454 1.367 . S
C452 C450 1.405 . S
C452 C454 1.403 . S
C452 C485 1.439 . S
C453 H438 0.930 . S
C453 N449 1.319 . S
C453 C451 1.397 . S
C454 C451 1.367 . S
C454 C452 1.403 . S
C454 H461 0.929 . S
N455 Eu420 2.562 . S
N455 C456 1.325 . S
N455 C458 1.351 . S
C456 H442 0.929 . S
C456 N455 1.325 . S
C456 C460 1.416 . S
C457 C458 1.430 . S
C457 C459 1.404 . S
C457 C486 1.387 . S
C458 C450 1.448 . S
C458 N455 1.351 . S
C458 C457 1.430 . S
C459 H448 0.930 . S
C459 C457 1.404 . S
C459 C460 1.366 . S
C460 H439 0.930 . S
C460 C456 1.416 . S
C460 C459 1.366 . S
H461 C454 0.929 . S
H462 C485 0.931 . S
H463 C486 0.931 . S
O464 Eu420 2.462 . S
O464 C484 1.252 . S
O465 Eu420 2.373 . S
O465 C476 1.249 . S
O466 Eu431 2.335 . S
O466 C476 1.264 . S
O467 Eu420 2.432 . S
O467 C484 1.268 . S
O468 Eu420 2.291 . S
O468 C483 1.255 . S
O469 Eu431 2.372 . S
O469 C483 1.257 . S
O470 Eu431 2.462 . S
O470 C495 1.252 . S
O471 Eu431 2.373 . S
O471 C487 1.249 . S
O472 Eu420 2.335 . S
O472 C487 1.264 . S
O473 Eu431 2.432 . S
O473 C495 1.268 . S
O474 Eu431 2.291 . S
O474 C494 1.255 . S
O475 Eu420 2.372 . S
O475 C494 1.257 . S
C476 O465 1.249 . S
C476 O466 1.264 . S
C477 C480 1.382 . S
C477 C482 1.390 . S
C477 C484 1.506 . S
C478 C479 1.398 . S
C478 C482 1.392 . S
C479 C478 1.398 . S
C479 C481 1.372 . S
C479 H496 0.931 . S
C480 C477 1.382 . S
C480 C481 1.390 . S
C480 H497 0.931 . S
C481 C479 1.372 . S
C481 C480 1.390 . S
C481 H498 0.929 . S
C482 C477 1.390 . S
C482 C478 1.392 . S
C482 H499 0.930 . S
C483 O468 1.255 . S
C483 O469 1.257 . S
C484 Eu420 2.787 . S
C484 O464 1.252 . S
C484 O467 1.268 . S
C484 C477 1.506 . S
C485 C452 1.439 . S
C485 H462 0.931 . S
C485 C486 1.374 . S
C486 C457 1.387 . S
C486 H463 0.931 . S
C486 C485 1.374 . S
C487 O471 1.249 . S
C487 O472 1.264 . S
C488 C491 1.382 . S
C488 C492 1.390 . S
C488 C495 1.506 . S
C489 C490 1.398 . S
C489 C492 1.392 . S
C490 C489 1.398 . S
C490 C493 1.372 . S
C490 H500 0.931 . S
C491 C488 1.382 . S
C491 C493 1.390 . S
C491 H501 0.931 . S
C492 C488 1.390 . S
C492 C489 1.392 . S
C492 H502 0.930 . S
C493 C490 1.372 . S
C493 C491 1.390 . S
C493 H503 0.929 . S
C494 O474 1.255 . S
C494 O475 1.257 . S
C495 Eu431 2.787 . S
C495 O470 1.252 . S
C495 O473 1.268 . S
C495 C488 1.506 . S
H496 C479 0.931 . S
H497 C480 0.931 . S
H498 C481 0.929 . S
H499 C482 0.930 . S
H500 C490 0.931 . S
H501 C491 0.931 . S
H502 C492 0.930 . S
H503 C493 0.929 . S
Eu504 N533 2.600 . S
Eu504 N539 2.562 . S
Eu504 O548 2.462 . S
Eu504 O549 2.373 . S
Eu504 O551 2.432 . S
Eu504 O552 2.291 . S
Eu504 O556 2.335 . S
Eu504 O559 2.372 . S
Eu504 C568 2.787 . S
C505 N506 1.365 . S
C505 C508 1.405 . S
C505 C512 1.448 . S
N506 C505 1.365 . S
N506 C509 1.319 . S
N506 Eu515 2.600 . S
C507 C509 1.397 . S
C507 C510 1.367 . S
C507 H527 0.931 . S
C508 C505 1.405 . S
C508 C510 1.403 . S
C508 C514 1.439 . S
C509 N506 1.319 . S
C509 C507 1.397 . S
C509 H520 0.930 . S
C510 C507 1.367 . S
C510 C508 1.403 . S
C510 H531 0.929 . S
C511 C512 1.430 . S
C511 C513 1.387 . S
C511 C517 1.404 . S
C512 C505 1.448 . S
C512 C511 1.430 . S
C512 N516 1.351 . S
C513 C511 1.387 . S
C513 C514 1.374 . S
C513 H528 0.931 . S
C514 C508 1.439 . S
C514 C513 1.374 . S
C514 H529 0.931 . S
Eu515 N506 2.600 . S
Eu515 N516 2.562 . S
Eu515 O550 2.335 . S
Eu515 O553 2.372 . S
Eu515 O554 2.462 . S
Eu515 O555 2.373 . S
Eu515 O557 2.432 . S
Eu515 O558 2.291 . S
Eu515 C579 2.787 . S
N516 C512 1.351 . S
N516 Eu515 2.562 . S
N516 C518 1.325 . S
C517 C511 1.404 . S
C517 C519 1.366 . S
C517 H525 0.930 . S
C518 N516 1.325 . S
C518 C519 1.416 . S
C518 H524 0.929 . S
C519 C517 1.366 . S
C519 C518 1.416 . S
C519 H521 0.930 . S
H520 C509 0.930 . S
H521 C519 0.930 . S
H522 C537 0.930 . S
H523 C544 0.930 . S
H524 C518 0.929 . S
H525 C517 0.930 . S
H526 C540 0.929 . S
H527 C507 0.931 . S
H528 C513 0.931 . S
H529 C514 0.931 . S
H530 C535 0.931 . S
H531 C510 0.929 . S
H532 C543 0.930 . S
N533 Eu504 2.600 . S
N533 C534 1.365 . S
N533 C537 1.319 . S
C534 N533 1.365 . S
C534 C536 1.405 . S
C534 C542 1.448 . S
C535 H530 0.931 . S
C535 C537 1.397 . S
C535 C538 1.367 . S
C536 C534 1.405 . S
C536 C538 1.403 . S
C536 C569 1.439 . S
C537 H522 0.930 . S
C537 N533 1.319 . S
C537 C535 1.397 . S
C538 C535 1.367 . S
C538 C536 1.403 . S
C538 H545 0.929 . S
N539 Eu504 2.562 . S
N539 C540 1.325 . S
N539 C542 1.351 . S
C540 H526 0.929 . S
C540 N539 1.325 . S
C540 C544 1.416 . S
C541 C542 1.430 . S
C541 C543 1.404 . S
C541 C570 1.387 . S
C542 C534 1.448 . S
C542 N539 1.351 . S
C542 C541 1.430 . S
C543 H532 0.930 . S
C543 C541 1.404 . S
C543 C544 1.366 . S
C544 H523 0.930 . S
C544 C540 1.416 . S
C544 C543 1.366 . S
H545 C538 0.929 . S
H546 C569 0.931 . S
H547 C570 0.931 . S
O548 Eu504 2.462 . S
O548 C568 1.252 . S
O549 Eu504 2.373 . S
O549 C560 1.249 . S
O550 Eu515 2.335 . S
O550 C560 1.264 . S
O551 Eu504 2.432 . S
O551 C568 1.268 . S
O552 Eu504 2.291 . S
O552 C567 1.255 . S
O553 Eu515 2.372 . S
O553 C567 1.257 . S
O554 Eu515 2.462 . S
O554 C579 1.252 . S
O555 Eu515 2.373 . S
O555 C571 1.249 . S
O556 Eu504 2.335 . S
O556 C571 1.264 . S
O557 Eu515 2.432 . S
O557 C579 1.268 . S
O558 Eu515 2.291 . S
O558 C578 1.255 . S
O559 Eu504 2.372 . S
O559 C578 1.257 . S
C560 O549 1.249 . S
C560 O550 1.264 . S
C561 C564 1.382 . S
C561 C566 1.390 . S
C561 C568 1.506 . S
C562 C563 1.398 . S
C562 C566 1.392 . S
C563 C562 1.398 . S
C563 C565 1.372 . S
C563 H580 0.931 . S
C564 C561 1.382 . S
C564 C565 1.390 . S
C564 H581 0.931 . S
C565 C563 1.372 . S
C565 C564 1.390 . S
C565 H582 0.929 . S
C566 C561 1.390 . S
C566 C562 1.392 . S
C566 H583 0.930 . S
C567 O552 1.255 . S
C567 O553 1.257 . S
C568 Eu504 2.787 . S
C568 O548 1.252 . S
C568 O551 1.268 . S
C568 C561 1.506 . S
C569 C536 1.439 . S
C569 H546 0.931 . S
C569 C570 1.374 . S
C570 C541 1.387 . S
C570 H547 0.931 . S
C570 C569 1.374 . S
C571 O555 1.249 . S
C571 O556 1.264 . S
C572 C575 1.382 . S
C572 C576 1.390 . S
C572 C579 1.506 . S
C573 C574 1.398 . S
C573 C576 1.392 . S
C574 C573 1.398 . S
C574 C577 1.372 . S
C574 H584 0.931 . S
C575 C572 1.382 . S
C575 C577 1.390 . S
C575 H585 0.931 . S
C576 C572 1.390 . S
C576 C573 1.392 . S
C576 H586 0.930 . S
C577 C574 1.372 . S
C577 C575 1.390 . S
C577 H587 0.929 . S
C578 O558 1.255 . S
C578 O559 1.257 . S
C579 Eu515 2.787 . S
C579 O554 1.252 . S
C579 O557 1.268 . S
C579 C572 1.506 . S
H580 C563 0.931 . S
H581 C564 0.931 . S
H582 C565 0.929 . S
H583 C566 0.930 . S
H584 C574 0.931 . S
H585 C575 0.931 . S
H586 C576 0.930 . S
H587 C577 0.929 . S
Eu588 N617 2.600 . S
Eu588 N623 2.562 . S
Eu588 O632 2.462 . S
Eu588 O633 2.373 . S
Eu588 O635 2.432 . S
Eu588 O636 2.291 . S
Eu588 O640 2.335 . S
Eu588 O643 2.372 . S
Eu588 C652 2.787 . S
C589 N590 1.365 . S
C589 C592 1.405 . S
C589 C596 1.448 1_565 S
N590 C589 1.365 . S
N590 C593 1.319 1_655 S
N590 Eu599 2.600 1_665 S
C591 C593 1.397 . S
C591 C594 1.367 1_455 S
C591 H611 0.931 . S
C592 C589 1.405 . S
C592 C594 1.403 . S
C592 C598 1.439 . S
C593 N590 1.319 1_455 S
C593 C591 1.397 . S
C593 H604 0.930 . S
C594 C591 1.367 1_655 S
C594 C592 1.403 . S
C594 H615 0.929 . S
C595 C596 1.430 1_565 S
C595 C597 1.387 . S
C595 C601 1.404 1_565 S
C596 C589 1.448 1_545 S
C596 C595 1.430 1_545 S
C596 N600 1.351 . S
C597 C595 1.387 . S
C597 C598 1.374 . S
C597 H612 0.931 . S
C598 C592 1.439 . S
C598 C597 1.374 . S
C598 H613 0.931 . S
Eu599 N590 2.600 1_445 S
Eu599 N600 2.562 1_455 S
Eu599 O634 2.335 . S
Eu599 O637 2.372 . S
Eu599 O638 2.462 1_455 S
Eu599 O639 2.373 . S
Eu599 O641 2.432 1_455 S
Eu599 O642 2.291 . S
Eu599 C663 2.787 1_455 S
N600 C596 1.351 . S
N600 Eu599 2.562 1_655 S
N600 C602 1.325 . S
C601 C595 1.404 1_545 S
C601 C603 1.366 . S
C601 H609 0.930 . S
C602 N600 1.325 . S
C602 C603 1.416 . S
C602 H608 0.929 . S
C603 C601 1.366 . S
C603 C602 1.416 . S
C603 H605 0.930 . S
H604 C593 0.930 . S
H605 C603 0.930 . S
H606 C621 0.930 . S
H607 C628 0.930 . S
H608 C602 0.929 . S
H609 C601 0.930 . S
H610 C624 0.929 . S
H611 C591 0.931 . S
H612 C597 0.931 . S
H613 C598 0.931 . S
H614 C619 0.931 . S
H615 C594 0.929 . S
H616 C627 0.930 . S
N617 Eu588 2.600 . S
N617 C618 1.365 . S
N617 C621 1.319 . S
C618 N617 1.365 . S
C618 C620 1.405 . S
C618 C626 1.448 . S
C619 H614 0.931 . S
C619 C621 1.397 . S
C619 C622 1.367 . S
C620 C618 1.405 . S
C620 C622 1.403 . S
C620 C653 1.439 . S
C621 H606 0.930 . S
C621 N617 1.319 . S
C621 C619 1.397 . S
C622 C619 1.367 . S
C622 C620 1.403 . S
C622 H629 0.929 . S
N623 Eu588 2.562 . S
N623 C624 1.325 . S
N623 C626 1.351 . S
C624 H610 0.929 . S
C624 N623 1.325 . S
C624 C628 1.416 . S
C625 C626 1.430 . S
C625 C627 1.404 . S
C625 C654 1.387 . S
C626 C618 1.448 . S
C626 N623 1.351 . S
C626 C625 1.430 . S
C627 H616 0.930 . S
C627 C625 1.404 . S
C627 C628 1.366 . S
C628 H607 0.930 . S
C628 C624 1.416 . S
C628 C627 1.366 . S
H629 C622 0.929 . S
H630 C653 0.931 . S
H631 C654 0.931 . S
O632 Eu588 2.462 . S
O632 C652 1.252 . S
O633 Eu588 2.373 . S
O633 C644 1.249 . S
O634 Eu599 2.335 . S
O634 C644 1.264 . S
O635 Eu588 2.432 . S
O635 C652 1.268 . S
O636 Eu588 2.291 . S
O636 C651 1.255 . S
O637 Eu599 2.372 . S
O637 C651 1.257 . S
O638 Eu599 2.462 1_655 S
O638 C663 1.252 . S
O639 Eu599 2.373 . S
O639 C655 1.249 . S
O640 Eu588 2.335 . S
O640 C655 1.264 . S
O641 Eu599 2.432 1_655 S
O641 C663 1.268 . S
O642 Eu599 2.291 . S
O642 C662 1.255 . S
O643 Eu588 2.372 . S
O643 C662 1.257 . S
C644 O633 1.249 . S
C644 O634 1.264 . S
C645 C648 1.382 . S
C645 C650 1.390 . S
C645 C652 1.506 . S
C646 C647 1.398 . S
C646 C650 1.392 . S
C647 C646 1.398 . S
C647 C649 1.372 . S
C647 H664 0.931 . S
C648 C645 1.382 . S
C648 C649 1.390 . S
C648 H665 0.931 . S
C649 C647 1.372 . S
C649 C648 1.390 . S
C649 H666 0.929 . S
C650 C645 1.390 . S
C650 C646 1.392 . S
C650 H667 0.930 . S
C651 O636 1.255 . S
C651 O637 1.257 . S
C652 Eu588 2.787 . S
C652 O632 1.252 . S
C652 O635 1.268 . S
C652 C645 1.506 . S
C653 C620 1.439 . S
C653 H630 0.931 . S
C653 C654 1.374 . S
C654 C625 1.387 . S
C654 H631 0.931 . S
C654 C653 1.374 . S
C655 O639 1.249 . S
C655 O640 1.264 . S
C656 C659 1.382 . S
C656 C660 1.390 . S
C656 C663 1.506 . S
C657 C658 1.398 . S
C657 C660 1.392 . S
C658 C657 1.398 . S
C658 C661 1.372 . S
C658 H668 0.931 . S
C659 C656 1.382 . S
C659 C661 1.390 . S
C659 H669 0.931 . S
C660 C656 1.390 . S
C660 C657 1.392 . S
C660 H670 0.930 . S
C661 C658 1.372 . S
C661 C659 1.390 . S
C661 H671 0.929 . S
C662 O642 1.255 . S
C662 O643 1.257 . S
C663 Eu599 2.787 1_655 S
C663 O638 1.252 . S
C663 O641 1.268 . S
C663 C656 1.506 . S
H664 C647 0.931 . S
H665 C648 0.931 . S
H666 C649 0.929 . S
H667 C650 0.930 . S
H668 C658 0.931 . S
H669 C659 0.931 . S
H670 C660 0.930 . S
H671 C661 0.929 . S
Eu672 N701 2.600 . S
Eu672 N707 2.562 . S
Eu672 O716 2.462 . S
Eu672 O717 2.373 . S
Eu672 O719 2.432 . S
Eu672 O720 2.291 . S
Eu672 O724 2.335 . S
Eu672 O727 2.372 . S
Eu672 C736 2.787 . S
C673 N674 1.365 . S
C673 C676 1.405 . S
C673 C680 1.448 . S
N674 C673 1.365 . S
N674 C677 1.319 . S
N674 Eu683 2.600 . S
C675 C677 1.397 . S
C675 C678 1.367 . S
C675 H695 0.931 . S
C676 C673 1.405 . S
C676 C678 1.403 . S
C676 C682 1.439 . S
C677 N674 1.319 . S
C677 C675 1.397 . S
C677 H688 0.930 . S
C678 C675 1.367 . S
C678 C676 1.403 . S
C678 H699 0.929 . S
C679 C680 1.430 . S
C679 C681 1.387 . S
C679 C685 1.404 . S
C680 C673 1.448 . S
C680 C679 1.430 . S
C680 N684 1.351 . S
C681 C679 1.387 . S
C681 C682 1.374 . S
C681 H696 0.931 . S
C682 C676 1.439 . S
C682 C681 1.374 . S
C682 H697 0.931 . S
Eu683 N674 2.600 . S
Eu683 N684 2.562 . S
Eu683 O718 2.335 . S
Eu683 O721 2.372 . S
Eu683 O722 2.462 . S
Eu683 O723 2.373 . S
Eu683 O725 2.432 . S
Eu683 O726 2.291 . S
Eu683 C747 2.787 . S
N684 C680 1.351 . S
N684 Eu683 2.562 . S
N684 C686 1.325 . S
C685 C679 1.404 . S
C685 C687 1.366 . S
C685 H693 0.930 . S
C686 N684 1.325 . S
C686 C687 1.416 . S
C686 H692 0.929 . S
C687 C685 1.366 . S
C687 C686 1.416 . S
C687 H689 0.930 . S
H688 C677 0.930 . S
H689 C687 0.930 . S
H690 C705 0.930 . S
H691 C712 0.930 . S
H692 C686 0.929 . S
H693 C685 0.930 . S
H694 C708 0.929 . S
H695 C675 0.931 . S
H696 C681 0.931 . S
H697 C682 0.931 . S
H698 C703 0.931 . S
H699 C678 0.929 . S
H700 C711 0.930 . S
N701 Eu672 2.600 . S
N701 C702 1.365 . S
N701 C705 1.319 . S
C702 N701 1.365 . S
C702 C704 1.405 . S
C702 C710 1.448 . S
C703 H698 0.931 . S
C703 C705 1.397 . S
C703 C706 1.367 . S
C704 C702 1.405 . S
C704 C706 1.403 . S
C704 C737 1.439 . S
C705 H690 0.930 . S
C705 N701 1.319 . S
C705 C703 1.397 . S
C706 C703 1.367 . S
C706 C704 1.403 . S
C706 H713 0.929 . S
N707 Eu672 2.562 . S
N707 C708 1.325 . S
N707 C710 1.351 . S
C708 H694 0.929 . S
C708 N707 1.325 . S
C708 C712 1.416 . S
C709 C710 1.430 . S
C709 C711 1.404 . S
C709 C738 1.387 . S
C710 C702 1.448 . S
C710 N707 1.351 . S
C710 C709 1.430 . S
C711 H700 0.930 . S
C711 C709 1.404 . S
C711 C712 1.366 . S
C712 H691 0.930 . S
C712 C708 1.416 . S
C712 C711 1.366 . S
H713 C706 0.929 . S
H714 C737 0.931 . S
H715 C738 0.931 . S
O716 Eu672 2.462 . S
O716 C736 1.252 . S
O717 Eu672 2.373 . S
O717 C728 1.249 . S
O718 Eu683 2.335 . S
O718 C728 1.264 . S
O719 Eu672 2.432 . S
O719 C736 1.268 . S
O720 Eu672 2.291 . S
O720 C735 1.255 . S
O721 Eu683 2.372 . S
O721 C735 1.257 . S
O722 Eu683 2.462 . S
O722 C747 1.252 . S
O723 Eu683 2.373 . S
O723 C739 1.249 . S
O724 Eu672 2.335 . S
O724 C739 1.264 . S
O725 Eu683 2.432 . S
O725 C747 1.268 . S
O726 Eu683 2.291 . S
O726 C746 1.255 . S
O727 Eu672 2.372 . S
O727 C746 1.257 . S
C728 O717 1.249 . S
C728 O718 1.264 . S
C729 C732 1.382 . S
C729 C734 1.390 . S
C729 C736 1.506 . S
C730 C731 1.398 . S
C730 C734 1.392 . S
C731 C730 1.398 . S
C731 C733 1.372 . S
C731 H748 0.931 . S
C732 C729 1.382 . S
C732 C733 1.390 . S
C732 H749 0.931 . S
C733 C731 1.372 . S
C733 C732 1.390 . S
C733 H750 0.929 . S
C734 C729 1.390 . S
C734 C730 1.392 . S
C734 H751 0.930 . S
C735 O720 1.255 . S
C735 O721 1.257 . S
C736 Eu672 2.787 . S
C736 O716 1.252 . S
C736 O719 1.268 . S
C736 C729 1.506 . S
C737 C704 1.439 . S
C737 H714 0.931 . S
C737 C738 1.374 . S
C738 C709 1.387 . S
C738 H715 0.931 . S
C738 C737 1.374 . S
C739 O723 1.249 . S
C739 O724 1.264 . S
C740 C743 1.382 . S
C740 C744 1.390 . S
C740 C747 1.506 . S
C741 C742 1.398 . S
C741 C744 1.392 . S
C742 C741 1.398 . S
C742 C745 1.372 . S
C742 H752 0.931 . S
C743 C740 1.382 . S
C743 C745 1.390 . S
C743 H753 0.931 . S
C744 C740 1.390 . S
C744 C741 1.392 . S
C744 H754 0.930 . S
C745 C742 1.372 . S
C745 C743 1.390 . S
C745 H755 0.929 . S
C746 O726 1.255 . S
C746 O727 1.257 . S
C747 Eu683 2.787 . S
C747 O722 1.252 . S
C747 O725 1.268 . S
C747 C740 1.506 . S
H748 C731 0.931 . S
H749 C732 0.931 . S
H750 C733 0.929 . S
H751 C734 0.930 . S
H752 C742 0.931 . S
H753 C743 0.931 . S
H754 C744 0.930 . S
H755 C745 0.929 . S
Eu756 N785 2.600 1_645 S
Eu756 N791 2.562 1_655 S
Eu756 O800 2.462 1_655 S
Eu756 O801 2.373 . S
Eu756 O803 2.432 1_655 S
Eu756 O804 2.291 . S
Eu756 O808 2.335 . S
Eu756 O811 2.372 . S
Eu756 C820 2.787 1_655 S
C757 N758 1.365 . S
C757 C760 1.405 . S
C757 C764 1.448 . S
N758 C757 1.365 . S
N758 C761 1.319 . S
N758 Eu767 2.600 . S
C759 C761 1.397 . S
C759 C762 1.367 . S
C759 H779 0.931 . S
C760 C757 1.405 . S
C760 C762 1.403 . S
C760 C766 1.439 . S
C761 N758 1.319 . S
C761 C759 1.397 . S
C761 H772 0.930 . S
C762 C759 1.367 . S
C762 C760 1.403 . S
C762 H783 0.929 . S
C763 C764 1.430 . S
C763 C765 1.387 . S
C763 C769 1.404 . S
C764 C757 1.448 . S
C764 C763 1.430 . S
C764 N768 1.351 . S
C765 C763 1.387 . S
C765 C766 1.374 . S
C765 H780 0.931 . S
C766 C760 1.439 . S
C766 C765 1.374 . S
C766 H781 0.931 . S
Eu767 N758 2.600 . S
Eu767 N768 2.562 . S
Eu767 O802 2.335 . S
Eu767 O805 2.372 . S
Eu767 O806 2.462 . S
Eu767 O807 2.373 . S
Eu767 O809 2.432 . S
Eu767 O810 2.291 . S
Eu767 C831 2.787 . S
N768 C764 1.351 . S
N768 Eu767 2.562 . S
N768 C770 1.325 . S
C769 C763 1.404 . S
C769 C771 1.366 . S
C769 H777 0.930 . S
C770 N768 1.325 . S
C770 C771 1.416 . S
C770 H776 0.929 . S
C771 C769 1.366 . S
C771 C770 1.416 . S
C771 H773 0.930 . S
H772 C761 0.930 . S
H773 C771 0.930 . S
H774 C789 0.930 . S
H775 C796 0.930 . S
H776 C770 0.929 . S
H777 C769 0.930 . S
H778 C792 0.929 . S
H779 C759 0.931 . S
H780 C765 0.931 . S
H781 C766 0.931 . S
H782 C787 0.931 . S
H783 C762 0.929 . S
H784 C795 0.930 . S
N785 Eu756 2.600 1_465 S
N785 C786 1.365 . S
N785 C789 1.319 1_455 S
C786 N785 1.365 . S
C786 C788 1.405 . S
C786 C794 1.448 1_565 S
C787 H782 0.931 . S
C787 C789 1.397 . S
C787 C790 1.367 1_655 S
C788 C786 1.405 . S
C788 C790 1.403 . S
C788 C821 1.439 . S
C789 H774 0.930 . S
C789 N785 1.319 1_655 S
C789 C787 1.397 . S
C790 C787 1.367 1_455 S
C790 C788 1.403 . S
C790 H797 0.929 . S
N791 Eu756 2.562 1_455 S
N791 C792 1.325 . S
N791 C794 1.351 . S
C792 H778 0.929 . S
C792 N791 1.325 . S
C792 C796 1.416 . S
C793 C794 1.430 1_565 S
C793 C795 1.404 1_565 S
C793 C822 1.387 . S
C794 C786 1.448 1_545 S
C794 N791 1.351 . S
C794 C793 1.430 1_545 S
C795 H784 0.930 . S
C795 C793 1.404 1_545 S
C795 C796 1.366 . S
C796 H775 0.930 . S
C796 C792 1.416 . S
C796 C795 1.366 . S
H797 C790 0.929 . S
H798 C821 0.931 . S
H799 C822 0.931 . S
O800 Eu756 2.462 1_455 S
O800 C820 1.252 . S
O801 Eu756 2.373 . S
O801 C812 1.249 . S
O802 Eu767 2.335 . S
O802 C812 1.264 . S
O803 Eu756 2.432 1_455 S
O803 C820 1.268 . S
O804 Eu756 2.291 . S
O804 C819 1.255 . S
O805 Eu767 2.372 . S
O805 C819 1.257 . S
O806 Eu767 2.462 . S
O806 C831 1.252 . S
O807 Eu767 2.373 . S
O807 C823 1.249 . S
O808 Eu756 2.335 . S
O808 C823 1.264 . S
O809 Eu767 2.432 . S
O809 C831 1.268 . S
O810 Eu767 2.291 . S
O810 C830 1.255 . S
O811 Eu756 2.372 . S
O811 C830 1.257 . S
C812 O801 1.249 . S
C812 O802 1.264 . S
C813 C816 1.382 . S
C813 C818 1.390 . S
C813 C820 1.506 . S
C814 C815 1.398 . S
C814 C818 1.392 . S
C815 C814 1.398 . S
C815 C817 1.372 . S
C815 H832 0.931 . S
C816 C813 1.382 . S
C816 C817 1.390 . S
C816 H833 0.931 . S
C817 C815 1.372 . S
C817 C816 1.390 . S
C817 H834 0.929 . S
C818 C813 1.390 . S
C818 C814 1.392 . S
C818 H835 0.930 . S
C819 O804 1.255 . S
C819 O805 1.257 . S
C820 Eu756 2.787 1_455 S
C820 O800 1.252 . S
C820 O803 1.268 . S
C820 C813 1.506 . S
C821 C788 1.439 . S
C821 H798 0.931 . S
C821 C822 1.374 . S
C822 C793 1.387 . S
C822 H799 0.931 . S
C822 C821 1.374 . S
C823 O807 1.249 . S
C823 O808 1.264 . S
C824 C827 1.382 . S
C824 C828 1.390 . S
C824 C831 1.506 . S
C825 C826 1.398 . S
C825 C828 1.392 . S
C826 C825 1.398 . S
C826 C829 1.372 . S
C826 H836 0.931 . S
C827 C824 1.382 . S
C827 C829 1.390 . S
C827 H837 0.931 . S
C828 C824 1.390 . S
C828 C825 1.392 . S
C828 H838 0.930 . S
C829 C826 1.372 . S
C829 C827 1.390 . S
C829 H839 0.929 . S
C830 O810 1.255 . S
C830 O811 1.257 . S
C831 Eu767 2.787 . S
C831 O806 1.252 . S
C831 O809 1.268 . S
C831 C824 1.506 . S
H832 C815 0.931 . S
H833 C816 0.931 . S
H834 C817 0.929 . S
H835 C818 0.930 . S
H836 C826 0.931 . S
H837 C827 0.931 . S
H838 C828 0.930 . S
H839 C829 0.929 . S
Eu840 N869 2.600 . S
Eu840 N875 2.562 . S
Eu840 O884 2.462 . S
Eu840 O885 2.373 . S
Eu840 O887 2.432 . S
Eu840 O888 2.291 . S
Eu840 O892 2.335 . S
Eu840 O895 2.372 . S
Eu840 C904 2.787 . S
C841 N842 1.365 . S
C841 C844 1.405 . S
C841 C848 1.448 . S
N842 C841 1.365 . S
N842 C845 1.319 . S
N842 Eu851 2.600 . S
C843 C845 1.397 . S
C843 C846 1.367 . S
C843 H863 0.931 . S
C844 C841 1.405 . S
C844 C846 1.403 . S
C844 C850 1.439 . S
C845 N842 1.319 . S
C845 C843 1.397 . S
C845 H856 0.930 . S
C846 C843 1.367 . S
C846 C844 1.403 . S
C846 H867 0.929 . S
C847 C848 1.430 . S
C847 C849 1.387 . S
C847 C853 1.404 . S
C848 C841 1.448 . S
C848 C847 1.430 . S
C848 N852 1.351 . S
C849 C847 1.387 . S
C849 C850 1.374 . S
C849 H864 0.931 . S
C850 C844 1.439 . S
C850 C849 1.374 . S
C850 H865 0.931 . S
Eu851 N842 2.600 . S
Eu851 N852 2.562 . S
Eu851 O886 2.335 . S
Eu851 O889 2.372 . S
Eu851 O890 2.462 . S
Eu851 O891 2.373 . S
Eu851 O893 2.432 . S
Eu851 O894 2.291 . S
Eu851 C915 2.787 . S
N852 C848 1.351 . S
N852 Eu851 2.562 . S
N852 C854 1.325 . S
C853 C847 1.404 . S
C853 C855 1.366 . S
C853 H861 0.930 . S
C854 N852 1.325 . S
C854 C855 1.416 . S
C854 H860 0.929 . S
C855 C853 1.366 . S
C855 C854 1.416 . S
C855 H857 0.930 . S
H856 C845 0.930 . S
H857 C855 0.930 . S
H858 C873 0.930 . S
H859 C880 0.930 . S
H860 C854 0.929 . S
H861 C853 0.930 . S
H862 C876 0.929 . S
H863 C843 0.931 . S
H864 C849 0.931 . S
H865 C850 0.931 . S
H866 C871 0.931 . S
H867 C846 0.929 . S
H868 C879 0.930 . S
N869 Eu840 2.600 . S
N869 C870 1.365 . S
N869 C873 1.319 . S
C870 N869 1.365 . S
C870 C872 1.405 . S
C870 C878 1.448 . S
C871 H866 0.931 . S
C871 C873 1.397 . S
C871 C874 1.367 . S
C872 C870 1.405 . S
C872 C874 1.403 . S
C872 C905 1.439 . S
C873 H858 0.930 . S
C873 N869 1.319 . S
C873 C871 1.397 . S
C874 C871 1.367 . S
C874 C872 1.403 . S
C874 H881 0.929 . S
N875 Eu840 2.562 . S
N875 C876 1.325 . S
N875 C878 1.351 . S
C876 H862 0.929 . S
C876 N875 1.325 . S
C876 C880 1.416 . S
C877 C878 1.430 . S
C877 C879 1.404 . S
C877 C906 1.387 . S
C878 C870 1.448 . S
C878 N875 1.351 . S
C878 C877 1.430 . S
C879 H868 0.930 . S
C879 C877 1.404 . S
C879 C880 1.366 . S
C880 H859 0.930 . S
C880 C876 1.416 . S
C880 C879 1.366 . S
H881 C874 0.929 . S
H882 C905 0.931 . S
H883 C906 0.931 . S
O884 Eu840 2.462 . S
O884 C904 1.252 . S
O885 Eu840 2.373 . S
O885 C896 1.249 . S
O886 Eu851 2.335 . S
O886 C896 1.264 . S
O887 Eu840 2.432 . S
O887 C904 1.268 . S
O888 Eu840 2.291 . S
O888 C903 1.255 . S
O889 Eu851 2.372 . S
O889 C903 1.257 . S
O890 Eu851 2.462 . S
O890 C915 1.252 . S
O891 Eu851 2.373 . S
O891 C907 1.249 . S
O892 Eu840 2.335 . S
O892 C907 1.264 . S
O893 Eu851 2.432 . S
O893 C915 1.268 . S
O894 Eu851 2.291 . S
O894 C914 1.255 . S
O895 Eu840 2.372 . S
O895 C914 1.257 . S
C896 O885 1.249 . S
C896 O886 1.264 . S
C897 C900 1.382 . S
C897 C902 1.390 . S
C897 C904 1.506 . S
C898 C899 1.398 . S
C898 C902 1.392 . S
C899 C898 1.398 . S
C899 C901 1.372 . S
C899 H916 0.931 . S
C900 C897 1.382 . S
C900 C901 1.390 . S
C900 H917 0.931 . S
C901 C899 1.372 . S
C901 C900 1.390 . S
C901 H918 0.929 . S
C902 C897 1.390 . S
C902 C898 1.392 . S
C902 H919 0.930 . S
C903 O888 1.255 . S
C903 O889 1.257 . S
C904 Eu840 2.787 . S
C904 O884 1.252 . S
C904 O887 1.268 . S
C904 C897 1.506 . S
C905 C872 1.439 . S
C905 H882 0.931 . S
C905 C906 1.374 . S
C906 C877 1.387 . S
C906 H883 0.931 . S
C906 C905 1.374 . S
C907 O891 1.249 . S
C907 O892 1.264 . S
C908 C911 1.382 . S
C908 C912 1.390 . S
C908 C915 1.506 . S
C909 C910 1.398 . S
C909 C912 1.392 . S
C910 C909 1.398 . S
C910 C913 1.372 . S
C910 H920 0.931 . S
C911 C908 1.382 . S
C911 C913 1.390 . S
C911 H921 0.931 . S
C912 C908 1.390 . S
C912 C909 1.392 . S
C912 H922 0.930 . S
C913 C910 1.372 . S
C913 C911 1.390 . S
C913 H923 0.929 . S
C914 O894 1.255 . S
C914 O895 1.257 . S
C915 Eu851 2.787 . S
C915 O890 1.252 . S
C915 O893 1.268 . S
C915 C908 1.506 . S
H916 C899 0.931 . S
H917 C900 0.931 . S
H918 C901 0.929 . S
H919 C902 0.930 . S
H920 C910 0.931 . S
H921 C911 0.931 . S
H922 C912 0.930 . S
H923 C913 0.929 . S
Eu924 N953 2.600 1_565 S
Eu924 N959 2.562 . S
Eu924 O968 2.462 . S
Eu924 O969 2.373 . S
Eu924 O971 2.432 . S
Eu924 O972 2.291 . S
Eu924 O976 2.335 . S
Eu924 O979 2.372 . S
Eu924 C988 2.787 . S
C925 N926 1.365 . S
C925 C928 1.405 . S
C925 C932 1.448 . S
N926 C925 1.365 . S
N926 C929 1.319 . S
N926 Eu935 2.600 . S
C927 C929 1.397 . S
C927 C930 1.367 . S
C927 H947 0.931 . S
C928 C925 1.405 . S
C928 C930 1.403 . S
C928 C934 1.439 . S
C929 N926 1.319 . S
C929 C927 1.397 . S
C929 H940 0.930 . S
C930 C927 1.367 . S
C930 C928 1.403 . S
C930 H951 0.929 . S
C931 C932 1.430 . S
C931 C933 1.387 . S
C931 C937 1.404 . S
C932 C925 1.448 . S
C932 C931 1.430 . S
C932 N936 1.351 . S
C933 C931 1.387 . S
C933 C934 1.374 . S
C933 H948 0.931 . S
C934 C928 1.439 . S
C934 C933 1.374 . S
C934 H949 0.931 . S
Eu935 N926 2.600 . S
Eu935 N936 2.562 . S
Eu935 O970 2.335 . S
Eu935 O973 2.372 . S
Eu935 O974 2.462 . S
Eu935 O975 2.373 . S
Eu935 O977 2.432 . S
Eu935 O978 2.291 . S
Eu935 C999 2.787 . S
N936 C932 1.351 . S
N936 Eu935 2.562 . S
N936 C938 1.325 . S
C937 C931 1.404 . S
C937 C939 1.366 . S
C937 H945 0.930 . S
C938 N936 1.325 . S
C938 C939 1.416 . S
C938 H944 0.929 . S
C939 C937 1.366 . S
C939 C938 1.416 . S
C939 H941 0.930 . S
H940 C929 0.930 . S
H941 C939 0.930 . S
H942 C957 0.930 . S
H943 C964 0.930 . S
H944 C938 0.929 . S
H945 C937 0.930 . S
H946 C960 0.929 . S
H947 C927 0.931 . S
H948 C933 0.931 . S
H949 C934 0.931 . S
H950 C955 0.931 . S
H951 C930 0.929 . S
H952 C963 0.930 . S
N953 Eu924 2.600 1_545 S
N953 C954 1.365 . S
N953 C957 1.319 . S
C954 N953 1.365 . S
C954 C956 1.405 . S
C954 C962 1.448 1_545 S
C955 H950 0.931 . S
C955 C957 1.397 . S
C955 C958 1.367 . S
C956 C954 1.405 . S
C956 C958 1.403 . S
C956 C989 1.439 . S
C957 H942 0.930 . S
C957 N953 1.319 . S
C957 C955 1.397 . S
C958 C955 1.367 . S
C958 C956 1.403 . S
C958 H965 0.929 . S
N959 Eu924 2.562 . S
N959 C960 1.325 . S
N959 C962 1.351 . S
C960 H946 0.929 . S
C960 N959 1.325 . S
C960 C964 1.416 . S
C961 C962 1.430 1_545 S
C961 C963 1.404 1_545 S
C961 C990 1.387 . S
C962 C954 1.448 1_565 S
C962 N959 1.351 . S
C962 C961 1.430 1_565 S
C963 H952 0.930 . S
C963 C961 1.404 1_565 S
C963 C964 1.366 . S
C964 H943 0.930 . S
C964 C960 1.416 . S
C964 C963 1.366 . S
H965 C958 0.929 . S
H966 C989 0.931 . S
H967 C990 0.931 . S
O968 Eu924 2.462 . S
O968 C988 1.252 . S
O969 Eu924 2.373 . S
O969 C980 1.249 . S
O970 Eu935 2.335 . S
O970 C980 1.264 . S
O971 Eu924 2.432 . S
O971 C988 1.268 . S
O972 Eu924 2.291 . S
O972 C987 1.255 . S
O973 Eu935 2.372 . S
O973 C987 1.257 . S
O974 Eu935 2.462 . S
O974 C999 1.252 . S
O975 Eu935 2.373 . S
O975 C991 1.249 . S
O976 Eu924 2.335 . S
O976 C991 1.264 . S
O977 Eu935 2.432 . S
O977 C999 1.268 . S
O978 Eu935 2.291 . S
O978 C998 1.255 . S
O979 Eu924 2.372 . S
O979 C998 1.257 . S
C980 O969 1.249 . S
C980 O970 1.264 . S
C981 C984 1.382 . S
C981 C986 1.390 . S
C981 C988 1.506 . S
C982 C983 1.398 . S
C982 C986 1.392 . S
C983 C982 1.398 . S
C983 C985 1.372 . S
C983 H1000 0.931 . S
C984 C981 1.382 . S
C984 C985 1.390 . S
C984 H1001 0.931 . S
C985 C983 1.372 . S
C985 C984 1.390 . S
C985 H1002 0.929 . S
C986 C981 1.390 . S
C986 C982 1.392 . S
C986 H1003 0.930 . S
C987 O972 1.255 . S
C987 O973 1.257 . S
C988 Eu924 2.787 . S
C988 O968 1.252 . S
C988 O971 1.268 . S
C988 C981 1.506 . S
C989 C956 1.439 . S
C989 H966 0.931 . S
C989 C990 1.374 . S
C990 C961 1.387 . S
C990 H967 0.931 . S
C990 C989 1.374 . S
C991 O975 1.249 . S
C991 O976 1.264 . S
C992 C995 1.382 . S
C992 C996 1.390 . S
C992 C999 1.506 . S
C993 C994 1.398 . S
C993 C996 1.392 . S
C994 C993 1.398 . S
C994 C997 1.372 . S
C994 H1004 0.931 . S
C995 C992 1.382 . S
C995 C997 1.390 . S
C995 H1005 0.931 . S
C996 C992 1.390 . S
C996 C993 1.392 . S
C996 H1006 0.930 . S
C997 C994 1.372 . S
C997 C995 1.390 . S
C997 H1007 0.929 . S
C998 O978 1.255 . S
C998 O979 1.257 . S
C999 Eu935 2.787 . S
C999 O974 1.252 . S
C999 O977 1.268 . S
C999 C992 1.506 . S
H1000 C983 0.931 . S
H1001 C984 0.931 . S
H1002 C985 0.929 . S
H1003 C986 0.930 . S
H1004 C994 0.931 . S
H1005 C995 0.931 . S
H1006 C996 0.930 . S
H1007 C997 0.929 . S
Eu1008 N1037 2.600 . S
Eu1008 N1043 2.562 . S
Eu1008 O1052 2.462 . S
Eu1008 O1053 2.373 . S
Eu1008 O1055 2.432 . S
Eu1008 O1056 2.291 . S
Eu1008 O1060 2.335 . S
Eu1008 O1063 2.372 . S
Eu1008 C1072 2.787 . S
C1009 N1010 1.365 . S
C1009 C1012 1.405 . S
C1009 C1016 1.448 . S
N1010 C1009 1.365 . S
N1010 C1013 1.319 . S
N1010 Eu1019 2.600 . S
C1011 C1013 1.397 . S
C1011 C1014 1.367 . S
C1011 H1031 0.931 . S
C1012 C1009 1.405 . S
C1012 C1014 1.403 . S
C1012 C1018 1.439 . S
C1013 N1010 1.319 . S
C1013 C1011 1.397 . S
C1013 H1024 0.930 . S
C1014 C1011 1.367 . S
C1014 C1012 1.403 . S
C1014 H1035 0.929 . S
C1015 C1016 1.430 . S
C1015 C1017 1.387 . S
C1015 C1021 1.404 . S
C1016 C1009 1.448 . S
C1016 C1015 1.430 . S
C1016 N1020 1.351 . S
C1017 C1015 1.387 . S
C1017 C1018 1.374 . S
C1017 H1032 0.931 . S
C1018 C1012 1.439 . S
C1018 C1017 1.374 . S
C1018 H1033 0.931 . S
Eu1019 N1010 2.600 . S
Eu1019 N1020 2.562 . S
Eu1019 O1054 2.335 . S
Eu1019 O1057 2.372 . S
Eu1019 O1058 2.462 . S
Eu1019 O1059 2.373 . S
Eu1019 O1061 2.432 . S
Eu1019 O1062 2.291 . S
Eu1019 C1083 2.787 . S
N1020 C1016 1.351 . S
N1020 Eu1019 2.562 . S
N1020 C1022 1.325 . S
C1021 C1015 1.404 . S
C1021 C1023 1.366 . S
C1021 H1029 0.930 . S
C1022 N1020 1.325 . S
C1022 C1023 1.416 . S
C1022 H1028 0.929 . S
C1023 C1021 1.366 . S
C1023 C1022 1.416 . S
C1023 H1025 0.930 . S
H1024 C1013 0.930 . S
H1025 C1023 0.930 . S
H1026 C1041 0.930 . S
H1027 C1048 0.930 . S
H1028 C1022 0.929 . S
H1029 C1021 0.930 . S
H1030 C1044 0.929 . S
H1031 C1011 0.931 . S
H1032 C1017 0.931 . S
H1033 C1018 0.931 . S
H1034 C1039 0.931 . S
H1035 C1014 0.929 . S
H1036 C1047 0.930 . S
N1037 Eu1008 2.600 . S
N1037 C1038 1.365 . S
N1037 C1041 1.319 . S
C1038 N1037 1.365 . S
C1038 C1040 1.405 . S
C1038 C1046 1.448 . S
C1039 H1034 0.931 . S
C1039 C1041 1.397 . S
C1039 C1042 1.367 . S
C1040 C1038 1.405 . S
C1040 C1042 1.403 . S
C1040 C1073 1.439 . S
C1041 H1026 0.930 . S
C1041 N1037 1.319 . S
C1041 C1039 1.397 . S
C1042 C1039 1.367 . S
C1042 C1040 1.403 . S
C1042 H1049 0.929 . S
N1043 Eu1008 2.562 . S
N1043 C1044 1.325 . S
N1043 C1046 1.351 . S
C1044 H1030 0.929 . S
C1044 N1043 1.325 . S
C1044 C1048 1.416 . S
C1045 C1046 1.430 . S
C1045 C1047 1.404 . S
C1045 C1074 1.387 . S
C1046 C1038 1.448 . S
C1046 N1043 1.351 . S
C1046 C1045 1.430 . S
C1047 H1036 0.930 . S
C1047 C1045 1.404 . S
C1047 C1048 1.366 . S
C1048 H1027 0.930 . S
C1048 C1044 1.416 . S
C1048 C1047 1.366 . S
H1049 C1042 0.929 . S
H1050 C1073 0.931 . S
H1051 C1074 0.931 . S
O1052 Eu1008 2.462 . S
O1052 C1072 1.252 . S
O1053 Eu1008 2.373 . S
O1053 C1064 1.249 . S
O1054 Eu1019 2.335 . S
O1054 C1064 1.264 . S
O1055 Eu1008 2.432 . S
O1055 C1072 1.268 . S
O1056 Eu1008 2.291 . S
O1056 C1071 1.255 . S
O1057 Eu1019 2.372 . S
O1057 C1071 1.257 . S
O1058 Eu1019 2.462 . S
O1058 C1083 1.252 . S
O1059 Eu1019 2.373 . S
O1059 C1075 1.249 . S
O1060 Eu1008 2.335 . S
O1060 C1075 1.264 . S
O1061 Eu1019 2.432 . S
O1061 C1083 1.268 . S
O1062 Eu1019 2.291 . S
O1062 C1082 1.255 . S
O1063 Eu1008 2.372 . S
O1063 C1082 1.257 . S
C1064 O1053 1.249 . S
C1064 O1054 1.264 . S
C1065 C1068 1.382 . S
C1065 C1070 1.390 . S
C1065 C1072 1.506 . S
C1066 C1067 1.398 . S
C1066 C1070 1.392 . S
C1067 C1066 1.398 . S
C1067 C1069 1.372 . S
C1067 H1084 0.931 . S
C1068 C1065 1.382 . S
C1068 C1069 1.390 . S
C1068 H1085 0.931 . S
C1069 C1067 1.372 . S
C1069 C1068 1.390 . S
C1069 H1086 0.929 . S
C1070 C1065 1.390 . S
C1070 C1066 1.392 . S
C1070 H1087 0.930 . S
C1071 O1056 1.255 . S
C1071 O1057 1.257 . S
C1072 Eu1008 2.787 . S
C1072 O1052 1.252 . S
C1072 O1055 1.268 . S
C1072 C1065 1.506 . S
C1073 C1040 1.439 . S
C1073 H1050 0.931 . S
C1073 C1074 1.374 . S
C1074 C1045 1.387 . S
C1074 H1051 0.931 . S
C1074 C1073 1.374 . S
C1075 O1059 1.249 . S
C1075 O1060 1.264 . S
C1076 C1079 1.382 . S
C1076 C1080 1.390 . S
C1076 C1083 1.506 . S
C1077 C1078 1.398 . S
C1077 C1080 1.392 . S
C1078 C1077 1.398 . S
C1078 C1081 1.372 . S
C1078 H1088 0.931 . S
C1079 C1076 1.382 . S
C1079 C1081 1.390 . S
C1079 H1089 0.931 . S
C1080 C1076 1.390 . S
C1080 C1077 1.392 . S
C1080 H1090 0.930 . S
C1081 C1078 1.372 . S
C1081 C1079 1.390 . S
C1081 H1091 0.929 . S
C1082 O1062 1.255 . S
C1082 O1063 1.257 . S
C1083 Eu1019 2.787 . S
C1083 O1058 1.252 . S
C1083 O1061 1.268 . S
C1083 C1076 1.506 . S
H1084 C1067 0.931 . S
H1085 C1068 0.931 . S
H1086 C1069 0.929 . S
H1087 C1070 0.930 . S
H1088 C1078 0.931 . S
H1089 C1079 0.931 . S
H1090 C1080 0.930 . S
H1091 C1081 0.929 . S
Eu1092 N1121 2.600 1_545 S
Eu1092 N1127 2.562 . S
Eu1092 O1136 2.462 . S
Eu1092 O1137 2.373 . S
Eu1092 O1139 2.432 . S
Eu1092 O1140 2.291 . S
Eu1092 O1144 2.335 . S
Eu1092 O1147 2.372 . S
Eu1092 C1156 2.787 . S
C1093 N1094 1.365 . S
C1093 C1096 1.405 . S
C1093 C1100 1.448 . S
N1094 C1093 1.365 . S
N1094 C1097 1.319 . S
N1094 Eu1103 2.600 . S
C1095 C1097 1.397 . S
C1095 C1098 1.367 . S
C1095 H1115 0.931 . S
C1096 C1093 1.405 . S
C1096 C1098 1.403 . S
C1096 C1102 1.439 . S
C1097 N1094 1.319 . S
C1097 C1095 1.397 . S
C1097 H1108 0.930 . S
C1098 C1095 1.367 . S
C1098 C1096 1.403 . S
C1098 H1119 0.929 . S
C1099 C1100 1.430 . S
C1099 C1101 1.387 . S
C1099 C1105 1.404 . S
C1100 C1093 1.448 . S
C1100 C1099 1.430 . S
C1100 N1104 1.351 . S
C1101 C1099 1.387 . S
C1101 C1102 1.374 . S
C1101 H1116 0.931 . S
C1102 C1096 1.439 . S
C1102 C1101 1.374 . S
C1102 H1117 0.931 . S
Eu1103 N1094 2.600 . S
Eu1103 N1104 2.562 . S
Eu1103 O1138 2.335 . S
Eu1103 O1141 2.372 . S
Eu1103 O1142 2.462 . S
Eu1103 O1143 2.373 . S
Eu1103 O1145 2.432 . S
Eu1103 O1146 2.291 . S
Eu1103 C1167 2.787 . S
N1104 C1100 1.351 . S
N1104 Eu1103 2.562 . S
N1104 C1106 1.325 . S
C1105 C1099 1.404 . S
C1105 C1107 1.366 . S
C1105 H1113 0.930 . S
C1106 N1104 1.325 . S
C1106 C1107 1.416 . S
C1106 H1112 0.929 . S
C1107 C1105 1.366 . S
C1107 C1106 1.416 . S
C1107 H1109 0.930 . S
H1108 C1097 0.930 . S
H1109 C1107 0.930 . S
H1110 C1125 0.930 . S
H1111 C1132 0.930 . S
H1112 C1106 0.929 . S
H1113 C1105 0.930 . S
H1114 C1128 0.929 . S
H1115 C1095 0.931 . S
H1116 C1101 0.931 . S
H1117 C1102 0.931 . S
H1118 C1123 0.931 . S
H1119 C1098 0.929 . S
H1120 C1131 0.930 . S
N1121 Eu1092 2.600 1_565 S
N1121 C1122 1.365 . S
N1121 C1125 1.319 . S
C1122 N1121 1.365 . S
C1122 C1124 1.405 . S
C1122 C1130 1.448 1_565 S
C1123 H1118 0.931 . S
C1123 C1125 1.397 . S
C1123 C1126 1.367 . S
C1124 C1122 1.405 . S
C1124 C1126 1.403 . S
C1124 C1157 1.439 . S
C1125 H1110 0.930 . S
C1125 N1121 1.319 . S
C1125 C1123 1.397 . S
C1126 C1123 1.367 . S
C1126 C1124 1.403 . S
C1126 H1133 0.929 . S
N1127 Eu1092 2.562 . S
N1127 C1128 1.325 . S
N1127 C1130 1.351 . S
C1128 H1114 0.929 . S
C1128 N1127 1.325 . S
C1128 C1132 1.416 . S
C1129 C1130 1.430 1_565 S
C1129 C1131 1.404 1_565 S
C1129 C1158 1.387 . S
C1130 C1122 1.448 1_545 S
C1130 N1127 1.351 . S
C1130 C1129 1.430 1_545 S
C1131 H1120 0.930 . S
C1131 C1129 1.404 1_545 S
C1131 C1132 1.366 . S
C1132 H1111 0.930 . S
C1132 C1128 1.416 . S
C1132 C1131 1.366 . S
H1133 C1126 0.929 . S
H1134 C1157 0.931 . S
H1135 C1158 0.931 . S
O1136 Eu1092 2.462 . S
O1136 C1156 1.252 . S
O1137 Eu1092 2.373 . S
O1137 C1148 1.249 . S
O1138 Eu1103 2.335 . S
O1138 C1148 1.264 . S
O1139 Eu1092 2.432 . S
O1139 C1156 1.268 . S
O1140 Eu1092 2.291 . S
O1140 C1155 1.255 . S
O1141 Eu1103 2.372 . S
O1141 C1155 1.257 . S
O1142 Eu1103 2.462 . S
O1142 C1167 1.252 . S
O1143 Eu1103 2.373 . S
O1143 C1159 1.249 . S
O1144 Eu1092 2.335 . S
O1144 C1159 1.264 . S
O1145 Eu1103 2.432 . S
O1145 C1167 1.268 . S
O1146 Eu1103 2.291 . S
O1146 C1166 1.255 . S
O1147 Eu1092 2.372 . S
O1147 C1166 1.257 . S
C1148 O1137 1.249 . S
C1148 O1138 1.264 . S
C1149 C1152 1.382 . S
C1149 C1154 1.390 . S
C1149 C1156 1.506 . S
C1150 C1151 1.398 . S
C1150 C1154 1.392 . S
C1151 C1150 1.398 . S
C1151 C1153 1.372 . S
C1151 H1168 0.931 . S
C1152 C1149 1.382 . S
C1152 C1153 1.390 . S
C1152 H1169 0.931 . S
C1153 C1151 1.372 . S
C1153 C1152 1.390 . S
C1153 H1170 0.929 . S
C1154 C1149 1.390 . S
C1154 C1150 1.392 . S
C1154 H1171 0.930 . S
C1155 O1140 1.255 . S
C1155 O1141 1.257 . S
C1156 Eu1092 2.787 . S
C1156 O1136 1.252 . S
C1156 O1139 1.268 . S
C1156 C1149 1.506 . S
C1157 C1124 1.439 . S
C1157 H1134 0.931 . S
C1157 C1158 1.374 . S
C1158 C1129 1.387 . S
C1158 H1135 0.931 . S
C1158 C1157 1.374 . S
C1159 O1143 1.249 . S
C1159 O1144 1.264 . S
C1160 C1163 1.382 . S
C1160 C1164 1.390 . S
C1160 C1167 1.506 . S
C1161 C1162 1.398 . S
C1161 C1164 1.392 . S
C1162 C1161 1.398 . S
C1162 C1165 1.372 . S
C1162 H1172 0.931 . S
C1163 C1160 1.382 . S
C1163 C1165 1.390 . S
C1163 H1173 0.931 . S
C1164 C1160 1.390 . S
C1164 C1161 1.392 . S
C1164 H1174 0.930 . S
C1165 C1162 1.372 . S
C1165 C1163 1.390 . S
C1165 H1175 0.929 . S
C1166 O1146 1.255 . S
C1166 O1147 1.257 . S
C1167 Eu1103 2.787 . S
C1167 O1142 1.252 . S
C1167 O1145 1.268 . S
C1167 C1160 1.506 . S
H1168 C1151 0.931 . S
H1169 C1152 0.931 . S
H1170 C1153 0.929 . S
H1171 C1154 0.930 . S
H1172 C1162 0.931 . S
H1173 C1163 0.931 . S
H1174 C1164 0.930 . S
H1175 C1165 0.929 . S
Eu1176 N1205 2.600 . S
Eu1176 N1211 2.562 . S
Eu1176 O1220 2.462 . S
Eu1176 O1221 2.373 . S
Eu1176 O1223 2.432 . S
Eu1176 O1224 2.291 . S
Eu1176 O1228 2.335 . S
Eu1176 O1231 2.372 . S
Eu1176 C1240 2.787 . S
C1177 N1178 1.365 . S
C1177 C1180 1.405 . S
C1177 C1184 1.448 . S
N1178 C1177 1.365 . S
N1178 C1181 1.319 . S
N1178 Eu1187 2.600 . S
C1179 C1181 1.397 . S
C1179 C1182 1.367 . S
C1179 H1199 0.931 . S
C1180 C1177 1.405 . S
C1180 C1182 1.403 . S
C1180 C1186 1.439 . S
C1181 N1178 1.319 . S
C1181 C1179 1.397 . S
C1181 H1192 0.930 . S
C1182 C1179 1.367 . S
C1182 C1180 1.403 . S
C1182 H1203 0.929 . S
C1183 C1184 1.430 . S
C1183 C1185 1.387 . S
C1183 C1189 1.404 . S
C1184 C1177 1.448 . S
C1184 C1183 1.430 . S
C1184 N1188 1.351 . S
C1185 C1183 1.387 . S
C1185 C1186 1.374 . S
C1185 H1200 0.931 . S
C1186 C1180 1.439 . S
C1186 C1185 1.374 . S
C1186 H1201 0.931 . S
Eu1187 N1178 2.600 . S
Eu1187 N1188 2.562 . S
Eu1187 O1222 2.335 . S
Eu1187 O1225 2.372 . S
Eu1187 O1226 2.462 . S
Eu1187 O1227 2.373 . S
Eu1187 O1229 2.432 . S
Eu1187 O1230 2.291 . S
Eu1187 C1251 2.787 . S
N1188 C1184 1.351 . S
N1188 Eu1187 2.562 . S
N1188 C1190 1.325 . S
C1189 C1183 1.404 . S
C1189 C1191 1.366 . S
C1189 H1197 0.930 . S
C1190 N1188 1.325 . S
C1190 C1191 1.416 . S
C1190 H1196 0.929 . S
C1191 C1189 1.366 . S
C1191 C1190 1.416 . S
C1191 H1193 0.930 . S
H1192 C1181 0.930 . S
H1193 C1191 0.930 . S
H1194 C1209 0.930 . S
H1195 C1216 0.930 . S
H1196 C1190 0.929 . S
H1197 C1189 0.930 . S
H1198 C1212 0.929 . S
H1199 C1179 0.931 . S
H1200 C1185 0.931 . S
H1201 C1186 0.931 . S
H1202 C1207 0.931 . S
H1203 C1182 0.929 . S
H1204 C1215 0.930 . S
N1205 Eu1176 2.600 . S
N1205 C1206 1.365 . S
N1205 C1209 1.319 . S
C1206 N1205 1.365 . S
C1206 C1208 1.405 . S
C1206 C1214 1.448 . S
C1207 H1202 0.931 . S
C1207 C1209 1.397 . S
C1207 C1210 1.367 . S
C1208 C1206 1.405 . S
C1208 C1210 1.403 . S
C1208 C1241 1.439 . S
C1209 H1194 0.930 . S
C1209 N1205 1.319 . S
C1209 C1207 1.397 . S
C1210 C1207 1.367 . S
C1210 C1208 1.403 . S
C1210 H1217 0.929 . S
N1211 Eu1176 2.562 . S
N1211 C1212 1.325 . S
N1211 C1214 1.351 . S
C1212 H1198 0.929 . S
C1212 N1211 1.325 . S
C1212 C1216 1.416 . S
C1213 C1214 1.430 . S
C1213 C1215 1.404 . S
C1213 C1242 1.387 . S
C1214 C1206 1.448 . S
C1214 N1211 1.351 . S
C1214 C1213 1.430 . S
C1215 H1204 0.930 . S
C1215 C1213 1.404 . S
C1215 C1216 1.366 . S
C1216 H1195 0.930 . S
C1216 C1212 1.416 . S
C1216 C1215 1.366 . S
H1217 C1210 0.929 . S
H1218 C1241 0.931 . S
H1219 C1242 0.931 . S
O1220 Eu1176 2.462 . S
O1220 C1240 1.252 . S
O1221 Eu1176 2.373 . S
O1221 C1232 1.249 . S
O1222 Eu1187 2.335 . S
O1222 C1232 1.264 . S
O1223 Eu1176 2.432 . S
O1223 C1240 1.268 . S
O1224 Eu1176 2.291 . S
O1224 C1239 1.255 . S
O1225 Eu1187 2.372 . S
O1225 C1239 1.257 . S
O1226 Eu1187 2.462 . S
O1226 C1251 1.252 . S
O1227 Eu1187 2.373 . S
O1227 C1243 1.249 . S
O1228 Eu1176 2.335 . S
O1228 C1243 1.264 . S
O1229 Eu1187 2.432 . S
O1229 C1251 1.268 . S
O1230 Eu1187 2.291 . S
O1230 C1250 1.255 . S
O1231 Eu1176 2.372 . S
O1231 C1250 1.257 . S
C1232 O1221 1.249 . S
C1232 O1222 1.264 . S
C1233 C1236 1.382 . S
C1233 C1238 1.390 . S
C1233 C1240 1.506 . S
C1234 C1235 1.398 . S
C1234 C1238 1.392 . S
C1235 C1234 1.398 . S
C1235 C1237 1.372 . S
C1235 H1252 0.931 . S
C1236 C1233 1.382 . S
C1236 C1237 1.390 . S
C1236 H1253 0.931 . S
C1237 C1235 1.372 . S
C1237 C1236 1.390 . S
C1237 H1254 0.929 . S
C1238 C1233 1.390 . S
C1238 C1234 1.392 . S
C1238 H1255 0.930 . S
C1239 O1224 1.255 . S
C1239 O1225 1.257 . S
C1240 Eu1176 2.787 . S
C1240 O1220 1.252 . S
C1240 O1223 1.268 . S
C1240 C1233 1.506 . S
C1241 C1208 1.439 . S
C1241 H1218 0.931 . S
C1241 C1242 1.374 . S
C1242 C1213 1.387 . S
C1242 H1219 0.931 . S
C1242 C1241 1.374 . S
C1243 O1227 1.249 . S
C1243 O1228 1.264 . S
C1244 C1247 1.382 . S
C1244 C1248 1.390 . S
C1244 C1251 1.506 . S
C1245 C1246 1.398 . S
C1245 C1248 1.392 . S
C1246 C1245 1.398 . S
C1246 C1249 1.372 . S
C1246 H1256 0.931 . S
C1247 C1244 1.382 . S
C1247 C1249 1.390 . S
C1247 H1257 0.931 . S
C1248 C1244 1.390 . S
C1248 C1245 1.392 . S
C1248 H1258 0.930 . S
C1249 C1246 1.372 . S
C1249 C1247 1.390 . S
C1249 H1259 0.929 . S
C1250 O1230 1.255 . S
C1250 O1231 1.257 . S
C1251 Eu1187 2.787 . S
C1251 O1226 1.252 . S
C1251 O1229 1.268 . S
C1251 C1244 1.506 . S
H1252 C1235 0.931 . S
H1253 C1236 0.931 . S
H1254 C1237 0.929 . S
H1255 C1238 0.930 . S
H1256 C1246 0.931 . S
H1257 C1247 0.931 . S
H1258 C1248 0.930 . S
H1259 C1249 0.929 . S
Eu1260 N1289 2.600 1_665 S
Eu1260 N1295 2.562 1_655 S
Eu1260 O1304 2.462 1_655 S
Eu1260 O1305 2.373 . S
Eu1260 O1307 2.432 1_655 S
Eu1260 O1308 2.291 . S
Eu1260 O1312 2.335 . S
Eu1260 O1315 2.372 . S
Eu1260 C1324 2.787 1_655 S
C1261 N1262 1.365 . S
C1261 C1264 1.405 . S
C1261 C1268 1.448 . S
N1262 C1261 1.365 . S
N1262 C1265 1.319 . S
N1262 Eu1271 2.600 . S
C1263 C1265 1.397 . S
C1263 C1266 1.367 . S
C1263 H1283 0.931 . S
C1264 C1261 1.405 . S
C1264 C1266 1.403 . S
C1264 C1270 1.439 . S
C1265 N1262 1.319 . S
C1265 C1263 1.397 . S
C1265 H1276 0.930 . S
C1266 C1263 1.367 . S
C1266 C1264 1.403 . S
C1266 H1287 0.929 . S
C1267 C1268 1.430 . S
C1267 C1269 1.387 . S
C1267 C1273 1.404 . S
C1268 C1261 1.448 . S
C1268 C1267 1.430 . S
C1268 N1272 1.351 . S
C1269 C1267 1.387 . S
C1269 C1270 1.374 . S
C1269 H1284 0.931 . S
C1270 C1264 1.439 . S
C1270 C1269 1.374 . S
C1270 H1285 0.931 . S
Eu1271 N1262 2.600 . S
Eu1271 N1272 2.562 . S
Eu1271 O1306 2.335 . S
Eu1271 O1309 2.372 . S
Eu1271 O1310 2.462 . S
Eu1271 O1311 2.373 . S
Eu1271 O1313 2.432 . S
Eu1271 O1314 2.291 . S
Eu1271 C1335 2.787 . S
N1272 C1268 1.351 . S
N1272 Eu1271 2.562 . S
N1272 C1274 1.325 . S
C1273 C1267 1.404 . S
C1273 C1275 1.366 . S
C1273 H1281 0.930 . S
C1274 N1272 1.325 . S
C1274 C1275 1.416 . S
C1274 H1280 0.929 . S
C1275 C1273 1.366 . S
C1275 C1274 1.416 . S
C1275 H1277 0.930 . S
H1276 C1265 0.930 . S
H1277 C1275 0.930 . S
H1278 C1293 0.930 . S
H1279 C1300 0.930 . S
H1280 C1274 0.929 . S
H1281 C1273 0.930 . S
H1282 C1296 0.929 . S
H1283 C1263 0.931 . S
H1284 C1269 0.931 . S
H1285 C1270 0.931 . S
H1286 C1291 0.931 . S
H1287 C1266 0.929 . S
H1288 C1299 0.930 . S
N1289 Eu1260 2.600 1_445 S
N1289 C1290 1.365 . S
N1289 C1293 1.319 1_455 S
C1290 N1289 1.365 . S
C1290 C1292 1.405 . S
C1290 C1298 1.448 1_545 S
C1291 H1286 0.931 . S
C1291 C1293 1.397 . S
C1291 C1294 1.367 1_655 S
C1292 C1290 1.405 . S
C1292 C1294 1.403 . S
C1292 C1325 1.439 . S
C1293 H1278 0.930 . S
C1293 N1289 1.319 1_655 S
C1293 C1291 1.397 . S
C1294 C1291 1.367 1_455 S
C1294 C1292 1.403 . S
C1294 H1301 0.929 . S
N1295 Eu1260 2.562 1_455 S
N1295 C1296 1.325 . S
N1295 C1298 1.351 . S
C1296 H1282 0.929 . S
C1296 N1295 1.325 . S
C1296 C1300 1.416 . S
C1297 C1298 1.430 1_545 S
C1297 C1299 1.404 1_545 S
C1297 C1326 1.387 . S
C1298 C1290 1.448 1_565 S
C1298 N1295 1.351 . S
C1298 C1297 1.430 1_565 S
C1299 H1288 0.930 . S
C1299 C1297 1.404 1_565 S
C1299 C1300 1.366 . S
C1300 H1279 0.930 . S
C1300 C1296 1.416 . S
C1300 C1299 1.366 . S
H1301 C1294 0.929 . S
H1302 C1325 0.931 . S
H1303 C1326 0.931 . S
O1304 Eu1260 2.462 1_455 S
O1304 C1324 1.252 . S
O1305 Eu1260 2.373 . S
O1305 C1316 1.249 . S
O1306 Eu1271 2.335 . S
O1306 C1316 1.264 . S
O1307 Eu1260 2.432 1_455 S
O1307 C1324 1.268 . S
O1308 Eu1260 2.291 . S
O1308 C1323 1.255 . S
O1309 Eu1271 2.372 . S
O1309 C1323 1.257 . S
O1310 Eu1271 2.462 . S
O1310 C1335 1.252 . S
O1311 Eu1271 2.373 . S
O1311 C1327 1.249 . S
O1312 Eu1260 2.335 . S
O1312 C1327 1.264 . S
O1313 Eu1271 2.432 . S
O1313 C1335 1.268 . S
O1314 Eu1271 2.291 . S
O1314 C1334 1.255 . S
O1315 Eu1260 2.372 . S
O1315 C1334 1.257 . S
C1316 O1305 1.249 . S
C1316 O1306 1.264 . S
C1317 C1320 1.382 . S
C1317 C1322 1.390 . S
C1317 C1324 1.506 . S
C1318 C1319 1.398 . S
C1318 C1322 1.392 . S
C1319 C1318 1.398 . S
C1319 C1321 1.372 . S
C1319 H1336 0.931 . S
C1320 C1317 1.382 . S
C1320 C1321 1.390 . S
C1320 H1337 0.931 . S
C1321 C1319 1.372 . S
C1321 C1320 1.390 . S
C1321 H1338 0.929 . S
C1322 C1317 1.390 . S
C1322 C1318 1.392 . S
C1322 H1339 0.930 . S
C1323 O1308 1.255 . S
C1323 O1309 1.257 . S
C1324 Eu1260 2.787 1_455 S
C1324 O1304 1.252 . S
C1324 O1307 1.268 . S
C1324 C1317 1.506 . S
C1325 C1292 1.439 . S
C1325 H1302 0.931 . S
C1325 C1326 1.374 . S
C1326 C1297 1.387 . S
C1326 H1303 0.931 . S
C1326 C1325 1.374 . S
C1327 O1311 1.249 . S
C1327 O1312 1.264 . S
C1328 C1331 1.382 . S
C1328 C1332 1.390 . S
C1328 C1335 1.506 . S
C1329 C1330 1.398 . S
C1329 C1332 1.392 . S
C1330 C1329 1.398 . S
C1330 C1333 1.372 . S
C1330 H1340 0.931 . S
C1331 C1328 1.382 . S
C1331 C1333 1.390 . S
C1331 H1341 0.931 . S
C1332 C1328 1.390 . S
C1332 C1329 1.392 . S
C1332 H1342 0.930 . S
C1333 C1330 1.372 . S
C1333 C1331 1.390 . S
C1333 H1343 0.929 . S
C1334 O1314 1.255 . S
C1334 O1315 1.257 . S
C1335 Eu1271 2.787 . S
C1335 O1310 1.252 . S
C1335 O1313 1.268 . S
C1335 C1328 1.506 . S
H1336 C1319 0.931 . S
H1337 C1320 0.931 . S
H1338 C1321 0.929 . S
H1339 C1322 0.930 . S
H1340 C1330 0.931 . S
H1341 C1331 0.931 . S
H1342 C1332 0.930 . S
H1343 C1333 0.929 . S
Eu1344 N1373 2.600 . S
Eu1344 N1379 2.562 . S
Eu1344 O1388 2.462 . S
Eu1344 O1389 2.373 . S
Eu1344 O1391 2.432 . S
Eu1344 O1392 2.291 . S
Eu1344 O1396 2.335 . S
Eu1344 O1399 2.372 . S
Eu1344 C1408 2.787 . S
C1345 N1346 1.365 . S
C1345 C1348 1.405 . S
C1345 C1352 1.448 . S
N1346 C1345 1.365 . S
N1346 C1349 1.319 . S
N1346 Eu1355 2.600 . S
C1347 C1349 1.397 . S
C1347 C1350 1.367 . S
C1347 H1367 0.931 . S
C1348 C1345 1.405 . S
C1348 C1350 1.403 . S
C1348 C1354 1.439 . S
C1349 N1346 1.319 . S
C1349 C1347 1.397 . S
C1349 H1360 0.930 . S
C1350 C1347 1.367 . S
C1350 C1348 1.403 . S
C1350 H1371 0.929 . S
C1351 C1352 1.430 . S
C1351 C1353 1.387 . S
C1351 C1357 1.404 . S
C1352 C1345 1.448 . S
C1352 C1351 1.430 . S
C1352 N1356 1.351 . S
C1353 C1351 1.387 . S
C1353 C1354 1.374 . S
C1353 H1368 0.931 . S
C1354 C1348 1.439 . S
C1354 C1353 1.374 . S
C1354 H1369 0.931 . S
Eu1355 N1346 2.600 . S
Eu1355 N1356 2.562 . S
Eu1355 O1390 2.335 . S
Eu1355 O1393 2.372 . S
Eu1355 O1394 2.462 . S
Eu1355 O1395 2.373 . S
Eu1355 O1397 2.432 . S
Eu1355 O1398 2.291 . S
Eu1355 C1419 2.787 . S
N1356 C1352 1.351 . S
N1356 Eu1355 2.562 . S
N1356 C1358 1.325 . S
C1357 C1351 1.404 . S
C1357 C1359 1.366 . S
C1357 H1365 0.930 . S
C1358 N1356 1.325 . S
C1358 C1359 1.416 . S
C1358 H1364 0.929 . S
C1359 C1357 1.366 . S
C1359 C1358 1.416 . S
C1359 H1361 0.930 . S
H1360 C1349 0.930 . S
H1361 C1359 0.930 . S
H1362 C1377 0.930 . S
H1363 C1384 0.930 . S
H1364 C1358 0.929 . S
H1365 C1357 0.930 . S
H1366 C1380 0.929 . S
H1367 C1347 0.931 . S
H1368 C1353 0.931 . S
H1369 C1354 0.931 . S
H1370 C1375 0.931 . S
H1371 C1350 0.929 . S
H1372 C1383 0.930 . S
N1373 Eu1344 2.600 . S
N1373 C1374 1.365 . S
N1373 C1377 1.319 . S
C1374 N1373 1.365 . S
C1374 C1376 1.405 . S
C1374 C1382 1.448 . S
C1375 H1370 0.931 . S
C1375 C1377 1.397 . S
C1375 C1378 1.367 . S
C1376 C1374 1.405 . S
C1376 C1378 1.403 . S
C1376 C1409 1.439 . S
C1377 H1362 0.930 . S
C1377 N1373 1.319 . S
C1377 C1375 1.397 . S
C1378 C1375 1.367 . S
C1378 C1376 1.403 . S
C1378 H1385 0.929 . S
N1379 Eu1344 2.562 . S
N1379 C1380 1.325 . S
N1379 C1382 1.351 . S
C1380 H1366 0.929 . S
C1380 N1379 1.325 . S
C1380 C1384 1.416 . S
C1381 C1382 1.430 . S
C1381 C1383 1.404 . S
C1381 C1410 1.387 . S
C1382 C1374 1.448 . S
C1382 N1379 1.351 . S
C1382 C1381 1.430 . S
C1383 H1372 0.930 . S
C1383 C1381 1.404 . S
C1383 C1384 1.366 . S
C1384 H1363 0.930 . S
C1384 C1380 1.416 . S
C1384 C1383 1.366 . S
H1385 C1378 0.929 . S
H1386 C1409 0.931 . S
H1387 C1410 0.931 . S
O1388 Eu1344 2.462 . S
O1388 C1408 1.252 . S
O1389 Eu1344 2.373 . S
O1389 C1400 1.249 . S
O1390 Eu1355 2.335 . S
O1390 C1400 1.264 . S
O1391 Eu1344 2.432 . S
O1391 C1408 1.268 . S
O1392 Eu1344 2.291 . S
O1392 C1407 1.255 . S
O1393 Eu1355 2.372 . S
O1393 C1407 1.257 . S
O1394 Eu1355 2.462 . S
O1394 C1419 1.252 . S
O1395 Eu1355 2.373 . S
O1395 C1411 1.249 . S
O1396 Eu1344 2.335 . S
O1396 C1411 1.264 . S
O1397 Eu1355 2.432 . S
O1397 C1419 1.268 . S
O1398 Eu1355 2.291 . S
O1398 C1418 1.255 . S
O1399 Eu1344 2.372 . S
O1399 C1418 1.257 . S
C1400 O1389 1.249 . S
C1400 O1390 1.264 . S
C1401 C1404 1.382 . S
C1401 C1406 1.390 . S
C1401 C1408 1.506 . S
C1402 C1403 1.398 . S
C1402 C1406 1.392 . S
C1403 C1402 1.398 . S
C1403 C1405 1.372 . S
C1403 H1420 0.931 . S
C1404 C1401 1.382 . S
C1404 C1405 1.390 . S
C1404 H1421 0.931 . S
C1405 C1403 1.372 . S
C1405 C1404 1.390 . S
C1405 H1422 0.929 . S
C1406 C1401 1.390 . S
C1406 C1402 1.392 . S
C1406 H1423 0.930 . S
C1407 O1392 1.255 . S
C1407 O1393 1.257 . S
C1408 Eu1344 2.787 . S
C1408 O1388 1.252 . S
C1408 O1391 1.268 . S
C1408 C1401 1.506 . S
C1409 C1376 1.439 . S
C1409 H1386 0.931 . S
C1409 C1410 1.374 . S
C1410 C1381 1.387 . S
C1410 H1387 0.931 . S
C1410 C1409 1.374 . S
C1411 O1395 1.249 . S
C1411 O1396 1.264 . S
C1412 C1415 1.382 . S
C1412 C1416 1.390 . S
C1412 C1419 1.506 . S
C1413 C1414 1.398 . S
C1413 C1416 1.392 . S
C1414 C1413 1.398 . S
C1414 C1417 1.372 . S
C1414 H1424 0.931 . S
C1415 C1412 1.382 . S
C1415 C1417 1.390 . S
C1415 H1425 0.931 . S
C1416 C1412 1.390 . S
C1416 C1413 1.392 . S
C1416 H1426 0.930 . S
C1417 C1414 1.372 . S
C1417 C1415 1.390 . S
C1417 H1427 0.929 . S
C1418 O1398 1.255 . S
C1418 O1399 1.257 . S
C1419 Eu1355 2.787 . S
C1419 O1394 1.252 . S
C1419 O1397 1.268 . S
C1419 C1412 1.506 . S
H1420 C1403 0.931 . S
H1421 C1404 0.931 . S
H1422 C1405 0.929 . S
H1423 C1406 0.930 . S
H1424 C1414 0.931 . S
H1425 C1415 0.931 . S
H1426 C1416 0.930 . S
H1427 C1417 0.929 . S
Eu1428 N1457 2.600 . S
Eu1428 N1463 2.562 . S
Eu1428 O1472 2.462 . S
Eu1428 O1473 2.373 . S
Eu1428 O1475 2.432 . S
Eu1428 O1476 2.291 . S
Eu1428 O1480 2.335 . S
Eu1428 O1483 2.372 . S
Eu1428 C1492 2.787 . S
C1429 N1430 1.365 . S
C1429 C1432 1.405 . S
C1429 C1436 1.448 . S
N1430 C1429 1.365 . S
N1430 C1433 1.319 . S
N1430 Eu1439 2.600 . S
C1431 C1433 1.397 . S
C1431 C1434 1.367 . S
C1431 H1451 0.931 . S
C1432 C1429 1.405 . S
C1432 C1434 1.403 . S
C1432 C1438 1.439 . S
C1433 N1430 1.319 . S
C1433 C1431 1.397 . S
C1433 H1444 0.930 . S
C1434 C1431 1.367 . S
C1434 C1432 1.403 . S
C1434 H1455 0.929 . S
C1435 C1436 1.430 . S
C1435 C1437 1.387 . S
C1435 C1441 1.404 . S
C1436 C1429 1.448 . S
C1436 C1435 1.430 . S
C1436 N1440 1.351 . S
C1437 C1435 1.387 . S
C1437 C1438 1.374 . S
C1437 H1452 0.931 . S
C1438 C1432 1.439 . S
C1438 C1437 1.374 . S
C1438 H1453 0.931 . S
Eu1439 N1430 2.600 . S
Eu1439 N1440 2.562 . S
Eu1439 O1474 2.335 . S
Eu1439 O1477 2.372 . S
Eu1439 O1478 2.462 . S
Eu1439 O1479 2.373 . S
Eu1439 O1481 2.432 . S
Eu1439 O1482 2.291 . S
Eu1439 C1503 2.787 . S
N1440 C1436 1.351 . S
N1440 Eu1439 2.562 . S
N1440 C1442 1.325 . S
C1441 C1435 1.404 . S
C1441 C1443 1.366 . S
C1441 H1449 0.930 . S
C1442 N1440 1.325 . S
C1442 C1443 1.416 . S
C1442 H1448 0.929 . S
C1443 C1441 1.366 . S
C1443 C1442 1.416 . S
C1443 H1445 0.930 . S
H1444 C1433 0.930 . S
H1445 C1443 0.930 . S
H1446 C1461 0.930 . S
H1447 C1468 0.930 . S
H1448 C1442 0.929 . S
H1449 C1441 0.930 . S
H1450 C1464 0.929 . S
H1451 C1431 0.931 . S
H1452 C1437 0.931 . S
H1453 C1438 0.931 . S
H1454 C1459 0.931 . S
H1455 C1434 0.929 . S
H1456 C1467 0.930 . S
N1457 Eu1428 2.600 . S
N1457 C1458 1.365 . S
N1457 C1461 1.319 . S
C1458 N1457 1.365 . S
C1458 C1460 1.405 . S
C1458 C1466 1.448 . S
C1459 H1454 0.931 . S
C1459 C1461 1.397 . S
C1459 C1462 1.367 . S
C1460 C1458 1.405 . S
C1460 C1462 1.403 . S
C1460 C1493 1.439 . S
C1461 H1446 0.930 . S
C1461 N1457 1.319 . S
C1461 C1459 1.397 . S
C1462 C1459 1.367 . S
C1462 C1460 1.403 . S
C1462 H1469 0.929 . S
N1463 Eu1428 2.562 . S
N1463 C1464 1.325 . S
N1463 C1466 1.351 . S
C1464 H1450 0.929 . S
C1464 N1463 1.325 . S
C1464 C1468 1.416 . S
C1465 C1466 1.430 . S
C1465 C1467 1.404 . S
C1465 C1494 1.387 . S
C1466 C1458 1.448 . S
C1466 N1463 1.351 . S
C1466 C1465 1.430 . S
C1467 H1456 0.930 . S
C1467 C1465 1.404 . S
C1467 C1468 1.366 . S
C1468 H1447 0.930 . S
C1468 C1464 1.416 . S
C1468 C1467 1.366 . S
H1469 C1462 0.929 . S
H1470 C1493 0.931 . S
H1471 C1494 0.931 . S
O1472 Eu1428 2.462 . S
O1472 C1492 1.252 . S
O1473 Eu1428 2.373 . S
O1473 C1484 1.249 . S
O1474 Eu1439 2.335 . S
O1474 C1484 1.264 . S
O1475 Eu1428 2.432 . S
O1475 C1492 1.268 . S
O1476 Eu1428 2.291 . S
O1476 C1491 1.255 . S
O1477 Eu1439 2.372 . S
O1477 C1491 1.257 . S
O1478 Eu1439 2.462 . S
O1478 C1503 1.252 . S
O1479 Eu1439 2.373 . S
O1479 C1495 1.249 . S
O1480 Eu1428 2.335 . S
O1480 C1495 1.264 . S
O1481 Eu1439 2.432 . S
O1481 C1503 1.268 . S
O1482 Eu1439 2.291 . S
O1482 C1502 1.255 . S
O1483 Eu1428 2.372 . S
O1483 C1502 1.257 . S
C1484 O1473 1.249 . S
C1484 O1474 1.264 . S
C1485 C1488 1.382 . S
C1485 C1490 1.390 . S
C1485 C1492 1.506 . S
C1486 C1487 1.398 . S
C1486 C1490 1.392 . S
C1487 C1486 1.398 . S
C1487 C1489 1.372 . S
C1487 H1504 0.931 . S
C1488 C1485 1.382 . S
C1488 C1489 1.390 . S
C1488 H1505 0.931 . S
C1489 C1487 1.372 . S
C1489 C1488 1.390 . S
C1489 H1506 0.929 . S
C1490 C1485 1.390 . S
C1490 C1486 1.392 . S
C1490 H1507 0.930 . S
C1491 O1476 1.255 . S
C1491 O1477 1.257 . S
C1492 Eu1428 2.787 . S
C1492 O1472 1.252 . S
C1492 O1475 1.268 . S
C1492 C1485 1.506 . S
C1493 C1460 1.439 . S
C1493 H1470 0.931 . S
C1493 C1494 1.374 . S
C1494 C1465 1.387 . S
C1494 H1471 0.931 . S
C1494 C1493 1.374 . S
C1495 O1479 1.249 . S
C1495 O1480 1.264 . S
C1496 C1499 1.382 . S
C1496 C1500 1.390 . S
C1496 C1503 1.506 . S
C1497 C1498 1.398 . S
C1497 C1500 1.392 . S
C1498 C1497 1.398 . S
C1498 C1501 1.372 . S
C1498 H1508 0.931 . S
C1499 C1496 1.382 . S
C1499 C1501 1.390 . S
C1499 H1509 0.931 . S
C1500 C1496 1.390 . S
C1500 C1497 1.392 . S
C1500 H1510 0.930 . S
C1501 C1498 1.372 . S
C1501 C1499 1.390 . S
C1501 H1511 0.929 . S
C1502 O1482 1.255 . S
C1502 O1483 1.257 . S
C1503 Eu1439 2.787 . S
C1503 O1478 1.252 . S
C1503 O1481 1.268 . S
C1503 C1496 1.506 . S
H1504 C1487 0.931 . S
H1505 C1488 0.931 . S
H1506 C1489 0.929 . S
H1507 C1490 0.930 . S
H1508 C1498 0.931 . S
H1509 C1499 0.931 . S
H1510 C1500 0.930 . S
H1511 C1501 0.929 . S
Eu1512 N1541 2.600 . S
Eu1512 N1547 2.562 . S
Eu1512 O1556 2.462 . S
Eu1512 O1557 2.373 . S
Eu1512 O1559 2.432 . S
Eu1512 O1560 2.291 . S
Eu1512 O1564 2.335 . S
Eu1512 O1567 2.372 . S
Eu1512 C1576 2.787 . S
C1513 N1514 1.365 . S
C1513 C1516 1.405 . S
C1513 C1520 1.448 . S
N1514 C1513 1.365 . S
N1514 C1517 1.319 . S
N1514 Eu1523 2.600 . S
C1515 C1517 1.397 . S
C1515 C1518 1.367 . S
C1515 H1535 0.931 . S
C1516 C1513 1.405 . S
C1516 C1518 1.403 . S
C1516 C1522 1.439 . S
C1517 N1514 1.319 . S
C1517 C1515 1.397 . S
C1517 H1528 0.930 . S
C1518 C1515 1.367 . S
C1518 C1516 1.403 . S
C1518 H1539 0.929 . S
C1519 C1520 1.430 . S
C1519 C1521 1.387 . S
C1519 C1525 1.404 . S
C1520 C1513 1.448 . S
C1520 C1519 1.430 . S
C1520 N1524 1.351 . S
C1521 C1519 1.387 . S
C1521 C1522 1.374 . S
C1521 H1536 0.931 . S
C1522 C1516 1.439 . S
C1522 C1521 1.374 . S
C1522 H1537 0.931 . S
Eu1523 N1514 2.600 . S
Eu1523 N1524 2.562 . S
Eu1523 O1558 2.335 . S
Eu1523 O1561 2.372 . S
Eu1523 O1562 2.462 . S
Eu1523 O1563 2.373 . S
Eu1523 O1565 2.432 . S
Eu1523 O1566 2.291 . S
Eu1523 C1587 2.787 . S
N1524 C1520 1.351 . S
N1524 Eu1523 2.562 . S
N1524 C1526 1.325 . S
C1525 C1519 1.404 . S
C1525 C1527 1.366 . S
C1525 H1533 0.930 . S
C1526 N1524 1.325 . S
C1526 C1527 1.416 . S
C1526 H1532 0.929 . S
C1527 C1525 1.366 . S
C1527 C1526 1.416 . S
C1527 H1529 0.930 . S
H1528 C1517 0.930 . S
H1529 C1527 0.930 . S
H1530 C1545 0.930 . S
H1531 C1552 0.930 . S
H1532 C1526 0.929 . S
H1533 C1525 0.930 . S
H1534 C1548 0.929 . S
H1535 C1515 0.931 . S
H1536 C1521 0.931 . S
H1537 C1522 0.931 . S
H1538 C1543 0.931 . S
H1539 C1518 0.929 . S
H1540 C1551 0.930 . S
N1541 Eu1512 2.600 . S
N1541 C1542 1.365 . S
N1541 C1545 1.319 . S
C1542 N1541 1.365 . S
C1542 C1544 1.405 . S
C1542 C1550 1.448 . S
C1543 H1538 0.931 . S
C1543 C1545 1.397 . S
C1543 C1546 1.367 . S
C1544 C1542 1.405 . S
C1544 C1546 1.403 . S
C1544 C1577 1.439 . S
C1545 H1530 0.930 . S
C1545 N1541 1.319 . S
C1545 C1543 1.397 . S
C1546 C1543 1.367 . S
C1546 C1544 1.403 . S
C1546 H1553 0.929 . S
N1547 Eu1512 2.562 . S
N1547 C1548 1.325 . S
N1547 C1550 1.351 . S
C1548 H1534 0.929 . S
C1548 N1547 1.325 . S
C1548 C1552 1.416 . S
C1549 C1550 1.430 . S
C1549 C1551 1.404 . S
C1549 C1578 1.387 . S
C1550 C1542 1.448 . S
C1550 N1547 1.351 . S
C1550 C1549 1.430 . S
C1551 H1540 0.930 . S
C1551 C1549 1.404 . S
C1551 C1552 1.366 . S
C1552 H1531 0.930 . S
C1552 C1548 1.416 . S
C1552 C1551 1.366 . S
H1553 C1546 0.929 . S
H1554 C1577 0.931 . S
H1555 C1578 0.931 . S
O1556 Eu1512 2.462 . S
O1556 C1576 1.252 . S
O1557 Eu1512 2.373 . S
O1557 C1568 1.249 . S
O1558 Eu1523 2.335 . S
O1558 C1568 1.264 . S
O1559 Eu1512 2.432 . S
O1559 C1576 1.268 . S
O1560 Eu1512 2.291 . S
O1560 C1575 1.255 . S
O1561 Eu1523 2.372 . S
O1561 C1575 1.257 . S
O1562 Eu1523 2.462 . S
O1562 C1587 1.252 . S
O1563 Eu1523 2.373 . S
O1563 C1579 1.249 . S
O1564 Eu1512 2.335 . S
O1564 C1579 1.264 . S
O1565 Eu1523 2.432 . S
O1565 C1587 1.268 . S
O1566 Eu1523 2.291 . S
O1566 C1586 1.255 . S
O1567 Eu1512 2.372 . S
O1567 C1586 1.257 . S
C1568 O1557 1.249 . S
C1568 O1558 1.264 . S
C1569 C1572 1.382 . S
C1569 C1574 1.390 . S
C1569 C1576 1.506 . S
C1570 C1571 1.398 . S
C1570 C1574 1.392 . S
C1571 C1570 1.398 . S
C1571 C1573 1.372 . S
C1571 H1588 0.931 . S
C1572 C1569 1.382 . S
C1572 C1573 1.390 . S
C1572 H1589 0.931 . S
C1573 C1571 1.372 . S
C1573 C1572 1.390 . S
C1573 H1590 0.929 . S
C1574 C1569 1.390 . S
C1574 C1570 1.392 . S
C1574 H1591 0.930 . S
C1575 O1560 1.255 . S
C1575 O1561 1.257 . S
C1576 Eu1512 2.787 . S
C1576 O1556 1.252 . S
C1576 O1559 1.268 . S
C1576 C1569 1.506 . S
C1577 C1544 1.439 . S
C1577 H1554 0.931 . S
C1577 C1578 1.374 . S
C1578 C1549 1.387 . S
C1578 H1555 0.931 . S
C1578 C1577 1.374 . S
C1579 O1563 1.249 . S
C1579 O1564 1.264 . S
C1580 C1583 1.382 . S
C1580 C1584 1.390 . S
C1580 C1587 1.506 . S
C1581 C1582 1.398 . S
C1581 C1584 1.392 . S
C1582 C1581 1.398 . S
C1582 C1585 1.372 . S
C1582 H1592 0.931 . S
C1583 C1580 1.382 . S
C1583 C1585 1.390 . S
C1583 H1593 0.931 . S
C1584 C1580 1.390 . S
C1584 C1581 1.392 . S
C1584 H1594 0.930 . S
C1585 C1582 1.372 . S
C1585 C1583 1.390 . S
C1585 H1595 0.929 . S
C1586 O1566 1.255 . S
C1586 O1567 1.257 . S
C1587 Eu1523 2.787 . S
C1587 O1562 1.252 . S
C1587 O1565 1.268 . S
C1587 C1580 1.506 . S
H1588 C1571 0.931 . S
H1589 C1572 0.931 . S
H1590 C1573 0.929 . S
H1591 C1574 0.930 . S
H1592 C1582 0.931 . S
H1593 C1583 0.931 . S
H1594 C1584 0.930 . S
H1595 C1585 0.929 . S
Eu1596 N1625 2.600 . S
Eu1596 N1631 2.562 . S
Eu1596 O1640 2.462 . S
Eu1596 O1641 2.373 . S
Eu1596 O1643 2.432 . S
Eu1596 O1644 2.291 . S
Eu1596 O1648 2.335 . S
Eu1596 O1651 2.372 . S
Eu1596 C1660 2.787 . S
C1597 N1598 1.365 . S
C1597 C1600 1.405 . S
C1597 C1604 1.448 . S
N1598 C1597 1.365 . S
N1598 C1601 1.319 1_455 S
N1598 Eu1607 2.600 1_455 S
C1599 C1601 1.397 . S
C1599 C1602 1.367 1_655 S
C1599 H1619 0.931 . S
C1600 C1597 1.405 . S
C1600 C1602 1.403 . S
C1600 C1606 1.439 . S
C1601 N1598 1.319 1_655 S
C1601 C1599 1.397 . S
C1601 H1612 0.930 . S
C1602 C1599 1.367 1_455 S
C1602 C1600 1.403 . S
C1602 H1623 0.929 . S
C1603 C1604 1.430 . S
C1603 C1605 1.387 . S
C1603 C1609 1.404 . S
C1604 C1597 1.448 . S
C1604 C1603 1.430 . S
C1604 N1608 1.351 . S
C1605 C1603 1.387 . S
C1605 C1606 1.374 . S
C1605 H1620 0.931 . S
C1606 C1600 1.439 . S
C1606 C1605 1.374 . S
C1606 H1621 0.931 . S
Eu1607 N1598 2.600 1_655 S
Eu1607 N1608 2.562 1_655 S
Eu1607 O1642 2.335 . S
Eu1607 O1645 2.372 . S
Eu1607 O1646 2.462 1_655 S
Eu1607 O1647 2.373 . S
Eu1607 O1649 2.432 1_655 S
Eu1607 O1650 2.291 . S
Eu1607 C1671 2.787 1_655 S
N1608 C1604 1.351 . S
N1608 Eu1607 2.562 1_455 S
N1608 C1610 1.325 . S
C1609 C1603 1.404 . S
C1609 C1611 1.366 . S
C1609 H1617 0.930 . S
C1610 N1608 1.325 . S
C1610 C1611 1.416 . S
C1610 H1616 0.929 . S
C1611 C1609 1.366 . S
C1611 C1610 1.416 . S
C1611 H1613 0.930 . S
H1612 C1601 0.930 . S
H1613 C1611 0.930 . S
H1614 C1629 0.930 . S
H1615 C1636 0.930 . S
H1616 C1610 0.929 . S
H1617 C1609 0.930 . S
H1618 C1632 0.929 . S
H1619 C1599 0.931 . S
H1620 C1605 0.931 . S
H1621 C1606 0.931 . S
H1622 C1627 0.931 . S
H1623 C1602 0.929 . S
H1624 C1635 0.930 . S
N1625 Eu1596 2.600 . S
N1625 C1626 1.365 . S
N1625 C1629 1.319 . S
C1626 N1625 1.365 . S
C1626 C1628 1.405 . S
C1626 C1634 1.448 . S
C1627 H1622 0.931 . S
C1627 C1629 1.397 . S
C1627 C1630 1.367 . S
C1628 C1626 1.405 . S
C1628 C1630 1.403 . S
C1628 C1661 1.439 . S
C1629 H1614 0.930 . S
C1629 N1625 1.319 . S
C1629 C1627 1.397 . S
C1630 C1627 1.367 . S
C1630 C1628 1.403 . S
C1630 H1637 0.929 . S
N1631 Eu1596 2.562 . S
N1631 C1632 1.325 . S
N1631 C1634 1.351 . S
C1632 H1618 0.929 . S
C1632 N1631 1.325 . S
C1632 C1636 1.416 . S
C1633 C1634 1.430 . S
C1633 C1635 1.404 . S
C1633 C1662 1.387 . S
C1634 C1626 1.448 . S
C1634 N1631 1.351 . S
C1634 C1633 1.430 . S
C1635 H1624 0.930 . S
C1635 C1633 1.404 . S
C1635 C1636 1.366 . S
C1636 H1615 0.930 . S
C1636 C1632 1.416 . S
C1636 C1635 1.366 . S
H1637 C1630 0.929 . S
H1638 C1661 0.931 . S
H1639 C1662 0.931 . S
O1640 Eu1596 2.462 . S
O1640 C1660 1.252 . S
O1641 Eu1596 2.373 . S
O1641 C1652 1.249 . S
O1642 Eu1607 2.335 . S
O1642 C1652 1.264 . S
O1643 Eu1596 2.432 . S
O1643 C1660 1.268 . S
O1644 Eu1596 2.291 . S
O1644 C1659 1.255 . S
O1645 Eu1607 2.372 . S
O1645 C1659 1.257 . S
O1646 Eu1607 2.462 1_455 S
O1646 C1671 1.252 . S
O1647 Eu1607 2.373 . S
O1647 C1663 1.249 . S
O1648 Eu1596 2.335 . S
O1648 C1663 1.264 . S
O1649 Eu1607 2.432 1_455 S
O1649 C1671 1.268 . S
O1650 Eu1607 2.291 . S
O1650 C1670 1.255 . S
O1651 Eu1596 2.372 . S
O1651 C1670 1.257 . S
C1652 O1641 1.249 . S
C1652 O1642 1.264 . S
C1653 C1656 1.382 . S
C1653 C1658 1.390 . S
C1653 C1660 1.506 . S
C1654 C1655 1.398 . S
C1654 C1658 1.392 . S
C1655 C1654 1.398 . S
C1655 C1657 1.372 . S
C1655 H1672 0.931 . S
C1656 C1653 1.382 . S
C1656 C1657 1.390 . S
C1656 H1673 0.931 . S
C1657 C1655 1.372 . S
C1657 C1656 1.390 . S
C1657 H1674 0.929 . S
C1658 C1653 1.390 . S
C1658 C1654 1.392 . S
C1658 H1675 0.930 . S
C1659 O1644 1.255 . S
C1659 O1645 1.257 . S
C1660 Eu1596 2.787 . S
C1660 O1640 1.252 . S
C1660 O1643 1.268 . S
C1660 C1653 1.506 . S
C1661 C1628 1.439 . S
C1661 H1638 0.931 . S
C1661 C1662 1.374 . S
C1662 C1633 1.387 . S
C1662 H1639 0.931 . S
C1662 C1661 1.374 . S
C1663 O1647 1.249 . S
C1663 O1648 1.264 . S
C1664 C1667 1.382 . S
C1664 C1668 1.390 . S
C1664 C1671 1.506 . S
C1665 C1666 1.398 . S
C1665 C1668 1.392 . S
C1666 C1665 1.398 . S
C1666 C1669 1.372 . S
C1666 H1676 0.931 . S
C1667 C1664 1.382 . S
C1667 C1669 1.390 . S
C1667 H1677 0.931 . S
C1668 C1664 1.390 . S
C1668 C1665 1.392 . S
C1668 H1678 0.930 . S
C1669 C1666 1.372 . S
C1669 C1667 1.390 . S
C1669 H1679 0.929 . S
C1670 O1650 1.255 . S
C1670 O1651 1.257 . S
C1671 Eu1607 2.787 1_455 S
C1671 O1646 1.252 . S
C1671 O1649 1.268 . S
C1671 C1664 1.506 . S
H1672 C1655 0.931 . S
H1673 C1656 0.931 . S
H1674 C1657 0.929 . S
H1675 C1658 0.930 . S
H1676 C1666 0.931 . S
H1677 C1667 0.931 . S
H1678 C1668 0.930 . S
H1679 C1669 0.929 . S
Eu1680 N1709 2.600 . S
Eu1680 N1715 2.562 . S
Eu1680 O1724 2.462 . S
Eu1680 O1725 2.373 . S
Eu1680 O1727 2.432 . S
Eu1680 O1728 2.291 . S
Eu1680 O1732 2.335 . S
Eu1680 O1735 2.372 . S
Eu1680 C1744 2.787 . S
C1681 N1682 1.365 . S
C1681 C1684 1.405 . S
C1681 C1688 1.448 . S
N1682 C1681 1.365 . S
N1682 C1685 1.319 . S
N1682 Eu1691 2.600 . S
C1683 C1685 1.397 . S
C1683 C1686 1.367 . S
C1683 H1703 0.931 . S
C1684 C1681 1.405 . S
C1684 C1686 1.403 . S
C1684 C1690 1.439 . S
C1685 N1682 1.319 . S
C1685 C1683 1.397 . S
C1685 H1696 0.930 . S
C1686 C1683 1.367 . S
C1686 C1684 1.403 . S
C1686 H1707 0.929 . S
C1687 C1688 1.430 . S
C1687 C1689 1.387 . S
C1687 C1693 1.404 . S
C1688 C1681 1.448 . S
C1688 C1687 1.430 . S
C1688 N1692 1.351 . S
C1689 C1687 1.387 . S
C1689 C1690 1.374 . S
C1689 H1704 0.931 . S
C1690 C1684 1.439 . S
C1690 C1689 1.374 . S
C1690 H1705 0.931 . S
Eu1691 N1682 2.600 . S
Eu1691 N1692 2.562 . S
Eu1691 O1726 2.335 . S
Eu1691 O1729 2.372 . S
Eu1691 O1730 2.462 . S
Eu1691 O1731 2.373 . S
Eu1691 O1733 2.432 . S
Eu1691 O1734 2.291 . S
Eu1691 C1755 2.787 . S
N1692 C1688 1.351 . S
N1692 Eu1691 2.562 . S
N1692 C1694 1.325 . S
C1693 C1687 1.404 . S
C1693 C1695 1.366 . S
C1693 H1701 0.930 . S
C1694 N1692 1.325 . S
C1694 C1695 1.416 . S
C1694 H1700 0.929 . S
C1695 C1693 1.366 . S
C1695 C1694 1.416 . S
C1695 H1697 0.930 . S
H1696 C1685 0.930 . S
H1697 C1695 0.930 . S
H1698 C1713 0.930 . S
H1699 C1720 0.930 . S
H1700 C1694 0.929 . S
H1701 C1693 0.930 . S
H1702 C1716 0.929 . S
H1703 C1683 0.931 . S
H1704 C1689 0.931 . S
H1705 C1690 0.931 . S
H1706 C1711 0.931 . S
H1707 C1686 0.929 . S
H1708 C1719 0.930 . S
N1709 Eu1680 2.600 . S
N1709 C1710 1.365 . S
N1709 C1713 1.319 . S
C1710 N1709 1.365 . S
C1710 C1712 1.405 . S
C1710 C1718 1.448 . S
C1711 H1706 0.931 . S
C1711 C1713 1.397 . S
C1711 C1714 1.367 . S
C1712 C1710 1.405 . S
C1712 C1714 1.403 . S
C1712 C1745 1.439 . S
C1713 H1698 0.930 . S
C1713 N1709 1.319 . S
C1713 C1711 1.397 . S
C1714 C1711 1.367 . S
C1714 C1712 1.403 . S
C1714 H1721 0.929 . S
N1715 Eu1680 2.562 . S
N1715 C1716 1.325 . S
N1715 C1718 1.351 . S
C1716 H1702 0.929 . S
C1716 N1715 1.325 . S
C1716 C1720 1.416 . S
C1717 C1718 1.430 . S
C1717 C1719 1.404 . S
C1717 C1746 1.387 . S
C1718 C1710 1.448 . S
C1718 N1715 1.351 . S
C1718 C1717 1.430 . S
C1719 H1708 0.930 . S
C1719 C1717 1.404 . S
C1719 C1720 1.366 . S
C1720 H1699 0.930 . S
C1720 C1716 1.416 . S
C1720 C1719 1.366 . S
H1721 C1714 0.929 . S
H1722 C1745 0.931 . S
H1723 C1746 0.931 . S
O1724 Eu1680 2.462 . S
O1724 C1744 1.252 . S
O1725 Eu1680 2.373 . S
O1725 C1736 1.249 . S
O1726 Eu1691 2.335 . S
O1726 C1736 1.264 . S
O1727 Eu1680 2.432 . S
O1727 C1744 1.268 . S
O1728 Eu1680 2.291 . S
O1728 C1743 1.255 . S
O1729 Eu1691 2.372 . S
O1729 C1743 1.257 . S
O1730 Eu1691 2.462 . S
O1730 C1755 1.252 . S
O1731 Eu1691 2.373 . S
O1731 C1747 1.249 . S
O1732 Eu1680 2.335 . S
O1732 C1747 1.264 . S
O1733 Eu1691 2.432 . S
O1733 C1755 1.268 . S
O1734 Eu1691 2.291 . S
O1734 C1754 1.255 . S
O1735 Eu1680 2.372 . S
O1735 C1754 1.257 . S
C1736 O1725 1.249 . S
C1736 O1726 1.264 . S
C1737 C1740 1.382 . S
C1737 C1742 1.390 . S
C1737 C1744 1.506 . S
C1738 C1739 1.398 . S
C1738 C1742 1.392 . S
C1739 C1738 1.398 . S
C1739 C1741 1.372 . S
C1739 H1756 0.931 . S
C1740 C1737 1.382 . S
C1740 C1741 1.390 . S
C1740 H1757 0.931 . S
C1741 C1739 1.372 . S
C1741 C1740 1.390 . S
C1741 H1758 0.929 . S
C1742 C1737 1.390 . S
C1742 C1738 1.392 . S
C1742 H1759 0.930 . S
C1743 O1728 1.255 . S
C1743 O1729 1.257 . S
C1744 Eu1680 2.787 . S
C1744 O1724 1.252 . S
C1744 O1727 1.268 . S
C1744 C1737 1.506 . S
C1745 C1712 1.439 . S
C1745 H1722 0.931 . S
C1745 C1746 1.374 . S
C1746 C1717 1.387 . S
C1746 H1723 0.931 . S
C1746 C1745 1.374 . S
C1747 O1731 1.249 . S
C1747 O1732 1.264 . S
C1748 C1751 1.382 . S
C1748 C1752 1.390 . S
C1748 C1755 1.506 . S
C1749 C1750 1.398 . S
C1749 C1752 1.392 . S
C1750 C1749 1.398 . S
C1750 C1753 1.372 . S
C1750 H1760 0.931 . S
C1751 C1748 1.382 . S
C1751 C1753 1.390 . S
C1751 H1761 0.931 . S
C1752 C1748 1.390 . S
C1752 C1749 1.392 . S
C1752 H1762 0.930 . S
C1753 C1750 1.372 . S
C1753 C1751 1.390 . S
C1753 H1763 0.929 . S
C1754 O1734 1.255 . S
C1754 O1735 1.257 . S
C1755 Eu1691 2.787 . S
C1755 O1730 1.252 . S
C1755 O1733 1.268 . S
C1755 C1748 1.506 . S
H1756 C1739 0.931 . S
H1757 C1740 0.931 . S
H1758 C1741 0.929 . S
H1759 C1742 0.930 . S
H1760 C1750 0.931 . S
H1761 C1751 0.931 . S
H1762 C1752 0.930 . S
H1763 C1753 0.929 . S
Eu1764 N1793 2.600 . S
Eu1764 N1799 2.562 . S
Eu1764 O1808 2.462 . S
Eu1764 O1809 2.373 . S
Eu1764 O1811 2.432 . S
Eu1764 O1812 2.291 . S
Eu1764 O1816 2.335 . S
Eu1764 O1819 2.372 . S
Eu1764 C1828 2.787 . S
C1765 N1766 1.365 . S
C1765 C1768 1.405 . S
C1765 C1772 1.448 . S
N1766 C1765 1.365 . S
N1766 C1769 1.319 1_455 S
N1766 Eu1775 2.600 1_455 S
C1767 C1769 1.397 . S
C1767 C1770 1.367 1_655 S
C1767 H1787 0.931 . S
C1768 C1765 1.405 . S
C1768 C1770 1.403 . S
C1768 C1774 1.439 . S
C1769 N1766 1.319 1_655 S
C1769 C1767 1.397 . S
C1769 H1780 0.930 . S
C1770 C1767 1.367 1_455 S
C1770 C1768 1.403 . S
C1770 H1791 0.929 . S
C1771 C1772 1.430 . S
C1771 C1773 1.387 . S
C1771 C1777 1.404 . S
C1772 C1765 1.448 . S
C1772 C1771 1.430 . S
C1772 N1776 1.351 . S
C1773 C1771 1.387 . S
C1773 C1774 1.374 . S
C1773 H1788 0.931 . S
C1774 C1768 1.439 . S
C1774 C1773 1.374 . S
C1774 H1789 0.931 . S
Eu1775 N1766 2.600 1_655 S
Eu1775 N1776 2.562 1_655 S
Eu1775 O1810 2.335 . S
Eu1775 O1813 2.372 . S
Eu1775 O1814 2.462 1_655 S
Eu1775 O1815 2.373 . S
Eu1775 O1817 2.432 1_655 S
Eu1775 O1818 2.291 . S
Eu1775 C1839 2.787 1_655 S
N1776 C1772 1.351 . S
N1776 Eu1775 2.562 1_455 S
N1776 C1778 1.325 . S
C1777 C1771 1.404 . S
C1777 C1779 1.366 . S
C1777 H1785 0.930 . S
C1778 N1776 1.325 . S
C1778 C1779 1.416 . S
C1778 H1784 0.929 . S
C1779 C1777 1.366 . S
C1779 C1778 1.416 . S
C1779 H1781 0.930 . S
H1780 C1769 0.930 . S
H1781 C1779 0.930 . S
H1782 C1797 0.930 . S
H1783 C1804 0.930 . S
H1784 C1778 0.929 . S
H1785 C1777 0.930 . S
H1786 C1800 0.929 . S
H1787 C1767 0.931 . S
H1788 C1773 0.931 . S
H1789 C1774 0.931 . S
H1790 C1795 0.931 . S
H1791 C1770 0.929 . S
H1792 C1803 0.930 . S
N1793 Eu1764 2.600 . S
N1793 C1794 1.365 . S
N1793 C1797 1.319 . S
C1794 N1793 1.365 . S
C1794 C1796 1.405 . S
C1794 C1802 1.448 . S
C1795 H1790 0.931 . S
C1795 C1797 1.397 . S
C1795 C1798 1.367 . S
C1796 C1794 1.405 . S
C1796 C1798 1.403 . S
C1796 C1829 1.439 . S
C1797 H1782 0.930 . S
C1797 N1793 1.319 . S
C1797 C1795 1.397 . S
C1798 C1795 1.367 . S
C1798 C1796 1.403 . S
C1798 H1805 0.929 . S
N1799 Eu1764 2.562 . S
N1799 C1800 1.325 . S
N1799 C1802 1.351 . S
C1800 H1786 0.929 . S
C1800 N1799 1.325 . S
C1800 C1804 1.416 . S
C1801 C1802 1.430 . S
C1801 C1803 1.404 . S
C1801 C1830 1.387 . S
C1802 C1794 1.448 . S
C1802 N1799 1.351 . S
C1802 C1801 1.430 . S
C1803 H1792 0.930 . S
C1803 C1801 1.404 . S
C1803 C1804 1.366 . S
C1804 H1783 0.930 . S
C1804 C1800 1.416 . S
C1804 C1803 1.366 . S
H1805 C1798 0.929 . S
H1806 C1829 0.931 . S
H1807 C1830 0.931 . S
O1808 Eu1764 2.462 . S
O1808 C1828 1.252 . S
O1809 Eu1764 2.373 . S
O1809 C1820 1.249 . S
O1810 Eu1775 2.335 . S
O1810 C1820 1.264 . S
O1811 Eu1764 2.432 . S
O1811 C1828 1.268 . S
O1812 Eu1764 2.291 . S
O1812 C1827 1.255 . S
O1813 Eu1775 2.372 . S
O1813 C1827 1.257 . S
O1814 Eu1775 2.462 1_455 S
O1814 C1839 1.252 . S
O1815 Eu1775 2.373 . S
O1815 C1831 1.249 . S
O1816 Eu1764 2.335 . S
O1816 C1831 1.264 . S
O1817 Eu1775 2.432 1_455 S
O1817 C1839 1.268 . S
O1818 Eu1775 2.291 . S
O1818 C1838 1.255 . S
O1819 Eu1764 2.372 . S
O1819 C1838 1.257 . S
C1820 O1809 1.249 . S
C1820 O1810 1.264 . S
C1821 C1824 1.382 . S
C1821 C1826 1.390 . S
C1821 C1828 1.506 . S
C1822 C1823 1.398 . S
C1822 C1826 1.392 . S
C1823 C1822 1.398 . S
C1823 C1825 1.372 . S
C1823 H1840 0.931 . S
C1824 C1821 1.382 . S
C1824 C1825 1.390 . S
C1824 H1841 0.931 . S
C1825 C1823 1.372 . S
C1825 C1824 1.390 . S
C1825 H1842 0.929 . S
C1826 C1821 1.390 . S
C1826 C1822 1.392 . S
C1826 H1843 0.930 . S
C1827 O1812 1.255 . S
C1827 O1813 1.257 . S
C1828 Eu1764 2.787 . S
C1828 O1808 1.252 . S
C1828 O1811 1.268 . S
C1828 C1821 1.506 . S
C1829 C1796 1.439 . S
C1829 H1806 0.931 . S
C1829 C1830 1.374 . S
C1830 C1801 1.387 . S
C1830 H1807 0.931 . S
C1830 C1829 1.374 . S
C1831 O1815 1.249 . S
C1831 O1816 1.264 . S
C1832 C1835 1.382 . S
C1832 C1836 1.390 . S
C1832 C1839 1.506 . S
C1833 C1834 1.398 . S
C1833 C1836 1.392 . S
C1834 C1833 1.398 . S
C1834 C1837 1.372 . S
C1834 H1844 0.931 . S
C1835 C1832 1.382 . S
C1835 C1837 1.390 . S
C1835 H1845 0.931 . S
C1836 C1832 1.390 . S
C1836 C1833 1.392 . S
C1836 H1846 0.930 . S
C1837 C1834 1.372 . S
C1837 C1835 1.390 . S
C1837 H1847 0.929 . S
C1838 O1818 1.255 . S
C1838 O1819 1.257 . S
C1839 Eu1775 2.787 1_455 S
C1839 O1814 1.252 . S
C1839 O1817 1.268 . S
C1839 C1832 1.506 . S
H1840 C1823 0.931 . S
H1841 C1824 0.931 . S
H1842 C1825 0.929 . S
H1843 C1826 0.930 . S
H1844 C1834 0.931 . S
H1845 C1835 0.931 . S
H1846 C1836 0.930 . S
H1847 C1837 0.929 . S
Eu1848 N1877 2.600 . S
Eu1848 N1883 2.562 . S
Eu1848 O1892 2.462 . S
Eu1848 O1893 2.373 . S
Eu1848 O1895 2.432 . S
Eu1848 O1896 2.291 . S
Eu1848 O1900 2.335 . S
Eu1848 O1903 2.372 . S
Eu1848 C1912 2.787 . S
C1849 N1850 1.365 . S
C1849 C1852 1.405 . S
C1849 C1856 1.448 . S
N1850 C1849 1.365 . S
N1850 C1853 1.319 . S
N1850 Eu1859 2.600 . S
C1851 C1853 1.397 . S
C1851 C1854 1.367 . S
C1851 H1871 0.931 . S
C1852 C1849 1.405 . S
C1852 C1854 1.403 . S
C1852 C1858 1.439 . S
C1853 N1850 1.319 . S
C1853 C1851 1.397 . S
C1853 H1864 0.930 . S
C1854 C1851 1.367 . S
C1854 C1852 1.403 . S
C1854 H1875 0.929 . S
C1855 C1856 1.430 . S
C1855 C1857 1.387 . S
C1855 C1861 1.404 . S
C1856 C1849 1.448 . S
C1856 C1855 1.430 . S
C1856 N1860 1.351 . S
C1857 C1855 1.387 . S
C1857 C1858 1.374 . S
C1857 H1872 0.931 . S
C1858 C1852 1.439 . S
C1858 C1857 1.374 . S
C1858 H1873 0.931 . S
Eu1859 N1850 2.600 . S
Eu1859 N1860 2.562 . S
Eu1859 O1894 2.335 . S
Eu1859 O1897 2.372 . S
Eu1859 O1898 2.462 . S
Eu1859 O1899 2.373 . S
Eu1859 O1901 2.432 . S
Eu1859 O1902 2.291 . S
Eu1859 C1923 2.787 . S
N1860 C1856 1.351 . S
N1860 Eu1859 2.562 . S
N1860 C1862 1.325 . S
C1861 C1855 1.404 . S
C1861 C1863 1.366 . S
C1861 H1869 0.930 . S
C1862 N1860 1.325 . S
C1862 C1863 1.416 . S
C1862 H1868 0.929 . S
C1863 C1861 1.366 . S
C1863 C1862 1.416 . S
C1863 H1865 0.930 . S
H1864 C1853 0.930 . S
H1865 C1863 0.930 . S
H1866 C1881 0.930 . S
H1867 C1888 0.930 . S
H1868 C1862 0.929 . S
H1869 C1861 0.930 . S
H1870 C1884 0.929 . S
H1871 C1851 0.931 . S
H1872 C1857 0.931 . S
H1873 C1858 0.931 . S
H1874 C1879 0.931 . S
H1875 C1854 0.929 . S
H1876 C1887 0.930 . S
N1877 Eu1848 2.600 . S
N1877 C1878 1.365 . S
N1877 C1881 1.319 . S
C1878 N1877 1.365 . S
C1878 C1880 1.405 . S
C1878 C1886 1.448 . S
C1879 H1874 0.931 . S
C1879 C1881 1.397 . S
C1879 C1882 1.367 . S
C1880 C1878 1.405 . S
C1880 C1882 1.403 . S
C1880 C1913 1.439 . S
C1881 H1866 0.930 . S
C1881 N1877 1.319 . S
C1881 C1879 1.397 . S
C1882 C1879 1.367 . S
C1882 C1880 1.403 . S
C1882 H1889 0.929 . S
N1883 Eu1848 2.562 . S
N1883 C1884 1.325 . S
N1883 C1886 1.351 . S
C1884 H1870 0.929 . S
C1884 N1883 1.325 . S
C1884 C1888 1.416 . S
C1885 C1886 1.430 . S
C1885 C1887 1.404 . S
C1885 C1914 1.387 . S
C1886 C1878 1.448 . S
C1886 N1883 1.351 . S
C1886 C1885 1.430 . S
C1887 H1876 0.930 . S
C1887 C1885 1.404 . S
C1887 C1888 1.366 . S
C1888 H1867 0.930 . S
C1888 C1884 1.416 . S
C1888 C1887 1.366 . S
H1889 C1882 0.929 . S
H1890 C1913 0.931 . S
H1891 C1914 0.931 . S
O1892 Eu1848 2.462 . S
O1892 C1912 1.252 . S
O1893 Eu1848 2.373 . S
O1893 C1904 1.249 . S
O1894 Eu1859 2.335 . S
O1894 C1904 1.264 . S
O1895 Eu1848 2.432 . S
O1895 C1912 1.268 . S
O1896 Eu1848 2.291 . S
O1896 C1911 1.255 . S
O1897 Eu1859 2.372 . S
O1897 C1911 1.257 . S
O1898 Eu1859 2.462 . S
O1898 C1923 1.252 . S
O1899 Eu1859 2.373 . S
O1899 C1915 1.249 . S
O1900 Eu1848 2.335 . S
O1900 C1915 1.264 . S
O1901 Eu1859 2.432 . S
O1901 C1923 1.268 . S
O1902 Eu1859 2.291 . S
O1902 C1922 1.255 . S
O1903 Eu1848 2.372 . S
O1903 C1922 1.257 . S
C1904 O1893 1.249 . S
C1904 O1894 1.264 . S
C1905 C1908 1.382 . S
C1905 C1910 1.390 . S
C1905 C1912 1.506 . S
C1906 C1907 1.398 . S
C1906 C1910 1.392 . S
C1907 C1906 1.398 . S
C1907 C1909 1.372 . S
C1907 H1924 0.931 . S
C1908 C1905 1.382 . S
C1908 C1909 1.390 . S
C1908 H1925 0.931 . S
C1909 C1907 1.372 . S
C1909 C1908 1.390 . S
C1909 H1926 0.929 . S
C1910 C1905 1.390 . S
C1910 C1906 1.392 . S
C1910 H1927 0.930 . S
C1911 O1896 1.255 . S
C1911 O1897 1.257 . S
C1912 Eu1848 2.787 . S
C1912 O1892 1.252 . S
C1912 O1895 1.268 . S
C1912 C1905 1.506 . S
C1913 C1880 1.439 . S
C1913 H1890 0.931 . S
C1913 C1914 1.374 . S
C1914 C1885 1.387 . S
C1914 H1891 0.931 . S
C1914 C1913 1.374 . S
C1915 O1899 1.249 . S
C1915 O1900 1.264 . S
C1916 C1919 1.382 . S
C1916 C1920 1.390 . S
C1916 C1923 1.506 . S
C1917 C1918 1.398 . S
C1917 C1920 1.392 . S
C1918 C1917 1.398 . S
C1918 C1921 1.372 . S
C1918 H1928 0.931 . S
C1919 C1916 1.382 . S
C1919 C1921 1.390 . S
C1919 H1929 0.931 . S
C1920 C1916 1.390 . S
C1920 C1917 1.392 . S
C1920 H1930 0.930 . S
C1921 C1918 1.372 . S
C1921 C1919 1.390 . S
C1921 H1931 0.929 . S
C1922 O1902 1.255 . S
C1922 O1903 1.257 . S
C1923 Eu1859 2.787 . S
C1923 O1898 1.252 . S
C1923 O1901 1.268 . S
C1923 C1916 1.506 . S
H1924 C1907 0.931 . S
H1925 C1908 0.931 . S
H1926 C1909 0.929 . S
H1927 C1910 0.930 . S
H1928 C1918 0.931 . S
H1929 C1919 0.931 . S
H1930 C1920 0.930 . S
H1931 C1921 0.929 . S
Eu1932 N1961 2.600 . S
Eu1932 N1967 2.562 . S
Eu1932 O1976 2.462 . S
Eu1932 O1977 2.373 . S
Eu1932 O1979 2.432 . S
Eu1932 O1980 2.291 . S
Eu1932 O1984 2.335 . S
Eu1932 O1987 2.372 . S
Eu1932 C1996 2.787 . S
C1933 N1934 1.365 . S
C1933 C1936 1.405 . S
C1933 C1940 1.448 . S
N1934 C1933 1.365 . S
N1934 C1937 1.319 . S
N1934 Eu1943 2.600 . S
C1935 C1937 1.397 . S
C1935 C1938 1.367 . S
C1935 H1955 0.931 . S
C1936 C1933 1.405 . S
C1936 C1938 1.403 . S
C1936 C1942 1.439 . S
C1937 N1934 1.319 . S
C1937 C1935 1.397 . S
C1937 H1948 0.930 . S
C1938 C1935 1.367 . S
C1938 C1936 1.403 . S
C1938 H1959 0.929 . S
C1939 C1940 1.430 . S
C1939 C1941 1.387 . S
C1939 C1945 1.404 . S
C1940 C1933 1.448 . S
C1940 C1939 1.430 . S
C1940 N1944 1.351 . S
C1941 C1939 1.387 . S
C1941 C1942 1.374 . S
C1941 H1956 0.931 . S
C1942 C1936 1.439 . S
C1942 C1941 1.374 . S
C1942 H1957 0.931 . S
Eu1943 N1934 2.600 . S
Eu1943 N1944 2.562 . S
Eu1943 O1978 2.335 . S
Eu1943 O1981 2.372 . S
Eu1943 O1982 2.462 . S
Eu1943 O1983 2.373 . S
Eu1943 O1985 2.432 . S
Eu1943 O1986 2.291 . S
Eu1943 C2007 2.787 . S
N1944 C1940 1.351 . S
N1944 Eu1943 2.562 . S
N1944 C1946 1.325 . S
C1945 C1939 1.404 . S
C1945 C1947 1.366 . S
C1945 H1953 0.930 . S
C1946 N1944 1.325 . S
C1946 C1947 1.416 . S
C1946 H1952 0.929 . S
C1947 C1945 1.366 . S
C1947 C1946 1.416 . S
C1947 H1949 0.930 . S
H1948 C1937 0.930 . S
H1949 C1947 0.930 . S
H1950 C1965 0.930 . S
H1951 C1972 0.930 . S
H1952 C1946 0.929 . S
H1953 C1945 0.930 . S
H1954 C1968 0.929 . S
H1955 C1935 0.931 . S
H1956 C1941 0.931 . S
H1957 C1942 0.931 . S
H1958 C1963 0.931 . S
H1959 C1938 0.929 . S
H1960 C1971 0.930 . S
N1961 Eu1932 2.600 . S
N1961 C1962 1.365 . S
N1961 C1965 1.319 . S
C1962 N1961 1.365 . S
C1962 C1964 1.405 . S
C1962 C1970 1.448 . S
C1963 H1958 0.931 . S
C1963 C1965 1.397 . S
C1963 C1966 1.367 . S
C1964 C1962 1.405 . S
C1964 C1966 1.403 . S
C1964 C1997 1.439 . S
C1965 H1950 0.930 . S
C1965 N1961 1.319 . S
C1965 C1963 1.397 . S
C1966 C1963 1.367 . S
C1966 C1964 1.403 . S
C1966 H1973 0.929 . S
N1967 Eu1932 2.562 . S
N1967 C1968 1.325 . S
N1967 C1970 1.351 . S
C1968 H1954 0.929 . S
C1968 N1967 1.325 . S
C1968 C1972 1.416 . S
C1969 C1970 1.430 . S
C1969 C1971 1.404 . S
C1969 C1998 1.387 . S
C1970 C1962 1.448 . S
C1970 N1967 1.351 . S
C1970 C1969 1.430 . S
C1971 H1960 0.930 . S
C1971 C1969 1.404 . S
C1971 C1972 1.366 . S
C1972 H1951 0.930 . S
C1972 C1968 1.416 . S
C1972 C1971 1.366 . S
H1973 C1966 0.929 . S
H1974 C1997 0.931 . S
H1975 C1998 0.931 . S
O1976 Eu1932 2.462 . S
O1976 C1996 1.252 . S
O1977 Eu1932 2.373 . S
O1977 C1988 1.249 . S
O1978 Eu1943 2.335 . S
O1978 C1988 1.264 . S
O1979 Eu1932 2.432 . S
O1979 C1996 1.268 . S
O1980 Eu1932 2.291 . S
O1980 C1995 1.255 . S
O1981 Eu1943 2.372 . S
O1981 C1995 1.257 . S
O1982 Eu1943 2.462 . S
O1982 C2007 1.252 . S
O1983 Eu1943 2.373 . S
O1983 C1999 1.249 . S
O1984 Eu1932 2.335 . S
O1984 C1999 1.264 . S
O1985 Eu1943 2.432 . S
O1985 C2007 1.268 . S
O1986 Eu1943 2.291 . S
O1986 C2006 1.255 . S
O1987 Eu1932 2.372 . S
O1987 C2006 1.257 . S
C1988 O1977 1.249 . S
C1988 O1978 1.264 . S
C1989 C1992 1.382 . S
C1989 C1994 1.390 . S
C1989 C1996 1.506 . S
C1990 C1991 1.398 . S
C1990 C1994 1.392 . S
C1991 C1990 1.398 . S
C1991 C1993 1.372 . S
C1991 H2008 0.931 . S
C1992 C1989 1.382 . S
C1992 C1993 1.390 . S
C1992 H2009 0.931 . S
C1993 C1991 1.372 . S
C1993 C1992 1.390 . S
C1993 H2010 0.929 . S
C1994 C1989 1.390 . S
C1994 C1990 1.392 . S
C1994 H2011 0.930 . S
C1995 O1980 1.255 . S
C1995 O1981 1.257 . S
C1996 Eu1932 2.787 . S
C1996 O1976 1.252 . S
C1996 O1979 1.268 . S
C1996 C1989 1.506 . S
C1997 C1964 1.439 . S
C1997 H1974 0.931 . S
C1997 C1998 1.374 . S
C1998 C1969 1.387 . S
C1998 H1975 0.931 . S
C1998 C1997 1.374 . S
C1999 O1983 1.249 . S
C1999 O1984 1.264 . S
C2000 C2003 1.382 . S
C2000 C2004 1.390 . S
C2000 C2007 1.506 . S
C2001 C2002 1.398 . S
C2001 C2004 1.392 . S
C2002 C2001 1.398 . S
C2002 C2005 1.372 . S
C2002 H2012 0.931 . S
C2003 C2000 1.382 . S
C2003 C2005 1.390 . S
C2003 H2013 0.931 . S
C2004 C2000 1.390 . S
C2004 C2001 1.392 . S
C2004 H2014 0.930 . S
C2005 C2002 1.372 . S
C2005 C2003 1.390 . S
C2005 H2015 0.929 . S
C2006 O1986 1.255 . S
C2006 O1987 1.257 . S
C2007 Eu1943 2.787 . S
C2007 O1982 1.252 . S
C2007 O1985 1.268 . S
C2007 C2000 1.506 . S
H2008 C1991 0.931 . S
H2009 C1992 0.931 . S
H2010 C1993 0.929 . S
H2011 C1994 0.930 . S
H2012 C2002 0.931 . S
H2013 C2003 0.931 . S
H2014 C2004 0.930 . S
H2015 C2005 0.929 . S
Eu2016 N2045 2.600 . S
Eu2016 N2051 2.562 . S
Eu2016 O2060 2.462 . S
Eu2016 O2061 2.373 . S
Eu2016 O2063 2.432 . S
Eu2016 O2064 2.291 . S
Eu2016 O2068 2.335 . S
Eu2016 O2071 2.372 . S
Eu2016 C2080 2.787 . S
C2017 N2018 1.365 . S
C2017 C2020 1.405 . S
C2017 C2024 1.448 . S
N2018 C2017 1.365 . S
N2018 C2021 1.319 . S
N2018 Eu2027 2.600 . S
C2019 C2021 1.397 . S
C2019 C2022 1.367 . S
C2019 H2039 0.931 . S
C2020 C2017 1.405 . S
C2020 C2022 1.403 . S
C2020 C2026 1.439 . S
C2021 N2018 1.319 . S
C2021 C2019 1.397 . S
C2021 H2032 0.930 . S
C2022 C2019 1.367 . S
C2022 C2020 1.403 . S
C2022 H2043 0.929 . S
C2023 C2024 1.430 . S
C2023 C2025 1.387 . S
C2023 C2029 1.404 . S
C2024 C2017 1.448 . S
C2024 C2023 1.430 . S
C2024 N2028 1.351 . S
C2025 C2023 1.387 . S
C2025 C2026 1.374 . S
C2025 H2040 0.931 . S
C2026 C2020 1.439 . S
C2026 C2025 1.374 . S
C2026 H2041 0.931 . S
Eu2027 N2018 2.600 . S
Eu2027 N2028 2.562 . S
Eu2027 O2062 2.335 . S
Eu2027 O2065 2.372 . S
Eu2027 O2066 2.462 . S
Eu2027 O2067 2.373 . S
Eu2027 O2069 2.432 . S
Eu2027 O2070 2.291 . S
Eu2027 C2091 2.787 . S
N2028 C2024 1.351 . S
N2028 Eu2027 2.562 . S
N2028 C2030 1.325 . S
C2029 C2023 1.404 . S
C2029 C2031 1.366 . S
C2029 H2037 0.930 . S
C2030 N2028 1.325 . S
C2030 C2031 1.416 . S
C2030 H2036 0.929 . S
C2031 C2029 1.366 . S
C2031 C2030 1.416 . S
C2031 H2033 0.930 . S
H2032 C2021 0.930 . S
H2033 C2031 0.930 . S
H2034 C2049 0.930 . S
H2035 C2056 0.930 . S
H2036 C2030 0.929 . S
H2037 C2029 0.930 . S
H2038 C2052 0.929 . S
H2039 C2019 0.931 . S
H2040 C2025 0.931 . S
H2041 C2026 0.931 . S
H2042 C2047 0.931 . S
H2043 C2022 0.929 . S
H2044 C2055 0.930 . S
N2045 Eu2016 2.600 . S
N2045 C2046 1.365 . S
N2045 C2049 1.319 . S
C2046 N2045 1.365 . S
C2046 C2048 1.405 . S
C2046 C2054 1.448 . S
C2047 H2042 0.931 . S
C2047 C2049 1.397 . S
C2047 C2050 1.367 . S
C2048 C2046 1.405 . S
C2048 C2050 1.403 . S
C2048 C2081 1.439 . S
C2049 H2034 0.930 . S
C2049 N2045 1.319 . S
C2049 C2047 1.397 . S
C2050 C2047 1.367 . S
C2050 C2048 1.403 . S
C2050 H2057 0.929 . S
N2051 Eu2016 2.562 . S
N2051 C2052 1.325 . S
N2051 C2054 1.351 . S
C2052 H2038 0.929 . S
C2052 N2051 1.325 . S
C2052 C2056 1.416 . S
C2053 C2054 1.430 . S
C2053 C2055 1.404 . S
C2053 C2082 1.387 . S
C2054 C2046 1.448 . S
C2054 N2051 1.351 . S
C2054 C2053 1.430 . S
C2055 H2044 0.930 . S
C2055 C2053 1.404 . S
C2055 C2056 1.366 . S
C2056 H2035 0.930 . S
C2056 C2052 1.416 . S
C2056 C2055 1.366 . S
H2057 C2050 0.929 . S
H2058 C2081 0.931 . S
H2059 C2082 0.931 . S
O2060 Eu2016 2.462 . S
O2060 C2080 1.252 . S
O2061 Eu2016 2.373 . S
O2061 C2072 1.249 . S
O2062 Eu2027 2.335 . S
O2062 C2072 1.264 . S
O2063 Eu2016 2.432 . S
O2063 C2080 1.268 . S
O2064 Eu2016 2.291 . S
O2064 C2079 1.255 . S
O2065 Eu2027 2.372 . S
O2065 C2079 1.257 . S
O2066 Eu2027 2.462 . S
O2066 C2091 1.252 . S
O2067 Eu2027 2.373 . S
O2067 C2083 1.249 . S
O2068 Eu2016 2.335 . S
O2068 C2083 1.264 . S
O2069 Eu2027 2.432 . S
O2069 C2091 1.268 . S
O2070 Eu2027 2.291 . S
O2070 C2090 1.255 . S
O2071 Eu2016 2.372 . S
O2071 C2090 1.257 . S
C2072 O2061 1.249 . S
C2072 O2062 1.264 . S
C2073 C2076 1.382 . S
C2073 C2078 1.390 . S
C2073 C2080 1.506 . S
C2074 C2075 1.398 . S
C2074 C2078 1.392 . S
C2075 C2074 1.398 . S
C2075 C2077 1.372 . S
C2075 H2092 0.931 . S
C2076 C2073 1.382 . S
C2076 C2077 1.390 . S
C2076 H2093 0.931 . S
C2077 C2075 1.372 . S
C2077 C2076 1.390 . S
C2077 H2094 0.929 . S
C2078 C2073 1.390 . S
C2078 C2074 1.392 . S
C2078 H2095 0.930 . S
C2079 O2064 1.255 . S
C2079 O2065 1.257 . S
C2080 Eu2016 2.787 . S
C2080 O2060 1.252 . S
C2080 O2063 1.268 . S
C2080 C2073 1.506 . S
C2081 C2048 1.439 . S
C2081 H2058 0.931 . S
C2081 C2082 1.374 . S
C2082 C2053 1.387 . S
C2082 H2059 0.931 . S
C2082 C2081 1.374 . S
C2083 O2067 1.249 . S
C2083 O2068 1.264 . S
C2084 C2087 1.382 . S
C2084 C2088 1.390 . S
C2084 C2091 1.506 . S
C2085 C2086 1.398 . S
C2085 C2088 1.392 . S
C2086 C2085 1.398 . S
C2086 C2089 1.372 . S
C2086 H2096 0.931 . S
C2087 C2084 1.382 . S
C2087 C2089 1.390 . S
C2087 H2097 0.931 . S
C2088 C2084 1.390 . S
C2088 C2085 1.392 . S
C2088 H2098 0.930 . S
C2089 C2086 1.372 . S
C2089 C2087 1.390 . S
C2089 H2099 0.929 . S
C2090 O2070 1.255 . S
C2090 O2071 1.257 . S
C2091 Eu2027 2.787 . S
C2091 O2066 1.252 . S
C2091 O2069 1.268 . S
C2091 C2084 1.506 . S
H2092 C2075 0.931 . S
H2093 C2076 0.931 . S
H2094 C2077 0.929 . S
H2095 C2078 0.930 . S
H2096 C2086 0.931 . S
H2097 C2087 0.931 . S
H2098 C2088 0.930 . S
H2099 C2089 0.929 . S
Eu2100 N2129 2.600 . S
Eu2100 N2135 2.562 . S
Eu2100 O2144 2.462 . S
Eu2100 O2145 2.373 . S
Eu2100 O2147 2.432 . S
Eu2100 O2148 2.291 . S
Eu2100 O2152 2.335 . S
Eu2100 O2155 2.372 . S
Eu2100 C2164 2.787 . S
C2101 N2102 1.365 . S
C2101 C2104 1.405 . S
C2101 C2108 1.448 . S
N2102 C2101 1.365 . S
N2102 C2105 1.319 . S
N2102 Eu2111 2.600 . S
C2103 C2105 1.397 . S
C2103 C2106 1.367 . S
C2103 H2123 0.931 . S
C2104 C2101 1.405 . S
C2104 C2106 1.403 . S
C2104 C2110 1.439 . S
C2105 N2102 1.319 . S
C2105 C2103 1.397 . S
C2105 H2116 0.930 . S
C2106 C2103 1.367 . S
C2106 C2104 1.403 . S
C2106 H2127 0.929 . S
C2107 C2108 1.430 . S
C2107 C2109 1.387 . S
C2107 C2113 1.404 . S
C2108 C2101 1.448 . S
C2108 C2107 1.430 . S
C2108 N2112 1.351 . S
C2109 C2107 1.387 . S
C2109 C2110 1.374 . S
C2109 H2124 0.931 . S
C2110 C2104 1.439 . S
C2110 C2109 1.374 . S
C2110 H2125 0.931 . S
Eu2111 N2102 2.600 . S
Eu2111 N2112 2.562 . S
Eu2111 O2146 2.335 . S
Eu2111 O2149 2.372 . S
Eu2111 O2150 2.462 . S
Eu2111 O2151 2.373 . S
Eu2111 O2153 2.432 . S
Eu2111 O2154 2.291 . S
Eu2111 C2175 2.787 . S
N2112 C2108 1.351 . S
N2112 Eu2111 2.562 . S
N2112 C2114 1.325 . S
C2113 C2107 1.404 . S
C2113 C2115 1.366 . S
C2113 H2121 0.930 . S
C2114 N2112 1.325 . S
C2114 C2115 1.416 . S
C2114 H2120 0.929 . S
C2115 C2113 1.366 . S
C2115 C2114 1.416 . S
C2115 H2117 0.930 . S
H2116 C2105 0.930 . S
H2117 C2115 0.930 . S
H2118 C2133 0.930 . S
H2119 C2140 0.930 . S
H2120 C2114 0.929 . S
H2121 C2113 0.930 . S
H2122 C2136 0.929 . S
H2123 C2103 0.931 . S
H2124 C2109 0.931 . S
H2125 C2110 0.931 . S
H2126 C2131 0.931 . S
H2127 C2106 0.929 . S
H2128 C2139 0.930 . S
N2129 Eu2100 2.600 . S
N2129 C2130 1.365 . S
N2129 C2133 1.319 . S
C2130 N2129 1.365 . S
C2130 C2132 1.405 . S
C2130 C2138 1.448 . S
C2131 H2126 0.931 . S
C2131 C2133 1.397 . S
C2131 C2134 1.367 . S
C2132 C2130 1.405 . S
C2132 C2134 1.403 . S
C2132 C2165 1.439 . S
C2133 H2118 0.930 . S
C2133 N2129 1.319 . S
C2133 C2131 1.397 . S
C2134 C2131 1.367 . S
C2134 C2132 1.403 . S
C2134 H2141 0.929 . S
N2135 Eu2100 2.562 . S
N2135 C2136 1.325 . S
N2135 C2138 1.351 . S
C2136 H2122 0.929 . S
C2136 N2135 1.325 . S
C2136 C2140 1.416 . S
C2137 C2138 1.430 . S
C2137 C2139 1.404 . S
C2137 C2166 1.387 . S
C2138 C2130 1.448 . S
C2138 N2135 1.351 . S
C2138 C2137 1.430 . S
C2139 H2128 0.930 . S
C2139 C2137 1.404 . S
C2139 C2140 1.366 . S
C2140 H2119 0.930 . S
C2140 C2136 1.416 . S
C2140 C2139 1.366 . S
H2141 C2134 0.929 . S
H2142 C2165 0.931 . S
H2143 C2166 0.931 . S
O2144 Eu2100 2.462 . S
O2144 C2164 1.252 . S
O2145 Eu2100 2.373 . S
O2145 C2156 1.249 . S
O2146 Eu2111 2.335 . S
O2146 C2156 1.264 . S
O2147 Eu2100 2.432 . S
O2147 C2164 1.268 . S
O2148 Eu2100 2.291 . S
O2148 C2163 1.255 . S
O2149 Eu2111 2.372 . S
O2149 C2163 1.257 . S
O2150 Eu2111 2.462 . S
O2150 C2175 1.252 . S
O2151 Eu2111 2.373 . S
O2151 C2167 1.249 . S
O2152 Eu2100 2.335 . S
O2152 C2167 1.264 . S
O2153 Eu2111 2.432 . S
O2153 C2175 1.268 . S
O2154 Eu2111 2.291 . S
O2154 C2174 1.255 . S
O2155 Eu2100 2.372 . S
O2155 C2174 1.257 . S
C2156 O2145 1.249 . S
C2156 O2146 1.264 . S
C2157 C2160 1.382 . S
C2157 C2162 1.390 . S
C2157 C2164 1.506 . S
C2158 C2159 1.398 . S
C2158 C2162 1.392 . S
C2159 C2158 1.398 . S
C2159 C2161 1.372 . S
C2159 H2176 0.931 . S
C2160 C2157 1.382 . S
C2160 C2161 1.390 . S
C2160 H2177 0.931 . S
C2161 C2159 1.372 . S
C2161 C2160 1.390 . S
C2161 H2178 0.929 . S
C2162 C2157 1.390 . S
C2162 C2158 1.392 . S
C2162 H2179 0.930 . S
C2163 O2148 1.255 . S
C2163 O2149 1.257 . S
C2164 Eu2100 2.787 . S
C2164 O2144 1.252 . S
C2164 O2147 1.268 . S
C2164 C2157 1.506 . S
C2165 C2132 1.439 . S
C2165 H2142 0.931 . S
C2165 C2166 1.374 . S
C2166 C2137 1.387 . S
C2166 H2143 0.931 . S
C2166 C2165 1.374 . S
C2167 O2151 1.249 . S
C2167 O2152 1.264 . S
C2168 C2171 1.382 . S
C2168 C2172 1.390 . S
C2168 C2175 1.506 . S
C2169 C2170 1.398 . S
C2169 C2172 1.392 . S
C2170 C2169 1.398 . S
C2170 C2173 1.372 . S
C2170 H2180 0.931 . S
C2171 C2168 1.382 . S
C2171 C2173 1.390 . S
C2171 H2181 0.931 . S
C2172 C2168 1.390 . S
C2172 C2169 1.392 . S
C2172 H2182 0.930 . S
C2173 C2170 1.372 . S
C2173 C2171 1.390 . S
C2173 H2183 0.929 . S
C2174 O2154 1.255 . S
C2174 O2155 1.257 . S
C2175 Eu2111 2.787 . S
C2175 O2150 1.252 . S
C2175 O2153 1.268 . S
C2175 C2168 1.506 . S
H2176 C2159 0.931 . S
H2177 C2160 0.931 . S
H2178 C2161 0.929 . S
H2179 C2162 0.930 . S
H2180 C2170 0.931 . S
H2181 C2171 0.931 . S
H2182 C2172 0.930 . S
H2183 C2173 0.929 . S
Eu2184 N2213 2.600 . S
Eu2184 N2219 2.562 . S
Eu2184 O2228 2.462 . S
Eu2184 O2229 2.373 . S
Eu2184 O2231 2.432 . S
Eu2184 O2232 2.291 . S
Eu2184 O2236 2.335 . S
Eu2184 O2239 2.372 . S
Eu2184 C2248 2.787 . S
C2185 N2186 1.365 . S
C2185 C2188 1.405 . S
C2185 C2192 1.448 . S
N2186 C2185 1.365 . S
N2186 C2189 1.319 . S
N2186 Eu2195 2.600 . S
C2187 C2189 1.397 . S
C2187 C2190 1.367 . S
C2187 H2207 0.931 . S
C2188 C2185 1.405 . S
C2188 C2190 1.403 . S
C2188 C2194 1.439 . S
C2189 N2186 1.319 . S
C2189 C2187 1.397 . S
C2189 H2200 0.930 . S
C2190 C2187 1.367 . S
C2190 C2188 1.403 . S
C2190 H2211 0.929 . S
C2191 C2192 1.430 . S
C2191 C2193 1.387 . S
C2191 C2197 1.404 . S
C2192 C2185 1.448 . S
C2192 C2191 1.430 . S
C2192 N2196 1.351 . S
C2193 C2191 1.387 . S
C2193 C2194 1.374 . S
C2193 H2208 0.931 . S
C2194 C2188 1.439 . S
C2194 C2193 1.374 . S
C2194 H2209 0.931 . S
Eu2195 N2186 2.600 . S
Eu2195 N2196 2.562 . S
Eu2195 O2230 2.335 . S
Eu2195 O2233 2.372 . S
Eu2195 O2234 2.462 . S
Eu2195 O2235 2.373 . S
Eu2195 O2237 2.432 . S
Eu2195 O2238 2.291 . S
Eu2195 C2259 2.787 . S
N2196 C2192 1.351 . S
N2196 Eu2195 2.562 . S
N2196 C2198 1.325 . S
C2197 C2191 1.404 . S
C2197 C2199 1.366 . S
C2197 H2205 0.930 . S
C2198 N2196 1.325 . S
C2198 C2199 1.416 . S
C2198 H2204 0.929 . S
C2199 C2197 1.366 . S
C2199 C2198 1.416 . S
C2199 H2201 0.930 . S
H2200 C2189 0.930 . S
H2201 C2199 0.930 . S
H2202 C2217 0.930 . S
H2203 C2224 0.930 . S
H2204 C2198 0.929 . S
H2205 C2197 0.930 . S
H2206 C2220 0.929 . S
H2207 C2187 0.931 . S
H2208 C2193 0.931 . S
H2209 C2194 0.931 . S
H2210 C2215 0.931 . S
H2211 C2190 0.929 . S
H2212 C2223 0.930 . S
N2213 Eu2184 2.600 . S
N2213 C2214 1.365 . S
N2213 C2217 1.319 . S
C2214 N2213 1.365 . S
C2214 C2216 1.405 . S
C2214 C2222 1.448 . S
C2215 H2210 0.931 . S
C2215 C2217 1.397 . S
C2215 C2218 1.367 . S
C2216 C2214 1.405 . S
C2216 C2218 1.403 . S
C2216 C2249 1.439 . S
C2217 H2202 0.930 . S
C2217 N2213 1.319 . S
C2217 C2215 1.397 . S
C2218 C2215 1.367 . S
C2218 C2216 1.403 . S
C2218 H2225 0.929 . S
N2219 Eu2184 2.562 . S
N2219 C2220 1.325 . S
N2219 C2222 1.351 . S
C2220 H2206 0.929 . S
C2220 N2219 1.325 . S
C2220 C2224 1.416 . S
C2221 C2222 1.430 . S
C2221 C2223 1.404 . S
C2221 C2250 1.387 . S
C2222 C2214 1.448 . S
C2222 N2219 1.351 . S
C2222 C2221 1.430 . S
C2223 H2212 0.930 . S
C2223 C2221 1.404 . S
C2223 C2224 1.366 . S
C2224 H2203 0.930 . S
C2224 C2220 1.416 . S
C2224 C2223 1.366 . S
H2225 C2218 0.929 . S
H2226 C2249 0.931 . S
H2227 C2250 0.931 . S
O2228 Eu2184 2.462 . S
O2228 C2248 1.252 . S
O2229 Eu2184 2.373 . S
O2229 C2240 1.249 . S
O2230 Eu2195 2.335 . S
O2230 C2240 1.264 . S
O2231 Eu2184 2.432 . S
O2231 C2248 1.268 . S
O2232 Eu2184 2.291 . S
O2232 C2247 1.255 . S
O2233 Eu2195 2.372 . S
O2233 C2247 1.257 . S
O2234 Eu2195 2.462 . S
O2234 C2259 1.252 . S
O2235 Eu2195 2.373 . S
O2235 C2251 1.249 . S
O2236 Eu2184 2.335 . S
O2236 C2251 1.264 . S
O2237 Eu2195 2.432 . S
O2237 C2259 1.268 . S
O2238 Eu2195 2.291 . S
O2238 C2258 1.255 . S
O2239 Eu2184 2.372 . S
O2239 C2258 1.257 . S
C2240 O2229 1.249 . S
C2240 O2230 1.264 . S
C2241 C2244 1.382 . S
C2241 C2246 1.390 . S
C2241 C2248 1.506 . S
C2242 C2243 1.398 . S
C2242 C2246 1.392 . S
C2243 C2242 1.398 . S
C2243 C2245 1.372 . S
C2243 H2260 0.931 . S
C2244 C2241 1.382 . S
C2244 C2245 1.390 . S
C2244 H2261 0.931 . S
C2245 C2243 1.372 . S
C2245 C2244 1.390 . S
C2245 H2262 0.929 . S
C2246 C2241 1.390 . S
C2246 C2242 1.392 . S
C2246 H2263 0.930 . S
C2247 O2232 1.255 . S
C2247 O2233 1.257 . S
C2248 Eu2184 2.787 . S
C2248 O2228 1.252 . S
C2248 O2231 1.268 . S
C2248 C2241 1.506 . S
C2249 C2216 1.439 . S
C2249 H2226 0.931 . S
C2249 C2250 1.374 . S
C2250 C2221 1.387 . S
C2250 H2227 0.931 . S
C2250 C2249 1.374 . S
C2251 O2235 1.249 . S
C2251 O2236 1.264 . S
C2252 C2255 1.382 . S
C2252 C2256 1.390 . S
C2252 C2259 1.506 . S
C2253 C2254 1.398 . S
C2253 C2256 1.392 . S
C2254 C2253 1.398 . S
C2254 C2257 1.372 . S
C2254 H2264 0.931 . S
C2255 C2252 1.382 . S
C2255 C2257 1.390 . S
C2255 H2265 0.931 . S
C2256 C2252 1.390 . S
C2256 C2253 1.392 . S
C2256 H2266 0.930 . S
C2257 C2254 1.372 . S
C2257 C2255 1.390 . S
C2257 H2267 0.929 . S
C2258 O2238 1.255 . S
C2258 O2239 1.257 . S
C2259 Eu2195 2.787 . S
C2259 O2234 1.252 . S
C2259 O2237 1.268 . S
C2259 C2252 1.506 . S
H2260 C2243 0.931 . S
H2261 C2244 0.931 . S
H2262 C2245 0.929 . S
H2263 C2246 0.930 . S
H2264 C2254 0.931 . S
H2265 C2255 0.931 . S
H2266 C2256 0.930 . S
H2267 C2257 0.929 . S
Eu2268 N2297 2.600 1_455 S
Eu2268 N2303 2.562 1_455 S
Eu2268 O2312 2.462 1_455 S
Eu2268 O2313 2.373 . S
Eu2268 O2315 2.432 1_455 S
Eu2268 O2316 2.291 . S
Eu2268 O2320 2.335 . S
Eu2268 O2323 2.372 . S
Eu2268 C2332 2.787 1_455 S
C2269 N2270 1.365 . S
C2269 C2272 1.405 . S
C2269 C2276 1.448 . S
N2270 C2269 1.365 . S
N2270 C2273 1.319 . S
N2270 Eu2279 2.600 . S
C2271 C2273 1.397 . S
C2271 C2274 1.367 . S
C2271 H2291 0.931 . S
C2272 C2269 1.405 . S
C2272 C2274 1.403 . S
C2272 C2278 1.439 . S
C2273 N2270 1.319 . S
C2273 C2271 1.397 . S
C2273 H2284 0.930 . S
C2274 C2271 1.367 . S
C2274 C2272 1.403 . S
C2274 H2295 0.929 . S
C2275 C2276 1.430 . S
C2275 C2277 1.387 . S
C2275 C2281 1.404 . S
C2276 C2269 1.448 . S
C2276 C2275 1.430 . S
C2276 N2280 1.351 . S
C2277 C2275 1.387 . S
C2277 C2278 1.374 . S
C2277 H2292 0.931 . S
C2278 C2272 1.439 . S
C2278 C2277 1.374 . S
C2278 H2293 0.931 . S
Eu2279 N2270 2.600 . S
Eu2279 N2280 2.562 . S
Eu2279 O2314 2.335 . S
Eu2279 O2317 2.372 . S
Eu2279 O2318 2.462 . S
Eu2279 O2319 2.373 . S
Eu2279 O2321 2.432 . S
Eu2279 O2322 2.291 . S
Eu2279 C2343 2.787 . S
N2280 C2276 1.351 . S
N2280 Eu2279 2.562 . S
N2280 C2282 1.325 . S
C2281 C2275 1.404 . S
C2281 C2283 1.366 . S
C2281 H2289 0.930 . S
C2282 N2280 1.325 . S
C2282 C2283 1.416 . S
C2282 H2288 0.929 . S
C2283 C2281 1.366 . S
C2283 C2282 1.416 . S
C2283 H2285 0.930 . S
H2284 C2273 0.930 . S
H2285 C2283 0.930 . S
H2286 C2301 0.930 . S
H2287 C2308 0.930 . S
H2288 C2282 0.929 . S
H2289 C2281 0.930 . S
H2290 C2304 0.929 . S
H2291 C2271 0.931 . S
H2292 C2277 0.931 . S
H2293 C2278 0.931 . S
H2294 C2299 0.931 . S
H2295 C2274 0.929 . S
H2296 C2307 0.930 . S
N2297 Eu2268 2.600 1_655 S
N2297 C2298 1.365 . S
N2297 C2301 1.319 1_655 S
C2298 N2297 1.365 . S
C2298 C2300 1.405 . S
C2298 C2306 1.448 . S
C2299 H2294 0.931 . S
C2299 C2301 1.397 . S
C2299 C2302 1.367 1_455 S
C2300 C2298 1.405 . S
C2300 C2302 1.403 . S
C2300 C2333 1.439 . S
C2301 H2286 0.930 . S
C2301 N2297 1.319 1_455 S
C2301 C2299 1.397 . S
C2302 C2299 1.367 1_655 S
C2302 C2300 1.403 . S
C2302 H2309 0.929 . S
N2303 Eu2268 2.562 1_655 S
N2303 C2304 1.325 . S
N2303 C2306 1.351 . S
C2304 H2290 0.929 . S
C2304 N2303 1.325 . S
C2304 C2308 1.416 . S
C2305 C2306 1.430 . S
C2305 C2307 1.404 . S
C2305 C2334 1.387 . S
C2306 C2298 1.448 . S
C2306 N2303 1.351 . S
C2306 C2305 1.430 . S
C2307 H2296 0.930 . S
C2307 C2305 1.404 . S
C2307 C2308 1.366 . S
C2308 H2287 0.930 . S
C2308 C2304 1.416 . S
C2308 C2307 1.366 . S
H2309 C2302 0.929 . S
H2310 C2333 0.931 . S
H2311 C2334 0.931 . S
O2312 Eu2268 2.462 1_655 S
O2312 C2332 1.252 . S
O2313 Eu2268 2.373 . S
O2313 C2324 1.249 . S
O2314 Eu2279 2.335 . S
O2314 C2324 1.264 . S
O2315 Eu2268 2.432 1_655 S
O2315 C2332 1.268 . S
O2316 Eu2268 2.291 . S
O2316 C2331 1.255 . S
O2317 Eu2279 2.372 . S
O2317 C2331 1.257 . S
O2318 Eu2279 2.462 . S
O2318 C2343 1.252 . S
O2319 Eu2279 2.373 . S
O2319 C2335 1.249 . S
O2320 Eu2268 2.335 . S
O2320 C2335 1.264 . S
O2321 Eu2279 2.432 . S
O2321 C2343 1.268 . S
O2322 Eu2279 2.291 . S
O2322 C2342 1.255 . S
O2323 Eu2268 2.372 . S
O2323 C2342 1.257 . S
C2324 O2313 1.249 . S
C2324 O2314 1.264 . S
C2325 C2328 1.382 . S
C2325 C2330 1.390 . S
C2325 C2332 1.506 . S
C2326 C2327 1.398 . S
C2326 C2330 1.392 . S
C2327 C2326 1.398 . S
C2327 C2329 1.372 . S
C2327 H2344 0.931 . S
C2328 C2325 1.382 . S
C2328 C2329 1.390 . S
C2328 H2345 0.931 . S
C2329 C2327 1.372 . S
C2329 C2328 1.390 . S
C2329 H2346 0.929 . S
C2330 C2325 1.390 . S
C2330 C2326 1.392 . S
C2330 H2347 0.930 . S
C2331 O2316 1.255 . S
C2331 O2317 1.257 . S
C2332 Eu2268 2.787 1_655 S
C2332 O2312 1.252 . S
C2332 O2315 1.268 . S
C2332 C2325 1.506 . S
C2333 C2300 1.439 . S
C2333 H2310 0.931 . S
C2333 C2334 1.374 . S
C2334 C2305 1.387 . S
C2334 H2311 0.931 . S
C2334 C2333 1.374 . S
C2335 O2319 1.249 . S
C2335 O2320 1.264 . S
C2336 C2339 1.382 . S
C2336 C2340 1.390 . S
C2336 C2343 1.506 . S
C2337 C2338 1.398 . S
C2337 C2340 1.392 . S
C2338 C2337 1.398 . S
C2338 C2341 1.372 . S
C2338 H2348 0.931 . S
C2339 C2336 1.382 . S
C2339 C2341 1.390 . S
C2339 H2349 0.931 . S
C2340 C2336 1.390 . S
C2340 C2337 1.392 . S
C2340 H2350 0.930 . S
C2341 C2338 1.372 . S
C2341 C2339 1.390 . S
C2341 H2351 0.929 . S
C2342 O2322 1.255 . S
C2342 O2323 1.257 . S
C2343 Eu2279 2.787 . S
C2343 O2318 1.252 . S
C2343 O2321 1.268 . S
C2343 C2336 1.506 . S
H2344 C2327 0.931 . S
H2345 C2328 0.931 . S
H2346 C2329 0.929 . S
H2347 C2330 0.930 . S
H2348 C2338 0.931 . S
H2349 C2339 0.931 . S
H2350 C2340 0.930 . S
H2351 C2341 0.929 . S
Eu2352 N2381 2.600 . S
Eu2352 N2387 2.562 . S
Eu2352 O2396 2.462 . S
Eu2352 O2397 2.373 . S
Eu2352 O2399 2.432 . S
Eu2352 O2400 2.291 . S
Eu2352 O2404 2.335 . S
Eu2352 O2407 2.372 . S
Eu2352 C2416 2.787 . S
C2353 N2354 1.365 . S
C2353 C2356 1.405 . S
C2353 C2360 1.448 . S
N2354 C2353 1.365 . S
N2354 C2357 1.319 . S
N2354 Eu2363 2.600 . S
C2355 C2357 1.397 . S
C2355 C2358 1.367 . S
C2355 H2375 0.931 . S
C2356 C2353 1.405 . S
C2356 C2358 1.403 . S
C2356 C2362 1.439 . S
C2357 N2354 1.319 . S
C2357 C2355 1.397 . S
C2357 H2368 0.930 . S
C2358 C2355 1.367 . S
C2358 C2356 1.403 . S
C2358 H2379 0.929 . S
C2359 C2360 1.430 . S
C2359 C2361 1.387 . S
C2359 C2365 1.404 . S
C2360 C2353 1.448 . S
C2360 C2359 1.430 . S
C2360 N2364 1.351 . S
C2361 C2359 1.387 . S
C2361 C2362 1.374 . S
C2361 H2376 0.931 . S
C2362 C2356 1.439 . S
C2362 C2361 1.374 . S
C2362 H2377 0.931 . S
Eu2363 N2354 2.600 . S
Eu2363 N2364 2.562 . S
Eu2363 O2398 2.335 . S
Eu2363 O2401 2.372 . S
Eu2363 O2402 2.462 . S
Eu2363 O2403 2.373 . S
Eu2363 O2405 2.432 . S
Eu2363 O2406 2.291 . S
Eu2363 C2427 2.787 . S
N2364 C2360 1.351 . S
N2364 Eu2363 2.562 . S
N2364 C2366 1.325 . S
C2365 C2359 1.404 . S
C2365 C2367 1.366 . S
C2365 H2373 0.930 . S
C2366 N2364 1.325 . S
C2366 C2367 1.416 . S
C2366 H2372 0.929 . S
C2367 C2365 1.366 . S
C2367 C2366 1.416 . S
C2367 H2369 0.930 . S
H2368 C2357 0.930 . S
H2369 C2367 0.930 . S
H2370 C2385 0.930 . S
H2371 C2392 0.930 . S
H2372 C2366 0.929 . S
H2373 C2365 0.930 . S
H2374 C2388 0.929 . S
H2375 C2355 0.931 . S
H2376 C2361 0.931 . S
H2377 C2362 0.931 . S
H2378 C2383 0.931 . S
H2379 C2358 0.929 . S
H2380 C2391 0.930 . S
N2381 Eu2352 2.600 . S
N2381 C2382 1.365 . S
N2381 C2385 1.319 . S
C2382 N2381 1.365 . S
C2382 C2384 1.405 . S
C2382 C2390 1.448 . S
C2383 H2378 0.931 . S
C2383 C2385 1.397 . S
C2383 C2386 1.367 . S
C2384 C2382 1.405 . S
C2384 C2386 1.403 . S
C2384 C2417 1.439 . S
C2385 H2370 0.930 . S
C2385 N2381 1.319 . S
C2385 C2383 1.397 . S
C2386 C2383 1.367 . S
C2386 C2384 1.403 . S
C2386 H2393 0.929 . S
N2387 Eu2352 2.562 . S
N2387 C2388 1.325 . S
N2387 C2390 1.351 . S
C2388 H2374 0.929 . S
C2388 N2387 1.325 . S
C2388 C2392 1.416 . S
C2389 C2390 1.430 . S
C2389 C2391 1.404 . S
C2389 C2418 1.387 . S
C2390 C2382 1.448 . S
C2390 N2387 1.351 . S
C2390 C2389 1.430 . S
C2391 H2380 0.930 . S
C2391 C2389 1.404 . S
C2391 C2392 1.366 . S
C2392 H2371 0.930 . S
C2392 C2388 1.416 . S
C2392 C2391 1.366 . S
H2393 C2386 0.929 . S
H2394 C2417 0.931 . S
H2395 C2418 0.931 . S
O2396 Eu2352 2.462 . S
O2396 C2416 1.252 . S
O2397 Eu2352 2.373 . S
O2397 C2408 1.249 . S
O2398 Eu2363 2.335 . S
O2398 C2408 1.264 . S
O2399 Eu2352 2.432 . S
O2399 C2416 1.268 . S
O2400 Eu2352 2.291 . S
O2400 C2415 1.255 . S
O2401 Eu2363 2.372 . S
O2401 C2415 1.257 . S
O2402 Eu2363 2.462 . S
O2402 C2427 1.252 . S
O2403 Eu2363 2.373 . S
O2403 C2419 1.249 . S
O2404 Eu2352 2.335 . S
O2404 C2419 1.264 . S
O2405 Eu2363 2.432 . S
O2405 C2427 1.268 . S
O2406 Eu2363 2.291 . S
O2406 C2426 1.255 . S
O2407 Eu2352 2.372 . S
O2407 C2426 1.257 . S
C2408 O2397 1.249 . S
C2408 O2398 1.264 . S
C2409 C2412 1.382 . S
C2409 C2414 1.390 . S
C2409 C2416 1.506 . S
C2410 C2411 1.398 . S
C2410 C2414 1.392 . S
C2411 C2410 1.398 . S
C2411 C2413 1.372 . S
C2411 H2428 0.931 . S
C2412 C2409 1.382 . S
C2412 C2413 1.390 . S
C2412 H2429 0.931 . S
C2413 C2411 1.372 . S
C2413 C2412 1.390 . S
C2413 H2430 0.929 . S
C2414 C2409 1.390 . S
C2414 C2410 1.392 . S
C2414 H2431 0.930 . S
C2415 O2400 1.255 . S
C2415 O2401 1.257 . S
C2416 Eu2352 2.787 . S
C2416 O2396 1.252 . S
C2416 O2399 1.268 . S
C2416 C2409 1.506 . S
C2417 C2384 1.439 . S
C2417 H2394 0.931 . S
C2417 C2418 1.374 . S
C2418 C2389 1.387 . S
C2418 H2395 0.931 . S
C2418 C2417 1.374 . S
C2419 O2403 1.249 . S
C2419 O2404 1.264 . S
C2420 C2423 1.382 . S
C2420 C2424 1.390 . S
C2420 C2427 1.506 . S
C2421 C2422 1.398 . S
C2421 C2424 1.392 . S
C2422 C2421 1.398 . S
C2422 C2425 1.372 . S
C2422 H2432 0.931 . S
C2423 C2420 1.382 . S
C2423 C2425 1.390 . S
C2423 H2433 0.931 . S
C2424 C2420 1.390 . S
C2424 C2421 1.392 . S
C2424 H2434 0.930 . S
C2425 C2422 1.372 . S
C2425 C2423 1.390 . S
C2425 H2435 0.929 . S
C2426 O2406 1.255 . S
C2426 O2407 1.257 . S
C2427 Eu2363 2.787 . S
C2427 O2402 1.252 . S
C2427 O2405 1.268 . S
C2427 C2420 1.506 . S
H2428 C2411 0.931 . S
H2429 C2412 0.931 . S
H2430 C2413 0.929 . S
H2431 C2414 0.930 . S
H2432 C2422 0.931 . S
H2433 C2423 0.931 . S
H2434 C2424 0.930 . S
H2435 C2425 0.929 . S
Eu2436 N2465 2.600 1_455 S
Eu2436 N2471 2.562 1_455 S
Eu2436 O2480 2.462 1_455 S
Eu2436 O2481 2.373 . S
Eu2436 O2483 2.432 1_455 S
Eu2436 O2484 2.291 . S
Eu2436 O2488 2.335 . S
Eu2436 O2491 2.372 . S
Eu2436 C2500 2.787 1_455 S
C2437 N2438 1.365 . S
C2437 C2440 1.405 . S
C2437 C2444 1.448 . S
N2438 C2437 1.365 . S
N2438 C2441 1.319 . S
N2438 Eu2447 2.600 . S
C2439 C2441 1.397 . S
C2439 C2442 1.367 . S
C2439 H2459 0.931 . S
C2440 C2437 1.405 . S
C2440 C2442 1.403 . S
C2440 C2446 1.439 . S
C2441 N2438 1.319 . S
C2441 C2439 1.397 . S
C2441 H2452 0.930 . S
C2442 C2439 1.367 . S
C2442 C2440 1.403 . S
C2442 H2463 0.929 . S
C2443 C2444 1.430 . S
C2443 C2445 1.387 . S
C2443 C2449 1.404 . S
C2444 C2437 1.448 . S
C2444 C2443 1.430 . S
C2444 N2448 1.351 . S
C2445 C2443 1.387 . S
C2445 C2446 1.374 . S
C2445 H2460 0.931 . S
C2446 C2440 1.439 . S
C2446 C2445 1.374 . S
C2446 H2461 0.931 . S
Eu2447 N2438 2.600 . S
Eu2447 N2448 2.562 . S
Eu2447 O2482 2.335 . S
Eu2447 O2485 2.372 . S
Eu2447 O2486 2.462 . S
Eu2447 O2487 2.373 . S
Eu2447 O2489 2.432 . S
Eu2447 O2490 2.291 . S
Eu2447 C2511 2.787 . S
N2448 C2444 1.351 . S
N2448 Eu2447 2.562 . S
N2448 C2450 1.325 . S
C2449 C2443 1.404 . S
C2449 C2451 1.366 . S
C2449 H2457 0.930 . S
C2450 N2448 1.325 . S
C2450 C2451 1.416 . S
C2450 H2456 0.929 . S
C2451 C2449 1.366 . S
C2451 C2450 1.416 . S
C2451 H2453 0.930 . S
H2452 C2441 0.930 . S
H2453 C2451 0.930 . S
H2454 C2469 0.930 . S
H2455 C2476 0.930 . S
H2456 C2450 0.929 . S
H2457 C2449 0.930 . S
H2458 C2472 0.929 . S
H2459 C2439 0.931 . S
H2460 C2445 0.931 . S
H2461 C2446 0.931 . S
H2462 C2467 0.931 . S
H2463 C2442 0.929 . S
H2464 C2475 0.930 . S
N2465 Eu2436 2.600 1_655 S
N2465 C2466 1.365 . S
N2465 C2469 1.319 1_655 S
C2466 N2465 1.365 . S
C2466 C2468 1.405 . S
C2466 C2474 1.448 . S
C2467 H2462 0.931 . S
C2467 C2469 1.397 . S
C2467 C2470 1.367 1_455 S
C2468 C2466 1.405 . S
C2468 C2470 1.403 . S
C2468 C2501 1.439 . S
C2469 H2454 0.930 . S
C2469 N2465 1.319 1_455 S
C2469 C2467 1.397 . S
C2470 C2467 1.367 1_655 S
C2470 C2468 1.403 . S
C2470 H2477 0.929 . S
N2471 Eu2436 2.562 1_655 S
N2471 C2472 1.325 . S
N2471 C2474 1.351 . S
C2472 H2458 0.929 . S
C2472 N2471 1.325 . S
C2472 C2476 1.416 . S
C2473 C2474 1.430 . S
C2473 C2475 1.404 . S
C2473 C2502 1.387 . S
C2474 C2466 1.448 . S
C2474 N2471 1.351 . S
C2474 C2473 1.430 . S
C2475 H2464 0.930 . S
C2475 C2473 1.404 . S
C2475 C2476 1.366 . S
C2476 H2455 0.930 . S
C2476 C2472 1.416 . S
C2476 C2475 1.366 . S
H2477 C2470 0.929 . S
H2478 C2501 0.931 . S
H2479 C2502 0.931 . S
O2480 Eu2436 2.462 1_655 S
O2480 C2500 1.252 . S
O2481 Eu2436 2.373 . S
O2481 C2492 1.249 . S
O2482 Eu2447 2.335 . S
O2482 C2492 1.264 . S
O2483 Eu2436 2.432 1_655 S
O2483 C2500 1.268 . S
O2484 Eu2436 2.291 . S
O2484 C2499 1.255 . S
O2485 Eu2447 2.372 . S
O2485 C2499 1.257 . S
O2486 Eu2447 2.462 . S
O2486 C2511 1.252 . S
O2487 Eu2447 2.373 . S
O2487 C2503 1.249 . S
O2488 Eu2436 2.335 . S
O2488 C2503 1.264 . S
O2489 Eu2447 2.432 . S
O2489 C2511 1.268 . S
O2490 Eu2447 2.291 . S
O2490 C2510 1.255 . S
O2491 Eu2436 2.372 . S
O2491 C2510 1.257 . S
C2492 O2481 1.249 . S
C2492 O2482 1.264 . S
C2493 C2496 1.382 . S
C2493 C2498 1.390 . S
C2493 C2500 1.506 . S
C2494 C2495 1.398 . S
C2494 C2498 1.392 . S
C2495 C2494 1.398 . S
C2495 C2497 1.372 . S
C2495 H2512 0.931 . S
C2496 C2493 1.382 . S
C2496 C2497 1.390 . S
C2496 H2513 0.931 . S
C2497 C2495 1.372 . S
C2497 C2496 1.390 . S
C2497 H2514 0.929 . S
C2498 C2493 1.390 . S
C2498 C2494 1.392 . S
C2498 H2515 0.930 . S
C2499 O2484 1.255 . S
C2499 O2485 1.257 . S
C2500 Eu2436 2.787 1_655 S
C2500 O2480 1.252 . S
C2500 O2483 1.268 . S
C2500 C2493 1.506 . S
C2501 C2468 1.439 . S
C2501 H2478 0.931 . S
C2501 C2502 1.374 . S
C2502 C2473 1.387 . S
C2502 H2479 0.931 . S
C2502 C2501 1.374 . S
C2503 O2487 1.249 . S
C2503 O2488 1.264 . S
C2504 C2507 1.382 . S
C2504 C2508 1.390 . S
C2504 C2511 1.506 . S
C2505 C2506 1.398 . S
C2505 C2508 1.392 . S
C2506 C2505 1.398 . S
C2506 C2509 1.372 . S
C2506 H2516 0.931 . S
C2507 C2504 1.382 . S
C2507 C2509 1.390 . S
C2507 H2517 0.931 . S
C2508 C2504 1.390 . S
C2508 C2505 1.392 . S
C2508 H2518 0.930 . S
C2509 C2506 1.372 . S
C2509 C2507 1.390 . S
C2509 H2519 0.929 . S
C2510 O2490 1.255 . S
C2510 O2491 1.257 . S
C2511 Eu2447 2.787 . S
C2511 O2486 1.252 . S
C2511 O2489 1.268 . S
C2511 C2504 1.506 . S
H2512 C2495 0.931 . S
H2513 C2496 0.931 . S
H2514 C2497 0.929 . S
H2515 C2498 0.930 . S
H2516 C2506 0.931 . S
H2517 C2507 0.931 . S
H2518 C2508 0.930 . S
H2519 C2509 0.929 . S
Eu2520 N2549 2.600 . S
Eu2520 N2555 2.562 . S
Eu2520 O2564 2.462 . S
Eu2520 O2565 2.373 . S
Eu2520 O2567 2.432 . S
Eu2520 O2568 2.291 . S
Eu2520 O2572 2.335 . S
Eu2520 O2575 2.372 . S
Eu2520 C2584 2.787 . S
C2521 N2522 1.365 . S
C2521 C2524 1.405 . S
C2521 C2528 1.448 . S
N2522 C2521 1.365 . S
N2522 C2525 1.319 . S
N2522 Eu2531 2.600 . S
C2523 C2525 1.397 . S
C2523 C2526 1.367 . S
C2523 H2543 0.931 . S
C2524 C2521 1.405 . S
C2524 C2526 1.403 . S
C2524 C2530 1.439 . S
C2525 N2522 1.319 . S
C2525 C2523 1.397 . S
C2525 H2536 0.930 . S
C2526 C2523 1.367 . S
C2526 C2524 1.403 . S
C2526 H2547 0.929 . S
C2527 C2528 1.430 . S
C2527 C2529 1.387 . S
C2527 C2533 1.404 . S
C2528 C2521 1.448 . S
C2528 C2527 1.430 . S
C2528 N2532 1.351 . S
C2529 C2527 1.387 . S
C2529 C2530 1.374 . S
C2529 H2544 0.931 . S
C2530 C2524 1.439 . S
C2530 C2529 1.374 . S
C2530 H2545 0.931 . S
Eu2531 N2522 2.600 . S
Eu2531 N2532 2.562 . S
Eu2531 O2566 2.335 . S
Eu2531 O2569 2.372 . S
Eu2531 O2570 2.462 . S
Eu2531 O2571 2.373 . S
Eu2531 O2573 2.432 . S
Eu2531 O2574 2.291 . S
Eu2531 C2595 2.787 . S
N2532 C2528 1.351 . S
N2532 Eu2531 2.562 . S
N2532 C2534 1.325 . S
C2533 C2527 1.404 . S
C2533 C2535 1.366 . S
C2533 H2541 0.930 . S
C2534 N2532 1.325 . S
C2534 C2535 1.416 . S
C2534 H2540 0.929 . S
C2535 C2533 1.366 . S
C2535 C2534 1.416 . S
C2535 H2537 0.930 . S
H2536 C2525 0.930 . S
H2537 C2535 0.930 . S
H2538 C2553 0.930 . S
H2539 C2560 0.930 . S
H2540 C2534 0.929 . S
H2541 C2533 0.930 . S
H2542 C2556 0.929 . S
H2543 C2523 0.931 . S
H2544 C2529 0.931 . S
H2545 C2530 0.931 . S
H2546 C2551 0.931 . S
H2547 C2526 0.929 . S
H2548 C2559 0.930 . S
N2549 Eu2520 2.600 . S
N2549 C2550 1.365 . S
N2549 C2553 1.319 . S
C2550 N2549 1.365 . S
C2550 C2552 1.405 . S
C2550 C2558 1.448 . S
C2551 H2546 0.931 . S
C2551 C2553 1.397 . S
C2551 C2554 1.367 . S
C2552 C2550 1.405 . S
C2552 C2554 1.403 . S
C2552 C2585 1.439 . S
C2553 H2538 0.930 . S
C2553 N2549 1.319 . S
C2553 C2551 1.397 . S
C2554 C2551 1.367 . S
C2554 C2552 1.403 . S
C2554 H2561 0.929 . S
N2555 Eu2520 2.562 . S
N2555 C2556 1.325 . S
N2555 C2558 1.351 . S
C2556 H2542 0.929 . S
C2556 N2555 1.325 . S
C2556 C2560 1.416 . S
C2557 C2558 1.430 . S
C2557 C2559 1.404 . S
C2557 C2586 1.387 . S
C2558 C2550 1.448 . S
C2558 N2555 1.351 . S
C2558 C2557 1.430 . S
C2559 H2548 0.930 . S
C2559 C2557 1.404 . S
C2559 C2560 1.366 . S
C2560 H2539 0.930 . S
C2560 C2556 1.416 . S
C2560 C2559 1.366 . S
H2561 C2554 0.929 . S
H2562 C2585 0.931 . S
H2563 C2586 0.931 . S
O2564 Eu2520 2.462 . S
O2564 C2584 1.252 . S
O2565 Eu2520 2.373 . S
O2565 C2576 1.249 . S
O2566 Eu2531 2.335 . S
O2566 C2576 1.264 . S
O2567 Eu2520 2.432 . S
O2567 C2584 1.268 . S
O2568 Eu2520 2.291 . S
O2568 C2583 1.255 . S
O2569 Eu2531 2.372 . S
O2569 C2583 1.257 . S
O2570 Eu2531 2.462 . S
O2570 C2595 1.252 . S
O2571 Eu2531 2.373 . S
O2571 C2587 1.249 . S
O2572 Eu2520 2.335 . S
O2572 C2587 1.264 . S
O2573 Eu2531 2.432 . S
O2573 C2595 1.268 . S
O2574 Eu2531 2.291 . S
O2574 C2594 1.255 . S
O2575 Eu2520 2.372 . S
O2575 C2594 1.257 . S
C2576 O2565 1.249 . S
C2576 O2566 1.264 . S
C2577 C2580 1.382 . S
C2577 C2582 1.390 . S
C2577 C2584 1.506 . S
C2578 C2579 1.398 . S
C2578 C2582 1.392 . S
C2579 C2578 1.398 . S
C2579 C2581 1.372 . S
C2579 H2596 0.931 . S
C2580 C2577 1.382 . S
C2580 C2581 1.390 . S
C2580 H2597 0.931 . S
C2581 C2579 1.372 . S
C2581 C2580 1.390 . S
C2581 H2598 0.929 . S
C2582 C2577 1.390 . S
C2582 C2578 1.392 . S
C2582 H2599 0.930 . S
C2583 O2568 1.255 . S
C2583 O2569 1.257 . S
C2584 Eu2520 2.787 . S
C2584 O2564 1.252 . S
C2584 O2567 1.268 . S
C2584 C2577 1.506 . S
C2585 C2552 1.439 . S
C2585 H2562 0.931 . S
C2585 C2586 1.374 . S
C2586 C2557 1.387 . S
C2586 H2563 0.931 . S
C2586 C2585 1.374 . S
C2587 O2571 1.249 . S
C2587 O2572 1.264 . S
C2588 C2591 1.382 . S
C2588 C2592 1.390 . S
C2588 C2595 1.506 . S
C2589 C2590 1.398 . S
C2589 C2592 1.392 . S
C2590 C2589 1.398 . S
C2590 C2593 1.372 . S
C2590 H2600 0.931 . S
C2591 C2588 1.382 . S
C2591 C2593 1.390 . S
C2591 H2601 0.931 . S
C2592 C2588 1.390 . S
C2592 C2589 1.392 . S
C2592 H2602 0.930 . S
C2593 C2590 1.372 . S
C2593 C2591 1.390 . S
C2593 H2603 0.929 . S
C2594 O2574 1.255 . S
C2594 O2575 1.257 . S
C2595 Eu2531 2.787 . S
C2595 O2570 1.252 . S
C2595 O2573 1.268 . S
C2595 C2588 1.506 . S
H2596 C2579 0.931 . S
H2597 C2580 0.931 . S
H2598 C2581 0.929 . S
H2599 C2582 0.930 . S
H2600 C2590 0.931 . S
H2601 C2591 0.931 . S
H2602 C2592 0.930 . S
H2603 C2593 0.929 . S
Eu2604 N2633 2.600 . S
Eu2604 N2639 2.562 . S
Eu2604 O2648 2.462 . S
Eu2604 O2649 2.373 . S
Eu2604 O2651 2.432 . S
Eu2604 O2652 2.291 . S
Eu2604 O2656 2.335 . S
Eu2604 O2659 2.372 . S
Eu2604 C2668 2.787 . S
C2605 N2606 1.365 . S
C2605 C2608 1.405 . S
C2605 C2612 1.448 . S
N2606 C2605 1.365 . S
N2606 C2609 1.319 . S
N2606 Eu2615 2.600 . S
C2607 C2609 1.397 . S
C2607 C2610 1.367 . S
C2607 H2627 0.931 . S
C2608 C2605 1.405 . S
C2608 C2610 1.403 . S
C2608 C2614 1.439 . S
C2609 N2606 1.319 . S
C2609 C2607 1.397 . S
C2609 H2620 0.930 . S
C2610 C2607 1.367 . S
C2610 C2608 1.403 . S
C2610 H2631 0.929 . S
C2611 C2612 1.430 . S
C2611 C2613 1.387 . S
C2611 C2617 1.404 . S
C2612 C2605 1.448 . S
C2612 C2611 1.430 . S
C2612 N2616 1.351 . S
C2613 C2611 1.387 . S
C2613 C2614 1.374 . S
C2613 H2628 0.931 . S
C2614 C2608 1.439 . S
C2614 C2613 1.374 . S
C2614 H2629 0.931 . S
Eu2615 N2606 2.600 . S
Eu2615 N2616 2.562 . S
Eu2615 O2650 2.335 . S
Eu2615 O2653 2.372 . S
Eu2615 O2654 2.462 . S
Eu2615 O2655 2.373 . S
Eu2615 O2657 2.432 . S
Eu2615 O2658 2.291 . S
Eu2615 C2679 2.787 . S
N2616 C2612 1.351 . S
N2616 Eu2615 2.562 . S
N2616 C2618 1.325 . S
C2617 C2611 1.404 . S
C2617 C2619 1.366 . S
C2617 H2625 0.930 . S
C2618 N2616 1.325 . S
C2618 C2619 1.416 . S
C2618 H2624 0.929 . S
C2619 C2617 1.366 . S
C2619 C2618 1.416 . S
C2619 H2621 0.930 . S
H2620 C2609 0.930 . S
H2621 C2619 0.930 . S
H2622 C2637 0.930 . S
H2623 C2644 0.930 . S
H2624 C2618 0.929 . S
H2625 C2617 0.930 . S
H2626 C2640 0.929 . S
H2627 C2607 0.931 . S
H2628 C2613 0.931 . S
H2629 C2614 0.931 . S
H2630 C2635 0.931 . S
H2631 C2610 0.929 . S
H2632 C2643 0.930 . S
N2633 Eu2604 2.600 . S
N2633 C2634 1.365 . S
N2633 C2637 1.319 . S
C2634 N2633 1.365 . S
C2634 C2636 1.405 . S
C2634 C2642 1.448 . S
C2635 H2630 0.931 . S
C2635 C2637 1.397 . S
C2635 C2638 1.367 . S
C2636 C2634 1.405 . S
C2636 C2638 1.403 . S
C2636 C2669 1.439 . S
C2637 H2622 0.930 . S
C2637 N2633 1.319 . S
C2637 C2635 1.397 . S
C2638 C2635 1.367 . S
C2638 C2636 1.403 . S
C2638 H2645 0.929 . S
N2639 Eu2604 2.562 . S
N2639 C2640 1.325 . S
N2639 C2642 1.351 . S
C2640 H2626 0.929 . S
C2640 N2639 1.325 . S
C2640 C2644 1.416 . S
C2641 C2642 1.430 . S
C2641 C2643 1.404 . S
C2641 C2670 1.387 . S
C2642 C2634 1.448 . S
C2642 N2639 1.351 . S
C2642 C2641 1.430 . S
C2643 H2632 0.930 . S
C2643 C2641 1.404 . S
C2643 C2644 1.366 . S
C2644 H2623 0.930 . S
C2644 C2640 1.416 . S
C2644 C2643 1.366 . S
H2645 C2638 0.929 . S
H2646 C2669 0.931 . S
H2647 C2670 0.931 . S
O2648 Eu2604 2.462 . S
O2648 C2668 1.252 . S
O2649 Eu2604 2.373 . S
O2649 C2660 1.249 . S
O2650 Eu2615 2.335 . S
O2650 C2660 1.264 . S
O2651 Eu2604 2.432 . S
O2651 C2668 1.268 . S
O2652 Eu2604 2.291 . S
O2652 C2667 1.255 . S
O2653 Eu2615 2.372 . S
O2653 C2667 1.257 . S
O2654 Eu2615 2.462 . S
O2654 C2679 1.252 . S
O2655 Eu2615 2.373 . S
O2655 C2671 1.249 . S
O2656 Eu2604 2.335 . S
O2656 C2671 1.264 . S
O2657 Eu2615 2.432 . S
O2657 C2679 1.268 . S
O2658 Eu2615 2.291 . S
O2658 C2678 1.255 . S
O2659 Eu2604 2.372 . S
O2659 C2678 1.257 . S
C2660 O2649 1.249 . S
C2660 O2650 1.264 . S
C2661 C2664 1.382 . S
C2661 C2666 1.390 . S
C2661 C2668 1.506 . S
C2662 C2663 1.398 . S
C2662 C2666 1.392 . S
C2663 C2662 1.398 . S
C2663 C2665 1.372 . S
C2663 H2680 0.931 . S
C2664 C2661 1.382 . S
C2664 C2665 1.390 . S
C2664 H2681 0.931 . S
C2665 C2663 1.372 . S
C2665 C2664 1.390 . S
C2665 H2682 0.929 . S
C2666 C2661 1.390 . S
C2666 C2662 1.392 . S
C2666 H2683 0.930 . S
C2667 O2652 1.255 . S
C2667 O2653 1.257 . S
C2668 Eu2604 2.787 . S
C2668 O2648 1.252 . S
C2668 O2651 1.268 . S
C2668 C2661 1.506 . S
C2669 C2636 1.439 . S
C2669 H2646 0.931 . S
C2669 C2670 1.374 . S
C2670 C2641 1.387 . S
C2670 H2647 0.931 . S
C2670 C2669 1.374 . S
C2671 O2655 1.249 . S
C2671 O2656 1.264 . S
C2672 C2675 1.382 . S
C2672 C2676 1.390 . S
C2672 C2679 1.506 . S
C2673 C2674 1.398 . S
C2673 C2676 1.392 . S
C2674 C2673 1.398 . S
C2674 C2677 1.372 . S
C2674 H2684 0.931 . S
C2675 C2672 1.382 . S
C2675 C2677 1.390 . S
C2675 H2685 0.931 . S
C2676 C2672 1.390 . S
C2676 C2673 1.392 . S
C2676 H2686 0.930 . S
C2677 C2674 1.372 . S
C2677 C2675 1.390 . S
C2677 H2687 0.929 . S
C2678 O2658 1.255 . S
C2678 O2659 1.257 . S
C2679 Eu2615 2.787 . S
C2679 O2654 1.252 . S
C2679 O2657 1.268 . S
C2679 C2672 1.506 . S
H2680 C2663 0.931 . S
H2681 C2664 0.931 . S
H2682 C2665 0.929 . S
H2683 C2666 0.930 . S
H2684 C2674 0.931 . S
H2685 C2675 0.931 . S
H2686 C2676 0.930 . S
H2687 C2677 0.929 . S
H2688 C2696 0.950 . S
H2689 C2701 0.950 . S
H2690 C2698 0.950 . S
H2691 C2700 0.950 . S
H2692 C2702 0.950 . S
H2693 C2704 0.950 . S
H2694 C2706 0.950 . S
H2695 C2707 0.950 . S
C2696 H2688 0.950 . S
C2696 C2697 1.386 . S
C2696 C2698 1.391 . S
C2697 C2696 1.386 . S
C2697 C2701 1.393 . S
C2698 H2690 0.950 . S
C2698 C2696 1.391 . S
C2698 C2699 1.400 . S
C2699 C2698 1.400 . S
C2699 C2700 1.398 . S
C2699 C2705 1.491 . S
C2700 H2691 0.950 . S
C2700 C2699 1.398 . S
C2700 C2701 1.391 . S
C2701 H2689 0.950 . S
C2701 C2697 1.393 . S
C2701 C2700 1.391 . S
C2702 H2692 0.950 . S
C2702 C2703 1.386 . S
C2702 C2704 1.391 . S
C2703 C2702 1.386 . S
C2703 C2707 1.393 . S
C2704 H2693 0.950 . S
C2704 C2702 1.391 . S
C2704 C2705 1.400 . S
C2705 C2699 1.491 . S
C2705 C2704 1.400 . S
C2705 C2706 1.398 . S
C2706 H2694 0.950 . S
C2706 C2705 1.398 . S
C2706 C2707 1.391 . S
C2707 H2695 0.950 . S
C2707 C2703 1.393 . S
C2707 C2706 1.391 . S
H2708 C2716 0.950 . S
H2709 C2721 0.950 . S
H2710 C2718 0.950 . S
H2711 C2720 0.950 . S
H2712 C2722 0.950 . S
H2713 C2724 0.950 . S
H2714 C2726 0.950 . S
H2715 C2727 0.950 . S
C2716 H2708 0.950 . S
C2716 C2717 1.386 . S
C2716 C2718 1.391 . S
C2717 C2716 1.386 . S
C2717 C2721 1.393 . S
C2718 H2710 0.950 . S
C2718 C2716 1.391 . S
C2718 C2719 1.400 . S
C2719 C2718 1.400 . S
C2719 C2720 1.398 . S
C2719 C2725 1.491 . S
C2720 H2711 0.950 . S
C2720 C2719 1.398 . S
C2720 C2721 1.391 . S
C2721 H2709 0.950 . S
C2721 C2717 1.393 . S
C2721 C2720 1.391 . S
C2722 H2712 0.950 . S
C2722 C2723 1.386 . S
C2722 C2724 1.391 . S
C2723 C2722 1.386 . S
C2723 C2727 1.393 . S
C2724 H2713 0.950 . S
C2724 C2722 1.391 . S
C2724 C2725 1.400 . S
C2725 C2719 1.491 . S
C2725 C2724 1.400 . S
C2725 C2726 1.398 . S
C2726 H2714 0.950 . S
C2726 C2725 1.398 . S
C2726 C2727 1.391 . S
C2727 H2715 0.950 . S
C2727 C2723 1.393 . S
C2727 C2726 1.391 . S
H2728 C2736 0.950 . S
H2729 C2741 0.950 . S
H2730 C2738 0.950 . S
H2731 C2740 0.950 . S
H2732 C2742 0.950 . S
H2733 C2744 0.950 . S
H2734 C2746 0.950 . S
H2735 C2747 0.950 . S
C2736 H2728 0.950 . S
C2736 C2737 1.386 . S
C2736 C2738 1.391 . S
C2737 C2736 1.386 . S
C2737 C2741 1.393 . S
C2738 H2730 0.950 . S
C2738 C2736 1.391 . S
C2738 C2739 1.400 . S
C2739 C2738 1.400 . S
C2739 C2740 1.398 . S
C2739 C2745 1.491 . S
C2740 H2731 0.950 . S
C2740 C2739 1.398 . S
C2740 C2741 1.391 . S
C2741 H2729 0.950 . S
C2741 C2737 1.393 . S
C2741 C2740 1.391 . S
C2742 H2732 0.950 . S
C2742 C2743 1.386 . S
C2742 C2744 1.391 . S
C2743 C2742 1.386 . S
C2743 C2747 1.393 . S
C2744 H2733 0.950 . S
C2744 C2742 1.391 . S
C2744 C2745 1.400 . S
C2745 C2739 1.491 . S
C2745 C2744 1.400 . S
C2745 C2746 1.398 . S
C2746 H2734 0.950 . S
C2746 C2745 1.398 . S
C2746 C2747 1.391 . S
C2747 H2735 0.950 . S
C2747 C2743 1.393 . S
C2747 C2746 1.391 . S
H2748 C2756 0.950 . S
H2749 C2761 0.950 . S
H2750 C2758 0.950 . S
H2751 C2760 0.950 . S
H2752 C2762 0.950 . S
H2753 C2764 0.950 . S
H2754 C2766 0.950 . S
H2755 C2767 0.950 . S
C2756 H2748 0.950 . S
C2756 C2757 1.386 . S
C2756 C2758 1.391 . S
C2757 C2756 1.386 . S
C2757 C2761 1.393 . S
C2758 H2750 0.950 . S
C2758 C2756 1.391 . S
C2758 C2759 1.400 . S
C2759 C2758 1.400 . S
C2759 C2760 1.398 . S
C2759 C2765 1.491 . S
C2760 H2751 0.950 . S
C2760 C2759 1.398 . S
C2760 C2761 1.391 . S
C2761 H2749 0.950 . S
C2761 C2757 1.393 . S
C2761 C2760 1.391 . S
C2762 H2752 0.950 . S
C2762 C2763 1.386 . S
C2762 C2764 1.391 . S
C2763 C2762 1.386 . S
C2763 C2767 1.393 . S
C2764 H2753 0.950 . S
C2764 C2762 1.391 . S
C2764 C2765 1.400 . S
C2765 C2759 1.491 . S
C2765 C2764 1.400 . S
C2765 C2766 1.398 . S
C2766 H2754 0.950 . S
C2766 C2765 1.398 . S
C2766 C2767 1.391 . S
C2767 H2755 0.950 . S
C2767 C2763 1.393 . S
C2767 C2766 1.391 . S
H2768 C2776 0.950 . S
H2769 C2781 0.950 . S
H2770 C2778 0.950 . S
H2771 C2780 0.950 . S
H2772 C2782 0.950 . S
H2773 C2784 0.950 . S
H2774 C2786 0.950 . S
H2775 C2787 0.950 . S
C2776 H2768 0.950 . S
C2776 C2777 1.386 . S
C2776 C2778 1.391 . S
C2777 C2776 1.386 . S
C2777 C2781 1.393 . S
C2778 H2770 0.950 . S
C2778 C2776 1.391 . S
C2778 C2779 1.400 . S
C2779 C2778 1.400 . S
C2779 C2780 1.398 . S
C2779 C2785 1.491 . S
C2780 H2771 0.950 . S
C2780 C2779 1.398 . S
C2780 C2781 1.391 . S
C2781 H2769 0.950 . S
C2781 C2777 1.393 . S
C2781 C2780 1.391 . S
C2782 H2772 0.950 . S
C2782 C2783 1.386 . S
C2782 C2784 1.391 . S
C2783 C2782 1.386 . S
C2783 C2787 1.393 . S
C2784 H2773 0.950 . S
C2784 C2782 1.391 . S
C2784 C2785 1.400 . S
C2785 C2779 1.491 . S
C2785 C2784 1.400 . S
C2785 C2786 1.398 . S
C2786 H2774 0.950 . S
C2786 C2785 1.398 . S
C2786 C2787 1.391 . S
C2787 H2775 0.950 . S
C2787 C2783 1.393 . S
C2787 C2786 1.391 . S
H2788 C2796 0.950 . S
H2789 C2801 0.950 . S
H2790 C2798 0.950 . S
H2791 C2800 0.950 . S
H2792 C2802 0.950 . S
H2793 C2804 0.950 . S
H2794 C2806 0.950 . S
H2795 C2807 0.950 . S
C2796 H2788 0.950 . S
C2796 C2797 1.386 . S
C2796 C2798 1.391 . S
C2797 C2796 1.386 . S
C2797 C2801 1.393 . S
C2798 H2790 0.950 . S
C2798 C2796 1.391 . S
C2798 C2799 1.400 . S
C2799 C2798 1.400 . S
C2799 C2800 1.398 . S
C2799 C2805 1.491 . S
C2800 H2791 0.950 . S
C2800 C2799 1.398 . S
C2800 C2801 1.391 . S
C2801 H2789 0.950 . S
C2801 C2797 1.393 . S
C2801 C2800 1.391 . S
C2802 H2792 0.950 . S
C2802 C2803 1.386 . S
C2802 C2804 1.391 . S
C2803 C2802 1.386 . S
C2803 C2807 1.393 . S
C2804 H2793 0.950 . S
C2804 C2802 1.391 . S
C2804 C2805 1.400 . S
C2805 C2799 1.491 . S
C2805 C2804 1.400 . S
C2805 C2806 1.398 . S
C2806 H2794 0.950 . S
C2806 C2805 1.398 . S
C2806 C2807 1.391 . S
C2807 H2795 0.950 . S
C2807 C2803 1.393 . S
C2807 C2806 1.391 . S
H2808 C2816 0.950 . S
H2809 C2821 0.950 . S
H2810 C2818 0.950 . S
H2811 C2820 0.950 . S
H2812 C2822 0.950 . S
H2813 C2824 0.950 . S
H2814 C2826 0.950 . S
H2815 C2827 0.950 . S
C2816 H2808 0.950 . S
C2816 C2817 1.386 . S
C2816 C2818 1.391 . S
C2817 C2816 1.386 . S
C2817 C2821 1.393 . S
C2818 H2810 0.950 . S
C2818 C2816 1.391 . S
C2818 C2819 1.400 . S
C2819 C2818 1.400 . S
C2819 C2820 1.398 . S
C2819 C2825 1.491 . S
C2820 H2811 0.950 . S
C2820 C2819 1.398 . S
C2820 C2821 1.391 . S
C2821 H2809 0.950 . S
C2821 C2817 1.393 . S
C2821 C2820 1.391 . S
C2822 H2812 0.950 . S
C2822 C2823 1.386 . S
C2822 C2824 1.391 . S
C2823 C2822 1.386 . S
C2823 C2827 1.393 . S
C2824 H2813 0.950 . S
C2824 C2822 1.391 . S
C2824 C2825 1.400 . S
C2825 C2819 1.491 . S
C2825 C2824 1.400 . S
C2825 C2826 1.398 . S
C2826 H2814 0.950 . S
C2826 C2825 1.398 . S
C2826 C2827 1.391 . S
C2827 H2815 0.950 . S
C2827 C2823 1.393 . S
C2827 C2826 1.391 . S
H2828 C2836 0.950 . S
H2829 C2841 0.950 . S
H2830 C2838 0.950 . S
H2831 C2840 0.950 . S
H2832 C2842 0.950 . S
H2833 C2844 0.950 . S
H2834 C2846 0.950 . S
H2835 C2847 0.950 . S
C2836 H2828 0.950 . S
C2836 C2837 1.386 . S
C2836 C2838 1.391 . S
C2837 C2836 1.386 . S
C2837 C2841 1.393 . S
C2838 H2830 0.950 . S
C2838 C2836 1.391 . S
C2838 C2839 1.400 . S
C2839 C2838 1.400 . S
C2839 C2840 1.398 . S
C2839 C2845 1.491 . S
C2840 H2831 0.950 . S
C2840 C2839 1.398 . S
C2840 C2841 1.391 . S
C2841 H2829 0.950 . S
C2841 C2837 1.393 . S
C2841 C2840 1.391 . S
C2842 H2832 0.950 . S
C2842 C2843 1.386 . S
C2842 C2844 1.391 . S
C2843 C2842 1.386 . S
C2843 C2847 1.393 . S
C2844 H2833 0.950 . S
C2844 C2842 1.391 . S
C2844 C2845 1.400 . S
C2845 C2839 1.491 . S
C2845 C2844 1.400 . S
C2845 C2846 1.398 . S
C2846 H2834 0.950 . S
C2846 C2845 1.398 . S
C2846 C2847 1.391 . S
C2847 H2835 0.950 . S
C2847 C2843 1.393 . S
C2847 C2846 1.391 . S
H2848 C2856 0.950 . S
H2849 C2861 0.950 . S
H2850 C2858 0.950 . S
H2851 C2860 0.950 . S
H2852 C2862 0.950 . S
H2853 C2864 0.950 . S
H2854 C2866 0.950 . S
H2855 C2867 0.950 . S
C2856 H2848 0.950 . S
C2856 C2857 1.386 . S
C2856 C2858 1.391 . S
C2857 C2856 1.386 . S
C2857 C2861 1.393 . S
C2858 H2850 0.950 . S
C2858 C2856 1.391 . S
C2858 C2859 1.400 . S
C2859 C2858 1.400 . S
C2859 C2860 1.398 . S
C2859 C2865 1.491 . S
C2860 H2851 0.950 . S
C2860 C2859 1.398 . S
C2860 C2861 1.391 . S
C2861 H2849 0.950 . S
C2861 C2857 1.393 . S
C2861 C2860 1.391 . S
C2862 H2852 0.950 . S
C2862 C2863 1.386 . S
C2862 C2864 1.391 . S
C2863 C2862 1.386 . S
C2863 C2867 1.393 . S
C2864 H2853 0.950 . S
C2864 C2862 1.391 . S
C2864 C2865 1.400 . S
C2865 C2859 1.491 . S
C2865 C2864 1.400 . S
C2865 C2866 1.398 . S
C2866 H2854 0.950 . S
C2866 C2865 1.398 . S
C2866 C2867 1.391 . S
C2867 H2855 0.950 . S
C2867 C2863 1.393 . S
C2867 C2866 1.391 . S
H2868 C2876 0.950 . S
H2869 C2881 0.950 . S
H2870 C2878 0.950 . S
H2871 C2880 0.950 . S
H2872 C2882 0.950 . S
H2873 C2884 0.950 . S
H2874 C2886 0.950 . S
H2875 C2887 0.950 . S
C2876 H2868 0.950 . S
C2876 C2877 1.386 . S
C2876 C2878 1.391 . S
C2877 C2876 1.386 . S
C2877 C2881 1.393 . S
C2878 H2870 0.950 . S
C2878 C2876 1.391 . S
C2878 C2879 1.400 . S
C2879 C2878 1.400 . S
C2879 C2880 1.398 . S
C2879 C2885 1.491 . S
C2880 H2871 0.950 . S
C2880 C2879 1.398 . S
C2880 C2881 1.391 . S
C2881 H2869 0.950 . S
C2881 C2877 1.393 . S
C2881 C2880 1.391 . S
C2882 H2872 0.950 . S
C2882 C2883 1.386 . S
C2882 C2884 1.391 . S
C2883 C2882 1.386 . S
C2883 C2887 1.393 . S
C2884 H2873 0.950 . S
C2884 C2882 1.391 . S
C2884 C2885 1.400 . S
C2885 C2879 1.491 . S
C2885 C2884 1.400 . S
C2885 C2886 1.398 . S
C2886 H2874 0.950 . S
C2886 C2885 1.398 . S
C2886 C2887 1.391 . S
C2887 H2875 0.950 . S
C2887 C2883 1.393 . S
C2887 C2886 1.391 . S
H2888 C2896 0.950 . S
H2889 C2901 0.950 . S
H2890 C2898 0.950 . S
H2891 C2900 0.950 . S
H2892 C2902 0.950 . S
H2893 C2904 0.950 . S
H2894 C2906 0.950 . S
H2895 C2907 0.950 . S
C2896 H2888 0.950 . S
C2896 C2897 1.386 . S
C2896 C2898 1.391 . S
C2897 C2896 1.386 . S
C2897 C2901 1.393 . S
C2898 H2890 0.950 . S
C2898 C2896 1.391 . S
C2898 C2899 1.400 . S
C2899 C2898 1.400 . S
C2899 C2900 1.398 . S
C2899 C2905 1.491 . S
C2900 H2891 0.950 . S
C2900 C2899 1.398 . S
C2900 C2901 1.391 . S
C2901 H2889 0.950 . S
C2901 C2897 1.393 . S
C2901 C2900 1.391 . S
C2902 H2892 0.950 . S
C2902 C2903 1.386 . S
C2902 C2904 1.391 . S
C2903 C2902 1.386 . S
C2903 C2907 1.393 . S
C2904 H2893 0.950 . S
C2904 C2902 1.391 . S
C2904 C2905 1.400 . S
C2905 C2899 1.491 . S
C2905 C2904 1.400 . S
C2905 C2906 1.398 . S
C2906 H2894 0.950 . S
C2906 C2905 1.398 . S
C2906 C2907 1.391 . S
C2907 H2895 0.950 . S
C2907 C2903 1.393 . S
C2907 C2906 1.391 . S
H2908 C2916 0.950 . S
H2909 C2921 0.950 . S
H2910 C2918 0.950 . S
H2911 C2920 0.950 . S
H2912 C2922 0.950 . S
H2913 C2924 0.950 . S
H2914 C2926 0.950 . S
H2915 C2927 0.950 . S
C2916 H2908 0.950 . S
C2916 C2917 1.386 . S
C2916 C2918 1.391 . S
C2917 C2916 1.386 . S
C2917 C2921 1.393 . S
C2918 H2910 0.950 . S
C2918 C2916 1.391 . S
C2918 C2919 1.400 . S
C2919 C2918 1.400 . S
C2919 C2920 1.398 . S
C2919 C2925 1.491 . S
C2920 H2911 0.950 . S
C2920 C2919 1.398 . S
C2920 C2921 1.391 . S
C2921 H2909 0.950 . S
C2921 C2917 1.393 . S
C2921 C2920 1.391 . S
C2922 H2912 0.950 . S
C2922 C2923 1.386 . S
C2922 C2924 1.391 . S
C2923 C2922 1.386 . S
C2923 C2927 1.393 . S
C2924 H2913 0.950 . S
C2924 C2922 1.391 . S
C2924 C2925 1.400 . S
C2925 C2919 1.491 . S
C2925 C2924 1.400 . S
C2925 C2926 1.398 . S
C2926 H2914 0.950 . S
C2926 C2925 1.398 . S
C2926 C2927 1.391 . S
C2927 H2915 0.950 . S
C2927 C2923 1.393 . S
C2927 C2926 1.391 . S
H2928 C2936 0.950 . S
H2929 C2941 0.950 . S
H2930 C2938 0.950 . S
H2931 C2940 0.950 . S
H2932 C2942 0.950 . S
H2933 C2944 0.950 . S
H2934 C2946 0.950 . S
H2935 C2947 0.950 . S
C2936 H2928 0.950 . S
C2936 C2937 1.386 . S
C2936 C2938 1.391 . S
C2937 C2936 1.386 . S
C2937 C2941 1.393 . S
C2938 H2930 0.950 . S
C2938 C2936 1.391 . S
C2938 C2939 1.400 . S
C2939 C2938 1.400 . S
C2939 C2940 1.398 . S
C2939 C2945 1.491 . S
C2940 H2931 0.950 . S
C2940 C2939 1.398 . S
C2940 C2941 1.391 . S
C2941 H2929 0.950 . S
C2941 C2937 1.393 . S
C2941 C2940 1.391 . S
C2942 H2932 0.950 . S
C2942 C2943 1.386 . S
C2942 C2944 1.391 . S
C2943 C2942 1.386 . S
C2943 C2947 1.393 . S
C2944 H2933 0.950 . S
C2944 C2942 1.391 . S
C2944 C2945 1.400 . S
C2945 C2939 1.491 . S
C2945 C2944 1.400 . S
C2945 C2946 1.398 . S
C2946 H2934 0.950 . S
C2946 C2945 1.398 . S
C2946 C2947 1.391 . S
C2947 H2935 0.950 . S
C2947 C2943 1.393 . S
C2947 C2946 1.391 . S
H2948 C2956 0.950 . S
H2949 C2961 0.950 . S
H2950 C2958 0.950 . S
H2951 C2960 0.950 . S
H2952 C2962 0.950 . S
H2953 C2964 0.950 . S
H2954 C2966 0.950 . S
H2955 C2967 0.950 . S
C2956 H2948 0.950 . S
C2956 C2957 1.386 . S
C2956 C2958 1.391 . S
C2957 C2956 1.386 . S
C2957 C2961 1.393 . S
C2958 H2950 0.950 . S
C2958 C2956 1.391 . S
C2958 C2959 1.400 . S
C2959 C2958 1.400 . S
C2959 C2960 1.398 . S
C2959 C2965 1.491 . S
C2960 H2951 0.950 . S
C2960 C2959 1.398 . S
C2960 C2961 1.391 . S
C2961 H2949 0.950 . S
C2961 C2957 1.393 . S
C2961 C2960 1.391 . S
C2962 H2952 0.950 . S
C2962 C2963 1.386 . S
C2962 C2964 1.391 . S
C2963 C2962 1.386 . S
C2963 C2967 1.393 . S
C2964 H2953 0.950 . S
C2964 C2962 1.391 . S
C2964 C2965 1.400 . S
C2965 C2959 1.491 . S
C2965 C2964 1.400 . S
C2965 C2966 1.398 . S
C2966 H2954 0.950 . S
C2966 C2965 1.398 . S
C2966 C2967 1.391 . S
C2967 H2955 0.950 . S
C2967 C2963 1.393 . S
C2967 C2966 1.391 . S
H2968 C2976 0.950 . S
H2969 C2981 0.950 . S
H2970 C2978 0.950 . S
H2971 C2980 0.950 . S
H2972 C2982 0.950 . S
H2973 C2984 0.950 . S
H2974 C2986 0.950 . S
H2975 C2987 0.950 . S
C2976 H2968 0.950 . S
C2976 C2977 1.386 . S
C2976 C2978 1.391 . S
C2977 C2976 1.386 . S
C2977 C2981 1.393 . S
C2978 H2970 0.950 . S
C2978 C2976 1.391 . S
C2978 C2979 1.400 . S
C2979 C2978 1.400 . S
C2979 C2980 1.398 . S
C2979 C2985 1.491 . S
C2980 H2971 0.950 . S
C2980 C2979 1.398 . S
C2980 C2981 1.391 . S
C2981 H2969 0.950 . S
C2981 C2977 1.393 . S
C2981 C2980 1.391 . S
C2982 H2972 0.950 . S
C2982 C2983 1.386 . S
C2982 C2984 1.391 . S
C2983 C2982 1.386 . S
C2983 C2987 1.393 . S
C2984 H2973 0.950 . S
C2984 C2982 1.391 . S
C2984 C2985 1.400 . S
C2985 C2979 1.491 . S
C2985 C2984 1.400 . S
C2985 C2986 1.398 . S
C2986 H2974 0.950 . S
C2986 C2985 1.398 . S
C2986 C2987 1.391 . S
C2987 H2975 0.950 . S
C2987 C2983 1.393 . S
C2987 C2986 1.391 . S
H2988 C2996 0.950 . S
H2989 C3001 0.950 . S
H2990 C2998 0.950 . S
H2991 C3000 0.950 . S
H2992 C3002 0.950 . S
H2993 C3004 0.950 . S
H2994 C3006 0.950 . S
H2995 C3007 0.950 . S
C2996 H2988 0.950 . S
C2996 C2997 1.386 . S
C2996 C2998 1.391 . S
C2997 C2996 1.386 . S
C2997 C3001 1.393 . S
C2998 H2990 0.950 . S
C2998 C2996 1.391 . S
C2998 C2999 1.400 . S
C2999 C2998 1.400 . S
C2999 C3000 1.398 . S
C2999 C3005 1.491 . S
C3000 H2991 0.950 . S
C3000 C2999 1.398 . S
C3000 C3001 1.391 . S
C3001 H2989 0.950 . S
C3001 C2997 1.393 . S
C3001 C3000 1.391 . S
C3002 H2992 0.950 . S
C3002 C3003 1.386 . S
C3002 C3004 1.391 . S
C3003 C3002 1.386 . S
C3003 C3007 1.393 . S
C3004 H2993 0.950 . S
C3004 C3002 1.391 . S
C3004 C3005 1.400 . S
C3005 C2999 1.491 . S
C3005 C3004 1.400 . S
C3005 C3006 1.398 . S
C3006 H2994 0.950 . S
C3006 C3005 1.398 . S
C3006 C3007 1.391 . S
C3007 H2995 0.950 . S
C3007 C3003 1.393 . S
C3007 C3006 1.391 . S
H3008 C3016 0.950 . S
H3009 C3021 0.950 . S
H3010 C3018 0.950 . S
H3011 C3020 0.950 . S
H3012 C3022 0.950 . S
H3013 C3024 0.950 . S
H3014 C3026 0.950 . S
H3015 C3027 0.950 . S
C3016 H3008 0.950 . S
C3016 C3017 1.386 . S
C3016 C3018 1.391 . S
C3017 C3016 1.386 . S
C3017 C3021 1.393 . S
C3018 H3010 0.950 . S
C3018 C3016 1.391 . S
C3018 C3019 1.400 . S
C3019 C3018 1.400 . S
C3019 C3020 1.398 . S
C3019 C3025 1.491 . S
C3020 H3011 0.950 . S
C3020 C3019 1.398 . S
C3020 C3021 1.391 . S
C3021 H3009 0.950 . S
C3021 C3017 1.393 . S
C3021 C3020 1.391 . S
C3022 H3012 0.950 . S
C3022 C3023 1.386 . S
C3022 C3024 1.391 . S
C3023 C3022 1.386 . S
C3023 C3027 1.393 . S
C3024 H3013 0.950 . S
C3024 C3022 1.391 . S
C3024 C3025 1.400 . S
C3025 C3019 1.491 . S
C3025 C3024 1.400 . S
C3025 C3026 1.398 . S
C3026 H3014 0.950 . S
C3026 C3025 1.398 . S
C3026 C3027 1.391 . S
C3027 H3015 0.950 . S
C3027 C3023 1.393 . S
C3027 C3026 1.391 . S
H3028 C3036 0.950 . S
H3029 C3041 0.950 . S
H3030 C3038 0.950 . S
H3031 C3040 0.950 . S
H3032 C3042 0.950 . S
H3033 C3044 0.950 . S
H3034 C3046 0.950 . S
H3035 C3047 0.950 . S
C3036 H3028 0.950 . S
C3036 C3037 1.386 . S
C3036 C3038 1.391 . S
C3037 C3036 1.386 . S
C3037 C3041 1.393 . S
C3038 H3030 0.950 . S
C3038 C3036 1.391 . S
C3038 C3039 1.400 . S
C3039 C3038 1.400 . S
C3039 C3040 1.398 . S
C3039 C3045 1.491 . S
C3040 H3031 0.950 . S
C3040 C3039 1.398 . S
C3040 C3041 1.391 . S
C3041 H3029 0.950 . S
C3041 C3037 1.393 . S
C3041 C3040 1.391 . S
C3042 H3032 0.950 . S
C3042 C3043 1.386 . S
C3042 C3044 1.391 . S
C3043 C3042 1.386 . S
C3043 C3047 1.393 . S
C3044 H3033 0.950 . S
C3044 C3042 1.391 . S
C3044 C3045 1.400 . S
C3045 C3039 1.491 . S
C3045 C3044 1.400 . S
C3045 C3046 1.398 . S
C3046 H3034 0.950 . S
C3046 C3045 1.398 . S
C3046 C3047 1.391 . S
C3047 H3035 0.950 . S
C3047 C3043 1.393 . S
C3047 C3046 1.391 . S
H3048 C3056 0.950 . S
H3049 C3061 0.950 . S
H3050 C3058 0.950 . S
H3051 C3060 0.950 . S
H3052 C3062 0.950 . S
H3053 C3064 0.950 . S
H3054 C3066 0.950 . S
H3055 C3067 0.950 . S
C3056 H3048 0.950 . S
C3056 C3057 1.386 . S
C3056 C3058 1.391 . S
C3057 C3056 1.386 . S
C3057 C3061 1.393 . S
C3058 H3050 0.950 . S
C3058 C3056 1.391 . S
C3058 C3059 1.400 . S
C3059 C3058 1.400 . S
C3059 C3060 1.398 . S
C3059 C3065 1.491 . S
C3060 H3051 0.950 . S
C3060 C3059 1.398 . S
C3060 C3061 1.391 . S
C3061 H3049 0.950 . S
C3061 C3057 1.393 . S
C3061 C3060 1.391 . S
C3062 H3052 0.950 . S
C3062 C3063 1.386 . S
C3062 C3064 1.391 . S
C3063 C3062 1.386 . S
C3063 C3067 1.393 . S
C3064 H3053 0.950 . S
C3064 C3062 1.391 . S
C3064 C3065 1.400 . S
C3065 C3059 1.491 . S
C3065 C3064 1.400 . S
C3065 C3066 1.398 . S
C3066 H3054 0.950 . S
C3066 C3065 1.398 . S
C3066 C3067 1.391 . S
C3067 H3055 0.950 . S
C3067 C3063 1.393 . S
C3067 C3066 1.391 . S
H3068 C3076 0.950 . S
H3069 C3081 0.950 . S
H3070 C3078 0.950 . S
H3071 C3080 0.950 . S
H3072 C3082 0.950 . S
H3073 C3084 0.950 . S
H3074 C3086 0.950 . S
H3075 C3087 0.950 . S
C3076 H3068 0.950 . S
C3076 C3077 1.386 . S
C3076 C3078 1.391 . S
C3077 C3076 1.386 . S
C3077 C3081 1.393 . S
C3078 H3070 0.950 . S
C3078 C3076 1.391 . S
C3078 C3079 1.400 . S
C3079 C3078 1.400 . S
C3079 C3080 1.398 . S
C3079 C3085 1.491 . S
C3080 H3071 0.950 . S
C3080 C3079 1.398 . S
C3080 C3081 1.391 . S
C3081 H3069 0.950 . S
C3081 C3077 1.393 . S
C3081 C3080 1.391 . S
C3082 H3072 0.950 . S
C3082 C3083 1.386 . S
C3082 C3084 1.391 . S
C3083 C3082 1.386 . S
C3083 C3087 1.393 . S
C3084 H3073 0.950 . S
C3084 C3082 1.391 . S
C3084 C3085 1.400 . S
C3085 C3079 1.491 . S
C3085 C3084 1.400 . S
C3085 C3086 1.398 . S
C3086 H3074 0.950 . S
C3086 C3085 1.398 . S
C3086 C3087 1.391 . S
C3087 H3075 0.950 . S
C3087 C3083 1.393 . S
C3087 C3086 1.391 . S
H3088 C3096 0.950 . S
H3089 C3101 0.950 . S
H3090 C3098 0.950 . S
H3091 C3100 0.950 . S
H3092 C3102 0.950 . S
H3093 C3104 0.950 . S
H3094 C3106 0.950 . S
H3095 C3107 0.950 . S
C3096 H3088 0.950 . S
C3096 C3097 1.386 . S
C3096 C3098 1.391 . S
C3097 C3096 1.386 . S
C3097 C3101 1.393 . S
C3098 H3090 0.950 . S
C3098 C3096 1.391 . S
C3098 C3099 1.400 . S
C3099 C3098 1.400 . S
C3099 C3100 1.398 . S
C3099 C3105 1.491 . S
C3100 H3091 0.950 . S
C3100 C3099 1.398 . S
C3100 C3101 1.391 . S
C3101 H3089 0.950 . S
C3101 C3097 1.393 . S
C3101 C3100 1.391 . S
C3102 H3092 0.950 . S
C3102 C3103 1.386 . S
C3102 C3104 1.391 . S
C3103 C3102 1.386 . S
C3103 C3107 1.393 . S
C3104 H3093 0.950 . S
C3104 C3102 1.391 . S
C3104 C3105 1.400 . S
C3105 C3099 1.491 . S
C3105 C3104 1.400 . S
C3105 C3106 1.398 . S
C3106 H3094 0.950 . S
C3106 C3105 1.398 . S
C3106 C3107 1.391 . S
C3107 H3095 0.950 . S
C3107 C3103 1.393 . S
C3107 C3106 1.391 . S
H3108 C3116 0.950 . S
H3109 C3121 0.950 . S
H3110 C3118 0.950 . S
H3111 C3120 0.950 . S
H3112 C3122 0.950 . S
H3113 C3124 0.950 . S
H3114 C3126 0.950 . S
H3115 C3127 0.950 . S
C3116 H3108 0.950 . S
C3116 C3117 1.386 . S
C3116 C3118 1.391 . S
C3117 C3116 1.386 . S
C3117 C3121 1.393 . S
C3118 H3110 0.950 . S
C3118 C3116 1.391 . S
C3118 C3119 1.400 . S
C3119 C3118 1.400 . S
C3119 C3120 1.398 . S
C3119 C3125 1.491 . S
C3120 H3111 0.950 . S
C3120 C3119 1.398 . S
C3120 C3121 1.391 . S
C3121 H3109 0.950 . S
C3121 C3117 1.393 . S
C3121 C3120 1.391 . S
C3122 H3112 0.950 . S
C3122 C3123 1.386 . S
C3122 C3124 1.391 . S
C3123 C3122 1.386 . S
C3123 C3127 1.393 . S
C3124 H3113 0.950 . S
C3124 C3122 1.391 . S
C3124 C3125 1.400 . S
C3125 C3119 1.491 . S
C3125 C3124 1.400 . S
C3125 C3126 1.398 . S
C3126 H3114 0.950 . S
C3126 C3125 1.398 . S
C3126 C3127 1.391 . S
C3127 H3115 0.950 . S
C3127 C3123 1.393 . S
C3127 C3126 1.391 . S
H3128 C3136 0.950 . S
H3129 C3141 0.950 . S
H3130 C3138 0.950 . S
H3131 C3140 0.950 . S
H3132 C3142 0.950 . S
H3133 C3144 0.950 . S
H3134 C3146 0.950 . S
H3135 C3147 0.950 . S
C3136 H3128 0.950 . S
C3136 C3137 1.386 . S
C3136 C3138 1.391 . S
C3137 C3136 1.386 . S
C3137 C3141 1.393 . S
C3138 H3130 0.950 . S
C3138 C3136 1.391 . S
C3138 C3139 1.400 . S
C3139 C3138 1.400 . S
C3139 C3140 1.398 . S
C3139 C3145 1.491 . S
C3140 H3131 0.950 . S
C3140 C3139 1.398 . S
C3140 C3141 1.391 . S
C3141 H3129 0.950 . S
C3141 C3137 1.393 . S
C3141 C3140 1.391 . S
C3142 H3132 0.950 . S
C3142 C3143 1.386 . S
C3142 C3144 1.391 . S
C3143 C3142 1.386 . S
C3143 C3147 1.393 . S
C3144 H3133 0.950 . S
C3144 C3142 1.391 . S
C3144 C3145 1.400 . S
C3145 C3139 1.491 . S
C3145 C3144 1.400 . S
C3145 C3146 1.398 . S
C3146 H3134 0.950 . S
C3146 C3145 1.398 . S
C3146 C3147 1.391 . S
C3147 H3135 0.950 . S
C3147 C3143 1.393 . S
C3147 C3146 1.391 . S
H3148 C3156 0.950 . S
H3149 C3161 0.950 . S
H3150 C3158 0.950 . S
H3151 C3160 0.950 . S
H3152 C3162 0.950 . S
H3153 C3164 0.950 . S
H3154 C3166 0.950 . S
H3155 C3167 0.950 . S
C3156 H3148 0.950 . S
C3156 C3157 1.386 . S
C3156 C3158 1.391 . S
C3157 C3156 1.386 . S
C3157 C3161 1.393 . S
C3158 H3150 0.950 . S
C3158 C3156 1.391 . S
C3158 C3159 1.400 . S
C3159 C3158 1.400 . S
C3159 C3160 1.398 . S
C3159 C3165 1.491 . S
C3160 H3151 0.950 . S
C3160 C3159 1.398 . S
C3160 C3161 1.391 . S
C3161 H3149 0.950 . S
C3161 C3157 1.393 . S
C3161 C3160 1.391 . S
C3162 H3152 0.950 . S
C3162 C3163 1.386 . S
C3162 C3164 1.391 . S
C3163 C3162 1.386 . S
C3163 C3167 1.393 . S
C3164 H3153 0.950 . S
C3164 C3162 1.391 . S
C3164 C3165 1.400 . S
C3165 C3159 1.491 . S
C3165 C3164 1.400 . S
C3165 C3166 1.398 . S
C3166 H3154 0.950 . S
C3166 C3165 1.398 . S
C3166 C3167 1.391 . S
C3167 H3155 0.950 . S
C3167 C3163 1.393 . S
C3167 C3166 1.391 . S
H3168 C3176 0.950 . S
H3169 C3181 0.950 . S
H3170 C3178 0.950 . S
H3171 C3180 0.950 . S
H3172 C3182 0.950 . S
H3173 C3184 0.950 . S
H3174 C3186 0.950 . S
H3175 C3187 0.950 . S
C3176 H3168 0.950 . S
C3176 C3177 1.386 . S
C3176 C3178 1.391 . S
C3177 C3176 1.386 . S
C3177 C3181 1.393 . S
C3178 H3170 0.950 . S
C3178 C3176 1.391 . S
C3178 C3179 1.400 . S
C3179 C3178 1.400 . S
C3179 C3180 1.398 . S
C3179 C3185 1.491 . S
C3180 H3171 0.950 . S
C3180 C3179 1.398 . S
C3180 C3181 1.391 . S
C3181 H3169 0.950 . S
C3181 C3177 1.393 . S
C3181 C3180 1.391 . S
C3182 H3172 0.950 . S
C3182 C3183 1.386 . S
C3182 C3184 1.391 . S
C3183 C3182 1.386 . S
C3183 C3187 1.393 . S
C3184 H3173 0.950 . S
C3184 C3182 1.391 . S
C3184 C3185 1.400 . S
C3185 C3179 1.491 . S
C3185 C3184 1.400 . S
C3185 C3186 1.398 . S
C3186 H3174 0.950 . S
C3186 C3185 1.398 . S
C3186 C3187 1.391 . S
C3187 H3175 0.950 . S
C3187 C3183 1.393 . S
C3187 C3186 1.391 . S
H3188 C3196 0.950 . S
H3189 C3201 0.950 . S
H3190 C3198 0.950 . S
H3191 C3200 0.950 . S
H3192 C3202 0.950 . S
H3193 C3204 0.950 . S
H3194 C3206 0.950 . S
H3195 C3207 0.950 . S
C3196 H3188 0.950 . S
C3196 C3197 1.386 . S
C3196 C3198 1.391 . S
C3197 C3196 1.386 . S
C3197 C3201 1.393 . S
C3198 H3190 0.950 . S
C3198 C3196 1.391 . S
C3198 C3199 1.400 . S
C3199 C3198 1.400 . S
C3199 C3200 1.398 . S
C3199 C3205 1.491 . S
C3200 H3191 0.950 . S
C3200 C3199 1.398 . S
C3200 C3201 1.391 . S
C3201 H3189 0.950 . S
C3201 C3197 1.393 . S
C3201 C3200 1.391 . S
C3202 H3192 0.950 . S
C3202 C3203 1.386 . S
C3202 C3204 1.391 . S
C3203 C3202 1.386 . S
C3203 C3207 1.393 . S
C3204 H3193 0.950 . S
C3204 C3202 1.391 . S
C3204 C3205 1.400 . S
C3205 C3199 1.491 . S
C3205 C3204 1.400 . S
C3205 C3206 1.398 . S
C3206 H3194 0.950 . S
C3206 C3205 1.398 . S
C3206 C3207 1.391 . S
C3207 H3195 0.950 . S
C3207 C3203 1.393 . S
C3207 C3206 1.391 . S
H3208 C3216 0.950 . S
H3209 C3221 0.950 . S
H3210 C3218 0.950 . S
H3211 C3220 0.950 . S
H3212 C3222 0.950 . S
H3213 C3224 0.950 . S
H3214 C3226 0.950 . S
H3215 C3227 0.950 . S
C3216 H3208 0.950 . S
C3216 C3217 1.386 . S
C3216 C3218 1.391 . S
C3217 C3216 1.386 . S
C3217 C3221 1.393 . S
C3218 H3210 0.950 . S
C3218 C3216 1.391 . S
C3218 C3219 1.400 . S
C3219 C3218 1.400 . S
C3219 C3220 1.398 . S
C3219 C3225 1.491 . S
C3220 H3211 0.950 . S
C3220 C3219 1.398 . S
C3220 C3221 1.391 . S
C3221 H3209 0.950 . S
C3221 C3217 1.393 . S
C3221 C3220 1.391 . S
C3222 H3212 0.950 . S
C3222 C3223 1.386 . S
C3222 C3224 1.391 . S
C3223 C3222 1.386 . S
C3223 C3227 1.393 . S
C3224 H3213 0.950 . S
C3224 C3222 1.391 . S
C3224 C3225 1.400 . S
C3225 C3219 1.491 . S
C3225 C3224 1.400 . S
C3225 C3226 1.398 . S
C3226 H3214 0.950 . S
C3226 C3225 1.398 . S
C3226 C3227 1.391 . S
C3227 H3215 0.950 . S
C3227 C3223 1.393 . S
C3227 C3226 1.391 . S
H3228 C3236 0.950 . S
H3229 C3241 0.950 . S
H3230 C3238 0.950 . S
H3231 C3240 0.950 . S
H3232 C3242 0.950 . S
H3233 C3244 0.950 . S
H3234 C3246 0.950 . S
H3235 C3247 0.950 . S
C3236 H3228 0.950 . S
C3236 C3237 1.386 . S
C3236 C3238 1.391 . S
C3237 C3236 1.386 . S
C3237 C3241 1.393 . S
C3238 H3230 0.950 . S
C3238 C3236 1.391 . S
C3238 C3239 1.400 . S
C3239 C3238 1.400 . S
C3239 C3240 1.398 . S
C3239 C3245 1.491 . S
C3240 H3231 0.950 . S
C3240 C3239 1.398 . S
C3240 C3241 1.391 . S
C3241 H3229 0.950 . S
C3241 C3237 1.393 . S
C3241 C3240 1.391 . S
C3242 H3232 0.950 . S
C3242 C3243 1.386 . S
C3242 C3244 1.391 . S
C3243 C3242 1.386 . S
C3243 C3247 1.393 . S
C3244 H3233 0.950 . S
C3244 C3242 1.391 . S
C3244 C3245 1.400 . S
C3245 C3239 1.491 . S
C3245 C3244 1.400 . S
C3245 C3246 1.398 . S
C3246 H3234 0.950 . S
C3246 C3245 1.398 . S
C3246 C3247 1.391 . S
C3247 H3235 0.950 . S
C3247 C3243 1.393 . S
C3247 C3246 1.391 . S
H3248 C3256 0.950 . S
H3249 C3261 0.950 . S
H3250 C3258 0.950 . S
H3251 C3260 0.950 . S
H3252 C3262 0.950 . S
H3253 C3264 0.950 . S
H3254 C3266 0.950 . S
H3255 C3267 0.950 . S
C3256 H3248 0.950 . S
C3256 C3257 1.386 . S
C3256 C3258 1.391 . S
C3257 C3256 1.386 . S
C3257 C3261 1.393 . S
C3258 H3250 0.950 . S
C3258 C3256 1.391 . S
C3258 C3259 1.400 . S
C3259 C3258 1.400 . S
C3259 C3260 1.398 . S
C3259 C3265 1.491 . S
C3260 H3251 0.950 . S
C3260 C3259 1.398 . S
C3260 C3261 1.391 . S
C3261 H3249 0.950 . S
C3261 C3257 1.393 . S
C3261 C3260 1.391 . S
C3262 H3252 0.950 . S
C3262 C3263 1.386 . S
C3262 C3264 1.391 . S
C3263 C3262 1.386 . S
C3263 C3267 1.393 . S
C3264 H3253 0.950 . S
C3264 C3262 1.391 . S
C3264 C3265 1.400 . S
C3265 C3259 1.491 . S
C3265 C3264 1.400 . S
C3265 C3266 1.398 . S
C3266 H3254 0.950 . S
C3266 C3265 1.398 . S
C3266 C3267 1.391 . S
C3267 H3255 0.950 . S
C3267 C3263 1.393 . S
C3267 C3266 1.391 . S
H3268 C3276 0.950 . S
H3269 C3281 0.950 . S
H3270 C3278 0.950 . S
H3271 C3280 0.950 . S
H3272 C3282 0.950 . S
H3273 C3284 0.950 . S
H3274 C3286 0.950 . S
H3275 C3287 0.950 . S
C3276 H3268 0.950 . S
C3276 C3277 1.386 . S
C3276 C3278 1.391 . S
C3277 C3276 1.386 . S
C3277 C3281 1.393 . S
C3278 H3270 0.950 . S
C3278 C3276 1.391 . S
C3278 C3279 1.400 . S
C3279 C3278 1.400 . S
C3279 C3280 1.398 . S
C3279 C3285 1.491 . S
C3280 H3271 0.950 . S
C3280 C3279 1.398 . S
C3280 C3281 1.391 . S
C3281 H3269 0.950 . S
C3281 C3277 1.393 . S
C3281 C3280 1.391 . S
C3282 H3272 0.950 . S
C3282 C3283 1.386 . S
C3282 C3284 1.391 . S
C3283 C3282 1.386 . S
C3283 C3287 1.393 . S
C3284 H3273 0.950 . S
C3284 C3282 1.391 . S
C3284 C3285 1.400 . S
C3285 C3279 1.491 . S
C3285 C3284 1.400 . S
C3285 C3286 1.398 . S
C3286 H3274 0.950 . S
C3286 C3285 1.398 . S
C3286 C3287 1.391 . S
C3287 H3275 0.950 . S
C3287 C3283 1.393 . S
C3287 C3286 1.391 . S
H3288 C3296 0.950 . S
H3289 C3301 0.950 . S
H3290 C3298 0.950 . S
H3291 C3300 0.950 . S
H3292 C3302 0.950 . S
H3293 C3304 0.950 . S
H3294 C3306 0.950 . S
H3295 C3307 0.950 . S
C3296 H3288 0.950 . S
C3296 C3297 1.386 . S
C3296 C3298 1.391 . S
C3297 C3296 1.386 . S
C3297 C3301 1.393 . S
C3298 H3290 0.950 . S
C3298 C3296 1.391 . S
C3298 C3299 1.400 . S
C3299 C3298 1.400 . S
C3299 C3300 1.398 . S
C3299 C3305 1.491 . S
C3300 H3291 0.950 . S
C3300 C3299 1.398 . S
C3300 C3301 1.391 . S
C3301 H3289 0.950 . S
C3301 C3297 1.393 . S
C3301 C3300 1.391 . S
C3302 H3292 0.950 . S
C3302 C3303 1.386 . S
C3302 C3304 1.391 . S
C3303 C3302 1.386 . S
C3303 C3307 1.393 . S
C3304 H3293 0.950 . S
C3304 C3302 1.391 . S
C3304 C3305 1.400 . S
C3305 C3299 1.491 . S
C3305 C3304 1.400 . S
C3305 C3306 1.398 . S
C3306 H3294 0.950 . S
C3306 C3305 1.398 . S
C3306 C3307 1.391 . S
C3307 H3295 0.950 . S
C3307 C3303 1.393 . S
C3307 C3306 1.391 . S
H3308 C3316 0.950 . S
H3309 C3321 0.950 . S
H3310 C3318 0.950 . S
H3311 C3320 0.950 . S
H3312 C3322 0.950 . S
H3313 C3324 0.950 . S
H3314 C3326 0.950 . S
H3315 C3327 0.950 . S
C3316 H3308 0.950 . S
C3316 C3317 1.386 . S
C3316 C3318 1.391 . S
C3317 C3316 1.386 . S
C3317 C3321 1.393 . S
C3318 H3310 0.950 . S
C3318 C3316 1.391 . S
C3318 C3319 1.400 . S
C3319 C3318 1.400 . S
C3319 C3320 1.398 . S
C3319 C3325 1.491 . S
C3320 H3311 0.950 . S
C3320 C3319 1.398 . S
C3320 C3321 1.391 . S
C3321 H3309 0.950 . S
C3321 C3317 1.393 . S
C3321 C3320 1.391 . S
C3322 H3312 0.950 . S
C3322 C3323 1.386 . S
C3322 C3324 1.391 . S
C3323 C3322 1.386 . S
C3323 C3327 1.393 . S
C3324 H3313 0.950 . S
C3324 C3322 1.391 . S
C3324 C3325 1.400 . S
C3325 C3319 1.491 . S
C3325 C3324 1.400 . S
C3325 C3326 1.398 . S
C3326 H3314 0.950 . S
C3326 C3325 1.398 . S
C3326 C3327 1.391 . S
C3327 H3315 0.950 . S
C3327 C3323 1.393 . S
C3327 C3326 1.391 . S
H3328 C3336 0.950 . S
H3329 C3341 0.950 . S
H3330 C3338 0.950 . S
H3331 C3340 0.950 . S
H3332 C3342 0.950 . S
H3333 C3344 0.950 . S
H3334 C3346 0.950 . S
H3335 C3347 0.950 . S
C3336 H3328 0.950 . S
C3336 C3337 1.386 . S
C3336 C3338 1.391 . S
C3337 C3336 1.386 . S
C3337 C3341 1.393 . S
C3338 H3330 0.950 . S
C3338 C3336 1.391 . S
C3338 C3339 1.400 . S
C3339 C3338 1.400 . S
C3339 C3340 1.398 . S
C3339 C3345 1.491 1_455 S
C3340 H3331 0.950 . S
C3340 C3339 1.398 . S
C3340 C3341 1.391 . S
C3341 H3329 0.950 . S
C3341 C3337 1.393 . S
C3341 C3340 1.391 . S
C3342 H3332 0.950 . S
C3342 C3343 1.386 . S
C3342 C3344 1.391 . S
C3343 C3342 1.386 . S
C3343 C3347 1.393 . S
C3344 H3333 0.950 . S
C3344 C3342 1.391 . S
C3344 C3345 1.400 . S
C3345 C3339 1.491 1_655 S
C3345 C3344 1.400 . S
C3345 C3346 1.398 . S
C3346 H3334 0.950 . S
C3346 C3345 1.398 . S
C3346 C3347 1.391 . S
C3347 H3335 0.950 . S
C3347 C3343 1.393 . S
C3347 C3346 1.391 . S
H3348 C3356 0.950 . S
H3349 C3361 0.950 . S
H3350 C3358 0.950 . S
H3351 C3360 0.950 . S
H3352 C3362 0.950 . S
H3353 C3364 0.950 . S
H3354 C3366 0.950 . S
H3355 C3367 0.950 . S
C3356 H3348 0.950 . S
C3356 C3357 1.386 . S
C3356 C3358 1.391 . S
C3357 C3356 1.386 . S
C3357 C3361 1.393 1_655 S
C3358 H3350 0.950 . S
C3358 C3356 1.391 . S
C3358 C3359 1.400 . S
C3359 C3358 1.400 . S
C3359 C3360 1.398 1_655 S
C3359 C3365 1.491 1_655 S
C3360 H3351 0.950 . S
C3360 C3359 1.398 1_455 S
C3360 C3361 1.391 . S
C3361 H3349 0.950 . S
C3361 C3357 1.393 1_455 S
C3361 C3360 1.391 . S
C3362 H3352 0.950 . S
C3362 C3363 1.386 . S
C3362 C3364 1.391 . S
C3363 C3362 1.386 . S
C3363 C3367 1.393 1_455 S
C3364 H3353 0.950 . S
C3364 C3362 1.391 . S
C3364 C3365 1.400 . S
C3365 C3359 1.491 1_455 S
C3365 C3364 1.400 . S
C3365 C3366 1.398 1_455 S
C3366 H3354 0.950 . S
C3366 C3365 1.398 1_655 S
C3366 C3367 1.391 . S
C3367 H3355 0.950 . S
C3367 C3363 1.393 1_655 S
C3367 C3366 1.391 . S
H3368 C3376 0.950 . S
H3369 C3381 0.950 . S
H3370 C3378 0.950 . S
H3371 C3380 0.950 . S
H3372 C3382 0.950 . S
H3373 C3384 0.950 . S
H3374 C3386 0.950 . S
H3375 C3387 0.950 . S
C3376 H3368 0.950 . S
C3376 C3377 1.386 . S
C3376 C3378 1.391 . S
C3377 C3376 1.386 . S
C3377 C3381 1.393 . S
C3378 H3370 0.950 . S
C3378 C3376 1.391 . S
C3378 C3379 1.400 . S
C3379 C3378 1.400 . S
C3379 C3380 1.398 . S
C3379 C3385 1.491 . S
C3380 H3371 0.950 . S
C3380 C3379 1.398 . S
C3380 C3381 1.391 . S
C3381 H3369 0.950 . S
C3381 C3377 1.393 . S
C3381 C3380 1.391 . S
C3382 H3372 0.950 . S
C3382 C3383 1.386 . S
C3382 C3384 1.391 . S
C3383 C3382 1.386 . S
C3383 C3387 1.393 . S
C3384 H3373 0.950 . S
C3384 C3382 1.391 . S
C3384 C3385 1.400 . S
C3385 C3379 1.491 . S
C3385 C3384 1.400 . S
C3385 C3386 1.398 . S
C3386 H3374 0.950 . S
C3386 C3385 1.398 . S
C3386 C3387 1.391 . S
C3387 H3375 0.950 . S
C3387 C3383 1.393 . S
C3387 C3386 1.391 . S
H3388 C3396 0.950 . S
H3389 C3401 0.950 . S
H3390 C3398 0.950 . S
H3391 C3400 0.950 . S
H3392 C3402 0.950 . S
H3393 C3404 0.950 . S
H3394 C3406 0.950 . S
H3395 C3407 0.950 . S
C3396 H3388 0.950 . S
C3396 C3397 1.386 . S
C3396 C3398 1.391 . S
C3397 C3396 1.386 . S
C3397 C3401 1.393 . S
C3398 H3390 0.950 . S
C3398 C3396 1.391 . S
C3398 C3399 1.400 . S
C3399 C3398 1.400 . S
C3399 C3400 1.398 . S
C3399 C3405 1.491 . S
C3400 H3391 0.950 . S
C3400 C3399 1.398 . S
C3400 C3401 1.391 . S
C3401 H3389 0.950 . S
C3401 C3397 1.393 . S
C3401 C3400 1.391 . S
C3402 H3392 0.950 . S
C3402 C3403 1.386 . S
C3402 C3404 1.391 . S
C3403 C3402 1.386 . S
C3403 C3407 1.393 . S
C3404 H3393 0.950 . S
C3404 C3402 1.391 . S
C3404 C3405 1.400 . S
C3405 C3399 1.491 . S
C3405 C3404 1.400 . S
C3405 C3406 1.398 . S
C3406 H3394 0.950 . S
C3406 C3405 1.398 . S
C3406 C3407 1.391 . S
C3407 H3395 0.950 . S
C3407 C3403 1.393 . S
C3407 C3406 1.391 . S
H3408 C3416 0.950 . S
H3409 C3421 0.950 . S
H3410 C3418 0.950 . S
H3411 C3420 0.950 . S
H3412 C3422 0.950 . S
H3413 C3424 0.950 . S
H3414 C3426 0.950 . S
H3415 C3427 0.950 . S
C3416 H3408 0.950 . S
C3416 C3417 1.386 . S
C3416 C3418 1.391 . S
C3417 C3416 1.386 . S
C3417 C3421 1.393 . S
C3418 H3410 0.950 . S
C3418 C3416 1.391 . S
C3418 C3419 1.400 . S
C3419 C3418 1.400 . S
C3419 C3420 1.398 . S
C3419 C3425 1.491 1_655 S
C3420 H3411 0.950 . S
C3420 C3419 1.398 . S
C3420 C3421 1.391 . S
C3421 H3409 0.950 . S
C3421 C3417 1.393 . S
C3421 C3420 1.391 . S
C3422 H3412 0.950 . S
C3422 C3423 1.386 . S
C3422 C3424 1.391 . S
C3423 C3422 1.386 . S
C3423 C3427 1.393 . S
C3424 H3413 0.950 . S
C3424 C3422 1.391 . S
C3424 C3425 1.400 . S
C3425 C3419 1.491 1_455 S
C3425 C3424 1.400 . S
C3425 C3426 1.398 . S
C3426 H3414 0.950 . S
C3426 C3425 1.398 . S
C3426 C3427 1.391 . S
C3427 H3415 0.950 . S
C3427 C3423 1.393 . S
C3427 C3426 1.391 . S
H3428 C3436 0.950 . S
H3429 C3441 0.950 . S
H3430 C3438 0.950 . S
H3431 C3440 0.950 . S
H3432 C3442 0.950 . S
H3433 C3444 0.950 . S
H3434 C3446 0.950 . S
H3435 C3447 0.950 . S
C3436 H3428 0.950 . S
C3436 C3437 1.386 . S
C3436 C3438 1.391 . S
C3437 C3436 1.386 . S
C3437 C3441 1.393 . S
C3438 H3430 0.950 . S
C3438 C3436 1.391 . S
C3438 C3439 1.400 . S
C3439 C3438 1.400 . S
C3439 C3440 1.398 . S
C3439 C3445 1.491 . S
C3440 H3431 0.950 . S
C3440 C3439 1.398 . S
C3440 C3441 1.391 . S
C3441 H3429 0.950 . S
C3441 C3437 1.393 . S
C3441 C3440 1.391 . S
C3442 H3432 0.950 . S
C3442 C3443 1.386 . S
C3442 C3444 1.391 . S
C3443 C3442 1.386 . S
C3443 C3447 1.393 . S
C3444 H3433 0.950 . S
C3444 C3442 1.391 . S
C3444 C3445 1.400 . S
C3445 C3439 1.491 . S
C3445 C3444 1.400 . S
C3445 C3446 1.398 . S
C3446 H3434 0.950 . S
C3446 C3445 1.398 . S
C3446 C3447 1.391 . S
C3447 H3435 0.950 . S
C3447 C3443 1.393 . S
C3447 C3446 1.391 . S
H3448 C3456 0.950 . S
H3449 C3461 0.950 . S
H3450 C3458 0.950 . S
H3451 C3460 0.950 . S
H3452 C3462 0.950 . S
H3453 C3464 0.950 . S
H3454 C3466 0.950 . S
H3455 C3467 0.950 . S
C3456 H3448 0.950 . S
C3456 C3457 1.386 . S
C3456 C3458 1.391 . S
C3457 C3456 1.386 . S
C3457 C3461 1.393 . S
C3458 H3450 0.950 . S
C3458 C3456 1.391 . S
C3458 C3459 1.400 . S
C3459 C3458 1.400 . S
C3459 C3460 1.398 . S
C3459 C3465 1.491 . S
C3460 H3451 0.950 . S
C3460 C3459 1.398 . S
C3460 C3461 1.391 . S
C3461 H3449 0.950 . S
C3461 C3457 1.393 . S
C3461 C3460 1.391 . S
C3462 H3452 0.950 . S
C3462 C3463 1.386 . S
C3462 C3464 1.391 . S
C3463 C3462 1.386 . S
C3463 C3467 1.393 . S
C3464 H3453 0.950 . S
C3464 C3462 1.391 . S
C3464 C3465 1.400 . S
C3465 C3459 1.491 . S
C3465 C3464 1.400 . S
C3465 C3466 1.398 . S
C3466 H3454 0.950 . S
C3466 C3465 1.398 . S
C3466 C3467 1.391 . S
C3467 H3455 0.950 . S
C3467 C3463 1.393 . S
C3467 C3466 1.391 . S
H3468 C3476 0.950 . S
H3469 C3481 0.950 . S
H3470 C3478 0.950 . S
H3471 C3480 0.950 . S
H3472 C3482 0.950 . S
H3473 C3484 0.950 . S
H3474 C3486 0.950 . S
H3475 C3487 0.950 . S
C3476 H3468 0.950 . S
C3476 C3477 1.386 . S
C3476 C3478 1.391 . S
C3477 C3476 1.386 . S
C3477 C3481 1.393 1_455 S
C3478 H3470 0.950 . S
C3478 C3476 1.391 . S
C3478 C3479 1.400 . S
C3479 C3478 1.400 . S
C3479 C3480 1.398 1_455 S
C3479 C3485 1.491 1_455 S
C3480 H3471 0.950 . S
C3480 C3479 1.398 1_655 S
C3480 C3481 1.391 . S
C3481 H3469 0.950 . S
C3481 C3477 1.393 1_655 S
C3481 C3480 1.391 . S
C3482 H3472 0.950 . S
C3482 C3483 1.386 . S
C3482 C3484 1.391 . S
C3483 C3482 1.386 . S
C3483 C3487 1.393 1_655 S
C3484 H3473 0.950 . S
C3484 C3482 1.391 . S
C3484 C3485 1.400 . S
C3485 C3479 1.491 1_655 S
C3485 C3484 1.400 . S
C3485 C3486 1.398 1_655 S
C3486 H3474 0.950 . S
C3486 C3485 1.398 1_455 S
C3486 C3487 1.391 . S
C3487 H3475 0.950 . S
C3487 C3483 1.393 1_455 S
C3487 C3486 1.391 . S
H3488 C3496 0.950 . S
H3489 C3501 0.950 . S
H3490 C3498 0.950 . S
H3491 C3500 0.950 . S
H3492 C3502 0.950 . S
H3493 C3504 0.950 . S
H3494 C3506 0.950 . S
H3495 C3507 0.950 . S
C3496 H3488 0.950 . S
C3496 C3497 1.386 . S
C3496 C3498 1.391 . S
C3497 C3496 1.386 . S
C3497 C3501 1.393 . S
C3498 H3490 0.950 . S
C3498 C3496 1.391 . S
C3498 C3499 1.400 . S
C3499 C3498 1.400 . S
C3499 C3500 1.398 . S
C3499 C3505 1.491 1_455 S
C3500 H3491 0.950 . S
C3500 C3499 1.398 . S
C3500 C3501 1.391 . S
C3501 H3489 0.950 . S
C3501 C3497 1.393 . S
C3501 C3500 1.391 . S
C3502 H3492 0.950 . S
C3502 C3503 1.386 . S
C3502 C3504 1.391 . S
C3503 C3502 1.386 . S
C3503 C3507 1.393 . S
C3504 H3493 0.950 . S
C3504 C3502 1.391 . S
C3504 C3505 1.400 . S
C3505 C3499 1.491 1_655 S
C3505 C3504 1.400 . S
C3505 C3506 1.398 . S
C3506 H3494 0.950 . S
C3506 C3505 1.398 . S
C3506 C3507 1.391 . S
C3507 H3495 0.950 . S
C3507 C3503 1.393 . S
C3507 C3506 1.391 . S
H3508 C3516 0.950 . S
H3509 C3521 0.950 . S
H3510 C3518 0.950 . S
H3511 C3520 0.950 . S
H3512 C3522 0.950 . S
H3513 C3524 0.950 . S
H3514 C3526 0.950 . S
H3515 C3527 0.950 . S
C3516 H3508 0.950 . S
C3516 C3517 1.386 1_455 S
C3516 C3518 1.391 . S
C3517 C3516 1.386 1_655 S
C3517 C3521 1.393 . S
C3518 H3510 0.950 . S
C3518 C3516 1.391 . S
C3518 C3519 1.400 1_455 S
C3519 C3518 1.400 1_655 S
C3519 C3520 1.398 . S
C3519 C3525 1.491 1_655 S
C3520 H3511 0.950 . S
C3520 C3519 1.398 . S
C3520 C3521 1.391 . S
C3521 H3509 0.950 . S
C3521 C3517 1.393 . S
C3521 C3520 1.391 . S
C3522 H3512 0.950 . S
C3522 C3523 1.386 1_655 S
C3522 C3524 1.391 . S
C3523 C3522 1.386 1_455 S
C3523 C3527 1.393 . S
C3524 H3513 0.950 . S
C3524 C3522 1.391 . S
C3524 C3525 1.400 1_655 S
C3525 C3519 1.491 1_455 S
C3525 C3524 1.400 1_455 S
C3525 C3526 1.398 . S
C3526 H3514 0.950 . S
C3526 C3525 1.398 . S
C3526 C3527 1.391 . S
C3527 H3515 0.950 . S
C3527 C3523 1.393 . S
C3527 C3526 1.391 . S
H3528 C3536 0.950 . S
H3529 C3541 0.950 . S
H3530 C3538 0.950 . S
H3531 C3540 0.950 . S
H3532 C3542 0.950 . S
H3533 C3544 0.950 . S
H3534 C3546 0.950 . S
H3535 C3547 0.950 . S
C3536 H3528 0.950 . S
C3536 C3537 1.386 . S
C3536 C3538 1.391 . S
C3537 C3536 1.386 . S
C3537 C3541 1.393 . S
C3538 H3530 0.950 . S
C3538 C3536 1.391 . S
C3538 C3539 1.400 . S
C3539 C3538 1.400 . S
C3539 C3540 1.398 . S
C3539 C3545 1.491 . S
C3540 H3531 0.950 . S
C3540 C3539 1.398 . S
C3540 C3541 1.391 . S
C3541 H3529 0.950 . S
C3541 C3537 1.393 . S
C3541 C3540 1.391 . S
C3542 H3532 0.950 . S
C3542 C3543 1.386 . S
C3542 C3544 1.391 . S
C3543 C3542 1.386 . S
C3543 C3547 1.393 . S
C3544 H3533 0.950 . S
C3544 C3542 1.391 . S
C3544 C3545 1.400 . S
C3545 C3539 1.491 . S
C3545 C3544 1.400 . S
C3545 C3546 1.398 . S
C3546 H3534 0.950 . S
C3546 C3545 1.398 . S
C3546 C3547 1.391 . S
C3547 H3535 0.950 . S
C3547 C3543 1.393 . S
C3547 C3546 1.391 . S
H3548 C3556 0.950 . S
H3549 C3561 0.950 . S
H3550 C3558 0.950 . S
H3551 C3560 0.950 . S
H3552 C3562 0.950 . S
H3553 C3564 0.950 . S
H3554 C3566 0.950 . S
H3555 C3567 0.950 . S
C3556 H3548 0.950 . S
C3556 C3557 1.386 . S
C3556 C3558 1.391 . S
C3557 C3556 1.386 . S
C3557 C3561 1.393 . S
C3558 H3550 0.950 . S
C3558 C3556 1.391 . S
C3558 C3559 1.400 . S
C3559 C3558 1.400 . S
C3559 C3560 1.398 . S
C3559 C3565 1.491 . S
C3560 H3551 0.950 . S
C3560 C3559 1.398 . S
C3560 C3561 1.391 . S
C3561 H3549 0.950 . S
C3561 C3557 1.393 . S
C3561 C3560 1.391 . S
C3562 H3552 0.950 . S
C3562 C3563 1.386 . S
C3562 C3564 1.391 . S
C3563 C3562 1.386 . S
C3563 C3567 1.393 . S
C3564 H3553 0.950 . S
C3564 C3562 1.391 . S
C3564 C3565 1.400 . S
C3565 C3559 1.491 . S
C3565 C3564 1.400 . S
C3565 C3566 1.398 . S
C3566 H3554 0.950 . S
C3566 C3565 1.398 . S
C3566 C3567 1.391 . S
C3567 H3555 0.950 . S
C3567 C3563 1.393 . S
C3567 C3566 1.391 . S
H3568 C3576 0.950 . S
H3569 C3581 0.950 . S
H3570 C3578 0.950 . S
H3571 C3580 0.950 . S
H3572 C3582 0.950 . S
H3573 C3584 0.950 . S
H3574 C3586 0.950 . S
H3575 C3587 0.950 . S
C3576 H3568 0.950 . S
C3576 C3577 1.386 . S
C3576 C3578 1.391 . S
C3577 C3576 1.386 . S
C3577 C3581 1.393 . S
C3578 H3570 0.950 . S
C3578 C3576 1.391 . S
C3578 C3579 1.400 . S
C3579 C3578 1.400 . S
C3579 C3580 1.398 . S
C3579 C3585 1.491 1_455 S
C3580 H3571 0.950 . S
C3580 C3579 1.398 . S
C3580 C3581 1.391 . S
C3581 H3569 0.950 . S
C3581 C3577 1.393 . S
C3581 C3580 1.391 . S
C3582 H3572 0.950 . S
C3582 C3583 1.386 . S
C3582 C3584 1.391 . S
C3583 C3582 1.386 . S
C3583 C3587 1.393 . S
C3584 H3573 0.950 . S
C3584 C3582 1.391 . S
C3584 C3585 1.400 . S
C3585 C3579 1.491 1_655 S
C3585 C3584 1.400 . S
C3585 C3586 1.398 . S
C3586 H3574 0.950 . S
C3586 C3585 1.398 . S
C3586 C3587 1.391 . S
C3587 H3575 0.950 . S
C3587 C3583 1.393 . S
C3587 C3586 1.391 . S
H3588 C3596 0.950 . S
H3589 C3601 0.950 . S
H3590 C3598 0.950 . S
H3591 C3600 0.950 . S
H3592 C3602 0.950 . S
H3593 C3604 0.950 . S
H3594 C3606 0.950 . S
H3595 C3607 0.950 . S
C3596 H3588 0.950 . S
C3596 C3597 1.386 . S
C3596 C3598 1.391 . S
C3597 C3596 1.386 . S
C3597 C3601 1.393 . S
C3598 H3590 0.950 . S
C3598 C3596 1.391 . S
C3598 C3599 1.400 . S
C3599 C3598 1.400 . S
C3599 C3600 1.398 . S
C3599 C3605 1.491 . S
C3600 H3591 0.950 . S
C3600 C3599 1.398 . S
C3600 C3601 1.391 . S
C3601 H3589 0.950 . S
C3601 C3597 1.393 . S
C3601 C3600 1.391 . S
C3602 H3592 0.950 . S
C3602 C3603 1.386 . S
C3602 C3604 1.391 . S
C3603 C3602 1.386 . S
C3603 C3607 1.393 . S
C3604 H3593 0.950 . S
C3604 C3602 1.391 . S
C3604 C3605 1.400 . S
C3605 C3599 1.491 . S
C3605 C3604 1.400 . S
C3605 C3606 1.398 . S
C3606 H3594 0.950 . S
C3606 C3605 1.398 . S
C3606 C3607 1.391 . S
C3607 H3595 0.950 . S
C3607 C3603 1.393 . S
C3607 C3606 1.391 . S
H3608 C3616 0.950 . S
H3609 C3621 0.950 . S
H3610 C3618 0.950 . S
H3611 C3620 0.950 . S
H3612 C3622 0.950 . S
H3613 C3624 0.950 . S
H3614 C3626 0.950 . S
H3615 C3627 0.950 . S
C3616 H3608 0.950 . S
C3616 C3617 1.386 . S
C3616 C3618 1.391 . S
C3617 C3616 1.386 . S
C3617 C3621 1.393 . S
C3618 H3610 0.950 . S
C3618 C3616 1.391 . S
C3618 C3619 1.400 . S
C3619 C3618 1.400 . S
C3619 C3620 1.398 . S
C3619 C3625 1.491 . S
C3620 H3611 0.950 . S
C3620 C3619 1.398 . S
C3620 C3621 1.391 . S
C3621 H3609 0.950 . S
C3621 C3617 1.393 . S
C3621 C3620 1.391 . S
C3622 H3612 0.950 . S
C3622 C3623 1.386 . S
C3622 C3624 1.391 . S
C3623 C3622 1.386 . S
C3623 C3627 1.393 . S
C3624 H3613 0.950 . S
C3624 C3622 1.391 . S
C3624 C3625 1.400 . S
C3625 C3619 1.491 . S
C3625 C3624 1.400 . S
C3625 C3626 1.398 . S
C3626 H3614 0.950 . S
C3626 C3625 1.398 . S
C3626 C3627 1.391 . S
C3627 H3615 0.950 . S
C3627 C3623 1.393 . S
C3627 C3626 1.391 . S
H3628 C3636 0.950 . S
H3629 C3641 0.950 . S
H3630 C3638 0.950 . S
H3631 C3640 0.950 . S
H3632 C3642 0.950 . S
H3633 C3644 0.950 . S
H3634 C3646 0.950 . S
H3635 C3647 0.950 . S
C3636 H3628 0.950 . S
C3636 C3637 1.386 1_455 S
C3636 C3638 1.391 . S
C3637 C3636 1.386 1_655 S
C3637 C3641 1.393 . S
C3638 H3630 0.950 . S
C3638 C3636 1.391 . S
C3638 C3639 1.400 1_455 S
C3639 C3638 1.400 1_655 S
C3639 C3640 1.398 . S
C3639 C3645 1.491 1_655 S
C3640 H3631 0.950 . S
C3640 C3639 1.398 . S
C3640 C3641 1.391 . S
C3641 H3629 0.950 . S
C3641 C3637 1.393 . S
C3641 C3640 1.391 . S
C3642 H3632 0.950 . S
C3642 C3643 1.386 1_655 S
C3642 C3644 1.391 . S
C3643 C3642 1.386 1_455 S
C3643 C3647 1.393 . S
C3644 H3633 0.950 . S
C3644 C3642 1.391 . S
C3644 C3645 1.400 1_655 S
C3645 C3639 1.491 1_455 S
C3645 C3644 1.400 1_455 S
C3645 C3646 1.398 . S
C3646 H3634 0.950 . S
C3646 C3645 1.398 . S
C3646 C3647 1.391 . S
C3647 H3635 0.950 . S
C3647 C3643 1.393 . S
C3647 C3646 1.391 . S
H3648 C3656 0.950 . S
H3649 C3661 0.950 . S
H3650 C3658 0.950 . S
H3651 C3660 0.950 . S
H3652 C3662 0.950 . S
H3653 C3664 0.950 . S
H3654 C3666 0.950 . S
H3655 C3667 0.950 . S
C3656 H3648 0.950 . S
C3656 C3657 1.386 . S
C3656 C3658 1.391 . S
C3657 C3656 1.386 . S
C3657 C3661 1.393 . S
C3658 H3650 0.950 . S
C3658 C3656 1.391 . S
C3658 C3659 1.400 . S
C3659 C3658 1.400 . S
C3659 C3660 1.398 . S
C3659 C3665 1.491 . S
C3660 H3651 0.950 . S
C3660 C3659 1.398 . S
C3660 C3661 1.391 . S
C3661 H3649 0.950 . S
C3661 C3657 1.393 . S
C3661 C3660 1.391 . S
C3662 H3652 0.950 . S
C3662 C3663 1.386 . S
C3662 C3664 1.391 . S
C3663 C3662 1.386 . S
C3663 C3667 1.393 . S
C3664 H3653 0.950 . S
C3664 C3662 1.391 . S
C3664 C3665 1.400 . S
C3665 C3659 1.491 . S
C3665 C3664 1.400 . S
C3665 C3666 1.398 . S
C3666 H3654 0.950 . S
C3666 C3665 1.398 . S
C3666 C3667 1.391 . S
C3667 H3655 0.950 . S
C3667 C3663 1.393 . S
C3667 C3666 1.391 . S
H3668 C3676 0.950 . S
H3669 C3681 0.954 . S
H3670 C3678 0.950 . S
H3671 C3680 0.950 . S
H3672 C3682 0.950 . S
H3673 C3684 0.950 . S
H3674 C3686 0.950 . S
H3675 C3687 0.954 . S
C3676 H3668 0.950 . S
C3676 C3677 1.386 . S
C3676 C3678 1.391 . S
C3677 C3676 1.386 . S
C3677 C3681 1.385 1_645 S
C3678 H3670 0.950 . S
C3678 C3676 1.391 . S
C3678 C3679 1.400 . S
C3679 C3678 1.400 . S
C3679 C3680 1.398 1_645 S
C3679 C3685 1.491 1_645 S
C3680 H3671 0.950 . S
C3680 C3679 1.398 1_465 S
C3680 C3681 1.394 . S
C3681 H3669 0.954 . S
C3681 C3677 1.385 1_465 S
C3681 C3680 1.394 . S
C3682 H3672 0.950 . S
C3682 C3683 1.386 . S
C3682 C3684 1.391 . S
C3683 C3682 1.386 . S
C3683 C3687 1.385 1_465 S
C3684 H3673 0.950 . S
C3684 C3682 1.391 . S
C3684 C3685 1.400 . S
C3685 C3679 1.491 1_465 S
C3685 C3684 1.400 . S
C3685 C3686 1.398 1_465 S
C3686 H3674 0.950 . S
C3686 C3685 1.398 1_645 S
C3686 C3687 1.394 . S
C3687 H3675 0.954 . S
C3687 C3683 1.385 1_645 S
C3687 C3686 1.394 . S
H3688 C3696 0.950 . S
H3689 C3701 0.950 . S
H3690 C3698 0.950 . S
H3691 C3700 0.950 . S
H3692 C3702 0.950 . S
H3693 C3704 0.950 . S
H3694 C3706 0.950 . S
H3695 C3707 0.950 . S
C3696 H3688 0.950 . S
C3696 C3697 1.386 . S
C3696 C3698 1.391 . S
C3697 C3696 1.386 . S
C3697 C3701 1.393 . S
C3698 H3690 0.950 . S
C3698 C3696 1.391 . S
C3698 C3699 1.400 . S
C3699 C3698 1.400 . S
C3699 C3700 1.398 . S
C3699 C3705 1.491 . S
C3700 H3691 0.950 . S
C3700 C3699 1.398 . S
C3700 C3701 1.391 . S
C3701 H3689 0.950 . S
C3701 C3697 1.393 . S
C3701 C3700 1.391 . S
C3702 H3692 0.950 . S
C3702 C3703 1.386 . S
C3702 C3704 1.391 . S
C3703 C3702 1.386 . S
C3703 C3707 1.393 . S
C3704 H3693 0.950 . S
C3704 C3702 1.391 . S
C3704 C3705 1.400 . S
C3705 C3699 1.491 . S
C3705 C3704 1.400 . S
C3705 C3706 1.398 . S
C3706 H3694 0.950 . S
C3706 C3705 1.398 . S
C3706 C3707 1.391 . S
C3707 H3695 0.950 . S
C3707 C3703 1.393 . S
C3707 C3706 1.391 . S
H3708 C3716 0.950 . S
H3709 C3721 0.950 . S
H3710 C3718 0.950 . S
H3711 C3720 0.950 . S
H3712 C3722 0.950 . S
H3713 C3724 0.950 . S
H3714 C3726 0.950 . S
H3715 C3727 0.950 . S
C3716 H3708 0.950 . S
C3716 C3717 1.386 . S
C3716 C3718 1.391 . S
C3717 C3716 1.386 . S
C3717 C3721 1.393 1_545 S
C3718 H3710 0.950 . S
C3718 C3716 1.391 . S
C3718 C3719 1.400 . S
C3719 C3718 1.400 . S
C3719 C3720 1.398 1_545 S
C3719 C3725 1.491 1_544 S
C3720 H3711 0.950 . S
C3720 C3719 1.398 1_565 S
C3720 C3721 1.391 . S
C3721 H3709 0.950 . S
C3721 C3717 1.393 1_565 S
C3721 C3720 1.391 . S
C3722 H3712 0.950 . S
C3722 C3723 1.386 . S
C3722 C3724 1.391 . S
C3723 C3722 1.386 . S
C3723 C3727 1.393 1_565 S
C3724 H3713 0.950 . S
C3724 C3722 1.391 . S
C3724 C3725 1.400 . S
C3725 C3719 1.491 1_566 S
C3725 C3724 1.400 . S
C3725 C3726 1.398 1_565 S
C3726 H3714 0.950 . S
C3726 C3725 1.398 1_545 S
C3726 C3727 1.391 . S
C3727 H3715 0.950 . S
C3727 C3723 1.393 1_545 S
C3727 C3726 1.391 . S
H3728 C3736 0.950 . S
H3729 C3741 0.950 . S
H3730 C3738 0.950 . S
H3731 C3740 0.950 . S
H3732 C3742 0.950 . S
H3733 C3744 0.950 . S
H3734 C3746 0.950 . S
H3735 C3747 0.950 . S
C3736 H3728 0.950 . S
C3736 C3737 1.386 . S
C3736 C3738 1.391 . S
C3737 C3736 1.386 . S
C3737 C3741 1.393 . S
C3738 H3730 0.950 . S
C3738 C3736 1.391 . S
C3738 C3739 1.400 . S
C3739 C3738 1.400 . S
C3739 C3740 1.398 . S
C3739 C3745 1.491 . S
C3740 H3731 0.950 . S
C3740 C3739 1.398 . S
C3740 C3741 1.391 . S
C3741 H3729 0.950 . S
C3741 C3737 1.393 . S
C3741 C3740 1.391 . S
C3742 H3732 0.950 . S
C3742 C3743 1.386 . S
C3742 C3744 1.391 . S
C3743 C3742 1.386 . S
C3743 C3747 1.393 . S
C3744 H3733 0.950 . S
C3744 C3742 1.391 . S
C3744 C3745 1.400 . S
C3745 C3739 1.491 . S
C3745 C3744 1.400 . S
C3745 C3746 1.398 . S
C3746 H3734 0.950 . S
C3746 C3745 1.398 . S
C3746 C3747 1.391 . S
C3747 H3735 0.950 . S
C3747 C3743 1.393 . S
C3747 C3746 1.391 . S
H3748 C3756 0.950 . S
H3749 C3761 0.950 . S
H3750 C3758 0.950 . S
H3751 C3760 0.944 1_565 S
H3752 C3762 0.950 . S
H3753 C3764 0.950 . S
H3754 C3766 0.944 1_545 S
H3755 C3767 0.950 . S
C3756 H3748 0.950 . S
C3756 C3757 1.386 . S
C3756 C3758 1.391 . S
C3757 C3756 1.386 . S
C3757 C3761 1.393 . S
C3758 H3750 0.950 . S
C3758 C3756 1.391 . S
C3758 C3759 1.400 . S
C3759 C3758 1.400 . S
C3759 C3760 1.400 . S
C3759 C3765 1.491 1_545 S
C3760 H3751 0.944 1_545 S
C3760 C3759 1.400 . S
C3760 C3761 1.395 . S
C3761 H3749 0.950 . S
C3761 C3757 1.393 . S
C3761 C3760 1.395 . S
C3762 H3752 0.950 . S
C3762 C3763 1.386 . S
C3762 C3764 1.391 . S
C3763 C3762 1.386 . S
C3763 C3767 1.393 . S
C3764 H3753 0.950 . S
C3764 C3762 1.391 . S
C3764 C3765 1.400 . S
C3765 C3759 1.491 1_565 S
C3765 C3764 1.400 . S
C3765 C3766 1.400 . S
C3766 H3754 0.944 1_565 S
C3766 C3765 1.400 . S
C3766 C3767 1.395 . S
C3767 H3755 0.950 . S
C3767 C3763 1.393 . S
C3767 C3766 1.395 . S
H3768 C3776 0.950 . S
H3769 C3781 0.950 . S
H3770 C3778 0.950 . S
H3771 C3780 0.950 . S
H3772 C3782 0.950 . S
H3773 C3784 0.950 . S
H3774 C3786 0.950 . S
H3775 C3787 0.950 . S
C3776 H3768 0.950 . S
C3776 C3777 1.386 . S
C3776 C3778 1.391 . S
C3777 C3776 1.386 . S
C3777 C3781 1.393 . S
C3778 H3770 0.950 . S
C3778 C3776 1.391 . S
C3778 C3779 1.400 . S
C3779 C3778 1.400 . S
C3779 C3780 1.398 . S
C3779 C3785 1.491 . S
C3780 H3771 0.950 . S
C3780 C3779 1.398 . S
C3780 C3781 1.391 . S
C3781 H3769 0.950 . S
C3781 C3777 1.393 . S
C3781 C3780 1.391 . S
C3782 H3772 0.950 . S
C3782 C3783 1.386 . S
C3782 C3784 1.391 . S
C3783 C3782 1.386 . S
C3783 C3787 1.393 . S
C3784 H3773 0.950 . S
C3784 C3782 1.391 . S
C3784 C3785 1.400 . S
C3785 C3779 1.491 . S
C3785 C3784 1.400 . S
C3785 C3786 1.398 . S
C3786 H3774 0.950 . S
C3786 C3785 1.398 . S
C3786 C3787 1.391 . S
C3787 H3775 0.950 . S
C3787 C3783 1.393 . S
C3787 C3786 1.391 . S
H3788 C3796 0.950 1_565 S
H3789 C3801 0.950 . S
H3790 C3798 0.950 . S
H3791 C3800 0.950 . S
H3792 C3802 0.950 1_545 S
H3793 C3804 0.950 . S
H3794 C3806 0.950 . S
H3795 C3807 0.950 . S
C3796 H3788 0.950 1_545 S
C3796 C3797 1.386 . S
C3796 C3798 1.391 1_545 S
C3797 C3796 1.386 . S
C3797 C3801 1.393 1_455 S
C3798 H3790 0.950 . S
C3798 C3796 1.391 1_565 S
C3798 C3799 1.400 1_565 S
C3799 C3798 1.400 1_545 S
C3799 C3800 1.398 1_455 S
C3799 C3805 1.491 1_446 S
C3800 H3791 0.950 . S
C3800 C3799 1.398 1_655 S
C3800 C3801 1.391 . S
C3801 H3789 0.950 . S
C3801 C3797 1.393 1_655 S
C3801 C3800 1.391 . S
C3802 H3792 0.950 1_565 S
C3802 C3803 1.386 . S
C3802 C3804 1.391 1_565 S
C3803 C3802 1.386 . S
C3803 C3807 1.393 1_655 S
C3804 H3793 0.950 . S
C3804 C3802 1.391 1_545 S
C3804 C3805 1.400 1_545 S
C3805 C3799 1.491 1_664 S
C3805 C3804 1.400 1_565 S
C3805 C3806 1.398 1_655 S
C3806 H3794 0.950 . S
C3806 C3805 1.398 1_455 S
C3806 C3807 1.391 . S
C3807 H3795 0.950 . S
C3807 C3803 1.393 1_455 S
C3807 C3806 1.391 . S
H3808 C3816 0.950 . S
H3809 C3821 0.950 . S
H3810 C3818 0.950 . S
H3811 C3820 0.950 . S
H3812 C3822 0.950 . S
H3813 C3824 0.950 . S
H3814 C3826 0.950 . S
H3815 C3827 0.950 . S
C3816 H3808 0.950 . S
C3816 C3817 1.386 . S
C3816 C3818 1.391 . S
C3817 C3816 1.386 . S
C3817 C3821 1.393 . S
C3818 H3810 0.950 . S
C3818 C3816 1.391 . S
C3818 C3819 1.400 . S
C3819 C3818 1.400 . S
C3819 C3820 1.398 . S
C3819 C3825 1.491 . S
C3820 H3811 0.950 . S
C3820 C3819 1.398 . S
C3820 C3821 1.391 . S
C3821 H3809 0.950 . S
C3821 C3817 1.393 . S
C3821 C3820 1.391 . S
C3822 H3812 0.950 . S
C3822 C3823 1.386 . S
C3822 C3824 1.391 . S
C3823 C3822 1.386 . S
C3823 C3827 1.393 . S
C3824 H3813 0.950 . S
C3824 C3822 1.391 . S
C3824 C3825 1.400 . S
C3825 C3819 1.491 . S
C3825 C3824 1.400 . S
C3825 C3826 1.398 . S
C3826 H3814 0.950 . S
C3826 C3825 1.398 . S
C3826 C3827 1.391 . S
C3827 H3815 0.950 . S
C3827 C3823 1.393 . S
C3827 C3826 1.391 . S
H3828 C3836 0.950 . S
H3829 C3841 0.950 . S
H3830 C3838 0.950 . S
H3831 C3840 0.950 . S
H3832 C3842 0.950 . S
H3833 C3844 0.950 . S
H3834 C3846 0.950 . S
H3835 C3847 0.950 . S
C3836 H3828 0.950 . S
C3836 C3837 1.386 . S
C3836 C3838 1.391 . S
C3837 C3836 1.386 . S
C3837 C3841 1.393 . S
C3838 H3830 0.950 . S
C3838 C3836 1.391 . S
C3838 C3839 1.400 . S
C3839 C3838 1.400 . S
C3839 C3840 1.398 . S
C3839 C3845 1.491 . S
C3840 H3831 0.950 . S
C3840 C3839 1.398 . S
C3840 C3841 1.391 . S
C3841 H3829 0.950 . S
C3841 C3837 1.393 . S
C3841 C3840 1.391 . S
C3842 H3832 0.950 . S
C3842 C3843 1.386 . S
C3842 C3844 1.391 . S
C3843 C3842 1.386 . S
C3843 C3847 1.393 . S
C3844 H3833 0.950 . S
C3844 C3842 1.391 . S
C3844 C3845 1.400 . S
C3845 C3839 1.491 . S
C3845 C3844 1.400 . S
C3845 C3846 1.398 . S
C3846 H3834 0.950 . S
C3846 C3845 1.398 . S
C3846 C3847 1.391 . S
C3847 H3835 0.950 . S
C3847 C3843 1.393 . S
C3847 C3846 1.391 . S
H3848 C3856 0.950 . S
H3849 C3861 0.950 . S
H3850 C3858 0.950 . S
H3851 C3860 0.950 . S
H3852 C3862 0.950 . S
H3853 C3864 0.950 . S
H3854 C3866 0.950 . S
H3855 C3867 0.950 . S
C3856 H3848 0.950 . S
C3856 C3857 1.386 . S
C3856 C3858 1.391 . S
C3857 C3856 1.386 . S
C3857 C3861 1.393 . S
C3858 H3850 0.950 . S
C3858 C3856 1.391 . S
C3858 C3859 1.400 . S
C3859 C3858 1.400 . S
C3859 C3860 1.398 . S
C3859 C3865 1.491 . S
C3860 H3851 0.950 . S
C3860 C3859 1.398 . S
C3860 C3861 1.391 . S
C3861 H3849 0.950 . S
C3861 C3857 1.393 . S
C3861 C3860 1.391 . S
C3862 H3852 0.950 . S
C3862 C3863 1.386 . S
C3862 C3864 1.391 . S
C3863 C3862 1.386 . S
C3863 C3867 1.393 . S
C3864 H3853 0.950 . S
C3864 C3862 1.391 . S
C3864 C3865 1.400 . S
C3865 C3859 1.491 . S
C3865 C3864 1.400 . S
C3865 C3866 1.398 . S
C3866 H3854 0.950 . S
C3866 C3865 1.398 . S
C3866 C3867 1.391 . S
C3867 H3855 0.950 . S
C3867 C3863 1.393 . S
C3867 C3866 1.391 . S
H3868 C3876 0.950 . S
H3869 C3881 0.950 . S
H3870 C3878 0.950 . S
H3871 C3880 0.950 . S
H3872 C3882 0.950 . S
H3873 C3884 0.950 . S
H3874 C3886 0.950 . S
H3875 C3887 0.950 . S
C3876 H3868 0.950 . S
C3876 C3877 1.386 . S
C3876 C3878 1.391 . S
C3877 C3876 1.386 . S
C3877 C3881 1.393 . S
C3878 H3870 0.950 . S
C3878 C3876 1.391 . S
C3878 C3879 1.400 . S
C3879 C3878 1.400 . S
C3879 C3880 1.398 . S
C3879 C3885 1.491 . S
C3880 H3871 0.950 . S
C3880 C3879 1.398 . S
C3880 C3881 1.391 . S
C3881 H3869 0.950 . S
C3881 C3877 1.393 . S
C3881 C3880 1.391 . S
C3882 H3872 0.950 . S
C3882 C3883 1.386 . S
C3882 C3884 1.391 . S
C3883 C3882 1.386 . S
C3883 C3887 1.393 . S
C3884 H3873 0.950 . S
C3884 C3882 1.391 . S
C3884 C3885 1.400 . S
C3885 C3879 1.491 . S
C3885 C3884 1.400 . S
C3885 C3886 1.398 . S
C3886 H3874 0.950 . S
C3886 C3885 1.398 . S
C3886 C3887 1.391 . S
C3887 H3875 0.950 . S
C3887 C3883 1.393 . S
C3887 C3886 1.391 . S
H3888 C3896 0.950 . S
H3889 C3901 0.950 . S
H3890 C3898 0.950 . S
H3891 C3900 0.950 . S
H3892 C3902 0.950 . S
H3893 C3904 0.950 . S
H3894 C3906 0.950 . S
H3895 C3907 0.950 . S
C3896 H3888 0.950 . S
C3896 C3897 1.386 . S
C3896 C3898 1.391 . S
C3897 C3896 1.386 . S
C3897 C3901 1.393 . S
C3898 H3890 0.950 . S
C3898 C3896 1.391 . S
C3898 C3899 1.400 . S
C3899 C3898 1.400 . S
C3899 C3900 1.398 . S
C3899 C3905 1.491 1_554 S
C3900 H3891 0.950 . S
C3900 C3899 1.398 . S
C3900 C3901 1.391 . S
C3901 H3889 0.950 . S
C3901 C3897 1.393 . S
C3901 C3900 1.391 . S
C3902 H3892 0.950 . S
C3902 C3903 1.386 . S
C3902 C3904 1.391 . S
C3903 C3902 1.386 . S
C3903 C3907 1.393 . S
C3904 H3893 0.950 . S
C3904 C3902 1.391 . S
C3904 C3905 1.400 . S
C3905 C3899 1.491 1_556 S
C3905 C3904 1.400 . S
C3905 C3906 1.398 . S
C3906 H3894 0.950 . S
C3906 C3905 1.398 . S
C3906 C3907 1.391 . S
C3907 H3895 0.950 . S
C3907 C3903 1.393 . S
C3907 C3906 1.391 . S
H3908 C3916 0.950 . S
H3909 C3921 0.950 . S
H3910 C3918 0.950 . S
H3911 C3920 0.950 . S
H3912 C3922 0.950 . S
H3913 C3924 0.950 . S
H3914 C3926 0.950 . S
H3915 C3927 0.950 . S
C3916 H3908 0.950 . S
C3916 C3917 1.386 . S
C3916 C3918 1.391 . S
C3917 C3916 1.386 . S
C3917 C3921 1.393 1_655 S
C3918 H3910 0.950 . S
C3918 C3916 1.391 . S
C3918 C3919 1.400 . S
C3919 C3918 1.400 . S
C3919 C3920 1.398 1_655 S
C3919 C3925 1.491 1_655 S
C3920 H3911 0.950 . S
C3920 C3919 1.398 1_455 S
C3920 C3921 1.391 . S
C3921 H3909 0.950 . S
C3921 C3917 1.393 1_455 S
C3921 C3920 1.391 . S
C3922 H3912 0.950 . S
C3922 C3923 1.386 . S
C3922 C3924 1.391 . S
C3923 C3922 1.386 . S
C3923 C3927 1.393 1_455 S
C3924 H3913 0.950 . S
C3924 C3922 1.391 . S
C3924 C3925 1.400 . S
C3925 C3919 1.491 1_455 S
C3925 C3924 1.400 . S
C3925 C3926 1.398 1_455 S
C3926 H3914 0.950 . S
C3926 C3925 1.398 1_655 S
C3926 C3927 1.391 . S
C3927 H3915 0.950 . S
C3927 C3923 1.393 1_655 S
C3927 C3926 1.391 . S
H3928 C3936 0.950 . S
H3929 C3941 0.950 . S
H3930 C3938 0.950 . S
H3931 C3940 0.950 . S
H3932 C3942 0.950 . S
H3933 C3944 0.950 . S
H3934 C3946 0.950 . S
H3935 C3947 0.950 . S
C3936 H3928 0.950 . S
C3936 C3937 1.386 . S
C3936 C3938 1.391 . S
C3937 C3936 1.386 . S
C3937 C3941 1.393 1_455 S
C3938 H3930 0.950 . S
C3938 C3936 1.391 . S
C3938 C3939 1.400 . S
C3939 C3938 1.400 . S
C3939 C3940 1.398 1_455 S
C3939 C3945 1.491 1_454 S
C3940 H3931 0.950 . S
C3940 C3939 1.398 1_655 S
C3940 C3941 1.391 . S
C3941 H3929 0.950 . S
C3941 C3937 1.393 1_655 S
C3941 C3940 1.391 . S
C3942 H3932 0.950 . S
C3942 C3943 1.386 . S
C3942 C3944 1.391 . S
C3943 C3942 1.386 . S
C3943 C3947 1.393 1_655 S
C3944 H3933 0.950 . S
C3944 C3942 1.391 . S
C3944 C3945 1.400 . S
C3945 C3939 1.491 1_656 S
C3945 C3944 1.400 . S
C3945 C3946 1.398 1_655 S
C3946 H3934 0.950 . S
C3946 C3945 1.398 1_455 S
C3946 C3947 1.391 . S
C3947 H3935 0.950 . S
C3947 C3943 1.393 1_455 S
C3947 C3946 1.391 . S
H3948 C3956 0.950 . S
H3949 C3961 0.950 . S
H3950 C3958 0.950 . S
H3951 C3960 0.950 . S
H3952 C3962 0.950 . S
H3953 C3964 0.950 . S
H3954 C3966 0.950 . S
H3955 C3967 0.950 . S
C3956 H3948 0.950 . S
C3956 C3957 1.386 . S
C3956 C3958 1.391 . S
C3957 C3956 1.386 . S
C3957 C3961 1.393 . S
C3958 H3950 0.950 . S
C3958 C3956 1.391 . S
C3958 C3959 1.400 . S
C3959 C3958 1.400 . S
C3959 C3960 1.398 . S
C3959 C3965 1.491 . S
C3960 H3951 0.950 . S
C3960 C3959 1.398 . S
C3960 C3961 1.391 . S
C3961 H3949 0.950 . S
C3961 C3957 1.393 . S
C3961 C3960 1.391 . S
C3962 H3952 0.950 . S
C3962 C3963 1.386 . S
C3962 C3964 1.391 . S
C3963 C3962 1.386 . S
C3963 C3967 1.393 . S
C3964 H3953 0.950 . S
C3964 C3962 1.391 . S
C3964 C3965 1.400 . S
C3965 C3959 1.491 . S
C3965 C3964 1.400 . S
C3965 C3966 1.398 . S
C3966 H3954 0.950 . S
C3966 C3965 1.398 . S
C3966 C3967 1.391 . S
C3967 H3955 0.950 . S
C3967 C3963 1.393 . S
C3967 C3966 1.391 . S
H3968 C3976 0.950 . S
H3969 C3981 0.950 . S
H3970 C3978 0.950 . S
H3971 C3980 0.950 . S
H3972 C3982 0.950 . S
H3973 C3984 0.950 . S
H3974 C3986 0.950 . S
H3975 C3987 0.950 . S
C3976 H3968 0.950 . S
C3976 C3977 1.386 . S
C3976 C3978 1.391 . S
C3977 C3976 1.386 . S
C3977 C3981 1.393 . S
C3978 H3970 0.950 . S
C3978 C3976 1.391 . S
C3978 C3979 1.400 . S
C3979 C3978 1.400 . S
C3979 C3980 1.398 . S
C3979 C3985 1.491 . S
C3980 H3971 0.950 . S
C3980 C3979 1.398 . S
C3980 C3981 1.391 . S
C3981 H3969 0.950 . S
C3981 C3977 1.393 . S
C3981 C3980 1.391 . S
C3982 H3972 0.950 . S
C3982 C3983 1.386 . S
C3982 C3984 1.391 . S
C3983 C3982 1.386 . S
C3983 C3987 1.393 . S
C3984 H3973 0.950 . S
C3984 C3982 1.391 . S
C3984 C3985 1.400 . S
C3985 C3979 1.491 . S
C3985 C3984 1.400 . S
C3985 C3986 1.398 . S
C3986 H3974 0.950 . S
C3986 C3985 1.398 . S
C3986 C3987 1.391 . S
C3987 H3975 0.950 . S
C3987 C3983 1.393 . S
C3987 C3986 1.391 . S
H3988 C3996 0.950 . S
H3989 C4001 0.950 . S
H3990 C3998 0.950 . S
H3991 C4000 0.950 . S
H3992 C4002 0.950 . S
H3993 C4004 0.950 . S
H3994 C4006 0.950 . S
H3995 C4007 0.950 . S
C3996 H3988 0.950 . S
C3996 C3997 1.386 . S
C3996 C3998 1.391 . S
C3997 C3996 1.386 . S
C3997 C4001 1.393 . S
C3998 H3990 0.950 . S
C3998 C3996 1.391 . S
C3998 C3999 1.400 . S
C3999 C3998 1.400 . S
C3999 C4000 1.398 . S
C3999 C4005 1.491 . S
C4000 H3991 0.950 . S
C4000 C3999 1.398 . S
C4000 C4001 1.391 . S
C4001 H3989 0.950 . S
C4001 C3997 1.393 . S
C4001 C4000 1.391 . S
C4002 H3992 0.950 . S
C4002 C4003 1.386 . S
C4002 C4004 1.391 . S
C4003 C4002 1.386 . S
C4003 C4007 1.393 . S
C4004 H3993 0.950 . S
C4004 C4002 1.391 . S
C4004 C4005 1.400 . S
C4005 C3999 1.491 . S
C4005 C4004 1.400 . S
C4005 C4006 1.398 . S
C4006 H3994 0.950 . S
C4006 C4005 1.398 . S
C4006 C4007 1.391 . S
C4007 H3995 0.950 . S
C4007 C4003 1.393 . S
C4007 C4006 1.391 . S
H4008 C4016 0.950 . S
H4009 C4021 0.950 . S
H4010 C4018 0.950 . S
H4011 C4020 0.950 . S
H4012 C4022 0.950 . S
H4013 C4024 0.950 . S
H4014 C4026 0.950 . S
H4015 C4027 0.950 . S
C4016 H4008 0.950 . S
C4016 C4017 1.386 . S
C4016 C4018 1.391 . S
C4017 C4016 1.386 . S
C4017 C4021 1.393 . S
C4018 H4010 0.950 . S
C4018 C4016 1.391 . S
C4018 C4019 1.400 . S
C4019 C4018 1.400 . S
C4019 C4020 1.398 . S
C4019 C4025 1.491 . S
C4020 H4011 0.950 . S
C4020 C4019 1.398 . S
C4020 C4021 1.391 . S
C4021 H4009 0.950 . S
C4021 C4017 1.393 . S
C4021 C4020 1.391 . S
C4022 H4012 0.950 . S
C4022 C4023 1.386 . S
C4022 C4024 1.391 . S
C4023 C4022 1.386 . S
C4023 C4027 1.393 . S
C4024 H4013 0.950 . S
C4024 C4022 1.391 . S
C4024 C4025 1.400 . S
C4025 C4019 1.491 . S
C4025 C4024 1.400 . S
C4025 C4026 1.398 . S
C4026 H4014 0.950 . S
C4026 C4025 1.398 . S
C4026 C4027 1.391 . S
C4027 H4015 0.950 . S
C4027 C4023 1.393 . S
C4027 C4026 1.391 . S
H4028 C4036 0.950 . S
H4029 C4041 0.950 . S
H4030 C4038 0.950 . S
H4031 C4040 0.950 . S
H4032 C4042 0.950 . S
H4033 C4044 0.950 . S
H4034 C4046 0.950 . S
H4035 C4047 0.950 . S
C4036 H4028 0.950 . S
C4036 C4037 1.386 . S
C4036 C4038 1.391 . S
C4037 C4036 1.386 . S
C4037 C4041 1.393 . S
C4038 H4030 0.950 . S
C4038 C4036 1.391 . S
C4038 C4039 1.400 . S
C4039 C4038 1.400 . S
C4039 C4040 1.398 . S
C4039 C4045 1.491 . S
C4040 H4031 0.950 . S
C4040 C4039 1.398 . S
C4040 C4041 1.391 . S
C4041 H4029 0.950 . S
C4041 C4037 1.393 . S
C4041 C4040 1.391 . S
C4042 H4032 0.950 . S
C4042 C4043 1.386 . S
C4042 C4044 1.391 . S
C4043 C4042 1.386 . S
C4043 C4047 1.393 . S
C4044 H4033 0.950 . S
C4044 C4042 1.391 . S
C4044 C4045 1.400 . S
C4045 C4039 1.491 . S
C4045 C4044 1.400 . S
C4045 C4046 1.398 . S
C4046 H4034 0.950 . S
C4046 C4045 1.398 . S
C4046 C4047 1.391 . S
C4047 H4035 0.950 . S
C4047 C4043 1.393 . S
C4047 C4046 1.391 . S
H4048 C4056 0.950 . S
H4049 C4061 0.950 . S
H4050 C4058 0.950 . S
H4051 C4060 0.950 . S
H4052 C4062 0.950 . S
H4053 C4064 0.950 . S
H4054 C4066 0.950 . S
H4055 C4067 0.950 . S
C4056 H4048 0.950 . S
C4056 C4057 1.386 . S
C4056 C4058 1.391 . S
C4057 C4056 1.386 . S
C4057 C4061 1.393 . S
C4058 H4050 0.950 . S
C4058 C4056 1.391 . S
C4058 C4059 1.400 . S
C4059 C4058 1.400 . S
C4059 C4060 1.398 . S
C4059 C4065 1.491 . S
C4060 H4051 0.950 . S
C4060 C4059 1.398 . S
C4060 C4061 1.391 . S
C4061 H4049 0.950 . S
C4061 C4057 1.393 . S
C4061 C4060 1.391 . S
C4062 H4052 0.950 . S
C4062 C4063 1.386 . S
C4062 C4064 1.391 . S
C4063 C4062 1.386 . S
C4063 C4067 1.393 . S
C4064 H4053 0.950 . S
C4064 C4062 1.391 . S
C4064 C4065 1.400 . S
C4065 C4059 1.491 . S
C4065 C4064 1.400 . S
C4065 C4066 1.398 . S
C4066 H4054 0.950 . S
C4066 C4065 1.398 . S
C4066 C4067 1.391 . S
C4067 H4055 0.950 . S
C4067 C4063 1.393 . S
C4067 C4066 1.391 . S
H4068 C4076 0.950 . S
H4069 C4081 0.950 . S
H4070 C4078 0.950 . S
H4071 C4080 0.950 . S
H4072 C4082 0.950 . S
H4073 C4084 0.950 . S
H4074 C4086 0.950 . S
H4075 C4087 0.950 . S
C4076 H4068 0.950 . S
C4076 C4077 1.386 . S
C4076 C4078 1.391 . S
C4077 C4076 1.386 . S
C4077 C4081 1.393 . S
C4078 H4070 0.950 . S
C4078 C4076 1.391 . S
C4078 C4079 1.400 . S
C4079 C4078 1.400 . S
C4079 C4080 1.398 . S
C4079 C4085 1.491 . S
C4080 H4071 0.950 . S
C4080 C4079 1.398 . S
C4080 C4081 1.391 . S
C4081 H4069 0.950 . S
C4081 C4077 1.393 . S
C4081 C4080 1.391 . S
C4082 H4072 0.950 . S
C4082 C4083 1.386 . S
C4082 C4084 1.391 . S
C4083 C4082 1.386 . S
C4083 C4087 1.393 . S
C4084 H4073 0.950 . S
C4084 C4082 1.391 . S
C4084 C4085 1.400 . S
C4085 C4079 1.491 . S
C4085 C4084 1.400 . S
C4085 C4086 1.398 . S
C4086 H4074 0.950 . S
C4086 C4085 1.398 . S
C4086 C4087 1.391 . S
C4087 H4075 0.950 . S
C4087 C4083 1.393 . S
C4087 C4086 1.391 . S
H4088 C4096 0.950 . S
H4089 C4101 0.950 . S
H4090 C4098 0.950 . S
H4091 C4100 0.950 . S
H4092 C4102 0.950 . S
H4093 C4104 0.950 . S
H4094 C4106 0.950 . S
H4095 C4107 0.950 . S
C4096 H4088 0.950 . S
C4096 C4097 1.386 . S
C4096 C4098 1.391 . S
C4097 C4096 1.386 . S
C4097 C4101 1.393 . S
C4098 H4090 0.950 . S
C4098 C4096 1.391 . S
C4098 C4099 1.400 . S
C4099 C4098 1.400 . S
C4099 C4100 1.398 . S
C4099 C4105 1.491 . S
C4100 H4091 0.950 . S
C4100 C4099 1.398 . S
C4100 C4101 1.391 . S
C4101 H4089 0.950 . S
C4101 C4097 1.393 . S
C4101 C4100 1.391 . S
C4102 H4092 0.950 . S
C4102 C4103 1.386 . S
C4102 C4104 1.391 . S
C4103 C4102 1.386 . S
C4103 C4107 1.393 . S
C4104 H4093 0.950 . S
C4104 C4102 1.391 . S
C4104 C4105 1.400 . S
C4105 C4099 1.491 . S
C4105 C4104 1.400 . S
C4105 C4106 1.398 . S
C4106 H4094 0.950 . S
C4106 C4105 1.398 . S
C4106 C4107 1.391 . S
C4107 H4095 0.950 . S
C4107 C4103 1.393 . S
C4107 C4106 1.391 . S
H4108 C4116 0.950 . S
H4109 C4121 0.950 . S
H4110 C4118 0.950 . S
H4111 C4120 0.950 . S
H4112 C4122 0.950 . S
H4113 C4124 0.950 . S
H4114 C4126 0.950 . S
H4115 C4127 0.950 . S
C4116 H4108 0.950 . S
C4116 C4117 1.386 . S
C4116 C4118 1.391 . S
C4117 C4116 1.386 . S
C4117 C4121 1.393 . S
C4118 H4110 0.950 . S
C4118 C4116 1.391 . S
C4118 C4119 1.400 . S
C4119 C4118 1.400 . S
C4119 C4120 1.398 . S
C4119 C4125 1.491 . S
C4120 H4111 0.950 . S
C4120 C4119 1.398 . S
C4120 C4121 1.391 . S
C4121 H4109 0.950 . S
C4121 C4117 1.393 . S
C4121 C4120 1.391 . S
C4122 H4112 0.950 . S
C4122 C4123 1.386 . S
C4122 C4124 1.391 . S
C4123 C4122 1.386 . S
C4123 C4127 1.393 . S
C4124 H4113 0.950 . S
C4124 C4122 1.391 . S
C4124 C4125 1.400 . S
C4125 C4119 1.491 . S
C4125 C4124 1.400 . S
C4125 C4126 1.398 . S
C4126 H4114 0.950 . S
C4126 C4125 1.398 . S
C4126 C4127 1.391 . S
C4127 H4115 0.950 . S
C4127 C4123 1.393 . S
C4127 C4126 1.391 . S
H4128 C4136 0.950 . S
H4129 C4141 0.950 . S
H4130 C4138 0.950 . S
H4131 C4140 0.950 . S
H4132 C4142 0.950 . S
H4133 C4144 0.950 . S
H4134 C4146 0.950 . S
H4135 C4147 0.950 . S
C4136 H4128 0.950 . S
C4136 C4137 1.386 . S
C4136 C4138 1.391 . S
C4137 C4136 1.386 . S
C4137 C4141 1.393 . S
C4138 H4130 0.950 . S
C4138 C4136 1.391 . S
C4138 C4139 1.400 . S
C4139 C4138 1.400 . S
C4139 C4140 1.398 . S
C4139 C4145 1.491 . S
C4140 H4131 0.950 . S
C4140 C4139 1.398 . S
C4140 C4141 1.391 . S
C4141 H4129 0.950 . S
C4141 C4137 1.393 . S
C4141 C4140 1.391 . S
C4142 H4132 0.950 . S
C4142 C4143 1.386 . S
C4142 C4144 1.391 . S
C4143 C4142 1.386 . S
C4143 C4147 1.393 . S
C4144 H4133 0.950 . S
C4144 C4142 1.391 . S
C4144 C4145 1.400 . S
C4145 C4139 1.491 . S
C4145 C4144 1.400 . S
C4145 C4146 1.398 . S
C4146 H4134 0.950 . S
C4146 C4145 1.398 . S
C4146 C4147 1.391 . S
C4147 H4135 0.950 . S
C4147 C4143 1.393 . S
C4147 C4146 1.391 . S
H4148 C4156 0.950 . S
H4149 C4161 0.950 . S
H4150 C4158 0.950 . S
H4151 C4160 0.950 . S
H4152 C4162 0.950 . S
H4153 C4164 0.950 . S
H4154 C4166 0.950 . S
H4155 C4167 0.950 . S
C4156 H4148 0.950 . S
C4156 C4157 1.386 . S
C4156 C4158 1.391 . S
C4157 C4156 1.386 . S
C4157 C4161 1.393 . S
C4158 H4150 0.950 . S
C4158 C4156 1.391 . S
C4158 C4159 1.400 . S
C4159 C4158 1.400 . S
C4159 C4160 1.398 . S
C4159 C4165 1.491 . S
C4160 H4151 0.950 . S
C4160 C4159 1.398 . S
C4160 C4161 1.391 . S
C4161 H4149 0.950 . S
C4161 C4157 1.393 . S
C4161 C4160 1.391 . S
C4162 H4152 0.950 . S
C4162 C4163 1.386 . S
C4162 C4164 1.391 . S
C4163 C4162 1.386 . S
C4163 C4167 1.393 . S
C4164 H4153 0.950 . S
C4164 C4162 1.391 . S
C4164 C4165 1.400 . S
C4165 C4159 1.491 . S
C4165 C4164 1.400 . S
C4165 C4166 1.398 . S
C4166 H4154 0.950 . S
C4166 C4165 1.398 . S
C4166 C4167 1.391 . S
C4167 H4155 0.950 . S
C4167 C4163 1.393 . S
C4167 C4166 1.391 . S
H4168 C4176 0.950 . S
H4169 C4181 0.950 . S
H4170 C4178 0.950 . S
H4171 C4180 0.950 . S
H4172 C4182 0.950 . S
H4173 C4184 0.950 . S
H4174 C4186 0.950 . S
H4175 C4187 0.950 . S
C4176 H4168 0.950 . S
C4176 C4177 1.386 . S
C4176 C4178 1.391 . S
C4177 C4176 1.386 . S
C4177 C4181 1.393 . S
C4178 H4170 0.950 . S
C4178 C4176 1.391 . S
C4178 C4179 1.400 . S
C4179 C4178 1.400 . S
C4179 C4180 1.398 . S
C4179 C4185 1.491 . S
C4180 H4171 0.950 . S
C4180 C4179 1.398 . S
C4180 C4181 1.391 . S
C4181 H4169 0.950 . S
C4181 C4177 1.393 . S
C4181 C4180 1.391 . S
C4182 H4172 0.950 . S
C4182 C4183 1.386 . S
C4182 C4184 1.391 . S
C4183 C4182 1.386 . S
C4183 C4187 1.393 . S
C4184 H4173 0.950 . S
C4184 C4182 1.391 . S
C4184 C4185 1.400 . S
C4185 C4179 1.491 . S
C4185 C4184 1.400 . S
C4185 C4186 1.398 . S
C4186 H4174 0.950 . S
C4186 C4185 1.398 . S
C4186 C4187 1.391 . S
C4187 H4175 0.950 . S
C4187 C4183 1.393 . S
C4187 C4186 1.391 . S
H4188 C4196 0.950 . S
H4189 C4201 0.950 . S
H4190 C4198 0.950 . S
H4191 C4200 0.950 . S
H4192 C4202 0.950 . S
H4193 C4204 0.950 . S
H4194 C4206 0.950 . S
H4195 C4207 0.950 . S
C4196 H4188 0.950 . S
C4196 C4197 1.386 . S
C4196 C4198 1.391 . S
C4197 C4196 1.386 . S
C4197 C4201 1.393 . S
C4198 H4190 0.950 . S
C4198 C4196 1.391 . S
C4198 C4199 1.400 . S
C4199 C4198 1.400 . S
C4199 C4200 1.398 . S
C4199 C4205 1.491 . S
C4200 H4191 0.950 . S
C4200 C4199 1.398 . S
C4200 C4201 1.391 . S
C4201 H4189 0.950 . S
C4201 C4197 1.393 . S
C4201 C4200 1.391 . S
C4202 H4192 0.950 . S
C4202 C4203 1.386 . S
C4202 C4204 1.391 . S
C4203 C4202 1.386 . S
C4203 C4207 1.393 . S
C4204 H4193 0.950 . S
C4204 C4202 1.391 . S
C4204 C4205 1.400 . S
C4205 C4199 1.491 . S
C4205 C4204 1.400 . S
C4205 C4206 1.398 . S
C4206 H4194 0.950 . S
C4206 C4205 1.398 . S
C4206 C4207 1.391 . S
C4207 H4195 0.950 . S
C4207 C4203 1.393 . S
C4207 C4206 1.391 . S
H4208 C4216 0.950 . S
H4209 C4221 0.950 . S
H4210 C4218 0.950 . S
H4211 C4220 0.950 . S
H4212 C4222 0.950 . S
H4213 C4224 0.950 . S
H4214 C4226 0.950 . S
H4215 C4227 0.950 . S
C4216 H4208 0.950 . S
C4216 C4217 1.386 . S
C4216 C4218 1.391 . S
C4217 C4216 1.386 . S
C4217 C4221 1.393 . S
C4218 H4210 0.950 . S
C4218 C4216 1.391 . S
C4218 C4219 1.400 . S
C4219 C4218 1.400 . S
C4219 C4220 1.398 . S
C4219 C4225 1.491 . S
C4220 H4211 0.950 . S
C4220 C4219 1.398 . S
C4220 C4221 1.391 . S
C4221 H4209 0.950 . S
C4221 C4217 1.393 . S
C4221 C4220 1.391 . S
C4222 H4212 0.950 . S
C4222 C4223 1.386 . S
C4222 C4224 1.391 . S
C4223 C4222 1.386 . S
C4223 C4227 1.393 . S
C4224 H4213 0.950 . S
C4224 C4222 1.391 . S
C4224 C4225 1.400 . S
C4225 C4219 1.491 . S
C4225 C4224 1.400 . S
C4225 C4226 1.398 . S
C4226 H4214 0.950 . S
C4226 C4225 1.398 . S
C4226 C4227 1.391 . S
C4227 H4215 0.950 . S
C4227 C4223 1.393 . S
C4227 C4226 1.391 . S
H4228 C4236 0.950 . S
H4229 C4241 0.950 . S
H4230 C4238 0.950 . S
H4231 C4240 0.950 . S
H4232 C4242 0.950 . S
H4233 C4244 0.950 . S
H4234 C4246 0.950 . S
H4235 C4247 0.950 . S
C4236 H4228 0.950 . S
C4236 C4237 1.386 . S
C4236 C4238 1.391 . S
C4237 C4236 1.386 . S
C4237 C4241 1.393 . S
C4238 H4230 0.950 . S
C4238 C4236 1.391 . S
C4238 C4239 1.400 . S
C4239 C4238 1.400 . S
C4239 C4240 1.398 . S
C4239 C4245 1.491 . S
C4240 H4231 0.950 . S
C4240 C4239 1.398 . S
C4240 C4241 1.391 . S
C4241 H4229 0.950 . S
C4241 C4237 1.393 . S
C4241 C4240 1.391 . S
C4242 H4232 0.950 . S
C4242 C4243 1.386 . S
C4242 C4244 1.391 . S
C4243 C4242 1.386 . S
C4243 C4247 1.393 . S
C4244 H4233 0.950 . S
C4244 C4242 1.391 . S
C4244 C4245 1.400 . S
C4245 C4239 1.491 . S
C4245 C4244 1.400 . S
C4245 C4246 1.398 . S
C4246 H4234 0.950 . S
C4246 C4245 1.398 . S
C4246 C4247 1.391 . S
C4247 H4235 0.950 . S
C4247 C4243 1.393 . S
C4247 C4246 1.391 . S
H4248 C4256 0.950 . S
H4249 C4261 0.950 . S
H4250 C4258 0.950 . S
H4251 C4260 0.950 . S
H4252 C4262 0.950 . S
H4253 C4264 0.950 . S
H4254 C4266 0.950 . S
H4255 C4267 0.950 . S
C4256 H4248 0.950 . S
C4256 C4257 1.386 . S
C4256 C4258 1.391 . S
C4257 C4256 1.386 . S
C4257 C4261 1.393 . S
C4258 H4250 0.950 . S
C4258 C4256 1.391 . S
C4258 C4259 1.400 . S
C4259 C4258 1.400 . S
C4259 C4260 1.398 . S
C4259 C4265 1.491 . S
C4260 H4251 0.950 . S
C4260 C4259 1.398 . S
C4260 C4261 1.391 . S
C4261 H4249 0.950 . S
C4261 C4257 1.393 . S
C4261 C4260 1.391 . S
C4262 H4252 0.950 . S
C4262 C4263 1.386 . S
C4262 C4264 1.391 . S
C4263 C4262 1.386 . S
C4263 C4267 1.393 . S
C4264 H4253 0.950 . S
C4264 C4262 1.391 . S
C4264 C4265 1.400 . S
C4265 C4259 1.491 . S
C4265 C4264 1.400 . S
C4265 C4266 1.398 . S
C4266 H4254 0.950 . S
C4266 C4265 1.398 . S
C4266 C4267 1.391 . S
C4267 H4255 0.950 . S
C4267 C4263 1.393 . S
C4267 C4266 1.391 . S
H4268 C4276 0.950 . S
H4269 C4281 0.950 . S
H4270 C4278 0.950 . S
H4271 C4280 0.950 . S
H4272 C4282 0.950 . S
H4273 C4284 0.950 . S
H4274 C4286 0.950 . S
H4275 C4287 0.950 . S
C4276 H4268 0.950 . S
C4276 C4277 1.386 . S
C4276 C4278 1.391 . S
C4277 C4276 1.386 . S
C4277 C4281 1.393 . S
C4278 H4270 0.950 . S
C4278 C4276 1.391 . S
C4278 C4279 1.400 . S
C4279 C4278 1.400 . S
C4279 C4280 1.398 . S
C4279 C4285 1.491 . S
C4280 H4271 0.950 . S
C4280 C4279 1.398 . S
C4280 C4281 1.391 . S
C4281 H4269 0.950 . S
C4281 C4277 1.393 . S
C4281 C4280 1.391 . S
C4282 H4272 0.950 . S
C4282 C4283 1.386 . S
C4282 C4284 1.391 . S
C4283 C4282 1.386 . S
C4283 C4287 1.393 . S
C4284 H4273 0.950 . S
C4284 C4282 1.391 . S
C4284 C4285 1.400 . S
C4285 C4279 1.491 . S
C4285 C4284 1.400 . S
C4285 C4286 1.398 . S
C4286 H4274 0.950 . S
C4286 C4285 1.398 . S
C4286 C4287 1.391 . S
C4287 H4275 0.950 . S
C4287 C4283 1.393 . S
C4287 C4286 1.391 . S
H4288 C4296 0.950 . S
H4289 C4301 0.950 . S
H4290 C4298 0.950 . S
H4291 C4300 0.950 1_565 S
H4292 C4302 0.950 . S
H4293 C4304 0.950 . S
H4294 C4306 0.950 1_545 S
H4295 C4307 0.950 . S
C4296 H4288 0.950 . S
C4296 C4297 1.386 . S
C4296 C4298 1.391 . S
C4297 C4296 1.386 . S
C4297 C4301 1.393 . S
C4298 H4290 0.950 . S
C4298 C4296 1.391 . S
C4298 C4299 1.400 . S
C4299 C4298 1.400 . S
C4299 C4300 1.398 . S
C4299 C4305 1.491 1_545 S
C4300 H4291 0.950 1_545 S
C4300 C4299 1.398 . S
C4300 C4301 1.391 . S
C4301 H4289 0.950 . S
C4301 C4297 1.393 . S
C4301 C4300 1.391 . S
C4302 H4292 0.950 . S
C4302 C4303 1.386 . S
C4302 C4304 1.391 . S
C4303 C4302 1.386 . S
C4303 C4307 1.393 . S
C4304 H4293 0.950 . S
C4304 C4302 1.391 . S
C4304 C4305 1.400 . S
C4305 C4299 1.491 1_565 S
C4305 C4304 1.400 . S
C4305 C4306 1.398 . S
C4306 H4294 0.950 1_565 S
C4306 C4305 1.398 . S
C4306 C4307 1.391 . S
C4307 H4295 0.950 . S
C4307 C4303 1.393 . S
C4307 C4306 1.391 . S
H4308 C4316 0.950 . S
H4309 C4321 0.950 . S
H4310 C4318 0.950 . S
H4311 C4320 0.950 . S
H4312 C4322 0.950 . S
H4313 C4324 0.950 . S
H4314 C4326 0.950 . S
H4315 C4327 0.950 . S
C4316 H4308 0.950 . S
C4316 C4317 1.386 . S
C4316 C4318 1.391 . S
C4317 C4316 1.386 . S
C4317 C4321 1.393 1_565 S
C4318 H4310 0.950 . S
C4318 C4316 1.391 . S
C4318 C4319 1.400 . S
C4319 C4318 1.400 . S
C4319 C4320 1.398 1_565 S
C4319 C4325 1.491 . S
C4320 H4311 0.950 . S
C4320 C4319 1.398 1_545 S
C4320 C4321 1.391 . S
C4321 H4309 0.950 . S
C4321 C4317 1.393 1_545 S
C4321 C4320 1.391 . S
C4322 H4312 0.950 . S
C4322 C4323 1.386 1_545 S
C4322 C4324 1.391 . S
C4323 C4322 1.386 1_565 S
C4323 C4327 1.393 . S
C4324 H4313 0.950 . S
C4324 C4322 1.391 . S
C4324 C4325 1.400 1_545 S
C4325 C4319 1.491 . S
C4325 C4324 1.400 1_565 S
C4325 C4326 1.398 . S
C4326 H4314 0.950 . S
C4326 C4325 1.398 . S
C4326 C4327 1.391 . S
C4327 H4315 0.950 . S
C4327 C4323 1.393 . S
C4327 C4326 1.391 . S
H4328 C4336 0.950 . S
H4329 C4341 0.950 . S
H4330 C4338 0.950 1_565 S
H4331 C4340 0.950 . S
H4332 C4342 0.950 . S
H4333 C4344 0.950 1_545 S
H4334 C4346 0.950 . S
H4335 C4347 0.950 . S
C4336 H4328 0.950 . S
C4336 C4337 1.386 . S
C4336 C4338 1.391 . S
C4337 C4336 1.386 . S
C4337 C4341 1.393 . S
C4338 H4330 0.950 1_545 S
C4338 C4336 1.391 . S
C4338 C4339 1.400 . S
C4339 C4338 1.400 . S
C4339 C4340 1.398 . S
C4339 C4345 1.491 1_545 S
C4340 H4331 0.950 . S
C4340 C4339 1.398 . S
C4340 C4341 1.391 . S
C4341 H4329 0.950 . S
C4341 C4337 1.393 . S
C4341 C4340 1.391 . S
C4342 H4332 0.950 . S
C4342 C4343 1.386 . S
C4342 C4344 1.391 . S
C4343 C4342 1.386 . S
C4343 C4347 1.393 . S
C4344 H4333 0.950 1_565 S
C4344 C4342 1.391 . S
C4344 C4345 1.400 . S
C4345 C4339 1.491 1_565 S
C4345 C4344 1.400 . S
C4345 C4346 1.398 . S
C4346 H4334 0.950 . S
C4346 C4345 1.398 . S
C4346 C4347 1.391 . S
C4347 H4335 0.950 . S
C4347 C4343 1.393 . S
C4347 C4346 1.391 . S
H4348 C4356 0.950 . S
H4349 C4361 0.950 . S
H4350 C4358 0.950 . S
H4351 C4360 0.864 1_554 S
H4352 C4362 0.950 . S
H4353 C4364 0.950 . S
H4354 C4366 0.861 1_566 S
H4355 C4367 0.957 . S
C4356 H4348 0.950 . S
C4356 C4357 1.386 . S
C4356 C4358 1.391 . S
C4357 C4356 1.386 . S
C4357 C4361 1.393 . S
C4358 H4350 0.950 . S
C4358 C4356 1.391 . S
C4358 C4359 1.400 . S
C4359 C4358 1.400 . S
C4359 C4360 1.426 . S
C4359 C4365 1.491 1_556 S
C4360 H4351 0.864 1_556 S
C4360 C4359 1.426 . S
C4360 C4361 1.451 . S
C4361 H4349 0.950 . S
C4361 C4357 1.393 . S
C4361 C4360 1.451 . S
C4362 H4352 0.950 . S
C4362 C4363 1.386 . S
C4362 C4364 1.391 . S
C4363 C4362 1.386 . S
C4363 C4367 1.393 . S
C4364 H4353 0.950 . S
C4364 C4362 1.391 . S
C4364 C4365 1.400 . S
C4365 C4359 1.491 1_554 S
C4365 C4364 1.400 . S
C4365 C4366 1.426 . S
C4366 H4354 0.861 1_544 S
C4366 C4365 1.426 . S
C4366 C4367 1.451 . S
C4367 H4355 0.957 . S
C4367 C4363 1.393 . S
C4367 C4366 1.451 . S
H4368 C4376 0.950 . S
H4369 C4381 0.950 . S
H4370 C4378 0.950 . S
H4371 C4380 0.950 1_545 S
H4372 C4382 0.950 . S
H4373 C4384 0.950 . S
H4374 C4386 0.950 1_565 S
H4375 C4387 0.950 . S
C4376 H4368 0.950 . S
C4376 C4377 1.386 . S
C4376 C4378 1.391 . S
C4377 C4376 1.386 . S
C4377 C4381 1.393 . S
C4378 H4370 0.950 . S
C4378 C4376 1.391 . S
C4378 C4379 1.400 . S
C4379 C4378 1.400 . S
C4379 C4380 1.398 . S
C4379 C4385 1.491 1_565 S
C4380 H4371 0.950 1_565 S
C4380 C4379 1.398 . S
C4380 C4381 1.391 . S
C4381 H4369 0.950 . S
C4381 C4377 1.393 . S
C4381 C4380 1.391 . S
C4382 H4372 0.950 . S
C4382 C4383 1.386 . S
C4382 C4384 1.391 . S
C4383 C4382 1.386 . S
C4383 C4387 1.393 . S
C4384 H4373 0.950 . S
C4384 C4382 1.391 . S
C4384 C4385 1.400 . S
C4385 C4379 1.491 1_545 S
C4385 C4384 1.400 . S
C4385 C4386 1.398 . S
C4386 H4374 0.950 1_545 S
C4386 C4385 1.398 . S
C4386 C4387 1.391 . S
C4387 H4375 0.950 . S
C4387 C4383 1.393 . S
C4387 C4386 1.391 . S
H4388 C4396 0.950 . S
H4389 C4401 0.951 . S
H4390 C4398 0.950 . S
H4391 C4400 0.949 1_565 S
H4392 C4402 0.950 . S
H4393 C4404 0.950 . S
H4394 C4406 0.950 . S
H4395 C4407 0.950 . S
C4396 H4388 0.950 . S
C4396 C4397 1.386 . S
C4396 C4398 1.391 . S
C4397 C4396 1.386 . S
C4397 C4401 1.391 1_545 S
C4398 H4390 0.950 . S
C4398 C4396 1.391 . S
C4398 C4399 1.400 . S
C4399 C4398 1.400 . S
C4399 C4400 1.399 . S
C4399 C4405 1.491 . S
C4400 H4391 0.949 1_545 S
C4400 C4399 1.399 . S
C4400 C4401 1.391 1_545 S
C4401 H4389 0.951 . S
C4401 C4397 1.391 1_565 S
C4401 C4400 1.391 1_565 S
C4402 H4392 0.950 . S
C4402 C4403 1.386 1_565 S
C4402 C4404 1.391 . S
C4403 C4402 1.386 1_545 S
C4403 C4407 1.393 . S
C4404 H4393 0.950 . S
C4404 C4402 1.391 . S
C4404 C4405 1.400 1_565 S
C4405 C4399 1.491 . S
C4405 C4404 1.400 1_545 S
C4405 C4406 1.398 . S
C4406 H4394 0.950 . S
C4406 C4405 1.398 . S
C4406 C4407 1.391 . S
C4407 H4395 0.950 . S
C4407 C4403 1.393 . S
C4407 C4406 1.391 . S
H4408 C4416 0.950 . S
H4409 C4421 0.950 . S
H4410 C4418 0.950 . S
H4411 C4420 0.948 . S
H4412 C4422 0.950 . S
H4413 C4424 0.950 . S
H4414 C4426 0.948 . S
H4415 C4427 0.950 . S
C4416 H4408 0.950 . S
C4416 C4417 1.386 . S
C4416 C4418 1.391 . S
C4417 C4416 1.386 . S
C4417 C4421 1.393 . S
C4418 H4410 0.950 . S
C4418 C4416 1.391 . S
C4418 C4419 1.400 . S
C4419 C4418 1.400 . S
C4419 C4420 1.398 . S
C4419 C4425 1.491 1_565 S
C4420 H4411 0.948 . S
C4420 C4419 1.398 . S
C4420 C4421 1.391 . S
C4421 H4409 0.950 . S
C4421 C4417 1.393 . S
C4421 C4420 1.391 . S
C4422 H4412 0.950 . S
C4422 C4423 1.386 . S
C4422 C4424 1.391 . S
C4423 C4422 1.386 . S
C4423 C4427 1.393 . S
C4424 H4413 0.950 . S
C4424 C4422 1.391 . S
C4424 C4425 1.400 . S
C4425 C4419 1.491 1_545 S
C4425 C4424 1.400 . S
C4425 C4426 1.398 . S
C4426 H4414 0.948 . S
C4426 C4425 1.398 . S
C4426 C4427 1.391 . S
C4427 H4415 0.950 . S
C4427 C4423 1.393 . S
C4427 C4426 1.391 . S
H4428 C4436 0.950 . S
H4429 C4441 0.950 . S
H4430 C4438 0.950 . S
H4431 C4440 0.950 . S
H4432 C4442 0.950 . S
H4433 C4444 0.950 . S
H4434 C4446 0.950 . S
H4435 C4447 0.950 . S
C4436 H4428 0.950 . S
C4436 C4437 1.386 . S
C4436 C4438 1.391 . S
C4437 C4436 1.386 . S
C4437 C4441 1.393 1_565 S
C4438 H4430 0.950 . S
C4438 C4436 1.391 . S
C4438 C4439 1.400 . S
C4439 C4438 1.400 . S
C4439 C4440 1.398 1_565 S
C4439 C4445 1.491 1_554 S
C4440 H4431 0.950 . S
C4440 C4439 1.398 1_545 S
C4440 C4441 1.391 . S
C4441 H4429 0.950 . S
C4441 C4437 1.393 1_545 S
C4441 C4440 1.391 . S
C4442 H4432 0.950 . S
C4442 C4443 1.386 1_545 S
C4442 C4444 1.391 . S
C4443 C4442 1.386 1_565 S
C4443 C4447 1.393 . S
C4444 H4433 0.950 . S
C4444 C4442 1.391 . S
C4444 C4445 1.400 1_545 S
C4445 C4439 1.491 1_556 S
C4445 C4444 1.400 1_565 S
C4445 C4446 1.398 . S
C4446 H4434 0.950 . S
C4446 C4445 1.398 . S
C4446 C4447 1.391 . S
C4447 H4435 0.950 . S
C4447 C4443 1.393 . S
C4447 C4446 1.391 . S
H4448 C4456 0.950 . S
H4449 C4461 0.950 . S
H4450 C4458 0.950 . S
H4451 C4460 0.950 . S
H4452 C4462 0.950 . S
H4453 C4464 0.950 . S
H4454 C4466 0.950 . S
H4455 C4467 0.950 . S
C4456 H4448 0.950 . S
C4456 C4457 1.386 . S
C4456 C4458 1.391 . S
C4457 C4456 1.386 . S
C4457 C4461 1.393 . S
C4458 H4450 0.950 . S
C4458 C4456 1.391 . S
C4458 C4459 1.400 . S
C4459 C4458 1.400 . S
C4459 C4460 1.398 . S
C4459 C4465 1.491 . S
C4460 H4451 0.950 . S
C4460 C4459 1.398 . S
C4460 C4461 1.391 . S
C4461 H4449 0.950 . S
C4461 C4457 1.393 . S
C4461 C4460 1.391 . S
C4462 H4452 0.950 . S
C4462 C4463 1.386 . S
C4462 C4464 1.391 . S
C4463 C4462 1.386 . S
C4463 C4467 1.393 . S
C4464 H4453 0.950 . S
C4464 C4462 1.391 . S
C4464 C4465 1.400 . S
C4465 C4459 1.491 . S
C4465 C4464 1.400 . S
C4465 C4466 1.398 . S
C4466 H4454 0.950 . S
C4466 C4465 1.398 . S
C4466 C4467 1.391 . S
C4467 H4455 0.950 . S
C4467 C4463 1.393 . S
C4467 C4466 1.391 . S
H4468 C4476 0.950 . S
H4469 C4481 0.950 . S
H4470 C4478 0.950 . S
H4471 C4480 0.950 1_554 S
H4472 C4482 0.950 . S
H4473 C4484 0.950 . S
H4474 C4486 0.950 1_556 S
H4475 C4487 0.950 . S
C4476 H4468 0.950 . S
C4476 C4477 1.386 . S
C4476 C4478 1.391 . S
C4477 C4476 1.386 . S
C4477 C4481 1.393 . S
C4478 H4470 0.950 . S
C4478 C4476 1.391 . S
C4478 C4479 1.400 . S
C4479 C4478 1.400 . S
C4479 C4480 1.398 . S
C4479 C4485 1.491 1_556 S
C4480 H4471 0.950 1_556 S
C4480 C4479 1.398 . S
C4480 C4481 1.391 . S
C4481 H4469 0.950 . S
C4481 C4477 1.393 . S
C4481 C4480 1.391 . S
C4482 H4472 0.950 . S
C4482 C4483 1.386 . S
C4482 C4484 1.391 . S
C4483 C4482 1.386 . S
C4483 C4487 1.393 . S
C4484 H4473 0.950 . S
C4484 C4482 1.391 . S
C4484 C4485 1.400 . S
C4485 C4479 1.491 1_554 S
C4485 C4484 1.400 . S
C4485 C4486 1.398 . S
C4486 H4474 0.950 1_554 S
C4486 C4485 1.398 . S
C4486 C4487 1.391 . S
C4487 H4475 0.950 . S
C4487 C4483 1.393 . S
C4487 C4486 1.391 . S
H4488 C4496 0.950 . S
H4489 C4501 0.950 . S
H4490 C4498 0.950 . S
H4491 C4500 0.950 . S
H4492 C4502 0.950 . S
H4493 C4504 0.950 . S
H4494 C4506 0.950 . S
H4495 C4507 0.950 . S
C4496 H4488 0.950 . S
C4496 C4497 1.386 . S
C4496 C4498 1.391 . S
C4497 C4496 1.386 . S
C4497 C4501 1.393 . S
C4498 H4490 0.950 . S
C4498 C4496 1.391 . S
C4498 C4499 1.400 . S
C4499 C4498 1.400 . S
C4499 C4500 1.398 . S
C4499 C4505 1.491 . S
C4500 H4491 0.950 . S
C4500 C4499 1.398 . S
C4500 C4501 1.391 . S
C4501 H4489 0.950 . S
C4501 C4497 1.393 . S
C4501 C4500 1.391 . S
C4502 H4492 0.950 . S
C4502 C4503 1.386 . S
C4502 C4504 1.391 . S
C4503 C4502 1.386 . S
C4503 C4507 1.393 . S
C4504 H4493 0.950 . S
C4504 C4502 1.391 . S
C4504 C4505 1.400 . S
C4505 C4499 1.491 . S
C4505 C4504 1.400 . S
C4505 C4506 1.398 . S
C4506 H4494 0.950 . S
C4506 C4505 1.398 . S
C4506 C4507 1.391 . S
C4507 H4495 0.950 . S
C4507 C4503 1.393 . S
C4507 C4506 1.391 . S
H4508 C4516 0.950 . S
H4509 C4521 0.950 . S
H4510 C4518 0.950 . S
H4511 C4520 0.950 . S
H4512 C4522 0.950 . S
H4513 C4524 0.950 . S
H4514 C4526 0.950 . S
H4515 C4527 0.950 . S
C4516 H4508 0.950 . S
C4516 C4517 1.386 . S
C4516 C4518 1.391 . S
C4517 C4516 1.386 . S
C4517 C4521 1.393 . S
C4518 H4510 0.950 . S
C4518 C4516 1.391 . S
C4518 C4519 1.400 . S
C4519 C4518 1.400 . S
C4519 C4520 1.398 . S
C4519 C4525 1.491 . S
C4520 H4511 0.950 . S
C4520 C4519 1.398 . S
C4520 C4521 1.391 . S
C4521 H4509 0.950 . S
C4521 C4517 1.393 . S
C4521 C4520 1.391 . S
C4522 H4512 0.950 . S
C4522 C4523 1.386 . S
C4522 C4524 1.391 . S
C4523 C4522 1.386 . S
C4523 C4527 1.393 . S
C4524 H4513 0.950 . S
C4524 C4522 1.391 . S
C4524 C4525 1.400 . S
C4525 C4519 1.491 . S
C4525 C4524 1.400 . S
C4525 C4526 1.398 . S
C4526 H4514 0.950 . S
C4526 C4525 1.398 . S
C4526 C4527 1.391 . S
C4527 H4515 0.950 . S
C4527 C4523 1.393 . S
C4527 C4526 1.391 . S
H4528 C4536 0.950 . S
H4529 C4541 0.950 . S
H4530 C4538 0.950 . S
H4531 C4540 0.950 . S
H4532 C4542 0.950 . S
H4533 C4544 0.950 . S
H4534 C4546 0.950 . S
H4535 C4547 0.950 . S
C4536 H4528 0.950 . S
C4536 C4537 1.386 . S
C4536 C4538 1.391 . S
C4537 C4536 1.386 . S
C4537 C4541 1.393 . S
C4538 H4530 0.950 . S
C4538 C4536 1.391 . S
C4538 C4539 1.400 . S
C4539 C4538 1.400 . S
C4539 C4540 1.398 . S
C4539 C4545 1.491 . S
C4540 H4531 0.950 . S
C4540 C4539 1.398 . S
C4540 C4541 1.391 . S
C4541 H4529 0.950 . S
C4541 C4537 1.393 . S
C4541 C4540 1.391 . S
C4542 H4532 0.950 . S
C4542 C4543 1.386 . S
C4542 C4544 1.391 . S
C4543 C4542 1.386 . S
C4543 C4547 1.393 . S
C4544 H4533 0.950 . S
C4544 C4542 1.391 . S
C4544 C4545 1.400 . S
C4545 C4539 1.491 . S
C4545 C4544 1.400 . S
C4545 C4546 1.398 . S
C4546 H4534 0.950 . S
C4546 C4545 1.398 . S
C4546 C4547 1.391 . S
C4547 H4535 0.950 . S
C4547 C4543 1.393 . S
C4547 C4546 1.391 . S
H4548 C4556 0.950 . S
H4549 C4561 0.950 . S
H4550 C4558 0.950 . S
H4551 C4560 0.950 1_554 S
H4552 C4562 0.950 . S
H4553 C4564 0.950 . S
H4554 C4566 0.950 1_556 S
H4555 C4567 0.950 . S
C4556 H4548 0.950 . S
C4556 C4557 1.386 . S
C4556 C4558 1.391 . S
C4557 C4556 1.386 . S
C4557 C4561 1.393 . S
C4558 H4550 0.950 . S
C4558 C4556 1.391 . S
C4558 C4559 1.400 . S
C4559 C4558 1.400 . S
C4559 C4560 1.398 . S
C4559 C4565 1.491 1_556 S
C4560 H4551 0.950 1_556 S
C4560 C4559 1.398 . S
C4560 C4561 1.391 . S
C4561 H4549 0.950 . S
C4561 C4557 1.393 . S
C4561 C4560 1.391 . S
C4562 H4552 0.950 . S
C4562 C4563 1.386 . S
C4562 C4564 1.391 . S
C4563 C4562 1.386 . S
C4563 C4567 1.393 . S
C4564 H4553 0.950 . S
C4564 C4562 1.391 . S
C4564 C4565 1.400 . S
C4565 C4559 1.491 1_554 S
C4565 C4564 1.400 . S
C4565 C4566 1.398 . S
C4566 H4554 0.950 1_554 S
C4566 C4565 1.398 . S
C4566 C4567 1.391 . S
C4567 H4555 0.950 . S
C4567 C4563 1.393 . S
C4567 C4566 1.391 . S
H4568 C4576 0.950 . S
H4569 C4581 0.950 . S
H4570 C4578 0.950 . S
H4571 C4580 0.950 . S
H4572 C4582 0.950 . S
H4573 C4584 0.950 . S
H4574 C4586 0.950 . S
H4575 C4587 0.950 . S
C4576 H4568 0.950 . S
C4576 C4577 1.386 . S
C4576 C4578 1.391 . S
C4577 C4576 1.386 . S
C4577 C4581 1.393 . S
C4578 H4570 0.950 . S
C4578 C4576 1.391 . S
C4578 C4579 1.400 . S
C4579 C4578 1.400 . S
C4579 C4580 1.398 . S
C4579 C4585 1.491 . S
C4580 H4571 0.950 . S
C4580 C4579 1.398 . S
C4580 C4581 1.391 . S
C4581 H4569 0.950 . S
C4581 C4577 1.393 . S
C4581 C4580 1.391 . S
C4582 H4572 0.950 . S
C4582 C4583 1.386 . S
C4582 C4584 1.391 . S
C4583 C4582 1.386 . S
C4583 C4587 1.393 . S
C4584 H4573 0.950 . S
C4584 C4582 1.391 . S
C4584 C4585 1.400 . S
C4585 C4579 1.491 . S
C4585 C4584 1.400 . S
C4585 C4586 1.398 . S
C4586 H4574 0.950 . S
C4586 C4585 1.398 . S
C4586 C4587 1.391 . S
C4587 H4575 0.950 . S
C4587 C4583 1.393 . S
C4587 C4586 1.391 . S
H4588 C4596 0.950 . S
H4589 C4601 0.950 . S
H4590 C4598 0.950 . S
H4591 C4600 0.950 . S
H4592 C4602 0.950 . S
H4593 C4604 0.950 . S
H4594 C4606 0.950 . S
H4595 C4607 0.950 . S
C4596 H4588 0.950 . S
C4596 C4597 1.386 . S
C4596 C4598 1.391 . S
C4597 C4596 1.386 . S
C4597 C4601 1.393 . S
C4598 H4590 0.950 . S
C4598 C4596 1.391 . S
C4598 C4599 1.400 . S
C4599 C4598 1.400 . S
C4599 C4600 1.398 . S
C4599 C4605 1.491 . S
C4600 H4591 0.950 . S
C4600 C4599 1.398 . S
C4600 C4601 1.391 . S
C4601 H4589 0.950 . S
C4601 C4597 1.393 . S
C4601 C4600 1.391 . S
C4602 H4592 0.950 . S
C4602 C4603 1.386 . S
C4602 C4604 1.391 . S
C4603 C4602 1.386 . S
C4603 C4607 1.393 . S
C4604 H4593 0.950 . S
C4604 C4602 1.391 . S
C4604 C4605 1.400 . S
C4605 C4599 1.491 . S
C4605 C4604 1.400 . S
C4605 C4606 1.398 . S
C4606 H4594 0.950 . S
C4606 C4605 1.398 . S
C4606 C4607 1.391 . S
C4607 H4595 0.950 . S
C4607 C4603 1.393 . S
C4607 C4606 1.391 . S
C2697 C69 0.410 . S
C2703 C2335 0.361 . S
C2717 C153 0.389 . S
C2723 C739 0.400 . S
C2737 C237 0.441 . S
C2743 C2167 0.374 . S
C2757 C907 0.310 . S
C2763 C321 0.478 . S
C2777 C405 0.413 . S
C2783 C2503 0.358 . S
C2797 C1243 0.309 . S
C2803 C489 0.477 . S
C2817 C2671 0.317 . S
C2823 C573 0.479 . S
C2837 C657 0.447 . S
C2843 C1075 0.369 . S
C2857 C730 0.430 . S
C2863 C1652 0.384 . S
C2877 C814 0.391 . S
C2883 C56 0.385 . S
C2897 C1484 0.374 . S
C2903 C898 0.442 . S
C2917 C224 0.377 . S
C2923 C982 0.396 . S
C2937 C1066 0.457 . S
C2943 C1820 0.316 . S
C2957 C1150 0.434 . S
C2963 C560 0.381 . S
C2977 C1234 0.402 . S
C2983 C1988 0.400 . S
C2997 C392 0.375 . S
C3003 C1318 0.398 . S
C3017 C991 0.397 . S
C3023 C1413 0.387 . S
C3037 C2083 0.394 . S
C3043 C1497 0.415 . S
C3057 C823 0.353 . S
C3063 C1581 0.417 . S
C3077 C1665 0.475 . S
C3083 C2251 0.332 . S
C3097 C1159 0.397 . S
C3103 C1749 0.387 . S
C3117 C2587 0.309 . S
C3123 C1833 0.477 . S
C3137 C1327 0.384 . S
C3143 C1917 0.392 . S
C3157 C2001 0.462 . S
C3163 C2419 0.352 . S
C3177 C2074 0.477 . S
C3183 C308 0.309 . S
C3197 C2158 0.479 . S
C3203 C1400 0.315 . S
C3217 C2242 0.389 . S
C3223 C140 0.400 . S
C3237 C2326 0.461 . S
C3243 C1568 0.314 . S
C3257 C476 0.361 . S
C3263 C2410 0.455 . S
C3277 C1904 0.321 . S
C3283 C2494 0.479 . S
C3297 C2578 0.448 . S
C3303 C644 0.323 . S
C3317 C2662 0.389 . S
C3323 C1736 0.400 . S
C3337 C74 3.222 . S
C3343 C1586 3.221 . S
C3357 C1670 3.213 . S
C3363 C158 3.212 . S
C3377 C242 3.221 . S
C3383 C1418 3.221 . S
C3397 C326 3.213 . S
C3403 C1502 3.215 . S
C3417 C1922 3.212 . S
C3423 C410 3.213 . S
C3437 C494 3.217 . S
C3443 C2006 3.215 . S
C3457 C1754 3.214 . S
C3463 C578 3.215 . S
C3477 C662 3.214 . S
C3483 C1838 3.213 . S
C3497 C2247 3.213 . S
C3503 C735 3.212 . S
C3517 C819 3.215 . S
C3523 C2331 3.213 . S
C3537 C903 3.219 . S
C3543 C2079 3.221 . S
C3557 C987 3.213 . S
C3563 C2163 3.212 . S
C3577 C2583 3.215 . S
C3583 C1071 3.214 . S
C3597 C2667 3.211 . S
C3603 C1155 3.212 . S
C3617 C1239 3.222 . S
C3623 C2415 3.222 . S
C3637 C1323 3.220 . S
C3643 C2499 3.218 . S
C3657 C67 2.765 . S
C3663 C2072 2.765 . S
C3677 C812 2.765 . S
C3683 C151 2.765 . S
C3697 C235 2.764 . S
C3703 C2240 2.764 . S
C3717 C319 2.765 . S
C3723 C980 2.765 . S
C3737 C2408 2.763 . S
C3743 C403 2.763 . S
C3757 C1148 2.765 . S
C3763 C487 2.765 . S
C3777 C571 2.766 . S
C3783 C2576 2.766 . S
C3797 C655 2.761 . S
C3803 C1316 2.761 . S
C3817 C1411 2.766 . S
C3823 C728 2.766 . S
C3837 C1579 2.761 . S
C3843 C896 2.761 . S
C3857 C1747 2.765 . S
C3863 C1064 2.765 . S
C3877 C1232 2.765 . S
C3883 C1915 2.765 . S
C3897 C1495 2.766 . S
C3903 C2156 2.766 . S
C3917 C1663 2.763 . S
C3923 C2324 2.763 . S
C3937 C2492 2.767 . S
C3943 C1831 2.767 . S
C3957 C2660 2.766 . S
C3963 C1999 2.766 . S
C3977 C63 4.202 . S
C3983 C483 4.201 1_545 S
C3997 C567 4.202 . S
C4003 C147 4.201 1_545 S
C4017 C651 4.189 1_565 S
C4023 C231 4.189 . S
C4037 C399 4.189 . S
C4043 C315 4.189 1_565 S
C4057 C746 4.194 . S
C4063 C1166 4.192 1_565 S
C4077 C830 4.199 1_565 S
C4083 C1250 4.197 . S
C4097 C1334 4.202 1_545 S
C4103 C914 4.201 . S
C4117 C998 4.192 1_545 S
C4123 C1082 4.194 . S
C4137 C1407 4.201 . S
C4143 C1827 4.199 . S
C4157 C1491 4.190 . S
C4163 C1911 4.191 . S
C4177 C1575 4.192 . S
C4183 C1995 4.194 . S
C4197 C1743 4.201 . S
C4203 C1659 4.202 . S
C4217 C2090 4.200 . S
C4223 C2510 4.198 . S
C4237 C2174 4.190 . S
C4243 C2594 4.191 . S
C4257 C2678 4.190 . S
C4263 C2258 4.189 . S
C4277 C2342 4.195 . S
C4283 C2426 4.197 . S
C4297 C58 0.950 . S
C4303 C394 0.920 . S
C4317 C142 0.905 . S
C4323 C478 0.915 . S
C4337 C562 0.888 . S
C4343 C226 0.941 . S
C4357 C646 0.893 . S
C4363 C310 0.957 . S
C4377 C741 0.916 . S
C4383 C1077 0.952 . S
C4397 C1161 0.910 . S
C4403 C825 0.955 . S
C4417 C1245 0.922 . S
C4423 C909 0.949 . S
C4437 C1329 0.950 . S
C4443 C993 0.919 . S
C4457 C1402 0.947 . S
C4463 C1738 0.925 . S
C4477 C1822 0.888 . S
C4483 C1486 0.942 . S
C4497 C1570 0.954 . S
C4503 C1906 0.889 . S
C4517 C1990 0.951 . S
C4523 C1654 0.917 . S
C4537 C2421 0.890 . S
C4543 C2085 0.956 . S
C4557 C2169 0.958 . S
C4563 C2505 0.899 . S
C4577 C2253 0.923 . S
C4583 C2589 0.898 . S
C4597 C2337 0.903 . S
C4603 C2673 0.957 . S
