# Generated by pormake.
# Topology unh, (4)-cn, num edge types: 1
# Building blocks:
#     Node 0, Type 0, BuildingBlock: KOZSID_clean_sbu_0, # of connection points: 4
#     Node 1, Type 0, BuildingBlock: KOZSID_clean_sbu_0, # of connection points: 4
#     Node 2, Type 0, BuildingBlock: KOZSID_clean_sbu_0, # of connection points: 4
#     Node 3, Type 0, BuildingBlock: KOZSID_clean_sbu_0, # of connection points: 4
#     Node 4, Type 0, BuildingBlock: KOZSID_clean_sbu_0, # of connection points: 4
#     Node 5, Type 0, BuildingBlock: KOZSID_clean_sbu_0, # of connection points: 4
#     Edge 6, Type (0, 0), BuildingBlock: AJUNOK_clean_linker_0, # of connection points: 2
#     Edge 7, Type (0, 0), BuildingBlock: AJUNOK_clean_linker_0, # of connection points: 2
#     Edge 8, Type (0, 0), BuildingBlock: AJUNOK_clean_linker_0, # of connection points: 2
#     Edge 9, Type (0, 0), BuildingBlock: AJUNOK_clean_linker_0, # of connection points: 2
#     Edge 10, Type (0, 0), BuildingBlock: AJUNOK_clean_linker_0, # of connection points: 2
#     Edge 11, Type (0, 0), BuildingBlock: AJUNOK_clean_linker_0, # of connection points: 2
#     Edge 12, Type (0, 0), BuildingBlock: AJUNOK_clean_linker_0, # of connection points: 2
#     Edge 13, Type (0, 0), BuildingBlock: AJUNOK_clean_linker_0, # of connection points: 2
#     Edge 14, Type (0, 0), BuildingBlock: AJUNOK_clean_linker_0, # of connection points: 2
#     Edge 15, Type (0, 0), BuildingBlock: AJUNOK_clean_linker_0, # of connection points: 2
#     Edge 16, Type (0, 0), BuildingBlock: AJUNOK_clean_linker_0, # of connection points: 2
#     Edge 17, Type (0, 0), BuildingBlock: AJUNOK_clean_linker_0, # of connection points: 2
# Relax obj value: 0.013
# Max RMSD: 0.283
# Mean RMSD: 0.251
data_MOF--net-unh--node1-KOZSID_clean_sbu_0--edge1-AJUNOK_clean_linker_0
_symmetry_space_group_name_H-M    P1
_symmetry_Int_Tables_number       1
_symmetry_cell_setting            triclinic
loop_
_symmetry_equiv_pos_as_xyz
'x, y, z'
_cell_length_a     41.125427
_cell_length_b     45.807441
_cell_length_c     17.890689
_cell_angle_alpha  90.269446
_cell_angle_beta   89.685972
_cell_angle_gamma 120.36749
loop_
_atom_site_label
_atom_site_type_symbol
_atom_site_fract_x
_atom_site_fract_y
_atom_site_fract_z
_atom_type_partial_charge
C0 C 0.25448 0.63554 0.22466 0.0
C1 C 0.27318 0.66572 0.26421 0.0
C2 C 0.25815 0.68494 0.24206 0.0
C3 C 0.23131 0.66563 0.19015 0.0
N4 N 0.22751 0.63491 0.17918 0.0
Co5 Co 0.19584 0.60202 0.09891 0.0
N6 N 0.16975 0.62769 0.07458 0.0
C7 C 0.1805 0.65926 0.09799 0.0
C8 C 0.15853 0.67137 0.07038 0.0
C9 C 0.13226 0.64591 0.02636 0.0
C10 C 0.13947 0.61944 0.03001 0.0
N11 N 0.16536 0.56959 0.01768 0.0
C12 C 0.13447 0.5654 0.98081 0.0
C13 C 0.11943 0.53683 0.93528 0.0
C14 C 0.14245 0.52363 0.94103 0.0
C15 C 0.16965 0.54412 0.99094 0.0
N16 N 0.22089 0.57546 0.12428 0.0
C17 C 0.21673 0.548 0.08778 0.0
C18 C 0.23457 0.5331 0.12124 0.0
C19 C 0.25206 0.55282 0.18205 0.0
C20 C 0.24443 0.5791 0.1812 0.0
N21 N 0.1554 0.57521 0.17248 0.0
C22 C 0.09399 0.5386 0.27135 0.0
C23 C 0.10491 0.52186 0.21999 0.0
C24 C 0.13567 0.54053 0.17158 0.0
C25 C 0.11515 0.57401 0.2731 0.0
C26 C 0.14534 0.59166 0.22349 0.0
N27 N 0.23623 0.63017 0.0262 0.0
C28 C 0.3028 0.66979 1.01112 0.0
C29 C 0.29581 0.68723 0.95574 0.0
C30 C 0.25855 0.67318 0.93024 0.0
C31 C 0.22926 0.64431 0.96547 0.0
C32 C 0.27288 0.64138 0.04449 0.0
H33 H 0.20083 0.63494 0.94656 0.0
H34 H 0.27951 0.63028 0.08906 0.0
H35 H 0.14298 0.52671 0.13296 0.0
H36 H 0.15995 0.6188 0.22578 0.0
C37 C 0.20948 0.67557 0.15001 0.0
C38 C 0.2666 0.61026 0.2245 0.0
C39 C 0.11923 0.58834 0.98482 0.0
C40 C 0.19399 0.53566 0.02513 0.0
H41 H 0.29643 0.67374 0.30254 0.0
H42 H 0.26664 0.71041 0.25998 0.0
H43 H 0.16113 0.69572 0.0813 0.0
H44 H 0.11077 0.64704 0.99402 0.0
H45 H 0.09399 0.52599 0.90228 0.0
H46 H 0.13831 0.50048 0.91576 0.0
H47 H 0.23505 0.51073 0.10324 0.0
H48 H 0.27046 0.54959 0.21991 0.0
H49 H 0.08986 0.49449 0.21726 0.0
H50 H 0.1078 0.58818 0.31138 0.0
H51 H 0.33117 0.67895 0.0312 0.0
H52 H 0.25168 0.68546 0.88662 0.0
C53 C 0.6344 0.22586 0.38525 0.0
C54 C 0.6143 0.23385 0.43545 0.0
C55 C 0.57754 0.20774 0.43231 0.0
C56 C 0.57725 0.18535 0.38043 0.0
N57 N 0.61155 0.19562 0.35137 0.0
Co58 Co 0.6238 0.17298 0.26965 0.0
N59 N 0.57006 0.14469 0.23961 0.0
C60 C 0.54023 0.14037 0.28041 0.0
C61 C 0.50636 0.11973 0.24623 0.0
C62 C 0.51523 0.1096 0.18094 0.0
C63 C 0.55417 0.12409 0.1795 0.0
N64 N 0.63715 0.152 0.18567 0.0
C65 C 0.61565 0.13078 0.12976 0.0
C66 C 0.63653 0.12045 0.08727 0.0
C67 C 0.67163 0.13501 0.11813 0.0
C68 C 0.67052 0.15332 0.17771 0.0
N69 N 0.6771 0.20035 0.30197 0.0
C70 C 0.70512 0.19445 0.28469 0.0
C71 C 0.73929 0.2184 0.31348 0.0
C72 C 0.73237 0.24098 0.35048 0.0
C73 C 0.69425 0.22947 0.34188 0.0
N74 N 0.61617 0.13584 0.33813 0.0
C75 C 0.59314 0.07979 0.43631 0.0
C76 C 0.5953 0.07669 0.35844 0.0
C77 C 0.60518 0.10416 0.31111 0.0
C78 C 0.60517 0.11273 0.46334 0.0
C79 C 0.61819 0.14029 0.41407 0.0
N80 N 0.63053 0.20992 0.2033 0.0
C81 C 0.67209 0.26187 0.13775 0.0
C82 C 0.64525 0.27217 0.14332 0.0
C83 C 0.60987 0.24917 0.17304 0.0
C84 C 0.6031 0.21843 0.20219 0.0
C85 C 0.6641 0.23054 0.16782 0.0
H86 H 0.57623 0.20271 0.22834 0.0
H87 H 0.68584 0.22397 0.16627 0.0
H88 H 0.6027 0.09879 0.25253 0.0
H89 H 0.6284 0.165 0.43822 0.0
C90 C 0.54525 0.15903 0.34614 0.0
C91 C 0.67519 0.24674 0.37167 0.0
C92 C 0.57421 0.11448 0.12489 0.0
C93 C 0.70025 0.17207 0.22698 0.0
H94 H 0.62496 0.25639 0.46961 0.0
H95 H 0.55356 0.20637 0.46096 0.0
H96 H 0.47854 0.11314 0.26591 0.0
H97 H 0.49518 0.09247 0.14031 0.0
H98 H 0.62708 0.1025 0.04169 0.0
H99 H 0.69482 0.13175 0.10055 0.0
H100 H 0.76648 0.22065 0.30397 0.0
H101 H 0.75314 0.26379 0.37858 0.0
H102 H 0.58841 0.05291 0.3325 0.0
H103 H 0.60357 0.11785 0.52162 0.0
H104 H 0.69981 0.27865 0.11468 0.0
H105 H 0.58778 0.25541 0.17647 0.0
C106 C 0.44251 0.63347 0.31388 0.0
C107 C 0.46005 0.66049 0.2649 0.0
C108 C 0.49762 0.6702 0.26409 0.0
C109 C 0.50105 0.64885 0.31305 0.0
N110 N 0.46794 0.62625 0.34403 0.0
Co111 Co 0.46021 0.59424 0.42633 0.0
N112 N 0.51481 0.61799 0.45126 0.0
C113 C 0.54281 0.641 0.40743 0.0
C114 C 0.57787 0.65316 0.43794 0.0
C115 C 0.57174 0.6361 0.50397 0.0
C116 C 0.53315 0.61392 0.50962 0.0
N117 N 0.45105 0.56294 0.51149 0.0
C118 C 0.47458 0.56391 0.56588 0.0
C119 C 0.45641 0.53514 0.61059 0.0
C120 C 0.42105 0.51541 0.58246 0.0
C121 C 0.41929 0.53287 0.52235 0.0
N122 N 0.4062 0.56942 0.39864 0.0
C123 C 0.38077 0.53734 0.41685 0.0
C124 C 0.34561 0.52679 0.38834 0.0
C125 C 0.34907 0.55413 0.35053 0.0
C126 C 0.38627 0.57992 0.35876 0.0
N127 N 0.46945 0.56489 0.35729 0.0
C128 C 0.49583 0.53263 0.25705 0.0
C129 C 0.49473 0.52795 0.33492 0.0
C130 C 0.48307 0.54504 0.38327 0.0
C131 C 0.48097 0.5526 0.23127 0.0
C132 C 0.46637 0.56683 0.28153 0.0
N133 N 0.45213 0.62471 0.49277 0.0
C134 C 0.40977 0.63866 0.55735 0.0
C135 C 0.43688 0.67325 0.55445 0.0
C136 C 0.4722 0.6827 0.52462 0.0
C137 C 0.47922 0.65833 0.49438 0.0
C138 C 0.41815 0.61468 0.52695 0.0
H139 H 0.50614 0.66746 0.46828 0.0
H140 H 0.39658 0.58829 0.52809 0.0
H141 H 0.48635 0.54246 0.44172 0.0
H142 H 0.45408 0.58067 0.25818 0.0
C143 C 0.5348 0.65381 0.34338 0.0
C144 C 0.40166 0.61418 0.32948 0.0
C145 C 0.51574 0.58724 0.56693 0.0
C146 C 0.38847 0.52155 0.47467 0.0
H147 H 0.44724 0.67236 0.23419 0.0
H148 H 0.52007 0.6917 0.2351 0.0
H149 H 0.60466 0.67254 0.41559 0.0
H150 H 0.59334 0.63893 0.54252 0.0
H151 H 0.46792 0.5276 0.65566 0.0
H152 H 0.39964 0.49068 0.60194 0.0
H153 H 0.31994 0.50298 0.39834 0.0
H154 H 0.32654 0.55523 0.32216 0.0
H155 H 0.5038 0.51187 0.36006 0.0
H156 H 0.48151 0.55885 0.17318 0.0
H157 H 0.38219 0.63032 0.58119 0.0
H158 H 0.49401 0.70914 0.52209 0.0
C159 C 0.83584 0.43127 0.72438 0.0
C160 C 0.82703 0.407 0.77903 0.0
C161 C 0.85729 0.40208 0.78364 0.0
C162 C 0.88265 0.42317 0.73092 0.0
N163 N 0.87017 0.44093 0.6934 0.0
Co164 Co 0.89531 0.4707 0.60554 0.0
N165 N 0.93024 0.45294 0.5905 0.0
C166 C 0.93738 0.43548 0.64188 0.0
C167 C 0.96484 0.42864 0.61958 0.0
C168 C 0.9763 0.44327 0.55053 0.0
C169 C 0.95515 0.45832 0.5344 0.0
N170 N 0.91859 0.49945 0.51527 0.0
C171 C 0.94203 0.49872 0.46234 0.0
C172 C 0.9516 0.52401 0.40954 0.0
C173 C 0.93456 0.54169 0.43121 0.0
C174 C 0.91542 0.52626 0.49547 0.0
N175 N 0.86222 0.49 0.62263 0.0
C176 C 0.86804 0.51967 0.59577 0.0
C177 C 0.84206 0.52785 0.62067 0.0
C178 C 0.81822 0.5016 0.66584 0.0
C179 C 0.83086 0.4786 0.66524 0.0
N180 N 0.93402 0.50613 0.67142 0.0
C181 C 0.99328 0.54533 0.7738 0.0
C182 C 0.9994 0.54731 0.69586 0.0
C183 C 0.9701 0.52693 0.64658 0.0
C184 C 0.95555 0.52509 0.79758 0.0
C185 C 0.92652 0.50726 0.7457 0.0
N186 N 0.85653 0.43423 0.54269 0.0
C187 C 0.79971 0.41079 0.46827 0.0
C188 C 0.79258 0.37773 0.48055 0.0
C189 C 0.81932 0.37403 0.5207 0.0
C190 C 0.85077 0.40224 0.55068 0.0
C191 C 0.83193 0.43873 0.49969 0.0
H192 H 0.86936 0.39758 0.58369 0.0
H193 H 0.83613 0.46375 0.49162 0.0
H194 H 0.97746 0.52731 0.58877 0.0
H195 H 0.89816 0.49279 0.76704 0.0
C196 C 0.91477 0.42269 0.70609 0.0
C197 C 0.81255 0.44643 0.70602 0.0
C198 C 0.96147 0.47929 0.46767 0.0
C199 C 0.89316 0.53544 0.5369 0.0
H200 H 0.80143 0.39403 0.81182 0.0
H201 H 0.85961 0.38402 0.81865 0.0
H202 H 0.97496 0.4143 0.64941 0.0
H203 H 0.99812 0.4433 0.51636 0.0
H204 H 0.97059 0.53027 0.36244 0.0
H205 H 0.93636 0.5635 0.4039 0.0
H206 H 0.83959 0.54944 0.60499 0.0
H207 H 0.79402 0.49952 0.69495 0.0
H208 H 1.027 0.56349 0.67199 0.0
H209 H 0.94782 0.52115 0.85585 0.0
H210 H 0.77994 0.41497 0.43707 0.0
H211 H 0.81562 0.34919 0.53029 0.0
C212 C 0.4502 0.84395 0.8793 0.0
C213 C 0.46917 0.83477 0.92905 0.0
C214 C 0.50618 0.8605 0.92831 0.0
C215 C 0.50783 0.88383 0.878 0.0
N216 N 0.47412 0.87446 0.84766 0.0
Co217 Co 0.464 0.89808 0.76573 0.0
N218 N 0.51824 0.92569 0.73832 0.0
C219 C 0.54717 0.92941 0.78069 0.0
C220 C 0.58171 0.95003 0.74852 0.0
C221 C 0.57422 0.96076 0.68295 0.0
C222 C 0.53537 0.94658 0.67926 0.0
N223 N 0.45257 0.91992 0.68155 0.0
C224 C 0.47511 0.94098 0.62652 0.0
C225 C 0.45539 0.95205 0.58322 0.0
C226 C 0.41999 0.93815 0.61278 0.0
C227 C 0.41976 0.91946 0.67237 0.0
N228 N 0.41016 0.87155 0.79546 0.0
C229 C 0.38307 0.87849 0.77787 0.0
C230 C 0.34835 0.85527 0.8061 0.0
C231 C 0.35392 0.83204 0.84306 0.0
C232 C 0.39182 0.84245 0.83476 0.0
N233 N 0.47167 0.9353 0.83495 0.0
C234 C 0.49673 0.99146 0.93468 0.0
C235 C 0.49511 0.99493 0.8569 0.0
C236 C 0.48409 0.96732 0.80878 0.0
C237 C 0.48297 0.95815 0.96078 0.0
C238 C 0.46901 0.93063 0.9108 0.0
N239 N 0.45757 0.86107 0.69879 0.0
C240 C 0.41695 0.80961 0.6302 0.0
C241 C 0.44302 0.79855 0.63875 0.0
C242 C 0.47786 0.82116 0.67068 0.0
C243 C 0.48462 0.85206 0.69945 0.0
C244 C 0.4247 0.84093 0.66102 0.0
H245 H 0.51107 0.86742 0.72698 0.0
H246 H 0.40327 0.84788 0.65812 0.0
H247 H 0.48697 0.97284 0.75029 0.0
H248 H 0.45765 0.90572 0.93432 0.0
C249 C 0.54068 0.91013 0.84574 0.0
C250 C 0.40947 0.82402 0.8637 0.0
C251 C 0.51651 0.95656 0.62345 0.0
C252 C 0.38926 0.90122 0.72057 0.0
H253 H 0.45777 0.81171 0.96122 0.0
H254 H 0.52949 0.86097 0.95723 0.0
H255 H 0.60908 0.9562 0.76967 0.0
H256 H 0.59509 0.97802 0.64355 0.0
H257 H 0.4658 0.97012 0.53804 0.0
H258 H 0.39748 0.94211 0.5944 0.0
H259 H 0.32168 0.85394 0.79633 0.0
H260 H 0.33243 0.80951 0.87087 0.0
H261 H 0.5033 1.01907 0.83163 0.0
H262 H 0.48394 0.95262 0.01888 0.0
H263 H 0.38979 0.79331 0.60474 0.0
H264 H 0.49952 0.81449 0.67613 0.0
C265 C 0.64244 0.43141 0.80541 0.0
C266 C 0.62316 0.40388 0.75809 0.0
C267 C 0.58597 0.3954 0.76034 0.0
C268 C 0.58445 0.4179 0.80932 0.0
N269 N 0.61839 0.44011 0.83756 0.0
Co270 Co 0.62863 0.47351 0.91907 0.0
N271 N 0.57461 0.4513 0.94877 0.0
C272 C 0.54548 0.42803 0.90771 0.0
C273 C 0.5112 0.41671 0.94172 0.0
C274 C 0.51905 0.4346 1.00717 0.0
C275 C 0.5578 0.45649 1.00892 0.0
N276 N 0.64024 0.50614 1.00317 0.0
C277 C 0.61802 0.50661 0.05938 0.0
C278 C 0.63768 0.53593 0.10207 0.0
C279 C 0.67268 0.55452 0.07092 0.0
C280 C 0.67275 0.53587 1.01105 0.0
N281 N 0.68205 0.49655 0.88672 0.0
C282 C 0.70851 0.52862 0.90243 0.0
C283 C 0.74276 0.53799 0.87012 0.0
C284 C 0.73754 0.50985 0.83237 0.0
C285 C 0.70036 0.48477 0.84466 0.0
N286 N 0.61963 0.50281 0.85061 0.0
C287 C 0.59582 0.53732 0.75283 0.0
C288 C 0.59791 0.54239 0.83064 0.0
C289 C 0.60807 0.52412 0.87781 0.0
C290 C 0.60821 0.51558 0.7256 0.0
C291 C 0.62162 0.50016 0.77464 0.0
N292 N 0.63667 0.44351 0.98549 0.0
C293 C 0.67847 0.43062 0.05382 0.0
C294 C 0.65134 0.39606 0.05252 0.0
C295 C 0.61627 0.38608 0.02134 0.0
C296 C 0.60952 0.40998 0.98845 0.0
C297 C 0.67043 0.45408 0.02042 0.0
H298 H 0.58276 0.40062 0.96184 0.0
H299 H 0.69202 0.48046 0.02006 0.0
H300 H 0.60542 0.52714 0.93641 0.0
H301 H 0.63219 0.48502 0.7503 0.0
C302 C 0.55172 0.41418 0.84283 0.0
C303 C 0.68356 0.44982 0.81775 0.0
C304 C 0.57673 0.48404 0.06419 0.0
C305 C 0.70259 0.54571 0.96072 0.0
H306 H 0.63437 0.39071 0.72669 0.0
H307 H 0.56252 0.37388 0.73354 0.0
H308 H 0.48382 0.39731 0.92203 0.0
H309 H 0.49843 0.43253 0.04788 0.0
H310 H 0.62737 0.54452 0.14783 0.0
H311 H 0.69495 0.57928 0.08833 0.0
H312 H 0.76903 0.56159 0.87732 0.0
H313 H 0.75895 0.50772 0.80155 0.0
H314 H 0.59073 0.55972 0.85671 0.0
H315 H 0.60664 0.50897 0.66736 0.0
H316 H 0.70586 0.43928 0.07851 0.0
H317 H 0.5945 0.35961 0.01996 0.0
C318 C 0.09277 0.5797 0.85446 0.0
C319 C 0.0884 0.58302 0.93143 0.0
C320 C 0.06239 0.56821 0.80483 0.0
C321 C 1.02628 0.56153 0.82818 0.0
H322 H 0.11949 0.58393 0.83295 0.0
H323 H 0.06753 0.56323 0.74825 0.0
S324 S 1.00349 0.57561 0.02257 0.0
N325 N 0.04704 0.58297 0.02827 0.0
N326 N 0.99136 0.56645 0.93401 0.0
C327 C 1.02299 0.56867 0.90438 0.0
C328 C 0.05364 0.57847 0.95584 0.0
C329 C 0.54038 0.05487 0.95567 0.0
C330 C 0.51442 1.02258 0.98549 0.0
C331 C 0.55793 0.08426 1.00009 0.0
C332 C 0.55251 0.08298 0.07774 0.0
H333 H 0.54839 0.05799 0.8974 0.0
H334 H 0.57707 0.10817 0.97356 0.0
S335 S 0.48825 1.00646 0.18751 0.0
N336 N 0.48244 0.99291 0.10029 0.0
N337 N 0.52038 0.04699 0.18409 0.0
C338 C 0.52744 0.05125 0.1094 0.0
C339 C 0.5075 1.02148 0.06357 0.0
C340 C 0.54083 0.51035 0.23478 0.0
C341 C 0.51413 0.51825 0.2057 0.0
C342 C 0.55918 0.49781 0.1897 0.0
C343 C 0.55388 0.4944 0.11209 0.0
H344 H 0.54887 0.51452 0.29291 0.0
H345 H 0.57894 0.49195 0.21563 0.0
S346 S 0.48768 0.51041 1.00417 0.0
N347 N 0.4814 0.51802 0.09169 0.0
N348 N 0.52091 0.50038 1.0066 0.0
C349 C 0.52799 0.50246 0.08117 0.0
C350 C 0.5072 0.51308 0.1277 0.0
C351 C 1.03158 0.51372 0.44622 0.0
C352 C 0.99563 0.48992 0.41926 0.0
C353 C 0.06332 0.52841 0.39872 0.0
C354 C 0.06052 0.51987 0.32219 0.0
H355 H 1.03491 0.52198 0.50394 0.0
H356 H 0.09022 0.54717 0.42183 0.0
S357 S 0.97248 0.45868 0.22439 0.0
N358 N 0.95899 0.45821 0.31176 0.0
N359 N 1.01838 0.48558 0.22237 0.0
C360 C 1.02478 0.49534 0.29518 0.0
C361 C 0.99246 0.48051 0.34362 0.0
C362 C 0.55165 1.01612 0.45549 0.0
C363 C 0.57645 0.04856 0.48619 0.0
C364 C 0.53453 0.98666 0.49923 0.0
C365 C 0.53912 0.98796 0.577 0.0
H366 H 0.544 1.01294 0.39713 0.0
H367 H 0.51598 0.96267 0.47223 0.0
S368 S 0.60107 0.0647 0.68855 0.0
N369 N 0.6072 0.0784 0.6016 0.0
N370 N 0.56981 1.02394 0.68424 0.0
C371 C 0.56339 1.01974 0.60943 0.0
C372 C 0.58298 0.04966 0.56426 0.0
C373 C 0.55355 0.56249 0.73446 0.0
C374 C 0.57867 0.55297 0.70327 0.0
C375 C 0.53569 0.57566 0.69091 0.0
C376 C 0.53977 0.57802 0.61298 0.0
H377 H 0.54612 0.55888 0.79301 0.0
H378 H 0.51677 0.58237 0.71818 0.0
S379 S 0.60271 0.55883 0.50032 0.0
N380 N 0.60952 0.55137 0.58727 0.0
N381 N 0.57066 0.5703 0.50512 0.0
C382 C 0.56454 0.56889 0.58011 0.0
C383 C 0.58493 0.55761 0.62501 0.0
C384 C 0.31557 0.62406 0.32504 0.0
C385 C 0.30576 0.61931 0.24889 0.0
C386 C 0.34916 0.6262 0.35013 0.0
C387 C 0.37416 0.62351 0.3001 0.0
H388 H 0.29609 0.62406 0.36602 0.0
H389 H 0.3543 0.6275 0.40973 0.0
S390 S 0.36273 0.61216 0.09504 0.0
N391 N 0.32557 0.614 0.12331 0.0
N392 N 0.38725 0.6166 0.17119 0.0
C393 C 0.36569 0.62043 0.22374 0.0
C394 C 0.33188 0.61867 0.198 0.0
C395 C 0.70868 0.28745 0.47706 0.0
C396 C 0.6987 0.28204 0.40116 0.0
C397 C 0.73756 0.31909 0.50277 0.0
C398 C 0.75775 0.34664 0.45366 0.0
H399 H 0.69552 0.26657 0.51606 0.0
H400 H 0.7452 0.32162 0.56129 0.0
S401 S 0.74054 0.34587 0.25018 0.0
N402 N 0.70974 0.30713 0.27793 0.0
N403 N 0.76382 0.36652 0.32585 0.0
C404 C 0.74656 0.34197 0.37832 0.0
C405 C 0.71724 0.30967 0.3522 0.0
C406 C 0.4444 0.74573 0.67053 0.0
C407 C 0.43437 0.76336 0.61968 0.0
C408 C 0.44234 0.71506 0.65112 0.0
C409 C 0.42959 0.70035 0.58044 0.0
H410 H 0.45534 0.7564 0.72513 0.0
H411 H 0.45253 0.70361 0.69041 0.0
S412 S 0.3969 0.73405 0.42869 0.0
N413 N 0.40889 0.7622 0.49666 0.0
N414 N 0.4047 0.70438 0.4608 0.0
C415 C 0.41739 0.71647 0.53055 0.0
C416 C 0.41964 0.74789 0.55012 0.0
C417 C 0.71322 0.43121 0.71784 0.0
C418 C 0.70966 0.43745 0.7937 0.0
C419 C 0.74461 0.42951 0.69166 0.0
C420 C 0.77446 0.43532 0.73961 0.0
H421 H 0.69352 0.43063 0.67718 0.0
H422 H 0.74743 0.4271 0.63203 0.0
S423 S 0.77771 0.45088 0.94385 0.0
N424 N 0.7369 0.4461 0.91746 0.0
N425 N 0.7973 0.44619 0.8674 0.0
C426 C 0.77016 0.43962 0.81619 0.0
C427 C 0.7375 0.43997 0.84324 0.0
C428 C 0.37785 0.77855 0.96182 0.0
C429 C 0.38461 0.78777 0.88606 0.0
C430 C 0.34976 0.7458 0.98343 0.0
C431 C 0.32685 0.72108 0.93024 0.0
H432 H 0.39328 0.79715 1.00481 0.0
H433 H 0.34502 0.74018 0.04258 0.0
S434 S 0.33434 0.73225 0.72461 0.0
N435 N 0.36674 0.76932 0.75796 0.0
N436 N 0.31429 0.70794 0.79823 0.0
C437 C 0.33387 0.72985 0.85435 0.0
C438 C 0.36258 0.7631 0.83246 0.0
C439 C 0.64418 0.35484 0.15099 0.0
C440 C 0.65855 0.36946 0.08094 0.0
C441 C 0.64207 0.32442 0.17192 0.0
C442 C 0.65366 0.30703 0.12316 0.0
H443 H 0.63281 0.36615 0.18842 0.0
H444 H 0.62992 0.31375 0.22591 0.0
S445 S 0.69558 0.3363 0.93474 0.0
N446 N 0.68655 0.3657 0.96431 0.0
N447 N 0.68227 0.30829 1.00297 0.0
C448 C 0.66998 0.32246 0.05439 0.0
C449 C 0.6723 0.35362 0.03333 0.0
loop_
_geom_bond_atom_site_label_1
_geom_bond_atom_site_label_2
_geom_bond_distance
_geom_bond_site_symmetry_2
_ccdc_geom_bond_type
C0 C1 1.443 . S
C0 N4 1.376 . S
C0 C38 1.389 . S
C1 C0 1.443 . S
C1 C2 1.340 . S
C1 H41 0.951 . S
C2 C1 1.340 . S
C2 C3 1.439 . S
C2 H42 0.950 . S
C3 C2 1.439 . S
C3 N4 1.374 . S
C3 C37 1.395 . S
N4 C0 1.376 . S
N4 C3 1.374 . S
N4 Co5 2.008 . S
Co5 N4 2.008 . S
Co5 N6 1.995 . S
Co5 N11 2.008 . S
Co5 N16 1.995 . S
Co5 N21 2.282 . S
Co5 N27 2.282 . S
N6 Co5 1.995 . S
N6 C7 1.376 . S
N6 C10 1.383 . S
C7 N6 1.376 . S
C7 C8 1.446 . S
C7 C37 1.391 . S
C8 C7 1.446 . S
C8 C9 1.339 . S
C8 H43 0.949 . S
C9 C8 1.339 . S
C9 C10 1.439 . S
C9 H44 0.950 . S
C10 N6 1.383 . S
C10 C9 1.439 . S
C10 C39 1.392 . S
N11 Co5 2.008 . S
N11 C12 1.376 . S
N11 C15 1.374 . S
C12 N11 1.376 . S
C12 C13 1.443 1_554 S
C12 C39 1.389 . S
C13 C12 1.443 1_556 S
C13 C14 1.340 . S
C13 H45 0.951 . S
C14 C13 1.340 . S
C14 C15 1.439 1_556 S
C14 H46 0.950 . S
C15 N11 1.374 . S
C15 C14 1.439 1_554 S
C15 C40 1.395 . S
N16 Co5 1.995 . S
N16 C17 1.376 . S
N16 C20 1.383 . S
C17 N16 1.376 . S
C17 C18 1.446 . S
C17 C40 1.391 . S
C18 C17 1.446 . S
C18 C19 1.339 . S
C18 H47 0.949 . S
C19 C18 1.339 . S
C19 C20 1.439 . S
C19 H48 0.950 . S
C20 N16 1.383 . S
C20 C19 1.439 . S
C20 C38 1.392 . S
N21 Co5 2.282 . S
N21 C24 1.332 . S
N21 C26 1.332 . S
C22 C23 1.386 . S
C22 C25 1.388 . S
C23 C22 1.386 . S
C23 C24 1.382 . S
C23 H49 0.950 . S
C24 N21 1.332 . S
C24 C23 1.382 . S
C24 H35 0.952 . S
C25 C22 1.388 . S
C25 C26 1.382 . S
C25 H50 0.950 . S
C26 N21 1.332 . S
C26 C25 1.382 . S
C26 H36 0.948 . S
N27 Co5 2.282 . S
N27 C31 1.332 . S
N27 C32 1.332 1_554 S
C28 C29 1.388 . S
C28 C32 1.382 . S
C28 H51 0.950 . S
C29 C28 1.388 . S
C29 C30 1.386 . S
C30 C29 1.386 . S
C30 C31 1.382 1_556 S
C30 H52 0.950 . S
C31 N27 1.332 . S
C31 C30 1.382 1_554 S
C31 H33 0.952 . S
C32 N27 1.332 1_556 S
C32 C28 1.382 . S
C32 H34 0.948 . S
H33 C31 0.952 . S
H34 C32 0.948 . S
H35 C24 0.952 . S
H36 C26 0.948 . S
C37 C3 1.395 . S
C37 C7 1.391 . S
C38 C0 1.389 . S
C38 C20 1.392 . S
C39 C10 1.392 . S
C39 C12 1.389 . S
C40 C15 1.395 . S
C40 C17 1.391 . S
H41 C1 0.951 . S
H42 C2 0.950 . S
H43 C8 0.949 . S
H44 C9 0.950 . S
H45 C13 0.951 . S
H46 C14 0.950 . S
H47 C18 0.949 . S
H48 C19 0.950 . S
H49 C23 0.950 . S
H50 C25 0.950 . S
H51 C28 0.950 . S
H52 C30 0.950 . S
C53 C54 1.443 . S
C53 N57 1.376 . S
C53 C91 1.389 . S
C54 C53 1.443 . S
C54 C55 1.340 . S
C54 H94 0.951 . S
C55 C54 1.340 . S
C55 C56 1.439 . S
C55 H95 0.950 . S
C56 C55 1.439 . S
C56 N57 1.374 . S
C56 C90 1.395 . S
N57 C53 1.376 . S
N57 C56 1.374 . S
N57 Co58 2.008 . S
Co58 N57 2.008 . S
Co58 N59 1.995 . S
Co58 N64 2.008 . S
Co58 N69 1.995 . S
Co58 N74 2.282 . S
Co58 N80 2.282 . S
N59 Co58 1.995 . S
N59 C60 1.376 . S
N59 C63 1.383 . S
C60 N59 1.376 . S
C60 C61 1.446 . S
C60 C90 1.391 . S
C61 C60 1.446 . S
C61 C62 1.339 . S
C61 H96 0.949 . S
C62 C61 1.339 . S
C62 C63 1.439 . S
C62 H97 0.950 . S
C63 N59 1.383 . S
C63 C62 1.439 . S
C63 C92 1.392 . S
N64 Co58 2.008 . S
N64 C65 1.376 . S
N64 C68 1.374 . S
C65 N64 1.376 . S
C65 C66 1.443 . S
C65 C92 1.389 . S
C66 C65 1.443 . S
C66 C67 1.340 . S
C66 H98 0.951 . S
C67 C66 1.340 . S
C67 C68 1.439 . S
C67 H99 0.950 . S
C68 N64 1.374 . S
C68 C67 1.439 . S
C68 C93 1.395 . S
N69 Co58 1.995 . S
N69 C70 1.376 . S
N69 C73 1.383 . S
C70 N69 1.376 . S
C70 C71 1.446 . S
C70 C93 1.391 . S
C71 C70 1.446 . S
C71 C72 1.339 . S
C71 H100 0.949 . S
C72 C71 1.339 . S
C72 C73 1.439 . S
C72 H101 0.950 . S
C73 N69 1.383 . S
C73 C72 1.439 . S
C73 C91 1.392 . S
N74 Co58 2.282 . S
N74 C77 1.332 . S
N74 C79 1.332 . S
C75 C76 1.386 . S
C75 C78 1.388 . S
C76 C75 1.386 . S
C76 C77 1.382 . S
C76 H102 0.950 . S
C77 N74 1.332 . S
C77 C76 1.382 . S
C77 H88 0.952 . S
C78 C75 1.388 . S
C78 C79 1.382 . S
C78 H103 0.950 . S
C79 N74 1.332 . S
C79 C78 1.382 . S
C79 H89 0.948 . S
N80 Co58 2.282 . S
N80 C84 1.332 . S
N80 C85 1.332 . S
C81 C82 1.388 . S
C81 C85 1.382 . S
C81 H104 0.950 . S
C82 C81 1.388 . S
C82 C83 1.386 . S
C83 C82 1.386 . S
C83 C84 1.382 . S
C83 H105 0.950 . S
C84 N80 1.332 . S
C84 C83 1.382 . S
C84 H86 0.952 . S
C85 N80 1.332 . S
C85 C81 1.382 . S
C85 H87 0.948 . S
H86 C84 0.952 . S
H87 C85 0.948 . S
H88 C77 0.952 . S
H89 C79 0.948 . S
C90 C56 1.395 . S
C90 C60 1.391 . S
C91 C53 1.389 . S
C91 C73 1.392 . S
C92 C63 1.392 . S
C92 C65 1.389 . S
C93 C68 1.395 . S
C93 C70 1.391 . S
H94 C54 0.951 . S
H95 C55 0.950 . S
H96 C61 0.949 . S
H97 C62 0.950 . S
H98 C66 0.951 . S
H99 C67 0.950 . S
H100 C71 0.949 . S
H101 C72 0.950 . S
H102 C76 0.950 . S
H103 C78 0.950 . S
H104 C81 0.950 . S
H105 C83 0.950 . S
C106 C107 1.443 . S
C106 N110 1.376 . S
C106 C144 1.389 . S
C107 C106 1.443 . S
C107 C108 1.340 . S
C107 H147 0.951 . S
C108 C107 1.340 . S
C108 C109 1.439 . S
C108 H148 0.950 . S
C109 C108 1.439 . S
C109 N110 1.374 . S
C109 C143 1.395 . S
N110 C106 1.376 . S
N110 C109 1.374 . S
N110 Co111 2.008 . S
Co111 N110 2.008 . S
Co111 N112 1.995 . S
Co111 N117 2.008 . S
Co111 N122 1.995 . S
Co111 N127 2.282 . S
Co111 N133 2.282 . S
N112 Co111 1.995 . S
N112 C113 1.376 . S
N112 C116 1.383 . S
C113 N112 1.376 . S
C113 C114 1.446 . S
C113 C143 1.391 . S
C114 C113 1.446 . S
C114 C115 1.339 . S
C114 H149 0.949 . S
C115 C114 1.339 . S
C115 C116 1.439 . S
C115 H150 0.950 . S
C116 N112 1.383 . S
C116 C115 1.439 . S
C116 C145 1.392 . S
N117 Co111 2.008 . S
N117 C118 1.376 . S
N117 C121 1.374 . S
C118 N117 1.376 . S
C118 C119 1.443 . S
C118 C145 1.389 . S
C119 C118 1.443 . S
C119 C120 1.340 . S
C119 H151 0.951 . S
C120 C119 1.340 . S
C120 C121 1.439 . S
C120 H152 0.950 . S
C121 N117 1.374 . S
C121 C120 1.439 . S
C121 C146 1.395 . S
N122 Co111 1.995 . S
N122 C123 1.376 . S
N122 C126 1.383 . S
C123 N122 1.376 . S
C123 C124 1.446 . S
C123 C146 1.391 . S
C124 C123 1.446 . S
C124 C125 1.339 . S
C124 H153 0.949 . S
C125 C124 1.339 . S
C125 C126 1.439 . S
C125 H154 0.950 . S
C126 N122 1.383 . S
C126 C125 1.439 . S
C126 C144 1.392 . S
N127 Co111 2.282 . S
N127 C130 1.332 . S
N127 C132 1.332 . S
C128 C129 1.386 . S
C128 C131 1.388 . S
C129 C128 1.386 . S
C129 C130 1.382 . S
C129 H155 0.950 . S
C130 N127 1.332 . S
C130 C129 1.382 . S
C130 H141 0.952 . S
C131 C128 1.388 . S
C131 C132 1.382 . S
C131 H156 0.950 . S
C132 N127 1.332 . S
C132 C131 1.382 . S
C132 H142 0.948 . S
N133 Co111 2.282 . S
N133 C137 1.332 . S
N133 C138 1.332 . S
C134 C135 1.388 . S
C134 C138 1.382 . S
C134 H157 0.950 . S
C135 C134 1.388 . S
C135 C136 1.386 . S
C136 C135 1.386 . S
C136 C137 1.382 . S
C136 H158 0.950 . S
C137 N133 1.332 . S
C137 C136 1.382 . S
C137 H139 0.952 . S
C138 N133 1.332 . S
C138 C134 1.382 . S
C138 H140 0.948 . S
H139 C137 0.952 . S
H140 C138 0.948 . S
H141 C130 0.952 . S
H142 C132 0.948 . S
C143 C109 1.395 . S
C143 C113 1.391 . S
C144 C106 1.389 . S
C144 C126 1.392 . S
C145 C116 1.392 . S
C145 C118 1.389 . S
C146 C121 1.395 . S
C146 C123 1.391 . S
H147 C107 0.951 . S
H148 C108 0.950 . S
H149 C114 0.949 . S
H150 C115 0.950 . S
H151 C119 0.951 . S
H152 C120 0.950 . S
H153 C124 0.949 . S
H154 C125 0.950 . S
H155 C129 0.950 . S
H156 C131 0.950 . S
H157 C134 0.950 . S
H158 C136 0.950 . S
C159 C160 1.443 . S
C159 N163 1.376 . S
C159 C197 1.389 . S
C160 C159 1.443 . S
C160 C161 1.340 . S
C160 H200 0.951 . S
C161 C160 1.340 . S
C161 C162 1.439 . S
C161 H201 0.950 . S
C162 C161 1.439 . S
C162 N163 1.374 . S
C162 C196 1.395 . S
N163 C159 1.376 . S
N163 C162 1.374 . S
N163 Co164 2.008 . S
Co164 N163 2.008 . S
Co164 N165 1.995 . S
Co164 N170 2.008 . S
Co164 N175 1.995 . S
Co164 N180 2.282 . S
Co164 N186 2.282 . S
N165 Co164 1.995 . S
N165 C166 1.376 . S
N165 C169 1.383 . S
C166 N165 1.376 . S
C166 C167 1.446 . S
C166 C196 1.391 . S
C167 C166 1.446 . S
C167 C168 1.339 . S
C167 H202 0.949 . S
C168 C167 1.339 . S
C168 C169 1.439 . S
C168 H203 0.950 . S
C169 N165 1.383 . S
C169 C168 1.439 . S
C169 C198 1.392 . S
N170 Co164 2.008 . S
N170 C171 1.376 . S
N170 C174 1.374 . S
C171 N170 1.376 . S
C171 C172 1.443 . S
C171 C198 1.389 . S
C172 C171 1.443 . S
C172 C173 1.340 . S
C172 H204 0.951 . S
C173 C172 1.340 . S
C173 C174 1.439 . S
C173 H205 0.950 . S
C174 N170 1.374 . S
C174 C173 1.439 . S
C174 C199 1.395 . S
N175 Co164 1.995 . S
N175 C176 1.376 . S
N175 C179 1.383 . S
C176 N175 1.376 . S
C176 C177 1.446 . S
C176 C199 1.391 . S
C177 C176 1.446 . S
C177 C178 1.339 . S
C177 H206 0.949 . S
C178 C177 1.339 . S
C178 C179 1.439 . S
C178 H207 0.950 . S
C179 N175 1.383 . S
C179 C178 1.439 . S
C179 C197 1.392 . S
N180 Co164 2.282 . S
N180 C183 1.332 . S
N180 C185 1.332 . S
C181 C182 1.386 . S
C181 C184 1.388 . S
C182 C181 1.386 . S
C182 C183 1.382 . S
C182 H208 0.950 . S
C183 N180 1.332 . S
C183 C182 1.382 . S
C183 H194 0.952 . S
C184 C181 1.388 . S
C184 C185 1.382 . S
C184 H209 0.950 . S
C185 N180 1.332 . S
C185 C184 1.382 . S
C185 H195 0.948 . S
N186 Co164 2.282 . S
N186 C190 1.332 . S
N186 C191 1.332 . S
C187 C188 1.388 . S
C187 C191 1.382 . S
C187 H210 0.950 . S
C188 C187 1.388 . S
C188 C189 1.386 . S
C189 C188 1.386 . S
C189 C190 1.382 . S
C189 H211 0.950 . S
C190 N186 1.332 . S
C190 C189 1.382 . S
C190 H192 0.952 . S
C191 N186 1.332 . S
C191 C187 1.382 . S
C191 H193 0.948 . S
H192 C190 0.952 . S
H193 C191 0.948 . S
H194 C183 0.952 . S
H195 C185 0.948 . S
C196 C162 1.395 . S
C196 C166 1.391 . S
C197 C159 1.389 . S
C197 C179 1.392 . S
C198 C169 1.392 . S
C198 C171 1.389 . S
C199 C174 1.395 . S
C199 C176 1.391 . S
H200 C160 0.951 . S
H201 C161 0.950 . S
H202 C167 0.949 . S
H203 C168 0.950 . S
H204 C172 0.951 . S
H205 C173 0.950 . S
H206 C177 0.949 . S
H207 C178 0.950 . S
H208 C182 0.950 . S
H209 C184 0.950 . S
H210 C187 0.950 . S
H211 C189 0.950 . S
C212 C213 1.443 . S
C212 N216 1.376 . S
C212 C250 1.389 . S
C213 C212 1.443 . S
C213 C214 1.340 . S
C213 H253 0.951 . S
C214 C213 1.340 . S
C214 C215 1.439 . S
C214 H254 0.950 . S
C215 C214 1.439 . S
C215 N216 1.374 . S
C215 C249 1.395 . S
N216 C212 1.376 . S
N216 C215 1.374 . S
N216 Co217 2.008 . S
Co217 N216 2.008 . S
Co217 N218 1.995 . S
Co217 N223 2.008 . S
Co217 N228 1.995 . S
Co217 N233 2.282 . S
Co217 N239 2.282 . S
N218 Co217 1.995 . S
N218 C219 1.376 . S
N218 C222 1.383 . S
C219 N218 1.376 . S
C219 C220 1.446 . S
C219 C249 1.391 . S
C220 C219 1.446 . S
C220 C221 1.339 . S
C220 H255 0.949 . S
C221 C220 1.339 . S
C221 C222 1.439 . S
C221 H256 0.950 . S
C222 N218 1.383 . S
C222 C221 1.439 . S
C222 C251 1.392 . S
N223 Co217 2.008 . S
N223 C224 1.376 . S
N223 C227 1.374 . S
C224 N223 1.376 . S
C224 C225 1.443 . S
C224 C251 1.389 . S
C225 C224 1.443 . S
C225 C226 1.340 . S
C225 H257 0.951 . S
C226 C225 1.340 . S
C226 C227 1.439 . S
C226 H258 0.950 . S
C227 N223 1.374 . S
C227 C226 1.439 . S
C227 C252 1.395 . S
N228 Co217 1.995 . S
N228 C229 1.376 . S
N228 C232 1.383 . S
C229 N228 1.376 . S
C229 C230 1.446 . S
C229 C252 1.391 . S
C230 C229 1.446 . S
C230 C231 1.339 . S
C230 H259 0.949 . S
C231 C230 1.339 . S
C231 C232 1.439 . S
C231 H260 0.950 . S
C232 N228 1.383 . S
C232 C231 1.439 . S
C232 C250 1.392 . S
N233 Co217 2.282 . S
N233 C236 1.332 . S
N233 C238 1.332 . S
C234 C235 1.386 . S
C234 C237 1.388 . S
C235 C234 1.386 . S
C235 C236 1.382 . S
C235 H261 0.950 . S
C236 N233 1.332 . S
C236 C235 1.382 . S
C236 H247 0.952 . S
C237 C234 1.388 . S
C237 C238 1.382 . S
C237 H262 0.950 . S
C238 N233 1.332 . S
C238 C237 1.382 . S
C238 H248 0.948 . S
N239 Co217 2.282 . S
N239 C243 1.332 . S
N239 C244 1.332 . S
C240 C241 1.388 . S
C240 C244 1.382 . S
C240 H263 0.950 . S
C241 C240 1.388 . S
C241 C242 1.386 . S
C242 C241 1.386 . S
C242 C243 1.382 . S
C242 H264 0.950 . S
C243 N239 1.332 . S
C243 C242 1.382 . S
C243 H245 0.952 . S
C244 N239 1.332 . S
C244 C240 1.382 . S
C244 H246 0.948 . S
H245 C243 0.952 . S
H246 C244 0.948 . S
H247 C236 0.952 . S
H248 C238 0.948 . S
C249 C215 1.395 . S
C249 C219 1.391 . S
C250 C212 1.389 . S
C250 C232 1.392 . S
C251 C222 1.392 . S
C251 C224 1.389 . S
C252 C227 1.395 . S
C252 C229 1.391 . S
H253 C213 0.951 . S
H254 C214 0.950 . S
H255 C220 0.949 . S
H256 C221 0.950 . S
H257 C225 0.951 . S
H258 C226 0.950 . S
H259 C230 0.949 . S
H260 C231 0.950 . S
H261 C235 0.950 . S
H262 C237 0.950 . S
H263 C240 0.950 . S
H264 C242 0.950 . S
C265 C266 1.443 . S
C265 N269 1.376 . S
C265 C303 1.389 . S
C266 C265 1.443 . S
C266 C267 1.340 . S
C266 H306 0.951 . S
C267 C266 1.340 . S
C267 C268 1.439 . S
C267 H307 0.950 . S
C268 C267 1.439 . S
C268 N269 1.374 . S
C268 C302 1.395 . S
N269 C265 1.376 . S
N269 C268 1.374 . S
N269 Co270 2.008 . S
Co270 N269 2.008 . S
Co270 N271 1.995 . S
Co270 N276 2.008 . S
Co270 N281 1.995 . S
Co270 N286 2.282 . S
Co270 N292 2.282 . S
N271 Co270 1.995 . S
N271 C272 1.376 . S
N271 C275 1.383 . S
C272 N271 1.376 . S
C272 C273 1.446 . S
C272 C302 1.391 . S
C273 C272 1.446 . S
C273 C274 1.339 . S
C273 H308 0.949 . S
C274 C273 1.339 . S
C274 C275 1.439 . S
C274 H309 0.950 . S
C275 N271 1.383 . S
C275 C274 1.439 . S
C275 C304 1.392 . S
N276 Co270 2.008 . S
N276 C277 1.376 . S
N276 C280 1.374 . S
C277 N276 1.376 . S
C277 C278 1.443 1_556 S
C277 C304 1.389 . S
C278 C277 1.443 1_554 S
C278 C279 1.340 1_554 S
C278 H310 0.951 . S
C279 C278 1.340 1_556 S
C279 C280 1.439 . S
C279 H311 0.950 1_556 S
C280 N276 1.374 . S
C280 C279 1.439 . S
C280 C305 1.395 . S
N281 Co270 1.995 . S
N281 C282 1.376 . S
N281 C285 1.383 . S
C282 N281 1.376 . S
C282 C283 1.446 . S
C282 C305 1.391 . S
C283 C282 1.446 . S
C283 C284 1.339 . S
C283 H312 0.949 . S
C284 C283 1.339 . S
C284 C285 1.439 . S
C284 H313 0.950 . S
C285 N281 1.383 . S
C285 C284 1.439 . S
C285 C303 1.392 . S
N286 Co270 2.282 . S
N286 C289 1.332 . S
N286 C291 1.332 . S
C287 C288 1.386 . S
C287 C290 1.388 . S
C288 C287 1.386 . S
C288 C289 1.382 . S
C288 H314 0.950 . S
C289 N286 1.332 . S
C289 C288 1.382 . S
C289 H300 0.952 . S
C290 C287 1.388 . S
C290 C291 1.382 . S
C290 H315 0.950 . S
C291 N286 1.332 . S
C291 C290 1.382 . S
C291 H301 0.948 . S
N292 Co270 2.282 . S
N292 C296 1.332 . S
N292 C297 1.332 . S
C293 C294 1.388 . S
C293 C297 1.382 1_554 S
C293 H316 0.950 . S
C294 C293 1.388 . S
C294 C295 1.386 1_554 S
C295 C294 1.386 1_556 S
C295 C296 1.382 . S
C295 H317 0.950 . S
C296 N292 1.332 . S
C296 C295 1.382 . S
C296 H298 0.952 . S
C297 N292 1.332 . S
C297 C293 1.382 1_556 S
C297 H299 0.948 . S
H298 C296 0.952 . S
H299 C297 0.948 . S
H300 C289 0.952 . S
H301 C291 0.948 . S
C302 C268 1.395 . S
C302 C272 1.391 . S
C303 C265 1.389 . S
C303 C285 1.392 . S
C304 C275 1.392 . S
C304 C277 1.389 . S
C305 C280 1.395 . S
C305 C282 1.391 . S
H306 C266 0.951 . S
H307 C267 0.950 . S
H308 C273 0.949 . S
H309 C274 0.950 . S
H310 C278 0.951 . S
H311 C279 0.950 1_554 S
H312 C283 0.949 . S
H313 C284 0.950 . S
H314 C288 0.950 . S
H315 C290 0.950 . S
H316 C293 0.950 . S
H317 C295 0.950 . S
C318 C319 1.369 . S
C318 C320 1.419 . S
C318 H322 0.930 . S
C319 C318 1.369 . S
C319 C328 1.429 . S
C320 C318 1.419 . S
C320 C321 1.363 1_455 S
C320 H323 0.929 . S
C321 C320 1.363 1_655 S
C321 C327 1.428 . S
H322 C318 0.930 . S
H323 C320 0.929 . S
S324 N325 1.613 1_556 S
S324 N326 1.610 . S
N325 S324 1.613 1_554 S
N325 C328 1.350 1_654 S
N326 S324 1.610 . S
N326 C327 1.351 . S
C327 C321 1.428 . S
C327 N326 1.351 . S
C327 C328 1.434 1_655 S
C328 C319 1.429 . S
C328 N325 1.350 1_456 S
C328 C327 1.434 1_455 S
C329 C330 1.369 1_544 S
C329 C331 1.419 . S
C329 H333 0.930 1_554 S
C330 C329 1.369 1_566 S
C330 C339 1.429 1_556 S
C331 C329 1.419 . S
C331 C332 1.363 . S
C331 H334 0.929 . S
C332 C331 1.363 . S
C332 C338 1.428 . S
H333 C329 0.930 1_556 S
H334 C331 0.929 . S
S335 N336 1.613 . S
S335 N337 1.610 1_565 S
N336 S335 1.613 . S
N336 C339 1.350 . S
N337 S335 1.610 1_545 S
N337 C338 1.351 . S
C338 C332 1.428 . S
C338 N337 1.351 . S
C338 C339 1.434 1_545 S
C339 C330 1.429 1_554 S
C339 N336 1.350 . S
C339 C338 1.434 1_565 S
C340 C341 1.369 . S
C340 C342 1.419 . S
C340 H344 0.930 . S
C341 C340 1.369 . S
C341 C350 1.429 . S
C342 C340 1.419 . S
C342 C343 1.363 . S
C342 H345 0.929 . S
C343 C342 1.363 . S
C343 C349 1.428 . S
H344 C340 0.930 . S
H345 C342 0.929 . S
S346 N347 1.613 1_556 S
S346 N348 1.610 . S
N347 S346 1.613 1_554 S
N347 C350 1.350 . S
N348 S346 1.610 . S
N348 C349 1.351 1_556 S
C349 C343 1.428 . S
C349 N348 1.351 1_554 S
C349 C350 1.434 . S
C350 C341 1.429 . S
C350 N347 1.350 . S
C350 C349 1.434 . S
C351 C352 1.369 . S
C351 C353 1.419 1_655 S
C351 H355 0.930 . S
C352 C351 1.369 . S
C352 C361 1.429 . S
C353 C351 1.419 1_455 S
C353 C354 1.363 . S
C353 H356 0.929 . S
C354 C353 1.363 . S
C354 C360 1.428 1_455 S
H355 C351 0.930 . S
H356 C353 0.929 . S
S357 N358 1.613 . S
S357 N359 1.616 . S
N358 S357 1.613 . S
N358 C361 1.350 . S
N359 S357 1.616 . S
N359 C360 1.369 . S
C360 C354 1.428 1_655 S
C360 N359 1.369 . S
C360 C361 1.434 . S
C361 C352 1.429 . S
C361 N358 1.350 . S
C361 C360 1.434 . S
C362 C363 1.369 1_565 S
C362 C364 1.419 . S
C362 H366 0.930 . S
C363 C362 1.369 1_545 S
C363 C372 1.429 . S
C364 C362 1.419 . S
C364 C365 1.363 . S
C364 H367 0.929 . S
C365 C364 1.363 . S
C365 C371 1.428 . S
H366 C362 0.930 . S
H367 C364 0.929 . S
S368 N369 1.613 . S
S368 N370 1.610 1_545 S
N369 S368 1.613 . S
N369 C372 1.350 . S
N370 S368 1.610 1_565 S
N370 C371 1.351 . S
C371 C365 1.428 . S
C371 N370 1.351 . S
C371 C372 1.434 1_565 S
C372 C363 1.429 . S
C372 N369 1.350 . S
C372 C371 1.434 1_545 S
C373 C374 1.369 . S
C373 C375 1.419 . S
C373 H377 0.930 . S
C374 C373 1.369 . S
C374 C383 1.429 . S
C375 C373 1.419 . S
C375 C376 1.363 . S
C375 H378 0.929 . S
C376 C375 1.363 . S
C376 C382 1.428 . S
H377 C373 0.930 . S
H378 C375 0.929 . S
S379 N380 1.613 . S
S379 N381 1.610 . S
N380 S379 1.613 . S
N380 C383 1.350 . S
N381 S379 1.610 . S
N381 C382 1.351 . S
C382 C376 1.428 . S
C382 N381 1.351 . S
C382 C383 1.434 . S
C383 C374 1.429 . S
C383 N380 1.350 . S
C383 C382 1.434 . S
C384 C385 1.369 . S
C384 C386 1.419 . S
C384 H388 0.930 . S
C385 C384 1.369 . S
C385 C394 1.429 . S
C386 C384 1.419 . S
C386 C387 1.363 . S
C386 H389 0.929 . S
C387 C386 1.363 . S
C387 C393 1.428 . S
H388 C384 0.930 . S
H389 C386 0.929 . S
S390 N391 1.613 . S
S390 N392 1.610 . S
N391 S390 1.613 . S
N391 C394 1.350 . S
N392 S390 1.610 . S
N392 C393 1.351 . S
C393 C387 1.428 . S
C393 N392 1.351 . S
C393 C394 1.434 . S
C394 C385 1.429 . S
C394 N391 1.350 . S
C394 C393 1.434 . S
C395 C396 1.369 . S
C395 C397 1.419 . S
C395 H399 0.930 . S
C396 C395 1.369 . S
C396 C405 1.429 . S
C397 C395 1.419 . S
C397 C398 1.363 . S
C397 H400 0.929 . S
C398 C397 1.363 . S
C398 C404 1.428 . S
H399 C395 0.930 . S
H400 C397 0.929 . S
S401 N402 1.613 . S
S401 N403 1.610 . S
N402 S401 1.613 . S
N402 C405 1.350 . S
N403 S401 1.610 . S
N403 C404 1.351 . S
C404 C398 1.428 . S
C404 N403 1.351 . S
C404 C405 1.434 . S
C405 C396 1.429 . S
C405 N402 1.350 . S
C405 C404 1.434 . S
C406 C407 1.369 . S
C406 C408 1.419 . S
C406 H410 0.930 . S
C407 C406 1.369 . S
C407 C416 1.429 . S
C408 C406 1.419 . S
C408 C409 1.363 . S
C408 H411 0.929 . S
C409 C408 1.363 . S
C409 C415 1.428 . S
H410 C406 0.930 . S
H411 C408 0.929 . S
S412 N413 1.613 . S
S412 N414 1.610 . S
N413 S412 1.613 . S
N413 C416 1.350 . S
N414 S412 1.610 . S
N414 C415 1.351 . S
C415 C409 1.428 . S
C415 N414 1.351 . S
C415 C416 1.434 . S
C416 C407 1.429 . S
C416 N413 1.350 . S
C416 C415 1.434 . S
C417 C418 1.369 . S
C417 C419 1.419 . S
C417 H421 0.930 . S
C418 C417 1.369 . S
C418 C427 1.429 . S
C419 C417 1.419 . S
C419 C420 1.363 . S
C419 H422 0.929 . S
C420 C419 1.363 . S
C420 C426 1.428 . S
H421 C417 0.930 . S
H422 C419 0.929 . S
S423 N424 1.613 . S
S423 N425 1.610 . S
N424 S423 1.613 . S
N424 C427 1.350 . S
N425 S423 1.610 . S
N425 C426 1.351 . S
C426 C420 1.428 . S
C426 N425 1.351 . S
C426 C427 1.434 . S
C427 C418 1.429 . S
C427 N424 1.350 . S
C427 C426 1.434 . S
C428 C429 1.369 . S
C428 C430 1.419 . S
C428 H432 0.930 . S
C429 C428 1.369 . S
C429 C438 1.429 . S
C430 C428 1.419 . S
C430 C431 1.363 . S
C430 H433 0.929 . S
C431 C430 1.363 . S
C431 C437 1.428 . S
H432 C428 0.930 . S
H433 C430 0.929 . S
S434 N435 1.613 . S
S434 N436 1.610 . S
N435 S434 1.613 . S
N435 C438 1.350 . S
N436 S434 1.610 . S
N436 C437 1.351 . S
C437 C431 1.428 . S
C437 N436 1.351 . S
C437 C438 1.434 . S
C438 C429 1.429 . S
C438 N435 1.350 . S
C438 C437 1.434 . S
C439 C440 1.369 . S
C439 C441 1.419 . S
C439 H443 0.930 . S
C440 C439 1.369 . S
C440 C449 1.429 . S
C441 C439 1.419 . S
C441 C442 1.363 . S
C441 H444 0.929 . S
C442 C441 1.363 . S
C442 C448 1.428 . S
H443 C439 0.930 . S
H444 C441 0.929 . S
S445 N446 1.613 . S
S445 N447 1.610 1_556 S
N446 S445 1.613 . S
N446 C449 1.350 1_556 S
N447 S445 1.610 1_554 S
N447 C448 1.351 . S
C448 C442 1.428 . S
C448 N447 1.351 . S
C448 C449 1.434 . S
C449 C440 1.429 . S
C449 N446 1.350 1_554 S
C449 C448 1.434 . S
C319 C39 1.874 1_556 S
C321 C181 1.866 . S
C330 C234 1.780 . S
C332 C92 1.780 . S
C341 C128 1.826 . S
C343 C304 1.815 1_554 S
C352 C198 1.873 . S
C354 C22 1.868 . S
C363 C75 1.780 . S
C365 C251 1.781 . S
C374 C287 1.824 . S
C376 C145 1.812 . S
C385 C38 1.953 . S
C387 C144 1.962 . S
C396 C91 1.844 . S
C398 C188 1.825 . S
C407 C241 1.664 . S
C409 C135 1.659 . S
C418 C303 1.958 . S
C420 C197 1.958 . S
C429 C250 1.843 . S
C431 C29 1.822 . S
C440 C294 1.657 . S
C442 C82 1.664 . S
