# Generated by pormake.
# Topology wir, (6)-cn, num edge types: 1
# Building blocks:
#     Node 0, Type 0, BuildingBlock: CUKXOW_clean_sbu_0, # of connection points: 6
#     Node 1, Type 0, BuildingBlock: CUKXOW_clean_sbu_0, # of connection points: 6
#     Node 2, Type 0, BuildingBlock: CUKXOW_clean_sbu_0, # of connection points: 6
#     Node 3, Type 0, BuildingBlock: CUKXOW_clean_sbu_0, # of connection points: 6
#     Node 4, Type 0, BuildingBlock: CUKXOW_clean_sbu_0, # of connection points: 6
#     Node 5, Type 0, BuildingBlock: CUKXOW_clean_sbu_0, # of connection points: 6
#     Node 6, Type 0, BuildingBlock: CUKXOW_clean_sbu_0, # of connection points: 6
#     Node 7, Type 0, BuildingBlock: CUKXOW_clean_sbu_0, # of connection points: 6
#     Node 8, Type 0, BuildingBlock: CUKXOW_clean_sbu_0, # of connection points: 6
#     Node 9, Type 0, BuildingBlock: CUKXOW_clean_sbu_0, # of connection points: 6
#     Node 10, Type 0, BuildingBlock: CUKXOW_clean_sbu_0, # of connection points: 6
#     Node 11, Type 0, BuildingBlock: CUKXOW_clean_sbu_0, # of connection points: 6
#     Node 12, Type 0, BuildingBlock: CUKXOW_clean_sbu_0, # of connection points: 6
#     Node 13, Type 0, BuildingBlock: CUKXOW_clean_sbu_0, # of connection points: 6
#     Node 14, Type 0, BuildingBlock: CUKXOW_clean_sbu_0, # of connection points: 6
#     Node 15, Type 0, BuildingBlock: CUKXOW_clean_sbu_0, # of connection points: 6
#     Node 16, Type 0, BuildingBlock: CUKXOW_clean_sbu_0, # of connection points: 6
#     Node 17, Type 0, BuildingBlock: CUKXOW_clean_sbu_0, # of connection points: 6
#     Node 18, Type 0, BuildingBlock: CUKXOW_clean_sbu_0, # of connection points: 6
#     Node 19, Type 0, BuildingBlock: CUKXOW_clean_sbu_0, # of connection points: 6
#     Node 20, Type 0, BuildingBlock: CUKXOW_clean_sbu_0, # of connection points: 6
#     Node 21, Type 0, BuildingBlock: CUKXOW_clean_sbu_0, # of connection points: 6
#     Node 22, Type 0, BuildingBlock: CUKXOW_clean_sbu_0, # of connection points: 6
#     Node 23, Type 0, BuildingBlock: CUKXOW_clean_sbu_0, # of connection points: 6
#     Node 24, Type 0, BuildingBlock: CUKXOW_clean_sbu_0, # of connection points: 6
#     Node 25, Type 0, BuildingBlock: CUKXOW_clean_sbu_0, # of connection points: 6
#     Node 26, Type 0, BuildingBlock: CUKXOW_clean_sbu_0, # of connection points: 6
#     Node 27, Type 0, BuildingBlock: CUKXOW_clean_sbu_0, # of connection points: 6
#     Node 28, Type 0, BuildingBlock: CUKXOW_clean_sbu_0, # of connection points: 6
#     Node 29, Type 0, BuildingBlock: CUKXOW_clean_sbu_0, # of connection points: 6
#     Node 30, Type 0, BuildingBlock: CUKXOW_clean_sbu_0, # of connection points: 6
#     Node 31, Type 0, BuildingBlock: CUKXOW_clean_sbu_0, # of connection points: 6
#     Edge 32, Type (0, 0), None
#     Edge 33, Type (0, 0), None
#     Edge 34, Type (0, 0), None
#     Edge 35, Type (0, 0), None
#     Edge 36, Type (0, 0), None
#     Edge 37, Type (0, 0), None
#     Edge 38, Type (0, 0), None
#     Edge 39, Type (0, 0), None
#     Edge 40, Type (0, 0), None
#     Edge 41, Type (0, 0), None
#     Edge 42, Type (0, 0), None
#     Edge 43, Type (0, 0), None
#     Edge 44, Type (0, 0), None
#     Edge 45, Type (0, 0), None
#     Edge 46, Type (0, 0), None
#     Edge 47, Type (0, 0), None
#     Edge 48, Type (0, 0), None
#     Edge 49, Type (0, 0), None
#     Edge 50, Type (0, 0), None
#     Edge 51, Type (0, 0), None
#     Edge 52, Type (0, 0), None
#     Edge 53, Type (0, 0), None
#     Edge 54, Type (0, 0), None
#     Edge 55, Type (0, 0), None
#     Edge 56, Type (0, 0), None
#     Edge 57, Type (0, 0), None
#     Edge 58, Type (0, 0), None
#     Edge 59, Type (0, 0), None
#     Edge 60, Type (0, 0), None
#     Edge 61, Type (0, 0), None
#     Edge 62, Type (0, 0), None
#     Edge 63, Type (0, 0), None
#     Edge 64, Type (0, 0), None
#     Edge 65, Type (0, 0), None
#     Edge 66, Type (0, 0), None
#     Edge 67, Type (0, 0), None
#     Edge 68, Type (0, 0), None
#     Edge 69, Type (0, 0), None
#     Edge 70, Type (0, 0), None
#     Edge 71, Type (0, 0), None
#     Edge 72, Type (0, 0), None
#     Edge 73, Type (0, 0), None
#     Edge 74, Type (0, 0), None
#     Edge 75, Type (0, 0), None
#     Edge 76, Type (0, 0), None
#     Edge 77, Type (0, 0), None
#     Edge 78, Type (0, 0), None
#     Edge 79, Type (0, 0), None
#     Edge 80, Type (0, 0), None
#     Edge 81, Type (0, 0), None
#     Edge 82, Type (0, 0), None
#     Edge 83, Type (0, 0), None
#     Edge 84, Type (0, 0), None
#     Edge 85, Type (0, 0), None
#     Edge 86, Type (0, 0), None
#     Edge 87, Type (0, 0), None
#     Edge 88, Type (0, 0), None
#     Edge 89, Type (0, 0), None
#     Edge 90, Type (0, 0), None
#     Edge 91, Type (0, 0), None
#     Edge 92, Type (0, 0), None
#     Edge 93, Type (0, 0), None
#     Edge 94, Type (0, 0), None
#     Edge 95, Type (0, 0), None
#     Edge 96, Type (0, 0), None
#     Edge 97, Type (0, 0), None
#     Edge 98, Type (0, 0), None
#     Edge 99, Type (0, 0), None
#     Edge 100, Type (0, 0), None
#     Edge 101, Type (0, 0), None
#     Edge 102, Type (0, 0), None
#     Edge 103, Type (0, 0), None
#     Edge 104, Type (0, 0), None
#     Edge 105, Type (0, 0), None
#     Edge 106, Type (0, 0), None
#     Edge 107, Type (0, 0), None
#     Edge 108, Type (0, 0), None
#     Edge 109, Type (0, 0), None
#     Edge 110, Type (0, 0), None
#     Edge 111, Type (0, 0), None
#     Edge 112, Type (0, 0), None
#     Edge 113, Type (0, 0), None
#     Edge 114, Type (0, 0), None
#     Edge 115, Type (0, 0), None
#     Edge 116, Type (0, 0), None
#     Edge 117, Type (0, 0), None
#     Edge 118, Type (0, 0), None
#     Edge 119, Type (0, 0), None
#     Edge 120, Type (0, 0), None
#     Edge 121, Type (0, 0), None
#     Edge 122, Type (0, 0), None
#     Edge 123, Type (0, 0), None
#     Edge 124, Type (0, 0), None
#     Edge 125, Type (0, 0), None
#     Edge 126, Type (0, 0), None
#     Edge 127, Type (0, 0), None
# Relax obj value: 0.360
# Max RMSD: 0.209
# Mean RMSD: 0.209
data_MOF--net-wir--node1-CUKXOW_clean_sbu_0--edge1-none
_symmetry_space_group_name_H-M    P1
_symmetry_Int_Tables_number       1
_symmetry_cell_setting            triclinic
loop_
_symmetry_equiv_pos_as_xyz
'x, y, z'
_cell_length_a     17.677653
_cell_length_b     17.674573
_cell_length_c     42.03327
_cell_angle_alpha  90.000192
_cell_angle_beta   90.003556
_cell_angle_gamma 90.00012
loop_
_atom_site_label
_atom_site_type_symbol
_atom_site_fract_x
_atom_site_fract_y
_atom_site_fract_z
_atom_type_partial_charge
Tb0 Tb 0.10501 0.09484 0.36896 0.0
C1 C 0.24426 0.03591 0.40496 0.0
Tb2 Tb 0.21834 0.15637 0.34714 0.0
O3 O 0.05686 0.05763 0.32444 0.0
O4 O 0.17432 0.05363 0.32894 0.0
O5 O 0.17016 0.03572 0.40543 0.0
C6 C 0.27051 0.24601 0.30284 0.0
O7 O 0.27778 0.06857 0.3794 0.0
C8 C 0.22523 0.20039 0.40225 0.0
C9 C 0.05545 0.24501 0.34406 0.0
O10 O 0.31126 0.21988 0.32612 0.0
O11 O 0.20591 0.21246 0.30169 0.0
O12 O 0.28669 0.19011 0.38574 0.0
O13 O 0.16328 0.1928 0.38681 0.0
O14 O 0.13051 0.25124 0.34576 0.0
O15 O 1.02798 0.17817 0.34929 0.0
C16 C 0.9921 0.08012 0.40648 0.0
O17 O 1.01433 0.14302 0.39452 0.0
O18 O 0.03167 1.02231 0.39655 0.0
C19 C 0.11956 0.04625 0.30964 0.0
Tb20 Tb 0.21306 0.85476 0.61893 0.0
C21 C 0.272 0.99415 0.65488 0.0
Tb22 Tb 0.15166 0.96823 0.59702 0.0
O23 O 0.25033 0.80652 0.57443 0.0
O24 O 0.25439 0.92401 0.57892 0.0
O25 O 0.27212 0.92003 0.65539 0.0
C26 C 0.0622 1.02052 0.55268 0.0
O27 O 0.23943 1.02766 0.62929 0.0
C28 C 0.10758 0.97512 0.65212 0.0
C29 C 0.06293 0.80534 0.59395 0.0
O30 O 0.0883 0.06124 0.57597 0.0
O31 O 0.09568 0.95588 0.55154 0.0
O32 O 0.1179 0.03659 0.63562 0.0
O33 O 0.11512 0.91317 0.63667 0.0
O34 O 0.05676 0.88043 0.59561 0.0
O35 O 0.12969 0.77779 0.59926 0.0
C36 C 0.22773 0.74199 0.65655 0.0
O37 O 0.16483 0.76423 0.64459 0.0
O38 O 0.28554 0.78145 0.64656 0.0
C39 C 0.26177 0.86922 0.55963 0.0
Tb40 Tb 0.45298 0.96327 0.86896 0.0
C41 C 0.31375 1.0222 0.90497 0.0
Tb42 Tb 0.33967 0.90176 0.84715 0.0
O43 O 0.50114 1.00048 0.82444 0.0
O44 O 0.38368 1.0045 0.82894 0.0
O45 O 0.38785 1.02238 0.90544 0.0
C46 C 0.2875 0.81212 0.80284 0.0
O47 O 0.28023 0.98955 0.8794 0.0
C48 C 0.33276 0.85772 0.90225 0.0
C49 C 0.50255 0.81311 0.84406 0.0
O50 O 0.24674 0.83827 0.82611 0.0
O51 O 0.35211 0.84566 0.8017 0.0
O52 O 0.27131 0.86801 0.88574 0.0
O53 O 0.39472 0.86531 0.88681 0.0
O54 O 0.42749 0.80688 0.84576 0.0
O55 O 0.53001 0.87994 0.8493 0.0
C56 C 0.56592 0.97804 0.90648 0.0
O57 O 0.54371 0.91512 0.89451 0.0
O58 O 0.52631 0.03582 0.89656 0.0
C59 C 0.43844 1.01188 0.80965 0.0
Tb60 Tb 0.34494 0.20337 0.11894 0.0
C61 C 0.286 0.06397 0.15488 0.0
Tb62 Tb 0.40635 0.08988 0.09702 0.0
O63 O 0.30768 0.2516 0.07443 0.0
O64 O 0.30362 0.13411 0.07892 0.0
O65 O 0.28589 0.13809 0.15538 0.0
C66 C 0.49581 0.03761 0.05268 0.0
O67 O 0.31857 0.03046 0.12928 0.0
C68 C 0.45043 0.083 0.15212 0.0
C69 C 0.49507 0.25278 0.09395 0.0
O70 O 0.46971 0.99688 0.07597 0.0
O71 O 0.46231 0.10224 0.05154 0.0
O72 O 0.44011 1.02152 0.13562 0.0
O73 O 0.44289 0.14494 0.13667 0.0
O74 O 0.50124 0.17768 0.09561 0.0
O75 O 0.42831 0.28032 0.09925 0.0
C76 C 0.33031 0.31613 0.15655 0.0
O77 O 0.39321 0.29386 0.1446 0.0
O78 O 0.27248 0.27671 0.14655 0.0
C79 C 0.29623 0.1889 0.05964 0.0
Tb80 Tb 0.10505 0.96325 0.21806 0.0
C81 C 0.24426 1.0222 0.18205 0.0
Tb82 Tb 0.21834 0.90176 0.23988 0.0
O83 O 0.05687 1.00046 0.26257 0.0
O84 O 0.17435 1.00453 0.25807 0.0
O85 O 0.17016 1.02237 0.18158 0.0
C86 C 0.27052 0.81211 0.28418 0.0
O87 O 0.27779 0.98954 0.20762 0.0
C88 C 0.22526 0.8577 0.18477 0.0
C89 C 0.05547 0.81311 0.24297 0.0
O90 O 0.31127 0.83826 0.26091 0.0
O91 O 0.20592 0.84566 0.28533 0.0
O92 O 0.28671 0.86801 0.20129 0.0
O93 O 0.1633 0.86528 0.20021 0.0
O94 O 0.13053 0.80688 0.24126 0.0
O95 O 1.028 0.87994 0.23773 0.0
C96 C 0.99213 0.97801 0.18053 0.0
O97 O 1.01435 0.91509 0.1925 0.0
O98 O 0.03172 0.0358 0.19046 0.0
C99 C 0.11956 1.01197 0.27735 0.0
Tb100 Tb 0.34497 0.85477 0.46809 0.0
C101 C 0.28601 0.99414 0.43214 0.0
Tb102 Tb 0.40635 0.96823 0.49 0.0
O103 O 0.3077 0.80652 0.51258 0.0
O104 O 0.30359 0.92403 0.50809 0.0
O105 O 0.2859 0.92002 0.43163 0.0
C106 C 0.49581 1.02052 0.53434 0.0
O107 O 0.31858 1.02765 0.45773 0.0
C108 C 0.45045 0.97512 0.4349 0.0
C109 C 0.49507 0.80533 0.49308 0.0
O110 O 0.46971 0.06123 0.51105 0.0
O111 O 0.46232 0.95588 0.53548 0.0
O112 O 0.44011 0.03659 0.4514 0.0
O113 O 0.44292 0.91317 0.45036 0.0
O114 O 0.50124 0.88042 0.49142 0.0
O115 O 0.42831 0.77779 0.48778 0.0
C116 C 0.33031 0.74202 0.43046 0.0
O117 O 0.39321 0.76427 0.44242 0.0
O118 O 0.27249 0.78146 0.44046 0.0
C119 C 0.29613 0.86922 0.52736 0.0
Tb120 Tb 0.45298 0.09487 0.71806 0.0
C121 C 0.31375 0.03592 0.68205 0.0
Tb122 Tb 0.33967 0.15637 0.73988 0.0
O123 O 0.50115 0.05766 0.76258 0.0
O124 O 0.38366 0.05361 0.75807 0.0
O125 O 0.38785 0.03575 0.68159 0.0
C126 C 0.28749 0.24602 0.78418 0.0
O127 O 0.28022 0.06859 0.70762 0.0
C128 C 0.33277 0.20043 0.68477 0.0
C129 C 0.50256 0.24501 0.74297 0.0
O130 O 0.24675 0.21989 0.7609 0.0
O131 O 0.35209 0.21247 0.78533 0.0
O132 O 0.27131 0.19012 0.70128 0.0
O133 O 0.39472 0.19284 0.70022 0.0
O134 O 0.4275 0.25125 0.74126 0.0
O135 O 0.53002 0.17818 0.73774 0.0
C136 C 0.56587 0.08013 0.68053 0.0
O137 O 0.54365 0.14304 0.6925 0.0
O138 O 0.5263 1.02233 0.69047 0.0
C139 C 0.43845 0.04615 0.77735 0.0
Tb140 Tb 0.21305 0.20335 0.96808 0.0
C141 C 0.27201 0.06397 0.93214 0.0
Tb142 Tb 0.15167 0.08988 0.99 0.0
O143 O 0.25031 0.2516 1.01258 0.0
O144 O 0.25442 0.13409 1.00809 0.0
O145 O 0.27212 0.13808 0.93164 0.0
C146 C 0.0622 0.0376 1.03434 0.0
O147 O 0.23943 0.03046 0.95773 0.0
C148 C 0.10757 0.08299 0.9349 0.0
C149 C 0.06295 0.25278 0.99308 0.0
O150 O 0.08829 0.99688 1.01105 0.0
O151 O 0.09571 0.10223 1.03549 0.0
O152 O 0.1179 1.02151 0.9514 0.0
O153 O 0.1151 0.14493 0.95036 0.0
O154 O 0.05678 0.17769 0.99142 0.0
O155 O 0.12972 0.28032 0.98778 0.0
C156 C 0.22766 0.31609 0.93045 0.0
O157 O 0.16476 0.29379 0.94239 0.0
O158 O 0.2855 0.27669 0.94047 0.0
C159 C 0.26188 0.1889 1.02736 0.0
Tb160 Tb 0.83984 0.90202 0.73998 0.0
C161 C 1.0026 0.81316 0.74311 0.0
Tb162 Tb 0.95311 0.96305 0.71809 0.0
O163 O 0.77094 0.86781 0.70166 0.0
O164 O 0.89449 0.86527 0.70019 0.0
O165 O 0.92754 0.80701 0.74133 0.0
C166 C 0.06572 0.97663 0.68041 0.0
O167 O 0.03013 0.87998 0.73794 0.0
C168 C 0.93854 1.01151 0.77745 0.0
C169 C 0.81395 1.02245 0.68216 0.0
O170 O 0.04223 0.91371 0.69195 0.0
O171 O 1.02758 0.03496 0.69079 0.0
O172 O 1.00128 0.99943 0.76277 0.0
O173 O 0.88402 1.00476 0.75799 0.0
O174 O 0.88806 1.02275 0.68175 0.0
O175 O 0.7804 0.9897 0.70769 0.0
C176 C 0.78786 0.81284 0.78449 0.0
O177 O 0.74696 0.83899 0.76126 0.0
O178 O 0.85261 0.84614 0.78548 0.0
C179 C 0.83218 0.85741 0.68502 0.0
Tb180 Tb 0.90621 0.09009 0.48986 0.0
C181 C 0.99511 0.25275 0.49301 0.0
Tb182 Tb 0.84525 0.20304 0.46812 0.0
O183 O 0.94039 1.02091 0.45164 0.0
O184 O 0.94294 0.14456 0.45001 0.0
O185 O 1.00128 0.17771 0.49118 0.0
C186 C 0.83119 0.31603 0.4306 0.0
O187 O 0.92825 0.28021 0.4879 0.0
C188 C 0.79666 0.18839 0.52747 0.0
C189 C 0.78582 0.06417 0.43205 0.0
O190 O 0.89411 0.29286 0.44222 0.0
O191 O 0.77309 0.27729 0.44081 0.0
O192 O 0.80887 0.25113 0.51281 0.0
O193 O 0.80344 0.1339 0.508 0.0
O194 O 0.78556 0.13829 0.43167 0.0
O195 O 0.81854 0.03059 0.45758 0.0
C196 C 0.99558 0.03821 0.53431 0.0
O197 O 0.96926 0.99721 0.51115 0.0
O198 O 0.9623 0.10298 0.53531 0.0
C199 C 0.95086 0.08207 0.43494 0.0
Tb200 Tb 0.71817 0.15611 0.23998 0.0
C201 C 0.55543 0.24499 0.24311 0.0
Tb202 Tb 0.60492 0.0951 0.21809 0.0
O203 O 0.78708 0.19033 0.20167 0.0
O204 O 0.66354 0.19287 0.20019 0.0
O205 O 0.63048 0.25113 0.24133 0.0
C206 C 0.49229 0.0815 0.18041 0.0
O207 O 0.52789 0.17817 0.23793 0.0
C208 C 0.61948 0.04663 0.27745 0.0
C209 C 0.74406 0.03569 0.18216 0.0
O210 O 0.51576 0.14442 0.19195 0.0
O211 O 0.53046 1.02317 0.19079 0.0
O212 O 0.55674 0.05873 0.26276 0.0
O213 O 0.67399 0.05337 0.25799 0.0
O214 O 0.66994 0.0354 0.18174 0.0
O215 O 0.77761 0.06843 0.20769 0.0
C216 C 0.77015 0.24528 0.28449 0.0
O217 O 0.81105 0.21913 0.26127 0.0
O218 O 0.70539 0.21201 0.28547 0.0
C219 C 0.72586 0.20073 0.18502 0.0
Tb220 Tb 0.6518 0.96807 0.98986 0.0
C221 C 0.56291 0.8054 0.99301 0.0
Tb222 Tb 0.71276 0.85511 0.96811 0.0
O223 O 0.61761 0.03725 0.95164 0.0
O224 O 0.61506 0.9136 0.95001 0.0
O225 O 0.55673 0.88044 0.99118 0.0
C226 C 0.72678 0.74212 0.93059 0.0
O227 O 0.62976 0.77794 0.9879 0.0
C228 C 0.76134 0.86975 1.02746 0.0
C229 C 0.77219 0.99398 0.93206 0.0
O230 O 0.66385 0.76533 0.9422 0.0
O231 O 0.78489 0.78082 0.94082 0.0
O232 O 0.74913 0.80701 1.01281 0.0
O233 O 0.75456 0.92425 1.008 0.0
O234 O 0.77245 0.91986 0.93168 0.0
O235 O 0.73947 1.02756 0.95759 0.0
C236 C 0.56243 1.01993 1.03431 0.0
O237 O 0.58873 0.06093 1.01115 0.0
O238 O 0.59572 0.95517 1.03531 0.0
C239 C 0.60715 0.97608 0.93494 0.0
Tb240 Tb 0.83985 0.15612 0.84704 0.0
C241 C 1.00258 0.245 0.8439 0.0
Tb242 Tb 0.95309 0.09513 0.86893 0.0
O243 O 0.77095 0.19035 0.88535 0.0
O244 O 0.89449 0.19291 0.88683 0.0
O245 O 0.92753 0.25114 0.84568 0.0
C246 C 0.06571 0.08149 0.90661 0.0
O247 O 0.03012 0.17818 0.84908 0.0
C248 C 0.93853 0.04652 0.8096 0.0
C249 C 0.81396 0.03572 0.90487 0.0
O250 O 0.04227 0.14442 0.89506 0.0
O251 O 1.02752 1.02318 0.89623 0.0
O252 O 1.00127 0.05875 0.82426 0.0
O253 O 0.884 0.05334 0.82904 0.0
O254 O 0.88808 0.03545 0.90529 0.0
O255 O 0.78041 0.06846 0.87934 0.0
C256 C 0.78786 0.24528 0.80253 0.0
O257 O 0.74696 0.21913 0.82575 0.0
O258 O 0.85261 0.21199 0.80154 0.0
C259 C 0.83218 0.20078 0.902 0.0
Tb260 Tb 0.6518 0.0901 0.59716 0.0
C261 C 0.5629 0.25276 0.594 0.0
Tb262 Tb 0.71273 0.20303 0.6189 0.0
O263 O 0.61761 1.02092 0.63538 0.0
O264 O 0.61503 0.14457 0.637 0.0
O265 O 0.55673 0.17771 0.59583 0.0
C266 C 0.72682 0.31601 0.65642 0.0
O267 O 0.62975 0.28022 0.59911 0.0
C268 C 0.76146 0.18839 0.55958 0.0
C269 C 0.77217 0.06419 0.65498 0.0
O270 O 0.66389 0.29287 0.64479 0.0
O271 O 0.78491 0.27725 0.64621 0.0
O272 O 0.74912 0.25113 0.57421 0.0
O273 O 0.75461 0.13388 0.57903 0.0
O274 O 0.77241 0.1383 0.65536 0.0
O275 O 0.73945 0.0306 0.62945 0.0
C276 C 0.56244 0.03821 0.55271 0.0
O277 O 0.58875 0.99722 0.57587 0.0
O278 O 0.59572 0.10297 0.55171 0.0
C279 C 0.60711 0.08208 0.65207 0.0
Tb280 Tb 0.71816 0.90202 0.34704 0.0
C281 C 0.55541 0.81314 0.3439 0.0
Tb282 Tb 0.6049 0.96301 0.36892 0.0
O283 O 0.78706 0.86779 0.38536 0.0
O284 O 0.66351 0.86523 0.38682 0.0
O285 O 0.63047 0.807 0.34568 0.0
C286 C 0.4923 0.97662 0.40661 0.0
O287 O 0.52788 0.87996 0.34907 0.0
C288 C 0.61947 1.01161 0.3096 0.0
C289 C 0.74405 1.02243 0.40487 0.0
O290 O 0.51576 0.9137 0.39507 0.0
O291 O 0.53046 0.03495 0.39623 0.0
O292 O 0.55673 0.99939 0.32425 0.0
O293 O 0.674 1.00479 0.32904 0.0
O294 O 0.66993 1.02271 0.40528 0.0
O295 O 0.7776 0.98968 0.37934 0.0
C296 C 0.77016 0.81285 0.30253 0.0
O297 O 0.81104 0.83899 0.32576 0.0
O298 O 0.70541 0.84615 0.30154 0.0
C299 C 0.72582 0.85737 0.402 0.0
Tb300 Tb 0.9062 0.96805 0.09716 0.0
C301 C 0.9951 0.80539 0.094 0.0
Tb302 Tb 0.84527 0.85511 0.1189 0.0
O303 O 0.9404 0.03723 0.13538 0.0
O304 O 0.94297 0.91358 0.137 0.0
O305 O 1.00127 0.88043 0.09583 0.0
C306 C 0.83122 0.74213 0.15643 0.0
O307 O 0.92824 0.77793 0.09911 0.0
C308 C 0.79654 0.86975 0.05958 0.0
C309 C 0.78583 0.99396 0.15497 0.0
O310 O 0.89414 0.76531 0.14481 0.0
O311 O 0.77312 0.78086 0.14621 0.0
O312 O 0.80888 0.807 0.07421 0.0
O313 O 0.8034 0.92426 0.07903 0.0
O314 O 0.78559 0.91984 0.15535 0.0
O315 O 0.81855 1.02754 0.12944 0.0
C316 C 0.99557 1.01992 0.05271 0.0
O317 O 0.96927 0.06092 0.07587 0.0
O318 O 0.96227 0.95517 0.05171 0.0
C319 C 0.95089 0.97606 0.15207 0.0
Tb320 Tb 0.60489 0.59497 0.86895 0.0
C321 C 0.7441 0.53606 0.90497 0.0
Tb322 Tb 0.71814 0.65648 0.84715 0.0
O323 O 0.55675 0.55775 0.82443 0.0
O324 O 0.6742 0.55371 0.82893 0.0
O325 O 0.67 0.53588 0.90544 0.0
C326 C 0.77021 0.74621 0.80287 0.0
O327 O 0.77761 0.56868 0.87939 0.0
C328 C 0.72519 0.70051 0.90223 0.0
C329 C 0.55527 0.74513 0.84408 0.0
O330 O 0.81103 0.72001 0.8261 0.0
O331 O 0.70563 0.71262 0.8017 0.0
O332 O 0.78662 0.69022 0.8857 0.0
O333 O 0.66316 0.69291 0.88683 0.0
O334 O 0.63033 0.75137 0.84577 0.0
O335 O 0.52781 0.6783 0.84931 0.0
C336 C 0.49194 0.58006 0.90646 0.0
O337 O 0.51406 0.643 0.89448 0.0
O338 O 0.53163 0.52233 0.89654 0.0
C339 C 0.61944 0.54631 0.80964 0.0
Tb340 Tb 0.71321 0.35485 0.11896 0.0
C341 C 0.77217 0.4943 0.15487 0.0
Tb342 Tb 0.65174 0.46839 0.09703 0.0
O343 O 0.75041 0.30662 0.07444 0.0
O344 O 0.75445 0.42412 0.07893 0.0
O345 O 0.77236 0.42018 0.15536 0.0
C346 C 0.56221 0.52057 0.05269 0.0
O347 O 0.73953 0.52781 0.12929 0.0
C348 C 0.60773 0.47521 0.15214 0.0
C349 C 0.5631 0.30544 0.09396 0.0
O350 O 0.58828 0.56133 0.07597 0.0
O351 O 0.59577 0.45596 0.05155 0.0
O352 O 0.61799 0.5367 0.13565 0.0
O353 O 0.61526 0.41329 0.13667 0.0
O354 O 0.5569 0.38053 0.09563 0.0
O355 O 0.62988 0.27789 0.09924 0.0
C356 C 0.72763 0.24223 0.15662 0.0
O357 O 0.66471 0.26469 0.14475 0.0
O358 O 0.78559 0.28133 0.14653 0.0
C359 C 0.76181 0.36933 0.05964 0.0
Tb360 Tb 0.9531 0.46314 0.36895 0.0
C361 C 0.81391 0.52206 0.40498 0.0
Tb362 Tb 0.83987 0.40165 0.34715 0.0
O363 O 1.00125 0.50035 0.32443 0.0
O364 O 0.8838 0.50441 0.32893 0.0
O365 O 0.88801 0.52223 0.40545 0.0
C366 C 0.7878 0.31192 0.30286 0.0
O367 O 0.7804 0.48944 0.3794 0.0
C368 C 0.83279 0.3576 0.40223 0.0
C369 C 1.00272 0.31298 0.34408 0.0
O370 O 0.74698 0.33813 0.3261 0.0
O371 O 0.85239 0.34549 0.30171 0.0
O372 O 0.77137 0.3679 0.38569 0.0
O373 O 0.89484 0.3652 0.38684 0.0
O374 O 0.92767 0.30675 0.34577 0.0
O375 O 0.03018 0.37981 0.34932 0.0
C376 C 0.06607 0.47807 0.40645 0.0
O377 O 0.04395 0.41513 0.39448 0.0
O378 O 1.02635 0.53579 0.39654 0.0
C379 C 0.93856 0.51181 0.30964 0.0
Tb380 Tb 0.8448 0.70327 0.61896 0.0
C381 C 0.78584 0.56382 0.65487 0.0
Tb382 Tb 0.90627 0.58971 0.59703 0.0
O383 O 0.80761 0.7515 0.57445 0.0
O384 O 0.80356 0.634 0.57894 0.0
O385 O 0.78565 0.63794 0.65536 0.0
C386 C 0.9958 0.53756 0.55268 0.0
O387 O 0.81848 0.5303 0.62929 0.0
C388 C 0.95029 0.5829 0.65214 0.0
C389 C 0.9949 0.75268 0.59396 0.0
O390 O 0.96974 0.49679 0.57597 0.0
O391 O 0.96222 0.60215 0.55154 0.0
O392 O 0.94003 0.52141 0.63565 0.0
O393 O 0.94275 0.64482 0.63667 0.0
O394 O 1.0011 0.67759 0.59563 0.0
O395 O 0.92812 0.78023 0.59924 0.0
C396 C 0.83041 0.81588 0.65663 0.0
O397 O 0.89334 0.79338 0.64477 0.0
O398 O 0.77244 0.77682 0.64652 0.0
C399 C 0.7962 0.68879 0.55964 0.0
Tb400 Tb 0.60492 0.46311 0.71807 0.0
C401 C 0.74409 0.52205 0.68204 0.0
Tb402 Tb 0.71812 0.40165 0.73987 0.0
O403 O 0.55676 0.50033 0.76259 0.0
O404 O 0.67423 0.50445 0.75808 0.0
O405 O 0.66999 0.5222 0.68157 0.0
C406 C 0.7702 0.31192 0.78416 0.0
O407 O 0.7776 0.48943 0.70762 0.0
C408 C 0.72522 0.35758 0.6848 0.0
C409 C 0.55528 0.31299 0.74295 0.0
O410 O 0.81102 0.33814 0.76092 0.0
O411 O 0.70562 0.3455 0.78532 0.0
O412 O 0.78664 0.36789 0.70134 0.0
O413 O 0.66317 0.36517 0.70018 0.0
O414 O 0.63034 0.30675 0.74126 0.0
O415 O 0.52782 0.37982 0.73771 0.0
C416 C 0.49197 0.47808 0.68057 0.0
O417 O 0.51406 0.41514 0.69254 0.0
O418 O 0.5317 0.53578 0.69048 0.0
C419 C 0.61945 0.51192 0.77736 0.0
Tb420 Tb 0.84485 0.35488 0.96807 0.0
C421 C 0.78586 0.49429 0.93215 0.0
Tb422 Tb 0.90628 0.46839 0.98999 0.0
O423 O 0.80767 0.30663 1.01257 0.0
O424 O 0.80354 0.42415 1.00808 0.0
O425 O 0.78568 0.42017 0.93165 0.0
C426 C 0.99581 0.52056 1.03434 0.0
O427 O 0.8185 0.52781 0.95772 0.0
C428 C 0.95033 0.47524 0.93488 0.0
C429 C 0.99493 0.30544 0.99307 0.0
O430 O 0.96973 0.56132 1.01105 0.0
O431 O 0.96225 0.45596 1.03547 0.0
O432 O 0.94005 0.53673 0.95138 0.0
O433 O 0.9428 0.41332 0.95035 0.0
O434 O 1.00112 0.38053 0.9914 0.0
O435 O 0.92815 0.2779 0.98779 0.0
C436 C 0.83042 0.24228 0.93039 0.0
O437 O 0.89335 0.26474 0.94226 0.0
O438 O 0.77246 0.28137 0.9405 0.0
C439 C 0.79611 0.36933 1.02735 0.0
Tb440 Tb 0.9531 0.595 0.21807 0.0
C441 C 0.81392 0.53606 0.18204 0.0
Tb442 Tb 0.83989 0.65648 0.23987 0.0
O443 O 1.00126 0.55778 0.2626 0.0
O444 O 0.88379 0.55368 0.25808 0.0
O445 O 0.88802 0.53591 0.18157 0.0
C446 C 0.78781 0.74621 0.28416 0.0
O447 O 0.78041 0.56869 0.20762 0.0
C448 C 0.83281 0.70054 0.1848 0.0
C449 C 1.00274 0.74514 0.24295 0.0
O450 O 0.747 0.72001 0.26091 0.0
O451 O 0.85239 0.71262 0.28532 0.0
O452 O 0.77139 0.69023 0.20133 0.0
O453 O 0.89485 0.69295 0.20019 0.0
O454 O 0.92769 0.75137 0.24126 0.0
O455 O 0.0302 0.6783 0.23772 0.0
C456 C 0.06605 0.58006 0.18057 0.0
O457 O 0.04395 0.643 0.19254 0.0
O458 O 1.02633 0.52235 0.19048 0.0
C459 C 0.93857 0.5462 0.27736 0.0
Tb460 Tb 0.71317 0.70324 0.46806 0.0
C461 C 0.77216 0.56382 0.43215 0.0
Tb462 Tb 0.65173 0.58972 0.48999 0.0
O463 O 0.75036 0.7515 0.51257 0.0
O464 O 0.75447 0.63398 0.50808 0.0
O465 O 0.77233 0.63794 0.43166 0.0
C466 C 0.56221 0.53756 0.53434 0.0
O467 O 0.73951 0.5303 0.45773 0.0
C468 C 0.60769 0.58288 0.43488 0.0
C469 C 0.5631 0.75267 0.49307 0.0
O470 O 0.58827 0.4968 0.51105 0.0
O471 O 0.59578 0.60216 0.53548 0.0
O472 O 0.61796 0.52139 0.45138 0.0
O473 O 0.61522 0.6448 0.45035 0.0
O474 O 0.5569 0.67759 0.4914 0.0
O475 O 0.62988 0.78022 0.48779 0.0
C476 C 0.72758 0.81584 0.43039 0.0
O477 O 0.66465 0.79335 0.44225 0.0
O478 O 0.78554 0.77678 0.4405 0.0
C479 C 0.7619 0.68879 0.52735 0.0
Tb480 Tb 0.34005 0.40189 0.23998 0.0
C481 C 0.50276 0.31301 0.24309 0.0
Tb482 Tb 0.45323 0.46289 0.2181 0.0
O483 O 0.27099 0.36768 0.20171 0.0
O484 O 0.39459 0.36515 0.20016 0.0
O485 O 0.42771 0.30686 0.24132 0.0
C486 C 0.56588 0.47665 0.18044 0.0
O487 O 0.53029 0.37984 0.23792 0.0
C488 C 0.43864 0.51143 0.27746 0.0
C489 C 0.31411 0.5223 0.18215 0.0
O490 O 0.54249 0.41371 0.19198 0.0
O491 O 0.52762 0.53492 0.19081 0.0
O492 O 0.50138 0.49928 0.26279 0.0
O493 O 0.38414 0.50467 0.258 0.0
O494 O 0.38823 0.52258 0.18173 0.0
O495 O 0.28058 0.48958 0.20769 0.0
C496 C 0.28817 0.31264 0.28446 0.0
O497 O 0.2472 0.33886 0.26127 0.0
O498 O 0.3529 0.34596 0.28546 0.0
C499 C 0.33219 0.35728 0.18504 0.0
Tb500 Tb 0.40614 0.58993 0.98986 0.0
C501 C 0.49495 0.75266 0.993 0.0
Tb502 Tb 0.34512 0.70294 0.9681 0.0
O503 O 0.44032 0.52079 0.95162 0.0
O504 O 0.44281 0.64443 0.95001 0.0
O505 O 0.50115 0.67761 0.99117 0.0
C506 C 0.33126 0.81579 0.93053 0.0
O507 O 0.42808 0.78012 0.98791 0.0
C508 C 0.29663 0.68829 1.02746 0.0
C509 C 0.28567 0.56403 0.93206 0.0
O510 O 0.3942 0.79243 0.94208 0.0
O511 O 0.27304 0.77737 0.94084 0.0
O512 O 0.3088 0.75104 1.0128 0.0
O513 O 0.30339 0.63379 1.00799 0.0
O514 O 0.28534 0.63815 0.93169 0.0
O515 O 0.31845 0.53044 0.95758 0.0
C516 C 0.49557 0.53817 1.03431 0.0
O517 O 0.46928 0.49713 1.01116 0.0
O518 O 0.46222 0.6029 1.0353 0.0
C519 C 0.45073 0.58197 0.93493 0.0
Tb520 Tb 0.21796 0.65624 0.73997 0.0
C521 C 0.05526 0.74513 0.74309 0.0
Tb522 Tb 0.1048 0.59525 0.7181 0.0
O523 O 0.28703 0.69046 0.70172 0.0
O524 O 0.16343 0.693 0.70015 0.0
O525 O 0.13031 0.75128 0.74132 0.0
C526 C 0.99213 0.58146 0.68044 0.0
O527 O 1.02773 0.67831 0.73791 0.0
C528 C 0.11937 0.54671 0.77745 0.0
C529 C 0.2439 0.53585 0.68214 0.0
O530 O 1.0155 0.64442 0.69199 0.0
O531 O 0.03043 0.52321 0.69081 0.0
O532 O 0.05664 0.55888 0.76278 0.0
O533 O 0.17388 0.55347 0.758 0.0
O534 O 0.16979 0.53558 0.68173 0.0
O535 O 0.27744 0.56856 0.70769 0.0
C536 C 0.26984 0.74549 0.78446 0.0
O537 O 0.31082 0.71926 0.76128 0.0
O538 O 0.20511 0.71218 0.78545 0.0
C539 C 0.22584 0.70086 0.68504 0.0
Tb540 Tb 0.15187 0.46822 0.48986 0.0
C541 C 0.06307 0.30549 0.493 0.0
Tb542 Tb 0.21289 0.3552 0.46809 0.0
O543 O 0.11769 0.53736 0.45161 0.0
O544 O 0.1152 0.41372 0.45001 0.0
O545 O 0.05686 0.38053 0.49116 0.0
C546 C 0.22672 0.24235 0.43052 0.0
O547 O 0.12993 0.27802 0.48791 0.0
C548 C 0.26138 0.36985 0.52746 0.0
C549 C 0.27235 0.49412 0.43207 0.0
O550 O 0.16378 0.26574 0.44206 0.0
O551 O 0.28495 0.28074 0.44085 0.0
O552 O 0.24921 0.3071 0.5128 0.0
O553 O 0.25463 0.42435 0.50799 0.0
O554 O 0.27267 0.42 0.4317 0.0
O555 O 0.23956 0.5277 0.45758 0.0
C556 C 0.06245 0.51997 0.53431 0.0
O557 O 0.08872 0.56101 0.51116 0.0
O558 O 0.09581 0.45524 0.5353 0.0
C559 C 0.10728 0.47617 0.43492 0.0
Tb560 Tb 0.34007 0.65622 0.34704 0.0
C561 C 0.50276 0.74512 0.34392 0.0
Tb562 Tb 0.4532 0.59526 0.36891 0.0
O563 O 0.271 0.69046 0.3853 0.0
O564 O 0.3946 0.69301 0.38686 0.0
O565 O 0.42771 0.75127 0.34569 0.0
C566 C 0.56587 0.58143 0.40657 0.0
O567 O 0.53029 0.6783 0.3491 0.0
C568 C 0.43864 0.54657 0.30959 0.0
C569 C 0.31413 0.53586 0.40488 0.0
O570 O 0.54254 0.64438 0.39502 0.0
O571 O 0.52754 0.52319 0.39621 0.0
O572 O 0.50137 0.55887 0.32424 0.0
O573 O 0.38412 0.55341 0.32903 0.0
O574 O 0.38824 0.5356 0.4053 0.0
O575 O 0.28059 0.56856 0.37934 0.0
C576 C 0.28817 0.74547 0.30255 0.0
O577 O 0.24721 0.71924 0.32574 0.0
O578 O 0.35291 0.71215 0.30156 0.0
C579 C 0.33219 0.70088 0.40197 0.0
Tb580 Tb 0.15188 0.58995 0.09717 0.0
C581 C 0.06306 0.75265 0.09401 0.0
Tb582 Tb 0.21286 0.70293 0.11892 0.0
O583 O 0.11768 0.52079 0.1354 0.0
O584 O 0.11516 0.64443 0.13701 0.0
O585 O 0.05685 0.67761 0.09585 0.0
C586 C 0.22675 0.81577 0.15649 0.0
O587 O 0.12992 0.78012 0.0991 0.0
C588 C 0.26149 0.68829 0.05959 0.0
C589 C 0.27233 0.56404 0.15496 0.0
O590 O 0.1638 0.79243 0.14494 0.0
O591 O 0.28496 0.77734 0.14618 0.0
O592 O 0.24918 0.75104 0.07423 0.0
O593 O 0.25466 0.63377 0.07904 0.0
O594 O 0.27263 0.63816 0.15534 0.0
O595 O 0.23955 0.53045 0.12945 0.0
C596 C 0.06246 0.53817 0.05271 0.0
O597 O 0.08874 0.49714 0.07587 0.0
O598 O 0.09581 0.6029 0.05172 0.0
C599 C 0.10725 0.58197 0.15209 0.0
Tb600 Tb 0.21794 0.40192 0.84704 0.0
C601 C 0.05524 0.31303 0.84392 0.0
Tb602 Tb 0.10479 0.46289 0.86891 0.0
O603 O 0.28699 0.36768 0.88531 0.0
O604 O 0.1634 0.36514 0.88685 0.0
O605 O 0.13029 0.30688 0.84569 0.0
C606 C 0.99214 0.4767 0.90657 0.0
O607 O 1.02771 0.37985 0.84909 0.0
C608 C 0.11936 0.51157 0.80958 0.0
C609 C 0.24388 0.52229 0.90488 0.0
O610 O 1.01547 0.41375 0.89501 0.0
O611 O 0.03045 0.53495 0.89621 0.0
O612 O 0.05663 0.49929 0.82423 0.0
O613 O 0.17389 0.50472 0.82903 0.0
O614 O 0.16977 0.52255 0.9053 0.0
O615 O 0.27742 0.48958 0.87934 0.0
C616 C 0.26984 0.31266 0.80255 0.0
O617 O 0.3108 0.33888 0.82575 0.0
O618 O 0.20511 0.346 0.80155 0.0
C619 C 0.22579 0.35726 0.90197 0.0
Tb620 Tb 0.40613 0.46821 0.59716 0.0
C621 C 0.49494 0.30549 0.59401 0.0
Tb622 Tb 0.34514 0.35521 0.61893 0.0
O623 O 0.44034 0.53736 0.6354 0.0
O624 O 0.44285 0.41372 0.637 0.0
O625 O 0.50115 0.38053 0.59585 0.0
C626 C 0.33129 0.24237 0.6565 0.0
O627 O 0.42808 0.27803 0.5991 0.0
C628 C 0.29652 0.36985 0.55959 0.0
C629 C 0.28568 0.49411 0.65496 0.0
O630 O 0.39423 0.26575 0.64496 0.0
O631 O 0.27307 0.28078 0.64618 0.0
O632 O 0.30883 0.3071 0.57423 0.0
O633 O 0.30335 0.42437 0.57904 0.0
O634 O 0.28537 0.41999 0.65533 0.0
O635 O 0.31846 0.5277 0.62945 0.0
C636 C 0.49555 0.51997 0.55271 0.0
O637 O 0.46928 0.56101 0.57586 0.0
O638 O 0.46219 0.45525 0.55171 0.0
C639 C 0.45076 0.47618 0.65209 0.0
loop_
_geom_bond_atom_site_label_1
_geom_bond_atom_site_label_2
_geom_bond_distance
_geom_bond_site_symmetry_2
_ccdc_geom_bond_type
Tb0 O3 2.453 . S
Tb0 O4 2.596 . S
Tb0 O5 2.374 . S
Tb0 O13 2.343 . S
Tb0 O15 2.353 . S
Tb0 O17 2.427 1_455 S
Tb0 O18 2.513 . S
C1 O5 1.251 . S
C1 O7 1.263 . S
Tb2 O4 2.343 . S
Tb2 O7 2.353 . S
Tb2 O10 2.427 . S
Tb2 O11 2.513 . S
Tb2 O12 2.453 . S
Tb2 O13 2.596 . S
Tb2 O14 2.374 . S
O3 Tb0 2.453 . S
O3 C19 1.245 . S
O4 Tb0 2.596 . S
O4 Tb2 2.343 . S
O4 C19 1.259 . S
O5 Tb0 2.374 . S
O5 C1 1.251 . S
C6 O10 1.275 . S
C6 O11 1.246 . S
O7 C1 1.263 . S
O7 Tb2 2.353 . S
C8 O12 1.245 . S
C8 O13 1.259 . S
C9 O14 1.250 . S
C9 O15 1.263 . S
O10 Tb2 2.427 . S
O10 C6 1.275 . S
O11 Tb2 2.513 . S
O11 C6 1.246 . S
O12 Tb2 2.453 . S
O12 C8 1.245 . S
O13 Tb0 2.343 . S
O13 Tb2 2.596 . S
O13 C8 1.259 . S
O14 Tb2 2.374 . S
O14 C9 1.250 . S
O15 Tb0 2.353 . S
O15 C9 1.263 . S
C16 O17 1.275 . S
C16 O18 1.246 1_655 S
O17 Tb0 2.427 1_655 S
O17 C16 1.275 . S
O18 Tb0 2.513 . S
O18 C16 1.246 1_455 S
C19 O3 1.245 . S
C19 O4 1.259 . S
Tb20 O23 2.453 . S
Tb20 O24 2.596 . S
Tb20 O25 2.374 . S
Tb20 O33 2.343 . S
Tb20 O35 2.353 . S
Tb20 O37 2.427 . S
Tb20 O38 2.513 . S
C21 O25 1.251 . S
C21 O27 1.263 1_565 S
Tb22 O24 2.343 . S
Tb22 O27 2.353 1_565 S
Tb22 O30 2.427 1_565 S
Tb22 O31 2.513 . S
Tb22 O32 2.453 1_455 S
Tb22 O33 2.596 . S
Tb22 O34 2.374 . S
O23 Tb20 2.453 . S
O23 C39 1.245 . S
O24 Tb20 2.596 . S
O24 Tb22 2.343 . S
O24 C39 1.259 . S
O25 Tb20 2.374 . S
O25 C21 1.251 . S
C26 O30 1.275 . S
C26 O31 1.246 1_545 S
O27 C21 1.263 1_545 S
O27 Tb22 2.353 1_545 S
C28 O32 1.245 1_455 S
C28 O33 1.259 . S
C29 O34 1.250 . S
C29 O35 1.263 . S
O30 Tb22 2.427 1_545 S
O30 C26 1.275 . S
O31 Tb22 2.513 . S
O31 C26 1.246 1_565 S
O32 Tb22 2.453 1_655 S
O32 C28 1.245 1_655 S
O33 Tb20 2.343 . S
O33 Tb22 2.596 . S
O33 C28 1.259 . S
O34 Tb22 2.374 . S
O34 C29 1.250 . S
O35 Tb20 2.353 . S
O35 C29 1.263 . S
C36 O37 1.275 . S
C36 O38 1.246 . S
O37 Tb20 2.427 . S
O37 C36 1.275 . S
O38 Tb20 2.513 . S
O38 C36 1.246 . S
C39 O23 1.245 . S
C39 O24 1.259 . S
Tb40 O43 2.453 . S
Tb40 O44 2.596 . S
Tb40 O45 2.374 . S
Tb40 O53 2.343 . S
Tb40 O55 2.353 . S
Tb40 O57 2.427 . S
Tb40 O58 2.513 . S
C41 O45 1.251 . S
C41 O47 1.263 . S
Tb42 O44 2.343 . S
Tb42 O47 2.353 . S
Tb42 O50 2.427 . S
Tb42 O51 2.513 . S
Tb42 O52 2.453 . S
Tb42 O53 2.596 . S
Tb42 O54 2.374 . S
O43 Tb40 2.453 . S
O43 C59 1.245 . S
O44 Tb40 2.596 . S
O44 Tb42 2.343 . S
O44 C59 1.259 . S
O45 Tb40 2.374 . S
O45 C41 1.251 . S
C46 O50 1.275 . S
C46 O51 1.246 . S
O47 C41 1.263 . S
O47 Tb42 2.353 . S
C48 O52 1.245 . S
C48 O53 1.259 . S
C49 O54 1.250 . S
C49 O55 1.263 . S
O50 Tb42 2.427 . S
O50 C46 1.275 . S
O51 Tb42 2.513 . S
O51 C46 1.246 . S
O52 Tb42 2.453 . S
O52 C48 1.245 . S
O53 Tb40 2.343 . S
O53 Tb42 2.596 . S
O53 C48 1.259 . S
O54 Tb42 2.374 . S
O54 C49 1.250 . S
O55 Tb40 2.353 . S
O55 C49 1.263 . S
C56 O57 1.275 . S
C56 O58 1.246 . S
O57 Tb40 2.427 . S
O57 C56 1.275 . S
O58 Tb40 2.513 . S
O58 C56 1.246 . S
C59 O43 1.245 . S
C59 O44 1.259 . S
Tb60 O63 2.453 . S
Tb60 O64 2.596 . S
Tb60 O65 2.374 . S
Tb60 O73 2.343 . S
Tb60 O75 2.353 . S
Tb60 O77 2.427 . S
Tb60 O78 2.513 . S
C61 O65 1.251 . S
C61 O67 1.263 1_545 S
Tb62 O64 2.343 . S
Tb62 O67 2.353 1_545 S
Tb62 O70 2.427 1_545 S
Tb62 O71 2.513 . S
Tb62 O72 2.453 . S
Tb62 O73 2.596 . S
Tb62 O74 2.374 . S
O63 Tb60 2.453 . S
O63 C79 1.245 . S
O64 Tb60 2.596 . S
O64 Tb62 2.343 . S
O64 C79 1.259 . S
O65 Tb60 2.374 . S
O65 C61 1.251 . S
C66 O70 1.275 . S
C66 O71 1.246 1_565 S
O67 C61 1.263 1_565 S
O67 Tb62 2.353 1_565 S
C68 O72 1.245 . S
C68 O73 1.259 . S
C69 O74 1.250 . S
C69 O75 1.263 . S
O70 Tb62 2.427 1_565 S
O70 C66 1.275 . S
O71 Tb62 2.513 . S
O71 C66 1.246 1_545 S
O72 Tb62 2.453 . S
O72 C68 1.245 . S
O73 Tb60 2.343 . S
O73 Tb62 2.596 . S
O73 C68 1.259 . S
O74 Tb62 2.374 . S
O74 C69 1.250 . S
O75 Tb60 2.353 . S
O75 C69 1.263 . S
C76 O77 1.275 . S
C76 O78 1.246 . S
O77 Tb60 2.427 . S
O77 C76 1.275 . S
O78 Tb60 2.513 . S
O78 C76 1.246 . S
C79 O63 1.245 . S
C79 O64 1.259 . S
Tb80 O83 2.453 . S
Tb80 O84 2.596 . S
Tb80 O85 2.374 . S
Tb80 O93 2.343 . S
Tb80 O95 2.353 . S
Tb80 O97 2.427 1_455 S
Tb80 O98 2.513 . S
C81 O85 1.251 . S
C81 O87 1.263 . S
Tb82 O84 2.343 . S
Tb82 O87 2.353 . S
Tb82 O90 2.427 . S
Tb82 O91 2.513 . S
Tb82 O92 2.453 . S
Tb82 O93 2.596 . S
Tb82 O94 2.374 . S
O83 Tb80 2.453 . S
O83 C99 1.245 . S
O84 Tb80 2.596 . S
O84 Tb82 2.343 . S
O84 C99 1.259 . S
O85 Tb80 2.374 . S
O85 C81 1.251 . S
C86 O90 1.275 . S
C86 O91 1.246 . S
O87 C81 1.263 . S
O87 Tb82 2.353 . S
C88 O92 1.245 . S
C88 O93 1.259 . S
C89 O94 1.250 . S
C89 O95 1.263 . S
O90 Tb82 2.427 . S
O90 C86 1.275 . S
O91 Tb82 2.513 . S
O91 C86 1.246 . S
O92 Tb82 2.453 . S
O92 C88 1.245 . S
O93 Tb80 2.343 . S
O93 Tb82 2.596 . S
O93 C88 1.259 . S
O94 Tb82 2.374 . S
O94 C89 1.250 . S
O95 Tb80 2.353 . S
O95 C89 1.263 . S
C96 O97 1.275 . S
C96 O98 1.246 1_655 S
O97 Tb80 2.427 1_655 S
O97 C96 1.275 . S
O98 Tb80 2.513 . S
O98 C96 1.246 1_455 S
C99 O83 1.245 . S
C99 O84 1.259 . S
Tb100 O103 2.453 . S
Tb100 O104 2.596 . S
Tb100 O105 2.374 . S
Tb100 O113 2.343 . S
Tb100 O115 2.353 . S
Tb100 O117 2.427 . S
Tb100 O118 2.513 . S
C101 O105 1.251 . S
C101 O107 1.263 1_565 S
Tb102 O104 2.343 . S
Tb102 O107 2.353 1_565 S
Tb102 O110 2.427 1_565 S
Tb102 O111 2.513 . S
Tb102 O112 2.453 . S
Tb102 O113 2.596 . S
Tb102 O114 2.374 . S
O103 Tb100 2.453 . S
O103 C119 1.245 . S
O104 Tb100 2.596 . S
O104 Tb102 2.343 . S
O104 C119 1.259 . S
O105 Tb100 2.374 . S
O105 C101 1.251 . S
C106 O110 1.275 . S
C106 O111 1.246 1_545 S
O107 C101 1.263 1_545 S
O107 Tb102 2.353 1_545 S
C108 O112 1.245 . S
C108 O113 1.259 . S
C109 O114 1.250 . S
C109 O115 1.263 . S
O110 Tb102 2.427 1_545 S
O110 C106 1.275 . S
O111 Tb102 2.513 . S
O111 C106 1.246 1_565 S
O112 Tb102 2.453 . S
O112 C108 1.245 . S
O113 Tb100 2.343 . S
O113 Tb102 2.596 . S
O113 C108 1.259 . S
O114 Tb102 2.374 . S
O114 C109 1.250 . S
O115 Tb100 2.353 . S
O115 C109 1.263 . S
C116 O117 1.275 . S
C116 O118 1.246 . S
O117 Tb100 2.427 . S
O117 C116 1.275 . S
O118 Tb100 2.513 . S
O118 C116 1.246 . S
C119 O103 1.245 . S
C119 O104 1.259 . S
Tb120 O123 2.453 . S
Tb120 O124 2.596 . S
Tb120 O125 2.374 . S
Tb120 O133 2.343 . S
Tb120 O135 2.353 . S
Tb120 O137 2.427 . S
Tb120 O138 2.513 . S
C121 O125 1.251 . S
C121 O127 1.263 . S
Tb122 O124 2.343 . S
Tb122 O127 2.353 . S
Tb122 O130 2.427 . S
Tb122 O131 2.513 . S
Tb122 O132 2.453 . S
Tb122 O133 2.596 . S
Tb122 O134 2.374 . S
O123 Tb120 2.453 . S
O123 C139 1.245 . S
O124 Tb120 2.596 . S
O124 Tb122 2.343 . S
O124 C139 1.259 . S
O125 Tb120 2.374 . S
O125 C121 1.251 . S
C126 O130 1.275 . S
C126 O131 1.246 . S
O127 C121 1.263 . S
O127 Tb122 2.353 . S
C128 O132 1.245 . S
C128 O133 1.259 . S
C129 O134 1.250 . S
C129 O135 1.263 . S
O130 Tb122 2.427 . S
O130 C126 1.275 . S
O131 Tb122 2.513 . S
O131 C126 1.246 . S
O132 Tb122 2.453 . S
O132 C128 1.245 . S
O133 Tb120 2.343 . S
O133 Tb122 2.596 . S
O133 C128 1.259 . S
O134 Tb122 2.374 . S
O134 C129 1.250 . S
O135 Tb120 2.353 . S
O135 C129 1.263 . S
C136 O137 1.275 . S
C136 O138 1.246 . S
O137 Tb120 2.427 . S
O137 C136 1.275 . S
O138 Tb120 2.513 . S
O138 C136 1.246 . S
C139 O123 1.245 . S
C139 O124 1.259 . S
Tb140 O143 2.453 . S
Tb140 O144 2.596 . S
Tb140 O145 2.374 . S
Tb140 O153 2.343 . S
Tb140 O155 2.353 . S
Tb140 O157 2.427 . S
Tb140 O158 2.513 . S
C141 O145 1.251 . S
C141 O147 1.263 1_545 S
Tb142 O144 2.343 . S
Tb142 O147 2.353 1_545 S
Tb142 O150 2.427 1_545 S
Tb142 O151 2.513 . S
Tb142 O152 2.453 1_455 S
Tb142 O153 2.596 . S
Tb142 O154 2.374 . S
O143 Tb140 2.453 . S
O143 C159 1.245 . S
O144 Tb140 2.596 . S
O144 Tb142 2.343 . S
O144 C159 1.259 . S
O145 Tb140 2.374 . S
O145 C141 1.251 . S
C146 O150 1.275 . S
C146 O151 1.246 1_565 S
O147 C141 1.263 1_565 S
O147 Tb142 2.353 1_565 S
C148 O152 1.245 1_455 S
C148 O153 1.259 . S
C149 O154 1.250 . S
C149 O155 1.263 . S
O150 Tb142 2.427 1_565 S
O150 C146 1.275 . S
O151 Tb142 2.513 . S
O151 C146 1.246 1_545 S
O152 Tb142 2.453 1_655 S
O152 C148 1.245 1_655 S
O153 Tb140 2.343 . S
O153 Tb142 2.596 . S
O153 C148 1.259 . S
O154 Tb142 2.374 . S
O154 C149 1.250 . S
O155 Tb140 2.353 . S
O155 C149 1.263 . S
C156 O157 1.275 . S
C156 O158 1.246 . S
O157 Tb140 2.427 . S
O157 C156 1.275 . S
O158 Tb140 2.513 . S
O158 C156 1.246 . S
C159 O143 1.245 . S
C159 O144 1.259 . S
Tb160 O163 2.453 . S
Tb160 O164 2.596 . S
Tb160 O165 2.374 . S
Tb160 O173 2.343 . S
Tb160 O175 2.353 . S
Tb160 O177 2.427 . S
Tb160 O178 2.513 . S
C161 O165 1.251 . S
C161 O167 1.263 . S
Tb162 O164 2.343 . S
Tb162 O167 2.353 . S
Tb162 O170 2.427 1_655 S
Tb162 O171 2.513 . S
Tb162 O172 2.453 . S
Tb162 O173 2.596 . S
Tb162 O174 2.374 . S
O163 Tb160 2.453 . S
O163 C179 1.245 . S
O164 Tb160 2.596 . S
O164 Tb162 2.343 . S
O164 C179 1.259 . S
O165 Tb160 2.374 . S
O165 C161 1.251 . S
C166 O170 1.275 . S
C166 O171 1.246 1_455 S
O167 C161 1.263 . S
O167 Tb162 2.353 . S
C168 O172 1.245 . S
C168 O173 1.259 . S
C169 O174 1.250 . S
C169 O175 1.263 . S
O170 Tb162 2.427 1_455 S
O170 C166 1.275 . S
O171 Tb162 2.513 . S
O171 C166 1.246 1_655 S
O172 Tb162 2.453 . S
O172 C168 1.245 . S
O173 Tb160 2.343 . S
O173 Tb162 2.596 . S
O173 C168 1.259 . S
O174 Tb162 2.374 . S
O174 C169 1.250 . S
O175 Tb160 2.353 . S
O175 C169 1.263 . S
C176 O177 1.275 . S
C176 O178 1.246 . S
O177 Tb160 2.427 . S
O177 C176 1.275 . S
O178 Tb160 2.513 . S
O178 C176 1.246 . S
C179 O163 1.245 . S
C179 O164 1.259 . S
Tb180 O183 2.453 1_655 S
Tb180 O184 2.596 . S
Tb180 O185 2.374 . S
Tb180 O193 2.343 . S
Tb180 O195 2.353 1_545 S
Tb180 O197 2.427 1_545 S
Tb180 O198 2.513 . S
C181 O185 1.251 . S
C181 O187 1.263 . S
Tb182 O184 2.343 . S
Tb182 O187 2.353 . S
Tb182 O190 2.427 . S
Tb182 O191 2.513 . S
Tb182 O192 2.453 . S
Tb182 O193 2.596 . S
Tb182 O194 2.374 . S
O183 Tb180 2.453 1_455 S
O183 C199 1.245 1_455 S
O184 Tb180 2.596 . S
O184 Tb182 2.343 . S
O184 C199 1.259 . S
O185 Tb180 2.374 . S
O185 C181 1.251 . S
C186 O190 1.275 . S
C186 O191 1.246 . S
O187 C181 1.263 . S
O187 Tb182 2.353 . S
C188 O192 1.245 . S
C188 O193 1.259 . S
C189 O194 1.250 . S
C189 O195 1.263 1_545 S
O190 Tb182 2.427 . S
O190 C186 1.275 . S
O191 Tb182 2.513 . S
O191 C186 1.246 . S
O192 Tb182 2.453 . S
O192 C188 1.245 . S
O193 Tb180 2.343 . S
O193 Tb182 2.596 . S
O193 C188 1.259 . S
O194 Tb182 2.374 . S
O194 C189 1.250 . S
O195 Tb180 2.353 1_565 S
O195 C189 1.263 1_565 S
C196 O197 1.275 . S
C196 O198 1.246 1_565 S
O197 Tb180 2.427 1_565 S
O197 C196 1.275 . S
O198 Tb180 2.513 . S
O198 C196 1.246 1_545 S
C199 O183 1.245 1_655 S
C199 O184 1.259 . S
Tb200 O203 2.453 . S
Tb200 O204 2.596 . S
Tb200 O205 2.374 . S
Tb200 O213 2.343 . S
Tb200 O215 2.353 . S
Tb200 O217 2.427 . S
Tb200 O218 2.513 . S
C201 O205 1.251 . S
C201 O207 1.263 . S
Tb202 O204 2.343 . S
Tb202 O207 2.353 . S
Tb202 O210 2.427 . S
Tb202 O211 2.513 . S
Tb202 O212 2.453 . S
Tb202 O213 2.596 . S
Tb202 O214 2.374 . S
O203 Tb200 2.453 . S
O203 C219 1.245 . S
O204 Tb200 2.596 . S
O204 Tb202 2.343 . S
O204 C219 1.259 . S
O205 Tb200 2.374 . S
O205 C201 1.251 . S
C206 O210 1.275 . S
C206 O211 1.246 . S
O207 C201 1.263 . S
O207 Tb202 2.353 . S
C208 O212 1.245 . S
C208 O213 1.259 . S
C209 O214 1.250 . S
C209 O215 1.263 . S
O210 Tb202 2.427 . S
O210 C206 1.275 . S
O211 Tb202 2.513 . S
O211 C206 1.246 . S
O212 Tb202 2.453 . S
O212 C208 1.245 . S
O213 Tb200 2.343 . S
O213 Tb202 2.596 . S
O213 C208 1.259 . S
O214 Tb202 2.374 . S
O214 C209 1.250 . S
O215 Tb200 2.353 . S
O215 C209 1.263 . S
C216 O217 1.275 . S
C216 O218 1.246 . S
O217 Tb200 2.427 . S
O217 C216 1.275 . S
O218 Tb200 2.513 . S
O218 C216 1.246 . S
C219 O203 1.245 . S
C219 O204 1.259 . S
Tb220 O223 2.453 . S
Tb220 O224 2.596 . S
Tb220 O225 2.374 . S
Tb220 O233 2.343 . S
Tb220 O235 2.353 1_565 S
Tb220 O237 2.427 1_565 S
Tb220 O238 2.513 . S
C221 O225 1.251 . S
C221 O227 1.263 . S
Tb222 O224 2.343 . S
Tb222 O227 2.353 . S
Tb222 O230 2.427 . S
Tb222 O231 2.513 . S
Tb222 O232 2.453 . S
Tb222 O233 2.596 . S
Tb222 O234 2.374 . S
O223 Tb220 2.453 . S
O223 C239 1.245 . S
O224 Tb220 2.596 . S
O224 Tb222 2.343 . S
O224 C239 1.259 . S
O225 Tb220 2.374 . S
O225 C221 1.251 . S
C226 O230 1.275 . S
C226 O231 1.246 . S
O227 C221 1.263 . S
O227 Tb222 2.353 . S
C228 O232 1.245 . S
C228 O233 1.259 . S
C229 O234 1.250 . S
C229 O235 1.263 1_565 S
O230 Tb222 2.427 . S
O230 C226 1.275 . S
O231 Tb222 2.513 . S
O231 C226 1.246 . S
O232 Tb222 2.453 . S
O232 C228 1.245 . S
O233 Tb220 2.343 . S
O233 Tb222 2.596 . S
O233 C228 1.259 . S
O234 Tb222 2.374 . S
O234 C229 1.250 . S
O235 Tb220 2.353 1_545 S
O235 C229 1.263 1_545 S
C236 O237 1.275 . S
C236 O238 1.246 1_545 S
O237 Tb220 2.427 1_545 S
O237 C236 1.275 . S
O238 Tb220 2.513 . S
O238 C236 1.246 1_565 S
C239 O223 1.245 . S
C239 O224 1.259 . S
Tb240 O243 2.453 . S
Tb240 O244 2.596 . S
Tb240 O245 2.374 . S
Tb240 O253 2.343 . S
Tb240 O255 2.353 . S
Tb240 O257 2.427 . S
Tb240 O258 2.513 . S
C241 O245 1.251 . S
C241 O247 1.263 . S
Tb242 O244 2.343 . S
Tb242 O247 2.353 . S
Tb242 O250 2.427 1_655 S
Tb242 O251 2.513 . S
Tb242 O252 2.453 . S
Tb242 O253 2.596 . S
Tb242 O254 2.374 . S
O243 Tb240 2.453 . S
O243 C259 1.245 . S
O244 Tb240 2.596 . S
O244 Tb242 2.343 . S
O244 C259 1.259 . S
O245 Tb240 2.374 . S
O245 C241 1.251 . S
C246 O250 1.275 . S
C246 O251 1.246 1_455 S
O247 C241 1.263 . S
O247 Tb242 2.353 . S
C248 O252 1.245 . S
C248 O253 1.259 . S
C249 O254 1.250 . S
C249 O255 1.263 . S
O250 Tb242 2.427 1_455 S
O250 C246 1.275 . S
O251 Tb242 2.513 . S
O251 C246 1.246 1_655 S
O252 Tb242 2.453 . S
O252 C248 1.245 . S
O253 Tb240 2.343 . S
O253 Tb242 2.596 . S
O253 C248 1.259 . S
O254 Tb242 2.374 . S
O254 C249 1.250 . S
O255 Tb240 2.353 . S
O255 C249 1.263 . S
C256 O257 1.275 . S
C256 O258 1.246 . S
O257 Tb240 2.427 . S
O257 C256 1.275 . S
O258 Tb240 2.513 . S
O258 C256 1.246 . S
C259 O243 1.245 . S
C259 O244 1.259 . S
Tb260 O263 2.453 . S
Tb260 O264 2.596 . S
Tb260 O265 2.374 . S
Tb260 O273 2.343 . S
Tb260 O275 2.353 1_545 S
Tb260 O277 2.427 1_545 S
Tb260 O278 2.513 . S
C261 O265 1.251 . S
C261 O267 1.263 . S
Tb262 O264 2.343 . S
Tb262 O267 2.353 . S
Tb262 O270 2.427 . S
Tb262 O271 2.513 . S
Tb262 O272 2.453 . S
Tb262 O273 2.596 . S
Tb262 O274 2.374 . S
O263 Tb260 2.453 . S
O263 C279 1.245 . S
O264 Tb260 2.596 . S
O264 Tb262 2.343 . S
O264 C279 1.259 . S
O265 Tb260 2.374 . S
O265 C261 1.251 . S
C266 O270 1.275 . S
C266 O271 1.246 . S
O267 C261 1.263 . S
O267 Tb262 2.353 . S
C268 O272 1.245 . S
C268 O273 1.259 . S
C269 O274 1.250 . S
C269 O275 1.263 1_545 S
O270 Tb262 2.427 . S
O270 C266 1.275 . S
O271 Tb262 2.513 . S
O271 C266 1.246 . S
O272 Tb262 2.453 . S
O272 C268 1.245 . S
O273 Tb260 2.343 . S
O273 Tb262 2.596 . S
O273 C268 1.259 . S
O274 Tb262 2.374 . S
O274 C269 1.250 . S
O275 Tb260 2.353 1_565 S
O275 C269 1.263 1_565 S
C276 O277 1.275 . S
C276 O278 1.246 1_565 S
O277 Tb260 2.427 1_565 S
O277 C276 1.275 . S
O278 Tb260 2.513 . S
O278 C276 1.246 1_545 S
C279 O263 1.245 . S
C279 O264 1.259 . S
Tb280 O283 2.453 . S
Tb280 O284 2.596 . S
Tb280 O285 2.374 . S
Tb280 O293 2.343 . S
Tb280 O295 2.353 . S
Tb280 O297 2.427 . S
Tb280 O298 2.513 . S
C281 O285 1.251 . S
C281 O287 1.263 . S
Tb282 O284 2.343 . S
Tb282 O287 2.353 . S
Tb282 O290 2.427 . S
Tb282 O291 2.513 . S
Tb282 O292 2.453 . S
Tb282 O293 2.596 . S
Tb282 O294 2.374 . S
O283 Tb280 2.453 . S
O283 C299 1.245 . S
O284 Tb280 2.596 . S
O284 Tb282 2.343 . S
O284 C299 1.259 . S
O285 Tb280 2.374 . S
O285 C281 1.251 . S
C286 O290 1.275 . S
C286 O291 1.246 . S
O287 C281 1.263 . S
O287 Tb282 2.353 . S
C288 O292 1.245 . S
C288 O293 1.259 . S
C289 O294 1.250 . S
C289 O295 1.263 . S
O290 Tb282 2.427 . S
O290 C286 1.275 . S
O291 Tb282 2.513 . S
O291 C286 1.246 . S
O292 Tb282 2.453 . S
O292 C288 1.245 . S
O293 Tb280 2.343 . S
O293 Tb282 2.596 . S
O293 C288 1.259 . S
O294 Tb282 2.374 . S
O294 C289 1.250 . S
O295 Tb280 2.353 . S
O295 C289 1.263 . S
C296 O297 1.275 . S
C296 O298 1.246 . S
O297 Tb280 2.427 . S
O297 C296 1.275 . S
O298 Tb280 2.513 . S
O298 C296 1.246 . S
C299 O283 1.245 . S
C299 O284 1.259 . S
Tb300 O303 2.453 1_655 S
Tb300 O304 2.596 . S
Tb300 O305 2.374 . S
Tb300 O313 2.343 . S
Tb300 O315 2.353 1_565 S
Tb300 O317 2.427 1_565 S
Tb300 O318 2.513 . S
C301 O305 1.251 . S
C301 O307 1.263 . S
Tb302 O304 2.343 . S
Tb302 O307 2.353 . S
Tb302 O310 2.427 . S
Tb302 O311 2.513 . S
Tb302 O312 2.453 . S
Tb302 O313 2.596 . S
Tb302 O314 2.374 . S
O303 Tb300 2.453 1_455 S
O303 C319 1.245 1_455 S
O304 Tb300 2.596 . S
O304 Tb302 2.343 . S
O304 C319 1.259 . S
O305 Tb300 2.374 . S
O305 C301 1.251 . S
C306 O310 1.275 . S
C306 O311 1.246 . S
O307 C301 1.263 . S
O307 Tb302 2.353 . S
C308 O312 1.245 . S
C308 O313 1.259 . S
C309 O314 1.250 . S
C309 O315 1.263 1_565 S
O310 Tb302 2.427 . S
O310 C306 1.275 . S
O311 Tb302 2.513 . S
O311 C306 1.246 . S
O312 Tb302 2.453 . S
O312 C308 1.245 . S
O313 Tb300 2.343 . S
O313 Tb302 2.596 . S
O313 C308 1.259 . S
O314 Tb302 2.374 . S
O314 C309 1.250 . S
O315 Tb300 2.353 1_545 S
O315 C309 1.263 1_545 S
C316 O317 1.275 . S
C316 O318 1.246 1_545 S
O317 Tb300 2.427 1_545 S
O317 C316 1.275 . S
O318 Tb300 2.513 . S
O318 C316 1.246 1_565 S
C319 O303 1.245 1_655 S
C319 O304 1.259 . S
Tb320 O323 2.453 . S
Tb320 O324 2.596 . S
Tb320 O325 2.374 . S
Tb320 O333 2.343 . S
Tb320 O335 2.353 . S
Tb320 O337 2.427 . S
Tb320 O338 2.513 . S
C321 O325 1.251 . S
C321 O327 1.263 . S
Tb322 O324 2.343 . S
Tb322 O327 2.353 . S
Tb322 O330 2.427 . S
Tb322 O331 2.513 . S
Tb322 O332 2.453 . S
Tb322 O333 2.596 . S
Tb322 O334 2.374 . S
O323 Tb320 2.453 . S
O323 C339 1.245 . S
O324 Tb320 2.596 . S
O324 Tb322 2.343 . S
O324 C339 1.259 . S
O325 Tb320 2.374 . S
O325 C321 1.251 . S
C326 O330 1.275 . S
C326 O331 1.246 . S
O327 C321 1.263 . S
O327 Tb322 2.353 . S
C328 O332 1.245 . S
C328 O333 1.259 . S
C329 O334 1.250 . S
C329 O335 1.263 . S
O330 Tb322 2.427 . S
O330 C326 1.275 . S
O331 Tb322 2.513 . S
O331 C326 1.246 . S
O332 Tb322 2.453 . S
O332 C328 1.245 . S
O333 Tb320 2.343 . S
O333 Tb322 2.596 . S
O333 C328 1.259 . S
O334 Tb322 2.374 . S
O334 C329 1.250 . S
O335 Tb320 2.353 . S
O335 C329 1.263 . S
C336 O337 1.275 . S
C336 O338 1.246 . S
O337 Tb320 2.427 . S
O337 C336 1.275 . S
O338 Tb320 2.513 . S
O338 C336 1.246 . S
C339 O323 1.245 . S
C339 O324 1.259 . S
Tb340 O343 2.453 . S
Tb340 O344 2.596 . S
Tb340 O345 2.374 . S
Tb340 O353 2.343 . S
Tb340 O355 2.353 . S
Tb340 O357 2.427 . S
Tb340 O358 2.513 . S
C341 O345 1.251 . S
C341 O347 1.263 . S
Tb342 O344 2.343 . S
Tb342 O347 2.353 . S
Tb342 O350 2.427 . S
Tb342 O351 2.513 . S
Tb342 O352 2.453 . S
Tb342 O353 2.596 . S
Tb342 O354 2.374 . S
O343 Tb340 2.453 . S
O343 C359 1.245 . S
O344 Tb340 2.596 . S
O344 Tb342 2.343 . S
O344 C359 1.259 . S
O345 Tb340 2.374 . S
O345 C341 1.251 . S
C346 O350 1.275 . S
C346 O351 1.246 . S
O347 C341 1.263 . S
O347 Tb342 2.353 . S
C348 O352 1.245 . S
C348 O353 1.259 . S
C349 O354 1.250 . S
C349 O355 1.263 . S
O350 Tb342 2.427 . S
O350 C346 1.275 . S
O351 Tb342 2.513 . S
O351 C346 1.246 . S
O352 Tb342 2.453 . S
O352 C348 1.245 . S
O353 Tb340 2.343 . S
O353 Tb342 2.596 . S
O353 C348 1.259 . S
O354 Tb342 2.374 . S
O354 C349 1.250 . S
O355 Tb340 2.353 . S
O355 C349 1.263 . S
C356 O357 1.275 . S
C356 O358 1.246 . S
O357 Tb340 2.427 . S
O357 C356 1.275 . S
O358 Tb340 2.513 . S
O358 C356 1.246 . S
C359 O343 1.245 . S
C359 O344 1.259 . S
Tb360 O363 2.453 . S
Tb360 O364 2.596 . S
Tb360 O365 2.374 . S
Tb360 O373 2.343 . S
Tb360 O375 2.353 . S
Tb360 O377 2.427 1_655 S
Tb360 O378 2.513 . S
C361 O365 1.251 . S
C361 O367 1.263 . S
Tb362 O364 2.343 . S
Tb362 O367 2.353 . S
Tb362 O370 2.427 . S
Tb362 O371 2.513 . S
Tb362 O372 2.453 . S
Tb362 O373 2.596 . S
Tb362 O374 2.374 . S
O363 Tb360 2.453 . S
O363 C379 1.245 . S
O364 Tb360 2.596 . S
O364 Tb362 2.343 . S
O364 C379 1.259 . S
O365 Tb360 2.374 . S
O365 C361 1.251 . S
C366 O370 1.275 . S
C366 O371 1.246 . S
O367 C361 1.263 . S
O367 Tb362 2.353 . S
C368 O372 1.245 . S
C368 O373 1.259 . S
C369 O374 1.250 . S
C369 O375 1.263 . S
O370 Tb362 2.427 . S
O370 C366 1.275 . S
O371 Tb362 2.513 . S
O371 C366 1.246 . S
O372 Tb362 2.453 . S
O372 C368 1.245 . S
O373 Tb360 2.343 . S
O373 Tb362 2.596 . S
O373 C368 1.259 . S
O374 Tb362 2.374 . S
O374 C369 1.250 . S
O375 Tb360 2.353 . S
O375 C369 1.263 . S
C376 O377 1.275 . S
C376 O378 1.246 1_455 S
O377 Tb360 2.427 1_455 S
O377 C376 1.275 . S
O378 Tb360 2.513 . S
O378 C376 1.246 1_655 S
C379 O363 1.245 . S
C379 O364 1.259 . S
Tb380 O383 2.453 . S
Tb380 O384 2.596 . S
Tb380 O385 2.374 . S
Tb380 O393 2.343 . S
Tb380 O395 2.353 . S
Tb380 O397 2.427 . S
Tb380 O398 2.513 . S
C381 O385 1.251 . S
C381 O387 1.263 . S
Tb382 O384 2.343 . S
Tb382 O387 2.353 . S
Tb382 O390 2.427 . S
Tb382 O391 2.513 . S
Tb382 O392 2.453 1_655 S
Tb382 O393 2.596 . S
Tb382 O394 2.374 . S
O383 Tb380 2.453 . S
O383 C399 1.245 . S
O384 Tb380 2.596 . S
O384 Tb382 2.343 . S
O384 C399 1.259 . S
O385 Tb380 2.374 . S
O385 C381 1.251 . S
C386 O390 1.275 . S
C386 O391 1.246 . S
O387 C381 1.263 . S
O387 Tb382 2.353 . S
C388 O392 1.245 1_655 S
C388 O393 1.259 . S
C389 O394 1.250 . S
C389 O395 1.263 . S
O390 Tb382 2.427 . S
O390 C386 1.275 . S
O391 Tb382 2.513 . S
O391 C386 1.246 . S
O392 Tb382 2.453 1_455 S
O392 C388 1.245 1_455 S
O393 Tb380 2.343 . S
O393 Tb382 2.596 . S
O393 C388 1.259 . S
O394 Tb382 2.374 . S
O394 C389 1.250 . S
O395 Tb380 2.353 . S
O395 C389 1.263 . S
C396 O397 1.275 . S
C396 O398 1.246 . S
O397 Tb380 2.427 . S
O397 C396 1.275 . S
O398 Tb380 2.513 . S
O398 C396 1.246 . S
C399 O383 1.245 . S
C399 O384 1.259 . S
Tb400 O403 2.453 . S
Tb400 O404 2.596 . S
Tb400 O405 2.374 . S
Tb400 O413 2.343 . S
Tb400 O415 2.353 . S
Tb400 O417 2.427 . S
Tb400 O418 2.513 . S
C401 O405 1.251 . S
C401 O407 1.263 . S
Tb402 O404 2.343 . S
Tb402 O407 2.353 . S
Tb402 O410 2.427 . S
Tb402 O411 2.513 . S
Tb402 O412 2.453 . S
Tb402 O413 2.596 . S
Tb402 O414 2.374 . S
O403 Tb400 2.453 . S
O403 C419 1.245 . S
O404 Tb400 2.596 . S
O404 Tb402 2.343 . S
O404 C419 1.259 . S
O405 Tb400 2.374 . S
O405 C401 1.251 . S
C406 O410 1.275 . S
C406 O411 1.246 . S
O407 C401 1.263 . S
O407 Tb402 2.353 . S
C408 O412 1.245 . S
C408 O413 1.259 . S
C409 O414 1.250 . S
C409 O415 1.263 . S
O410 Tb402 2.427 . S
O410 C406 1.275 . S
O411 Tb402 2.513 . S
O411 C406 1.246 . S
O412 Tb402 2.453 . S
O412 C408 1.245 . S
O413 Tb400 2.343 . S
O413 Tb402 2.596 . S
O413 C408 1.259 . S
O414 Tb402 2.374 . S
O414 C409 1.250 . S
O415 Tb400 2.353 . S
O415 C409 1.263 . S
C416 O417 1.275 . S
C416 O418 1.246 . S
O417 Tb400 2.427 . S
O417 C416 1.275 . S
O418 Tb400 2.513 . S
O418 C416 1.246 . S
C419 O403 1.245 . S
C419 O404 1.259 . S
Tb420 O423 2.453 . S
Tb420 O424 2.596 . S
Tb420 O425 2.374 . S
Tb420 O433 2.343 . S
Tb420 O435 2.353 . S
Tb420 O437 2.427 . S
Tb420 O438 2.513 . S
C421 O425 1.251 . S
C421 O427 1.263 . S
Tb422 O424 2.343 . S
Tb422 O427 2.353 . S
Tb422 O430 2.427 . S
Tb422 O431 2.513 . S
Tb422 O432 2.453 1_655 S
Tb422 O433 2.596 . S
Tb422 O434 2.374 . S
O423 Tb420 2.453 . S
O423 C439 1.245 . S
O424 Tb420 2.596 . S
O424 Tb422 2.343 . S
O424 C439 1.259 . S
O425 Tb420 2.374 . S
O425 C421 1.251 . S
C426 O430 1.275 . S
C426 O431 1.246 . S
O427 C421 1.263 . S
O427 Tb422 2.353 . S
C428 O432 1.245 1_655 S
C428 O433 1.259 . S
C429 O434 1.250 . S
C429 O435 1.263 . S
O430 Tb422 2.427 . S
O430 C426 1.275 . S
O431 Tb422 2.513 . S
O431 C426 1.246 . S
O432 Tb422 2.453 1_455 S
O432 C428 1.245 1_455 S
O433 Tb420 2.343 . S
O433 Tb422 2.596 . S
O433 C428 1.259 . S
O434 Tb422 2.374 . S
O434 C429 1.250 . S
O435 Tb420 2.353 . S
O435 C429 1.263 . S
C436 O437 1.275 . S
C436 O438 1.246 . S
O437 Tb420 2.427 . S
O437 C436 1.275 . S
O438 Tb420 2.513 . S
O438 C436 1.246 . S
C439 O423 1.245 . S
C439 O424 1.259 . S
Tb440 O443 2.453 . S
Tb440 O444 2.596 . S
Tb440 O445 2.374 . S
Tb440 O453 2.343 . S
Tb440 O455 2.353 . S
Tb440 O457 2.427 1_655 S
Tb440 O458 2.513 . S
C441 O445 1.251 . S
C441 O447 1.263 . S
Tb442 O444 2.343 . S
Tb442 O447 2.353 . S
Tb442 O450 2.427 . S
Tb442 O451 2.513 . S
Tb442 O452 2.453 . S
Tb442 O453 2.596 . S
Tb442 O454 2.374 . S
O443 Tb440 2.453 . S
O443 C459 1.245 . S
O444 Tb440 2.596 . S
O444 Tb442 2.343 . S
O444 C459 1.259 . S
O445 Tb440 2.374 . S
O445 C441 1.251 . S
C446 O450 1.275 . S
C446 O451 1.246 . S
O447 C441 1.263 . S
O447 Tb442 2.353 . S
C448 O452 1.245 . S
C448 O453 1.259 . S
C449 O454 1.250 . S
C449 O455 1.263 . S
O450 Tb442 2.427 . S
O450 C446 1.275 . S
O451 Tb442 2.513 . S
O451 C446 1.246 . S
O452 Tb442 2.453 . S
O452 C448 1.245 . S
O453 Tb440 2.343 . S
O453 Tb442 2.596 . S
O453 C448 1.259 . S
O454 Tb442 2.374 . S
O454 C449 1.250 . S
O455 Tb440 2.353 . S
O455 C449 1.263 . S
C456 O457 1.275 . S
C456 O458 1.246 1_455 S
O457 Tb440 2.427 1_455 S
O457 C456 1.275 . S
O458 Tb440 2.513 . S
O458 C456 1.246 1_655 S
C459 O443 1.245 . S
C459 O444 1.259 . S
Tb460 O463 2.453 . S
Tb460 O464 2.596 . S
Tb460 O465 2.374 . S
Tb460 O473 2.343 . S
Tb460 O475 2.353 . S
Tb460 O477 2.427 . S
Tb460 O478 2.513 . S
C461 O465 1.251 . S
C461 O467 1.263 . S
Tb462 O464 2.343 . S
Tb462 O467 2.353 . S
Tb462 O470 2.427 . S
Tb462 O471 2.513 . S
Tb462 O472 2.453 . S
Tb462 O473 2.596 . S
Tb462 O474 2.374 . S
O463 Tb460 2.453 . S
O463 C479 1.245 . S
O464 Tb460 2.596 . S
O464 Tb462 2.343 . S
O464 C479 1.259 . S
O465 Tb460 2.374 . S
O465 C461 1.251 . S
C466 O470 1.275 . S
C466 O471 1.246 . S
O467 C461 1.263 . S
O467 Tb462 2.353 . S
C468 O472 1.245 . S
C468 O473 1.259 . S
C469 O474 1.250 . S
C469 O475 1.263 . S
O470 Tb462 2.427 . S
O470 C466 1.275 . S
O471 Tb462 2.513 . S
O471 C466 1.246 . S
O472 Tb462 2.453 . S
O472 C468 1.245 . S
O473 Tb460 2.343 . S
O473 Tb462 2.596 . S
O473 C468 1.259 . S
O474 Tb462 2.374 . S
O474 C469 1.250 . S
O475 Tb460 2.353 . S
O475 C469 1.263 . S
C476 O477 1.275 . S
C476 O478 1.246 . S
O477 Tb460 2.427 . S
O477 C476 1.275 . S
O478 Tb460 2.513 . S
O478 C476 1.246 . S
C479 O463 1.245 . S
C479 O464 1.259 . S
Tb480 O483 2.453 . S
Tb480 O484 2.596 . S
Tb480 O485 2.374 . S
Tb480 O493 2.343 . S
Tb480 O495 2.353 . S
Tb480 O497 2.427 . S
Tb480 O498 2.513 . S
C481 O485 1.251 . S
C481 O487 1.263 . S
Tb482 O484 2.343 . S
Tb482 O487 2.353 . S
Tb482 O490 2.427 . S
Tb482 O491 2.513 . S
Tb482 O492 2.453 . S
Tb482 O493 2.596 . S
Tb482 O494 2.374 . S
O483 Tb480 2.453 . S
O483 C499 1.245 . S
O484 Tb480 2.596 . S
O484 Tb482 2.343 . S
O484 C499 1.259 . S
O485 Tb480 2.374 . S
O485 C481 1.251 . S
C486 O490 1.275 . S
C486 O491 1.246 . S
O487 C481 1.263 . S
O487 Tb482 2.353 . S
C488 O492 1.245 . S
C488 O493 1.259 . S
C489 O494 1.250 . S
C489 O495 1.263 . S
O490 Tb482 2.427 . S
O490 C486 1.275 . S
O491 Tb482 2.513 . S
O491 C486 1.246 . S
O492 Tb482 2.453 . S
O492 C488 1.245 . S
O493 Tb480 2.343 . S
O493 Tb482 2.596 . S
O493 C488 1.259 . S
O494 Tb482 2.374 . S
O494 C489 1.250 . S
O495 Tb480 2.353 . S
O495 C489 1.263 . S
C496 O497 1.275 . S
C496 O498 1.246 . S
O497 Tb480 2.427 . S
O497 C496 1.275 . S
O498 Tb480 2.513 . S
O498 C496 1.246 . S
C499 O483 1.245 . S
C499 O484 1.259 . S
Tb500 O503 2.453 . S
Tb500 O504 2.596 . S
Tb500 O505 2.374 . S
Tb500 O513 2.343 . S
Tb500 O515 2.353 . S
Tb500 O517 2.427 . S
Tb500 O518 2.513 . S
C501 O505 1.251 . S
C501 O507 1.263 . S
Tb502 O504 2.343 . S
Tb502 O507 2.353 . S
Tb502 O510 2.427 . S
Tb502 O511 2.513 . S
Tb502 O512 2.453 . S
Tb502 O513 2.596 . S
Tb502 O514 2.374 . S
O503 Tb500 2.453 . S
O503 C519 1.245 . S
O504 Tb500 2.596 . S
O504 Tb502 2.343 . S
O504 C519 1.259 . S
O505 Tb500 2.374 . S
O505 C501 1.251 . S
C506 O510 1.275 . S
C506 O511 1.246 . S
O507 C501 1.263 . S
O507 Tb502 2.353 . S
C508 O512 1.245 . S
C508 O513 1.259 . S
C509 O514 1.250 . S
C509 O515 1.263 . S
O510 Tb502 2.427 . S
O510 C506 1.275 . S
O511 Tb502 2.513 . S
O511 C506 1.246 . S
O512 Tb502 2.453 . S
O512 C508 1.245 . S
O513 Tb500 2.343 . S
O513 Tb502 2.596 . S
O513 C508 1.259 . S
O514 Tb502 2.374 . S
O514 C509 1.250 . S
O515 Tb500 2.353 . S
O515 C509 1.263 . S
C516 O517 1.275 . S
C516 O518 1.246 . S
O517 Tb500 2.427 . S
O517 C516 1.275 . S
O518 Tb500 2.513 . S
O518 C516 1.246 . S
C519 O503 1.245 . S
C519 O504 1.259 . S
Tb520 O523 2.453 . S
Tb520 O524 2.596 . S
Tb520 O525 2.374 . S
Tb520 O533 2.343 . S
Tb520 O535 2.353 . S
Tb520 O537 2.427 . S
Tb520 O538 2.513 . S
C521 O525 1.251 . S
C521 O527 1.263 . S
Tb522 O524 2.343 . S
Tb522 O527 2.353 . S
Tb522 O530 2.427 1_455 S
Tb522 O531 2.513 . S
Tb522 O532 2.453 . S
Tb522 O533 2.596 . S
Tb522 O534 2.374 . S
O523 Tb520 2.453 . S
O523 C539 1.245 . S
O524 Tb520 2.596 . S
O524 Tb522 2.343 . S
O524 C539 1.259 . S
O525 Tb520 2.374 . S
O525 C521 1.251 . S
C526 O530 1.275 . S
C526 O531 1.246 1_655 S
O527 C521 1.263 . S
O527 Tb522 2.353 . S
C528 O532 1.245 . S
C528 O533 1.259 . S
C529 O534 1.250 . S
C529 O535 1.263 . S
O530 Tb522 2.427 1_655 S
O530 C526 1.275 . S
O531 Tb522 2.513 . S
O531 C526 1.246 1_455 S
O532 Tb522 2.453 . S
O532 C528 1.245 . S
O533 Tb520 2.343 . S
O533 Tb522 2.596 . S
O533 C528 1.259 . S
O534 Tb522 2.374 . S
O534 C529 1.250 . S
O535 Tb520 2.353 . S
O535 C529 1.263 . S
C536 O537 1.275 . S
C536 O538 1.246 . S
O537 Tb520 2.427 . S
O537 C536 1.275 . S
O538 Tb520 2.513 . S
O538 C536 1.246 . S
C539 O523 1.245 . S
C539 O524 1.259 . S
Tb540 O543 2.453 1_455 S
Tb540 O544 2.596 . S
Tb540 O545 2.374 . S
Tb540 O553 2.343 . S
Tb540 O555 2.353 . S
Tb540 O557 2.427 . S
Tb540 O558 2.513 . S
C541 O545 1.251 . S
C541 O547 1.263 . S
Tb542 O544 2.343 . S
Tb542 O547 2.353 . S
Tb542 O550 2.427 . S
Tb542 O551 2.513 . S
Tb542 O552 2.453 . S
Tb542 O553 2.596 . S
Tb542 O554 2.374 . S
O543 Tb540 2.453 1_655 S
O543 C559 1.245 1_655 S
O544 Tb540 2.596 . S
O544 Tb542 2.343 . S
O544 C559 1.259 . S
O545 Tb540 2.374 . S
O545 C541 1.251 . S
C546 O550 1.275 . S
C546 O551 1.246 . S
O547 C541 1.263 . S
O547 Tb542 2.353 . S
C548 O552 1.245 . S
C548 O553 1.259 . S
C549 O554 1.250 . S
C549 O555 1.263 . S
O550 Tb542 2.427 . S
O550 C546 1.275 . S
O551 Tb542 2.513 . S
O551 C546 1.246 . S
O552 Tb542 2.453 . S
O552 C548 1.245 . S
O553 Tb540 2.343 . S
O553 Tb542 2.596 . S
O553 C548 1.259 . S
O554 Tb542 2.374 . S
O554 C549 1.250 . S
O555 Tb540 2.353 . S
O555 C549 1.263 . S
C556 O557 1.275 . S
C556 O558 1.246 . S
O557 Tb540 2.427 . S
O557 C556 1.275 . S
O558 Tb540 2.513 . S
O558 C556 1.246 . S
C559 O543 1.245 1_455 S
C559 O544 1.259 . S
Tb560 O563 2.453 . S
Tb560 O564 2.596 . S
Tb560 O565 2.374 . S
Tb560 O573 2.343 . S
Tb560 O575 2.353 . S
Tb560 O577 2.427 . S
Tb560 O578 2.513 . S
C561 O565 1.251 . S
C561 O567 1.263 . S
Tb562 O564 2.343 . S
Tb562 O567 2.353 . S
Tb562 O570 2.427 . S
Tb562 O571 2.513 . S
Tb562 O572 2.453 . S
Tb562 O573 2.596 . S
Tb562 O574 2.374 . S
O563 Tb560 2.453 . S
O563 C579 1.245 . S
O564 Tb560 2.596 . S
O564 Tb562 2.343 . S
O564 C579 1.259 . S
O565 Tb560 2.374 . S
O565 C561 1.251 . S
C566 O570 1.275 . S
C566 O571 1.246 . S
O567 C561 1.263 . S
O567 Tb562 2.353 . S
C568 O572 1.245 . S
C568 O573 1.259 . S
C569 O574 1.250 . S
C569 O575 1.263 . S
O570 Tb562 2.427 . S
O570 C566 1.275 . S
O571 Tb562 2.513 . S
O571 C566 1.246 . S
O572 Tb562 2.453 . S
O572 C568 1.245 . S
O573 Tb560 2.343 . S
O573 Tb562 2.596 . S
O573 C568 1.259 . S
O574 Tb562 2.374 . S
O574 C569 1.250 . S
O575 Tb560 2.353 . S
O575 C569 1.263 . S
C576 O577 1.275 . S
C576 O578 1.246 . S
O577 Tb560 2.427 . S
O577 C576 1.275 . S
O578 Tb560 2.513 . S
O578 C576 1.246 . S
C579 O563 1.245 . S
C579 O564 1.259 . S
Tb580 O583 2.453 1_455 S
Tb580 O584 2.596 . S
Tb580 O585 2.374 . S
Tb580 O593 2.343 . S
Tb580 O595 2.353 . S
Tb580 O597 2.427 . S
Tb580 O598 2.513 . S
C581 O585 1.251 . S
C581 O587 1.263 . S
Tb582 O584 2.343 . S
Tb582 O587 2.353 . S
Tb582 O590 2.427 . S
Tb582 O591 2.513 . S
Tb582 O592 2.453 . S
Tb582 O593 2.596 . S
Tb582 O594 2.374 . S
O583 Tb580 2.453 1_655 S
O583 C599 1.245 1_655 S
O584 Tb580 2.596 . S
O584 Tb582 2.343 . S
O584 C599 1.259 . S
O585 Tb580 2.374 . S
O585 C581 1.251 . S
C586 O590 1.275 . S
C586 O591 1.246 . S
O587 C581 1.263 . S
O587 Tb582 2.353 . S
C588 O592 1.245 . S
C588 O593 1.259 . S
C589 O594 1.250 . S
C589 O595 1.263 . S
O590 Tb582 2.427 . S
O590 C586 1.275 . S
O591 Tb582 2.513 . S
O591 C586 1.246 . S
O592 Tb582 2.453 . S
O592 C588 1.245 . S
O593 Tb580 2.343 . S
O593 Tb582 2.596 . S
O593 C588 1.259 . S
O594 Tb582 2.374 . S
O594 C589 1.250 . S
O595 Tb580 2.353 . S
O595 C589 1.263 . S
C596 O597 1.275 . S
C596 O598 1.246 . S
O597 Tb580 2.427 . S
O597 C596 1.275 . S
O598 Tb580 2.513 . S
O598 C596 1.246 . S
C599 O583 1.245 1_455 S
C599 O584 1.259 . S
Tb600 O603 2.453 . S
Tb600 O604 2.596 . S
Tb600 O605 2.374 . S
Tb600 O613 2.343 . S
Tb600 O615 2.353 . S
Tb600 O617 2.427 . S
Tb600 O618 2.513 . S
C601 O605 1.251 . S
C601 O607 1.263 . S
Tb602 O604 2.343 . S
Tb602 O607 2.353 . S
Tb602 O610 2.427 1_455 S
Tb602 O611 2.513 . S
Tb602 O612 2.453 . S
Tb602 O613 2.596 . S
Tb602 O614 2.374 . S
O603 Tb600 2.453 . S
O603 C619 1.245 . S
O604 Tb600 2.596 . S
O604 Tb602 2.343 . S
O604 C619 1.259 . S
O605 Tb600 2.374 . S
O605 C601 1.251 . S
C606 O610 1.275 . S
C606 O611 1.246 1_655 S
O607 C601 1.263 . S
O607 Tb602 2.353 . S
C608 O612 1.245 . S
C608 O613 1.259 . S
C609 O614 1.250 . S
C609 O615 1.263 . S
O610 Tb602 2.427 1_655 S
O610 C606 1.275 . S
O611 Tb602 2.513 . S
O611 C606 1.246 1_455 S
O612 Tb602 2.453 . S
O612 C608 1.245 . S
O613 Tb600 2.343 . S
O613 Tb602 2.596 . S
O613 C608 1.259 . S
O614 Tb602 2.374 . S
O614 C609 1.250 . S
O615 Tb600 2.353 . S
O615 C609 1.263 . S
C616 O617 1.275 . S
C616 O618 1.246 . S
O617 Tb600 2.427 . S
O617 C616 1.275 . S
O618 Tb600 2.513 . S
O618 C616 1.246 . S
C619 O603 1.245 . S
C619 O604 1.259 . S
Tb620 O623 2.453 . S
Tb620 O624 2.596 . S
Tb620 O625 2.374 . S
Tb620 O633 2.343 . S
Tb620 O635 2.353 . S
Tb620 O637 2.427 . S
Tb620 O638 2.513 . S
C621 O625 1.251 . S
C621 O627 1.263 . S
Tb622 O624 2.343 . S
Tb622 O627 2.353 . S
Tb622 O630 2.427 . S
Tb622 O631 2.513 . S
Tb622 O632 2.453 . S
Tb622 O633 2.596 . S
Tb622 O634 2.374 . S
O623 Tb620 2.453 . S
O623 C639 1.245 . S
O624 Tb620 2.596 . S
O624 Tb622 2.343 . S
O624 C639 1.259 . S
O625 Tb620 2.374 . S
O625 C621 1.251 . S
C626 O630 1.275 . S
C626 O631 1.246 . S
O627 C621 1.263 . S
O627 Tb622 2.353 . S
C628 O632 1.245 . S
C628 O633 1.259 . S
C629 O634 1.250 . S
C629 O635 1.263 . S
O630 Tb622 2.427 . S
O630 C626 1.275 . S
O631 Tb622 2.513 . S
O631 C626 1.246 . S
O632 Tb622 2.453 . S
O632 C628 1.245 . S
O633 Tb620 2.343 . S
O633 Tb622 2.596 . S
O633 C628 1.259 . S
O634 Tb622 2.374 . S
O634 C629 1.250 . S
O635 Tb620 2.353 . S
O635 C629 1.263 . S
C636 O637 1.275 . S
C636 O638 1.246 . S
O637 Tb620 2.427 . S
O637 C636 1.275 . S
O638 Tb620 2.513 . S
O638 C636 1.246 . S
C639 O623 1.245 . S
C639 O624 1.259 . S
C8 C546 0.811 . S
C28 C166 0.811 . S
C48 C506 0.811 . S
C206 C68 0.811 . S
C88 C586 0.811 . S
C286 C108 0.811 . S
C626 C128 0.811 . S
C148 C246 0.811 . S
C179 C396 0.811 . S
C199 C16 0.811 . S
C356 C219 0.811 . S
C56 C239 0.811 . S
C259 C436 0.811 . S
C279 C136 0.811 . S
C299 C476 0.811 . S
C96 C319 0.811 . S
C226 C328 0.811 . S
C486 C348 0.811 . S
C186 C368 0.811 . S
C388 C526 0.811 . S
C266 C408 0.811 . S
C606 C428 0.811 . S
C306 C448 0.811 . S
C468 C566 0.811 . S
C499 C76 0.811 . S
C519 C336 0.811 . S
C539 C36 0.811 . S
C559 C376 0.811 . S
C116 C579 0.811 . S
C456 C599 0.811 . S
C619 C156 0.811 . S
C639 C416 0.811 . S
C9 C369 1.345 1_455 S
C389 C29 1.345 1_655 S
C49 C329 1.345 . S
C69 C349 1.345 . S
C449 C89 1.345 1_655 S
C109 C469 1.345 . S
C409 C129 1.345 . S
C149 C429 1.345 1_455 S
C521 C161 1.345 1_455 S
C181 C541 1.345 1_655 S
C201 C481 1.345 . S
C221 C501 1.345 . S
C601 C241 1.345 1_455 S
C621 C261 1.345 . S
C281 C561 1.345 . S
C301 C581 1.345 1_655 S
C6 C496 2.573 . S
C196 C26 2.573 1_665 S
C46 C536 2.573 . S
C66 C236 2.573 1_564 S
C576 C86 2.573 . S
C276 C106 2.573 1_565 S
C126 C616 2.573 . S
C146 C316 2.573 1_466 S
C326 C176 2.573 . S
C366 C216 2.573 . S
C406 C256 2.573 . S
C296 C446 2.573 . S
C346 C516 2.573 1_554 S
C386 C556 2.573 1_655 S
C596 C426 2.573 1_454 S
C636 C466 2.573 . S
C1 C101 3.531 1_545 S
C121 C21 3.531 1_545 S
C141 C41 3.532 1_545 S
C81 C61 3.531 1_565 S
C169 C269 3.531 1_565 S
C189 C289 3.531 1_545 S
C309 C209 3.532 1_565 S
C229 C249 3.531 1_565 S
C321 C421 3.532 . S
C341 C441 3.531 . S
C361 C461 3.531 . S
C401 C381 3.532 . S
C489 C589 3.532 . S
C509 C609 3.531 . S
C629 C529 3.531 . S
C549 C569 3.532 . S
C19 C99 3.016 1_545 S
C39 C119 3.016 . S
C139 C59 3.016 1_545 S
C159 C79 3.016 1_556 S
C168 C248 3.016 1_565 S
C268 C188 3.016 . S
C288 C208 3.016 1_565 S
C308 C228 3.016 1_554 S
C339 C419 3.016 . S
C439 C359 3.016 1_556 S
C379 C459 3.016 . S
C479 C399 3.016 . S
C568 C488 3.016 . S
C508 C588 3.016 1_556 S
C528 C608 3.016 . S
C548 C628 3.016 . S
