# Generated by pormake.
# Topology nfb, (4)-cn, num edge types: 1
# Building blocks:
#     Node 0, Type 0, BuildingBlock: AZAVOO_clean_sbu_0, # of connection points: 4
#     Node 1, Type 0, BuildingBlock: AZAVOO_clean_sbu_0, # of connection points: 4
#     Node 2, Type 0, BuildingBlock: AZAVOO_clean_sbu_0, # of connection points: 4
#     Node 3, Type 0, BuildingBlock: AZAVOO_clean_sbu_0, # of connection points: 4
#     Node 4, Type 0, BuildingBlock: AZAVOO_clean_sbu_0, # of connection points: 4
#     Node 5, Type 0, BuildingBlock: AZAVOO_clean_sbu_0, # of connection points: 4
#     Node 6, Type 0, BuildingBlock: AZAVOO_clean_sbu_0, # of connection points: 4
#     Node 7, Type 0, BuildingBlock: AZAVOO_clean_sbu_0, # of connection points: 4
#     Node 8, Type 0, BuildingBlock: AZAVOO_clean_sbu_0, # of connection points: 4
#     Node 9, Type 0, BuildingBlock: AZAVOO_clean_sbu_0, # of connection points: 4
#     Node 10, Type 0, BuildingBlock: AZAVOO_clean_sbu_0, # of connection points: 4
#     Node 11, Type 0, BuildingBlock: AZAVOO_clean_sbu_0, # of connection points: 4
#     Node 12, Type 0, BuildingBlock: AZAVOO_clean_sbu_0, # of connection points: 4
#     Node 13, Type 0, BuildingBlock: AZAVOO_clean_sbu_0, # of connection points: 4
#     Node 14, Type 0, BuildingBlock: AZAVOO_clean_sbu_0, # of connection points: 4
#     Node 15, Type 0, BuildingBlock: AZAVOO_clean_sbu_0, # of connection points: 4
#     Node 16, Type 0, BuildingBlock: AZAVOO_clean_sbu_0, # of connection points: 4
#     Node 17, Type 0, BuildingBlock: AZAVOO_clean_sbu_0, # of connection points: 4
#     Node 18, Type 0, BuildingBlock: AZAVOO_clean_sbu_0, # of connection points: 4
#     Node 19, Type 0, BuildingBlock: AZAVOO_clean_sbu_0, # of connection points: 4
#     Node 20, Type 0, BuildingBlock: AZAVOO_clean_sbu_0, # of connection points: 4
#     Node 21, Type 0, BuildingBlock: AZAVOO_clean_sbu_0, # of connection points: 4
#     Node 22, Type 0, BuildingBlock: AZAVOO_clean_sbu_0, # of connection points: 4
#     Node 23, Type 0, BuildingBlock: AZAVOO_clean_sbu_0, # of connection points: 4
#     Node 24, Type 0, BuildingBlock: AZAVOO_clean_sbu_0, # of connection points: 4
#     Node 25, Type 0, BuildingBlock: AZAVOO_clean_sbu_0, # of connection points: 4
#     Node 26, Type 0, BuildingBlock: AZAVOO_clean_sbu_0, # of connection points: 4
#     Node 27, Type 0, BuildingBlock: AZAVOO_clean_sbu_0, # of connection points: 4
#     Node 28, Type 0, BuildingBlock: AZAVOO_clean_sbu_0, # of connection points: 4
#     Node 29, Type 0, BuildingBlock: AZAVOO_clean_sbu_0, # of connection points: 4
#     Node 30, Type 0, BuildingBlock: AZAVOO_clean_sbu_0, # of connection points: 4
#     Node 31, Type 0, BuildingBlock: AZAVOO_clean_sbu_0, # of connection points: 4
#     Node 32, Type 0, BuildingBlock: AZAVOO_clean_sbu_0, # of connection points: 4
#     Node 33, Type 0, BuildingBlock: AZAVOO_clean_sbu_0, # of connection points: 4
#     Node 34, Type 0, BuildingBlock: AZAVOO_clean_sbu_0, # of connection points: 4
#     Node 35, Type 0, BuildingBlock: AZAVOO_clean_sbu_0, # of connection points: 4
#     Node 36, Type 0, BuildingBlock: AZAVOO_clean_sbu_0, # of connection points: 4
#     Node 37, Type 0, BuildingBlock: AZAVOO_clean_sbu_0, # of connection points: 4
#     Node 38, Type 0, BuildingBlock: AZAVOO_clean_sbu_0, # of connection points: 4
#     Node 39, Type 0, BuildingBlock: AZAVOO_clean_sbu_0, # of connection points: 4
#     Node 40, Type 0, BuildingBlock: AZAVOO_clean_sbu_0, # of connection points: 4
#     Node 41, Type 0, BuildingBlock: AZAVOO_clean_sbu_0, # of connection points: 4
#     Node 42, Type 0, BuildingBlock: AZAVOO_clean_sbu_0, # of connection points: 4
#     Node 43, Type 0, BuildingBlock: AZAVOO_clean_sbu_0, # of connection points: 4
#     Node 44, Type 0, BuildingBlock: AZAVOO_clean_sbu_0, # of connection points: 4
#     Node 45, Type 0, BuildingBlock: AZAVOO_clean_sbu_0, # of connection points: 4
#     Node 46, Type 0, BuildingBlock: AZAVOO_clean_sbu_0, # of connection points: 4
#     Node 47, Type 0, BuildingBlock: AZAVOO_clean_sbu_0, # of connection points: 4
#     Edge 48, Type (0, 0), BuildingBlock: ZUJKAS_clean_linker_0, # of connection points: 2
#     Edge 49, Type (0, 0), BuildingBlock: ZUJKAS_clean_linker_0, # of connection points: 2
#     Edge 50, Type (0, 0), BuildingBlock: ZUJKAS_clean_linker_0, # of connection points: 2
#     Edge 51, Type (0, 0), BuildingBlock: ZUJKAS_clean_linker_0, # of connection points: 2
#     Edge 52, Type (0, 0), BuildingBlock: ZUJKAS_clean_linker_0, # of connection points: 2
#     Edge 53, Type (0, 0), BuildingBlock: ZUJKAS_clean_linker_0, # of connection points: 2
#     Edge 54, Type (0, 0), BuildingBlock: ZUJKAS_clean_linker_0, # of connection points: 2
#     Edge 55, Type (0, 0), BuildingBlock: ZUJKAS_clean_linker_0, # of connection points: 2
#     Edge 56, Type (0, 0), BuildingBlock: ZUJKAS_clean_linker_0, # of connection points: 2
#     Edge 57, Type (0, 0), BuildingBlock: ZUJKAS_clean_linker_0, # of connection points: 2
#     Edge 58, Type (0, 0), BuildingBlock: ZUJKAS_clean_linker_0, # of connection points: 2
#     Edge 59, Type (0, 0), BuildingBlock: ZUJKAS_clean_linker_0, # of connection points: 2
#     Edge 60, Type (0, 0), BuildingBlock: ZUJKAS_clean_linker_0, # of connection points: 2
#     Edge 61, Type (0, 0), BuildingBlock: ZUJKAS_clean_linker_0, # of connection points: 2
#     Edge 62, Type (0, 0), BuildingBlock: ZUJKAS_clean_linker_0, # of connection points: 2
#     Edge 63, Type (0, 0), BuildingBlock: ZUJKAS_clean_linker_0, # of connection points: 2
#     Edge 64, Type (0, 0), BuildingBlock: ZUJKAS_clean_linker_0, # of connection points: 2
#     Edge 65, Type (0, 0), BuildingBlock: ZUJKAS_clean_linker_0, # of connection points: 2
#     Edge 66, Type (0, 0), BuildingBlock: ZUJKAS_clean_linker_0, # of connection points: 2
#     Edge 67, Type (0, 0), BuildingBlock: ZUJKAS_clean_linker_0, # of connection points: 2
#     Edge 68, Type (0, 0), BuildingBlock: ZUJKAS_clean_linker_0, # of connection points: 2
#     Edge 69, Type (0, 0), BuildingBlock: ZUJKAS_clean_linker_0, # of connection points: 2
#     Edge 70, Type (0, 0), BuildingBlock: ZUJKAS_clean_linker_0, # of connection points: 2
#     Edge 71, Type (0, 0), BuildingBlock: ZUJKAS_clean_linker_0, # of connection points: 2
#     Edge 72, Type (0, 0), BuildingBlock: ZUJKAS_clean_linker_0, # of connection points: 2
#     Edge 73, Type (0, 0), BuildingBlock: ZUJKAS_clean_linker_0, # of connection points: 2
#     Edge 74, Type (0, 0), BuildingBlock: ZUJKAS_clean_linker_0, # of connection points: 2
#     Edge 75, Type (0, 0), BuildingBlock: ZUJKAS_clean_linker_0, # of connection points: 2
#     Edge 76, Type (0, 0), BuildingBlock: ZUJKAS_clean_linker_0, # of connection points: 2
#     Edge 77, Type (0, 0), BuildingBlock: ZUJKAS_clean_linker_0, # of connection points: 2
#     Edge 78, Type (0, 0), BuildingBlock: ZUJKAS_clean_linker_0, # of connection points: 2
#     Edge 79, Type (0, 0), BuildingBlock: ZUJKAS_clean_linker_0, # of connection points: 2
#     Edge 80, Type (0, 0), BuildingBlock: ZUJKAS_clean_linker_0, # of connection points: 2
#     Edge 81, Type (0, 0), BuildingBlock: ZUJKAS_clean_linker_0, # of connection points: 2
#     Edge 82, Type (0, 0), BuildingBlock: ZUJKAS_clean_linker_0, # of connection points: 2
#     Edge 83, Type (0, 0), BuildingBlock: ZUJKAS_clean_linker_0, # of connection points: 2
#     Edge 84, Type (0, 0), BuildingBlock: ZUJKAS_clean_linker_0, # of connection points: 2
#     Edge 85, Type (0, 0), BuildingBlock: ZUJKAS_clean_linker_0, # of connection points: 2
#     Edge 86, Type (0, 0), BuildingBlock: ZUJKAS_clean_linker_0, # of connection points: 2
#     Edge 87, Type (0, 0), BuildingBlock: ZUJKAS_clean_linker_0, # of connection points: 2
#     Edge 88, Type (0, 0), BuildingBlock: ZUJKAS_clean_linker_0, # of connection points: 2
#     Edge 89, Type (0, 0), BuildingBlock: ZUJKAS_clean_linker_0, # of connection points: 2
#     Edge 90, Type (0, 0), BuildingBlock: ZUJKAS_clean_linker_0, # of connection points: 2
#     Edge 91, Type (0, 0), BuildingBlock: ZUJKAS_clean_linker_0, # of connection points: 2
#     Edge 92, Type (0, 0), BuildingBlock: ZUJKAS_clean_linker_0, # of connection points: 2
#     Edge 93, Type (0, 0), BuildingBlock: ZUJKAS_clean_linker_0, # of connection points: 2
#     Edge 94, Type (0, 0), BuildingBlock: ZUJKAS_clean_linker_0, # of connection points: 2
#     Edge 95, Type (0, 0), BuildingBlock: ZUJKAS_clean_linker_0, # of connection points: 2
#     Edge 96, Type (0, 0), BuildingBlock: ZUJKAS_clean_linker_0, # of connection points: 2
#     Edge 97, Type (0, 0), BuildingBlock: ZUJKAS_clean_linker_0, # of connection points: 2
#     Edge 98, Type (0, 0), BuildingBlock: ZUJKAS_clean_linker_0, # of connection points: 2
#     Edge 99, Type (0, 0), BuildingBlock: ZUJKAS_clean_linker_0, # of connection points: 2
#     Edge 100, Type (0, 0), BuildingBlock: ZUJKAS_clean_linker_0, # of connection points: 2
#     Edge 101, Type (0, 0), BuildingBlock: ZUJKAS_clean_linker_0, # of connection points: 2
#     Edge 102, Type (0, 0), BuildingBlock: ZUJKAS_clean_linker_0, # of connection points: 2
#     Edge 103, Type (0, 0), BuildingBlock: ZUJKAS_clean_linker_0, # of connection points: 2
#     Edge 104, Type (0, 0), BuildingBlock: ZUJKAS_clean_linker_0, # of connection points: 2
#     Edge 105, Type (0, 0), BuildingBlock: ZUJKAS_clean_linker_0, # of connection points: 2
#     Edge 106, Type (0, 0), BuildingBlock: ZUJKAS_clean_linker_0, # of connection points: 2
#     Edge 107, Type (0, 0), BuildingBlock: ZUJKAS_clean_linker_0, # of connection points: 2
#     Edge 108, Type (0, 0), BuildingBlock: ZUJKAS_clean_linker_0, # of connection points: 2
#     Edge 109, Type (0, 0), BuildingBlock: ZUJKAS_clean_linker_0, # of connection points: 2
#     Edge 110, Type (0, 0), BuildingBlock: ZUJKAS_clean_linker_0, # of connection points: 2
#     Edge 111, Type (0, 0), BuildingBlock: ZUJKAS_clean_linker_0, # of connection points: 2
#     Edge 112, Type (0, 0), BuildingBlock: ZUJKAS_clean_linker_0, # of connection points: 2
#     Edge 113, Type (0, 0), BuildingBlock: ZUJKAS_clean_linker_0, # of connection points: 2
#     Edge 114, Type (0, 0), BuildingBlock: ZUJKAS_clean_linker_0, # of connection points: 2
#     Edge 115, Type (0, 0), BuildingBlock: ZUJKAS_clean_linker_0, # of connection points: 2
#     Edge 116, Type (0, 0), BuildingBlock: ZUJKAS_clean_linker_0, # of connection points: 2
#     Edge 117, Type (0, 0), BuildingBlock: ZUJKAS_clean_linker_0, # of connection points: 2
#     Edge 118, Type (0, 0), BuildingBlock: ZUJKAS_clean_linker_0, # of connection points: 2
#     Edge 119, Type (0, 0), BuildingBlock: ZUJKAS_clean_linker_0, # of connection points: 2
#     Edge 120, Type (0, 0), BuildingBlock: ZUJKAS_clean_linker_0, # of connection points: 2
#     Edge 121, Type (0, 0), BuildingBlock: ZUJKAS_clean_linker_0, # of connection points: 2
#     Edge 122, Type (0, 0), BuildingBlock: ZUJKAS_clean_linker_0, # of connection points: 2
#     Edge 123, Type (0, 0), BuildingBlock: ZUJKAS_clean_linker_0, # of connection points: 2
#     Edge 124, Type (0, 0), BuildingBlock: ZUJKAS_clean_linker_0, # of connection points: 2
#     Edge 125, Type (0, 0), BuildingBlock: ZUJKAS_clean_linker_0, # of connection points: 2
#     Edge 126, Type (0, 0), BuildingBlock: ZUJKAS_clean_linker_0, # of connection points: 2
#     Edge 127, Type (0, 0), BuildingBlock: ZUJKAS_clean_linker_0, # of connection points: 2
#     Edge 128, Type (0, 0), BuildingBlock: ZUJKAS_clean_linker_0, # of connection points: 2
#     Edge 129, Type (0, 0), BuildingBlock: ZUJKAS_clean_linker_0, # of connection points: 2
#     Edge 130, Type (0, 0), BuildingBlock: ZUJKAS_clean_linker_0, # of connection points: 2
#     Edge 131, Type (0, 0), BuildingBlock: ZUJKAS_clean_linker_0, # of connection points: 2
#     Edge 132, Type (0, 0), BuildingBlock: ZUJKAS_clean_linker_0, # of connection points: 2
#     Edge 133, Type (0, 0), BuildingBlock: ZUJKAS_clean_linker_0, # of connection points: 2
#     Edge 134, Type (0, 0), BuildingBlock: ZUJKAS_clean_linker_0, # of connection points: 2
#     Edge 135, Type (0, 0), BuildingBlock: ZUJKAS_clean_linker_0, # of connection points: 2
#     Edge 136, Type (0, 0), BuildingBlock: ZUJKAS_clean_linker_0, # of connection points: 2
#     Edge 137, Type (0, 0), BuildingBlock: ZUJKAS_clean_linker_0, # of connection points: 2
#     Edge 138, Type (0, 0), BuildingBlock: ZUJKAS_clean_linker_0, # of connection points: 2
#     Edge 139, Type (0, 0), BuildingBlock: ZUJKAS_clean_linker_0, # of connection points: 2
#     Edge 140, Type (0, 0), BuildingBlock: ZUJKAS_clean_linker_0, # of connection points: 2
#     Edge 141, Type (0, 0), BuildingBlock: ZUJKAS_clean_linker_0, # of connection points: 2
#     Edge 142, Type (0, 0), BuildingBlock: ZUJKAS_clean_linker_0, # of connection points: 2
#     Edge 143, Type (0, 0), BuildingBlock: ZUJKAS_clean_linker_0, # of connection points: 2
# Relax obj value: 0.372
# Max RMSD: 0.253
# Mean RMSD: 0.204
data_MOF--net-nfb--node1-AZAVOO_clean_sbu_0--edge1-ZUJKAS_clean_linker_0
_symmetry_space_group_name_H-M    P1
_symmetry_Int_Tables_number       1
_symmetry_cell_setting            triclinic
loop_
_symmetry_equiv_pos_as_xyz
'x, y, z'
_cell_length_a     74.908028
_cell_length_b     75.992554
_cell_length_c     76.197882
_cell_angle_alpha  89.983183
_cell_angle_beta   89.96946
_cell_angle_gamma 89.355241
loop_
_atom_site_label
_atom_site_type_symbol
_atom_site_fract_x
_atom_site_fract_y
_atom_site_fract_z
_atom_type_partial_charge
Mg0 Mg 0.11029 0.10921 0.36823 0.0
O1 O 0.10242 0.13773 0.37389 0.0
O2 O 0.07753 0.13816 0.39007 0.0
Mg3 Mg 0.06844 0.10953 0.39338 0.0
C4 C 0.09028 0.14607 0.38234 0.0
C5 C 0.15082 0.1068 0.36423 0.0
O6 O 0.14629 0.091 0.36948 0.0
O7 O 0.11915 0.10631 0.39695 0.0
O8 O 0.09278 0.10441 0.41068 0.0
O9 O 0.09252 0.10921 0.34379 0.0
O10 O 0.08396 0.10163 0.3703 0.0
C11 C 0.10982 0.10398 0.41079 0.0
C12 C 0.07988 0.10418 0.35419 0.0
O13 O 0.1385 0.11802 0.3611 0.0
Mg14 Mg 0.39872 0.61645 0.85852 0.0
O15 O 0.36857 0.61429 0.86186 0.0
O16 O 0.36223 0.5881 0.87361 0.0
Mg17 Mg 0.38866 0.57273 0.8765 0.0
C18 C 0.35747 0.60315 0.86772 0.0
C19 C 0.40724 0.65621 0.86119 0.0
O20 O 0.42201 0.64909 0.86739 0.0
O21 O 0.40198 0.61988 0.88833 0.0
O22 O 0.39733 0.59222 0.89725 0.0
O23 O 0.39637 0.60287 0.83182 0.0
O24 O 0.40149 0.58944 0.85697 0.0
C25 C 0.40143 0.60817 0.90037 0.0
C26 C 0.39883 0.58837 0.84047 0.0
O27 O 0.39512 0.64618 0.85536 0.0
Mg28 Mg 0.88952 0.89111 0.36712 0.0
O29 O 0.89745 0.86261 0.37249 0.0
O30 O 0.92205 0.86168 0.38901 0.0
Mg31 Mg 0.93042 0.89036 0.39364 0.0
C32 C 0.90946 0.85401 0.38081 0.0
C33 C 0.84925 0.89312 0.35825 0.0
O34 O 0.85301 0.90982 0.36051 0.0
O35 O 0.87944 0.89323 0.39548 0.0
O36 O 0.90529 0.89427 0.41024 0.0
O37 O 0.90804 0.89134 0.34339 0.0
O38 O 0.91577 0.89889 0.3702 0.0
C39 C 0.88827 0.89478 0.40972 0.0
C40 C 0.92036 0.89624 0.35421 0.0
O41 O 0.86189 0.88184 0.35883 0.0
Mg42 Mg 0.60291 0.38134 0.86095 0.0
O43 O 0.63346 0.38165 0.86313 0.0
O44 O 0.64132 0.40568 0.87808 0.0
Mg45 Mg 0.61604 0.42141 0.88451 0.0
C46 C 0.64529 0.39142 0.87005 0.0
C47 C 0.59222 0.34184 0.85721 0.0
O48 O 0.57689 0.3484 0.86265 0.0
O49 O 0.6011 0.37374 0.89001 0.0
O50 O 0.6091 0.39894 0.90293 0.0
O51 O 0.6044 0.39754 0.83595 0.0
O52 O 0.60231 0.40853 0.8627 0.0
C53 C 0.60424 0.38293 0.90365 0.0
C54 C 0.60445 0.41112 0.84621 0.0
O55 O 0.60498 0.35224 0.85395 0.0
Mg56 Mg 0.14029 0.92146 0.62581 0.0
O57 O 0.12368 0.92648 0.60032 0.0
O58 O 0.1496 0.92032 0.58933 0.0
Mg59 Mg 0.17779 0.91448 0.59339 0.0
C60 C 0.13334 0.92369 0.58693 0.0
C61 C 0.105 0.93263 0.63893 0.0
O62 O 0.11354 0.94661 0.63344 0.0
O63 O 0.14279 0.89171 0.6185 0.0
O64 O 0.16628 0.8876 0.60045 0.0
O65 O 0.16294 0.91685 0.64547 0.0
O66 O 0.16742 0.92496 0.61816 0.0
C67 C 0.15314 0.88171 0.60937 0.0
C68 C 0.17395 0.92014 0.63284 0.0
O69 O 0.11345 0.91801 0.63943 0.0
Mg70 Mg 0.63282 0.63118 0.14104 0.0
O71 O 0.66326 0.62666 0.14232 0.0
O72 O 0.66915 0.60062 0.12976 0.0
Mg73 Mg 0.64301 0.58809 0.12133 0.0
C74 C 0.67426 0.61475 0.13718 0.0
C75 C 0.62297 0.67029 0.14431 0.0
O76 O 0.60748 0.66303 0.14109 0.0
O77 O 0.63522 0.6369 0.11174 0.0
O78 O 0.64118 0.61003 0.1009 0.0
O79 O 0.62881 0.61648 0.1667 0.0
O80 O 0.62863 0.60445 0.14034 0.0
C81 C 0.63856 0.62654 0.09896 0.0
C82 C 0.62768 0.60256 0.15699 0.0
O83 O 0.63654 0.66035 0.14656 0.0
Mg84 Mg 0.85564 0.08954 0.63343 0.0
O85 O 0.85496 0.09361 0.60387 0.0
O86 O 0.82984 0.1077 0.59616 0.0
Mg87 Mg 0.81476 0.11405 0.62173 0.0
C88 C 0.84472 0.10029 0.59223 0.0
C89 C 0.89655 0.08647 0.64119 0.0
O90 O 0.89176 0.09797 0.65322 0.0
O91 O 0.86374 0.11853 0.63601 0.0
O92 O 0.83769 0.13186 0.6296 0.0
O93 O 0.83895 0.06531 0.62942 0.0
O94 O 0.82799 0.09187 0.63477 0.0
C95 C 0.85409 0.13239 0.6341 0.0
C96 C 0.82526 0.07578 0.63067 0.0
O97 O 0.88473 0.08036 0.63097 0.0
Mg98 Mg 0.36538 0.36951 0.13724 0.0
O99 O 0.33468 0.37221 0.13944 0.0
O100 O 0.32678 0.39642 0.12457 0.0
Mg101 Mg 0.3515 0.40949 0.11351 0.0
C102 C 0.32277 0.3829 0.13361 0.0
C103 C 0.37725 0.33136 0.14134 0.0
O104 O 0.39109 0.33903 0.13414 0.0
O105 O 0.36248 0.36048 0.10876 0.0
O106 O 0.35441 0.38568 0.09553 0.0
O107 O 0.36996 0.38753 0.16082 0.0
O108 O 0.36786 0.39626 0.13342 0.0
C109 C 0.35807 0.36925 0.09512 0.0
C110 C 0.37007 0.40031 0.14956 0.0
O111 O 0.36399 0.34088 0.14594 0.0
Mg112 Mg 0.35617 0.12143 0.1372 0.0
O113 O 0.38581 0.12879 0.13664 0.0
O114 O 0.38883 0.15579 0.14799 0.0
Mg115 Mg 0.36115 0.16555 0.15626 0.0
C116 C 0.39539 0.14185 0.14107 0.0
C117 C 0.3576 0.08605 0.11638 0.0
O118 O 0.34787 0.09574 0.10567 0.0
O119 O 0.35846 0.11597 0.16694 0.0
O120 O 0.36195 0.14361 0.17648 0.0
O121 O 0.35294 0.13571 0.11135 0.0
O122 O 0.34882 0.14771 0.13748 0.0
C123 C 0.36099 0.12709 0.17927 0.0
C124 C 0.34972 0.14954 0.1208 0.0
O125 O 0.36346 0.09294 0.13042 0.0
Mg126 Mg 0.37334 0.86044 0.59859 0.0
O127 O 0.3674 0.88999 0.59731 0.0
O128 O 0.34105 0.89617 0.60972 0.0
Mg129 Mg 0.33161 0.87041 0.6219 0.0
C130 C 0.3551 0.90093 0.60159 0.0
C131 C 0.41373 0.85502 0.59244 0.0
O132 O 0.40995 0.84168 0.60272 0.0
O133 O 0.38273 0.86439 0.62706 0.0
O134 O 0.35636 0.87178 0.63902 0.0
O135 O 0.35555 0.8571 0.57489 0.0
O136 O 0.3466 0.85518 0.60245 0.0
C137 C 0.37323 0.86955 0.64006 0.0
C138 C 0.34267 0.85555 0.5861 0.0
O139 O 0.40126 0.86558 0.58802 0.0
Mg140 Mg 0.64309 0.87831 0.14102 0.0
O141 O 0.61341 0.87133 0.14102 0.0
O142 O 0.61039 0.84351 0.14998 0.0
Mg143 Mg 0.63822 0.83326 0.15753 0.0
C144 C 0.60373 0.858 0.14436 0.0
C145 C 0.64802 0.91632 0.12856 0.0
O146 O 0.66326 0.90866 0.12441 0.0
O147 O 0.64187 0.882 0.17097 0.0
O148 O 0.63944 0.8539 0.1793 0.0
O149 O 0.64534 0.86573 0.11426 0.0
O150 O 0.65021 0.85199 0.1394 0.0
C151 C 0.64061 0.87026 0.18294 0.0
C152 C 0.64872 0.85128 0.12267 0.0
O153 O 0.63605 0.90719 0.13596 0.0
Mg154 Mg 0.62988 0.13756 0.59964 0.0
O155 O 0.63376 0.10769 0.60053 0.0
O156 O 0.65896 0.10103 0.61491 0.0
Mg157 Mg 0.67013 0.1269 0.62525 0.0
C158 C 0.64515 0.09647 0.60629 0.0
C159 C 0.5894 0.14439 0.59372 0.0
O160 O 0.59341 0.15713 0.60464 0.0
O161 O 0.61954 0.13644 0.62802 0.0
O162 O 0.64497 0.12939 0.64197 0.0
O163 O 0.64804 0.13748 0.57617 0.0
O164 O 0.65715 0.14085 0.60353 0.0
C165 C 0.62824 0.13267 0.64197 0.0
C166 C 0.66105 0.13828 0.58732 0.0
O167 O 0.60169 0.1338 0.58884 0.0
Mg168 Mg 0.36812 0.86482 0.86329 0.0
O169 O 0.3983 0.86092 0.8658 0.0
O170 O 0.40614 0.83403 0.85653 0.0
Mg171 Mg 0.38084 0.82132 0.84589 0.0
C172 C 0.4101 0.84899 0.863 0.0
C173 C 0.36524 0.90047 0.88412 0.0
O174 O 0.35714 0.89005 0.89528 0.0
O175 O 0.37222 0.86999 0.83382 0.0
O176 O 0.38041 0.84293 0.82515 0.0
O177 O 0.3648 0.85051 0.88915 0.0
O178 O 0.36443 0.83786 0.86305 0.0
C179 C 0.37743 0.85919 0.82194 0.0
C180 C 0.36415 0.83632 0.87978 0.0
O181 O 0.37133 0.89401 0.86989 0.0
Mg182 Mg 0.62613 0.86122 0.40308 0.0
O183 O 0.62016 0.86735 0.37441 0.0
O184 O 0.59312 0.88001 0.37231 0.0
Mg185 Mg 0.58045 0.87933 0.39982 0.0
C186 C 0.60776 0.87465 0.36545 0.0
C187 C 0.66758 0.86674 0.40433 0.0
O188 O 0.66257 0.87667 0.4176 0.0
O189 O 0.62908 0.89092 0.40796 0.0
O190 O 0.6005 0.9 0.40804 0.0
O191 O 0.61345 0.83439 0.39987 0.0
O192 O 0.59916 0.85863 0.40798 0.0
C193 C 0.61713 0.9029 0.41004 0.0
C194 C 0.5986 0.84235 0.40376 0.0
O195 O 0.65582 0.85817 0.39598 0.0
Mg196 Mg 0.63384 0.13331 0.86517 0.0
O197 O 0.60361 0.137 0.86447 0.0
O198 O 0.59693 0.16292 0.8521 0.0
Mg199 Mg 0.62336 0.17598 0.84474 0.0
C200 C 0.59225 0.14851 0.8593 0.0
C201 C 0.64205 0.09325 0.86835 0.0
O202 O 0.65603 0.0985 0.85942 0.0
O203 O 0.63341 0.12699 0.83557 0.0
O204 O 0.62822 0.15403 0.8249 0.0
O205 O 0.63391 0.14821 0.8908 0.0
O206 O 0.63724 0.16032 0.86464 0.0
C207 C 0.63134 0.13763 0.82268 0.0
C208 C 0.63529 0.16221 0.88124 0.0
O209 O 0.63015 0.1045 0.87261 0.0
Mg210 Mg 0.37503 0.13528 0.40355 0.0
O211 O 0.3788 0.13286 0.37387 0.0
O212 O 0.40566 0.12141 0.36765 0.0
Mg213 Mg 0.41911 0.11542 0.3939 0.0
C214 C 0.39049 0.12753 0.36284 0.0
C215 C 0.33312 0.13476 0.40778 0.0
O216 O 0.33757 0.12555 0.42174 0.0
O217 O 0.36984 0.10561 0.40427 0.0
O218 O 0.39721 0.09522 0.39779 0.0
O219 O 0.38962 0.16139 0.40398 0.0
O220 O 0.40254 0.13534 0.407 0.0
C221 C 0.38073 0.09291 0.40124 0.0
C222 C 0.40407 0.15204 0.4056 0.0
O223 O 0.34541 0.14115 0.39828 0.0
Mg224 Mg 0.09478 0.37943 0.12619 0.0
O225 O 0.12481 0.37286 0.12516 0.0
O226 O 0.13564 0.38358 0.10005 0.0
Mg227 Mg 0.113 0.39756 0.08532 0.0
C228 C 0.13775 0.3754 0.11455 0.0
C229 C 0.08329 0.38279 0.16384 0.0
O230 O 0.07255 0.39329 0.15496 0.0
O231 O 0.10139 0.40783 0.13304 0.0
O232 O 0.11188 0.4179 0.10738 0.0
O233 O 0.08811 0.35522 0.10964 0.0
O234 O 0.09354 0.38169 0.09939 0.0
C235 C 0.10778 0.42004 0.12351 0.0
C236 C 0.08966 0.36567 0.09631 0.0
O237 O 0.09418 0.37303 0.15536 0.0
Mg238 Mg 0.1321 0.65386 0.87543 0.0
O239 O 0.16207 0.64898 0.8793 0.0
O240 O 0.16654 0.63548 0.90497 0.0
Mg241 Mg 0.13909 0.63048 0.91708 0.0
C242 C 0.17246 0.64222 0.89079 0.0
C243 C 0.12525 0.65635 0.83582 0.0
O244 O 0.10977 0.6511 0.8419 0.0
O245 O 0.12897 0.6249 0.86808 0.0
O246 O 0.13357 0.61197 0.89419 0.0
O247 O 0.13382 0.67878 0.89203 0.0
O248 O 0.12753 0.65237 0.9021 0.0
C249 C 0.1303 0.61125 0.87777 0.0
C250 C 0.13028 0.66864 0.90523 0.0
O251 O 0.13749 0.66015 0.84668 0.0
Mg252 Mg 0.88835 0.62618 0.37387 0.0
O253 O 0.91789 0.62769 0.36677 0.0
O254 O 0.92072 0.63849 0.33966 0.0
Mg255 Mg 0.89248 0.64491 0.32962 0.0
C256 C 0.92752 0.63231 0.35378 0.0
C257 C 0.88469 0.61248 0.41206 0.0
O258 O 0.86918 0.60822 0.40532 0.0
O259 O 0.88806 0.65611 0.37878 0.0
O260 O 0.88953 0.66572 0.35103 0.0
O261 O 0.8875 0.59986 0.36 0.0
O262 O 0.88139 0.62545 0.34754 0.0
C263 C 0.88824 0.6686 0.3675 0.0
C264 C 0.88372 0.6088 0.34599 0.0
O265 O 0.89597 0.62025 0.40238 0.0
Mg266 Mg 0.87155 0.34552 0.87492 0.0
O267 O 0.84128 0.34788 0.87873 0.0
O268 O 0.83562 0.36031 0.90472 0.0
Mg269 Mg 0.86234 0.36778 0.9168 0.0
C270 C 0.83034 0.35342 0.89038 0.0
C271 C 0.87828 0.34484 0.83532 0.0
O272 O 0.89266 0.35235 0.84156 0.0
O273 O 0.87218 0.37478 0.86785 0.0
O274 O 0.86557 0.38683 0.89394 0.0
O275 O 0.87186 0.32041 0.89135 0.0
O276 O 0.87584 0.34719 0.90161 0.0
C277 C 0.86894 0.38812 0.87757 0.0
C278 C 0.87439 0.33072 0.90463 0.0
O279 O 0.86683 0.33894 0.8461 0.0
Mg280 Mg 0.10954 0.37346 0.37541 0.0
O281 O 0.07973 0.37179 0.37001 0.0
O282 O 0.07506 0.35922 0.34396 0.0
Mg283 Mg 0.1027 0.35179 0.33288 0.0
C284 C 0.06926 0.36635 0.35806 0.0
C285 C 0.11473 0.3802 0.41539 0.0
O286 O 0.13033 0.37323 0.41134 0.0
O287 O 0.10958 0.34396 0.3825 0.0
O288 O 0.10687 0.33251 0.35551 0.0
O289 O 0.11092 0.39864 0.35943 0.0
O290 O 0.11534 0.37192 0.34893 0.0
C291 C 0.10892 0.33077 0.37207 0.0
C292 C 0.11409 0.3885 0.34611 0.0
O293 O 0.10303 0.38194 0.40344 0.0
Mg294 Mg 0.90326 0.62021 0.12515 0.0
O295 O 0.87308 0.6263 0.12491 0.0
O296 O 0.86224 0.61946 0.09846 0.0
Mg297 Mg 0.8849 0.60751 0.08224 0.0
C298 C 0.86016 0.62539 0.11401 0.0
C299 C 0.91536 0.61526 0.16373 0.0
O300 O 0.92771 0.6063 0.15521 0.0
O301 O 0.89708 0.59102 0.12834 0.0
O302 O 0.88581 0.58473 0.10186 0.0
O303 O 0.90914 0.64661 0.11235 0.0
O304 O 0.9041 0.62186 0.09813 0.0
C305 C 0.89019 0.58027 0.11746 0.0
C306 C 0.90703 0.63839 0.09762 0.0
O307 O 0.9035 0.62354 0.15497 0.0
Mg308 Mg 0.83696 0.35141 0.62564 0.0
O309 O 0.86672 0.3531 0.63202 0.0
O310 O 0.87225 0.33827 0.65681 0.0
Mg311 Mg 0.84585 0.32634 0.66596 0.0
C312 C 0.87745 0.34765 0.6439 0.0
C313 C 0.83034 0.35856 0.58676 0.0
O314 O 0.81674 0.34889 0.59153 0.0
O315 O 0.84183 0.32323 0.61575 0.0
O316 O 0.84632 0.30925 0.64133 0.0
O317 O 0.83223 0.37466 0.64352 0.0
O318 O 0.83111 0.34683 0.65179 0.0
C319 C 0.84497 0.30928 0.62464 0.0
C320 C 0.83074 0.36317 0.65597 0.0
O321 O 0.84194 0.3625 0.59823 0.0
Mg322 Mg 0.16686 0.65381 0.62919 0.0
O323 O 0.13677 0.65183 0.63398 0.0
O324 O 0.13055 0.66255 0.66063 0.0
Mg325 Mg 0.15669 0.6722 0.67267 0.0
C326 C 0.12569 0.65545 0.64623 0.0
C327 C 0.17096 0.63344 0.59402 0.0
O328 O 0.18105 0.62387 0.60451 0.0
O329 O 0.16354 0.68361 0.62392 0.0
O330 O 0.15833 0.69314 0.65125 0.0
O331 O 0.17004 0.62778 0.64318 0.0
O332 O 0.17157 0.65383 0.65598 0.0
C333 C 0.16056 0.69608 0.63489 0.0
C334 C 0.17126 0.63703 0.65738 0.0
O335 O 0.16287 0.64687 0.60024 0.0
Mg336 Mg 0.89078 0.89047 0.63232 0.0
O337 O 0.89337 0.8901 0.60253 0.0
O338 O 0.92 0.87873 0.59531 0.0
Mg339 Mg 0.93561 0.87449 0.62102 0.0
C340 C 0.90469 0.88496 0.59111 0.0
C341 C 0.85223 0.90547 0.62175 0.0
O342 O 0.86091 0.91951 0.61666 0.0
O343 O 0.88862 0.86042 0.63284 0.0
O344 O 0.91685 0.85199 0.62766 0.0
O345 O 0.90282 0.91778 0.63313 0.0
O346 O 0.91796 0.89279 0.63537 0.0
C347 C 0.90063 0.84843 0.63129 0.0
C348 C 0.91799 0.90962 0.63484 0.0
O349 O 0.86072 0.89276 0.62881 0.0
Mg350 Mg 0.5987 0.38108 0.12946 0.0
O351 O 0.62809 0.37389 0.12535 0.0
O352 O 0.63025 0.34703 0.11357 0.0
Mg353 Mg 0.60175 0.33763 0.10833 0.0
C354 C 0.6374 0.36093 0.11967 0.0
C355 C 0.59512 0.42156 0.13523 0.0
O356 O 0.57886 0.41773 0.13014 0.0
O357 O 0.59643 0.38755 0.1001 0.0
O358 O 0.59781 0.3602 0.08902 0.0
O359 O 0.59966 0.36576 0.15491 0.0
O360 O 0.59184 0.35468 0.12931 0.0
C361 C 0.59621 0.37683 0.08718 0.0
C362 C 0.59537 0.35222 0.14557 0.0
O363 O 0.60672 0.40926 0.13622 0.0
Mg364 Mg 0.10947 0.10614 0.63233 0.0
O365 O 0.10847 0.10687 0.60252 0.0
O366 O 0.08209 0.11733 0.59358 0.0
Mg367 Mg 0.06556 0.12295 0.61849 0.0
C368 C 0.09778 0.11144 0.59032 0.0
C369 C 0.14832 0.09164 0.62143 0.0
O370 O 0.13961 0.07898 0.61355 0.0
O371 O 0.1124 0.1361 0.63273 0.0
O372 O 0.08476 0.14498 0.62553 0.0
O373 O 0.09608 0.07916 0.63279 0.0
O374 O 0.08205 0.10472 0.634 0.0
C375 C 0.10078 0.14828 0.63011 0.0
C376 C 0.0812 0.08794 0.63381 0.0
O377 O 0.13974 0.10314 0.63025 0.0
Mg378 Mg 0.40214 0.61897 0.1272 0.0
O379 O 0.37222 0.62549 0.12708 0.0
O380 O 0.36809 0.6522 0.11548 0.0
Mg381 Mg 0.39494 0.66277 0.10672 0.0
C382 C 0.36205 0.63829 0.12259 0.0
C383 C 0.4051 0.58288 0.14732 0.0
O384 O 0.41872 0.59115 0.15421 0.0
O385 O 0.40152 0.61211 0.09735 0.0
O386 O 0.39846 0.64003 0.08853 0.0
O387 O 0.40493 0.63598 0.15208 0.0
O388 O 0.4085 0.64537 0.1251 0.0
C389 C 0.4006 0.62375 0.08517 0.0
C390 C 0.40803 0.64885 0.14142 0.0
O391 O 0.39563 0.59075 0.1358 0.0
Mg392 Mg 0.85326 0.08804 0.36865 0.0
O393 O 0.85045 0.11771 0.37162 0.0
O394 O 0.8252 0.12398 0.38602 0.0
Mg395 Mg 0.81251 0.09779 0.39396 0.0
C396 C 0.83927 0.12879 0.37793 0.0
C397 C 0.89491 0.08354 0.36546 0.0
O398 O 0.89172 0.07218 0.37805 0.0
O399 O 0.8625 0.08605 0.39748 0.0
O400 O 0.83648 0.09103 0.4112 0.0
O401 O 0.83547 0.09088 0.34489 0.0
O402 O 0.82571 0.08519 0.37161 0.0
C403 C 0.85313 0.08735 0.41146 0.0
C404 C 0.8222 0.08932 0.35565 0.0
O405 O 0.88189 0.09204 0.35874 0.0
Mg406 Mg 0.36742 0.36906 0.87024 0.0
O407 O 0.33693 0.36585 0.87036 0.0
O408 O 0.33051 0.33939 0.88138 0.0
Mg409 Mg 0.35657 0.32635 0.89022 0.0
C410 C 0.32568 0.35409 0.87469 0.0
C411 C 0.37649 0.40857 0.86728 0.0
O412 O 0.38967 0.40241 0.87695 0.0
O413 O 0.36639 0.37534 0.8997 0.0
O414 O 0.35953 0.34856 0.91 0.0
O415 O 0.36906 0.35372 0.84475 0.0
O416 O 0.37115 0.34206 0.87123 0.0
C417 C 0.36283 0.36482 0.91231 0.0
C418 C 0.37056 0.3399 0.8546 0.0
O419 O 0.36433 0.39808 0.86245 0.0
Mg420 Mg 0.14762 0.91025 0.3685 0.0
O421 O 0.15155 0.88045 0.36822 0.0
O422 O 0.1764 0.87318 0.38285 0.0
Mg423 Mg 0.18703 0.89851 0.39487 0.0
C424 C 0.16288 0.86902 0.37359 0.0
C425 C 0.10682 0.91612 0.36297 0.0
O426 O 0.11042 0.9285 0.37443 0.0
O427 O 0.13676 0.90866 0.39657 0.0
O428 O 0.1615 0.90076 0.4111 0.0
O429 O 0.16669 0.91088 0.34563 0.0
O430 O 0.17471 0.91354 0.37339 0.0
C431 C 0.14481 0.90432 0.41073 0.0
C432 C 0.17926 0.91155 0.35728 0.0
O433 O 0.11951 0.90639 0.35735 0.0
Mg434 Mg 0.63458 0.63129 0.87282 0.0
O435 O 0.66523 0.63329 0.87068 0.0
O436 O 0.67311 0.6601 0.87979 0.0
Mg437 Mg 0.64823 0.67464 0.88933 0.0
C438 C 0.67707 0.64492 0.87365 0.0
C439 C 0.62389 0.59595 0.85657 0.0
O440 O 0.61211 0.60706 0.84999 0.0
O441 O 0.63741 0.62692 0.90248 0.0
O442 O 0.64609 0.65384 0.91076 0.0
O443 O 0.63142 0.64477 0.84647 0.0
O444 O 0.63217 0.65831 0.87213 0.0
C445 C 0.64234 0.63787 0.91421 0.0
C446 C 0.63152 0.65926 0.85537 0.0
O447 O 0.63578 0.6018 0.86689 0.0
Mg448 Mg 0.63674 0.88219 0.86582 0.0
O449 O 0.60638 0.88535 0.86684 0.0
O450 O 0.59838 0.91182 0.85669 0.0
Mg451 Mg 0.62408 0.92523 0.84778 0.0
C452 C 0.59444 0.89688 0.8632 0.0
C453 C 0.64723 0.84299 0.87133 0.0
O454 O 0.6631 0.85013 0.87033 0.0
O455 O 0.63537 0.87729 0.83625 0.0
O456 O 0.62735 0.90406 0.82657 0.0
O457 O 0.63898 0.89623 0.89196 0.0
O458 O 0.64005 0.9091 0.86597 0.0
C459 C 0.63129 0.88788 0.82383 0.0
C460 C 0.64025 0.91047 0.88272 0.0
O461 O 0.6335 0.85293 0.87092 0.0
Mg462 Mg 0.63073 0.13012 0.40555 0.0
O463 O 0.63417 0.13207 0.37569 0.0
O464 O 0.66137 0.12204 0.36849 0.0
Mg465 Mg 0.6745 0.1114 0.39339 0.0
C466 C 0.64637 0.129 0.36434 0.0
C467 C 0.59259 0.14459 0.41486 0.0
O468 O 0.60137 0.14875 0.42916 0.0
O469 O 0.62533 0.10038 0.40331 0.0
O470 O 0.65257 0.0911 0.39526 0.0
O471 O 0.64539 0.15592 0.40683 0.0
O472 O 0.65829 0.12975 0.40894 0.0
C473 C 0.63621 0.08813 0.39869 0.0
C474 C 0.65985 0.14645 0.40744 0.0
O475 O 0.60094 0.13688 0.40245 0.0
Mg476 Mg 0.36376 0.11627 0.86239 0.0
O477 O 0.39433 0.11539 0.86334 0.0
O478 O 0.40426 0.09003 0.85176 0.0
Mg479 Mg 0.3799 0.07603 0.84063 0.0
C480 C 0.40696 0.10475 0.85929 0.0
C481 C 0.35094 0.15478 0.86632 0.0
O482 O 0.33663 0.14714 0.86009 0.0
O483 O 0.36511 0.12396 0.8335 0.0
O484 O 0.3756 0.09902 0.82146 0.0
O485 O 0.36216 0.09938 0.88703 0.0
O486 O 0.36272 0.08919 0.85999 0.0
C487 C 0.37036 0.11504 0.82023 0.0
C488 C 0.36229 0.086 0.87649 0.0
O489 O 0.36453 0.1453 0.86996 0.0
Mg490 Mg 0.37226 0.86582 0.41208 0.0
O491 O 0.36974 0.868 0.38247 0.0
O492 O 0.34374 0.88053 0.375 0.0
Mg493 Mg 0.33082 0.88953 0.40077 0.0
C494 C 0.35852 0.87306 0.37091 0.0
C495 C 0.41195 0.85414 0.42044 0.0
O496 O 0.40597 0.85541 0.43661 0.0
O497 O 0.38037 0.89481 0.41341 0.0
O498 O 0.35444 0.90752 0.40549 0.0
O499 O 0.35557 0.84146 0.4095 0.0
O500 O 0.3446 0.86807 0.41469 0.0
C501 C 0.37083 0.90839 0.40984 0.0
C502 C 0.34185 0.85191 0.41077 0.0
O503 O 0.40133 0.85729 0.4078 0.0
Mg504 Mg 0.62653 0.12904 0.14071 0.0
O505 O 0.59613 0.12547 0.14036 0.0
O506 O 0.59016 0.09936 0.15246 0.0
Mg507 Mg 0.61654 0.08573 0.15957 0.0
C508 C 0.58508 0.11381 0.14538 0.0
C509 C 0.6345 0.16871 0.14235 0.0
O510 O 0.64847 0.16173 0.15024 0.0
O511 O 0.62549 0.13388 0.17036 0.0
O512 O 0.62086 0.10674 0.18058 0.0
O513 O 0.62883 0.11535 0.11433 0.0
O514 O 0.62994 0.10205 0.14008 0.0
C515 C 0.62359 0.12311 0.18309 0.0
C516 C 0.62956 0.1009 0.12332 0.0
O517 O 0.62284 0.15852 0.1359 0.0
Mg518 Mg 0.37441 0.12542 0.59738 0.0
O519 O 0.38052 0.09598 0.59717 0.0
O520 O 0.40704 0.09045 0.60936 0.0
Mg521 Mg 0.41779 0.11712 0.61834 0.0
C522 C 0.39281 0.08525 0.60186 0.0
C523 C 0.33333 0.13003 0.59454 0.0
O524 O 0.33795 0.14537 0.60095 0.0
O525 O 0.36773 0.12416 0.62671 0.0
O526 O 0.39487 0.11909 0.63807 0.0
O527 O 0.39043 0.12851 0.5722 0.0
O528 O 0.40129 0.13119 0.59895 0.0
C529 C 0.37806 0.12151 0.63982 0.0
C530 C 0.40398 0.13124 0.58236 0.0
O531 O 0.34552 0.11896 0.59058 0.0
Mg532 Mg 0.37212 0.87173 0.1476 0.0
O533 O 0.40266 0.87408 0.14475 0.0
O534 O 0.41059 0.89948 0.15716 0.0
Mg535 Mg 0.38585 0.91272 0.1688 0.0
C536 C 0.4145 0.88531 0.14895 0.0
C537 C 0.37447 0.83293 0.12807 0.0
O538 O 0.37418 0.84032 0.11249 0.0
O539 O 0.37548 0.8646 0.17628 0.0
O540 O 0.38377 0.89 0.18858 0.0
O541 O 0.36778 0.88792 0.12281 0.0
O542 O 0.36944 0.8987 0.14955 0.0
C543 C 0.38011 0.87367 0.18953 0.0
C544 C 0.3678 0.90153 0.13306 0.0
O545 O 0.37391 0.84243 0.14177 0.0
Mg546 Mg 0.62642 0.87239 0.59849 0.0
O547 O 0.61995 0.90173 0.59797 0.0
O548 O 0.59255 0.90695 0.60833 0.0
Mg549 Mg 0.58195 0.88015 0.61715 0.0
C550 C 0.6072 0.91231 0.60175 0.0
C551 C 0.66766 0.86801 0.59562 0.0
O552 O 0.66333 0.85206 0.60057 0.0
O553 O 0.63161 0.87405 0.62804 0.0
O554 O 0.60391 0.87907 0.63803 0.0
O555 O 0.61209 0.86944 0.57251 0.0
O556 O 0.59962 0.8663 0.5986 0.0
C557 C 0.62065 0.8769 0.64061 0.0
C558 C 0.59797 0.86662 0.58187 0.0
O559 O 0.65534 0.87928 0.59285 0.0
Mg560 Mg 0.90505 0.61155 0.87611 0.0
O561 O 0.87527 0.61414 0.86919 0.0
O562 O 0.87103 0.60246 0.84258 0.0
Mg563 Mg 0.8978 0.59172 0.83267 0.0
C564 C 0.86511 0.6101 0.85637 0.0
C565 C 0.91304 0.62137 0.91435 0.0
O566 O 0.92894 0.61853 0.90756 0.0
O567 O 0.90067 0.58234 0.88234 0.0
O568 O 0.89652 0.57202 0.85505 0.0
O569 O 0.91024 0.63667 0.861 0.0
O570 O 0.91177 0.60988 0.84986 0.0
C571 C 0.89756 0.56981 0.87161 0.0
C572 C 0.91252 0.62653 0.84751 0.0
O573 O 0.89942 0.61964 0.90456 0.0
Mg574 Mg 0.86739 0.35357 0.12691 0.0
O575 O 0.83768 0.35962 0.13079 0.0
O576 O 0.83364 0.37326 0.15648 0.0
Mg577 Mg 0.86125 0.37724 0.16863 0.0
C578 C 0.82751 0.36669 0.14231 0.0
C579 C 0.87318 0.34937 0.08672 0.0
O580 O 0.88754 0.35805 0.09124 0.0
O581 O 0.87189 0.38245 0.1194 0.0
O582 O 0.86809 0.39521 0.14573 0.0
O583 O 0.86385 0.32899 0.14313 0.0
O584 O 0.87175 0.35484 0.15372 0.0
C585 C 0.87146 0.396 0.12934 0.0
C586 C 0.86744 0.33882 0.15652 0.0
O587 O 0.86182 0.34558 0.09849 0.0
Mg588 Mg 0.10551 0.37356 0.62147 0.0
O589 O 0.07522 0.37095 0.61861 0.0
O590 O 0.06877 0.36237 0.59135 0.0
Mg591 Mg 0.09544 0.35805 0.57718 0.0
C592 C 0.06392 0.36693 0.60678 0.0
C593 C 0.10442 0.38674 0.66179 0.0
O594 O 0.10937 0.40223 0.65601 0.0
O595 O 0.10834 0.34386 0.62332 0.0
O596 O 0.10169 0.33516 0.59608 0.0
O597 O 0.10355 0.40114 0.61044 0.0
O598 O 0.10833 0.377 0.59481 0.0
C599 C 0.10608 0.33178 0.61194 0.0
C600 C 0.10572 0.39368 0.59529 0.0
O601 O 0.10191 0.3743 0.65099 0.0
Mg602 Mg 0.13287 0.6444 0.12836 0.0
O603 O 0.16257 0.63964 0.13402 0.0
O604 O 0.1656 0.62649 0.16013 0.0
Mg605 Mg 0.13766 0.62067 0.17025 0.0
C606 C 0.17228 0.63321 0.14628 0.0
C607 C 0.12863 0.64858 0.08818 0.0
O608 O 0.11442 0.63953 0.09244 0.0
O609 O 0.13054 0.61541 0.12029 0.0
O610 O 0.13462 0.60275 0.1466 0.0
O611 O 0.13441 0.66893 0.145 0.0
O612 O 0.12705 0.64266 0.15489 0.0
C613 C 0.13224 0.60182 0.13006 0.0
C614 C 0.13069 0.65876 0.15811 0.0
O615 O 0.13952 0.65282 0.10022 0.0
Mg616 Mg 0.89808 0.62296 0.62356 0.0
O617 O 0.92862 0.62545 0.62155 0.0
O618 O 0.9352 0.63626 0.59506 0.0
Mg619 Mg 0.90911 0.64192 0.58058 0.0
C620 C 0.93995 0.63044 0.61009 0.0
C621 C 0.88841 0.62597 0.66268 0.0
O622 O 0.87497 0.6341 0.65497 0.0
O623 O 0.8958 0.6526 0.62785 0.0
O624 O 0.90277 0.66299 0.60126 0.0
O625 O 0.89956 0.59633 0.61019 0.0
O626 O 0.8962 0.6218 0.59653 0.0
C627 C 0.89834 0.66537 0.61729 0.0
C628 C 0.89845 0.6051 0.59565 0.0
O629 O 0.90043 0.61883 0.65318 0.0
Mg630 Mg 0.0973 0.38727 0.87504 0.0
O631 O 0.12708 0.38401 0.86838 0.0
O632 O 0.13203 0.39668 0.84237 0.0
Mg633 Mg 0.10572 0.40846 0.83249 0.0
C634 C 0.13756 0.38834 0.8559 0.0
C635 C 0.09343 0.38509 0.91518 0.0
O636 O 0.08299 0.3985 0.91118 0.0
O637 O 0.10251 0.4161 0.88239 0.0
O638 O 0.10713 0.42738 0.85554 0.0
O639 O 0.0911 0.36301 0.85908 0.0
O640 O 0.0909 0.39024 0.84893 0.0
C641 C 0.10601 0.42896 0.87217 0.0
C642 C 0.0892 0.37376 0.84602 0.0
O643 O 0.10215 0.37747 0.90299 0.0
Mg644 Mg 0.15706 0.64623 0.3772 0.0
O645 O 0.12677 0.6415 0.37913 0.0
O646 O 0.1165 0.65602 0.40261 0.0
Mg647 Mg 0.13957 0.67057 0.41519 0.0
C648 C 0.11401 0.64611 0.38934 0.0
C649 C 0.16963 0.64151 0.33937 0.0
O650 O 0.18273 0.6502 0.34671 0.0
O651 O 0.15161 0.67382 0.36669 0.0
O652 O 0.14093 0.68771 0.39048 0.0
O653 O 0.16299 0.62376 0.39605 0.0
O654 O 0.15842 0.65133 0.40384 0.0
C655 C 0.14523 0.68746 0.37427 0.0
C656 C 0.16155 0.63536 0.40845 0.0
O657 O 0.15696 0.63617 0.34904 0.0
Mg658 Mg 0.84082 0.35494 0.37758 0.0
O659 O 0.87065 0.35758 0.38264 0.0
O660 O 0.87706 0.34861 0.40984 0.0
Mg661 Mg 0.8507 0.33962 0.4222 0.0
C662 C 0.88183 0.35478 0.39498 0.0
C663 C 0.83322 0.36194 0.33778 0.0
O664 O 0.81704 0.36443 0.34404 0.0
O665 O 0.84471 0.32517 0.37443 0.0
O666 O 0.84951 0.31711 0.4023 0.0
O667 O 0.83618 0.38176 0.38992 0.0
O668 O 0.83546 0.35642 0.40411 0.0
C669 C 0.84758 0.31336 0.38607 0.0
C670 C 0.83454 0.37324 0.40455 0.0
O671 O 0.84594 0.35874 0.34838 0.0
H672 H 0.09548 0.31736 0.40282 0.0
H673 H 0.09352 0.28597 0.41069 0.0
H674 H 0.12305 0.27217 0.36398 0.0
H675 H 0.12491 0.30314 0.35608 0.0
H676 H 0.07675 0.26115 0.38678 0.0
H677 H 0.14627 0.2413 0.40266 0.0
H678 H 0.13852 0.2639 0.40374 0.0
H679 H 0.14431 0.25416 0.38297 0.0
C680 C 0.10194 0.30761 0.39455 0.0
C681 C 0.11028 0.31261 0.37883 0.0
C682 C 0.10076 0.28974 0.39899 0.0
C683 C 0.10829 0.2768 0.38798 0.0
C684 C 0.11741 0.28193 0.3728 0.0
H685 H 0.11092 0.16804 0.36272 0.0
H686 H 0.11428 0.19978 0.36601 0.0
C687 C 0.11836 0.29964 0.36826 0.0
C688 C 0.105 0.25785 0.39089 0.0
H689 H 0.12654 0.21819 0.39403 0.0
C690 C 0.08754 0.25172 0.38877 0.0
C691 C 0.11916 0.24565 0.39322 0.0
C692 C 0.13811 0.25157 0.39594 0.0
C693 C 0.08399 0.23363 0.3879 0.0
C694 C 0.09825 0.22139 0.3897 0.0
C695 C 0.11561 0.22757 0.39259 0.0
C696 C 0.09569 0.20216 0.38766 0.0
C697 C 0.06519 0.22786 0.38401 0.0
C698 C 0.08406 0.19292 0.3987 0.0
C699 C 0.08192 0.17476 0.3967 0.0
C700 C 0.09161 0.16546 0.38381 0.0
C701 C 0.10326 0.17477 0.3728 0.0
C702 C 0.10524 0.19292 0.37469 0.0
H703 H 0.05684 0.2388 0.37869 0.0
H704 H 0.06516 0.21685 0.37443 0.0
H705 H 0.05886 0.22323 0.39632 0.0
H706 H 0.07684 0.1997 0.40904 0.0
H707 H 0.073 0.16796 0.40553 0.0
H708 H 0.33486 0.60656 0.84011 0.0
H709 H 0.30325 0.61585 0.84098 0.0
H710 H 0.30648 0.62115 0.89725 0.0
H711 H 0.33789 0.61147 0.89641 0.0
H712 H 0.275 0.59871 0.86255 0.0
H713 H 0.28516 0.66942 0.87742 0.0
H714 H 0.30231 0.65558 0.86776 0.0
H715 H 0.29782 0.65435 0.89088 0.0
C716 C 0.3287 0.60967 0.85261 0.0
C717 C 0.33854 0.60823 0.86822 0.0
C718 C 0.31077 0.615 0.8531 0.0
C719 C 0.30267 0.61936 0.86916 0.0
C720 C 0.31259 0.618 0.88474 0.0
H721 H 0.19912 0.63061 0.9126 0.0
H722 H 0.23072 0.62642 0.90552 0.0
C723 C 0.3304 0.61237 0.88428 0.0
C724 C 0.28363 0.62461 0.86986 0.0
H725 H 0.25568 0.65843 0.88159 0.0
C726 C 0.27074 0.61182 0.86647 0.0
C727 C 0.27819 0.64178 0.87483 0.0
C728 C 0.29156 0.65616 0.87779 0.0
C729 C 0.2525 0.61554 0.86877 0.0
C730 C 0.24713 0.63243 0.87459 0.0
C731 C 0.25994 0.64546 0.87725 0.0
C732 C 0.22832 0.63629 0.87901 0.0
C733 C 0.23903 0.60131 0.8655 0.0
C734 C 0.2167 0.6435 0.86648 0.0
C735 C 0.1986 0.64593 0.87045 0.0
C736 C 0.19188 0.64114 0.88704 0.0
C737 C 0.20379 0.63438 0.8997 0.0
C738 C 0.22184 0.63199 0.8957 0.0
H739 H 0.24524 0.58925 0.85983 0.0
H740 H 0.23242 0.5978 0.87804 0.0
H741 H 0.22851 0.60622 0.85641 0.0
H742 H 0.22154 0.64685 0.85351 0.0
H743 H 0.18982 0.65114 0.86037 0.0
H744 H 0.88775 0.83304 0.36126 0.0
H745 H 0.88464 0.80112 0.36304 0.0
H746 H 0.9248 0.79884 0.40345 0.0
H747 H 0.92813 0.8309 0.40182 0.0
H748 H 0.9217 0.77436 0.36372 0.0
H749 H 0.87039 0.77315 0.41676 0.0
H750 H 0.87067 0.79092 0.40101 0.0
H751 H 0.88814 0.78908 0.41695 0.0
C752 C 0.89597 0.82581 0.37055 0.0
C753 C 0.9082 0.83456 0.38142 0.0
C754 C 0.89413 0.80758 0.37154 0.0
C755 C 0.90438 0.79776 0.38347 0.0
C756 C 0.91672 0.80631 0.39424 0.0
H757 H 0.90039 0.68284 0.39845 0.0
H758 H 0.90434 0.71437 0.40472 0.0
C759 C 0.91865 0.82458 0.39322 0.0
C760 C 0.90238 0.77849 0.38423 0.0
H761 H 0.87767 0.74606 0.40312 0.0
C762 C 0.91227 0.76811 0.37247 0.0
C763 C 0.89004 0.77051 0.39568 0.0
C764 C 0.87913 0.78138 0.40839 0.0
C765 C 0.90979 0.74988 0.37155 0.0
C766 C 0.89698 0.74192 0.38257 0.0
C767 C 0.8875 0.75223 0.39476 0.0
C768 C 0.89237 0.72319 0.38038 0.0
C769 C 0.9206 0.73926 0.35852 0.0
C770 C 0.88372 0.71791 0.36502 0.0
C771 C 0.88153 0.70011 0.36141 0.0
C772 C 0.88784 0.6872 0.37317 0.0
C773 C 0.89539 0.69251 0.38918 0.0
C774 C 0.89769 0.71047 0.39275 0.0
H775 H 0.93255 0.74649 0.35396 0.0
H776 H 0.92499 0.72653 0.36434 0.0
H777 H 0.9122 0.73636 0.3469 0.0
H778 H 0.87931 0.72757 0.35545 0.0
H779 H 0.87544 0.69643 0.34907 0.0
H780 H 0.81376 0.34425 0.85961 0.0
H781 H 0.78207 0.34796 0.85234 0.0
H782 H 0.77147 0.36628 0.90488 0.0
H783 H 0.80296 0.36265 0.91235 0.0
H784 H 0.74822 0.33472 0.87268 0.0
H785 H 0.75725 0.40707 0.86786 0.0
H786 H 0.77554 0.39154 0.86546 0.0
H787 H 0.76689 0.39661 0.88686 0.0
C788 C 0.80465 0.34879 0.86972 0.0
C789 C 0.81096 0.35333 0.88653 0.0
C790 C 0.78657 0.35089 0.86552 0.0
C791 C 0.77459 0.35755 0.87804 0.0
C792 C 0.78063 0.36125 0.89503 0.0
H793 H 0.67149 0.39989 0.89302 0.0
H794 H 0.70263 0.39033 0.8926 0.0
C795 C 0.79864 0.35916 0.89925 0.0
C796 C 0.75597 0.36186 0.87327 0.0
H797 H 0.72752 0.39685 0.86878 0.0
C798 C 0.74361 0.34826 0.87158 0.0
C799 C 0.75021 0.37954 0.87173 0.0
C800 C 0.76315 0.39458 0.87292 0.0
C801 C 0.7253 0.35195 0.8695 0.0
C802 C 0.71942 0.36973 0.86877 0.0
C803 C 0.73202 0.38325 0.8695 0.0
C804 C 0.70026 0.37483 0.86888 0.0
C805 C 0.7124 0.33685 0.86904 0.0
C806 C 0.68852 0.3693 0.85567 0.0
C807 C 0.67054 0.37454 0.85606 0.0
C808 C 0.66418 0.38574 0.86942 0.0
C809 C 0.67603 0.3914 0.88247 0.0
C810 C 0.69383 0.38592 0.88225 0.0
H811 H 0.71865 0.32438 0.87372 0.0
H812 H 0.70046 0.33974 0.87721 0.0
H813 H 0.70792 0.33476 0.85533 0.0
H814 H 0.69326 0.36113 0.84497 0.0
H815 H 0.6617 0.37009 0.84577 0.0
H816 H 0.1556 0.70896 0.60131 0.0
H817 H 0.15194 0.74004 0.59263 0.0
H818 H 0.15906 0.75597 0.64641 0.0
H819 H 0.16274 0.72536 0.65518 0.0
H820 H 0.1256 0.7695 0.62383 0.0
H821 H 0.19403 0.7801 0.59733 0.0
H822 H 0.1823 0.75998 0.59283 0.0
H823 H 0.1903 0.76421 0.61455 0.0
C824 C 0.15653 0.71911 0.61123 0.0
C825 C 0.15937 0.71465 0.62894 0.0
C826 C 0.15438 0.73681 0.60627 0.0
C827 C 0.15515 0.75021 0.61894 0.0
C828 C 0.1583 0.74579 0.63649 0.0
H829 H 0.14086 0.86109 0.63607 0.0
H830 H 0.13944 0.82893 0.63671 0.0
C831 C 0.1604 0.72825 0.64145 0.0
C832 C 0.15261 0.76896 0.61425 0.0
H833 H 0.17561 0.80502 0.60093 0.0
C834 C 0.1364 0.77729 0.61855 0.0
C835 C 0.16672 0.77897 0.60737 0.0
C836 C 0.18439 0.77049 0.60271 0.0
C837 C 0.13402 0.79555 0.61646 0.0
C838 C 0.14848 0.80579 0.61042 0.0
C839 C 0.16451 0.79726 0.60558 0.0
C840 C 0.14769 0.82539 0.60965 0.0
C841 C 0.11603 0.80357 0.62073 0.0
C842 C 0.15309 0.83422 0.59438 0.0
C843 C 0.15442 0.85255 0.59419 0.0
C844 C 0.15015 0.86249 0.6092 0.0
C845 C 0.14407 0.85376 0.62427 0.0
C846 C 0.14312 0.83537 0.62458 0.0
H847 H 0.10519 0.79386 0.61897 0.0
H848 H 0.11587 0.80773 0.63469 0.0
H849 H 0.11308 0.81521 0.61238 0.0
H850 H 0.15668 0.82688 0.58268 0.0
H851 H 0.159 0.85896 0.58233 0.0
H852 H 0.70038 0.60106 0.11645 0.0
H853 H 0.73231 0.60674 0.11758 0.0
H854 H 0.72423 0.64147 0.16168 0.0
H855 H 0.69191 0.6361 0.16042 0.0
H856 H 0.74727 0.65468 0.13372 0.0
H857 H 0.76687 0.58743 0.15536 0.0
H858 H 0.75147 0.58795 0.13732 0.0
H859 H 0.74459 0.59629 0.15836 0.0
C860 C 0.70536 0.60975 0.12654 0.0
C861 C 0.69366 0.61794 0.13851 0.0
C862 C 0.72362 0.61299 0.12715 0.0
C863 C 0.73063 0.62426 0.13991 0.0
C864 C 0.71903 0.63265 0.1518 0.0
H865 H 0.8475 0.62678 0.14772 0.0
H866 H 0.81625 0.62962 0.15697 0.0
C867 C 0.70063 0.62955 0.15108 0.0
C868 C 0.75011 0.62724 0.14042 0.0
H869 H 0.78986 0.60503 0.14289 0.0
C870 C 0.75662 0.64393 0.13605 0.0
C871 C 0.76226 0.61324 0.14363 0.0
C872 C 0.75599 0.59524 0.14909 0.0
C873 C 0.775 0.64666 0.13372 0.0
C874 C 0.78701 0.63235 0.1358 0.0
C875 C 0.78057 0.61596 0.14123 0.0
C876 C 0.806 0.63347 0.13071 0.0
C877 C 0.78146 0.66467 0.1286 0.0
C878 C 0.81053 0.6349 0.11291 0.0
C879 C 0.82828 0.63307 0.10756 0.0
C880 C 0.84185 0.62986 0.11994 0.0
C881 C 0.83737 0.62933 0.13787 0.0
C882 C 0.81954 0.63093 0.14319 0.0
H883 H 0.77135 0.67506 0.13155 0.0
H884 H 0.79407 0.66779 0.13554 0.0
H885 H 0.78419 0.66489 0.11428 0.0
H886 H 0.80022 0.63659 0.10307 0.0
H887 H 0.8313 0.6336 0.09367 0.0
H888 H 0.88388 0.14394 0.61738 0.0
H889 H 0.89112 0.17496 0.61178 0.0
H890 H 0.84855 0.19123 0.6465 0.0
H891 H 0.84108 0.16047 0.65174 0.0
H892 H 0.86174 0.19774 0.59717 0.0
H893 H 0.89155 0.22448 0.65807 0.0
H894 H 0.89285 0.20139 0.65234 0.0
H895 H 0.87273 0.21048 0.66168 0.0
C896 C 0.87662 0.15418 0.62435 0.0
C897 C 0.86204 0.14994 0.63509 0.0
C898 C 0.88065 0.17183 0.62104 0.0
C899 C 0.8704 0.18532 0.62879 0.0
C900 C 0.85676 0.181 0.64058 0.0
H901 H 0.82279 0.2817 0.62168 0.0
H902 H 0.83222 0.25106 0.61708 0.0
C903 C 0.85253 0.16346 0.64361 0.0
C904 C 0.8719 0.20378 0.62291 0.0
H905 H 0.8765 0.24525 0.63915 0.0
C906 C 0.86548 0.20816 0.60612 0.0
C907 C 0.87671 0.21728 0.63465 0.0
C908 C 0.884 0.21321 0.65266 0.0
C909 C 0.86242 0.22578 0.60132 0.0
C910 C 0.86605 0.23919 0.61355 0.0
C911 C 0.87376 0.23487 0.6298 0.0
C912 C 0.85962 0.25744 0.61102 0.0
C913 C 0.85444 0.23 0.58364 0.0
C914 C 0.87175 0.2711 0.60836 0.0
C915 C 0.86626 0.28861 0.61062 0.0
C916 C 0.84868 0.29253 0.61581 0.0
C917 C 0.83627 0.27894 0.61723 0.0
C918 C 0.84168 0.26148 0.6147 0.0
H919 H 0.85533 0.21861 0.57453 0.0
H920 H 0.84016 0.23366 0.58534 0.0
H921 H 0.86129 0.24141 0.57765 0.0
H922 H 0.88569 0.26816 0.60576 0.0
H923 H 0.87612 0.29891 0.60993 0.0
H924 H 0.29437 0.39942 0.11827 0.0
H925 H 0.26289 0.39255 0.12107 0.0
H926 H 0.27565 0.35058 0.15715 0.0
H927 H 0.30759 0.35733 0.15442 0.0
H928 H 0.25063 0.34313 0.12597 0.0
H929 H 0.23121 0.40094 0.16658 0.0
H930 H 0.24644 0.40546 0.14893 0.0
H931 H 0.2535 0.39153 0.16672 0.0
C932 C 0.29061 0.38884 0.12699 0.0
C933 C 0.30358 0.37902 0.13624 0.0
C934 C 0.27256 0.38493 0.12854 0.0
C935 C 0.26699 0.37121 0.13944 0.0
C936 C 0.27976 0.36128 0.14873 0.0
H937 H 0.15005 0.36698 0.14745 0.0
H938 H 0.18114 0.36186 0.15631 0.0
C939 C 0.29796 0.36518 0.14717 0.0
C940 C 0.24773 0.36729 0.1405 0.0
H941 H 0.20793 0.38714 0.15036 0.0
C942 C 0.24125 0.35249 0.13167 0.0
C943 C 0.23558 0.37944 0.14809 0.0
C944 C 0.24197 0.39519 0.15826 0.0
C945 C 0.22284 0.35024 0.12909 0.0
C946 C 0.21076 0.36321 0.1354 0.0
C947 C 0.21722 0.37727 0.14542 0.0
C948 C 0.19177 0.36372 0.12999 0.0
C949 C 0.21648 0.33438 0.11911 0.0
C950 C 0.18747 0.36633 0.11225 0.0
C951 C 0.16981 0.36942 0.10717 0.0
C952 C 0.15606 0.36993 0.11973 0.0
C953 C 0.1603 0.36658 0.13743 0.0
C954 C 0.17805 0.36367 0.14253 0.0
H955 H 0.22628 0.32332 0.11993 0.0
H956 H 0.20339 0.32986 0.12416 0.0
H957 H 0.21484 0.33791 0.10506 0.0
H958 H 0.19789 0.36677 0.1024 0.0
H959 H 0.16702 0.37191 0.09344 0.0
H960 H 0.38618 0.13883 0.20114 0.0
H961 H 0.38799 0.13457 0.23278 0.0
H962 H 0.34366 0.0989 0.23064 0.0
H963 H 0.34194 0.103 0.19852 0.0
H964 H 0.3561 0.14344 0.25403 0.0
H965 H 0.38321 0.07558 0.2643 0.0
H966 H 0.38762 0.08761 0.24434 0.0
H967 H 0.36571 0.07934 0.24842 0.0
C968 C 0.37707 0.12976 0.20734 0.0
C969 C 0.36386 0.1213 0.19749 0.0
C970 C 0.3781 0.12736 0.22539 0.0
C971 C 0.3659 0.11654 0.23401 0.0
C972 C 0.35326 0.10723 0.22415 0.0
H973 H 0.35738 0.13204 0.34823 0.0
H974 H 0.34901 0.12831 0.31748 0.0
C975 C 0.35232 0.10952 0.20587 0.0
C976 C 0.3657 0.11665 0.2534 0.0
H977 H 0.38037 0.09375 0.28918 0.0
C978 C 0.3611 0.13249 0.26181 0.0
C979 C 0.37233 0.10237 0.26336 0.0
C980 C 0.37758 0.08521 0.25477 0.0
C981 C 0.36381 0.13476 0.27987 0.0
C982 C 0.37103 0.12067 0.2898 0.0
C983 C 0.37487 0.10454 0.2815 0.0
C984 C 0.37591 0.12282 0.3085 0.0
C985 C 0.35986 0.15254 0.28793 0.0
C986 C 0.39378 0.1208 0.31369 0.0
C987 C 0.39862 0.1228 0.33126 0.0
C988 C 0.38565 0.12689 0.34401 0.0
C989 C 0.36775 0.1291 0.33873 0.0
C990 C 0.36292 0.12696 0.32115 0.0
H991 H 0.35808 0.16295 0.27782 0.0
H992 H 0.34735 0.15183 0.29568 0.0
H993 H 0.37077 0.15649 0.29692 0.0
H994 H 0.40402 0.11767 0.30409 0.0
H995 H 0.41251 0.12098 0.33487 0.0
H996 H 0.36694 0.89856 0.65922 0.0
H997 H 0.37328 0.90254 0.69037 0.0
H998 H 0.40323 0.85374 0.69081 0.0
H999 H 0.397 0.84977 0.65932 0.0
H1000 H 0.3599 0.87362 0.71217 0.0
H1001 H 0.43127 0.88928 0.72419 0.0
H1002 H 0.4199 0.89526 0.70408 0.0
H1003 H 0.42638 0.87281 0.70792 0.0
C1004 C 0.37542 0.88899 0.66583 0.0
C1005 C 0.38141 0.8738 0.65703 0.0
C1006 C 0.37904 0.8913 0.68358 0.0
C1007 C 0.38869 0.87845 0.69283 0.0
C1008 C 0.39596 0.86392 0.68377 0.0
H1009 H 0.39831 0.84334 0.79743 0.0
H1010 H 0.40173 0.85116 0.76669 0.0
C1011 C 0.39242 0.86165 0.66585 0.0
C1012 C 0.38812 0.87865 0.7122 0.0
H1013 H 0.41361 0.88227 0.74906 0.0
C1014 C 0.37158 0.87573 0.72028 0.0
C1015 C 0.40341 0.88135 0.72259 0.0
C1016 C 0.42129 0.88497 0.71436 0.0
C1017 C 0.37001 0.87484 0.73857 0.0
C1018 C 0.38534 0.87732 0.74904 0.0
C1019 C 0.40185 0.8806 0.74096 0.0
C1020 C 0.3848 0.87434 0.7682 0.0
C1021 C 0.35214 0.87039 0.74651 0.0
C1022 C 0.37445 0.88507 0.77937 0.0
C1023 C 0.3724 0.88061 0.7971 0.0
C1024 C 0.38059 0.86528 0.80378 0.0
C1025 C 0.39156 0.85508 0.79265 0.0
C1026 C 0.39368 0.85959 0.77509 0.0
H1027 H 0.3424 0.86603 0.73646 0.0
H1028 H 0.35367 0.85981 0.75647 0.0
H1029 H 0.34653 0.88219 0.75317 0.0
H1030 H 0.3676 0.89661 0.77426 0.0
H1031 H 0.36396 0.88876 0.80539 0.0
H1032 H 0.63603 0.9033 0.19748 0.0
H1033 H 0.63304 0.91047 0.22887 0.0
H1034 H 0.64084 0.85572 0.24195 0.0
H1035 H 0.64387 0.84847 0.21108 0.0
H1036 H 0.60637 0.89477 0.25182 0.0
H1037 H 0.67513 0.8817 0.27537 0.0
H1038 H 0.67004 0.88626 0.25262 0.0
H1039 H 0.66675 0.86459 0.26149 0.0
C1040 C 0.63735 0.89286 0.20709 0.0
C1041 C 0.64013 0.87531 0.20173 0.0
C1042 C 0.63563 0.89697 0.22497 0.0
C1043 C 0.63698 0.88364 0.23769 0.0
C1044 C 0.64011 0.86625 0.23237 0.0
H1045 H 0.6235 0.85209 0.34249 0.0
H1046 H 0.63035 0.85729 0.31157 0.0
C1047 C 0.64169 0.86213 0.21464 0.0
C1048 C 0.6337 0.88723 0.25651 0.0
H1049 H 0.65179 0.87988 0.29693 0.0
C1050 C 0.61635 0.89192 0.26177 0.0
C1051 C 0.64677 0.88344 0.26937 0.0
C1052 C 0.66577 0.87887 0.26445 0.0
C1053 C 0.6113 0.89152 0.27953 0.0
C1054 C 0.62417 0.88678 0.29238 0.0
C1055 C 0.64185 0.8833 0.28712 0.0
C1056 C 0.61941 0.88381 0.31109 0.0
C1057 C 0.59199 0.895 0.28415 0.0
C1058 C 0.61086 0.89691 0.32117 0.0
C1059 C 0.6064 0.8937 0.33872 0.0
C1060 C 0.61098 0.87757 0.34661 0.0
C1061 C 0.61978 0.86461 0.33665 0.0
C1062 C 0.62378 0.86762 0.31903 0.0
H1063 H 0.58315 0.89404 0.27249 0.0
H1064 H 0.58726 0.88558 0.29422 0.0
H1065 H 0.59058 0.90852 0.28949 0.0
H1066 H 0.60785 0.90969 0.31557 0.0
H1067 H 0.59995 0.90403 0.34629 0.0
H1068 H 0.64186 0.15581 0.79414 0.0
H1069 H 0.63789 0.14799 0.76345 0.0
H1070 H 0.61724 0.09748 0.77869 0.0
H1071 H 0.62119 0.10533 0.80986 0.0
H1072 H 0.6511 0.11788 0.74356 0.0
H1073 H 0.57686 0.12237 0.74833 0.0
H1074 H 0.59108 0.13179 0.7649 0.0
H1075 H 0.58895 0.10837 0.7634 0.0
C1076 C 0.63669 0.14292 0.79102 0.0
C1077 C 0.63168 0.13123 0.80439 0.0
C1078 C 0.63445 0.13847 0.77347 0.0
C1079 C 0.62703 0.12229 0.76884 0.0
C1080 C 0.6228 0.11013 0.78207 0.0
H1081 H 0.61716 0.10229 0.65615 0.0
H1082 H 0.61288 0.09696 0.68763 0.0
C1083 C 0.62521 0.11455 0.7998 0.0
C1084 C 0.62317 0.119 0.7501 0.0
H1085 H 0.58941 0.12196 0.71999 0.0
C1086 C 0.6376 0.1183 0.7384 0.0
C1087 C 0.60553 0.11975 0.74345 0.0
C1088 C 0.58963 0.12067 0.75558 0.0
C1089 C 0.63492 0.11922 0.72023 0.0
C1090 C 0.61736 0.12096 0.71362 0.0
C1091 C 0.60283 0.12071 0.7252 0.0
C1092 C 0.61438 0.12442 0.69478 0.0
C1093 C 0.6509 0.11929 0.70816 0.0
C1094 C 0.61572 0.1417 0.68842 0.0
C1095 C 0.61812 0.14476 0.67048 0.0
C1096 C 0.61903 0.13056 0.65878 0.0
C1097 C 0.61606 0.11344 0.66497 0.0
C1098 C 0.61369 0.11037 0.6829 0.0
H1099 H 0.6636 0.11669 0.71528 0.0
H1100 H 0.64936 0.10917 0.69778 0.0
H1101 H 0.6518 0.13228 0.70157 0.0
H1102 H 0.61647 0.15265 0.69748 0.0
H1103 H 0.62084 0.15799 0.666 0.0
H1104 H 0.92354 0.82045 0.63306 0.0
H1105 H 0.91637 0.78949 0.63597 0.0
H1106 H 0.86025 0.80253 0.63812 0.0
H1107 H 0.86729 0.83393 0.63517 0.0
H1108 H 0.89431 0.77159 0.66371 0.0
H1109 H 0.8688 0.76754 0.59503 0.0
H1110 H 0.88353 0.78493 0.60173 0.0
H1111 H 0.86085 0.7849 0.60924 0.0
C1112 C 0.90964 0.81687 0.63423 0.0
C1113 C 0.89597 0.82971 0.63375 0.0
C1114 C 0.9056 0.79914 0.63601 0.0
C1115 C 0.88782 0.7938 0.63728 0.0
C1116 C 0.87407 0.80648 0.63716 0.0
H1117 H 0.87641 0.67769 0.64356 0.0
H1118 H 0.87054 0.70868 0.65121 0.0
C1119 C 0.87811 0.82437 0.63545 0.0
C1120 C 0.8841 0.77478 0.63749 0.0
H1121 H 0.87493 0.74106 0.60958 0.0
C1122 C 0.88961 0.76483 0.65209 0.0
C1123 C 0.87811 0.76616 0.62222 0.0
C1124 C 0.87249 0.77632 0.60608 0.0
C1125 C 0.89035 0.74637 0.65138 0.0
C1126 C 0.88539 0.73781 0.6357 0.0
C1127 C 0.87871 0.74774 0.62158 0.0
C1128 C 0.88952 0.71901 0.63253 0.0
C1129 C 0.89767 0.73622 0.66685 0.0
C1130 C 0.90217 0.71466 0.61965 0.0
C1131 C 0.90532 0.69717 0.61512 0.0
C1132 C 0.89598 0.68363 0.62348 0.0
C1133 C 0.88382 0.6879 0.63695 0.0
C1134 C 0.88049 0.70555 0.64135 0.0
H1135 H 0.90215 0.74502 0.67759 0.0
H1136 H 0.88721 0.72745 0.67212 0.0
H1137 H 0.90911 0.72781 0.66265 0.0
H1138 H 0.90937 0.72488 0.61281 0.0
H1139 H 0.91494 0.69426 0.60486 0.0
H1140 H 0.80145 0.38191 0.16273 0.0
H1141 H 0.76919 0.38175 0.15783 0.0
H1142 H 0.77699 0.35229 0.11006 0.0
H1143 H 0.80927 0.35243 0.1147 0.0
H1144 H 0.75203 0.3822 0.108 0.0
H1145 H 0.73836 0.33656 0.16342 0.0
H1146 H 0.75182 0.35535 0.16843 0.0
H1147 H 0.76027 0.33871 0.15382 0.0
C1148 C 0.79635 0.3754 0.15117 0.0
C1149 C 0.80798 0.36707 0.13918 0.0
C1150 C 0.77791 0.37531 0.14842 0.0
C1151 C 0.77077 0.36684 0.1337 0.0
C1152 C 0.7823 0.35886 0.12152 0.0
H1153 H 0.66195 0.3344 0.11466 0.0
H1154 H 0.69447 0.33618 0.11712 0.0
C1155 C 0.80074 0.35893 0.12424 0.0
C1156 C 0.75124 0.366 0.13116 0.0
H1157 H 0.71337 0.34843 0.14846 0.0
C1158 C 0.74354 0.37484 0.11682 0.0
C1159 C 0.74031 0.35622 0.14263 0.0
C1160 C 0.74804 0.34603 0.15789 0.0
C1161 C 0.72507 0.37434 0.11378 0.0
C1162 C 0.71413 0.36478 0.12542 0.0
C1163 C 0.72185 0.35578 0.13962 0.0
C1164 C 0.69456 0.36398 0.12314 0.0
C1165 C 0.71738 0.38384 0.09808 0.0
C1166 C 0.68393 0.37904 0.1258 0.0
C1167 C 0.66537 0.37807 0.12451 0.0
C1168 C 0.65711 0.36202 0.1205 0.0
C1169 C 0.66787 0.34699 0.11768 0.0
C1170 C 0.68643 0.34795 0.1191 0.0
H1171 H 0.72789 0.38766 0.08856 0.0
H1172 H 0.70749 0.37548 0.09125 0.0
H1173 H 0.71036 0.39598 0.10254 0.0
H1174 H 0.68999 0.39147 0.12916 0.0
H1175 H 0.65751 0.38991 0.12676 0.0
H1176 H 0.07819 0.17637 0.6326 0.0
H1177 H 0.08569 0.20734 0.63427 0.0
H1178 H 0.14176 0.1939 0.63453 0.0
H1179 H 0.13437 0.16249 0.63277 0.0
H1180 H 0.10759 0.2265 0.65952 0.0
H1181 H 0.13317 0.22675 0.59074 0.0
H1182 H 0.11929 0.20929 0.59888 0.0
H1183 H 0.14207 0.21071 0.60589 0.0
C1184 C 0.09215 0.17989 0.63309 0.0
C1185 C 0.1057 0.16695 0.63234 0.0
C1186 C 0.09639 0.19763 0.63418 0.0
C1187 C 0.11424 0.20286 0.63445 0.0
C1188 C 0.12789 0.19005 0.63425 0.0
H1189 H 0.12605 0.31866 0.63921 0.0
H1190 H 0.13127 0.28762 0.64664 0.0
C1191 C 0.12364 0.17216 0.63326 0.0
C1192 C 0.1181 0.22185 0.63363 0.0
H1193 H 0.1283 0.25399 0.60422 0.0
C1194 C 0.1125 0.2326 0.64761 0.0
C1195 C 0.12436 0.22961 0.61799 0.0
C1196 C 0.13003 0.2186 0.60243 0.0
C1197 C 0.11195 0.251 0.64595 0.0
C1198 C 0.1174 0.25873 0.62996 0.0
C1199 C 0.12409 0.24798 0.61643 0.0
C1200 C 0.11428 0.2776 0.62605 0.0
C1201 C 0.10442 0.26188 0.66084 0.0
C1202 C 0.10321 0.28223 0.61189 0.0
C1203 C 0.10049 0.29983 0.60743 0.0
C1204 C 0.10865 0.31321 0.61715 0.0
C1205 C 0.11949 0.30861 0.63155 0.0
C1206 C 0.12244 0.29091 0.63586 0.0
H1207 H 0.09791 0.25362 0.67098 0.0
H1208 H 0.11539 0.26918 0.66723 0.0
H1209 H 0.09451 0.27165 0.65588 0.0
H1210 H 0.0967 0.27216 0.60422 0.0
H1211 H 0.09192 0.30295 0.59639 0.0
H1212 H 0.19723 0.61699 0.16714 0.0
H1213 H 0.2297 0.61703 0.16359 0.0
H1214 H 0.22433 0.64939 0.11742 0.0
H1215 H 0.19182 0.64946 0.12072 0.0
H1216 H 0.24919 0.61037 0.12219 0.0
H1217 H 0.26004 0.67034 0.16285 0.0
H1218 H 0.24242 0.65515 0.16806 0.0
H1219 H 0.24064 0.6687 0.1489 0.0
C1220 C 0.20291 0.62415 0.15623 0.0
C1221 C 0.19191 0.63328 0.14424 0.0
C1222 C 0.22143 0.62409 0.15422 0.0
C1223 C 0.22923 0.63321 0.14027 0.0
C1224 C 0.21841 0.64227 0.12824 0.0
H1225 H 0.33629 0.66275 0.11467 0.0
H1226 H 0.30421 0.66069 0.11944 0.0
C1227 C 0.19988 0.6423 0.13018 0.0
C1228 C 0.24876 0.63351 0.13842 0.0
H1229 H 0.28539 0.65696 0.1501 0.0
C1230 C 0.25719 0.62047 0.12831 0.0
C1231 C 0.25893 0.64681 0.14638 0.0
C1232 C 0.25018 0.66111 0.1572 0.0
C1233 C 0.27574 0.6205 0.12577 0.0
C1234 C 0.28601 0.63376 0.13386 0.0
C1235 C 0.27748 0.64676 0.14403 0.0
C1236 C 0.30552 0.63484 0.13132 0.0
C1237 C 0.2841 0.60668 0.11404 0.0
C1238 C 0.31691 0.62108 0.13668 0.0
C1239 C 0.3353 0.62215 0.13387 0.0
C1240 C 0.34261 0.63709 0.12579 0.0
C1241 C 0.33114 0.651 0.1208 0.0
C1242 C 0.31279 0.64988 0.12356 0.0
H1243 H 0.27404 0.60033 0.10549 0.0
H1244 H 0.29462 0.61244 0.10561 0.0
H1245 H 0.29038 0.59629 0.12229 0.0
H1246 H 0.31158 0.60953 0.14305 0.0
H1247 H 0.34376 0.61128 0.13804 0.0
H1248 H 0.81775 0.15659 0.38732 0.0
H1249 H 0.82294 0.18786 0.38215 0.0
H1250 H 0.873 0.1754 0.3569 0.0
H1251 H 0.86798 0.14403 0.3619 0.0
H1252 H 0.87303 0.20219 0.38559 0.0
H1253 H 0.82309 0.21521 0.33322 0.0
H1254 H 0.81561 0.20134 0.35086 0.0
H1255 H 0.83334 0.19384 0.33678 0.0
C1256 C 0.82985 0.16044 0.38062 0.0
C1257 C 0.84246 0.14778 0.37508 0.0
C1258 C 0.83271 0.1783 0.37756 0.0
C1259 C 0.84821 0.18382 0.36892 0.0
C1260 C 0.86088 0.17131 0.36343 0.0
H1261 H 0.8549 0.29911 0.35354 0.0
H1262 H 0.85801 0.26764 0.34626 0.0
C1263 C 0.858 0.15342 0.36639 0.0
C1264 C 0.85156 0.20281 0.36683 0.0
H1265 H 0.83322 0.2402 0.34941 0.0
C1266 C 0.86461 0.2105 0.37741 0.0
C1267 C 0.84083 0.21351 0.35583 0.0
C1268 C 0.82751 0.20561 0.34337 0.0
C1269 C 0.86619 0.22883 0.37838 0.0
C1270 C 0.8542 0.23964 0.36875 0.0
C1271 C 0.84221 0.23189 0.35699 0.0
C1272 C 0.85231 0.25864 0.3726 0.0
C1273 C 0.88022 0.23646 0.39028 0.0
C1274 C 0.84759 0.26388 0.38963 0.0
C1275 C 0.84592 0.28163 0.39381 0.0
C1276 C 0.84866 0.29461 0.38098 0.0
C1277 C 0.85276 0.28939 0.3637 0.0
C1278 C 0.85459 0.27147 0.35954 0.0
H1279 H 0.89182 0.22732 0.39169 0.0
H1280 H 0.88503 0.24928 0.38526 0.0
H1281 H 0.87443 0.23855 0.40353 0.0
H1282 H 0.84519 0.25417 0.39975 0.0
H1283 H 0.84242 0.28517 0.40715 0.0
H1284 H 0.16474 0.40111 0.83581 0.0
H1285 H 0.19669 0.39549 0.83912 0.0
H1286 H 0.18633 0.36105 0.88285 0.0
H1287 H 0.15426 0.36688 0.87991 0.0
H1288 H 0.21382 0.38447 0.88921 0.0
H1289 H 0.22349 0.35083 0.82515 0.0
H1290 H 0.21323 0.37222 0.8235 0.0
H1291 H 0.20167 0.35478 0.83451 0.0
C1292 C 0.1692 0.39221 0.84606 0.0
C1293 C 0.15689 0.38432 0.85751 0.0
C1294 C 0.18749 0.38899 0.84789 0.0
C1295 C 0.19385 0.37762 0.86104 0.0
C1296 C 0.18166 0.3698 0.87257 0.0
H1297 H 0.29826 0.33072 0.87654 0.0
H1298 H 0.26629 0.33691 0.87354 0.0
C1299 C 0.16334 0.37312 0.87083 0.0
C1300 C 0.21324 0.37411 0.8629 0.0
H1301 H 0.2497 0.3578 0.84112 0.0
C1302 C 0.22166 0.37861 0.87872 0.0
C1303 C 0.22341 0.36637 0.8492 0.0
C1304 C 0.21499 0.36061 0.83219 0.0
C1305 C 0.24005 0.37578 0.88109 0.0
C1306 C 0.25019 0.36832 0.86731 0.0
C1307 C 0.24181 0.36366 0.85158 0.0
C1308 C 0.26951 0.36479 0.86916 0.0
C1309 C 0.24859 0.38059 0.89834 0.0
C1310 C 0.28179 0.37846 0.86748 0.0
C1311 C 0.3001 0.37498 0.86903 0.0
C1312 C 0.30636 0.35777 0.8724 0.0
C1313 C 0.29391 0.34412 0.874 0.0
C1314 C 0.27565 0.3476 0.8723 0.0
H1315 H 0.2386 0.38491 0.90827 0.0
H1316 H 0.25622 0.36914 0.90362 0.0
H1317 H 0.25819 0.3914 0.89621 0.0
H1318 H 0.27721 0.39179 0.86496 0.0
H1319 H 0.30931 0.3858 0.8678 0.0
H1320 H 0.18196 0.84031 0.38502 0.0
H1321 H 0.17646 0.80938 0.37834 0.0
H1322 H 0.13247 0.82438 0.34491 0.0
H1323 H 0.13769 0.85541 0.35154 0.0
H1324 H 0.13722 0.79464 0.38368 0.0
H1325 H 0.16901 0.78651 0.31799 0.0
H1326 H 0.17734 0.80215 0.33376 0.0
H1327 H 0.15641 0.80626 0.3231 0.0
C1328 C 0.17119 0.83709 0.37615 0.0
C1329 C 0.16018 0.85034 0.36894 0.0
C1330 C 0.16813 0.81943 0.37231 0.0
C1331 C 0.15417 0.81474 0.36106 0.0
C1332 C 0.1434 0.82785 0.3535 0.0
H1333 H 0.11566 0.70713 0.36741 0.0
H1334 H 0.11515 0.73829 0.35898 0.0
C1335 C 0.14636 0.84554 0.35741 0.0
C1336 C 0.15003 0.79602 0.35851 0.0
H1337 H 0.15724 0.76107 0.33125 0.0
C1338 C 0.14135 0.78726 0.37216 0.0
C1339 C 0.15556 0.78666 0.34345 0.0
C1340 C 0.16514 0.79575 0.32866 0.0
C1341 C 0.13862 0.76908 0.3715 0.0
C1342 C 0.14439 0.75951 0.35651 0.0
C1343 C 0.15264 0.76845 0.3426 0.0
C1344 C 0.14384 0.74004 0.35617 0.0
C1345 C 0.13052 0.76024 0.38733 0.0
C1346 C 0.15993 0.73037 0.35563 0.0
C1347 C 0.16013 0.71247 0.35979 0.0
C1348 C 0.14429 0.70417 0.36474 0.0
C1349 C 0.12802 0.7134 0.36367 0.0
C1350 C 0.12775 0.73117 0.35901 0.0
H1351 H 0.13051 0.76892 0.39907 0.0
H1352 H 0.11645 0.75686 0.38444 0.0
H1353 H 0.13789 0.74793 0.39065 0.0
H1354 H 0.17249 0.73693 0.35337 0.0
H1355 H 0.17283 0.70554 0.36067 0.0
H1356 H 0.84785 0.63223 0.87932 0.0
H1357 H 0.81567 0.63744 0.88197 0.0
H1358 H 0.80628 0.60081 0.83982 0.0
H1359 H 0.83839 0.59593 0.83673 0.0
H1360 H 0.78671 0.63047 0.83599 0.0
H1361 H 0.77932 0.60544 0.90401 0.0
H1362 H 0.79536 0.62269 0.90203 0.0
H1363 H 0.79939 0.60193 0.89131 0.0
C1364 C 0.83893 0.62527 0.87063 0.0
C1365 C 0.84569 0.61365 0.85783 0.0
C1366 C 0.82053 0.62816 0.87225 0.0
C1367 C 0.80855 0.61924 0.86134 0.0
C1368 C 0.81528 0.60778 0.84844 0.0
H1369 H 0.69253 0.61235 0.86904 0.0
H1370 H 0.72442 0.60546 0.86557 0.0
C1371 C 0.83365 0.60503 0.84667 0.0
C1372 C 0.78902 0.62217 0.86295 0.0
H1373 H 0.75402 0.62016 0.89165 0.0
C1374 C 0.77956 0.62812 0.84814 0.0
C1375 C 0.77968 0.61894 0.87878 0.0
C1376 C 0.78891 0.61173 0.89489 0.0
C1377 C 0.7611 0.63129 0.84884 0.0
C1378 C 0.75192 0.62853 0.86475 0.0
C1379 C 0.76122 0.6223 0.87949 0.0
C1380 C 0.7327 0.63261 0.86645 0.0
C1381 C 0.75143 0.63757 0.83261 0.0
C1382 C 0.72695 0.65013 0.86804 0.0
C1383 C 0.70884 0.65411 0.87011 0.0
C1384 C 0.69613 0.64061 0.87052 0.0
C1385 C 0.70196 0.62304 0.86866 0.0
C1386 C 0.72014 0.61907 0.86676 0.0
H1387 H 0.76002 0.63688 0.82073 0.0
H1388 H 0.73933 0.62956 0.83036 0.0
H1389 H 0.747 0.65143 0.8345 0.0
H1390 H 0.73652 0.66072 0.86787 0.0
H1391 H 0.70482 0.66778 0.87146 0.0
H1392 H 0.61057 0.89943 0.79707 0.0
H1393 H 0.61451 0.89354 0.76585 0.0
H1394 H 0.65791 0.85762 0.77753 0.0
H1395 H 0.65367 0.86317 0.80908 0.0
H1396 H 0.64707 0.90157 0.74919 0.0
H1397 H 0.62869 0.83129 0.73971 0.0
H1398 H 0.62127 0.84374 0.7586 0.0
H1399 H 0.6441 0.83656 0.75701 0.0
C1400 C 0.62073 0.89001 0.79302 0.0
C1401 C 0.63191 0.88186 0.80544 0.0
C1402 C 0.62298 0.88666 0.7752 0.0
C1403 C 0.63655 0.87522 0.76939 0.0
C1404 C 0.64723 0.86635 0.78177 0.0
H1405 H 0.65103 0.86174 0.65454 0.0
H1406 H 0.65966 0.86085 0.68573 0.0
C1407 C 0.64481 0.86953 0.79975 0.0
C1408 C 0.64024 0.87412 0.75034 0.0
H1409 H 0.63496 0.84785 0.71443 0.0
C1410 C 0.64475 0.88973 0.74161 0.0
C1411 C 0.63744 0.85861 0.74053 0.0
C1412 C 0.63253 0.84156 0.74933 0.0
C1413 C 0.64533 0.89056 0.72327 0.0
C1414 C 0.64125 0.8754 0.71342 0.0
C1415 C 0.6381 0.85943 0.7221 0.0
C1416 C 0.63719 0.87666 0.6945 0.0
C1417 C 0.64937 0.90788 0.71454 0.0
C1418 C 0.6218 0.88588 0.68925 0.0
C1419 C 0.61679 0.88627 0.67167 0.0
C1420 C 0.62712 0.8775 0.65892 0.0
C1421 C 0.64287 0.86867 0.66409 0.0
C1422 C 0.64777 0.8681 0.68185 0.0
H1423 H 0.65717 0.91658 0.72332 0.0
H1424 H 0.65692 0.90584 0.70214 0.0
H1425 H 0.63663 0.91475 0.71133 0.0
H1426 H 0.61338 0.89244 0.69886 0.0
H1427 H 0.60465 0.89329 0.66811 0.0
H1428 H 0.6242 0.10316 0.2127 0.0
H1429 H 0.62568 0.11293 0.24296 0.0
H1430 H 0.62703 0.16701 0.22596 0.0
H1431 H 0.6256 0.15731 0.19516 0.0
H1432 H 0.65364 0.15619 0.25264 0.0
H1433 H 0.5848 0.1379 0.27082 0.0
H1434 H 0.59599 0.12118 0.25816 0.0
H1435 H 0.59146 0.14234 0.24845 0.0
C1436 C 0.62469 0.11717 0.21525 0.0
C1437 C 0.62463 0.12946 0.20145 0.0
C1438 C 0.62548 0.12272 0.23262 0.0
C1439 C 0.62612 0.14067 0.23667 0.0
C1440 C 0.62637 0.15308 0.22303 0.0
H1441 H 0.61967 0.15013 0.35117 0.0
H1442 H 0.61456 0.15831 0.3205 0.0
C1443 C 0.62557 0.14752 0.20549 0.0
C1444 C 0.62711 0.14591 0.25532 0.0
H1445 H 0.6065 0.13758 0.29426 0.0
C1446 C 0.64318 0.1526 0.26178 0.0
C1447 C 0.61331 0.1416 0.26715 0.0
C1448 C 0.59533 0.13553 0.2608 0.0
C1449 C 0.64641 0.1535 0.27991 0.0
C1450 C 0.63337 0.14716 0.29173 0.0
C1451 C 0.61666 0.14212 0.28523 0.0
C1452 C 0.63738 0.14374 0.3105 0.0
C1453 C 0.66398 0.16068 0.28616 0.0
C1454 C 0.6518 0.13271 0.31507 0.0
C1455 C 0.65481 0.12808 0.33256 0.0
C1456 C 0.64324 0.13411 0.34583 0.0
C1457 C 0.62878 0.14517 0.34125 0.0
C1458 C 0.62589 0.14994 0.32374 0.0
H1459 H 0.66903 0.17084 0.27697 0.0
H1460 H 0.6628 0.16655 0.29946 0.0
H1461 H 0.67404 0.14986 0.2866 0.0
H1462 H 0.6605 0.12724 0.30506 0.0
H1463 H 0.66601 0.11946 0.3356 0.0
H1464 H 0.39139 0.10479 0.66838 0.0
H1465 H 0.38363 0.11003 0.69902 0.0
H1466 H 0.34144 0.14564 0.68312 0.0
H1467 H 0.34909 0.14032 0.6521 0.0
H1468 H 0.38288 0.1497 0.71139 0.0
H1469 H 0.32254 0.10942 0.72442 0.0
H1470 H 0.3388 0.10196 0.7085 0.0
H1471 H 0.32535 0.12105 0.70392 0.0
C1472 C 0.38024 0.1135 0.67135 0.0
C1473 C 0.37096 0.1223 0.65788 0.0
C1474 C 0.37583 0.11646 0.68884 0.0
C1475 C 0.3621 0.12831 0.69324 0.0
C1476 C 0.35207 0.13642 0.67989 0.0
H1477 H 0.34598 0.13896 0.80754 0.0
H1478 H 0.34205 0.14781 0.77669 0.0
C1479 C 0.35641 0.13333 0.66224 0.0
C1480 C 0.35975 0.13313 0.71185 0.0
H1481 H 0.33843 0.1199 0.74903 0.0
C1482 C 0.37285 0.14363 0.71962 0.0
C1483 C 0.34663 0.12521 0.72243 0.0
C1484 C 0.33244 0.11378 0.71451 0.0
C1485 C 0.37398 0.14533 0.73789 0.0
C1486 C 0.36176 0.13622 0.74856 0.0
C1487 C 0.34774 0.12693 0.74075 0.0
C1488 C 0.36525 0.13338 0.76742 0.0
C1489 C 0.38888 0.15596 0.7457 0.0
C1490 C 0.3797 0.12258 0.77232 0.0
C1491 C 0.3818 0.11732 0.78972 0.0
C1492 C 0.36956 0.12292 0.80257 0.0
C1493 C 0.35564 0.13456 0.79787 0.0
C1494 C 0.35335 0.13957 0.78031 0.0
H1495 H 0.39368 0.16608 0.73634 0.0
H1496 H 0.38451 0.16254 0.75801 0.0
H1497 H 0.40027 0.14705 0.74886 0.0
H1498 H 0.3889 0.11752 0.76252 0.0
H1499 H 0.39268 0.10841 0.79302 0.0
H1500 H 0.40856 0.86311 0.20903 0.0
H1501 H 0.4081 0.85426 0.24003 0.0
H1502 H 0.35058 0.85907 0.24015 0.0
H1503 H 0.3511 0.86692 0.20908 0.0
H1504 H 0.39815 0.8755 0.26429 0.0
H1505 H 0.35556 0.81735 0.27082 0.0
H1506 H 0.36431 0.82422 0.24985 0.0
H1507 H 0.34389 0.83377 0.25833 0.0
C1508 C 0.39585 0.86162 0.21564 0.0
C1509 C 0.37985 0.86552 0.20689 0.0
C1510 C 0.39557 0.8566 0.23328 0.0
C1511 C 0.37928 0.85576 0.24242 0.0
C1512 C 0.36326 0.85901 0.23333 0.0
H1513 H 0.33746 0.8796 0.34216 0.0
H1514 H 0.3443 0.87286 0.31147 0.0
C1515 C 0.36354 0.86368 0.21563 0.0
C1516 C 0.37908 0.85457 0.26184 0.0
H1517 H 0.35578 0.8373 0.29617 0.0
C1518 C 0.38924 0.8668 0.27128 0.0
C1519 C 0.3675 0.84321 0.27102 0.0
C1520 C 0.35738 0.82879 0.26193 0.0
C1521 C 0.38718 0.86882 0.28943 0.0
C1522 C 0.37462 0.85838 0.29834 0.0
C1523 C 0.36519 0.84547 0.28916 0.0
C1524 C 0.37032 0.86154 0.31696 0.0
C1525 C 0.39773 0.88276 0.29884 0.0
C1526 C 0.38272 0.85733 0.33008 0.0
C1527 C 0.37891 0.8612 0.34759 0.0
C1528 C 0.36259 0.86934 0.35227 0.0
C1529 C 0.35015 0.8734 0.33903 0.0
C1530 C 0.35398 0.86947 0.32151 0.0
H1531 H 0.40533 0.89118 0.28963 0.0
H1532 H 0.38869 0.89127 0.30679 0.0
H1533 H 0.40735 0.87633 0.30795 0.0
H1534 H 0.39537 0.85114 0.32675 0.0
H1535 H 0.38878 0.85781 0.35744 0.0
H1536 H 0.13167 0.104 0.57879 0.0
H1537 H 0.14263 0.1038 0.54859 0.0
H1538 H 0.08967 0.11647 0.52996 0.0
H1539 H 0.07862 0.11707 0.56013 0.0
H1540 H 0.13356 0.08341 0.52116 0.0
H1541 H 0.11924 0.1529 0.50481 0.0
H1542 H 0.11894 0.14482 0.5271 0.0
H1543 H 0.09969 0.1424 0.51317 0.0
C1544 C 0.12232 0.10679 0.56829 0.0
C1545 C 0.10424 0.11064 0.57192 0.0
C1546 C 0.12865 0.10671 0.55103 0.0
C1547 C 0.11708 0.11052 0.53705 0.0
C1548 C 0.09897 0.11401 0.54059 0.0
H1549 H 0.10046 0.08128 0.43623 0.0
H1550 H 0.10926 0.08224 0.46696 0.0
C1551 C 0.09263 0.11419 0.55784 0.0
C1552 C 0.1236 0.11003 0.51867 0.0
H1553 H 0.12131 0.13277 0.48013 0.0
C1554 C 0.13125 0.09434 0.51226 0.0
C1555 C 0.12116 0.12445 0.50713 0.0
C1556 C 0.1145 0.14215 0.51346 0.0
C1557 C 0.13491 0.09216 0.49432 0.0
C1558 C 0.13052 0.1059 0.48252 0.0
C1559 C 0.12449 0.12214 0.48915 0.0
C1560 C 0.12877 0.10275 0.46343 0.0
C1561 C 0.14273 0.07492 0.48803 0.0
C1562 C 0.13711 0.1137 0.45109 0.0
C1563 C 0.13217 0.11303 0.43335 0.0
C1564 C 0.11853 0.10171 0.42794 0.0
C1565 C 0.11104 0.09008 0.44012 0.0
C1566 C 0.11616 0.09054 0.45766 0.0
H1567 H 0.15126 0.06875 0.49831 0.0
H1568 H 0.13174 0.06571 0.48508 0.0
H1569 H 0.15081 0.0767 0.47594 0.0
H1570 H 0.14673 0.12335 0.45532 0.0
H1571 H 0.13797 0.12226 0.4242 0.0
H1572 H 0.41504 0.58617 0.92476 0.0
H1573 H 0.41804 0.59128 0.95604 0.0
H1574 H 0.40047 0.6451 0.9492 0.0
H1575 H 0.39728 0.64 0.91738 0.0
H1576 H 0.4375 0.61707 0.97602 0.0
H1577 H 0.36346 0.62181 0.98325 0.0
H1578 H 0.37369 0.61348 0.96341 0.0
H1579 H 0.37443 0.63654 0.96832 0.0
C1580 C 0.41197 0.59918 0.92981 0.0
C1581 C 0.40563 0.61262 0.9187 0.0
C1582 C 0.4138 0.60209 0.94768 0.0
C1583 C 0.40925 0.61845 0.95489 0.0
C1584 C 0.40385 0.63231 0.9438 0.0
H1585 H 0.41642 0.64533 0.06242 0.0
H1586 H 0.41935 0.64233 0.03107 0.0
C1587 C 0.40213 0.62943 0.9257 0.0
C1588 C 0.40895 0.62 0.97416 0.0
H1589 H 0.38041 0.61919 0.00907 0.0
C1590 C 0.42506 0.61772 0.98329 0.0
C1591 C 0.39264 0.62064 0.98349 0.0
C1592 C 0.375 0.62318 0.97422 0.0
C1593 C 0.42526 0.61578 0.00158 0.0
C1594 C 0.40892 0.6159 0.01083 0.0
C1595 C 0.39284 0.61851 0.00176 0.0
C1596 C 0.40847 0.61616 0.03013 0.0
C1597 C 0.44288 0.61347 0.01093 0.0
C1598 C 0.40134 0.60226 0.04006 0.0
C1599 C 0.39944 0.60396 0.05836 0.0
C1600 C 0.4044 0.61969 0.0666 0.0
C1601 C 0.41217 0.63311 0.05649 0.0
C1602 C 0.41404 0.63142 0.03853 0.0
H1603 H 0.45406 0.61089 0.00165 0.0
H1604 H 0.44593 0.62563 0.01837 0.0
H1605 H 0.44215 0.60246 0.02047 0.0
H1606 H 0.39692 0.59038 0.03362 0.0
H1607 H 0.39344 0.59344 0.06584 0.0
H1608 H 0.888 0.92197 0.43243 0.0
H1609 H 0.88278 0.91965 0.46406 0.0
H1610 H 0.86474 0.86642 0.45727 0.0
H1611 H 0.86958 0.86888 0.42547 0.0
H1612 H 0.8497 0.89711 0.48921 0.0
H1613 H 0.92063 0.87515 0.48189 0.0
H1614 H 0.9117 0.89177 0.46735 0.0
H1615 H 0.90399 0.8696 0.46577 0.0
C1616 C 0.88198 0.91015 0.43761 0.0
C1617 C 0.87902 0.89565 0.42665 0.0
C1618 C 0.87903 0.90882 0.45564 0.0
C1619 C 0.87343 0.89286 0.46293 0.0
C1620 C 0.86885 0.8789 0.45181 0.0
H1621 H 0.91096 0.86013 0.56611 0.0
H1622 H 0.90088 0.86043 0.53556 0.0
C1623 C 0.87156 0.88033 0.43368 0.0
C1624 C 0.87643 0.88969 0.48182 0.0
H1625 H 0.90991 0.8794 0.51038 0.0
C1626 C 0.86276 0.89306 0.49394 0.0
C1627 C 0.89343 0.88418 0.4878 0.0
C1628 C 0.90836 0.87989 0.47512 0.0
C1629 C 0.86581 0.89134 0.5121 0.0
C1630 C 0.88318 0.88675 0.51818 0.0
C1631 C 0.89664 0.88297 0.50586 0.0
C1632 C 0.88801 0.88609 0.53715 0.0
C1633 C 0.8503 0.8942 0.52445 0.0
C1634 C 0.88426 0.90039 0.54831 0.0
C1635 C 0.8896 0.89998 0.5659 0.0
C1636 C 0.89943 0.88558 0.57247 0.0
C1637 C 0.90356 0.87146 0.56128 0.0
C1638 C 0.89772 0.87162 0.54385 0.0
H1639 H 0.83742 0.89113 0.51796 0.0
H1640 H 0.8516 0.88597 0.53642 0.0
H1641 H 0.84974 0.90825 0.52839 0.0
H1642 H 0.87746 0.91202 0.5434 0.0
H1643 H 0.88636 0.91108 0.57428 0.0
H1644 H 0.57401 0.37356 0.92086 0.0
H1645 H 0.57129 0.37063 0.95291 0.0
H1646 H 0.62853 0.37336 0.95788 0.0
H1647 H 0.63124 0.37653 0.926 0.0
H1648 H 0.59171 0.34799 0.98199 0.0
H1649 H 0.60396 0.42013 0.9798 0.0
H1650 H 0.59609 0.40805 0.96097 0.0
H1651 H 0.619 0.40613 0.9676 0.0
C1652 C 0.58599 0.37272 0.92879 0.0
C1653 C 0.60282 0.37519 0.92117 0.0
C1654 C 0.58444 0.37115 0.94703 0.0
C1655 C 0.59971 0.37203 0.95765 0.0
C1656 C 0.61663 0.37274 0.94984 0.0
H1657 H 0.62241 0.39004 0.06682 0.0
H1658 H 0.62225 0.39046 0.03459 0.0
C1659 C 0.61816 0.37446 0.93169 0.0
C1660 C 0.59796 0.37501 0.97669 0.0
H1661 H 0.6017 0.40709 0.00781 0.0
C1662 C 0.59376 0.36089 0.98768 0.0
C1663 C 0.60077 0.39188 0.98395 0.0
C1664 C 0.60511 0.4075 0.97253 0.0
C1665 C 0.59262 0.36316 0.00594 0.0
C1666 C 0.59532 0.3801 0.01321 0.0
C1667 C 0.59949 0.3942 0.00216 0.0
C1668 C 0.59448 0.38319 0.03235 0.0
C1669 C 0.58909 0.34733 0.01734 0.0
C1670 C 0.57866 0.38006 0.04163 0.0
C1671 C 0.57874 0.3799 0.05995 0.0
C1672 C 0.59455 0.38323 0.06916 0.0
C1673 C 0.60998 0.38788 0.05991 0.0
C1674 C 0.60993 0.38792 0.04156 0.0
H1675 H 0.5915 0.33479 0.01017 0.0
H1676 H 0.59766 0.34745 0.02922 0.0
H1677 H 0.57494 0.34762 0.02165 0.0
H1678 H 0.56653 0.37672 0.03472 0.0
H1679 H 0.56681 0.37596 0.06689 0.0
H1680 H 0.10071 0.93435 0.57304 0.0
H1681 H 0.09086 0.93015 0.54231 0.0
H1682 H 0.14034 0.90298 0.53077 0.0
H1683 H 0.15018 0.90709 0.56056 0.0
H1684 H 0.11601 0.94161 0.51105 0.0
H1685 H 0.09844 0.87083 0.5119 0.0
H1686 H 0.09625 0.88487 0.531 0.0
H1687 H 0.11781 0.87665 0.52444 0.0
C1688 C 0.10933 0.92742 0.56388 0.0
C1689 C 0.12625 0.92127 0.56913 0.0
C1690 C 0.10371 0.92499 0.54648 0.0
C1691 C 0.11484 0.91604 0.53451 0.0
C1692 C 0.13149 0.90967 0.53992 0.0
H1693 H 0.15472 0.88711 0.44044 0.0
H1694 H 0.14141 0.88962 0.46944 0.0
C1695 C 0.13713 0.91224 0.55697 0.0
C1696 C 0.11041 0.91436 0.51581 0.0
H1697 H 0.10815 0.88272 0.48424 0.0
C1698 C 0.11351 0.92893 0.50504 0.0
C1699 C 0.10773 0.89764 0.50825 0.0
C1700 C 0.10475 0.88159 0.51948 0.0
C1701 C 0.11549 0.92696 0.48685 0.0
C1702 C 0.11368 0.91005 0.4793 0.0
C1703 C 0.10926 0.8957 0.49002 0.0
C1704 C 0.11955 0.9065 0.46111 0.0
C1705 C 0.12123 0.94263 0.47613 0.0
C1706 C 0.11128 0.91466 0.44666 0.0
C1707 C 0.11895 0.91332 0.42994 0.0
C1708 C 0.135 0.90385 0.42755 0.0
C1709 C 0.14252 0.89478 0.44189 0.0
C1710 C 0.13485 0.89607 0.45848 0.0
H1711 H 0.1246 0.95412 0.48447 0.0
H1712 H 0.13308 0.93919 0.468 0.0
H1713 H 0.11026 0.94662 0.46716 0.0
H1714 H 0.0993 0.92257 0.44844 0.0
H1715 H 0.1128 0.92034 0.41911 0.0
H1716 H 0.66999 0.6425 0.93621 0.0
H1717 H 0.6694 0.64049 0.96822 0.0
H1718 H 0.61532 0.62159 0.966 0.0
H1719 H 0.61625 0.62282 0.93384 0.0
H1720 H 0.64802 0.6601 0.988 0.0
H1721 H 0.63596 0.58974 0.00281 0.0
H1722 H 0.64267 0.59715 0.98133 0.0
H1723 H 0.61972 0.59907 0.98814 0.0
C1724 C 0.65823 0.63732 0.94259 0.0
C1725 C 0.64322 0.63264 0.93271 0.0
C1726 C 0.65784 0.63631 0.96084 0.0
C1727 C 0.64233 0.6309 0.96953 0.0
C1728 C 0.62756 0.62545 0.95959 0.0
H1729 H 0.61199 0.6415 0.07958 0.0
H1730 H 0.61243 0.64578 0.04753 0.0
C1731 C 0.62809 0.62613 0.94125 0.0
C1732 C 0.64116 0.63259 0.98886 0.0
H1733 H 0.63286 0.60986 0.02655 0.0
C1734 C 0.64473 0.64909 0.99642 0.0
C1735 C 0.63687 0.61823 -0.00017 0.0
C1736 C 0.63376 0.60002 0.99264 0.0
C1737 C 0.6442 0.65154 0.01465 0.0
C1738 C 0.63979 0.63724 0.02548 0.0
C1739 C 0.63603 0.62083 0.01802 0.0
C1740 C 0.64029 0.6385 0.04473 0.0
C1741 C 0.64863 0.66924 0.02235 0.0
C1742 C 0.65593 0.63354 0.05357 0.0
C1743 C 0.65564 0.63093 0.07167 0.0
C1744 C 0.63976 0.63349 0.08111 0.0
C1745 C 0.62441 0.63972 0.07248 0.0
C1746 C 0.62464 0.6421 0.05427 0.0
H1747 H 0.65104 0.67931 0.01207 0.0
H1748 H 0.63755 0.67383 0.03095 0.0
H1749 H 0.66077 0.66798 0.03064 0.0
H1750 H 0.66807 0.63064 0.04633 0.0
H1751 H 0.66756 0.62601 0.07816 0.0
H1752 H 0.88292 0.10314 0.42472 0.0
H1753 H 0.89116 0.10465 0.456 0.0
H1754 H 0.84907 0.06843 0.46847 0.0
H1755 H 0.84081 0.06707 0.43759 0.0
H1756 H 0.86665 0.11755 0.48045 0.0
H1757 H 0.88932 0.05118 0.50031 0.0
H1758 H 0.88955 0.05845 0.47772 0.0
H1759 H 0.86938 0.05009 0.48736 0.0
C1760 C 0.87596 0.09501 0.43413 0.0
C1761 C 0.86131 0.08493 0.42886 0.0
C1762 C 0.88058 0.09594 0.45195 0.0
C1763 C 0.87084 0.0865 0.46454 0.0
C1764 C 0.85702 0.07552 0.45899 0.0
H1765 H 0.82519 0.10839 0.56282 0.0
H1766 H 0.83487 0.10649 0.53224 0.0
C1767 C 0.85226 0.07481 0.44135 0.0
C1768 C 0.87287 0.08997 0.48357 0.0
H1769 H 0.87422 0.06854 0.5229 0.0
C1770 C 0.86878 0.10694 0.48977 0.0
C1771 C 0.87585 0.0762 0.49574 0.0
C1772 C 0.88146 0.058 0.48993 0.0
C1773 C 0.86616 0.11017 0.50773 0.0
C1774 C 0.86736 0.09599 0.51971 0.0
C1775 C 0.87292 0.07935 0.51367 0.0
C1776 C 0.86181 0.09782 0.53832 0.0
C1777 C 0.86167 0.12865 0.51361 0.0
C1778 C 0.87356 0.09312 0.55188 0.0
C1779 C 0.86799 0.09397 0.56937 0.0
C1780 C 0.85052 0.09952 0.57365 0.0
C1781 C 0.83877 0.10422 0.56002 0.0
C1782 C 0.84433 0.10327 0.54252 0.0
H1783 H 0.86711 0.13855 0.50436 0.0
H1784 H 0.84695 0.1304 0.51393 0.0
H1785 H 0.86698 0.13132 0.52694 0.0
H1786 H 0.88705 0.08875 0.54894 0.0
H1787 H 0.87743 0.09029 0.57952 0.0
H1788 H 0.39157 0.37288 0.9322 0.0
H1789 H 0.39231 0.37181 0.96443 0.0
H1790 H 0.33491 0.3678 0.96552 0.0
H1791 H 0.33425 0.3684 0.9334 0.0
H1792 H 0.37605 0.38987 0.9927 0.0
H1793 H 0.35222 0.32124 0.9873 0.0
H1794 H 0.35995 0.3336 0.96861 0.0
H1795 H 0.33769 0.33702 0.97692 0.0
C1796 C 0.37911 0.37254 0.93942 0.0
C1797 C 0.36284 0.37088 0.93051 0.0
C1798 C 0.37954 0.37172 0.95776 0.0
C1799 C 0.3637 0.36918 0.96725 0.0
C1800 C 0.3473 0.36932 0.95837 0.0
H1801 H 0.33074 0.36804 0.07223 0.0
H1802 H 0.33348 0.36355 0.04054 0.0
C1803 C 0.3469 0.36995 0.94009 0.0
C1804 C 0.36434 0.36499 0.98618 0.0
H1805 H 0.3524 0.33373 0.01612 0.0
C1806 C 0.3711 0.37752 0.99782 0.0
C1807 C 0.35809 0.34872 0.99275 0.0
C1808 C 0.35175 0.33429 0.98074 0.0
C1809 C 0.37095 0.37458 0.01598 0.0
C1810 C 0.36399 0.35866 0.02256 0.0
C1811 C 0.35776 0.34587 0.01094 0.0
C1812 C 0.36142 0.35617 0.04155 0.0
C1813 C 0.37759 0.38874 0.02815 0.0
C1814 C 0.37598 0.35239 0.05255 0.0
C1815 C 0.37434 0.35462 0.07071 0.0
C1816 C 0.3582 0.36089 0.07783 0.0
C1817 C 0.34326 0.36308 0.06694 0.0
C1818 C 0.34482 0.36057 0.04889 0.0
H1819 H 0.38155 0.40081 0.02097 0.0
H1820 H 0.36706 0.39231 0.03782 0.0
H1821 H 0.38931 0.38371 0.03559 0.0
H1822 H 0.38889 0.34903 0.047 0.0
H1823 H 0.38607 0.35312 0.07891 0.0
H1824 H 0.56871 0.13855 0.12451 0.0
H1825 H 0.53666 0.14399 0.12109 0.0
H1826 H 0.52569 0.10258 0.15818 0.0
H1827 H 0.55759 0.09661 0.16116 0.0
H1828 H 0.50397 0.10054 0.13124 0.0
H1829 H 0.50459 0.16958 0.15467 0.0
H1830 H 0.51872 0.16593 0.13598 0.0
H1831 H 0.52377 0.15516 0.15646 0.0
C1832 C 0.55947 0.13062 0.13195 0.0
C1833 C 0.56571 0.11719 0.14317 0.0
C1834 C 0.54115 0.13382 0.13006 0.0
C1835 C 0.52877 0.12393 0.13964 0.0
C1836 C 0.53499 0.11042 0.15069 0.0
H1837 H 0.42031 0.15234 0.16444 0.0
H1838 H 0.4526 0.14777 0.16282 0.0
C1839 C 0.55325 0.10703 0.15239 0.0
C1840 C 0.5093 0.12744 0.13814 0.0
H1841 H 0.47727 0.1593 0.14321 0.0
C1842 C 0.4981 0.11338 0.13388 0.0
C1843 C 0.50166 0.14415 0.14179 0.0
C1844 C 0.51277 0.15952 0.14766 0.0
C1845 C 0.47946 0.11545 0.13348 0.0
C1846 C 0.47182 0.13229 0.13668 0.0
C1847 C 0.48308 0.14642 0.14062 0.0
C1848 C 0.45219 0.13537 0.1372 0.0
C1849 C 0.46826 0.09934 0.1304 0.0
C1850 C 0.44113 0.13019 0.12326 0.0
C1851 C 0.4226 0.13229 0.12445 0.0
C1852 C 0.4149 0.14029 0.13927 0.0
C1853 C 0.42597 0.14622 0.15283 0.0
C1854 C 0.44442 0.14361 0.15189 0.0
H1855 H 0.47577 0.08703 0.13348 0.0
H1856 H 0.45594 0.09967 0.13849 0.0
H1857 H 0.4644 0.09877 0.11636 0.0
H1858 H 0.4468 0.12441 0.1115 0.0
H1859 H 0.41428 0.12781 0.11375 0.0
H1860 H 0.3849 0.91646 0.5881 0.0
H1861 H 0.39103 0.94787 0.58607 0.0
H1862 H 0.33821 0.9599 0.60546 0.0
H1863 H 0.33195 0.92846 0.60779 0.0
H1864 H 0.37389 0.97584 0.5682 0.0
H1865 H 0.3714 0.98437 0.64063 0.0
H1866 H 0.37252 0.96299 0.63035 0.0
H1867 H 0.35174 0.97501 0.63111 0.0
C1868 C 0.37448 0.92575 0.59178 0.0
C1869 C 0.35799 0.91991 0.59832 0.0
C1870 C 0.37803 0.94371 0.5906 0.0
C1871 C 0.3652 0.95617 0.59593 0.0
C1872 C 0.34842 0.95045 0.60163 0.0
H1873 H 0.36457 0.06942 0.58574 0.0
H1874 H 0.35881 0.03797 0.58319 0.0
C1875 C 0.34485 0.93248 0.60287 0.0
C1876 C 0.3697 0.97508 0.59615 0.0
H1877 H 0.37508 0.01013 0.6236 0.0
C1878 C 0.37414 0.98337 0.58029 0.0
C1879 C 0.37027 0.98475 0.61201 0.0
C1880 C 0.36639 0.97634 0.62953 0.0
C1881 C 0.37883 0.0012 0.57985 0.0
C1882 C 0.37904 0.01091 0.59565 0.0
C1883 C 0.37484 0.00259 0.61152 0.0
C1884 C 0.38328 0.02985 0.59601 0.0
C1885 C 0.38377 0.00954 0.56258 0.0
C1886 C 0.39897 0.03564 0.60409 0.0
C1887 C 0.40236 0.05364 0.60558 0.0
C1888 C 0.38999 0.06615 0.59917 0.0
C1889 C 0.37441 0.0602 0.59082 0.0
C1890 C 0.3711 0.04222 0.58927 0.0
H1891 H 0.38561 -0.00039 0.55201 0.0
H1892 H 0.37303 0.01886 0.55853 0.0
H1893 H 0.39627 0.01714 0.56397 0.0
H1894 H 0.40848 0.02623 0.60943 0.0
H1895 H 0.41448 0.05773 0.61208 0.0
H1896 H 0.44183 0.90866 0.14841 0.0
H1897 H 0.47355 0.90243 0.1444 0.0
H1898 H 0.46224 0.84738 0.13705 0.0
H1899 H 0.43028 0.85361 0.14059 0.0
H1900 H 0.49338 0.88194 0.16558 0.0
H1901 H 0.49718 0.856 0.09754 0.0
H1902 H 0.47767 0.8674 0.10587 0.0
H1903 H 0.48167 0.84469 0.11138 0.0
C1904 C 0.44603 0.89525 0.1457 0.0
C1905 C 0.43352 0.88162 0.14489 0.0
C1906 C 0.46418 0.89171 0.14339 0.0
C1907 C 0.47028 0.87447 0.14029 0.0
C1908 C 0.45782 0.86085 0.13905 0.0
H1909 H 0.57883 0.83184 0.14606 0.0
H1910 H 0.54629 0.83505 0.14411 0.0
C1911 C 0.43956 0.86442 0.14118 0.0
C1912 C 0.48977 0.87075 0.13986 0.0
H1913 H 0.52367 0.8539 0.11468 0.0
C1914 C 0.49997 0.87586 0.15441 0.0
C1915 C 0.49836 0.86271 0.12532 0.0
C1916 C 0.48821 0.85751 0.10907 0.0
C1917 C 0.51851 0.87326 0.1548 0.0
C1918 C 0.52709 0.86537 0.14025 0.0
C1919 C 0.51695 0.85995 0.1258 0.0
C1920 C 0.5467 0.86316 0.13983 0.0
C1921 C 0.52885 0.87895 0.17078 0.0
C1922 C 0.55759 0.87788 0.13776 0.0
C1923 C 0.57613 0.87613 0.13883 0.0
C1924 C 0.58412 0.8596 0.1421 0.0
C1925 C 0.57312 0.84478 0.14368 0.0
C1926 C 0.55455 0.84655 0.14249 0.0
H1927 H 0.51996 0.88206 0.18206 0.0
H1928 H 0.5385 0.8685 0.17481 0.0
H1929 H 0.53658 0.8909 0.16755 0.0
H1930 H 0.5517 0.8908 0.13565 0.0
H1931 H 0.58416 0.88783 0.1375 0.0
H1932 H 0.61929 0.08168 0.58586 0.0
H1933 H 0.61246 0.05044 0.58285 0.0
H1934 H 0.65636 0.03714 0.61711 0.0
H1935 H 0.66337 0.06833 0.62025 0.0
H1936 H 0.63596 0.02073 0.57177 0.0
H1937 H 0.61006 0.01581 0.64001 0.0
H1938 H 0.61246 0.03659 0.62879 0.0
H1939 H 0.63173 0.0255 0.63764 0.0
C1940 C 0.62758 0.07213 0.5927 0.0
C1941 C 0.64179 0.07753 0.60344 0.0
C1942 C 0.62367 0.05429 0.59091 0.0
C1943 C 0.63379 0.04159 0.59992 0.0
C1944 C 0.6483 0.04683 0.61021 0.0
H1945 H 0.63781 0.92864 0.59146 0.0
H1946 H 0.64324 0.96013 0.58955 0.0
C1947 C 0.6523 0.06465 0.61194 0.0
C1948 C 0.62879 0.02287 0.59904 0.0
H1949 H 0.61268 0.98929 0.62392 0.0
C1950 C 0.63081 0.01382 0.58312 0.0
C1951 C 0.62183 0.01406 0.61383 0.0
C1952 C 0.61872 0.02346 0.63103 0.0
C1953 C 0.62643 0.99596 0.58171 0.0
C1954 C 0.62003 0.98697 0.59668 0.0
C1955 C 0.61763 0.99619 0.61248 0.0
C1956 C 0.61627 0.96788 0.5965 0.0
C1957 C 0.62857 0.98693 0.56418 0.0
C1958 C 0.59934 0.96174 0.60128 0.0
C1959 C 0.5962 0.94368 0.60258 0.0
C1960 C 0.60998 0.93143 0.59919 0.0
C1961 C 0.62684 0.93766 0.59408 0.0
C1962 C 0.62996 0.9557 0.59285 0.0
H1963 H 0.62842 0.99655 0.5532 0.0
H1964 H 0.64159 0.97984 0.56387 0.0
H1965 H 0.61783 0.97721 0.562 0.0
H1966 H 0.58861 0.97095 0.60424 0.0
H1967 H 0.58307 0.93935 0.60653 0.0
H1968 H 0.4241 0.88051 0.87317 0.0
H1969 H 0.45557 0.88827 0.87508 0.0
H1970 H 0.47068 0.83498 0.86188 0.0
H1971 H 0.43922 0.82709 0.85963 0.0
H1972 H 0.48373 0.87526 0.89536 0.0
H1973 H 0.49573 0.8641 0.82424 0.0
H1974 H 0.47359 0.86531 0.83355 0.0
H1975 H 0.48674 0.84548 0.83558 0.0
C1976 C 0.43408 0.87036 0.8708 0.0
C1977 C 0.42911 0.8532 0.86605 0.0
C1978 C 0.45207 0.87485 0.8719 0.0
C1979 C 0.46541 0.86229 0.86828 0.0
C1980 C 0.46055 0.84496 0.86434 0.0
H1981 H 0.58066 0.86508 0.87283 0.0
H1982 H 0.5492 0.85716 0.87518 0.0
C1983 C 0.44256 0.84046 0.86316 0.0
C1984 C 0.4844 0.86748 0.86817 0.0
H1985 H 0.52108 0.87034 0.84172 0.0
C1986 C 0.49189 0.87421 0.88364 0.0
C1987 C 0.49494 0.86627 0.85278 0.0
C1988 C 0.48734 0.86006 0.83554 0.0
C1989 C 0.50979 0.87946 0.88418 0.0
C1990 C 0.52033 0.87793 0.8689 0.0
C1991 C 0.51287 0.87135 0.85342 0.0
C1992 C 0.53923 0.88314 0.86869 0.0
C1993 C 0.51746 0.88659 0.90099 0.0
C1994 C 0.54388 0.90041 0.86436 0.0
C1995 C 0.56184 0.90502 0.86295 0.0
C1996 C 0.57542 0.89239 0.86583 0.0
C1997 C 0.57059 0.87516 0.87055 0.0
C1998 C 0.55264 0.87058 0.8719 0.0
H1999 H 0.50755 0.88674 0.91185 0.0
H2000 H 0.52917 0.87846 0.90502 0.0
H2001 H 0.52221 0.9002 0.89881 0.0
H2002 H 0.53361 0.91023 0.8618 0.0
H2003 H 0.56506 0.9184 0.85934 0.0
H2004 H 0.59905 0.92724 0.42912 0.0
H2005 H 0.60295 0.9591 0.42822 0.0
H2006 H 0.64996 0.95221 0.39616 0.0
H2007 H 0.64619 0.92012 0.3971 0.0
H2008 H 0.63354 0.98261 0.43568 0.0
H2009 H 0.61153 0.98042 0.36591 0.0
H2010 H 0.60818 0.96231 0.38086 0.0
H2011 H 0.62996 0.9663 0.37202 0.0
C2012 C 0.6105 0.9325 0.42226 0.0
C2013 C 0.62224 0.9213 0.41304 0.0
C2014 C 0.61269 0.95067 0.42176 0.0
C2015 C 0.62653 0.95792 0.41188 0.0
C2016 C 0.63909 0.94676 0.40372 0.0
H2017 H 0.65059 0.06222 0.37868 0.0
H2018 H 0.64612 0.0307 0.38155 0.0
C2019 C 0.63702 0.92849 0.40438 0.0
C2020 C 0.62664 0.97711 0.40887 0.0
H2021 H 0.61794 0.0083 0.37772 0.0
C2022 C 0.63017 0.98829 0.42303 0.0
C2023 C 0.62202 0.98434 0.39237 0.0
C2024 C 0.61757 0.97279 0.37689 0.0
C2025 C 0.62963 0.00665 0.42102 0.0
C2026 C 0.62494 0.01392 0.40452 0.0
C2027 C 0.62131 0.00268 0.39039 0.0
C2028 C 0.62544 0.03311 0.40126 0.0
C2029 C 0.63465 0.01807 0.43642 0.0
C2030 C 0.61464 0.04498 0.41077 0.0
C2031 C 0.61718 0.06317 0.40916 0.0
C2032 C 0.63058 0.06959 0.39804 0.0
C2033 C 0.64036 0.05765 0.38759 0.0
C2034 C 0.63779 0.03962 0.38916 0.0
H2035 H 0.64157 0.01042 0.44687 0.0
H2036 H 0.64347 0.02893 0.43218 0.0
H2037 H 0.62237 0.02399 0.44217 0.0
H2038 H 0.60472 0.04018 0.41988 0.0
H2039 H 0.60941 0.07207 0.41731 0.0
H2040 H 0.43251 0.08787 0.87849 0.0
H2041 H 0.46377 0.09655 0.88217 0.0
H2042 H 0.45433 0.14161 0.84875 0.0
H2043 H 0.4229 0.13361 0.84619 0.0
H2044 H 0.48855 0.09813 0.85909 0.0
H2045 H 0.48119 0.16531 0.88607 0.0
H2046 H 0.46257 0.15056 0.88451 0.0
H2047 H 0.46942 0.1633 0.86575 0.0
C2048 C 0.43715 0.0998 0.87226 0.0
C2049 C 0.42544 0.11023 0.86224 0.0
C2050 C 0.45495 0.10475 0.87432 0.0
C2051 C 0.46139 0.11997 0.86606 0.0
C2052 C 0.44961 0.13024 0.85585 0.0
H2053 H 0.56401 0.16401 0.84233 0.0
H2054 H 0.5324 0.15669 0.84506 0.0
C2055 C 0.4317 0.12558 0.85424 0.0
C2056 C 0.48066 0.12433 0.86694 0.0
H2057 H 0.50977 0.15795 0.87366 0.0
C2058 C 0.49318 0.11115 0.86252 0.0
C2059 C 0.48676 0.14134 0.87139 0.0
C2060 C 0.47426 0.15585 0.87737 0.0
C2061 C 0.51152 0.11464 0.86184 0.0
C2062 C 0.51753 0.13176 0.8658 0.0
C2063 C 0.50509 0.14487 0.87051 0.0
C2064 C 0.53662 0.13647 0.86468 0.0
C2065 C 0.52419 0.10007 0.85632 0.0
C2066 C 0.54941 0.12777 0.87506 0.0
C2067 C 0.56748 0.13177 0.87339 0.0
C2068 C 0.57305 0.14479 0.86153 0.0
C2069 C 0.56014 0.15392 0.85159 0.0
C2070 C 0.54209 0.14975 0.85312 0.0
H2071 H 0.51714 0.08924 0.84953 0.0
H2072 H 0.53475 0.10512 0.84748 0.0
H2073 H 0.53074 0.09444 0.86815 0.0
H2074 H 0.54543 0.11781 0.88441 0.0
H2075 H 0.57708 0.12467 0.88142 0.0
H2076 H 0.37408 0.92969 0.43806 0.0
H2077 H 0.3763 0.96188 0.43684 0.0
H2078 H 0.3852 0.95905 0.38097 0.0
H2079 H 0.38272 0.92692 0.38218 0.0
H2080 H 0.40102 0.9873 0.42333 0.0
H2081 H 0.33709 0.98576 0.38634 0.0
H2082 H 0.34608 0.96672 0.39757 0.0
H2083 H 0.35504 0.97322 0.3767 0.0
C2084 C 0.3773 0.93595 0.4257 0.0
C2085 C 0.37848 0.92599 0.41025 0.0
C2086 C 0.3784 0.95429 0.42497 0.0
C2087 C 0.3805 0.96278 0.40876 0.0
C2088 C 0.38329 0.9527 0.39356 0.0
H2089 H 0.38437 0.06958 0.37498 0.0
H2090 H 0.38144 0.0376 0.37708 0.0
C2091 C 0.38213 0.9344 0.39428 0.0
C2092 C 0.37791 0.98205 0.4075 0.0
H2093 H 0.3504 0.01369 0.39004 0.0
C2094 C 0.38991 0.99308 0.41615 0.0
C2095 C 0.36329 0.9895 0.3982 0.0
C2096 C 0.34952 0.97822 0.38929 0.0
C2097 C 0.38794 0.01144 0.41537 0.0
C2098 C 0.37345 0.01885 0.40595 0.0
C2099 C 0.36137 0.00786 0.39739 0.0
C2100 C 0.37161 0.03805 0.40376 0.0
C2101 C 0.40159 0.02289 0.42422 0.0
C2102 C 0.36616 0.04881 0.41781 0.0
C2103 C 0.36753 0.06713 0.41652 0.0
C2104 C 0.37457 0.07468 0.40125 0.0
C2105 C 0.37885 0.06394 0.38684 0.0
C2106 C 0.37723 0.04574 0.38803 0.0
H2107 H 0.41311 0.01513 0.42935 0.0
H2108 H 0.40663 0.03289 0.41487 0.0
H2109 H 0.39522 0.03002 0.43533 0.0
H2110 H 0.36177 0.043 0.43003 0.0
H2111 H 0.36438 0.07523 0.42782 0.0
H2112 H 0.13809 0.4357 0.13415 0.0
H2113 H 0.14234 0.46751 0.13717 0.0
H2114 H 0.08583 0.47606 0.12928 0.0
H2115 H 0.08158 0.44428 0.12701 0.0
H2116 H 0.13599 0.48781 0.1095 0.0
H2117 H 0.09582 0.51315 0.16519 0.0
H2118 H 0.10132 0.49009 0.16274 0.0
H2119 H 0.0829 0.49968 0.15079 0.0
C2120 C 0.12654 0.44441 0.13395 0.0
C2121 C 0.10951 0.43777 0.1306 0.0
C2122 C 0.12895 0.46252 0.13553 0.0
C2123 C 0.1144 0.47416 0.13348 0.0
C2124 C 0.09719 0.46736 0.13132 0.0
H2125 H 0.10397 0.58644 0.11408 0.0
H2126 H 0.09968 0.55449 0.11153 0.0
C2127 C 0.09475 0.44922 0.13 0.0
C2128 C 0.11757 0.49314 0.13067 0.0
H2129 H 0.1045 0.53428 0.14354 0.0
C2130 C 0.12922 0.49797 0.11707 0.0
C2131 C 0.10858 0.50636 0.1404 0.0
C2132 C 0.0966 0.50206 0.1557 0.0
C2133 C 0.13202 0.51566 0.11284 0.0
C2134 C 0.1229 0.52884 0.12244 0.0
C2135 C 0.11121 0.52407 0.136 0.0
C2136 C 0.12651 0.54771 0.11985 0.0
C2137 C 0.14462 0.52013 0.09809 0.0
C2138 C 0.14319 0.55431 0.12466 0.0
C2139 C 0.1456 0.5724 0.12613 0.0
C2140 C 0.13141 0.58409 0.12267 0.0
C2141 C 0.11517 0.5776 0.11643 0.0
C2142 C 0.11268 0.55942 0.11515 0.0
H2143 H 0.14683 0.50877 0.08914 0.0
H2144 H 0.13947 0.53147 0.09034 0.0
H2145 H 0.15773 0.52382 0.1037 0.0
H2146 H 0.15392 0.54549 0.1286 0.0
H2147 H 0.15813 0.5772 0.13125 0.0
H2148 H 0.09907 0.59521 0.87089 0.0
H2149 H 0.09512 0.56326 0.86871 0.0
H2150 H 0.15229 0.55592 0.86691 0.0
H2151 H 0.15621 0.5878 0.86956 0.0
H2152 H 0.1067 0.53467 0.84712 0.0
H2153 H 0.13729 0.53315 0.91357 0.0
H2154 H 0.1305 0.55338 0.90299 0.0
H2155 H 0.15105 0.54261 0.89681 0.0
C2156 C 0.11071 0.58676 0.86929 0.0
C2157 C 0.12791 0.59375 0.8703 0.0
C2158 C 0.10847 0.56857 0.86816 0.0
C2159 C 0.12344 0.55729 0.86812 0.0
C2160 C 0.14061 0.56444 0.86728 0.0
H2161 H 0.1375 0.44537 0.87452 0.0
H2162 H 0.14148 0.47731 0.87581 0.0
C2163 C 0.14284 0.58259 0.86858 0.0
C2164 C 0.12114 0.53826 0.87122 0.0
H2165 H 0.12991 0.50569 0.90104 0.0
C2166 C 0.11172 0.52832 0.8589 0.0
C2167 C 0.12759 0.53011 0.88675 0.0
C2168 C 0.13703 0.54036 0.90088 0.0
C2169 C 0.1089 0.51029 0.86151 0.0
C2170 C 0.11545 0.50216 0.87697 0.0
C2171 C 0.12484 0.51208 0.88929 0.0
C2172 C 0.11346 0.48311 0.87998 0.0
C2173 C 0.09928 0.49994 0.84759 0.0
C2174 C 0.09656 0.47591 0.88296 0.0
C2175 C 0.09433 0.45767 0.88254 0.0
C2176 C 0.10901 0.44658 0.87915 0.0
C2177 C 0.1261 0.45375 0.87754 0.0
C2178 C 0.12834 0.47194 0.8781 0.0
H2179 H 0.09771 0.50751 0.8352 0.0
H2180 H 0.10659 0.48747 0.84469 0.0
H2181 H 0.0858 0.49648 0.85244 0.0
H2182 H 0.08496 0.48441 0.88455 0.0
H2183 H 0.081 0.45236 0.88338 0.0
H2184 H 0.08426 0.65065 0.4096 0.0
H2185 H 0.05334 0.64514 0.40158 0.0
H2186 H 0.07049 0.6248 0.35144 0.0
H2187 H 0.10166 0.63013 0.35939 0.0
H2188 H 0.03655 0.661 0.37248 0.0
H2189 H 0.03429 0.5879 0.36912 0.0
H2190 H 0.05184 0.59944 0.38041 0.0
H2191 H 0.05185 0.59823 0.35689 0.0
C2192 C 0.08155 0.64478 0.39694 0.0
C2193 C 0.09548 0.64091 0.38511 0.0
C2194 C 0.06384 0.64165 0.39239 0.0
C2195 C 0.05965 0.6345 0.37597 0.0
C2196 C 0.07348 0.63009 0.36429 0.0
H2197 H 0.95298 0.64146 0.32959 0.0
H2198 H 0.98544 0.64096 0.33343 0.0
C2199 C 0.09128 0.6332 0.36885 0.0
C2200 C 0.0407 0.63297 0.37075 0.0
H2201 H 0.00801 0.60351 0.3611 0.0
C2202 C 0.03033 0.64844 0.36988 0.0
C2203 C 0.03266 0.61655 0.36744 0.0
C2204 C 0.04314 0.59953 0.36861 0.0
C2205 C 0.01206 0.64793 0.366 0.0
C2206 C 0.004 0.63154 0.36277 0.0
C2207 C 0.01435 0.61605 0.36346 0.0
C2208 C 0.98459 0.63031 0.35972 0.0
C2209 C 0.00132 0.66486 0.3659 0.0
C2210 C 0.97349 0.62417 0.37314 0.0
C2211 C 0.95498 0.6245 0.37106 0.0
C2212 C 0.94721 0.63093 0.35546 0.0
C2213 C 0.95847 0.63653 0.3418 0.0
C2214 C 0.97701 0.63624 0.34394 0.0
H2215 H 0.00921 0.67624 0.37055 0.0
H2216 H 0.99665 0.66767 0.35236 0.0
H2217 H 0.98933 0.66355 0.37436 0.0
H2218 H 0.97915 0.6196 0.38543 0.0
H2219 H 0.94676 0.62002 0.38184 0.0
H2220 H 0.922 0.54512 0.88134 0.0
H2221 H 0.91689 0.51321 0.8814 0.0
H2222 H 0.86047 0.52262 0.87423 0.0
H2223 H 0.8656 0.55441 0.87402 0.0
H2224 H 0.89286 0.48962 0.90046 0.0
H2225 H 0.87778 0.4957 0.82927 0.0
H2226 H 0.88859 0.51286 0.84158 0.0
H2227 H 0.86489 0.50995 0.84334 0.0
C2228 C 0.90847 0.54031 0.88058 0.0
C2229 C 0.89413 0.55203 0.87794 0.0
C2230 C 0.90558 0.52216 0.88041 0.0
C2231 C 0.88837 0.51567 0.87742 0.0
C2232 C 0.87387 0.52743 0.87628 0.0
H2233 H 0.84411 0.41371 0.88121 0.0
H2234 H 0.84891 0.44528 0.87747 0.0
C2235 C 0.87676 0.54552 0.87641 0.0
C2236 C 0.88573 0.49676 0.87404 0.0
H2237 H 0.87288 0.46771 0.84233 0.0
C2238 C 0.88862 0.4848 0.88775 0.0
C2239 C 0.88039 0.49058 0.85733 0.0
C2240 C 0.87787 0.50289 0.84196 0.0
C2241 C 0.88572 0.46678 0.88533 0.0
C2242 C 0.87984 0.46069 0.86881 0.0
C2243 C 0.87738 0.47255 0.85495 0.0
C2244 C 0.8753 0.44207 0.86634 0.0
C2245 C 0.88863 0.45432 0.90052 0.0
C2246 C 0.88818 0.42997 0.86028 0.0
C2247 C 0.88535 0.41189 0.86218 0.0
C2248 C 0.86974 0.40596 0.87035 0.0
C2249 C 0.85625 0.41808 0.87489 0.0
C2250 C 0.85897 0.43605 0.87278 0.0
H2251 H 0.89483 0.4609 0.91198 0.0
H2252 H 0.87562 0.44884 0.90469 0.0
H2253 H 0.89731 0.44312 0.8964 0.0
H2254 H 0.90088 0.4345 0.85534 0.0
H2255 H 0.89596 0.40271 0.85876 0.0
H2256 H 0.05233 0.36795 0.38963 0.0
H2257 H 0.02029 0.36758 0.39529 0.0
H2258 H 0.01007 0.36772 0.33955 0.0
H2259 H 0.04225 0.36719 0.33381 0.0
H2260 H 0.99375 0.38906 0.3883 0.0
H2261 H 0.98165 0.32617 0.35361 0.0
H2262 H 0.00382 0.33411 0.35777 0.0
H2263 H 0.99101 0.34259 0.33958 0.0
C2264 C 0.04327 0.36792 0.37856 0.0
C2265 C 0.04981 0.3674 0.36126 0.0
C2266 C 0.02494 0.36771 0.38182 0.0
C2267 C 0.01274 0.3672 0.36786 0.0
C2268 C 0.01922 0.3675 0.35055 0.0
H2269 H 0.89712 0.36568 0.36431 0.0
H2270 H 0.92878 0.36982 0.35818 0.0
C2271 C 0.0376 0.36733 0.34727 0.0
C2272 C 0.9933 0.36618 0.37158 0.0
H2273 H 0.95606 0.34194 0.36348 0.0
C2274 C 0.98554 0.37872 0.38291 0.0
C2275 C 0.98258 0.3526 0.36465 0.0
C2276 C 0.99021 0.33801 0.35338 0.0
C2277 C 0.96736 0.37813 0.38734 0.0
C2278 C 0.95669 0.36471 0.38021 0.0
C2279 C 0.96435 0.35226 0.36882 0.0
C2280 C 0.9375 0.36324 0.38443 0.0
C2281 C 0.95961 0.39191 0.39947 0.0
C2282 C 0.93197 0.35816 0.40126 0.0
C2283 C 0.91385 0.35569 0.40484 0.0
C2284 C 0.90097 0.35824 0.39161 0.0
C2285 C 0.90663 0.3636 0.37483 0.0
C2286 C 0.92472 0.36598 0.37127 0.0
H2287 H 0.96881 0.40311 0.40139 0.0
H2288 H 0.94671 0.39703 0.39427 0.0
H2289 H 0.95697 0.38589 0.41247 0.0
H2290 H 0.94171 0.35576 0.41152 0.0
H2291 H 0.90999 0.35154 0.41788 0.0
H2292 H 0.90342 0.41173 0.12599 0.0
H2293 H 0.90802 0.44363 0.12429 0.0
H2294 H 0.85142 0.45172 0.11693 0.0
H2295 H 0.84683 0.41987 0.11888 0.0
H2296 H 0.8989 0.47123 0.10028 0.0
H2297 H 0.86283 0.47683 0.16373 0.0
H2298 H 0.87045 0.45601 0.15493 0.0
H2299 H 0.85032 0.46618 0.14675 0.0
C2300 C 0.89212 0.42033 0.12326 0.0
C2301 C 0.87483 0.41351 0.12227 0.0
C2302 C 0.89471 0.4385 0.12248 0.0
C2303 C 0.88 0.44997 0.1209 0.0
C2304 C 0.86289 0.44304 0.11846 0.0
H2305 H 0.86334 0.55907 0.10737 0.0
H2306 H 0.86165 0.52718 0.11108 0.0
C2307 C 0.8603 0.4249 0.11929 0.0
C2308 C 0.8823 0.46912 0.12323 0.0
H2309 H 0.86957 0.50375 0.14915 0.0
C2310 C 0.89265 0.47833 0.11104 0.0
C2311 C 0.87435 0.47824 0.13749 0.0
C2312 C 0.86401 0.46881 0.15159 0.0
C2313 C 0.89457 0.49662 0.1123 0.0
C2314 C 0.88597 0.50579 0.1261 0.0
C2315 C 0.87612 0.49656 0.13862 0.0
C2316 C 0.88576 0.52515 0.12655 0.0
C2317 C 0.90533 0.50621 0.09865 0.0
C2318 C 0.89955 0.53448 0.13465 0.0
C2319 C 0.90045 0.55278 0.13272 0.0
C2320 C 0.88771 0.56175 0.12244 0.0
C2321 C 0.87342 0.55241 0.1152 0.0
C2322 C 0.8724 0.53425 0.11733 0.0
H2323 H 0.91158 0.4971 0.08898 0.0
H2324 H 0.89659 0.5157 0.09152 0.0
H2325 H 0.91599 0.51388 0.10515 0.0
H2326 H 0.90996 0.52755 0.14179 0.0
H2327 H 0.91162 0.55972 0.13836 0.0
H2328 H 0.89305 0.37069 0.62111 0.0
H2329 H 0.92494 0.37549 0.61657 0.0
H2330 H 0.93734 0.33854 0.65784 0.0
H2331 H 0.90545 0.33364 0.66259 0.0
H2332 H 0.95324 0.3856 0.6429 0.0
H2333 H 0.96257 0.32018 0.61107 0.0
H2334 H 0.94096 0.33077 0.61299 0.0
H2335 H 0.95108 0.32063 0.63182 0.0
C2336 C 0.90252 0.36366 0.62934 0.0
C2337 C 0.89668 0.35166 0.64213 0.0
C2338 C 0.92072 0.36648 0.62674 0.0
C2339 C 0.9334 0.35726 0.63677 0.0
C2340 C 0.92769 0.34568 0.6499 0.0
H2341 H 0.04864 0.37154 0.63917 0.0
H2342 H 0.01701 0.37005 0.64678 0.0
C2343 C 0.90947 0.34294 0.65261 0.0
C2344 C 0.95261 0.35915 0.63288 0.0
H2345 H 0.98818 0.33749 0.61469 0.0
C2346 C 0.96095 0.37511 0.63678 0.0
C2347 C 0.96246 0.34547 0.62471 0.0
C2348 C 0.95387 0.3283 0.61975 0.0
C2349 C 0.97904 0.37772 0.63277 0.0
C2350 C 0.98898 0.36393 0.62479 0.0
C2351 C 0.98055 0.34801 0.62084 0.0
C2352 C 0.00809 0.36573 0.62014 0.0
C2353 C 0.98723 0.39532 0.63677 0.0
C2354 C 0.01361 0.36353 0.60267 0.0
C2355 C 0.0317 0.3642 0.59827 0.0
C2356 C 0.04466 0.36704 0.61129 0.0
C2357 C 0.03904 0.36944 0.62878 0.0
C2358 C 0.02094 0.3687 0.63316 0.0
H2359 H 0.97689 0.40575 0.63859 0.0
H2360 H 0.99504 0.39429 0.64911 0.0
H2361 H 0.99642 0.39939 0.62612 0.0
H2362 H 0.0039 0.36118 0.59242 0.0
H2363 H 0.03552 0.36233 0.58468 0.0
H2364 H 0.11093 0.63544 0.62025 0.0
H2365 H 0.07929 0.6293 0.61554 0.0
H2366 H 0.06557 0.65983 0.66134 0.0
H2367 H 0.09718 0.66599 0.66633 0.0
H2368 H 0.05166 0.61524 0.64559 0.0
H2369 H 0.03895 0.67985 0.61294 0.0
H2370 H 0.06066 0.66927 0.61248 0.0
H2371 H 0.05266 0.6791 0.63239 0.0
C2372 C 0.10122 0.64082 0.62939 0.0
C2373 C 0.1066 0.6513 0.64363 0.0
C2374 C 0.08318 0.63721 0.6267 0.0
C2375 C 0.07022 0.64413 0.63811 0.0
C2376 C 0.07547 0.65438 0.65245 0.0
H2377 H 0.95544 0.62628 0.64248 0.0
H2378 H 0.98715 0.62845 0.6498 0.0
C2379 C 0.09352 0.65788 0.65524 0.0
C2380 C 0.05112 0.64129 0.63453 0.0
H2381 H 0.01451 0.66102 0.61627 0.0
C2382 C 0.04345 0.62521 0.63923 0.0
C2383 C 0.04065 0.65432 0.62611 0.0
C2384 C 0.04854 0.67163 0.62057 0.0
C2385 C 0.02541 0.62181 0.63567 0.0
C2386 C 0.01485 0.63493 0.62735 0.0
C2387 C 0.02262 0.651 0.62267 0.0
C2388 C 0.9958 0.63227 0.62297 0.0
C2389 C 0.01793 0.60409 0.64046 0.0
C2390 C 0.99012 0.63384 0.6055 0.0
C2391 C 0.97204 0.6328 0.6013 0.0
C2392 C 0.95921 0.63018 0.6145 0.0
C2393 C 0.96497 0.62819 0.63198 0.0
C2394 C 0.9831 0.62934 0.63619 0.0
H2395 H 0.02867 0.59411 0.64256 0.0
H2396 H 0.01021 0.60533 0.65284 0.0
H2397 H 0.0088 0.59927 0.63009 0.0
H2398 H 0.9997 0.63612 0.59511 0.0
H2399 H 0.9681 0.6343 0.5877 0.0
H2400 H 0.90626 0.10274 0.33704 0.0
H2401 H 0.93712 0.10686 0.32707 0.0
H2402 H 0.95619 0.0754 0.37042 0.0
H2403 H 0.9256 0.07098 0.38025 0.0
H2404 H 0.96617 0.12166 0.34465 0.0
H2405 H 0.98052 0.05205 0.32851 0.0
H2406 H 0.95806 0.06044 0.33151 0.0
H2407 H 0.97152 0.05442 0.3502 0.0
C2408 C 0.91704 0.09664 0.34439 0.0
C2409 C 0.91345 0.08638 0.35935 0.0
C2410 C 0.93465 0.09901 0.33867 0.0
C2411 C 0.94892 0.09111 0.34777 0.0
C2412 C 0.94536 0.0812 0.3629 0.0
H2413 H 0.05447 0.0864 0.37155 0.0
H2414 H 0.02296 0.08428 0.36488 0.0
C2415 C 0.92784 0.07877 0.36856 0.0
C2416 C 0.96768 0.09349 0.34201 0.0
H2417 H 0.00613 0.07013 0.33478 0.0
C2418 C 0.97488 0.11047 0.34203 0.0
C2419 C 0.97894 0.07889 0.33831 0.0
C2420 C 0.97182 0.06045 0.33693 0.0
C2421 C 0.99336 0.11305 0.34013 0.0
C2422 C 0.0048 0.09826 0.33801 0.0
C2423 C 0.99736 0.08146 0.33649 0.0
C2424 C 0.02434 0.0994 0.34088 0.0
C2425 C 0.00068 0.13139 0.34175 0.0
C2426 C 0.03577 0.10846 0.32942 0.0
C2427 C 0.05408 0.10979 0.33328 0.0
C2428 C 0.06105 0.10214 0.34868 0.0
C2429 C 0.04955 0.0927 0.35972 0.0
C2430 C 0.03149 0.09137 0.35588 0.0
H2431 H 0.99009 0.14132 0.34466 0.0
H2432 H 0.01088 0.13182 0.35231 0.0
H2433 H 0.0073 0.13511 0.32927 0.0
H2434 H 0.03054 0.11457 0.31763 0.0
H2435 H 0.06265 0.11707 0.32451 0.0
H2436 H 0.35222 0.42555 0.84592 0.0
H2437 H 0.35362 0.45586 0.83488 0.0
H2438 H 0.40221 0.46385 0.86392 0.0
H2439 H 0.40097 0.43375 0.87501 0.0
H2440 H 0.35656 0.48909 0.85594 0.0
H2441 H 0.41399 0.47668 0.81138 0.0
H2442 H 0.39994 0.45925 0.81943 0.0
H2443 H 0.4167 0.46854 0.83338 0.0
C2444 C 0.36317 0.43378 0.85001 0.0
C2445 C 0.37656 0.42716 0.86126 0.0
C2446 C 0.36394 0.45108 0.84367 0.0
C2447 C 0.37818 0.46196 0.84835 0.0
C2448 C 0.39128 0.45554 0.8599 0.0
H2449 H 0.42168 0.56154 0.84486 0.0
H2450 H 0.41492 0.53043 0.84222 0.0
C2451 C 0.3905 0.43833 0.86629 0.0
C2452 C 0.37947 0.48012 0.84135 0.0
H2453 H 0.40673 0.50667 0.81744 0.0
C2454 C 0.3673 0.49296 0.84724 0.0
C2455 C 0.39351 0.48503 0.83003 0.0
C2456 C 0.40673 0.47165 0.82304 0.0
C2457 C 0.3695 0.51084 0.84307 0.0
C2458 C 0.38397 0.51589 0.83223 0.0
C2459 C 0.39556 0.50283 0.82559 0.0
C2460 C 0.38907 0.53464 0.83014 0.0
C2461 C 0.35708 0.52426 0.85133 0.0
C2462 C 0.37727 0.54744 0.82324 0.0
C2463 C 0.38121 0.56543 0.82471 0.0
C2464 C 0.39703 0.57066 0.83295 0.0
C2465 C 0.40946 0.55779 0.83829 0.0
C2466 C 0.40556 0.53999 0.83687 0.0
H2467 H 0.34862 0.51841 0.86175 0.0
H2468 H 0.36476 0.53522 0.85716 0.0
H2469 H 0.34811 0.52984 0.84112 0.0
H2470 H 0.36462 0.54359 0.81764 0.0
H2471 H 0.3713 0.57514 0.82076 0.0
H2472 H 0.09403 0.8903 0.3412 0.0
H2473 H 0.06285 0.8852 0.3329 0.0
H2474 H 0.04624 0.92976 0.36414 0.0
H2475 H 0.07717 0.93506 0.37233 0.0
H2476 H 0.0339 0.87819 0.35496 0.0
H2477 H 0.02151 0.93934 0.31732 0.0
H2478 H 0.04374 0.93151 0.32255 0.0
H2479 H 0.03087 0.94365 0.33853 0.0
C2480 C 0.08374 0.89912 0.34616 0.0
C2481 C 0.08812 0.91317 0.35734 0.0
C2482 C 0.06595 0.89616 0.34141 0.0
C2483 C 0.05226 0.9073 0.34762 0.0
C2484 C 0.05662 0.92126 0.35883 0.0
H2485 H 0.94536 0.91499 0.37117 0.0
H2486 H 0.9773 0.91598 0.36552 0.0
C2487 C 0.07433 0.92421 0.36359 0.0
C2488 C 0.03327 0.90399 0.34325 0.0
H2489 H 0.99541 0.92483 0.3288 0.0
C2490 C 0.02555 0.88818 0.34881 0.0
C2491 C 0.02241 0.91698 0.33511 0.0
C2492 C 0.03009 0.93374 0.32787 0.0
C2493 C 0.00703 0.8856 0.34764 0.0
C2494 C 0.99606 0.89913 0.34066 0.0
C2495 C 0.00389 0.91446 0.33411 0.0
C2496 C 0.97644 0.89889 0.34288 0.0
C2497 C 0.99908 0.86899 0.35494 0.0
C2498 C 0.96531 0.88913 0.33178 0.0
C2499 C 0.94682 0.88862 0.33491 0.0
C2500 C 0.93941 0.89769 0.34931 0.0
C2501 C 0.95066 0.90772 0.36006 0.0
C2502 C 0.96893 0.90835 0.35684 0.0
H2503 H 0.00946 0.85949 0.35951 0.0
H2504 H 0.99016 0.8723 0.36614 0.0
H2505 H 0.99082 0.86255 0.34475 0.0
H2506 H 0.97094 0.88177 0.3209 0.0
H2507 H 0.93847 0.88075 0.32646 0.0
H2508 H 0.6327 0.43034 0.85609 0.0
H2509 H 0.63624 0.462 0.85269 0.0
H2510 H 0.58964 0.46401 0.81946 0.0
H2511 H 0.58582 0.43207 0.82331 0.0
H2512 H 0.64012 0.48527 0.8253 0.0
H2513 H 0.57581 0.49621 0.86041 0.0
H2514 H 0.58654 0.47488 0.85918 0.0
H2515 H 0.57444 0.48343 0.84063 0.0
C2516 C 0.6234 0.43747 0.84781 0.0
C2517 C 0.60892 0.42888 0.84009 0.0
C2518 C 0.62545 0.45557 0.84584 0.0
C2519 C 0.61299 0.46545 0.83616 0.0
C2520 C 0.59922 0.45667 0.82728 0.0
H2521 H 0.6001 0.5798 0.83492 0.0
H2522 H 0.59781 0.54843 0.8284 0.0
C2523 C 0.59717 0.43844 0.82927 0.0
C2524 C 0.61383 0.48495 0.83672 0.0
H2525 H 0.59196 0.52132 0.85255 0.0
C2526 C 0.62952 0.49318 0.8311 0.0
C2527 C 0.60007 0.49523 0.84451 0.0
C2528 C 0.58331 0.48704 0.85169 0.0
C2529 C 0.63188 0.51139 0.83313 0.0
C2530 C 0.61824 0.52159 0.84115 0.0
C2531 C 0.60238 0.51345 0.84639 0.0
C2532 C 0.62025 0.54069 0.84461 0.0
C2533 C 0.64895 0.51954 0.82672 0.0
C2534 C 0.63357 0.54675 0.856 0.0
C2535 C 0.63493 0.56472 0.85978 0.0
C2536 C 0.62291 0.57694 0.85231 0.0
C2537 C 0.6096 0.57078 0.84089 0.0
C2538 C 0.60826 0.55284 0.83714 0.0
H2539 H 0.65584 0.51103 0.81691 0.0
H2540 H 0.64633 0.53264 0.82074 0.0
H2541 H 0.65811 0.52133 0.838 0.0
H2542 H 0.64274 0.53756 0.86221 0.0
H2543 H 0.64526 0.569 0.8687 0.0
H2544 H 0.93312 0.93373 0.61257 0.0
H2545 H 0.96476 0.94265 0.61287 0.0
H2546 H 0.97291 0.91366 0.66091 0.0
H2547 H 0.94175 0.90459 0.66049 0.0
H2548 H 0.98933 0.95592 0.64969 0.0
H2549 H 0.00453 0.89364 0.61378 0.0
H2550 H 0.98396 0.90582 0.61035 0.0
H2551 H 0.98724 0.89362 0.63024 0.0
C2552 C 0.94159 0.92983 0.62344 0.0
C2553 C 0.93513 0.91861 0.63658 0.0
C2554 C 0.95959 0.93482 0.62357 0.0
C2555 C 0.97105 0.92875 0.63692 0.0
C2556 C 0.96422 0.91849 0.65056 0.0
H2557 H 0.08277 0.908 0.65341 0.0
H2558 H 0.05001 0.90865 0.65356 0.0
C2559 C 0.94646 0.91336 0.65031 0.0
C2560 C 0.99053 0.93122 0.63599 0.0
H2561 H 0.02886 0.90897 0.62557 0.0
C2562 C 0.99806 0.94586 0.6442 0.0
C2563 C 0.00172 0.91786 0.62906 0.0
C2564 C 0.99407 0.90182 0.62028 0.0
C2565 C 0.01666 0.94724 0.64612 0.0
C2566 C 0.02792 0.9337 0.63941 0.0
C2567 C 0.02026 0.91927 0.63084 0.0
C2568 C 0.04767 0.93414 0.64097 0.0
C2569 C 0.02397 0.96284 0.65593 0.0
C2570 C 0.05723 0.9483 0.63407 0.0
C2571 C 0.07585 0.9481 0.6343 0.0
C2572 C 0.08537 0.93352 0.64102 0.0
C2573 C 0.07582 0.91942 0.64817 0.0
C2574 C 0.05712 0.91977 0.64821 0.0
H2575 H 0.01374 0.9689 0.66466 0.0
H2576 H 0.03574 0.95904 0.66398 0.0
H2577 H 0.02813 0.973 0.64635 0.0
H2578 H 0.05032 0.95928 0.62794 0.0
H2579 H 0.08276 0.9591 0.62848 0.0
H2580 H 0.57313 0.45053 0.13515 0.0
H2581 H 0.58054 0.48072 0.14318 0.0
H2582 H 0.63468 0.46445 0.15431 0.0
H2583 H 0.62744 0.43416 0.1462 0.0
H2584 H 0.59476 0.49319 0.17618 0.0
H2585 H 0.63968 0.50627 0.11959 0.0
H2586 H 0.62409 0.48832 0.11972 0.0
H2587 H 0.64448 0.48667 0.13201 0.0
C2588 C 0.58664 0.45334 0.13926 0.0
C2589 C 0.5997 0.43991 0.13998 0.0
C2590 C 0.59083 0.47061 0.14389 0.0
C2591 C 0.60818 0.47484 0.14922 0.0
C2592 C 0.62126 0.46149 0.15002 0.0
H2593 H 0.65367 0.57885 0.16521 0.0
H2594 H 0.6498 0.54686 0.16718 0.0
C2595 C 0.61707 0.44418 0.14543 0.0
C2596 C 0.6125 0.49325 0.15394 0.0
H2597 H 0.63639 0.52878 0.14053 0.0
C2598 C 0.60394 0.50098 0.16846 0.0
C2599 C 0.62452 0.50333 0.14389 0.0
C2600 C 0.63366 0.49584 0.12784 0.0
C2601 C 0.60703 0.51857 0.17318 0.0
C2602 C 0.61872 0.52881 0.16286 0.0
C2603 C 0.62754 0.52092 0.14854 0.0
C2604 C 0.62093 0.54804 0.16564 0.0
C2605 C 0.59777 0.52594 0.1892 0.0
C2606 C 0.60602 0.55939 0.16478 0.0
C2607 C 0.60825 0.5776 0.16403 0.0
C2608 C 0.62541 0.58479 0.16405 0.0
C2609 C 0.6403 0.57359 0.1658 0.0
C2610 C 0.63808 0.55533 0.16669 0.0
H2611 H 0.59473 0.5154 0.19881 0.0
H2612 H 0.60599 0.53606 0.19578 0.0
H2613 H 0.58491 0.53212 0.1852 0.0
H2614 H 0.59271 0.55416 0.16339 0.0
H2615 H 0.59664 0.586 0.16202 0.0
H2616 H 0.92527 0.10017 0.65811 0.0
H2617 H 0.95659 0.09162 0.65505 0.0
H2618 H 0.94229 0.05163 0.61762 0.0
H2619 H 0.91078 0.06037 0.62034 0.0
H2620 H 0.97288 0.05887 0.66151 0.0
H2621 H 0.98099 0.07906 0.59162 0.0
H2622 H 0.96207 0.08612 0.6046 0.0
H2623 H 0.96343 0.06392 0.59665 0.0
C2624 C 0.92873 0.08955 0.64921 0.0
C2625 C 0.91552 0.08099 0.63942 0.0
C2626 C 0.94666 0.08466 0.6475 0.0
C2627 C 0.9518 0.07109 0.636 0.0
C2628 C 0.93865 0.06233 0.62635 0.0
H2629 H 0.06865 0.05764 0.61786 0.0
H2630 H 0.03731 0.0476 0.61782 0.0
C2631 C 0.92066 0.0673 0.62798 0.0
C2632 C 0.97102 0.06642 0.63432 0.0
H2633 H 0.00687 0.07097 0.60703 0.0
C2634 C 0.98026 0.06113 0.64948 0.0
C2635 C 0.98062 0.06916 0.61856 0.0
C2636 C 0.97138 0.07497 0.60191 0.0
C2637 C 0.99894 0.05974 0.64965 0.0
C2638 C 0.00863 0.06389 0.63431 0.0
C2639 C 0.99936 0.06772 0.61874 0.0
C2640 C 0.02784 0.0682 0.63524 0.0
C2641 C 0.00823 0.05487 0.66655 0.0
C2642 C 0.03276 0.08297 0.64498 0.0
C2643 C 0.05029 0.08872 0.64485 0.0
C2644 C 0.06344 0.07982 0.63503 0.0
C2645 C 0.05877 0.06461 0.62567 0.0
C2646 C 0.04094 0.05895 0.62559 0.0
H2647 H 0.99958 0.04663 0.67499 0.0
H2648 H 0.02094 0.04765 0.66398 0.0
H2649 H 0.01133 0.06705 0.67391 0.0
H2650 H 0.02285 0.09048 0.65227 0.0
H2651 H 0.05349 0.10047 0.65221 0.0
H2652 H 0.42439 0.56156 0.16946 0.0
H2653 H 0.41904 0.53065 0.17658 0.0
H2654 H 0.372 0.53145 0.14402 0.0
H2655 H 0.37712 0.5624 0.13693 0.0
H2656 H 0.36773 0.51301 0.17662 0.0
H2657 H 0.42851 0.49175 0.13989 0.0
H2658 H 0.43187 0.50766 0.15698 0.0
H2659 H 0.41911 0.51362 0.13789 0.0
C2660 C 0.41282 0.55522 0.16389 0.0
C2661 C 0.40129 0.56443 0.15245 0.0
C2662 C 0.40981 0.53753 0.16797 0.0
C2663 C 0.39524 0.52869 0.16068 0.0
C2664 C 0.38334 0.53801 0.14978 0.0
H2665 H 0.37415 0.42764 0.1272 0.0
H2666 H 0.38034 0.45802 0.13382 0.0
C2667 C 0.38635 0.55568 0.14567 0.0
C2668 C 0.39292 0.50949 0.16339 0.0
H2669 H 0.41087 0.46961 0.15202 0.0
C2670 C 0.37726 0.50347 0.17149 0.0
C2671 C 0.40538 0.49711 0.15664 0.0
C2672 C 0.42211 0.50276 0.14724 0.0
C2673 C 0.37341 0.4854 0.17236 0.0
C2674 C 0.3856 0.4731 0.16505 0.0
C2675 C 0.40163 0.47909 0.15774 0.0
C2676 C 0.38075 0.45448 0.16196 0.0
C2677 C 0.35592 0.47961 0.18012 0.0
C2678 C 0.37868 0.44225 0.17567 0.0
C2679 C 0.37481 0.42457 0.1719 0.0
C2680 C 0.373 0.41897 0.15439 0.0
C2681 C 0.37501 0.4314 0.14086 0.0
C2682 C 0.37876 0.44886 0.1446 0.0
H2683 H 0.34723 0.49094 0.18388 0.0
H2684 H 0.34862 0.4713 0.17058 0.0
H2685 H 0.35853 0.47152 0.19198 0.0
H2686 H 0.38037 0.4463 0.18919 0.0
H2687 H 0.3735 0.41528 0.1826 0.0
H2688 H 0.37711 0.06229 0.13567 0.0
H2689 H 0.37916 0.03041 0.1314 0.0
H2690 H 0.3461 0.03469 0.0853 0.0
H2691 H 0.34408 0.06664 0.0893 0.0
H2692 H 0.33544 0.01032 0.11688 0.0
H2693 H 0.40311 -0.00035 0.08839 0.0
H2694 H 0.40078 0.01607 0.10534 0.0
H2695 H 0.3901 0.01948 0.08454 0.0
C2696 C 0.3705 0.05652 0.12445 0.0
C2697 C 0.36034 0.06702 0.11289 0.0
C2698 C 0.37175 0.03832 0.122 0.0
C2699 C 0.36287 0.03029 0.10798 0.0
C2700 C 0.35314 0.04071 0.09612 0.0
H2701 H 0.36921 0.91386 0.09889 0.0
H2702 H 0.36664 0.94481 0.08928 0.0
C2703 C 0.35198 0.05895 0.09847 0.0
C2704 C 0.36231 0.01088 0.10692 0.0
H2705 H 0.38854 0.97452 0.09998 0.0
C2706 C 0.34691 0.00245 0.11286 0.0
C2707 C 0.37722 0.00073 0.1015 0.0
C2708 C 0.39377 0.00934 0.09445 0.0
C2709 C 0.34642 0.9841 0.11457 0.0
C2710 C 0.36179 0.97396 0.11033 0.0
C2711 C 0.37679 0.98232 0.10327 0.0
C2712 C 0.36332 0.95522 0.11553 0.0
C2713 C 0.32966 0.97576 0.12155 0.0
C2714 C 0.36257 0.95096 0.13338 0.0
C2715 C 0.36399 0.93354 0.13882 0.0
C2716 C 0.36644 0.91988 0.12658 0.0
C2717 C 0.36734 0.9241 0.10862 0.0
C2718 C 0.3659 0.94172 0.10313 0.0
H2719 H 0.31769 0.98405 0.11871 0.0
H2720 H 0.32768 0.96248 0.11586 0.0
H2721 H 0.33075 0.97441 0.13602 0.0
H2722 H 0.36091 0.96118 0.14318 0.0
H2723 H 0.36299 0.93084 0.15273 0.0
H2724 H 0.42651 0.88178 0.57188 0.0
H2725 H 0.45735 0.886 0.56201 0.0
H2726 H 0.47355 0.83879 0.58937 0.0
H2727 H 0.44293 0.8344 0.59917 0.0
H2728 H 0.48823 0.88959 0.58337 0.0
H2729 H 0.49413 0.8316 0.53977 0.0
H2730 H 0.47283 0.84058 0.54672 0.0
H2731 H 0.48538 0.82621 0.56101 0.0
C2732 C 0.43663 0.87223 0.5757 0.0
C2733 C 0.43224 0.85768 0.58624 0.0
C2734 C 0.45422 0.87467 0.57004 0.0
C2735 C 0.46763 0.86252 0.57468 0.0
C2736 C 0.46331 0.84809 0.58529 0.0
H2737 H 0.57333 0.84325 0.59133 0.0
H2738 H 0.54157 0.84392 0.58439 0.0
C2739 C 0.4458 0.84567 0.59098 0.0
C2740 C 0.48641 0.86514 0.56927 0.0
H2741 H 0.52177 0.84337 0.55078 0.0
C2742 C 0.49552 0.87977 0.57583 0.0
C2743 C 0.49581 0.85236 0.55932 0.0
C2744 C 0.4865 0.83689 0.55114 0.0
C2745 C 0.51411 0.88116 0.57396 0.0
C2746 C 0.52368 0.86767 0.56512 0.0
C2747 C 0.51437 0.85371 0.55749 0.0
C2748 C 0.5433 0.86608 0.56667 0.0
C2749 C 0.52359 0.89628 0.58261 0.0
C2750 C 0.55491 0.87794 0.55845 0.0
C2751 C 0.57326 0.87739 0.56222 0.0
C2752 C 0.57998 0.86511 0.57439 0.0
C2753 C 0.56843 0.85277 0.58184 0.0
C2754 C 0.5503 0.85316 0.57791 0.0
H2755 H 0.51427 0.90509 0.58991 0.0
H2756 H 0.53386 0.89118 0.59187 0.0
H2757 H 0.53053 0.90416 0.57248 0.0
H2758 H 0.5497 0.88797 0.54968 0.0
H2759 H 0.58193 0.88718 0.55654 0.0
H2760 H 0.65535 0.08412 0.10449 0.0
H2761 H 0.65744 0.05217 0.09967 0.0
H2762 H 0.60446 0.04621 0.12091 0.0
H2763 H 0.60245 0.07799 0.12575 0.0
H2764 H 0.65454 0.0304 0.13024 0.0
H2765 H 0.60562 0.01108 0.07922 0.0
H2766 H 0.61448 0.03306 0.08073 0.0
H2767 H 0.59723 0.02616 0.09551 0.0
C2768 C 0.64389 0.07603 0.10733 0.0
C2769 C 0.62866 0.0834 0.11527 0.0
C2770 C 0.64512 0.05781 0.10472 0.0
C2771 C 0.63105 0.04684 0.10983 0.0
C2772 C 0.61533 0.05443 0.11657 0.0
H2773 H 0.61784 0.93631 0.13445 0.0
H2774 H 0.61376 0.96795 0.12916 0.0
C2775 C 0.61419 0.07257 0.11934 0.0
C2776 C 0.63381 0.02753 0.11093 0.0
H2777 H 0.61737 0.98808 0.09729 0.0
C2778 C 0.6466 0.02113 0.12285 0.0
C2779 C 0.62316 0.01552 0.10155 0.0
C2780 C 0.60943 0.02174 0.08842 0.0
C2781 C 0.64882 0.00304 0.1259 0.0
C2782 C 0.63824 0.99099 0.11646 0.0
C2783 C 0.62548 0.99736 0.10448 0.0
C2784 C 0.64038 0.97172 0.1189 0.0
C2785 C 0.66206 0.997 0.13963 0.0
C2786 C 0.65659 0.96335 0.11463 0.0
C2787 C 0.65896 0.94535 0.11764 0.0
C2788 C 0.64515 0.93532 0.12496 0.0
C2789 C 0.62877 0.94367 0.12889 0.0
C2790 C 0.6264 0.96172 0.12582 0.0
H2791 H 0.66573 0.00784 0.14868 0.0
H2792 H 0.65662 0.98599 0.14749 0.0
H2793 H 0.67443 0.99226 0.13305 0.0
H2794 H 0.66746 0.97079 0.10904 0.0
H2795 H 0.67171 0.93934 0.11437 0.0
H2796 H 0.56 0.16328 0.60385 0.0
H2797 H 0.52917 0.15947 0.59447 0.0
H2798 H 0.54561 0.11726 0.56004 0.0
H2799 H 0.5766 0.12074 0.56966 0.0
H2800 H 0.51411 0.16204 0.56132 0.0
H2801 H 0.506 0.09467 0.58884 0.0
H2802 H 0.52459 0.10841 0.59458 0.0
H2803 H 0.52411 0.09755 0.57367 0.0
C2804 C 0.55711 0.15316 0.59429 0.0
C2805 C 0.57077 0.14225 0.58759 0.0
C2806 C 0.53946 0.15103 0.5889 0.0
C2807 C 0.53504 0.13795 0.5767 0.0
C2808 C 0.54866 0.12722 0.56971 0.0
H2809 H 0.42123 0.11449 0.55491 0.0
H2810 H 0.45354 0.11562 0.54845 0.0
C2811 C 0.56637 0.12929 0.57516 0.0
C2812 C 0.51608 0.13568 0.57161 0.0
H2813 H 0.48066 0.10814 0.57644 0.0
C2814 C 0.50686 0.15014 0.56435 0.0
C2815 C 0.50664 0.1201 0.57545 0.0
C2816 C 0.51574 0.10431 0.58367 0.0
C2817 C 0.48834 0.14976 0.5617 0.0
C2818 C 0.47878 0.13458 0.56649 0.0
C2819 C 0.4881 0.1197 0.57265 0.0
C2820 C 0.45911 0.13507 0.5684 0.0
C2821 C 0.47899 0.1659 0.55453 0.0
C2822 C 0.45167 0.14567 0.5816 0.0
C2823 C 0.43354 0.14488 0.58537 0.0
C2824 C 0.42236 0.13359 0.57594 0.0
C2825 C 0.42957 0.12347 0.56218 0.0
C2826 C 0.44796 0.12404 0.55857 0.0
H2827 H 0.48823 0.17415 0.54674 0.0
H2828 H 0.46747 0.16225 0.54618 0.0
H2829 H 0.47389 0.17397 0.56563 0.0
H2830 H 0.46007 0.15404 0.58952 0.0
H2831 H 0.42832 0.15277 0.59609 0.0
H2832 H 0.3535 0.0576 0.8573 0.0
H2833 H 0.3546 0.02678 0.86569 0.0
H2834 H 0.37265 0.04103 0.91742 0.0
H2835 H 0.37149 0.07245 0.90906 0.0
H2836 H 0.3933 0.01226 0.89608 0.0
H2837 H 0.32041 0.00172 0.90255 0.0
H2838 H 0.32691 0.01447 0.88377 0.0
H2839 H 0.33052 0.02302 0.90544 0.0
C2840 C 0.3577 0.0543 0.87051 0.0
C2841 C 0.3625 0.06749 0.88251 0.0
C2842 C 0.35822 0.03664 0.87529 0.0
C2843 C 0.36358 0.03167 0.89217 0.0
C2844 C 0.36838 0.04469 0.90433 0.0
H2845 H 0.35266 0.91857 0.91273 0.0
H2846 H 0.35369 0.95031 0.91802 0.0
C2847 C 0.36768 0.06257 0.89957 0.0
C2848 C 0.36457 0.01268 0.89642 0.0
H2849 H 0.33854 0.97613 0.89722 0.0
C2850 C 0.38136 0.00434 0.89678 0.0
C2851 C 0.34898 0.00242 0.89732 0.0
C2852 C 0.33065 0.01084 0.8974 0.0
C2853 C 0.38293 0.98588 0.89695 0.0
C2854 C 0.36729 0.97559 0.89656 0.0
C2855 C 0.35053 0.984 0.89737 0.0
C2856 C 0.36792 0.95621 0.89406 0.0
C2857 C 0.4013 0.97758 0.89709 0.0
C2858 C 0.3755 0.94898 0.87878 0.0
C2859 C 0.3749 0.93086 0.87569 0.0
C2860 C 0.36661 0.91959 0.88777 0.0
C2861 C 0.35918 0.92685 0.90316 0.0
C2862 C 0.35976 0.945 0.90622 0.0
H2863 H 0.41131 0.98658 0.90284 0.0
H2864 H 0.40145 0.96506 0.90462 0.0
H2865 H 0.40543 0.97466 0.88339 0.0
H2866 H 0.38147 0.95742 0.869 0.0
H2867 H 0.38069 0.92573 0.86367 0.0
H2868 H 0.57744 0.84377 0.37512 0.0
H2869 H 0.5448 0.84117 0.3755 0.0
H2870 H 0.54725 0.82244 0.42887 0.0
H2871 H 0.57984 0.82514 0.4285 0.0
H2872 H 0.51767 0.81342 0.38667 0.0
H2873 H 0.52219 0.87297 0.42876 0.0
H2874 H 0.54052 0.86523 0.41533 0.0
H2875 H 0.53552 0.8544 0.43566 0.0
C2876 C 0.57103 0.83821 0.38657 0.0
C2877 C 0.58105 0.8343 0.40167 0.0
C2878 C 0.55242 0.83687 0.38684 0.0
C2879 C 0.54366 0.83178 0.40227 0.0
C2880 C 0.5538 0.8264 0.41685 0.0
H2881 H 0.43761 0.84491 0.44432 0.0
H2882 H 0.46916 0.83856 0.43882 0.0
C2883 C 0.5724 0.82775 0.41658 0.0
C2884 C 0.52417 0.83466 0.40409 0.0
H2885 H 0.49358 0.86097 0.42486 0.0
C2886 C 0.51234 0.82379 0.39499 0.0
C2887 C 0.51734 0.8484 0.41475 0.0
C2888 C 0.5295 0.86105 0.42409 0.0
C2889 C 0.49373 0.82593 0.3968 0.0
C2890 C 0.4869 0.83945 0.40779 0.0
C2891 C 0.49882 0.85051 0.41658 0.0
C2892 C 0.46748 0.84231 0.41071 0.0
C2893 C 0.48159 0.81342 0.38729 0.0
C2894 C 0.45602 0.84661 0.39674 0.0
C2895 C 0.43792 0.85018 0.39984 0.0
C2896 C 0.43097 0.84971 0.41701 0.0
C2897 C 0.44249 0.84538 0.43094 0.0
C2898 C 0.46055 0.84174 0.42782 0.0
H2899 H 0.48879 0.80125 0.38314 0.0
H2900 H 0.47011 0.8097 0.39567 0.0
H2901 H 0.47628 0.81997 0.37533 0.0
H2902 H 0.46115 0.84757 0.38349 0.0
H2903 H 0.42944 0.8536 0.38881 0.0
H2904 H 0.66486 0.066 0.86077 0.0
H2905 H 0.66252 0.03529 0.86991 0.0
H2906 H 0.61367 0.04748 0.89753 0.0
H2907 H 0.61576 0.07826 0.88826 0.0
H2908 H 0.66095 0.0216 0.90467 0.0
H2909 H 0.60028 0.00567 0.86582 0.0
H2910 H 0.61344 0.02495 0.86151 0.0
H2911 H 0.59869 0.02448 0.88007 0.0
C2912 C 0.65357 0.06218 0.86874 0.0
C2913 C 0.64046 0.07459 0.87373 0.0
C2914 C 0.65228 0.04462 0.874 0.0
C2915 C 0.63786 0.03909 0.88429 0.0
C2916 C 0.62478 0.05143 0.88938 0.0
H2917 H 0.6166 0.92707 0.90482 0.0
H2918 H 0.61528 0.95903 0.91049 0.0
C2919 C 0.62604 0.06902 0.88411 0.0
C2920 C 0.63668 0.02037 0.8896 0.0
H2921 H 0.61342 0.98275 0.88208 0.0
C2922 C 0.65043 0.01313 0.89993 0.0
C2923 C 0.62286 0.0094 0.88353 0.0
C2924 C 0.60801 0.0164 0.87201 0.0
C2925 C 0.65111 0.99508 0.90378 0.0
C2926 C 0.63781 0.98395 0.89694 0.0
C2927 C 0.62353 0.99133 0.88742 0.0
C2928 C 0.63999 0.96454 0.89688 0.0
C2929 C 0.66635 0.98798 0.91471 0.0
C2930 C 0.65442 0.95709 0.8877 0.0
C2931 C 0.6551 0.93907 0.88443 0.0
C2932 C 0.64145 0.92811 0.8904 0.0
C2933 C 0.62748 0.93528 0.90049 0.0
C2934 C 0.62667 0.95348 0.90358 0.0
H2935 H 0.67152 0.99819 0.92375 0.0
H2936 H 0.66223 0.97637 0.92252 0.0
H2937 H 0.67745 0.98389 0.9059 0.0
H2938 H 0.6646 0.96536 0.88202 0.0
H2939 H 0.66581 0.93382 0.87635 0.0
H2940 H 0.42167 0.17166 0.42976 0.0
H2941 H 0.45415 0.17597 0.43092 0.0
H2942 H 0.45956 0.15138 0.38014 0.0
H2943 H 0.42728 0.14735 0.37894 0.0
H2944 H 0.47713 0.14733 0.4308 0.0
H2945 H 0.49433 0.19175 0.37588 0.0
H2946 H 0.47194 0.19022 0.38453 0.0
H2947 H 0.48024 0.174 0.36928 0.0
C2948 C 0.42977 0.16796 0.41854 0.0
C2949 C 0.42205 0.15944 0.40413 0.0
C2950 C 0.4483 0.17024 0.41927 0.0
C2951 C 0.4593 0.16414 0.40554 0.0
C2952 C 0.45138 0.15656 0.39071 0.0
H2953 H 0.56993 0.13665 0.38775 0.0
H2954 H 0.53771 0.14231 0.38611 0.0
C2955 C 0.43293 0.15423 0.39003 0.0
C2956 C 0.47902 0.16341 0.40762 0.0
H2957 H 0.51823 0.17393 0.38745 0.0
C2958 C 0.48614 0.15339 0.42149 0.0
C2959 C 0.49075 0.17112 0.39533 0.0
C2960 C 0.48394 0.18251 0.38051 0.0
C2961 C 0.5046 0.15037 0.42308 0.0
C2962 C 0.51632 0.15788 0.41066 0.0
C2963 C 0.50924 0.16815 0.39695 0.0
C2964 C 0.53595 0.15494 0.41151 0.0
C2965 C 0.5113 0.13856 0.43765 0.0
C2966 C 0.54572 0.1604 0.42621 0.0
C2967 C 0.56411 0.15713 0.42722 0.0
C2968 C 0.57315 0.14845 0.41348 0.0
C2969 C 0.56339 0.14332 0.39859 0.0
C2970 C 0.54498 0.14657 0.39762 0.0
H2971 H 0.50049 0.13032 0.44316 0.0
H2972 H 0.52222 0.12975 0.43295 0.0
H2973 H 0.51662 0.14679 0.44844 0.0
H2974 H 0.53912 0.16719 0.43693 0.0
H2975 H 0.5712 0.16137 0.43882 0.0
H2976 H 0.08037 0.4011 0.94453 0.0
H2977 H 0.07949 0.38947 0.97435 0.0
H2978 H 0.10604 0.34191 0.95699 0.0
H2979 H 0.10733 0.35367 0.92703 0.0
H2980 H 0.0627 0.35892 0.98554 0.0
H2981 H 0.13567 0.35609 -0.00029 0.0
H2982 H 0.12664 0.36842 0.98144 0.0
H2983 H 0.12809 0.34486 0.98038 0.0
C2984 C 0.08616 0.38822 0.94704 0.0
C2985 C 0.09394 0.37833 0.93341 0.0
C2986 C 0.08561 0.38157 0.96409 0.0
C2987 C 0.09277 0.36486 0.96792 0.0
C2988 C 0.10068 0.35495 0.9544 0.0
H2989 H 0.09749 0.33362 0.08044 0.0
H2990 H 0.09686 0.3276 0.04851 0.0
C2991 C 0.10137 0.36168 0.93728 0.0
C2992 C 0.09145 0.35796 0.9861 0.0
H2993 H 0.1162 0.34973 0.02289 0.0
C2994 C 0.07441 0.35655 0.99361 0.0
C2995 C 0.10672 0.35465 0.99658 0.0
C2996 C 0.12535 0.35615 0.98923 0.0
C2997 C 0.07225 0.35315 0.01157 0.0
C2998 C 0.08752 0.35119 0.02231 0.0
C2999 C 0.10453 0.35113 0.01458 0.0
C3000 C 0.08626 0.3533 0.04159 0.0
C3001 C 0.05364 0.35273 0.0191 0.0
C3002 C 0.08049 0.36961 0.04812 0.0
C3003 C 0.08099 0.37304 0.066 0.0
C3004 C 0.08727 0.36026 0.07788 0.0
C3005 C 0.09247 0.34361 0.07154 0.0
C3006 C 0.09217 0.34022 0.05338 0.0
H3007 H 0.0438 0.34845 0.00911 0.0
H3008 H 0.05294 0.34379 0.03061 0.0
H3009 H 0.04974 0.36618 0.02344 0.0
H3010 H 0.07621 0.38 0.03927 0.0
H3011 H 0.07686 0.38599 0.0705 0.0
H3012 H 0.15459 0.68997 0.92184 0.0
H3013 H 0.15867 0.69225 0.95395 0.0
H3014 H 0.11135 0.66148 0.96195 0.0
H3015 H 0.10737 0.65907 0.93031 0.0
H3016 H 0.1283 0.70055 0.98555 0.0
H3017 H 0.1603 0.63432 0.98106 0.0
H3018 H 0.16016 0.64971 0.96296 0.0
H3019 H 0.1404 0.63764 0.9682 0.0
C3020 C 0.14477 0.68429 0.93053 0.0
C3021 C 0.13068 0.67435 0.92369 0.0
C3022 C 0.14715 0.68549 0.9488 0.0
C3023 C 0.13536 0.6769 0.96023 0.0
C3024 C 0.12059 0.66816 0.95333 0.0
H3025 H 0.1094 0.63887 0.05947 0.0
H3026 H 0.11391 0.6476 0.02896 0.0
C3027 C 0.11832 0.66684 0.93527 0.0
C3028 C 0.13914 0.67501 0.9792 0.0
H3029 H 0.1499 0.64332 0.00927 0.0
C3030 C 0.13351 0.68827 0.99081 0.0
C3031 C 0.14577 0.65888 0.98594 0.0
C3032 C 0.15214 0.64432 0.97393 0.0
C3033 C 0.13345 0.68539 0.00907 0.0
C3034 C 0.13913 0.66887 0.01571 0.0
C3035 C 0.14558 0.65597 0.00412 0.0
C3036 C 0.13665 0.664 0.03437 0.0
C3037 C 0.1263 0.69953 0.02112 0.0
C3038 C 0.14807 0.67026 0.04749 0.0
C3039 C 0.1456 0.66519 0.06502 0.0
C3040 C 0.13162 0.65386 0.06967 0.0
C3041 C 0.12027 0.64764 0.0564 0.0
C3042 C 0.12281 0.65261 0.03894 0.0
H3043 H 0.12185 0.71147 0.01385 0.0
H3044 H 0.11485 0.69439 0.02877 0.0
H3045 H 0.1368 0.70331 0.03063 0.0
H3046 H 0.15891 0.67896 0.04416 0.0
H3047 H 0.15458 0.67021 0.07492 0.0
H3048 H 0.91576 0.6185 0.43007 0.0
H3049 H 0.92196 0.61235 0.46106 0.0
H3050 H 0.86895 0.59171 0.46728 0.0
H3051 H 0.86273 0.59754 0.43637 0.0
H3052 H 0.90434 0.62604 0.48963 0.0
H3053 H 0.89931 0.5534 0.49012 0.0
H3054 H 0.90155 0.56591 0.47009 0.0
H3055 H 0.88013 0.56406 0.4806 0.0
C3056 C 0.90547 0.61251 0.438 0.0
C3057 C 0.88875 0.60847 0.43071 0.0
C3058 C 0.90905 0.60898 0.4557 0.0
C3059 C 0.89605 0.60125 0.46642 0.0
C3060 C 0.87936 0.59723 0.45917 0.0
H3061 H 0.8736 0.58952 0.57538 0.0
H3062 H 0.87539 0.58596 0.54341 0.0
C3063 C 0.87578 0.60072 0.4415 0.0
C3064 C 0.89939 0.59852 0.48546 0.0
H3065 H 0.89796 0.56774 0.51816 0.0
C3066 C 0.90324 0.61325 0.49583 0.0
C3067 C 0.89789 0.58182 0.49354 0.0
C3068 C 0.89467 0.56536 0.48299 0.0
C3069 C 0.90485 0.61189 0.51414 0.0
C3070 C 0.9029 0.59526 0.52228 0.0
C3071 C 0.89949 0.58044 0.51189 0.0
C3072 C 0.90313 0.59344 0.54167 0.0
C3073 C 0.90785 0.62842 0.52469 0.0
C3074 C 0.9184 0.5978 0.55134 0.0
C3075 C 0.91738 0.59975 0.56956 0.0
C3076 C 0.90117 0.59707 0.57835 0.0
C3077 C 0.88633 0.59123 0.56888 0.0
C3078 C 0.88732 0.58934 0.55063 0.0
H3079 H 0.90543 0.64052 0.51681 0.0
H3080 H 0.89898 0.62882 0.53637 0.0
H3081 H 0.92187 0.6286 0.52935 0.0
H3082 H 0.93078 0.60081 0.54469 0.0
H3083 H 0.92888 0.60457 0.57662 0.0
H3084 H 0.85383 0.30499 0.92009 0.0
H3085 H 0.84963 0.30077 0.95202 0.0
H3086 H 0.88958 0.33984 0.96226 0.0
H3087 H 0.8937 0.34414 0.93086 0.0
H3088 H 0.88698 0.30166 0.98378 0.0
H3089 H 0.82996 0.34939 0.98202 0.0
H3090 H 0.83371 0.33359 0.96464 0.0
H3091 H 0.84815 0.35211 0.96677 0.0
C3092 C 0.86203 0.31224 0.92922 0.0
C3093 C 0.87407 0.32489 0.92309 0.0
C3094 C 0.85955 0.30993 0.94738 0.0
C3095 C 0.86925 0.3201 0.95939 0.0
C3096 C 0.88199 0.33189 0.95318 0.0
H3097 H 0.89443 0.35654 0.05858 0.0
H3098 H 0.89099 0.34645 0.02835 0.0
C3099 C 0.88433 0.3343 0.93525 0.0
C3100 C 0.86552 0.31991 0.97844 0.0
H3101 H 0.84366 0.34425 0.0096 0.0
C3102 C 0.87715 0.31053 0.9895 0.0
C3103 C 0.85282 0.33169 0.98578 0.0
C3104 C 0.84035 0.3423 0.97427 0.0
C3105 C 0.87703 0.31336 0.00772 0.0
C3106 C 0.86513 0.32598 0.01493 0.0
C3107 C 0.85274 0.33455 0.004 0.0
C3108 C 0.86686 0.33193 0.03334 0.0
C3109 C 0.89019 0.30348 0.01911 0.0
C3110 C 0.85421 0.32735 0.04607 0.0
C3111 C 0.85613 0.33309 0.06344 0.0
C3112 C 0.87069 0.34361 0.06829 0.0
C3113 C 0.88314 0.34838 0.05536 0.0
C3114 C 0.88122 0.3426 0.03807 0.0
H3115 H 0.89605 0.29189 0.01222 0.0
H3116 H 0.9012 0.31239 0.02283 0.0
H3117 H 0.88364 0.29898 0.03138 0.0
H3118 H 0.84297 0.3192 0.0426 0.0
H3119 H 0.8463 0.32919 0.07307 0.0
H3120 H 0.07542 0.40664 0.58018 0.0
H3121 H 0.0716 0.41182 0.54849 0.0
H3122 H 0.12832 0.40512 0.54096 0.0
H3123 H 0.13208 0.39978 0.57239 0.0
H3124 H 0.10576 0.43306 0.51756 0.0
H3125 H 0.08481 0.36282 0.52038 0.0
H3126 H 0.07606 0.3785 0.53602 0.0
H3127 H 0.09906 0.37186 0.53712 0.0
C3128 C 0.08712 0.40724 0.57184 0.0
C3129 C 0.10407 0.40314 0.57861 0.0
C3130 C 0.08493 0.41006 0.55378 0.0
C3131 C 0.0997 0.40882 0.54246 0.0
C3132 C 0.11681 0.40631 0.54952 0.0
H3133 H 0.13586 0.37587 0.44428 0.0
H3134 H 0.1294 0.38484 0.47445 0.0
C3135 C 0.11896 0.40334 0.56746 0.0
C3136 C 0.09733 0.40671 0.52333 0.0
H3137 H 0.09148 0.37451 0.49269 0.0
C3138 C 0.10218 0.42043 0.51203 0.0
C3139 C 0.09287 0.39011 0.51627 0.0
C3140 C 0.0879 0.37489 0.52797 0.0
C3141 C 0.10332 0.41772 0.4938 0.0
C3142 C 0.09974 0.40088 0.4869 0.0
C3143 C 0.09415 0.38741 0.49811 0.0
C3144 C 0.10362 0.39638 0.46841 0.0
C3145 C 0.10922 0.43252 0.48205 0.0
C3146 C 0.09117 0.39988 0.45511 0.0
C3147 C 0.09477 0.39468 0.43782 0.0
C3148 C 0.11088 0.38592 0.43361 0.0
C3149 C 0.12334 0.38259 0.44703 0.0
C3150 C 0.1197 0.38772 0.46428 0.0
H3151 H 0.11107 0.445 0.48938 0.0
H3152 H 0.12201 0.42884 0.47557 0.0
H3153 H 0.09916 0.43474 0.47156 0.0
H3154 H 0.07864 0.40646 0.45813 0.0
H3155 H 0.08491 0.39747 0.42777 0.0
H3156 H 0.88227 0.62677 0.93336 0.0
H3157 H 0.87972 0.63481 0.96445 0.0
H3158 H 0.93708 0.63517 0.96882 0.0
H3159 H 0.93979 0.62722 0.93789 0.0
H3160 H 0.89436 0.61548 0.99367 0.0
H3161 H 0.92133 0.68314 0.98995 0.0
H3162 H 0.91312 0.67157 0.97093 0.0
H3163 H 0.93487 0.66646 0.97959 0.0
C3164 C 0.89434 0.62866 0.94091 0.0
C3165 C 0.91124 0.62643 0.93309 0.0
C3166 C 0.89285 0.63326 0.95867 0.0
C3167 C 0.90821 0.63589 0.96886 0.0
C3168 C 0.92506 0.63358 0.96111 0.0
H3169 H 0.93534 0.64686 0.07743 0.0
H3170 H 0.93458 0.64927 0.04533 0.0
C3171 C 0.92657 0.62892 0.94343 0.0
C3172 C 0.90673 0.6402 0.9878 0.0
H3173 H 0.91788 0.67096 0.01855 0.0
C3174 C 0.89928 0.6277 0.9991 0.0
C3175 C 0.91331 0.65609 0.99484 0.0
C3176 C 0.92099 0.67018 0.98322 0.0
C3177 C 0.89872 0.63041 0.01732 0.0
C3178 C 0.90539 0.64628 0.0244 0.0
C3179 C 0.91265 0.65889 0.01308 0.0
C3180 C 0.90575 0.64937 0.04363 0.0
C3181 C 0.89166 0.61593 0.02891 0.0
C3182 C 0.88981 0.64984 0.05333 0.0
C3183 C 0.89026 0.64859 0.07163 0.0
C3184 C 0.90664 0.64714 0.08047 0.0
C3185 C 0.92257 0.64844 0.07091 0.0
C3186 C 0.92213 0.64962 0.05257 0.0
H3187 H 0.89078 0.6032 0.02182 0.0
H3188 H 0.90029 0.61404 0.04063 0.0
H3189 H 0.87807 0.61959 0.03353 0.0
H3190 H 0.87703 0.64987 0.04669 0.0
H3191 H 0.87782 0.64723 0.07874 0.0
H3192 H 0.80737 0.37081 0.42718 0.0
H3193 H 0.80912 0.37522 0.4589 0.0
H3194 H 0.86163 0.3971 0.45304 0.0
H3195 H 0.85979 0.39283 0.42103 0.0
H3196 H 0.84454 0.35685 0.47425 0.0
H3197 H 0.82925 0.42599 0.49411 0.0
H3198 H 0.81821 0.4164 0.47538 0.0
H3199 H 0.84153 0.42114 0.47422 0.0
C3200 C 0.81888 0.37741 0.43258 0.0
C3201 C 0.8333 0.3818 0.42175 0.0
C3202 C 0.81992 0.37982 0.45068 0.0
C3203 C 0.83547 0.38651 0.45825 0.0
C3204 C 0.84942 0.39215 0.44736 0.0
H3205 H 0.85606 0.37964 0.57223 0.0
H3206 H 0.8594 0.38772 0.54118 0.0
C3207 C 0.84831 0.38985 0.42912 0.0
C3208 C 0.83812 0.38436 0.47736 0.0
H3209 H 0.8324 0.40491 0.51683 0.0
C3210 C 0.84216 0.36741 0.48358 0.0
C3211 C 0.8351 0.39818 0.48939 0.0
C3212 C 0.83079 0.41653 0.48309 0.0
C3213 C 0.84254 0.36374 0.5016 0.0
C3214 C 0.83855 0.37733 0.51368 0.0
C3215 C 0.83538 0.39451 0.5075 0.0
C3216 C 0.83618 0.37345 0.53258 0.0
C3217 C 0.84676 0.34521 0.50757 0.0
C3218 C 0.82187 0.36302 0.53798 0.0
C3219 C 0.81991 0.35842 0.5556 0.0
C3220 C 0.83223 0.36416 0.56822 0.0
C3221 C 0.84638 0.37495 0.56283 0.0
C3222 C 0.84829 0.37962 0.54513 0.0
H3223 H 0.85393 0.33757 0.49727 0.0
H3224 H 0.855 0.34526 0.51967 0.0
H3225 H 0.8341 0.33836 0.51054 0.0
H3226 H 0.81229 0.35827 0.52849 0.0
H3227 H 0.80882 0.35016 0.55927 0.0
H3228 H 0.1513 0.65031 0.56868 0.0
H3229 H 0.15117 0.64433 0.5371 0.0
H3230 H 0.18816 0.60119 0.54472 0.0
H3231 H 0.18833 0.60693 0.57637 0.0
H3232 H 0.19397 0.63615 0.51763 0.0
H3233 H 0.13571 0.59184 0.51043 0.0
H3234 H 0.13455 0.60933 0.52644 0.0
H3235 H 0.14993 0.59139 0.5296 0.0
C3236 C 0.15927 0.63943 0.5637 0.0
C3237 C 0.16989 0.62915 0.57506 0.0
C3238 C 0.15913 0.63601 0.54567 0.0
C3239 C 0.16959 0.62228 0.53868 0.0
C3240 C 0.17993 0.61177 0.54994 0.0
H3241 H 0.16632 0.60271 0.4239 0.0
H3242 H 0.17039 0.59651 0.45543 0.0
C3243 C 0.18002 0.61511 0.56801 0.0
C3244 C 0.17066 0.61998 0.51945 0.0
H3245 H 0.14762 0.60405 0.48435 0.0
C3246 C 0.18404 0.6289 0.51033 0.0
C3247 C 0.15787 0.61027 0.51007 0.0
C3248 C 0.14368 0.60004 0.51953 0.0
C3249 C 0.18434 0.62919 0.49193 0.0
C3250 C 0.17069 0.62062 0.48245 0.0
C3251 C 0.158 0.61071 0.49161 0.0
C3252 C 0.16812 0.62378 0.46341 0.0
C3253 C 0.19901 0.63915 0.48282 0.0
C3254 C 0.16511 0.64103 0.45756 0.0
C3255 C 0.16291 0.64457 0.43978 0.0
C3256 C 0.16329 0.63091 0.42732 0.0
C3257 C 0.16592 0.61351 0.43317 0.0
C3258 C 0.16825 0.60996 0.45114 0.0
H3259 H 0.2113 0.63945 0.49097 0.0
H3260 H 0.20234 0.63323 0.46989 0.0
H3261 H 0.19456 0.65296 0.4807 0.0
H3262 H 0.16454 0.65186 0.46679 0.0
H3263 H 0.16117 0.65815 0.43585 0.0
H3264 H 0.30371 0.12291 0.42524 0.0
H3265 H 0.2729 0.12229 0.41472 0.0
H3266 H 0.28862 0.14877 0.36722 0.0
H3267 H 0.31957 0.14937 0.37757 0.0
H3268 H 0.24897 0.14987 0.40355 0.0
H3269 H 0.26548 0.10243 0.35013 0.0
H3270 H 0.28048 0.10655 0.36816 0.0
H3271 H 0.27823 0.12233 0.35075 0.0
C3272 C 0.30063 0.12875 0.41261 0.0
C3273 C 0.31417 0.13604 0.40219 0.0
C3274 C 0.28299 0.1284 0.40664 0.0
C3275 C 0.27853 0.13524 0.39009 0.0
C3276 C 0.29184 0.14317 0.37992 0.0
H3277 H 0.16512 0.13942 0.35793 0.0
H3278 H 0.19631 0.14817 0.36184 0.0
C3279 C 0.3095 0.14357 0.38591 0.0
C3280 C 0.26007 0.13333 0.38331 0.0
H3281 H 0.23538 0.11089 0.35319 0.0
C3282 C 0.24597 0.14153 0.39241 0.0
C3283 C 0.25624 0.12233 0.36885 0.0
C3284 C 0.27084 0.11277 0.35892 0.0
C3285 C 0.22809 0.13868 0.38771 0.0
C3286 C 0.22424 0.12744 0.37342 0.0
C3287 C 0.23837 0.1196 0.36404 0.0
C3288 C 0.2057 0.12216 0.36921 0.0
C3289 C 0.21345 0.14705 0.39859 0.0
C3290 C 0.2008 0.10453 0.3713 0.0
C3291 C 0.1831 0.09947 0.36895 0.0
C3292 C 0.16987 0.11195 0.36443 0.0
C3293 C 0.17495 0.12949 0.36152 0.0
C3294 C 0.19274 0.13454 0.36386 0.0
H3295 H 0.21863 0.15278 0.41097 0.0
H3296 H 0.20698 0.15777 0.39093 0.0
H3297 H 0.20309 0.13726 0.4019 0.0
H3298 H 0.21059 0.09473 0.37534 0.0
H3299 H 0.17971 0.08584 0.37123 0.0
H3300 H 0.3763 0.67452 0.85457 0.0
H3301 H 0.3701 0.70562 0.86035 0.0
H3302 H 0.42429 0.71249 0.87786 0.0
H3303 H 0.4306 0.6813 0.87233 0.0
H3304 H 0.39844 0.72638 0.90114 0.0
H3305 H 0.38632 0.74897 0.83291 0.0
H3306 H 0.37381 0.72986 0.83885 0.0
H3307 H 0.39777 0.72855 0.83792 0.0
C3308 C 0.38699 0.68267 0.85942 0.0
C3309 C 0.40395 0.6754 0.86298 0.0
C3310 C 0.38343 0.70047 0.86268 0.0
C3311 C 0.39678 0.71139 0.86941 0.0
C3312 C 0.41381 0.70428 0.87267 0.0
H3313 H 0.39362 0.82314 0.896 0.0
H3314 H 0.40208 0.79184 0.89641 0.0
C3315 C 0.41739 0.68646 0.86944 0.0
C3316 C 0.39266 0.73004 0.87368 0.0
H3317 H 0.37709 0.76836 0.85574 0.0
C3318 C 0.3939 0.73564 0.89122 0.0
C3319 C 0.38687 0.74209 0.86069 0.0
C3320 C 0.38626 0.73716 0.84151 0.0
C3321 C 0.38881 0.7528 0.89621 0.0
C3322 C 0.38246 0.76463 0.88328 0.0
C3323 C 0.38171 0.75916 0.86569 0.0
C3324 C 0.37635 0.78278 0.88744 0.0
C3325 C 0.38973 0.75799 0.91528 0.0
C3326 C 0.35891 0.78799 0.88295 0.0
C3327 C 0.35413 0.80579 0.88269 0.0
C3328 C 0.36664 0.81864 0.8871 0.0
C3329 C 0.38359 0.81339 0.89312 0.0
C3330 C 0.38846 0.79553 0.89322 0.0
H3331 H 0.3914 0.74638 0.92401 0.0
H3332 H 0.4013 0.76675 0.91729 0.0
H3333 H 0.37748 0.76536 0.91923 0.0
H3334 H 0.34939 0.77839 0.8784 0.0
H3335 H 0.34115 0.80959 0.87758 0.0
H3336 H 0.68377 0.84469 0.38044 0.0
H3337 H 0.71498 0.84504 0.37068 0.0
H3338 H 0.72503 0.88898 0.40494 0.0
H3339 H 0.69417 0.88843 0.41506 0.0
H3340 H 0.73333 0.87094 0.35409 0.0
H3341 H 0.76561 0.85634 0.41784 0.0
H3342 H 0.74201 0.85343 0.4143 0.0
H3343 H 0.75068 0.87488 0.41923 0.0
C3344 C 0.69269 0.85431 0.38601 0.0
C3345 C 0.68651 0.86644 0.39864 0.0
C3346 C 0.71051 0.8545 0.38041 0.0
C3347 C 0.72245 0.86682 0.38732 0.0
C3348 C 0.71623 0.87903 0.39979 0.0
H3349 H 0.81931 0.9138 0.35554 0.0
H3350 H 0.78835 0.90499 0.36009 0.0
C3351 C 0.69852 0.87875 0.4055 0.0
C3352 C 0.74123 0.86749 0.38108 0.0
H3353 H 0.78434 0.86885 0.39557 0.0
C3354 C 0.7445 0.87024 0.36313 0.0
C3355 C 0.75584 0.86635 0.39283 0.0
C3356 C 0.75338 0.8624 0.41209 0.0
C3357 C 0.76191 0.87279 0.35679 0.0
C3358 C 0.77632 0.87265 0.36871 0.0
C3359 C 0.77319 0.86908 0.38649 0.0
C3360 C 0.79464 0.87734 0.3633 0.0
C3361 C 0.76485 0.87587 0.33746 0.0
C3362 C 0.80835 0.86463 0.36331 0.0
C3363 C 0.82608 0.86959 0.36059 0.0
C3364 C 0.83039 0.88741 0.35813 0.0
C3365 C 0.81648 0.89998 0.35742 0.0
C3366 C 0.79876 0.89498 0.35996 0.0
H3367 H 0.75279 0.87281 0.32959 0.0
H3368 H 0.76828 0.88987 0.33528 0.0
H3369 H 0.77622 0.86768 0.33268 0.0
H3370 H 0.80539 0.85096 0.36596 0.0
H3371 H 0.83646 0.85957 0.36124 0.0
H3372 H 0.65776 0.18935 0.8852 0.0
H3373 H 0.64898 0.22045 0.88435 0.0
H3374 H 0.59359 0.20583 0.88775 0.0
H3375 H 0.60249 0.17478 0.88941 0.0
H3376 H 0.62993 0.23142 0.85638 0.0
H3377 H 0.59325 0.25001 0.91703 0.0
H3378 H 0.60725 0.23054 0.91575 0.0
H3379 H 0.58513 0.23052 0.90658 0.0
C3380 C 0.6438 0.1929 0.88683 0.0
C3381 C 0.6308 0.17982 0.88777 0.0
C3382 C 0.63876 0.21063 0.88611 0.0
C3383 C 0.62062 0.21551 0.88598 0.0
C3384 C 0.60766 0.20247 0.88823 0.0
H3385 H 0.56777 0.31551 0.86045 0.0
H3386 H 0.57386 0.28418 0.86564 0.0
C3387 C 0.61275 0.18472 0.88926 0.0
C3388 C 0.61537 0.23365 0.88071 0.0
H3389 H 0.59148 0.27008 0.89313 0.0
C3390 C 0.62162 0.23991 0.86449 0.0
C3391 C 0.60417 0.24456 0.89106 0.0
C3392 C 0.59717 0.23865 0.90864 0.0
C3393 C 0.61714 0.25681 0.85842 0.0
C3394 C 0.60638 0.26794 0.869 0.0
C3395 C 0.59977 0.26155 0.88503 0.0
C3396 C 0.60258 0.28654 0.86414 0.0
C3397 C 0.62379 0.26241 0.84058 0.0
C3398 C 0.61668 0.29822 0.8613 0.0
C3399 C 0.61324 0.31603 0.85807 0.0
C3400 C 0.59562 0.32262 0.85798 0.0
C3401 C 0.58148 0.31084 0.86044 0.0
C3402 C 0.58494 0.29296 0.86347 0.0
H3403 H 0.62638 0.25087 0.83196 0.0
H3404 H 0.61408 0.27132 0.83394 0.0
H3405 H 0.63657 0.26948 0.84215 0.0
H3406 H 0.63041 0.2937 0.86219 0.0
H3407 H 0.62446 0.32475 0.85644 0.0
H3408 H 0.32854 0.88528 0.57191 0.0
H3409 H 0.2982 0.89598 0.57826 0.0
H3410 H 0.28454 0.84485 0.59843 0.0
H3411 H 0.31493 0.83433 0.59257 0.0
H3412 H 0.261 0.88499 0.57248 0.0
H3413 H 0.2836 0.8783 0.64174 0.0
H3414 H 0.29887 0.8785 0.62344 0.0
H3415 H 0.28641 0.85903 0.6283 0.0
C3416 C 0.31874 0.87608 0.57675 0.0
C3417 C 0.32393 0.85896 0.58164 0.0
C3418 C 0.3015 0.88226 0.5806 0.0
C3419 C 0.28933 0.8713 0.58923 0.0
C3420 C 0.29386 0.85357 0.59205 0.0
H3421 H 0.18848 0.88874 0.6433 0.0
H3422 H 0.2174 0.87686 0.63324 0.0
C3423 C 0.31111 0.84749 0.58843 0.0
C3424 C 0.27302 0.87884 0.59739 0.0
H3425 H 0.25382 0.88733 0.63726 0.0
C3426 C 0.25939 0.88552 0.58662 0.0
C3427 C 0.27109 0.87964 0.61587 0.0
C3428 C 0.28579 0.87362 0.62809 0.0
C3429 C 0.24365 0.89264 0.59388 0.0
C3430 C 0.24169 0.89332 0.61238 0.0
C3431 C 0.25535 0.88668 0.62311 0.0
C3432 C 0.22562 0.90108 0.6208 0.0
C3433 C 0.22913 0.89911 0.58168 0.0
C3434 C 0.22127 0.91884 0.61808 0.0
C3435 C 0.20498 0.92562 0.62398 0.0
C3436 C 0.19286 0.91483 0.6329 0.0
C3437 C 0.19782 0.89744 0.63692 0.0
C3438 C 0.21417 0.8906 0.63091 0.0
H3439 H 0.23072 0.89361 0.56825 0.0
H3440 H 0.21572 0.89559 0.58673 0.0
H3441 H 0.22974 0.91366 0.5807 0.0
H3442 H 0.2301 0.92724 0.61065 0.0
H3443 H 0.20128 0.939 0.62046 0.0
H3444 H 0.59661 0.69525 0.14122 0.0
H3445 H 0.60006 0.72636 0.13371 0.0
H3446 H 0.6573 0.71999 0.13488 0.0
H3447 H 0.65403 0.68888 0.14241 0.0
H3448 H 0.61962 0.75401 0.15149 0.0
H3449 H 0.64543 0.73932 0.08464 0.0
H3450 H 0.63368 0.72333 0.0977 0.0
H3451 H 0.65668 0.72796 0.10221 0.0
C3452 C 0.60995 0.7005 0.14007 0.0
C3453 C 0.62505 0.68954 0.14226 0.0
C3454 C 0.61187 0.71826 0.13575 0.0
C3455 C 0.62891 0.72532 0.13337 0.0
C3456 C 0.64402 0.71466 0.13633 0.0
H3457 H 0.67397 0.82589 0.12154 0.0
H3458 H 0.66803 0.79432 0.12018 0.0
C3459 C 0.64213 0.69693 0.14078 0.0
C3460 C 0.63091 0.74379 0.12756 0.0
H3461 H 0.64702 0.76912 0.09414 0.0
C3462 C 0.6254 0.75733 0.13888 0.0
C3463 C 0.63839 0.74803 0.11104 0.0
C3464 C 0.64376 0.73392 0.09809 0.0
C3465 C 0.62781 0.77506 0.13439 0.0
C3466 C 0.6357 0.77928 0.11807 0.0
C3467 C 0.64087 0.76577 0.10657 0.0
C3468 C 0.6401 0.79768 0.11372 0.0
C3469 C 0.62258 0.7892 0.14739 0.0
C3470 C 0.62659 0.80988 0.1094 0.0
C3471 C 0.63009 0.82794 0.1098 0.0
C3472 C 0.64706 0.83385 0.11468 0.0
C3473 C 0.6609 0.82157 0.11737 0.0
C3474 C 0.65748 0.80357 0.11675 0.0
H3475 H 0.61787 0.78366 0.16004 0.0
H3476 H 0.63413 0.79784 0.15002 0.0
H3477 H 0.61174 0.79754 0.14178 0.0
H3478 H 0.61307 0.80552 0.10712 0.0
H3479 H 0.61911 0.83721 0.10817 0.0
H3480 H 0.79351 0.07881 0.64703 0.0
H3481 H 0.76472 0.08296 0.63248 0.0
H3482 H 0.78896 0.06994 0.58273 0.0
H3483 H 0.81782 0.06543 0.59743 0.0
H3484 H 0.77383 0.10481 0.58577 0.0
H3485 H 0.72573 0.05409 0.60688 0.0
H3486 H 0.73893 0.06282 0.62446 0.0
H3487 H 0.74963 0.05046 0.60722 0.0
C3488 C 0.79244 0.07584 0.63316 0.0
C3489 C 0.80772 0.07145 0.62338 0.0
C3490 C 0.77601 0.0783 0.62483 0.0
C3491 C 0.77468 0.07666 0.60653 0.0
C3492 C 0.78967 0.07104 0.59689 0.0
H3493 H 0.67061 0.11168 0.56499 0.0
H3494 H 0.69945 0.09591 0.56487 0.0
C3495 C 0.80609 0.06827 0.60531 0.0
C3496 C 0.75869 0.08392 0.59752 0.0
H3497 H 0.71323 0.08177 0.59716 0.0
C3498 C 0.7606 0.09952 0.58784 0.0
C3499 C 0.74148 0.07705 0.60028 0.0
C3500 C 0.73877 0.06009 0.61015 0.0
C3501 C 0.74564 0.10904 0.58186 0.0
C3502 C 0.72837 0.10277 0.58563 0.0
C3503 C 0.7265 0.08656 0.59427 0.0
C3504 C 0.71219 0.11382 0.58288 0.0
C3505 C 0.74841 0.12611 0.57218 0.0
C3506 C 0.71002 0.12934 0.59265 0.0
C3507 C 0.69365 0.13827 0.59277 0.0
C3508 C 0.67918 0.13191 0.58304 0.0
C3509 C 0.68168 0.11705 0.5723 0.0
C3510 C 0.69806 0.10795 0.57237 0.0
H3511 H 0.76171 0.1264 0.56572 0.0
H3512 H 0.73791 0.12828 0.5621 0.0
H3513 H 0.74774 0.13718 0.58167 0.0
H3514 H 0.72062 0.13393 0.6011 0.0
H3515 H 0.69197 0.14955 0.60133 0.0
H3516 H 0.32439 0.17467 0.12315 0.0
H3517 H 0.32994 0.2063 0.12339 0.0
H3518 H 0.38398 0.19664 0.10602 0.0
H3519 H 0.37825 0.16491 0.1054 0.0
H3520 H 0.35645 0.21717 0.14695 0.0
H3521 H 0.36964 0.24219 0.07962 0.0
H3522 H 0.35737 0.22225 0.08362 0.0
H3523 H 0.38123 0.22227 0.08577 0.0
C3524 C 0.33711 0.17941 0.11841 0.0
C3525 C 0.3508 0.1675 0.11393 0.0
C3526 C 0.34035 0.19744 0.11875 0.0
C3527 C 0.35738 0.20381 0.11478 0.0
C3528 C 0.37066 0.19203 0.10885 0.0
H3529 H 0.40291 0.30757 0.13138 0.0
H3530 H 0.39933 0.27603 0.12646 0.0
C3531 C 0.36734 0.17393 0.10834 0.0
C3532 C 0.36185 0.22212 0.11962 0.0
H3533 H 0.37492 0.26171 0.10321 0.0
C3534 C 0.36044 0.22694 0.13738 0.0
C3535 C 0.36736 0.2347 0.10716 0.0
C3536 C 0.3689 0.23022 0.08794 0.0
C3537 C 0.36418 0.24407 0.143 0.0
C3538 C 0.36918 0.25682 0.13048 0.0
C3539 C 0.37102 0.2519 0.11277 0.0
C3540 C 0.37191 0.27549 0.13533 0.0
C3541 C 0.36294 0.2483 0.16232 0.0
C3542 C 0.35779 0.28558 0.14231 0.0
C3543 C 0.3598 0.30362 0.14522 0.0
C3544 C 0.37594 0.31192 0.14103 0.0
C3545 C 0.39028 0.30162 0.13471 0.0
C3546 C 0.38826 0.28359 0.13182 0.0
H3547 H 0.36415 0.23625 0.17052 0.0
H3548 H 0.37348 0.25764 0.16631 0.0
H3549 H 0.34975 0.25449 0.1651 0.0
H3550 H 0.34497 0.27965 0.14487 0.0
H3551 H 0.34846 0.31117 0.15002 0.0
H3552 H 0.10363 0.36317 0.18668 0.0
H3553 H 0.10849 0.36888 0.21794 0.0
H3554 H 0.07186 0.41301 0.21556 0.0
H3555 H 0.06657 0.40715 0.18455 0.0
H3556 H 0.1224 0.39966 0.23177 0.0
H3557 H 0.05481 0.38756 0.25912 0.0
H3558 H 0.06129 0.38038 0.23743 0.0
H3559 H 0.05548 0.40306 0.24136 0.0
C3560 C 0.09637 0.37388 0.19289 0.0
C3561 C 0.08471 0.38468 0.18312 0.0
C3562 C 0.09921 0.37718 0.21073 0.0
C3563 C 0.09045 0.39131 0.2191 0.0
C3564 C 0.0785 0.40184 0.20948 0.0
H3565 H 0.09618 0.41691 0.33166 0.0
H3566 H 0.09189 0.42245 0.30006 0.0
C3567 C 0.07555 0.39848 0.1917 0.0
C3568 C 0.09462 0.39557 0.23763 0.0
H3569 H 0.07652 0.39812 0.27869 0.0
C3570 C 0.11235 0.3994 0.24202 0.0
C3571 C 0.08143 0.39559 0.25094 0.0
C3572 C 0.06221 0.3913 0.24706 0.0
C3573 C 0.11737 0.40269 0.25944 0.0
C3574 C 0.10436 0.40184 0.27287 0.0
C3575 C 0.08647 0.39887 0.26837 0.0
C3576 C 0.10934 0.40112 0.29169 0.0
C3577 C 0.13665 0.40676 0.26327 0.0
C3578 C 0.12084 0.38763 0.2974 0.0
C3579 C 0.12327 0.38453 0.31523 0.0
C3580 C 0.11415 0.39473 0.3278 0.0
C3581 C 0.10346 0.40895 0.32222 0.0
C3582 C 0.10095 0.41204 0.30421 0.0
H3583 H 0.14294 0.41363 0.25202 0.0
H3584 H 0.138 0.41505 0.27519 0.0
H3585 H 0.14413 0.39425 0.26538 0.0
H3586 H 0.12712 0.37875 0.28809 0.0
H3587 H 0.13163 0.37348 0.31917 0.0
H3588 H 0.14053 0.62371 0.67011 0.0
H3589 H 0.1322 0.62377 0.70126 0.0
H3590 H 0.18664 0.63521 0.71524 0.0
H3591 H 0.19476 0.63583 0.68412 0.0
H3592 H 0.14323 0.60865 0.7339 0.0
H3593 H 0.15863 0.67977 0.72929 0.0
H3594 H 0.1573 0.66574 0.71025 0.0
H3595 H 0.17708 0.6656 0.72363 0.0
C3596 C 0.15085 0.62536 0.67991 0.0
C3597 C 0.16829 0.62962 0.67486 0.0
C3598 C 0.14606 0.62557 0.69767 0.0
C3599 C 0.15873 0.62997 0.71048 0.0
C3600 C 0.17661 0.63215 0.7055 0.0
H3601 H 0.15749 0.66026 0.8194 0.0
H3602 H 0.1646 0.65398 0.78869 0.0
C3603 C 0.18131 0.63224 0.68778 0.0
C3604 C 0.15293 0.63463 0.7285 0.0
H3605 H 0.15163 0.66885 0.75756 0.0
C3606 C 0.145 0.6218 0.73909 0.0
C3607 C 0.15499 0.65192 0.7351 0.0
C3608 C 0.16229 0.66661 0.72394 0.0
C3609 C 0.1397 0.62563 0.75639 0.0
C3610 C 0.14222 0.6428 0.76312 0.0
C3611 C 0.14984 0.65569 0.7524 0.0
C3612 C 0.13752 0.64758 0.78143 0.0
C3613 C 0.13187 0.61117 0.76746 0.0
C3614 C 0.11982 0.64669 0.78736 0.0
C3615 C 0.1157 0.65028 0.80491 0.0
C3616 C 0.1292 0.65494 0.81681 0.0
C3617 C 0.14677 0.65668 0.8106 0.0
C3618 C 0.15088 0.65303 0.79307 0.0
H3619 H 0.13464 0.59794 0.76181 0.0
H3620 H 0.13725 0.61156 0.78103 0.0
H3621 H 0.11717 0.61302 0.76819 0.0
H3622 H 0.10923 0.64299 0.77847 0.0
H3623 H 0.102 0.64898 0.80922 0.0
H3624 H 0.88932 0.62892 0.18519 0.0
H3625 H 0.88557 0.62386 0.21668 0.0
H3626 H 0.93429 0.59313 0.21759 0.0
H3627 H 0.93825 0.5982 0.18613 0.0
H3628 H 0.8825 0.58975 0.23214 0.0
H3629 H 0.93958 0.62688 0.25978 0.0
H3630 H 0.93121 0.6307 0.23787 0.0
H3631 H 0.9449 0.6117 0.24241 0.0
C3632 C 0.89939 0.6213 0.19211 0.0
C3633 C 0.91405 0.61391 0.18311 0.0
C3634 C 0.8972 0.61838 0.21011 0.0
C3635 C 0.90968 0.60817 0.21948 0.0
C3636 C 0.92462 0.60122 0.21066 0.0
H3637 H 0.90937 0.58646 0.33285 0.0
H3638 H 0.91591 0.58185 0.3015 0.0
C3639 C 0.92681 0.6041 0.19265 0.0
C3640 C 0.90645 0.60394 0.23821 0.0
H3641 H 0.92209 0.61079 0.2797 0.0
C3642 C 0.89121 0.59427 0.24255 0.0
C3643 C 0.91795 0.60964 0.25172 0.0
C3644 C 0.93427 0.62042 0.24782 0.0
C3645 C 0.88693 0.59048 0.26007 0.0
C3646 C 0.89805 0.59675 0.27364 0.0
C3647 C 0.91366 0.60586 0.26927 0.0
C3648 C 0.89257 0.59619 0.29234 0.0
C3649 C 0.87041 0.57998 0.26391 0.0
C3650 C 0.87707 0.6053 0.29753 0.0
C3651 C 0.87339 0.60792 0.31527 0.0
C3652 C 0.88508 0.60143 0.32819 0.0
C3653 C 0.89997 0.59126 0.32312 0.0
C3654 C 0.90379 0.58878 0.30525 0.0
H3655 H 0.86704 0.57122 0.25275 0.0
H3656 H 0.87209 0.57186 0.27592 0.0
H3657 H 0.85897 0.58915 0.26595 0.0
H3658 H 0.86843 0.61145 0.28787 0.0
H3659 H 0.86197 0.61602 0.31888 0.0
H3660 H 0.89857 0.35958 0.80953 0.0
H3661 H 0.89 0.36529 0.77912 0.0
H3662 H 0.84035 0.33837 0.78749 0.0
H3663 H 0.84864 0.33288 0.81809 0.0
H3664 H 0.88096 0.34375 0.75139 0.0
H3665 H 0.82377 0.38675 0.7703 0.0
H3666 H 0.84062 0.37969 0.78578 0.0
H3667 H 0.82295 0.36508 0.77965 0.0
C3668 C 0.88588 0.35472 0.8049 0.0
C3669 C 0.87418 0.34597 0.81633 0.0
C3670 C 0.88101 0.35802 0.78749 0.0
C3671 C 0.86435 0.35267 0.78118 0.0
C3672 C 0.85306 0.34305 0.79224 0.0
H3673 H 0.81204 0.34915 0.68259 0.0
H3674 H 0.81996 0.34979 0.7137 0.0
C3675 C 0.85789 0.33979 0.80969 0.0
C3676 C 0.85868 0.35747 0.76313 0.0
H3677 H 0.82606 0.37912 0.74003 0.0
C3678 C 0.86907 0.35163 0.7489 0.0
C3679 C 0.84322 0.36789 0.75994 0.0
C3680 C 0.83207 0.37538 0.77472 0.0
C3681 C 0.86405 0.35539 0.73154 0.0
C3682 C 0.84837 0.36543 0.72837 0.0
C3683 C 0.83814 0.37154 0.74256 0.0
C3684 C 0.84156 0.36812 0.71034 0.0
C3685 C 0.87516 0.34808 0.71663 0.0
C3686 C 0.85053 0.37894 0.69834 0.0
C3687 C 0.84579 0.37884 0.68055 0.0
C3688 C 0.83219 0.36775 0.67465 0.0
C3689 C 0.82247 0.35791 0.6869 0.0
C3690 C 0.82703 0.35821 0.70463 0.0
H3691 H 0.88564 0.33873 0.72128 0.0
H3692 H 0.86653 0.34123 0.70702 0.0
H3693 H 0.88177 0.35906 0.70966 0.0
H3694 H 0.86177 0.38671 0.70258 0.0
H3695 H 0.85367 0.38628 0.67128 0.0
H3696 H 0.69723 0.84692 0.59907 0.0
H3697 H 0.72836 0.85605 0.60114 0.0
H3698 H 0.71221 0.91012 0.59333 0.0
H3699 H 0.681 0.90115 0.5913 0.0
H3700 H 0.75011 0.87566 0.57693 0.0
H3701 H 0.73978 0.90994 0.64076 0.0
H3702 H 0.72392 0.89453 0.63203 0.0
H3703 H 0.72506 0.91639 0.6232 0.0
C3704 C 0.70029 0.86074 0.59766 0.0
C3705 C 0.68662 0.87332 0.59516 0.0
C3706 C 0.71808 0.86593 0.59883 0.0
C3707 C 0.72251 0.88377 0.59766 0.0
C3708 C 0.709 0.89631 0.59454 0.0
H3709 H 0.82831 0.93106 0.61135 0.0
H3710 H 0.79653 0.92731 0.60441 0.0
C3711 C 0.6912 0.89113 0.59328 0.0
C3712 C 0.74124 0.8892 0.60022 0.0
H3713 H 0.76877 0.91046 0.62876 0.0
C3714 C 0.75419 0.88337 0.58818 0.0
C3715 C 0.74647 0.89926 0.61494 0.0
C3716 C 0.73316 0.90532 0.62858 0.0
C3717 C 0.77231 0.88716 0.5906 0.0
C3718 C 0.77757 0.89685 0.60552 0.0
C3719 C 0.7646 0.9031 0.61731 0.0
C3720 C 0.79659 0.89937 0.60981 0.0
C3721 C 0.78578 0.88061 0.57734 0.0
C3722 C 0.80692 0.88496 0.61543 0.0
C3723 C 0.82489 0.88707 0.61957 0.0
C3724 C 0.83294 0.90365 0.61808 0.0
C3725 C 0.8225 0.91813 0.61258 0.0
C3726 C 0.80439 0.91602 0.60861 0.0
H3727 H 0.77934 0.87668 0.56483 0.0
H3728 H 0.79582 0.89089 0.57454 0.0
H3729 H 0.79295 0.86897 0.58278 0.0
H3730 H 0.80104 0.87205 0.6166 0.0
H3731 H 0.83254 0.87562 0.62371 0.0
H3732 H 0.65636 0.19374 0.15609 0.0
H3733 H 0.6501 0.22521 0.15941 0.0
H3734 H 0.59979 0.21898 0.13279 0.0
H3735 H 0.60581 0.18742 0.12957 0.0
H3736 H 0.64256 0.25179 0.13447 0.0
H3737 H 0.58564 0.24163 0.17991 0.0
H3738 H 0.60138 0.2243 0.17447 0.0
H3739 H 0.58383 0.23014 0.1594 0.0
C3740 C 0.64399 0.19905 0.15084 0.0
C3741 C 0.63149 0.18802 0.14273 0.0
C3742 C 0.64045 0.21706 0.15275 0.0
C3743 C 0.62433 0.22435 0.14668 0.0
C3744 C 0.61215 0.21353 0.13792 0.0
H3745 H 0.57484 0.32471 0.13705 0.0
H3746 H 0.58245 0.29355 0.14021 0.0
C3747 C 0.61567 0.19552 0.13599 0.0
C3748 C 0.62013 0.24321 0.14978 0.0
H3749 H 0.5899 0.2708 0.16949 0.0
C3750 C 0.63117 0.25598 0.14228 0.0
C3751 C 0.6053 0.2486 0.16005 0.0
C3752 C 0.59342 0.23547 0.16907 0.0
C3753 C 0.62736 0.27402 0.14419 0.0
C3754 C 0.61233 0.27939 0.15419 0.0
C3755 C 0.60151 0.26663 0.16199 0.0
C3756 C 0.60657 0.29808 0.15505 0.0
C3757 C 0.63896 0.2872 0.13488 0.0
C3758 C 0.61717 0.31091 0.16312 0.0
C3759 C 0.61269 0.32881 0.16152 0.0
C3760 C 0.59764 0.33397 0.15174 0.0
C3761 C 0.58647 0.32103 0.14474 0.0
C3762 C 0.59083 0.30324 0.14647 0.0
H3763 H 0.64823 0.2808 0.12538 0.0
H3764 H 0.6306 0.29702 0.12775 0.0
H3765 H 0.64704 0.29438 0.14469 0.0
H3766 H 0.62928 0.30713 0.16997 0.0
H3767 H 0.62163 0.33858 0.16681 0.0
H3768 H 0.17249 0.06722 0.60898 0.0
H3769 H 0.20455 0.07131 0.60393 0.0
H3770 H 0.1997 0.12507 0.62162 0.0
H3771 H 0.16805 0.12091 0.6273 0.0
H3772 H 0.2219 0.09325 0.58235 0.0
H3773 H 0.24102 0.10871 0.65063 0.0
H3774 H 0.21949 0.09983 0.64517 0.0
H3775 H 0.22352 0.12308 0.64309 0.0
C3776 C 0.17834 0.07983 0.61198 0.0
C3777 C 0.16778 0.09365 0.61877 0.0
C3778 C 0.19663 0.08217 0.60905 0.0
C3779 C 0.20464 0.09839 0.61277 0.0
C3780 C 0.194 0.11226 0.61921 0.0
H3781 H 0.30423 0.15109 0.60054 0.0
H3782 H 0.27314 0.14218 0.60343 0.0
C3783 C 0.17584 0.10987 0.62237 0.0
C3784 C 0.22396 0.10115 0.60942 0.0
H3785 H 0.26188 0.11694 0.62829 0.0
C3786 C 0.23071 0.09821 0.59244 0.0
C3787 C 0.23551 0.10751 0.62263 0.0
C3788 C 0.22955 0.10978 0.64143 0.0
C3789 C 0.24847 0.10224 0.58813 0.0
C3790 C 0.25972 0.10932 0.60118 0.0
C3791 C 0.25313 0.11174 0.61825 0.0
C3792 C 0.2783 0.11477 0.59746 0.0
C3793 C 0.25487 0.09947 0.56956 0.0
C3794 C 0.29149 0.10234 0.59287 0.0
C3795 C 0.30932 0.1074 0.59115 0.0
C3796 C 0.31427 0.12497 0.59415 0.0
C3797 C 0.30091 0.13745 0.5982 0.0
C3798 C 0.28312 0.13239 0.59987 0.0
H3799 H 0.24363 0.09733 0.56032 0.0
H3800 H 0.26267 0.11094 0.56499 0.0
H3801 H 0.26376 0.0877 0.5691 0.0
H3802 H 0.28811 0.08861 0.59125 0.0
H3803 H 0.3193 0.09743 0.58812 0.0
H3804 H 0.37229 0.81425 0.15849 0.0
H3805 H 0.37709 0.78277 0.16277 0.0
H3806 H 0.38518 0.77603 0.10718 0.0
H3807 H 0.38031 0.80776 0.10262 0.0
H3808 H 0.35873 0.75064 0.13974 0.0
H3809 H 0.43249 0.7597 0.13967 0.0
H3810 H 0.4175 0.77722 0.14642 0.0
H3811 H 0.41878 0.77108 0.12376 0.0
C3812 C 0.37492 0.80613 0.14708 0.0
C3813 C 0.37607 0.81358 0.13018 0.0
C3814 C 0.37757 0.78811 0.14959 0.0
C3815 C 0.38147 0.77718 0.13531 0.0
C3816 C 0.38213 0.78436 0.11834 0.0
H3817 H 0.42487 0.67446 0.12424 0.0
H3818 H 0.41768 0.70551 0.12472 0.0
C3819 C 0.37939 0.80246 0.11577 0.0
C3820 C 0.38616 0.75853 0.13849 0.0
H3821 H 0.42196 0.73126 0.14482 0.0
C3822 C 0.37252 0.74627 0.14081 0.0
C3823 C 0.40415 0.75308 0.13995 0.0
C3824 C 0.41918 0.76587 0.13737 0.0
C3825 C 0.37646 0.7284 0.14402 0.0
C3826 C 0.39456 0.7229 0.14568 0.0
C3827 C 0.40811 0.73542 0.14373 0.0
C3828 C 0.39995 0.70403 0.14714 0.0
C3829 C 0.36124 0.71558 0.14478 0.0
C3830 C 0.39303 0.69269 0.16007 0.0
C3831 C 0.39678 0.67452 0.1595 0.0
C3832 C 0.40785 0.66766 0.14624 0.0
C3833 C 0.41615 0.67934 0.13455 0.0
C3834 C 0.41202 0.69718 0.13479 0.0
H3835 H 0.34875 0.72128 0.13922 0.0
H3836 H 0.36458 0.70333 0.13748 0.0
H3837 H 0.35857 0.71207 0.15866 0.0
H3838 H 0.38422 0.69776 0.17018 0.0
H3839 H 0.39021 0.66581 0.16864 0.0
H3840 H 0.69156 0.14225 0.42355 0.0
H3841 H 0.72019 0.14004 0.40838 0.0
H3842 H 0.69568 0.16001 0.3611 0.0
H3843 H 0.66698 0.16258 0.37648 0.0
H3844 H 0.71015 0.1251 0.35891 0.0
H3845 H 0.75963 0.17093 0.38685 0.0
H3846 H 0.74646 0.15993 0.40312 0.0
H3847 H 0.73582 0.17496 0.38808 0.0
C3848 C 0.69256 0.14724 0.41026 0.0
C3849 C 0.67718 0.15286 0.40126 0.0
C3850 C 0.7089 0.14584 0.40154 0.0
C3851 C 0.71009 0.14989 0.38361 0.0
C3852 C 0.69508 0.15699 0.37498 0.0
H3853 H 0.81361 0.11935 0.33766 0.0
H3854 H 0.78509 0.13554 0.33975 0.0
C3855 C 0.67875 0.15869 0.38384 0.0
C3856 C 0.72586 0.14362 0.37352 0.0
H3857 H 0.77138 0.14465 0.37319 0.0
C3858 C 0.72352 0.12968 0.36166 0.0
C3859 C 0.74328 0.14955 0.37715 0.0
C3860 C 0.74649 0.16478 0.38938 0.0
C3861 C 0.73822 0.12079 0.35422 0.0
C3862 C 0.75568 0.12598 0.35875 0.0
C3863 C 0.75799 0.14067 0.3697 0.0
C3864 C 0.77161 0.11511 0.35424 0.0
C3865 C 0.73492 0.10547 0.3421 0.0
C3866 C 0.77329 0.09809 0.36122 0.0
C3867 C 0.78947 0.0889 0.36004 0.0
C3868 C 0.80427 0.0965 0.35179 0.0
C3869 C 0.80227 0.11302 0.3437 0.0
C3870 C 0.78607 0.12235 0.34507 0.0
H3871 H 0.72168 0.10665 0.33561 0.0
H3872 H 0.74544 0.10443 0.33186 0.0
H3873 H 0.73506 0.0931 0.34985 0.0
H3874 H 0.76247 0.09238 0.36866 0.0
H3875 H 0.79078 0.07632 0.36666 0.0
H3876 H 0.34078 0.32325 0.84359 0.0
H3877 H 0.33685 0.29117 0.84369 0.0
H3878 H 0.39327 0.28393 0.85287 0.0
H3879 H 0.3971 0.31589 0.85307 0.0
H3880 H 0.35324 0.26096 0.82601 0.0
H3881 H 0.36857 0.26392 0.89725 0.0
H3882 H 0.36356 0.28331 0.88439 0.0
H3883 H 0.38535 0.27322 0.88331 0.0
C3884 C 0.35242 0.31473 0.84475 0.0
C3885 C 0.36929 0.32189 0.84796 0.0
C3886 C 0.35015 0.29646 0.84503 0.0
C3887 C 0.36473 0.28524 0.84864 0.0
C3888 C 0.38182 0.29239 0.85032 0.0
H3889 H 0.38039 0.17498 0.87243 0.0
H3890 H 0.38289 0.20685 0.8687 0.0
C3891 C 0.38406 0.3106 0.85015 0.0
C3892 C 0.36189 0.26634 0.85235 0.0
H3893 H 0.36552 0.23551 0.88485 0.0
C3894 C 0.35583 0.25537 0.83887 0.0
C3895 C 0.36518 0.25916 0.86921 0.0
C3896 C 0.37087 0.27051 0.88444 0.0
C3897 C 0.3535 0.23726 0.84165 0.0
C3898 C 0.35701 0.23004 0.85846 0.0
C3899 C 0.36288 0.24106 0.87199 0.0
C3900 C 0.35506 0.21098 0.86213 0.0
C3901 C 0.34778 0.22592 0.82644 0.0
C3902 C 0.33844 0.20284 0.86035 0.0
C3903 C 0.33697 0.18464 0.86243 0.0
C3904 C 0.35206 0.17424 0.8665 0.0
C3905 C 0.3685 0.18258 0.86924 0.0
C3906 C 0.36997 0.20079 0.86708 0.0
H3907 H 0.3498 0.23261 0.81364 0.0
H3908 H 0.35529 0.21324 0.82633 0.0
H3909 H 0.33337 0.22299 0.82775 0.0
H3910 H 0.32667 0.21053 0.85699 0.0
H3911 H 0.32407 0.17867 0.86042 0.0
H3912 H 0.19063 0.88578 0.3346 0.0
H3913 H 0.21968 0.87041 0.33593 0.0
H3914 H 0.23789 0.90796 0.37421 0.0
H3915 H 0.20915 0.92329 0.37282 0.0
H3916 H 0.26473 0.89679 0.35018 0.0
H3917 H 0.22854 0.84101 0.38105 0.0
H3918 H 0.22154 0.84791 0.35953 0.0
H3919 H 0.21817 0.86231 0.37792 0.0
C3920 C 0.20113 0.89114 0.34271 0.0
C3921 C 0.19772 0.90571 0.3536 0.0
C3922 C 0.2176 0.88222 0.34365 0.0
C3923 C 0.23079 0.88786 0.35543 0.0
C3924 C 0.2279 0.90334 0.36507 0.0
H3925 H 0.30944 0.85828 0.42486 0.0
H3926 H 0.28181 0.86261 0.40828 0.0
C3927 C 0.2115 0.91214 0.36422 0.0
C3928 C 0.24681 0.87692 0.35944 0.0
H3929 H 0.25977 0.84048 0.38273 0.0
C3930 C 0.26372 0.88423 0.35685 0.0
C3931 C 0.24537 0.86066 0.36843 0.0
C3932 C 0.22747 0.85247 0.37205 0.0
C3933 C 0.27916 0.87615 0.36371 0.0
C3934 C 0.27764 0.86028 0.37329 0.0
C3935 C 0.26086 0.85252 0.37518 0.0
C3936 C 0.29285 0.85331 0.38371 0.0
C3937 C 0.29686 0.88524 0.36176 0.0
C3938 C 0.30786 0.84564 0.37558 0.0
C3939 C 0.32358 0.84274 0.3852 0.0
C3940 C 0.32447 0.84775 0.40293 0.0
C3941 C 0.30896 0.85401 0.4113 0.0
C3942 C 0.29323 0.85663 0.4018 0.0
H3943 H 0.2956 0.89805 0.3548 0.0
H3944 H 0.30283 0.88758 0.37488 0.0
H3945 H 0.30621 0.87666 0.35428 0.0
H3946 H 0.3078 0.84302 0.36161 0.0
H3947 H 0.33549 0.83833 0.37834 0.0
H3948 H 0.66182 0.67696 0.84913 0.0
H3949 H 0.66386 0.70909 0.84853 0.0
H3950 H 0.60651 0.71316 0.8447 0.0
H3951 H 0.60448 0.68098 0.84578 0.0
H3952 H 0.65198 0.73797 0.82812 0.0
H3953 H 0.61791 0.73466 0.89284 0.0
H3954 H 0.62633 0.71535 0.88169 0.0
H3955 H 0.60557 0.72536 0.87497 0.0
C3956 C 0.64975 0.68473 0.8473 0.0
C3957 C 0.63301 0.67663 0.8473 0.0
C3958 C 0.6509 0.70306 0.84712 0.0
C3959 C 0.6353 0.71346 0.84703 0.0
C3960 C 0.61867 0.70533 0.8451 0.0
H3961 H 0.61641 0.82423 0.86821 0.0
H3962 H 0.61366 0.79269 0.86267 0.0
C3963 C 0.61753 0.68698 0.8454 0.0
C3964 C 0.63637 0.73247 0.85114 0.0
H3965 H 0.62487 0.76295 0.88224 0.0
C3966 C 0.64602 0.74346 0.83991 0.0
C3967 C 0.62879 0.73952 0.86671 0.0
C3968 C 0.61921 0.72812 0.87986 0.0
C3969 C 0.64801 0.76143 0.84364 0.0
C3970 C 0.64035 0.76848 0.85915 0.0
C3971 C 0.63068 0.75749 0.87036 0.0
C3972 C 0.64206 0.7873 0.86383 0.0
C3973 C 0.65807 0.77278 0.83084 0.0
C3974 C 0.65888 0.79457 0.86699 0.0
C3975 C 0.66052 0.8126 0.87014 0.0
C3976 C 0.64533 0.82364 0.87031 0.0
C3977 C 0.6284 0.81612 0.86808 0.0
C3978 C 0.62679 0.7981 0.86488 0.0
H3979 H 0.65941 0.7664 0.81779 0.0
H3980 H 0.65131 0.78575 0.82915 0.0
H3981 H 0.67169 0.77512 0.836 0.0
H3982 H 0.67079 0.78635 0.86669 0.0
H3983 H 0.67373 0.81794 0.872 0.0
H3984 H 0.89068 0.65092 0.83168 0.0
H3985 H 0.88643 0.65399 0.79975 0.0
H3986 H 0.93107 0.61881 0.79077 0.0
H3987 H 0.93512 0.61552 0.82241 0.0
H3988 H 0.91041 0.66197 0.7689 0.0
H3989 H 0.8857 0.59337 0.77133 0.0
H3990 H 0.88781 0.60689 0.79068 0.0
H3991 H 0.90719 0.59642 0.78127 0.0
C3992 C 0.89999 0.64447 0.82283 0.0
C3993 C 0.91325 0.63304 0.82938 0.0
C3994 C 0.89747 0.64609 0.80465 0.0
C3995 C 0.90824 0.63634 0.79298 0.0
C3996 C 0.92249 0.62624 0.79958 0.0
H3997 H 0.91429 0.61044 0.68312 0.0
H3998 H 0.91821 0.61337 0.71493 0.0
C3999 C 0.92488 0.62449 0.81762 0.0
C4000 C 0.90366 0.63504 0.77414 0.0
H4001 H 0.89085 0.60541 0.74299 0.0
C4002 C 0.90596 0.6497 0.76322 0.0
C4003 C 0.89778 0.61898 0.76684 0.0
C4004 C 0.8943 0.60304 0.77813 0.0
C4005 C 0.90312 0.6485 0.74502 0.0
C4006 C 0.89773 0.6323 0.73769 0.0
C4007 C 0.89509 0.61777 0.74867 0.0
C4008 C 0.89498 0.63013 0.71859 0.0
C4009 C 0.90638 0.66438 0.73363 0.0
C4010 C 0.88039 0.63825 0.71027 0.0
C4011 C 0.87803 0.6365 0.69216 0.0
C4012 C 0.89026 0.62663 0.68203 0.0
C4013 C 0.90465 0.61817 0.69052 0.0
C4014 C 0.90693 0.61984 0.70867 0.0
H4015 H 0.91302 0.67512 0.74094 0.0
H4016 H 0.91477 0.66069 0.72216 0.0
H4017 H 0.89343 0.66947 0.72856 0.0
H4018 H 0.87089 0.64603 0.71777 0.0
H4019 H 0.86677 0.64316 0.68607 0.0
H4020 H 0.80903 0.36747 0.31131 0.0
H4021 H 0.81321 0.36148 0.27996 0.0
H4022 H 0.86813 0.34696 0.28953 0.0
H4023 H 0.86416 0.3529 0.32081 0.0
H4024 H 0.84014 0.37513 0.25495 0.0
H4025 H 0.84441 0.30288 0.26587 0.0
H4026 H 0.83492 0.31788 0.28183 0.0
H4027 H 0.85872 0.31591 0.27952 0.0
C4028 C 0.82205 0.36317 0.30673 0.0
C4029 C 0.8362 0.36047 0.31861 0.0
C4030 C 0.8244 0.35975 0.28883 0.0
C4031 C 0.84087 0.35345 0.28255 0.0
C4032 C 0.85523 0.35152 0.29421 0.0
H4033 H 0.89035 0.33995 0.18355 0.0
H4034 H 0.8823 0.34108 0.21467 0.0
C4035 C 0.85294 0.35501 0.31207 0.0
C4036 C 0.843 0.34839 0.26392 0.0
H4037 H 0.85197 0.31316 0.23732 0.0
C4038 C 0.84252 0.36158 0.25105 0.0
C4039 C 0.84598 0.33066 0.25891 0.0
C4040 C 0.84591 0.31595 0.27221 0.0
C4041 C 0.84565 0.35755 0.23333 0.0
C4042 C 0.84924 0.33991 0.22844 0.0
C4043 C 0.84918 0.32665 0.24119 0.0
C4044 C 0.85444 0.33546 0.21029 0.0
C4045 C 0.84562 0.37216 0.21991 0.0
C4046 C 0.84154 0.33106 0.19772 0.0
C4047 C 0.8462 0.33007 0.17993 0.0
C4048 C 0.86376 0.3336 0.17466 0.0
C4049 C 0.87682 0.33683 0.18741 0.0
C4050 C 0.87222 0.33762 0.20512 0.0
H4051 H 0.84139 0.385 0.22562 0.0
H4052 H 0.85924 0.37354 0.21435 0.0
H4053 H 0.83653 0.36888 0.20891 0.0
H4054 H 0.82771 0.32949 0.20154 0.0
H4055 H 0.83584 0.32808 0.17024 0.0
H4056 H 0.10761 0.34762 0.82873 0.0
H4057 H 0.10953 0.3444 0.79659 0.0
H4058 H 0.06894 0.38466 0.7904 0.0
H4059 H 0.06706 0.38787 0.82218 0.0
H4060 H 0.06641 0.35661 0.76591 0.0
H4061 H 0.1342 0.3857 0.77018 0.0
H4062 H 0.13052 0.36588 0.78252 0.0
H4063 H 0.11889 0.38577 0.78847 0.0
C4064 C 0.09868 0.35525 0.82045 0.0
C4065 C 0.08719 0.36798 0.82777 0.0
C4066 C 0.09991 0.35357 0.80216 0.0
C4067 C 0.08956 0.36452 0.79118 0.0
C4068 C 0.07705 0.37613 0.79863 0.0
H4069 H 0.10611 0.41024 0.68914 0.0
H4070 H 0.1026 0.40387 0.72052 0.0
C4071 C 0.07596 0.37792 0.81676 0.0
C4072 C 0.09283 0.36554 0.77207 0.0
H4073 H 0.12249 0.38119 0.74196 0.0
C4074 C 0.07876 0.36172 0.7606 0.0
C4075 C 0.10878 0.3727 0.76532 0.0
C4076 C 0.12396 0.3779 0.7772 0.0
C4077 C 0.08012 0.36507 0.74254 0.0
C4078 C 0.09612 0.37211 0.73577 0.0
C4079 C 0.11028 0.37573 0.74721 0.0
C4080 C 0.09834 0.37598 0.71686 0.0
C4081 C 0.06416 0.36169 0.73098 0.0
C4082 C 0.09732 0.36239 0.7045 0.0
C4083 C 0.09918 0.36599 0.68665 0.0
C4084 C 0.10232 0.38326 0.68079 0.0
C4085 C 0.10364 0.39684 0.69322 0.0
C4086 C 0.10168 0.39321 0.71113 0.0
H4087 H 0.05164 0.36074 0.73873 0.0
H4088 H 0.06247 0.37228 0.72105 0.0
H4089 H 0.06618 0.34904 0.72394 0.0
H4090 H 0.09515 0.34895 0.70866 0.0
H4091 H 0.09827 0.35517 0.67747 0.0
H4092 H 0.19387 0.65273 0.31509 0.0
H4093 H 0.18883 0.6574 0.28371 0.0
H4094 H 0.13656 0.6347 0.28833 0.0
H4095 H 0.1414 0.63004 0.31975 0.0
H4096 H 0.17808 0.63406 0.25492 0.0
H4097 H 0.12813 0.68632 0.27066 0.0
H4098 H 0.14384 0.6779 0.28664 0.0
H4099 H 0.1244 0.66546 0.28108 0.0
C4100 C 0.1814 0.64845 0.3094 0.0
C4101 C 0.16792 0.64124 0.31999 0.0
C4102 C 0.17857 0.65114 0.29146 0.0
C4103 C 0.1622 0.64674 0.28382 0.0
C4104 C 0.14918 0.63846 0.29408 0.0
H4105 H 0.10981 0.6512 0.18569 0.0
H4106 H 0.11861 0.6511 0.21655 0.0
C4107 C 0.15201 0.63572 0.31202 0.0
C4108 C 0.15826 0.65183 0.26546 0.0
H4109 H 0.13062 0.67791 0.24075 0.0
C4110 C 0.16785 0.64376 0.25178 0.0
C4111 C 0.14499 0.66461 0.26148 0.0
C4112 C 0.13482 0.67422 0.27571 0.0
C4113 C 0.16395 0.6476 0.23413 0.0
C4114 C 0.15037 0.66009 0.23017 0.0
C4115 C 0.14111 0.66846 0.24387 0.0
C4116 C 0.14423 0.66309 0.21193 0.0
C4117 C 0.17379 0.63773 0.21984 0.0
C4118 C 0.15537 0.67072 0.19924 0.0
C4119 C 0.15019 0.67107 0.18156 0.0
C4120 C 0.13389 0.66369 0.17647 0.0
C4121 C 0.12234 0.65716 0.18937 0.0
C4122 C 0.1274 0.65699 0.20696 0.0
H4123 H 0.18198 0.62667 0.22513 0.0
H4124 H 0.16423 0.63243 0.2101 0.0
H4125 H 0.18279 0.64688 0.21285 0.0
H4126 H 0.16836 0.67564 0.20289 0.0
H4127 H 0.15947 0.67583 0.17178 0.0
loop_
_geom_bond_atom_site_label_1
_geom_bond_atom_site_label_2
_geom_bond_distance
_geom_bond_site_symmetry_2
_ccdc_geom_bond_type
Mg0 O1 2.028 . S
Mg0 O7 1.986 . S
Mg0 O9 2.114 . S
Mg0 O10 2.251 . S
Mg0 O13 2.010 . S
O1 Mg0 2.028 . S
O1 C4 1.250 . S
O2 Mg3 2.028 . S
O2 C4 1.248 . S
Mg3 O2 2.028 . S
Mg3 O8 2.032 . S
Mg3 O10 2.079 . S
C4 O1 1.250 . S
C4 O2 1.248 . S
C5 O6 1.264 . S
C5 O13 1.249 . S
O6 C5 1.264 . S
O7 Mg0 1.986 . S
O7 C11 1.246 . S
O8 Mg3 2.032 . S
O8 C11 1.259 . S
O9 Mg0 2.114 . S
O9 C12 1.252 . S
O10 Mg0 2.251 . S
O10 Mg3 2.079 . S
O10 C12 1.273 . S
C11 O7 1.246 . S
C11 O8 1.259 . S
C12 O9 1.252 . S
C12 O10 1.273 . S
O13 Mg0 2.010 . S
O13 C5 1.249 . S
Mg14 O15 2.028 . S
Mg14 O21 1.986 . S
Mg14 O23 2.114 . S
Mg14 O24 2.251 . S
Mg14 O27 2.010 . S
O15 Mg14 2.028 . S
O15 C18 1.250 . S
O16 Mg17 2.028 . S
O16 C18 1.248 . S
Mg17 O16 2.028 . S
Mg17 O22 2.032 . S
Mg17 O24 2.079 . S
C18 O15 1.250 . S
C18 O16 1.248 . S
C19 O20 1.264 . S
C19 O27 1.249 . S
O20 C19 1.264 . S
O21 Mg14 1.986 . S
O21 C25 1.246 . S
O22 Mg17 2.032 . S
O22 C25 1.259 . S
O23 Mg14 2.114 . S
O23 C26 1.252 . S
O24 Mg14 2.251 . S
O24 Mg17 2.079 . S
O24 C26 1.273 . S
C25 O21 1.246 . S
C25 O22 1.259 . S
C26 O23 1.252 . S
C26 O24 1.273 . S
O27 Mg14 2.010 . S
O27 C19 1.249 . S
Mg28 O29 2.028 . S
Mg28 O35 1.986 . S
Mg28 O37 2.114 . S
Mg28 O38 2.251 . S
Mg28 O41 2.010 . S
O29 Mg28 2.028 . S
O29 C32 1.250 . S
O30 Mg31 2.028 . S
O30 C32 1.248 . S
Mg31 O30 2.028 . S
Mg31 O36 2.032 . S
Mg31 O38 2.079 . S
C32 O29 1.250 . S
C32 O30 1.248 . S
C33 O34 1.264 . S
C33 O41 1.249 . S
O34 C33 1.264 . S
O35 Mg28 1.986 . S
O35 C39 1.246 . S
O36 Mg31 2.032 . S
O36 C39 1.259 . S
O37 Mg28 2.114 . S
O37 C40 1.252 . S
O38 Mg28 2.251 . S
O38 Mg31 2.079 . S
O38 C40 1.273 . S
C39 O35 1.246 . S
C39 O36 1.259 . S
C40 O37 1.252 . S
C40 O38 1.273 . S
O41 Mg28 2.010 . S
O41 C33 1.249 . S
Mg42 O43 2.028 . S
Mg42 O49 1.986 . S
Mg42 O51 2.114 . S
Mg42 O52 2.251 . S
Mg42 O55 2.010 . S
O43 Mg42 2.028 . S
O43 C46 1.250 . S
O44 Mg45 2.028 . S
O44 C46 1.248 . S
Mg45 O44 2.028 . S
Mg45 O50 2.032 . S
Mg45 O52 2.079 . S
C46 O43 1.250 . S
C46 O44 1.248 . S
C47 O48 1.264 . S
C47 O55 1.249 . S
O48 C47 1.264 . S
O49 Mg42 1.986 . S
O49 C53 1.246 . S
O50 Mg45 2.032 . S
O50 C53 1.259 . S
O51 Mg42 2.114 . S
O51 C54 1.252 . S
O52 Mg42 2.251 . S
O52 Mg45 2.079 . S
O52 C54 1.273 . S
C53 O49 1.246 . S
C53 O50 1.259 . S
C54 O51 1.252 . S
C54 O52 1.273 . S
O55 Mg42 2.010 . S
O55 C47 1.249 . S
Mg56 O57 2.028 . S
Mg56 O63 1.986 . S
Mg56 O65 2.114 . S
Mg56 O66 2.251 . S
Mg56 O69 2.010 . S
O57 Mg56 2.028 . S
O57 C60 1.250 . S
O58 Mg59 2.028 . S
O58 C60 1.248 . S
Mg59 O58 2.028 . S
Mg59 O64 2.032 . S
Mg59 O66 2.079 . S
C60 O57 1.250 . S
C60 O58 1.248 . S
C61 O62 1.264 . S
C61 O69 1.249 . S
O62 C61 1.264 . S
O63 Mg56 1.986 . S
O63 C67 1.246 . S
O64 Mg59 2.032 . S
O64 C67 1.259 . S
O65 Mg56 2.114 . S
O65 C68 1.252 . S
O66 Mg56 2.251 . S
O66 Mg59 2.079 . S
O66 C68 1.273 . S
C67 O63 1.246 . S
C67 O64 1.259 . S
C68 O65 1.252 . S
C68 O66 1.273 . S
O69 Mg56 2.010 . S
O69 C61 1.249 . S
Mg70 O71 2.028 . S
Mg70 O77 1.986 . S
Mg70 O79 2.114 . S
Mg70 O80 2.251 . S
Mg70 O83 2.010 . S
O71 Mg70 2.028 . S
O71 C74 1.250 . S
O72 Mg73 2.028 . S
O72 C74 1.248 . S
Mg73 O72 2.028 . S
Mg73 O78 2.032 . S
Mg73 O80 2.079 . S
C74 O71 1.250 . S
C74 O72 1.248 . S
C75 O76 1.264 . S
C75 O83 1.249 . S
O76 C75 1.264 . S
O77 Mg70 1.986 . S
O77 C81 1.246 . S
O78 Mg73 2.032 . S
O78 C81 1.259 . S
O79 Mg70 2.114 . S
O79 C82 1.252 . S
O80 Mg70 2.251 . S
O80 Mg73 2.079 . S
O80 C82 1.273 . S
C81 O77 1.246 . S
C81 O78 1.259 . S
C82 O79 1.252 . S
C82 O80 1.273 . S
O83 Mg70 2.010 . S
O83 C75 1.249 . S
Mg84 O85 2.028 . S
Mg84 O91 1.986 . S
Mg84 O93 2.114 . S
Mg84 O94 2.251 . S
Mg84 O97 2.010 . S
O85 Mg84 2.028 . S
O85 C88 1.250 . S
O86 Mg87 2.028 . S
O86 C88 1.248 . S
Mg87 O86 2.028 . S
Mg87 O92 2.032 . S
Mg87 O94 2.079 . S
C88 O85 1.250 . S
C88 O86 1.248 . S
C89 O90 1.264 . S
C89 O97 1.249 . S
O90 C89 1.264 . S
O91 Mg84 1.986 . S
O91 C95 1.246 . S
O92 Mg87 2.032 . S
O92 C95 1.259 . S
O93 Mg84 2.114 . S
O93 C96 1.252 . S
O94 Mg84 2.251 . S
O94 Mg87 2.079 . S
O94 C96 1.273 . S
C95 O91 1.246 . S
C95 O92 1.259 . S
C96 O93 1.252 . S
C96 O94 1.273 . S
O97 Mg84 2.010 . S
O97 C89 1.249 . S
Mg98 O99 2.028 . S
Mg98 O105 1.986 . S
Mg98 O107 2.114 . S
Mg98 O108 2.251 . S
Mg98 O111 2.010 . S
O99 Mg98 2.028 . S
O99 C102 1.250 . S
O100 Mg101 2.028 . S
O100 C102 1.248 . S
Mg101 O100 2.028 . S
Mg101 O106 2.032 . S
Mg101 O108 2.079 . S
C102 O99 1.250 . S
C102 O100 1.248 . S
C103 O104 1.264 . S
C103 O111 1.249 . S
O104 C103 1.264 . S
O105 Mg98 1.986 . S
O105 C109 1.246 . S
O106 Mg101 2.032 . S
O106 C109 1.259 . S
O107 Mg98 2.114 . S
O107 C110 1.252 . S
O108 Mg98 2.251 . S
O108 Mg101 2.079 . S
O108 C110 1.273 . S
C109 O105 1.246 . S
C109 O106 1.259 . S
C110 O107 1.252 . S
C110 O108 1.273 . S
O111 Mg98 2.010 . S
O111 C103 1.249 . S
Mg112 O113 2.028 . S
Mg112 O119 1.986 . S
Mg112 O121 2.114 . S
Mg112 O122 2.251 . S
Mg112 O125 2.010 . S
O113 Mg112 2.028 . S
O113 C116 1.250 . S
O114 Mg115 2.028 . S
O114 C116 1.248 . S
Mg115 O114 2.028 . S
Mg115 O120 2.032 . S
Mg115 O122 2.079 . S
C116 O113 1.250 . S
C116 O114 1.248 . S
C117 O118 1.264 . S
C117 O125 1.249 . S
O118 C117 1.264 . S
O119 Mg112 1.986 . S
O119 C123 1.246 . S
O120 Mg115 2.032 . S
O120 C123 1.259 . S
O121 Mg112 2.114 . S
O121 C124 1.252 . S
O122 Mg112 2.251 . S
O122 Mg115 2.079 . S
O122 C124 1.273 . S
C123 O119 1.246 . S
C123 O120 1.259 . S
C124 O121 1.252 . S
C124 O122 1.273 . S
O125 Mg112 2.010 . S
O125 C117 1.249 . S
Mg126 O127 2.028 . S
Mg126 O133 1.986 . S
Mg126 O135 2.114 . S
Mg126 O136 2.251 . S
Mg126 O139 2.010 . S
O127 Mg126 2.028 . S
O127 C130 1.250 . S
O128 Mg129 2.028 . S
O128 C130 1.248 . S
Mg129 O128 2.028 . S
Mg129 O134 2.032 . S
Mg129 O136 2.079 . S
C130 O127 1.250 . S
C130 O128 1.248 . S
C131 O132 1.264 . S
C131 O139 1.249 . S
O132 C131 1.264 . S
O133 Mg126 1.986 . S
O133 C137 1.246 . S
O134 Mg129 2.032 . S
O134 C137 1.259 . S
O135 Mg126 2.114 . S
O135 C138 1.252 . S
O136 Mg126 2.251 . S
O136 Mg129 2.079 . S
O136 C138 1.273 . S
C137 O133 1.246 . S
C137 O134 1.259 . S
C138 O135 1.252 . S
C138 O136 1.273 . S
O139 Mg126 2.010 . S
O139 C131 1.249 . S
Mg140 O141 2.028 . S
Mg140 O147 1.986 . S
Mg140 O149 2.114 . S
Mg140 O150 2.251 . S
Mg140 O153 2.010 . S
O141 Mg140 2.028 . S
O141 C144 1.250 . S
O142 Mg143 2.028 . S
O142 C144 1.248 . S
Mg143 O142 2.028 . S
Mg143 O148 2.032 . S
Mg143 O150 2.079 . S
C144 O141 1.250 . S
C144 O142 1.248 . S
C145 O146 1.264 . S
C145 O153 1.249 . S
O146 C145 1.264 . S
O147 Mg140 1.986 . S
O147 C151 1.246 . S
O148 Mg143 2.032 . S
O148 C151 1.259 . S
O149 Mg140 2.114 . S
O149 C152 1.252 . S
O150 Mg140 2.251 . S
O150 Mg143 2.079 . S
O150 C152 1.273 . S
C151 O147 1.246 . S
C151 O148 1.259 . S
C152 O149 1.252 . S
C152 O150 1.273 . S
O153 Mg140 2.010 . S
O153 C145 1.249 . S
Mg154 O155 2.028 . S
Mg154 O161 1.986 . S
Mg154 O163 2.114 . S
Mg154 O164 2.251 . S
Mg154 O167 2.010 . S
O155 Mg154 2.028 . S
O155 C158 1.250 . S
O156 Mg157 2.028 . S
O156 C158 1.248 . S
Mg157 O156 2.028 . S
Mg157 O162 2.032 . S
Mg157 O164 2.079 . S
C158 O155 1.250 . S
C158 O156 1.248 . S
C159 O160 1.264 . S
C159 O167 1.249 . S
O160 C159 1.264 . S
O161 Mg154 1.986 . S
O161 C165 1.246 . S
O162 Mg157 2.032 . S
O162 C165 1.259 . S
O163 Mg154 2.114 . S
O163 C166 1.252 . S
O164 Mg154 2.251 . S
O164 Mg157 2.079 . S
O164 C166 1.273 . S
C165 O161 1.246 . S
C165 O162 1.259 . S
C166 O163 1.252 . S
C166 O164 1.273 . S
O167 Mg154 2.010 . S
O167 C159 1.249 . S
Mg168 O169 2.028 . S
Mg168 O175 1.986 . S
Mg168 O177 2.114 . S
Mg168 O178 2.251 . S
Mg168 O181 2.010 . S
O169 Mg168 2.028 . S
O169 C172 1.250 . S
O170 Mg171 2.028 . S
O170 C172 1.248 . S
Mg171 O170 2.028 . S
Mg171 O176 2.032 . S
Mg171 O178 2.079 . S
C172 O169 1.250 . S
C172 O170 1.248 . S
C173 O174 1.264 . S
C173 O181 1.249 . S
O174 C173 1.264 . S
O175 Mg168 1.986 . S
O175 C179 1.246 . S
O176 Mg171 2.032 . S
O176 C179 1.259 . S
O177 Mg168 2.114 . S
O177 C180 1.252 . S
O178 Mg168 2.251 . S
O178 Mg171 2.079 . S
O178 C180 1.273 . S
C179 O175 1.246 . S
C179 O176 1.259 . S
C180 O177 1.252 . S
C180 O178 1.273 . S
O181 Mg168 2.010 . S
O181 C173 1.249 . S
Mg182 O183 2.028 . S
Mg182 O189 1.986 . S
Mg182 O191 2.114 . S
Mg182 O192 2.251 . S
Mg182 O195 2.010 . S
O183 Mg182 2.028 . S
O183 C186 1.250 . S
O184 Mg185 2.028 . S
O184 C186 1.248 . S
Mg185 O184 2.028 . S
Mg185 O190 2.032 . S
Mg185 O192 2.079 . S
C186 O183 1.250 . S
C186 O184 1.248 . S
C187 O188 1.264 . S
C187 O195 1.249 . S
O188 C187 1.264 . S
O189 Mg182 1.986 . S
O189 C193 1.246 . S
O190 Mg185 2.032 . S
O190 C193 1.259 . S
O191 Mg182 2.114 . S
O191 C194 1.252 . S
O192 Mg182 2.251 . S
O192 Mg185 2.079 . S
O192 C194 1.273 . S
C193 O189 1.246 . S
C193 O190 1.259 . S
C194 O191 1.252 . S
C194 O192 1.273 . S
O195 Mg182 2.010 . S
O195 C187 1.249 . S
Mg196 O197 2.028 . S
Mg196 O203 1.986 . S
Mg196 O205 2.114 . S
Mg196 O206 2.251 . S
Mg196 O209 2.010 . S
O197 Mg196 2.028 . S
O197 C200 1.250 . S
O198 Mg199 2.028 . S
O198 C200 1.248 . S
Mg199 O198 2.028 . S
Mg199 O204 2.032 . S
Mg199 O206 2.079 . S
C200 O197 1.250 . S
C200 O198 1.248 . S
C201 O202 1.264 . S
C201 O209 1.249 . S
O202 C201 1.264 . S
O203 Mg196 1.986 . S
O203 C207 1.246 . S
O204 Mg199 2.032 . S
O204 C207 1.259 . S
O205 Mg196 2.114 . S
O205 C208 1.252 . S
O206 Mg196 2.251 . S
O206 Mg199 2.079 . S
O206 C208 1.273 . S
C207 O203 1.246 . S
C207 O204 1.259 . S
C208 O205 1.252 . S
C208 O206 1.273 . S
O209 Mg196 2.010 . S
O209 C201 1.249 . S
Mg210 O211 2.028 . S
Mg210 O217 1.986 . S
Mg210 O219 2.114 . S
Mg210 O220 2.251 . S
Mg210 O223 2.010 . S
O211 Mg210 2.028 . S
O211 C214 1.250 . S
O212 Mg213 2.028 . S
O212 C214 1.248 . S
Mg213 O212 2.028 . S
Mg213 O218 2.032 . S
Mg213 O220 2.079 . S
C214 O211 1.250 . S
C214 O212 1.248 . S
C215 O216 1.264 . S
C215 O223 1.249 . S
O216 C215 1.264 . S
O217 Mg210 1.986 . S
O217 C221 1.246 . S
O218 Mg213 2.032 . S
O218 C221 1.259 . S
O219 Mg210 2.114 . S
O219 C222 1.252 . S
O220 Mg210 2.251 . S
O220 Mg213 2.079 . S
O220 C222 1.273 . S
C221 O217 1.246 . S
C221 O218 1.259 . S
C222 O219 1.252 . S
C222 O220 1.273 . S
O223 Mg210 2.010 . S
O223 C215 1.249 . S
Mg224 O225 2.028 . S
Mg224 O231 1.986 . S
Mg224 O233 2.114 . S
Mg224 O234 2.251 . S
Mg224 O237 2.010 . S
O225 Mg224 2.028 . S
O225 C228 1.250 . S
O226 Mg227 2.028 . S
O226 C228 1.248 . S
Mg227 O226 2.028 . S
Mg227 O232 2.032 . S
Mg227 O234 2.079 . S
C228 O225 1.250 . S
C228 O226 1.248 . S
C229 O230 1.264 . S
C229 O237 1.249 . S
O230 C229 1.264 . S
O231 Mg224 1.986 . S
O231 C235 1.246 . S
O232 Mg227 2.032 . S
O232 C235 1.259 . S
O233 Mg224 2.114 . S
O233 C236 1.252 . S
O234 Mg224 2.251 . S
O234 Mg227 2.079 . S
O234 C236 1.273 . S
C235 O231 1.246 . S
C235 O232 1.259 . S
C236 O233 1.252 . S
C236 O234 1.273 . S
O237 Mg224 2.010 . S
O237 C229 1.249 . S
Mg238 O239 2.028 . S
Mg238 O245 1.986 . S
Mg238 O247 2.114 . S
Mg238 O248 2.251 . S
Mg238 O251 2.010 . S
O239 Mg238 2.028 . S
O239 C242 1.250 . S
O240 Mg241 2.028 . S
O240 C242 1.248 . S
Mg241 O240 2.028 . S
Mg241 O246 2.032 . S
Mg241 O248 2.079 . S
C242 O239 1.250 . S
C242 O240 1.248 . S
C243 O244 1.264 . S
C243 O251 1.249 . S
O244 C243 1.264 . S
O245 Mg238 1.986 . S
O245 C249 1.246 . S
O246 Mg241 2.032 . S
O246 C249 1.259 . S
O247 Mg238 2.114 . S
O247 C250 1.252 . S
O248 Mg238 2.251 . S
O248 Mg241 2.079 . S
O248 C250 1.273 . S
C249 O245 1.246 . S
C249 O246 1.259 . S
C250 O247 1.252 . S
C250 O248 1.273 . S
O251 Mg238 2.010 . S
O251 C243 1.249 . S
Mg252 O253 2.028 . S
Mg252 O259 1.986 . S
Mg252 O261 2.114 . S
Mg252 O262 2.251 . S
Mg252 O265 2.010 . S
O253 Mg252 2.028 . S
O253 C256 1.250 . S
O254 Mg255 2.028 . S
O254 C256 1.248 . S
Mg255 O254 2.028 . S
Mg255 O260 2.032 . S
Mg255 O262 2.079 . S
C256 O253 1.250 . S
C256 O254 1.248 . S
C257 O258 1.264 . S
C257 O265 1.249 . S
O258 C257 1.264 . S
O259 Mg252 1.986 . S
O259 C263 1.246 . S
O260 Mg255 2.032 . S
O260 C263 1.259 . S
O261 Mg252 2.114 . S
O261 C264 1.252 . S
O262 Mg252 2.251 . S
O262 Mg255 2.079 . S
O262 C264 1.273 . S
C263 O259 1.246 . S
C263 O260 1.259 . S
C264 O261 1.252 . S
C264 O262 1.273 . S
O265 Mg252 2.010 . S
O265 C257 1.249 . S
Mg266 O267 2.028 . S
Mg266 O273 1.986 . S
Mg266 O275 2.114 . S
Mg266 O276 2.251 . S
Mg266 O279 2.010 . S
O267 Mg266 2.028 . S
O267 C270 1.250 . S
O268 Mg269 2.028 . S
O268 C270 1.248 . S
Mg269 O268 2.028 . S
Mg269 O274 2.032 . S
Mg269 O276 2.079 . S
C270 O267 1.250 . S
C270 O268 1.248 . S
C271 O272 1.264 . S
C271 O279 1.249 . S
O272 C271 1.264 . S
O273 Mg266 1.986 . S
O273 C277 1.246 . S
O274 Mg269 2.032 . S
O274 C277 1.259 . S
O275 Mg266 2.114 . S
O275 C278 1.252 . S
O276 Mg266 2.251 . S
O276 Mg269 2.079 . S
O276 C278 1.273 . S
C277 O273 1.246 . S
C277 O274 1.259 . S
C278 O275 1.252 . S
C278 O276 1.273 . S
O279 Mg266 2.010 . S
O279 C271 1.249 . S
Mg280 O281 2.028 . S
Mg280 O287 1.986 . S
Mg280 O289 2.114 . S
Mg280 O290 2.251 . S
Mg280 O293 2.010 . S
O281 Mg280 2.028 . S
O281 C284 1.250 . S
O282 Mg283 2.028 . S
O282 C284 1.248 . S
Mg283 O282 2.028 . S
Mg283 O288 2.032 . S
Mg283 O290 2.079 . S
C284 O281 1.250 . S
C284 O282 1.248 . S
C285 O286 1.264 . S
C285 O293 1.249 . S
O286 C285 1.264 . S
O287 Mg280 1.986 . S
O287 C291 1.246 . S
O288 Mg283 2.032 . S
O288 C291 1.259 . S
O289 Mg280 2.114 . S
O289 C292 1.252 . S
O290 Mg280 2.251 . S
O290 Mg283 2.079 . S
O290 C292 1.273 . S
C291 O287 1.246 . S
C291 O288 1.259 . S
C292 O289 1.252 . S
C292 O290 1.273 . S
O293 Mg280 2.010 . S
O293 C285 1.249 . S
Mg294 O295 2.028 . S
Mg294 O301 1.986 . S
Mg294 O303 2.114 . S
Mg294 O304 2.251 . S
Mg294 O307 2.010 . S
O295 Mg294 2.028 . S
O295 C298 1.250 . S
O296 Mg297 2.028 . S
O296 C298 1.248 . S
Mg297 O296 2.028 . S
Mg297 O302 2.032 . S
Mg297 O304 2.079 . S
C298 O295 1.250 . S
C298 O296 1.248 . S
C299 O300 1.264 . S
C299 O307 1.249 . S
O300 C299 1.264 . S
O301 Mg294 1.986 . S
O301 C305 1.246 . S
O302 Mg297 2.032 . S
O302 C305 1.259 . S
O303 Mg294 2.114 . S
O303 C306 1.252 . S
O304 Mg294 2.251 . S
O304 Mg297 2.079 . S
O304 C306 1.273 . S
C305 O301 1.246 . S
C305 O302 1.259 . S
C306 O303 1.252 . S
C306 O304 1.273 . S
O307 Mg294 2.010 . S
O307 C299 1.249 . S
Mg308 O309 2.028 . S
Mg308 O315 1.986 . S
Mg308 O317 2.114 . S
Mg308 O318 2.251 . S
Mg308 O321 2.010 . S
O309 Mg308 2.028 . S
O309 C312 1.250 . S
O310 Mg311 2.028 . S
O310 C312 1.248 . S
Mg311 O310 2.028 . S
Mg311 O316 2.032 . S
Mg311 O318 2.079 . S
C312 O309 1.250 . S
C312 O310 1.248 . S
C313 O314 1.264 . S
C313 O321 1.249 . S
O314 C313 1.264 . S
O315 Mg308 1.986 . S
O315 C319 1.246 . S
O316 Mg311 2.032 . S
O316 C319 1.259 . S
O317 Mg308 2.114 . S
O317 C320 1.252 . S
O318 Mg308 2.251 . S
O318 Mg311 2.079 . S
O318 C320 1.273 . S
C319 O315 1.246 . S
C319 O316 1.259 . S
C320 O317 1.252 . S
C320 O318 1.273 . S
O321 Mg308 2.010 . S
O321 C313 1.249 . S
Mg322 O323 2.028 . S
Mg322 O329 1.986 . S
Mg322 O331 2.114 . S
Mg322 O332 2.251 . S
Mg322 O335 2.010 . S
O323 Mg322 2.028 . S
O323 C326 1.250 . S
O324 Mg325 2.028 . S
O324 C326 1.248 . S
Mg325 O324 2.028 . S
Mg325 O330 2.032 . S
Mg325 O332 2.079 . S
C326 O323 1.250 . S
C326 O324 1.248 . S
C327 O328 1.264 . S
C327 O335 1.249 . S
O328 C327 1.264 . S
O329 Mg322 1.986 . S
O329 C333 1.246 . S
O330 Mg325 2.032 . S
O330 C333 1.259 . S
O331 Mg322 2.114 . S
O331 C334 1.252 . S
O332 Mg322 2.251 . S
O332 Mg325 2.079 . S
O332 C334 1.273 . S
C333 O329 1.246 . S
C333 O330 1.259 . S
C334 O331 1.252 . S
C334 O332 1.273 . S
O335 Mg322 2.010 . S
O335 C327 1.249 . S
Mg336 O337 2.028 . S
Mg336 O343 1.986 . S
Mg336 O345 2.114 . S
Mg336 O346 2.251 . S
Mg336 O349 2.010 . S
O337 Mg336 2.028 . S
O337 C340 1.250 . S
O338 Mg339 2.028 . S
O338 C340 1.248 . S
Mg339 O338 2.028 . S
Mg339 O344 2.032 . S
Mg339 O346 2.079 . S
C340 O337 1.250 . S
C340 O338 1.248 . S
C341 O342 1.264 . S
C341 O349 1.249 . S
O342 C341 1.264 . S
O343 Mg336 1.986 . S
O343 C347 1.246 . S
O344 Mg339 2.032 . S
O344 C347 1.259 . S
O345 Mg336 2.114 . S
O345 C348 1.252 . S
O346 Mg336 2.251 . S
O346 Mg339 2.079 . S
O346 C348 1.273 . S
C347 O343 1.246 . S
C347 O344 1.259 . S
C348 O345 1.252 . S
C348 O346 1.273 . S
O349 Mg336 2.010 . S
O349 C341 1.249 . S
Mg350 O351 2.028 . S
Mg350 O357 1.986 . S
Mg350 O359 2.114 . S
Mg350 O360 2.251 . S
Mg350 O363 2.010 . S
O351 Mg350 2.028 . S
O351 C354 1.250 . S
O352 Mg353 2.028 . S
O352 C354 1.248 . S
Mg353 O352 2.028 . S
Mg353 O358 2.032 . S
Mg353 O360 2.079 . S
C354 O351 1.250 . S
C354 O352 1.248 . S
C355 O356 1.264 . S
C355 O363 1.249 . S
O356 C355 1.264 . S
O357 Mg350 1.986 . S
O357 C361 1.246 . S
O358 Mg353 2.032 . S
O358 C361 1.259 . S
O359 Mg350 2.114 . S
O359 C362 1.252 . S
O360 Mg350 2.251 . S
O360 Mg353 2.079 . S
O360 C362 1.273 . S
C361 O357 1.246 . S
C361 O358 1.259 . S
C362 O359 1.252 . S
C362 O360 1.273 . S
O363 Mg350 2.010 . S
O363 C355 1.249 . S
Mg364 O365 2.028 . S
Mg364 O371 1.986 . S
Mg364 O373 2.114 . S
Mg364 O374 2.251 . S
Mg364 O377 2.010 . S
O365 Mg364 2.028 . S
O365 C368 1.250 . S
O366 Mg367 2.028 . S
O366 C368 1.248 . S
Mg367 O366 2.028 . S
Mg367 O372 2.032 . S
Mg367 O374 2.079 . S
C368 O365 1.250 . S
C368 O366 1.248 . S
C369 O370 1.264 . S
C369 O377 1.249 . S
O370 C369 1.264 . S
O371 Mg364 1.986 . S
O371 C375 1.246 . S
O372 Mg367 2.032 . S
O372 C375 1.259 . S
O373 Mg364 2.114 . S
O373 C376 1.252 . S
O374 Mg364 2.251 . S
O374 Mg367 2.079 . S
O374 C376 1.273 . S
C375 O371 1.246 . S
C375 O372 1.259 . S
C376 O373 1.252 . S
C376 O374 1.273 . S
O377 Mg364 2.010 . S
O377 C369 1.249 . S
Mg378 O379 2.028 . S
Mg378 O385 1.986 . S
Mg378 O387 2.114 . S
Mg378 O388 2.251 . S
Mg378 O391 2.010 . S
O379 Mg378 2.028 . S
O379 C382 1.250 . S
O380 Mg381 2.028 . S
O380 C382 1.248 . S
Mg381 O380 2.028 . S
Mg381 O386 2.032 . S
Mg381 O388 2.079 . S
C382 O379 1.250 . S
C382 O380 1.248 . S
C383 O384 1.264 . S
C383 O391 1.249 . S
O384 C383 1.264 . S
O385 Mg378 1.986 . S
O385 C389 1.246 . S
O386 Mg381 2.032 . S
O386 C389 1.259 . S
O387 Mg378 2.114 . S
O387 C390 1.252 . S
O388 Mg378 2.251 . S
O388 Mg381 2.079 . S
O388 C390 1.273 . S
C389 O385 1.246 . S
C389 O386 1.259 . S
C390 O387 1.252 . S
C390 O388 1.273 . S
O391 Mg378 2.010 . S
O391 C383 1.249 . S
Mg392 O393 2.028 . S
Mg392 O399 1.986 . S
Mg392 O401 2.114 . S
Mg392 O402 2.251 . S
Mg392 O405 2.010 . S
O393 Mg392 2.028 . S
O393 C396 1.250 . S
O394 Mg395 2.028 . S
O394 C396 1.248 . S
Mg395 O394 2.028 . S
Mg395 O400 2.032 . S
Mg395 O402 2.079 . S
C396 O393 1.250 . S
C396 O394 1.248 . S
C397 O398 1.264 . S
C397 O405 1.249 . S
O398 C397 1.264 . S
O399 Mg392 1.986 . S
O399 C403 1.246 . S
O400 Mg395 2.032 . S
O400 C403 1.259 . S
O401 Mg392 2.114 . S
O401 C404 1.252 . S
O402 Mg392 2.251 . S
O402 Mg395 2.079 . S
O402 C404 1.273 . S
C403 O399 1.246 . S
C403 O400 1.259 . S
C404 O401 1.252 . S
C404 O402 1.273 . S
O405 Mg392 2.010 . S
O405 C397 1.249 . S
Mg406 O407 2.028 . S
Mg406 O413 1.986 . S
Mg406 O415 2.114 . S
Mg406 O416 2.251 . S
Mg406 O419 2.010 . S
O407 Mg406 2.028 . S
O407 C410 1.250 . S
O408 Mg409 2.028 . S
O408 C410 1.248 . S
Mg409 O408 2.028 . S
Mg409 O414 2.032 . S
Mg409 O416 2.079 . S
C410 O407 1.250 . S
C410 O408 1.248 . S
C411 O412 1.264 . S
C411 O419 1.249 . S
O412 C411 1.264 . S
O413 Mg406 1.986 . S
O413 C417 1.246 . S
O414 Mg409 2.032 . S
O414 C417 1.259 . S
O415 Mg406 2.114 . S
O415 C418 1.252 . S
O416 Mg406 2.251 . S
O416 Mg409 2.079 . S
O416 C418 1.273 . S
C417 O413 1.246 . S
C417 O414 1.259 . S
C418 O415 1.252 . S
C418 O416 1.273 . S
O419 Mg406 2.010 . S
O419 C411 1.249 . S
Mg420 O421 2.028 . S
Mg420 O427 1.986 . S
Mg420 O429 2.114 . S
Mg420 O430 2.251 . S
Mg420 O433 2.010 . S
O421 Mg420 2.028 . S
O421 C424 1.250 . S
O422 Mg423 2.028 . S
O422 C424 1.248 . S
Mg423 O422 2.028 . S
Mg423 O428 2.032 . S
Mg423 O430 2.079 . S
C424 O421 1.250 . S
C424 O422 1.248 . S
C425 O426 1.264 . S
C425 O433 1.249 . S
O426 C425 1.264 . S
O427 Mg420 1.986 . S
O427 C431 1.246 . S
O428 Mg423 2.032 . S
O428 C431 1.259 . S
O429 Mg420 2.114 . S
O429 C432 1.252 . S
O430 Mg420 2.251 . S
O430 Mg423 2.079 . S
O430 C432 1.273 . S
C431 O427 1.246 . S
C431 O428 1.259 . S
C432 O429 1.252 . S
C432 O430 1.273 . S
O433 Mg420 2.010 . S
O433 C425 1.249 . S
Mg434 O435 2.028 . S
Mg434 O441 1.986 . S
Mg434 O443 2.114 . S
Mg434 O444 2.251 . S
Mg434 O447 2.010 . S
O435 Mg434 2.028 . S
O435 C438 1.250 . S
O436 Mg437 2.028 . S
O436 C438 1.248 . S
Mg437 O436 2.028 . S
Mg437 O442 2.032 . S
Mg437 O444 2.079 . S
C438 O435 1.250 . S
C438 O436 1.248 . S
C439 O440 1.264 . S
C439 O447 1.249 . S
O440 C439 1.264 . S
O441 Mg434 1.986 . S
O441 C445 1.246 . S
O442 Mg437 2.032 . S
O442 C445 1.259 . S
O443 Mg434 2.114 . S
O443 C446 1.252 . S
O444 Mg434 2.251 . S
O444 Mg437 2.079 . S
O444 C446 1.273 . S
C445 O441 1.246 . S
C445 O442 1.259 . S
C446 O443 1.252 . S
C446 O444 1.273 . S
O447 Mg434 2.010 . S
O447 C439 1.249 . S
Mg448 O449 2.028 . S
Mg448 O455 1.986 . S
Mg448 O457 2.114 . S
Mg448 O458 2.251 . S
Mg448 O461 2.010 . S
O449 Mg448 2.028 . S
O449 C452 1.250 . S
O450 Mg451 2.028 . S
O450 C452 1.248 . S
Mg451 O450 2.028 . S
Mg451 O456 2.032 . S
Mg451 O458 2.079 . S
C452 O449 1.250 . S
C452 O450 1.248 . S
C453 O454 1.264 . S
C453 O461 1.249 . S
O454 C453 1.264 . S
O455 Mg448 1.986 . S
O455 C459 1.246 . S
O456 Mg451 2.032 . S
O456 C459 1.259 . S
O457 Mg448 2.114 . S
O457 C460 1.252 . S
O458 Mg448 2.251 . S
O458 Mg451 2.079 . S
O458 C460 1.273 . S
C459 O455 1.246 . S
C459 O456 1.259 . S
C460 O457 1.252 . S
C460 O458 1.273 . S
O461 Mg448 2.010 . S
O461 C453 1.249 . S
Mg462 O463 2.028 . S
Mg462 O469 1.986 . S
Mg462 O471 2.114 . S
Mg462 O472 2.251 . S
Mg462 O475 2.010 . S
O463 Mg462 2.028 . S
O463 C466 1.250 . S
O464 Mg465 2.028 . S
O464 C466 1.248 . S
Mg465 O464 2.028 . S
Mg465 O470 2.032 . S
Mg465 O472 2.079 . S
C466 O463 1.250 . S
C466 O464 1.248 . S
C467 O468 1.264 . S
C467 O475 1.249 . S
O468 C467 1.264 . S
O469 Mg462 1.986 . S
O469 C473 1.246 . S
O470 Mg465 2.032 . S
O470 C473 1.259 . S
O471 Mg462 2.114 . S
O471 C474 1.252 . S
O472 Mg462 2.251 . S
O472 Mg465 2.079 . S
O472 C474 1.273 . S
C473 O469 1.246 . S
C473 O470 1.259 . S
C474 O471 1.252 . S
C474 O472 1.273 . S
O475 Mg462 2.010 . S
O475 C467 1.249 . S
Mg476 O477 2.028 . S
Mg476 O483 1.986 . S
Mg476 O485 2.114 . S
Mg476 O486 2.251 . S
Mg476 O489 2.010 . S
O477 Mg476 2.028 . S
O477 C480 1.250 . S
O478 Mg479 2.028 . S
O478 C480 1.248 . S
Mg479 O478 2.028 . S
Mg479 O484 2.032 . S
Mg479 O486 2.079 . S
C480 O477 1.250 . S
C480 O478 1.248 . S
C481 O482 1.264 . S
C481 O489 1.249 . S
O482 C481 1.264 . S
O483 Mg476 1.986 . S
O483 C487 1.246 . S
O484 Mg479 2.032 . S
O484 C487 1.259 . S
O485 Mg476 2.114 . S
O485 C488 1.252 . S
O486 Mg476 2.251 . S
O486 Mg479 2.079 . S
O486 C488 1.273 . S
C487 O483 1.246 . S
C487 O484 1.259 . S
C488 O485 1.252 . S
C488 O486 1.273 . S
O489 Mg476 2.010 . S
O489 C481 1.249 . S
Mg490 O491 2.028 . S
Mg490 O497 1.986 . S
Mg490 O499 2.114 . S
Mg490 O500 2.251 . S
Mg490 O503 2.010 . S
O491 Mg490 2.028 . S
O491 C494 1.250 . S
O492 Mg493 2.028 . S
O492 C494 1.248 . S
Mg493 O492 2.028 . S
Mg493 O498 2.032 . S
Mg493 O500 2.079 . S
C494 O491 1.250 . S
C494 O492 1.248 . S
C495 O496 1.264 . S
C495 O503 1.249 . S
O496 C495 1.264 . S
O497 Mg490 1.986 . S
O497 C501 1.246 . S
O498 Mg493 2.032 . S
O498 C501 1.259 . S
O499 Mg490 2.114 . S
O499 C502 1.252 . S
O500 Mg490 2.251 . S
O500 Mg493 2.079 . S
O500 C502 1.273 . S
C501 O497 1.246 . S
C501 O498 1.259 . S
C502 O499 1.252 . S
C502 O500 1.273 . S
O503 Mg490 2.010 . S
O503 C495 1.249 . S
Mg504 O505 2.028 . S
Mg504 O511 1.986 . S
Mg504 O513 2.114 . S
Mg504 O514 2.251 . S
Mg504 O517 2.010 . S
O505 Mg504 2.028 . S
O505 C508 1.250 . S
O506 Mg507 2.028 . S
O506 C508 1.248 . S
Mg507 O506 2.028 . S
Mg507 O512 2.032 . S
Mg507 O514 2.079 . S
C508 O505 1.250 . S
C508 O506 1.248 . S
C509 O510 1.264 . S
C509 O517 1.249 . S
O510 C509 1.264 . S
O511 Mg504 1.986 . S
O511 C515 1.246 . S
O512 Mg507 2.032 . S
O512 C515 1.259 . S
O513 Mg504 2.114 . S
O513 C516 1.252 . S
O514 Mg504 2.251 . S
O514 Mg507 2.079 . S
O514 C516 1.273 . S
C515 O511 1.246 . S
C515 O512 1.259 . S
C516 O513 1.252 . S
C516 O514 1.273 . S
O517 Mg504 2.010 . S
O517 C509 1.249 . S
Mg518 O519 2.028 . S
Mg518 O525 1.986 . S
Mg518 O527 2.114 . S
Mg518 O528 2.251 . S
Mg518 O531 2.010 . S
O519 Mg518 2.028 . S
O519 C522 1.250 . S
O520 Mg521 2.028 . S
O520 C522 1.248 . S
Mg521 O520 2.028 . S
Mg521 O526 2.032 . S
Mg521 O528 2.079 . S
C522 O519 1.250 . S
C522 O520 1.248 . S
C523 O524 1.264 . S
C523 O531 1.249 . S
O524 C523 1.264 . S
O525 Mg518 1.986 . S
O525 C529 1.246 . S
O526 Mg521 2.032 . S
O526 C529 1.259 . S
O527 Mg518 2.114 . S
O527 C530 1.252 . S
O528 Mg518 2.251 . S
O528 Mg521 2.079 . S
O528 C530 1.273 . S
C529 O525 1.246 . S
C529 O526 1.259 . S
C530 O527 1.252 . S
C530 O528 1.273 . S
O531 Mg518 2.010 . S
O531 C523 1.249 . S
Mg532 O533 2.028 . S
Mg532 O539 1.986 . S
Mg532 O541 2.114 . S
Mg532 O542 2.251 . S
Mg532 O545 2.010 . S
O533 Mg532 2.028 . S
O533 C536 1.250 . S
O534 Mg535 2.028 . S
O534 C536 1.248 . S
Mg535 O534 2.028 . S
Mg535 O540 2.032 . S
Mg535 O542 2.079 . S
C536 O533 1.250 . S
C536 O534 1.248 . S
C537 O538 1.264 . S
C537 O545 1.249 . S
O538 C537 1.264 . S
O539 Mg532 1.986 . S
O539 C543 1.246 . S
O540 Mg535 2.032 . S
O540 C543 1.259 . S
O541 Mg532 2.114 . S
O541 C544 1.252 . S
O542 Mg532 2.251 . S
O542 Mg535 2.079 . S
O542 C544 1.273 . S
C543 O539 1.246 . S
C543 O540 1.259 . S
C544 O541 1.252 . S
C544 O542 1.273 . S
O545 Mg532 2.010 . S
O545 C537 1.249 . S
Mg546 O547 2.028 . S
Mg546 O553 1.986 . S
Mg546 O555 2.114 . S
Mg546 O556 2.251 . S
Mg546 O559 2.010 . S
O547 Mg546 2.028 . S
O547 C550 1.250 . S
O548 Mg549 2.028 . S
O548 C550 1.248 . S
Mg549 O548 2.028 . S
Mg549 O554 2.032 . S
Mg549 O556 2.079 . S
C550 O547 1.250 . S
C550 O548 1.248 . S
C551 O552 1.264 . S
C551 O559 1.249 . S
O552 C551 1.264 . S
O553 Mg546 1.986 . S
O553 C557 1.246 . S
O554 Mg549 2.032 . S
O554 C557 1.259 . S
O555 Mg546 2.114 . S
O555 C558 1.252 . S
O556 Mg546 2.251 . S
O556 Mg549 2.079 . S
O556 C558 1.273 . S
C557 O553 1.246 . S
C557 O554 1.259 . S
C558 O555 1.252 . S
C558 O556 1.273 . S
O559 Mg546 2.010 . S
O559 C551 1.249 . S
Mg560 O561 2.028 . S
Mg560 O567 1.986 . S
Mg560 O569 2.114 . S
Mg560 O570 2.251 . S
Mg560 O573 2.010 . S
O561 Mg560 2.028 . S
O561 C564 1.250 . S
O562 Mg563 2.028 . S
O562 C564 1.248 . S
Mg563 O562 2.028 . S
Mg563 O568 2.032 . S
Mg563 O570 2.079 . S
C564 O561 1.250 . S
C564 O562 1.248 . S
C565 O566 1.264 . S
C565 O573 1.249 . S
O566 C565 1.264 . S
O567 Mg560 1.986 . S
O567 C571 1.246 . S
O568 Mg563 2.032 . S
O568 C571 1.259 . S
O569 Mg560 2.114 . S
O569 C572 1.252 . S
O570 Mg560 2.251 . S
O570 Mg563 2.079 . S
O570 C572 1.273 . S
C571 O567 1.246 . S
C571 O568 1.259 . S
C572 O569 1.252 . S
C572 O570 1.273 . S
O573 Mg560 2.010 . S
O573 C565 1.249 . S
Mg574 O575 2.028 . S
Mg574 O581 1.986 . S
Mg574 O583 2.114 . S
Mg574 O584 2.251 . S
Mg574 O587 2.010 . S
O575 Mg574 2.028 . S
O575 C578 1.250 . S
O576 Mg577 2.028 . S
O576 C578 1.248 . S
Mg577 O576 2.028 . S
Mg577 O582 2.032 . S
Mg577 O584 2.079 . S
C578 O575 1.250 . S
C578 O576 1.248 . S
C579 O580 1.264 . S
C579 O587 1.249 . S
O580 C579 1.264 . S
O581 Mg574 1.986 . S
O581 C585 1.246 . S
O582 Mg577 2.032 . S
O582 C585 1.259 . S
O583 Mg574 2.114 . S
O583 C586 1.252 . S
O584 Mg574 2.251 . S
O584 Mg577 2.079 . S
O584 C586 1.273 . S
C585 O581 1.246 . S
C585 O582 1.259 . S
C586 O583 1.252 . S
C586 O584 1.273 . S
O587 Mg574 2.010 . S
O587 C579 1.249 . S
Mg588 O589 2.028 . S
Mg588 O595 1.986 . S
Mg588 O597 2.114 . S
Mg588 O598 2.251 . S
Mg588 O601 2.010 . S
O589 Mg588 2.028 . S
O589 C592 1.250 . S
O590 Mg591 2.028 . S
O590 C592 1.248 . S
Mg591 O590 2.028 . S
Mg591 O596 2.032 . S
Mg591 O598 2.079 . S
C592 O589 1.250 . S
C592 O590 1.248 . S
C593 O594 1.264 . S
C593 O601 1.249 . S
O594 C593 1.264 . S
O595 Mg588 1.986 . S
O595 C599 1.246 . S
O596 Mg591 2.032 . S
O596 C599 1.259 . S
O597 Mg588 2.114 . S
O597 C600 1.252 . S
O598 Mg588 2.251 . S
O598 Mg591 2.079 . S
O598 C600 1.273 . S
C599 O595 1.246 . S
C599 O596 1.259 . S
C600 O597 1.252 . S
C600 O598 1.273 . S
O601 Mg588 2.010 . S
O601 C593 1.249 . S
Mg602 O603 2.028 . S
Mg602 O609 1.986 . S
Mg602 O611 2.114 . S
Mg602 O612 2.251 . S
Mg602 O615 2.010 . S
O603 Mg602 2.028 . S
O603 C606 1.250 . S
O604 Mg605 2.028 . S
O604 C606 1.248 . S
Mg605 O604 2.028 . S
Mg605 O610 2.032 . S
Mg605 O612 2.079 . S
C606 O603 1.250 . S
C606 O604 1.248 . S
C607 O608 1.264 . S
C607 O615 1.249 . S
O608 C607 1.264 . S
O609 Mg602 1.986 . S
O609 C613 1.246 . S
O610 Mg605 2.032 . S
O610 C613 1.259 . S
O611 Mg602 2.114 . S
O611 C614 1.252 . S
O612 Mg602 2.251 . S
O612 Mg605 2.079 . S
O612 C614 1.273 . S
C613 O609 1.246 . S
C613 O610 1.259 . S
C614 O611 1.252 . S
C614 O612 1.273 . S
O615 Mg602 2.010 . S
O615 C607 1.249 . S
Mg616 O617 2.028 . S
Mg616 O623 1.986 . S
Mg616 O625 2.114 . S
Mg616 O626 2.251 . S
Mg616 O629 2.010 . S
O617 Mg616 2.028 . S
O617 C620 1.250 . S
O618 Mg619 2.028 . S
O618 C620 1.248 . S
Mg619 O618 2.028 . S
Mg619 O624 2.032 . S
Mg619 O626 2.079 . S
C620 O617 1.250 . S
C620 O618 1.248 . S
C621 O622 1.264 . S
C621 O629 1.249 . S
O622 C621 1.264 . S
O623 Mg616 1.986 . S
O623 C627 1.246 . S
O624 Mg619 2.032 . S
O624 C627 1.259 . S
O625 Mg616 2.114 . S
O625 C628 1.252 . S
O626 Mg616 2.251 . S
O626 Mg619 2.079 . S
O626 C628 1.273 . S
C627 O623 1.246 . S
C627 O624 1.259 . S
C628 O625 1.252 . S
C628 O626 1.273 . S
O629 Mg616 2.010 . S
O629 C621 1.249 . S
Mg630 O631 2.028 . S
Mg630 O637 1.986 . S
Mg630 O639 2.114 . S
Mg630 O640 2.251 . S
Mg630 O643 2.010 . S
O631 Mg630 2.028 . S
O631 C634 1.250 . S
O632 Mg633 2.028 . S
O632 C634 1.248 . S
Mg633 O632 2.028 . S
Mg633 O638 2.032 . S
Mg633 O640 2.079 . S
C634 O631 1.250 . S
C634 O632 1.248 . S
C635 O636 1.264 . S
C635 O643 1.249 . S
O636 C635 1.264 . S
O637 Mg630 1.986 . S
O637 C641 1.246 . S
O638 Mg633 2.032 . S
O638 C641 1.259 . S
O639 Mg630 2.114 . S
O639 C642 1.252 . S
O640 Mg630 2.251 . S
O640 Mg633 2.079 . S
O640 C642 1.273 . S
C641 O637 1.246 . S
C641 O638 1.259 . S
C642 O639 1.252 . S
C642 O640 1.273 . S
O643 Mg630 2.010 . S
O643 C635 1.249 . S
Mg644 O645 2.028 . S
Mg644 O651 1.986 . S
Mg644 O653 2.114 . S
Mg644 O654 2.251 . S
Mg644 O657 2.010 . S
O645 Mg644 2.028 . S
O645 C648 1.250 . S
O646 Mg647 2.028 . S
O646 C648 1.248 . S
Mg647 O646 2.028 . S
Mg647 O652 2.032 . S
Mg647 O654 2.079 . S
C648 O645 1.250 . S
C648 O646 1.248 . S
C649 O650 1.264 . S
C649 O657 1.249 . S
O650 C649 1.264 . S
O651 Mg644 1.986 . S
O651 C655 1.246 . S
O652 Mg647 2.032 . S
O652 C655 1.259 . S
O653 Mg644 2.114 . S
O653 C656 1.252 . S
O654 Mg644 2.251 . S
O654 Mg647 2.079 . S
O654 C656 1.273 . S
C655 O651 1.246 . S
C655 O652 1.259 . S
C656 O653 1.252 . S
C656 O654 1.273 . S
O657 Mg644 2.010 . S
O657 C649 1.249 . S
Mg658 O659 2.028 . S
Mg658 O665 1.986 . S
Mg658 O667 2.114 . S
Mg658 O668 2.251 . S
Mg658 O671 2.010 . S
O659 Mg658 2.028 . S
O659 C662 1.250 . S
O660 Mg661 2.028 . S
O660 C662 1.248 . S
Mg661 O660 2.028 . S
Mg661 O666 2.032 . S
Mg661 O668 2.079 . S
C662 O659 1.250 . S
C662 O660 1.248 . S
C663 O664 1.264 . S
C663 O671 1.249 . S
O664 C663 1.264 . S
O665 Mg658 1.986 . S
O665 C669 1.246 . S
O666 Mg661 2.032 . S
O666 C669 1.259 . S
O667 Mg658 2.114 . S
O667 C670 1.252 . S
O668 Mg658 2.251 . S
O668 Mg661 2.079 . S
O668 C670 1.273 . S
C669 O665 1.246 . S
C669 O666 1.259 . S
C670 O667 1.252 . S
C670 O668 1.273 . S
O671 Mg658 2.010 . S
O671 C663 1.249 . S
H672 C680 0.929 . S
H673 C682 0.930 . S
H674 C684 0.930 . S
H675 C687 0.929 . S
H676 C690 0.930 . S
H677 C692 0.960 . S
H678 C692 0.960 . S
H679 C692 0.960 . S
C680 H672 0.929 . S
C680 C681 1.377 . S
C680 C682 1.384 . S
C681 C680 1.377 . S
C681 C687 1.390 . S
C682 H673 0.930 . S
C682 C680 1.384 . S
C682 C683 1.372 . S
C683 C682 1.372 . S
C683 C684 1.400 . S
C683 C688 1.490 . S
C684 H674 0.930 . S
C684 C683 1.400 . S
C684 C687 1.386 . S
H685 C701 0.930 . S
H686 C702 0.931 . S
C687 H675 0.929 . S
C687 C681 1.390 . S
C687 C684 1.386 . S
C688 C683 1.490 . S
C688 C690 1.395 . S
C688 C691 1.403 . S
H689 C695 0.930 . S
C690 H676 0.930 . S
C690 C688 1.395 . S
C690 C693 1.403 . S
C691 C688 1.403 . S
C691 C692 1.524 . S
C691 C695 1.400 . S
C692 H677 0.960 . S
C692 H678 0.960 . S
C692 H679 0.960 . S
C692 C691 1.524 . S
C693 C690 1.403 . S
C693 C694 1.392 . S
C693 C697 1.495 . S
C694 C693 1.392 . S
C694 C695 1.385 . S
C694 C696 1.478 . S
C695 H689 0.930 . S
C695 C691 1.400 . S
C695 C694 1.385 . S
C696 C694 1.478 . S
C696 C698 1.381 . S
C696 C702 1.383 . S
C697 C693 1.495 . S
C697 H703 0.959 . S
C697 H704 0.961 . S
C697 H705 0.960 . S
C698 C696 1.381 . S
C698 C699 1.394 . S
C698 H706 0.930 . S
C699 C698 1.394 . S
C699 C700 1.383 . S
C699 H707 0.929 . S
C700 C699 1.383 . S
C700 C701 1.377 . S
C701 H685 0.930 . S
C701 C700 1.377 . S
C701 C702 1.379 . S
C702 H686 0.931 . S
C702 C696 1.383 . S
C702 C701 1.379 . S
H703 C697 0.959 . S
H704 C697 0.961 . S
H705 C697 0.960 . S
H706 C698 0.930 . S
H707 C699 0.929 . S
H708 C716 0.929 . S
H709 C718 0.930 . S
H710 C720 0.930 . S
H711 C723 0.929 . S
H712 C726 0.930 . S
H713 C728 0.960 . S
H714 C728 0.960 . S
H715 C728 0.960 . S
C716 H708 0.929 . S
C716 C717 1.377 . S
C716 C718 1.384 . S
C717 C716 1.377 . S
C717 C723 1.390 . S
C718 H709 0.930 . S
C718 C716 1.384 . S
C718 C719 1.372 . S
C719 C718 1.372 . S
C719 C720 1.400 . S
C719 C724 1.490 . S
C720 H710 0.930 . S
C720 C719 1.400 . S
C720 C723 1.386 . S
H721 C737 0.930 . S
H722 C738 0.931 . S
C723 H711 0.929 . S
C723 C717 1.390 . S
C723 C720 1.386 . S
C724 C719 1.490 . S
C724 C726 1.395 . S
C724 C727 1.403 . S
H725 C731 0.930 . S
C726 H712 0.930 . S
C726 C724 1.395 . S
C726 C729 1.403 . S
C727 C724 1.403 . S
C727 C728 1.524 . S
C727 C731 1.400 . S
C728 H713 0.960 . S
C728 H714 0.960 . S
C728 H715 0.960 . S
C728 C727 1.524 . S
C729 C726 1.403 . S
C729 C730 1.392 . S
C729 C733 1.495 . S
C730 C729 1.392 . S
C730 C731 1.385 . S
C730 C732 1.478 . S
C731 H725 0.930 . S
C731 C727 1.400 . S
C731 C730 1.385 . S
C732 C730 1.478 . S
C732 C734 1.381 . S
C732 C738 1.383 . S
C733 C729 1.495 . S
C733 H739 0.959 . S
C733 H740 0.961 . S
C733 H741 0.960 . S
C734 C732 1.381 . S
C734 C735 1.394 . S
C734 H742 0.930 . S
C735 C734 1.394 . S
C735 C736 1.383 . S
C735 H743 0.929 . S
C736 C735 1.383 . S
C736 C737 1.377 . S
C737 H721 0.930 . S
C737 C736 1.377 . S
C737 C738 1.379 . S
C738 H722 0.931 . S
C738 C732 1.383 . S
C738 C737 1.379 . S
H739 C733 0.959 . S
H740 C733 0.961 . S
H741 C733 0.960 . S
H742 C734 0.930 . S
H743 C735 0.929 . S
H744 C752 0.929 . S
H745 C754 0.930 . S
H746 C756 0.930 . S
H747 C759 0.929 . S
H748 C762 0.930 . S
H749 C764 0.960 . S
H750 C764 0.960 . S
H751 C764 0.960 . S
C752 H744 0.929 . S
C752 C753 1.377 . S
C752 C754 1.384 . S
C753 C752 1.377 . S
C753 C759 1.390 . S
C754 H745 0.930 . S
C754 C752 1.384 . S
C754 C755 1.372 . S
C755 C754 1.372 . S
C755 C756 1.400 . S
C755 C760 1.490 . S
C756 H746 0.930 . S
C756 C755 1.400 . S
C756 C759 1.386 . S
H757 C773 0.930 . S
H758 C774 0.931 . S
C759 H747 0.929 . S
C759 C753 1.390 . S
C759 C756 1.386 . S
C760 C755 1.490 . S
C760 C762 1.395 . S
C760 C763 1.403 . S
H761 C767 0.930 . S
C762 H748 0.930 . S
C762 C760 1.395 . S
C762 C765 1.403 . S
C763 C760 1.403 . S
C763 C764 1.524 . S
C763 C767 1.400 . S
C764 H749 0.960 . S
C764 H750 0.960 . S
C764 H751 0.960 . S
C764 C763 1.524 . S
C765 C762 1.403 . S
C765 C766 1.392 . S
C765 C769 1.495 . S
C766 C765 1.392 . S
C766 C767 1.385 . S
C766 C768 1.478 . S
C767 H761 0.930 . S
C767 C763 1.400 . S
C767 C766 1.385 . S
C768 C766 1.478 . S
C768 C770 1.381 . S
C768 C774 1.383 . S
C769 C765 1.495 . S
C769 H775 0.959 . S
C769 H776 0.961 . S
C769 H777 0.960 . S
C770 C768 1.381 . S
C770 C771 1.394 . S
C770 H778 0.930 . S
C771 C770 1.394 . S
C771 C772 1.383 . S
C771 H779 0.929 . S
C772 C771 1.383 . S
C772 C773 1.377 . S
C773 H757 0.930 . S
C773 C772 1.377 . S
C773 C774 1.379 . S
C774 H758 0.931 . S
C774 C768 1.383 . S
C774 C773 1.379 . S
H775 C769 0.959 . S
H776 C769 0.961 . S
H777 C769 0.960 . S
H778 C770 0.930 . S
H779 C771 0.929 . S
H780 C788 0.929 . S
H781 C790 0.930 . S
H782 C792 0.930 . S
H783 C795 0.929 . S
H784 C798 0.930 . S
H785 C800 0.960 . S
H786 C800 0.960 . S
H787 C800 0.960 . S
C788 H780 0.929 . S
C788 C789 1.377 . S
C788 C790 1.384 . S
C789 C788 1.377 . S
C789 C795 1.390 . S
C790 H781 0.930 . S
C790 C788 1.384 . S
C790 C791 1.372 . S
C791 C790 1.372 . S
C791 C792 1.400 . S
C791 C796 1.490 . S
C792 H782 0.930 . S
C792 C791 1.400 . S
C792 C795 1.386 . S
H793 C809 0.930 . S
H794 C810 0.931 . S
C795 H783 0.929 . S
C795 C789 1.390 . S
C795 C792 1.386 . S
C796 C791 1.490 . S
C796 C798 1.395 . S
C796 C799 1.403 . S
H797 C803 0.930 . S
C798 H784 0.930 . S
C798 C796 1.395 . S
C798 C801 1.403 . S
C799 C796 1.403 . S
C799 C800 1.524 . S
C799 C803 1.400 . S
C800 H785 0.960 . S
C800 H786 0.960 . S
C800 H787 0.960 . S
C800 C799 1.524 . S
C801 C798 1.403 . S
C801 C802 1.392 . S
C801 C805 1.495 . S
C802 C801 1.392 . S
C802 C803 1.385 . S
C802 C804 1.478 . S
C803 H797 0.930 . S
C803 C799 1.400 . S
C803 C802 1.385 . S
C804 C802 1.478 . S
C804 C806 1.381 . S
C804 C810 1.383 . S
C805 C801 1.495 . S
C805 H811 0.959 . S
C805 H812 0.961 . S
C805 H813 0.960 . S
C806 C804 1.381 . S
C806 C807 1.394 . S
C806 H814 0.930 . S
C807 C806 1.394 . S
C807 C808 1.383 . S
C807 H815 0.929 . S
C808 C807 1.383 . S
C808 C809 1.377 . S
C809 H793 0.930 . S
C809 C808 1.377 . S
C809 C810 1.379 . S
C810 H794 0.931 . S
C810 C804 1.383 . S
C810 C809 1.379 . S
H811 C805 0.959 . S
H812 C805 0.961 . S
H813 C805 0.960 . S
H814 C806 0.930 . S
H815 C807 0.929 . S
H816 C824 0.929 . S
H817 C826 0.930 . S
H818 C828 0.930 . S
H819 C831 0.929 . S
H820 C834 0.930 . S
H821 C836 0.960 . S
H822 C836 0.960 . S
H823 C836 0.960 . S
C824 H816 0.929 . S
C824 C825 1.377 . S
C824 C826 1.384 . S
C825 C824 1.377 . S
C825 C831 1.390 . S
C826 H817 0.930 . S
C826 C824 1.384 . S
C826 C827 1.372 . S
C827 C826 1.372 . S
C827 C828 1.400 . S
C827 C832 1.490 . S
C828 H818 0.930 . S
C828 C827 1.400 . S
C828 C831 1.386 . S
H829 C845 0.930 . S
H830 C846 0.931 . S
C831 H819 0.929 . S
C831 C825 1.390 . S
C831 C828 1.386 . S
C832 C827 1.490 . S
C832 C834 1.395 . S
C832 C835 1.403 . S
H833 C839 0.930 . S
C834 H820 0.930 . S
C834 C832 1.395 . S
C834 C837 1.403 . S
C835 C832 1.403 . S
C835 C836 1.524 . S
C835 C839 1.400 . S
C836 H821 0.960 . S
C836 H822 0.960 . S
C836 H823 0.960 . S
C836 C835 1.524 . S
C837 C834 1.403 . S
C837 C838 1.392 . S
C837 C841 1.495 . S
C838 C837 1.392 . S
C838 C839 1.385 . S
C838 C840 1.478 . S
C839 H833 0.930 . S
C839 C835 1.400 . S
C839 C838 1.385 . S
C840 C838 1.478 . S
C840 C842 1.381 . S
C840 C846 1.383 . S
C841 C837 1.495 . S
C841 H847 0.959 . S
C841 H848 0.961 . S
C841 H849 0.960 . S
C842 C840 1.381 . S
C842 C843 1.394 . S
C842 H850 0.930 . S
C843 C842 1.394 . S
C843 C844 1.383 . S
C843 H851 0.929 . S
C844 C843 1.383 . S
C844 C845 1.377 . S
C845 H829 0.930 . S
C845 C844 1.377 . S
C845 C846 1.379 . S
C846 H830 0.931 . S
C846 C840 1.383 . S
C846 C845 1.379 . S
H847 C841 0.959 . S
H848 C841 0.961 . S
H849 C841 0.960 . S
H850 C842 0.930 . S
H851 C843 0.929 . S
H852 C860 0.929 . S
H853 C862 0.930 . S
H854 C864 0.930 . S
H855 C867 0.929 . S
H856 C870 0.930 . S
H857 C872 0.960 . S
H858 C872 0.960 . S
H859 C872 0.960 . S
C860 H852 0.929 . S
C860 C861 1.377 . S
C860 C862 1.384 . S
C861 C860 1.377 . S
C861 C867 1.390 . S
C862 H853 0.930 . S
C862 C860 1.384 . S
C862 C863 1.372 . S
C863 C862 1.372 . S
C863 C864 1.400 . S
C863 C868 1.490 . S
C864 H854 0.930 . S
C864 C863 1.400 . S
C864 C867 1.386 . S
H865 C881 0.930 . S
H866 C882 0.931 . S
C867 H855 0.929 . S
C867 C861 1.390 . S
C867 C864 1.386 . S
C868 C863 1.490 . S
C868 C870 1.395 . S
C868 C871 1.403 . S
H869 C875 0.930 . S
C870 H856 0.930 . S
C870 C868 1.395 . S
C870 C873 1.403 . S
C871 C868 1.403 . S
C871 C872 1.524 . S
C871 C875 1.400 . S
C872 H857 0.960 . S
C872 H858 0.960 . S
C872 H859 0.960 . S
C872 C871 1.524 . S
C873 C870 1.403 . S
C873 C874 1.392 . S
C873 C877 1.495 . S
C874 C873 1.392 . S
C874 C875 1.385 . S
C874 C876 1.478 . S
C875 H869 0.930 . S
C875 C871 1.400 . S
C875 C874 1.385 . S
C876 C874 1.478 . S
C876 C878 1.381 . S
C876 C882 1.383 . S
C877 C873 1.495 . S
C877 H883 0.959 . S
C877 H884 0.961 . S
C877 H885 0.960 . S
C878 C876 1.381 . S
C878 C879 1.394 . S
C878 H886 0.930 . S
C879 C878 1.394 . S
C879 C880 1.383 . S
C879 H887 0.929 . S
C880 C879 1.383 . S
C880 C881 1.377 . S
C881 H865 0.930 . S
C881 C880 1.377 . S
C881 C882 1.379 . S
C882 H866 0.931 . S
C882 C876 1.383 . S
C882 C881 1.379 . S
H883 C877 0.959 . S
H884 C877 0.961 . S
H885 C877 0.960 . S
H886 C878 0.930 . S
H887 C879 0.929 . S
H888 C896 0.929 . S
H889 C898 0.930 . S
H890 C900 0.930 . S
H891 C903 0.929 . S
H892 C906 0.930 . S
H893 C908 0.960 . S
H894 C908 0.960 . S
H895 C908 0.960 . S
C896 H888 0.929 . S
C896 C897 1.377 . S
C896 C898 1.384 . S
C897 C896 1.377 . S
C897 C903 1.390 . S
C898 H889 0.930 . S
C898 C896 1.384 . S
C898 C899 1.372 . S
C899 C898 1.372 . S
C899 C900 1.400 . S
C899 C904 1.490 . S
C900 H890 0.930 . S
C900 C899 1.400 . S
C900 C903 1.386 . S
H901 C917 0.930 . S
H902 C918 0.931 . S
C903 H891 0.929 . S
C903 C897 1.390 . S
C903 C900 1.386 . S
C904 C899 1.490 . S
C904 C906 1.395 . S
C904 C907 1.403 . S
H905 C911 0.930 . S
C906 H892 0.930 . S
C906 C904 1.395 . S
C906 C909 1.403 . S
C907 C904 1.403 . S
C907 C908 1.524 . S
C907 C911 1.400 . S
C908 H893 0.960 . S
C908 H894 0.960 . S
C908 H895 0.960 . S
C908 C907 1.524 . S
C909 C906 1.403 . S
C909 C910 1.392 . S
C909 C913 1.495 . S
C910 C909 1.392 . S
C910 C911 1.385 . S
C910 C912 1.478 . S
C911 H905 0.930 . S
C911 C907 1.400 . S
C911 C910 1.385 . S
C912 C910 1.478 . S
C912 C914 1.381 . S
C912 C918 1.383 . S
C913 C909 1.495 . S
C913 H919 0.959 . S
C913 H920 0.961 . S
C913 H921 0.960 . S
C914 C912 1.381 . S
C914 C915 1.394 . S
C914 H922 0.930 . S
C915 C914 1.394 . S
C915 C916 1.383 . S
C915 H923 0.929 . S
C916 C915 1.383 . S
C916 C917 1.377 . S
C917 H901 0.930 . S
C917 C916 1.377 . S
C917 C918 1.379 . S
C918 H902 0.931 . S
C918 C912 1.383 . S
C918 C917 1.379 . S
H919 C913 0.959 . S
H920 C913 0.961 . S
H921 C913 0.960 . S
H922 C914 0.930 . S
H923 C915 0.929 . S
H924 C932 0.929 . S
H925 C934 0.930 . S
H926 C936 0.930 . S
H927 C939 0.929 . S
H928 C942 0.930 . S
H929 C944 0.960 . S
H930 C944 0.960 . S
H931 C944 0.960 . S
C932 H924 0.929 . S
C932 C933 1.377 . S
C932 C934 1.384 . S
C933 C932 1.377 . S
C933 C939 1.390 . S
C934 H925 0.930 . S
C934 C932 1.384 . S
C934 C935 1.372 . S
C935 C934 1.372 . S
C935 C936 1.400 . S
C935 C940 1.490 . S
C936 H926 0.930 . S
C936 C935 1.400 . S
C936 C939 1.386 . S
H937 C953 0.930 . S
H938 C954 0.931 . S
C939 H927 0.929 . S
C939 C933 1.390 . S
C939 C936 1.386 . S
C940 C935 1.490 . S
C940 C942 1.395 . S
C940 C943 1.403 . S
H941 C947 0.930 . S
C942 H928 0.930 . S
C942 C940 1.395 . S
C942 C945 1.403 . S
C943 C940 1.403 . S
C943 C944 1.524 . S
C943 C947 1.400 . S
C944 H929 0.960 . S
C944 H930 0.960 . S
C944 H931 0.960 . S
C944 C943 1.524 . S
C945 C942 1.403 . S
C945 C946 1.392 . S
C945 C949 1.495 . S
C946 C945 1.392 . S
C946 C947 1.385 . S
C946 C948 1.478 . S
C947 H941 0.930 . S
C947 C943 1.400 . S
C947 C946 1.385 . S
C948 C946 1.478 . S
C948 C950 1.381 . S
C948 C954 1.383 . S
C949 C945 1.495 . S
C949 H955 0.959 . S
C949 H956 0.961 . S
C949 H957 0.960 . S
C950 C948 1.381 . S
C950 C951 1.394 . S
C950 H958 0.930 . S
C951 C950 1.394 . S
C951 C952 1.383 . S
C951 H959 0.929 . S
C952 C951 1.383 . S
C952 C953 1.377 . S
C953 H937 0.930 . S
C953 C952 1.377 . S
C953 C954 1.379 . S
C954 H938 0.931 . S
C954 C948 1.383 . S
C954 C953 1.379 . S
H955 C949 0.959 . S
H956 C949 0.961 . S
H957 C949 0.960 . S
H958 C950 0.930 . S
H959 C951 0.929 . S
H960 C968 0.929 . S
H961 C970 0.930 . S
H962 C972 0.930 . S
H963 C975 0.929 . S
H964 C978 0.930 . S
H965 C980 0.960 . S
H966 C980 0.960 . S
H967 C980 0.960 . S
C968 H960 0.929 . S
C968 C969 1.377 . S
C968 C970 1.384 . S
C969 C968 1.377 . S
C969 C975 1.390 . S
C970 H961 0.930 . S
C970 C968 1.384 . S
C970 C971 1.372 . S
C971 C970 1.372 . S
C971 C972 1.400 . S
C971 C976 1.490 . S
C972 H962 0.930 . S
C972 C971 1.400 . S
C972 C975 1.386 . S
H973 C989 0.930 . S
H974 C990 0.931 . S
C975 H963 0.929 . S
C975 C969 1.390 . S
C975 C972 1.386 . S
C976 C971 1.490 . S
C976 C978 1.395 . S
C976 C979 1.403 . S
H977 C983 0.930 . S
C978 H964 0.930 . S
C978 C976 1.395 . S
C978 C981 1.403 . S
C979 C976 1.403 . S
C979 C980 1.524 . S
C979 C983 1.400 . S
C980 H965 0.960 . S
C980 H966 0.960 . S
C980 H967 0.960 . S
C980 C979 1.524 . S
C981 C978 1.403 . S
C981 C982 1.392 . S
C981 C985 1.495 . S
C982 C981 1.392 . S
C982 C983 1.385 . S
C982 C984 1.478 . S
C983 H977 0.930 . S
C983 C979 1.400 . S
C983 C982 1.385 . S
C984 C982 1.478 . S
C984 C986 1.381 . S
C984 C990 1.383 . S
C985 C981 1.495 . S
C985 H991 0.959 . S
C985 H992 0.961 . S
C985 H993 0.960 . S
C986 C984 1.381 . S
C986 C987 1.394 . S
C986 H994 0.930 . S
C987 C986 1.394 . S
C987 C988 1.383 . S
C987 H995 0.929 . S
C988 C987 1.383 . S
C988 C989 1.377 . S
C989 H973 0.930 . S
C989 C988 1.377 . S
C989 C990 1.379 . S
C990 H974 0.931 . S
C990 C984 1.383 . S
C990 C989 1.379 . S
H991 C985 0.959 . S
H992 C985 0.961 . S
H993 C985 0.960 . S
H994 C986 0.930 . S
H995 C987 0.929 . S
H996 C1004 0.929 . S
H997 C1006 0.930 . S
H998 C1008 0.930 . S
H999 C1011 0.929 . S
H1000 C1014 0.930 . S
H1001 C1016 0.960 . S
H1002 C1016 0.960 . S
H1003 C1016 0.960 . S
C1004 H996 0.929 . S
C1004 C1005 1.377 . S
C1004 C1006 1.384 . S
C1005 C1004 1.377 . S
C1005 C1011 1.390 . S
C1006 H997 0.930 . S
C1006 C1004 1.384 . S
C1006 C1007 1.372 . S
C1007 C1006 1.372 . S
C1007 C1008 1.400 . S
C1007 C1012 1.490 . S
C1008 H998 0.930 . S
C1008 C1007 1.400 . S
C1008 C1011 1.386 . S
H1009 C1025 0.930 . S
H1010 C1026 0.931 . S
C1011 H999 0.929 . S
C1011 C1005 1.390 . S
C1011 C1008 1.386 . S
C1012 C1007 1.490 . S
C1012 C1014 1.395 . S
C1012 C1015 1.403 . S
H1013 C1019 0.930 . S
C1014 H1000 0.930 . S
C1014 C1012 1.395 . S
C1014 C1017 1.403 . S
C1015 C1012 1.403 . S
C1015 C1016 1.524 . S
C1015 C1019 1.400 . S
C1016 H1001 0.960 . S
C1016 H1002 0.960 . S
C1016 H1003 0.960 . S
C1016 C1015 1.524 . S
C1017 C1014 1.403 . S
C1017 C1018 1.392 . S
C1017 C1021 1.495 . S
C1018 C1017 1.392 . S
C1018 C1019 1.385 . S
C1018 C1020 1.478 . S
C1019 H1013 0.930 . S
C1019 C1015 1.400 . S
C1019 C1018 1.385 . S
C1020 C1018 1.478 . S
C1020 C1022 1.381 . S
C1020 C1026 1.383 . S
C1021 C1017 1.495 . S
C1021 H1027 0.959 . S
C1021 H1028 0.961 . S
C1021 H1029 0.960 . S
C1022 C1020 1.381 . S
C1022 C1023 1.394 . S
C1022 H1030 0.930 . S
C1023 C1022 1.394 . S
C1023 C1024 1.383 . S
C1023 H1031 0.929 . S
C1024 C1023 1.383 . S
C1024 C1025 1.377 . S
C1025 H1009 0.930 . S
C1025 C1024 1.377 . S
C1025 C1026 1.379 . S
C1026 H1010 0.931 . S
C1026 C1020 1.383 . S
C1026 C1025 1.379 . S
H1027 C1021 0.959 . S
H1028 C1021 0.961 . S
H1029 C1021 0.960 . S
H1030 C1022 0.930 . S
H1031 C1023 0.929 . S
H1032 C1040 0.929 . S
H1033 C1042 0.930 . S
H1034 C1044 0.930 . S
H1035 C1047 0.929 . S
H1036 C1050 0.930 . S
H1037 C1052 0.960 . S
H1038 C1052 0.960 . S
H1039 C1052 0.960 . S
C1040 H1032 0.929 . S
C1040 C1041 1.377 . S
C1040 C1042 1.384 . S
C1041 C1040 1.377 . S
C1041 C1047 1.390 . S
C1042 H1033 0.930 . S
C1042 C1040 1.384 . S
C1042 C1043 1.372 . S
C1043 C1042 1.372 . S
C1043 C1044 1.400 . S
C1043 C1048 1.490 . S
C1044 H1034 0.930 . S
C1044 C1043 1.400 . S
C1044 C1047 1.386 . S
H1045 C1061 0.930 . S
H1046 C1062 0.931 . S
C1047 H1035 0.929 . S
C1047 C1041 1.390 . S
C1047 C1044 1.386 . S
C1048 C1043 1.490 . S
C1048 C1050 1.395 . S
C1048 C1051 1.403 . S
H1049 C1055 0.930 . S
C1050 H1036 0.930 . S
C1050 C1048 1.395 . S
C1050 C1053 1.403 . S
C1051 C1048 1.403 . S
C1051 C1052 1.524 . S
C1051 C1055 1.400 . S
C1052 H1037 0.960 . S
C1052 H1038 0.960 . S
C1052 H1039 0.960 . S
C1052 C1051 1.524 . S
C1053 C1050 1.403 . S
C1053 C1054 1.392 . S
C1053 C1057 1.495 . S
C1054 C1053 1.392 . S
C1054 C1055 1.385 . S
C1054 C1056 1.478 . S
C1055 H1049 0.930 . S
C1055 C1051 1.400 . S
C1055 C1054 1.385 . S
C1056 C1054 1.478 . S
C1056 C1058 1.381 . S
C1056 C1062 1.383 . S
C1057 C1053 1.495 . S
C1057 H1063 0.959 . S
C1057 H1064 0.961 . S
C1057 H1065 0.960 . S
C1058 C1056 1.381 . S
C1058 C1059 1.394 . S
C1058 H1066 0.930 . S
C1059 C1058 1.394 . S
C1059 C1060 1.383 . S
C1059 H1067 0.929 . S
C1060 C1059 1.383 . S
C1060 C1061 1.377 . S
C1061 H1045 0.930 . S
C1061 C1060 1.377 . S
C1061 C1062 1.379 . S
C1062 H1046 0.931 . S
C1062 C1056 1.383 . S
C1062 C1061 1.379 . S
H1063 C1057 0.959 . S
H1064 C1057 0.961 . S
H1065 C1057 0.960 . S
H1066 C1058 0.930 . S
H1067 C1059 0.929 . S
H1068 C1076 0.929 . S
H1069 C1078 0.930 . S
H1070 C1080 0.930 . S
H1071 C1083 0.929 . S
H1072 C1086 0.930 . S
H1073 C1088 0.960 . S
H1074 C1088 0.960 . S
H1075 C1088 0.960 . S
C1076 H1068 0.929 . S
C1076 C1077 1.377 . S
C1076 C1078 1.384 . S
C1077 C1076 1.377 . S
C1077 C1083 1.390 . S
C1078 H1069 0.930 . S
C1078 C1076 1.384 . S
C1078 C1079 1.372 . S
C1079 C1078 1.372 . S
C1079 C1080 1.400 . S
C1079 C1084 1.490 . S
C1080 H1070 0.930 . S
C1080 C1079 1.400 . S
C1080 C1083 1.386 . S
H1081 C1097 0.930 . S
H1082 C1098 0.931 . S
C1083 H1071 0.929 . S
C1083 C1077 1.390 . S
C1083 C1080 1.386 . S
C1084 C1079 1.490 . S
C1084 C1086 1.395 . S
C1084 C1087 1.403 . S
H1085 C1091 0.930 . S
C1086 H1072 0.930 . S
C1086 C1084 1.395 . S
C1086 C1089 1.403 . S
C1087 C1084 1.403 . S
C1087 C1088 1.524 . S
C1087 C1091 1.400 . S
C1088 H1073 0.960 . S
C1088 H1074 0.960 . S
C1088 H1075 0.960 . S
C1088 C1087 1.524 . S
C1089 C1086 1.403 . S
C1089 C1090 1.392 . S
C1089 C1093 1.495 . S
C1090 C1089 1.392 . S
C1090 C1091 1.385 . S
C1090 C1092 1.478 . S
C1091 H1085 0.930 . S
C1091 C1087 1.400 . S
C1091 C1090 1.385 . S
C1092 C1090 1.478 . S
C1092 C1094 1.381 . S
C1092 C1098 1.383 . S
C1093 C1089 1.495 . S
C1093 H1099 0.959 . S
C1093 H1100 0.961 . S
C1093 H1101 0.960 . S
C1094 C1092 1.381 . S
C1094 C1095 1.394 . S
C1094 H1102 0.930 . S
C1095 C1094 1.394 . S
C1095 C1096 1.383 . S
C1095 H1103 0.929 . S
C1096 C1095 1.383 . S
C1096 C1097 1.377 . S
C1097 H1081 0.930 . S
C1097 C1096 1.377 . S
C1097 C1098 1.379 . S
C1098 H1082 0.931 . S
C1098 C1092 1.383 . S
C1098 C1097 1.379 . S
H1099 C1093 0.959 . S
H1100 C1093 0.961 . S
H1101 C1093 0.960 . S
H1102 C1094 0.930 . S
H1103 C1095 0.929 . S
H1104 C1112 0.929 . S
H1105 C1114 0.930 . S
H1106 C1116 0.930 . S
H1107 C1119 0.929 . S
H1108 C1122 0.930 . S
H1109 C1124 0.960 . S
H1110 C1124 0.960 . S
H1111 C1124 0.960 . S
C1112 H1104 0.929 . S
C1112 C1113 1.377 . S
C1112 C1114 1.384 . S
C1113 C1112 1.377 . S
C1113 C1119 1.390 . S
C1114 H1105 0.930 . S
C1114 C1112 1.384 . S
C1114 C1115 1.372 . S
C1115 C1114 1.372 . S
C1115 C1116 1.400 . S
C1115 C1120 1.490 . S
C1116 H1106 0.930 . S
C1116 C1115 1.400 . S
C1116 C1119 1.386 . S
H1117 C1133 0.930 . S
H1118 C1134 0.931 . S
C1119 H1107 0.929 . S
C1119 C1113 1.390 . S
C1119 C1116 1.386 . S
C1120 C1115 1.490 . S
C1120 C1122 1.395 . S
C1120 C1123 1.403 . S
H1121 C1127 0.930 . S
C1122 H1108 0.930 . S
C1122 C1120 1.395 . S
C1122 C1125 1.403 . S
C1123 C1120 1.403 . S
C1123 C1124 1.524 . S
C1123 C1127 1.400 . S
C1124 H1109 0.960 . S
C1124 H1110 0.960 . S
C1124 H1111 0.960 . S
C1124 C1123 1.524 . S
C1125 C1122 1.403 . S
C1125 C1126 1.392 . S
C1125 C1129 1.495 . S
C1126 C1125 1.392 . S
C1126 C1127 1.385 . S
C1126 C1128 1.478 . S
C1127 H1121 0.930 . S
C1127 C1123 1.400 . S
C1127 C1126 1.385 . S
C1128 C1126 1.478 . S
C1128 C1130 1.381 . S
C1128 C1134 1.383 . S
C1129 C1125 1.495 . S
C1129 H1135 0.959 . S
C1129 H1136 0.961 . S
C1129 H1137 0.960 . S
C1130 C1128 1.381 . S
C1130 C1131 1.394 . S
C1130 H1138 0.930 . S
C1131 C1130 1.394 . S
C1131 C1132 1.383 . S
C1131 H1139 0.929 . S
C1132 C1131 1.383 . S
C1132 C1133 1.377 . S
C1133 H1117 0.930 . S
C1133 C1132 1.377 . S
C1133 C1134 1.379 . S
C1134 H1118 0.931 . S
C1134 C1128 1.383 . S
C1134 C1133 1.379 . S
H1135 C1129 0.959 . S
H1136 C1129 0.961 . S
H1137 C1129 0.960 . S
H1138 C1130 0.930 . S
H1139 C1131 0.929 . S
H1140 C1148 0.929 . S
H1141 C1150 0.930 . S
H1142 C1152 0.930 . S
H1143 C1155 0.929 . S
H1144 C1158 0.930 . S
H1145 C1160 0.960 . S
H1146 C1160 0.960 . S
H1147 C1160 0.960 . S
C1148 H1140 0.929 . S
C1148 C1149 1.377 . S
C1148 C1150 1.384 . S
C1149 C1148 1.377 . S
C1149 C1155 1.390 . S
C1150 H1141 0.930 . S
C1150 C1148 1.384 . S
C1150 C1151 1.372 . S
C1151 C1150 1.372 . S
C1151 C1152 1.400 . S
C1151 C1156 1.490 . S
C1152 H1142 0.930 . S
C1152 C1151 1.400 . S
C1152 C1155 1.386 . S
H1153 C1169 0.930 . S
H1154 C1170 0.931 . S
C1155 H1143 0.929 . S
C1155 C1149 1.390 . S
C1155 C1152 1.386 . S
C1156 C1151 1.490 . S
C1156 C1158 1.395 . S
C1156 C1159 1.403 . S
H1157 C1163 0.930 . S
C1158 H1144 0.930 . S
C1158 C1156 1.395 . S
C1158 C1161 1.403 . S
C1159 C1156 1.403 . S
C1159 C1160 1.524 . S
C1159 C1163 1.400 . S
C1160 H1145 0.960 . S
C1160 H1146 0.960 . S
C1160 H1147 0.960 . S
C1160 C1159 1.524 . S
C1161 C1158 1.403 . S
C1161 C1162 1.392 . S
C1161 C1165 1.495 . S
C1162 C1161 1.392 . S
C1162 C1163 1.385 . S
C1162 C1164 1.478 . S
C1163 H1157 0.930 . S
C1163 C1159 1.400 . S
C1163 C1162 1.385 . S
C1164 C1162 1.478 . S
C1164 C1166 1.381 . S
C1164 C1170 1.383 . S
C1165 C1161 1.495 . S
C1165 H1171 0.959 . S
C1165 H1172 0.961 . S
C1165 H1173 0.960 . S
C1166 C1164 1.381 . S
C1166 C1167 1.394 . S
C1166 H1174 0.930 . S
C1167 C1166 1.394 . S
C1167 C1168 1.383 . S
C1167 H1175 0.929 . S
C1168 C1167 1.383 . S
C1168 C1169 1.377 . S
C1169 H1153 0.930 . S
C1169 C1168 1.377 . S
C1169 C1170 1.379 . S
C1170 H1154 0.931 . S
C1170 C1164 1.383 . S
C1170 C1169 1.379 . S
H1171 C1165 0.959 . S
H1172 C1165 0.961 . S
H1173 C1165 0.960 . S
H1174 C1166 0.930 . S
H1175 C1167 0.929 . S
H1176 C1184 0.929 . S
H1177 C1186 0.930 . S
H1178 C1188 0.930 . S
H1179 C1191 0.929 . S
H1180 C1194 0.930 . S
H1181 C1196 0.960 . S
H1182 C1196 0.960 . S
H1183 C1196 0.960 . S
C1184 H1176 0.929 . S
C1184 C1185 1.377 . S
C1184 C1186 1.384 . S
C1185 C1184 1.377 . S
C1185 C1191 1.390 . S
C1186 H1177 0.930 . S
C1186 C1184 1.384 . S
C1186 C1187 1.372 . S
C1187 C1186 1.372 . S
C1187 C1188 1.400 . S
C1187 C1192 1.490 . S
C1188 H1178 0.930 . S
C1188 C1187 1.400 . S
C1188 C1191 1.386 . S
H1189 C1205 0.930 . S
H1190 C1206 0.931 . S
C1191 H1179 0.929 . S
C1191 C1185 1.390 . S
C1191 C1188 1.386 . S
C1192 C1187 1.490 . S
C1192 C1194 1.395 . S
C1192 C1195 1.403 . S
H1193 C1199 0.930 . S
C1194 H1180 0.930 . S
C1194 C1192 1.395 . S
C1194 C1197 1.403 . S
C1195 C1192 1.403 . S
C1195 C1196 1.524 . S
C1195 C1199 1.400 . S
C1196 H1181 0.960 . S
C1196 H1182 0.960 . S
C1196 H1183 0.960 . S
C1196 C1195 1.524 . S
C1197 C1194 1.403 . S
C1197 C1198 1.392 . S
C1197 C1201 1.495 . S
C1198 C1197 1.392 . S
C1198 C1199 1.385 . S
C1198 C1200 1.478 . S
C1199 H1193 0.930 . S
C1199 C1195 1.400 . S
C1199 C1198 1.385 . S
C1200 C1198 1.478 . S
C1200 C1202 1.381 . S
C1200 C1206 1.383 . S
C1201 C1197 1.495 . S
C1201 H1207 0.959 . S
C1201 H1208 0.961 . S
C1201 H1209 0.960 . S
C1202 C1200 1.381 . S
C1202 C1203 1.394 . S
C1202 H1210 0.930 . S
C1203 C1202 1.394 . S
C1203 C1204 1.383 . S
C1203 H1211 0.929 . S
C1204 C1203 1.383 . S
C1204 C1205 1.377 . S
C1205 H1189 0.930 . S
C1205 C1204 1.377 . S
C1205 C1206 1.379 . S
C1206 H1190 0.931 . S
C1206 C1200 1.383 . S
C1206 C1205 1.379 . S
H1207 C1201 0.959 . S
H1208 C1201 0.961 . S
H1209 C1201 0.960 . S
H1210 C1202 0.930 . S
H1211 C1203 0.929 . S
H1212 C1220 0.929 . S
H1213 C1222 0.930 . S
H1214 C1224 0.930 . S
H1215 C1227 0.929 . S
H1216 C1230 0.930 . S
H1217 C1232 0.960 . S
H1218 C1232 0.960 . S
H1219 C1232 0.960 . S
C1220 H1212 0.929 . S
C1220 C1221 1.377 . S
C1220 C1222 1.384 . S
C1221 C1220 1.377 . S
C1221 C1227 1.390 . S
C1222 H1213 0.930 . S
C1222 C1220 1.384 . S
C1222 C1223 1.372 . S
C1223 C1222 1.372 . S
C1223 C1224 1.400 . S
C1223 C1228 1.490 . S
C1224 H1214 0.930 . S
C1224 C1223 1.400 . S
C1224 C1227 1.386 . S
H1225 C1241 0.930 . S
H1226 C1242 0.931 . S
C1227 H1215 0.929 . S
C1227 C1221 1.390 . S
C1227 C1224 1.386 . S
C1228 C1223 1.490 . S
C1228 C1230 1.395 . S
C1228 C1231 1.403 . S
H1229 C1235 0.930 . S
C1230 H1216 0.930 . S
C1230 C1228 1.395 . S
C1230 C1233 1.403 . S
C1231 C1228 1.403 . S
C1231 C1232 1.524 . S
C1231 C1235 1.400 . S
C1232 H1217 0.960 . S
C1232 H1218 0.960 . S
C1232 H1219 0.960 . S
C1232 C1231 1.524 . S
C1233 C1230 1.403 . S
C1233 C1234 1.392 . S
C1233 C1237 1.495 . S
C1234 C1233 1.392 . S
C1234 C1235 1.385 . S
C1234 C1236 1.478 . S
C1235 H1229 0.930 . S
C1235 C1231 1.400 . S
C1235 C1234 1.385 . S
C1236 C1234 1.478 . S
C1236 C1238 1.381 . S
C1236 C1242 1.383 . S
C1237 C1233 1.495 . S
C1237 H1243 0.959 . S
C1237 H1244 0.961 . S
C1237 H1245 0.960 . S
C1238 C1236 1.381 . S
C1238 C1239 1.394 . S
C1238 H1246 0.930 . S
C1239 C1238 1.394 . S
C1239 C1240 1.383 . S
C1239 H1247 0.929 . S
C1240 C1239 1.383 . S
C1240 C1241 1.377 . S
C1241 H1225 0.930 . S
C1241 C1240 1.377 . S
C1241 C1242 1.379 . S
C1242 H1226 0.931 . S
C1242 C1236 1.383 . S
C1242 C1241 1.379 . S
H1243 C1237 0.959 . S
H1244 C1237 0.961 . S
H1245 C1237 0.960 . S
H1246 C1238 0.930 . S
H1247 C1239 0.929 . S
H1248 C1256 0.929 . S
H1249 C1258 0.930 . S
H1250 C1260 0.930 . S
H1251 C1263 0.929 . S
H1252 C1266 0.930 . S
H1253 C1268 0.960 . S
H1254 C1268 0.960 . S
H1255 C1268 0.960 . S
C1256 H1248 0.929 . S
C1256 C1257 1.377 . S
C1256 C1258 1.384 . S
C1257 C1256 1.377 . S
C1257 C1263 1.390 . S
C1258 H1249 0.930 . S
C1258 C1256 1.384 . S
C1258 C1259 1.372 . S
C1259 C1258 1.372 . S
C1259 C1260 1.400 . S
C1259 C1264 1.490 . S
C1260 H1250 0.930 . S
C1260 C1259 1.400 . S
C1260 C1263 1.386 . S
H1261 C1277 0.930 . S
H1262 C1278 0.931 . S
C1263 H1251 0.929 . S
C1263 C1257 1.390 . S
C1263 C1260 1.386 . S
C1264 C1259 1.490 . S
C1264 C1266 1.395 . S
C1264 C1267 1.403 . S
H1265 C1271 0.930 . S
C1266 H1252 0.930 . S
C1266 C1264 1.395 . S
C1266 C1269 1.403 . S
C1267 C1264 1.403 . S
C1267 C1268 1.524 . S
C1267 C1271 1.400 . S
C1268 H1253 0.960 . S
C1268 H1254 0.960 . S
C1268 H1255 0.960 . S
C1268 C1267 1.524 . S
C1269 C1266 1.403 . S
C1269 C1270 1.392 . S
C1269 C1273 1.495 . S
C1270 C1269 1.392 . S
C1270 C1271 1.385 . S
C1270 C1272 1.478 . S
C1271 H1265 0.930 . S
C1271 C1267 1.400 . S
C1271 C1270 1.385 . S
C1272 C1270 1.478 . S
C1272 C1274 1.381 . S
C1272 C1278 1.383 . S
C1273 C1269 1.495 . S
C1273 H1279 0.959 . S
C1273 H1280 0.961 . S
C1273 H1281 0.960 . S
C1274 C1272 1.381 . S
C1274 C1275 1.394 . S
C1274 H1282 0.930 . S
C1275 C1274 1.394 . S
C1275 C1276 1.383 . S
C1275 H1283 0.929 . S
C1276 C1275 1.383 . S
C1276 C1277 1.377 . S
C1277 H1261 0.930 . S
C1277 C1276 1.377 . S
C1277 C1278 1.379 . S
C1278 H1262 0.931 . S
C1278 C1272 1.383 . S
C1278 C1277 1.379 . S
H1279 C1273 0.959 . S
H1280 C1273 0.961 . S
H1281 C1273 0.960 . S
H1282 C1274 0.930 . S
H1283 C1275 0.929 . S
H1284 C1292 0.929 . S
H1285 C1294 0.930 . S
H1286 C1296 0.930 . S
H1287 C1299 0.929 . S
H1288 C1302 0.930 . S
H1289 C1304 0.960 . S
H1290 C1304 0.960 . S
H1291 C1304 0.960 . S
C1292 H1284 0.929 . S
C1292 C1293 1.377 . S
C1292 C1294 1.384 . S
C1293 C1292 1.377 . S
C1293 C1299 1.390 . S
C1294 H1285 0.930 . S
C1294 C1292 1.384 . S
C1294 C1295 1.372 . S
C1295 C1294 1.372 . S
C1295 C1296 1.400 . S
C1295 C1300 1.490 . S
C1296 H1286 0.930 . S
C1296 C1295 1.400 . S
C1296 C1299 1.386 . S
H1297 C1313 0.930 . S
H1298 C1314 0.931 . S
C1299 H1287 0.929 . S
C1299 C1293 1.390 . S
C1299 C1296 1.386 . S
C1300 C1295 1.490 . S
C1300 C1302 1.395 . S
C1300 C1303 1.403 . S
H1301 C1307 0.930 . S
C1302 H1288 0.930 . S
C1302 C1300 1.395 . S
C1302 C1305 1.403 . S
C1303 C1300 1.403 . S
C1303 C1304 1.524 . S
C1303 C1307 1.400 . S
C1304 H1289 0.960 . S
C1304 H1290 0.960 . S
C1304 H1291 0.960 . S
C1304 C1303 1.524 . S
C1305 C1302 1.403 . S
C1305 C1306 1.392 . S
C1305 C1309 1.495 . S
C1306 C1305 1.392 . S
C1306 C1307 1.385 . S
C1306 C1308 1.478 . S
C1307 H1301 0.930 . S
C1307 C1303 1.400 . S
C1307 C1306 1.385 . S
C1308 C1306 1.478 . S
C1308 C1310 1.381 . S
C1308 C1314 1.383 . S
C1309 C1305 1.495 . S
C1309 H1315 0.959 . S
C1309 H1316 0.961 . S
C1309 H1317 0.960 . S
C1310 C1308 1.381 . S
C1310 C1311 1.394 . S
C1310 H1318 0.930 . S
C1311 C1310 1.394 . S
C1311 C1312 1.383 . S
C1311 H1319 0.929 . S
C1312 C1311 1.383 . S
C1312 C1313 1.377 . S
C1313 H1297 0.930 . S
C1313 C1312 1.377 . S
C1313 C1314 1.379 . S
C1314 H1298 0.931 . S
C1314 C1308 1.383 . S
C1314 C1313 1.379 . S
H1315 C1309 0.959 . S
H1316 C1309 0.961 . S
H1317 C1309 0.960 . S
H1318 C1310 0.930 . S
H1319 C1311 0.929 . S
H1320 C1328 0.929 . S
H1321 C1330 0.930 . S
H1322 C1332 0.930 . S
H1323 C1335 0.929 . S
H1324 C1338 0.930 . S
H1325 C1340 0.960 . S
H1326 C1340 0.960 . S
H1327 C1340 0.960 . S
C1328 H1320 0.929 . S
C1328 C1329 1.377 . S
C1328 C1330 1.384 . S
C1329 C1328 1.377 . S
C1329 C1335 1.390 . S
C1330 H1321 0.930 . S
C1330 C1328 1.384 . S
C1330 C1331 1.372 . S
C1331 C1330 1.372 . S
C1331 C1332 1.400 . S
C1331 C1336 1.490 . S
C1332 H1322 0.930 . S
C1332 C1331 1.400 . S
C1332 C1335 1.386 . S
H1333 C1349 0.930 . S
H1334 C1350 0.931 . S
C1335 H1323 0.929 . S
C1335 C1329 1.390 . S
C1335 C1332 1.386 . S
C1336 C1331 1.490 . S
C1336 C1338 1.395 . S
C1336 C1339 1.403 . S
H1337 C1343 0.930 . S
C1338 H1324 0.930 . S
C1338 C1336 1.395 . S
C1338 C1341 1.403 . S
C1339 C1336 1.403 . S
C1339 C1340 1.524 . S
C1339 C1343 1.400 . S
C1340 H1325 0.960 . S
C1340 H1326 0.960 . S
C1340 H1327 0.960 . S
C1340 C1339 1.524 . S
C1341 C1338 1.403 . S
C1341 C1342 1.392 . S
C1341 C1345 1.495 . S
C1342 C1341 1.392 . S
C1342 C1343 1.385 . S
C1342 C1344 1.478 . S
C1343 H1337 0.930 . S
C1343 C1339 1.400 . S
C1343 C1342 1.385 . S
C1344 C1342 1.478 . S
C1344 C1346 1.381 . S
C1344 C1350 1.383 . S
C1345 C1341 1.495 . S
C1345 H1351 0.959 . S
C1345 H1352 0.961 . S
C1345 H1353 0.960 . S
C1346 C1344 1.381 . S
C1346 C1347 1.394 . S
C1346 H1354 0.930 . S
C1347 C1346 1.394 . S
C1347 C1348 1.383 . S
C1347 H1355 0.929 . S
C1348 C1347 1.383 . S
C1348 C1349 1.377 . S
C1349 H1333 0.930 . S
C1349 C1348 1.377 . S
C1349 C1350 1.379 . S
C1350 H1334 0.931 . S
C1350 C1344 1.383 . S
C1350 C1349 1.379 . S
H1351 C1345 0.959 . S
H1352 C1345 0.961 . S
H1353 C1345 0.960 . S
H1354 C1346 0.930 . S
H1355 C1347 0.929 . S
H1356 C1364 0.929 . S
H1357 C1366 0.930 . S
H1358 C1368 0.930 . S
H1359 C1371 0.929 . S
H1360 C1374 0.930 . S
H1361 C1376 0.960 . S
H1362 C1376 0.960 . S
H1363 C1376 0.960 . S
C1364 H1356 0.929 . S
C1364 C1365 1.377 . S
C1364 C1366 1.384 . S
C1365 C1364 1.377 . S
C1365 C1371 1.390 . S
C1366 H1357 0.930 . S
C1366 C1364 1.384 . S
C1366 C1367 1.372 . S
C1367 C1366 1.372 . S
C1367 C1368 1.400 . S
C1367 C1372 1.490 . S
C1368 H1358 0.930 . S
C1368 C1367 1.400 . S
C1368 C1371 1.386 . S
H1369 C1385 0.930 . S
H1370 C1386 0.931 . S
C1371 H1359 0.929 . S
C1371 C1365 1.390 . S
C1371 C1368 1.386 . S
C1372 C1367 1.490 . S
C1372 C1374 1.395 . S
C1372 C1375 1.403 . S
H1373 C1379 0.930 . S
C1374 H1360 0.930 . S
C1374 C1372 1.395 . S
C1374 C1377 1.403 . S
C1375 C1372 1.403 . S
C1375 C1376 1.524 . S
C1375 C1379 1.400 . S
C1376 H1361 0.960 . S
C1376 H1362 0.960 . S
C1376 H1363 0.960 . S
C1376 C1375 1.524 . S
C1377 C1374 1.403 . S
C1377 C1378 1.392 . S
C1377 C1381 1.495 . S
C1378 C1377 1.392 . S
C1378 C1379 1.385 . S
C1378 C1380 1.478 . S
C1379 H1373 0.930 . S
C1379 C1375 1.400 . S
C1379 C1378 1.385 . S
C1380 C1378 1.478 . S
C1380 C1382 1.381 . S
C1380 C1386 1.383 . S
C1381 C1377 1.495 . S
C1381 H1387 0.959 . S
C1381 H1388 0.961 . S
C1381 H1389 0.960 . S
C1382 C1380 1.381 . S
C1382 C1383 1.394 . S
C1382 H1390 0.930 . S
C1383 C1382 1.394 . S
C1383 C1384 1.383 . S
C1383 H1391 0.929 . S
C1384 C1383 1.383 . S
C1384 C1385 1.377 . S
C1385 H1369 0.930 . S
C1385 C1384 1.377 . S
C1385 C1386 1.379 . S
C1386 H1370 0.931 . S
C1386 C1380 1.383 . S
C1386 C1385 1.379 . S
H1387 C1381 0.959 . S
H1388 C1381 0.961 . S
H1389 C1381 0.960 . S
H1390 C1382 0.930 . S
H1391 C1383 0.929 . S
H1392 C1400 0.929 . S
H1393 C1402 0.930 . S
H1394 C1404 0.930 . S
H1395 C1407 0.929 . S
H1396 C1410 0.930 . S
H1397 C1412 0.960 . S
H1398 C1412 0.960 . S
H1399 C1412 0.960 . S
C1400 H1392 0.929 . S
C1400 C1401 1.377 . S
C1400 C1402 1.384 . S
C1401 C1400 1.377 . S
C1401 C1407 1.390 . S
C1402 H1393 0.930 . S
C1402 C1400 1.384 . S
C1402 C1403 1.372 . S
C1403 C1402 1.372 . S
C1403 C1404 1.400 . S
C1403 C1408 1.490 . S
C1404 H1394 0.930 . S
C1404 C1403 1.400 . S
C1404 C1407 1.386 . S
H1405 C1421 0.930 . S
H1406 C1422 0.931 . S
C1407 H1395 0.929 . S
C1407 C1401 1.390 . S
C1407 C1404 1.386 . S
C1408 C1403 1.490 . S
C1408 C1410 1.395 . S
C1408 C1411 1.403 . S
H1409 C1415 0.930 . S
C1410 H1396 0.930 . S
C1410 C1408 1.395 . S
C1410 C1413 1.403 . S
C1411 C1408 1.403 . S
C1411 C1412 1.524 . S
C1411 C1415 1.400 . S
C1412 H1397 0.960 . S
C1412 H1398 0.960 . S
C1412 H1399 0.960 . S
C1412 C1411 1.524 . S
C1413 C1410 1.403 . S
C1413 C1414 1.392 . S
C1413 C1417 1.495 . S
C1414 C1413 1.392 . S
C1414 C1415 1.385 . S
C1414 C1416 1.478 . S
C1415 H1409 0.930 . S
C1415 C1411 1.400 . S
C1415 C1414 1.385 . S
C1416 C1414 1.478 . S
C1416 C1418 1.381 . S
C1416 C1422 1.383 . S
C1417 C1413 1.495 . S
C1417 H1423 0.959 . S
C1417 H1424 0.961 . S
C1417 H1425 0.960 . S
C1418 C1416 1.381 . S
C1418 C1419 1.394 . S
C1418 H1426 0.930 . S
C1419 C1418 1.394 . S
C1419 C1420 1.383 . S
C1419 H1427 0.929 . S
C1420 C1419 1.383 . S
C1420 C1421 1.377 . S
C1421 H1405 0.930 . S
C1421 C1420 1.377 . S
C1421 C1422 1.379 . S
C1422 H1406 0.931 . S
C1422 C1416 1.383 . S
C1422 C1421 1.379 . S
H1423 C1417 0.959 . S
H1424 C1417 0.961 . S
H1425 C1417 0.960 . S
H1426 C1418 0.930 . S
H1427 C1419 0.929 . S
H1428 C1436 0.929 . S
H1429 C1438 0.930 . S
H1430 C1440 0.930 . S
H1431 C1443 0.929 . S
H1432 C1446 0.930 . S
H1433 C1448 0.960 . S
H1434 C1448 0.960 . S
H1435 C1448 0.960 . S
C1436 H1428 0.929 . S
C1436 C1437 1.377 . S
C1436 C1438 1.384 . S
C1437 C1436 1.377 . S
C1437 C1443 1.390 . S
C1438 H1429 0.930 . S
C1438 C1436 1.384 . S
C1438 C1439 1.372 . S
C1439 C1438 1.372 . S
C1439 C1440 1.400 . S
C1439 C1444 1.490 . S
C1440 H1430 0.930 . S
C1440 C1439 1.400 . S
C1440 C1443 1.386 . S
H1441 C1457 0.930 . S
H1442 C1458 0.931 . S
C1443 H1431 0.929 . S
C1443 C1437 1.390 . S
C1443 C1440 1.386 . S
C1444 C1439 1.490 . S
C1444 C1446 1.395 . S
C1444 C1447 1.403 . S
H1445 C1451 0.930 . S
C1446 H1432 0.930 . S
C1446 C1444 1.395 . S
C1446 C1449 1.403 . S
C1447 C1444 1.403 . S
C1447 C1448 1.524 . S
C1447 C1451 1.400 . S
C1448 H1433 0.960 . S
C1448 H1434 0.960 . S
C1448 H1435 0.960 . S
C1448 C1447 1.524 . S
C1449 C1446 1.403 . S
C1449 C1450 1.392 . S
C1449 C1453 1.495 . S
C1450 C1449 1.392 . S
C1450 C1451 1.385 . S
C1450 C1452 1.478 . S
C1451 H1445 0.930 . S
C1451 C1447 1.400 . S
C1451 C1450 1.385 . S
C1452 C1450 1.478 . S
C1452 C1454 1.381 . S
C1452 C1458 1.383 . S
C1453 C1449 1.495 . S
C1453 H1459 0.959 . S
C1453 H1460 0.961 . S
C1453 H1461 0.960 . S
C1454 C1452 1.381 . S
C1454 C1455 1.394 . S
C1454 H1462 0.930 . S
C1455 C1454 1.394 . S
C1455 C1456 1.383 . S
C1455 H1463 0.929 . S
C1456 C1455 1.383 . S
C1456 C1457 1.377 . S
C1457 H1441 0.930 . S
C1457 C1456 1.377 . S
C1457 C1458 1.379 . S
C1458 H1442 0.931 . S
C1458 C1452 1.383 . S
C1458 C1457 1.379 . S
H1459 C1453 0.959 . S
H1460 C1453 0.961 . S
H1461 C1453 0.960 . S
H1462 C1454 0.930 . S
H1463 C1455 0.929 . S
H1464 C1472 0.929 . S
H1465 C1474 0.930 . S
H1466 C1476 0.930 . S
H1467 C1479 0.929 . S
H1468 C1482 0.930 . S
H1469 C1484 0.960 . S
H1470 C1484 0.960 . S
H1471 C1484 0.960 . S
C1472 H1464 0.929 . S
C1472 C1473 1.377 . S
C1472 C1474 1.384 . S
C1473 C1472 1.377 . S
C1473 C1479 1.390 . S
C1474 H1465 0.930 . S
C1474 C1472 1.384 . S
C1474 C1475 1.372 . S
C1475 C1474 1.372 . S
C1475 C1476 1.400 . S
C1475 C1480 1.490 . S
C1476 H1466 0.930 . S
C1476 C1475 1.400 . S
C1476 C1479 1.386 . S
H1477 C1493 0.930 . S
H1478 C1494 0.931 . S
C1479 H1467 0.929 . S
C1479 C1473 1.390 . S
C1479 C1476 1.386 . S
C1480 C1475 1.490 . S
C1480 C1482 1.395 . S
C1480 C1483 1.403 . S
H1481 C1487 0.930 . S
C1482 H1468 0.930 . S
C1482 C1480 1.395 . S
C1482 C1485 1.403 . S
C1483 C1480 1.403 . S
C1483 C1484 1.524 . S
C1483 C1487 1.400 . S
C1484 H1469 0.960 . S
C1484 H1470 0.960 . S
C1484 H1471 0.960 . S
C1484 C1483 1.524 . S
C1485 C1482 1.403 . S
C1485 C1486 1.392 . S
C1485 C1489 1.495 . S
C1486 C1485 1.392 . S
C1486 C1487 1.385 . S
C1486 C1488 1.478 . S
C1487 H1481 0.930 . S
C1487 C1483 1.400 . S
C1487 C1486 1.385 . S
C1488 C1486 1.478 . S
C1488 C1490 1.381 . S
C1488 C1494 1.383 . S
C1489 C1485 1.495 . S
C1489 H1495 0.959 . S
C1489 H1496 0.961 . S
C1489 H1497 0.960 . S
C1490 C1488 1.381 . S
C1490 C1491 1.394 . S
C1490 H1498 0.930 . S
C1491 C1490 1.394 . S
C1491 C1492 1.383 . S
C1491 H1499 0.929 . S
C1492 C1491 1.383 . S
C1492 C1493 1.377 . S
C1493 H1477 0.930 . S
C1493 C1492 1.377 . S
C1493 C1494 1.379 . S
C1494 H1478 0.931 . S
C1494 C1488 1.383 . S
C1494 C1493 1.379 . S
H1495 C1489 0.959 . S
H1496 C1489 0.961 . S
H1497 C1489 0.960 . S
H1498 C1490 0.930 . S
H1499 C1491 0.929 . S
H1500 C1508 0.929 . S
H1501 C1510 0.930 . S
H1502 C1512 0.930 . S
H1503 C1515 0.929 . S
H1504 C1518 0.930 . S
H1505 C1520 0.960 . S
H1506 C1520 0.960 . S
H1507 C1520 0.960 . S
C1508 H1500 0.929 . S
C1508 C1509 1.377 . S
C1508 C1510 1.384 . S
C1509 C1508 1.377 . S
C1509 C1515 1.390 . S
C1510 H1501 0.930 . S
C1510 C1508 1.384 . S
C1510 C1511 1.372 . S
C1511 C1510 1.372 . S
C1511 C1512 1.400 . S
C1511 C1516 1.490 . S
C1512 H1502 0.930 . S
C1512 C1511 1.400 . S
C1512 C1515 1.386 . S
H1513 C1529 0.930 . S
H1514 C1530 0.931 . S
C1515 H1503 0.929 . S
C1515 C1509 1.390 . S
C1515 C1512 1.386 . S
C1516 C1511 1.490 . S
C1516 C1518 1.395 . S
C1516 C1519 1.403 . S
H1517 C1523 0.930 . S
C1518 H1504 0.930 . S
C1518 C1516 1.395 . S
C1518 C1521 1.403 . S
C1519 C1516 1.403 . S
C1519 C1520 1.524 . S
C1519 C1523 1.400 . S
C1520 H1505 0.960 . S
C1520 H1506 0.960 . S
C1520 H1507 0.960 . S
C1520 C1519 1.524 . S
C1521 C1518 1.403 . S
C1521 C1522 1.392 . S
C1521 C1525 1.495 . S
C1522 C1521 1.392 . S
C1522 C1523 1.385 . S
C1522 C1524 1.478 . S
C1523 H1517 0.930 . S
C1523 C1519 1.400 . S
C1523 C1522 1.385 . S
C1524 C1522 1.478 . S
C1524 C1526 1.381 . S
C1524 C1530 1.383 . S
C1525 C1521 1.495 . S
C1525 H1531 0.959 . S
C1525 H1532 0.961 . S
C1525 H1533 0.960 . S
C1526 C1524 1.381 . S
C1526 C1527 1.394 . S
C1526 H1534 0.930 . S
C1527 C1526 1.394 . S
C1527 C1528 1.383 . S
C1527 H1535 0.929 . S
C1528 C1527 1.383 . S
C1528 C1529 1.377 . S
C1529 H1513 0.930 . S
C1529 C1528 1.377 . S
C1529 C1530 1.379 . S
C1530 H1514 0.931 . S
C1530 C1524 1.383 . S
C1530 C1529 1.379 . S
H1531 C1525 0.959 . S
H1532 C1525 0.961 . S
H1533 C1525 0.960 . S
H1534 C1526 0.930 . S
H1535 C1527 0.929 . S
H1536 C1544 0.929 . S
H1537 C1546 0.930 . S
H1538 C1548 0.930 . S
H1539 C1551 0.929 . S
H1540 C1554 0.930 . S
H1541 C1556 0.960 . S
H1542 C1556 0.960 . S
H1543 C1556 0.960 . S
C1544 H1536 0.929 . S
C1544 C1545 1.377 . S
C1544 C1546 1.384 . S
C1545 C1544 1.377 . S
C1545 C1551 1.390 . S
C1546 H1537 0.930 . S
C1546 C1544 1.384 . S
C1546 C1547 1.372 . S
C1547 C1546 1.372 . S
C1547 C1548 1.400 . S
C1547 C1552 1.490 . S
C1548 H1538 0.930 . S
C1548 C1547 1.400 . S
C1548 C1551 1.386 . S
H1549 C1565 0.930 . S
H1550 C1566 0.931 . S
C1551 H1539 0.929 . S
C1551 C1545 1.390 . S
C1551 C1548 1.386 . S
C1552 C1547 1.490 . S
C1552 C1554 1.395 . S
C1552 C1555 1.403 . S
H1553 C1559 0.930 . S
C1554 H1540 0.930 . S
C1554 C1552 1.395 . S
C1554 C1557 1.403 . S
C1555 C1552 1.403 . S
C1555 C1556 1.524 . S
C1555 C1559 1.400 . S
C1556 H1541 0.960 . S
C1556 H1542 0.960 . S
C1556 H1543 0.960 . S
C1556 C1555 1.524 . S
C1557 C1554 1.403 . S
C1557 C1558 1.392 . S
C1557 C1561 1.495 . S
C1558 C1557 1.392 . S
C1558 C1559 1.385 . S
C1558 C1560 1.478 . S
C1559 H1553 0.930 . S
C1559 C1555 1.400 . S
C1559 C1558 1.385 . S
C1560 C1558 1.478 . S
C1560 C1562 1.381 . S
C1560 C1566 1.383 . S
C1561 C1557 1.495 . S
C1561 H1567 0.959 . S
C1561 H1568 0.961 . S
C1561 H1569 0.960 . S
C1562 C1560 1.381 . S
C1562 C1563 1.394 . S
C1562 H1570 0.930 . S
C1563 C1562 1.394 . S
C1563 C1564 1.383 . S
C1563 H1571 0.929 . S
C1564 C1563 1.383 . S
C1564 C1565 1.377 . S
C1565 H1549 0.930 . S
C1565 C1564 1.377 . S
C1565 C1566 1.379 . S
C1566 H1550 0.931 . S
C1566 C1560 1.383 . S
C1566 C1565 1.379 . S
H1567 C1561 0.959 . S
H1568 C1561 0.961 . S
H1569 C1561 0.960 . S
H1570 C1562 0.930 . S
H1571 C1563 0.929 . S
H1572 C1580 0.929 . S
H1573 C1582 0.930 . S
H1574 C1584 0.930 . S
H1575 C1587 0.929 . S
H1576 C1590 0.930 . S
H1577 C1592 0.960 . S
H1578 C1592 0.960 . S
H1579 C1592 0.960 . S
C1580 H1572 0.929 . S
C1580 C1581 1.377 . S
C1580 C1582 1.384 . S
C1581 C1580 1.377 . S
C1581 C1587 1.390 . S
C1582 H1573 0.930 . S
C1582 C1580 1.384 . S
C1582 C1583 1.372 . S
C1583 C1582 1.372 . S
C1583 C1584 1.400 . S
C1583 C1588 1.490 . S
C1584 H1574 0.930 . S
C1584 C1583 1.400 . S
C1584 C1587 1.386 . S
H1585 C1601 0.930 . S
H1586 C1602 0.931 . S
C1587 H1575 0.929 . S
C1587 C1581 1.390 . S
C1587 C1584 1.386 . S
C1588 C1583 1.490 . S
C1588 C1590 1.395 . S
C1588 C1591 1.403 . S
H1589 C1595 0.930 . S
C1590 H1576 0.930 . S
C1590 C1588 1.395 . S
C1590 C1593 1.403 1_556 S
C1591 C1588 1.403 . S
C1591 C1592 1.524 . S
C1591 C1595 1.400 1_556 S
C1592 H1577 0.960 . S
C1592 H1578 0.960 . S
C1592 H1579 0.960 . S
C1592 C1591 1.524 . S
C1593 C1590 1.403 1_554 S
C1593 C1594 1.392 . S
C1593 C1597 1.495 . S
C1594 C1593 1.392 . S
C1594 C1595 1.385 . S
C1594 C1596 1.478 . S
C1595 H1589 0.930 . S
C1595 C1591 1.400 1_554 S
C1595 C1594 1.385 . S
C1596 C1594 1.478 . S
C1596 C1598 1.381 . S
C1596 C1602 1.383 . S
C1597 C1593 1.495 . S
C1597 H1603 0.959 . S
C1597 H1604 0.961 . S
C1597 H1605 0.960 . S
C1598 C1596 1.381 . S
C1598 C1599 1.394 . S
C1598 H1606 0.930 . S
C1599 C1598 1.394 . S
C1599 C1600 1.383 . S
C1599 H1607 0.929 . S
C1600 C1599 1.383 . S
C1600 C1601 1.377 . S
C1601 H1585 0.930 . S
C1601 C1600 1.377 . S
C1601 C1602 1.379 . S
C1602 H1586 0.931 . S
C1602 C1596 1.383 . S
C1602 C1601 1.379 . S
H1603 C1597 0.959 . S
H1604 C1597 0.961 . S
H1605 C1597 0.960 . S
H1606 C1598 0.930 . S
H1607 C1599 0.929 . S
H1608 C1616 0.929 . S
H1609 C1618 0.930 . S
H1610 C1620 0.930 . S
H1611 C1623 0.929 . S
H1612 C1626 0.930 . S
H1613 C1628 0.960 . S
H1614 C1628 0.960 . S
H1615 C1628 0.960 . S
C1616 H1608 0.929 . S
C1616 C1617 1.377 . S
C1616 C1618 1.384 . S
C1617 C1616 1.377 . S
C1617 C1623 1.390 . S
C1618 H1609 0.930 . S
C1618 C1616 1.384 . S
C1618 C1619 1.372 . S
C1619 C1618 1.372 . S
C1619 C1620 1.400 . S
C1619 C1624 1.490 . S
C1620 H1610 0.930 . S
C1620 C1619 1.400 . S
C1620 C1623 1.386 . S
H1621 C1637 0.930 . S
H1622 C1638 0.931 . S
C1623 H1611 0.929 . S
C1623 C1617 1.390 . S
C1623 C1620 1.386 . S
C1624 C1619 1.490 . S
C1624 C1626 1.395 . S
C1624 C1627 1.403 . S
H1625 C1631 0.930 . S
C1626 H1612 0.930 . S
C1626 C1624 1.395 . S
C1626 C1629 1.403 . S
C1627 C1624 1.403 . S
C1627 C1628 1.524 . S
C1627 C1631 1.400 . S
C1628 H1613 0.960 . S
C1628 H1614 0.960 . S
C1628 H1615 0.960 . S
C1628 C1627 1.524 . S
C1629 C1626 1.403 . S
C1629 C1630 1.392 . S
C1629 C1633 1.495 . S
C1630 C1629 1.392 . S
C1630 C1631 1.385 . S
C1630 C1632 1.478 . S
C1631 H1625 0.930 . S
C1631 C1627 1.400 . S
C1631 C1630 1.385 . S
C1632 C1630 1.478 . S
C1632 C1634 1.381 . S
C1632 C1638 1.383 . S
C1633 C1629 1.495 . S
C1633 H1639 0.959 . S
C1633 H1640 0.961 . S
C1633 H1641 0.960 . S
C1634 C1632 1.381 . S
C1634 C1635 1.394 . S
C1634 H1642 0.930 . S
C1635 C1634 1.394 . S
C1635 C1636 1.383 . S
C1635 H1643 0.929 . S
C1636 C1635 1.383 . S
C1636 C1637 1.377 . S
C1637 H1621 0.930 . S
C1637 C1636 1.377 . S
C1637 C1638 1.379 . S
C1638 H1622 0.931 . S
C1638 C1632 1.383 . S
C1638 C1637 1.379 . S
H1639 C1633 0.959 . S
H1640 C1633 0.961 . S
H1641 C1633 0.960 . S
H1642 C1634 0.930 . S
H1643 C1635 0.929 . S
H1644 C1652 0.929 . S
H1645 C1654 0.930 . S
H1646 C1656 0.930 . S
H1647 C1659 0.929 . S
H1648 C1662 0.930 . S
H1649 C1664 0.960 . S
H1650 C1664 0.960 . S
H1651 C1664 0.960 . S
C1652 H1644 0.929 . S
C1652 C1653 1.377 . S
C1652 C1654 1.384 . S
C1653 C1652 1.377 . S
C1653 C1659 1.390 . S
C1654 H1645 0.930 . S
C1654 C1652 1.384 . S
C1654 C1655 1.372 . S
C1655 C1654 1.372 . S
C1655 C1656 1.400 . S
C1655 C1660 1.490 . S
C1656 H1646 0.930 . S
C1656 C1655 1.400 . S
C1656 C1659 1.386 . S
H1657 C1673 0.930 . S
H1658 C1674 0.931 . S
C1659 H1647 0.929 . S
C1659 C1653 1.390 . S
C1659 C1656 1.386 . S
C1660 C1655 1.490 . S
C1660 C1662 1.395 . S
C1660 C1663 1.403 . S
H1661 C1667 0.930 . S
C1662 H1648 0.930 . S
C1662 C1660 1.395 . S
C1662 C1665 1.403 1_556 S
C1663 C1660 1.403 . S
C1663 C1664 1.524 . S
C1663 C1667 1.400 1_556 S
C1664 H1649 0.960 . S
C1664 H1650 0.960 . S
C1664 H1651 0.960 . S
C1664 C1663 1.524 . S
C1665 C1662 1.403 1_554 S
C1665 C1666 1.392 . S
C1665 C1669 1.495 . S
C1666 C1665 1.392 . S
C1666 C1667 1.385 . S
C1666 C1668 1.478 . S
C1667 H1661 0.930 . S
C1667 C1663 1.400 1_554 S
C1667 C1666 1.385 . S
C1668 C1666 1.478 . S
C1668 C1670 1.381 . S
C1668 C1674 1.383 . S
C1669 C1665 1.495 . S
C1669 H1675 0.959 . S
C1669 H1676 0.961 . S
C1669 H1677 0.960 . S
C1670 C1668 1.381 . S
C1670 C1671 1.394 . S
C1670 H1678 0.930 . S
C1671 C1670 1.394 . S
C1671 C1672 1.383 . S
C1671 H1679 0.929 . S
C1672 C1671 1.383 . S
C1672 C1673 1.377 . S
C1673 H1657 0.930 . S
C1673 C1672 1.377 . S
C1673 C1674 1.379 . S
C1674 H1658 0.931 . S
C1674 C1668 1.383 . S
C1674 C1673 1.379 . S
H1675 C1669 0.959 . S
H1676 C1669 0.961 . S
H1677 C1669 0.960 . S
H1678 C1670 0.930 . S
H1679 C1671 0.929 . S
H1680 C1688 0.929 . S
H1681 C1690 0.930 . S
H1682 C1692 0.930 . S
H1683 C1695 0.929 . S
H1684 C1698 0.930 . S
H1685 C1700 0.960 . S
H1686 C1700 0.960 . S
H1687 C1700 0.960 . S
C1688 H1680 0.929 . S
C1688 C1689 1.377 . S
C1688 C1690 1.384 . S
C1689 C1688 1.377 . S
C1689 C1695 1.390 . S
C1690 H1681 0.930 . S
C1690 C1688 1.384 . S
C1690 C1691 1.372 . S
C1691 C1690 1.372 . S
C1691 C1692 1.400 . S
C1691 C1696 1.490 . S
C1692 H1682 0.930 . S
C1692 C1691 1.400 . S
C1692 C1695 1.386 . S
H1693 C1709 0.930 . S
H1694 C1710 0.931 . S
C1695 H1683 0.929 . S
C1695 C1689 1.390 . S
C1695 C1692 1.386 . S
C1696 C1691 1.490 . S
C1696 C1698 1.395 . S
C1696 C1699 1.403 . S
H1697 C1703 0.930 . S
C1698 H1684 0.930 . S
C1698 C1696 1.395 . S
C1698 C1701 1.403 . S
C1699 C1696 1.403 . S
C1699 C1700 1.524 . S
C1699 C1703 1.400 . S
C1700 H1685 0.960 . S
C1700 H1686 0.960 . S
C1700 H1687 0.960 . S
C1700 C1699 1.524 . S
C1701 C1698 1.403 . S
C1701 C1702 1.392 . S
C1701 C1705 1.495 . S
C1702 C1701 1.392 . S
C1702 C1703 1.385 . S
C1702 C1704 1.478 . S
C1703 H1697 0.930 . S
C1703 C1699 1.400 . S
C1703 C1702 1.385 . S
C1704 C1702 1.478 . S
C1704 C1706 1.381 . S
C1704 C1710 1.383 . S
C1705 C1701 1.495 . S
C1705 H1711 0.959 . S
C1705 H1712 0.961 . S
C1705 H1713 0.960 . S
C1706 C1704 1.381 . S
C1706 C1707 1.394 . S
C1706 H1714 0.930 . S
C1707 C1706 1.394 . S
C1707 C1708 1.383 . S
C1707 H1715 0.929 . S
C1708 C1707 1.383 . S
C1708 C1709 1.377 . S
C1709 H1693 0.930 . S
C1709 C1708 1.377 . S
C1709 C1710 1.379 . S
C1710 H1694 0.931 . S
C1710 C1704 1.383 . S
C1710 C1709 1.379 . S
H1711 C1705 0.959 . S
H1712 C1705 0.961 . S
H1713 C1705 0.960 . S
H1714 C1706 0.930 . S
H1715 C1707 0.929 . S
H1716 C1724 0.929 . S
H1717 C1726 0.930 . S
H1718 C1728 0.930 . S
H1719 C1731 0.929 . S
H1720 C1734 0.930 . S
H1721 C1736 0.983 . S
H1722 C1736 0.960 . S
H1723 C1736 0.960 . S
C1724 H1716 0.929 . S
C1724 C1725 1.377 . S
C1724 C1726 1.384 . S
C1725 C1724 1.377 . S
C1725 C1731 1.390 . S
C1726 H1717 0.930 . S
C1726 C1724 1.384 . S
C1726 C1727 1.372 . S
C1727 C1726 1.372 . S
C1727 C1728 1.400 . S
C1727 C1732 1.490 . S
C1728 H1718 0.930 . S
C1728 C1727 1.400 . S
C1728 C1731 1.386 . S
H1729 C1745 0.930 . S
H1730 C1746 0.931 . S
C1731 H1719 0.929 . S
C1731 C1725 1.390 . S
C1731 C1728 1.386 . S
C1732 C1727 1.490 . S
C1732 C1734 1.395 . S
C1732 C1735 1.403 . S
H1733 C1739 0.930 . S
C1734 H1720 0.930 . S
C1734 C1732 1.395 . S
C1734 C1737 1.403 1_556 S
C1735 C1732 1.403 . S
C1735 C1736 1.524 . S
C1735 C1739 1.400 1_556 S
C1736 H1721 0.983 . S
C1736 H1722 0.960 . S
C1736 H1723 0.960 . S
C1736 C1735 1.524 . S
C1737 C1734 1.403 1_554 S
C1737 C1738 1.392 . S
C1737 C1741 1.495 . S
C1738 C1737 1.392 . S
C1738 C1739 1.385 . S
C1738 C1740 1.478 . S
C1739 H1733 0.930 . S
C1739 C1735 1.400 1_554 S
C1739 C1738 1.385 . S
C1740 C1738 1.478 . S
C1740 C1742 1.381 . S
C1740 C1746 1.383 . S
C1741 C1737 1.495 . S
C1741 H1747 0.959 . S
C1741 H1748 0.961 . S
C1741 H1749 0.960 . S
C1742 C1740 1.381 . S
C1742 C1743 1.394 . S
C1742 H1750 0.930 . S
C1743 C1742 1.394 . S
C1743 C1744 1.383 . S
C1743 H1751 0.929 . S
C1744 C1743 1.383 . S
C1744 C1745 1.377 . S
C1745 H1729 0.930 . S
C1745 C1744 1.377 . S
C1745 C1746 1.379 . S
C1746 H1730 0.931 . S
C1746 C1740 1.383 . S
C1746 C1745 1.379 . S
H1747 C1741 0.959 . S
H1748 C1741 0.961 . S
H1749 C1741 0.960 . S
H1750 C1742 0.930 . S
H1751 C1743 0.929 . S
H1752 C1760 0.929 . S
H1753 C1762 0.930 . S
H1754 C1764 0.930 . S
H1755 C1767 0.929 . S
H1756 C1770 0.930 . S
H1757 C1772 0.960 . S
H1758 C1772 0.960 . S
H1759 C1772 0.960 . S
C1760 H1752 0.929 . S
C1760 C1761 1.377 . S
C1760 C1762 1.384 . S
C1761 C1760 1.377 . S
C1761 C1767 1.390 . S
C1762 H1753 0.930 . S
C1762 C1760 1.384 . S
C1762 C1763 1.372 . S
C1763 C1762 1.372 . S
C1763 C1764 1.400 . S
C1763 C1768 1.490 . S
C1764 H1754 0.930 . S
C1764 C1763 1.400 . S
C1764 C1767 1.386 . S
H1765 C1781 0.930 . S
H1766 C1782 0.931 . S
C1767 H1755 0.929 . S
C1767 C1761 1.390 . S
C1767 C1764 1.386 . S
C1768 C1763 1.490 . S
C1768 C1770 1.395 . S
C1768 C1771 1.403 . S
H1769 C1775 0.930 . S
C1770 H1756 0.930 . S
C1770 C1768 1.395 . S
C1770 C1773 1.403 . S
C1771 C1768 1.403 . S
C1771 C1772 1.524 . S
C1771 C1775 1.400 . S
C1772 H1757 0.960 . S
C1772 H1758 0.960 . S
C1772 H1759 0.960 . S
C1772 C1771 1.524 . S
C1773 C1770 1.403 . S
C1773 C1774 1.392 . S
C1773 C1777 1.495 . S
C1774 C1773 1.392 . S
C1774 C1775 1.385 . S
C1774 C1776 1.478 . S
C1775 H1769 0.930 . S
C1775 C1771 1.400 . S
C1775 C1774 1.385 . S
C1776 C1774 1.478 . S
C1776 C1778 1.381 . S
C1776 C1782 1.383 . S
C1777 C1773 1.495 . S
C1777 H1783 0.959 . S
C1777 H1784 0.961 . S
C1777 H1785 0.960 . S
C1778 C1776 1.381 . S
C1778 C1779 1.394 . S
C1778 H1786 0.930 . S
C1779 C1778 1.394 . S
C1779 C1780 1.383 . S
C1779 H1787 0.929 . S
C1780 C1779 1.383 . S
C1780 C1781 1.377 . S
C1781 H1765 0.930 . S
C1781 C1780 1.377 . S
C1781 C1782 1.379 . S
C1782 H1766 0.931 . S
C1782 C1776 1.383 . S
C1782 C1781 1.379 . S
H1783 C1777 0.959 . S
H1784 C1777 0.961 . S
H1785 C1777 0.960 . S
H1786 C1778 0.930 . S
H1787 C1779 0.929 . S
H1788 C1796 0.929 . S
H1789 C1798 0.930 . S
H1790 C1800 0.930 . S
H1791 C1803 0.929 . S
H1792 C1806 0.930 . S
H1793 C1808 0.960 . S
H1794 C1808 0.960 . S
H1795 C1808 0.960 . S
C1796 H1788 0.929 . S
C1796 C1797 1.377 . S
C1796 C1798 1.384 . S
C1797 C1796 1.377 . S
C1797 C1803 1.390 . S
C1798 H1789 0.930 . S
C1798 C1796 1.384 . S
C1798 C1799 1.372 . S
C1799 C1798 1.372 . S
C1799 C1800 1.400 . S
C1799 C1804 1.490 . S
C1800 H1790 0.930 . S
C1800 C1799 1.400 . S
C1800 C1803 1.386 . S
H1801 C1817 0.930 . S
H1802 C1818 0.931 . S
C1803 H1791 0.929 . S
C1803 C1797 1.390 . S
C1803 C1800 1.386 . S
C1804 C1799 1.490 . S
C1804 C1806 1.395 . S
C1804 C1807 1.403 . S
H1805 C1811 0.930 . S
C1806 H1792 0.930 . S
C1806 C1804 1.395 . S
C1806 C1809 1.403 1_556 S
C1807 C1804 1.403 . S
C1807 C1808 1.524 . S
C1807 C1811 1.400 1_556 S
C1808 H1793 0.960 . S
C1808 H1794 0.960 . S
C1808 H1795 0.960 . S
C1808 C1807 1.524 . S
C1809 C1806 1.403 1_554 S
C1809 C1810 1.392 . S
C1809 C1813 1.495 . S
C1810 C1809 1.392 . S
C1810 C1811 1.385 . S
C1810 C1812 1.478 . S
C1811 H1805 0.930 . S
C1811 C1807 1.400 1_554 S
C1811 C1810 1.385 . S
C1812 C1810 1.478 . S
C1812 C1814 1.381 . S
C1812 C1818 1.383 . S
C1813 C1809 1.495 . S
C1813 H1819 0.959 . S
C1813 H1820 0.961 . S
C1813 H1821 0.960 . S
C1814 C1812 1.381 . S
C1814 C1815 1.394 . S
C1814 H1822 0.930 . S
C1815 C1814 1.394 . S
C1815 C1816 1.383 . S
C1815 H1823 0.929 . S
C1816 C1815 1.383 . S
C1816 C1817 1.377 . S
C1817 H1801 0.930 . S
C1817 C1816 1.377 . S
C1817 C1818 1.379 . S
C1818 H1802 0.931 . S
C1818 C1812 1.383 . S
C1818 C1817 1.379 . S
H1819 C1813 0.959 . S
H1820 C1813 0.961 . S
H1821 C1813 0.960 . S
H1822 C1814 0.930 . S
H1823 C1815 0.929 . S
H1824 C1832 0.929 . S
H1825 C1834 0.930 . S
H1826 C1836 0.930 . S
H1827 C1839 0.929 . S
H1828 C1842 0.930 . S
H1829 C1844 0.960 . S
H1830 C1844 0.960 . S
H1831 C1844 0.960 . S
C1832 H1824 0.929 . S
C1832 C1833 1.377 . S
C1832 C1834 1.384 . S
C1833 C1832 1.377 . S
C1833 C1839 1.390 . S
C1834 H1825 0.930 . S
C1834 C1832 1.384 . S
C1834 C1835 1.372 . S
C1835 C1834 1.372 . S
C1835 C1836 1.400 . S
C1835 C1840 1.490 . S
C1836 H1826 0.930 . S
C1836 C1835 1.400 . S
C1836 C1839 1.386 . S
H1837 C1853 0.930 . S
H1838 C1854 0.931 . S
C1839 H1827 0.929 . S
C1839 C1833 1.390 . S
C1839 C1836 1.386 . S
C1840 C1835 1.490 . S
C1840 C1842 1.395 . S
C1840 C1843 1.403 . S
H1841 C1847 0.930 . S
C1842 H1828 0.930 . S
C1842 C1840 1.395 . S
C1842 C1845 1.403 . S
C1843 C1840 1.403 . S
C1843 C1844 1.524 . S
C1843 C1847 1.400 . S
C1844 H1829 0.960 . S
C1844 H1830 0.960 . S
C1844 H1831 0.960 . S
C1844 C1843 1.524 . S
C1845 C1842 1.403 . S
C1845 C1846 1.392 . S
C1845 C1849 1.495 . S
C1846 C1845 1.392 . S
C1846 C1847 1.385 . S
C1846 C1848 1.478 . S
C1847 H1841 0.930 . S
C1847 C1843 1.400 . S
C1847 C1846 1.385 . S
C1848 C1846 1.478 . S
C1848 C1850 1.381 . S
C1848 C1854 1.383 . S
C1849 C1845 1.495 . S
C1849 H1855 0.959 . S
C1849 H1856 0.961 . S
C1849 H1857 0.960 . S
C1850 C1848 1.381 . S
C1850 C1851 1.394 . S
C1850 H1858 0.930 . S
C1851 C1850 1.394 . S
C1851 C1852 1.383 . S
C1851 H1859 0.929 . S
C1852 C1851 1.383 . S
C1852 C1853 1.377 . S
C1853 H1837 0.930 . S
C1853 C1852 1.377 . S
C1853 C1854 1.379 . S
C1854 H1838 0.931 . S
C1854 C1848 1.383 . S
C1854 C1853 1.379 . S
H1855 C1849 0.959 . S
H1856 C1849 0.961 . S
H1857 C1849 0.960 . S
H1858 C1850 0.930 . S
H1859 C1851 0.929 . S
H1860 C1868 0.929 . S
H1861 C1870 0.930 . S
H1862 C1872 0.930 . S
H1863 C1875 0.929 . S
H1864 C1878 0.930 . S
H1865 C1880 0.960 . S
H1866 C1880 0.960 . S
H1867 C1880 0.960 . S
C1868 H1860 0.929 . S
C1868 C1869 1.377 . S
C1868 C1870 1.384 . S
C1869 C1868 1.377 . S
C1869 C1875 1.390 . S
C1870 H1861 0.930 . S
C1870 C1868 1.384 . S
C1870 C1871 1.372 . S
C1871 C1870 1.372 . S
C1871 C1872 1.400 . S
C1871 C1876 1.490 . S
C1872 H1862 0.930 . S
C1872 C1871 1.400 . S
C1872 C1875 1.386 . S
H1873 C1889 0.930 . S
H1874 C1890 0.931 . S
C1875 H1863 0.929 . S
C1875 C1869 1.390 . S
C1875 C1872 1.386 . S
C1876 C1871 1.490 . S
C1876 C1878 1.395 . S
C1876 C1879 1.403 . S
H1877 C1883 0.930 . S
C1878 H1864 0.930 . S
C1878 C1876 1.395 . S
C1878 C1881 1.403 1_565 S
C1879 C1876 1.403 . S
C1879 C1880 1.524 . S
C1879 C1883 1.400 1_565 S
C1880 H1865 0.960 . S
C1880 H1866 0.960 . S
C1880 H1867 0.960 . S
C1880 C1879 1.524 . S
C1881 C1878 1.403 1_545 S
C1881 C1882 1.392 . S
C1881 C1885 1.495 . S
C1882 C1881 1.392 . S
C1882 C1883 1.385 . S
C1882 C1884 1.478 . S
C1883 H1877 0.930 . S
C1883 C1879 1.400 1_545 S
C1883 C1882 1.385 . S
C1884 C1882 1.478 . S
C1884 C1886 1.381 . S
C1884 C1890 1.383 . S
C1885 C1881 1.495 . S
C1885 H1891 0.959 . S
C1885 H1892 0.961 . S
C1885 H1893 0.960 . S
C1886 C1884 1.381 . S
C1886 C1887 1.394 . S
C1886 H1894 0.930 . S
C1887 C1886 1.394 . S
C1887 C1888 1.383 . S
C1887 H1895 0.929 . S
C1888 C1887 1.383 . S
C1888 C1889 1.377 . S
C1889 H1873 0.930 . S
C1889 C1888 1.377 . S
C1889 C1890 1.379 . S
C1890 H1874 0.931 . S
C1890 C1884 1.383 . S
C1890 C1889 1.379 . S
H1891 C1885 0.959 . S
H1892 C1885 0.961 . S
H1893 C1885 0.960 . S
H1894 C1886 0.930 . S
H1895 C1887 0.929 . S
H1896 C1904 0.929 . S
H1897 C1906 0.930 . S
H1898 C1908 0.930 . S
H1899 C1911 0.929 . S
H1900 C1914 0.930 . S
H1901 C1916 0.960 . S
H1902 C1916 0.960 . S
H1903 C1916 0.960 . S
C1904 H1896 0.929 . S
C1904 C1905 1.377 . S
C1904 C1906 1.384 . S
C1905 C1904 1.377 . S
C1905 C1911 1.390 . S
C1906 H1897 0.930 . S
C1906 C1904 1.384 . S
C1906 C1907 1.372 . S
C1907 C1906 1.372 . S
C1907 C1908 1.400 . S
C1907 C1912 1.490 . S
C1908 H1898 0.930 . S
C1908 C1907 1.400 . S
C1908 C1911 1.386 . S
H1909 C1925 0.930 . S
H1910 C1926 0.931 . S
C1911 H1899 0.929 . S
C1911 C1905 1.390 . S
C1911 C1908 1.386 . S
C1912 C1907 1.490 . S
C1912 C1914 1.395 . S
C1912 C1915 1.403 . S
H1913 C1919 0.930 . S
C1914 H1900 0.930 . S
C1914 C1912 1.395 . S
C1914 C1917 1.403 . S
C1915 C1912 1.403 . S
C1915 C1916 1.524 . S
C1915 C1919 1.400 . S
C1916 H1901 0.960 . S
C1916 H1902 0.960 . S
C1916 H1903 0.960 . S
C1916 C1915 1.524 . S
C1917 C1914 1.403 . S
C1917 C1918 1.392 . S
C1917 C1921 1.495 . S
C1918 C1917 1.392 . S
C1918 C1919 1.385 . S
C1918 C1920 1.478 . S
C1919 H1913 0.930 . S
C1919 C1915 1.400 . S
C1919 C1918 1.385 . S
C1920 C1918 1.478 . S
C1920 C1922 1.381 . S
C1920 C1926 1.383 . S
C1921 C1917 1.495 . S
C1921 H1927 0.959 . S
C1921 H1928 0.961 . S
C1921 H1929 0.960 . S
C1922 C1920 1.381 . S
C1922 C1923 1.394 . S
C1922 H1930 0.930 . S
C1923 C1922 1.394 . S
C1923 C1924 1.383 . S
C1923 H1931 0.929 . S
C1924 C1923 1.383 . S
C1924 C1925 1.377 . S
C1925 H1909 0.930 . S
C1925 C1924 1.377 . S
C1925 C1926 1.379 . S
C1926 H1910 0.931 . S
C1926 C1920 1.383 . S
C1926 C1925 1.379 . S
H1927 C1921 0.959 . S
H1928 C1921 0.961 . S
H1929 C1921 0.960 . S
H1930 C1922 0.930 . S
H1931 C1923 0.929 . S
H1932 C1940 0.929 . S
H1933 C1942 0.930 . S
H1934 C1944 0.930 . S
H1935 C1947 0.929 . S
H1936 C1950 0.930 . S
H1937 C1952 0.960 . S
H1938 C1952 0.960 . S
H1939 C1952 0.960 . S
C1940 H1932 0.929 . S
C1940 C1941 1.377 . S
C1940 C1942 1.384 . S
C1941 C1940 1.377 . S
C1941 C1947 1.390 . S
C1942 H1933 0.930 . S
C1942 C1940 1.384 . S
C1942 C1943 1.372 . S
C1943 C1942 1.372 . S
C1943 C1944 1.400 . S
C1943 C1948 1.490 . S
C1944 H1934 0.930 . S
C1944 C1943 1.400 . S
C1944 C1947 1.386 . S
H1945 C1961 0.930 . S
H1946 C1962 0.931 . S
C1947 H1935 0.929 . S
C1947 C1941 1.390 . S
C1947 C1944 1.386 . S
C1948 C1943 1.490 . S
C1948 C1950 1.395 . S
C1948 C1951 1.403 . S
H1949 C1955 0.930 . S
C1950 H1936 0.930 . S
C1950 C1948 1.395 . S
C1950 C1953 1.403 1_545 S
C1951 C1948 1.403 . S
C1951 C1952 1.524 . S
C1951 C1955 1.400 1_545 S
C1952 H1937 0.960 . S
C1952 H1938 0.960 . S
C1952 H1939 0.960 . S
C1952 C1951 1.524 . S
C1953 C1950 1.403 1_565 S
C1953 C1954 1.392 . S
C1953 C1957 1.495 . S
C1954 C1953 1.392 . S
C1954 C1955 1.385 . S
C1954 C1956 1.478 . S
C1955 H1949 0.930 . S
C1955 C1951 1.400 1_565 S
C1955 C1954 1.385 . S
C1956 C1954 1.478 . S
C1956 C1958 1.381 . S
C1956 C1962 1.383 . S
C1957 C1953 1.495 . S
C1957 H1963 0.974 . S
C1957 H1964 0.961 . S
C1957 H1965 0.960 . S
C1958 C1956 1.381 . S
C1958 C1959 1.394 . S
C1958 H1966 0.930 . S
C1959 C1958 1.394 . S
C1959 C1960 1.383 . S
C1959 H1967 0.929 . S
C1960 C1959 1.383 . S
C1960 C1961 1.377 . S
C1961 H1945 0.930 . S
C1961 C1960 1.377 . S
C1961 C1962 1.379 . S
C1962 H1946 0.931 . S
C1962 C1956 1.383 . S
C1962 C1961 1.379 . S
H1963 C1957 0.974 . S
H1964 C1957 0.961 . S
H1965 C1957 0.960 . S
H1966 C1958 0.930 . S
H1967 C1959 0.929 . S
H1968 C1976 0.929 . S
H1969 C1978 0.930 . S
H1970 C1980 0.930 . S
H1971 C1983 0.929 . S
H1972 C1986 0.930 . S
H1973 C1988 0.960 . S
H1974 C1988 0.960 . S
H1975 C1988 0.960 . S
C1976 H1968 0.929 . S
C1976 C1977 1.377 . S
C1976 C1978 1.384 . S
C1977 C1976 1.377 . S
C1977 C1983 1.390 . S
C1978 H1969 0.930 . S
C1978 C1976 1.384 . S
C1978 C1979 1.372 . S
C1979 C1978 1.372 . S
C1979 C1980 1.400 . S
C1979 C1984 1.490 . S
C1980 H1970 0.930 . S
C1980 C1979 1.400 . S
C1980 C1983 1.386 . S
H1981 C1997 0.930 . S
H1982 C1998 0.931 . S
C1983 H1971 0.929 . S
C1983 C1977 1.390 . S
C1983 C1980 1.386 . S
C1984 C1979 1.490 . S
C1984 C1986 1.395 . S
C1984 C1987 1.403 . S
H1985 C1991 0.930 . S
C1986 H1972 0.930 . S
C1986 C1984 1.395 . S
C1986 C1989 1.403 . S
C1987 C1984 1.403 . S
C1987 C1988 1.524 . S
C1987 C1991 1.400 . S
C1988 H1973 0.960 . S
C1988 H1974 0.960 . S
C1988 H1975 0.960 . S
C1988 C1987 1.524 . S
C1989 C1986 1.403 . S
C1989 C1990 1.392 . S
C1989 C1993 1.495 . S
C1990 C1989 1.392 . S
C1990 C1991 1.385 . S
C1990 C1992 1.478 . S
C1991 H1985 0.930 . S
C1991 C1987 1.400 . S
C1991 C1990 1.385 . S
C1992 C1990 1.478 . S
C1992 C1994 1.381 . S
C1992 C1998 1.383 . S
C1993 C1989 1.495 . S
C1993 H1999 0.959 . S
C1993 H2000 0.961 . S
C1993 H2001 0.960 . S
C1994 C1992 1.381 . S
C1994 C1995 1.394 . S
C1994 H2002 0.930 . S
C1995 C1994 1.394 . S
C1995 C1996 1.383 . S
C1995 H2003 0.929 . S
C1996 C1995 1.383 . S
C1996 C1997 1.377 . S
C1997 H1981 0.930 . S
C1997 C1996 1.377 . S
C1997 C1998 1.379 . S
C1998 H1982 0.931 . S
C1998 C1992 1.383 . S
C1998 C1997 1.379 . S
H1999 C1993 0.959 . S
H2000 C1993 0.961 . S
H2001 C1993 0.960 . S
H2002 C1994 0.930 . S
H2003 C1995 0.929 . S
H2004 C2012 0.929 . S
H2005 C2014 0.930 . S
H2006 C2016 0.930 . S
H2007 C2019 0.929 . S
H2008 C2022 0.930 . S
H2009 C2024 0.960 . S
H2010 C2024 0.960 . S
H2011 C2024 0.960 . S
C2012 H2004 0.929 . S
C2012 C2013 1.377 . S
C2012 C2014 1.384 . S
C2013 C2012 1.377 . S
C2013 C2019 1.390 . S
C2014 H2005 0.930 . S
C2014 C2012 1.384 . S
C2014 C2015 1.372 . S
C2015 C2014 1.372 . S
C2015 C2016 1.400 . S
C2015 C2020 1.490 . S
C2016 H2006 0.930 . S
C2016 C2015 1.400 . S
C2016 C2019 1.386 . S
H2017 C2033 0.930 . S
H2018 C2034 0.931 . S
C2019 H2007 0.929 . S
C2019 C2013 1.390 . S
C2019 C2016 1.386 . S
C2020 C2015 1.490 . S
C2020 C2022 1.395 . S
C2020 C2023 1.403 . S
H2021 C2027 0.930 . S
C2022 H2008 0.930 . S
C2022 C2020 1.395 . S
C2022 C2025 1.403 1_565 S
C2023 C2020 1.403 . S
C2023 C2024 1.524 . S
C2023 C2027 1.400 1_565 S
C2024 H2009 0.960 . S
C2024 H2010 0.960 . S
C2024 H2011 0.960 . S
C2024 C2023 1.524 . S
C2025 C2022 1.403 1_545 S
C2025 C2026 1.392 . S
C2025 C2029 1.495 . S
C2026 C2025 1.392 . S
C2026 C2027 1.385 . S
C2026 C2028 1.478 . S
C2027 H2021 0.930 . S
C2027 C2023 1.400 1_545 S
C2027 C2026 1.385 . S
C2028 C2026 1.478 . S
C2028 C2030 1.381 . S
C2028 C2034 1.383 . S
C2029 C2025 1.495 . S
C2029 H2035 0.959 . S
C2029 H2036 0.961 . S
C2029 H2037 0.960 . S
C2030 C2028 1.381 . S
C2030 C2031 1.394 . S
C2030 H2038 0.930 . S
C2031 C2030 1.394 . S
C2031 C2032 1.383 . S
C2031 H2039 0.929 . S
C2032 C2031 1.383 . S
C2032 C2033 1.377 . S
C2033 H2017 0.930 . S
C2033 C2032 1.377 . S
C2033 C2034 1.379 . S
C2034 H2018 0.931 . S
C2034 C2028 1.383 . S
C2034 C2033 1.379 . S
H2035 C2029 0.959 . S
H2036 C2029 0.961 . S
H2037 C2029 0.960 . S
H2038 C2030 0.930 . S
H2039 C2031 0.929 . S
H2040 C2048 0.929 . S
H2041 C2050 0.930 . S
H2042 C2052 0.930 . S
H2043 C2055 0.929 . S
H2044 C2058 0.930 . S
H2045 C2060 0.960 . S
H2046 C2060 0.960 . S
H2047 C2060 0.960 . S
C2048 H2040 0.929 . S
C2048 C2049 1.377 . S
C2048 C2050 1.384 . S
C2049 C2048 1.377 . S
C2049 C2055 1.390 . S
C2050 H2041 0.930 . S
C2050 C2048 1.384 . S
C2050 C2051 1.372 . S
C2051 C2050 1.372 . S
C2051 C2052 1.400 . S
C2051 C2056 1.490 . S
C2052 H2042 0.930 . S
C2052 C2051 1.400 . S
C2052 C2055 1.386 . S
H2053 C2069 0.930 . S
H2054 C2070 0.931 . S
C2055 H2043 0.929 . S
C2055 C2049 1.390 . S
C2055 C2052 1.386 . S
C2056 C2051 1.490 . S
C2056 C2058 1.395 . S
C2056 C2059 1.403 . S
H2057 C2063 0.930 . S
C2058 H2044 0.930 . S
C2058 C2056 1.395 . S
C2058 C2061 1.403 . S
C2059 C2056 1.403 . S
C2059 C2060 1.524 . S
C2059 C2063 1.400 . S
C2060 H2045 0.960 . S
C2060 H2046 0.960 . S
C2060 H2047 0.960 . S
C2060 C2059 1.524 . S
C2061 C2058 1.403 . S
C2061 C2062 1.392 . S
C2061 C2065 1.495 . S
C2062 C2061 1.392 . S
C2062 C2063 1.385 . S
C2062 C2064 1.478 . S
C2063 H2057 0.930 . S
C2063 C2059 1.400 . S
C2063 C2062 1.385 . S
C2064 C2062 1.478 . S
C2064 C2066 1.381 . S
C2064 C2070 1.383 . S
C2065 C2061 1.495 . S
C2065 H2071 0.959 . S
C2065 H2072 0.961 . S
C2065 H2073 0.960 . S
C2066 C2064 1.381 . S
C2066 C2067 1.394 . S
C2066 H2074 0.930 . S
C2067 C2066 1.394 . S
C2067 C2068 1.383 . S
C2067 H2075 0.929 . S
C2068 C2067 1.383 . S
C2068 C2069 1.377 . S
C2069 H2053 0.930 . S
C2069 C2068 1.377 . S
C2069 C2070 1.379 . S
C2070 H2054 0.931 . S
C2070 C2064 1.383 . S
C2070 C2069 1.379 . S
H2071 C2065 0.959 . S
H2072 C2065 0.961 . S
H2073 C2065 0.960 . S
H2074 C2066 0.930 . S
H2075 C2067 0.929 . S
H2076 C2084 0.929 . S
H2077 C2086 0.930 . S
H2078 C2088 0.930 . S
H2079 C2091 0.929 . S
H2080 C2094 0.930 . S
H2081 C2096 0.960 . S
H2082 C2096 0.960 . S
H2083 C2096 0.960 . S
C2084 H2076 0.929 . S
C2084 C2085 1.377 . S
C2084 C2086 1.384 . S
C2085 C2084 1.377 . S
C2085 C2091 1.390 . S
C2086 H2077 0.930 . S
C2086 C2084 1.384 . S
C2086 C2087 1.372 . S
C2087 C2086 1.372 . S
C2087 C2088 1.400 . S
C2087 C2092 1.490 . S
C2088 H2078 0.930 . S
C2088 C2087 1.400 . S
C2088 C2091 1.386 . S
H2089 C2105 0.930 . S
H2090 C2106 0.931 . S
C2091 H2079 0.929 . S
C2091 C2085 1.390 . S
C2091 C2088 1.386 . S
C2092 C2087 1.490 . S
C2092 C2094 1.395 . S
C2092 C2095 1.403 . S
H2093 C2099 0.930 . S
C2094 H2080 0.930 . S
C2094 C2092 1.395 . S
C2094 C2097 1.403 1_565 S
C2095 C2092 1.403 . S
C2095 C2096 1.524 . S
C2095 C2099 1.400 1_565 S
C2096 H2081 0.960 . S
C2096 H2082 0.960 . S
C2096 H2083 0.960 . S
C2096 C2095 1.524 . S
C2097 C2094 1.403 1_545 S
C2097 C2098 1.392 . S
C2097 C2101 1.495 . S
C2098 C2097 1.392 . S
C2098 C2099 1.385 . S
C2098 C2100 1.478 . S
C2099 H2093 0.930 . S
C2099 C2095 1.400 1_545 S
C2099 C2098 1.385 . S
C2100 C2098 1.478 . S
C2100 C2102 1.381 . S
C2100 C2106 1.383 . S
C2101 C2097 1.495 . S
C2101 H2107 0.959 . S
C2101 H2108 0.961 . S
C2101 H2109 0.960 . S
C2102 C2100 1.381 . S
C2102 C2103 1.394 . S
C2102 H2110 0.930 . S
C2103 C2102 1.394 . S
C2103 C2104 1.383 . S
C2103 H2111 0.929 . S
C2104 C2103 1.383 . S
C2104 C2105 1.377 . S
C2105 H2089 0.930 . S
C2105 C2104 1.377 . S
C2105 C2106 1.379 . S
C2106 H2090 0.931 . S
C2106 C2100 1.383 . S
C2106 C2105 1.379 . S
H2107 C2101 0.959 . S
H2108 C2101 0.961 . S
H2109 C2101 0.960 . S
H2110 C2102 0.930 . S
H2111 C2103 0.929 . S
H2112 C2120 0.929 . S
H2113 C2122 0.930 . S
H2114 C2124 0.930 . S
H2115 C2127 0.929 . S
H2116 C2130 0.930 . S
H2117 C2132 0.960 . S
H2118 C2132 0.960 . S
H2119 C2132 0.960 . S
C2120 H2112 0.929 . S
C2120 C2121 1.377 . S
C2120 C2122 1.384 . S
C2121 C2120 1.377 . S
C2121 C2127 1.390 . S
C2122 H2113 0.930 . S
C2122 C2120 1.384 . S
C2122 C2123 1.372 . S
C2123 C2122 1.372 . S
C2123 C2124 1.400 . S
C2123 C2128 1.490 . S
C2124 H2114 0.930 . S
C2124 C2123 1.400 . S
C2124 C2127 1.386 . S
H2125 C2141 0.930 . S
H2126 C2142 0.931 . S
C2127 H2115 0.929 . S
C2127 C2121 1.390 . S
C2127 C2124 1.386 . S
C2128 C2123 1.490 . S
C2128 C2130 1.395 . S
C2128 C2131 1.403 . S
H2129 C2135 0.930 . S
C2130 H2116 0.930 . S
C2130 C2128 1.395 . S
C2130 C2133 1.403 . S
C2131 C2128 1.403 . S
C2131 C2132 1.524 . S
C2131 C2135 1.400 . S
C2132 H2117 0.960 . S
C2132 H2118 0.960 . S
C2132 H2119 0.960 . S
C2132 C2131 1.524 . S
C2133 C2130 1.403 . S
C2133 C2134 1.392 . S
C2133 C2137 1.495 . S
C2134 C2133 1.392 . S
C2134 C2135 1.385 . S
C2134 C2136 1.478 . S
C2135 H2129 0.930 . S
C2135 C2131 1.400 . S
C2135 C2134 1.385 . S
C2136 C2134 1.478 . S
C2136 C2138 1.381 . S
C2136 C2142 1.383 . S
C2137 C2133 1.495 . S
C2137 H2143 0.959 . S
C2137 H2144 0.961 . S
C2137 H2145 0.960 . S
C2138 C2136 1.381 . S
C2138 C2139 1.394 . S
C2138 H2146 0.930 . S
C2139 C2138 1.394 . S
C2139 C2140 1.383 . S
C2139 H2147 0.929 . S
C2140 C2139 1.383 . S
C2140 C2141 1.377 . S
C2141 H2125 0.930 . S
C2141 C2140 1.377 . S
C2141 C2142 1.379 . S
C2142 H2126 0.931 . S
C2142 C2136 1.383 . S
C2142 C2141 1.379 . S
H2143 C2137 0.959 . S
H2144 C2137 0.961 . S
H2145 C2137 0.960 . S
H2146 C2138 0.930 . S
H2147 C2139 0.929 . S
H2148 C2156 0.929 . S
H2149 C2158 0.930 . S
H2150 C2160 0.930 . S
H2151 C2163 0.929 . S
H2152 C2166 0.930 . S
H2153 C2168 0.960 . S
H2154 C2168 0.960 . S
H2155 C2168 0.960 . S
C2156 H2148 0.929 . S
C2156 C2157 1.377 . S
C2156 C2158 1.384 . S
C2157 C2156 1.377 . S
C2157 C2163 1.390 . S
C2158 H2149 0.930 . S
C2158 C2156 1.384 . S
C2158 C2159 1.372 . S
C2159 C2158 1.372 . S
C2159 C2160 1.400 . S
C2159 C2164 1.490 . S
C2160 H2150 0.930 . S
C2160 C2159 1.400 . S
C2160 C2163 1.386 . S
H2161 C2177 0.930 . S
H2162 C2178 0.931 . S
C2163 H2151 0.929 . S
C2163 C2157 1.390 . S
C2163 C2160 1.386 . S
C2164 C2159 1.490 . S
C2164 C2166 1.395 . S
C2164 C2167 1.403 . S
H2165 C2171 0.930 . S
C2166 H2152 0.930 . S
C2166 C2164 1.395 . S
C2166 C2169 1.403 . S
C2167 C2164 1.403 . S
C2167 C2168 1.524 . S
C2167 C2171 1.400 . S
C2168 H2153 0.960 . S
C2168 H2154 0.960 . S
C2168 H2155 0.960 . S
C2168 C2167 1.524 . S
C2169 C2166 1.403 . S
C2169 C2170 1.392 . S
C2169 C2173 1.495 . S
C2170 C2169 1.392 . S
C2170 C2171 1.385 . S
C2170 C2172 1.478 . S
C2171 H2165 0.930 . S
C2171 C2167 1.400 . S
C2171 C2170 1.385 . S
C2172 C2170 1.478 . S
C2172 C2174 1.381 . S
C2172 C2178 1.383 . S
C2173 C2169 1.495 . S
C2173 H2179 0.959 . S
C2173 H2180 0.961 . S
C2173 H2181 0.960 . S
C2174 C2172 1.381 . S
C2174 C2175 1.394 . S
C2174 H2182 0.930 . S
C2175 C2174 1.394 . S
C2175 C2176 1.383 . S
C2175 H2183 0.929 . S
C2176 C2175 1.383 . S
C2176 C2177 1.377 . S
C2177 H2161 0.930 . S
C2177 C2176 1.377 . S
C2177 C2178 1.379 . S
C2178 H2162 0.931 . S
C2178 C2172 1.383 . S
C2178 C2177 1.379 . S
H2179 C2173 0.959 . S
H2180 C2173 0.961 . S
H2181 C2173 0.960 . S
H2182 C2174 0.930 . S
H2183 C2175 0.929 . S
H2184 C2192 0.929 . S
H2185 C2194 0.930 . S
H2186 C2196 0.930 . S
H2187 C2199 0.929 . S
H2188 C2202 0.930 . S
H2189 C2204 0.960 . S
H2190 C2204 0.960 . S
H2191 C2204 0.960 . S
C2192 H2184 0.929 . S
C2192 C2193 1.377 . S
C2192 C2194 1.384 . S
C2193 C2192 1.377 . S
C2193 C2199 1.390 . S
C2194 H2185 0.930 . S
C2194 C2192 1.384 . S
C2194 C2195 1.372 . S
C2195 C2194 1.372 . S
C2195 C2196 1.400 . S
C2195 C2200 1.490 . S
C2196 H2186 0.930 . S
C2196 C2195 1.400 . S
C2196 C2199 1.386 . S
H2197 C2213 0.930 . S
H2198 C2214 0.931 . S
C2199 H2187 0.929 . S
C2199 C2193 1.390 . S
C2199 C2196 1.386 . S
C2200 C2195 1.490 . S
C2200 C2202 1.395 . S
C2200 C2203 1.403 . S
H2201 C2207 0.930 . S
C2202 H2188 0.930 . S
C2202 C2200 1.395 . S
C2202 C2205 1.403 . S
C2203 C2200 1.403 . S
C2203 C2204 1.524 . S
C2203 C2207 1.400 . S
C2204 H2189 0.960 . S
C2204 H2190 0.960 . S
C2204 H2191 0.960 . S
C2204 C2203 1.524 . S
C2205 C2202 1.403 . S
C2205 C2206 1.392 . S
C2205 C2209 1.495 . S
C2206 C2205 1.392 . S
C2206 C2207 1.385 . S
C2206 C2208 1.478 1_455 S
C2207 H2201 0.930 . S
C2207 C2203 1.400 . S
C2207 C2206 1.385 . S
C2208 C2206 1.478 1_655 S
C2208 C2210 1.381 . S
C2208 C2214 1.383 . S
C2209 C2205 1.495 . S
C2209 H2215 0.959 . S
C2209 H2216 0.961 1_455 S
C2209 H2217 0.960 1_455 S
C2210 C2208 1.381 . S
C2210 C2211 1.394 . S
C2210 H2218 0.930 . S
C2211 C2210 1.394 . S
C2211 C2212 1.383 . S
C2211 H2219 0.929 . S
C2212 C2211 1.383 . S
C2212 C2213 1.377 . S
C2213 H2197 0.930 . S
C2213 C2212 1.377 . S
C2213 C2214 1.379 . S
C2214 H2198 0.931 . S
C2214 C2208 1.383 . S
C2214 C2213 1.379 . S
H2215 C2209 0.959 . S
H2216 C2209 0.961 1_655 S
H2217 C2209 0.960 1_655 S
H2218 C2210 0.930 . S
H2219 C2211 0.929 . S
H2220 C2228 0.929 . S
H2221 C2230 0.930 . S
H2222 C2232 0.930 . S
H2223 C2235 0.929 . S
H2224 C2238 0.930 . S
H2225 C2240 0.960 . S
H2226 C2240 0.960 . S
H2227 C2240 0.960 . S
C2228 H2220 0.929 . S
C2228 C2229 1.377 . S
C2228 C2230 1.384 . S
C2229 C2228 1.377 . S
C2229 C2235 1.390 . S
C2230 H2221 0.930 . S
C2230 C2228 1.384 . S
C2230 C2231 1.372 . S
C2231 C2230 1.372 . S
C2231 C2232 1.400 . S
C2231 C2236 1.490 . S
C2232 H2222 0.930 . S
C2232 C2231 1.400 . S
C2232 C2235 1.386 . S
H2233 C2249 0.930 . S
H2234 C2250 0.931 . S
C2235 H2223 0.929 . S
C2235 C2229 1.390 . S
C2235 C2232 1.386 . S
C2236 C2231 1.490 . S
C2236 C2238 1.395 . S
C2236 C2239 1.403 . S
H2237 C2243 0.930 . S
C2238 H2224 0.930 . S
C2238 C2236 1.395 . S
C2238 C2241 1.403 . S
C2239 C2236 1.403 . S
C2239 C2240 1.524 . S
C2239 C2243 1.400 . S
C2240 H2225 0.960 . S
C2240 H2226 0.960 . S
C2240 H2227 0.960 . S
C2240 C2239 1.524 . S
C2241 C2238 1.403 . S
C2241 C2242 1.392 . S
C2241 C2245 1.495 . S
C2242 C2241 1.392 . S
C2242 C2243 1.385 . S
C2242 C2244 1.478 . S
C2243 H2237 0.930 . S
C2243 C2239 1.400 . S
C2243 C2242 1.385 . S
C2244 C2242 1.478 . S
C2244 C2246 1.381 . S
C2244 C2250 1.383 . S
C2245 C2241 1.495 . S
C2245 H2251 0.959 . S
C2245 H2252 0.961 . S
C2245 H2253 0.960 . S
C2246 C2244 1.381 . S
C2246 C2247 1.394 . S
C2246 H2254 0.930 . S
C2247 C2246 1.394 . S
C2247 C2248 1.383 . S
C2247 H2255 0.929 . S
C2248 C2247 1.383 . S
C2248 C2249 1.377 . S
C2249 H2233 0.930 . S
C2249 C2248 1.377 . S
C2249 C2250 1.379 . S
C2250 H2234 0.931 . S
C2250 C2244 1.383 . S
C2250 C2249 1.379 . S
H2251 C2245 0.959 . S
H2252 C2245 0.961 . S
H2253 C2245 0.960 . S
H2254 C2246 0.930 . S
H2255 C2247 0.929 . S
H2256 C2264 0.929 . S
H2257 C2266 0.930 . S
H2258 C2268 0.930 . S
H2259 C2271 0.929 . S
H2260 C2274 0.930 . S
H2261 C2276 0.960 . S
H2262 C2276 0.949 1_455 S
H2263 C2276 0.953 1_455 S
C2264 H2256 0.929 . S
C2264 C2265 1.377 . S
C2264 C2266 1.384 . S
C2265 C2264 1.377 . S
C2265 C2271 1.390 . S
C2266 H2257 0.930 . S
C2266 C2264 1.384 . S
C2266 C2267 1.372 . S
C2267 C2266 1.372 . S
C2267 C2268 1.400 . S
C2267 C2272 1.490 1_455 S
C2268 H2258 0.930 . S
C2268 C2267 1.400 . S
C2268 C2271 1.386 . S
H2269 C2285 0.930 . S
H2270 C2286 0.931 . S
C2271 H2259 0.929 . S
C2271 C2265 1.390 . S
C2271 C2268 1.386 . S
C2272 C2267 1.490 1_655 S
C2272 C2274 1.395 . S
C2272 C2275 1.403 . S
H2273 C2279 0.930 . S
C2274 H2260 0.930 . S
C2274 C2272 1.395 . S
C2274 C2277 1.403 . S
C2275 C2272 1.403 . S
C2275 C2276 1.524 . S
C2275 C2279 1.400 . S
C2276 H2261 0.960 . S
C2276 H2262 0.949 1_655 S
C2276 H2263 0.953 1_655 S
C2276 C2275 1.524 . S
C2277 C2274 1.403 . S
C2277 C2278 1.392 . S
C2277 C2281 1.495 . S
C2278 C2277 1.392 . S
C2278 C2279 1.385 . S
C2278 C2280 1.478 . S
C2279 H2273 0.930 . S
C2279 C2275 1.400 . S
C2279 C2278 1.385 . S
C2280 C2278 1.478 . S
C2280 C2282 1.381 . S
C2280 C2286 1.383 . S
C2281 C2277 1.495 . S
C2281 H2287 0.959 . S
C2281 H2288 0.961 . S
C2281 H2289 0.960 . S
C2282 C2280 1.381 . S
C2282 C2283 1.394 . S
C2282 H2290 0.930 . S
C2283 C2282 1.394 . S
C2283 C2284 1.383 . S
C2283 H2291 0.929 . S
C2284 C2283 1.383 . S
C2284 C2285 1.377 . S
C2285 H2269 0.930 . S
C2285 C2284 1.377 . S
C2285 C2286 1.379 . S
C2286 H2270 0.931 . S
C2286 C2280 1.383 . S
C2286 C2285 1.379 . S
H2287 C2281 0.959 . S
H2288 C2281 0.961 . S
H2289 C2281 0.960 . S
H2290 C2282 0.930 . S
H2291 C2283 0.929 . S
H2292 C2300 0.929 . S
H2293 C2302 0.930 . S
H2294 C2304 0.930 . S
H2295 C2307 0.929 . S
H2296 C2310 0.930 . S
H2297 C2312 0.960 . S
H2298 C2312 0.960 . S
H2299 C2312 0.960 . S
C2300 H2292 0.929 . S
C2300 C2301 1.377 . S
C2300 C2302 1.384 . S
C2301 C2300 1.377 . S
C2301 C2307 1.390 . S
C2302 H2293 0.930 . S
C2302 C2300 1.384 . S
C2302 C2303 1.372 . S
C2303 C2302 1.372 . S
C2303 C2304 1.400 . S
C2303 C2308 1.490 . S
C2304 H2294 0.930 . S
C2304 C2303 1.400 . S
C2304 C2307 1.386 . S
H2305 C2321 0.930 . S
H2306 C2322 0.931 . S
C2307 H2295 0.929 . S
C2307 C2301 1.390 . S
C2307 C2304 1.386 . S
C2308 C2303 1.490 . S
C2308 C2310 1.395 . S
C2308 C2311 1.403 . S
H2309 C2315 0.930 . S
C2310 H2296 0.930 . S
C2310 C2308 1.395 . S
C2310 C2313 1.403 . S
C2311 C2308 1.403 . S
C2311 C2312 1.524 . S
C2311 C2315 1.400 . S
C2312 H2297 0.960 . S
C2312 H2298 0.960 . S
C2312 H2299 0.960 . S
C2312 C2311 1.524 . S
C2313 C2310 1.403 . S
C2313 C2314 1.392 . S
C2313 C2317 1.495 . S
C2314 C2313 1.392 . S
C2314 C2315 1.385 . S
C2314 C2316 1.478 . S
C2315 H2309 0.930 . S
C2315 C2311 1.400 . S
C2315 C2314 1.385 . S
C2316 C2314 1.478 . S
C2316 C2318 1.381 . S
C2316 C2322 1.383 . S
C2317 C2313 1.495 . S
C2317 H2323 0.959 . S
C2317 H2324 0.961 . S
C2317 H2325 0.960 . S
C2318 C2316 1.381 . S
C2318 C2319 1.394 . S
C2318 H2326 0.930 . S
C2319 C2318 1.394 . S
C2319 C2320 1.383 . S
C2319 H2327 0.929 . S
C2320 C2319 1.383 . S
C2320 C2321 1.377 . S
C2321 H2305 0.930 . S
C2321 C2320 1.377 . S
C2321 C2322 1.379 . S
C2322 H2306 0.931 . S
C2322 C2316 1.383 . S
C2322 C2321 1.379 . S
H2323 C2317 0.959 . S
H2324 C2317 0.961 . S
H2325 C2317 0.960 . S
H2326 C2318 0.930 . S
H2327 C2319 0.929 . S
H2328 C2336 0.929 . S
H2329 C2338 0.930 . S
H2330 C2340 0.930 . S
H2331 C2343 0.929 . S
H2332 C2346 0.930 . S
H2333 C2348 0.960 . S
H2334 C2348 0.960 . S
H2335 C2348 0.960 . S
C2336 H2328 0.929 . S
C2336 C2337 1.377 . S
C2336 C2338 1.384 . S
C2337 C2336 1.377 . S
C2337 C2343 1.390 . S
C2338 H2329 0.930 . S
C2338 C2336 1.384 . S
C2338 C2339 1.372 . S
C2339 C2338 1.372 . S
C2339 C2340 1.400 . S
C2339 C2344 1.490 . S
C2340 H2330 0.930 . S
C2340 C2339 1.400 . S
C2340 C2343 1.386 . S
H2341 C2357 0.930 . S
H2342 C2358 0.931 . S
C2343 H2331 0.929 . S
C2343 C2337 1.390 . S
C2343 C2340 1.386 . S
C2344 C2339 1.490 . S
C2344 C2346 1.395 . S
C2344 C2347 1.403 . S
H2345 C2351 0.930 . S
C2346 H2332 0.930 . S
C2346 C2344 1.395 . S
C2346 C2349 1.403 . S
C2347 C2344 1.403 . S
C2347 C2348 1.524 . S
C2347 C2351 1.400 . S
C2348 H2333 0.960 . S
C2348 H2334 0.960 . S
C2348 H2335 0.960 . S
C2348 C2347 1.524 . S
C2349 C2346 1.403 . S
C2349 C2350 1.392 . S
C2349 C2353 1.495 . S
C2350 C2349 1.392 . S
C2350 C2351 1.385 . S
C2350 C2352 1.478 1_655 S
C2351 H2345 0.930 . S
C2351 C2347 1.400 . S
C2351 C2350 1.385 . S
C2352 C2350 1.478 1_455 S
C2352 C2354 1.381 . S
C2352 C2358 1.383 . S
C2353 C2349 1.495 . S
C2353 H2359 0.959 . S
C2353 H2360 0.961 . S
C2353 H2361 0.960 . S
C2354 C2352 1.381 . S
C2354 C2355 1.394 . S
C2354 H2362 0.930 . S
C2355 C2354 1.394 . S
C2355 C2356 1.383 . S
C2355 H2363 0.929 . S
C2356 C2355 1.383 . S
C2356 C2357 1.377 . S
C2357 H2341 0.930 . S
C2357 C2356 1.377 . S
C2357 C2358 1.379 . S
C2358 H2342 0.931 . S
C2358 C2352 1.383 . S
C2358 C2357 1.379 . S
H2359 C2353 0.959 . S
H2360 C2353 0.961 . S
H2361 C2353 0.960 . S
H2362 C2354 0.930 . S
H2363 C2355 0.929 . S
H2364 C2372 0.929 . S
H2365 C2374 0.930 . S
H2366 C2376 0.930 . S
H2367 C2379 0.929 . S
H2368 C2382 0.930 . S
H2369 C2384 0.960 . S
H2370 C2384 0.960 . S
H2371 C2384 0.960 . S
C2372 H2364 0.929 . S
C2372 C2373 1.377 . S
C2372 C2374 1.384 . S
C2373 C2372 1.377 . S
C2373 C2379 1.390 . S
C2374 H2365 0.930 . S
C2374 C2372 1.384 . S
C2374 C2375 1.372 . S
C2375 C2374 1.372 . S
C2375 C2376 1.400 . S
C2375 C2380 1.490 . S
C2376 H2366 0.930 . S
C2376 C2375 1.400 . S
C2376 C2379 1.386 . S
H2377 C2393 0.930 . S
H2378 C2394 0.931 . S
C2379 H2367 0.929 . S
C2379 C2373 1.390 . S
C2379 C2376 1.386 . S
C2380 C2375 1.490 . S
C2380 C2382 1.395 . S
C2380 C2383 1.403 . S
H2381 C2387 0.930 . S
C2382 H2368 0.930 . S
C2382 C2380 1.395 . S
C2382 C2385 1.403 . S
C2383 C2380 1.403 . S
C2383 C2384 1.524 . S
C2383 C2387 1.400 . S
C2384 H2369 0.960 . S
C2384 H2370 0.960 . S
C2384 H2371 0.960 . S
C2384 C2383 1.524 . S
C2385 C2382 1.403 . S
C2385 C2386 1.392 . S
C2385 C2389 1.495 . S
C2386 C2385 1.392 . S
C2386 C2387 1.385 . S
C2386 C2388 1.478 1_455 S
C2387 H2381 0.930 . S
C2387 C2383 1.400 . S
C2387 C2386 1.385 . S
C2388 C2386 1.478 1_655 S
C2388 C2390 1.381 . S
C2388 C2394 1.383 . S
C2389 C2385 1.495 . S
C2389 H2395 0.959 . S
C2389 H2396 0.961 . S
C2389 H2397 0.960 . S
C2390 C2388 1.381 . S
C2390 C2391 1.394 . S
C2390 H2398 0.930 . S
C2391 C2390 1.394 . S
C2391 C2392 1.383 . S
C2391 H2399 0.929 . S
C2392 C2391 1.383 . S
C2392 C2393 1.377 . S
C2393 H2377 0.930 . S
C2393 C2392 1.377 . S
C2393 C2394 1.379 . S
C2394 H2378 0.931 . S
C2394 C2388 1.383 . S
C2394 C2393 1.379 . S
H2395 C2389 0.959 . S
H2396 C2389 0.961 . S
H2397 C2389 0.960 . S
H2398 C2390 0.930 . S
H2399 C2391 0.929 . S
H2400 C2408 0.929 . S
H2401 C2410 0.930 . S
H2402 C2412 0.930 . S
H2403 C2415 0.929 . S
H2404 C2418 0.930 . S
H2405 C2420 0.960 . S
H2406 C2420 0.960 . S
H2407 C2420 0.960 . S
C2408 H2400 0.929 . S
C2408 C2409 1.377 . S
C2408 C2410 1.384 . S
C2409 C2408 1.377 . S
C2409 C2415 1.390 . S
C2410 H2401 0.930 . S
C2410 C2408 1.384 . S
C2410 C2411 1.372 . S
C2411 C2410 1.372 . S
C2411 C2412 1.400 . S
C2411 C2416 1.490 . S
C2412 H2402 0.930 . S
C2412 C2411 1.400 . S
C2412 C2415 1.386 . S
H2413 C2429 0.930 . S
H2414 C2430 0.931 . S
C2415 H2403 0.929 . S
C2415 C2409 1.390 . S
C2415 C2412 1.386 . S
C2416 C2411 1.490 . S
C2416 C2418 1.395 . S
C2416 C2419 1.403 . S
H2417 C2423 0.930 . S
C2418 H2404 0.930 . S
C2418 C2416 1.395 . S
C2418 C2421 1.403 . S
C2419 C2416 1.403 . S
C2419 C2420 1.524 . S
C2419 C2423 1.400 1_655 S
C2420 H2405 0.960 . S
C2420 H2406 0.960 . S
C2420 H2407 0.960 . S
C2420 C2419 1.524 . S
C2421 C2418 1.403 . S
C2421 C2422 1.392 1_655 S
C2421 C2425 1.495 1_655 S
C2422 C2421 1.392 1_455 S
C2422 C2423 1.385 . S
C2422 C2424 1.478 . S
C2423 H2417 0.930 . S
C2423 C2419 1.400 1_455 S
C2423 C2422 1.385 . S
C2424 C2422 1.478 . S
C2424 C2426 1.381 . S
C2424 C2430 1.383 . S
C2425 C2421 1.495 1_455 S
C2425 H2431 0.959 1_455 S
C2425 H2432 0.961 . S
C2425 H2433 0.960 . S
C2426 C2424 1.381 . S
C2426 C2427 1.394 . S
C2426 H2434 0.930 . S
C2427 C2426 1.394 . S
C2427 C2428 1.383 . S
C2427 H2435 0.929 . S
C2428 C2427 1.383 . S
C2428 C2429 1.377 . S
C2429 H2413 0.930 . S
C2429 C2428 1.377 . S
C2429 C2430 1.379 . S
C2430 H2414 0.931 . S
C2430 C2424 1.383 . S
C2430 C2429 1.379 . S
H2431 C2425 0.959 1_655 S
H2432 C2425 0.961 . S
H2433 C2425 0.960 . S
H2434 C2426 0.930 . S
H2435 C2427 0.929 . S
H2436 C2444 0.929 . S
H2437 C2446 0.930 . S
H2438 C2448 0.930 . S
H2439 C2451 0.929 . S
H2440 C2454 0.930 . S
H2441 C2456 0.960 . S
H2442 C2456 0.960 . S
H2443 C2456 0.960 . S
C2444 H2436 0.929 . S
C2444 C2445 1.377 . S
C2444 C2446 1.384 . S
C2445 C2444 1.377 . S
C2445 C2451 1.390 . S
C2446 H2437 0.930 . S
C2446 C2444 1.384 . S
C2446 C2447 1.372 . S
C2447 C2446 1.372 . S
C2447 C2448 1.400 . S
C2447 C2452 1.490 . S
C2448 H2438 0.930 . S
C2448 C2447 1.400 . S
C2448 C2451 1.386 . S
H2449 C2465 0.930 . S
H2450 C2466 0.931 . S
C2451 H2439 0.929 . S
C2451 C2445 1.390 . S
C2451 C2448 1.386 . S
C2452 C2447 1.490 . S
C2452 C2454 1.395 . S
C2452 C2455 1.403 . S
H2453 C2459 0.930 . S
C2454 H2440 0.930 . S
C2454 C2452 1.395 . S
C2454 C2457 1.403 . S
C2455 C2452 1.403 . S
C2455 C2456 1.524 . S
C2455 C2459 1.400 . S
C2456 H2441 0.960 . S
C2456 H2442 0.960 . S
C2456 H2443 0.960 . S
C2456 C2455 1.524 . S
C2457 C2454 1.403 . S
C2457 C2458 1.392 . S
C2457 C2461 1.495 . S
C2458 C2457 1.392 . S
C2458 C2459 1.385 . S
C2458 C2460 1.478 . S
C2459 H2453 0.930 . S
C2459 C2455 1.400 . S
C2459 C2458 1.385 . S
C2460 C2458 1.478 . S
C2460 C2462 1.381 . S
C2460 C2466 1.383 . S
C2461 C2457 1.495 . S
C2461 H2467 0.959 . S
C2461 H2468 0.961 . S
C2461 H2469 0.960 . S
C2462 C2460 1.381 . S
C2462 C2463 1.394 . S
C2462 H2470 0.930 . S
C2463 C2462 1.394 . S
C2463 C2464 1.383 . S
C2463 H2471 0.929 . S
C2464 C2463 1.383 . S
C2464 C2465 1.377 . S
C2465 H2449 0.930 . S
C2465 C2464 1.377 . S
C2465 C2466 1.379 . S
C2466 H2450 0.931 . S
C2466 C2460 1.383 . S
C2466 C2465 1.379 . S
H2467 C2461 0.959 . S
H2468 C2461 0.961 . S
H2469 C2461 0.960 . S
H2470 C2462 0.930 . S
H2471 C2463 0.929 . S
H2472 C2480 0.929 . S
H2473 C2482 0.930 . S
H2474 C2484 0.930 . S
H2475 C2487 0.929 . S
H2476 C2490 0.930 . S
H2477 C2492 0.960 . S
H2478 C2492 0.960 . S
H2479 C2492 0.960 . S
C2480 H2472 0.929 . S
C2480 C2481 1.377 . S
C2480 C2482 1.384 . S
C2481 C2480 1.377 . S
C2481 C2487 1.390 . S
C2482 H2473 0.930 . S
C2482 C2480 1.384 . S
C2482 C2483 1.372 . S
C2483 C2482 1.372 . S
C2483 C2484 1.400 . S
C2483 C2488 1.490 . S
C2484 H2474 0.930 . S
C2484 C2483 1.400 . S
C2484 C2487 1.386 . S
H2485 C2501 0.930 . S
H2486 C2502 0.931 . S
C2487 H2475 0.929 . S
C2487 C2481 1.390 . S
C2487 C2484 1.386 . S
C2488 C2483 1.490 . S
C2488 C2490 1.395 . S
C2488 C2491 1.403 . S
H2489 C2495 0.930 . S
C2490 H2476 0.930 . S
C2490 C2488 1.395 . S
C2490 C2493 1.403 . S
C2491 C2488 1.403 . S
C2491 C2492 1.524 . S
C2491 C2495 1.400 1_455 S
C2492 H2477 0.960 . S
C2492 H2478 0.960 . S
C2492 H2479 0.960 . S
C2492 C2491 1.524 . S
C2493 C2490 1.403 . S
C2493 C2494 1.392 1_455 S
C2493 C2497 1.495 1_455 S
C2494 C2493 1.392 1_655 S
C2494 C2495 1.385 . S
C2494 C2496 1.478 . S
C2495 H2489 0.930 . S
C2495 C2491 1.400 1_655 S
C2495 C2494 1.385 . S
C2496 C2494 1.478 . S
C2496 C2498 1.381 . S
C2496 C2502 1.383 . S
C2497 C2493 1.495 1_655 S
C2497 H2503 0.959 1_655 S
C2497 H2504 0.961 . S
C2497 H2505 0.960 . S
C2498 C2496 1.381 . S
C2498 C2499 1.394 . S
C2498 H2506 0.930 . S
C2499 C2498 1.394 . S
C2499 C2500 1.383 . S
C2499 H2507 0.929 . S
C2500 C2499 1.383 . S
C2500 C2501 1.377 . S
C2501 H2485 0.930 . S
C2501 C2500 1.377 . S
C2501 C2502 1.379 . S
C2502 H2486 0.931 . S
C2502 C2496 1.383 . S
C2502 C2501 1.379 . S
H2503 C2497 0.959 1_455 S
H2504 C2497 0.961 . S
H2505 C2497 0.960 . S
H2506 C2498 0.930 . S
H2507 C2499 0.929 . S
H2508 C2516 0.929 . S
H2509 C2518 0.930 . S
H2510 C2520 0.930 . S
H2511 C2523 0.929 . S
H2512 C2526 0.930 . S
H2513 C2528 0.960 . S
H2514 C2528 0.960 . S
H2515 C2528 0.960 . S
C2516 H2508 0.929 . S
C2516 C2517 1.377 . S
C2516 C2518 1.384 . S
C2517 C2516 1.377 . S
C2517 C2523 1.390 . S
C2518 H2509 0.930 . S
C2518 C2516 1.384 . S
C2518 C2519 1.372 . S
C2519 C2518 1.372 . S
C2519 C2520 1.400 . S
C2519 C2524 1.490 . S
C2520 H2510 0.930 . S
C2520 C2519 1.400 . S
C2520 C2523 1.386 . S
H2521 C2537 0.930 . S
H2522 C2538 0.931 . S
C2523 H2511 0.929 . S
C2523 C2517 1.390 . S
C2523 C2520 1.386 . S
C2524 C2519 1.490 . S
C2524 C2526 1.395 . S
C2524 C2527 1.403 . S
H2525 C2531 0.930 . S
C2526 H2512 0.930 . S
C2526 C2524 1.395 . S
C2526 C2529 1.403 . S
C2527 C2524 1.403 . S
C2527 C2528 1.524 . S
C2527 C2531 1.400 . S
C2528 H2513 0.960 . S
C2528 H2514 0.960 . S
C2528 H2515 0.960 . S
C2528 C2527 1.524 . S
C2529 C2526 1.403 . S
C2529 C2530 1.392 . S
C2529 C2533 1.495 . S
C2530 C2529 1.392 . S
C2530 C2531 1.385 . S
C2530 C2532 1.478 . S
C2531 H2525 0.930 . S
C2531 C2527 1.400 . S
C2531 C2530 1.385 . S
C2532 C2530 1.478 . S
C2532 C2534 1.381 . S
C2532 C2538 1.383 . S
C2533 C2529 1.495 . S
C2533 H2539 0.959 . S
C2533 H2540 0.961 . S
C2533 H2541 0.960 . S
C2534 C2532 1.381 . S
C2534 C2535 1.394 . S
C2534 H2542 0.930 . S
C2535 C2534 1.394 . S
C2535 C2536 1.383 . S
C2535 H2543 0.929 . S
C2536 C2535 1.383 . S
C2536 C2537 1.377 . S
C2537 H2521 0.930 . S
C2537 C2536 1.377 . S
C2537 C2538 1.379 . S
C2538 H2522 0.931 . S
C2538 C2532 1.383 . S
C2538 C2537 1.379 . S
H2539 C2533 0.959 . S
H2540 C2533 0.961 . S
H2541 C2533 0.960 . S
H2542 C2534 0.930 . S
H2543 C2535 0.929 . S
H2544 C2552 0.929 . S
H2545 C2554 0.930 . S
H2546 C2556 0.930 . S
H2547 C2559 0.929 . S
H2548 C2562 0.930 . S
H2549 C2564 0.960 1_455 S
H2550 C2564 0.960 . S
H2551 C2564 0.960 . S
C2552 H2544 0.929 . S
C2552 C2553 1.377 . S
C2552 C2554 1.384 . S
C2553 C2552 1.377 . S
C2553 C2559 1.390 . S
C2554 H2545 0.930 . S
C2554 C2552 1.384 . S
C2554 C2555 1.372 . S
C2555 C2554 1.372 . S
C2555 C2556 1.400 . S
C2555 C2560 1.490 . S
C2556 H2546 0.930 . S
C2556 C2555 1.400 . S
C2556 C2559 1.386 . S
H2557 C2573 0.930 . S
H2558 C2574 0.931 . S
C2559 H2547 0.929 . S
C2559 C2553 1.390 . S
C2559 C2556 1.386 . S
C2560 C2555 1.490 . S
C2560 C2562 1.395 . S
C2560 C2563 1.403 1_655 S
H2561 C2567 0.930 . S
C2562 H2548 0.930 . S
C2562 C2560 1.395 . S
C2562 C2565 1.403 1_655 S
C2563 C2560 1.403 1_455 S
C2563 C2564 1.524 1_455 S
C2563 C2567 1.400 . S
C2564 H2549 0.960 1_655 S
C2564 H2550 0.960 . S
C2564 H2551 0.960 . S
C2564 C2563 1.524 1_655 S
C2565 C2562 1.403 1_455 S
C2565 C2566 1.392 . S
C2565 C2569 1.495 . S
C2566 C2565 1.392 . S
C2566 C2567 1.385 . S
C2566 C2568 1.478 . S
C2567 H2561 0.930 . S
C2567 C2563 1.400 . S
C2567 C2566 1.385 . S
C2568 C2566 1.478 . S
C2568 C2570 1.381 . S
C2568 C2574 1.383 . S
C2569 C2565 1.495 . S
C2569 H2575 0.959 . S
C2569 H2576 0.961 . S
C2569 H2577 0.960 . S
C2570 C2568 1.381 . S
C2570 C2571 1.394 . S
C2570 H2578 0.930 . S
C2571 C2570 1.394 . S
C2571 C2572 1.383 . S
C2571 H2579 0.929 . S
C2572 C2571 1.383 . S
C2572 C2573 1.377 . S
C2573 H2557 0.930 . S
C2573 C2572 1.377 . S
C2573 C2574 1.379 . S
C2574 H2558 0.931 . S
C2574 C2568 1.383 . S
C2574 C2573 1.379 . S
H2575 C2569 0.959 . S
H2576 C2569 0.961 . S
H2577 C2569 0.960 . S
H2578 C2570 0.930 . S
H2579 C2571 0.929 . S
H2580 C2588 0.929 . S
H2581 C2590 0.930 . S
H2582 C2592 0.930 . S
H2583 C2595 0.929 . S
H2584 C2598 0.930 . S
H2585 C2600 0.960 . S
H2586 C2600 0.960 . S
H2587 C2600 0.960 . S
C2588 H2580 0.929 . S
C2588 C2589 1.377 . S
C2588 C2590 1.384 . S
C2589 C2588 1.377 . S
C2589 C2595 1.390 . S
C2590 H2581 0.930 . S
C2590 C2588 1.384 . S
C2590 C2591 1.372 . S
C2591 C2590 1.372 . S
C2591 C2592 1.400 . S
C2591 C2596 1.490 . S
C2592 H2582 0.930 . S
C2592 C2591 1.400 . S
C2592 C2595 1.386 . S
H2593 C2609 0.930 . S
H2594 C2610 0.931 . S
C2595 H2583 0.929 . S
C2595 C2589 1.390 . S
C2595 C2592 1.386 . S
C2596 C2591 1.490 . S
C2596 C2598 1.395 . S
C2596 C2599 1.403 . S
H2597 C2603 0.930 . S
C2598 H2584 0.930 . S
C2598 C2596 1.395 . S
C2598 C2601 1.403 . S
C2599 C2596 1.403 . S
C2599 C2600 1.524 . S
C2599 C2603 1.400 . S
C2600 H2585 0.960 . S
C2600 H2586 0.960 . S
C2600 H2587 0.960 . S
C2600 C2599 1.524 . S
C2601 C2598 1.403 . S
C2601 C2602 1.392 . S
C2601 C2605 1.495 . S
C2602 C2601 1.392 . S
C2602 C2603 1.385 . S
C2602 C2604 1.478 . S
C2603 H2597 0.930 . S
C2603 C2599 1.400 . S
C2603 C2602 1.385 . S
C2604 C2602 1.478 . S
C2604 C2606 1.381 . S
C2604 C2610 1.383 . S
C2605 C2601 1.495 . S
C2605 H2611 0.959 . S
C2605 H2612 0.961 . S
C2605 H2613 0.960 . S
C2606 C2604 1.381 . S
C2606 C2607 1.394 . S
C2606 H2614 0.930 . S
C2607 C2606 1.394 . S
C2607 C2608 1.383 . S
C2607 H2615 0.929 . S
C2608 C2607 1.383 . S
C2608 C2609 1.377 . S
C2609 H2593 0.930 . S
C2609 C2608 1.377 . S
C2609 C2610 1.379 . S
C2610 H2594 0.931 . S
C2610 C2604 1.383 . S
C2610 C2609 1.379 . S
H2611 C2605 0.959 . S
H2612 C2605 0.961 . S
H2613 C2605 0.960 . S
H2614 C2606 0.930 . S
H2615 C2607 0.929 . S
H2616 C2624 0.929 . S
H2617 C2626 0.930 . S
H2618 C2628 0.930 . S
H2619 C2631 0.929 . S
H2620 C2634 0.930 . S
H2621 C2636 0.960 . S
H2622 C2636 0.960 . S
H2623 C2636 0.960 . S
C2624 H2616 0.929 . S
C2624 C2625 1.377 . S
C2624 C2626 1.384 . S
C2625 C2624 1.377 . S
C2625 C2631 1.390 . S
C2626 H2617 0.930 . S
C2626 C2624 1.384 . S
C2626 C2627 1.372 . S
C2627 C2626 1.372 . S
C2627 C2628 1.400 . S
C2627 C2632 1.490 . S
C2628 H2618 0.930 . S
C2628 C2627 1.400 . S
C2628 C2631 1.386 . S
H2629 C2645 0.930 . S
H2630 C2646 0.931 . S
C2631 H2619 0.929 . S
C2631 C2625 1.390 . S
C2631 C2628 1.386 . S
C2632 C2627 1.490 . S
C2632 C2634 1.395 . S
C2632 C2635 1.403 . S
H2633 C2639 0.943 . S
C2634 H2620 0.930 . S
C2634 C2632 1.395 . S
C2634 C2637 1.406 1_655 S
C2635 C2632 1.403 . S
C2635 C2636 1.524 . S
C2635 C2639 1.377 1_655 S
C2636 H2621 0.960 . S
C2636 H2622 0.960 . S
C2636 H2623 0.960 . S
C2636 C2635 1.524 . S
C2637 C2634 1.406 1_455 S
C2637 C2638 1.391 . S
C2637 C2641 1.494 . S
C2638 C2637 1.391 . S
C2638 C2639 1.397 . S
C2638 C2640 1.478 . S
C2639 H2633 0.943 . S
C2639 C2635 1.377 1_455 S
C2639 C2638 1.397 . S
C2640 C2638 1.478 . S
C2640 C2642 1.381 . S
C2640 C2646 1.383 . S
C2641 C2637 1.494 . S
C2641 H2647 0.969 . S
C2641 H2648 0.961 . S
C2641 H2649 0.960 . S
C2642 C2640 1.381 . S
C2642 C2643 1.394 . S
C2642 H2650 0.930 . S
C2643 C2642 1.394 . S
C2643 C2644 1.383 . S
C2643 H2651 0.929 . S
C2644 C2643 1.383 . S
C2644 C2645 1.377 . S
C2645 H2629 0.930 . S
C2645 C2644 1.377 . S
C2645 C2646 1.379 . S
C2646 H2630 0.931 . S
C2646 C2640 1.383 . S
C2646 C2645 1.379 . S
H2647 C2641 0.969 . S
H2648 C2641 0.961 . S
H2649 C2641 0.960 . S
H2650 C2642 0.930 . S
H2651 C2643 0.929 . S
H2652 C2660 0.929 . S
H2653 C2662 0.930 . S
H2654 C2664 0.930 . S
H2655 C2667 0.929 . S
H2656 C2670 0.930 . S
H2657 C2672 0.960 . S
H2658 C2672 0.960 . S
H2659 C2672 0.960 . S
C2660 H2652 0.929 . S
C2660 C2661 1.377 . S
C2660 C2662 1.384 . S
C2661 C2660 1.377 . S
C2661 C2667 1.390 . S
C2662 H2653 0.930 . S
C2662 C2660 1.384 . S
C2662 C2663 1.372 . S
C2663 C2662 1.372 . S
C2663 C2664 1.400 . S
C2663 C2668 1.490 . S
C2664 H2654 0.930 . S
C2664 C2663 1.400 . S
C2664 C2667 1.386 . S
H2665 C2681 0.930 . S
H2666 C2682 0.931 . S
C2667 H2655 0.929 . S
C2667 C2661 1.390 . S
C2667 C2664 1.386 . S
C2668 C2663 1.490 . S
C2668 C2670 1.395 . S
C2668 C2671 1.403 . S
H2669 C2675 0.930 . S
C2670 H2656 0.930 . S
C2670 C2668 1.395 . S
C2670 C2673 1.403 . S
C2671 C2668 1.403 . S
C2671 C2672 1.524 . S
C2671 C2675 1.400 . S
C2672 H2657 0.960 . S
C2672 H2658 0.960 . S
C2672 H2659 0.960 . S
C2672 C2671 1.524 . S
C2673 C2670 1.403 . S
C2673 C2674 1.392 . S
C2673 C2677 1.495 . S
C2674 C2673 1.392 . S
C2674 C2675 1.385 . S
C2674 C2676 1.478 . S
C2675 H2669 0.930 . S
C2675 C2671 1.400 . S
C2675 C2674 1.385 . S
C2676 C2674 1.478 . S
C2676 C2678 1.381 . S
C2676 C2682 1.383 . S
C2677 C2673 1.495 . S
C2677 H2683 0.959 . S
C2677 H2684 0.961 . S
C2677 H2685 0.960 . S
C2678 C2676 1.381 . S
C2678 C2679 1.394 . S
C2678 H2686 0.930 . S
C2679 C2678 1.394 . S
C2679 C2680 1.383 . S
C2679 H2687 0.929 . S
C2680 C2679 1.383 . S
C2680 C2681 1.377 . S
C2681 H2665 0.930 . S
C2681 C2680 1.377 . S
C2681 C2682 1.379 . S
C2682 H2666 0.931 . S
C2682 C2676 1.383 . S
C2682 C2681 1.379 . S
H2683 C2677 0.959 . S
H2684 C2677 0.961 . S
H2685 C2677 0.960 . S
H2686 C2678 0.930 . S
H2687 C2679 0.929 . S
H2688 C2696 0.929 . S
H2689 C2698 0.930 . S
H2690 C2700 0.930 . S
H2691 C2703 0.929 . S
H2692 C2706 0.930 1_545 S
H2693 C2708 0.960 1_565 S
H2694 C2708 0.960 . S
H2695 C2708 0.960 . S
C2696 H2688 0.929 . S
C2696 C2697 1.377 . S
C2696 C2698 1.384 . S
C2697 C2696 1.377 . S
C2697 C2703 1.390 . S
C2698 H2689 0.930 . S
C2698 C2696 1.384 . S
C2698 C2699 1.372 . S
C2699 C2698 1.372 . S
C2699 C2700 1.400 . S
C2699 C2704 1.490 . S
C2700 H2690 0.930 . S
C2700 C2699 1.400 . S
C2700 C2703 1.386 . S
H2701 C2717 0.930 . S
H2702 C2718 0.931 . S
C2703 H2691 0.929 . S
C2703 C2697 1.390 . S
C2703 C2700 1.386 . S
C2704 C2699 1.490 . S
C2704 C2706 1.395 1_545 S
C2704 C2707 1.403 1_545 S
H2705 C2711 0.930 . S
C2706 H2692 0.930 1_565 S
C2706 C2704 1.395 1_565 S
C2706 C2709 1.403 . S
C2707 C2704 1.403 1_565 S
C2707 C2708 1.524 1_565 S
C2707 C2711 1.400 . S
C2708 H2693 0.960 1_545 S
C2708 H2694 0.960 . S
C2708 H2695 0.960 . S
C2708 C2707 1.524 1_545 S
C2709 C2706 1.403 . S
C2709 C2710 1.392 . S
C2709 C2713 1.495 . S
C2710 C2709 1.392 . S
C2710 C2711 1.385 . S
C2710 C2712 1.478 . S
C2711 H2705 0.930 . S
C2711 C2707 1.400 . S
C2711 C2710 1.385 . S
C2712 C2710 1.478 . S
C2712 C2714 1.381 . S
C2712 C2718 1.383 . S
C2713 C2709 1.495 . S
C2713 H2719 0.959 . S
C2713 H2720 0.961 . S
C2713 H2721 0.960 . S
C2714 C2712 1.381 . S
C2714 C2715 1.394 . S
C2714 H2722 0.930 . S
C2715 C2714 1.394 . S
C2715 C2716 1.383 . S
C2715 H2723 0.929 . S
C2716 C2715 1.383 . S
C2716 C2717 1.377 . S
C2717 H2701 0.930 . S
C2717 C2716 1.377 . S
C2717 C2718 1.379 . S
C2718 H2702 0.931 . S
C2718 C2712 1.383 . S
C2718 C2717 1.379 . S
H2719 C2713 0.959 . S
H2720 C2713 0.961 . S
H2721 C2713 0.960 . S
H2722 C2714 0.930 . S
H2723 C2715 0.929 . S
H2724 C2732 0.929 . S
H2725 C2734 0.930 . S
H2726 C2736 0.930 . S
H2727 C2739 0.929 . S
H2728 C2742 0.930 . S
H2729 C2744 0.960 . S
H2730 C2744 0.960 . S
H2731 C2744 0.960 . S
C2732 H2724 0.929 . S
C2732 C2733 1.377 . S
C2732 C2734 1.384 . S
C2733 C2732 1.377 . S
C2733 C2739 1.390 . S
C2734 H2725 0.930 . S
C2734 C2732 1.384 . S
C2734 C2735 1.372 . S
C2735 C2734 1.372 . S
C2735 C2736 1.400 . S
C2735 C2740 1.490 . S
C2736 H2726 0.930 . S
C2736 C2735 1.400 . S
C2736 C2739 1.386 . S
H2737 C2753 0.930 . S
H2738 C2754 0.931 . S
C2739 H2727 0.929 . S
C2739 C2733 1.390 . S
C2739 C2736 1.386 . S
C2740 C2735 1.490 . S
C2740 C2742 1.395 . S
C2740 C2743 1.403 . S
H2741 C2747 0.930 . S
C2742 H2728 0.930 . S
C2742 C2740 1.395 . S
C2742 C2745 1.403 . S
C2743 C2740 1.403 . S
C2743 C2744 1.524 . S
C2743 C2747 1.400 . S
C2744 H2729 0.960 . S
C2744 H2730 0.960 . S
C2744 H2731 0.960 . S
C2744 C2743 1.524 . S
C2745 C2742 1.403 . S
C2745 C2746 1.392 . S
C2745 C2749 1.495 . S
C2746 C2745 1.392 . S
C2746 C2747 1.385 . S
C2746 C2748 1.478 . S
C2747 H2741 0.930 . S
C2747 C2743 1.400 . S
C2747 C2746 1.385 . S
C2748 C2746 1.478 . S
C2748 C2750 1.381 . S
C2748 C2754 1.383 . S
C2749 C2745 1.495 . S
C2749 H2755 0.959 . S
C2749 H2756 0.961 . S
C2749 H2757 0.960 . S
C2750 C2748 1.381 . S
C2750 C2751 1.394 . S
C2750 H2758 0.930 . S
C2751 C2750 1.394 . S
C2751 C2752 1.383 . S
C2751 H2759 0.929 . S
C2752 C2751 1.383 . S
C2752 C2753 1.377 . S
C2753 H2737 0.930 . S
C2753 C2752 1.377 . S
C2753 C2754 1.379 . S
C2754 H2738 0.931 . S
C2754 C2748 1.383 . S
C2754 C2753 1.379 . S
H2755 C2749 0.959 . S
H2756 C2749 0.961 . S
H2757 C2749 0.960 . S
H2758 C2750 0.930 . S
H2759 C2751 0.929 . S
H2760 C2768 0.929 . S
H2761 C2770 0.930 . S
H2762 C2772 0.930 . S
H2763 C2775 0.929 . S
H2764 C2778 0.930 . S
H2765 C2780 0.960 . S
H2766 C2780 0.960 . S
H2767 C2780 0.960 . S
C2768 H2760 0.929 . S
C2768 C2769 1.377 . S
C2768 C2770 1.384 . S
C2769 C2768 1.377 . S
C2769 C2775 1.390 . S
C2770 H2761 0.930 . S
C2770 C2768 1.384 . S
C2770 C2771 1.372 . S
C2771 C2770 1.372 . S
C2771 C2772 1.400 . S
C2771 C2776 1.490 . S
C2772 H2762 0.930 . S
C2772 C2771 1.400 . S
C2772 C2775 1.386 . S
H2773 C2789 0.930 . S
H2774 C2790 0.931 . S
C2775 H2763 0.929 . S
C2775 C2769 1.390 . S
C2775 C2772 1.386 . S
C2776 C2771 1.490 . S
C2776 C2778 1.395 . S
C2776 C2779 1.403 . S
H2777 C2783 0.930 1_565 S
C2778 H2764 0.930 . S
C2778 C2776 1.395 . S
C2778 C2781 1.403 . S
C2779 C2776 1.403 . S
C2779 C2780 1.524 . S
C2779 C2783 1.400 . S
C2780 H2765 0.960 . S
C2780 H2766 0.960 . S
C2780 H2767 0.960 . S
C2780 C2779 1.524 . S
C2781 C2778 1.403 . S
C2781 C2782 1.392 1_545 S
C2781 C2785 1.495 1_545 S
C2782 C2781 1.392 1_565 S
C2782 C2783 1.385 1_565 S
C2782 C2784 1.478 . S
C2783 H2777 0.930 1_545 S
C2783 C2779 1.400 . S
C2783 C2782 1.385 1_545 S
C2784 C2782 1.478 . S
C2784 C2786 1.381 . S
C2784 C2790 1.383 . S
C2785 C2781 1.495 1_565 S
C2785 H2791 0.959 1_565 S
C2785 H2792 0.961 . S
C2785 H2793 0.960 . S
C2786 C2784 1.381 . S
C2786 C2787 1.394 . S
C2786 H2794 0.930 . S
C2787 C2786 1.394 . S
C2787 C2788 1.383 . S
C2787 H2795 0.929 . S
C2788 C2787 1.383 . S
C2788 C2789 1.377 . S
C2789 H2773 0.930 . S
C2789 C2788 1.377 . S
C2789 C2790 1.379 . S
C2790 H2774 0.931 . S
C2790 C2784 1.383 . S
C2790 C2789 1.379 . S
H2791 C2785 0.959 1_545 S
H2792 C2785 0.961 . S
H2793 C2785 0.960 . S
H2794 C2786 0.930 . S
H2795 C2787 0.929 . S
H2796 C2804 0.929 . S
H2797 C2806 0.930 . S
H2798 C2808 0.930 . S
H2799 C2811 0.929 . S
H2800 C2814 0.930 . S
H2801 C2816 0.960 . S
H2802 C2816 0.960 . S
H2803 C2816 0.960 . S
C2804 H2796 0.929 . S
C2804 C2805 1.377 . S
C2804 C2806 1.384 . S
C2805 C2804 1.377 . S
C2805 C2811 1.390 . S
C2806 H2797 0.930 . S
C2806 C2804 1.384 . S
C2806 C2807 1.372 . S
C2807 C2806 1.372 . S
C2807 C2808 1.400 . S
C2807 C2812 1.490 . S
C2808 H2798 0.930 . S
C2808 C2807 1.400 . S
C2808 C2811 1.386 . S
H2809 C2825 0.930 . S
H2810 C2826 0.931 . S
C2811 H2799 0.929 . S
C2811 C2805 1.390 . S
C2811 C2808 1.386 . S
C2812 C2807 1.490 . S
C2812 C2814 1.395 . S
C2812 C2815 1.403 . S
H2813 C2819 0.930 . S
C2814 H2800 0.930 . S
C2814 C2812 1.395 . S
C2814 C2817 1.403 . S
C2815 C2812 1.403 . S
C2815 C2816 1.524 . S
C2815 C2819 1.400 . S
C2816 H2801 0.960 . S
C2816 H2802 0.960 . S
C2816 H2803 0.960 . S
C2816 C2815 1.524 . S
C2817 C2814 1.403 . S
C2817 C2818 1.392 . S
C2817 C2821 1.495 . S
C2818 C2817 1.392 . S
C2818 C2819 1.385 . S
C2818 C2820 1.478 . S
C2819 H2813 0.930 . S
C2819 C2815 1.400 . S
C2819 C2818 1.385 . S
C2820 C2818 1.478 . S
C2820 C2822 1.381 . S
C2820 C2826 1.383 . S
C2821 C2817 1.495 . S
C2821 H2827 0.959 . S
C2821 H2828 0.961 . S
C2821 H2829 0.960 . S
C2822 C2820 1.381 . S
C2822 C2823 1.394 . S
C2822 H2830 0.930 . S
C2823 C2822 1.394 . S
C2823 C2824 1.383 . S
C2823 H2831 0.929 . S
C2824 C2823 1.383 . S
C2824 C2825 1.377 . S
C2825 H2809 0.930 . S
C2825 C2824 1.377 . S
C2825 C2826 1.379 . S
C2826 H2810 0.931 . S
C2826 C2820 1.383 . S
C2826 C2825 1.379 . S
H2827 C2821 0.959 . S
H2828 C2821 0.961 . S
H2829 C2821 0.960 . S
H2830 C2822 0.930 . S
H2831 C2823 0.929 . S
H2832 C2840 0.929 . S
H2833 C2842 0.930 . S
H2834 C2844 0.930 . S
H2835 C2847 0.929 . S
H2836 C2850 0.930 . S
H2837 C2852 0.960 . S
H2838 C2852 0.960 . S
H2839 C2852 0.960 . S
C2840 H2832 0.929 . S
C2840 C2841 1.377 . S
C2840 C2842 1.384 . S
C2841 C2840 1.377 . S
C2841 C2847 1.390 . S
C2842 H2833 0.930 . S
C2842 C2840 1.384 . S
C2842 C2843 1.372 . S
C2843 C2842 1.372 . S
C2843 C2844 1.400 . S
C2843 C2848 1.490 . S
C2844 H2834 0.930 . S
C2844 C2843 1.400 . S
C2844 C2847 1.386 . S
H2845 C2861 0.930 . S
H2846 C2862 0.931 . S
C2847 H2835 0.929 . S
C2847 C2841 1.390 . S
C2847 C2844 1.386 . S
C2848 C2843 1.490 . S
C2848 C2850 1.395 . S
C2848 C2851 1.403 . S
H2849 C2855 0.930 . S
C2850 H2836 0.930 . S
C2850 C2848 1.395 . S
C2850 C2853 1.403 1_545 S
C2851 C2848 1.403 . S
C2851 C2852 1.524 . S
C2851 C2855 1.400 1_545 S
C2852 H2837 0.960 . S
C2852 H2838 0.960 . S
C2852 H2839 0.960 . S
C2852 C2851 1.524 . S
C2853 C2850 1.403 1_565 S
C2853 C2854 1.392 . S
C2853 C2857 1.495 . S
C2854 C2853 1.392 . S
C2854 C2855 1.385 . S
C2854 C2856 1.478 . S
C2855 H2849 0.930 . S
C2855 C2851 1.400 1_565 S
C2855 C2854 1.385 . S
C2856 C2854 1.478 . S
C2856 C2858 1.381 . S
C2856 C2862 1.383 . S
C2857 C2853 1.495 . S
C2857 H2863 0.959 . S
C2857 H2864 0.961 . S
C2857 H2865 0.960 . S
C2858 C2856 1.381 . S
C2858 C2859 1.394 . S
C2858 H2866 0.930 . S
C2859 C2858 1.394 . S
C2859 C2860 1.383 . S
C2859 H2867 0.929 . S
C2860 C2859 1.383 . S
C2860 C2861 1.377 . S
C2861 H2845 0.930 . S
C2861 C2860 1.377 . S
C2861 C2862 1.379 . S
C2862 H2846 0.931 . S
C2862 C2856 1.383 . S
C2862 C2861 1.379 . S
H2863 C2857 0.959 . S
H2864 C2857 0.961 . S
H2865 C2857 0.960 . S
H2866 C2858 0.930 . S
H2867 C2859 0.929 . S
H2868 C2876 0.929 . S
H2869 C2878 0.930 . S
H2870 C2880 0.930 . S
H2871 C2883 0.929 . S
H2872 C2886 0.930 . S
H2873 C2888 0.960 . S
H2874 C2888 0.960 . S
H2875 C2888 0.960 . S
C2876 H2868 0.929 . S
C2876 C2877 1.377 . S
C2876 C2878 1.384 . S
C2877 C2876 1.377 . S
C2877 C2883 1.390 . S
C2878 H2869 0.930 . S
C2878 C2876 1.384 . S
C2878 C2879 1.372 . S
C2879 C2878 1.372 . S
C2879 C2880 1.400 . S
C2879 C2884 1.490 . S
C2880 H2870 0.930 . S
C2880 C2879 1.400 . S
C2880 C2883 1.386 . S
H2881 C2897 0.930 . S
H2882 C2898 0.931 . S
C2883 H2871 0.929 . S
C2883 C2877 1.390 . S
C2883 C2880 1.386 . S
C2884 C2879 1.490 . S
C2884 C2886 1.395 . S
C2884 C2887 1.403 . S
H2885 C2891 0.930 . S
C2886 H2872 0.930 . S
C2886 C2884 1.395 . S
C2886 C2889 1.403 . S
C2887 C2884 1.403 . S
C2887 C2888 1.524 . S
C2887 C2891 1.400 . S
C2888 H2873 0.960 . S
C2888 H2874 0.960 . S
C2888 H2875 0.960 . S
C2888 C2887 1.524 . S
C2889 C2886 1.403 . S
C2889 C2890 1.392 . S
C2889 C2893 1.495 . S
C2890 C2889 1.392 . S
C2890 C2891 1.385 . S
C2890 C2892 1.478 . S
C2891 H2885 0.930 . S
C2891 C2887 1.400 . S
C2891 C2890 1.385 . S
C2892 C2890 1.478 . S
C2892 C2894 1.381 . S
C2892 C2898 1.383 . S
C2893 C2889 1.495 . S
C2893 H2899 0.959 . S
C2893 H2900 0.961 . S
C2893 H2901 0.960 . S
C2894 C2892 1.381 . S
C2894 C2895 1.394 . S
C2894 H2902 0.930 . S
C2895 C2894 1.394 . S
C2895 C2896 1.383 . S
C2895 H2903 0.929 . S
C2896 C2895 1.383 . S
C2896 C2897 1.377 . S
C2897 H2881 0.930 . S
C2897 C2896 1.377 . S
C2897 C2898 1.379 . S
C2898 H2882 0.931 . S
C2898 C2892 1.383 . S
C2898 C2897 1.379 . S
H2899 C2893 0.959 . S
H2900 C2893 0.961 . S
H2901 C2893 0.960 . S
H2902 C2894 0.930 . S
H2903 C2895 0.929 . S
H2904 C2912 0.929 . S
H2905 C2914 0.930 . S
H2906 C2916 0.930 . S
H2907 C2919 0.929 . S
H2908 C2922 0.930 . S
H2909 C2924 0.960 . S
H2910 C2924 0.960 . S
H2911 C2924 0.960 . S
C2912 H2904 0.929 . S
C2912 C2913 1.377 . S
C2912 C2914 1.384 . S
C2913 C2912 1.377 . S
C2913 C2919 1.390 . S
C2914 H2905 0.930 . S
C2914 C2912 1.384 . S
C2914 C2915 1.372 . S
C2915 C2914 1.372 . S
C2915 C2916 1.400 . S
C2915 C2920 1.490 . S
C2916 H2906 0.930 . S
C2916 C2915 1.400 . S
C2916 C2919 1.386 . S
H2917 C2933 0.930 . S
H2918 C2934 0.931 . S
C2919 H2907 0.929 . S
C2919 C2913 1.390 . S
C2919 C2916 1.386 . S
C2920 C2915 1.490 . S
C2920 C2922 1.395 . S
C2920 C2923 1.403 . S
H2921 C2927 0.930 . S
C2922 H2908 0.930 . S
C2922 C2920 1.395 . S
C2922 C2925 1.403 1_545 S
C2923 C2920 1.403 . S
C2923 C2924 1.524 . S
C2923 C2927 1.400 1_545 S
C2924 H2909 0.960 . S
C2924 H2910 0.960 . S
C2924 H2911 0.960 . S
C2924 C2923 1.524 . S
C2925 C2922 1.403 1_565 S
C2925 C2926 1.392 . S
C2925 C2929 1.495 . S
C2926 C2925 1.392 . S
C2926 C2927 1.385 . S
C2926 C2928 1.478 . S
C2927 H2921 0.930 . S
C2927 C2923 1.400 1_565 S
C2927 C2926 1.385 . S
C2928 C2926 1.478 . S
C2928 C2930 1.381 . S
C2928 C2934 1.383 . S
C2929 C2925 1.495 . S
C2929 H2935 0.959 . S
C2929 H2936 0.961 . S
C2929 H2937 0.960 . S
C2930 C2928 1.381 . S
C2930 C2931 1.394 . S
C2930 H2938 0.930 . S
C2931 C2930 1.394 . S
C2931 C2932 1.383 . S
C2931 H2939 0.929 . S
C2932 C2931 1.383 . S
C2932 C2933 1.377 . S
C2933 H2917 0.930 . S
C2933 C2932 1.377 . S
C2933 C2934 1.379 . S
C2934 H2918 0.931 . S
C2934 C2928 1.383 . S
C2934 C2933 1.379 . S
H2935 C2929 0.959 . S
H2936 C2929 0.961 . S
H2937 C2929 0.960 . S
H2938 C2930 0.930 . S
H2939 C2931 0.929 . S
H2940 C2948 0.929 . S
H2941 C2950 0.930 . S
H2942 C2952 0.930 . S
H2943 C2955 0.929 . S
H2944 C2958 0.930 . S
H2945 C2960 0.960 . S
H2946 C2960 0.960 . S
H2947 C2960 0.960 . S
C2948 H2940 0.929 . S
C2948 C2949 1.377 . S
C2948 C2950 1.384 . S
C2949 C2948 1.377 . S
C2949 C2955 1.390 . S
C2950 H2941 0.930 . S
C2950 C2948 1.384 . S
C2950 C2951 1.372 . S
C2951 C2950 1.372 . S
C2951 C2952 1.400 . S
C2951 C2956 1.490 . S
C2952 H2942 0.930 . S
C2952 C2951 1.400 . S
C2952 C2955 1.386 . S
H2953 C2969 0.930 . S
H2954 C2970 0.931 . S
C2955 H2943 0.929 . S
C2955 C2949 1.390 . S
C2955 C2952 1.386 . S
C2956 C2951 1.490 . S
C2956 C2958 1.395 . S
C2956 C2959 1.403 . S
H2957 C2963 0.930 . S
C2958 H2944 0.930 . S
C2958 C2956 1.395 . S
C2958 C2961 1.403 . S
C2959 C2956 1.403 . S
C2959 C2960 1.524 . S
C2959 C2963 1.400 . S
C2960 H2945 0.960 . S
C2960 H2946 0.960 . S
C2960 H2947 0.960 . S
C2960 C2959 1.524 . S
C2961 C2958 1.403 . S
C2961 C2962 1.392 . S
C2961 C2965 1.495 . S
C2962 C2961 1.392 . S
C2962 C2963 1.385 . S
C2962 C2964 1.478 . S
C2963 H2957 0.930 . S
C2963 C2959 1.400 . S
C2963 C2962 1.385 . S
C2964 C2962 1.478 . S
C2964 C2966 1.381 . S
C2964 C2970 1.383 . S
C2965 C2961 1.495 . S
C2965 H2971 0.959 . S
C2965 H2972 0.961 . S
C2965 H2973 0.960 . S
C2966 C2964 1.381 . S
C2966 C2967 1.394 . S
C2966 H2974 0.930 . S
C2967 C2966 1.394 . S
C2967 C2968 1.383 . S
C2967 H2975 0.929 . S
C2968 C2967 1.383 . S
C2968 C2969 1.377 . S
C2969 H2953 0.930 . S
C2969 C2968 1.377 . S
C2969 C2970 1.379 . S
C2970 H2954 0.931 . S
C2970 C2964 1.383 . S
C2970 C2969 1.379 . S
H2971 C2965 0.959 . S
H2972 C2965 0.961 . S
H2973 C2965 0.960 . S
H2974 C2966 0.930 . S
H2975 C2967 0.929 . S
H2976 C2984 0.929 . S
H2977 C2986 0.930 . S
H2978 C2988 0.930 . S
H2979 C2991 0.929 . S
H2980 C2994 0.964 . S
H2981 C2996 0.915 1_554 S
H2982 C2996 0.960 . S
H2983 C2996 0.960 . S
C2984 H2976 0.929 . S
C2984 C2985 1.377 . S
C2984 C2986 1.384 . S
C2985 C2984 1.377 . S
C2985 C2991 1.390 . S
C2986 H2977 0.930 . S
C2986 C2984 1.384 . S
C2986 C2987 1.372 . S
C2987 C2986 1.372 . S
C2987 C2988 1.400 . S
C2987 C2992 1.490 . S
C2988 H2978 0.930 . S
C2988 C2987 1.400 . S
C2988 C2991 1.386 . S
H2989 C3005 0.930 . S
H2990 C3006 0.931 . S
C2991 H2979 0.929 . S
C2991 C2985 1.390 . S
C2991 C2988 1.386 . S
C2992 C2987 1.490 . S
C2992 C2994 1.424 . S
C2992 C2995 1.397 1_556 S
H2993 C2999 0.930 . S
C2994 H2980 0.964 . S
C2994 C2992 1.424 . S
C2994 C2997 1.344 1_556 S
C2995 C2992 1.397 1_554 S
C2995 C2996 1.519 1_554 S
C2995 C2999 1.410 . S
C2996 H2981 0.915 1_556 S
C2996 H2982 0.960 . S
C2996 H2983 0.960 . S
C2996 C2995 1.519 1_556 S
C2997 C2994 1.344 1_554 S
C2997 C2998 1.392 . S
C2997 C3001 1.495 . S
C2998 C2997 1.392 . S
C2998 C2999 1.385 . S
C2998 C3000 1.478 . S
C2999 H2993 0.930 . S
C2999 C2995 1.410 . S
C2999 C2998 1.385 . S
C3000 C2998 1.478 . S
C3000 C3002 1.381 . S
C3000 C3006 1.383 . S
C3001 C2997 1.495 . S
C3001 H3007 0.959 . S
C3001 H3008 0.961 . S
C3001 H3009 0.960 . S
C3002 C3000 1.381 . S
C3002 C3003 1.394 . S
C3002 H3010 0.930 . S
C3003 C3002 1.394 . S
C3003 C3004 1.383 . S
C3003 H3011 0.929 . S
C3004 C3003 1.383 . S
C3004 C3005 1.377 . S
C3005 H2989 0.930 . S
C3005 C3004 1.377 . S
C3005 C3006 1.379 . S
C3006 H2990 0.931 . S
C3006 C3000 1.383 . S
C3006 C3005 1.379 . S
H3007 C3001 0.959 . S
H3008 C3001 0.961 . S
H3009 C3001 0.960 . S
H3010 C3002 0.930 . S
H3011 C3003 0.929 . S
H3012 C3020 0.929 . S
H3013 C3022 0.930 . S
H3014 C3024 0.930 . S
H3015 C3027 0.929 . S
H3016 C3030 0.930 . S
H3017 C3032 0.960 . S
H3018 C3032 0.960 . S
H3019 C3032 0.960 . S
C3020 H3012 0.929 . S
C3020 C3021 1.377 . S
C3020 C3022 1.384 . S
C3021 C3020 1.377 . S
C3021 C3027 1.390 . S
C3022 H3013 0.930 . S
C3022 C3020 1.384 . S
C3022 C3023 1.372 . S
C3023 C3022 1.372 . S
C3023 C3024 1.400 . S
C3023 C3028 1.490 . S
C3024 H3014 0.930 . S
C3024 C3023 1.400 . S
C3024 C3027 1.386 . S
H3025 C3041 0.930 . S
H3026 C3042 0.931 . S
C3027 H3015 0.929 . S
C3027 C3021 1.390 . S
C3027 C3024 1.386 . S
C3028 C3023 1.490 . S
C3028 C3030 1.395 . S
C3028 C3031 1.403 . S
H3029 C3035 0.930 . S
C3030 H3016 0.930 . S
C3030 C3028 1.395 . S
C3030 C3033 1.403 1_556 S
C3031 C3028 1.403 . S
C3031 C3032 1.524 . S
C3031 C3035 1.400 1_556 S
C3032 H3017 0.960 . S
C3032 H3018 0.960 . S
C3032 H3019 0.960 . S
C3032 C3031 1.524 . S
C3033 C3030 1.403 1_554 S
C3033 C3034 1.392 . S
C3033 C3037 1.495 . S
C3034 C3033 1.392 . S
C3034 C3035 1.385 . S
C3034 C3036 1.478 . S
C3035 H3029 0.930 . S
C3035 C3031 1.400 1_554 S
C3035 C3034 1.385 . S
C3036 C3034 1.478 . S
C3036 C3038 1.381 . S
C3036 C3042 1.383 . S
C3037 C3033 1.495 . S
C3037 H3043 0.959 . S
C3037 H3044 0.961 . S
C3037 H3045 0.960 . S
C3038 C3036 1.381 . S
C3038 C3039 1.394 . S
C3038 H3046 0.930 . S
C3039 C3038 1.394 . S
C3039 C3040 1.383 . S
C3039 H3047 0.929 . S
C3040 C3039 1.383 . S
C3040 C3041 1.377 . S
C3041 H3025 0.930 . S
C3041 C3040 1.377 . S
C3041 C3042 1.379 . S
C3042 H3026 0.931 . S
C3042 C3036 1.383 . S
C3042 C3041 1.379 . S
H3043 C3037 0.959 . S
H3044 C3037 0.961 . S
H3045 C3037 0.960 . S
H3046 C3038 0.930 . S
H3047 C3039 0.929 . S
H3048 C3056 0.929 . S
H3049 C3058 0.930 . S
H3050 C3060 0.930 . S
H3051 C3063 0.929 . S
H3052 C3066 0.930 . S
H3053 C3068 0.960 . S
H3054 C3068 0.960 . S
H3055 C3068 0.960 . S
C3056 H3048 0.929 . S
C3056 C3057 1.377 . S
C3056 C3058 1.384 . S
C3057 C3056 1.377 . S
C3057 C3063 1.390 . S
C3058 H3049 0.930 . S
C3058 C3056 1.384 . S
C3058 C3059 1.372 . S
C3059 C3058 1.372 . S
C3059 C3060 1.400 . S
C3059 C3064 1.490 . S
C3060 H3050 0.930 . S
C3060 C3059 1.400 . S
C3060 C3063 1.386 . S
H3061 C3077 0.930 . S
H3062 C3078 0.931 . S
C3063 H3051 0.929 . S
C3063 C3057 1.390 . S
C3063 C3060 1.386 . S
C3064 C3059 1.490 . S
C3064 C3066 1.395 . S
C3064 C3067 1.403 . S
H3065 C3071 0.930 . S
C3066 H3052 0.930 . S
C3066 C3064 1.395 . S
C3066 C3069 1.403 . S
C3067 C3064 1.403 . S
C3067 C3068 1.524 . S
C3067 C3071 1.400 . S
C3068 H3053 0.960 . S
C3068 H3054 0.960 . S
C3068 H3055 0.960 . S
C3068 C3067 1.524 . S
C3069 C3066 1.403 . S
C3069 C3070 1.392 . S
C3069 C3073 1.495 . S
C3070 C3069 1.392 . S
C3070 C3071 1.385 . S
C3070 C3072 1.478 . S
C3071 H3065 0.930 . S
C3071 C3067 1.400 . S
C3071 C3070 1.385 . S
C3072 C3070 1.478 . S
C3072 C3074 1.381 . S
C3072 C3078 1.383 . S
C3073 C3069 1.495 . S
C3073 H3079 0.959 . S
C3073 H3080 0.961 . S
C3073 H3081 0.960 . S
C3074 C3072 1.381 . S
C3074 C3075 1.394 . S
C3074 H3082 0.930 . S
C3075 C3074 1.394 . S
C3075 C3076 1.383 . S
C3075 H3083 0.929 . S
C3076 C3075 1.383 . S
C3076 C3077 1.377 . S
C3077 H3061 0.930 . S
C3077 C3076 1.377 . S
C3077 C3078 1.379 . S
C3078 H3062 0.931 . S
C3078 C3072 1.383 . S
C3078 C3077 1.379 . S
H3079 C3073 0.959 . S
H3080 C3073 0.961 . S
H3081 C3073 0.960 . S
H3082 C3074 0.930 . S
H3083 C3075 0.929 . S
H3084 C3092 0.929 . S
H3085 C3094 0.930 . S
H3086 C3096 0.930 . S
H3087 C3099 0.929 . S
H3088 C3102 0.930 . S
H3089 C3104 0.960 . S
H3090 C3104 0.960 . S
H3091 C3104 0.960 . S
C3092 H3084 0.929 . S
C3092 C3093 1.377 . S
C3092 C3094 1.384 . S
C3093 C3092 1.377 . S
C3093 C3099 1.390 . S
C3094 H3085 0.930 . S
C3094 C3092 1.384 . S
C3094 C3095 1.372 . S
C3095 C3094 1.372 . S
C3095 C3096 1.400 . S
C3095 C3100 1.490 . S
C3096 H3086 0.930 . S
C3096 C3095 1.400 . S
C3096 C3099 1.386 . S
H3097 C3113 0.930 . S
H3098 C3114 0.931 . S
C3099 H3087 0.929 . S
C3099 C3093 1.390 . S
C3099 C3096 1.386 . S
C3100 C3095 1.490 . S
C3100 C3102 1.395 . S
C3100 C3103 1.403 . S
H3101 C3107 0.930 . S
C3102 H3088 0.930 . S
C3102 C3100 1.395 . S
C3102 C3105 1.403 1_556 S
C3103 C3100 1.403 . S
C3103 C3104 1.524 . S
C3103 C3107 1.400 1_556 S
C3104 H3089 0.960 . S
C3104 H3090 0.960 . S
C3104 H3091 0.960 . S
C3104 C3103 1.524 . S
C3105 C3102 1.403 1_554 S
C3105 C3106 1.392 . S
C3105 C3109 1.495 . S
C3106 C3105 1.392 . S
C3106 C3107 1.385 . S
C3106 C3108 1.478 . S
C3107 H3101 0.930 . S
C3107 C3103 1.400 1_554 S
C3107 C3106 1.385 . S
C3108 C3106 1.478 . S
C3108 C3110 1.381 . S
C3108 C3114 1.383 . S
C3109 C3105 1.495 . S
C3109 H3115 0.959 . S
C3109 H3116 0.961 . S
C3109 H3117 0.960 . S
C3110 C3108 1.381 . S
C3110 C3111 1.394 . S
C3110 H3118 0.930 . S
C3111 C3110 1.394 . S
C3111 C3112 1.383 . S
C3111 H3119 0.929 . S
C3112 C3111 1.383 . S
C3112 C3113 1.377 . S
C3113 H3097 0.930 . S
C3113 C3112 1.377 . S
C3113 C3114 1.379 . S
C3114 H3098 0.931 . S
C3114 C3108 1.383 . S
C3114 C3113 1.379 . S
H3115 C3109 0.959 . S
H3116 C3109 0.961 . S
H3117 C3109 0.960 . S
H3118 C3110 0.930 . S
H3119 C3111 0.929 . S
H3120 C3128 0.929 . S
H3121 C3130 0.930 . S
H3122 C3132 0.930 . S
H3123 C3135 0.929 . S
H3124 C3138 0.930 . S
H3125 C3140 0.960 . S
H3126 C3140 0.960 . S
H3127 C3140 0.960 . S
C3128 H3120 0.929 . S
C3128 C3129 1.377 . S
C3128 C3130 1.384 . S
C3129 C3128 1.377 . S
C3129 C3135 1.390 . S
C3130 H3121 0.930 . S
C3130 C3128 1.384 . S
C3130 C3131 1.372 . S
C3131 C3130 1.372 . S
C3131 C3132 1.400 . S
C3131 C3136 1.490 . S
C3132 H3122 0.930 . S
C3132 C3131 1.400 . S
C3132 C3135 1.386 . S
H3133 C3149 0.930 . S
H3134 C3150 0.931 . S
C3135 H3123 0.929 . S
C3135 C3129 1.390 . S
C3135 C3132 1.386 . S
C3136 C3131 1.490 . S
C3136 C3138 1.395 . S
C3136 C3139 1.403 . S
H3137 C3143 0.930 . S
C3138 H3124 0.930 . S
C3138 C3136 1.395 . S
C3138 C3141 1.403 . S
C3139 C3136 1.403 . S
C3139 C3140 1.524 . S
C3139 C3143 1.400 . S
C3140 H3125 0.960 . S
C3140 H3126 0.960 . S
C3140 H3127 0.960 . S
C3140 C3139 1.524 . S
C3141 C3138 1.403 . S
C3141 C3142 1.392 . S
C3141 C3145 1.495 . S
C3142 C3141 1.392 . S
C3142 C3143 1.385 . S
C3142 C3144 1.478 . S
C3143 H3137 0.930 . S
C3143 C3139 1.400 . S
C3143 C3142 1.385 . S
C3144 C3142 1.478 . S
C3144 C3146 1.381 . S
C3144 C3150 1.383 . S
C3145 C3141 1.495 . S
C3145 H3151 0.959 . S
C3145 H3152 0.961 . S
C3145 H3153 0.960 . S
C3146 C3144 1.381 . S
C3146 C3147 1.394 . S
C3146 H3154 0.930 . S
C3147 C3146 1.394 . S
C3147 C3148 1.383 . S
C3147 H3155 0.929 . S
C3148 C3147 1.383 . S
C3148 C3149 1.377 . S
C3149 H3133 0.930 . S
C3149 C3148 1.377 . S
C3149 C3150 1.379 . S
C3150 H3134 0.931 . S
C3150 C3144 1.383 . S
C3150 C3149 1.379 . S
H3151 C3145 0.959 . S
H3152 C3145 0.961 . S
H3153 C3145 0.960 . S
H3154 C3146 0.930 . S
H3155 C3147 0.929 . S
H3156 C3164 0.929 . S
H3157 C3166 0.930 . S
H3158 C3168 0.930 . S
H3159 C3171 0.929 . S
H3160 C3174 0.964 . S
H3161 C3176 0.923 1_554 S
H3162 C3176 0.960 . S
H3163 C3176 0.960 . S
C3164 H3156 0.929 . S
C3164 C3165 1.377 . S
C3164 C3166 1.384 . S
C3165 C3164 1.377 . S
C3165 C3171 1.390 . S
C3166 H3157 0.930 . S
C3166 C3164 1.384 . S
C3166 C3167 1.372 . S
C3167 C3166 1.372 . S
C3167 C3168 1.400 . S
C3167 C3172 1.490 . S
C3168 H3158 0.930 . S
C3168 C3167 1.400 . S
C3168 C3171 1.386 . S
H3169 C3185 0.930 . S
H3170 C3186 0.931 . S
C3171 H3159 0.929 . S
C3171 C3165 1.390 . S
C3171 C3168 1.386 . S
C3172 C3167 1.490 . S
C3172 C3174 1.424 . S
C3172 C3175 1.400 1_556 S
H3173 C3179 0.930 . S
C3174 H3160 0.964 . S
C3174 C3172 1.424 . S
C3174 C3177 1.343 1_556 S
C3175 C3172 1.400 1_554 S
C3175 C3176 1.522 1_554 S
C3175 C3179 1.405 . S
C3176 H3161 0.923 1_556 S
C3176 H3162 0.960 . S
C3176 H3163 0.960 . S
C3176 C3175 1.522 1_556 S
C3177 C3174 1.343 1_554 S
C3177 C3178 1.392 . S
C3177 C3181 1.495 . S
C3178 C3177 1.392 . S
C3178 C3179 1.385 . S
C3178 C3180 1.478 . S
C3179 H3173 0.930 . S
C3179 C3175 1.405 . S
C3179 C3178 1.385 . S
C3180 C3178 1.478 . S
C3180 C3182 1.381 . S
C3180 C3186 1.383 . S
C3181 C3177 1.495 . S
C3181 H3187 0.959 . S
C3181 H3188 0.961 . S
C3181 H3189 0.960 . S
C3182 C3180 1.381 . S
C3182 C3183 1.394 . S
C3182 H3190 0.930 . S
C3183 C3182 1.394 . S
C3183 C3184 1.383 . S
C3183 H3191 0.929 . S
C3184 C3183 1.383 . S
C3184 C3185 1.377 . S
C3185 H3169 0.930 . S
C3185 C3184 1.377 . S
C3185 C3186 1.379 . S
C3186 H3170 0.931 . S
C3186 C3180 1.383 . S
C3186 C3185 1.379 . S
H3187 C3181 0.959 . S
H3188 C3181 0.961 . S
H3189 C3181 0.960 . S
H3190 C3182 0.930 . S
H3191 C3183 0.929 . S
H3192 C3200 0.929 . S
H3193 C3202 0.930 . S
H3194 C3204 0.930 . S
H3195 C3207 0.929 . S
H3196 C3210 0.930 . S
H3197 C3212 0.960 . S
H3198 C3212 0.960 . S
H3199 C3212 0.960 . S
C3200 H3192 0.929 . S
C3200 C3201 1.377 . S
C3200 C3202 1.384 . S
C3201 C3200 1.377 . S
C3201 C3207 1.390 . S
C3202 H3193 0.930 . S
C3202 C3200 1.384 . S
C3202 C3203 1.372 . S
C3203 C3202 1.372 . S
C3203 C3204 1.400 . S
C3203 C3208 1.490 . S
C3204 H3194 0.930 . S
C3204 C3203 1.400 . S
C3204 C3207 1.386 . S
H3205 C3221 0.930 . S
H3206 C3222 0.931 . S
C3207 H3195 0.929 . S
C3207 C3201 1.390 . S
C3207 C3204 1.386 . S
C3208 C3203 1.490 . S
C3208 C3210 1.395 . S
C3208 C3211 1.403 . S
H3209 C3215 0.930 . S
C3210 H3196 0.930 . S
C3210 C3208 1.395 . S
C3210 C3213 1.403 . S
C3211 C3208 1.403 . S
C3211 C3212 1.524 . S
C3211 C3215 1.400 . S
C3212 H3197 0.960 . S
C3212 H3198 0.960 . S
C3212 H3199 0.960 . S
C3212 C3211 1.524 . S
C3213 C3210 1.403 . S
C3213 C3214 1.392 . S
C3213 C3217 1.495 . S
C3214 C3213 1.392 . S
C3214 C3215 1.385 . S
C3214 C3216 1.478 . S
C3215 H3209 0.930 . S
C3215 C3211 1.400 . S
C3215 C3214 1.385 . S
C3216 C3214 1.478 . S
C3216 C3218 1.381 . S
C3216 C3222 1.383 . S
C3217 C3213 1.495 . S
C3217 H3223 0.959 . S
C3217 H3224 0.961 . S
C3217 H3225 0.960 . S
C3218 C3216 1.381 . S
C3218 C3219 1.394 . S
C3218 H3226 0.930 . S
C3219 C3218 1.394 . S
C3219 C3220 1.383 . S
C3219 H3227 0.929 . S
C3220 C3219 1.383 . S
C3220 C3221 1.377 . S
C3221 H3205 0.930 . S
C3221 C3220 1.377 . S
C3221 C3222 1.379 . S
C3222 H3206 0.931 . S
C3222 C3216 1.383 . S
C3222 C3221 1.379 . S
H3223 C3217 0.959 . S
H3224 C3217 0.961 . S
H3225 C3217 0.960 . S
H3226 C3218 0.930 . S
H3227 C3219 0.929 . S
H3228 C3236 0.929 . S
H3229 C3238 0.930 . S
H3230 C3240 0.930 . S
H3231 C3243 0.929 . S
H3232 C3246 0.930 . S
H3233 C3248 0.960 . S
H3234 C3248 0.960 . S
H3235 C3248 0.960 . S
C3236 H3228 0.929 . S
C3236 C3237 1.377 . S
C3236 C3238 1.384 . S
C3237 C3236 1.377 . S
C3237 C3243 1.390 . S
C3238 H3229 0.930 . S
C3238 C3236 1.384 . S
C3238 C3239 1.372 . S
C3239 C3238 1.372 . S
C3239 C3240 1.400 . S
C3239 C3244 1.490 . S
C3240 H3230 0.930 . S
C3240 C3239 1.400 . S
C3240 C3243 1.386 . S
H3241 C3257 0.930 . S
H3242 C3258 0.931 . S
C3243 H3231 0.929 . S
C3243 C3237 1.390 . S
C3243 C3240 1.386 . S
C3244 C3239 1.490 . S
C3244 C3246 1.395 . S
C3244 C3247 1.403 . S
H3245 C3251 0.930 . S
C3246 H3232 0.930 . S
C3246 C3244 1.395 . S
C3246 C3249 1.403 . S
C3247 C3244 1.403 . S
C3247 C3248 1.524 . S
C3247 C3251 1.400 . S
C3248 H3233 0.960 . S
C3248 H3234 0.960 . S
C3248 H3235 0.960 . S
C3248 C3247 1.524 . S
C3249 C3246 1.403 . S
C3249 C3250 1.392 . S
C3249 C3253 1.495 . S
C3250 C3249 1.392 . S
C3250 C3251 1.385 . S
C3250 C3252 1.478 . S
C3251 H3245 0.930 . S
C3251 C3247 1.400 . S
C3251 C3250 1.385 . S
C3252 C3250 1.478 . S
C3252 C3254 1.381 . S
C3252 C3258 1.383 . S
C3253 C3249 1.495 . S
C3253 H3259 0.959 . S
C3253 H3260 0.961 . S
C3253 H3261 0.960 . S
C3254 C3252 1.381 . S
C3254 C3255 1.394 . S
C3254 H3262 0.930 . S
C3255 C3254 1.394 . S
C3255 C3256 1.383 . S
C3255 H3263 0.929 . S
C3256 C3255 1.383 . S
C3256 C3257 1.377 . S
C3257 H3241 0.930 . S
C3257 C3256 1.377 . S
C3257 C3258 1.379 . S
C3258 H3242 0.931 . S
C3258 C3252 1.383 . S
C3258 C3257 1.379 . S
H3259 C3253 0.959 . S
H3260 C3253 0.961 . S
H3261 C3253 0.960 . S
H3262 C3254 0.930 . S
H3263 C3255 0.929 . S
H3264 C3272 0.929 . S
H3265 C3274 0.930 . S
H3266 C3276 0.930 . S
H3267 C3279 0.929 . S
H3268 C3282 0.930 . S
H3269 C3284 0.960 . S
H3270 C3284 0.960 . S
H3271 C3284 0.960 . S
C3272 H3264 0.929 . S
C3272 C3273 1.377 . S
C3272 C3274 1.384 . S
C3273 C3272 1.377 . S
C3273 C3279 1.390 . S
C3274 H3265 0.930 . S
C3274 C3272 1.384 . S
C3274 C3275 1.372 . S
C3275 C3274 1.372 . S
C3275 C3276 1.400 . S
C3275 C3280 1.490 . S
C3276 H3266 0.930 . S
C3276 C3275 1.400 . S
C3276 C3279 1.386 . S
H3277 C3293 0.930 . S
H3278 C3294 0.931 . S
C3279 H3267 0.929 . S
C3279 C3273 1.390 . S
C3279 C3276 1.386 . S
C3280 C3275 1.490 . S
C3280 C3282 1.395 . S
C3280 C3283 1.403 . S
H3281 C3287 0.930 . S
C3282 H3268 0.930 . S
C3282 C3280 1.395 . S
C3282 C3285 1.403 . S
C3283 C3280 1.403 . S
C3283 C3284 1.524 . S
C3283 C3287 1.400 . S
C3284 H3269 0.960 . S
C3284 H3270 0.960 . S
C3284 H3271 0.960 . S
C3284 C3283 1.524 . S
C3285 C3282 1.403 . S
C3285 C3286 1.392 . S
C3285 C3289 1.495 . S
C3286 C3285 1.392 . S
C3286 C3287 1.385 . S
C3286 C3288 1.478 . S
C3287 H3281 0.930 . S
C3287 C3283 1.400 . S
C3287 C3286 1.385 . S
C3288 C3286 1.478 . S
C3288 C3290 1.381 . S
C3288 C3294 1.383 . S
C3289 C3285 1.495 . S
C3289 H3295 0.959 . S
C3289 H3296 0.961 . S
C3289 H3297 0.960 . S
C3290 C3288 1.381 . S
C3290 C3291 1.394 . S
C3290 H3298 0.930 . S
C3291 C3290 1.394 . S
C3291 C3292 1.383 . S
C3291 H3299 0.929 . S
C3292 C3291 1.383 . S
C3292 C3293 1.377 . S
C3293 H3277 0.930 . S
C3293 C3292 1.377 . S
C3293 C3294 1.379 . S
C3294 H3278 0.931 . S
C3294 C3288 1.383 . S
C3294 C3293 1.379 . S
H3295 C3289 0.959 . S
H3296 C3289 0.961 . S
H3297 C3289 0.960 . S
H3298 C3290 0.930 . S
H3299 C3291 0.929 . S
H3300 C3308 0.929 . S
H3301 C3310 0.930 . S
H3302 C3312 0.930 . S
H3303 C3315 0.929 . S
H3304 C3318 0.930 . S
H3305 C3320 0.960 . S
H3306 C3320 0.960 . S
H3307 C3320 0.960 . S
C3308 H3300 0.929 . S
C3308 C3309 1.377 . S
C3308 C3310 1.384 . S
C3309 C3308 1.377 . S
C3309 C3315 1.390 . S
C3310 H3301 0.930 . S
C3310 C3308 1.384 . S
C3310 C3311 1.372 . S
C3311 C3310 1.372 . S
C3311 C3312 1.400 . S
C3311 C3316 1.490 . S
C3312 H3302 0.930 . S
C3312 C3311 1.400 . S
C3312 C3315 1.386 . S
H3313 C3329 0.930 . S
H3314 C3330 0.931 . S
C3315 H3303 0.929 . S
C3315 C3309 1.390 . S
C3315 C3312 1.386 . S
C3316 C3311 1.490 . S
C3316 C3318 1.395 . S
C3316 C3319 1.403 . S
H3317 C3323 0.930 . S
C3318 H3304 0.930 . S
C3318 C3316 1.395 . S
C3318 C3321 1.403 . S
C3319 C3316 1.403 . S
C3319 C3320 1.524 . S
C3319 C3323 1.400 . S
C3320 H3305 0.960 . S
C3320 H3306 0.960 . S
C3320 H3307 0.960 . S
C3320 C3319 1.524 . S
C3321 C3318 1.403 . S
C3321 C3322 1.392 . S
C3321 C3325 1.495 . S
C3322 C3321 1.392 . S
C3322 C3323 1.385 . S
C3322 C3324 1.478 . S
C3323 H3317 0.930 . S
C3323 C3319 1.400 . S
C3323 C3322 1.385 . S
C3324 C3322 1.478 . S
C3324 C3326 1.381 . S
C3324 C3330 1.383 . S
C3325 C3321 1.495 . S
C3325 H3331 0.959 . S
C3325 H3332 0.961 . S
C3325 H3333 0.960 . S
C3326 C3324 1.381 . S
C3326 C3327 1.394 . S
C3326 H3334 0.930 . S
C3327 C3326 1.394 . S
C3327 C3328 1.383 . S
C3327 H3335 0.929 . S
C3328 C3327 1.383 . S
C3328 C3329 1.377 . S
C3329 H3313 0.930 . S
C3329 C3328 1.377 . S
C3329 C3330 1.379 . S
C3330 H3314 0.931 . S
C3330 C3324 1.383 . S
C3330 C3329 1.379 . S
H3331 C3325 0.959 . S
H3332 C3325 0.961 . S
H3333 C3325 0.960 . S
H3334 C3326 0.930 . S
H3335 C3327 0.929 . S
H3336 C3344 0.929 . S
H3337 C3346 0.930 . S
H3338 C3348 0.930 . S
H3339 C3351 0.929 . S
H3340 C3354 0.930 . S
H3341 C3356 0.960 . S
H3342 C3356 0.960 . S
H3343 C3356 0.960 . S
C3344 H3336 0.929 . S
C3344 C3345 1.377 . S
C3344 C3346 1.384 . S
C3345 C3344 1.377 . S
C3345 C3351 1.390 . S
C3346 H3337 0.930 . S
C3346 C3344 1.384 . S
C3346 C3347 1.372 . S
C3347 C3346 1.372 . S
C3347 C3348 1.400 . S
C3347 C3352 1.490 . S
C3348 H3338 0.930 . S
C3348 C3347 1.400 . S
C3348 C3351 1.386 . S
H3349 C3365 0.930 . S
H3350 C3366 0.931 . S
C3351 H3339 0.929 . S
C3351 C3345 1.390 . S
C3351 C3348 1.386 . S
C3352 C3347 1.490 . S
C3352 C3354 1.395 . S
C3352 C3355 1.403 . S
H3353 C3359 0.930 . S
C3354 H3340 0.930 . S
C3354 C3352 1.395 . S
C3354 C3357 1.403 . S
C3355 C3352 1.403 . S
C3355 C3356 1.524 . S
C3355 C3359 1.400 . S
C3356 H3341 0.960 . S
C3356 H3342 0.960 . S
C3356 H3343 0.960 . S
C3356 C3355 1.524 . S
C3357 C3354 1.403 . S
C3357 C3358 1.392 . S
C3357 C3361 1.495 . S
C3358 C3357 1.392 . S
C3358 C3359 1.385 . S
C3358 C3360 1.478 . S
C3359 H3353 0.930 . S
C3359 C3355 1.400 . S
C3359 C3358 1.385 . S
C3360 C3358 1.478 . S
C3360 C3362 1.381 . S
C3360 C3366 1.383 . S
C3361 C3357 1.495 . S
C3361 H3367 0.959 . S
C3361 H3368 0.961 . S
C3361 H3369 0.960 . S
C3362 C3360 1.381 . S
C3362 C3363 1.394 . S
C3362 H3370 0.930 . S
C3363 C3362 1.394 . S
C3363 C3364 1.383 . S
C3363 H3371 0.929 . S
C3364 C3363 1.383 . S
C3364 C3365 1.377 . S
C3365 H3349 0.930 . S
C3365 C3364 1.377 . S
C3365 C3366 1.379 . S
C3366 H3350 0.931 . S
C3366 C3360 1.383 . S
C3366 C3365 1.379 . S
H3367 C3361 0.959 . S
H3368 C3361 0.961 . S
H3369 C3361 0.960 . S
H3370 C3362 0.930 . S
H3371 C3363 0.929 . S
H3372 C3380 0.929 . S
H3373 C3382 0.930 . S
H3374 C3384 0.930 . S
H3375 C3387 0.929 . S
H3376 C3390 0.930 . S
H3377 C3392 0.960 . S
H3378 C3392 0.960 . S
H3379 C3392 0.960 . S
C3380 H3372 0.929 . S
C3380 C3381 1.377 . S
C3380 C3382 1.384 . S
C3381 C3380 1.377 . S
C3381 C3387 1.390 . S
C3382 H3373 0.930 . S
C3382 C3380 1.384 . S
C3382 C3383 1.372 . S
C3383 C3382 1.372 . S
C3383 C3384 1.400 . S
C3383 C3388 1.490 . S
C3384 H3374 0.930 . S
C3384 C3383 1.400 . S
C3384 C3387 1.386 . S
H3385 C3401 0.930 . S
H3386 C3402 0.931 . S
C3387 H3375 0.929 . S
C3387 C3381 1.390 . S
C3387 C3384 1.386 . S
C3388 C3383 1.490 . S
C3388 C3390 1.395 . S
C3388 C3391 1.403 . S
H3389 C3395 0.930 . S
C3390 H3376 0.930 . S
C3390 C3388 1.395 . S
C3390 C3393 1.403 . S
C3391 C3388 1.403 . S
C3391 C3392 1.524 . S
C3391 C3395 1.400 . S
C3392 H3377 0.960 . S
C3392 H3378 0.960 . S
C3392 H3379 0.960 . S
C3392 C3391 1.524 . S
C3393 C3390 1.403 . S
C3393 C3394 1.392 . S
C3393 C3397 1.495 . S
C3394 C3393 1.392 . S
C3394 C3395 1.385 . S
C3394 C3396 1.478 . S
C3395 H3389 0.930 . S
C3395 C3391 1.400 . S
C3395 C3394 1.385 . S
C3396 C3394 1.478 . S
C3396 C3398 1.381 . S
C3396 C3402 1.383 . S
C3397 C3393 1.495 . S
C3397 H3403 0.959 . S
C3397 H3404 0.961 . S
C3397 H3405 0.960 . S
C3398 C3396 1.381 . S
C3398 C3399 1.394 . S
C3398 H3406 0.930 . S
C3399 C3398 1.394 . S
C3399 C3400 1.383 . S
C3399 H3407 0.929 . S
C3400 C3399 1.383 . S
C3400 C3401 1.377 . S
C3401 H3385 0.930 . S
C3401 C3400 1.377 . S
C3401 C3402 1.379 . S
C3402 H3386 0.931 . S
C3402 C3396 1.383 . S
C3402 C3401 1.379 . S
H3403 C3397 0.959 . S
H3404 C3397 0.961 . S
H3405 C3397 0.960 . S
H3406 C3398 0.930 . S
H3407 C3399 0.929 . S
H3408 C3416 0.929 . S
H3409 C3418 0.930 . S
H3410 C3420 0.930 . S
H3411 C3423 0.929 . S
H3412 C3426 0.930 . S
H3413 C3428 0.960 . S
H3414 C3428 0.960 . S
H3415 C3428 0.960 . S
C3416 H3408 0.929 . S
C3416 C3417 1.377 . S
C3416 C3418 1.384 . S
C3417 C3416 1.377 . S
C3417 C3423 1.390 . S
C3418 H3409 0.930 . S
C3418 C3416 1.384 . S
C3418 C3419 1.372 . S
C3419 C3418 1.372 . S
C3419 C3420 1.400 . S
C3419 C3424 1.490 . S
C3420 H3410 0.930 . S
C3420 C3419 1.400 . S
C3420 C3423 1.386 . S
H3421 C3437 0.930 . S
H3422 C3438 0.931 . S
C3423 H3411 0.929 . S
C3423 C3417 1.390 . S
C3423 C3420 1.386 . S
C3424 C3419 1.490 . S
C3424 C3426 1.395 . S
C3424 C3427 1.403 . S
H3425 C3431 0.930 . S
C3426 H3412 0.930 . S
C3426 C3424 1.395 . S
C3426 C3429 1.403 . S
C3427 C3424 1.403 . S
C3427 C3428 1.524 . S
C3427 C3431 1.400 . S
C3428 H3413 0.960 . S
C3428 H3414 0.960 . S
C3428 H3415 0.960 . S
C3428 C3427 1.524 . S
C3429 C3426 1.403 . S
C3429 C3430 1.392 . S
C3429 C3433 1.495 . S
C3430 C3429 1.392 . S
C3430 C3431 1.385 . S
C3430 C3432 1.478 . S
C3431 H3425 0.930 . S
C3431 C3427 1.400 . S
C3431 C3430 1.385 . S
C3432 C3430 1.478 . S
C3432 C3434 1.381 . S
C3432 C3438 1.383 . S
C3433 C3429 1.495 . S
C3433 H3439 0.959 . S
C3433 H3440 0.961 . S
C3433 H3441 0.960 . S
C3434 C3432 1.381 . S
C3434 C3435 1.394 . S
C3434 H3442 0.930 . S
C3435 C3434 1.394 . S
C3435 C3436 1.383 . S
C3435 H3443 0.929 . S
C3436 C3435 1.383 . S
C3436 C3437 1.377 . S
C3437 H3421 0.930 . S
C3437 C3436 1.377 . S
C3437 C3438 1.379 . S
C3438 H3422 0.931 . S
C3438 C3432 1.383 . S
C3438 C3437 1.379 . S
H3439 C3433 0.959 . S
H3440 C3433 0.961 . S
H3441 C3433 0.960 . S
H3442 C3434 0.930 . S
H3443 C3435 0.929 . S
H3444 C3452 0.929 . S
H3445 C3454 0.930 . S
H3446 C3456 0.930 . S
H3447 C3459 0.929 . S
H3448 C3462 0.930 . S
H3449 C3464 0.960 . S
H3450 C3464 0.960 . S
H3451 C3464 0.960 . S
C3452 H3444 0.929 . S
C3452 C3453 1.377 . S
C3452 C3454 1.384 . S
C3453 C3452 1.377 . S
C3453 C3459 1.390 . S
C3454 H3445 0.930 . S
C3454 C3452 1.384 . S
C3454 C3455 1.372 . S
C3455 C3454 1.372 . S
C3455 C3456 1.400 . S
C3455 C3460 1.490 . S
C3456 H3446 0.930 . S
C3456 C3455 1.400 . S
C3456 C3459 1.386 . S
H3457 C3473 0.930 . S
H3458 C3474 0.931 . S
C3459 H3447 0.929 . S
C3459 C3453 1.390 . S
C3459 C3456 1.386 . S
C3460 C3455 1.490 . S
C3460 C3462 1.395 . S
C3460 C3463 1.403 . S
H3461 C3467 0.930 . S
C3462 H3448 0.930 . S
C3462 C3460 1.395 . S
C3462 C3465 1.403 . S
C3463 C3460 1.403 . S
C3463 C3464 1.524 . S
C3463 C3467 1.400 . S
C3464 H3449 0.960 . S
C3464 H3450 0.960 . S
C3464 H3451 0.960 . S
C3464 C3463 1.524 . S
C3465 C3462 1.403 . S
C3465 C3466 1.392 . S
C3465 C3469 1.495 . S
C3466 C3465 1.392 . S
C3466 C3467 1.385 . S
C3466 C3468 1.478 . S
C3467 H3461 0.930 . S
C3467 C3463 1.400 . S
C3467 C3466 1.385 . S
C3468 C3466 1.478 . S
C3468 C3470 1.381 . S
C3468 C3474 1.383 . S
C3469 C3465 1.495 . S
C3469 H3475 0.959 . S
C3469 H3476 0.961 . S
C3469 H3477 0.960 . S
C3470 C3468 1.381 . S
C3470 C3471 1.394 . S
C3470 H3478 0.930 . S
C3471 C3470 1.394 . S
C3471 C3472 1.383 . S
C3471 H3479 0.929 . S
C3472 C3471 1.383 . S
C3472 C3473 1.377 . S
C3473 H3457 0.930 . S
C3473 C3472 1.377 . S
C3473 C3474 1.379 . S
C3474 H3458 0.931 . S
C3474 C3468 1.383 . S
C3474 C3473 1.379 . S
H3475 C3469 0.959 . S
H3476 C3469 0.961 . S
H3477 C3469 0.960 . S
H3478 C3470 0.930 . S
H3479 C3471 0.929 . S
H3480 C3488 0.929 . S
H3481 C3490 0.930 . S
H3482 C3492 0.930 . S
H3483 C3495 0.929 . S
H3484 C3498 0.930 . S
H3485 C3500 0.960 . S
H3486 C3500 0.960 . S
H3487 C3500 0.960 . S
C3488 H3480 0.929 . S
C3488 C3489 1.377 . S
C3488 C3490 1.384 . S
C3489 C3488 1.377 . S
C3489 C3495 1.390 . S
C3490 H3481 0.930 . S
C3490 C3488 1.384 . S
C3490 C3491 1.372 . S
C3491 C3490 1.372 . S
C3491 C3492 1.400 . S
C3491 C3496 1.490 . S
C3492 H3482 0.930 . S
C3492 C3491 1.400 . S
C3492 C3495 1.386 . S
H3493 C3509 0.930 . S
H3494 C3510 0.931 . S
C3495 H3483 0.929 . S
C3495 C3489 1.390 . S
C3495 C3492 1.386 . S
C3496 C3491 1.490 . S
C3496 C3498 1.395 . S
C3496 C3499 1.403 . S
H3497 C3503 0.930 . S
C3498 H3484 0.930 . S
C3498 C3496 1.395 . S
C3498 C3501 1.403 . S
C3499 C3496 1.403 . S
C3499 C3500 1.524 . S
C3499 C3503 1.400 . S
C3500 H3485 0.960 . S
C3500 H3486 0.960 . S
C3500 H3487 0.960 . S
C3500 C3499 1.524 . S
C3501 C3498 1.403 . S
C3501 C3502 1.392 . S
C3501 C3505 1.495 . S
C3502 C3501 1.392 . S
C3502 C3503 1.385 . S
C3502 C3504 1.478 . S
C3503 H3497 0.930 . S
C3503 C3499 1.400 . S
C3503 C3502 1.385 . S
C3504 C3502 1.478 . S
C3504 C3506 1.381 . S
C3504 C3510 1.383 . S
C3505 C3501 1.495 . S
C3505 H3511 0.959 . S
C3505 H3512 0.961 . S
C3505 H3513 0.960 . S
C3506 C3504 1.381 . S
C3506 C3507 1.394 . S
C3506 H3514 0.930 . S
C3507 C3506 1.394 . S
C3507 C3508 1.383 . S
C3507 H3515 0.929 . S
C3508 C3507 1.383 . S
C3508 C3509 1.377 . S
C3509 H3493 0.930 . S
C3509 C3508 1.377 . S
C3509 C3510 1.379 . S
C3510 H3494 0.931 . S
C3510 C3504 1.383 . S
C3510 C3509 1.379 . S
H3511 C3505 0.959 . S
H3512 C3505 0.961 . S
H3513 C3505 0.960 . S
H3514 C3506 0.930 . S
H3515 C3507 0.929 . S
H3516 C3524 0.929 . S
H3517 C3526 0.930 . S
H3518 C3528 0.930 . S
H3519 C3531 0.929 . S
H3520 C3534 0.930 . S
H3521 C3536 0.960 . S
H3522 C3536 0.960 . S
H3523 C3536 0.960 . S
C3524 H3516 0.929 . S
C3524 C3525 1.377 . S
C3524 C3526 1.384 . S
C3525 C3524 1.377 . S
C3525 C3531 1.390 . S
C3526 H3517 0.930 . S
C3526 C3524 1.384 . S
C3526 C3527 1.372 . S
C3527 C3526 1.372 . S
C3527 C3528 1.400 . S
C3527 C3532 1.490 . S
C3528 H3518 0.930 . S
C3528 C3527 1.400 . S
C3528 C3531 1.386 . S
H3529 C3545 0.930 . S
H3530 C3546 0.931 . S
C3531 H3519 0.929 . S
C3531 C3525 1.390 . S
C3531 C3528 1.386 . S
C3532 C3527 1.490 . S
C3532 C3534 1.395 . S
C3532 C3535 1.403 . S
H3533 C3539 0.930 . S
C3534 H3520 0.930 . S
C3534 C3532 1.395 . S
C3534 C3537 1.403 . S
C3535 C3532 1.403 . S
C3535 C3536 1.524 . S
C3535 C3539 1.400 . S
C3536 H3521 0.960 . S
C3536 H3522 0.960 . S
C3536 H3523 0.960 . S
C3536 C3535 1.524 . S
C3537 C3534 1.403 . S
C3537 C3538 1.392 . S
C3537 C3541 1.495 . S
C3538 C3537 1.392 . S
C3538 C3539 1.385 . S
C3538 C3540 1.478 . S
C3539 H3533 0.930 . S
C3539 C3535 1.400 . S
C3539 C3538 1.385 . S
C3540 C3538 1.478 . S
C3540 C3542 1.381 . S
C3540 C3546 1.383 . S
C3541 C3537 1.495 . S
C3541 H3547 0.959 . S
C3541 H3548 0.961 . S
C3541 H3549 0.960 . S
C3542 C3540 1.381 . S
C3542 C3543 1.394 . S
C3542 H3550 0.930 . S
C3543 C3542 1.394 . S
C3543 C3544 1.383 . S
C3543 H3551 0.929 . S
C3544 C3543 1.383 . S
C3544 C3545 1.377 . S
C3545 H3529 0.930 . S
C3545 C3544 1.377 . S
C3545 C3546 1.379 . S
C3546 H3530 0.931 . S
C3546 C3540 1.383 . S
C3546 C3545 1.379 . S
H3547 C3541 0.959 . S
H3548 C3541 0.961 . S
H3549 C3541 0.960 . S
H3550 C3542 0.930 . S
H3551 C3543 0.929 . S
H3552 C3560 0.929 . S
H3553 C3562 0.930 . S
H3554 C3564 0.930 . S
H3555 C3567 0.929 . S
H3556 C3570 0.930 . S
H3557 C3572 0.960 . S
H3558 C3572 0.960 . S
H3559 C3572 0.960 . S
C3560 H3552 0.929 . S
C3560 C3561 1.377 . S
C3560 C3562 1.384 . S
C3561 C3560 1.377 . S
C3561 C3567 1.390 . S
C3562 H3553 0.930 . S
C3562 C3560 1.384 . S
C3562 C3563 1.372 . S
C3563 C3562 1.372 . S
C3563 C3564 1.400 . S
C3563 C3568 1.490 . S
C3564 H3554 0.930 . S
C3564 C3563 1.400 . S
C3564 C3567 1.386 . S
H3565 C3581 0.930 . S
H3566 C3582 0.931 . S
C3567 H3555 0.929 . S
C3567 C3561 1.390 . S
C3567 C3564 1.386 . S
C3568 C3563 1.490 . S
C3568 C3570 1.395 . S
C3568 C3571 1.403 . S
H3569 C3575 0.930 . S
C3570 H3556 0.930 . S
C3570 C3568 1.395 . S
C3570 C3573 1.403 . S
C3571 C3568 1.403 . S
C3571 C3572 1.524 . S
C3571 C3575 1.400 . S
C3572 H3557 0.960 . S
C3572 H3558 0.960 . S
C3572 H3559 0.960 . S
C3572 C3571 1.524 . S
C3573 C3570 1.403 . S
C3573 C3574 1.392 . S
C3573 C3577 1.495 . S
C3574 C3573 1.392 . S
C3574 C3575 1.385 . S
C3574 C3576 1.478 . S
C3575 H3569 0.930 . S
C3575 C3571 1.400 . S
C3575 C3574 1.385 . S
C3576 C3574 1.478 . S
C3576 C3578 1.381 . S
C3576 C3582 1.383 . S
C3577 C3573 1.495 . S
C3577 H3583 0.959 . S
C3577 H3584 0.961 . S
C3577 H3585 0.960 . S
C3578 C3576 1.381 . S
C3578 C3579 1.394 . S
C3578 H3586 0.930 . S
C3579 C3578 1.394 . S
C3579 C3580 1.383 . S
C3579 H3587 0.929 . S
C3580 C3579 1.383 . S
C3580 C3581 1.377 . S
C3581 H3565 0.930 . S
C3581 C3580 1.377 . S
C3581 C3582 1.379 . S
C3582 H3566 0.931 . S
C3582 C3576 1.383 . S
C3582 C3581 1.379 . S
H3583 C3577 0.959 . S
H3584 C3577 0.961 . S
H3585 C3577 0.960 . S
H3586 C3578 0.930 . S
H3587 C3579 0.929 . S
H3588 C3596 0.929 . S
H3589 C3598 0.930 . S
H3590 C3600 0.930 . S
H3591 C3603 0.929 . S
H3592 C3606 0.930 . S
H3593 C3608 0.960 . S
H3594 C3608 0.960 . S
H3595 C3608 0.960 . S
C3596 H3588 0.929 . S
C3596 C3597 1.377 . S
C3596 C3598 1.384 . S
C3597 C3596 1.377 . S
C3597 C3603 1.390 . S
C3598 H3589 0.930 . S
C3598 C3596 1.384 . S
C3598 C3599 1.372 . S
C3599 C3598 1.372 . S
C3599 C3600 1.400 . S
C3599 C3604 1.490 . S
C3600 H3590 0.930 . S
C3600 C3599 1.400 . S
C3600 C3603 1.386 . S
H3601 C3617 0.930 . S
H3602 C3618 0.931 . S
C3603 H3591 0.929 . S
C3603 C3597 1.390 . S
C3603 C3600 1.386 . S
C3604 C3599 1.490 . S
C3604 C3606 1.395 . S
C3604 C3607 1.403 . S
H3605 C3611 0.930 . S
C3606 H3592 0.930 . S
C3606 C3604 1.395 . S
C3606 C3609 1.403 . S
C3607 C3604 1.403 . S
C3607 C3608 1.524 . S
C3607 C3611 1.400 . S
C3608 H3593 0.960 . S
C3608 H3594 0.960 . S
C3608 H3595 0.960 . S
C3608 C3607 1.524 . S
C3609 C3606 1.403 . S
C3609 C3610 1.392 . S
C3609 C3613 1.495 . S
C3610 C3609 1.392 . S
C3610 C3611 1.385 . S
C3610 C3612 1.478 . S
C3611 H3605 0.930 . S
C3611 C3607 1.400 . S
C3611 C3610 1.385 . S
C3612 C3610 1.478 . S
C3612 C3614 1.381 . S
C3612 C3618 1.383 . S
C3613 C3609 1.495 . S
C3613 H3619 0.959 . S
C3613 H3620 0.961 . S
C3613 H3621 0.960 . S
C3614 C3612 1.381 . S
C3614 C3615 1.394 . S
C3614 H3622 0.930 . S
C3615 C3614 1.394 . S
C3615 C3616 1.383 . S
C3615 H3623 0.929 . S
C3616 C3615 1.383 . S
C3616 C3617 1.377 . S
C3617 H3601 0.930 . S
C3617 C3616 1.377 . S
C3617 C3618 1.379 . S
C3618 H3602 0.931 . S
C3618 C3612 1.383 . S
C3618 C3617 1.379 . S
H3619 C3613 0.959 . S
H3620 C3613 0.961 . S
H3621 C3613 0.960 . S
H3622 C3614 0.930 . S
H3623 C3615 0.929 . S
H3624 C3632 0.929 . S
H3625 C3634 0.930 . S
H3626 C3636 0.930 . S
H3627 C3639 0.929 . S
H3628 C3642 0.930 . S
H3629 C3644 0.960 . S
H3630 C3644 0.960 . S
H3631 C3644 0.960 . S
C3632 H3624 0.929 . S
C3632 C3633 1.377 . S
C3632 C3634 1.384 . S
C3633 C3632 1.377 . S
C3633 C3639 1.390 . S
C3634 H3625 0.930 . S
C3634 C3632 1.384 . S
C3634 C3635 1.372 . S
C3635 C3634 1.372 . S
C3635 C3636 1.400 . S
C3635 C3640 1.490 . S
C3636 H3626 0.930 . S
C3636 C3635 1.400 . S
C3636 C3639 1.386 . S
H3637 C3653 0.930 . S
H3638 C3654 0.931 . S
C3639 H3627 0.929 . S
C3639 C3633 1.390 . S
C3639 C3636 1.386 . S
C3640 C3635 1.490 . S
C3640 C3642 1.395 . S
C3640 C3643 1.403 . S
H3641 C3647 0.930 . S
C3642 H3628 0.930 . S
C3642 C3640 1.395 . S
C3642 C3645 1.403 . S
C3643 C3640 1.403 . S
C3643 C3644 1.524 . S
C3643 C3647 1.400 . S
C3644 H3629 0.960 . S
C3644 H3630 0.960 . S
C3644 H3631 0.960 . S
C3644 C3643 1.524 . S
C3645 C3642 1.403 . S
C3645 C3646 1.392 . S
C3645 C3649 1.495 . S
C3646 C3645 1.392 . S
C3646 C3647 1.385 . S
C3646 C3648 1.478 . S
C3647 H3641 0.930 . S
C3647 C3643 1.400 . S
C3647 C3646 1.385 . S
C3648 C3646 1.478 . S
C3648 C3650 1.381 . S
C3648 C3654 1.383 . S
C3649 C3645 1.495 . S
C3649 H3655 0.959 . S
C3649 H3656 0.961 . S
C3649 H3657 0.960 . S
C3650 C3648 1.381 . S
C3650 C3651 1.394 . S
C3650 H3658 0.930 . S
C3651 C3650 1.394 . S
C3651 C3652 1.383 . S
C3651 H3659 0.929 . S
C3652 C3651 1.383 . S
C3652 C3653 1.377 . S
C3653 H3637 0.930 . S
C3653 C3652 1.377 . S
C3653 C3654 1.379 . S
C3654 H3638 0.931 . S
C3654 C3648 1.383 . S
C3654 C3653 1.379 . S
H3655 C3649 0.959 . S
H3656 C3649 0.961 . S
H3657 C3649 0.960 . S
H3658 C3650 0.930 . S
H3659 C3651 0.929 . S
H3660 C3668 0.929 . S
H3661 C3670 0.930 . S
H3662 C3672 0.930 . S
H3663 C3675 0.929 . S
H3664 C3678 0.930 . S
H3665 C3680 0.960 . S
H3666 C3680 0.960 . S
H3667 C3680 0.960 . S
C3668 H3660 0.929 . S
C3668 C3669 1.377 . S
C3668 C3670 1.384 . S
C3669 C3668 1.377 . S
C3669 C3675 1.390 . S
C3670 H3661 0.930 . S
C3670 C3668 1.384 . S
C3670 C3671 1.372 . S
C3671 C3670 1.372 . S
C3671 C3672 1.400 . S
C3671 C3676 1.490 . S
C3672 H3662 0.930 . S
C3672 C3671 1.400 . S
C3672 C3675 1.386 . S
H3673 C3689 0.930 . S
H3674 C3690 0.931 . S
C3675 H3663 0.929 . S
C3675 C3669 1.390 . S
C3675 C3672 1.386 . S
C3676 C3671 1.490 . S
C3676 C3678 1.395 . S
C3676 C3679 1.403 . S
H3677 C3683 0.930 . S
C3678 H3664 0.930 . S
C3678 C3676 1.395 . S
C3678 C3681 1.403 . S
C3679 C3676 1.403 . S
C3679 C3680 1.524 . S
C3679 C3683 1.400 . S
C3680 H3665 0.960 . S
C3680 H3666 0.960 . S
C3680 H3667 0.960 . S
C3680 C3679 1.524 . S
C3681 C3678 1.403 . S
C3681 C3682 1.392 . S
C3681 C3685 1.495 . S
C3682 C3681 1.392 . S
C3682 C3683 1.385 . S
C3682 C3684 1.478 . S
C3683 H3677 0.930 . S
C3683 C3679 1.400 . S
C3683 C3682 1.385 . S
C3684 C3682 1.478 . S
C3684 C3686 1.381 . S
C3684 C3690 1.383 . S
C3685 C3681 1.495 . S
C3685 H3691 0.959 . S
C3685 H3692 0.961 . S
C3685 H3693 0.960 . S
C3686 C3684 1.381 . S
C3686 C3687 1.394 . S
C3686 H3694 0.930 . S
C3687 C3686 1.394 . S
C3687 C3688 1.383 . S
C3687 H3695 0.929 . S
C3688 C3687 1.383 . S
C3688 C3689 1.377 . S
C3689 H3673 0.930 . S
C3689 C3688 1.377 . S
C3689 C3690 1.379 . S
C3690 H3674 0.931 . S
C3690 C3684 1.383 . S
C3690 C3689 1.379 . S
H3691 C3685 0.959 . S
H3692 C3685 0.961 . S
H3693 C3685 0.960 . S
H3694 C3686 0.930 . S
H3695 C3687 0.929 . S
H3696 C3704 0.929 . S
H3697 C3706 0.930 . S
H3698 C3708 0.930 . S
H3699 C3711 0.929 . S
H3700 C3714 0.930 . S
H3701 C3716 0.960 . S
H3702 C3716 0.960 . S
H3703 C3716 0.960 . S
C3704 H3696 0.929 . S
C3704 C3705 1.377 . S
C3704 C3706 1.384 . S
C3705 C3704 1.377 . S
C3705 C3711 1.390 . S
C3706 H3697 0.930 . S
C3706 C3704 1.384 . S
C3706 C3707 1.372 . S
C3707 C3706 1.372 . S
C3707 C3708 1.400 . S
C3707 C3712 1.490 . S
C3708 H3698 0.930 . S
C3708 C3707 1.400 . S
C3708 C3711 1.386 . S
H3709 C3725 0.930 . S
H3710 C3726 0.931 . S
C3711 H3699 0.929 . S
C3711 C3705 1.390 . S
C3711 C3708 1.386 . S
C3712 C3707 1.490 . S
C3712 C3714 1.395 . S
C3712 C3715 1.403 . S
H3713 C3719 0.930 . S
C3714 H3700 0.930 . S
C3714 C3712 1.395 . S
C3714 C3717 1.403 . S
C3715 C3712 1.403 . S
C3715 C3716 1.524 . S
C3715 C3719 1.400 . S
C3716 H3701 0.960 . S
C3716 H3702 0.960 . S
C3716 H3703 0.960 . S
C3716 C3715 1.524 . S
C3717 C3714 1.403 . S
C3717 C3718 1.392 . S
C3717 C3721 1.495 . S
C3718 C3717 1.392 . S
C3718 C3719 1.385 . S
C3718 C3720 1.478 . S
C3719 H3713 0.930 . S
C3719 C3715 1.400 . S
C3719 C3718 1.385 . S
C3720 C3718 1.478 . S
C3720 C3722 1.381 . S
C3720 C3726 1.383 . S
C3721 C3717 1.495 . S
C3721 H3727 0.959 . S
C3721 H3728 0.961 . S
C3721 H3729 0.960 . S
C3722 C3720 1.381 . S
C3722 C3723 1.394 . S
C3722 H3730 0.930 . S
C3723 C3722 1.394 . S
C3723 C3724 1.383 . S
C3723 H3731 0.929 . S
C3724 C3723 1.383 . S
C3724 C3725 1.377 . S
C3725 H3709 0.930 . S
C3725 C3724 1.377 . S
C3725 C3726 1.379 . S
C3726 H3710 0.931 . S
C3726 C3720 1.383 . S
C3726 C3725 1.379 . S
H3727 C3721 0.959 . S
H3728 C3721 0.961 . S
H3729 C3721 0.960 . S
H3730 C3722 0.930 . S
H3731 C3723 0.929 . S
H3732 C3740 0.929 . S
H3733 C3742 0.930 . S
H3734 C3744 0.930 . S
H3735 C3747 0.929 . S
H3736 C3750 0.930 . S
H3737 C3752 0.960 . S
H3738 C3752 0.960 . S
H3739 C3752 0.960 . S
C3740 H3732 0.929 . S
C3740 C3741 1.377 . S
C3740 C3742 1.384 . S
C3741 C3740 1.377 . S
C3741 C3747 1.390 . S
C3742 H3733 0.930 . S
C3742 C3740 1.384 . S
C3742 C3743 1.372 . S
C3743 C3742 1.372 . S
C3743 C3744 1.400 . S
C3743 C3748 1.490 . S
C3744 H3734 0.930 . S
C3744 C3743 1.400 . S
C3744 C3747 1.386 . S
H3745 C3761 0.930 . S
H3746 C3762 0.931 . S
C3747 H3735 0.929 . S
C3747 C3741 1.390 . S
C3747 C3744 1.386 . S
C3748 C3743 1.490 . S
C3748 C3750 1.395 . S
C3748 C3751 1.403 . S
H3749 C3755 0.930 . S
C3750 H3736 0.930 . S
C3750 C3748 1.395 . S
C3750 C3753 1.403 . S
C3751 C3748 1.403 . S
C3751 C3752 1.524 . S
C3751 C3755 1.400 . S
C3752 H3737 0.960 . S
C3752 H3738 0.960 . S
C3752 H3739 0.960 . S
C3752 C3751 1.524 . S
C3753 C3750 1.403 . S
C3753 C3754 1.392 . S
C3753 C3757 1.495 . S
C3754 C3753 1.392 . S
C3754 C3755 1.385 . S
C3754 C3756 1.478 . S
C3755 H3749 0.930 . S
C3755 C3751 1.400 . S
C3755 C3754 1.385 . S
C3756 C3754 1.478 . S
C3756 C3758 1.381 . S
C3756 C3762 1.383 . S
C3757 C3753 1.495 . S
C3757 H3763 0.959 . S
C3757 H3764 0.961 . S
C3757 H3765 0.960 . S
C3758 C3756 1.381 . S
C3758 C3759 1.394 . S
C3758 H3766 0.930 . S
C3759 C3758 1.394 . S
C3759 C3760 1.383 . S
C3759 H3767 0.929 . S
C3760 C3759 1.383 . S
C3760 C3761 1.377 . S
C3761 H3745 0.930 . S
C3761 C3760 1.377 . S
C3761 C3762 1.379 . S
C3762 H3746 0.931 . S
C3762 C3756 1.383 . S
C3762 C3761 1.379 . S
H3763 C3757 0.959 . S
H3764 C3757 0.961 . S
H3765 C3757 0.960 . S
H3766 C3758 0.930 . S
H3767 C3759 0.929 . S
H3768 C3776 0.929 . S
H3769 C3778 0.930 . S
H3770 C3780 0.930 . S
H3771 C3783 0.929 . S
H3772 C3786 0.930 . S
H3773 C3788 0.960 . S
H3774 C3788 0.960 . S
H3775 C3788 0.960 . S
C3776 H3768 0.929 . S
C3776 C3777 1.377 . S
C3776 C3778 1.384 . S
C3777 C3776 1.377 . S
C3777 C3783 1.390 . S
C3778 H3769 0.930 . S
C3778 C3776 1.384 . S
C3778 C3779 1.372 . S
C3779 C3778 1.372 . S
C3779 C3780 1.400 . S
C3779 C3784 1.490 . S
C3780 H3770 0.930 . S
C3780 C3779 1.400 . S
C3780 C3783 1.386 . S
H3781 C3797 0.930 . S
H3782 C3798 0.931 . S
C3783 H3771 0.929 . S
C3783 C3777 1.390 . S
C3783 C3780 1.386 . S
C3784 C3779 1.490 . S
C3784 C3786 1.395 . S
C3784 C3787 1.403 . S
H3785 C3791 0.930 . S
C3786 H3772 0.930 . S
C3786 C3784 1.395 . S
C3786 C3789 1.403 . S
C3787 C3784 1.403 . S
C3787 C3788 1.524 . S
C3787 C3791 1.400 . S
C3788 H3773 0.960 . S
C3788 H3774 0.960 . S
C3788 H3775 0.960 . S
C3788 C3787 1.524 . S
C3789 C3786 1.403 . S
C3789 C3790 1.392 . S
C3789 C3793 1.495 . S
C3790 C3789 1.392 . S
C3790 C3791 1.385 . S
C3790 C3792 1.478 . S
C3791 H3785 0.930 . S
C3791 C3787 1.400 . S
C3791 C3790 1.385 . S
C3792 C3790 1.478 . S
C3792 C3794 1.381 . S
C3792 C3798 1.383 . S
C3793 C3789 1.495 . S
C3793 H3799 0.959 . S
C3793 H3800 0.961 . S
C3793 H3801 0.960 . S
C3794 C3792 1.381 . S
C3794 C3795 1.394 . S
C3794 H3802 0.930 . S
C3795 C3794 1.394 . S
C3795 C3796 1.383 . S
C3795 H3803 0.929 . S
C3796 C3795 1.383 . S
C3796 C3797 1.377 . S
C3797 H3781 0.930 . S
C3797 C3796 1.377 . S
C3797 C3798 1.379 . S
C3798 H3782 0.931 . S
C3798 C3792 1.383 . S
C3798 C3797 1.379 . S
H3799 C3793 0.959 . S
H3800 C3793 0.961 . S
H3801 C3793 0.960 . S
H3802 C3794 0.930 . S
H3803 C3795 0.929 . S
H3804 C3812 0.929 . S
H3805 C3814 0.930 . S
H3806 C3816 0.930 . S
H3807 C3819 0.929 . S
H3808 C3822 0.930 . S
H3809 C3824 0.960 . S
H3810 C3824 0.960 . S
H3811 C3824 0.960 . S
C3812 H3804 0.929 . S
C3812 C3813 1.377 . S
C3812 C3814 1.384 . S
C3813 C3812 1.377 . S
C3813 C3819 1.390 . S
C3814 H3805 0.930 . S
C3814 C3812 1.384 . S
C3814 C3815 1.372 . S
C3815 C3814 1.372 . S
C3815 C3816 1.400 . S
C3815 C3820 1.490 . S
C3816 H3806 0.930 . S
C3816 C3815 1.400 . S
C3816 C3819 1.386 . S
H3817 C3833 0.930 . S
H3818 C3834 0.931 . S
C3819 H3807 0.929 . S
C3819 C3813 1.390 . S
C3819 C3816 1.386 . S
C3820 C3815 1.490 . S
C3820 C3822 1.395 . S
C3820 C3823 1.403 . S
H3821 C3827 0.930 . S
C3822 H3808 0.930 . S
C3822 C3820 1.395 . S
C3822 C3825 1.403 . S
C3823 C3820 1.403 . S
C3823 C3824 1.524 . S
C3823 C3827 1.400 . S
C3824 H3809 0.960 . S
C3824 H3810 0.960 . S
C3824 H3811 0.960 . S
C3824 C3823 1.524 . S
C3825 C3822 1.403 . S
C3825 C3826 1.392 . S
C3825 C3829 1.495 . S
C3826 C3825 1.392 . S
C3826 C3827 1.385 . S
C3826 C3828 1.478 . S
C3827 H3821 0.930 . S
C3827 C3823 1.400 . S
C3827 C3826 1.385 . S
C3828 C3826 1.478 . S
C3828 C3830 1.381 . S
C3828 C3834 1.383 . S
C3829 C3825 1.495 . S
C3829 H3835 0.959 . S
C3829 H3836 0.961 . S
C3829 H3837 0.960 . S
C3830 C3828 1.381 . S
C3830 C3831 1.394 . S
C3830 H3838 0.930 . S
C3831 C3830 1.394 . S
C3831 C3832 1.383 . S
C3831 H3839 0.929 . S
C3832 C3831 1.383 . S
C3832 C3833 1.377 . S
C3833 H3817 0.930 . S
C3833 C3832 1.377 . S
C3833 C3834 1.379 . S
C3834 H3818 0.931 . S
C3834 C3828 1.383 . S
C3834 C3833 1.379 . S
H3835 C3829 0.959 . S
H3836 C3829 0.961 . S
H3837 C3829 0.960 . S
H3838 C3830 0.930 . S
H3839 C3831 0.929 . S
H3840 C3848 0.929 . S
H3841 C3850 0.930 . S
H3842 C3852 0.930 . S
H3843 C3855 0.929 . S
H3844 C3858 0.930 . S
H3845 C3860 0.960 . S
H3846 C3860 0.960 . S
H3847 C3860 0.960 . S
C3848 H3840 0.929 . S
C3848 C3849 1.377 . S
C3848 C3850 1.384 . S
C3849 C3848 1.377 . S
C3849 C3855 1.390 . S
C3850 H3841 0.930 . S
C3850 C3848 1.384 . S
C3850 C3851 1.372 . S
C3851 C3850 1.372 . S
C3851 C3852 1.400 . S
C3851 C3856 1.490 . S
C3852 H3842 0.930 . S
C3852 C3851 1.400 . S
C3852 C3855 1.386 . S
H3853 C3869 0.930 . S
H3854 C3870 0.931 . S
C3855 H3843 0.929 . S
C3855 C3849 1.390 . S
C3855 C3852 1.386 . S
C3856 C3851 1.490 . S
C3856 C3858 1.395 . S
C3856 C3859 1.403 . S
H3857 C3863 0.930 . S
C3858 H3844 0.930 . S
C3858 C3856 1.395 . S
C3858 C3861 1.403 . S
C3859 C3856 1.403 . S
C3859 C3860 1.524 . S
C3859 C3863 1.400 . S
C3860 H3845 0.960 . S
C3860 H3846 0.960 . S
C3860 H3847 0.960 . S
C3860 C3859 1.524 . S
C3861 C3858 1.403 . S
C3861 C3862 1.392 . S
C3861 C3865 1.495 . S
C3862 C3861 1.392 . S
C3862 C3863 1.385 . S
C3862 C3864 1.478 . S
C3863 H3857 0.930 . S
C3863 C3859 1.400 . S
C3863 C3862 1.385 . S
C3864 C3862 1.478 . S
C3864 C3866 1.381 . S
C3864 C3870 1.383 . S
C3865 C3861 1.495 . S
C3865 H3871 0.959 . S
C3865 H3872 0.961 . S
C3865 H3873 0.960 . S
C3866 C3864 1.381 . S
C3866 C3867 1.394 . S
C3866 H3874 0.930 . S
C3867 C3866 1.394 . S
C3867 C3868 1.383 . S
C3867 H3875 0.929 . S
C3868 C3867 1.383 . S
C3868 C3869 1.377 . S
C3869 H3853 0.930 . S
C3869 C3868 1.377 . S
C3869 C3870 1.379 . S
C3870 H3854 0.931 . S
C3870 C3864 1.383 . S
C3870 C3869 1.379 . S
H3871 C3865 0.959 . S
H3872 C3865 0.961 . S
H3873 C3865 0.960 . S
H3874 C3866 0.930 . S
H3875 C3867 0.929 . S
H3876 C3884 0.929 . S
H3877 C3886 0.930 . S
H3878 C3888 0.930 . S
H3879 C3891 0.929 . S
H3880 C3894 0.930 . S
H3881 C3896 0.960 . S
H3882 C3896 0.960 . S
H3883 C3896 0.960 . S
C3884 H3876 0.929 . S
C3884 C3885 1.377 . S
C3884 C3886 1.384 . S
C3885 C3884 1.377 . S
C3885 C3891 1.390 . S
C3886 H3877 0.930 . S
C3886 C3884 1.384 . S
C3886 C3887 1.372 . S
C3887 C3886 1.372 . S
C3887 C3888 1.400 . S
C3887 C3892 1.490 . S
C3888 H3878 0.930 . S
C3888 C3887 1.400 . S
C3888 C3891 1.386 . S
H3889 C3905 0.930 . S
H3890 C3906 0.931 . S
C3891 H3879 0.929 . S
C3891 C3885 1.390 . S
C3891 C3888 1.386 . S
C3892 C3887 1.490 . S
C3892 C3894 1.395 . S
C3892 C3895 1.403 . S
H3893 C3899 0.930 . S
C3894 H3880 0.930 . S
C3894 C3892 1.395 . S
C3894 C3897 1.403 . S
C3895 C3892 1.403 . S
C3895 C3896 1.524 . S
C3895 C3899 1.400 . S
C3896 H3881 0.960 . S
C3896 H3882 0.960 . S
C3896 H3883 0.960 . S
C3896 C3895 1.524 . S
C3897 C3894 1.403 . S
C3897 C3898 1.392 . S
C3897 C3901 1.495 . S
C3898 C3897 1.392 . S
C3898 C3899 1.385 . S
C3898 C3900 1.478 . S
C3899 H3893 0.930 . S
C3899 C3895 1.400 . S
C3899 C3898 1.385 . S
C3900 C3898 1.478 . S
C3900 C3902 1.381 . S
C3900 C3906 1.383 . S
C3901 C3897 1.495 . S
C3901 H3907 0.959 . S
C3901 H3908 0.961 . S
C3901 H3909 0.960 . S
C3902 C3900 1.381 . S
C3902 C3903 1.394 . S
C3902 H3910 0.930 . S
C3903 C3902 1.394 . S
C3903 C3904 1.383 . S
C3903 H3911 0.929 . S
C3904 C3903 1.383 . S
C3904 C3905 1.377 . S
C3905 H3889 0.930 . S
C3905 C3904 1.377 . S
C3905 C3906 1.379 . S
C3906 H3890 0.931 . S
C3906 C3900 1.383 . S
C3906 C3905 1.379 . S
H3907 C3901 0.959 . S
H3908 C3901 0.961 . S
H3909 C3901 0.960 . S
H3910 C3902 0.930 . S
H3911 C3903 0.929 . S
H3912 C3920 0.929 . S
H3913 C3922 0.930 . S
H3914 C3924 0.930 . S
H3915 C3927 0.929 . S
H3916 C3930 0.930 . S
H3917 C3932 0.960 . S
H3918 C3932 0.960 . S
H3919 C3932 0.960 . S
C3920 H3912 0.929 . S
C3920 C3921 1.377 . S
C3920 C3922 1.384 . S
C3921 C3920 1.377 . S
C3921 C3927 1.390 . S
C3922 H3913 0.930 . S
C3922 C3920 1.384 . S
C3922 C3923 1.372 . S
C3923 C3922 1.372 . S
C3923 C3924 1.400 . S
C3923 C3928 1.490 . S
C3924 H3914 0.930 . S
C3924 C3923 1.400 . S
C3924 C3927 1.386 . S
H3925 C3941 0.930 . S
H3926 C3942 0.931 . S
C3927 H3915 0.929 . S
C3927 C3921 1.390 . S
C3927 C3924 1.386 . S
C3928 C3923 1.490 . S
C3928 C3930 1.395 . S
C3928 C3931 1.403 . S
H3929 C3935 0.930 . S
C3930 H3916 0.930 . S
C3930 C3928 1.395 . S
C3930 C3933 1.403 . S
C3931 C3928 1.403 . S
C3931 C3932 1.524 . S
C3931 C3935 1.400 . S
C3932 H3917 0.960 . S
C3932 H3918 0.960 . S
C3932 H3919 0.960 . S
C3932 C3931 1.524 . S
C3933 C3930 1.403 . S
C3933 C3934 1.392 . S
C3933 C3937 1.495 . S
C3934 C3933 1.392 . S
C3934 C3935 1.385 . S
C3934 C3936 1.478 . S
C3935 H3929 0.930 . S
C3935 C3931 1.400 . S
C3935 C3934 1.385 . S
C3936 C3934 1.478 . S
C3936 C3938 1.381 . S
C3936 C3942 1.383 . S
C3937 C3933 1.495 . S
C3937 H3943 0.959 . S
C3937 H3944 0.961 . S
C3937 H3945 0.960 . S
C3938 C3936 1.381 . S
C3938 C3939 1.394 . S
C3938 H3946 0.930 . S
C3939 C3938 1.394 . S
C3939 C3940 1.383 . S
C3939 H3947 0.929 . S
C3940 C3939 1.383 . S
C3940 C3941 1.377 . S
C3941 H3925 0.930 . S
C3941 C3940 1.377 . S
C3941 C3942 1.379 . S
C3942 H3926 0.931 . S
C3942 C3936 1.383 . S
C3942 C3941 1.379 . S
H3943 C3937 0.959 . S
H3944 C3937 0.961 . S
H3945 C3937 0.960 . S
H3946 C3938 0.930 . S
H3947 C3939 0.929 . S
H3948 C3956 0.929 . S
H3949 C3958 0.930 . S
H3950 C3960 0.930 . S
H3951 C3963 0.929 . S
H3952 C3966 0.930 . S
H3953 C3968 0.960 . S
H3954 C3968 0.960 . S
H3955 C3968 0.960 . S
C3956 H3948 0.929 . S
C3956 C3957 1.377 . S
C3956 C3958 1.384 . S
C3957 C3956 1.377 . S
C3957 C3963 1.390 . S
C3958 H3949 0.930 . S
C3958 C3956 1.384 . S
C3958 C3959 1.372 . S
C3959 C3958 1.372 . S
C3959 C3960 1.400 . S
C3959 C3964 1.490 . S
C3960 H3950 0.930 . S
C3960 C3959 1.400 . S
C3960 C3963 1.386 . S
H3961 C3977 0.930 . S
H3962 C3978 0.931 . S
C3963 H3951 0.929 . S
C3963 C3957 1.390 . S
C3963 C3960 1.386 . S
C3964 C3959 1.490 . S
C3964 C3966 1.395 . S
C3964 C3967 1.403 . S
H3965 C3971 0.930 . S
C3966 H3952 0.930 . S
C3966 C3964 1.395 . S
C3966 C3969 1.403 . S
C3967 C3964 1.403 . S
C3967 C3968 1.524 . S
C3967 C3971 1.400 . S
C3968 H3953 0.960 . S
C3968 H3954 0.960 . S
C3968 H3955 0.960 . S
C3968 C3967 1.524 . S
C3969 C3966 1.403 . S
C3969 C3970 1.392 . S
C3969 C3973 1.495 . S
C3970 C3969 1.392 . S
C3970 C3971 1.385 . S
C3970 C3972 1.478 . S
C3971 H3965 0.930 . S
C3971 C3967 1.400 . S
C3971 C3970 1.385 . S
C3972 C3970 1.478 . S
C3972 C3974 1.381 . S
C3972 C3978 1.383 . S
C3973 C3969 1.495 . S
C3973 H3979 0.959 . S
C3973 H3980 0.961 . S
C3973 H3981 0.960 . S
C3974 C3972 1.381 . S
C3974 C3975 1.394 . S
C3974 H3982 0.930 . S
C3975 C3974 1.394 . S
C3975 C3976 1.383 . S
C3975 H3983 0.929 . S
C3976 C3975 1.383 . S
C3976 C3977 1.377 . S
C3977 H3961 0.930 . S
C3977 C3976 1.377 . S
C3977 C3978 1.379 . S
C3978 H3962 0.931 . S
C3978 C3972 1.383 . S
C3978 C3977 1.379 . S
H3979 C3973 0.959 . S
H3980 C3973 0.961 . S
H3981 C3973 0.960 . S
H3982 C3974 0.930 . S
H3983 C3975 0.929 . S
H3984 C3992 0.929 . S
H3985 C3994 0.930 . S
H3986 C3996 0.930 . S
H3987 C3999 0.929 . S
H3988 C4002 0.930 . S
H3989 C4004 0.960 . S
H3990 C4004 0.960 . S
H3991 C4004 0.960 . S
C3992 H3984 0.929 . S
C3992 C3993 1.377 . S
C3992 C3994 1.384 . S
C3993 C3992 1.377 . S
C3993 C3999 1.390 . S
C3994 H3985 0.930 . S
C3994 C3992 1.384 . S
C3994 C3995 1.372 . S
C3995 C3994 1.372 . S
C3995 C3996 1.400 . S
C3995 C4000 1.490 . S
C3996 H3986 0.930 . S
C3996 C3995 1.400 . S
C3996 C3999 1.386 . S
H3997 C4013 0.930 . S
H3998 C4014 0.931 . S
C3999 H3987 0.929 . S
C3999 C3993 1.390 . S
C3999 C3996 1.386 . S
C4000 C3995 1.490 . S
C4000 C4002 1.395 . S
C4000 C4003 1.403 . S
H4001 C4007 0.930 . S
C4002 H3988 0.930 . S
C4002 C4000 1.395 . S
C4002 C4005 1.403 . S
C4003 C4000 1.403 . S
C4003 C4004 1.524 . S
C4003 C4007 1.400 . S
C4004 H3989 0.960 . S
C4004 H3990 0.960 . S
C4004 H3991 0.960 . S
C4004 C4003 1.524 . S
C4005 C4002 1.403 . S
C4005 C4006 1.392 . S
C4005 C4009 1.495 . S
C4006 C4005 1.392 . S
C4006 C4007 1.385 . S
C4006 C4008 1.478 . S
C4007 H4001 0.930 . S
C4007 C4003 1.400 . S
C4007 C4006 1.385 . S
C4008 C4006 1.478 . S
C4008 C4010 1.381 . S
C4008 C4014 1.383 . S
C4009 C4005 1.495 . S
C4009 H4015 0.959 . S
C4009 H4016 0.961 . S
C4009 H4017 0.960 . S
C4010 C4008 1.381 . S
C4010 C4011 1.394 . S
C4010 H4018 0.930 . S
C4011 C4010 1.394 . S
C4011 C4012 1.383 . S
C4011 H4019 0.929 . S
C4012 C4011 1.383 . S
C4012 C4013 1.377 . S
C4013 H3997 0.930 . S
C4013 C4012 1.377 . S
C4013 C4014 1.379 . S
C4014 H3998 0.931 . S
C4014 C4008 1.383 . S
C4014 C4013 1.379 . S
H4015 C4009 0.959 . S
H4016 C4009 0.961 . S
H4017 C4009 0.960 . S
H4018 C4010 0.930 . S
H4019 C4011 0.929 . S
H4020 C4028 0.929 . S
H4021 C4030 0.930 . S
H4022 C4032 0.930 . S
H4023 C4035 0.929 . S
H4024 C4038 0.930 . S
H4025 C4040 0.960 . S
H4026 C4040 0.960 . S
H4027 C4040 0.960 . S
C4028 H4020 0.929 . S
C4028 C4029 1.377 . S
C4028 C4030 1.384 . S
C4029 C4028 1.377 . S
C4029 C4035 1.390 . S
C4030 H4021 0.930 . S
C4030 C4028 1.384 . S
C4030 C4031 1.372 . S
C4031 C4030 1.372 . S
C4031 C4032 1.400 . S
C4031 C4036 1.490 . S
C4032 H4022 0.930 . S
C4032 C4031 1.400 . S
C4032 C4035 1.386 . S
H4033 C4049 0.930 . S
H4034 C4050 0.931 . S
C4035 H4023 0.929 . S
C4035 C4029 1.390 . S
C4035 C4032 1.386 . S
C4036 C4031 1.490 . S
C4036 C4038 1.395 . S
C4036 C4039 1.403 . S
H4037 C4043 0.930 . S
C4038 H4024 0.930 . S
C4038 C4036 1.395 . S
C4038 C4041 1.403 . S
C4039 C4036 1.403 . S
C4039 C4040 1.524 . S
C4039 C4043 1.400 . S
C4040 H4025 0.960 . S
C4040 H4026 0.960 . S
C4040 H4027 0.960 . S
C4040 C4039 1.524 . S
C4041 C4038 1.403 . S
C4041 C4042 1.392 . S
C4041 C4045 1.495 . S
C4042 C4041 1.392 . S
C4042 C4043 1.385 . S
C4042 C4044 1.478 . S
C4043 H4037 0.930 . S
C4043 C4039 1.400 . S
C4043 C4042 1.385 . S
C4044 C4042 1.478 . S
C4044 C4046 1.381 . S
C4044 C4050 1.383 . S
C4045 C4041 1.495 . S
C4045 H4051 0.959 . S
C4045 H4052 0.961 . S
C4045 H4053 0.960 . S
C4046 C4044 1.381 . S
C4046 C4047 1.394 . S
C4046 H4054 0.930 . S
C4047 C4046 1.394 . S
C4047 C4048 1.383 . S
C4047 H4055 0.929 . S
C4048 C4047 1.383 . S
C4048 C4049 1.377 . S
C4049 H4033 0.930 . S
C4049 C4048 1.377 . S
C4049 C4050 1.379 . S
C4050 H4034 0.931 . S
C4050 C4044 1.383 . S
C4050 C4049 1.379 . S
H4051 C4045 0.959 . S
H4052 C4045 0.961 . S
H4053 C4045 0.960 . S
H4054 C4046 0.930 . S
H4055 C4047 0.929 . S
H4056 C4064 0.929 . S
H4057 C4066 0.930 . S
H4058 C4068 0.930 . S
H4059 C4071 0.929 . S
H4060 C4074 0.930 . S
H4061 C4076 0.960 . S
H4062 C4076 0.960 . S
H4063 C4076 0.960 . S
C4064 H4056 0.929 . S
C4064 C4065 1.377 . S
C4064 C4066 1.384 . S
C4065 C4064 1.377 . S
C4065 C4071 1.390 . S
C4066 H4057 0.930 . S
C4066 C4064 1.384 . S
C4066 C4067 1.372 . S
C4067 C4066 1.372 . S
C4067 C4068 1.400 . S
C4067 C4072 1.490 . S
C4068 H4058 0.930 . S
C4068 C4067 1.400 . S
C4068 C4071 1.386 . S
H4069 C4085 0.930 . S
H4070 C4086 0.931 . S
C4071 H4059 0.929 . S
C4071 C4065 1.390 . S
C4071 C4068 1.386 . S
C4072 C4067 1.490 . S
C4072 C4074 1.395 . S
C4072 C4075 1.403 . S
H4073 C4079 0.930 . S
C4074 H4060 0.930 . S
C4074 C4072 1.395 . S
C4074 C4077 1.403 . S
C4075 C4072 1.403 . S
C4075 C4076 1.524 . S
C4075 C4079 1.400 . S
C4076 H4061 0.960 . S
C4076 H4062 0.960 . S
C4076 H4063 0.960 . S
C4076 C4075 1.524 . S
C4077 C4074 1.403 . S
C4077 C4078 1.392 . S
C4077 C4081 1.495 . S
C4078 C4077 1.392 . S
C4078 C4079 1.385 . S
C4078 C4080 1.478 . S
C4079 H4073 0.930 . S
C4079 C4075 1.400 . S
C4079 C4078 1.385 . S
C4080 C4078 1.478 . S
C4080 C4082 1.381 . S
C4080 C4086 1.383 . S
C4081 C4077 1.495 . S
C4081 H4087 0.959 . S
C4081 H4088 0.961 . S
C4081 H4089 0.960 . S
C4082 C4080 1.381 . S
C4082 C4083 1.394 . S
C4082 H4090 0.930 . S
C4083 C4082 1.394 . S
C4083 C4084 1.383 . S
C4083 H4091 0.929 . S
C4084 C4083 1.383 . S
C4084 C4085 1.377 . S
C4085 H4069 0.930 . S
C4085 C4084 1.377 . S
C4085 C4086 1.379 . S
C4086 H4070 0.931 . S
C4086 C4080 1.383 . S
C4086 C4085 1.379 . S
H4087 C4081 0.959 . S
H4088 C4081 0.961 . S
H4089 C4081 0.960 . S
H4090 C4082 0.930 . S
H4091 C4083 0.929 . S
H4092 C4100 0.929 . S
H4093 C4102 0.930 . S
H4094 C4104 0.930 . S
H4095 C4107 0.929 . S
H4096 C4110 0.930 . S
H4097 C4112 0.960 . S
H4098 C4112 0.960 . S
H4099 C4112 0.960 . S
C4100 H4092 0.929 . S
C4100 C4101 1.377 . S
C4100 C4102 1.384 . S
C4101 C4100 1.377 . S
C4101 C4107 1.390 . S
C4102 H4093 0.930 . S
C4102 C4100 1.384 . S
C4102 C4103 1.372 . S
C4103 C4102 1.372 . S
C4103 C4104 1.400 . S
C4103 C4108 1.490 . S
C4104 H4094 0.930 . S
C4104 C4103 1.400 . S
C4104 C4107 1.386 . S
H4105 C4121 0.930 . S
H4106 C4122 0.931 . S
C4107 H4095 0.929 . S
C4107 C4101 1.390 . S
C4107 C4104 1.386 . S
C4108 C4103 1.490 . S
C4108 C4110 1.395 . S
C4108 C4111 1.403 . S
H4109 C4115 0.930 . S
C4110 H4096 0.930 . S
C4110 C4108 1.395 . S
C4110 C4113 1.403 . S
C4111 C4108 1.403 . S
C4111 C4112 1.524 . S
C4111 C4115 1.400 . S
C4112 H4097 0.960 . S
C4112 H4098 0.960 . S
C4112 H4099 0.960 . S
C4112 C4111 1.524 . S
C4113 C4110 1.403 . S
C4113 C4114 1.392 . S
C4113 C4117 1.495 . S
C4114 C4113 1.392 . S
C4114 C4115 1.385 . S
C4114 C4116 1.478 . S
C4115 H4109 0.930 . S
C4115 C4111 1.400 . S
C4115 C4114 1.385 . S
C4116 C4114 1.478 . S
C4116 C4118 1.381 . S
C4116 C4122 1.383 . S
C4117 C4113 1.495 . S
C4117 H4123 0.959 . S
C4117 H4124 0.961 . S
C4117 H4125 0.960 . S
C4118 C4116 1.381 . S
C4118 C4119 1.394 . S
C4118 H4126 0.930 . S
C4119 C4118 1.394 . S
C4119 C4120 1.383 . S
C4119 H4127 0.929 . S
C4120 C4119 1.383 . S
C4120 C4121 1.377 . S
C4121 H4105 0.930 . S
C4121 C4120 1.377 . S
C4121 C4122 1.379 . S
C4122 H4106 0.931 . S
C4122 C4116 1.383 . S
C4122 C4121 1.379 . S
H4123 C4117 0.959 . S
H4124 C4117 0.961 . S
H4125 C4117 0.960 . S
H4126 C4118 0.930 . S
H4127 C4119 0.929 . S
C681 C291 0.862 . S
C700 C4 0.809 . S
C717 C18 0.959 . S
C736 C242 0.921 . S
C753 C32 0.856 . S
C772 C263 0.817 . S
C789 C270 0.950 . S
C808 C46 0.987 . S
C825 C333 0.686 . S
C844 C67 0.724 . S
C861 C74 1.068 . S
C880 C298 1.107 . S
C897 C95 0.690 . S
C916 C319 0.710 . S
C933 C102 1.067 . S
C952 C228 1.096 . S
C969 C123 0.740 . S
C988 C214 0.794 . S
C1005 C137 0.789 . S
C1024 C179 0.813 . S
C1041 C151 0.754 . S
C1060 C186 0.694 . S
C1077 C207 0.788 . S
C1096 C165 0.774 . S
C1113 C347 0.885 . S
C1132 C627 0.914 . S
C1149 C578 0.949 . S
C1168 C354 0.946 . S
C1185 C375 0.885 . S
C1204 C599 0.914 . S
C1221 C606 0.950 . S
C1240 C382 0.962 . S
C1257 C396 0.806 . S
C1276 C669 0.775 . S
C1293 C634 1.082 . S
C1312 C410 1.068 . S
C1329 C424 0.806 . S
C1348 C655 0.775 . S
C1365 C564 1.097 . S
C1384 C438 1.112 . S
C1401 C459 0.872 . S
C1420 C557 0.860 . S
C1437 C515 0.834 . S
C1456 C466 0.808 . S
C1473 C529 0.874 . S
C1492 C487 0.869 . S
C1509 C543 0.848 . S
C1528 C494 0.848 . S
C1545 C368 0.639 . S
C1564 C11 0.672 . S
C1581 C25 0.706 . S
C1600 C389 0.755 . S
C1617 C39 0.628 . S
C1636 C340 0.699 . S
C1653 C53 0.718 . S
C1672 C361 0.688 . S
C1689 C60 0.659 . S
C1708 C431 0.660 . S
C1725 C445 0.697 . S
C1744 C81 0.732 . S
C1761 C403 0.649 . S
C1780 C88 0.599 . S
C1797 C417 0.698 . S
C1816 C109 0.673 . S
C1833 C508 0.846 . S
C1852 C116 0.881 . S
C1869 C130 0.647 . S
C1888 C522 0.679 . S
C1905 C536 0.834 . S
C1924 C144 0.817 . S
C1941 C158 0.653 . S
C1960 C550 0.701 . S
C1977 C172 0.845 . S
C1996 C452 0.864 . S
C2013 C193 0.645 . S
C2032 C473 0.683 . S
C2049 C480 0.851 . S
C2068 C200 0.875 . S
C2085 C501 0.650 . S
C2104 C221 0.641 . S
C2121 C235 0.716 . S
C2140 C613 0.703 . S
C2157 C249 0.735 . S
C2176 C641 0.737 . S
C2193 C648 0.848 . S
C2212 C256 0.818 . S
C2229 C571 0.742 . S
C2248 C277 0.709 . S
C2265 C284 0.848 . S
C2284 C662 0.846 . S
C2301 C585 0.705 . S
C2320 C305 0.694 . S
C2337 C312 0.848 . S
C2356 C592 0.883 . S
C2373 C326 0.848 . S
C2392 C620 0.884 . S
C2409 C397 1.405 . S
C2428 C12 1.496 . S
C2445 C411 1.452 . S
C2464 C26 1.559 . S
C2481 C425 1.411 . S
C2500 C40 1.482 . S
C2517 C54 1.583 . S
C2536 C439 1.489 . S
C2553 C348 1.501 . S
C2572 C61 1.375 . S
C2589 C355 1.496 . S
C2608 C82 1.622 . S
C2625 C89 1.370 . S
C2644 C376 1.512 . S
C2661 C383 1.497 . S
C2680 C110 1.605 . S
C2697 C117 1.408 . S
C2716 C544 1.542 . S
C2733 C131 1.388 . S
C2752 C558 1.473 . S
C2769 C516 1.552 . S
C2788 C145 1.356 . S
C2805 C159 1.380 . S
C2824 C530 1.513 . S
C2841 C488 1.468 . S
C2860 C173 1.385 . S
C2877 C194 1.487 . S
C2896 C495 1.425 . S
C2913 C201 1.340 . S
C2932 C460 1.489 . S
C2949 C222 1.496 . S
C2968 C467 1.340 . S
C2985 C635 1.426 . S
C3004 C236 1.552 . S
C3021 C250 1.600 . S
C3040 C607 1.479 . S
C3057 C257 1.340 . S
C3076 C628 1.446 . S
C3093 C278 1.603 . S
C3112 C579 1.461 . S
C3129 C600 1.467 . S
C3148 C285 1.335 . S
C3165 C565 1.434 . S
C3184 C306 1.519 . S
C3201 C670 1.582 . S
C3220 C313 1.432 . S
C3237 C327 1.454 . S
C3256 C656 1.567 . S
C3273 C215 1.434 . S
C3292 C5 1.385 . S
C3309 C19 1.559 . S
C3328 C180 1.593 . S
C3345 C187 1.441 . S
C3364 C33 1.414 . S
C3381 C208 1.581 . S
C3400 C47 1.585 . S
C3417 C138 1.513 . S
C3436 C68 1.499 . S
C3453 C75 1.265 . S
C3472 C152 1.336 . S
C3489 C96 1.520 . S
C3508 C166 1.553 . S
C3525 C124 1.378 . S
C3544 C103 1.304 . S
C3561 C229 1.398 . S
C3580 C292 1.482 . S
C3597 C334 1.447 . S
C3616 C243 1.383 . S
C3633 C299 1.405 . S
C3652 C264 1.506 . S
C3669 C271 1.418 . S
C3688 C320 1.415 . S
C3705 C551 1.407 . S
C3724 C341 1.479 . S
C3741 C509 1.509 . S
C3760 C362 1.522 . S
C3777 C369 1.457 . S
C3796 C523 1.449 . S
C3813 C537 1.517 . S
C3832 C390 1.545 . S
C3849 C474 1.537 . S
C3868 C404 1.565 . S
C3885 C418 1.474 . S
C3904 C481 1.350 . S
C3921 C432 1.534 . S
C3940 C502 1.499 . S
C3957 C446 1.474 . S
C3976 C453 1.339 . S
C3993 C572 1.515 . S
C4012 C621 1.430 . S
C4029 C663 1.441 . S
C4048 C586 1.482 . S
C4065 C642 1.520 . S
C4084 C593 1.462 . S
C4101 C649 1.442 . S
C4120 C614 1.475 . S
