# Generated by pormake.
# Topology wkf, (6)-cn, num edge types: 1
# Building blocks:
#     Node 0, Type 0, BuildingBlock: KUMBOL_clean_sbu_1, # of connection points: 6
#     Node 1, Type 0, BuildingBlock: KUMBOL_clean_sbu_1, # of connection points: 6
#     Node 2, Type 0, BuildingBlock: KUMBOL_clean_sbu_1, # of connection points: 6
#     Node 3, Type 0, BuildingBlock: KUMBOL_clean_sbu_1, # of connection points: 6
#     Node 4, Type 0, BuildingBlock: KUMBOL_clean_sbu_1, # of connection points: 6
#     Node 5, Type 0, BuildingBlock: KUMBOL_clean_sbu_1, # of connection points: 6
#     Node 6, Type 0, BuildingBlock: KUMBOL_clean_sbu_1, # of connection points: 6
#     Node 7, Type 0, BuildingBlock: KUMBOL_clean_sbu_1, # of connection points: 6
#     Node 8, Type 0, BuildingBlock: KUMBOL_clean_sbu_1, # of connection points: 6
#     Node 9, Type 0, BuildingBlock: KUMBOL_clean_sbu_1, # of connection points: 6
#     Node 10, Type 0, BuildingBlock: KUMBOL_clean_sbu_1, # of connection points: 6
#     Node 11, Type 0, BuildingBlock: KUMBOL_clean_sbu_1, # of connection points: 6
#     Edge 12, Type (0, 0), BuildingBlock: ZUJKAS_clean_linker_0, # of connection points: 2
#     Edge 13, Type (0, 0), BuildingBlock: ZUJKAS_clean_linker_0, # of connection points: 2
#     Edge 14, Type (0, 0), BuildingBlock: ZUJKAS_clean_linker_0, # of connection points: 2
#     Edge 15, Type (0, 0), BuildingBlock: ZUJKAS_clean_linker_0, # of connection points: 2
#     Edge 16, Type (0, 0), BuildingBlock: ZUJKAS_clean_linker_0, # of connection points: 2
#     Edge 17, Type (0, 0), BuildingBlock: ZUJKAS_clean_linker_0, # of connection points: 2
#     Edge 18, Type (0, 0), BuildingBlock: ZUJKAS_clean_linker_0, # of connection points: 2
#     Edge 19, Type (0, 0), BuildingBlock: ZUJKAS_clean_linker_0, # of connection points: 2
#     Edge 20, Type (0, 0), BuildingBlock: ZUJKAS_clean_linker_0, # of connection points: 2
#     Edge 21, Type (0, 0), BuildingBlock: ZUJKAS_clean_linker_0, # of connection points: 2
#     Edge 22, Type (0, 0), BuildingBlock: ZUJKAS_clean_linker_0, # of connection points: 2
#     Edge 23, Type (0, 0), BuildingBlock: ZUJKAS_clean_linker_0, # of connection points: 2
#     Edge 24, Type (0, 0), BuildingBlock: ZUJKAS_clean_linker_0, # of connection points: 2
#     Edge 25, Type (0, 0), BuildingBlock: ZUJKAS_clean_linker_0, # of connection points: 2
#     Edge 26, Type (0, 0), BuildingBlock: ZUJKAS_clean_linker_0, # of connection points: 2
#     Edge 27, Type (0, 0), BuildingBlock: ZUJKAS_clean_linker_0, # of connection points: 2
#     Edge 28, Type (0, 0), BuildingBlock: ZUJKAS_clean_linker_0, # of connection points: 2
#     Edge 29, Type (0, 0), BuildingBlock: ZUJKAS_clean_linker_0, # of connection points: 2
#     Edge 30, Type (0, 0), BuildingBlock: ZUJKAS_clean_linker_0, # of connection points: 2
#     Edge 31, Type (0, 0), BuildingBlock: ZUJKAS_clean_linker_0, # of connection points: 2
#     Edge 32, Type (0, 0), BuildingBlock: ZUJKAS_clean_linker_0, # of connection points: 2
#     Edge 33, Type (0, 0), BuildingBlock: ZUJKAS_clean_linker_0, # of connection points: 2
#     Edge 34, Type (0, 0), BuildingBlock: ZUJKAS_clean_linker_0, # of connection points: 2
#     Edge 35, Type (0, 0), BuildingBlock: ZUJKAS_clean_linker_0, # of connection points: 2
#     Edge 36, Type (0, 0), BuildingBlock: ZUJKAS_clean_linker_0, # of connection points: 2
#     Edge 37, Type (0, 0), BuildingBlock: ZUJKAS_clean_linker_0, # of connection points: 2
#     Edge 38, Type (0, 0), BuildingBlock: ZUJKAS_clean_linker_0, # of connection points: 2
#     Edge 39, Type (0, 0), BuildingBlock: ZUJKAS_clean_linker_0, # of connection points: 2
#     Edge 40, Type (0, 0), BuildingBlock: ZUJKAS_clean_linker_0, # of connection points: 2
#     Edge 41, Type (0, 0), BuildingBlock: ZUJKAS_clean_linker_0, # of connection points: 2
#     Edge 42, Type (0, 0), BuildingBlock: ZUJKAS_clean_linker_0, # of connection points: 2
#     Edge 43, Type (0, 0), BuildingBlock: ZUJKAS_clean_linker_0, # of connection points: 2
#     Edge 44, Type (0, 0), BuildingBlock: ZUJKAS_clean_linker_0, # of connection points: 2
#     Edge 45, Type (0, 0), BuildingBlock: ZUJKAS_clean_linker_0, # of connection points: 2
#     Edge 46, Type (0, 0), BuildingBlock: ZUJKAS_clean_linker_0, # of connection points: 2
#     Edge 47, Type (0, 0), BuildingBlock: ZUJKAS_clean_linker_0, # of connection points: 2
# Relax obj value: 0.191
# Max RMSD: 0.281
# Mean RMSD: 0.276
data_MOF--net-wkf--node1-KUMBOL_clean_sbu_1--edge1-ZUJKAS_clean_linker_0
_symmetry_space_group_name_H-M    P1
_symmetry_Int_Tables_number       1
_symmetry_cell_setting            triclinic
loop_
_symmetry_equiv_pos_as_xyz
'x, y, z'
_cell_length_a     37.573108
_cell_length_b     37.53237
_cell_length_c     107.56982
_cell_angle_alpha  89.986591
_cell_angle_beta   89.970948
_cell_angle_gamma 119.62148
loop_
_atom_site_label
_atom_site_type_symbol
_atom_site_fract_x
_atom_site_fract_y
_atom_site_fract_z
_atom_type_partial_charge
C0 C 0.56884 0.97918 0.36521 0.0
C1 C 0.59867 1.01588 0.34615 0.0
C2 C 0.57295 1.00822 0.35659 0.0
C3 C 0.61644 0.99118 0.34396 0.0
C4 C 0.58881 0.95605 0.36349 0.0
C5 C 0.61147 0.96125 0.35262 0.0
N6 N 0.5465 0.9746 0.37557 0.0
C7 C 0.54437 0.94884 0.38489 0.0
C8 C 0.58601 0.92893 0.37287 0.0
C9 C 0.56414 0.92574 0.38369 0.0
Gd10 Gd 0.42275 0.97664 0.35124 0.0
Gd11 Gd 0.50941 1.00987 0.37648 0.0
N12 N 0.55547 0.03177 0.35908 0.0
C13 C 0.60799 0.04977 0.33868 0.0
C14 C 0.56945 0.06797 0.35272 0.0
C15 C 0.59454 0.07675 0.34226 0.0
H16 H 0.56379 0.09181 0.35579 0.0
H17 H 0.60423 0.10488 0.33712 0.0
H18 H 0.354 1.0081 0.35513 0.0
H19 H 0.52602 0.94476 0.39305 0.0
H20 H 0.32784 0.04675 0.34322 0.0
H21 H 0.62775 0.05687 0.33064 0.0
H22 H 0.63558 0.99621 0.33587 0.0
H23 H 0.51309 0.99728 0.33677 0.0
H24 H 0.60087 0.91063 0.37189 0.0
H25 H 0.56176 0.90487 0.39101 0.0
H26 H 0.40989 0.08886 0.30623 0.0
H27 H 0.62642 0.94327 0.35103 0.0
H28 H 0.52177 0.06249 0.30349 0.0
H29 H 0.54821 0.02854 0.31735 0.0
N30 N 0.46556 1.01219 0.33421 0.0
C31 C 0.45034 0.03067 0.3266 0.0
C32 C 0.50041 1.01152 0.33098 0.0
C33 C 0.50567 0.04844 0.31204 0.0
C34 C 0.52078 0.02944 0.31987 0.0
C35 C 0.47033 0.04962 0.3154 0.0
H36 H 0.46977 0.08416 0.29932 0.0
N37 N 0.39805 1.01573 0.34144 0.0
C38 C 0.41576 0.03259 0.33034 0.0
C39 C 0.36914 0.05906 0.32785 0.0
C40 C 0.40147 0.05448 0.3232 0.0
C41 C 0.36755 1.02138 0.34625 0.0
C42 C 0.35247 0.04288 0.33949 0.0
O43 O 0.47962 0.94338 0.37024 0.0
O44 O 0.46581 0.94944 0.35006 0.0
O45 O 0.36125 0.94604 0.34292 0.0
O46 O 0.39962 0.91924 0.34106 0.0
O47 O 0.50732 0.06562 0.36861 0.0
O48 O 0.46393 0.04658 0.35153 0.0
O49 O 0.40493 0.99947 0.36886 0.0
O50 O 0.46442 0.03124 0.38103 0.0
O51 O 0.56141 0.05679 0.38693 0.0
O52 O 0.51502 1.00361 0.39626 0.0
O53 O 0.39694 0.94114 0.36937 0.0
O54 O 0.4497 0.95774 0.38369 0.0
C55 C 0.47412 0.92995 0.35878 0.0
C56 C 0.4909 0.07477 0.35907 0.0
C57 C 0.35821 0.91326 0.32364 0.0
C58 C 0.31254 0.88519 0.30549 0.0
C59 C 0.3855 0.93104 0.30263 0.0
C60 C 0.39141 0.93358 0.31544 0.0
C61 C 0.34647 0.9073 0.29769 0.0
C62 C 0.31844 0.88831 0.31858 0.0
C63 C 0.36615 0.91816 0.33732 0.0
C64 C 0.4207 0.07227 0.3119 0.0
C65 C 0.45489 0.06969 0.30798 0.0
H66 H 0.35742 0.07579 0.32265 0.0
C67 C 0.42698 1.02315 0.37829 0.0
C68 C 0.4109 0.93644 0.38023 0.0
C69 C 0.53818 0.06637 0.40642 0.0
C70 C 0.5643 0.13008 0.41805 0.0
C71 C 0.49208 0.07965 0.41899 0.0
C72 C 0.49857 0.05426 0.41095 0.0
C73 C 0.5247 0.11746 0.42251 0.0
C74 C 0.57084 0.10431 0.41001 0.0
C75 C 0.54521 0.04043 0.39757 0.0
H76 H 0.41147 0.94727 0.29648 0.0
H77 H 0.42226 0.95118 0.31891 0.0
H78 H 0.34282 0.90547 0.28768 0.0
H79 H 0.29251 0.87165 0.32472 0.0
H80 H 0.46172 0.06994 0.42257 0.0
H81 H 0.4725 1.02526 0.40828 0.0
H82 H 0.51913 0.13647 0.42889 0.0
H83 H 0.60123 0.11401 0.40641 0.0
C84 C 0.61887 0.56677 0.53529 0.0
C85 C 0.61529 0.59779 0.51592 0.0
C86 C 0.59572 0.56825 0.52542 0.0
C87 C 0.65781 0.62423 0.51628 0.0
C88 C 0.66164 0.59347 0.53568 0.0
C89 C 0.68093 0.62194 0.52609 0.0
N90 N 0.59977 0.53909 0.5445 0.0
C91 C 0.62127 0.53671 0.55442 0.0
C92 C 0.68391 0.59096 0.54574 0.0
C93 C 0.6636 0.56251 0.55516 0.0
Gd94 Gd 0.47535 0.40502 0.51926 0.0
Gd95 Gd 0.52867 0.49801 0.54298 0.0
N96 N 0.55446 0.54157 0.52514 0.0
C97 C 0.59165 0.60055 0.50639 0.0
C98 C 0.53162 0.54465 0.51569 0.0
C99 C 0.54964 0.57418 0.50636 0.0
H100 H 0.49969 0.52405 0.51467 0.0
H101 H 0.53105 0.57582 0.49893 0.0
H102 H 0.37477 0.35148 0.51687 0.0
H103 H 0.60595 0.51399 0.56159 0.0
H104 H 0.32121 0.3406 0.50147 0.0
H105 H 0.60551 0.62294 0.499 0.0
H106 H 0.67311 0.64678 0.50902 0.0
H107 H 0.56717 0.48831 0.50795 0.0
H108 H 0.71676 0.61087 0.54633 0.0
H109 H 0.68055 0.56018 0.56296 0.0
H110 H 0.39467 0.43836 0.46935 0.0
H111 H 0.7137 0.64263 0.52624 0.0
H112 H 0.5394 0.52216 0.47332 0.0
H113 H 0.58946 0.52851 0.48919 0.0
N114 N 0.50353 0.45485 0.50309 0.0
C115 C 0.47549 0.45062 0.49424 0.0
C116 C 0.54412 0.48259 0.50121 0.0
C117 C 0.52897 0.50307 0.48155 0.0
C118 C 0.55731 0.50658 0.49046 0.0
C119 C 0.48757 0.47504 0.48337 0.0
H120 H 0.46708 0.48909 0.46616 0.0
N121 N 0.42292 0.39789 0.50627 0.0
C122 C 0.43431 0.42144 0.49587 0.0
C123 C 0.36373 0.3872 0.48899 0.0
C124 C 0.40476 0.41677 0.48696 0.0
C125 C 0.38306 0.36927 0.5084 0.0
C126 C 0.35284 0.36333 0.49977 0.0
O127 O 0.57364 0.47883 0.53603 0.0
O128 O 0.54522 0.43066 0.52015 0.0
O129 O 0.44238 0.33828 0.51941 0.0
O130 O 0.47913 0.36914 0.5036 0.0
O131 O 0.47328 0.49667 0.53418 0.0
O132 O 0.43871 0.43948 0.52143 0.0
O133 O 0.43228 0.39277 0.53583 0.0
O134 O 0.46749 0.44771 0.54953 0.0
O135 O 0.5273 0.55033 0.55136 0.0
O136 O 0.53901 0.51027 0.56269 0.0
O137 O 0.49586 0.38709 0.53702 0.0
O138 O 0.52424 0.44085 0.55137 0.0
C139 C 0.57662 0.4561 0.52721 0.0
C140 C 0.44213 0.47274 0.52695 0.0
C141 C 0.42215 0.30129 0.50011 0.0
C142 C 0.40309 0.25275 0.48249 0.0
C143 C 0.35096 0.24954 0.4966 0.0
C144 C 0.38069 0.28151 0.50364 0.0
C145 C 0.36196 0.23525 0.48618 0.0
C146 C 0.43328 0.28664 0.48938 0.0
C147 C 0.45367 0.33385 0.50837 0.0
C148 C 0.41692 0.44151 0.4763 0.0
C149 C 0.45816 0.47046 0.4745 0.0
H150 H 0.34024 0.3827 0.48234 0.0
C151 C 0.43563 0.41246 0.54641 0.0
C152 C 0.51199 0.40267 0.54801 0.0
C153 C 0.49612 0.53306 0.57128 0.0
C154 C 0.44959 0.55539 0.57934 0.0
C155 C 0.4473 0.49419 0.58762 0.0
C156 C 0.47869 0.49956 0.57956 0.0
C157 C 0.43292 0.52203 0.58758 0.0
C158 C 0.48115 0.56072 0.5712 0.0
C159 C 0.52921 0.53881 0.56261 0.0
H160 H 0.31918 0.23503 0.49944 0.0
H161 H 0.37098 0.28998 0.51205 0.0
H162 H 0.33811 0.20978 0.48105 0.0
H163 H 0.46519 0.3003 0.48673 0.0
H164 H 0.4342 0.46845 0.59397 0.0
H165 H 0.48918 0.4774 0.57984 0.0
H166 H 0.40866 0.51745 0.59395 0.0
H167 H 0.49465 0.58688 0.56498 0.0
C168 C 0.07244 0.59979 0.69709 0.0
C169 C 1.03542 0.59295 0.67802 0.0
C170 C 0.04582 0.5748 0.6879 0.0
C171 C 0.05357 0.63574 0.67719 0.0
C172 C 0.09023 0.6429 0.69637 0.0
C173 C 0.08107 0.66064 0.6863 0.0
N174 N 0.08098 0.58217 0.7068 0.0
C175 C 0.10606 0.60576 0.71623 0.0
C176 C 0.11651 0.6671 0.70585 0.0
C177 C 0.12424 0.64841 0.71587 0.0
Gd178 Gd 0.09014 0.45633 0.68362 0.0
Gd179 Gd 0.04974 0.51023 0.70682 0.0
N180 N 1.02925 0.53318 0.68874 0.0
C181 C 1.00637 0.56772 0.66933 0.0
C182 C 1.0001 0.50879 0.68021 0.0
C183 C 0.98831 0.52553 0.67054 0.0
H184 H 0.98531 0.47628 0.68031 0.0
H185 H 0.96558 0.50564 0.66387 0.0
H186 H 0.04621 0.35595 0.68067 0.0
H187 H 0.11363 0.59181 0.72382 0.0
H188 H 1.00536 0.30288 0.66498 0.0
H189 H 0.99744 0.58049 0.6617 0.0
H190 H 0.04612 0.6499 0.6696 0.0
H191 H 0.09475 0.54756 0.67308 0.0
H192 H 0.13082 0.70022 0.70556 0.0
H193 H 0.14463 0.66685 0.72324 0.0
H194 H 0.979 0.37681 0.63332 0.0
H195 H 0.0946 0.69363 0.68557 0.0
H196 H 1.03521 0.52109 0.63817 0.0
H197 H 0.07687 0.57054 0.65438 0.0
N198 N 0.06725 0.48447 0.66771 0.0
C199 C 0.04457 0.45678 0.65868 0.0
C200 C 0.07847 0.52492 0.66615 0.0
C201 C 0.04401 0.51045 0.64635 0.0
C202 C 0.06764 0.53844 0.65546 0.0
C203 C 1.03196 0.4691 0.64789 0.0
H204 H 0.99835 0.4491 0.63056 0.0
N205 N 0.04649 0.40419 0.67035 0.0
C206 C 1.03398 0.41574 0.66005 0.0
C207 C 1.00001 0.34554 0.65276 0.0
C208 C 1.01015 0.38648 0.65097 0.0
C209 C 1.0365 0.3644 0.67226 0.0
C210 C 1.01325 0.33445 0.66346 0.0
O211 O 0.11434 0.55403 0.70009 0.0
O212 O 0.13405 0.52615 0.68402 0.0
O213 O 0.12392 0.42305 0.68393 0.0
O214 O 0.13022 0.4603 0.66814 0.0
O215 O 0.99633 0.45245 0.69868 0.0
O216 O 1.01974 0.41868 0.68573 0.0
O217 O 0.05986 0.41382 0.7004 0.0
O218 O 0.04017 0.44976 0.71397 0.0
O219 O 0.99504 0.50597 0.71555 0.0
O220 O 0.05038 0.52762 0.72597 0.0
O221 O 0.12886 0.47836 0.7012 0.0
O222 O 0.10098 0.50403 0.71573 0.0
C223 C 0.14013 0.55728 0.69128 0.0
C224 C 0.9897 0.42137 0.69136 0.0
C225 C 0.14084 0.40298 0.66461 0.0
C226 C 0.16565 0.38377 0.64584 0.0
C227 C 0.12246 0.33192 0.66095 0.0
C228 C 0.12126 0.36169 0.66836 0.0
C229 C 0.14424 0.34271 0.64983 0.0
C230 C 0.16382 0.41403 0.65335 0.0
C231 C 0.13984 0.43449 0.67293 0.0
C232 C 0.99729 0.39884 0.64039 0.0
C233 C 1.00825 0.44 0.63884 0.0
H234 H 0.98183 0.32225 0.64598 0.0
C235 C 0.04373 0.41762 0.71099 0.0
C236 C 0.12808 0.49316 0.71231 0.0
C237 C 0.9895 0.48503 0.73668 0.0
C238 C 0.9273 0.44614 0.74906 0.0
C239 C 0.98972 0.44511 0.75445 0.0
C240 C 1.01002 0.47095 0.74448 0.0
C241 C 0.94892 0.43325 0.75685 0.0
C242 C 0.94797 0.47168 0.73884 0.0
C243 C 1.01154 0.51442 0.72653 0.0
H244 H 0.10696 0.30026 0.66397 0.0
H245 H 0.10527 0.35216 0.67715 0.0
H246 H 0.14533 0.31878 0.6445 0.0
H247 H 0.18022 0.44586 0.65049 0.0
H248 H 1.00594 0.43496 0.76051 0.0
H249 H 0.04196 0.48022 0.74303 0.0
H250 H 0.93488 0.41491 0.76504 0.0
H251 H 0.93213 0.48168 0.73256 0.0
C252 C 0.5139 0.09287 0.86896 0.0
C253 C 0.45254 0.04325 0.85808 0.0
C254 C 0.49043 0.05408 0.86371 0.0
C255 C 0.43828 0.07151 0.85794 0.0
C256 C 0.49969 0.12132 0.86876 0.0
C257 C 0.46172 0.11036 0.86328 0.0
N258 N 0.55124 0.1033 0.87381 0.0
C259 C 0.57526 0.14097 0.87896 0.0
C260 C 0.5245 0.16032 0.87383 0.0
C261 C 0.56241 0.17014 0.87895 0.0
Gd262 Gd 0.66605 0.07768 0.85341 0.0
Gd263 Gd 0.56665 0.05019 0.87449 0.0
N264 N 0.50509 0.02738 0.86384 0.0
C265 C 0.43017 1.00438 0.85268 0.0
C266 C 0.4833 0.98931 0.85872 0.0
C267 C 0.44562 0.97732 0.85301 0.0
H268 H 0.49443 0.96781 0.8592 0.0
H269 H 0.42836 0.9471 0.84895 0.0
H270 H 0.74672 0.14287 0.87051 0.0
H271 H 0.60413 0.14859 0.8832 0.0
H272 H 0.80297 0.14272 0.88234 0.0
H273 H 0.40094 0.99493 0.84826 0.0
H274 H 0.40922 0.06368 0.85366 0.0
H275 H 0.63569 1.00022 0.83269 0.0
H276 H 0.51475 0.18309 0.87379 0.0
H277 H 0.58166 0.20012 0.88296 0.0
H278 H 0.78969 1.01139 0.87328 0.0
H279 H 0.45042 0.1319 0.863 0.0
H280 H 0.69036 0.92794 0.84284 0.0
H281 H 0.6436 0.93946 0.82942 0.0
N282 N 0.67319 1.01995 0.84886 0.0
C283 C 0.70257 1.01677 0.85535 0.0
C284 C 0.65444 0.99434 0.83904 0.0
C285 C 0.68615 0.95407 0.84453 0.0
C286 C 0.65963 0.96039 0.83697 0.0
C287 C 0.70914 0.9832 0.85358 0.0
H288 H 0.74499 0.95514 0.85925 0.0
N289 N 0.72325 0.08217 0.86378 0.0
C290 C 0.72874 0.04906 0.86292 0.0
C291 C 0.78719 0.08163 0.87662 0.0
C292 C 0.76068 0.04776 0.8694 0.0
C293 C 0.75011 0.11601 0.87035 0.0
C294 C 0.78215 0.11608 0.87698 0.0
O295 O 0.57291 0.07878 0.85523 0.0
O296 O 0.64097 0.12254 0.8526 0.0
O297 O 0.72332 0.12295 0.84482 0.0
O298 O 0.67166 0.08618 0.83319 0.0
O299 O 0.56548 0.99422 0.86616 0.0
O300 O 0.60288 1.02085 0.84823 0.0
O301 O 0.66643 0.05483 0.87323 0.0
O302 O 0.59836 1.01399 0.87866 0.0
O303 O 0.51498 1.00674 0.88561 0.0
O304 O 0.56102 0.06399 0.89366 0.0
O305 O 0.67449 0.12912 0.86651 0.0
O306 O 0.62776 0.09726 0.88248 0.0
C307 C 0.60284 0.11498 0.85184 0.0
C308 C 0.57866 0.9887 0.85535 0.0
C309 C 0.73844 0.1106 0.82441 0.0
C310 C 0.78904 0.13855 0.80733 0.0
C311 C 0.77208 0.07346 0.81711 0.0
C312 C 0.74514 0.07712 0.82519 0.0
C313 C 0.79373 0.10369 0.80828 0.0
C314 C 0.76052 0.14149 0.81537 0.0
C315 C 0.71027 0.11419 0.83345 0.0
C316 C 0.76552 1.01312 0.8683 0.0
C317 C 0.7399 0.98097 0.86037 0.0
H318 H 0.8121 0.0818 0.88174 0.0
C319 C 0.63735 1.02619 0.88014 0.0
C320 C 0.663 0.12676 0.87825 0.0
C321 C 0.53445 1.00522 0.90652 0.0
C322 C 0.51067 0.94139 0.91806 0.0
C323 C 0.5706 1.00346 0.92508 0.0
C324 C 0.5665 1.02516 0.91516 0.0
C325 C 0.54289 0.96176 0.92655 0.0
C326 C 0.50659 0.96334 0.9081 0.0
C327 C 0.53014 0.02761 0.89581 0.0
H328 H 0.77657 0.04717 0.8178 0.0
H329 H 0.72998 0.05388 0.83215 0.0
H330 H 0.8144 0.09973 0.80215 0.0
H331 H 0.75642 0.16807 0.81485 0.0
H332 H 0.59543 1.01901 0.93164 0.0
H333 H 0.58857 0.05745 0.91424 0.0
H334 H 0.54674 0.94539 0.93426 0.0
H335 H 0.48131 0.94786 0.90166 0.0
C336 C 0.45483 0.49683 0.03379 0.0
C337 C 0.45604 0.46758 0.01384 0.0
C338 C 0.47705 0.4944 0.02381 0.0
C339 C 0.41314 0.44402 0.01401 0.0
C340 C 0.41165 0.47346 0.03393 0.0
C341 C 0.39104 0.4469 0.02403 0.0
N342 N 0.47528 0.52256 0.0433 0.0
C343 C 0.45474 0.52678 0.05316 0.0
C344 C 0.39036 0.4775 0.04401 0.0
C345 C 0.41202 0.50441 0.05365 0.0
Gd346 Gd 0.60595 0.6504 0.01956 0.0
Gd347 Gd 0.54672 0.5571 0.04231 0.0
N348 N 0.51878 0.51795 0.02382 0.0
C349 C 0.47864 0.46463 1.004 0.0
C350 C 0.54063 0.51459 0.01414 0.0
C351 C 0.52106 0.48797 1.00422 0.0
H352 H 0.57313 0.53255 0.01355 0.0
H353 H 0.53889 0.4858 0.99665 0.0
H354 H 0.70221 0.72 0.02659 0.0
H355 H 0.47134 0.54807 0.06055 0.0
H356 H 0.77134 0.74623 0.01769 0.0
H357 H 0.46366 0.44428 0.99623 0.0
H358 H 0.39674 0.42332 1.00644 0.0
H359 H 0.53967 0.57598 0.99918 0.0
H360 H 0.35723 0.46018 0.04441 0.0
H361 H 0.39583 0.50802 0.06144 0.0
H362 H 0.74877 0.66743 0.98052 0.0
H363 H 0.35796 0.42838 0.02405 0.0
H364 H 0.61165 0.56678 0.97016 0.0
H365 H 0.54437 0.54537 0.97974 0.0
N366 N 0.60438 0.61412 1.0014 0.0
C367 C 0.64172 0.62809 0.99584 0.0
C368 C 0.56965 0.58582 0.99546 0.0
C369 C 0.61005 0.58052 0.97885 0.0
C370 C 0.57203 0.56829 0.98425 0.0
C371 C 0.64545 0.61106 0.98454 0.0
H372 H 0.6875 0.61246 0.97049 0.0
N373 N 0.67268 0.67581 0.01232 0.0
C374 C 0.67662 0.65988 1.00138 0.0
C375 C 0.74988 0.70557 1.00193 0.0
C376 C 0.71554 0.67428 0.99594 0.0
C377 C 0.70589 0.70669 0.01812 0.0
C378 C 0.74501 0.72185 0.01305 0.0
O379 O 0.50986 0.58637 0.03589 0.0
O380 O 0.53649 0.60963 0.01656 0.0
O381 O 0.63143 0.71683 0.01855 0.0
O382 O 0.59798 0.6792 1.00304 0.0
O383 O 0.6001 0.5538 0.03343 0.0
O384 O 0.63892 0.61308 0.02187 0.0
O385 O 0.64299 0.66214 0.03756 0.0
O386 O 0.60998 0.60138 0.04909 0.0
O387 O 0.53902 0.49986 0.04994 0.0
O388 O 0.53502 0.54339 0.06194 0.0
O389 O 0.58088 0.668 0.03645 0.0
O390 O 0.55709 0.61586 0.05137 0.0
C391 C 0.50557 0.59564 0.02446 0.0
C392 C 0.6328 0.5781 0.02672 0.0
C393 C 0.60063 0.74312 1.00452 0.0
C394 C 0.5949 0.79162 0.99036 0.0
C395 C 0.55638 0.77079 1.00981 0.0
C396 C 0.57288 0.74563 0.01267 0.0
C397 C 0.56727 0.79361 0.9988 0.0
C398 C 0.61133 0.7659 0.99332 0.0
C399 C 0.61799 0.71622 1.00735 0.0
C400 C 0.71911 0.65681 0.98482 0.0
C401 C 0.68421 0.62538 0.97913 0.0
H402 H 0.78027 0.71736 0.99804 0.0
C403 C 0.64064 0.63854 0.04709 0.0
C404 C 0.56771 0.65357 0.0478 0.0
C405 C 0.57025 0.51079 0.0697 0.0
C406 C 0.60814 0.47734 0.07683 0.0
C407 C 0.62547 0.54462 0.08471 0.0
C408 C 0.59467 0.54446 0.07743 0.0
C409 C 0.63234 0.51137 0.08441 0.0
C410 C 0.57712 0.47733 0.06951 0.0
C411 C 0.53916 0.51118 0.06136 0.0
H412 H 0.53488 0.7725 0.01614 0.0
H413 H 0.56387 0.72802 0.02122 0.0
H414 H 0.55348 0.8124 0.99681 0.0
H415 H 0.63277 0.76392 0.987 0.0
H416 H 0.64408 0.57058 0.09063 0.0
H417 H 0.5903 0.57087 0.0778 0.0
H418 H 0.65611 0.51201 0.09025 0.0
H419 H 0.55876 0.45156 0.06346 0.0
C420 C 0.98277 0.43938 0.19799 0.0
C421 C 1.00481 0.44053 0.17677 0.0
C422 C 1.00352 0.46164 0.18751 0.0
C423 C 0.98398 0.3975 0.17659 0.0
C424 C 0.96183 0.39609 0.19783 0.0
C425 C 0.96237 0.37535 0.18707 0.0
N426 N 0.98224 0.45994 0.20828 0.0
C427 C 0.96182 0.43938 0.21875 0.0
C428 C 0.94072 0.3748 0.20851 0.0
C429 C 0.94077 0.39657 0.21902 0.0
Gd430 Gd 0.97959 0.59082 0.18613 0.0
Gd431 Gd 1.01788 0.53156 0.2073 0.0
N432 N 1.02238 0.5035 0.1878 0.0
C433 C 1.02743 0.46315 0.16652 0.0
C434 C 0.04425 0.52532 0.17763 0.0
C435 C 0.04772 0.50566 0.16704 0.0
H436 H 0.05865 0.55787 0.17715 0.0
H437 H 0.06537 0.52351 0.15914 0.0
H438 H 1.02501 0.69114 0.19163 0.0
H439 H 0.96077 0.45599 0.22681 0.0
H440 H 0.07219 0.75591 0.18095 0.0
H441 H 1.02953 0.44811 0.15818 0.0
H442 H 0.98451 0.38103 0.16838 0.0
H443 H 0.96498 0.51318 0.16549 0.0
H444 H 0.92416 0.34159 0.20871 0.0
H445 H 0.92429 0.3804 0.2273 0.0
H446 H 0.10234 0.71296 0.1423 0.0
H447 H 0.94638 0.34215 0.18677 0.0
H448 H 1.0377 0.56971 0.13361 0.0
H449 H 0.98774 0.50785 0.1449 0.0
N450 N 1.0023 0.57856 0.1668 0.0
C451 C 1.02806 0.61331 0.16032 0.0
C452 C 0.98687 0.54115 0.1611 0.0
C453 C 1.02782 0.57265 0.14283 0.0
C454 C 0.99963 0.5377 0.14917 0.0
C455 C 0.04204 0.61106 0.1483 0.0
H456 H 0.08011 0.64581 0.13274 0.0
N457 N 1.02602 0.6534 0.17705 0.0
C458 C 0.03995 0.65161 0.16553 0.0
C459 C 0.07867 0.72571 0.16478 0.0
C460 C 0.06698 0.68789 0.15913 0.0
C461 C 1.03705 0.69015 0.18259 0.0
C462 C 0.06351 0.72683 0.17654 0.0
O463 O 0.95017 0.49407 0.20333 0.0
O464 O 0.94417 0.5197 0.18457 0.0
O465 O 0.94659 0.62503 0.18649 0.0
O466 O 0.93375 0.58151 0.17196 0.0
O467 O 0.07329 0.58349 0.19749 0.0
O468 O 0.05049 0.62323 0.18738 0.0
O469 O 1.00663 0.6273 0.2042 0.0
O470 O 0.04064 0.59641 0.21357 0.0
O471 O 0.06729 0.52125 0.21353 0.0
O472 O 1.02511 0.52227 0.2268 0.0
O473 O 0.94176 0.56788 0.20391 0.0
O474 O 0.97209 0.54302 0.21782 0.0
C475 C 0.93138 0.48916 0.19268 0.0
C476 C 0.08041 0.61683 0.19125 0.0
C477 C 0.92699 0.63982 0.16674 0.0
C478 C 0.90075 0.65478 0.14754 0.0
C479 C 0.9535 0.7102 0.15975 0.0
C480 C 0.95243 0.68223 0.16846 0.0
C481 C 0.92819 0.69667 0.14935 0.0
C482 C 0.90029 0.6262 0.15629 0.0
C483 C 0.92736 0.61034 0.17607 0.0
C484 C 0.08156 0.68542 0.14735 0.0
C485 C 0.06902 0.64716 0.14193 0.0
H486 H 0.09933 0.7542 0.16014 0.0
C487 C 1.0323 0.62647 0.21254 0.0
C488 C 0.9449 0.55448 0.21504 0.0
C489 C 0.09468 0.55641 0.23236 0.0
C490 C 0.16723 0.59168 0.23756 0.0
C491 C 0.12409 0.61858 0.24486 0.0
C492 C 0.09037 0.58644 0.23901 0.0
C493 C 0.16247 0.6215 0.24406 0.0
C494 C 0.13315 0.55904 0.23181 0.0
C495 C 0.06023 0.52432 0.2252 0.0
H496 H 0.97367 0.7427 0.16117 0.0
H497 H 0.97126 0.69414 0.17664 0.0
H498 H 0.92918 0.7192 0.14284 0.0
H499 H 0.8794 0.59376 0.15498 0.0
H500 H 0.12054 0.64149 0.24996 0.0
H501 H 0.06118 0.5856 0.23955 0.0
H502 H 0.1883 0.64669 0.24865 0.0
H503 H 0.13682 0.5363 0.22661 0.0
C504 C 0.1206 0.51814 0.48939 0.0
C505 C 0.08073 0.46502 0.50455 0.0
C506 C 0.08642 0.49845 0.49714 0.0
C507 C 0.10928 0.45124 0.50398 0.0
C508 C 0.14967 0.50471 0.48901 0.0
C509 C 0.14362 0.471 0.49624 0.0
N510 N 0.12635 0.55142 0.4827 0.0
C511 C 0.16025 0.57224 0.47539 0.0
C512 C 0.18449 0.52607 0.48157 0.0
C513 C 0.18983 0.56002 0.47477 0.0
Gd514 Gd 0.10274 0.66585 0.50329 0.0
Gd515 Gd 0.07166 0.56499 0.48366 0.0
N516 N 0.0598 0.51314 0.49785 0.0
C517 C 0.04673 0.44671 0.51247 0.0
C518 C 1.02619 0.49496 0.50536 0.0
C519 C 1.01936 0.46173 0.51286 0.0
H520 H 1.00431 0.50559 0.50553 0.0
H521 H 0.9928 0.44751 0.51887 0.0
H522 H 0.20337 0.72922 0.50183 0.0
H523 H 0.16461 0.59791 0.46985 0.0
H524 H 0.25151 0.80198 0.49669 0.0
H525 H 0.04133 0.42099 0.51831 0.0
H526 H 0.10536 0.42559 0.50961 0.0
H527 H 1.01308 0.66142 0.51016 0.0
H528 H 0.20755 0.51678 0.48108 0.0
H529 H 0.21667 0.57669 0.46898 0.0
H530 H 0.16398 0.85971 0.48984 0.0
H531 H 0.16569 0.46037 0.49605 0.0
H532 H 1.02181 0.77554 0.49989 0.0
H533 H 0.98121 0.70479 0.50796 0.0
N534 N 0.07064 0.70623 0.50287 0.0
C535 C 0.09384 0.74551 0.49895 0.0
C536 C 1.03105 0.69201 0.50654 0.0
C537 C 1.03585 0.75644 0.50072 0.0
C538 C 1.01288 0.71658 0.50532 0.0
C539 C 0.07714 0.77171 0.49773 0.0
H540 H 0.09013 0.8331 0.49292 0.0
N541 N 0.15031 0.73483 0.49919 0.0
C542 C 0.13516 0.76037 0.49709 0.0
C543 C 0.20355 0.81678 0.49371 0.0
C544 C 0.16127 0.80198 0.49414 0.0
C545 C 0.19161 0.74956 0.49957 0.0
C546 C 0.21883 0.79061 0.49668 0.0
O547 O 0.10113 0.57793 0.5028 0.0
O548 O 0.14874 0.64358 0.50068 0.0
O549 O 0.13022 0.70571 0.51915 0.0
O550 O 0.10178 0.63985 0.52158 0.0
O551 O 1.01537 0.56319 0.49194 0.0
O552 O 1.03768 0.61222 0.50771 0.0
O553 O 0.05258 0.65214 0.489 0.0
O554 O 0.06121 0.61267 0.47395 0.0
O555 O 1.01529 0.51494 0.47607 0.0
O556 O 0.07437 0.53409 0.46695 0.0
O557 O 0.1439 0.67857 0.48641 0.0
O558 O 0.11745 0.62193 0.47319 0.0
C559 C 0.13948 0.60646 0.50399 0.0
C560 C 1.00815 0.58047 0.50159 0.0
C561 C 0.11138 0.68168 0.53972 0.0
C562 C 0.13359 0.7191 0.55959 0.0
C563 C 0.06359 0.66288 0.55687 0.0
C564 C 0.07214 0.657 0.54464 0.0
C565 C 0.0939 0.69343 0.56428 0.0
C566 C 0.14195 0.71268 0.54722 0.0
C567 C 0.12173 0.67594 0.52688 0.0
C568 C 0.14452 0.82775 0.49226 0.0
C569 C 0.10248 0.8126 0.49403 0.0
H570 H 0.22466 0.84858 0.49151 0.0
C571 C 0.04624 0.63604 0.47773 0.0
C572 C 0.14302 0.66094 0.47568 0.0
C573 C 1.01491 0.47773 0.4575 0.0
C574 C 0.95338 0.43233 0.44583 0.0
C575 C 1.01627 0.42966 0.44274 0.0
C576 C 1.03621 0.46079 0.45148 0.0
C577 C 0.97505 0.41519 0.43999 0.0
C578 C 0.97396 0.46403 0.45449 0.0
C579 C 1.03508 0.50939 0.467 0.0
H580 H 1.03328 0.64352 0.56065 0.0
H581 H 0.04818 0.6332 0.53907 0.0
H582 H 0.08623 0.69655 0.57378 0.0
H583 H 0.1721 0.73211 0.54331 0.0
H584 H 1.03262 0.41626 0.43823 0.0
H585 H 0.06799 0.47115 0.45366 0.0
H586 H 0.9601 0.39001 0.43351 0.0
H587 H 0.95832 0.4784 0.4589 0.0
C588 C 0.62318 0.09843 0.64986 0.0
C589 C 0.64315 0.06188 0.66443 0.0
C590 C 0.61263 0.06536 0.65781 0.0
C591 C 0.68437 0.09213 0.66303 0.0
C592 C 0.6646 0.12893 0.64851 0.0
C593 C 0.69504 0.12561 0.65514 0.0
N594 N 0.59302 0.1011 0.64363 0.0
C595 C 0.60255 0.13237 0.63543 0.0
C596 C 0.67425 0.16196 0.64055 0.0
C597 C 0.64312 0.16351 0.63393 0.0
Gd598 Gd 0.46048 0.08189 0.66802 0.0
Gd599 Gd 0.52646 0.04632 0.64705 0.0
N600 N 0.57239 0.03731 0.65938 0.0
C601 C 0.63123 0.02835 0.67241 0.0
C602 C 0.56056 1.00403 0.66688 0.0
C603 C 0.58978 0.99923 0.67359 0.0
H604 H 0.5286 0.98122 0.66768 0.0
H605 H 0.58035 0.97302 0.67964 0.0
H606 H 0.48659 0.1794 0.66085 0.0
H607 H 0.57936 0.13322 0.62978 0.0
H608 H 0.45775 0.21568 0.64903 0.0
H609 H 0.65377 1.02462 0.67766 0.0
H610 H 0.70822 0.09009 0.6681 0.0
H611 H 0.38027 0.99484 0.67815 0.0
H612 H 0.70566 0.18613 0.63933 0.0
H613 H 0.65043 0.18845 0.62752 0.0
H614 H 0.31926 0.11155 0.64073 0.0
H615 H 0.72695 0.14887 0.65424 0.0
H616 H 0.27191 0.98152 0.66073 0.0
H617 H 0.30573 0.95422 0.67445 0.0
N618 N 0.38867 0.04361 0.66627 0.0
C619 C 0.37032 0.06012 0.65934 0.0
C620 C 0.36578 1.00686 0.67214 0.0
C621 C 0.30463 0.99932 0.66229 0.0
C622 C 0.32358 0.98384 0.67006 0.0
C623 C 0.32788 0.03831 0.65702 0.0
H624 H 0.27743 0.04025 0.64789 0.0
N625 N 0.43389 0.12066 0.65858 0.0
C626 C 0.39387 0.09995 0.65525 0.0
C627 C 0.39944 0.16132 0.64613 0.0
C628 C 0.37559 0.11951 0.64882 0.0
C629 C 0.456 0.16222 0.65709 0.0
C630 C 0.43957 0.18297 0.65055 0.0
O631 O 0.54589 0.07301 0.66657 0.0
O632 O 0.52991 0.12343 0.66708 0.0
O633 O 0.44584 0.11674 0.6812 0.0
O634 O 0.47215 0.08069 0.68786 0.0
O635 O 0.47429 0.99318 0.65708 0.0
O636 O 0.45505 1.01947 0.67379 0.0
O637 O 0.42482 0.02978 0.65417 0.0
O638 O 0.47112 0.04515 0.63838 0.0
O639 O 0.50809 0.98576 0.63966 0.0
O640 O 0.55477 0.03979 0.6303 0.0
O641 O 0.50611 0.12897 0.65413 0.0
O642 O 0.51191 0.09208 0.63786 0.0
C643 C 0.55703 0.11153 0.66886 0.0
C644 C 0.45304 0.98806 0.66736 0.0
C645 C 0.43083 0.0941 0.70202 0.0
C646 C 0.40675 0.11605 0.72025 0.0
C647 C 0.37695 0.04352 0.7151 0.0
C648 C 0.40262 0.05314 0.70478 0.0
C649 C 0.37889 0.07453 0.72275 0.0
C650 C 0.43296 0.12551 0.70982 0.0
C651 C 0.45751 0.10465 0.6909 0.0
C652 C 0.33376 0.09723 0.64581 0.0
C653 C 0.30992 0.05666 0.64991 0.0
H654 H 0.38663 0.1775 0.64117 0.0
C655 C 0.43351 1.02524 0.64262 0.0
C656 C 0.51077 0.12442 0.64217 0.0
C657 C 0.50664 0.98597 0.61783 0.0
C658 C 0.47016 0.9307 0.60291 0.0
C659 C 0.47322 0.99637 0.59998 0.0
C660 C 0.49643 1.01123 0.61081 0.0
C661 C 0.46002 0.95632 0.59604 0.0
C662 C 0.49323 0.94579 0.61389 0.0
C663 C 0.52954 1.00056 0.62955 0.0
H664 H 0.35536 1.01179 0.71719 0.0
H665 H 0.40042 0.02859 0.69897 0.0
H666 H 0.35877 0.06588 0.73074 0.0
H667 H 0.45443 0.15724 0.70763 0.0
H668 H 0.46539 1.01596 0.59464 0.0
H669 H 0.506 0.04228 0.61375 0.0
H670 H 0.44264 0.94572 0.5875 0.0
H671 H 0.50052 0.92618 0.61946 0.0
C672 C 0.5651 0.60989 0.82261 0.0
C673 C 0.58547 0.60426 0.84352 0.0
C674 C 0.56286 0.58567 0.83261 0.0
C675 C 0.61177 0.64685 0.8439 0.0
C676 C 0.59016 0.65292 0.82314 0.0
C677 C 0.61412 0.67113 0.83373 0.0
N678 N 0.54068 0.59169 0.81267 0.0
C679 C 0.53886 0.61466 0.80309 0.0
C680 C 0.58958 0.67649 0.81315 0.0
C681 C 0.56338 0.6573 0.80316 0.0
Gd682 Gd 0.41201 0.45602 0.83363 0.0
Gd683 Gd 0.50466 0.51979 0.81223 0.0
N684 N 0.53616 0.54457 0.83206 0.0
C685 C 0.57975 0.57982 0.85394 0.0
C686 C 0.52849 0.52162 0.84261 0.0
C687 C 0.5505 0.53845 0.85354 0.0
H688 H 0.50423 0.49093 0.84301 0.0
H689 H 0.54417 0.51959 0.86176 0.0
H690 H 0.32574 0.40889 0.81653 0.0
H691 H 0.51822 0.60018 0.7954 0.0
H692 H 0.26927 0.33805 0.81317 0.0
H693 H 0.59638 0.59291 0.86248 0.0
H694 H 0.62951 0.66145 0.85216 0.0
H695 H 0.46385 0.45184 0.85895 0.0
H696 H 0.60856 0.70956 0.81318 0.0
H697 H 0.56198 0.67532 0.79552 0.0
H698 H 0.29837 0.25686 0.84136 0.0
H699 H 0.63373 0.70407 0.83427 0.0
H700 H 0.4123 0.32545 0.86894 0.0
H701 H 0.46328 0.39828 0.87247 0.0
N702 N 0.41547 0.40929 0.8474 0.0
C703 C 0.38511 0.3697 0.84586 0.0
C704 C 0.44196 0.42004 0.85722 0.0
C705 C 0.41259 0.34875 0.86292 0.0
C706 C 0.4415 0.38984 0.86493 0.0
C707 C 0.38346 0.33829 0.85347 0.0
H708 H 0.35101 0.27308 0.85729 0.0
N709 N 0.35555 0.39135 0.83002 0.0
C710 C 0.35479 0.36052 0.83689 0.0
C711 C 0.29229 0.31171 0.82655 0.0
C712 C 0.32301 0.31975 0.83529 0.0
C713 C 0.32498 0.38393 0.82177 0.0
C714 C 0.29314 0.34397 0.81983 0.0
O715 O 0.47071 0.55232 0.81791 0.0
O716 O 0.45483 0.52614 0.83734 0.0
O717 O 0.35301 0.44596 0.84045 0.0
O718 O 0.4056 0.47135 0.85267 0.0
O719 O 0.51472 0.46945 0.821 0.0
O720 O 0.45637 0.42992 0.83286 0.0
O721 O 0.4056 0.4213 0.81541 0.0
O722 O 0.46896 0.45503 0.80552 0.0
O723 O 0.56356 0.53475 0.80399 0.0
O724 O 0.51612 0.5347 0.79275 0.0
O725 O 0.39233 0.48189 0.81766 0.0
O726 O 0.4441 0.50368 0.80278 0.0
C727 C 0.46309 0.55662 0.82947 0.0
C728 C 0.49161 0.43666 0.82793 0.0
C729 C 0.35177 0.4844 0.85789 0.0
C730 C 0.30911 0.49175 0.874 0.0
C731 C 0.35509 0.54988 0.86097 0.0
C732 C 0.36771 0.52562 0.85464 0.0
C733 C 0.32633 0.53332 0.87057 0.0
C734 C 0.32241 0.46748 0.86755 0.0
C735 C 0.36659 0.45913 0.85162 0.0
C736 C 0.32242 0.28836 0.84254 0.0
C737 C 0.35245 0.2976 0.85161 0.0
H738 H 0.26747 0.28077 0.82505 0.0
C739 C 0.43181 0.42369 0.80675 0.0
C740 C 0.40614 0.49281 0.80619 0.0
C741 C 0.56068 0.51851 0.78239 0.0
C742 C 0.5822 0.47177 0.77383 0.0
C743 C 0.56703 0.51439 0.76011 0.0
C744 C 0.55813 0.53122 0.77033 0.0
C745 C 0.57955 0.48547 0.7618 0.0
C746 C 0.57145 0.48792 0.78411 0.0
C747 C 0.55219 0.53836 0.79285 0.0
H748 H 0.36793 0.58187 0.85849 0.0
H749 H 0.39019 0.5391 0.84728 0.0
H750 H 0.31812 0.55348 0.87542 0.0
H751 H 0.30987 0.43545 0.86994 0.0
H752 H 0.56542 0.52472 0.75083 0.0
H753 H 0.54954 0.55454 0.76884 0.0
H754 H 0.58873 0.47539 0.7536 0.0
H755 H 0.57209 0.47749 0.79344 0.0
C756 C 0.99177 0.55411 0.99199 0.0
C757 C 1.03278 0.57816 0.01061 0.0
C758 C 1.02224 0.55542 0.99943 0.0
C759 C 1.00944 0.59578 0.01469 0.0
C760 C 0.97015 0.57428 0.99556 0.0
C761 C 0.97835 0.5941 1.00713 0.0
N762 N 0.98502 0.53513 0.98083 0.0
C763 C 0.95858 0.5369 0.97247 0.0
C764 C 0.9419 0.575 0.98723 0.0
C765 C 0.93654 0.55672 0.97556 0.0
Gd766 Gd 0.98619 0.40711 1.00075 0.0
Gd767 Gd 1.01881 0.49777 0.97671 0.0
N768 N 0.04519 0.5395 0.99489 0.0
C769 C 0.06857 0.58565 0.01674 0.0
C770 C 0.0838 0.55401 0.99958 0.0
C771 C 0.0951 0.57499 0.01091 0.0
H772 H 0.10701 0.55144 0.99447 0.0
H773 H 0.12495 0.58441 0.01486 0.0
H774 H 1.00934 0.33392 0.99293 0.0
H775 H 0.95334 0.52162 0.9636 0.0
H776 H 0.04926 0.30375 1.00159 0.0
H777 H 0.0778 0.60291 0.02534 0.0
H778 H 1.01682 0.6129 0.02331 0.0
H779 H 1.0066 0.48848 0.01971 0.0
H780 H 0.92464 0.59014 0.98962 0.0
H781 H 0.91499 0.55733 0.96901 0.0
H782 H 0.10302 0.37583 0.03987 0.0
H783 H 0.96219 0.60984 0.01006 0.0
H784 H 0.07723 0.48491 0.0502 0.0
H785 H 0.04122 0.51623 0.03954 0.0
N786 N 1.02237 0.44107 0.01888 0.0
C787 C 0.04199 0.42324 0.02465 0.0
C788 C 1.0219 0.47407 0.02415 0.0
C789 C 0.0618 0.47221 0.04146 0.0
C790 C 0.04162 0.49007 0.03545 0.0
C791 C 0.06251 0.43868 0.03605 0.0
H792 H 0.09981 0.43241 0.05029 0.0
N793 N 1.02436 0.377 1.00764 0.0
C794 C 0.0438 0.39107 0.01873 0.0
C795 C 0.06818 0.34233 0.01783 0.0
C796 C 0.06614 0.3739 0.02413 0.0
C797 C 1.02604 0.34601 1.00149 0.0
C798 C 0.04812 0.3284 1.00646 0.0
O799 O 0.9528 0.46686 0.98353 0.0
O800 O 0.96285 0.45246 1.00323 0.0
O801 O 0.95632 0.34777 0.01034 0.0
O802 O 0.92569 0.38298 1.00903 0.0
O803 O 0.07231 0.48901 0.98289 0.0
O804 O 0.05183 0.46035 1.00213 0.0
O805 O 1.01016 0.39253 0.98283 0.0
O806 O 1.03698 0.45166 0.97039 0.0
O807 O 0.06555 0.55232 0.96717 0.0
O808 O 1.01179 0.50924 0.95737 0.0
O809 O 0.95107 0.38424 0.98231 0.0
O810 O 0.96585 0.43941 0.96899 0.0
C811 C 0.94072 0.45932 0.99515 0.0
C812 C 0.07984 0.47552 0.99335 0.0
C813 C 0.91808 0.34741 0.02796 0.0
C814 C 0.89151 0.30591 0.04698 0.0
C815 C 0.92837 0.38036 0.04814 0.0
C816 C 0.93304 0.38293 0.03528 0.0
C817 C 0.90804 0.34229 0.05395 0.0
C818 C 0.89658 0.30856 0.03387 0.0
C819 C 0.92589 0.35182 0.01431 0.0
C820 C 0.08589 0.3888 0.03558 0.0
C821 C 0.08398 0.42098 0.04153 0.0
H822 H 0.08509 0.32844 0.02167 0.0
C823 C 1.0305 0.41448 0.97294 0.0
C824 C 0.94554 0.39987 0.97185 0.0
C825 C 0.07422 0.53704 0.94643 0.0
C826 C 0.13888 0.56773 0.93496 0.0
C827 C 0.0856 0.49809 0.93038 0.0
C828 C 0.06059 0.50079 0.93949 0.0
C829 C 0.12445 0.53126 0.9281 0.0
C830 C 0.11342 0.57025 0.94414 0.0
C831 C 0.04853 0.53994 0.95637 0.0
H832 H 0.94038 0.40809 0.05363 0.0
H833 H 0.94823 0.41292 0.03105 0.0
H834 H 0.90446 0.34124 0.06396 0.0
H835 H 0.88436 0.28081 0.02837 0.0
H836 H 0.07479 0.47021 0.92504 0.0
H837 H 1.0307 0.47438 0.94109 0.0
H838 H 0.14293 0.52844 0.92086 0.0
H839 H 0.12427 0.59777 0.9497 0.0
C840 C 0.44469 0.96198 0.15199 0.0
C841 C 0.43325 1.01292 0.16239 0.0
C842 C 0.46004 1.00112 0.15699 0.0
C843 C 0.39095 0.98519 0.16257 0.0
C844 C 0.40223 0.93414 0.15214 0.0
C845 C 0.37549 0.94598 0.15743 0.0
N846 N 0.47134 0.95075 0.14732 0.0
C847 C 0.45768 0.91284 0.1423 0.0
C848 C 0.38799 0.89494 0.14715 0.0
C849 C 0.41584 0.88425 0.14223 0.0
Gd850 Gd 0.61025 0.97125 0.16683 0.0
Gd851 Gd 0.53967 1.00279 0.14665 0.0
N852 N 0.50114 0.02734 0.15676 0.0
C853 C 0.44979 0.05228 0.16748 0.0
C854 C 0.51744 0.06591 0.16154 0.0
C855 C 0.49204 0.07886 0.16704 0.0
H856 H 0.54989 0.08705 0.16097 0.0
H857 H 0.50503 0.10946 0.17086 0.0
H858 H 0.61225 0.89394 0.15187 0.0
H859 H 0.47884 0.90463 0.13823 0.0
H860 H 0.66104 0.88194 0.13971 0.0
H861 H 0.43021 0.06248 0.17172 0.0
H862 H 0.36992 0.99375 0.16668 0.0
H863 H 0.66881 0.05514 0.18422 0.0
H864 H 0.35561 0.87272 0.14706 0.0
H865 H 0.40507 0.85407 0.13832 0.0
H866 H 0.78869 1.00746 0.14393 0.0
H867 H 0.34281 0.9249 0.15769 0.0
H868 H 0.79173 0.11072 0.17081 0.0
H869 H 0.73976 0.11243 0.18455 0.0
N870 N 0.67841 1.02518 0.16891 0.0
C871 C 0.70731 1.02138 0.16235 0.0
C872 C 0.69025 0.05585 0.17745 0.0
C873 C 0.76016 0.08636 0.17029 0.0
C874 C 0.73089 0.08758 0.17799 0.0
C875 C 0.74882 0.05227 0.16264 0.0
H876 H 0.80977 0.07098 0.15573 0.0
N877 N 0.65573 0.95543 0.15635 0.0
C878 C 0.69572 0.9852 0.15598 0.0
C879 C 0.712 0.94217 0.14325 0.0
C880 C 0.72489 0.97953 0.14933 0.0
C881 C 0.64338 0.91835 0.15088 0.0
C882 C 0.67114 0.91129 0.14414 0.0
O883 O 0.51665 0.97288 0.16568 0.0
O884 O 0.54047 0.9279 0.16761 0.0
O885 O 0.61856 0.92457 0.17632 0.0
O886 O 0.61087 0.9683 0.18715 0.0
O887 O 0.5931 0.05711 0.15604 0.0
O888 O 0.60527 0.02812 0.1733 0.0
O889 O 0.63531 0.99821 0.14735 0.0
O890 O 0.6074 0.03954 0.14361 0.0
O891 O 0.53666 0.04883 0.13499 0.0
O892 O 0.51848 0.98845 0.1277 0.0
O893 O 0.56422 0.92154 0.15403 0.0
O894 O 0.55517 0.95709 0.13799 0.0
C895 C 0.5105 0.93641 0.16889 0.0
C896 C 0.61151 0.06106 0.16683 0.0
C897 C 0.64963 0.93994 0.19617 0.0
C898 C 0.67132 0.91119 0.21329 0.0
C899 C 0.72087 0.97336 0.20258 0.0
C900 C 0.69028 0.97132 0.19481 0.0
C901 C 0.71159 0.94369 0.21171 0.0
C902 C 0.64011 0.90982 0.20553 0.0
C903 C 0.61779 0.93749 0.18745 0.0
C904 C 0.76587 1.01111 0.14906 0.0
C905 C 0.77784 0.04736 0.15573 0.0
H906 H 0.73346 0.93661 0.13803 0.0
C907 C 0.63387 0.02758 0.14097 0.0
C908 C 0.55854 0.92593 0.14215 0.0
C909 C 0.55659 0.04448 0.11436 0.0
C910 C 0.59395 0.10181 0.10013 0.0
C911 C 0.60275 0.04208 0.09892 0.0
C912 C 0.57517 1.02396 0.10869 0.0
C913 C 0.61233 0.0809 0.09467 0.0
C914 C 0.56608 0.08336 0.10999 0.0
C915 C 0.52859 1.02616 0.12506 0.0
H916 H 0.75208 0.99794 0.20144 0.0
H917 H 0.69864 0.99414 0.18766 0.0
H918 H 0.73614 0.94628 0.2176 0.0
H919 H 0.60893 0.88496 0.20652 0.0
H920 H 0.61676 1.02594 0.09465 0.0
H921 H 0.56868 0.99401 0.11184 0.0
H922 H 0.63367 0.09431 0.08702 0.0
H923 H 0.55225 0.09952 0.11442 0.0
C924 C 0.52655 0.44509 0.31868 0.0
C925 C 0.47017 0.43213 0.33255 0.0
C926 C 0.5059 0.45975 0.32604 0.0
C927 C 0.45519 0.38978 0.33149 0.0
C928 C 0.51151 0.40253 0.31767 0.0
C929 C 0.47574 0.37505 0.32407 0.0
N930 N 0.56159 0.47233 0.31271 0.0
C931 C 0.5825 0.45902 0.30545 0.0
C932 C 0.533 0.38877 0.31032 0.0
C933 C 0.56871 0.41711 0.30424 0.0
Gd934 Gd 0.67765 0.60622 0.33593 0.0
Gd935 Gd 0.57789 0.54095 0.31457 0.0
N936 N 0.52149 0.50096 0.32717 0.0
C937 C 0.4507 0.44791 0.34002 0.0
C938 C 0.50215 0.51654 0.33419 0.0
C939 C 0.46671 0.49027 0.34082 0.0
H940 H 0.51363 0.54911 0.33461 0.0
H941 H 0.45156 0.50268 0.34646 0.0
H942 H 0.75156 0.58357 0.32841 0.0
H943 H 0.60911 0.48028 0.30026 0.0
H944 H 0.81737 0.61566 0.31713 0.0
H945 H 0.42321 0.42768 0.34517 0.0
H946 H 0.42781 0.36814 0.33644 0.0
H947 H 0.66532 0.68329 0.34641 0.0
H948 H 0.52217 0.3563 0.30925 0.0
H949 H 0.58532 0.40665 0.29847 0.0
H950 H 0.84789 0.75462 0.31097 0.0
H951 H 0.46389 0.34228 0.32342 0.0
H952 H 0.75923 0.79548 0.33075 0.0
H953 H 0.69658 0.75812 0.34354 0.0
N954 N 0.70837 0.67811 0.33487 0.0
C955 C 0.74399 0.69835 0.32845 0.0
C956 C 0.69223 0.69924 0.34069 0.0
C957 C 0.74539 0.76261 0.33191 0.0
C958 C 0.71006 0.74165 0.33915 0.0
C959 C 0.76327 0.74109 0.32665 0.0
H960 H 0.81535 0.79376 0.31839 0.0
N961 N 0.74355 0.63569 0.32689 0.0
C962 C 0.76196 0.67628 0.32419 0.0
C963 C 0.81959 0.67385 0.31515 0.0
C964 C 0.80025 0.69643 0.31814 0.0
C965 C 0.76412 0.6146 0.32505 0.0
C966 C 0.80183 0.63294 0.31887 0.0
O967 O 0.58408 0.51977 0.33401 0.0
O968 O 0.65057 0.53672 0.33511 0.0
O969 O 0.72611 0.61767 0.34907 0.0
O970 O 0.66518 0.59734 0.3559 0.0
O971 O 0.57854 0.59571 0.3236 0.0
O972 O 0.61868 0.60866 0.34123 0.0
O973 O 0.66394 0.64231 0.32132 0.0
O974 O 0.63322 0.59467 0.30587 0.0
O975 O 0.53949 0.56053 0.30489 0.0
O976 O 0.54344 0.50822 0.29832 0.0
O977 O 0.68145 0.56104 0.32224 0.0
O978 O 0.63728 0.55123 0.30592 0.0
C979 C 0.6118 0.50908 0.33652 0.0
C980 C 0.59323 0.61527 0.33419 0.0
C981 C 0.72156 0.63592 0.36975 0.0
C982 C 0.76822 0.65751 0.38773 0.0
C983 C 0.7339 0.69563 0.38178 0.0
C984 C 0.7145 0.66873 0.37192 0.0
C985 C 0.76066 0.69029 0.38957 0.0
C986 C 0.74817 0.63012 0.37779 0.0
C987 C 0.70305 0.60871 0.35885 0.0
C988 C 0.81871 0.73869 0.31574 0.0
C989 C 0.80023 0.76099 0.31999 0.0
H990 H 0.849 0.68814 0.31049 0.0
C991 C 0.65162 0.63283 0.30972 0.0
C992 C 0.67111 0.55357 0.31038 0.0
C993 C 0.54107 0.55161 0.2832 0.0
C994 C 0.52038 0.57179 0.26421 0.0
C995 C 0.58761 0.57769 0.26561 0.0
C996 C 0.57885 0.56197 0.27767 0.0
C997 C 0.55858 0.58261 0.25888 0.0
C998 C 0.51206 0.55667 0.27647 0.0
C999 C 0.53153 0.53455 0.29585 0.0
H1000 H 0.72831 0.72092 0.38336 0.0
H1001 H 0.69419 0.67371 0.36596 0.0
H1002 H 0.77523 0.71168 0.39714 0.0
H1003 H 0.75401 0.60498 0.37612 0.0
H1004 H 0.61687 0.5858 0.26144 0.0
H1005 H 0.60151 0.55777 0.28267 0.0
H1006 H 0.56575 0.59422 0.24946 0.0
H1007 H 0.48307 0.5489 0.28082 0.0
H1008 H 0.11373 0.66462 0.21615 0.0
H1009 H 0.1534 0.71136 0.2328 0.0
H1010 H 0.0455 0.71298 0.24568 0.0
H1011 H 1.00521 0.66534 0.22882 0.0
H1012 H 0.17258 0.78695 0.23953 0.0
H1013 H 0.0809 0.67867 0.27704 0.0
H1014 H 0.07437 0.66399 0.26087 0.0
H1015 H 0.05243 0.69347 0.26691 0.0
C1016 C 0.09853 0.67567 0.22233 0.0
C1017 C 0.05636 0.66158 0.22106 0.0
C1018 C 0.12131 0.70235 0.23193 0.0
C1019 C 0.10258 0.71534 0.24075 0.0
C1020 C 0.06069 0.70284 0.2392 0.0
H1021 H 0.26608 0.90971 0.29258 0.0
H1022 H 0.21084 0.86892 0.27789 0.0
C1023 C 1.03775 0.67617 0.22943 0.0
C1024 C 0.12742 0.74109 0.25155 0.0
H1025 H 0.13635 0.74235 0.28333 0.0
C1026 C 0.16436 0.7773 0.2491 0.0
C1027 C 0.11741 0.72834 0.26411 0.0
C1028 C 0.07935 0.68883 0.26745 0.0
C1029 C 0.19148 0.80068 0.25869 0.0
C1030 C 0.18124 0.78836 0.27127 0.0
C1031 C 0.14419 0.75224 0.27376 0.0
C1032 C 0.2096 0.81174 0.2818 0.0
C1033 C 0.23179 0.83752 0.25515 0.0
C1034 C 0.22557 0.79296 0.28963 0.0
C1035 C 0.25659 0.81622 0.2983 0.0
C1036 C 0.27218 0.85873 0.29936 0.0
C1037 C 0.25433 0.87694 0.2921 0.0
C1038 C 0.22314 0.85368 0.28354 0.0
H1039 H 0.23969 0.83636 0.24526 0.0
H1040 H 0.22967 0.86573 0.25645 0.0
H1041 H 0.25709 0.83987 0.26105 0.0
H1042 H 0.2157 0.76069 0.28857 0.0
H1043 H 0.27031 0.80149 0.30356 0.0
H1044 H 0.38355 0.17294 0.48039 0.0
H1045 H 0.38679 0.13655 0.46196 0.0
H1046 H 0.44417 0.2502 0.4415 0.0
H1047 H 0.44157 0.28694 0.46015 0.0
H1048 H 0.34877 0.12689 0.44026 0.0
H1049 H 0.51548 0.20328 0.43129 0.0
H1050 H 0.49476 0.21063 0.44552 0.0
H1051 H 0.49582 0.23813 0.43169 0.0
C1052 C 0.39776 0.1904 0.47204 0.0
C1053 C 0.41266 0.23301 0.47182 0.0
C1054 C 0.39932 0.16944 0.46144 0.0
C1055 C 0.41583 0.19028 0.45021 0.0
C1056 C 0.43194 0.23318 0.45003 0.0
H1057 H 0.44124 0.10125 0.37677 0.0
H1058 H 0.43556 0.14196 0.39368 0.0
C1059 C 0.43058 0.25433 0.46073 0.0
C1060 C 0.41396 0.16644 0.43868 0.0
H1061 H 0.47229 0.15714 0.41575 0.0
C1062 C 0.37591 0.13354 0.43495 0.0
C1063 C 0.44908 0.17483 0.43159 0.0
C1064 C 0.49114 0.20839 0.43526 0.0
C1065 C 0.37197 0.10925 0.42444 0.0
C1066 C 0.40716 0.11728 0.41743 0.0
C1067 C 0.44515 0.15059 0.42104 0.0
C1068 C 0.40555 0.09118 0.40652 0.0
C1069 C 0.32982 0.0757 0.42082 0.0
C1070 C 0.38971 0.04856 0.4078 0.0
C1071 C 0.39261 1.02514 0.39802 0.0
C1072 C 0.411 0.04357 0.38666 0.0
C1073 C 0.4255 0.08581 0.38522 0.0
C1074 C 0.42281 0.10927 0.39499 0.0
H1075 H 0.30563 0.08181 0.42442 0.0
H1076 H 0.3266 0.07215 0.41056 0.0
H1077 H 0.32446 0.04628 0.42488 0.0
H1078 H 0.37736 0.03371 0.41662 0.0
H1079 H 0.38301 0.99314 0.39965 0.0
H1080 H 0.14246 0.34398 0.6235 0.0
H1081 H 0.18602 0.34928 0.60591 0.0
H1082 H 0.28939 0.44979 0.62381 0.0
H1083 H 0.24578 0.44426 0.64166 0.0
H1084 H 0.28012 0.45588 0.59555 0.0
H1085 H 0.27498 0.31223 0.61116 0.0
H1086 H 0.2264 0.31052 0.60998 0.0
H1087 H 0.26293 0.34299 0.62138 0.0
C1088 C 0.17435 0.36766 0.62367 0.0
C1089 C 0.19059 0.39341 0.63412 0.0
C1090 C 0.19928 0.37059 0.61357 0.0
C1091 C 0.24122 0.39947 0.61357 0.0
C1092 C 0.25716 0.42712 0.62359 0.0
H1093 H 0.43686 0.39726 0.57094 0.0
H1094 H 0.38792 0.39253 0.58679 0.0
C1095 C 0.23211 0.42412 0.63377 0.0
C1096 C 0.26845 0.39853 0.60351 0.0
H1097 H 0.30672 0.33931 0.59185 0.0
C1098 C 0.28599 0.43045 0.59475 0.0
C1099 C 0.27643 0.36548 0.60245 0.0
C1100 C 0.25954 0.33091 0.61177 0.0
C1101 C 0.31071 0.42988 0.58491 0.0
C1102 C 0.31796 0.39631 0.58371 0.0
C1103 C 0.30089 0.36479 0.59261 0.0
C1104 C 0.34506 0.3944 0.57376 0.0
C1105 C 0.32917 0.46555 0.57598 0.0
C1106 C 0.33655 0.39488 0.56101 0.0
C1107 C 0.3642 0.39651 0.55187 0.0
C1108 C 0.40092 0.39777 0.5553 0.0
C1109 C 0.40837 0.39535 0.568 0.0
C1110 C 0.38059 0.39314 0.57709 0.0
H1111 H 0.33129 0.49359 0.58017 0.0
H1112 H 0.36019 0.47258 0.57293 0.0
H1113 H 0.30944 0.45763 0.56761 0.0
H1114 H 0.30913 0.39527 0.55814 0.0
H1115 H 0.35819 0.39955 0.54219 0.0
H1116 H 0.056 0.42181 0.73584 0.0
H1117 H 1.01194 0.37268 0.75157 0.0
H1118 H 0.93955 0.28854 0.72263 0.0
H1119 H 0.98438 0.33773 0.70681 0.0
H1120 H 0.93107 0.34635 0.75493 0.0
H1121 H 0.95219 0.21208 0.74662 0.0
H1122 H 0.98636 0.26205 0.74022 0.0
H1123 H 0.93744 0.22979 0.73311 0.0
C1124 C 1.03154 0.39221 0.73283 0.0
C1125 C 1.02431 0.38331 0.72007 0.0
C1126 C 1.00598 0.36428 0.74185 0.0
C1127 C 0.97217 0.32663 0.7384 0.0
C1128 C 0.96574 0.31691 0.72563 0.0
H1129 H 0.76663 0.18005 0.79051 0.0
H1130 H 0.80859 0.22613 0.77363 0.0
C1131 C 0.99164 0.34491 0.71656 0.0
C1132 C 0.94282 0.29911 0.7482 0.0
H1133 H 0.90108 0.20332 0.7611 0.0
C1134 C 0.92452 0.31505 0.75625 0.0
C1135 C 0.93412 0.2582 0.75005 0.0
C1136 C 0.95377 0.23949 0.74213 0.0
C1137 C 0.89842 0.29163 0.76607 0.0
C1138 C 0.88949 0.25063 0.76786 0.0
C1139 C 0.9075 0.23458 0.75974 0.0
C1140 C 0.86376 0.22459 0.7785 0.0
C1141 C 0.88172 0.31154 0.77469 0.0
C1142 C 0.88049 0.20852 0.787 0.0
C1143 C 0.85668 0.18245 0.79662 0.0
C1144 C 0.81509 0.17114 0.79805 0.0
C1145 C 0.79854 0.18829 0.7898 0.0
C1146 C 0.82256 0.21459 0.7801 0.0
H1147 H 0.90024 0.34548 0.77433 0.0
H1148 H 0.84997 0.30252 0.77186 0.0
H1149 H 0.88099 0.30161 0.78445 0.0
H1150 H 0.91213 0.21588 0.78612 0.0
H1151 H 0.8708 0.17044 0.80288 0.0
H1152 H 0.63625 0.95312 0.87955 0.0
H1153 H 0.63552 0.91249 0.89757 0.0
H1154 H 0.65718 1.0126 0.92188 0.0
H1155 H 0.65798 0.05305 0.90385 0.0
H1156 H 0.69872 0.97528 0.9298 0.0
H1157 H 0.53787 0.85757 0.92038 0.0
H1158 H 0.57201 0.86224 0.90802 0.0
H1159 H 0.56386 0.90447 0.91156 0.0
C1160 C 0.64176 0.96666 0.88874 0.0
C1161 C 0.64753 1.0063 0.89033 0.0
C1162 C 0.64084 0.94327 0.89906 0.0
C1163 C 0.6451 0.95889 0.9112 0.0
C1164 C 0.6534 0.99955 0.91268 0.0
H1165 H 0.61198 0.87114 0.98734 0.0
H1166 H 0.62569 0.91037 0.96807 0.0
C1167 C 0.65427 1.02287 0.90236 0.0
C1168 C 0.63946 0.9327 0.92239 0.0
H1169 H 0.57079 0.84382 0.93705 0.0
C1170 C 0.67073 0.94653 0.93135 0.0
C1171 C 0.60288 0.89507 0.92453 0.0
C1172 C 0.56708 0.87911 0.91569 0.0
C1173 C 0.66663 0.92388 0.94225 0.0
C1174 C 0.63003 0.88646 0.94441 0.0
C1175 C 0.59894 0.87233 0.9354 0.0
C1176 C 0.62276 0.86252 0.95619 0.0
C1177 C 0.70174 0.94006 0.95134 0.0
C1178 C 0.61598 0.82214 0.95602 0.0
C1179 C 0.60805 0.79945 0.96709 0.0
C1180 C 0.60602 0.81637 0.97859 0.0
C1181 C 0.61297 0.85688 0.97869 0.0
C1182 C 0.62119 0.87958 0.96766 0.0
H1183 H 0.73104 0.96274 0.94692 0.0
H1184 H 0.69538 0.95553 0.95911 0.0
H1185 H 0.70547 0.91475 0.95528 0.0
H1186 H 0.61675 0.80812 0.9473 0.0
H1187 H 0.60242 0.76826 0.96661 0.0
H1188 H 0.92074 0.6663 0.12294 0.0
H1189 H 0.87681 0.66231 0.10548 0.0
H1190 H 0.77323 0.61664 0.13022 0.0
H1191 H 0.81713 0.62003 0.14771 0.0
H1192 H 0.79184 0.5907 0.09641 0.0
H1193 H 0.79393 0.73115 0.11405 0.0
H1194 H 0.83283 0.71839 0.11827 0.0
H1195 H 0.78263 0.69039 0.12492 0.0
C1196 C 0.88831 0.65416 0.12457 0.0
C1197 C 0.8723 0.64294 0.13668 0.0
C1198 C 0.86327 0.65212 0.1146 0.0
C1199 C 0.82172 0.63951 0.11651 0.0
C1200 C 0.80519 0.62655 0.12849 0.0
H1201 H 0.63415 0.64929 0.07162 0.0
H1202 H 0.67989 0.65141 0.08814 0.0
C1203 C 0.83019 0.62808 0.13846 0.0
C1204 C 0.79671 0.64285 0.1062 0.0
H1205 H 0.75621 0.70155 0.09583 0.0
C1206 C 0.78405 0.61493 0.09627 0.0
C1207 C 0.78642 0.67439 0.10599 0.0
C1208 C 0.7997 0.70557 0.11631 0.0
C1209 C 0.76087 0.6173 0.08628 0.0
C1210 C 0.75117 0.64941 0.08594 0.0
C1211 C 0.76385 0.67722 0.09593 0.0
C1212 C 0.72612 0.65339 0.0757 0.0
C1213 C 0.7459 0.58454 0.07639 0.0
C1214 C 0.73754 0.65609 0.06309 0.0
C1215 C 0.71149 0.65555 0.05358 0.0
C1216 C 0.67368 0.65263 0.0565 0.0
C1217 C 0.6635 0.65242 0.06909 0.0
C1218 C 0.68952 0.65321 0.07856 0.0
H1219 H 0.74545 0.55635 0.07978 0.0
H1220 H 0.71463 0.57622 0.07321 0.0
H1221 H 0.76682 0.59615 0.06827 0.0
H1222 H 0.76599 0.65725 0.06057 0.0
H1223 H 0.71965 0.65469 0.04396 0.0
H1224 H 0.36288 0.95435 0.64866 0.0
H1225 H 0.31307 0.9029 0.6343 0.0
H1226 H 0.38108 0.97786 0.60311 0.0
H1227 H 0.43051 0.02934 0.61738 0.0
H1228 H 0.29608 0.94591 0.60098 0.0
H1229 H 0.33422 0.82433 0.6121 0.0
H1230 H 0.32238 0.84571 0.62539 0.0
H1231 H 0.36704 0.87742 0.61623 0.0
C1232 C 0.36693 0.96001 0.63874 0.0
C1233 C 0.40089 0.99577 0.63415 0.0
C1234 C 0.3387 0.93037 0.63053 0.0
C1235 C 0.34365 0.93605 0.61758 0.0
C1236 C 0.37673 0.97247 0.61303 0.0
H1237 H 0.2166 0.74574 0.5608 0.0
H1238 H 0.26815 0.79908 0.5742 0.0
C1239 C 0.40507 1.00184 0.62121 0.0
C1240 C 0.31426 0.90449 0.60872 0.0
H1241 H 0.27627 0.80518 0.59918 0.0
C1242 C 0.29173 0.91513 0.6006 0.0
C1243 C 0.30933 0.86461 0.60794 0.0
C1244 C 0.33474 0.85226 0.61578 0.0
C1245 C 0.2637 0.88683 0.59201 0.0
C1246 C 0.25714 0.84622 0.59165 0.0
C1247 C 0.28063 0.83596 0.59953 0.0
C1248 C 0.22578 0.81399 0.58329 0.0
C1249 C 0.24202 0.90113 0.58322 0.0
C1250 C 0.18452 0.80408 0.58391 0.0
C1251 C 0.15505 0.77395 0.57614 0.0
C1252 C 0.16573 0.75225 0.56761 0.0
C1253 C 0.20709 0.76203 0.56707 0.0
C1254 C 0.23666 0.79237 0.57484 0.0
H1255 H 0.25952 0.9349 0.58191 0.0
H1256 H 0.23718 0.88622 0.57399 0.0
H1257 H 0.21171 0.89323 0.58717 0.0
H1258 H 0.17492 0.81948 0.59049 0.0
H1259 H 0.12379 0.76787 0.5768 0.0
H1260 H 0.34172 0.12041 0.73019 0.0
H1261 H 0.34268 0.17057 0.74486 0.0
H1262 H 0.47456 0.23622 0.74404 0.0
H1263 H 0.47389 0.18552 0.72942 0.0
H1264 H 0.44008 0.22292 0.76867 0.0
H1265 H 0.3708 0.28927 0.73726 0.0
H1266 H 0.34241 0.23438 0.73854 0.0
H1267 H 0.39247 0.2588 0.73161 0.0
C1268 C 0.37104 0.14547 0.73311 0.0
C1269 C 0.40776 0.1487 0.72858 0.0
C1270 C 0.37149 0.17439 0.74146 0.0
C1271 C 0.40865 0.2075 0.74555 0.0
C1272 C 0.44544 0.21104 0.74103 0.0
H1273 H 0.45894 0.43047 0.78305 0.0
H1274 H 0.45049 0.37622 0.76887 0.0
C1275 C 0.44502 0.18218 0.73258 0.0
C1276 C 0.40889 0.23796 0.75462 0.0
H1277 H 0.37864 0.30972 0.75837 0.0
C1278 C 0.42658 0.24184 0.76642 0.0
C1279 C 0.39152 0.26295 0.75171 0.0
C1280 C 0.37352 0.26155 0.73907 0.0
C1281 C 0.42708 0.26966 0.77536 0.0
C1282 C 0.40915 0.29418 0.7725 0.0
C1283 C 0.39176 0.29049 0.76067 0.0
C1284 C 0.41155 0.32651 0.78118 0.0
C1285 C 0.44782 0.2735 0.78768 0.0
C1286 C 0.39154 0.31688 0.7928 0.0
C1287 C 0.39596 0.3482 0.80099 0.0
C1288 C 0.4208 0.38966 0.79771 0.0
C1289 C 0.43963 0.39891 0.78592 0.0
C1290 C 0.43487 0.36785 0.77776 0.0
H1291 H 0.46593 0.25741 0.78771 0.0
H1292 H 0.46844 0.30625 0.79003 0.0
H1293 H 0.42429 0.25999 0.7951 0.0
H1294 H 0.37294 0.28519 0.79561 0.0
H1295 H 0.3814 0.34003 0.81003 0.0
H1296 H 0.09555 0.40282 0.97715 0.0
H1297 H 0.14315 0.40472 0.9611 0.0
H1298 H 0.06035 0.39979 0.93257 0.0
H1299 H 1.01314 0.3982 0.94855 0.0
H1300 H 0.10283 0.35526 0.92658 0.0
H1301 H 0.2091 0.51467 0.94248 0.0
H1302 H 0.18964 0.47481 0.95395 0.0
H1303 H 0.15535 0.4884 0.94647 0.0
C1304 C 0.08672 0.40015 0.96746 0.0
C1305 C 0.05029 0.39953 0.96409 0.0
C1306 C 0.11426 0.40202 0.95828 0.0
C1307 C 0.10582 0.40334 0.94558 0.0
C1308 C 0.06776 0.39907 0.94226 0.0
H1309 H 0.24924 0.51112 0.87985 0.0
H1310 H 0.20221 0.4878 0.89748 0.0
C1311 C 0.04052 0.39764 0.95141 0.0
C1312 C 0.13772 0.41332 0.93579 0.0
H1313 H 0.22782 0.492 0.92461 0.0
C1314 C 0.13046 0.38492 0.92625 0.0
C1315 C 0.17357 0.45232 0.93523 0.0
C1316 C 0.18253 0.48456 0.945 0.0
C1317 C 0.15789 0.39449 0.9162 0.0
C1318 C 0.19341 0.4336 0.91557 0.0
C1319 C 0.2008 0.46191 0.92514 0.0
C1320 C 0.22191 0.44664 0.90468 0.0
C1321 C 0.14815 0.3633 0.90605 0.0
C1322 C 0.24882 0.43123 0.90277 0.0
C1323 C 0.27654 0.44509 0.89273 0.0
C1324 C 0.27794 0.47466 0.88434 0.0
C1325 C 0.25009 0.48915 0.8862 0.0
C1326 C 0.22279 0.47561 0.89626 0.0
H1327 H 0.11743 0.33586 0.90725 0.0
H1328 H 0.14947 0.37724 0.89684 0.0
H1329 H 0.17145 0.3533 0.90607 0.0
H1330 H 0.24892 0.40903 0.90918 0.0
H1331 H 0.2976 0.4334 0.89178 0.0
H1332 H 0.64418 0.09632 0.12926 0.0
H1333 H 0.6903 0.13471 0.11258 0.0
H1334 H 0.73961 0.05256 0.11273 0.0
H1335 H 0.69207 1.01264 0.12962 0.0
H1336 H 0.77165 0.17672 0.1122 0.0
H1337 H 0.71642 0.05619 0.07579 0.0
H1338 H 0.6889 0.0499 0.09011 0.0
H1339 H 0.73347 0.04401 0.08996 0.0
C1340 C 0.66472 0.08602 0.12588 0.0
C1341 C 0.66426 0.05113 0.13096 0.0
C1342 C 0.69127 0.10829 0.11623 0.0
C1343 C 0.71838 0.09659 0.1112 0.0
C1344 C 0.71852 0.06195 0.11625 0.0
H1345 H 0.92006 0.27743 0.0655 0.0
H1346 H 0.87969 0.22254 0.08033 0.0
C1347 C 0.69165 0.03937 0.12603 0.0
C1348 C 0.74684 0.12215 0.101 0.0
H1349 H 0.77162 0.12139 0.07034 0.0
C1350 C 0.77179 0.16443 0.10309 0.0
C1351 C 0.74679 0.10649 0.08899 0.0
C1352 C 0.71976 0.06174 0.08598 0.0
C1353 C 0.79605 0.19134 0.0936 0.0
C1354 C 0.79638 0.17572 0.08163 0.0
C1355 C 0.77167 0.13341 0.0795 0.0
C1356 C 0.82163 0.20347 0.07128 0.0
C1357 C 0.82011 0.23664 0.0964 0.0
C1358 C 0.80298 0.20953 0.06075 0.0
C1359 C 0.82627 0.24068 0.05211 0.0
C1360 C 0.86862 0.2663 0.05385 0.0
C1361 C 0.88752 0.25815 0.0639 0.0
C1362 C 0.86439 0.22697 0.07245 0.0
H1363 H 0.80889 0.24462 0.10494 0.0
H1364 H 0.85272 0.24569 0.09788 0.0
H1365 H 0.81843 0.25491 0.08853 0.0
H1366 H 0.77008 0.19179 0.05961 0.0
H1367 H 0.81077 0.24655 0.04457 0.0
H1368 H 0.66011 0.70899 0.31443 0.0
H1369 H 0.66061 0.75811 0.29915 0.0
H1370 H 0.65415 0.6784 0.26934 0.0
H1371 H 0.65498 0.63026 0.28446 0.0
H1372 H 0.71501 0.79868 0.27793 0.0
H1373 H 0.55442 0.6964 0.26324 0.0
H1374 H 0.5743 0.69109 0.27799 0.0
H1375 H 0.58581 0.67252 0.26407 0.0
C1376 C 0.65934 0.70223 0.30462 0.0
C1377 C 0.65658 0.66516 0.30068 0.0
C1378 C 0.65936 0.73022 0.29588 0.0
C1379 C 0.65638 0.72156 0.28307 0.0
C1380 C 0.65537 0.68539 0.27916 0.0
H1381 H 0.71558 0.87263 0.21762 0.0
H1382 H 0.70955 0.82777 0.23487 0.0
C1383 C 0.65565 0.65772 0.28784 0.0
C1384 C 0.65443 0.74997 0.27367 0.0
H1385 H 0.59465 0.75398 0.25026 0.0
C1386 C 0.68856 0.78905 0.27196 0.0
C1387 C 0.61967 0.73788 0.266 0.0
C1388 C 0.58121 0.69735 0.26793 0.0
C1389 C 0.68955 0.81548 0.26247 0.0
C1390 C 0.65576 0.80237 0.25426 0.0
C1391 C 0.62085 0.76401 0.25636 0.0
C1392 C 0.65701 0.82743 0.24322 0.0
C1393 C 0.72693 0.85738 0.26136 0.0
C1394 C 0.62811 0.84065 0.24165 0.0
C1395 C 0.63131 0.86633 0.23163 0.0
C1396 C 0.66348 0.87926 0.22296 0.0
C1397 C 0.69093 0.86409 0.22424 0.0
C1398 C 0.68765 0.83851 0.23417 0.0
H1399 H 0.74371 0.86748 0.27032 0.0
H1400 H 0.74807 0.85624 0.25437 0.0
H1401 H 0.71861 0.88059 0.25832 0.0
H1402 H 0.60382 0.83219 0.2484 0.0
H1403 H 0.60968 0.8774 0.23095 0.0
H1404 H 0.04934 0.63638 0.4524 0.0
H1405 H 1.00224 0.64052 0.4376 0.0
H1406 H 0.93253 0.65008 0.46802 0.0
H1407 H 0.98089 0.64775 0.48286 0.0
H1408 H 0.92609 0.59209 0.43311 0.0
H1409 H 0.93957 0.74009 0.44714 0.0
H1410 H 0.9735 0.723 0.45303 0.0
H1411 H 0.92337 0.70409 0.45972 0.0
C1412 C 1.02434 0.64004 0.45595 0.0
C1413 C 1.01927 0.64225 0.46884 0.0
C1414 C 0.99719 0.64221 0.44745 0.0
C1415 C 0.96375 0.64618 0.45155 0.0
C1416 C 0.95857 0.64831 0.46447 0.0
H1417 H 0.7565 0.58925 0.40071 0.0
H1418 H 0.80198 0.58471 0.41623 0.0
C1419 C 0.98627 0.64688 0.473 0.0
C1420 C 0.93397 0.64657 0.44225 0.0
H1421 H 0.88642 0.69985 0.43291 0.0
C1422 C 0.91761 0.61583 0.43307 0.0
C1423 C 0.92288 0.67763 0.44198 0.0
C1424 C 0.94105 0.71329 0.45091 0.0
C1425 C 0.89104 0.61533 0.42371 0.0
C1426 C 0.87894 0.64566 0.42367 0.0
C1427 C 0.89516 0.6763 0.43289 0.0
C1428 C 0.85094 0.64739 0.41395 0.0
C1429 C 0.87752 0.58302 0.41371 0.0
C1430 C 0.86231 0.68422 0.40756 0.0
C1431 C 0.83591 0.68702 0.39889 0.0
C1432 C 0.7974 0.65298 0.39622 0.0
C1433 C 0.78618 0.61585 0.4024 0.0
C1434 C 0.81238 0.61323 0.41126 0.0
H1435 H 0.89909 0.57094 0.4128 0.0
H1436 H 0.84709 0.55691 0.4162 0.0
H1437 H 0.87507 0.59523 0.40455 0.0
H1438 H 0.8917 0.71111 0.40934 0.0
H1439 H 0.8456 0.71607 0.39429 0.0
H1440 H 0.5687 0.65627 0.31845 0.0
H1441 H 0.55037 0.70875 0.32286 0.0
H1442 H 0.57101 0.70067 0.36191 0.0
H1443 H 0.59122 0.6488 0.35739 0.0
H1444 H 0.49277 0.71174 0.33383 0.0
H1445 H 0.63019 0.82073 0.36011 0.0
H1446 H 0.62739 0.7771 0.3522 0.0
H1447 H 0.60461 0.77129 0.36735 0.0
C1448 C 0.5695 0.66548 0.32804 0.0
C1449 C 0.58161 0.64765 0.33754 0.0
C1450 C 0.55888 0.69594 0.33057 0.0
C1451 C 0.55953 0.71009 0.34275 0.0
C1452 C 0.57117 0.69195 0.35234 0.0
H1453 H 0.47532 0.87306 0.37463 0.0
H1454 H 0.4964 0.82197 0.37061 0.0
C1455 C 0.58242 0.66165 0.34977 0.0
C1456 C 0.54688 0.74258 0.3452 0.0
H1457 H 0.57428 0.83381 0.36018 0.0
C1458 C 0.51105 0.73847 0.33954 0.0
C1459 C 0.5701 0.77824 0.3526 0.0
C1460 C 0.61041 0.78742 0.3583 0.0
C1461 C 0.49785 0.76775 0.34117 0.0
C1462 C 0.5207 0.80289 0.3487 0.0
C1463 C 0.55638 0.80711 0.35441 0.0
C1464 C 0.50754 0.83482 0.35098 0.0
C1465 C 0.45881 0.76041 0.33498 0.0
C1466 C 0.50634 0.85989 0.34135 0.0
C1467 C 0.4946 0.8899 0.34368 0.0
C1468 C 0.48355 0.89587 0.35573 0.0
C1469 C 0.48395 0.87008 0.36525 0.0
C1470 C 0.49609 0.84056 0.36295 0.0
H1471 H 0.44067 0.72863 0.33138 0.0
H1472 H 0.43958 0.7663 0.34158 0.0
H1473 H 0.46643 0.7819 0.32705 0.0
H1474 H 0.51521 0.85677 0.33201 0.0
H1475 H 0.49509 0.90907 0.33608 0.0
H1476 H 0.60959 0.44403 0.50539 0.0
H1477 H 0.68109 0.46207 0.50127 0.0
H1478 H 0.71302 0.505 0.53895 0.0
H1479 H 0.64189 0.48449 0.54324 0.0
H1480 H 0.75103 0.53146 0.50077 0.0
H1481 H 0.76933 0.44045 0.5379 0.0
H1482 H 0.72002 0.43438 0.53396 0.0
H1483 H 0.75407 0.47496 0.54424 0.0
C1484 C 0.63163 0.45644 0.51289 0.0
C1485 C 0.61934 0.46291 0.52468 0.0
C1486 C 0.67293 0.46723 0.51048 0.0
C1487 C 0.70339 0.4846 0.5198 0.0
C1488 C 0.69084 0.4908 0.53157 0.0
H1489 H 0.97423 0.59532 0.52275 0.0
H1490 H 0.90174 0.57288 0.52701 0.0
C1491 C 0.64976 0.47969 0.53398 0.0
C1492 C 0.74814 0.49746 0.51722 0.0
H1493 H 0.83122 0.49242 0.52864 0.0
C1494 C 0.76822 0.52246 0.50685 0.0
C1495 C 0.77166 0.48625 0.52503 0.0
C1496 C 0.75254 0.4572 0.53582 0.0
C1497 C 0.81031 0.53697 0.5043 0.0
C1498 C 0.83384 0.52626 0.51222 0.0
C1499 C 0.81387 0.50124 0.52256 0.0
C1500 C 0.87865 0.53976 0.50975 0.0
C1501 C 0.82955 0.56462 0.49323 0.0
C1502 C 0.89071 0.52832 0.49874 0.0
C1503 C 0.93218 0.54084 0.49633 0.0
C1504 C 0.96355 0.56552 0.50481 0.0
C1505 C 0.95144 0.57658 0.51592 0.0
C1506 C 0.9097 0.56364 0.51839 0.0
H1507 H 0.81118 0.57872 0.49005 0.0
H1508 H 0.86104 0.58943 0.49541 0.0
H1509 H 0.83151 0.54635 0.48542 0.0
H1510 H 0.86788 0.50938 0.49195 0.0
H1511 H 0.93963 0.53151 0.48764 0.0
H1512 H 0.40939 0.9547 0.68957 0.0
H1513 H 0.35868 0.88253 0.69402 0.0
H1514 H 0.37368 0.8492 0.65687 0.0
H1515 H 0.42447 0.9199 0.65256 0.0
H1516 H 0.28541 0.82786 0.68529 0.0
H1517 H 0.38609 0.76383 0.67447 0.0
H1518 H 0.40555 0.81823 0.67573 0.0
H1519 H 0.38233 0.79157 0.66147 0.0
C1520 C 0.4023 0.93195 0.6824 0.0
C1521 C 0.42228 0.94386 0.67076 0.0
C1522 C 0.37296 0.89035 0.68493 0.0
C1523 C 0.36252 0.85913 0.67595 0.0
C1524 C 0.38173 0.87145 0.66426 0.0
H1525 H 0.18181 0.59301 0.66924 0.0
H1526 H 0.23481 0.66493 0.66563 0.0
C1527 C 0.41108 0.91258 0.66178 0.0
C1528 C 0.33123 0.81416 0.67853 0.0
H1529 H 0.31458 0.71555 0.67574 0.0
C1530 C 0.29219 0.80353 0.68329 0.0
C1531 C 0.33906 0.78136 0.67598 0.0
C1532 C 0.38065 0.78931 0.67176 0.0
C1533 C 0.26125 0.76207 0.68522 0.0
C1534 C 0.26896 0.72941 0.68248 0.0
C1535 C 0.30795 0.73997 0.67778 0.0
C1536 C 0.23745 0.68447 0.6847 0.0
C1537 C 0.21992 0.75354 0.68992 0.0
C1538 C 0.22167 0.67011 0.69668 0.0
C1539 C 0.19186 0.62879 0.69877 0.0
C1540 C 0.17608 0.59997 0.689 0.0
C1541 C 0.19292 0.61387 0.67706 0.0
C1542 C 0.22321 0.65535 0.67496 0.0
H1543 H 0.21508 0.78014 0.68847 0.0
H1544 H 0.19485 0.72633 0.68524 0.0
H1545 H 0.21785 0.7471 0.70005 0.0
H1546 H 0.23255 0.69094 0.70451 0.0
H1547 H 0.18113 0.61935 0.70817 0.0
H1548 H 0.56976 0.44521 0.82718 0.0
H1549 H 0.58977 0.39254 0.83068 0.0
H1550 H 0.46356 0.30222 0.8368 0.0
H1551 H 0.44356 0.35445 0.83338 0.0
H1552 H 0.57013 0.33534 0.8535 0.0
H1553 H 0.5071 0.25126 0.80927 0.0
H1554 H 0.52077 0.30437 0.81116 0.0
H1555 H 0.47484 0.26476 0.81814 0.0
C1556 C 0.54618 0.4142 0.82931 0.0
C1557 C 0.50489 0.40478 0.83017 0.0
C1558 C 0.55774 0.38387 0.83134 0.0
C1559 C 0.52838 0.34275 0.83401 0.0
C1560 C 0.48716 0.3333 0.83475 0.0
H1561 H 0.53133 0.10854 0.8421 0.0
H1562 H 0.51444 0.16285 0.83822 0.0
C1563 C 0.4757 0.36362 0.83291 0.0
C1564 C 0.54054 0.30988 0.83609 0.0
H1565 H 0.53302 0.22206 0.82353 0.0
C1566 C 0.56219 0.31074 0.84688 0.0
C1567 C 0.52992 0.27697 0.82767 0.0
C1568 C 0.50709 0.27407 0.81585 0.0
C1569 C 0.57262 0.27984 0.84957 0.0
C1570 C 0.56283 0.24718 0.84102 0.0
C1571 C 0.54111 0.24652 0.8302 0.0
C1572 C 0.57401 0.21335 0.84317 0.0
C1573 C 0.59251 0.28192 0.86193 0.0
C1574 C 0.61363 0.22219 0.84695 0.0
C1575 C 0.62316 0.1907 0.84941 0.0
C1576 C 0.59368 0.14886 0.84805 0.0
C1577 C 0.55481 0.14006 0.84359 0.0
C1578 C 0.54513 0.17152 0.84126 0.0
H1579 H 0.58483 0.29884 0.86893 0.0
H1580 H 0.58289 0.25091 0.86565 0.0
H1581 H 0.62626 0.29863 0.86077 0.0
H1582 H 0.6376 0.25367 0.84803 0.0
H1583 H 0.65362 0.19925 0.85266 0.0
H1584 H 0.11774 0.48334 0.01613 0.0
H1585 H 0.18924 0.50346 0.02036 0.0
H1586 H 0.21427 0.51491 0.98103 0.0
H1587 H 0.14275 0.49484 0.97678 0.0
H1588 H 0.23711 0.47152 0.01491 0.0
H1589 H 0.30592 0.62335 0.99206 0.0
H1590 H 0.25165 0.59295 0.9949 0.0
H1591 H 0.27445 0.58203 0.98178 0.0
C1592 C 0.13816 0.4896 1.00835 0.0
C1593 C 0.12379 0.48707 0.9961 0.0
C1594 C 0.17951 0.50154 0.01079 0.0
C1595 C 0.20821 0.51178 1.00108 0.0
C1596 C 0.1937 0.50856 0.98881 0.0
H1597 H 0.47341 0.58596 1.00055 0.0
H1598 H 0.40256 0.56559 0.99453 0.0
C1599 C 0.15238 0.4967 0.98637 0.0
C1600 C 0.25276 0.52499 1.00382 0.0
H1601 H 0.35209 0.6011 0.99866 0.0
C1602 C 0.26207 0.49999 0.01137 0.0
C1603 C 0.28613 0.56209 0.99924 0.0
C1604 C 0.27915 0.59188 0.99165 0.0
C1605 C 0.30291 0.51057 0.0143 0.0
C1606 C 0.33622 0.54773 1.0098 0.0
C1607 C 0.32704 0.57257 1.00214 0.0
C1608 C 0.38034 0.56174 0.01333 0.0
C1609 C 0.31007 0.48117 0.02202 0.0
C1610 C 0.39255 0.56768 0.02587 0.0
C1611 C 0.4331 0.57969 0.02931 0.0
C1612 C 0.46321 0.58612 0.02036 0.0
C1613 C 0.4514 0.58136 1.00775 0.0
C1614 C 0.41063 0.56951 1.00429 0.0
H1615 H 0.28341 0.44961 0.02172 0.0
H1616 H 0.33759 0.48027 0.01873 0.0
H1617 H 0.31507 0.49147 0.03185 0.0
H1618 H 0.37062 0.56312 0.03309 0.0
H1619 H 0.44082 0.5839 0.03909 0.0
H1620 H 0.88386 0.42754 0.20909 0.0
H1621 H 0.83153 0.35669 0.20498 0.0
H1622 H 0.84462 0.38125 0.16565 0.0
H1623 H 0.8981 0.45236 0.16975 0.0
H1624 H 0.75715 0.32057 0.19465 0.0
H1625 H 0.85314 0.27864 0.16602 0.0
H1626 H 0.87444 0.32584 0.17471 0.0
H1627 H 0.85026 0.32166 0.15994 0.0
C1628 C 0.87598 0.41808 0.19952 0.0
C1629 C 0.89616 0.44639 0.18979 0.0
C1630 C 0.84554 0.37712 0.19716 0.0
C1631 C 0.83386 0.36229 0.18496 0.0
C1632 C 0.85321 0.39078 0.17519 0.0
H1633 H 0.65828 0.12534 0.15143 0.0
H1634 H 0.70996 0.19559 0.15626 0.0
C1635 C 0.88374 0.43201 0.17755 0.0
C1636 C 0.80133 0.31756 0.18262 0.0
H1637 H 0.78224 0.22985 0.16695 0.0
C1638 C 0.76292 0.30085 0.18862 0.0
C1639 C 0.80797 0.29079 0.17481 0.0
C1640 C 0.84878 0.3049 0.16859 0.0
C1641 C 0.73134 0.25957 0.18679 0.0
C1642 C 0.73786 0.23285 0.17891 0.0
C1643 C 0.77641 0.24953 0.17299 0.0
C1644 C 0.70497 0.18843 0.17624 0.0
C1645 C 0.69063 0.24553 0.19306 0.0
C1646 C 0.68386 0.15926 0.18573 0.0
C1647 C 0.65345 0.11825 0.18294 0.0
C1648 C 0.64335 0.10468 0.17053 0.0
C1649 C 0.6646 0.13397 0.16112 0.0
C1650 C 0.69475 0.17463 0.16389 0.0
H1651 H 0.6865 0.27183 0.19576 0.0
H1652 H 0.66488 0.22495 0.18691 0.0
H1653 H 0.68908 0.22844 0.20165 0.0
H1654 H 0.69116 0.16795 0.19538 0.0
H1655 H 0.63796 0.09716 0.19051 0.0
H1656 H 0.13236 0.54455 0.51933 0.0
H1657 H 0.1825 0.52222 0.52337 0.0
H1658 H 0.27112 0.62154 0.50085 0.0
H1659 H 0.22045 0.64332 0.49656 0.0
H1660 H 0.27326 0.55326 0.49529 0.0
H1661 H 0.2778 0.56532 0.54652 0.0
H1662 H 0.22703 0.53242 0.5408 0.0
H1663 H 0.253 0.58619 0.537 0.0
C1664 C 0.16263 0.56189 0.5153 0.0
C1665 C 0.17197 0.59565 0.50751 0.0
C1666 C 0.19166 0.54925 0.51772 0.0
C1667 C 0.2314 0.57021 0.51259 0.0
C1668 C 0.24101 0.60454 0.50501 0.0
H1669 H 0.43798 0.53821 0.53709 0.0
H1670 H 0.38806 0.56069 0.53336 0.0
C1671 C 0.21197 0.61729 0.50262 0.0
C1672 C 0.26229 0.55577 0.51481 0.0
H1673 H 0.30973 0.53012 0.53763 0.0
C1674 C 0.28116 0.54832 0.50457 0.0
C1675 C 0.27367 0.5496 0.52689 0.0
C1676 C 0.25717 0.55918 0.53843 0.0
C1677 C 0.31005 0.53463 0.50603 0.0
C1678 C 0.32039 0.52712 0.5181 0.0
C1679 C 0.30193 0.53515 0.52834 0.0
C1680 C 0.35111 0.51243 0.52036 0.0
C1681 C 0.33009 0.52956 0.49452 0.0
C1682 C 0.34755 0.47706 0.51455 0.0
C1683 C 0.37657 0.46406 0.51666 0.0
C1684 C 0.41011 0.48563 0.52473 0.0
C1685 C 0.41307 0.52054 0.53072 0.0
C1686 C 0.38417 0.53355 0.52861 0.0
H1687 H 0.32861 0.54787 0.48663 0.0
H1688 H 0.36269 0.53892 0.49626 0.0
H1689 H 0.31378 0.49687 0.49168 0.0
H1690 H 0.32203 0.45906 0.50843 0.0
H1691 H 0.37257 0.43704 0.51193 0.0
H1692 H 0.61391 0.10242 0.68286 0.0
H1693 H 0.68621 0.15264 0.68665 0.0
H1694 H 0.67298 0.24251 0.66529 0.0
H1695 H 0.60095 0.19206 0.66131 0.0
H1696 H 0.74421 0.24646 0.65934 0.0
H1697 H 0.73597 0.24651 0.71069 0.0
H1698 H 0.71954 0.19659 0.70432 0.0
H1699 H 0.69076 0.22219 0.70109 0.0
C1700 C 0.62634 0.13291 0.67899 0.0
C1701 C 0.60118 0.14282 0.67173 0.0
C1702 C 0.6679 0.16201 0.68128 0.0
C1703 C 0.68586 0.20228 0.67648 0.0
C1704 C 0.66059 0.21209 0.66922 0.0
H1705 H 0.91876 0.41444 0.70156 0.0
H1706 H 0.8474 0.36246 0.69778 0.0
C1707 C 0.61901 0.1831 0.667 0.0
C1708 C 0.73071 0.23387 0.67881 0.0
H1709 H 0.80241 0.28248 0.70181 0.0
C1710 C 0.75674 0.25421 0.66866 0.0
C1711 C 0.74791 0.24508 0.69093 0.0
C1712 C 0.72207 0.2268 0.70239 0.0
C1713 C 0.79857 0.28444 0.67023 0.0
C1714 C 0.81608 0.29483 0.68234 0.0
C1715 C 0.7899 0.2748 0.69249 0.0
C1716 C 0.86081 0.3269 0.6847 0.0
C1717 C 0.82324 0.30585 0.65882 0.0
C1718 C 0.89349 0.32493 0.67887 0.0
C1719 C 0.93479 0.35502 0.68103 0.0
C1720 C 0.94536 0.38828 0.68917 0.0
C1721 C 0.91261 0.38977 0.69517 0.0
C1722 C 0.87132 0.35969 0.69302 0.0
H1723 H 0.80322 0.3038 0.65093 0.0
H1724 H 0.84496 0.33869 0.66071 0.0
H1725 H 0.84106 0.29096 0.65588 0.0
H1726 H 0.8872 0.29979 0.67267 0.0
H1727 H 0.95841 0.35209 0.67626 0.0
H1728 H 0.56304 0.9478 0.83218 0.0
H1729 H 0.54323 0.87545 0.82829 0.0
H1730 H 0.54606 0.85611 0.86765 0.0
H1731 H 0.56527 0.92728 0.87151 0.0
H1732 H 0.57907 0.82803 0.83286 0.0
H1733 H 0.43588 0.76078 0.8602 0.0
H1734 H 0.46378 0.81452 0.85629 0.0
H1735 H 0.47959 0.79517 0.86923 0.0
C1736 C 0.55973 0.92827 0.84 0.0
C1737 C 0.56663 0.94442 0.85219 0.0
C1738 C 0.54812 0.88647 0.83778 0.0
C1739 C 0.54213 0.859 0.84765 0.0
C1740 C 0.54915 0.87537 0.85976 0.0
H1741 H 0.47851 0.59452 0.85311 0.0
H1742 H 0.49793 0.66644 0.85788 0.0
C1743 C 0.56066 0.91678 0.86197 0.0
C1744 C 0.52931 0.81382 0.84544 0.0
H1745 H 0.45916 0.71479 0.85403 0.0
C1746 C 0.5526 0.80346 0.83745 0.0
C1747 C 0.49499 0.78072 0.85143 0.0
C1748 C 0.46688 0.78823 0.85967 0.0
C1749 C 0.54322 0.76217 0.83549 0.0
C1750 C 0.50883 0.7291 0.84143 0.0
C1751 C 0.48563 0.73941 0.84946 0.0
C1752 C 0.49554 0.68403 0.83884 0.0
C1753 C 0.5713 0.75441 0.82734 0.0
C1754 C 0.48624 0.66846 0.82666 0.0
C1755 C 0.47469 0.62736 0.82397 0.0
C1756 C 0.47193 0.59946 0.83329 0.0
C1757 C 0.48009 0.6145 0.84561 0.0
C1758 C 0.49146 0.656 0.84834 0.0
H1759 H 0.60184 0.78224 0.82632 0.0
H1760 H 0.57552 0.72932 0.8312 0.0
H1761 H 0.55767 0.74518 0.81793 0.0
H1762 H 0.48773 0.68819 0.8191 0.0
H1763 H 0.46813 0.61751 0.81438 0.0
H1764 H 0.70982 0.62211 0.01617 0.0
H1765 H 0.75899 0.5995 0.01124 0.0
H1766 H 0.67846 0.48179 0.02765 0.0
H1767 H 0.62817 0.50364 0.03199 0.0
H1768 H 0.80334 0.57758 0.02427 0.0
H1769 H 0.70091 0.44249 0.99591 0.0
H1770 H 0.68656 0.47957 1.00083 0.0
H1771 H 0.68143 0.43982 0.0113 0.0
C1772 C 0.70194 0.59109 0.01849 0.0
C1773 C 0.66405 0.5646 0.02419 0.0
C1774 C 0.73056 0.57819 0.01578 0.0
C1775 C 0.72261 0.5383 0.01873 0.0
C1776 C 0.68534 0.5122 0.02481 0.0
H1777 H 0.92303 0.47567 0.01884 0.0
H1778 H 0.87059 0.49318 0.02501 0.0
C1779 C 0.65652 0.525 0.02743 0.0
C1780 C 0.75359 0.52467 0.01565 0.0
H1781 H 0.76525 0.44924 1.00129 0.0
C1782 C 0.7948 0.54945 0.01924 0.0
C1783 C 0.74337 0.48829 1.00889 0.0
C1784 C 0.70079 0.46122 1.00389 0.0
C1785 C 0.82539 0.53903 0.01639 0.0
C1786 C 0.81493 0.50198 0.00999 0.0
C1787 C 0.77378 0.47734 1.00633 0.0
C1788 C 0.8463 0.48924 1.00648 0.0
C1789 C 0.86906 0.56893 0.01984 0.0
C1790 C 0.84968 0.47902 0.99409 0.0
C1791 C 0.87929 0.46824 0.99059 0.0
C1792 C 0.90686 0.46733 0.99932 0.0
C1793 C 0.90268 0.47618 0.0118 0.0
C1794 C 0.87285 0.48683 0.01532 0.0
H1795 H 0.87387 0.60032 0.02129 0.0
H1796 H 0.87686 0.55894 0.02864 0.0
H1797 H 0.89033 0.57023 0.01249 0.0
H1798 H 0.82983 0.48017 0.987 0.0
H1799 H 0.881 0.46123 0.98092 0.0
H1800 H 0.44629 0.9441 0.17869 0.0
H1801 H 0.37524 0.89048 0.18253 0.0
H1802 H 0.40552 0.79839 0.17153 0.0
H1803 H 0.4764 0.85201 0.16741 0.0
H1804 H 0.31706 0.83088 0.16532 0.0
H1805 H 0.34405 0.75243 0.20484 0.0
H1806 H 0.38132 0.80368 0.20004 0.0
H1807 H 0.37529 0.76022 0.19134 0.0
C1808 C 0.43804 0.91246 0.17711 0.0
C1809 C 0.4677 0.90295 0.17261 0.0
C1810 C 0.39706 0.88155 0.17934 0.0
C1811 C 0.38417 0.83971 0.17743 0.0
C1812 C 0.41405 0.83003 0.17328 0.0
H1813 H 0.14905 0.60775 0.18885 0.0
H1814 H 0.22053 0.66048 0.18517 0.0
C1815 C 0.45498 0.86099 0.17093 0.0
C1816 C 0.33959 0.80665 0.17943 0.0
H1817 H 0.27696 0.72095 0.19672 0.0
C1818 C 0.30844 0.80693 0.1722 0.0
C1819 C 0.32743 0.77472 0.18834 0.0
C1820 C 0.35859 0.77265 0.19668 0.0
C1821 C 0.26653 0.77634 0.17337 0.0
C1822 C 0.25407 0.74473 0.18248 0.0
C1823 C 0.28541 0.7446 0.18973 0.0
C1824 C 0.20924 0.71177 0.18463 0.0
C1825 C 0.2364 0.77761 0.16437 0.0
C1826 C 0.17768 0.72172 0.18583 0.0
C1827 C 0.13638 0.69119 0.18773 0.0
C1828 C 0.12468 0.64934 0.18878 0.0
C1829 C 0.15628 0.63937 0.18797 0.0
C1830 C 0.19759 0.66987 0.18589 0.0
H1831 H 0.25169 0.79336 0.15559 0.0
H1832 H 0.21141 0.74635 0.16204 0.0
H1833 H 0.22281 0.79515 0.16858 0.0
H1834 H 0.18492 0.7534 0.18554 0.0
H1835 H 0.11373 0.70068 0.18881 0.0
H1836 H 0.65567 0.46928 0.33219 0.0
H1837 H 0.63649 0.39788 0.3363 0.0
H1838 H 0.52118 0.37603 0.35142 0.0
H1839 H 0.54168 0.44837 0.34805 0.0
H1840 H 0.54393 0.33465 0.36473 0.0
H1841 H 0.56797 0.29983 0.31671 0.0
H1842 H 0.61529 0.33819 0.3233 0.0
H1843 H 0.5742 0.34902 0.32085 0.0
C1844 C 0.62623 0.44942 0.33645 0.0
C1845 C 0.59991 0.46495 0.33947 0.0
C1846 C 0.61489 0.40797 0.33865 0.0
C1847 C 0.57645 0.37999 0.34382 0.0
C1848 C 0.55076 0.39597 0.34726 0.0
H1849 H 0.46822 0.10977 0.34004 0.0
H1850 H 0.48781 0.18166 0.33678 0.0
C1851 C 0.56236 0.43761 0.3452 0.0
C1852 C 0.56349 0.33479 0.34591 0.0
H1853 H 0.55799 0.24945 0.33203 0.0
C1854 C 0.54697 0.31623 0.3575 0.0
C1855 C 0.5666 0.30942 0.33659 0.0
C1856 C 0.58158 0.32503 0.32364 0.0
C1857 C 0.53441 0.27444 0.36004 0.0
C1858 C 0.53885 0.2496 0.35086 0.0
C1859 C 0.55471 0.26788 0.33922 0.0
C1860 C 0.52667 0.20473 0.35301 0.0
C1861 C 0.51543 0.25711 0.37252 0.0
C1862 C 0.54195 0.19239 0.36314 0.0
C1863 C 0.53058 0.15077 0.36504 0.0
C1864 C 0.50363 0.11963 0.35685 0.0
C1865 C 0.4888 0.13213 0.34663 0.0
C1866 C 0.50019 0.17374 0.34473 0.0
H1867 H 0.50276 0.27528 0.3769 0.0
H1868 H 0.49051 0.2248 0.37171 0.0
H1869 H 0.53926 0.25808 0.37883 0.0
H1870 H 0.56322 0.21507 0.36958 0.0
H1871 H 0.54306 0.14305 0.37301 0.0
H1872 H 0.15942 0.63723 0.45306 0.0
H1873 H 0.20266 0.68101 0.43621 0.0
H1874 H 0.23083 0.78834 0.45787 0.0
H1875 H 0.18674 0.74497 0.47448 0.0
H1876 H 0.21264 0.79668 0.43412 0.0
H1877 H 0.32664 0.7435 0.43423 0.0
H1878 H 0.27471 0.70322 0.43224 0.0
H1879 H 0.28995 0.73132 0.4466 0.0
C1880 C 0.17528 0.67011 0.45437 0.0
C1881 C 0.1706 0.68733 0.46547 0.0
C1882 C 0.20016 0.6952 0.44468 0.0
C1883 C 0.22096 0.73814 0.44582 0.0
C1884 C 0.21568 0.75536 0.45677 0.0
H1885 H 0.42697 0.92088 0.40386 0.0
H1886 H 0.37951 0.87244 0.41901 0.0
C1887 C 0.19082 0.73035 0.46642 0.0
C1888 C 0.24742 0.76535 0.43557 0.0
H1889 H 0.3326 0.7892 0.41816 0.0
C1890 C 0.23881 0.79494 0.43061 0.0
C1891 C 0.28192 0.76354 0.43105 0.0
C1892 C 0.2942 0.73398 0.43636 0.0
C1893 C 0.26362 0.82266 0.42133 0.0
C1894 C 0.29772 0.82041 0.41666 0.0
C1895 C 0.30629 0.79077 0.42161 0.0
C1896 C 0.32622 0.84987 0.40717 0.0
C1897 C 0.25381 0.85499 0.4169 0.0
C1898 C 0.31238 0.8534 0.39532 0.0
C1899 C 0.33962 0.8814 0.38655 0.0
C1900 C 0.38143 0.90634 0.3894 0.0
C1901 C 0.39512 0.90235 0.40125 0.0
C1902 C 0.36794 0.87449 0.40997 0.0
H1903 H 0.23328 0.85906 0.42348 0.0
H1904 H 0.28217 0.88496 0.41568 0.0
H1905 H 0.23805 0.84564 0.40779 0.0
H1906 H 0.28053 0.83425 0.3928 0.0
H1907 H 0.32789 0.88336 0.37754 0.0
H1908 H 0.54325 0.42228 0.57169 0.0
H1909 H 0.54444 0.37692 0.58773 0.0
H1910 H 0.48781 0.27474 0.56246 0.0
H1911 H 0.48595 0.3199 0.54632 0.0
H1912 H 0.45132 0.25641 0.58581 0.0
H1913 H 0.61975 0.32852 0.5909 0.0
H1914 H 0.60068 0.36366 0.59264 0.0
H1915 H 0.59615 0.33922 0.57789 0.0
C1916 C 0.53132 0.39025 0.56943 0.0
C1917 C 0.51471 0.37504 0.55758 0.0
C1918 C 0.53225 0.36428 0.57866 0.0
C1919 C 0.51683 0.32236 0.57632 0.0
C1920 C 0.50015 0.30698 0.56452 0.0
H1921 H 0.48608 0.11034 0.61805 0.0
H1922 H 0.48761 0.15873 0.60261 0.0
C1923 C 0.49924 0.33297 0.55525 0.0
C1924 C 0.51687 0.29443 0.58629 0.0
H1925 H 0.57936 0.27832 0.60594 0.0
C1926 C 0.47937 0.26115 0.59015 0.0
C1927 C 0.55338 0.30059 0.5921 0.0
C1928 C 0.59483 0.33469 0.58812 0.0
C1929 C 0.47733 0.23433 0.59967 0.0
C1930 C 0.51385 0.24026 0.60539 0.0
C1931 C 0.55133 0.27372 0.60162 0.0
C1932 C 0.51379 0.21111 0.61492 0.0
C1933 C 0.43588 0.20026 0.60368 0.0
C1934 C 0.52926 0.22442 0.62698 0.0
C1935 C 0.52868 0.19663 0.63589 0.0
C1936 C 0.51273 0.15498 0.63291 0.0
C1937 C 0.49832 0.1421 0.62074 0.0
C1938 C 0.49883 0.16973 0.61189 0.0
H1939 H 0.41104 0.20677 0.60108 0.0
H1940 H 0.42969 0.1714 0.59901 0.0
H1941 H 0.4348 0.19533 0.61389 0.0
H1942 H 0.54145 0.25626 0.62954 0.0
H1943 H 0.54091 0.20778 0.64507 0.0
H1944 H 0.41685 0.49994 0.78088 0.0
H1945 H 0.3706 0.50077 0.7651 0.0
H1946 H 0.28541 0.48996 0.79371 0.0
H1947 H 0.33104 0.48777 0.80957 0.0
H1948 H 0.24528 0.44094 0.77494 0.0
H1949 H 0.3527 0.59283 0.75504 0.0
H1950 H 0.37295 0.5585 0.7545 0.0
H1951 H 0.36341 0.57466 0.7693 0.0
C1952 C 0.38844 0.49806 0.78387 0.0
C1953 C 0.37805 0.49421 0.79658 0.0
C1954 C 0.36201 0.49881 0.77479 0.0
C1955 C 0.32472 0.49648 0.77814 0.0
C1956 C 0.31404 0.49216 0.79082 0.0
H1957 H 0.12686 0.50468 0.7375 0.0
H1958 H 0.17399 0.50533 0.75329 0.0
C1959 C 0.3403 0.49098 0.79991 0.0
C1960 C 0.2964 0.49735 0.76844 0.0
H1961 H 0.2917 0.55171 0.74347 0.0
C1962 C 0.25548 0.46538 0.76813 0.0
C1963 C 0.30934 0.52919 0.75948 0.0
C1964 C 0.35186 0.56593 0.75965 0.0
C1965 C 0.22766 0.46398 0.75908 0.0
C1966 C 0.24083 0.49546 0.75005 0.0
C1967 C 0.28162 0.52743 0.75033 0.0
C1968 C 0.21254 0.49585 0.74033 0.0
C1969 C 0.18447 0.42838 0.75908 0.0
C1970 C 0.2188 0.49112 0.72769 0.0
C1971 C 0.19174 0.4906 0.71858 0.0
C1972 C 0.15805 0.49543 0.72187 0.0
C1973 C 0.15243 0.50102 0.73454 0.0
C1974 C 0.17926 0.50112 0.74364 0.0
H1975 H 0.1814 0.40261 0.76494 0.0
H1976 H 0.16351 0.43868 0.76281 0.0
H1977 H 0.17445 0.41698 0.74948 0.0
H1978 H 0.24434 0.48719 0.72489 0.0
H1979 H 0.19721 0.48631 0.70896 0.0
H1980 H 0.73201 0.20236 0.87418 0.0
H1981 H 0.78035 0.24913 0.88981 0.0
H1982 H 0.70725 0.16667 0.91898 0.0
H1983 H 0.65898 0.12025 0.90359 0.0
H1984 H 0.76147 0.28576 0.9123 0.0
H1985 H 0.82701 0.18593 0.92425 0.0
H1986 H 0.80085 0.18133 0.90974 0.0
H1987 H 0.77204 0.16158 0.92382 0.0
C1988 C 0.72618 0.19421 0.88392 0.0
C1989 C 0.69163 0.15717 0.88754 0.0
C1990 C 0.75386 0.22102 0.89285 0.0
C1991 C 0.74785 0.21119 0.90559 0.0
C1992 C 0.71298 0.17474 0.90923 0.0
H1993 H 0.88516 0.31876 0.97438 0.0
H1994 H 0.83713 0.2737 0.95847 0.0
C1995 C 0.68521 0.14824 0.90036 0.0
C1996 C 0.77761 0.23886 0.91516 0.0
H1997 H 0.847 0.24448 0.93682 0.0
C1998 C 0.7804 0.2769 0.9176 0.0
C1999 C 0.80193 0.22711 0.92223 0.0
C2000 C 0.80073 0.18691 0.91988 0.0
C2001 C 0.8062 0.30311 0.92702 0.0
C2002 C 0.83107 0.29169 0.93401 0.0
C2003 C 0.82818 0.25352 0.93154 0.0
C2004 C 0.86057 0.31907 0.94377 0.0
C2005 C 0.8054 0.34221 0.92963 0.0
C2006 C 0.89053 0.35948 0.94088 0.0
C2007 C 0.91769 0.38538 0.94999 0.0
C2008 C 0.9163 0.37153 0.96226 0.0
C2009 C 0.8871 0.33067 0.96509 0.0
C2010 C 0.85957 0.3048 0.95596 0.0
H2011 H 0.77618 0.34004 0.92653 0.0
H2012 H 0.80946 0.34979 0.93969 0.0
H2013 H 0.83062 0.36779 0.92445 0.0
H2014 H 0.89318 0.37107 0.93151 0.0
H2015 H 0.94016 0.4163 0.94732 0.0
H2016 H 0.53676 0.84454 0.1455 0.0
H2017 H 0.53675 0.79678 0.12984 0.0
H2018 H 0.57756 0.89175 0.10205 0.0
H2019 H 0.57797 0.93926 0.11758 0.0
H2020 H 0.51423 0.81767 0.09357 0.0
H2021 H 0.63647 0.79559 0.11491 0.0
H2022 H 0.59442 0.78525 0.12505 0.0
H2023 H 0.62711 0.83649 0.1195 0.0
C2024 C 0.54583 0.85521 0.13606 0.0
C2025 C 0.55721 0.8958 0.13282 0.0
C2026 C 0.54599 0.82793 0.12711 0.0
C2027 C 0.55761 0.84067 0.11473 0.0
C2028 C 0.56842 0.881 0.11149 0.0
H2029 H 0.584 0.73354 0.04511 0.0
H2030 H 0.58106 0.77856 0.06109 0.0
C2031 C 0.56836 0.90816 0.1204 0.0
C2032 C 0.55823 0.81226 0.10505 0.0
H2033 H 0.6034 0.75539 0.09722 0.0
C2034 C 0.53377 0.8041 0.09438 0.0
C2035 C 0.58379 0.79454 0.10602 0.0
C2036 C 0.61225 0.80358 0.11692 0.0
C2037 C 0.53369 0.77839 0.0848 0.0
C2038 C 0.55937 0.76078 0.08574 0.0
C2039 C 0.58371 0.7688 0.09644 0.0
C2040 C 0.561 0.73347 0.07585 0.0
C2041 C 0.50536 0.76959 0.07388 0.0
C2042 C 0.55155 0.69326 0.07877 0.0
C2043 C 0.55329 0.66747 0.06965 0.0
C2044 C 0.56485 0.68118 0.05732 0.0
C2045 C 0.57461 0.72163 0.05442 0.0
C2046 C 0.57276 0.74744 0.06358 0.0
H2047 H 0.48033 0.77626 0.07607 0.0
H2048 H 0.52304 0.78928 0.06594 0.0
H2049 H 0.49156 0.73709 0.07093 0.0
H2050 H 0.54258 0.68168 0.08814 0.0
H2051 H 0.54579 0.63673 0.07235 0.0
H2052 H 0.67848 0.5727 0.2858 0.0
H2053 H 0.72552 0.57065 0.27058 0.0
H2054 H 0.77601 0.52683 0.29877 0.0
H2055 H 0.72772 0.52758 0.31408 0.0
H2056 H 0.81003 0.61335 0.27068 0.0
H2057 H 0.75305 0.44572 0.27042 0.0
H2058 H 0.72434 0.46765 0.27725 0.0
H2059 H 0.76695 0.46965 0.28544 0.0
C2060 C 0.69922 0.56214 0.28879 0.0
C2061 C 0.69944 0.55059 0.30124 0.0
C2062 C 0.72636 0.56122 0.28005 0.0
C2063 C 0.75429 0.54834 0.28343 0.0
C2064 C 0.75445 0.5364 0.29584 0.0
H2065 H 0.94062 0.52897 0.23926 0.0
H2066 H 0.89578 0.52807 0.25589 0.0
C2067 C 0.72717 0.53734 0.30464 0.0
C2068 C 0.78361 0.54858 0.27395 0.0
H2069 H 0.81149 0.48693 0.25816 0.0
C2070 C 0.81031 0.58566 0.26796 0.0
C2071 C 0.78424 0.51256 0.27037 0.0
C2072 C 0.75543 0.47152 0.2761 0.0
C2073 C 0.8375 0.58777 0.25858 0.0
C2074 C 0.83762 0.55163 0.25484 0.0
C2075 C 0.81141 0.51464 0.26096 0.0
C2076 C 0.8645 0.5516 0.24454 0.0
C2077 C 0.86637 0.62894 0.25292 0.0
C2078 C 0.86162 0.56446 0.23249 0.0
C2079 C 0.88732 0.56506 0.22291 0.0
C2080 C 0.91646 0.55254 0.2251 0.0
C2081 C 0.91872 0.53894 0.23715 0.0
C2082 C 0.893 0.53835 0.24672 0.0
H2083 H 0.87075 0.65453 0.2591 0.0
H2084 H 0.89675 0.63191 0.25098 0.0
H2085 H 0.85338 0.63222 0.24402 0.0
H2086 H 0.83933 0.57397 0.23045 0.0
H2087 H 0.88438 0.57556 0.21379 0.0
H2088 H 0.91158 0.40139 0.42395 0.0
H2089 H 0.83796 0.36561 0.42094 0.0
H2090 H 0.82103 0.39401 0.45862 0.0
H2091 H 0.89413 0.42576 0.46216 0.0
H2092 H 0.77649 0.31928 0.45559 0.0
H2093 H 0.74883 0.38923 0.41466 0.0
H2094 H 0.78719 0.37639 0.41048 0.0
H2095 H 0.79752 0.4136 0.4226 0.0
C2096 C 0.89231 0.40002 0.43163 0.0
C2097 C 0.90907 0.41604 0.44336 0.0
C2098 C 0.8501 0.38045 0.42978 0.0
C2099 C 0.82383 0.37771 0.43948 0.0
C2100 C 0.84066 0.39597 0.45096 0.0
H2101 H 0.5682 0.20469 0.41894 0.0
H2102 H 0.62574 0.26979 0.42618 0.0
C2103 C 0.88273 0.41448 0.45293 0.0
C2104 C 0.77917 0.34984 0.43829 0.0
H2105 H 0.70196 0.31418 0.41701 0.0
C2106 C 0.7599 0.31906 0.44732 0.0
C2107 C 0.75675 0.34981 0.42772 0.0
C2108 C 0.77368 0.38444 0.41843 0.0
C2109 C 0.72052 0.28614 0.44543 0.0
C2110 C 0.70063 0.28314 0.43403 0.0
C2111 C 0.71788 0.31594 0.4256 0.0
C2112 C 0.66507 0.2442 0.43007 0.0
C2113 C 0.70143 0.25397 0.45546 0.0
C2114 C 0.66856 0.20869 0.42965 0.0
C2115 C 0.63576 0.17166 0.42577 0.0
C2116 C 0.59905 0.16961 0.42202 0.0
C2117 C 0.59584 0.20537 0.42213 0.0
C2118 C 0.62869 0.2425 0.42614 0.0
H2119 H 0.71175 0.26778 0.46482 0.0
H2120 H 0.66747 0.23826 0.45514 0.0
H2121 H 0.7113 0.23079 0.45422 0.0
H2122 H 0.69686 0.20964 0.43226 0.0
H2123 H 0.63903 0.14456 0.42579 0.0
H2124 H 0.39707 0.87373 0.59246 0.0
H2125 H 0.37871 0.80505 0.58493 0.0
H2126 H 0.49724 0.82449 0.59616 0.0
H2127 H 0.51643 0.89334 0.60309 0.0
H2128 H 0.47607 0.79231 0.57288 0.0
H2129 H 0.34911 0.70462 0.60638 0.0
H2130 H 0.34481 0.74137 0.5967 0.0
H2131 H 0.38445 0.75867 0.60822 0.0
C2132 C 0.41928 0.8634 0.59322 0.0
C2133 C 0.45812 0.88886 0.59846 0.0
C2134 C 0.40857 0.82404 0.58904 0.0
C2135 C 0.43646 0.80955 0.59013 0.0
C2136 C 0.47522 0.83505 0.59527 0.0
H2137 H 0.44291 0.5941 0.59974 0.0
H2138 H 0.43017 0.65185 0.60033 0.0
C2139 C 0.486 0.87427 0.59935 0.0
C2140 C 0.42624 0.768 0.58596 0.0
H2141 H 0.3692 0.66688 0.59367 0.0
C2142 C 0.45227 0.76472 0.57725 0.0
C2143 C 0.39512 0.73224 0.59171 0.0
C2144 C 0.36685 0.73412 0.60134 0.0
C2145 C 0.45006 0.72703 0.57478 0.0
C2146 C 0.41995 0.69139 0.58089 0.0
C2147 C 0.3921 0.69426 0.58898 0.0
C2148 C 0.42099 0.65247 0.58047 0.0
C2149 C 0.482 0.72642 0.56638 0.0
C2150 C 0.41862 0.63272 0.56916 0.0
C2151 C 0.4266 0.60008 0.5688 0.0
C2152 C 0.43612 0.58626 0.57977 0.0
C2153 C 0.43556 0.60416 0.59117 0.0
C2154 C 0.42822 0.63709 0.5915 0.0
H2155 H 0.50758 0.75774 0.56438 0.0
H2156 H 0.49497 0.70835 0.57063 0.0
H2157 H 0.46768 0.71194 0.5574 0.0
H2158 H 0.41206 0.64344 0.56059 0.0
H2159 H 0.42622 0.58622 0.55993 0.0
H2160 H 0.62443 0.4661 0.79426 0.0
H2161 H 0.67042 0.43837 0.79439 0.0
H2162 H 0.63349 0.39322 0.75708 0.0
H2163 H 0.58228 0.41452 0.7576 0.0
H2164 H 0.66401 0.35293 0.76668 0.0
H2165 H 0.77133 0.51687 0.77745 0.0
H2166 H 0.73688 0.48997 0.78992 0.0
H2167 H 0.71748 0.49757 0.7754 0.0
C2168 C 0.62427 0.44863 0.78625 0.0
C2169 C 0.60113 0.44516 0.77553 0.0
C2170 C 0.65143 0.43335 0.78629 0.0
C2171 C 0.65774 0.41663 0.7754 0.0
C2172 C 0.63044 0.40752 0.76546 0.0
H2173 H 0.88942 0.49156 0.74465 0.0
H2174 H 0.82176 0.47668 0.75087 0.0
C2175 C 0.60169 0.42074 0.76566 0.0
C2176 C 0.69608 0.41505 0.77345 0.0
H2177 H 0.7999 0.47597 0.77302 0.0
C2178 C 0.69379 0.3798 0.76809 0.0
C2179 C 0.73504 0.45036 0.77514 0.0
C2180 C 0.74044 0.49091 0.77967 0.0
C2181 C 0.72902 0.3796 0.76377 0.0
C2182 C 0.76776 0.41496 0.76547 0.0
C2183 C 0.77015 0.44904 0.7716 0.0
C2184 C 0.80623 0.41952 0.76013 0.0
C2185 C 0.724 0.34248 0.75681 0.0
C2186 C 0.8197 0.39151 0.76276 0.0
C2187 C 0.85802 0.39891 0.75858 0.0
C2188 C 0.88439 0.43534 0.75213 0.0
C2189 C 0.8702 0.46278 0.74933 0.0
C2190 C 0.83146 0.4546 0.75309 0.0
H2191 H 0.69224 0.3233 0.75332 0.0
H2192 H 0.74533 0.35149 0.74879 0.0
H2193 H 0.73071 0.32329 0.76318 0.0
H2194 H 0.80126 0.36457 0.76835 0.0
H2195 H 0.86717 0.3764 0.76065 0.0
H2196 H 0.47008 0.90355 0.9393 0.0
H2197 H 0.41293 0.83369 0.9414 0.0
H2198 H 0.42537 0.81069 0.90277 0.0
H2199 H 0.48207 0.88096 0.90058 0.0
H2200 H 0.34938 0.79245 0.90802 0.0
H2201 H 0.4004 0.72117 0.94359 0.0
H2202 H 0.40602 0.76896 0.9489 0.0
H2203 H 0.43549 0.76826 0.93578 0.0
C2204 C 0.46122 0.88324 0.93135 0.0
C2205 C 0.48016 0.89762 0.91976 0.0
C2206 C 0.42872 0.84326 0.93257 0.0
C2207 C 0.41516 0.81681 0.92228 0.0
C2208 C 0.43538 0.83059 0.91083 0.0
H2209 H 0.20951 0.56644 0.92926 0.0
H2210 H 0.27738 0.62488 0.92523 0.0
C2211 C 0.46757 0.87069 0.90958 0.0
C2212 C 0.37696 0.7768 0.92308 0.0
H2213 H 0.32731 0.68965 0.94049 0.0
C2214 C 0.34481 0.76969 0.91499 0.0
C2215 C 0.37112 0.74691 0.93209 0.0
C2216 C 0.40528 0.75151 0.94049 0.0
C2217 C 0.30644 0.73434 0.916 0.0
C2218 C 0.29976 0.70584 0.92556 0.0
C2219 C 0.33238 0.71192 0.93329 0.0
C2220 C 0.25871 0.67039 0.92795 0.0
C2221 C 0.27336 0.728 0.90685 0.0
C2222 C 0.22591 0.6767 0.93092 0.0
C2223 C 0.18704 0.64343 0.93311 0.0
C2224 C 0.1803 0.60311 0.93255 0.0
C2225 C 0.21345 0.59697 0.92968 0.0
C2226 C 0.25233 0.63033 0.92744 0.0
H2227 H 0.28658 0.74504 0.89806 0.0
H2228 H 0.25354 0.69502 0.90462 0.0
H2229 H 0.25396 0.73964 0.91095 0.0
H2230 H 0.23038 0.70745 0.93157 0.0
H2231 H 0.1622 0.64937 0.93511 0.0
H2232 H 0.66903 0.16679 0.09419 0.0
H2233 H 0.6841 0.23502 0.0871 0.0
H2234 H 0.55547 0.19704 0.0887 0.0
H2235 H 0.5401 0.12881 0.0955 0.0
H2236 H 0.59848 0.24149 0.06643 0.0
H2237 H 0.67546 0.31903 0.11061 0.0
H2238 H 0.69324 0.28829 0.10283 0.0
H2239 H 0.6431 0.26413 0.10963 0.0
C2240 C 0.64399 0.17295 0.09291 0.0
C2241 C 0.60341 0.14268 0.09551 0.0
C2242 C 0.65267 0.2119 0.08894 0.0
C2243 C 0.62089 0.22097 0.08751 0.0
C2244 C 0.58037 0.19053 0.0898 0.0
H2245 H 0.54976 0.39667 0.07725 0.0
H2246 H 0.55982 0.33732 0.07779 0.0
C2247 C 0.57169 0.15175 0.09378 0.0
C2248 C 0.62928 0.26239 0.08401 0.0
H2249 H 0.66286 0.35783 0.09602 0.0
C2250 C 0.61319 0.2672 0.07278 0.0
C2251 C 0.64874 0.29578 0.09231 0.0
C2252 C 0.66603 0.29182 0.10457 0.0
C2253 C 0.61433 0.30413 0.06988 0.0
C2254 C 0.63134 0.33663 0.07856 0.0
C2255 C 0.64975 0.3327 0.08942 0.0
C2256 C 0.62599 0.37286 0.07727 0.0
C2257 C 0.59628 0.30766 0.05773 0.0
C2258 C 0.65994 0.41251 0.07704 0.0
C2259 C 0.65428 0.44661 0.07672 0.0
C2260 C 0.61455 0.44146 0.07675 0.0
C2261 C 0.5807 0.40162 0.07697 0.0
C2262 C 0.58639 0.36768 0.07725 0.0
H2263 H 0.59711 0.28662 0.05062 0.0
H2264 H 0.56377 0.29905 0.05921 0.0
H2265 H 0.61286 0.33948 0.05408 0.0
H2266 H 0.69074 0.41703 0.07716 0.0
H2267 H 0.68093 0.47696 0.07645 0.0
H2268 H 0.43847 0.51779 0.2631 0.0
H2269 H 0.38569 0.5281 0.2533 0.0
H2270 H 0.47821 0.64538 0.23929 0.0
H2271 H 0.53145 0.63516 0.24899 0.0
H2272 H 0.41272 0.64386 0.25459 0.0
H2273 H 0.35403 0.53098 0.21611 0.0
H2274 H 0.36118 0.51103 0.23051 0.0
H2275 H 0.40481 0.55086 0.22255 0.0
C2276 C 0.44766 0.54567 0.25786 0.0
C2277 C 0.48904 0.57614 0.25708 0.0
C2278 C 0.41753 0.55126 0.25214 0.0
C2279 C 0.42824 0.58735 0.24553 0.0
C2280 C 0.46954 0.61722 0.24431 0.0
H2281 H 0.24031 0.65778 0.23103 0.0
H2282 H 0.30758 0.66195 0.23052 0.0
C2283 C 0.49983 0.6114 0.24991 0.0
C2284 C 0.39567 0.59541 0.24125 0.0
H2285 H 0.30881 0.55405 0.22377 0.0
C2286 C 0.3904 0.62502 0.24764 0.0
C2287 C 0.36685 0.57057 0.23222 0.0
C2288 C 0.37209 0.53928 0.22486 0.0
C2289 C 0.35518 0.6283 0.24592 0.0
C2290 C 0.32517 0.60193 0.23733 0.0
C2291 C 0.33184 0.57413 0.23037 0.0
C2292 C 0.28471 0.59929 0.23653 0.0
C2293 C 0.34909 0.65785 0.25396 0.0
C2294 C 0.24959 0.56232 0.23965 0.0
C2295 C 0.21133 0.55976 0.23979 0.0
C2296 C 0.20762 0.59422 0.23689 0.0
C2297 C 0.24263 0.63101 0.23349 0.0
C2298 C 0.28093 0.63342 0.23321 0.0
H2299 H 0.37128 0.66988 0.26178 0.0
H2300 H 0.35341 0.68428 0.24824 0.0
H2301 H 0.31762 0.64288 0.25787 0.0
H2302 H 0.25192 0.53567 0.24227 0.0
H2303 H 0.18477 0.53114 0.24249 0.0
loop_
_geom_bond_atom_site_label_1
_geom_bond_atom_site_label_2
_geom_bond_distance
_geom_bond_site_symmetry_2
_ccdc_geom_bond_type
C0 C2 1.422 . S
C0 C4 1.415 . S
C0 N6 1.369 . S
C1 C2 1.421 . S
C1 C3 1.417 . S
C1 C13 1.422 1_565 S
C2 C0 1.422 . S
C2 C1 1.421 . S
C2 N12 1.359 1_565 S
C3 C1 1.417 . S
C3 C5 1.329 . S
C3 H22 0.930 . S
C4 C0 1.415 . S
C4 C5 1.437 . S
C4 C8 1.413 . S
C5 C3 1.329 . S
C5 C4 1.437 . S
C5 H27 0.929 . S
N6 C0 1.369 . S
N6 C7 1.338 . S
N6 Gd11 2.622 1_565 S
C7 N6 1.338 . S
C7 C9 1.378 . S
C7 H19 0.929 . S
C8 C4 1.413 . S
C8 C9 1.348 . S
C8 H24 0.931 . S
C9 C7 1.378 . S
C9 C8 1.348 . S
C9 H25 0.930 . S
Gd10 N30 2.622 1_565 S
Gd10 N37 2.570 . S
Gd10 O44 2.353 . S
Gd10 O45 2.468 . S
Gd10 O46 2.427 . S
Gd10 O48 2.388 1_565 S
Gd10 O49 2.386 1_565 S
Gd10 O53 2.307 . S
Gd10 C63 2.805 . S
Gd11 N6 2.622 1_545 S
Gd11 N12 2.570 . S
Gd11 O43 2.386 1_545 S
Gd11 O47 2.307 . S
Gd11 O50 2.353 . S
Gd11 O51 2.468 . S
Gd11 O52 2.427 . S
Gd11 O54 2.388 1_545 S
Gd11 C75 2.805 . S
N12 C2 1.359 1_545 S
N12 Gd11 2.570 . S
N12 C14 1.343 . S
C13 C1 1.422 1_545 S
C13 C15 1.321 . S
C13 H21 0.931 . S
C14 N12 1.343 . S
C14 C15 1.390 . S
C14 H16 0.931 . S
C15 C13 1.321 . S
C15 C14 1.390 . S
C15 H17 0.930 . S
H16 C14 0.931 . S
H17 C15 0.930 . S
H18 C41 0.931 . S
H19 C7 0.929 . S
H20 C42 0.930 . S
H21 C13 0.931 . S
H22 C3 0.930 . S
H23 C32 0.929 . S
H24 C8 0.931 . S
H25 C9 0.930 . S
H26 C64 0.930 . S
H27 C5 0.929 . S
H28 C33 0.931 . S
H29 C34 0.930 . S
N30 Gd10 2.622 1_545 S
N30 C31 1.369 . S
N30 C32 1.338 . S
C31 N30 1.369 . S
C31 C35 1.415 . S
C31 C38 1.422 . S
C32 H23 0.929 . S
C32 N30 1.338 . S
C32 C34 1.378 . S
C33 H28 0.931 . S
C33 C34 1.348 . S
C33 C35 1.413 . S
C34 H29 0.930 . S
C34 C32 1.378 . S
C34 C33 1.348 . S
C35 C31 1.415 . S
C35 C33 1.413 . S
C35 C65 1.437 . S
H36 C65 0.929 . S
N37 Gd10 2.570 . S
N37 C38 1.359 1_565 S
N37 C41 1.343 . S
C38 C31 1.422 . S
C38 N37 1.359 1_545 S
C38 C40 1.421 . S
C39 C40 1.422 1_565 S
C39 C42 1.321 . S
C39 H66 0.931 . S
C40 C38 1.421 . S
C40 C39 1.422 1_545 S
C40 C64 1.417 . S
C41 H18 0.931 . S
C41 N37 1.343 . S
C41 C42 1.390 . S
C42 H20 0.930 . S
C42 C39 1.321 . S
C42 C41 1.390 . S
O43 Gd11 2.386 1_565 S
O43 C55 1.265 . S
O44 Gd10 2.353 . S
O44 C55 1.242 . S
O45 Gd10 2.468 . S
O45 C63 1.263 . S
O46 Gd10 2.427 . S
O46 C63 1.252 . S
O47 Gd11 2.307 . S
O47 C56 1.261 . S
O48 Gd10 2.388 1_545 S
O48 C56 1.252 . S
O49 Gd10 2.386 1_545 S
O49 C67 1.265 . S
O50 Gd11 2.353 . S
O50 C67 1.242 . S
O51 Gd11 2.468 . S
O51 C75 1.263 . S
O52 Gd11 2.427 . S
O52 C75 1.252 . S
O53 Gd10 2.307 . S
O53 C68 1.261 . S
O54 Gd11 2.388 1_565 S
O54 C68 1.252 . S
C55 O43 1.265 . S
C55 O44 1.242 . S
C56 O47 1.261 . S
C56 O48 1.252 . S
C57 C60 1.394 . S
C57 C62 1.370 . S
C57 C63 1.500 . S
C58 C61 1.383 . S
C58 C62 1.395 . S
C59 C60 1.396 . S
C59 C61 1.365 . S
C59 H76 0.929 . S
C60 C57 1.394 . S
C60 C59 1.396 . S
C60 H77 0.930 . S
C61 C58 1.383 . S
C61 C59 1.365 . S
C61 H78 0.931 . S
C62 C57 1.370 . S
C62 C58 1.395 . S
C62 H79 0.930 . S
C63 Gd10 2.805 . S
C63 O45 1.263 . S
C63 O46 1.252 . S
C63 C57 1.500 . S
C64 H26 0.930 . S
C64 C40 1.417 . S
C64 C65 1.329 . S
C65 C35 1.437 . S
C65 H36 0.929 . S
C65 C64 1.329 . S
H66 C39 0.931 . S
C67 O49 1.265 . S
C67 O50 1.242 . S
C68 O53 1.261 . S
C68 O54 1.252 . S
C69 C72 1.394 . S
C69 C74 1.370 . S
C69 C75 1.500 . S
C70 C73 1.383 . S
C70 C74 1.395 . S
C71 C72 1.396 . S
C71 C73 1.365 . S
C71 H80 0.929 . S
C72 C69 1.394 . S
C72 C71 1.396 . S
C72 H81 0.930 . S
C73 C70 1.383 . S
C73 C71 1.365 . S
C73 H82 0.931 . S
C74 C69 1.370 . S
C74 C70 1.395 . S
C74 H83 0.930 . S
C75 Gd11 2.805 . S
C75 O51 1.263 . S
C75 O52 1.252 . S
C75 C69 1.500 . S
H76 C59 0.929 . S
H77 C60 0.930 . S
H78 C61 0.931 . S
H79 C62 0.930 . S
H80 C71 0.929 . S
H81 C72 0.930 . S
H82 C73 0.931 . S
H83 C74 0.930 . S
C84 C86 1.422 . S
C84 C88 1.415 . S
C84 N90 1.369 . S
C85 C86 1.421 . S
C85 C87 1.417 . S
C85 C97 1.422 . S
C86 C84 1.422 . S
C86 C85 1.421 . S
C86 N96 1.359 . S
C87 C85 1.417 . S
C87 C89 1.329 . S
C87 H106 0.930 . S
C88 C84 1.415 . S
C88 C89 1.437 . S
C88 C92 1.413 . S
C89 C87 1.329 . S
C89 C88 1.437 . S
C89 H111 0.929 . S
N90 C84 1.369 . S
N90 C91 1.338 . S
N90 Gd95 2.622 . S
C91 N90 1.338 . S
C91 C93 1.378 . S
C91 H103 0.929 . S
C92 C88 1.413 . S
C92 C93 1.348 . S
C92 H108 0.931 . S
C93 C91 1.378 . S
C93 C92 1.348 . S
C93 H109 0.930 . S
Gd94 N114 2.622 . S
Gd94 N121 2.570 . S
Gd94 O128 2.353 . S
Gd94 O129 2.468 . S
Gd94 O130 2.427 . S
Gd94 O132 2.388 . S
Gd94 O133 2.386 . S
Gd94 O137 2.307 . S
Gd94 C147 2.805 . S
Gd95 N90 2.622 . S
Gd95 N96 2.570 . S
Gd95 O127 2.386 . S
Gd95 O131 2.307 . S
Gd95 O134 2.353 . S
Gd95 O135 2.468 . S
Gd95 O136 2.427 . S
Gd95 O138 2.388 . S
Gd95 C159 2.805 . S
N96 C86 1.359 . S
N96 Gd95 2.570 . S
N96 C98 1.343 . S
C97 C85 1.422 . S
C97 C99 1.321 . S
C97 H105 0.931 . S
C98 N96 1.343 . S
C98 C99 1.390 . S
C98 H100 0.931 . S
C99 C97 1.321 . S
C99 C98 1.390 . S
C99 H101 0.930 . S
H100 C98 0.931 . S
H101 C99 0.930 . S
H102 C125 0.931 . S
H103 C91 0.929 . S
H104 C126 0.930 . S
H105 C97 0.931 . S
H106 C87 0.930 . S
H107 C116 0.929 . S
H108 C92 0.931 . S
H109 C93 0.930 . S
H110 C148 0.930 . S
H111 C89 0.929 . S
H112 C117 0.931 . S
H113 C118 0.930 . S
N114 Gd94 2.622 . S
N114 C115 1.369 . S
N114 C116 1.338 . S
C115 N114 1.369 . S
C115 C119 1.415 . S
C115 C122 1.422 . S
C116 H107 0.929 . S
C116 N114 1.338 . S
C116 C118 1.378 . S
C117 H112 0.931 . S
C117 C118 1.348 . S
C117 C119 1.413 . S
C118 H113 0.930 . S
C118 C116 1.378 . S
C118 C117 1.348 . S
C119 C115 1.415 . S
C119 C117 1.413 . S
C119 C149 1.437 . S
H120 C149 0.929 . S
N121 Gd94 2.570 . S
N121 C122 1.359 . S
N121 C125 1.343 . S
C122 C115 1.422 . S
C122 N121 1.359 . S
C122 C124 1.421 . S
C123 C124 1.422 . S
C123 C126 1.321 . S
C123 H150 0.931 . S
C124 C122 1.421 . S
C124 C123 1.422 . S
C124 C148 1.417 . S
C125 H102 0.931 . S
C125 N121 1.343 . S
C125 C126 1.390 . S
C126 H104 0.930 . S
C126 C123 1.321 . S
C126 C125 1.390 . S
O127 Gd95 2.386 . S
O127 C139 1.265 . S
O128 Gd94 2.353 . S
O128 C139 1.242 . S
O129 Gd94 2.468 . S
O129 C147 1.263 . S
O130 Gd94 2.427 . S
O130 C147 1.252 . S
O131 Gd95 2.307 . S
O131 C140 1.261 . S
O132 Gd94 2.388 . S
O132 C140 1.252 . S
O133 Gd94 2.386 . S
O133 C151 1.265 . S
O134 Gd95 2.353 . S
O134 C151 1.242 . S
O135 Gd95 2.468 . S
O135 C159 1.263 . S
O136 Gd95 2.427 . S
O136 C159 1.252 . S
O137 Gd94 2.307 . S
O137 C152 1.261 . S
O138 Gd95 2.388 . S
O138 C152 1.252 . S
C139 O127 1.265 . S
C139 O128 1.242 . S
C140 O131 1.261 . S
C140 O132 1.252 . S
C141 C144 1.394 . S
C141 C146 1.370 . S
C141 C147 1.500 . S
C142 C145 1.383 . S
C142 C146 1.395 . S
C143 C144 1.396 . S
C143 C145 1.365 . S
C143 H160 0.929 . S
C144 C141 1.394 . S
C144 C143 1.396 . S
C144 H161 0.930 . S
C145 C142 1.383 . S
C145 C143 1.365 . S
C145 H162 0.931 . S
C146 C141 1.370 . S
C146 C142 1.395 . S
C146 H163 0.930 . S
C147 Gd94 2.805 . S
C147 O129 1.263 . S
C147 O130 1.252 . S
C147 C141 1.500 . S
C148 H110 0.930 . S
C148 C124 1.417 . S
C148 C149 1.329 . S
C149 C119 1.437 . S
C149 H120 0.929 . S
C149 C148 1.329 . S
H150 C123 0.931 . S
C151 O133 1.265 . S
C151 O134 1.242 . S
C152 O137 1.261 . S
C152 O138 1.252 . S
C153 C156 1.394 . S
C153 C158 1.370 . S
C153 C159 1.500 . S
C154 C157 1.383 . S
C154 C158 1.395 . S
C155 C156 1.396 . S
C155 C157 1.365 . S
C155 H164 0.929 . S
C156 C153 1.394 . S
C156 C155 1.396 . S
C156 H165 0.930 . S
C157 C154 1.383 . S
C157 C155 1.365 . S
C157 H166 0.931 . S
C158 C153 1.370 . S
C158 C154 1.395 . S
C158 H167 0.930 . S
C159 Gd95 2.805 . S
C159 O135 1.263 . S
C159 O136 1.252 . S
C159 C153 1.500 . S
H160 C143 0.929 . S
H161 C144 0.930 . S
H162 C145 0.931 . S
H163 C146 0.930 . S
H164 C155 0.929 . S
H165 C156 0.930 . S
H166 C157 0.931 . S
H167 C158 0.930 . S
C168 C170 1.422 . S
C168 C172 1.415 . S
C168 N174 1.369 . S
C169 C170 1.421 . S
C169 C171 1.417 . S
C169 C181 1.422 1_455 S
C170 C168 1.422 . S
C170 C169 1.421 . S
C170 N180 1.359 1_455 S
C171 C169 1.417 . S
C171 C173 1.329 . S
C171 H190 0.930 . S
C172 C168 1.415 . S
C172 C173 1.437 . S
C172 C176 1.413 . S
C173 C171 1.329 . S
C173 C172 1.437 . S
C173 H195 0.929 . S
N174 C168 1.369 . S
N174 C175 1.338 . S
N174 Gd179 2.622 1_455 S
C175 N174 1.338 . S
C175 C177 1.378 . S
C175 H187 0.929 . S
C176 C172 1.413 . S
C176 C177 1.348 . S
C176 H192 0.931 . S
C177 C175 1.378 . S
C177 C176 1.348 . S
C177 H193 0.930 . S
Gd178 N198 2.622 1_455 S
Gd178 N205 2.570 . S
Gd178 O212 2.353 . S
Gd178 O213 2.468 . S
Gd178 O214 2.427 . S
Gd178 O216 2.388 1_455 S
Gd178 O217 2.386 1_455 S
Gd178 O221 2.307 . S
Gd178 C231 2.805 . S
Gd179 N174 2.622 1_655 S
Gd179 N180 2.570 . S
Gd179 O211 2.386 1_655 S
Gd179 O215 2.307 . S
Gd179 O218 2.353 . S
Gd179 O219 2.468 . S
Gd179 O220 2.427 . S
Gd179 O222 2.388 1_655 S
Gd179 C243 2.805 . S
N180 C170 1.359 1_655 S
N180 Gd179 2.570 . S
N180 C182 1.343 . S
C181 C169 1.422 1_655 S
C181 C183 1.321 . S
C181 H189 0.931 . S
C182 N180 1.343 . S
C182 C183 1.390 . S
C182 H184 0.931 . S
C183 C181 1.321 . S
C183 C182 1.390 . S
C183 H185 0.930 . S
H184 C182 0.931 . S
H185 C183 0.930 . S
H186 C209 0.931 . S
H187 C175 0.929 . S
H188 C210 0.930 . S
H189 C181 0.931 . S
H190 C171 0.930 . S
H191 C200 0.929 . S
H192 C176 0.931 . S
H193 C177 0.930 . S
H194 C232 0.930 . S
H195 C173 0.929 . S
H196 C201 0.931 . S
H197 C202 0.930 . S
N198 Gd178 2.622 1_655 S
N198 C199 1.369 . S
N198 C200 1.338 . S
C199 N198 1.369 . S
C199 C203 1.415 . S
C199 C206 1.422 . S
C200 H191 0.929 . S
C200 N198 1.338 . S
C200 C202 1.378 . S
C201 H196 0.931 . S
C201 C202 1.348 . S
C201 C203 1.413 . S
C202 H197 0.930 . S
C202 C200 1.378 . S
C202 C201 1.348 . S
C203 C199 1.415 . S
C203 C201 1.413 . S
C203 C233 1.437 . S
H204 C233 0.929 . S
N205 Gd178 2.570 . S
N205 C206 1.359 1_455 S
N205 C209 1.343 . S
C206 C199 1.422 . S
C206 N205 1.359 1_655 S
C206 C208 1.421 . S
C207 C208 1.422 1_455 S
C207 C210 1.321 . S
C207 H234 0.931 . S
C208 C206 1.421 . S
C208 C207 1.422 1_655 S
C208 C232 1.417 . S
C209 H186 0.931 . S
C209 N205 1.343 . S
C209 C210 1.390 . S
C210 H188 0.930 . S
C210 C207 1.321 . S
C210 C209 1.390 . S
O211 Gd179 2.386 1_455 S
O211 C223 1.265 . S
O212 Gd178 2.353 . S
O212 C223 1.242 . S
O213 Gd178 2.468 . S
O213 C231 1.263 . S
O214 Gd178 2.427 . S
O214 C231 1.252 . S
O215 Gd179 2.307 . S
O215 C224 1.261 . S
O216 Gd178 2.388 1_655 S
O216 C224 1.252 . S
O217 Gd178 2.386 1_655 S
O217 C235 1.265 . S
O218 Gd179 2.353 . S
O218 C235 1.242 . S
O219 Gd179 2.468 . S
O219 C243 1.263 . S
O220 Gd179 2.427 . S
O220 C243 1.252 . S
O221 Gd178 2.307 . S
O221 C236 1.261 . S
O222 Gd179 2.388 1_455 S
O222 C236 1.252 . S
C223 O211 1.265 . S
C223 O212 1.242 . S
C224 O215 1.261 . S
C224 O216 1.252 . S
C225 C228 1.394 . S
C225 C230 1.370 . S
C225 C231 1.500 . S
C226 C229 1.383 . S
C226 C230 1.395 . S
C227 C228 1.396 . S
C227 C229 1.365 . S
C227 H244 0.929 . S
C228 C225 1.394 . S
C228 C227 1.396 . S
C228 H245 0.930 . S
C229 C226 1.383 . S
C229 C227 1.365 . S
C229 H246 0.931 . S
C230 C225 1.370 . S
C230 C226 1.395 . S
C230 H247 0.930 . S
C231 Gd178 2.805 . S
C231 O213 1.263 . S
C231 O214 1.252 . S
C231 C225 1.500 . S
C232 H194 0.930 . S
C232 C208 1.417 . S
C232 C233 1.329 . S
C233 C203 1.437 . S
C233 H204 0.929 . S
C233 C232 1.329 . S
H234 C207 0.931 . S
C235 O217 1.265 . S
C235 O218 1.242 . S
C236 O221 1.261 . S
C236 O222 1.252 . S
C237 C240 1.394 . S
C237 C242 1.370 . S
C237 C243 1.500 . S
C238 C241 1.383 . S
C238 C242 1.395 . S
C239 C240 1.396 . S
C239 C241 1.365 . S
C239 H248 0.929 . S
C240 C237 1.394 . S
C240 C239 1.396 . S
C240 H249 0.930 . S
C241 C238 1.383 . S
C241 C239 1.365 . S
C241 H250 0.931 . S
C242 C237 1.370 . S
C242 C238 1.395 . S
C242 H251 0.930 . S
C243 Gd179 2.805 . S
C243 O219 1.263 . S
C243 O220 1.252 . S
C243 C237 1.500 . S
H244 C227 0.929 . S
H245 C228 0.930 . S
H246 C229 0.931 . S
H247 C230 0.930 . S
H248 C239 0.929 . S
H249 C240 0.930 . S
H250 C241 0.931 . S
H251 C242 0.930 . S
C252 C254 1.422 . S
C252 C256 1.415 . S
C252 N258 1.369 . S
C253 C254 1.421 . S
C253 C255 1.417 . S
C253 C265 1.422 1_545 S
C254 C252 1.422 . S
C254 C253 1.421 . S
C254 N264 1.359 1_545 S
C255 C253 1.417 . S
C255 C257 1.329 . S
C255 H274 0.930 . S
C256 C252 1.415 . S
C256 C257 1.437 . S
C256 C260 1.413 . S
C257 C255 1.329 . S
C257 C256 1.437 . S
C257 H279 0.929 . S
N258 C252 1.369 . S
N258 C259 1.338 . S
N258 Gd263 2.622 1_545 S
C259 N258 1.338 . S
C259 C261 1.378 . S
C259 H271 0.929 . S
C260 C256 1.413 . S
C260 C261 1.348 . S
C260 H276 0.931 . S
C261 C259 1.378 . S
C261 C260 1.348 . S
C261 H277 0.930 . S
Gd262 N282 2.622 1_545 S
Gd262 N289 2.570 . S
Gd262 O296 2.353 . S
Gd262 O297 2.468 . S
Gd262 O298 2.427 . S
Gd262 O300 2.388 1_545 S
Gd262 O301 2.386 1_545 S
Gd262 O305 2.307 . S
Gd262 C315 2.805 . S
Gd263 N258 2.622 1_565 S
Gd263 N264 2.570 . S
Gd263 O295 2.386 1_565 S
Gd263 O299 2.307 . S
Gd263 O302 2.353 . S
Gd263 O303 2.468 . S
Gd263 O304 2.427 . S
Gd263 O306 2.388 1_565 S
Gd263 C327 2.805 . S
N264 C254 1.359 1_565 S
N264 Gd263 2.570 . S
N264 C266 1.343 . S
C265 C253 1.422 1_565 S
C265 C267 1.321 . S
C265 H273 0.931 . S
C266 N264 1.343 . S
C266 C267 1.390 . S
C266 H268 0.931 . S
C267 C265 1.321 . S
C267 C266 1.390 . S
C267 H269 0.930 . S
H268 C266 0.931 . S
H269 C267 0.930 . S
H270 C293 0.931 . S
H271 C259 0.929 . S
H272 C294 0.930 . S
H273 C265 0.931 . S
H274 C255 0.930 . S
H275 C284 0.929 . S
H276 C260 0.931 . S
H277 C261 0.930 . S
H278 C316 0.930 . S
H279 C257 0.929 . S
H280 C285 0.931 . S
H281 C286 0.930 . S
N282 Gd262 2.622 1_565 S
N282 C283 1.369 . S
N282 C284 1.338 . S
C283 N282 1.369 . S
C283 C287 1.415 . S
C283 C290 1.422 . S
C284 H275 0.929 . S
C284 N282 1.338 . S
C284 C286 1.378 . S
C285 H280 0.931 . S
C285 C286 1.348 . S
C285 C287 1.413 . S
C286 H281 0.930 . S
C286 C284 1.378 . S
C286 C285 1.348 . S
C287 C283 1.415 . S
C287 C285 1.413 . S
C287 C317 1.437 . S
H288 C317 0.929 . S
N289 Gd262 2.570 . S
N289 C290 1.359 1_545 S
N289 C293 1.343 . S
C290 C283 1.422 . S
C290 N289 1.359 1_565 S
C290 C292 1.421 . S
C291 C292 1.422 1_545 S
C291 C294 1.321 . S
C291 H318 0.931 . S
C292 C290 1.421 . S
C292 C291 1.422 1_565 S
C292 C316 1.417 . S
C293 H270 0.931 . S
C293 N289 1.343 . S
C293 C294 1.390 . S
C294 H272 0.930 . S
C294 C291 1.321 . S
C294 C293 1.390 . S
O295 Gd263 2.386 1_545 S
O295 C307 1.265 . S
O296 Gd262 2.353 . S
O296 C307 1.242 . S
O297 Gd262 2.468 . S
O297 C315 1.263 . S
O298 Gd262 2.427 . S
O298 C315 1.252 . S
O299 Gd263 2.307 . S
O299 C308 1.261 . S
O300 Gd262 2.388 1_565 S
O300 C308 1.252 . S
O301 Gd262 2.386 1_565 S
O301 C319 1.265 . S
O302 Gd263 2.353 . S
O302 C319 1.242 . S
O303 Gd263 2.468 . S
O303 C327 1.263 . S
O304 Gd263 2.427 . S
O304 C327 1.252 . S
O305 Gd262 2.307 . S
O305 C320 1.261 . S
O306 Gd263 2.388 1_545 S
O306 C320 1.252 . S
C307 O295 1.265 . S
C307 O296 1.242 . S
C308 O299 1.261 . S
C308 O300 1.252 . S
C309 C312 1.394 . S
C309 C314 1.370 . S
C309 C315 1.500 . S
C310 C313 1.383 . S
C310 C314 1.395 . S
C311 C312 1.396 . S
C311 C313 1.365 . S
C311 H328 0.929 . S
C312 C309 1.394 . S
C312 C311 1.396 . S
C312 H329 0.930 . S
C313 C310 1.383 . S
C313 C311 1.365 . S
C313 H330 0.931 . S
C314 C309 1.370 . S
C314 C310 1.395 . S
C314 H331 0.930 . S
C315 Gd262 2.805 . S
C315 O297 1.263 . S
C315 O298 1.252 . S
C315 C309 1.500 . S
C316 H278 0.930 . S
C316 C292 1.417 . S
C316 C317 1.329 . S
C317 C287 1.437 . S
C317 H288 0.929 . S
C317 C316 1.329 . S
H318 C291 0.931 . S
C319 O301 1.265 . S
C319 O302 1.242 . S
C320 O305 1.261 . S
C320 O306 1.252 . S
C321 C324 1.394 . S
C321 C326 1.370 . S
C321 C327 1.500 . S
C322 C325 1.383 . S
C322 C326 1.395 . S
C323 C324 1.396 . S
C323 C325 1.365 . S
C323 H332 0.929 . S
C324 C321 1.394 . S
C324 C323 1.396 . S
C324 H333 0.930 . S
C325 C322 1.383 . S
C325 C323 1.365 . S
C325 H334 0.931 . S
C326 C321 1.370 . S
C326 C322 1.395 . S
C326 H335 0.930 . S
C327 Gd263 2.805 . S
C327 O303 1.263 . S
C327 O304 1.252 . S
C327 C321 1.500 . S
H328 C311 0.929 . S
H329 C312 0.930 . S
H330 C313 0.931 . S
H331 C314 0.930 . S
H332 C323 0.929 . S
H333 C324 0.930 . S
H334 C325 0.931 . S
H335 C326 0.930 . S
C336 C338 1.422 . S
C336 C340 1.415 . S
C336 N342 1.369 . S
C337 C338 1.421 . S
C337 C339 1.417 . S
C337 C349 1.422 . S
C338 C336 1.422 . S
C338 C337 1.421 . S
C338 N348 1.359 . S
C339 C337 1.417 . S
C339 C341 1.329 . S
C339 H358 0.930 . S
C340 C336 1.415 . S
C340 C341 1.437 . S
C340 C344 1.413 . S
C341 C339 1.329 . S
C341 C340 1.437 . S
C341 H363 0.929 . S
N342 C336 1.369 . S
N342 C343 1.338 . S
N342 Gd347 2.622 . S
C343 N342 1.338 . S
C343 C345 1.378 . S
C343 H355 0.929 . S
C344 C340 1.413 . S
C344 C345 1.348 . S
C344 H360 0.931 . S
C345 C343 1.378 . S
C345 C344 1.348 . S
C345 H361 0.930 . S
Gd346 N366 2.622 . S
Gd346 N373 2.570 . S
Gd346 O380 2.353 . S
Gd346 O381 2.468 . S
Gd346 O382 2.427 . S
Gd346 O384 2.388 . S
Gd346 O385 2.386 . S
Gd346 O389 2.307 . S
Gd346 C399 2.805 . S
Gd347 N342 2.622 . S
Gd347 N348 2.570 . S
Gd347 O379 2.386 . S
Gd347 O383 2.307 . S
Gd347 O386 2.353 . S
Gd347 O387 2.468 . S
Gd347 O388 2.427 . S
Gd347 O390 2.388 . S
Gd347 C411 2.805 . S
N348 C338 1.359 . S
N348 Gd347 2.570 . S
N348 C350 1.343 . S
C349 C337 1.422 . S
C349 C351 1.321 . S
C349 H357 0.931 . S
C350 N348 1.343 . S
C350 C351 1.390 . S
C350 H352 0.931 . S
C351 C349 1.321 . S
C351 C350 1.390 . S
C351 H353 0.930 . S
H352 C350 0.931 . S
H353 C351 0.930 . S
H354 C377 0.931 . S
H355 C343 0.929 . S
H356 C378 0.930 . S
H357 C349 0.931 . S
H358 C339 0.930 . S
H359 C368 0.929 . S
H360 C344 0.931 . S
H361 C345 0.930 . S
H362 C400 0.930 . S
H363 C341 0.929 . S
H364 C369 0.931 . S
H365 C370 0.933 . S
N366 Gd346 2.622 . S
N366 C367 1.369 . S
N366 C368 1.338 . S
C367 N366 1.369 . S
C367 C371 1.415 . S
C367 C374 1.422 . S
C368 H359 0.929 . S
C368 N366 1.338 . S
C368 C370 1.378 . S
C369 H364 0.931 . S
C369 C370 1.348 . S
C369 C371 1.413 . S
C370 H365 0.933 . S
C370 C368 1.378 . S
C370 C369 1.348 . S
C371 C367 1.415 . S
C371 C369 1.413 . S
C371 C401 1.437 . S
H372 C401 0.929 . S
N373 Gd346 2.570 . S
N373 C374 1.359 . S
N373 C377 1.343 . S
C374 C367 1.422 . S
C374 N373 1.359 . S
C374 C376 1.421 . S
C375 C376 1.422 . S
C375 C378 1.321 . S
C375 H402 0.931 . S
C376 C374 1.421 . S
C376 C375 1.422 . S
C376 C400 1.417 . S
C377 H354 0.931 . S
C377 N373 1.343 . S
C377 C378 1.390 . S
C378 H356 0.930 . S
C378 C375 1.321 . S
C378 C377 1.390 . S
O379 Gd347 2.386 . S
O379 C391 1.265 . S
O380 Gd346 2.353 . S
O380 C391 1.242 . S
O381 Gd346 2.468 . S
O381 C399 1.263 . S
O382 Gd346 2.427 . S
O382 C399 1.252 . S
O383 Gd347 2.307 . S
O383 C392 1.261 . S
O384 Gd346 2.388 . S
O384 C392 1.252 . S
O385 Gd346 2.386 . S
O385 C403 1.265 . S
O386 Gd347 2.353 . S
O386 C403 1.242 . S
O387 Gd347 2.468 . S
O387 C411 1.263 . S
O388 Gd347 2.427 . S
O388 C411 1.252 . S
O389 Gd346 2.307 . S
O389 C404 1.261 . S
O390 Gd347 2.388 . S
O390 C404 1.252 . S
C391 O379 1.265 . S
C391 O380 1.242 . S
C392 O383 1.261 . S
C392 O384 1.252 . S
C393 C396 1.394 . S
C393 C398 1.370 1_556 S
C393 C399 1.500 1_556 S
C394 C397 1.383 . S
C394 C398 1.395 1_556 S
C395 C396 1.396 . S
C395 C397 1.365 . S
C395 H412 0.929 . S
C396 C393 1.394 . S
C396 C395 1.396 . S
C396 H413 0.930 . S
C397 C394 1.383 . S
C397 C395 1.365 . S
C397 H414 0.931 . S
C398 C393 1.370 1_554 S
C398 C394 1.395 1_554 S
C398 H415 0.930 . S
C399 Gd346 2.805 . S
C399 O381 1.263 . S
C399 O382 1.252 . S
C399 C393 1.500 1_554 S
C400 H362 0.930 . S
C400 C376 1.417 . S
C400 C401 1.329 . S
C401 C371 1.437 . S
C401 H372 0.929 . S
C401 C400 1.329 . S
H402 C375 0.931 . S
C403 O385 1.265 . S
C403 O386 1.242 . S
C404 O389 1.261 . S
C404 O390 1.252 . S
C405 C408 1.394 . S
C405 C410 1.370 . S
C405 C411 1.500 . S
C406 C409 1.383 . S
C406 C410 1.395 . S
C407 C408 1.396 . S
C407 C409 1.365 . S
C407 H416 0.929 . S
C408 C405 1.394 . S
C408 C407 1.396 . S
C408 H417 0.930 . S
C409 C406 1.383 . S
C409 C407 1.365 . S
C409 H418 0.931 . S
C410 C405 1.370 . S
C410 C406 1.395 . S
C410 H419 0.930 . S
C411 Gd347 2.805 . S
C411 O387 1.263 . S
C411 O388 1.252 . S
C411 C405 1.500 . S
H412 C395 0.929 . S
H413 C396 0.930 . S
H414 C397 0.931 . S
H415 C398 0.930 . S
H416 C407 0.929 . S
H417 C408 0.930 . S
H418 C409 0.931 . S
H419 C410 0.930 . S
C420 C422 1.422 . S
C420 C424 1.415 . S
C420 N426 1.369 . S
C421 C422 1.421 . S
C421 C423 1.417 . S
C421 C433 1.422 1_655 S
C422 C420 1.422 . S
C422 C421 1.421 . S
C422 N432 1.359 1_655 S
C423 C421 1.417 . S
C423 C425 1.329 . S
C423 H442 0.930 . S
C424 C420 1.415 . S
C424 C425 1.437 . S
C424 C428 1.413 . S
C425 C423 1.329 . S
C425 C424 1.437 . S
C425 H447 0.929 . S
N426 C420 1.369 . S
N426 C427 1.338 . S
N426 Gd431 2.622 1_655 S
C427 N426 1.338 . S
C427 C429 1.378 . S
C427 H439 0.929 . S
C428 C424 1.413 . S
C428 C429 1.348 . S
C428 H444 0.931 . S
C429 C427 1.378 . S
C429 C428 1.348 . S
C429 H445 0.930 . S
Gd430 N450 2.622 1_655 S
Gd430 N457 2.570 . S
Gd430 O464 2.353 . S
Gd430 O465 2.468 . S
Gd430 O466 2.427 . S
Gd430 O468 2.388 1_655 S
Gd430 O469 2.386 1_655 S
Gd430 O473 2.307 . S
Gd430 C483 2.805 . S
Gd431 N426 2.622 1_455 S
Gd431 N432 2.570 . S
Gd431 O463 2.386 1_455 S
Gd431 O467 2.307 . S
Gd431 O470 2.353 . S
Gd431 O471 2.468 . S
Gd431 O472 2.427 . S
Gd431 O474 2.388 1_455 S
Gd431 C495 2.805 . S
N432 C422 1.359 1_455 S
N432 Gd431 2.570 . S
N432 C434 1.343 . S
C433 C421 1.422 1_455 S
C433 C435 1.321 . S
C433 H441 0.931 . S
C434 N432 1.343 . S
C434 C435 1.390 . S
C434 H436 0.931 . S
C435 C433 1.321 . S
C435 C434 1.390 . S
C435 H437 0.930 . S
H436 C434 0.931 . S
H437 C435 0.930 . S
H438 C461 0.931 . S
H439 C427 0.929 . S
H440 C462 0.930 . S
H441 C433 0.931 . S
H442 C423 0.930 . S
H443 C452 0.929 . S
H444 C428 0.931 . S
H445 C429 0.930 . S
H446 C484 0.930 . S
H447 C425 0.929 . S
H448 C453 0.931 . S
H449 C454 0.930 . S
N450 Gd430 2.622 1_455 S
N450 C451 1.369 . S
N450 C452 1.338 . S
C451 N450 1.369 . S
C451 C455 1.415 . S
C451 C458 1.422 . S
C452 H443 0.929 . S
C452 N450 1.338 . S
C452 C454 1.378 . S
C453 H448 0.931 . S
C453 C454 1.348 . S
C453 C455 1.413 . S
C454 H449 0.930 . S
C454 C452 1.378 . S
C454 C453 1.348 . S
C455 C451 1.415 . S
C455 C453 1.413 . S
C455 C485 1.437 . S
H456 C485 0.929 . S
N457 Gd430 2.570 . S
N457 C458 1.359 1_655 S
N457 C461 1.343 . S
C458 C451 1.422 . S
C458 N457 1.359 1_455 S
C458 C460 1.421 . S
C459 C460 1.422 1_655 S
C459 C462 1.321 . S
C459 H486 0.931 . S
C460 C458 1.421 . S
C460 C459 1.422 1_455 S
C460 C484 1.417 . S
C461 H438 0.931 . S
C461 N457 1.343 . S
C461 C462 1.390 . S
C462 H440 0.930 . S
C462 C459 1.321 . S
C462 C461 1.390 . S
O463 Gd431 2.386 1_655 S
O463 C475 1.265 . S
O464 Gd430 2.353 . S
O464 C475 1.242 . S
O465 Gd430 2.468 . S
O465 C483 1.263 . S
O466 Gd430 2.427 . S
O466 C483 1.252 . S
O467 Gd431 2.307 . S
O467 C476 1.261 . S
O468 Gd430 2.388 1_455 S
O468 C476 1.252 . S
O469 Gd430 2.386 1_455 S
O469 C487 1.265 . S
O470 Gd431 2.353 . S
O470 C487 1.242 . S
O471 Gd431 2.468 . S
O471 C495 1.263 . S
O472 Gd431 2.427 . S
O472 C495 1.252 . S
O473 Gd430 2.307 . S
O473 C488 1.261 . S
O474 Gd431 2.388 1_655 S
O474 C488 1.252 . S
C475 O463 1.265 . S
C475 O464 1.242 . S
C476 O467 1.261 . S
C476 O468 1.252 . S
C477 C480 1.394 . S
C477 C482 1.370 . S
C477 C483 1.500 . S
C478 C481 1.383 . S
C478 C482 1.395 . S
C479 C480 1.396 . S
C479 C481 1.365 . S
C479 H496 0.929 . S
C480 C477 1.394 . S
C480 C479 1.396 . S
C480 H497 0.930 . S
C481 C478 1.383 . S
C481 C479 1.365 . S
C481 H498 0.931 . S
C482 C477 1.370 . S
C482 C478 1.395 . S
C482 H499 0.930 . S
C483 Gd430 2.805 . S
C483 O465 1.263 . S
C483 O466 1.252 . S
C483 C477 1.500 . S
C484 H446 0.930 . S
C484 C460 1.417 . S
C484 C485 1.329 . S
C485 C455 1.437 . S
C485 H456 0.929 . S
C485 C484 1.329 . S
H486 C459 0.931 . S
C487 O469 1.265 . S
C487 O470 1.242 . S
C488 O473 1.261 . S
C488 O474 1.252 . S
C489 C492 1.394 . S
C489 C494 1.370 . S
C489 C495 1.500 . S
C490 C493 1.383 . S
C490 C494 1.395 . S
C491 C492 1.396 . S
C491 C493 1.365 . S
C491 H500 0.929 . S
C492 C489 1.394 . S
C492 C491 1.396 . S
C492 H501 0.930 . S
C493 C490 1.383 . S
C493 C491 1.365 . S
C493 H502 0.931 . S
C494 C489 1.370 . S
C494 C490 1.395 . S
C494 H503 0.930 . S
C495 Gd431 2.805 . S
C495 O471 1.263 . S
C495 O472 1.252 . S
C495 C489 1.500 . S
H496 C479 0.929 . S
H497 C480 0.930 . S
H498 C481 0.931 . S
H499 C482 0.930 . S
H500 C491 0.929 . S
H501 C492 0.930 . S
H502 C493 0.931 . S
H503 C494 0.930 . S
C504 C506 1.422 . S
C504 C508 1.415 . S
C504 N510 1.369 . S
C505 C506 1.421 . S
C505 C507 1.417 . S
C505 C517 1.422 1_455 S
C506 C504 1.422 . S
C506 C505 1.421 . S
C506 N516 1.359 1_455 S
C507 C505 1.417 . S
C507 C509 1.329 . S
C507 H526 0.930 . S
C508 C504 1.415 . S
C508 C509 1.437 . S
C508 C512 1.413 . S
C509 C507 1.329 . S
C509 C508 1.437 . S
C509 H531 0.929 . S
N510 C504 1.369 . S
N510 C511 1.338 . S
N510 Gd515 2.622 1_455 S
C511 N510 1.338 . S
C511 C513 1.378 . S
C511 H523 0.929 . S
C512 C508 1.413 . S
C512 C513 1.348 . S
C512 H528 0.931 . S
C513 C511 1.378 . S
C513 C512 1.348 . S
C513 H529 0.930 . S
Gd514 N534 2.622 1_455 S
Gd514 N541 2.570 . S
Gd514 O548 2.353 . S
Gd514 O549 2.468 . S
Gd514 O550 2.427 . S
Gd514 O552 2.388 1_455 S
Gd514 O553 2.386 1_455 S
Gd514 O557 2.307 . S
Gd514 C567 2.805 . S
Gd515 N510 2.622 1_655 S
Gd515 N516 2.570 . S
Gd515 O547 2.386 1_655 S
Gd515 O551 2.307 . S
Gd515 O554 2.353 . S
Gd515 O555 2.468 . S
Gd515 O556 2.427 . S
Gd515 O558 2.388 1_655 S
Gd515 C579 2.805 . S
N516 C506 1.359 1_655 S
N516 Gd515 2.570 . S
N516 C518 1.343 . S
C517 C505 1.422 1_655 S
C517 C519 1.321 . S
C517 H525 0.931 . S
C518 N516 1.343 . S
C518 C519 1.390 . S
C518 H520 0.931 . S
C519 C517 1.321 . S
C519 C518 1.390 . S
C519 H521 0.930 . S
H520 C518 0.931 . S
H521 C519 0.930 . S
H522 C545 0.931 . S
H523 C511 0.929 . S
H524 C546 0.930 . S
H525 C517 0.931 . S
H526 C507 0.930 . S
H527 C536 0.929 . S
H528 C512 0.931 . S
H529 C513 0.930 . S
H530 C568 0.930 . S
H531 C509 0.929 . S
H532 C537 0.931 . S
H533 C538 0.930 . S
N534 Gd514 2.622 1_655 S
N534 C535 1.369 . S
N534 C536 1.338 . S
C535 N534 1.369 . S
C535 C539 1.415 . S
C535 C542 1.422 . S
C536 H527 0.929 . S
C536 N534 1.338 . S
C536 C538 1.378 . S
C537 H532 0.931 . S
C537 C538 1.348 . S
C537 C539 1.413 . S
C538 H533 0.930 . S
C538 C536 1.378 . S
C538 C537 1.348 . S
C539 C535 1.415 . S
C539 C537 1.413 . S
C539 C569 1.437 . S
H540 C569 0.929 . S
N541 Gd514 2.570 . S
N541 C542 1.359 1_455 S
N541 C545 1.343 . S
C542 C535 1.422 . S
C542 N541 1.359 1_655 S
C542 C544 1.421 . S
C543 C544 1.422 1_455 S
C543 C546 1.321 . S
C543 H570 0.931 . S
C544 C542 1.421 . S
C544 C543 1.422 1_655 S
C544 C568 1.417 . S
C545 H522 0.931 . S
C545 N541 1.343 . S
C545 C546 1.390 . S
C546 H524 0.930 . S
C546 C543 1.321 . S
C546 C545 1.390 . S
O547 Gd515 2.386 1_455 S
O547 C559 1.265 . S
O548 Gd514 2.353 . S
O548 C559 1.242 . S
O549 Gd514 2.468 . S
O549 C567 1.263 . S
O550 Gd514 2.427 . S
O550 C567 1.252 . S
O551 Gd515 2.307 . S
O551 C560 1.261 . S
O552 Gd514 2.388 1_655 S
O552 C560 1.252 . S
O553 Gd514 2.386 1_655 S
O553 C571 1.265 . S
O554 Gd515 2.353 . S
O554 C571 1.242 . S
O555 Gd515 2.468 . S
O555 C579 1.263 . S
O556 Gd515 2.427 . S
O556 C579 1.252 . S
O557 Gd514 2.307 . S
O557 C572 1.261 . S
O558 Gd515 2.388 1_455 S
O558 C572 1.252 . S
C559 O547 1.265 . S
C559 O548 1.242 . S
C560 O551 1.261 . S
C560 O552 1.252 . S
C561 C564 1.394 . S
C561 C566 1.370 . S
C561 C567 1.500 . S
C562 C565 1.383 . S
C562 C566 1.395 . S
C563 C564 1.396 . S
C563 C565 1.365 . S
C563 H580 0.929 . S
C564 C561 1.394 . S
C564 C563 1.396 . S
C564 H581 0.930 . S
C565 C562 1.383 . S
C565 C563 1.365 . S
C565 H582 0.931 . S
C566 C561 1.370 . S
C566 C562 1.395 . S
C566 H583 0.930 . S
C567 Gd514 2.805 . S
C567 O549 1.263 . S
C567 O550 1.252 . S
C567 C561 1.500 . S
C568 H530 0.930 . S
C568 C544 1.417 . S
C568 C569 1.329 . S
C569 C539 1.437 . S
C569 H540 0.929 . S
C569 C568 1.329 . S
H570 C543 0.931 . S
C571 O553 1.265 . S
C571 O554 1.242 . S
C572 O557 1.261 . S
C572 O558 1.252 . S
C573 C576 1.394 . S
C573 C578 1.370 . S
C573 C579 1.500 . S
C574 C577 1.383 . S
C574 C578 1.395 . S
C575 C576 1.396 . S
C575 C577 1.365 . S
C575 H584 0.929 . S
C576 C573 1.394 . S
C576 C575 1.396 . S
C576 H585 0.930 . S
C577 C574 1.383 . S
C577 C575 1.365 . S
C577 H586 0.931 . S
C578 C573 1.370 . S
C578 C574 1.395 . S
C578 H587 0.930 . S
C579 Gd515 2.805 . S
C579 O555 1.263 . S
C579 O556 1.252 . S
C579 C573 1.500 . S
H580 C563 0.929 . S
H581 C564 0.930 . S
H582 C565 0.931 . S
H583 C566 0.930 . S
H584 C575 0.929 . S
H585 C576 0.930 . S
H586 C577 0.931 . S
H587 C578 0.930 . S
C588 C590 1.422 . S
C588 C592 1.415 . S
C588 N594 1.369 . S
C589 C590 1.421 . S
C589 C591 1.417 . S
C589 C601 1.422 1_545 S
C590 C588 1.422 . S
C590 C589 1.421 . S
C590 N600 1.359 1_545 S
C591 C589 1.417 . S
C591 C593 1.329 . S
C591 H610 0.930 . S
C592 C588 1.415 . S
C592 C593 1.437 . S
C592 C596 1.413 . S
C593 C591 1.329 . S
C593 C592 1.437 . S
C593 H615 0.929 . S
N594 C588 1.369 . S
N594 C595 1.338 . S
N594 Gd599 2.622 1_545 S
C595 N594 1.338 . S
C595 C597 1.378 . S
C595 H607 0.929 . S
C596 C592 1.413 . S
C596 C597 1.348 . S
C596 H612 0.931 . S
C597 C595 1.378 . S
C597 C596 1.348 . S
C597 H613 0.930 . S
Gd598 N618 2.622 1_545 S
Gd598 N625 2.570 . S
Gd598 O632 2.353 . S
Gd598 O633 2.468 . S
Gd598 O634 2.427 . S
Gd598 O636 2.388 1_545 S
Gd598 O637 2.386 1_545 S
Gd598 O641 2.307 . S
Gd598 C651 2.805 . S
Gd599 N594 2.622 1_565 S
Gd599 N600 2.570 . S
Gd599 O631 2.386 1_565 S
Gd599 O635 2.307 . S
Gd599 O638 2.353 . S
Gd599 O639 2.468 . S
Gd599 O640 2.427 . S
Gd599 O642 2.388 1_565 S
Gd599 C663 2.805 . S
N600 C590 1.359 1_565 S
N600 Gd599 2.570 . S
N600 C602 1.343 . S
C601 C589 1.422 1_565 S
C601 C603 1.321 . S
C601 H609 0.931 . S
C602 N600 1.343 . S
C602 C603 1.390 . S
C602 H604 0.931 . S
C603 C601 1.321 . S
C603 C602 1.390 . S
C603 H605 0.930 . S
H604 C602 0.931 . S
H605 C603 0.930 . S
H606 C629 0.931 . S
H607 C595 0.929 . S
H608 C630 0.930 . S
H609 C601 0.931 . S
H610 C591 0.930 . S
H611 C620 0.929 . S
H612 C596 0.931 . S
H613 C597 0.930 . S
H614 C652 0.930 . S
H615 C593 0.929 . S
H616 C621 0.931 . S
H617 C622 0.930 . S
N618 Gd598 2.622 1_565 S
N618 C619 1.369 . S
N618 C620 1.338 . S
C619 N618 1.369 . S
C619 C623 1.415 . S
C619 C626 1.422 . S
C620 H611 0.929 . S
C620 N618 1.338 . S
C620 C622 1.378 . S
C621 H616 0.931 . S
C621 C622 1.348 . S
C621 C623 1.413 . S
C622 H617 0.930 . S
C622 C620 1.378 . S
C622 C621 1.348 . S
C623 C619 1.415 . S
C623 C621 1.413 . S
C623 C653 1.437 . S
H624 C653 0.929 . S
N625 Gd598 2.570 . S
N625 C626 1.359 1_545 S
N625 C629 1.343 . S
C626 C619 1.422 . S
C626 N625 1.359 1_565 S
C626 C628 1.421 . S
C627 C628 1.422 1_545 S
C627 C630 1.321 . S
C627 H654 0.931 . S
C628 C626 1.421 . S
C628 C627 1.422 1_565 S
C628 C652 1.417 . S
C629 H606 0.931 . S
C629 N625 1.343 . S
C629 C630 1.390 . S
C630 H608 0.930 . S
C630 C627 1.321 . S
C630 C629 1.390 . S
O631 Gd599 2.386 1_545 S
O631 C643 1.265 . S
O632 Gd598 2.353 . S
O632 C643 1.242 . S
O633 Gd598 2.468 . S
O633 C651 1.263 . S
O634 Gd598 2.427 . S
O634 C651 1.252 . S
O635 Gd599 2.307 . S
O635 C644 1.261 . S
O636 Gd598 2.388 1_565 S
O636 C644 1.252 . S
O637 Gd598 2.386 1_565 S
O637 C655 1.265 . S
O638 Gd599 2.353 . S
O638 C655 1.242 . S
O639 Gd599 2.468 . S
O639 C663 1.263 . S
O640 Gd599 2.427 . S
O640 C663 1.252 . S
O641 Gd598 2.307 . S
O641 C656 1.261 . S
O642 Gd599 2.388 1_545 S
O642 C656 1.252 . S
C643 O631 1.265 . S
C643 O632 1.242 . S
C644 O635 1.261 . S
C644 O636 1.252 . S
C645 C648 1.394 . S
C645 C650 1.370 . S
C645 C651 1.500 . S
C646 C649 1.383 . S
C646 C650 1.395 . S
C647 C648 1.396 . S
C647 C649 1.365 . S
C647 H664 0.929 . S
C648 C645 1.394 . S
C648 C647 1.396 . S
C648 H665 0.930 . S
C649 C646 1.383 . S
C649 C647 1.365 . S
C649 H666 0.931 . S
C650 C645 1.370 . S
C650 C646 1.395 . S
C650 H667 0.930 . S
C651 Gd598 2.805 . S
C651 O633 1.263 . S
C651 O634 1.252 . S
C651 C645 1.500 . S
C652 H614 0.930 . S
C652 C628 1.417 . S
C652 C653 1.329 . S
C653 C623 1.437 . S
C653 H624 0.929 . S
C653 C652 1.329 . S
H654 C627 0.931 . S
C655 O637 1.265 . S
C655 O638 1.242 . S
C656 O641 1.261 . S
C656 O642 1.252 . S
C657 C660 1.394 . S
C657 C662 1.370 . S
C657 C663 1.500 . S
C658 C661 1.383 . S
C658 C662 1.395 . S
C659 C660 1.396 . S
C659 C661 1.365 . S
C659 H668 0.929 . S
C660 C657 1.394 . S
C660 C659 1.396 . S
C660 H669 0.930 . S
C661 C658 1.383 . S
C661 C659 1.365 . S
C661 H670 0.931 . S
C662 C657 1.370 . S
C662 C658 1.395 . S
C662 H671 0.930 . S
C663 Gd599 2.805 . S
C663 O639 1.263 . S
C663 O640 1.252 . S
C663 C657 1.500 . S
H664 C647 0.929 . S
H665 C648 0.930 . S
H666 C649 0.931 . S
H667 C650 0.930 . S
H668 C659 0.929 . S
H669 C660 0.930 . S
H670 C661 0.931 . S
H671 C662 0.930 . S
C672 C674 1.422 . S
C672 C676 1.415 . S
C672 N678 1.369 . S
C673 C674 1.421 . S
C673 C675 1.417 . S
C673 C685 1.422 . S
C674 C672 1.422 . S
C674 C673 1.421 . S
C674 N684 1.359 . S
C675 C673 1.417 . S
C675 C677 1.329 . S
C675 H694 0.930 . S
C676 C672 1.415 . S
C676 C677 1.437 . S
C676 C680 1.413 . S
C677 C675 1.329 . S
C677 C676 1.437 . S
C677 H699 0.929 . S
N678 C672 1.369 . S
N678 C679 1.338 . S
N678 Gd683 2.622 . S
C679 N678 1.338 . S
C679 C681 1.378 . S
C679 H691 0.929 . S
C680 C676 1.413 . S
C680 C681 1.348 . S
C680 H696 0.931 . S
C681 C679 1.378 . S
C681 C680 1.348 . S
C681 H697 0.930 . S
Gd682 N702 2.622 . S
Gd682 N709 2.570 . S
Gd682 O716 2.353 . S
Gd682 O717 2.468 . S
Gd682 O718 2.427 . S
Gd682 O720 2.388 . S
Gd682 O721 2.386 . S
Gd682 O725 2.307 . S
Gd682 C735 2.805 . S
Gd683 N678 2.622 . S
Gd683 N684 2.570 . S
Gd683 O715 2.386 . S
Gd683 O719 2.307 . S
Gd683 O722 2.353 . S
Gd683 O723 2.468 . S
Gd683 O724 2.427 . S
Gd683 O726 2.388 . S
Gd683 C747 2.805 . S
N684 C674 1.359 . S
N684 Gd683 2.570 . S
N684 C686 1.343 . S
C685 C673 1.422 . S
C685 C687 1.321 . S
C685 H693 0.931 . S
C686 N684 1.343 . S
C686 C687 1.390 . S
C686 H688 0.931 . S
C687 C685 1.321 . S
C687 C686 1.390 . S
C687 H689 0.930 . S
H688 C686 0.931 . S
H689 C687 0.930 . S
H690 C713 0.931 . S
H691 C679 0.929 . S
H692 C714 0.930 . S
H693 C685 0.931 . S
H694 C675 0.930 . S
H695 C704 0.929 . S
H696 C680 0.931 . S
H697 C681 0.930 . S
H698 C736 0.930 . S
H699 C677 0.929 . S
H700 C705 0.931 . S
H701 C706 0.930 . S
N702 Gd682 2.622 . S
N702 C703 1.369 . S
N702 C704 1.338 . S
C703 N702 1.369 . S
C703 C707 1.415 . S
C703 C710 1.422 . S
C704 H695 0.929 . S
C704 N702 1.338 . S
C704 C706 1.378 . S
C705 H700 0.931 . S
C705 C706 1.348 . S
C705 C707 1.413 . S
C706 H701 0.930 . S
C706 C704 1.378 . S
C706 C705 1.348 . S
C707 C703 1.415 . S
C707 C705 1.413 . S
C707 C737 1.437 . S
H708 C737 0.929 . S
N709 Gd682 2.570 . S
N709 C710 1.359 . S
N709 C713 1.343 . S
C710 C703 1.422 . S
C710 N709 1.359 . S
C710 C712 1.421 . S
C711 C712 1.422 . S
C711 C714 1.321 . S
C711 H738 0.931 . S
C712 C710 1.421 . S
C712 C711 1.422 . S
C712 C736 1.417 . S
C713 H690 0.931 . S
C713 N709 1.343 . S
C713 C714 1.390 . S
C714 H692 0.930 . S
C714 C711 1.321 . S
C714 C713 1.390 . S
O715 Gd683 2.386 . S
O715 C727 1.265 . S
O716 Gd682 2.353 . S
O716 C727 1.242 . S
O717 Gd682 2.468 . S
O717 C735 1.263 . S
O718 Gd682 2.427 . S
O718 C735 1.252 . S
O719 Gd683 2.307 . S
O719 C728 1.261 . S
O720 Gd682 2.388 . S
O720 C728 1.252 . S
O721 Gd682 2.386 . S
O721 C739 1.265 . S
O722 Gd683 2.353 . S
O722 C739 1.242 . S
O723 Gd683 2.468 . S
O723 C747 1.263 . S
O724 Gd683 2.427 . S
O724 C747 1.252 . S
O725 Gd682 2.307 . S
O725 C740 1.261 . S
O726 Gd683 2.388 . S
O726 C740 1.252 . S
C727 O715 1.265 . S
C727 O716 1.242 . S
C728 O719 1.261 . S
C728 O720 1.252 . S
C729 C732 1.394 . S
C729 C734 1.370 . S
C729 C735 1.500 . S
C730 C733 1.383 . S
C730 C734 1.395 . S
C731 C732 1.396 . S
C731 C733 1.365 . S
C731 H748 0.929 . S
C732 C729 1.394 . S
C732 C731 1.396 . S
C732 H749 0.930 . S
C733 C730 1.383 . S
C733 C731 1.365 . S
C733 H750 0.931 . S
C734 C729 1.370 . S
C734 C730 1.395 . S
C734 H751 0.930 . S
C735 Gd682 2.805 . S
C735 O717 1.263 . S
C735 O718 1.252 . S
C735 C729 1.500 . S
C736 H698 0.930 . S
C736 C712 1.417 . S
C736 C737 1.329 . S
C737 C707 1.437 . S
C737 H708 0.929 . S
C737 C736 1.329 . S
H738 C711 0.931 . S
C739 O721 1.265 . S
C739 O722 1.242 . S
C740 O725 1.261 . S
C740 O726 1.252 . S
C741 C744 1.394 . S
C741 C746 1.370 . S
C741 C747 1.500 . S
C742 C745 1.383 . S
C742 C746 1.395 . S
C743 C744 1.396 . S
C743 C745 1.365 . S
C743 H752 0.929 . S
C744 C741 1.394 . S
C744 C743 1.396 . S
C744 H753 0.930 . S
C745 C742 1.383 . S
C745 C743 1.365 . S
C745 H754 0.931 . S
C746 C741 1.370 . S
C746 C742 1.395 . S
C746 H755 0.930 . S
C747 Gd683 2.805 . S
C747 O723 1.263 . S
C747 O724 1.252 . S
C747 C741 1.500 . S
H748 C731 0.929 . S
H749 C732 0.930 . S
H750 C733 0.931 . S
H751 C734 0.930 . S
H752 C743 0.929 . S
H753 C744 0.930 . S
H754 C745 0.931 . S
H755 C746 0.930 . S
C756 C758 1.422 . S
C756 C760 1.415 . S
C756 N762 1.369 . S
C757 C758 1.421 . S
C757 C759 1.417 . S
C757 C769 1.422 1_655 S
C758 C756 1.422 . S
C758 C757 1.421 . S
C758 N768 1.359 1_655 S
C759 C757 1.417 . S
C759 C761 1.329 . S
C759 H778 0.930 . S
C760 C756 1.415 . S
C760 C761 1.437 . S
C760 C764 1.413 . S
C761 C759 1.329 . S
C761 C760 1.437 . S
C761 H783 0.929 . S
N762 C756 1.369 . S
N762 C763 1.338 . S
N762 Gd767 2.622 1_655 S
C763 N762 1.338 . S
C763 C765 1.378 . S
C763 H775 0.929 . S
C764 C760 1.413 . S
C764 C765 1.348 . S
C764 H780 0.931 . S
C765 C763 1.378 . S
C765 C764 1.348 . S
C765 H781 0.930 . S
Gd766 N786 2.622 1_655 S
Gd766 N793 2.570 . S
Gd766 O800 2.353 . S
Gd766 O801 2.468 . S
Gd766 O802 2.427 . S
Gd766 O804 2.388 1_655 S
Gd766 O805 2.386 1_655 S
Gd766 O809 2.307 . S
Gd766 C819 2.805 . S
Gd767 N762 2.622 1_455 S
Gd767 N768 2.570 . S
Gd767 O799 2.386 1_455 S
Gd767 O803 2.307 . S
Gd767 O806 2.353 . S
Gd767 O807 2.468 . S
Gd767 O808 2.427 . S
Gd767 O810 2.388 1_455 S
Gd767 C831 2.805 . S
N768 C758 1.359 1_455 S
N768 Gd767 2.570 . S
N768 C770 1.343 . S
C769 C757 1.422 1_455 S
C769 C771 1.321 . S
C769 H777 0.931 . S
C770 N768 1.343 . S
C770 C771 1.390 . S
C770 H772 0.931 . S
C771 C769 1.321 . S
C771 C770 1.390 . S
C771 H773 0.930 . S
H772 C770 0.931 . S
H773 C771 0.930 . S
H774 C797 0.931 . S
H775 C763 0.929 . S
H776 C798 0.930 . S
H777 C769 0.931 . S
H778 C759 0.930 . S
H779 C788 0.929 . S
H780 C764 0.931 . S
H781 C765 0.930 . S
H782 C820 0.930 . S
H783 C761 0.929 . S
H784 C789 0.931 . S
H785 C790 0.930 1_554 S
N786 Gd766 2.622 1_455 S
N786 C787 1.369 . S
N786 C788 1.338 . S
C787 N786 1.369 . S
C787 C791 1.415 . S
C787 C794 1.422 . S
C788 H779 0.929 . S
C788 N786 1.338 . S
C788 C790 1.378 . S
C789 H784 0.931 . S
C789 C790 1.348 . S
C789 C791 1.413 . S
C790 H785 0.930 1_556 S
C790 C788 1.378 . S
C790 C789 1.348 . S
C791 C787 1.415 . S
C791 C789 1.413 . S
C791 C821 1.437 . S
H792 C821 0.929 . S
N793 Gd766 2.570 . S
N793 C794 1.359 1_655 S
N793 C797 1.343 . S
C794 C787 1.422 . S
C794 N793 1.359 1_455 S
C794 C796 1.421 . S
C795 C796 1.422 1_655 S
C795 C798 1.321 . S
C795 H822 0.931 . S
C796 C794 1.421 . S
C796 C795 1.422 1_455 S
C796 C820 1.417 . S
C797 H774 0.931 . S
C797 N793 1.343 . S
C797 C798 1.390 . S
C798 H776 0.930 . S
C798 C795 1.321 . S
C798 C797 1.390 . S
O799 Gd767 2.386 1_655 S
O799 C811 1.265 . S
O800 Gd766 2.353 . S
O800 C811 1.242 . S
O801 Gd766 2.468 . S
O801 C819 1.263 . S
O802 Gd766 2.427 . S
O802 C819 1.252 . S
O803 Gd767 2.307 . S
O803 C812 1.261 . S
O804 Gd766 2.388 1_455 S
O804 C812 1.252 . S
O805 Gd766 2.386 1_455 S
O805 C823 1.265 . S
O806 Gd767 2.353 . S
O806 C823 1.242 . S
O807 Gd767 2.468 . S
O807 C831 1.263 . S
O808 Gd767 2.427 . S
O808 C831 1.252 . S
O809 Gd766 2.307 . S
O809 C824 1.261 . S
O810 Gd767 2.388 1_655 S
O810 C824 1.252 . S
C811 O799 1.265 . S
C811 O800 1.242 . S
C812 O803 1.261 . S
C812 O804 1.252 . S
C813 C816 1.394 . S
C813 C818 1.370 . S
C813 C819 1.500 1_554 S
C814 C817 1.383 . S
C814 C818 1.395 . S
C815 C816 1.396 . S
C815 C817 1.365 . S
C815 H832 0.929 . S
C816 C813 1.394 . S
C816 C815 1.396 . S
C816 H833 0.930 . S
C817 C814 1.383 . S
C817 C815 1.365 . S
C817 H834 0.931 . S
C818 C813 1.370 . S
C818 C814 1.395 . S
C818 H835 0.930 1_554 S
C819 Gd766 2.805 . S
C819 O801 1.263 . S
C819 O802 1.252 . S
C819 C813 1.500 1_556 S
C820 H782 0.930 . S
C820 C796 1.417 . S
C820 C821 1.329 . S
C821 C791 1.437 . S
C821 H792 0.929 . S
C821 C820 1.329 . S
H822 C795 0.931 . S
C823 O805 1.265 . S
C823 O806 1.242 . S
C824 O809 1.261 . S
C824 O810 1.252 . S
C825 C828 1.394 . S
C825 C830 1.370 . S
C825 C831 1.500 . S
C826 C829 1.383 . S
C826 C830 1.395 . S
C827 C828 1.396 . S
C827 C829 1.365 . S
C827 H836 0.929 . S
C828 C825 1.394 . S
C828 C827 1.396 . S
C828 H837 0.930 . S
C829 C826 1.383 . S
C829 C827 1.365 . S
C829 H838 0.931 . S
C830 C825 1.370 . S
C830 C826 1.395 . S
C830 H839 0.930 . S
C831 Gd767 2.805 . S
C831 O807 1.263 . S
C831 O808 1.252 . S
C831 C825 1.500 . S
H832 C815 0.929 . S
H833 C816 0.930 . S
H834 C817 0.931 . S
H835 C818 0.930 1_556 S
H836 C827 0.929 . S
H837 C828 0.930 . S
H838 C829 0.931 . S
H839 C830 0.930 . S
C840 C842 1.422 . S
C840 C844 1.415 . S
C840 N846 1.369 . S
C841 C842 1.421 . S
C841 C843 1.417 . S
C841 C853 1.422 1_565 S
C842 C840 1.422 . S
C842 C841 1.421 . S
C842 N852 1.359 1_565 S
C843 C841 1.417 . S
C843 C845 1.329 . S
C843 H862 0.930 . S
C844 C840 1.415 . S
C844 C845 1.437 . S
C844 C848 1.413 . S
C845 C843 1.329 . S
C845 C844 1.437 . S
C845 H867 0.929 . S
N846 C840 1.369 . S
N846 C847 1.338 . S
N846 Gd851 2.622 1_565 S
C847 N846 1.338 . S
C847 C849 1.378 . S
C847 H859 0.929 . S
C848 C844 1.413 . S
C848 C849 1.348 . S
C848 H864 0.931 . S
C849 C847 1.378 . S
C849 C848 1.348 . S
C849 H865 0.930 . S
Gd850 N870 2.622 1_565 S
Gd850 N877 2.570 . S
Gd850 O884 2.353 . S
Gd850 O885 2.468 . S
Gd850 O886 2.427 . S
Gd850 O888 2.388 1_565 S
Gd850 O889 2.386 1_565 S
Gd850 O893 2.307 . S
Gd850 C903 2.805 . S
Gd851 N846 2.622 1_545 S
Gd851 N852 2.570 . S
Gd851 O883 2.386 1_545 S
Gd851 O887 2.307 . S
Gd851 O890 2.353 . S
Gd851 O891 2.468 . S
Gd851 O892 2.427 . S
Gd851 O894 2.388 1_545 S
Gd851 C915 2.805 . S
N852 C842 1.359 1_545 S
N852 Gd851 2.570 . S
N852 C854 1.343 . S
C853 C841 1.422 1_545 S
C853 C855 1.321 . S
C853 H861 0.931 . S
C854 N852 1.343 . S
C854 C855 1.390 . S
C854 H856 0.931 . S
C855 C853 1.321 . S
C855 C854 1.390 . S
C855 H857 0.930 . S
H856 C854 0.931 . S
H857 C855 0.930 . S
H858 C881 0.931 . S
H859 C847 0.929 . S
H860 C882 0.930 . S
H861 C853 0.931 . S
H862 C843 0.930 . S
H863 C872 0.929 . S
H864 C848 0.931 . S
H865 C849 0.930 . S
H866 C904 0.930 . S
H867 C845 0.929 . S
H868 C873 0.931 . S
H869 C874 0.930 . S
N870 Gd850 2.622 1_545 S
N870 C871 1.369 . S
N870 C872 1.338 . S
C871 N870 1.369 . S
C871 C875 1.415 . S
C871 C878 1.422 . S
C872 H863 0.929 . S
C872 N870 1.338 . S
C872 C874 1.378 . S
C873 H868 0.931 . S
C873 C874 1.348 . S
C873 C875 1.413 . S
C874 H869 0.930 . S
C874 C872 1.378 . S
C874 C873 1.348 . S
C875 C871 1.415 . S
C875 C873 1.413 . S
C875 C905 1.437 . S
H876 C905 0.929 . S
N877 Gd850 2.570 . S
N877 C878 1.359 1_565 S
N877 C881 1.343 . S
C878 C871 1.422 . S
C878 N877 1.359 1_545 S
C878 C880 1.421 . S
C879 C880 1.422 1_565 S
C879 C882 1.321 . S
C879 H906 0.931 . S
C880 C878 1.421 . S
C880 C879 1.422 1_545 S
C880 C904 1.417 . S
C881 H858 0.931 . S
C881 N877 1.343 . S
C881 C882 1.390 . S
C882 H860 0.930 . S
C882 C879 1.321 . S
C882 C881 1.390 . S
O883 Gd851 2.386 1_565 S
O883 C895 1.265 . S
O884 Gd850 2.353 . S
O884 C895 1.242 . S
O885 Gd850 2.468 . S
O885 C903 1.263 . S
O886 Gd850 2.427 . S
O886 C903 1.252 . S
O887 Gd851 2.307 . S
O887 C896 1.261 . S
O888 Gd850 2.388 1_545 S
O888 C896 1.252 . S
O889 Gd850 2.386 1_545 S
O889 C907 1.265 . S
O890 Gd851 2.353 . S
O890 C907 1.242 . S
O891 Gd851 2.468 . S
O891 C915 1.263 . S
O892 Gd851 2.427 . S
O892 C915 1.252 . S
O893 Gd850 2.307 . S
O893 C908 1.261 . S
O894 Gd851 2.388 1_565 S
O894 C908 1.252 . S
C895 O883 1.265 . S
C895 O884 1.242 . S
C896 O887 1.261 . S
C896 O888 1.252 . S
C897 C900 1.394 . S
C897 C902 1.370 . S
C897 C903 1.500 . S
C898 C901 1.383 . S
C898 C902 1.395 . S
C899 C900 1.396 . S
C899 C901 1.365 . S
C899 H916 0.929 . S
C900 C897 1.394 . S
C900 C899 1.396 . S
C900 H917 0.930 . S
C901 C898 1.383 . S
C901 C899 1.365 . S
C901 H918 0.931 . S
C902 C897 1.370 . S
C902 C898 1.395 . S
C902 H919 0.930 . S
C903 Gd850 2.805 . S
C903 O885 1.263 . S
C903 O886 1.252 . S
C903 C897 1.500 . S
C904 H866 0.930 . S
C904 C880 1.417 . S
C904 C905 1.329 . S
C905 C875 1.437 . S
C905 H876 0.929 . S
C905 C904 1.329 . S
H906 C879 0.931 . S
C907 O889 1.265 . S
C907 O890 1.242 . S
C908 O893 1.261 . S
C908 O894 1.252 . S
C909 C912 1.394 . S
C909 C914 1.370 . S
C909 C915 1.500 . S
C910 C913 1.383 . S
C910 C914 1.395 . S
C911 C912 1.396 . S
C911 C913 1.365 . S
C911 H920 0.929 . S
C912 C909 1.394 . S
C912 C911 1.396 . S
C912 H921 0.930 . S
C913 C910 1.383 . S
C913 C911 1.365 . S
C913 H922 0.931 . S
C914 C909 1.370 . S
C914 C910 1.395 . S
C914 H923 0.930 . S
C915 Gd851 2.805 . S
C915 O891 1.263 . S
C915 O892 1.252 . S
C915 C909 1.500 . S
H916 C899 0.929 . S
H917 C900 0.930 . S
H918 C901 0.931 . S
H919 C902 0.930 . S
H920 C911 0.929 . S
H921 C912 0.930 . S
H922 C913 0.931 . S
H923 C914 0.930 . S
C924 C926 1.422 . S
C924 C928 1.415 . S
C924 N930 1.369 . S
C925 C926 1.421 . S
C925 C927 1.417 . S
C925 C937 1.422 . S
C926 C924 1.422 . S
C926 C925 1.421 . S
C926 N936 1.359 . S
C927 C925 1.417 . S
C927 C929 1.329 . S
C927 H946 0.930 . S
C928 C924 1.415 . S
C928 C929 1.437 . S
C928 C932 1.413 . S
C929 C927 1.329 . S
C929 C928 1.437 . S
C929 H951 0.929 . S
N930 C924 1.369 . S
N930 C931 1.338 . S
N930 Gd935 2.622 . S
C931 N930 1.338 . S
C931 C933 1.378 . S
C931 H943 0.929 . S
C932 C928 1.413 . S
C932 C933 1.348 . S
C932 H948 0.931 . S
C933 C931 1.378 . S
C933 C932 1.348 . S
C933 H949 0.930 . S
Gd934 N954 2.622 . S
Gd934 N961 2.570 . S
Gd934 O968 2.353 . S
Gd934 O969 2.468 . S
Gd934 O970 2.427 . S
Gd934 O972 2.388 . S
Gd934 O973 2.386 . S
Gd934 O977 2.307 . S
Gd934 C987 2.805 . S
Gd935 N930 2.622 . S
Gd935 N936 2.570 . S
Gd935 O967 2.386 . S
Gd935 O971 2.307 . S
Gd935 O974 2.353 . S
Gd935 O975 2.468 . S
Gd935 O976 2.427 . S
Gd935 O978 2.388 . S
Gd935 C999 2.805 . S
N936 C926 1.359 . S
N936 Gd935 2.570 . S
N936 C938 1.343 . S
C937 C925 1.422 . S
C937 C939 1.321 . S
C937 H945 0.931 . S
C938 N936 1.343 . S
C938 C939 1.390 . S
C938 H940 0.931 . S
C939 C937 1.321 . S
C939 C938 1.390 . S
C939 H941 0.930 . S
H940 C938 0.931 . S
H941 C939 0.930 . S
H942 C965 0.931 . S
H943 C931 0.929 . S
H944 C966 0.930 . S
H945 C937 0.931 . S
H946 C927 0.930 . S
H947 C956 0.929 . S
H948 C932 0.931 . S
H949 C933 0.930 . S
H950 C988 0.930 . S
H951 C929 0.929 . S
H952 C957 0.931 . S
H953 C958 0.930 . S
N954 Gd934 2.622 . S
N954 C955 1.369 . S
N954 C956 1.338 . S
C955 N954 1.369 . S
C955 C959 1.415 . S
C955 C962 1.422 . S
C956 H947 0.929 . S
C956 N954 1.338 . S
C956 C958 1.378 . S
C957 H952 0.931 . S
C957 C958 1.348 . S
C957 C959 1.413 . S
C958 H953 0.930 . S
C958 C956 1.378 . S
C958 C957 1.348 . S
C959 C955 1.415 . S
C959 C957 1.413 . S
C959 C989 1.437 . S
H960 C989 0.929 . S
N961 Gd934 2.570 . S
N961 C962 1.359 . S
N961 C965 1.343 . S
C962 C955 1.422 . S
C962 N961 1.359 . S
C962 C964 1.421 . S
C963 C964 1.422 . S
C963 C966 1.321 . S
C963 H990 0.931 . S
C964 C962 1.421 . S
C964 C963 1.422 . S
C964 C988 1.417 . S
C965 H942 0.931 . S
C965 N961 1.343 . S
C965 C966 1.390 . S
C966 H944 0.930 . S
C966 C963 1.321 . S
C966 C965 1.390 . S
O967 Gd935 2.386 . S
O967 C979 1.265 . S
O968 Gd934 2.353 . S
O968 C979 1.242 . S
O969 Gd934 2.468 . S
O969 C987 1.263 . S
O970 Gd934 2.427 . S
O970 C987 1.252 . S
O971 Gd935 2.307 . S
O971 C980 1.261 . S
O972 Gd934 2.388 . S
O972 C980 1.252 . S
O973 Gd934 2.386 . S
O973 C991 1.265 . S
O974 Gd935 2.353 . S
O974 C991 1.242 . S
O975 Gd935 2.468 . S
O975 C999 1.263 . S
O976 Gd935 2.427 . S
O976 C999 1.252 . S
O977 Gd934 2.307 . S
O977 C992 1.261 . S
O978 Gd935 2.388 . S
O978 C992 1.252 . S
C979 O967 1.265 . S
C979 O968 1.242 . S
C980 O971 1.261 . S
C980 O972 1.252 . S
C981 C984 1.394 . S
C981 C986 1.370 . S
C981 C987 1.500 . S
C982 C985 1.383 . S
C982 C986 1.395 . S
C983 C984 1.396 . S
C983 C985 1.365 . S
C983 H1000 0.929 . S
C984 C981 1.394 . S
C984 C983 1.396 . S
C984 H1001 0.930 . S
C985 C982 1.383 . S
C985 C983 1.365 . S
C985 H1002 0.931 . S
C986 C981 1.370 . S
C986 C982 1.395 . S
C986 H1003 0.930 . S
C987 Gd934 2.805 . S
C987 O969 1.263 . S
C987 O970 1.252 . S
C987 C981 1.500 . S
C988 H950 0.930 . S
C988 C964 1.417 . S
C988 C989 1.329 . S
C989 C959 1.437 . S
C989 H960 0.929 . S
C989 C988 1.329 . S
H990 C963 0.931 . S
C991 O973 1.265 . S
C991 O974 1.242 . S
C992 O977 1.261 . S
C992 O978 1.252 . S
C993 C996 1.394 . S
C993 C998 1.370 . S
C993 C999 1.500 . S
C994 C997 1.383 . S
C994 C998 1.395 . S
C995 C996 1.396 . S
C995 C997 1.365 . S
C995 H1004 0.929 . S
C996 C993 1.394 . S
C996 C995 1.396 . S
C996 H1005 0.930 . S
C997 C994 1.383 . S
C997 C995 1.365 . S
C997 H1006 0.931 . S
C998 C993 1.370 . S
C998 C994 1.395 . S
C998 H1007 0.930 . S
C999 Gd935 2.805 . S
C999 O975 1.263 . S
C999 O976 1.252 . S
C999 C993 1.500 . S
H1000 C983 0.929 . S
H1001 C984 0.930 . S
H1002 C985 0.931 . S
H1003 C986 0.930 . S
H1004 C995 0.929 . S
H1005 C996 0.930 . S
H1006 C997 0.931 . S
H1007 C998 0.930 . S
H1008 C1016 0.929 . S
H1009 C1018 0.930 . S
H1010 C1020 0.930 . S
H1011 C1023 0.929 . S
H1012 C1026 0.930 . S
H1013 C1028 0.960 . S
H1014 C1028 0.960 . S
H1015 C1028 0.960 . S
C1016 H1008 0.929 . S
C1016 C1017 1.377 . S
C1016 C1018 1.384 . S
C1017 C1016 1.377 . S
C1017 C1023 1.390 . S
C1018 H1009 0.930 . S
C1018 C1016 1.384 . S
C1018 C1019 1.372 . S
C1019 C1018 1.372 . S
C1019 C1020 1.400 . S
C1019 C1024 1.490 . S
C1020 H1010 0.930 . S
C1020 C1019 1.400 . S
C1020 C1023 1.386 . S
H1021 C1037 0.930 . S
H1022 C1038 0.931 . S
C1023 H1011 0.929 . S
C1023 C1017 1.390 . S
C1023 C1020 1.386 . S
C1024 C1019 1.490 . S
C1024 C1026 1.395 . S
C1024 C1027 1.403 . S
H1025 C1031 0.930 . S
C1026 H1012 0.930 . S
C1026 C1024 1.395 . S
C1026 C1029 1.403 . S
C1027 C1024 1.403 . S
C1027 C1028 1.524 . S
C1027 C1031 1.400 . S
C1028 H1013 0.960 . S
C1028 H1014 0.960 . S
C1028 H1015 0.960 . S
C1028 C1027 1.524 . S
C1029 C1026 1.403 . S
C1029 C1030 1.392 . S
C1029 C1033 1.495 . S
C1030 C1029 1.392 . S
C1030 C1031 1.385 . S
C1030 C1032 1.478 . S
C1031 H1025 0.930 . S
C1031 C1027 1.400 . S
C1031 C1030 1.385 . S
C1032 C1030 1.478 . S
C1032 C1034 1.381 . S
C1032 C1038 1.383 . S
C1033 C1029 1.495 . S
C1033 H1039 0.959 . S
C1033 H1040 0.961 . S
C1033 H1041 0.960 . S
C1034 C1032 1.381 . S
C1034 C1035 1.394 . S
C1034 H1042 0.930 . S
C1035 C1034 1.394 . S
C1035 C1036 1.383 . S
C1035 H1043 0.929 . S
C1036 C1035 1.383 . S
C1036 C1037 1.377 . S
C1037 H1021 0.930 . S
C1037 C1036 1.377 . S
C1037 C1038 1.379 . S
C1038 H1022 0.931 . S
C1038 C1032 1.383 . S
C1038 C1037 1.379 . S
H1039 C1033 0.959 . S
H1040 C1033 0.961 . S
H1041 C1033 0.960 . S
H1042 C1034 0.930 . S
H1043 C1035 0.929 . S
H1044 C1052 0.929 . S
H1045 C1054 0.930 . S
H1046 C1056 0.930 . S
H1047 C1059 0.929 . S
H1048 C1062 0.930 . S
H1049 C1064 0.960 . S
H1050 C1064 0.960 . S
H1051 C1064 0.960 . S
C1052 H1044 0.929 . S
C1052 C1053 1.377 . S
C1052 C1054 1.384 . S
C1053 C1052 1.377 . S
C1053 C1059 1.390 . S
C1054 H1045 0.930 . S
C1054 C1052 1.384 . S
C1054 C1055 1.372 . S
C1055 C1054 1.372 . S
C1055 C1056 1.400 . S
C1055 C1060 1.490 . S
C1056 H1046 0.930 . S
C1056 C1055 1.400 . S
C1056 C1059 1.386 . S
H1057 C1073 0.930 . S
H1058 C1074 0.931 . S
C1059 H1047 0.929 . S
C1059 C1053 1.390 . S
C1059 C1056 1.386 . S
C1060 C1055 1.490 . S
C1060 C1062 1.395 . S
C1060 C1063 1.403 . S
H1061 C1067 0.930 . S
C1062 H1048 0.930 . S
C1062 C1060 1.395 . S
C1062 C1065 1.403 . S
C1063 C1060 1.403 . S
C1063 C1064 1.524 . S
C1063 C1067 1.400 . S
C1064 H1049 0.960 . S
C1064 H1050 0.960 . S
C1064 H1051 0.960 . S
C1064 C1063 1.524 . S
C1065 C1062 1.403 . S
C1065 C1066 1.392 . S
C1065 C1069 1.495 . S
C1066 C1065 1.392 . S
C1066 C1067 1.385 . S
C1066 C1068 1.478 . S
C1067 H1061 0.930 . S
C1067 C1063 1.400 . S
C1067 C1066 1.385 . S
C1068 C1066 1.478 . S
C1068 C1070 1.381 . S
C1068 C1074 1.383 . S
C1069 C1065 1.495 . S
C1069 H1075 0.959 . S
C1069 H1076 0.961 . S
C1069 H1077 0.960 . S
C1070 C1068 1.381 . S
C1070 C1071 1.394 . S
C1070 H1078 0.930 . S
C1071 C1070 1.394 . S
C1071 C1072 1.383 . S
C1071 H1079 0.929 . S
C1072 C1071 1.383 . S
C1072 C1073 1.377 . S
C1073 H1057 0.930 . S
C1073 C1072 1.377 . S
C1073 C1074 1.379 . S
C1074 H1058 0.931 . S
C1074 C1068 1.383 . S
C1074 C1073 1.379 . S
H1075 C1069 0.959 . S
H1076 C1069 0.961 . S
H1077 C1069 0.960 . S
H1078 C1070 0.930 . S
H1079 C1071 0.929 . S
H1080 C1088 0.929 . S
H1081 C1090 0.930 . S
H1082 C1092 0.930 . S
H1083 C1095 0.929 . S
H1084 C1098 0.930 . S
H1085 C1100 0.960 . S
H1086 C1100 0.960 . S
H1087 C1100 0.960 . S
C1088 H1080 0.929 . S
C1088 C1089 1.377 . S
C1088 C1090 1.384 . S
C1089 C1088 1.377 . S
C1089 C1095 1.390 . S
C1090 H1081 0.930 . S
C1090 C1088 1.384 . S
C1090 C1091 1.372 . S
C1091 C1090 1.372 . S
C1091 C1092 1.400 . S
C1091 C1096 1.490 . S
C1092 H1082 0.930 . S
C1092 C1091 1.400 . S
C1092 C1095 1.386 . S
H1093 C1109 0.930 . S
H1094 C1110 0.931 . S
C1095 H1083 0.929 . S
C1095 C1089 1.390 . S
C1095 C1092 1.386 . S
C1096 C1091 1.490 . S
C1096 C1098 1.395 . S
C1096 C1099 1.403 . S
H1097 C1103 0.930 . S
C1098 H1084 0.930 . S
C1098 C1096 1.395 . S
C1098 C1101 1.403 . S
C1099 C1096 1.403 . S
C1099 C1100 1.524 . S
C1099 C1103 1.400 . S
C1100 H1085 0.960 . S
C1100 H1086 0.960 . S
C1100 H1087 0.960 . S
C1100 C1099 1.524 . S
C1101 C1098 1.403 . S
C1101 C1102 1.392 . S
C1101 C1105 1.495 . S
C1102 C1101 1.392 . S
C1102 C1103 1.385 . S
C1102 C1104 1.478 . S
C1103 H1097 0.930 . S
C1103 C1099 1.400 . S
C1103 C1102 1.385 . S
C1104 C1102 1.478 . S
C1104 C1106 1.381 . S
C1104 C1110 1.383 . S
C1105 C1101 1.495 . S
C1105 H1111 0.959 . S
C1105 H1112 0.961 . S
C1105 H1113 0.960 . S
C1106 C1104 1.381 . S
C1106 C1107 1.394 . S
C1106 H1114 0.930 . S
C1107 C1106 1.394 . S
C1107 C1108 1.383 . S
C1107 H1115 0.929 . S
C1108 C1107 1.383 . S
C1108 C1109 1.377 . S
C1109 H1093 0.930 . S
C1109 C1108 1.377 . S
C1109 C1110 1.379 . S
C1110 H1094 0.931 . S
C1110 C1104 1.383 . S
C1110 C1109 1.379 . S
H1111 C1105 0.959 . S
H1112 C1105 0.961 . S
H1113 C1105 0.960 . S
H1114 C1106 0.930 . S
H1115 C1107 0.929 . S
H1116 C1124 0.929 . S
H1117 C1126 0.930 . S
H1118 C1128 0.930 . S
H1119 C1131 0.929 . S
H1120 C1134 0.930 . S
H1121 C1136 0.960 . S
H1122 C1136 0.960 . S
H1123 C1136 0.960 . S
C1124 H1116 0.929 . S
C1124 C1125 1.377 . S
C1124 C1126 1.384 . S
C1125 C1124 1.377 . S
C1125 C1131 1.390 . S
C1126 H1117 0.930 . S
C1126 C1124 1.384 . S
C1126 C1127 1.372 . S
C1127 C1126 1.372 . S
C1127 C1128 1.400 . S
C1127 C1132 1.490 . S
C1128 H1118 0.930 . S
C1128 C1127 1.400 . S
C1128 C1131 1.386 . S
H1129 C1145 0.930 . S
H1130 C1146 0.931 . S
C1131 H1119 0.929 . S
C1131 C1125 1.390 . S
C1131 C1128 1.386 . S
C1132 C1127 1.490 . S
C1132 C1134 1.395 . S
C1132 C1135 1.403 . S
H1133 C1139 0.930 . S
C1134 H1120 0.930 . S
C1134 C1132 1.395 . S
C1134 C1137 1.403 . S
C1135 C1132 1.403 . S
C1135 C1136 1.524 . S
C1135 C1139 1.400 . S
C1136 H1121 0.960 . S
C1136 H1122 0.960 . S
C1136 H1123 0.960 . S
C1136 C1135 1.524 . S
C1137 C1134 1.403 . S
C1137 C1138 1.392 . S
C1137 C1141 1.495 . S
C1138 C1137 1.392 . S
C1138 C1139 1.385 . S
C1138 C1140 1.478 . S
C1139 H1133 0.930 . S
C1139 C1135 1.400 . S
C1139 C1138 1.385 . S
C1140 C1138 1.478 . S
C1140 C1142 1.381 . S
C1140 C1146 1.383 . S
C1141 C1137 1.495 . S
C1141 H1147 0.959 . S
C1141 H1148 0.961 . S
C1141 H1149 0.960 . S
C1142 C1140 1.381 . S
C1142 C1143 1.394 . S
C1142 H1150 0.930 . S
C1143 C1142 1.394 . S
C1143 C1144 1.383 . S
C1143 H1151 0.929 . S
C1144 C1143 1.383 . S
C1144 C1145 1.377 . S
C1145 H1129 0.930 . S
C1145 C1144 1.377 . S
C1145 C1146 1.379 . S
C1146 H1130 0.931 . S
C1146 C1140 1.383 . S
C1146 C1145 1.379 . S
H1147 C1141 0.959 . S
H1148 C1141 0.961 . S
H1149 C1141 0.960 . S
H1150 C1142 0.930 . S
H1151 C1143 0.929 . S
H1152 C1160 0.929 . S
H1153 C1162 0.930 . S
H1154 C1164 0.930 . S
H1155 C1167 0.929 . S
H1156 C1170 0.930 . S
H1157 C1172 0.960 . S
H1158 C1172 0.960 . S
H1159 C1172 0.960 . S
C1160 H1152 0.929 . S
C1160 C1161 1.377 . S
C1160 C1162 1.384 . S
C1161 C1160 1.377 . S
C1161 C1167 1.390 . S
C1162 H1153 0.930 . S
C1162 C1160 1.384 . S
C1162 C1163 1.372 . S
C1163 C1162 1.372 . S
C1163 C1164 1.400 . S
C1163 C1168 1.490 . S
C1164 H1154 0.930 . S
C1164 C1163 1.400 . S
C1164 C1167 1.386 . S
H1165 C1181 0.930 . S
H1166 C1182 0.931 . S
C1167 H1155 0.929 . S
C1167 C1161 1.390 . S
C1167 C1164 1.386 . S
C1168 C1163 1.490 . S
C1168 C1170 1.395 . S
C1168 C1171 1.403 . S
H1169 C1175 0.930 . S
C1170 H1156 0.930 . S
C1170 C1168 1.395 . S
C1170 C1173 1.403 . S
C1171 C1168 1.403 . S
C1171 C1172 1.524 . S
C1171 C1175 1.400 . S
C1172 H1157 0.960 . S
C1172 H1158 0.960 . S
C1172 H1159 0.960 . S
C1172 C1171 1.524 . S
C1173 C1170 1.403 . S
C1173 C1174 1.392 . S
C1173 C1177 1.495 . S
C1174 C1173 1.392 . S
C1174 C1175 1.385 . S
C1174 C1176 1.478 . S
C1175 H1169 0.930 . S
C1175 C1171 1.400 . S
C1175 C1174 1.385 . S
C1176 C1174 1.478 . S
C1176 C1178 1.381 . S
C1176 C1182 1.383 . S
C1177 C1173 1.495 . S
C1177 H1183 0.959 . S
C1177 H1184 0.961 . S
C1177 H1185 0.960 . S
C1178 C1176 1.381 . S
C1178 C1179 1.394 . S
C1178 H1186 0.930 . S
C1179 C1178 1.394 . S
C1179 C1180 1.383 . S
C1179 H1187 0.929 . S
C1180 C1179 1.383 . S
C1180 C1181 1.377 . S
C1181 H1165 0.930 . S
C1181 C1180 1.377 . S
C1181 C1182 1.379 . S
C1182 H1166 0.931 . S
C1182 C1176 1.383 . S
C1182 C1181 1.379 . S
H1183 C1177 0.959 . S
H1184 C1177 0.961 . S
H1185 C1177 0.960 . S
H1186 C1178 0.930 . S
H1187 C1179 0.929 . S
H1188 C1196 0.929 . S
H1189 C1198 0.930 . S
H1190 C1200 0.930 . S
H1191 C1203 0.929 . S
H1192 C1206 0.930 . S
H1193 C1208 0.960 . S
H1194 C1208 0.960 . S
H1195 C1208 0.960 . S
C1196 H1188 0.929 . S
C1196 C1197 1.377 . S
C1196 C1198 1.384 . S
C1197 C1196 1.377 . S
C1197 C1203 1.390 . S
C1198 H1189 0.930 . S
C1198 C1196 1.384 . S
C1198 C1199 1.372 . S
C1199 C1198 1.372 . S
C1199 C1200 1.400 . S
C1199 C1204 1.490 . S
C1200 H1190 0.930 . S
C1200 C1199 1.400 . S
C1200 C1203 1.386 . S
H1201 C1217 0.930 . S
H1202 C1218 0.931 . S
C1203 H1191 0.929 . S
C1203 C1197 1.390 . S
C1203 C1200 1.386 . S
C1204 C1199 1.490 . S
C1204 C1206 1.395 . S
C1204 C1207 1.403 . S
H1205 C1211 0.930 . S
C1206 H1192 0.930 . S
C1206 C1204 1.395 . S
C1206 C1209 1.403 . S
C1207 C1204 1.403 . S
C1207 C1208 1.524 . S
C1207 C1211 1.400 . S
C1208 H1193 0.960 . S
C1208 H1194 0.960 . S
C1208 H1195 0.960 . S
C1208 C1207 1.524 . S
C1209 C1206 1.403 . S
C1209 C1210 1.392 . S
C1209 C1213 1.495 . S
C1210 C1209 1.392 . S
C1210 C1211 1.385 . S
C1210 C1212 1.478 . S
C1211 H1205 0.930 . S
C1211 C1207 1.400 . S
C1211 C1210 1.385 . S
C1212 C1210 1.478 . S
C1212 C1214 1.381 . S
C1212 C1218 1.383 . S
C1213 C1209 1.495 . S
C1213 H1219 0.959 . S
C1213 H1220 0.961 . S
C1213 H1221 0.960 . S
C1214 C1212 1.381 . S
C1214 C1215 1.394 . S
C1214 H1222 0.930 . S
C1215 C1214 1.394 . S
C1215 C1216 1.383 . S
C1215 H1223 0.929 . S
C1216 C1215 1.383 . S
C1216 C1217 1.377 . S
C1217 H1201 0.930 . S
C1217 C1216 1.377 . S
C1217 C1218 1.379 . S
C1218 H1202 0.931 . S
C1218 C1212 1.383 . S
C1218 C1217 1.379 . S
H1219 C1213 0.959 . S
H1220 C1213 0.961 . S
H1221 C1213 0.960 . S
H1222 C1214 0.930 . S
H1223 C1215 0.929 . S
H1224 C1232 0.929 . S
H1225 C1234 0.930 . S
H1226 C1236 0.930 . S
H1227 C1239 0.929 . S
H1228 C1242 0.930 . S
H1229 C1244 0.960 . S
H1230 C1244 0.960 . S
H1231 C1244 0.960 . S
C1232 H1224 0.929 . S
C1232 C1233 1.377 . S
C1232 C1234 1.384 . S
C1233 C1232 1.377 . S
C1233 C1239 1.390 . S
C1234 H1225 0.930 . S
C1234 C1232 1.384 . S
C1234 C1235 1.372 . S
C1235 C1234 1.372 . S
C1235 C1236 1.400 . S
C1235 C1240 1.490 . S
C1236 H1226 0.930 . S
C1236 C1235 1.400 . S
C1236 C1239 1.386 . S
H1237 C1253 0.930 . S
H1238 C1254 0.931 . S
C1239 H1227 0.929 . S
C1239 C1233 1.390 . S
C1239 C1236 1.386 . S
C1240 C1235 1.490 . S
C1240 C1242 1.395 . S
C1240 C1243 1.403 . S
H1241 C1247 0.930 . S
C1242 H1228 0.930 . S
C1242 C1240 1.395 . S
C1242 C1245 1.403 . S
C1243 C1240 1.403 . S
C1243 C1244 1.524 . S
C1243 C1247 1.400 . S
C1244 H1229 0.960 . S
C1244 H1230 0.960 . S
C1244 H1231 0.960 . S
C1244 C1243 1.524 . S
C1245 C1242 1.403 . S
C1245 C1246 1.392 . S
C1245 C1249 1.495 . S
C1246 C1245 1.392 . S
C1246 C1247 1.385 . S
C1246 C1248 1.478 . S
C1247 H1241 0.930 . S
C1247 C1243 1.400 . S
C1247 C1246 1.385 . S
C1248 C1246 1.478 . S
C1248 C1250 1.381 . S
C1248 C1254 1.383 . S
C1249 C1245 1.495 . S
C1249 H1255 0.959 . S
C1249 H1256 0.961 . S
C1249 H1257 0.960 . S
C1250 C1248 1.381 . S
C1250 C1251 1.394 . S
C1250 H1258 0.930 . S
C1251 C1250 1.394 . S
C1251 C1252 1.383 . S
C1251 H1259 0.929 . S
C1252 C1251 1.383 . S
C1252 C1253 1.377 . S
C1253 H1237 0.930 . S
C1253 C1252 1.377 . S
C1253 C1254 1.379 . S
C1254 H1238 0.931 . S
C1254 C1248 1.383 . S
C1254 C1253 1.379 . S
H1255 C1249 0.959 . S
H1256 C1249 0.961 . S
H1257 C1249 0.960 . S
H1258 C1250 0.930 . S
H1259 C1251 0.929 . S
H1260 C1268 0.929 . S
H1261 C1270 0.930 . S
H1262 C1272 0.930 . S
H1263 C1275 0.929 . S
H1264 C1278 0.930 . S
H1265 C1280 0.960 . S
H1266 C1280 0.960 . S
H1267 C1280 0.960 . S
C1268 H1260 0.929 . S
C1268 C1269 1.377 . S
C1268 C1270 1.384 . S
C1269 C1268 1.377 . S
C1269 C1275 1.390 . S
C1270 H1261 0.930 . S
C1270 C1268 1.384 . S
C1270 C1271 1.372 . S
C1271 C1270 1.372 . S
C1271 C1272 1.400 . S
C1271 C1276 1.490 . S
C1272 H1262 0.930 . S
C1272 C1271 1.400 . S
C1272 C1275 1.386 . S
H1273 C1289 0.930 . S
H1274 C1290 0.931 . S
C1275 H1263 0.929 . S
C1275 C1269 1.390 . S
C1275 C1272 1.386 . S
C1276 C1271 1.490 . S
C1276 C1278 1.395 . S
C1276 C1279 1.403 . S
H1277 C1283 0.930 . S
C1278 H1264 0.930 . S
C1278 C1276 1.395 . S
C1278 C1281 1.403 . S
C1279 C1276 1.403 . S
C1279 C1280 1.524 . S
C1279 C1283 1.400 . S
C1280 H1265 0.960 . S
C1280 H1266 0.960 . S
C1280 H1267 0.960 . S
C1280 C1279 1.524 . S
C1281 C1278 1.403 . S
C1281 C1282 1.392 . S
C1281 C1285 1.495 . S
C1282 C1281 1.392 . S
C1282 C1283 1.385 . S
C1282 C1284 1.478 . S
C1283 H1277 0.930 . S
C1283 C1279 1.400 . S
C1283 C1282 1.385 . S
C1284 C1282 1.478 . S
C1284 C1286 1.381 . S
C1284 C1290 1.383 . S
C1285 C1281 1.495 . S
C1285 H1291 0.959 . S
C1285 H1292 0.961 . S
C1285 H1293 0.960 . S
C1286 C1284 1.381 . S
C1286 C1287 1.394 . S
C1286 H1294 0.930 . S
C1287 C1286 1.394 . S
C1287 C1288 1.383 . S
C1287 H1295 0.929 . S
C1288 C1287 1.383 . S
C1288 C1289 1.377 . S
C1289 H1273 0.930 . S
C1289 C1288 1.377 . S
C1289 C1290 1.379 . S
C1290 H1274 0.931 . S
C1290 C1284 1.383 . S
C1290 C1289 1.379 . S
H1291 C1285 0.959 . S
H1292 C1285 0.961 . S
H1293 C1285 0.960 . S
H1294 C1286 0.930 . S
H1295 C1287 0.929 . S
H1296 C1304 0.929 . S
H1297 C1306 0.930 . S
H1298 C1308 0.930 . S
H1299 C1311 0.929 . S
H1300 C1314 0.930 . S
H1301 C1316 0.960 . S
H1302 C1316 0.960 . S
H1303 C1316 0.960 . S
C1304 H1296 0.929 . S
C1304 C1305 1.377 . S
C1304 C1306 1.384 . S
C1305 C1304 1.377 . S
C1305 C1311 1.390 . S
C1306 H1297 0.930 . S
C1306 C1304 1.384 . S
C1306 C1307 1.372 . S
C1307 C1306 1.372 . S
C1307 C1308 1.400 . S
C1307 C1312 1.490 . S
C1308 H1298 0.930 . S
C1308 C1307 1.400 . S
C1308 C1311 1.386 . S
H1309 C1325 0.930 . S
H1310 C1326 0.931 . S
C1311 H1299 0.929 . S
C1311 C1305 1.390 . S
C1311 C1308 1.386 . S
C1312 C1307 1.490 . S
C1312 C1314 1.395 . S
C1312 C1315 1.403 . S
H1313 C1319 0.930 . S
C1314 H1300 0.930 . S
C1314 C1312 1.395 . S
C1314 C1317 1.403 . S
C1315 C1312 1.403 . S
C1315 C1316 1.524 . S
C1315 C1319 1.400 . S
C1316 H1301 0.960 . S
C1316 H1302 0.960 . S
C1316 H1303 0.960 . S
C1316 C1315 1.524 . S
C1317 C1314 1.403 . S
C1317 C1318 1.392 . S
C1317 C1321 1.495 . S
C1318 C1317 1.392 . S
C1318 C1319 1.385 . S
C1318 C1320 1.478 . S
C1319 H1313 0.930 . S
C1319 C1315 1.400 . S
C1319 C1318 1.385 . S
C1320 C1318 1.478 . S
C1320 C1322 1.381 . S
C1320 C1326 1.383 . S
C1321 C1317 1.495 . S
C1321 H1327 0.959 . S
C1321 H1328 0.961 . S
C1321 H1329 0.960 . S
C1322 C1320 1.381 . S
C1322 C1323 1.394 . S
C1322 H1330 0.930 . S
C1323 C1322 1.394 . S
C1323 C1324 1.383 . S
C1323 H1331 0.929 . S
C1324 C1323 1.383 . S
C1324 C1325 1.377 . S
C1325 H1309 0.930 . S
C1325 C1324 1.377 . S
C1325 C1326 1.379 . S
C1326 H1310 0.931 . S
C1326 C1320 1.383 . S
C1326 C1325 1.379 . S
H1327 C1321 0.959 . S
H1328 C1321 0.961 . S
H1329 C1321 0.960 . S
H1330 C1322 0.930 . S
H1331 C1323 0.929 . S
H1332 C1340 0.929 . S
H1333 C1342 0.930 . S
H1334 C1344 0.930 . S
H1335 C1347 0.929 . S
H1336 C1350 0.930 . S
H1337 C1352 0.960 . S
H1338 C1352 0.960 . S
H1339 C1352 0.960 . S
C1340 H1332 0.929 . S
C1340 C1341 1.377 . S
C1340 C1342 1.384 . S
C1341 C1340 1.377 . S
C1341 C1347 1.390 . S
C1342 H1333 0.930 . S
C1342 C1340 1.384 . S
C1342 C1343 1.372 . S
C1343 C1342 1.372 . S
C1343 C1344 1.400 . S
C1343 C1348 1.490 . S
C1344 H1334 0.930 . S
C1344 C1343 1.400 . S
C1344 C1347 1.386 . S
H1345 C1361 0.930 . S
H1346 C1362 0.931 . S
C1347 H1335 0.929 . S
C1347 C1341 1.390 . S
C1347 C1344 1.386 . S
C1348 C1343 1.490 . S
C1348 C1350 1.395 . S
C1348 C1351 1.403 . S
H1349 C1355 0.930 . S
C1350 H1336 0.930 . S
C1350 C1348 1.395 . S
C1350 C1353 1.403 . S
C1351 C1348 1.403 . S
C1351 C1352 1.524 . S
C1351 C1355 1.400 . S
C1352 H1337 0.960 . S
C1352 H1338 0.960 . S
C1352 H1339 0.960 . S
C1352 C1351 1.524 . S
C1353 C1350 1.403 . S
C1353 C1354 1.392 . S
C1353 C1357 1.495 . S
C1354 C1353 1.392 . S
C1354 C1355 1.385 . S
C1354 C1356 1.478 . S
C1355 H1349 0.930 . S
C1355 C1351 1.400 . S
C1355 C1354 1.385 . S
C1356 C1354 1.478 . S
C1356 C1358 1.381 . S
C1356 C1362 1.383 . S
C1357 C1353 1.495 . S
C1357 H1363 0.959 . S
C1357 H1364 0.961 . S
C1357 H1365 0.960 . S
C1358 C1356 1.381 . S
C1358 C1359 1.394 . S
C1358 H1366 0.930 . S
C1359 C1358 1.394 . S
C1359 C1360 1.383 . S
C1359 H1367 0.929 . S
C1360 C1359 1.383 . S
C1360 C1361 1.377 . S
C1361 H1345 0.930 . S
C1361 C1360 1.377 . S
C1361 C1362 1.379 . S
C1362 H1346 0.931 . S
C1362 C1356 1.383 . S
C1362 C1361 1.379 . S
H1363 C1357 0.959 . S
H1364 C1357 0.961 . S
H1365 C1357 0.960 . S
H1366 C1358 0.930 . S
H1367 C1359 0.929 . S
H1368 C1376 0.929 . S
H1369 C1378 0.930 . S
H1370 C1380 0.930 . S
H1371 C1383 0.929 . S
H1372 C1386 0.930 . S
H1373 C1388 0.960 . S
H1374 C1388 0.960 . S
H1375 C1388 0.960 . S
C1376 H1368 0.929 . S
C1376 C1377 1.377 . S
C1376 C1378 1.384 . S
C1377 C1376 1.377 . S
C1377 C1383 1.390 . S
C1378 H1369 0.930 . S
C1378 C1376 1.384 . S
C1378 C1379 1.372 . S
C1379 C1378 1.372 . S
C1379 C1380 1.400 . S
C1379 C1384 1.490 . S
C1380 H1370 0.930 . S
C1380 C1379 1.400 . S
C1380 C1383 1.386 . S
H1381 C1397 0.930 . S
H1382 C1398 0.931 . S
C1383 H1371 0.929 . S
C1383 C1377 1.390 . S
C1383 C1380 1.386 . S
C1384 C1379 1.490 . S
C1384 C1386 1.395 . S
C1384 C1387 1.403 . S
H1385 C1391 0.930 . S
C1386 H1372 0.930 . S
C1386 C1384 1.395 . S
C1386 C1389 1.403 . S
C1387 C1384 1.403 . S
C1387 C1388 1.524 . S
C1387 C1391 1.400 . S
C1388 H1373 0.960 . S
C1388 H1374 0.960 . S
C1388 H1375 0.960 . S
C1388 C1387 1.524 . S
C1389 C1386 1.403 . S
C1389 C1390 1.392 . S
C1389 C1393 1.495 . S
C1390 C1389 1.392 . S
C1390 C1391 1.385 . S
C1390 C1392 1.478 . S
C1391 H1385 0.930 . S
C1391 C1387 1.400 . S
C1391 C1390 1.385 . S
C1392 C1390 1.478 . S
C1392 C1394 1.381 . S
C1392 C1398 1.383 . S
C1393 C1389 1.495 . S
C1393 H1399 0.959 . S
C1393 H1400 0.961 . S
C1393 H1401 0.960 . S
C1394 C1392 1.381 . S
C1394 C1395 1.394 . S
C1394 H1402 0.930 . S
C1395 C1394 1.394 . S
C1395 C1396 1.383 . S
C1395 H1403 0.929 . S
C1396 C1395 1.383 . S
C1396 C1397 1.377 . S
C1397 H1381 0.930 . S
C1397 C1396 1.377 . S
C1397 C1398 1.379 . S
C1398 H1382 0.931 . S
C1398 C1392 1.383 . S
C1398 C1397 1.379 . S
H1399 C1393 0.959 . S
H1400 C1393 0.961 . S
H1401 C1393 0.960 . S
H1402 C1394 0.930 . S
H1403 C1395 0.929 . S
H1404 C1412 0.929 . S
H1405 C1414 0.930 . S
H1406 C1416 0.930 . S
H1407 C1419 0.929 . S
H1408 C1422 0.930 . S
H1409 C1424 0.960 . S
H1410 C1424 0.960 . S
H1411 C1424 0.960 . S
C1412 H1404 0.929 . S
C1412 C1413 1.377 . S
C1412 C1414 1.384 . S
C1413 C1412 1.377 . S
C1413 C1419 1.390 . S
C1414 H1405 0.930 . S
C1414 C1412 1.384 . S
C1414 C1415 1.372 . S
C1415 C1414 1.372 . S
C1415 C1416 1.400 . S
C1415 C1420 1.490 . S
C1416 H1406 0.930 . S
C1416 C1415 1.400 . S
C1416 C1419 1.386 . S
H1417 C1433 0.930 . S
H1418 C1434 0.931 . S
C1419 H1407 0.929 . S
C1419 C1413 1.390 . S
C1419 C1416 1.386 . S
C1420 C1415 1.490 . S
C1420 C1422 1.395 . S
C1420 C1423 1.403 . S
H1421 C1427 0.930 . S
C1422 H1408 0.930 . S
C1422 C1420 1.395 . S
C1422 C1425 1.403 . S
C1423 C1420 1.403 . S
C1423 C1424 1.524 . S
C1423 C1427 1.400 . S
C1424 H1409 0.960 . S
C1424 H1410 0.960 . S
C1424 H1411 0.960 . S
C1424 C1423 1.524 . S
C1425 C1422 1.403 . S
C1425 C1426 1.392 . S
C1425 C1429 1.495 . S
C1426 C1425 1.392 . S
C1426 C1427 1.385 . S
C1426 C1428 1.478 . S
C1427 H1421 0.930 . S
C1427 C1423 1.400 . S
C1427 C1426 1.385 . S
C1428 C1426 1.478 . S
C1428 C1430 1.381 . S
C1428 C1434 1.383 . S
C1429 C1425 1.495 . S
C1429 H1435 0.959 . S
C1429 H1436 0.961 . S
C1429 H1437 0.960 . S
C1430 C1428 1.381 . S
C1430 C1431 1.394 . S
C1430 H1438 0.930 . S
C1431 C1430 1.394 . S
C1431 C1432 1.383 . S
C1431 H1439 0.929 . S
C1432 C1431 1.383 . S
C1432 C1433 1.377 . S
C1433 H1417 0.930 . S
C1433 C1432 1.377 . S
C1433 C1434 1.379 . S
C1434 H1418 0.931 . S
C1434 C1428 1.383 . S
C1434 C1433 1.379 . S
H1435 C1429 0.959 . S
H1436 C1429 0.961 . S
H1437 C1429 0.960 . S
H1438 C1430 0.930 . S
H1439 C1431 0.929 . S
H1440 C1448 0.929 . S
H1441 C1450 0.930 . S
H1442 C1452 0.930 . S
H1443 C1455 0.929 . S
H1444 C1458 0.930 . S
H1445 C1460 0.960 . S
H1446 C1460 0.960 . S
H1447 C1460 0.960 . S
C1448 H1440 0.929 . S
C1448 C1449 1.377 . S
C1448 C1450 1.384 . S
C1449 C1448 1.377 . S
C1449 C1455 1.390 . S
C1450 H1441 0.930 . S
C1450 C1448 1.384 . S
C1450 C1451 1.372 . S
C1451 C1450 1.372 . S
C1451 C1452 1.400 . S
C1451 C1456 1.490 . S
C1452 H1442 0.930 . S
C1452 C1451 1.400 . S
C1452 C1455 1.386 . S
H1453 C1469 0.930 . S
H1454 C1470 0.931 . S
C1455 H1443 0.929 . S
C1455 C1449 1.390 . S
C1455 C1452 1.386 . S
C1456 C1451 1.490 . S
C1456 C1458 1.395 . S
C1456 C1459 1.403 . S
H1457 C1463 0.930 . S
C1458 H1444 0.930 . S
C1458 C1456 1.395 . S
C1458 C1461 1.403 . S
C1459 C1456 1.403 . S
C1459 C1460 1.524 . S
C1459 C1463 1.400 . S
C1460 H1445 0.960 . S
C1460 H1446 0.960 . S
C1460 H1447 0.960 . S
C1460 C1459 1.524 . S
C1461 C1458 1.403 . S
C1461 C1462 1.392 . S
C1461 C1465 1.495 . S
C1462 C1461 1.392 . S
C1462 C1463 1.385 . S
C1462 C1464 1.478 . S
C1463 H1457 0.930 . S
C1463 C1459 1.400 . S
C1463 C1462 1.385 . S
C1464 C1462 1.478 . S
C1464 C1466 1.381 . S
C1464 C1470 1.383 . S
C1465 C1461 1.495 . S
C1465 H1471 0.959 . S
C1465 H1472 0.961 . S
C1465 H1473 0.960 . S
C1466 C1464 1.381 . S
C1466 C1467 1.394 . S
C1466 H1474 0.930 . S
C1467 C1466 1.394 . S
C1467 C1468 1.383 . S
C1467 H1475 0.929 . S
C1468 C1467 1.383 . S
C1468 C1469 1.377 . S
C1469 H1453 0.930 . S
C1469 C1468 1.377 . S
C1469 C1470 1.379 . S
C1470 H1454 0.931 . S
C1470 C1464 1.383 . S
C1470 C1469 1.379 . S
H1471 C1465 0.959 . S
H1472 C1465 0.961 . S
H1473 C1465 0.960 . S
H1474 C1466 0.930 . S
H1475 C1467 0.929 . S
H1476 C1484 0.929 . S
H1477 C1486 0.930 . S
H1478 C1488 0.930 . S
H1479 C1491 0.929 . S
H1480 C1494 0.930 . S
H1481 C1496 0.960 . S
H1482 C1496 0.960 . S
H1483 C1496 0.960 . S
C1484 H1476 0.929 . S
C1484 C1485 1.377 . S
C1484 C1486 1.384 . S
C1485 C1484 1.377 . S
C1485 C1491 1.390 . S
C1486 H1477 0.930 . S
C1486 C1484 1.384 . S
C1486 C1487 1.372 . S
C1487 C1486 1.372 . S
C1487 C1488 1.400 . S
C1487 C1492 1.490 . S
C1488 H1478 0.930 . S
C1488 C1487 1.400 . S
C1488 C1491 1.386 . S
H1489 C1505 0.930 . S
H1490 C1506 0.931 . S
C1491 H1479 0.929 . S
C1491 C1485 1.390 . S
C1491 C1488 1.386 . S
C1492 C1487 1.490 . S
C1492 C1494 1.395 . S
C1492 C1495 1.403 . S
H1493 C1499 0.930 . S
C1494 H1480 0.930 . S
C1494 C1492 1.395 . S
C1494 C1497 1.403 . S
C1495 C1492 1.403 . S
C1495 C1496 1.524 . S
C1495 C1499 1.400 . S
C1496 H1481 0.960 . S
C1496 H1482 0.960 . S
C1496 H1483 0.960 . S
C1496 C1495 1.524 . S
C1497 C1494 1.403 . S
C1497 C1498 1.392 . S
C1497 C1501 1.495 . S
C1498 C1497 1.392 . S
C1498 C1499 1.385 . S
C1498 C1500 1.478 . S
C1499 H1493 0.930 . S
C1499 C1495 1.400 . S
C1499 C1498 1.385 . S
C1500 C1498 1.478 . S
C1500 C1502 1.381 . S
C1500 C1506 1.383 . S
C1501 C1497 1.495 . S
C1501 H1507 0.959 . S
C1501 H1508 0.961 . S
C1501 H1509 0.960 . S
C1502 C1500 1.381 . S
C1502 C1503 1.394 . S
C1502 H1510 0.930 . S
C1503 C1502 1.394 . S
C1503 C1504 1.383 . S
C1503 H1511 0.929 . S
C1504 C1503 1.383 . S
C1504 C1505 1.377 . S
C1505 H1489 0.930 . S
C1505 C1504 1.377 . S
C1505 C1506 1.379 . S
C1506 H1490 0.931 . S
C1506 C1500 1.383 . S
C1506 C1505 1.379 . S
H1507 C1501 0.959 . S
H1508 C1501 0.961 . S
H1509 C1501 0.960 . S
H1510 C1502 0.930 . S
H1511 C1503 0.929 . S
H1512 C1520 0.929 . S
H1513 C1522 0.930 . S
H1514 C1524 0.930 . S
H1515 C1527 0.929 . S
H1516 C1530 0.930 . S
H1517 C1532 0.960 . S
H1518 C1532 0.960 . S
H1519 C1532 0.960 . S
C1520 H1512 0.929 . S
C1520 C1521 1.377 . S
C1520 C1522 1.384 . S
C1521 C1520 1.377 . S
C1521 C1527 1.390 . S
C1522 H1513 0.930 . S
C1522 C1520 1.384 . S
C1522 C1523 1.372 . S
C1523 C1522 1.372 . S
C1523 C1524 1.400 . S
C1523 C1528 1.490 . S
C1524 H1514 0.930 . S
C1524 C1523 1.400 . S
C1524 C1527 1.386 . S
H1525 C1541 0.930 . S
H1526 C1542 0.931 . S
C1527 H1515 0.929 . S
C1527 C1521 1.390 . S
C1527 C1524 1.386 . S
C1528 C1523 1.490 . S
C1528 C1530 1.395 . S
C1528 C1531 1.403 . S
H1529 C1535 0.930 . S
C1530 H1516 0.930 . S
C1530 C1528 1.395 . S
C1530 C1533 1.403 . S
C1531 C1528 1.403 . S
C1531 C1532 1.524 . S
C1531 C1535 1.400 . S
C1532 H1517 0.960 . S
C1532 H1518 0.960 . S
C1532 H1519 0.960 . S
C1532 C1531 1.524 . S
C1533 C1530 1.403 . S
C1533 C1534 1.392 . S
C1533 C1537 1.495 . S
C1534 C1533 1.392 . S
C1534 C1535 1.385 . S
C1534 C1536 1.478 . S
C1535 H1529 0.930 . S
C1535 C1531 1.400 . S
C1535 C1534 1.385 . S
C1536 C1534 1.478 . S
C1536 C1538 1.381 . S
C1536 C1542 1.383 . S
C1537 C1533 1.495 . S
C1537 H1543 0.959 . S
C1537 H1544 0.961 . S
C1537 H1545 0.960 . S
C1538 C1536 1.381 . S
C1538 C1539 1.394 . S
C1538 H1546 0.930 . S
C1539 C1538 1.394 . S
C1539 C1540 1.383 . S
C1539 H1547 0.929 . S
C1540 C1539 1.383 . S
C1540 C1541 1.377 . S
C1541 H1525 0.930 . S
C1541 C1540 1.377 . S
C1541 C1542 1.379 . S
C1542 H1526 0.931 . S
C1542 C1536 1.383 . S
C1542 C1541 1.379 . S
H1543 C1537 0.959 . S
H1544 C1537 0.961 . S
H1545 C1537 0.960 . S
H1546 C1538 0.930 . S
H1547 C1539 0.929 . S
H1548 C1556 0.929 . S
H1549 C1558 0.930 . S
H1550 C1560 0.930 . S
H1551 C1563 0.929 . S
H1552 C1566 0.930 . S
H1553 C1568 0.960 . S
H1554 C1568 0.960 . S
H1555 C1568 0.960 . S
C1556 H1548 0.929 . S
C1556 C1557 1.377 . S
C1556 C1558 1.384 . S
C1557 C1556 1.377 . S
C1557 C1563 1.390 . S
C1558 H1549 0.930 . S
C1558 C1556 1.384 . S
C1558 C1559 1.372 . S
C1559 C1558 1.372 . S
C1559 C1560 1.400 . S
C1559 C1564 1.490 . S
C1560 H1550 0.930 . S
C1560 C1559 1.400 . S
C1560 C1563 1.386 . S
H1561 C1577 0.930 . S
H1562 C1578 0.931 . S
C1563 H1551 0.929 . S
C1563 C1557 1.390 . S
C1563 C1560 1.386 . S
C1564 C1559 1.490 . S
C1564 C1566 1.395 . S
C1564 C1567 1.403 . S
H1565 C1571 0.930 . S
C1566 H1552 0.930 . S
C1566 C1564 1.395 . S
C1566 C1569 1.403 . S
C1567 C1564 1.403 . S
C1567 C1568 1.524 . S
C1567 C1571 1.400 . S
C1568 H1553 0.960 . S
C1568 H1554 0.960 . S
C1568 H1555 0.960 . S
C1568 C1567 1.524 . S
C1569 C1566 1.403 . S
C1569 C1570 1.392 . S
C1569 C1573 1.495 . S
C1570 C1569 1.392 . S
C1570 C1571 1.385 . S
C1570 C1572 1.478 . S
C1571 H1565 0.930 . S
C1571 C1567 1.400 . S
C1571 C1570 1.385 . S
C1572 C1570 1.478 . S
C1572 C1574 1.381 . S
C1572 C1578 1.383 . S
C1573 C1569 1.495 . S
C1573 H1579 0.959 . S
C1573 H1580 0.961 . S
C1573 H1581 0.960 . S
C1574 C1572 1.381 . S
C1574 C1575 1.394 . S
C1574 H1582 0.930 . S
C1575 C1574 1.394 . S
C1575 C1576 1.383 . S
C1575 H1583 0.929 . S
C1576 C1575 1.383 . S
C1576 C1577 1.377 . S
C1577 H1561 0.930 . S
C1577 C1576 1.377 . S
C1577 C1578 1.379 . S
C1578 H1562 0.931 . S
C1578 C1572 1.383 . S
C1578 C1577 1.379 . S
H1579 C1573 0.959 . S
H1580 C1573 0.961 . S
H1581 C1573 0.960 . S
H1582 C1574 0.930 . S
H1583 C1575 0.929 . S
H1584 C1592 0.929 1_554 S
H1585 C1594 0.930 . S
H1586 C1596 0.930 . S
H1587 C1599 0.929 . S
H1588 C1602 0.930 . S
H1589 C1604 0.960 . S
H1590 C1604 0.960 . S
H1591 C1604 0.960 . S
C1592 H1584 0.929 1_556 S
C1592 C1593 1.377 . S
C1592 C1594 1.384 1_556 S
C1593 C1592 1.377 . S
C1593 C1599 1.390 . S
C1594 H1585 0.930 . S
C1594 C1592 1.384 1_554 S
C1594 C1595 1.372 1_554 S
C1595 C1594 1.372 1_556 S
C1595 C1596 1.400 . S
C1595 C1600 1.490 . S
C1596 H1586 0.930 . S
C1596 C1595 1.400 . S
C1596 C1599 1.386 . S
H1597 C1613 0.876 1_556 S
H1598 C1614 0.931 . S
C1599 H1587 0.929 . S
C1599 C1593 1.390 . S
C1599 C1596 1.386 . S
C1600 C1595 1.490 . S
C1600 C1602 1.395 1_556 S
C1600 C1603 1.403 . S
H1601 C1607 0.930 . S
C1602 H1588 0.930 . S
C1602 C1600 1.395 1_554 S
C1602 C1605 1.403 . S
C1603 C1600 1.403 . S
C1603 C1604 1.524 . S
C1603 C1607 1.400 . S
C1604 H1589 0.960 . S
C1604 H1590 0.960 . S
C1604 H1591 0.960 . S
C1604 C1603 1.524 . S
C1605 C1602 1.403 . S
C1605 C1606 1.392 . S
C1605 C1609 1.495 . S
C1606 C1605 1.392 . S
C1606 C1607 1.385 1_554 S
C1606 C1608 1.478 . S
C1607 H1601 0.930 . S
C1607 C1603 1.400 . S
C1607 C1606 1.385 1_556 S
C1608 C1606 1.478 . S
C1608 C1610 1.381 . S
C1608 C1614 1.383 1_554 S
C1609 C1605 1.495 . S
C1609 H1615 0.959 . S
C1609 H1616 0.961 . S
C1609 H1617 0.960 . S
C1610 C1608 1.381 . S
C1610 C1611 1.394 . S
C1610 H1618 0.930 . S
C1611 C1610 1.394 . S
C1611 C1612 1.383 . S
C1611 H1619 0.929 . S
C1612 C1611 1.383 . S
C1612 C1613 1.447 . S
C1613 H1597 0.876 1_554 S
C1613 C1612 1.447 . S
C1613 C1614 1.365 1_554 S
C1614 H1598 0.931 . S
C1614 C1608 1.383 1_556 S
C1614 C1613 1.365 1_556 S
H1615 C1609 0.959 . S
H1616 C1609 0.961 . S
H1617 C1609 0.960 . S
H1618 C1610 0.930 . S
H1619 C1611 0.929 . S
H1620 C1628 0.929 . S
H1621 C1630 0.930 . S
H1622 C1632 0.930 . S
H1623 C1635 0.929 . S
H1624 C1638 0.930 . S
H1625 C1640 0.960 . S
H1626 C1640 0.960 . S
H1627 C1640 0.960 . S
C1628 H1620 0.929 . S
C1628 C1629 1.377 . S
C1628 C1630 1.384 . S
C1629 C1628 1.377 . S
C1629 C1635 1.390 . S
C1630 H1621 0.930 . S
C1630 C1628 1.384 . S
C1630 C1631 1.372 . S
C1631 C1630 1.372 . S
C1631 C1632 1.400 . S
C1631 C1636 1.490 . S
C1632 H1622 0.930 . S
C1632 C1631 1.400 . S
C1632 C1635 1.386 . S
H1633 C1649 0.930 . S
H1634 C1650 0.931 . S
C1635 H1623 0.929 . S
C1635 C1629 1.390 . S
C1635 C1632 1.386 . S
C1636 C1631 1.490 . S
C1636 C1638 1.395 . S
C1636 C1639 1.403 . S
H1637 C1643 0.930 . S
C1638 H1624 0.930 . S
C1638 C1636 1.395 . S
C1638 C1641 1.403 . S
C1639 C1636 1.403 . S
C1639 C1640 1.524 . S
C1639 C1643 1.400 . S
C1640 H1625 0.960 . S
C1640 H1626 0.960 . S
C1640 H1627 0.960 . S
C1640 C1639 1.524 . S
C1641 C1638 1.403 . S
C1641 C1642 1.392 . S
C1641 C1645 1.495 . S
C1642 C1641 1.392 . S
C1642 C1643 1.385 . S
C1642 C1644 1.478 . S
C1643 H1637 0.930 . S
C1643 C1639 1.400 . S
C1643 C1642 1.385 . S
C1644 C1642 1.478 . S
C1644 C1646 1.381 . S
C1644 C1650 1.383 . S
C1645 C1641 1.495 . S
C1645 H1651 0.959 . S
C1645 H1652 0.961 . S
C1645 H1653 0.960 . S
C1646 C1644 1.381 . S
C1646 C1647 1.394 . S
C1646 H1654 0.930 . S
C1647 C1646 1.394 . S
C1647 C1648 1.383 . S
C1647 H1655 0.929 . S
C1648 C1647 1.383 . S
C1648 C1649 1.377 . S
C1649 H1633 0.930 . S
C1649 C1648 1.377 . S
C1649 C1650 1.379 . S
C1650 H1634 0.931 . S
C1650 C1644 1.383 . S
C1650 C1649 1.379 . S
H1651 C1645 0.959 . S
H1652 C1645 0.961 . S
H1653 C1645 0.960 . S
H1654 C1646 0.930 . S
H1655 C1647 0.929 . S
H1656 C1664 0.929 . S
H1657 C1666 0.930 . S
H1658 C1668 0.930 . S
H1659 C1671 0.929 . S
H1660 C1674 0.930 . S
H1661 C1676 0.960 . S
H1662 C1676 0.960 . S
H1663 C1676 0.960 . S
C1664 H1656 0.929 . S
C1664 C1665 1.377 . S
C1664 C1666 1.384 . S
C1665 C1664 1.377 . S
C1665 C1671 1.390 . S
C1666 H1657 0.930 . S
C1666 C1664 1.384 . S
C1666 C1667 1.372 . S
C1667 C1666 1.372 . S
C1667 C1668 1.400 . S
C1667 C1672 1.490 . S
C1668 H1658 0.930 . S
C1668 C1667 1.400 . S
C1668 C1671 1.386 . S
H1669 C1685 0.930 . S
H1670 C1686 0.931 . S
C1671 H1659 0.929 . S
C1671 C1665 1.390 . S
C1671 C1668 1.386 . S
C1672 C1667 1.490 . S
C1672 C1674 1.395 . S
C1672 C1675 1.403 . S
H1673 C1679 0.930 . S
C1674 H1660 0.930 . S
C1674 C1672 1.395 . S
C1674 C1677 1.403 . S
C1675 C1672 1.403 . S
C1675 C1676 1.524 . S
C1675 C1679 1.400 . S
C1676 H1661 0.960 . S
C1676 H1662 0.960 . S
C1676 H1663 0.960 . S
C1676 C1675 1.524 . S
C1677 C1674 1.403 . S
C1677 C1678 1.392 . S
C1677 C1681 1.495 . S
C1678 C1677 1.392 . S
C1678 C1679 1.385 . S
C1678 C1680 1.478 . S
C1679 H1673 0.930 . S
C1679 C1675 1.400 . S
C1679 C1678 1.385 . S
C1680 C1678 1.478 . S
C1680 C1682 1.381 . S
C1680 C1686 1.383 . S
C1681 C1677 1.495 . S
C1681 H1687 0.959 . S
C1681 H1688 0.961 . S
C1681 H1689 0.960 . S
C1682 C1680 1.381 . S
C1682 C1683 1.394 . S
C1682 H1690 0.930 . S
C1683 C1682 1.394 . S
C1683 C1684 1.383 . S
C1683 H1691 0.929 . S
C1684 C1683 1.383 . S
C1684 C1685 1.377 . S
C1685 H1669 0.930 . S
C1685 C1684 1.377 . S
C1685 C1686 1.379 . S
C1686 H1670 0.931 . S
C1686 C1680 1.383 . S
C1686 C1685 1.379 . S
H1687 C1681 0.959 . S
H1688 C1681 0.961 . S
H1689 C1681 0.960 . S
H1690 C1682 0.930 . S
H1691 C1683 0.929 . S
H1692 C1700 0.929 . S
H1693 C1702 0.930 . S
H1694 C1704 0.930 . S
H1695 C1707 0.929 . S
H1696 C1710 0.930 . S
H1697 C1712 0.960 . S
H1698 C1712 0.960 . S
H1699 C1712 0.960 . S
C1700 H1692 0.929 . S
C1700 C1701 1.377 . S
C1700 C1702 1.384 . S
C1701 C1700 1.377 . S
C1701 C1707 1.390 . S
C1702 H1693 0.930 . S
C1702 C1700 1.384 . S
C1702 C1703 1.372 . S
C1703 C1702 1.372 . S
C1703 C1704 1.400 . S
C1703 C1708 1.490 . S
C1704 H1694 0.930 . S
C1704 C1703 1.400 . S
C1704 C1707 1.386 . S
H1705 C1721 0.930 . S
H1706 C1722 0.931 . S
C1707 H1695 0.929 . S
C1707 C1701 1.390 . S
C1707 C1704 1.386 . S
C1708 C1703 1.490 . S
C1708 C1710 1.395 . S
C1708 C1711 1.403 . S
H1709 C1715 0.930 . S
C1710 H1696 0.930 . S
C1710 C1708 1.395 . S
C1710 C1713 1.403 . S
C1711 C1708 1.403 . S
C1711 C1712 1.524 . S
C1711 C1715 1.400 . S
C1712 H1697 0.960 . S
C1712 H1698 0.960 . S
C1712 H1699 0.960 . S
C1712 C1711 1.524 . S
C1713 C1710 1.403 . S
C1713 C1714 1.392 . S
C1713 C1717 1.495 . S
C1714 C1713 1.392 . S
C1714 C1715 1.385 . S
C1714 C1716 1.478 . S
C1715 H1709 0.930 . S
C1715 C1711 1.400 . S
C1715 C1714 1.385 . S
C1716 C1714 1.478 . S
C1716 C1718 1.381 . S
C1716 C1722 1.383 . S
C1717 C1713 1.495 . S
C1717 H1723 0.959 . S
C1717 H1724 0.961 . S
C1717 H1725 0.960 . S
C1718 C1716 1.381 . S
C1718 C1719 1.394 . S
C1718 H1726 0.930 . S
C1719 C1718 1.394 . S
C1719 C1720 1.383 . S
C1719 H1727 0.929 . S
C1720 C1719 1.383 . S
C1720 C1721 1.377 . S
C1721 H1705 0.930 . S
C1721 C1720 1.377 . S
C1721 C1722 1.379 . S
C1722 H1706 0.931 . S
C1722 C1716 1.383 . S
C1722 C1721 1.379 . S
H1723 C1717 0.959 . S
H1724 C1717 0.961 . S
H1725 C1717 0.960 . S
H1726 C1718 0.930 . S
H1727 C1719 0.929 . S
H1728 C1736 0.929 . S
H1729 C1738 0.930 . S
H1730 C1740 0.930 . S
H1731 C1743 0.929 . S
H1732 C1746 0.930 . S
H1733 C1748 0.960 . S
H1734 C1748 0.960 . S
H1735 C1748 0.960 . S
C1736 H1728 0.929 . S
C1736 C1737 1.377 . S
C1736 C1738 1.384 . S
C1737 C1736 1.377 . S
C1737 C1743 1.390 . S
C1738 H1729 0.930 . S
C1738 C1736 1.384 . S
C1738 C1739 1.372 . S
C1739 C1738 1.372 . S
C1739 C1740 1.400 . S
C1739 C1744 1.490 . S
C1740 H1730 0.930 . S
C1740 C1739 1.400 . S
C1740 C1743 1.386 . S
H1741 C1757 0.930 . S
H1742 C1758 0.931 . S
C1743 H1731 0.929 . S
C1743 C1737 1.390 . S
C1743 C1740 1.386 . S
C1744 C1739 1.490 . S
C1744 C1746 1.395 . S
C1744 C1747 1.403 . S
H1745 C1751 0.930 . S
C1746 H1732 0.930 . S
C1746 C1744 1.395 . S
C1746 C1749 1.403 . S
C1747 C1744 1.403 . S
C1747 C1748 1.524 . S
C1747 C1751 1.400 . S
C1748 H1733 0.960 . S
C1748 H1734 0.960 . S
C1748 H1735 0.960 . S
C1748 C1747 1.524 . S
C1749 C1746 1.403 . S
C1749 C1750 1.392 . S
C1749 C1753 1.495 . S
C1750 C1749 1.392 . S
C1750 C1751 1.385 . S
C1750 C1752 1.478 . S
C1751 H1745 0.930 . S
C1751 C1747 1.400 . S
C1751 C1750 1.385 . S
C1752 C1750 1.478 . S
C1752 C1754 1.381 . S
C1752 C1758 1.383 . S
C1753 C1749 1.495 . S
C1753 H1759 0.959 . S
C1753 H1760 0.961 . S
C1753 H1761 0.960 . S
C1754 C1752 1.381 . S
C1754 C1755 1.394 . S
C1754 H1762 0.930 . S
C1755 C1754 1.394 . S
C1755 C1756 1.383 . S
C1755 H1763 0.929 . S
C1756 C1755 1.383 . S
C1756 C1757 1.377 . S
C1757 H1741 0.930 . S
C1757 C1756 1.377 . S
C1757 C1758 1.379 . S
C1758 H1742 0.931 . S
C1758 C1752 1.383 . S
C1758 C1757 1.379 . S
H1759 C1753 0.959 . S
H1760 C1753 0.961 . S
H1761 C1753 0.960 . S
H1762 C1754 0.930 . S
H1763 C1755 0.929 . S
H1764 C1772 0.929 1_556 S
H1765 C1774 0.930 1_556 S
H1766 C1776 0.930 . S
H1767 C1779 0.929 . S
H1768 C1782 0.930 . S
H1769 C1784 0.960 . S
H1770 C1784 0.960 . S
H1771 C1784 0.960 . S
C1772 H1764 0.929 1_554 S
C1772 C1773 1.377 . S
C1772 C1774 1.384 . S
C1773 C1772 1.377 . S
C1773 C1779 1.390 . S
C1774 H1765 0.930 1_554 S
C1774 C1772 1.384 . S
C1774 C1775 1.372 . S
C1775 C1774 1.372 . S
C1775 C1776 1.400 . S
C1775 C1780 1.490 . S
C1776 H1766 0.930 . S
C1776 C1775 1.400 . S
C1776 C1779 1.386 . S
H1777 C1793 0.930 . S
H1778 C1794 0.931 . S
C1779 H1767 0.929 . S
C1779 C1773 1.390 . S
C1779 C1776 1.386 . S
C1780 C1775 1.490 . S
C1780 C1782 1.395 . S
C1780 C1783 1.403 . S
H1781 C1787 0.930 . S
C1782 H1768 0.930 . S
C1782 C1780 1.395 . S
C1782 C1785 1.384 1_554 S
C1783 C1780 1.403 . S
C1783 C1784 1.524 . S
C1783 C1787 1.400 . S
C1784 H1769 0.960 . S
C1784 H1770 0.960 . S
C1784 H1771 0.960 . S
C1784 C1783 1.524 . S
C1785 C1782 1.384 1_556 S
C1785 C1786 1.390 . S
C1785 C1789 1.523 . S
C1786 C1785 1.390 . S
C1786 C1787 1.383 1_556 S
C1786 C1788 1.479 . S
C1787 H1781 0.930 . S
C1787 C1783 1.400 . S
C1787 C1786 1.383 1_554 S
C1788 C1786 1.479 . S
C1788 C1790 1.381 . S
C1788 C1794 1.383 1_556 S
C1789 C1785 1.523 . S
C1789 H1795 0.959 . S
C1789 H1796 0.913 1_556 S
C1789 H1797 0.960 . S
C1790 C1788 1.381 . S
C1790 C1791 1.394 . S
C1790 H1798 0.930 . S
C1791 C1790 1.394 . S
C1791 C1792 1.383 . S
C1791 H1799 0.929 . S
C1792 C1791 1.383 . S
C1792 C1793 1.377 1_556 S
C1793 H1777 0.930 . S
C1793 C1792 1.377 1_554 S
C1793 C1794 1.379 . S
C1794 H1778 0.931 . S
C1794 C1788 1.383 1_554 S
C1794 C1793 1.379 . S
H1795 C1789 0.959 . S
H1796 C1789 0.913 1_554 S
H1797 C1789 0.960 . S
H1798 C1790 0.930 . S
H1799 C1791 0.929 . S
H1800 C1808 0.929 . S
H1801 C1810 0.930 . S
H1802 C1812 0.930 . S
H1803 C1815 0.929 . S
H1804 C1818 0.930 . S
H1805 C1820 0.960 . S
H1806 C1820 0.960 . S
H1807 C1820 0.960 . S
C1808 H1800 0.929 . S
C1808 C1809 1.377 . S
C1808 C1810 1.384 . S
C1809 C1808 1.377 . S
C1809 C1815 1.390 . S
C1810 H1801 0.930 . S
C1810 C1808 1.384 . S
C1810 C1811 1.372 . S
C1811 C1810 1.372 . S
C1811 C1812 1.400 . S
C1811 C1816 1.490 . S
C1812 H1802 0.930 . S
C1812 C1811 1.400 . S
C1812 C1815 1.386 . S
H1813 C1829 0.930 . S
H1814 C1830 0.931 . S
C1815 H1803 0.929 . S
C1815 C1809 1.390 . S
C1815 C1812 1.386 . S
C1816 C1811 1.490 . S
C1816 C1818 1.395 . S
C1816 C1819 1.403 . S
H1817 C1823 0.930 . S
C1818 H1804 0.930 . S
C1818 C1816 1.395 . S
C1818 C1821 1.403 . S
C1819 C1816 1.403 . S
C1819 C1820 1.524 . S
C1819 C1823 1.400 . S
C1820 H1805 0.960 . S
C1820 H1806 0.960 . S
C1820 H1807 0.960 . S
C1820 C1819 1.524 . S
C1821 C1818 1.403 . S
C1821 C1822 1.392 . S
C1821 C1825 1.495 . S
C1822 C1821 1.392 . S
C1822 C1823 1.385 . S
C1822 C1824 1.478 . S
C1823 H1817 0.930 . S
C1823 C1819 1.400 . S
C1823 C1822 1.385 . S
C1824 C1822 1.478 . S
C1824 C1826 1.381 . S
C1824 C1830 1.383 . S
C1825 C1821 1.495 . S
C1825 H1831 0.959 . S
C1825 H1832 0.961 . S
C1825 H1833 0.960 . S
C1826 C1824 1.381 . S
C1826 C1827 1.394 . S
C1826 H1834 0.930 . S
C1827 C1826 1.394 . S
C1827 C1828 1.383 . S
C1827 H1835 0.929 . S
C1828 C1827 1.383 . S
C1828 C1829 1.377 . S
C1829 H1813 0.930 . S
C1829 C1828 1.377 . S
C1829 C1830 1.379 . S
C1830 H1814 0.931 . S
C1830 C1824 1.383 . S
C1830 C1829 1.379 . S
H1831 C1825 0.959 . S
H1832 C1825 0.961 . S
H1833 C1825 0.960 . S
H1834 C1826 0.930 . S
H1835 C1827 0.929 . S
H1836 C1844 0.929 . S
H1837 C1846 0.930 . S
H1838 C1848 0.930 . S
H1839 C1851 0.929 . S
H1840 C1854 0.930 . S
H1841 C1856 0.960 . S
H1842 C1856 0.960 . S
H1843 C1856 0.960 . S
C1844 H1836 0.929 . S
C1844 C1845 1.377 . S
C1844 C1846 1.384 . S
C1845 C1844 1.377 . S
C1845 C1851 1.390 . S
C1846 H1837 0.930 . S
C1846 C1844 1.384 . S
C1846 C1847 1.372 . S
C1847 C1846 1.372 . S
C1847 C1848 1.400 . S
C1847 C1852 1.490 . S
C1848 H1838 0.930 . S
C1848 C1847 1.400 . S
C1848 C1851 1.386 . S
H1849 C1865 0.930 . S
H1850 C1866 0.931 . S
C1851 H1839 0.929 . S
C1851 C1845 1.390 . S
C1851 C1848 1.386 . S
C1852 C1847 1.490 . S
C1852 C1854 1.395 . S
C1852 C1855 1.403 . S
H1853 C1859 0.930 . S
C1854 H1840 0.930 . S
C1854 C1852 1.395 . S
C1854 C1857 1.403 . S
C1855 C1852 1.403 . S
C1855 C1856 1.524 . S
C1855 C1859 1.400 . S
C1856 H1841 0.960 . S
C1856 H1842 0.960 . S
C1856 H1843 0.960 . S
C1856 C1855 1.524 . S
C1857 C1854 1.403 . S
C1857 C1858 1.392 . S
C1857 C1861 1.495 . S
C1858 C1857 1.392 . S
C1858 C1859 1.385 . S
C1858 C1860 1.478 . S
C1859 H1853 0.930 . S
C1859 C1855 1.400 . S
C1859 C1858 1.385 . S
C1860 C1858 1.478 . S
C1860 C1862 1.381 . S
C1860 C1866 1.383 . S
C1861 C1857 1.495 . S
C1861 H1867 0.959 . S
C1861 H1868 0.961 . S
C1861 H1869 0.960 . S
C1862 C1860 1.381 . S
C1862 C1863 1.394 . S
C1862 H1870 0.930 . S
C1863 C1862 1.394 . S
C1863 C1864 1.383 . S
C1863 H1871 0.929 . S
C1864 C1863 1.383 . S
C1864 C1865 1.377 . S
C1865 H1849 0.930 . S
C1865 C1864 1.377 . S
C1865 C1866 1.379 . S
C1866 H1850 0.931 . S
C1866 C1860 1.383 . S
C1866 C1865 1.379 . S
H1867 C1861 0.959 . S
H1868 C1861 0.961 . S
H1869 C1861 0.960 . S
H1870 C1862 0.930 . S
H1871 C1863 0.929 . S
H1872 C1880 0.929 . S
H1873 C1882 0.930 . S
H1874 C1884 0.930 . S
H1875 C1887 0.929 . S
H1876 C1890 0.930 . S
H1877 C1892 0.960 . S
H1878 C1892 0.960 . S
H1879 C1892 0.960 . S
C1880 H1872 0.929 . S
C1880 C1881 1.377 . S
C1880 C1882 1.384 . S
C1881 C1880 1.377 . S
C1881 C1887 1.390 . S
C1882 H1873 0.930 . S
C1882 C1880 1.384 . S
C1882 C1883 1.372 . S
C1883 C1882 1.372 . S
C1883 C1884 1.400 . S
C1883 C1888 1.490 . S
C1884 H1874 0.930 . S
C1884 C1883 1.400 . S
C1884 C1887 1.386 . S
H1885 C1901 0.930 . S
H1886 C1902 0.931 . S
C1887 H1875 0.929 . S
C1887 C1881 1.390 . S
C1887 C1884 1.386 . S
C1888 C1883 1.490 . S
C1888 C1890 1.395 . S
C1888 C1891 1.403 . S
H1889 C1895 0.930 . S
C1890 H1876 0.930 . S
C1890 C1888 1.395 . S
C1890 C1893 1.403 . S
C1891 C1888 1.403 . S
C1891 C1892 1.524 . S
C1891 C1895 1.400 . S
C1892 H1877 0.960 . S
C1892 H1878 0.960 . S
C1892 H1879 0.960 . S
C1892 C1891 1.524 . S
C1893 C1890 1.403 . S
C1893 C1894 1.392 . S
C1893 C1897 1.495 . S
C1894 C1893 1.392 . S
C1894 C1895 1.385 . S
C1894 C1896 1.478 . S
C1895 H1889 0.930 . S
C1895 C1891 1.400 . S
C1895 C1894 1.385 . S
C1896 C1894 1.478 . S
C1896 C1898 1.381 . S
C1896 C1902 1.383 . S
C1897 C1893 1.495 . S
C1897 H1903 0.959 . S
C1897 H1904 0.961 . S
C1897 H1905 0.960 . S
C1898 C1896 1.381 . S
C1898 C1899 1.394 . S
C1898 H1906 0.930 . S
C1899 C1898 1.394 . S
C1899 C1900 1.383 . S
C1899 H1907 0.929 . S
C1900 C1899 1.383 . S
C1900 C1901 1.377 . S
C1901 H1885 0.930 . S
C1901 C1900 1.377 . S
C1901 C1902 1.379 . S
C1902 H1886 0.931 . S
C1902 C1896 1.383 . S
C1902 C1901 1.379 . S
H1903 C1897 0.959 . S
H1904 C1897 0.961 . S
H1905 C1897 0.960 . S
H1906 C1898 0.930 . S
H1907 C1899 0.929 . S
H1908 C1916 0.929 . S
H1909 C1918 0.930 . S
H1910 C1920 0.930 . S
H1911 C1923 0.929 . S
H1912 C1926 0.930 . S
H1913 C1928 0.960 . S
H1914 C1928 0.960 . S
H1915 C1928 0.960 . S
C1916 H1908 0.929 . S
C1916 C1917 1.377 . S
C1916 C1918 1.384 . S
C1917 C1916 1.377 . S
C1917 C1923 1.390 . S
C1918 H1909 0.930 . S
C1918 C1916 1.384 . S
C1918 C1919 1.372 . S
C1919 C1918 1.372 . S
C1919 C1920 1.400 . S
C1919 C1924 1.490 . S
C1920 H1910 0.930 . S
C1920 C1919 1.400 . S
C1920 C1923 1.386 . S
H1921 C1937 0.930 . S
H1922 C1938 0.931 . S
C1923 H1911 0.929 . S
C1923 C1917 1.390 . S
C1923 C1920 1.386 . S
C1924 C1919 1.490 . S
C1924 C1926 1.395 . S
C1924 C1927 1.403 . S
H1925 C1931 0.930 . S
C1926 H1912 0.930 . S
C1926 C1924 1.395 . S
C1926 C1929 1.403 . S
C1927 C1924 1.403 . S
C1927 C1928 1.524 . S
C1927 C1931 1.400 . S
C1928 H1913 0.960 . S
C1928 H1914 0.960 . S
C1928 H1915 0.960 . S
C1928 C1927 1.524 . S
C1929 C1926 1.403 . S
C1929 C1930 1.392 . S
C1929 C1933 1.495 . S
C1930 C1929 1.392 . S
C1930 C1931 1.385 . S
C1930 C1932 1.478 . S
C1931 H1925 0.930 . S
C1931 C1927 1.400 . S
C1931 C1930 1.385 . S
C1932 C1930 1.478 . S
C1932 C1934 1.381 . S
C1932 C1938 1.383 . S
C1933 C1929 1.495 . S
C1933 H1939 0.959 . S
C1933 H1940 0.961 . S
C1933 H1941 0.960 . S
C1934 C1932 1.381 . S
C1934 C1935 1.394 . S
C1934 H1942 0.930 . S
C1935 C1934 1.394 . S
C1935 C1936 1.383 . S
C1935 H1943 0.929 . S
C1936 C1935 1.383 . S
C1936 C1937 1.377 . S
C1937 H1921 0.930 . S
C1937 C1936 1.377 . S
C1937 C1938 1.379 . S
C1938 H1922 0.931 . S
C1938 C1932 1.383 . S
C1938 C1937 1.379 . S
H1939 C1933 0.959 . S
H1940 C1933 0.961 . S
H1941 C1933 0.960 . S
H1942 C1934 0.930 . S
H1943 C1935 0.929 . S
H1944 C1952 0.929 . S
H1945 C1954 0.930 . S
H1946 C1956 0.930 . S
H1947 C1959 0.929 . S
H1948 C1962 0.930 . S
H1949 C1964 0.960 . S
H1950 C1964 0.960 . S
H1951 C1964 0.960 . S
C1952 H1944 0.929 . S
C1952 C1953 1.377 . S
C1952 C1954 1.384 . S
C1953 C1952 1.377 . S
C1953 C1959 1.390 . S
C1954 H1945 0.930 . S
C1954 C1952 1.384 . S
C1954 C1955 1.372 . S
C1955 C1954 1.372 . S
C1955 C1956 1.400 . S
C1955 C1960 1.490 . S
C1956 H1946 0.930 . S
C1956 C1955 1.400 . S
C1956 C1959 1.386 . S
H1957 C1973 0.930 . S
H1958 C1974 0.931 . S
C1959 H1947 0.929 . S
C1959 C1953 1.390 . S
C1959 C1956 1.386 . S
C1960 C1955 1.490 . S
C1960 C1962 1.395 . S
C1960 C1963 1.403 . S
H1961 C1967 0.930 . S
C1962 H1948 0.930 . S
C1962 C1960 1.395 . S
C1962 C1965 1.403 . S
C1963 C1960 1.403 . S
C1963 C1964 1.524 . S
C1963 C1967 1.400 . S
C1964 H1949 0.960 . S
C1964 H1950 0.960 . S
C1964 H1951 0.960 . S
C1964 C1963 1.524 . S
C1965 C1962 1.403 . S
C1965 C1966 1.392 . S
C1965 C1969 1.495 . S
C1966 C1965 1.392 . S
C1966 C1967 1.385 . S
C1966 C1968 1.478 . S
C1967 H1961 0.930 . S
C1967 C1963 1.400 . S
C1967 C1966 1.385 . S
C1968 C1966 1.478 . S
C1968 C1970 1.381 . S
C1968 C1974 1.383 . S
C1969 C1965 1.495 . S
C1969 H1975 0.959 . S
C1969 H1976 0.961 . S
C1969 H1977 0.960 . S
C1970 C1968 1.381 . S
C1970 C1971 1.394 . S
C1970 H1978 0.930 . S
C1971 C1970 1.394 . S
C1971 C1972 1.383 . S
C1971 H1979 0.929 . S
C1972 C1971 1.383 . S
C1972 C1973 1.377 . S
C1973 H1957 0.930 . S
C1973 C1972 1.377 . S
C1973 C1974 1.379 . S
C1974 H1958 0.931 . S
C1974 C1968 1.383 . S
C1974 C1973 1.379 . S
H1975 C1969 0.959 . S
H1976 C1969 0.961 . S
H1977 C1969 0.960 . S
H1978 C1970 0.930 . S
H1979 C1971 0.929 . S
H1980 C1988 0.929 . S
H1981 C1990 0.930 . S
H1982 C1992 0.930 . S
H1983 C1995 0.929 . S
H1984 C1998 0.930 . S
H1985 C2000 0.960 . S
H1986 C2000 0.960 . S
H1987 C2000 0.960 . S
C1988 H1980 0.929 . S
C1988 C1989 1.377 . S
C1988 C1990 1.384 . S
C1989 C1988 1.377 . S
C1989 C1995 1.390 . S
C1990 H1981 0.930 . S
C1990 C1988 1.384 . S
C1990 C1991 1.372 . S
C1991 C1990 1.372 . S
C1991 C1992 1.400 . S
C1991 C1996 1.490 . S
C1992 H1982 0.930 . S
C1992 C1991 1.400 . S
C1992 C1995 1.386 . S
H1993 C2009 0.930 . S
H1994 C2010 0.931 . S
C1995 H1983 0.929 . S
C1995 C1989 1.390 . S
C1995 C1992 1.386 . S
C1996 C1991 1.490 . S
C1996 C1998 1.395 . S
C1996 C1999 1.403 . S
H1997 C2003 0.930 . S
C1998 H1984 0.930 . S
C1998 C1996 1.395 . S
C1998 C2001 1.403 . S
C1999 C1996 1.403 . S
C1999 C2000 1.524 . S
C1999 C2003 1.400 . S
C2000 H1985 0.960 . S
C2000 H1986 0.960 . S
C2000 H1987 0.960 . S
C2000 C1999 1.524 . S
C2001 C1998 1.403 . S
C2001 C2002 1.392 . S
C2001 C2005 1.495 . S
C2002 C2001 1.392 . S
C2002 C2003 1.385 . S
C2002 C2004 1.478 . S
C2003 H1997 0.930 . S
C2003 C1999 1.400 . S
C2003 C2002 1.385 . S
C2004 C2002 1.478 . S
C2004 C2006 1.381 . S
C2004 C2010 1.383 . S
C2005 C2001 1.495 . S
C2005 H2011 0.959 . S
C2005 H2012 0.961 . S
C2005 H2013 0.960 . S
C2006 C2004 1.381 . S
C2006 C2007 1.394 . S
C2006 H2014 0.930 . S
C2007 C2006 1.394 . S
C2007 C2008 1.383 . S
C2007 H2015 0.929 . S
C2008 C2007 1.383 . S
C2008 C2009 1.377 . S
C2009 H1993 0.930 . S
C2009 C2008 1.377 . S
C2009 C2010 1.379 . S
C2010 H1994 0.931 . S
C2010 C2004 1.383 . S
C2010 C2009 1.379 . S
H2011 C2005 0.959 . S
H2012 C2005 0.961 . S
H2013 C2005 0.960 . S
H2014 C2006 0.930 . S
H2015 C2007 0.929 . S
H2016 C2024 0.929 . S
H2017 C2026 0.930 . S
H2018 C2028 0.930 . S
H2019 C2031 0.929 . S
H2020 C2034 0.930 . S
H2021 C2036 0.960 . S
H2022 C2036 0.960 . S
H2023 C2036 0.960 . S
C2024 H2016 0.929 . S
C2024 C2025 1.377 . S
C2024 C2026 1.384 . S
C2025 C2024 1.377 . S
C2025 C2031 1.390 . S
C2026 H2017 0.930 . S
C2026 C2024 1.384 . S
C2026 C2027 1.372 . S
C2027 C2026 1.372 . S
C2027 C2028 1.400 . S
C2027 C2032 1.490 . S
C2028 H2018 0.930 . S
C2028 C2027 1.400 . S
C2028 C2031 1.386 . S
H2029 C2045 0.930 . S
H2030 C2046 0.931 . S
C2031 H2019 0.929 . S
C2031 C2025 1.390 . S
C2031 C2028 1.386 . S
C2032 C2027 1.490 . S
C2032 C2034 1.395 . S
C2032 C2035 1.403 . S
H2033 C2039 0.930 . S
C2034 H2020 0.930 . S
C2034 C2032 1.395 . S
C2034 C2037 1.403 . S
C2035 C2032 1.403 . S
C2035 C2036 1.524 . S
C2035 C2039 1.400 . S
C2036 H2021 0.960 . S
C2036 H2022 0.960 . S
C2036 H2023 0.960 . S
C2036 C2035 1.524 . S
C2037 C2034 1.403 . S
C2037 C2038 1.392 . S
C2037 C2041 1.495 . S
C2038 C2037 1.392 . S
C2038 C2039 1.385 . S
C2038 C2040 1.478 . S
C2039 H2033 0.930 . S
C2039 C2035 1.400 . S
C2039 C2038 1.385 . S
C2040 C2038 1.478 . S
C2040 C2042 1.381 . S
C2040 C2046 1.383 . S
C2041 C2037 1.495 . S
C2041 H2047 0.959 . S
C2041 H2048 0.961 . S
C2041 H2049 0.960 . S
C2042 C2040 1.381 . S
C2042 C2043 1.394 . S
C2042 H2050 0.930 . S
C2043 C2042 1.394 . S
C2043 C2044 1.383 . S
C2043 H2051 0.929 . S
C2044 C2043 1.383 . S
C2044 C2045 1.377 . S
C2045 H2029 0.930 . S
C2045 C2044 1.377 . S
C2045 C2046 1.379 . S
C2046 H2030 0.931 . S
C2046 C2040 1.383 . S
C2046 C2045 1.379 . S
H2047 C2041 0.959 . S
H2048 C2041 0.961 . S
H2049 C2041 0.960 . S
H2050 C2042 0.930 . S
H2051 C2043 0.929 . S
H2052 C2060 0.929 . S
H2053 C2062 0.930 . S
H2054 C2064 0.930 . S
H2055 C2067 0.929 . S
H2056 C2070 0.930 . S
H2057 C2072 0.960 . S
H2058 C2072 0.960 . S
H2059 C2072 0.960 . S
C2060 H2052 0.929 . S
C2060 C2061 1.377 . S
C2060 C2062 1.384 . S
C2061 C2060 1.377 . S
C2061 C2067 1.390 . S
C2062 H2053 0.930 . S
C2062 C2060 1.384 . S
C2062 C2063 1.372 . S
C2063 C2062 1.372 . S
C2063 C2064 1.400 . S
C2063 C2068 1.490 . S
C2064 H2054 0.930 . S
C2064 C2063 1.400 . S
C2064 C2067 1.386 . S
H2065 C2081 0.930 . S
H2066 C2082 0.931 . S
C2067 H2055 0.929 . S
C2067 C2061 1.390 . S
C2067 C2064 1.386 . S
C2068 C2063 1.490 . S
C2068 C2070 1.395 . S
C2068 C2071 1.403 . S
H2069 C2075 0.930 . S
C2070 H2056 0.930 . S
C2070 C2068 1.395 . S
C2070 C2073 1.403 . S
C2071 C2068 1.403 . S
C2071 C2072 1.524 . S
C2071 C2075 1.400 . S
C2072 H2057 0.960 . S
C2072 H2058 0.960 . S
C2072 H2059 0.960 . S
C2072 C2071 1.524 . S
C2073 C2070 1.403 . S
C2073 C2074 1.392 . S
C2073 C2077 1.495 . S
C2074 C2073 1.392 . S
C2074 C2075 1.385 . S
C2074 C2076 1.478 . S
C2075 H2069 0.930 . S
C2075 C2071 1.400 . S
C2075 C2074 1.385 . S
C2076 C2074 1.478 . S
C2076 C2078 1.381 . S
C2076 C2082 1.383 . S
C2077 C2073 1.495 . S
C2077 H2083 0.959 . S
C2077 H2084 0.961 . S
C2077 H2085 0.960 . S
C2078 C2076 1.381 . S
C2078 C2079 1.394 . S
C2078 H2086 0.930 . S
C2079 C2078 1.394 . S
C2079 C2080 1.383 . S
C2079 H2087 0.929 . S
C2080 C2079 1.383 . S
C2080 C2081 1.377 . S
C2081 H2065 0.930 . S
C2081 C2080 1.377 . S
C2081 C2082 1.379 . S
C2082 H2066 0.931 . S
C2082 C2076 1.383 . S
C2082 C2081 1.379 . S
H2083 C2077 0.959 . S
H2084 C2077 0.961 . S
H2085 C2077 0.960 . S
H2086 C2078 0.930 . S
H2087 C2079 0.929 . S
H2088 C2096 0.929 . S
H2089 C2098 0.930 . S
H2090 C2100 0.930 . S
H2091 C2103 0.929 . S
H2092 C2106 0.930 . S
H2093 C2108 0.960 . S
H2094 C2108 0.960 . S
H2095 C2108 0.960 . S
C2096 H2088 0.929 . S
C2096 C2097 1.377 . S
C2096 C2098 1.384 . S
C2097 C2096 1.377 . S
C2097 C2103 1.390 . S
C2098 H2089 0.930 . S
C2098 C2096 1.384 . S
C2098 C2099 1.372 . S
C2099 C2098 1.372 . S
C2099 C2100 1.400 . S
C2099 C2104 1.490 . S
C2100 H2090 0.930 . S
C2100 C2099 1.400 . S
C2100 C2103 1.386 . S
H2101 C2117 0.930 . S
H2102 C2118 0.931 . S
C2103 H2091 0.929 . S
C2103 C2097 1.390 . S
C2103 C2100 1.386 . S
C2104 C2099 1.490 . S
C2104 C2106 1.395 . S
C2104 C2107 1.403 . S
H2105 C2111 0.930 . S
C2106 H2092 0.930 . S
C2106 C2104 1.395 . S
C2106 C2109 1.403 . S
C2107 C2104 1.403 . S
C2107 C2108 1.524 . S
C2107 C2111 1.400 . S
C2108 H2093 0.960 . S
C2108 H2094 0.960 . S
C2108 H2095 0.960 . S
C2108 C2107 1.524 . S
C2109 C2106 1.403 . S
C2109 C2110 1.392 . S
C2109 C2113 1.495 . S
C2110 C2109 1.392 . S
C2110 C2111 1.385 . S
C2110 C2112 1.478 . S
C2111 H2105 0.930 . S
C2111 C2107 1.400 . S
C2111 C2110 1.385 . S
C2112 C2110 1.478 . S
C2112 C2114 1.381 . S
C2112 C2118 1.383 . S
C2113 C2109 1.495 . S
C2113 H2119 0.959 . S
C2113 H2120 0.961 . S
C2113 H2121 0.960 . S
C2114 C2112 1.381 . S
C2114 C2115 1.394 . S
C2114 H2122 0.930 . S
C2115 C2114 1.394 . S
C2115 C2116 1.383 . S
C2115 H2123 0.929 . S
C2116 C2115 1.383 . S
C2116 C2117 1.377 . S
C2117 H2101 0.930 . S
C2117 C2116 1.377 . S
C2117 C2118 1.379 . S
C2118 H2102 0.931 . S
C2118 C2112 1.383 . S
C2118 C2117 1.379 . S
H2119 C2113 0.959 . S
H2120 C2113 0.961 . S
H2121 C2113 0.960 . S
H2122 C2114 0.930 . S
H2123 C2115 0.929 . S
H2124 C2132 0.929 . S
H2125 C2134 0.930 . S
H2126 C2136 0.930 . S
H2127 C2139 0.929 . S
H2128 C2142 0.930 . S
H2129 C2144 0.960 . S
H2130 C2144 0.960 . S
H2131 C2144 0.960 . S
C2132 H2124 0.929 . S
C2132 C2133 1.377 . S
C2132 C2134 1.384 . S
C2133 C2132 1.377 . S
C2133 C2139 1.390 . S
C2134 H2125 0.930 . S
C2134 C2132 1.384 . S
C2134 C2135 1.372 . S
C2135 C2134 1.372 . S
C2135 C2136 1.400 . S
C2135 C2140 1.490 . S
C2136 H2126 0.930 . S
C2136 C2135 1.400 . S
C2136 C2139 1.386 . S
H2137 C2153 0.930 . S
H2138 C2154 0.931 . S
C2139 H2127 0.929 . S
C2139 C2133 1.390 . S
C2139 C2136 1.386 . S
C2140 C2135 1.490 . S
C2140 C2142 1.395 . S
C2140 C2143 1.403 . S
H2141 C2147 0.930 . S
C2142 H2128 0.930 . S
C2142 C2140 1.395 . S
C2142 C2145 1.403 . S
C2143 C2140 1.403 . S
C2143 C2144 1.524 . S
C2143 C2147 1.400 . S
C2144 H2129 0.960 . S
C2144 H2130 0.960 . S
C2144 H2131 0.960 . S
C2144 C2143 1.524 . S
C2145 C2142 1.403 . S
C2145 C2146 1.392 . S
C2145 C2149 1.495 . S
C2146 C2145 1.392 . S
C2146 C2147 1.385 . S
C2146 C2148 1.478 . S
C2147 H2141 0.930 . S
C2147 C2143 1.400 . S
C2147 C2146 1.385 . S
C2148 C2146 1.478 . S
C2148 C2150 1.381 . S
C2148 C2154 1.383 . S
C2149 C2145 1.495 . S
C2149 H2155 0.959 . S
C2149 H2156 0.961 . S
C2149 H2157 0.960 . S
C2150 C2148 1.381 . S
C2150 C2151 1.394 . S
C2150 H2158 0.930 . S
C2151 C2150 1.394 . S
C2151 C2152 1.383 . S
C2151 H2159 0.929 . S
C2152 C2151 1.383 . S
C2152 C2153 1.377 . S
C2153 H2137 0.930 . S
C2153 C2152 1.377 . S
C2153 C2154 1.379 . S
C2154 H2138 0.931 . S
C2154 C2148 1.383 . S
C2154 C2153 1.379 . S
H2155 C2149 0.959 . S
H2156 C2149 0.961 . S
H2157 C2149 0.960 . S
H2158 C2150 0.930 . S
H2159 C2151 0.929 . S
H2160 C2168 0.929 . S
H2161 C2170 0.930 . S
H2162 C2172 0.930 . S
H2163 C2175 0.929 . S
H2164 C2178 0.930 . S
H2165 C2180 0.960 . S
H2166 C2180 0.960 . S
H2167 C2180 0.960 . S
C2168 H2160 0.929 . S
C2168 C2169 1.377 . S
C2168 C2170 1.384 . S
C2169 C2168 1.377 . S
C2169 C2175 1.390 . S
C2170 H2161 0.930 . S
C2170 C2168 1.384 . S
C2170 C2171 1.372 . S
C2171 C2170 1.372 . S
C2171 C2172 1.400 . S
C2171 C2176 1.490 . S
C2172 H2162 0.930 . S
C2172 C2171 1.400 . S
C2172 C2175 1.386 . S
H2173 C2189 0.930 . S
H2174 C2190 0.931 . S
C2175 H2163 0.929 . S
C2175 C2169 1.390 . S
C2175 C2172 1.386 . S
C2176 C2171 1.490 . S
C2176 C2178 1.395 . S
C2176 C2179 1.403 . S
H2177 C2183 0.930 . S
C2178 H2164 0.930 . S
C2178 C2176 1.395 . S
C2178 C2181 1.403 . S
C2179 C2176 1.403 . S
C2179 C2180 1.524 . S
C2179 C2183 1.400 . S
C2180 H2165 0.960 . S
C2180 H2166 0.960 . S
C2180 H2167 0.960 . S
C2180 C2179 1.524 . S
C2181 C2178 1.403 . S
C2181 C2182 1.392 . S
C2181 C2185 1.495 . S
C2182 C2181 1.392 . S
C2182 C2183 1.385 . S
C2182 C2184 1.478 . S
C2183 H2177 0.930 . S
C2183 C2179 1.400 . S
C2183 C2182 1.385 . S
C2184 C2182 1.478 . S
C2184 C2186 1.381 . S
C2184 C2190 1.383 . S
C2185 C2181 1.495 . S
C2185 H2191 0.959 . S
C2185 H2192 0.961 . S
C2185 H2193 0.960 . S
C2186 C2184 1.381 . S
C2186 C2187 1.394 . S
C2186 H2194 0.930 . S
C2187 C2186 1.394 . S
C2187 C2188 1.383 . S
C2187 H2195 0.929 . S
C2188 C2187 1.383 . S
C2188 C2189 1.377 . S
C2189 H2173 0.930 . S
C2189 C2188 1.377 . S
C2189 C2190 1.379 . S
C2190 H2174 0.931 . S
C2190 C2184 1.383 . S
C2190 C2189 1.379 . S
H2191 C2185 0.959 . S
H2192 C2185 0.961 . S
H2193 C2185 0.960 . S
H2194 C2186 0.930 . S
H2195 C2187 0.929 . S
H2196 C2204 0.929 . S
H2197 C2206 0.930 . S
H2198 C2208 0.930 . S
H2199 C2211 0.929 . S
H2200 C2214 0.930 . S
H2201 C2216 0.960 . S
H2202 C2216 0.960 . S
H2203 C2216 0.960 . S
C2204 H2196 0.929 . S
C2204 C2205 1.377 . S
C2204 C2206 1.384 . S
C2205 C2204 1.377 . S
C2205 C2211 1.390 . S
C2206 H2197 0.930 . S
C2206 C2204 1.384 . S
C2206 C2207 1.372 . S
C2207 C2206 1.372 . S
C2207 C2208 1.400 . S
C2207 C2212 1.490 . S
C2208 H2198 0.930 . S
C2208 C2207 1.400 . S
C2208 C2211 1.386 . S
H2209 C2225 0.930 . S
H2210 C2226 0.931 . S
C2211 H2199 0.929 . S
C2211 C2205 1.390 . S
C2211 C2208 1.386 . S
C2212 C2207 1.490 . S
C2212 C2214 1.395 . S
C2212 C2215 1.403 . S
H2213 C2219 0.930 . S
C2214 H2200 0.930 . S
C2214 C2212 1.395 . S
C2214 C2217 1.403 . S
C2215 C2212 1.403 . S
C2215 C2216 1.524 . S
C2215 C2219 1.400 . S
C2216 H2201 0.960 . S
C2216 H2202 0.960 . S
C2216 H2203 0.960 . S
C2216 C2215 1.524 . S
C2217 C2214 1.403 . S
C2217 C2218 1.392 . S
C2217 C2221 1.495 . S
C2218 C2217 1.392 . S
C2218 C2219 1.385 . S
C2218 C2220 1.478 . S
C2219 H2213 0.930 . S
C2219 C2215 1.400 . S
C2219 C2218 1.385 . S
C2220 C2218 1.478 . S
C2220 C2222 1.381 . S
C2220 C2226 1.383 . S
C2221 C2217 1.495 . S
C2221 H2227 0.959 . S
C2221 H2228 0.961 . S
C2221 H2229 0.960 . S
C2222 C2220 1.381 . S
C2222 C2223 1.394 . S
C2222 H2230 0.930 . S
C2223 C2222 1.394 . S
C2223 C2224 1.383 . S
C2223 H2231 0.929 . S
C2224 C2223 1.383 . S
C2224 C2225 1.377 . S
C2225 H2209 0.930 . S
C2225 C2224 1.377 . S
C2225 C2226 1.379 . S
C2226 H2210 0.931 . S
C2226 C2220 1.383 . S
C2226 C2225 1.379 . S
H2227 C2221 0.959 . S
H2228 C2221 0.961 . S
H2229 C2221 0.960 . S
H2230 C2222 0.930 . S
H2231 C2223 0.929 . S
H2232 C2240 0.929 . S
H2233 C2242 0.930 . S
H2234 C2244 0.930 . S
H2235 C2247 0.929 . S
H2236 C2250 0.930 . S
H2237 C2252 0.960 . S
H2238 C2252 0.960 . S
H2239 C2252 0.960 . S
C2240 H2232 0.929 . S
C2240 C2241 1.377 . S
C2240 C2242 1.384 . S
C2241 C2240 1.377 . S
C2241 C2247 1.390 . S
C2242 H2233 0.930 . S
C2242 C2240 1.384 . S
C2242 C2243 1.372 . S
C2243 C2242 1.372 . S
C2243 C2244 1.400 . S
C2243 C2248 1.490 . S
C2244 H2234 0.930 . S
C2244 C2243 1.400 . S
C2244 C2247 1.386 . S
H2245 C2261 0.930 . S
H2246 C2262 0.931 . S
C2247 H2235 0.929 . S
C2247 C2241 1.390 . S
C2247 C2244 1.386 . S
C2248 C2243 1.490 . S
C2248 C2250 1.395 . S
C2248 C2251 1.403 . S
H2249 C2255 0.930 . S
C2250 H2236 0.930 . S
C2250 C2248 1.395 . S
C2250 C2253 1.403 . S
C2251 C2248 1.403 . S
C2251 C2252 1.524 . S
C2251 C2255 1.400 . S
C2252 H2237 0.960 . S
C2252 H2238 0.960 . S
C2252 H2239 0.960 . S
C2252 C2251 1.524 . S
C2253 C2250 1.403 . S
C2253 C2254 1.392 . S
C2253 C2257 1.495 . S
C2254 C2253 1.392 . S
C2254 C2255 1.385 . S
C2254 C2256 1.478 . S
C2255 H2249 0.930 . S
C2255 C2251 1.400 . S
C2255 C2254 1.385 . S
C2256 C2254 1.478 . S
C2256 C2258 1.381 . S
C2256 C2262 1.383 . S
C2257 C2253 1.495 . S
C2257 H2263 0.959 . S
C2257 H2264 0.961 . S
C2257 H2265 0.960 . S
C2258 C2256 1.381 . S
C2258 C2259 1.394 . S
C2258 H2266 0.930 . S
C2259 C2258 1.394 . S
C2259 C2260 1.383 . S
C2259 H2267 0.929 . S
C2260 C2259 1.383 . S
C2260 C2261 1.377 . S
C2261 H2245 0.930 . S
C2261 C2260 1.377 . S
C2261 C2262 1.379 . S
C2262 H2246 0.931 . S
C2262 C2256 1.383 . S
C2262 C2261 1.379 . S
H2263 C2257 0.959 . S
H2264 C2257 0.961 . S
H2265 C2257 0.960 . S
H2266 C2258 0.930 . S
H2267 C2259 0.929 . S
H2268 C2276 0.929 . S
H2269 C2278 0.930 . S
H2270 C2280 0.930 . S
H2271 C2283 0.929 . S
H2272 C2286 0.930 . S
H2273 C2288 0.960 . S
H2274 C2288 0.960 . S
H2275 C2288 0.960 . S
C2276 H2268 0.929 . S
C2276 C2277 1.377 . S
C2276 C2278 1.384 . S
C2277 C2276 1.377 . S
C2277 C2283 1.390 . S
C2278 H2269 0.930 . S
C2278 C2276 1.384 . S
C2278 C2279 1.372 . S
C2279 C2278 1.372 . S
C2279 C2280 1.400 . S
C2279 C2284 1.490 . S
C2280 H2270 0.930 . S
C2280 C2279 1.400 . S
C2280 C2283 1.386 . S
H2281 C2297 0.930 . S
H2282 C2298 0.931 . S
C2283 H2271 0.929 . S
C2283 C2277 1.390 . S
C2283 C2280 1.386 . S
C2284 C2279 1.490 . S
C2284 C2286 1.395 . S
C2284 C2287 1.403 . S
H2285 C2291 0.930 . S
C2286 H2272 0.930 . S
C2286 C2284 1.395 . S
C2286 C2289 1.403 . S
C2287 C2284 1.403 . S
C2287 C2288 1.524 . S
C2287 C2291 1.400 . S
C2288 H2273 0.960 . S
C2288 H2274 0.960 . S
C2288 H2275 0.960 . S
C2288 C2287 1.524 . S
C2289 C2286 1.403 . S
C2289 C2290 1.392 . S
C2289 C2293 1.495 . S
C2290 C2289 1.392 . S
C2290 C2291 1.385 . S
C2290 C2292 1.478 . S
C2291 H2285 0.930 . S
C2291 C2287 1.400 . S
C2291 C2290 1.385 . S
C2292 C2290 1.478 . S
C2292 C2294 1.381 . S
C2292 C2298 1.383 . S
C2293 C2289 1.495 . S
C2293 H2299 0.959 . S
C2293 H2300 0.961 . S
C2293 H2301 0.960 . S
C2294 C2292 1.381 . S
C2294 C2295 1.394 . S
C2294 H2302 0.930 . S
C2295 C2294 1.394 . S
C2295 C2296 1.383 . S
C2295 H2303 0.929 . S
C2296 C2295 1.383 . S
C2296 C2297 1.377 . S
C2297 H2281 0.930 . S
C2297 C2296 1.377 . S
C2297 C2298 1.379 . S
C2298 H2282 0.931 . S
C2298 C2292 1.383 . S
C2298 C2297 1.379 . S
H2299 C2293 0.959 . S
H2300 C2293 0.961 . S
H2301 C2293 0.960 . S
H2302 C2294 0.930 . S
H2303 C2295 0.929 . S
C1017 C487 1.534 . S
C1036 C58 1.201 . S
C1053 C142 1.235 . S
C1072 C67 1.580 . S
C1089 C226 1.280 . S
C1108 C151 1.593 . S
C1125 C235 1.541 . S
C1144 C310 1.288 . S
C1161 C319 1.566 . S
C1180 C394 1.218 . S
C1197 C478 1.280 . S
C1216 C403 1.585 . S
C1233 C655 1.541 . S
C1252 C562 1.287 . S
C1269 C646 1.285 . S
C1288 C739 1.604 . S
C1305 C823 1.566 . S
C1324 C730 1.214 . S
C1341 C907 1.536 . S
C1360 C814 1.232 . S
C1377 C991 1.607 . S
C1396 C898 1.263 . S
C1413 C571 1.567 . S
C1432 C982 1.277 . S
C1449 C980 3.285 . S
C1468 C55 3.252 . S
C1485 C139 2.942 . S
C1504 C560 2.950 . S
C1521 C644 3.141 . S
C1540 C223 3.086 . S
C1557 C728 3.287 . S
C1576 C307 3.242 . S
C1593 C812 2.971 . S
C1612 C391 2.929 . S
C1629 C475 3.101 . S
C1648 C896 3.141 . S
C1665 C559 3.256 . S
C1684 C140 3.281 . S
C1701 C643 3.105 . S
C1720 C224 3.122 . S
C1737 C308 2.970 . S
C1756 C727 2.935 . S
C1773 C392 3.288 . S
C1792 C811 3.254 . S
C1809 C895 3.106 . S
C1828 C476 3.124 . S
C1845 C979 2.938 . S
C1864 C56 2.962 . S
C1881 C572 1.571 . S
C1900 C68 1.585 . S
C1917 C152 1.037 . S
C1936 C656 1.019 . S
C1953 C740 1.034 . S
C1972 C236 1.015 . S
C1989 C320 1.565 . S
C2008 C824 1.570 . S
C2025 C908 1.052 . S
C2044 C404 1.080 . S
C2061 C992 1.046 . S
C2080 C488 1.054 . S
C2097 C574 0.526 . S
C2116 C70 0.498 . S
C2133 C658 0.399 . S
C2152 C154 0.424 . S
C2169 C742 0.371 . S
C2188 C238 0.443 . S
C2205 C322 0.521 . S
C2224 C826 0.480 . S
C2241 C910 0.403 . S
C2260 C406 0.460 . S
C2277 C994 0.349 . S
C2296 C490 0.325 . S
