# Generated by pormake.
# Topology skb, (5)-cn, num edge types: 1
# Building blocks:
#     Node 0, Type 0, BuildingBlock: BEQFEK_clean_sbu_0, # of connection points: 5
#     Node 1, Type 0, BuildingBlock: BEQFEK_clean_sbu_0, # of connection points: 5
#     Node 2, Type 0, BuildingBlock: BEQFEK_clean_sbu_0, # of connection points: 5
#     Node 3, Type 0, BuildingBlock: BEQFEK_clean_sbu_0, # of connection points: 5
#     Node 4, Type 0, BuildingBlock: BEQFEK_clean_sbu_0, # of connection points: 5
#     Node 5, Type 0, BuildingBlock: BEQFEK_clean_sbu_0, # of connection points: 5
#     Node 6, Type 0, BuildingBlock: BEQFEK_clean_sbu_0, # of connection points: 5
#     Node 7, Type 0, BuildingBlock: BEQFEK_clean_sbu_0, # of connection points: 5
#     Node 8, Type 0, BuildingBlock: BEQFEK_clean_sbu_0, # of connection points: 5
#     Node 9, Type 0, BuildingBlock: BEQFEK_clean_sbu_0, # of connection points: 5
#     Node 10, Type 0, BuildingBlock: BEQFEK_clean_sbu_0, # of connection points: 5
#     Node 11, Type 0, BuildingBlock: BEQFEK_clean_sbu_0, # of connection points: 5
#     Node 12, Type 0, BuildingBlock: BEQFEK_clean_sbu_0, # of connection points: 5
#     Node 13, Type 0, BuildingBlock: BEQFEK_clean_sbu_0, # of connection points: 5
#     Node 14, Type 0, BuildingBlock: BEQFEK_clean_sbu_0, # of connection points: 5
#     Node 15, Type 0, BuildingBlock: BEQFEK_clean_sbu_0, # of connection points: 5
#     Edge 16, Type (0, 0), None
#     Edge 17, Type (0, 0), None
#     Edge 18, Type (0, 0), None
#     Edge 19, Type (0, 0), None
#     Edge 20, Type (0, 0), None
#     Edge 21, Type (0, 0), None
#     Edge 22, Type (0, 0), None
#     Edge 23, Type (0, 0), None
#     Edge 24, Type (0, 0), None
#     Edge 25, Type (0, 0), None
#     Edge 26, Type (0, 0), None
#     Edge 27, Type (0, 0), None
#     Edge 28, Type (0, 0), None
#     Edge 29, Type (0, 0), None
#     Edge 30, Type (0, 0), None
#     Edge 31, Type (0, 0), None
#     Edge 32, Type (0, 0), None
#     Edge 33, Type (0, 0), None
#     Edge 34, Type (0, 0), None
#     Edge 35, Type (0, 0), None
#     Edge 36, Type (0, 0), None
#     Edge 37, Type (0, 0), None
#     Edge 38, Type (0, 0), None
#     Edge 39, Type (0, 0), None
#     Edge 40, Type (0, 0), None
#     Edge 41, Type (0, 0), None
#     Edge 42, Type (0, 0), None
#     Edge 43, Type (0, 0), None
#     Edge 44, Type (0, 0), None
#     Edge 45, Type (0, 0), None
#     Edge 46, Type (0, 0), None
#     Edge 47, Type (0, 0), None
#     Edge 48, Type (0, 0), None
#     Edge 49, Type (0, 0), None
#     Edge 50, Type (0, 0), None
#     Edge 51, Type (0, 0), None
#     Edge 52, Type (0, 0), None
#     Edge 53, Type (0, 0), None
#     Edge 54, Type (0, 0), None
#     Edge 55, Type (0, 0), None
# Relax obj value: 0.054
# Max RMSD: 0.095
# Mean RMSD: 0.095
data_MOF--net-skb--node1-BEQFEK_clean_sbu_0--edge1-none
_symmetry_space_group_name_H-M    P1
_symmetry_Int_Tables_number       1
_symmetry_cell_setting            triclinic
loop_
_symmetry_equiv_pos_as_xyz
'x, y, z'
_cell_length_a     18.804634
_cell_length_b     14.342607
_cell_length_c     43.914339
_cell_angle_alpha  89.99999
_cell_angle_beta   89.999987
_cell_angle_gamma 90.000001
loop_
_atom_site_label
_atom_site_type_symbol
_atom_site_fract_x
_atom_site_fract_y
_atom_site_fract_z
_atom_type_partial_charge
Co0 Co 0.18321 0.08089 0.08274 0.0
Co1 Co 0.19335 0.08038 0.15364 0.0
C2 C 0.24692 0.24337 0.11739 0.0
O3 O 0.23085 0.20379 0.0923 0.0
O4 O 0.23171 0.20563 0.14281 0.0
C5 C 0.24803 0.0494 0.02413 0.0
O6 O 0.30819 0.0551 0.0392 0.0
C7 C 0.26038 0.08254 0.21442 0.0
C8 C 0.17274 0.03174 0.24349 0.0
C9 C 0.24245 0.0624 0.24432 0.0
N10 N 0.2038 0.0644 0.19664 0.0
N11 N 0.1515 0.03443 0.21423 0.0
C12 C 0.32864 0.12382 0.20323 0.0
H13 H 0.32893 0.12873 0.17803 0.0
H14 H 0.37424 0.08063 0.21082 0.0
H15 H 0.33541 0.1944 0.21319 0.0
C16 C 0.233 0.89231 0.09365 0.0
N17 N 0.22733 0.98121 0.1028 0.0
N18 N 0.24359 0.98702 0.13183 0.0
C19 C 0.26742 0.90345 0.14133 0.0
C20 C 0.25984 0.83977 0.11759 0.0
C21 C 0.19758 0.85636 0.06541 0.0
H22 H 0.14919 0.89796 0.06047 0.0
H23 H 0.23426 0.86376 0.04581 0.0
H24 H 0.18221 0.78204 0.06781 0.0
O25 O 0.08265 0.06901 0.09398 0.0
O26 O 0.08865 0.05858 0.14447 0.0
H27 H 0.26145 0.88324 0.18965 0.0
H28 H 0.336 0.8249 0.17137 0.0
C29 C 0.30234 0.88834 0.17153 0.0
H30 H 0.33682 0.94867 0.17682 0.0
H31 H 0.10121 0.01573 0.20626 0.0
O32 O 0.18939 0.05989 0.03809 0.0
C33 C 0.05351 0.053 0.11963 0.0
Co34 Co 0.84824 0.99671 0.08274 0.0
Co35 Co 0.8381 0.99722 0.15364 0.0
C36 C 0.78453 0.83423 0.11739 0.0
O37 O 0.80059 0.87381 0.0923 0.0
O38 O 0.79973 0.87197 0.14281 0.0
C39 C 0.78341 0.02819 0.02413 0.0
O40 O 0.72326 0.0225 0.0392 0.0
C41 C 0.77107 0.99505 0.21442 0.0
C42 C 0.85871 0.04586 0.24349 0.0
C43 C 0.789 0.0152 0.24432 0.0
N44 N 0.82764 0.0132 0.19664 0.0
N45 N 0.87994 0.04316 0.21423 0.0
C46 C 0.70281 0.95378 0.20323 0.0
H47 H 0.70252 0.94887 0.17803 0.0
H48 H 0.65721 0.99697 0.21082 0.0
H49 H 0.69604 0.8832 0.21319 0.0
C50 C 0.79845 0.18529 0.09365 0.0
N51 N 0.80412 0.09639 0.1028 0.0
N52 N 0.78786 0.09058 0.13183 0.0
C53 C 0.76403 0.17415 0.14133 0.0
C54 C 0.77161 0.23783 0.11759 0.0
C55 C 0.83387 0.22124 0.06541 0.0
H56 H 0.88226 0.17964 0.06047 0.0
H57 H 0.79719 0.21384 0.04581 0.0
H58 H 0.84923 0.29556 0.06781 0.0
O59 O 0.9488 0.00859 0.09398 0.0
O60 O 0.9428 0.01902 0.14447 0.0
H61 H 0.77 0.19436 0.18965 0.0
H62 H 0.69545 0.2527 0.17137 0.0
C63 C 0.72911 0.18926 0.17153 0.0
H64 H 0.69463 0.12893 0.17682 0.0
H65 H 0.93024 0.06187 0.20626 0.0
O66 O 0.84206 0.01771 0.03809 0.0
C67 C 0.97794 0.02459 0.11963 0.0
Co68 Co 0.18321 0.99671 0.93285 0.0
Co69 Co 0.19335 0.99722 0.86195 0.0
C70 C 0.24692 0.83423 0.8982 0.0
O71 O 0.23085 0.87381 0.92329 0.0
O72 O 0.23171 0.87197 0.87278 0.0
C73 C 0.24803 0.02819 0.99146 0.0
O74 O 0.30819 0.0225 0.97639 0.0
C75 C 0.26038 0.99505 0.80117 0.0
C76 C 0.17274 0.04586 0.7721 0.0
C77 C 0.24245 0.0152 0.77127 0.0
N78 N 0.2038 0.0132 0.81895 0.0
N79 N 0.1515 0.04317 0.80137 0.0
C80 C 0.32864 0.95378 0.81236 0.0
H81 H 0.32893 0.94886 0.83756 0.0
H82 H 0.37424 0.99697 0.80477 0.0
H83 H 0.33541 0.8832 0.8024 0.0
C84 C 0.233 0.18529 0.92194 0.0
N85 N 0.22733 0.09639 0.91279 0.0
N86 N 0.24359 0.09058 0.88376 0.0
C87 C 0.26742 0.17415 0.87426 0.0
C88 C 0.25984 0.23783 0.898 0.0
C89 C 0.19758 0.22124 0.95018 0.0
H90 H 0.14919 0.17964 0.95512 0.0
H91 H 0.23426 0.21384 0.96978 0.0
H92 H 0.18221 0.29556 0.94778 0.0
O93 O 0.08265 0.00859 0.92161 0.0
O94 O 0.08865 0.01902 0.87112 0.0
H95 H 0.26145 0.19436 0.82594 0.0
H96 H 0.336 0.2527 0.84422 0.0
C97 C 0.30234 0.18926 0.84406 0.0
H98 H 0.33682 0.12893 0.83877 0.0
H99 H 0.10121 0.06187 0.80934 0.0
O100 O 0.18938 0.01771 0.9775 0.0
C101 C 0.05351 0.0246 0.89596 0.0
Co102 Co 0.84824 0.08089 0.93285 0.0
Co103 Co 0.8381 0.08038 0.86195 0.0
C104 C 0.78453 0.24337 0.8982 0.0
O105 O 0.80059 0.20379 0.92329 0.0
O106 O 0.79973 0.20563 0.87278 0.0
C107 C 0.78341 0.0494 0.99146 0.0
O108 O 0.72326 0.0551 0.97639 0.0
C109 C 0.77107 0.08254 0.80117 0.0
C110 C 0.85871 0.03174 0.7721 0.0
C111 C 0.789 0.0624 0.77127 0.0
N112 N 0.82764 0.0644 0.81895 0.0
N113 N 0.87994 0.03443 0.80137 0.0
C114 C 0.70281 0.12382 0.81236 0.0
H115 H 0.70252 0.12873 0.83756 0.0
H116 H 0.65721 0.08063 0.80477 0.0
H117 H 0.69604 0.1944 0.8024 0.0
C118 C 0.79845 0.89231 0.92194 0.0
N119 N 0.80412 0.98121 0.91279 0.0
N120 N 0.78786 0.98702 0.88376 0.0
C121 C 0.76403 0.90345 0.87426 0.0
C122 C 0.77161 0.83977 0.898 0.0
C123 C 0.83386 0.85636 0.95018 0.0
H124 H 0.88226 0.89796 0.95512 0.0
H125 H 0.79719 0.86376 0.96978 0.0
H126 H 0.84923 0.78204 0.94778 0.0
O127 O 0.9488 0.06901 0.92161 0.0
O128 O 0.9428 0.05858 0.87112 0.0
H129 H 0.77 0.88324 0.82594 0.0
H130 H 0.69545 0.8249 0.84422 0.0
C131 C 0.72911 0.88834 0.84406 0.0
H132 H 0.69463 0.94867 0.83877 0.0
H133 H 0.93024 0.01573 0.80934 0.0
O134 O 0.84206 0.05989 0.9775 0.0
C135 C 0.97794 0.05301 0.89596 0.0
Co136 Co 0.18321 0.58089 0.58274 0.0
Co137 Co 0.19335 0.58038 0.65364 0.0
C138 C 0.24692 0.74337 0.61739 0.0
O139 O 0.23085 0.70379 0.5923 0.0
O140 O 0.23171 0.70563 0.64281 0.0
C141 C 0.24803 0.5494 0.52413 0.0
O142 O 0.30819 0.5551 0.5392 0.0
C143 C 0.26038 0.58255 0.71442 0.0
C144 C 0.17274 0.53174 0.74349 0.0
C145 C 0.24245 0.5624 0.74432 0.0
N146 N 0.2038 0.5644 0.69664 0.0
N147 N 0.1515 0.53443 0.71423 0.0
C148 C 0.32864 0.62382 0.70323 0.0
H149 H 0.32893 0.62874 0.67803 0.0
H150 H 0.37424 0.58063 0.71082 0.0
H151 H 0.33541 0.6944 0.71319 0.0
C152 C 0.233 0.39231 0.59365 0.0
N153 N 0.22733 0.48121 0.6028 0.0
N154 N 0.24359 0.48702 0.63183 0.0
C155 C 0.26742 0.40345 0.64133 0.0
C156 C 0.25984 0.33977 0.61759 0.0
C157 C 0.19758 0.35636 0.56541 0.0
H158 H 0.14919 0.39796 0.56047 0.0
H159 H 0.23426 0.36376 0.54581 0.0
H160 H 0.18221 0.28204 0.56781 0.0
O161 O 0.08265 0.56901 0.59398 0.0
O162 O 0.08865 0.55858 0.64447 0.0
H163 H 0.26145 0.38324 0.68965 0.0
H164 H 0.336 0.3249 0.67137 0.0
C165 C 0.30234 0.38834 0.67153 0.0
H166 H 0.33682 0.44867 0.67682 0.0
H167 H 0.10121 0.51573 0.70626 0.0
O168 O 0.18938 0.55989 0.53809 0.0
C169 C 0.05351 0.553 0.61963 0.0
Co170 Co 0.84824 0.49671 0.58274 0.0
Co171 Co 0.8381 0.49722 0.65364 0.0
C172 C 0.78453 0.33423 0.61739 0.0
O173 O 0.80059 0.37381 0.5923 0.0
O174 O 0.79973 0.37197 0.64281 0.0
C175 C 0.78341 0.52819 0.52413 0.0
O176 O 0.72326 0.5225 0.5392 0.0
C177 C 0.77107 0.49505 0.71442 0.0
C178 C 0.85871 0.54586 0.74349 0.0
C179 C 0.789 0.5152 0.74432 0.0
N180 N 0.82764 0.5132 0.69664 0.0
N181 N 0.87994 0.54316 0.71423 0.0
C182 C 0.70281 0.45378 0.70323 0.0
H183 H 0.70252 0.44886 0.67803 0.0
H184 H 0.65721 0.49697 0.71082 0.0
H185 H 0.69604 0.3832 0.71319 0.0
C186 C 0.79845 0.68529 0.59365 0.0
N187 N 0.80412 0.59639 0.6028 0.0
N188 N 0.78786 0.59058 0.63183 0.0
C189 C 0.76403 0.67415 0.64133 0.0
C190 C 0.77161 0.73783 0.61759 0.0
C191 C 0.83387 0.72124 0.56541 0.0
H192 H 0.88226 0.67964 0.56047 0.0
H193 H 0.79719 0.71384 0.54581 0.0
H194 H 0.84923 0.79555 0.56781 0.0
O195 O 0.9488 0.50859 0.59398 0.0
O196 O 0.9428 0.51902 0.64447 0.0
H197 H 0.77 0.69436 0.68965 0.0
H198 H 0.69545 0.7527 0.67137 0.0
C199 C 0.72911 0.68926 0.67153 0.0
H200 H 0.69463 0.62893 0.67682 0.0
H201 H 0.93024 0.56187 0.70626 0.0
O202 O 0.84206 0.51771 0.53809 0.0
C203 C 0.97794 0.52459 0.61963 0.0
Co204 Co 0.18321 0.49671 0.43285 0.0
Co205 Co 0.19335 0.49722 0.36195 0.0
C206 C 0.24692 0.33423 0.3982 0.0
O207 O 0.23085 0.37381 0.42329 0.0
O208 O 0.23171 0.37197 0.37278 0.0
C209 C 0.24803 0.52819 0.49146 0.0
O210 O 0.30819 0.5225 0.47639 0.0
C211 C 0.26038 0.49505 0.30117 0.0
C212 C 0.17274 0.54586 0.2721 0.0
C213 C 0.24245 0.5152 0.27127 0.0
N214 N 0.2038 0.5132 0.31895 0.0
N215 N 0.1515 0.54317 0.30137 0.0
C216 C 0.32864 0.45378 0.31236 0.0
H217 H 0.32893 0.44886 0.33756 0.0
H218 H 0.37424 0.49697 0.30477 0.0
H219 H 0.33541 0.3832 0.3024 0.0
C220 C 0.233 0.68529 0.42194 0.0
N221 N 0.22733 0.59639 0.41279 0.0
N222 N 0.24359 0.59058 0.38376 0.0
C223 C 0.26742 0.67415 0.37426 0.0
C224 C 0.25984 0.73783 0.398 0.0
C225 C 0.19758 0.72124 0.45018 0.0
H226 H 0.14919 0.67964 0.45512 0.0
H227 H 0.23426 0.71384 0.46978 0.0
H228 H 0.18221 0.79556 0.44778 0.0
O229 O 0.08265 0.50859 0.42161 0.0
O230 O 0.08865 0.51902 0.37112 0.0
H231 H 0.26145 0.69436 0.32594 0.0
H232 H 0.336 0.7527 0.34422 0.0
C233 C 0.30234 0.68926 0.34406 0.0
H234 H 0.33682 0.62893 0.33877 0.0
H235 H 0.10121 0.56187 0.30934 0.0
O236 O 0.18938 0.51771 0.4775 0.0
C237 C 0.05351 0.5246 0.39596 0.0
Co238 Co 0.84824 0.58089 0.43285 0.0
Co239 Co 0.8381 0.58038 0.36195 0.0
C240 C 0.78453 0.74337 0.3982 0.0
O241 O 0.80059 0.70379 0.42329 0.0
O242 O 0.79973 0.70563 0.37278 0.0
C243 C 0.78341 0.5494 0.49146 0.0
O244 O 0.72326 0.5551 0.47639 0.0
C245 C 0.77107 0.58255 0.30117 0.0
C246 C 0.85871 0.53174 0.2721 0.0
C247 C 0.789 0.5624 0.27127 0.0
N248 N 0.82764 0.5644 0.31895 0.0
N249 N 0.87994 0.53444 0.30137 0.0
C250 C 0.70281 0.62382 0.31236 0.0
H251 H 0.70252 0.62874 0.33756 0.0
H252 H 0.65721 0.58063 0.30477 0.0
H253 H 0.69604 0.6944 0.3024 0.0
C254 C 0.79845 0.39231 0.42194 0.0
N255 N 0.80412 0.48121 0.41279 0.0
N256 N 0.78786 0.48702 0.38376 0.0
C257 C 0.76403 0.40345 0.37426 0.0
C258 C 0.77161 0.33977 0.398 0.0
C259 C 0.83386 0.35636 0.45018 0.0
H260 H 0.88226 0.39796 0.45512 0.0
H261 H 0.79719 0.36376 0.46978 0.0
H262 H 0.84923 0.28204 0.44778 0.0
O263 O 0.9488 0.56901 0.42161 0.0
O264 O 0.9428 0.55858 0.37112 0.0
H265 H 0.77 0.38324 0.32594 0.0
H266 H 0.69545 0.3249 0.34422 0.0
C267 C 0.72911 0.38834 0.34406 0.0
H268 H 0.69463 0.44867 0.33877 0.0
H269 H 0.93024 0.51573 0.30934 0.0
O270 O 0.84206 0.55989 0.4775 0.0
C271 C 0.97794 0.55301 0.39596 0.0
Co272 Co 0.6832 0.08088 0.58275 0.0
Co273 Co 0.69336 0.08035 0.65364 0.0
C274 C 0.74694 0.24334 0.61739 0.0
O275 O 0.73086 0.20377 0.5923 0.0
O276 O 0.73173 0.2056 0.64281 0.0
C277 C 0.74802 0.0494 0.52413 0.0
O278 O 0.80817 0.05509 0.5392 0.0
C279 C 0.76044 0.08247 0.71441 0.0
C280 C 0.67281 0.03174 0.7435 0.0
C281 C 0.74255 0.0623 0.74431 0.0
N282 N 0.70384 0.06436 0.69663 0.0
N283 N 0.65155 0.03444 0.71423 0.0
C284 C 0.82869 0.12374 0.70321 0.0
H285 H 0.82898 0.12861 0.678 0.0
H286 H 0.8743 0.08059 0.7108 0.0
H287 H 0.83545 0.19435 0.71315 0.0
C288 C 0.7329 0.89227 0.59365 0.0
N289 N 0.7273 0.98118 0.60279 0.0
N290 N 0.74359 0.98698 0.63183 0.0
C291 C 0.76736 0.90339 0.64133 0.0
C292 C 0.75969 0.8397 0.61759 0.0
C293 C 0.69745 0.85636 0.56541 0.0
H294 H 0.64907 0.89798 0.56048 0.0
H295 H 0.73411 0.86377 0.54581 0.0
H296 H 0.68207 0.78204 0.56781 0.0
O297 O 0.58265 0.06902 0.59399 0.0
O298 O 0.58865 0.05856 0.64447 0.0
H299 H 0.76144 0.88315 0.68965 0.0
H300 H 0.83596 0.82481 0.67135 0.0
C301 C 0.80231 0.88825 0.67152 0.0
H302 H 0.8368 0.94858 0.6768 0.0
H303 H 0.60123 0.01579 0.70628 0.0
O304 O 0.68937 0.05988 0.53809 0.0
C305 C 0.55351 0.053 0.61963 0.0
Co306 Co 0.34825 0.99672 0.58275 0.0
Co307 Co 0.33809 0.99725 0.65364 0.0
C308 C 0.28451 0.83426 0.61739 0.0
O309 O 0.30058 0.87383 0.5923 0.0
O310 O 0.29972 0.872 0.64281 0.0
C311 C 0.28343 0.0282 0.52413 0.0
O312 O 0.22328 0.02251 0.5392 0.0
C313 C 0.27101 0.99513 0.71441 0.0
C314 C 0.35864 0.04586 0.7435 0.0
C315 C 0.2889 0.0153 0.74431 0.0
N316 N 0.32761 0.01324 0.69663 0.0
N317 N 0.3799 0.04316 0.71423 0.0
C318 C 0.20276 0.95386 0.70321 0.0
H319 H 0.20247 0.94899 0.678 0.0
H320 H 0.15715 0.99701 0.7108 0.0
H321 H 0.196 0.88325 0.71315 0.0
C322 C 0.29855 0.18533 0.59365 0.0
N323 N 0.30414 0.09642 0.60279 0.0
N324 N 0.28786 0.09062 0.63183 0.0
C325 C 0.26409 0.17421 0.64133 0.0
C326 C 0.27176 0.2379 0.61759 0.0
C327 C 0.334 0.22124 0.56541 0.0
H328 H 0.38238 0.17962 0.56048 0.0
H329 H 0.29734 0.21383 0.54581 0.0
H330 H 0.34938 0.29556 0.56781 0.0
O331 O 0.4488 0.00858 0.59399 0.0
O332 O 0.44279 0.01903 0.64447 0.0
H333 H 0.27001 0.19445 0.68965 0.0
H334 H 0.19549 0.25279 0.67135 0.0
C335 C 0.22914 0.18935 0.67152 0.0
H336 H 0.19465 0.12902 0.6768 0.0
H337 H 0.43022 0.0618 0.70628 0.0
O338 O 0.34208 0.01771 0.53809 0.0
C339 C 0.47794 0.02459 0.61963 0.0
Co340 Co 0.6832 0.99672 0.43285 0.0
Co341 Co 0.69336 0.99725 0.36195 0.0
C342 C 0.74694 0.83426 0.3982 0.0
O343 O 0.73086 0.87383 0.42329 0.0
O344 O 0.73173 0.872 0.37278 0.0
C345 C 0.74802 0.0282 0.49146 0.0
O346 O 0.80817 0.02251 0.47639 0.0
C347 C 0.76044 0.99513 0.30118 0.0
C348 C 0.67281 0.04586 0.27209 0.0
C349 C 0.74255 0.0153 0.27128 0.0
N350 N 0.70384 0.01324 0.31896 0.0
N351 N 0.65155 0.04316 0.30136 0.0
C352 C 0.82869 0.95386 0.31238 0.0
H353 H 0.82898 0.94899 0.33759 0.0
H354 H 0.8743 0.99701 0.30479 0.0
H355 H 0.83545 0.88325 0.30244 0.0
C356 C 0.7329 0.18532 0.42194 0.0
N357 N 0.7273 0.09642 0.4128 0.0
N358 N 0.74359 0.09062 0.38376 0.0
C359 C 0.76736 0.17421 0.37426 0.0
C360 C 0.75969 0.23789 0.398 0.0
C361 C 0.69745 0.22124 0.45018 0.0
H362 H 0.64907 0.17962 0.45511 0.0
H363 H 0.73411 0.21383 0.46978 0.0
H364 H 0.68207 0.29556 0.44778 0.0
O365 O 0.58265 0.00858 0.4216 0.0
O366 O 0.58865 0.01904 0.37112 0.0
H367 H 0.76144 0.19445 0.32594 0.0
H368 H 0.83596 0.25279 0.34424 0.0
C369 C 0.80231 0.18935 0.34407 0.0
H370 H 0.8368 0.12902 0.33879 0.0
H371 H 0.60123 0.0618 0.30932 0.0
O372 O 0.68937 0.01771 0.4775 0.0
C373 C 0.55351 0.0246 0.39596 0.0
Co374 Co 0.34825 0.08088 0.43285 0.0
Co375 Co 0.33809 0.08035 0.36195 0.0
C376 C 0.28451 0.24334 0.3982 0.0
O377 O 0.30058 0.20377 0.42329 0.0
O378 O 0.29971 0.2056 0.37278 0.0
C379 C 0.28343 0.0494 0.49146 0.0
O380 O 0.22328 0.05509 0.47639 0.0
C381 C 0.27101 0.08247 0.30118 0.0
C382 C 0.35864 0.03174 0.27209 0.0
C383 C 0.2889 0.0623 0.27128 0.0
N384 N 0.32761 0.06436 0.31896 0.0
N385 N 0.3799 0.03444 0.30136 0.0
C386 C 0.20276 0.12374 0.31238 0.0
H387 H 0.20247 0.12861 0.33759 0.0
H388 H 0.15715 0.08059 0.30479 0.0
H389 H 0.196 0.19435 0.30244 0.0
C390 C 0.29855 0.89227 0.42194 0.0
N391 N 0.30414 0.98118 0.4128 0.0
N392 N 0.28786 0.98698 0.38376 0.0
C393 C 0.26409 0.90339 0.37426 0.0
C394 C 0.27176 0.8397 0.398 0.0
C395 C 0.334 0.85636 0.45018 0.0
H396 H 0.38238 0.89798 0.45511 0.0
H397 H 0.29734 0.86377 0.46978 0.0
H398 H 0.34938 0.78204 0.44778 0.0
O399 O 0.4488 0.06902 0.4216 0.0
O400 O 0.44279 0.05857 0.37112 0.0
H401 H 0.27001 0.88315 0.32594 0.0
H402 H 0.19549 0.82481 0.34424 0.0
C403 C 0.22914 0.88825 0.34407 0.0
H404 H 0.19465 0.94858 0.33879 0.0
H405 H 0.43022 0.0158 0.30932 0.0
O406 O 0.34208 0.05988 0.4775 0.0
C407 C 0.47794 0.05301 0.39596 0.0
Co408 Co 0.6832 0.58088 0.08275 0.0
Co409 Co 0.69336 0.58035 0.15364 0.0
C410 C 0.74694 0.74334 0.11739 0.0
O411 O 0.73086 0.70377 0.0923 0.0
O412 O 0.73173 0.7056 0.14281 0.0
C413 C 0.74802 0.5494 0.02413 0.0
O414 O 0.80817 0.55509 0.0392 0.0
C415 C 0.76044 0.58247 0.21441 0.0
C416 C 0.67281 0.53174 0.2435 0.0
C417 C 0.74255 0.5623 0.24431 0.0
N418 N 0.70384 0.56436 0.19663 0.0
N419 N 0.65155 0.53444 0.21423 0.0
C420 C 0.82869 0.62374 0.20321 0.0
H421 H 0.82898 0.62861 0.178 0.0
H422 H 0.8743 0.58059 0.2108 0.0
H423 H 0.83545 0.69435 0.21315 0.0
C424 C 0.7329 0.39228 0.09365 0.0
N425 N 0.7273 0.48118 0.10279 0.0
N426 N 0.74359 0.48699 0.13183 0.0
C427 C 0.76736 0.40339 0.14133 0.0
C428 C 0.75969 0.33971 0.11759 0.0
C429 C 0.69745 0.35636 0.06541 0.0
H430 H 0.64907 0.39798 0.06048 0.0
H431 H 0.73411 0.36377 0.04581 0.0
H432 H 0.68207 0.28204 0.06781 0.0
O433 O 0.58265 0.56902 0.09399 0.0
O434 O 0.58865 0.55856 0.14447 0.0
H435 H 0.76144 0.38315 0.18965 0.0
H436 H 0.83596 0.32481 0.17135 0.0
C437 C 0.80231 0.38826 0.17152 0.0
H438 H 0.8368 0.44858 0.1768 0.0
H439 H 0.60123 0.51579 0.20628 0.0
O440 O 0.68937 0.55989 0.03809 0.0
C441 C 0.55351 0.553 0.11963 0.0
Co442 Co 0.34825 0.49672 0.08275 0.0
Co443 Co 0.33809 0.49725 0.15364 0.0
C444 C 0.28451 0.33426 0.11739 0.0
O445 O 0.30058 0.37383 0.0923 0.0
O446 O 0.29972 0.372 0.14281 0.0
C447 C 0.28343 0.5282 0.02413 0.0
O448 O 0.22328 0.52251 0.0392 0.0
C449 C 0.27101 0.49513 0.21441 0.0
C450 C 0.35864 0.54586 0.2435 0.0
C451 C 0.2889 0.5153 0.24431 0.0
N452 N 0.32761 0.51324 0.19663 0.0
N453 N 0.3799 0.54316 0.21423 0.0
C454 C 0.20276 0.45386 0.20321 0.0
H455 H 0.20247 0.44899 0.178 0.0
H456 H 0.15715 0.49701 0.2108 0.0
H457 H 0.196 0.38325 0.21315 0.0
C458 C 0.29855 0.68532 0.09365 0.0
N459 N 0.30414 0.59642 0.10279 0.0
N460 N 0.28786 0.59061 0.13183 0.0
C461 C 0.26409 0.67421 0.14133 0.0
C462 C 0.27176 0.73789 0.11759 0.0
C463 C 0.334 0.72124 0.06541 0.0
H464 H 0.38238 0.67962 0.06048 0.0
H465 H 0.29734 0.71383 0.04581 0.0
H466 H 0.34938 0.79556 0.06781 0.0
O467 O 0.4488 0.50858 0.09399 0.0
O468 O 0.44279 0.51903 0.14447 0.0
H469 H 0.27001 0.69445 0.18965 0.0
H470 H 0.19549 0.75279 0.17135 0.0
C471 C 0.22914 0.68935 0.17152 0.0
H472 H 0.19465 0.62902 0.1768 0.0
H473 H 0.43022 0.5618 0.20628 0.0
O474 O 0.34208 0.51771 0.03809 0.0
C475 C 0.47794 0.52459 0.11963 0.0
Co476 Co 0.6832 0.49672 0.93285 0.0
Co477 Co 0.69336 0.49725 0.86195 0.0
C478 C 0.74693 0.33426 0.8982 0.0
O479 O 0.73086 0.37383 0.92329 0.0
O480 O 0.73173 0.372 0.87278 0.0
C481 C 0.74802 0.5282 0.99146 0.0
O482 O 0.80817 0.52251 0.97639 0.0
C483 C 0.76044 0.49513 0.80118 0.0
C484 C 0.67281 0.54586 0.77209 0.0
C485 C 0.74255 0.5153 0.77128 0.0
N486 N 0.70384 0.51324 0.81896 0.0
N487 N 0.65155 0.54316 0.80136 0.0
C488 C 0.82869 0.45386 0.81238 0.0
H489 H 0.82898 0.44899 0.83759 0.0
H490 H 0.8743 0.49701 0.80479 0.0
H491 H 0.83545 0.38325 0.80244 0.0
C492 C 0.7329 0.68532 0.92194 0.0
N493 N 0.7273 0.59642 0.9128 0.0
N494 N 0.74359 0.59061 0.88376 0.0
C495 C 0.76736 0.67421 0.87426 0.0
C496 C 0.75969 0.73789 0.898 0.0
C497 C 0.69745 0.72124 0.95018 0.0
H498 H 0.64907 0.67962 0.95511 0.0
H499 H 0.73411 0.71383 0.96978 0.0
H500 H 0.68207 0.79556 0.94778 0.0
O501 O 0.58265 0.50858 0.9216 0.0
O502 O 0.58865 0.51904 0.87112 0.0
H503 H 0.76144 0.69444 0.82594 0.0
H504 H 0.83596 0.75279 0.84424 0.0
C505 C 0.80231 0.68934 0.84407 0.0
H506 H 0.8368 0.62902 0.83879 0.0
H507 H 0.60123 0.5618 0.80932 0.0
O508 O 0.68937 0.51771 0.9775 0.0
C509 C 0.55351 0.5246 0.89596 0.0
Co510 Co 0.34825 0.58088 0.93285 0.0
Co511 Co 0.33809 0.58035 0.86195 0.0
C512 C 0.28451 0.74334 0.8982 0.0
O513 O 0.30058 0.70377 0.92329 0.0
O514 O 0.29972 0.7056 0.87278 0.0
C515 C 0.28343 0.5494 0.99146 0.0
O516 O 0.22328 0.55509 0.97639 0.0
C517 C 0.27101 0.58247 0.80118 0.0
C518 C 0.35864 0.53174 0.77209 0.0
C519 C 0.2889 0.5623 0.77128 0.0
N520 N 0.32761 0.56436 0.81896 0.0
N521 N 0.3799 0.53444 0.80136 0.0
C522 C 0.20276 0.62374 0.81238 0.0
H523 H 0.20247 0.62861 0.83759 0.0
H524 H 0.15715 0.58059 0.80479 0.0
H525 H 0.196 0.69435 0.80244 0.0
C526 C 0.29855 0.39228 0.92194 0.0
N527 N 0.30414 0.48118 0.9128 0.0
N528 N 0.28786 0.48698 0.88376 0.0
C529 C 0.26409 0.40339 0.87426 0.0
C530 C 0.27176 0.3397 0.898 0.0
C531 C 0.334 0.35636 0.95018 0.0
H532 H 0.38238 0.39798 0.95511 0.0
H533 H 0.29734 0.36377 0.96978 0.0
H534 H 0.34938 0.28204 0.94778 0.0
O535 O 0.4488 0.56902 0.9216 0.0
O536 O 0.44279 0.55857 0.87112 0.0
H537 H 0.27001 0.38315 0.82594 0.0
H538 H 0.19549 0.32481 0.84424 0.0
C539 C 0.22914 0.38825 0.84407 0.0
H540 H 0.19465 0.44858 0.83879 0.0
H541 H 0.43022 0.5158 0.80932 0.0
O542 O 0.34208 0.55989 0.9775 0.0
C543 C 0.47794 0.55301 0.89596 0.0
loop_
_geom_bond_atom_site_label_1
_geom_bond_atom_site_label_2
_geom_bond_distance
_geom_bond_site_symmetry_2
_ccdc_geom_bond_type
Co0 O3 1.970 . S
Co0 N17 1.989 1_545 S
Co0 O25 1.967 . S
Co0 O32 1.920 . S
Co1 O4 1.966 . S
Co1 N10 2.022 . S
Co1 N18 1.993 1_545 S
Co1 O26 1.941 . S
C2 O3 1.258 . S
C2 O4 1.263 . S
O3 Co0 1.970 . S
O3 C2 1.258 . S
O4 Co1 1.966 . S
O4 C2 1.263 . S
C5 O6 1.235 . S
C5 O32 1.289 . S
O6 C5 1.235 . S
C7 C9 1.400 . S
C7 N10 1.351 . S
C7 C12 1.501 . S
C8 C9 1.387 1_565 S
C8 N11 1.341 . S
C9 C7 1.400 . S
C9 C8 1.387 1_545 S
N10 Co1 2.022 . S
N10 C7 1.351 . S
N10 N11 1.365 1_545 S
N11 C8 1.341 . S
N11 N10 1.365 1_565 S
N11 H31 0.862 . S
C12 C7 1.501 . S
C12 H13 0.961 . S
C12 H14 0.961 . S
C12 H15 0.960 . S
H13 C12 0.961 . S
H14 C12 0.961 . S
H15 C12 0.960 . S
C16 N17 1.342 . S
C16 C20 1.401 . S
C16 C21 1.499 . S
N17 Co0 1.989 1_565 S
N17 C16 1.342 . S
N17 N18 1.388 . S
N18 Co1 1.993 1_565 S
N18 N17 1.388 . S
N18 C19 1.346 . S
C19 N18 1.346 . S
C19 C20 1.396 . S
C19 C29 1.510 . S
C20 C16 1.401 . S
C20 C19 1.396 . S
C21 C16 1.499 . S
C21 H22 0.959 . S
C21 H23 0.960 . S
C21 H24 0.961 . S
H22 C21 0.959 . S
H23 C21 0.960 . S
H24 C21 0.961 . S
O25 Co0 1.967 . S
O25 C33 1.258 . S
O26 Co1 1.941 . S
O26 C33 1.266 . S
H27 C29 0.959 . S
H28 C29 0.961 . S
C29 C19 1.510 . S
C29 H27 0.959 . S
C29 H28 0.961 . S
C29 H30 0.960 . S
H30 C29 0.960 . S
H31 N11 0.862 . S
O32 Co0 1.920 . S
O32 C5 1.289 . S
C33 O25 1.258 . S
C33 O26 1.266 . S
Co34 O37 1.970 1_545 S
Co34 N51 1.989 . S
Co34 O59 1.967 1_545 S
Co34 O66 1.920 . S
Co35 O38 1.966 1_545 S
Co35 N44 2.022 . S
Co35 N52 1.993 . S
Co35 O60 1.941 1_545 S
C36 O37 1.258 . S
C36 O38 1.263 . S
O37 Co34 1.970 1_565 S
O37 C36 1.258 . S
O38 Co35 1.966 1_565 S
O38 C36 1.263 . S
C39 O40 1.235 . S
C39 O66 1.289 . S
O40 C39 1.235 . S
C41 C43 1.400 1_565 S
C41 N44 1.351 1_565 S
C41 C46 1.501 . S
C42 C43 1.387 . S
C42 N45 1.341 . S
C43 C41 1.400 1_545 S
C43 C42 1.387 . S
N44 Co35 2.022 . S
N44 C41 1.351 1_545 S
N44 N45 1.365 . S
N45 C42 1.341 . S
N45 N44 1.365 . S
N45 H65 0.862 . S
C46 C41 1.501 . S
C46 H47 0.961 . S
C46 H48 0.961 . S
C46 H49 0.960 . S
H47 C46 0.961 . S
H48 C46 0.961 . S
H49 C46 0.960 . S
C50 N51 1.342 . S
C50 C54 1.401 . S
C50 C55 1.499 . S
N51 Co34 1.989 . S
N51 C50 1.342 . S
N51 N52 1.388 . S
N52 Co35 1.993 . S
N52 N51 1.388 . S
N52 C53 1.346 . S
C53 N52 1.346 . S
C53 C54 1.396 . S
C53 C63 1.510 . S
C54 C50 1.401 . S
C54 C53 1.396 . S
C55 C50 1.499 . S
C55 H56 0.959 . S
C55 H57 0.960 . S
C55 H58 0.961 . S
H56 C55 0.959 . S
H57 C55 0.960 . S
H58 C55 0.961 . S
O59 Co34 1.967 1_565 S
O59 C67 1.258 . S
O60 Co35 1.941 1_565 S
O60 C67 1.268 . S
H61 C63 0.959 . S
H62 C63 0.961 . S
C63 C53 1.510 . S
C63 H61 0.959 . S
C63 H62 0.961 . S
C63 H64 0.960 . S
H64 C63 0.960 . S
H65 N45 0.862 . S
O66 Co34 1.920 . S
O66 C39 1.289 . S
C67 O59 1.258 . S
C67 O60 1.268 . S
Co68 O71 1.970 1_545 S
Co68 N85 1.989 . S
Co68 O93 1.967 1_545 S
Co68 O100 1.920 . S
Co69 O72 1.966 1_545 S
Co69 N78 2.022 . S
Co69 N86 1.993 . S
Co69 O94 1.941 1_545 S
C70 O71 1.258 . S
C70 O72 1.263 . S
O71 Co68 1.970 1_565 S
O71 C70 1.258 . S
O72 Co69 1.966 1_565 S
O72 C70 1.263 . S
C73 O74 1.235 . S
C73 O100 1.289 . S
O74 C73 1.235 . S
C75 C77 1.400 1_565 S
C75 N78 1.351 1_565 S
C75 C80 1.501 . S
C76 C77 1.387 . S
C76 N79 1.341 . S
C77 C75 1.400 1_545 S
C77 C76 1.387 . S
N78 Co69 2.022 . S
N78 C75 1.351 1_545 S
N78 N79 1.365 . S
N79 C76 1.341 . S
N79 N78 1.365 . S
N79 H99 0.862 . S
C80 C75 1.501 . S
C80 H81 0.961 . S
C80 H82 0.961 . S
C80 H83 0.960 . S
H81 C80 0.961 . S
H82 C80 0.961 . S
H83 C80 0.960 . S
C84 N85 1.342 . S
C84 C88 1.401 . S
C84 C89 1.499 . S
N85 Co68 1.989 . S
N85 C84 1.342 . S
N85 N86 1.388 . S
N86 Co69 1.993 . S
N86 N85 1.388 . S
N86 C87 1.346 . S
C87 N86 1.346 . S
C87 C88 1.396 . S
C87 C97 1.510 . S
C88 C84 1.401 . S
C88 C87 1.396 . S
C89 C84 1.499 . S
C89 H90 0.959 . S
C89 H91 0.960 . S
C89 H92 0.961 . S
H90 C89 0.959 . S
H91 C89 0.960 . S
H92 C89 0.961 . S
O93 Co68 1.967 1_565 S
O93 C101 1.258 . S
O94 Co69 1.941 1_565 S
O94 C101 1.268 . S
H95 C97 0.959 . S
H96 C97 0.961 . S
C97 C87 1.510 . S
C97 H95 0.959 . S
C97 H96 0.961 . S
C97 H98 0.960 . S
H98 C97 0.960 . S
H99 N79 0.862 . S
O100 Co68 1.920 . S
O100 C73 1.289 . S
C101 O93 1.258 . S
C101 O94 1.268 . S
Co102 O105 1.970 . S
Co102 N119 1.989 1_545 S
Co102 O127 1.967 . S
Co102 O134 1.920 . S
Co103 O106 1.966 . S
Co103 N112 2.022 . S
Co103 N120 1.993 1_545 S
Co103 O128 1.941 . S
C104 O105 1.258 . S
C104 O106 1.263 . S
O105 Co102 1.970 . S
O105 C104 1.258 . S
O106 Co103 1.966 . S
O106 C104 1.263 . S
C107 O108 1.235 . S
C107 O134 1.289 . S
O108 C107 1.235 . S
C109 C111 1.400 . S
C109 N112 1.351 . S
C109 C114 1.501 . S
C110 C111 1.387 1_565 S
C110 N113 1.341 . S
C111 C109 1.400 . S
C111 C110 1.387 1_545 S
N112 Co103 2.022 . S
N112 C109 1.351 . S
N112 N113 1.365 1_545 S
N113 C110 1.341 . S
N113 N112 1.365 1_565 S
N113 H133 0.862 . S
C114 C109 1.501 . S
C114 H115 0.961 . S
C114 H116 0.961 . S
C114 H117 0.960 . S
H115 C114 0.961 . S
H116 C114 0.961 . S
H117 C114 0.960 . S
C118 N119 1.342 . S
C118 C122 1.401 . S
C118 C123 1.499 . S
N119 Co102 1.989 1_565 S
N119 C118 1.342 . S
N119 N120 1.388 . S
N120 Co103 1.993 1_565 S
N120 N119 1.388 . S
N120 C121 1.346 . S
C121 N120 1.346 . S
C121 C122 1.396 . S
C121 C131 1.510 . S
C122 C118 1.401 . S
C122 C121 1.396 . S
C123 C118 1.499 . S
C123 H124 0.959 . S
C123 H125 0.960 . S
C123 H126 0.961 . S
H124 C123 0.959 . S
H125 C123 0.960 . S
H126 C123 0.961 . S
O127 Co102 1.967 . S
O127 C135 1.258 . S
O128 Co103 1.941 . S
O128 C135 1.266 . S
H129 C131 0.959 . S
H130 C131 0.961 . S
C131 C121 1.510 . S
C131 H129 0.959 . S
C131 H130 0.961 . S
C131 H132 0.960 . S
H132 C131 0.960 . S
H133 N113 0.862 . S
O134 Co102 1.920 . S
O134 C107 1.289 . S
C135 O127 1.258 . S
C135 O128 1.266 . S
Co136 O139 1.970 . S
Co136 N153 1.989 . S
Co136 O161 1.967 . S
Co136 O168 1.920 . S
Co137 O140 1.966 . S
Co137 N146 2.022 . S
Co137 N154 1.993 . S
Co137 O162 1.941 . S
C138 O139 1.258 . S
C138 O140 1.263 . S
O139 Co136 1.970 . S
O139 C138 1.258 . S
O140 Co137 1.966 . S
O140 C138 1.263 . S
C141 O142 1.235 . S
C141 O168 1.289 . S
O142 C141 1.235 . S
C143 C145 1.400 . S
C143 N146 1.351 . S
C143 C148 1.501 . S
C144 C145 1.387 . S
C144 N147 1.341 . S
C145 C143 1.400 . S
C145 C144 1.387 . S
N146 Co137 2.022 . S
N146 C143 1.351 . S
N146 N147 1.365 . S
N147 C144 1.341 . S
N147 N146 1.365 . S
N147 H167 0.862 . S
C148 C143 1.501 . S
C148 H149 0.961 . S
C148 H150 0.961 . S
C148 H151 0.960 . S
H149 C148 0.961 . S
H150 C148 0.961 . S
H151 C148 0.960 . S
C152 N153 1.342 . S
C152 C156 1.401 . S
C152 C157 1.499 . S
N153 Co136 1.989 . S
N153 C152 1.342 . S
N153 N154 1.388 . S
N154 Co137 1.993 . S
N154 N153 1.388 . S
N154 C155 1.346 . S
C155 N154 1.346 . S
C155 C156 1.396 . S
C155 C165 1.510 . S
C156 C152 1.401 . S
C156 C155 1.396 . S
C157 C152 1.499 . S
C157 H158 0.959 . S
C157 H159 0.960 . S
C157 H160 0.961 . S
H158 C157 0.959 . S
H159 C157 0.960 . S
H160 C157 0.961 . S
O161 Co136 1.967 . S
O161 C169 1.258 . S
O162 Co137 1.941 . S
O162 C169 1.266 . S
H163 C165 0.959 . S
H164 C165 0.961 . S
C165 C155 1.510 . S
C165 H163 0.959 . S
C165 H164 0.961 . S
C165 H166 0.960 . S
H166 C165 0.960 . S
H167 N147 0.862 . S
O168 Co136 1.920 . S
O168 C141 1.289 . S
C169 O161 1.258 . S
C169 O162 1.266 . S
Co170 O173 1.970 . S
Co170 N187 1.989 . S
Co170 O195 1.967 . S
Co170 O202 1.920 . S
Co171 O174 1.966 . S
Co171 N180 2.022 . S
Co171 N188 1.993 . S
Co171 O196 1.941 . S
C172 O173 1.258 . S
C172 O174 1.263 . S
O173 Co170 1.970 . S
O173 C172 1.258 . S
O174 Co171 1.966 . S
O174 C172 1.263 . S
C175 O176 1.235 . S
C175 O202 1.289 . S
O176 C175 1.235 . S
C177 C179 1.400 . S
C177 N180 1.351 . S
C177 C182 1.501 . S
C178 C179 1.387 . S
C178 N181 1.341 . S
C179 C177 1.400 . S
C179 C178 1.387 . S
N180 Co171 2.022 . S
N180 C177 1.351 . S
N180 N181 1.365 . S
N181 C178 1.341 . S
N181 N180 1.365 . S
N181 H201 0.862 . S
C182 C177 1.501 . S
C182 H183 0.961 . S
C182 H184 0.961 . S
C182 H185 0.960 . S
H183 C182 0.961 . S
H184 C182 0.961 . S
H185 C182 0.960 . S
C186 N187 1.342 . S
C186 C190 1.401 . S
C186 C191 1.499 . S
N187 Co170 1.989 . S
N187 C186 1.342 . S
N187 N188 1.388 . S
N188 Co171 1.993 . S
N188 N187 1.388 . S
N188 C189 1.346 . S
C189 N188 1.346 . S
C189 C190 1.396 . S
C189 C199 1.510 . S
C190 C186 1.401 . S
C190 C189 1.396 . S
C191 C186 1.499 . S
C191 H192 0.959 . S
C191 H193 0.960 . S
C191 H194 0.961 . S
H192 C191 0.959 . S
H193 C191 0.960 . S
H194 C191 0.961 . S
O195 Co170 1.967 . S
O195 C203 1.258 . S
O196 Co171 1.941 . S
O196 C203 1.266 . S
H197 C199 0.959 . S
H198 C199 0.961 . S
C199 C189 1.510 . S
C199 H197 0.959 . S
C199 H198 0.961 . S
C199 H200 0.960 . S
H200 C199 0.960 . S
H201 N181 0.862 . S
O202 Co170 1.920 . S
O202 C175 1.289 . S
C203 O195 1.258 . S
C203 O196 1.266 . S
Co204 O207 1.970 . S
Co204 N221 1.989 . S
Co204 O229 1.967 . S
Co204 O236 1.920 . S
Co205 O208 1.966 . S
Co205 N214 2.022 . S
Co205 N222 1.993 . S
Co205 O230 1.941 . S
C206 O207 1.258 . S
C206 O208 1.263 . S
O207 Co204 1.970 . S
O207 C206 1.258 . S
O208 Co205 1.966 . S
O208 C206 1.263 . S
C209 O210 1.235 . S
C209 O236 1.289 . S
O210 C209 1.235 . S
C211 C213 1.400 . S
C211 N214 1.351 . S
C211 C216 1.501 . S
C212 C213 1.387 . S
C212 N215 1.341 . S
C213 C211 1.400 . S
C213 C212 1.387 . S
N214 Co205 2.022 . S
N214 C211 1.351 . S
N214 N215 1.365 . S
N215 C212 1.341 . S
N215 N214 1.365 . S
N215 H235 0.862 . S
C216 C211 1.501 . S
C216 H217 0.961 . S
C216 H218 0.961 . S
C216 H219 0.960 . S
H217 C216 0.961 . S
H218 C216 0.961 . S
H219 C216 0.960 . S
C220 N221 1.342 . S
C220 C224 1.401 . S
C220 C225 1.499 . S
N221 Co204 1.989 . S
N221 C220 1.342 . S
N221 N222 1.388 . S
N222 Co205 1.993 . S
N222 N221 1.388 . S
N222 C223 1.346 . S
C223 N222 1.346 . S
C223 C224 1.396 . S
C223 C233 1.510 . S
C224 C220 1.401 . S
C224 C223 1.396 . S
C225 C220 1.499 . S
C225 H226 0.959 . S
C225 H227 0.960 . S
C225 H228 0.961 . S
H226 C225 0.959 . S
H227 C225 0.960 . S
H228 C225 0.961 . S
O229 Co204 1.967 . S
O229 C237 1.258 . S
O230 Co205 1.941 . S
O230 C237 1.266 . S
H231 C233 0.959 . S
H232 C233 0.961 . S
C233 C223 1.510 . S
C233 H231 0.959 . S
C233 H232 0.961 . S
C233 H234 0.960 . S
H234 C233 0.960 . S
H235 N215 0.862 . S
O236 Co204 1.920 . S
O236 C209 1.289 . S
C237 O229 1.258 . S
C237 O230 1.266 . S
Co238 O241 1.970 . S
Co238 N255 1.989 . S
Co238 O263 1.967 . S
Co238 O270 1.920 . S
Co239 O242 1.966 . S
Co239 N248 2.022 . S
Co239 N256 1.993 . S
Co239 O264 1.941 . S
C240 O241 1.258 . S
C240 O242 1.263 . S
O241 Co238 1.970 . S
O241 C240 1.258 . S
O242 Co239 1.966 . S
O242 C240 1.263 . S
C243 O244 1.235 . S
C243 O270 1.289 . S
O244 C243 1.235 . S
C245 C247 1.400 . S
C245 N248 1.351 . S
C245 C250 1.501 . S
C246 C247 1.387 . S
C246 N249 1.341 . S
C247 C245 1.400 . S
C247 C246 1.387 . S
N248 Co239 2.022 . S
N248 C245 1.351 . S
N248 N249 1.365 . S
N249 C246 1.341 . S
N249 N248 1.365 . S
N249 H269 0.862 . S
C250 C245 1.501 . S
C250 H251 0.961 . S
C250 H252 0.961 . S
C250 H253 0.960 . S
H251 C250 0.961 . S
H252 C250 0.961 . S
H253 C250 0.960 . S
C254 N255 1.342 . S
C254 C258 1.401 . S
C254 C259 1.499 . S
N255 Co238 1.989 . S
N255 C254 1.342 . S
N255 N256 1.388 . S
N256 Co239 1.993 . S
N256 N255 1.388 . S
N256 C257 1.346 . S
C257 N256 1.346 . S
C257 C258 1.396 . S
C257 C267 1.510 . S
C258 C254 1.401 . S
C258 C257 1.396 . S
C259 C254 1.499 . S
C259 H260 0.959 . S
C259 H261 0.960 . S
C259 H262 0.961 . S
H260 C259 0.959 . S
H261 C259 0.960 . S
H262 C259 0.961 . S
O263 Co238 1.967 . S
O263 C271 1.258 . S
O264 Co239 1.941 . S
O264 C271 1.266 . S
H265 C267 0.959 . S
H266 C267 0.961 . S
C267 C257 1.510 . S
C267 H265 0.959 . S
C267 H266 0.961 . S
C267 H268 0.960 . S
H268 C267 0.960 . S
H269 N249 0.862 . S
O270 Co238 1.920 . S
O270 C243 1.289 . S
C271 O263 1.258 . S
C271 O264 1.266 . S
Co272 O275 1.970 . S
Co272 N289 1.989 1_545 S
Co272 O297 1.967 . S
Co272 O304 1.920 . S
Co273 O276 1.966 . S
Co273 N282 2.022 . S
Co273 N290 1.993 1_545 S
Co273 O298 1.941 . S
C274 O275 1.258 . S
C274 O276 1.263 . S
O275 Co272 1.970 . S
O275 C274 1.258 . S
O276 Co273 1.966 . S
O276 C274 1.263 . S
C277 O278 1.235 . S
C277 O304 1.289 . S
O278 C277 1.235 . S
C279 C281 1.400 . S
C279 N282 1.351 . S
C279 C284 1.501 . S
C280 C281 1.387 1_565 S
C280 N283 1.341 . S
C281 C279 1.400 . S
C281 C280 1.387 1_545 S
N282 Co273 2.022 . S
N282 C279 1.351 . S
N282 N283 1.365 1_545 S
N283 C280 1.341 . S
N283 N282 1.365 1_565 S
N283 H303 0.862 . S
C284 C279 1.501 . S
C284 H285 0.961 . S
C284 H286 0.961 . S
C284 H287 0.960 . S
H285 C284 0.961 . S
H286 C284 0.961 . S
H287 C284 0.960 . S
C288 N289 1.342 . S
C288 C292 1.401 . S
C288 C293 1.499 . S
N289 Co272 1.989 1_565 S
N289 C288 1.342 . S
N289 N290 1.388 . S
N290 Co273 1.993 1_565 S
N290 N289 1.388 . S
N290 C291 1.346 . S
C291 N290 1.346 . S
C291 C292 1.396 . S
C291 C301 1.510 . S
C292 C288 1.401 . S
C292 C291 1.396 . S
C293 C288 1.499 . S
C293 H294 0.959 . S
C293 H295 0.960 . S
C293 H296 0.961 . S
H294 C293 0.959 . S
H295 C293 0.960 . S
H296 C293 0.961 . S
O297 Co272 1.967 . S
O297 C305 1.258 . S
O298 Co273 1.941 . S
O298 C305 1.266 . S
H299 C301 0.959 . S
H300 C301 0.961 . S
C301 C291 1.510 . S
C301 H299 0.959 . S
C301 H300 0.961 . S
C301 H302 0.960 . S
H302 C301 0.960 . S
H303 N283 0.862 . S
O304 Co272 1.920 . S
O304 C277 1.289 . S
C305 O297 1.258 . S
C305 O298 1.266 . S
Co306 O309 1.970 1_545 S
Co306 N323 1.989 . S
Co306 O331 1.967 1_545 S
Co306 O338 1.920 . S
Co307 O310 1.966 1_545 S
Co307 N316 2.022 . S
Co307 N324 1.993 . S
Co307 O332 1.941 1_545 S
C308 O309 1.258 . S
C308 O310 1.263 . S
O309 Co306 1.970 1_565 S
O309 C308 1.258 . S
O310 Co307 1.966 1_565 S
O310 C308 1.263 . S
C311 O312 1.235 . S
C311 O338 1.289 . S
O312 C311 1.235 . S
C313 C315 1.400 1_565 S
C313 N316 1.351 1_565 S
C313 C318 1.501 . S
C314 C315 1.387 . S
C314 N317 1.341 . S
C315 C313 1.400 1_545 S
C315 C314 1.387 . S
N316 Co307 2.022 . S
N316 C313 1.351 1_545 S
N316 N317 1.365 . S
N317 C314 1.341 . S
N317 N316 1.365 . S
N317 H337 0.862 . S
C318 C313 1.501 . S
C318 H319 0.961 . S
C318 H320 0.961 . S
C318 H321 0.960 . S
H319 C318 0.961 . S
H320 C318 0.961 . S
H321 C318 0.960 . S
C322 N323 1.342 . S
C322 C326 1.401 . S
C322 C327 1.499 . S
N323 Co306 1.989 . S
N323 C322 1.342 . S
N323 N324 1.388 . S
N324 Co307 1.993 . S
N324 N323 1.388 . S
N324 C325 1.346 . S
C325 N324 1.346 . S
C325 C326 1.396 . S
C325 C335 1.510 . S
C326 C322 1.401 . S
C326 C325 1.396 . S
C327 C322 1.499 . S
C327 H328 0.959 . S
C327 H329 0.960 . S
C327 H330 0.961 . S
H328 C327 0.959 . S
H329 C327 0.960 . S
H330 C327 0.961 . S
O331 Co306 1.967 1_565 S
O331 C339 1.258 . S
O332 Co307 1.941 1_565 S
O332 C339 1.268 . S
H333 C335 0.959 . S
H334 C335 0.961 . S
C335 C325 1.510 . S
C335 H333 0.959 . S
C335 H334 0.961 . S
C335 H336 0.960 . S
H336 C335 0.960 . S
H337 N317 0.862 . S
O338 Co306 1.920 . S
O338 C311 1.289 . S
C339 O331 1.258 . S
C339 O332 1.268 . S
Co340 O343 1.970 1_545 S
Co340 N357 1.989 . S
Co340 O365 1.967 1_545 S
Co340 O372 1.920 . S
Co341 O344 1.966 1_545 S
Co341 N350 2.022 . S
Co341 N358 1.993 . S
Co341 O366 1.941 1_545 S
C342 O343 1.258 . S
C342 O344 1.263 . S
O343 Co340 1.970 1_565 S
O343 C342 1.258 . S
O344 Co341 1.966 1_565 S
O344 C342 1.263 . S
C345 O346 1.235 . S
C345 O372 1.289 . S
O346 C345 1.235 . S
C347 C349 1.400 1_565 S
C347 N350 1.351 1_565 S
C347 C352 1.501 . S
C348 C349 1.387 . S
C348 N351 1.341 . S
C349 C347 1.400 1_545 S
C349 C348 1.387 . S
N350 Co341 2.022 . S
N350 C347 1.351 1_545 S
N350 N351 1.365 . S
N351 C348 1.341 . S
N351 N350 1.365 . S
N351 H371 0.862 . S
C352 C347 1.501 . S
C352 H353 0.961 . S
C352 H354 0.961 . S
C352 H355 0.960 . S
H353 C352 0.961 . S
H354 C352 0.961 . S
H355 C352 0.960 . S
C356 N357 1.342 . S
C356 C360 1.401 . S
C356 C361 1.499 . S
N357 Co340 1.989 . S
N357 C356 1.342 . S
N357 N358 1.388 . S
N358 Co341 1.993 . S
N358 N357 1.388 . S
N358 C359 1.346 . S
C359 N358 1.346 . S
C359 C360 1.396 . S
C359 C369 1.510 . S
C360 C356 1.401 . S
C360 C359 1.396 . S
C361 C356 1.499 . S
C361 H362 0.959 . S
C361 H363 0.960 . S
C361 H364 0.961 . S
H362 C361 0.959 . S
H363 C361 0.960 . S
H364 C361 0.961 . S
O365 Co340 1.967 1_565 S
O365 C373 1.258 . S
O366 Co341 1.941 1_565 S
O366 C373 1.268 . S
H367 C369 0.959 . S
H368 C369 0.961 . S
C369 C359 1.510 . S
C369 H367 0.959 . S
C369 H368 0.961 . S
C369 H370 0.960 . S
H370 C369 0.960 . S
H371 N351 0.862 . S
O372 Co340 1.920 . S
O372 C345 1.289 . S
C373 O365 1.258 . S
C373 O366 1.268 . S
Co374 O377 1.970 . S
Co374 N391 1.989 1_545 S
Co374 O399 1.967 . S
Co374 O406 1.920 . S
Co375 O378 1.966 . S
Co375 N384 2.022 . S
Co375 N392 1.993 1_545 S
Co375 O400 1.941 . S
C376 O377 1.258 . S
C376 O378 1.263 . S
O377 Co374 1.970 . S
O377 C376 1.258 . S
O378 Co375 1.966 . S
O378 C376 1.263 . S
C379 O380 1.235 . S
C379 O406 1.289 . S
O380 C379 1.235 . S
C381 C383 1.400 . S
C381 N384 1.351 . S
C381 C386 1.501 . S
C382 C383 1.387 1_565 S
C382 N385 1.341 . S
C383 C381 1.400 . S
C383 C382 1.387 1_545 S
N384 Co375 2.022 . S
N384 C381 1.351 . S
N384 N385 1.365 1_545 S
N385 C382 1.341 . S
N385 N384 1.365 1_565 S
N385 H405 0.862 . S
C386 C381 1.501 . S
C386 H387 0.961 . S
C386 H388 0.961 . S
C386 H389 0.960 . S
H387 C386 0.961 . S
H388 C386 0.961 . S
H389 C386 0.960 . S
C390 N391 1.342 . S
C390 C394 1.401 . S
C390 C395 1.499 . S
N391 Co374 1.989 1_565 S
N391 C390 1.342 . S
N391 N392 1.388 . S
N392 Co375 1.993 1_565 S
N392 N391 1.388 . S
N392 C393 1.346 . S
C393 N392 1.346 . S
C393 C394 1.396 . S
C393 C403 1.510 . S
C394 C390 1.401 . S
C394 C393 1.396 . S
C395 C390 1.499 . S
C395 H396 0.959 . S
C395 H397 0.960 . S
C395 H398 0.961 . S
H396 C395 0.959 . S
H397 C395 0.960 . S
H398 C395 0.961 . S
O399 Co374 1.967 . S
O399 C407 1.258 . S
O400 Co375 1.941 . S
O400 C407 1.266 . S
H401 C403 0.959 . S
H402 C403 0.961 . S
C403 C393 1.510 . S
C403 H401 0.959 . S
C403 H402 0.961 . S
C403 H404 0.960 . S
H404 C403 0.960 . S
H405 N385 0.862 . S
O406 Co374 1.920 . S
O406 C379 1.289 . S
C407 O399 1.258 . S
C407 O400 1.266 . S
Co408 O411 1.970 . S
Co408 N425 1.989 . S
Co408 O433 1.967 . S
Co408 O440 1.920 . S
Co409 O412 1.966 . S
Co409 N418 2.022 . S
Co409 N426 1.993 . S
Co409 O434 1.941 . S
C410 O411 1.258 . S
C410 O412 1.263 . S
O411 Co408 1.970 . S
O411 C410 1.258 . S
O412 Co409 1.966 . S
O412 C410 1.263 . S
C413 O414 1.235 . S
C413 O440 1.289 . S
O414 C413 1.235 . S
C415 C417 1.400 . S
C415 N418 1.351 . S
C415 C420 1.501 . S
C416 C417 1.387 . S
C416 N419 1.341 . S
C417 C415 1.400 . S
C417 C416 1.387 . S
N418 Co409 2.022 . S
N418 C415 1.351 . S
N418 N419 1.365 . S
N419 C416 1.341 . S
N419 N418 1.365 . S
N419 H439 0.862 . S
C420 C415 1.501 . S
C420 H421 0.961 . S
C420 H422 0.961 . S
C420 H423 0.960 . S
H421 C420 0.961 . S
H422 C420 0.961 . S
H423 C420 0.960 . S
C424 N425 1.342 . S
C424 C428 1.401 . S
C424 C429 1.499 . S
N425 Co408 1.989 . S
N425 C424 1.342 . S
N425 N426 1.388 . S
N426 Co409 1.993 . S
N426 N425 1.388 . S
N426 C427 1.346 . S
C427 N426 1.346 . S
C427 C428 1.396 . S
C427 C437 1.510 . S
C428 C424 1.401 . S
C428 C427 1.396 . S
C429 C424 1.499 . S
C429 H430 0.959 . S
C429 H431 0.960 . S
C429 H432 0.961 . S
H430 C429 0.959 . S
H431 C429 0.960 . S
H432 C429 0.961 . S
O433 Co408 1.967 . S
O433 C441 1.258 . S
O434 Co409 1.941 . S
O434 C441 1.266 . S
H435 C437 0.959 . S
H436 C437 0.961 . S
C437 C427 1.510 . S
C437 H435 0.959 . S
C437 H436 0.961 . S
C437 H438 0.960 . S
H438 C437 0.960 . S
H439 N419 0.862 . S
O440 Co408 1.920 . S
O440 C413 1.289 . S
C441 O433 1.258 . S
C441 O434 1.266 . S
Co442 O445 1.970 . S
Co442 N459 1.989 . S
Co442 O467 1.967 . S
Co442 O474 1.920 . S
Co443 O446 1.966 . S
Co443 N452 2.022 . S
Co443 N460 1.993 . S
Co443 O468 1.941 . S
C444 O445 1.258 . S
C444 O446 1.263 . S
O445 Co442 1.970 . S
O445 C444 1.258 . S
O446 Co443 1.966 . S
O446 C444 1.263 . S
C447 O448 1.235 . S
C447 O474 1.289 . S
O448 C447 1.235 . S
C449 C451 1.400 . S
C449 N452 1.351 . S
C449 C454 1.501 . S
C450 C451 1.387 . S
C450 N453 1.341 . S
C451 C449 1.400 . S
C451 C450 1.387 . S
N452 Co443 2.022 . S
N452 C449 1.351 . S
N452 N453 1.365 . S
N453 C450 1.341 . S
N453 N452 1.365 . S
N453 H473 0.862 . S
C454 C449 1.501 . S
C454 H455 0.961 . S
C454 H456 0.961 . S
C454 H457 0.960 . S
H455 C454 0.961 . S
H456 C454 0.961 . S
H457 C454 0.960 . S
C458 N459 1.342 . S
C458 C462 1.401 . S
C458 C463 1.499 . S
N459 Co442 1.989 . S
N459 C458 1.342 . S
N459 N460 1.388 . S
N460 Co443 1.993 . S
N460 N459 1.388 . S
N460 C461 1.346 . S
C461 N460 1.346 . S
C461 C462 1.396 . S
C461 C471 1.510 . S
C462 C458 1.401 . S
C462 C461 1.396 . S
C463 C458 1.499 . S
C463 H464 0.959 . S
C463 H465 0.960 . S
C463 H466 0.961 . S
H464 C463 0.959 . S
H465 C463 0.960 . S
H466 C463 0.961 . S
O467 Co442 1.967 . S
O467 C475 1.258 . S
O468 Co443 1.941 . S
O468 C475 1.266 . S
H469 C471 0.959 . S
H470 C471 0.961 . S
C471 C461 1.510 . S
C471 H469 0.959 . S
C471 H470 0.961 . S
C471 H472 0.960 . S
H472 C471 0.960 . S
H473 N453 0.862 . S
O474 Co442 1.920 . S
O474 C447 1.289 . S
C475 O467 1.258 . S
C475 O468 1.266 . S
Co476 O479 1.970 . S
Co476 N493 1.989 . S
Co476 O501 1.967 . S
Co476 O508 1.920 . S
Co477 O480 1.966 . S
Co477 N486 2.022 . S
Co477 N494 1.993 . S
Co477 O502 1.941 . S
C478 O479 1.258 . S
C478 O480 1.263 . S
O479 Co476 1.970 . S
O479 C478 1.258 . S
O480 Co477 1.966 . S
O480 C478 1.263 . S
C481 O482 1.235 . S
C481 O508 1.289 . S
O482 C481 1.235 . S
C483 C485 1.400 . S
C483 N486 1.351 . S
C483 C488 1.501 . S
C484 C485 1.387 . S
C484 N487 1.341 . S
C485 C483 1.400 . S
C485 C484 1.387 . S
N486 Co477 2.022 . S
N486 C483 1.351 . S
N486 N487 1.365 . S
N487 C484 1.341 . S
N487 N486 1.365 . S
N487 H507 0.862 . S
C488 C483 1.501 . S
C488 H489 0.961 . S
C488 H490 0.961 . S
C488 H491 0.960 . S
H489 C488 0.961 . S
H490 C488 0.961 . S
H491 C488 0.960 . S
C492 N493 1.342 . S
C492 C496 1.401 . S
C492 C497 1.499 . S
N493 Co476 1.989 . S
N493 C492 1.342 . S
N493 N494 1.388 . S
N494 Co477 1.993 . S
N494 N493 1.388 . S
N494 C495 1.346 . S
C495 N494 1.346 . S
C495 C496 1.396 . S
C495 C505 1.510 . S
C496 C492 1.401 . S
C496 C495 1.396 . S
C497 C492 1.499 . S
C497 H498 0.959 . S
C497 H499 0.960 . S
C497 H500 0.961 . S
H498 C497 0.959 . S
H499 C497 0.960 . S
H500 C497 0.961 . S
O501 Co476 1.967 . S
O501 C509 1.258 . S
O502 Co477 1.941 . S
O502 C509 1.266 . S
H503 C505 0.959 . S
H504 C505 0.961 . S
C505 C495 1.510 . S
C505 H503 0.959 . S
C505 H504 0.961 . S
C505 H506 0.960 . S
H506 C505 0.960 . S
H507 N487 0.862 . S
O508 Co476 1.920 . S
O508 C481 1.289 . S
C509 O501 1.258 . S
C509 O502 1.266 . S
Co510 O513 1.970 . S
Co510 N527 1.989 . S
Co510 O535 1.967 . S
Co510 O542 1.920 . S
Co511 O514 1.966 . S
Co511 N520 2.022 . S
Co511 N528 1.993 . S
Co511 O536 1.941 . S
C512 O513 1.258 . S
C512 O514 1.263 . S
O513 Co510 1.970 . S
O513 C512 1.258 . S
O514 Co511 1.966 . S
O514 C512 1.263 . S
C515 O516 1.235 . S
C515 O542 1.289 . S
O516 C515 1.235 . S
C517 C519 1.400 . S
C517 N520 1.351 . S
C517 C522 1.501 . S
C518 C519 1.387 . S
C518 N521 1.341 . S
C519 C517 1.400 . S
C519 C518 1.387 . S
N520 Co511 2.022 . S
N520 C517 1.351 . S
N520 N521 1.365 . S
N521 C518 1.341 . S
N521 N520 1.365 . S
N521 H541 0.862 . S
C522 C517 1.501 . S
C522 H523 0.961 . S
C522 H524 0.961 . S
C522 H525 0.960 . S
H523 C522 0.961 . S
H524 C522 0.961 . S
H525 C522 0.960 . S
C526 N527 1.342 . S
C526 C530 1.401 . S
C526 C531 1.499 . S
N527 Co510 1.989 . S
N527 C526 1.342 . S
N527 N528 1.388 . S
N528 Co511 1.993 . S
N528 N527 1.388 . S
N528 C529 1.346 . S
C529 N528 1.346 . S
C529 C530 1.396 . S
C529 C539 1.510 . S
C530 C526 1.401 . S
C530 C529 1.396 . S
C531 C526 1.499 . S
C531 H532 0.959 . S
C531 H533 0.960 . S
C531 H534 0.961 . S
H532 C531 0.959 . S
H533 C531 0.960 . S
H534 C531 0.961 . S
O535 Co510 1.967 . S
O535 C543 1.258 . S
O536 Co511 1.941 . S
O536 C543 1.266 . S
H537 C539 0.959 . S
H538 C539 0.961 . S
C539 C529 1.510 . S
C539 H537 0.959 . S
C539 H538 0.961 . S
C539 H540 0.960 . S
H540 C539 0.960 . S
H541 N521 0.862 . S
O542 Co510 1.920 . S
O542 C515 1.289 . S
C543 O535 1.258 . S
C543 O536 1.266 . S
C9 C383 1.292 . S
C43 C349 1.292 . S
C315 C77 1.292 . S
C281 C111 1.292 . S
C145 C519 1.292 . S
C179 C485 1.292 . S
C451 C213 1.292 . S
C417 C247 1.292 . S
C2 C444 2.346 . S
C410 C36 2.346 . S
C70 C512 2.346 . S
C478 C104 2.346 . S
C122 C496 1.070 . S
C530 C88 1.070 . S
C428 C54 1.070 . S
C20 C462 1.070 . S
C138 C308 2.346 . S
C172 C274 2.346 . S
C206 C376 2.346 . S
C240 C342 2.346 . S
C258 C360 1.070 . S
C224 C394 1.070 . S
C190 C292 1.070 . S
C156 C326 1.070 . S
C67 C33 2.075 1_665 S
C101 C135 2.075 1_465 S
C203 C169 2.075 1_655 S
C271 C237 2.075 1_655 S
C339 C305 2.075 1_565 S
C407 C373 2.075 1_545 S
C441 C475 2.075 . S
C543 C509 2.075 . S
C73 C5 1.518 1_556 S
C107 C39 1.518 1_556 S
C141 C209 1.518 . S
C243 C175 1.518 . S
C277 C345 1.518 . S
C379 C311 1.518 . S
C413 C481 1.518 1_554 S
C515 C447 1.518 1_556 S
