# Generated by pormake.
# Topology uoe, (4)-cn, num edge types: 1
# Building blocks:
#     Node 0, Type 0, BuildingBlock: NAWXER_clean_sbu_0, # of connection points: 4
#     Node 1, Type 0, BuildingBlock: NAWXER_clean_sbu_0, # of connection points: 4
#     Node 2, Type 0, BuildingBlock: NAWXER_clean_sbu_0, # of connection points: 4
#     Node 3, Type 0, BuildingBlock: NAWXER_clean_sbu_0, # of connection points: 4
#     Node 4, Type 0, BuildingBlock: NAWXER_clean_sbu_0, # of connection points: 4
#     Node 5, Type 0, BuildingBlock: NAWXER_clean_sbu_0, # of connection points: 4
#     Node 6, Type 0, BuildingBlock: NAWXER_clean_sbu_0, # of connection points: 4
#     Node 7, Type 0, BuildingBlock: NAWXER_clean_sbu_0, # of connection points: 4
#     Node 8, Type 0, BuildingBlock: NAWXER_clean_sbu_0, # of connection points: 4
#     Node 9, Type 0, BuildingBlock: NAWXER_clean_sbu_0, # of connection points: 4
#     Node 10, Type 0, BuildingBlock: NAWXER_clean_sbu_0, # of connection points: 4
#     Node 11, Type 0, BuildingBlock: NAWXER_clean_sbu_0, # of connection points: 4
#     Node 12, Type 0, BuildingBlock: NAWXER_clean_sbu_0, # of connection points: 4
#     Node 13, Type 0, BuildingBlock: NAWXER_clean_sbu_0, # of connection points: 4
#     Node 14, Type 0, BuildingBlock: NAWXER_clean_sbu_0, # of connection points: 4
#     Node 15, Type 0, BuildingBlock: NAWXER_clean_sbu_0, # of connection points: 4
#     Node 16, Type 0, BuildingBlock: NAWXER_clean_sbu_0, # of connection points: 4
#     Node 17, Type 0, BuildingBlock: NAWXER_clean_sbu_0, # of connection points: 4
#     Node 18, Type 0, BuildingBlock: NAWXER_clean_sbu_0, # of connection points: 4
#     Node 19, Type 0, BuildingBlock: NAWXER_clean_sbu_0, # of connection points: 4
#     Node 20, Type 0, BuildingBlock: NAWXER_clean_sbu_0, # of connection points: 4
#     Node 21, Type 0, BuildingBlock: NAWXER_clean_sbu_0, # of connection points: 4
#     Node 22, Type 0, BuildingBlock: NAWXER_clean_sbu_0, # of connection points: 4
#     Node 23, Type 0, BuildingBlock: NAWXER_clean_sbu_0, # of connection points: 4
#     Node 24, Type 0, BuildingBlock: NAWXER_clean_sbu_0, # of connection points: 4
#     Node 25, Type 0, BuildingBlock: NAWXER_clean_sbu_0, # of connection points: 4
#     Node 26, Type 0, BuildingBlock: NAWXER_clean_sbu_0, # of connection points: 4
#     Node 27, Type 0, BuildingBlock: NAWXER_clean_sbu_0, # of connection points: 4
#     Node 28, Type 0, BuildingBlock: NAWXER_clean_sbu_0, # of connection points: 4
#     Node 29, Type 0, BuildingBlock: NAWXER_clean_sbu_0, # of connection points: 4
#     Node 30, Type 0, BuildingBlock: NAWXER_clean_sbu_0, # of connection points: 4
#     Node 31, Type 0, BuildingBlock: NAWXER_clean_sbu_0, # of connection points: 4
#     Edge 32, Type (0, 0), BuildingBlock: TEMPAE_clean_linker_10, # of connection points: 2
#     Edge 33, Type (0, 0), BuildingBlock: TEMPAE_clean_linker_10, # of connection points: 2
#     Edge 34, Type (0, 0), BuildingBlock: TEMPAE_clean_linker_10, # of connection points: 2
#     Edge 35, Type (0, 0), BuildingBlock: TEMPAE_clean_linker_10, # of connection points: 2
#     Edge 36, Type (0, 0), BuildingBlock: TEMPAE_clean_linker_10, # of connection points: 2
#     Edge 37, Type (0, 0), BuildingBlock: TEMPAE_clean_linker_10, # of connection points: 2
#     Edge 38, Type (0, 0), BuildingBlock: TEMPAE_clean_linker_10, # of connection points: 2
#     Edge 39, Type (0, 0), BuildingBlock: TEMPAE_clean_linker_10, # of connection points: 2
#     Edge 40, Type (0, 0), BuildingBlock: TEMPAE_clean_linker_10, # of connection points: 2
#     Edge 41, Type (0, 0), BuildingBlock: TEMPAE_clean_linker_10, # of connection points: 2
#     Edge 42, Type (0, 0), BuildingBlock: TEMPAE_clean_linker_10, # of connection points: 2
#     Edge 43, Type (0, 0), BuildingBlock: TEMPAE_clean_linker_10, # of connection points: 2
#     Edge 44, Type (0, 0), BuildingBlock: TEMPAE_clean_linker_10, # of connection points: 2
#     Edge 45, Type (0, 0), BuildingBlock: TEMPAE_clean_linker_10, # of connection points: 2
#     Edge 46, Type (0, 0), BuildingBlock: TEMPAE_clean_linker_10, # of connection points: 2
#     Edge 47, Type (0, 0), BuildingBlock: TEMPAE_clean_linker_10, # of connection points: 2
#     Edge 48, Type (0, 0), BuildingBlock: TEMPAE_clean_linker_10, # of connection points: 2
#     Edge 49, Type (0, 0), BuildingBlock: TEMPAE_clean_linker_10, # of connection points: 2
#     Edge 50, Type (0, 0), BuildingBlock: TEMPAE_clean_linker_10, # of connection points: 2
#     Edge 51, Type (0, 0), BuildingBlock: TEMPAE_clean_linker_10, # of connection points: 2
#     Edge 52, Type (0, 0), BuildingBlock: TEMPAE_clean_linker_10, # of connection points: 2
#     Edge 53, Type (0, 0), BuildingBlock: TEMPAE_clean_linker_10, # of connection points: 2
#     Edge 54, Type (0, 0), BuildingBlock: TEMPAE_clean_linker_10, # of connection points: 2
#     Edge 55, Type (0, 0), BuildingBlock: TEMPAE_clean_linker_10, # of connection points: 2
#     Edge 56, Type (0, 0), BuildingBlock: TEMPAE_clean_linker_10, # of connection points: 2
#     Edge 57, Type (0, 0), BuildingBlock: TEMPAE_clean_linker_10, # of connection points: 2
#     Edge 58, Type (0, 0), BuildingBlock: TEMPAE_clean_linker_10, # of connection points: 2
#     Edge 59, Type (0, 0), BuildingBlock: TEMPAE_clean_linker_10, # of connection points: 2
#     Edge 60, Type (0, 0), BuildingBlock: TEMPAE_clean_linker_10, # of connection points: 2
#     Edge 61, Type (0, 0), BuildingBlock: TEMPAE_clean_linker_10, # of connection points: 2
#     Edge 62, Type (0, 0), BuildingBlock: TEMPAE_clean_linker_10, # of connection points: 2
#     Edge 63, Type (0, 0), BuildingBlock: TEMPAE_clean_linker_10, # of connection points: 2
#     Edge 64, Type (0, 0), BuildingBlock: TEMPAE_clean_linker_10, # of connection points: 2
#     Edge 65, Type (0, 0), BuildingBlock: TEMPAE_clean_linker_10, # of connection points: 2
#     Edge 66, Type (0, 0), BuildingBlock: TEMPAE_clean_linker_10, # of connection points: 2
#     Edge 67, Type (0, 0), BuildingBlock: TEMPAE_clean_linker_10, # of connection points: 2
#     Edge 68, Type (0, 0), BuildingBlock: TEMPAE_clean_linker_10, # of connection points: 2
#     Edge 69, Type (0, 0), BuildingBlock: TEMPAE_clean_linker_10, # of connection points: 2
#     Edge 70, Type (0, 0), BuildingBlock: TEMPAE_clean_linker_10, # of connection points: 2
#     Edge 71, Type (0, 0), BuildingBlock: TEMPAE_clean_linker_10, # of connection points: 2
#     Edge 72, Type (0, 0), BuildingBlock: TEMPAE_clean_linker_10, # of connection points: 2
#     Edge 73, Type (0, 0), BuildingBlock: TEMPAE_clean_linker_10, # of connection points: 2
#     Edge 74, Type (0, 0), BuildingBlock: TEMPAE_clean_linker_10, # of connection points: 2
#     Edge 75, Type (0, 0), BuildingBlock: TEMPAE_clean_linker_10, # of connection points: 2
#     Edge 76, Type (0, 0), BuildingBlock: TEMPAE_clean_linker_10, # of connection points: 2
#     Edge 77, Type (0, 0), BuildingBlock: TEMPAE_clean_linker_10, # of connection points: 2
#     Edge 78, Type (0, 0), BuildingBlock: TEMPAE_clean_linker_10, # of connection points: 2
#     Edge 79, Type (0, 0), BuildingBlock: TEMPAE_clean_linker_10, # of connection points: 2
#     Edge 80, Type (0, 0), BuildingBlock: TEMPAE_clean_linker_10, # of connection points: 2
#     Edge 81, Type (0, 0), BuildingBlock: TEMPAE_clean_linker_10, # of connection points: 2
#     Edge 82, Type (0, 0), BuildingBlock: TEMPAE_clean_linker_10, # of connection points: 2
#     Edge 83, Type (0, 0), BuildingBlock: TEMPAE_clean_linker_10, # of connection points: 2
#     Edge 84, Type (0, 0), BuildingBlock: TEMPAE_clean_linker_10, # of connection points: 2
#     Edge 85, Type (0, 0), BuildingBlock: TEMPAE_clean_linker_10, # of connection points: 2
#     Edge 86, Type (0, 0), BuildingBlock: TEMPAE_clean_linker_10, # of connection points: 2
#     Edge 87, Type (0, 0), BuildingBlock: TEMPAE_clean_linker_10, # of connection points: 2
#     Edge 88, Type (0, 0), BuildingBlock: TEMPAE_clean_linker_10, # of connection points: 2
#     Edge 89, Type (0, 0), BuildingBlock: TEMPAE_clean_linker_10, # of connection points: 2
#     Edge 90, Type (0, 0), BuildingBlock: TEMPAE_clean_linker_10, # of connection points: 2
#     Edge 91, Type (0, 0), BuildingBlock: TEMPAE_clean_linker_10, # of connection points: 2
#     Edge 92, Type (0, 0), BuildingBlock: TEMPAE_clean_linker_10, # of connection points: 2
#     Edge 93, Type (0, 0), BuildingBlock: TEMPAE_clean_linker_10, # of connection points: 2
#     Edge 94, Type (0, 0), BuildingBlock: TEMPAE_clean_linker_10, # of connection points: 2
#     Edge 95, Type (0, 0), BuildingBlock: TEMPAE_clean_linker_10, # of connection points: 2
# Relax obj value: 0.105
# Max RMSD: 0.239
# Mean RMSD: 0.239
data_MOF--net-uoe--node1-NAWXER_clean_sbu_0--edge1-TEMPAE_clean_linker_10
_symmetry_space_group_name_H-M    P1
_symmetry_Int_Tables_number       1
_symmetry_cell_setting            triclinic
loop_
_symmetry_equiv_pos_as_xyz
'x, y, z'
_cell_length_a     74.837239
_cell_length_b     74.836809
_cell_length_c     29.09794
_cell_angle_alpha  90.001533
_cell_angle_beta   89.987215
_cell_angle_gamma 90.004905
loop_
_atom_site_label
_atom_site_type_symbol
_atom_site_fract_x
_atom_site_fract_y
_atom_site_fract_z
_atom_type_partial_charge
C0 C 0.12155 0.44649 0.08676 0.0
C1 C 0.06668 0.47818 0.05075 0.0
O2 O 0.12397 0.46342 0.08462 0.0
Zn3 Zn 0.10874 0.48633 0.0636 0.0
O4 O 0.10702 0.43989 0.07194 0.0
Zn5 Zn 0.0947 0.46224 0.05944 0.0
O6 O 0.10421 0.47164 0.9942 0.0
O7 O 0.1196 0.49593 0.00947 0.0
O8 O 0.06921 0.46139 0.04956 0.0
O9 O 0.08004 0.48881 0.05498 0.0
O10 O 0.11136 0.50031 0.1174 0.0
O11 O 0.0956 0.47548 0.12663 0.0
C12 C 0.11368 0.48487 0.98034 0.0
C13 C 0.10243 0.48988 0.14318 0.0
C14 C 0.77647 0.8115 0.29814 0.0
C15 C 0.80467 0.86815 0.33453 0.0
O16 O 0.76491 0.82418 0.2999 0.0
Zn17 Zn 0.76567 0.85302 0.31063 0.0
O18 O 0.79303 0.8151 0.30076 0.0
Zn19 Zn 0.79044 0.84042 0.30778 0.0
O20 O 0.77699 0.84078 0.37432 0.0
O21 O 0.75121 0.85473 0.36404 0.0
O22 O 0.81202 0.85397 0.31988 0.0
O23 O 0.78763 0.86965 0.33232 0.0
O24 O 0.75575 0.86353 0.25671 0.0
O25 O 0.78055 0.8489 0.24152 0.0
C26 C 0.76213 0.8467 0.39036 0.0
C27 C 0.76694 0.85783 0.22759 0.0
C28 C 0.402 0.5132 0.63604 0.0
C29 C 0.39055 0.52158 0.47437 0.0
O30 O 0.40805 0.52831 0.62196 0.0
Zn31 Zn 0.40844 0.54314 0.55734 0.0
O32 O 0.39368 0.50298 0.60847 0.0
Zn33 Zn 0.39548 0.51853 0.5571 0.0
O34 O 0.42431 0.5176 0.54599 0.0
O35 O 0.43378 0.54554 0.55037 0.0
O36 O 0.38471 0.50993 0.50205 0.0
O37 O 0.39977 0.53472 0.48993 0.0
O38 O 0.39521 0.56463 0.57234 0.0
O39 O 0.3792 0.54025 0.5819 0.0
C40 C 0.43715 0.529 0.54564 0.0
C41 C 0.38094 0.55721 0.58614 0.0
C42 C 0.74169 0.15405 0.89525 0.0
C43 C 0.73749 0.14322 0.73222 0.0
O44 O 0.72686 0.15995 0.87899 0.0
Zn45 Zn 0.71364 0.16039 0.81214 0.0
O46 O 0.75272 0.14611 0.86903 0.0
Zn47 Zn 0.73845 0.14789 0.81532 0.0
O48 O 0.73912 0.17676 0.80492 0.0
O49 O 0.71095 0.18571 0.80534 0.0
O50 O 0.74862 0.13755 0.7615 0.0
O51 O 0.72379 0.15207 0.74598 0.0
O52 O 0.69208 0.14674 0.82346 0.0
O53 O 0.71647 0.13109 0.83609 0.0
C54 C 0.7275 0.18939 0.80305 0.0
C55 C 0.69942 0.13253 0.83787 0.0
C56 C 0.10122 0.51196 0.48231 0.0
C57 C 0.11241 0.51648 0.64521 0.0
O58 O 0.09414 0.52618 0.49917 0.0
Zn59 Zn 0.09296 0.53909 0.56684 0.0
O60 O 0.11021 0.50154 0.50795 0.0
Zn61 Zn 0.10732 0.51524 0.56202 0.0
O62 O 0.07866 0.51228 0.57061 0.0
O63 O 0.06749 0.53952 0.57687 0.0
O64 O 0.11838 0.50557 0.61576 0.0
O65 O 0.10274 0.52963 0.6318 0.0
O66 O 0.10488 0.5617 0.55499 0.0
O67 O 0.1222 0.5385 0.54163 0.0
C68 C 0.06516 0.52271 0.57523 0.0
C69 C 0.11951 0.55539 0.53998 0.0
C70 C 0.7346 0.85836 0.89226 0.0
C71 C 0.74014 0.84737 0.72957 0.0
O72 O 0.72114 0.84932 0.8779 0.0
Zn73 Zn 0.71154 0.84087 0.81135 0.0
O74 O 0.74584 0.86424 0.86348 0.0
Zn75 Zn 0.73623 0.85372 0.8092 0.0
O76 O 0.71423 0.87019 0.78721 0.0
O77 O 0.68991 0.85431 0.79881 0.0
O78 O 0.75087 0.85557 0.75607 0.0
O79 O 0.72527 0.84133 0.74527 0.0
O80 O 0.70915 0.8155 0.81816 0.0
O81 O 0.73718 0.82487 0.81988 0.0
C82 C 0.69721 0.86858 0.78461 0.0
C83 C 0.72574 0.81207 0.82127 0.0
C84 C 0.38085 0.44937 0.03847 0.0
C85 C 0.43686 0.4802 0.06753 0.0
O86 O 0.37891 0.46638 0.03848 0.0
Zn87 Zn 0.39496 0.48927 0.05535 0.0
O88 O 0.39534 0.44268 0.05332 0.0
Zn89 Zn 0.40835 0.4649 0.06205 0.0
O90 O 0.3996 0.47591 0.1264 0.0
O91 O 0.38486 0.50035 0.10867 0.0
O92 O 0.43387 0.46354 0.07093 0.0
O93 O 0.42377 0.49111 0.06237 0.0
O94 O 0.39222 0.50211 -0.00021 0.0
O95 O 0.40724 0.47671 0.99314 0.0
C96 C 0.39068 0.4897 0.13895 0.0
C97 C 0.4006 0.4909 0.97497 0.0
C98 C 0.77876 0.18857 0.32598 0.0
C99 C 0.80695 0.13201 0.28828 0.0
O100 O 0.76728 0.17581 0.32476 0.0
Zn101 Zn 0.76808 0.14698 0.31385 0.0
O102 O 0.79533 0.1851 0.32243 0.0
Zn103 Zn 0.79282 0.15975 0.31554 0.0
O104 O 0.77886 0.1594 0.24975 0.0
O105 O 0.75325 0.14526 0.26105 0.0
O106 O 0.81435 0.14623 0.30246 0.0
O107 O 0.78993 0.13046 0.29123 0.0
O108 O 0.7586 0.13645 0.36828 0.0
O109 O 0.78336 0.15132 0.38227 0.0
C110 C 0.76391 0.15345 0.23436 0.0
C111 C 0.76991 0.14231 0.39687 0.0
C112 C 0.90591 0.5126 0.98258 0.0
C113 C 0.89479 0.51797 0.14542 0.0
O114 O 0.89759 0.50194 0.00904 0.0
Zn115 Zn 0.89958 0.51651 0.06222 0.0
O116 O 0.91217 0.52736 -0.00157 0.0
Zn117 Zn 0.91273 0.54096 0.06494 0.0
O118 O 0.93808 0.54304 0.07196 0.0
O119 O 0.92841 0.51511 0.073 0.0
O120 O 0.90408 0.53133 0.13142 0.0
O121 O 0.88877 0.50696 0.11629 0.0
O122 O 0.88356 0.53881 0.03967 0.0
O123 O 0.89972 0.56285 0.05248 0.0
C124 C 0.94133 0.52641 0.07467 0.0
C125 C 0.88548 0.5558 0.03735 0.0
C126 C 0.23117 0.13918 0.8968 0.0
C127 C 0.2365 0.14879 0.73321 0.0
O128 O 0.24115 0.13185 0.86723 0.0
Zn129 Zn 0.23241 0.14346 0.8133 0.0
O130 O 0.21897 0.15002 0.88325 0.0
Zn131 Zn 0.21054 0.16038 0.81744 0.0
O132 O 0.18689 0.15167 0.80478 0.0
O133 O 0.20737 0.13094 0.79432 0.0
O134 O 0.22321 0.15756 0.74984 0.0
O135 O 0.24573 0.13875 0.75925 0.0
O136 O 0.23855 0.17187 0.82138 0.0
O137 O 0.21248 0.18557 0.82708 0.0
C138 C 0.19105 0.13606 0.79176 0.0
C139 C 0.22942 0.1863 0.82592 0.0
C140 C 0.60873 0.48476 0.64048 0.0
C141 C 0.59804 0.48837 0.47696 0.0
O142 O 0.61513 0.49524 0.61059 0.0
Zn143 Zn 0.60402 0.48545 0.5569 0.0
O144 O 0.59887 0.4717 0.62744 0.0
Zn145 Zn 0.58924 0.46188 0.5626 0.0
O146 O 0.60087 0.43898 0.55167 0.0
O147 O 0.61844 0.46188 0.53699 0.0
O148 O 0.59068 0.47439 0.49438 0.0
O149 O 0.60718 0.4988 0.50224 0.0
O150 O 0.57541 0.48895 0.56509 0.0
O151 O 0.56372 0.46195 0.57214 0.0
C152 C 0.6155 0.44502 0.53597 0.0
C153 C 0.56171 0.4788 0.56988 0.0
C154 C 0.26607 0.85303 0.2345 0.0
C155 C 0.27335 0.86341 0.39728 0.0
O156 O 0.25715 0.86335 0.26055 0.0
Zn157 Zn 0.27096 0.85883 0.31408 0.0
O158 O 0.27949 0.84433 0.25065 0.0
Zn159 Zn 0.29291 0.84178 0.317 0.0
O160 O 0.2908 0.81656 0.32724 0.0
O161 O 0.26482 0.83052 0.32301 0.0
O162 O 0.28532 0.85246 0.38293 0.0
O163 O 0.26294 0.87064 0.36851 0.0
O164 O 0.29574 0.87121 0.29321 0.0
O165 O 0.31641 0.85053 0.30196 0.0
C166 C 0.27385 0.816 0.32701 0.0
C167 C 0.31203 0.86615 0.28945 0.0
C168 C 0.90463 0.49005 0.64342 0.0
C169 C 0.89337 0.48478 0.48063 0.0
O170 O 0.89648 0.50085 0.61701 0.0
Zn171 Zn 0.89803 0.48617 0.56389 0.0
O172 O 0.91048 0.47512 0.62762 0.0
Zn173 Zn 0.91062 0.4614 0.56134 0.0
O174 O 0.93591 0.45868 0.5543 0.0
O175 O 0.92689 0.48682 0.55292 0.0
O176 O 0.90232 0.47122 0.4948 0.0
O177 O 0.88751 0.49592 0.50966 0.0
O178 O 0.88146 0.46431 0.58662 0.0
O179 O 0.89702 0.43987 0.57399 0.0
C180 C 0.93955 0.47523 0.55131 0.0
C181 C 0.88295 0.44728 0.58906 0.0
C182 C 0.26194 0.14739 0.39449 0.0
C183 C 0.26656 0.13814 0.23056 0.0
O184 O 0.25252 0.13744 0.36866 0.0
Zn185 Zn 0.26571 0.14207 0.31425 0.0
O186 O 0.2753 0.15597 0.37762 0.0
Zn187 Zn 0.28782 0.1587 0.30989 0.0
O188 O 0.28622 0.18396 0.30083 0.0
O189 O 0.25998 0.17059 0.30695 0.0
O190 O 0.27898 0.14873 0.24412 0.0
O191 O 0.25658 0.13081 0.26017 0.0
O192 O 0.2906 0.12911 0.33233 0.0
O193 O 0.31137 0.14955 0.32183 0.0
C194 C 0.2693 0.18491 0.30254 0.0
C195 C 0.30701 0.13396 0.33464 0.0
C196 C 0.60988 0.51746 0.97561 0.0
C197 C 0.59807 0.51082 0.13776 0.0
O198 O 0.61564 0.50611 0.0042 0.0
Zn199 Zn 0.60479 0.51535 0.05857 0.0
O200 O 0.60073 0.53082 0.99019 0.0
Zn201 Zn 0.592 0.54 0.05694 0.0
O202 O 0.60527 0.56158 0.07074 0.0
O203 O 0.62109 0.53724 0.08258 0.0
O204 O 0.59213 0.52582 0.12263 0.0
O205 O 0.60635 0.50028 0.11091 0.0
O206 O 0.57596 0.51447 0.04706 0.0
O207 O 0.56673 0.54253 0.04938 0.0
C208 C 0.61939 0.55424 0.08565 0.0
C209 C 0.56322 0.52598 0.0457 0.0
C210 C 0.23144 0.81749 0.8019 0.0
C211 C 0.20084 0.87303 0.83641 0.0
O212 O 0.21475 0.82053 0.79971 0.0
Zn213 Zn 0.21624 0.84595 0.80963 0.0
O214 O 0.24241 0.83054 0.80693 0.0
Zn215 Zn 0.24058 0.85931 0.81544 0.0
O216 O 0.25412 0.86161 0.86995 0.0
O217 O 0.22877 0.84662 0.87796 0.0
O218 O 0.21783 0.87508 0.8354 0.0
O219 O 0.19406 0.85875 0.82061 0.0
O220 O 0.22659 0.85515 0.74484 0.0
O221 O 0.25106 0.86992 0.76201 0.0
C222 C 0.24318 0.85314 0.89533 0.0
C223 C 0.24023 0.86425 0.73199 0.0
C224 C 0.56223 0.97355 0.54903 0.0
C225 C 0.61937 0.94665 0.58549 0.0
O226 O 0.57462 0.98544 0.55063 0.0
Zn227 Zn 0.60355 0.98533 0.56139 0.0
O228 O 0.56622 0.9571 0.55205 0.0
Zn229 Zn 0.59141 0.96042 0.55891 0.0
O230 O 0.59147 0.97409 0.62552 0.0
O231 O 0.60501 1.00003 0.61443 0.0
O232 O 0.60533 0.93911 0.57072 0.0
O233 O 0.6206 0.96371 0.58349 0.0
O234 O 0.61383 0.99537 0.50719 0.0
O235 O 0.5994 0.97046 0.49218 0.0
C236 C 0.59714 0.98913 0.64112 0.0
C237 C 0.60812 0.98419 0.47809 0.0
C238 C 0.27802 0.3112 0.80539 0.0
C239 C 0.30417 0.3685 0.84355 0.0
O240 O 0.26599 0.32344 0.80726 0.0
Zn241 Zn 0.2657 0.35232 0.81879 0.0
O242 O 0.29442 0.31536 0.80872 0.0
Zn243 Zn 0.29077 0.34048 0.81618 0.0
O244 O 0.27704 0.3401 0.88268 0.0
O245 O 0.25095 0.35339 0.87187 0.0
O246 O 0.3119 0.35462 0.82842 0.0
O247 O 0.28709 0.36954 0.84148 0.0
O248 O 0.25561 0.36265 0.76462 0.0
O249 O 0.28067 0.34849 0.74956 0.0
C250 C 0.26192 0.34553 0.89838 0.0
C251 C 0.26686 0.35708 0.73549 0.0
C252 C 0.89387 0.01497 0.98125 0.0
C253 C 0.9048 0.0103 0.1443 0.0
O254 O 0.90284 0.02856 0.99514 0.0
Zn255 Zn 0.91112 0.03858 0.06151 0.0
O256 O 0.88799 0.00393 0.01049 0.0
Zn257 Zn 0.89847 0.01389 0.06452 0.0
O258 O 0.88189 0.03593 0.0862 0.0
O259 O 0.89766 0.06021 0.07313 0.0
O260 O 0.89671 0.99944 0.11795 0.0
O261 O 0.91077 0.02515 0.12827 0.0
O262 O 0.93639 0.04124 0.05456 0.0
O263 O 0.92736 0.0131 0.05385 0.0
C264 C 0.88347 0.05297 0.08803 0.0
C265 C 0.94002 0.02469 0.05202 0.0
C266 C 0.23134 0.64618 0.23 0.0
C267 C 0.2372 0.65746 0.39258 0.0
O268 O 0.21779 0.65512 0.24434 0.0
Zn269 Zn 0.20825 0.66355 0.31115 0.0
O270 O 0.24266 0.64052 0.25879 0.0
Zn271 Zn 0.23306 0.65109 0.31302 0.0
O272 O 0.21133 0.63442 0.33601 0.0
O273 O 0.1868 0.64995 0.32414 0.0
O274 O 0.24794 0.64949 0.36566 0.0
O275 O 0.22218 0.66332 0.37729 0.0
O276 O 0.20538 0.68882 0.30411 0.0
O277 O 0.23356 0.67993 0.30204 0.0
C278 C 0.1943 0.63586 0.33881 0.0
C279 C 0.2219 0.69253 0.30068 0.0
C280 C 0.56274 0.02929 0.07218 0.0
C281 C 0.62034 0.05525 0.03559 0.0
O282 O 0.57495 0.01722 0.07053 0.0
Zn283 Zn 0.60386 0.01684 0.05965 0.0
O284 O 0.56698 0.04569 0.06907 0.0
Zn285 Zn 0.59213 0.04196 0.06211 0.0
O286 O 0.59195 0.02829 0.99553 0.0
O287 O 0.60505 0.00213 0.00659 0.0
O288 O 0.60641 0.06303 0.05026 0.0
O289 O 0.62128 0.03816 0.03762 0.0
O290 O 0.61396 0.00663 0.11385 0.0
O291 O 0.59997 0.03179 0.12882 0.0
C292 C 0.59737 0.01316 0.97992 0.0
C293 C 0.60845 0.01792 0.14293 0.0
C294 C 0.23839 0.34444 0.23742 0.0
C295 C 0.23328 0.35612 0.40023 0.0
O296 O 0.22322 0.33907 0.25299 0.0
Zn297 Zn 0.20943 0.33948 0.31952 0.0
O298 O 0.2494 0.35214 0.26412 0.0
Zn299 Zn 0.23457 0.35113 0.317 0.0
O300 O 0.23412 0.32226 0.32831 0.0
O301 O 0.20562 0.3144 0.32695 0.0
O302 O 0.24464 0.36148 0.37112 0.0
O303 O 0.21944 0.34758 0.38618 0.0
O304 O 0.18838 0.35369 0.3069 0.0
O305 O 0.21331 0.36842 0.29386 0.0
C306 C 0.222 0.3101 0.33009 0.0
C307 C 0.19624 0.36747 0.29156 0.0
C308 C 0.89351 0.98177 0.64602 0.0
C309 C 0.90478 0.98723 0.48331 0.0
O310 O 0.90226 0.9681 0.6317 0.0
Zn311 Zn 0.91044 0.95831 0.56495 0.0
O312 O 0.88787 0.99308 0.61715 0.0
Zn313 Zn 0.89824 0.98326 0.56286 0.0
O314 O 0.88128 0.96171 0.54016 0.0
O315 O 0.89653 0.93703 0.55225 0.0
O316 O 0.89685 0.99808 0.51002 0.0
O317 O 0.91044 0.97217 0.49877 0.0
O318 O 0.93569 0.95513 0.57192 0.0
O319 O 0.92712 0.98341 0.5738 0.0
C320 C 0.88251 0.94465 0.53758 0.0
C321 C 0.93958 0.97161 0.57523 0.0
C322 C 0.30257 0.63343 0.78857 0.0
C323 C 0.27496 0.6904 0.82361 0.0
O324 O 0.28551 0.63207 0.79021 0.0
Zn325 Zn 0.26365 0.64895 0.81144 0.0
O326 O 0.30996 0.64755 0.80338 0.0
Zn327 Zn 0.28849 0.66132 0.81458 0.0
O328 O 0.27823 0.65333 0.88091 0.0
O329 O 0.25345 0.63872 0.86554 0.0
O330 O 0.29148 0.68656 0.82125 0.0
O331 O 0.26322 0.67788 0.82182 0.0
O332 O 0.24927 0.64731 0.7578 0.0
O333 O 0.27516 0.66109 0.74775 0.0
C334 C 0.26451 0.64457 0.89481 0.0
C335 C 0.26027 0.6553 0.73158 0.0
C336 C 0.38536 0.05808 0.53771 0.0
C337 C 0.43695 0.02141 0.5718 0.0
O338 O 0.40088 0.06283 0.55022 0.0
Zn339 Zn 0.41044 0.03952 0.56334 0.0
O340 O 0.38084 0.0416 0.54059 0.0
Zn341 Zn 0.3942 0.01705 0.55957 0.0
O342 O 0.38294 0.00805 0.61368 0.0
O343 O 0.40035 0.0309 0.62921 0.0
O344 O 0.42278 0.01186 0.56752 0.0
O345 O 0.43573 0.03833 0.57286 0.0
O346 O 0.40802 0.02663 0.49606 0.0
O347 O 0.38992 0.00354 0.50554 0.0
C348 C 0.38992 0.01838 0.64301 0.0
C349 C 0.3997 0.01305 0.47951 0.0
C350 C 0.73709 0.63863 0.39302 0.0
C351 C 0.74128 0.64973 0.22997 0.0
O352 O 0.74805 0.63274 0.36357 0.0
Zn353 Zn 0.73812 0.64349 0.30967 0.0
O354 O 0.72374 0.648 0.37953 0.0
Zn355 Zn 0.71397 0.65739 0.3145 0.0
O356 O 0.69164 0.64492 0.30274 0.0
O357 O 0.7152 0.62811 0.28937 0.0
O358 O 0.72691 0.6565 0.2469 0.0
O359 O 0.75187 0.6409 0.25551 0.0
O360 O 0.74049 0.67222 0.31809 0.0
O361 O 0.71304 0.68289 0.32426 0.0
C362 C 0.69825 0.63042 0.28774 0.0
C363 C 0.72981 0.68553 0.32258 0.0
C364 C 0.1227 0.95012 0.03836 0.0
C365 C 0.06689 0.98036 0.07242 0.0
O366 O 0.10842 0.94323 0.05388 0.0
Zn367 Zn 0.09543 0.96531 0.06486 0.0
O368 O 0.12463 0.96713 0.03949 0.0
Zn369 Zn 0.10868 0.98975 0.05929 0.0
O370 O 0.11911 1.00026 0.11288 0.0
O371 O 0.10442 0.9757 0.12974 0.0
O372 O 0.07989 0.9914 0.06757 0.0
O373 O 0.06999 0.96368 0.07453 0.0
O374 O 0.09608 0.97792 -0.00331 0.0
O375 O 0.11096 0.00333 0.0048 0.0
C376 C 0.1134 0.98939 0.14278 0.0
C377 C 0.10252 0.99237 0.9794 0.0
C378 C 0.76502 0.36256 0.89676 0.0
C379 C 0.76105 0.35153 0.73358 0.0
O380 O 0.75411 0.36845 0.86723 0.0
Zn381 Zn 0.76418 0.35782 0.81328 0.0
O382 O 0.77847 0.35332 0.88329 0.0
Zn383 Zn 0.78842 0.34415 0.81817 0.0
O384 O 0.81065 0.35683 0.80653 0.0
O385 O 0.78697 0.37342 0.79282 0.0
O386 O 0.77549 0.3449 0.75049 0.0
O387 O 0.75038 0.36026 0.75915 0.0
O388 O 0.76209 0.32905 0.8217 0.0
O389 O 0.78965 0.31868 0.82786 0.0
C390 C 0.80394 0.37124 0.7913 0.0
C391 C 0.77292 0.31586 0.82621 0.0
C392 C 0.40016 0.98826 0.14064 0.0
C393 C 0.3906 0.98359 0.97697 0.0
O394 O 0.3902 0.99767 0.11484 0.0
Zn395 Zn 0.39485 0.98454 0.06047 0.0
O396 O 0.40884 0.97497 0.12371 0.0
Zn397 Zn 0.41159 0.96252 0.05588 0.0
O398 O 0.43683 0.96433 0.0464 0.0
O399 O 0.42331 0.99047 0.05273 0.0
O400 O 0.40133 0.97125 0.99032 0.0
O401 O 0.38336 0.99357 0.00669 0.0
O402 O 0.3821 0.95956 0.07872 0.0
O403 O 0.4026 0.93889 0.06783 0.0
C404 C 0.43768 0.98125 0.04805 0.0
C405 C 0.38702 0.94317 0.08098 0.0
C406 C 0.7634 0.65091 0.89087 0.0
C407 C 0.76885 0.63962 0.72817 0.0
O408 O 0.75314 0.64186 0.86492 0.0
Zn409 Zn 0.76716 0.64471 0.81134 0.0
O410 O 0.7777 0.65799 0.87447 0.0
Zn411 Zn 0.79102 0.65913 0.80734 0.0
O412 O 0.79142 0.68463 0.79733 0.0
O413 O 0.76419 0.67336 0.80254 0.0
O414 O 0.7819 0.64933 0.74201 0.0
O415 O 0.75783 0.63361 0.75728 0.0
O416 O 0.79028 0.62988 0.83272 0.0
O417 O 0.81357 0.64718 0.82022 0.0
C418 C 0.77459 0.6869 0.79833 0.0
C419 C 0.80716 0.63256 0.83508 0.0
C420 C 0.10068 0.01534 0.64028 0.0
C421 C 0.11078 0.02234 0.47742 0.0
O422 O 0.1109 0.00637 0.61409 0.0
Zn423 Zn 0.10618 0.02003 0.56053 0.0
O424 O 0.0919 0.0287 0.62416 0.0
Zn425 Zn 0.08912 0.04195 0.5576 0.0
O426 O 0.06389 0.03978 0.54759 0.0
O427 O 0.07786 0.01381 0.55208 0.0
O428 O 0.09984 0.03433 0.49166 0.0
O429 O 0.11792 0.0119 0.50624 0.0
O430 O 0.1186 0.0449 0.58053 0.0
O431 O 0.09782 0.0655 0.57219 0.0
C432 C 0.06333 0.02282 0.54807 0.0
C433 C 0.11351 0.06119 0.58437 0.0
C434 C 0.69392 0.36624 0.33864 0.0
C435 C 0.72822 0.31298 0.30226 0.0
O436 O 0.68801 0.35141 0.32386 0.0
Zn437 Zn 0.71096 0.34024 0.31107 0.0
O438 O 0.7107 0.36949 0.33624 0.0
Zn439 Zn 0.73433 0.35539 0.31502 0.0
O440 O 0.74335 0.36673 0.26093 0.0
O441 O 0.71981 0.35023 0.24558 0.0
O442 O 0.73822 0.32683 0.30642 0.0
O443 O 0.71133 0.31475 0.30124 0.0
O444 O 0.7242 0.34187 0.3783 0.0
O445 O 0.74823 0.35877 0.36857 0.0
C446 C 0.73257 0.36033 0.23177 0.0
C447 C 0.73827 0.34944 0.39462 0.0
C448 C 0.96475 0.5044 0.09797 0.0
C449 C 0.95995 0.51995 0.07425 0.0
C450 C 0.98221 0.49757 0.09514 0.0
C451 C 0.99489 0.50611 0.06638 0.0
C452 C 0.99001 0.52176 0.04205 0.0
C453 C 0.97268 0.52867 0.04697 0.0
C454 C 0.98709 0.48125 0.12293 0.0
C455 C 0.00294 0.53094 0.00994 0.0
C456 C 0.04461 0.49908 0.08476 0.0
C457 C 0.0484 0.48546 0.05318 0.0
C458 C 0.02718 0.50561 0.09014 0.0
C459 C 0.01333 0.49883 0.06198 0.0
C460 C 0.01717 0.4853 0.02932 0.0
C461 C 0.03464 0.47848 0.026 0.0
C462 C 0.02354 0.51957 0.12647 0.0
C463 C 0.0029 0.47816 -0.00239 0.0
H464 H 0.95487 0.49766 0.11902 0.0
H465 H 0.96887 0.54053 0.02796 0.0
H466 H 0.99073 0.4701 0.09965 0.0
H467 H 0.99895 0.48413 0.14461 0.0
H468 H 0.97598 0.47678 0.1455 0.0
H469 H 0.99684 0.54262 0.99233 0.0
H470 H 0.01484 0.53558 0.02925 0.0
H471 H 0.00768 0.52136 0.98351 0.0
H472 H 0.05524 0.50424 0.10635 0.0
H473 H 0.03763 0.46794 0.00161 0.0
H474 H 0.01289 0.51482 0.15005 0.0
H475 H 0.01866 0.53204 0.11019 0.0
H476 H 0.03563 0.52277 0.14707 0.0
H477 H 0.99208 0.47182 0.01792 0.0
H478 H 0.00823 0.46818 0.9729 0.0
H479 H 0.9968 0.48932 0.97798 0.0
C480 C 0.75493 0.78766 0.27475 0.0
C481 C 0.77038 0.79274 0.2985 0.0
C482 C 0.74839 0.77009 0.27763 0.0
C483 C 0.75713 0.75757 0.30647 0.0
C484 C 0.77269 0.76273 0.33076 0.0
C485 C 0.77932 0.78017 0.3258 0.0
C486 C 0.73215 0.76492 0.24987 0.0
C487 C 0.78207 0.74998 0.36295 0.0
C488 C 0.72989 0.71759 0.3472 0.0
C489 C 0.73698 0.70386 0.3201 0.0
C490 C 0.73656 0.73511 0.34379 0.0
C491 C 0.75007 0.73904 0.31112 0.0
C492 C 0.75699 0.72522 0.28308 0.0
C493 C 0.75059 0.70773 0.28855 0.0
C494 C 0.72929 0.74936 0.37538 0.0
C495 C 0.77092 0.72894 0.24674 0.0
H496 H 0.74802 0.79741 0.25369 0.0
H497 H 0.7911 0.7842 0.34483 0.0
H498 H 0.73519 0.75304 0.22841 0.0
H499 H 0.72103 0.76121 0.27317 0.0
H500 H 0.72756 0.77591 0.22708 0.0
H501 H 0.7937 0.75626 0.38036 0.0
H502 H 0.77258 0.7452 0.38955 0.0
H503 H 0.78681 0.73809 0.34378 0.0
H504 H 0.71936 0.71455 0.37158 0.0
H505 H 0.75585 0.69713 0.26702 0.0
H506 H 0.72277 0.76004 0.35497 0.0
H507 H 0.74039 0.75565 0.39482 0.0
H508 H 0.71941 0.74395 0.40025 0.0
H509 H 0.76603 0.73945 0.22294 0.0
H510 H 0.7743 0.71684 0.22639 0.0
H511 H 0.78331 0.73406 0.26297 0.0
C512 C 0.46065 0.50733 0.52079 0.0
C513 C 0.45582 0.52264 0.5455 0.0
C514 C 0.47807 0.50039 0.52357 0.0
C515 C 0.49067 0.50857 0.55323 0.0
C516 C 0.48579 0.52403 0.57834 0.0
C517 C 0.46851 0.53106 0.57352 0.0
C518 C 0.48295 0.48428 0.49498 0.0
C519 C 0.49864 0.53281 0.61137 0.0
C520 C 0.52958 0.47981 0.59373 0.0
C521 C 0.54365 0.48664 0.56736 0.0
C522 C 0.5123 0.48707 0.59018 0.0
C523 C 0.50896 0.50095 0.55814 0.0
C524 C 0.52313 0.50765 0.53091 0.0
C525 C 0.54037 0.50063 0.53648 0.0
C526 C 0.49767 0.47998 0.6209 0.0
C527 C 0.52003 0.52199 0.49527 0.0
H528 H 0.45081 0.50082 0.49917 0.0
H529 H 0.46468 0.54273 0.59329 0.0
H530 H 0.49507 0.48716 0.47425 0.0
H531 H 0.48616 0.47284 0.51773 0.0
H532 H 0.47199 0.48024 0.47143 0.0
H533 H 0.49264 0.54454 0.62898 0.0
H534 H 0.50294 0.52302 0.63779 0.0
H535 H 0.51081 0.53726 0.59287 0.0
H536 H 0.53216 0.46899 0.61761 0.0
H537 H 0.55122 0.50571 0.51551 0.0
H538 H 0.48693 0.47392 0.59979 0.0
H539 H 0.49159 0.49112 0.64067 0.0
H540 H 0.50265 0.46977 0.64547 0.0
H541 H 0.50956 0.51759 0.47072 0.0
H542 H 0.53235 0.52524 0.47566 0.0
H543 H 0.51512 0.53437 0.512 0.0
C544 C 0.7244 0.22072 0.83053 0.0
C545 C 0.73348 0.20818 0.80345 0.0
C546 C 0.73086 0.23823 0.83532 0.0
C547 C 0.74641 0.24349 0.81108 0.0
C548 C 0.75531 0.23099 0.78252 0.0
C549 C 0.74894 0.21335 0.7798 0.0
C550 C 0.72131 0.25096 0.86725 0.0
C551 C 0.77154 0.23626 0.75481 0.0
C552 C 0.75242 0.29335 0.79236 0.0
C553 C 0.76595 0.29745 0.82394 0.0
C554 C 0.74623 0.27578 0.78714 0.0
C555 C 0.75325 0.2621 0.81546 0.0
C556 C 0.76667 0.26627 0.84816 0.0
C557 C 0.77315 0.28387 0.85133 0.0
C558 C 0.73239 0.27181 0.75076 0.0
C559 C 0.77406 0.25218 0.88006 0.0
H560 H 0.71261 0.21662 0.84947 0.0
H561 H 0.75596 0.20363 0.7589 0.0
H562 H 0.73072 0.25594 0.89379 0.0
H563 H 0.71644 0.26274 0.84784 0.0
H564 H 0.70974 0.2446 0.88474 0.0
H565 H 0.7763 0.22525 0.73231 0.0
H566 H 0.7684 0.24803 0.73307 0.0
H567 H 0.78257 0.24017 0.77815 0.0
H568 H 0.74707 0.30384 0.77062 0.0
H569 H 0.78361 0.28709 0.87574 0.0
H570 H 0.72002 0.26662 0.76698 0.0
H571 H 0.73741 0.26129 0.7272 0.0
H572 H 0.72891 0.28382 0.73016 0.0
H573 H 0.763 0.24582 0.89954 0.0
H574 H 0.78385 0.25776 0.9049 0.0
H575 H 0.78071 0.24151 0.85989 0.0
C576 C 0.03314 0.52221 0.59994 0.0
C577 C 0.04696 0.51522 0.57301 0.0
C578 C 0.01569 0.51535 0.59656 0.0
C579 C 0.01193 0.50172 0.56408 0.0
C580 C 0.02586 0.49486 0.5363 0.0
C581 C 0.04328 0.50146 0.54174 0.0
C582 C 0.00133 0.52258 0.62788 0.0
C583 C 0.02232 0.4808 0.50018 0.0
C584 C 0.97087 0.47241 0.57891 0.0
C585 C 0.95831 0.48127 0.55145 0.0
C586 C 0.98831 0.47905 0.58379 0.0
C587 C 0.99346 0.49456 0.55926 0.0
C588 C 0.98096 0.50321 0.5302 0.0
C589 C 0.9634 0.49666 0.52739 0.0
C590 C 1.00104 0.46978 0.61623 0.0
C591 C 0.98612 0.51938 0.50219 0.0
H592 H 0.03603 0.53285 0.6241 0.0
H593 H 0.05395 0.49627 0.52034 0.0
H594 H 0.99068 0.52904 0.60726 0.0
H595 H 0.99503 0.51147 0.64727 0.0
H596 H 0.00663 0.5325 0.65279 0.0
H597 H 0.0345 0.47739 0.48019 0.0
H598 H 0.01717 0.46845 0.51652 0.0
H599 H 0.01189 0.48559 0.47602 0.0
H600 H 0.96684 0.46068 0.59817 0.0
H601 H 0.95365 0.5035 0.50619 0.0
H602 H 0.00568 0.47933 0.64287 0.0
H603 H 0.01302 0.46512 0.5973 0.0
H604 H 0.99481 0.45812 0.63358 0.0
H605 H 0.98969 0.5306 0.52535 0.0
H606 H 0.97518 0.52384 0.47909 0.0
H607 H 0.99809 0.51636 0.48105 0.0
C608 C 0.77407 0.71896 0.77378 0.0
C609 C 0.76701 0.70507 0.80037 0.0
C610 C 0.76704 0.73635 0.77691 0.0
C611 C 0.75318 0.74 0.8088 0.0
C612 C 0.74626 0.72601 0.83628 0.0
C613 C 0.75303 0.70865 0.83108 0.0
C614 C 0.77435 0.75078 0.74591 0.0
C615 C 0.73194 0.72943 0.87181 0.0
C616 C 0.74735 0.78846 0.84561 0.0
C617 C 0.73203 0.79339 0.82106 0.0
C618 C 0.75414 0.77098 0.84286 0.0
C619 C 0.74582 0.75841 0.81335 0.0
C620 C 0.73039 0.76342 0.78827 0.0
C621 C 0.7235 0.78076 0.7931 0.0
C622 C 0.7702 0.76597 0.87146 0.0
C623 C 0.72146 0.75062 0.75536 0.0
H624 H 0.78488 0.71615 0.75004 0.0
H625 H 0.74778 0.69793 0.85224 0.0
H626 H 0.76331 0.75697 0.72602 0.0
H627 H 0.78057 0.7615 0.76681 0.0
H628 H 0.78449 0.74557 0.72145 0.0
H629 H 0.72853 0.71722 0.8917 0.0
H630 H 0.73646 0.73992 0.89613 0.0
H631 H 0.71964 0.73443 0.85494 0.0
H632 H 0.75395 0.79826 0.86718 0.0
H633 H 0.71183 0.78468 0.77346 0.0
H634 H 0.78158 0.7625 0.84873 0.0
H635 H 0.76717 0.75398 0.8925 0.0
H636 H 0.77443 0.77696 0.89473 0.0
H637 H 0.73124 0.74607 0.72917 0.0
H638 H 0.70988 0.75677 0.73747 0.0
H639 H 0.71676 0.7386 0.77404 0.0
C640 C 0.5396 0.50425 0.02184 0.0
C641 C 0.54448 0.51984 0.04534 0.0
C642 C 0.52201 0.49771 0.02405 0.0
C643 C 0.50926 0.50659 0.05191 0.0
C644 C 0.51421 0.52228 0.07592 0.0
C645 C 0.53168 0.52889 0.07168 0.0
C646 C 0.51708 0.48131 -0.00337 0.0
C647 C 0.50119 0.53184 0.10706 0.0
C648 C 0.4595 0.50022 0.03233 0.0
C649 C 0.45533 0.48696 0.06458 0.0
C650 C 0.47708 0.50637 0.02701 0.0
C651 C 0.4907 0.49957 0.05587 0.0
C652 C 0.48649 0.48635 0.08907 0.0
C653 C 0.46887 0.47992 0.09238 0.0
C654 C 0.48111 0.52 0.99015 0.0
C655 C 0.50051 0.47919 0.12149 0.0
H656 H 0.54951 0.49725 0.0015 0.0
H657 H 0.53554 0.54078 0.09052 0.0
H658 H 0.51315 0.47033 0.02015 0.0
H659 H 0.50539 0.48422 0.97439 0.0
H660 H 0.52826 0.47657 0.97467 0.0
H661 H 0.50733 0.54356 0.12443 0.0
H662 H 0.48948 0.5365 0.08705 0.0
H663 H 0.49616 0.52249 0.1337 0.0
H664 H 0.44905 0.50545 0.0103 0.0
H665 H 0.4656 0.46966 0.11732 0.0
H666 H 0.49186 0.51497 0.96727 0.0
H667 H 0.48603 0.53254 0.00603 0.0
H668 H 0.4692 0.52318 0.96888 0.0
H669 H 0.51138 0.47267 0.10177 0.0
H670 H 0.49494 0.46936 0.14625 0.0
H671 H 0.5066 0.49037 0.14107 0.0
C672 C 0.72951 0.28092 0.27807 0.0
C673 C 0.73633 0.29504 0.30427 0.0
C674 C 0.73691 0.26369 0.28141 0.0
C675 C 0.75093 0.26044 0.31312 0.0
C676 C 0.75766 0.27467 0.3401 0.0
C677 C 0.75049 0.29187 0.3347 0.0
C678 C 0.72979 0.24901 0.25092 0.0
C679 C 0.77213 0.27166 0.37543 0.0
C680 C 0.75726 0.21219 0.35091 0.0
C681 C 0.7725 0.20726 0.32601 0.0
C682 C 0.7504 0.22963 0.3481 0.0
C683 C 0.75855 0.24216 0.31819 0.0
C684 C 0.77393 0.23719 0.2929 0.0
C685 C 0.78092 0.21988 0.29778 0.0
C686 C 0.73437 0.2346 0.37691 0.0
C687 C 0.78268 0.24995 0.25957 0.0
H688 H 0.71855 0.28341 0.25454 0.0
H689 H 0.75557 0.30276 0.35555 0.0
H690 H 0.7409 0.24285 0.23124 0.0
H691 H 0.7237 0.23833 0.27222 0.0
H692 H 0.71959 0.25396 0.2263 0.0
H693 H 0.77548 0.28405 0.39464 0.0
H694 H 0.76778 0.26131 0.40036 0.0
H695 H 0.78442 0.26664 0.35853 0.0
H696 H 0.75076 0.20239 0.37269 0.0
H697 H 0.79253 0.21597 0.27789 0.0
H698 H 0.72286 0.23774 0.35433 0.0
H699 H 0.73731 0.24678 0.39733 0.0
H700 H 0.7304 0.22371 0.40077 0.0
H701 H 0.77285 0.25418 0.23317 0.0
H702 H 0.79439 0.24391 0.24197 0.0
H703 H 0.78715 0.26217 0.2778 0.0
C704 C 0.28198 0.27974 0.83108 0.0
C705 C 0.27265 0.29224 0.80446 0.0
C706 C 0.27587 0.26209 0.83522 0.0
C707 C 0.26042 0.25669 0.81083 0.0
C708 C 0.25142 0.26909 0.78222 0.0
C709 C 0.25744 0.28685 0.78012 0.0
C710 C 0.28549 0.24945 0.86724 0.0
C711 C 0.23526 0.2637 0.75444 0.0
C712 C 0.25233 0.20695 0.7941 0.0
C713 C 0.23837 0.20382 0.82516 0.0
C714 C 0.25963 0.22412 0.7889 0.0
C715 C 0.25323 0.23828 0.81667 0.0
C716 C 0.23962 0.23496 0.84946 0.0
C717 C 0.23209 0.21783 0.85263 0.0
C718 C 0.27368 0.22724 0.75253 0.0
C719 C 0.23286 0.24956 0.88082 0.0
H720 H 0.2936 0.284 0.85046 0.0
H721 H 0.25026 0.29654 0.75947 0.0
H722 H 0.2763 0.2452 0.89513 0.0
H723 H 0.28964 0.23722 0.84855 0.0
H724 H 0.29751 0.25563 0.88301 0.0
H725 H 0.23084 0.27445 0.73069 0.0
H726 H 0.23825 0.25153 0.73403 0.0
H727 H 0.22402 0.2604 0.77781 0.0
H728 H 0.25697 0.19614 0.77234 0.0
H729 H 0.22129 0.21535 0.87665 0.0
H730 H 0.28593 0.23291 0.76821 0.0
H731 H 0.26871 0.23714 0.72717 0.0
H732 H 0.27729 0.21478 0.734 0.0
H733 H 0.24422 0.256 0.89889 0.0
H734 H 0.22329 0.24444 0.90686 0.0
H735 H 0.22609 0.26005 0.86029 0.0
C736 C 0.25043 0.796 0.29508 0.0
C737 C 0.26465 0.7986 0.32568 0.0
C738 C 0.24276 0.77904 0.28919 0.0
C739 C 0.24905 0.76451 0.31583 0.0
C740 C 0.26297 0.76726 0.34811 0.0
C741 C 0.27087 0.78422 0.35193 0.0
C742 C 0.2284 0.77653 0.25332 0.0
C743 C 0.26962 0.75225 0.37828 0.0
C744 C 0.21912 0.7238 0.32873 0.0
C745 C 0.22785 0.71131 0.30073 0.0
C746 C 0.22586 0.74118 0.33399 0.0
C747 C 0.24134 0.74634 0.30934 0.0
C748 C 0.24975 0.73397 0.27944 0.0
C749 C 0.2431 0.71646 0.27624 0.0
C750 C 0.21687 0.75375 0.36734 0.0
C751 C 0.2659 0.73916 0.25134 0.0
H752 H 0.24584 0.80709 0.27419 0.0
H753 H 0.28188 0.78627 0.37557 0.0
H754 H 0.2329 0.76664 0.22738 0.0
H755 H 0.21608 0.77115 0.26935 0.0
H756 H 0.22503 0.78921 0.23541 0.0
H757 H 0.27953 0.75693 0.40405 0.0
H758 H 0.25825 0.74594 0.39663 0.0
H759 H 0.27596 0.74178 0.35683 0.0
H760 H 0.20748 0.71971 0.34827 0.0
H761 H 0.24984 0.70677 0.2546 0.0
H762 H 0.21284 0.76623 0.3496 0.0
H763 H 0.22642 0.75755 0.39485 0.0
H764 H 0.20485 0.74772 0.38354 0.0
H765 H 0.26313 0.75157 0.23173 0.0
H766 H 0.26988 0.7285 0.22681 0.0
H767 H 0.27735 0.74195 0.27442 0.0
C768 C 0.24688 0.20562 0.33627 0.0
C769 C 0.26058 0.20254 0.30444 0.0
C770 C 0.23981 0.22282 0.34256 0.0
C771 C 0.24618 0.2371 0.31512 0.0
C772 C 0.25954 0.23385 0.2816 0.0
C773 C 0.26686 0.21666 0.27734 0.0
C774 C 0.22604 0.22585 0.37968 0.0
C775 C 0.26624 0.24858 0.25058 0.0
C776 C 0.21763 0.27881 0.30355 0.0
C777 C 0.22721 0.2911 0.33028 0.0
C778 C 0.2236 0.26115 0.29845 0.0
C779 C 0.23917 0.25551 0.32197 0.0
C780 C 0.24842 0.26769 0.3507 0.0
C781 C 0.24253 0.28547 0.35376 0.0
C782 C 0.2137 0.24876 0.26634 0.0
C783 C 0.26472 0.26202 0.37758 0.0
H784 H 0.24226 0.19471 0.35776 0.0
H785 H 0.27746 0.21422 0.25274 0.0
H786 H 0.23124 0.23559 0.40513 0.0
H787 H 0.21371 0.23166 0.36474 0.0
H788 H 0.22247 0.21331 0.39796 0.0
H789 H 0.27562 0.24354 0.22397 0.0
H790 H 0.25483 0.25521 0.23319 0.0
H791 H 0.2732 0.25889 0.27126 0.0
H792 H 0.20593 0.28325 0.2848 0.0
H793 H 0.24991 0.29499 0.37447 0.0
H794 H 0.20957 0.23646 0.28472 0.0
H795 H 0.22269 0.24462 0.23792 0.0
H796 H 0.20163 0.25512 0.25129 0.0
H797 H 0.26178 0.24975 0.39762 0.0
H798 H 0.26936 0.2726 0.40157 0.0
H799 H 0.27578 0.2588 0.35361 0.0
C800 C 0.27836 0.72164 0.79593 0.0
C801 C 0.2692 0.70923 0.82324 0.0
C802 C 0.27216 0.73924 0.79134 0.0
C803 C 0.2568 0.74472 0.81604 0.0
C804 C 0.24781 0.73235 0.8448 0.0
C805 C 0.25392 0.71462 0.8473 0.0
C806 C 0.28178 0.75183 0.75919 0.0
C807 C 0.23178 0.73785 0.87296 0.0
C808 C 0.25172 0.79465 0.83513 0.0
C809 C 0.23814 0.79899 0.8039 0.0
C810 C 0.25763 0.77697 0.84013 0.0
C811 C 0.25025 0.76344 0.81194 0.0
C812 C 0.23679 0.76784 0.77958 0.0
C813 C 0.23062 0.78555 0.77663 0.0
C814 C 0.27155 0.77275 0.87611 0.0
C815 C 0.22904 0.7539 0.74784 0.0
H816 H 0.29001 0.71737 0.77668 0.0
H817 H 0.24685 0.70499 0.86839 0.0
H818 H 0.27232 0.757 0.73298 0.0
H819 H 0.28694 0.76351 0.77853 0.0
H820 H 0.29315 0.74529 0.74131 0.0
H821 H 0.22692 0.7269 0.89548 0.0
H822 H 0.23521 0.74954 0.89472 0.0
H823 H 0.22073 0.74199 0.84994 0.0
H824 H 0.25733 0.80503 0.85678 0.0
H825 H 0.22012 0.78896 0.75249 0.0
H826 H 0.28375 0.76735 0.85954 0.0
H827 H 0.26644 0.7623 0.89978 0.0
H828 H 0.27532 0.78468 0.89666 0.0
H829 H 0.2399 0.74737 0.72803 0.0
H830 H 0.21923 0.75965 0.7233 0.0
H831 H 0.22229 0.74333 0.76815 0.0
C832 C 0.45801 0.99897 0.53963 0.0
C833 C 0.4547 0.01292 0.5706 0.0
C834 C 0.47528 0.99196 0.53423 0.0
C835 C 0.4894 0.99863 0.56172 0.0
C836 C 0.48594 0.01228 0.59429 0.0
C837 C 0.46868 0.01953 0.59764 0.0
C838 C 0.47853 0.97786 0.49806 0.0
C839 C 0.50048 0.01932 0.62537 0.0
C840 C 0.5309 0.96993 0.576 0.0
C841 C 0.54333 0.97912 0.54883 0.0
C842 C 0.51329 0.97613 0.58057 0.0
C843 C 0.50785 0.99153 0.55603 0.0
C844 C 0.52019 1.00044 0.52704 0.0
C845 C 0.53792 0.99433 0.52453 0.0
C846 C 0.50073 0.96662 0.61301 0.0
C847 C 0.51474 0.01654 0.49908 0.0
H848 H 0.44722 0.99407 0.51818 0.0
H849 H 0.46606 0.03033 0.62158 0.0
H850 H 0.48853 0.98278 0.47287 0.0
H851 H 0.48414 0.96563 0.51403 0.0
H852 H 0.46613 0.97421 0.47929 0.0
H853 H 0.4953 0.02899 0.65108 0.0
H854 H 0.507 0.00809 0.64383 0.0
H855 H 0.51093 0.02604 0.60459 0.0
H856 H 0.53517 0.95831 0.59537 0.0
H857 H 0.54755 0.00142 0.50349 0.0
H858 H 0.48858 0.96219 0.59444 0.0
H859 H 0.49635 0.97595 0.64042 0.0
H860 H 0.50703 0.95478 0.62939 0.0
H861 H 0.50261 0.01344 0.47864 0.0
H862 H 0.52548 0.02098 0.47533 0.0
H863 H 0.51135 0.02779 0.5223 0.0
C864 C 0.96391 0.00321 0.0285 0.0
C865 C 0.9588 0.0187 0.0521 0.0
C866 C 0.98158 0.99691 0.03072 0.0
C867 C 0.99418 0.00593 0.05872 0.0
C868 C 0.98898 0.0215 0.08296 0.0
C869 C 0.97143 0.02787 0.07867 0.0
C870 C 0.98677 0.98066 0.00305 0.0
C871 C 0.00184 0.03118 0.11429 0.0
C872 C 0.03499 0.9797 0.09813 0.0
C873 C 0.04837 0.98701 0.07026 0.0
C874 C 0.0173 0.98594 0.09529 0.0
C875 C 0.01285 0.99922 0.06247 0.0
C876 C 0.02632 0.00632 0.0336 0.0
C877 C 0.04399 1.00037 0.03848 0.0
C878 C 0.00343 0.97849 0.12774 0.0
C879 C 0.02205 0.02003 -0.00289 0.0
H880 H 0.95411 0.99613 0.00797 0.0
H881 H 0.96739 0.03969 0.09757 0.0
H882 H 0.99838 0.98383 0.98073 0.0
H883 H 0.99093 0.96971 0.02638 0.0
H884 H 0.97565 0.97576 0.98113 0.0
H885 H 0.9955 0.04271 0.13197 0.0
H886 H 0.00706 0.02183 0.14067 0.0
H887 H 0.01345 0.03612 0.09434 0.0
H888 H 0.03844 0.96937 0.12269 0.0
H889 H 0.05433 0.0058 0.0164 0.0
H890 H 0.99268 0.97178 0.10801 0.0
H891 H 0.99715 0.98952 0.14744 0.0
H892 H 0.0092 0.96873 0.15238 0.0
H893 H 0.01139 0.01488 0.97412 0.0
H894 H 0.0339 0.0235 0.97591 0.0
H895 H 0.0169 0.03241 0.01332 0.0
C896 C 0.53139 0.03342 0.04577 0.0
C897 C 0.54376 0.02399 0.07258 0.0
C898 C 0.51373 0.02738 0.04109 0.0
C899 C 0.50818 0.01189 0.06512 0.0
C900 C 0.52045 0.00278 0.0939 0.0
C901 C 0.53822 0.00875 0.09654 0.0
C902 C 0.50124 0.03711 0.00891 0.0
C903 C 0.5149 0.98658 0.12131 0.0
C904 C 0.45836 0.00397 0.08067 0.0
C905 C 0.45526 0.9901 0.04934 0.0
C906 C 0.47554 0.01118 0.08633 0.0
C907 C 0.48977 0.00478 0.05877 0.0
C908 C 0.48649 0.99125 0.02573 0.0
C909 C 0.46933 0.98381 0.02209 0.0
C910 C 0.4786 0.02514 0.12296 0.0
C911 C 0.50116 0.9845 0.99459 0.0
H912 H 0.53576 0.04507 0.02666 0.0
H913 H 0.5478 0.00149 0.11733 0.0
H914 H 0.49705 0.028 0.98081 0.0
H915 H 0.48897 0.04128 0.02738 0.0
H916 H 0.50754 0.04914 0.99343 0.0
H917 H 0.52555 0.98206 0.14522 0.0
H918 H 0.50268 0.98957 0.14151 0.0
H919 H 0.51162 0.97542 0.0977 0.0
H920 H 0.4475 0.00862 0.10226 0.0
H921 H 0.46688 0.97308 -0.00214 0.0
H922 H 0.48436 0.03741 0.10755 0.0
H923 H 0.48841 0.02009 0.14844 0.0
H924 H 0.46609 0.02876 0.1413 0.0
H925 H 0.50769 0.99588 0.97679 0.0
H926 H 0.49608 0.975 0.96832 0.0
H927 H 0.51155 0.97766 0.01524 0.0
C928 C 0.04332 0.99942 0.58014 0.0
C929 C 0.04592 0.01363 0.54951 0.0
C930 C 0.02634 0.99179 0.58616 0.0
C931 C 0.01179 0.99813 0.55965 0.0
C932 C 0.01455 0.01202 0.52731 0.0
C933 C 0.03153 0.01988 0.52334 0.0
C934 C 0.02383 0.97745 0.62209 0.0
C935 C 0.99953 0.01873 0.49725 0.0
C936 C 0.97083 0.9685 0.54715 0.0
C937 C 0.95843 0.97735 0.57516 0.0
C938 C 0.98827 0.97508 0.54181 0.0
C939 C 0.99359 0.99052 0.56639 0.0
C940 C 0.98131 0.99904 0.59634 0.0
C941 C 0.96374 0.99256 0.59962 0.0
C942 C 1.00074 0.96597 0.5084 0.0
C943 C 0.98665 0.01516 0.62437 0.0
H944 H 0.05442 0.9948 0.60096 0.0
H945 H 0.03359 0.03088 0.49968 0.0
H946 H 0.01404 0.98203 0.64821 0.0
H947 H 0.0183 0.96517 0.60618 0.0
H948 H 0.03652 0.97399 0.63976 0.0
H949 H 0.00422 0.02858 0.47135 0.0
H950 H 0.99313 0.00737 0.47906 0.0
H951 H 0.98913 0.02515 0.51879 0.0
H952 H 0.96662 0.9569 0.52763 0.0
H953 H 0.95413 0.99939 0.62128 0.0
H954 H 0.01323 0.96192 0.52602 0.0
H955 H 0.00452 0.97546 0.48073 0.0
H956 H 0.99462 0.95396 0.49244 0.0
H957 H 0.99909 0.01231 0.64381 0.0
H958 H 0.97607 0.0192 0.64904 0.0
H959 H 0.98946 0.02659 0.60124 0.0
C960 C 0.12823 0.50149 0.91587 0.0
C961 C 0.11631 0.4882 0.93069 0.0
C962 C 0.12939 0.50624 0.86933 0.0
C963 C 0.11823 0.49762 0.83696 0.0
C964 C 0.10661 0.48378 0.85145 0.0
C965 C 0.10587 0.47917 0.89814 0.0
C966 C 0.14214 0.52086 0.85503 0.0
C967 C 0.09445 0.47433 0.81792 0.0
C968 C 0.10495 0.52192 0.72777 0.0
C969 C 0.11533 0.51309 0.69473 0.0
C970 C 0.10607 0.51728 0.77439 0.0
C971 C 0.118 0.50363 0.7883 0.0
C972 C 0.12908 0.49521 0.75541 0.0
C973 C 0.12755 0.49997 0.70895 0.0
C974 C 0.09398 0.52652 0.80851 0.0
C975 C 0.14215 0.48078 0.76907 0.0
H976 H 0.13643 0.50846 0.94081 0.0
H977 H 0.09659 0.46893 0.90933 0.0
H978 H 0.15065 0.51626 0.82614 0.0
H979 H 0.13447 0.5326 0.84267 0.0
H980 H 0.15091 0.52521 0.88372 0.0
H981 H 0.08676 0.46336 0.83436 0.0
H982 H 0.08486 0.48404 0.80299 0.0
H983 H 0.10234 0.46869 0.7891 0.0
H984 H 0.09545 0.53203 0.71703 0.0
H985 H 0.1357 0.49316 0.68363 0.0
H986 H 0.10198 0.53231 0.83693 0.0
H987 H 0.08468 0.51665 0.82393 0.0
H988 H 0.08598 0.53735 0.79244 0.0
H989 H 0.15081 0.48552 0.79751 0.0
H990 H 0.15077 0.47656 0.73994 0.0
H991 H 0.13475 0.46893 0.78184 0.0
C992 C 0.7512 0.87263 0.95707 0.0
C993 C 0.73803 0.86064 0.942 0.0
C994 C 0.75605 0.87359 0.00356 0.0
C995 C 0.74766 0.86215 0.03566 0.0
C996 C 0.73398 0.85039 0.02093 0.0
C997 C 0.72925 0.84984 0.97426 0.0
C998 C 0.77049 0.88651 0.01809 0.0
C999 C 0.72476 0.83794 0.0542 0.0
C1000 C 0.7723 0.8498 0.14525 0.0
C1001 C 0.76335 0.86024 0.17796 0.0
C1002 C 0.7675 0.8505 0.09864 0.0
C1003 C 0.75356 0.86205 0.08443 0.0
C1004 C 0.74495 0.87312 0.11703 0.0
C1005 C 0.74989 0.87201 0.16343 0.0
C1006 C 0.77695 0.83845 0.06483 0.0
C1007 C 0.73021 0.88579 0.10308 0.0
H1008 H 0.75798 0.88109 0.93236 0.0
H1009 H 0.71912 0.84049 0.96283 0.0
H1010 H 0.76567 0.89503 0.04672 0.0
H1011 H 0.78225 0.87899 0.03094 0.0
H1012 H 0.77489 0.89527 0.98943 0.0
H1013 H 0.714 0.83003 0.03754 0.0
H1014 H 0.73467 0.82855 0.06915 0.0
H1015 H 0.71889 0.84565 0.08304 0.0
H1016 H 0.78265 0.84061 0.15625 0.0
H1017 H 0.74296 0.88019 0.1885 0.0
H1018 H 0.78269 0.84647 0.03637 0.0
H1019 H 0.76723 0.82899 0.04943 0.0
H1020 H 0.78786 0.83064 0.08115 0.0
H1021 H 0.73484 0.89462 0.07486 0.0
H1022 H 0.72561 0.89425 0.13214 0.0
H1023 H 0.71863 0.87809 0.08986 0.0
C1024 C 0.39841 0.48492 0.22163 0.0
C1025 C 0.38842 0.49401 0.18826 0.0
C1026 C 0.39771 0.49003 0.268 0.0
C1027 C 0.38661 0.50444 0.28136 0.0
C1028 C 0.37607 0.51333 0.24809 0.0
C1029 C 0.37717 0.50806 0.20189 0.0
C1030 C 0.4092 0.48027 0.30251 0.0
C1031 C 0.3639 0.52859 0.26118 0.0
C1032 C 0.3755 0.50649 0.40837 0.0
C1033 C 0.38803 0.51897 0.4244 0.0
C1034 C 0.37441 0.50215 0.36159 0.0
C1035 C 0.38628 0.51033 0.33015 0.0
C1036 C 0.39851 0.52344 0.34581 0.0
C1037 C 0.39916 0.52769 0.39279 0.0
C1038 C 0.361 0.48833 0.34609 0.0
C1039 C 0.41143 0.53239 0.31329 0.0
H1040 H 0.40719 0.47412 0.21138 0.0
H1041 H 0.36936 0.51512 0.17632 0.0
H1042 H 0.41872 0.48975 0.31868 0.0
H1043 H 0.40075 0.47468 0.33034 0.0
H1044 H 0.41693 0.4692 0.28664 0.0
H1045 H 0.35597 0.53355 0.23154 0.0
H1046 H 0.35457 0.52432 0.2887 0.0
H1047 H 0.37192 0.53983 0.27506 0.0
H1048 H 0.36677 0.4998 0.4326 0.0
H1049 H 0.40892 0.53729 0.40497 0.0
H1050 H 0.36812 0.47623 0.33379 0.0
H1051 H 0.35301 0.49351 0.31688 0.0
H1052 H 0.35174 0.48434 0.37413 0.0
H1053 H 0.42076 0.52228 0.29901 0.0
H1054 H 0.41939 0.543 0.33043 0.0
H1055 H 0.40414 0.53839 0.28393 0.0
C1056 C 0.7323 0.15127 0.64982 0.0
C1057 C 0.74121 0.14085 0.68264 0.0
C1058 C 0.73716 0.15054 0.60325 0.0
C1059 C 0.75111 0.13897 0.58919 0.0
C1060 C 0.7597 0.12794 0.62191 0.0
C1061 C 0.75471 0.12908 0.66827 0.0
C1062 C 0.72774 0.16255 0.56931 0.0
C1063 C 0.77445 0.11525 0.60812 0.0
C1064 C 0.75341 0.12812 0.46197 0.0
C1065 C 0.76657 0.14008 0.44667 0.0
C1066 C 0.74859 0.12726 0.50849 0.0
C1067 C 0.75701 0.13876 0.5404 0.0
C1068 C 0.77069 0.15048 0.52545 0.0
C1069 C 0.77539 0.15093 0.47874 0.0
C1070 C 0.73414 0.11439 0.52326 0.0
C1071 C 0.77993 0.16299 0.55851 0.0
H1072 H 0.72193 0.16046 0.66071 0.0
H1073 H 0.7616 0.12092 0.69342 0.0
H1074 H 0.73749 0.17194 0.55374 0.0
H1075 H 0.72197 0.15449 0.54098 0.0
H1076 H 0.71687 0.17043 0.58556 0.0
H1077 H 0.77907 0.10688 0.6373 0.0
H1078 H 0.76981 0.10634 0.58008 0.0
H1079 H 0.78601 0.12293 0.59469 0.0
H1080 H 0.7466 0.11963 0.43739 0.0
H1081 H 0.7855 0.16026 0.46713 0.0
H1082 H 0.72239 0.12195 0.53602 0.0
H1083 H 0.73896 0.10592 0.552 0.0
H1084 H 0.72973 0.10556 0.49474 0.0
H1085 H 0.77005 0.17243 0.57331 0.0
H1086 H 0.79072 0.17083 0.54171 0.0
H1087 H 0.78578 0.15534 0.58747 0.0
C1088 C 0.88022 0.50123 0.20963 0.0
C1089 C 0.89235 0.51439 0.19509 0.0
C1090 C 0.87905 0.49624 0.256 0.0
C1091 C 0.89038 0.50448 0.28861 0.0
C1092 C 0.9023 0.51813 0.27441 0.0
C1093 C 0.90307 0.52299 0.22782 0.0
C1094 C 0.86599 0.48183 0.2699 0.0
C1095 C 0.91464 0.52719 0.30821 0.0
C1096 C 0.87968 0.50203 0.41602 0.0
C1097 C 0.89127 0.48846 0.4309 0.0
C1098 C 0.87893 0.50709 0.36963 0.0
C1099 C 0.89016 0.49849 0.33737 0.0
C1100 C 0.90153 0.48445 0.35191 0.0
C1101 C 0.90188 0.47953 0.39849 0.0
C1102 C 0.86645 0.52194 0.35536 0.0
C1103 C 0.91373 0.47499 0.31849 0.0
H1104 H 0.87182 0.49457 0.18457 0.0
H1105 H 0.91253 0.53309 0.21683 0.0
H1106 H 0.87338 0.47003 0.28298 0.0
H1107 H 0.8573 0.48665 0.29819 0.0
H1108 H 0.85739 0.47749 0.24084 0.0
H1109 H 0.92271 0.53792 0.29194 0.0
H1110 H 0.90681 0.53308 0.33683 0.0
H1111 H 0.92386 0.51719 0.3234 0.0
H1112 H 0.87138 0.50895 0.44083 0.0
H1113 H 0.91093 0.46911 0.40973 0.0
H1114 H 0.85774 0.51742 0.32677 0.0
H1115 H 0.87431 0.53348 0.34254 0.0
H1116 H 0.85786 0.52656 0.38415 0.0
H1117 H 0.90586 0.46936 0.28962 0.0
H1118 H 0.92137 0.464 0.335 0.0
H1119 H 0.92335 0.48468 0.30361 0.0
C1120 C 0.24808 0.12437 0.96043 0.0
C1121 C 0.23492 0.13659 0.94639 0.0
C1122 C 0.25342 0.12324 0.00655 0.0
C1123 C 0.24546 0.13463 0.0395 0.0
C1124 C 0.23173 0.14655 0.02592 0.0
C1125 C 0.2266 0.14737 0.97952 0.0
C1126 C 0.26799 0.11026 0.01974 0.0
C1127 C 0.22287 0.15887 0.06014 0.0
C1128 C 0.24912 0.12402 0.1668 0.0
C1129 C 0.26261 0.13585 0.18097 0.0
C1130 C 0.24367 0.12319 0.12071 0.0
C1131 C 0.25186 0.1345 0.08794 0.0
C1132 C 0.26589 0.14604 0.10166 0.0
C1133 C 0.27112 0.14655 0.148 0.0
C1134 C 0.22878 0.1106 0.10735 0.0
C1135 C 0.275 0.15826 0.06763 0.0
H1136 H 0.25456 0.11594 0.93513 0.0
H1137 H 0.21646 0.15687 0.96901 0.0
H1138 H 0.27988 0.11772 0.03202 0.0
H1139 H 0.26346 0.10161 0.04843 0.0
H1140 H 0.27209 0.10161 0.99054 0.0
H1141 H 0.2119 0.16679 0.04447 0.0
H1142 H 0.21736 0.15104 0.08924 0.0
H1143 H 0.23292 0.16822 0.07453 0.0
H1144 H 0.24249 0.11565 0.19197 0.0
H1145 H 0.28151 0.15577 0.15861 0.0
H1146 H 0.2331 0.1019 0.07855 0.0
H1147 H 0.21708 0.11838 0.09516 0.0
H1148 H 0.22446 0.102 0.13644 0.0
H1149 H 0.28036 0.15038 0.03842 0.0
H1150 H 0.28612 0.16593 0.08342 0.0
H1151 H 0.26515 0.16785 0.05336 0.0
C1152 C 0.62422 0.50098 0.91065 0.0
C1153 C 0.61235 0.51425 0.92579 0.0
C1154 C 0.62522 0.49622 0.86409 0.0
C1155 C 0.61395 0.50481 0.83195 0.0
C1156 C 0.60238 0.51865 0.84673 0.0
C1157 C 0.60179 0.52328 0.89348 0.0
C1158 C 0.63791 0.48157 0.84957 0.0
C1159 C 0.59011 0.52809 0.81345 0.0
C1160 C 0.62343 0.50191 0.70392 0.0
C1161 C 0.61135 0.48862 0.68996 0.0
C1162 C 0.62475 0.50702 0.75021 0.0
C1163 C 0.61361 0.49876 0.78326 0.0
C1164 C 0.60174 0.485 0.76961 0.0
C1165 C 0.60082 0.48003 0.72315 0.0
C1166 C 0.63774 0.52156 0.76356 0.0
C1167 C 0.58962 0.4759 0.80388 0.0
H1168 H 0.63251 0.49401 0.93538 0.0
H1169 H 0.59253 0.53349 0.90494 0.0
H1170 H 0.63019 0.46985 0.83728 0.0
H1171 H 0.64637 0.48617 0.82057 0.0
H1172 H 0.64674 0.4772 0.87811 0.0
H1173 H 0.58254 0.53912 0.83001 0.0
H1174 H 0.59791 0.53366 0.78435 0.0
H1175 H 0.58043 0.51839 0.79889 0.0
H1176 H 0.63167 0.50856 0.67852 0.0
H1177 H 0.59141 0.4698 0.71266 0.0
H1178 H 0.64656 0.51686 0.79172 0.0
H1179 H 0.63031 0.53333 0.77665 0.0
H1180 H 0.64621 0.52588 0.73423 0.0
H1181 H 0.59762 0.47006 0.83223 0.0
H1182 H 0.58151 0.46512 0.78795 0.0
H1183 H 0.58043 0.48586 0.81936 0.0
C1184 C 0.23488 0.85713 0.64908 0.0
C1185 C 0.24428 0.86677 0.68257 0.0
C1186 C 0.23995 0.85783 0.60266 0.0
C1187 C 0.25468 0.86855 0.58939 0.0
C1188 C 0.26379 0.87884 0.62276 0.0
C1189 C 0.25853 0.87778 0.66897 0.0
C1190 C 0.22991 0.84665 0.56803 0.0
C1191 C 0.27942 0.89058 0.60984 0.0
C1192 C 0.27833 0.85483 0.47943 0.0
C1193 C 0.27036 0.8662 0.44709 0.0
C1194 C 0.27368 0.85576 0.52611 0.0
C1195 C 0.26087 0.86847 0.54082 0.0
C1196 C 0.25341 0.88054 0.5087 0.0
C1197 C 0.2582 0.87922 0.4622 0.0
C1198 C 0.28193 0.84265 0.55938 0.0
C1199 C 0.2399 0.89443 0.52317 0.0
H1200 H 0.2239 0.84855 0.65929 0.0
H1201 H 0.26583 0.88533 0.6946 0.0
H1202 H 0.22491 0.8552 0.53968 0.0
H1203 H 0.23905 0.83663 0.55261 0.0
H1204 H 0.21839 0.83951 0.58363 0.0
H1205 H 0.28435 0.8986 0.63936 0.0
H1206 H 0.29056 0.8822 0.59691 0.0
H1207 H 0.27558 0.89982 0.58169 0.0
H1208 H 0.2877 0.8447 0.46804 0.0
H1209 H 0.25204 0.88813 0.43748 0.0
H1210 H 0.27139 0.8338 0.57357 0.0
H1211 H 0.28804 0.84987 0.58873 0.0
H1212 H 0.29232 0.83421 0.54293 0.0
H1213 H 0.2275 0.88773 0.53503 0.0
H1214 H 0.23642 0.90369 0.4947 0.0
H1215 H 0.24511 0.90237 0.55244 0.0
C1216 C 0.62215 1.0006 0.20737 0.0
C1217 C 0.61051 0.01415 0.19263 0.0
C1218 C 0.62296 0.99551 0.25373 0.0
C1219 C 0.61173 0.00403 0.28612 0.0
C1220 C 0.60026 0.01802 0.27169 0.0
C1221 C 0.59987 0.02299 0.22513 0.0
C1222 C 0.63557 0.98074 0.26787 0.0
C1223 C 0.58802 0.02737 0.30521 0.0
C1224 C 0.59947 0.97929 0.39587 0.0
C1225 C 0.61025 0.98794 0.42839 0.0
C1226 C 0.59996 0.98426 0.34932 0.0
C1227 C 0.61167 0.99805 0.33492 0.0
C1228 C 0.62303 0.00638 0.36732 0.0
C1229 C 0.62211 0.0013 0.41367 0.0
C1230 C 0.58758 0.97512 0.31578 0.0
C1231 C 0.63588 0.02095 0.35321 0.0
H1232 H 0.63047 0.99375 0.18249 0.0
H1233 H 0.59077 0.03338 0.21397 0.0
H1234 H 0.64433 0.98535 0.29625 0.0
H1235 H 0.62781 0.96917 0.28094 0.0
H1236 H 0.6441 0.97614 0.23896 0.0
H1237 H 0.58023 0.03826 0.28874 0.0
H1238 H 0.57853 0.01758 0.32026 0.0
H1239 H 0.59588 0.0331 0.33395 0.0
H1240 H 0.59019 0.96904 0.40701 0.0
H1241 H 0.63055 0.008 0.43857 0.0
H1242 H 0.59536 0.96925 0.28705 0.0
H1243 H 0.57827 0.98506 0.3007 0.0
H1244 H 0.5796 0.96435 0.33223 0.0
H1245 H 0.64459 0.01619 0.32485 0.0
H1246 H 0.64448 0.02541 0.38214 0.0
H1247 H 0.62833 0.03264 0.34011 0.0
C1248 C 0.25035 0.37029 0.46447 0.0
C1249 C 0.23695 0.35844 0.44992 0.0
C1250 C 0.25537 0.37136 0.51085 0.0
C1251 C 0.24693 0.36016 0.54348 0.0
C1252 C 0.23307 0.3485 0.52924 0.0
C1253 C 0.22816 0.34787 0.48265 0.0
C1254 C 0.26999 0.38417 0.52476 0.0
C1255 C 0.22382 0.33629 0.563 0.0
C1256 C 0.27184 0.3484 0.65333 0.0
C1257 C 0.26309 0.35914 0.68577 0.0
C1258 C 0.26685 0.34875 0.60679 0.0
C1259 C 0.25293 0.36028 0.59228 0.0
C1260 C 0.2445 0.37163 0.62458 0.0
C1261 C 0.24961 0.37084 0.67095 0.0
C1262 C 0.27609 0.33638 0.57339 0.0
C1263 C 0.22982 0.38431 0.61035 0.0
H1264 H 0.25715 0.37858 0.43941 0.0
H1265 H 0.21788 0.33861 0.47165 0.0
H1266 H 0.2653 0.39294 0.55305 0.0
H1267 H 0.28166 0.37659 0.53786 0.0
H1268 H 0.27447 0.3927 0.49571 0.0
H1269 H 0.21298 0.32837 0.5467 0.0
H1270 H 0.23368 0.32692 0.5782 0.0
H1271 H 0.21803 0.34419 0.59162 0.0
H1272 H 0.28218 0.33924 0.66455 0.0
H1273 H 0.24282 0.37924 0.69579 0.0
H1274 H 0.28188 0.34416 0.54454 0.0
H1275 H 0.26623 0.32695 0.55846 0.0
H1276 H 0.28694 0.32854 0.58991 0.0
H1277 H 0.23446 0.39297 0.58181 0.0
H1278 H 0.22531 0.39294 0.63917 0.0
H1279 H 0.21818 0.37662 0.59749 0.0
C1280 C 0.90232 0.01991 0.89895 0.0
C1281 C 0.89164 0.01121 0.9316 0.0
C1282 C 0.90174 0.01497 0.85241 0.0
C1283 C 0.89004 1.00114 0.83816 0.0
C1284 C 0.87877 0.99277 0.87069 0.0
C1285 C 0.87977 0.99784 0.91704 0.0
C1286 C 0.91402 0.02417 0.8187 0.0
C1287 C 0.86594 0.97817 0.85672 0.0
C1288 C 0.87954 0.99873 0.71069 0.0
C1289 C 0.89131 0.98532 0.69577 0.0
C1290 C 0.87865 0.00369 0.75712 0.0
C1291 C 0.88993 0.99518 0.78938 0.0
C1292 C 0.90149 0.98129 0.77479 0.0
C1293 C 0.90196 0.97645 0.72816 0.0
C1294 C 0.86596 0.01837 0.77144 0.0
C1295 C 0.91378 0.97195 0.8082 0.0
H1296 H 0.91159 0.03018 0.90997 0.0
H1297 H 0.8714 0.9911 0.94204 0.0
H1298 H 0.92334 0.01427 0.80347 0.0
H1299 H 0.90615 0.03001 0.7901 0.0
H1300 H 0.92199 0.03496 0.83505 0.0
H1301 H 0.8574 0.97368 0.88575 0.0
H1302 H 0.85718 0.98289 0.82846 0.0
H1303 H 0.87351 0.96649 0.84356 0.0
H1304 H 0.87119 0.00559 0.68588 0.0
H1305 H 0.91116 0.96616 0.71686 0.0
H1306 H 0.87365 0.03 0.78434 0.0
H1307 H 0.8573 0.0137 0.79998 0.0
H1308 H 0.85732 0.02289 0.74266 0.0
H1309 H 0.92328 0.98174 0.82314 0.0
H1310 H 0.92155 0.96105 0.79166 0.0
H1311 H 0.90595 0.96622 0.83703 0.0
C1312 C 0.26948 0.65323 0.97692 0.0
C1313 C 0.2606 0.64261 0.94446 0.0
C1314 C 0.26446 0.65294 0.02342 0.0
C1315 C 0.25037 0.6416 0.03783 0.0
C1316 C 0.24179 0.63039 0.00551 0.0
C1317 C 0.24695 0.6311 0.95918 0.0
C1318 C 0.27389 0.66513 0.0569 0.0
C1319 C 0.2269 0.61793 0.01967 0.0
C1320 C 0.24784 0.63157 0.16552 0.0
C1321 C 0.23473 0.6437 0.18027 0.0
C1322 C 0.25271 0.63039 0.11907 0.0
C1323 C 0.2444 0.64175 0.08661 0.0
C1324 C 0.23079 0.65365 0.10103 0.0
C1325 C 0.22604 0.65441 0.1477 0.0
C1326 C 0.26708 0.61733 0.10494 0.0
C1327 C 0.22167 0.66602 0.0674 0.0
H1328 H 0.27997 0.66224 0.96578 0.0
H1329 H 0.24006 0.62279 0.93433 0.0
H1330 H 0.26417 0.67467 0.07198 0.0
H1331 H 0.27958 0.65723 0.08564 0.0
H1332 H 0.28483 0.67286 0.04041 0.0
H1333 H 0.22222 0.60942 0.99079 0.0
H1334 H 0.23141 0.60914 0.04809 0.0
H1335 H 0.2154 0.62579 0.0327 0.0
H1336 H 0.25456 0.62317 0.19047 0.0
H1337 H 0.21597 0.66388 0.15888 0.0
H1338 H 0.27889 0.62473 0.09189 0.0
H1339 H 0.26222 0.60871 0.07656 0.0
H1340 H 0.27142 0.60867 0.13386 0.0
H1341 H 0.23164 0.6753 0.0523 0.0
H1342 H 0.21092 0.67403 0.0838 0.0
H1343 H 0.2158 0.65823 0.0387 0.0
C1344 C 0.37589 1.00068 0.91353 0.0
C1345 C 0.38803 0.98743 0.92744 0.0
C1346 C 0.37475 0.00604 0.86741 0.0
C1347 C 0.38605 0.998 0.83438 0.0
C1348 C 0.39791 0.98421 0.84788 0.0
C1349 C 0.39872 0.97906 0.89424 0.0
C1350 C 0.36182 0.02067 0.85429 0.0
C1351 C 0.41014 0.97529 0.81357 0.0
C1352 C 0.3755 0.00138 0.70707 0.0
C1353 C 0.38746 0.01473 0.69268 0.0
C1354 C 0.37456 0.99613 0.75329 0.0
C1355 C 0.38588 0.00436 0.78593 0.0
C1356 C 0.39752 0.01828 0.77199 0.0
C1357 C 0.39813 0.02334 0.72552 0.0
C1358 C 0.36186 0.98136 0.7669 0.0
C1359 C 0.40976 0.02742 0.80588 0.0
H1360 H 0.36752 0.0072 0.93889 0.0
H1361 H 0.40817 0.96885 0.90467 0.0
H1362 H 0.36933 0.03252 0.84191 0.0
H1363 H 0.35311 0.01617 0.8257 0.0
H1364 H 0.35324 0.02483 0.88356 0.0
H1365 H 0.41808 0.96432 0.82923 0.0
H1366 H 0.40225 0.96974 0.78463 0.0
H1367 H 0.41949 0.9853 0.79896 0.0
H1368 H 0.36715 0.99469 0.68198 0.0
H1369 H 0.40743 0.03362 0.71472 0.0
H1370 H 0.35326 0.98577 0.79582 0.0
H1371 H 0.36956 0.9696 0.779 0.0
H1372 H 0.35316 0.97711 0.73796 0.0
H1373 H 0.40193 0.03282 0.83512 0.0
H1374 H 0.41742 0.03853 0.78996 0.0
H1375 H 0.41936 0.01758 0.82013 0.0
C1376 C 0.73161 0.64634 0.47541 0.0
C1377 C 0.74067 0.63604 0.44259 0.0
C1378 C 0.73636 0.64559 0.52201 0.0
C1379 C 0.75037 0.63411 0.53614 0.0
C1380 C 0.75905 0.62312 0.50349 0.0
C1381 C 0.75416 0.62429 0.45704 0.0
C1382 C 0.72683 0.65756 0.55585 0.0
C1383 C 0.77386 0.61054 0.5174 0.0
C1384 C 0.77443 0.64731 0.64579 0.0
C1385 C 0.76565 0.63674 0.67855 0.0
C1386 C 0.76988 0.64626 0.59909 0.0
C1387 C 0.75638 0.63421 0.58481 0.0
C1388 C 0.74805 0.62293 0.61742 0.0
C1389 C 0.75272 0.62439 0.66395 0.0
C1390 C 0.77901 0.65856 0.5653 0.0
C1391 C 0.7338 0.60973 0.60338 0.0
H1392 H 0.72122 0.65549 0.4645 0.0
H1393 H 0.76116 0.61621 0.4319 0.0
H1394 H 0.72124 0.64951 0.58445 0.0
H1395 H 0.73646 0.66715 0.57105 0.0
H1396 H 0.71579 0.66523 0.53961 0.0
H1397 H 0.77834 0.60196 0.48845 0.0
H1398 H 0.78549 0.61832 0.53002 0.0
H1399 H 0.76938 0.60183 0.54603 0.0
H1400 H 0.78439 0.65691 0.65682 0.0
H1401 H 0.74596 0.6161 0.68905 0.0
H1402 H 0.76905 0.66785 0.55019 0.0
H1403 H 0.78485 0.65073 0.53663 0.0
H1404 H 0.78978 0.66658 0.58158 0.0
H1405 H 0.72185 0.61703 0.59081 0.0
H1406 H 0.72968 0.60094 0.63226 0.0
H1407 H 0.73864 0.60125 0.57469 0.0
C1408 C 0.10243 0.02728 0.39511 0.0
C1409 C 0.11377 0.01941 0.42768 0.0
C1410 C 0.10362 0.02269 0.34842 0.0
C1411 C 0.11656 0.01006 0.33399 0.0
C1412 C 0.12858 0.00272 0.36638 0.0
C1413 C 0.127 0.00743 0.41286 0.0
C1414 C 0.09055 0.03081 0.31484 0.0
C1415 C 0.1427 0.98939 0.35221 0.0
C1416 C 0.10601 0.98395 0.22546 0.0
C1417 C 0.11568 0.99346 0.19224 0.0
C1418 C 0.10643 0.98903 0.27188 0.0
C1419 C 0.1169 0.0039 0.28542 0.0
C1420 C 0.12723 0.01314 0.25236 0.0
C1421 C 0.12645 0.00785 0.20613 0.0
C1422 C 0.09523 0.97884 0.30619 0.0
C1423 C 0.13872 0.02891 0.2656 0.0
H1424 H 0.09214 0.03651 0.40629 0.0
H1425 H 0.13589 0.00136 0.43778 0.0
H1426 H 0.09781 0.03702 0.2857 0.0
H1427 H 0.08187 0.02017 0.30039 0.0
H1428 H 0.08192 0.04109 0.33111 0.0
H1429 H 0.15188 0.986 0.3809 0.0
H1430 H 0.13621 0.97692 0.34011 0.0
H1431 H 0.15069 0.99473 0.32318 0.0
H1432 H 0.09762 0.97286 0.21503 0.0
H1433 H 0.13403 0.01524 0.18071 0.0
H1434 H 0.08504 0.98786 0.32136 0.0
H1435 H 0.10372 0.97393 0.33476 0.0
H1436 H 0.08828 0.96725 0.29039 0.0
H1437 H 0.13013 0.03994 0.27831 0.0
H1438 H 0.14679 0.03395 0.2363 0.0
H1439 H 0.14788 0.02519 0.29399 0.0
C1440 C 0.7484 0.37596 0.16764 0.0
C1441 C 0.73578 0.36327 0.18214 0.0
C1442 C 0.75312 0.37754 0.12116 0.0
C1443 C 0.74517 0.36603 0.08846 0.0
C1444 C 0.73198 0.35361 0.10262 0.0
C1445 C 0.72737 0.35245 0.14929 0.0
C1446 C 0.76704 0.39111 0.10728 0.0
C1447 C 0.72324 0.34108 0.06873 0.0
C1448 C 0.7474 0.37626 0.96079 0.0
C1449 C 0.76125 0.36492 0.94635 0.0
C1450 C 0.74234 0.37716 0.00718 0.0
C1451 C 0.75124 0.36634 0.03981 0.0
C1452 C 0.76559 0.35528 0.0257 0.0
C1453 C 0.77048 0.35477 0.97916 0.0
C1454 C 0.72715 0.38929 0.02104 0.0
C1455 C 0.77538 0.34351 0.05952 0.0
H1456 H 0.75488 0.38445 0.19279 0.0
H1457 H 0.71766 0.34258 0.16023 0.0
H1458 H 0.77918 0.38414 0.09469 0.0
H1459 H 0.762 0.3995 0.07864 0.0
H1460 H 0.77091 0.39998 0.13624 0.0
H1461 H 0.71266 0.33277 0.0849 0.0
H1462 H 0.71724 0.34875 0.04002 0.0
H1463 H 0.73347 0.33207 0.0537 0.0
H1464 H 0.74024 0.38421 0.93568 0.0
H1465 H 0.78115 0.34593 0.96828 0.0
H1466 H 0.73135 0.39812 0.04972 0.0
H1467 H 0.71575 0.38117 0.03358 0.0
H1468 H 0.72245 0.39775 0.9921 0.0
H1469 H 0.78071 0.35166 0.08825 0.0
H1470 H 0.78663 0.33615 0.04332 0.0
H1471 H 0.76597 0.33364 0.07454 0.0
C1472 C 0.11014 0.49495 0.41248 0.0
C1473 C 0.0995 0.50814 0.43291 0.0
C1474 C 0.10952 0.49198 0.36506 0.0
C1475 C 0.09785 0.50236 0.33769 0.0
C1476 C 0.08666 0.51531 0.35823 0.0
C1477 C 0.08768 0.51812 0.40572 0.0
C1478 C 0.12171 0.47809 0.34408 0.0
C1479 C 0.07393 0.52645 0.32995 0.0
C1480 C 0.11089 0.50717 0.21296 0.0
C1481 C 0.10034 0.49394 0.19235 0.0
C1482 C 0.10991 0.51032 0.26027 0.0
C1483 C 0.09797 0.50011 0.28729 0.0
C1484 C 0.08684 0.48717 0.26649 0.0
C1485 C 0.08823 0.48417 0.21916 0.0
C1486 C 0.12204 0.52418 0.28155 0.0
C1487 C 0.07382 0.4762 0.29437 0.0
H1488 H 0.11931 0.48721 0.43336 0.0
H1489 H 0.07932 0.52825 0.42145 0.0
H1490 H 0.11378 0.46827 0.32409 0.0
H1491 H 0.13112 0.4846 0.31983 0.0
H1492 H 0.12958 0.47078 0.37041 0.0
H1493 H 0.06535 0.53516 0.35162 0.0
H1494 H 0.08158 0.53501 0.30584 0.0
H1495 H 0.06521 0.51768 0.30891 0.0
H1496 H 0.12029 0.51474 0.19234 0.0
H1497 H 0.07992 0.47404 0.20325 0.0
H1498 H 0.13135 0.51764 0.30601 0.0
H1499 H 0.11407 0.53402 0.30137 0.0
H1500 H 0.13004 0.53147 0.25541 0.0
H1501 H 0.08125 0.46754 0.31871 0.0
H1502 H 0.06524 0.46759 0.27244 0.0
H1503 H 0.06511 0.48508 0.31513 0.0
C1504 C 0.73466 0.83318 0.65356 0.0
C1505 C 0.74429 0.84538 0.68045 0.0
C1506 C 0.73761 0.83194 0.60618 0.0
C1507 C 0.75031 0.84335 0.58538 0.0
C1508 C 0.76036 0.85541 0.61248 0.0
C1509 C 0.7573 0.8562 0.65988 0.0
C1510 C 0.72687 0.81874 0.57827 0.0
C1511 C 0.77392 0.86787 0.59119 0.0
C1512 C 0.76851 0.83335 0.46699 0.0
C1513 C 0.75823 0.84487 0.43969 0.0
C1514 C 0.76575 0.83234 0.51448 0.0
C1515 C 0.75256 0.84327 0.53496 0.0
C1516 C 0.7419 0.85465 0.5075 0.0
C1517 C 0.74479 0.85523 0.46002 0.0
C1518 C 0.77717 0.81988 0.54283 0.0
C1519 C 0.72779 0.86659 0.52842 0.0
H1520 H 0.72469 0.82468 0.66947 0.0
H1521 H 0.76472 0.86568 0.68059 0.0
H1522 H 0.71808 0.82602 0.55396 0.0
H1523 H 0.73591 0.8102 0.55749 0.0
H1524 H 0.71842 0.81 0.60019 0.0
H1525 H 0.78102 0.87604 0.61733 0.0
H1526 H 0.78395 0.86014 0.57137 0.0
H1527 H 0.76716 0.87702 0.56673 0.0
H1528 H 0.77883 0.82522 0.4513 0.0
H1529 H 0.73687 0.8642 0.43903 0.0
H1530 H 0.76859 0.81099 0.56392 0.0
H1531 H 0.78556 0.82774 0.56688 0.0
H1532 H 0.78606 0.81148 0.5212 0.0
H1533 H 0.71811 0.85849 0.54844 0.0
H1534 H 0.72033 0.87431 0.50206 0.0
H1535 H 0.73412 0.87613 0.55265 0.0
C1536 C 0.4158 0.51774 0.71294 0.0
C1537 C 0.40396 0.50825 0.6847 0.0
C1538 C 0.41672 0.51425 0.76011 0.0
C1539 C 0.40539 0.50112 0.77933 0.0
C1540 C 0.39386 0.49105 0.75079 0.0
C1541 C 0.39336 0.49468 0.70362 0.0
C1542 C 0.42935 0.52505 0.78959 0.0
C1543 C 0.38151 0.47701 0.77034 0.0
C1544 C 0.41425 0.48361 0.89913 0.0
C1545 C 0.40232 0.49391 0.9252 0.0
C1546 C 0.41561 0.48598 0.85153 0.0
C1547 C 0.40463 0.49879 0.8297 0.0
C1548 C 0.39266 0.50931 0.85585 0.0
C1549 C 0.39172 0.5068 0.90342 0.0
C1550 C 0.42867 0.47471 0.82457 0.0
C1551 C 0.38066 0.52303 0.8335 0.0
H1552 H 0.42416 0.52812 0.69832 0.0
H1553 H 0.38419 0.48732 0.68187 0.0
H1554 H 0.42157 0.53379 0.81301 0.0
H1555 H 0.43758 0.51608 0.81134 0.0
H1556 H 0.4384 0.53358 0.76873 0.0
H1557 H 0.3742 0.46961 0.7431 0.0
H1558 H 0.38916 0.46729 0.79131 0.0
H1559 H 0.37159 0.48343 0.79339 0.0
H1560 H 0.42255 0.47369 0.91592 0.0
H1561 H 0.38243 0.51474 0.92343 0.0
H1562 H 0.43795 0.48344 0.80502 0.0
H1563 H 0.42138 0.46641 0.79917 0.0
H1564 H 0.43666 0.46575 0.84703 0.0
H1565 H 0.38882 0.53304 0.81482 0.0
H1566 H 0.37213 0.53013 0.85886 0.0
H1567 H 0.37187 0.51644 0.80788 0.0
C1568 C 0.74644 0.14479 0.16505 0.0
C1569 C 0.75961 0.15549 0.18533 0.0
C1570 C 0.74326 0.14557 0.1177 0.0
C1571 C 0.75335 0.15752 0.09036 0.0
C1572 C 0.76619 0.16884 0.11089 0.0
C1573 C 0.76926 0.1676 0.15822 0.0
C1574 C 0.72955 0.1332 0.09671 0.0
C1575 C 0.77698 0.18192 0.08273 0.0
C1576 C 0.75879 0.14537 0.96513 0.0
C1577 C 0.74546 0.15582 0.94464 0.0
C1578 C 0.76165 0.14598 0.01262 0.0
C1579 C 0.75107 0.15749 0.03995 0.0
C1580 C 0.73797 0.16848 0.01932 0.0
C1581 C 0.73523 0.16743 0.97181 0.0
C1582 C 0.77566 0.13397 0.03369 0.0
C1583 C 0.72664 0.18109 0.04752 0.0
H1584 H 0.73899 0.13538 0.18592 0.0
H1585 H 0.77935 0.17602 0.17391 0.0
H1586 H 0.7196 0.14098 0.07678 0.0
H1587 H 0.7362 0.12391 0.0724 0.0
H1588 H 0.72237 0.12519 0.12304 0.0
H1589 H 0.78548 0.19067 0.10448 0.0
H1590 H 0.78573 0.17453 0.05852 0.0
H1591 H 0.76798 0.19045 0.06183 0.0
H1592 H 0.76668 0.13634 0.94424 0.0
H1593 H 0.725 0.17563 0.956 0.0
H1594 H 0.76926 0.12457 0.05817 0.0
H1595 H 0.78544 0.14203 0.05344 0.0
H1596 H 0.78301 0.12608 0.00743 0.0
H1597 H 0.71823 0.17335 0.0718 0.0
H1598 H 0.71777 0.18948 0.0258 0.0
H1599 H 0.7353 0.18999 0.06836 0.0
C1600 C 0.91862 0.48422 0.71957 0.0
C1601 C 0.90673 0.49418 0.69257 0.0
C1602 C 0.91995 0.48721 0.76693 0.0
C1603 C 0.90894 0.50028 0.78763 0.0
C1604 C 0.89719 0.51065 0.76042 0.0
C1605 C 0.89631 0.50754 0.71304 0.0
C1606 C 0.93281 0.47611 0.79495 0.0
C1607 C 0.88516 0.52462 0.78156 0.0
C1608 C 0.89689 0.49538 0.91312 0.0
C1609 C 0.90764 0.50855 0.93329 0.0
C1610 C 0.89739 0.49237 0.86567 0.0
C1611 C 0.9091 0.50262 0.83805 0.0
C1612 C 0.92042 0.51551 0.85838 0.0
C1613 C 0.91947 0.51841 0.90585 0.0
C1614 C 0.88503 0.47859 0.84493 0.0
C1615 C 0.93324 0.52648 0.8299 0.0
H1616 H 0.92682 0.47398 0.70376 0.0
H1617 H 0.88706 0.51523 0.69228 0.0
H1618 H 0.94163 0.48491 0.81561 0.0
H1619 H 0.92526 0.46759 0.81939 0.0
H1620 H 0.94127 0.46735 0.77312 0.0
H1621 H 0.8772 0.53192 0.75536 0.0
H1622 H 0.87582 0.51819 0.80615 0.0
H1623 H 0.8932 0.53445 0.80122 0.0
H1624 H 0.88768 0.48778 0.9342 0.0
H1625 H 0.92791 0.52851 0.92141 0.0
H1626 H 0.89282 0.46864 0.82501 0.0
H1627 H 0.87567 0.48517 0.82067 0.0
H1628 H 0.87709 0.47141 0.8714 0.0
H1629 H 0.94185 0.5176 0.8089 0.0
H1630 H 0.94192 0.53515 0.85142 0.0
H1631 H 0.92565 0.53509 0.80576 0.0
C1632 C 0.25412 0.13917 0.6648 0.0
C1633 C 0.24071 0.14997 0.68379 0.0
C1634 C 0.25769 0.13951 0.6176 0.0
C1635 C 0.24765 0.15098 0.58886 0.0
C1636 C 0.23437 0.1622 0.60788 0.0
C1637 C 0.23102 0.16153 0.65521 0.0
C1638 C 0.27195 0.12732 0.59834 0.0
C1639 C 0.22351 0.17467 0.57813 0.0
C1640 C 0.26714 0.16096 0.47164 0.0
C1641 C 0.25776 0.14886 0.44386 0.0
C1642 C 0.26372 0.16208 0.51888 0.0
C1643 C 0.2507 0.15074 0.53865 0.0
C1644 C 0.241 0.1387 0.51072 0.0
C1645 C 0.24461 0.13793 0.46356 0.0
C1646 C 0.27423 0.17517 0.54772 0.0
C1647 C 0.22704 0.12637 0.53082 0.0
H1648 H 0.26167 0.13021 0.6867 0.0
H1649 H 0.22068 0.16996 0.66971 0.0
H1650 H 0.26587 0.1178 0.57365 0.0
H1651 H 0.28203 0.13524 0.57919 0.0
H1652 H 0.27889 0.11958 0.62558 0.0
H1653 H 0.21424 0.1831 0.5986 0.0
H1654 H 0.23249 0.18352 0.55809 0.0
H1655 H 0.21555 0.16681 0.55309 0.0
H1656 H 0.27726 0.16952 0.45656 0.0
H1657 H 0.23731 0.12855 0.44228 0.0
H1658 H 0.28235 0.16782 0.57341 0.0
H1659 H 0.26499 0.18401 0.56702 0.0
H1660 H 0.28329 0.1836 0.52667 0.0
H1661 H 0.23335 0.11727 0.55618 0.0
H1662 H 0.22032 0.11815 0.50413 0.0
H1663 H 0.21675 0.13423 0.54938 0.0
C1664 C 0.60607 0.49248 0.20621 0.0
C1665 C 0.596 0.50633 0.18673 0.0
C1666 C 0.60537 0.4891 0.25349 0.0
C1667 C 0.5942 0.49972 0.28162 0.0
C1668 C 0.58347 0.51325 0.26192 0.0
C1669 C 0.58457 0.51646 0.21462 0.0
C1670 C 0.61708 0.47462 0.27355 0.0
C1671 C 0.57124 0.52467 0.29097 0.0
C1672 C 0.58406 0.48229 0.40082 0.0
C1673 C 0.5964 0.4919 0.42738 0.0
C1674 C 0.58293 0.48495 0.35328 0.0
C1675 C 0.59454 0.49735 0.33201 0.0
C1676 C 0.60686 0.50724 0.3587 0.0
C1677 C 0.60757 0.50446 0.4062 0.0
C1678 C 0.5695 0.47434 0.32576 0.0
C1679 C 0.61953 0.5205 0.33695 0.0
H1680 H 0.61494 0.48463 0.18476 0.0
H1681 H 0.57664 0.52709 0.19962 0.0
H1682 H 0.62702 0.48066 0.29721 0.0
H1683 H 0.60891 0.46515 0.29401 0.0
H1684 H 0.62435 0.46699 0.24665 0.0
H1685 H 0.56277 0.53367 0.26983 0.0
H1686 H 0.56242 0.51611 0.3123 0.0
H1687 H 0.57931 0.53296 0.3148 0.0
H1688 H 0.57532 0.47264 0.41713 0.0
H1689 H 0.61717 0.51187 0.42659 0.0
H1690 H 0.57656 0.46564 0.3008 0.0
H1691 H 0.56084 0.4835 0.30569 0.0
H1692 H 0.5609 0.46583 0.34788 0.0
H1693 H 0.62827 0.51358 0.31181 0.0
H1694 H 0.62811 0.5273 0.36273 0.0
H1695 H 0.6119 0.5308 0.31781 0.0
C1696 C 0.23546 0.84084 0.97249 0.0
C1697 C 0.24663 0.85142 0.94496 0.0
C1698 C 0.23806 0.83983 0.02007 0.0
C1699 C 0.25208 0.84974 0.04038 0.0
C1700 C 0.26358 0.86019 0.01273 0.0
C1701 C 0.26075 0.86086 0.96525 0.0
C1702 C 0.22568 0.82841 0.04867 0.0
C1703 C 0.27864 0.87098 0.0334 0.0
C1704 C 0.24929 0.86323 0.16531 0.0
C1705 C 0.26147 0.85137 0.1855 0.0
C1706 C 0.24576 0.86255 0.11811 0.0
C1707 C 0.25452 0.8496 0.09076 0.0
C1708 C 0.26633 0.83719 0.11117 0.0
C1709 C 0.26973 0.83827 0.15837 0.0
C1710 C 0.23312 0.87604 0.09727 0.0
C1711 C 0.27575 0.82311 0.08296 0.0
H1712 H 0.22457 0.83344 0.95694 0.0
H1713 H 0.26941 0.86907 0.94415 0.0
H1714 H 0.23352 0.81874 0.06939 0.0
H1715 H 0.21816 0.83695 0.0731 0.0
H1716 H 0.21596 0.82089 0.02727 0.0
H1717 H 0.28659 0.87814 0.00693 0.0
H1718 H 0.27316 0.88095 0.05785 0.0
H1719 H 0.28772 0.86212 0.05311 0.0
H1720 H 0.24286 0.87337 0.18615 0.0
H1721 H 0.27904 0.82896 0.1739 0.0
H1722 H 0.22247 0.86914 0.07758 0.0
H1723 H 0.24049 0.88469 0.07276 0.0
H1724 H 0.22675 0.88468 0.12365 0.0
H1725 H 0.26592 0.81538 0.06248 0.0
H1726 H 0.28351 0.81367 0.10464 0.0
H1727 H 0.28504 0.8296 0.05837 0.0
C1728 C 0.58324 0.98365 0.71772 0.0
C1729 C 0.5952 0.99335 0.6903 0.0
C1730 C 0.582 0.98688 0.76505 0.0
C1731 C 0.59322 0.9999 0.7853 0.0
C1732 C 0.60508 0.00996 0.75766 0.0
C1733 C 0.60583 0.00665 0.71035 0.0
C1734 C 0.56899 0.97613 0.79349 0.0
C1735 C 0.61739 0.02381 0.77826 0.0
C1736 C 0.58362 0.01893 0.90329 0.0
C1737 C 0.59535 0.00897 0.93073 0.0
C1738 C 0.58232 0.01573 0.85596 0.0
C1739 C 0.59324 0.00245 0.83573 0.0
C1740 C 0.60485 0.99212 0.8634 0.0
C1741 C 0.60567 0.99542 0.91071 0.0
C1742 C 0.56957 0.02677 0.82749 0.0
C1743 C 0.61684 0.97798 0.84282 0.0
H1744 H 0.57489 0.97346 0.70224 0.0
H1745 H 0.61515 0.01413 0.68928 0.0
H1746 H 0.57641 0.96756 0.81803 0.0
H1747 H 0.56038 0.98518 0.81405 0.0
H1748 H 0.56031 0.96746 0.77197 0.0
H1749 H 0.62546 0.03083 0.75177 0.0
H1750 H 0.60955 0.03388 0.79764 0.0
H1751 H 0.62663 0.01733 0.803 0.0
H1752 H 0.5755 0.02932 0.91875 0.0
H1753 H 0.6148 0.98773 0.93179 0.0
H1754 H 0.56077 0.01793 0.8069 0.0
H1755 H 0.57721 0.03518 0.80298 0.0
H1756 H 0.56109 0.03564 0.849 0.0
H1757 H 0.60877 0.9681 0.82343 0.0
H1758 H 0.62473 0.97077 0.86933 0.0
H1759 H 0.62624 0.98424 0.81811 0.0
C1760 C 0.25606 0.35288 0.16821 0.0
C1761 C 0.24256 0.34248 0.18819 0.0
C1762 C 0.25924 0.35225 0.12082 0.0
C1763 C 0.24885 0.34074 0.09301 0.0
C1764 C 0.23563 0.32973 0.11319 0.0
C1765 C 0.23253 0.33085 0.16061 0.0
C1766 C 0.27332 0.36433 0.10033 0.0
C1767 C 0.22451 0.31709 0.08458 0.0
C1768 C 0.24442 0.35385 0.968 0.0
C1769 C 0.25771 0.34334 0.94752 0.0
C1770 C 0.24117 0.35288 0.01532 0.0
C1771 C 0.25128 0.34091 0.04253 0.0
C1772 C 0.26428 0.3298 0.02181 0.0
C1773 C 0.26745 0.33126 0.9745 0.0
C1774 C 0.22734 0.36509 0.03643 0.0
C1775 C 0.27508 0.31667 0.04975 0.0
H1776 H 0.26379 0.36195 0.18938 0.0
H1777 H 0.22217 0.32269 0.17602 0.0
H1778 H 0.28316 0.35635 0.08054 0.0
H1779 H 0.26699 0.37382 0.07597 0.0
H1780 H 0.28059 0.37212 0.12692 0.0
H1781 H 0.21573 0.3085 0.10601 0.0
H1782 H 0.21603 0.32482 0.06047 0.0
H1783 H 0.2333 0.30839 0.06354 0.0
H1784 H 0.2369 0.36325 0.94727 0.0
H1785 H 0.27765 0.323 0.95868 0.0
H1786 H 0.23386 0.37425 0.06129 0.0
H1787 H 0.21732 0.35716 0.05577 0.0
H1788 H 0.22025 0.37324 0.01024 0.0
H1789 H 0.28372 0.32401 0.07433 0.0
H1790 H 0.2837 0.30808 0.02788 0.0
H1791 H 0.26608 0.30799 0.07025 0.0
C1792 C 0.89634 0.00491 0.41414 0.0
C1793 C 0.90679 0.99147 0.43419 0.0
C1794 C 0.89708 0.00813 0.36679 0.0
C1795 C 0.90873 0.99781 0.33916 0.0
C1796 C 0.91979 0.98468 0.35942 0.0
C1797 C 0.91859 0.98157 0.40678 0.0
C1798 C 0.88497 0.02214 0.34614 0.0
C1799 C 0.93256 0.97365 0.33096 0.0
C1800 C 0.89608 0.99307 0.214 0.0
C1801 C 0.9067 0.00629 0.19358 0.0
C1802 C 0.89682 0.98999 0.2614 0.0
C1803 C 0.90865 1.00022 0.28873 0.0
C1804 C 0.91982 0.01318 0.26813 0.0
C1805 C 0.91862 0.01616 0.22072 0.0
C1806 C 0.88459 0.97616 0.28241 0.0
C1807 C 0.93278 0.02412 0.29628 0.0
H1808 H 0.88716 0.01255 0.43521 0.0
H1809 H 0.9268 0.97127 0.42226 0.0
H1810 H 0.89293 0.03199 0.32634 0.0
H1811 H 0.87552 0.01575 0.32177 0.0
H1812 H 0.87713 0.02941 0.37264 0.0
H1813 H 0.94115 0.96491 0.35249 0.0
H1814 H 0.92493 0.96512 0.30672 0.0
H1815 H 0.94126 0.98249 0.31007 0.0
H1816 H 0.8868 0.98546 0.19314 0.0
H1817 H 0.92696 0.0263 0.20496 0.0
H1818 H 0.87536 0.98268 0.30712 0.0
H1819 H 0.89249 0.96618 0.3019 0.0
H1820 H 0.87651 0.96903 0.25615 0.0
H1821 H 0.9253 0.03269 0.32076 0.0
H1822 H 0.94134 0.03282 0.27454 0.0
H1823 H 0.9415 0.01521 0.31689 0.0
C1824 C 0.26614 0.66951 0.65567 0.0
C1825 C 0.2563 0.65739 0.68234 0.0
C1826 C 0.26314 0.67101 0.60833 0.0
C1827 C 0.2502 0.65993 0.5873 0.0
C1828 C 0.24002 0.64789 0.61416 0.0
C1829 C 0.24312 0.64686 0.66152 0.0
C1830 C 0.27402 0.68418 0.58071 0.0
C1831 C 0.22623 0.63574 0.59266 0.0
C1832 C 0.23151 0.67072 0.46977 0.0
C1833 C 0.24146 0.65916 0.44177 0.0
C1834 C 0.2346 0.67154 0.51719 0.0
C1835 C 0.24776 0.66036 0.5369 0.0
C1836 C 0.25811 0.64896 0.50869 0.0
C1837 C 0.25491 0.64859 0.46131 0.0
C1838 C 0.22352 0.68405 0.54629 0.0
C1839 C 0.27216 0.63673 0.52873 0.0
H1840 H 0.27624 0.67779 0.67176 0.0
H1841 H 0.23554 0.63743 0.68203 0.0
H1842 H 0.28255 0.67691 0.55577 0.0
H1843 H 0.26506 0.69304 0.56063 0.0
H1844 H 0.28274 0.6926 0.60277 0.0
H1845 H 0.21916 0.62745 0.61858 0.0
H1846 H 0.2162 0.64375 0.5736 0.0
H1847 H 0.23277 0.62672 0.56748 0.0
H1848 H 0.22119 0.67902 0.4547 0.0
H1849 H 0.26259 0.63959 0.4398 0.0
H1850 H 0.23234 0.69263 0.56757 0.0
H1851 H 0.21504 0.6762 0.57019 0.0
H1852 H 0.21473 0.69276 0.52521 0.0
H1853 H 0.282 0.64458 0.54889 0.0
H1854 H 0.27944 0.62911 0.50184 0.0
H1855 H 0.2658 0.62709 0.55266 0.0
C1856 C 0.41342 0.98285 0.21806 0.0
C1857 C 0.40143 0.99229 0.19011 0.0
C1858 C 0.41425 0.98607 0.26542 0.0
C1859 C 0.40274 0.99895 0.28511 0.0
C1860 C 0.39081 0.00872 0.25703 0.0
C1861 C 0.39033 0.0053 0.20976 0.0
C1862 C 0.42723 0.97553 0.29447 0.0
C1863 C 0.3783 0.02254 0.27703 0.0
C1864 C 0.39056 0.99534 0.41084 0.0
C1865 C 0.40116 0.00882 0.43019 0.0
C1866 C 0.39118 0.99177 0.36365 0.0
C1867 C 0.40275 0.00189 0.33535 0.0
C1868 C 0.4138 0.01523 0.35476 0.0
C1869 C 0.41284 0.01858 0.40204 0.0
C1870 C 0.37917 0.97747 0.34393 0.0
C1871 C 0.42637 0.02617 0.32548 0.0
H1872 H 0.4221 0.97283 0.20302 0.0
H1873 H 0.38103 0.01264 0.18835 0.0
H1874 H 0.43596 0.98473 0.31417 0.0
H1875 H 0.41979 0.96731 0.3198 0.0
H1876 H 0.43578 0.96654 0.27351 0.0
H1877 H 0.37014 0.02927 0.25026 0.0
H1878 H 0.36915 0.01611 0.30208 0.0
H1879 H 0.38602 0.03284 0.29594 0.0
H1880 H 0.38152 0.98775 0.43243 0.0
H1881 H 0.42114 0.02896 0.41683 0.0
H1882 H 0.38722 0.96749 0.3248 0.0
H1883 H 0.36968 0.98354 0.31912 0.0
H1884 H 0.37138 0.97042 0.37089 0.0
H1885 H 0.43532 0.01725 0.30555 0.0
H1886 H 0.43471 0.03541 0.3463 0.0
H1887 H 0.41861 0.03417 0.30035 0.0
C1888 C 0.75842 0.64136 0.15987 0.0
C1889 C 0.74511 0.65176 0.18066 0.0
C1890 C 0.76143 0.64234 0.11249 0.0
C1891 C 0.75099 0.65412 0.08559 0.0
C1892 C 0.73793 0.66506 0.10653 0.0
C1893 C 0.73507 0.66368 0.15393 0.0
C1894 C 0.77544 0.63041 0.09106 0.0
C1895 C 0.72672 0.6779 0.07876 0.0
C1896 C 0.76903 0.66469 0.9674 0.0
C1897 C 0.75932 0.65269 0.94011 0.0
C1898 C 0.76608 0.66571 0.01482 0.0
C1899 C 0.75325 0.65434 0.03519 0.0
C1900 C 0.7431 0.64251 0.0077 0.0
C1901 C 0.74621 0.64189 0.96033 0.0
C1902 C 0.77697 0.67862 0.04323 0.0
C1903 C 0.72936 0.63012 0.02851 0.0
H1904 H 0.76619 0.63212 0.1804 0.0
H1905 H 0.72487 0.67186 0.16997 0.0
H1906 H 0.76901 0.62109 0.06643 0.0
H1907 H 0.78519 0.63854 0.0714 0.0
H1908 H 0.78281 0.62244 0.11709 0.0
H1909 H 0.71793 0.68627 0.10076 0.0
H1910 H 0.73544 0.68682 0.05813 0.0
H1911 H 0.71822 0.67035 0.0543 0.0
H1912 H 0.77909 0.67318 0.95181 0.0
H1913 H 0.73868 0.63258 0.93936 0.0
H1914 H 0.78569 0.6711 0.06722 0.0
H1915 H 0.76804 0.68713 0.06439 0.0
H1916 H 0.78551 0.6874 0.02164 0.0
H1917 H 0.73599 0.62072 0.05258 0.0
H1918 H 0.72213 0.62222 0.00206 0.0
H1919 H 0.71945 0.63787 0.04865 0.0
C1920 C 0.11023 0.00988 0.90937 0.0
C1921 C 0.10064 0.99591 0.92987 0.0
C1922 C 0.10933 0.01281 0.86195 0.0
C1923 C 0.09848 0.00156 0.83462 0.0
C1924 C 0.08844 0.9877 0.85517 0.0
C1925 C 0.0897 0.98498 0.90266 0.0
C1926 C 0.12028 0.02769 0.84099 0.0
C1927 C 0.07661 0.97558 0.82691 0.0
C1928 C 0.08656 0.0194 0.7171 0.0
C1929 C 0.0993 0.01086 0.68942 0.0
C1930 C 0.08577 0.01609 0.76438 0.0
C1931 C 0.09811 0.00406 0.78428 0.0
C1932 C 0.1107 0.99505 0.7564 0.0
C1933 C 0.1111 0.99852 0.70915 0.0
C1934 C 0.07206 0.02578 0.7932 0.0
C1935 C 0.1241 0.98217 0.77668 0.0
H1936 H 0.11873 0.01835 0.93024 0.0
H1937 H 0.08218 0.97422 0.9184 0.0
H1938 H 0.13001 0.02205 0.81614 0.0
H1939 H 0.11149 0.03696 0.82166 0.0
H1940 H 0.12773 0.03548 0.86725 0.0
H1941 H 0.06905 0.96596 0.84852 0.0
H1942 H 0.06697 0.98364 0.8067 0.0
H1943 H 0.08486 0.96794 0.80205 0.0
H1944 H 0.07731 0.02886 0.70194 0.0
H1945 H 0.12097 0.99187 0.68789 0.0
H1946 H 0.0789 0.03488 0.81762 0.0
H1947 H 0.06424 0.01609 0.81389 0.0
H1948 H 0.06268 0.03378 0.77195 0.0
H1949 H 0.13299 0.98936 0.80093 0.0
H1950 H 0.13249 0.97569 0.74995 0.0
H1951 H 0.11712 0.97161 0.79654 0.0
C1952 C 0.76743 0.33772 0.65742 0.0
C1953 C 0.75719 0.34943 0.68429 0.0
C1954 C 0.76448 0.33625 0.61007 0.0
C1955 C 0.75111 0.34687 0.58931 0.0
C1956 C 0.74048 0.35843 0.61636 0.0
C1957 C 0.74361 0.35951 0.66367 0.0
C1958 C 0.77591 0.32364 0.58214 0.0
C1959 C 0.72616 0.37002 0.59514 0.0
C1960 C 0.75531 0.35903 0.46384 0.0
C1961 C 0.74242 0.34788 0.44389 0.0
C1962 C 0.75852 0.35857 0.51117 0.0
C1963 C 0.74872 0.34655 0.53894 0.0
C1964 C 0.73611 0.33484 0.51886 0.0
C1965 C 0.73304 0.33571 0.47146 0.0
C1966 C 0.77202 0.37131 0.53164 0.0
C1967 C 0.72558 0.32173 0.54757 0.0
H1968 H 0.77785 0.32978 0.6733 0.0
H1969 H 0.73567 0.36859 0.68431 0.0
H1970 H 0.76734 0.3145 0.56179 0.0
H1971 H 0.78414 0.33137 0.55742 0.0
H1972 H 0.78497 0.31552 0.604 0.0
H1973 H 0.71868 0.37785 0.62127 0.0
H1974 H 0.73229 0.37946 0.57032 0.0
H1975 H 0.71653 0.36165 0.57573 0.0
H1976 H 0.76258 0.36847 0.44266 0.0
H1977 H 0.72316 0.32696 0.4561 0.0
H1978 H 0.78217 0.36381 0.55162 0.0
H1979 H 0.76523 0.38056 0.5558 0.0
H1980 H 0.77897 0.37936 0.50501 0.0
H1981 H 0.73476 0.31343 0.56855 0.0
H1982 H 0.71716 0.31276 0.52622 0.0
H1983 H 0.71679 0.32909 0.57174 0.0
C1984 C 0.14433 0.44322 0.1486 0.0
C1985 C 0.13427 0.43535 0.11325 0.0
C1986 C 0.15474 0.4328 0.17845 0.0
C1987 C 0.15554 0.41407 0.17208 0.0
C1988 C 0.14595 0.40611 0.13536 0.0
C1989 C 0.13519 0.41682 0.10682 0.0
C1990 C 0.16435 0.44178 0.21782 0.0
C1991 C 0.14686 0.38625 0.12664 0.0
C1992 C 0.19442 0.38918 0.2268 0.0
C1993 C 0.18615 0.38081 0.26435 0.0
C1994 C 0.18461 0.39992 0.19633 0.0
C1995 C 0.16617 0.40282 0.20437 0.0
C1996 C 0.1579 0.39492 0.24323 0.0
C1997 C 0.16793 0.38376 0.27233 0.0
C1998 C 0.19384 0.40769 0.15472 0.0
C1999 C 0.1384 0.3981 0.25377 0.0
H2000 H 0.14346 0.45751 0.15431 0.0
H2001 H 0.1274 0.41069 0.07965 0.0
H2002 H 0.15943 0.43632 0.25096 0.0
H2003 H 0.17888 0.43894 0.21598 0.0
H2004 H 0.1624 0.4565 0.21794 0.0
H2005 H 0.13961 0.38231 0.0949 0.0
H2006 H 0.161 0.38194 0.12355 0.0
H2007 H 0.14098 0.37892 0.15612 0.0
H2008 H 0.20844 0.38667 0.21994 0.0
H2009 H 0.16149 0.37724 0.30121 0.0
H2010 H 0.19268 0.42246 0.15488 0.0
H2011 H 0.18724 0.40282 0.12295 0.0
H2012 H 0.20822 0.40407 0.15323 0.0
H2013 H 0.13567 0.41266 0.2556 0.0
H2014 H 0.13425 0.39185 0.28671 0.0
H2015 H 0.13001 0.39257 0.22577 0.0
C2016 C 0.85992 0.94268 0.4748 0.0
C2017 C 0.8691 0.93438 0.51103 0.0
C2018 C 0.84905 0.93278 0.44479 0.0
C2019 C 0.84689 0.91419 0.45194 0.0
C2020 C 0.85555 0.90587 0.48963 0.0
C2021 C 0.86679 0.91601 0.51828 0.0
C2022 C 0.84045 0.94209 0.40441 0.0
C2023 C 0.85319 0.88619 0.49923 0.0
C2024 C 0.80711 0.89087 0.39689 0.0
C2025 C 0.81522 0.88144 0.36077 0.0
C2026 C 0.81723 0.9016 0.42672 0.0
C2027 C 0.83585 0.90338 0.41951 0.0
C2028 C 0.84399 0.89449 0.3819 0.0
C2029 C 0.83362 0.88338 0.35342 0.0
C2030 C 0.8081 0.91045 0.46702 0.0
C2031 C 0.86371 0.89644 0.37224 0.0
H2032 H 0.86189 0.95682 0.4685 0.0
H2033 H 0.8739 0.90955 0.54617 0.0
H2034 H 0.84542 0.93616 0.37187 0.0
H2035 H 0.82577 0.94013 0.40519 0.0
H2036 H 0.84329 0.95666 0.40398 0.0
H2037 H 0.85983 0.88202 0.53164 0.0
H2038 H 0.83876 0.88287 0.50153 0.0
H2039 H 0.85886 0.87825 0.47052 0.0
H2040 H 0.79294 0.88918 0.40327 0.0
H2041 H 0.83994 0.87609 0.32561 0.0
H2042 H 0.81041 0.92509 0.4662 0.0
H2043 H 0.81389 0.90537 0.49961 0.0
H2044 H 0.79347 0.90796 0.46742 0.0
H2045 H 0.86734 0.9108 0.36996 0.0
H2046 H 0.86773 0.88973 0.33979 0.0
H2047 H 0.87154 0.8906 0.4009 0.0
C2048 C 0.35832 0.55906 0.64886 0.0
C2049 C 0.36769 0.56749 0.61314 0.0
C2050 C 0.3474 0.56888 0.67893 0.0
C2051 C 0.34536 0.58751 0.67231 0.0
C2052 C 0.35428 0.59598 0.63522 0.0
C2053 C 0.36558 0.58592 0.60654 0.0
C2054 C 0.33855 0.55941 0.71873 0.0
C2055 C 0.35206 0.61572 0.6262 0.0
C2056 C 0.30528 0.61075 0.72616 0.0
C2057 C 0.31318 0.62006 0.76276 0.0
C2058 C 0.31556 0.60006 0.69659 0.0
C2059 C 0.33413 0.5982 0.70457 0.0
C2060 C 0.34204 0.60692 0.74274 0.0
C2061 C 0.33152 0.618 0.77094 0.0
C2062 C 0.30668 0.59137 0.65571 0.0
C2063 C 0.36168 0.60486 0.75324 0.0
H2064 H 0.36015 0.54487 0.65464 0.0
H2065 H 0.37283 0.59247 0.57904 0.0
H2066 H 0.34327 0.56525 0.75162 0.0
H2067 H 0.32387 0.56133 0.71733 0.0
H2068 H 0.34143 0.54485 0.71899 0.0
H2069 H 0.35896 0.62004 0.59427 0.0
H2070 H 0.33766 0.6191 0.62328 0.0
H2071 H 0.35752 0.62349 0.65546 0.0
H2072 H 0.29116 0.61253 0.71917 0.0
H2073 H 0.33768 0.62519 0.79913 0.0
H2074 H 0.30897 0.57673 0.65624 0.0
H2075 H 0.31268 0.59657 0.62349 0.0
H2076 H 0.29205 0.59387 0.65478 0.0
H2077 H 0.36526 0.59049 0.75512 0.0
H2078 H 0.36548 0.61138 0.78613 0.0
H2079 H 0.36973 0.61086 0.72519 0.0
C2080 C 0.6704 0.11718 0.85537 0.0
C2081 C 0.68878 0.11904 0.86321 0.0
C2082 C 0.65991 0.10589 0.88307 0.0
C2083 C 0.66791 0.09669 0.92039 0.0
C2084 C 0.68651 0.09835 0.92802 0.0
C2085 C 0.69675 0.1093 0.89897 0.0
C2086 C 0.64021 0.10409 0.87297 0.0
C2087 C 0.69549 0.08916 0.96804 0.0
C2088 C 0.63653 0.08376 0.01796 0.0
C2089 C 0.63403 0.06548 0.00987 0.0
C2090 C 0.64799 0.09395 0.99002 0.0
C2091 C 0.65671 0.08577 0.95221 0.0
C2092 C 0.65439 0.06725 0.94427 0.0
C2093 C 0.64328 0.05729 0.97357 0.0
C2094 C 0.65051 0.11355 0.00045 0.0
C2095 C 0.66306 0.05809 0.90375 0.0
H2096 H 0.66418 0.1247 0.82783 0.0
H2097 H 0.71091 0.1109 0.90571 0.0
H2098 H 0.63652 0.08977 0.8701 0.0
H2099 H 0.63233 0.10982 0.90169 0.0
H2100 H 0.63633 0.111 0.8407 0.0
H2101 H 0.71015 0.09149 0.96864 0.0
H2102 H 0.68972 0.09412 0.00077 0.0
H2103 H 0.69303 0.07456 0.96664 0.0
H2104 H 0.62938 0.09014 0.04591 0.0
H2105 H 0.64116 0.04321 0.96666 0.0
H2106 H 0.64497 0.12172 0.972 0.0
H2107 H 0.66496 0.11674 0.00308 0.0
H2108 H 0.64384 0.11758 0.03294 0.0
H2109 H 0.65819 0.06419 0.87132 0.0
H2110 H 0.66017 0.04354 0.90284 0.0
H2111 H 0.67775 0.06 0.90479 0.0
C2112 C 0.19215 0.6138 0.40266 0.0
C2113 C 0.18396 0.62262 0.36568 0.0
C2114 C 0.18223 0.60292 0.43255 0.0
C2115 C 0.16375 0.60034 0.4245 0.0
C2116 C 0.15553 0.60875 0.38629 0.0
C2117 C 0.16567 0.62005 0.35779 0.0
C2118 C 0.19141 0.59461 0.47353 0.0
C2119 C 0.13598 0.60591 0.37573 0.0
C2120 C 0.14191 0.55938 0.47753 0.0
C2121 C 0.13204 0.56685 0.51378 0.0
C2122 C 0.15219 0.57012 0.44814 0.0
C2123 C 0.15307 0.58877 0.45594 0.0
C2124 C 0.14362 0.59632 0.49348 0.0
C2125 C 0.13296 0.5853 0.52151 0.0
C2126 C 0.16163 0.56158 0.40786 0.0
C2127 C 0.14464 0.61607 0.50372 0.0
H2128 H 0.20622 0.61602 0.40946 0.0
H2129 H 0.1593 0.62691 0.32936 0.0
H2130 H 0.18478 0.59905 0.50568 0.0
H2131 H 0.19026 0.57985 0.47203 0.0
H2132 H 0.2058 0.59821 0.47541 0.0
H2133 H 0.13184 0.61266 0.34343 0.0
H2134 H 0.13311 0.59141 0.37259 0.0
H2135 H 0.12769 0.61112 0.40433 0.0
H2136 H 0.141 0.54516 0.47082 0.0
H2137 H 0.12531 0.59113 0.54937 0.0
H2138 H 0.1762 0.56418 0.40988 0.0
H2139 H 0.15678 0.56758 0.37529 0.0
H2140 H 0.15947 0.54691 0.40636 0.0
H2141 H 0.1588 0.62027 0.50712 0.0
H2142 H 0.13741 0.61967 0.53577 0.0
H2143 H 0.1388 0.62377 0.47483 0.0
C2144 C 0.63514 0.91789 0.60305 0.0
C2145 C 0.63282 0.93618 0.61138 0.0
C2146 C 0.64638 0.90749 0.63109 0.0
C2147 C 0.65504 0.91548 0.66926 0.0
C2148 C 0.65288 0.934 0.67747 0.0
C2149 C 0.64202 0.94417 0.64805 0.0
C2150 C 0.64874 0.8879 0.62034 0.0
C2151 C 0.66149 0.94296 0.71837 0.0
C2152 C 0.66823 0.88382 0.76607 0.0
C2153 C 0.68664 0.88196 0.75873 0.0
C2154 C 0.65788 0.89516 0.73814 0.0
C2155 C 0.66605 0.90437 0.70108 0.0
C2156 C 0.68467 0.90264 0.69385 0.0
C2157 C 0.69477 0.89167 0.72315 0.0
C2158 C 0.63815 0.89704 0.74781 0.0
C2159 C 0.69383 0.91183 0.65409 0.0
H2160 H 0.62803 0.91166 0.5748 0.0
H2161 H 0.64004 0.95825 0.65516 0.0
H2162 H 0.66316 0.88459 0.61795 0.0
H2163 H 0.64302 0.87971 0.64851 0.0
H2164 H 0.64213 0.88403 0.58763 0.0
H2165 H 0.65868 0.95752 0.71962 0.0
H2166 H 0.6565 0.93676 0.75057 0.0
H2167 H 0.67617 0.94097 0.71753 0.0
H2168 H 0.66189 0.87632 0.79346 0.0
H2169 H 0.70895 0.89005 0.71678 0.0
H2170 H 0.63034 0.89147 0.71875 0.0
H2171 H 0.63454 0.91137 0.75096 0.0
H2172 H 0.6341 0.89002 0.77981 0.0
H2173 H 0.70846 0.9093 0.65355 0.0
H2174 H 0.69157 0.92646 0.6558 0.0
H2175 H 0.68803 0.90706 0.6212 0.0
C2176 C 0.30637 0.39084 0.9069 0.0
C2177 C 0.31444 0.382 0.86976 0.0
C2178 C 0.31637 0.40189 0.93625 0.0
C2179 C 0.33478 0.40461 0.92748 0.0
C2180 C 0.34285 0.39622 0.88903 0.0
C2181 C 0.33265 0.38477 0.86107 0.0
C2182 C 0.30735 0.4102 0.97748 0.0
C2183 C 0.36231 0.39919 0.8777 0.0
C2184 C 0.35731 0.44555 0.97871 0.0
C2185 C 0.36763 0.43807 0.0141 0.0
C2186 C 0.34653 0.43485 0.95044 0.0
C2187 C 0.34561 0.41622 0.9585 0.0
C2188 C 0.3554 0.40867 0.99544 0.0
C2189 C 0.36653 0.41965 0.02236 0.0
C2190 C 0.33669 0.44338 0.9108 0.0
C2191 C 0.35438 0.38895 0.00597 0.0
H2192 H 0.29237 0.38848 0.9143 0.0
H2193 H 0.33893 0.37792 0.83249 0.0
H2194 H 0.31406 0.40567 0.00943 0.0
H2195 H 0.30858 0.42495 0.97612 0.0
H2196 H 0.29295 0.40667 0.97963 0.0
H2197 H 0.36631 0.39248 0.84522 0.0
H2198 H 0.36508 0.4137 0.87451 0.0
H2199 H 0.3708 0.394 0.90595 0.0
H2200 H 0.3583 0.45974 0.97159 0.0
H2201 H 0.37449 0.4138 0.04959 0.0
H2202 H 0.32218 0.44054 0.91331 0.0
H2203 H 0.34145 0.43758 0.8779 0.0
H2204 H 0.33861 0.4581 0.90957 0.0
H2205 H 0.34023 0.38477 0.00971 0.0
H2206 H 0.3617 0.38541 0.03791 0.0
H2207 H 0.36014 0.38119 0.97706 0.0
C2208 C 0.80911 0.10906 0.22641 0.0
C2209 C 0.81738 0.11862 0.26205 0.0
C2210 C 0.81906 0.09804 0.1969 0.0
C2211 C 0.83767 0.09609 0.20398 0.0
C2212 C 0.84598 0.10517 0.24103 0.0
C2213 C 0.83578 0.11657 0.26917 0.0
C2214 C 0.80975 0.08899 0.15714 0.0
C2215 C 0.86569 0.10305 0.25054 0.0
C2216 C 0.861 0.0559 0.15086 0.0
C2217 C 0.87026 0.0637 0.11404 0.0
C2218 C 0.85036 0.06626 0.18038 0.0
C2219 C 0.8485 0.08481 0.17213 0.0
C2220 C 0.85724 0.09263 0.13385 0.0
C2221 C 0.86826 0.08204 0.10571 0.0
C2222 C 0.84166 0.05747 0.22141 0.0
C2223 C 0.85519 0.11226 0.12307 0.0
H2224 H 0.79493 0.11082 0.22021 0.0
H2225 H 0.84222 0.12396 0.2966 0.0
H2226 H 0.81566 0.09363 0.12425 0.0
H2227 H 0.81175 0.07433 0.15892 0.0
H2228 H 0.79518 0.09178 0.15656 0.0
H2229 H 0.86987 0.11005 0.28247 0.0
H2230 H 0.86912 0.08868 0.25376 0.0
H2231 H 0.87354 0.10849 0.22139 0.0
H2232 H 0.86274 0.04178 0.15799 0.0
H2233 H 0.87544 0.08812 0.07737 0.0
H2234 H 0.82701 0.05962 0.22059 0.0
H2235 H 0.84674 0.06365 0.25353 0.0
H2236 H 0.8443 0.04287 0.22278 0.0
H2237 H 0.84082 0.11579 0.12074 0.0
H2238 H 0.86183 0.11601 0.09032 0.0
H2239 H 0.86104 0.12037 0.1512 0.0
C2240 C 0.87038 0.58487 0.0188 0.0
C2241 C 0.87265 0.56658 0.01028 0.0
C2242 C 0.85945 0.5954 0.99024 0.0
C2243 C 0.85115 0.58757 0.95132 0.0
C2244 C 0.85348 0.56911 0.94257 0.0
C2245 C 0.86395 0.5588 0.97254 0.0
C2246 C 0.85686 0.61491 0.00155 0.0
C2247 C 0.84529 0.56033 0.90084 0.0
C2248 C 0.8107 0.61008 0.89752 0.0
C2249 C 0.81843 0.62001 0.86174 0.0
C2250 C 0.8212 0.59963 0.92709 0.0
C2251 C 0.83987 0.59862 0.91996 0.0
C2252 C 0.84772 0.60817 0.88299 0.0
C2253 C 0.83694 0.61901 0.85477 0.0
C2254 C 0.81234 0.59008 0.96677 0.0
C2255 C 0.86751 0.60703 0.87345 0.0
H2256 H 0.87715 0.59093 0.04781 0.0
H2257 H 0.86596 0.54473 0.96524 0.0
H2258 H 0.86232 0.62331 0.97347 0.0
H2259 H 0.84239 0.61798 0.00438 0.0
H2260 H 0.86351 0.61875 0.03422 0.0
H2261 H 0.84878 0.54593 0.89829 0.0
H2262 H 0.83054 0.5616 0.90194 0.0
H2263 H 0.84994 0.56717 0.86918 0.0
H2264 H 0.79644 0.61104 0.90367 0.0
H2265 H 0.84297 0.6267 0.82728 0.0
H2266 H 0.81832 0.5946 -0.00032 0.0
H2267 H 0.81467 0.57549 0.96411 0.0
H2268 H 0.7977 0.59251 0.96805 0.0
H2269 H 0.87511 0.61255 0.90294 0.0
H2270 H 0.87138 0.61447 0.84194 0.0
H2271 H 0.87157 0.59285 0.86943 0.0
C2272 C 0.1165 0.08347 0.64707 0.0
C2273 C 0.12448 0.07382 0.61124 0.0
C2274 C 0.12685 0.09347 0.67798 0.0
C2275 C 0.14559 0.09446 0.67177 0.0
C2276 C 0.15364 0.08529 0.63445 0.0
C2277 C 0.14302 0.0747 0.60529 0.0
C2278 C 0.1178 0.10246 0.71822 0.0
C2279 C 0.17347 0.0866 0.62549 0.0
C2280 C 0.16926 0.13373 0.72801 0.0
C2281 C 0.1782 0.12548 0.7646 0.0
C2282 C 0.15885 0.12376 0.69718 0.0
C2283 C 0.15672 0.10517 0.70424 0.0
C2284 C 0.16523 0.09686 0.74223 0.0
C2285 C 0.17628 0.10706 0.77132 0.0
C2286 C 0.15065 0.13303 0.65617 0.0
C2287 C 0.16271 0.07722 0.75204 0.0
H2288 H 0.10219 0.08243 0.65235 0.0
H2289 H 0.14919 0.0671 0.5778 0.0
H2290 H 0.12364 0.09748 0.75087 0.0
H2291 H 0.12013 0.11708 0.71705 0.0
H2292 H 0.10317 0.1 0.71881 0.0
H2293 H 0.17742 0.07979 0.59311 0.0
H2294 H 0.17757 0.10083 0.62345 0.0
H2295 H 0.18097 0.08047 0.65432 0.0
H2296 H 0.17112 0.14793 0.72218 0.0
H2297 H 0.18334 0.10069 0.79941 0.0
H2298 H 0.1359 0.13161 0.65692 0.0
H2299 H 0.15543 0.12665 0.624 0.0
H2300 H 0.154 0.14748 0.65496 0.0
H2301 H 0.14825 0.07398 0.75375 0.0
H2302 H 0.16911 0.07311 0.78483 0.0
H2303 H 0.16853 0.06916 0.72377 0.0
C2304 C 0.66362 0.37854 0.3588 0.0
C2305 C 0.6822 0.3785 0.36501 0.0
C2306 C 0.65251 0.38924 0.38651 0.0
C2307 C 0.66011 0.39969 0.42216 0.0
C2308 C 0.67885 0.39956 0.42872 0.0
C2309 C 0.68965 0.38919 0.3997 0.0
C2310 C 0.63264 0.38942 0.37757 0.0
C2311 C 0.68749 0.41015 0.46694 0.0
C2312 C 0.63575 0.44027 0.46944 0.0
C2313 C 0.6276 0.43338 0.50909 0.0
C2314 C 0.64595 0.42934 0.44035 0.0
C2315 C 0.64862 0.41117 0.45193 0.0
C2316 C 0.64071 0.4042 0.49247 0.0
C2317 C 0.62997 0.41532 0.52013 0.0
C2318 C 0.65365 0.43721 0.39682 0.0
C2319 C 0.64368 0.38504 0.50675 0.0
H2320 H 0.6578 0.37024 0.3322 0.0
H2321 H 0.70397 0.38899 0.40532 0.0
H2322 H 0.62537 0.38452 0.4083 0.0
H2323 H 0.62808 0.4033 0.37106 0.0
H2324 H 0.62889 0.38098 0.34768 0.0
H2325 H 0.70216 0.40799 0.46869 0.0
H2326 H 0.68495 0.42462 0.46193 0.0
H2327 H 0.68153 0.40634 0.50047 0.0
H2328 H 0.63362 0.45414 0.46019 0.0
H2329 H 0.62359 0.40995 0.5506 0.0
H2330 H 0.64929 0.42925 0.36666 0.0
H2331 H 0.66845 0.43666 0.39795 0.0
H2332 H 0.64952 0.45132 0.39152 0.0
H2333 H 0.63853 0.37588 0.47988 0.0
H2334 H 0.63701 0.3818 0.53982 0.0
H2335 H 0.65821 0.3824 0.5103 0.0
C2336 C 0.35733 0.93115 0.10625 0.0
C2337 C 0.37602 0.93019 0.10686 0.0
C2338 C 0.34696 0.92022 0.13521 0.0
C2339 C 0.35554 0.90866 0.16692 0.0
C2340 C 0.37443 0.90765 0.16752 0.0
C2341 C 0.38441 0.91817 0.1369 0.0
C2342 C 0.32685 0.92117 0.1322 0.0
C2343 C 0.38413 0.89597 0.2017 0.0
C2344 C 0.32852 0.89447 0.27196 0.0
C2345 C 0.32438 0.87675 0.26097 0.0
C2346 C 0.33909 0.9049 0.24222 0.0
C2347 C 0.34482 0.89765 0.1996 0.0
C2348 C 0.34036 0.8798 0.18826 0.0
C2349 C 0.33049 0.86948 0.21951 0.0
C2350 C 0.34409 0.92365 0.25632 0.0
C2351 C 0.34555 0.87177 0.14255 0.0
H2352 H 0.35084 0.94052 0.08324 0.0
H2353 H 0.39889 0.91767 0.13818 0.0
H2354 H 0.3212 0.90757 0.12757 0.0
H2355 H 0.32132 0.9266 0.1647 0.0
H2356 H 0.32228 0.92976 0.10336 0.0
H2357 H 0.39889 0.8969 0.19815 0.0
H2358 H 0.3804 0.89994 0.23719 0.0
H2359 H 0.38012 0.88182 0.19724 0.0
H2360 H 0.32358 0.9001 0.30386 0.0
H2361 H 0.32686 0.85587 0.21063 0.0
H2362 H 0.33804 0.93343 0.23229 0.0
H2363 H 0.3588 0.92539 0.25445 0.0
H2364 H 0.33958 0.92687 0.29175 0.0
H2365 H 0.34008 0.88003 0.11417 0.0
H2366 H 0.34059 0.85787 0.1385 0.0
H2367 H 0.3603 0.8717 0.13879 0.0
C2368 C 0.83353 0.38536 0.77246 0.0
C2369 C 0.81507 0.38406 0.76502 0.0
C2370 C 0.84428 0.39623 0.74426 0.0
C2371 C 0.83647 0.40552 0.70682 0.0
C2372 C 0.81782 0.4043 0.69937 0.0
C2373 C 0.80734 0.39382 0.72893 0.0
C2374 C 0.86403 0.39759 0.75416 0.0
C2375 C 0.80901 0.41359 0.65924 0.0
C2376 C 0.86089 0.44492 0.65297 0.0
C2377 C 0.8698 0.43682 0.61598 0.0
C2378 C 0.85015 0.43488 0.68299 0.0
C2379 C 0.8478 0.41636 0.67507 0.0
C2380 C 0.85627 0.40822 0.63682 0.0
C2381 C 0.86742 0.41849 0.60818 0.0
C2382 C 0.84177 0.44399 0.72399 0.0
C2383 C 0.85368 0.38863 0.62638 0.0
H2384 H 0.83956 0.37781 0.80021 0.0
H2385 H 0.79312 0.39263 0.72243 0.0
H2386 H 0.87176 0.39183 0.72521 0.0
H2387 H 0.868 0.41183 0.75734 0.0
H2388 H 0.86783 0.39049 0.78622 0.0
H2389 H 0.79436 0.41124 0.65813 0.0
H2390 H 0.81144 0.42819 0.66106 0.0
H2391 H 0.81495 0.40876 0.62657 0.0
H2392 H 0.86294 0.45902 0.65972 0.0
H2393 H 0.87433 0.41218 0.57974 0.0
H2394 H 0.84644 0.43752 0.75614 0.0
H2395 H 0.82703 0.44254 0.72282 0.0
H2396 H 0.84509 0.45845 0.72559 0.0
H2397 H 0.85911 0.38044 0.6549 0.0
H2398 H 0.86038 0.38457 0.59396 0.0
H2399 H 0.83922 0.38554 0.62359 0.0
C2400 C 0.35595 0.07243 0.51959 0.0
C2401 C 0.37421 0.07046 0.51068 0.0
C2402 C 0.34517 0.08309 0.49094 0.0
C2403 C 0.35271 0.09115 0.45126 0.0
C2404 C 0.37114 0.0889 0.44192 0.0
C2405 C 0.38172 0.0789 0.47228 0.0
C2406 C 0.32574 0.08575 0.50313 0.0
C2407 C 0.37958 0.09663 0.39916 0.0
C2408 C 0.3204 0.10437 0.35573 0.0
C2409 C 0.31986 0.12297 0.36077 0.0
C2410 C 0.33144 0.09386 0.38408 0.0
C2411 C 0.34143 0.1021 0.41971 0.0
C2412 C 0.34073 0.12089 0.42508 0.0
C2413 C 0.33025 0.13111 0.39494 0.0
C2414 C 0.3324 0.07396 0.37599 0.0
C2415 C 0.35059 0.13016 0.4636 0.0
H2416 H 0.35015 0.06573 0.54908 0.0
H2417 H 0.3958 0.07698 0.46483 0.0
H2418 H 0.3226 0.10024 0.50463 0.0
H2419 H 0.31713 0.0798 0.47617 0.0
H2420 H 0.32225 0.07959 0.53668 0.0
H2421 H 0.39394 0.09306 0.39602 0.0
H2422 H 0.37244 0.09169 0.36824 0.0
H2423 H 0.3784 0.11139 0.39931 0.0
H2424 H 0.31225 0.09808 0.32952 0.0
H2425 H 0.3295 0.14547 0.39956 0.0
H2426 H 0.32686 0.06674 0.40605 0.0
H2427 H 0.34653 0.06973 0.37211 0.0
H2428 H 0.32487 0.06982 0.34485 0.0
H2429 H 0.34633 0.12453 0.49715 0.0
H2430 H 0.34817 0.1448 0.46396 0.0
H2431 H 0.36516 0.12781 0.46037 0.0
C2432 C 0.63477 0.58306 0.10505 0.0
C2433 C 0.63242 0.56473 0.11287 0.0
C2434 C 0.64586 0.59335 0.13376 0.0
C2435 C 0.65427 0.58524 0.17213 0.0
C2436 C 0.6519 0.56673 0.18013 0.0
C2437 C 0.64124 0.55666 0.15001 0.0
C2438 C 0.64847 0.61293 0.12324 0.0
C2439 C 0.66021 0.55764 0.22125 0.0
C2440 C 0.69477 0.60778 0.22563 0.0
C2441 C 0.68706 0.61762 0.26161 0.0
C2442 C 0.68426 0.59725 0.19625 0.0
C2443 C 0.66561 0.59609 0.20377 0.0
C2444 C 0.65783 0.60548 0.24109 0.0
C2445 C 0.66861 0.61639 0.26912 0.0
C2446 C 0.69305 0.58788 0.15621 0.0
C2447 C 0.63808 0.60417 0.25106 0.0
H2448 H 0.62792 0.58934 0.07648 0.0
H2449 H 0.63918 0.54256 0.15675 0.0
H2450 H 0.64307 0.62116 0.15175 0.0
H2451 H 0.66294 0.61599 0.12035 0.0
H2452 H 0.64176 0.61699 0.09083 0.0
H2453 H 0.6568 0.54321 0.22305 0.0
H2454 H 0.67496 0.559 0.22004 0.0
H2455 H 0.65559 0.56421 0.25332 0.0
H2456 H 0.70899 0.60891 0.21909 0.0
H2457 H 0.6626 0.624 0.29678 0.0
H2458 H 0.68711 0.59265 0.12349 0.0
H2459 H 0.6906 0.57328 0.15824 0.0
H2460 H 0.7077 0.5902 0.15503 0.0
H2461 H 0.63035 0.60991 0.22208 0.0
H2462 H 0.6343 0.61133 0.28307 0.0
H2463 H 0.63408 0.58994 0.25438 0.0
C2464 C 0.17137 0.88742 0.85508 0.0
C2465 C 0.18975 0.88572 0.86316 0.0
C2466 C 0.16064 0.89819 0.88359 0.0
C2467 C 0.16839 0.90695 0.92196 0.0
C2468 C 0.18695 0.90523 0.93022 0.0
C2469 C 0.19742 0.89487 0.90037 0.0
C2470 C 0.14101 0.90011 0.87285 0.0
C2471 C 0.19567 0.91392 0.97135 0.0
C2472 C 0.14503 0.94699 0.97537 0.0
C2473 C 0.13557 0.93914 0.01186 0.0
C2474 C 0.15557 0.93664 0.94566 0.0
C2475 C 0.15717 0.91804 0.95332 0.0
C2476 C 0.14812 0.91011 0.99101 0.0
C2477 C 0.13718 0.92072 0.0194 0.0
C2478 C 0.16459 0.94557 0.90528 0.0
C2479 C 0.14991 0.89041 0.00112 0.0
H2480 H 0.16539 0.8803 0.82652 0.0
H2481 H 0.21157 0.89334 0.9074 0.0
H2482 H 0.13292 0.89454 0.9014 0.0
H2483 H 0.13747 0.91446 0.86964 0.0
H2484 H 0.13722 0.89316 0.84054 0.0
H2485 H 0.21019 0.91094 0.97349 0.0
H2486 H 0.19391 0.92862 0.96979 0.0
H2487 H 0.18915 0.90922 0.0034 0.0
H2488 H 0.14358 0.96117 0.96876 0.0
H2489 H 0.12985 0.9146 0.0474 0.0
H2490 H 0.16005 0.93928 0.87276 0.0
H2491 H 0.17927 0.94368 0.90736 0.0
H2492 H 0.16172 0.96012 0.90361 0.0
H2493 H 0.14445 0.88251 0.97209 0.0
H2494 H 0.14277 0.88648 0.03304 0.0
H2495 H 0.16422 0.88679 0.0047 0.0
loop_
_geom_bond_atom_site_label_1
_geom_bond_atom_site_label_2
_geom_bond_distance
_geom_bond_site_symmetry_2
_ccdc_geom_bond_type
C0 O2 1.247 . S
C0 O4 1.258 . S
C1 O8 1.247 . S
C1 O9 1.258 . S
O2 C0 1.247 . S
O2 Zn3 2.028 . S
Zn3 O2 2.028 . S
Zn3 O7 2.035 . S
Zn3 O9 2.035 . S
Zn3 O10 2.028 . S
O4 C0 1.258 . S
O4 Zn5 2.035 . S
Zn5 O4 2.035 . S
Zn5 O6 2.028 . S
Zn5 O8 2.028 . S
Zn5 O11 2.035 . S
O6 Zn5 2.028 . S
O6 C12 1.246 1_554 S
O7 Zn3 2.035 . S
O7 C12 1.257 1_554 S
O8 C1 1.247 . S
O8 Zn5 2.028 . S
O9 C1 1.258 . S
O9 Zn3 2.035 . S
O10 Zn3 2.028 . S
O10 C13 1.247 . S
O11 Zn5 2.035 . S
O11 C13 1.258 . S
C12 O6 1.246 1_556 S
C12 O7 1.257 1_556 S
C13 O10 1.247 . S
C13 O11 1.258 . S
C14 O16 1.247 . S
C14 O18 1.258 . S
C15 O22 1.247 . S
C15 O23 1.258 . S
O16 C14 1.247 . S
O16 Zn17 2.028 . S
Zn17 O16 2.028 . S
Zn17 O21 2.035 . S
Zn17 O23 2.035 . S
Zn17 O24 2.028 . S
O18 C14 1.258 . S
O18 Zn19 2.035 . S
Zn19 O18 2.035 . S
Zn19 O20 2.028 . S
Zn19 O22 2.028 . S
Zn19 O25 2.035 . S
O20 Zn19 2.028 . S
O20 C26 1.247 . S
O21 Zn17 2.035 . S
O21 C26 1.258 . S
O22 C15 1.247 . S
O22 Zn19 2.028 . S
O23 C15 1.258 . S
O23 Zn17 2.035 . S
O24 Zn17 2.028 . S
O24 C27 1.247 . S
O25 Zn19 2.035 . S
O25 C27 1.258 . S
C26 O20 1.247 . S
C26 O21 1.258 . S
C27 O24 1.247 . S
C27 O25 1.258 . S
C28 O30 1.247 . S
C28 O32 1.258 . S
C29 O36 1.247 . S
C29 O37 1.258 . S
O30 C28 1.247 . S
O30 Zn31 2.028 . S
Zn31 O30 2.028 . S
Zn31 O35 2.035 . S
Zn31 O37 2.035 . S
Zn31 O38 2.028 . S
O32 C28 1.258 . S
O32 Zn33 2.035 . S
Zn33 O32 2.035 . S
Zn33 O34 2.028 . S
Zn33 O36 2.028 . S
Zn33 O39 2.035 . S
O34 Zn33 2.028 . S
O34 C40 1.247 . S
O35 Zn31 2.035 . S
O35 C40 1.258 . S
O36 C29 1.247 . S
O36 Zn33 2.028 . S
O37 C29 1.258 . S
O37 Zn31 2.035 . S
O38 Zn31 2.028 . S
O38 C41 1.247 . S
O39 Zn33 2.035 . S
O39 C41 1.258 . S
C40 O34 1.247 . S
C40 O35 1.258 . S
C41 O38 1.247 . S
C41 O39 1.258 . S
C42 O44 1.247 . S
C42 O46 1.258 . S
C43 O50 1.247 . S
C43 O51 1.258 . S
O44 C42 1.247 . S
O44 Zn45 2.028 . S
Zn45 O44 2.028 . S
Zn45 O49 2.035 . S
Zn45 O51 2.035 . S
Zn45 O52 2.028 . S
O46 C42 1.258 . S
O46 Zn47 2.035 . S
Zn47 O46 2.035 . S
Zn47 O48 2.028 . S
Zn47 O50 2.028 . S
Zn47 O53 2.035 . S
O48 Zn47 2.028 . S
O48 C54 1.247 . S
O49 Zn45 2.035 . S
O49 C54 1.258 . S
O50 C43 1.247 . S
O50 Zn47 2.028 . S
O51 C43 1.258 . S
O51 Zn45 2.035 . S
O52 Zn45 2.028 . S
O52 C55 1.247 . S
O53 Zn47 2.035 . S
O53 C55 1.258 . S
C54 O48 1.247 . S
C54 O49 1.258 . S
C55 O52 1.247 . S
C55 O53 1.258 . S
C56 O58 1.247 . S
C56 O60 1.258 . S
C57 O64 1.247 . S
C57 O65 1.258 . S
O58 C56 1.247 . S
O58 Zn59 2.028 . S
Zn59 O58 2.028 . S
Zn59 O63 2.035 . S
Zn59 O65 2.035 . S
Zn59 O66 2.028 . S
O60 C56 1.258 . S
O60 Zn61 2.035 . S
Zn61 O60 2.035 . S
Zn61 O62 2.028 . S
Zn61 O64 2.028 . S
Zn61 O67 2.035 . S
O62 Zn61 2.028 . S
O62 C68 1.247 . S
O63 Zn59 2.035 . S
O63 C68 1.258 . S
O64 C57 1.247 . S
O64 Zn61 2.028 . S
O65 C57 1.258 . S
O65 Zn59 2.035 . S
O66 Zn59 2.028 . S
O66 C69 1.247 . S
O67 Zn61 2.035 . S
O67 C69 1.258 . S
C68 O62 1.247 . S
C68 O63 1.258 . S
C69 O66 1.247 . S
C69 O67 1.258 . S
C70 O72 1.247 . S
C70 O74 1.258 . S
C71 O78 1.247 . S
C71 O79 1.258 . S
O72 C70 1.247 . S
O72 Zn73 2.028 . S
Zn73 O72 2.028 . S
Zn73 O77 2.035 . S
Zn73 O79 2.035 . S
Zn73 O80 2.028 . S
O74 C70 1.258 . S
O74 Zn75 2.035 . S
Zn75 O74 2.035 . S
Zn75 O76 2.028 . S
Zn75 O78 2.028 . S
Zn75 O81 2.035 . S
O76 Zn75 2.028 . S
O76 C82 1.247 . S
O77 Zn73 2.035 . S
O77 C82 1.258 . S
O78 C71 1.247 . S
O78 Zn75 2.028 . S
O79 C71 1.258 . S
O79 Zn73 2.035 . S
O80 Zn73 2.028 . S
O80 C83 1.247 . S
O81 Zn75 2.035 . S
O81 C83 1.258 . S
C82 O76 1.247 . S
C82 O77 1.258 . S
C83 O80 1.247 . S
C83 O81 1.258 . S
C84 O86 1.247 . S
C84 O88 1.258 . S
C85 O92 1.247 . S
C85 O93 1.258 . S
O86 C84 1.247 . S
O86 Zn87 2.028 . S
Zn87 O86 2.028 . S
Zn87 O91 2.035 . S
Zn87 O93 2.035 . S
Zn87 O94 2.028 1_554 S
O88 C84 1.258 . S
O88 Zn89 2.035 . S
Zn89 O88 2.035 . S
Zn89 O90 2.028 . S
Zn89 O92 2.028 . S
Zn89 O95 2.035 1_554 S
O90 Zn89 2.028 . S
O90 C96 1.247 . S
O91 Zn87 2.035 . S
O91 C96 1.258 . S
O92 C85 1.247 . S
O92 Zn89 2.028 . S
O93 C85 1.258 . S
O93 Zn87 2.035 . S
O94 Zn87 2.028 1_556 S
O94 C97 1.247 . S
O95 Zn89 2.035 1_556 S
O95 C97 1.258 . S
C96 O90 1.247 . S
C96 O91 1.258 . S
C97 O94 1.247 . S
C97 O95 1.258 . S
C98 O100 1.247 . S
C98 O102 1.258 . S
C99 O106 1.247 . S
C99 O107 1.258 . S
O100 C98 1.247 . S
O100 Zn101 2.028 . S
Zn101 O100 2.028 . S
Zn101 O105 2.035 . S
Zn101 O107 2.035 . S
Zn101 O108 2.028 . S
O102 C98 1.258 . S
O102 Zn103 2.035 . S
Zn103 O102 2.035 . S
Zn103 O104 2.028 . S
Zn103 O106 2.028 . S
Zn103 O109 2.035 . S
O104 Zn103 2.028 . S
O104 C110 1.247 . S
O105 Zn101 2.035 . S
O105 C110 1.258 . S
O106 C99 1.247 . S
O106 Zn103 2.028 . S
O107 C99 1.258 . S
O107 Zn101 2.035 . S
O108 Zn101 2.028 . S
O108 C111 1.247 . S
O109 Zn103 2.035 . S
O109 C111 1.258 . S
C110 O104 1.247 . S
C110 O105 1.258 . S
C111 O108 1.247 . S
C111 O109 1.258 . S
C112 O114 1.247 . S
C112 O116 1.258 . S
C113 O120 1.247 . S
C113 O121 1.258 . S
O114 C112 1.247 . S
O114 Zn115 2.028 1_556 S
Zn115 O114 2.028 1_554 S
Zn115 O119 2.035 . S
Zn115 O121 2.035 . S
Zn115 O122 2.028 . S
O116 C112 1.258 . S
O116 Zn117 2.035 1_556 S
Zn117 O116 2.035 1_554 S
Zn117 O118 2.028 . S
Zn117 O120 2.028 . S
Zn117 O123 2.035 . S
O118 Zn117 2.028 . S
O118 C124 1.247 . S
O119 Zn115 2.035 . S
O119 C124 1.258 . S
O120 C113 1.247 . S
O120 Zn117 2.028 . S
O121 C113 1.258 . S
O121 Zn115 2.035 . S
O122 Zn115 2.028 . S
O122 C125 1.247 . S
O123 Zn117 2.035 . S
O123 C125 1.258 . S
C124 O118 1.247 . S
C124 O119 1.258 . S
C125 O122 1.247 . S
C125 O123 1.258 . S
C126 O128 1.247 . S
C126 O130 1.258 . S
C127 O134 1.247 . S
C127 O135 1.258 . S
O128 C126 1.247 . S
O128 Zn129 2.028 . S
Zn129 O128 2.028 . S
Zn129 O133 2.035 . S
Zn129 O135 2.035 . S
Zn129 O136 2.028 . S
O130 C126 1.258 . S
O130 Zn131 2.035 . S
Zn131 O130 2.035 . S
Zn131 O132 2.028 . S
Zn131 O134 2.028 . S
Zn131 O137 2.035 . S
O132 Zn131 2.028 . S
O132 C138 1.247 . S
O133 Zn129 2.035 . S
O133 C138 1.258 . S
O134 C127 1.247 . S
O134 Zn131 2.028 . S
O135 C127 1.258 . S
O135 Zn129 2.035 . S
O136 Zn129 2.028 . S
O136 C139 1.247 . S
O137 Zn131 2.035 . S
O137 C139 1.258 . S
C138 O132 1.247 . S
C138 O133 1.258 . S
C139 O136 1.247 . S
C139 O137 1.258 . S
C140 O142 1.247 . S
C140 O144 1.258 . S
C141 O148 1.247 . S
C141 O149 1.258 . S
O142 C140 1.247 . S
O142 Zn143 2.028 . S
Zn143 O142 2.028 . S
Zn143 O147 2.035 . S
Zn143 O149 2.035 . S
Zn143 O150 2.028 . S
O144 C140 1.258 . S
O144 Zn145 2.035 . S
Zn145 O144 2.035 . S
Zn145 O146 2.028 . S
Zn145 O148 2.028 . S
Zn145 O151 2.035 . S
O146 Zn145 2.028 . S
O146 C152 1.247 . S
O147 Zn143 2.035 . S
O147 C152 1.258 . S
O148 C141 1.247 . S
O148 Zn145 2.028 . S
O149 C141 1.258 . S
O149 Zn143 2.035 . S
O150 Zn143 2.028 . S
O150 C153 1.247 . S
O151 Zn145 2.035 . S
O151 C153 1.258 . S
C152 O146 1.247 . S
C152 O147 1.258 . S
C153 O150 1.247 . S
C153 O151 1.258 . S
C154 O156 1.247 . S
C154 O158 1.258 . S
C155 O162 1.247 . S
C155 O163 1.258 . S
O156 C154 1.247 . S
O156 Zn157 2.028 . S
Zn157 O156 2.028 . S
Zn157 O161 2.035 . S
Zn157 O163 2.035 . S
Zn157 O164 2.028 . S
O158 C154 1.258 . S
O158 Zn159 2.035 . S
Zn159 O158 2.035 . S
Zn159 O160 2.028 . S
Zn159 O162 2.028 . S
Zn159 O165 2.035 . S
O160 Zn159 2.028 . S
O160 C166 1.247 . S
O161 Zn157 2.035 . S
O161 C166 1.258 . S
O162 C155 1.247 . S
O162 Zn159 2.028 . S
O163 C155 1.258 . S
O163 Zn157 2.035 . S
O164 Zn157 2.028 . S
O164 C167 1.247 . S
O165 Zn159 2.035 . S
O165 C167 1.258 . S
C166 O160 1.247 . S
C166 O161 1.258 . S
C167 O164 1.247 . S
C167 O165 1.258 . S
C168 O170 1.247 . S
C168 O172 1.258 . S
C169 O176 1.247 . S
C169 O177 1.258 . S
O170 C168 1.247 . S
O170 Zn171 2.028 . S
Zn171 O170 2.028 . S
Zn171 O175 2.035 . S
Zn171 O177 2.035 . S
Zn171 O178 2.028 . S
O172 C168 1.258 . S
O172 Zn173 2.035 . S
Zn173 O172 2.035 . S
Zn173 O174 2.028 . S
Zn173 O176 2.028 . S
Zn173 O179 2.035 . S
O174 Zn173 2.028 . S
O174 C180 1.247 . S
O175 Zn171 2.035 . S
O175 C180 1.258 . S
O176 C169 1.247 . S
O176 Zn173 2.028 . S
O177 C169 1.258 . S
O177 Zn171 2.035 . S
O178 Zn171 2.028 . S
O178 C181 1.247 . S
O179 Zn173 2.035 . S
O179 C181 1.258 . S
C180 O174 1.247 . S
C180 O175 1.258 . S
C181 O178 1.247 . S
C181 O179 1.258 . S
C182 O184 1.247 . S
C182 O186 1.258 . S
C183 O190 1.247 . S
C183 O191 1.258 . S
O184 C182 1.247 . S
O184 Zn185 2.028 . S
Zn185 O184 2.028 . S
Zn185 O189 2.035 . S
Zn185 O191 2.035 . S
Zn185 O192 2.028 . S
O186 C182 1.258 . S
O186 Zn187 2.035 . S
Zn187 O186 2.035 . S
Zn187 O188 2.028 . S
Zn187 O190 2.028 . S
Zn187 O193 2.035 . S
O188 Zn187 2.028 . S
O188 C194 1.247 . S
O189 Zn185 2.035 . S
O189 C194 1.258 . S
O190 C183 1.247 . S
O190 Zn187 2.028 . S
O191 C183 1.258 . S
O191 Zn185 2.035 . S
O192 Zn185 2.028 . S
O192 C195 1.247 . S
O193 Zn187 2.035 . S
O193 C195 1.258 . S
C194 O188 1.247 . S
C194 O189 1.258 . S
C195 O192 1.247 . S
C195 O193 1.258 . S
C196 O198 1.246 1_556 S
C196 O200 1.257 1_556 S
C197 O204 1.247 . S
C197 O205 1.258 . S
O198 C196 1.246 1_554 S
O198 Zn199 2.028 . S
Zn199 O198 2.028 . S
Zn199 O203 2.035 . S
Zn199 O205 2.035 . S
Zn199 O206 2.028 . S
O200 C196 1.257 1_554 S
O200 Zn201 2.035 . S
Zn201 O200 2.035 . S
Zn201 O202 2.028 . S
Zn201 O204 2.028 . S
Zn201 O207 2.035 . S
O202 Zn201 2.028 . S
O202 C208 1.247 . S
O203 Zn199 2.035 . S
O203 C208 1.258 . S
O204 C197 1.247 . S
O204 Zn201 2.028 . S
O205 C197 1.258 . S
O205 Zn199 2.035 . S
O206 Zn199 2.028 . S
O206 C209 1.247 . S
O207 Zn201 2.035 . S
O207 C209 1.258 . S
C208 O202 1.247 . S
C208 O203 1.258 . S
C209 O206 1.247 . S
C209 O207 1.258 . S
C210 O212 1.247 . S
C210 O214 1.258 . S
C211 O218 1.247 . S
C211 O219 1.258 . S
O212 C210 1.247 . S
O212 Zn213 2.028 . S
Zn213 O212 2.028 . S
Zn213 O217 2.035 . S
Zn213 O219 2.035 . S
Zn213 O220 2.028 . S
O214 C210 1.258 . S
O214 Zn215 2.035 . S
Zn215 O214 2.035 . S
Zn215 O216 2.028 . S
Zn215 O218 2.028 . S
Zn215 O221 2.035 . S
O216 Zn215 2.028 . S
O216 C222 1.247 . S
O217 Zn213 2.035 . S
O217 C222 1.258 . S
O218 C211 1.247 . S
O218 Zn215 2.028 . S
O219 C211 1.258 . S
O219 Zn213 2.035 . S
O220 Zn213 2.028 . S
O220 C223 1.247 . S
O221 Zn215 2.035 . S
O221 C223 1.258 . S
C222 O216 1.247 . S
C222 O217 1.258 . S
C223 O220 1.247 . S
C223 O221 1.258 . S
C224 O226 1.247 . S
C224 O228 1.258 1_545 S
C225 O232 1.247 . S
C225 O233 1.258 . S
O226 C224 1.247 . S
O226 Zn227 2.028 . S
Zn227 O226 2.028 . S
Zn227 O231 2.035 . S
Zn227 O233 2.035 1_545 S
Zn227 O234 2.028 . S
O228 C224 1.258 1_565 S
O228 Zn229 2.035 . S
Zn229 O228 2.035 . S
Zn229 O230 2.028 . S
Zn229 O232 2.028 . S
Zn229 O235 2.035 . S
O230 Zn229 2.028 . S
O230 C236 1.247 . S
O231 Zn227 2.035 . S
O231 C236 1.258 1_545 S
O232 C225 1.247 . S
O232 Zn229 2.028 . S
O233 C225 1.258 . S
O233 Zn227 2.035 1_565 S
O234 Zn227 2.028 . S
O234 C237 1.247 1_545 S
O235 Zn229 2.035 . S
O235 C237 1.258 . S
C236 O230 1.247 . S
C236 O231 1.258 1_565 S
C237 O234 1.247 1_565 S
C237 O235 1.258 . S
C238 O240 1.247 . S
C238 O242 1.258 . S
C239 O246 1.247 . S
C239 O247 1.258 . S
O240 C238 1.247 . S
O240 Zn241 2.028 . S
Zn241 O240 2.028 . S
Zn241 O245 2.035 . S
Zn241 O247 2.035 . S
Zn241 O248 2.028 . S
O242 C238 1.258 . S
O242 Zn243 2.035 . S
Zn243 O242 2.035 . S
Zn243 O244 2.028 . S
Zn243 O246 2.028 . S
Zn243 O249 2.035 . S
O244 Zn243 2.028 . S
O244 C250 1.247 . S
O245 Zn241 2.035 . S
O245 C250 1.258 . S
O246 C239 1.247 . S
O246 Zn243 2.028 . S
O247 C239 1.258 . S
O247 Zn241 2.035 . S
O248 Zn241 2.028 . S
O248 C251 1.247 . S
O249 Zn243 2.035 . S
O249 C251 1.258 . S
C250 O244 1.247 . S
C250 O245 1.258 . S
C251 O248 1.247 . S
C251 O249 1.258 . S
C252 O254 1.245 1_556 S
C252 O256 1.257 1_546 S
C253 O260 1.247 1_545 S
C253 O261 1.258 . S
O254 C252 1.245 1_554 S
O254 Zn255 2.028 . S
Zn255 O254 2.028 . S
Zn255 O259 2.035 . S
Zn255 O261 2.035 . S
Zn255 O262 2.028 . S
O256 C252 1.257 1_564 S
O256 Zn257 2.035 . S
Zn257 O256 2.035 . S
Zn257 O258 2.028 1_565 S
Zn257 O260 2.028 . S
Zn257 O263 2.035 . S
O258 Zn257 2.028 1_545 S
O258 C264 1.247 . S
O259 Zn255 2.035 . S
O259 C264 1.258 . S
O260 C253 1.247 1_565 S
O260 Zn257 2.028 . S
O261 C253 1.258 . S
O261 Zn255 2.035 . S
O262 Zn255 2.028 . S
O262 C265 1.247 1_545 S
O263 Zn257 2.035 . S
O263 C265 1.258 . S
C264 O258 1.247 . S
C264 O259 1.258 . S
C265 O262 1.247 1_565 S
C265 O263 1.258 . S
C266 O268 1.247 . S
C266 O270 1.258 . S
C267 O274 1.247 . S
C267 O275 1.258 . S
O268 C266 1.247 . S
O268 Zn269 2.028 . S
Zn269 O268 2.028 . S
Zn269 O273 2.035 . S
Zn269 O275 2.035 . S
Zn269 O276 2.028 . S
O270 C266 1.258 . S
O270 Zn271 2.035 . S
Zn271 O270 2.035 . S
Zn271 O272 2.028 . S
Zn271 O274 2.028 . S
Zn271 O277 2.035 . S
O272 Zn271 2.028 . S
O272 C278 1.247 . S
O273 Zn269 2.035 . S
O273 C278 1.258 . S
O274 C267 1.247 . S
O274 Zn271 2.028 . S
O275 C267 1.258 . S
O275 Zn269 2.035 . S
O276 Zn269 2.028 . S
O276 C279 1.247 . S
O277 Zn271 2.035 . S
O277 C279 1.258 . S
C278 O272 1.247 . S
C278 O273 1.258 . S
C279 O276 1.247 . S
C279 O277 1.258 . S
C280 O282 1.247 . S
C280 O284 1.258 1_565 S
C281 O288 1.247 . S
C281 O289 1.258 . S
O282 C280 1.247 . S
O282 Zn283 2.028 . S
Zn283 O282 2.028 . S
Zn283 O287 2.035 1_554 S
Zn283 O289 2.035 1_565 S
Zn283 O290 2.028 . S
O284 C280 1.258 1_545 S
O284 Zn285 2.035 . S
Zn285 O284 2.035 . S
Zn285 O286 2.028 1_554 S
Zn285 O288 2.028 . S
Zn285 O291 2.035 . S
O286 Zn285 2.028 1_556 S
O286 C292 1.247 . S
O287 Zn283 2.035 1_556 S
O287 C292 1.258 1_565 S
O288 C281 1.247 . S
O288 Zn285 2.028 . S
O289 C281 1.258 . S
O289 Zn283 2.035 1_545 S
O290 Zn283 2.028 . S
O290 C293 1.247 1_565 S
O291 Zn285 2.035 . S
O291 C293 1.258 . S
C292 O286 1.247 . S
C292 O287 1.258 1_545 S
C293 O290 1.247 1_545 S
C293 O291 1.258 . S
C294 O296 1.247 . S
C294 O298 1.258 . S
C295 O302 1.247 . S
C295 O303 1.258 . S
O296 C294 1.247 . S
O296 Zn297 2.028 . S
Zn297 O296 2.028 . S
Zn297 O301 2.035 . S
Zn297 O303 2.035 . S
Zn297 O304 2.028 . S
O298 C294 1.258 . S
O298 Zn299 2.035 . S
Zn299 O298 2.035 . S
Zn299 O300 2.028 . S
Zn299 O302 2.028 . S
Zn299 O305 2.035 . S
O300 Zn299 2.028 . S
O300 C306 1.247 . S
O301 Zn297 2.035 . S
O301 C306 1.258 . S
O302 C295 1.247 . S
O302 Zn299 2.028 . S
O303 C295 1.258 . S
O303 Zn297 2.035 . S
O304 Zn297 2.028 . S
O304 C307 1.247 . S
O305 Zn299 2.035 . S
O305 C307 1.258 . S
C306 O300 1.247 . S
C306 O301 1.258 . S
C307 O304 1.247 . S
C307 O305 1.258 . S
C308 O310 1.247 . S
C308 O312 1.258 1_565 S
C309 O316 1.247 1_565 S
C309 O317 1.258 . S
O310 C308 1.247 . S
O310 Zn311 2.028 . S
Zn311 O310 2.028 . S
Zn311 O315 2.035 . S
Zn311 O317 2.035 . S
Zn311 O318 2.028 . S
O312 C308 1.258 1_545 S
O312 Zn313 2.035 . S
Zn313 O312 2.035 . S
Zn313 O314 2.028 1_545 S
Zn313 O316 2.028 . S
Zn313 O319 2.035 . S
O314 Zn313 2.028 1_565 S
O314 C320 1.247 . S
O315 Zn311 2.035 . S
O315 C320 1.258 . S
O316 C309 1.247 1_545 S
O316 Zn313 2.028 . S
O317 C309 1.258 . S
O317 Zn311 2.035 . S
O318 Zn311 2.028 . S
O318 C321 1.247 1_565 S
O319 Zn313 2.035 . S
O319 C321 1.258 . S
C320 O314 1.247 . S
C320 O315 1.258 . S
C321 O318 1.247 1_545 S
C321 O319 1.258 . S
C322 O324 1.247 . S
C322 O326 1.258 . S
C323 O330 1.247 . S
C323 O331 1.258 . S
O324 C322 1.247 . S
O324 Zn325 2.028 . S
Zn325 O324 2.028 . S
Zn325 O329 2.035 . S
Zn325 O331 2.035 . S
Zn325 O332 2.028 . S
O326 C322 1.258 . S
O326 Zn327 2.035 . S
Zn327 O326 2.035 . S
Zn327 O328 2.028 . S
Zn327 O330 2.028 . S
Zn327 O333 2.035 . S
O328 Zn327 2.028 . S
O328 C334 1.247 . S
O329 Zn325 2.035 . S
O329 C334 1.258 . S
O330 C323 1.247 . S
O330 Zn327 2.028 . S
O331 C323 1.258 . S
O331 Zn325 2.035 . S
O332 Zn325 2.028 . S
O332 C335 1.247 . S
O333 Zn327 2.035 . S
O333 C335 1.258 . S
C334 O328 1.247 . S
C334 O329 1.258 . S
C335 O332 1.247 . S
C335 O333 1.258 . S
C336 O338 1.247 . S
C336 O340 1.258 . S
C337 O344 1.247 . S
C337 O345 1.258 1_565 S
O338 C336 1.247 . S
O338 Zn339 2.028 . S
Zn339 O338 2.028 . S
Zn339 O343 2.035 . S
Zn339 O345 2.035 . S
Zn339 O346 2.028 . S
O340 C336 1.258 . S
O340 Zn341 2.035 1_545 S
Zn341 O340 2.035 1_565 S
Zn341 O342 2.028 . S
Zn341 O344 2.028 . S
Zn341 O347 2.035 . S
O342 Zn341 2.028 . S
O342 C348 1.247 1_565 S
O343 Zn339 2.035 . S
O343 C348 1.258 . S
O344 C337 1.247 . S
O344 Zn341 2.028 . S
O345 C337 1.258 1_545 S
O345 Zn339 2.035 . S
O346 Zn339 2.028 . S
O346 C349 1.247 . S
O347 Zn341 2.035 . S
O347 C349 1.258 1_565 S
C348 O342 1.247 1_545 S
C348 O343 1.258 . S
C349 O346 1.247 . S
C349 O347 1.258 1_545 S
C350 O352 1.247 . S
C350 O354 1.258 . S
C351 O358 1.247 . S
C351 O359 1.258 . S
O352 C350 1.247 . S
O352 Zn353 2.028 . S
Zn353 O352 2.028 . S
Zn353 O357 2.035 . S
Zn353 O359 2.035 . S
Zn353 O360 2.028 . S
O354 C350 1.258 . S
O354 Zn355 2.035 . S
Zn355 O354 2.035 . S
Zn355 O356 2.028 . S
Zn355 O358 2.028 . S
Zn355 O361 2.035 . S
O356 Zn355 2.028 . S
O356 C362 1.247 . S
O357 Zn353 2.035 . S
O357 C362 1.258 . S
O358 C351 1.247 . S
O358 Zn355 2.028 . S
O359 C351 1.258 . S
O359 Zn353 2.035 . S
O360 Zn353 2.028 . S
O360 C363 1.247 . S
O361 Zn355 2.035 . S
O361 C363 1.258 . S
C362 O356 1.247 . S
C362 O357 1.258 . S
C363 O360 1.247 . S
C363 O361 1.258 . S
C364 O366 1.247 . S
C364 O368 1.258 . S
C365 O372 1.247 . S
C365 O373 1.258 1_545 S
O366 C364 1.247 . S
O366 Zn367 2.028 . S
Zn367 O366 2.028 . S
Zn367 O371 2.035 . S
Zn367 O373 2.035 . S
Zn367 O374 2.028 1_554 S
O368 C364 1.258 . S
O368 Zn369 2.035 1_565 S
Zn369 O368 2.035 1_545 S
Zn369 O370 2.028 . S
Zn369 O372 2.028 . S
Zn369 O375 2.035 1_554 S
O370 Zn369 2.028 . S
O370 C376 1.247 1_545 S
O371 Zn367 2.035 . S
O371 C376 1.258 . S
O372 C365 1.247 . S
O372 Zn369 2.028 . S
O373 C365 1.258 1_565 S
O373 Zn367 2.035 . S
O374 Zn367 2.028 1_556 S
O374 C377 1.247 . S
O375 Zn369 2.035 1_556 S
O375 C377 1.258 1_545 S
C376 O370 1.247 1_565 S
C376 O371 1.258 . S
C377 O374 1.247 . S
C377 O375 1.258 1_565 S
C378 O380 1.247 . S
C378 O382 1.258 . S
C379 O386 1.247 . S
C379 O387 1.258 . S
O380 C378 1.247 . S
O380 Zn381 2.028 . S
Zn381 O380 2.028 . S
Zn381 O385 2.035 . S
Zn381 O387 2.035 . S
Zn381 O388 2.028 . S
O382 C378 1.258 . S
O382 Zn383 2.035 . S
Zn383 O382 2.035 . S
Zn383 O384 2.028 . S
Zn383 O386 2.028 . S
Zn383 O389 2.035 . S
O384 Zn383 2.028 . S
O384 C390 1.247 . S
O385 Zn381 2.035 . S
O385 C390 1.258 . S
O386 C379 1.247 . S
O386 Zn383 2.028 . S
O387 C379 1.258 . S
O387 Zn381 2.035 . S
O388 Zn381 2.028 . S
O388 C391 1.247 . S
O389 Zn383 2.035 . S
O389 C391 1.258 . S
C390 O384 1.247 . S
C390 O385 1.258 . S
C391 O388 1.247 . S
C391 O389 1.258 . S
C392 O394 1.247 1_565 S
C392 O396 1.258 . S
C393 O400 1.245 1_556 S
C393 O401 1.257 1_566 S
O394 C392 1.247 1_545 S
O394 Zn395 2.028 . S
Zn395 O394 2.028 . S
Zn395 O399 2.035 . S
Zn395 O401 2.035 . S
Zn395 O402 2.028 1_545 S
O396 C392 1.258 . S
O396 Zn397 2.035 . S
Zn397 O396 2.035 . S
Zn397 O398 2.028 . S
Zn397 O400 2.028 . S
Zn397 O403 2.035 . S
O398 Zn397 2.028 . S
O398 C404 1.247 1_565 S
O399 Zn395 2.035 . S
O399 C404 1.258 . S
O400 C393 1.245 1_554 S
O400 Zn397 2.028 . S
O401 C393 1.257 1_544 S
O401 Zn395 2.035 . S
O402 Zn395 2.028 1_565 S
O402 C405 1.247 . S
O403 Zn397 2.035 . S
O403 C405 1.258 . S
C404 O398 1.247 1_545 S
C404 O399 1.258 . S
C405 O402 1.247 . S
C405 O403 1.258 . S
C406 O408 1.247 . S
C406 O410 1.258 . S
C407 O414 1.247 . S
C407 O415 1.258 . S
O408 C406 1.247 . S
O408 Zn409 2.028 . S
Zn409 O408 2.028 . S
Zn409 O413 2.035 . S
Zn409 O415 2.035 . S
Zn409 O416 2.028 . S
O410 C406 1.258 . S
O410 Zn411 2.035 . S
Zn411 O410 2.035 . S
Zn411 O412 2.028 . S
Zn411 O414 2.028 . S
Zn411 O417 2.035 . S
O412 Zn411 2.028 . S
O412 C418 1.247 . S
O413 Zn409 2.035 . S
O413 C418 1.258 . S
O414 C407 1.247 . S
O414 Zn411 2.028 . S
O415 C407 1.258 . S
O415 Zn409 2.035 . S
O416 Zn409 2.028 . S
O416 C419 1.247 . S
O417 Zn411 2.035 . S
O417 C419 1.258 . S
C418 O412 1.247 . S
C418 O413 1.258 . S
C419 O416 1.247 . S
C419 O417 1.258 . S
C420 O422 1.247 1_545 S
C420 O424 1.258 . S
C421 O428 1.247 . S
C421 O429 1.258 1_545 S
O422 C420 1.247 1_565 S
O422 Zn423 2.028 . S
Zn423 O422 2.028 . S
Zn423 O427 2.035 . S
Zn423 O429 2.035 . S
Zn423 O430 2.028 1_565 S
O424 C420 1.258 . S
O424 Zn425 2.035 . S
Zn425 O424 2.035 . S
Zn425 O426 2.028 . S
Zn425 O428 2.028 . S
Zn425 O431 2.035 . S
O426 Zn425 2.028 . S
O426 C432 1.247 1_545 S
O427 Zn423 2.035 . S
O427 C432 1.258 . S
O428 C421 1.247 . S
O428 Zn425 2.028 . S
O429 C421 1.258 1_565 S
O429 Zn423 2.035 . S
O430 Zn423 2.028 1_545 S
O430 C433 1.247 . S
O431 Zn425 2.035 . S
O431 C433 1.258 . S
C432 O426 1.247 1_565 S
C432 O427 1.258 . S
C433 O430 1.247 . S
C433 O431 1.258 . S
C434 O436 1.247 . S
C434 O438 1.258 . S
C435 O442 1.247 . S
C435 O443 1.258 . S
O436 C434 1.247 . S
O436 Zn437 2.028 . S
Zn437 O436 2.028 . S
Zn437 O441 2.035 . S
Zn437 O443 2.035 . S
Zn437 O444 2.028 . S
O438 C434 1.258 . S
O438 Zn439 2.035 . S
Zn439 O438 2.035 . S
Zn439 O440 2.028 . S
Zn439 O442 2.028 . S
Zn439 O445 2.035 . S
O440 Zn439 2.028 . S
O440 C446 1.247 . S
O441 Zn437 2.035 . S
O441 C446 1.258 . S
O442 C435 1.247 . S
O442 Zn439 2.028 . S
O443 C435 1.258 . S
O443 Zn437 2.035 . S
O444 Zn437 2.028 . S
O444 C447 1.247 . S
O445 Zn439 2.035 . S
O445 C447 1.258 . S
C446 O440 1.247 . S
C446 O441 1.258 . S
C447 O444 1.247 . S
C447 O445 1.258 . S
C448 C449 1.391 . S
C448 C450 1.394 . S
C448 H464 0.931 . S
C449 C448 1.391 . S
C449 C453 1.376 . S
C450 C448 1.394 . S
C450 C451 1.369 . S
C450 C454 1.531 . S
C451 C450 1.369 . S
C451 C452 1.410 . S
C451 C459 1.503 1_655 S
C452 C451 1.410 . S
C452 C453 1.392 . S
C452 C455 1.511 . S
C453 C449 1.376 . S
C453 C452 1.392 . S
C453 H465 0.929 . S
C454 C450 1.531 . S
C454 H466 0.960 1_655 S
C454 H467 0.962 . S
C454 H468 0.960 . S
C455 C452 1.511 . S
C455 H469 0.961 . S
C455 H470 0.961 . S
C455 H471 0.961 1_554 S
C456 C457 1.370 . S
C456 C458 1.363 . S
C456 H472 0.931 . S
C457 C456 1.370 . S
C457 C461 1.408 . S
C458 C456 1.363 . S
C458 C459 1.370 . S
C458 C462 1.524 . S
C459 C451 1.503 1_455 S
C459 C458 1.370 . S
C459 C460 1.403 . S
C460 C459 1.403 . S
C460 C461 1.404 . S
C460 C463 1.539 1_554 S
C461 C457 1.408 . S
C461 C460 1.404 . S
C461 H473 0.930 . S
C462 C458 1.524 . S
C462 H474 0.958 1_455 S
C462 H475 0.961 1_455 S
C462 H476 0.961 . S
C463 C460 1.539 1_556 S
C463 H477 0.958 . S
C463 H478 0.961 . S
C463 H479 0.960 . S
H464 C448 0.931 . S
H465 C453 0.929 . S
H466 C454 0.960 1_455 S
H467 C454 0.962 . S
H468 C454 0.960 . S
H469 C455 0.961 . S
H470 C455 0.961 . S
H471 C455 0.961 1_556 S
H472 C456 0.931 . S
H473 C461 0.930 . S
H474 C462 0.958 1_655 S
H475 C462 0.961 1_655 S
H476 C462 0.961 . S
H477 C463 0.958 . S
H478 C463 0.961 . S
H479 C463 0.960 . S
C480 C481 1.391 . S
C480 C482 1.394 . S
C480 H496 0.931 . S
C481 C480 1.391 . S
C481 C485 1.376 . S
C482 C480 1.394 . S
C482 C483 1.369 . S
C482 C486 1.531 . S
C483 C482 1.369 . S
C483 C484 1.410 . S
C483 C491 1.503 . S
C484 C483 1.410 . S
C484 C485 1.392 . S
C484 C487 1.511 . S
C485 C481 1.376 . S
C485 C484 1.392 . S
C485 H497 0.929 . S
C486 C482 1.531 . S
C486 H498 0.960 . S
C486 H499 0.962 . S
C486 H500 0.960 . S
C487 C484 1.511 . S
C487 H501 0.961 . S
C487 H502 0.961 . S
C487 H503 0.961 . S
C488 C489 1.370 . S
C488 C490 1.363 . S
C488 H504 0.931 . S
C489 C488 1.370 . S
C489 C493 1.408 . S
C490 C488 1.363 . S
C490 C491 1.370 . S
C490 C494 1.524 . S
C491 C483 1.503 . S
C491 C490 1.370 . S
C491 C492 1.403 . S
C492 C491 1.403 . S
C492 C493 1.404 . S
C492 C495 1.539 . S
C493 C489 1.408 . S
C493 C492 1.404 . S
C493 H505 0.930 . S
C494 C490 1.524 . S
C494 H506 0.956 . S
C494 H507 0.961 . S
C494 H508 0.961 . S
C495 C492 1.539 . S
C495 H509 0.958 . S
C495 H510 0.961 . S
C495 H511 0.960 . S
H496 C480 0.931 . S
H497 C485 0.929 . S
H498 C486 0.960 . S
H499 C486 0.962 . S
H500 C486 0.960 . S
H501 C487 0.961 . S
H502 C487 0.961 . S
H503 C487 0.961 . S
H504 C488 0.931 . S
H505 C493 0.930 . S
H506 C494 0.956 . S
H507 C494 0.961 . S
H508 C494 0.961 . S
H509 C495 0.958 . S
H510 C495 0.961 . S
H511 C495 0.960 . S
C512 C513 1.391 . S
C512 C514 1.394 . S
C512 H528 0.931 . S
C513 C512 1.391 . S
C513 C517 1.376 . S
C514 C512 1.394 . S
C514 C515 1.369 . S
C514 C518 1.531 . S
C515 C514 1.369 . S
C515 C516 1.410 . S
C515 C523 1.503 . S
C516 C515 1.410 . S
C516 C517 1.392 . S
C516 C519 1.511 . S
C517 C513 1.376 . S
C517 C516 1.392 . S
C517 H529 0.929 . S
C518 C514 1.531 . S
C518 H530 0.960 . S
C518 H531 0.962 . S
C518 H532 0.960 . S
C519 C516 1.511 . S
C519 H533 0.961 . S
C519 H534 0.961 . S
C519 H535 0.961 . S
C520 C521 1.370 . S
C520 C522 1.363 . S
C520 H536 0.931 . S
C521 C520 1.370 . S
C521 C525 1.408 . S
C522 C520 1.363 . S
C522 C523 1.370 . S
C522 C526 1.524 . S
C523 C515 1.503 . S
C523 C522 1.370 . S
C523 C524 1.403 . S
C524 C523 1.403 . S
C524 C525 1.404 . S
C524 C527 1.539 . S
C525 C521 1.408 . S
C525 C524 1.404 . S
C525 H537 0.930 . S
C526 C522 1.524 . S
C526 H538 0.956 . S
C526 H539 0.961 . S
C526 H540 0.961 . S
C527 C524 1.539 . S
C527 H541 0.958 . S
C527 H542 0.961 . S
C527 H543 0.960 . S
H528 C512 0.931 . S
H529 C517 0.929 . S
H530 C518 0.960 . S
H531 C518 0.962 . S
H532 C518 0.960 . S
H533 C519 0.961 . S
H534 C519 0.961 . S
H535 C519 0.961 . S
H536 C520 0.931 . S
H537 C525 0.930 . S
H538 C526 0.956 . S
H539 C526 0.961 . S
H540 C526 0.961 . S
H541 C527 0.958 . S
H542 C527 0.961 . S
H543 C527 0.960 . S
C544 C545 1.391 . S
C544 C546 1.394 . S
C544 H560 0.931 . S
C545 C544 1.391 . S
C545 C549 1.376 . S
C546 C544 1.394 . S
C546 C547 1.369 . S
C546 C550 1.531 . S
C547 C546 1.369 . S
C547 C548 1.410 . S
C547 C555 1.503 . S
C548 C547 1.410 . S
C548 C549 1.392 . S
C548 C551 1.511 . S
C549 C545 1.376 . S
C549 C548 1.392 . S
C549 H561 0.929 . S
C550 C546 1.531 . S
C550 H562 0.960 . S
C550 H563 0.962 . S
C550 H564 0.960 . S
C551 C548 1.511 . S
C551 H565 0.961 . S
C551 H566 0.961 . S
C551 H567 0.961 . S
C552 C553 1.370 . S
C552 C554 1.363 . S
C552 H568 0.931 . S
C553 C552 1.370 . S
C553 C557 1.408 . S
C554 C552 1.363 . S
C554 C555 1.370 . S
C554 C558 1.524 . S
C555 C547 1.503 . S
C555 C554 1.370 . S
C555 C556 1.403 . S
C556 C555 1.403 . S
C556 C557 1.404 . S
C556 C559 1.539 . S
C557 C553 1.408 . S
C557 C556 1.404 . S
C557 H569 0.930 . S
C558 C554 1.524 . S
C558 H570 0.956 . S
C558 H571 0.961 . S
C558 H572 0.961 . S
C559 C556 1.539 . S
C559 H573 0.958 . S
C559 H574 0.961 . S
C559 H575 0.960 . S
H560 C544 0.931 . S
H561 C549 0.929 . S
H562 C550 0.960 . S
H563 C550 0.962 . S
H564 C550 0.960 . S
H565 C551 0.961 . S
H566 C551 0.961 . S
H567 C551 0.961 . S
H568 C552 0.931 . S
H569 C557 0.930 . S
H570 C558 0.956 . S
H571 C558 0.961 . S
H572 C558 0.961 . S
H573 C559 0.958 . S
H574 C559 0.961 . S
H575 C559 0.960 . S
C576 C577 1.391 . S
C576 C578 1.394 . S
C576 H592 0.931 . S
C577 C576 1.391 . S
C577 C581 1.376 . S
C578 C576 1.394 . S
C578 C579 1.369 . S
C578 C582 1.531 . S
C579 C578 1.369 . S
C579 C580 1.410 . S
C579 C587 1.503 1_455 S
C580 C579 1.410 . S
C580 C581 1.392 . S
C580 C583 1.511 . S
C581 C577 1.376 . S
C581 C580 1.392 . S
C581 H593 0.929 . S
C582 C578 1.531 . S
C582 H594 0.960 . S
C582 H595 0.962 . S
C582 H596 0.960 . S
C583 C580 1.511 . S
C583 H597 0.961 . S
C583 H598 0.961 1_455 S
C583 H599 0.961 . S
C584 C585 1.370 . S
C584 C586 1.363 . S
C584 H600 0.931 . S
C585 C584 1.370 . S
C585 C589 1.408 . S
C586 C584 1.363 . S
C586 C587 1.370 . S
C586 C590 1.524 . S
C587 C579 1.503 1_655 S
C587 C586 1.370 . S
C587 C588 1.403 . S
C588 C587 1.403 . S
C588 C589 1.404 . S
C588 C591 1.539 . S
C589 C585 1.408 . S
C589 C588 1.404 . S
C589 H601 0.930 . S
C590 C586 1.524 . S
C590 H602 0.956 . S
C590 H603 0.961 . S
C590 H604 0.961 . S
C591 C588 1.539 . S
C591 H605 0.958 . S
C591 H606 0.961 . S
C591 H607 0.960 1_655 S
H592 C576 0.931 . S
H593 C581 0.929 . S
H594 C582 0.960 . S
H595 C582 0.962 . S
H596 C582 0.960 . S
H597 C583 0.961 . S
H598 C583 0.961 1_655 S
H599 C583 0.961 . S
H600 C584 0.931 . S
H601 C589 0.930 . S
H602 C590 0.956 . S
H603 C590 0.961 . S
H604 C590 0.961 . S
H605 C591 0.958 . S
H606 C591 0.961 . S
H607 C591 0.960 1_455 S
C608 C609 1.391 . S
C608 C610 1.394 . S
C608 H624 0.931 . S
C609 C608 1.391 . S
C609 C613 1.376 . S
C610 C608 1.394 . S
C610 C611 1.369 . S
C610 C614 1.531 . S
C611 C610 1.369 . S
C611 C612 1.410 . S
C611 C619 1.503 . S
C612 C611 1.410 . S
C612 C613 1.392 . S
C612 C615 1.511 . S
C613 C609 1.376 . S
C613 C612 1.392 . S
C613 H625 0.929 . S
C614 C610 1.531 . S
C614 H626 0.960 . S
C614 H627 0.962 . S
C614 H628 0.960 . S
C615 C612 1.511 . S
C615 H629 0.961 . S
C615 H630 0.961 . S
C615 H631 0.961 . S
C616 C617 1.370 . S
C616 C618 1.363 . S
C616 H632 0.931 . S
C617 C616 1.370 . S
C617 C621 1.408 . S
C618 C616 1.363 . S
C618 C619 1.370 . S
C618 C622 1.524 . S
C619 C611 1.503 . S
C619 C618 1.370 . S
C619 C620 1.403 . S
C620 C619 1.403 . S
C620 C621 1.404 . S
C620 C623 1.539 . S
C621 C617 1.408 . S
C621 C620 1.404 . S
C621 H633 0.930 . S
C622 C618 1.524 . S
C622 H634 0.956 . S
C622 H635 0.961 . S
C622 H636 0.961 . S
C623 C620 1.539 . S
C623 H637 0.958 . S
C623 H638 0.961 . S
C623 H639 0.960 . S
H624 C608 0.931 . S
H625 C613 0.929 . S
H626 C614 0.960 . S
H627 C614 0.962 . S
H628 C614 0.960 . S
H629 C615 0.961 . S
H630 C615 0.961 . S
H631 C615 0.961 . S
H632 C616 0.931 . S
H633 C621 0.930 . S
H634 C622 0.956 . S
H635 C622 0.961 . S
H636 C622 0.961 . S
H637 C623 0.958 . S
H638 C623 0.961 . S
H639 C623 0.960 . S
C640 C641 1.391 . S
C640 C642 1.394 . S
C640 H656 0.931 . S
C641 C640 1.391 . S
C641 C645 1.376 . S
C642 C640 1.394 . S
C642 C643 1.369 . S
C642 C646 1.531 . S
C643 C642 1.369 . S
C643 C644 1.410 . S
C643 C651 1.503 . S
C644 C643 1.410 . S
C644 C645 1.392 . S
C644 C647 1.511 . S
C645 C641 1.376 . S
C645 C644 1.392 . S
C645 H657 0.929 . S
C646 C642 1.531 . S
C646 H658 0.960 . S
C646 H659 0.962 1_554 S
C646 H660 0.960 . S
C647 C644 1.511 . S
C647 H661 0.961 . S
C647 H662 0.961 . S
C647 H663 0.961 . S
C648 C649 1.370 . S
C648 C650 1.363 . S
C648 H664 0.931 . S
C649 C648 1.370 . S
C649 C653 1.408 . S
C650 C648 1.363 . S
C650 C651 1.370 . S
C650 C654 1.524 . S
C651 C643 1.503 . S
C651 C650 1.370 . S
C651 C652 1.403 . S
C652 C651 1.403 . S
C652 C653 1.404 . S
C652 C655 1.539 . S
C653 C649 1.408 . S
C653 C652 1.404 . S
C653 H665 0.930 . S
C654 C650 1.524 . S
C654 H666 0.956 1_554 S
C654 H667 0.961 . S
C654 H668 0.961 1_554 S
C655 C652 1.539 . S
C655 H669 0.958 . S
C655 H670 0.961 . S
C655 H671 0.960 . S
H656 C640 0.931 . S
H657 C645 0.929 . S
H658 C646 0.960 . S
H659 C646 0.962 1_556 S
H660 C646 0.960 . S
H661 C647 0.961 . S
H662 C647 0.961 . S
H663 C647 0.961 . S
H664 C648 0.931 . S
H665 C653 0.930 . S
H666 C654 0.956 1_556 S
H667 C654 0.961 . S
H668 C654 0.961 1_556 S
H669 C655 0.958 . S
H670 C655 0.961 . S
H671 C655 0.960 . S
C672 C673 1.391 . S
C672 C674 1.394 . S
C672 H688 0.931 . S
C673 C672 1.391 . S
C673 C677 1.376 . S
C674 C672 1.394 . S
C674 C675 1.369 . S
C674 C678 1.531 . S
C675 C674 1.369 . S
C675 C676 1.410 . S
C675 C683 1.503 . S
C676 C675 1.410 . S
C676 C677 1.392 . S
C676 C679 1.511 . S
C677 C673 1.376 . S
C677 C676 1.392 . S
C677 H689 0.929 . S
C678 C674 1.531 . S
C678 H690 0.960 . S
C678 H691 0.962 . S
C678 H692 0.960 . S
C679 C676 1.511 . S
C679 H693 0.961 . S
C679 H694 0.961 . S
C679 H695 0.961 . S
C680 C681 1.370 . S
C680 C682 1.363 . S
C680 H696 0.931 . S
C681 C680 1.370 . S
C681 C685 1.408 . S
C682 C680 1.363 . S
C682 C683 1.370 . S
C682 C686 1.524 . S
C683 C675 1.503 . S
C683 C682 1.370 . S
C683 C684 1.403 . S
C684 C683 1.403 . S
C684 C685 1.404 . S
C684 C687 1.539 . S
C685 C681 1.408 . S
C685 C684 1.404 . S
C685 H697 0.930 . S
C686 C682 1.524 . S
C686 H698 0.956 . S
C686 H699 0.961 . S
C686 H700 0.961 . S
C687 C684 1.539 . S
C687 H701 0.958 . S
C687 H702 0.961 . S
C687 H703 0.960 . S
H688 C672 0.931 . S
H689 C677 0.929 . S
H690 C678 0.960 . S
H691 C678 0.962 . S
H692 C678 0.960 . S
H693 C679 0.961 . S
H694 C679 0.961 . S
H695 C679 0.961 . S
H696 C680 0.931 . S
H697 C685 0.930 . S
H698 C686 0.956 . S
H699 C686 0.961 . S
H700 C686 0.961 . S
H701 C687 0.958 . S
H702 C687 0.961 . S
H703 C687 0.960 . S
C704 C705 1.391 . S
C704 C706 1.394 . S
C704 H720 0.931 . S
C705 C704 1.391 . S
C705 C709 1.376 . S
C706 C704 1.394 . S
C706 C707 1.369 . S
C706 C710 1.531 . S
C707 C706 1.369 . S
C707 C708 1.410 . S
C707 C715 1.503 . S
C708 C707 1.410 . S
C708 C709 1.392 . S
C708 C711 1.511 . S
C709 C705 1.376 . S
C709 C708 1.392 . S
C709 H721 0.929 . S
C710 C706 1.531 . S
C710 H722 0.960 . S
C710 H723 0.962 . S
C710 H724 0.960 . S
C711 C708 1.511 . S
C711 H725 0.961 . S
C711 H726 0.961 . S
C711 H727 0.961 . S
C712 C713 1.370 . S
C712 C714 1.363 . S
C712 H728 0.931 . S
C713 C712 1.370 . S
C713 C717 1.408 . S
C714 C712 1.363 . S
C714 C715 1.370 . S
C714 C718 1.524 . S
C715 C707 1.503 . S
C715 C714 1.370 . S
C715 C716 1.403 . S
C716 C715 1.403 . S
C716 C717 1.404 . S
C716 C719 1.539 . S
C717 C713 1.408 . S
C717 C716 1.404 . S
C717 H729 0.930 . S
C718 C714 1.524 . S
C718 H730 0.956 . S
C718 H731 0.961 . S
C718 H732 0.961 . S
C719 C716 1.539 . S
C719 H733 0.958 . S
C719 H734 0.961 . S
C719 H735 0.960 . S
H720 C704 0.931 . S
H721 C709 0.929 . S
H722 C710 0.960 . S
H723 C710 0.962 . S
H724 C710 0.960 . S
H725 C711 0.961 . S
H726 C711 0.961 . S
H727 C711 0.961 . S
H728 C712 0.931 . S
H729 C717 0.930 . S
H730 C718 0.956 . S
H731 C718 0.961 . S
H732 C718 0.961 . S
H733 C719 0.958 . S
H734 C719 0.961 . S
H735 C719 0.960 . S
C736 C737 1.391 . S
C736 C738 1.394 . S
C736 H752 0.931 . S
C737 C736 1.391 . S
C737 C741 1.376 . S
C738 C736 1.394 . S
C738 C739 1.369 . S
C738 C742 1.531 . S
C739 C738 1.369 . S
C739 C740 1.410 . S
C739 C747 1.503 . S
C740 C739 1.410 . S
C740 C741 1.392 . S
C740 C743 1.511 . S
C741 C737 1.376 . S
C741 C740 1.392 . S
C741 H753 0.929 . S
C742 C738 1.531 . S
C742 H754 0.960 . S
C742 H755 0.962 . S
C742 H756 0.960 . S
C743 C740 1.511 . S
C743 H757 0.961 . S
C743 H758 0.961 . S
C743 H759 0.961 . S
C744 C745 1.370 . S
C744 C746 1.363 . S
C744 H760 0.931 . S
C745 C744 1.370 . S
C745 C749 1.408 . S
C746 C744 1.363 . S
C746 C747 1.370 . S
C746 C750 1.524 . S
C747 C739 1.503 . S
C747 C746 1.370 . S
C747 C748 1.403 . S
C748 C747 1.403 . S
C748 C749 1.404 . S
C748 C751 1.539 . S
C749 C745 1.408 . S
C749 C748 1.404 . S
C749 H761 0.930 . S
C750 C746 1.524 . S
C750 H762 0.956 . S
C750 H763 0.961 . S
C750 H764 0.961 . S
C751 C748 1.539 . S
C751 H765 0.958 . S
C751 H766 0.961 . S
C751 H767 0.960 . S
H752 C736 0.931 . S
H753 C741 0.929 . S
H754 C742 0.960 . S
H755 C742 0.962 . S
H756 C742 0.960 . S
H757 C743 0.961 . S
H758 C743 0.961 . S
H759 C743 0.961 . S
H760 C744 0.931 . S
H761 C749 0.930 . S
H762 C750 0.956 . S
H763 C750 0.961 . S
H764 C750 0.961 . S
H765 C751 0.958 . S
H766 C751 0.961 . S
H767 C751 0.960 . S
C768 C769 1.391 . S
C768 C770 1.394 . S
C768 H784 0.931 . S
C769 C768 1.391 . S
C769 C773 1.376 . S
C770 C768 1.394 . S
C770 C771 1.369 . S
C770 C774 1.531 . S
C771 C770 1.369 . S
C771 C772 1.410 . S
C771 C779 1.503 . S
C772 C771 1.410 . S
C772 C773 1.392 . S
C772 C775 1.511 . S
C773 C769 1.376 . S
C773 C772 1.392 . S
C773 H785 0.929 . S
C774 C770 1.531 . S
C774 H786 0.960 . S
C774 H787 0.962 . S
C774 H788 0.960 . S
C775 C772 1.511 . S
C775 H789 0.961 . S
C775 H790 0.961 . S
C775 H791 0.961 . S
C776 C777 1.370 . S
C776 C778 1.363 . S
C776 H792 0.931 . S
C777 C776 1.370 . S
C777 C781 1.408 . S
C778 C776 1.363 . S
C778 C779 1.370 . S
C778 C782 1.524 . S
C779 C771 1.503 . S
C779 C778 1.370 . S
C779 C780 1.403 . S
C780 C779 1.403 . S
C780 C781 1.404 . S
C780 C783 1.539 . S
C781 C777 1.408 . S
C781 C780 1.404 . S
C781 H793 0.930 . S
C782 C778 1.524 . S
C782 H794 0.956 . S
C782 H795 0.961 . S
C782 H796 0.961 . S
C783 C780 1.539 . S
C783 H797 0.958 . S
C783 H798 0.961 . S
C783 H799 0.960 . S
H784 C768 0.931 . S
H785 C773 0.929 . S
H786 C774 0.960 . S
H787 C774 0.962 . S
H788 C774 0.960 . S
H789 C775 0.961 . S
H790 C775 0.961 . S
H791 C775 0.961 . S
H792 C776 0.931 . S
H793 C781 0.930 . S
H794 C782 0.956 . S
H795 C782 0.961 . S
H796 C782 0.961 . S
H797 C783 0.958 . S
H798 C783 0.961 . S
H799 C783 0.960 . S
C800 C801 1.391 . S
C800 C802 1.394 . S
C800 H816 0.931 . S
C801 C800 1.391 . S
C801 C805 1.376 . S
C802 C800 1.394 . S
C802 C803 1.369 . S
C802 C806 1.531 . S
C803 C802 1.369 . S
C803 C804 1.410 . S
C803 C811 1.503 . S
C804 C803 1.410 . S
C804 C805 1.392 . S
C804 C807 1.511 . S
C805 C801 1.376 . S
C805 C804 1.392 . S
C805 H817 0.929 . S
C806 C802 1.531 . S
C806 H818 0.960 . S
C806 H819 0.962 . S
C806 H820 0.960 . S
C807 C804 1.511 . S
C807 H821 0.961 . S
C807 H822 0.961 . S
C807 H823 0.961 . S
C808 C809 1.370 . S
C808 C810 1.363 . S
C808 H824 0.931 . S
C809 C808 1.370 . S
C809 C813 1.408 . S
C810 C808 1.363 . S
C810 C811 1.370 . S
C810 C814 1.524 . S
C811 C803 1.503 . S
C811 C810 1.370 . S
C811 C812 1.403 . S
C812 C811 1.403 . S
C812 C813 1.404 . S
C812 C815 1.539 . S
C813 C809 1.408 . S
C813 C812 1.404 . S
C813 H825 0.930 . S
C814 C810 1.524 . S
C814 H826 0.956 . S
C814 H827 0.961 . S
C814 H828 0.961 . S
C815 C812 1.539 . S
C815 H829 0.958 . S
C815 H830 0.961 . S
C815 H831 0.960 . S
H816 C800 0.931 . S
H817 C805 0.929 . S
H818 C806 0.960 . S
H819 C806 0.962 . S
H820 C806 0.960 . S
H821 C807 0.961 . S
H822 C807 0.961 . S
H823 C807 0.961 . S
H824 C808 0.931 . S
H825 C813 0.930 . S
H826 C814 0.956 . S
H827 C814 0.961 . S
H828 C814 0.961 . S
H829 C815 0.958 . S
H830 C815 0.961 . S
H831 C815 0.960 . S
C832 C833 1.391 . S
C832 C834 1.394 . S
C832 H848 0.931 . S
C833 C832 1.391 . S
C833 C837 1.376 1_565 S
C834 C832 1.394 . S
C834 C835 1.388 . S
C834 C838 1.531 . S
C835 C834 1.388 . S
C835 C836 1.393 1_565 S
C835 C843 1.501 1_565 S
C836 C835 1.393 1_545 S
C836 C837 1.392 . S
C836 C839 1.511 . S
C837 C833 1.376 1_545 S
C837 C836 1.392 . S
C837 H849 0.929 . S
C838 C834 1.531 . S
C838 H850 0.960 . S
C838 H851 0.962 . S
C838 H852 0.960 . S
C839 C836 1.511 . S
C839 H853 0.961 . S
C839 H854 0.961 . S
C839 H855 0.961 . S
C840 C841 1.379 . S
C840 C842 1.361 1_545 S
C840 H856 0.925 1_545 S
C841 C840 1.379 . S
C841 C845 1.408 . S
C842 C840 1.361 1_565 S
C842 C843 1.370 1_565 S
C842 C846 1.524 . S
C843 C835 1.501 1_545 S
C843 C842 1.370 1_545 S
C843 C844 1.403 . S
C844 C843 1.403 . S
C844 C845 1.404 . S
C844 C847 1.539 . S
C845 C841 1.408 . S
C845 C844 1.404 . S
C845 H857 0.930 . S
C846 C842 1.524 . S
C846 H858 0.956 . S
C846 H859 0.921 1_565 S
C846 H860 0.961 . S
C847 C844 1.539 . S
C847 H861 0.958 . S
C847 H862 0.961 . S
C847 H863 0.960 . S
H848 C832 0.931 . S
H849 C837 0.929 . S
H850 C838 0.960 . S
H851 C838 0.962 . S
H852 C838 0.960 . S
H853 C839 0.961 . S
H854 C839 0.961 . S
H855 C839 0.961 . S
H856 C840 0.925 1_565 S
H857 C845 0.930 . S
H858 C846 0.956 . S
H859 C846 0.921 1_545 S
H860 C846 0.961 . S
H861 C847 0.958 . S
H862 C847 0.961 . S
H863 C847 0.960 . S
C864 C865 1.391 . S
C864 C866 1.394 . S
C864 H880 0.931 . S
C865 C864 1.391 . S
C865 C869 1.376 1_565 S
C866 C864 1.394 . S
C866 C867 1.369 . S
C866 C870 1.531 . S
C867 C866 1.369 . S
C867 C868 1.410 1_565 S
C867 C875 1.503 1_665 S
C868 C867 1.410 1_545 S
C868 C869 1.392 . S
C868 C871 1.511 . S
C869 C865 1.376 1_545 S
C869 C868 1.392 . S
C869 H881 0.929 . S
C870 C866 1.531 . S
C870 H882 0.960 1_655 S
C870 H883 0.962 . S
C870 H884 0.960 . S
C871 C868 1.511 . S
C871 H885 0.961 . S
C871 H886 0.961 . S
C871 H887 0.961 . S
C872 C873 1.370 . S
C872 C874 1.363 . S
C872 H888 0.931 . S
C873 C872 1.370 . S
C873 C877 1.408 . S
C874 C872 1.363 . S
C874 C875 1.370 . S
C874 C878 1.527 . S
C875 C867 1.503 1_445 S
C875 C874 1.370 . S
C875 C876 1.403 . S
C876 C875 1.403 . S
C876 C877 1.404 . S
C876 C879 1.539 1_554 S
C877 C873 1.408 . S
C877 C876 1.404 . S
C877 H889 0.930 1_554 S
C878 C874 1.527 . S
C878 H890 0.925 1_545 S
C878 H891 0.984 1_455 S
C878 H892 0.967 . S
C879 C876 1.539 1_556 S
C879 H893 0.958 1_545 S
C879 H894 0.961 . S
C879 H895 0.909 1_455 S
H880 C864 0.931 . S
H881 C869 0.929 . S
H882 C870 0.960 1_455 S
H883 C870 0.962 . S
H884 C870 0.960 . S
H885 C871 0.961 . S
H886 C871 0.961 . S
H887 C871 0.961 . S
H888 C872 0.931 . S
H889 C877 0.930 1_556 S
H890 C878 0.925 1_565 S
H891 C878 0.984 1_655 S
H892 C878 0.967 . S
H893 C879 0.958 1_565 S
H894 C879 0.961 . S
H895 C879 0.909 1_655 S
C896 C897 1.391 1_545 S
C896 C898 1.394 . S
C896 H912 0.931 . S
C897 C896 1.391 1_565 S
C897 C901 1.376 . S
C898 C896 1.394 . S
C898 C899 1.369 1_545 S
C898 C902 1.531 . S
C899 C898 1.369 1_565 S
C899 C900 1.410 . S
C899 C907 1.497 1_565 S
C900 C899 1.410 . S
C900 C901 1.392 . S
C900 C903 1.511 . S
C901 C897 1.376 . S
C901 C900 1.392 . S
C901 H913 0.929 . S
C902 C898 1.531 . S
C902 H914 0.960 . S
C902 H915 0.962 . S
C902 H916 0.960 . S
C903 C900 1.511 . S
C903 H917 0.961 . S
C903 H918 0.961 . S
C903 H919 0.961 . S
C904 C905 1.370 . S
C904 C906 1.363 . S
C904 H920 0.931 . S
C905 C904 1.370 . S
C905 C909 1.408 . S
C906 C904 1.363 . S
C906 C907 1.384 . S
C906 C910 1.524 . S
C907 C899 1.497 1_545 S
C907 C906 1.384 . S
C907 C908 1.398 1_545 S
C908 C907 1.398 1_565 S
C908 C909 1.399 1_565 S
C908 C911 1.551 1_554 S
C909 C905 1.408 . S
C909 C908 1.399 1_545 S
C909 H921 0.934 1_554 S
C910 C906 1.524 . S
C910 H922 0.956 . S
C910 H923 0.961 1_545 S
C910 H924 0.961 . S
C911 C908 1.551 1_556 S
C911 H925 0.958 1_565 S
C911 H926 0.961 . S
C911 H927 0.960 . S
H912 C896 0.931 . S
H913 C901 0.929 . S
H914 C902 0.960 . S
H915 C902 0.962 . S
H916 C902 0.960 . S
H917 C903 0.961 . S
H918 C903 0.961 . S
H919 C903 0.961 . S
H920 C904 0.931 . S
H921 C909 0.934 1_556 S
H922 C910 0.956 . S
H923 C910 0.961 1_565 S
H924 C910 0.961 . S
H925 C911 0.958 1_545 S
H926 C911 0.961 . S
H927 C911 0.960 . S
C928 C929 1.391 . S
C928 C930 1.394 . S
C928 H944 0.931 . S
C929 C928 1.391 . S
C929 C933 1.376 1_565 S
C930 C928 1.394 . S
C930 C931 1.370 1_565 S
C930 C934 1.531 . S
C931 C930 1.370 1_545 S
C931 C932 1.408 . S
C931 C939 1.503 1_455 S
C932 C931 1.408 . S
C932 C933 1.392 . S
C932 C935 1.511 . S
C933 C929 1.376 1_545 S
C933 C932 1.392 . S
C933 H945 0.929 . S
C934 C930 1.531 . S
C934 H946 0.960 1_455 S
C934 H947 0.962 . S
C934 H948 0.960 . S
C935 C932 1.511 . S
C935 H949 0.961 . S
C935 H950 0.961 . S
C935 H951 0.961 . S
C936 C937 1.370 1_565 S
C936 C938 1.363 . S
C936 H952 0.931 . S
C937 C936 1.370 1_545 S
C937 C941 1.408 . S
C938 C936 1.363 . S
C938 C939 1.370 1_565 S
C938 C942 1.524 . S
C939 C931 1.503 1_655 S
C939 C938 1.370 1_545 S
C939 C940 1.403 . S
C940 C939 1.403 . S
C940 C941 1.404 . S
C940 C943 1.539 . S
C941 C937 1.408 . S
C941 C940 1.404 . S
C941 H953 0.930 . S
C942 C938 1.524 . S
C942 H954 0.956 . S
C942 H955 0.923 1_655 S
C942 H956 0.961 . S
C943 C940 1.539 . S
C943 H957 0.958 . S
C943 H958 0.961 . S
C943 H959 0.960 1_655 S
H944 C928 0.931 . S
H945 C933 0.929 . S
H946 C934 0.960 1_655 S
H947 C934 0.962 . S
H948 C934 0.960 . S
H949 C935 0.961 . S
H950 C935 0.961 . S
H951 C935 0.961 . S
H952 C936 0.931 . S
H953 C941 0.930 . S
H954 C942 0.956 . S
H955 C942 0.923 1_455 S
H956 C942 0.961 . S
H957 C943 0.958 . S
H958 C943 0.961 . S
H959 C943 0.960 1_455 S
C960 C961 1.391 . S
C960 C962 1.394 . S
C960 H976 0.931 . S
C961 C960 1.391 . S
C961 C965 1.376 . S
C962 C960 1.394 . S
C962 C963 1.369 . S
C962 C966 1.531 . S
C963 C962 1.369 . S
C963 C964 1.410 . S
C963 C971 1.503 . S
C964 C963 1.410 . S
C964 C965 1.392 . S
C964 C967 1.511 . S
C965 C961 1.376 . S
C965 C964 1.392 . S
C965 H977 0.929 . S
C966 C962 1.531 . S
C966 H978 0.960 . S
C966 H979 0.962 . S
C966 H980 0.960 . S
C967 C964 1.511 . S
C967 H981 0.961 . S
C967 H982 0.961 . S
C967 H983 0.961 . S
C968 C969 1.370 . S
C968 C970 1.363 . S
C968 H984 0.931 . S
C969 C968 1.370 . S
C969 C973 1.408 . S
C970 C968 1.363 . S
C970 C971 1.370 . S
C970 C974 1.524 . S
C971 C963 1.503 . S
C971 C970 1.370 . S
C971 C972 1.403 . S
C972 C971 1.403 . S
C972 C973 1.404 . S
C972 C975 1.539 . S
C973 C969 1.408 . S
C973 C972 1.404 . S
C973 H985 0.930 . S
C974 C970 1.524 . S
C974 H986 0.956 . S
C974 H987 0.961 . S
C974 H988 0.961 . S
C975 C972 1.539 . S
C975 H989 0.958 . S
C975 H990 0.961 . S
C975 H991 0.960 . S
H976 C960 0.931 . S
H977 C965 0.929 . S
H978 C966 0.960 . S
H979 C966 0.962 . S
H980 C966 0.960 . S
H981 C967 0.961 . S
H982 C967 0.961 . S
H983 C967 0.961 . S
H984 C968 0.931 . S
H985 C973 0.930 . S
H986 C974 0.956 . S
H987 C974 0.961 . S
H988 C974 0.961 . S
H989 C975 0.958 . S
H990 C975 0.961 . S
H991 C975 0.960 . S
C992 C993 1.391 . S
C992 C994 1.394 1_556 S
C992 H1008 0.931 . S
C993 C992 1.391 . S
C993 C997 1.376 . S
C994 C992 1.394 1_554 S
C994 C995 1.369 . S
C994 C998 1.531 . S
C995 C994 1.369 . S
C995 C996 1.410 . S
C995 C1003 1.503 . S
C996 C995 1.410 . S
C996 C997 1.392 1_554 S
C996 C999 1.511 . S
C997 C993 1.376 . S
C997 C996 1.392 1_556 S
C997 H1009 0.929 . S
C998 C994 1.531 . S
C998 H1010 0.960 . S
C998 H1011 0.962 . S
C998 H1012 0.960 . S
C999 C996 1.511 . S
C999 H1013 0.961 . S
C999 H1014 0.961 . S
C999 H1015 0.961 . S
C1000 C1001 1.370 . S
C1000 C1002 1.363 . S
C1000 H1016 0.931 . S
C1001 C1000 1.370 . S
C1001 C1005 1.408 . S
C1002 C1000 1.363 . S
C1002 C1003 1.370 . S
C1002 C1006 1.524 . S
C1003 C995 1.503 . S
C1003 C1002 1.370 . S
C1003 C1004 1.403 . S
C1004 C1003 1.403 . S
C1004 C1005 1.404 . S
C1004 C1007 1.539 . S
C1005 C1001 1.408 . S
C1005 C1004 1.404 . S
C1005 H1017 0.930 . S
C1006 C1002 1.524 . S
C1006 H1018 0.956 . S
C1006 H1019 0.961 . S
C1006 H1020 0.961 . S
C1007 C1004 1.539 . S
C1007 H1021 0.958 . S
C1007 H1022 0.961 . S
C1007 H1023 0.960 . S
H1008 C992 0.931 . S
H1009 C997 0.929 . S
H1010 C998 0.960 . S
H1011 C998 0.962 . S
H1012 C998 0.960 . S
H1013 C999 0.961 . S
H1014 C999 0.961 . S
H1015 C999 0.961 . S
H1016 C1000 0.931 . S
H1017 C1005 0.930 . S
H1018 C1006 0.956 . S
H1019 C1006 0.961 . S
H1020 C1006 0.961 . S
H1021 C1007 0.958 . S
H1022 C1007 0.961 . S
H1023 C1007 0.960 . S
C1024 C1025 1.391 . S
C1024 C1026 1.394 . S
C1024 H1040 0.931 . S
C1025 C1024 1.391 . S
C1025 C1029 1.376 . S
C1026 C1024 1.394 . S
C1026 C1027 1.369 . S
C1026 C1030 1.531 . S
C1027 C1026 1.369 . S
C1027 C1028 1.410 . S
C1027 C1035 1.503 . S
C1028 C1027 1.410 . S
C1028 C1029 1.392 . S
C1028 C1031 1.511 . S
C1029 C1025 1.376 . S
C1029 C1028 1.392 . S
C1029 H1041 0.929 . S
C1030 C1026 1.531 . S
C1030 H1042 0.960 . S
C1030 H1043 0.962 . S
C1030 H1044 0.960 . S
C1031 C1028 1.511 . S
C1031 H1045 0.961 . S
C1031 H1046 0.961 . S
C1031 H1047 0.961 . S
C1032 C1033 1.370 . S
C1032 C1034 1.363 . S
C1032 H1048 0.931 . S
C1033 C1032 1.370 . S
C1033 C1037 1.408 . S
C1034 C1032 1.363 . S
C1034 C1035 1.370 . S
C1034 C1038 1.524 . S
C1035 C1027 1.503 . S
C1035 C1034 1.370 . S
C1035 C1036 1.403 . S
C1036 C1035 1.403 . S
C1036 C1037 1.404 . S
C1036 C1039 1.539 . S
C1037 C1033 1.408 . S
C1037 C1036 1.404 . S
C1037 H1049 0.930 . S
C1038 C1034 1.524 . S
C1038 H1050 0.956 . S
C1038 H1051 0.961 . S
C1038 H1052 0.961 . S
C1039 C1036 1.539 . S
C1039 H1053 0.958 . S
C1039 H1054 0.961 . S
C1039 H1055 0.960 . S
H1040 C1024 0.931 . S
H1041 C1029 0.929 . S
H1042 C1030 0.960 . S
H1043 C1030 0.962 . S
H1044 C1030 0.960 . S
H1045 C1031 0.961 . S
H1046 C1031 0.961 . S
H1047 C1031 0.961 . S
H1048 C1032 0.931 . S
H1049 C1037 0.930 . S
H1050 C1038 0.956 . S
H1051 C1038 0.961 . S
H1052 C1038 0.961 . S
H1053 C1039 0.958 . S
H1054 C1039 0.961 . S
H1055 C1039 0.960 . S
C1056 C1057 1.391 . S
C1056 C1058 1.394 . S
C1056 H1072 0.931 . S
C1057 C1056 1.391 . S
C1057 C1061 1.376 . S
C1058 C1056 1.394 . S
C1058 C1059 1.369 . S
C1058 C1062 1.531 . S
C1059 C1058 1.369 . S
C1059 C1060 1.410 . S
C1059 C1067 1.503 . S
C1060 C1059 1.410 . S
C1060 C1061 1.392 . S
C1060 C1063 1.511 . S
C1061 C1057 1.376 . S
C1061 C1060 1.392 . S
C1061 H1073 0.929 . S
C1062 C1058 1.531 . S
C1062 H1074 0.960 . S
C1062 H1075 0.962 . S
C1062 H1076 0.960 . S
C1063 C1060 1.511 . S
C1063 H1077 0.961 . S
C1063 H1078 0.961 . S
C1063 H1079 0.961 . S
C1064 C1065 1.370 . S
C1064 C1066 1.363 . S
C1064 H1080 0.931 . S
C1065 C1064 1.370 . S
C1065 C1069 1.408 . S
C1066 C1064 1.363 . S
C1066 C1067 1.370 . S
C1066 C1070 1.524 . S
C1067 C1059 1.503 . S
C1067 C1066 1.370 . S
C1067 C1068 1.403 . S
C1068 C1067 1.403 . S
C1068 C1069 1.404 . S
C1068 C1071 1.539 . S
C1069 C1065 1.408 . S
C1069 C1068 1.404 . S
C1069 H1081 0.930 . S
C1070 C1066 1.524 . S
C1070 H1082 0.956 . S
C1070 H1083 0.961 . S
C1070 H1084 0.961 . S
C1071 C1068 1.539 . S
C1071 H1085 0.958 . S
C1071 H1086 0.961 . S
C1071 H1087 0.960 . S
H1072 C1056 0.931 . S
H1073 C1061 0.929 . S
H1074 C1062 0.960 . S
H1075 C1062 0.962 . S
H1076 C1062 0.960 . S
H1077 C1063 0.961 . S
H1078 C1063 0.961 . S
H1079 C1063 0.961 . S
H1080 C1064 0.931 . S
H1081 C1069 0.930 . S
H1082 C1070 0.956 . S
H1083 C1070 0.961 . S
H1084 C1070 0.961 . S
H1085 C1071 0.958 . S
H1086 C1071 0.961 . S
H1087 C1071 0.960 . S
C1088 C1089 1.391 . S
C1088 C1090 1.394 . S
C1088 H1104 0.931 . S
C1089 C1088 1.391 . S
C1089 C1093 1.376 . S
C1090 C1088 1.394 . S
C1090 C1091 1.369 . S
C1090 C1094 1.531 . S
C1091 C1090 1.369 . S
C1091 C1092 1.410 . S
C1091 C1099 1.503 . S
C1092 C1091 1.410 . S
C1092 C1093 1.392 . S
C1092 C1095 1.511 . S
C1093 C1089 1.376 . S
C1093 C1092 1.392 . S
C1093 H1105 0.929 . S
C1094 C1090 1.531 . S
C1094 H1106 0.960 . S
C1094 H1107 0.962 . S
C1094 H1108 0.960 . S
C1095 C1092 1.511 . S
C1095 H1109 0.961 . S
C1095 H1110 0.961 . S
C1095 H1111 0.961 . S
C1096 C1097 1.370 . S
C1096 C1098 1.363 . S
C1096 H1112 0.931 . S
C1097 C1096 1.370 . S
C1097 C1101 1.408 . S
C1098 C1096 1.363 . S
C1098 C1099 1.370 . S
C1098 C1102 1.524 . S
C1099 C1091 1.503 . S
C1099 C1098 1.370 . S
C1099 C1100 1.403 . S
C1100 C1099 1.403 . S
C1100 C1101 1.404 . S
C1100 C1103 1.539 . S
C1101 C1097 1.408 . S
C1101 C1100 1.404 . S
C1101 H1113 0.930 . S
C1102 C1098 1.524 . S
C1102 H1114 0.956 . S
C1102 H1115 0.961 . S
C1102 H1116 0.961 . S
C1103 C1100 1.539 . S
C1103 H1117 0.958 . S
C1103 H1118 0.961 . S
C1103 H1119 0.960 . S
H1104 C1088 0.931 . S
H1105 C1093 0.929 . S
H1106 C1094 0.960 . S
H1107 C1094 0.962 . S
H1108 C1094 0.960 . S
H1109 C1095 0.961 . S
H1110 C1095 0.961 . S
H1111 C1095 0.961 . S
H1112 C1096 0.931 . S
H1113 C1101 0.930 . S
H1114 C1102 0.956 . S
H1115 C1102 0.961 . S
H1116 C1102 0.961 . S
H1117 C1103 0.958 . S
H1118 C1103 0.961 . S
H1119 C1103 0.960 . S
C1120 C1121 1.391 . S
C1120 C1122 1.394 1_556 S
C1120 H1136 0.931 . S
C1121 C1120 1.391 . S
C1121 C1125 1.376 . S
C1122 C1120 1.394 1_554 S
C1122 C1123 1.369 . S
C1122 C1126 1.531 . S
C1123 C1122 1.369 . S
C1123 C1124 1.410 . S
C1123 C1131 1.503 . S
C1124 C1123 1.410 . S
C1124 C1125 1.392 1_554 S
C1124 C1127 1.511 . S
C1125 C1121 1.376 . S
C1125 C1124 1.392 1_556 S
C1125 H1137 0.929 . S
C1126 C1122 1.531 . S
C1126 H1138 0.960 . S
C1126 H1139 0.962 . S
C1126 H1140 0.960 . S
C1127 C1124 1.511 . S
C1127 H1141 0.961 . S
C1127 H1142 0.961 . S
C1127 H1143 0.961 . S
C1128 C1129 1.370 . S
C1128 C1130 1.363 . S
C1128 H1144 0.931 . S
C1129 C1128 1.370 . S
C1129 C1133 1.408 . S
C1130 C1128 1.363 . S
C1130 C1131 1.370 . S
C1130 C1134 1.524 . S
C1131 C1123 1.503 . S
C1131 C1130 1.370 . S
C1131 C1132 1.403 . S
C1132 C1131 1.403 . S
C1132 C1133 1.404 . S
C1132 C1135 1.539 . S
C1133 C1129 1.408 . S
C1133 C1132 1.404 . S
C1133 H1145 0.930 . S
C1134 C1130 1.524 . S
C1134 H1146 0.956 . S
C1134 H1147 0.961 . S
C1134 H1148 0.961 . S
C1135 C1132 1.539 . S
C1135 H1149 0.958 . S
C1135 H1150 0.961 . S
C1135 H1151 0.960 . S
H1136 C1120 0.931 . S
H1137 C1125 0.929 . S
H1138 C1126 0.960 . S
H1139 C1126 0.962 . S
H1140 C1126 0.960 . S
H1141 C1127 0.961 . S
H1142 C1127 0.961 . S
H1143 C1127 0.961 . S
H1144 C1128 0.931 . S
H1145 C1133 0.930 . S
H1146 C1134 0.956 . S
H1147 C1134 0.961 . S
H1148 C1134 0.961 . S
H1149 C1135 0.958 . S
H1150 C1135 0.961 . S
H1151 C1135 0.960 . S
C1152 C1153 1.391 . S
C1152 C1154 1.394 . S
C1152 H1168 0.931 . S
C1153 C1152 1.391 . S
C1153 C1157 1.376 . S
C1154 C1152 1.394 . S
C1154 C1155 1.369 . S
C1154 C1158 1.531 . S
C1155 C1154 1.369 . S
C1155 C1156 1.410 . S
C1155 C1163 1.503 . S
C1156 C1155 1.410 . S
C1156 C1157 1.392 . S
C1156 C1159 1.511 . S
C1157 C1153 1.376 . S
C1157 C1156 1.392 . S
C1157 H1169 0.929 . S
C1158 C1154 1.531 . S
C1158 H1170 0.960 . S
C1158 H1171 0.962 . S
C1158 H1172 0.960 . S
C1159 C1156 1.511 . S
C1159 H1173 0.961 . S
C1159 H1174 0.961 . S
C1159 H1175 0.961 . S
C1160 C1161 1.370 . S
C1160 C1162 1.363 . S
C1160 H1176 0.931 . S
C1161 C1160 1.370 . S
C1161 C1165 1.408 . S
C1162 C1160 1.363 . S
C1162 C1163 1.370 . S
C1162 C1166 1.524 . S
C1163 C1155 1.503 . S
C1163 C1162 1.370 . S
C1163 C1164 1.403 . S
C1164 C1163 1.403 . S
C1164 C1165 1.404 . S
C1164 C1167 1.539 . S
C1165 C1161 1.408 . S
C1165 C1164 1.404 . S
C1165 H1177 0.930 . S
C1166 C1162 1.524 . S
C1166 H1178 0.956 . S
C1166 H1179 0.961 . S
C1166 H1180 0.961 . S
C1167 C1164 1.539 . S
C1167 H1181 0.958 . S
C1167 H1182 0.961 . S
C1167 H1183 0.960 . S
H1168 C1152 0.931 . S
H1169 C1157 0.929 . S
H1170 C1158 0.960 . S
H1171 C1158 0.962 . S
H1172 C1158 0.960 . S
H1173 C1159 0.961 . S
H1174 C1159 0.961 . S
H1175 C1159 0.961 . S
H1176 C1160 0.931 . S
H1177 C1165 0.930 . S
H1178 C1166 0.956 . S
H1179 C1166 0.961 . S
H1180 C1166 0.961 . S
H1181 C1167 0.958 . S
H1182 C1167 0.961 . S
H1183 C1167 0.960 . S
C1184 C1185 1.391 . S
C1184 C1186 1.394 . S
C1184 H1200 0.931 . S
C1185 C1184 1.391 . S
C1185 C1189 1.376 . S
C1186 C1184 1.394 . S
C1186 C1187 1.369 . S
C1186 C1190 1.531 . S
C1187 C1186 1.369 . S
C1187 C1188 1.410 . S
C1187 C1195 1.503 . S
C1188 C1187 1.410 . S
C1188 C1189 1.392 . S
C1188 C1191 1.511 . S
C1189 C1185 1.376 . S
C1189 C1188 1.392 . S
C1189 H1201 0.929 . S
C1190 C1186 1.531 . S
C1190 H1202 0.960 . S
C1190 H1203 0.962 . S
C1190 H1204 0.960 . S
C1191 C1188 1.511 . S
C1191 H1205 0.961 . S
C1191 H1206 0.961 . S
C1191 H1207 0.961 . S
C1192 C1193 1.370 . S
C1192 C1194 1.363 . S
C1192 H1208 0.931 . S
C1193 C1192 1.370 . S
C1193 C1197 1.408 . S
C1194 C1192 1.363 . S
C1194 C1195 1.370 . S
C1194 C1198 1.524 . S
C1195 C1187 1.503 . S
C1195 C1194 1.370 . S
C1195 C1196 1.403 . S
C1196 C1195 1.403 . S
C1196 C1197 1.404 . S
C1196 C1199 1.539 . S
C1197 C1193 1.408 . S
C1197 C1196 1.404 . S
C1197 H1209 0.930 . S
C1198 C1194 1.524 . S
C1198 H1210 0.956 . S
C1198 H1211 0.961 . S
C1198 H1212 0.961 . S
C1199 C1196 1.539 . S
C1199 H1213 0.958 . S
C1199 H1214 0.961 . S
C1199 H1215 0.960 . S
H1200 C1184 0.931 . S
H1201 C1189 0.929 . S
H1202 C1190 0.960 . S
H1203 C1190 0.962 . S
H1204 C1190 0.960 . S
H1205 C1191 0.961 . S
H1206 C1191 0.961 . S
H1207 C1191 0.961 . S
H1208 C1192 0.931 . S
H1209 C1197 0.930 . S
H1210 C1198 0.956 . S
H1211 C1198 0.961 . S
H1212 C1198 0.961 . S
H1213 C1199 0.958 . S
H1214 C1199 0.961 . S
H1215 C1199 0.960 . S
C1216 C1217 1.391 . S
C1216 C1218 1.394 . S
C1216 H1232 0.931 . S
C1217 C1216 1.391 . S
C1217 C1221 1.354 1_545 S
C1218 C1216 1.394 . S
C1218 C1219 1.369 . S
C1218 C1222 1.531 . S
C1219 C1218 1.369 . S
C1219 C1220 1.410 1_545 S
C1219 C1227 1.512 . S
C1220 C1219 1.410 1_565 S
C1220 C1221 1.398 . S
C1220 C1223 1.511 . S
C1221 C1217 1.354 1_565 S
C1221 C1220 1.398 . S
C1221 H1233 0.947 . S
C1222 C1218 1.531 . S
C1222 H1234 0.960 . S
C1222 H1235 0.962 . S
C1222 H1236 0.960 . S
C1223 C1220 1.511 . S
C1223 H1237 0.961 . S
C1223 H1238 0.961 . S
C1223 H1239 0.961 . S
C1224 C1225 1.370 . S
C1224 C1226 1.363 . S
C1224 H1240 0.931 . S
C1225 C1224 1.370 . S
C1225 C1229 1.408 1_565 S
C1226 C1224 1.363 . S
C1226 C1227 1.342 1_565 S
C1226 C1230 1.524 . S
C1227 C1219 1.512 . S
C1227 C1226 1.342 1_545 S
C1227 C1228 1.423 . S
C1228 C1227 1.423 . S
C1228 C1229 1.404 . S
C1228 C1231 1.539 . S
C1229 C1225 1.408 1_545 S
C1229 C1228 1.404 . S
C1229 H1241 0.930 . S
C1230 C1226 1.524 . S
C1230 H1242 0.956 . S
C1230 H1243 0.961 . S
C1230 H1244 0.961 . S
C1231 C1228 1.539 . S
C1231 H1245 0.958 . S
C1231 H1246 0.961 . S
C1231 H1247 0.960 . S
H1232 C1216 0.931 . S
H1233 C1221 0.947 . S
H1234 C1222 0.960 . S
H1235 C1222 0.962 . S
H1236 C1222 0.960 . S
H1237 C1223 0.961 . S
H1238 C1223 0.961 . S
H1239 C1223 0.961 . S
H1240 C1224 0.931 . S
H1241 C1229 0.930 . S
H1242 C1230 0.956 . S
H1243 C1230 0.961 . S
H1244 C1230 0.961 . S
H1245 C1231 0.958 . S
H1246 C1231 0.961 . S
H1247 C1231 0.960 . S
C1248 C1249 1.391 . S
C1248 C1250 1.394 . S
C1248 H1264 0.931 . S
C1249 C1248 1.391 . S
C1249 C1253 1.376 . S
C1250 C1248 1.394 . S
C1250 C1251 1.369 . S
C1250 C1254 1.531 . S
C1251 C1250 1.369 . S
C1251 C1252 1.410 . S
C1251 C1259 1.503 . S
C1252 C1251 1.410 . S
C1252 C1253 1.392 . S
C1252 C1255 1.511 . S
C1253 C1249 1.376 . S
C1253 C1252 1.392 . S
C1253 H1265 0.929 . S
C1254 C1250 1.531 . S
C1254 H1266 0.960 . S
C1254 H1267 0.962 . S
C1254 H1268 0.960 . S
C1255 C1252 1.511 . S
C1255 H1269 0.961 . S
C1255 H1270 0.961 . S
C1255 H1271 0.961 . S
C1256 C1257 1.370 . S
C1256 C1258 1.363 . S
C1256 H1272 0.931 . S
C1257 C1256 1.370 . S
C1257 C1261 1.408 . S
C1258 C1256 1.363 . S
C1258 C1259 1.370 . S
C1258 C1262 1.524 . S
C1259 C1251 1.503 . S
C1259 C1258 1.370 . S
C1259 C1260 1.403 . S
C1260 C1259 1.403 . S
C1260 C1261 1.404 . S
C1260 C1263 1.539 . S
C1261 C1257 1.408 . S
C1261 C1260 1.404 . S
C1261 H1273 0.930 . S
C1262 C1258 1.524 . S
C1262 H1274 0.956 . S
C1262 H1275 0.961 . S
C1262 H1276 0.961 . S
C1263 C1260 1.539 . S
C1263 H1277 0.958 . S
C1263 H1278 0.961 . S
C1263 H1279 0.960 . S
H1264 C1248 0.931 . S
H1265 C1253 0.929 . S
H1266 C1254 0.960 . S
H1267 C1254 0.962 . S
H1268 C1254 0.960 . S
H1269 C1255 0.961 . S
H1270 C1255 0.961 . S
H1271 C1255 0.961 . S
H1272 C1256 0.931 . S
H1273 C1261 0.930 . S
H1274 C1262 0.956 . S
H1275 C1262 0.961 . S
H1276 C1262 0.961 . S
H1277 C1263 0.958 . S
H1278 C1263 0.961 . S
H1279 C1263 0.960 . S
C1280 C1281 1.391 1_565 S
C1280 C1282 1.394 . S
C1280 H1296 0.931 . S
C1281 C1280 1.391 1_545 S
C1281 C1285 1.376 . S
C1282 C1280 1.394 . S
C1282 C1283 1.369 . S
C1282 C1286 1.531 . S
C1283 C1282 1.369 . S
C1283 C1284 1.410 1_565 S
C1283 C1291 1.503 . S
C1284 C1283 1.410 1_545 S
C1284 C1285 1.392 . S
C1284 C1287 1.511 . S
C1285 C1281 1.376 . S
C1285 C1284 1.392 . S
C1285 H1297 0.929 . S
C1286 C1282 1.531 . S
C1286 H1298 0.960 . S
C1286 H1299 0.962 . S
C1286 H1300 0.960 . S
C1287 C1284 1.511 . S
C1287 H1301 0.961 . S
C1287 H1302 0.961 . S
C1287 H1303 0.961 . S
C1288 C1289 1.370 1_545 S
C1288 C1290 1.363 . S
C1288 H1304 0.931 . S
C1289 C1288 1.370 1_565 S
C1289 C1293 1.408 . S
C1290 C1288 1.363 . S
C1290 C1291 1.370 1_545 S
C1290 C1294 1.524 . S
C1291 C1283 1.503 . S
C1291 C1290 1.370 1_565 S
C1291 C1292 1.403 . S
C1292 C1291 1.403 . S
C1292 C1293 1.404 . S
C1292 C1295 1.539 . S
C1293 C1289 1.408 . S
C1293 C1292 1.404 . S
C1293 H1305 0.930 . S
C1294 C1290 1.524 . S
C1294 H1306 0.956 . S
C1294 H1307 0.961 . S
C1294 H1308 0.961 . S
C1295 C1292 1.539 . S
C1295 H1309 0.958 . S
C1295 H1310 0.961 . S
C1295 H1311 0.960 . S
H1296 C1280 0.931 . S
H1297 C1285 0.929 . S
H1298 C1286 0.960 . S
H1299 C1286 0.962 . S
H1300 C1286 0.960 . S
H1301 C1287 0.961 . S
H1302 C1287 0.961 . S
H1303 C1287 0.961 . S
H1304 C1288 0.931 . S
H1305 C1293 0.930 . S
H1306 C1294 0.956 . S
H1307 C1294 0.961 . S
H1308 C1294 0.961 . S
H1309 C1295 0.958 . S
H1310 C1295 0.961 . S
H1311 C1295 0.960 . S
C1312 C1313 1.391 . S
C1312 C1314 1.394 1_556 S
C1312 H1328 0.931 . S
C1313 C1312 1.391 . S
C1313 C1317 1.376 . S
C1314 C1312 1.394 1_554 S
C1314 C1315 1.369 . S
C1314 C1318 1.531 . S
C1315 C1314 1.369 . S
C1315 C1316 1.410 . S
C1315 C1323 1.503 . S
C1316 C1315 1.410 . S
C1316 C1317 1.392 1_554 S
C1316 C1319 1.511 . S
C1317 C1313 1.376 . S
C1317 C1316 1.392 1_556 S
C1317 H1329 0.929 . S
C1318 C1314 1.531 . S
C1318 H1330 0.960 . S
C1318 H1331 0.962 . S
C1318 H1332 0.960 . S
C1319 C1316 1.511 . S
C1319 H1333 0.961 . S
C1319 H1334 0.961 . S
C1319 H1335 0.961 . S
C1320 C1321 1.370 . S
C1320 C1322 1.363 . S
C1320 H1336 0.931 . S
C1321 C1320 1.370 . S
C1321 C1325 1.408 . S
C1322 C1320 1.363 . S
C1322 C1323 1.370 . S
C1322 C1326 1.524 . S
C1323 C1315 1.503 . S
C1323 C1322 1.370 . S
C1323 C1324 1.403 . S
C1324 C1323 1.403 . S
C1324 C1325 1.404 . S
C1324 C1327 1.539 . S
C1325 C1321 1.408 . S
C1325 C1324 1.404 . S
C1325 H1337 0.930 . S
C1326 C1322 1.524 . S
C1326 H1338 0.956 . S
C1326 H1339 0.961 . S
C1326 H1340 0.961 . S
C1327 C1324 1.539 . S
C1327 H1341 0.958 . S
C1327 H1342 0.961 . S
C1327 H1343 0.960 . S
H1328 C1312 0.931 . S
H1329 C1317 0.929 . S
H1330 C1318 0.960 . S
H1331 C1318 0.962 . S
H1332 C1318 0.960 . S
H1333 C1319 0.961 . S
H1334 C1319 0.961 . S
H1335 C1319 0.961 . S
H1336 C1320 0.931 . S
H1337 C1325 0.930 . S
H1338 C1326 0.956 . S
H1339 C1326 0.961 . S
H1340 C1326 0.961 . S
H1341 C1327 0.958 . S
H1342 C1327 0.961 . S
H1343 C1327 0.960 . S
C1344 C1345 1.391 1_545 S
C1344 C1346 1.394 . S
C1344 H1360 0.931 . S
C1345 C1344 1.391 1_565 S
C1345 C1349 1.376 . S
C1346 C1344 1.394 . S
C1346 C1347 1.369 1_545 S
C1346 C1350 1.531 . S
C1347 C1346 1.369 1_565 S
C1347 C1348 1.410 . S
C1347 C1355 1.503 1_565 S
C1348 C1347 1.410 . S
C1348 C1349 1.392 . S
C1348 C1351 1.511 . S
C1349 C1345 1.376 . S
C1349 C1348 1.392 . S
C1349 H1361 0.929 . S
C1350 C1346 1.531 . S
C1350 H1362 0.960 . S
C1350 H1363 0.962 . S
C1350 H1364 0.960 . S
C1351 C1348 1.511 . S
C1351 H1365 0.961 . S
C1351 H1366 0.961 . S
C1351 H1367 0.961 . S
C1352 C1353 1.370 . S
C1352 C1354 1.363 . S
C1352 H1368 0.931 . S
C1353 C1352 1.370 . S
C1353 C1357 1.408 . S
C1354 C1352 1.363 . S
C1354 C1355 1.370 . S
C1354 C1358 1.524 1_545 S
C1355 C1347 1.503 1_545 S
C1355 C1354 1.370 . S
C1355 C1356 1.403 . S
C1356 C1355 1.403 . S
C1356 C1357 1.404 . S
C1356 C1359 1.539 . S
C1357 C1353 1.408 . S
C1357 C1356 1.404 . S
C1357 H1369 0.930 . S
C1358 C1354 1.524 1_565 S
C1358 H1370 0.956 1_565 S
C1358 H1371 0.961 . S
C1358 H1372 0.961 . S
C1359 C1356 1.539 . S
C1359 H1373 0.958 . S
C1359 H1374 0.961 . S
C1359 H1375 0.960 1_545 S
H1360 C1344 0.931 . S
H1361 C1349 0.929 . S
H1362 C1350 0.960 . S
H1363 C1350 0.962 . S
H1364 C1350 0.960 . S
H1365 C1351 0.961 . S
H1366 C1351 0.961 . S
H1367 C1351 0.961 . S
H1368 C1352 0.931 . S
H1369 C1357 0.930 . S
H1370 C1358 0.956 1_545 S
H1371 C1358 0.961 . S
H1372 C1358 0.961 . S
H1373 C1359 0.958 . S
H1374 C1359 0.961 . S
H1375 C1359 0.960 1_565 S
C1376 C1377 1.391 . S
C1376 C1378 1.394 . S
C1376 H1392 0.931 . S
C1377 C1376 1.391 . S
C1377 C1381 1.376 . S
C1378 C1376 1.394 . S
C1378 C1379 1.369 . S
C1378 C1382 1.531 . S
C1379 C1378 1.369 . S
C1379 C1380 1.410 . S
C1379 C1387 1.503 . S
C1380 C1379 1.410 . S
C1380 C1381 1.392 . S
C1380 C1383 1.511 . S
C1381 C1377 1.376 . S
C1381 C1380 1.392 . S
C1381 H1393 0.929 . S
C1382 C1378 1.531 . S
C1382 H1394 0.960 . S
C1382 H1395 0.962 . S
C1382 H1396 0.960 . S
C1383 C1380 1.511 . S
C1383 H1397 0.961 . S
C1383 H1398 0.961 . S
C1383 H1399 0.961 . S
C1384 C1385 1.370 . S
C1384 C1386 1.363 . S
C1384 H1400 0.931 . S
C1385 C1384 1.370 . S
C1385 C1389 1.408 . S
C1386 C1384 1.363 . S
C1386 C1387 1.370 . S
C1386 C1390 1.524 . S
C1387 C1379 1.503 . S
C1387 C1386 1.370 . S
C1387 C1388 1.403 . S
C1388 C1387 1.403 . S
C1388 C1389 1.404 . S
C1388 C1391 1.539 . S
C1389 C1385 1.408 . S
C1389 C1388 1.404 . S
C1389 H1401 0.930 . S
C1390 C1386 1.524 . S
C1390 H1402 0.956 . S
C1390 H1403 0.961 . S
C1390 H1404 0.961 . S
C1391 C1388 1.539 . S
C1391 H1405 0.958 . S
C1391 H1406 0.961 . S
C1391 H1407 0.960 . S
H1392 C1376 0.931 . S
H1393 C1381 0.929 . S
H1394 C1382 0.960 . S
H1395 C1382 0.962 . S
H1396 C1382 0.960 . S
H1397 C1383 0.961 . S
H1398 C1383 0.961 . S
H1399 C1383 0.961 . S
H1400 C1384 0.931 . S
H1401 C1389 0.930 . S
H1402 C1390 0.956 . S
H1403 C1390 0.961 . S
H1404 C1390 0.961 . S
H1405 C1391 0.958 . S
H1406 C1391 0.961 . S
H1407 C1391 0.960 . S
C1408 C1409 1.391 . S
C1408 C1410 1.394 . S
C1408 H1424 0.931 . S
C1409 C1408 1.391 . S
C1409 C1413 1.376 . S
C1410 C1408 1.394 . S
C1410 C1411 1.369 . S
C1410 C1414 1.531 1_545 S
C1411 C1410 1.369 . S
C1411 C1412 1.410 . S
C1411 C1419 1.503 . S
C1412 C1411 1.410 . S
C1412 C1413 1.392 . S
C1412 C1415 1.511 . S
C1413 C1409 1.376 . S
C1413 C1412 1.392 . S
C1413 H1425 0.929 . S
C1414 C1410 1.531 1_565 S
C1414 H1426 0.960 1_565 S
C1414 H1427 0.962 . S
C1414 H1428 0.960 1_565 S
C1415 C1412 1.511 . S
C1415 H1429 0.961 . S
C1415 H1430 0.961 . S
C1415 H1431 0.961 . S
C1416 C1417 1.370 . S
C1416 C1418 1.363 . S
C1416 H1432 0.931 . S
C1417 C1416 1.370 . S
C1417 C1421 1.408 1_565 S
C1418 C1416 1.363 . S
C1418 C1419 1.370 1_565 S
C1418 C1422 1.524 . S
C1419 C1411 1.503 . S
C1419 C1418 1.370 1_545 S
C1419 C1420 1.403 . S
C1420 C1419 1.403 . S
C1420 C1421 1.404 . S
C1420 C1423 1.539 . S
C1421 C1417 1.408 1_545 S
C1421 C1420 1.404 . S
C1421 H1433 0.930 . S
C1422 C1418 1.524 . S
C1422 H1434 0.956 . S
C1422 H1435 0.961 . S
C1422 H1436 0.961 . S
C1423 C1420 1.539 . S
C1423 H1437 0.958 . S
C1423 H1438 0.961 . S
C1423 H1439 0.960 . S
H1424 C1408 0.931 . S
H1425 C1413 0.929 . S
H1426 C1414 0.960 1_545 S
H1427 C1414 0.962 . S
H1428 C1414 0.960 1_545 S
H1429 C1415 0.961 . S
H1430 C1415 0.961 . S
H1431 C1415 0.961 . S
H1432 C1416 0.931 . S
H1433 C1421 0.930 . S
H1434 C1422 0.956 . S
H1435 C1422 0.961 . S
H1436 C1422 0.961 . S
H1437 C1423 0.958 . S
H1438 C1423 0.961 . S
H1439 C1423 0.960 . S
C1440 C1441 1.391 . S
C1440 C1442 1.394 . S
C1440 H1456 0.931 . S
C1441 C1440 1.391 . S
C1441 C1445 1.376 . S
C1442 C1440 1.394 . S
C1442 C1443 1.369 . S
C1442 C1446 1.531 . S
C1443 C1442 1.369 . S
C1443 C1444 1.410 . S
C1443 C1451 1.503 . S
C1444 C1443 1.410 . S
C1444 C1445 1.392 . S
C1444 C1447 1.511 . S
C1445 C1441 1.376 . S
C1445 C1444 1.392 . S
C1445 H1457 0.929 . S
C1446 C1442 1.531 . S
C1446 H1458 0.960 . S
C1446 H1459 0.962 . S
C1446 H1460 0.960 . S
C1447 C1444 1.511 . S
C1447 H1461 0.961 . S
C1447 H1462 0.961 . S
C1447 H1463 0.961 . S
C1448 C1449 1.370 . S
C1448 C1450 1.363 1_556 S
C1448 H1464 0.931 . S
C1449 C1448 1.370 . S
C1449 C1453 1.408 . S
C1450 C1448 1.363 1_554 S
C1450 C1451 1.370 . S
C1450 C1454 1.524 . S
C1451 C1443 1.503 . S
C1451 C1450 1.370 . S
C1451 C1452 1.403 . S
C1452 C1451 1.403 . S
C1452 C1453 1.404 1_554 S
C1452 C1455 1.539 . S
C1453 C1449 1.408 . S
C1453 C1452 1.404 1_556 S
C1453 H1465 0.930 . S
C1454 C1450 1.524 . S
C1454 H1466 0.956 . S
C1454 H1467 0.961 . S
C1454 H1468 0.961 . S
C1455 C1452 1.539 . S
C1455 H1469 0.958 . S
C1455 H1470 0.961 . S
C1455 H1471 0.960 . S
H1456 C1440 0.931 . S
H1457 C1445 0.929 . S
H1458 C1446 0.960 . S
H1459 C1446 0.962 . S
H1460 C1446 0.960 . S
H1461 C1447 0.961 . S
H1462 C1447 0.961 . S
H1463 C1447 0.961 . S
H1464 C1448 0.931 . S
H1465 C1453 0.930 . S
H1466 C1454 0.956 . S
H1467 C1454 0.961 . S
H1468 C1454 0.961 . S
H1469 C1455 0.958 . S
H1470 C1455 0.961 . S
H1471 C1455 0.960 . S
C1472 C1473 1.391 . S
C1472 C1474 1.394 . S
C1472 H1488 0.931 . S
C1473 C1472 1.391 . S
C1473 C1477 1.376 . S
C1474 C1472 1.394 . S
C1474 C1475 1.369 . S
C1474 C1478 1.531 . S
C1475 C1474 1.369 . S
C1475 C1476 1.410 . S
C1475 C1483 1.503 . S
C1476 C1475 1.410 . S
C1476 C1477 1.392 . S
C1476 C1479 1.511 . S
C1477 C1473 1.376 . S
C1477 C1476 1.392 . S
C1477 H1489 0.929 . S
C1478 C1474 1.531 . S
C1478 H1490 0.960 . S
C1478 H1491 0.962 . S
C1478 H1492 0.960 . S
C1479 C1476 1.511 . S
C1479 H1493 0.961 . S
C1479 H1494 0.961 . S
C1479 H1495 0.961 . S
C1480 C1481 1.370 . S
C1480 C1482 1.363 . S
C1480 H1496 0.931 . S
C1481 C1480 1.370 . S
C1481 C1485 1.408 . S
C1482 C1480 1.363 . S
C1482 C1483 1.370 . S
C1482 C1486 1.524 . S
C1483 C1475 1.503 . S
C1483 C1482 1.370 . S
C1483 C1484 1.403 . S
C1484 C1483 1.403 . S
C1484 C1485 1.404 . S
C1484 C1487 1.539 . S
C1485 C1481 1.408 . S
C1485 C1484 1.404 . S
C1485 H1497 0.930 . S
C1486 C1482 1.524 . S
C1486 H1498 0.956 . S
C1486 H1499 0.961 . S
C1486 H1500 0.961 . S
C1487 C1484 1.539 . S
C1487 H1501 0.958 . S
C1487 H1502 0.961 . S
C1487 H1503 0.960 . S
H1488 C1472 0.931 . S
H1489 C1477 0.929 . S
H1490 C1478 0.960 . S
H1491 C1478 0.962 . S
H1492 C1478 0.960 . S
H1493 C1479 0.961 . S
H1494 C1479 0.961 . S
H1495 C1479 0.961 . S
H1496 C1480 0.931 . S
H1497 C1485 0.930 . S
H1498 C1486 0.956 . S
H1499 C1486 0.961 . S
H1500 C1486 0.961 . S
H1501 C1487 0.958 . S
H1502 C1487 0.961 . S
H1503 C1487 0.960 . S
C1504 C1505 1.391 . S
C1504 C1506 1.394 . S
C1504 H1520 0.931 . S
C1505 C1504 1.391 . S
C1505 C1509 1.376 . S
C1506 C1504 1.394 . S
C1506 C1507 1.369 . S
C1506 C1510 1.531 . S
C1507 C1506 1.369 . S
C1507 C1508 1.410 . S
C1507 C1515 1.503 . S
C1508 C1507 1.410 . S
C1508 C1509 1.392 . S
C1508 C1511 1.511 . S
C1509 C1505 1.376 . S
C1509 C1508 1.392 . S
C1509 H1521 0.929 . S
C1510 C1506 1.531 . S
C1510 H1522 0.960 . S
C1510 H1523 0.962 . S
C1510 H1524 0.960 . S
C1511 C1508 1.511 . S
C1511 H1525 0.961 . S
C1511 H1526 0.961 . S
C1511 H1527 0.961 . S
C1512 C1513 1.370 . S
C1512 C1514 1.363 . S
C1512 H1528 0.931 . S
C1513 C1512 1.370 . S
C1513 C1517 1.408 . S
C1514 C1512 1.363 . S
C1514 C1515 1.370 . S
C1514 C1518 1.524 . S
C1515 C1507 1.503 . S
C1515 C1514 1.370 . S
C1515 C1516 1.403 . S
C1516 C1515 1.403 . S
C1516 C1517 1.404 . S
C1516 C1519 1.539 . S
C1517 C1513 1.408 . S
C1517 C1516 1.404 . S
C1517 H1529 0.930 . S
C1518 C1514 1.524 . S
C1518 H1530 0.956 . S
C1518 H1531 0.961 . S
C1518 H1532 0.961 . S
C1519 C1516 1.539 . S
C1519 H1533 0.958 . S
C1519 H1534 0.961 . S
C1519 H1535 0.960 . S
H1520 C1504 0.931 . S
H1521 C1509 0.929 . S
H1522 C1510 0.960 . S
H1523 C1510 0.962 . S
H1524 C1510 0.960 . S
H1525 C1511 0.961 . S
H1526 C1511 0.961 . S
H1527 C1511 0.961 . S
H1528 C1512 0.931 . S
H1529 C1517 0.930 . S
H1530 C1518 0.956 . S
H1531 C1518 0.961 . S
H1532 C1518 0.961 . S
H1533 C1519 0.958 . S
H1534 C1519 0.961 . S
H1535 C1519 0.960 . S
C1536 C1537 1.391 . S
C1536 C1538 1.394 . S
C1536 H1552 0.931 . S
C1537 C1536 1.391 . S
C1537 C1541 1.376 . S
C1538 C1536 1.394 . S
C1538 C1539 1.369 . S
C1538 C1542 1.531 . S
C1539 C1538 1.369 . S
C1539 C1540 1.410 . S
C1539 C1547 1.503 . S
C1540 C1539 1.410 . S
C1540 C1541 1.392 . S
C1540 C1543 1.511 . S
C1541 C1537 1.376 . S
C1541 C1540 1.392 . S
C1541 H1553 0.929 . S
C1542 C1538 1.531 . S
C1542 H1554 0.960 . S
C1542 H1555 0.962 . S
C1542 H1556 0.960 . S
C1543 C1540 1.511 . S
C1543 H1557 0.961 . S
C1543 H1558 0.961 . S
C1543 H1559 0.961 . S
C1544 C1545 1.370 . S
C1544 C1546 1.363 . S
C1544 H1560 0.931 . S
C1545 C1544 1.370 . S
C1545 C1549 1.408 . S
C1546 C1544 1.363 . S
C1546 C1547 1.370 . S
C1546 C1550 1.524 . S
C1547 C1539 1.503 . S
C1547 C1546 1.370 . S
C1547 C1548 1.403 . S
C1548 C1547 1.403 . S
C1548 C1549 1.404 . S
C1548 C1551 1.539 . S
C1549 C1545 1.408 . S
C1549 C1548 1.404 . S
C1549 H1561 0.930 . S
C1550 C1546 1.524 . S
C1550 H1562 0.956 . S
C1550 H1563 0.961 . S
C1550 H1564 0.961 . S
C1551 C1548 1.539 . S
C1551 H1565 0.958 . S
C1551 H1566 0.961 . S
C1551 H1567 0.960 . S
H1552 C1536 0.931 . S
H1553 C1541 0.929 . S
H1554 C1542 0.960 . S
H1555 C1542 0.962 . S
H1556 C1542 0.960 . S
H1557 C1543 0.961 . S
H1558 C1543 0.961 . S
H1559 C1543 0.961 . S
H1560 C1544 0.931 . S
H1561 C1549 0.930 . S
H1562 C1550 0.956 . S
H1563 C1550 0.961 . S
H1564 C1550 0.961 . S
H1565 C1551 0.958 . S
H1566 C1551 0.961 . S
H1567 C1551 0.960 . S
C1568 C1569 1.391 . S
C1568 C1570 1.394 . S
C1568 H1584 0.931 . S
C1569 C1568 1.391 . S
C1569 C1573 1.376 . S
C1570 C1568 1.394 . S
C1570 C1571 1.369 . S
C1570 C1574 1.531 . S
C1571 C1570 1.369 . S
C1571 C1572 1.410 . S
C1571 C1579 1.503 . S
C1572 C1571 1.410 . S
C1572 C1573 1.392 . S
C1572 C1575 1.511 . S
C1573 C1569 1.376 . S
C1573 C1572 1.392 . S
C1573 H1585 0.929 . S
C1574 C1570 1.531 . S
C1574 H1586 0.960 . S
C1574 H1587 0.962 . S
C1574 H1588 0.960 . S
C1575 C1572 1.511 . S
C1575 H1589 0.961 . S
C1575 H1590 0.961 . S
C1575 H1591 0.961 . S
C1576 C1577 1.370 . S
C1576 C1578 1.363 1_556 S
C1576 H1592 0.931 . S
C1577 C1576 1.370 . S
C1577 C1581 1.408 . S
C1578 C1576 1.363 1_554 S
C1578 C1579 1.370 . S
C1578 C1582 1.524 . S
C1579 C1571 1.503 . S
C1579 C1578 1.370 . S
C1579 C1580 1.403 . S
C1580 C1579 1.403 . S
C1580 C1581 1.404 1_554 S
C1580 C1583 1.539 . S
C1581 C1577 1.408 . S
C1581 C1580 1.404 1_556 S
C1581 H1593 0.930 . S
C1582 C1578 1.524 . S
C1582 H1594 0.956 . S
C1582 H1595 0.961 . S
C1582 H1596 0.961 . S
C1583 C1580 1.539 . S
C1583 H1597 0.958 . S
C1583 H1598 0.961 . S
C1583 H1599 0.960 . S
H1584 C1568 0.931 . S
H1585 C1573 0.929 . S
H1586 C1574 0.960 . S
H1587 C1574 0.962 . S
H1588 C1574 0.960 . S
H1589 C1575 0.961 . S
H1590 C1575 0.961 . S
H1591 C1575 0.961 . S
H1592 C1576 0.931 . S
H1593 C1581 0.930 . S
H1594 C1582 0.956 . S
H1595 C1582 0.961 . S
H1596 C1582 0.961 . S
H1597 C1583 0.958 . S
H1598 C1583 0.961 . S
H1599 C1583 0.960 . S
C1600 C1601 1.391 . S
C1600 C1602 1.394 . S
C1600 H1616 0.931 . S
C1601 C1600 1.391 . S
C1601 C1605 1.376 . S
C1602 C1600 1.394 . S
C1602 C1603 1.369 . S
C1602 C1606 1.531 . S
C1603 C1602 1.369 . S
C1603 C1604 1.410 . S
C1603 C1611 1.503 . S
C1604 C1603 1.410 . S
C1604 C1605 1.392 . S
C1604 C1607 1.511 . S
C1605 C1601 1.376 . S
C1605 C1604 1.392 . S
C1605 H1617 0.929 . S
C1606 C1602 1.531 . S
C1606 H1618 0.960 . S
C1606 H1619 0.962 . S
C1606 H1620 0.960 . S
C1607 C1604 1.511 . S
C1607 H1621 0.961 . S
C1607 H1622 0.961 . S
C1607 H1623 0.961 . S
C1608 C1609 1.370 . S
C1608 C1610 1.363 . S
C1608 H1624 0.931 . S
C1609 C1608 1.370 . S
C1609 C1613 1.408 . S
C1610 C1608 1.363 . S
C1610 C1611 1.370 . S
C1610 C1614 1.524 . S
C1611 C1603 1.503 . S
C1611 C1610 1.370 . S
C1611 C1612 1.403 . S
C1612 C1611 1.403 . S
C1612 C1613 1.404 . S
C1612 C1615 1.539 . S
C1613 C1609 1.408 . S
C1613 C1612 1.404 . S
C1613 H1625 0.930 . S
C1614 C1610 1.524 . S
C1614 H1626 0.956 . S
C1614 H1627 0.961 . S
C1614 H1628 0.961 . S
C1615 C1612 1.539 . S
C1615 H1629 0.958 . S
C1615 H1630 0.961 . S
C1615 H1631 0.960 . S
H1616 C1600 0.931 . S
H1617 C1605 0.929 . S
H1618 C1606 0.960 . S
H1619 C1606 0.962 . S
H1620 C1606 0.960 . S
H1621 C1607 0.961 . S
H1622 C1607 0.961 . S
H1623 C1607 0.961 . S
H1624 C1608 0.931 . S
H1625 C1613 0.930 . S
H1626 C1614 0.956 . S
H1627 C1614 0.961 . S
H1628 C1614 0.961 . S
H1629 C1615 0.958 . S
H1630 C1615 0.961 . S
H1631 C1615 0.960 . S
C1632 C1633 1.391 . S
C1632 C1634 1.394 . S
C1632 H1648 0.931 . S
C1633 C1632 1.391 . S
C1633 C1637 1.376 . S
C1634 C1632 1.394 . S
C1634 C1635 1.369 . S
C1634 C1638 1.531 . S
C1635 C1634 1.369 . S
C1635 C1636 1.410 . S
C1635 C1643 1.503 . S
C1636 C1635 1.410 . S
C1636 C1637 1.392 . S
C1636 C1639 1.511 . S
C1637 C1633 1.376 . S
C1637 C1636 1.392 . S
C1637 H1649 0.929 . S
C1638 C1634 1.531 . S
C1638 H1650 0.960 . S
C1638 H1651 0.962 . S
C1638 H1652 0.960 . S
C1639 C1636 1.511 . S
C1639 H1653 0.961 . S
C1639 H1654 0.961 . S
C1639 H1655 0.961 . S
C1640 C1641 1.370 . S
C1640 C1642 1.363 . S
C1640 H1656 0.931 . S
C1641 C1640 1.370 . S
C1641 C1645 1.408 . S
C1642 C1640 1.363 . S
C1642 C1643 1.370 . S
C1642 C1646 1.524 . S
C1643 C1635 1.503 . S
C1643 C1642 1.370 . S
C1643 C1644 1.403 . S
C1644 C1643 1.403 . S
C1644 C1645 1.404 . S
C1644 C1647 1.539 . S
C1645 C1641 1.408 . S
C1645 C1644 1.404 . S
C1645 H1657 0.930 . S
C1646 C1642 1.524 . S
C1646 H1658 0.956 . S
C1646 H1659 0.961 . S
C1646 H1660 0.961 . S
C1647 C1644 1.539 . S
C1647 H1661 0.958 . S
C1647 H1662 0.961 . S
C1647 H1663 0.960 . S
H1648 C1632 0.931 . S
H1649 C1637 0.929 . S
H1650 C1638 0.960 . S
H1651 C1638 0.962 . S
H1652 C1638 0.960 . S
H1653 C1639 0.961 . S
H1654 C1639 0.961 . S
H1655 C1639 0.961 . S
H1656 C1640 0.931 . S
H1657 C1645 0.930 . S
H1658 C1646 0.956 . S
H1659 C1646 0.961 . S
H1660 C1646 0.961 . S
H1661 C1647 0.958 . S
H1662 C1647 0.961 . S
H1663 C1647 0.960 . S
C1664 C1665 1.391 . S
C1664 C1666 1.394 . S
C1664 H1680 0.931 . S
C1665 C1664 1.391 . S
C1665 C1669 1.376 . S
C1666 C1664 1.394 . S
C1666 C1667 1.369 . S
C1666 C1670 1.531 . S
C1667 C1666 1.369 . S
C1667 C1668 1.410 . S
C1667 C1675 1.503 . S
C1668 C1667 1.410 . S
C1668 C1669 1.392 . S
C1668 C1671 1.511 . S
C1669 C1665 1.376 . S
C1669 C1668 1.392 . S
C1669 H1681 0.929 . S
C1670 C1666 1.531 . S
C1670 H1682 0.960 . S
C1670 H1683 0.962 . S
C1670 H1684 0.960 . S
C1671 C1668 1.511 . S
C1671 H1685 0.961 . S
C1671 H1686 0.961 . S
C1671 H1687 0.961 . S
C1672 C1673 1.370 . S
C1672 C1674 1.363 . S
C1672 H1688 0.931 . S
C1673 C1672 1.370 . S
C1673 C1677 1.408 . S
C1674 C1672 1.363 . S
C1674 C1675 1.370 . S
C1674 C1678 1.524 . S
C1675 C1667 1.503 . S
C1675 C1674 1.370 . S
C1675 C1676 1.403 . S
C1676 C1675 1.403 . S
C1676 C1677 1.404 . S
C1676 C1679 1.539 . S
C1677 C1673 1.408 . S
C1677 C1676 1.404 . S
C1677 H1689 0.930 . S
C1678 C1674 1.524 . S
C1678 H1690 0.956 . S
C1678 H1691 0.961 . S
C1678 H1692 0.961 . S
C1679 C1676 1.539 . S
C1679 H1693 0.958 . S
C1679 H1694 0.961 . S
C1679 H1695 0.960 . S
H1680 C1664 0.931 . S
H1681 C1669 0.929 . S
H1682 C1670 0.960 . S
H1683 C1670 0.962 . S
H1684 C1670 0.960 . S
H1685 C1671 0.961 . S
H1686 C1671 0.961 . S
H1687 C1671 0.961 . S
H1688 C1672 0.931 . S
H1689 C1677 0.930 . S
H1690 C1678 0.956 . S
H1691 C1678 0.961 . S
H1692 C1678 0.961 . S
H1693 C1679 0.958 . S
H1694 C1679 0.961 . S
H1695 C1679 0.960 . S
C1696 C1697 1.391 . S
C1696 C1698 1.394 1_556 S
C1696 H1712 0.931 . S
C1697 C1696 1.391 . S
C1697 C1701 1.376 . S
C1698 C1696 1.394 1_554 S
C1698 C1699 1.369 . S
C1698 C1702 1.531 . S
C1699 C1698 1.369 . S
C1699 C1700 1.410 . S
C1699 C1707 1.503 . S
C1700 C1699 1.410 . S
C1700 C1701 1.392 1_554 S
C1700 C1703 1.511 . S
C1701 C1697 1.376 . S
C1701 C1700 1.392 1_556 S
C1701 H1713 0.929 . S
C1702 C1698 1.531 . S
C1702 H1714 0.960 . S
C1702 H1715 0.962 . S
C1702 H1716 0.960 . S
C1703 C1700 1.511 . S
C1703 H1717 0.961 . S
C1703 H1718 0.961 . S
C1703 H1719 0.961 . S
C1704 C1705 1.370 . S
C1704 C1706 1.363 . S
C1704 H1720 0.931 . S
C1705 C1704 1.370 . S
C1705 C1709 1.408 . S
C1706 C1704 1.363 . S
C1706 C1707 1.370 . S
C1706 C1710 1.524 . S
C1707 C1699 1.503 . S
C1707 C1706 1.370 . S
C1707 C1708 1.403 . S
C1708 C1707 1.403 . S
C1708 C1709 1.404 . S
C1708 C1711 1.539 . S
C1709 C1705 1.408 . S
C1709 C1708 1.404 . S
C1709 H1721 0.930 . S
C1710 C1706 1.524 . S
C1710 H1722 0.956 . S
C1710 H1723 0.961 . S
C1710 H1724 0.961 . S
C1711 C1708 1.539 . S
C1711 H1725 0.958 . S
C1711 H1726 0.961 . S
C1711 H1727 0.960 . S
H1712 C1696 0.931 . S
H1713 C1701 0.929 . S
H1714 C1702 0.960 . S
H1715 C1702 0.962 . S
H1716 C1702 0.960 . S
H1717 C1703 0.961 . S
H1718 C1703 0.961 . S
H1719 C1703 0.961 . S
H1720 C1704 0.931 . S
H1721 C1709 0.930 . S
H1722 C1710 0.956 . S
H1723 C1710 0.961 . S
H1724 C1710 0.961 . S
H1725 C1711 0.958 . S
H1726 C1711 0.961 . S
H1727 C1711 0.960 . S
C1728 C1729 1.391 . S
C1728 C1730 1.394 . S
C1728 H1744 0.931 . S
C1729 C1728 1.391 . S
C1729 C1733 1.376 . S
C1730 C1728 1.394 . S
C1730 C1731 1.369 . S
C1730 C1734 1.531 . S
C1731 C1730 1.369 . S
C1731 C1732 1.410 . S
C1731 C1739 1.503 . S
C1732 C1731 1.410 . S
C1732 C1733 1.392 . S
C1732 C1735 1.511 . S
C1733 C1729 1.376 . S
C1733 C1732 1.392 . S
C1733 H1745 0.929 . S
C1734 C1730 1.531 . S
C1734 H1746 0.960 . S
C1734 H1747 0.962 1_565 S
C1734 H1748 0.960 . S
C1735 C1732 1.511 . S
C1735 H1749 0.961 . S
C1735 H1750 0.961 1_565 S
C1735 H1751 0.961 . S
C1736 C1737 1.370 . S
C1736 C1738 1.363 . S
C1736 H1752 0.931 . S
C1737 C1736 1.370 . S
C1737 C1741 1.408 1_545 S
C1738 C1736 1.363 . S
C1738 C1739 1.370 1_545 S
C1738 C1742 1.524 . S
C1739 C1731 1.503 . S
C1739 C1738 1.370 1_565 S
C1739 C1740 1.403 . S
C1740 C1739 1.403 . S
C1740 C1741 1.404 . S
C1740 C1743 1.539 . S
C1741 C1737 1.408 1_565 S
C1741 C1740 1.404 . S
C1741 H1753 0.930 . S
C1742 C1738 1.524 . S
C1742 H1754 0.956 . S
C1742 H1755 0.961 . S
C1742 H1756 0.961 . S
C1743 C1740 1.539 . S
C1743 H1757 0.958 . S
C1743 H1758 0.961 . S
C1743 H1759 0.960 . S
H1744 C1728 0.931 . S
H1745 C1733 0.929 . S
H1746 C1734 0.960 . S
H1747 C1734 0.962 1_545 S
H1748 C1734 0.960 . S
H1749 C1735 0.961 . S
H1750 C1735 0.961 1_545 S
H1751 C1735 0.961 . S
H1752 C1736 0.931 . S
H1753 C1741 0.930 . S
H1754 C1742 0.956 . S
H1755 C1742 0.961 . S
H1756 C1742 0.961 . S
H1757 C1743 0.958 . S
H1758 C1743 0.961 . S
H1759 C1743 0.960 . S
C1760 C1761 1.391 . S
C1760 C1762 1.394 . S
C1760 H1776 0.931 . S
C1761 C1760 1.391 . S
C1761 C1765 1.376 . S
C1762 C1760 1.394 . S
C1762 C1763 1.369 . S
C1762 C1766 1.531 . S
C1763 C1762 1.369 . S
C1763 C1764 1.410 . S
C1763 C1771 1.503 . S
C1764 C1763 1.410 . S
C1764 C1765 1.392 . S
C1764 C1767 1.511 . S
C1765 C1761 1.376 . S
C1765 C1764 1.392 . S
C1765 H1777 0.929 . S
C1766 C1762 1.531 . S
C1766 H1778 0.960 . S
C1766 H1779 0.962 . S
C1766 H1780 0.960 . S
C1767 C1764 1.511 . S
C1767 H1781 0.961 . S
C1767 H1782 0.961 . S
C1767 H1783 0.961 . S
C1768 C1769 1.370 . S
C1768 C1770 1.363 1_556 S
C1768 H1784 0.931 . S
C1769 C1768 1.370 . S
C1769 C1773 1.408 . S
C1770 C1768 1.363 1_554 S
C1770 C1771 1.370 . S
C1770 C1774 1.524 . S
C1771 C1763 1.503 . S
C1771 C1770 1.370 . S
C1771 C1772 1.403 . S
C1772 C1771 1.403 . S
C1772 C1773 1.404 1_554 S
C1772 C1775 1.539 . S
C1773 C1769 1.408 . S
C1773 C1772 1.404 1_556 S
C1773 H1785 0.930 . S
C1774 C1770 1.524 . S
C1774 H1786 0.956 . S
C1774 H1787 0.961 . S
C1774 H1788 0.961 . S
C1775 C1772 1.539 . S
C1775 H1789 0.958 . S
C1775 H1790 0.961 . S
C1775 H1791 0.960 . S
H1776 C1760 0.931 . S
H1777 C1765 0.929 . S
H1778 C1766 0.960 . S
H1779 C1766 0.962 . S
H1780 C1766 0.960 . S
H1781 C1767 0.961 . S
H1782 C1767 0.961 . S
H1783 C1767 0.961 . S
H1784 C1768 0.931 . S
H1785 C1773 0.930 . S
H1786 C1774 0.956 . S
H1787 C1774 0.961 . S
H1788 C1774 0.961 . S
H1789 C1775 0.958 . S
H1790 C1775 0.961 . S
H1791 C1775 0.960 . S
C1792 C1793 1.391 . S
C1792 C1794 1.394 1_565 S
C1792 H1808 0.932 . S
C1793 C1792 1.391 . S
C1793 C1797 1.376 . S
C1794 C1792 1.394 1_545 S
C1794 C1795 1.369 . S
C1794 C1798 1.531 . S
C1795 C1794 1.369 . S
C1795 C1796 1.410 1_545 S
C1795 C1803 1.503 . S
C1796 C1795 1.410 1_565 S
C1796 C1797 1.392 . S
C1796 C1799 1.511 . S
C1797 C1793 1.376 . S
C1797 C1796 1.392 . S
C1797 H1809 0.929 . S
C1798 C1794 1.531 . S
C1798 H1810 0.960 . S
C1798 H1811 0.962 1_545 S
C1798 H1812 0.960 . S
C1799 C1796 1.511 . S
C1799 H1813 0.961 . S
C1799 H1814 0.961 . S
C1799 H1815 0.961 1_565 S
C1800 C1801 1.370 1_565 S
C1800 C1802 1.363 . S
C1800 H1816 0.931 . S
C1801 C1800 1.370 1_545 S
C1801 C1805 1.408 . S
C1802 C1800 1.363 . S
C1802 C1803 1.370 1_565 S
C1802 C1806 1.524 . S
C1803 C1795 1.503 . S
C1803 C1802 1.370 1_545 S
C1803 C1804 1.403 . S
C1804 C1803 1.403 . S
C1804 C1805 1.404 . S
C1804 C1807 1.539 . S
C1805 C1801 1.408 . S
C1805 C1804 1.404 . S
C1805 H1817 0.930 . S
C1806 C1802 1.524 . S
C1806 H1818 0.956 . S
C1806 H1819 0.961 . S
C1806 H1820 0.961 . S
C1807 C1804 1.539 . S
C1807 H1821 0.958 . S
C1807 H1822 0.961 . S
C1807 H1823 0.960 . S
H1808 C1792 0.932 . S
H1809 C1797 0.929 . S
H1810 C1798 0.960 . S
H1811 C1798 0.962 1_565 S
H1812 C1798 0.960 . S
H1813 C1799 0.961 . S
H1814 C1799 0.961 . S
H1815 C1799 0.961 1_545 S
H1816 C1800 0.931 . S
H1817 C1805 0.930 . S
H1818 C1806 0.956 . S
H1819 C1806 0.961 . S
H1820 C1806 0.961 . S
H1821 C1807 0.958 . S
H1822 C1807 0.961 . S
H1823 C1807 0.960 . S
C1824 C1825 1.391 . S
C1824 C1826 1.394 . S
C1824 H1840 0.931 . S
C1825 C1824 1.391 . S
C1825 C1829 1.376 . S
C1826 C1824 1.394 . S
C1826 C1827 1.369 . S
C1826 C1830 1.531 . S
C1827 C1826 1.369 . S
C1827 C1828 1.410 . S
C1827 C1835 1.503 . S
C1828 C1827 1.410 . S
C1828 C1829 1.392 . S
C1828 C1831 1.511 . S
C1829 C1825 1.376 . S
C1829 C1828 1.392 . S
C1829 H1841 0.929 . S
C1830 C1826 1.531 . S
C1830 H1842 0.960 . S
C1830 H1843 0.962 . S
C1830 H1844 0.960 . S
C1831 C1828 1.511 . S
C1831 H1845 0.961 . S
C1831 H1846 0.961 . S
C1831 H1847 0.961 . S
C1832 C1833 1.370 . S
C1832 C1834 1.363 . S
C1832 H1848 0.931 . S
C1833 C1832 1.370 . S
C1833 C1837 1.408 . S
C1834 C1832 1.363 . S
C1834 C1835 1.370 . S
C1834 C1838 1.524 . S
C1835 C1827 1.503 . S
C1835 C1834 1.370 . S
C1835 C1836 1.403 . S
C1836 C1835 1.403 . S
C1836 C1837 1.404 . S
C1836 C1839 1.539 . S
C1837 C1833 1.408 . S
C1837 C1836 1.404 . S
C1837 H1849 0.930 . S
C1838 C1834 1.524 . S
C1838 H1850 0.956 . S
C1838 H1851 0.961 . S
C1838 H1852 0.961 . S
C1839 C1836 1.539 . S
C1839 H1853 0.958 . S
C1839 H1854 0.961 . S
C1839 H1855 0.960 . S
H1840 C1824 0.931 . S
H1841 C1829 0.929 . S
H1842 C1830 0.960 . S
H1843 C1830 0.962 . S
H1844 C1830 0.960 . S
H1845 C1831 0.961 . S
H1846 C1831 0.961 . S
H1847 C1831 0.961 . S
H1848 C1832 0.931 . S
H1849 C1837 0.930 . S
H1850 C1838 0.956 . S
H1851 C1838 0.961 . S
H1852 C1838 0.961 . S
H1853 C1839 0.958 . S
H1854 C1839 0.961 . S
H1855 C1839 0.960 . S
C1856 C1857 1.391 1_545 S
C1856 C1858 1.394 . S
C1856 H1872 0.931 . S
C1857 C1856 1.391 1_565 S
C1857 C1861 1.376 . S
C1858 C1856 1.394 . S
C1858 C1859 1.369 . S
C1858 C1862 1.531 . S
C1859 C1858 1.369 . S
C1859 C1860 1.410 1_545 S
C1859 C1867 1.503 . S
C1860 C1859 1.410 1_565 S
C1860 C1861 1.392 . S
C1860 C1863 1.511 . S
C1861 C1857 1.376 . S
C1861 C1860 1.392 . S
C1861 H1873 0.929 . S
C1862 C1858 1.531 . S
C1862 H1874 0.960 . S
C1862 H1875 0.962 . S
C1862 H1876 0.960 . S
C1863 C1860 1.511 . S
C1863 H1877 0.961 . S
C1863 H1878 0.961 . S
C1863 H1879 0.961 . S
C1864 C1865 1.370 1_565 S
C1864 C1866 1.363 . S
C1864 H1880 0.931 . S
C1865 C1864 1.370 1_545 S
C1865 C1869 1.408 . S
C1866 C1864 1.363 . S
C1866 C1867 1.370 1_565 S
C1866 C1870 1.524 . S
C1867 C1859 1.503 . S
C1867 C1866 1.370 1_545 S
C1867 C1868 1.403 . S
C1868 C1867 1.403 . S
C1868 C1869 1.404 . S
C1868 C1871 1.539 . S
C1869 C1865 1.408 . S
C1869 C1868 1.404 . S
C1869 H1881 0.930 . S
C1870 C1866 1.524 . S
C1870 H1882 0.956 . S
C1870 H1883 0.961 . S
C1870 H1884 0.961 . S
C1871 C1868 1.539 . S
C1871 H1885 0.958 . S
C1871 H1886 0.961 . S
C1871 H1887 0.960 . S
H1872 C1856 0.931 . S
H1873 C1861 0.929 . S
H1874 C1862 0.960 . S
H1875 C1862 0.962 . S
H1876 C1862 0.960 . S
H1877 C1863 0.961 . S
H1878 C1863 0.961 . S
H1879 C1863 0.961 . S
H1880 C1864 0.931 . S
H1881 C1869 0.930 . S
H1882 C1870 0.956 . S
H1883 C1870 0.961 . S
H1884 C1870 0.961 . S
H1885 C1871 0.958 . S
H1886 C1871 0.961 . S
H1887 C1871 0.960 . S
C1888 C1889 1.391 . S
C1888 C1890 1.394 . S
C1888 H1904 0.931 . S
C1889 C1888 1.391 . S
C1889 C1893 1.376 . S
C1890 C1888 1.394 . S
C1890 C1891 1.369 . S
C1890 C1894 1.531 . S
C1891 C1890 1.369 . S
C1891 C1892 1.410 . S
C1891 C1899 1.503 . S
C1892 C1891 1.410 . S
C1892 C1893 1.392 . S
C1892 C1895 1.511 . S
C1893 C1889 1.376 . S
C1893 C1892 1.392 . S
C1893 H1905 0.929 . S
C1894 C1890 1.531 . S
C1894 H1906 0.960 . S
C1894 H1907 0.962 . S
C1894 H1908 0.960 . S
C1895 C1892 1.511 . S
C1895 H1909 0.961 . S
C1895 H1910 0.961 . S
C1895 H1911 0.961 . S
C1896 C1897 1.370 . S
C1896 C1898 1.363 1_556 S
C1896 H1912 0.931 . S
C1897 C1896 1.370 . S
C1897 C1901 1.408 . S
C1898 C1896 1.363 1_554 S
C1898 C1899 1.370 . S
C1898 C1902 1.524 . S
C1899 C1891 1.503 . S
C1899 C1898 1.370 . S
C1899 C1900 1.403 . S
C1900 C1899 1.403 . S
C1900 C1901 1.404 1_554 S
C1900 C1903 1.539 . S
C1901 C1897 1.408 . S
C1901 C1900 1.404 1_556 S
C1901 H1913 0.930 . S
C1902 C1898 1.524 . S
C1902 H1914 0.956 . S
C1902 H1915 0.961 . S
C1902 H1916 0.961 . S
C1903 C1900 1.539 . S
C1903 H1917 0.958 . S
C1903 H1918 0.961 . S
C1903 H1919 0.960 . S
H1904 C1888 0.931 . S
H1905 C1893 0.929 . S
H1906 C1894 0.960 . S
H1907 C1894 0.962 . S
H1908 C1894 0.960 . S
H1909 C1895 0.961 . S
H1910 C1895 0.961 . S
H1911 C1895 0.961 . S
H1912 C1896 0.931 . S
H1913 C1901 0.930 . S
H1914 C1902 0.956 . S
H1915 C1902 0.961 . S
H1916 C1902 0.961 . S
H1917 C1903 0.958 . S
H1918 C1903 0.961 . S
H1919 C1903 0.960 . S
C1920 C1921 1.391 . S
C1920 C1922 1.394 . S
C1920 H1936 0.931 . S
C1921 C1920 1.391 . S
C1921 C1925 1.376 . S
C1922 C1920 1.394 . S
C1922 C1923 1.369 . S
C1922 C1926 1.531 . S
C1923 C1922 1.369 . S
C1923 C1924 1.402 1_565 S
C1923 C1931 1.503 . S
C1924 C1923 1.402 1_545 S
C1924 C1925 1.390 1_545 S
C1924 C1927 1.522 . S
C1925 C1921 1.376 . S
C1925 C1924 1.390 1_565 S
C1925 H1937 0.929 1_565 S
C1926 C1922 1.531 . S
C1926 H1938 0.960 . S
C1926 H1939 0.962 . S
C1926 H1940 0.960 . S
C1927 C1924 1.522 . S
C1927 H1941 0.961 . S
C1927 H1942 0.961 . S
C1927 H1943 0.948 1_545 S
C1928 C1929 1.370 . S
C1928 C1930 1.363 . S
C1928 H1944 0.931 . S
C1929 C1928 1.370 . S
C1929 C1933 1.408 1_545 S
C1930 C1928 1.363 . S
C1930 C1931 1.370 1_545 S
C1930 C1934 1.524 . S
C1931 C1923 1.503 . S
C1931 C1930 1.370 1_565 S
C1931 C1932 1.403 . S
C1932 C1931 1.403 . S
C1932 C1933 1.404 . S
C1932 C1935 1.539 . S
C1933 C1929 1.408 1_565 S
C1933 C1932 1.404 . S
C1933 H1945 0.930 . S
C1934 C1930 1.524 . S
C1934 H1946 0.956 . S
C1934 H1947 0.961 . S
C1934 H1948 0.961 . S
C1935 C1932 1.539 . S
C1935 H1949 0.958 . S
C1935 H1950 0.961 . S
C1935 H1951 0.960 . S
H1936 C1920 0.931 . S
H1937 C1925 0.929 1_545 S
H1938 C1926 0.960 . S
H1939 C1926 0.962 . S
H1940 C1926 0.960 . S
H1941 C1927 0.961 . S
H1942 C1927 0.961 . S
H1943 C1927 0.948 1_565 S
H1944 C1928 0.931 . S
H1945 C1933 0.930 . S
H1946 C1934 0.956 . S
H1947 C1934 0.961 . S
H1948 C1934 0.961 . S
H1949 C1935 0.958 . S
H1950 C1935 0.961 . S
H1951 C1935 0.960 . S
C1952 C1953 1.391 . S
C1952 C1954 1.394 . S
C1952 H1968 0.931 . S
C1953 C1952 1.391 . S
C1953 C1957 1.376 . S
C1954 C1952 1.394 . S
C1954 C1955 1.369 . S
C1954 C1958 1.531 . S
C1955 C1954 1.369 . S
C1955 C1956 1.410 . S
C1955 C1963 1.503 . S
C1956 C1955 1.410 . S
C1956 C1957 1.392 . S
C1956 C1959 1.511 . S
C1957 C1953 1.376 . S
C1957 C1956 1.392 . S
C1957 H1969 0.929 . S
C1958 C1954 1.531 . S
C1958 H1970 0.960 . S
C1958 H1971 0.962 . S
C1958 H1972 0.960 . S
C1959 C1956 1.511 . S
C1959 H1973 0.961 . S
C1959 H1974 0.961 . S
C1959 H1975 0.961 . S
C1960 C1961 1.370 . S
C1960 C1962 1.363 . S
C1960 H1976 0.931 . S
C1961 C1960 1.370 . S
C1961 C1965 1.408 . S
C1962 C1960 1.363 . S
C1962 C1963 1.370 . S
C1962 C1966 1.524 . S
C1963 C1955 1.503 . S
C1963 C1962 1.370 . S
C1963 C1964 1.403 . S
C1964 C1963 1.403 . S
C1964 C1965 1.404 . S
C1964 C1967 1.539 . S
C1965 C1961 1.408 . S
C1965 C1964 1.404 . S
C1965 H1977 0.930 . S
C1966 C1962 1.524 . S
C1966 H1978 0.956 . S
C1966 H1979 0.961 . S
C1966 H1980 0.961 . S
C1967 C1964 1.539 . S
C1967 H1981 0.958 . S
C1967 H1982 0.961 . S
C1967 H1983 0.960 . S
H1968 C1952 0.931 . S
H1969 C1957 0.929 . S
H1970 C1958 0.960 . S
H1971 C1958 0.962 . S
H1972 C1958 0.960 . S
H1973 C1959 0.961 . S
H1974 C1959 0.961 . S
H1975 C1959 0.961 . S
H1976 C1960 0.931 . S
H1977 C1965 0.930 . S
H1978 C1966 0.956 . S
H1979 C1966 0.961 . S
H1980 C1966 0.961 . S
H1981 C1967 0.958 . S
H1982 C1967 0.961 . S
H1983 C1967 0.960 . S
C1984 C1985 1.391 . S
C1984 C1986 1.394 . S
C1984 H2000 0.931 . S
C1985 C1984 1.391 . S
C1985 C1989 1.376 . S
C1986 C1984 1.394 . S
C1986 C1987 1.369 . S
C1986 C1990 1.531 . S
C1987 C1986 1.369 . S
C1987 C1988 1.410 . S
C1987 C1995 1.503 . S
C1988 C1987 1.410 . S
C1988 C1989 1.392 . S
C1988 C1991 1.511 . S
C1989 C1985 1.376 . S
C1989 C1988 1.392 . S
C1989 H2001 0.929 . S
C1990 C1986 1.531 . S
C1990 H2002 0.960 . S
C1990 H2003 0.962 . S
C1990 H2004 0.960 . S
C1991 C1988 1.511 . S
C1991 H2005 0.961 . S
C1991 H2006 0.961 . S
C1991 H2007 0.961 . S
C1992 C1993 1.370 . S
C1992 C1994 1.363 . S
C1992 H2008 0.931 . S
C1993 C1992 1.370 . S
C1993 C1997 1.408 . S
C1994 C1992 1.363 . S
C1994 C1995 1.370 . S
C1994 C1998 1.524 . S
C1995 C1987 1.503 . S
C1995 C1994 1.370 . S
C1995 C1996 1.403 . S
C1996 C1995 1.403 . S
C1996 C1997 1.404 . S
C1996 C1999 1.539 . S
C1997 C1993 1.408 . S
C1997 C1996 1.404 . S
C1997 H2009 0.930 . S
C1998 C1994 1.524 . S
C1998 H2010 0.956 . S
C1998 H2011 0.961 . S
C1998 H2012 0.961 . S
C1999 C1996 1.539 . S
C1999 H2013 0.958 . S
C1999 H2014 0.961 . S
C1999 H2015 0.960 . S
H2000 C1984 0.931 . S
H2001 C1989 0.929 . S
H2002 C1990 0.960 . S
H2003 C1990 0.962 . S
H2004 C1990 0.960 . S
H2005 C1991 0.961 . S
H2006 C1991 0.961 . S
H2007 C1991 0.961 . S
H2008 C1992 0.931 . S
H2009 C1997 0.930 . S
H2010 C1998 0.956 . S
H2011 C1998 0.961 . S
H2012 C1998 0.961 . S
H2013 C1999 0.958 . S
H2014 C1999 0.961 . S
H2015 C1999 0.960 . S
C2016 C2017 1.391 . S
C2016 C2018 1.394 . S
C2016 H2032 0.931 . S
C2017 C2016 1.391 . S
C2017 C2021 1.376 . S
C2018 C2016 1.394 . S
C2018 C2019 1.369 . S
C2018 C2022 1.531 . S
C2019 C2018 1.369 . S
C2019 C2020 1.410 . S
C2019 C2027 1.503 . S
C2020 C2019 1.410 . S
C2020 C2021 1.392 . S
C2020 C2023 1.511 . S
C2021 C2017 1.376 . S
C2021 C2020 1.392 . S
C2021 H2033 0.929 . S
C2022 C2018 1.531 . S
C2022 H2034 0.960 . S
C2022 H2035 0.962 . S
C2022 H2036 0.960 . S
C2023 C2020 1.511 . S
C2023 H2037 0.961 . S
C2023 H2038 0.961 . S
C2023 H2039 0.961 . S
C2024 C2025 1.370 . S
C2024 C2026 1.363 . S
C2024 H2040 0.931 . S
C2025 C2024 1.370 . S
C2025 C2029 1.408 . S
C2026 C2024 1.363 . S
C2026 C2027 1.370 . S
C2026 C2030 1.524 . S
C2027 C2019 1.503 . S
C2027 C2026 1.370 . S
C2027 C2028 1.403 . S
C2028 C2027 1.403 . S
C2028 C2029 1.404 . S
C2028 C2031 1.539 . S
C2029 C2025 1.408 . S
C2029 C2028 1.404 . S
C2029 H2041 0.930 . S
C2030 C2026 1.524 . S
C2030 H2042 0.956 . S
C2030 H2043 0.961 . S
C2030 H2044 0.961 . S
C2031 C2028 1.539 . S
C2031 H2045 0.958 . S
C2031 H2046 0.961 . S
C2031 H2047 0.960 . S
H2032 C2016 0.931 . S
H2033 C2021 0.929 . S
H2034 C2022 0.960 . S
H2035 C2022 0.962 . S
H2036 C2022 0.960 . S
H2037 C2023 0.961 . S
H2038 C2023 0.961 . S
H2039 C2023 0.961 . S
H2040 C2024 0.931 . S
H2041 C2029 0.930 . S
H2042 C2030 0.956 . S
H2043 C2030 0.961 . S
H2044 C2030 0.961 . S
H2045 C2031 0.958 . S
H2046 C2031 0.961 . S
H2047 C2031 0.960 . S
C2048 C2049 1.391 . S
C2048 C2050 1.394 . S
C2048 H2064 0.931 . S
C2049 C2048 1.391 . S
C2049 C2053 1.376 . S
C2050 C2048 1.394 . S
C2050 C2051 1.369 . S
C2050 C2054 1.531 . S
C2051 C2050 1.369 . S
C2051 C2052 1.410 . S
C2051 C2059 1.503 . S
C2052 C2051 1.410 . S
C2052 C2053 1.392 . S
C2052 C2055 1.511 . S
C2053 C2049 1.376 . S
C2053 C2052 1.392 . S
C2053 H2065 0.929 . S
C2054 C2050 1.531 . S
C2054 H2066 0.960 . S
C2054 H2067 0.962 . S
C2054 H2068 0.960 . S
C2055 C2052 1.511 . S
C2055 H2069 0.961 . S
C2055 H2070 0.961 . S
C2055 H2071 0.961 . S
C2056 C2057 1.370 . S
C2056 C2058 1.363 . S
C2056 H2072 0.931 . S
C2057 C2056 1.370 . S
C2057 C2061 1.408 . S
C2058 C2056 1.363 . S
C2058 C2059 1.370 . S
C2058 C2062 1.524 . S
C2059 C2051 1.503 . S
C2059 C2058 1.370 . S
C2059 C2060 1.403 . S
C2060 C2059 1.403 . S
C2060 C2061 1.404 . S
C2060 C2063 1.539 . S
C2061 C2057 1.408 . S
C2061 C2060 1.404 . S
C2061 H2073 0.930 . S
C2062 C2058 1.524 . S
C2062 H2074 0.956 . S
C2062 H2075 0.961 . S
C2062 H2076 0.961 . S
C2063 C2060 1.539 . S
C2063 H2077 0.958 . S
C2063 H2078 0.961 . S
C2063 H2079 0.960 . S
H2064 C2048 0.931 . S
H2065 C2053 0.929 . S
H2066 C2054 0.960 . S
H2067 C2054 0.962 . S
H2068 C2054 0.960 . S
H2069 C2055 0.961 . S
H2070 C2055 0.961 . S
H2071 C2055 0.961 . S
H2072 C2056 0.931 . S
H2073 C2061 0.930 . S
H2074 C2062 0.956 . S
H2075 C2062 0.961 . S
H2076 C2062 0.961 . S
H2077 C2063 0.958 . S
H2078 C2063 0.961 . S
H2079 C2063 0.960 . S
C2080 C2081 1.391 . S
C2080 C2082 1.394 . S
C2080 H2096 0.931 . S
C2081 C2080 1.391 . S
C2081 C2085 1.376 . S
C2082 C2080 1.394 . S
C2082 C2083 1.369 . S
C2082 C2086 1.531 . S
C2083 C2082 1.369 . S
C2083 C2084 1.410 . S
C2083 C2091 1.503 . S
C2084 C2083 1.410 . S
C2084 C2085 1.392 . S
C2084 C2087 1.511 . S
C2085 C2081 1.376 . S
C2085 C2084 1.392 . S
C2085 H2097 0.929 . S
C2086 C2082 1.531 . S
C2086 H2098 0.960 . S
C2086 H2099 0.962 . S
C2086 H2100 0.960 . S
C2087 C2084 1.511 . S
C2087 H2101 0.961 1_556 S
C2087 H2102 0.961 1_556 S
C2087 H2103 0.961 . S
C2088 C2089 1.370 1_554 S
C2088 C2090 1.363 1_554 S
C2088 H2104 0.931 . S
C2089 C2088 1.370 1_556 S
C2089 C2093 1.416 . S
C2090 C2088 1.363 1_556 S
C2090 C2091 1.370 . S
C2090 C2094 1.524 . S
C2091 C2083 1.503 . S
C2091 C2090 1.370 . S
C2091 C2092 1.403 . S
C2092 C2091 1.403 . S
C2092 C2093 1.404 . S
C2092 C2095 1.539 . S
C2093 C2089 1.416 . S
C2093 C2092 1.404 . S
C2093 H2105 0.930 . S
C2094 C2090 1.524 . S
C2094 H2106 0.956 . S
C2094 H2107 0.961 . S
C2094 H2108 0.961 1_556 S
C2095 C2092 1.539 . S
C2095 H2109 0.958 . S
C2095 H2110 0.961 . S
C2095 H2111 0.960 . S
H2096 C2080 0.931 . S
H2097 C2085 0.929 . S
H2098 C2086 0.960 . S
H2099 C2086 0.962 . S
H2100 C2086 0.960 . S
H2101 C2087 0.961 1_554 S
H2102 C2087 0.961 1_554 S
H2103 C2087 0.961 . S
H2104 C2088 0.931 . S
H2105 C2093 0.930 . S
H2106 C2094 0.956 . S
H2107 C2094 0.961 . S
H2108 C2094 0.961 1_554 S
H2109 C2095 0.958 . S
H2110 C2095 0.961 . S
H2111 C2095 0.960 . S
C2112 C2113 1.391 . S
C2112 C2114 1.394 . S
C2112 H2128 0.931 . S
C2113 C2112 1.391 . S
C2113 C2117 1.376 . S
C2114 C2112 1.394 . S
C2114 C2115 1.369 . S
C2114 C2118 1.531 . S
C2115 C2114 1.369 . S
C2115 C2116 1.410 . S
C2115 C2123 1.503 . S
C2116 C2115 1.410 . S
C2116 C2117 1.392 . S
C2116 C2119 1.511 . S
C2117 C2113 1.376 . S
C2117 C2116 1.392 . S
C2117 H2129 0.929 . S
C2118 C2114 1.531 . S
C2118 H2130 0.960 . S
C2118 H2131 0.962 . S
C2118 H2132 0.960 . S
C2119 C2116 1.511 . S
C2119 H2133 0.961 . S
C2119 H2134 0.961 . S
C2119 H2135 0.961 . S
C2120 C2121 1.370 . S
C2120 C2122 1.363 . S
C2120 H2136 0.931 . S
C2121 C2120 1.370 . S
C2121 C2125 1.408 . S
C2122 C2120 1.363 . S
C2122 C2123 1.370 . S
C2122 C2126 1.524 . S
C2123 C2115 1.503 . S
C2123 C2122 1.370 . S
C2123 C2124 1.403 . S
C2124 C2123 1.403 . S
C2124 C2125 1.404 . S
C2124 C2127 1.539 . S
C2125 C2121 1.408 . S
C2125 C2124 1.404 . S
C2125 H2137 0.930 . S
C2126 C2122 1.524 . S
C2126 H2138 0.956 . S
C2126 H2139 0.961 . S
C2126 H2140 0.961 . S
C2127 C2124 1.539 . S
C2127 H2141 0.958 . S
C2127 H2142 0.961 . S
C2127 H2143 0.960 . S
H2128 C2112 0.931 . S
H2129 C2117 0.929 . S
H2130 C2118 0.960 . S
H2131 C2118 0.962 . S
H2132 C2118 0.960 . S
H2133 C2119 0.961 . S
H2134 C2119 0.961 . S
H2135 C2119 0.961 . S
H2136 C2120 0.931 . S
H2137 C2125 0.930 . S
H2138 C2126 0.956 . S
H2139 C2126 0.961 . S
H2140 C2126 0.961 . S
H2141 C2127 0.958 . S
H2142 C2127 0.961 . S
H2143 C2127 0.960 . S
C2144 C2145 1.391 . S
C2144 C2146 1.394 . S
C2144 H2160 0.931 . S
C2145 C2144 1.391 . S
C2145 C2149 1.376 . S
C2146 C2144 1.394 . S
C2146 C2147 1.369 . S
C2146 C2150 1.531 . S
C2147 C2146 1.369 . S
C2147 C2148 1.410 . S
C2147 C2155 1.503 . S
C2148 C2147 1.410 . S
C2148 C2149 1.392 . S
C2148 C2151 1.511 . S
C2149 C2145 1.376 . S
C2149 C2148 1.392 . S
C2149 H2161 0.929 . S
C2150 C2146 1.531 . S
C2150 H2162 0.960 . S
C2150 H2163 0.962 . S
C2150 H2164 0.960 . S
C2151 C2148 1.511 . S
C2151 H2165 0.961 . S
C2151 H2166 0.961 . S
C2151 H2167 0.961 . S
C2152 C2153 1.370 . S
C2152 C2154 1.363 . S
C2152 H2168 0.931 . S
C2153 C2152 1.370 . S
C2153 C2157 1.408 . S
C2154 C2152 1.363 . S
C2154 C2155 1.370 . S
C2154 C2158 1.524 . S
C2155 C2147 1.503 . S
C2155 C2154 1.370 . S
C2155 C2156 1.403 . S
C2156 C2155 1.403 . S
C2156 C2157 1.404 . S
C2156 C2159 1.539 . S
C2157 C2153 1.408 . S
C2157 C2156 1.404 . S
C2157 H2169 0.930 . S
C2158 C2154 1.524 . S
C2158 H2170 0.956 . S
C2158 H2171 0.961 . S
C2158 H2172 0.961 . S
C2159 C2156 1.539 . S
C2159 H2173 0.958 . S
C2159 H2174 0.961 . S
C2159 H2175 0.960 . S
H2160 C2144 0.931 . S
H2161 C2149 0.929 . S
H2162 C2150 0.960 . S
H2163 C2150 0.962 . S
H2164 C2150 0.960 . S
H2165 C2151 0.961 . S
H2166 C2151 0.961 . S
H2167 C2151 0.961 . S
H2168 C2152 0.931 . S
H2169 C2157 0.930 . S
H2170 C2158 0.956 . S
H2171 C2158 0.961 . S
H2172 C2158 0.961 . S
H2173 C2159 0.958 . S
H2174 C2159 0.961 . S
H2175 C2159 0.960 . S
C2176 C2177 1.391 . S
C2176 C2178 1.394 . S
C2176 H2192 0.931 . S
C2177 C2176 1.391 . S
C2177 C2181 1.376 . S
C2178 C2176 1.394 . S
C2178 C2179 1.369 . S
C2178 C2182 1.531 . S
C2179 C2178 1.369 . S
C2179 C2180 1.410 . S
C2179 C2187 1.503 . S
C2180 C2179 1.410 . S
C2180 C2181 1.392 . S
C2180 C2183 1.511 . S
C2181 C2177 1.376 . S
C2181 C2180 1.392 . S
C2181 H2193 0.929 . S
C2182 C2178 1.531 . S
C2182 H2194 0.960 1_556 S
C2182 H2195 0.962 . S
C2182 H2196 0.960 . S
C2183 C2180 1.511 . S
C2183 H2197 0.961 . S
C2183 H2198 0.961 . S
C2183 H2199 0.961 . S
C2184 C2185 1.370 1_556 S
C2184 C2186 1.363 . S
C2184 H2200 0.931 . S
C2185 C2184 1.370 1_554 S
C2185 C2189 1.408 . S
C2186 C2184 1.363 . S
C2186 C2187 1.370 . S
C2186 C2190 1.524 . S
C2187 C2179 1.503 . S
C2187 C2186 1.370 . S
C2187 C2188 1.403 1_556 S
C2188 C2187 1.403 1_554 S
C2188 C2189 1.404 . S
C2188 C2191 1.539 . S
C2189 C2185 1.408 . S
C2189 C2188 1.404 . S
C2189 H2201 0.930 . S
C2190 C2186 1.524 . S
C2190 H2202 0.956 . S
C2190 H2203 0.961 . S
C2190 H2204 0.961 . S
C2191 C2188 1.539 . S
C2191 H2205 0.958 . S
C2191 H2206 0.961 . S
C2191 H2207 0.955 1_554 S
H2192 C2176 0.931 . S
H2193 C2181 0.929 . S
H2194 C2182 0.960 1_554 S
H2195 C2182 0.962 . S
H2196 C2182 0.960 . S
H2197 C2183 0.961 . S
H2198 C2183 0.961 . S
H2199 C2183 0.961 . S
H2200 C2184 0.931 . S
H2201 C2189 0.930 . S
H2202 C2190 0.956 . S
H2203 C2190 0.961 . S
H2204 C2190 0.961 . S
H2205 C2191 0.958 . S
H2206 C2191 0.961 . S
H2207 C2191 0.955 1_556 S
C2208 C2209 1.391 . S
C2208 C2210 1.394 . S
C2208 H2224 0.931 . S
C2209 C2208 1.391 . S
C2209 C2213 1.376 . S
C2210 C2208 1.394 . S
C2210 C2211 1.369 . S
C2210 C2214 1.531 . S
C2211 C2210 1.369 . S
C2211 C2212 1.410 . S
C2211 C2219 1.503 . S
C2212 C2211 1.410 . S
C2212 C2213 1.392 . S
C2212 C2215 1.511 . S
C2213 C2209 1.376 . S
C2213 C2212 1.392 . S
C2213 H2225 0.929 . S
C2214 C2210 1.531 . S
C2214 H2226 0.960 . S
C2214 H2227 0.962 . S
C2214 H2228 0.960 . S
C2215 C2212 1.511 . S
C2215 H2229 0.961 . S
C2215 H2230 0.961 . S
C2215 H2231 0.961 . S
C2216 C2217 1.370 . S
C2216 C2218 1.363 . S
C2216 H2232 0.931 . S
C2217 C2216 1.370 . S
C2217 C2221 1.408 . S
C2218 C2216 1.363 . S
C2218 C2219 1.370 . S
C2218 C2222 1.524 . S
C2219 C2211 1.503 . S
C2219 C2218 1.370 . S
C2219 C2220 1.403 . S
C2220 C2219 1.403 . S
C2220 C2221 1.404 . S
C2220 C2223 1.539 . S
C2221 C2217 1.408 . S
C2221 C2220 1.404 . S
C2221 H2233 0.930 . S
C2222 C2218 1.524 . S
C2222 H2234 0.956 . S
C2222 H2235 0.961 . S
C2222 H2236 0.961 . S
C2223 C2220 1.539 . S
C2223 H2237 0.958 . S
C2223 H2238 0.961 . S
C2223 H2239 0.960 . S
H2224 C2208 0.931 . S
H2225 C2213 0.929 . S
H2226 C2214 0.960 . S
H2227 C2214 0.962 . S
H2228 C2214 0.960 . S
H2229 C2215 0.961 . S
H2230 C2215 0.961 . S
H2231 C2215 0.961 . S
H2232 C2216 0.931 . S
H2233 C2221 0.930 . S
H2234 C2222 0.956 . S
H2235 C2222 0.961 . S
H2236 C2222 0.961 . S
H2237 C2223 0.958 . S
H2238 C2223 0.961 . S
H2239 C2223 0.960 . S
C2240 C2241 1.391 . S
C2240 C2242 1.399 . S
C2240 H2256 0.931 . S
C2241 C2240 1.391 . S
C2241 C2245 1.376 1_554 S
C2242 C2240 1.399 . S
C2242 C2243 1.359 1_554 S
C2242 C2246 1.536 . S
C2243 C2242 1.359 1_556 S
C2243 C2244 1.410 . S
C2243 C2251 1.503 . S
C2244 C2243 1.410 . S
C2244 C2245 1.392 . S
C2244 C2247 1.511 . S
C2245 C2241 1.376 1_556 S
C2245 C2244 1.392 . S
C2245 H2257 0.929 . S
C2246 C2242 1.536 . S
C2246 H2258 0.960 . S
C2246 H2259 0.962 . S
C2246 H2260 0.960 . S
C2247 C2244 1.511 . S
C2247 H2261 0.961 . S
C2247 H2262 0.961 . S
C2247 H2263 0.961 . S
C2248 C2249 1.370 . S
C2248 C2250 1.363 . S
C2248 H2264 0.931 . S
C2249 C2248 1.370 . S
C2249 C2253 1.408 . S
C2250 C2248 1.363 . S
C2250 C2251 1.370 . S
C2250 C2254 1.524 . S
C2251 C2243 1.503 . S
C2251 C2250 1.370 . S
C2251 C2252 1.403 . S
C2252 C2251 1.403 . S
C2252 C2253 1.404 . S
C2252 C2255 1.539 . S
C2253 C2249 1.408 . S
C2253 C2252 1.404 . S
C2253 H2265 0.930 . S
C2254 C2250 1.524 . S
C2254 H2266 0.956 . S
C2254 H2267 0.961 . S
C2254 H2268 0.961 . S
C2255 C2252 1.539 . S
C2255 H2269 0.958 1_556 S
C2255 H2270 0.961 . S
C2255 H2271 0.960 . S
H2256 C2240 0.931 . S
H2257 C2245 0.929 . S
H2258 C2246 0.960 . S
H2259 C2246 0.962 . S
H2260 C2246 0.960 . S
H2261 C2247 0.961 . S
H2262 C2247 0.961 . S
H2263 C2247 0.961 . S
H2264 C2248 0.931 . S
H2265 C2253 0.930 . S
H2266 C2254 0.956 . S
H2267 C2254 0.961 . S
H2268 C2254 0.961 . S
H2269 C2255 0.958 1_554 S
H2270 C2255 0.961 . S
H2271 C2255 0.960 . S
C2272 C2273 1.391 . S
C2272 C2274 1.394 . S
C2272 H2288 0.931 . S
C2273 C2272 1.391 . S
C2273 C2277 1.376 . S
C2274 C2272 1.394 . S
C2274 C2275 1.369 . S
C2274 C2278 1.531 . S
C2275 C2274 1.369 . S
C2275 C2276 1.410 . S
C2275 C2283 1.503 . S
C2276 C2275 1.410 . S
C2276 C2277 1.392 . S
C2276 C2279 1.511 . S
C2277 C2273 1.376 . S
C2277 C2276 1.392 . S
C2277 H2289 0.929 . S
C2278 C2274 1.531 . S
C2278 H2290 0.960 . S
C2278 H2291 0.962 . S
C2278 H2292 0.960 . S
C2279 C2276 1.511 . S
C2279 H2293 0.961 . S
C2279 H2294 0.961 . S
C2279 H2295 0.961 . S
C2280 C2281 1.370 . S
C2280 C2282 1.363 . S
C2280 H2296 0.931 . S
C2281 C2280 1.370 . S
C2281 C2285 1.408 . S
C2282 C2280 1.363 . S
C2282 C2283 1.370 . S
C2282 C2286 1.524 . S
C2283 C2275 1.503 . S
C2283 C2282 1.370 . S
C2283 C2284 1.403 . S
C2284 C2283 1.403 . S
C2284 C2285 1.404 . S
C2284 C2287 1.539 . S
C2285 C2281 1.408 . S
C2285 C2284 1.404 . S
C2285 H2297 0.930 . S
C2286 C2282 1.524 . S
C2286 H2298 0.956 . S
C2286 H2299 0.961 . S
C2286 H2300 0.961 . S
C2287 C2284 1.539 . S
C2287 H2301 0.958 . S
C2287 H2302 0.961 . S
C2287 H2303 0.960 . S
H2288 C2272 0.931 . S
H2289 C2277 0.929 . S
H2290 C2278 0.960 . S
H2291 C2278 0.962 . S
H2292 C2278 0.960 . S
H2293 C2279 0.961 . S
H2294 C2279 0.961 . S
H2295 C2279 0.961 . S
H2296 C2280 0.931 . S
H2297 C2285 0.930 . S
H2298 C2286 0.956 . S
H2299 C2286 0.961 . S
H2300 C2286 0.961 . S
H2301 C2287 0.958 . S
H2302 C2287 0.961 . S
H2303 C2287 0.960 . S
C2304 C2305 1.391 . S
C2304 C2306 1.394 . S
C2304 H2320 0.931 . S
C2305 C2304 1.391 . S
C2305 C2309 1.376 . S
C2306 C2304 1.394 . S
C2306 C2307 1.369 . S
C2306 C2310 1.531 . S
C2307 C2306 1.369 . S
C2307 C2308 1.410 . S
C2307 C2315 1.503 . S
C2308 C2307 1.410 . S
C2308 C2309 1.392 . S
C2308 C2311 1.511 . S
C2309 C2305 1.376 . S
C2309 C2308 1.392 . S
C2309 H2321 0.929 . S
C2310 C2306 1.531 . S
C2310 H2322 0.960 . S
C2310 H2323 0.962 . S
C2310 H2324 0.960 . S
C2311 C2308 1.511 . S
C2311 H2325 0.961 . S
C2311 H2326 0.961 . S
C2311 H2327 0.961 . S
C2312 C2313 1.370 . S
C2312 C2314 1.363 . S
C2312 H2328 0.931 . S
C2313 C2312 1.370 . S
C2313 C2317 1.408 . S
C2314 C2312 1.363 . S
C2314 C2315 1.370 . S
C2314 C2318 1.524 . S
C2315 C2307 1.503 . S
C2315 C2314 1.370 . S
C2315 C2316 1.403 . S
C2316 C2315 1.403 . S
C2316 C2317 1.404 . S
C2316 C2319 1.539 . S
C2317 C2313 1.408 . S
C2317 C2316 1.404 . S
C2317 H2329 0.930 . S
C2318 C2314 1.524 . S
C2318 H2330 0.956 . S
C2318 H2331 0.961 . S
C2318 H2332 0.961 . S
C2319 C2316 1.539 . S
C2319 H2333 0.958 . S
C2319 H2334 0.961 . S
C2319 H2335 0.960 . S
H2320 C2304 0.931 . S
H2321 C2309 0.929 . S
H2322 C2310 0.960 . S
H2323 C2310 0.962 . S
H2324 C2310 0.960 . S
H2325 C2311 0.961 . S
H2326 C2311 0.961 . S
H2327 C2311 0.961 . S
H2328 C2312 0.931 . S
H2329 C2317 0.930 . S
H2330 C2318 0.956 . S
H2331 C2318 0.961 . S
H2332 C2318 0.961 . S
H2333 C2319 0.958 . S
H2334 C2319 0.961 . S
H2335 C2319 0.960 . S
C2336 C2337 1.391 . S
C2336 C2338 1.394 . S
C2336 H2352 0.931 . S
C2337 C2336 1.391 . S
C2337 C2341 1.376 . S
C2338 C2336 1.394 . S
C2338 C2339 1.369 . S
C2338 C2342 1.531 . S
C2339 C2338 1.369 . S
C2339 C2340 1.410 . S
C2339 C2347 1.503 . S
C2340 C2339 1.410 . S
C2340 C2341 1.392 . S
C2340 C2343 1.511 . S
C2341 C2337 1.376 . S
C2341 C2340 1.392 . S
C2341 H2353 0.929 . S
C2342 C2338 1.531 . S
C2342 H2354 0.960 . S
C2342 H2355 0.962 . S
C2342 H2356 0.960 . S
C2343 C2340 1.511 . S
C2343 H2357 0.961 . S
C2343 H2358 0.961 . S
C2343 H2359 0.961 . S
C2344 C2345 1.370 . S
C2344 C2346 1.363 . S
C2344 H2360 0.931 . S
C2345 C2344 1.370 . S
C2345 C2349 1.408 . S
C2346 C2344 1.363 . S
C2346 C2347 1.370 . S
C2346 C2350 1.524 . S
C2347 C2339 1.503 . S
C2347 C2346 1.370 . S
C2347 C2348 1.403 . S
C2348 C2347 1.403 . S
C2348 C2349 1.404 . S
C2348 C2351 1.539 . S
C2349 C2345 1.408 . S
C2349 C2348 1.404 . S
C2349 H2361 0.930 . S
C2350 C2346 1.524 . S
C2350 H2362 0.956 . S
C2350 H2363 0.961 . S
C2350 H2364 0.961 . S
C2351 C2348 1.539 . S
C2351 H2365 0.958 . S
C2351 H2366 0.961 . S
C2351 H2367 0.960 . S
H2352 C2336 0.931 . S
H2353 C2341 0.929 . S
H2354 C2342 0.960 . S
H2355 C2342 0.962 . S
H2356 C2342 0.960 . S
H2357 C2343 0.961 . S
H2358 C2343 0.961 . S
H2359 C2343 0.961 . S
H2360 C2344 0.931 . S
H2361 C2349 0.930 . S
H2362 C2350 0.956 . S
H2363 C2350 0.961 . S
H2364 C2350 0.961 . S
H2365 C2351 0.958 . S
H2366 C2351 0.961 . S
H2367 C2351 0.960 . S
C2368 C2369 1.391 . S
C2368 C2370 1.394 . S
C2368 H2384 0.931 . S
C2369 C2368 1.391 . S
C2369 C2373 1.376 . S
C2370 C2368 1.394 . S
C2370 C2371 1.369 . S
C2370 C2374 1.531 . S
C2371 C2370 1.369 . S
C2371 C2372 1.410 . S
C2371 C2379 1.503 . S
C2372 C2371 1.410 . S
C2372 C2373 1.392 . S
C2372 C2375 1.511 . S
C2373 C2369 1.376 . S
C2373 C2372 1.392 . S
C2373 H2385 0.929 . S
C2374 C2370 1.531 . S
C2374 H2386 0.960 . S
C2374 H2387 0.962 . S
C2374 H2388 0.960 . S
C2375 C2372 1.511 . S
C2375 H2389 0.961 . S
C2375 H2390 0.961 . S
C2375 H2391 0.961 . S
C2376 C2377 1.370 . S
C2376 C2378 1.363 . S
C2376 H2392 0.931 . S
C2377 C2376 1.370 . S
C2377 C2381 1.408 . S
C2378 C2376 1.363 . S
C2378 C2379 1.370 . S
C2378 C2382 1.524 . S
C2379 C2371 1.503 . S
C2379 C2378 1.370 . S
C2379 C2380 1.403 . S
C2380 C2379 1.403 . S
C2380 C2381 1.404 . S
C2380 C2383 1.539 . S
C2381 C2377 1.408 . S
C2381 C2380 1.404 . S
C2381 H2393 0.930 . S
C2382 C2378 1.524 . S
C2382 H2394 0.956 . S
C2382 H2395 0.961 . S
C2382 H2396 0.961 . S
C2383 C2380 1.539 . S
C2383 H2397 0.958 . S
C2383 H2398 0.961 . S
C2383 H2399 0.960 . S
H2384 C2368 0.931 . S
H2385 C2373 0.929 . S
H2386 C2374 0.960 . S
H2387 C2374 0.962 . S
H2388 C2374 0.960 . S
H2389 C2375 0.961 . S
H2390 C2375 0.961 . S
H2391 C2375 0.961 . S
H2392 C2376 0.931 . S
H2393 C2381 0.930 . S
H2394 C2382 0.956 . S
H2395 C2382 0.961 . S
H2396 C2382 0.961 . S
H2397 C2383 0.958 . S
H2398 C2383 0.961 . S
H2399 C2383 0.960 . S
C2400 C2401 1.391 . S
C2400 C2402 1.394 . S
C2400 H2416 0.931 . S
C2401 C2400 1.391 . S
C2401 C2405 1.376 . S
C2402 C2400 1.394 . S
C2402 C2403 1.369 . S
C2402 C2406 1.531 . S
C2403 C2402 1.369 . S
C2403 C2404 1.410 . S
C2403 C2411 1.503 . S
C2404 C2403 1.410 . S
C2404 C2405 1.392 . S
C2404 C2407 1.511 . S
C2405 C2401 1.376 . S
C2405 C2404 1.392 . S
C2405 H2417 0.929 . S
C2406 C2402 1.531 . S
C2406 H2418 0.960 . S
C2406 H2419 0.962 . S
C2406 H2420 0.960 . S
C2407 C2404 1.511 . S
C2407 H2421 0.961 . S
C2407 H2422 0.961 . S
C2407 H2423 0.961 . S
C2408 C2409 1.370 . S
C2408 C2410 1.363 . S
C2408 H2424 0.931 . S
C2409 C2408 1.370 . S
C2409 C2413 1.408 . S
C2410 C2408 1.363 . S
C2410 C2411 1.370 . S
C2410 C2414 1.524 . S
C2411 C2403 1.503 . S
C2411 C2410 1.370 . S
C2411 C2412 1.403 . S
C2412 C2411 1.403 . S
C2412 C2413 1.404 . S
C2412 C2415 1.539 . S
C2413 C2409 1.408 . S
C2413 C2412 1.404 . S
C2413 H2425 0.930 . S
C2414 C2410 1.524 . S
C2414 H2426 0.956 . S
C2414 H2427 0.961 . S
C2414 H2428 0.961 . S
C2415 C2412 1.539 . S
C2415 H2429 0.958 . S
C2415 H2430 0.961 . S
C2415 H2431 0.960 . S
H2416 C2400 0.931 . S
H2417 C2405 0.929 . S
H2418 C2406 0.960 . S
H2419 C2406 0.962 . S
H2420 C2406 0.960 . S
H2421 C2407 0.961 . S
H2422 C2407 0.961 . S
H2423 C2407 0.961 . S
H2424 C2408 0.931 . S
H2425 C2413 0.930 . S
H2426 C2414 0.956 . S
H2427 C2414 0.961 . S
H2428 C2414 0.961 . S
H2429 C2415 0.958 . S
H2430 C2415 0.961 . S
H2431 C2415 0.960 . S
C2432 C2433 1.391 . S
C2432 C2434 1.394 . S
C2432 H2448 0.931 . S
C2433 C2432 1.391 . S
C2433 C2437 1.376 . S
C2434 C2432 1.394 . S
C2434 C2435 1.369 . S
C2434 C2438 1.531 . S
C2435 C2434 1.369 . S
C2435 C2436 1.410 . S
C2435 C2443 1.503 . S
C2436 C2435 1.410 . S
C2436 C2437 1.392 . S
C2436 C2439 1.511 . S
C2437 C2433 1.376 . S
C2437 C2436 1.392 . S
C2437 H2449 0.929 . S
C2438 C2434 1.531 . S
C2438 H2450 0.960 . S
C2438 H2451 0.962 . S
C2438 H2452 0.960 . S
C2439 C2436 1.511 . S
C2439 H2453 0.961 . S
C2439 H2454 0.961 . S
C2439 H2455 0.961 . S
C2440 C2441 1.370 . S
C2440 C2442 1.363 . S
C2440 H2456 0.931 . S
C2441 C2440 1.370 . S
C2441 C2445 1.408 . S
C2442 C2440 1.363 . S
C2442 C2443 1.370 . S
C2442 C2446 1.524 . S
C2443 C2435 1.503 . S
C2443 C2442 1.370 . S
C2443 C2444 1.403 . S
C2444 C2443 1.403 . S
C2444 C2445 1.404 . S
C2444 C2447 1.539 . S
C2445 C2441 1.408 . S
C2445 C2444 1.404 . S
C2445 H2457 0.930 . S
C2446 C2442 1.524 . S
C2446 H2458 0.956 . S
C2446 H2459 0.961 . S
C2446 H2460 0.961 . S
C2447 C2444 1.539 . S
C2447 H2461 0.958 . S
C2447 H2462 0.961 . S
C2447 H2463 0.960 . S
H2448 C2432 0.931 . S
H2449 C2437 0.929 . S
H2450 C2438 0.960 . S
H2451 C2438 0.962 . S
H2452 C2438 0.960 . S
H2453 C2439 0.961 . S
H2454 C2439 0.961 . S
H2455 C2439 0.961 . S
H2456 C2440 0.931 . S
H2457 C2445 0.930 . S
H2458 C2446 0.956 . S
H2459 C2446 0.961 . S
H2460 C2446 0.961 . S
H2461 C2447 0.958 . S
H2462 C2447 0.961 . S
H2463 C2447 0.960 . S
C2464 C2465 1.391 . S
C2464 C2466 1.394 . S
C2464 H2480 0.931 . S
C2465 C2464 1.391 . S
C2465 C2469 1.376 . S
C2466 C2464 1.394 . S
C2466 C2467 1.369 . S
C2466 C2470 1.531 . S
C2467 C2466 1.369 . S
C2467 C2468 1.410 . S
C2467 C2475 1.503 . S
C2468 C2467 1.410 . S
C2468 C2469 1.392 . S
C2468 C2471 1.511 . S
C2469 C2465 1.376 . S
C2469 C2468 1.392 . S
C2469 H2481 0.929 . S
C2470 C2466 1.531 . S
C2470 H2482 0.960 . S
C2470 H2483 0.962 . S
C2470 H2484 0.960 . S
C2471 C2468 1.511 . S
C2471 H2485 0.961 . S
C2471 H2486 0.961 . S
C2471 H2487 0.961 1_556 S
C2472 C2473 1.370 1_556 S
C2472 C2474 1.363 . S
C2472 H2488 0.931 . S
C2473 C2472 1.370 1_554 S
C2473 C2477 1.408 . S
C2474 C2472 1.363 . S
C2474 C2475 1.370 . S
C2474 C2478 1.524 . S
C2475 C2467 1.503 . S
C2475 C2474 1.370 . S
C2475 C2476 1.403 1_556 S
C2476 C2475 1.403 1_554 S
C2476 C2477 1.404 . S
C2476 C2479 1.539 . S
C2477 C2473 1.408 . S
C2477 C2476 1.404 . S
C2477 H2489 0.930 . S
C2478 C2474 1.524 . S
C2478 H2490 0.956 . S
C2478 H2491 0.961 . S
C2478 H2492 0.961 . S
C2479 C2476 1.539 . S
C2479 H2493 0.958 . S
C2479 H2494 0.961 . S
C2479 H2495 0.960 . S
H2480 C2464 0.931 . S
H2481 C2469 0.929 . S
H2482 C2470 0.960 . S
H2483 C2470 0.962 . S
H2484 C2470 0.960 . S
H2485 C2471 0.961 . S
H2486 C2471 0.961 . S
H2487 C2471 0.961 1_554 S
H2488 C2472 0.931 . S
H2489 C2477 0.930 . S
H2490 C2478 0.956 . S
H2491 C2478 0.961 . S
H2492 C2478 0.961 . S
H2493 C2479 0.958 . S
H2494 C2479 0.961 . S
H2495 C2479 0.960 . S
C449 C124 1.985 . S
C457 C1 1.992 . S
C481 C14 1.987 . S
C489 C363 1.995 . S
C513 C40 1.983 . S
C521 C153 1.997 . S
C545 C54 1.982 . S
C553 C391 1.994 . S
C577 C68 1.963 . S
C585 C180 2.000 . S
C609 C418 2.010 . S
C617 C83 1.979 . S
C641 C209 1.994 . S
C649 C85 1.989 . S
C673 C435 2.014 . S
C681 C98 1.983 . S
C705 C238 1.986 . S
C713 C139 1.993 . S
C737 C166 1.967 . S
C745 C279 1.998 . S
C769 C194 1.959 . S
C777 C306 2.004 . S
C801 C323 2.005 . S
C809 C210 1.981 . S
C833 C337 1.970 . S
C841 C224 2.002 . S
C865 C265 1.997 . S
C873 C365 1.990 . S
C897 C280 1.981 . S
C905 C404 1.991 . S
C929 C432 1.965 . S
C937 C321 1.999 . S
C961 C12 1.868 . S
C969 C57 1.859 . S
C993 C70 1.862 . S
C1001 C27 1.858 . S
C1025 C96 1.865 . S
C1033 C29 1.860 . S
C1057 C43 1.853 . S
C1065 C111 1.865 . S
C1089 C113 1.851 . S
C1097 C169 1.866 . S
C1121 C126 1.865 . S
C1129 C183 1.860 . S
C1153 C196 1.849 . S
C1161 C140 1.865 . S
C1185 C223 1.850 . S
C1193 C155 1.865 . S
C1217 C293 1.866 . S
C1225 C237 1.859 . S
C1249 C295 1.863 . S
C1257 C251 1.857 . S
C1281 C252 1.853 . S
C1289 C308 1.865 . S
C1313 C334 1.855 . S
C1321 C266 1.865 . S
C1345 C393 1.862 . S
C1353 C348 1.862 . S
C1377 C350 1.866 . S
C1385 C407 1.859 . S
C1409 C421 1.867 . S
C1417 C376 1.858 . S
C1441 C446 1.861 . S
C1449 C378 1.860 . S
C1473 C56 0.539 . S
C1481 C13 0.570 . S
C1505 C71 0.574 . S
C1513 C26 0.550 . S
C1537 C28 0.580 . S
C1545 C97 0.549 . S
C1569 C110 0.540 . S
C1577 C42 0.569 . S
C1601 C168 0.540 . S
C1609 C112 0.567 . S
C1633 C127 0.581 . S
C1641 C182 0.554 . S
C1665 C197 0.574 . S
C1673 C141 0.559 . S
C1697 C222 0.540 . S
C1705 C154 0.567 . S
C1729 C236 0.585 . S
C1737 C292 0.550 . S
C1761 C294 0.569 . S
C1769 C250 0.550 . S
C1793 C309 0.536 . S
C1801 C253 0.569 . S
C1825 C335 0.583 . S
C1833 C267 0.549 . S
C1857 C392 0.544 . S
C1865 C349 0.569 . S
C1889 C351 0.574 . S
C1897 C406 0.558 . S
C1921 C377 0.579 . S
C1929 C420 0.549 . S
C1953 C379 0.543 . S
C1961 C447 0.564 . S
C1985 C0 2.031 . S
C1993 C307 2.047 . S
C2017 C320 2.030 . S
C2025 C15 2.039 . S
C2049 C41 2.024 . S
C2057 C322 2.043 . S
C2081 C55 2.058 . S
C2089 C281 2.046 1_556 S
C2113 C278 2.030 . S
C2121 C69 2.046 . S
C2145 C225 2.043 . S
C2153 C82 2.043 . S
C2177 C239 2.025 . S
C2185 C84 2.046 . S
C2209 C99 2.025 . S
C2217 C264 2.045 . S
C2241 C125 2.035 . S
C2249 C419 2.041 . S
C2273 C433 2.045 . S
C2281 C138 2.053 . S
C2305 C434 2.042 . S
C2313 C152 2.053 . S
C2337 C405 2.042 . S
C2345 C167 2.041 . S
C2369 C390 2.033 . S
C2377 C181 2.053 . S
C2401 C336 2.036 . S
C2409 C195 2.041 . S
C2433 C208 2.034 . S
C2441 C362 2.051 . S
C2465 C211 2.029 . S
C2473 C364 2.047 . S
