# Generated by pormake.
# Topology wjx, (5)-cn, num edge types: 1
# Building blocks:
#     Node 0, Type 0, BuildingBlock: XOMCOT_clean_sbu_1, # of connection points: 5
#     Node 1, Type 0, BuildingBlock: XOMCOT_clean_sbu_1, # of connection points: 5
#     Node 2, Type 0, BuildingBlock: XOMCOT_clean_sbu_1, # of connection points: 5
#     Node 3, Type 0, BuildingBlock: XOMCOT_clean_sbu_1, # of connection points: 5
#     Node 4, Type 0, BuildingBlock: XOMCOT_clean_sbu_1, # of connection points: 5
#     Node 5, Type 0, BuildingBlock: XOMCOT_clean_sbu_1, # of connection points: 5
#     Node 6, Type 0, BuildingBlock: XOMCOT_clean_sbu_1, # of connection points: 5
#     Node 7, Type 0, BuildingBlock: XOMCOT_clean_sbu_1, # of connection points: 5
#     Node 8, Type 0, BuildingBlock: XOMCOT_clean_sbu_1, # of connection points: 5
#     Node 9, Type 0, BuildingBlock: XOMCOT_clean_sbu_1, # of connection points: 5
#     Node 10, Type 0, BuildingBlock: XOMCOT_clean_sbu_1, # of connection points: 5
#     Node 11, Type 0, BuildingBlock: XOMCOT_clean_sbu_1, # of connection points: 5
#     Edge 12, Type (0, 0), BuildingBlock: KIFKEQ_clean_linker_1, # of connection points: 2
#     Edge 13, Type (0, 0), BuildingBlock: KIFKEQ_clean_linker_1, # of connection points: 2
#     Edge 14, Type (0, 0), BuildingBlock: KIFKEQ_clean_linker_1, # of connection points: 2
#     Edge 15, Type (0, 0), BuildingBlock: KIFKEQ_clean_linker_1, # of connection points: 2
#     Edge 16, Type (0, 0), BuildingBlock: KIFKEQ_clean_linker_1, # of connection points: 2
#     Edge 17, Type (0, 0), BuildingBlock: KIFKEQ_clean_linker_1, # of connection points: 2
#     Edge 18, Type (0, 0), BuildingBlock: KIFKEQ_clean_linker_1, # of connection points: 2
#     Edge 19, Type (0, 0), BuildingBlock: KIFKEQ_clean_linker_1, # of connection points: 2
#     Edge 20, Type (0, 0), BuildingBlock: KIFKEQ_clean_linker_1, # of connection points: 2
#     Edge 21, Type (0, 0), BuildingBlock: KIFKEQ_clean_linker_1, # of connection points: 2
#     Edge 22, Type (0, 0), BuildingBlock: KIFKEQ_clean_linker_1, # of connection points: 2
#     Edge 23, Type (0, 0), BuildingBlock: KIFKEQ_clean_linker_1, # of connection points: 2
#     Edge 24, Type (0, 0), BuildingBlock: KIFKEQ_clean_linker_1, # of connection points: 2
#     Edge 25, Type (0, 0), BuildingBlock: KIFKEQ_clean_linker_1, # of connection points: 2
#     Edge 26, Type (0, 0), BuildingBlock: KIFKEQ_clean_linker_1, # of connection points: 2
#     Edge 27, Type (0, 0), BuildingBlock: KIFKEQ_clean_linker_1, # of connection points: 2
#     Edge 28, Type (0, 0), BuildingBlock: KIFKEQ_clean_linker_1, # of connection points: 2
#     Edge 29, Type (0, 0), BuildingBlock: KIFKEQ_clean_linker_1, # of connection points: 2
#     Edge 30, Type (0, 0), BuildingBlock: KIFKEQ_clean_linker_1, # of connection points: 2
#     Edge 31, Type (0, 0), BuildingBlock: KIFKEQ_clean_linker_1, # of connection points: 2
#     Edge 32, Type (0, 0), BuildingBlock: KIFKEQ_clean_linker_1, # of connection points: 2
#     Edge 33, Type (0, 0), BuildingBlock: KIFKEQ_clean_linker_1, # of connection points: 2
#     Edge 34, Type (0, 0), BuildingBlock: KIFKEQ_clean_linker_1, # of connection points: 2
#     Edge 35, Type (0, 0), BuildingBlock: KIFKEQ_clean_linker_1, # of connection points: 2
#     Edge 36, Type (0, 0), BuildingBlock: KIFKEQ_clean_linker_1, # of connection points: 2
#     Edge 37, Type (0, 0), BuildingBlock: KIFKEQ_clean_linker_1, # of connection points: 2
#     Edge 38, Type (0, 0), BuildingBlock: KIFKEQ_clean_linker_1, # of connection points: 2
#     Edge 39, Type (0, 0), BuildingBlock: KIFKEQ_clean_linker_1, # of connection points: 2
#     Edge 40, Type (0, 0), BuildingBlock: KIFKEQ_clean_linker_1, # of connection points: 2
#     Edge 41, Type (0, 0), BuildingBlock: KIFKEQ_clean_linker_1, # of connection points: 2
# Relax obj value: 0.118
# Max RMSD: 0.106
# Mean RMSD: 0.106
data_MOF--net-wjx--node1-XOMCOT_clean_sbu_1--edge1-KIFKEQ_clean_linker_1
_symmetry_space_group_name_H-M    P1
_symmetry_Int_Tables_number       1
_symmetry_cell_setting            triclinic
loop_
_symmetry_equiv_pos_as_xyz
'x, y, z'
_cell_length_a     73.712525
_cell_length_b     73.626773
_cell_length_c     17.804757
_cell_angle_alpha  90.07035
_cell_angle_beta   90.018363
_cell_angle_gamma 120.02655
loop_
_atom_site_label
_atom_site_type_symbol
_atom_site_fract_x
_atom_site_fract_y
_atom_site_fract_z
_atom_type_partial_charge
C0 C 0.15373 0.4535 0.18966 0.0
C1 C 0.15685 0.45473 0.26607 0.0
N2 N 0.13923 0.43974 0.29914 0.0
N3 N 0.13428 0.43778 0.174 0.0
C4 C 0.12585 0.42954 0.2418 0.0
H5 H 0.16474 0.46387 0.14818 0.0
Co6 Co 0.12283 0.43234 0.0773 0.0
C7 C 0.08416 0.39104 0.09177 0.0
O8 O 0.08974 0.38364 0.03457 0.0
N9 N 0.11153 0.4273 0.97901 0.0
C10 C 0.08996 0.42199 0.88332 0.0
C11 C 0.09224 0.42362 0.9601 0.0
C12 C 0.12075 0.42808 0.91233 0.0
N13 N 0.10795 0.42484 0.85305 0.0
O14 O 0.13367 0.4136 0.06129 0.0
H15 H 0.08065 0.42265 0.99967 0.0
H16 H 0.13661 0.43115 0.90692 0.0
O17 O 0.09635 0.40973 0.11477 0.0
C18 C 0.15225 0.4231 0.03483 0.0
O19 O 0.16084 0.44313 0.01858 0.0
N20 N 0.11396 0.45194 0.0934 0.0
C21 C 0.1075 0.48568 0.1229 0.0
C22 C 0.0977 0.46731 0.16655 0.0
C23 C 0.10102 0.45059 0.15064 0.0
C24 C 0.12335 0.4694 0.04953 0.0
C25 C 0.12007 0.48626 0.06243 0.0
H26 H 0.09391 0.437 0.18667 0.0
H27 H 0.13383 0.47042 1.00512 0.0
H28 H 0.10988 0.41702 0.24936 0.0
H29 H 0.17095 0.46605 0.29492 0.0
H30 H 0.07633 0.41964 0.85227 0.0
H31 H 0.08819 0.46606 0.21469 0.0
H32 H 0.12765 0.49975 0.02578 0.0
C33 C 0.70579 0.15502 0.54347 0.0
C34 C 0.7095 0.15808 0.61942 0.0
N35 N 0.70926 0.14108 0.64867 0.0
N36 N 0.70317 0.13617 0.5242 0.0
C37 C 0.70585 0.12821 0.58925 0.0
H38 H 0.70387 0.16536 0.50535 0.0
Co39 Co 0.69444 0.12458 0.42758 0.0
C40 C 0.67603 0.07939 0.48024 0.0
O41 O 0.65686 0.07612 0.48149 0.0
N42 N 0.68633 0.11338 0.32825 0.0
C43 C 0.67008 0.09213 0.23132 0.0
C44 C 0.67079 0.0941 0.30814 0.0
C45 C 0.69471 0.12283 0.26155 0.0
N46 N 0.68516 0.11023 0.20165 0.0
O47 O 0.72347 0.13472 0.40252 0.0
H48 H 0.66019 0.08215 0.34609 0.0
H49 H 0.70733 0.13881 0.2564 0.0
O50 O 0.69141 0.09722 0.46014 0.0
C51 C 0.73216 0.15353 0.37817 0.0
O52 O 0.72068 0.16251 0.37129 0.0
N53 N 0.66606 0.11705 0.45241 0.0
C54 C 0.62708 0.11287 0.48952 0.0
C55 C 0.63868 0.10903 0.54286 0.0
C56 C 0.65808 0.1114 0.52358 0.0
C57 C 0.65517 0.12155 0.40054 0.0
C58 C 0.63547 0.11907 0.4173 0.0
H59 H 0.66635 0.10807 0.56625 0.0
H60 H 0.66193 0.12776 0.3462 0.0
H61 H 0.70394 0.1127 0.59381 0.0
H62 H 0.71077 0.17119 0.6513 0.0
H63 H 0.65929 0.07828 0.19996 0.0
H64 H 0.63277 0.10417 0.59933 0.0
H65 H 0.62726 0.12277 0.37498 0.0
C66 C 0.55736 0.70447 0.89031 0.0
C67 C 0.55764 0.708 0.96625 0.0
N68 N 0.57487 0.70884 0.99597 0.0
N69 N 0.57434 0.7031 0.87149 0.0
C70 C 0.58489 0.70611 0.93696 0.0
H71 H 0.54498 0.70195 0.85176 0.0
Co72 Co 0.57868 0.69574 0.7745 0.0
C73 C 0.60342 0.67545 0.83076 0.0
O74 O 0.58738 0.6564 0.82489 0.0
N75 N 0.5832 0.68903 0.67564 0.0
C76 C 0.58954 0.67431 0.5774 0.0
C77 C 0.58824 0.67451 0.65416 0.0
C78 C 0.5815 0.69743 0.60996 0.0
N79 N 0.58522 0.68867 0.54914 0.0
O80 O 0.59862 0.7249 0.75543 0.0
H81 H 0.59041 0.66419 0.69085 0.0
H82 H 0.57705 0.70935 0.6067 0.0
O83 O 0.60181 0.69141 0.81183 0.0
C84 C 0.58928 0.73506 0.73951 0.0
O85 O 0.56873 0.7249 0.73626 0.0
N86 N 0.55694 0.66729 0.79205 0.0
C87 C 0.52118 0.62783 0.81588 0.0
C88 C 0.53567 0.63813 0.87373 0.0
C89 C 0.55313 0.6579 0.86118 0.0
C90 C 0.54249 0.65776 0.73606 0.0
C91 C 0.52478 0.63797 0.74629 0.0
H92 H 0.5638 0.66542 0.90731 0.0
H93 H 0.5442 0.66568 0.68331 0.0
H94 H 0.5991 0.70532 0.94189 0.0
H95 H 0.54537 0.70856 0.99772 0.0
H96 H 0.59343 0.66428 0.54503 0.0
H97 H 0.53328 0.63126 0.92914 0.0
H98 H 0.51391 0.6308 0.7001 0.0
C99 C 0.86757 0.55274 0.17692 0.0
C100 C 0.86551 0.54988 0.25342 0.0
N101 N 0.88164 0.56664 0.28664 0.0
N102 N 0.88497 0.57113 0.16191 0.0
C103 C 0.89314 0.57938 0.22984 0.0
H104 H 0.85732 0.5419 0.13461 0.0
Co105 Co 0.89458 0.58001 0.06523 0.0
C106 C 0.93996 0.60959 0.07601 0.0
O107 O 0.94198 0.59995 0.01716 0.0
N108 N 0.90356 0.58913 0.9653 0.0
C109 C 0.91522 0.61133 0.86863 0.0
C110 C 0.91265 0.60954 0.945 0.0
C111 C 0.90007 0.57876 0.89909 0.0
N112 N 0.90721 0.59195 0.83968 0.0
O113 O 0.88167 0.59729 0.06711 0.0
H114 H 0.91657 0.62239 0.98338 0.0
H115 H 0.89178 0.56193 0.89343 0.0
O116 O 0.92171 0.60336 0.10391 0.0
C117 C 0.86506 0.58941 0.02707 0.0
O118 O 0.85962 0.57198 0.98995 0.0
N119 N 0.905 0.56109 0.06494 0.0
C120 C 0.90956 0.52609 0.09109 0.0
C121 C 0.92158 0.54474 0.13104 0.0
C122 C 0.91895 0.56197 0.11775 0.0
C123 C 0.8931 0.54293 0.026 0.0
C124 C 0.89552 0.52543 0.03666 0.0
H125 H 0.92684 0.57523 0.15504 0.0
H126 H 0.88027 0.54123 0.99168 0.0
H127 H 0.90761 0.59403 0.23762 0.0
H128 H 0.85312 0.53648 0.28231 0.0
H129 H 0.92143 0.62569 0.8365 0.0
H130 H 0.93218 0.54566 0.175 0.0
H131 H 0.88534 0.511 1.00688 0.0
C132 C 0.32002 0.86144 0.49644 0.0
C133 C 0.32072 0.85933 0.57297 0.0
N134 N 0.32081 0.87583 0.60619 0.0
N135 N 0.31968 0.87917 0.48137 0.0
C136 C 0.3201 0.8876 0.54927 0.0
H137 H 0.31989 0.85081 0.45418 0.0
Co138 Co 0.31881 0.88805 0.38477 0.0
C139 C 0.33325 0.93347 0.3938 0.0
O140 O 0.34315 0.93584 0.33002 0.0
N141 N 0.31707 0.89626 0.28519 0.0
C142 C 0.30433 0.90588 0.18933 0.0
C143 C 0.3042 0.90362 0.26578 0.0
C144 C 0.32454 0.89381 0.21863 0.0
N145 N 0.31709 0.89965 0.15944 0.0
O146 O 0.28866 0.87472 0.39288 0.0
H147 H 0.29477 0.9066 0.30491 0.0
H148 H 0.33475 0.88736 0.21284 0.0
O149 O 0.32278 0.91518 0.42344 0.0
C150 C 0.2793 0.85777 0.35469 0.0
O151 O 0.29065 0.85232 0.31379 0.0
N152 N 0.34806 0.8988 0.37848 0.0
C153 C 0.38833 0.90431 0.39428 0.0
C154 C 0.38254 0.91716 0.43334 0.0
C155 C 0.36229 0.91398 0.42553 0.0
C156 C 0.35347 0.8861 0.34052 0.0
C157 C 0.37364 0.88891 0.34608 0.0
H158 H 0.35776 0.92262 0.4625 0.0
H159 H 0.34159 0.87262 0.31044 0.0
H160 H 0.31963 0.90192 0.55701 0.0
H161 H 0.32145 0.84677 0.60176 0.0
H162 H 0.29492 0.91078 0.15808 0.0
H163 H 0.39326 0.92891 0.47252 0.0
H164 H 0.37719 0.87811 0.31719 0.0
C165 C 0.46219 0.31925 0.84512 0.0
C166 C 0.46503 0.32013 0.92165 0.0
N167 N 0.44829 0.31956 0.95453 0.0
N168 N 0.44383 0.31827 0.82978 0.0
C169 C 0.43558 0.31828 0.89753 0.0
H170 H 0.47299 0.31974 0.803 0.0
Co171 Co 0.43493 0.31876 0.73294 0.0
C172 C 0.40572 0.33494 0.742 0.0
O173 O 0.41569 0.34647 0.68338 0.0
N174 N 0.42579 0.31835 0.63287 0.0
C175 C 0.40357 0.30774 0.53617 0.0
C176 C 0.4054 0.30698 0.61254 0.0
C177 C 0.43611 0.32524 0.56672 0.0
N178 N 0.42291 0.31915 0.50731 0.0
O179 O 0.41767 0.28856 0.73545 0.0
H180 H 0.39259 0.2981 0.65094 0.0
H181 H 0.45292 0.3339 0.56114 0.0
O182 O 0.41163 0.32274 0.77081 0.0
C183 C 0.42601 0.27999 0.69702 0.0
O184 O 0.44365 0.29219 0.66165 0.0
N185 N 0.45391 0.34808 0.73185 0.0
C186 C 0.48888 0.38794 0.75498 0.0
C187 C 0.47029 0.38153 0.79493 0.0
C188 C 0.45313 0.36149 0.78347 0.0
C189 C 0.472 0.35407 0.69309 0.0
C190 C 0.48947 0.37409 0.70231 0.0
H191 H 0.43997 0.35634 0.8209 0.0
H192 H 0.47361 0.34269 0.65985 0.0
H193 H 0.42093 0.31809 0.90502 0.0
H194 H 0.47839 0.32113 0.95079 0.0
H195 H 0.38921 0.29958 0.50399 0.0
H196 H 0.46933 0.39157 0.83741 0.0
H197 H 0.50381 0.37808 0.67261 0.0
C198 C 0.55698 0.85794 0.43616 0.0
C199 C 0.55752 0.8548 0.36027 0.0
N200 N 0.57466 0.87142 0.33117 0.0
N201 N 0.57372 0.87646 0.45563 0.0
C202 C 0.5844 0.8842 0.39056 0.0
H203 H 0.54454 0.8479 0.47416 0.0
Co204 Co 0.57743 0.88803 0.55275 0.0
C205 C 0.60251 0.9331 0.49688 0.0
O206 O 0.58624 0.93577 0.49731 0.0
N207 N 0.58141 0.89917 0.65161 0.0
C208 C 0.5872 0.92028 0.74932 0.0
C209 C 0.58584 0.9186 0.67253 0.0
C210 C 0.58014 0.88933 0.71751 0.0
N211 N 0.58356 0.90185 0.77804 0.0
O212 O 0.59732 0.87888 0.57389 0.0
H213 H 0.58752 0.93081 0.63519 0.0
H214 H 0.57628 0.87312 0.72112 0.0
O215 O 0.6008 0.91562 0.51766 0.0
C216 C 0.58806 0.85936 0.58954 0.0
O217 O 0.5675 0.84877 0.59158 0.0
N218 N 0.55569 0.89472 0.53291 0.0
C219 C 0.52008 0.89855 0.50568 0.0
C220 C 0.53448 0.90197 0.44836 0.0
C221 C 0.55191 0.89976 0.46277 0.0
C222 C 0.54125 0.89037 0.58837 0.0
C223 C 0.52373 0.89268 0.5766 0.0
H224 H 0.56258 0.90262 0.41706 0.0
H225 H 0.54284 0.88456 0.64216 0.0
H226 H 0.59843 0.89939 0.38612 0.0
H227 H 0.54542 0.8419 0.32833 0.0
H228 H 0.59069 0.93416 0.78135 0.0
H229 H 0.53215 0.90587 0.39192 0.0
H230 H 0.51309 0.88967 0.62289 0.0
C231 C 0.70346 0.55462 0.82963 0.0
C232 C 0.70697 0.55495 0.75363 0.0
N233 N 0.7071 0.57184 0.72376 0.0
N234 N 0.70132 0.57118 0.84826 0.0
C235 C 0.70408 0.58167 0.78282 0.0
H236 H 0.70139 0.54241 0.86829 0.0
Co237 Co 0.69316 0.57485 0.94468 0.0
C238 C 0.67454 0.60118 0.88952 0.0
O239 O 0.6553 0.58538 0.89184 0.0
N240 N 0.68563 0.57874 0.04382 0.0
C241 C 0.67019 0.58466 0.14101 0.0
C242 C 0.67079 0.58344 0.06419 0.0
C243 C 0.69371 0.57707 0.11042 0.0
N244 N 0.68462 0.58063 0.17046 0.0
O245 O 0.72229 0.59391 0.96742 0.0
H246 H 0.66056 0.58548 0.02656 0.0
H247 H 0.70571 0.57283 0.11533 0.0
O248 O 0.69002 0.59889 0.90932 0.0
C249 C 0.73109 0.58396 0.99224 0.0
O250 O 0.71964 0.56353 1.00079 0.0
N251 N 0.66466 0.55385 0.92231 0.0
C252 C 0.6256 0.51862 0.8888 0.0
C253 C 0.63684 0.53372 0.83401 0.0
C254 C 0.6563 0.55099 0.85153 0.0
C255 C 0.65407 0.53885 0.97571 0.0
C256 C 0.63435 0.52142 0.96071 0.0
H257 H 0.66437 0.56228 0.80775 0.0
H258 H 0.66112 0.53985 0.02987 0.0
H259 H 0.70262 0.59551 0.7778 0.0
H260 H 0.7079 0.54285 0.72221 0.0
H261 H 0.65989 0.58835 0.17255 0.0
H262 H 0.63065 0.5322 0.77771 0.0
H263 H 0.62642 0.5098 1.00413 0.0
C264 C 0.15049 0.69487 0.21629 0.0
C265 C 0.15361 0.6966 0.13991 0.0
N266 N 0.13565 0.69286 0.1065 0.0
N267 N 0.13071 0.69015 0.23152 0.0
C268 C 0.12205 0.68907 0.16336 0.0
H269 H 0.16178 0.69631 0.25804 0.0
Co270 Co 0.11952 0.68416 0.32861 0.0
C271 C 0.08622 0.69267 0.27011 0.0
O272 O 0.09929 0.71276 0.25951 0.0
N273 N 0.10845 0.67798 0.42662 0.0
C274 C 0.08639 0.66241 0.52144 0.0
C275 C 0.0887 0.66324 0.44474 0.0
C276 C 0.11787 0.68578 0.49364 0.0
N277 N 0.10477 0.67664 0.55245 0.0
O278 O 0.13125 0.71388 0.34643 0.0
H279 H 0.07684 0.65325 0.40476 0.0
H280 H 0.13403 0.69788 0.49955 0.0
O281 O 0.09298 0.6809 0.29472 0.0
C282 C 0.14981 0.72259 0.37312 0.0
O283 O 0.15799 0.71075 0.38875 0.0
N284 N 0.10988 0.6556 0.31123 0.0
C285 C 0.10314 0.61571 0.27655 0.0
C286 C 0.0926 0.62414 0.23709 0.0
C287 C 0.09606 0.64409 0.25565 0.0
C288 C 0.11985 0.64743 0.35145 0.0
C289 C 0.1165 0.62737 0.33567 0.0
H290 H 0.08835 0.65057 0.22282 0.0
H291 H 0.13108 0.65689 0.3942 0.0
H292 H 0.1058 0.68451 0.15498 0.0
H293 H 0.16793 0.70006 0.11127 0.0
H294 H 0.07238 0.65164 0.55185 0.0
H295 H 0.08215 0.61558 0.19112 0.0
H296 H 0.12511 0.62149 0.36685 0.0
C297 C 0.4634 0.14414 0.55398 0.0
C298 C 0.46628 0.14615 0.47747 0.0
N299 N 0.44939 0.13018 0.44422 0.0
N300 N 0.44486 0.12692 0.569 0.0
C301 C 0.43656 0.11882 0.50103 0.0
H302 H 0.4743 0.15431 0.59629 0.0
Co303 Co 0.43575 0.11734 0.66568 0.0
C304 C 0.40541 0.0719 0.65366 0.0
O305 O 0.41406 0.0693 0.71419 0.0
N306 N 0.42646 0.10841 0.76537 0.0
C307 C 0.40432 0.09712 0.86216 0.0
C308 C 0.40611 0.09964 0.78575 0.0
C309 C 0.43681 0.11174 0.83151 0.0
N310 N 0.42365 0.10483 0.89102 0.0
O311 O 0.41871 0.13047 0.66326 0.0
H312 H 0.39333 0.09591 0.7474 0.0
H313 H 0.45362 0.11974 0.83698 0.0
O314 O 0.41243 0.09036 0.6263 0.0
C315 C 0.42697 0.14732 0.70217 0.0
O316 O 0.44453 0.15272 0.73813 0.0
N317 N 0.45445 0.10672 0.66675 0.0
C318 C 0.48957 0.10236 0.64055 0.0
C319 C 0.47071 0.08976 0.60243 0.0
C320 C 0.45345 0.09235 0.6155 0.0
C321 C 0.47271 0.11902 0.70452 0.0
C322 C 0.49028 0.11678 0.69365 0.0
H323 H 0.4401 0.0841 0.57898 0.0
H324 H 0.47437 0.13203 0.73787 0.0
H325 H 0.42176 0.10451 0.49321 0.0
H326 H 0.47977 0.15842 0.44859 0.0
H327 H 0.39001 0.09115 0.89438 0.0
H328 H 0.46963 0.07875 0.55979 0.0
H329 H 0.50478 0.12739 0.72216 0.0
C330 C 0.31068 0.45451 0.86862 0.0
C331 C 0.3086 0.45512 0.79197 0.0
N332 N 0.31234 0.44067 0.76028 0.0
N333 N 0.31562 0.4397 0.88567 0.0
C334 C 0.31645 0.43148 0.81855 0.0
H335 H 0.30943 0.46476 0.90924 0.0
Co336 Co 0.32219 0.43493 0.98237 0.0
C337 C 0.3212 0.39437 0.96486 0.0
O338 O 0.30797 0.38627 0.021 0.0
N339 N 0.32911 0.43052 0.0803 0.0
C340 C 0.34661 0.42639 0.17438 0.0
C341 C 0.34517 0.42739 0.09773 0.0
C342 C 0.32116 0.43155 0.14777 0.0
N343 N 0.33152 0.42908 0.20606 0.0
O344 O 0.29294 0.41503 0.99867 0.0
H345 H 0.35553 0.42633 0.05718 0.0
H346 H 0.30853 0.43484 0.15455 0.0
O347 O 0.32749 0.4132 0.94429 0.0
C348 C 0.28338 0.42397 0.02591 0.0
O349 O 0.29426 0.44407 0.04193 0.0
N350 N 0.35009 0.45573 0.96651 0.0
C351 C 0.38873 0.49152 0.93796 0.0
C352 C 0.38256 0.47276 0.89853 0.0
C353 C 0.36308 0.45503 0.91337 0.0
C354 C 0.35601 0.47359 1.00663 0.0
C355 C 0.3753 0.49161 0.99367 0.0
H356 H 0.35817 0.44112 0.87979 0.0
H357 H 0.34536 0.474 0.04749 0.0
H358 H 0.32043 0.41929 0.81227 0.0
H359 H 0.3055 0.46605 0.76191 0.0
H360 H 0.35801 0.42398 0.20433 0.0
H361 H 0.39224 0.47203 0.85426 0.0
H362 H 0.37947 0.50559 0.02622 0.0
C363 C 0.86103 0.31593 0.16118 0.0
C364 C 0.85804 0.31543 0.08481 0.0
N365 N 0.87508 0.31701 0.05059 0.0
N366 N 0.87988 0.31792 0.17524 0.0
C367 C 0.888 0.31824 0.10683 0.0
H368 H 0.85041 0.31549 0.20401 0.0
Co369 Co 0.89077 0.32155 0.27167 0.0
C370 C 0.93636 0.34249 0.25559 0.0
O371 O 0.93658 0.35512 0.30835 0.0
N372 N 0.90099 0.3241 0.37175 0.0
C373 C 0.91576 0.31738 0.46917 0.0
C374 C 0.91338 0.31628 0.39275 0.0
C375 C 0.89519 0.32887 0.43791 0.0
N376 N 0.90423 0.32521 0.49775 0.0
O377 O 0.88018 0.29168 0.27734 0.0
H378 H 0.91948 0.30909 0.35512 0.0
H379 H 0.88362 0.33365 0.44323 0.0
O380 O 0.9187 0.32724 0.23276 0.0
C381 C 0.86371 0.2827 0.31791 0.0
O382 O 0.85711 0.29437 0.35047 0.0
N383 N 0.89892 0.35058 0.26434 0.0
C384 C 0.90329 0.39002 0.23582 0.0
C385 C 0.91331 0.38221 0.19048 0.0
C386 C 0.91077 0.36247 0.20505 0.0
C387 C 0.88853 0.35777 0.30757 0.0
C388 C 0.89097 0.3777 0.2957 0.0
H389 H 0.91758 0.35643 0.16578 0.0
H390 H 0.87707 0.34755 0.34778 0.0
H391 H 0.90349 0.32041 0.09829 0.0
H392 H 0.84447 0.31425 0.05672 0.0
H393 H 0.92415 0.31149 0.50159 0.0
H394 H 0.92256 0.39106 0.14255 0.0
H395 H 0.88228 0.38288 0.33002 0.0
H396 H 0.04937 0.35898 0.02356 0.0
H397 H 0.06933 0.39764 0.22293 0.0
H398 H 0.01271 0.34498 0.06001 0.0
H399 H 0.03298 0.38333 0.26015 0.0
H400 H 0.97114 0.38046 0.24872 0.0
H401 H 1.00604 0.38925 0.21042 0.0
H402 H 0.98354 0.32452 0.15093 0.0
H403 H 0.94784 0.31565 0.1887 0.0
C404 C 0.04597 0.36412 0.07603 0.0
C405 C 0.06228 0.37967 0.11984 0.0
C406 C 0.02495 0.35607 0.0969 0.0
C407 C 0.01986 0.36336 0.16212 0.0
C408 C 0.03628 0.37779 0.2084 0.0
C409 C 0.05718 0.38593 0.18733 0.0
C410 C 0.9735 0.36801 0.22732 0.0
C411 C 0.95676 0.34728 0.22279 0.0
C412 C 0.99363 0.37305 0.20582 0.0
C413 C 0.99779 0.35751 0.17963 0.0
C414 C 0.98088 0.33684 0.17142 0.0
C415 C 0.96046 0.33176 0.1928 0.0
H416 H 0.66585 0.05481 0.60279 0.0
H417 H 0.68904 0.06116 0.37668 0.0
H418 H 0.6563 0.01801 0.60352 0.0
H419 H 0.67932 0.02405 0.3766 0.0
H420 H 0.61459 0.95838 0.3759 0.0
H421 H 0.64214 0.99504 0.37302 0.0
H422 H 0.66323 0.98819 0.59199 0.0
H423 H 0.63553 0.95118 0.59399 0.0
C424 C 0.66989 0.04853 0.55462 0.0
C425 C 0.67834 0.0608 0.49 0.0
C426 C 0.6644 0.0274 0.55487 0.0
C427 C 0.66683 0.01797 0.48977 0.0
C428 C 0.67715 0.03082 0.42748 0.0
C429 C 0.68295 0.05211 0.42774 0.0
C430 C 0.62578 0.96447 0.42169 0.0
C431 C 0.62308 0.95199 0.48484 0.0
C432 C 0.64162 0.9855 0.42016 0.0
C433 C 0.65483 0.99465 0.4826 0.0
C434 C 0.65326 0.98163 0.54314 0.0
C435 C 0.63757 0.9604 0.54404 0.0
H436 H 0.68698 0.63379 0.98686 0.0
H437 H 0.66531 0.61392 0.76067 0.0
H438 H 0.67786 0.66149 0.9762 0.0
H439 H 0.65634 0.64146 0.74927 0.0
H440 H 0.63703 0.68844 0.73827 0.0
H441 H 0.66407 0.67849 0.75075 0.0
H442 H 0.64111 0.65438 0.97278 0.0
H443 H 0.61423 0.66418 0.95955 0.0
C444 C 0.68134 0.6361 0.93355 0.0
C445 C 0.67703 0.62194 0.87424 0.0
C446 C 0.67588 0.65178 0.92766 0.0
C447 C 0.66618 0.6536 0.86212 0.0
C448 C 0.66397 0.64073 0.80024 0.0
C449 C 0.66913 0.62493 0.8066 0.0
C450 C 0.63855 0.68202 0.79107 0.0
C451 C 0.62376 0.67724 0.84833 0.0
C452 C 0.65385 0.6761 0.79797 0.0
C453 C 0.65466 0.66546 0.86251 0.0
C454 C 0.64116 0.66273 0.92268 0.0
C455 C 0.62573 0.66836 0.91527 0.0
H456 H 0.06726 0.7098 0.18599 0.0
H457 H 0.0541 0.65384 0.308 0.0
H458 H 0.03051 0.6929 0.14658 0.0
H459 H 0.01753 0.63721 0.26962 0.0
H460 H 0.94923 0.61687 0.22629 0.0
H461 H 0.98406 0.63967 0.28128 0.0
H462 H 0.00917 0.6618 0.05975 0.0
H463 H 0.97468 0.63894 1.00533 0.0
C464 C 0.05652 0.69404 0.20527 0.0
C465 C 0.0637 0.68317 0.24996 0.0
C466 C 0.03548 0.68437 0.18268 0.0
C467 C 0.02109 0.66376 0.20537 0.0
C468 C 0.02813 0.6532 0.25213 0.0
C469 C 0.04918 0.66271 0.27364 0.0
C470 C 0.9621 0.62706 0.18986 0.0
C471 C 0.95932 0.62618 0.11166 0.0
C472 C 0.98204 0.63996 0.22111 0.0
C473 C 0.99937 0.65247 0.17474 0.0
C474 C 0.99615 0.65252 0.09704 0.0
C475 C 0.97641 0.63938 0.06586 0.0
H476 H 0.37416 0.03649 0.71566 0.0
H477 H 0.40175 0.06418 0.5025 0.0
H478 H 0.3519 1.0029 0.65448 0.0
H479 H 0.38065 0.03034 0.44116 0.0
H480 H 0.33704 0.96914 0.33512 0.0
H481 H 0.34989 1.00287 0.39732 0.0
H482 H 0.35409 0.97524 0.60637 0.0
H483 H 0.33991 0.94133 0.54445 0.0
C484 C 0.37526 0.03537 0.65531 0.0
C485 C 0.38961 0.05291 0.61372 0.0
C486 C 0.36269 0.01601 0.62019 0.0
C487 C 0.36458 0.01352 0.54267 0.0
C488 C 0.37837 0.03147 0.50064 0.0
C489 C 0.39058 0.05098 0.5357 0.0
C490 C 0.34024 0.97026 0.39487 0.0
C491 C 0.33742 0.95263 0.43504 0.0
C492 C 0.34789 0.98969 0.43052 0.0
C493 C 0.3535 0.99216 0.50702 0.0
C494 C 0.34974 0.97415 0.54781 0.0
C495 C 0.3416 0.95458 0.51236 0.0
H496 H 0.31844 0.35756 1.01292 0.0
H497 H 0.34595 0.40485 0.84015 0.0
H498 H 0.33611 0.33975 0.96029 0.0
H499 H 0.36382 0.38748 0.7891 0.0
H500 H 0.37986 0.34494 0.66908 0.0
H501 H 0.3569 0.35636 0.72249 0.0
H502 H 0.37168 0.34457 0.94553 0.0
H503 H 0.39446 0.3325 0.8911 0.0
C504 C 0.32813 0.3641 0.96353 0.0
C505 C 0.33076 0.38267 0.93082 0.0
C506 C 0.33839 0.35397 0.93377 0.0
C507 C 0.35135 0.3621 0.87027 0.0
C508 C 0.35371 0.38053 0.83727 0.0
C509 C 0.34356 0.39063 0.867 0.0
C510 C 0.37796 0.34444 0.72953 0.0
C511 C 0.38911 0.33802 0.77596 0.0
C512 C 0.3649 0.35115 0.76022 0.0
C513 C 0.36279 0.35188 0.83843 0.0
C514 C 0.37293 0.3442 0.88502 0.0
C515 C 0.38595 0.33725 0.85398 0.0
H516 H 0.14645 0.44457 0.78712 0.0
H517 H 0.08039 0.4066 0.73797 0.0
H518 H 0.15427 0.44676 0.65356 0.0
H519 H 0.08816 0.40957 0.60424 0.0
H520 H 0.11068 0.40403 0.37022 0.0
H521 H 0.1034 0.39921 0.50477 0.0
H522 H 0.15081 0.46376 0.54391 0.0
H523 H 0.15809 0.46853 0.41029 0.0
C524 C 0.13357 0.43657 0.74811 0.0
C525 C 0.11274 0.42549 0.77386 0.0
C526 C 0.13805 0.43804 0.67118 0.0
C527 C 0.12185 0.42848 0.61775 0.0
C528 C 0.10107 0.41701 0.64356 0.0
C529 C 0.09658 0.41553 0.72047 0.0
C530 C 0.11951 0.4172 0.40748 0.0
C531 C 0.13505 0.43664 0.37897 0.0
C532 C 0.11532 0.41445 0.48476 0.0
C533 C 0.12657 0.43107 0.53554 0.0
C534 C 0.14213 0.45046 0.50692 0.0
C535 C 0.14631 0.4532 0.4299 0.0
H536 H 0.68977 0.10261 0.71505 0.0
H537 H 0.727 0.16882 0.76334 0.0
H538 H 0.68552 0.0951 0.84919 0.0
H539 H 0.72209 0.16139 0.8975 0.0
H540 H 0.72217 0.13921 0.13848 0.0
H541 H 0.7299 0.14636 1.0048 0.0
H542 H 0.66635 0.09906 0.95108 0.0
H543 H 0.65867 0.09196 0.08385 0.0
C544 C 0.69731 0.11557 0.7541 0.0
C545 C 0.70866 0.13636 0.72796 0.0
C546 C 0.69462 0.11128 0.83129 0.0
C547 C 0.70322 0.12764 0.8846 0.0
C548 C 0.7153 0.14836 0.85844 0.0
C549 C 0.71796 0.15265 0.78128 0.0
C550 C 0.70981 0.13044 0.09824 0.0
C551 C 0.6898 0.11491 0.12251 0.0
C552 C 0.71425 0.13451 0.02138 0.0
C553 C 0.69882 0.12318 0.96669 0.0
C554 C 0.67881 0.10778 0.99115 0.0
C555 C 0.67437 0.10372 0.06773 0.0
H556 H 0.59099 0.72491 0.48565 0.0
H557 H 0.5771 0.66199 0.43243 0.0
H558 H 0.59064 0.73206 0.35141 0.0
H559 H 0.57684 0.66908 0.29973 0.0
H560 H 0.59608 0.69197 0.06411 0.0
H561 H 0.60014 0.68903 0.19858 0.0
H562 H 0.56697 0.72238 0.24355 0.0
H563 H 0.56358 0.72598 0.10887 0.0
C564 C 0.58775 0.71258 0.4456 0.0
C565 C 0.5843 0.69294 0.47023 0.0
C566 C 0.5876 0.71668 0.36858 0.0
C567 C 0.584 0.70124 0.31442 0.0
C568 C 0.58023 0.68155 0.3394 0.0
C569 C 0.58035 0.67747 0.41593 0.0
C570 C 0.59004 0.69908 0.10244 0.0
C571 C 0.57935 0.70908 0.07529 0.0
C572 C 0.59213 0.69716 0.1798 0.0
C573 C 0.58362 0.70521 0.23222 0.0
C574 C 0.57377 0.71604 0.20506 0.0
C575 C 0.57165 0.71792 0.12768 0.0
H576 H 0.93404 0.61396 0.72843 0.0
H577 H 0.87462 0.55846 0.7725 0.0
H578 H 0.92871 0.60722 0.5939 0.0
H579 H 0.86886 0.55188 0.6378 0.0
H580 H 0.87219 0.53674 0.39206 0.0
H581 H 0.8794 0.54194 0.52632 0.0
H582 H 0.90801 0.60897 0.49558 0.0
H583 H 0.90119 0.60366 0.3611 0.0
C584 C 0.91982 0.6003 0.70913 0.0
C585 C 0.90473 0.58677 0.76088 0.0
C586 C 0.91668 0.59648 0.63202 0.0
C587 C 0.89824 0.57913 0.6046 0.0
C588 C 0.88337 0.56527 0.65668 0.0
C589 C 0.88664 0.569 0.73397 0.0
C590 C 0.87993 0.55257 0.41412 0.0
C591 C 0.88607 0.5698 0.36598 0.0
C592 C 0.88406 0.55557 0.49118 0.0
C593 C 0.89429 0.57588 0.52216 0.0
C594 C 0.90046 0.59311 0.47376 0.0
C595 C 0.8965 0.5901 0.3966 0.0
H596 H 0.32751 0.87279 0.09305 0.0
H597 H 0.31362 0.92207 0.04538 0.0
H598 H 0.33031 0.86807 0.95896 0.0
H599 H 0.31541 0.91668 0.91149 0.0
H600 H 0.33702 0.91376 0.67475 0.0
H601 H 0.33825 0.9206 0.80929 0.0
H602 H 0.30728 0.85398 0.85269 0.0
H603 H 0.30629 0.84723 0.71853 0.0
C604 C 0.32522 0.88275 0.05419 0.0
C605 C 0.3202 0.89773 0.08031 0.0
C606 C 0.32656 0.87985 0.97709 0.0
C607 C 0.3229 0.89186 0.92418 0.0
C608 C 0.31848 0.90725 0.95042 0.0
C609 C 0.31719 0.91016 0.02739 0.0
C610 C 0.33038 0.90059 0.713 0.0
C611 C 0.32154 0.87995 0.68576 0.0
C612 C 0.33109 0.9045 0.79022 0.0
C613 C 0.3229 0.88785 0.84207 0.0
C614 C 0.31412 0.86722 0.81467 0.0
C615 C 0.31349 0.86333 0.73758 0.0
H616 H 0.4781 0.34009 0.06031 0.0
H617 H 0.41128 0.30199 0.02842 0.0
H618 H 0.47285 0.34197 0.19456 0.0
H619 H 0.40593 0.30337 0.16289 0.0
H620 H 0.40084 0.32404 0.39635 0.0
H621 H 0.40758 0.32568 0.26182 0.0
H622 H 0.46296 0.32127 0.30534 0.0
H623 H 0.45639 0.32023 0.44003 0.0
C624 C 0.46228 0.33194 0.08217 0.0
C625 C 0.4451 0.32083 0.0338 0.0
C626 C 0.45926 0.33299 0.15921 0.0
C627 C 0.43896 0.32281 0.18992 0.0
C628 C 0.42177 0.31175 0.14127 0.0
C629 C 0.4248 0.31087 0.06412 0.0
C630 C 0.41451 0.32355 0.37696 0.0
C631 C 0.42805 0.32195 0.42857 0.0
C632 C 0.41833 0.32436 0.29986 0.0
C633 C 0.4357 0.32337 0.27235 0.0
C634 C 0.44957 0.32233 0.32431 0.0
C635 C 0.44583 0.32173 0.40159 0.0
H636 H 0.5753 0.9202 0.89517 0.0
H637 H 0.59048 0.87212 0.84148 0.0
H638 H 0.57552 0.91304 0.02788 0.0
H639 H 0.59062 0.86484 0.97559 0.0
H640 H 0.56413 0.84323 0.21778 0.0
H641 H 0.56728 0.85035 0.08326 0.0
H642 H 0.59889 0.91686 0.12935 0.0
H643 H 0.59506 0.90969 0.26376 0.0
C644 C 0.57894 0.90824 0.91153 0.0
C645 C 0.58306 0.89689 0.85706 0.0
C646 C 0.57911 0.90415 0.98809 0.0
C647 C 0.58335 0.88853 1.01292 0.0
C648 C 0.58719 0.87692 0.9586 0.0
C649 C 0.58706 0.88106 0.8816 0.0
C650 C 0.57181 0.85938 0.19925 0.0
C651 C 0.57914 0.87585 0.25195 0.0
C652 C 0.5738 0.86348 0.12194 0.0
C653 C 0.58313 0.88418 0.09511 0.0
C654 C 0.59128 0.90069 0.14784 0.0
C655 C 0.58933 0.89659 0.22517 0.0
H656 H 0.72393 0.56069 0.60942 0.0
H657 H 0.68891 0.592 0.65676 0.0
H658 H 0.71941 0.56355 0.47514 0.0
H659 H 0.68509 0.59559 0.52261 0.0
H660 H 0.65816 0.573 0.28754 0.0
H661 H 0.66543 0.57286 0.42038 0.0
H662 H 0.72828 0.58672 0.36806 0.0
H663 H 0.72095 0.58685 0.2342 0.0
C664 C 0.71545 0.56838 0.59128 0.0
C665 C 0.70666 0.57594 0.64437 0.0
C666 C 0.71302 0.5702 0.51405 0.0
C667 C 0.70169 0.57962 0.48763 0.0
C668 C 0.69359 0.58791 0.54071 0.0
C669 C 0.69604 0.5861 0.61794 0.0
C670 C 0.67363 0.57626 0.304 0.0
C671 C 0.68898 0.58006 0.24958 0.0
C672 C 0.67783 0.57622 0.3806 0.0
C673 C 0.69753 0.57998 0.40547 0.0
C674 C 0.71287 0.58359 0.35114 0.0
C675 C 0.70866 0.58363 0.2742 0.0
H676 H 0.14317 0.69434 0.61932 0.0
H677 H 0.07721 0.66772 0.66714 0.0
H678 H 0.1509 0.6998 0.75286 0.0
H679 H 0.08486 0.67219 0.8008 0.0
H680 H 0.10724 0.6999 0.03475 0.0
H681 H 0.10011 0.69738 0.90003 0.0
H682 H 0.14723 0.6798 0.86293 0.0
H683 H 0.15446 0.68259 0.99685 0.0
C684 C 0.13029 0.6897 0.65798 0.0
C685 C 0.10952 0.68047 0.63179 0.0
C686 C 0.13471 0.69261 0.73496 0.0
C687 C 0.11851 0.6863 0.788 0.0
C688 C 0.09779 0.67742 0.76179 0.0
C689 C 0.09336 0.67458 0.68484 0.0
C690 C 0.11601 0.69544 0.99778 0.0
C691 C 0.13148 0.69154 0.02677 0.0
C692 C 0.11192 0.69397 0.92048 0.0
C693 C 0.12313 0.68844 0.87025 0.0
C694 C 0.13858 0.68453 0.89945 0.0
C695 C 0.14272 0.6861 0.97653 0.0
H696 H 0.41237 0.1111 0.36993 0.0
H697 H 0.47911 0.13925 0.33844 0.0
H698 H 0.40694 0.10434 0.23547 0.0
H699 H 0.47378 0.13209 0.20417 0.0
H700 H 0.45745 0.13711 0.95805 0.0
H701 H 0.46412 0.14283 0.09273 0.0
H702 H 0.40821 0.08345 0.13689 0.0
H703 H 0.40138 0.07818 1.0024 0.0
C704 C 0.42586 0.11562 0.33433 0.0
C705 C 0.44616 0.12579 0.36483 0.0
C706 C 0.42278 0.11169 0.25715 0.0
C707 C 0.43992 0.11764 0.20857 0.0
C708 C 0.46022 0.12762 0.23942 0.0
C709 C 0.4633 0.13171 0.31651 0.0
C710 C 0.4468 0.12518 0.99663 0.0
C711 C 0.42884 0.10725 0.9698 0.0
C712 C 0.45059 0.12843 0.07393 0.0
C713 C 0.4366 0.1137 0.12609 0.0
C714 C 0.41906 0.0954 0.09873 0.0
C715 C 0.41518 0.09229 0.02163 0.0
H716 H 0.33422 0.42436 0.69288 0.0
H717 H 0.29342 0.44934 0.64591 0.0
H718 H 0.33761 0.42025 0.55897 0.0
H719 H 0.29757 0.44609 0.51174 0.0
H720 H 0.29504 0.42019 0.27491 0.0
H721 H 0.28925 0.42165 0.40934 0.0
H722 H 0.35437 0.442 0.45201 0.0
H723 H 0.36007 0.44043 0.31842 0.0
C724 C 0.32583 0.42886 0.65426 0.0
C725 C 0.31358 0.43727 0.68075 0.0
C726 C 0.328 0.42675 0.57712 0.0
C727 C 0.31802 0.43301 0.52418 0.0
C728 C 0.30538 0.44096 0.55066 0.0
C729 C 0.3032 0.44306 0.62782 0.0
C730 C 0.30813 0.42508 0.31295 0.0
C731 C 0.328 0.43008 0.28555 0.0
C732 C 0.30482 0.42592 0.39014 0.0
C733 C 0.32131 0.43183 0.44189 0.0
C734 C 0.34118 0.43693 0.41426 0.0
C735 C 0.34446 0.43606 0.33732 0.0
H736 H 0.86795 0.31796 0.5632 0.0
H737 H 0.93186 0.33477 0.61083 0.0
H738 H 0.86079 0.31634 0.69773 0.0
H739 H 0.92497 0.3336 0.74507 0.0
H740 H 0.89941 0.3052 0.97504 0.0
H741 H 0.90655 0.30826 0.84056 0.0
H742 H 0.86768 0.33632 0.81108 0.0
H743 H 0.86034 0.33293 0.94523 0.0
C744 C 0.88057 0.32172 0.60245 0.0
C745 C 0.90044 0.3264 0.57654 0.0
C746 C 0.87649 0.32076 0.67962 0.0
C747 C 0.89225 0.32462 0.73253 0.0
C748 C 0.91231 0.33003 0.7062 0.0
C749 C 0.91632 0.33083 0.62926 0.0
C750 C 0.89249 0.31211 0.93987 0.0
C751 C 0.87926 0.31874 0.97094 0.0
C752 C 0.89662 0.31394 0.86271 0.0
C753 C 0.88774 0.32261 0.81472 0.0
C754 C 0.87453 0.32926 0.84596 0.0
C755 C 0.87031 0.32732 0.92302 0.0
H756 H 0.07384 0.48672 0.18709 0.0
H757 H 0.13673 0.5275 0.10465 0.0
H758 H 0.07168 0.51747 0.22494 0.0
H759 H 0.13378 0.55793 0.13831 0.0
H760 H 0.10884 0.60494 0.13597 0.0
H761 H 0.10881 0.57301 0.09694 0.0
H762 H 0.09386 0.54934 0.32346 0.0
H763 H 0.09433 0.58155 0.363 0.0
C764 C 0.08722 0.50211 0.17688 0.0
C765 C 0.10548 0.5044 0.14248 0.0
C766 C 0.08586 0.51971 0.19825 0.0
C767 C 0.10253 0.54002 0.18425 0.0
C768 C 0.1206 0.54242 0.1489 0.0
C769 C 0.12217 0.52488 0.12903 0.0
C770 C 0.10533 0.59281 0.1772 0.0
C771 C 0.10154 0.59566 0.25246 0.0
C772 C 0.10543 0.57464 0.15498 0.0
C773 C 0.10133 0.55876 0.20722 0.0
C774 C 0.09695 0.56131 0.28206 0.0
C775 C 0.0973 0.57972 0.30468 0.0
H776 H 0.5899 0.09269 0.41306 0.0
H777 H 0.61834 0.1289 0.61343 0.0
H778 H 0.5562 0.08864 0.45031 0.0
H779 H 0.58502 0.12571 0.64951 0.0
H780 H 0.51889 0.10139 0.73239 0.0
H781 H 0.55153 0.10289 0.69582 0.0
H782 H 0.53722 0.1061 0.46227 0.0
H783 H 0.50432 0.10372 0.49915 0.0
C784 C 0.58896 0.09999 0.46466 0.0
C785 C 0.60671 0.11103 0.51046 0.0
C786 C 0.56965 0.09774 0.48607 0.0
C787 C 0.56771 0.10678 0.55328 0.0
C788 C 0.58565 0.11808 0.59837 0.0
C789 C 0.60484 0.12005 0.57749 0.0
C790 C 0.52272 0.10226 0.67329 0.0
C791 C 0.50899 0.10228 0.61869 0.0
C792 C 0.54151 0.10328 0.65215 0.0
C793 C 0.54721 0.10471 0.57586 0.0
C794 C 0.53331 0.1046 0.52139 0.0
C795 C 0.51441 0.10328 0.54251 0.0
H796 H 0.5177 0.59447 0.89634 0.0
H797 H 0.48117 0.61428 0.76644 0.0
H798 H 0.48597 0.56142 0.92458 0.0
H799 H 0.44964 0.58094 0.7921 0.0
H800 H 0.39488 0.53128 0.92819 0.0
H801 H 0.42693 0.56351 0.89733 0.0
H802 H 0.45923 0.52858 0.86899 0.0
H803 H 0.42722 0.49629 0.90289 0.0
C804 C 0.50292 0.59175 0.87354 0.0
C805 C 0.50202 0.60712 0.82936 0.0
C806 C 0.48476 0.57269 0.88904 0.0
C807 C 0.46521 0.56852 0.86089 0.0
C808 C 0.46438 0.58373 0.81557 0.0
C809 C 0.48253 0.60277 0.80003 0.0
C810 C 0.40886 0.53045 0.91633 0.0
C811 C 0.40847 0.51116 0.91863 0.0
C812 C 0.4272 0.54894 0.89754 0.0
C813 C 0.44568 0.54868 0.88032 0.0
C814 C 0.44533 0.52939 0.88254 0.0
C815 C 0.42693 0.51085 0.90128 0.0
H816 H 0.9163 0.42479 0.32386 0.0
H817 H 0.89256 0.40023 0.10324 0.0
H818 H 0.9193 0.45825 0.28875 0.0
H819 H 0.89416 0.43298 0.06892 0.0
H820 H 0.91578 0.49971 1.00044 0.0
H821 H 0.91538 0.4675 0.0361 0.0
H822 H 0.9016 0.47599 0.26552 0.0
H823 H 0.90339 0.50874 0.22994 0.0
C824 C 0.91148 0.42655 0.26812 0.0
C825 C 0.90431 0.41006 0.21613 0.0
C826 C 0.91305 0.44567 0.24788 0.0
C827 C 0.90703 0.44857 0.17561 0.0
C828 C 0.89949 0.43175 0.12431 0.0
C829 C 0.89837 0.41284 0.14409 0.0
C830 C 0.91286 0.49467 0.05849 0.0
C831 C 0.90979 0.50674 0.11252 0.0
C832 C 0.91241 0.47609 0.07909 0.0
C833 C 0.90836 0.46887 0.15397 0.0
C834 C 0.90523 0.48109 0.20775 0.0
C835 C 0.90613 0.49986 0.18738 0.0
H836 H 0.48049 0.87519 0.5655 0.0
H837 H 0.51639 0.92615 0.41123 0.0
H838 H 0.44957 0.87804 0.53954 0.0
H839 H 0.48508 0.92822 0.38316 0.0
H840 H 0.41663 0.90468 0.29362 0.0
H841 H 0.449 0.90421 0.32125 0.0
H842 H 0.4377 0.90508 0.55873 0.0
H843 H 0.40549 0.90563 0.53123 0.0
C844 C 0.48195 0.88714 0.52666 0.0
C845 C 0.50112 0.90045 0.49067 0.0
C846 C 0.46413 0.88867 0.5115 0.0
C847 C 0.46491 0.90332 0.4592 0.0
C848 C 0.48397 0.91661 0.42309 0.0
C849 C 0.50189 0.91532 0.43905 0.0
C850 C 0.42118 0.90491 0.35163 0.0
C851 C 0.40861 0.90532 0.41022 0.0
C852 C 0.43971 0.90474 0.36744 0.0
C853 C 0.44582 0.90456 0.44216 0.0
C854 C 0.43331 0.90508 0.50065 0.0
C855 C 0.41499 0.9056 0.48487 0.0
H856 H 0.58886 0.5015 0.96775 0.0
H857 H 0.61652 0.49309 0.76675 0.0
H858 H 0.5553 0.47093 0.93443 0.0
H859 H 0.58337 0.46209 0.73458 0.0
H860 H 0.51686 0.4179 0.65902 0.0
H861 H 0.54926 0.45001 0.69108 0.0
H862 H 0.53737 0.4343 0.92672 0.0
H863 H 0.50471 0.40279 0.89434 0.0
C864 C 0.58778 0.49295 0.91681 0.0
C865 C 0.60527 0.49972 0.86974 0.0
C866 C 0.56857 0.47536 0.89768 0.0
C867 C 0.56646 0.46392 0.83153 0.0
C868 C 0.58412 0.47068 0.78499 0.0
C869 C 0.60321 0.48841 0.80362 0.0
C870 C 0.52118 0.42146 0.7176 0.0
C871 C 0.50819 0.40792 0.77412 0.0
C872 C 0.53983 0.43979 0.73614 0.0
C873 C 0.54611 0.44485 0.81169 0.0
C874 C 0.53297 0.43126 0.86809 0.0
C875 C 0.51421 0.41312 0.84955 0.0
H876 H 0.25368 0.39938 0.92247 0.0
H877 H 0.26156 0.42599 0.14408 0.0
H878 H 0.21692 0.39097 0.92206 0.0
H879 H 0.225 0.4173 0.1446 0.0
H880 H 0.15736 0.39804 0.13607 0.0
H881 H 0.18593 0.38994 0.1361 0.0
H882 H 0.20532 0.4184 0.91729 0.0
H883 H 0.17723 0.42677 0.91823 0.0
C884 C 0.24728 0.40257 0.97228 0.0
C885 C 0.26036 0.41328 0.03336 0.0
C886 C 0.22633 0.39791 0.9719 0.0
C887 C 0.21807 0.40354 0.03322 0.0
C888 C 0.23075 0.41254 0.09686 0.0
C889 C 0.25172 0.41757 0.09654 0.0
C890 C 0.16728 0.40182 0.08698 0.0
C891 C 0.16515 0.41301 0.02713 0.0
C892 C 0.1837 0.39733 0.08714 0.0
C893 C 0.19792 0.40358 0.02674 0.0
C894 C 0.19454 0.41315 0.96425 0.0
C895 C 0.17849 0.41802 0.96486 0.0
H896 H 0.85207 0.25268 0.20812 0.0
H897 H 0.84503 0.2611 0.44387 0.0
H898 H 0.82304 0.21628 0.21615 0.0
H899 H 0.81645 0.22497 0.4524 0.0
H900 H 0.76602 0.15828 0.45855 0.0
H901 H 0.80262 0.18608 0.4405 0.0
H902 H 0.78498 0.20499 0.23645 0.0
H903 H 0.7487 0.17758 0.25519 0.0
C904 C 0.84489 0.24649 0.26216 0.0
C905 C 0.85073 0.25966 0.32536 0.0
C906 C 0.82819 0.22573 0.26673 0.0
C907 C 0.81734 0.21773 0.33489 0.0
C908 C 0.82453 0.23047 0.39928 0.0
C909 C 0.84087 0.25123 0.39435 0.0
C910 C 0.7702 0.16792 0.40855 0.0
C911 C 0.7546 0.16587 0.35832 0.0
C912 C 0.79109 0.18392 0.39843 0.0
C913 C 0.79672 0.19784 0.33718 0.0
C914 C 0.78131 0.19447 0.28373 0.0
C915 C 0.76048 0.17882 0.29462 0.0
H916 H 0.61209 0.86249 0.71094 0.0
H917 H 0.58735 0.82904 0.50318 0.0
H918 H 0.62108 0.83601 0.75069 0.0
H919 H 0.59621 0.80269 0.54193 0.0
H920 H 0.5885 0.76447 0.8269 0.0
H921 H 0.59669 0.79951 0.78831 0.0
H922 H 0.62131 0.79148 0.57854 0.0
H923 H 0.61298 0.75619 0.61807 0.0
C924 C 0.60947 0.84998 0.6725 0.0
C925 C 0.59933 0.84788 0.60365 0.0
C926 C 0.61437 0.83469 0.69544 0.0
C927 C 0.60928 0.81712 0.6497 0.0
C928 C 0.60065 0.81609 0.57825 0.0
C929 C 0.59555 0.83118 0.5559 0.0
C930 C 0.59654 0.77061 0.77402 0.0
C931 C 0.60041 0.75784 0.72589 0.0
C932 C 0.60125 0.79071 0.75174 0.0
C933 C 0.60956 0.79834 0.68002 0.0
C934 C 0.61482 0.78605 0.63398 0.0
C935 C 0.6103 0.76596 0.65681 0.0
H936 H 0.85358 0.60662 0.14159 0.0
H937 H 0.84406 0.59121 0.90578 0.0
H938 H 0.82386 0.61298 0.14015 0.0
H939 H 0.81479 0.59777 0.90383 0.0
H940 H 0.76398 0.61345 0.90909 0.0
H941 H 0.80083 0.62262 0.9213 0.0
H942 H 0.78563 0.58561 0.12377 0.0
H943 H 0.74908 0.57636 0.11084 0.0
C944 C 0.84563 0.60535 0.08901 0.0
C945 C 0.85101 0.59834 0.02389 0.0
C946 C 0.82856 0.60885 0.08819 0.0
C947 C 0.81689 0.6058 0.02189 0.0
C948 C 0.82351 0.60049 0.95561 0.0
C949 C 0.84022 0.59661 0.9568 0.0
C950 C 0.76875 0.60795 0.95751 0.0
C951 C 0.75375 0.59416 1.0089 0.0
C952 C 0.78977 0.61305 0.96428 0.0
C953 C 0.79615 0.60475 0.02334 0.0
C954 C 0.78136 0.59245 0.0781 0.0
C955 C 0.76038 0.58706 0.07051 0.0
H956 H 0.25321 0.84838 0.47644 0.0
H957 H 0.25402 0.83363 0.24238 0.0
H958 H 0.21742 0.81842 0.48747 0.0
H959 H 0.21847 0.80408 0.25285 0.0
H960 H 0.15202 0.75354 0.28112 0.0
H961 H 0.18016 0.79043 0.27976 0.0
H962 H 0.20629 0.77995 0.48105 0.0
H963 H 0.17852 0.74334 0.48167 0.0
C964 C 0.24548 0.83919 0.42688 0.0
C965 C 0.2564 0.84323 0.35868 0.0
C966 C 0.22507 0.82197 0.43322 0.0
C967 C 0.21511 0.80879 0.37107 0.0
C968 C 0.22553 0.81397 0.30161 0.0
C969 C 0.24597 0.83086 0.2957 0.0
C970 C 0.16341 0.75936 0.32628 0.0
C971 C 0.16318 0.7456 0.38128 0.0
C972 C 0.17958 0.78042 0.3253 0.0
C973 C 0.19554 0.78812 0.38013 0.0
C974 C 0.1942 0.77465 0.43843 0.0
C975 C 0.17833 0.75362 0.43857 0.0
H976 H 0.4291 0.25774 0.5819 0.0
H977 H 0.40435 0.25056 0.80627 0.0
H978 H 0.42224 0.22181 0.58402 0.0
H979 H 0.39743 0.21426 0.80872 0.0
H980 H 0.43051 0.17308 0.81662 0.0
H981 H 0.42311 0.20176 0.8147 0.0
H982 H 0.39714 0.18347 0.59167 0.0
H983 H 0.4046 0.15448 0.59388 0.0
C984 C 0.42168 0.24825 0.63111 0.0
C985 C 0.41743 0.257 0.69419 0.0
C986 C 0.41759 0.22756 0.63211 0.0
C987 C 0.40941 0.21515 0.69669 0.0
C988 C 0.40389 0.22347 0.75825 0.0
C989 C 0.40771 0.24419 0.75677 0.0
C990 C 0.42276 0.17485 0.7678 0.0
C991 C 0.41832 0.16166 0.70509 0.0
C992 C 0.41835 0.19123 0.76695 0.0
C993 C 0.40964 0.19504 0.70289 0.0
C994 C 0.40399 0.18103 0.64173 0.0
C995 C 0.40814 0.16437 0.64307 0.0
loop_
_geom_bond_atom_site_label_1
_geom_bond_atom_site_label_2
_geom_bond_distance
_geom_bond_site_symmetry_2
_ccdc_geom_bond_type
C0 C1 1.351 . S
C0 N3 1.368 . S
C0 H5 0.931 . S
C1 C0 1.351 . S
C1 N2 1.373 . S
C1 H29 0.930 . S
N2 C1 1.373 . S
N2 C4 1.340 . S
N3 C0 1.368 . S
N3 C4 1.321 . S
N3 Co6 2.135 . S
C4 N2 1.340 . S
C4 N3 1.321 . S
C4 H28 0.930 . S
H5 C0 0.931 . S
Co6 N3 2.135 . S
Co6 N9 2.121 . S
Co6 O14 2.055 . S
Co6 O17 2.039 . S
Co6 N20 2.140 . S
C7 O8 1.227 . S
C7 O17 1.265 . S
O8 C7 1.227 . S
N9 Co6 2.121 . S
N9 C11 1.375 1_554 S
N9 C12 1.313 1_554 S
C10 C11 1.338 . S
C10 N13 1.377 . S
C10 H30 0.930 . S
C11 N9 1.375 1_556 S
C11 C10 1.338 . S
C11 H15 0.931 1_556 S
C12 N9 1.313 1_556 S
C12 N13 1.344 . S
C12 H16 0.930 . S
N13 C10 1.377 . S
N13 C12 1.344 . S
O14 Co6 2.055 . S
O14 C18 1.253 . S
H15 C11 0.931 1_554 S
H16 C12 0.930 . S
O17 Co6 2.039 . S
O17 C7 1.265 . S
C18 O14 1.253 . S
C18 O19 1.227 . S
O19 C18 1.227 . S
N20 Co6 2.140 . S
N20 C23 1.346 . S
N20 C24 1.345 . S
C21 C22 1.387 . S
C21 C25 1.391 . S
C22 C21 1.387 . S
C22 C23 1.369 . S
C22 H31 0.929 . S
C23 N20 1.346 . S
C23 C22 1.369 . S
C23 H26 0.928 . S
C24 N20 1.345 . S
C24 C25 1.371 . S
C24 H27 0.931 . S
C25 C21 1.391 . S
C25 C24 1.371 . S
C25 H32 0.930 . S
H26 C23 0.928 . S
H27 C24 0.931 . S
H28 C4 0.930 . S
H29 C1 0.930 . S
H30 C10 0.930 . S
H31 C22 0.929 . S
H32 C25 0.930 . S
C33 C34 1.351 . S
C33 N36 1.368 . S
C33 H38 0.931 . S
C34 C33 1.351 . S
C34 N35 1.373 . S
C34 H62 0.930 . S
N35 C34 1.373 . S
N35 C37 1.340 . S
N36 C33 1.368 . S
N36 C37 1.321 . S
N36 Co39 2.135 . S
C37 N35 1.340 . S
C37 N36 1.321 . S
C37 H61 0.930 . S
H38 C33 0.931 . S
Co39 N36 2.135 . S
Co39 N42 2.121 . S
Co39 O47 2.055 . S
Co39 O50 2.039 . S
Co39 N53 2.140 . S
C40 O41 1.227 . S
C40 O50 1.265 . S
O41 C40 1.227 . S
N42 Co39 2.121 . S
N42 C44 1.375 . S
N42 C45 1.313 . S
C43 C44 1.338 . S
C43 N46 1.377 . S
C43 H63 0.930 . S
C44 N42 1.375 . S
C44 C43 1.338 . S
C44 H48 0.931 . S
C45 N42 1.313 . S
C45 N46 1.344 . S
C45 H49 0.930 . S
N46 C43 1.377 . S
N46 C45 1.344 . S
O47 Co39 2.055 . S
O47 C51 1.253 . S
H48 C44 0.931 . S
H49 C45 0.930 . S
O50 Co39 2.039 . S
O50 C40 1.265 . S
C51 O47 1.253 . S
C51 O52 1.227 . S
O52 C51 1.227 . S
N53 Co39 2.140 . S
N53 C56 1.346 . S
N53 C57 1.345 . S
C54 C55 1.387 . S
C54 C58 1.391 . S
C55 C54 1.387 . S
C55 C56 1.369 . S
C55 H64 0.929 . S
C56 N53 1.346 . S
C56 C55 1.369 . S
C56 H59 0.928 . S
C57 N53 1.345 . S
C57 C58 1.371 . S
C57 H60 0.931 . S
C58 C54 1.391 . S
C58 C57 1.371 . S
C58 H65 0.930 . S
H59 C56 0.928 . S
H60 C57 0.931 . S
H61 C37 0.930 . S
H62 C34 0.930 . S
H63 C43 0.930 . S
H64 C55 0.929 . S
H65 C58 0.930 . S
C66 C67 1.351 . S
C66 N69 1.368 . S
C66 H71 0.931 . S
C67 C66 1.351 . S
C67 N68 1.373 1_556 S
C67 H95 0.930 1_556 S
N68 C67 1.373 1_554 S
N68 C70 1.340 1_554 S
N69 C66 1.368 . S
N69 C70 1.321 . S
N69 Co72 2.135 . S
C70 N68 1.340 1_556 S
C70 N69 1.321 . S
C70 H94 0.930 . S
H71 C66 0.931 . S
Co72 N69 2.135 . S
Co72 N75 2.121 . S
Co72 O80 2.055 . S
Co72 O83 2.039 . S
Co72 N86 2.140 . S
C73 O74 1.227 . S
C73 O83 1.265 . S
O74 C73 1.227 . S
N75 Co72 2.121 . S
N75 C77 1.375 . S
N75 C78 1.313 . S
C76 C77 1.338 . S
C76 N79 1.377 . S
C76 H96 0.930 . S
C77 N75 1.375 . S
C77 C76 1.338 . S
C77 H81 0.931 . S
C78 N75 1.313 . S
C78 N79 1.344 . S
C78 H82 0.930 . S
N79 C76 1.377 . S
N79 C78 1.344 . S
O80 Co72 2.055 . S
O80 C84 1.253 . S
H81 C77 0.931 . S
H82 C78 0.930 . S
O83 Co72 2.039 . S
O83 C73 1.265 . S
C84 O80 1.253 . S
C84 O85 1.227 . S
O85 C84 1.227 . S
N86 Co72 2.140 . S
N86 C89 1.346 . S
N86 C90 1.345 . S
C87 C88 1.387 . S
C87 C91 1.391 . S
C88 C87 1.387 . S
C88 C89 1.369 . S
C88 H97 0.929 . S
C89 N86 1.346 . S
C89 C88 1.369 . S
C89 H92 0.928 . S
C90 N86 1.345 . S
C90 C91 1.371 . S
C90 H93 0.931 . S
C91 C87 1.391 . S
C91 C90 1.371 . S
C91 H98 0.930 . S
H92 C89 0.928 . S
H93 C90 0.931 . S
H94 C70 0.930 . S
H95 C67 0.930 1_554 S
H96 C76 0.930 . S
H97 C88 0.929 . S
H98 C91 0.930 . S
C99 C100 1.351 . S
C99 N102 1.368 . S
C99 H104 0.931 . S
C100 C99 1.351 . S
C100 N101 1.373 . S
C100 H128 0.930 . S
N101 C100 1.373 . S
N101 C103 1.340 . S
N102 C99 1.368 . S
N102 C103 1.321 . S
N102 Co105 2.135 . S
C103 N101 1.340 . S
C103 N102 1.321 . S
C103 H127 0.930 . S
H104 C99 0.931 . S
Co105 N102 2.135 . S
Co105 N108 2.121 . S
Co105 O113 2.055 . S
Co105 O116 2.039 . S
Co105 N119 2.140 . S
C106 O107 1.227 . S
C106 O116 1.265 . S
O107 C106 1.227 . S
N108 Co105 2.121 . S
N108 C110 1.375 1_554 S
N108 C111 1.313 1_554 S
C109 C110 1.338 . S
C109 N112 1.377 . S
C109 H129 0.930 . S
C110 N108 1.375 1_556 S
C110 C109 1.338 . S
C110 H114 0.931 1_556 S
C111 N108 1.313 1_556 S
C111 N112 1.344 . S
C111 H115 0.930 . S
N112 C109 1.377 . S
N112 C111 1.344 . S
O113 Co105 2.055 . S
O113 C117 1.253 . S
H114 C110 0.931 1_554 S
H115 C111 0.930 . S
O116 Co105 2.039 . S
O116 C106 1.265 . S
C117 O113 1.253 . S
C117 O118 1.227 . S
O118 C117 1.227 . S
N119 Co105 2.140 . S
N119 C122 1.346 . S
N119 C123 1.345 . S
C120 C121 1.387 . S
C120 C124 1.391 . S
C121 C120 1.387 . S
C121 C122 1.369 . S
C121 H130 0.929 . S
C122 N119 1.346 . S
C122 C121 1.369 . S
C122 H125 0.928 . S
C123 N119 1.345 . S
C123 C124 1.371 . S
C123 H126 0.931 . S
C124 C120 1.391 . S
C124 C123 1.371 . S
C124 H131 0.930 . S
H125 C122 0.928 . S
H126 C123 0.931 . S
H127 C103 0.930 . S
H128 C100 0.930 . S
H129 C109 0.930 . S
H130 C121 0.929 . S
H131 C124 0.930 . S
C132 C133 1.351 . S
C132 N135 1.368 . S
C132 H137 0.931 . S
C133 C132 1.351 . S
C133 N134 1.373 . S
C133 H161 0.930 . S
N134 C133 1.373 . S
N134 C136 1.340 . S
N135 C132 1.368 . S
N135 C136 1.321 . S
N135 Co138 2.135 . S
C136 N134 1.340 . S
C136 N135 1.321 . S
C136 H160 0.930 . S
H137 C132 0.931 . S
Co138 N135 2.135 . S
Co138 N141 2.121 . S
Co138 O146 2.055 . S
Co138 O149 2.039 . S
Co138 N152 2.140 . S
C139 O140 1.227 . S
C139 O149 1.265 . S
O140 C139 1.227 . S
N141 Co138 2.121 . S
N141 C143 1.375 . S
N141 C144 1.313 . S
C142 C143 1.338 . S
C142 N145 1.377 . S
C142 H162 0.930 . S
C143 N141 1.375 . S
C143 C142 1.338 . S
C143 H147 0.931 . S
C144 N141 1.313 . S
C144 N145 1.344 . S
C144 H148 0.930 . S
N145 C142 1.377 . S
N145 C144 1.344 . S
O146 Co138 2.055 . S
O146 C150 1.253 . S
H147 C143 0.931 . S
H148 C144 0.930 . S
O149 Co138 2.039 . S
O149 C139 1.265 . S
C150 O146 1.253 . S
C150 O151 1.227 . S
O151 C150 1.227 . S
N152 Co138 2.140 . S
N152 C155 1.346 . S
N152 C156 1.345 . S
C153 C154 1.387 . S
C153 C157 1.391 . S
C154 C153 1.387 . S
C154 C155 1.369 . S
C154 H163 0.929 . S
C155 N152 1.346 . S
C155 C154 1.369 . S
C155 H158 0.928 . S
C156 N152 1.345 . S
C156 C157 1.371 . S
C156 H159 0.931 . S
C157 C153 1.391 . S
C157 C156 1.371 . S
C157 H164 0.930 . S
H158 C155 0.928 . S
H159 C156 0.931 . S
H160 C136 0.930 . S
H161 C133 0.930 . S
H162 C142 0.930 . S
H163 C154 0.929 . S
H164 C157 0.930 . S
C165 C166 1.351 . S
C165 N168 1.368 . S
C165 H170 0.931 . S
C166 C165 1.351 . S
C166 N167 1.373 1_556 S
C166 H194 0.930 1_556 S
N167 C166 1.373 1_554 S
N167 C169 1.340 1_554 S
N168 C165 1.368 . S
N168 C169 1.321 . S
N168 Co171 2.135 . S
C169 N167 1.340 1_556 S
C169 N168 1.321 . S
C169 H193 0.930 . S
H170 C165 0.931 . S
Co171 N168 2.135 . S
Co171 N174 2.121 . S
Co171 O179 2.055 . S
Co171 O182 2.039 . S
Co171 N185 2.140 . S
C172 O173 1.227 . S
C172 O182 1.265 . S
O173 C172 1.227 . S
N174 Co171 2.121 . S
N174 C176 1.375 . S
N174 C177 1.313 . S
C175 C176 1.338 . S
C175 N178 1.377 . S
C175 H195 0.930 . S
C176 N174 1.375 . S
C176 C175 1.338 . S
C176 H180 0.931 . S
C177 N174 1.313 . S
C177 N178 1.344 . S
C177 H181 0.930 . S
N178 C175 1.377 . S
N178 C177 1.344 . S
O179 Co171 2.055 . S
O179 C183 1.253 . S
H180 C176 0.931 . S
H181 C177 0.930 . S
O182 Co171 2.039 . S
O182 C172 1.265 . S
C183 O179 1.253 . S
C183 O184 1.227 . S
O184 C183 1.227 . S
N185 Co171 2.140 . S
N185 C188 1.346 . S
N185 C189 1.345 . S
C186 C187 1.387 . S
C186 C190 1.391 . S
C187 C186 1.387 . S
C187 C188 1.369 . S
C187 H196 0.929 . S
C188 N185 1.346 . S
C188 C187 1.369 . S
C188 H191 0.928 . S
C189 N185 1.345 . S
C189 C190 1.371 . S
C189 H192 0.931 . S
C190 C186 1.391 . S
C190 C189 1.371 . S
C190 H197 0.930 . S
H191 C188 0.928 . S
H192 C189 0.931 . S
H193 C169 0.930 . S
H194 C166 0.930 1_554 S
H195 C175 0.930 . S
H196 C187 0.929 . S
H197 C190 0.930 . S
C198 C199 1.351 . S
C198 N201 1.368 . S
C198 H203 0.931 . S
C199 C198 1.351 . S
C199 N200 1.373 . S
C199 H227 0.930 . S
N200 C199 1.373 . S
N200 C202 1.340 . S
N201 C198 1.368 . S
N201 C202 1.321 . S
N201 Co204 2.135 . S
C202 N200 1.340 . S
C202 N201 1.321 . S
C202 H226 0.930 . S
H203 C198 0.931 . S
Co204 N201 2.135 . S
Co204 N207 2.121 . S
Co204 O212 2.055 . S
Co204 O215 2.039 . S
Co204 N218 2.140 . S
C205 O206 1.227 . S
C205 O215 1.265 . S
O206 C205 1.227 . S
N207 Co204 2.121 . S
N207 C209 1.375 . S
N207 C210 1.313 . S
C208 C209 1.338 . S
C208 N211 1.377 . S
C208 H228 0.930 . S
C209 N207 1.375 . S
C209 C208 1.338 . S
C209 H213 0.931 . S
C210 N207 1.313 . S
C210 N211 1.344 . S
C210 H214 0.930 . S
N211 C208 1.377 . S
N211 C210 1.344 . S
O212 Co204 2.055 . S
O212 C216 1.253 . S
H213 C209 0.931 . S
H214 C210 0.930 . S
O215 Co204 2.039 . S
O215 C205 1.265 . S
C216 O212 1.253 . S
C216 O217 1.227 . S
O217 C216 1.227 . S
N218 Co204 2.140 . S
N218 C221 1.346 . S
N218 C222 1.345 . S
C219 C220 1.387 . S
C219 C223 1.391 . S
C220 C219 1.387 . S
C220 C221 1.369 . S
C220 H229 0.929 . S
C221 N218 1.346 . S
C221 C220 1.369 . S
C221 H224 0.928 . S
C222 N218 1.345 . S
C222 C223 1.371 . S
C222 H225 0.931 . S
C223 C219 1.391 . S
C223 C222 1.371 . S
C223 H230 0.930 . S
H224 C221 0.928 . S
H225 C222 0.931 . S
H226 C202 0.930 . S
H227 C199 0.930 . S
H228 C208 0.930 . S
H229 C220 0.929 . S
H230 C223 0.930 . S
C231 C232 1.351 . S
C231 N234 1.368 . S
C231 H236 0.931 . S
C232 C231 1.351 . S
C232 N233 1.373 . S
C232 H260 0.930 . S
N233 C232 1.373 . S
N233 C235 1.340 . S
N234 C231 1.368 . S
N234 C235 1.321 . S
N234 Co237 2.135 . S
C235 N233 1.340 . S
C235 N234 1.321 . S
C235 H259 0.930 . S
H236 C231 0.931 . S
Co237 N234 2.135 . S
Co237 N240 2.121 . S
Co237 O245 2.055 . S
Co237 O248 2.039 . S
Co237 N251 2.140 . S
C238 O239 1.227 . S
C238 O248 1.265 . S
O239 C238 1.227 . S
N240 Co237 2.121 . S
N240 C242 1.375 1_556 S
N240 C243 1.313 1_556 S
C241 C242 1.338 . S
C241 N244 1.377 . S
C241 H261 0.930 . S
C242 N240 1.375 1_554 S
C242 C241 1.338 . S
C242 H246 0.931 1_554 S
C243 N240 1.313 1_554 S
C243 N244 1.344 . S
C243 H247 0.930 . S
N244 C241 1.377 . S
N244 C243 1.344 . S
O245 Co237 2.055 . S
O245 C249 1.253 . S
H246 C242 0.931 1_556 S
H247 C243 0.930 . S
O248 Co237 2.039 . S
O248 C238 1.265 . S
C249 O245 1.253 . S
C249 O250 1.227 . S
O250 C249 1.227 . S
N251 Co237 2.140 . S
N251 C254 1.346 . S
N251 C255 1.345 . S
C252 C253 1.387 . S
C252 C256 1.391 . S
C253 C252 1.387 . S
C253 C254 1.369 . S
C253 H262 0.929 . S
C254 N251 1.346 . S
C254 C253 1.369 . S
C254 H257 0.928 . S
C255 N251 1.345 . S
C255 C256 1.371 . S
C255 H258 0.931 . S
C256 C252 1.391 . S
C256 C255 1.371 . S
C256 H263 0.930 . S
H257 C254 0.928 . S
H258 C255 0.931 . S
H259 C235 0.930 . S
H260 C232 0.930 . S
H261 C241 0.930 . S
H262 C253 0.929 . S
H263 C256 0.930 . S
C264 C265 1.351 . S
C264 N267 1.368 . S
C264 H269 0.931 . S
C265 C264 1.351 . S
C265 N266 1.373 1_554 S
C265 H293 0.929 1_554 S
N266 C265 1.373 1_556 S
N266 C268 1.340 1_556 S
N267 C264 1.368 . S
N267 C268 1.321 . S
N267 Co270 2.135 . S
C268 N266 1.340 1_554 S
C268 N267 1.321 . S
C268 H292 0.930 . S
H269 C264 0.931 . S
Co270 N267 2.135 . S
Co270 N273 2.121 . S
Co270 O278 2.055 . S
Co270 O281 2.039 . S
Co270 N284 2.140 . S
C271 O272 1.227 . S
C271 O281 1.265 . S
O272 C271 1.227 . S
N273 Co270 2.121 . S
N273 C275 1.375 . S
N273 C276 1.313 . S
C274 C275 1.338 . S
C274 N277 1.377 . S
C274 H294 0.930 . S
C275 N273 1.375 . S
C275 C274 1.338 . S
C275 H279 0.931 . S
C276 N273 1.313 . S
C276 N277 1.344 . S
C276 H280 0.930 . S
N277 C274 1.377 . S
N277 C276 1.344 . S
O278 Co270 2.055 . S
O278 C282 1.253 . S
H279 C275 0.931 . S
H280 C276 0.930 . S
O281 Co270 2.039 . S
O281 C271 1.265 . S
C282 O278 1.253 . S
C282 O283 1.227 . S
O283 C282 1.227 . S
N284 Co270 2.140 . S
N284 C287 1.346 . S
N284 C288 1.345 . S
C285 C286 1.387 . S
C285 C289 1.391 . S
C286 C285 1.387 . S
C286 C287 1.369 . S
C286 H295 0.929 . S
C287 N284 1.346 . S
C287 C286 1.369 . S
C287 H290 0.928 . S
C288 N284 1.345 . S
C288 C289 1.371 . S
C288 H291 0.931 . S
C289 C285 1.391 . S
C289 C288 1.371 . S
C289 H296 0.930 . S
H290 C287 0.928 . S
H291 C288 0.931 . S
H292 C268 0.930 . S
H293 C265 0.929 1_556 S
H294 C274 0.930 . S
H295 C286 0.929 . S
H296 C289 0.930 . S
C297 C298 1.351 . S
C297 N300 1.368 . S
C297 H302 0.931 . S
C298 C297 1.351 . S
C298 N299 1.373 . S
C298 H326 0.930 . S
N299 C298 1.373 . S
N299 C301 1.340 . S
N300 C297 1.368 . S
N300 C301 1.321 . S
N300 Co303 2.135 . S
C301 N299 1.340 . S
C301 N300 1.321 . S
C301 H325 0.930 . S
H302 C297 0.931 . S
Co303 N300 2.135 . S
Co303 N306 2.121 . S
Co303 O311 2.055 . S
Co303 O314 2.039 . S
Co303 N317 2.140 . S
C304 O305 1.227 . S
C304 O314 1.265 . S
O305 C304 1.227 . S
N306 Co303 2.121 . S
N306 C308 1.375 . S
N306 C309 1.313 . S
C307 C308 1.338 . S
C307 N310 1.377 . S
C307 H327 0.930 . S
C308 N306 1.375 . S
C308 C307 1.338 . S
C308 H312 0.931 . S
C309 N306 1.313 . S
C309 N310 1.344 . S
C309 H313 0.930 . S
N310 C307 1.377 . S
N310 C309 1.344 . S
O311 Co303 2.055 . S
O311 C315 1.253 . S
H312 C308 0.931 . S
H313 C309 0.930 . S
O314 Co303 2.039 . S
O314 C304 1.265 . S
C315 O311 1.253 . S
C315 O316 1.227 . S
O316 C315 1.227 . S
N317 Co303 2.140 . S
N317 C320 1.346 . S
N317 C321 1.345 . S
C318 C319 1.387 . S
C318 C322 1.391 . S
C319 C318 1.387 . S
C319 C320 1.369 . S
C319 H328 0.929 . S
C320 N317 1.346 . S
C320 C319 1.369 . S
C320 H323 0.928 . S
C321 N317 1.345 . S
C321 C322 1.371 . S
C321 H324 0.931 . S
C322 C318 1.391 . S
C322 C321 1.371 . S
C322 H329 0.930 . S
H323 C320 0.928 . S
H324 C321 0.931 . S
H325 C301 0.930 . S
H326 C298 0.930 . S
H327 C307 0.930 . S
H328 C319 0.929 . S
H329 C322 0.930 . S
C330 C331 1.351 . S
C330 N333 1.368 . S
C330 H335 0.931 . S
C331 C330 1.351 . S
C331 N332 1.373 . S
C331 H359 0.930 . S
N332 C331 1.373 . S
N332 C334 1.340 . S
N333 C330 1.368 . S
N333 C334 1.321 . S
N333 Co336 2.135 . S
C334 N332 1.340 . S
C334 N333 1.321 . S
C334 H358 0.930 . S
H335 C330 0.931 . S
Co336 N333 2.135 . S
Co336 N339 2.121 . S
Co336 O344 2.055 . S
Co336 O347 2.039 . S
Co336 N350 2.140 . S
C337 O338 1.227 . S
C337 O347 1.265 . S
O338 C337 1.227 . S
N339 Co336 2.121 . S
N339 C341 1.375 1_556 S
N339 C342 1.313 1_556 S
C340 C341 1.338 . S
C340 N343 1.377 . S
C340 H360 0.930 . S
C341 N339 1.375 1_554 S
C341 C340 1.338 . S
C341 H345 0.931 1_554 S
C342 N339 1.313 1_554 S
C342 N343 1.344 . S
C342 H346 0.930 . S
N343 C340 1.377 . S
N343 C342 1.344 . S
O344 Co336 2.055 . S
O344 C348 1.253 . S
H345 C341 0.931 1_556 S
H346 C342 0.930 . S
O347 Co336 2.039 . S
O347 C337 1.265 . S
C348 O344 1.253 . S
C348 O349 1.227 . S
O349 C348 1.227 . S
N350 Co336 2.140 . S
N350 C353 1.346 . S
N350 C354 1.345 . S
C351 C352 1.387 . S
C351 C355 1.391 . S
C352 C351 1.387 . S
C352 C353 1.369 . S
C352 H361 0.929 . S
C353 N350 1.346 . S
C353 C352 1.369 . S
C353 H356 0.928 . S
C354 N350 1.345 . S
C354 C355 1.371 . S
C354 H357 0.931 . S
C355 C351 1.391 . S
C355 C354 1.371 . S
C355 H362 0.930 . S
H356 C353 0.928 . S
H357 C354 0.931 . S
H358 C334 0.930 . S
H359 C331 0.930 . S
H360 C340 0.930 . S
H361 C352 0.929 . S
H362 C355 0.930 . S
C363 C364 1.351 . S
C363 N366 1.368 . S
C363 H368 0.931 . S
C364 C363 1.351 . S
C364 N365 1.373 1_554 S
C364 H392 0.930 1_554 S
N365 C364 1.373 1_556 S
N365 C367 1.340 1_556 S
N366 C363 1.368 . S
N366 C367 1.321 . S
N366 Co369 2.135 . S
C367 N365 1.340 1_554 S
C367 N366 1.321 . S
C367 H391 0.930 . S
H368 C363 0.931 . S
Co369 N366 2.135 . S
Co369 N372 2.121 . S
Co369 O377 2.055 . S
Co369 O380 2.039 . S
Co369 N383 2.140 . S
C370 O371 1.227 . S
C370 O380 1.265 . S
O371 C370 1.227 . S
N372 Co369 2.121 . S
N372 C374 1.375 . S
N372 C375 1.313 . S
C373 C374 1.338 . S
C373 N376 1.377 . S
C373 H393 0.930 . S
C374 N372 1.375 . S
C374 C373 1.338 . S
C374 H378 0.931 . S
C375 N372 1.313 . S
C375 N376 1.344 . S
C375 H379 0.930 . S
N376 C373 1.377 . S
N376 C375 1.344 . S
O377 Co369 2.055 . S
O377 C381 1.253 . S
H378 C374 0.931 . S
H379 C375 0.930 . S
O380 Co369 2.039 . S
O380 C370 1.265 . S
C381 O377 1.253 . S
C381 O382 1.227 . S
O382 C381 1.227 . S
N383 Co369 2.140 . S
N383 C386 1.346 . S
N383 C387 1.345 . S
C384 C385 1.387 . S
C384 C388 1.391 . S
C385 C384 1.387 . S
C385 C386 1.369 . S
C385 H394 0.929 . S
C386 N383 1.346 . S
C386 C385 1.369 . S
C386 H389 0.928 . S
C387 N383 1.345 . S
C387 C388 1.371 . S
C387 H390 0.931 . S
C388 C384 1.391 . S
C388 C387 1.371 . S
C388 H395 0.930 . S
H389 C386 0.928 . S
H390 C387 0.931 . S
H391 C367 0.930 . S
H392 C364 0.930 1_556 S
H393 C373 0.930 . S
H394 C385 0.929 . S
H395 C388 0.930 . S
H396 C404 0.950 . S
H397 C409 0.950 . S
H398 C406 0.950 . S
H399 C408 0.950 . S
H400 C410 0.950 . S
H401 C412 0.950 . S
H402 C414 0.950 . S
H403 C415 0.950 . S
C404 H396 0.950 . S
C404 C405 1.386 . S
C404 C406 1.391 . S
C405 C404 1.386 . S
C405 C409 1.393 . S
C406 H398 0.950 . S
C406 C404 1.391 . S
C406 C407 1.400 . S
C407 C406 1.400 . S
C407 C408 1.398 . S
C407 C413 1.491 1_455 S
C408 H399 0.950 . S
C408 C407 1.398 . S
C408 C409 1.391 . S
C409 H397 0.950 . S
C409 C405 1.393 . S
C409 C408 1.391 . S
C410 H400 0.950 . S
C410 C411 1.386 . S
C410 C412 1.391 . S
C411 C410 1.386 . S
C411 C415 1.393 . S
C412 H401 0.950 . S
C412 C410 1.391 . S
C412 C413 1.400 . S
C413 C407 1.491 1_655 S
C413 C412 1.400 . S
C413 C414 1.398 . S
C414 H402 0.950 . S
C414 C413 1.398 . S
C414 C415 1.391 . S
C415 H403 0.950 . S
C415 C411 1.393 . S
C415 C414 1.391 . S
H416 C424 0.950 . S
H417 C429 0.950 . S
H418 C426 0.950 . S
H419 C428 0.950 . S
H420 C430 0.950 . S
H421 C432 0.950 . S
H422 C434 0.950 . S
H423 C435 0.950 . S
C424 H416 0.950 . S
C424 C425 1.386 . S
C424 C426 1.391 . S
C425 C424 1.386 . S
C425 C429 1.393 . S
C426 H418 0.950 . S
C426 C424 1.391 . S
C426 C427 1.400 . S
C427 C426 1.400 . S
C427 C428 1.398 . S
C427 C433 1.491 1_545 S
C428 H419 0.950 . S
C428 C427 1.398 . S
C428 C429 1.391 . S
C429 H417 0.950 . S
C429 C425 1.393 . S
C429 C428 1.391 . S
C430 H420 0.950 . S
C430 C431 1.386 . S
C430 C432 1.391 . S
C431 C430 1.386 . S
C431 C435 1.393 . S
C432 H421 0.950 . S
C432 C430 1.391 . S
C432 C433 1.400 . S
C433 C427 1.491 1_565 S
C433 C432 1.400 . S
C433 C434 1.398 . S
C434 H422 0.950 . S
C434 C433 1.398 . S
C434 C435 1.391 . S
C435 H423 0.950 . S
C435 C431 1.393 . S
C435 C434 1.391 . S
H436 C444 0.950 . S
H437 C449 0.950 . S
H438 C446 0.950 . S
H439 C448 0.950 . S
H440 C450 0.950 . S
H441 C452 0.950 . S
H442 C454 0.950 . S
H443 C455 0.950 . S
C444 H436 0.950 . S
C444 C445 1.386 . S
C444 C446 1.391 . S
C445 C444 1.386 . S
C445 C449 1.393 . S
C446 H438 0.950 . S
C446 C444 1.391 . S
C446 C447 1.400 . S
C447 C446 1.400 . S
C447 C448 1.398 . S
C447 C453 1.491 . S
C448 H439 0.950 . S
C448 C447 1.398 . S
C448 C449 1.391 . S
C449 H437 0.950 . S
C449 C445 1.393 . S
C449 C448 1.391 . S
C450 H440 0.950 . S
C450 C451 1.386 . S
C450 C452 1.391 . S
C451 C450 1.386 . S
C451 C455 1.393 . S
C452 H441 0.950 . S
C452 C450 1.391 . S
C452 C453 1.400 . S
C453 C447 1.491 . S
C453 C452 1.400 . S
C453 C454 1.398 . S
C454 H442 0.950 . S
C454 C453 1.398 . S
C454 C455 1.391 . S
C455 H443 0.950 . S
C455 C451 1.393 . S
C455 C454 1.391 . S
H456 C464 0.950 . S
H457 C469 0.950 . S
H458 C466 0.950 . S
H459 C468 0.950 . S
H460 C470 0.950 . S
H461 C472 0.950 . S
H462 C474 0.950 . S
H463 C475 0.950 . S
C464 H456 0.950 . S
C464 C465 1.386 . S
C464 C466 1.391 . S
C465 C464 1.386 . S
C465 C469 1.393 . S
C466 H458 0.950 . S
C466 C464 1.391 . S
C466 C467 1.400 . S
C467 C466 1.400 . S
C467 C468 1.398 . S
C467 C473 1.491 1_455 S
C468 H459 0.950 . S
C468 C467 1.398 . S
C468 C469 1.391 . S
C469 H457 0.950 . S
C469 C465 1.393 . S
C469 C468 1.391 . S
C470 H460 0.950 . S
C470 C471 1.386 . S
C470 C472 1.391 . S
C471 C470 1.386 . S
C471 C475 1.393 . S
C472 H461 0.950 . S
C472 C470 1.391 . S
C472 C473 1.400 . S
C473 C467 1.491 1_655 S
C473 C472 1.400 . S
C473 C474 1.398 . S
C474 H462 0.950 . S
C474 C473 1.398 . S
C474 C475 1.391 . S
C475 H463 0.950 . S
C475 C471 1.393 . S
C475 C474 1.391 . S
H476 C484 0.950 . S
H477 C489 0.950 . S
H478 C486 0.950 . S
H479 C488 0.950 . S
H480 C490 0.950 . S
H481 C492 0.950 . S
H482 C494 0.950 . S
H483 C495 0.950 . S
C484 H476 0.950 . S
C484 C485 1.386 . S
C484 C486 1.391 . S
C485 C484 1.386 . S
C485 C489 1.393 . S
C486 H478 0.950 . S
C486 C484 1.391 . S
C486 C487 1.400 . S
C487 C486 1.400 . S
C487 C488 1.398 . S
C487 C493 1.491 1_545 S
C488 H479 0.950 . S
C488 C487 1.398 . S
C488 C489 1.391 . S
C489 H477 0.950 . S
C489 C485 1.393 . S
C489 C488 1.391 . S
C490 H480 0.950 . S
C490 C491 1.386 . S
C490 C492 1.391 . S
C491 C490 1.386 . S
C491 C495 1.393 . S
C492 H481 0.950 . S
C492 C490 1.391 . S
C492 C493 1.400 . S
C493 C487 1.491 1_565 S
C493 C492 1.400 . S
C493 C494 1.398 . S
C494 H482 0.950 . S
C494 C493 1.398 . S
C494 C495 1.391 . S
C495 H483 0.950 . S
C495 C491 1.393 . S
C495 C494 1.391 . S
H496 C504 0.950 . S
H497 C509 0.950 . S
H498 C506 0.950 . S
H499 C508 0.950 . S
H500 C510 0.950 . S
H501 C512 0.950 . S
H502 C514 0.950 . S
H503 C515 0.950 . S
C504 H496 0.950 . S
C504 C505 1.386 . S
C504 C506 1.391 . S
C505 C504 1.386 . S
C505 C509 1.393 . S
C506 H498 0.950 . S
C506 C504 1.391 . S
C506 C507 1.400 . S
C507 C506 1.400 . S
C507 C508 1.398 . S
C507 C513 1.491 . S
C508 H499 0.950 . S
C508 C507 1.398 . S
C508 C509 1.391 . S
C509 H497 0.950 . S
C509 C505 1.393 . S
C509 C508 1.391 . S
C510 H500 0.950 . S
C510 C511 1.386 . S
C510 C512 1.391 . S
C511 C510 1.386 . S
C511 C515 1.393 . S
C512 H501 0.950 . S
C512 C510 1.391 . S
C512 C513 1.400 . S
C513 C507 1.491 . S
C513 C512 1.400 . S
C513 C514 1.398 . S
C514 H502 0.950 . S
C514 C513 1.398 . S
C514 C515 1.391 . S
C515 H503 0.950 . S
C515 C511 1.393 . S
C515 C514 1.391 . S
H516 C524 0.950 . S
H517 C529 0.950 . S
H518 C526 0.950 . S
H519 C528 0.950 . S
H520 C530 0.950 . S
H521 C532 0.950 . S
H522 C534 0.950 . S
H523 C535 0.950 . S
C524 H516 0.950 . S
C524 C525 1.386 . S
C524 C526 1.391 . S
C525 C524 1.386 . S
C525 C529 1.393 . S
C526 H518 0.950 . S
C526 C524 1.391 . S
C526 C527 1.400 . S
C527 C526 1.400 . S
C527 C528 1.398 . S
C527 C533 1.491 . S
C528 H519 0.950 . S
C528 C527 1.398 . S
C528 C529 1.391 . S
C529 H517 0.950 . S
C529 C525 1.393 . S
C529 C528 1.391 . S
C530 H520 0.950 . S
C530 C531 1.386 . S
C530 C532 1.391 . S
C531 C530 1.386 . S
C531 C535 1.393 . S
C532 H521 0.950 . S
C532 C530 1.391 . S
C532 C533 1.400 . S
C533 C527 1.491 . S
C533 C532 1.400 . S
C533 C534 1.398 . S
C534 H522 0.950 . S
C534 C533 1.398 . S
C534 C535 1.391 . S
C535 H523 0.950 . S
C535 C531 1.393 . S
C535 C534 1.391 . S
H536 C544 0.950 . S
H537 C549 0.950 . S
H538 C546 0.950 . S
H539 C548 0.950 . S
H540 C550 0.950 . S
H541 C552 0.950 . S
H542 C554 0.950 . S
H543 C555 0.950 . S
C544 H536 0.950 . S
C544 C545 1.386 . S
C544 C546 1.391 . S
C545 C544 1.386 . S
C545 C549 1.393 . S
C546 H538 0.950 . S
C546 C544 1.391 . S
C546 C547 1.400 . S
C547 C546 1.400 . S
C547 C548 1.398 . S
C547 C553 1.491 . S
C548 H539 0.950 . S
C548 C547 1.398 . S
C548 C549 1.391 . S
C549 H537 0.950 . S
C549 C545 1.393 . S
C549 C548 1.391 . S
C550 H540 0.950 . S
C550 C551 1.386 . S
C550 C552 1.391 . S
C551 C550 1.386 . S
C551 C555 1.393 . S
C552 H541 0.950 . S
C552 C550 1.391 . S
C552 C553 1.400 1_554 S
C553 C547 1.491 . S
C553 C552 1.400 1_556 S
C553 C554 1.398 1_556 S
C554 H542 0.950 . S
C554 C553 1.398 1_554 S
C554 C555 1.391 . S
C555 H543 0.950 . S
C555 C551 1.393 . S
C555 C554 1.391 . S
H556 C564 0.950 . S
H557 C569 0.950 . S
H558 C566 0.950 . S
H559 C568 0.950 . S
H560 C570 0.950 . S
H561 C572 0.950 . S
H562 C574 0.950 . S
H563 C575 0.950 . S
C564 H556 0.950 . S
C564 C565 1.386 . S
C564 C566 1.391 . S
C565 C564 1.386 . S
C565 C569 1.393 . S
C566 H558 0.950 . S
C566 C564 1.391 . S
C566 C567 1.400 . S
C567 C566 1.400 . S
C567 C568 1.398 . S
C567 C573 1.491 . S
C568 H559 0.950 . S
C568 C567 1.398 . S
C568 C569 1.391 . S
C569 H557 0.950 . S
C569 C565 1.393 . S
C569 C568 1.391 . S
C570 H560 0.950 . S
C570 C571 1.386 . S
C570 C572 1.391 . S
C571 C570 1.386 . S
C571 C575 1.393 . S
C572 H561 0.950 . S
C572 C570 1.391 . S
C572 C573 1.400 . S
C573 C567 1.491 . S
C573 C572 1.400 . S
C573 C574 1.398 . S
C574 H562 0.950 . S
C574 C573 1.398 . S
C574 C575 1.391 . S
C575 H563 0.950 . S
C575 C571 1.393 . S
C575 C574 1.391 . S
H576 C584 0.950 . S
H577 C589 0.950 . S
H578 C586 0.950 . S
H579 C588 0.950 . S
H580 C590 0.950 . S
H581 C592 0.950 . S
H582 C594 0.950 . S
H583 C595 0.950 . S
C584 H576 0.950 . S
C584 C585 1.386 . S
C584 C586 1.391 . S
C585 C584 1.386 . S
C585 C589 1.393 . S
C586 H578 0.950 . S
C586 C584 1.391 . S
C586 C587 1.400 . S
C587 C586 1.400 . S
C587 C588 1.398 . S
C587 C593 1.491 . S
C588 H579 0.950 . S
C588 C587 1.398 . S
C588 C589 1.391 . S
C589 H577 0.950 . S
C589 C585 1.393 . S
C589 C588 1.391 . S
C590 H580 0.950 . S
C590 C591 1.386 . S
C590 C592 1.391 . S
C591 C590 1.386 . S
C591 C595 1.393 . S
C592 H581 0.950 . S
C592 C590 1.391 . S
C592 C593 1.400 . S
C593 C587 1.491 . S
C593 C592 1.400 . S
C593 C594 1.398 . S
C594 H582 0.950 . S
C594 C593 1.398 . S
C594 C595 1.391 . S
C595 H583 0.950 . S
C595 C591 1.393 . S
C595 C594 1.391 . S
H596 C604 0.950 . S
H597 C609 0.950 . S
H598 C606 0.950 . S
H599 C608 0.950 . S
H600 C610 0.950 . S
H601 C612 0.950 . S
H602 C614 0.950 . S
H603 C615 0.950 . S
C604 H596 0.950 . S
C604 C605 1.386 . S
C604 C606 1.391 . S
C605 C604 1.386 . S
C605 C609 1.393 . S
C606 H598 0.950 . S
C606 C604 1.391 . S
C606 C607 1.400 1_554 S
C607 C606 1.400 1_556 S
C607 C608 1.398 1_556 S
C607 C613 1.491 . S
C608 H599 0.950 . S
C608 C607 1.398 1_554 S
C608 C609 1.391 . S
C609 H597 0.950 . S
C609 C605 1.393 . S
C609 C608 1.391 . S
C610 H600 0.950 . S
C610 C611 1.386 . S
C610 C612 1.391 . S
C611 C610 1.386 . S
C611 C615 1.393 . S
C612 H601 0.950 . S
C612 C610 1.391 . S
C612 C613 1.400 . S
C613 C607 1.491 . S
C613 C612 1.400 . S
C613 C614 1.398 . S
C614 H602 0.950 . S
C614 C613 1.398 . S
C614 C615 1.391 . S
C615 H603 0.950 . S
C615 C611 1.393 . S
C615 C614 1.391 . S
H616 C624 0.950 . S
H617 C629 0.950 . S
H618 C626 0.950 . S
H619 C628 0.950 . S
H620 C630 0.950 . S
H621 C632 0.950 . S
H622 C634 0.950 . S
H623 C635 0.950 . S
C624 H616 0.950 . S
C624 C625 1.386 . S
C624 C626 1.391 . S
C625 C624 1.386 . S
C625 C629 1.393 . S
C626 H618 0.950 . S
C626 C624 1.391 . S
C626 C627 1.400 . S
C627 C626 1.400 . S
C627 C628 1.398 . S
C627 C633 1.491 . S
C628 H619 0.950 . S
C628 C627 1.398 . S
C628 C629 1.391 . S
C629 H617 0.950 . S
C629 C625 1.393 . S
C629 C628 1.391 . S
C630 H620 0.950 . S
C630 C631 1.386 . S
C630 C632 1.391 . S
C631 C630 1.386 . S
C631 C635 1.393 . S
C632 H621 0.950 . S
C632 C630 1.391 . S
C632 C633 1.400 . S
C633 C627 1.491 . S
C633 C632 1.400 . S
C633 C634 1.398 . S
C634 H622 0.950 . S
C634 C633 1.398 . S
C634 C635 1.391 . S
C635 H623 0.950 . S
C635 C631 1.393 . S
C635 C634 1.391 . S
H636 C644 0.950 . S
H637 C649 0.950 . S
H638 C646 0.950 . S
H639 C648 0.950 . S
H640 C650 0.950 . S
H641 C652 0.950 . S
H642 C654 0.950 . S
H643 C655 0.950 . S
C644 H636 0.950 . S
C644 C645 1.386 . S
C644 C646 1.391 . S
C645 C644 1.386 . S
C645 C649 1.393 . S
C646 H638 0.950 . S
C646 C644 1.391 . S
C646 C647 1.400 1_556 S
C647 C646 1.400 1_554 S
C647 C648 1.398 1_554 S
C647 C653 1.491 . S
C648 H639 0.950 . S
C648 C647 1.398 1_556 S
C648 C649 1.391 . S
C649 H637 0.950 . S
C649 C645 1.393 . S
C649 C648 1.391 . S
C650 H640 0.950 . S
C650 C651 1.386 . S
C650 C652 1.391 . S
C651 C650 1.386 . S
C651 C655 1.393 . S
C652 H641 0.950 . S
C652 C650 1.391 . S
C652 C653 1.400 . S
C653 C647 1.491 . S
C653 C652 1.400 . S
C653 C654 1.398 . S
C654 H642 0.950 . S
C654 C653 1.398 . S
C654 C655 1.391 . S
C655 H643 0.950 . S
C655 C651 1.393 . S
C655 C654 1.391 . S
H656 C664 0.950 . S
H657 C669 0.950 . S
H658 C666 0.950 . S
H659 C668 0.950 . S
H660 C670 0.950 . S
H661 C672 0.950 . S
H662 C674 0.950 . S
H663 C675 0.950 . S
C664 H656 0.950 . S
C664 C665 1.386 . S
C664 C666 1.391 . S
C665 C664 1.386 . S
C665 C669 1.393 . S
C666 H658 0.950 . S
C666 C664 1.391 . S
C666 C667 1.400 . S
C667 C666 1.400 . S
C667 C668 1.398 . S
C667 C673 1.491 . S
C668 H659 0.950 . S
C668 C667 1.398 . S
C668 C669 1.391 . S
C669 H657 0.950 . S
C669 C665 1.393 . S
C669 C668 1.391 . S
C670 H660 0.950 . S
C670 C671 1.386 . S
C670 C672 1.391 . S
C671 C670 1.386 . S
C671 C675 1.393 . S
C672 H661 0.950 . S
C672 C670 1.391 . S
C672 C673 1.400 . S
C673 C667 1.491 . S
C673 C672 1.400 . S
C673 C674 1.398 . S
C674 H662 0.950 . S
C674 C673 1.398 . S
C674 C675 1.391 . S
C675 H663 0.950 . S
C675 C671 1.393 . S
C675 C674 1.391 . S
H676 C684 0.950 . S
H677 C689 0.950 . S
H678 C686 0.950 . S
H679 C688 0.950 . S
H680 C690 0.950 . S
H681 C692 0.950 . S
H682 C694 0.950 . S
H683 C695 0.950 . S
C684 H676 0.950 . S
C684 C685 1.386 . S
C684 C686 1.391 . S
C685 C684 1.386 . S
C685 C689 1.393 . S
C686 H678 0.950 . S
C686 C684 1.391 . S
C686 C687 1.400 . S
C687 C686 1.400 . S
C687 C688 1.398 . S
C687 C693 1.491 . S
C688 H679 0.950 . S
C688 C687 1.398 . S
C688 C689 1.391 . S
C689 H677 0.950 . S
C689 C685 1.393 . S
C689 C688 1.391 . S
C690 H680 0.950 . S
C690 C691 1.386 . S
C690 C692 1.391 . S
C691 C690 1.386 . S
C691 C695 1.393 . S
C692 H681 0.950 . S
C692 C690 1.391 . S
C692 C693 1.400 . S
C693 C687 1.491 . S
C693 C692 1.400 . S
C693 C694 1.398 . S
C694 H682 0.950 . S
C694 C693 1.398 . S
C694 C695 1.391 . S
C695 H683 0.950 . S
C695 C691 1.393 . S
C695 C694 1.391 . S
H696 C704 0.950 . S
H697 C709 0.950 . S
H698 C706 0.950 . S
H699 C708 0.950 . S
H700 C710 0.950 . S
H701 C712 0.950 . S
H702 C714 0.950 . S
H703 C715 0.950 . S
C704 H696 0.950 . S
C704 C705 1.386 . S
C704 C706 1.391 . S
C705 C704 1.386 . S
C705 C709 1.393 . S
C706 H698 0.950 . S
C706 C704 1.391 . S
C706 C707 1.400 . S
C707 C706 1.400 . S
C707 C708 1.398 . S
C707 C713 1.491 . S
C708 H699 0.950 . S
C708 C707 1.398 . S
C708 C709 1.391 . S
C709 H697 0.950 . S
C709 C705 1.393 . S
C709 C708 1.391 . S
C710 H700 0.950 . S
C710 C711 1.386 . S
C710 C712 1.391 . S
C711 C710 1.386 . S
C711 C715 1.393 . S
C712 H701 0.950 . S
C712 C710 1.391 . S
C712 C713 1.400 1_556 S
C713 C707 1.491 . S
C713 C712 1.400 1_554 S
C713 C714 1.398 1_554 S
C714 H702 0.950 . S
C714 C713 1.398 1_556 S
C714 C715 1.391 . S
C715 H703 0.950 . S
C715 C711 1.393 . S
C715 C714 1.391 . S
H716 C724 0.950 . S
H717 C729 0.950 . S
H718 C726 0.950 . S
H719 C728 0.950 . S
H720 C730 0.950 . S
H721 C732 0.950 . S
H722 C734 0.950 . S
H723 C735 0.950 . S
C724 H716 0.950 . S
C724 C725 1.386 . S
C724 C726 1.391 . S
C725 C724 1.386 . S
C725 C729 1.393 . S
C726 H718 0.950 . S
C726 C724 1.391 . S
C726 C727 1.400 . S
C727 C726 1.400 . S
C727 C728 1.398 . S
C727 C733 1.491 . S
C728 H719 0.950 . S
C728 C727 1.398 . S
C728 C729 1.391 . S
C729 H717 0.950 . S
C729 C725 1.393 . S
C729 C728 1.391 . S
C730 H720 0.950 . S
C730 C731 1.386 . S
C730 C732 1.391 . S
C731 C730 1.386 . S
C731 C735 1.393 . S
C732 H721 0.950 . S
C732 C730 1.391 . S
C732 C733 1.400 . S
C733 C727 1.491 . S
C733 C732 1.400 . S
C733 C734 1.398 . S
C734 H722 0.950 . S
C734 C733 1.398 . S
C734 C735 1.391 . S
C735 H723 0.950 . S
C735 C731 1.393 . S
C735 C734 1.391 . S
H736 C744 0.950 . S
H737 C749 0.950 . S
H738 C746 0.950 . S
H739 C748 0.950 . S
H740 C750 0.950 . S
H741 C752 0.950 . S
H742 C754 0.950 . S
H743 C755 0.950 . S
C744 H736 0.950 . S
C744 C745 1.386 . S
C744 C746 1.391 . S
C745 C744 1.386 . S
C745 C749 1.393 . S
C746 H738 0.950 . S
C746 C744 1.391 . S
C746 C747 1.400 . S
C747 C746 1.400 . S
C747 C748 1.398 . S
C747 C753 1.491 . S
C748 H739 0.950 . S
C748 C747 1.398 . S
C748 C749 1.391 . S
C749 H737 0.950 . S
C749 C745 1.393 . S
C749 C748 1.391 . S
C750 H740 0.950 . S
C750 C751 1.386 . S
C750 C752 1.391 . S
C751 C750 1.386 . S
C751 C755 1.393 . S
C752 H741 0.950 . S
C752 C750 1.391 . S
C752 C753 1.400 . S
C753 C747 1.491 . S
C753 C752 1.400 . S
C753 C754 1.398 . S
C754 H742 0.950 . S
C754 C753 1.398 . S
C754 C755 1.391 . S
C755 H743 0.950 . S
C755 C751 1.393 . S
C755 C754 1.391 . S
H756 C764 0.950 . S
H757 C769 0.950 . S
H758 C766 0.950 . S
H759 C768 0.950 . S
H760 C770 0.950 . S
H761 C772 0.950 . S
H762 C774 0.950 . S
H763 C775 0.950 . S
C764 H756 0.950 . S
C764 C765 1.386 . S
C764 C766 1.391 . S
C765 C764 1.386 . S
C765 C769 1.393 . S
C766 H758 0.950 . S
C766 C764 1.391 . S
C766 C767 1.400 . S
C767 C766 1.400 . S
C767 C768 1.398 . S
C767 C773 1.491 . S
C768 H759 0.950 . S
C768 C767 1.398 . S
C768 C769 1.391 . S
C769 H757 0.950 . S
C769 C765 1.393 . S
C769 C768 1.391 . S
C770 H760 0.950 . S
C770 C771 1.386 . S
C770 C772 1.391 . S
C771 C770 1.386 . S
C771 C775 1.393 . S
C772 H761 0.950 . S
C772 C770 1.391 . S
C772 C773 1.400 . S
C773 C767 1.491 . S
C773 C772 1.400 . S
C773 C774 1.398 . S
C774 H762 0.950 . S
C774 C773 1.398 . S
C774 C775 1.391 . S
C775 H763 0.950 . S
C775 C771 1.393 . S
C775 C774 1.391 . S
H776 C784 0.950 . S
H777 C789 0.950 . S
H778 C786 0.950 . S
H779 C788 0.950 . S
H780 C790 0.950 . S
H781 C792 0.950 . S
H782 C794 0.950 . S
H783 C795 0.950 . S
C784 H776 0.950 . S
C784 C785 1.386 . S
C784 C786 1.391 . S
C785 C784 1.386 . S
C785 C789 1.393 . S
C786 H778 0.950 . S
C786 C784 1.391 . S
C786 C787 1.400 . S
C787 C786 1.400 . S
C787 C788 1.398 . S
C787 C793 1.491 . S
C788 H779 0.950 . S
C788 C787 1.398 . S
C788 C789 1.391 . S
C789 H777 0.950 . S
C789 C785 1.393 . S
C789 C788 1.391 . S
C790 H780 0.950 . S
C790 C791 1.386 . S
C790 C792 1.391 . S
C791 C790 1.386 . S
C791 C795 1.393 . S
C792 H781 0.950 . S
C792 C790 1.391 . S
C792 C793 1.400 . S
C793 C787 1.491 . S
C793 C792 1.400 . S
C793 C794 1.398 . S
C794 H782 0.950 . S
C794 C793 1.398 . S
C794 C795 1.391 . S
C795 H783 0.950 . S
C795 C791 1.393 . S
C795 C794 1.391 . S
H796 C804 0.950 . S
H797 C809 0.950 . S
H798 C806 0.950 . S
H799 C808 0.950 . S
H800 C810 0.950 . S
H801 C812 0.950 . S
H802 C814 0.950 . S
H803 C815 0.950 . S
C804 H796 0.950 . S
C804 C805 1.386 . S
C804 C806 1.391 . S
C805 C804 1.386 . S
C805 C809 1.393 . S
C806 H798 0.950 . S
C806 C804 1.391 . S
C806 C807 1.400 . S
C807 C806 1.400 . S
C807 C808 1.398 . S
C807 C813 1.491 . S
C808 H799 0.950 . S
C808 C807 1.398 . S
C808 C809 1.391 . S
C809 H797 0.950 . S
C809 C805 1.393 . S
C809 C808 1.391 . S
C810 H800 0.950 . S
C810 C811 1.386 . S
C810 C812 1.391 . S
C811 C810 1.386 . S
C811 C815 1.393 . S
C812 H801 0.950 . S
C812 C810 1.391 . S
C812 C813 1.400 . S
C813 C807 1.491 . S
C813 C812 1.400 . S
C813 C814 1.398 . S
C814 H802 0.950 . S
C814 C813 1.398 . S
C814 C815 1.391 . S
C815 H803 0.950 . S
C815 C811 1.393 . S
C815 C814 1.391 . S
H816 C824 0.950 . S
H817 C829 0.950 . S
H818 C826 0.950 . S
H819 C828 0.950 . S
H820 C830 0.950 . S
H821 C832 0.950 . S
H822 C834 0.950 . S
H823 C835 0.950 . S
C824 H816 0.950 . S
C824 C825 1.386 . S
C824 C826 1.391 . S
C825 C824 1.386 . S
C825 C829 1.393 . S
C826 H818 0.950 . S
C826 C824 1.391 . S
C826 C827 1.400 . S
C827 C826 1.400 . S
C827 C828 1.398 . S
C827 C833 1.491 . S
C828 H819 0.950 . S
C828 C827 1.398 . S
C828 C829 1.391 . S
C829 H817 0.950 . S
C829 C825 1.393 . S
C829 C828 1.391 . S
C830 H820 0.950 . S
C830 C831 1.386 . S
C830 C832 1.391 . S
C831 C830 1.386 . S
C831 C835 1.393 . S
C832 H821 0.950 . S
C832 C830 1.391 . S
C832 C833 1.400 . S
C833 C827 1.491 . S
C833 C832 1.400 . S
C833 C834 1.398 . S
C834 H822 0.950 . S
C834 C833 1.398 . S
C834 C835 1.391 . S
C835 H823 0.950 . S
C835 C831 1.393 . S
C835 C834 1.391 . S
H836 C844 0.950 . S
H837 C849 0.950 . S
H838 C846 0.950 . S
H839 C848 0.950 . S
H840 C850 0.950 . S
H841 C852 0.950 . S
H842 C854 0.950 . S
H843 C855 0.950 . S
C844 H836 0.950 . S
C844 C845 1.386 . S
C844 C846 1.391 . S
C845 C844 1.386 . S
C845 C849 1.393 . S
C846 H838 0.950 . S
C846 C844 1.391 . S
C846 C847 1.400 . S
C847 C846 1.400 . S
C847 C848 1.398 . S
C847 C853 1.491 . S
C848 H839 0.950 . S
C848 C847 1.398 . S
C848 C849 1.391 . S
C849 H837 0.950 . S
C849 C845 1.393 . S
C849 C848 1.391 . S
C850 H840 0.950 . S
C850 C851 1.386 . S
C850 C852 1.391 . S
C851 C850 1.386 . S
C851 C855 1.393 . S
C852 H841 0.950 . S
C852 C850 1.391 . S
C852 C853 1.400 . S
C853 C847 1.491 . S
C853 C852 1.400 . S
C853 C854 1.398 . S
C854 H842 0.950 . S
C854 C853 1.398 . S
C854 C855 1.391 . S
C855 H843 0.950 . S
C855 C851 1.393 . S
C855 C854 1.391 . S
H856 C864 0.950 . S
H857 C869 0.950 . S
H858 C866 0.950 . S
H859 C868 0.950 . S
H860 C870 0.950 . S
H861 C872 0.950 . S
H862 C874 0.950 . S
H863 C875 0.950 . S
C864 H856 0.950 . S
C864 C865 1.386 . S
C864 C866 1.391 . S
C865 C864 1.386 . S
C865 C869 1.393 . S
C866 H858 0.950 . S
C866 C864 1.391 . S
C866 C867 1.400 . S
C867 C866 1.400 . S
C867 C868 1.398 . S
C867 C873 1.491 . S
C868 H859 0.950 . S
C868 C867 1.398 . S
C868 C869 1.391 . S
C869 H857 0.950 . S
C869 C865 1.393 . S
C869 C868 1.391 . S
C870 H860 0.950 . S
C870 C871 1.386 . S
C870 C872 1.391 . S
C871 C870 1.386 . S
C871 C875 1.393 . S
C872 H861 0.950 . S
C872 C870 1.391 . S
C872 C873 1.400 . S
C873 C867 1.491 . S
C873 C872 1.400 . S
C873 C874 1.398 . S
C874 H862 0.950 . S
C874 C873 1.398 . S
C874 C875 1.391 . S
C875 H863 0.950 . S
C875 C871 1.393 . S
C875 C874 1.391 . S
H876 C884 0.950 . S
H877 C889 0.950 1_554 S
H878 C886 0.950 . S
H879 C888 0.950 . S
H880 C890 0.950 . S
H881 C892 0.950 . S
H882 C894 0.950 . S
H883 C895 0.950 1_556 S
C884 H876 0.950 . S
C884 C885 1.386 . S
C884 C886 1.391 . S
C885 C884 1.386 . S
C885 C889 1.393 . S
C886 H878 0.950 . S
C886 C884 1.391 . S
C886 C887 1.400 . S
C887 C886 1.400 . S
C887 C888 1.398 1_556 S
C887 C893 1.491 1_556 S
C888 H879 0.950 . S
C888 C887 1.398 1_554 S
C888 C889 1.391 1_554 S
C889 H877 0.950 1_556 S
C889 C885 1.393 . S
C889 C888 1.391 1_556 S
C890 H880 0.950 . S
C890 C891 1.386 . S
C890 C892 1.391 . S
C891 C890 1.386 . S
C891 C895 1.393 . S
C892 H881 0.950 . S
C892 C890 1.391 . S
C892 C893 1.400 . S
C893 C887 1.491 1_554 S
C893 C892 1.400 . S
C893 C894 1.398 1_554 S
C894 H882 0.950 . S
C894 C893 1.398 1_556 S
C894 C895 1.391 1_556 S
C895 H883 0.950 1_554 S
C895 C891 1.393 . S
C895 C894 1.391 1_554 S
H896 C904 0.950 . S
H897 C909 0.950 . S
H898 C906 0.950 . S
H899 C908 0.950 . S
H900 C910 0.950 . S
H901 C912 0.950 . S
H902 C914 0.950 . S
H903 C915 0.950 . S
C904 H896 0.950 . S
C904 C905 1.386 . S
C904 C906 1.391 . S
C905 C904 1.386 . S
C905 C909 1.393 . S
C906 H898 0.950 . S
C906 C904 1.391 . S
C906 C907 1.400 . S
C907 C906 1.400 . S
C907 C908 1.398 . S
C907 C913 1.491 . S
C908 H899 0.950 . S
C908 C907 1.398 . S
C908 C909 1.391 . S
C909 H897 0.950 . S
C909 C905 1.393 . S
C909 C908 1.391 . S
C910 H900 0.950 . S
C910 C911 1.386 . S
C910 C912 1.391 . S
C911 C910 1.386 . S
C911 C915 1.393 . S
C912 H901 0.950 . S
C912 C910 1.391 . S
C912 C913 1.400 . S
C913 C907 1.491 . S
C913 C912 1.400 . S
C913 C914 1.398 . S
C914 H902 0.950 . S
C914 C913 1.398 . S
C914 C915 1.391 . S
C915 H903 0.950 . S
C915 C911 1.393 . S
C915 C914 1.391 . S
H916 C924 0.950 . S
H917 C929 0.950 . S
H918 C926 0.950 . S
H919 C928 0.950 . S
H920 C930 0.950 . S
H921 C932 0.950 . S
H922 C934 0.950 . S
H923 C935 0.950 . S
C924 H916 0.950 . S
C924 C925 1.386 . S
C924 C926 1.391 . S
C925 C924 1.386 . S
C925 C929 1.393 . S
C926 H918 0.950 . S
C926 C924 1.391 . S
C926 C927 1.400 . S
C927 C926 1.400 . S
C927 C928 1.398 . S
C927 C933 1.491 . S
C928 H919 0.950 . S
C928 C927 1.398 . S
C928 C929 1.391 . S
C929 H917 0.950 . S
C929 C925 1.393 . S
C929 C928 1.391 . S
C930 H920 0.950 . S
C930 C931 1.386 . S
C930 C932 1.391 . S
C931 C930 1.386 . S
C931 C935 1.393 . S
C932 H921 0.950 . S
C932 C930 1.391 . S
C932 C933 1.400 . S
C933 C927 1.491 . S
C933 C932 1.400 . S
C933 C934 1.398 . S
C934 H922 0.950 . S
C934 C933 1.398 . S
C934 C935 1.391 . S
C935 H923 0.950 . S
C935 C931 1.393 . S
C935 C934 1.391 . S
H936 C944 0.950 . S
H937 C949 0.950 . S
H938 C946 0.950 . S
H939 C948 0.950 . S
H940 C950 0.950 . S
H941 C952 0.950 . S
H942 C954 0.950 . S
H943 C955 0.950 . S
C944 H936 0.950 . S
C944 C945 1.386 . S
C944 C946 1.391 . S
C945 C944 1.386 . S
C945 C949 1.393 1_554 S
C946 H938 0.950 . S
C946 C944 1.391 . S
C946 C947 1.400 . S
C947 C946 1.400 . S
C947 C948 1.398 1_554 S
C947 C953 1.491 1_554 S
C948 H939 0.950 . S
C948 C947 1.398 1_556 S
C948 C949 1.391 . S
C949 H937 0.950 . S
C949 C945 1.393 1_556 S
C949 C948 1.391 . S
C950 H940 0.950 . S
C950 C951 1.386 . S
C950 C952 1.391 . S
C951 C950 1.386 . S
C951 C955 1.393 1_556 S
C952 H941 0.950 . S
C952 C950 1.391 . S
C952 C953 1.400 . S
C953 C947 1.491 1_556 S
C953 C952 1.400 . S
C953 C954 1.398 1_556 S
C954 H942 0.950 . S
C954 C953 1.398 1_554 S
C954 C955 1.391 . S
C955 H943 0.950 . S
C955 C951 1.393 1_554 S
C955 C954 1.391 . S
H956 C964 0.950 . S
H957 C969 0.950 . S
H958 C966 0.950 . S
H959 C968 0.950 . S
H960 C970 0.950 . S
H961 C972 0.950 . S
H962 C974 0.950 . S
H963 C975 0.950 . S
C964 H956 0.950 . S
C964 C965 1.386 . S
C964 C966 1.391 . S
C965 C964 1.386 . S
C965 C969 1.393 . S
C966 H958 0.950 . S
C966 C964 1.391 . S
C966 C967 1.400 . S
C967 C966 1.400 . S
C967 C968 1.398 . S
C967 C973 1.491 . S
C968 H959 0.950 . S
C968 C967 1.398 . S
C968 C969 1.391 . S
C969 H957 0.950 . S
C969 C965 1.393 . S
C969 C968 1.391 . S
C970 H960 0.950 . S
C970 C971 1.386 . S
C970 C972 1.391 . S
C971 C970 1.386 . S
C971 C975 1.393 . S
C972 H961 0.950 . S
C972 C970 1.391 . S
C972 C973 1.400 . S
C973 C967 1.491 . S
C973 C972 1.400 . S
C973 C974 1.398 . S
C974 H962 0.950 . S
C974 C973 1.398 . S
C974 C975 1.391 . S
C975 H963 0.950 . S
C975 C971 1.393 . S
C975 C974 1.391 . S
H976 C984 0.950 . S
H977 C989 0.950 . S
H978 C986 0.950 . S
H979 C988 0.950 . S
H980 C990 0.950 . S
H981 C992 0.950 . S
H982 C994 0.950 . S
H983 C995 0.950 . S
C984 H976 0.950 . S
C984 C985 1.386 . S
C984 C986 1.391 . S
C985 C984 1.386 . S
C985 C989 1.393 . S
C986 H978 0.950 . S
C986 C984 1.391 . S
C986 C987 1.400 . S
C987 C986 1.400 . S
C987 C988 1.398 . S
C987 C993 1.491 . S
C988 H979 0.950 . S
C988 C987 1.398 . S
C988 C989 1.391 . S
C989 H977 0.950 . S
C989 C985 1.393 . S
C989 C988 1.391 . S
C990 H980 0.950 . S
C990 C991 1.386 . S
C990 C992 1.391 . S
C991 C990 1.386 . S
C991 C995 1.393 . S
C992 H981 0.950 . S
C992 C990 1.391 . S
C992 C993 1.400 . S
C993 C987 1.491 . S
C993 C992 1.400 . S
C993 C994 1.398 . S
C994 H982 0.950 . S
C994 C993 1.398 . S
C994 C995 1.391 . S
C995 H983 0.950 . S
C995 C991 1.393 . S
C995 C994 1.391 . S
C405 C7 1.237 . S
C411 C370 1.251 . S
C425 C40 1.241 . S
C431 C205 1.257 . S
C445 C238 1.259 . S
C451 C73 1.238 . S
C465 C271 1.237 . S
C471 C106 1.250 . S
C485 C304 1.258 . S
C491 C139 1.236 . S
C505 C337 1.259 . S
C511 C172 1.238 . S
C525 N13 1.386 . S
C531 N2 1.384 . S
C545 N35 1.398 . S
C551 N46 1.400 . S
C565 N79 1.386 . S
C571 N68 1.384 . S
C585 N112 1.399 . S
C591 N101 1.397 . S
C605 N145 1.388 . S
C611 N134 1.386 . S
C625 N167 1.400 . S
C631 N178 1.401 . S
C645 N211 1.400 . S
C651 N200 1.398 . S
C665 N233 1.386 . S
C671 N244 1.388 . S
C685 N277 1.398 . S
C691 N266 1.397 . S
C705 N299 1.396 . S
C711 N310 1.398 . S
C725 N332 1.396 . S
C731 N343 1.398 . S
C745 N376 1.395 . S
C751 N365 1.394 . S
C765 C21 1.581 . S
C771 C285 1.576 . S
C785 C54 1.576 . S
C791 C318 1.582 . S
C805 C87 1.578 . S
C811 C351 1.578 . S
C825 C384 1.576 . S
C831 C120 1.582 . S
C845 C219 1.577 . S
C851 C153 1.582 . S
C865 C252 1.576 . S
C871 C186 1.583 . S
C885 C348 1.202 . S
C891 C18 1.195 . S
C905 C381 1.198 . S
C911 C51 1.195 . S
C925 C216 1.196 . S
C931 C84 1.197 . S
C945 C117 1.205 . S
C951 C249 1.196 . S
C965 C150 1.207 . S
C971 C282 1.197 . S
C985 C183 1.196 . S
C991 C315 1.206 . S
