# Generated by pormake.
# Topology mer, (4)-cn, num edge types: 1
# Building blocks:
#     Node 0, Type 0, BuildingBlock: QUQFOY_clean_sbu_3, # of connection points: 4
#     Node 1, Type 0, BuildingBlock: QUQFOY_clean_sbu_3, # of connection points: 4
#     Node 2, Type 0, BuildingBlock: QUQFOY_clean_sbu_3, # of connection points: 4
#     Node 3, Type 0, BuildingBlock: QUQFOY_clean_sbu_3, # of connection points: 4
#     Node 4, Type 0, BuildingBlock: QUQFOY_clean_sbu_3, # of connection points: 4
#     Node 5, Type 0, BuildingBlock: QUQFOY_clean_sbu_3, # of connection points: 4
#     Node 6, Type 0, BuildingBlock: QUQFOY_clean_sbu_3, # of connection points: 4
#     Node 7, Type 0, BuildingBlock: QUQFOY_clean_sbu_3, # of connection points: 4
#     Node 8, Type 0, BuildingBlock: QUQFOY_clean_sbu_3, # of connection points: 4
#     Node 9, Type 0, BuildingBlock: QUQFOY_clean_sbu_3, # of connection points: 4
#     Node 10, Type 0, BuildingBlock: QUQFOY_clean_sbu_3, # of connection points: 4
#     Node 11, Type 0, BuildingBlock: QUQFOY_clean_sbu_3, # of connection points: 4
#     Node 12, Type 0, BuildingBlock: QUQFOY_clean_sbu_3, # of connection points: 4
#     Node 13, Type 0, BuildingBlock: QUQFOY_clean_sbu_3, # of connection points: 4
#     Node 14, Type 0, BuildingBlock: QUQFOY_clean_sbu_3, # of connection points: 4
#     Node 15, Type 0, BuildingBlock: QUQFOY_clean_sbu_3, # of connection points: 4
#     Node 16, Type 0, BuildingBlock: QUQFOY_clean_sbu_3, # of connection points: 4
#     Node 17, Type 0, BuildingBlock: QUQFOY_clean_sbu_3, # of connection points: 4
#     Node 18, Type 0, BuildingBlock: QUQFOY_clean_sbu_3, # of connection points: 4
#     Node 19, Type 0, BuildingBlock: QUQFOY_clean_sbu_3, # of connection points: 4
#     Node 20, Type 0, BuildingBlock: QUQFOY_clean_sbu_3, # of connection points: 4
#     Node 21, Type 0, BuildingBlock: QUQFOY_clean_sbu_3, # of connection points: 4
#     Node 22, Type 0, BuildingBlock: QUQFOY_clean_sbu_3, # of connection points: 4
#     Node 23, Type 0, BuildingBlock: QUQFOY_clean_sbu_3, # of connection points: 4
#     Node 24, Type 0, BuildingBlock: QUQFOY_clean_sbu_3, # of connection points: 4
#     Node 25, Type 0, BuildingBlock: QUQFOY_clean_sbu_3, # of connection points: 4
#     Node 26, Type 0, BuildingBlock: QUQFOY_clean_sbu_3, # of connection points: 4
#     Node 27, Type 0, BuildingBlock: QUQFOY_clean_sbu_3, # of connection points: 4
#     Node 28, Type 0, BuildingBlock: QUQFOY_clean_sbu_3, # of connection points: 4
#     Node 29, Type 0, BuildingBlock: QUQFOY_clean_sbu_3, # of connection points: 4
#     Node 30, Type 0, BuildingBlock: QUQFOY_clean_sbu_3, # of connection points: 4
#     Node 31, Type 0, BuildingBlock: QUQFOY_clean_sbu_3, # of connection points: 4
#     Edge 32, Type (0, 0), BuildingBlock: TEMPAE_clean_linker_10, # of connection points: 2
#     Edge 33, Type (0, 0), BuildingBlock: TEMPAE_clean_linker_10, # of connection points: 2
#     Edge 34, Type (0, 0), BuildingBlock: TEMPAE_clean_linker_10, # of connection points: 2
#     Edge 35, Type (0, 0), BuildingBlock: TEMPAE_clean_linker_10, # of connection points: 2
#     Edge 36, Type (0, 0), BuildingBlock: TEMPAE_clean_linker_10, # of connection points: 2
#     Edge 37, Type (0, 0), BuildingBlock: TEMPAE_clean_linker_10, # of connection points: 2
#     Edge 38, Type (0, 0), BuildingBlock: TEMPAE_clean_linker_10, # of connection points: 2
#     Edge 39, Type (0, 0), BuildingBlock: TEMPAE_clean_linker_10, # of connection points: 2
#     Edge 40, Type (0, 0), BuildingBlock: TEMPAE_clean_linker_10, # of connection points: 2
#     Edge 41, Type (0, 0), BuildingBlock: TEMPAE_clean_linker_10, # of connection points: 2
#     Edge 42, Type (0, 0), BuildingBlock: TEMPAE_clean_linker_10, # of connection points: 2
#     Edge 43, Type (0, 0), BuildingBlock: TEMPAE_clean_linker_10, # of connection points: 2
#     Edge 44, Type (0, 0), BuildingBlock: TEMPAE_clean_linker_10, # of connection points: 2
#     Edge 45, Type (0, 0), BuildingBlock: TEMPAE_clean_linker_10, # of connection points: 2
#     Edge 46, Type (0, 0), BuildingBlock: TEMPAE_clean_linker_10, # of connection points: 2
#     Edge 47, Type (0, 0), BuildingBlock: TEMPAE_clean_linker_10, # of connection points: 2
#     Edge 48, Type (0, 0), BuildingBlock: TEMPAE_clean_linker_10, # of connection points: 2
#     Edge 49, Type (0, 0), BuildingBlock: TEMPAE_clean_linker_10, # of connection points: 2
#     Edge 50, Type (0, 0), BuildingBlock: TEMPAE_clean_linker_10, # of connection points: 2
#     Edge 51, Type (0, 0), BuildingBlock: TEMPAE_clean_linker_10, # of connection points: 2
#     Edge 52, Type (0, 0), BuildingBlock: TEMPAE_clean_linker_10, # of connection points: 2
#     Edge 53, Type (0, 0), BuildingBlock: TEMPAE_clean_linker_10, # of connection points: 2
#     Edge 54, Type (0, 0), BuildingBlock: TEMPAE_clean_linker_10, # of connection points: 2
#     Edge 55, Type (0, 0), BuildingBlock: TEMPAE_clean_linker_10, # of connection points: 2
#     Edge 56, Type (0, 0), BuildingBlock: TEMPAE_clean_linker_10, # of connection points: 2
#     Edge 57, Type (0, 0), BuildingBlock: TEMPAE_clean_linker_10, # of connection points: 2
#     Edge 58, Type (0, 0), BuildingBlock: TEMPAE_clean_linker_10, # of connection points: 2
#     Edge 59, Type (0, 0), BuildingBlock: TEMPAE_clean_linker_10, # of connection points: 2
#     Edge 60, Type (0, 0), BuildingBlock: TEMPAE_clean_linker_10, # of connection points: 2
#     Edge 61, Type (0, 0), BuildingBlock: TEMPAE_clean_linker_10, # of connection points: 2
#     Edge 62, Type (0, 0), BuildingBlock: TEMPAE_clean_linker_10, # of connection points: 2
#     Edge 63, Type (0, 0), BuildingBlock: TEMPAE_clean_linker_10, # of connection points: 2
#     Edge 64, Type (0, 0), BuildingBlock: TEMPAE_clean_linker_10, # of connection points: 2
#     Edge 65, Type (0, 0), BuildingBlock: TEMPAE_clean_linker_10, # of connection points: 2
#     Edge 66, Type (0, 0), BuildingBlock: TEMPAE_clean_linker_10, # of connection points: 2
#     Edge 67, Type (0, 0), BuildingBlock: TEMPAE_clean_linker_10, # of connection points: 2
#     Edge 68, Type (0, 0), BuildingBlock: TEMPAE_clean_linker_10, # of connection points: 2
#     Edge 69, Type (0, 0), BuildingBlock: TEMPAE_clean_linker_10, # of connection points: 2
#     Edge 70, Type (0, 0), BuildingBlock: TEMPAE_clean_linker_10, # of connection points: 2
#     Edge 71, Type (0, 0), BuildingBlock: TEMPAE_clean_linker_10, # of connection points: 2
#     Edge 72, Type (0, 0), BuildingBlock: TEMPAE_clean_linker_10, # of connection points: 2
#     Edge 73, Type (0, 0), BuildingBlock: TEMPAE_clean_linker_10, # of connection points: 2
#     Edge 74, Type (0, 0), BuildingBlock: TEMPAE_clean_linker_10, # of connection points: 2
#     Edge 75, Type (0, 0), BuildingBlock: TEMPAE_clean_linker_10, # of connection points: 2
#     Edge 76, Type (0, 0), BuildingBlock: TEMPAE_clean_linker_10, # of connection points: 2
#     Edge 77, Type (0, 0), BuildingBlock: TEMPAE_clean_linker_10, # of connection points: 2
#     Edge 78, Type (0, 0), BuildingBlock: TEMPAE_clean_linker_10, # of connection points: 2
#     Edge 79, Type (0, 0), BuildingBlock: TEMPAE_clean_linker_10, # of connection points: 2
#     Edge 80, Type (0, 0), BuildingBlock: TEMPAE_clean_linker_10, # of connection points: 2
#     Edge 81, Type (0, 0), BuildingBlock: TEMPAE_clean_linker_10, # of connection points: 2
#     Edge 82, Type (0, 0), BuildingBlock: TEMPAE_clean_linker_10, # of connection points: 2
#     Edge 83, Type (0, 0), BuildingBlock: TEMPAE_clean_linker_10, # of connection points: 2
#     Edge 84, Type (0, 0), BuildingBlock: TEMPAE_clean_linker_10, # of connection points: 2
#     Edge 85, Type (0, 0), BuildingBlock: TEMPAE_clean_linker_10, # of connection points: 2
#     Edge 86, Type (0, 0), BuildingBlock: TEMPAE_clean_linker_10, # of connection points: 2
#     Edge 87, Type (0, 0), BuildingBlock: TEMPAE_clean_linker_10, # of connection points: 2
#     Edge 88, Type (0, 0), BuildingBlock: TEMPAE_clean_linker_10, # of connection points: 2
#     Edge 89, Type (0, 0), BuildingBlock: TEMPAE_clean_linker_10, # of connection points: 2
#     Edge 90, Type (0, 0), BuildingBlock: TEMPAE_clean_linker_10, # of connection points: 2
#     Edge 91, Type (0, 0), BuildingBlock: TEMPAE_clean_linker_10, # of connection points: 2
#     Edge 92, Type (0, 0), BuildingBlock: TEMPAE_clean_linker_10, # of connection points: 2
#     Edge 93, Type (0, 0), BuildingBlock: TEMPAE_clean_linker_10, # of connection points: 2
#     Edge 94, Type (0, 0), BuildingBlock: TEMPAE_clean_linker_10, # of connection points: 2
#     Edge 95, Type (0, 0), BuildingBlock: TEMPAE_clean_linker_10, # of connection points: 2
# Relax obj value: 0.063
# Max RMSD: 0.126
# Mean RMSD: 0.119
data_MOF--net-mer--node1-QUQFOY_clean_sbu_3--edge1-TEMPAE_clean_linker_10
_symmetry_space_group_name_H-M    P1
_symmetry_Int_Tables_number       1
_symmetry_cell_setting            triclinic
loop_
_symmetry_equiv_pos_as_xyz
'x, y, z'
_cell_length_a     63.836517
_cell_length_b     65.261103
_cell_length_c     55.678665
_cell_angle_alpha  89.99266
_cell_angle_beta   89.969153
_cell_angle_gamma 90.023144
loop_
_atom_site_label
_atom_site_type_symbol
_atom_site_fract_x
_atom_site_fract_y
_atom_site_fract_z
_atom_type_partial_charge
C0 C 0.13078 0.32153 0.32787 0.0
O1 O 0.14234 0.3274 0.34508 0.0
Cd2 Cd 0.1458 0.30753 0.38118 0.0
O3 O 0.11869 0.30615 0.33023 0.0
Cd4 Cd 0.10645 0.28197 0.36117 0.0
C5 C 0.15333 0.25855 0.3586 0.0
O6 O 0.11163 0.30242 0.39746 0.0
O7 O 0.10492 0.27014 0.40219 0.0
O8 O 0.07014 0.29054 0.35496 0.0
C9 C 0.10832 0.2875 0.41161 0.0
O10 O 0.16061 0.27463 0.36857 0.0
C11 C 0.06461 0.27297 0.34754 0.0
O12 O 0.13398 0.25703 0.35337 0.0
O13 O 0.07881 0.2594 0.34574 0.0
C14 C 0.66087 0.12709 0.30551 0.0
O15 O 0.65403 0.13839 0.32229 0.0
Cd16 Cd 0.6736 0.14159 0.35877 0.0
O17 O 0.67802 0.1174 0.30781 0.0
Cd18 Cd 0.70607 0.11135 0.33715 0.0
C19 C 0.71971 0.16087 0.33648 0.0
O20 O 0.68375 0.10785 0.37281 0.0
O21 O 0.71705 0.11116 0.37867 0.0
O22 O 0.70472 0.07807 0.31827 0.0
C23 C 0.69909 0.10748 0.3873 0.0
O24 O 0.70292 0.1641 0.34822 0.0
C25 C 0.7242 0.07451 0.31942 0.0
O26 O 0.72444 0.14302 0.3291 0.0
O27 O 0.73567 0.08835 0.32857 0.0
C28 C 0.8619 0.66655 0.3332 0.0
O29 O 0.84625 0.66343 0.34679 0.0
Cd30 Cd 0.84037 0.68139 0.38381 0.0
O31 O 0.87557 0.67997 0.33852 0.0
Cd32 Cd 0.88197 0.70508 0.37053 0.0
C33 C 0.83603 0.73055 0.36332 0.0
O34 O 0.87293 0.68357 0.4054 0.0
O35 O 0.88024 0.71551 0.41177 0.0
O36 O 0.91927 0.69861 0.36868 0.0
C37 C 0.87595 0.698 0.42029 0.0
O38 O 0.82713 0.71493 0.37246 0.0
C39 C 0.92432 0.71667 0.36249 0.0
O40 O 0.85572 0.73078 0.35967 0.0
O41 O 0.90951 0.72941 0.35955 0.0
C42 C 0.33275 0.86777 0.3014 0.0
O43 O 0.34215 0.86176 0.32018 0.0
Cd44 Cd 0.32182 0.85957 0.35671 0.0
O45 O 0.31442 0.87522 0.30273 0.0
Cd46 Cd 0.2881 0.88557 0.33195 0.0
C47 C 0.27725 0.83617 0.33502 0.0
O48 O 0.30809 0.89226 0.36891 0.0
O49 O 0.27536 0.88418 0.3726 0.0
O50 O 0.28914 0.91841 0.31231 0.0
C51 C 0.29212 0.89041 0.38238 0.0
O52 O 0.29315 0.83511 0.34883 0.0
C53 C 0.26945 0.92106 0.3118 0.0
O54 O 0.27242 0.85281 0.32452 0.0
O55 O 0.25807 0.90681 0.32029 0.0
C56 C 0.11839 0.66947 0.6548 0.0
O57 O 0.13434 0.66391 0.64284 0.0
Cd58 Cd 0.14311 0.67784 0.60414 0.0
O59 O 0.10636 0.68347 0.64702 0.0
Cd60 Cd 0.10388 0.70625 0.61222 0.0
C61 C 0.15214 0.728 0.6177 0.0
O62 O 0.11142 0.68069 0.58085 0.0
O63 O 0.10719 0.71232 0.57008 0.0
O64 O 0.06613 0.70349 0.61263 0.0
C65 C 0.1099 0.69379 0.56407 0.0
O66 O 0.15972 0.71082 0.61128 0.0
C67 C 0.06269 0.72218 0.61749 0.0
O68 O 0.13247 0.73031 0.62041 0.0
O69 O 0.07857 0.73366 0.62021 0.0
C70 C 0.32977 0.1201 0.67597 0.0
O71 O 0.33753 0.13005 0.65854 0.0
Cd72 Cd 0.31782 0.13406 0.62232 0.0
O73 O 0.31198 0.1115 0.67406 0.0
Cd74 Cd 0.28383 0.10527 0.64502 0.0
C75 C 0.273 0.1553 0.64628 0.0
O76 O 0.30508 0.10118 0.60868 0.0
O77 O 0.27193 0.10675 0.60401 0.0
O78 O 0.28461 0.07179 0.66334 0.0
C79 C 0.28942 0.10225 0.59469 0.0
O80 O 0.28978 0.15766 0.63421 0.0
C81 C 0.265 0.06879 0.66275 0.0
O82 O 0.26726 0.13769 0.65359 0.0
O83 O 0.25372 0.08305 0.65419 0.0
C84 C 0.8682 0.30392 0.65789 0.0
O85 O 0.85555 0.30915 0.64139 0.0
Cd86 Cd 0.85488 0.29398 0.60227 0.0
O87 O 0.88167 0.28983 0.65447 0.0
Cd88 Cd 0.8936 0.26601 0.62299 0.0
C89 C 0.84564 0.2439 0.61934 0.0
O90 O 0.89088 0.29135 0.591 0.0
O91 O 0.90113 0.26124 0.58047 0.0
O92 O 0.92655 0.27127 0.64371 0.0
C93 C 0.89663 0.27939 0.57435 0.0
O94 O 0.83938 0.26053 0.60978 0.0
C95 C 0.93309 0.25307 0.64081 0.0
O96 O 0.86447 0.2418 0.62645 0.0
O97 O 0.921 0.24064 0.63007 0.0
C98 C 0.63965 0.859 0.66562 0.0
O99 O 0.63811 0.84834 0.64665 0.0
Cd100 Cd 0.66284 0.85206 0.61431 0.0
O101 O 0.65469 0.87155 0.6683 0.0
Cd102 Cd 0.68577 0.88326 0.64659 0.0
C103 C 0.70646 0.83639 0.64459 0.0
O104 O 0.67026 0.88769 0.60666 0.0
O105 O 0.70401 0.88637 0.60858 0.0
O106 O 0.67937 0.91582 0.66624 0.0
C107 C 0.68777 0.88984 0.59618 0.0
O108 O 0.69425 0.83336 0.62685 0.0
C109 C 0.69851 0.91973 0.67031 0.0
O110 O 0.70521 0.85272 0.65698 0.0
O111 O 0.71181 0.90635 0.66395 0.0
C112 C 0.9109 0.75257 0.63629 0.0
O113 O 0.90001 0.76611 0.62569 0.0
Cd114 Cd 0.86229 0.7642 0.62367 0.0
O115 O 0.90223 0.73709 0.64602 0.0
Cd116 Cd 0.86774 0.72161 0.65256 0.0
C117 C 0.8586 0.71849 0.59314 0.0
O118 O 0.85021 0.75357 0.66222 0.0
O119 O 0.83027 0.72709 0.65897 0.0
O120 O 0.8835 0.71016 0.68989 0.0
C121 C 0.83194 0.74605 0.66338 0.0
O122 O 0.85512 0.7377 0.59399 0.0
C123 C 0.87477 0.69269 0.68964 0.0
O124 O 0.86525 0.7088 0.61147 0.0
O125 O 0.8634 0.6884 0.67162 0.0
C126 C 0.32324 0.85801 0.63663 0.0
O127 O 0.32797 0.84932 0.61696 0.0
Cd128 Cd 0.30701 0.8529 0.5813 0.0
O129 O 0.30784 0.87036 0.63788 0.0
Cd130 Cd 0.28161 0.88664 0.61172 0.0
C131 C 0.25824 0.84068 0.60407 0.0
O132 O 0.30283 0.88877 0.57559 0.0
O133 O 0.2701 0.89607 0.57117 0.0
O134 O 0.29005 0.91946 0.62873 0.0
C135 C 0.28821 0.89472 0.56192 0.0
O136 O 0.27338 0.83629 0.59005 0.0
C137 C 0.27163 0.92376 0.63566 0.0
O138 O 0.25781 0.8576 0.61544 0.0
O139 O 0.25755 0.91029 0.63225 0.0
C140 C 0.08795 0.25194 0.64766 0.0
O141 O 0.09945 0.23631 0.64458 0.0
Cd142 Cd 0.13543 0.24084 0.6336 0.0
O143 O 0.09579 0.26988 0.64797 0.0
Cd144 Cd 0.12985 0.28771 0.64736 0.0
C145 C 0.12984 0.2781 0.58903 0.0
O146 O 0.15125 0.26077 0.66443 0.0
O147 O 0.16776 0.28333 0.64346 0.0
O148 O 0.11673 0.30435 0.68305 0.0
C149 C 0.1686 0.26788 0.65721 0.0
O150 O 0.13469 0.25991 0.59536 0.0
C151 C 0.12518 0.32157 0.67883 0.0
O152 O 0.12565 0.29181 0.60456 0.0
O153 O 0.13516 0.32345 0.6592 0.0
C154 C 0.66118 0.13896 0.63619 0.0
O155 O 0.66232 0.14943 0.61698 0.0
Cd156 Cd 0.68151 0.13973 0.58151 0.0
O157 O 0.67148 0.12239 0.63865 0.0
Cd158 Cd 0.69699 0.10192 0.61599 0.0
C159 C 0.73073 0.14145 0.60589 0.0
O160 O 0.67793 0.10361 0.57876 0.0
O161 O 0.70766 0.08813 0.57667 0.0
O162 O 0.68318 0.07052 0.63227 0.0
C163 C 0.69114 0.09403 0.56608 0.0
O164 O 0.71783 0.14806 0.59026 0.0
C165 C 0.69998 0.06498 0.64257 0.0
O166 O 0.72637 0.12605 0.61904 0.0
O167 O 0.71559 0.07699 0.64112 0.0
C168 C 0.91057 0.2549 0.33757 0.0
O169 O 0.90007 0.23976 0.3453 0.0
Cd170 Cd 0.86376 0.24323 0.3554 0.0
O171 O 0.9021 0.27243 0.33513 0.0
Cd172 Cd 0.86819 0.28995 0.34055 0.0
C173 C 0.86928 0.28037 0.39925 0.0
O174 O 0.84733 0.26227 0.32391 0.0
O175 O 0.83033 0.28481 0.34434 0.0
O176 O 0.88066 0.30865 0.30594 0.0
C177 C 0.82983 0.26921 0.33083 0.0
O178 O 0.86392 0.26225 0.3933 0.0
C179 C 0.87135 0.32526 0.31094 0.0
O180 O 0.87375 0.29373 0.38341 0.0
O181 O 0.86095 0.32581 0.33038 0.0
C182 C 0.66881 0.86095 0.34184 0.0
O183 O 0.66723 0.84949 0.36021 0.0
Cd184 Cd 0.68608 0.85431 0.39718 0.0
O185 O 0.68174 0.87579 0.34132 0.0
Cd186 Cd 0.70876 0.89098 0.36724 0.0
C187 C 0.73525 0.84618 0.37463 0.0
O188 O 0.68756 0.89033 0.40314 0.0
O189 O 0.71924 0.90103 0.40807 0.0
O190 O 0.69977 0.92419 0.35167 0.0
C191 C 0.7014 0.8974 0.41714 0.0
O192 O 0.72087 0.84085 0.38922 0.0
C193 C 0.71801 0.92874 0.34433 0.0
O194 O 0.73401 0.86284 0.36278 0.0
O195 O 0.73221 0.91529 0.34691 0.0
C196 C 0.07826 0.74124 0.3504 0.0
O197 O 0.08864 0.7541 0.36272 0.0
Cd198 Cd 0.12622 0.75257 0.36708 0.0
O199 O 0.0874 0.72638 0.33996 0.0
Cd200 Cd 0.12251 0.71182 0.33484 0.0
C201 C 0.12996 0.70521 0.3939 0.0
O202 O 0.14075 0.74395 0.32918 0.0
O203 O 0.16035 0.71723 0.33324 0.0
O204 O 0.11444 0.7048 0.29352 0.0
C205 C 0.159 0.73635 0.32942 0.0
O206 O 0.13308 0.72448 0.39461 0.0
C207 C 0.11875 0.68584 0.29447 0.0
O208 O 0.12377 0.69643 0.37477 0.0
O209 O 0.12393 0.67858 0.31479 0.0
C210 C 0.32816 0.1295 0.3416 0.0
O211 O 0.32893 0.14157 0.35948 0.0
Cd212 Cd 0.30815 0.13801 0.3953 0.0
O213 O 0.3148 0.11505 0.34065 0.0
Cd214 Cd 0.28559 0.10209 0.36497 0.0
C215 C 0.2602 0.14767 0.37083 0.0
O216 O 0.30535 0.10209 0.40204 0.0
O217 O 0.27305 0.09275 0.40518 0.0
O218 O 0.29318 0.06819 0.35061 0.0
C219 C 0.29063 0.09561 0.41523 0.0
O220 O 0.27412 0.15264 0.38611 0.0
C221 C 0.27518 0.06472 0.34184 0.0
O222 O 0.26151 0.131 0.35902 0.0
O223 O 0.26178 0.07905 0.34316 0.0
C224 C 0.61723 0.81583 0.83083 0.0
O225 O 0.63172 0.82134 0.84506 0.0
Cd226 Cd 0.63934 0.80549 0.88295 0.0
O227 O 0.60526 0.80085 0.83592 0.0
Cd228 Cd 0.60002 0.77558 0.86816 0.0
C229 C 0.64962 0.75666 0.86284 0.0
O230 O 0.60648 0.79868 0.90184 0.0
O231 O 0.60072 0.7668 0.91022 0.0
O232 O 0.56255 0.77883 0.86351 0.0
C233 C 0.60464 0.78476 0.9176 0.0
O234 O 0.65608 0.7735 0.87169 0.0
C235 C 0.55928 0.76021 0.85808 0.0
O236 O 0.63019 0.75352 0.85903 0.0
O237 O 0.57519 0.74854 0.85695 0.0
C238 C 0.12847 0.63528 0.82253 0.0
O239 O 0.12657 0.64713 0.84045 0.0
Cd240 Cd 0.15172 0.64705 0.87275 0.0
O241 O 0.14415 0.6234 0.82078 0.0
Cd242 Cd 0.17592 0.6155 0.84308 0.0
C243 C 0.19469 0.66325 0.84181 0.0
O244 O 0.16277 0.61315 0.88421 0.0
O245 O 0.19614 0.61779 0.87947 0.0
O246 O 0.173 0.57934 0.83556 0.0
C247 C 0.18101 0.61342 0.89331 0.0
O248 O 0.18209 0.66666 0.85911 0.0
C249 C 0.19036 0.57742 0.8247 0.0
O250 O 0.19427 0.64631 0.83051 0.0
O251 O 0.20099 0.59363 0.82135 0.0
C252 C 0.34828 0.16128 0.84284 0.0
O253 O 0.33344 0.16048 0.858 0.0
Cd254 Cd 0.33234 0.18208 0.89309 0.0
O255 O 0.36271 0.17458 0.84473 0.0
Cd256 Cd 0.372 0.20327 0.87081 0.0
C257 C 0.32561 0.22916 0.8685 0.0
O258 O 0.36754 0.18488 0.90893 0.0
O259 O 0.37705 0.21671 0.91058 0.0
O260 O 0.4091 0.19853 0.86291 0.0
C261 C 0.37333 0.20008 0.92152 0.0
O262 O 0.31738 0.21475 0.88066 0.0
C263 C 0.41148 0.21561 0.85232 0.0
O264 O 0.34466 0.22822 0.86194 0.0
O265 O 0.39537 0.22682 0.85006 0.0
C266 C 0.83508 0.35751 0.82009 0.0
O267 O 0.83497 0.3466 0.83901 0.0
Cd268 Cd 0.81557 0.35371 0.87523 0.0
O269 O 0.82369 0.37346 0.81833 0.0
Cd270 Cd 0.79739 0.39199 0.84194 0.0
C271 C 0.76712 0.34935 0.84981 0.0
O272 O 0.817 0.38999 0.8789 0.0
O273 O 0.78737 0.40541 0.88159 0.0
O274 O 0.80681 0.42285 0.81982 0.0
C275 C 0.80374 0.39906 0.89201 0.0
O276 O 0.77994 0.34287 0.8656 0.0
C277 C 0.78795 0.42836 0.81629 0.0
O278 O 0.77077 0.36561 0.83789 0.0
O279 O 0.77366 0.41649 0.82394 0.0
C280 C 0.63231 0.1533 0.13588 0.0
O281 O 0.64575 0.15012 0.11952 0.0
Cd282 Cd 0.64775 0.17072 0.08368 0.0
O283 O 0.61966 0.16826 0.13438 0.0
Cd284 Cd 0.6136 0.1968 0.10681 0.0
C285 C 0.66226 0.21573 0.10944 0.0
O286 O 0.61398 0.1795 0.06762 0.0
O287 O 0.61834 0.21239 0.06789 0.0
O288 O 0.57597 0.19538 0.11171 0.0
C289 C 0.61508 0.19617 0.05595 0.0
O290 O 0.66672 0.2019 0.09415 0.0
C291 C 0.57408 0.21298 0.12113 0.0
O292 O 0.64438 0.21621 0.11954 0.0
O293 O 0.59078 0.22322 0.12425 0.0
C294 C 0.84398 0.61761 0.16836 0.0
O295 O 0.84702 0.62831 0.14959 0.0
Cd296 Cd 0.82649 0.62614 0.1133 0.0
O297 O 0.82883 0.60497 0.16961 0.0
Cd298 Cd 0.79914 0.59336 0.14536 0.0
C299 C 0.78076 0.64205 0.13897 0.0
O300 O 0.8185 0.59075 0.10798 0.0
O301 O 0.78551 0.58406 0.10582 0.0
O302 O 0.80215 0.56073 0.16582 0.0
C303 C 0.80297 0.58557 0.09521 0.0
O304 O 0.79482 0.64522 0.12316 0.0
C305 C 0.7826 0.55859 0.16941 0.0
O306 O 0.77997 0.62529 0.15066 0.0
O307 O 0.77082 0.57322 0.1628 0.0
C308 C 0.37544 0.82341 0.13779 0.0
O309 O 0.36425 0.83039 0.12079 0.0
Cd310 Cd 0.36152 0.81363 0.08215 0.0
O311 O 0.38685 0.80766 0.13474 0.0
Cd312 Cd 0.39735 0.78352 0.10343 0.0
C313 C 0.34801 0.76502 0.10096 0.0
O314 O 0.39665 0.80756 0.06946 0.0
O315 O 0.4021 0.7757 0.06138 0.0
O316 O 0.43129 0.78632 0.12268 0.0
C317 C 0.4002 0.79389 0.0538 0.0
O318 O 0.34319 0.78101 0.08903 0.0
C319 C 0.43564 0.7674 0.12084 0.0
O320 O 0.36622 0.76274 0.10985 0.0
O321 O 0.42199 0.75585 0.11125 0.0
C322 C 0.17721 0.3678 0.16632 0.0
O323 O 0.1671 0.36179 0.14804 0.0
Cd324 Cd 0.18692 0.35786 0.11196 0.0
O325 O 0.19572 0.37481 0.16415 0.0
Cd326 Cd 0.22072 0.3853 0.13252 0.0
C327 C 0.23317 0.33629 0.13203 0.0
O328 O 0.19759 0.39134 0.09798 0.0
O329 O 0.23018 0.38512 0.09036 0.0
O330 O 0.22052 0.4179 0.1531 0.0
C331 C 0.21239 0.39078 0.08276 0.0
O332 O 0.21537 0.33355 0.1222 0.0
C333 C 0.24007 0.42105 0.15146 0.0
O334 O 0.23932 0.35403 0.1381 0.0
O335 O 0.25095 0.40739 0.14107 0.0
C336 C 0.42556 0.24555 0.15398 0.0
O337 O 0.41481 0.26061 0.14647 0.0
Cd338 Cd 0.37756 0.25833 0.13962 0.0
O339 O 0.41688 0.22842 0.15851 0.0
Cd340 Cd 0.38243 0.21181 0.15822 0.0
C341 C 0.3787 0.21827 0.09896 0.0
O342 O 0.36079 0.24041 0.17159 0.0
O343 O 0.3448 0.21497 0.155 0.0
O344 O 0.39307 0.19622 0.19565 0.0
C345 C 0.3436 0.23226 0.16523 0.0
O346 O 0.37419 0.2368 0.10401 0.0
C347 C 0.38576 0.17862 0.19078 0.0
O348 O 0.38466 0.20574 0.11513 0.0
O349 O 0.37766 0.17615 0.17014 0.0
C350 C 0.82892 0.36105 0.15178 0.0
O351 O 0.83419 0.34836 0.13563 0.0
Cd352 Cd 0.81443 0.34465 0.09949 0.0
O353 O 0.81265 0.37209 0.14938 0.0
Cd354 Cd 0.78442 0.37794 0.12004 0.0
C355 C 0.76672 0.32932 0.12141 0.0
O356 O 0.8061 0.37824 0.08423 0.0
O357 O 0.77254 0.37688 0.07856 0.0
O358 O 0.78604 0.41446 0.12356 0.0
C359 C 0.79075 0.3792 0.0698 0.0
O360 O 0.78369 0.32463 0.11076 0.0
C361 C 0.76922 0.41676 0.13531 0.0
O362 O 0.7629 0.34773 0.12754 0.0
O363 O 0.75877 0.40072 0.14016 0.0
C364 C 0.58875 0.7453 0.13835 0.0
O365 O 0.59811 0.72888 0.13249 0.0
Cd366 Cd 0.63522 0.72818 0.12562 0.0
O367 O 0.59888 0.76157 0.14339 0.0
Cd368 Cd 0.6347 0.77482 0.1491 0.0
C369 C 0.63873 0.77163 0.08917 0.0
O370 O 0.64929 0.74253 0.16105 0.0
O371 O 0.67205 0.76605 0.154 0.0
O372 O 0.62047 0.78967 0.18549 0.0
C373 C 0.66836 0.74772 0.1602 0.0
O374 O 0.64 0.75228 0.09213 0.0
C375 C 0.63078 0.80625 0.18388 0.0
O376 O 0.63573 0.78366 0.10684 0.0
O377 O 0.64236 0.80855 0.16551 0.0
C378 C 0.17758 0.62784 0.14719 0.0
O379 O 0.17114 0.63731 0.12868 0.0
Cd380 Cd 0.19035 0.63988 0.09209 0.0
O381 O 0.1945 0.61746 0.14689 0.0
Cd382 Cd 0.22143 0.60522 0.11825 0.0
C383 C 0.23999 0.65363 0.11255 0.0
O384 O 0.19808 0.60506 0.08491 0.0
O385 O 0.22995 0.59732 0.07599 0.0
O386 O 0.21491 0.57132 0.1325 0.0
C387 C 0.21127 0.60012 0.06901 0.0
O388 O 0.2227 0.65816 0.10242 0.0
C389 C 0.23367 0.56709 0.13812 0.0
O390 O 0.24371 0.63556 0.12012 0.0
O391 O 0.24724 0.58119 0.13548 0.0
C392 C 0.40807 0.73028 0.83961 0.0
O393 O 0.397 0.7184 0.85248 0.0
Cd394 Cd 0.36011 0.72389 0.85955 0.0
O395 O 0.4 0.74595 0.82965 0.0
Cd396 Cd 0.36641 0.76395 0.8261 0.0
C397 C 0.3648 0.77132 0.88613 0.0
O398 O 0.34417 0.73396 0.82277 0.0
O399 O 0.32824 0.76293 0.82749 0.0
O400 O 0.37278 0.76913 0.78387 0.0
C401 C 0.32705 0.74376 0.82401 0.0
O402 O 0.35955 0.75252 0.88749 0.0
C403 C 0.37115 0.7885 0.78439 0.0
O404 O 0.36982 0.77941 0.8661 0.0
O405 O 0.36814 0.79677 0.80477 0.0
C406 C 0.16949 0.37337 0.83454 0.0
O407 O 0.16631 0.36302 0.85354 0.0
Cd408 Cd 0.18585 0.36772 0.89019 0.0
O409 O 0.18437 0.38629 0.83317 0.0
Cd410 Cd 0.21365 0.40049 0.85636 0.0
C411 C 0.2342 0.35341 0.86782 0.0
O412 O 0.19172 0.40359 0.89139 0.0
O413 O 0.22312 0.41469 0.89598 0.0
O414 O 0.206 0.42768 0.82837 0.0
C415 C 0.20535 0.41119 0.90524 0.0
O416 O 0.2191 0.35064 0.88244 0.0
C417 C 0.22447 0.43481 0.82746 0.0
O418 O 0.23529 0.36937 0.85466 0.0
O419 O 0.2384 0.42557 0.83965 0.0
C420 C 0.55847 0.25958 0.82822 0.0
O421 O 0.56598 0.27517 0.83883 0.0
Cd422 Cd 0.60188 0.27705 0.85102 0.0
O423 O 0.57018 0.24459 0.82241 0.0
Cd424 Cd 0.60688 0.23328 0.82316 0.0
C425 C 0.60351 0.23169 0.88342 0.0
O426 O 0.62263 0.26691 0.81729 0.0
O427 O 0.64377 0.242 0.8252 0.0
O428 O 0.59934 0.22051 0.78314 0.0
C429 C 0.64129 0.26081 0.82053 0.0
O430 O 0.60297 0.25119 0.88258 0.0
C431 C 0.60919 0.20379 0.78585 0.0
O432 O 0.60461 0.22095 0.86439 0.0
O433 O 0.61746 0.20049 0.80623 0.0
C434 C 0.83622 0.64159 0.84775 0.0
O435 O 0.8361 0.65255 0.86657 0.0
Cd436 Cd 0.81299 0.64525 0.89957 0.0
O437 O 0.82323 0.627 0.84516 0.0
Cd438 Cd 0.79403 0.61161 0.86724 0.0
C439 C 0.76577 0.65471 0.87288 0.0
O440 O 0.81135 0.60888 0.90583 0.0
O441 O 0.7777 0.60485 0.90619 0.0
O442 O 0.80437 0.57776 0.85547 0.0
C443 C 0.79505 0.60351 0.91719 0.0
O444 O 0.77872 0.65936 0.88941 0.0
C445 C 0.78812 0.5736 0.84336 0.0
O446 O 0.76854 0.63884 0.85998 0.0
O447 O 0.77422 0.58744 0.84174 0.0
C448 C 0.23529 0.17405 0.3856 0.0
C449 C 0.24249 0.16174 0.36673 0.0
C450 C 0.21937 0.18844 0.38194 0.0
C451 C 0.21082 0.19098 0.35867 0.0
C452 C 0.21776 0.17833 0.33959 0.0
C453 C 0.23338 0.16362 0.34393 0.0
C454 C 0.21205 0.20129 0.4029 0.0
C455 C 0.20932 0.18092 0.31445 0.0
C456 C 0.15995 0.22089 0.3571 0.0
C457 C 0.16745 0.24098 0.35472 0.0
C458 C 0.17382 0.2042 0.35724 0.0
C459 C 0.19556 0.20775 0.35435 0.0
C460 C 0.20297 0.22788 0.35015 0.0
C461 C 0.18884 0.2443 0.35074 0.0
C462 C 0.16536 0.18301 0.36218 0.0
C463 C 0.22597 0.23223 0.34636 0.0
H464 H 0.24218 0.17244 0.40329 0.0
H465 H 0.23905 0.15417 0.3293 0.0
H466 H 0.21635 0.21756 0.39989 0.0
H467 H 0.19474 0.20056 0.4045 0.0
H468 H 0.21905 0.19623 0.42018 0.0
H469 H 0.21523 0.16893 0.30202 0.0
H470 H 0.19196 0.18043 0.31455 0.0
H471 H 0.214 0.19615 0.30738 0.0
H472 H 0.1434 0.21831 0.36028 0.0
H473 H 0.19462 0.25983 0.34862 0.0
H474 H 0.17019 0.17813 0.38046 0.0
H475 H 0.17193 0.17176 0.3493 0.0
H476 H 0.14799 0.18246 0.36113 0.0
H477 H 0.23454 0.22995 0.36348 0.0
H478 H 0.22878 0.24817 0.34011 0.0
H479 H 0.23268 0.22146 0.333 0.0
C480 C 0.72732 0.19752 0.3273 0.0
C481 C 0.73454 0.1778 0.33272 0.0
C482 C 0.74143 0.21387 0.32462 0.0
C483 C 0.76307 0.21045 0.32848 0.0
C484 C 0.77037 0.1905 0.33397 0.0
C485 C 0.75602 0.17432 0.33556 0.0
C486 C 0.73321 0.23477 0.31784 0.0
C487 C 0.79324 0.18635 0.33897 0.0
C488 C 0.80669 0.24563 0.3079 0.0
C489 C 0.81091 0.2565 0.32901 0.0
C490 C 0.79007 0.23159 0.30692 0.0
C491 C 0.77813 0.22776 0.32788 0.0
C492 C 0.78201 0.23917 0.34905 0.0
C493 C 0.79816 0.25371 0.34921 0.0
C494 C 0.78584 0.22029 0.28377 0.0
C495 C 0.77009 0.23507 0.372 0.0
H496 H 0.71067 0.2001 0.32494 0.0
H497 H 0.76152 0.15906 0.33999 0.0
H498 H 0.73564 0.24564 0.33289 0.0
H499 H 0.74198 0.24083 0.30215 0.0
H500 H 0.71625 0.23444 0.31338 0.0
H501 H 0.79625 0.17003 0.34346 0.0
H502 H 0.80286 0.19049 0.32311 0.0
H503 H 0.79864 0.196 0.35418 0.0
H504 H 0.81656 0.24793 0.29228 0.0
H505 H 0.80164 0.262 0.36561 0.0
H506 H 0.76881 0.22023 0.27975 0.0
H507 H 0.79089 0.20411 0.28556 0.0
H508 H 0.79432 0.22721 0.26834 0.0
H509 H 0.75298 0.23601 0.3688 0.0
H510 H 0.77429 0.246 0.38651 0.0
H511 H 0.77351 0.21929 0.37832 0.0
C512 C 0.80196 0.74738 0.35421 0.0
C513 C 0.82345 0.74912 0.35887 0.0
C514 C 0.7891 0.76476 0.35354 0.0
C515 C 0.79788 0.78427 0.35825 0.0
C516 C 0.81977 0.78625 0.36162 0.0
C517 C 0.83237 0.76862 0.36163 0.0
C518 C 0.7659 0.76205 0.34926 0.0
C519 C 0.82967 0.80675 0.36699 0.0
C520 C 0.7625 0.83033 0.34822 0.0
C521 C 0.75307 0.83217 0.37086 0.0
C522 C 0.77767 0.81516 0.34387 0.0
C523 C 0.78375 0.80194 0.36279 0.0
C524 C 0.77508 0.80455 0.386 0.0
C525 C 0.75965 0.81947 0.38966 0.0
C526 C 0.78631 0.81259 0.31882 0.0
C527 C 0.78149 0.79107 0.4068 0.0
H528 H 0.79509 0.73233 0.35177 0.0
H529 H 0.84898 0.77 0.36531 0.0
H530 H 0.75727 0.76469 0.36628 0.0
H531 H 0.76018 0.77344 0.336 0.0
H532 H 0.76205 0.74644 0.34265 0.0
H533 H 0.84703 0.80616 0.36586 0.0
H534 H 0.82386 0.81864 0.35442 0.0
H535 H 0.82524 0.81161 0.38541 0.0
H536 H 0.75731 0.84008 0.33362 0.0
H537 H 0.75251 0.82102 0.40724 0.0
H538 H 0.78032 0.79808 0.31101 0.0
H539 H 0.80364 0.8115 0.31923 0.0
H540 H 0.78175 0.82543 0.30681 0.0
H541 H 0.77616 0.77513 0.40352 0.0
H542 H 0.77473 0.79636 0.42411 0.0
H543 H 0.7988 0.79073 0.40848 0.0
C544 C 0.17611 0.77017 0.33493 0.0
C545 C 0.17774 0.74945 0.32872 0.0
C546 C 0.19386 0.78276 0.33545 0.0
C547 C 0.21358 0.77451 0.32902 0.0
C548 C 0.21528 0.75366 0.32232 0.0
C549 C 0.19731 0.74127 0.32254 0.0
C550 C 0.1915 0.80485 0.34313 0.0
C551 C 0.236 0.74454 0.3148 0.0
C552 C 0.25198 0.81575 0.31097 0.0
C553 C 0.26333 0.81837 0.33227 0.0
C554 C 0.23668 0.80046 0.30908 0.0
C555 C 0.23228 0.78796 0.32923 0.0
C556 C 0.24436 0.78995 0.35043 0.0
C557 C 0.25998 0.80502 0.35159 0.0
C558 C 0.2245 0.7984 0.28596 0.0
C559 C 0.23984 0.77715 0.37243 0.0
H560 H 0.16103 0.77646 0.33992 0.0
H561 H 0.19852 0.72521 0.31763 0.0
H562 H 0.20198 0.8081 0.35857 0.0
H563 H 0.19624 0.81518 0.32827 0.0
H564 H 0.17517 0.80865 0.3484 0.0
H565 H 0.23456 0.72815 0.30966 0.0
H566 H 0.24247 0.7532 0.29933 0.0
H567 H 0.24748 0.74582 0.32967 0.0
H568 H 0.25477 0.82595 0.29594 0.0
H569 H 0.26871 0.80715 0.3681 0.0
H570 H 0.20829 0.80406 0.28868 0.0
H571 H 0.22343 0.78207 0.28052 0.0
H572 H 0.23173 0.80726 0.27107 0.0
H573 H 0.22435 0.78153 0.37992 0.0
H574 H 0.25187 0.77923 0.38663 0.0
H575 H 0.23901 0.76067 0.36767 0.0
C576 C 0.15924 0.76552 0.61449 0.0
C577 C 0.1663 0.74577 0.62014 0.0
C578 C 0.17325 0.78208 0.61341 0.0
C579 C 0.19469 0.77884 0.6187 0.0
C580 C 0.20162 0.75916 0.62586 0.0
C581 C 0.18739 0.74279 0.62617 0.0
C582 C 0.16534 0.80274 0.60525 0.0
C583 C 0.22425 0.75521 0.63228 0.0
C584 C 0.23631 0.81177 0.58918 0.0
C585 C 0.24124 0.82562 0.60754 0.0
C586 C 0.22072 0.79689 0.59239 0.0
C587 C 0.21021 0.79548 0.61474 0.0
C588 C 0.21505 0.8095 0.63333 0.0
C589 C 0.23035 0.8246 0.62939 0.0
C590 C 0.21566 0.78252 0.57192 0.0
C591 C 0.20454 0.80814 0.65757 0.0
H592 H 0.14296 0.76783 0.60966 0.0
H593 H 0.19285 0.72755 0.63076 0.0
H594 H 0.17033 0.81489 0.61794 0.0
H595 H 0.17223 0.80649 0.58748 0.0
H596 H 0.148 0.80313 0.60365 0.0
H597 H 0.22659 0.73971 0.64009 0.0
H598 H 0.23412 0.75655 0.61596 0.0
H599 H 0.22987 0.76681 0.64534 0.0
H600 H 0.24459 0.81264 0.5722 0.0
H601 H 0.23427 0.83521 0.64368 0.0
H602 H 0.19861 0.78286 0.56806 0.0
H603 H 0.21973 0.76658 0.57701 0.0
H604 H 0.22429 0.78651 0.55523 0.0
H605 H 0.18728 0.80894 0.65552 0.0
H606 H 0.20964 0.82057 0.66989 0.0
H607 H 0.20821 0.79316 0.66601 0.0
C608 C 0.23771 0.17097 0.64843 0.0
C609 C 0.25942 0.17306 0.65071 0.0
C610 C 0.22451 0.18797 0.65083 0.0
C611 C 0.23324 0.20732 0.65655 0.0
C612 C 0.25514 0.20933 0.65981 0.0
C613 C 0.26806 0.19219 0.65634 0.0
C614 C 0.2013 0.18533 0.64649 0.0
C615 C 0.26486 0.22955 0.66682 0.0
C616 C 0.19982 0.25239 0.63792 0.0
C617 C 0.18753 0.25517 0.65849 0.0
C618 C 0.21549 0.23738 0.63734 0.0
C619 C 0.21934 0.22546 0.65813 0.0
C620 C 0.20807 0.22942 0.67954 0.0
C621 C 0.19192 0.24397 0.6793 0.0
C622 C 0.22671 0.23321 0.61396 0.0
C623 C 0.21232 0.21756 0.7023 0.0
H624 H 0.23112 0.15616 0.64386 0.0
H625 H 0.2849 0.19368 0.65827 0.0
H626 H 0.19238 0.18961 0.66282 0.0
H627 H 0.19614 0.19567 0.63181 0.0
H628 H 0.19714 0.16934 0.64157 0.0
H629 H 0.28189 0.22812 0.67059 0.0
H630 H 0.26269 0.24087 0.65218 0.0
H631 H 0.25696 0.23577 0.68301 0.0
H632 H 0.19621 0.26095 0.62175 0.0
H633 H 0.1824 0.24626 0.69521 0.0
H634 H 0.22204 0.21791 0.60709 0.0
H635 H 0.2439 0.23291 0.61673 0.0
H636 H 0.22303 0.24485 0.60001 0.0
H637 H 0.20614 0.20175 0.70046 0.0
H638 H 0.2048 0.22478 0.71818 0.0
H639 H 0.22942 0.21639 0.70558 0.0
C640 C 0.75966 0.15424 0.63217 0.0
C641 C 0.75058 0.15263 0.60933 0.0
C642 C 0.77688 0.16722 0.63609 0.0
C643 C 0.78538 0.1784 0.61658 0.0
C644 C 0.77711 0.17569 0.59321 0.0
C645 C 0.75963 0.16303 0.58993 0.0
C646 C 0.78509 0.16995 0.6613 0.0
C647 C 0.78601 0.18699 0.57183 0.0
C648 C 0.80928 0.23095 0.62412 0.0
C649 C 0.83069 0.22678 0.6216 0.0
C650 C 0.79449 0.21512 0.62402 0.0
C651 C 0.80125 0.19465 0.62073 0.0
C652 C 0.82292 0.19025 0.61911 0.0
C653 C 0.83746 0.20641 0.61983 0.0
C654 C 0.77154 0.22043 0.62636 0.0
C655 C 0.83067 0.16865 0.61524 0.0
H656 H 0.75261 0.14624 0.6472 0.0
H657 H 0.75278 0.16158 0.5722 0.0
H658 H 0.80243 0.16899 0.66159 0.0
H659 H 0.78072 0.1854 0.66796 0.0
H660 H 0.77862 0.15832 0.67386 0.0
H661 H 0.77943 0.18136 0.55458 0.0
H662 H 0.78246 0.20357 0.57345 0.0
H663 H 0.80331 0.18534 0.57127 0.0
H664 H 0.80405 0.24669 0.62583 0.0
H665 H 0.85403 0.20318 0.61783 0.0
H666 H 0.76398 0.21056 0.64009 0.0
H667 H 0.76349 0.21756 0.60903 0.0
H668 H 0.76909 0.23672 0.6314 0.0
H669 H 0.8232 0.15799 0.62817 0.0
H670 H 0.84795 0.16749 0.61711 0.0
H671 H 0.82627 0.16349 0.59693 0.0
C672 C 0.81465 0.78008 0.65949 0.0
C673 C 0.81323 0.75918 0.66501 0.0
C674 C 0.79662 0.79224 0.65802 0.0
C675 C 0.7768 0.78334 0.6627 0.0
C676 C 0.7754 0.7625 0.66952 0.0
C677 C 0.79365 0.75059 0.67034 0.0
C678 C 0.7987 0.81436 0.65036 0.0
C679 C 0.75457 0.75264 0.67516 0.0
C680 C 0.73254 0.82105 0.67274 0.0
C681 C 0.72314 0.82146 0.64998 0.0
C682 C 0.74952 0.80805 0.67749 0.0
C683 C 0.75752 0.79556 0.65886 0.0
C684 C 0.74778 0.79556 0.63602 0.0
C685 C 0.73054 0.80837 0.63194 0.0
C686 C 0.75922 0.80806 0.70221 0.0
C687 C 0.75609 0.78265 0.61561 0.0
H688 H 0.82977 0.78674 0.65525 0.0
H689 H 0.79257 0.73445 0.6748 0.0
H690 H 0.7906 0.81666 0.63294 0.0
H691 H 0.79106 0.82456 0.66367 0.0
H692 H 0.81531 0.81913 0.64833 0.0
H693 H 0.7564 0.73693 0.68257 0.0
H694 H 0.74574 0.76208 0.68829 0.0
H695 H 0.74497 0.75172 0.6586 0.0
H696 H 0.72672 0.83103 0.6868 0.0
H697 H 0.72339 0.80872 0.61429 0.0
H698 H 0.77529 0.81449 0.70129 0.0
H699 H 0.76059 0.79215 0.70907 0.0
H700 H 0.74997 0.81723 0.71526 0.0
H701 H 0.77232 0.78745 0.61119 0.0
H702 H 0.74634 0.78398 0.59915 0.0
H703 H 0.75672 0.7663 0.621 0.0
C704 C 0.68583 0.74529 0.85314 0.0
C705 C 0.66501 0.74022 0.85846 0.0
C706 C 0.7014 0.73019 0.85229 0.0
C707 C 0.69608 0.70961 0.85748 0.0
C708 C 0.67488 0.70423 0.86162 0.0
C709 C 0.65951 0.71963 0.86181 0.0
C710 C 0.72374 0.73648 0.84721 0.0
C711 C 0.66865 0.6825 0.86755 0.0
C712 C 0.73743 0.66872 0.84645 0.0
C713 C 0.7473 0.66791 0.86893 0.0
C714 C 0.72047 0.68202 0.84243 0.0
C715 C 0.71303 0.69439 0.86149 0.0
C716 C 0.72253 0.69308 0.88441 0.0
C717 C 0.73968 0.68003 0.88777 0.0
C718 C 0.71098 0.68332 0.81765 0.0
C719 C 0.71481 0.70575 0.90534 0.0
H720 H 0.69006 0.7612 0.85025 0.0
H721 H 0.64342 0.71569 0.86601 0.0
H722 H 0.7331 0.73539 0.86395 0.0
H723 H 0.73096 0.72604 0.83384 0.0
H724 H 0.72481 0.75245 0.84038 0.0
H725 H 0.65138 0.68038 0.86738 0.0
H726 H 0.67578 0.67159 0.85465 0.0
H727 H 0.67456 0.67849 0.88569 0.0
H728 H 0.74334 0.65941 0.83182 0.0
H729 H 0.74711 0.67927 0.90525 0.0
H730 H 0.71366 0.69884 0.81012 0.0
H731 H 0.69379 0.68097 0.81857 0.0
H732 H 0.71777 0.67184 0.80514 0.0
H733 H 0.71731 0.72226 0.90156 0.0
H734 H 0.72297 0.70186 0.92236 0.0
H735 H 0.69774 0.70341 0.90792 0.0
C736 C 0.2216 0.67799 0.81417 0.0
C737 C 0.21145 0.67815 0.83651 0.0
C738 C 0.23928 0.69026 0.81005 0.0
C739 C 0.24725 0.70251 0.82893 0.0
C740 C 0.23657 0.70334 0.85119 0.0
C741 C 0.21862 0.69132 0.85461 0.0
C742 C 0.24995 0.68944 0.78587 0.0
C743 C 0.2448 0.71593 0.87191 0.0
C744 C 0.3057 0.71234 0.83041 0.0
C745 C 0.30672 0.73307 0.82402 0.0
C746 C 0.2864 0.7022 0.8319 0.0
C747 C 0.26777 0.71294 0.82626 0.0
C748 C 0.26878 0.73371 0.81904 0.0
C749 C 0.28827 0.74363 0.81832 0.0
C750 C 0.28592 0.68015 0.84015 0.0
C751 C 0.24927 0.74546 0.81233 0.0
H752 H 0.21596 0.66795 0.80007 0.0
H753 H 0.21089 0.6914 0.87195 0.0
H754 H 0.25331 0.70515 0.77928 0.0
H755 H 0.26515 0.68135 0.78756 0.0
H756 H 0.24031 0.68132 0.77225 0.0
H757 H 0.23392 0.71596 0.88749 0.0
H758 H 0.2601 0.70965 0.87786 0.0
H759 H 0.24751 0.73199 0.8662 0.0
H760 H 0.31995 0.70419 0.83497 0.0
H761 H 0.2891 0.75964 0.81319 0.0
H762 H 0.27842 0.67039 0.82629 0.0
H763 H 0.27637 0.67881 0.85675 0.0
H764 H 0.30182 0.67403 0.84387 0.0
H765 H 0.24039 0.73702 0.79835 0.0
H766 H 0.25291 0.76106 0.8055 0.0
H767 H 0.23888 0.74693 0.8282 0.0
C768 C 0.29152 0.24697 0.86182 0.0
C769 C 0.31338 0.24789 0.86361 0.0
C770 C 0.27959 0.2649 0.85959 0.0
C771 C 0.28975 0.2842 0.85992 0.0
C772 C 0.31188 0.28518 0.86089 0.0
C773 C 0.32346 0.26696 0.8624 0.0
C774 C 0.25604 0.26322 0.85789 0.0
C775 C 0.32326 0.30545 0.86186 0.0
C776 C 0.25793 0.33135 0.84323 0.0
C777 C 0.25017 0.33723 0.86574 0.0
C778 C 0.27113 0.31423 0.84097 0.0
C779 C 0.27709 0.30323 0.86181 0.0
C780 C 0.27009 0.30982 0.88468 0.0
C781 C 0.25644 0.32654 0.88631 0.0
C782 C 0.27787 0.30735 0.81627 0.0
C783 C 0.27656 0.29887 0.9074 0.0
H784 H 0.28372 0.23222 0.86249 0.0
H785 H 0.34038 0.26771 0.86392 0.0
H786 H 0.24883 0.26881 0.8748 0.0
H787 H 0.25005 0.27296 0.84307 0.0
H788 H 0.25081 0.24719 0.85482 0.0
H789 H 0.3405 0.30359 0.86032 0.0
H790 H 0.31781 0.31571 0.84727 0.0
H791 H 0.31973 0.31318 0.87915 0.0
H792 H 0.25287 0.33954 0.82731 0.0
H793 H 0.25051 0.33121 0.90373 0.0
H794 H 0.2708 0.29219 0.81226 0.0
H795 H 0.29512 0.30544 0.81553 0.0
H796 H 0.27305 0.31833 0.80206 0.0
H797 H 0.26984 0.28319 0.90759 0.0
H798 H 0.27124 0.30702 0.92382 0.0
H799 H 0.29386 0.2973 0.9081 0.0
C800 C 0.67943 0.26789 0.81821 0.0
C801 C 0.65904 0.27512 0.82196 0.0
C802 C 0.69675 0.28075 0.82148 0.0
C803 C 0.69354 0.30115 0.82925 0.0
C804 C 0.67294 0.30866 0.83261 0.0
C805 C 0.65585 0.29557 0.82863 0.0
C806 C 0.71847 0.27235 0.81716 0.0
C807 C 0.66899 0.33022 0.84132 0.0
C808 C 0.73921 0.32492 0.86254 0.0
C809 C 0.74788 0.33761 0.84485 0.0
C810 C 0.72112 0.31342 0.85789 0.0
C811 C 0.71184 0.31429 0.83482 0.0
C812 C 0.72051 0.32711 0.8169 0.0
C813 C 0.73832 0.33882 0.82223 0.0
C814 C 0.71204 0.3002 0.87759 0.0
C815 C 0.7113 0.32804 0.79194 0.0
H816 H 0.68186 0.25204 0.81288 0.0
H817 H 0.64009 0.30109 0.83172 0.0
H818 H 0.72726 0.28255 0.8048 0.0
H819 H 0.72725 0.27184 0.83435 0.0
H820 H 0.71815 0.25667 0.8094 0.0
H821 H 0.65202 0.33392 0.84218 0.0
H822 H 0.67581 0.33218 0.8595 0.0
H823 H 0.6768 0.34143 0.82934 0.0
H824 H 0.74648 0.3241 0.88011 0.0
H825 H 0.7451 0.34852 0.80845 0.0
H826 H 0.71294 0.28383 0.87236 0.0
H827 H 0.69525 0.30393 0.8803 0.0
H828 H 0.72039 0.30221 0.89493 0.0
H829 H 0.71201 0.31265 0.7835 0.0
H830 H 0.7197 0.3391 0.7802 0.0
H831 H 0.69456 0.33251 0.79282 0.0
C832 C 0.69078 0.23881 0.09575 0.0
C833 C 0.67755 0.23215 0.11424 0.0
C834 C 0.70475 0.25506 0.09935 0.0
C835 C 0.70599 0.26444 0.12223 0.0
C836 C 0.69299 0.25747 0.14116 0.0
C837 C 0.67861 0.24159 0.13681 0.0
C838 C 0.71796 0.26238 0.07851 0.0
C839 C 0.69438 0.26668 0.16598 0.0
C840 C 0.75699 0.29316 0.1302 0.0
C841 C 0.75081 0.3133 0.12522 0.0
C842 C 0.74223 0.27726 0.13111 0.0
C843 C 0.72096 0.28156 0.12602 0.0
C844 C 0.71454 0.30204 0.1219 0.0
C845 C 0.72955 0.31775 0.12192 0.0
C846 C 0.74958 0.25573 0.13637 0.0
C847 C 0.6921 0.30717 0.1158 0.0
H848 H 0.68979 0.23167 0.07821 0.0
H849 H 0.66842 0.23635 0.15114 0.0
H850 H 0.71528 0.27898 0.07541 0.0
H851 H 0.73482 0.26038 0.08272 0.0
H852 H 0.71445 0.25399 0.06163 0.0
H853 H 0.68368 0.25905 0.17893 0.0
H854 H 0.71067 0.26545 0.1728 0.0
H855 H 0.69044 0.28322 0.16529 0.0
H856 H 0.77344 0.28978 0.133 0.0
H857 H 0.72482 0.33334 0.11793 0.0
H858 H 0.74903 0.24646 0.11969 0.0
H859 H 0.73909 0.24828 0.14966 0.0
H860 H 0.76586 0.25544 0.14339 0.0
H861 H 0.68811 0.30052 0.09803 0.0
H862 H 0.68934 0.32397 0.11509 0.0
H863 H 0.68126 0.30035 0.12915 0.0
C864 C 0.75897 0.6715 0.12548 0.0
C865 C 0.76509 0.65807 0.1438 0.0
C866 C 0.74356 0.68637 0.12956 0.0
C867 C 0.73454 0.68819 0.1527 0.0
C868 C 0.74115 0.67508 0.17147 0.0
C869 C 0.75616 0.65994 0.16669 0.0
C870 C 0.73654 0.69977 0.10895 0.0
C871 C 0.73226 0.67696 0.19651 0.0
C872 C 0.70601 0.73814 0.16438 0.0
C873 C 0.68516 0.73227 0.16071 0.0
C874 C 0.72227 0.72374 0.16285 0.0
C875 C 0.71749 0.70318 0.15686 0.0
C876 C 0.6964 0.69712 0.15361 0.0
C877 C 0.68045 0.7117 0.1559 0.0
C878 C 0.74455 0.7306 0.16708 0.0
C879 C 0.69074 0.67542 0.1467 0.0
H880 H 0.76582 0.66998 0.10774 0.0
H881 H 0.76109 0.6497 0.18094 0.0
H882 H 0.71956 0.69746 0.10564 0.0
H883 H 0.73881 0.71616 0.11354 0.0
H884 H 0.7452 0.69644 0.09209 0.0
H885 H 0.74014 0.66655 0.20945 0.0
H886 H 0.73389 0.69296 0.20302 0.0
H887 H 0.71529 0.67331 0.19631 0.0
H888 H 0.70963 0.75404 0.16826 0.0
H889 H 0.66433 0.70713 0.15293 0.0
H890 H 0.75356 0.72959 0.15009 0.0
H891 H 0.75231 0.72037 0.18027 0.0
H892 H 0.74541 0.74662 0.17379 0.0
H893 H 0.69793 0.67161 0.1291 0.0
H894 H 0.67354 0.67311 0.14535 0.0
H895 H 0.69707 0.66446 0.16006 0.0
C896 C 0.27725 0.66457 0.10932 0.0
C897 C 0.25634 0.66947 0.11431 0.0
C898 C 0.2926 0.67994 0.10821 0.0
C899 C 0.28695 0.70052 0.11307 0.0
C900 C 0.26603 0.70533 0.11936 0.0
C901 C 0.25087 0.68978 0.11944 0.0
C902 C 0.3146 0.67431 0.10074 0.0
C903 C 0.25957 0.72697 0.12549 0.0
C904 C 0.33106 0.73802 0.12601 0.0
C905 C 0.33231 0.74872 0.10424 0.0
C906 C 0.31607 0.72254 0.12936 0.0
C907 C 0.30262 0.71718 0.11015 0.0
C908 C 0.30409 0.72777 0.08799 0.0
C909 C 0.31868 0.74369 0.08547 0.0
C910 C 0.31445 0.7121 0.15349 0.0
C911 C 0.29045 0.72209 0.06685 0.0
H912 H 0.28139 0.64886 0.10513 0.0
H913 H 0.23469 0.69348 0.12347 0.0
H914 H 0.31852 0.68209 0.08359 0.0
H915 H 0.32604 0.67964 0.11435 0.0
H916 H 0.31656 0.65752 0.09826 0.0
H917 H 0.24328 0.72774 0.13246 0.0
H918 H 0.2703 0.73351 0.13915 0.0
H919 H 0.26066 0.73676 0.10926 0.0
H920 H 0.34153 0.74207 0.14059 0.0
H921 H 0.31981 0.75187 0.06856 0.0
H922 H 0.31766 0.69548 0.15157 0.0
H923 H 0.29828 0.71365 0.16061 0.0
H924 H 0.32557 0.71858 0.16683 0.0
H925 H 0.29241 0.7056 0.06256 0.0
H926 H 0.29423 0.73122 0.05057 0.0
H927 H 0.27373 0.72454 0.0714 0.0
C928 C 0.26814 0.32029 0.12946 0.0
C929 C 0.24715 0.31888 0.13639 0.0
C930 C 0.28227 0.30457 0.13481 0.0
C931 C 0.27533 0.28743 0.14823 0.0
C932 C 0.25406 0.28593 0.15526 0.0
C933 C 0.24006 0.3016 0.14886 0.0
C934 C 0.30467 0.30642 0.12627 0.0
C935 C 0.2463 0.26817 0.17019 0.0
C936 C 0.31054 0.24103 0.14408 0.0
C937 C 0.32435 0.24454 0.16322 0.0
C938 C 0.29387 0.25442 0.13954 0.0
C939 C 0.29062 0.27133 0.15497 0.0
C940 C 0.30362 0.27409 0.17533 0.0
C941 C 0.32063 0.26084 0.17897 0.0
C942 C 0.28076 0.25129 0.11726 0.0
C943 C 0.3002 0.29161 0.1926 0.0
H944 H 0.27348 0.33373 0.11976 0.0
H945 H 0.2238 0.30077 0.15444 0.0
H946 H 0.31534 0.30762 0.14193 0.0
H947 H 0.30923 0.2925 0.11608 0.0
H948 H 0.30712 0.32003 0.11462 0.0
H949 H 0.22918 0.26905 0.17369 0.0
H950 H 0.24975 0.25345 0.16107 0.0
H951 H 0.25465 0.26796 0.18766 0.0
H952 H 0.31349 0.2285 0.13174 0.0
H953 H 0.33123 0.26344 0.19387 0.0
H954 H 0.28409 0.26376 0.10424 0.0
H955 H 0.26383 0.25206 0.12165 0.0
H956 H 0.28403 0.23637 0.10841 0.0
H957 H 0.30469 0.30624 0.18386 0.0
H958 H 0.30961 0.28985 0.20925 0.0
H959 H 0.2834 0.29275 0.19755 0.0
C960 C 0.94519 0.23997 0.34824 0.0
C961 C 0.93327 0.25289 0.33354 0.0
C962 C 0.96713 0.24089 0.3479 0.0
C963 C 0.97724 0.25466 0.33201 0.0
C964 C 0.96525 0.26631 0.31558 0.0
C965 C 0.94334 0.26554 0.31682 0.0
C966 C 0.97933 0.22851 0.36604 0.0
C967 C 0.97549 0.2807 0.29787 0.0
C968 C 0.02689 0.28005 0.35397 0.0
C969 C 0.04242 0.26838 0.34267 0.0
C970 C 0.00566 0.27556 0.35073 0.0
C971 C -0.0002 0.25933 0.33526 0.0
C972 C 0.0154 0.24774 0.32333 0.0
C973 C 0.03663 0.25222 0.32747 0.0
C974 C 0.98952 0.28803 0.3642 0.0
C975 C 0.00965 0.23073 0.30619 0.0
H976 H 0.93738 0.23022 0.36124 0.0
H977 H 0.93409 0.27535 0.30523 0.0
H978 H 0.99292 0.22088 0.35745 0.0
H979 H 0.98556 0.23891 0.3801 0.0
H980 H 0.96948 0.21667 0.37488 0.0
H981 H 0.9644 0.28572 0.28367 0.0
H982 H 0.98124 0.29449 0.30746 0.0
H983 H 0.9892 0.27329 0.28923 0.0
H984 H 0.03135 0.29244 0.3659 0.0
H985 H 0.04867 0.24326 0.31864 0.0
H986 H 0.97951 0.27777 0.37522 0.0
H987 H 0.97914 0.29607 0.35131 0.0
H988 H -0.00323 0.29963 0.3762 0.0
H989 H 0.00078 0.21864 0.31581 0.0
H990 H 0.02365 0.22366 0.29771 0.0
H991 H -0.00072 0.23676 0.29184 0.0
C992 C 0.72239 0.04212 0.29625 0.0
C993 C 0.7322 0.05394 0.31396 0.0
C994 C 0.72493 0.02081 0.29577 0.0
C995 C 0.73677 0.01124 0.31408 0.0
C996 C 0.74881 0.02337 0.33003 0.0
C997 C 0.74657 0.04474 0.32957 0.0
C998 C 0.71288 0.00842 0.27755 0.0
C999 C 0.76177 0.01376 0.34969 0.0
C1000 C 0.70974 0.96569 0.34211 0.0
C1001 C 0.72263 0.94941 0.33514 0.0
C1002 C 0.71436 0.98579 0.33536 0.0
C1003 C 0.73198 0.98969 0.32055 0.0
C1004 C 0.74468 0.97322 0.31266 0.0
C1005 C 0.74008 0.95323 0.3205 0.0
C1006 C 0.70051 0.0029 0.34454 0.0
C1007 C 0.76325 0.97661 0.29636 0.0
H1008 H 0.71158 0.04935 0.28386 0.0
H1009 H 0.75425 0.05395 0.34318 0.0
H1010 H 0.7221 0.9949 0.27164 0.0
H1011 H 0.69816 0.00274 0.28581 0.0
H1012 H 0.70872 0.01776 0.26157 0.0
H1013 H 0.77267 0.02497 0.35801 0.0
H1014 H 0.75119 0.00778 0.36389 0.0
H1015 H 0.77097 0.00068 0.34265 0.0
H1016 H 0.69634 0.96279 0.35359 0.0
H1017 H 0.75004 0.9406 0.31506 0.0
H1018 H 0.69285 0.01079 0.32925 0.0
H1019 H 0.71007 0.01442 0.35427 0.0
H1020 H 0.68808 -0.00273 0.35686 0.0
H1021 H 0.76026 0.98912 0.28331 0.0
H1022 H 0.76731 0.96245 0.28631 0.0
H1023 H 0.77704 0.98099 0.30733 0.0
C1024 C 0.04394 0.75167 0.36817 0.0
C1025 C 0.0552 0.74241 0.34948 0.0
C1026 C 0.02206 0.74992 0.36938 0.0
C1027 C 0.01129 0.73897 0.35123 0.0
C1028 C 0.02246 0.73092 0.33142 0.0
C1029 C 0.04432 0.73258 0.33089 0.0
C1030 C 0.01068 0.75854 0.3909 0.0
C1031 C 0.01147 0.71949 0.31148 0.0
C1032 C 0.96229 0.70973 0.36816 0.0
C1033 C 0.94646 0.7226 0.35948 0.0
C1034 C 0.98342 0.71512 0.36593 0.0
C1035 C 0.98885 0.73371 0.35438 0.0
C1036 C 0.97297 0.74677 0.34548 0.0
C1037 C 0.95188 0.74112 0.3483 0.0
C1038 C -7e-05 0.70088 0.37589 0.0
C1039 C 0.97826 0.76654 0.33277 0.0
H1040 H 0.05231 0.75926 0.38259 0.0
H1041 H 0.05297 0.72564 0.31624 0.0
H1042 H -0.0033 0.76737 0.38517 0.0
H1043 H 0.00509 0.74575 0.40238 0.0
H1044 H 0.02088 0.76864 0.4019 0.0
H1045 H 0.02197 0.71661 0.29593 0.0
H1046 H 0.0058 0.70451 0.31834 0.0
H1047 H -0.00241 0.72819 0.30518 0.0
H1048 H 0.95817 0.69547 0.37697 0.0
H1049 H 0.93966 0.75109 0.34153 0.0
H1050 H 0.01005 0.70922 0.38881 0.0
H1051 H 0.01015 0.69531 0.36114 0.0
H1052 H 0.99302 0.68739 0.38515 0.0
H1053 H 0.98781 0.77649 0.34463 0.0
H1054 H 0.96404 0.77512 0.32719 0.0
H1055 H 0.98782 0.76325 0.31657 0.0
C1056 C 0.24509 0.94975 0.31992 0.0
C1057 C 0.2609 0.94127 0.30561 0.0
C1058 C 0.24235 0.97105 0.3209 0.0
C1059 C 0.25546 0.98381 0.30684 0.0
C1060 C 0.26873 0.97498 0.28932 0.0
C1061 C 0.27163 0.95372 0.28923 0.0
C1062 C 0.22779 0.97984 0.33961 0.0
C1063 C 0.28211 0.98807 0.27308 0.0
C1064 C 0.25341 0.04164 0.31584 0.0
C1065 C 0.26992 0.04438 0.33214 0.0
C1066 C 0.24844 0.02201 0.30708 0.0
C1067 C 0.26002 0.00489 0.31529 0.0
C1068 C 0.27653 0.00769 0.33199 0.0
C1069 C 0.28141 0.0274 0.33992 0.0
C1070 C 0.23125 0.01975 0.28868 0.0
C1071 C 0.28908 0.98985 0.34167 0.0
H1072 H 0.23664 0.94006 0.33246 0.0
H1073 H 0.28356 0.94704 0.27778 0.0
H1074 H 0.23703 0.98412 0.35573 0.0
H1075 H 0.21993 0.99387 0.33292 0.0
H1076 H 0.21567 0.96856 0.34514 0.0
H1077 H 0.28743 0.97937 0.25704 0.0
H1078 H 0.27343 0.00187 0.2671 0.0
H1079 H 0.29619 0.99326 0.28307 0.0
H1080 H 0.24461 0.05484 0.3097 0.0
H1081 H 0.29405 0.02947 0.35271 0.0
H1082 H 0.2214 0.00611 0.29242 0.0
H1083 H 0.2384 0.01755 0.2707 0.0
H1084 H 0.22105 0.03352 0.28795 0.0
H1085 H 0.27847 0.97822 0.34966 0.0
H1086 H 0.30055 0.99463 0.35559 0.0
H1087 H 0.29781 0.98236 0.32684 0.0
C1088 C 0.03712 0.74869 0.63144 0.0
C1089 C 0.04113 0.72999 0.61992 0.0
C1090 C 0.01648 0.75557 0.63483 0.0
C1091 C -0.00037 0.74358 0.62616 0.0
C1092 C 0.00369 0.72505 0.61381 0.0
C1093 C 0.02438 0.71841 0.61101 0.0
C1094 C 0.01269 0.77528 0.64835 0.0
C1095 C 0.98613 0.71194 0.604 0.0
C1096 C 0.94554 0.74309 0.65336 0.0
C1097 C 0.93397 0.75364 0.63592 0.0
C1098 C 0.96729 0.74106 0.65133 0.0
C1099 C 0.97763 0.74949 0.63114 0.0
C1100 C 0.96623 0.76126 0.61425 0.0
C1101 C 0.94447 0.76335 0.61695 0.0
C1102 C 0.97896 0.72873 0.66997 0.0
C1103 C 0.97671 0.77033 0.59239 0.0
H1104 H 0.05006 0.75767 0.63837 0.0
H1105 H 0.02743 0.70404 0.60187 0.0
H1106 H 0.0023 0.78554 0.63785 0.0
H1107 H 0.00458 0.77189 0.66552 0.0
H1108 H 0.02749 0.78355 0.65239 0.0
H1109 H 0.99203 0.69869 0.59346 0.0
H1110 H 0.97644 0.70603 0.61903 0.0
H1111 H 0.97576 0.72125 0.59232 0.0
H1112 H 0.93747 0.7358 0.66823 0.0
H1113 H 0.93555 0.7715 0.60342 0.0
H1114 H 0.99338 0.73687 0.67567 0.0
H1115 H 0.98381 0.71384 0.66211 0.0
H1116 H 0.96921 0.72561 0.6861 0.0
H1117 H 0.99144 0.77826 0.59743 0.0
H1118 H 0.96637 0.78136 0.58287 0.0
H1119 H 0.9809 0.75785 0.57973 0.0
C1120 C 0.27969 0.96069 0.63904 0.0
C1121 C 0.26671 0.94424 0.64523 0.0
C1122 C 0.27483 0.98066 0.64608 0.0
C1123 C 0.25684 0.98424 0.66042 0.0
C1124 C 0.24404 0.96759 0.66754 0.0
C1125 C 0.2489 0.94774 0.6594 0.0
C1126 C 0.28881 -0.00203 0.63769 0.0
C1127 C 0.22508 0.97061 0.68334 0.0
C1128 C 0.26597 0.03632 0.68581 0.0
C1129 C 0.25658 0.04834 0.668 0.0
C1130 C 0.2633 0.01502 0.68596 0.0
C1131 C 0.25182 0.00567 0.6672 0.0
C1132 C 0.24012 0.018 0.65113 0.0
C1133 C 0.24244 0.03936 0.65193 0.0
C1134 C 0.27491 0.00241 0.70434 0.0
C1135 C 0.22753 0.00863 0.63101 0.0
H1136 H 0.29337 0.95805 0.62791 0.0
H1137 H 0.23886 0.93499 0.66423 0.0
H1138 H 0.27943 0.00965 0.628 0.0
H1139 H 0.29614 0.0056 0.65337 0.0
H1140 H 0.3015 0.9926 0.62556 0.0
H1141 H 0.22108 0.95635 0.69322 0.0
H1142 H 0.22754 0.98314 0.69652 0.0
H1143 H 0.21144 0.97473 0.67199 0.0
H1144 H 0.27662 0.0434 0.69852 0.0
H1145 H 0.2351 0.04873 0.63823 0.0
H1146 H 0.28983 -0.00314 0.69645 0.0
H1147 H 0.26557 0.98882 0.70973 0.0
H1148 H 0.27869 0.01157 0.7206 0.0
H1149 H 0.23838 0.00276 0.61701 0.0
H1150 H 0.21684 0.01996 0.62255 0.0
H1151 H 0.21815 -0.0045 0.63763 0.0
C1152 C 0.05213 0.264 0.63846 0.0
C1153 C 0.06512 0.24958 0.64955 0.0
C1154 C 0.03034 0.26191 0.63916 0.0
C1155 C 0.02134 0.24537 0.65201 0.0
C1156 C 0.0344 0.23097 0.66371 0.0
C1157 C 0.05626 0.23303 0.66195 0.0
C1158 C 0.01697 0.2773 0.62586 0.0
C1159 C 0.0253 0.21359 0.67825 0.0
C1160 C 0.96493 0.25754 0.66596 0.0
C1161 C 0.95472 0.24752 0.64708 0.0
C1162 C 0.98657 0.25528 0.66931 0.0
C1163 C -0.00178 0.24338 0.65278 0.0
C1164 C 0.98773 0.23219 0.63462 0.0
C1165 C 0.96596 0.23416 0.63223 0.0
C1166 C -0.00289 0.26684 0.68944 0.0
C1167 C -0.00037 0.21975 0.61627 0.0
H1168 H 0.05905 0.27668 0.62867 0.0
H1169 H 0.06641 0.22198 0.67065 0.0
H1170 H 0.0065 0.26928 0.61303 0.0
H1171 H 0.00688 0.28573 0.63872 0.0
H1172 H 0.02652 0.28863 0.61574 0.0
H1173 H 0.03762 0.20398 0.6867 0.0
H1174 H 0.01501 0.21981 0.69258 0.0
H1175 H 0.01543 0.2037 0.66668 0.0
H1176 H 0.95613 0.26771 0.6776 0.0
H1177 H 0.95803 0.22649 0.61754 0.0
H1178 H 0.00518 0.28052 0.68204 0.0
H1179 H 0.00913 0.25716 0.69828 0.0
H1180 H 0.98568 0.27206 0.70319 0.0
H1181 H 0.00809 0.23028 0.60397 0.0
H1182 H 0.98908 0.20991 0.60537 0.0
H1183 H 0.0115 0.2099 0.62507 0.0
C1184 C 0.71563 0.04076 0.6725 0.0
C1185 C 0.7017 0.04458 0.65358 0.0
C1186 C 0.71776 0.02092 0.68204 0.0
C1187 C 0.70645 0.00455 0.67151 0.0
C1188 C 0.69234 0.00849 0.6524 0.0
C1189 C 0.68985 0.02851 0.64405 0.0
C1190 C 0.73242 0.01764 0.70294 0.0
C1191 C 0.6803 0.99148 0.64015 0.0
C1192 C 0.72231 0.94952 0.66694 0.0
C1193 C 0.70494 0.94035 0.67791 0.0
C1194 C 0.72465 0.97087 0.66713 0.0
C1195 C 0.70958 0.98301 0.67919 0.0
C1196 C 0.69414 0.97348 0.69359 0.0
C1197 C 0.69162 0.95218 0.6923 0.0
C1198 C 0.74152 0.98044 0.65179 0.0
C1199 C 0.67881 0.98593 0.70815 0.0
H1200 H 0.72474 0.05327 0.67994 0.0
H1201 H 0.67921 0.03146 0.62927 0.0
H1202 H 0.72771 0.00433 0.71412 0.0
H1203 H 0.74847 0.01484 0.69603 0.0
H1204 H 0.73309 0.03149 0.71452 0.0
H1205 H 0.67098 -0.00293 0.62463 0.0
H1206 H 0.69125 0.9795 0.63363 0.0
H1207 H 0.66942 0.98414 0.65309 0.0
H1208 H 0.73273 0.9403 0.65599 0.0
H1209 H 0.67844 0.94497 0.70124 0.0
H1210 H 0.74953 0.99289 0.66171 0.0
H1211 H 0.73429 0.9873 0.63554 0.0
H1212 H 0.75341 0.96904 0.64596 0.0
H1213 H 0.6867 -0.00064 0.7164 0.0
H1214 H 0.67145 0.97658 0.72254 0.0
H1215 H 0.66621 0.99173 0.69623 0.0
C1216 C 0.52066 0.76474 0.86025 0.0
C1217 C 0.53783 0.75256 0.85382 0.0
C1218 C 0.50013 0.75787 0.8567 0.0
C1219 C 0.49666 0.73844 0.84612 0.0
C1220 C 0.51391 0.72604 0.83949 0.0
C1221 C 0.53436 0.73321 0.84359 0.0
C1222 C 0.48215 0.77149 0.86427 0.0
C1223 C 0.51074 0.70539 0.82786 0.0
C1224 C 0.44178 0.7193 0.85817 0.0
C1225 C 0.43102 0.72775 0.83861 0.0
C1226 C 0.46361 0.72127 0.86007 0.0
C1227 C 0.47482 0.73159 0.84174 0.0
C1228 C 0.46422 0.73828 0.82085 0.0
C1229 C 0.44238 0.73648 0.81965 0.0
C1230 C 0.47431 0.71407 0.88272 0.0
C1231 C 0.47568 0.74893 0.80066 0.0
H1232 H 0.52325 0.77965 0.86831 0.0
H1233 H 0.54762 0.72377 0.83854 0.0
H1234 H 0.47257 0.77563 0.84837 0.0
H1235 H 0.47179 0.76317 0.87697 0.0
H1236 H 0.48757 0.78583 0.87302 0.0
H1237 H 0.5258 0.6975 0.82407 0.0
H1238 H 0.50109 0.69543 0.83964 0.0
H1239 H 0.50206 0.70724 0.81074 0.0
H1240 H 0.43303 0.71257 0.87289 0.0
H1241 H 0.4341 0.74279 0.80435 0.0
H1242 H 0.47822 0.72754 0.89403 0.0
H1243 H 0.4892 0.70611 0.87848 0.0
H1244 H 0.4642 0.7036 0.89336 0.0
H1245 H 0.47989 0.7647 0.80633 0.0
H1246 H 0.46596 0.74996 0.78416 0.0
H1247 H 0.49045 0.74078 0.79628 0.0
C1248 C 0.24158 0.4689 0.82781 0.0
C1249 C 0.2283 0.45491 0.81635 0.0
C1250 C 0.23955 0.48998 0.82348 0.0
C1251 C 0.22424 0.4969 0.80695 0.0
C1252 C 0.21348 0.48255 0.79245 0.0
C1253 C 0.21534 0.46162 0.79765 0.0
C1254 C 0.25147 0.50474 0.83924 0.0
C1255 C 0.19785 0.48931 0.77376 0.0
C1256 C 0.19002 0.53978 0.82994 0.0
C1257 C 0.19845 0.55696 0.8184 0.0
C1258 C 0.19835 0.52027 0.82621 0.0
C1259 C 0.21527 0.51771 0.80998 0.0
C1260 C 0.22349 0.53489 0.79763 0.0
C1261 C 0.21509 0.55445 0.80219 0.0
C1262 C 0.18925 0.50245 0.84013 0.0
C1263 C 0.24092 0.53262 0.77951 0.0
H1264 H 0.25175 0.46368 0.84215 0.0
H1265 H 0.20538 0.4507 0.78842 0.0
H1266 H 0.25638 0.51851 0.82903 0.0
H1267 H 0.24112 0.5099 0.85409 0.0
H1268 H 0.26556 0.49746 0.84725 0.0
H1269 H 0.19497 0.47707 0.76029 0.0
H1270 H 0.18274 0.49295 0.78265 0.0
H1271 H 0.20332 0.50332 0.76437 0.0
H1272 H 0.17726 0.54166 0.8426 0.0
H1273 H 0.22151 0.56773 0.7931 0.0
H1274 H 0.20174 0.4947 0.8506 0.0
H1275 H 0.18254 0.49102 0.82756 0.0
H1276 H 0.17672 0.50728 0.85277 0.0
H1277 H 0.25376 0.52299 0.78675 0.0
H1278 H 0.24748 0.54768 0.77399 0.0
H1279 H 0.23478 0.52479 0.76329 0.0
C1280 C 0.43412 0.23897 0.82801 0.0
C1281 C 0.43225 0.22261 0.84421 0.0
C1282 C 0.45388 0.24657 0.82147 0.0
C1283 C 0.47203 0.23787 0.83185 0.0
C1284 C 0.47021 0.22108 0.84784 0.0
C1285 C 0.45033 0.21351 0.85361 0.0
C1286 C 0.45531 0.26412 0.80388 0.0
C1287 C 0.48922 0.21155 0.85952 0.0
C1288 C 0.52743 0.24321 0.80904 0.0
C1289 C 0.53562 0.25742 0.82543 0.0
C1290 C 0.50615 0.23795 0.80951 0.0
C1291 C 0.49299 0.24677 0.82715 0.0
C1292 C 0.50087 0.2622 0.84257 0.0
C1293 C 0.52211 0.26751 0.84133 0.0
C1294 C 0.49813 0.22189 0.7923 0.0
C1295 C 0.48737 0.2718 0.8618 0.0
H1296 H 0.42013 0.24592 0.82057 0.0
H1297 H 0.44892 0.2009 0.86619 0.0
H1298 H 0.46123 0.278 0.81317 0.0
H1299 H 0.46661 0.26042 0.78937 0.0
H1300 H 0.43991 0.26779 0.79567 0.0
H1301 H 0.48507 0.19849 0.87141 0.0
H1302 H 0.50026 0.20599 0.84558 0.0
H1303 H 0.49761 0.22323 0.87035 0.0
H1304 H 0.53781 0.23557 0.7965 0.0
H1305 H 0.52839 0.27849 0.85404 0.0
H1306 H 0.48266 0.22637 0.78493 0.0
H1307 H 0.49603 0.20717 0.802 0.0
H1308 H 0.50916 0.2193 0.77716 0.0
H1309 H 0.47222 0.27696 0.8542 0.0
H1310 H 0.49518 0.28509 0.87049 0.0
H1311 H 0.48385 0.26021 0.87582 0.0
C1312 C 0.79831 0.461 0.79628 0.0
C1313 C 0.78297 0.44915 0.80773 0.0
C1314 C 0.79615 0.48233 0.79474 0.0
C1315 C 0.7787 0.49186 0.80575 0.0
C1316 C 0.76188 0.47972 0.8142 0.0
C1317 C 0.76413 0.45838 0.81484 0.0
C1318 C 0.81372 0.4948 0.78404 0.0
C1319 C 0.74282 0.48929 0.82564 0.0
C1320 C 0.79398 0.53633 0.84527 0.0
C1321 C 0.78529 0.55303 0.83314 0.0
C1322 C 0.7916 0.51643 0.83654 0.0
C1323 C 0.78087 0.51318 0.81459 0.0
C1324 C 0.77237 0.53007 0.80192 0.0
C1325 C 0.77428 0.54987 0.8117 0.0
C1326 C 0.80052 0.49887 0.85105 0.0
C1327 C 0.76118 0.52743 0.77826 0.0
H1328 H 0.81265 0.45381 0.79011 0.0
H1329 H 0.75202 0.44921 0.82329 0.0
H1330 H 0.80747 0.50839 0.77443 0.0
H1331 H 0.82411 0.50035 0.79863 0.0
H1332 H 0.8233 0.48555 0.77138 0.0
H1333 H 0.72989 0.47804 0.8279 0.0
H1334 H 0.74709 0.49535 0.84361 0.0
H1335 H 0.73707 0.50231 0.8147 0.0
H1336 H 0.80233 0.53879 0.86198 0.0
H1337 H 0.76761 0.56288 0.80231 0.0
H1338 H 0.8131 0.49114 0.84071 0.0
H1339 H 0.78815 0.48733 0.85477 0.0
H1340 H 0.80719 0.50401 0.86846 0.0
H1341 H 0.76741 0.51425 0.7679 0.0
H1342 H 0.76248 0.54148 0.76708 0.0
H1343 H 0.74429 0.52468 0.7817 0.0
C1344 C 0.45939 0.25921 0.1383 0.0
C1345 C 0.44861 0.24679 0.15472 0.0
C1346 C 0.48104 0.25688 0.13487 0.0
C1347 C 0.49207 0.24209 0.14851 0.0
C1348 C 0.48157 0.23108 0.16682 0.0
C1349 C 0.45989 0.2334 0.16952 0.0
C1350 C 0.49164 0.26882 0.11507 0.0
C1351 C 0.49286 0.21552 0.18215 0.0
C1352 C 0.53527 0.21203 0.11824 0.0
C1353 C 0.55331 0.22108 0.12783 0.0
C1354 C 0.51532 0.21915 0.12443 0.0
C1355 C 0.51333 0.23552 0.14097 0.0
C1356 C 0.53148 0.24484 0.15064 0.0
C1357 C 0.55134 0.23761 0.14378 0.0
C1358 C 0.49634 0.20896 0.11342 0.0
C1359 C 0.5299 0.2621 0.1686 0.0
H1360 H 0.4507 0.26958 0.12682 0.0
H1361 H 0.4516 0.22399 0.18247 0.0
H1362 H 0.50713 0.27462 0.121 0.0
H1363 H 0.49434 0.25855 0.09949 0.0
H1364 H 0.48197 0.28199 0.10898 0.0
H1365 H 0.48346 0.21097 0.19809 0.0
H1366 H 0.49606 0.20159 0.17133 0.0
H1367 H 0.50814 0.22164 0.18835 0.0
H1368 H 0.53673 0.19938 0.10574 0.0
H1369 H 0.56529 0.2446 0.15127 0.0
H1370 H 0.48627 0.22058 0.10458 0.0
H1371 H 0.48686 0.20153 0.12767 0.0
H1372 H 0.50066 0.19715 0.09992 0.0
H1373 H 0.52009 0.27467 0.16131 0.0
H1374 H 0.54549 0.2684 0.17348 0.0
H1375 H 0.52211 0.25651 0.18518 0.0
C1376 C 0.7532 0.53348 0.17055 0.0
C1377 C 0.77389 0.53857 0.1766 0.0
C1378 C 0.74691 0.51291 0.16927 0.0
C1379 C 0.76169 0.49734 0.17426 0.0
C1380 C 0.78137 0.50262 0.18421 0.0
C1381 C 0.78733 0.52325 0.1851 0.0
C1382 C 0.72549 0.50789 0.1595 0.0
C1383 C 0.79729 0.48645 0.19072 0.0
C1384 C 0.75341 0.44012 0.16604 0.0
C1385 C 0.76311 0.43726 0.1437 0.0
C1386 C 0.75148 0.45987 0.17592 0.0
C1387 C 0.75932 0.4769 0.16295 0.0
C1388 C 0.76749 0.47408 0.1395 0.0
C1389 C 0.7694 0.45429 0.13028 0.0
C1390 C 0.74247 0.46219 0.20081 0.0
C1391 C 0.7756 0.49183 0.12469 0.0
H1392 H 0.74256 0.54533 0.16443 0.0
H1393 H 0.80316 0.52719 0.19045 0.0
H1394 H 0.7267 0.50506 0.13989 0.0
H1395 H 0.71907 0.49384 0.16797 0.0
H1396 H 0.71434 0.52074 0.16237 0.0
H1397 H 0.80995 0.49273 0.20225 0.0
H1398 H 0.78971 0.47348 0.20022 0.0
H1399 H 0.80451 0.48034 0.17405 0.0
H1400 H 0.74854 0.42689 0.17642 0.0
H1401 H 0.77662 0.45204 0.11284 0.0
H1402 H 0.73432 0.47707 0.20305 0.0
H1403 H 0.75537 0.46152 0.21413 0.0
H1404 H 0.73134 0.44958 0.20498 0.0
H1405 H 0.76363 0.5041 0.12355 0.0
H1406 H 0.77989 0.48715 0.10615 0.0
H1407 H 0.78971 0.49844 0.1334 0.0
C1408 C 0.46713 0.76808 0.14704 0.0
C1409 C 0.45645 0.75968 0.12744 0.0
C1410 C 0.48811 0.763 0.15143 0.0
C1411 C 0.49875 0.74996 0.13519 0.0
C1412 C 0.4877 0.7407 0.116 0.0
C1413 C 0.46648 0.74542 0.11262 0.0
C1414 C 0.49918 0.77254 0.17262 0.0
C1415 C 0.49864 0.72725 0.09784 0.0
C1416 C 0.55602 0.7626 0.12633 0.0
C1417 C 0.56581 0.74614 0.1378 0.0
C1418 C 0.53418 0.76373 0.12496 0.0
C1419 C 0.5219 0.74841 0.13622 0.0
C1420 C 0.53175 0.7319 0.14825 0.0
C1421 C 0.55371 0.73073 0.14847 0.0
C1422 C 0.52429 0.78123 0.11128 0.0
C1423 C 0.51911 0.71575 0.16118 0.0
H1424 H 0.45921 0.77898 0.15861 0.0
H1425 H 0.45817 0.73906 0.09736 0.0
H1426 H 0.50897 0.761 0.182 0.0
H1427 H 0.50976 0.78489 0.16624 0.0
H1428 H 0.48797 0.77927 0.18569 0.0
H1429 H 0.48741 0.71951 0.08559 0.0
H1430 H 0.50943 0.73676 0.08687 0.0
H1431 H 0.50823 0.71541 0.10693 0.0
H1432 H 0.56551 0.77438 0.11791 0.0
H1433 H 0.56145 0.71809 0.15747 0.0
H1434 H 0.51494 0.79089 0.12368 0.0
H1435 H 0.51345 0.77518 0.09742 0.0
H1436 H 0.53613 0.7911 0.10232 0.0
H1437 H 0.50916 0.72309 0.17508 0.0
H1438 H 0.5292 0.70408 0.16996 0.0
H1439 H 0.50846 0.70789 0.14844 0.0
C1440 C 0.24006 0.45203 0.17724 0.0
C1441 C 0.24886 0.44105 0.15815 0.0
C1442 C 0.24335 0.47317 0.17934 0.0
C1443 C 0.25482 0.48348 0.16126 0.0
C1444 C 0.26604 0.472 0.14393 0.0
C1445 C 0.26309 0.45072 0.14274 0.0
C1446 C 0.23227 0.48478 0.19901 0.0
C1447 C 0.2787 0.48239 0.12456 0.0
C1448 C 0.22649 0.52996 0.13762 0.0
C1449 C 0.23934 0.54607 0.14519 0.0
C1450 C 0.23164 0.50964 0.14259 0.0
C1451 C 0.24983 0.50525 0.15624 0.0
C1452 C 0.26266 0.52149 0.16456 0.0
C1453 C 0.25747 0.5418 0.15847 0.0
C1454 C 0.21761 0.49285 0.13293 0.0
C1455 C 0.28191 0.51757 0.17957 0.0
H1456 H 0.22941 0.44438 0.18951 0.0
H1457 H 0.27006 0.44213 0.12811 0.0
H1458 H 0.24196 0.49783 0.20535 0.0
H1459 H 0.21734 0.49107 0.19195 0.0
H1460 H 0.22856 0.47468 0.21451 0.0
H1461 H 0.28918 0.47144 0.1151 0.0
H1462 H 0.2679 0.48925 0.11116 0.0
H1463 H 0.28831 0.49493 0.1322 0.0
H1464 H 0.21258 0.5332 0.12711 0.0
H1465 H 0.26742 0.5543 0.16433 0.0
H1466 H 0.21037 0.48431 0.14803 0.0
H1467 H 0.22692 0.48178 0.12221 0.0
H1468 H 0.20484 0.49892 0.1214 0.0
H1469 H 0.27986 0.50406 0.19145 0.0
H1470 H 0.28587 0.5311 0.1908 0.0
H1471 H 0.29541 0.51455 0.16753 0.0
C1472 C 0.12362 0.30426 0.44789 0.0
C1473 C 0.1102 0.28959 0.43784 0.0
C1474 C 0.12726 0.30472 0.47275 0.0
C1475 C 0.11681 0.29049 0.48777 0.0
C1476 C 0.10243 0.27637 0.47775 0.0
C1477 C 0.09952 0.27592 0.45284 0.0
C1478 C 0.143 0.31971 0.48277 0.0
C1479 C 0.09061 0.26127 0.49325 0.0
C1480 C 0.13983 0.27186 0.54642 0.0
C1481 C 0.12806 0.28291 0.56324 0.0
C1482 C 0.13712 0.27505 0.52174 0.0
C1483 C 0.12187 0.28924 0.51374 0.0
C1484 C 0.11035 0.30087 0.53065 0.0
C1485 C 0.11377 0.29773 0.55527 0.0
C1486 C 0.15005 0.2627 0.50423 0.0
C1487 C 0.09367 0.31583 0.52278 0.0
H1488 H 0.13198 0.31476 0.43621 0.0
H1489 H 0.089 0.26469 0.44505 0.0
H1490 H 0.13611 0.3284 0.49796 0.0
H1491 H 0.15671 0.31121 0.48988 0.0
H1492 H 0.14857 0.33075 0.46899 0.0
H1493 H 0.0786 0.25265 0.48292 0.0
H1494 H 0.10172 0.25011 0.50121 0.0
H1495 H 0.08276 0.26935 0.5083 0.0
H1496 H 0.15106 0.26056 0.55257 0.0
H1497 H 0.10457 0.30621 0.56827 0.0
H1498 H 0.15724 0.27291 0.49058 0.0
H1499 H 0.13981 0.25171 0.49456 0.0
H1500 H 0.16269 0.25394 0.51331 0.0
H1501 H 0.09998 0.32654 0.50911 0.0
H1502 H 0.08735 0.32488 0.53804 0.0
H1503 H 0.08055 0.30733 0.51429 0.0
C1504 C 0.67714 0.10799 0.52775 0.0
C1505 C 0.68933 0.09335 0.53973 0.0
C1506 C 0.67717 0.10918 0.50264 0.0
C1507 C 0.68924 0.09503 0.48924 0.0
C1508 C 0.70057 0.07943 0.50123 0.0
C1509 C 0.70073 0.07897 0.52641 0.0
C1510 C 0.66529 0.12632 0.49054 0.0
C1511 C 0.71318 0.06375 0.48749 0.0
C1512 C 0.67941 0.09267 0.42201 0.0
C1513 C 0.69624 0.10425 0.41326 0.0
C1514 C 0.67712 0.0891 0.44675 0.0
C1515 C 0.69167 0.09785 0.46296 0.0
C1516 C 0.70852 0.10979 0.45415 0.0
C1517 C 0.71076 0.1126 0.42937 0.0
C1518 C 0.65931 0.07584 0.45552 0.0
C1519 C 0.72408 0.11981 0.47091 0.0
H1520 H 0.66837 0.11918 0.53804 0.0
H1521 H 0.71 0.06752 0.5357 0.0
H1522 H 0.67653 0.13695 0.4818 0.0
H1523 H 0.65495 0.12015 0.47627 0.0
H1524 H 0.65558 0.13521 0.50341 0.0
H1525 H 0.71882 0.05116 0.49925 0.0
H1526 H 0.70365 0.05707 0.47278 0.0
H1527 H 0.72697 0.07126 0.47914 0.0
H1528 H 0.6683 0.08607 0.40948 0.0
H1529 H 0.72372 0.12166 0.4226 0.0
H1530 H 0.64894 0.08481 0.46755 0.0
H1531 H 0.66557 0.06285 0.46619 0.0
H1532 H 0.64977 0.06962 0.44052 0.0
H1533 H 0.71574 0.12992 0.48378 0.0
H1534 H 0.73593 0.12908 0.46114 0.0
H1535 H 0.73236 0.10796 0.48156 0.0
C1536 C 0.86092 0.6798 0.45596 0.0
C1537 C 0.87388 0.69512 0.4464 0.0
C1538 C 0.85705 0.67883 0.48079 0.0
C1539 C 0.86662 0.69335 0.49618 0.0
C1540 C 0.88075 0.70798 0.48664 0.0
C1541 C 0.88405 0.70877 0.46186 0.0
C1542 C 0.84185 0.66309 0.49031 0.0
C1543 C 0.8916 0.72353 0.50246 0.0
C1544 C 0.8435 0.716 0.55217 0.0
C1545 C 0.85697 0.7081 0.56972 0.0
C1546 C 0.84493 0.7095 0.52828 0.0
C1547 C 0.86048 0.69507 0.52179 0.0
C1548 C 0.87272 0.68559 0.53984 0.0
C1549 C 0.87072 0.69216 0.56374 0.0
C1550 C 0.8312 0.71963 0.50966 0.0
C1551 C 0.88937 0.67006 0.53364 0.0
H1552 H 0.85304 0.66923 0.44396 0.0
H1553 H 0.89433 0.72043 0.45449 0.0
H1554 H 0.84771 0.65617 0.50721 0.0
H1555 H 0.82671 0.67066 0.49444 0.0
H1556 H 0.8389 0.65069 0.47706 0.0
H1557 H 0.9035 0.73259 0.49249 0.0
H1558 H 0.87986 0.73428 0.51002 0.0
H1559 H 0.89943 0.71579 0.51775 0.0
H1560 H 0.83258 0.72807 0.55688 0.0
H1561 H 0.88109 0.68595 0.57733 0.0
H1562 H 0.82509 0.70816 0.49675 0.0
H1563 H 0.84062 0.73091 0.49934 0.0
H1564 H 0.81776 0.72781 0.51794 0.0
H1565 H 0.88376 0.65928 0.51965 0.0
H1566 H 0.89435 0.66115 0.54965 0.0
H1567 H 0.90329 0.67814 0.52633 0.0
C1568 C 0.27809 0.9096 0.52238 0.0
C1569 C 0.29145 0.89709 0.53589 0.0
C1570 C 0.27997 0.91067 0.49732 0.0
C1571 C 0.29513 0.89842 0.48554 0.0
C1572 C 0.30908 0.88625 0.4992 0.0
C1573 C 0.30725 0.88596 0.52429 0.0
C1574 C 0.26519 0.92426 0.48339 0.0
C1575 C 0.32507 0.87256 0.48728 0.0
C1576 C 0.2804 0.88048 0.4232 0.0
C1577 C 0.29342 0.89251 0.40866 0.0
C1578 C 0.28111 0.88206 0.44824 0.0
C1579 C 0.29475 0.89649 0.45898 0.0
C1580 C 0.30783 0.90886 0.44438 0.0
C1581 C 0.30725 0.90648 0.4193 0.0
C1582 C 0.26732 0.8682 0.46318 0.0
C1583 C 0.32211 0.92479 0.45524 0.0
H1584 H 0.26601 0.91839 0.53142 0.0
H1585 H 0.31754 0.87621 0.53474 0.0
H1586 H 0.27395 0.93344 0.46994 0.0
H1587 H 0.25376 0.91467 0.47346 0.0
H1588 H 0.25637 0.93486 0.4953 0.0
H1589 H 0.33582 0.86532 0.50047 0.0
H1590 H 0.31689 0.86025 0.47721 0.0
H1591 H 0.33452 0.88136 0.47413 0.0
H1592 H 0.26983 0.86953 0.41497 0.0
H1593 H 0.3172 0.91587 0.40798 0.0
H1594 H 0.25605 0.8775 0.47372 0.0
H1595 H 0.277 0.85945 0.47617 0.0
H1596 H 0.25834 0.85716 0.45202 0.0
H1597 H 0.31275 0.93589 0.46586 0.0
H1598 H 0.33111 0.93332 0.44138 0.0
H1599 H 0.33332 0.91743 0.46777 0.0
C1600 C 0.11653 0.67876 0.42231 0.0
C1601 C 0.13148 0.69371 0.41654 0.0
C1602 C 0.11397 0.67231 0.44619 0.0
C1603 C 0.12676 0.68097 0.4643 0.0
C1604 C 0.14377 0.69375 0.45785 0.0
C1605 C 0.14579 0.70015 0.434 0.0
C1606 C 0.09601 0.65822 0.45233 0.0
C1607 C 0.15819 0.70283 0.47652 0.0
C1608 C 0.10299 0.70118 0.52131 0.0
C1609 C 0.11168 0.68817 0.53858 0.0
C1610 C 0.10655 0.69795 0.49688 0.0
C1611 C 0.1194 0.6814 0.48954 0.0
C1612 C 0.1271 0.66736 0.5068 0.0
C1613 C 0.12307 0.67089 0.53128 0.0
C1614 C 0.09766 0.71313 0.47907 0.0
C1615 C 0.14069 0.64946 0.49969 0.0
H1616 H 0.10559 0.6736 0.4087 0.0
H1617 H 0.15766 0.71137 0.42935 0.0
H1618 H 0.10027 0.6477 0.46719 0.0
H1619 H 0.08243 0.66751 0.45834 0.0
H1620 H 0.09107 0.64902 0.43652 0.0
H1621 H 0.1726 0.70935 0.46832 0.0
H1622 H 0.14989 0.71531 0.48618 0.0
H1623 H 0.16277 0.69112 0.48994 0.0
H1624 H 0.09384 0.71433 0.52696 0.0
H1625 H 0.12972 0.66075 0.54468 0.0
H1626 H 0.08941 0.70499 0.46436 0.0
H1627 H 0.11059 0.72212 0.47088 0.0
H1628 H 0.08651 0.724 0.48757 0.0
H1629 H 0.13577 0.64292 0.48219 0.0
H1630 H 0.1403 0.63718 0.51351 0.0
H1631 H 0.15713 0.65474 0.49783 0.0
C1632 C 0.28016 0.08111 0.45481 0.0
C1633 C 0.29303 0.0942 0.44143 0.0
C1634 C 0.28136 0.08071 0.47995 0.0
C1635 C 0.29528 0.09421 0.49185 0.0
C1636 C 0.30869 0.10708 0.47835 0.0
C1637 C 0.30761 0.1067 0.45323 0.0
C1638 C 0.26721 0.06638 0.49377 0.0
C1639 C 0.32331 0.12208 0.49042 0.0
C1640 C 0.27804 0.11149 0.55356 0.0
C1641 C 0.29157 0.10042 0.56849 0.0
C1642 C 0.27942 0.10987 0.52857 0.0
C1643 C 0.29427 0.09635 0.51832 0.0
C1644 C 0.30791 0.08501 0.53333 0.0
C1645 C 0.30662 0.08744 0.55835 0.0
C1646 C 0.26499 0.12266 0.51314 0.0
C1647 C 0.32353 0.07006 0.52298 0.0
H1648 H 0.26904 0.0713 0.44562 0.0
H1649 H 0.3175 0.11691 0.44284 0.0
H1650 H 0.27631 0.0579 0.50752 0.0
H1651 H 0.25504 0.07535 0.50333 0.0
H1652 H 0.25928 0.05515 0.48185 0.0
H1653 H 0.33371 0.12999 0.47737 0.0
H1654 H 0.31401 0.13381 0.50014 0.0
H1655 H 0.33319 0.11414 0.5039 0.0
H1656 H 0.26652 0.12167 0.56145 0.0
H1657 H 0.31695 0.07877 0.56999 0.0
H1658 H 0.25458 0.11254 0.50248 0.0
H1659 H 0.27428 0.13193 0.50025 0.0
H1660 H 0.25507 0.13317 0.52396 0.0
H1661 H 0.3152 0.0582 0.51236 0.0
H1662 H 0.33293 0.06235 0.53712 0.0
H1663 H 0.33435 0.07808 0.51054 0.0
C1664 C 0.86092 0.27361 0.44216 0.0
C1665 C 0.87161 0.28529 0.42497 0.0
C1666 C 0.86481 0.27624 0.46669 0.0
C1667 C 0.88002 0.29067 0.47418 0.0
C1668 C 0.89009 0.30328 0.457 0.0
C1669 C 0.88563 0.30053 0.43252 0.0
C1670 C 0.85344 0.26276 0.48451 0.0
C1671 C 0.90649 0.31872 0.46432 0.0
C1672 C 0.88085 0.30016 0.54132 0.0
C1673 C 0.89491 0.28495 0.5488 0.0
C1674 C 0.87659 0.30308 0.51682 0.0
C1675 C 0.88691 0.2907 0.49961 0.0
C1676 C 0.90227 0.27642 0.50709 0.0
C1677 C 0.90594 0.27359 0.53163 0.0
C1678 C 0.86004 0.31837 0.50951 0.0
C1679 C 0.91391 0.2632 0.48925 0.0
H1680 H 0.84984 0.26201 0.43639 0.0
H1681 H 0.89394 0.30959 0.41926 0.0
H1682 H 0.86463 0.25175 0.49262 0.0
H1683 H 0.84683 0.27214 0.4993 0.0
H1684 H 0.84053 0.25394 0.47602 0.0
H1685 H 0.91065 0.32923 0.44936 0.0
H1686 H 0.901 0.32796 0.47981 0.0
H1687 H 0.92087 0.31054 0.47007 0.0
H1688 H 0.87229 0.30894 0.55462 0.0
H1689 H 0.917 0.262 0.53743 0.0
H1690 H 0.84573 0.31004 0.50381 0.0
H1691 H 0.86541 0.32765 0.494 0.0
H1692 H 0.85582 0.32884 0.52448 0.0
H1693 H 0.90294 0.25197 0.48115 0.0
H1694 H 0.927 0.25464 0.49774 0.0
H1695 H 0.92032 0.27272 0.47446 0.0
C1696 C 0.70569 0.88367 0.55731 0.0
C1697 C 0.68925 0.8928 0.57006 0.0
C1698 C 0.70703 0.88551 0.53232 0.0
C1699 C 0.69194 0.89736 0.51993 0.0
C1700 C 0.67564 0.90715 0.53282 0.0
C1701 C 0.67426 0.90443 0.55779 0.0
C1702 C 0.72427 0.87432 0.51912 0.0
C1703 C 0.6597 0.92044 0.52025 0.0
C1704 C 0.70863 0.91288 0.45718 0.0
C1705 C 0.69783 0.89853 0.44319 0.0
C1706 C 0.706 0.9134 0.48219 0.0
C1707 C 0.69288 0.89873 0.49337 0.0
C1708 C 0.68176 0.88436 0.47922 0.0
C1709 C 0.68412 0.88467 0.45421 0.0
C1710 C 0.71758 0.92935 0.49666 0.0
C1711 C 0.66813 0.86808 0.49054 0.0
H1712 H 0.71719 0.87453 0.56683 0.0
H1713 H 0.66166 0.91162 0.56776 0.0
H1714 H 0.71735 0.86358 0.50586 0.0
H1715 H 0.73408 0.88537 0.509 0.0
H1716 H 0.73455 0.8655 0.53145 0.0
H1717 H 0.64892 0.92811 0.53309 0.0
H1718 H 0.66775 0.93233 0.50939 0.0
H1719 H 0.65025 0.91102 0.50771 0.0
H1720 H 0.7191 0.92371 0.44855 0.0
H1721 H 0.67588 0.87347 0.44335 0.0
H1722 H 0.72977 0.92185 0.5078 0.0
H1723 H 0.70666 0.93726 0.50909 0.0
H1724 H 0.72528 0.94099 0.48507 0.0
H1725 H 0.67786 0.85805 0.50215 0.0
H1726 H 0.66015 0.85838 0.47693 0.0
H1727 H 0.65607 0.87522 0.50216 0.0
C1728 C 0.6253 0.79649 0.05889 0.0
C1729 C 0.63812 0.77971 0.06447 0.0
C1730 C 0.62085 0.80148 0.03492 0.0
C1731 C 0.6298 0.78962 0.01627 0.0
C1732 C 0.6444 0.77401 0.02187 0.0
C1733 C 0.64819 0.76906 0.04595 0.0
C1734 C 0.60511 0.81814 0.02969 0.0
C1735 C 0.65472 0.76138 0.00246 0.0
C1736 C 0.59926 0.77626 0.96046 0.0
C1737 C 0.60905 0.78846 0.94313 0.0
C1738 C 0.60503 0.77753 0.98464 0.0
C1739 C 0.6214 0.79096 -0.00851 0.0
C1740 C 0.63075 0.80399 0.97421 0.0
C1741 C 0.62427 0.80274 0.95014 0.0
C1742 C 0.59427 0.76373 0.00262 0.0
C1743 C 0.64842 0.81828 0.9808 0.0
H1744 H 0.61747 0.80474 0.07322 0.0
H1745 H 0.65834 0.75627 0.05027 0.0
H1746 H 0.6102 0.82766 0.01426 0.0
H1747 H 0.5899 0.81102 0.0248 0.0
H1748 H 0.60256 0.82823 0.04548 0.0
H1749 H 0.66799 0.75216 0.00953 0.0
H1750 H 0.64305 0.75074 -0.00545 0.0
H1751 H 0.66059 0.77137 0.98781 0.0
H1752 H 0.58734 0.76537 0.955 0.0
H1753 H 0.63193 0.81209 0.93663 0.0
H1754 H 0.58906 0.7727 0.01846 0.0
H1755 H 0.60546 0.75194 0.00908 0.0
H1756 H 0.58046 0.7558 -0.00518 0.0
H1757 H 0.64479 0.82672 -0.00241 0.0
H1758 H 0.65174 0.82954 0.96631 0.0
H1759 H 0.66282 0.8092 0.98411 0.0
C1760 C 0.20059 0.62152 0.93049 0.0
C1761 C 0.18446 0.6107 0.91914 0.0
C1762 C 0.20436 0.61909 0.95506 0.0
C1763 C 0.19213 0.60497 0.96831 0.0
C1764 C 0.17602 0.59373 0.95683 0.0
C1765 C 0.17211 0.59702 0.93235 0.0
C1766 C 0.22125 0.6318 0.96687 0.0
C1767 C 0.16311 0.57813 0.97034 0.0
C1768 C 0.21671 0.58826 0.02699 0.0
C1769 C 0.20569 0.60035 0.04345 0.0
C1770 C 0.21178 0.58888 0.00247 0.0
C1771 C 0.19599 0.60244 -0.00566 0.0
C1772 C 0.18474 0.61457 0.01098 0.0
C1773 C 0.18952 0.61312 0.03543 0.0
C1774 C 0.22365 0.5753 0.98524 0.0
C1775 C 0.16824 0.62966 0.00288 0.0
H1776 H 0.21003 0.6322 0.9202 0.0
H1777 H 0.15979 0.58852 0.92339 0.0
H1778 H 0.21446 0.64082 0.98187 0.0
H1779 H 0.23344 0.62167 0.97462 0.0
H1780 H 0.22889 0.64254 0.95409 0.0
H1781 H 0.15176 0.57009 0.95851 0.0
H1782 H 0.17355 0.56659 0.97874 0.0
H1783 H 0.15432 0.58572 0.98504 0.0
H1784 H 0.22908 0.57824 0.03331 0.0
H1785 H 0.18109 0.62256 0.04821 0.0
H1786 H 0.23345 0.58484 0.97316 0.0
H1787 H 0.21255 0.56661 0.97377 0.0
H1788 H 0.234 0.56426 -0.00529 0.0
H1789 H 0.17546 0.64133 -0.00903 0.0
H1790 H 0.16065 0.63763 0.01821 0.0
H1791 H 0.15597 0.62172 -0.0077 0.0
C1792 C 0.36268 0.22121 0.05852 0.0
C1793 C 0.37703 0.21153 0.07379 0.0
C1794 C 0.36182 0.21634 0.03408 0.0
C1795 C 0.37598 0.20174 0.02462 0.0
C1796 C 0.38999 0.19134 0.0401 0.0
C1797 C 0.39021 0.19623 0.06466 0.0
C1798 C 0.34637 0.22749 0.01823 0.0
C1799 C 0.40549 0.1759 0.03053 0.0
C1800 C 0.36424 0.18431 0.96106 0.0
C1801 C 0.37563 0.19875 0.94777 0.0
C1802 C 0.36482 0.18446 0.98627 0.0
C1803 C 0.3774 0.19914 -0.00178 0.0
C1804 C 0.38985 0.21293 0.98477 0.0
C1805 C 0.38863 0.21271 0.95969 0.0
C1806 C 0.35113 0.16972 7e-05 0.0
C1807 C 0.40377 0.22857 -0.00315 0.0
H1808 H 0.35225 0.23282 0.06565 0.0
H1809 H 0.40131 0.18875 0.07649 0.0
H1810 H 0.35491 0.23789 0.00588 0.0
H1811 H 0.33751 0.21642 0.00702 0.0
H1812 H 0.33503 0.23674 0.02879 0.0
H1813 H 0.41366 0.16755 0.04518 0.0
H1814 H 0.39753 0.16461 0.01877 0.0
H1815 H 0.41741 0.18389 0.01944 0.0
H1816 H 0.35416 0.17351 0.95181 0.0
H1817 H 0.39768 0.2237 0.94939 0.0
H1818 H 0.33823 0.1783 0.00885 0.0
H1819 H 0.36022 0.16207 0.01448 0.0
H1820 H 0.34417 0.1578 0.98826 0.0
H1821 H 0.39395 0.24016 0.00611 0.0
H1822 H 0.4141 0.23662 0.98385 0.0
H1823 H 0.41369 0.22111 0.01066 0.0
C1824 C 0.77932 0.37544 0.02732 0.0
C1825 C 0.79397 0.38269 0.04396 0.0
C1826 C 0.78219 0.37866 0.00265 0.0
C1827 C 0.79982 0.38994 -0.00539 0.0
C1828 C 0.81451 0.39755 0.01141 0.0
C1829 C 0.81157 0.39356 0.03593 0.0
C1830 C 0.76646 0.36988 0.9852 0.0
C1831 C 0.83315 0.41012 0.00351 0.0
C1832 C 0.81581 0.38233 0.92971 0.0
C1833 C 0.80488 0.39824 0.91839 0.0
C1834 C 0.81466 0.37968 0.95465 0.0
C1835 C 0.8028 0.39364 0.96856 0.0
C1836 C 0.79273 0.41041 0.95733 0.0
C1837 C 0.79363 0.41234 0.93228 0.0
C1838 C 0.82523 0.36135 0.96594 0.0
C1839 C 0.78045 0.42594 0.97169 0.0
H1840 H 0.76577 0.36695 0.03356 0.0
H1841 H 0.82279 0.39933 0.04887 0.0
H1842 H 0.75889 0.38242 0.97495 0.0
H1843 H 0.77452 0.35984 0.97203 0.0
H1844 H 0.75406 0.36083 -0.00564 0.0
H1845 H 0.84284 0.41531 0.01892 0.0
H1846 H 0.84316 0.40103 -0.00879 0.0
H1847 H 0.82775 0.42379 -0.00661 0.0
H1848 H 0.82441 0.37133 0.91895 0.0
H1849 H 0.7853 0.42472 0.9235 0.0
H1850 H 0.8132 0.35106 0.97382 0.0
H1851 H 0.83566 0.36629 0.98076 0.0
H1852 H 0.83461 0.35246 0.95275 0.0
H1853 H 0.76627 0.4186 0.97936 0.0
H1854 H 0.77545 0.43921 0.96057 0.0
H1855 H 0.78997 0.43167 0.98694 0.0
C1856 C 0.62647 0.21138 0.01738 0.0
C1857 C 0.61451 0.19673 0.02958 0.0
C1858 C 0.62486 0.21363 -0.00753 0.0
C1859 C 0.61045 0.20134 0.97961 0.0
C1860 C 0.59888 0.18596 -0.00827 0.0
C1861 C 0.60127 0.18365 0.01667 0.0
C1862 C 0.63789 0.22985 0.98013 0.0
C1863 C 0.58308 0.17286 0.97868 0.0
C1864 C 0.59079 0.23009 0.92542 0.0
C1865 C 0.60306 0.22169 0.90707 0.0
C1866 C 0.59184 0.2224 0.94884 0.0
C1867 C 0.60602 0.20635 0.95413 0.0
C1868 C 0.61774 0.19715 0.93541 0.0
C1869 C 0.6159 0.20479 0.91192 0.0
C1870 C 0.57866 0.23228 0.96818 0.0
C1871 C 0.63328 0.18027 0.94045 0.0
H1872 H 0.63694 0.2213 0.02739 0.0
H1873 H 0.59201 0.17235 0.02622 0.0
H1874 H 0.64569 0.2234 0.96401 0.0
H1875 H 0.6276 0.24253 0.97404 0.0
H1876 H 0.65007 0.23635 -0.00782 0.0
H1877 H 0.57743 0.15993 0.98993 0.0
H1878 H 0.56942 0.18242 0.97357 0.0
H1879 H 0.58987 0.16661 0.96187 0.0
H1880 H 0.58064 0.24299 0.92152 0.0
H1881 H 0.62541 0.19835 0.89766 0.0
H1882 H 0.58884 0.24146 0.98021 0.0
H1883 H 0.57088 0.22041 0.97933 0.0
H1884 H 0.56647 0.24255 0.96058 0.0
H1885 H 0.647 0.18676 0.95003 0.0
H1886 H 0.63889 0.17283 0.9237 0.0
H1887 H 0.62629 0.16841 0.95227 0.0
C1888 C 0.81604 0.6 0.05679 0.0
C1889 C 0.80404 0.58532 0.06889 0.0
C1890 C 0.81492 0.60184 0.03175 0.0
C1891 C 0.80212 0.58813 0.01859 0.0
C1892 C 0.7909 0.57252 0.03069 0.0
C1893 C 0.79165 0.57158 0.05583 0.0
C1894 C 0.82659 0.61908 0.01954 0.0
C1895 C 0.77773 0.55715 0.01716 0.0
C1896 C 0.78104 0.60628 0.95866 0.0
C1897 C 0.79608 0.5985 0.94283 0.0
C1898 C 0.78281 0.60297 0.98344 0.0
C1899 C 0.79956 0.59092 -0.00767 0.0
C1900 C 0.81427 0.58229 0.97622 0.0
C1901 C 0.8126 0.58658 0.95163 0.0
C1902 C 0.7672 0.61296 0.00014 0.0
C1903 C 0.83182 0.56872 0.98497 0.0
H1904 H 0.82542 0.61076 0.06702 0.0
H1905 H 0.78245 0.56018 0.06532 0.0
H1906 H 0.83713 0.61292 0.00545 0.0
H1907 H 0.81527 0.62944 0.01054 0.0
H1908 H 0.83609 0.62822 0.03236 0.0
H1909 H 0.772 0.54462 0.02897 0.0
H1910 H 0.76399 0.56493 0.0091 0.0
H1911 H 0.78691 0.55033 0.00223 0.0
H1912 H 0.76838 0.61565 0.95173 0.0
H1913 H 0.8241 0.58046 0.93921 0.0
H1914 H 0.77552 0.62324 0.01284 0.0
H1915 H 0.75906 0.60115 0.011 0.0
H1916 H 0.75526 0.62205 0.99031 0.0
H1917 H 0.8428 0.57774 -0.0038 0.0
H1918 H 0.84077 0.56176 0.96992 0.0
H1919 H 0.82545 0.55625 -0.00359 0.0
C1920 C 0.38292 0.79779 0.91115 0.0
C1921 C 0.36725 0.78286 0.90875 0.0
C1922 C 0.38869 0.80511 0.93396 0.0
C1923 C 0.3784 0.79736 0.95458 0.0
C1924 C 0.36109 0.78398 0.9519 0.0
C1925 C 0.35581 0.77681 0.92902 0.0
C1926 C 0.40699 0.81962 0.93605 0.0
C1927 C 0.34939 0.77564 0.97338 0.0
C1928 C 0.40675 0.78372 0.01161 0.0
C1929 C 0.39825 0.79783 0.02783 0.0
C1930 C 0.40179 0.78458 0.98717 0.0
C1931 C 0.3878 0.79983 0.97881 0.0
C1932 C 0.38056 0.81518 -0.00525 0.0
C1933 C 0.38595 0.81403 0.0192 0.0
C1934 C 0.41019 0.7681 0.97072 0.0
C1935 C 0.36583 0.8318 0.98648 0.0
H1936 H 0.39175 0.80259 0.89548 0.0
H1937 H 0.34343 0.76554 0.92714 0.0
H1938 H 0.40427 0.83112 0.9504 0.0
H1939 H 0.42125 0.81082 0.94091 0.0
H1940 H 0.41006 0.82774 0.91886 0.0
H1941 H 0.3347 0.76769 0.96811 0.0
H1942 H 0.35949 0.76455 0.98307 0.0
H1943 H 0.34543 0.78815 0.98607 0.0
H1944 H 0.41654 0.77137 0.01822 0.0
H1945 H 0.3794 0.82502 0.03174 0.0
H1946 H 0.41659 0.77496 0.95403 0.0
H1947 H 0.39726 0.75764 0.96549 0.0
H1948 H 0.42269 0.75886 0.97939 0.0
H1949 H 0.3702 0.83745 0.96836 0.0
H1950 H 0.36563 0.84494 -0.00083 0.0
H1951 H 0.34972 0.8255 0.98533 0.0
C1952 C 0.18821 0.39823 0.94248 0.0
C1953 C 0.20244 0.41164 0.9315 0.0
C1954 C 0.18769 0.39606 0.96753 0.0
C1955 C 0.20133 0.40801 0.98186 0.0
C1956 C 0.2146 0.42269 0.97091 0.0
C1957 C 0.21521 0.42411 0.94579 0.0
C1958 C 0.17365 0.37993 0.97848 0.0
C1959 C 0.22894 0.43612 0.98563 0.0
C1960 C 0.19324 0.40849 0.04955 0.0
C1961 C 0.20895 0.39494 0.05706 0.0
C1962 C 0.19062 0.41311 0.02508 0.0
C1963 C 0.20361 0.40344 0.00785 0.0
C1964 C 0.21914 0.38936 0.0154 0.0
C1965 C 0.22181 0.38552 0.03994 0.0
C1966 C 0.17429 0.4286 0.0177 0.0
C1967 C 0.23298 0.37835 -0.00244 0.0
H1968 H 0.17834 0.38853 0.93145 0.0
H1969 H 0.22607 0.43465 0.93729 0.0
H1970 H 0.18342 0.36731 0.98575 0.0
H1971 H 0.16458 0.38639 -0.00632 0.0
H1972 H 0.16253 0.37339 0.96519 0.0
H1973 H 0.23591 0.44868 0.97477 0.0
H1974 H 0.22032 0.44293 0.00099 0.0
H1975 H 0.24186 0.42672 -0.00687 0.0
H1976 H 0.1834 0.41588 0.06285 0.0
H1977 H 0.23386 0.37491 0.04574 0.0
H1978 H 0.1631 0.4216 0.00486 0.0
H1979 H 0.18194 0.44161 0.00832 0.0
H1980 H 0.16538 0.43466 0.0333 0.0
H1981 H 0.22321 0.37015 0.98416 0.0
H1982 H 0.24355 0.36709 0.00634 0.0
H1983 H 0.24272 0.38959 0.98763 0.0
C1984 C 0.18161 0.35898 0.20926 0.0
C1985 C 0.16836 0.36485 0.19046 0.0
C1986 C 0.17348 0.35381 0.23179 0.0
C1987 C 0.15163 0.35528 0.23583 0.0
C1988 C 0.1383 0.36235 0.21729 0.0
C1989 C 0.14679 0.36664 0.19457 0.0
C1990 C 0.18818 0.34574 0.25086 0.0
C1991 C 0.11505 0.36487 0.22126 0.0
C1992 C 0.13153 0.31902 0.28344 0.0
C1993 C 0.13303 0.33117 0.3041 0.0
C1994 C 0.13672 0.32696 0.26085 0.0
C1995 C 0.14283 0.34775 0.25884 0.0
C1996 C 0.14282 0.36049 0.27942 0.0
C1997 C 0.13833 0.35192 0.30197 0.0
C1998 C 0.13712 0.3127 0.23947 0.0
C1999 C 0.14843 0.38291 0.27779 0.0
H2000 H 0.19829 0.35744 0.20599 0.0
H2001 H 0.1366 0.37136 0.18001 0.0
H2002 H 0.18696 0.35515 0.26737 0.0
H2003 H 0.1837 0.32983 0.25571 0.0
H2004 H 0.20477 0.34572 0.24484 0.0
H2005 H 0.10742 0.37325 0.20626 0.0
H2006 H 0.10756 0.34959 0.22291 0.0
H2007 H 0.11206 0.37325 0.23826 0.0
H2008 H 0.12755 0.30293 0.28512 0.0
H2009 H 0.13926 0.36135 0.31796 0.0
H2010 H 0.15348 0.31097 0.23301 0.0
H2011 H 0.12784 0.31917 0.22447 0.0
H2012 H 0.13085 0.29726 0.24385 0.0
H2013 H 0.16552 0.38455 0.27479 0.0
H2014 H 0.14424 0.39135 0.29444 0.0
H2015 H 0.14035 0.39018 0.26233 0.0
C2016 C 0.61541 0.13825 0.17214 0.0
C2017 C 0.63356 0.14209 0.15872 0.0
C2018 C 0.61675 0.13176 0.19611 0.0
C2019 C 0.63668 0.13008 0.20703 0.0
C2020 C 0.65504 0.13273 0.19306 0.0
C2021 C 0.65322 0.13832 0.16887 0.0
C2022 C 0.59686 0.12799 0.21009 0.0
C2023 C 0.67662 0.13155 0.20413 0.0
C2024 C 0.64415 0.14556 0.2718 0.0
C2025 C 0.65048 0.12701 0.28201 0.0
C2026 C 0.63856 0.1466 0.24752 0.0
C2027 C 0.63856 0.12846 0.23351 0.0
C2028 C 0.64301 0.10938 0.24442 0.0
C2029 C 0.64946 0.10894 0.26849 0.0
C2030 C 0.6344 0.16735 0.23645 0.0
C2031 C 0.6421 0.0896 0.23041 0.0
H2032 H 0.60018 0.14106 0.16417 0.0
H2033 H 0.66725 0.14148 0.1585 0.0
H2034 H 0.59864 0.11461 0.22224 0.0
H2035 H 0.59329 0.14155 0.22137 0.0
H2036 H 0.58331 0.12527 0.19799 0.0
H2037 H 0.68927 0.13306 0.19053 0.0
H2038 H 0.67846 0.14399 0.21756 0.0
H2039 H 0.6787 0.1168 0.21369 0.0
H2040 H 0.64513 0.15952 0.28231 0.0
H2041 H 0.65424 0.09456 0.27656 0.0
H2042 H 0.61913 0.16735 0.22699 0.0
H2043 H 0.64669 0.17082 0.22293 0.0
H2044 H 0.63428 0.17982 0.25003 0.0
H2045 H 0.62836 0.08944 0.2182 0.0
H2046 H 0.64124 0.07607 0.24248 0.0
H2047 H 0.65637 0.08811 0.21919 0.0
C2048 C 0.85816 0.60716 0.20811 0.0
C2049 C 0.85553 0.62231 0.19053 0.0
C2050 C 0.86392 0.61243 0.23159 0.0
C2051 C 0.86629 0.63335 0.23766 0.0
C2052 C 0.86551 0.64849 0.21945 0.0
C2053 C 0.86043 0.64271 0.19593 0.0
C2054 C 0.86559 0.59578 0.2503 0.0
C2055 C 0.86765 0.671 0.22521 0.0
C2056 C 0.84505 0.65034 0.29782 0.0
C2057 C 0.86337 0.65587 0.30996 0.0
C2058 C 0.8459 0.6426 0.27441 0.0
C2059 C 0.86562 0.63972 0.2632 0.0
C2060 C 0.88425 0.64414 0.27593 0.0
C2061 C 0.8829 0.65256 0.29907 0.0
C2062 C 0.82561 0.6384 0.26129 0.0
C2063 C 0.90554 0.64054 0.2649 0.0
H2064 H 0.85461 0.59133 0.20382 0.0
H2065 H 0.85833 0.65444 0.18235 0.0
H2066 H 0.87874 0.59889 0.26282 0.0
H2067 H 0.85096 0.59529 0.26104 0.0
H2068 H 0.86793 0.58048 0.24199 0.0
H2069 H 0.86926 0.68051 0.20876 0.0
H2070 H 0.85354 0.67619 0.23516 0.0
H2071 H 0.88141 0.67378 0.2369 0.0
H2072 H 0.82995 0.65302 0.30618 0.0
H2073 H 0.8971 0.65671 0.30857 0.0
H2074 H 0.82501 0.62217 0.25545 0.0
H2075 H 0.82471 0.64806 0.24491 0.0
H2076 H 0.81163 0.64156 0.27258 0.0
H2077 H 0.90612 0.62536 0.25593 0.0
H2078 H 0.91825 0.64132 0.27849 0.0
H2079 H 0.90864 0.65234 0.25101 0.0
C2080 C 0.37614 0.8197 0.18213 0.0
C2081 C 0.3739 0.83239 0.162 0.0
C2082 C 0.37214 0.82709 0.20527 0.0
C2083 C 0.36641 0.84787 0.20835 0.0
C2084 C 0.36572 0.86116 0.18825 0.0
C2085 C 0.36908 0.85315 0.16517 0.0
C2086 C 0.3724 0.81226 0.2261 0.0
C2087 C 0.3604 0.88357 0.191 0.0
C2088 C 0.32838 0.85823 0.25881 0.0
C2089 C 0.34177 0.86407 0.2775 0.0
C2090 C 0.33626 0.85317 0.23618 0.0
C2091 C 0.35805 0.85471 0.23187 0.0
C2092 C 0.37162 0.86142 0.2504 0.0
C2093 C 0.36334 0.86563 0.27328 0.0
C2094 C 0.3213 0.84543 0.21718 0.0
C2095 C 0.39482 0.86392 0.24611 0.0
H2096 H 0.37983 0.80361 0.17969 0.0
H2097 H 0.36764 0.86304 0.14961 0.0
H2098 H 0.38182 0.81846 0.24115 0.0
H2099 H 0.35619 0.81003 0.23283 0.0
H2100 H 0.37886 0.79707 0.22098 0.0
H2101 H 0.36423 0.89245 0.17455 0.0
H2102 H 0.34341 0.88526 0.19466 0.0
H2103 H 0.36898 0.8903 0.20644 0.0
H2104 H 0.3117 0.85682 0.26218 0.0
H2105 H 0.37364 0.8703 0.28775 0.0
H2106 H 0.32593 0.82978 0.21148 0.0
H2107 H 0.32199 0.85541 0.20108 0.0
H2108 H 0.30483 0.84493 0.22362 0.0
H2109 H 0.40213 0.84871 0.24321 0.0
H2110 H 0.4028 0.87148 0.26148 0.0
H2111 H 0.3976 0.87312 0.22965 0.0
C2112 C 0.11183 0.62157 0.78564 0.0
C2113 C 0.11539 0.63814 0.80111 0.0
C2114 C 0.10634 0.6249 0.76161 0.0
C2115 C 0.10525 0.64522 0.75288 0.0
C2116 C 0.10625 0.66187 0.76916 0.0
C2117 C 0.11102 0.65807 0.79331 0.0
C2118 C 0.10408 0.60674 0.74504 0.0
C2119 C 0.10514 0.68379 0.76059 0.0
C2120 C 0.13159 0.65535 0.69327 0.0
C2121 C 0.1146 0.66092 0.67886 0.0
C2122 C 0.1286 0.64981 0.7173 0.0
C2123 C 0.10801 0.64914 0.72685 0.0
C2124 C 0.09066 0.65348 0.71191 0.0
C2125 C 0.0942 0.65976 0.68815 0.0
C2126 C 0.14761 0.64558 0.73272 0.0
C2127 C 0.06845 0.65217 0.72108 0.0
H2128 H 0.11493 0.60611 0.79184 0.0
H2129 H 0.11375 0.67088 0.80532 0.0
H2130 H 0.09158 0.60949 0.73156 0.0
H2131 H 0.11899 0.60431 0.73519 0.0
H2132 H 0.10039 0.59251 0.75515 0.0
H2133 H 0.10338 0.69474 0.77573 0.0
H2134 H 0.11975 0.68761 0.75073 0.0
H2135 H 0.09186 0.68591 0.74803 0.0
H2136 H 0.14736 0.65636 0.68611 0.0
H2137 H 0.08102 0.66392 0.67689 0.0
H2138 H 0.14678 0.62985 0.74018 0.0
H2139 H 0.14799 0.65639 0.7481 0.0
H2140 H 0.16251 0.64712 0.72256 0.0
H2141 H 0.06654 0.63938 0.73404 0.0
H2142 H 0.05713 0.65006 0.70614 0.0
H2143 H 0.06438 0.66662 0.73048 0.0
C2144 C 0.3373 0.10485 0.71597 0.0
C2145 C 0.33948 0.12118 0.69982 0.0
C2146 C 0.34204 0.1074 0.74037 0.0
C2147 C 0.34815 0.12696 0.74875 0.0
C2148 C 0.35179 0.14306 0.73218 0.0
C2149 C 0.34776 0.13982 0.70777 0.0
C2150 C 0.33909 0.08959 0.75732 0.0
C2151 C 0.35796 0.16428 0.74044 0.0
C2152 C 0.32883 0.14612 0.80875 0.0
C2153 C 0.3477 0.14852 0.82115 0.0
C2154 C 0.32863 0.1381 0.78543 0.0
C2155 C 0.3477 0.13165 0.77478 0.0
C2156 C 0.36649 0.13221 0.78821 0.0
C2157 C 0.36636 0.14113 0.81111 0.0
C2158 C 0.3083 0.13813 0.77154 0.0
C2159 C 0.38691 0.12453 0.77792 0.0
H2160 H 0.33105 0.09035 0.70969 0.0
H2161 H 0.34931 0.15247 0.69525 0.0
H2162 H 0.35157 0.08936 0.77118 0.0
H2163 H 0.32384 0.09112 0.76669 0.0
H2164 H 0.33915 0.07471 0.74761 0.0
H2165 H 0.36137 0.17471 0.72515 0.0
H2166 H 0.34503 0.171 0.7512 0.0
H2167 H 0.37197 0.16357 0.75214 0.0
H2168 H 0.31446 0.152 0.81653 0.0
H2169 H 0.38093 0.14286 0.8209 0.0
H2170 H 0.30503 0.12266 0.76423 0.0
H2171 H 0.3096 0.14879 0.75606 0.0
H2172 H 0.29478 0.14294 0.78276 0.0
H2173 H 0.38447 0.1102 0.76755 0.0
H2174 H 0.39866 0.12162 0.79223 0.0
H2175 H 0.39345 0.13615 0.76548 0.0
C2176 C 0.88421 0.31464 0.6968 0.0
C2177 C 0.86665 0.31353 0.68174 0.0
C2178 C 0.88258 0.32284 0.72001 0.0
C2179 C 0.86281 0.32943 0.72847 0.0
C2180 C 0.84508 0.32852 0.71321 0.0
C2181 C 0.8473 0.32084 0.68988 0.0
C2182 C 0.9019 0.32421 0.73556 0.0
C2183 C 0.82363 0.33506 0.72175 0.0
C2184 C 0.84838 0.32935 0.79422 0.0
C2185 C 0.84641 0.35039 0.79864 0.0
C2186 C 0.85494 0.32222 0.77172 0.0
C2187 C 0.86016 0.33653 0.75356 0.0
C2188 C 0.86007 0.35775 0.75871 0.0
C2189 C 0.85287 0.36447 0.78113 0.0
C2190 C 0.8545 0.29947 0.76678 0.0
C2191 C 0.86623 0.37342 0.74004 0.0
H2192 H 0.89923 0.30914 0.6904 0.0
H2193 H 0.83369 0.31986 0.67829 0.0
H2194 H 0.90366 0.33997 0.74275 0.0
H2195 H 0.90032 0.31376 0.75117 0.0
H2196 H 0.91637 0.32007 0.72558 0.0
H2197 H 0.81145 0.33318 0.70767 0.0
H2198 H 0.819 0.32586 0.73766 0.0
H2199 H 0.82394 0.35136 0.72736 0.0
H2200 H 0.84331 0.31845 0.80773 0.0
H2201 H 0.85157 0.38076 0.78467 0.0
H2202 H 0.86924 0.29447 0.75802 0.0
H2203 H 0.84148 0.29596 0.75424 0.0
H2204 H 0.85222 0.29034 0.78343 0.0
H2205 H 0.88067 0.3686 0.73049 0.0
H2206 H 0.86888 0.38878 0.74809 0.0
H2207 H 0.85358 0.37477 0.72647 0.0
C2208 C 0.62147 0.87 0.70286 0.0
C2209 C 0.62651 0.8544 0.68659 0.0
C2210 C 0.61452 0.86528 0.72608 0.0
C2211 C 0.61352 0.84452 0.7333 0.0
C2212 C 0.61661 0.82876 0.71617 0.0
C2213 C 0.62277 0.83394 0.69279 0.0
C2214 C 0.61028 0.88249 0.74351 0.0
C2215 C 0.61596 0.80642 0.72319 0.0
C2216 C 0.63375 0.83224 0.79541 0.0
C2217 C 0.61558 0.82547 0.807 0.0
C2218 C 0.63312 0.83883 0.77152 0.0
C2219 C 0.61369 0.83935 0.75923 0.0
C2220 C 0.59506 0.83375 0.77134 0.0
C2221 C 0.59629 0.82643 0.79501 0.0
C2222 C 0.65345 0.84432 0.75914 0.0
C2223 C 0.57398 0.83489 0.75917 0.0
H2224 H 0.62417 0.88586 0.6979 0.0
H2225 H 0.62676 0.82189 0.68018 0.0
H2226 H 0.5968 0.87873 0.75532 0.0
H2227 H 0.62419 0.8848 0.75513 0.0
H2228 H 0.607 0.89711 0.73402 0.0
H2229 H 0.61602 0.79615 0.70727 0.0
H2230 H 0.62987 0.80279 0.73437 0.0
H2231 H 0.60185 0.80305 0.73409 0.0
H2232 H 0.64868 0.83135 0.80463 0.0
H2233 H 0.58219 0.82131 0.80409 0.0
H2234 H 0.65283 0.86033 0.75251 0.0
H2235 H 0.65586 0.83423 0.74332 0.0
H2236 H 0.66722 0.84278 0.7712 0.0
H2237 H 0.57262 0.84906 0.74826 0.0
H2238 H 0.56093 0.83449 0.77237 0.0
H2239 H 0.57213 0.82165 0.74687 0.0
C2240 C 0.89183 0.68041 0.72726 0.0
C2241 C 0.87505 0.67956 0.71107 0.0
C2242 C 0.89024 0.67131 0.75002 0.0
C2243 C 0.87109 0.66211 0.75694 0.0
C2244 C 0.85466 0.66005 0.74002 0.0
C2245 C 0.85704 0.66847 0.71707 0.0
C2246 C 0.90852 0.67273 0.7671 0.0
C2247 C 0.83382 0.65068 0.74678 0.0
C2248 C 0.85867 0.63201 0.81303 0.0
C2249 C 0.84948 0.64724 0.82727 0.0
C2250 C 0.8679 0.63695 0.79091 0.0
C2251 C 0.86685 0.65738 0.78251 0.0
C2252 C 0.85867 0.67297 0.79756 0.0
C2253 C 0.85044 0.66772 0.82004 0.0
C2254 C 0.87752 0.62011 0.77597 0.0
C2255 C 0.85682 0.69489 0.78908 0.0
H2256 H 0.90588 0.68881 0.72245 0.0
H2257 H 0.84404 0.66787 0.70455 0.0
H2258 H 0.90599 0.6856 0.77977 0.0
H2259 H 0.91005 0.65848 0.77784 0.0
H2260 H 0.92346 0.67553 0.75738 0.0
H2261 H 0.823 0.64952 0.73121 0.0
H2262 H 0.83609 0.63514 0.75435 0.0
H2263 H 0.82621 0.66017 0.76084 0.0
H2264 H 0.85805 0.61615 0.81884 0.0
H2265 H 0.84318 0.67943 0.83109 0.0
H2266 H 0.8916 0.6257 0.76626 0.0
H2267 H 0.86604 0.61481 0.76238 0.0
H2268 H 0.88198 0.60674 0.78721 0.0
H2269 H 0.87221 0.70065 0.78281 0.0
H2270 H 0.85096 0.70528 0.8034 0.0
H2271 H 0.84586 0.69566 0.77363 0.0
C2272 C 0.3637 0.79069 0.74081 0.0
C2273 C 0.37015 0.80044 0.76196 0.0
C2274 C 0.35902 0.80202 0.72018 0.0
C2275 C 0.36156 0.82357 0.72049 0.0
C2276 C 0.36973 0.83332 0.74118 0.0
C2277 C 0.37355 0.82165 0.76193 0.0
C2278 C 0.34986 0.79105 0.6987 0.0
C2279 C 0.37349 0.85614 0.7418 0.0
C2280 C 0.35535 0.8463 0.65834 0.0
C2281 C 0.33424 0.85214 0.65883 0.0
C2282 C 0.36512 0.83856 0.67903 0.0
C2283 C 0.35317 0.83581 0.70022 0.0
C2284 C 0.33207 0.84248 0.70098 0.0
C2285 C 0.32298 0.8509 0.68036 0.0
C2286 C 0.3879 0.83247 0.67789 0.0
C2287 C 0.31859 0.83934 0.72301 0.0
H2288 H 0.36099 0.77429 0.74081 0.0
H2289 H 0.37875 0.82917 0.77823 0.0
H2290 H 0.33354 0.79633 0.69571 0.0
H2291 H 0.35892 0.79472 0.68227 0.0
H2292 H 0.34968 0.77415 0.70105 0.0
H2293 H 0.38368 0.86063 0.75709 0.0
H2294 H 0.38083 0.86141 0.72481 0.0
H2295 H 0.35832 0.86425 0.7437 0.0
H2296 H 0.36412 0.84752 0.64173 0.0
H2297 H 0.30661 0.85535 0.6807 0.0
H2298 H 0.38917 0.81555 0.67676 0.0
H2299 H 0.39626 0.83742 0.69438 0.0
H2300 H 0.39589 0.83918 0.662 0.0
H2301 H 0.31675 0.82269 0.7265 0.0
H2302 H 0.30277 0.84621 0.72099 0.0
H2303 H 0.32619 0.84616 0.73901 0.0
C2304 C 0.11049 0.33887 0.71485 0.0
C2305 C 0.12667 0.33693 0.69801 0.0
C2306 C 0.11392 0.34894 0.73675 0.0
C2307 C 0.13424 0.35623 0.74219 0.0
C2308 C 0.15008 0.35584 0.72435 0.0
C2309 C 0.14592 0.34651 0.70221 0.0
C2310 C 0.0963 0.35024 0.75476 0.0
C2311 C 0.17207 0.36316 0.72953 0.0
C2312 C 0.15041 0.38519 0.79815 0.0
C2313 C 0.15727 0.36909 0.8128 0.0
C2314 C 0.14125 0.38123 0.77572 0.0
C2315 C 0.14005 0.36078 0.76742 0.0
C2316 C 0.14638 0.34445 0.78259 0.0
C2317 C 0.15452 0.34883 0.80537 0.0
C2318 C 0.13374 0.39898 0.76063 0.0
C2319 C 0.14587 0.32243 0.77422 0.0
H2320 H 0.09551 0.3316 0.71144 0.0
H2321 H 0.15845 0.34489 0.68918 0.0
H2322 H 0.09815 0.33798 0.76839 0.0
H2323 H 0.09662 0.36518 0.76431 0.0
H2324 H 0.08078 0.34831 0.74605 0.0
H2325 H 0.18205 0.36328 0.71318 0.0
H2326 H 0.17182 0.37881 0.73723 0.0
H2327 H 0.17941 0.3529 0.74302 0.0
H2328 H 0.15249 0.40089 0.80409 0.0
H2329 H 0.16005 0.33646 0.81671 0.0
H2330 H 0.11937 0.39488 0.7505 0.0
H2331 H 0.14602 0.40316 0.74742 0.0
H2332 H 0.13045 0.41269 0.77184 0.0
H2333 H 0.12972 0.31805 0.76901 0.0
H2334 H 0.15139 0.3116 0.78825 0.0
H2335 H 0.15594 0.32063 0.75809 0.0
C2336 C 0.64918 0.16789 0.66159 0.0
C2337 C 0.64923 0.14686 0.65677 0.0
C2338 C 0.64037 0.17548 0.68284 0.0
C2339 C 0.63076 0.16172 0.69916 0.0
C2340 C 0.62961 0.14059 0.6936 0.0
C2341 C 0.63926 0.13333 0.67264 0.0
C2342 C 0.64239 0.19805 0.68842 0.0
C2343 C 0.61877 0.12561 0.71013 0.0
C2344 C 0.63193 0.17946 0.76374 0.0
C2345 C 0.61292 0.19004 0.76538 0.0
C2346 C 0.6376 0.1694 0.7425 0.0
C2347 C 0.62355 0.16937 0.72282 0.0
C2348 C 0.6036 0.17861 0.72513 0.0
C2349 C 0.59866 0.18923 0.74629 0.0
C2350 C 0.65922 0.16014 0.74055 0.0
C2351 C 0.58789 0.17814 0.70488 0.0
H2352 H 0.65705 0.1783 0.64937 0.0
H2353 H 0.63919 0.11705 0.66873 0.0
H2354 H 0.62674 0.20482 0.6918 0.0
H2355 H 0.6518 0.20013 0.705 0.0
H2356 H 0.65001 0.20671 0.67362 0.0
H2357 H 0.61658 0.11039 0.70156 0.0
H2358 H 0.6282 0.12352 0.72667 0.0
H2359 H 0.60324 0.13162 0.71565 0.0
H2360 H 0.643 0.18022 0.77848 0.0
H2361 H 0.58387 0.19729 0.74769 0.0
H2362 H 0.66849 0.16873 0.72701 0.0
H2363 H 0.65824 0.14403 0.73437 0.0
H2364 H 0.6678 0.16051 0.75791 0.0
H2365 H 0.59301 0.18869 0.69039 0.0
H2366 H 0.57204 0.18291 0.71093 0.0
H2367 H 0.58688 0.16254 0.69704 0.0
C2368 C 0.84332 0.37954 0.18737 0.0
C2369 C 0.84007 0.3612 0.17483 0.0
C2370 C 0.85178 0.37938 0.21064 0.0
C2371 C 0.85589 0.36036 0.22191 0.0
C2372 C 0.85304 0.34184 0.20896 0.0
C2373 C 0.84563 0.34256 0.18536 0.0
C2374 C 0.85549 0.39955 0.22318 0.0
C2375 C 0.85664 0.32112 0.22043 0.0
C2376 C 0.88585 0.34504 0.27668 0.0
C2377 C 0.86927 0.34119 0.29252 0.0
C2378 C 0.88218 0.35457 0.25452 0.0
C2379 C 0.86135 0.35913 0.24776 0.0
C2380 C 0.84503 0.35756 0.26491 0.0
C2381 C 0.84932 0.3489 0.2874 0.0
C2382 C 0.9002 0.35771 0.23738 0.0
C2383 C 0.82261 0.36244 0.2585 0.0
H2384 H 0.8391 0.39399 0.17906 0.0
H2385 H 0.8429 0.3284 0.17565 0.0
H2386 H 0.84064 0.40484 0.23147 0.0
H2387 H 0.86756 0.39834 0.23744 0.0
H2388 H 0.86044 0.41146 0.2101 0.0
H2389 H 0.85273 0.30825 0.20815 0.0
H2390 H 0.87327 0.31954 0.22584 0.0
H2391 H 0.84693 0.31961 0.23688 0.0
H2392 H 0.90138 0.33936 0.28089 0.0
H2393 H 0.83653 0.34597 0.29977 0.0
H2394 H 0.89807 0.37202 0.22689 0.0
H2395 H 0.90088 0.34474 0.22452 0.0
H2396 H 0.9154 0.35843 0.24706 0.0
H2397 H 0.82155 0.37784 0.25023 0.0
H2398 H 0.81211 0.36197 0.27441 0.0
H2399 H 0.81685 0.35116 0.24512 0.0
C2400 C 0.65071 0.83027 0.20959 0.0
C2401 C 0.63174 0.82054 0.20426 0.0
C2402 C 0.65381 0.83966 0.23192 0.0
C2403 C 0.63723 0.83993 0.24884 0.0
C2404 C 0.61733 0.83212 0.24243 0.0
C2405 C 0.61493 0.82206 0.22034 0.0
C2406 C 0.67542 0.84745 0.23819 0.0
C2407 C 0.59899 0.83311 0.25951 0.0
C2408 C 0.65552 0.8351 0.31308 0.0
C2409 C 0.65742 0.85566 0.31976 0.0
C2410 C 0.64817 0.82975 0.29025 0.0
C2411 C 0.64181 0.84537 0.27415 0.0
C2412 C 0.64208 0.8661 0.2816 0.0
C2413 C 0.65038 0.87106 0.30419 0.0
C2414 C 0.6486 0.80747 0.28283 0.0
C2415 C 0.6345 0.88308 0.26538 0.0
H2416 H 0.66373 0.82901 0.19716 0.0
H2417 H 0.60016 0.81471 0.21605 0.0
H2418 H 0.67456 0.86327 0.24536 0.0
H2419 H 0.68229 0.83764 0.25244 0.0
H2420 H 0.68615 0.84738 0.22248 0.0
H2421 H 0.58388 0.83064 0.25007 0.0
H2422 H 0.60067 0.82106 0.27343 0.0
H2423 H 0.59849 0.84815 0.26881 0.0
H2424 H 0.66111 0.82323 0.32511 0.0
H2425 H 0.6517 0.88699 0.30952 0.0
H2426 H 0.65957 0.80545 0.26754 0.0
H2427 H 0.63288 0.80254 0.27667 0.0
H2428 H 0.65362 0.79722 0.29768 0.0
H2429 H 0.64662 0.88648 0.25167 0.0
H2430 H 0.63133 0.89737 0.27558 0.0
H2431 H 0.62003 0.87844 0.25576 0.0
C2432 C 0.12431 0.68389 0.25059 0.0
C2433 C 0.1208 0.67369 0.27234 0.0
C2434 C 0.13091 0.67318 0.23023 0.0
C2435 C 0.1333 0.65165 0.23148 0.0
C2436 C 0.12777 0.64103 0.25272 0.0
C2437 C 0.12197 0.65226 0.27317 0.0
C2438 C 0.13699 0.68517 0.20805 0.0
C2439 C 0.12913 0.61799 0.25432 0.0
C2440 C 0.14403 0.63059 0.16968 0.0
C2441 C 0.16596 0.63011 0.16975 0.0
C2442 C 0.1329 0.63551 0.1906 0.0
C2443 C 0.1441 0.64098 0.21155 0.0
C2444 C 0.16623 0.63936 0.212 0.0
C2445 C 0.17689 0.63356 0.19112 0.0
C2446 C 0.10927 0.63603 0.18984 0.0
C2447 C 0.17879 0.64549 0.23385 0.0
H2448 H 0.12341 0.70047 0.24989 0.0
H2449 H 0.11901 0.64433 0.28995 0.0
H2450 H 0.15402 0.68334 0.20462 0.0
H2451 H 0.12858 0.67922 0.1921 0.0
H2452 H 0.13352 0.70178 0.20981 0.0
H2453 H 0.11959 0.61193 0.26943 0.0
H2454 H 0.12379 0.61073 0.23736 0.0
H2455 H 0.14564 0.61339 0.25731 0.0
H2456 H 0.13562 0.62756 0.15314 0.0
H2457 H 0.19388 0.63315 0.19106 0.0
H2458 H 0.10388 0.6521 0.1879 0.0
H2459 H 0.10253 0.6299 0.20676 0.0
H2460 H 0.10302 0.62706 0.17448 0.0
H2461 H 0.1769 0.66217 0.23712 0.0
H2462 H 0.19575 0.64215 0.23171 0.0
H2463 H 0.17299 0.63736 0.25001 0.0
C2464 C 0.35073 0.11693 0.30821 0.0
C2465 C 0.34156 0.13328 0.32066 0.0
C2466 C 0.36194 0.12035 0.28689 0.0
C2467 C 0.36292 0.14042 0.27733 0.0
C2468 C 0.354 0.15701 0.29022 0.0
C2469 C 0.3438 0.15326 0.31202 0.0
C2470 C 0.37204 0.10239 0.27434 0.0
C2471 C 0.3542 0.17861 0.28038 0.0
C2472 C 0.39725 0.1627 0.22913 0.0
C2473 C 0.38312 0.16336 0.20991 0.0
C2474 C 0.39188 0.15276 0.25059 0.0
C2475 C 0.37161 0.14425 0.25305 0.0
C2476 C 0.35815 0.14316 0.23288 0.0
C2477 C 0.36429 0.15244 0.21131 0.0
C2478 C 0.40715 0.15299 0.27126 0.0
C2479 C 0.33631 0.13441 0.2348 0.0
H2480 H 0.34906 0.10147 0.31509 0.0
H2481 H 0.33652 0.16583 0.32166 0.0
H2482 H 0.36124 0.09637 0.26044 0.0
H2483 H 0.38685 0.10695 0.26534 0.0
H2484 H 0.37543 0.08975 0.28713 0.0
H2485 H 0.34616 0.18964 0.29246 0.0
H2486 H 0.37056 0.18387 0.27773 0.0
H2487 H 0.34635 0.17898 0.2626 0.0
H2488 H 0.41196 0.17094 0.22787 0.0
H2489 H 0.35337 0.15298 0.19641 0.0
H2490 H 0.40662 0.13828 0.28125 0.0
H2491 H 0.40286 0.1654 0.28396 0.0
H2492 H 0.42344 0.15576 0.26501 0.0
H2493 H 0.33666 0.1191 0.24337 0.0
H2494 H 0.32859 0.13301 0.21699 0.0
H2495 H 0.32659 0.14455 0.24631 0.0
loop_
_geom_bond_atom_site_label_1
_geom_bond_atom_site_label_2
_geom_bond_distance
_geom_bond_site_symmetry_2
_ccdc_geom_bond_type
C0 O1 1.306 . S
C0 O3 1.160 . S
O1 C0 1.306 . S
O1 Cd2 2.228 . S
Cd2 O1 2.228 . S
Cd2 O6 2.273 . S
Cd2 O10 2.277 . S
O3 C0 1.160 . S
O3 Cd4 2.203 . S
Cd4 O3 2.203 . S
Cd4 O6 2.411 . S
Cd4 O7 2.333 . S
Cd4 O8 2.352 . S
Cd4 O12 2.277 . S
Cd4 O13 2.356 . S
C5 O10 1.209 . S
C5 O12 1.226 . S
O6 Cd2 2.273 . S
O6 Cd4 2.411 . S
O6 C9 1.320 . S
O7 Cd4 2.333 . S
O7 C9 1.214 . S
O8 Cd4 2.352 . S
O8 C11 1.258 . S
C9 O6 1.320 . S
C9 O7 1.214 . S
O10 Cd2 2.277 . S
O10 C5 1.209 . S
C11 O8 1.258 . S
C11 O13 1.282 . S
O12 Cd4 2.277 . S
O12 C5 1.226 . S
O13 Cd4 2.356 . S
O13 C11 1.282 . S
C14 O15 1.306 . S
C14 O17 1.160 . S
O15 C14 1.306 . S
O15 Cd16 2.228 . S
Cd16 O15 2.228 . S
Cd16 O20 2.273 . S
Cd16 O24 2.277 . S
O17 C14 1.160 . S
O17 Cd18 2.203 . S
Cd18 O17 2.203 . S
Cd18 O20 2.411 . S
Cd18 O21 2.333 . S
Cd18 O22 2.352 . S
Cd18 O26 2.277 . S
Cd18 O27 2.356 . S
C19 O24 1.209 . S
C19 O26 1.226 . S
O20 Cd16 2.273 . S
O20 Cd18 2.411 . S
O20 C23 1.320 . S
O21 Cd18 2.333 . S
O21 C23 1.214 . S
O22 Cd18 2.352 . S
O22 C25 1.258 . S
C23 O20 1.320 . S
C23 O21 1.214 . S
O24 Cd16 2.277 . S
O24 C19 1.209 . S
C25 O22 1.258 . S
C25 O27 1.282 . S
O26 Cd18 2.277 . S
O26 C19 1.226 . S
O27 Cd18 2.356 . S
O27 C25 1.282 . S
C28 O29 1.306 . S
C28 O31 1.160 . S
O29 C28 1.306 . S
O29 Cd30 2.228 . S
Cd30 O29 2.228 . S
Cd30 O34 2.273 . S
Cd30 O38 2.277 . S
O31 C28 1.160 . S
O31 Cd32 2.203 . S
Cd32 O31 2.203 . S
Cd32 O34 2.411 . S
Cd32 O35 2.333 . S
Cd32 O36 2.352 . S
Cd32 O40 2.277 . S
Cd32 O41 2.356 . S
C33 O38 1.209 . S
C33 O40 1.226 . S
O34 Cd30 2.273 . S
O34 Cd32 2.411 . S
O34 C37 1.320 . S
O35 Cd32 2.333 . S
O35 C37 1.214 . S
O36 Cd32 2.352 . S
O36 C39 1.258 . S
C37 O34 1.320 . S
C37 O35 1.214 . S
O38 Cd30 2.277 . S
O38 C33 1.209 . S
C39 O36 1.258 . S
C39 O41 1.282 . S
O40 Cd32 2.277 . S
O40 C33 1.226 . S
O41 Cd32 2.356 . S
O41 C39 1.282 . S
C42 O43 1.306 . S
C42 O45 1.160 . S
O43 C42 1.306 . S
O43 Cd44 2.228 . S
Cd44 O43 2.228 . S
Cd44 O48 2.273 . S
Cd44 O52 2.277 . S
O45 C42 1.160 . S
O45 Cd46 2.203 . S
Cd46 O45 2.203 . S
Cd46 O48 2.411 . S
Cd46 O49 2.333 . S
Cd46 O50 2.352 . S
Cd46 O54 2.277 . S
Cd46 O55 2.356 . S
C47 O52 1.209 . S
C47 O54 1.226 . S
O48 Cd44 2.273 . S
O48 Cd46 2.411 . S
O48 C51 1.320 . S
O49 Cd46 2.333 . S
O49 C51 1.214 . S
O50 Cd46 2.352 . S
O50 C53 1.258 . S
C51 O48 1.320 . S
C51 O49 1.214 . S
O52 Cd44 2.277 . S
O52 C47 1.209 . S
C53 O50 1.258 . S
C53 O55 1.282 . S
O54 Cd46 2.277 . S
O54 C47 1.226 . S
O55 Cd46 2.356 . S
O55 C53 1.282 . S
C56 O57 1.306 . S
C56 O59 1.160 . S
O57 C56 1.306 . S
O57 Cd58 2.228 . S
Cd58 O57 2.228 . S
Cd58 O62 2.273 . S
Cd58 O66 2.277 . S
O59 C56 1.160 . S
O59 Cd60 2.203 . S
Cd60 O59 2.203 . S
Cd60 O62 2.411 . S
Cd60 O63 2.333 . S
Cd60 O64 2.352 . S
Cd60 O68 2.277 . S
Cd60 O69 2.356 . S
C61 O66 1.209 . S
C61 O68 1.226 . S
O62 Cd58 2.273 . S
O62 Cd60 2.411 . S
O62 C65 1.320 . S
O63 Cd60 2.333 . S
O63 C65 1.214 . S
O64 Cd60 2.352 . S
O64 C67 1.258 . S
C65 O62 1.320 . S
C65 O63 1.214 . S
O66 Cd58 2.277 . S
O66 C61 1.209 . S
C67 O64 1.258 . S
C67 O69 1.282 . S
O68 Cd60 2.277 . S
O68 C61 1.226 . S
O69 Cd60 2.356 . S
O69 C67 1.282 . S
C70 O71 1.306 . S
C70 O73 1.160 . S
O71 C70 1.306 . S
O71 Cd72 2.228 . S
Cd72 O71 2.228 . S
Cd72 O76 2.273 . S
Cd72 O80 2.277 . S
O73 C70 1.160 . S
O73 Cd74 2.203 . S
Cd74 O73 2.203 . S
Cd74 O76 2.411 . S
Cd74 O77 2.333 . S
Cd74 O78 2.352 . S
Cd74 O82 2.277 . S
Cd74 O83 2.356 . S
C75 O80 1.209 . S
C75 O82 1.226 . S
O76 Cd72 2.273 . S
O76 Cd74 2.411 . S
O76 C79 1.320 . S
O77 Cd74 2.333 . S
O77 C79 1.214 . S
O78 Cd74 2.352 . S
O78 C81 1.258 . S
C79 O76 1.320 . S
C79 O77 1.214 . S
O80 Cd72 2.277 . S
O80 C75 1.209 . S
C81 O78 1.258 . S
C81 O83 1.282 . S
O82 Cd74 2.277 . S
O82 C75 1.226 . S
O83 Cd74 2.356 . S
O83 C81 1.282 . S
C84 O85 1.306 . S
C84 O87 1.160 . S
O85 C84 1.306 . S
O85 Cd86 2.228 . S
Cd86 O85 2.228 . S
Cd86 O90 2.273 . S
Cd86 O94 2.277 . S
O87 C84 1.160 . S
O87 Cd88 2.203 . S
Cd88 O87 2.203 . S
Cd88 O90 2.411 . S
Cd88 O91 2.333 . S
Cd88 O92 2.352 . S
Cd88 O96 2.277 . S
Cd88 O97 2.356 . S
C89 O94 1.209 . S
C89 O96 1.226 . S
O90 Cd86 2.273 . S
O90 Cd88 2.411 . S
O90 C93 1.320 . S
O91 Cd88 2.333 . S
O91 C93 1.214 . S
O92 Cd88 2.352 . S
O92 C95 1.258 . S
C93 O90 1.320 . S
C93 O91 1.214 . S
O94 Cd86 2.277 . S
O94 C89 1.209 . S
C95 O92 1.258 . S
C95 O97 1.282 . S
O96 Cd88 2.277 . S
O96 C89 1.226 . S
O97 Cd88 2.356 . S
O97 C95 1.282 . S
C98 O99 1.306 . S
C98 O101 1.160 . S
O99 C98 1.306 . S
O99 Cd100 2.228 . S
Cd100 O99 2.228 . S
Cd100 O104 2.273 . S
Cd100 O108 2.277 . S
O101 C98 1.160 . S
O101 Cd102 2.203 . S
Cd102 O101 2.203 . S
Cd102 O104 2.411 . S
Cd102 O105 2.333 . S
Cd102 O106 2.352 . S
Cd102 O110 2.277 . S
Cd102 O111 2.356 . S
C103 O108 1.209 . S
C103 O110 1.226 . S
O104 Cd100 2.273 . S
O104 Cd102 2.411 . S
O104 C107 1.320 . S
O105 Cd102 2.333 . S
O105 C107 1.214 . S
O106 Cd102 2.352 . S
O106 C109 1.258 . S
C107 O104 1.320 . S
C107 O105 1.214 . S
O108 Cd100 2.277 . S
O108 C103 1.209 . S
C109 O106 1.258 . S
C109 O111 1.282 . S
O110 Cd102 2.277 . S
O110 C103 1.226 . S
O111 Cd102 2.356 . S
O111 C109 1.282 . S
C112 O113 1.306 . S
C112 O115 1.160 . S
O113 C112 1.306 . S
O113 Cd114 2.228 . S
Cd114 O113 2.228 . S
Cd114 O118 2.273 . S
Cd114 O122 2.277 . S
O115 C112 1.160 . S
O115 Cd116 2.203 . S
Cd116 O115 2.203 . S
Cd116 O118 2.411 . S
Cd116 O119 2.333 . S
Cd116 O120 2.352 . S
Cd116 O124 2.277 . S
Cd116 O125 2.356 . S
C117 O122 1.209 . S
C117 O124 1.226 . S
O118 Cd114 2.273 . S
O118 Cd116 2.411 . S
O118 C121 1.320 . S
O119 Cd116 2.333 . S
O119 C121 1.214 . S
O120 Cd116 2.352 . S
O120 C123 1.258 . S
C121 O118 1.320 . S
C121 O119 1.214 . S
O122 Cd114 2.277 . S
O122 C117 1.209 . S
C123 O120 1.258 . S
C123 O125 1.282 . S
O124 Cd116 2.277 . S
O124 C117 1.226 . S
O125 Cd116 2.356 . S
O125 C123 1.282 . S
C126 O127 1.306 . S
C126 O129 1.160 . S
O127 C126 1.306 . S
O127 Cd128 2.228 . S
Cd128 O127 2.228 . S
Cd128 O132 2.273 . S
Cd128 O136 2.277 . S
O129 C126 1.160 . S
O129 Cd130 2.203 . S
Cd130 O129 2.203 . S
Cd130 O132 2.411 . S
Cd130 O133 2.333 . S
Cd130 O134 2.352 . S
Cd130 O138 2.277 . S
Cd130 O139 2.356 . S
C131 O136 1.209 . S
C131 O138 1.226 . S
O132 Cd128 2.273 . S
O132 Cd130 2.411 . S
O132 C135 1.320 . S
O133 Cd130 2.333 . S
O133 C135 1.214 . S
O134 Cd130 2.352 . S
O134 C137 1.258 . S
C135 O132 1.320 . S
C135 O133 1.214 . S
O136 Cd128 2.277 . S
O136 C131 1.209 . S
C137 O134 1.258 . S
C137 O139 1.282 . S
O138 Cd130 2.277 . S
O138 C131 1.226 . S
O139 Cd130 2.356 . S
O139 C137 1.282 . S
C140 O141 1.306 . S
C140 O143 1.160 . S
O141 C140 1.306 . S
O141 Cd142 2.228 . S
Cd142 O141 2.228 . S
Cd142 O146 2.273 . S
Cd142 O150 2.277 . S
O143 C140 1.160 . S
O143 Cd144 2.203 . S
Cd144 O143 2.203 . S
Cd144 O146 2.411 . S
Cd144 O147 2.333 . S
Cd144 O148 2.352 . S
Cd144 O152 2.277 . S
Cd144 O153 2.356 . S
C145 O150 1.209 . S
C145 O152 1.226 . S
O146 Cd142 2.273 . S
O146 Cd144 2.411 . S
O146 C149 1.320 . S
O147 Cd144 2.333 . S
O147 C149 1.214 . S
O148 Cd144 2.352 . S
O148 C151 1.258 . S
C149 O146 1.320 . S
C149 O147 1.214 . S
O150 Cd142 2.277 . S
O150 C145 1.209 . S
C151 O148 1.258 . S
C151 O153 1.282 . S
O152 Cd144 2.277 . S
O152 C145 1.226 . S
O153 Cd144 2.356 . S
O153 C151 1.282 . S
C154 O155 1.306 . S
C154 O157 1.160 . S
O155 C154 1.306 . S
O155 Cd156 2.228 . S
Cd156 O155 2.228 . S
Cd156 O160 2.273 . S
Cd156 O164 2.277 . S
O157 C154 1.160 . S
O157 Cd158 2.203 . S
Cd158 O157 2.203 . S
Cd158 O160 2.411 . S
Cd158 O161 2.333 . S
Cd158 O162 2.352 . S
Cd158 O166 2.277 . S
Cd158 O167 2.356 . S
C159 O164 1.209 . S
C159 O166 1.226 . S
O160 Cd156 2.273 . S
O160 Cd158 2.411 . S
O160 C163 1.320 . S
O161 Cd158 2.333 . S
O161 C163 1.214 . S
O162 Cd158 2.352 . S
O162 C165 1.258 . S
C163 O160 1.320 . S
C163 O161 1.214 . S
O164 Cd156 2.277 . S
O164 C159 1.209 . S
C165 O162 1.258 . S
C165 O167 1.282 . S
O166 Cd158 2.277 . S
O166 C159 1.226 . S
O167 Cd158 2.356 . S
O167 C165 1.282 . S
C168 O169 1.306 . S
C168 O171 1.160 . S
O169 C168 1.306 . S
O169 Cd170 2.228 . S
Cd170 O169 2.228 . S
Cd170 O174 2.273 . S
Cd170 O178 2.277 . S
O171 C168 1.160 . S
O171 Cd172 2.203 . S
Cd172 O171 2.203 . S
Cd172 O174 2.411 . S
Cd172 O175 2.333 . S
Cd172 O176 2.352 . S
Cd172 O180 2.277 . S
Cd172 O181 2.356 . S
C173 O178 1.209 . S
C173 O180 1.226 . S
O174 Cd170 2.273 . S
O174 Cd172 2.411 . S
O174 C177 1.320 . S
O175 Cd172 2.333 . S
O175 C177 1.214 . S
O176 Cd172 2.352 . S
O176 C179 1.258 . S
C177 O174 1.320 . S
C177 O175 1.214 . S
O178 Cd170 2.277 . S
O178 C173 1.209 . S
C179 O176 1.258 . S
C179 O181 1.282 . S
O180 Cd172 2.277 . S
O180 C173 1.226 . S
O181 Cd172 2.356 . S
O181 C179 1.282 . S
C182 O183 1.306 . S
C182 O185 1.160 . S
O183 C182 1.306 . S
O183 Cd184 2.228 . S
Cd184 O183 2.228 . S
Cd184 O188 2.273 . S
Cd184 O192 2.277 . S
O185 C182 1.160 . S
O185 Cd186 2.203 . S
Cd186 O185 2.203 . S
Cd186 O188 2.411 . S
Cd186 O189 2.333 . S
Cd186 O190 2.352 . S
Cd186 O194 2.277 . S
Cd186 O195 2.356 . S
C187 O192 1.209 . S
C187 O194 1.226 . S
O188 Cd184 2.273 . S
O188 Cd186 2.411 . S
O188 C191 1.320 . S
O189 Cd186 2.333 . S
O189 C191 1.214 . S
O190 Cd186 2.352 . S
O190 C193 1.258 . S
C191 O188 1.320 . S
C191 O189 1.214 . S
O192 Cd184 2.277 . S
O192 C187 1.209 . S
C193 O190 1.258 . S
C193 O195 1.282 . S
O194 Cd186 2.277 . S
O194 C187 1.226 . S
O195 Cd186 2.356 . S
O195 C193 1.282 . S
C196 O197 1.306 . S
C196 O199 1.160 . S
O197 C196 1.306 . S
O197 Cd198 2.228 . S
Cd198 O197 2.228 . S
Cd198 O202 2.273 . S
Cd198 O206 2.277 . S
O199 C196 1.160 . S
O199 Cd200 2.203 . S
Cd200 O199 2.203 . S
Cd200 O202 2.411 . S
Cd200 O203 2.333 . S
Cd200 O204 2.352 . S
Cd200 O208 2.277 . S
Cd200 O209 2.356 . S
C201 O206 1.209 . S
C201 O208 1.226 . S
O202 Cd198 2.273 . S
O202 Cd200 2.411 . S
O202 C205 1.320 . S
O203 Cd200 2.333 . S
O203 C205 1.214 . S
O204 Cd200 2.352 . S
O204 C207 1.258 . S
C205 O202 1.320 . S
C205 O203 1.214 . S
O206 Cd198 2.277 . S
O206 C201 1.209 . S
C207 O204 1.258 . S
C207 O209 1.282 . S
O208 Cd200 2.277 . S
O208 C201 1.226 . S
O209 Cd200 2.356 . S
O209 C207 1.282 . S
C210 O211 1.306 . S
C210 O213 1.160 . S
O211 C210 1.306 . S
O211 Cd212 2.228 . S
Cd212 O211 2.228 . S
Cd212 O216 2.273 . S
Cd212 O220 2.277 . S
O213 C210 1.160 . S
O213 Cd214 2.203 . S
Cd214 O213 2.203 . S
Cd214 O216 2.411 . S
Cd214 O217 2.333 . S
Cd214 O218 2.352 . S
Cd214 O222 2.277 . S
Cd214 O223 2.356 . S
C215 O220 1.209 . S
C215 O222 1.226 . S
O216 Cd212 2.273 . S
O216 Cd214 2.411 . S
O216 C219 1.320 . S
O217 Cd214 2.333 . S
O217 C219 1.214 . S
O218 Cd214 2.352 . S
O218 C221 1.258 . S
C219 O216 1.320 . S
C219 O217 1.214 . S
O220 Cd212 2.277 . S
O220 C215 1.209 . S
C221 O218 1.258 . S
C221 O223 1.282 . S
O222 Cd214 2.277 . S
O222 C215 1.226 . S
O223 Cd214 2.356 . S
O223 C221 1.282 . S
C224 O225 1.306 . S
C224 O227 1.160 . S
O225 C224 1.306 . S
O225 Cd226 2.228 . S
Cd226 O225 2.228 . S
Cd226 O230 2.273 . S
Cd226 O234 2.277 . S
O227 C224 1.160 . S
O227 Cd228 2.203 . S
Cd228 O227 2.203 . S
Cd228 O230 2.411 . S
Cd228 O231 2.333 . S
Cd228 O232 2.352 . S
Cd228 O236 2.277 . S
Cd228 O237 2.356 . S
C229 O234 1.209 . S
C229 O236 1.226 . S
O230 Cd226 2.273 . S
O230 Cd228 2.411 . S
O230 C233 1.320 . S
O231 Cd228 2.333 . S
O231 C233 1.214 . S
O232 Cd228 2.352 . S
O232 C235 1.258 . S
C233 O230 1.320 . S
C233 O231 1.214 . S
O234 Cd226 2.277 . S
O234 C229 1.209 . S
C235 O232 1.258 . S
C235 O237 1.282 . S
O236 Cd228 2.277 . S
O236 C229 1.226 . S
O237 Cd228 2.356 . S
O237 C235 1.282 . S
C238 O239 1.306 . S
C238 O241 1.160 . S
O239 C238 1.306 . S
O239 Cd240 2.228 . S
Cd240 O239 2.228 . S
Cd240 O244 2.273 . S
Cd240 O248 2.277 . S
O241 C238 1.160 . S
O241 Cd242 2.203 . S
Cd242 O241 2.203 . S
Cd242 O244 2.411 . S
Cd242 O245 2.333 . S
Cd242 O246 2.352 . S
Cd242 O250 2.277 . S
Cd242 O251 2.356 . S
C243 O248 1.209 . S
C243 O250 1.226 . S
O244 Cd240 2.273 . S
O244 Cd242 2.411 . S
O244 C247 1.320 . S
O245 Cd242 2.333 . S
O245 C247 1.214 . S
O246 Cd242 2.352 . S
O246 C249 1.258 . S
C247 O244 1.320 . S
C247 O245 1.214 . S
O248 Cd240 2.277 . S
O248 C243 1.209 . S
C249 O246 1.258 . S
C249 O251 1.282 . S
O250 Cd242 2.277 . S
O250 C243 1.226 . S
O251 Cd242 2.356 . S
O251 C249 1.282 . S
C252 O253 1.306 . S
C252 O255 1.160 . S
O253 C252 1.306 . S
O253 Cd254 2.228 . S
Cd254 O253 2.228 . S
Cd254 O258 2.273 . S
Cd254 O262 2.277 . S
O255 C252 1.160 . S
O255 Cd256 2.203 . S
Cd256 O255 2.203 . S
Cd256 O258 2.411 . S
Cd256 O259 2.333 . S
Cd256 O260 2.352 . S
Cd256 O264 2.277 . S
Cd256 O265 2.356 . S
C257 O262 1.209 . S
C257 O264 1.226 . S
O258 Cd254 2.273 . S
O258 Cd256 2.411 . S
O258 C261 1.320 . S
O259 Cd256 2.333 . S
O259 C261 1.214 . S
O260 Cd256 2.352 . S
O260 C263 1.258 . S
C261 O258 1.320 . S
C261 O259 1.214 . S
O262 Cd254 2.277 . S
O262 C257 1.209 . S
C263 O260 1.258 . S
C263 O265 1.282 . S
O264 Cd256 2.277 . S
O264 C257 1.226 . S
O265 Cd256 2.356 . S
O265 C263 1.282 . S
C266 O267 1.306 . S
C266 O269 1.160 . S
O267 C266 1.306 . S
O267 Cd268 2.228 . S
Cd268 O267 2.228 . S
Cd268 O272 2.273 . S
Cd268 O276 2.277 . S
O269 C266 1.160 . S
O269 Cd270 2.203 . S
Cd270 O269 2.203 . S
Cd270 O272 2.411 . S
Cd270 O273 2.333 . S
Cd270 O274 2.352 . S
Cd270 O278 2.277 . S
Cd270 O279 2.356 . S
C271 O276 1.209 . S
C271 O278 1.226 . S
O272 Cd268 2.273 . S
O272 Cd270 2.411 . S
O272 C275 1.320 . S
O273 Cd270 2.333 . S
O273 C275 1.214 . S
O274 Cd270 2.352 . S
O274 C277 1.258 . S
C275 O272 1.320 . S
C275 O273 1.214 . S
O276 Cd268 2.277 . S
O276 C271 1.209 . S
C277 O274 1.258 . S
C277 O279 1.282 . S
O278 Cd270 2.277 . S
O278 C271 1.226 . S
O279 Cd270 2.356 . S
O279 C277 1.282 . S
C280 O281 1.306 . S
C280 O283 1.160 . S
O281 C280 1.306 . S
O281 Cd282 2.228 . S
Cd282 O281 2.228 . S
Cd282 O286 2.273 . S
Cd282 O290 2.277 . S
O283 C280 1.160 . S
O283 Cd284 2.203 . S
Cd284 O283 2.203 . S
Cd284 O286 2.411 . S
Cd284 O287 2.333 . S
Cd284 O288 2.352 . S
Cd284 O292 2.277 . S
Cd284 O293 2.356 . S
C285 O290 1.209 . S
C285 O292 1.226 . S
O286 Cd282 2.273 . S
O286 Cd284 2.411 . S
O286 C289 1.320 . S
O287 Cd284 2.333 . S
O287 C289 1.214 . S
O288 Cd284 2.352 . S
O288 C291 1.258 . S
C289 O286 1.320 . S
C289 O287 1.214 . S
O290 Cd282 2.277 . S
O290 C285 1.209 . S
C291 O288 1.258 . S
C291 O293 1.282 . S
O292 Cd284 2.277 . S
O292 C285 1.226 . S
O293 Cd284 2.356 . S
O293 C291 1.282 . S
C294 O295 1.306 . S
C294 O297 1.160 . S
O295 C294 1.306 . S
O295 Cd296 2.228 . S
Cd296 O295 2.228 . S
Cd296 O300 2.273 . S
Cd296 O304 2.277 . S
O297 C294 1.160 . S
O297 Cd298 2.203 . S
Cd298 O297 2.203 . S
Cd298 O300 2.411 . S
Cd298 O301 2.333 . S
Cd298 O302 2.352 . S
Cd298 O306 2.277 . S
Cd298 O307 2.356 . S
C299 O304 1.209 . S
C299 O306 1.226 . S
O300 Cd296 2.273 . S
O300 Cd298 2.411 . S
O300 C303 1.320 . S
O301 Cd298 2.333 . S
O301 C303 1.214 . S
O302 Cd298 2.352 . S
O302 C305 1.258 . S
C303 O300 1.320 . S
C303 O301 1.214 . S
O304 Cd296 2.277 . S
O304 C299 1.209 . S
C305 O302 1.258 . S
C305 O307 1.282 . S
O306 Cd298 2.277 . S
O306 C299 1.226 . S
O307 Cd298 2.356 . S
O307 C305 1.282 . S
C308 O309 1.306 . S
C308 O311 1.160 . S
O309 C308 1.306 . S
O309 Cd310 2.228 . S
Cd310 O309 2.228 . S
Cd310 O314 2.273 . S
Cd310 O318 2.277 . S
O311 C308 1.160 . S
O311 Cd312 2.203 . S
Cd312 O311 2.203 . S
Cd312 O314 2.411 . S
Cd312 O315 2.333 . S
Cd312 O316 2.352 . S
Cd312 O320 2.277 . S
Cd312 O321 2.356 . S
C313 O318 1.209 . S
C313 O320 1.226 . S
O314 Cd310 2.273 . S
O314 Cd312 2.411 . S
O314 C317 1.320 . S
O315 Cd312 2.333 . S
O315 C317 1.214 . S
O316 Cd312 2.352 . S
O316 C319 1.258 . S
C317 O314 1.320 . S
C317 O315 1.214 . S
O318 Cd310 2.277 . S
O318 C313 1.209 . S
C319 O316 1.258 . S
C319 O321 1.282 . S
O320 Cd312 2.277 . S
O320 C313 1.226 . S
O321 Cd312 2.356 . S
O321 C319 1.282 . S
C322 O323 1.306 . S
C322 O325 1.160 . S
O323 C322 1.306 . S
O323 Cd324 2.228 . S
Cd324 O323 2.228 . S
Cd324 O328 2.273 . S
Cd324 O332 2.277 . S
O325 C322 1.160 . S
O325 Cd326 2.203 . S
Cd326 O325 2.203 . S
Cd326 O328 2.411 . S
Cd326 O329 2.333 . S
Cd326 O330 2.352 . S
Cd326 O334 2.277 . S
Cd326 O335 2.356 . S
C327 O332 1.209 . S
C327 O334 1.226 . S
O328 Cd324 2.273 . S
O328 Cd326 2.411 . S
O328 C331 1.320 . S
O329 Cd326 2.333 . S
O329 C331 1.214 . S
O330 Cd326 2.352 . S
O330 C333 1.258 . S
C331 O328 1.320 . S
C331 O329 1.214 . S
O332 Cd324 2.277 . S
O332 C327 1.209 . S
C333 O330 1.258 . S
C333 O335 1.282 . S
O334 Cd326 2.277 . S
O334 C327 1.226 . S
O335 Cd326 2.356 . S
O335 C333 1.282 . S
C336 O337 1.306 . S
C336 O339 1.160 . S
O337 C336 1.306 . S
O337 Cd338 2.228 . S
Cd338 O337 2.228 . S
Cd338 O342 2.273 . S
Cd338 O346 2.277 . S
O339 C336 1.160 . S
O339 Cd340 2.203 . S
Cd340 O339 2.203 . S
Cd340 O342 2.411 . S
Cd340 O343 2.333 . S
Cd340 O344 2.352 . S
Cd340 O348 2.277 . S
Cd340 O349 2.356 . S
C341 O346 1.209 . S
C341 O348 1.226 . S
O342 Cd338 2.273 . S
O342 Cd340 2.411 . S
O342 C345 1.320 . S
O343 Cd340 2.333 . S
O343 C345 1.214 . S
O344 Cd340 2.352 . S
O344 C347 1.258 . S
C345 O342 1.320 . S
C345 O343 1.214 . S
O346 Cd338 2.277 . S
O346 C341 1.209 . S
C347 O344 1.258 . S
C347 O349 1.282 . S
O348 Cd340 2.277 . S
O348 C341 1.226 . S
O349 Cd340 2.356 . S
O349 C347 1.282 . S
C350 O351 1.306 . S
C350 O353 1.160 . S
O351 C350 1.306 . S
O351 Cd352 2.228 . S
Cd352 O351 2.228 . S
Cd352 O356 2.273 . S
Cd352 O360 2.277 . S
O353 C350 1.160 . S
O353 Cd354 2.203 . S
Cd354 O353 2.203 . S
Cd354 O356 2.411 . S
Cd354 O357 2.333 . S
Cd354 O358 2.352 . S
Cd354 O362 2.277 . S
Cd354 O363 2.356 . S
C355 O360 1.209 . S
C355 O362 1.226 . S
O356 Cd352 2.273 . S
O356 Cd354 2.411 . S
O356 C359 1.320 . S
O357 Cd354 2.333 . S
O357 C359 1.214 . S
O358 Cd354 2.352 . S
O358 C361 1.258 . S
C359 O356 1.320 . S
C359 O357 1.214 . S
O360 Cd352 2.277 . S
O360 C355 1.209 . S
C361 O358 1.258 . S
C361 O363 1.282 . S
O362 Cd354 2.277 . S
O362 C355 1.226 . S
O363 Cd354 2.356 . S
O363 C361 1.282 . S
C364 O365 1.306 . S
C364 O367 1.160 . S
O365 C364 1.306 . S
O365 Cd366 2.228 . S
Cd366 O365 2.228 . S
Cd366 O370 2.273 . S
Cd366 O374 2.277 . S
O367 C364 1.160 . S
O367 Cd368 2.203 . S
Cd368 O367 2.203 . S
Cd368 O370 2.411 . S
Cd368 O371 2.333 . S
Cd368 O372 2.352 . S
Cd368 O376 2.277 . S
Cd368 O377 2.356 . S
C369 O374 1.209 . S
C369 O376 1.226 . S
O370 Cd366 2.273 . S
O370 Cd368 2.411 . S
O370 C373 1.320 . S
O371 Cd368 2.333 . S
O371 C373 1.214 . S
O372 Cd368 2.352 . S
O372 C375 1.258 . S
C373 O370 1.320 . S
C373 O371 1.214 . S
O374 Cd366 2.277 . S
O374 C369 1.209 . S
C375 O372 1.258 . S
C375 O377 1.282 . S
O376 Cd368 2.277 . S
O376 C369 1.226 . S
O377 Cd368 2.356 . S
O377 C375 1.282 . S
C378 O379 1.306 . S
C378 O381 1.160 . S
O379 C378 1.306 . S
O379 Cd380 2.228 . S
Cd380 O379 2.228 . S
Cd380 O384 2.273 . S
Cd380 O388 2.277 . S
O381 C378 1.160 . S
O381 Cd382 2.203 . S
Cd382 O381 2.203 . S
Cd382 O384 2.411 . S
Cd382 O385 2.333 . S
Cd382 O386 2.352 . S
Cd382 O390 2.277 . S
Cd382 O391 2.356 . S
C383 O388 1.209 . S
C383 O390 1.226 . S
O384 Cd380 2.273 . S
O384 Cd382 2.411 . S
O384 C387 1.320 . S
O385 Cd382 2.333 . S
O385 C387 1.214 . S
O386 Cd382 2.352 . S
O386 C389 1.258 . S
C387 O384 1.320 . S
C387 O385 1.214 . S
O388 Cd380 2.277 . S
O388 C383 1.209 . S
C389 O386 1.258 . S
C389 O391 1.282 . S
O390 Cd382 2.277 . S
O390 C383 1.226 . S
O391 Cd382 2.356 . S
O391 C389 1.282 . S
C392 O393 1.306 . S
C392 O395 1.160 . S
O393 C392 1.306 . S
O393 Cd394 2.228 . S
Cd394 O393 2.228 . S
Cd394 O398 2.273 . S
Cd394 O402 2.277 . S
O395 C392 1.160 . S
O395 Cd396 2.203 . S
Cd396 O395 2.203 . S
Cd396 O398 2.411 . S
Cd396 O399 2.333 . S
Cd396 O400 2.352 . S
Cd396 O404 2.277 . S
Cd396 O405 2.356 . S
C397 O402 1.209 . S
C397 O404 1.226 . S
O398 Cd394 2.273 . S
O398 Cd396 2.411 . S
O398 C401 1.320 . S
O399 Cd396 2.333 . S
O399 C401 1.214 . S
O400 Cd396 2.352 . S
O400 C403 1.258 . S
C401 O398 1.320 . S
C401 O399 1.214 . S
O402 Cd394 2.277 . S
O402 C397 1.209 . S
C403 O400 1.258 . S
C403 O405 1.282 . S
O404 Cd396 2.277 . S
O404 C397 1.226 . S
O405 Cd396 2.356 . S
O405 C403 1.282 . S
C406 O407 1.306 . S
C406 O409 1.160 . S
O407 C406 1.306 . S
O407 Cd408 2.228 . S
Cd408 O407 2.228 . S
Cd408 O412 2.273 . S
Cd408 O416 2.277 . S
O409 C406 1.160 . S
O409 Cd410 2.203 . S
Cd410 O409 2.203 . S
Cd410 O412 2.411 . S
Cd410 O413 2.333 . S
Cd410 O414 2.352 . S
Cd410 O418 2.277 . S
Cd410 O419 2.356 . S
C411 O416 1.209 . S
C411 O418 1.226 . S
O412 Cd408 2.273 . S
O412 Cd410 2.411 . S
O412 C415 1.320 . S
O413 Cd410 2.333 . S
O413 C415 1.214 . S
O414 Cd410 2.352 . S
O414 C417 1.258 . S
C415 O412 1.320 . S
C415 O413 1.214 . S
O416 Cd408 2.277 . S
O416 C411 1.209 . S
C417 O414 1.258 . S
C417 O419 1.282 . S
O418 Cd410 2.277 . S
O418 C411 1.226 . S
O419 Cd410 2.356 . S
O419 C417 1.282 . S
C420 O421 1.306 . S
C420 O423 1.160 . S
O421 C420 1.306 . S
O421 Cd422 2.228 . S
Cd422 O421 2.228 . S
Cd422 O426 2.273 . S
Cd422 O430 2.277 . S
O423 C420 1.160 . S
O423 Cd424 2.203 . S
Cd424 O423 2.203 . S
Cd424 O426 2.411 . S
Cd424 O427 2.333 . S
Cd424 O428 2.352 . S
Cd424 O432 2.277 . S
Cd424 O433 2.356 . S
C425 O430 1.209 . S
C425 O432 1.226 . S
O426 Cd422 2.273 . S
O426 Cd424 2.411 . S
O426 C429 1.320 . S
O427 Cd424 2.333 . S
O427 C429 1.214 . S
O428 Cd424 2.352 . S
O428 C431 1.258 . S
C429 O426 1.320 . S
C429 O427 1.214 . S
O430 Cd422 2.277 . S
O430 C425 1.209 . S
C431 O428 1.258 . S
C431 O433 1.282 . S
O432 Cd424 2.277 . S
O432 C425 1.226 . S
O433 Cd424 2.356 . S
O433 C431 1.282 . S
C434 O435 1.306 . S
C434 O437 1.160 . S
O435 C434 1.306 . S
O435 Cd436 2.228 . S
Cd436 O435 2.228 . S
Cd436 O440 2.273 . S
Cd436 O444 2.277 . S
O437 C434 1.160 . S
O437 Cd438 2.203 . S
Cd438 O437 2.203 . S
Cd438 O440 2.411 . S
Cd438 O441 2.333 . S
Cd438 O442 2.352 . S
Cd438 O446 2.277 . S
Cd438 O447 2.356 . S
C439 O444 1.209 . S
C439 O446 1.226 . S
O440 Cd436 2.273 . S
O440 Cd438 2.411 . S
O440 C443 1.320 . S
O441 Cd438 2.333 . S
O441 C443 1.214 . S
O442 Cd438 2.352 . S
O442 C445 1.258 . S
C443 O440 1.320 . S
C443 O441 1.214 . S
O444 Cd436 2.277 . S
O444 C439 1.209 . S
C445 O442 1.258 . S
C445 O447 1.282 . S
O446 Cd438 2.277 . S
O446 C439 1.226 . S
O447 Cd438 2.356 . S
O447 C445 1.282 . S
C448 C449 1.391 . S
C448 C450 1.394 . S
C448 H464 0.931 . S
C449 C448 1.391 . S
C449 C453 1.376 . S
C450 C448 1.394 . S
C450 C451 1.369 . S
C450 C454 1.531 . S
C451 C450 1.369 . S
C451 C452 1.410 . S
C451 C459 1.503 . S
C452 C451 1.410 . S
C452 C453 1.392 . S
C452 C455 1.511 . S
C453 C449 1.376 . S
C453 C452 1.392 . S
C453 H465 0.929 . S
C454 C450 1.531 . S
C454 H466 0.960 . S
C454 H467 0.962 . S
C454 H468 0.960 . S
C455 C452 1.511 . S
C455 H469 0.961 . S
C455 H470 0.961 . S
C455 H471 0.961 . S
C456 C457 1.370 . S
C456 C458 1.363 . S
C456 H472 0.931 . S
C457 C456 1.370 . S
C457 C461 1.408 . S
C458 C456 1.363 . S
C458 C459 1.370 . S
C458 C462 1.524 . S
C459 C451 1.503 . S
C459 C458 1.370 . S
C459 C460 1.403 . S
C460 C459 1.403 . S
C460 C461 1.404 . S
C460 C463 1.539 . S
C461 C457 1.408 . S
C461 C460 1.404 . S
C461 H473 0.930 . S
C462 C458 1.524 . S
C462 H474 0.956 . S
C462 H475 0.961 . S
C462 H476 0.961 . S
C463 C460 1.539 . S
C463 H477 0.958 . S
C463 H478 0.961 . S
C463 H479 0.960 . S
H464 C448 0.931 . S
H465 C453 0.929 . S
H466 C454 0.960 . S
H467 C454 0.962 . S
H468 C454 0.960 . S
H469 C455 0.961 . S
H470 C455 0.961 . S
H471 C455 0.961 . S
H472 C456 0.931 . S
H473 C461 0.930 . S
H474 C462 0.956 . S
H475 C462 0.961 . S
H476 C462 0.961 . S
H477 C463 0.958 . S
H478 C463 0.961 . S
H479 C463 0.960 . S
C480 C481 1.391 . S
C480 C482 1.394 . S
C480 H496 0.931 . S
C481 C480 1.391 . S
C481 C485 1.376 . S
C482 C480 1.394 . S
C482 C483 1.369 . S
C482 C486 1.531 . S
C483 C482 1.369 . S
C483 C484 1.410 . S
C483 C491 1.503 . S
C484 C483 1.410 . S
C484 C485 1.392 . S
C484 C487 1.511 . S
C485 C481 1.376 . S
C485 C484 1.392 . S
C485 H497 0.929 . S
C486 C482 1.531 . S
C486 H498 0.960 . S
C486 H499 0.962 . S
C486 H500 0.960 . S
C487 C484 1.511 . S
C487 H501 0.961 . S
C487 H502 0.961 . S
C487 H503 0.961 . S
C488 C489 1.370 . S
C488 C490 1.363 . S
C488 H504 0.931 . S
C489 C488 1.370 . S
C489 C493 1.408 . S
C490 C488 1.363 . S
C490 C491 1.370 . S
C490 C494 1.524 . S
C491 C483 1.503 . S
C491 C490 1.370 . S
C491 C492 1.403 . S
C492 C491 1.403 . S
C492 C493 1.404 . S
C492 C495 1.539 . S
C493 C489 1.408 . S
C493 C492 1.404 . S
C493 H505 0.930 . S
C494 C490 1.524 . S
C494 H506 0.956 . S
C494 H507 0.961 . S
C494 H508 0.961 . S
C495 C492 1.539 . S
C495 H509 0.958 . S
C495 H510 0.961 . S
C495 H511 0.960 . S
H496 C480 0.931 . S
H497 C485 0.929 . S
H498 C486 0.960 . S
H499 C486 0.962 . S
H500 C486 0.960 . S
H501 C487 0.961 . S
H502 C487 0.961 . S
H503 C487 0.961 . S
H504 C488 0.931 . S
H505 C493 0.930 . S
H506 C494 0.956 . S
H507 C494 0.961 . S
H508 C494 0.961 . S
H509 C495 0.958 . S
H510 C495 0.961 . S
H511 C495 0.960 . S
C512 C513 1.391 . S
C512 C514 1.394 . S
C512 H528 0.931 . S
C513 C512 1.391 . S
C513 C517 1.376 . S
C514 C512 1.394 . S
C514 C515 1.369 . S
C514 C518 1.531 . S
C515 C514 1.369 . S
C515 C516 1.410 . S
C515 C523 1.503 . S
C516 C515 1.410 . S
C516 C517 1.392 . S
C516 C519 1.511 . S
C517 C513 1.376 . S
C517 C516 1.392 . S
C517 H529 0.929 . S
C518 C514 1.531 . S
C518 H530 0.960 . S
C518 H531 0.962 . S
C518 H532 0.960 . S
C519 C516 1.511 . S
C519 H533 0.961 . S
C519 H534 0.961 . S
C519 H535 0.961 . S
C520 C521 1.370 . S
C520 C522 1.363 . S
C520 H536 0.931 . S
C521 C520 1.370 . S
C521 C525 1.408 . S
C522 C520 1.363 . S
C522 C523 1.370 . S
C522 C526 1.524 . S
C523 C515 1.503 . S
C523 C522 1.370 . S
C523 C524 1.403 . S
C524 C523 1.403 . S
C524 C525 1.404 . S
C524 C527 1.539 . S
C525 C521 1.408 . S
C525 C524 1.404 . S
C525 H537 0.930 . S
C526 C522 1.524 . S
C526 H538 0.956 . S
C526 H539 0.961 . S
C526 H540 0.961 . S
C527 C524 1.539 . S
C527 H541 0.958 . S
C527 H542 0.961 . S
C527 H543 0.960 . S
H528 C512 0.931 . S
H529 C517 0.929 . S
H530 C518 0.960 . S
H531 C518 0.962 . S
H532 C518 0.960 . S
H533 C519 0.961 . S
H534 C519 0.961 . S
H535 C519 0.961 . S
H536 C520 0.931 . S
H537 C525 0.930 . S
H538 C526 0.956 . S
H539 C526 0.961 . S
H540 C526 0.961 . S
H541 C527 0.958 . S
H542 C527 0.961 . S
H543 C527 0.960 . S
C544 C545 1.391 . S
C544 C546 1.394 . S
C544 H560 0.931 . S
C545 C544 1.391 . S
C545 C549 1.376 . S
C546 C544 1.394 . S
C546 C547 1.369 . S
C546 C550 1.531 . S
C547 C546 1.369 . S
C547 C548 1.410 . S
C547 C555 1.503 . S
C548 C547 1.410 . S
C548 C549 1.392 . S
C548 C551 1.511 . S
C549 C545 1.376 . S
C549 C548 1.392 . S
C549 H561 0.929 . S
C550 C546 1.531 . S
C550 H562 0.960 . S
C550 H563 0.962 . S
C550 H564 0.960 . S
C551 C548 1.511 . S
C551 H565 0.961 . S
C551 H566 0.961 . S
C551 H567 0.961 . S
C552 C553 1.370 . S
C552 C554 1.363 . S
C552 H568 0.931 . S
C553 C552 1.370 . S
C553 C557 1.408 . S
C554 C552 1.363 . S
C554 C555 1.370 . S
C554 C558 1.524 . S
C555 C547 1.503 . S
C555 C554 1.370 . S
C555 C556 1.403 . S
C556 C555 1.403 . S
C556 C557 1.404 . S
C556 C559 1.539 . S
C557 C553 1.408 . S
C557 C556 1.404 . S
C557 H569 0.930 . S
C558 C554 1.524 . S
C558 H570 0.956 . S
C558 H571 0.961 . S
C558 H572 0.961 . S
C559 C556 1.539 . S
C559 H573 0.958 . S
C559 H574 0.961 . S
C559 H575 0.960 . S
H560 C544 0.931 . S
H561 C549 0.929 . S
H562 C550 0.960 . S
H563 C550 0.962 . S
H564 C550 0.960 . S
H565 C551 0.961 . S
H566 C551 0.961 . S
H567 C551 0.961 . S
H568 C552 0.931 . S
H569 C557 0.930 . S
H570 C558 0.956 . S
H571 C558 0.961 . S
H572 C558 0.961 . S
H573 C559 0.958 . S
H574 C559 0.961 . S
H575 C559 0.960 . S
C576 C577 1.391 . S
C576 C578 1.394 . S
C576 H592 0.931 . S
C577 C576 1.391 . S
C577 C581 1.376 . S
C578 C576 1.394 . S
C578 C579 1.369 . S
C578 C582 1.531 . S
C579 C578 1.369 . S
C579 C580 1.410 . S
C579 C587 1.503 . S
C580 C579 1.410 . S
C580 C581 1.392 . S
C580 C583 1.511 . S
C581 C577 1.376 . S
C581 C580 1.392 . S
C581 H593 0.929 . S
C582 C578 1.531 . S
C582 H594 0.960 . S
C582 H595 0.962 . S
C582 H596 0.960 . S
C583 C580 1.511 . S
C583 H597 0.961 . S
C583 H598 0.961 . S
C583 H599 0.961 . S
C584 C585 1.370 . S
C584 C586 1.363 . S
C584 H600 0.931 . S
C585 C584 1.370 . S
C585 C589 1.408 . S
C586 C584 1.363 . S
C586 C587 1.370 . S
C586 C590 1.524 . S
C587 C579 1.503 . S
C587 C586 1.370 . S
C587 C588 1.403 . S
C588 C587 1.403 . S
C588 C589 1.404 . S
C588 C591 1.539 . S
C589 C585 1.408 . S
C589 C588 1.404 . S
C589 H601 0.930 . S
C590 C586 1.524 . S
C590 H602 0.956 . S
C590 H603 0.961 . S
C590 H604 0.961 . S
C591 C588 1.539 . S
C591 H605 0.958 . S
C591 H606 0.961 . S
C591 H607 0.960 . S
H592 C576 0.931 . S
H593 C581 0.929 . S
H594 C582 0.960 . S
H595 C582 0.962 . S
H596 C582 0.960 . S
H597 C583 0.961 . S
H598 C583 0.961 . S
H599 C583 0.961 . S
H600 C584 0.931 . S
H601 C589 0.930 . S
H602 C590 0.956 . S
H603 C590 0.961 . S
H604 C590 0.961 . S
H605 C591 0.958 . S
H606 C591 0.961 . S
H607 C591 0.960 . S
C608 C609 1.391 . S
C608 C610 1.394 . S
C608 H624 0.931 . S
C609 C608 1.391 . S
C609 C613 1.376 . S
C610 C608 1.394 . S
C610 C611 1.369 . S
C610 C614 1.531 . S
C611 C610 1.369 . S
C611 C612 1.410 . S
C611 C619 1.503 . S
C612 C611 1.410 . S
C612 C613 1.392 . S
C612 C615 1.511 . S
C613 C609 1.376 . S
C613 C612 1.392 . S
C613 H625 0.929 . S
C614 C610 1.531 . S
C614 H626 0.960 . S
C614 H627 0.962 . S
C614 H628 0.960 . S
C615 C612 1.511 . S
C615 H629 0.961 . S
C615 H630 0.961 . S
C615 H631 0.961 . S
C616 C617 1.370 . S
C616 C618 1.363 . S
C616 H632 0.931 . S
C617 C616 1.370 . S
C617 C621 1.408 . S
C618 C616 1.363 . S
C618 C619 1.370 . S
C618 C622 1.524 . S
C619 C611 1.503 . S
C619 C618 1.370 . S
C619 C620 1.403 . S
C620 C619 1.403 . S
C620 C621 1.404 . S
C620 C623 1.539 . S
C621 C617 1.408 . S
C621 C620 1.404 . S
C621 H633 0.930 . S
C622 C618 1.524 . S
C622 H634 0.956 . S
C622 H635 0.961 . S
C622 H636 0.961 . S
C623 C620 1.539 . S
C623 H637 0.958 . S
C623 H638 0.961 . S
C623 H639 0.960 . S
H624 C608 0.931 . S
H625 C613 0.929 . S
H626 C614 0.960 . S
H627 C614 0.962 . S
H628 C614 0.960 . S
H629 C615 0.961 . S
H630 C615 0.961 . S
H631 C615 0.961 . S
H632 C616 0.931 . S
H633 C621 0.930 . S
H634 C622 0.956 . S
H635 C622 0.961 . S
H636 C622 0.961 . S
H637 C623 0.958 . S
H638 C623 0.961 . S
H639 C623 0.960 . S
C640 C641 1.391 . S
C640 C642 1.394 . S
C640 H656 0.931 . S
C641 C640 1.391 . S
C641 C645 1.376 . S
C642 C640 1.394 . S
C642 C643 1.369 . S
C642 C646 1.531 . S
C643 C642 1.369 . S
C643 C644 1.410 . S
C643 C651 1.503 . S
C644 C643 1.410 . S
C644 C645 1.392 . S
C644 C647 1.511 . S
C645 C641 1.376 . S
C645 C644 1.392 . S
C645 H657 0.929 . S
C646 C642 1.531 . S
C646 H658 0.960 . S
C646 H659 0.962 . S
C646 H660 0.960 . S
C647 C644 1.511 . S
C647 H661 0.961 . S
C647 H662 0.961 . S
C647 H663 0.961 . S
C648 C649 1.370 . S
C648 C650 1.363 . S
C648 H664 0.931 . S
C649 C648 1.370 . S
C649 C653 1.408 . S
C650 C648 1.363 . S
C650 C651 1.370 . S
C650 C654 1.524 . S
C651 C643 1.503 . S
C651 C650 1.370 . S
C651 C652 1.403 . S
C652 C651 1.403 . S
C652 C653 1.404 . S
C652 C655 1.539 . S
C653 C649 1.408 . S
C653 C652 1.404 . S
C653 H665 0.930 . S
C654 C650 1.524 . S
C654 H666 0.956 . S
C654 H667 0.961 . S
C654 H668 0.961 . S
C655 C652 1.539 . S
C655 H669 0.958 . S
C655 H670 0.961 . S
C655 H671 0.960 . S
H656 C640 0.931 . S
H657 C645 0.929 . S
H658 C646 0.960 . S
H659 C646 0.962 . S
H660 C646 0.960 . S
H661 C647 0.961 . S
H662 C647 0.961 . S
H663 C647 0.961 . S
H664 C648 0.931 . S
H665 C653 0.930 . S
H666 C654 0.956 . S
H667 C654 0.961 . S
H668 C654 0.961 . S
H669 C655 0.958 . S
H670 C655 0.961 . S
H671 C655 0.960 . S
C672 C673 1.391 . S
C672 C674 1.394 . S
C672 H688 0.931 . S
C673 C672 1.391 . S
C673 C677 1.376 . S
C674 C672 1.394 . S
C674 C675 1.369 . S
C674 C678 1.531 . S
C675 C674 1.369 . S
C675 C676 1.410 . S
C675 C683 1.503 . S
C676 C675 1.410 . S
C676 C677 1.392 . S
C676 C679 1.511 . S
C677 C673 1.376 . S
C677 C676 1.392 . S
C677 H689 0.929 . S
C678 C674 1.531 . S
C678 H690 0.960 . S
C678 H691 0.962 . S
C678 H692 0.960 . S
C679 C676 1.511 . S
C679 H693 0.961 . S
C679 H694 0.961 . S
C679 H695 0.961 . S
C680 C681 1.370 . S
C680 C682 1.363 . S
C680 H696 0.931 . S
C681 C680 1.370 . S
C681 C685 1.408 . S
C682 C680 1.363 . S
C682 C683 1.370 . S
C682 C686 1.524 . S
C683 C675 1.503 . S
C683 C682 1.370 . S
C683 C684 1.403 . S
C684 C683 1.403 . S
C684 C685 1.404 . S
C684 C687 1.539 . S
C685 C681 1.408 . S
C685 C684 1.404 . S
C685 H697 0.930 . S
C686 C682 1.524 . S
C686 H698 0.956 . S
C686 H699 0.961 . S
C686 H700 0.961 . S
C687 C684 1.539 . S
C687 H701 0.958 . S
C687 H702 0.961 . S
C687 H703 0.960 . S
H688 C672 0.931 . S
H689 C677 0.929 . S
H690 C678 0.960 . S
H691 C678 0.962 . S
H692 C678 0.960 . S
H693 C679 0.961 . S
H694 C679 0.961 . S
H695 C679 0.961 . S
H696 C680 0.931 . S
H697 C685 0.930 . S
H698 C686 0.956 . S
H699 C686 0.961 . S
H700 C686 0.961 . S
H701 C687 0.958 . S
H702 C687 0.961 . S
H703 C687 0.960 . S
C704 C705 1.391 . S
C704 C706 1.394 . S
C704 H720 0.931 . S
C705 C704 1.391 . S
C705 C709 1.376 . S
C706 C704 1.394 . S
C706 C707 1.369 . S
C706 C710 1.531 . S
C707 C706 1.369 . S
C707 C708 1.410 . S
C707 C715 1.503 . S
C708 C707 1.410 . S
C708 C709 1.392 . S
C708 C711 1.511 . S
C709 C705 1.376 . S
C709 C708 1.392 . S
C709 H721 0.929 . S
C710 C706 1.531 . S
C710 H722 0.960 . S
C710 H723 0.962 . S
C710 H724 0.960 . S
C711 C708 1.511 . S
C711 H725 0.961 . S
C711 H726 0.961 . S
C711 H727 0.961 . S
C712 C713 1.370 . S
C712 C714 1.363 . S
C712 H728 0.931 . S
C713 C712 1.370 . S
C713 C717 1.408 . S
C714 C712 1.363 . S
C714 C715 1.370 . S
C714 C718 1.524 . S
C715 C707 1.503 . S
C715 C714 1.370 . S
C715 C716 1.403 . S
C716 C715 1.403 . S
C716 C717 1.404 . S
C716 C719 1.539 . S
C717 C713 1.408 . S
C717 C716 1.404 . S
C717 H729 0.930 . S
C718 C714 1.524 . S
C718 H730 0.956 . S
C718 H731 0.961 . S
C718 H732 0.961 . S
C719 C716 1.539 . S
C719 H733 0.958 . S
C719 H734 0.961 . S
C719 H735 0.960 . S
H720 C704 0.931 . S
H721 C709 0.929 . S
H722 C710 0.960 . S
H723 C710 0.962 . S
H724 C710 0.960 . S
H725 C711 0.961 . S
H726 C711 0.961 . S
H727 C711 0.961 . S
H728 C712 0.931 . S
H729 C717 0.930 . S
H730 C718 0.956 . S
H731 C718 0.961 . S
H732 C718 0.961 . S
H733 C719 0.958 . S
H734 C719 0.961 . S
H735 C719 0.960 . S
C736 C737 1.391 . S
C736 C738 1.394 . S
C736 H752 0.931 . S
C737 C736 1.391 . S
C737 C741 1.376 . S
C738 C736 1.394 . S
C738 C739 1.369 . S
C738 C742 1.531 . S
C739 C738 1.369 . S
C739 C740 1.410 . S
C739 C747 1.503 . S
C740 C739 1.410 . S
C740 C741 1.392 . S
C740 C743 1.511 . S
C741 C737 1.376 . S
C741 C740 1.392 . S
C741 H753 0.929 . S
C742 C738 1.531 . S
C742 H754 0.960 . S
C742 H755 0.962 . S
C742 H756 0.960 . S
C743 C740 1.511 . S
C743 H757 0.961 . S
C743 H758 0.961 . S
C743 H759 0.961 . S
C744 C745 1.370 . S
C744 C746 1.363 . S
C744 H760 0.931 . S
C745 C744 1.370 . S
C745 C749 1.408 . S
C746 C744 1.363 . S
C746 C747 1.370 . S
C746 C750 1.524 . S
C747 C739 1.503 . S
C747 C746 1.370 . S
C747 C748 1.403 . S
C748 C747 1.403 . S
C748 C749 1.404 . S
C748 C751 1.539 . S
C749 C745 1.408 . S
C749 C748 1.404 . S
C749 H761 0.930 . S
C750 C746 1.524 . S
C750 H762 0.956 . S
C750 H763 0.961 . S
C750 H764 0.961 . S
C751 C748 1.539 . S
C751 H765 0.958 . S
C751 H766 0.961 . S
C751 H767 0.960 . S
H752 C736 0.931 . S
H753 C741 0.929 . S
H754 C742 0.960 . S
H755 C742 0.962 . S
H756 C742 0.960 . S
H757 C743 0.961 . S
H758 C743 0.961 . S
H759 C743 0.961 . S
H760 C744 0.931 . S
H761 C749 0.930 . S
H762 C750 0.956 . S
H763 C750 0.961 . S
H764 C750 0.961 . S
H765 C751 0.958 . S
H766 C751 0.961 . S
H767 C751 0.960 . S
C768 C769 1.391 . S
C768 C770 1.394 . S
C768 H784 0.931 . S
C769 C768 1.391 . S
C769 C773 1.376 . S
C770 C768 1.394 . S
C770 C771 1.369 . S
C770 C774 1.531 . S
C771 C770 1.369 . S
C771 C772 1.410 . S
C771 C779 1.503 . S
C772 C771 1.410 . S
C772 C773 1.392 . S
C772 C775 1.511 . S
C773 C769 1.376 . S
C773 C772 1.392 . S
C773 H785 0.929 . S
C774 C770 1.531 . S
C774 H786 0.960 . S
C774 H787 0.962 . S
C774 H788 0.960 . S
C775 C772 1.511 . S
C775 H789 0.961 . S
C775 H790 0.961 . S
C775 H791 0.961 . S
C776 C777 1.370 . S
C776 C778 1.363 . S
C776 H792 0.931 . S
C777 C776 1.370 . S
C777 C781 1.408 . S
C778 C776 1.363 . S
C778 C779 1.370 . S
C778 C782 1.524 . S
C779 C771 1.503 . S
C779 C778 1.370 . S
C779 C780 1.403 . S
C780 C779 1.403 . S
C780 C781 1.404 . S
C780 C783 1.539 . S
C781 C777 1.408 . S
C781 C780 1.404 . S
C781 H793 0.930 . S
C782 C778 1.524 . S
C782 H794 0.956 . S
C782 H795 0.961 . S
C782 H796 0.961 . S
C783 C780 1.539 . S
C783 H797 0.958 . S
C783 H798 0.961 . S
C783 H799 0.960 . S
H784 C768 0.931 . S
H785 C773 0.929 . S
H786 C774 0.960 . S
H787 C774 0.962 . S
H788 C774 0.960 . S
H789 C775 0.961 . S
H790 C775 0.961 . S
H791 C775 0.961 . S
H792 C776 0.931 . S
H793 C781 0.930 . S
H794 C782 0.956 . S
H795 C782 0.961 . S
H796 C782 0.961 . S
H797 C783 0.958 . S
H798 C783 0.961 . S
H799 C783 0.960 . S
C800 C801 1.391 . S
C800 C802 1.394 . S
C800 H816 0.931 . S
C801 C800 1.391 . S
C801 C805 1.376 . S
C802 C800 1.394 . S
C802 C803 1.369 . S
C802 C806 1.531 . S
C803 C802 1.369 . S
C803 C804 1.410 . S
C803 C811 1.503 . S
C804 C803 1.410 . S
C804 C805 1.392 . S
C804 C807 1.511 . S
C805 C801 1.376 . S
C805 C804 1.392 . S
C805 H817 0.929 . S
C806 C802 1.531 . S
C806 H818 0.960 . S
C806 H819 0.962 . S
C806 H820 0.960 . S
C807 C804 1.511 . S
C807 H821 0.961 . S
C807 H822 0.961 . S
C807 H823 0.961 . S
C808 C809 1.370 . S
C808 C810 1.363 . S
C808 H824 0.931 . S
C809 C808 1.370 . S
C809 C813 1.408 . S
C810 C808 1.363 . S
C810 C811 1.370 . S
C810 C814 1.524 . S
C811 C803 1.503 . S
C811 C810 1.370 . S
C811 C812 1.403 . S
C812 C811 1.403 . S
C812 C813 1.404 . S
C812 C815 1.539 . S
C813 C809 1.408 . S
C813 C812 1.404 . S
C813 H825 0.930 . S
C814 C810 1.524 . S
C814 H826 0.956 . S
C814 H827 0.961 . S
C814 H828 0.961 . S
C815 C812 1.539 . S
C815 H829 0.958 . S
C815 H830 0.961 . S
C815 H831 0.960 . S
H816 C800 0.931 . S
H817 C805 0.929 . S
H818 C806 0.960 . S
H819 C806 0.962 . S
H820 C806 0.960 . S
H821 C807 0.961 . S
H822 C807 0.961 . S
H823 C807 0.961 . S
H824 C808 0.931 . S
H825 C813 0.930 . S
H826 C814 0.956 . S
H827 C814 0.961 . S
H828 C814 0.961 . S
H829 C815 0.958 . S
H830 C815 0.961 . S
H831 C815 0.960 . S
C832 C833 1.391 . S
C832 C834 1.394 . S
C832 H848 0.931 . S
C833 C832 1.391 . S
C833 C837 1.376 . S
C834 C832 1.394 . S
C834 C835 1.369 . S
C834 C838 1.531 . S
C835 C834 1.369 . S
C835 C836 1.410 . S
C835 C843 1.503 . S
C836 C835 1.410 . S
C836 C837 1.392 . S
C836 C839 1.511 . S
C837 C833 1.376 . S
C837 C836 1.392 . S
C837 H849 0.929 . S
C838 C834 1.531 . S
C838 H850 0.960 . S
C838 H851 0.962 . S
C838 H852 0.960 . S
C839 C836 1.511 . S
C839 H853 0.961 . S
C839 H854 0.961 . S
C839 H855 0.961 . S
C840 C841 1.370 . S
C840 C842 1.363 . S
C840 H856 0.931 . S
C841 C840 1.370 . S
C841 C845 1.408 . S
C842 C840 1.363 . S
C842 C843 1.370 . S
C842 C846 1.524 . S
C843 C835 1.503 . S
C843 C842 1.370 . S
C843 C844 1.403 . S
C844 C843 1.403 . S
C844 C845 1.404 . S
C844 C847 1.539 . S
C845 C841 1.408 . S
C845 C844 1.404 . S
C845 H857 0.930 . S
C846 C842 1.524 . S
C846 H858 0.956 . S
C846 H859 0.961 . S
C846 H860 0.961 . S
C847 C844 1.539 . S
C847 H861 0.958 . S
C847 H862 0.961 . S
C847 H863 0.960 . S
H848 C832 0.931 . S
H849 C837 0.929 . S
H850 C838 0.960 . S
H851 C838 0.962 . S
H852 C838 0.960 . S
H853 C839 0.961 . S
H854 C839 0.961 . S
H855 C839 0.961 . S
H856 C840 0.931 . S
H857 C845 0.930 . S
H858 C846 0.956 . S
H859 C846 0.961 . S
H860 C846 0.961 . S
H861 C847 0.958 . S
H862 C847 0.961 . S
H863 C847 0.960 . S
C864 C865 1.391 . S
C864 C866 1.394 . S
C864 H880 0.931 . S
C865 C864 1.391 . S
C865 C869 1.376 . S
C866 C864 1.394 . S
C866 C867 1.369 . S
C866 C870 1.531 . S
C867 C866 1.369 . S
C867 C868 1.410 . S
C867 C875 1.503 . S
C868 C867 1.410 . S
C868 C869 1.392 . S
C868 C871 1.511 . S
C869 C865 1.376 . S
C869 C868 1.392 . S
C869 H881 0.929 . S
C870 C866 1.531 . S
C870 H882 0.960 . S
C870 H883 0.962 . S
C870 H884 0.960 . S
C871 C868 1.511 . S
C871 H885 0.961 . S
C871 H886 0.961 . S
C871 H887 0.961 . S
C872 C873 1.370 . S
C872 C874 1.363 . S
C872 H888 0.931 . S
C873 C872 1.370 . S
C873 C877 1.408 . S
C874 C872 1.363 . S
C874 C875 1.370 . S
C874 C878 1.524 . S
C875 C867 1.503 . S
C875 C874 1.370 . S
C875 C876 1.403 . S
C876 C875 1.403 . S
C876 C877 1.404 . S
C876 C879 1.539 . S
C877 C873 1.408 . S
C877 C876 1.404 . S
C877 H889 0.930 . S
C878 C874 1.524 . S
C878 H890 0.956 . S
C878 H891 0.961 . S
C878 H892 0.961 . S
C879 C876 1.539 . S
C879 H893 0.958 . S
C879 H894 0.961 . S
C879 H895 0.960 . S
H880 C864 0.931 . S
H881 C869 0.929 . S
H882 C870 0.960 . S
H883 C870 0.962 . S
H884 C870 0.960 . S
H885 C871 0.961 . S
H886 C871 0.961 . S
H887 C871 0.961 . S
H888 C872 0.931 . S
H889 C877 0.930 . S
H890 C878 0.956 . S
H891 C878 0.961 . S
H892 C878 0.961 . S
H893 C879 0.958 . S
H894 C879 0.961 . S
H895 C879 0.960 . S
C896 C897 1.391 . S
C896 C898 1.394 . S
C896 H912 0.931 . S
C897 C896 1.391 . S
C897 C901 1.376 . S
C898 C896 1.394 . S
C898 C899 1.369 . S
C898 C902 1.531 . S
C899 C898 1.369 . S
C899 C900 1.410 . S
C899 C907 1.503 . S
C900 C899 1.410 . S
C900 C901 1.392 . S
C900 C903 1.511 . S
C901 C897 1.376 . S
C901 C900 1.392 . S
C901 H913 0.929 . S
C902 C898 1.531 . S
C902 H914 0.960 . S
C902 H915 0.962 . S
C902 H916 0.960 . S
C903 C900 1.511 . S
C903 H917 0.961 . S
C903 H918 0.961 . S
C903 H919 0.961 . S
C904 C905 1.370 . S
C904 C906 1.363 . S
C904 H920 0.931 . S
C905 C904 1.370 . S
C905 C909 1.408 . S
C906 C904 1.363 . S
C906 C907 1.370 . S
C906 C910 1.524 . S
C907 C899 1.503 . S
C907 C906 1.370 . S
C907 C908 1.403 . S
C908 C907 1.403 . S
C908 C909 1.404 . S
C908 C911 1.539 . S
C909 C905 1.408 . S
C909 C908 1.404 . S
C909 H921 0.930 . S
C910 C906 1.524 . S
C910 H922 0.956 . S
C910 H923 0.961 . S
C910 H924 0.961 . S
C911 C908 1.539 . S
C911 H925 0.958 . S
C911 H926 0.961 . S
C911 H927 0.960 . S
H912 C896 0.931 . S
H913 C901 0.929 . S
H914 C902 0.960 . S
H915 C902 0.962 . S
H916 C902 0.960 . S
H917 C903 0.961 . S
H918 C903 0.961 . S
H919 C903 0.961 . S
H920 C904 0.931 . S
H921 C909 0.930 . S
H922 C910 0.956 . S
H923 C910 0.961 . S
H924 C910 0.961 . S
H925 C911 0.958 . S
H926 C911 0.961 . S
H927 C911 0.960 . S
C928 C929 1.391 . S
C928 C930 1.394 . S
C928 H944 0.931 . S
C929 C928 1.391 . S
C929 C933 1.376 . S
C930 C928 1.394 . S
C930 C931 1.369 . S
C930 C934 1.531 . S
C931 C930 1.369 . S
C931 C932 1.410 . S
C931 C939 1.503 . S
C932 C931 1.410 . S
C932 C933 1.392 . S
C932 C935 1.511 . S
C933 C929 1.376 . S
C933 C932 1.392 . S
C933 H945 0.929 . S
C934 C930 1.531 . S
C934 H946 0.960 . S
C934 H947 0.962 . S
C934 H948 0.960 . S
C935 C932 1.511 . S
C935 H949 0.961 . S
C935 H950 0.961 . S
C935 H951 0.961 . S
C936 C937 1.370 . S
C936 C938 1.363 . S
C936 H952 0.931 . S
C937 C936 1.370 . S
C937 C941 1.408 . S
C938 C936 1.363 . S
C938 C939 1.370 . S
C938 C942 1.524 . S
C939 C931 1.503 . S
C939 C938 1.370 . S
C939 C940 1.403 . S
C940 C939 1.403 . S
C940 C941 1.404 . S
C940 C943 1.539 . S
C941 C937 1.408 . S
C941 C940 1.404 . S
C941 H953 0.930 . S
C942 C938 1.524 . S
C942 H954 0.956 . S
C942 H955 0.961 . S
C942 H956 0.961 . S
C943 C940 1.539 . S
C943 H957 0.958 . S
C943 H958 0.961 . S
C943 H959 0.960 . S
H944 C928 0.931 . S
H945 C933 0.929 . S
H946 C934 0.960 . S
H947 C934 0.962 . S
H948 C934 0.960 . S
H949 C935 0.961 . S
H950 C935 0.961 . S
H951 C935 0.961 . S
H952 C936 0.931 . S
H953 C941 0.930 . S
H954 C942 0.956 . S
H955 C942 0.961 . S
H956 C942 0.961 . S
H957 C943 0.958 . S
H958 C943 0.961 . S
H959 C943 0.960 . S
C960 C961 1.391 . S
C960 C962 1.394 . S
C960 H976 0.931 . S
C961 C960 1.391 . S
C961 C965 1.376 . S
C962 C960 1.394 . S
C962 C963 1.369 . S
C962 C966 1.531 . S
C963 C962 1.369 . S
C963 C964 1.410 . S
C963 C971 1.503 1_655 S
C964 C963 1.410 . S
C964 C965 1.392 . S
C964 C967 1.511 . S
C965 C961 1.376 . S
C965 C964 1.392 . S
C965 H977 0.929 . S
C966 C962 1.531 . S
C966 H978 0.960 . S
C966 H979 0.962 . S
C966 H980 0.960 . S
C967 C964 1.511 . S
C967 H981 0.961 . S
C967 H982 0.961 . S
C967 H983 0.961 . S
C968 C969 1.370 . S
C968 C970 1.363 . S
C968 H984 0.931 . S
C969 C968 1.370 . S
C969 C973 1.408 . S
C970 C968 1.363 . S
C970 C971 1.370 . S
C970 C974 1.524 . S
C971 C963 1.503 1_455 S
C971 C970 1.370 . S
C971 C972 1.403 . S
C972 C971 1.403 . S
C972 C973 1.404 . S
C972 C975 1.539 . S
C973 C969 1.408 . S
C973 C972 1.404 . S
C973 H985 0.930 . S
C974 C970 1.524 . S
C974 H986 0.956 1_455 S
C974 H987 0.961 1_455 S
C974 H988 0.961 . S
C975 C972 1.539 . S
C975 H989 0.958 . S
C975 H990 0.961 . S
C975 H991 0.960 1_455 S
H976 C960 0.931 . S
H977 C965 0.929 . S
H978 C966 0.960 . S
H979 C966 0.962 . S
H980 C966 0.960 . S
H981 C967 0.961 . S
H982 C967 0.961 . S
H983 C967 0.961 . S
H984 C968 0.931 . S
H985 C973 0.930 . S
H986 C974 0.956 1_655 S
H987 C974 0.961 1_655 S
H988 C974 0.961 . S
H989 C975 0.958 . S
H990 C975 0.961 . S
H991 C975 0.960 1_655 S
C992 C993 1.391 . S
C992 C994 1.394 . S
C992 H1008 0.931 . S
C993 C992 1.391 . S
C993 C997 1.376 . S
C994 C992 1.394 . S
C994 C995 1.369 . S
C994 C998 1.531 . S
C995 C994 1.369 . S
C995 C996 1.410 . S
C995 C1003 1.503 1_545 S
C996 C995 1.410 . S
C996 C997 1.392 . S
C996 C999 1.511 . S
C997 C993 1.376 . S
C997 C996 1.392 . S
C997 H1009 0.929 . S
C998 C994 1.531 . S
C998 H1010 0.947 1_545 S
C998 H1011 0.962 . S
C998 H1012 0.960 . S
C999 C996 1.511 . S
C999 H1013 0.961 . S
C999 H1014 0.963 . S
C999 H1015 0.961 . S
C1000 C1001 1.370 . S
C1000 C1002 1.363 . S
C1000 H1016 0.931 . S
C1001 C1000 1.370 . S
C1001 C1005 1.408 . S
C1002 C1000 1.363 . S
C1002 C1003 1.370 . S
C1002 C1006 1.524 . S
C1003 C995 1.503 1_565 S
C1003 C1002 1.370 . S
C1003 C1004 1.403 . S
C1004 C1003 1.403 . S
C1004 C1005 1.404 . S
C1004 C1007 1.539 . S
C1005 C1001 1.408 . S
C1005 C1004 1.404 . S
C1005 H1017 0.930 . S
C1006 C1002 1.524 . S
C1006 H1018 0.929 1_565 S
C1006 H1019 0.961 1_565 S
C1006 H1020 0.961 . S
C1007 C1004 1.539 . S
C1007 H1021 0.958 . S
C1007 H1022 0.961 . S
C1007 H1023 0.960 1_565 S
H1008 C992 0.931 . S
H1009 C997 0.929 . S
H1010 C998 0.947 1_565 S
H1011 C998 0.962 . S
H1012 C998 0.960 . S
H1013 C999 0.961 . S
H1014 C999 0.963 . S
H1015 C999 0.961 . S
H1016 C1000 0.931 . S
H1017 C1005 0.930 . S
H1018 C1006 0.929 1_545 S
H1019 C1006 0.961 1_545 S
H1020 C1006 0.961 . S
H1021 C1007 0.958 . S
H1022 C1007 0.961 . S
H1023 C1007 0.960 1_545 S
C1024 C1025 1.391 . S
C1024 C1026 1.394 . S
C1024 H1040 0.931 . S
C1025 C1024 1.391 . S
C1025 C1029 1.376 . S
C1026 C1024 1.394 . S
C1026 C1027 1.369 . S
C1026 C1030 1.531 . S
C1027 C1026 1.369 . S
C1027 C1028 1.410 . S
C1027 C1035 1.503 1_455 S
C1028 C1027 1.410 . S
C1028 C1029 1.392 . S
C1028 C1031 1.511 . S
C1029 C1025 1.376 . S
C1029 C1028 1.392 . S
C1029 H1041 0.929 . S
C1030 C1026 1.531 . S
C1030 H1042 0.960 . S
C1030 H1043 0.962 . S
C1030 H1044 0.960 . S
C1031 C1028 1.511 . S
C1031 H1045 0.961 . S
C1031 H1046 0.961 . S
C1031 H1047 0.961 . S
C1032 C1033 1.370 . S
C1032 C1034 1.363 . S
C1032 H1048 0.931 . S
C1033 C1032 1.370 . S
C1033 C1037 1.408 . S
C1034 C1032 1.363 . S
C1034 C1035 1.370 . S
C1034 C1038 1.524 . S
C1035 C1027 1.503 1_655 S
C1035 C1034 1.370 . S
C1035 C1036 1.403 . S
C1036 C1035 1.403 . S
C1036 C1037 1.404 . S
C1036 C1039 1.539 . S
C1037 C1033 1.408 . S
C1037 C1036 1.404 . S
C1037 H1049 0.930 . S
C1038 C1034 1.524 . S
C1038 H1050 0.956 1_655 S
C1038 H1051 0.961 1_655 S
C1038 H1052 0.961 . S
C1039 C1036 1.539 . S
C1039 H1053 0.958 . S
C1039 H1054 0.961 . S
C1039 H1055 0.960 1_655 S
H1040 C1024 0.931 . S
H1041 C1029 0.929 . S
H1042 C1030 0.960 . S
H1043 C1030 0.962 . S
H1044 C1030 0.960 . S
H1045 C1031 0.961 . S
H1046 C1031 0.961 . S
H1047 C1031 0.961 . S
H1048 C1032 0.931 . S
H1049 C1037 0.930 . S
H1050 C1038 0.956 1_455 S
H1051 C1038 0.961 1_455 S
H1052 C1038 0.961 . S
H1053 C1039 0.958 . S
H1054 C1039 0.961 . S
H1055 C1039 0.960 1_455 S
C1056 C1057 1.391 . S
C1056 C1058 1.394 . S
C1056 H1072 0.931 . S
C1057 C1056 1.391 . S
C1057 C1061 1.376 . S
C1058 C1056 1.394 . S
C1058 C1059 1.369 . S
C1058 C1062 1.531 . S
C1059 C1058 1.369 . S
C1059 C1060 1.410 . S
C1059 C1067 1.503 1_565 S
C1060 C1059 1.410 . S
C1060 C1061 1.392 . S
C1060 C1063 1.511 . S
C1061 C1057 1.376 . S
C1061 C1060 1.392 . S
C1061 H1073 0.929 . S
C1062 C1058 1.531 . S
C1062 H1074 0.984 . S
C1062 H1075 0.962 . S
C1062 H1076 0.960 . S
C1063 C1060 1.511 . S
C1063 H1077 0.961 . S
C1063 H1078 0.929 1_565 S
C1063 H1079 0.961 . S
C1064 C1065 1.370 . S
C1064 C1066 1.363 . S
C1064 H1080 0.931 . S
C1065 C1064 1.370 . S
C1065 C1069 1.408 . S
C1066 C1064 1.363 . S
C1066 C1067 1.370 . S
C1066 C1070 1.524 . S
C1067 C1059 1.503 1_545 S
C1067 C1066 1.370 . S
C1067 C1068 1.403 . S
C1068 C1067 1.403 . S
C1068 C1069 1.404 . S
C1068 C1071 1.539 . S
C1069 C1065 1.408 . S
C1069 C1068 1.404 . S
C1069 H1081 0.930 . S
C1070 C1066 1.524 . S
C1070 H1082 0.929 1_545 S
C1070 H1083 0.961 1_545 S
C1070 H1084 0.961 . S
C1071 C1068 1.539 . S
C1071 H1085 0.958 . S
C1071 H1086 0.961 . S
C1071 H1087 0.960 1_545 S
H1072 C1056 0.931 . S
H1073 C1061 0.929 . S
H1074 C1062 0.984 . S
H1075 C1062 0.962 . S
H1076 C1062 0.960 . S
H1077 C1063 0.961 . S
H1078 C1063 0.929 1_545 S
H1079 C1063 0.961 . S
H1080 C1064 0.931 . S
H1081 C1069 0.930 . S
H1082 C1070 0.929 1_565 S
H1083 C1070 0.961 1_565 S
H1084 C1070 0.961 . S
H1085 C1071 0.958 . S
H1086 C1071 0.961 . S
H1087 C1071 0.960 1_565 S
C1088 C1089 1.391 . S
C1088 C1090 1.394 . S
C1088 H1104 0.931 . S
C1089 C1088 1.391 . S
C1089 C1093 1.376 . S
C1090 C1088 1.394 . S
C1090 C1091 1.369 . S
C1090 C1094 1.531 . S
C1091 C1090 1.369 . S
C1091 C1092 1.410 . S
C1091 C1099 1.503 1_455 S
C1092 C1091 1.410 . S
C1092 C1093 1.392 . S
C1092 C1095 1.511 . S
C1093 C1089 1.376 . S
C1093 C1092 1.392 . S
C1093 H1105 0.929 . S
C1094 C1090 1.531 . S
C1094 H1106 0.960 1_455 S
C1094 H1107 0.969 . S
C1094 H1108 0.960 . S
C1095 C1092 1.511 . S
C1095 H1109 0.961 . S
C1095 H1110 0.961 1_455 S
C1095 H1111 0.961 . S
C1096 C1097 1.370 . S
C1096 C1098 1.363 . S
C1096 H1112 0.931 . S
C1097 C1096 1.370 . S
C1097 C1101 1.408 . S
C1098 C1096 1.363 . S
C1098 C1099 1.370 . S
C1098 C1102 1.524 . S
C1099 C1091 1.503 1_655 S
C1099 C1098 1.370 . S
C1099 C1100 1.403 . S
C1100 C1099 1.403 . S
C1100 C1101 1.404 . S
C1100 C1103 1.539 . S
C1101 C1097 1.408 . S
C1101 C1100 1.404 . S
C1101 H1113 0.930 . S
C1102 C1098 1.524 . S
C1102 H1114 0.956 . S
C1102 H1115 0.961 . S
C1102 H1116 0.961 . S
C1103 C1100 1.539 . S
C1103 H1117 0.958 . S
C1103 H1118 0.961 . S
C1103 H1119 0.960 . S
H1104 C1088 0.931 . S
H1105 C1093 0.929 . S
H1106 C1094 0.960 1_655 S
H1107 C1094 0.969 . S
H1108 C1094 0.960 . S
H1109 C1095 0.961 . S
H1110 C1095 0.961 1_655 S
H1111 C1095 0.961 . S
H1112 C1096 0.931 . S
H1113 C1101 0.930 . S
H1114 C1102 0.956 . S
H1115 C1102 0.961 . S
H1116 C1102 0.961 . S
H1117 C1103 0.958 . S
H1118 C1103 0.961 . S
H1119 C1103 0.960 . S
C1120 C1121 1.391 . S
C1120 C1122 1.394 . S
C1120 H1136 0.931 . S
C1121 C1120 1.391 . S
C1121 C1125 1.376 . S
C1122 C1120 1.394 . S
C1122 C1123 1.369 . S
C1122 C1126 1.531 . S
C1123 C1122 1.369 . S
C1123 C1124 1.410 . S
C1123 C1131 1.503 1_565 S
C1124 C1123 1.410 . S
C1124 C1125 1.392 . S
C1124 C1127 1.511 . S
C1125 C1121 1.376 . S
C1125 C1124 1.392 . S
C1125 H1137 0.929 . S
C1126 C1122 1.531 . S
C1126 H1138 0.960 1_565 S
C1126 H1139 0.962 . S
C1126 H1140 0.960 . S
C1127 C1124 1.511 . S
C1127 H1141 0.961 . S
C1127 H1142 0.961 1_565 S
C1127 H1143 0.961 . S
C1128 C1129 1.370 . S
C1128 C1130 1.363 . S
C1128 H1144 0.931 . S
C1129 C1128 1.370 . S
C1129 C1133 1.408 . S
C1130 C1128 1.363 . S
C1130 C1131 1.370 . S
C1130 C1134 1.524 . S
C1131 C1123 1.503 1_545 S
C1131 C1130 1.370 . S
C1131 C1132 1.403 . S
C1132 C1131 1.403 . S
C1132 C1133 1.404 . S
C1132 C1135 1.539 . S
C1133 C1129 1.408 . S
C1133 C1132 1.404 . S
C1133 H1145 0.930 . S
C1134 C1130 1.524 . S
C1134 H1146 0.956 . S
C1134 H1147 0.974 . S
C1134 H1148 0.961 . S
C1135 C1132 1.539 . S
C1135 H1149 0.958 . S
C1135 H1150 0.961 . S
C1135 H1151 0.960 . S
H1136 C1120 0.931 . S
H1137 C1125 0.929 . S
H1138 C1126 0.960 1_545 S
H1139 C1126 0.962 . S
H1140 C1126 0.960 . S
H1141 C1127 0.961 . S
H1142 C1127 0.961 1_545 S
H1143 C1127 0.961 . S
H1144 C1128 0.931 . S
H1145 C1133 0.930 . S
H1146 C1134 0.956 . S
H1147 C1134 0.974 . S
H1148 C1134 0.961 . S
H1149 C1135 0.958 . S
H1150 C1135 0.961 . S
H1151 C1135 0.960 . S
C1152 C1153 1.391 . S
C1152 C1154 1.394 . S
C1152 H1168 0.931 . S
C1153 C1152 1.391 . S
C1153 C1157 1.376 . S
C1154 C1152 1.394 . S
C1154 C1155 1.369 . S
C1154 C1158 1.531 . S
C1155 C1154 1.369 . S
C1155 C1156 1.410 . S
C1155 C1163 1.503 1_455 S
C1156 C1155 1.410 . S
C1156 C1157 1.392 . S
C1156 C1159 1.511 . S
C1157 C1153 1.376 . S
C1157 C1156 1.392 . S
C1157 H1169 0.929 . S
C1158 C1154 1.531 . S
C1158 H1170 0.960 . S
C1158 H1171 0.962 . S
C1158 H1172 0.960 . S
C1159 C1156 1.511 . S
C1159 H1173 0.961 . S
C1159 H1174 0.961 . S
C1159 H1175 0.961 . S
C1160 C1161 1.370 . S
C1160 C1162 1.363 . S
C1160 H1176 0.931 . S
C1161 C1160 1.370 . S
C1161 C1165 1.408 . S
C1162 C1160 1.363 . S
C1162 C1163 1.370 . S
C1162 C1166 1.524 . S
C1163 C1155 1.503 1_655 S
C1163 C1162 1.370 . S
C1163 C1164 1.403 . S
C1164 C1163 1.403 . S
C1164 C1165 1.404 . S
C1164 C1167 1.539 . S
C1165 C1161 1.408 . S
C1165 C1164 1.404 . S
C1165 H1177 0.930 . S
C1166 C1162 1.524 . S
C1166 H1178 0.956 1_655 S
C1166 H1179 0.961 1_655 S
C1166 H1180 0.961 . S
C1167 C1164 1.539 . S
C1167 H1181 0.958 . S
C1167 H1182 0.961 . S
C1167 H1183 0.960 1_655 S
H1168 C1152 0.931 . S
H1169 C1157 0.929 . S
H1170 C1158 0.960 . S
H1171 C1158 0.962 . S
H1172 C1158 0.960 . S
H1173 C1159 0.961 . S
H1174 C1159 0.961 . S
H1175 C1159 0.961 . S
H1176 C1160 0.931 . S
H1177 C1165 0.930 . S
H1178 C1166 0.956 1_455 S
H1179 C1166 0.961 1_455 S
H1180 C1166 0.961 . S
H1181 C1167 0.958 . S
H1182 C1167 0.961 . S
H1183 C1167 0.960 1_455 S
C1184 C1185 1.391 . S
C1184 C1186 1.394 . S
C1184 H1200 0.931 . S
C1185 C1184 1.391 . S
C1185 C1189 1.376 . S
C1186 C1184 1.394 . S
C1186 C1187 1.369 . S
C1186 C1190 1.531 . S
C1187 C1186 1.369 . S
C1187 C1188 1.410 . S
C1187 C1195 1.503 1_545 S
C1188 C1187 1.410 . S
C1188 C1189 1.392 . S
C1188 C1191 1.511 . S
C1189 C1185 1.376 . S
C1189 C1188 1.392 . S
C1189 H1201 0.929 . S
C1190 C1186 1.531 . S
C1190 H1202 0.960 1_545 S
C1190 H1203 0.962 . S
C1190 H1204 0.960 . S
C1191 C1188 1.511 . S
C1191 H1205 0.961 . S
C1191 H1206 0.961 1_545 S
C1191 H1207 0.961 . S
C1192 C1193 1.370 . S
C1192 C1194 1.363 . S
C1192 H1208 0.931 . S
C1193 C1192 1.370 . S
C1193 C1197 1.408 . S
C1194 C1192 1.363 . S
C1194 C1195 1.370 . S
C1194 C1198 1.524 . S
C1195 C1187 1.503 1_565 S
C1195 C1194 1.370 . S
C1195 C1196 1.403 . S
C1196 C1195 1.403 . S
C1196 C1197 1.404 . S
C1196 C1199 1.539 . S
C1197 C1193 1.408 . S
C1197 C1196 1.404 . S
C1197 H1209 0.930 . S
C1198 C1194 1.524 . S
C1198 H1210 0.956 . S
C1198 H1211 0.961 . S
C1198 H1212 0.961 . S
C1199 C1196 1.539 . S
C1199 H1213 0.958 . S
C1199 H1214 0.961 . S
C1199 H1215 0.960 . S
H1200 C1184 0.931 . S
H1201 C1189 0.929 . S
H1202 C1190 0.960 1_565 S
H1203 C1190 0.962 . S
H1204 C1190 0.960 . S
H1205 C1191 0.961 . S
H1206 C1191 0.961 1_565 S
H1207 C1191 0.961 . S
H1208 C1192 0.931 . S
H1209 C1197 0.930 . S
H1210 C1198 0.956 . S
H1211 C1198 0.961 . S
H1212 C1198 0.961 . S
H1213 C1199 0.958 . S
H1214 C1199 0.961 . S
H1215 C1199 0.960 . S
C1216 C1217 1.391 . S
C1216 C1218 1.394 . S
C1216 H1232 0.931 . S
C1217 C1216 1.391 . S
C1217 C1221 1.376 . S
C1218 C1216 1.394 . S
C1218 C1219 1.369 . S
C1218 C1222 1.531 . S
C1219 C1218 1.369 . S
C1219 C1220 1.410 . S
C1219 C1227 1.503 . S
C1220 C1219 1.410 . S
C1220 C1221 1.392 . S
C1220 C1223 1.511 . S
C1221 C1217 1.376 . S
C1221 C1220 1.392 . S
C1221 H1233 0.929 . S
C1222 C1218 1.531 . S
C1222 H1234 0.960 . S
C1222 H1235 0.962 . S
C1222 H1236 0.960 . S
C1223 C1220 1.511 . S
C1223 H1237 0.961 . S
C1223 H1238 0.961 . S
C1223 H1239 0.961 . S
C1224 C1225 1.370 . S
C1224 C1226 1.363 . S
C1224 H1240 0.931 . S
C1225 C1224 1.370 . S
C1225 C1229 1.408 . S
C1226 C1224 1.363 . S
C1226 C1227 1.370 . S
C1226 C1230 1.524 . S
C1227 C1219 1.503 . S
C1227 C1226 1.370 . S
C1227 C1228 1.403 . S
C1228 C1227 1.403 . S
C1228 C1229 1.404 . S
C1228 C1231 1.539 . S
C1229 C1225 1.408 . S
C1229 C1228 1.404 . S
C1229 H1241 0.930 . S
C1230 C1226 1.524 . S
C1230 H1242 0.956 . S
C1230 H1243 0.961 . S
C1230 H1244 0.961 . S
C1231 C1228 1.539 . S
C1231 H1245 0.958 . S
C1231 H1246 0.961 . S
C1231 H1247 0.960 . S
H1232 C1216 0.931 . S
H1233 C1221 0.929 . S
H1234 C1222 0.960 . S
H1235 C1222 0.962 . S
H1236 C1222 0.960 . S
H1237 C1223 0.961 . S
H1238 C1223 0.961 . S
H1239 C1223 0.961 . S
H1240 C1224 0.931 . S
H1241 C1229 0.930 . S
H1242 C1230 0.956 . S
H1243 C1230 0.961 . S
H1244 C1230 0.961 . S
H1245 C1231 0.958 . S
H1246 C1231 0.961 . S
H1247 C1231 0.960 . S
C1248 C1249 1.391 . S
C1248 C1250 1.394 . S
C1248 H1264 0.931 . S
C1249 C1248 1.391 . S
C1249 C1253 1.376 . S
C1250 C1248 1.394 . S
C1250 C1251 1.369 . S
C1250 C1254 1.531 . S
C1251 C1250 1.369 . S
C1251 C1252 1.410 . S
C1251 C1259 1.503 . S
C1252 C1251 1.410 . S
C1252 C1253 1.392 . S
C1252 C1255 1.511 . S
C1253 C1249 1.376 . S
C1253 C1252 1.392 . S
C1253 H1265 0.929 . S
C1254 C1250 1.531 . S
C1254 H1266 0.960 . S
C1254 H1267 0.962 . S
C1254 H1268 0.960 . S
C1255 C1252 1.511 . S
C1255 H1269 0.961 . S
C1255 H1270 0.961 . S
C1255 H1271 0.961 . S
C1256 C1257 1.370 . S
C1256 C1258 1.363 . S
C1256 H1272 0.931 . S
C1257 C1256 1.370 . S
C1257 C1261 1.408 . S
C1258 C1256 1.363 . S
C1258 C1259 1.370 . S
C1258 C1262 1.524 . S
C1259 C1251 1.503 . S
C1259 C1258 1.370 . S
C1259 C1260 1.403 . S
C1260 C1259 1.403 . S
C1260 C1261 1.404 . S
C1260 C1263 1.539 . S
C1261 C1257 1.408 . S
C1261 C1260 1.404 . S
C1261 H1273 0.930 . S
C1262 C1258 1.524 . S
C1262 H1274 0.956 . S
C1262 H1275 0.961 . S
C1262 H1276 0.961 . S
C1263 C1260 1.539 . S
C1263 H1277 0.958 . S
C1263 H1278 0.961 . S
C1263 H1279 0.960 . S
H1264 C1248 0.931 . S
H1265 C1253 0.929 . S
H1266 C1254 0.960 . S
H1267 C1254 0.962 . S
H1268 C1254 0.960 . S
H1269 C1255 0.961 . S
H1270 C1255 0.961 . S
H1271 C1255 0.961 . S
H1272 C1256 0.931 . S
H1273 C1261 0.930 . S
H1274 C1262 0.956 . S
H1275 C1262 0.961 . S
H1276 C1262 0.961 . S
H1277 C1263 0.958 . S
H1278 C1263 0.961 . S
H1279 C1263 0.960 . S
C1280 C1281 1.391 . S
C1280 C1282 1.394 . S
C1280 H1296 0.931 . S
C1281 C1280 1.391 . S
C1281 C1285 1.376 . S
C1282 C1280 1.394 . S
C1282 C1283 1.369 . S
C1282 C1286 1.531 . S
C1283 C1282 1.369 . S
C1283 C1284 1.410 . S
C1283 C1291 1.503 . S
C1284 C1283 1.410 . S
C1284 C1285 1.392 . S
C1284 C1287 1.511 . S
C1285 C1281 1.376 . S
C1285 C1284 1.392 . S
C1285 H1297 0.929 . S
C1286 C1282 1.531 . S
C1286 H1298 0.960 . S
C1286 H1299 0.962 . S
C1286 H1300 0.960 . S
C1287 C1284 1.511 . S
C1287 H1301 0.961 . S
C1287 H1302 0.961 . S
C1287 H1303 0.961 . S
C1288 C1289 1.370 . S
C1288 C1290 1.363 . S
C1288 H1304 0.931 . S
C1289 C1288 1.370 . S
C1289 C1293 1.408 . S
C1290 C1288 1.363 . S
C1290 C1291 1.370 . S
C1290 C1294 1.524 . S
C1291 C1283 1.503 . S
C1291 C1290 1.370 . S
C1291 C1292 1.403 . S
C1292 C1291 1.403 . S
C1292 C1293 1.404 . S
C1292 C1295 1.539 . S
C1293 C1289 1.408 . S
C1293 C1292 1.404 . S
C1293 H1305 0.930 . S
C1294 C1290 1.524 . S
C1294 H1306 0.956 . S
C1294 H1307 0.961 . S
C1294 H1308 0.961 . S
C1295 C1292 1.539 . S
C1295 H1309 0.958 . S
C1295 H1310 0.961 . S
C1295 H1311 0.960 . S
H1296 C1280 0.931 . S
H1297 C1285 0.929 . S
H1298 C1286 0.960 . S
H1299 C1286 0.962 . S
H1300 C1286 0.960 . S
H1301 C1287 0.961 . S
H1302 C1287 0.961 . S
H1303 C1287 0.961 . S
H1304 C1288 0.931 . S
H1305 C1293 0.930 . S
H1306 C1294 0.956 . S
H1307 C1294 0.961 . S
H1308 C1294 0.961 . S
H1309 C1295 0.958 . S
H1310 C1295 0.961 . S
H1311 C1295 0.960 . S
C1312 C1313 1.391 . S
C1312 C1314 1.394 . S
C1312 H1328 0.931 . S
C1313 C1312 1.391 . S
C1313 C1317 1.376 . S
C1314 C1312 1.394 . S
C1314 C1315 1.369 . S
C1314 C1318 1.531 . S
C1315 C1314 1.369 . S
C1315 C1316 1.410 . S
C1315 C1323 1.503 . S
C1316 C1315 1.410 . S
C1316 C1317 1.392 . S
C1316 C1319 1.511 . S
C1317 C1313 1.376 . S
C1317 C1316 1.392 . S
C1317 H1329 0.929 . S
C1318 C1314 1.531 . S
C1318 H1330 0.960 . S
C1318 H1331 0.962 . S
C1318 H1332 0.960 . S
C1319 C1316 1.511 . S
C1319 H1333 0.961 . S
C1319 H1334 0.961 . S
C1319 H1335 0.961 . S
C1320 C1321 1.370 . S
C1320 C1322 1.363 . S
C1320 H1336 0.931 . S
C1321 C1320 1.370 . S
C1321 C1325 1.408 . S
C1322 C1320 1.363 . S
C1322 C1323 1.370 . S
C1322 C1326 1.524 . S
C1323 C1315 1.503 . S
C1323 C1322 1.370 . S
C1323 C1324 1.403 . S
C1324 C1323 1.403 . S
C1324 C1325 1.404 . S
C1324 C1327 1.539 . S
C1325 C1321 1.408 . S
C1325 C1324 1.404 . S
C1325 H1337 0.930 . S
C1326 C1322 1.524 . S
C1326 H1338 0.956 . S
C1326 H1339 0.961 . S
C1326 H1340 0.961 . S
C1327 C1324 1.539 . S
C1327 H1341 0.958 . S
C1327 H1342 0.961 . S
C1327 H1343 0.960 . S
H1328 C1312 0.931 . S
H1329 C1317 0.929 . S
H1330 C1318 0.960 . S
H1331 C1318 0.962 . S
H1332 C1318 0.960 . S
H1333 C1319 0.961 . S
H1334 C1319 0.961 . S
H1335 C1319 0.961 . S
H1336 C1320 0.931 . S
H1337 C1325 0.930 . S
H1338 C1326 0.956 . S
H1339 C1326 0.961 . S
H1340 C1326 0.961 . S
H1341 C1327 0.958 . S
H1342 C1327 0.961 . S
H1343 C1327 0.960 . S
C1344 C1345 1.391 . S
C1344 C1346 1.394 . S
C1344 H1360 0.931 . S
C1345 C1344 1.391 . S
C1345 C1349 1.376 . S
C1346 C1344 1.394 . S
C1346 C1347 1.369 . S
C1346 C1350 1.531 . S
C1347 C1346 1.369 . S
C1347 C1348 1.410 . S
C1347 C1355 1.503 . S
C1348 C1347 1.410 . S
C1348 C1349 1.392 . S
C1348 C1351 1.511 . S
C1349 C1345 1.376 . S
C1349 C1348 1.392 . S
C1349 H1361 0.929 . S
C1350 C1346 1.531 . S
C1350 H1362 0.960 . S
C1350 H1363 0.962 . S
C1350 H1364 0.960 . S
C1351 C1348 1.511 . S
C1351 H1365 0.961 . S
C1351 H1366 0.961 . S
C1351 H1367 0.961 . S
C1352 C1353 1.370 . S
C1352 C1354 1.363 . S
C1352 H1368 0.931 . S
C1353 C1352 1.370 . S
C1353 C1357 1.408 . S
C1354 C1352 1.363 . S
C1354 C1355 1.370 . S
C1354 C1358 1.524 . S
C1355 C1347 1.503 . S
C1355 C1354 1.370 . S
C1355 C1356 1.403 . S
C1356 C1355 1.403 . S
C1356 C1357 1.404 . S
C1356 C1359 1.539 . S
C1357 C1353 1.408 . S
C1357 C1356 1.404 . S
C1357 H1369 0.930 . S
C1358 C1354 1.524 . S
C1358 H1370 0.956 . S
C1358 H1371 0.961 . S
C1358 H1372 0.961 . S
C1359 C1356 1.539 . S
C1359 H1373 0.958 . S
C1359 H1374 0.961 . S
C1359 H1375 0.960 . S
H1360 C1344 0.931 . S
H1361 C1349 0.929 . S
H1362 C1350 0.960 . S
H1363 C1350 0.962 . S
H1364 C1350 0.960 . S
H1365 C1351 0.961 . S
H1366 C1351 0.961 . S
H1367 C1351 0.961 . S
H1368 C1352 0.931 . S
H1369 C1357 0.930 . S
H1370 C1358 0.956 . S
H1371 C1358 0.961 . S
H1372 C1358 0.961 . S
H1373 C1359 0.958 . S
H1374 C1359 0.961 . S
H1375 C1359 0.960 . S
C1376 C1377 1.391 . S
C1376 C1378 1.394 . S
C1376 H1392 0.931 . S
C1377 C1376 1.391 . S
C1377 C1381 1.376 . S
C1378 C1376 1.394 . S
C1378 C1379 1.369 . S
C1378 C1382 1.531 . S
C1379 C1378 1.369 . S
C1379 C1380 1.410 . S
C1379 C1387 1.503 . S
C1380 C1379 1.410 . S
C1380 C1381 1.392 . S
C1380 C1383 1.511 . S
C1381 C1377 1.376 . S
C1381 C1380 1.392 . S
C1381 H1393 0.929 . S
C1382 C1378 1.531 . S
C1382 H1394 0.960 . S
C1382 H1395 0.962 . S
C1382 H1396 0.960 . S
C1383 C1380 1.511 . S
C1383 H1397 0.961 . S
C1383 H1398 0.961 . S
C1383 H1399 0.961 . S
C1384 C1385 1.370 . S
C1384 C1386 1.363 . S
C1384 H1400 0.931 . S
C1385 C1384 1.370 . S
C1385 C1389 1.408 . S
C1386 C1384 1.363 . S
C1386 C1387 1.370 . S
C1386 C1390 1.524 . S
C1387 C1379 1.503 . S
C1387 C1386 1.370 . S
C1387 C1388 1.403 . S
C1388 C1387 1.403 . S
C1388 C1389 1.404 . S
C1388 C1391 1.539 . S
C1389 C1385 1.408 . S
C1389 C1388 1.404 . S
C1389 H1401 0.930 . S
C1390 C1386 1.524 . S
C1390 H1402 0.956 . S
C1390 H1403 0.961 . S
C1390 H1404 0.961 . S
C1391 C1388 1.539 . S
C1391 H1405 0.958 . S
C1391 H1406 0.961 . S
C1391 H1407 0.960 . S
H1392 C1376 0.931 . S
H1393 C1381 0.929 . S
H1394 C1382 0.960 . S
H1395 C1382 0.962 . S
H1396 C1382 0.960 . S
H1397 C1383 0.961 . S
H1398 C1383 0.961 . S
H1399 C1383 0.961 . S
H1400 C1384 0.931 . S
H1401 C1389 0.930 . S
H1402 C1390 0.956 . S
H1403 C1390 0.961 . S
H1404 C1390 0.961 . S
H1405 C1391 0.958 . S
H1406 C1391 0.961 . S
H1407 C1391 0.960 . S
C1408 C1409 1.391 . S
C1408 C1410 1.394 . S
C1408 H1424 0.931 . S
C1409 C1408 1.391 . S
C1409 C1413 1.376 . S
C1410 C1408 1.394 . S
C1410 C1411 1.369 . S
C1410 C1414 1.531 . S
C1411 C1410 1.369 . S
C1411 C1412 1.410 . S
C1411 C1419 1.503 . S
C1412 C1411 1.410 . S
C1412 C1413 1.392 . S
C1412 C1415 1.511 . S
C1413 C1409 1.376 . S
C1413 C1412 1.392 . S
C1413 H1425 0.929 . S
C1414 C1410 1.531 . S
C1414 H1426 0.960 . S
C1414 H1427 0.962 . S
C1414 H1428 0.960 . S
C1415 C1412 1.511 . S
C1415 H1429 0.961 . S
C1415 H1430 0.961 . S
C1415 H1431 0.961 . S
C1416 C1417 1.370 . S
C1416 C1418 1.363 . S
C1416 H1432 0.931 . S
C1417 C1416 1.370 . S
C1417 C1421 1.408 . S
C1418 C1416 1.363 . S
C1418 C1419 1.370 . S
C1418 C1422 1.524 . S
C1419 C1411 1.503 . S
C1419 C1418 1.370 . S
C1419 C1420 1.403 . S
C1420 C1419 1.403 . S
C1420 C1421 1.404 . S
C1420 C1423 1.539 . S
C1421 C1417 1.408 . S
C1421 C1420 1.404 . S
C1421 H1433 0.930 . S
C1422 C1418 1.524 . S
C1422 H1434 0.956 . S
C1422 H1435 0.961 . S
C1422 H1436 0.961 . S
C1423 C1420 1.539 . S
C1423 H1437 0.958 . S
C1423 H1438 0.961 . S
C1423 H1439 0.960 . S
H1424 C1408 0.931 . S
H1425 C1413 0.929 . S
H1426 C1414 0.960 . S
H1427 C1414 0.962 . S
H1428 C1414 0.960 . S
H1429 C1415 0.961 . S
H1430 C1415 0.961 . S
H1431 C1415 0.961 . S
H1432 C1416 0.931 . S
H1433 C1421 0.930 . S
H1434 C1422 0.956 . S
H1435 C1422 0.961 . S
H1436 C1422 0.961 . S
H1437 C1423 0.958 . S
H1438 C1423 0.961 . S
H1439 C1423 0.960 . S
C1440 C1441 1.391 . S
C1440 C1442 1.394 . S
C1440 H1456 0.931 . S
C1441 C1440 1.391 . S
C1441 C1445 1.376 . S
C1442 C1440 1.394 . S
C1442 C1443 1.369 . S
C1442 C1446 1.531 . S
C1443 C1442 1.369 . S
C1443 C1444 1.410 . S
C1443 C1451 1.503 . S
C1444 C1443 1.410 . S
C1444 C1445 1.392 . S
C1444 C1447 1.511 . S
C1445 C1441 1.376 . S
C1445 C1444 1.392 . S
C1445 H1457 0.929 . S
C1446 C1442 1.531 . S
C1446 H1458 0.960 . S
C1446 H1459 0.962 . S
C1446 H1460 0.960 . S
C1447 C1444 1.511 . S
C1447 H1461 0.961 . S
C1447 H1462 0.961 . S
C1447 H1463 0.961 . S
C1448 C1449 1.370 . S
C1448 C1450 1.363 . S
C1448 H1464 0.931 . S
C1449 C1448 1.370 . S
C1449 C1453 1.408 . S
C1450 C1448 1.363 . S
C1450 C1451 1.370 . S
C1450 C1454 1.524 . S
C1451 C1443 1.503 . S
C1451 C1450 1.370 . S
C1451 C1452 1.403 . S
C1452 C1451 1.403 . S
C1452 C1453 1.404 . S
C1452 C1455 1.539 . S
C1453 C1449 1.408 . S
C1453 C1452 1.404 . S
C1453 H1465 0.930 . S
C1454 C1450 1.524 . S
C1454 H1466 0.956 . S
C1454 H1467 0.961 . S
C1454 H1468 0.961 . S
C1455 C1452 1.539 . S
C1455 H1469 0.958 . S
C1455 H1470 0.961 . S
C1455 H1471 0.960 . S
H1456 C1440 0.931 . S
H1457 C1445 0.929 . S
H1458 C1446 0.960 . S
H1459 C1446 0.962 . S
H1460 C1446 0.960 . S
H1461 C1447 0.961 . S
H1462 C1447 0.961 . S
H1463 C1447 0.961 . S
H1464 C1448 0.931 . S
H1465 C1453 0.930 . S
H1466 C1454 0.956 . S
H1467 C1454 0.961 . S
H1468 C1454 0.961 . S
H1469 C1455 0.958 . S
H1470 C1455 0.961 . S
H1471 C1455 0.960 . S
C1472 C1473 1.391 . S
C1472 C1474 1.394 . S
C1472 H1488 0.931 . S
C1473 C1472 1.391 . S
C1473 C1477 1.376 . S
C1474 C1472 1.394 . S
C1474 C1475 1.369 . S
C1474 C1478 1.531 . S
C1475 C1474 1.369 . S
C1475 C1476 1.410 . S
C1475 C1483 1.503 . S
C1476 C1475 1.410 . S
C1476 C1477 1.392 . S
C1476 C1479 1.511 . S
C1477 C1473 1.376 . S
C1477 C1476 1.392 . S
C1477 H1489 0.929 . S
C1478 C1474 1.531 . S
C1478 H1490 0.960 . S
C1478 H1491 0.962 . S
C1478 H1492 0.960 . S
C1479 C1476 1.511 . S
C1479 H1493 0.961 . S
C1479 H1494 0.961 . S
C1479 H1495 0.961 . S
C1480 C1481 1.370 . S
C1480 C1482 1.363 . S
C1480 H1496 0.931 . S
C1481 C1480 1.370 . S
C1481 C1485 1.408 . S
C1482 C1480 1.363 . S
C1482 C1483 1.370 . S
C1482 C1486 1.524 . S
C1483 C1475 1.503 . S
C1483 C1482 1.370 . S
C1483 C1484 1.403 . S
C1484 C1483 1.403 . S
C1484 C1485 1.404 . S
C1484 C1487 1.539 . S
C1485 C1481 1.408 . S
C1485 C1484 1.404 . S
C1485 H1497 0.930 . S
C1486 C1482 1.524 . S
C1486 H1498 0.956 . S
C1486 H1499 0.961 . S
C1486 H1500 0.961 . S
C1487 C1484 1.539 . S
C1487 H1501 0.958 . S
C1487 H1502 0.961 . S
C1487 H1503 0.960 . S
H1488 C1472 0.931 . S
H1489 C1477 0.929 . S
H1490 C1478 0.960 . S
H1491 C1478 0.962 . S
H1492 C1478 0.960 . S
H1493 C1479 0.961 . S
H1494 C1479 0.961 . S
H1495 C1479 0.961 . S
H1496 C1480 0.931 . S
H1497 C1485 0.930 . S
H1498 C1486 0.956 . S
H1499 C1486 0.961 . S
H1500 C1486 0.961 . S
H1501 C1487 0.958 . S
H1502 C1487 0.961 . S
H1503 C1487 0.960 . S
C1504 C1505 1.391 . S
C1504 C1506 1.394 . S
C1504 H1520 0.931 . S
C1505 C1504 1.391 . S
C1505 C1509 1.376 . S
C1506 C1504 1.394 . S
C1506 C1507 1.369 . S
C1506 C1510 1.531 . S
C1507 C1506 1.369 . S
C1507 C1508 1.410 . S
C1507 C1515 1.503 . S
C1508 C1507 1.410 . S
C1508 C1509 1.392 . S
C1508 C1511 1.511 . S
C1509 C1505 1.376 . S
C1509 C1508 1.392 . S
C1509 H1521 0.929 . S
C1510 C1506 1.531 . S
C1510 H1522 0.960 . S
C1510 H1523 0.962 . S
C1510 H1524 0.960 . S
C1511 C1508 1.511 . S
C1511 H1525 0.961 . S
C1511 H1526 0.961 . S
C1511 H1527 0.961 . S
C1512 C1513 1.370 . S
C1512 C1514 1.363 . S
C1512 H1528 0.931 . S
C1513 C1512 1.370 . S
C1513 C1517 1.408 . S
C1514 C1512 1.363 . S
C1514 C1515 1.370 . S
C1514 C1518 1.524 . S
C1515 C1507 1.503 . S
C1515 C1514 1.370 . S
C1515 C1516 1.403 . S
C1516 C1515 1.403 . S
C1516 C1517 1.404 . S
C1516 C1519 1.539 . S
C1517 C1513 1.408 . S
C1517 C1516 1.404 . S
C1517 H1529 0.930 . S
C1518 C1514 1.524 . S
C1518 H1530 0.956 . S
C1518 H1531 0.961 . S
C1518 H1532 0.961 . S
C1519 C1516 1.539 . S
C1519 H1533 0.958 . S
C1519 H1534 0.961 . S
C1519 H1535 0.960 . S
H1520 C1504 0.931 . S
H1521 C1509 0.929 . S
H1522 C1510 0.960 . S
H1523 C1510 0.962 . S
H1524 C1510 0.960 . S
H1525 C1511 0.961 . S
H1526 C1511 0.961 . S
H1527 C1511 0.961 . S
H1528 C1512 0.931 . S
H1529 C1517 0.930 . S
H1530 C1518 0.956 . S
H1531 C1518 0.961 . S
H1532 C1518 0.961 . S
H1533 C1519 0.958 . S
H1534 C1519 0.961 . S
H1535 C1519 0.960 . S
C1536 C1537 1.391 . S
C1536 C1538 1.394 . S
C1536 H1552 0.931 . S
C1537 C1536 1.391 . S
C1537 C1541 1.376 . S
C1538 C1536 1.394 . S
C1538 C1539 1.369 . S
C1538 C1542 1.531 . S
C1539 C1538 1.369 . S
C1539 C1540 1.410 . S
C1539 C1547 1.503 . S
C1540 C1539 1.410 . S
C1540 C1541 1.392 . S
C1540 C1543 1.511 . S
C1541 C1537 1.376 . S
C1541 C1540 1.392 . S
C1541 H1553 0.929 . S
C1542 C1538 1.531 . S
C1542 H1554 0.960 . S
C1542 H1555 0.962 . S
C1542 H1556 0.960 . S
C1543 C1540 1.511 . S
C1543 H1557 0.961 . S
C1543 H1558 0.961 . S
C1543 H1559 0.961 . S
C1544 C1545 1.370 . S
C1544 C1546 1.363 . S
C1544 H1560 0.931 . S
C1545 C1544 1.370 . S
C1545 C1549 1.408 . S
C1546 C1544 1.363 . S
C1546 C1547 1.370 . S
C1546 C1550 1.524 . S
C1547 C1539 1.503 . S
C1547 C1546 1.370 . S
C1547 C1548 1.403 . S
C1548 C1547 1.403 . S
C1548 C1549 1.404 . S
C1548 C1551 1.539 . S
C1549 C1545 1.408 . S
C1549 C1548 1.404 . S
C1549 H1561 0.930 . S
C1550 C1546 1.524 . S
C1550 H1562 0.956 . S
C1550 H1563 0.961 . S
C1550 H1564 0.961 . S
C1551 C1548 1.539 . S
C1551 H1565 0.958 . S
C1551 H1566 0.961 . S
C1551 H1567 0.960 . S
H1552 C1536 0.931 . S
H1553 C1541 0.929 . S
H1554 C1542 0.960 . S
H1555 C1542 0.962 . S
H1556 C1542 0.960 . S
H1557 C1543 0.961 . S
H1558 C1543 0.961 . S
H1559 C1543 0.961 . S
H1560 C1544 0.931 . S
H1561 C1549 0.930 . S
H1562 C1550 0.956 . S
H1563 C1550 0.961 . S
H1564 C1550 0.961 . S
H1565 C1551 0.958 . S
H1566 C1551 0.961 . S
H1567 C1551 0.960 . S
C1568 C1569 1.391 . S
C1568 C1570 1.394 . S
C1568 H1584 0.931 . S
C1569 C1568 1.391 . S
C1569 C1573 1.376 . S
C1570 C1568 1.394 . S
C1570 C1571 1.369 . S
C1570 C1574 1.531 . S
C1571 C1570 1.369 . S
C1571 C1572 1.410 . S
C1571 C1579 1.503 . S
C1572 C1571 1.410 . S
C1572 C1573 1.392 . S
C1572 C1575 1.511 . S
C1573 C1569 1.376 . S
C1573 C1572 1.392 . S
C1573 H1585 0.929 . S
C1574 C1570 1.531 . S
C1574 H1586 0.960 . S
C1574 H1587 0.962 . S
C1574 H1588 0.960 . S
C1575 C1572 1.511 . S
C1575 H1589 0.961 . S
C1575 H1590 0.961 . S
C1575 H1591 0.961 . S
C1576 C1577 1.370 . S
C1576 C1578 1.363 . S
C1576 H1592 0.931 . S
C1577 C1576 1.370 . S
C1577 C1581 1.408 . S
C1578 C1576 1.363 . S
C1578 C1579 1.370 . S
C1578 C1582 1.524 . S
C1579 C1571 1.503 . S
C1579 C1578 1.370 . S
C1579 C1580 1.403 . S
C1580 C1579 1.403 . S
C1580 C1581 1.404 . S
C1580 C1583 1.539 . S
C1581 C1577 1.408 . S
C1581 C1580 1.404 . S
C1581 H1593 0.930 . S
C1582 C1578 1.524 . S
C1582 H1594 0.956 . S
C1582 H1595 0.961 . S
C1582 H1596 0.961 . S
C1583 C1580 1.539 . S
C1583 H1597 0.958 . S
C1583 H1598 0.961 . S
C1583 H1599 0.960 . S
H1584 C1568 0.931 . S
H1585 C1573 0.929 . S
H1586 C1574 0.960 . S
H1587 C1574 0.962 . S
H1588 C1574 0.960 . S
H1589 C1575 0.961 . S
H1590 C1575 0.961 . S
H1591 C1575 0.961 . S
H1592 C1576 0.931 . S
H1593 C1581 0.930 . S
H1594 C1582 0.956 . S
H1595 C1582 0.961 . S
H1596 C1582 0.961 . S
H1597 C1583 0.958 . S
H1598 C1583 0.961 . S
H1599 C1583 0.960 . S
C1600 C1601 1.391 . S
C1600 C1602 1.394 . S
C1600 H1616 0.931 . S
C1601 C1600 1.391 . S
C1601 C1605 1.376 . S
C1602 C1600 1.394 . S
C1602 C1603 1.369 . S
C1602 C1606 1.531 . S
C1603 C1602 1.369 . S
C1603 C1604 1.410 . S
C1603 C1611 1.503 . S
C1604 C1603 1.410 . S
C1604 C1605 1.392 . S
C1604 C1607 1.511 . S
C1605 C1601 1.376 . S
C1605 C1604 1.392 . S
C1605 H1617 0.929 . S
C1606 C1602 1.531 . S
C1606 H1618 0.960 . S
C1606 H1619 0.962 . S
C1606 H1620 0.960 . S
C1607 C1604 1.511 . S
C1607 H1621 0.961 . S
C1607 H1622 0.961 . S
C1607 H1623 0.961 . S
C1608 C1609 1.370 . S
C1608 C1610 1.363 . S
C1608 H1624 0.931 . S
C1609 C1608 1.370 . S
C1609 C1613 1.408 . S
C1610 C1608 1.363 . S
C1610 C1611 1.370 . S
C1610 C1614 1.524 . S
C1611 C1603 1.503 . S
C1611 C1610 1.370 . S
C1611 C1612 1.403 . S
C1612 C1611 1.403 . S
C1612 C1613 1.404 . S
C1612 C1615 1.539 . S
C1613 C1609 1.408 . S
C1613 C1612 1.404 . S
C1613 H1625 0.930 . S
C1614 C1610 1.524 . S
C1614 H1626 0.956 . S
C1614 H1627 0.961 . S
C1614 H1628 0.961 . S
C1615 C1612 1.539 . S
C1615 H1629 0.958 . S
C1615 H1630 0.961 . S
C1615 H1631 0.960 . S
H1616 C1600 0.931 . S
H1617 C1605 0.929 . S
H1618 C1606 0.960 . S
H1619 C1606 0.962 . S
H1620 C1606 0.960 . S
H1621 C1607 0.961 . S
H1622 C1607 0.961 . S
H1623 C1607 0.961 . S
H1624 C1608 0.931 . S
H1625 C1613 0.930 . S
H1626 C1614 0.956 . S
H1627 C1614 0.961 . S
H1628 C1614 0.961 . S
H1629 C1615 0.958 . S
H1630 C1615 0.961 . S
H1631 C1615 0.960 . S
C1632 C1633 1.391 . S
C1632 C1634 1.394 . S
C1632 H1648 0.931 . S
C1633 C1632 1.391 . S
C1633 C1637 1.376 . S
C1634 C1632 1.394 . S
C1634 C1635 1.369 . S
C1634 C1638 1.531 . S
C1635 C1634 1.369 . S
C1635 C1636 1.410 . S
C1635 C1643 1.503 . S
C1636 C1635 1.410 . S
C1636 C1637 1.392 . S
C1636 C1639 1.511 . S
C1637 C1633 1.376 . S
C1637 C1636 1.392 . S
C1637 H1649 0.929 . S
C1638 C1634 1.531 . S
C1638 H1650 0.960 . S
C1638 H1651 0.962 . S
C1638 H1652 0.960 . S
C1639 C1636 1.511 . S
C1639 H1653 0.961 . S
C1639 H1654 0.961 . S
C1639 H1655 0.961 . S
C1640 C1641 1.370 . S
C1640 C1642 1.363 . S
C1640 H1656 0.931 . S
C1641 C1640 1.370 . S
C1641 C1645 1.408 . S
C1642 C1640 1.363 . S
C1642 C1643 1.370 . S
C1642 C1646 1.524 . S
C1643 C1635 1.503 . S
C1643 C1642 1.370 . S
C1643 C1644 1.403 . S
C1644 C1643 1.403 . S
C1644 C1645 1.404 . S
C1644 C1647 1.539 . S
C1645 C1641 1.408 . S
C1645 C1644 1.404 . S
C1645 H1657 0.930 . S
C1646 C1642 1.524 . S
C1646 H1658 0.956 . S
C1646 H1659 0.961 . S
C1646 H1660 0.961 . S
C1647 C1644 1.539 . S
C1647 H1661 0.958 . S
C1647 H1662 0.961 . S
C1647 H1663 0.960 . S
H1648 C1632 0.931 . S
H1649 C1637 0.929 . S
H1650 C1638 0.960 . S
H1651 C1638 0.962 . S
H1652 C1638 0.960 . S
H1653 C1639 0.961 . S
H1654 C1639 0.961 . S
H1655 C1639 0.961 . S
H1656 C1640 0.931 . S
H1657 C1645 0.930 . S
H1658 C1646 0.956 . S
H1659 C1646 0.961 . S
H1660 C1646 0.961 . S
H1661 C1647 0.958 . S
H1662 C1647 0.961 . S
H1663 C1647 0.960 . S
C1664 C1665 1.391 . S
C1664 C1666 1.394 . S
C1664 H1680 0.931 . S
C1665 C1664 1.391 . S
C1665 C1669 1.376 . S
C1666 C1664 1.394 . S
C1666 C1667 1.369 . S
C1666 C1670 1.531 . S
C1667 C1666 1.369 . S
C1667 C1668 1.410 . S
C1667 C1675 1.503 . S
C1668 C1667 1.410 . S
C1668 C1669 1.392 . S
C1668 C1671 1.511 . S
C1669 C1665 1.376 . S
C1669 C1668 1.392 . S
C1669 H1681 0.929 . S
C1670 C1666 1.531 . S
C1670 H1682 0.960 . S
C1670 H1683 0.962 . S
C1670 H1684 0.960 . S
C1671 C1668 1.511 . S
C1671 H1685 0.961 . S
C1671 H1686 0.961 . S
C1671 H1687 0.961 . S
C1672 C1673 1.370 . S
C1672 C1674 1.363 . S
C1672 H1688 0.931 . S
C1673 C1672 1.370 . S
C1673 C1677 1.408 . S
C1674 C1672 1.363 . S
C1674 C1675 1.370 . S
C1674 C1678 1.524 . S
C1675 C1667 1.503 . S
C1675 C1674 1.370 . S
C1675 C1676 1.403 . S
C1676 C1675 1.403 . S
C1676 C1677 1.404 . S
C1676 C1679 1.539 . S
C1677 C1673 1.408 . S
C1677 C1676 1.404 . S
C1677 H1689 0.930 . S
C1678 C1674 1.524 . S
C1678 H1690 0.956 . S
C1678 H1691 0.961 . S
C1678 H1692 0.961 . S
C1679 C1676 1.539 . S
C1679 H1693 0.958 . S
C1679 H1694 0.961 . S
C1679 H1695 0.960 . S
H1680 C1664 0.931 . S
H1681 C1669 0.929 . S
H1682 C1670 0.960 . S
H1683 C1670 0.962 . S
H1684 C1670 0.960 . S
H1685 C1671 0.961 . S
H1686 C1671 0.961 . S
H1687 C1671 0.961 . S
H1688 C1672 0.931 . S
H1689 C1677 0.930 . S
H1690 C1678 0.956 . S
H1691 C1678 0.961 . S
H1692 C1678 0.961 . S
H1693 C1679 0.958 . S
H1694 C1679 0.961 . S
H1695 C1679 0.960 . S
C1696 C1697 1.391 . S
C1696 C1698 1.394 . S
C1696 H1712 0.931 . S
C1697 C1696 1.391 . S
C1697 C1701 1.376 . S
C1698 C1696 1.394 . S
C1698 C1699 1.369 . S
C1698 C1702 1.531 . S
C1699 C1698 1.369 . S
C1699 C1700 1.410 . S
C1699 C1707 1.503 . S
C1700 C1699 1.410 . S
C1700 C1701 1.392 . S
C1700 C1703 1.511 . S
C1701 C1697 1.376 . S
C1701 C1700 1.392 . S
C1701 H1713 0.929 . S
C1702 C1698 1.531 . S
C1702 H1714 0.960 . S
C1702 H1715 0.962 . S
C1702 H1716 0.960 . S
C1703 C1700 1.511 . S
C1703 H1717 0.961 . S
C1703 H1718 0.961 . S
C1703 H1719 0.961 . S
C1704 C1705 1.370 . S
C1704 C1706 1.363 . S
C1704 H1720 0.931 . S
C1705 C1704 1.370 . S
C1705 C1709 1.408 . S
C1706 C1704 1.363 . S
C1706 C1707 1.370 . S
C1706 C1710 1.524 . S
C1707 C1699 1.503 . S
C1707 C1706 1.370 . S
C1707 C1708 1.403 . S
C1708 C1707 1.403 . S
C1708 C1709 1.404 . S
C1708 C1711 1.539 . S
C1709 C1705 1.408 . S
C1709 C1708 1.404 . S
C1709 H1721 0.930 . S
C1710 C1706 1.524 . S
C1710 H1722 0.956 . S
C1710 H1723 0.961 . S
C1710 H1724 0.961 . S
C1711 C1708 1.539 . S
C1711 H1725 0.958 . S
C1711 H1726 0.961 . S
C1711 H1727 0.960 . S
H1712 C1696 0.931 . S
H1713 C1701 0.929 . S
H1714 C1702 0.960 . S
H1715 C1702 0.962 . S
H1716 C1702 0.960 . S
H1717 C1703 0.961 . S
H1718 C1703 0.961 . S
H1719 C1703 0.961 . S
H1720 C1704 0.931 . S
H1721 C1709 0.930 . S
H1722 C1710 0.956 . S
H1723 C1710 0.961 . S
H1724 C1710 0.961 . S
H1725 C1711 0.958 . S
H1726 C1711 0.961 . S
H1727 C1711 0.960 . S
C1728 C1729 1.391 . S
C1728 C1730 1.394 . S
C1728 H1744 0.931 . S
C1729 C1728 1.391 . S
C1729 C1733 1.376 . S
C1730 C1728 1.394 . S
C1730 C1731 1.369 . S
C1730 C1734 1.531 . S
C1731 C1730 1.369 . S
C1731 C1732 1.410 . S
C1731 C1739 1.503 1_554 S
C1732 C1731 1.410 . S
C1732 C1733 1.392 . S
C1732 C1735 1.511 . S
C1733 C1729 1.376 . S
C1733 C1732 1.392 . S
C1733 H1745 0.929 . S
C1734 C1730 1.531 . S
C1734 H1746 0.960 1_554 S
C1734 H1747 0.962 . S
C1734 H1748 0.960 . S
C1735 C1732 1.511 . S
C1735 H1749 0.961 . S
C1735 H1750 0.961 1_554 S
C1735 H1751 0.961 . S
C1736 C1737 1.370 . S
C1736 C1738 1.363 . S
C1736 H1752 0.931 . S
C1737 C1736 1.370 . S
C1737 C1741 1.408 . S
C1738 C1736 1.363 . S
C1738 C1739 1.370 . S
C1738 C1742 1.524 . S
C1739 C1731 1.503 1_556 S
C1739 C1738 1.370 . S
C1739 C1740 1.403 . S
C1740 C1739 1.403 . S
C1740 C1741 1.404 . S
C1740 C1743 1.539 . S
C1741 C1737 1.408 . S
C1741 C1740 1.404 . S
C1741 H1753 0.930 . S
C1742 C1738 1.524 . S
C1742 H1754 0.956 . S
C1742 H1755 0.980 . S
C1742 H1756 0.961 . S
C1743 C1740 1.539 . S
C1743 H1757 0.958 . S
C1743 H1758 0.961 . S
C1743 H1759 0.960 . S
H1744 C1728 0.931 . S
H1745 C1733 0.929 . S
H1746 C1734 0.960 1_556 S
H1747 C1734 0.962 . S
H1748 C1734 0.960 . S
H1749 C1735 0.961 . S
H1750 C1735 0.961 1_556 S
H1751 C1735 0.961 . S
H1752 C1736 0.931 . S
H1753 C1741 0.930 . S
H1754 C1742 0.956 . S
H1755 C1742 0.980 . S
H1756 C1742 0.961 . S
H1757 C1743 0.958 . S
H1758 C1743 0.961 . S
H1759 C1743 0.960 . S
C1760 C1761 1.391 . S
C1760 C1762 1.394 . S
C1760 H1776 0.931 . S
C1761 C1760 1.391 . S
C1761 C1765 1.376 . S
C1762 C1760 1.394 . S
C1762 C1763 1.369 . S
C1762 C1766 1.531 . S
C1763 C1762 1.369 . S
C1763 C1764 1.410 . S
C1763 C1771 1.503 1_556 S
C1764 C1763 1.410 . S
C1764 C1765 1.392 . S
C1764 C1767 1.511 . S
C1765 C1761 1.376 . S
C1765 C1764 1.392 . S
C1765 H1777 0.929 . S
C1766 C1762 1.531 . S
C1766 H1778 0.960 1_556 S
C1766 H1779 0.962 . S
C1766 H1780 0.960 . S
C1767 C1764 1.511 . S
C1767 H1781 0.961 . S
C1767 H1782 0.961 1_556 S
C1767 H1783 0.961 . S
C1768 C1769 1.370 . S
C1768 C1770 1.363 . S
C1768 H1784 0.931 . S
C1769 C1768 1.370 . S
C1769 C1773 1.408 . S
C1770 C1768 1.363 . S
C1770 C1771 1.370 . S
C1770 C1774 1.524 . S
C1771 C1763 1.503 1_554 S
C1771 C1770 1.370 . S
C1771 C1772 1.403 . S
C1772 C1771 1.403 . S
C1772 C1773 1.404 . S
C1772 C1775 1.539 . S
C1773 C1769 1.408 . S
C1773 C1772 1.404 . S
C1773 H1785 0.930 . S
C1774 C1770 1.524 . S
C1774 H1786 0.961 . S
C1774 H1787 0.961 1_554 S
C1774 H1788 0.961 . S
C1775 C1772 1.539 . S
C1775 H1789 0.958 . S
C1775 H1790 0.961 . S
C1775 H1791 0.960 . S
H1776 C1760 0.931 . S
H1777 C1765 0.929 . S
H1778 C1766 0.960 1_554 S
H1779 C1766 0.962 . S
H1780 C1766 0.960 . S
H1781 C1767 0.961 . S
H1782 C1767 0.961 1_554 S
H1783 C1767 0.961 . S
H1784 C1768 0.931 . S
H1785 C1773 0.930 . S
H1786 C1774 0.961 . S
H1787 C1774 0.961 1_556 S
H1788 C1774 0.961 . S
H1789 C1775 0.958 . S
H1790 C1775 0.961 . S
H1791 C1775 0.960 . S
C1792 C1793 1.391 . S
C1792 C1794 1.394 . S
C1792 H1808 0.931 . S
C1793 C1792 1.391 . S
C1793 C1797 1.376 . S
C1794 C1792 1.394 . S
C1794 C1795 1.369 . S
C1794 C1798 1.531 . S
C1795 C1794 1.369 . S
C1795 C1796 1.410 . S
C1795 C1803 1.503 1_554 S
C1796 C1795 1.410 . S
C1796 C1797 1.392 . S
C1796 C1799 1.511 . S
C1797 C1793 1.376 . S
C1797 C1796 1.392 . S
C1797 H1809 0.929 . S
C1798 C1794 1.531 . S
C1798 H1810 0.960 1_554 S
C1798 H1811 0.962 . S
C1798 H1812 0.960 . S
C1799 C1796 1.511 . S
C1799 H1813 0.961 . S
C1799 H1814 0.961 1_554 S
C1799 H1815 0.961 . S
C1800 C1801 1.370 . S
C1800 C1802 1.363 . S
C1800 H1816 0.931 . S
C1801 C1800 1.370 . S
C1801 C1805 1.408 . S
C1802 C1800 1.363 . S
C1802 C1803 1.370 . S
C1802 C1806 1.524 . S
C1803 C1795 1.503 1_556 S
C1803 C1802 1.370 . S
C1803 C1804 1.403 . S
C1804 C1803 1.403 . S
C1804 C1805 1.404 . S
C1804 C1807 1.539 . S
C1805 C1801 1.408 . S
C1805 C1804 1.404 . S
C1805 H1817 0.930 . S
C1806 C1802 1.524 . S
C1806 H1818 0.956 . S
C1806 H1819 0.961 . S
C1806 H1820 0.961 . S
C1807 C1804 1.539 . S
C1807 H1821 0.958 . S
C1807 H1822 0.961 . S
C1807 H1823 0.960 . S
H1808 C1792 0.931 . S
H1809 C1797 0.929 . S
H1810 C1798 0.960 1_556 S
H1811 C1798 0.962 . S
H1812 C1798 0.960 . S
H1813 C1799 0.961 . S
H1814 C1799 0.961 1_556 S
H1815 C1799 0.961 . S
H1816 C1800 0.931 . S
H1817 C1805 0.930 . S
H1818 C1806 0.956 . S
H1819 C1806 0.961 . S
H1820 C1806 0.961 . S
H1821 C1807 0.958 . S
H1822 C1807 0.961 . S
H1823 C1807 0.960 . S
C1824 C1825 1.391 . S
C1824 C1826 1.394 . S
C1824 H1840 0.931 . S
C1825 C1824 1.391 . S
C1825 C1829 1.376 . S
C1826 C1824 1.394 . S
C1826 C1827 1.369 . S
C1826 C1830 1.531 . S
C1827 C1826 1.369 . S
C1827 C1828 1.410 . S
C1827 C1835 1.503 1_554 S
C1828 C1827 1.410 . S
C1828 C1829 1.392 . S
C1828 C1831 1.511 . S
C1829 C1825 1.376 . S
C1829 C1828 1.392 . S
C1829 H1841 0.929 . S
C1830 C1826 1.531 . S
C1830 H1842 0.960 1_554 S
C1830 H1843 0.962 . S
C1830 H1844 0.960 . S
C1831 C1828 1.511 . S
C1831 H1845 0.961 . S
C1831 H1846 0.961 1_554 S
C1831 H1847 0.961 . S
C1832 C1833 1.370 . S
C1832 C1834 1.363 . S
C1832 H1848 0.931 . S
C1833 C1832 1.370 . S
C1833 C1837 1.408 . S
C1834 C1832 1.363 . S
C1834 C1835 1.370 . S
C1834 C1838 1.524 . S
C1835 C1827 1.503 1_556 S
C1835 C1834 1.370 . S
C1835 C1836 1.403 . S
C1836 C1835 1.403 . S
C1836 C1837 1.404 . S
C1836 C1839 1.539 . S
C1837 C1833 1.408 . S
C1837 C1836 1.404 . S
C1837 H1849 0.930 . S
C1838 C1834 1.524 . S
C1838 H1850 0.956 1_556 S
C1838 H1851 0.961 1_556 S
C1838 H1852 0.961 . S
C1839 C1836 1.539 . S
C1839 H1853 0.958 . S
C1839 H1854 0.961 . S
C1839 H1855 0.960 . S
H1840 C1824 0.931 . S
H1841 C1829 0.929 . S
H1842 C1830 0.960 1_556 S
H1843 C1830 0.962 . S
H1844 C1830 0.960 . S
H1845 C1831 0.961 . S
H1846 C1831 0.961 1_556 S
H1847 C1831 0.961 . S
H1848 C1832 0.931 . S
H1849 C1837 0.930 . S
H1850 C1838 0.956 1_554 S
H1851 C1838 0.961 1_554 S
H1852 C1838 0.961 . S
H1853 C1839 0.958 . S
H1854 C1839 0.961 . S
H1855 C1839 0.960 . S
C1856 C1857 1.391 . S
C1856 C1858 1.394 . S
C1856 H1872 0.931 . S
C1857 C1856 1.391 . S
C1857 C1861 1.376 . S
C1858 C1856 1.394 . S
C1858 C1859 1.369 . S
C1858 C1862 1.531 . S
C1859 C1858 1.369 . S
C1859 C1860 1.410 . S
C1859 C1867 1.503 1_554 S
C1860 C1859 1.410 . S
C1860 C1861 1.392 . S
C1860 C1863 1.511 . S
C1861 C1857 1.376 . S
C1861 C1860 1.392 . S
C1861 H1873 0.929 . S
C1862 C1858 1.531 . S
C1862 H1874 0.960 . S
C1862 H1875 0.962 . S
C1862 H1876 0.960 . S
C1863 C1860 1.511 . S
C1863 H1877 0.961 . S
C1863 H1878 0.961 . S
C1863 H1879 0.961 . S
C1864 C1865 1.370 . S
C1864 C1866 1.363 . S
C1864 H1880 0.931 . S
C1865 C1864 1.370 . S
C1865 C1869 1.408 . S
C1866 C1864 1.363 . S
C1866 C1867 1.370 . S
C1866 C1870 1.524 . S
C1867 C1859 1.503 1_556 S
C1867 C1866 1.370 . S
C1867 C1868 1.403 . S
C1868 C1867 1.403 . S
C1868 C1869 1.404 . S
C1868 C1871 1.539 . S
C1869 C1865 1.408 . S
C1869 C1868 1.404 . S
C1869 H1881 0.930 . S
C1870 C1866 1.524 . S
C1870 H1882 0.935 1_556 S
C1870 H1883 0.961 1_556 S
C1870 H1884 0.961 . S
C1871 C1868 1.539 . S
C1871 H1885 0.958 . S
C1871 H1886 0.961 . S
C1871 H1887 0.960 1_556 S
H1872 C1856 0.931 . S
H1873 C1861 0.929 . S
H1874 C1862 0.960 . S
H1875 C1862 0.962 . S
H1876 C1862 0.960 . S
H1877 C1863 0.961 . S
H1878 C1863 0.961 . S
H1879 C1863 0.961 . S
H1880 C1864 0.931 . S
H1881 C1869 0.930 . S
H1882 C1870 0.935 1_554 S
H1883 C1870 0.961 1_554 S
H1884 C1870 0.961 . S
H1885 C1871 0.958 . S
H1886 C1871 0.961 . S
H1887 C1871 0.960 1_554 S
C1888 C1889 1.391 . S
C1888 C1890 1.394 . S
C1888 H1904 0.931 . S
C1889 C1888 1.391 . S
C1889 C1893 1.376 . S
C1890 C1888 1.394 . S
C1890 C1891 1.369 . S
C1890 C1894 1.531 . S
C1891 C1890 1.369 . S
C1891 C1892 1.410 . S
C1891 C1899 1.503 1_554 S
C1892 C1891 1.410 . S
C1892 C1893 1.392 . S
C1892 C1895 1.511 . S
C1893 C1889 1.376 . S
C1893 C1892 1.392 . S
C1893 H1905 0.929 . S
C1894 C1890 1.531 . S
C1894 H1906 0.960 1_554 S
C1894 H1907 0.962 . S
C1894 H1908 0.960 . S
C1895 C1892 1.511 . S
C1895 H1909 0.961 . S
C1895 H1910 0.961 1_554 S
C1895 H1911 0.961 . S
C1896 C1897 1.370 . S
C1896 C1898 1.363 . S
C1896 H1912 0.931 . S
C1897 C1896 1.370 . S
C1897 C1901 1.408 . S
C1898 C1896 1.363 . S
C1898 C1899 1.370 . S
C1898 C1902 1.524 . S
C1899 C1891 1.503 1_556 S
C1899 C1898 1.370 . S
C1899 C1900 1.403 . S
C1900 C1899 1.403 . S
C1900 C1901 1.404 . S
C1900 C1903 1.539 . S
C1901 C1897 1.408 . S
C1901 C1900 1.404 . S
C1901 H1913 0.930 . S
C1902 C1898 1.524 . S
C1902 H1914 0.956 . S
C1902 H1915 0.961 1_556 S
C1902 H1916 0.961 . S
C1903 C1900 1.539 . S
C1903 H1917 0.958 . S
C1903 H1918 0.961 . S
C1903 H1919 0.987 . S
H1904 C1888 0.931 . S
H1905 C1893 0.929 . S
H1906 C1894 0.960 1_556 S
H1907 C1894 0.962 . S
H1908 C1894 0.960 . S
H1909 C1895 0.961 . S
H1910 C1895 0.961 1_556 S
H1911 C1895 0.961 . S
H1912 C1896 0.931 . S
H1913 C1901 0.930 . S
H1914 C1902 0.956 . S
H1915 C1902 0.961 1_554 S
H1916 C1902 0.961 . S
H1917 C1903 0.958 . S
H1918 C1903 0.961 . S
H1919 C1903 0.987 . S
C1920 C1921 1.391 . S
C1920 C1922 1.394 . S
C1920 H1936 0.931 . S
C1921 C1920 1.391 . S
C1921 C1925 1.376 . S
C1922 C1920 1.394 . S
C1922 C1923 1.369 . S
C1922 C1926 1.531 . S
C1923 C1922 1.369 . S
C1923 C1924 1.410 . S
C1923 C1931 1.503 1_556 S
C1924 C1923 1.410 . S
C1924 C1925 1.392 . S
C1924 C1927 1.511 . S
C1925 C1921 1.376 . S
C1925 C1924 1.392 . S
C1925 H1937 0.929 . S
C1926 C1922 1.531 . S
C1926 H1938 0.960 1_556 S
C1926 H1939 0.962 . S
C1926 H1940 0.960 . S
C1927 C1924 1.511 . S
C1927 H1941 0.961 . S
C1927 H1942 0.961 1_556 S
C1927 H1943 0.961 . S
C1928 C1929 1.370 . S
C1928 C1930 1.363 . S
C1928 H1944 0.931 . S
C1929 C1928 1.370 . S
C1929 C1933 1.408 . S
C1930 C1928 1.363 . S
C1930 C1931 1.370 . S
C1930 C1934 1.524 . S
C1931 C1923 1.503 1_554 S
C1931 C1930 1.370 . S
C1931 C1932 1.403 . S
C1932 C1931 1.403 . S
C1932 C1933 1.404 . S
C1932 C1935 1.539 . S
C1933 C1929 1.408 . S
C1933 C1932 1.404 . S
C1933 H1945 0.930 . S
C1934 C1930 1.524 . S
C1934 H1946 0.956 . S
C1934 H1947 0.961 . S
C1934 H1948 0.961 . S
C1935 C1932 1.539 . S
C1935 H1949 0.958 . S
C1935 H1950 0.961 . S
C1935 H1951 0.960 . S
H1936 C1920 0.931 . S
H1937 C1925 0.929 . S
H1938 C1926 0.960 1_554 S
H1939 C1926 0.962 . S
H1940 C1926 0.960 . S
H1941 C1927 0.961 . S
H1942 C1927 0.961 1_554 S
H1943 C1927 0.961 . S
H1944 C1928 0.931 . S
H1945 C1933 0.930 . S
H1946 C1934 0.956 . S
H1947 C1934 0.961 . S
H1948 C1934 0.961 . S
H1949 C1935 0.958 . S
H1950 C1935 0.961 . S
H1951 C1935 0.960 . S
C1952 C1953 1.391 . S
C1952 C1954 1.394 . S
C1952 H1968 0.931 . S
C1953 C1952 1.391 . S
C1953 C1957 1.376 . S
C1954 C1952 1.394 . S
C1954 C1955 1.369 . S
C1954 C1958 1.531 . S
C1955 C1954 1.369 . S
C1955 C1956 1.410 . S
C1955 C1963 1.503 1_556 S
C1956 C1955 1.410 . S
C1956 C1957 1.392 . S
C1956 C1959 1.511 . S
C1957 C1953 1.376 . S
C1957 C1956 1.392 . S
C1957 H1969 0.929 . S
C1958 C1954 1.531 . S
C1958 H1970 0.960 1_556 S
C1958 H1971 0.962 . S
C1958 H1972 0.960 . S
C1959 C1956 1.511 . S
C1959 H1973 0.961 . S
C1959 H1974 0.961 1_556 S
C1959 H1975 0.961 . S
C1960 C1961 1.370 . S
C1960 C1962 1.363 . S
C1960 H1976 0.931 . S
C1961 C1960 1.370 . S
C1961 C1965 1.408 . S
C1962 C1960 1.363 . S
C1962 C1963 1.370 . S
C1962 C1966 1.524 . S
C1963 C1955 1.503 1_554 S
C1963 C1962 1.370 . S
C1963 C1964 1.403 . S
C1964 C1963 1.403 . S
C1964 C1965 1.404 . S
C1964 C1967 1.539 . S
C1965 C1961 1.408 . S
C1965 C1964 1.404 . S
C1965 H1977 0.930 . S
C1966 C1962 1.524 . S
C1966 H1978 0.957 1_554 S
C1966 H1979 0.961 1_554 S
C1966 H1980 0.961 . S
C1967 C1964 1.539 . S
C1967 H1981 0.958 . S
C1967 H1982 0.961 . S
C1967 H1983 0.960 . S
H1968 C1952 0.931 . S
H1969 C1957 0.929 . S
H1970 C1958 0.960 1_554 S
H1971 C1958 0.962 . S
H1972 C1958 0.960 . S
H1973 C1959 0.961 . S
H1974 C1959 0.961 1_554 S
H1975 C1959 0.961 . S
H1976 C1960 0.931 . S
H1977 C1965 0.930 . S
H1978 C1966 0.957 1_556 S
H1979 C1966 0.961 1_556 S
H1980 C1966 0.961 . S
H1981 C1967 0.958 . S
H1982 C1967 0.961 . S
H1983 C1967 0.960 . S
C1984 C1985 1.391 . S
C1984 C1986 1.394 . S
C1984 H2000 0.931 . S
C1985 C1984 1.391 . S
C1985 C1989 1.376 . S
C1986 C1984 1.394 . S
C1986 C1987 1.369 . S
C1986 C1990 1.531 . S
C1987 C1986 1.369 . S
C1987 C1988 1.410 . S
C1987 C1995 1.503 . S
C1988 C1987 1.410 . S
C1988 C1989 1.392 . S
C1988 C1991 1.511 . S
C1989 C1985 1.376 . S
C1989 C1988 1.392 . S
C1989 H2001 0.929 . S
C1990 C1986 1.531 . S
C1990 H2002 0.960 . S
C1990 H2003 0.962 . S
C1990 H2004 0.960 . S
C1991 C1988 1.511 . S
C1991 H2005 0.961 . S
C1991 H2006 0.961 . S
C1991 H2007 0.961 . S
C1992 C1993 1.370 . S
C1992 C1994 1.363 . S
C1992 H2008 0.931 . S
C1993 C1992 1.370 . S
C1993 C1997 1.408 . S
C1994 C1992 1.363 . S
C1994 C1995 1.370 . S
C1994 C1998 1.524 . S
C1995 C1987 1.503 . S
C1995 C1994 1.370 . S
C1995 C1996 1.403 . S
C1996 C1995 1.403 . S
C1996 C1997 1.404 . S
C1996 C1999 1.539 . S
C1997 C1993 1.408 . S
C1997 C1996 1.404 . S
C1997 H2009 0.930 . S
C1998 C1994 1.524 . S
C1998 H2010 0.956 . S
C1998 H2011 0.961 . S
C1998 H2012 0.961 . S
C1999 C1996 1.539 . S
C1999 H2013 0.958 . S
C1999 H2014 0.961 . S
C1999 H2015 0.960 . S
H2000 C1984 0.931 . S
H2001 C1989 0.929 . S
H2002 C1990 0.960 . S
H2003 C1990 0.962 . S
H2004 C1990 0.960 . S
H2005 C1991 0.961 . S
H2006 C1991 0.961 . S
H2007 C1991 0.961 . S
H2008 C1992 0.931 . S
H2009 C1997 0.930 . S
H2010 C1998 0.956 . S
H2011 C1998 0.961 . S
H2012 C1998 0.961 . S
H2013 C1999 0.958 . S
H2014 C1999 0.961 . S
H2015 C1999 0.960 . S
C2016 C2017 1.391 . S
C2016 C2018 1.394 . S
C2016 H2032 0.931 . S
C2017 C2016 1.391 . S
C2017 C2021 1.376 . S
C2018 C2016 1.394 . S
C2018 C2019 1.369 . S
C2018 C2022 1.531 . S
C2019 C2018 1.369 . S
C2019 C2020 1.410 . S
C2019 C2027 1.503 . S
C2020 C2019 1.410 . S
C2020 C2021 1.392 . S
C2020 C2023 1.511 . S
C2021 C2017 1.376 . S
C2021 C2020 1.392 . S
C2021 H2033 0.929 . S
C2022 C2018 1.531 . S
C2022 H2034 0.960 . S
C2022 H2035 0.962 . S
C2022 H2036 0.960 . S
C2023 C2020 1.511 . S
C2023 H2037 0.961 . S
C2023 H2038 0.961 . S
C2023 H2039 0.961 . S
C2024 C2025 1.370 . S
C2024 C2026 1.363 . S
C2024 H2040 0.931 . S
C2025 C2024 1.370 . S
C2025 C2029 1.408 . S
C2026 C2024 1.363 . S
C2026 C2027 1.370 . S
C2026 C2030 1.524 . S
C2027 C2019 1.503 . S
C2027 C2026 1.370 . S
C2027 C2028 1.403 . S
C2028 C2027 1.403 . S
C2028 C2029 1.404 . S
C2028 C2031 1.539 . S
C2029 C2025 1.408 . S
C2029 C2028 1.404 . S
C2029 H2041 0.930 . S
C2030 C2026 1.524 . S
C2030 H2042 0.956 . S
C2030 H2043 0.961 . S
C2030 H2044 0.961 . S
C2031 C2028 1.539 . S
C2031 H2045 0.958 . S
C2031 H2046 0.961 . S
C2031 H2047 0.960 . S
H2032 C2016 0.931 . S
H2033 C2021 0.929 . S
H2034 C2022 0.960 . S
H2035 C2022 0.962 . S
H2036 C2022 0.960 . S
H2037 C2023 0.961 . S
H2038 C2023 0.961 . S
H2039 C2023 0.961 . S
H2040 C2024 0.931 . S
H2041 C2029 0.930 . S
H2042 C2030 0.956 . S
H2043 C2030 0.961 . S
H2044 C2030 0.961 . S
H2045 C2031 0.958 . S
H2046 C2031 0.961 . S
H2047 C2031 0.960 . S
C2048 C2049 1.391 . S
C2048 C2050 1.394 . S
C2048 H2064 0.931 . S
C2049 C2048 1.391 . S
C2049 C2053 1.376 . S
C2050 C2048 1.394 . S
C2050 C2051 1.369 . S
C2050 C2054 1.531 . S
C2051 C2050 1.369 . S
C2051 C2052 1.410 . S
C2051 C2059 1.503 . S
C2052 C2051 1.410 . S
C2052 C2053 1.392 . S
C2052 C2055 1.511 . S
C2053 C2049 1.376 . S
C2053 C2052 1.392 . S
C2053 H2065 0.929 . S
C2054 C2050 1.531 . S
C2054 H2066 0.960 . S
C2054 H2067 0.962 . S
C2054 H2068 0.960 . S
C2055 C2052 1.511 . S
C2055 H2069 0.961 . S
C2055 H2070 0.961 . S
C2055 H2071 0.961 . S
C2056 C2057 1.370 . S
C2056 C2058 1.363 . S
C2056 H2072 0.931 . S
C2057 C2056 1.370 . S
C2057 C2061 1.408 . S
C2058 C2056 1.363 . S
C2058 C2059 1.370 . S
C2058 C2062 1.524 . S
C2059 C2051 1.503 . S
C2059 C2058 1.370 . S
C2059 C2060 1.403 . S
C2060 C2059 1.403 . S
C2060 C2061 1.404 . S
C2060 C2063 1.539 . S
C2061 C2057 1.408 . S
C2061 C2060 1.404 . S
C2061 H2073 0.930 . S
C2062 C2058 1.524 . S
C2062 H2074 0.956 . S
C2062 H2075 0.961 . S
C2062 H2076 0.961 . S
C2063 C2060 1.539 . S
C2063 H2077 0.958 . S
C2063 H2078 0.961 . S
C2063 H2079 0.960 . S
H2064 C2048 0.931 . S
H2065 C2053 0.929 . S
H2066 C2054 0.960 . S
H2067 C2054 0.962 . S
H2068 C2054 0.960 . S
H2069 C2055 0.961 . S
H2070 C2055 0.961 . S
H2071 C2055 0.961 . S
H2072 C2056 0.931 . S
H2073 C2061 0.930 . S
H2074 C2062 0.956 . S
H2075 C2062 0.961 . S
H2076 C2062 0.961 . S
H2077 C2063 0.958 . S
H2078 C2063 0.961 . S
H2079 C2063 0.960 . S
C2080 C2081 1.391 . S
C2080 C2082 1.394 . S
C2080 H2096 0.931 . S
C2081 C2080 1.391 . S
C2081 C2085 1.376 . S
C2082 C2080 1.394 . S
C2082 C2083 1.369 . S
C2082 C2086 1.531 . S
C2083 C2082 1.369 . S
C2083 C2084 1.410 . S
C2083 C2091 1.503 . S
C2084 C2083 1.410 . S
C2084 C2085 1.392 . S
C2084 C2087 1.511 . S
C2085 C2081 1.376 . S
C2085 C2084 1.392 . S
C2085 H2097 0.929 . S
C2086 C2082 1.531 . S
C2086 H2098 0.960 . S
C2086 H2099 0.962 . S
C2086 H2100 0.960 . S
C2087 C2084 1.511 . S
C2087 H2101 0.961 . S
C2087 H2102 0.961 . S
C2087 H2103 0.961 . S
C2088 C2089 1.370 . S
C2088 C2090 1.363 . S
C2088 H2104 0.931 . S
C2089 C2088 1.370 . S
C2089 C2093 1.408 . S
C2090 C2088 1.363 . S
C2090 C2091 1.370 . S
C2090 C2094 1.524 . S
C2091 C2083 1.503 . S
C2091 C2090 1.370 . S
C2091 C2092 1.403 . S
C2092 C2091 1.403 . S
C2092 C2093 1.404 . S
C2092 C2095 1.539 . S
C2093 C2089 1.408 . S
C2093 C2092 1.404 . S
C2093 H2105 0.930 . S
C2094 C2090 1.524 . S
C2094 H2106 0.956 . S
C2094 H2107 0.961 . S
C2094 H2108 0.961 . S
C2095 C2092 1.539 . S
C2095 H2109 0.958 . S
C2095 H2110 0.961 . S
C2095 H2111 0.960 . S
H2096 C2080 0.931 . S
H2097 C2085 0.929 . S
H2098 C2086 0.960 . S
H2099 C2086 0.962 . S
H2100 C2086 0.960 . S
H2101 C2087 0.961 . S
H2102 C2087 0.961 . S
H2103 C2087 0.961 . S
H2104 C2088 0.931 . S
H2105 C2093 0.930 . S
H2106 C2094 0.956 . S
H2107 C2094 0.961 . S
H2108 C2094 0.961 . S
H2109 C2095 0.958 . S
H2110 C2095 0.961 . S
H2111 C2095 0.960 . S
C2112 C2113 1.391 . S
C2112 C2114 1.394 . S
C2112 H2128 0.931 . S
C2113 C2112 1.391 . S
C2113 C2117 1.376 . S
C2114 C2112 1.394 . S
C2114 C2115 1.369 . S
C2114 C2118 1.531 . S
C2115 C2114 1.369 . S
C2115 C2116 1.410 . S
C2115 C2123 1.503 . S
C2116 C2115 1.410 . S
C2116 C2117 1.392 . S
C2116 C2119 1.511 . S
C2117 C2113 1.376 . S
C2117 C2116 1.392 . S
C2117 H2129 0.929 . S
C2118 C2114 1.531 . S
C2118 H2130 0.960 . S
C2118 H2131 0.962 . S
C2118 H2132 0.960 . S
C2119 C2116 1.511 . S
C2119 H2133 0.961 . S
C2119 H2134 0.961 . S
C2119 H2135 0.961 . S
C2120 C2121 1.370 . S
C2120 C2122 1.363 . S
C2120 H2136 0.931 . S
C2121 C2120 1.370 . S
C2121 C2125 1.408 . S
C2122 C2120 1.363 . S
C2122 C2123 1.370 . S
C2122 C2126 1.524 . S
C2123 C2115 1.503 . S
C2123 C2122 1.370 . S
C2123 C2124 1.403 . S
C2124 C2123 1.403 . S
C2124 C2125 1.404 . S
C2124 C2127 1.539 . S
C2125 C2121 1.408 . S
C2125 C2124 1.404 . S
C2125 H2137 0.930 . S
C2126 C2122 1.524 . S
C2126 H2138 0.956 . S
C2126 H2139 0.961 . S
C2126 H2140 0.961 . S
C2127 C2124 1.539 . S
C2127 H2141 0.958 . S
C2127 H2142 0.961 . S
C2127 H2143 0.960 . S
H2128 C2112 0.931 . S
H2129 C2117 0.929 . S
H2130 C2118 0.960 . S
H2131 C2118 0.962 . S
H2132 C2118 0.960 . S
H2133 C2119 0.961 . S
H2134 C2119 0.961 . S
H2135 C2119 0.961 . S
H2136 C2120 0.931 . S
H2137 C2125 0.930 . S
H2138 C2126 0.956 . S
H2139 C2126 0.961 . S
H2140 C2126 0.961 . S
H2141 C2127 0.958 . S
H2142 C2127 0.961 . S
H2143 C2127 0.960 . S
C2144 C2145 1.391 . S
C2144 C2146 1.394 . S
C2144 H2160 0.931 . S
C2145 C2144 1.391 . S
C2145 C2149 1.376 . S
C2146 C2144 1.394 . S
C2146 C2147 1.369 . S
C2146 C2150 1.531 . S
C2147 C2146 1.369 . S
C2147 C2148 1.410 . S
C2147 C2155 1.503 . S
C2148 C2147 1.410 . S
C2148 C2149 1.392 . S
C2148 C2151 1.511 . S
C2149 C2145 1.376 . S
C2149 C2148 1.392 . S
C2149 H2161 0.929 . S
C2150 C2146 1.531 . S
C2150 H2162 0.960 . S
C2150 H2163 0.962 . S
C2150 H2164 0.960 . S
C2151 C2148 1.511 . S
C2151 H2165 0.961 . S
C2151 H2166 0.961 . S
C2151 H2167 0.961 . S
C2152 C2153 1.370 . S
C2152 C2154 1.363 . S
C2152 H2168 0.931 . S
C2153 C2152 1.370 . S
C2153 C2157 1.408 . S
C2154 C2152 1.363 . S
C2154 C2155 1.370 . S
C2154 C2158 1.524 . S
C2155 C2147 1.503 . S
C2155 C2154 1.370 . S
C2155 C2156 1.403 . S
C2156 C2155 1.403 . S
C2156 C2157 1.404 . S
C2156 C2159 1.539 . S
C2157 C2153 1.408 . S
C2157 C2156 1.404 . S
C2157 H2169 0.930 . S
C2158 C2154 1.524 . S
C2158 H2170 0.956 . S
C2158 H2171 0.961 . S
C2158 H2172 0.961 . S
C2159 C2156 1.539 . S
C2159 H2173 0.958 . S
C2159 H2174 0.961 . S
C2159 H2175 0.960 . S
H2160 C2144 0.931 . S
H2161 C2149 0.929 . S
H2162 C2150 0.960 . S
H2163 C2150 0.962 . S
H2164 C2150 0.960 . S
H2165 C2151 0.961 . S
H2166 C2151 0.961 . S
H2167 C2151 0.961 . S
H2168 C2152 0.931 . S
H2169 C2157 0.930 . S
H2170 C2158 0.956 . S
H2171 C2158 0.961 . S
H2172 C2158 0.961 . S
H2173 C2159 0.958 . S
H2174 C2159 0.961 . S
H2175 C2159 0.960 . S
C2176 C2177 1.391 . S
C2176 C2178 1.394 . S
C2176 H2192 0.931 . S
C2177 C2176 1.391 . S
C2177 C2181 1.376 . S
C2178 C2176 1.394 . S
C2178 C2179 1.369 . S
C2178 C2182 1.531 . S
C2179 C2178 1.369 . S
C2179 C2180 1.410 . S
C2179 C2187 1.503 . S
C2180 C2179 1.410 . S
C2180 C2181 1.392 . S
C2180 C2183 1.511 . S
C2181 C2177 1.376 . S
C2181 C2180 1.392 . S
C2181 H2193 0.929 . S
C2182 C2178 1.531 . S
C2182 H2194 0.960 . S
C2182 H2195 0.962 . S
C2182 H2196 0.960 . S
C2183 C2180 1.511 . S
C2183 H2197 0.961 . S
C2183 H2198 0.961 . S
C2183 H2199 0.961 . S
C2184 C2185 1.370 . S
C2184 C2186 1.363 . S
C2184 H2200 0.931 . S
C2185 C2184 1.370 . S
C2185 C2189 1.408 . S
C2186 C2184 1.363 . S
C2186 C2187 1.370 . S
C2186 C2190 1.524 . S
C2187 C2179 1.503 . S
C2187 C2186 1.370 . S
C2187 C2188 1.403 . S
C2188 C2187 1.403 . S
C2188 C2189 1.404 . S
C2188 C2191 1.539 . S
C2189 C2185 1.408 . S
C2189 C2188 1.404 . S
C2189 H2201 0.930 . S
C2190 C2186 1.524 . S
C2190 H2202 0.956 . S
C2190 H2203 0.961 . S
C2190 H2204 0.961 . S
C2191 C2188 1.539 . S
C2191 H2205 0.958 . S
C2191 H2206 0.961 . S
C2191 H2207 0.960 . S
H2192 C2176 0.931 . S
H2193 C2181 0.929 . S
H2194 C2182 0.960 . S
H2195 C2182 0.962 . S
H2196 C2182 0.960 . S
H2197 C2183 0.961 . S
H2198 C2183 0.961 . S
H2199 C2183 0.961 . S
H2200 C2184 0.931 . S
H2201 C2189 0.930 . S
H2202 C2190 0.956 . S
H2203 C2190 0.961 . S
H2204 C2190 0.961 . S
H2205 C2191 0.958 . S
H2206 C2191 0.961 . S
H2207 C2191 0.960 . S
C2208 C2209 1.391 . S
C2208 C2210 1.394 . S
C2208 H2224 0.931 . S
C2209 C2208 1.391 . S
C2209 C2213 1.376 . S
C2210 C2208 1.394 . S
C2210 C2211 1.369 . S
C2210 C2214 1.531 . S
C2211 C2210 1.369 . S
C2211 C2212 1.410 . S
C2211 C2219 1.503 . S
C2212 C2211 1.410 . S
C2212 C2213 1.392 . S
C2212 C2215 1.511 . S
C2213 C2209 1.376 . S
C2213 C2212 1.392 . S
C2213 H2225 0.929 . S
C2214 C2210 1.531 . S
C2214 H2226 0.960 . S
C2214 H2227 0.962 . S
C2214 H2228 0.960 . S
C2215 C2212 1.511 . S
C2215 H2229 0.961 . S
C2215 H2230 0.961 . S
C2215 H2231 0.961 . S
C2216 C2217 1.370 . S
C2216 C2218 1.363 . S
C2216 H2232 0.931 . S
C2217 C2216 1.370 . S
C2217 C2221 1.408 . S
C2218 C2216 1.363 . S
C2218 C2219 1.370 . S
C2218 C2222 1.524 . S
C2219 C2211 1.503 . S
C2219 C2218 1.370 . S
C2219 C2220 1.403 . S
C2220 C2219 1.403 . S
C2220 C2221 1.404 . S
C2220 C2223 1.539 . S
C2221 C2217 1.408 . S
C2221 C2220 1.404 . S
C2221 H2233 0.930 . S
C2222 C2218 1.524 . S
C2222 H2234 0.956 . S
C2222 H2235 0.961 . S
C2222 H2236 0.961 . S
C2223 C2220 1.539 . S
C2223 H2237 0.958 . S
C2223 H2238 0.961 . S
C2223 H2239 0.960 . S
H2224 C2208 0.931 . S
H2225 C2213 0.929 . S
H2226 C2214 0.960 . S
H2227 C2214 0.962 . S
H2228 C2214 0.960 . S
H2229 C2215 0.961 . S
H2230 C2215 0.961 . S
H2231 C2215 0.961 . S
H2232 C2216 0.931 . S
H2233 C2221 0.930 . S
H2234 C2222 0.956 . S
H2235 C2222 0.961 . S
H2236 C2222 0.961 . S
H2237 C2223 0.958 . S
H2238 C2223 0.961 . S
H2239 C2223 0.960 . S
C2240 C2241 1.391 . S
C2240 C2242 1.394 . S
C2240 H2256 0.931 . S
C2241 C2240 1.391 . S
C2241 C2245 1.376 . S
C2242 C2240 1.394 . S
C2242 C2243 1.369 . S
C2242 C2246 1.531 . S
C2243 C2242 1.369 . S
C2243 C2244 1.410 . S
C2243 C2251 1.503 . S
C2244 C2243 1.410 . S
C2244 C2245 1.392 . S
C2244 C2247 1.511 . S
C2245 C2241 1.376 . S
C2245 C2244 1.392 . S
C2245 H2257 0.929 . S
C2246 C2242 1.531 . S
C2246 H2258 0.960 . S
C2246 H2259 0.962 . S
C2246 H2260 0.960 . S
C2247 C2244 1.511 . S
C2247 H2261 0.961 . S
C2247 H2262 0.961 . S
C2247 H2263 0.961 . S
C2248 C2249 1.370 . S
C2248 C2250 1.363 . S
C2248 H2264 0.931 . S
C2249 C2248 1.370 . S
C2249 C2253 1.408 . S
C2250 C2248 1.363 . S
C2250 C2251 1.370 . S
C2250 C2254 1.524 . S
C2251 C2243 1.503 . S
C2251 C2250 1.370 . S
C2251 C2252 1.403 . S
C2252 C2251 1.403 . S
C2252 C2253 1.404 . S
C2252 C2255 1.539 . S
C2253 C2249 1.408 . S
C2253 C2252 1.404 . S
C2253 H2265 0.930 . S
C2254 C2250 1.524 . S
C2254 H2266 0.956 . S
C2254 H2267 0.961 . S
C2254 H2268 0.961 . S
C2255 C2252 1.539 . S
C2255 H2269 0.958 . S
C2255 H2270 0.961 . S
C2255 H2271 0.960 . S
H2256 C2240 0.931 . S
H2257 C2245 0.929 . S
H2258 C2246 0.960 . S
H2259 C2246 0.962 . S
H2260 C2246 0.960 . S
H2261 C2247 0.961 . S
H2262 C2247 0.961 . S
H2263 C2247 0.961 . S
H2264 C2248 0.931 . S
H2265 C2253 0.930 . S
H2266 C2254 0.956 . S
H2267 C2254 0.961 . S
H2268 C2254 0.961 . S
H2269 C2255 0.958 . S
H2270 C2255 0.961 . S
H2271 C2255 0.960 . S
C2272 C2273 1.391 . S
C2272 C2274 1.394 . S
C2272 H2288 0.931 . S
C2273 C2272 1.391 . S
C2273 C2277 1.376 . S
C2274 C2272 1.394 . S
C2274 C2275 1.369 . S
C2274 C2278 1.531 . S
C2275 C2274 1.369 . S
C2275 C2276 1.410 . S
C2275 C2283 1.503 . S
C2276 C2275 1.410 . S
C2276 C2277 1.392 . S
C2276 C2279 1.511 . S
C2277 C2273 1.376 . S
C2277 C2276 1.392 . S
C2277 H2289 0.929 . S
C2278 C2274 1.531 . S
C2278 H2290 0.960 . S
C2278 H2291 0.962 . S
C2278 H2292 0.960 . S
C2279 C2276 1.511 . S
C2279 H2293 0.961 . S
C2279 H2294 0.961 . S
C2279 H2295 0.961 . S
C2280 C2281 1.370 . S
C2280 C2282 1.363 . S
C2280 H2296 0.931 . S
C2281 C2280 1.370 . S
C2281 C2285 1.408 . S
C2282 C2280 1.363 . S
C2282 C2283 1.370 . S
C2282 C2286 1.524 . S
C2283 C2275 1.503 . S
C2283 C2282 1.370 . S
C2283 C2284 1.403 . S
C2284 C2283 1.403 . S
C2284 C2285 1.404 . S
C2284 C2287 1.539 . S
C2285 C2281 1.408 . S
C2285 C2284 1.404 . S
C2285 H2297 0.930 . S
C2286 C2282 1.524 . S
C2286 H2298 0.956 . S
C2286 H2299 0.961 . S
C2286 H2300 0.961 . S
C2287 C2284 1.539 . S
C2287 H2301 0.958 . S
C2287 H2302 0.961 . S
C2287 H2303 0.960 . S
H2288 C2272 0.931 . S
H2289 C2277 0.929 . S
H2290 C2278 0.960 . S
H2291 C2278 0.962 . S
H2292 C2278 0.960 . S
H2293 C2279 0.961 . S
H2294 C2279 0.961 . S
H2295 C2279 0.961 . S
H2296 C2280 0.931 . S
H2297 C2285 0.930 . S
H2298 C2286 0.956 . S
H2299 C2286 0.961 . S
H2300 C2286 0.961 . S
H2301 C2287 0.958 . S
H2302 C2287 0.961 . S
H2303 C2287 0.960 . S
C2304 C2305 1.391 . S
C2304 C2306 1.394 . S
C2304 H2320 0.931 . S
C2305 C2304 1.391 . S
C2305 C2309 1.376 . S
C2306 C2304 1.394 . S
C2306 C2307 1.369 . S
C2306 C2310 1.531 . S
C2307 C2306 1.369 . S
C2307 C2308 1.410 . S
C2307 C2315 1.503 . S
C2308 C2307 1.410 . S
C2308 C2309 1.392 . S
C2308 C2311 1.511 . S
C2309 C2305 1.376 . S
C2309 C2308 1.392 . S
C2309 H2321 0.929 . S
C2310 C2306 1.531 . S
C2310 H2322 0.960 . S
C2310 H2323 0.962 . S
C2310 H2324 0.960 . S
C2311 C2308 1.511 . S
C2311 H2325 0.961 . S
C2311 H2326 0.961 . S
C2311 H2327 0.961 . S
C2312 C2313 1.370 . S
C2312 C2314 1.363 . S
C2312 H2328 0.931 . S
C2313 C2312 1.370 . S
C2313 C2317 1.408 . S
C2314 C2312 1.363 . S
C2314 C2315 1.370 . S
C2314 C2318 1.524 . S
C2315 C2307 1.503 . S
C2315 C2314 1.370 . S
C2315 C2316 1.403 . S
C2316 C2315 1.403 . S
C2316 C2317 1.404 . S
C2316 C2319 1.539 . S
C2317 C2313 1.408 . S
C2317 C2316 1.404 . S
C2317 H2329 0.930 . S
C2318 C2314 1.524 . S
C2318 H2330 0.956 . S
C2318 H2331 0.961 . S
C2318 H2332 0.961 . S
C2319 C2316 1.539 . S
C2319 H2333 0.958 . S
C2319 H2334 0.961 . S
C2319 H2335 0.960 . S
H2320 C2304 0.931 . S
H2321 C2309 0.929 . S
H2322 C2310 0.960 . S
H2323 C2310 0.962 . S
H2324 C2310 0.960 . S
H2325 C2311 0.961 . S
H2326 C2311 0.961 . S
H2327 C2311 0.961 . S
H2328 C2312 0.931 . S
H2329 C2317 0.930 . S
H2330 C2318 0.956 . S
H2331 C2318 0.961 . S
H2332 C2318 0.961 . S
H2333 C2319 0.958 . S
H2334 C2319 0.961 . S
H2335 C2319 0.960 . S
C2336 C2337 1.391 . S
C2336 C2338 1.394 . S
C2336 H2352 0.931 . S
C2337 C2336 1.391 . S
C2337 C2341 1.376 . S
C2338 C2336 1.394 . S
C2338 C2339 1.369 . S
C2338 C2342 1.531 . S
C2339 C2338 1.369 . S
C2339 C2340 1.410 . S
C2339 C2347 1.503 . S
C2340 C2339 1.410 . S
C2340 C2341 1.392 . S
C2340 C2343 1.511 . S
C2341 C2337 1.376 . S
C2341 C2340 1.392 . S
C2341 H2353 0.929 . S
C2342 C2338 1.531 . S
C2342 H2354 0.960 . S
C2342 H2355 0.962 . S
C2342 H2356 0.960 . S
C2343 C2340 1.511 . S
C2343 H2357 0.961 . S
C2343 H2358 0.961 . S
C2343 H2359 0.961 . S
C2344 C2345 1.370 . S
C2344 C2346 1.363 . S
C2344 H2360 0.931 . S
C2345 C2344 1.370 . S
C2345 C2349 1.408 . S
C2346 C2344 1.363 . S
C2346 C2347 1.370 . S
C2346 C2350 1.524 . S
C2347 C2339 1.503 . S
C2347 C2346 1.370 . S
C2347 C2348 1.403 . S
C2348 C2347 1.403 . S
C2348 C2349 1.404 . S
C2348 C2351 1.539 . S
C2349 C2345 1.408 . S
C2349 C2348 1.404 . S
C2349 H2361 0.930 . S
C2350 C2346 1.524 . S
C2350 H2362 0.956 . S
C2350 H2363 0.961 . S
C2350 H2364 0.961 . S
C2351 C2348 1.539 . S
C2351 H2365 0.958 . S
C2351 H2366 0.961 . S
C2351 H2367 0.960 . S
H2352 C2336 0.931 . S
H2353 C2341 0.929 . S
H2354 C2342 0.960 . S
H2355 C2342 0.962 . S
H2356 C2342 0.960 . S
H2357 C2343 0.961 . S
H2358 C2343 0.961 . S
H2359 C2343 0.961 . S
H2360 C2344 0.931 . S
H2361 C2349 0.930 . S
H2362 C2350 0.956 . S
H2363 C2350 0.961 . S
H2364 C2350 0.961 . S
H2365 C2351 0.958 . S
H2366 C2351 0.961 . S
H2367 C2351 0.960 . S
C2368 C2369 1.391 . S
C2368 C2370 1.394 . S
C2368 H2384 0.931 . S
C2369 C2368 1.391 . S
C2369 C2373 1.376 . S
C2370 C2368 1.394 . S
C2370 C2371 1.369 . S
C2370 C2374 1.531 . S
C2371 C2370 1.369 . S
C2371 C2372 1.410 . S
C2371 C2379 1.503 . S
C2372 C2371 1.410 . S
C2372 C2373 1.392 . S
C2372 C2375 1.511 . S
C2373 C2369 1.376 . S
C2373 C2372 1.392 . S
C2373 H2385 0.929 . S
C2374 C2370 1.531 . S
C2374 H2386 0.960 . S
C2374 H2387 0.962 . S
C2374 H2388 0.960 . S
C2375 C2372 1.511 . S
C2375 H2389 0.961 . S
C2375 H2390 0.961 . S
C2375 H2391 0.961 . S
C2376 C2377 1.370 . S
C2376 C2378 1.363 . S
C2376 H2392 0.931 . S
C2377 C2376 1.370 . S
C2377 C2381 1.408 . S
C2378 C2376 1.363 . S
C2378 C2379 1.370 . S
C2378 C2382 1.524 . S
C2379 C2371 1.503 . S
C2379 C2378 1.370 . S
C2379 C2380 1.403 . S
C2380 C2379 1.403 . S
C2380 C2381 1.404 . S
C2380 C2383 1.539 . S
C2381 C2377 1.408 . S
C2381 C2380 1.404 . S
C2381 H2393 0.930 . S
C2382 C2378 1.524 . S
C2382 H2394 0.956 . S
C2382 H2395 0.961 . S
C2382 H2396 0.961 . S
C2383 C2380 1.539 . S
C2383 H2397 0.958 . S
C2383 H2398 0.961 . S
C2383 H2399 0.960 . S
H2384 C2368 0.931 . S
H2385 C2373 0.929 . S
H2386 C2374 0.960 . S
H2387 C2374 0.962 . S
H2388 C2374 0.960 . S
H2389 C2375 0.961 . S
H2390 C2375 0.961 . S
H2391 C2375 0.961 . S
H2392 C2376 0.931 . S
H2393 C2381 0.930 . S
H2394 C2382 0.956 . S
H2395 C2382 0.961 . S
H2396 C2382 0.961 . S
H2397 C2383 0.958 . S
H2398 C2383 0.961 . S
H2399 C2383 0.960 . S
C2400 C2401 1.391 . S
C2400 C2402 1.394 . S
C2400 H2416 0.931 . S
C2401 C2400 1.391 . S
C2401 C2405 1.376 . S
C2402 C2400 1.394 . S
C2402 C2403 1.369 . S
C2402 C2406 1.531 . S
C2403 C2402 1.369 . S
C2403 C2404 1.410 . S
C2403 C2411 1.503 . S
C2404 C2403 1.410 . S
C2404 C2405 1.392 . S
C2404 C2407 1.511 . S
C2405 C2401 1.376 . S
C2405 C2404 1.392 . S
C2405 H2417 0.929 . S
C2406 C2402 1.531 . S
C2406 H2418 0.960 . S
C2406 H2419 0.962 . S
C2406 H2420 0.960 . S
C2407 C2404 1.511 . S
C2407 H2421 0.961 . S
C2407 H2422 0.961 . S
C2407 H2423 0.961 . S
C2408 C2409 1.370 . S
C2408 C2410 1.363 . S
C2408 H2424 0.931 . S
C2409 C2408 1.370 . S
C2409 C2413 1.408 . S
C2410 C2408 1.363 . S
C2410 C2411 1.370 . S
C2410 C2414 1.524 . S
C2411 C2403 1.503 . S
C2411 C2410 1.370 . S
C2411 C2412 1.403 . S
C2412 C2411 1.403 . S
C2412 C2413 1.404 . S
C2412 C2415 1.539 . S
C2413 C2409 1.408 . S
C2413 C2412 1.404 . S
C2413 H2425 0.930 . S
C2414 C2410 1.524 . S
C2414 H2426 0.956 . S
C2414 H2427 0.961 . S
C2414 H2428 0.961 . S
C2415 C2412 1.539 . S
C2415 H2429 0.958 . S
C2415 H2430 0.961 . S
C2415 H2431 0.960 . S
H2416 C2400 0.931 . S
H2417 C2405 0.929 . S
H2418 C2406 0.960 . S
H2419 C2406 0.962 . S
H2420 C2406 0.960 . S
H2421 C2407 0.961 . S
H2422 C2407 0.961 . S
H2423 C2407 0.961 . S
H2424 C2408 0.931 . S
H2425 C2413 0.930 . S
H2426 C2414 0.956 . S
H2427 C2414 0.961 . S
H2428 C2414 0.961 . S
H2429 C2415 0.958 . S
H2430 C2415 0.961 . S
H2431 C2415 0.960 . S
C2432 C2433 1.391 . S
C2432 C2434 1.394 . S
C2432 H2448 0.931 . S
C2433 C2432 1.391 . S
C2433 C2437 1.376 . S
C2434 C2432 1.394 . S
C2434 C2435 1.369 . S
C2434 C2438 1.531 . S
C2435 C2434 1.369 . S
C2435 C2436 1.410 . S
C2435 C2443 1.503 . S
C2436 C2435 1.410 . S
C2436 C2437 1.392 . S
C2436 C2439 1.511 . S
C2437 C2433 1.376 . S
C2437 C2436 1.392 . S
C2437 H2449 0.929 . S
C2438 C2434 1.531 . S
C2438 H2450 0.960 . S
C2438 H2451 0.962 . S
C2438 H2452 0.960 . S
C2439 C2436 1.511 . S
C2439 H2453 0.961 . S
C2439 H2454 0.961 . S
C2439 H2455 0.961 . S
C2440 C2441 1.370 . S
C2440 C2442 1.363 . S
C2440 H2456 0.931 . S
C2441 C2440 1.370 . S
C2441 C2445 1.408 . S
C2442 C2440 1.363 . S
C2442 C2443 1.370 . S
C2442 C2446 1.524 . S
C2443 C2435 1.503 . S
C2443 C2442 1.370 . S
C2443 C2444 1.403 . S
C2444 C2443 1.403 . S
C2444 C2445 1.404 . S
C2444 C2447 1.539 . S
C2445 C2441 1.408 . S
C2445 C2444 1.404 . S
C2445 H2457 0.930 . S
C2446 C2442 1.524 . S
C2446 H2458 0.956 . S
C2446 H2459 0.961 . S
C2446 H2460 0.961 . S
C2447 C2444 1.539 . S
C2447 H2461 0.958 . S
C2447 H2462 0.961 . S
C2447 H2463 0.960 . S
H2448 C2432 0.931 . S
H2449 C2437 0.929 . S
H2450 C2438 0.960 . S
H2451 C2438 0.962 . S
H2452 C2438 0.960 . S
H2453 C2439 0.961 . S
H2454 C2439 0.961 . S
H2455 C2439 0.961 . S
H2456 C2440 0.931 . S
H2457 C2445 0.930 . S
H2458 C2446 0.956 . S
H2459 C2446 0.961 . S
H2460 C2446 0.961 . S
H2461 C2447 0.958 . S
H2462 C2447 0.961 . S
H2463 C2447 0.960 . S
C2464 C2465 1.391 . S
C2464 C2466 1.394 . S
C2464 H2480 0.931 . S
C2465 C2464 1.391 . S
C2465 C2469 1.376 . S
C2466 C2464 1.394 . S
C2466 C2467 1.369 . S
C2466 C2470 1.531 . S
C2467 C2466 1.369 . S
C2467 C2468 1.410 . S
C2467 C2475 1.503 . S
C2468 C2467 1.410 . S
C2468 C2469 1.392 . S
C2468 C2471 1.511 . S
C2469 C2465 1.376 . S
C2469 C2468 1.392 . S
C2469 H2481 0.929 . S
C2470 C2466 1.531 . S
C2470 H2482 0.960 . S
C2470 H2483 0.962 . S
C2470 H2484 0.960 . S
C2471 C2468 1.511 . S
C2471 H2485 0.961 . S
C2471 H2486 0.961 . S
C2471 H2487 0.961 . S
C2472 C2473 1.370 . S
C2472 C2474 1.363 . S
C2472 H2488 0.931 . S
C2473 C2472 1.370 . S
C2473 C2477 1.408 . S
C2474 C2472 1.363 . S
C2474 C2475 1.370 . S
C2474 C2478 1.524 . S
C2475 C2467 1.503 . S
C2475 C2474 1.370 . S
C2475 C2476 1.403 . S
C2476 C2475 1.403 . S
C2476 C2477 1.404 . S
C2476 C2479 1.539 . S
C2477 C2473 1.408 . S
C2477 C2476 1.404 . S
C2477 H2489 0.930 . S
C2478 C2474 1.524 . S
C2478 H2490 0.956 . S
C2478 H2491 0.961 . S
C2478 H2492 0.961 . S
C2479 C2476 1.539 . S
C2479 H2493 0.958 . S
C2479 H2494 0.961 . S
C2479 H2495 0.960 . S
H2480 C2464 0.931 . S
H2481 C2469 0.929 . S
H2482 C2470 0.960 . S
H2483 C2470 0.962 . S
H2484 C2470 0.960 . S
H2485 C2471 0.961 . S
H2486 C2471 0.961 . S
H2487 C2471 0.961 . S
H2488 C2472 0.931 . S
H2489 C2477 0.930 . S
H2490 C2478 0.956 . S
H2491 C2478 0.961 . S
H2492 C2478 0.961 . S
H2493 C2479 0.958 . S
H2494 C2479 0.961 . S
H2495 C2479 0.960 . S
C449 C215 1.450 . S
C457 C5 1.456 . S
C481 C19 1.453 . S
C489 C177 1.458 . S
C513 C33 1.449 . S
C521 C187 1.457 . S
C545 C205 1.457 . S
C553 C47 1.460 . S
C577 C61 1.460 . S
C585 C131 1.459 . S
C609 C75 1.464 . S
C617 C149 1.456 . S
C641 C159 1.458 . S
C649 C89 1.457 . S
C673 C121 1.455 . S
C681 C103 1.459 . S
C705 C229 1.446 . S
C713 C439 1.456 . S
C737 C243 1.460 . S
C745 C401 1.453 . S
C769 C257 1.448 . S
C777 C411 1.457 . S
C801 C429 1.454 . S
C809 C271 1.464 . S
C833 C285 1.459 . S
C841 C355 1.460 . S
C865 C299 1.465 . S
C873 C373 1.459 . S
C897 C383 1.452 . S
C905 C313 1.454 . S
C929 C327 1.465 . S
C937 C345 1.459 . S
C961 C168 1.372 . S
C969 C11 1.382 . S
C993 C25 1.392 . S
C1001 C193 1.392 . S
C1025 C196 1.372 . S
C1033 C39 1.382 . S
C1057 C53 1.376 . S
C1065 C221 1.388 . S
C1089 C67 1.366 . S
C1097 C112 1.374 . S
C1121 C137 1.376 . S
C1129 C81 1.383 . S
C1153 C140 1.360 . S
C1161 C95 1.377 . S
C1185 C165 1.398 . S
C1193 C109 1.394 . S
C1217 C235 1.378 . S
C1225 C392 1.378 . S
C1249 C417 1.393 . S
C1257 C249 1.393 . S
C1281 C263 1.366 . S
C1289 C420 1.373 . S
C1313 C277 1.386 . S
C1321 C445 1.390 . S
C1345 C336 1.363 . S
C1353 C291 1.379 . S
C1377 C305 1.376 . S
C1385 C361 1.388 . S
C1409 C319 1.373 . S
C1417 C364 1.376 . S
C1441 C333 1.387 . S
C1449 C389 1.390 . S
C1473 C9 1.320 . S
C1481 C145 1.320 . S
C1505 C163 1.295 . S
C1513 C23 1.296 . S
C1537 C37 1.312 . S
C1545 C117 1.318 . S
C1569 C135 1.305 . S
C1577 C51 1.303 . S
C1601 C201 1.327 . S
C1609 C65 1.317 . S
C1633 C219 1.301 . S
C1641 C79 1.301 . S
C1665 C173 1.302 . S
C1673 C93 1.301 . S
C1697 C107 1.315 . S
C1705 C191 1.309 . S
C1729 C369 1.324 . S
C1737 C233 1.316 . S
C1761 C247 1.318 . S
C1769 C387 1.309 . S
C1793 C341 1.297 . S
C1801 C261 1.301 . S
C1825 C359 1.275 . S
C1833 C275 1.289 . S
C1857 C289 1.325 . S
C1865 C425 1.321 . S
C1889 C303 1.312 . S
C1897 C443 1.306 . S
C1921 C397 1.328 . S
C1929 C317 1.316 . S
C1953 C415 1.274 . S
C1961 C331 1.288 . S
C1985 C322 1.295 . S
C1993 C0 1.293 . S
C2017 C280 1.294 . S
C2025 C14 1.286 . S
C2049 C294 1.301 . S
C2057 C28 1.293 . S
C2081 C308 1.291 . S
C2089 C42 1.292 . S
C2113 C238 1.297 . S
C2121 C56 1.289 . S
C2145 C70 1.299 . S
C2153 C252 1.294 . S
C2177 C84 1.299 . S
C2185 C266 1.289 . S
C2209 C98 1.299 . S
C2217 C224 1.294 . S
C2241 C123 1.148 . S
C2249 C434 1.157 . S
C2273 C403 1.155 . S
C2281 C126 1.156 . S
C2305 C151 1.152 . S
C2313 C406 1.155 . S
C2337 C154 1.156 . S
C2345 C431 1.162 . S
C2369 C350 1.157 . S
C2377 C179 1.170 . S
C2401 C375 1.178 . S
C2409 C182 1.172 . S
C2433 C207 1.153 . S
C2441 C378 1.155 . S
C2465 C210 1.169 . S
C2473 C347 1.173 . S
