# Generated by pormake.
# Topology uou, (4)-cn, num edge types: 1
# Building blocks:
#     Node 0, Type 0, BuildingBlock: ICAMEG_clean_sbu_1, # of connection points: 4
#     Node 1, Type 0, BuildingBlock: ICAMEG_clean_sbu_1, # of connection points: 4
#     Node 2, Type 0, BuildingBlock: ICAMEG_clean_sbu_1, # of connection points: 4
#     Node 3, Type 0, BuildingBlock: ICAMEG_clean_sbu_1, # of connection points: 4
#     Node 4, Type 0, BuildingBlock: ICAMEG_clean_sbu_1, # of connection points: 4
#     Node 5, Type 0, BuildingBlock: ICAMEG_clean_sbu_1, # of connection points: 4
#     Node 6, Type 0, BuildingBlock: ICAMEG_clean_sbu_1, # of connection points: 4
#     Node 7, Type 0, BuildingBlock: ICAMEG_clean_sbu_1, # of connection points: 4
#     Node 8, Type 0, BuildingBlock: ICAMEG_clean_sbu_1, # of connection points: 4
#     Node 9, Type 0, BuildingBlock: ICAMEG_clean_sbu_1, # of connection points: 4
#     Node 10, Type 0, BuildingBlock: ICAMEG_clean_sbu_1, # of connection points: 4
#     Node 11, Type 0, BuildingBlock: ICAMEG_clean_sbu_1, # of connection points: 4
#     Node 12, Type 0, BuildingBlock: ICAMEG_clean_sbu_1, # of connection points: 4
#     Node 13, Type 0, BuildingBlock: ICAMEG_clean_sbu_1, # of connection points: 4
#     Node 14, Type 0, BuildingBlock: ICAMEG_clean_sbu_1, # of connection points: 4
#     Node 15, Type 0, BuildingBlock: ICAMEG_clean_sbu_1, # of connection points: 4
#     Edge 16, Type (0, 0), BuildingBlock: XUDNAN_clean_linker_2, # of connection points: 2
#     Edge 17, Type (0, 0), BuildingBlock: XUDNAN_clean_linker_2, # of connection points: 2
#     Edge 18, Type (0, 0), BuildingBlock: XUDNAN_clean_linker_2, # of connection points: 2
#     Edge 19, Type (0, 0), BuildingBlock: XUDNAN_clean_linker_2, # of connection points: 2
#     Edge 20, Type (0, 0), BuildingBlock: XUDNAN_clean_linker_2, # of connection points: 2
#     Edge 21, Type (0, 0), BuildingBlock: XUDNAN_clean_linker_2, # of connection points: 2
#     Edge 22, Type (0, 0), BuildingBlock: XUDNAN_clean_linker_2, # of connection points: 2
#     Edge 23, Type (0, 0), BuildingBlock: XUDNAN_clean_linker_2, # of connection points: 2
#     Edge 24, Type (0, 0), BuildingBlock: XUDNAN_clean_linker_2, # of connection points: 2
#     Edge 25, Type (0, 0), BuildingBlock: XUDNAN_clean_linker_2, # of connection points: 2
#     Edge 26, Type (0, 0), BuildingBlock: XUDNAN_clean_linker_2, # of connection points: 2
#     Edge 27, Type (0, 0), BuildingBlock: XUDNAN_clean_linker_2, # of connection points: 2
#     Edge 28, Type (0, 0), BuildingBlock: XUDNAN_clean_linker_2, # of connection points: 2
#     Edge 29, Type (0, 0), BuildingBlock: XUDNAN_clean_linker_2, # of connection points: 2
#     Edge 30, Type (0, 0), BuildingBlock: XUDNAN_clean_linker_2, # of connection points: 2
#     Edge 31, Type (0, 0), BuildingBlock: XUDNAN_clean_linker_2, # of connection points: 2
#     Edge 32, Type (0, 0), BuildingBlock: XUDNAN_clean_linker_2, # of connection points: 2
#     Edge 33, Type (0, 0), BuildingBlock: XUDNAN_clean_linker_2, # of connection points: 2
#     Edge 34, Type (0, 0), BuildingBlock: XUDNAN_clean_linker_2, # of connection points: 2
#     Edge 35, Type (0, 0), BuildingBlock: XUDNAN_clean_linker_2, # of connection points: 2
#     Edge 36, Type (0, 0), BuildingBlock: XUDNAN_clean_linker_2, # of connection points: 2
#     Edge 37, Type (0, 0), BuildingBlock: XUDNAN_clean_linker_2, # of connection points: 2
#     Edge 38, Type (0, 0), BuildingBlock: XUDNAN_clean_linker_2, # of connection points: 2
#     Edge 39, Type (0, 0), BuildingBlock: XUDNAN_clean_linker_2, # of connection points: 2
#     Edge 40, Type (0, 0), BuildingBlock: XUDNAN_clean_linker_2, # of connection points: 2
#     Edge 41, Type (0, 0), BuildingBlock: XUDNAN_clean_linker_2, # of connection points: 2
#     Edge 42, Type (0, 0), BuildingBlock: XUDNAN_clean_linker_2, # of connection points: 2
#     Edge 43, Type (0, 0), BuildingBlock: XUDNAN_clean_linker_2, # of connection points: 2
#     Edge 44, Type (0, 0), BuildingBlock: XUDNAN_clean_linker_2, # of connection points: 2
#     Edge 45, Type (0, 0), BuildingBlock: XUDNAN_clean_linker_2, # of connection points: 2
#     Edge 46, Type (0, 0), BuildingBlock: XUDNAN_clean_linker_2, # of connection points: 2
#     Edge 47, Type (0, 0), BuildingBlock: XUDNAN_clean_linker_2, # of connection points: 2
# Relax obj value: 0.027
# Max RMSD: 0.082
# Mean RMSD: 0.082
data_MOF--net-uou--node1-ICAMEG_clean_sbu_1--edge1-XUDNAN_clean_linker_2
_symmetry_space_group_name_H-M    P1
_symmetry_Int_Tables_number       1
_symmetry_cell_setting            triclinic
loop_
_symmetry_equiv_pos_as_xyz
'x, y, z'
_cell_length_a     41.427106
_cell_length_b     40.101768
_cell_length_c     58.094681
_cell_angle_alpha  90.047999
_cell_angle_beta   90.025377
_cell_angle_gamma 90.191968
loop_
_atom_site_label
_atom_site_type_symbol
_atom_site_fract_x
_atom_site_fract_y
_atom_site_fract_z
_atom_type_partial_charge
Co0 Co 0.0212 0.06359 0.12759 0.0
Co1 Co 0.09412 0.10139 0.13389 0.0
O2 O 0.06741 0.06587 0.12056 0.0
C3 C 0.02072 0.05292 0.07633 0.0
O4 O 0.03859 0.07965 0.07327 0.0
C5 C 0.15114 0.06214 0.14978 0.0
O6 O 0.14376 0.0699 0.17109 0.0
O7 O 0.08142 0.0861 0.1652 0.0
O8 O 0.02817 0.08191 0.15939 0.0
H9 H 0.1181 0.19414 0.18962 0.0
H10 H 0.05554 1.00344 0.11125 0.0
O11 O 0.01242 0.044 0.09651 0.0
H12 H 0.00788 0.9715 0.18586 0.0
H13 H 0.9103 0.01154 0.12685 0.0
H14 H 0.9749 0.10945 0.15007 0.0
H15 H 0.99964 0.02788 0.17012 0.0
H16 H 0.96869 0.01388 0.11877 0.0
O17 O 0.13242 0.07049 0.1333 0.0
H18 H 0.08485 0.15019 0.17166 0.0
H19 H 0.16091 0.12724 0.12535 0.0
H20 H 0.91668 0.10795 0.15876 0.0
H21 H 0.06412 0.9466 0.12625 0.0
H22 H 0.88395 0.05873 0.14711 0.0
H23 H 0.04024 0.93034 0.16383 0.0
O24 O 0.01585 0.10961 0.11521 0.0
H25 H 0.12866 0.08487 0.05179 0.0
H26 H 0.09598 0.16752 0.11012 0.0
H27 H 0.10845 0.18619 0.0707 0.0
H28 H 0.12504 0.14475 0.04122 0.0
H29 H 0.11557 0.0672 0.09136 0.0
H30 H 0.19511 0.17076 0.14295 0.0
H31 H 0.1737 0.20464 0.1753 0.0
O32 O 0.05707 0.13355 0.13407 0.0
C33 C 0.05253 0.08419 0.17275 0.0
C34 C 0.12772 0.17953 0.17555 0.0
C35 C 0.17095 0.16639 0.14937 0.0
N36 N 0.12094 0.13604 0.14751 0.0
C37 C 0.109 0.15459 0.1653 0.0
C38 C 0.1515 0.1417 0.13952 0.0
C39 C 0.15892 0.1854 0.16751 0.0
C40 C 0.04495 0.99648 0.12757 0.0
N41 N 0.02706 0.01894 0.13975 0.0
C42 C 0.04994 0.96429 0.13599 0.0
C43 C 0.03656 0.9552 0.15709 0.0
C44 C 0.01842 0.97828 0.16946 0.0
C45 C 0.01392 0.01022 0.16049 0.0
C46 C 0.9243 0.03313 0.13201 0.0
C47 C 0.96087 0.08789 0.14501 0.0
C48 C 0.95736 0.03466 0.12739 0.0
N49 N 0.97524 0.06173 0.13399 0.0
C50 C 0.92789 0.08721 0.14995 0.0
C51 C 0.90954 0.0596 0.14339 0.0
C52 C 0.03083 0.13527 0.12266 0.0
C53 C 0.12158 0.10318 0.0645 0.0
C54 C 0.10308 0.14929 0.09739 0.0
C55 C 0.11019 0.16004 0.0751 0.0
C56 C 0.1195 0.13678 0.05857 0.0
N57 N 0.10523 0.11629 0.10309 0.0
C58 C 0.11427 0.09334 0.08696 0.0
Co59 Co 0.48505 0.9388 0.13409 0.0
Co60 Co 0.40645 0.91379 0.14523 0.0
O61 O 0.43813 0.94219 0.12942 0.0
C62 C 0.48411 0.93181 0.08269 0.0
O63 O 0.46884 0.90325 0.08478 0.0
C64 C 0.37546 0.98226 0.14301 0.0
O65 O 0.40135 0.99534 0.13365 0.0
O66 O 0.42653 0.92481 0.17556 0.0
O67 O 0.47941 0.92977 0.16774 0.0
H68 H 0.37362 0.82567 0.20208 0.0
H69 H 0.45984 0.99901 0.11044 0.0
O70 O 0.49194 0.94867 0.10045 0.0
H71 H 0.51512 0.04099 0.17989 0.0
H72 H 0.60074 0.97303 0.12134 0.0
H73 H 0.528 0.89355 0.16031 0.0
H74 H 0.51346 0.98078 0.17148 0.0
H75 H 0.54174 0.97707 0.11641 0.0
O76 O 0.37512 0.95183 0.14928 0.0
H77 H 0.41198 0.86111 0.18066 0.0
H78 H 0.33436 0.90676 0.14486 0.0
H79 H 0.5868 0.88878 0.16585 0.0
H80 H 0.46142 0.05948 0.11801 0.0
H81 H 0.62362 0.92872 0.14628 0.0
H82 H 0.48908 0.08084 0.15301 0.0
O83 O 0.48401 0.88978 0.12804 0.0
H84 H 0.36867 0.93867 0.06453 0.0
H85 H 0.37931 0.85192 0.12398 0.0
H86 H 0.35612 0.83724 0.0863 0.0
H87 H 0.35047 0.88083 0.05625 0.0
H88 H 0.39216 0.95211 0.10221 0.0
H89 H 0.29521 0.87221 0.16616 0.0
H90 H 0.31477 0.83113 0.1949 0.0
O91 O 0.43534 0.8742 0.14146 0.0
C92 C 0.45598 0.92749 0.18188 0.0
C93 C 0.36481 0.84337 0.18953 0.0
C94 C 0.3208 0.86954 0.1694 0.0
N95 N 0.37551 0.88579 0.16137 0.0
C96 C 0.38643 0.86341 0.17728 0.0
C97 C 0.34311 0.88915 0.15747 0.0
C98 C 0.33179 0.84649 0.18552 0.0
C99 C 0.47215 0.00809 0.12562 0.0
N100 N 0.48641 0.98631 0.14053 0.0
C101 C 0.47286 0.04238 0.12986 0.0
C102 C 0.48834 0.05434 0.14951 0.0
C103 C 0.50291 0.03199 0.16462 0.0
C104 C 0.50172 0.99788 0.15982 0.0
C105 C 0.58494 0.95551 0.12997 0.0
C106 C 0.54384 0.91113 0.15181 0.0
C107 C 0.55152 0.95762 0.1272 0.0
N108 N 0.53142 0.93568 0.13816 0.0
C109 C 0.57713 0.90825 0.15498 0.0
C110 C 0.59777 0.93065 0.14398 0.0
C111 C 0.46331 0.8675 0.13349 0.0
C112 C 0.37085 0.91947 0.07752 0.0
C113 C 0.3772 0.87102 0.11102 0.0
C114 C 0.36389 0.86257 0.0897 0.0
C115 C 0.3607 0.88702 0.07286 0.0
N116 N 0.38694 0.90296 0.11559 0.0
C117 C 0.38402 0.92699 0.09905 0.0
Co118 Co 0.53714 0.94504 0.3907 0.0
Co119 Co 0.60164 0.90797 0.3659 0.0
O120 O 0.58364 0.94135 0.38682 0.0
C121 C 0.5306 0.95002 0.44163 0.0
O122 O 0.51346 0.92242 0.44114 0.0
C123 C 0.65494 0.94788 0.34322 0.0
O124 O 0.64393 0.94016 0.32268 0.0
O125 O 0.57686 0.92831 0.33981 0.0
O126 O 0.52928 0.93091 0.35802 0.0
H127 H 0.59742 0.82478 0.30125 0.0
H128 H 0.57927 1.00259 0.40197 0.0
O129 O 0.54412 0.96065 0.42329 0.0
H130 H 0.50302 0.04446 0.34364 0.0
H131 H 0.43397 0.9985 0.41806 0.0
H132 H 0.48172 0.90178 0.37836 0.0
H133 H 0.49975 0.9863 0.35713 0.0
H134 H 0.49282 0.99496 0.41232 0.0
O135 O 0.63948 0.9389 0.36119 0.0
H136 H 0.57506 0.8657 0.32855 0.0
H137 H 0.66793 0.88068 0.35788 0.0
H138 H 0.42272 0.9044 0.38363 0.0
H139 H 0.58314 0.0611 0.38916 0.0
H140 H 0.39847 0.95302 0.40362 0.0
H141 H 0.54485 0.08237 0.35976 0.0
O142 O 0.53614 0.89748 0.40073 0.0
H143 H 0.66847 0.91037 0.43818 0.0
H144 H 0.6114 0.83822 0.38263 0.0
H145 H 0.6392 0.81283 0.41573 0.0
H146 H 0.66817 0.84896 0.44374 0.0
H147 H 0.63999 0.93479 0.405 0.0
H148 H 0.69132 0.83997 0.33083 0.0
H149 H 0.65597 0.81168 0.30226 0.0
O150 O 0.56481 0.87607 0.37156 0.0
C151 C 0.54605 0.93082 0.33955 0.0
C152 C 0.61308 0.83697 0.31359 0.0
C153 C 0.66578 0.8455 0.3302 0.0
N154 N 0.62016 0.8757 0.34474 0.0
C155 C 0.60056 0.86019 0.3291 0.0
C156 C 0.6524 0.86858 0.34544 0.0
C157 C 0.64593 0.82963 0.31418 0.0
C158 C 0.56238 0.01173 0.38929 0.0
N159 N 0.53919 0.99108 0.38044 0.0
C160 C 0.56475 0.04485 0.38205 0.0
C161 C 0.54328 0.05676 0.36554 0.0
C162 C 0.51981 0.03551 0.35648 0.0
C163 C 0.51815 1.00255 0.36414 0.0
C164 C 0.44424 0.97718 0.40932 0.0
C165 C 0.47136 0.92302 0.38707 0.0
C166 C 0.47755 0.97501 0.40605 0.0
N167 N 0.49072 0.94815 0.39503 0.0
C168 C 0.43793 0.92437 0.39 0.0
C169 C 0.42434 0.95166 0.40122 0.0
C170 C 0.54565 0.87278 0.38866 0.0
C171 C 0.65608 0.89435 0.42603 0.0
C172 C 0.6239 0.85416 0.39474 0.0
C173 C 0.63963 0.83961 0.41345 0.0
C174 C 0.65587 0.8599 0.42916 0.0
N175 N 0.62441 0.88798 0.39167 0.0
C176 C 0.64003 0.90803 0.40714 0.0
Co177 Co 0.9886 0.08785 0.38333 0.0
Co178 Co 0.91294 0.10203 0.36121 0.0
O179 O 0.94235 0.0775 0.38168 0.0
C180 C 0.97017 0.06865 0.43232 0.0
O181 O 0.93961 0.06503 0.42696 0.0
C182 C 0.87247 0.04879 0.33921 0.0
O183 O 0.87852 0.06207 0.319 0.0
O184 O 0.94065 0.09061 0.33389 0.0
O185 O 0.98945 0.09778 0.34982 0.0
H186 H 0.88595 0.17996 0.29637 0.0
H187 H 0.96273 0.02188 0.39893 0.0
O188 O 0.9906 0.07815 0.4173 0.0
H189 H 0.04669 0.99554 0.3418 0.0
H190 H 0.1036 0.07252 0.40964 0.0
H191 H 0.02958 0.14123 0.36329 0.0
H192 H 0.03435 0.0539 0.35151 0.0
H193 H 0.04586 0.05799 0.40692 0.0
O194 O 0.88686 0.05988 0.35712 0.0
H195 H 0.92195 0.14918 0.32257 0.0
H196 H 0.84083 0.10678 0.35655 0.0
H197 H 0.08715 0.15655 0.36546 0.0
H198 H 0.97462 0.96329 0.39001 0.0
H199 H 0.12463 0.12207 0.38877 0.0
H200 H 0.01689 0.94969 0.36123 0.0
O201 O 0.97868 0.13538 0.39009 0.0
H202 H 0.85292 0.07573 0.43422 0.0
H203 H 0.8828 0.16441 0.37956 0.0
H204 H 0.85047 0.17852 0.41376 0.0
H205 H 0.83514 0.13392 0.44135 0.0
H206 H 0.88583 0.06297 0.40004 0.0
H207 H 0.804 0.13714 0.33073 0.0
H208 H 0.82652 0.17401 0.30034 0.0
O209 O 0.93775 0.14479 0.36561 0.0
C210 C 0.97128 0.09424 0.3323 0.0
C211 C 0.87585 0.16393 0.30952 0.0
C212 C 0.82986 0.13992 0.32881 0.0
N213 N 0.88359 0.12605 0.34102 0.0
C214 C 0.89612 0.14639 0.3244 0.0
C215 C 0.85086 0.12281 0.3434 0.0
C216 C 0.84251 0.1606 0.31176 0.0
C217 C 0.98152 0.01639 0.38673 0.0
N218 N 0.99833 0.04151 0.37625 0.0
C219 C 0.98799 0.98304 0.38159 0.0
C220 C 0.01165 0.97542 0.3654 0.0
C221 C 0.02838 1.00112 0.35451 0.0
C222 C 0.02126 0.03417 0.3601 0.0
C223 C 0.08752 0.08773 0.39942 0.0
C224 C 0.04571 0.12603 0.37341 0.0
C225 C 0.05476 0.07969 0.39786 0.0
N226 N 0.03431 0.09871 0.38491 0.0
C227 C 0.07831 0.13486 0.3746 0.0
C228 C 0.09931 0.11552 0.38769 0.0
C229 C 0.96018 0.15507 0.379 0.0
C230 C 0.8595 0.09541 0.42236 0.0
C231 C 0.87686 0.14506 0.39169 0.0
C232 C 0.85824 0.1531 0.41093 0.0
C233 C 0.84958 0.12806 0.42637 0.0
N234 N 0.88665 0.11301 0.38789 0.0
C235 C 0.8781 0.08833 0.40292 0.0
Co236 Co 0.97227 0.94542 0.87975 0.0
Co237 Co 0.9022 0.90171 0.86851 0.0
O238 O 0.92573 0.93829 0.88325 0.0
C239 C 0.96306 0.94275 0.93003 0.0
O240 O 0.94633 0.91539 0.92635 0.0
C241 C 0.86442 0.96077 0.85401 0.0
O242 O 0.89161 0.97461 0.84733 0.0
O243 O 0.9205 0.9141 0.838 0.0
O244 O 0.97039 0.93282 0.84636 0.0
H245 H 0.88998 0.80261 0.81621 0.0
H246 H 0.93167 0.99885 0.89967 0.0
O247 O 0.97532 0.95846 0.91309 0.0
H248 H 0.98174 0.04841 0.83065 0.0
H249 H 0.07697 0.00644 0.89337 0.0
H250 H 0.02529 0.90921 0.85642 0.0
H251 H 0.9938 0.99046 0.84182 0.0
H252 H 0.0183 0.99708 0.89696 0.0
O253 O 0.86453 0.93189 0.86308 0.0
H254 H 0.91937 0.84867 0.83516 0.0
H255 H 0.83384 0.87807 0.86989 0.0
H256 H 0.08397 0.91783 0.85215 0.0
H257 H 0.91914 0.05701 0.88923 0.0
H258 H 0.11018 0.96673 0.87073 0.0
H259 H 0.94421 0.08212 0.85446 0.0
O260 O 0.98128 0.8982 0.88812 0.0
H261 H 0.84988 0.9253 0.94476 0.0
H262 H 0.89579 0.83804 0.8948 0.0
H263 H 0.87496 0.82287 0.93315 0.0
H264 H 0.85176 0.86666 0.95841 0.0
H265 H 0.87127 0.93945 0.90636 0.0
H266 H 0.80344 0.8326 0.85109 0.0
H267 H 0.83158 0.79437 0.82414 0.0
O268 O 0.93874 0.87029 0.87377 0.0
C269 C 0.94873 0.9236 0.83205 0.0
C270 C 0.87747 0.81905 0.82797 0.0
C271 C 0.82889 0.8359 0.84753 0.0
N272 N 0.87841 0.86585 0.85375 0.0
C273 C 0.894 0.84511 0.8388 0.0
C274 C 0.84622 0.86166 0.85807 0.0
C275 C 0.8447 0.81445 0.83241 0.0
C276 C 0.94288 0.00971 0.88463 0.0
N277 N 0.96356 0.99135 0.87145 0.0
C278 C 0.9356 0.04261 0.87875 0.0
C279 C 0.94965 0.05666 0.85923 0.0
C280 C 0.97069 0.03776 0.84585 0.0
C281 C 0.97737 0.00493 0.85224 0.0
C282 C 0.06582 0.98508 0.88516 0.0
C283 C 0.03649 0.93067 0.86441 0.0
C284 C 0.03263 0.9796 0.88717 0.0
N285 N 0.01836 0.95277 0.87674 0.0
C286 C 0.06974 0.93537 0.862 0.0
C287 C 0.08444 0.96279 0.87245 0.0
C288 C 0.96668 0.87115 0.88294 0.0
C289 C 0.85984 0.90598 0.93389 0.0
C290 C 0.88582 0.85727 0.90571 0.0
C291 C 0.87399 0.8485 0.92739 0.0
C292 C 0.86095 0.87308 0.94155 0.0
N293 N 0.88464 0.8896 0.89831 0.0
C294 C 0.87187 0.91382 0.91209 0.0
Co295 Co 0.53533 0.06092 0.88945 0.0
Co296 Co 0.59597 0.10251 0.8623 0.0
O297 O 0.58161 0.06714 0.88345 0.0
C298 C 0.53329 0.05433 0.94042 0.0
O299 O 0.51529 0.08122 0.94089 0.0
C300 C 0.64196 0.04511 0.8542 0.0
O301 O 0.62142 0.02351 0.86279 0.0
O302 O 0.56956 0.08216 0.83735 0.0
O303 O 0.52375 0.07596 0.85736 0.0
H304 H 0.57898 0.18989 0.80154 0.0
H305 H 0.57913 1.00425 0.89886 0.0
O306 O 0.54566 0.04456 0.92144 0.0
H307 H 0.50157 0.96211 0.84129 0.0
H308 H 0.43707 1.00101 0.92005 0.0
H309 H 0.47722 0.10172 0.88055 0.0
H310 H 0.49756 0.01965 0.85588 0.0
H311 H 0.49509 0.0079 0.91186 0.0
O312 O 0.63456 0.0758 0.85259 0.0
H313 H 0.56228 0.1461 0.82881 0.0
H314 H 0.65962 0.13302 0.84994 0.0
H315 H 0.41897 0.09577 0.8883 0.0
H316 H 0.58368 0.94633 0.885 0.0
H317 H 0.39854 0.04513 0.90821 0.0
H318 H 0.54479 0.92494 0.85593 0.0
O319 O 0.53316 0.10792 0.90072 0.0
H320 H 0.67247 0.10008 0.92949 0.0
H321 H 0.60464 0.17171 0.88048 0.0
H322 H 0.6356 0.19685 0.91233 0.0
H323 H 0.66995 0.16099 0.93705 0.0
H324 H 0.64077 0.07588 0.89763 0.0
H325 H 0.67739 0.17646 0.8227 0.0
H326 H 0.63692 0.20534 0.79833 0.0
O327 O 0.55882 0.1316 0.87109 0.0
C328 C 0.53902 0.07801 0.83827 0.0
C329 C 0.59684 0.17752 0.81208 0.0
C330 C 0.65207 0.16995 0.82394 0.0
N331 N 0.60991 0.13703 0.84104 0.0
C332 C 0.58753 0.15272 0.8276 0.0
C333 C 0.64187 0.14527 0.83928 0.0
C334 C 0.62935 0.18616 0.81028 0.0
C335 C 0.56195 0.99507 0.88635 0.0
N336 N 0.53817 0.01539 0.87819 0.0
C337 C 0.56472 0.96227 0.8785 0.0
C338 C 0.54292 0.9503 0.86217 0.0
C339 C 0.5187 0.97116 0.85393 0.0
C340 C 0.51667 1.00381 0.86217 0.0
C341 C 0.44566 0.02319 0.91136 0.0
C342 C 0.46853 0.0796 0.8892 0.0
C343 C 0.47851 0.02725 0.9067 0.0
N344 N 0.48957 0.05522 0.89575 0.0
C345 C 0.43551 0.07637 0.89355 0.0
C346 C 0.42407 0.04796 0.90472 0.0
C347 C 0.54099 0.1334 0.88888 0.0
C348 C 0.65771 0.11599 0.91877 0.0
C349 C 0.61947 0.15588 0.89117 0.0
C350 C 0.63699 0.17029 0.90917 0.0
C351 C 0.65626 0.15016 0.92302 0.0
N352 N 0.62115 0.12235 0.88701 0.0
C353 C 0.63981 0.10244 0.90063 0.0
Co354 Co 0.47397 0.06785 0.63394 0.0
Co355 Co 0.40228 0.10768 0.64475 0.0
O356 O 0.42747 0.07306 0.62929 0.0
C357 C 0.4716 0.07116 0.58279 0.0
O358 O 0.45748 0.10029 0.58471 0.0
C359 C 0.36487 0.04654 0.65565 0.0
O360 O 0.39212 0.03311 0.66246 0.0
O361 O 0.4188 0.09315 0.67528 0.0
O362 O 0.47031 0.08029 0.66736 0.0
H363 H 0.38459 0.20145 0.70072 0.0
H364 H 0.43618 0.01267 0.61313 0.0
O365 O 0.47901 0.05456 0.6007 0.0
H366 H 0.48494 0.96525 0.68325 0.0
H367 H 0.58128 0.01132 0.62316 0.0
H368 H 0.52457 0.10641 0.65848 0.0
H369 H 0.49543 0.02371 0.67237 0.0
H370 H 0.52257 0.0182 0.61796 0.0
O371 O 0.36475 0.07608 0.64762 0.0
H372 H 0.41618 0.15813 0.68081 0.0
H373 H 0.33366 0.12969 0.64196 0.0
H374 H 0.58322 0.10025 0.66435 0.0
H375 H 0.42531 0.95397 0.62326 0.0
H376 H 0.61196 0.05243 0.64661 0.0
H377 H 0.44971 0.92993 0.65858 0.0
O378 O 0.48145 0.11562 0.62582 0.0
H379 H 0.35604 0.0897 0.56576 0.0
H380 H 0.3964 0.17343 0.62103 0.0
H381 H 0.37801 0.19153 0.58266 0.0
H382 H 0.35758 0.14952 0.55474 0.0
H383 H 0.37497 0.07265 0.60426 0.0
H384 H 0.30108 0.17244 0.66165 0.0
H385 H 0.32659 0.2088 0.69118 0.0
O386 O 0.43866 0.14048 0.64223 0.0
C387 C 0.44754 0.08628 0.68157 0.0
C388 C 0.37322 0.18582 0.68784 0.0
C389 C 0.32634 0.16951 0.66593 0.0
N390 N 0.37685 0.14157 0.66012 0.0
C391 C 0.39101 0.16131 0.67646 0.0
C392 C 0.34489 0.14529 0.65488 0.0
C393 C 0.34067 0.18991 0.6825 0.0
C394 C 0.44711 1.00229 0.62842 0.0
N395 N 0.46652 0.02155 0.64207 0.0
C396 C 0.44077 0.96908 0.63411 0.0
C397 C 0.45443 0.95562 0.65395 0.0
C398 C 0.47419 0.97543 0.66781 0.0
C399 C 0.47997 0.00855 0.66158 0.0
C400 C 0.56902 0.03223 0.631 0.0
C401 C 0.53688 0.08543 0.65082 0.0
C402 C 0.5358 0.03632 0.62807 0.0
N403 N 0.52013 0.06255 0.63805 0.0
C404 C 0.5701 0.08213 0.65415 0.0
C405 C 0.58622 0.0553 0.64417 0.0
C406 C 0.46628 0.14145 0.6326 0.0
C407 C 0.3648 0.10825 0.5778 0.0
C408 C 0.38762 0.15498 0.60896 0.0
C409 C 0.37718 0.16539 0.58728 0.0
C410 C 0.3657 0.14181 0.57162 0.0
N411 N 0.38658 0.12202 0.61491 0.0
C412 C 0.37543 0.09876 0.59965 0.0
Co413 Co 0.03454 0.94633 0.62395 0.0
Co414 Co 0.09393 0.90209 0.6507 0.0
O415 O 0.0805 0.93654 0.62852 0.0
C416 C 0.02591 0.94741 0.5737 0.0
O417 O 1.00403 0.92412 0.57701 0.0
C418 C 0.14257 0.95793 0.65676 0.0
O419 O 0.12124 0.98029 0.65057 0.0
O420 O 0.07053 0.9257 0.67587 0.0
O421 O 0.02456 0.93579 0.65692 0.0
H422 H 0.07595 0.82084 0.71532 0.0
H423 H 0.08191 0.9974 0.60912 0.0
O424 O 0.04303 0.95759 0.59064 0.0
H425 H 0.01542 0.0527 0.66817 0.0
H426 H 0.93929 0.01247 0.59509 0.0
H427 H 0.97391 0.91186 0.637 0.0
H428 H 1.00459 0.99441 0.65708 0.0
H429 H 0.99711 1.00098 0.60107 0.0
O430 O 0.13475 0.92723 0.65799 0.0
H431 H 0.06003 0.86328 0.68689 0.0
H432 H 0.15636 0.86873 0.66209 0.0
H433 H 0.91583 0.92247 0.63148 0.0
H434 H 0.0932 0.05597 0.61941 0.0
H435 H 0.89819 0.97306 0.61036 0.0
H436 H 0.05991 0.08396 0.64921 0.0
O437 O 0.02716 0.89874 0.61546 0.0
H438 H 0.16654 0.89481 0.58161 0.0
H439 H 0.09674 0.83132 0.63466 0.0
H440 H 0.1241 0.80203 0.60291 0.0
H441 H 0.15942 0.83379 0.57616 0.0
H442 H 0.1384 0.92321 0.61343 0.0
H443 H 0.17338 0.82653 0.69041 0.0
H444 H 0.13301 0.80218 0.71722 0.0
O445 O 0.05443 0.87462 0.64418 0.0
C446 C 0.04046 0.93253 0.67561 0.0
C447 C 0.09377 0.83123 0.70371 0.0
C448 C 0.14844 0.83446 0.68975 0.0
N449 N 0.1072 0.86847 0.67278 0.0
C450 C 0.08488 0.85526 0.68754 0.0
C451 C 0.13868 0.85845 0.6738 0.0
C452 C 0.12578 0.82079 0.70478 0.0
C453 C 0.06709 0.00952 0.62192 0.0
N454 N 0.04262 0.99246 0.63245 0.0
C455 C 0.0737 0.04264 0.62776 0.0
C456 C 0.05505 0.05831 0.64451 0.0
C457 C 0.03012 0.04077 0.65518 0.0
C458 C 0.02423 0.00768 0.64891 0.0
C459 C 0.94667 0.99037 0.60436 0.0
C460 C 0.96644 0.93396 0.62784 0.0
C461 C 0.97938 0.98374 0.60783 0.0
N462 N 0.98892 0.95577 0.61942 0.0
C463 C 0.93351 0.93984 0.62476 0.0
C464 C 0.92363 0.96824 0.61291 0.0
C465 C 0.03436 0.87339 0.62757 0.0
C466 C 0.1513 0.88068 0.5932 0.0
C467 C 0.11197 0.84537 0.62306 0.0
C468 C 0.12746 0.82862 0.60513 0.0
C469 C 0.14727 0.84645 0.59014 0.0
N470 N 0.11616 0.87895 0.62602 0.0
C471 C 0.1354 0.89661 0.61131 0.0
Co472 Co 0.54356 0.56475 0.13724 0.0
Co473 Co 0.61494 0.60902 0.1439 0.0
O474 O 0.58981 0.57164 0.13096 0.0
C475 C 0.55125 0.55005 0.08612 0.0
O476 O 0.58151 0.55971 0.08626 0.0
C477 C 0.65458 0.55103 0.1586 0.0
O478 O 0.62818 0.53767 0.16713 0.0
O479 O 0.59963 0.59851 0.17569 0.0
O480 O 0.54962 0.57858 0.16999 0.0
H481 H 0.63181 0.71098 0.19283 0.0
H482 H 0.58294 0.51003 0.11705 0.0
O483 O 0.53449 0.55056 0.10451 0.0
H484 H 0.53802 0.46421 0.18895 0.0
H485 H 0.43682 0.50445 0.13262 0.0
H486 H 0.4942 0.60313 0.16286 0.0
H487 H 0.52529 0.52159 0.17694 0.0
H488 H 0.49482 0.51264 0.1248 0.0
O489 O 0.65327 0.57906 0.14837 0.0
H490 H 0.60079 0.664 0.17649 0.0
H491 H 0.68309 0.63236 0.13885 0.0
H492 H 0.43631 0.5957 0.17134 0.0
H493 H 0.596 0.45245 0.12828 0.0
H494 H 0.40722 0.54607 0.15616 0.0
H495 H 0.57352 0.42915 0.16451 0.0
O496 O 0.53398 0.61154 0.12838 0.0
H497 H 0.66386 0.58236 0.06693 0.0
H498 H 0.61787 0.67109 0.11556 0.0
H499 H 0.63646 0.68461 0.07637 0.0
H500 H 0.65977 0.64009 0.05177 0.0
H501 H 0.64446 0.5698 0.10611 0.0
H502 H 0.7151 0.67875 0.15502 0.0
H503 H 0.68941 0.71857 0.18212 0.0
O504 O 0.57782 0.64029 0.13965 0.0
C505 C 0.5721 0.58903 0.18313 0.0
C506 C 0.64325 0.69385 0.181 0.0
C507 C 0.69001 0.67573 0.15979 0.0
N508 N 0.64003 0.6456 0.1566 0.0
C509 C 0.62579 0.66725 0.17164 0.0
C510 C 0.67178 0.64946 0.15074 0.0
C511 C 0.67558 0.69807 0.17499 0.0
C512 C 0.57264 0.5 0.13263 0.0
N513 N 0.5529 0.51907 0.14606 0.0
C514 C 0.58031 0.4674 0.139 0.0
C515 C 0.56775 0.45436 0.15935 0.0
C516 C 0.54784 0.47402 0.17307 0.0
C517 C 0.54073 0.50652 0.16616 0.0
C518 C 0.44925 0.52615 0.13937 0.0
C519 C 0.48177 0.58136 0.15632 0.0
C520 C 0.48207 0.53097 0.13494 0.0
N521 N 0.49796 0.55821 0.14353 0.0
C522 C 0.44896 0.57733 0.16112 0.0
C523 C 0.43265 0.5495 0.15258 0.0
C524 C 0.54883 0.63889 0.13229 0.0
C525 C 0.65376 0.60198 0.07748 0.0
C526 C 0.6276 0.65148 0.10489 0.0
C527 C 0.63828 0.65934 0.08275 0.0
C528 C 0.65141 0.63436 0.06897 0.0
N529 N 0.62989 0.61962 0.11309 0.0
C530 C 0.64284 0.59504 0.09971 0.0
Co531 Co 0.99009 0.44404 0.12864 0.0
Co532 Co 0.92473 0.40964 0.15511 0.0
O533 O 0.94303 0.4425 0.13328 0.0
C534 C 0.96324 0.46281 0.08106 0.0
O535 O 0.93279 0.46203 0.08727 0.0
C536 C 0.87878 0.46916 0.1571 0.0
O537 O 0.89735 0.48765 0.14396 0.0
O538 O 0.951 0.4297 0.18044 0.0
O539 O 0.99794 0.43105 0.16156 0.0
H540 H 0.93154 0.32562 0.21909 0.0
H541 H 0.95051 0.50396 0.1176 0.0
O542 O 0.98572 0.45682 0.09541 0.0
H543 H 0.03189 0.54277 0.17343 0.0
H544 H 0.09515 0.48969 0.09807 0.0
H545 H 0.04348 0.39915 0.14224 0.0
H546 H 0.031 0.48421 0.16067 0.0
H547 H 0.03632 0.4895 0.10449 0.0
O548 O 0.88751 0.43989 0.16298 0.0
H549 H 0.95305 0.36603 0.19104 0.0
H550 H 0.85835 0.38491 0.16626 0.0
H551 H 0.10244 0.39856 0.13643 0.0
H552 H 0.95076 0.56276 0.12965 0.0
H553 H 0.12866 0.44407 0.1142 0.0
H554 H 0.99166 0.58259 0.15782 0.0
O555 O 0.98876 0.39659 0.11885 0.0
H556 H 0.85397 0.41205 0.08457 0.0
H557 H 0.91165 0.33996 0.13947 0.0
H558 H 0.88133 0.31443 0.1075 0.0
H559 H 0.85204 0.35053 0.07981 0.0
H560 H 0.88491 0.43654 0.11655 0.0
H561 H 0.8358 0.34497 0.19424 0.0
H562 H 0.87251 0.31487 0.22084 0.0
O563 O 0.96018 0.37683 0.14841 0.0
C564 C 0.98174 0.43179 0.18023 0.0
C565 C 0.9153 0.33855 0.20757 0.0
C566 C 0.86157 0.34944 0.19365 0.0
N567 N 0.90702 0.3778 0.17695 0.0
C568 C 0.92734 0.36144 0.19161 0.0
C569 C 0.87448 0.37214 0.1779 0.0
C570 C 0.88218 0.33255 0.20856 0.0
C571 C 0.96863 0.51233 0.12958 0.0
N572 N 0.99093 0.49059 0.1381 0.0
C573 C 0.96855 0.5457 0.13647 0.0
C574 C 0.99146 0.55681 0.15231 0.0
C575 C 0.01402 0.53448 0.16107 0.0
C576 C 0.01334 0.50129 0.15379 0.0
C577 C 0.08402 0.46976 0.10784 0.0
C578 C 0.05473 0.41915 0.13267 0.0
C579 C 0.0507 0.46947 0.11149 0.0
N580 N 0.03649 0.44448 0.12392 0.0
C581 C 0.08812 0.41864 0.12938 0.0
C582 C 0.10281 0.44416 0.11689 0.0
C583 C 0.97804 0.37245 0.13083 0.0
C584 C 0.86644 0.39604 0.09661 0.0
C585 C 0.89898 0.35592 0.12754 0.0
C586 C 0.88182 0.34127 0.10946 0.0
C587 C 0.86541 0.36153 0.09393 0.0
N588 N 0.89972 0.38983 0.1302 0.0
C589 C 0.88388 0.40981 0.1149 0.0
Co590 Co 0.04128 0.46004 0.38448 0.0
Co591 Co 0.1105 0.41346 0.37661 0.0
O592 O 0.08644 0.4496 0.39131 0.0
C593 C 0.03685 0.45052 0.4352 0.0
O594 O 0.04839 0.42035 0.43234 0.0
C595 C 0.16758 0.45273 0.3594 0.0
O596 O 0.15772 0.44808 0.33816 0.0
O597 O 0.09712 0.4294 0.34539 0.0
O598 O 0.04771 0.45075 0.35105 0.0
H599 H 0.12609 0.3203 0.31988 0.0
H600 H 0.0811 0.50855 0.41065 0.0
O601 O 0.03343 0.46986 0.41798 0.0
H602 H 0.04537 0.5687 0.3412 0.0
H603 H 0.93883 0.52619 0.39294 0.0
H604 H 0.99039 0.43024 0.35485 0.0
H605 H 0.02893 0.5103 0.34771 0.0
H606 H 0.99579 0.51253 0.40078 0.0
O607 O 0.15046 0.44256 0.3763 0.0
H608 H 0.09621 0.36544 0.33921 0.0
H609 H 0.17672 0.38505 0.38246 0.0
H610 H 0.93353 0.44325 0.34629 0.0
H611 H 0.09784 0.56707 0.40494 0.0
H612 H 0.90735 0.49153 0.36543 0.0
H613 H 0.07996 0.59752 0.37 0.0
O614 O 0.02821 0.41257 0.38889 0.0
H615 H 0.14909 0.42766 0.45807 0.0
H616 H 0.11293 0.34683 0.39947 0.0
H617 H 0.12658 0.327 0.43842 0.0
H618 H 0.14494 0.36757 0.46803 0.0
H619 H 0.13471 0.4464 0.41898 0.0
H620 H 0.20762 0.34042 0.36343 0.0
H621 H 0.18224 0.30758 0.33194 0.0
O622 O 0.07178 0.38335 0.37763 0.0
C623 C 0.07026 0.44063 0.33789 0.0
C624 C 0.13741 0.33443 0.33357 0.0
C625 C 0.18319 0.34575 0.35799 0.0
N626 N 0.13471 0.37791 0.36193 0.0
C627 C 0.1206 0.35999 0.34461 0.0
C628 C 0.16562 0.3711 0.36864 0.0
C629 C 0.16892 0.32732 0.34034 0.0
C630 C 0.07308 0.52171 0.39547 0.0
N631 N 0.05393 0.5061 0.3796 0.0
C632 C 0.0827 0.5548 0.3923 0.0
C633 C 0.07269 0.57186 0.37268 0.0
C634 C 0.05329 0.55571 0.35651 0.0
C635 C 0.04414 0.5226 0.36025 0.0
C636 C 0.94998 0.50512 0.38448 0.0
C637 C 0.97925 0.4514 0.36314 0.0
C638 C 0.9822 0.4972 0.3889 0.0
N639 N 0.99648 0.47073 0.37816 0.0
C640 C 0.947 0.45859 0.35827 0.0
C641 C 0.93233 0.48566 0.36903 0.0
C642 C 0.04225 0.38521 0.38384 0.0
C643 C 0.1411 0.40974 0.44532 0.0
C644 C 0.12048 0.36464 0.41233 0.0
C645 C 0.1284 0.35326 0.43432 0.0
C646 C 0.13874 0.37603 0.45091 0.0
N647 N 0.12278 0.39774 0.40697 0.0
C648 C 0.13298 0.42019 0.42314 0.0
Co649 Co 0.49403 0.56545 0.39256 0.0
Co650 Co 0.42783 0.59889 0.36677 0.0
O651 O 0.44716 0.5665 0.38808 0.0
C652 C 0.50053 0.55992 0.44344 0.0
O653 O 0.51641 0.58832 0.44321 0.0
C654 C 0.39208 0.53489 0.35921 0.0
O655 O 0.41923 0.51876 0.36213 0.0
O656 O 0.45497 0.58104 0.34121 0.0
O657 O 0.50211 0.58062 0.36006 0.0
H658 H 0.4309 0.68529 0.3042 0.0
H659 H 0.45664 0.50462 0.40432 0.0
O660 O 0.48729 0.54912 0.42501 0.0
H661 H 0.53382 0.4691 0.34463 0.0
H662 H 0.59945 0.51722 0.42027 0.0
H663 H 0.5473 0.6122 0.38149 0.0
H664 H 0.53312 0.52733 0.35817 0.0
H665 H 0.54062 0.51756 0.41397 0.0
O666 O 0.39186 0.56662 0.35931 0.0
H667 H 0.4542 0.64533 0.33175 0.0
H668 H 0.36042 0.61982 0.35566 0.0
H669 H 0.60624 0.61281 0.38737 0.0
H670 H 0.45701 0.44596 0.39161 0.0
H671 H 0.6327 0.56508 0.4069 0.0
H672 H 0.49569 0.42789 0.36146 0.0
O673 O 0.49235 0.61282 0.40293 0.0
H674 H 0.35562 0.58968 0.436 0.0
H675 H 0.41274 0.66722 0.38414 0.0
H676 H 0.3808 0.68963 0.41639 0.0
H677 H 0.35184 0.65076 0.44254 0.0
H678 H 0.38813 0.5683 0.40368 0.0
H679 H 0.3361 0.6593 0.3282 0.0
H680 H 0.37142 0.69247 0.30229 0.0
O681 O 0.4622 0.63294 0.37408 0.0
C682 C 0.48581 0.58057 0.34137 0.0
C683 C 0.41525 0.67103 0.31543 0.0
C684 C 0.36205 0.65641 0.32888 0.0
N685 N 0.40874 0.63035 0.34539 0.0
C686 C 0.42832 0.6484 0.33111 0.0
C687 C 0.37597 0.63401 0.34435 0.0
C688 C 0.38188 0.67502 0.31436 0.0
C689 C 0.47383 0.49688 0.39141 0.0
N690 N 0.49483 0.51944 0.38204 0.0
C691 C 0.4738 0.46366 0.38418 0.0
C692 C 0.49546 0.45355 0.36723 0.0
C693 C 0.51682 0.47667 0.35775 0.0
C694 C 0.51617 0.50969 0.36541 0.0
C695 C 0.58821 0.53817 0.41174 0.0
C696 C 0.55861 0.59133 0.39001 0.0
C697 C 0.55488 0.53852 0.40814 0.0
N698 N 0.54047 0.56492 0.39739 0.0
C699 C 0.59201 0.59181 0.39328 0.0
C700 C 0.60685 0.56503 0.40424 0.0
C701 C 0.48153 0.63703 0.39099 0.0
C702 C 0.36804 0.60688 0.42467 0.0
C703 C 0.4003 0.65012 0.39547 0.0
C704 C 0.3822 0.66297 0.41369 0.0
C705 C 0.36595 0.64115 0.42835 0.0
N706 N 0.40209 0.61646 0.3919 0.0
C707 C 0.3864 0.59492 0.40629 0.0
Co708 Co 0.47099 0.43929 0.89068 0.0
Co709 Co 0.40738 0.39032 0.87475 0.0
O710 O 0.42523 0.42691 0.89329 0.0
C711 C 0.49293 0.44371 0.93895 0.0
O712 O 0.51647 0.42381 0.93267 0.0
C713 C 0.35742 0.44324 0.86795 0.0
O714 O 0.38035 0.46533 0.86441 0.0
O715 O 0.42176 0.41327 0.84628 0.0
O716 O 0.47202 0.42735 0.85689 0.0
H717 H 0.41023 0.30455 0.81166 0.0
H718 H 0.42505 0.48786 0.91042 0.0
O719 O 0.4711 0.45179 0.92442 0.0
H720 H 0.47126 0.54363 0.84231 0.0
H721 H 0.56865 0.51256 0.90347 0.0
H722 H 0.52821 0.40773 0.86944 0.0
H723 H 0.48889 0.48718 0.85321 0.0
H724 H 0.51116 0.49708 0.90675 0.0
O725 O 0.36451 0.41322 0.87289 0.0
H726 H 0.43181 0.35039 0.83547 0.0
H727 H 0.34465 0.35337 0.8739 0.0
H728 H 0.58585 0.42232 0.86565 0.0
H729 H 0.40701 0.54453 0.90027 0.0
H730 H 0.60642 0.47505 0.88276 0.0
H731 H 0.4301 0.57275 0.86595 0.0
O732 O 0.48314 0.39278 0.89913 0.0
H733 H 0.3564 0.38519 0.95309 0.0
H734 H 0.41287 0.32087 0.89306 0.0
H735 H 0.39691 0.29306 0.92914 0.0
H736 H 0.36835 0.32524 0.95944 0.0
H737 H 0.37317 0.41215 0.9168 0.0
H738 H 0.32194 0.30788 0.85026 0.0
H739 H 0.35489 0.28302 0.81897 0.0
O740 O 0.44906 0.36533 0.87596 0.0
C741 C 0.45046 0.42251 0.84149 0.0
C742 C 0.39564 0.31516 0.82526 0.0
C743 C 0.34608 0.31706 0.84691 0.0
N744 N 0.38957 0.3545 0.85612 0.0
C745 C 0.40776 0.34109 0.83884 0.0
C746 C 0.35902 0.34291 0.86017 0.0
C747 C 0.36459 0.3031 0.82936 0.0
C748 C 0.43546 0.50012 0.8956 0.0
N749 N 0.45812 0.48427 0.88252 0.0
C750 C 0.42505 0.53215 0.88988 0.0
C751 C 0.43797 0.54795 0.8706 0.0
C752 C 0.46104 0.53161 0.85731 0.0
C753 C 0.47085 0.49958 0.86354 0.0
C754 C 0.55998 0.48953 0.89592 0.0
C755 C 0.53697 0.43075 0.87689 0.0
C756 C 0.52745 0.48064 0.89771 0.0
N757 N 0.51633 0.45154 0.88826 0.0
C758 C 0.56963 0.43887 0.87471 0.0
C759 C 0.58115 0.46847 0.88431 0.0
C760 C 0.47336 0.36616 0.88937 0.0
C761 C 0.36876 0.37088 0.93999 0.0
C762 C 0.40058 0.3351 0.90619 0.0
C763 C 0.39153 0.31918 0.92657 0.0
C764 C 0.3755 0.33725 0.94355 0.0
N765 N 0.39384 0.3681 0.90281 0.0
C766 C 0.37822 0.38599 0.9194 0.0
Co767 Co 0.0341 0.57015 0.88249 0.0
Co768 Co 0.10887 0.60569 0.87229 0.0
O769 O 0.08114 0.57185 0.88641 0.0
C770 C 0.01096 0.56575 0.93095 0.0
O771 O 0.99063 0.58991 0.92633 0.0
C772 C 0.14036 0.5418 0.85861 0.0
O773 O 0.11189 0.5294 0.85346 0.0
O774 O 0.08887 0.59713 0.84154 0.0
O775 O 0.03727 0.58428 0.84956 0.0
H776 H 0.13135 0.70457 0.82171 0.0
H777 H 0.06836 0.51126 0.90127 0.0
O778 O 0.03057 0.55557 0.91553 0.0
H779 H 0.01571 0.47162 0.83015 0.0
H780 H 0.92375 0.51826 0.89145 0.0
H781 H 0.98526 0.61401 0.86102 0.0
H782 H 0.00922 0.52983 0.84293 0.0
H783 H 0.98287 0.52125 0.8962 0.0
O784 O 0.1429 0.57159 0.8659 0.0
H785 H 0.09723 0.66214 0.84061 0.0
H786 H 0.1797 0.62051 0.87302 0.0
H787 H 0.9262 0.61202 0.85585 0.0
H788 H 0.07513 0.45273 0.88925 0.0
H789 H 0.89503 0.56387 0.87113 0.0
H790 H 0.04879 0.43259 0.8534 0.0
O791 O 0.0302 0.61785 0.89203 0.0
H792 H 0.15743 0.5715 0.9479 0.0
H793 H 0.12705 0.66668 0.89888 0.0
H794 H 0.15111 0.67718 0.93707 0.0
H795 H 0.16656 0.62935 0.96184 0.0
H796 H 0.133 0.5622 0.90968 0.0
H797 H 0.21473 0.66222 0.85428 0.0
H798 H 0.19056 0.70476 0.82849 0.0
O799 O 0.07642 0.64102 0.87914 0.0
C800 C 0.05973 0.59153 0.8354 0.0
C801 C 0.14216 0.68623 0.83296 0.0
C802 C 0.18896 0.66243 0.85121 0.0
N803 N 0.13641 0.63901 0.85801 0.0
C804 C 0.12295 0.66222 0.84376 0.0
C805 C 0.16901 0.63879 0.86171 0.0
C806 C 0.17538 0.68629 0.83675 0.0
C807 C 0.05649 0.50261 0.8858 0.0
N808 N 0.03825 0.52394 0.87292 0.0
C809 C 0.06055 0.46947 0.87902 0.0
C810 C 0.04582 0.4582 0.85888 0.0
C811 C 0.02728 0.48009 0.84581 0.0
C812 C 0.02378 0.51308 0.85311 0.0
C813 C 0.93705 0.53938 0.88473 0.0
C814 C 0.97186 0.59302 0.86775 0.0
C815 C 0.97052 0.54121 0.88737 0.0
N816 N 0.98749 0.56784 0.87894 0.0
C817 C 0.93842 0.592 0.86476 0.0
C818 C 0.92096 0.56498 0.87333 0.0
C819 C 0.04836 0.64298 0.88806 0.0
C820 C 0.15075 0.59255 0.93728 0.0
C821 C 0.1334 0.64577 0.90967 0.0
C822 C 0.14717 0.65185 0.93122 0.0
C823 C 0.15586 0.62501 0.9451 0.0
N824 N 0.12839 0.61388 0.90215 0.0
C825 C 0.13691 0.58744 0.91563 0.0
Co826 Co 0.96912 0.56951 0.62863 0.0
Co827 Co 0.90519 0.60633 0.65516 0.0
O828 O 0.92265 0.57252 0.63419 0.0
C829 C 0.97281 0.56449 0.57779 0.0
O830 O 0.98934 0.59248 0.57818 0.0
C831 C 0.87059 0.54443 0.66959 0.0
O832 O 0.89863 0.52948 0.67142 0.0
O833 O 0.93314 0.58929 0.6806 0.0
O834 O 0.97926 0.58477 0.66078 0.0
H835 H 0.91236 0.69565 0.7157 0.0
H836 H 0.9276 0.51095 0.6189 0.0
O837 O 0.96038 0.55321 0.59636 0.0
H838 H 1.00656 0.47214 0.67641 0.0
H839 H 0.07092 0.51629 0.5986 0.0
H840 H 0.02483 0.61388 0.63829 0.0
H841 H 0.00854 0.52988 0.66195 0.0
H842 H 0.01248 0.51941 0.60629 0.0
O843 O 0.86935 0.57501 0.66387 0.0
H844 H 0.93383 0.65385 0.68866 0.0
H845 H 0.8387 0.62902 0.66716 0.0
H846 H 0.08342 0.61171 0.63103 0.0
H847 H 0.925 0.45285 0.63271 0.0
H848 H 0.10683 0.56266 0.61103 0.0
H849 H 0.96462 0.43314 0.66172 0.0
O850 O 0.96903 0.61676 0.618 0.0
H851 H 0.82893 0.59529 0.58827 0.0
H852 H 0.89104 0.67404 0.63635 0.0
H853 H 0.85795 0.69551 0.60439 0.0
H854 H 0.82647 0.65603 0.58015 0.0
H855 H 0.86266 0.57483 0.62025 0.0
H856 H 0.81619 0.67035 0.69415 0.0
H857 H 0.85312 0.70411 0.71858 0.0
O858 O 0.9398 0.63918 0.64652 0.0
C859 C 0.96386 0.58688 0.67977 0.0
C860 C 0.89601 0.68114 0.70511 0.0
C861 C 0.84204 0.66691 0.69303 0.0
N862 N 0.88757 0.63914 0.67624 0.0
C863 C 0.90804 0.65748 0.68972 0.0
C864 C 0.85493 0.64348 0.67783 0.0
C865 C 0.86278 0.68586 0.70673 0.0
C866 C 0.94513 0.50245 0.63135 0.0
N867 N 0.9683 0.52374 0.63948 0.0
C868 C 0.94345 0.46957 0.63918 0.0
C869 C 0.96566 0.45855 0.65549 0.0
C870 C 0.98918 0.48042 0.66375 0.0
C871 C 0.99011 0.51313 0.65554 0.0
C872 C 0.06102 0.53779 0.60734 0.0
C873 C 0.03483 0.59243 0.62961 0.0
C874 C 0.02794 0.53971 0.61174 0.0
N875 N 0.01523 0.56681 0.62276 0.0
C876 C 0.06803 0.59134 0.62554 0.0
C877 C 0.08115 0.56382 0.61432 0.0
C878 C 0.95912 0.6418 0.62951 0.0
C879 C 0.84248 0.61274 0.59875 0.0
C880 C 0.87756 0.65666 0.62581 0.0
C881 C 0.85879 0.66899 0.60777 0.0
C882 C 0.84113 0.64682 0.59418 0.0
N883 N 0.87866 0.6232 0.63024 0.0
C884 C 0.86155 0.60131 0.61691 0.0
Co885 Co 0.54294 0.44659 0.63476 0.0
Co886 Co 0.59959 0.39973 0.66225 0.0
O887 O 0.58824 0.43473 0.63991 0.0
C888 C 0.55857 0.43842 0.5847 0.0
O889 O 0.56567 0.40697 0.58828 0.0
C890 C 0.64916 0.45374 0.6704 0.0
O891 O 0.62734 0.4768 0.66681 0.0
O892 O 0.57696 0.42462 0.68719 0.0
O893 O 0.53192 0.43708 0.66778 0.0
H894 H 0.5772 0.31996 0.72704 0.0
H895 H 0.59358 0.49472 0.62089 0.0
O896 O 0.55198 0.45753 0.60157 0.0
H897 H 0.52627 0.55483 0.67718 0.0
H898 H 0.45205 0.51433 0.6014 0.0
H899 H 0.48042 0.41652 0.64857 0.0
H900 H 0.51339 0.49682 0.66638 0.0
H901 H 0.50902 0.5005 0.60888 0.0
O902 O 0.64142 0.42299 0.66955 0.0
H903 H 0.56354 0.36289 0.69836 0.0
H904 H 0.66025 0.36342 0.67407 0.0
H905 H 0.42311 0.42968 0.64172 0.0
H906 H 0.60711 0.5529 0.63097 0.0
H907 H 0.40861 0.47889 0.61797 0.0
H908 H 0.57338 0.5833 0.65937 0.0
O909 O 0.53325 0.39932 0.6265 0.0
H910 H 0.67194 0.38874 0.59329 0.0
H911 H 0.59929 0.32879 0.64636 0.0
H912 H 0.62503 0.29822 0.6145 0.0
H913 H 0.66174 0.32819 0.58772 0.0
H914 H 0.64539 0.41846 0.62525 0.0
H915 H 0.67501 0.32063 0.70263 0.0
H916 H 0.6333 0.29852 0.72932 0.0
O917 O 0.55889 0.37414 0.65557 0.0
C918 C 0.54732 0.43322 0.68664 0.0
C919 C 0.59558 0.32935 0.71548 0.0
C920 C 0.65048 0.32977 0.7018 0.0
N921 N 0.61104 0.36564 0.6845 0.0
C922 C 0.58798 0.35365 0.69917 0.0
C923 C 0.642 0.35409 0.68572 0.0
C924 C 0.62707 0.31736 0.71676 0.0
C925 C 0.57865 0.5079 0.63312 0.0
N926 N 0.55275 0.4924 0.64302 0.0
C927 C 0.58649 0.54079 0.63882 0.0
C928 C 0.56758 0.55781 0.65478 0.0
C929 C 0.54118 0.54184 0.6648 0.0
C930 C 0.53408 0.50893 0.65869 0.0
C931 C 0.45805 0.49287 0.61183 0.0
C932 C 0.47431 0.4381 0.63834 0.0
C933 C 0.49028 0.48485 0.61608 0.0
N934 N 0.49806 0.45784 0.6293 0.0
C935 C 0.44181 0.44538 0.63447 0.0
C936 C 0.43369 0.47297 0.62113 0.0
C937 C 0.53941 0.37362 0.6386 0.0
C938 C 0.65607 0.37538 0.60488 0.0
C939 C 0.61517 0.34206 0.63476 0.0
C940 C 0.62972 0.32458 0.61677 0.0
C941 C 0.65031 0.34142 0.60175 0.0
N942 N 0.62097 0.37538 0.63775 0.0
C943 C 0.64106 0.39206 0.62306 0.0
H944 H 0.32382 0.97777 0.17262 0.0
H945 H 0.35628 0.02581 0.10984 0.0
H946 H 0.3018 0.04931 0.10415 0.0
H947 H 0.24447 0.9569 0.15451 0.0
H948 H 0.22533 0.96656 0.18156 0.0
H949 H 0.2669 0.95354 0.181 0.0
H950 H 0.2839 0.00727 0.20269 0.0
H951 H 0.24233 0.02022 0.20361 0.0
H952 H 0.27249 0.04735 0.1913 0.0
H953 H 0.24271 0.06272 0.1032 0.0
H954 H 0.18544 0.0749 0.11074 0.0
H955 H 0.192 0.02384 0.17643 0.0
C956 C 0.31951 0.99368 0.15788 0.0
C957 C 0.34428 1.00009 0.14168 0.0
C958 C 0.33779 0.02093 0.12259 0.0
C959 C 0.30684 0.03411 0.1191 0.0
C960 C 0.28279 0.0268 0.13512 0.0
C961 C 0.28894 0.00786 0.15447 0.0
C962 C 0.25902 0.0049 0.16945 0.0
C963 C 0.2483 0.9683 0.17176 0.0
C964 C 0.26478 0.0209 0.19317 0.0
C965 C 0.235 0.02484 0.15535 0.0
C966 C 0.24913 0.0366 0.13538 0.0
C967 C 0.23154 0.05416 0.11897 0.0
C968 C 0.19891 0.06077 0.12337 0.0
C969 C 0.18427 0.05063 0.14429 0.0
C970 C 0.2026 0.03215 0.16038 0.0
H971 H 0.69524 0.9774 0.31062 0.0
H972 H 0.69046 0.94902 0.38271 0.0
H973 H 0.74635 0.9676 0.38819 0.0
H974 H 0.77865 0.9541 0.30108 0.0
H975 H 0.78786 0.98942 0.28304 0.0
H976 H 0.74729 0.97311 0.28408 0.0
H977 H 0.72568 0.03133 0.2956 0.0
H978 H 0.76612 0.04786 0.2943 0.0
H979 H 0.74269 0.05236 0.32025 0.0
H980 H 0.80273 0.98825 0.38639 0.0
H981 H 0.85456 0.01597 0.37836 0.0
H982 H 0.82406 0.03366 0.30788 0.0
C983 C 0.70595 0.9752 0.32756 0.0
C984 C 0.68816 0.96165 0.34621 0.0
C985 C 0.70319 0.95941 0.36811 0.0
C986 C 0.73517 0.9697 0.37142 0.0
C987 C 0.75208 0.98253 0.35274 0.0
C988 C 0.738 0.98584 0.3313 0.0
C989 C 0.76148 1.00198 0.31449 0.0
C990 C 0.76928 0.97823 0.29449 0.0
C991 C 0.7482 0.03536 0.30564 0.0
C992 C 0.79076 0.00722 0.32992 0.0
C993 C 0.7848 0.99537 0.35183 0.0
C994 C 0.80771 0.99768 0.3693 0.0
C995 C 0.8372 0.01343 0.36453 0.0
C996 C 0.84361 0.02705 0.34248 0.0
C997 C 0.82019 0.02321 0.32484 0.0
H998 H 0.80448 0.94069 0.86873 0.0
H999 H 0.85365 0.02006 0.83177 0.0
H1000 H 0.80138 0.04829 0.82575 0.0
H1001 H 0.73221 0.93862 0.83377 0.0
H1002 H 0.7058 0.93108 0.85787 0.0
H1003 H 0.7469 0.91657 0.85868 0.0
H1004 H 0.7565 0.94879 0.89676 0.0
H1005 H 0.7154 0.96321 0.89616 0.0
H1006 H 0.74811 0.99285 0.89795 0.0
H1007 H 0.74412 0.0684 0.82448 0.0
H1008 H 0.68634 0.08062 0.82957 0.0
H1009 H 0.6742 0.98816 0.86751 0.0
C1010 C 0.80432 0.96394 0.85927 0.0
C1011 C 0.83323 0.97811 0.85063 0.0
C1012 C 0.83188 0.00871 0.83852 0.0
C1013 C 0.80228 0.02486 0.83495 0.0
C1014 C 0.77427 0.01011 0.8436 0.0
C1015 C 0.77504 0.98042 0.8556 0.0
C1016 C 0.74163 0.97042 0.86379 0.0
C1017 C 0.73102 0.9372 0.85287 0.0
C1018 C 0.74035 0.96873 0.89023 0.0
C1019 C 0.72189 0.99927 0.85464 0.0
C1020 C 0.74121 0.02176 0.84294 0.0
C1021 C 0.72876 0.05091 0.83353 0.0
C1022 C 0.69585 0.05761 0.83654 0.0
C1023 C 0.67564 0.03532 0.8489 0.0
C1024 C 0.68886 0.00549 0.85772 0.0
H1025 H 0.17386 0.01655 0.64491 0.0
H1026 H 0.18938 0.91994 0.67669 0.0
H1027 H 0.24739 0.93238 0.68018 0.0
H1028 H 0.24604 0.01714 0.61168 0.0
H1029 H 0.25397 0.06105 0.6153 0.0
H1030 H 0.21311 0.04564 0.61633 0.0
H1031 H 0.20544 0.07236 0.65656 0.0
H1032 H 0.24622 0.08806 0.65558 0.0
H1033 H 0.23333 0.06243 0.67936 0.0
H1034 H 0.30415 0.9539 0.67881 0.0
H1035 H 0.35565 0.98419 0.67384 0.0
H1036 H 0.30396 0.06695 0.64297 0.0
C1037 C 0.18938 0.99824 0.65292 0.0
C1038 C 0.17692 0.96725 0.66054 0.0
C1039 C 0.19823 0.94381 0.67064 0.0
C1040 C 0.23129 0.95064 0.67273 0.0
C1041 C 0.24289 0.98106 0.66467 0.0
C1042 C 0.22263 0.00461 0.65508 0.0
C1043 C 0.24161 0.03499 0.64724 0.0
C1044 C 0.23849 0.03998 0.62108 0.0
C1045 C 0.23101 0.06631 0.66048 0.0
C1046 C 0.27561 0.0247 0.65383 0.0
C1047 C 0.27577 0.99351 0.66387 0.0
C1048 C 0.30432 0.97845 0.67108 0.0
C1049 C 0.33349 0.99583 0.66813 0.0
C1050 C 0.33396 0.02799 0.65806 0.0
C1051 C 0.30451 0.04245 0.65079 0.0
H1052 H 0.84423 0.52224 0.13924 0.0
H1053 H 0.83667 0.43904 0.18678 0.0
H1054 H 0.77909 0.4513 0.19255 0.0
H1055 H 0.78812 0.57748 0.17015 0.0
H1056 H 0.77129 0.59427 0.14401 0.0
H1057 H 0.81255 0.5802 0.14454 0.0
H1058 H 0.80058 0.54079 0.11022 0.0
H1059 H 0.75923 0.55448 0.10972 0.0
H1060 H 0.76827 0.51073 0.11249 0.0
H1061 H 0.72136 0.46991 0.19129 0.0
H1062 H 0.66829 0.49632 0.1851 0.0
H1063 H 0.71289 0.56823 0.13907 0.0
C1064 C 0.83063 0.50698 0.15119 0.0
C1065 C 0.84517 0.4796 0.16251 0.0
C1066 C 0.82625 0.46006 0.1778 0.0
C1067 C 0.79341 0.46682 0.18122 0.0
C1068 C 0.77966 0.49337 0.16937 0.0
C1069 C 0.79769 0.51342 0.15486 0.0
C1070 C 0.77667 0.53997 0.14387 0.0
C1071 C 0.78782 0.57506 0.15108 0.0
C1072 C 0.77617 0.53625 0.11751 0.0
C1073 C 0.74406 0.53141 0.15427 0.0
C1074 C 0.74634 0.5044 0.16889 0.0
C1075 C 0.71932 0.49128 0.18003 0.0
C1076 C 0.68922 0.50638 0.17633 0.0
C1077 C 0.68632 0.53443 0.16168 0.0
C1078 C 0.71424 0.54694 0.15049 0.0
H1079 H 0.33673 0.54463 0.33384 0.0
H1080 H 0.37697 0.48568 0.38933 0.0
H1081 H 0.32334 0.46043 0.39639 0.0
H1082 H 0.25929 0.56002 0.35811 0.0
H1083 H 0.23717 0.55471 0.33162 0.0
H1084 H 0.27853 0.5687 0.33092 0.0
H1085 H 0.29347 0.51975 0.30388 0.0
H1086 H 0.25206 0.50588 0.30424 0.0
H1087 H 0.28385 0.47763 0.31235 0.0
H1088 H 0.26452 0.44599 0.39992 0.0
H1089 H 0.20658 0.43399 0.39485 0.0
H1090 H 0.20505 0.49612 0.33373 0.0
C1091 C 0.33421 0.52607 0.34725 0.0
C1092 C 0.36091 0.51699 0.36105 0.0
C1093 C 0.35686 0.49265 0.37844 0.0
C1094 C 0.32645 0.47843 0.3827 0.0
C1095 C 0.30047 0.48821 0.36904 0.0
C1096 C 0.30417 0.51071 0.35122 0.0
C1097 C 0.27254 0.51547 0.33838 0.0
C1098 C 0.26123 0.55189 0.33985 0.0
C1099 C 0.27567 0.50399 0.31322 0.0
C1100 C 0.25043 0.49248 0.35197 0.0
C1101 C 0.26696 0.47764 0.36989 0.0
C1102 C 0.25147 0.45693 0.38567 0.0
C1103 C 0.21845 0.45039 0.3827 0.0
C1104 C 0.20133 0.46371 0.36371 0.0
C1105 C 0.21758 0.48528 0.34826 0.0
H1106 H 0.20326 0.56272 0.86186 0.0
H1107 H 0.14435 0.47387 0.85304 0.0
H1108 H 0.19369 0.43927 0.85373 0.0
H1109 H 0.27045 0.53549 0.82628 0.0
H1110 H 0.30036 0.55459 0.84463 0.0
H1111 H 0.26052 0.57226 0.84267 0.0
H1112 H 0.25442 0.56798 0.88693 0.0
H1113 H 0.29415 0.55016 0.88905 0.0
H1114 H 0.2599 0.52822 0.90083 0.0
H1115 H 0.24908 0.41431 0.85768 0.0
H1116 H 0.30658 0.40059 0.86229 0.0
H1117 H 0.32989 0.50597 0.86749 0.0
C1118 C 0.20066 0.53599 0.8599 0.0
C1119 C 0.16985 0.52098 0.8574 0.0
C1120 C 0.16764 0.48594 0.85486 0.0
C1121 C 0.19553 0.4661 0.8553 0.0
C1122 C 0.22545 0.48171 0.85809 0.0
C1123 C 0.22821 0.5159 0.86013 0.0
C1124 C 0.26315 0.5265 0.86315 0.0
C1125 C 0.27427 0.54851 0.84298 0.0
C1126 C 0.26819 0.54426 0.88637 0.0
C1127 C 0.2797 0.49286 0.86275 0.0
C1128 C 0.25745 0.46738 0.8599 0.0
C1129 C 0.2667 0.43406 0.85974 0.0
C1130 C 0.2995 0.42654 0.86249 0.0
C1131 C 0.32288 0.45219 0.86522 0.0
C1132 C 0.31271 0.48582 0.86525 0.0
H1133 H 0.67941 0.5145 0.66322 0.0
H1134 H 0.69734 0.4129 0.68549 0.0
H1135 H 0.75529 0.42558 0.68912 0.0
H1136 H 0.75011 0.52249 0.62901 0.0
H1137 H 0.75761 0.5655 0.63635 0.0
H1138 H 0.71702 0.54929 0.63683 0.0
H1139 H 0.71078 0.56819 0.67924 0.0
H1140 H 0.75134 0.58458 0.67886 0.0
H1141 H 0.7397 0.55452 0.70039 0.0
H1142 H 0.81196 0.44819 0.68851 0.0
H1143 H 0.86299 0.47969 0.68412 0.0
H1144 H 0.80866 0.5666 0.66239 0.0
C1145 C 0.69545 0.49508 0.66919 0.0
C1146 C 0.68365 0.46269 0.67411 0.0
C1147 C 0.70564 0.43788 0.68156 0.0
C1148 C 0.7387 0.44483 0.68373 0.0
C1149 C 0.74961 0.47678 0.67842 0.0
C1150 C 0.72868 0.50156 0.67138 0.0
C1151 C 0.74696 0.53345 0.66594 0.0
C1152 C 0.74267 0.54324 0.64052 0.0
C1153 C 0.73657 0.56186 0.68208 0.0
C1154 C 0.78134 0.52259 0.67087 0.0
C1155 C 0.78234 0.48983 0.6781 0.0
C1156 C 0.81146 0.47397 0.68303 0.0
C1157 C 0.84036 0.49205 0.68046 0.0
C1158 C 0.83996 0.52568 0.67304 0.0
C1159 C 0.80991 0.54103 0.6683 0.0
H1160 H 0.94552 0.08526 0.28817 0.0
H1161 H 0.03542 0.10441 0.32472 0.0
H1162 H 0.06495 0.1037 0.28847 0.0
H1163 H 0.97924 0.02944 0.24587 0.0
H1164 H 0.95525 0.04483 0.22229 0.0
H1165 H 0.93999 0.04706 0.25129 0.0
H1166 H 0.93174 0.11076 0.2469 0.0
H1167 H 0.94685 0.10863 0.21785 0.0
H1168 H 0.9653 0.13664 0.23831 0.0
H1169 H 0.08606 0.10001 0.24885 0.0
H1170 H 0.09666 0.09505 0.20723 0.0
H1171 H 0.99414 0.07928 0.19521 0.0
C1172 C 0.97136 0.0894 0.28851 0.0
C1173 C 0.98788 0.09468 0.30956 0.0
C1174 C 0.02184 0.10008 0.30908 0.0
C1175 C 0.03909 0.09977 0.28847 0.0
C1176 C 0.02229 0.09422 0.26818 0.0
C1177 C 0.98922 0.0893 0.26787 0.0
C1178 C 0.97747 0.08397 0.24337 0.0
C1179 C 0.96208 0.04926 0.24055 0.0
C1180 C 0.95395 0.11165 0.23619 0.0
C1181 C 0.00914 0.08653 0.23026 0.0
C1182 C 0.03464 0.0924 0.24497 0.0
C1183 C 0.06629 0.09546 0.23707 0.0
C1184 C 0.0721 0.09253 0.21338 0.0
C1185 C 0.04636 0.08666 0.19785 0.0
C1186 C 0.01446 0.08368 0.20654 0.0
H1187 H 0.51606 0.92709 0.20259 0.0
H1188 H 0.41342 0.92909 0.21804 0.0
H1189 H 0.426 0.93073 0.25949 0.0
H1190 H 0.53877 0.87388 0.25003 0.0
H1191 H 0.5764 0.89519 0.25541 0.0
H1192 H 0.55962 0.89449 0.22679 0.0
H1193 H 0.5613 0.95899 0.2255 0.0
H1194 H 0.57808 0.95995 0.25412 0.0
H1195 H 0.54159 0.98257 0.24785 0.0
H1196 H 0.44903 0.9328 0.29884 0.0
H1197 H 0.48073 0.93337 0.33434 0.0
H1198 H 0.56944 0.92899 0.29444 0.0
C1199 C 0.49616 0.9279 0.21465 0.0
C1200 C 0.46363 0.92809 0.20691 0.0
C1201 C 0.43846 0.92897 0.2234 0.0
C1202 C 0.44538 0.92994 0.24702 0.0
C1203 C 0.47759 0.92984 0.25398 0.0
C1204 C 0.50261 0.92868 0.23836 0.0
C1205 C 0.5351 0.92842 0.25059 0.0
C1206 C 0.55356 0.89607 0.24539 0.0
C1207 C 0.5552 0.95933 0.24413 0.0
C1208 C 0.52437 0.92975 0.27557 0.0
C1209 C 0.49106 0.93064 0.27698 0.0
C1210 C 0.47512 0.93205 0.29797 0.0
C1211 C 0.49355 0.9324 0.31812 0.0
C1212 C 0.52783 0.93126 0.3174 0.0
C1213 C 0.54339 0.92996 0.29569 0.0
H1214 H 0.06305 0.92815 0.72058 0.0
H1215 H 0.97528 0.93924 0.68027 0.0
H1216 H 0.94303 0.93758 0.71558 0.0
H1217 H 0.03064 0.872 0.76259 0.0
H1218 H 0.0519 0.89025 0.7866 0.0
H1219 H 0.06885 0.89261 0.75809 0.0
H1220 H 0.07229 0.95697 0.7615 0.0
H1221 H 0.05548 0.95474 0.79006 0.0
H1222 H 0.03648 0.98031 0.76848 0.0
H1223 H 0.91947 0.9319 0.75466 0.0
H1224 H 0.90654 0.92748 0.796 0.0
H1225 H 0.0089 0.92292 0.81189 0.0
C1226 C 0.03709 0.93049 0.7192 0.0
C1227 C 0.02188 0.93372 0.69749 0.0
C1228 C 0.98774 0.9367 0.69655 0.0
C1229 C 0.96905 0.93572 0.71657 0.0
C1230 C 0.98468 0.9321 0.73757 0.0
C1231 C 0.0179 0.92995 0.73915 0.0
C1232 C 0.02839 0.9266 0.76409 0.0
C1233 C 0.04598 0.89339 0.76807 0.0
C1234 C 0.0494 0.95644 0.77146 0.0
C1235 C 0.99584 0.92703 0.77611 0.0
C1236 C 0.97098 0.92991 0.76042 0.0
C1237 C 0.93872 0.9299 0.76718 0.0
C1238 C 0.9316 0.92722 0.79069 0.0
C1239 C 0.95665 0.925 0.8072 0.0
C1240 C 0.9892 0.92487 0.79971 0.0
H1241 H 0.50741 0.08423 0.70216 0.0
H1242 H 0.40483 0.08586 0.71765 0.0
H1243 H 0.41732 0.08313 0.75914 0.0
H1244 H 0.53093 0.02749 0.74682 0.0
H1245 H 0.56825 0.04887 0.75313 0.0
H1246 H 0.55136 0.05072 0.72458 0.0
H1247 H 0.55198 0.11524 0.72633 0.0
H1248 H 0.5689 0.11365 0.75488 0.0
H1249 H 0.53202 0.1362 0.7498 0.0
H1250 H 0.44071 0.0792 0.79881 0.0
H1251 H 0.47323 0.07708 0.83419 0.0
H1252 H 0.56101 0.07969 0.79327 0.0
C1253 C 0.48751 0.08397 0.71424 0.0
C1254 C 0.45506 0.08514 0.70655 0.0
C1255 C 0.42985 0.08501 0.72303 0.0
C1256 C 0.4367 0.08339 0.74666 0.0
C1257 C 0.46889 0.08217 0.7536 0.0
C1258 C 0.49391 0.08269 0.73791 0.0
C1259 C 0.5264 0.08178 0.74997 0.0
C1260 C 0.54535 0.05034 0.74322 0.0
C1261 C 0.54597 0.11362 0.74495 0.0
C1262 C 0.51573 0.08047 0.77492 0.0
C1263 C 0.48245 0.08057 0.77657 0.0
C1264 C 0.46679 0.07922 0.79773 0.0
C1265 C 0.48558 0.07797 0.81777 0.0
C1266 C 0.51981 0.07825 0.81664 0.0
C1267 C 0.53496 0.07946 0.79481 0.0
H1268 H 0.51356 0.58118 0.20478 0.0
H1269 H 0.61538 0.59832 0.21851 0.0
H1270 H 0.60407 0.59781 0.26029 0.0
H1271 H 0.48343 0.63343 0.25064 0.0
H1272 H 0.44984 0.60632 0.25703 0.0
H1273 H 0.46593 0.60798 0.22825 0.0
H1274 H 0.47468 0.5441 0.22887 0.0
H1275 H 0.45868 0.54217 0.25767 0.0
H1276 H 0.49826 0.52579 0.25166 0.0
H1277 H 0.58201 0.59376 0.3004 0.0
H1278 H 0.55085 0.58929 0.33621 0.0
H1279 H 0.46264 0.57646 0.2966 0.0
C1280 C 0.53358 0.58487 0.21651 0.0
C1281 C 0.56548 0.58968 0.20827 0.0
C1282 C 0.59079 0.59462 0.22432 0.0
C1283 C 0.5846 0.5943 0.2481 0.0
C1284 C 0.55293 0.5893 0.25556 0.0
C1285 C 0.5278 0.58494 0.24025 0.0
C1286 C 0.49591 0.5804 0.25275 0.0
C1287 C 0.47239 0.60873 0.24681 0.0
C1288 C 0.48102 0.54607 0.24742 0.0
C1289 C 0.50705 0.58263 0.27757 0.0
C1290 C 0.54006 0.58765 0.27874 0.0
C1291 C 0.55615 0.59 0.29969 0.0
C1292 C 0.5381 0.58734 0.31999 0.0
C1293 C 0.50412 0.58255 0.31937 0.0
C1294 C 0.48849 0.58019 0.29775 0.0
H1295 H 0.01199 0.44943 0.31609 0.0
H1296 H 0.11335 0.43009 0.30257 0.0
H1297 H 0.10149 0.42695 0.26094 0.0
H1298 H 0.98131 0.39227 0.27431 0.0
H1299 H 0.94748 0.41797 0.26637 0.0
H1300 H 0.9641 0.42068 0.29497 0.0
H1301 H 0.97274 0.4842 0.28989 0.0
H1302 H 0.95602 0.4818 0.2613 0.0
H1303 H 0.99567 0.49935 0.26567 0.0
H1304 H 0.07867 0.42555 0.22102 0.0
H1305 H 0.04677 0.42413 0.18545 0.0
H1306 H 0.95925 0.44177 0.22479 0.0
C1307 C 0.03185 0.44485 0.30444 0.0
C1308 C 0.06376 0.44031 0.31272 0.0
C1309 C 0.08881 0.43389 0.29674 0.0
C1310 C 0.08228 0.43203 0.27304 0.0
C1311 C 0.05054 0.43633 0.26558 0.0
C1312 C 0.02571 0.44246 0.2808 0.0
C1313 C 0.99352 0.44484 0.26838 0.0
C1314 C 0.97023 0.4173 0.2765 0.0
C1315 C 0.97862 0.47962 0.2715 0.0
C1316 C 1.00412 0.43915 0.24371 0.0
C1317 C 0.03716 0.43452 0.24255 0.0
C1318 C 0.05281 0.42909 0.22173 0.0
C1319 C 0.03432 0.42837 0.20156 0.0
C1320 C 1.00032 0.43279 0.20217 0.0
C1321 C 0.9851 0.43819 0.22366 0.0
H1322 H 0.56807 0.42378 0.73172 0.0
H1323 H 0.48346 0.44859 0.69095 0.0
H1324 H 0.4504 0.44928 0.72592 0.0
H1325 H 0.52813 0.36968 0.7712 0.0
H1326 H 0.55072 0.38313 0.79608 0.0
H1327 H 0.56862 0.38556 0.76787 0.0
H1328 H 0.5796 0.44864 0.77385 0.0
H1329 H 0.5618 0.44634 0.80211 0.0
H1330 H 0.54666 0.47582 0.78137 0.0
H1331 H 0.42522 0.44368 0.76455 0.0
H1332 H 0.41046 0.43635 0.80541 0.0
H1333 H 0.51099 0.418 0.82217 0.0
C1334 C 0.54269 0.42975 0.73017 0.0
C1335 C 0.52855 0.43606 0.7084 0.0
C1336 C 0.49511 0.44359 0.70726 0.0
C1337 C 0.47596 0.44404 0.72709 0.0
C1338 C 0.49047 0.43724 0.74813 0.0
C1339 C 0.5231 0.43062 0.74994 0.0
C1340 C 0.53236 0.42398 0.77481 0.0
C1341 C 0.54574 0.38848 0.77765 0.0
C1342 C 0.55654 0.45027 0.78355 0.0
C1343 C 0.49978 0.42763 0.78654 0.0
C1344 C 0.47596 0.43505 0.77075 0.0
C1345 C 0.4437 0.43823 0.77716 0.0
C1346 C 0.43552 0.4339 0.80039 0.0
C1347 C 0.45955 0.42685 0.817 0.0
C1348 C 0.49213 0.42381 0.80991 0.0
H1349 H 0.99925 0.58796 0.81568 0.0
H1350 H 0.10097 0.59792 0.79865 0.0
H1351 H 0.08705 0.59814 0.75735 0.0
H1352 H 0.97779 0.53339 0.7695 0.0
H1353 H 0.93896 0.55221 0.76452 0.0
H1354 H 0.95669 0.55343 0.79283 0.0
H1355 H 0.95183 0.61778 0.79333 0.0
H1356 H 0.93402 0.61681 0.76502 0.0
H1357 H 0.96951 0.6418 0.77031 0.0
H1358 H 0.06262 0.59531 0.71811 0.0
H1359 H 0.0294 0.59208 0.68321 0.0
H1360 H 0.94279 0.58537 0.72519 0.0
C1361 C 0.01868 0.59029 0.80332 0.0
C1362 C 0.05132 0.59283 0.81053 0.0
C1363 C 0.07584 0.59596 0.79366 0.0
C1364 C 0.06817 0.59606 0.77013 0.0
C1365 C 0.03584 0.59326 0.76368 0.0
C1366 C 0.01145 0.59067 0.77975 0.0
C1367 C 0.97865 0.58805 0.76816 0.0
C1368 C 0.96205 0.55479 0.77411 0.0
C1369 C 0.95724 0.61789 0.77459 0.0
C1370 C 0.98846 0.58927 0.74301 0.0
C1371 C 0.0216 0.59221 0.74091 0.0
C1372 C 0.03665 0.59319 0.71954 0.0
C1373 C 0.01742 0.59125 0.69976 0.0
C1374 C 0.9833 0.5885 0.7013 0.0
C1375 C 0.96872 0.58757 0.72334 0.0
H1376 H 0.01943 0.18198 0.15527 0.0
H1377 H 0.01392 0.16404 0.08185 0.0
H1378 H 1.00031 0.22364 0.07551 0.0
H1379 H 0.95164 0.24122 0.15758 0.0
H1380 H 0.9707 0.266 0.17967 0.0
H1381 H 0.97846 0.22188 0.17801 0.0
H1382 H 0.03989 0.23405 0.17579 0.0
H1383 H 0.03231 0.2782 0.17704 0.0
H1384 H 0.05513 0.26103 0.15346 0.0
H1385 H 0.99308 0.28679 0.07742 0.0
H1386 H 0.9842 0.34613 0.08764 0.0
H1387 H 0.9904 0.32093 0.16005 0.0
C1388 C 0.01463 0.19056 0.13792 0.0
C1389 C 0.01737 0.1687 0.11901 0.0
C1390 C 0.01133 0.18053 0.09651 0.0
C1391 C 1.00391 0.2143 0.09279 0.0
C1392 C 1.00209 0.23551 0.11183 0.0
C1393 C 1.00649 0.22385 0.134 0.0
C1394 C 1.003 0.25149 0.15156 0.0
C1395 C 0.97424 0.24474 0.16765 0.0
C1396 C 0.03446 0.25648 0.16526 0.0
C1397 C 0.99652 0.28075 0.13584 0.0
C1398 C 0.99649 0.27121 0.11296 0.0
C1399 C 0.99259 0.29441 0.09529 0.0
C1400 C 0.98787 0.32804 0.10122 0.0
C1401 C 0.98657 0.33793 0.12458 0.0
C1402 C 0.99109 0.31394 0.14204 0.0
H1403 H 0.52309 0.8371 0.13603 0.0
H1404 H 0.42157 0.8168 0.12395 0.0
H1405 H 0.43313 0.75717 0.11994 0.0
H1406 H 0.55548 0.77296 0.09741 0.0
H1407 H 0.58779 0.76177 0.11667 0.0
H1408 H 0.57224 0.8037 0.11671 0.0
H1409 H 0.56084 0.79923 0.16043 0.0
H1410 H 0.57634 0.75733 0.16052 0.0
H1411 H 0.5362 0.76544 0.17104 0.0
H1412 H 0.45472 0.69961 0.11844 0.0
H1413 H 0.48491 0.64701 0.12149 0.0
H1414 H 0.57252 0.7031 0.13625 0.0
C1415 C 0.50343 0.82013 0.1322 0.0
C1416 C 0.47136 0.83182 0.13012 0.0
C1417 C 0.44624 0.80866 0.1256 0.0
C1418 C 0.45259 0.77462 0.1232 0.0
C1419 C 0.48426 0.76383 0.12559 0.0
C1420 C 0.50931 0.78574 0.13014 0.0
C1421 C 0.54077 0.76703 0.13343 0.0
C1422 C 0.56553 0.77696 0.11495 0.0
C1423 C 0.55433 0.77259 0.1578 0.0
C1424 C 0.5293 0.73133 0.13014 0.0
C1425 C 0.49668 0.73017 0.12539 0.0
C1426 C 0.48034 0.70013 0.12206 0.0
C1427 C 0.49776 0.67034 0.12381 0.0
C1428 C 0.53117 0.67072 0.12905 0.0
C1429 C 0.54707 0.70179 0.1321 0.0
H1430 H 0.49489 0.68563 0.35977 0.0
H1431 H 0.49311 0.66569 0.43307 0.0
H1432 H 0.50748 0.7248 0.44084 0.0
H1433 H 0.56436 0.74084 0.3616 0.0
H1434 H 0.54922 0.7673 0.339 0.0
H1435 H 0.53834 0.72378 0.33963 0.0
H1436 H 0.47776 0.73978 0.33916 0.0
H1437 H 0.48845 0.78335 0.33873 0.0
H1438 H 0.4623 0.76743 0.36098 0.0
H1439 H 0.51867 0.7876 0.44017 0.0
H1440 H 0.53338 0.8462 0.43119 0.0
H1441 H 0.53203 0.8228 0.35833 0.0
C1442 C 0.49764 0.69371 0.37746 0.0
C1443 C 0.49271 0.67131 0.39587 0.0
C1444 C 0.49692 0.68256 0.41877 0.0
C1445 C 0.50486 0.71607 0.42331 0.0
C1446 C 0.50911 0.7377 0.40472 0.0
C1447 C 0.5063 0.72672 0.38224 0.0
C1448 C 0.51335 0.7544 0.36527 0.0
C1449 C 0.54309 0.74608 0.35051 0.0
C1450 C 0.48369 0.76166 0.35015 0.0
C1451 C 0.52024 0.78288 0.38165 0.0
C1452 C 0.51722 0.77299 0.40434 0.0
C1453 C 0.52141 0.79548 0.42246 0.0
C1454 C 0.52952 0.82872 0.41723 0.0
C1455 C 0.53392 0.83887 0.39411 0.0
C1456 C 0.52903 0.81562 0.37617 0.0
H1457 H 0.06429 0.3218 0.39197 0.0
H1458 H 0.97717 0.37756 0.37716 0.0
H1459 H 0.94626 0.32479 0.37543 0.0
H1460 H 0.04914 0.25243 0.35627 0.0
H1461 H 0.06497 0.22204 0.37609 0.0
H1462 H 0.0801 0.26418 0.37655 0.0
H1463 H 0.0658 0.269 0.41984 0.0
H1464 H 0.05078 0.22677 0.41953 0.0
H1465 H 0.02516 0.26022 0.42919 0.0
H1466 H 0.92655 0.26566 0.37094 0.0
H1467 H 0.9175 0.20513 0.36895 0.0
H1468 H 0.0159 0.18806 0.39167 0.0
C1469 C 0.0387 0.32304 0.38857 0.0
C1470 C 0.02323 0.35388 0.38455 0.0
C1471 C 0.98957 0.35428 0.3803 0.0
C1472 C 0.97183 0.32442 0.37924 0.0
C1473 C 0.98797 0.29445 0.38302 0.0
C1474 C 0.02052 0.29359 0.38806 0.0
C1475 C 0.03201 0.25813 0.39178 0.0
C1476 C 0.05809 0.24865 0.37412 0.0
C1477 C 0.04414 0.25325 0.41656 0.0
C1478 C 1.00092 0.23908 0.38756 0.0
C1479 C 0.97594 0.2605 0.38225 0.0
C1480 C 0.94567 0.24869 0.37572 0.0
C1481 C 0.94073 0.21412 0.37473 0.0
C1482 C 0.96563 0.1916 0.38082 0.0
C1483 C 0.99608 0.20447 0.38744 0.0
H1484 H 0.99309 0.67419 0.87371 0.0
H1485 H 0.07904 0.68787 0.91518 0.0
H1486 H 0.06617 0.74744 0.92002 0.0
H1487 H 0.99924 0.74888 0.84348 0.0
H1488 H 0.95664 0.75781 0.84267 0.0
H1489 H 0.97021 0.71532 0.84467 0.0
H1490 H 0.9363 0.70682 0.88167 0.0
H1491 H 0.92229 0.74923 0.87962 0.0
H1492 H 0.9416 0.73498 0.9056 0.0
H1493 H 0.04733 0.80632 0.91697 0.0
H1494 H 0.02165 0.86034 0.90828 0.0
H1495 H 0.94734 0.80867 0.86912 0.0
C1496 C 0.00855 0.6896 0.88437 0.0
C1497 C 0.03708 0.67663 0.89409 0.0
C1498 C 0.0573 0.69755 0.90743 0.0
C1499 C 0.05008 0.73135 0.91037 0.0
C1500 C 0.02243 0.74381 0.8999 0.0
C1501 C 1.00172 0.72357 0.8874 0.0
C1502 C 0.9747 0.74379 0.87677 0.0
C1503 C 0.97525 0.7413 0.85033 0.0
C1504 C 0.94177 0.73307 0.88651 0.0
C1505 C 0.98393 0.7785 0.88486 0.0
C1506 C 0.01144 0.77793 0.89825 0.0
C1507 C 0.02548 0.80708 0.90677 0.0
C1508 C 0.01082 0.83767 0.90163 0.0
C1509 C 0.9824 0.83886 0.8881 0.0
C1510 C 0.96888 0.80873 0.87969 0.0
H1511 H 0.48388 0.31643 0.85876 0.0
H1512 H 0.49714 0.34319 0.93042 0.0
H1513 H 0.51403 0.28514 0.93903 0.0
H1514 H 0.45118 0.23708 0.8673 0.0
H1515 H 0.47149 0.21793 0.84328 0.0
H1516 H 0.46244 0.2618 0.84267 0.0
H1517 H 0.52283 0.27584 0.83572 0.0
H1518 H 0.53198 0.23197 0.83576 0.0
H1519 H 0.5529 0.2597 0.85515 0.0
H1520 H 0.52479 0.22194 0.93983 0.0
H1521 H 0.53699 0.16242 0.93161 0.0
H1522 H 0.51843 0.17954 0.85918 0.0
C1523 C 0.49101 0.31023 0.87618 0.0
C1524 C 0.48944 0.33414 0.89394 0.0
C1525 C 0.49872 0.32521 0.91655 0.0
C1526 C 0.50797 0.29227 0.9216 0.0
C1527 C 0.5082 0.26892 0.90375 0.0
C1528 C 0.50071 0.27783 0.88138 0.0
C1529 C 0.50295 0.24849 0.86515 0.0
C1530 C 0.47006 0.24089 0.85395 0.0
C1531 C 0.52923 0.25435 0.84687 0.0
C1532 C 0.51254 0.22144 0.88185 0.0
C1533 C 0.51511 0.23341 0.9041 0.0
C1534 C 0.52308 0.21243 0.92243 0.0
C1535 C 0.52961 0.17867 0.9177 0.0
C1536 C 0.5285 0.16662 0.89482 0.0
C1537 C 0.5194 0.18822 0.87684 0.0
H1538 H 0.47695 0.18944 0.66471 0.0
H1539 H 0.48619 0.16832 0.59189 0.0
H1540 H 0.50291 0.22698 0.5849 0.0
H1541 H 0.44669 0.27164 0.66065 0.0
H1542 H 0.46971 0.28773 0.68457 0.0
H1543 H 0.45856 0.2443 0.68375 0.0
H1544 H 0.51865 0.22732 0.68781 0.0
H1545 H 0.52991 0.2707 0.68904 0.0
H1546 H 0.54793 0.24375 0.66783 0.0
H1547 H 0.51473 0.28945 0.58595 0.0
H1548 H 0.53013 0.34761 0.59557 0.0
H1549 H 0.51766 0.32584 0.6681 0.0
C1550 C 0.48294 0.19718 0.64736 0.0
C1551 C 0.48045 0.17466 0.62879 0.0
C1552 C 0.48837 0.18534 0.6063 0.0
C1553 C 0.49757 0.21859 0.60219 0.0
C1554 C 0.49926 0.24048 0.62086 0.0
C1555 C 0.49298 0.22994 0.64308 0.0
C1556 C 0.4979 0.25786 0.66029 0.0
C1557 C 0.46633 0.26584 0.67306 0.0
C1558 C 0.52522 0.2494 0.67724 0.0
C1559 C 0.50752 0.28595 0.6443 0.0
C1560 C 0.50764 0.27566 0.62158 0.0
C1561 C 0.51498 0.29766 0.6037 0.0
C1562 C 0.52338 0.33069 0.60928 0.0
C1563 C 0.52495 0.3411 0.63253 0.0
C1564 C 0.51656 0.31848 0.65017 0.0
H1565 H 0.01708 0.82607 0.65865 0.0
H1566 H 0.01865 0.84698 0.58547 0.0
H1567 H 1.00026 0.78913 0.57747 0.0
H1568 H 0.04564 0.74371 0.65628 0.0
H1569 H 0.01966 0.72833 0.6788 0.0
H1570 H 0.03183 0.77147 0.67859 0.0
H1571 H 0.97187 0.7898 0.67917 0.0
H1572 H 0.9595 0.74671 0.67968 0.0
H1573 H 0.94457 0.77407 0.65753 0.0
H1574 H 0.98642 0.72677 0.57788 0.0
H1575 H 0.97052 0.6684 0.58678 0.0
H1576 H 0.97465 0.69094 0.6597 0.0
C1577 C 0.01313 0.81859 0.64094 0.0
C1578 C 0.01925 0.84081 0.62263 0.0
C1579 C 0.01377 0.83029 0.5997 0.0
C1580 C 1.0036 0.79747 0.59503 0.0
C1581 C 0.9985 0.77586 0.61352 0.0
C1582 C 1.00241 0.78632 0.63604 0.0
C1583 C 0.99494 0.75869 0.65293 0.0
C1584 C 0.0248 0.75005 0.6675 0.0
C1585 C 0.966 0.76787 0.66822 0.0
C1586 C 0.98656 0.73081 0.63644 0.0
C1587 C 0.98914 0.74092 0.61377 0.0
C1588 C 0.9839 0.71876 0.59557 0.0
C1589 C 0.97514 0.68568 0.60075 0.0
C1590 C 0.97118 0.67543 0.62387 0.0
C1591 C 0.97717 0.69829 0.64185 0.0
H1592 H 0.99794 0.99778 0.94426 0.0
H1593 H 0.93951 0.91556 0.96976 0.0
H1594 H 0.94826 0.93508 0.00951 0.0
H1595 H 0.05656 0.99712 0.99002 0.0
H1596 H 0.0607 0.04184 0.99119 0.0
H1597 H 0.04977 0.02176 0.96454 0.0
H1598 H 0.99861 0.05849 0.96183 0.0
H1599 H 0.0094 0.07874 0.98845 0.0
H1600 H 0.97044 0.05905 0.98547 0.0
H1601 H 0.96353 0.9625 0.04624 0.0
H1602 H 0.98352 0.99679 0.07821 0.0
H1603 H 0.03212 0.06232 0.02965 0.0
C1604 C 0.98693 0.98391 0.9582 0.0
C1605 C 0.96805 0.95504 0.95385 0.0
C1606 C 0.9541 0.93765 0.9726 0.0
C1607 C 0.95893 0.94855 0.99527 0.0
C1608 C 0.97774 0.97692 0.99895 0.0
C1609 C 0.99148 0.99446 0.981 0.0
C1610 C 0.01065 0.02419 0.98986 0.0
C1611 C 0.04655 0.02102 0.98353 0.0
C1612 C 0.99642 0.05707 0.98087 0.0
C1613 C 1.00552 0.02055 0.01561 0.0
C1614 C 0.98647 0.99304 0.02036 0.0
C1615 C 0.97839 0.98416 0.04275 0.0
C1616 C 0.98993 1.00393 0.06083 0.0
C1617 C 0.00938 0.03247 0.05655 0.0
C1618 C 0.01729 0.04077 0.03355 0.0
H1619 H 0.51875 0.06873 0.98561 0.0
H1620 H 0.54541 0.98732 0.94022 0.0
H1621 H 0.53639 0.94729 0.97176 0.0
H1622 H 0.5568 0.03318 0.03774 0.0
H1623 H 0.52546 0.04857 0.05642 0.0
H1624 H 0.53568 0.07101 0.03055 0.0
H1625 H 0.47596 0.06778 0.01747 0.0
H1626 H 0.46565 0.04496 0.04312 0.0
H1627 H 0.45644 0.02765 0.01523 0.0
H1628 H 0.51821 0.91543 1.00687 0.0
H1629 H 0.50003 0.89481 0.04489 0.0
H1630 H 0.48945 0.99679 0.06855 0.0
C1631 C 0.52329 0.04255 0.98244 0.0
C1632 C 0.53283 0.03125 0.9604 0.0
C1633 C 0.53839 0.99672 0.95696 0.0
C1634 C 0.53312 0.9737 0.97475 0.0
C1635 C 0.52288 0.98556 0.99607 0.0
C1636 C 0.51876 0.01924 1.00018 0.0
C1637 C 0.50765 0.02537 0.0247 0.0
C1638 C 0.53291 0.04573 0.03815 0.0
C1639 C 0.47446 0.04245 0.02514 0.0
C1640 C 0.50553 0.98987 0.03356 0.0
C1641 C 0.51407 0.96725 0.01669 0.0
C1642 C 0.51203 0.93293 0.02034 0.0
C1643 C 0.50148 0.92143 0.04191 0.0
C1644 C 0.49364 0.94418 0.05967 0.0
C1645 C 0.49574 0.97883 0.05537 0.0
H1646 H 0.47755 0.00606 0.56863 0.0
H1647 H 0.48846 0.10824 0.54535 0.0
H1648 H 0.50851 0.08799 0.5078 0.0
H1649 H 0.54666 0.97114 0.53967 0.0
H1650 H 0.52651 0.93285 0.53188 0.0
H1651 H 0.51441 0.95516 0.55738 0.0
H1652 H 0.45555 0.95752 0.54241 0.0
H1653 H 0.4674 0.93492 0.517 0.0
H1654 H 0.4476 0.97468 0.51431 0.0
H1655 H 0.5292 0.05682 0.47341 0.0
H1656 H 0.54118 0.01727 0.44216 0.0
H1657 H 0.51269 0.93486 0.48623 0.0
C1658 C 0.4842 0.02412 0.55559 0.0
C1659 C 0.48166 0.05874 0.5599 0.0
C1660 C 0.49013 0.08163 0.54236 0.0
C1661 C 0.50177 0.07036 0.52106 0.0
C1662 C 0.50428 0.0361 0.51741 0.0
C1663 C 0.49514 0.01327 0.53399 0.0
C1664 C 0.49828 0.97782 0.52508 0.0
C1665 C 0.52294 0.95808 0.53936 0.0
C1666 C 0.46524 0.96021 0.52467 0.0
C1667 C 0.51068 0.9843 0.50091 0.0
C1668 C 0.51454 0.01809 0.49705 0.0
C1669 C 0.5261 0.03033 0.47619 0.0
C1670 C 0.53306 0.00756 0.45856 0.0
C1671 C 0.52789 0.97286 0.46168 0.0
C1672 C 0.51692 0.96117 0.4833 0.0
H1673 H 0.97791 0.94835 0.54139 0.0
H1674 H 0.07093 0.99238 0.55791 0.0
H1675 H 0.06616 0.0294 0.52399 0.0
H1676 H 0.98522 0.95079 0.47932 0.0
H1677 H 0.94336 0.96128 0.4751 0.0
H1678 H 0.95529 0.93727 0.49984 0.0
H1679 H 0.92823 0.98082 0.52651 0.0
H1680 H 0.91663 0.00524 0.50187 0.0
H1681 H 0.94017 0.024 0.52458 0.0
H1682 H 0.0509 0.06159 0.48816 0.0
H1683 H 0.02686 0.08606 0.45315 0.0
H1684 H 0.94238 0.02298 0.46156 0.0
C1685 C 0.99761 0.96532 0.53769 0.0
C1686 C 0.02506 0.96713 0.55214 0.0
C1687 C 0.04986 0.99032 0.54695 0.0
C1688 C 0.04728 0.01152 0.52779 0.0
C1689 C 0.01959 0.00948 0.51416 0.0
C1690 C 0.9952 0.98694 0.51889 0.0
C1691 C 0.96746 0.9904 0.50205 0.0
C1692 C 0.96256 0.95801 0.48826 0.0
C1693 C 0.93629 1.00073 0.5145 0.0
C1694 C 0.98009 0.01827 0.48694 0.0
C1695 C 0.01024 0.02887 0.49417 0.0
C1696 C 0.02724 0.0536 0.48245 0.0
C1697 C 0.01334 0.06741 0.46261 0.0
C1698 C 0.98258 0.0567 0.45476 0.0
C1699 C 0.96563 0.03214 0.46735 0.0
H1700 H 0.58152 0.52028 0.04935 0.0
H1701 H 0.48725 0.54897 0.07494 0.0
H1702 H 0.46181 0.52548 0.03998 0.0
H1703 H 0.56665 0.53553 0.98888 0.0
H1704 H 0.58895 0.4995 0.97947 0.0
H1705 H 0.59977 0.52013 1.00593 0.0
H1706 H 0.59335 0.46433 0.02795 0.0
H1707 H 0.58238 0.44356 1.00157 0.0
H1708 H 0.55577 0.44169 0.02608 0.0
H1709 H 0.44673 0.49986 1.00147 0.0
H1710 H 0.44316 0.47083 0.96385 0.0
H1711 H 0.54671 0.45519 0.96506 0.0
C1712 C 0.55557 0.52192 0.04747 0.0
C1713 C 0.53639 0.53677 0.06475 0.0
C1714 C 0.50242 0.53781 0.06187 0.0
C1715 C 0.48775 0.52457 0.04206 0.0
C1716 C 0.5073 0.50989 0.0254 0.0
C1717 C 0.54045 0.50821 0.028 0.0
C1718 C 0.55581 0.48975 1.00807 0.0
C1719 C 0.57917 0.5126 0.9948 0.0
C1720 C 0.57283 0.45795 0.01642 0.0
C1721 C 0.52618 0.48146 0.99382 0.0
C1722 C 0.49845 0.49361 1.00394 0.0
C1723 C 0.46828 0.48997 0.9935 0.0
C1724 C 0.46645 0.47348 0.97215 0.0
C1725 C 0.49453 0.46033 0.96171 0.0
C1726 C 0.5247 0.46439 0.97281 0.0
H1727 H 0.93223 0.50478 0.05029 0.0
H1728 H 0.01724 0.44299 0.05881 0.0
H1729 H 0.03796 0.4622 0.02141 0.0
H1730 H 0.9247 0.49452 0.98747 0.0
H1731 H 0.91277 0.53719 0.98288 0.0
H1732 H 0.90314 0.5167 0.00962 0.0
H1733 H 0.932 0.56404 0.03203 0.0
H1734 H 0.94202 0.58448 1.00537 0.0
H1735 H 0.97349 0.57386 0.02548 0.0
H1736 H 0.05085 0.48908 0.98412 0.0
H1737 H 0.05475 0.52178 0.94835 0.0
H1738 H 0.96263 0.56821 0.96367 0.0
C1739 C 0.95484 0.49484 0.04401 0.0
C1740 C 0.97301 0.47218 0.0574 0.0
C1741 C 1.00288 0.4603 0.04884 0.0
C1742 C 0.01489 0.47106 0.0276 0.0
C1743 C 0.99689 0.49393 0.01506 0.0
C1744 C 0.96749 0.50569 0.02281 0.0
C1745 C 0.9539 0.53132 1.0062 0.0
C1746 C 0.92172 0.5192 0.99593 0.0
C1747 C 0.95014 0.56544 0.01798 0.0
C1748 C 0.98036 0.53215 0.9881 0.0
C1749 C 1.0048 0.51021 0.99356 0.0
C1750 C 0.03184 0.50632 0.97959 0.0
C1751 C 0.03386 0.52508 0.95931 0.0
C1752 C 0.0091 0.54769 0.95319 0.0
C1753 C 0.9821 0.55136 0.96794 0.0
H1754 H 0.99089 0.58143 0.53376 0.0
H1755 H 0.96171 0.49718 0.57585 0.0
H1756 H 0.97432 0.45898 0.54382 0.0
H1757 H 0.95895 0.54766 0.47897 0.0
H1758 H 0.99184 0.56479 0.46242 0.0
H1759 H 0.97851 0.58562 0.4882 0.0
H1760 H 0.03676 0.58322 0.50434 0.0
H1761 H 0.05018 0.56198 0.47879 0.0
H1762 H 0.05676 0.54351 0.50667 0.0
H1763 H 0.99592 0.42942 0.50875 0.0
H1764 H 0.01786 0.41123 0.47122 0.0
H1765 H 0.02997 0.51465 0.451 0.0
C1766 C 0.98653 0.55501 0.53608 0.0
C1767 C 0.97524 0.54237 0.55735 0.0
C1768 C 0.97003 0.50757 0.5597 0.0
C1769 C 0.97733 0.4856 0.54163 0.0
C1770 C 0.98933 0.49879 0.52115 0.0
C1771 C 0.99322 0.53275 0.51809 0.0
C1772 C 1.00675 0.54043 0.4944 0.0
C1773 C 0.98256 0.56083 0.48015 0.0
C1774 C 0.03956 0.55834 0.49617 0.0
C1775 C 0.01048 0.50547 0.48483 0.0
C1776 C 1.00054 0.4818 0.5006 0.0
C1777 C 1.0033 0.44775 0.49613 0.0
C1778 C 0.01601 0.43765 0.47484 0.0
C1779 C 0.02543 0.46149 0.45815 0.0
C1780 C 0.02264 0.49584 0.46332 0.0
H1781 H 0.55517 0.50346 0.56991 0.0
H1782 H 0.54675 0.40116 0.5461 0.0
H1783 H 0.52881 0.42133 0.50805 0.0
H1784 H 0.48677 0.53576 0.54086 0.0
H1785 H 0.50526 0.57507 0.53348 0.0
H1786 H 0.51828 0.55287 0.55877 0.0
H1787 H 0.57724 0.55324 0.54391 0.0
H1788 H 0.56451 0.57592 0.51876 0.0
H1789 H 0.58592 0.53713 0.51561 0.0
H1790 H 0.5077 0.45243 0.47365 0.0
H1791 H 0.49329 0.49215 0.44306 0.0
H1792 H 0.51853 0.57471 0.48809 0.0
C1793 C 0.54999 0.4853 0.55658 0.0
C1794 C 0.55239 0.45067 0.56101 0.0
C1795 C 0.54537 0.42776 0.54311 0.0
C1796 C 0.53488 0.43899 0.52148 0.0
C1797 C 0.53197 0.47323 0.51789 0.0
C1798 C 0.53999 0.49609 0.53476 0.0
C1799 C 0.5354 0.53154 0.52625 0.0
C1800 C 0.50991 0.54988 0.5407 0.0
C1801 C 0.56769 0.55057 0.52612 0.0
C1802 C 0.52334 0.52505 0.50199 0.0
C1803 C 0.52107 0.49122 0.49768 0.0
C1804 C 0.50969 0.47897 0.47675 0.0
C1805 C 0.50128 0.50183 0.45952 0.0
C1806 C 0.50477 0.53665 0.4631 0.0
C1807 C 0.51561 0.54829 0.48478 0.0
loop_
_geom_bond_atom_site_label_1
_geom_bond_atom_site_label_2
_geom_bond_distance
_geom_bond_site_symmetry_2
_ccdc_geom_bond_type
Co0 O2 2.143 . S
Co0 O8 2.074 . S
Co0 O11 2.093 . S
Co0 O24 2.097 . S
Co0 N41 2.151 . S
Co0 N49 2.214 1_455 S
Co1 O2 2.160 . S
Co1 O7 2.058 . S
Co1 O17 2.057 . S
Co1 O32 2.037 . S
Co1 N36 2.145 . S
Co1 N57 2.257 . S
O2 Co0 2.143 . S
O2 Co1 2.160 . S
C3 O4 1.278 . S
C3 O11 1.224 . S
O4 C3 1.278 . S
C5 O6 1.245 . S
C5 O17 1.232 . S
O6 C5 1.245 . S
O7 Co1 2.058 . S
O7 C33 1.269 . S
O8 Co0 2.074 . S
O8 C33 1.257 . S
H9 C34 0.930 . S
H10 C40 0.930 . S
O11 Co0 2.093 . S
O11 C3 1.224 . S
H12 C44 0.929 . S
H13 C46 0.930 . S
H14 C47 0.930 . S
H15 C45 0.929 1_545 S
H16 C48 0.928 . S
O17 Co1 2.057 . S
O17 C5 1.232 . S
H18 C37 0.929 . S
H19 C38 0.929 . S
H20 C50 0.931 . S
H21 C42 0.929 . S
H22 C51 0.930 . S
H23 C43 0.931 . S
O24 Co0 2.097 . S
O24 C52 1.214 . S
H25 C53 0.929 . S
H26 C54 0.929 . S
H27 C55 0.930 . S
H28 C56 0.929 . S
H29 C58 0.930 . S
H30 C35 0.930 . S
H31 C39 0.930 . S
O32 Co1 2.037 . S
O32 C52 1.234 . S
C33 O7 1.269 . S
C33 O8 1.257 . S
C34 H9 0.930 . S
C34 C37 1.388 . S
C34 C39 1.418 . S
C35 H30 0.930 . S
C35 C38 1.404 . S
C35 C39 1.353 . S
N36 Co1 2.145 . S
N36 C37 1.397 . S
N36 C38 1.334 . S
C37 H18 0.929 . S
C37 C34 1.388 . S
C37 N36 1.397 . S
C38 H19 0.929 . S
C38 C35 1.404 . S
C38 N36 1.334 . S
C39 H31 0.930 . S
C39 C34 1.418 . S
C39 C35 1.353 . S
C40 H10 0.930 . S
C40 N41 1.330 1_565 S
C40 C42 1.446 . S
N41 Co0 2.151 . S
N41 C40 1.330 1_545 S
N41 C45 1.418 1_445 S
C42 H21 0.929 . S
C42 C40 1.446 . S
C42 C43 1.331 1_455 S
C43 H23 0.931 . S
C43 C42 1.331 1_655 S
C43 C44 1.267 . S
C44 H12 0.929 . S
C44 C43 1.267 . S
C44 C45 1.251 . S
C45 H15 0.929 1_565 S
C45 N41 1.418 1_665 S
C45 C44 1.251 . S
C46 H13 0.930 . S
C46 C48 1.406 . S
C46 C51 1.261 . S
C47 H14 0.930 . S
C47 N49 1.325 . S
C47 C50 1.357 . S
C48 H16 0.928 . S
C48 C46 1.406 . S
C48 N49 1.261 . S
N49 Co0 2.214 1_655 S
N49 C47 1.325 . S
N49 C48 1.261 . S
C50 H20 0.931 . S
C50 C47 1.357 . S
C50 C51 1.312 . S
C51 H22 0.930 . S
C51 C46 1.261 . S
C51 C50 1.312 . S
C52 O24 1.214 . S
C52 O32 1.234 . S
C53 H25 0.929 . S
C53 C56 1.391 . S
C53 C58 1.391 . S
C54 H26 0.929 . S
C54 C55 1.390 . S
C54 N57 1.391 . S
C55 H27 0.930 . S
C55 C54 1.390 . S
C55 C56 1.392 . S
C56 H28 0.929 . S
C56 C53 1.391 . S
C56 C55 1.392 . S
N57 Co1 2.257 . S
N57 C54 1.391 . S
N57 C58 1.388 . S
C58 H29 0.930 . S
C58 C53 1.391 . S
C58 N57 1.388 . S
Co59 O61 2.143 . S
Co59 O67 2.074 . S
Co59 O70 2.093 . S
Co59 O83 2.097 . S
Co59 N100 2.151 . S
Co59 N108 2.214 . S
Co60 O61 2.160 . S
Co60 O66 2.058 . S
Co60 O76 2.057 . S
Co60 O91 2.037 . S
Co60 N95 2.145 . S
Co60 N116 2.257 . S
O61 Co59 2.143 . S
O61 Co60 2.160 . S
C62 O63 1.278 . S
C62 O70 1.224 . S
O63 C62 1.278 . S
C64 O65 1.245 . S
C64 O76 1.232 . S
O65 C64 1.245 . S
O66 Co60 2.058 . S
O66 C92 1.269 . S
O67 Co59 2.074 . S
O67 C92 1.257 . S
H68 C93 0.930 . S
H69 C99 0.930 . S
O70 Co59 2.093 . S
O70 C62 1.224 . S
H71 C103 0.929 . S
H72 C105 0.930 . S
H73 C106 0.930 . S
H74 C104 0.929 1_565 S
H75 C107 0.928 . S
O76 Co60 2.057 . S
O76 C64 1.232 . S
H77 C96 0.929 . S
H78 C97 0.929 . S
H79 C109 0.931 . S
H80 C101 0.929 . S
H81 C110 0.930 . S
H82 C102 0.931 . S
O83 Co59 2.097 . S
O83 C111 1.214 . S
H84 C112 0.929 . S
H85 C113 0.929 . S
H86 C114 0.930 . S
H87 C115 0.929 . S
H88 C117 0.930 . S
H89 C94 0.930 . S
H90 C98 0.930 . S
O91 Co60 2.037 . S
O91 C111 1.234 . S
C92 O66 1.269 . S
C92 O67 1.257 . S
C93 H68 0.930 . S
C93 C96 1.388 . S
C93 C98 1.418 . S
C94 H89 0.930 . S
C94 C97 1.404 . S
C94 C98 1.353 . S
N95 Co60 2.145 . S
N95 C96 1.397 . S
N95 C97 1.334 . S
C96 H77 0.929 . S
C96 C93 1.388 . S
C96 N95 1.397 . S
C97 H78 0.929 . S
C97 C94 1.404 . S
C97 N95 1.334 . S
C98 H90 0.930 . S
C98 C93 1.418 . S
C98 C94 1.353 . S
C99 H69 0.930 . S
C99 N100 1.330 1_545 S
C99 C101 1.446 . S
N100 Co59 2.151 . S
N100 C99 1.330 1_565 S
N100 C104 1.418 1_565 S
C101 H80 0.929 . S
C101 C99 1.446 . S
C101 C102 1.332 . S
C102 H82 0.931 . S
C102 C101 1.332 . S
C102 C103 1.267 . S
C103 H71 0.929 . S
C103 C102 1.267 . S
C103 C104 1.251 . S
C104 H74 0.929 1_545 S
C104 N100 1.418 1_545 S
C104 C103 1.251 . S
C105 H72 0.930 . S
C105 C107 1.406 . S
C105 C110 1.261 . S
C106 H73 0.930 . S
C106 N108 1.325 . S
C106 C109 1.357 . S
C107 H75 0.928 . S
C107 C105 1.406 . S
C107 N108 1.261 . S
N108 Co59 2.214 . S
N108 C106 1.325 . S
N108 C107 1.261 . S
C109 H79 0.931 . S
C109 C106 1.357 . S
C109 C110 1.312 . S
C110 H81 0.930 . S
C110 C105 1.261 . S
C110 C109 1.312 . S
C111 O83 1.214 . S
C111 O91 1.234 . S
C112 H84 0.929 . S
C112 C115 1.391 . S
C112 C117 1.391 . S
C113 H85 0.929 . S
C113 C114 1.390 . S
C113 N116 1.391 . S
C114 H86 0.930 . S
C114 C113 1.390 . S
C114 C115 1.392 . S
C115 H87 0.929 . S
C115 C112 1.391 . S
C115 C114 1.392 . S
N116 Co60 2.257 . S
N116 C113 1.391 . S
N116 C117 1.388 . S
C117 H88 0.930 . S
C117 C112 1.391 . S
C117 N116 1.388 . S
Co118 O120 2.143 . S
Co118 O126 2.074 . S
Co118 O129 2.093 . S
Co118 O142 2.097 . S
Co118 N159 2.151 . S
Co118 N167 2.214 . S
Co119 O120 2.160 . S
Co119 O125 2.058 . S
Co119 O135 2.057 . S
Co119 O150 2.037 . S
Co119 N154 2.145 . S
Co119 N175 2.257 . S
O120 Co118 2.143 . S
O120 Co119 2.160 . S
C121 O122 1.278 . S
C121 O129 1.224 . S
O122 C121 1.278 . S
C123 O124 1.245 . S
C123 O135 1.232 . S
O124 C123 1.245 . S
O125 Co119 2.058 . S
O125 C151 1.269 . S
O126 Co118 2.074 . S
O126 C151 1.257 . S
H127 C152 0.930 . S
H128 C158 0.930 . S
O129 Co118 2.093 . S
O129 C121 1.224 . S
H130 C162 0.929 . S
H131 C164 0.930 . S
H132 C165 0.930 . S
H133 C163 0.929 1_565 S
H134 C166 0.928 . S
O135 Co119 2.057 . S
O135 C123 1.232 . S
H136 C155 0.929 . S
H137 C156 0.929 . S
H138 C168 0.931 . S
H139 C160 0.929 . S
H140 C169 0.930 . S
H141 C161 0.931 . S
O142 Co118 2.097 . S
O142 C170 1.214 . S
H143 C171 0.929 . S
H144 C172 0.929 . S
H145 C173 0.930 . S
H146 C174 0.929 . S
H147 C176 0.930 . S
H148 C153 0.930 . S
H149 C157 0.930 . S
O150 Co119 2.037 . S
O150 C170 1.234 . S
C151 O125 1.269 . S
C151 O126 1.257 . S
C152 H127 0.930 . S
C152 C155 1.388 . S
C152 C157 1.418 . S
C153 H148 0.930 . S
C153 C156 1.404 . S
C153 C157 1.353 . S
N154 Co119 2.145 . S
N154 C155 1.397 . S
N154 C156 1.334 . S
C155 H136 0.929 . S
C155 C152 1.388 . S
C155 N154 1.397 . S
C156 H137 0.929 . S
C156 C153 1.404 . S
C156 N154 1.334 . S
C157 H149 0.930 . S
C157 C152 1.418 . S
C157 C153 1.353 . S
C158 H128 0.930 . S
C158 N159 1.330 1_545 S
C158 C160 1.446 . S
N159 Co118 2.151 . S
N159 C158 1.330 1_565 S
N159 C163 1.418 1_565 S
C160 H139 0.929 . S
C160 C158 1.446 . S
C160 C161 1.332 . S
C161 H141 0.931 . S
C161 C160 1.332 . S
C161 C162 1.267 . S
C162 H130 0.929 . S
C162 C161 1.267 . S
C162 C163 1.251 . S
C163 H133 0.929 1_545 S
C163 N159 1.418 1_545 S
C163 C162 1.251 . S
C164 H131 0.930 . S
C164 C166 1.406 . S
C164 C169 1.261 . S
C165 H132 0.930 . S
C165 N167 1.325 . S
C165 C168 1.357 . S
C166 H134 0.928 . S
C166 C164 1.406 . S
C166 N167 1.261 . S
N167 Co118 2.214 . S
N167 C165 1.325 . S
N167 C166 1.261 . S
C168 H138 0.931 . S
C168 C165 1.357 . S
C168 C169 1.312 . S
C169 H140 0.930 . S
C169 C164 1.261 . S
C169 C168 1.312 . S
C170 O142 1.214 . S
C170 O150 1.234 . S
C171 H143 0.929 . S
C171 C174 1.391 . S
C171 C176 1.391 . S
C172 H144 0.929 . S
C172 C173 1.390 . S
C172 N175 1.391 . S
C173 H145 0.930 . S
C173 C172 1.390 . S
C173 C174 1.392 . S
C174 H146 0.929 . S
C174 C171 1.391 . S
C174 C173 1.392 . S
N175 Co119 2.257 . S
N175 C172 1.391 . S
N175 C176 1.388 . S
C176 H147 0.930 . S
C176 C171 1.391 . S
C176 N175 1.388 . S
Co177 O179 2.143 . S
Co177 O185 2.074 . S
Co177 O188 2.093 . S
Co177 O201 2.097 . S
Co177 N218 2.151 . S
Co177 N226 2.214 1_655 S
Co178 O179 2.160 . S
Co178 O184 2.058 . S
Co178 O194 2.057 . S
Co178 O209 2.037 . S
Co178 N213 2.145 . S
Co178 N234 2.257 . S
O179 Co177 2.143 . S
O179 Co178 2.160 . S
C180 O181 1.278 . S
C180 O188 1.224 . S
O181 C180 1.278 . S
C182 O183 1.245 . S
C182 O194 1.232 . S
O183 C182 1.245 . S
O184 Co178 2.058 . S
O184 C210 1.269 . S
O185 Co177 2.074 . S
O185 C210 1.257 . S
H186 C211 0.930 . S
H187 C217 0.930 . S
O188 Co177 2.093 . S
O188 C180 1.224 . S
H189 C221 0.929 . S
H190 C223 0.930 . S
H191 C224 0.930 . S
H192 C222 0.929 1_545 S
H193 C225 0.928 . S
O194 Co178 2.057 . S
O194 C182 1.232 . S
H195 C214 0.929 . S
H196 C215 0.929 . S
H197 C227 0.931 . S
H198 C219 0.929 . S
H199 C228 0.930 . S
H200 C220 0.931 . S
O201 Co177 2.097 . S
O201 C229 1.214 . S
H202 C230 0.929 . S
H203 C231 0.929 . S
H204 C232 0.930 . S
H205 C233 0.929 . S
H206 C235 0.930 . S
H207 C212 0.930 . S
H208 C216 0.930 . S
O209 Co178 2.037 . S
O209 C229 1.234 . S
C210 O184 1.269 . S
C210 O185 1.257 . S
C211 H186 0.930 . S
C211 C214 1.388 . S
C211 C216 1.418 . S
C212 H207 0.930 . S
C212 C215 1.404 . S
C212 C216 1.353 . S
N213 Co178 2.145 . S
N213 C214 1.397 . S
N213 C215 1.334 . S
C214 H195 0.929 . S
C214 C211 1.388 . S
C214 N213 1.397 . S
C215 H196 0.929 . S
C215 C212 1.404 . S
C215 N213 1.334 . S
C216 H208 0.930 . S
C216 C211 1.418 . S
C216 C212 1.353 . S
C217 H187 0.930 . S
C217 N218 1.330 1_565 S
C217 C219 1.446 . S
N218 Co177 2.151 . S
N218 C217 1.330 1_545 S
N218 C222 1.418 1_645 S
C219 H198 0.929 . S
C219 C217 1.446 . S
C219 C220 1.331 1_655 S
C220 H200 0.931 . S
C220 C219 1.331 1_455 S
C220 C221 1.267 . S
C221 H189 0.929 . S
C221 C220 1.267 . S
C221 C222 1.251 . S
C222 H192 0.929 1_565 S
C222 N218 1.418 1_465 S
C222 C221 1.251 . S
C223 H190 0.930 . S
C223 C225 1.406 . S
C223 C228 1.261 . S
C224 H191 0.930 . S
C224 N226 1.325 . S
C224 C227 1.357 . S
C225 H193 0.928 . S
C225 C223 1.406 . S
C225 N226 1.261 . S
N226 Co177 2.214 1_455 S
N226 C224 1.325 . S
N226 C225 1.261 . S
C227 H197 0.931 . S
C227 C224 1.357 . S
C227 C228 1.312 . S
C228 H199 0.930 . S
C228 C223 1.261 . S
C228 C227 1.312 . S
C229 O201 1.214 . S
C229 O209 1.234 . S
C230 H202 0.929 . S
C230 C233 1.391 . S
C230 C235 1.391 . S
C231 H203 0.929 . S
C231 C232 1.390 . S
C231 N234 1.391 . S
C232 H204 0.930 . S
C232 C231 1.390 . S
C232 C233 1.392 . S
C233 H205 0.929 . S
C233 C230 1.391 . S
C233 C232 1.392 . S
N234 Co178 2.257 . S
N234 C231 1.391 . S
N234 C235 1.388 . S
C235 H206 0.930 . S
C235 C230 1.391 . S
C235 N234 1.388 . S
Co236 O238 2.143 . S
Co236 O244 2.074 . S
Co236 O247 2.093 . S
Co236 O260 2.097 . S
Co236 N277 2.151 . S
Co236 N285 2.214 1_655 S
Co237 O238 2.160 . S
Co237 O243 2.058 . S
Co237 O253 2.057 . S
Co237 O268 2.037 . S
Co237 N272 2.145 . S
Co237 N293 2.257 . S
O238 Co236 2.143 . S
O238 Co237 2.160 . S
C239 O240 1.278 . S
C239 O247 1.224 . S
O240 C239 1.278 . S
C241 O242 1.245 . S
C241 O253 1.232 . S
O242 C241 1.245 . S
O243 Co237 2.058 . S
O243 C269 1.269 . S
O244 Co236 2.074 . S
O244 C269 1.257 . S
H245 C270 0.930 . S
H246 C276 0.930 . S
O247 Co236 2.093 . S
O247 C239 1.224 . S
H248 C280 0.929 . S
H249 C282 0.930 . S
H250 C283 0.930 . S
H251 C281 0.929 1_565 S
H252 C284 0.928 . S
O253 Co237 2.057 . S
O253 C241 1.232 . S
H254 C273 0.929 . S
H255 C274 0.929 . S
H256 C286 0.931 . S
H257 C278 0.929 . S
H258 C287 0.930 . S
H259 C279 0.931 . S
O260 Co236 2.097 . S
O260 C288 1.214 . S
H261 C289 0.929 . S
H262 C290 0.929 . S
H263 C291 0.930 . S
H264 C292 0.929 . S
H265 C294 0.930 . S
H266 C271 0.930 . S
H267 C275 0.930 . S
O268 Co237 2.037 . S
O268 C288 1.234 . S
C269 O243 1.269 . S
C269 O244 1.257 . S
C270 H245 0.930 . S
C270 C273 1.388 . S
C270 C275 1.418 . S
C271 H266 0.930 . S
C271 C274 1.404 . S
C271 C275 1.353 . S
N272 Co237 2.145 . S
N272 C273 1.397 . S
N272 C274 1.334 . S
C273 H254 0.929 . S
C273 C270 1.388 . S
C273 N272 1.397 . S
C274 H255 0.929 . S
C274 C271 1.404 . S
C274 N272 1.334 . S
C275 H267 0.930 . S
C275 C270 1.418 . S
C275 C271 1.353 . S
C276 H246 0.930 . S
C276 N277 1.330 1_545 S
C276 C278 1.446 . S
N277 Co236 2.151 . S
N277 C276 1.330 1_565 S
N277 C281 1.418 1_665 S
C278 H257 0.929 . S
C278 C276 1.446 . S
C278 C279 1.331 1_655 S
C279 H259 0.931 . S
C279 C278 1.331 1_455 S
C279 C280 1.267 . S
C280 H248 0.929 . S
C280 C279 1.267 . S
C280 C281 1.251 . S
C281 H251 0.929 1_545 S
C281 N277 1.418 1_445 S
C281 C280 1.251 . S
C282 H249 0.930 . S
C282 C284 1.406 . S
C282 C287 1.261 . S
C283 H250 0.930 . S
C283 N285 1.325 . S
C283 C286 1.357 . S
C284 H252 0.928 . S
C284 C282 1.406 . S
C284 N285 1.261 . S
N285 Co236 2.214 1_455 S
N285 C283 1.325 . S
N285 C284 1.261 . S
C286 H256 0.931 . S
C286 C283 1.357 . S
C286 C287 1.312 . S
C287 H258 0.930 . S
C287 C282 1.261 . S
C287 C286 1.312 . S
C288 O260 1.214 . S
C288 O268 1.234 . S
C289 H261 0.929 . S
C289 C292 1.391 . S
C289 C294 1.391 . S
C290 H262 0.929 . S
C290 C291 1.390 . S
C290 N293 1.391 . S
C291 H263 0.930 . S
C291 C290 1.390 . S
C291 C292 1.392 . S
C292 H264 0.929 . S
C292 C289 1.391 . S
C292 C291 1.392 . S
N293 Co237 2.257 . S
N293 C290 1.391 . S
N293 C294 1.388 . S
C294 H265 0.930 . S
C294 C289 1.391 . S
C294 N293 1.388 . S
Co295 O297 2.143 . S
Co295 O303 2.074 . S
Co295 O306 2.093 . S
Co295 O319 2.097 . S
Co295 N336 2.151 . S
Co295 N344 2.214 . S
Co296 O297 2.160 . S
Co296 O302 2.058 . S
Co296 O312 2.057 . S
Co296 O327 2.037 . S
Co296 N331 2.145 . S
Co296 N352 2.257 . S
O297 Co295 2.143 . S
O297 Co296 2.160 . S
C298 O299 1.278 . S
C298 O306 1.224 . S
O299 C298 1.278 . S
C300 O301 1.245 . S
C300 O312 1.232 . S
O301 C300 1.245 . S
O302 Co296 2.058 . S
O302 C328 1.269 . S
O303 Co295 2.074 . S
O303 C328 1.257 . S
H304 C329 0.930 . S
H305 C335 0.930 . S
O306 Co295 2.093 . S
O306 C298 1.224 . S
H307 C339 0.929 . S
H308 C341 0.930 . S
H309 C342 0.930 . S
H310 C340 0.929 1_545 S
H311 C343 0.928 . S
O312 Co296 2.057 . S
O312 C300 1.232 . S
H313 C332 0.929 . S
H314 C333 0.929 . S
H315 C345 0.931 . S
H316 C337 0.929 . S
H317 C346 0.930 . S
H318 C338 0.931 . S
O319 Co295 2.097 . S
O319 C347 1.214 . S
H320 C348 0.929 . S
H321 C349 0.929 . S
H322 C350 0.930 . S
H323 C351 0.929 . S
H324 C353 0.930 . S
H325 C330 0.930 . S
H326 C334 0.930 . S
O327 Co296 2.037 . S
O327 C347 1.234 . S
C328 O302 1.269 . S
C328 O303 1.257 . S
C329 H304 0.930 . S
C329 C332 1.388 . S
C329 C334 1.418 . S
C330 H325 0.930 . S
C330 C333 1.404 . S
C330 C334 1.353 . S
N331 Co296 2.145 . S
N331 C332 1.397 . S
N331 C333 1.334 . S
C332 H313 0.929 . S
C332 C329 1.388 . S
C332 N331 1.397 . S
C333 H314 0.929 . S
C333 C330 1.404 . S
C333 N331 1.334 . S
C334 H326 0.930 . S
C334 C329 1.418 . S
C334 C330 1.353 . S
C335 H305 0.930 . S
C335 N336 1.330 1_565 S
C335 C337 1.446 . S
N336 Co295 2.151 . S
N336 C335 1.330 1_545 S
N336 C340 1.418 1_545 S
C337 H316 0.929 . S
C337 C335 1.446 . S
C337 C338 1.332 . S
C338 H318 0.931 . S
C338 C337 1.332 . S
C338 C339 1.267 . S
C339 H307 0.929 . S
C339 C338 1.267 . S
C339 C340 1.251 . S
C340 H310 0.929 1_565 S
C340 N336 1.418 1_565 S
C340 C339 1.251 . S
C341 H308 0.930 . S
C341 C343 1.406 . S
C341 C346 1.261 . S
C342 H309 0.930 . S
C342 N344 1.325 . S
C342 C345 1.357 . S
C343 H311 0.928 . S
C343 C341 1.406 . S
C343 N344 1.261 . S
N344 Co295 2.214 . S
N344 C342 1.325 . S
N344 C343 1.261 . S
C345 H315 0.931 . S
C345 C342 1.357 . S
C345 C346 1.312 . S
C346 H317 0.930 . S
C346 C341 1.261 . S
C346 C345 1.312 . S
C347 O319 1.214 . S
C347 O327 1.234 . S
C348 H320 0.929 . S
C348 C351 1.391 . S
C348 C353 1.391 . S
C349 H321 0.929 . S
C349 C350 1.390 . S
C349 N352 1.391 . S
C350 H322 0.930 . S
C350 C349 1.390 . S
C350 C351 1.392 . S
C351 H323 0.929 . S
C351 C348 1.391 . S
C351 C350 1.392 . S
N352 Co296 2.257 . S
N352 C349 1.391 . S
N352 C353 1.388 . S
C353 H324 0.930 . S
C353 C348 1.391 . S
C353 N352 1.388 . S
Co354 O356 2.143 . S
Co354 O362 2.074 . S
Co354 O365 2.093 . S
Co354 O378 2.097 . S
Co354 N395 2.151 . S
Co354 N403 2.214 . S
Co355 O356 2.160 . S
Co355 O361 2.058 . S
Co355 O371 2.057 . S
Co355 O386 2.037 . S
Co355 N390 2.145 . S
Co355 N411 2.257 . S
O356 Co354 2.143 . S
O356 Co355 2.160 . S
C357 O358 1.278 . S
C357 O365 1.224 . S
O358 C357 1.278 . S
C359 O360 1.245 . S
C359 O371 1.232 . S
O360 C359 1.245 . S
O361 Co355 2.058 . S
O361 C387 1.269 . S
O362 Co354 2.074 . S
O362 C387 1.257 . S
H363 C388 0.930 . S
H364 C394 0.930 . S
O365 Co354 2.093 . S
O365 C357 1.224 . S
H366 C398 0.929 . S
H367 C400 0.930 . S
H368 C401 0.930 . S
H369 C399 0.929 1_545 S
H370 C402 0.928 . S
O371 Co355 2.057 . S
O371 C359 1.232 . S
H372 C391 0.929 . S
H373 C392 0.929 . S
H374 C404 0.931 . S
H375 C396 0.929 . S
H376 C405 0.930 . S
H377 C397 0.931 . S
O378 Co354 2.097 . S
O378 C406 1.214 . S
H379 C407 0.929 . S
H380 C408 0.929 . S
H381 C409 0.930 . S
H382 C410 0.929 . S
H383 C412 0.930 . S
H384 C389 0.930 . S
H385 C393 0.930 . S
O386 Co355 2.037 . S
O386 C406 1.234 . S
C387 O361 1.269 . S
C387 O362 1.257 . S
C388 H363 0.930 . S
C388 C391 1.388 . S
C388 C393 1.418 . S
C389 H384 0.930 . S
C389 C392 1.404 . S
C389 C393 1.353 . S
N390 Co355 2.145 . S
N390 C391 1.397 . S
N390 C392 1.334 . S
C391 H372 0.929 . S
C391 C388 1.388 . S
C391 N390 1.397 . S
C392 H373 0.929 . S
C392 C389 1.404 . S
C392 N390 1.334 . S
C393 H385 0.930 . S
C393 C388 1.418 . S
C393 C389 1.353 . S
C394 H364 0.930 . S
C394 N395 1.330 1_565 S
C394 C396 1.446 . S
N395 Co354 2.151 . S
N395 C394 1.330 1_545 S
N395 C399 1.418 1_545 S
C396 H375 0.929 . S
C396 C394 1.446 . S
C396 C397 1.332 . S
C397 H377 0.931 . S
C397 C396 1.332 . S
C397 C398 1.267 . S
C398 H366 0.929 . S
C398 C397 1.267 . S
C398 C399 1.251 . S
C399 H369 0.929 1_565 S
C399 N395 1.418 1_565 S
C399 C398 1.251 . S
C400 H367 0.930 . S
C400 C402 1.406 . S
C400 C405 1.261 . S
C401 H368 0.930 . S
C401 N403 1.325 . S
C401 C404 1.357 . S
C402 H370 0.928 . S
C402 C400 1.406 . S
C402 N403 1.261 . S
N403 Co354 2.214 . S
N403 C401 1.325 . S
N403 C402 1.261 . S
C404 H374 0.931 . S
C404 C401 1.357 . S
C404 C405 1.312 . S
C405 H376 0.930 . S
C405 C400 1.261 . S
C405 C404 1.312 . S
C406 O378 1.214 . S
C406 O386 1.234 . S
C407 H379 0.929 . S
C407 C410 1.391 . S
C407 C412 1.391 . S
C408 H380 0.929 . S
C408 C409 1.390 . S
C408 N411 1.391 . S
C409 H381 0.930 . S
C409 C408 1.390 . S
C409 C410 1.392 . S
C410 H382 0.929 . S
C410 C407 1.391 . S
C410 C409 1.392 . S
N411 Co355 2.257 . S
N411 C408 1.391 . S
N411 C412 1.388 . S
C412 H383 0.930 . S
C412 C407 1.391 . S
C412 N411 1.388 . S
Co413 O415 2.143 . S
Co413 O421 2.074 . S
Co413 O424 2.093 . S
Co413 O437 2.097 . S
Co413 N454 2.151 . S
Co413 N462 2.214 1_455 S
Co414 O415 2.160 . S
Co414 O420 2.058 . S
Co414 O430 2.057 . S
Co414 O445 2.037 . S
Co414 N449 2.145 . S
Co414 N470 2.257 . S
O415 Co413 2.143 . S
O415 Co414 2.160 . S
C416 O417 1.278 . S
C416 O424 1.224 . S
O417 C416 1.278 . S
C418 O419 1.245 . S
C418 O430 1.232 . S
O419 C418 1.245 . S
O420 Co414 2.058 . S
O420 C446 1.269 . S
O421 Co413 2.074 . S
O421 C446 1.257 . S
H422 C447 0.930 . S
H423 C453 0.930 . S
O424 Co413 2.093 . S
O424 C416 1.224 . S
H425 C457 0.929 . S
H426 C459 0.930 . S
H427 C460 0.930 . S
H428 C458 0.929 1_565 S
H429 C461 0.928 . S
O430 Co414 2.057 . S
O430 C418 1.232 . S
H431 C450 0.929 . S
H432 C451 0.929 . S
H433 C463 0.931 . S
H434 C455 0.929 . S
H435 C464 0.930 . S
H436 C456 0.931 . S
O437 Co413 2.097 . S
O437 C465 1.214 . S
H438 C466 0.929 . S
H439 C467 0.929 . S
H440 C468 0.930 . S
H441 C469 0.929 . S
H442 C471 0.930 . S
H443 C448 0.930 . S
H444 C452 0.930 . S
O445 Co414 2.037 . S
O445 C465 1.234 . S
C446 O420 1.269 . S
C446 O421 1.257 . S
C447 H422 0.930 . S
C447 C450 1.388 . S
C447 C452 1.418 . S
C448 H443 0.930 . S
C448 C451 1.404 . S
C448 C452 1.353 . S
N449 Co414 2.145 . S
N449 C450 1.397 . S
N449 C451 1.334 . S
C450 H431 0.929 . S
C450 C447 1.388 . S
C450 N449 1.397 . S
C451 H432 0.929 . S
C451 C448 1.404 . S
C451 N449 1.334 . S
C452 H444 0.930 . S
C452 C447 1.418 . S
C452 C448 1.353 . S
C453 H423 0.930 . S
C453 N454 1.330 1_545 S
C453 C455 1.446 . S
N454 Co413 2.151 . S
N454 C453 1.330 1_565 S
N454 C458 1.418 1_465 S
C455 H434 0.929 . S
C455 C453 1.446 . S
C455 C456 1.331 1_455 S
C456 H436 0.931 . S
C456 C455 1.331 1_655 S
C456 C457 1.267 . S
C457 H425 0.929 . S
C457 C456 1.267 . S
C457 C458 1.251 . S
C458 H428 0.929 1_545 S
C458 N454 1.418 1_645 S
C458 C457 1.251 . S
C459 H426 0.930 . S
C459 C461 1.406 . S
C459 C464 1.261 . S
C460 H427 0.930 . S
C460 N462 1.325 . S
C460 C463 1.357 . S
C461 H429 0.928 . S
C461 C459 1.406 . S
C461 N462 1.261 . S
N462 Co413 2.214 1_655 S
N462 C460 1.325 . S
N462 C461 1.261 . S
C463 H433 0.931 . S
C463 C460 1.357 . S
C463 C464 1.312 . S
C464 H435 0.930 . S
C464 C459 1.261 . S
C464 C463 1.312 . S
C465 O437 1.214 . S
C465 O445 1.234 . S
C466 H438 0.929 . S
C466 C469 1.391 . S
C466 C471 1.391 . S
C467 H439 0.929 . S
C467 C468 1.390 . S
C467 N470 1.391 . S
C468 H440 0.930 . S
C468 C467 1.390 . S
C468 C469 1.392 . S
C469 H441 0.929 . S
C469 C466 1.391 . S
C469 C468 1.392 . S
N470 Co414 2.257 . S
N470 C467 1.391 . S
N470 C471 1.388 . S
C471 H442 0.930 . S
C471 C466 1.391 . S
C471 N470 1.388 . S
Co472 O474 2.143 . S
Co472 O480 2.074 . S
Co472 O483 2.093 . S
Co472 O496 2.097 . S
Co472 N513 2.151 . S
Co472 N521 2.214 . S
Co473 O474 2.160 . S
Co473 O479 2.058 . S
Co473 O489 2.057 . S
Co473 O504 2.037 . S
Co473 N508 2.145 . S
Co473 N529 2.257 . S
O474 Co472 2.143 . S
O474 Co473 2.160 . S
C475 O476 1.278 . S
C475 O483 1.224 . S
O476 C475 1.278 . S
C477 O478 1.245 . S
C477 O489 1.232 . S
O478 C477 1.245 . S
O479 Co473 2.058 . S
O479 C505 1.269 . S
O480 Co472 2.074 . S
O480 C505 1.257 . S
H481 C506 0.930 . S
H482 C512 0.930 . S
O483 Co472 2.093 . S
O483 C475 1.224 . S
H484 C516 0.929 . S
H485 C518 0.930 . S
H486 C519 0.930 . S
H487 C517 0.929 . S
H488 C520 0.928 . S
O489 Co473 2.057 . S
O489 C477 1.232 . S
H490 C509 0.929 . S
H491 C510 0.929 . S
H492 C522 0.931 . S
H493 C514 0.929 . S
H494 C523 0.930 . S
H495 C515 0.931 . S
O496 Co472 2.097 . S
O496 C524 1.214 . S
H497 C525 0.929 . S
H498 C526 0.929 . S
H499 C527 0.930 . S
H500 C528 0.929 . S
H501 C530 0.930 . S
H502 C507 0.930 . S
H503 C511 0.930 . S
O504 Co473 2.037 . S
O504 C524 1.234 . S
C505 O479 1.269 . S
C505 O480 1.257 . S
C506 H481 0.930 . S
C506 C509 1.388 . S
C506 C511 1.418 . S
C507 H502 0.930 . S
C507 C510 1.404 . S
C507 C511 1.353 . S
N508 Co473 2.145 . S
N508 C509 1.397 . S
N508 C510 1.334 . S
C509 H490 0.929 . S
C509 C506 1.388 . S
C509 N508 1.397 . S
C510 H491 0.929 . S
C510 C507 1.404 . S
C510 N508 1.334 . S
C511 H503 0.930 . S
C511 C506 1.418 . S
C511 C507 1.353 . S
C512 H482 0.930 . S
C512 N513 1.330 . S
C512 C514 1.446 . S
N513 Co472 2.151 . S
N513 C512 1.330 . S
N513 C517 1.418 . S
C514 H493 0.929 . S
C514 C512 1.446 . S
C514 C515 1.332 . S
C515 H495 0.931 . S
C515 C514 1.332 . S
C515 C516 1.267 . S
C516 H484 0.929 . S
C516 C515 1.267 . S
C516 C517 1.251 . S
C517 H487 0.929 . S
C517 N513 1.418 . S
C517 C516 1.251 . S
C518 H485 0.930 . S
C518 C520 1.406 . S
C518 C523 1.261 . S
C519 H486 0.930 . S
C519 N521 1.325 . S
C519 C522 1.357 . S
C520 H488 0.928 . S
C520 C518 1.406 . S
C520 N521 1.261 . S
N521 Co472 2.214 . S
N521 C519 1.325 . S
N521 C520 1.261 . S
C522 H492 0.931 . S
C522 C519 1.357 . S
C522 C523 1.312 . S
C523 H494 0.930 . S
C523 C518 1.261 . S
C523 C522 1.312 . S
C524 O496 1.214 . S
C524 O504 1.234 . S
C525 H497 0.929 . S
C525 C528 1.391 . S
C525 C530 1.391 . S
C526 H498 0.929 . S
C526 C527 1.390 . S
C526 N529 1.391 . S
C527 H499 0.930 . S
C527 C526 1.390 . S
C527 C528 1.392 . S
C528 H500 0.929 . S
C528 C525 1.391 . S
C528 C527 1.392 . S
N529 Co473 2.257 . S
N529 C526 1.391 . S
N529 C530 1.388 . S
C530 H501 0.930 . S
C530 C525 1.391 . S
C530 N529 1.388 . S
Co531 O533 2.143 . S
Co531 O539 2.074 . S
Co531 O542 2.093 . S
Co531 O555 2.097 . S
Co531 N572 2.151 . S
Co531 N580 2.214 1_655 S
Co532 O533 2.160 . S
Co532 O538 2.058 . S
Co532 O548 2.057 . S
Co532 O563 2.037 . S
Co532 N567 2.145 . S
Co532 N588 2.257 . S
O533 Co531 2.143 . S
O533 Co532 2.160 . S
C534 O535 1.278 . S
C534 O542 1.224 . S
O535 C534 1.278 . S
C536 O537 1.245 . S
C536 O548 1.232 . S
O537 C536 1.245 . S
O538 Co532 2.058 . S
O538 C564 1.269 . S
O539 Co531 2.074 . S
O539 C564 1.257 . S
H540 C565 0.930 . S
H541 C571 0.930 . S
O542 Co531 2.093 . S
O542 C534 1.224 . S
H543 C575 0.929 . S
H544 C577 0.930 . S
H545 C578 0.930 . S
H546 C576 0.929 . S
H547 C579 0.928 . S
O548 Co532 2.057 . S
O548 C536 1.232 . S
H549 C568 0.929 . S
H550 C569 0.929 . S
H551 C581 0.931 . S
H552 C573 0.929 . S
H553 C582 0.930 . S
H554 C574 0.931 . S
O555 Co531 2.097 . S
O555 C583 1.214 . S
H556 C584 0.929 . S
H557 C585 0.929 . S
H558 C586 0.930 . S
H559 C587 0.929 . S
H560 C589 0.930 . S
H561 C566 0.930 . S
H562 C570 0.930 . S
O563 Co532 2.037 . S
O563 C583 1.234 . S
C564 O538 1.269 . S
C564 O539 1.257 . S
C565 H540 0.930 . S
C565 C568 1.388 . S
C565 C570 1.418 . S
C566 H561 0.930 . S
C566 C569 1.404 . S
C566 C570 1.353 . S
N567 Co532 2.145 . S
N567 C568 1.397 . S
N567 C569 1.334 . S
C568 H549 0.929 . S
C568 C565 1.388 . S
C568 N567 1.397 . S
C569 H550 0.929 . S
C569 C566 1.404 . S
C569 N567 1.334 . S
C570 H562 0.930 . S
C570 C565 1.418 . S
C570 C566 1.353 . S
C571 H541 0.930 . S
C571 N572 1.330 . S
C571 C573 1.446 . S
N572 Co531 2.151 . S
N572 C571 1.330 . S
N572 C576 1.418 1_655 S
C573 H552 0.929 . S
C573 C571 1.446 . S
C573 C574 1.331 1_655 S
C574 H554 0.931 . S
C574 C573 1.331 1_455 S
C574 C575 1.267 . S
C575 H543 0.929 . S
C575 C574 1.267 . S
C575 C576 1.251 . S
C576 H546 0.929 . S
C576 N572 1.418 1_455 S
C576 C575 1.251 . S
C577 H544 0.930 . S
C577 C579 1.406 . S
C577 C582 1.261 . S
C578 H545 0.930 . S
C578 N580 1.325 . S
C578 C581 1.357 . S
C579 H547 0.928 . S
C579 C577 1.406 . S
C579 N580 1.261 . S
N580 Co531 2.214 1_455 S
N580 C578 1.325 . S
N580 C579 1.261 . S
C581 H551 0.931 . S
C581 C578 1.357 . S
C581 C582 1.312 . S
C582 H553 0.930 . S
C582 C577 1.261 . S
C582 C581 1.312 . S
C583 O555 1.214 . S
C583 O563 1.234 . S
C584 H556 0.929 . S
C584 C587 1.391 . S
C584 C589 1.391 . S
C585 H557 0.929 . S
C585 C586 1.390 . S
C585 N588 1.391 . S
C586 H558 0.930 . S
C586 C585 1.390 . S
C586 C587 1.392 . S
C587 H559 0.929 . S
C587 C584 1.391 . S
C587 C586 1.392 . S
N588 Co532 2.257 . S
N588 C585 1.391 . S
N588 C589 1.388 . S
C589 H560 0.930 . S
C589 C584 1.391 . S
C589 N588 1.388 . S
Co590 O592 2.143 . S
Co590 O598 2.074 . S
Co590 O601 2.093 . S
Co590 O614 2.097 . S
Co590 N631 2.151 . S
Co590 N639 2.214 1_455 S
Co591 O592 2.160 . S
Co591 O597 2.058 . S
Co591 O607 2.057 . S
Co591 O622 2.037 . S
Co591 N626 2.145 . S
Co591 N647 2.257 . S
O592 Co590 2.143 . S
O592 Co591 2.160 . S
C593 O594 1.278 . S
C593 O601 1.224 . S
O594 C593 1.278 . S
C595 O596 1.245 . S
C595 O607 1.232 . S
O596 C595 1.245 . S
O597 Co591 2.058 . S
O597 C623 1.269 . S
O598 Co590 2.074 . S
O598 C623 1.257 . S
H599 C624 0.930 . S
H600 C630 0.930 . S
O601 Co590 2.093 . S
O601 C593 1.224 . S
H602 C634 0.929 . S
H603 C636 0.930 . S
H604 C637 0.930 . S
H605 C635 0.929 . S
H606 C638 0.928 . S
O607 Co591 2.057 . S
O607 C595 1.232 . S
H608 C627 0.929 . S
H609 C628 0.929 . S
H610 C640 0.931 . S
H611 C632 0.929 . S
H612 C641 0.930 . S
H613 C633 0.931 . S
O614 Co590 2.097 . S
O614 C642 1.214 . S
H615 C643 0.929 . S
H616 C644 0.929 . S
H617 C645 0.930 . S
H618 C646 0.929 . S
H619 C648 0.930 . S
H620 C625 0.930 . S
H621 C629 0.930 . S
O622 Co591 2.037 . S
O622 C642 1.234 . S
C623 O597 1.269 . S
C623 O598 1.257 . S
C624 H599 0.930 . S
C624 C627 1.388 . S
C624 C629 1.418 . S
C625 H620 0.930 . S
C625 C628 1.404 . S
C625 C629 1.353 . S
N626 Co591 2.145 . S
N626 C627 1.397 . S
N626 C628 1.334 . S
C627 H608 0.929 . S
C627 C624 1.388 . S
C627 N626 1.397 . S
C628 H609 0.929 . S
C628 C625 1.404 . S
C628 N626 1.334 . S
C629 H621 0.930 . S
C629 C624 1.418 . S
C629 C625 1.353 . S
C630 H600 0.930 . S
C630 N631 1.330 . S
C630 C632 1.446 . S
N631 Co590 2.151 . S
N631 C630 1.330 . S
N631 C635 1.418 1_455 S
C632 H611 0.929 . S
C632 C630 1.446 . S
C632 C633 1.331 1_455 S
C633 H613 0.931 . S
C633 C632 1.331 1_655 S
C633 C634 1.267 . S
C634 H602 0.929 . S
C634 C633 1.267 . S
C634 C635 1.251 . S
C635 H605 0.929 . S
C635 N631 1.418 1_655 S
C635 C634 1.251 . S
C636 H603 0.930 . S
C636 C638 1.406 . S
C636 C641 1.261 . S
C637 H604 0.930 . S
C637 N639 1.325 . S
C637 C640 1.357 . S
C638 H606 0.928 . S
C638 C636 1.406 . S
C638 N639 1.261 . S
N639 Co590 2.214 1_655 S
N639 C637 1.325 . S
N639 C638 1.261 . S
C640 H610 0.931 . S
C640 C637 1.357 . S
C640 C641 1.312 . S
C641 H612 0.930 . S
C641 C636 1.261 . S
C641 C640 1.312 . S
C642 O614 1.214 . S
C642 O622 1.234 . S
C643 H615 0.929 . S
C643 C646 1.391 . S
C643 C648 1.391 . S
C644 H616 0.929 . S
C644 C645 1.390 . S
C644 N647 1.391 . S
C645 H617 0.930 . S
C645 C644 1.390 . S
C645 C646 1.392 . S
C646 H618 0.929 . S
C646 C643 1.391 . S
C646 C645 1.392 . S
N647 Co591 2.257 . S
N647 C644 1.391 . S
N647 C648 1.388 . S
C648 H619 0.930 . S
C648 C643 1.391 . S
C648 N647 1.388 . S
Co649 O651 2.143 . S
Co649 O657 2.074 . S
Co649 O660 2.093 . S
Co649 O673 2.097 . S
Co649 N690 2.151 . S
Co649 N698 2.214 . S
Co650 O651 2.160 . S
Co650 O656 2.058 . S
Co650 O666 2.057 . S
Co650 O681 2.037 . S
Co650 N685 2.145 . S
Co650 N706 2.257 . S
O651 Co649 2.143 . S
O651 Co650 2.160 . S
C652 O653 1.278 . S
C652 O660 1.224 . S
O653 C652 1.278 . S
C654 O655 1.245 . S
C654 O666 1.232 . S
O655 C654 1.245 . S
O656 Co650 2.058 . S
O656 C682 1.269 . S
O657 Co649 2.074 . S
O657 C682 1.257 . S
H658 C683 0.930 . S
H659 C689 0.930 . S
O660 Co649 2.093 . S
O660 C652 1.224 . S
H661 C693 0.929 . S
H662 C695 0.930 . S
H663 C696 0.930 . S
H664 C694 0.929 . S
H665 C697 0.928 . S
O666 Co650 2.057 . S
O666 C654 1.232 . S
H667 C686 0.929 . S
H668 C687 0.929 . S
H669 C699 0.931 . S
H670 C691 0.929 . S
H671 C700 0.930 . S
H672 C692 0.931 . S
O673 Co649 2.097 . S
O673 C701 1.214 . S
H674 C702 0.929 . S
H675 C703 0.929 . S
H676 C704 0.930 . S
H677 C705 0.929 . S
H678 C707 0.930 . S
H679 C684 0.930 . S
H680 C688 0.930 . S
O681 Co650 2.037 . S
O681 C701 1.234 . S
C682 O656 1.269 . S
C682 O657 1.257 . S
C683 H658 0.930 . S
C683 C686 1.388 . S
C683 C688 1.418 . S
C684 H679 0.930 . S
C684 C687 1.404 . S
C684 C688 1.353 . S
N685 Co650 2.145 . S
N685 C686 1.397 . S
N685 C687 1.334 . S
C686 H667 0.929 . S
C686 C683 1.388 . S
C686 N685 1.397 . S
C687 H668 0.929 . S
C687 C684 1.404 . S
C687 N685 1.334 . S
C688 H680 0.930 . S
C688 C683 1.418 . S
C688 C684 1.353 . S
C689 H659 0.930 . S
C689 N690 1.330 . S
C689 C691 1.446 . S
N690 Co649 2.151 . S
N690 C689 1.330 . S
N690 C694 1.418 . S
C691 H670 0.929 . S
C691 C689 1.446 . S
C691 C692 1.332 . S
C692 H672 0.931 . S
C692 C691 1.332 . S
C692 C693 1.267 . S
C693 H661 0.929 . S
C693 C692 1.267 . S
C693 C694 1.251 . S
C694 H664 0.929 . S
C694 N690 1.418 . S
C694 C693 1.251 . S
C695 H662 0.930 . S
C695 C697 1.406 . S
C695 C700 1.261 . S
C696 H663 0.930 . S
C696 N698 1.325 . S
C696 C699 1.357 . S
C697 H665 0.928 . S
C697 C695 1.406 . S
C697 N698 1.261 . S
N698 Co649 2.214 . S
N698 C696 1.325 . S
N698 C697 1.261 . S
C699 H669 0.931 . S
C699 C696 1.357 . S
C699 C700 1.312 . S
C700 H671 0.930 . S
C700 C695 1.261 . S
C700 C699 1.312 . S
C701 O673 1.214 . S
C701 O681 1.234 . S
C702 H674 0.929 . S
C702 C705 1.391 . S
C702 C707 1.391 . S
C703 H675 0.929 . S
C703 C704 1.390 . S
C703 N706 1.391 . S
C704 H676 0.930 . S
C704 C703 1.390 . S
C704 C705 1.392 . S
C705 H677 0.929 . S
C705 C702 1.391 . S
C705 C704 1.392 . S
N706 Co650 2.257 . S
N706 C703 1.391 . S
N706 C707 1.388 . S
C707 H678 0.930 . S
C707 C702 1.391 . S
C707 N706 1.388 . S
Co708 O710 2.143 . S
Co708 O716 2.074 . S
Co708 O719 2.093 . S
Co708 O732 2.097 . S
Co708 N749 2.151 . S
Co708 N757 2.214 . S
Co709 O710 2.160 . S
Co709 O715 2.058 . S
Co709 O725 2.057 . S
Co709 O740 2.037 . S
Co709 N744 2.145 . S
Co709 N765 2.257 . S
O710 Co708 2.143 . S
O710 Co709 2.160 . S
C711 O712 1.278 . S
C711 O719 1.224 . S
O712 C711 1.278 . S
C713 O714 1.245 . S
C713 O725 1.232 . S
O714 C713 1.245 . S
O715 Co709 2.058 . S
O715 C741 1.269 . S
O716 Co708 2.074 . S
O716 C741 1.257 . S
H717 C742 0.930 . S
H718 C748 0.930 . S
O719 Co708 2.093 . S
O719 C711 1.224 . S
H720 C752 0.929 . S
H721 C754 0.930 . S
H722 C755 0.930 . S
H723 C753 0.929 . S
H724 C756 0.928 . S
O725 Co709 2.057 . S
O725 C713 1.232 . S
H726 C745 0.929 . S
H727 C746 0.929 . S
H728 C758 0.931 . S
H729 C750 0.929 . S
H730 C759 0.930 . S
H731 C751 0.931 . S
O732 Co708 2.097 . S
O732 C760 1.214 . S
H733 C761 0.929 . S
H734 C762 0.929 . S
H735 C763 0.930 . S
H736 C764 0.929 . S
H737 C766 0.930 . S
H738 C743 0.930 . S
H739 C747 0.930 . S
O740 Co709 2.037 . S
O740 C760 1.234 . S
C741 O715 1.269 . S
C741 O716 1.257 . S
C742 H717 0.930 . S
C742 C745 1.388 . S
C742 C747 1.418 . S
C743 H738 0.930 . S
C743 C746 1.404 . S
C743 C747 1.353 . S
N744 Co709 2.145 . S
N744 C745 1.397 . S
N744 C746 1.334 . S
C745 H726 0.929 . S
C745 C742 1.388 . S
C745 N744 1.397 . S
C746 H727 0.929 . S
C746 C743 1.404 . S
C746 N744 1.334 . S
C747 H739 0.930 . S
C747 C742 1.418 . S
C747 C743 1.353 . S
C748 H718 0.930 . S
C748 N749 1.330 . S
C748 C750 1.446 . S
N749 Co708 2.151 . S
N749 C748 1.330 . S
N749 C753 1.418 . S
C750 H729 0.929 . S
C750 C748 1.446 . S
C750 C751 1.332 . S
C751 H731 0.931 . S
C751 C750 1.332 . S
C751 C752 1.267 . S
C752 H720 0.929 . S
C752 C751 1.267 . S
C752 C753 1.251 . S
C753 H723 0.929 . S
C753 N749 1.418 . S
C753 C752 1.251 . S
C754 H721 0.930 . S
C754 C756 1.406 . S
C754 C759 1.261 . S
C755 H722 0.930 . S
C755 N757 1.325 . S
C755 C758 1.357 . S
C756 H724 0.928 . S
C756 C754 1.406 . S
C756 N757 1.261 . S
N757 Co708 2.214 . S
N757 C755 1.325 . S
N757 C756 1.261 . S
C758 H728 0.931 . S
C758 C755 1.357 . S
C758 C759 1.312 . S
C759 H730 0.930 . S
C759 C754 1.261 . S
C759 C758 1.312 . S
C760 O732 1.214 . S
C760 O740 1.234 . S
C761 H733 0.929 . S
C761 C764 1.391 . S
C761 C766 1.391 . S
C762 H734 0.929 . S
C762 C763 1.390 . S
C762 N765 1.391 . S
C763 H735 0.930 . S
C763 C762 1.390 . S
C763 C764 1.392 . S
C764 H736 0.929 . S
C764 C761 1.391 . S
C764 C763 1.392 . S
N765 Co709 2.257 . S
N765 C762 1.391 . S
N765 C766 1.388 . S
C766 H737 0.930 . S
C766 C761 1.391 . S
C766 N765 1.388 . S
Co767 O769 2.143 . S
Co767 O775 2.074 . S
Co767 O778 2.093 . S
Co767 O791 2.097 . S
Co767 N808 2.151 . S
Co767 N816 2.214 1_455 S
Co768 O769 2.160 . S
Co768 O774 2.058 . S
Co768 O784 2.057 . S
Co768 O799 2.037 . S
Co768 N803 2.145 . S
Co768 N824 2.257 . S
O769 Co767 2.143 . S
O769 Co768 2.160 . S
C770 O771 1.278 . S
C770 O778 1.224 . S
O771 C770 1.278 . S
C772 O773 1.245 . S
C772 O784 1.232 . S
O773 C772 1.245 . S
O774 Co768 2.058 . S
O774 C800 1.269 . S
O775 Co767 2.074 . S
O775 C800 1.257 . S
H776 C801 0.930 . S
H777 C807 0.930 . S
O778 Co767 2.093 . S
O778 C770 1.224 . S
H779 C811 0.929 . S
H780 C813 0.930 . S
H781 C814 0.930 . S
H782 C812 0.929 . S
H783 C815 0.928 . S
O784 Co768 2.057 . S
O784 C772 1.232 . S
H785 C804 0.929 . S
H786 C805 0.929 . S
H787 C817 0.931 . S
H788 C809 0.929 . S
H789 C818 0.930 . S
H790 C810 0.931 . S
O791 Co767 2.097 . S
O791 C819 1.214 . S
H792 C820 0.929 . S
H793 C821 0.929 . S
H794 C822 0.930 . S
H795 C823 0.929 . S
H796 C825 0.930 . S
H797 C802 0.930 . S
H798 C806 0.930 . S
O799 Co768 2.037 . S
O799 C819 1.234 . S
C800 O774 1.269 . S
C800 O775 1.257 . S
C801 H776 0.930 . S
C801 C804 1.388 . S
C801 C806 1.418 . S
C802 H797 0.930 . S
C802 C805 1.404 . S
C802 C806 1.353 . S
N803 Co768 2.145 . S
N803 C804 1.397 . S
N803 C805 1.334 . S
C804 H785 0.929 . S
C804 C801 1.388 . S
C804 N803 1.397 . S
C805 H786 0.929 . S
C805 C802 1.404 . S
C805 N803 1.334 . S
C806 H798 0.930 . S
C806 C801 1.418 . S
C806 C802 1.353 . S
C807 H777 0.930 . S
C807 N808 1.330 . S
C807 C809 1.446 . S
N808 Co767 2.151 . S
N808 C807 1.330 . S
N808 C812 1.418 1_455 S
C809 H788 0.929 . S
C809 C807 1.446 . S
C809 C810 1.331 1_455 S
C810 H790 0.931 . S
C810 C809 1.331 1_655 S
C810 C811 1.267 . S
C811 H779 0.929 . S
C811 C810 1.267 . S
C811 C812 1.251 . S
C812 H782 0.929 . S
C812 N808 1.418 1_655 S
C812 C811 1.251 . S
C813 H780 0.930 . S
C813 C815 1.406 . S
C813 C818 1.261 . S
C814 H781 0.930 . S
C814 N816 1.325 . S
C814 C817 1.357 . S
C815 H783 0.928 . S
C815 C813 1.406 . S
C815 N816 1.261 . S
N816 Co767 2.214 1_655 S
N816 C814 1.325 . S
N816 C815 1.261 . S
C817 H787 0.931 . S
C817 C814 1.357 . S
C817 C818 1.312 . S
C818 H789 0.930 . S
C818 C813 1.261 . S
C818 C817 1.312 . S
C819 O791 1.214 . S
C819 O799 1.234 . S
C820 H792 0.929 . S
C820 C823 1.391 . S
C820 C825 1.391 . S
C821 H793 0.929 . S
C821 C822 1.390 . S
C821 N824 1.391 . S
C822 H794 0.930 . S
C822 C821 1.390 . S
C822 C823 1.392 . S
C823 H795 0.929 . S
C823 C820 1.391 . S
C823 C822 1.392 . S
N824 Co768 2.257 . S
N824 C821 1.391 . S
N824 C825 1.388 . S
C825 H796 0.930 . S
C825 C820 1.391 . S
C825 N824 1.388 . S
Co826 O828 2.143 . S
Co826 O834 2.074 . S
Co826 O837 2.093 . S
Co826 O850 2.097 . S
Co826 N867 2.151 . S
Co826 N875 2.214 1_655 S
Co827 O828 2.160 . S
Co827 O833 2.058 . S
Co827 O843 2.057 . S
Co827 O858 2.037 . S
Co827 N862 2.145 . S
Co827 N883 2.257 . S
O828 Co826 2.143 . S
O828 Co827 2.160 . S
C829 O830 1.278 . S
C829 O837 1.224 . S
O830 C829 1.278 . S
C831 O832 1.245 . S
C831 O843 1.232 . S
O832 C831 1.245 . S
O833 Co827 2.058 . S
O833 C859 1.269 . S
O834 Co826 2.074 . S
O834 C859 1.257 . S
H835 C860 0.930 . S
H836 C866 0.930 . S
O837 Co826 2.093 . S
O837 C829 1.224 . S
H838 C870 0.929 . S
H839 C872 0.930 . S
H840 C873 0.930 . S
H841 C871 0.929 . S
H842 C874 0.928 . S
O843 Co827 2.057 . S
O843 C831 1.232 . S
H844 C863 0.929 . S
H845 C864 0.929 . S
H846 C876 0.931 . S
H847 C868 0.929 . S
H848 C877 0.930 . S
H849 C869 0.931 . S
O850 Co826 2.097 . S
O850 C878 1.214 . S
H851 C879 0.929 . S
H852 C880 0.929 . S
H853 C881 0.930 . S
H854 C882 0.929 . S
H855 C884 0.930 . S
H856 C861 0.930 . S
H857 C865 0.930 . S
O858 Co827 2.037 . S
O858 C878 1.234 . S
C859 O833 1.269 . S
C859 O834 1.257 . S
C860 H835 0.930 . S
C860 C863 1.388 . S
C860 C865 1.418 . S
C861 H856 0.930 . S
C861 C864 1.404 . S
C861 C865 1.353 . S
N862 Co827 2.145 . S
N862 C863 1.397 . S
N862 C864 1.334 . S
C863 H844 0.929 . S
C863 C860 1.388 . S
C863 N862 1.397 . S
C864 H845 0.929 . S
C864 C861 1.404 . S
C864 N862 1.334 . S
C865 H857 0.930 . S
C865 C860 1.418 . S
C865 C861 1.353 . S
C866 H836 0.930 . S
C866 N867 1.330 . S
C866 C868 1.446 . S
N867 Co826 2.151 . S
N867 C866 1.330 . S
N867 C871 1.418 1_655 S
C868 H847 0.929 . S
C868 C866 1.446 . S
C868 C869 1.331 1_655 S
C869 H849 0.931 . S
C869 C868 1.331 1_455 S
C869 C870 1.267 . S
C870 H838 0.929 . S
C870 C869 1.267 . S
C870 C871 1.251 . S
C871 H841 0.929 . S
C871 N867 1.418 1_455 S
C871 C870 1.251 . S
C872 H839 0.930 . S
C872 C874 1.406 . S
C872 C877 1.261 . S
C873 H840 0.930 . S
C873 N875 1.325 . S
C873 C876 1.357 . S
C874 H842 0.928 . S
C874 C872 1.406 . S
C874 N875 1.261 . S
N875 Co826 2.214 1_455 S
N875 C873 1.325 . S
N875 C874 1.261 . S
C876 H846 0.931 . S
C876 C873 1.357 . S
C876 C877 1.312 . S
C877 H848 0.930 . S
C877 C872 1.261 . S
C877 C876 1.312 . S
C878 O850 1.214 . S
C878 O858 1.234 . S
C879 H851 0.929 . S
C879 C882 1.391 . S
C879 C884 1.391 . S
C880 H852 0.929 . S
C880 C881 1.390 . S
C880 N883 1.391 . S
C881 H853 0.930 . S
C881 C880 1.390 . S
C881 C882 1.392 . S
C882 H854 0.929 . S
C882 C879 1.391 . S
C882 C881 1.392 . S
N883 Co827 2.257 . S
N883 C880 1.391 . S
N883 C884 1.388 . S
C884 H855 0.930 . S
C884 C879 1.391 . S
C884 N883 1.388 . S
Co885 O887 2.143 . S
Co885 O893 2.074 . S
Co885 O896 2.093 . S
Co885 O909 2.097 . S
Co885 N926 2.151 . S
Co885 N934 2.214 . S
Co886 O887 2.160 . S
Co886 O892 2.058 . S
Co886 O902 2.057 . S
Co886 O917 2.037 . S
Co886 N921 2.145 . S
Co886 N942 2.257 . S
O887 Co885 2.143 . S
O887 Co886 2.160 . S
C888 O889 1.278 . S
C888 O896 1.224 . S
O889 C888 1.278 . S
C890 O891 1.245 . S
C890 O902 1.232 . S
O891 C890 1.245 . S
O892 Co886 2.058 . S
O892 C918 1.269 . S
O893 Co885 2.074 . S
O893 C918 1.257 . S
H894 C919 0.930 . S
H895 C925 0.930 . S
O896 Co885 2.093 . S
O896 C888 1.224 . S
H897 C929 0.929 . S
H898 C931 0.930 . S
H899 C932 0.930 . S
H900 C930 0.929 . S
H901 C933 0.928 . S
O902 Co886 2.057 . S
O902 C890 1.232 . S
H903 C922 0.929 . S
H904 C923 0.929 . S
H905 C935 0.931 . S
H906 C927 0.929 . S
H907 C936 0.930 . S
H908 C928 0.931 . S
O909 Co885 2.097 . S
O909 C937 1.214 . S
H910 C938 0.929 . S
H911 C939 0.929 . S
H912 C940 0.930 . S
H913 C941 0.929 . S
H914 C943 0.930 . S
H915 C920 0.930 . S
H916 C924 0.930 . S
O917 Co886 2.037 . S
O917 C937 1.234 . S
C918 O892 1.269 . S
C918 O893 1.257 . S
C919 H894 0.930 . S
C919 C922 1.388 . S
C919 C924 1.418 . S
C920 H915 0.930 . S
C920 C923 1.404 . S
C920 C924 1.353 . S
N921 Co886 2.145 . S
N921 C922 1.397 . S
N921 C923 1.334 . S
C922 H903 0.929 . S
C922 C919 1.388 . S
C922 N921 1.397 . S
C923 H904 0.929 . S
C923 C920 1.404 . S
C923 N921 1.334 . S
C924 H916 0.930 . S
C924 C919 1.418 . S
C924 C920 1.353 . S
C925 H895 0.930 . S
C925 N926 1.330 . S
C925 C927 1.446 . S
N926 Co885 2.151 . S
N926 C925 1.330 . S
N926 C930 1.418 . S
C927 H906 0.929 . S
C927 C925 1.446 . S
C927 C928 1.332 . S
C928 H908 0.931 . S
C928 C927 1.332 . S
C928 C929 1.267 . S
C929 H897 0.929 . S
C929 C928 1.267 . S
C929 C930 1.251 . S
C930 H900 0.929 . S
C930 N926 1.418 . S
C930 C929 1.251 . S
C931 H898 0.930 . S
C931 C933 1.406 . S
C931 C936 1.261 . S
C932 H899 0.930 . S
C932 N934 1.325 . S
C932 C935 1.357 . S
C933 H901 0.928 . S
C933 C931 1.406 . S
C933 N934 1.261 . S
N934 Co885 2.214 . S
N934 C932 1.325 . S
N934 C933 1.261 . S
C935 H905 0.931 . S
C935 C932 1.357 . S
C935 C936 1.312 . S
C936 H907 0.930 . S
C936 C931 1.261 . S
C936 C935 1.312 . S
C937 O909 1.214 . S
C937 O917 1.234 . S
C938 H910 0.929 . S
C938 C941 1.391 . S
C938 C943 1.391 . S
C939 H911 0.929 . S
C939 C940 1.390 . S
C939 N942 1.391 . S
C940 H912 0.930 . S
C940 C939 1.390 . S
C940 C941 1.392 . S
C941 H913 0.929 . S
C941 C938 1.391 . S
C941 C940 1.392 . S
N942 Co886 2.257 . S
N942 C939 1.391 . S
N942 C943 1.388 . S
C943 H914 0.930 . S
C943 C938 1.391 . S
C943 N942 1.388 . S
H944 C956 0.930 . S
H945 C958 0.930 1_545 S
H946 C959 0.930 . S
H947 C963 0.959 . S
H948 C963 0.959 . S
H949 C963 0.961 . S
H950 C964 0.960 . S
H951 C964 0.961 . S
H952 C964 0.959 . S
H953 C967 0.929 . S
H954 C968 0.931 . S
H955 C970 0.930 . S
C956 H944 0.930 . S
C956 C957 1.399 . S
C956 C961 1.399 . S
C957 C956 1.399 . S
C957 C958 1.376 . S
C958 H945 0.930 1_565 S
C958 C957 1.376 . S
C958 C959 1.388 1_565 S
C959 H946 0.930 . S
C959 C958 1.388 1_545 S
C959 C960 1.390 . S
C960 C959 1.390 . S
C960 C961 1.394 1_545 S
C960 C966 1.465 . S
C961 C956 1.399 . S
C961 C960 1.394 1_565 S
C961 C962 1.516 . S
C962 C961 1.516 . S
C962 C963 1.502 . S
C962 C964 1.561 1_565 S
C962 C965 1.526 1_565 S
C963 H947 0.959 . S
C963 H948 0.959 . S
C963 H949 0.961 . S
C963 C962 1.502 . S
C964 H950 0.960 . S
C964 H951 0.961 . S
C964 H952 0.959 . S
C964 C962 1.561 1_545 S
C965 C962 1.526 1_545 S
C965 C966 1.396 . S
C965 C970 1.390 . S
C966 C960 1.465 . S
C966 C965 1.396 . S
C966 C967 1.399 . S
C967 H953 0.929 . S
C967 C966 1.399 . S
C967 C968 1.385 . S
C968 H954 0.931 . S
C968 C967 1.385 . S
C968 C969 1.389 . S
C969 C968 1.389 . S
C969 C970 1.387 . S
C970 H955 0.930 . S
C970 C965 1.390 . S
C970 C969 1.387 . S
H971 C983 0.930 . S
H972 C985 0.930 1_545 S
H973 C986 0.930 . S
H974 C990 0.959 . S
H975 C990 0.959 . S
H976 C990 0.961 . S
H977 C991 0.960 . S
H978 C991 0.961 . S
H979 C991 0.959 . S
H980 C994 0.929 . S
H981 C995 0.931 . S
H982 C997 0.930 . S
C983 H971 0.930 . S
C983 C984 1.399 . S
C983 C988 1.399 . S
C984 C983 1.399 . S
C984 C985 1.376 . S
C985 H972 0.930 1_565 S
C985 C984 1.376 . S
C985 C986 1.388 1_565 S
C986 H973 0.930 . S
C986 C985 1.388 1_545 S
C986 C987 1.390 . S
C987 C986 1.390 . S
C987 C988 1.394 1_545 S
C987 C993 1.465 . S
C988 C983 1.399 . S
C988 C987 1.394 1_565 S
C988 C989 1.516 . S
C989 C988 1.516 . S
C989 C990 1.502 . S
C989 C991 1.561 1_565 S
C989 C992 1.526 1_565 S
C990 H974 0.959 . S
C990 H975 0.959 . S
C990 H976 0.961 . S
C990 C989 1.502 . S
C991 H977 0.960 . S
C991 H978 0.961 . S
C991 H979 0.959 . S
C991 C989 1.561 1_545 S
C992 C989 1.526 1_545 S
C992 C993 1.396 . S
C992 C997 1.390 . S
C993 C987 1.465 . S
C993 C992 1.396 . S
C993 C994 1.399 . S
C994 H980 0.929 . S
C994 C993 1.399 . S
C994 C995 1.385 . S
C995 H981 0.931 . S
C995 C994 1.385 . S
C995 C996 1.389 . S
C996 C995 1.389 . S
C996 C997 1.387 . S
C997 H982 0.930 . S
C997 C992 1.390 . S
C997 C996 1.387 . S
H998 C1010 0.930 . S
H999 C1012 0.930 . S
H1000 C1013 0.930 . S
H1001 C1017 0.959 . S
H1002 C1017 0.959 . S
H1003 C1017 0.961 . S
H1004 C1018 0.960 . S
H1005 C1018 0.961 . S
H1006 C1018 0.959 . S
H1007 C1021 0.929 . S
H1008 C1022 0.931 . S
H1009 C1024 0.930 . S
C1010 H998 0.930 . S
C1010 C1011 1.399 . S
C1010 C1015 1.399 . S
C1011 C1010 1.399 . S
C1011 C1012 1.376 1_565 S
C1012 H999 0.930 . S
C1012 C1011 1.376 1_545 S
C1012 C1013 1.388 . S
C1013 H1000 0.930 . S
C1013 C1012 1.388 . S
C1013 C1014 1.390 . S
C1014 C1013 1.390 . S
C1014 C1015 1.394 1_545 S
C1014 C1020 1.465 . S
C1015 C1010 1.399 . S
C1015 C1014 1.394 1_565 S
C1015 C1016 1.516 . S
C1016 C1015 1.516 . S
C1016 C1017 1.502 . S
C1016 C1018 1.561 . S
C1016 C1019 1.526 . S
C1017 H1001 0.959 . S
C1017 H1002 0.959 . S
C1017 H1003 0.961 . S
C1017 C1016 1.502 . S
C1018 H1004 0.960 . S
C1018 H1005 0.961 . S
C1018 H1006 0.959 . S
C1018 C1016 1.561 . S
C1019 C1016 1.526 . S
C1019 C1020 1.396 1_565 S
C1019 C1024 1.390 . S
C1020 C1014 1.465 . S
C1020 C1019 1.396 1_545 S
C1020 C1021 1.399 . S
C1021 H1007 0.929 . S
C1021 C1020 1.399 . S
C1021 C1022 1.385 . S
C1022 H1008 0.931 . S
C1022 C1021 1.385 . S
C1022 C1023 1.389 . S
C1023 C1022 1.389 . S
C1023 C1024 1.387 1_545 S
C1024 H1009 0.930 . S
C1024 C1019 1.390 . S
C1024 C1023 1.387 1_565 S
H1025 C1037 0.930 . S
H1026 C1039 0.930 . S
H1027 C1040 0.930 . S
H1028 C1044 0.959 . S
H1029 C1044 0.959 . S
H1030 C1044 0.961 . S
H1031 C1045 0.960 . S
H1032 C1045 0.961 . S
H1033 C1045 0.959 . S
H1034 C1048 0.929 . S
H1035 C1049 0.931 . S
H1036 C1051 0.930 . S
C1037 H1025 0.930 . S
C1037 C1038 1.399 1_545 S
C1037 C1042 1.399 . S
C1038 C1037 1.399 1_565 S
C1038 C1039 1.376 . S
C1039 H1026 0.930 . S
C1039 C1038 1.376 . S
C1039 C1040 1.388 . S
C1040 H1027 0.930 . S
C1040 C1039 1.388 . S
C1040 C1041 1.390 . S
C1041 C1040 1.390 . S
C1041 C1042 1.394 1_565 S
C1041 C1047 1.465 . S
C1042 C1037 1.399 . S
C1042 C1041 1.394 1_545 S
C1042 C1043 1.516 . S
C1043 C1042 1.516 . S
C1043 C1044 1.502 . S
C1043 C1045 1.561 . S
C1043 C1046 1.526 . S
C1044 H1028 0.959 . S
C1044 H1029 0.959 . S
C1044 H1030 0.961 . S
C1044 C1043 1.502 . S
C1045 H1031 0.960 . S
C1045 H1032 0.961 . S
C1045 H1033 0.959 . S
C1045 C1043 1.561 . S
C1046 C1043 1.526 . S
C1046 C1047 1.396 1_545 S
C1046 C1051 1.390 . S
C1047 C1041 1.465 . S
C1047 C1046 1.396 1_565 S
C1047 C1048 1.399 . S
C1048 H1034 0.929 . S
C1048 C1047 1.399 . S
C1048 C1049 1.385 . S
C1049 H1035 0.931 . S
C1049 C1048 1.385 . S
C1049 C1050 1.389 1_565 S
C1050 C1049 1.389 1_545 S
C1050 C1051 1.387 . S
C1051 H1036 0.930 . S
C1051 C1046 1.390 . S
C1051 C1050 1.387 . S
H1052 C1064 0.930 . S
H1053 C1066 0.930 . S
H1054 C1067 0.930 . S
H1055 C1071 0.959 . S
H1056 C1071 0.959 . S
H1057 C1071 0.961 . S
H1058 C1072 0.960 . S
H1059 C1072 0.961 . S
H1060 C1072 0.959 . S
H1061 C1075 0.929 . S
H1062 C1076 0.931 . S
H1063 C1078 0.930 . S
C1064 H1052 0.930 . S
C1064 C1065 1.399 . S
C1064 C1069 1.399 . S
C1065 C1064 1.399 . S
C1065 C1066 1.376 . S
C1066 H1053 0.930 . S
C1066 C1065 1.376 . S
C1066 C1067 1.388 . S
C1067 H1054 0.930 . S
C1067 C1066 1.388 . S
C1067 C1068 1.390 . S
C1068 C1067 1.390 . S
C1068 C1069 1.394 . S
C1068 C1074 1.465 . S
C1069 C1064 1.399 . S
C1069 C1068 1.394 . S
C1069 C1070 1.516 . S
C1070 C1069 1.516 . S
C1070 C1071 1.502 . S
C1070 C1072 1.561 . S
C1070 C1073 1.526 . S
C1071 H1055 0.959 . S
C1071 H1056 0.959 . S
C1071 H1057 0.961 . S
C1071 C1070 1.502 . S
C1072 H1058 0.960 . S
C1072 H1059 0.961 . S
C1072 H1060 0.959 . S
C1072 C1070 1.561 . S
C1073 C1070 1.526 . S
C1073 C1074 1.396 . S
C1073 C1078 1.390 . S
C1074 C1068 1.465 . S
C1074 C1073 1.396 . S
C1074 C1075 1.399 . S
C1075 H1061 0.929 . S
C1075 C1074 1.399 . S
C1075 C1076 1.385 . S
C1076 H1062 0.931 . S
C1076 C1075 1.385 . S
C1076 C1077 1.389 . S
C1077 C1076 1.389 . S
C1077 C1078 1.387 . S
C1078 H1063 0.930 . S
C1078 C1073 1.390 . S
C1078 C1077 1.387 . S
H1079 C1091 0.930 . S
H1080 C1093 0.930 . S
H1081 C1094 0.930 . S
H1082 C1098 0.959 . S
H1083 C1098 0.959 . S
H1084 C1098 0.961 . S
H1085 C1099 0.960 . S
H1086 C1099 0.961 . S
H1087 C1099 0.959 . S
H1088 C1102 0.929 . S
H1089 C1103 0.931 . S
H1090 C1105 0.930 . S
C1091 H1079 0.930 . S
C1091 C1092 1.399 . S
C1091 C1096 1.399 . S
C1092 C1091 1.399 . S
C1092 C1093 1.376 . S
C1093 H1080 0.930 . S
C1093 C1092 1.376 . S
C1093 C1094 1.388 . S
C1094 H1081 0.930 . S
C1094 C1093 1.388 . S
C1094 C1095 1.390 . S
C1095 C1094 1.390 . S
C1095 C1096 1.394 . S
C1095 C1101 1.465 . S
C1096 C1091 1.399 . S
C1096 C1095 1.394 . S
C1096 C1097 1.516 . S
C1097 C1096 1.516 . S
C1097 C1098 1.502 . S
C1097 C1099 1.561 . S
C1097 C1100 1.526 . S
C1098 H1082 0.959 . S
C1098 H1083 0.959 . S
C1098 H1084 0.961 . S
C1098 C1097 1.502 . S
C1099 H1085 0.960 . S
C1099 H1086 0.961 . S
C1099 H1087 0.959 . S
C1099 C1097 1.561 . S
C1100 C1097 1.526 . S
C1100 C1101 1.396 . S
C1100 C1105 1.390 . S
C1101 C1095 1.465 . S
C1101 C1100 1.396 . S
C1101 C1102 1.399 . S
C1102 H1088 0.929 . S
C1102 C1101 1.399 . S
C1102 C1103 1.385 . S
C1103 H1089 0.931 . S
C1103 C1102 1.385 . S
C1103 C1104 1.389 . S
C1104 C1103 1.389 . S
C1104 C1105 1.387 . S
C1105 H1090 0.930 . S
C1105 C1100 1.390 . S
C1105 C1104 1.387 . S
H1106 C1118 0.930 . S
H1107 C1120 0.930 . S
H1108 C1121 0.930 . S
H1109 C1125 0.959 . S
H1110 C1125 0.959 . S
H1111 C1125 0.961 . S
H1112 C1126 0.960 . S
H1113 C1126 0.961 . S
H1114 C1126 0.959 . S
H1115 C1129 0.929 . S
H1116 C1130 0.931 . S
H1117 C1132 0.930 . S
C1118 H1106 0.930 . S
C1118 C1119 1.399 . S
C1118 C1123 1.399 . S
C1119 C1118 1.399 . S
C1119 C1120 1.376 . S
C1120 H1107 0.930 . S
C1120 C1119 1.376 . S
C1120 C1121 1.388 . S
C1121 H1108 0.930 . S
C1121 C1120 1.388 . S
C1121 C1122 1.390 . S
C1122 C1121 1.390 . S
C1122 C1123 1.394 . S
C1122 C1128 1.465 . S
C1123 C1118 1.399 . S
C1123 C1122 1.394 . S
C1123 C1124 1.516 . S
C1124 C1123 1.516 . S
C1124 C1125 1.502 . S
C1124 C1126 1.561 . S
C1124 C1127 1.526 . S
C1125 H1109 0.959 . S
C1125 H1110 0.959 . S
C1125 H1111 0.961 . S
C1125 C1124 1.502 . S
C1126 H1112 0.960 . S
C1126 H1113 0.961 . S
C1126 H1114 0.959 . S
C1126 C1124 1.561 . S
C1127 C1124 1.526 . S
C1127 C1128 1.396 . S
C1127 C1132 1.390 . S
C1128 C1122 1.465 . S
C1128 C1127 1.396 . S
C1128 C1129 1.399 . S
C1129 H1115 0.929 . S
C1129 C1128 1.399 . S
C1129 C1130 1.385 . S
C1130 H1116 0.931 . S
C1130 C1129 1.385 . S
C1130 C1131 1.389 . S
C1131 C1130 1.389 . S
C1131 C1132 1.387 . S
C1132 H1117 0.930 . S
C1132 C1127 1.390 . S
C1132 C1131 1.387 . S
H1133 C1145 0.930 . S
H1134 C1147 0.930 . S
H1135 C1148 0.930 . S
H1136 C1152 0.959 . S
H1137 C1152 0.959 . S
H1138 C1152 0.961 . S
H1139 C1153 0.960 . S
H1140 C1153 0.961 . S
H1141 C1153 0.959 . S
H1142 C1156 0.929 . S
H1143 C1157 0.931 . S
H1144 C1159 0.930 . S
C1145 H1133 0.930 . S
C1145 C1146 1.399 . S
C1145 C1150 1.399 . S
C1146 C1145 1.399 . S
C1146 C1147 1.376 . S
C1147 H1134 0.930 . S
C1147 C1146 1.376 . S
C1147 C1148 1.388 . S
C1148 H1135 0.930 . S
C1148 C1147 1.388 . S
C1148 C1149 1.390 . S
C1149 C1148 1.390 . S
C1149 C1150 1.394 . S
C1149 C1155 1.465 . S
C1150 C1145 1.399 . S
C1150 C1149 1.394 . S
C1150 C1151 1.516 . S
C1151 C1150 1.516 . S
C1151 C1152 1.502 . S
C1151 C1153 1.561 . S
C1151 C1154 1.526 . S
C1152 H1136 0.959 . S
C1152 H1137 0.959 . S
C1152 H1138 0.961 . S
C1152 C1151 1.502 . S
C1153 H1139 0.960 . S
C1153 H1140 0.961 . S
C1153 H1141 0.959 . S
C1153 C1151 1.561 . S
C1154 C1151 1.526 . S
C1154 C1155 1.396 . S
C1154 C1159 1.390 . S
C1155 C1149 1.465 . S
C1155 C1154 1.396 . S
C1155 C1156 1.399 . S
C1156 H1142 0.929 . S
C1156 C1155 1.399 . S
C1156 C1157 1.385 . S
C1157 H1143 0.931 . S
C1157 C1156 1.385 . S
C1157 C1158 1.389 . S
C1158 C1157 1.389 . S
C1158 C1159 1.387 . S
C1159 H1144 0.930 . S
C1159 C1154 1.390 . S
C1159 C1158 1.387 . S
H1160 C1172 0.930 . S
H1161 C1174 0.930 . S
H1162 C1175 0.930 . S
H1163 C1179 0.959 . S
H1164 C1179 0.959 . S
H1165 C1179 0.961 . S
H1166 C1180 0.960 1_655 S
H1167 C1180 0.961 . S
H1168 C1180 0.959 . S
H1169 C1183 0.929 . S
H1170 C1184 0.931 . S
H1171 C1186 0.930 . S
C1172 H1160 0.930 . S
C1172 C1173 1.399 . S
C1172 C1177 1.399 . S
C1173 C1172 1.399 . S
C1173 C1174 1.376 . S
C1174 H1161 0.930 . S
C1174 C1173 1.376 . S
C1174 C1175 1.388 1_655 S
C1175 H1162 0.930 . S
C1175 C1174 1.388 1_455 S
C1175 C1176 1.390 . S
C1176 C1175 1.390 . S
C1176 C1177 1.394 1_455 S
C1176 C1182 1.465 . S
C1177 C1172 1.399 . S
C1177 C1176 1.394 1_655 S
C1177 C1178 1.516 . S
C1178 C1177 1.516 . S
C1178 C1179 1.502 . S
C1178 C1180 1.561 1_655 S
C1178 C1181 1.526 1_655 S
C1179 H1163 0.959 . S
C1179 H1164 0.959 . S
C1179 H1165 0.961 . S
C1179 C1178 1.502 . S
C1180 H1166 0.960 1_455 S
C1180 H1167 0.961 . S
C1180 H1168 0.959 . S
C1180 C1178 1.561 1_455 S
C1181 C1178 1.526 1_455 S
C1181 C1182 1.396 . S
C1181 C1186 1.390 . S
C1182 C1176 1.465 . S
C1182 C1181 1.396 . S
C1182 C1183 1.399 . S
C1183 H1169 0.929 . S
C1183 C1182 1.399 . S
C1183 C1184 1.385 . S
C1184 H1170 0.931 . S
C1184 C1183 1.385 . S
C1184 C1185 1.389 . S
C1185 C1184 1.389 . S
C1185 C1186 1.387 . S
C1186 H1171 0.930 . S
C1186 C1181 1.390 . S
C1186 C1185 1.387 . S
H1187 C1199 0.930 . S
H1188 C1201 0.930 . S
H1189 C1202 0.930 . S
H1190 C1206 0.959 . S
H1191 C1206 0.959 . S
H1192 C1206 0.961 . S
H1193 C1207 0.960 1_545 S
H1194 C1207 0.961 1_545 S
H1195 C1207 0.959 1_545 S
H1196 C1210 0.929 . S
H1197 C1211 0.931 . S
H1198 C1213 0.930 . S
C1199 H1187 0.930 . S
C1199 C1200 1.399 . S
C1199 C1204 1.399 . S
C1200 C1199 1.399 . S
C1200 C1201 1.376 . S
C1201 H1188 0.930 . S
C1201 C1200 1.376 . S
C1201 C1202 1.388 . S
C1202 H1189 0.930 . S
C1202 C1201 1.388 . S
C1202 C1203 1.390 . S
C1203 C1202 1.390 . S
C1203 C1204 1.394 . S
C1203 C1209 1.465 . S
C1204 C1199 1.399 . S
C1204 C1203 1.394 . S
C1204 C1205 1.516 . S
C1205 C1204 1.516 . S
C1205 C1206 1.502 . S
C1205 C1207 1.561 . S
C1205 C1208 1.526 . S
C1206 H1190 0.959 . S
C1206 H1191 0.959 . S
C1206 H1192 0.961 . S
C1206 C1205 1.502 . S
C1207 H1193 0.960 1_565 S
C1207 H1194 0.961 1_565 S
C1207 H1195 0.959 1_565 S
C1207 C1205 1.561 . S
C1208 C1205 1.526 . S
C1208 C1209 1.396 . S
C1208 C1213 1.390 . S
C1209 C1203 1.465 . S
C1209 C1208 1.396 . S
C1209 C1210 1.399 . S
C1210 H1196 0.929 . S
C1210 C1209 1.399 . S
C1210 C1211 1.385 . S
C1211 H1197 0.931 . S
C1211 C1210 1.385 . S
C1211 C1212 1.389 . S
C1212 C1211 1.389 . S
C1212 C1213 1.387 . S
C1213 H1198 0.930 . S
C1213 C1208 1.390 . S
C1213 C1212 1.387 . S
H1214 C1226 0.930 . S
H1215 C1228 0.930 . S
H1216 C1229 0.930 . S
H1217 C1233 0.959 . S
H1218 C1233 0.959 . S
H1219 C1233 0.961 . S
H1220 C1234 0.960 1_455 S
H1221 C1234 0.961 . S
H1222 C1234 0.959 1_565 S
H1223 C1237 0.929 . S
H1224 C1238 0.931 . S
H1225 C1240 0.930 . S
C1226 H1214 0.930 . S
C1226 C1227 1.399 . S
C1226 C1231 1.399 . S
C1227 C1226 1.399 . S
C1227 C1228 1.376 . S
C1228 H1215 0.930 . S
C1228 C1227 1.376 . S
C1228 C1229 1.388 1_455 S
C1229 H1216 0.930 . S
C1229 C1228 1.388 1_655 S
C1229 C1230 1.390 . S
C1230 C1229 1.390 . S
C1230 C1231 1.394 1_655 S
C1230 C1236 1.465 . S
C1231 C1226 1.399 . S
C1231 C1230 1.394 1_455 S
C1231 C1232 1.516 . S
C1232 C1231 1.516 . S
C1232 C1233 1.502 . S
C1232 C1234 1.561 1_465 S
C1232 C1235 1.526 1_455 S
C1233 H1217 0.959 . S
C1233 H1218 0.959 . S
C1233 H1219 0.961 . S
C1233 C1232 1.502 . S
C1234 H1220 0.960 1_655 S
C1234 H1221 0.961 . S
C1234 H1222 0.959 1_545 S
C1234 C1232 1.561 1_645 S
C1235 C1232 1.526 1_655 S
C1235 C1236 1.396 . S
C1235 C1240 1.390 . S
C1236 C1230 1.465 . S
C1236 C1235 1.396 . S
C1236 C1237 1.399 . S
C1237 H1223 0.929 . S
C1237 C1236 1.399 . S
C1237 C1238 1.385 . S
C1238 H1224 0.931 . S
C1238 C1237 1.385 . S
C1238 C1239 1.389 . S
C1239 C1238 1.389 . S
C1239 C1240 1.387 . S
C1240 H1225 0.930 . S
C1240 C1235 1.390 . S
C1240 C1239 1.387 . S
H1241 C1253 0.930 . S
H1242 C1255 0.930 . S
H1243 C1256 0.930 . S
H1244 C1260 0.959 . S
H1245 C1260 0.959 . S
H1246 C1260 0.961 . S
H1247 C1261 0.960 . S
H1248 C1261 0.961 . S
H1249 C1261 0.959 . S
H1250 C1264 0.929 . S
H1251 C1265 0.931 . S
H1252 C1267 0.930 . S
C1253 H1241 0.930 . S
C1253 C1254 1.399 . S
C1253 C1258 1.399 . S
C1254 C1253 1.399 . S
C1254 C1255 1.376 . S
C1255 H1242 0.930 . S
C1255 C1254 1.376 . S
C1255 C1256 1.388 . S
C1256 H1243 0.930 . S
C1256 C1255 1.388 . S
C1256 C1257 1.390 . S
C1257 C1256 1.390 . S
C1257 C1258 1.394 . S
C1257 C1263 1.465 . S
C1258 C1253 1.399 . S
C1258 C1257 1.394 . S
C1258 C1259 1.516 . S
C1259 C1258 1.516 . S
C1259 C1260 1.502 . S
C1259 C1261 1.561 . S
C1259 C1262 1.526 . S
C1260 H1244 0.959 . S
C1260 H1245 0.959 . S
C1260 H1246 0.961 . S
C1260 C1259 1.502 . S
C1261 H1247 0.960 . S
C1261 H1248 0.961 . S
C1261 H1249 0.959 . S
C1261 C1259 1.561 . S
C1262 C1259 1.526 . S
C1262 C1263 1.396 . S
C1262 C1267 1.390 . S
C1263 C1257 1.465 . S
C1263 C1262 1.396 . S
C1263 C1264 1.399 . S
C1264 H1250 0.929 . S
C1264 C1263 1.399 . S
C1264 C1265 1.385 . S
C1265 H1251 0.931 . S
C1265 C1264 1.385 . S
C1265 C1266 1.389 . S
C1266 C1265 1.389 . S
C1266 C1267 1.387 . S
C1267 H1252 0.930 . S
C1267 C1262 1.390 . S
C1267 C1266 1.387 . S
H1268 C1280 0.930 . S
H1269 C1282 0.930 . S
H1270 C1283 0.930 . S
H1271 C1287 0.959 . S
H1272 C1287 0.959 . S
H1273 C1287 0.961 . S
H1274 C1288 0.960 . S
H1275 C1288 0.961 . S
H1276 C1288 0.959 . S
H1277 C1291 0.929 . S
H1278 C1292 0.931 . S
H1279 C1294 0.930 . S
C1280 H1268 0.930 . S
C1280 C1281 1.399 . S
C1280 C1285 1.399 . S
C1281 C1280 1.399 . S
C1281 C1282 1.376 . S
C1282 H1269 0.930 . S
C1282 C1281 1.376 . S
C1282 C1283 1.388 . S
C1283 H1270 0.930 . S
C1283 C1282 1.388 . S
C1283 C1284 1.390 . S
C1284 C1283 1.390 . S
C1284 C1285 1.394 . S
C1284 C1290 1.465 . S
C1285 C1280 1.399 . S
C1285 C1284 1.394 . S
C1285 C1286 1.516 . S
C1286 C1285 1.516 . S
C1286 C1287 1.502 . S
C1286 C1288 1.561 . S
C1286 C1289 1.526 . S
C1287 H1271 0.959 . S
C1287 H1272 0.959 . S
C1287 H1273 0.961 . S
C1287 C1286 1.502 . S
C1288 H1274 0.960 . S
C1288 H1275 0.961 . S
C1288 H1276 0.959 . S
C1288 C1286 1.561 . S
C1289 C1286 1.526 . S
C1289 C1290 1.396 . S
C1289 C1294 1.390 . S
C1290 C1284 1.465 . S
C1290 C1289 1.396 . S
C1290 C1291 1.399 . S
C1291 H1277 0.929 . S
C1291 C1290 1.399 . S
C1291 C1292 1.385 . S
C1292 H1278 0.931 . S
C1292 C1291 1.385 . S
C1292 C1293 1.389 . S
C1293 C1292 1.389 . S
C1293 C1294 1.387 . S
C1294 H1279 0.930 . S
C1294 C1289 1.390 . S
C1294 C1293 1.387 . S
H1295 C1307 0.930 . S
H1296 C1309 0.930 . S
H1297 C1310 0.930 . S
H1298 C1314 0.959 . S
H1299 C1314 0.959 . S
H1300 C1314 0.961 . S
H1301 C1315 0.960 . S
H1302 C1315 0.961 . S
H1303 C1315 0.959 . S
H1304 C1318 0.931 . S
H1305 C1319 0.931 . S
H1306 C1321 0.930 . S
C1307 H1295 0.930 . S
C1307 C1308 1.399 . S
C1307 C1312 1.399 . S
C1308 C1307 1.399 . S
C1308 C1309 1.376 . S
C1309 H1296 0.930 . S
C1309 C1308 1.376 . S
C1309 C1310 1.388 . S
C1310 H1297 0.930 . S
C1310 C1309 1.388 . S
C1310 C1311 1.390 . S
C1311 C1310 1.390 . S
C1311 C1312 1.394 . S
C1311 C1317 1.480 . S
C1312 C1307 1.399 . S
C1312 C1311 1.394 . S
C1312 C1313 1.516 1_455 S
C1313 C1312 1.516 1_655 S
C1313 C1314 1.502 . S
C1313 C1315 1.561 1_655 S
C1313 C1316 1.526 . S
C1314 H1298 0.959 . S
C1314 H1299 0.959 . S
C1314 H1300 0.961 . S
C1314 C1313 1.502 . S
C1315 H1301 0.960 . S
C1315 H1302 0.961 . S
C1315 H1303 0.959 . S
C1315 C1313 1.561 1_455 S
C1316 C1313 1.526 . S
C1316 C1317 1.381 1_655 S
C1316 C1321 1.390 . S
C1317 C1311 1.480 . S
C1317 C1316 1.381 1_455 S
C1317 C1318 1.398 . S
C1318 H1304 0.931 . S
C1318 C1317 1.398 . S
C1318 C1319 1.384 1_455 S
C1319 H1305 0.931 . S
C1319 C1318 1.384 1_655 S
C1319 C1320 1.389 . S
C1320 C1319 1.389 . S
C1320 C1321 1.387 . S
C1321 H1306 0.930 . S
C1321 C1316 1.390 . S
C1321 C1320 1.387 . S
H1322 C1334 0.930 . S
H1323 C1336 0.930 . S
H1324 C1337 0.930 . S
H1325 C1341 0.959 . S
H1326 C1341 0.959 . S
H1327 C1341 0.961 . S
H1328 C1342 0.960 . S
H1329 C1342 0.961 . S
H1330 C1342 0.959 . S
H1331 C1345 0.929 . S
H1332 C1346 0.931 . S
H1333 C1348 0.930 . S
C1334 H1322 0.930 . S
C1334 C1335 1.399 . S
C1334 C1339 1.399 . S
C1335 C1334 1.399 . S
C1335 C1336 1.376 . S
C1336 H1323 0.930 . S
C1336 C1335 1.376 . S
C1336 C1337 1.388 . S
C1337 H1324 0.930 . S
C1337 C1336 1.388 . S
C1337 C1338 1.390 . S
C1338 C1337 1.390 . S
C1338 C1339 1.394 . S
C1338 C1344 1.465 . S
C1339 C1334 1.399 . S
C1339 C1338 1.394 . S
C1339 C1340 1.516 . S
C1340 C1339 1.516 . S
C1340 C1341 1.502 . S
C1340 C1342 1.561 . S
C1340 C1343 1.526 . S
C1341 H1325 0.959 . S
C1341 H1326 0.959 . S
C1341 H1327 0.961 . S
C1341 C1340 1.502 . S
C1342 H1328 0.960 . S
C1342 H1329 0.961 . S
C1342 H1330 0.959 . S
C1342 C1340 1.561 . S
C1343 C1340 1.526 . S
C1343 C1344 1.396 . S
C1343 C1348 1.390 . S
C1344 C1338 1.465 . S
C1344 C1343 1.396 . S
C1344 C1345 1.399 . S
C1345 H1331 0.929 . S
C1345 C1344 1.399 . S
C1345 C1346 1.385 . S
C1346 H1332 0.931 . S
C1346 C1345 1.385 . S
C1346 C1347 1.389 . S
C1347 C1346 1.389 . S
C1347 C1348 1.387 . S
C1348 H1333 0.930 . S
C1348 C1343 1.390 . S
C1348 C1347 1.387 . S
H1349 C1361 0.930 . S
H1350 C1363 0.930 . S
H1351 C1364 0.930 . S
H1352 C1368 0.959 . S
H1353 C1368 0.959 . S
H1354 C1368 0.961 . S
H1355 C1369 0.960 . S
H1356 C1369 0.961 1_655 S
H1357 C1369 0.959 . S
H1358 C1372 0.929 . S
H1359 C1373 0.931 . S
H1360 C1375 0.930 . S
C1361 H1349 0.930 . S
C1361 C1362 1.399 . S
C1361 C1366 1.399 . S
C1362 C1361 1.399 . S
C1362 C1363 1.376 . S
C1363 H1350 0.930 . S
C1363 C1362 1.376 . S
C1363 C1364 1.388 . S
C1364 H1351 0.930 . S
C1364 C1363 1.388 . S
C1364 C1365 1.390 . S
C1365 C1364 1.390 . S
C1365 C1366 1.394 . S
C1365 C1371 1.465 . S
C1366 C1361 1.399 . S
C1366 C1365 1.394 . S
C1366 C1367 1.516 1_455 S
C1367 C1366 1.516 1_655 S
C1367 C1368 1.502 . S
C1367 C1369 1.561 1_655 S
C1367 C1370 1.526 . S
C1368 H1352 0.959 . S
C1368 H1353 0.959 . S
C1368 H1354 0.961 . S
C1368 C1367 1.502 . S
C1369 H1355 0.960 . S
C1369 H1356 0.961 1_455 S
C1369 H1357 0.959 . S
C1369 C1367 1.561 1_455 S
C1370 C1367 1.526 . S
C1370 C1371 1.396 1_655 S
C1370 C1375 1.390 . S
C1371 C1365 1.465 . S
C1371 C1370 1.396 1_455 S
C1371 C1372 1.399 . S
C1372 H1358 0.929 . S
C1372 C1371 1.399 . S
C1372 C1373 1.385 1_455 S
C1373 H1359 0.931 . S
C1373 C1372 1.385 1_655 S
C1373 C1374 1.389 . S
C1374 C1373 1.389 . S
C1374 C1375 1.387 . S
C1375 H1360 0.930 . S
C1375 C1370 1.390 . S
C1375 C1374 1.387 . S
H1376 C1388 0.930 . S
H1377 C1390 0.930 . S
H1378 C1391 0.930 . S
H1379 C1395 0.959 . S
H1380 C1395 0.959 . S
H1381 C1395 0.961 . S
H1382 C1396 0.960 . S
H1383 C1396 0.961 . S
H1384 C1396 0.959 . S
H1385 C1399 0.929 . S
H1386 C1400 0.931 . S
H1387 C1402 0.930 . S
C1388 H1376 0.930 . S
C1388 C1389 1.399 . S
C1388 C1393 1.399 . S
C1389 C1388 1.399 . S
C1389 C1390 1.376 . S
C1390 H1377 0.930 . S
C1390 C1389 1.376 . S
C1390 C1391 1.388 1_455 S
C1391 H1378 0.930 . S
C1391 C1390 1.388 1_655 S
C1391 C1392 1.390 . S
C1392 C1391 1.390 . S
C1392 C1393 1.394 1_655 S
C1392 C1398 1.465 . S
C1393 C1388 1.399 . S
C1393 C1392 1.394 1_455 S
C1393 C1394 1.516 . S
C1394 C1393 1.516 . S
C1394 C1395 1.502 . S
C1394 C1396 1.561 1_455 S
C1394 C1397 1.526 1_455 S
C1395 H1379 0.959 . S
C1395 H1380 0.959 . S
C1395 H1381 0.961 . S
C1395 C1394 1.502 . S
C1396 H1382 0.960 . S
C1396 H1383 0.961 . S
C1396 H1384 0.959 . S
C1396 C1394 1.561 1_655 S
C1397 C1394 1.526 1_655 S
C1397 C1398 1.396 . S
C1397 C1402 1.390 . S
C1398 C1392 1.465 . S
C1398 C1397 1.396 . S
C1398 C1399 1.399 . S
C1399 H1385 0.929 . S
C1399 C1398 1.399 . S
C1399 C1400 1.385 . S
C1400 H1386 0.931 . S
C1400 C1399 1.385 . S
C1400 C1401 1.389 . S
C1401 C1400 1.389 . S
C1401 C1402 1.387 . S
C1402 H1387 0.930 . S
C1402 C1397 1.390 . S
C1402 C1401 1.387 . S
H1403 C1415 0.930 . S
H1404 C1417 0.930 . S
H1405 C1418 0.930 . S
H1406 C1422 0.959 . S
H1407 C1422 0.959 . S
H1408 C1422 0.961 . S
H1409 C1423 0.960 . S
H1410 C1423 0.961 . S
H1411 C1423 0.959 . S
H1412 C1426 0.929 . S
H1413 C1427 0.931 . S
H1414 C1429 0.930 . S
C1415 H1403 0.930 . S
C1415 C1416 1.399 . S
C1415 C1420 1.399 . S
C1416 C1415 1.399 . S
C1416 C1417 1.376 . S
C1417 H1404 0.930 . S
C1417 C1416 1.376 . S
C1417 C1418 1.388 . S
C1418 H1405 0.930 . S
C1418 C1417 1.388 . S
C1418 C1419 1.390 . S
C1419 C1418 1.390 . S
C1419 C1420 1.394 . S
C1419 C1425 1.465 . S
C1420 C1415 1.399 . S
C1420 C1419 1.394 . S
C1420 C1421 1.516 . S
C1421 C1420 1.516 . S
C1421 C1422 1.502 . S
C1421 C1423 1.561 . S
C1421 C1424 1.526 . S
C1422 H1406 0.959 . S
C1422 H1407 0.959 . S
C1422 H1408 0.961 . S
C1422 C1421 1.502 . S
C1423 H1409 0.960 . S
C1423 H1410 0.961 . S
C1423 H1411 0.959 . S
C1423 C1421 1.561 . S
C1424 C1421 1.526 . S
C1424 C1425 1.396 . S
C1424 C1429 1.390 . S
C1425 C1419 1.465 . S
C1425 C1424 1.396 . S
C1425 C1426 1.399 . S
C1426 H1412 0.929 . S
C1426 C1425 1.399 . S
C1426 C1427 1.385 . S
C1427 H1413 0.931 . S
C1427 C1426 1.385 . S
C1427 C1428 1.389 . S
C1428 C1427 1.389 . S
C1428 C1429 1.387 . S
C1429 H1414 0.930 . S
C1429 C1424 1.390 . S
C1429 C1428 1.387 . S
H1430 C1442 0.930 . S
H1431 C1444 0.930 . S
H1432 C1445 0.930 . S
H1433 C1449 0.959 . S
H1434 C1449 0.959 . S
H1435 C1449 0.961 . S
H1436 C1450 0.960 . S
H1437 C1450 0.961 . S
H1438 C1450 0.959 . S
H1439 C1453 0.929 . S
H1440 C1454 0.931 . S
H1441 C1456 0.930 . S
C1442 H1430 0.930 . S
C1442 C1443 1.399 . S
C1442 C1447 1.399 . S
C1443 C1442 1.399 . S
C1443 C1444 1.376 . S
C1444 H1431 0.930 . S
C1444 C1443 1.376 . S
C1444 C1445 1.388 . S
C1445 H1432 0.930 . S
C1445 C1444 1.388 . S
C1445 C1446 1.390 . S
C1446 C1445 1.390 . S
C1446 C1447 1.394 . S
C1446 C1452 1.465 . S
C1447 C1442 1.399 . S
C1447 C1446 1.394 . S
C1447 C1448 1.516 . S
C1448 C1447 1.516 . S
C1448 C1449 1.502 . S
C1448 C1450 1.561 . S
C1448 C1451 1.526 . S
C1449 H1433 0.959 . S
C1449 H1434 0.959 . S
C1449 H1435 0.961 . S
C1449 C1448 1.502 . S
C1450 H1436 0.960 . S
C1450 H1437 0.961 . S
C1450 H1438 0.959 . S
C1450 C1448 1.561 . S
C1451 C1448 1.526 . S
C1451 C1452 1.396 . S
C1451 C1456 1.390 . S
C1452 C1446 1.465 . S
C1452 C1451 1.396 . S
C1452 C1453 1.399 . S
C1453 H1439 0.929 . S
C1453 C1452 1.399 . S
C1453 C1454 1.385 . S
C1454 H1440 0.931 . S
C1454 C1453 1.385 . S
C1454 C1455 1.389 . S
C1455 C1454 1.389 . S
C1455 C1456 1.387 . S
C1456 H1441 0.930 . S
C1456 C1451 1.390 . S
C1456 C1455 1.387 . S
H1457 C1469 0.930 . S
H1458 C1471 0.930 . S
H1459 C1472 0.930 . S
H1460 C1476 0.959 . S
H1461 C1476 0.959 . S
H1462 C1476 0.961 . S
H1463 C1477 0.960 . S
H1464 C1477 0.961 . S
H1465 C1477 0.959 . S
H1466 C1480 0.929 . S
H1467 C1481 0.931 . S
H1468 C1483 0.930 . S
C1469 H1457 0.930 . S
C1469 C1470 1.399 . S
C1469 C1474 1.399 . S
C1470 C1469 1.399 . S
C1470 C1471 1.376 . S
C1471 H1458 0.930 . S
C1471 C1470 1.376 . S
C1471 C1472 1.388 1_455 S
C1472 H1459 0.930 . S
C1472 C1471 1.388 1_655 S
C1472 C1473 1.390 . S
C1473 C1472 1.390 . S
C1473 C1474 1.394 1_655 S
C1473 C1479 1.465 . S
C1474 C1469 1.399 . S
C1474 C1473 1.394 1_455 S
C1474 C1475 1.516 . S
C1475 C1474 1.516 . S
C1475 C1476 1.502 . S
C1475 C1477 1.561 1_455 S
C1475 C1478 1.526 1_455 S
C1476 H1460 0.959 . S
C1476 H1461 0.959 . S
C1476 H1462 0.961 . S
C1476 C1475 1.502 . S
C1477 H1463 0.960 . S
C1477 H1464 0.961 . S
C1477 H1465 0.959 . S
C1477 C1475 1.561 1_655 S
C1478 C1475 1.526 1_655 S
C1478 C1479 1.396 . S
C1478 C1483 1.390 . S
C1479 C1473 1.465 . S
C1479 C1478 1.396 . S
C1479 C1480 1.399 . S
C1480 H1466 0.929 . S
C1480 C1479 1.399 . S
C1480 C1481 1.385 . S
C1481 H1467 0.931 . S
C1481 C1480 1.385 . S
C1481 C1482 1.389 . S
C1482 C1481 1.389 . S
C1482 C1483 1.387 . S
C1483 H1468 0.930 . S
C1483 C1478 1.390 . S
C1483 C1482 1.387 . S
H1484 C1496 0.930 . S
H1485 C1498 0.930 . S
H1486 C1499 0.930 . S
H1487 C1503 0.959 . S
H1488 C1503 0.959 . S
H1489 C1503 0.961 . S
H1490 C1504 0.960 . S
H1491 C1504 0.961 . S
H1492 C1504 0.959 . S
H1493 C1507 0.929 . S
H1494 C1508 0.931 . S
H1495 C1510 0.930 . S
C1496 H1484 0.930 . S
C1496 C1497 1.399 . S
C1496 C1501 1.399 . S
C1497 C1496 1.399 . S
C1497 C1498 1.376 . S
C1498 H1485 0.930 . S
C1498 C1497 1.376 . S
C1498 C1499 1.388 . S
C1499 H1486 0.930 . S
C1499 C1498 1.388 . S
C1499 C1500 1.390 . S
C1500 C1499 1.390 . S
C1500 C1501 1.394 . S
C1500 C1506 1.465 . S
C1501 C1496 1.399 . S
C1501 C1500 1.394 . S
C1501 C1502 1.516 1_455 S
C1502 C1501 1.516 1_655 S
C1502 C1503 1.502 . S
C1502 C1504 1.561 1_655 S
C1502 C1505 1.526 . S
C1503 H1487 0.959 . S
C1503 H1488 0.959 . S
C1503 H1489 0.961 . S
C1503 C1502 1.502 . S
C1504 H1490 0.960 . S
C1504 H1491 0.961 . S
C1504 H1492 0.959 . S
C1504 C1502 1.561 1_455 S
C1505 C1502 1.526 . S
C1505 C1506 1.396 1_655 S
C1505 C1510 1.390 . S
C1506 C1500 1.465 . S
C1506 C1505 1.396 1_455 S
C1506 C1507 1.399 . S
C1507 H1493 0.929 . S
C1507 C1506 1.399 . S
C1507 C1508 1.385 1_455 S
C1508 H1494 0.931 . S
C1508 C1507 1.385 1_655 S
C1508 C1509 1.389 . S
C1509 C1508 1.389 . S
C1509 C1510 1.387 . S
C1510 H1495 0.930 . S
C1510 C1505 1.390 . S
C1510 C1509 1.387 . S
H1511 C1523 0.930 . S
H1512 C1525 0.930 . S
H1513 C1526 0.930 . S
H1514 C1530 0.959 . S
H1515 C1530 0.959 . S
H1516 C1530 0.961 . S
H1517 C1531 0.960 . S
H1518 C1531 0.961 . S
H1519 C1531 0.959 . S
H1520 C1534 0.929 . S
H1521 C1535 0.931 . S
H1522 C1537 0.930 . S
C1523 H1511 0.930 . S
C1523 C1524 1.399 . S
C1523 C1528 1.399 . S
C1524 C1523 1.399 . S
C1524 C1525 1.376 . S
C1525 H1512 0.930 . S
C1525 C1524 1.376 . S
C1525 C1526 1.388 . S
C1526 H1513 0.930 . S
C1526 C1525 1.388 . S
C1526 C1527 1.390 . S
C1527 C1526 1.390 . S
C1527 C1528 1.394 . S
C1527 C1533 1.465 . S
C1528 C1523 1.399 . S
C1528 C1527 1.394 . S
C1528 C1529 1.516 . S
C1529 C1528 1.516 . S
C1529 C1530 1.502 . S
C1529 C1531 1.561 . S
C1529 C1532 1.526 . S
C1530 H1514 0.959 . S
C1530 H1515 0.959 . S
C1530 H1516 0.961 . S
C1530 C1529 1.502 . S
C1531 H1517 0.960 . S
C1531 H1518 0.961 . S
C1531 H1519 0.959 . S
C1531 C1529 1.561 . S
C1532 C1529 1.526 . S
C1532 C1533 1.396 . S
C1532 C1537 1.390 . S
C1533 C1527 1.465 . S
C1533 C1532 1.396 . S
C1533 C1534 1.399 . S
C1534 H1520 0.929 . S
C1534 C1533 1.399 . S
C1534 C1535 1.385 . S
C1535 H1521 0.931 . S
C1535 C1534 1.385 . S
C1535 C1536 1.389 . S
C1536 C1535 1.389 . S
C1536 C1537 1.387 . S
C1537 H1522 0.930 . S
C1537 C1532 1.390 . S
C1537 C1536 1.387 . S
H1538 C1550 0.930 . S
H1539 C1552 0.930 . S
H1540 C1553 0.930 . S
H1541 C1557 0.959 . S
H1542 C1557 0.959 . S
H1543 C1557 0.961 . S
H1544 C1558 0.960 . S
H1545 C1558 0.961 . S
H1546 C1558 0.959 . S
H1547 C1561 0.929 . S
H1548 C1562 0.931 . S
H1549 C1564 0.930 . S
C1550 H1538 0.930 . S
C1550 C1551 1.399 . S
C1550 C1555 1.399 . S
C1551 C1550 1.399 . S
C1551 C1552 1.376 . S
C1552 H1539 0.930 . S
C1552 C1551 1.376 . S
C1552 C1553 1.388 . S
C1553 H1540 0.930 . S
C1553 C1552 1.388 . S
C1553 C1554 1.390 . S
C1554 C1553 1.390 . S
C1554 C1555 1.394 . S
C1554 C1560 1.465 . S
C1555 C1550 1.399 . S
C1555 C1554 1.394 . S
C1555 C1556 1.516 . S
C1556 C1555 1.516 . S
C1556 C1557 1.502 . S
C1556 C1558 1.561 . S
C1556 C1559 1.526 . S
C1557 H1541 0.959 . S
C1557 H1542 0.959 . S
C1557 H1543 0.961 . S
C1557 C1556 1.502 . S
C1558 H1544 0.960 . S
C1558 H1545 0.961 . S
C1558 H1546 0.959 . S
C1558 C1556 1.561 . S
C1559 C1556 1.526 . S
C1559 C1560 1.396 . S
C1559 C1564 1.390 . S
C1560 C1554 1.465 . S
C1560 C1559 1.396 . S
C1560 C1561 1.399 . S
C1561 H1547 0.929 . S
C1561 C1560 1.399 . S
C1561 C1562 1.385 . S
C1562 H1548 0.931 . S
C1562 C1561 1.385 . S
C1562 C1563 1.389 . S
C1563 C1562 1.389 . S
C1563 C1564 1.387 . S
C1564 H1549 0.930 . S
C1564 C1559 1.390 . S
C1564 C1563 1.387 . S
H1565 C1577 0.930 . S
H1566 C1579 0.930 . S
H1567 C1580 0.930 . S
H1568 C1584 0.959 . S
H1569 C1584 0.959 . S
H1570 C1584 0.961 . S
H1571 C1585 0.960 . S
H1572 C1585 0.961 . S
H1573 C1585 0.959 . S
H1574 C1588 0.929 . S
H1575 C1589 0.931 . S
H1576 C1591 0.930 . S
C1577 H1565 0.930 . S
C1577 C1578 1.399 . S
C1577 C1582 1.399 . S
C1578 C1577 1.399 . S
C1578 C1579 1.376 . S
C1579 H1566 0.930 . S
C1579 C1578 1.376 . S
C1579 C1580 1.388 . S
C1580 H1567 0.930 . S
C1580 C1579 1.388 . S
C1580 C1581 1.390 . S
C1581 C1580 1.390 . S
C1581 C1582 1.394 . S
C1581 C1587 1.465 . S
C1582 C1577 1.399 . S
C1582 C1581 1.394 . S
C1582 C1583 1.516 1_455 S
C1583 C1582 1.516 1_655 S
C1583 C1584 1.502 . S
C1583 C1585 1.561 1_655 S
C1583 C1586 1.526 . S
C1584 H1568 0.959 . S
C1584 H1569 0.959 . S
C1584 H1570 0.961 . S
C1584 C1583 1.502 . S
C1585 H1571 0.960 . S
C1585 H1572 0.961 . S
C1585 H1573 0.959 . S
C1585 C1583 1.561 1_455 S
C1586 C1583 1.526 . S
C1586 C1587 1.396 1_655 S
C1586 C1591 1.390 . S
C1587 C1581 1.465 . S
C1587 C1586 1.396 1_455 S
C1587 C1588 1.399 . S
C1588 H1574 0.929 . S
C1588 C1587 1.399 . S
C1588 C1589 1.385 1_455 S
C1589 H1575 0.931 . S
C1589 C1588 1.385 1_655 S
C1589 C1590 1.389 . S
C1590 C1589 1.389 . S
C1590 C1591 1.387 . S
C1591 H1576 0.930 . S
C1591 C1586 1.390 . S
C1591 C1590 1.387 . S
H1592 C1604 0.930 1_545 S
H1593 C1606 0.930 . S
H1594 C1607 0.918 1_554 S
H1595 C1611 0.959 . S
H1596 C1611 0.959 . S
H1597 C1611 0.961 . S
H1598 C1612 0.960 . S
H1599 C1612 0.961 1_455 S
H1600 C1612 0.959 . S
H1601 C1615 0.929 . S
H1602 C1616 0.938 . S
H1603 C1618 0.930 . S
C1604 H1592 0.930 1_565 S
C1604 C1605 1.399 . S
C1604 C1609 1.399 1_565 S
C1605 C1604 1.399 . S
C1605 C1606 1.376 . S
C1606 H1593 0.930 . S
C1606 C1605 1.376 . S
C1606 C1607 1.388 . S
C1607 H1594 0.918 1_556 S
C1607 C1606 1.388 . S
C1607 C1608 1.390 . S
C1608 C1607 1.390 . S
C1608 C1609 1.394 1_565 S
C1608 C1614 1.465 1_556 S
C1609 C1604 1.399 1_545 S
C1609 C1608 1.394 1_545 S
C1609 C1610 1.516 1_655 S
C1610 C1609 1.516 1_455 S
C1610 C1611 1.502 . S
C1610 C1612 1.561 1_455 S
C1610 C1613 1.526 1_556 S
C1611 H1595 0.959 . S
C1611 H1596 0.959 . S
C1611 H1597 0.961 . S
C1611 C1610 1.502 . S
C1612 H1598 0.960 . S
C1612 H1599 0.961 1_655 S
C1612 H1600 0.959 . S
C1612 C1610 1.561 1_655 S
C1613 C1610 1.526 1_554 S
C1613 C1614 1.396 1_445 S
C1613 C1618 1.390 . S
C1614 C1608 1.465 1_554 S
C1614 C1613 1.396 1_665 S
C1614 C1615 1.399 . S
C1615 H1601 0.929 . S
C1615 C1614 1.399 . S
C1615 C1616 1.396 1_655 S
C1616 H1602 0.938 . S
C1616 C1615 1.396 1_455 S
C1616 C1617 1.372 1_565 S
C1617 C1616 1.372 1_545 S
C1617 C1618 1.387 . S
C1618 H1603 0.930 . S
C1618 C1613 1.390 . S
C1618 C1617 1.387 . S
H1619 C1631 0.930 . S
H1620 C1633 0.930 . S
H1621 C1634 0.930 . S
H1622 C1638 0.959 . S
H1623 C1638 0.959 . S
H1624 C1638 0.961 . S
H1625 C1639 0.960 . S
H1626 C1639 0.961 . S
H1627 C1639 0.959 . S
H1628 C1642 0.948 . S
H1629 C1643 0.931 . S
H1630 C1645 0.930 1_545 S
C1631 H1619 0.930 . S
C1631 C1632 1.399 . S
C1631 C1636 1.399 . S
C1632 C1631 1.399 . S
C1632 C1633 1.376 1_545 S
C1633 H1620 0.930 . S
C1633 C1632 1.376 1_565 S
C1633 C1634 1.388 . S
C1634 H1621 0.930 . S
C1634 C1633 1.388 . S
C1634 C1635 1.390 . S
C1635 C1634 1.390 . S
C1635 C1636 1.394 1_565 S
C1635 C1641 1.465 1_556 S
C1636 C1631 1.399 . S
C1636 C1635 1.394 1_545 S
C1636 C1637 1.516 1_556 S
C1637 C1636 1.516 1_554 S
C1637 C1638 1.502 . S
C1637 C1639 1.561 . S
C1637 C1640 1.526 . S
C1638 H1622 0.959 . S
C1638 H1623 0.959 . S
C1638 H1624 0.961 . S
C1638 C1637 1.502 . S
C1639 H1625 0.960 . S
C1639 H1626 0.961 . S
C1639 H1627 0.959 . S
C1639 C1637 1.561 . S
C1640 C1637 1.526 . S
C1640 C1641 1.396 1_545 S
C1640 C1645 1.390 1_545 S
C1641 C1635 1.465 1_554 S
C1641 C1640 1.396 1_565 S
C1641 C1642 1.399 . S
C1642 H1628 0.948 . S
C1642 C1641 1.399 . S
C1642 C1643 1.385 . S
C1643 H1629 0.931 . S
C1643 C1642 1.385 . S
C1643 C1644 1.389 . S
C1644 C1643 1.389 . S
C1644 C1645 1.387 . S
C1645 H1630 0.930 1_565 S
C1645 C1640 1.390 1_565 S
C1645 C1644 1.387 . S
H1646 C1658 0.930 . S
H1647 C1660 0.930 . S
H1648 C1661 0.930 . S
H1649 C1665 0.959 . S
H1650 C1665 0.959 1_565 S
H1651 C1665 0.961 . S
H1652 C1666 0.960 . S
H1653 C1666 0.961 . S
H1654 C1666 0.959 . S
H1655 C1669 0.929 1_545 S
H1656 C1670 0.931 . S
H1657 C1672 0.930 . S
C1658 H1646 0.930 . S
C1658 C1659 1.399 . S
C1658 C1663 1.399 . S
C1659 C1658 1.399 . S
C1659 C1660 1.376 . S
C1660 H1647 0.930 . S
C1660 C1659 1.376 . S
C1660 C1661 1.388 . S
C1661 H1648 0.930 . S
C1661 C1660 1.388 . S
C1661 C1662 1.390 . S
C1662 C1661 1.390 . S
C1662 C1663 1.394 . S
C1662 C1668 1.465 1_545 S
C1663 C1658 1.399 . S
C1663 C1662 1.394 . S
C1663 C1664 1.516 1_545 S
C1664 C1663 1.516 1_565 S
C1664 C1665 1.502 1_565 S
C1664 C1666 1.561 . S
C1664 C1667 1.526 . S
C1665 H1649 0.959 . S
C1665 H1650 0.959 1_545 S
C1665 H1651 0.961 . S
C1665 C1664 1.502 1_545 S
C1666 H1652 0.960 . S
C1666 H1653 0.961 . S
C1666 H1654 0.959 . S
C1666 C1664 1.561 . S
C1667 C1664 1.526 . S
C1667 C1668 1.396 . S
C1667 C1672 1.390 . S
C1668 C1662 1.465 1_565 S
C1668 C1667 1.396 . S
C1668 C1669 1.399 . S
C1669 H1655 0.929 1_565 S
C1669 C1668 1.399 . S
C1669 C1670 1.385 . S
C1670 H1656 0.931 . S
C1670 C1669 1.385 . S
C1670 C1671 1.389 . S
C1671 C1670 1.389 . S
C1671 C1672 1.387 . S
C1672 H1657 0.930 . S
C1672 C1667 1.390 . S
C1672 C1671 1.387 . S
H1673 C1685 0.930 . S
H1674 C1687 0.930 . S
H1675 C1688 0.930 . S
H1676 C1692 0.937 1_455 S
H1677 C1692 0.972 . S
H1678 C1692 0.959 1_455 S
H1679 C1693 0.960 . S
H1680 C1693 0.961 . S
H1681 C1693 0.959 . S
H1682 C1696 0.929 1_455 S
H1683 C1697 0.931 . S
H1684 C1699 0.930 1_565 S
C1685 H1673 0.930 . S
C1685 C1686 1.399 . S
C1685 C1690 1.399 . S
C1686 C1685 1.399 . S
C1686 C1687 1.376 1_565 S
C1687 H1674 0.930 . S
C1687 C1686 1.376 1_545 S
C1687 C1688 1.388 . S
C1688 H1675 0.930 . S
C1688 C1687 1.388 . S
C1688 C1689 1.390 . S
C1689 C1688 1.390 . S
C1689 C1690 1.394 1_545 S
C1689 C1695 1.465 1_455 S
C1690 C1685 1.399 . S
C1690 C1689 1.394 1_565 S
C1690 C1691 1.516 1_455 S
C1691 C1690 1.516 1_655 S
C1691 C1692 1.512 . S
C1691 C1693 1.561 . S
C1691 C1694 1.526 . S
C1692 H1676 0.937 1_655 S
C1692 H1677 0.972 . S
C1692 H1678 0.959 1_655 S
C1692 C1691 1.512 . S
C1693 H1679 0.960 . S
C1693 H1680 0.961 . S
C1693 H1681 0.959 . S
C1693 C1691 1.561 . S
C1694 C1691 1.526 . S
C1694 C1695 1.396 1_565 S
C1694 C1699 1.390 1_565 S
C1695 C1689 1.465 1_655 S
C1695 C1694 1.396 1_545 S
C1695 C1696 1.399 . S
C1696 H1682 0.929 1_655 S
C1696 C1695 1.399 . S
C1696 C1697 1.385 . S
C1697 H1683 0.931 . S
C1697 C1696 1.385 . S
C1697 C1698 1.389 . S
C1698 C1697 1.389 . S
C1698 C1699 1.387 . S
C1699 H1684 0.930 1_545 S
C1699 C1694 1.390 1_545 S
C1699 C1698 1.387 . S
H1700 C1712 0.930 . S
H1701 C1714 0.930 . S
H1702 C1715 0.930 . S
H1703 C1719 0.959 1_556 S
H1704 C1719 0.959 1_556 S
H1705 C1719 0.961 . S
H1706 C1720 0.960 . S
H1707 C1720 0.961 . S
H1708 C1720 0.959 . S
H1709 C1723 0.929 . S
H1710 C1724 0.931 . S
H1711 C1726 0.930 . S
C1712 H1700 0.930 . S
C1712 C1713 1.399 . S
C1712 C1717 1.399 . S
C1713 C1712 1.399 . S
C1713 C1714 1.376 . S
C1714 H1701 0.930 . S
C1714 C1713 1.376 . S
C1714 C1715 1.388 . S
C1715 H1702 0.930 . S
C1715 C1714 1.388 . S
C1715 C1716 1.390 . S
C1716 C1715 1.390 . S
C1716 C1717 1.394 . S
C1716 C1722 1.465 1_554 S
C1717 C1712 1.399 . S
C1717 C1716 1.394 . S
C1717 C1718 1.516 . S
C1718 C1717 1.516 . S
C1718 C1719 1.502 . S
C1718 C1720 1.561 . S
C1718 C1721 1.526 1_554 S
C1719 H1703 0.959 1_554 S
C1719 H1704 0.959 1_554 S
C1719 H1705 0.961 . S
C1719 C1718 1.502 . S
C1720 H1706 0.960 . S
C1720 H1707 0.961 . S
C1720 H1708 0.959 . S
C1720 C1718 1.561 . S
C1721 C1718 1.526 1_556 S
C1721 C1722 1.396 . S
C1721 C1726 1.390 . S
C1722 C1716 1.465 1_556 S
C1722 C1721 1.396 . S
C1722 C1723 1.399 . S
C1723 H1709 0.929 . S
C1723 C1722 1.399 . S
C1723 C1724 1.385 . S
C1724 H1710 0.931 . S
C1724 C1723 1.385 . S
C1724 C1725 1.389 . S
C1725 C1724 1.389 . S
C1725 C1726 1.387 . S
C1726 H1711 0.930 . S
C1726 C1721 1.390 . S
C1726 C1725 1.387 . S
H1727 C1739 0.930 . S
H1728 C1741 0.930 . S
H1729 C1742 0.930 . S
H1730 C1746 0.959 1_556 S
H1731 C1746 0.959 1_556 S
H1732 C1746 0.961 . S
H1733 C1747 0.960 . S
H1734 C1747 0.961 . S
H1735 C1747 0.959 . S
H1736 C1750 0.929 . S
H1737 C1751 0.931 . S
H1738 C1753 0.930 . S
C1739 H1727 0.930 . S
C1739 C1740 1.399 . S
C1739 C1744 1.399 . S
C1740 C1739 1.399 . S
C1740 C1741 1.376 . S
C1741 H1728 0.930 . S
C1741 C1740 1.376 . S
C1741 C1742 1.388 1_655 S
C1742 H1729 0.930 . S
C1742 C1741 1.388 1_455 S
C1742 C1743 1.390 . S
C1743 C1742 1.390 . S
C1743 C1744 1.394 1_455 S
C1743 C1749 1.465 1_554 S
C1744 C1739 1.399 . S
C1744 C1743 1.394 1_655 S
C1744 C1745 1.516 . S
C1745 C1744 1.516 . S
C1745 C1746 1.502 . S
C1745 C1747 1.561 1_655 S
C1745 C1748 1.526 1_654 S
C1746 H1730 0.959 1_554 S
C1746 H1731 0.959 1_554 S
C1746 H1732 0.961 . S
C1746 C1745 1.502 . S
C1747 H1733 0.960 . S
C1747 H1734 0.961 . S
C1747 H1735 0.959 . S
C1747 C1745 1.561 1_455 S
C1748 C1745 1.526 1_456 S
C1748 C1749 1.396 . S
C1748 C1753 1.390 . S
C1749 C1743 1.465 1_556 S
C1749 C1748 1.396 . S
C1749 C1750 1.399 . S
C1750 H1736 0.929 . S
C1750 C1749 1.399 . S
C1750 C1751 1.385 . S
C1751 H1737 0.931 . S
C1751 C1750 1.385 . S
C1751 C1752 1.389 . S
C1752 C1751 1.389 . S
C1752 C1753 1.387 . S
C1753 H1738 0.930 . S
C1753 C1748 1.390 . S
C1753 C1752 1.387 . S
H1754 C1766 0.930 . S
H1755 C1768 0.930 . S
H1756 C1769 0.930 . S
H1757 C1773 0.959 . S
H1758 C1773 0.959 . S
H1759 C1773 0.961 . S
H1760 C1774 0.960 . S
H1761 C1774 0.961 . S
H1762 C1774 0.959 . S
H1763 C1777 0.929 . S
H1764 C1778 0.931 . S
H1765 C1780 0.930 . S
C1766 H1754 0.930 . S
C1766 C1767 1.399 . S
C1766 C1771 1.399 . S
C1767 C1766 1.399 . S
C1767 C1768 1.376 . S
C1768 H1755 0.930 . S
C1768 C1767 1.376 . S
C1768 C1769 1.388 1_655 S
C1769 H1756 0.930 . S
C1769 C1768 1.388 1_455 S
C1769 C1770 1.390 . S
C1770 C1769 1.390 . S
C1770 C1771 1.394 1_455 S
C1770 C1776 1.465 . S
C1771 C1766 1.399 . S
C1771 C1770 1.394 1_655 S
C1771 C1772 1.516 . S
C1772 C1771 1.516 . S
C1772 C1773 1.502 . S
C1772 C1774 1.561 1_655 S
C1772 C1775 1.526 1_655 S
C1773 H1757 0.959 . S
C1773 H1758 0.959 . S
C1773 H1759 0.961 . S
C1773 C1772 1.502 . S
C1774 H1760 0.960 . S
C1774 H1761 0.961 . S
C1774 H1762 0.959 . S
C1774 C1772 1.561 1_455 S
C1775 C1772 1.526 1_455 S
C1775 C1776 1.396 . S
C1775 C1780 1.390 . S
C1776 C1770 1.465 . S
C1776 C1775 1.396 . S
C1776 C1777 1.399 . S
C1777 H1763 0.929 . S
C1777 C1776 1.399 . S
C1777 C1778 1.385 . S
C1778 H1764 0.931 . S
C1778 C1777 1.385 . S
C1778 C1779 1.389 . S
C1779 C1778 1.389 . S
C1779 C1780 1.387 . S
C1780 H1765 0.930 . S
C1780 C1775 1.390 . S
C1780 C1779 1.387 . S
H1781 C1793 0.930 . S
H1782 C1795 0.930 . S
H1783 C1796 0.930 . S
H1784 C1800 0.959 . S
H1785 C1800 0.959 . S
H1786 C1800 0.961 . S
H1787 C1801 0.960 . S
H1788 C1801 0.961 . S
H1789 C1801 0.959 . S
H1790 C1804 0.929 . S
H1791 C1805 0.931 . S
H1792 C1807 0.930 . S
C1793 H1781 0.930 . S
C1793 C1794 1.399 . S
C1793 C1798 1.399 . S
C1794 C1793 1.399 . S
C1794 C1795 1.376 . S
C1795 H1782 0.930 . S
C1795 C1794 1.376 . S
C1795 C1796 1.388 . S
C1796 H1783 0.930 . S
C1796 C1795 1.388 . S
C1796 C1797 1.390 . S
C1797 C1796 1.390 . S
C1797 C1798 1.394 . S
C1797 C1803 1.465 . S
C1798 C1793 1.399 . S
C1798 C1797 1.394 . S
C1798 C1799 1.516 . S
C1799 C1798 1.516 . S
C1799 C1800 1.502 . S
C1799 C1801 1.561 . S
C1799 C1802 1.526 . S
C1800 H1784 0.959 . S
C1800 H1785 0.959 . S
C1800 H1786 0.961 . S
C1800 C1799 1.502 . S
C1801 H1787 0.960 . S
C1801 H1788 0.961 . S
C1801 H1789 0.959 . S
C1801 C1799 1.561 . S
C1802 C1799 1.526 . S
C1802 C1803 1.396 . S
C1802 C1807 1.390 . S
C1803 C1797 1.465 . S
C1803 C1802 1.396 . S
C1803 C1804 1.399 . S
C1804 H1790 0.929 . S
C1804 C1803 1.399 . S
C1804 C1805 1.385 . S
C1805 H1791 0.931 . S
C1805 C1804 1.385 . S
C1805 C1806 1.389 . S
C1806 C1805 1.389 . S
C1806 C1807 1.387 . S
C1807 H1792 0.930 . S
C1807 C1802 1.390 . S
C1807 C1806 1.387 . S
C957 C64 1.556 . S
C969 C5 1.543 . S
C984 C123 1.557 . S
C996 C182 1.543 . S
C1011 C241 1.559 . S
C1023 C300 1.538 . S
C1038 C418 1.540 . S
C1050 C359 1.558 . S
C1065 C536 1.540 . S
C1077 C477 1.558 . S
C1092 C654 1.555 . S
C1104 C595 1.544 . S
C1119 C772 1.559 . S
C1131 C713 1.538 . S
C1146 C890 1.547 . S
C1158 C831 1.553 . S
C1173 C210 1.561 . S
C1185 C33 1.575 . S
C1200 C92 1.572 . S
C1212 C151 1.554 . S
C1227 C446 1.553 . S
C1239 C269 1.564 . S
C1254 C387 1.575 . S
C1266 C328 1.567 . S
C1281 C505 1.567 . S
C1293 C682 1.554 . S
C1308 C623 1.566 . S
C1320 C564 1.555 . S
C1335 C918 1.553 . S
C1347 C741 1.564 . S
C1362 C800 1.575 . S
C1374 C859 1.565 . S
C1389 C52 1.575 . S
C1401 C583 1.562 . S
C1416 C111 1.554 . S
C1428 C524 1.568 . S
C1443 C701 1.554 . S
C1455 C170 1.567 . S
C1470 C642 1.574 . S
C1482 C229 1.564 . S
C1497 C819 1.559 . S
C1509 C288 1.572 . S
C1524 C760 1.556 . S
C1536 C347 1.575 . S
C1551 C406 1.569 . S
C1563 C937 1.558 . S
C1578 C465 1.559 . S
C1590 C878 1.572 . S
C1605 C239 1.540 . S
C1617 C3 1.541 . S
C1632 C298 1.540 . S
C1644 C62 1.533 . S
C1659 C357 1.548 . S
C1671 C121 1.532 . S
C1686 C416 1.547 . S
C1698 C180 1.527 . S
C1713 C475 1.524 . S
C1725 C711 1.551 . S
C1740 C534 1.524 . S
C1752 C770 1.551 . S
C1767 C829 1.538 . S
C1779 C593 1.535 . S
C1794 C888 1.541 . S
C1806 C652 1.540 . S
