# Generated by pormake.
# Topology sxc, (6)-cn, num edge types: 1
# Building blocks:
#     Node 0, Type 0, BuildingBlock: KUMBOL_clean_sbu_1, # of connection points: 6
#     Node 1, Type 0, BuildingBlock: KUMBOL_clean_sbu_1, # of connection points: 6
#     Node 2, Type 0, BuildingBlock: KUMBOL_clean_sbu_1, # of connection points: 6
#     Edge 3, Type (0, 0), BuildingBlock: KIFKEQ_clean_linker_1, # of connection points: 2
#     Edge 4, Type (0, 0), BuildingBlock: KIFKEQ_clean_linker_1, # of connection points: 2
#     Edge 5, Type (0, 0), BuildingBlock: KIFKEQ_clean_linker_1, # of connection points: 2
#     Edge 6, Type (0, 0), BuildingBlock: KIFKEQ_clean_linker_1, # of connection points: 2
#     Edge 7, Type (0, 0), BuildingBlock: KIFKEQ_clean_linker_1, # of connection points: 2
#     Edge 8, Type (0, 0), BuildingBlock: KIFKEQ_clean_linker_1, # of connection points: 2
#     Edge 9, Type (0, 0), BuildingBlock: KIFKEQ_clean_linker_1, # of connection points: 2
#     Edge 10, Type (0, 0), BuildingBlock: KIFKEQ_clean_linker_1, # of connection points: 2
#     Edge 11, Type (0, 0), BuildingBlock: KIFKEQ_clean_linker_1, # of connection points: 2
# Relax obj value: 0.252
# Max RMSD: 0.157
# Mean RMSD: 0.115
data_MOF--net-sxc--node1-KUMBOL_clean_sbu_1--edge1-KIFKEQ_clean_linker_1
_symmetry_space_group_name_H-M    P1
_symmetry_Int_Tables_number       1
_symmetry_cell_setting            triclinic
loop_
_symmetry_equiv_pos_as_xyz
'x, y, z'
_cell_length_a     15.933899
_cell_length_b     17.066342
_cell_length_c     45.121696
_cell_angle_alpha  109.69512
_cell_angle_beta   98.742123
_cell_angle_gamma 98.043476
loop_
_atom_site_label
_atom_site_type_symbol
_atom_site_fract_x
_atom_site_fract_y
_atom_site_fract_z
_atom_type_partial_charge
C0 C 0.31201 0.11326 0.04529 0.0
C1 C 0.38388 1.04852 0.00207 0.0
C2 C 0.32416 1.09849 0.01388 0.0
C3 C 0.43122 1.01478 0.02197 0.0
C4 C 0.35912 1.07838 0.06504 0.0
C5 C 0.41858 1.02918 0.0532 0.0
N6 N 0.25417 0.16163 0.05649 0.0
C7 C 0.24546 0.18211 0.08766 0.0
C8 C 0.34665 1.09556 0.09648 0.0
C9 C 0.29003 0.14821 0.10789 0.0
Gd10 Gd 0.95646 0.16594 0.99001 0.0
Gd11 Gd 0.19896 0.22938 0.02295 0.0
N12 N 0.27979 0.13472 0.99536 0.0
C13 C 0.39624 1.03573 0.97088 0.0
C14 C 0.29526 0.12564 0.96552 0.0
C15 C 0.35184 1.07453 0.95258 0.0
H16 H 0.26833 0.16076 0.95205 0.0
H17 H 0.36336 1.06737 0.92886 0.0
H18 H 0.89208 0.24194 0.06161 0.0
H19 H 0.20894 0.22889 0.09769 0.0
H20 H 0.80353 0.34216 0.08551 0.0
H21 H 0.44157 0.99784 0.96099 0.0
H22 H 0.47932 0.97882 0.01378 0.0
H23 H 0.94439 0.16247 0.91455 0.0
H24 H 0.38216 1.07035 0.11239 0.0
H25 H 0.28276 0.16491 0.1326 0.0
H26 H 0.69058 0.4325 1.00081 0.0
H27 H 0.45609 1.00282 0.06818 0.0
H28 H 0.77311 0.32275 0.89952 0.0
H29 H 0.86919 0.2245 0.87911 0.0
N30 N 0.89948 0.23101 0.95565 0.0
C31 C 0.84387 0.282 0.96705 0.0
C32 C 0.90758 0.20923 0.92438 0.0
C33 C 0.80808 0.29736 0.9155 0.0
C34 C 0.86284 0.24257 0.90395 0.0
C35 C 0.79775 0.31753 0.9473 0.0
H36 H 0.7066 0.39929 0.94487 0.0
N37 N 0.87823 0.26393 0.01749 0.0
C38 C 0.8341 0.29998 0.99886 0.0
C39 C 0.76962 0.37155 0.04303 0.0
C40 C 0.77883 0.35486 0.01128 0.0
C41 C 0.86544 0.27666 0.0479 0.0
C42 C 0.81269 0.33189 0.06131 0.0
O43 O 0.14559 1.08228 0.01453 0.0
O44 O 0.9973 1.0437 0.99705 0.0
O45 O 0.8294 0.10773 0.993 0.0
O46 O 0.87051 1.07299 0.94651 0.0
O47 O 0.15637 0.22869 0.97249 0.0
O48 O 1.04212 0.11754 0.95526 0.0
O49 O 1.01055 0.31335 0.99879 0.0
O50 O 0.15946 0.35059 0.01456 0.0
O51 O 0.32803 0.28519 0.02278 0.0
O52 O 0.28125 0.32445 0.06782 0.0
O53 O 0.99962 0.16485 0.03995 0.0
O54 O 0.11182 0.27747 0.05722 0.0
C55 C 0.07249 1.02219 0.00568 0.0
C56 C 0.10156 0.16664 0.94882 0.0
C57 C 0.72549 1.00975 0.94607 0.0
C58 C 0.61972 0.88887 0.94222 0.0
C59 C 0.58552 0.97253 0.90966 0.0
C60 C 0.66809 1.02492 0.92281 0.0
C61 C 0.56084 0.90486 0.91953 0.0
C62 C 0.70149 0.94205 0.95557 0.0
C63 C 0.80902 1.06618 0.96197 0.0
C64 C 0.73349 0.39055 0.99162 0.0
C65 C 0.74257 0.37162 0.95974 0.0
H66 H 0.72783 0.41341 0.0534 0.0
C67 C 0.08398 0.37274 0.00674 0.0
C68 C 1.05364 0.22711 0.0636 0.0
C69 C 0.42643 0.3909 0.06819 0.0
C70 C 0.52541 0.50908 0.06605 0.0
C71 C 0.55241 0.4637 0.11152 0.0
C72 C 0.47648 0.40085 0.09805 0.0
C73 C 0.57677 0.51834 0.09571 0.0
C74 C 0.45264 0.4427 0.0519 0.0
C75 C 0.34666 0.32685 0.05379 0.0
H76 H 0.54037 0.98494 0.89213 0.0
H77 H 0.68637 1.07807 0.91548 0.0
H78 H 0.49636 0.86538 0.90963 0.0
H79 H 0.746 0.932 0.97408 0.0
H80 H 0.59128 0.4713 0.13455 0.0
H81 H 0.45699 0.36004 0.11078 0.0
H82 H 0.63362 0.56903 0.10706 0.0
H83 H 0.41422 0.43289 0.02844 0.0
C84 C 0.30918 0.43115 0.41108 0.0
C85 C 0.37265 0.51616 0.38321 0.0
C86 C 0.3019 0.46042 0.38556 0.0
C87 C 0.44986 0.54284 0.40683 0.0
C88 C 0.38587 0.46001 0.4353 0.0
C89 C 0.45623 0.51535 0.43288 0.0
N90 N 0.24162 0.37443 0.41216 0.0
C91 C 0.24208 0.35373 0.43882 0.0
C92 C 0.38931 0.43291 0.46141 0.0
C93 C 0.3164 0.38084 0.46347 0.0
Gd94 Gd 0.07081 1.09942 0.31649 0.0
Gd95 Gd 0.11914 0.33678 0.37045 0.0
N96 N 0.22654 0.43298 0.36278 0.0
C97 C 0.36398 0.54306 0.35704 0.0
C98 C 0.21679 0.46156 0.33786 0.0
C99 C 0.2856 0.51609 0.33442 0.0
H100 H 0.15609 0.44351 0.32066 0.0
H101 H 0.27797 0.53772 0.31439 0.0
H102 H 1.04966 0.99108 0.36697 0.0
H103 H 0.18423 0.31977 0.44194 0.0
H104 H 0.93306 0.89876 0.37683 0.0
H105 H 0.4171 0.58529 0.35425 0.0
H106 H 0.50494 0.58525 0.40527 0.0
H107 H 0.98558 0.12659 0.2488 0.0
H108 H 0.44683 0.45398 0.48057 0.0
H109 H 0.31674 0.36299 0.48434 0.0
H110 H 0.688 0.85726 0.29303 0.0
H111 H 0.51589 0.5374 0.4511 0.0
H112 H 0.72182 0.99348 0.21736 0.0
H113 H 0.84562 1.08567 0.2104 0.0
N114 N 0.93994 1.06742 0.27927 0.0
C115 C 0.87525 1.01058 0.28204 0.0
C116 C 0.93116 1.09129 0.25324 0.0
C117 C 0.7829 1.01314 0.23474 0.0
C118 C 0.8523 1.06585 0.23089 0.0
C119 C 0.79405 0.984 0.26032 0.0
H120 H 0.66405 0.90819 0.2482 0.0
N121 N 0.9694 1.00466 0.32738 0.0
C122 C 0.88993 0.97931 0.30693 0.0
C123 C 0.83791 0.89602 0.33693 0.0
C124 C 0.82221 0.92406 0.3112 0.0
C125 C 0.98589 0.9748 0.35175 0.0
C126 C 0.92012 0.92118 0.35716 0.0
O127 O 0.2401 0.28508 0.35524 0.0
O128 O 0.21398 0.14013 0.34302 0.0
O129 O 1.06763 0.96572 0.293 0.0
O130 O 0.12914 1.05539 0.27467 0.0
O131 O 1.06468 0.31663 0.31818 0.0
O132 O 0.12198 0.20016 0.29812 0.0
O133 O 0.95446 0.1548 0.33477 0.0
O134 O 0.97919 0.29552 0.34127 0.0
O135 O 0.11367 0.46863 0.39199 0.0
O136 O 1.05216 0.37752 0.40997 0.0
O137 O 0.13371 0.11988 0.3678 0.0
O138 O 0.07382 0.23393 0.38897 0.0
C139 C 0.26834 0.21276 0.34906 0.0
C140 C 0.08849 0.26241 0.29408 0.0
C141 C 0.2001 0.94625 0.2787 0.0
C142 C 0.29102 0.88746 0.31059 0.0
C143 C 0.31596 0.88218 0.25814 0.0
C144 C 0.24584 0.92172 0.25408 0.0
C145 C 0.33685 0.86253 0.28585 0.0
C146 C 0.22787 0.9351 0.30756 0.0
C147 C 0.12004 0.97858 0.27482 0.0
C148 C 0.74077 0.8994 0.29001 0.0
C149 C 0.72697 0.92871 0.26454 0.0
H150 H 0.7872 0.85441 0.34122 0.0
C151 C 0.92516 0.22566 0.33818 0.0
C152 C 0.11189 0.17351 0.39254 0.0
C153 C 0.98006 0.48717 0.40666 0.0
C154 C 0.90174 0.57546 0.38529 0.0
C155 C 0.85712 0.53414 0.42789 0.0
C156 C 0.92522 0.49039 0.4284 0.0
C157 C 0.84719 0.57924 0.40717 0.0
C158 C 0.9629 0.52377 0.38359 0.0
C159 C 1.06021 0.45421 0.40965 0.0
H160 H 0.35077 0.8622 0.23899 0.0
H161 H 0.22636 0.93136 0.23171 0.0
H162 H 0.38523 0.82449 0.28724 0.0
H163 H 0.19238 0.95538 0.32652 0.0
H164 H 0.81583 0.5379 0.44507 0.0
H165 H 0.93667 0.46161 0.44629 0.0
H166 H 0.80093 0.62062 0.40947 0.0
H167 H 1.0056 0.52201 0.36691 0.0
C168 C 0.26201 0.9053 0.61328 0.0
C169 C 0.32228 0.84743 0.65204 0.0
C170 C 0.26342 0.89334 0.64239 0.0
C171 C 0.37913 0.81455 0.63235 0.0
C172 C 0.31743 0.87043 0.59306 0.0
C173 C 0.37622 0.82543 0.60284 0.0
N174 N 0.20739 0.95241 0.60495 0.0
C175 C 0.20045 0.9622 0.57593 0.0
C176 C 0.31243 0.88232 0.56364 0.0
C177 C 0.25325 0.92799 0.55497 0.0
Gd178 Gd 0.17939 0.24155 0.69341 0.0
Gd179 Gd 0.11458 0.9994 0.63958 0.0
N180 N 0.2063 0.92456 0.66078 0.0
C181 C 0.32134 0.83437 0.68095 0.0
C182 C 0.20116 0.906 0.68775 0.0
C183 C 0.25989 0.86291 0.69865 0.0
H184 H 0.15088 0.92161 0.70077 0.0
H185 H 0.25651 0.85015 0.72041 0.0
H186 H 0.11145 0.31106 0.63354 0.0
H187 H 0.1531 0.99514 0.56871 0.0
H188 H 1.00562 0.39319 0.62144 0.0
H189 H 0.36595 0.80003 0.68929 0.0
H190 H 0.42476 0.77936 0.63949 0.0
H191 H 0.17887 0.2534 0.76931 0.0
H192 H 0.35354 0.85609 0.54739 0.0
H193 H 0.24782 0.93638 0.53207 0.0
H194 H 0.88431 0.47886 0.71546 0.0
H195 H 0.41972 0.79874 0.58775 0.0
H196 H 0.98719 0.39244 0.80257 0.0
H197 H 0.09752 0.30941 0.81142 0.0
N198 N 0.10792 0.29377 0.73553 0.0
C199 C 1.05131 0.34347 0.73084 0.0
C200 C 0.12668 0.28379 0.76439 0.0
C201 C 1.02111 0.36567 0.78368 0.0
C202 C 0.08269 0.31819 0.78867 0.0
C203 C 1.00554 0.37983 0.75471 0.0
H204 H 0.90922 0.45638 0.76684 0.0
N205 N 0.08097 0.31924 0.67872 0.0
C206 C 1.03773 0.35693 0.70177 0.0
C207 C 0.96488 0.41778 0.66652 0.0
C208 C 0.97741 0.40601 0.69599 0.0
C209 C 0.07218 0.33427 0.65066 0.0
C210 C 1.01317 0.38251 0.64394 0.0
O211 O 0.25311 1.07077 0.64306 0.0
O212 O 0.28903 0.1668 0.69449 0.0
O213 O 0.27123 0.34215 0.68937 0.0
O214 O 0.25162 0.3463 0.73626 0.0
O215 O 0.09365 1.03183 0.69116 0.0
O216 O 0.20415 0.14783 0.71725 0.0
O217 O 1.0293 0.18804 0.67749 0.0
O218 O 0.99661 1.04072 0.65901 0.0
O219 O 1.04767 0.86755 0.62216 0.0
O220 O 1.02832 0.94332 0.59267 0.0
O221 O 0.19538 0.20856 0.6416 0.0
O222 O 0.08018 1.09846 0.62006 0.0
C223 C 0.31332 0.11785 0.66903 0.0
C224 C 0.14464 1.08767 0.71801 0.0
C225 C 0.39326 0.39406 0.73221 0.0
C226 C 0.53607 0.45713 0.72936 0.0
C227 C 0.52195 0.3661 0.76018 0.0
C228 C 0.43154 0.35449 0.75202 0.0
C229 C 0.57438 0.41631 0.74844 0.0
C230 C 0.44594 0.44628 0.72154 0.0
C231 C 0.29917 0.37806 0.72053 0.0
C232 C 0.93122 0.4414 0.71961 0.0
C233 C 0.94537 0.42853 0.74887 0.0
H234 H 0.91903 0.45496 0.66116 0.0
C235 C 0.97224 0.11485 0.66826 0.0
C236 C 0.13846 0.15412 0.61632 0.0
C237 C 0.90786 0.84213 0.58911 0.0
C238 C 0.78013 0.77054 0.6003 0.0
C239 C 0.76446 0.82803 0.55782 0.0
C240 C 0.85439 0.85542 0.56419 0.0
C241 C 0.72721 0.78557 0.57573 0.0
C242 C 0.87005 0.80061 0.6072 0.0
C243 C 1.00256 0.8721 0.59629 0.0
H244 H 0.55125 0.33462 0.77501 0.0
H245 H 0.39195 0.31316 0.76051 0.0
H246 H 0.64422 0.42335 0.75418 0.0
H247 H 0.41653 0.47609 0.70597 0.0
H248 H 0.72363 0.8389 0.53873 0.0
H249 H 0.88207 0.88734 0.54976 0.0
H250 H 0.65757 0.76296 0.5699 0.0
H251 H 0.91073 0.79174 0.62688 0.0
H252 H 0.94291 0.45436 0.99255 0.0
H253 H 0.22034 0.51919 0.02073 0.0
H254 H 0.94017 0.59724 0.99215 0.0
H255 H 0.21837 0.66256 0.02056 0.0
H256 H 0.21345 0.94114 0.02045 0.0
H257 H 0.21616 0.79824 0.02087 0.0
H258 H 0.93819 0.73189 0.99128 0.0
H259 H 0.93622 0.87526 0.99109 0.0
C260 C 1.00452 0.49784 0.99869 0.0
C261 C 0.0819 0.46814 0.00653 0.0
C262 C 1.00309 0.5834 0.99853 0.0
C263 C 0.07897 0.64942 0.00628 0.0
C264 C 0.15639 0.61941 0.01421 0.0
C265 C 0.15772 0.5338 0.01431 0.0
C266 C 0.15187 0.89741 0.01405 0.0
C267 C 0.07455 0.92679 0.00587 0.0
C268 C 0.15329 0.81184 0.0142 0.0
C269 C 0.07747 0.74555 0.00614 0.0
C270 C 1.00011 0.77528 0.9979 0.0
C271 C 0.99878 0.86087 0.99776 0.0
H272 H 0.411 0.34837 0.37513 0.0
H273 H 0.3497 1.08066 0.3198 0.0
H274 H 0.56272 0.35297 0.3736 0.0
H275 H 0.5013 1.08441 0.31634 0.0
H276 H 0.79391 1.09272 0.33262 0.0
H277 H 0.64273 1.08866 0.3346 0.0
H278 H 0.68209 0.35713 0.35183 0.0
H279 H 0.83456 0.35957 0.34913 0.0
C280 C 0.42909 0.2899 0.36256 0.0
C281 C 0.36511 0.21399 0.34823 0.0
C282 C 0.51798 0.29252 0.36124 0.0
C283 C 0.54857 0.21922 0.34479 0.0
C284 C 0.48409 0.14299 0.33006 0.0
C285 C 0.39526 0.14047 0.33194 0.0
C286 C 0.77082 0.15077 0.33606 0.0
C287 C 0.82897 0.2257 0.3397 0.0
C288 C 0.68211 0.1487 0.33738 0.0
C289 C 0.64572 0.22218 0.3431 0.0
C290 C 0.70452 0.29812 0.34745 0.0
C291 C 0.79348 0.29972 0.34568 0.0
H292 H 0.63049 0.77912 0.62325 0.0
H293 H 0.84738 0.65191 0.61854 0.0
H294 H 0.57557 0.70249 0.65556 0.0
H295 H 0.79711 0.58168 0.65289 0.0
H296 H 0.6311 0.39904 0.68505 0.0
H297 H 0.68767 0.47335 0.6523 0.0
H298 H 0.60886 0.7005 0.70857 0.0
H299 H 0.54893 0.62406 0.74013 0.0
C300 C 0.66628 0.73486 0.62908 0.0
C301 C 0.74354 0.72205 0.6186 0.0
C302 C 0.63574 0.69208 0.64801 0.0
C303 C 0.68258 0.63663 0.65703 0.0
C304 C 0.75904 0.62319 0.64612 0.0
C305 C 0.78854 0.66455 0.6268 0.0
C306 C 0.62837 0.46552 0.6908 0.0
C307 C 0.58746 0.50686 0.71518 0.0
C308 C 0.66011 0.50801 0.67205 0.0
C309 C 0.6522 0.59272 0.67775 0.0
C310 C 0.61441 0.63485 0.7032 0.0
C311 C 0.58167 0.59194 0.72161 0.0
H312 H 0.82568 0.98812 0.63285 0.0
H313 H 0.89411 0.24178 0.7038 0.0
H314 H 0.67172 0.98862 0.63271 0.0
H315 H 0.74131 0.24305 0.7039 0.0
H316 H 0.45832 0.18859 0.71992 0.0
H317 H 0.61232 0.19016 0.71959 0.0
H318 H 0.54497 1.04348 0.61763 0.0
H319 H 0.39219 1.04738 0.61785 0.0
C320 C 0.80871 1.04446 0.64857 0.0
C321 C 0.87531 0.11535 0.6683 0.0
C322 C 0.71914 1.04501 0.64835 0.0
C323 C 0.69111 0.1159 0.66835 0.0
C324 C 0.75787 0.18639 0.68822 0.0
C325 C 0.84709 0.1862 0.68797 0.0
C326 C 0.476 0.15783 0.69727 0.0
C327 C 0.41015 0.11759 0.66898 0.0
C328 C 0.56545 0.15823 0.69704 0.0
C329 C 0.594 0.11646 0.66858 0.0
C330 C 0.52787 1.07554 0.64033 0.0
C331 C 0.43878 1.07717 0.64048 0.0
H332 H 0.70528 0.76374 0.9444 0.0
H333 H 0.48342 0.86783 0.96947 0.0
H334 H 0.68392 0.67344 0.9756 0.0
H335 H 0.46758 0.78671 0.00403 0.0
H336 H 0.40536 0.57463 0.03829 0.0
H337 H 0.42424 0.65671 0.00499 0.0
H338 H 0.7023 0.67537 0.0277 0.0
H339 H 0.68123 0.58257 0.05818 0.0
C340 C 0.65149 0.76653 0.95656 0.0
C341 C 0.59582 0.8224 0.95489 0.0
C342 C 0.64041 0.71652 0.97502 0.0
C343 C 0.57492 0.7235 0.99284 0.0
C344 C 0.51787 0.77814 0.99028 0.0
C345 C 0.52701 0.82537 0.97075 0.0
C346 C 0.47059 0.59511 0.03583 0.0
C347 C 0.5417 0.57051 0.05017 0.0
C348 C 0.48168 0.64389 0.01716 0.0
C349 C 0.56479 0.67299 0.01351 0.0
C350 C 0.63698 0.65236 0.02935 0.0
C351 C 0.62539 0.60068 0.04733 0.0
H352 H 0.96001 0.74074 0.42083 0.0
H353 H 0.89695 0.56263 0.32279 0.0
H354 H 0.08295 0.81731 0.41007 0.0
H355 H 1.01598 0.64345 0.31059 0.0
H356 H 0.27278 0.71787 0.29869 0.0
H357 H 0.16139 0.65061 0.31841 0.0
H358 H 0.1691 0.89437 0.39199 0.0
H359 H 0.28862 0.95717 0.37493 0.0
C360 C 0.96881 0.72158 0.39622 0.0
C361 C 0.9212 0.64411 0.373 0.0
C362 C 1.0412 0.76466 0.39009 0.0
C363 C 1.06397 0.7335 0.35994 0.0
C364 C 1.00457 0.66617 0.3348 0.0
C365 C 0.93347 0.62184 0.34127 0.0
C366 C 0.25492 0.75566 0.32049 0.0
C367 C 0.28457 0.84412 0.33385 0.0
C368 C 0.18779 0.71792 0.33096 0.0
C369 C 0.14976 0.76835 0.35487 0.0
C370 C 0.19344 0.85303 0.37274 0.0
C371 C 0.2639 0.88918 0.36332 0.0
H372 H 0.17002 0.18228 0.24733 0.0
H373 H 1.00436 0.36514 0.26821 0.0
H374 H 0.15351 0.17871 0.1926 0.0
H375 H 0.99062 0.3634 0.21267 0.0
H376 H 0.10001 0.37615 0.11659 0.0
H377 H 0.1055 0.39438 0.17336 0.0
H378 H 1.00788 0.12521 0.14477 0.0
H379 H 0.99987 0.10726 0.08813 0.0
C380 C 0.13071 0.2228 0.24048 0.0
C381 C 0.08757 0.27337 0.26241 0.0
C382 C 0.12113 0.22027 0.20886 0.0
C383 C 0.0698 0.26967 0.19811 0.0
C384 C 1.03034 0.32424 0.22029 0.0
C385 C 1.03856 0.3256 0.25212 0.0
C386 C 0.07822 0.32116 0.12241 0.0
C387 C 1.04913 0.24025 0.09778 0.0
C388 C 0.08112 0.33173 0.1549 0.0
C389 C 1.057 0.26133 0.16355 0.0
C390 C 1.02665 0.18075 0.13886 0.0
C391 C 1.02171 0.17051 0.1064 0.0
H392 H 0.99756 0.20797 0.43162 0.0
H393 H 0.23093 0.10822 0.42375 0.0
H394 H 1.00714 0.20347 0.48526 0.0
H395 H 0.24084 0.10388 0.47825 0.0
H396 H 0.27181 0.21463 0.59231 0.0
H397 H 0.26684 0.21123 0.53711 0.0
H398 H 0.99404 1.09666 0.51136 0.0
H399 H 0.99915 1.09951 0.56598 0.0
C400 C 1.05047 0.18381 0.44119 0.0
C401 C 0.11322 0.15789 0.42321 0.0
C402 C 1.05594 0.18129 0.47207 0.0
C403 C 0.12482 0.15352 0.48623 0.0
C404 C 0.18725 0.12624 0.46815 0.0
C405 C 0.18103 0.1276 0.4368 0.0
C406 C 0.21074 0.18945 0.57487 0.0
C407 C 0.13574 0.15799 0.58366 0.0
C408 C 0.20811 0.18649 0.54315 0.0
C409 C 0.13005 0.15345 0.51969 0.0
C410 C 1.05514 0.12295 0.52875 0.0
C411 C 1.05807 0.12464 0.56014 0.0
H412 H 0.99963 1.03489 0.73834 0.0
H413 H 0.27571 0.13136 0.77078 0.0
H414 H 0.98834 1.05045 0.79374 0.0
H415 H 0.26437 0.14826 0.82588 0.0
H416 H 1.02818 1.02272 0.89523 0.0
H417 H 1.03653 0.99627 0.83903 0.0
H418 H 0.19874 0.24528 0.86805 0.0
H419 H 0.19005 0.27205 0.92422 0.0
C420 C 1.0581 1.05758 0.75711 0.0
C421 C 0.13848 1.08218 0.75007 0.0
C422 C 1.05163 1.06713 0.78893 0.0
C423 C 0.12531 1.10193 0.81449 0.0
C424 C 0.20604 0.12278 0.80703 0.0
C425 C 0.21265 0.11225 0.77532 0.0
C426 C 1.06575 1.07193 0.88968 0.0
C427 C 0.10893 0.14947 0.91449 0.0
C428 C 0.0701 1.05683 0.85736 0.0
C429 C 0.11859 0.11836 0.84887 0.0
C430 C 0.16183 0.19583 0.87368 0.0
C431 C 0.1569 0.21123 0.90595 0.0
loop_
_geom_bond_atom_site_label_1
_geom_bond_atom_site_label_2
_geom_bond_distance
_geom_bond_site_symmetry_2
_ccdc_geom_bond_type
C0 C2 1.422 . S
C0 C4 1.415 . S
C0 N6 1.369 . S
C1 C2 1.421 . S
C1 C3 1.417 . S
C1 C13 1.422 1_554 S
C2 C0 1.422 . S
C2 C1 1.421 . S
C2 N12 1.359 . S
C3 C1 1.417 . S
C3 C5 1.329 . S
C3 H22 0.930 1_545 S
C4 C0 1.415 . S
C4 C5 1.437 . S
C4 C8 1.413 . S
C5 C3 1.329 . S
C5 C4 1.437 . S
C5 H27 0.929 . S
N6 C0 1.369 . S
N6 C7 1.338 . S
N6 Gd11 2.622 . S
C7 N6 1.338 . S
C7 C9 1.378 . S
C7 H19 0.929 . S
C8 C4 1.413 . S
C8 C9 1.348 . S
C8 H24 0.931 . S
C9 C7 1.378 . S
C9 C8 1.348 . S
C9 H25 0.930 . S
Gd10 N30 2.622 . S
Gd10 N37 2.570 1_556 S
Gd10 O44 2.353 1_545 S
Gd10 O45 2.468 1_546 S
Gd10 O46 2.427 1_545 S
Gd10 O48 2.388 . S
Gd10 O49 2.386 . S
Gd10 O53 2.307 1_556 S
Gd10 C63 2.805 1_545 S
Gd11 N6 2.622 . S
Gd11 N12 2.570 . S
Gd11 O43 2.386 . S
Gd11 O47 2.307 1_554 S
Gd11 O50 2.353 . S
Gd11 O51 2.492 . S
Gd11 O52 2.427 . S
Gd11 O54 2.388 . S
Gd11 C75 2.805 . S
N12 C2 1.359 . S
N12 Gd11 2.570 . S
N12 C14 1.343 1_554 S
C13 C1 1.422 1_556 S
C13 C15 1.321 . S
C13 H21 0.931 1_545 S
C14 N12 1.343 1_556 S
C14 C15 1.390 . S
C14 H16 0.931 . S
C15 C13 1.321 . S
C15 C14 1.390 . S
C15 H17 0.930 . S
H16 C14 0.931 . S
H17 C15 0.930 . S
H18 C41 0.931 . S
H19 C7 0.929 . S
H20 C42 0.930 . S
H21 C13 0.931 1_565 S
H22 C3 0.930 1_565 S
H23 C32 0.929 . S
H24 C8 0.931 . S
H25 C9 0.930 . S
H26 C64 0.930 . S
H27 C5 0.929 . S
H28 C33 0.931 . S
H29 C34 0.930 . S
N30 Gd10 2.622 . S
N30 C31 1.369 . S
N30 C32 1.338 . S
C31 N30 1.369 . S
C31 C35 1.415 . S
C31 C38 1.422 . S
C32 H23 0.929 . S
C32 N30 1.338 . S
C32 C34 1.378 . S
C33 H28 0.931 . S
C33 C34 1.348 . S
C33 C35 1.413 . S
C34 H29 0.930 . S
C34 C32 1.378 . S
C34 C33 1.348 . S
C35 C31 1.415 . S
C35 C33 1.413 . S
C35 C65 1.437 . S
H36 C65 0.929 . S
N37 Gd10 2.570 1_554 S
N37 C38 1.359 1_554 S
N37 C41 1.343 . S
C38 C31 1.422 . S
C38 N37 1.359 1_556 S
C38 C40 1.428 . S
C39 C40 1.393 1_554 S
C39 C42 1.321 . S
C39 H66 0.931 . S
C40 C38 1.428 . S
C40 C39 1.393 1_556 S
C40 C64 1.440 . S
C41 H18 0.931 . S
C41 N37 1.343 . S
C41 C42 1.390 . S
C42 H20 0.930 . S
C42 C39 1.321 . S
C42 C41 1.390 . S
O43 Gd11 2.386 . S
O43 C55 1.273 1_545 S
O44 Gd10 2.353 1_565 S
O44 C55 1.234 1_656 S
O45 Gd10 2.468 1_564 S
O45 C63 1.263 1_554 S
O46 Gd10 2.427 1_565 S
O46 C63 1.252 . S
O47 Gd11 2.307 1_556 S
O47 C56 1.261 . S
O48 Gd10 2.388 . S
O48 C56 1.252 1_655 S
O49 Gd10 2.386 . S
O49 C67 1.265 1_556 S
O50 Gd11 2.353 . S
O50 C67 1.242 1_455 S
O51 Gd11 2.492 . S
O51 C75 1.286 . S
O52 Gd11 2.427 . S
O52 C75 1.252 . S
O53 Gd10 2.307 1_554 S
O53 C68 1.261 . S
O54 Gd11 2.388 . S
O54 C68 1.252 1_455 S
C55 O43 1.273 1_565 S
C55 O44 1.234 1_454 S
C56 O47 1.261 . S
C56 O48 1.252 1_455 S
C57 C60 1.394 . S
C57 C62 1.370 1_556 S
C57 C63 1.500 . S
C58 C61 1.383 1_554 S
C58 C62 1.395 . S
C59 C60 1.396 . S
C59 C61 1.365 . S
C59 H76 0.929 . S
C60 C57 1.394 . S
C60 C59 1.396 . S
C60 H77 0.930 . S
C61 C58 1.383 1_556 S
C61 C59 1.365 . S
C61 H78 0.931 . S
C62 C57 1.370 1_554 S
C62 C58 1.395 . S
C62 H79 0.930 . S
C63 Gd10 2.805 1_565 S
C63 O45 1.263 1_556 S
C63 O46 1.252 . S
C63 C57 1.500 . S
C64 H26 0.930 . S
C64 C40 1.440 . S
C64 C65 1.329 . S
C65 C35 1.437 . S
C65 H36 0.929 . S
C65 C64 1.329 . S
H66 C39 0.931 . S
C67 O49 1.265 1_554 S
C67 O50 1.242 1_655 S
C68 O53 1.261 . S
C68 O54 1.252 1_655 S
C69 C72 1.394 . S
C69 C74 1.370 . S
C69 C75 1.500 . S
C70 C73 1.383 . S
C70 C74 1.395 . S
C71 C72 1.396 . S
C71 C73 1.365 . S
C71 H80 0.929 . S
C72 C69 1.394 . S
C72 C71 1.396 . S
C72 H81 0.930 . S
C73 C70 1.383 . S
C73 C71 1.365 . S
C73 H82 0.931 . S
C74 C69 1.370 . S
C74 C70 1.395 . S
C74 H83 0.930 1_554 S
C75 Gd11 2.805 . S
C75 O51 1.286 . S
C75 O52 1.252 . S
C75 C69 1.500 . S
H76 C59 0.929 . S
H77 C60 0.930 . S
H78 C61 0.931 . S
H79 C62 0.930 . S
H80 C71 0.929 . S
H81 C72 0.930 . S
H82 C73 0.931 . S
H83 C74 0.930 1_556 S
C84 C86 1.422 . S
C84 C88 1.415 . S
C84 N90 1.369 . S
C85 C86 1.421 . S
C85 C87 1.417 . S
C85 C97 1.422 . S
C86 C84 1.422 . S
C86 C85 1.421 . S
C86 N96 1.359 . S
C87 C85 1.417 . S
C87 C89 1.329 . S
C87 H106 0.930 . S
C88 C84 1.415 . S
C88 C89 1.437 . S
C88 C92 1.413 . S
C89 C87 1.329 . S
C89 C88 1.437 . S
C89 H111 0.929 . S
N90 C84 1.369 . S
N90 C91 1.338 . S
N90 Gd95 2.622 . S
C91 N90 1.338 . S
C91 C93 1.378 . S
C91 H103 0.929 . S
C92 C88 1.413 . S
C92 C93 1.348 . S
C92 H108 0.931 . S
C93 C91 1.378 . S
C93 C92 1.348 . S
C93 H109 0.930 . S
Gd94 N114 2.622 1_545 S
Gd94 N121 2.570 1_545 S
Gd94 O128 2.353 1_655 S
Gd94 O129 2.468 1_645 S
Gd94 O130 2.427 1_645 S
Gd94 O132 2.388 1_655 S
Gd94 O133 2.386 . S
Gd94 O137 2.307 1_655 S
Gd94 C147 2.805 1_645 S
Gd95 N90 2.622 . S
Gd95 N96 2.570 . S
Gd95 O127 2.386 . S
Gd95 O131 2.307 . S
Gd95 O134 2.353 1_455 S
Gd95 O135 2.468 . S
Gd95 O136 2.427 . S
Gd95 O138 2.388 . S
Gd95 C159 2.805 . S
N96 C86 1.359 . S
N96 Gd95 2.570 . S
N96 C98 1.343 . S
C97 C85 1.422 . S
C97 C99 1.321 . S
C97 H105 0.931 . S
C98 N96 1.343 . S
C98 C99 1.390 . S
C98 H100 0.931 . S
C99 C97 1.321 . S
C99 C98 1.390 . S
C99 H101 0.930 . S
H100 C98 0.931 . S
H101 C99 0.930 . S
H102 C125 0.931 . S
H103 C91 0.929 . S
H104 C126 0.930 . S
H105 C97 0.931 . S
H106 C87 0.930 . S
H107 C116 0.929 . S
H108 C92 0.931 . S
H109 C93 0.930 . S
H110 C148 0.930 . S
H111 C89 0.929 . S
H112 C117 0.931 . S
H113 C118 0.930 . S
N114 Gd94 2.622 1_565 S
N114 C115 1.369 . S
N114 C116 1.338 . S
C115 N114 1.369 . S
C115 C119 1.415 . S
C115 C122 1.422 . S
C116 H107 0.929 . S
C116 N114 1.338 . S
C116 C118 1.378 . S
C117 H112 0.931 . S
C117 C118 1.348 . S
C117 C119 1.413 . S
C118 H113 0.930 . S
C118 C116 1.378 . S
C118 C117 1.348 . S
C119 C115 1.415 . S
C119 C117 1.413 . S
C119 C149 1.437 . S
H120 C149 0.929 . S
N121 Gd94 2.570 1_565 S
N121 C122 1.359 . S
N121 C125 1.343 . S
C122 C115 1.422 . S
C122 N121 1.359 . S
C122 C124 1.421 . S
C123 C124 1.422 . S
C123 C126 1.321 . S
C123 H150 0.931 . S
C124 C122 1.421 . S
C124 C123 1.422 . S
C124 C148 1.417 . S
C125 H102 0.931 . S
C125 N121 1.343 . S
C125 C126 1.390 . S
C126 H104 0.930 . S
C126 C123 1.321 . S
C126 C125 1.390 . S
O127 Gd95 2.386 . S
O127 C139 1.265 . S
O128 Gd94 2.353 1_455 S
O128 C139 1.242 . S
O129 Gd94 2.468 1_465 S
O129 C147 1.263 . S
O130 Gd94 2.427 1_465 S
O130 C147 1.252 . S
O131 Gd95 2.307 . S
O131 C140 1.261 . S
O132 Gd94 2.388 1_455 S
O132 C140 1.252 . S
O133 Gd94 2.386 . S
O133 C151 1.265 . S
O134 Gd95 2.353 1_655 S
O134 C151 1.242 . S
O135 Gd95 2.468 . S
O135 C159 1.263 . S
O136 Gd95 2.427 . S
O136 C159 1.252 . S
O137 Gd94 2.307 1_455 S
O137 C152 1.261 . S
O138 Gd95 2.388 . S
O138 C152 1.252 . S
C139 O127 1.265 . S
C139 O128 1.242 . S
C140 O131 1.261 . S
C140 O132 1.252 . S
C141 C144 1.394 . S
C141 C146 1.370 . S
C141 C147 1.500 . S
C142 C145 1.383 . S
C142 C146 1.395 . S
C143 C144 1.396 . S
C143 C145 1.365 . S
C143 H160 0.929 . S
C144 C141 1.394 . S
C144 C143 1.396 . S
C144 H161 0.930 . S
C145 C142 1.383 . S
C145 C143 1.365 . S
C145 H162 0.931 . S
C146 C141 1.370 . S
C146 C142 1.395 . S
C146 H163 0.930 . S
C147 Gd94 2.805 1_465 S
C147 O129 1.263 . S
C147 O130 1.252 . S
C147 C141 1.500 . S
C148 H110 0.930 . S
C148 C124 1.417 . S
C148 C149 1.329 . S
C149 C119 1.437 . S
C149 H120 0.929 . S
C149 C148 1.329 . S
H150 C123 0.931 . S
C151 O133 1.265 . S
C151 O134 1.242 . S
C152 O137 1.261 . S
C152 O138 1.252 . S
C153 C156 1.394 . S
C153 C158 1.370 1_455 S
C153 C159 1.500 . S
C154 C157 1.383 . S
C154 C158 1.395 . S
C155 C156 1.396 . S
C155 C157 1.365 1_455 S
C155 H164 0.929 . S
C156 C153 1.394 . S
C156 C155 1.396 . S
C156 H165 0.930 . S
C157 C154 1.383 . S
C157 C155 1.365 1_655 S
C157 H166 0.931 . S
C158 C153 1.370 1_655 S
C158 C154 1.395 . S
C158 H167 0.930 . S
C159 Gd95 2.805 . S
C159 O135 1.263 . S
C159 O136 1.252 . S
C159 C153 1.500 . S
H160 C143 0.929 . S
H161 C144 0.930 . S
H162 C145 0.931 . S
H163 C146 0.930 . S
H164 C155 0.929 . S
H165 C156 0.930 . S
H166 C157 0.931 . S
H167 C158 0.930 . S
C168 C170 1.422 . S
C168 C172 1.415 . S
C168 N174 1.369 . S
C169 C170 1.421 . S
C169 C171 1.417 . S
C169 C181 1.422 . S
C170 C168 1.422 . S
C170 C169 1.421 . S
C170 N180 1.359 . S
C171 C169 1.417 . S
C171 C173 1.329 . S
C171 H190 0.930 . S
C172 C168 1.415 . S
C172 C173 1.437 . S
C172 C176 1.413 . S
C173 C171 1.329 . S
C173 C172 1.437 . S
C173 H195 0.929 . S
N174 C168 1.369 . S
N174 C175 1.338 . S
N174 Gd179 2.622 . S
C175 N174 1.338 . S
C175 C177 1.378 . S
C175 H187 0.929 . S
C176 C172 1.413 . S
C176 C177 1.348 . S
C176 H192 0.931 . S
C177 C175 1.378 . S
C177 C176 1.348 . S
C177 H193 0.930 . S
Gd178 N198 2.622 . S
Gd178 N205 2.570 . S
Gd178 O212 2.353 . S
Gd178 O213 2.468 . S
Gd178 O214 2.427 . S
Gd178 O216 2.388 . S
Gd178 O217 2.386 1_455 S
Gd178 O221 2.307 . S
Gd178 C231 2.805 . S
Gd179 N174 2.622 . S
Gd179 N180 2.570 . S
Gd179 O211 2.386 . S
Gd179 O215 2.307 . S
Gd179 O218 2.353 1_455 S
Gd179 O219 2.468 1_455 S
Gd179 O220 2.427 1_455 S
Gd179 O222 2.388 . S
Gd179 C243 2.805 1_455 S
N180 C170 1.359 . S
N180 Gd179 2.570 . S
N180 C182 1.343 . S
C181 C169 1.422 . S
C181 C183 1.321 . S
C181 H189 0.931 . S
C182 N180 1.343 . S
C182 C183 1.390 . S
C182 H184 0.931 . S
C183 C181 1.321 . S
C183 C182 1.390 . S
C183 H185 0.930 . S
H184 C182 0.931 . S
H185 C183 0.930 . S
H186 C209 0.931 . S
H187 C175 0.929 . S
H188 C210 0.930 . S
H189 C181 0.931 . S
H190 C171 0.930 . S
H191 C200 0.929 . S
H192 C176 0.931 . S
H193 C177 0.930 . S
H194 C232 0.930 . S
H195 C173 0.929 . S
H196 C201 0.931 . S
H197 C202 0.930 . S
N198 Gd178 2.622 . S
N198 C199 1.369 . S
N198 C200 1.338 . S
C199 N198 1.369 . S
C199 C203 1.415 . S
C199 C206 1.422 . S
C200 H191 0.929 . S
C200 N198 1.338 . S
C200 C202 1.378 . S
C201 H196 0.931 . S
C201 C202 1.348 . S
C201 C203 1.413 . S
C202 H197 0.930 . S
C202 C200 1.378 . S
C202 C201 1.348 . S
C203 C199 1.415 . S
C203 C201 1.413 . S
C203 C233 1.437 1_455 S
H204 C233 0.929 . S
N205 Gd178 2.570 . S
N205 C206 1.359 . S
N205 C209 1.343 . S
C206 C199 1.422 . S
C206 N205 1.359 . S
C206 C208 1.421 1_455 S
C207 C208 1.422 . S
C207 C210 1.321 . S
C207 H234 0.931 . S
C208 C206 1.421 1_655 S
C208 C207 1.422 . S
C208 C232 1.417 . S
C209 H186 0.931 . S
C209 N205 1.343 . S
C209 C210 1.390 1_455 S
C210 H188 0.930 . S
C210 C207 1.321 . S
C210 C209 1.390 1_655 S
O211 Gd179 2.386 . S
O211 C223 1.265 1_565 S
O212 Gd178 2.353 . S
O212 C223 1.242 . S
O213 Gd178 2.468 . S
O213 C231 1.263 . S
O214 Gd178 2.427 . S
O214 C231 1.252 . S
O215 Gd179 2.307 . S
O215 C224 1.261 1_565 S
O216 Gd178 2.388 . S
O216 C224 1.252 . S
O217 Gd178 2.386 1_655 S
O217 C235 1.265 . S
O218 Gd179 2.353 1_655 S
O218 C235 1.242 1_565 S
O219 Gd179 2.468 1_655 S
O219 C243 1.263 . S
O220 Gd179 2.427 1_655 S
O220 C243 1.252 . S
O221 Gd178 2.307 . S
O221 C236 1.261 . S
O222 Gd179 2.388 . S
O222 C236 1.252 1_565 S
C223 O211 1.265 1_545 S
C223 O212 1.242 . S
C224 O215 1.261 1_545 S
C224 O216 1.252 . S
C225 C228 1.394 . S
C225 C230 1.370 . S
C225 C231 1.500 . S
C226 C229 1.383 . S
C226 C230 1.395 . S
C227 C228 1.396 . S
C227 C229 1.365 . S
C227 H244 0.929 . S
C228 C225 1.394 . S
C228 C227 1.396 . S
C228 H245 0.930 . S
C229 C226 1.383 . S
C229 C227 1.365 . S
C229 H246 0.931 . S
C230 C225 1.370 . S
C230 C226 1.395 . S
C230 H247 0.930 . S
C231 Gd178 2.805 . S
C231 O213 1.263 . S
C231 O214 1.252 . S
C231 C225 1.500 . S
C232 H194 0.930 . S
C232 C208 1.417 . S
C232 C233 1.329 . S
C233 C203 1.437 1_655 S
C233 H204 0.929 . S
C233 C232 1.329 . S
H234 C207 0.931 . S
C235 O217 1.265 . S
C235 O218 1.242 1_545 S
C236 O221 1.261 . S
C236 O222 1.252 1_545 S
C237 C240 1.394 . S
C237 C242 1.370 . S
C237 C243 1.500 . S
C238 C241 1.383 . S
C238 C242 1.395 . S
C239 C240 1.396 . S
C239 C241 1.365 . S
C239 H248 0.929 . S
C240 C237 1.394 . S
C240 C239 1.396 . S
C240 H249 0.930 . S
C241 C238 1.383 . S
C241 C239 1.365 . S
C241 H250 0.931 . S
C242 C237 1.370 . S
C242 C238 1.395 . S
C242 H251 0.930 . S
C243 Gd179 2.805 1_655 S
C243 O219 1.263 . S
C243 O220 1.252 . S
C243 C237 1.500 . S
H244 C227 0.929 . S
H245 C228 0.930 . S
H246 C229 0.931 . S
H247 C230 0.930 . S
H248 C239 0.929 . S
H249 C240 0.930 . S
H250 C241 0.931 . S
H251 C242 0.930 . S
H252 C260 0.950 . S
H253 C265 0.950 . S
H254 C262 0.950 . S
H255 C264 0.950 . S
H256 C266 0.950 . S
H257 C268 0.950 . S
H258 C270 0.950 . S
H259 C271 0.950 . S
C260 H252 0.950 . S
C260 C261 1.386 . S
C260 C262 1.391 . S
C261 C260 1.386 . S
C261 C265 1.393 1_654 S
C262 H254 0.950 . S
C262 C260 1.391 . S
C262 C263 1.400 1_655 S
C263 C262 1.400 1_455 S
C263 C264 1.398 1_554 S
C263 C269 1.491 . S
C264 H255 0.950 . S
C264 C263 1.398 1_556 S
C264 C265 1.391 . S
C265 H253 0.950 . S
C265 C261 1.393 1_456 S
C265 C264 1.391 . S
C266 H256 0.950 . S
C266 C267 1.385 1_556 S
C266 C268 1.391 . S
C267 C266 1.385 1_554 S
C267 C271 1.395 1_455 S
C268 H257 0.950 . S
C268 C266 1.391 . S
C268 C269 1.400 1_556 S
C269 C263 1.491 . S
C269 C268 1.400 1_554 S
C269 C270 1.398 1_455 S
C270 H258 0.950 . S
C270 C269 1.398 1_655 S
C270 C271 1.391 . S
C271 H259 0.950 . S
C271 C267 1.395 1_655 S
C271 C270 1.391 . S
H272 C280 0.950 . S
H273 C285 0.950 . S
H274 C282 0.950 . S
H275 C284 0.950 . S
H276 C286 0.950 . S
H277 C288 0.950 . S
H278 C290 0.950 . S
H279 C291 0.950 . S
C280 H272 0.950 . S
C280 C281 1.386 . S
C280 C282 1.391 . S
C281 C280 1.386 . S
C281 C285 1.393 . S
C282 H274 0.950 . S
C282 C280 1.391 . S
C282 C283 1.400 . S
C283 C282 1.400 . S
C283 C284 1.398 . S
C283 C289 1.491 . S
C284 H275 0.950 . S
C284 C283 1.398 . S
C284 C285 1.391 . S
C285 H273 0.950 . S
C285 C281 1.393 . S
C285 C284 1.391 . S
C286 H276 0.950 . S
C286 C287 1.386 . S
C286 C288 1.391 . S
C287 C286 1.386 . S
C287 C291 1.393 . S
C288 H277 0.950 . S
C288 C286 1.391 . S
C288 C289 1.400 . S
C289 C283 1.491 . S
C289 C288 1.400 . S
C289 C290 1.398 . S
C290 H278 0.950 . S
C290 C289 1.398 . S
C290 C291 1.391 . S
C291 H279 0.950 . S
C291 C287 1.393 . S
C291 C290 1.391 . S
H292 C300 0.950 . S
H293 C305 0.950 . S
H294 C302 0.950 . S
H295 C304 0.950 . S
H296 C306 0.950 . S
H297 C308 0.950 . S
H298 C310 0.950 . S
H299 C311 0.950 . S
C300 H292 0.950 . S
C300 C301 1.386 . S
C300 C302 1.391 . S
C301 C300 1.386 . S
C301 C305 1.393 . S
C302 H294 0.950 . S
C302 C300 1.391 . S
C302 C303 1.400 . S
C303 C302 1.400 . S
C303 C304 1.398 . S
C303 C309 1.491 . S
C304 H295 0.950 . S
C304 C303 1.398 . S
C304 C305 1.391 . S
C305 H293 0.950 . S
C305 C301 1.393 . S
C305 C304 1.391 . S
C306 H296 0.950 . S
C306 C307 1.386 . S
C306 C308 1.391 . S
C307 C306 1.386 . S
C307 C311 1.393 . S
C308 H297 0.950 . S
C308 C306 1.391 . S
C308 C309 1.400 . S
C309 C303 1.491 . S
C309 C308 1.400 . S
C309 C310 1.398 . S
C310 H298 0.950 . S
C310 C309 1.398 . S
C310 C311 1.391 . S
C311 H299 0.950 . S
C311 C307 1.393 . S
C311 C310 1.391 . S
H312 C320 0.950 . S
H313 C325 0.950 . S
H314 C322 0.950 . S
H315 C324 0.950 . S
H316 C326 0.950 . S
H317 C328 0.950 . S
H318 C330 0.950 . S
H319 C331 0.950 . S
C320 H312 0.950 . S
C320 C321 1.386 1_565 S
C320 C322 1.391 . S
C321 C320 1.386 1_545 S
C321 C325 1.393 . S
C322 H314 0.950 . S
C322 C320 1.391 . S
C322 C323 1.400 1_565 S
C323 C322 1.400 1_545 S
C323 C324 1.398 . S
C323 C329 1.491 . S
C324 H315 0.950 . S
C324 C323 1.398 . S
C324 C325 1.391 . S
C325 H313 0.950 . S
C325 C321 1.393 . S
C325 C324 1.391 . S
C326 H316 0.950 . S
C326 C327 1.386 . S
C326 C328 1.391 . S
C327 C326 1.386 . S
C327 C331 1.393 1_545 S
C328 H317 0.950 . S
C328 C326 1.391 . S
C328 C329 1.400 . S
C329 C323 1.491 . S
C329 C328 1.400 . S
C329 C330 1.398 1_545 S
C330 H318 0.950 . S
C330 C329 1.398 1_565 S
C330 C331 1.391 . S
C331 H319 0.950 . S
C331 C327 1.393 1_565 S
C331 C330 1.391 . S
H332 C340 0.950 1_556 S
H333 C345 0.950 . S
H334 C342 0.950 . S
H335 C344 0.950 . S
H336 C346 0.950 . S
H337 C348 0.950 . S
H338 C350 0.950 . S
H339 C351 0.950 . S
C340 H332 0.950 1_554 S
C340 C341 1.386 . S
C340 C342 1.391 1_554 S
C341 C340 1.386 . S
C341 C345 1.393 . S
C342 H334 0.950 . S
C342 C340 1.391 1_556 S
C342 C343 1.400 1_556 S
C343 C342 1.400 1_554 S
C343 C344 1.398 . S
C343 C349 1.491 . S
C344 H335 0.950 . S
C344 C343 1.398 . S
C344 C345 1.391 . S
C345 H333 0.950 . S
C345 C341 1.393 . S
C345 C344 1.391 . S
C346 H336 0.950 . S
C346 C347 1.386 1_554 S
C346 C348 1.391 . S
C347 C346 1.386 1_556 S
C347 C351 1.393 . S
C348 H337 0.950 . S
C348 C346 1.391 . S
C348 C349 1.400 . S
C349 C343 1.491 . S
C349 C348 1.400 . S
C349 C350 1.398 1_554 S
C350 H338 0.950 . S
C350 C349 1.398 1_556 S
C350 C351 1.391 . S
C351 H339 0.950 . S
C351 C347 1.393 . S
C351 C350 1.391 . S
H352 C360 0.950 . S
H353 C365 0.950 . S
H354 C362 0.950 . S
H355 C364 0.950 . S
H356 C366 0.950 . S
H357 C368 0.950 . S
H358 C370 0.950 1_655 S
H359 C371 0.950 . S
C360 H352 0.950 . S
C360 C361 1.386 . S
C360 C362 1.391 . S
C361 C360 1.386 . S
C361 C365 1.393 1_655 S
C362 H354 0.950 . S
C362 C360 1.391 . S
C362 C363 1.400 1_655 S
C363 C362 1.400 1_455 S
C363 C364 1.398 . S
C363 C369 1.491 . S
C364 H355 0.950 . S
C364 C363 1.398 . S
C364 C365 1.391 . S
C365 H353 0.950 . S
C365 C361 1.393 1_455 S
C365 C364 1.391 . S
C366 H356 0.950 . S
C366 C367 1.386 . S
C366 C368 1.391 . S
C367 C366 1.386 . S
C367 C371 1.393 . S
C368 H357 0.950 . S
C368 C366 1.391 . S
C368 C369 1.400 . S
C369 C363 1.491 . S
C369 C368 1.400 . S
C369 C370 1.398 . S
C370 H358 0.950 1_455 S
C370 C369 1.398 . S
C370 C371 1.391 . S
C371 H359 0.950 . S
C371 C367 1.393 . S
C371 C370 1.391 . S
H372 C380 0.950 . S
H373 C385 0.950 . S
H374 C382 0.950 . S
H375 C384 0.950 . S
H376 C386 0.950 . S
H377 C388 0.950 . S
H378 C390 0.950 . S
H379 C391 0.950 . S
C380 H372 0.950 . S
C380 C381 1.386 1_655 S
C380 C382 1.391 . S
C381 C380 1.386 1_455 S
C381 C385 1.393 . S
C382 H374 0.950 . S
C382 C380 1.391 . S
C382 C383 1.400 1_655 S
C383 C382 1.400 1_455 S
C383 C384 1.398 . S
C383 C389 1.491 1_455 S
C384 H375 0.950 . S
C384 C383 1.398 . S
C384 C385 1.391 . S
C385 H373 0.950 . S
C385 C381 1.393 . S
C385 C384 1.391 . S
C386 H376 0.950 . S
C386 C387 1.386 1_455 S
C386 C388 1.391 . S
C387 C386 1.386 1_655 S
C387 C391 1.393 . S
C388 H377 0.950 . S
C388 C386 1.391 . S
C388 C389 1.401 1_455 S
C389 C383 1.491 1_655 S
C389 C388 1.401 1_655 S
C389 C390 1.397 . S
C390 H378 0.950 . S
C390 C389 1.397 . S
C390 C391 1.391 . S
C391 H379 0.950 . S
C391 C387 1.393 . S
C391 C390 1.391 . S
H392 C400 0.950 . S
H393 C405 0.950 . S
H394 C402 0.950 . S
H395 C404 0.950 . S
H396 C406 0.950 . S
H397 C408 0.950 . S
H398 C410 0.950 1_655 S
H399 C411 0.950 1_655 S
C400 H392 0.950 . S
C400 C401 1.386 1_655 S
C400 C402 1.391 . S
C401 C400 1.386 1_455 S
C401 C405 1.393 . S
C402 H394 0.950 . S
C402 C400 1.391 . S
C402 C403 1.400 1_655 S
C403 C402 1.400 1_455 S
C403 C404 1.398 . S
C403 C409 1.491 . S
C404 H395 0.950 . S
C404 C403 1.398 . S
C404 C405 1.391 . S
C405 H393 0.950 . S
C405 C401 1.393 . S
C405 C404 1.391 . S
C406 H396 0.950 . S
C406 C407 1.386 . S
C406 C408 1.391 . S
C407 C406 1.386 . S
C407 C411 1.393 . S
C408 H397 0.950 . S
C408 C406 1.391 . S
C408 C409 1.400 . S
C409 C403 1.491 . S
C409 C408 1.400 . S
C409 C410 1.398 . S
C410 H398 0.950 1_455 S
C410 C409 1.398 . S
C410 C411 1.391 . S
C411 H399 0.950 1_455 S
C411 C407 1.393 . S
C411 C410 1.391 . S
H412 C420 0.950 1_655 S
H413 C425 0.950 . S
H414 C422 0.959 . S
H415 C424 0.950 . S
H416 C426 0.950 . S
H417 C428 0.950 . S
H418 C430 0.950 . S
H419 C431 0.950 . S
C420 H412 0.950 1_455 S
C420 C421 1.386 . S
C420 C422 1.389 1_455 S
C421 C420 1.386 . S
C421 C425 1.393 . S
C422 H414 0.959 . S
C422 C420 1.389 1_655 S
C422 C423 1.394 1_655 S
C423 C422 1.394 1_455 S
C423 C424 1.398 . S
C423 C429 1.491 . S
C424 H415 0.950 . S
C424 C423 1.398 . S
C424 C425 1.391 . S
C425 H413 0.950 . S
C425 C421 1.393 . S
C425 C424 1.391 . S
C426 H416 0.950 . S
C426 C427 1.386 . S
C426 C428 1.391 . S
C427 C426 1.386 . S
C427 C431 1.393 1_455 S
C428 H417 0.950 . S
C428 C426 1.391 . S
C428 C429 1.400 . S
C429 C423 1.491 . S
C429 C428 1.400 . S
C429 C430 1.398 1_455 S
C430 H418 0.950 . S
C430 C429 1.398 1_655 S
C430 C431 1.391 . S
C431 H419 0.950 . S
C431 C427 1.393 1_655 S
C431 C430 1.391 . S
C261 C67 4.292 . S
C267 C55 4.304 . S
C281 C139 2.614 . S
C287 C151 2.614 . S
C301 C238 0.607 . S
C307 C226 0.607 . S
C321 C235 2.577 . S
C327 C223 2.577 . S
C341 C58 0.814 . S
C347 C70 0.814 1_556 S
C361 C154 1.211 . S
C367 C142 1.211 . S
C381 C140 1.523 . S
C387 C68 1.523 . S
C401 C152 1.599 . S
C407 C236 1.576 . S
C421 C224 1.574 . S
C427 C56 1.581 . S
