# Generated by pormake.
# Topology wmi, (6)-cn, num edge types: 1
# Building blocks:
#     Node 0, Type 0, BuildingBlock: INOVEN_clean_sbu_0, # of connection points: 6
#     Node 1, Type 0, BuildingBlock: INOVEN_clean_sbu_0, # of connection points: 6
#     Node 2, Type 0, BuildingBlock: INOVEN_clean_sbu_0, # of connection points: 6
#     Node 3, Type 0, BuildingBlock: INOVEN_clean_sbu_0, # of connection points: 6
#     Node 4, Type 0, BuildingBlock: INOVEN_clean_sbu_0, # of connection points: 6
#     Node 5, Type 0, BuildingBlock: INOVEN_clean_sbu_0, # of connection points: 6
#     Node 6, Type 0, BuildingBlock: INOVEN_clean_sbu_0, # of connection points: 6
#     Node 7, Type 0, BuildingBlock: INOVEN_clean_sbu_0, # of connection points: 6
#     Node 8, Type 0, BuildingBlock: INOVEN_clean_sbu_0, # of connection points: 6
#     Node 9, Type 0, BuildingBlock: INOVEN_clean_sbu_0, # of connection points: 6
#     Node 10, Type 0, BuildingBlock: INOVEN_clean_sbu_0, # of connection points: 6
#     Node 11, Type 0, BuildingBlock: INOVEN_clean_sbu_0, # of connection points: 6
#     Node 12, Type 0, BuildingBlock: INOVEN_clean_sbu_0, # of connection points: 6
#     Node 13, Type 0, BuildingBlock: INOVEN_clean_sbu_0, # of connection points: 6
#     Node 14, Type 0, BuildingBlock: INOVEN_clean_sbu_0, # of connection points: 6
#     Node 15, Type 0, BuildingBlock: INOVEN_clean_sbu_0, # of connection points: 6
#     Node 16, Type 0, BuildingBlock: INOVEN_clean_sbu_0, # of connection points: 6
#     Node 17, Type 0, BuildingBlock: INOVEN_clean_sbu_0, # of connection points: 6
#     Edge 18, Type (0, 0), BuildingBlock: AJUNOK_clean_linker_0, # of connection points: 2
#     Edge 19, Type (0, 0), BuildingBlock: AJUNOK_clean_linker_0, # of connection points: 2
#     Edge 20, Type (0, 0), BuildingBlock: AJUNOK_clean_linker_0, # of connection points: 2
#     Edge 21, Type (0, 0), BuildingBlock: AJUNOK_clean_linker_0, # of connection points: 2
#     Edge 22, Type (0, 0), BuildingBlock: AJUNOK_clean_linker_0, # of connection points: 2
#     Edge 23, Type (0, 0), BuildingBlock: AJUNOK_clean_linker_0, # of connection points: 2
#     Edge 24, Type (0, 0), BuildingBlock: AJUNOK_clean_linker_0, # of connection points: 2
#     Edge 25, Type (0, 0), BuildingBlock: AJUNOK_clean_linker_0, # of connection points: 2
#     Edge 26, Type (0, 0), BuildingBlock: AJUNOK_clean_linker_0, # of connection points: 2
#     Edge 27, Type (0, 0), BuildingBlock: AJUNOK_clean_linker_0, # of connection points: 2
#     Edge 28, Type (0, 0), BuildingBlock: AJUNOK_clean_linker_0, # of connection points: 2
#     Edge 29, Type (0, 0), BuildingBlock: AJUNOK_clean_linker_0, # of connection points: 2
#     Edge 30, Type (0, 0), BuildingBlock: AJUNOK_clean_linker_0, # of connection points: 2
#     Edge 31, Type (0, 0), BuildingBlock: AJUNOK_clean_linker_0, # of connection points: 2
#     Edge 32, Type (0, 0), BuildingBlock: AJUNOK_clean_linker_0, # of connection points: 2
#     Edge 33, Type (0, 0), BuildingBlock: AJUNOK_clean_linker_0, # of connection points: 2
#     Edge 34, Type (0, 0), BuildingBlock: AJUNOK_clean_linker_0, # of connection points: 2
#     Edge 35, Type (0, 0), BuildingBlock: AJUNOK_clean_linker_0, # of connection points: 2
#     Edge 36, Type (0, 0), BuildingBlock: AJUNOK_clean_linker_0, # of connection points: 2
#     Edge 37, Type (0, 0), BuildingBlock: AJUNOK_clean_linker_0, # of connection points: 2
#     Edge 38, Type (0, 0), BuildingBlock: AJUNOK_clean_linker_0, # of connection points: 2
#     Edge 39, Type (0, 0), BuildingBlock: AJUNOK_clean_linker_0, # of connection points: 2
#     Edge 40, Type (0, 0), BuildingBlock: AJUNOK_clean_linker_0, # of connection points: 2
#     Edge 41, Type (0, 0), BuildingBlock: AJUNOK_clean_linker_0, # of connection points: 2
#     Edge 42, Type (0, 0), BuildingBlock: AJUNOK_clean_linker_0, # of connection points: 2
#     Edge 43, Type (0, 0), BuildingBlock: AJUNOK_clean_linker_0, # of connection points: 2
#     Edge 44, Type (0, 0), BuildingBlock: AJUNOK_clean_linker_0, # of connection points: 2
#     Edge 45, Type (0, 0), BuildingBlock: AJUNOK_clean_linker_0, # of connection points: 2
#     Edge 46, Type (0, 0), BuildingBlock: AJUNOK_clean_linker_0, # of connection points: 2
#     Edge 47, Type (0, 0), BuildingBlock: AJUNOK_clean_linker_0, # of connection points: 2
#     Edge 48, Type (0, 0), BuildingBlock: AJUNOK_clean_linker_0, # of connection points: 2
#     Edge 49, Type (0, 0), BuildingBlock: AJUNOK_clean_linker_0, # of connection points: 2
#     Edge 50, Type (0, 0), BuildingBlock: AJUNOK_clean_linker_0, # of connection points: 2
#     Edge 51, Type (0, 0), BuildingBlock: AJUNOK_clean_linker_0, # of connection points: 2
#     Edge 52, Type (0, 0), BuildingBlock: AJUNOK_clean_linker_0, # of connection points: 2
#     Edge 53, Type (0, 0), BuildingBlock: AJUNOK_clean_linker_0, # of connection points: 2
#     Edge 54, Type (0, 0), BuildingBlock: AJUNOK_clean_linker_0, # of connection points: 2
#     Edge 55, Type (0, 0), BuildingBlock: AJUNOK_clean_linker_0, # of connection points: 2
#     Edge 56, Type (0, 0), BuildingBlock: AJUNOK_clean_linker_0, # of connection points: 2
#     Edge 57, Type (0, 0), BuildingBlock: AJUNOK_clean_linker_0, # of connection points: 2
#     Edge 58, Type (0, 0), BuildingBlock: AJUNOK_clean_linker_0, # of connection points: 2
#     Edge 59, Type (0, 0), BuildingBlock: AJUNOK_clean_linker_0, # of connection points: 2
#     Edge 60, Type (0, 0), BuildingBlock: AJUNOK_clean_linker_0, # of connection points: 2
#     Edge 61, Type (0, 0), BuildingBlock: AJUNOK_clean_linker_0, # of connection points: 2
#     Edge 62, Type (0, 0), BuildingBlock: AJUNOK_clean_linker_0, # of connection points: 2
#     Edge 63, Type (0, 0), BuildingBlock: AJUNOK_clean_linker_0, # of connection points: 2
#     Edge 64, Type (0, 0), BuildingBlock: AJUNOK_clean_linker_0, # of connection points: 2
#     Edge 65, Type (0, 0), BuildingBlock: AJUNOK_clean_linker_0, # of connection points: 2
#     Edge 66, Type (0, 0), BuildingBlock: AJUNOK_clean_linker_0, # of connection points: 2
#     Edge 67, Type (0, 0), BuildingBlock: AJUNOK_clean_linker_0, # of connection points: 2
#     Edge 68, Type (0, 0), BuildingBlock: AJUNOK_clean_linker_0, # of connection points: 2
#     Edge 69, Type (0, 0), BuildingBlock: AJUNOK_clean_linker_0, # of connection points: 2
#     Edge 70, Type (0, 0), BuildingBlock: AJUNOK_clean_linker_0, # of connection points: 2
#     Edge 71, Type (0, 0), BuildingBlock: AJUNOK_clean_linker_0, # of connection points: 2
# Relax obj value: 0.102
# Max RMSD: 0.235
# Mean RMSD: 0.235
data_MOF--net-wmi--node1-INOVEN_clean_sbu_0--edge1-AJUNOK_clean_linker_0
_symmetry_space_group_name_H-M    P1
_symmetry_Int_Tables_number       1
_symmetry_cell_setting            triclinic
loop_
_symmetry_equiv_pos_as_xyz
'x, y, z'
_cell_length_a     32.116322
_cell_length_b     32.136589
_cell_length_c     56.928279
_cell_angle_alpha  90.097671
_cell_angle_beta   89.957333
_cell_angle_gamma 119.89616
loop_
_atom_site_label
_atom_site_type_symbol
_atom_site_fract_x
_atom_site_fract_y
_atom_site_fract_z
_atom_type_partial_charge
Gd0 Gd 0.55514 0.07577 0.11672 0.0
Gd1 Gd 0.46089 1.01681 0.09653 0.0
C2 C 0.50195 0.12931 0.09899 0.0
C3 C 0.64405 0.13454 0.12773 0.0
C4 C 0.69109 0.17736 0.12292 0.0
C5 C 0.72226 0.19969 0.14188 0.0
C6 C 0.70777 0.19267 0.09997 0.0
C7 C 0.78715 0.25052 0.11518 0.0
C8 C 0.75536 0.22913 0.09615 0.0
C9 C 0.76966 0.23597 0.1381 0.0
C10 C 0.47966 0.03933 0.1485 0.0
C11 C 0.52795 0.96931 0.10945 0.0
C12 C 0.37631 0.9426 0.09723 0.0
C13 C 0.35152 0.89027 0.09354 0.0
C14 C 0.31089 0.86827 0.07905 0.0
C15 C 0.36322 0.86136 0.10755 0.0
C16 C 0.29126 0.79018 0.09458 0.0
C17 C 0.33308 0.81187 0.10821 0.0
C18 C 0.281 0.81842 0.07947 0.0
C19 C 0.52315 0.05665 0.06171 0.0
O20 O 0.54363 0.13087 0.09851 0.0
O21 O 0.46168 0.08759 0.10187 0.0
O22 O 0.60851 0.13963 0.13555 0.0
O23 O 0.63023 0.09774 0.11372 0.0
O24 O 0.52078 0.04236 0.15266 0.0
O25 O 0.48221 0.05708 0.12878 0.0
O26 O 0.4907 0.96568 0.09793 0.0
O27 O 0.5582 1.00908 0.11999 0.0
O28 O 0.39168 0.97185 0.0791 0.0
O29 O 0.40601 0.95761 0.11501 0.0
O30 O 0.47974 0.05028 0.06182 0.0
O31 O 0.53221 0.04087 0.08066 0.0
H32 H 0.71023 0.18813 0.15971 0.0
H33 H 0.6845 0.17565 0.08502 0.0
H34 H 0.76767 0.23974 0.07829 0.0
H35 H 0.79261 0.25258 0.15318 0.0
H36 H 0.30093 0.88979 0.06836 0.0
H37 H 0.3943 0.87698 0.119 0.0
H38 H 0.34163 0.79063 0.11992 0.0
H39 H 0.24857 0.80226 0.06896 0.0
Gd40 Gd 1.04188 0.51951 0.11763 0.0
Gd41 Gd 0.09455 0.47471 0.09978 0.0
C42 C 0.98217 0.40931 0.10334 0.0
C43 C 0.98578 0.55375 0.12745 0.0
C44 C 0.94113 0.55579 0.12427 0.0
C45 C 0.92685 0.57494 0.14263 0.0
C46 C 0.91659 0.54566 0.10271 0.0
C47 C 0.86455 0.57491 0.11811 0.0
C48 C 0.87843 0.55487 0.09972 0.0
C49 C 0.88958 0.58494 0.13955 0.0
C50 C 0.08251 0.48774 0.15086 0.0
C51 C 0.14886 0.59194 0.10853 0.0
C52 C 0.16257 0.45436 0.09859 0.0
C53 C 0.21566 0.48315 0.09747 0.0
C54 C 0.23978 0.48016 0.0776 0.0
C55 C 0.24285 0.51155 0.11665 0.0
C56 C 0.3168 0.52811 0.09717 0.0
C57 C 0.29298 0.53373 0.11651 0.0
C58 C 0.28984 0.50275 0.07736 0.0
C59 C 0.05692 0.4983 0.06367 0.0
O60 O 0.98302 0.45066 0.10262 0.0
O61 O 1.02255 0.40791 0.10529 0.0
O62 O 0.98517 0.51865 0.13938 0.0
O63 O 1.01665 0.56898 0.11019 0.0
O64 O 0.08607 0.52975 0.15153 0.0
O65 O 0.05871 0.46641 0.13305 0.0
O66 O 0.15195 0.55399 0.10219 0.0
O67 O 0.10855 0.58846 0.11533 0.0
O68 O 0.13833 0.45291 0.07979 0.0
O69 O 0.14288 0.45781 0.11803 0.0
O70 O 0.058 0.45843 0.06538 0.0
O71 O 0.07519 0.52422 0.08201 0.0
H72 H 0.94601 0.58414 0.15921 0.0
H73 H 0.92749 0.53163 0.0881 0.0
H74 H 0.86001 0.54658 0.08297 0.0
H75 H 0.88155 0.60205 0.15385 0.0
H76 H 0.21986 0.45904 0.06251 0.0
H77 H 0.22545 0.5152 0.13216 0.0
H78 H 0.31286 0.5531 0.13199 0.0
H79 H 0.30745 0.49873 0.06199 0.0
Gd80 Gd 0.59661 0.55742 0.11644 0.0
Gd81 Gd 0.63564 0.65374 0.10103 0.0
C82 C 0.70566 0.61087 0.10369 0.0
C83 C 0.56638 0.46795 0.1273 0.0
C84 C 0.56239 0.42102 0.12138 0.0
C85 C 0.56669 0.39382 0.13949 0.0
C86 C 0.5479 0.40001 0.09899 0.0
C87 C 0.53924 0.3244 0.11351 0.0
C88 C 0.53661 0.35232 0.09511 0.0
C89 C 0.55558 0.34628 0.13561 0.0
C90 C 0.62302 0.62693 0.15122 0.0
C91 C 0.51875 0.58431 0.106 0.0
C92 C 0.65714 0.74252 0.09862 0.0
C93 C 0.63026 0.76873 0.09872 0.0
C94 C 0.63934 0.80294 0.08126 0.0
C95 C 0.59757 0.762 0.11678 0.0
C96 C 0.58773 0.82693 0.10129 0.0
C97 C 0.57671 0.79104 0.11813 0.0
C98 C 0.6181 0.83172 0.08247 0.0
C99 C 0.62199 0.59951 0.06306 0.0
O100 O 0.66573 0.56976 0.10101 0.0
O101 O 0.70404 0.65076 0.1074 0.0
O102 O 0.60709 0.50339 0.13489 0.0
O103 O 0.54275 0.4824 0.11424 0.0
O104 O 0.58135 0.58831 0.15043 0.0
O105 O 0.64596 0.62661 0.13375 0.0
O106 O 0.55512 0.62902 0.10551 0.0
O107 O 0.52666 0.54869 0.10842 0.0
O108 O 0.6528 0.7168 0.08001 0.0
O109 O 0.65703 0.72131 0.11819 0.0
O110 O 0.66061 0.63981 0.06769 0.0
O111 O 0.5926 0.58626 0.0804 0.0
H112 H 0.57738 0.40897 0.15695 0.0
H113 H 0.54384 0.41985 0.08467 0.0
H114 H 0.5244 0.33682 0.07784 0.0
H115 H 0.55968 0.32668 0.15002 0.0
H116 H 0.66402 0.80838 0.06706 0.0
H117 H 0.58905 0.73514 0.13017 0.0
H118 H 0.55266 0.78608 0.13257 0.0
H119 H 0.62698 0.85909 0.06924 0.0
Gd120 Gd 0.08729 0.54269 0.90884 0.0
Gd121 Gd 1.03029 0.44401 0.92775 0.0
C122 C 0.14463 0.4897 0.92407 0.0
C123 C 0.14351 0.63178 0.89717 0.0
C124 C 0.1865 0.67898 0.90161 0.0
C125 C 0.20068 0.71356 0.8839 0.0
C126 C 0.20995 0.69223 0.92349 0.0
C127 C 0.26183 0.77434 0.90938 0.0
C128 C 0.24754 0.73951 0.92729 0.0
C129 C 0.2373 0.76064 0.88779 0.0
C130 C 1.04223 0.46923 0.87663 0.0
C131 C 0.98319 0.51395 0.9246 0.0
C132 C 0.96315 0.35608 0.92333 0.0
C133 C 0.91033 0.33023 0.92609 0.0
C134 C 0.88849 0.29851 0.94485 0.0
C135 C 0.88104 0.33467 0.90897 0.0
C136 C 0.80945 0.27356 0.92838 0.0
C137 C 0.83124 0.30639 0.91001 0.0
C138 C 0.8385 0.27055 0.94604 0.0
C139 C 0.05566 0.49716 0.96642 0.0
O140 O 0.1464 0.5313 0.92161 0.0
O141 O 0.10322 0.44855 0.92537 0.0
O142 O 0.14824 0.59658 0.88855 0.0
O143 O 0.10813 0.61749 0.91206 0.0
O144 O 1.04007 0.50843 0.87572 0.0
O145 O 0.06609 0.47142 0.89438 0.0
O146 O 0.97487 0.46933 0.9259 0.0
O147 O 1.02562 0.54924 0.9194 0.0
O148 O 0.99018 0.37149 0.94222 0.0
O149 O 0.97938 0.38692 0.90616 0.0
O150 O 1.0333 0.45071 0.96606 0.0
O151 O 0.06814 0.51598 0.9459 0.0
H152 H 0.18223 0.70447 0.86714 0.0
H153 H 0.19888 0.66633 0.93763 0.0
H154 H 0.26548 0.74877 0.94417 0.0
H155 H 0.2456 0.78657 0.8739 0.0
H156 H 0.91006 0.29433 0.95825 0.0
H157 H 0.89643 0.35872 0.89418 0.0
H158 H 0.81007 0.30865 0.89579 0.0
H159 H 0.82255 0.24549 0.96044 0.0
Gd160 Gd 0.56907 0.57401 0.90979 0.0
Gd161 Gd 0.66509 0.61359 0.92837 0.0
C162 C 0.6188 0.68328 0.92496 0.0
C163 C 0.47989 0.54085 0.89779 0.0
C164 C 0.43316 0.5379 0.90273 0.0
C165 C 0.39848 0.52039 0.88494 0.0
C166 C 0.42048 0.54702 0.92504 0.0
C167 C 0.33818 0.51938 0.91152 0.0
C168 C 0.37356 0.53833 0.92931 0.0
C169 C 0.35173 0.511 0.88925 0.0
C170 C 0.6431 0.60008 0.8774 0.0
C171 C 0.59992 0.50033 0.92061 0.0
C172 C 0.75522 0.64334 0.93271 0.0
C173 C 0.78154 0.61647 0.93488 0.0
C174 C 0.81349 0.62602 0.95351 0.0
C175 C 0.77639 0.58231 0.9178 0.0
C176 C 0.83952 0.57306 0.93625 0.0
C177 C 0.80531 0.56116 0.91838 0.0
C178 C 0.8417 0.60406 0.95437 0.0
C179 C 0.59883 0.56976 0.96312 0.0
O180 O 0.57819 0.64347 0.92116 0.0
O181 O 0.65955 0.68253 0.92842 0.0
O182 O 0.51523 0.58045 0.88908 0.0
O183 O 0.49429 0.51959 0.91257 0.0
O184 O 0.60373 0.55891 0.87703 0.0
O185 O 0.64062 0.62269 0.89454 0.0
O186 O 0.64366 0.53696 0.91709 0.0
O187 O 0.56427 0.50829 0.92323 0.0
O188 O 0.72896 0.64251 0.95059 0.0
O189 O 0.73431 0.63903 0.91246 0.0
O190 O 0.63565 0.56458 0.95925 0.0
O191 O 0.59691 0.59598 0.94688 0.0
H192 H 0.40719 0.51252 0.8677 0.0
H193 H 0.44658 0.56031 0.93915 0.0
H194 H 0.36528 0.54678 0.94648 0.0
H195 H 0.32585 0.49609 0.8751 0.0
H196 H 0.81748 0.65133 0.96713 0.0
H197 H 0.75112 0.57304 0.9035 0.0
H198 H 0.80233 0.53718 0.90426 0.0
H199 H 0.86631 0.61252 0.96894 0.0
Gd200 Gd 0.5325 1.02326 0.9102 0.0
Gd201 Gd 0.49214 0.07893 0.92975 0.0
C202 C 0.42294 0.967 0.92473 0.0
C203 C 0.56468 0.96574 0.89911 0.0
C204 C 0.56951 0.92348 0.90536 0.0
C205 C 0.56345 0.89078 0.88756 0.0
C206 C 0.58637 0.91862 0.92749 0.0
C207 C 0.59221 0.84983 0.9134 0.0
C208 C 0.59751 0.88204 0.93147 0.0
C209 C 0.57462 0.85451 0.89149 0.0
C210 C 0.50507 0.0696 0.87793 0.0
C211 C 0.6082 0.12877 0.92085 0.0
C212 C 0.4714 0.14598 0.93629 0.0
C213 C 0.49941 0.19884 0.93649 0.0
C214 C 0.48775 0.22428 0.95258 0.0
C215 C 0.53608 0.22427 0.92004 0.0
C216 C 0.54475 0.29976 0.93385 0.0
C217 C 0.55801 0.27423 0.91842 0.0
C218 C 0.51051 0.27425 0.95145 0.0
C219 C 0.5131 0.03522 0.9644 0.0
O220 O 0.46321 0.96564 0.92521 0.0
O221 O 0.42358 1.00846 0.92351 0.0
O222 O 0.52354 0.95958 0.8915 0.0
O223 O 0.58794 1.00414 0.91199 0.0
O224 O 0.54476 0.06845 0.87649 0.0
O225 O 0.48266 0.04586 0.89551 0.0
O226 O 0.57102 0.13563 0.92308 0.0
O227 O 0.60193 0.08589 0.91783 0.0
O228 O 0.47892 0.12396 0.95363 0.0
O229 O 0.46742 0.12531 0.91596 0.0
O230 O 0.47393 0.0375 0.96301 0.0
O231 O 0.53901 0.05475 0.94633 0.0
H232 H 0.55134 0.89414 0.87028 0.0
H233 H 0.59176 0.94352 0.94157 0.0
H234 H 0.60985 0.87873 0.94869 0.0
H235 H 0.57008 0.83037 0.87717 0.0
H236 H 0.46005 0.20541 0.96563 0.0
H237 H 0.54648 0.20526 0.90792 0.0
H238 H 0.58345 0.29234 0.90438 0.0
H239 H 0.49996 0.29282 0.9639 0.0
Gd240 Gd 0.22413 0.40411 0.45127 0.0
Gd241 Gd 0.12212 0.34826 0.43204 0.0
C242 C 0.17076 0.46253 0.43636 0.0
C243 C 0.31401 0.45982 0.46154 0.0
C244 C 0.3609 0.50328 0.45741 0.0
C245 C 0.39933 0.51043 0.47173 0.0
C246 C 0.36946 0.53487 0.43865 0.0
C247 C 0.4554 0.57928 0.44828 0.0
C248 C 0.41622 0.57296 0.43432 0.0
C249 C 0.44588 0.54761 0.46718 0.0
C250 C 0.15025 0.36269 0.4833 0.0
C251 C 0.18769 0.29648 0.43917 0.0
C252 C 1.03437 0.28156 0.43786 0.0
C253 C 1.00673 0.22862 0.43565 0.0
C254 C 0.98922 0.20523 0.41398 0.0
C255 C 0.99666 0.20081 0.45617 0.0
C256 C 0.94956 0.12795 0.43384 0.0
C257 C 0.96838 0.15108 0.45526 0.0
C258 C 0.9607 0.15505 0.4131 0.0
C259 C 0.17744 0.37158 0.39398 0.0
O260 O 0.21201 0.46306 0.43847 0.0
O261 O 0.12883 0.42189 0.43489 0.0
O262 O 0.2794 0.46344 0.47178 0.0
O263 O 0.29875 0.42623 0.44552 0.0
O264 O 0.18985 0.36144 0.48547 0.0
O265 O 0.15307 0.38499 0.46485 0.0
O266 O 0.14559 0.29218 0.43417 0.0
O267 O 0.22489 0.33705 0.44544 0.0
O268 O 0.04845 0.30848 0.41887 0.0
O269 O 0.06705 0.2969 0.45428 0.0
O270 O 0.13088 0.35021 0.39367 0.0
O271 O 0.19447 0.38344 0.41484 0.0
H272 H 0.39356 0.48618 0.48616 0.0
H273 H 0.34026 0.52985 0.42729 0.0
H274 H 0.42143 0.59744 0.42013 0.0
H275 H 0.47466 0.55068 0.47827 0.0
H276 H 0.99654 0.22562 0.39788 0.0
H277 H 1.00968 0.21762 0.47315 0.0
H278 H 0.95989 0.13069 0.47143 0.0
H279 H 0.94586 0.13758 0.39644 0.0
Gd280 Gd 0.70041 0.84655 0.45148 0.0
Gd281 Gd 0.76167 0.81148 0.43184 0.0
C282 C 0.64855 0.73962 0.43342 0.0
C283 C 0.64033 0.8741 0.46462 0.0
C284 C 0.60182 0.88385 0.45771 0.0
C285 C 0.58791 0.90765 0.47385 0.0
C286 C 0.58057 0.87246 0.43538 0.0
C287 C 0.53049 0.9073 0.44591 0.0
C288 C 0.54524 0.88421 0.42951 0.0
C289 C 0.55261 0.91923 0.46806 0.0
C290 C 0.74103 0.81254 0.48348 0.0
C291 C 0.80472 0.92657 0.43879 0.0
C292 C 0.83421 0.79979 0.43735 0.0
C293 C 0.88566 0.82347 0.43164 0.0
C294 C 0.90285 0.80203 0.41591 0.0
C295 C 0.91868 0.86446 0.44438 0.0
C296 C 0.98462 0.85795 0.42811 0.0
C297 C 0.96767 0.88138 0.44268 0.0
C298 C 0.95211 0.81953 0.41394 0.0
C299 C 0.73856 0.84136 0.39374 0.0
O300 O 0.64534 0.77886 0.43429 0.0
O301 O 0.69076 0.74147 0.43491 0.0
O302 O 0.63078 0.82957 0.46591 0.0
O303 O 0.68293 0.90287 0.45616 0.0
O304 O 0.7381 0.85083 0.48683 0.0
O305 O 0.72205 0.7953 0.46421 0.0
O306 O 0.81373 0.89132 0.43558 0.0
O307 O 0.76139 0.9179 0.44337 0.0
O308 O 0.80197 0.77651 0.42085 0.0
O309 O 0.82262 0.82434 0.45166 0.0
O310 O 0.76121 0.81745 0.39393 0.0
O311 O 0.72324 0.84569 0.41399 0.0
H312 H 0.60444 0.91732 0.49106 0.0
H313 H 0.59141 0.85481 0.42252 0.0
H314 H 0.52957 0.87538 0.4121 0.0
H315 H 0.54197 0.9367 0.48111 0.0
H316 H 0.87823 0.77052 0.40594 0.0
H317 H 0.90684 0.8821 0.45673 0.0
H318 H 0.99199 0.91095 0.45382 0.0
H319 H 0.96465 0.80162 0.40216 0.0
Gd320 Gd 0.26636 0.8892 0.45092 0.0
Gd321 Gd 0.2986 0.98135 0.4304 0.0
C322 C 0.36918 0.93967 0.43059 0.0
C323 C 0.24787 0.80451 0.46494 0.0
C324 C 0.23037 0.75371 0.45857 0.0
C325 C 0.20695 0.71883 0.47595 0.0
C326 C 0.23881 0.73942 0.43652 0.0
C327 C 0.20329 0.65639 0.45019 0.0
C328 C 0.22521 0.69105 0.43235 0.0
C329 C 0.19339 0.67086 0.47182 0.0
C330 C 0.30528 0.96603 0.4823 0.0
C331 C 0.1835 0.90841 0.43919 0.0
C332 C 0.30919 0.06631 0.42988 0.0
C333 C 0.28157 0.09116 0.42622 0.0
C334 C 0.30136 0.13315 0.41273 0.0
C335 C 0.23972 0.07817 0.43949 0.0
C336 C 0.24158 0.15148 0.42793 0.0
C337 C 0.22022 0.10832 0.44047 0.0
C338 C 0.28125 0.16301 0.41343 0.0
C339 C 0.27692 0.91893 0.3954 0.0
O340 O 0.32801 0.89972 0.42952 0.0
O341 O 0.36922 0.98049 0.43463 0.0
O342 O 0.28967 0.83725 0.45706 0.0
O343 O 0.21666 0.81923 0.46577 0.0
O344 O 0.26697 0.92537 0.48634 0.0
O345 O 0.32051 0.96294 0.46268 0.0
O346 O 0.21836 0.95288 0.43578 0.0
O347 O 0.19357 0.87441 0.44287 0.0
O348 O 0.32157 0.04927 0.41184 0.0
O349 O 0.29562 0.03797 0.4481 0.0
O350 O 0.31199 0.96317 0.39511 0.0
O351 O 0.25245 0.90911 0.41447 0.0
H352 H 0.19998 0.72893 0.49305 0.0
H353 H 0.25676 0.76568 0.42277 0.0
H354 H 0.23328 0.68106 0.41549 0.0
H355 H 0.17559 0.64507 0.48576 0.0
H356 H 0.3338 0.14412 0.40263 0.0
H357 H 0.22344 0.04604 0.45018 0.0
H358 H 0.18938 0.09874 0.45163 0.0
H359 H 0.2982 0.19634 0.40365 0.0
Gd360 Gd 0.75313 0.87434 0.24287 0.0
Gd361 Gd 0.69792 0.77792 0.26113 0.0
C362 C 0.81068 0.82332 0.25858 0.0
C363 C 0.81049 0.96346 0.23142 0.0
C364 C 0.854 1.01041 0.23573 0.0
C365 C 0.86604 0.04646 0.21897 0.0
C366 C 0.88026 1.02184 0.2568 0.0
C367 C 0.92932 0.10571 0.24425 0.0
C368 C 0.91801 0.06895 0.26089 0.0
C369 C 0.90284 0.09338 0.22318 0.0
C370 C 0.7101 0.80115 0.21009 0.0
C371 C 0.64694 0.84373 0.25191 0.0
C372 C 0.62968 0.69009 0.26435 0.0
C373 C 0.57669 0.66659 0.26492 0.0
C374 C 0.55134 0.63334 0.28266 0.0
C375 C 0.55087 0.67475 0.24723 0.0
C376 C 0.4757 0.61238 0.26351 0.0
C377 C 0.50068 0.64761 0.24647 0.0
C378 C 0.50127 0.6064 0.28196 0.0
C379 C 0.73732 0.83991 0.29687 0.0
O380 O 0.81008 0.8639 0.25955 0.0
O381 O 0.76997 0.78202 0.25613 0.0
O382 O 0.81432 0.92792 0.22254 0.0
O383 O 0.77565 0.9495 0.24659 0.0
O384 O 0.70781 0.84026 0.20922 0.0
O385 O 0.73389 0.80335 0.22781 0.0
O386 O 0.64108 0.80052 0.25578 0.0
O387 O 0.68937 0.88041 0.24821 0.0
O388 O 0.65297 0.71553 0.28274 0.0
O389 O 0.65032 0.7102 0.2445 0.0
O390 O 0.73515 0.79849 0.29539 0.0
O391 O 0.71939 0.84766 0.27851 0.0
H392 H 0.84581 0.03864 0.20276 0.0
H393 H 0.8713 0.99462 0.27011 0.0
H394 H 0.93836 0.07629 0.277 0.0
H395 H 0.90974 0.12032 0.21 0.0
H396 H 0.57038 0.62675 0.29655 0.0
H397 H 0.56945 0.70072 0.23349 0.0
H398 H 0.48165 0.6522 0.2319 0.0
H399 H 0.48255 0.57901 0.29515 0.0
Gd400 Gd 0.23553 0.91066 0.24317 0.0
Gd401 Gd 0.32838 0.94961 0.26398 0.0
C402 C 0.28346 1.01702 0.26131 0.0
C403 C 0.14645 0.87957 0.23187 0.0
C404 C 0.09926 0.8748 0.23709 0.0
C405 C 0.06385 0.85526 0.21963 0.0
C406 C 0.08733 0.88489 0.25931 0.0
C407 C 1.00426 0.85393 0.24653 0.0
C408 C 1.0402 0.87481 0.26393 0.0
C409 C 1.01697 0.84507 0.22423 0.0
C410 C 0.31101 0.95105 0.21148 0.0
C411 C 0.26464 0.83415 0.25219 0.0
C412 C 0.41279 0.95929 0.26272 0.0
C413 C 0.4376 0.93156 0.2664 0.0
C414 C 0.47362 0.94581 0.28348 0.0
C415 C 0.4307 0.89525 0.25021 0.0
C416 C 0.49823 0.892 0.26654 0.0
C417 C 0.46092 0.87591 0.25025 0.0
C418 C 0.50392 0.92616 0.28352 0.0
C419 C 0.26571 0.92356 0.2989 0.0
O420 O 0.24399 0.97508 0.26201 0.0
O421 O 0.32542 1.0186 0.25897 0.0
O422 O 0.18167 0.92089 0.22474 0.0
O423 O 0.16065 0.85625 0.24538 0.0
O424 O 0.27066 0.91214 0.20744 0.0
O425 O 0.30766 0.96684 0.231 0.0
O426 O 0.2998 0.86889 0.26427 0.0
O427 O 0.23505 0.84216 0.24005 0.0
O428 O 0.39881 0.97518 0.28071 0.0
O429 O 0.38156 0.9428 0.24565 0.0
O430 O 0.30753 0.96281 0.29855 0.0
O431 O 0.25783 0.89967 0.27965 0.0
H432 H 0.07231 0.84701 0.20242 0.0
H433 H 0.11407 0.89969 0.27311 0.0
H434 H 1.03158 0.88241 0.28124 0.0
H435 H 0.9907 0.83042 0.21023 0.0
H436 H 0.48003 0.97394 0.29591 0.0
H437 H 0.40376 0.88351 0.23651 0.0
H438 H 0.45695 0.85045 0.23668 0.0
H439 H 0.53333 0.93942 0.29595 0.0
Gd440 Gd 0.19961 0.35777 0.24302 0.0
Gd441 Gd 0.15862 0.41354 0.26089 0.0
C442 C 0.08963 0.30026 0.25673 0.0
C443 C 0.23556 0.30276 0.23393 0.0
C444 C 0.23733 0.25824 0.23794 0.0
C445 C 0.26263 0.24609 0.22182 0.0
C446 C 0.2204 0.23163 0.25878 0.0
C447 C 0.25438 0.18135 0.24713 0.0
C448 C 0.22886 0.19355 0.26331 0.0
C449 C 0.27115 0.20815 0.22634 0.0
C450 C 0.16986 0.40039 0.20982 0.0
C451 C 0.27566 0.4647 0.25125 0.0
C452 C 0.13563 0.47957 0.2644 0.0
C453 C 0.16204 0.53243 0.26481 0.0
C454 C 0.14949 0.5566 0.28135 0.0
C455 C 0.19764 0.55909 0.24802 0.0
C456 C 0.20438 0.63294 0.26303 0.0
C457 C 0.21829 0.6089 0.247 0.0
C458 C 0.17047 0.60649 0.28048 0.0
C459 C 0.18029 0.3742 0.29695 0.0
O460 O 0.1297 0.29868 0.25639 0.0
O461 O 0.09022 0.34179 0.25586 0.0
O462 O 0.20082 0.30177 0.22146 0.0
O463 O 0.24917 0.33322 0.25134 0.0
O464 O 0.21104 0.40204 0.20901 0.0
O465 O 0.14817 0.37721 0.22765 0.0
O466 O 0.23873 0.47088 0.2563 0.0
O467 O 0.26878 0.4225 0.24583 0.0
O468 O 0.14021 0.45767 0.28271 0.0
O469 O 0.13629 0.45955 0.2445 0.0
O470 O 0.14044 0.37506 0.29475 0.0
O471 O 0.20639 0.39201 0.27868 0.0
H472 H 0.27691 0.26683 0.20589 0.0
H473 H 0.20176 0.24101 0.27176 0.0
H474 H 0.2162 0.17421 0.27971 0.0
H475 H 0.29071 0.19965 0.2135 0.0
H476 H 0.12234 0.53671 0.29449 0.0
H477 H 0.20867 0.54137 0.23536 0.0
H478 H 0.24461 0.62862 0.23349 0.0
H479 H 0.15874 0.62414 0.29288 0.0
Gd480 Gd 0.88786 0.73319 0.78448 0.0
Gd481 Gd 0.79201 0.67727 0.77016 0.0
C482 C 0.83554 0.79196 0.77663 0.0
C483 C 0.97711 0.79923 0.78606 0.0
C484 C 1.02827 0.83746 0.78498 0.0
C485 C 0.057 0.85333 0.80522 0.0
C486 C 0.04883 0.85857 0.76324 0.0
C487 C 0.12558 0.91127 0.78199 0.0
C488 C 0.09685 0.89492 0.76177 0.0
C489 C 0.1052 0.88983 0.80374 0.0
C490 C 0.8203 0.69112 0.8201 0.0
C491 C 0.85829 0.62891 0.77992 0.0
C492 C 0.7014 0.61836 0.76739 0.0
C493 C 0.67537 0.56501 0.76718 0.0
C494 C 0.64995 0.53896 0.7472 0.0
C495 C 0.6757 0.53951 0.78723 0.0
C496 C 0.62153 0.46371 0.76836 0.0
C497 C 0.64917 0.48959 0.78778 0.0
C498 C 0.62319 0.48861 0.74778 0.0
C499 C 0.84972 0.68615 0.73394 0.0
O500 O 0.86752 0.78782 0.7888 0.0
O501 O 0.80117 0.75347 0.76551 0.0
O502 O 0.95588 0.772 0.80432 0.0
O503 O 0.94962 0.79035 0.76771 0.0
O504 O 0.85942 0.68828 0.81903 0.0
O505 O 0.81991 0.71429 0.80269 0.0
O506 O 0.81451 0.62287 0.78291 0.0
O507 O 0.89376 0.67116 0.77484 0.0
O508 O 0.72697 0.64071 0.74884 0.0
O509 O 0.72319 0.6383 0.78709 0.0
O510 O 0.817 0.64618 0.74269 0.0
O511 O 0.8557 0.72031 0.74757 0.0
H512 H 1.04221 0.83771 0.82218 0.0
H513 H 1.02777 0.84713 0.74725 0.0
H514 H 0.11125 0.91091 0.74481 0.0
H515 H 0.12658 0.90116 0.81962 0.0
H516 H 0.6498 0.55756 0.73138 0.0
H517 H 0.69558 0.55801 0.80284 0.0
H518 H 0.64901 0.47115 0.80374 0.0
H519 H 0.60217 0.46929 0.73256 0.0
Gd520 Gd 0.37476 0.18568 0.78508 0.0
Gd521 Gd 0.42996 0.14472 0.76565 0.0
C522 C 0.31735 0.0761 0.7706 0.0
C523 C 0.31721 0.21793 0.79564 0.0
C524 C 0.27337 0.22011 0.78976 0.0
C525 C 0.24133 0.21442 0.80787 0.0
C526 C 0.2666 0.23475 0.76742 0.0
C527 C 0.19809 0.24015 0.782 0.0
C528 C 0.22934 0.24483 0.76363 0.0
C529 C 0.20393 0.22402 0.80401 0.0
C530 C 0.41836 0.1552 0.81737 0.0
C531 C 0.4812 0.2613 0.77631 0.0
C532 C 0.49739 0.1239 0.76148 0.0
C533 C 0.55045 0.15211 0.76262 0.0
C534 C 0.5779 0.15811 0.74238 0.0
C535 C 0.57421 0.17145 0.78405 0.0
C536 C 0.65148 0.19854 0.7653 0.0
C537 C 0.62416 0.19428 0.78536 0.0
C538 C 0.62802 0.18109 0.7437 0.0
C539 C 0.38704 0.1656 0.73097 0.0
O540 O 0.31656 0.11662 0.77029 0.0
O541 O 0.35868 0.0762 0.77102 0.0
O542 O 0.31338 0.17905 0.80507 0.0
O543 O 0.35347 0.23906 0.78125 0.0
O544 O 0.41879 0.19567 0.81905 0.0
O545 O 0.39519 0.13428 0.79939 0.0
O546 O 0.48701 0.22429 0.77107 0.0
O547 O 0.43903 0.25546 0.7811 0.0
O548 O 0.47666 0.13083 0.7433 0.0
O549 O 0.47452 0.11956 0.78115 0.0
O550 O 0.38984 0.12666 0.73214 0.0
O551 O 0.40659 0.19203 0.74897 0.0
H552 H 0.24616 0.20395 0.82529 0.0
H553 H 0.2908 0.23968 0.75308 0.0
H554 H 0.2249 0.25626 0.74637 0.0
H555 H 0.18007 0.21984 0.81841 0.0
H556 H 0.56052 0.14372 0.72566 0.0
H557 H 0.55433 0.16795 0.80001 0.0
H558 H 0.64145 0.20759 0.80221 0.0
H559 H 0.64819 0.18324 0.72805 0.0
Gd560 Gd 0.92378 0.21974 0.78569 0.0
Gd561 Gd 0.96955 0.31951 0.76735 0.0
C562 C 1.03402 0.26966 0.77006 0.0
C563 C 0.88927 0.12984 0.79613 0.0
C564 C 0.88436 0.08245 0.79075 0.0
C565 C 0.8855 0.05503 0.80954 0.0
C566 C 0.87191 0.0613 0.76823 0.0
C567 C 0.8623 0.98621 0.78371 0.0
C568 C 0.86109 1.01355 0.76475 0.0
C569 C 0.87418 1.00751 0.80615 0.0
C570 C 0.95599 0.29306 0.81838 0.0
C571 C 0.85209 0.25416 0.77341 0.0
C572 C 0.99065 0.40745 0.7719 0.0
C573 C 0.96154 0.43132 0.77001 0.0
C574 C 0.97141 0.46549 0.75243 0.0
C575 C 0.92554 0.42235 0.78677 0.0
C576 C 0.91411 0.48491 0.76993 0.0
C577 C 0.90215 0.44905 0.78672 0.0
C578 C 0.94799 0.4923 0.75245 0.0
C579 C 0.93897 0.267 0.72851 0.0
O580 O 0.99241 0.22938 0.77105 0.0
O581 O 1.03626 0.31214 0.76984 0.0
O582 O 0.92925 0.16401 0.80525 0.0
O583 O 0.8686 0.14577 0.78187 0.0
O584 O 0.91386 0.25493 0.81935 0.0
O585 O 0.97643 0.28989 0.80034 0.0
O586 O 0.89006 0.29727 0.77063 0.0
O587 O 0.85614 0.21663 0.77764 0.0
O588 O 1.00065 0.3917 0.75261 0.0
O589 O 0.97926 0.37766 0.78938 0.0
O590 O 0.96544 0.31327 0.72901 0.0
O591 O 0.93228 0.24784 0.74893 0.0
H592 H 0.89392 0.07003 0.82711 0.0
H593 H 0.86997 0.08138 0.75342 0.0
H594 H 0.85247 0.99825 0.74725 0.0
H595 H 0.87481 0.98729 0.82122 0.0
H596 H 0.99864 0.47288 0.7393 0.0
H597 H 0.91664 0.39609 0.80057 0.0
H598 H 0.87682 0.44364 0.8006 0.0
H599 H 0.958 0.52045 0.73954 0.0
Gd600 Gd 0.42505 0.20871 0.57826 0.0
Gd601 Gd 0.36704 0.11461 0.59828 0.0
C602 C 0.47929 0.15522 0.59471 0.0
C603 C 0.48285 0.29812 0.56776 0.0
C604 C 0.52514 0.34541 0.57306 0.0
C605 C 0.5514 0.37509 0.55426 0.0
C606 C 0.53574 0.36401 0.59601 0.0
C607 C 0.59654 0.44228 0.58097 0.0
C608 C 0.57116 0.41192 0.59991 0.0
C609 C 0.58689 0.42285 0.55814 0.0
C610 C 0.38715 0.13396 0.54599 0.0
C611 C 0.31857 0.18146 0.58664 0.0
C612 C 0.29414 0.02936 0.59665 0.0
C613 C 0.24172 0.99991 0.59905 0.0
C614 C 0.21933 0.97741 0.62017 0.0
C615 C 0.21385 0.99034 0.57856 0.0
C616 C 0.14282 0.93451 0.59972 0.0
C617 C 0.16501 0.95825 0.57894 0.0
C618 C 0.16987 0.94482 0.62051 0.0
C619 C 0.40698 0.1764 0.63343 0.0
O620 O 0.48134 0.1971 0.59511 0.0
O621 O 0.43737 0.11508 0.59226 0.0
O622 O 0.48871 0.26322 0.55969 0.0
O623 O 0.44564 0.28329 0.58157 0.0
O624 O 0.39103 0.17553 0.54221 0.0
O625 O 0.40554 0.13587 0.56552 0.0
O626 O 0.31509 0.14356 0.59742 0.0
O627 O 0.35822 0.21184 0.57607 0.0
O628 O 0.32295 0.04408 0.615 0.0
O629 O 0.30719 0.06156 0.58012 0.0
O630 O 0.40141 0.13334 0.63286 0.0
O631 O 0.39108 0.18551 0.61452 0.0
H632 H 0.54352 0.36165 0.5364 0.0
H633 H 0.51573 0.34202 0.61084 0.0
H634 H 0.57781 0.42559 0.61773 0.0
H635 H 0.60673 0.44448 0.54321 0.0
H636 H 0.24008 0.98381 0.6361 0.0
H637 H 0.23001 1.00642 0.56185 0.0
H638 H 0.14472 0.95098 0.56276 0.0
H639 H 0.15315 0.92634 0.63669 0.0
Gd640 Gd 0.90603 0.24903 0.57682 0.0
Gd641 Gd 1.00232 0.29001 0.59495 0.0
C642 C 0.95556 0.3561 0.59306 0.0
C643 C 0.81829 0.22205 0.56372 0.0
C644 C 0.76912 0.21032 0.57083 0.0
C645 C 0.73015 0.17483 0.55813 0.0
C646 C 0.76012 0.235 0.58874 0.0
C647 C 0.67349 0.18865 0.58077 0.0
C648 C 0.71283 0.2245 0.59355 0.0
C649 C 0.68312 0.16405 0.56303 0.0
C650 C 0.97824 0.27691 0.54371 0.0
C651 C 0.9356 0.17487 0.58867 0.0
C652 C 0.09123 0.31223 0.5996 0.0
C653 C 0.11857 0.2863 0.59786 0.0
C654 C 0.13486 0.27428 0.61825 0.0
C655 C 0.13075 0.27546 0.57585 0.0
C656 C 0.17645 0.24299 0.5946 0.0
C657 C 0.159 0.25379 0.57425 0.0
C658 C 0.16374 0.25311 0.61665 0.0
C659 C 0.94102 0.26876 0.63126 0.0
O660 O 0.91576 0.31465 0.59476 0.0
O661 O 0.99707 0.35732 0.58999 0.0
O662 O 0.85269 0.26678 0.56446 0.0
O663 O 0.83287 0.19218 0.56959 0.0
O664 O 0.93827 0.23662 0.54289 0.0
O665 O 0.97719 0.29954 0.56127 0.0
O666 O 0.97978 0.21159 0.58685 0.0
O667 O 0.89888 0.18175 0.58915 0.0
O668 O 0.06198 0.30179 0.61739 0.0
O669 O 0.07331 0.31817 0.58013 0.0
O670 O 0.98244 0.30765 0.62928 0.0
O671 O 0.93235 0.24287 0.6129 0.0
H672 H 0.73616 0.15559 0.54411 0.0
H673 H 0.78959 0.2629 0.5987 0.0
H674 H 0.70741 0.24545 0.60684 0.0
H675 H 0.65419 0.13613 0.55285 0.0
H676 H 0.1264 0.28248 0.63546 0.0
H677 H 0.11951 0.28472 0.55979 0.0
H678 H 0.16796 0.24629 0.55699 0.0
H679 H 0.17753 0.24639 0.63268 0.0
Gd680 Gd 0.861 0.68796 0.57788 0.0
Gd681 Gd 0.82893 0.74654 0.59831 0.0
C682 C 0.75446 0.63637 0.59477 0.0
C683 C 0.88842 0.62775 0.56507 0.0
C684 C 0.89678 0.58781 0.57065 0.0
C685 C 0.92439 0.57822 0.55484 0.0
C686 C 0.88102 0.56149 0.59159 0.0
C687 C 0.92114 0.51648 0.58066 0.0
C688 C 0.89297 0.52588 0.5965 0.0
C689 C 0.93617 0.54278 0.55966 0.0
C690 C 0.82623 0.72868 0.54602 0.0
C691 C 0.94316 0.78896 0.59074 0.0
C692 C 0.83536 0.82824 0.59812 0.0
C693 C 0.83963 0.87531 0.59685 0.0
C694 C 0.84503 0.90018 0.61779 0.0
C695 C 0.8506 0.89972 0.57531 0.0
C696 C 0.87434 0.9742 0.59585 0.0
C697 C 0.8673 0.94882 0.57479 0.0
C698 C 0.86318 0.94946 0.61735 0.0
C699 C 0.84163 0.70272 0.63358 0.0
O700 O 0.79398 0.6338 0.59573 0.0
O701 O 0.7572 0.6787 0.59172 0.0
O702 O 0.84452 0.61942 0.56211 0.0
O703 O 0.91624 0.66853 0.5755 0.0
O704 O 0.86335 0.72399 0.54212 0.0
O705 O 0.80931 0.70963 0.56522 0.0
O706 O 0.90932 0.79009 0.60307 0.0
O707 O 0.93258 0.75282 0.57692 0.0
O708 O 0.80618 0.79467 0.61286 0.0
O709 O 0.85643 0.81538 0.58225 0.0
O710 O 0.80793 0.71404 0.63244 0.0
O711 O 0.86998 0.71637 0.61561 0.0
H712 H 0.93712 0.59845 0.53866 0.0
H713 H 0.86005 0.56873 0.60414 0.0
H714 H 0.88066 0.50608 0.6128 0.0
H715 H 0.95649 0.53557 0.54672 0.0
H716 H 0.83875 0.88222 0.6346 0.0
H717 H 0.848 0.8812 0.55897 0.0
H718 H 0.87545 0.96702 0.558 0.0
H719 H 0.86992 0.96837 0.63391 0.0
C720 C 0.53065 0.9031 0.08771 0.0
C721 C 0.53952 0.93034 0.10836 0.0
C722 C 0.54609 0.8694 0.08552 0.0
C723 C 0.57001 0.86124 0.10409 0.0
H724 H 0.51314 0.90901 0.07286 0.0
H725 H 0.53945 0.84971 0.06919 0.0
S726 S 0.60158 0.92311 0.16182 0.0
N727 N 0.57371 0.94697 0.14766 0.0
N728 N 0.60202 0.8832 0.14367 0.0
C729 C 0.57845 0.88779 0.12491 0.0
C730 C 0.56341 0.92249 0.12701 0.0
C731 C 0.23888 0.72122 0.12034 0.0
C732 C 0.25673 0.73871 0.09774 0.0
C733 C 0.20508 0.67284 0.12387 0.0
C734 C 0.18925 0.64034 0.10504 0.0
H735 H 0.25018 0.74538 0.13527 0.0
H736 H 0.19067 0.66086 0.14134 0.0
S737 S 0.22312 0.6685 0.04248 0.0
N738 N 0.25496 0.7203 0.05624 0.0
N739 N 0.19168 0.62881 0.063 0.0
C740 C 0.20675 0.65721 0.08241 0.0
C741 C 0.2405 0.70666 0.07873 0.0
C742 C 0.403 0.59032 0.10583 0.0
C743 C 0.36864 0.54355 0.09863 0.0
C744 C 0.45202 0.60428 0.10765 0.0
C745 C 0.46794 0.57164 0.10263 0.0
H746 H 0.39189 0.61622 0.11004 0.0
H747 H 0.4773 0.64034 0.11347 0.0
S748 S 0.39148 0.44427 0.08374 0.0
N749 N 0.35367 0.46438 0.08731 0.0
N750 N 0.44483 0.49024 0.08986 0.0
C751 C 0.43359 0.52473 0.09534 0.0
C752 C 0.38419 0.51076 0.0936 0.0
C753 C 0.89656 0.49443 0.92604 0.0
C754 C 0.94568 0.52706 0.92945 0.0
C755 C 0.86209 0.50911 0.92859 0.0
C756 C 0.87557 0.55676 0.93483 0.0
H757 H 0.88483 0.45783 0.92074 0.0
H758 H 0.82467 0.48305 0.92551 0.0
S759 S 0.99974 0.65595 0.946 0.0
N760 N 1.00571 0.60892 0.94028 0.0
N761 N 0.94173 0.63647 0.94383 0.0
C762 C 0.92455 0.5894 0.93849 0.0
C763 C 0.95934 0.57454 0.93615 0.0
C764 C 0.52799 0.36717 0.93198 0.0
C765 C 0.56166 0.35162 0.93017 0.0
C766 C 0.54122 0.41503 0.9287 0.0
C767 C 0.58884 0.45001 0.92315 0.0
H768 H 0.49059 0.34203 0.93573 0.0
H769 H 0.51328 0.42432 0.93062 0.0
S770 S 0.69101 0.42837 0.91554 0.0
N771 N 0.64511 0.3751 0.92217 0.0
N772 N 0.66973 0.46574 0.91536 0.0
C773 C 0.62301 0.43522 0.92083 0.0
C774 C 0.60948 0.38593 0.92438 0.0
C775 C 0.69342 0.15538 0.92945 0.0
C776 C 0.65835 0.16782 0.9236 0.0
C777 C 0.74172 0.18999 0.93141 0.0
C778 C 0.75727 0.2387 0.92771 0.0
H779 H 0.68374 0.11834 0.93245 0.0
H780 H 0.76724 0.17818 0.93529 0.0
S781 S 0.68024 0.29047 0.91226 0.0
N782 N 0.64247 0.23218 0.91417 0.0
N783 N 0.73389 0.29809 0.91832 0.0
C784 C 0.72273 0.25196 0.92211 0.0
C785 C 0.67313 0.21636 0.92006 0.0
C786 C 0.20732 0.20052 0.41219 0.0
C787 C 0.22453 0.18598 0.43134 0.0
C788 C 0.19195 0.23407 0.41519 0.0
C789 C 0.19494 0.2551 0.4372 0.0
H790 H 0.20584 0.18592 0.39484 0.0
H791 H 0.17915 0.24474 0.4001 0.0
S792 S 0.23726 0.22913 0.4928 0.0
N793 N 0.24247 0.19407 0.47316 0.0
N794 N 0.21587 0.25905 0.47841 0.0
C795 C 0.21188 0.24075 0.45646 0.0
C796 C 0.22618 0.20567 0.45361 0.0
C797 C 0.86905 0.06178 0.44456 0.0
C798 C 0.91365 0.07645 0.43398 0.0
C799 C 0.83446 1.01325 0.44606 0.0
C800 C 0.84331 0.97736 0.43726 0.0
H801 H 0.86087 0.08814 0.45176 0.0
H802 H 0.80057 1.00394 0.45438 0.0
S803 S 0.95589 0.99784 0.40867 0.0
N804 N 0.9659 0.0523 0.41496 0.0
N805 N 0.90088 0.96031 0.41794 0.0
C806 C 0.88825 0.99169 0.42685 0.0
C807 C 0.9234 0.04147 0.42512 0.0
C808 C 0.12026 0.93079 0.43231 0.0
C809 C 0.13275 0.8952 0.43623 0.0
C810 C 0.07223 0.91854 0.42924 0.0
C811 C 1.03528 0.87032 0.4298 0.0
H812 H 0.14763 0.96835 0.43168 0.0
H813 H 0.06392 0.94695 0.42643 0.0
S814 S 0.04846 0.76356 0.44019 0.0
N815 N 0.10374 0.80943 0.44063 0.0
N816 N 1.01382 0.78705 0.43549 0.0
C817 C 0.04718 0.83446 0.43381 0.0
C818 C 0.09585 0.84674 0.43687 0.0
C819 C 0.53037 0.836 0.27146 0.0
C820 C 0.53574 0.87937 0.26294 0.0
C821 C 0.56569 0.82336 0.2671 0.0
C822 C 0.60693 0.85367 0.25395 0.0
H823 H 0.49896 0.81206 0.28165 0.0
H824 H 0.56124 0.79039 0.27456 0.0
S825 S 0.63462 0.96956 0.22623 0.0
N826 N 0.58308 0.95128 0.23993 0.0
N827 N 0.6492 0.92787 0.23127 0.0
C828 C 0.61155 0.89658 0.24476 0.0
C829 C 0.57595 0.90936 0.24938 0.0
C830 C 0.23385 0.75209 0.23604 0.0
C831 C 0.2535 0.78416 0.25499 0.0
C832 C 0.21922 0.70343 0.23869 0.0
C833 C 0.22281 0.68503 0.26052 0.0
H834 H 0.22941 0.76465 0.21908 0.0
H835 H 0.20378 0.67979 0.2237 0.0
S836 S 0.26958 0.7538 0.31587 0.0
N837 N 0.27463 0.79415 0.29643 0.0
N838 N 0.24679 0.7024 0.30147 0.0
C839 C 0.24215 0.71668 0.27965 0.0
C840 C 0.25767 0.76638 0.27686 0.0
C841 C 0.38772 0.58716 0.26137 0.0
C842 C 0.42479 0.57597 0.25981 0.0
C843 C 0.33926 0.55132 0.25841 0.0
C844 C 0.32671 0.50352 0.25343 0.0
H845 H 0.39622 0.62355 0.26527 0.0
H846 H 0.3116 0.56104 0.26014 0.0
S847 S 0.41258 0.45763 0.24646 0.0
N848 N 0.44673 0.51524 0.25227 0.0
N849 N 0.35715 0.44802 0.24654 0.0
C850 C 0.36435 0.49265 0.25138 0.0
C851 C 0.41301 0.52886 0.25459 0.0
C852 C 0.83629 0.54321 0.7727 0.0
C853 C 0.86947 0.58969 0.78047 0.0
C854 C 0.85055 0.5087 0.76935 0.0
C855 C 0.89835 0.52026 0.77339 0.0
H856 H 0.79989 0.5341 0.76833 0.0
H857 H 0.82453 0.47328 0.76306 0.0
S858 S 0.99764 0.63511 0.79592 0.0
N859 N 0.95136 0.64391 0.7939 0.0
N860 N 0.97767 0.57947 0.78697 0.0
C861 C 0.93122 0.56589 0.78186 0.0
C862 C 0.91686 0.60054 0.78557 0.0
C863 C 0.58803 0.37781 0.7552 0.0
C864 C 0.58737 0.41159 0.77078 0.0
C865 C 0.55548 0.32833 0.75782 0.0
C866 C 0.52109 0.31146 0.77591 0.0
H867 H 0.61371 0.38975 0.74092 0.0
H868 H 0.55594 0.30346 0.7451 0.0
S869 S 0.50369 0.38574 0.82067 0.0
N870 N 0.54887 0.4248 0.80444 0.0
N871 N 0.4883 0.33258 0.80949 0.0
C872 C 0.52039 0.3451 0.79157 0.0
C873 C 0.55333 0.39496 0.78896 0.0
C874 C 0.71956 0.19701 0.78515 0.0
C875 C 0.70365 0.21656 0.76764 0.0
C876 C 0.76809 0.21116 0.78736 0.0
C877 C 0.80278 0.24586 0.77233 0.0
H878 H 0.69411 0.16947 0.79685 0.0
H879 H 0.77844 0.19408 0.80074 0.0
S880 S 0.78005 0.30844 0.72384 0.0
N881 N 0.72636 0.27267 0.7351 0.0
N882 N 0.81828 0.29966 0.7395 0.0
C883 C 0.78772 0.26645 0.75505 0.0
C884 C 0.73794 0.25153 0.75257 0.0
C885 C 0.24846 0.24582 0.5762 0.0
C886 C 0.21067 0.22466 0.59254 0.0
C887 C 0.28218 0.23061 0.5741 0.0
C888 C 0.27969 0.19352 0.58824 0.0
H889 H 0.25273 0.27519 0.56522 0.0
H890 H 0.31081 0.24869 0.56141 0.0
S891 S 0.18703 0.12542 0.63342 0.0
N892 N 0.17188 0.16376 0.62273 0.0
N893 N 0.23585 0.13556 0.61904 0.0
C894 C 0.24179 0.17159 0.6045 0.0
C895 C 0.2073 0.18717 0.60665 0.0
C896 C 0.93166 0.05658 0.58079 0.0
C897 C 0.89274 1.02632 0.59542 0.0
C898 C 0.94792 0.10589 0.57951 0.0
C899 C 0.92557 0.12591 0.59284 0.0
H900 H 0.94919 0.04195 0.57005 0.0
H901 H 0.97653 0.12793 0.56739 0.0
S902 S 0.82402 0.06282 0.63448 0.0
N903 N 0.83293 1.02037 0.62354 0.0
N904 N 0.86494 0.11302 0.62207 0.0
C905 C 0.88799 0.0964 0.60815 0.0
C906 C 0.87113 0.04652 0.6092 0.0
C907 C 0.07726 0.86056 0.58178 0.0
C908 C 0.09208 0.89686 0.59883 0.0
C909 C 1.02901 0.82585 0.57937 0.0
C910 C 0.99378 0.8263 0.59387 0.0
H911 H 0.10323 0.85912 0.57014 0.0
H912 H 1.01938 0.79872 0.56589 0.0
S913 S 1.01471 0.91462 0.64107 0.0
N914 N 0.06862 0.93197 0.63025 0.0
N915 N 0.97731 0.86634 0.626 0.0
C916 C 1.00829 0.86243 0.61111 0.0
C917 C 0.05765 0.89776 0.61356 0.0
C918 C 0.52167 1.00761 0.0278 0.0
C919 C 0.54095 0.05334 0.03826 0.0
C920 C 0.51764 1.0019 1.00321 0.0
C921 C 0.53377 0.04176 0.98826 0.0
H922 H 0.50457 0.97575 0.03868 0.0
H923 H 0.49802 0.96595 0.99599 0.0
S924 S 0.58997 0.16911 1.00686 0.0
N925 N 0.57829 0.13898 0.03176 0.0
N926 N 0.57272 0.12863 0.98568 0.0
C927 C 0.55691 0.08782 0.99848 0.0
C928 C 0.56005 0.0935 0.02346 0.0
C929 C 0.10546 0.52749 1.00216 0.0
C930 C 0.06563 0.522 0.98934 0.0
C931 C 0.10477 0.5261 0.02688 0.0
C932 C 0.06407 0.51882 0.0397 0.0
H933 H 0.135 0.52724 0.99307 0.0
H934 H 0.13431 0.52577 0.03591 0.0
S935 S 0.95328 0.50889 0.0146 0.0
N936 N 0.9867 0.51444 0.99143 0.0
N937 N 0.98536 0.51147 0.03782 0.0
C938 C 1.02606 0.51795 0.02722 0.0
C939 C 1.0269 0.51969 1.00205 0.0
C940 C 0.623 0.62264 0.99767 0.0
C941 C 0.59183 0.57734 0.98811 0.0
C942 C 0.6306 0.62906 0.02188 0.0
C943 C 0.60705 0.59059 0.03787 0.0
H944 H 0.64461 0.65277 0.98621 0.0
H945 H 0.65674 0.66464 0.02794 0.0
S946 S 0.51614 0.46603 0.02187 0.0
N947 N 0.53388 0.49397 0.99633 0.0
N948 N 0.54649 0.50662 0.04232 0.0
C949 C 0.57274 0.54581 0.0287 0.0
C950 C 0.56573 0.53901 1.00373 0.0
C951 C 0.20343 0.42221 0.35867 0.0
C952 C 0.20372 0.38493 0.37141 0.0
C953 C 0.20207 0.42151 0.33398 0.0
C954 C 0.20059 0.38329 0.32106 0.0
H955 H 0.19843 0.44903 0.36781 0.0
H956 H 0.1972 0.44855 0.32505 0.0
S957 S 0.20893 0.28147 0.34586 0.0
N958 N 0.20921 0.31252 0.3691 0.0
N959 N 0.2061 0.31093 0.32271 0.0
C960 C 0.20607 0.3487 0.33341 0.0
C961 C 0.20781 0.34964 0.3586 0.0
C962 C 0.76955 0.88995 0.35795 0.0
C963 C 0.72923 0.85642 0.37086 0.0
C964 C 0.77026 0.88868 0.33325 0.0
C965 C 0.73047 0.85405 0.32065 0.0
H966 H 0.80274 0.91367 0.36706 0.0
H967 H 0.80363 0.91173 0.32416 0.0
S968 S 0.61498 0.76059 0.34589 0.0
N969 N 0.64766 0.78971 0.36902 0.0
N970 N 0.64838 0.78791 0.32269 0.0
C971 C 0.68844 0.82328 0.33323 0.0
C972 C 0.6879 0.82439 0.35834 0.0
C973 C 0.28614 0.89037 0.33317 0.0
C974 C 0.25258 0.90007 0.32219 0.0
C975 C 0.2891 0.88917 0.35772 0.0
C976 C 0.25804 0.89664 0.37226 0.0
H977 H 0.31403 0.88946 0.32282 0.0
H978 H 0.31924 0.88764 0.36535 0.0
S979 S 0.15858 0.91491 0.35219 0.0
N980 N 0.18398 0.91127 0.32759 0.0
N981 N 0.18855 0.90758 0.37386 0.0
C982 C 0.22079 0.90069 0.3615 0.0
C983 C 0.21832 0.90278 0.33639 0.0
C984 C 0.89188 0.72498 0.69534 0.0
C985 C 0.85202 0.68918 0.70771 0.0
C986 C 0.89183 0.72673 0.67043 0.0
C987 C 0.85218 0.69236 0.65732 0.0
H988 H 0.92253 0.75227 0.7049 0.0
H989 H 0.92139 0.75667 0.66154 0.0
S990 S 0.73779 0.59434 0.68085 0.0
N991 N 0.77076 0.62049 0.70423 0.0
N992 N 0.77221 0.62351 0.65835 0.0
C993 C 0.81306 0.65632 0.66948 0.0
C994 C 0.81248 0.65488 0.69441 0.0
C995 C 0.44015 0.216 0.6719 0.0
C996 C 0.40017 0.19142 0.65703 0.0
C997 C 0.43492 0.2132 0.69654 0.0
C998 C 0.3896 0.18483 0.70709 0.0
H999 H 0.47602 0.23369 0.66452 0.0
H1000 H 0.46703 0.22904 0.70729 0.0
S1001 S 0.27382 0.11447 0.67604 0.0
N1002 N 0.31364 0.13993 0.65477 0.0
N1003 N 0.30424 0.13348 0.70085 0.0
C1004 C 0.34924 0.16266 0.69244 0.0
C1005 C 0.35439 0.16628 0.66746 0.0
C1006 C 0.96191 0.24147 0.66799 0.0
C1007 C 0.92804 0.24802 0.65519 0.0
C1008 C 0.96044 0.23891 0.69267 0.0
C1009 C 0.92495 0.2426 0.70547 0.0
H1010 H 0.99249 0.2431 0.65904 0.0
H1011 H 0.99043 0.23975 0.70183 0.0
S1012 S 0.82407 0.25256 0.68004 0.0
N1013 N 0.85492 0.25216 0.65689 0.0
N1014 N 0.85202 0.24735 0.70325 0.0
C1015 C 0.88818 0.24406 0.69269 0.0
C1016 C 0.88977 0.24682 0.66754 0.0
C1017 C 0.40136 1.00031 0.20384 0.0
C1018 C 0.35365 0.97599 0.19523 0.0
C1019 C 0.44153 1.01809 0.18878 0.0
C1020 C 0.43645 1.02023 0.16443 0.0
H1021 H 0.40856 1.00754 0.22222 0.0
H1022 H 0.47702 0.03286 0.19641 0.0
S1023 S 0.32097 0.98733 0.13438 0.0
N1024 N 0.3046 0.96577 0.16118 0.0
N1025 N 0.38023 1.01424 0.13398 0.0
C1026 C 0.38946 1.00546 0.15611 0.0
C1027 C 0.34816 0.98025 0.1711 0.0
C1028 C 0.08117 0.41855 0.17232 0.0
C1029 C 0.10605 0.4678 0.16661 0.0
C1030 C 0.10236 0.39747 0.18607 0.0
C1031 C 0.15042 0.42387 0.19375 0.0
H1032 H 1.04454 0.39606 0.16636 0.0
H1033 H 0.08091 0.35981 0.19055 0.0
S1034 S 0.23238 0.55371 0.1829 0.0
N1035 N 0.18182 0.54249 0.16987 0.0
N1036 N 0.22248 0.5023 0.19436 0.0
C1037 C 0.1762 0.47295 0.18776 0.0
C1038 C 0.15389 0.49497 0.17454 0.0
C1039 C 0.71148 0.73392 0.18825 0.0
C1040 C 0.68615 0.75765 0.19446 0.0
C1041 C 0.69019 0.6915 0.1747 0.0
C1042 C 0.64165 0.66904 0.16771 0.0
H1043 H 0.74857 0.74873 0.19364 0.0
H1044 H 0.71207 0.67593 0.1697 0.0
S1045 S 0.55819 0.71465 0.18042 0.0
N1046 N 0.60929 0.75493 0.19267 0.0
N1047 N 0.56848 0.67366 0.16849 0.0
C1048 C 0.61532 0.69154 0.17431 0.0
C1049 C 0.6377 0.73607 0.18735 0.0
C1050 C 0.97038 0.40092 0.85522 0.0
C1051 C 1.02013 0.42661 0.86023 0.0
C1052 C 0.94903 0.35656 0.84277 0.0
C1053 C 0.97687 0.33706 0.83396 0.0
H1054 H 0.94754 0.41426 0.86173 0.0
H1055 H 0.91073 0.33811 0.83949 0.0
S1056 S 0.10894 0.39188 0.84088 0.0
N1057 N 0.09614 0.42888 0.85515 0.0
N1058 N 0.05741 0.34895 0.83029 0.0
C1059 C 1.02674 0.36346 0.83821 0.0
C1060 C 0.04793 0.40717 0.85166 0.0
C1061 C 0.70831 0.66787 0.85446 0.0
C1062 C 0.68673 0.61962 0.8617 0.0
C1063 C 0.7516 0.69012 0.84159 0.0
C1064 C 0.77724 0.66624 0.83614 0.0
H1065 H 0.69126 0.68878 0.85865 0.0
H1066 H 0.7653 0.72682 0.83586 0.0
S1067 S 0.73745 0.53958 0.85141 0.0
N1068 N 0.69471 0.54837 0.86236 0.0
N1069 N 0.77704 0.59076 0.83903 0.0
C1070 C 0.75661 0.61807 0.84356 0.0
C1071 C 0.71132 0.59473 0.8561 0.0
C1072 C 0.41976 0.08502 0.83645 0.0
C1073 C 0.44163 0.13515 0.83322 0.0
C1074 C 0.44081 0.06438 0.85064 0.0
C1075 C 0.48604 0.09255 0.8613 0.0
H1076 H 0.38546 0.06143 0.82824 0.0
H1077 H 0.42157 1.02584 0.85318 0.0
S1078 S 0.56044 0.22511 0.85696 0.0
N1079 N 0.51177 0.21226 0.84164 0.0
N1080 N 0.55287 0.17336 0.86675 0.0
C1081 C 0.50909 0.14254 0.8576 0.0
C1082 C 0.48661 0.1638 0.84397 0.0
C1083 C 0.05141 0.27727 0.52639 0.0
C1084 C 1.01954 0.29554 0.52688 0.0
C1085 C 0.09429 0.29947 0.51286 0.0
C1086 C 0.10643 0.34025 0.49891 0.0
H1087 H 1.04382 0.2464 0.53707 0.0
H1088 H 0.11776 0.28428 0.51313 0.0
S1089 S 1.0334 0.40023 0.49325 0.0
N1090 N 1.0029 0.35625 0.51205 0.0
N1091 N 0.0811 0.3963 0.48596 0.0
C1092 C 0.07389 0.35778 0.49891 0.0
C1093 C 1.03121 0.33596 0.51304 0.0
C1094 C 0.78082 0.76226 0.49102 0.0
C1095 C 0.7615 0.79037 0.49973 0.0
C1096 C 0.80449 0.74524 0.50572 0.0
C1097 C 0.80345 0.74919 0.53024 0.0
H1098 H 0.77692 0.75225 0.47276 0.0
H1099 H 0.82115 0.72638 0.49792 0.0
S1100 S 0.73603 0.79811 0.56231 0.0
N1101 N 0.73406 0.8122 0.53465 0.0
N1102 N 0.76623 0.7689 0.56239 0.0
C1103 C 0.77686 0.76994 0.53929 0.0
C1104 C 0.75844 0.79278 0.52416 0.0
C1105 C 0.32348 1.00385 0.52271 0.0
C1106 C 0.32947 1.00919 0.49829 0.0
C1107 C 0.3461 0.04389 0.53786 0.0
C1108 C 0.36859 0.09165 0.52943 0.0
H1109 H 0.30359 0.96828 0.53028 0.0
H1110 H 0.34699 0.03667 0.55619 0.0
S1111 S 0.40867 0.12525 0.4681 0.0
N1112 N 0.37733 0.06599 0.4676 0.0
N1113 N 0.40468 0.14116 0.49522 0.0
C1114 C 0.37686 0.09744 0.50517 0.0
C1115 C 0.36057 0.05636 0.48995 0.0
C1116 C 0.54136 0.26009 0.08901 0.0
C1117 C 0.5256 0.27299 0.10945 0.0
C1118 C 0.53102 0.2127 0.08511 0.0
C1119 C 0.50343 0.17588 0.10113 0.0
H1120 H 0.56344 0.2872 0.07628 0.0
H1121 H 0.54589 0.20501 0.0697 0.0
S1122 S 0.45404 0.18971 0.15758 0.0
N1123 N 0.48077 0.24409 0.14604 0.0
N1124 N 0.46172 0.15528 0.13854 0.0
C1125 C 0.48681 0.18776 0.12147 0.0
C1126 C 0.49782 0.23619 0.12566 0.0
C1127 C 0.84841 0.32665 0.09569 0.0
C1128 C 0.83807 0.28858 0.11114 0.0
C1129 C 0.89555 0.36439 0.09251 0.0
C1130 C 0.93447 0.3653 0.10433 0.0
H1131 H 0.81963 0.32818 0.08655 0.0
H1132 H 0.90144 0.39373 0.08105 0.0
S1133 S 0.92735 0.2742 0.14648 0.0
N1134 N 0.87122 0.25377 0.13809 0.0
N1135 N 0.95977 0.325 0.1321 0.0
C1136 C 0.92502 0.32706 0.11942 0.0
C1137 C 0.87686 0.28874 0.12287 0.0
C1138 C 0.78319 0.61734 0.09049 0.0
C1139 C 0.74954 0.60841 0.10829 0.0
C1140 C 0.82038 0.6067 0.09379 0.0
C1141 C 0.82488 0.58626 0.11494 0.0
H1142 H 0.77995 0.63135 0.07371 0.0
H1143 H 0.84568 0.61441 0.07961 0.0
S1144 S 0.74324 0.55399 0.16644 0.0
N1145 N 0.72202 0.57761 0.14749 0.0
N1146 N 0.7903 0.55604 0.15357 0.0
C1147 C 0.79094 0.57719 0.13281 0.0
C1148 C 0.75366 0.58855 0.12949 0.0
C1149 C 0.26401 0.51973 0.89746 0.0
C1150 C 0.2876 0.50925 0.91543 0.0
C1151 C 0.21688 0.51079 0.90019 0.0
C1152 C 0.19087 0.49078 0.92096 0.0
H1153 H 0.28247 0.53621 0.88123 0.0
H1154 H 0.20096 0.52071 0.88605 0.0
S1155 S 0.23438 0.45669 0.97354 0.0
N1156 N 0.27984 0.47678 0.95492 0.0
N1157 N 0.19142 0.46123 0.95992 0.0
C1158 C 0.21318 0.47965 0.93903 0.0
C1159 C 0.26149 0.48874 0.93633 0.0
C1160 C 0.5669 0.76322 0.90983 0.0
C1161 C 0.6015 0.80917 0.91736 0.0
C1162 C 0.57372 0.72393 0.9125 0.0
C1163 C 0.61558 0.72802 0.92297 0.0
H1164 H 0.53377 0.7573 0.90183 0.0
H1165 H 0.54534 0.68982 0.90597 0.0
S1166 S 0.71856 0.84115 0.94492 0.0
N1167 N 0.68022 0.85739 0.93525 0.0
N1168 N 0.69305 0.78269 0.94031 0.0
C1169 C 0.65101 0.7739 0.9304 0.0
C1170 C 0.64386 0.81448 0.92773 0.0
C1171 C 0.34428 0.89705 0.93769 0.0
C1172 C 0.37869 0.92112 0.92011 0.0
C1173 C 0.30648 0.84965 0.93416 0.0
C1174 C 0.30202 0.82477 0.91296 0.0
H1175 H 0.34742 0.91437 0.95445 0.0
H1176 H 0.28068 0.83236 0.94816 0.0
S1177 S 0.38477 0.87299 0.86183 0.0
N1178 N 0.40645 0.91751 0.88097 0.0
N1179 N 0.33703 0.8286 0.87446 0.0
C1180 C 0.33655 0.84913 0.89529 0.0
C1181 C 0.37446 0.89719 0.89886 0.0
C1182 C 0.16865 0.5789 0.42679 0.0
C1183 C 0.19277 0.60581 0.44696 0.0
C1184 C 0.15877 0.53118 0.42373 0.0
C1185 C 0.17318 0.50913 0.44064 0.0
H1186 H 0.15743 0.59488 0.41326 0.0
H1187 H 0.14137 0.51214 0.40774 0.0
S1188 S 0.23766 0.56344 0.49632 0.0
N1189 N 0.23118 0.60621 0.48386 0.0
N1190 N 0.21194 0.51709 0.47831 0.0
C1191 C 0.19665 0.53534 0.46094 0.0
C1192 C 0.20667 0.5835 0.46405 0.0
C1193 C 0.5846 0.67954 0.45912 0.0
C1194 C 0.60312 0.69409 0.43637 0.0
C1195 C 0.53712 0.64262 0.46271 0.0
C1196 C 0.50604 0.61856 0.44367 0.0
H1197 H 0.60638 0.69824 0.47428 0.0
H1198 H 0.52434 0.63401 0.48063 0.0
S1199 S 0.53887 0.64366 0.38054 0.0
N1200 N 0.58782 0.68274 0.39467 0.0
N1201 N 0.49923 0.61179 0.40101 0.0
C1202 C 0.52491 0.63259 0.42078 0.0
C1203 C 0.57321 0.67066 0.41725 0.0
C1204 C 0.49431 0.9616 0.44581 0.0
C1205 C 0.49066 0.91696 0.44042 0.0
C1206 C 0.456 0.97019 0.44149 0.0
C1207 C 0.41272 0.93445 0.43155 0.0
H1208 H 0.52688 0.98996 0.45365 0.0
H1209 H 0.45976 1.00435 0.44668 0.0
S1210 S 0.38403 0.81031 0.41562 0.0
N1211 N 0.43926 0.83597 0.426 0.0
N1212 N 0.36874 0.85218 0.41666 0.0
C1213 C 0.40906 0.8898 0.42589 0.0
C1214 C 0.44755 0.88101 0.43065 0.0
C1215 C 0.89932 0.86991 0.26503 0.0
C1216 C 0.85856 0.82671 0.25793 0.0
C1217 C 0.94595 0.87776 0.26184 0.0
C1218 C 0.95405 0.84291 0.25127 0.0
H1219 H 0.89539 0.89867 0.27266 0.0
H1220 H 0.97597 0.91213 0.267 0.0
S1221 S 0.85995 0.72284 0.23031 0.0
N1222 N 0.82951 0.74807 0.24034 0.0
N1223 N 0.91722 0.76248 0.23459 0.0
C1224 C 0.91366 0.79901 0.24458 0.0
C1225 C 0.86597 0.79094 0.24791 0.0
C1226 C 0.3155 0.10515 0.25246 0.0
C1227 C 0.27765 0.06031 0.25981 0.0
C1228 C 0.30799 0.14427 0.24843 0.0
C1229 C 0.26241 0.14005 0.25163 0.0
H1230 H 0.35082 0.10981 0.24927 0.0
H1231 H 0.3381 0.17808 0.24276 0.0
S1232 S 0.15057 0.02985 0.26906 0.0
N1233 N 0.19226 1.01424 0.26949 0.0
N1234 N 0.17861 0.08677 0.2612 0.0
C1235 C 0.22437 0.09542 0.25872 0.0
C1236 C 0.23188 0.0559 0.26298 0.0
C1237 C 0.99824 0.18329 0.22912 0.0
C1238 C 0.96879 0.15661 0.24814 0.0
C1239 C 1.03539 0.23087 0.23191 0.0
C1240 C 0.0448 0.25407 0.25378 0.0
H1241 H 0.99356 0.16696 0.21196 0.0
H1242 H 0.058 0.24924 0.21694 0.0
S1243 S 0.97991 0.20204 0.30929 0.0
N1244 N 0.95201 0.15863 0.2898 0.0
N1245 N 1.02321 0.24762 0.29485 0.0
C1246 C 1.01611 0.22856 0.27292 0.0
C1247 C 0.97788 0.17999 0.27016 0.0
C1248 C 0.80794 0.85262 0.76738 0.0
C1249 C 0.84164 0.84151 0.777 0.0
C1250 C 0.81488 0.89974 0.76895 0.0
C1251 C 0.85556 0.93712 0.78029 0.0
H1252 H 0.77591 0.82481 0.75892 0.0
H1253 H 0.78776 0.9067 0.76174 0.0
S1254 S 0.95713 0.92932 0.80641 0.0
N1255 N 0.91965 0.87469 0.79705 0.0
N1256 N 0.9314 0.96091 0.7995 0.0
C1257 C 0.89003 0.92689 0.78919 0.0
C1258 C 0.88339 0.87979 0.78769 0.0
C1259 C 0.25424 0.99156 0.7601 0.0
C1260 C 0.27098 0.03184 0.77481 0.0
C1261 C 0.20735 0.95229 0.7627 0.0
C1262 C 0.17606 0.95176 0.78032 0.0
H1263 H 0.27675 0.99115 0.74603 0.0
H1264 H 0.19532 0.92228 0.75069 0.0
S1265 S 0.20418 0.04853 0.82372 0.0
N1266 N 0.25367 0.0684 0.808 0.0
N1267 N 0.16601 0.99536 0.81271 0.0
C1268 C 0.19318 0.99155 0.79543 0.0
C1269 C 0.2405 0.03136 0.79271 0.0
C1270 C 0.1107 0.21246 0.78201 0.0
C1271 C 0.15778 0.24956 0.77813 0.0
C1272 C 0.07161 0.21968 0.77888 0.0
C1273 C 0.07764 0.26462 0.77199 0.0
H1274 H 0.10396 0.17732 0.78744 0.0
H1275 H 1.03625 0.18944 0.78234 0.0
S1276 S 0.19459 0.37453 0.76101 0.0
N1277 N 0.20913 0.33334 0.76768 0.0
N1278 N 0.13535 0.34748 0.76233 0.0
C1279 C 0.12482 0.30245 0.76844 0.0
C1280 C 0.16489 0.29475 0.77131 0.0
C1281 C 0.54333 0.15709 0.56944 0.0
C1282 C 0.52534 0.15597 0.59207 0.0
C1283 C 0.59097 0.16758 0.56603 0.0
C1284 C 0.62266 0.17732 0.58514 0.0
H1285 H 0.52101 0.15178 0.55419 0.0
H1286 H 0.60336 0.16943 0.54817 0.0
S1287 S 0.59146 0.17801 0.64801 0.0
N1288 N 0.54194 0.16588 0.63372 0.0
N1289 N 0.63071 0.18335 0.62776 0.0
C1290 C 0.60438 0.17558 0.60792 0.0
C1291 C 0.55599 0.16548 0.61125 0.0
C1292 C 0.90527 0.39488 0.59682 0.0
C1293 C 0.95063 0.39965 0.59217 0.0
C1294 C 0.89657 0.43297 0.5935 0.0
C1295 C 0.93281 0.47778 0.58543 0.0
H1296 H 0.87544 0.36092 0.60257 0.0
H1297 H 0.8606 0.42669 0.59662 0.0
S1298 S 0.05856 0.51022 0.57162 0.0
N1299 N 1.03262 0.45329 0.57951 0.0
N1300 N 1.01673 0.52562 0.57385 0.0
C1301 C 0.97876 0.48362 0.58123 0.0
C1302 C 0.98759 0.4445 0.58453 0.0
C1303 C 0.66681 0.50488 0.60374 0.0
C1304 C 0.63382 0.49351 0.58524 0.0
C1305 C 0.70379 0.55205 0.60759 0.0
C1306 C 0.70902 0.59016 0.59341 0.0
H1307 H 0.6653 0.47681 0.61482 0.0
H1308 H 0.72969 0.55845 0.62129 0.0
S1309 S 0.63285 0.58046 0.54252 0.0
N1310 N 0.60873 0.52503 0.55263 0.0
N1311 N 0.67895 0.61368 0.55986 0.0
C1312 C 0.676 0.57983 0.57512 0.0
C1313 C 0.63835 0.53155 0.57101 0.0
loop_
_geom_bond_atom_site_label_1
_geom_bond_atom_site_label_2
_geom_bond_distance
_geom_bond_site_symmetry_2
_ccdc_geom_bond_type
Gd0 C3 2.818 . S
Gd0 O20 2.377 . S
Gd0 O22 2.448 . S
Gd0 O23 2.506 . S
Gd0 O24 2.435 . S
Gd0 O25 2.717 1_545 S
Gd0 O27 2.395 1_545 S
Gd0 O31 2.327 . S
Gd1 C12 2.818 . S
Gd1 O21 2.395 1_565 S
Gd1 O25 2.327 . S
Gd1 O26 2.377 . S
Gd1 O28 2.448 . S
Gd1 O29 2.506 . S
Gd1 O30 2.435 . S
Gd1 O31 2.717 1_565 S
C2 O20 1.240 . S
C2 O21 1.240 . S
C3 Gd0 2.818 . S
C3 C4 1.510 . S
C3 O22 1.249 . S
C3 O23 1.252 . S
C4 C3 1.510 . S
C4 C5 1.404 . S
C4 C6 1.352 . S
C5 C4 1.404 . S
C5 C9 1.389 . S
C5 H32 0.930 . S
C6 C4 1.352 . S
C6 C8 1.374 . S
C6 H33 0.931 . S
C7 C8 1.359 . S
C7 C9 1.364 . S
C8 C6 1.374 . S
C8 C7 1.359 . S
C8 H34 0.931 . S
C9 C5 1.389 . S
C9 C7 1.364 . S
C9 H35 0.931 . S
C10 O24 1.256 . S
C10 O25 1.257 1_545 S
C11 O26 1.240 . S
C11 O27 1.240 . S
C12 Gd1 2.818 . S
C12 C13 1.510 . S
C12 O28 1.249 . S
C12 O29 1.252 . S
C13 C12 1.510 . S
C13 C14 1.404 . S
C13 C15 1.352 . S
C14 C13 1.404 . S
C14 C18 1.389 . S
C14 H36 0.930 . S
C15 C13 1.352 . S
C15 C17 1.374 . S
C15 H37 0.931 . S
C16 C17 1.359 . S
C16 C18 1.364 . S
C17 C15 1.374 . S
C17 C16 1.359 . S
C17 H38 0.931 . S
C18 C14 1.389 . S
C18 C16 1.364 . S
C18 H39 0.931 . S
C19 O30 1.256 1_545 S
C19 O31 1.257 . S
O20 Gd0 2.377 . S
O20 C2 1.240 . S
O21 Gd1 2.395 1_545 S
O21 C2 1.240 . S
O22 Gd0 2.448 . S
O22 C3 1.249 . S
O23 Gd0 2.506 . S
O23 C3 1.252 . S
O24 Gd0 2.435 . S
O24 C10 1.256 . S
O25 Gd0 2.717 1_565 S
O25 Gd1 2.327 . S
O25 C10 1.257 1_565 S
O26 Gd1 2.377 . S
O26 C11 1.240 . S
O27 Gd0 2.395 1_565 S
O27 C11 1.240 . S
O28 Gd1 2.448 . S
O28 C12 1.249 . S
O29 Gd1 2.506 . S
O29 C12 1.252 . S
O30 Gd1 2.435 . S
O30 C19 1.256 1_565 S
O31 Gd0 2.327 . S
O31 Gd1 2.717 1_545 S
O31 C19 1.257 . S
H32 C5 0.930 . S
H33 C6 0.931 . S
H34 C8 0.931 . S
H35 C9 0.931 . S
H36 C14 0.930 . S
H37 C15 0.931 . S
H38 C17 0.931 . S
H39 C18 0.931 . S
Gd40 C43 2.818 . S
Gd40 O60 2.377 . S
Gd40 O62 2.448 . S
Gd40 O63 2.506 . S
Gd40 O64 2.435 1_655 S
Gd40 O65 2.717 1_655 S
Gd40 O67 2.395 1_655 S
Gd40 O71 2.327 1_655 S
Gd41 C52 2.818 . S
Gd41 O61 2.395 1_455 S
Gd41 O65 2.327 . S
Gd41 O66 2.377 . S
Gd41 O68 2.448 . S
Gd41 O69 2.506 . S
Gd41 O70 2.435 . S
Gd41 O71 2.717 . S
C42 O60 1.240 . S
C42 O61 1.240 . S
C43 Gd40 2.818 . S
C43 C44 1.510 . S
C43 O62 1.249 . S
C43 O63 1.252 . S
C44 C43 1.510 . S
C44 C45 1.404 . S
C44 C46 1.352 . S
C45 C44 1.404 . S
C45 C49 1.389 . S
C45 H72 0.930 . S
C46 C44 1.352 . S
C46 C48 1.374 . S
C46 H73 0.931 . S
C47 C48 1.359 . S
C47 C49 1.364 . S
C48 C46 1.374 . S
C48 C47 1.359 . S
C48 H74 0.931 . S
C49 C45 1.389 . S
C49 C47 1.364 . S
C49 H75 0.931 . S
C50 O64 1.256 . S
C50 O65 1.257 . S
C51 O66 1.240 . S
C51 O67 1.240 . S
C52 Gd41 2.818 . S
C52 C53 1.510 . S
C52 O68 1.249 . S
C52 O69 1.252 . S
C53 C52 1.510 . S
C53 C54 1.404 . S
C53 C55 1.352 . S
C54 C53 1.404 . S
C54 C58 1.389 . S
C54 H76 0.930 . S
C55 C53 1.352 . S
C55 C57 1.374 . S
C55 H77 0.931 . S
C56 C57 1.359 . S
C56 C58 1.364 . S
C57 C55 1.374 . S
C57 C56 1.359 . S
C57 H78 0.931 . S
C58 C54 1.389 . S
C58 C56 1.364 . S
C58 H79 0.931 . S
C59 O70 1.256 . S
C59 O71 1.257 . S
O60 Gd40 2.377 . S
O60 C42 1.240 . S
O61 Gd41 2.395 1_655 S
O61 C42 1.240 . S
O62 Gd40 2.448 . S
O62 C43 1.249 . S
O63 Gd40 2.506 . S
O63 C43 1.252 . S
O64 Gd40 2.435 1_455 S
O64 C50 1.256 . S
O65 Gd40 2.717 1_455 S
O65 Gd41 2.327 . S
O65 C50 1.257 . S
O66 Gd41 2.377 . S
O66 C51 1.240 . S
O67 Gd40 2.395 1_455 S
O67 C51 1.240 . S
O68 Gd41 2.448 . S
O68 C52 1.249 . S
O69 Gd41 2.506 . S
O69 C52 1.252 . S
O70 Gd41 2.435 . S
O70 C59 1.256 . S
O71 Gd40 2.327 1_455 S
O71 Gd41 2.717 . S
O71 C59 1.257 . S
H72 C45 0.930 . S
H73 C46 0.931 . S
H74 C48 0.931 . S
H75 C49 0.931 . S
H76 C54 0.930 . S
H77 C55 0.931 . S
H78 C57 0.931 . S
H79 C58 0.931 . S
Gd80 C83 2.818 . S
Gd80 O100 2.377 . S
Gd80 O102 2.448 . S
Gd80 O103 2.506 . S
Gd80 O104 2.435 . S
Gd80 O105 2.717 . S
Gd80 O107 2.395 . S
Gd80 O111 2.327 . S
Gd81 C92 2.818 . S
Gd81 O101 2.395 . S
Gd81 O105 2.327 . S
Gd81 O106 2.377 . S
Gd81 O108 2.448 . S
Gd81 O109 2.506 . S
Gd81 O110 2.435 . S
Gd81 O111 2.717 . S
C82 O100 1.240 . S
C82 O101 1.240 . S
C83 Gd80 2.818 . S
C83 C84 1.510 . S
C83 O102 1.249 . S
C83 O103 1.252 . S
C84 C83 1.510 . S
C84 C85 1.404 . S
C84 C86 1.352 . S
C85 C84 1.404 . S
C85 C89 1.389 . S
C85 H112 0.930 . S
C86 C84 1.352 . S
C86 C88 1.374 . S
C86 H113 0.931 . S
C87 C88 1.359 . S
C87 C89 1.364 . S
C88 C86 1.374 . S
C88 C87 1.359 . S
C88 H114 0.931 . S
C89 C85 1.389 . S
C89 C87 1.364 . S
C89 H115 0.931 . S
C90 O104 1.256 . S
C90 O105 1.257 . S
C91 O106 1.240 . S
C91 O107 1.240 . S
C92 Gd81 2.818 . S
C92 C93 1.510 . S
C92 O108 1.249 . S
C92 O109 1.252 . S
C93 C92 1.510 . S
C93 C94 1.404 . S
C93 C95 1.352 . S
C94 C93 1.404 . S
C94 C98 1.389 . S
C94 H116 0.930 . S
C95 C93 1.352 . S
C95 C97 1.374 . S
C95 H117 0.931 . S
C96 C97 1.359 . S
C96 C98 1.364 . S
C97 C95 1.374 . S
C97 C96 1.359 . S
C97 H118 0.931 . S
C98 C94 1.389 . S
C98 C96 1.364 . S
C98 H119 0.931 . S
C99 O110 1.256 . S
C99 O111 1.257 . S
O100 Gd80 2.377 . S
O100 C82 1.240 . S
O101 Gd81 2.395 . S
O101 C82 1.240 . S
O102 Gd80 2.448 . S
O102 C83 1.249 . S
O103 Gd80 2.506 . S
O103 C83 1.252 . S
O104 Gd80 2.435 . S
O104 C90 1.256 . S
O105 Gd80 2.717 . S
O105 Gd81 2.327 . S
O105 C90 1.257 . S
O106 Gd81 2.377 . S
O106 C91 1.240 . S
O107 Gd80 2.395 . S
O107 C91 1.240 . S
O108 Gd81 2.448 . S
O108 C92 1.249 . S
O109 Gd81 2.506 . S
O109 C92 1.252 . S
O110 Gd81 2.435 . S
O110 C99 1.256 . S
O111 Gd80 2.327 . S
O111 Gd81 2.717 . S
O111 C99 1.257 . S
H112 C85 0.930 . S
H113 C86 0.931 . S
H114 C88 0.931 . S
H115 C89 0.931 . S
H116 C94 0.930 . S
H117 C95 0.931 . S
H118 C97 0.931 . S
H119 C98 0.931 . S
Gd120 C123 2.818 . S
Gd120 O140 2.377 . S
Gd120 O142 2.448 . S
Gd120 O143 2.506 . S
Gd120 O144 2.435 . S
Gd120 O145 2.717 1_455 S
Gd120 O147 2.395 1_455 S
Gd120 O151 2.327 . S
Gd121 C132 2.818 . S
Gd121 O141 2.395 1_655 S
Gd121 O145 2.327 . S
Gd121 O146 2.377 . S
Gd121 O148 2.448 . S
Gd121 O149 2.506 . S
Gd121 O150 2.435 . S
Gd121 O151 2.717 1_655 S
C122 O140 1.240 . S
C122 O141 1.240 . S
C123 Gd120 2.818 . S
C123 C124 1.510 . S
C123 O142 1.249 . S
C123 O143 1.252 . S
C124 C123 1.510 . S
C124 C125 1.404 . S
C124 C126 1.352 . S
C125 C124 1.404 . S
C125 C129 1.389 . S
C125 H152 0.930 . S
C126 C124 1.352 . S
C126 C128 1.374 . S
C126 H153 0.931 . S
C127 C128 1.359 . S
C127 C129 1.364 . S
C128 C126 1.374 . S
C128 C127 1.359 . S
C128 H154 0.931 . S
C129 C125 1.389 . S
C129 C127 1.364 . S
C129 H155 0.931 . S
C130 O144 1.256 . S
C130 O145 1.257 1_455 S
C131 O146 1.240 . S
C131 O147 1.240 . S
C132 Gd121 2.818 . S
C132 C133 1.510 . S
C132 O148 1.249 . S
C132 O149 1.252 . S
C133 C132 1.510 . S
C133 C134 1.404 . S
C133 C135 1.352 . S
C134 C133 1.404 . S
C134 C138 1.389 . S
C134 H156 0.930 . S
C135 C133 1.352 . S
C135 C137 1.374 . S
C135 H157 0.931 . S
C136 C137 1.359 . S
C136 C138 1.364 . S
C137 C135 1.374 . S
C137 C136 1.359 . S
C137 H158 0.931 . S
C138 C134 1.389 . S
C138 C136 1.364 . S
C138 H159 0.931 . S
C139 O150 1.256 1_455 S
C139 O151 1.257 . S
O140 Gd120 2.377 . S
O140 C122 1.240 . S
O141 Gd121 2.395 1_455 S
O141 C122 1.240 . S
O142 Gd120 2.448 . S
O142 C123 1.249 . S
O143 Gd120 2.506 . S
O143 C123 1.252 . S
O144 Gd120 2.435 . S
O144 C130 1.256 . S
O145 Gd120 2.717 1_655 S
O145 Gd121 2.327 . S
O145 C130 1.257 1_655 S
O146 Gd121 2.377 . S
O146 C131 1.240 . S
O147 Gd120 2.395 1_655 S
O147 C131 1.240 . S
O148 Gd121 2.448 . S
O148 C132 1.249 . S
O149 Gd121 2.506 . S
O149 C132 1.252 . S
O150 Gd121 2.435 . S
O150 C139 1.256 1_655 S
O151 Gd120 2.327 . S
O151 Gd121 2.717 1_455 S
O151 C139 1.257 . S
H152 C125 0.930 . S
H153 C126 0.931 . S
H154 C128 0.931 . S
H155 C129 0.931 . S
H156 C134 0.930 . S
H157 C135 0.931 . S
H158 C137 0.931 . S
H159 C138 0.931 . S
Gd160 C163 2.818 . S
Gd160 O180 2.377 . S
Gd160 O182 2.448 . S
Gd160 O183 2.506 . S
Gd160 O184 2.435 . S
Gd160 O185 2.717 . S
Gd160 O187 2.395 . S
Gd160 O191 2.327 . S
Gd161 C172 2.818 . S
Gd161 O181 2.395 . S
Gd161 O185 2.327 . S
Gd161 O186 2.377 . S
Gd161 O188 2.448 . S
Gd161 O189 2.506 . S
Gd161 O190 2.435 . S
Gd161 O191 2.717 . S
C162 O180 1.240 . S
C162 O181 1.240 . S
C163 Gd160 2.818 . S
C163 C164 1.510 . S
C163 O182 1.249 . S
C163 O183 1.252 . S
C164 C163 1.510 . S
C164 C165 1.404 . S
C164 C166 1.352 . S
C165 C164 1.404 . S
C165 C169 1.389 . S
C165 H192 0.930 . S
C166 C164 1.352 . S
C166 C168 1.374 . S
C166 H193 0.931 . S
C167 C168 1.359 . S
C167 C169 1.364 . S
C168 C166 1.374 . S
C168 C167 1.359 . S
C168 H194 0.931 . S
C169 C165 1.389 . S
C169 C167 1.364 . S
C169 H195 0.931 . S
C170 O184 1.256 . S
C170 O185 1.257 . S
C171 O186 1.240 . S
C171 O187 1.240 . S
C172 Gd161 2.818 . S
C172 C173 1.510 . S
C172 O188 1.249 . S
C172 O189 1.252 . S
C173 C172 1.510 . S
C173 C174 1.404 . S
C173 C175 1.352 . S
C174 C173 1.404 . S
C174 C178 1.389 . S
C174 H196 0.930 . S
C175 C173 1.352 . S
C175 C177 1.374 . S
C175 H197 0.931 . S
C176 C177 1.359 . S
C176 C178 1.364 . S
C177 C175 1.374 . S
C177 C176 1.359 . S
C177 H198 0.931 . S
C178 C174 1.389 . S
C178 C176 1.364 . S
C178 H199 0.931 . S
C179 O190 1.256 . S
C179 O191 1.257 . S
O180 Gd160 2.377 . S
O180 C162 1.240 . S
O181 Gd161 2.395 . S
O181 C162 1.240 . S
O182 Gd160 2.448 . S
O182 C163 1.249 . S
O183 Gd160 2.506 . S
O183 C163 1.252 . S
O184 Gd160 2.435 . S
O184 C170 1.256 . S
O185 Gd160 2.717 . S
O185 Gd161 2.327 . S
O185 C170 1.257 . S
O186 Gd161 2.377 . S
O186 C171 1.240 . S
O187 Gd160 2.395 . S
O187 C171 1.240 . S
O188 Gd161 2.448 . S
O188 C172 1.249 . S
O189 Gd161 2.506 . S
O189 C172 1.252 . S
O190 Gd161 2.435 . S
O190 C179 1.256 . S
O191 Gd160 2.327 . S
O191 Gd161 2.717 . S
O191 C179 1.257 . S
H192 C165 0.930 . S
H193 C166 0.931 . S
H194 C168 0.931 . S
H195 C169 0.931 . S
H196 C174 0.930 . S
H197 C175 0.931 . S
H198 C177 0.931 . S
H199 C178 0.931 . S
Gd200 C203 2.818 . S
Gd200 O220 2.377 . S
Gd200 O222 2.448 . S
Gd200 O223 2.506 . S
Gd200 O224 2.435 1_565 S
Gd200 O225 2.717 1_565 S
Gd200 O227 2.395 1_565 S
Gd200 O231 2.327 1_565 S
Gd201 C212 2.818 . S
Gd201 O221 2.395 1_545 S
Gd201 O225 2.327 . S
Gd201 O226 2.377 . S
Gd201 O228 2.448 . S
Gd201 O229 2.506 . S
Gd201 O230 2.435 . S
Gd201 O231 2.717 . S
C202 O220 1.240 . S
C202 O221 1.240 . S
C203 Gd200 2.818 . S
C203 C204 1.510 . S
C203 O222 1.249 . S
C203 O223 1.252 . S
C204 C203 1.510 . S
C204 C205 1.404 . S
C204 C206 1.352 . S
C205 C204 1.404 . S
C205 C209 1.389 . S
C205 H232 0.930 . S
C206 C204 1.352 . S
C206 C208 1.374 . S
C206 H233 0.931 . S
C207 C208 1.359 . S
C207 C209 1.364 . S
C208 C206 1.374 . S
C208 C207 1.359 . S
C208 H234 0.931 . S
C209 C205 1.389 . S
C209 C207 1.364 . S
C209 H235 0.931 . S
C210 O224 1.256 . S
C210 O225 1.257 . S
C211 O226 1.240 . S
C211 O227 1.240 . S
C212 Gd201 2.818 . S
C212 C213 1.510 . S
C212 O228 1.249 . S
C212 O229 1.252 . S
C213 C212 1.510 . S
C213 C214 1.404 . S
C213 C215 1.352 . S
C214 C213 1.404 . S
C214 C218 1.389 . S
C214 H236 0.930 . S
C215 C213 1.352 . S
C215 C217 1.374 . S
C215 H237 0.931 . S
C216 C217 1.359 . S
C216 C218 1.364 . S
C217 C215 1.374 . S
C217 C216 1.359 . S
C217 H238 0.931 . S
C218 C214 1.389 . S
C218 C216 1.364 . S
C218 H239 0.931 . S
C219 O230 1.256 . S
C219 O231 1.257 . S
O220 Gd200 2.377 . S
O220 C202 1.240 . S
O221 Gd201 2.395 1_565 S
O221 C202 1.240 . S
O222 Gd200 2.448 . S
O222 C203 1.249 . S
O223 Gd200 2.506 . S
O223 C203 1.252 . S
O224 Gd200 2.435 1_545 S
O224 C210 1.256 . S
O225 Gd200 2.717 1_545 S
O225 Gd201 2.327 . S
O225 C210 1.257 . S
O226 Gd201 2.377 . S
O226 C211 1.240 . S
O227 Gd200 2.395 1_545 S
O227 C211 1.240 . S
O228 Gd201 2.448 . S
O228 C212 1.249 . S
O229 Gd201 2.506 . S
O229 C212 1.252 . S
O230 Gd201 2.435 . S
O230 C219 1.256 . S
O231 Gd200 2.327 1_545 S
O231 Gd201 2.717 . S
O231 C219 1.257 . S
H232 C205 0.930 . S
H233 C206 0.931 . S
H234 C208 0.931 . S
H235 C209 0.931 . S
H236 C214 0.930 . S
H237 C215 0.931 . S
H238 C217 0.931 . S
H239 C218 0.931 . S
Gd240 C243 2.818 . S
Gd240 O260 2.377 . S
Gd240 O262 2.448 . S
Gd240 O263 2.506 . S
Gd240 O264 2.435 . S
Gd240 O265 2.717 . S
Gd240 O267 2.395 . S
Gd240 O271 2.327 . S
Gd241 C252 2.818 . S
Gd241 O261 2.395 . S
Gd241 O265 2.327 . S
Gd241 O266 2.377 . S
Gd241 O268 2.448 . S
Gd241 O269 2.506 . S
Gd241 O270 2.435 . S
Gd241 O271 2.717 . S
C242 O260 1.240 . S
C242 O261 1.240 . S
C243 Gd240 2.818 . S
C243 C244 1.510 . S
C243 O262 1.249 . S
C243 O263 1.252 . S
C244 C243 1.510 . S
C244 C245 1.404 . S
C244 C246 1.352 . S
C245 C244 1.404 . S
C245 C249 1.389 . S
C245 H272 0.930 . S
C246 C244 1.352 . S
C246 C248 1.374 . S
C246 H273 0.931 . S
C247 C248 1.359 . S
C247 C249 1.364 . S
C248 C246 1.374 . S
C248 C247 1.359 . S
C248 H274 0.931 . S
C249 C245 1.389 . S
C249 C247 1.364 . S
C249 H275 0.931 . S
C250 O264 1.256 . S
C250 O265 1.257 . S
C251 O266 1.240 . S
C251 O267 1.240 . S
C252 Gd241 2.818 . S
C252 C253 1.510 1_455 S
C252 O268 1.249 . S
C252 O269 1.252 . S
C253 C252 1.510 1_655 S
C253 C254 1.404 . S
C253 C255 1.352 . S
C254 C253 1.404 . S
C254 C258 1.389 . S
C254 H276 0.930 . S
C255 C253 1.352 . S
C255 C257 1.374 . S
C255 H277 0.931 . S
C256 C257 1.359 . S
C256 C258 1.364 . S
C257 C255 1.374 . S
C257 C256 1.359 . S
C257 H278 0.931 . S
C258 C254 1.389 . S
C258 C256 1.364 . S
C258 H279 0.931 . S
C259 O270 1.256 . S
C259 O271 1.257 . S
O260 Gd240 2.377 . S
O260 C242 1.240 . S
O261 Gd241 2.395 . S
O261 C242 1.240 . S
O262 Gd240 2.448 . S
O262 C243 1.249 . S
O263 Gd240 2.506 . S
O263 C243 1.252 . S
O264 Gd240 2.435 . S
O264 C250 1.256 . S
O265 Gd240 2.717 . S
O265 Gd241 2.327 . S
O265 C250 1.257 . S
O266 Gd241 2.377 . S
O266 C251 1.240 . S
O267 Gd240 2.395 . S
O267 C251 1.240 . S
O268 Gd241 2.448 . S
O268 C252 1.249 . S
O269 Gd241 2.506 . S
O269 C252 1.252 . S
O270 Gd241 2.435 . S
O270 C259 1.256 . S
O271 Gd240 2.327 . S
O271 Gd241 2.717 . S
O271 C259 1.257 . S
H272 C245 0.930 . S
H273 C246 0.931 . S
H274 C248 0.931 . S
H275 C249 0.931 . S
H276 C254 0.930 . S
H277 C255 0.931 . S
H278 C257 0.931 . S
H279 C258 0.931 . S
Gd280 C283 2.818 . S
Gd280 O300 2.377 . S
Gd280 O302 2.448 . S
Gd280 O303 2.506 . S
Gd280 O304 2.435 . S
Gd280 O305 2.717 . S
Gd280 O307 2.395 . S
Gd280 O311 2.327 . S
Gd281 C292 2.818 . S
Gd281 O301 2.395 . S
Gd281 O305 2.327 . S
Gd281 O306 2.377 . S
Gd281 O308 2.448 . S
Gd281 O309 2.506 . S
Gd281 O310 2.435 . S
Gd281 O311 2.717 . S
C282 O300 1.240 . S
C282 O301 1.240 . S
C283 Gd280 2.818 . S
C283 C284 1.510 . S
C283 O302 1.249 . S
C283 O303 1.252 . S
C284 C283 1.510 . S
C284 C285 1.404 . S
C284 C286 1.352 . S
C285 C284 1.404 . S
C285 C289 1.389 . S
C285 H312 0.930 . S
C286 C284 1.352 . S
C286 C288 1.374 . S
C286 H313 0.931 . S
C287 C288 1.359 . S
C287 C289 1.364 . S
C288 C286 1.374 . S
C288 C287 1.359 . S
C288 H314 0.931 . S
C289 C285 1.389 . S
C289 C287 1.364 . S
C289 H315 0.931 . S
C290 O304 1.256 . S
C290 O305 1.257 . S
C291 O306 1.240 . S
C291 O307 1.240 . S
C292 Gd281 2.818 . S
C292 C293 1.510 . S
C292 O308 1.249 . S
C292 O309 1.252 . S
C293 C292 1.510 . S
C293 C294 1.404 . S
C293 C295 1.352 . S
C294 C293 1.404 . S
C294 C298 1.389 . S
C294 H316 0.930 . S
C295 C293 1.352 . S
C295 C297 1.374 . S
C295 H317 0.931 . S
C296 C297 1.359 . S
C296 C298 1.364 . S
C297 C295 1.374 . S
C297 C296 1.359 . S
C297 H318 0.931 . S
C298 C294 1.389 . S
C298 C296 1.364 . S
C298 H319 0.931 . S
C299 O310 1.256 . S
C299 O311 1.257 . S
O300 Gd280 2.377 . S
O300 C282 1.240 . S
O301 Gd281 2.395 . S
O301 C282 1.240 . S
O302 Gd280 2.448 . S
O302 C283 1.249 . S
O303 Gd280 2.506 . S
O303 C283 1.252 . S
O304 Gd280 2.435 . S
O304 C290 1.256 . S
O305 Gd280 2.717 . S
O305 Gd281 2.327 . S
O305 C290 1.257 . S
O306 Gd281 2.377 . S
O306 C291 1.240 . S
O307 Gd280 2.395 . S
O307 C291 1.240 . S
O308 Gd281 2.448 . S
O308 C292 1.249 . S
O309 Gd281 2.506 . S
O309 C292 1.252 . S
O310 Gd281 2.435 . S
O310 C299 1.256 . S
O311 Gd280 2.327 . S
O311 Gd281 2.717 . S
O311 C299 1.257 . S
H312 C285 0.930 . S
H313 C286 0.931 . S
H314 C288 0.931 . S
H315 C289 0.931 . S
H316 C294 0.930 . S
H317 C295 0.931 . S
H318 C297 0.931 . S
H319 C298 0.931 . S
Gd320 C323 2.818 . S
Gd320 O340 2.377 . S
Gd320 O342 2.448 . S
Gd320 O343 2.506 . S
Gd320 O344 2.435 . S
Gd320 O345 2.717 . S
Gd320 O347 2.395 . S
Gd320 O351 2.327 . S
Gd321 C332 2.818 1_565 S
Gd321 O341 2.395 . S
Gd321 O345 2.327 . S
Gd321 O346 2.377 . S
Gd321 O348 2.448 1_565 S
Gd321 O349 2.506 1_565 S
Gd321 O350 2.435 . S
Gd321 O351 2.717 . S
C322 O340 1.240 . S
C322 O341 1.240 . S
C323 Gd320 2.818 . S
C323 C324 1.510 . S
C323 O342 1.249 . S
C323 O343 1.252 . S
C324 C323 1.510 . S
C324 C325 1.404 . S
C324 C326 1.352 . S
C325 C324 1.404 . S
C325 C329 1.389 . S
C325 H352 0.930 . S
C326 C324 1.352 . S
C326 C328 1.374 . S
C326 H353 0.931 . S
C327 C328 1.359 . S
C327 C329 1.364 . S
C328 C326 1.374 . S
C328 C327 1.359 . S
C328 H354 0.931 . S
C329 C325 1.389 . S
C329 C327 1.364 . S
C329 H355 0.931 . S
C330 O344 1.256 . S
C330 O345 1.257 . S
C331 O346 1.240 . S
C331 O347 1.240 . S
C332 Gd321 2.818 1_545 S
C332 C333 1.510 . S
C332 O348 1.249 . S
C332 O349 1.252 . S
C333 C332 1.510 . S
C333 C334 1.404 . S
C333 C335 1.352 . S
C334 C333 1.404 . S
C334 C338 1.389 . S
C334 H356 0.930 . S
C335 C333 1.352 . S
C335 C337 1.374 . S
C335 H357 0.931 . S
C336 C337 1.359 . S
C336 C338 1.364 . S
C337 C335 1.374 . S
C337 C336 1.359 . S
C337 H358 0.931 . S
C338 C334 1.389 . S
C338 C336 1.364 . S
C338 H359 0.931 . S
C339 O350 1.256 . S
C339 O351 1.257 . S
O340 Gd320 2.377 . S
O340 C322 1.240 . S
O341 Gd321 2.395 . S
O341 C322 1.240 . S
O342 Gd320 2.448 . S
O342 C323 1.249 . S
O343 Gd320 2.506 . S
O343 C323 1.252 . S
O344 Gd320 2.435 . S
O344 C330 1.256 . S
O345 Gd320 2.717 . S
O345 Gd321 2.327 . S
O345 C330 1.257 . S
O346 Gd321 2.377 . S
O346 C331 1.240 . S
O347 Gd320 2.395 . S
O347 C331 1.240 . S
O348 Gd321 2.448 1_545 S
O348 C332 1.249 . S
O349 Gd321 2.506 1_545 S
O349 C332 1.252 . S
O350 Gd321 2.435 . S
O350 C339 1.256 . S
O351 Gd320 2.327 . S
O351 Gd321 2.717 . S
O351 C339 1.257 . S
H352 C325 0.930 . S
H353 C326 0.931 . S
H354 C328 0.931 . S
H355 C329 0.931 . S
H356 C334 0.930 . S
H357 C335 0.931 . S
H358 C337 0.931 . S
H359 C338 0.931 . S
Gd360 C363 2.818 . S
Gd360 O380 2.377 . S
Gd360 O382 2.448 . S
Gd360 O383 2.506 . S
Gd360 O384 2.435 . S
Gd360 O385 2.717 . S
Gd360 O387 2.395 . S
Gd360 O391 2.327 . S
Gd361 C372 2.818 . S
Gd361 O381 2.395 . S
Gd361 O385 2.327 . S
Gd361 O386 2.377 . S
Gd361 O388 2.448 . S
Gd361 O389 2.506 . S
Gd361 O390 2.435 . S
Gd361 O391 2.717 . S
C362 O380 1.240 . S
C362 O381 1.240 . S
C363 Gd360 2.818 . S
C363 C364 1.510 . S
C363 O382 1.249 . S
C363 O383 1.252 . S
C364 C363 1.510 . S
C364 C365 1.404 1_565 S
C364 C366 1.352 1_565 S
C365 C364 1.404 1_545 S
C365 C369 1.389 . S
C365 H392 0.930 . S
C366 C364 1.352 1_545 S
C366 C368 1.374 . S
C366 H393 0.931 1_545 S
C367 C368 1.359 . S
C367 C369 1.364 . S
C368 C366 1.374 . S
C368 C367 1.359 . S
C368 H394 0.931 . S
C369 C365 1.389 . S
C369 C367 1.364 . S
C369 H395 0.931 . S
C370 O384 1.256 . S
C370 O385 1.257 . S
C371 O386 1.240 . S
C371 O387 1.240 . S
C372 Gd361 2.818 . S
C372 C373 1.510 . S
C372 O388 1.249 . S
C372 O389 1.252 . S
C373 C372 1.510 . S
C373 C374 1.404 . S
C373 C375 1.352 . S
C374 C373 1.404 . S
C374 C378 1.389 . S
C374 H396 0.930 . S
C375 C373 1.352 . S
C375 C377 1.374 . S
C375 H397 0.931 . S
C376 C377 1.359 . S
C376 C378 1.364 . S
C377 C375 1.374 . S
C377 C376 1.359 . S
C377 H398 0.931 . S
C378 C374 1.389 . S
C378 C376 1.364 . S
C378 H399 0.931 . S
C379 O390 1.256 . S
C379 O391 1.257 . S
O380 Gd360 2.377 . S
O380 C362 1.240 . S
O381 Gd361 2.395 . S
O381 C362 1.240 . S
O382 Gd360 2.448 . S
O382 C363 1.249 . S
O383 Gd360 2.506 . S
O383 C363 1.252 . S
O384 Gd360 2.435 . S
O384 C370 1.256 . S
O385 Gd360 2.717 . S
O385 Gd361 2.327 . S
O385 C370 1.257 . S
O386 Gd361 2.377 . S
O386 C371 1.240 . S
O387 Gd360 2.395 . S
O387 C371 1.240 . S
O388 Gd361 2.448 . S
O388 C372 1.249 . S
O389 Gd361 2.506 . S
O389 C372 1.252 . S
O390 Gd361 2.435 . S
O390 C379 1.256 . S
O391 Gd360 2.327 . S
O391 Gd361 2.717 . S
O391 C379 1.257 . S
H392 C365 0.930 . S
H393 C366 0.931 1_565 S
H394 C368 0.931 . S
H395 C369 0.931 . S
H396 C374 0.930 . S
H397 C375 0.931 . S
H398 C377 0.931 . S
H399 C378 0.931 . S
Gd400 C403 2.818 . S
Gd400 O420 2.377 . S
Gd400 O422 2.448 . S
Gd400 O423 2.506 . S
Gd400 O424 2.435 . S
Gd400 O425 2.717 . S
Gd400 O427 2.395 . S
Gd400 O431 2.327 . S
Gd401 C412 2.818 . S
Gd401 O421 2.395 . S
Gd401 O425 2.327 . S
Gd401 O426 2.377 . S
Gd401 O428 2.448 . S
Gd401 O429 2.506 . S
Gd401 O430 2.435 . S
Gd401 O431 2.717 . S
C402 O420 1.240 . S
C402 O421 1.240 . S
C403 Gd400 2.818 . S
C403 C404 1.510 . S
C403 O422 1.249 . S
C403 O423 1.252 . S
C404 C403 1.510 . S
C404 C405 1.404 . S
C404 C406 1.352 . S
C405 C404 1.404 . S
C405 C409 1.389 1_455 S
C405 H432 0.930 . S
C406 C404 1.352 . S
C406 C408 1.374 1_455 S
C406 H433 0.931 . S
C407 C408 1.359 . S
C407 C409 1.364 . S
C408 C406 1.374 1_655 S
C408 C407 1.359 . S
C408 H434 0.931 . S
C409 C405 1.389 1_655 S
C409 C407 1.364 . S
C409 H435 0.931 . S
C410 O424 1.256 . S
C410 O425 1.257 . S
C411 O426 1.240 . S
C411 O427 1.240 . S
C412 Gd401 2.818 . S
C412 C413 1.510 . S
C412 O428 1.249 . S
C412 O429 1.252 . S
C413 C412 1.510 . S
C413 C414 1.404 . S
C413 C415 1.352 . S
C414 C413 1.404 . S
C414 C418 1.389 . S
C414 H436 0.930 . S
C415 C413 1.352 . S
C415 C417 1.374 . S
C415 H437 0.931 . S
C416 C417 1.359 . S
C416 C418 1.364 . S
C417 C415 1.374 . S
C417 C416 1.359 . S
C417 H438 0.931 . S
C418 C414 1.389 . S
C418 C416 1.364 . S
C418 H439 0.931 . S
C419 O430 1.256 . S
C419 O431 1.257 . S
O420 Gd400 2.377 . S
O420 C402 1.240 . S
O421 Gd401 2.395 . S
O421 C402 1.240 . S
O422 Gd400 2.448 . S
O422 C403 1.249 . S
O423 Gd400 2.506 . S
O423 C403 1.252 . S
O424 Gd400 2.435 . S
O424 C410 1.256 . S
O425 Gd400 2.717 . S
O425 Gd401 2.327 . S
O425 C410 1.257 . S
O426 Gd401 2.377 . S
O426 C411 1.240 . S
O427 Gd400 2.395 . S
O427 C411 1.240 . S
O428 Gd401 2.448 . S
O428 C412 1.249 . S
O429 Gd401 2.506 . S
O429 C412 1.252 . S
O430 Gd401 2.435 . S
O430 C419 1.256 . S
O431 Gd400 2.327 . S
O431 Gd401 2.717 . S
O431 C419 1.257 . S
H432 C405 0.930 . S
H433 C406 0.931 . S
H434 C408 0.931 . S
H435 C409 0.931 . S
H436 C414 0.930 . S
H437 C415 0.931 . S
H438 C417 0.931 . S
H439 C418 0.931 . S
Gd440 C443 2.818 . S
Gd440 O460 2.377 . S
Gd440 O462 2.448 . S
Gd440 O463 2.506 . S
Gd440 O464 2.435 . S
Gd440 O465 2.717 . S
Gd440 O467 2.395 . S
Gd440 O471 2.327 . S
Gd441 C452 2.818 . S
Gd441 O461 2.395 . S
Gd441 O465 2.327 . S
Gd441 O466 2.377 . S
Gd441 O468 2.448 . S
Gd441 O469 2.506 . S
Gd441 O470 2.435 . S
Gd441 O471 2.717 . S
C442 O460 1.240 . S
C442 O461 1.240 . S
C443 Gd440 2.818 . S
C443 C444 1.510 . S
C443 O462 1.249 . S
C443 O463 1.252 . S
C444 C443 1.510 . S
C444 C445 1.404 . S
C444 C446 1.352 . S
C445 C444 1.404 . S
C445 C449 1.389 . S
C445 H472 0.930 . S
C446 C444 1.352 . S
C446 C448 1.374 . S
C446 H473 0.931 . S
C447 C448 1.359 . S
C447 C449 1.364 . S
C448 C446 1.374 . S
C448 C447 1.359 . S
C448 H474 0.931 . S
C449 C445 1.389 . S
C449 C447 1.364 . S
C449 H475 0.931 . S
C450 O464 1.256 . S
C450 O465 1.257 . S
C451 O466 1.240 . S
C451 O467 1.240 . S
C452 Gd441 2.818 . S
C452 C453 1.510 . S
C452 O468 1.249 . S
C452 O469 1.252 . S
C453 C452 1.510 . S
C453 C454 1.404 . S
C453 C455 1.352 . S
C454 C453 1.404 . S
C454 C458 1.389 . S
C454 H476 0.930 . S
C455 C453 1.352 . S
C455 C457 1.374 . S
C455 H477 0.931 . S
C456 C457 1.359 . S
C456 C458 1.364 . S
C457 C455 1.374 . S
C457 C456 1.359 . S
C457 H478 0.931 . S
C458 C454 1.389 . S
C458 C456 1.364 . S
C458 H479 0.931 . S
C459 O470 1.256 . S
C459 O471 1.257 . S
O460 Gd440 2.377 . S
O460 C442 1.240 . S
O461 Gd441 2.395 . S
O461 C442 1.240 . S
O462 Gd440 2.448 . S
O462 C443 1.249 . S
O463 Gd440 2.506 . S
O463 C443 1.252 . S
O464 Gd440 2.435 . S
O464 C450 1.256 . S
O465 Gd440 2.717 . S
O465 Gd441 2.327 . S
O465 C450 1.257 . S
O466 Gd441 2.377 . S
O466 C451 1.240 . S
O467 Gd440 2.395 . S
O467 C451 1.240 . S
O468 Gd441 2.448 . S
O468 C452 1.249 . S
O469 Gd441 2.506 . S
O469 C452 1.252 . S
O470 Gd441 2.435 . S
O470 C459 1.256 . S
O471 Gd440 2.327 . S
O471 Gd441 2.717 . S
O471 C459 1.257 . S
H472 C445 0.930 . S
H473 C446 0.931 . S
H474 C448 0.931 . S
H475 C449 0.931 . S
H476 C454 0.930 . S
H477 C455 0.931 . S
H478 C457 0.931 . S
H479 C458 0.931 . S
Gd480 C483 2.818 . S
Gd480 O500 2.377 . S
Gd480 O502 2.448 . S
Gd480 O503 2.506 . S
Gd480 O504 2.435 . S
Gd480 O505 2.717 . S
Gd480 O507 2.395 . S
Gd480 O511 2.327 . S
Gd481 C492 2.818 . S
Gd481 O501 2.395 . S
Gd481 O505 2.327 . S
Gd481 O506 2.377 . S
Gd481 O508 2.448 . S
Gd481 O509 2.506 . S
Gd481 O510 2.435 . S
Gd481 O511 2.717 . S
C482 O500 1.240 . S
C482 O501 1.240 . S
C483 Gd480 2.818 . S
C483 C484 1.510 . S
C483 O502 1.249 . S
C483 O503 1.252 . S
C484 C483 1.510 . S
C484 C485 1.404 1_655 S
C484 C486 1.352 1_655 S
C485 C484 1.404 1_455 S
C485 C489 1.389 . S
C485 H512 0.930 . S
C486 C484 1.352 1_455 S
C486 C488 1.374 . S
C486 H513 0.931 1_455 S
C487 C488 1.359 . S
C487 C489 1.364 . S
C488 C486 1.374 . S
C488 C487 1.359 . S
C488 H514 0.931 . S
C489 C485 1.389 . S
C489 C487 1.364 . S
C489 H515 0.931 . S
C490 O504 1.256 . S
C490 O505 1.257 . S
C491 O506 1.240 . S
C491 O507 1.240 . S
C492 Gd481 2.818 . S
C492 C493 1.510 . S
C492 O508 1.249 . S
C492 O509 1.252 . S
C493 C492 1.510 . S
C493 C494 1.404 . S
C493 C495 1.352 . S
C494 C493 1.404 . S
C494 C498 1.389 . S
C494 H516 0.930 . S
C495 C493 1.352 . S
C495 C497 1.374 . S
C495 H517 0.931 . S
C496 C497 1.359 . S
C496 C498 1.364 . S
C497 C495 1.374 . S
C497 C496 1.359 . S
C497 H518 0.931 . S
C498 C494 1.389 . S
C498 C496 1.364 . S
C498 H519 0.931 . S
C499 O510 1.256 . S
C499 O511 1.257 . S
O500 Gd480 2.377 . S
O500 C482 1.240 . S
O501 Gd481 2.395 . S
O501 C482 1.240 . S
O502 Gd480 2.448 . S
O502 C483 1.249 . S
O503 Gd480 2.506 . S
O503 C483 1.252 . S
O504 Gd480 2.435 . S
O504 C490 1.256 . S
O505 Gd480 2.717 . S
O505 Gd481 2.327 . S
O505 C490 1.257 . S
O506 Gd481 2.377 . S
O506 C491 1.240 . S
O507 Gd480 2.395 . S
O507 C491 1.240 . S
O508 Gd481 2.448 . S
O508 C492 1.249 . S
O509 Gd481 2.506 . S
O509 C492 1.252 . S
O510 Gd481 2.435 . S
O510 C499 1.256 . S
O511 Gd480 2.327 . S
O511 Gd481 2.717 . S
O511 C499 1.257 . S
H512 C485 0.930 . S
H513 C486 0.931 1_655 S
H514 C488 0.931 . S
H515 C489 0.931 . S
H516 C494 0.930 . S
H517 C495 0.931 . S
H518 C497 0.931 . S
H519 C498 0.931 . S
Gd520 C523 2.818 . S
Gd520 O540 2.377 . S
Gd520 O542 2.448 . S
Gd520 O543 2.506 . S
Gd520 O544 2.435 . S
Gd520 O545 2.717 . S
Gd520 O547 2.395 . S
Gd520 O551 2.327 . S
Gd521 C532 2.818 . S
Gd521 O541 2.395 . S
Gd521 O545 2.327 . S
Gd521 O546 2.377 . S
Gd521 O548 2.448 . S
Gd521 O549 2.506 . S
Gd521 O550 2.435 . S
Gd521 O551 2.717 . S
C522 O540 1.240 . S
C522 O541 1.240 . S
C523 Gd520 2.818 . S
C523 C524 1.510 . S
C523 O542 1.249 . S
C523 O543 1.252 . S
C524 C523 1.510 . S
C524 C525 1.404 . S
C524 C526 1.352 . S
C525 C524 1.404 . S
C525 C529 1.389 . S
C525 H552 0.930 . S
C526 C524 1.352 . S
C526 C528 1.374 . S
C526 H553 0.931 . S
C527 C528 1.359 . S
C527 C529 1.364 . S
C528 C526 1.374 . S
C528 C527 1.359 . S
C528 H554 0.931 . S
C529 C525 1.389 . S
C529 C527 1.364 . S
C529 H555 0.931 . S
C530 O544 1.256 . S
C530 O545 1.257 . S
C531 O546 1.240 . S
C531 O547 1.240 . S
C532 Gd521 2.818 . S
C532 C533 1.510 . S
C532 O548 1.249 . S
C532 O549 1.252 . S
C533 C532 1.510 . S
C533 C534 1.404 . S
C533 C535 1.352 . S
C534 C533 1.404 . S
C534 C538 1.389 . S
C534 H556 0.930 . S
C535 C533 1.352 . S
C535 C537 1.374 . S
C535 H557 0.931 . S
C536 C537 1.359 . S
C536 C538 1.364 . S
C537 C535 1.374 . S
C537 C536 1.359 . S
C537 H558 0.931 . S
C538 C534 1.389 . S
C538 C536 1.364 . S
C538 H559 0.931 . S
C539 O550 1.256 . S
C539 O551 1.257 . S
O540 Gd520 2.377 . S
O540 C522 1.240 . S
O541 Gd521 2.395 . S
O541 C522 1.240 . S
O542 Gd520 2.448 . S
O542 C523 1.249 . S
O543 Gd520 2.506 . S
O543 C523 1.252 . S
O544 Gd520 2.435 . S
O544 C530 1.256 . S
O545 Gd520 2.717 . S
O545 Gd521 2.327 . S
O545 C530 1.257 . S
O546 Gd521 2.377 . S
O546 C531 1.240 . S
O547 Gd520 2.395 . S
O547 C531 1.240 . S
O548 Gd521 2.448 . S
O548 C532 1.249 . S
O549 Gd521 2.506 . S
O549 C532 1.252 . S
O550 Gd521 2.435 . S
O550 C539 1.256 . S
O551 Gd520 2.327 . S
O551 Gd521 2.717 . S
O551 C539 1.257 . S
H552 C525 0.930 . S
H553 C526 0.931 . S
H554 C528 0.931 . S
H555 C529 0.931 . S
H556 C534 0.930 . S
H557 C535 0.931 . S
H558 C537 0.931 . S
H559 C538 0.931 . S
Gd560 C563 2.818 . S
Gd560 O580 2.377 . S
Gd560 O582 2.448 . S
Gd560 O583 2.506 . S
Gd560 O584 2.435 . S
Gd560 O585 2.717 . S
Gd560 O587 2.395 . S
Gd560 O591 2.327 . S
Gd561 C572 2.818 . S
Gd561 O581 2.395 . S
Gd561 O585 2.327 . S
Gd561 O586 2.377 . S
Gd561 O588 2.448 . S
Gd561 O589 2.506 . S
Gd561 O590 2.435 . S
Gd561 O591 2.717 . S
C562 O580 1.240 . S
C562 O581 1.240 . S
C563 Gd560 2.818 . S
C563 C564 1.510 . S
C563 O582 1.249 . S
C563 O583 1.252 . S
C564 C563 1.510 . S
C564 C565 1.404 . S
C564 C566 1.352 . S
C565 C564 1.404 . S
C565 C569 1.389 1_545 S
C565 H592 0.930 . S
C566 C564 1.352 . S
C566 C568 1.374 1_545 S
C566 H593 0.931 . S
C567 C568 1.359 . S
C567 C569 1.364 . S
C568 C566 1.374 1_565 S
C568 C567 1.359 . S
C568 H594 0.931 . S
C569 C565 1.389 1_565 S
C569 C567 1.364 . S
C569 H595 0.931 . S
C570 O584 1.256 . S
C570 O585 1.257 . S
C571 O586 1.240 . S
C571 O587 1.240 . S
C572 Gd561 2.818 . S
C572 C573 1.510 . S
C572 O588 1.249 . S
C572 O589 1.252 . S
C573 C572 1.510 . S
C573 C574 1.404 . S
C573 C575 1.352 . S
C574 C573 1.404 . S
C574 C578 1.389 . S
C574 H596 0.930 . S
C575 C573 1.352 . S
C575 C577 1.374 . S
C575 H597 0.931 . S
C576 C577 1.359 . S
C576 C578 1.364 . S
C577 C575 1.374 . S
C577 C576 1.359 . S
C577 H598 0.931 . S
C578 C574 1.389 . S
C578 C576 1.364 . S
C578 H599 0.931 . S
C579 O590 1.256 . S
C579 O591 1.257 . S
O580 Gd560 2.377 . S
O580 C562 1.240 . S
O581 Gd561 2.395 . S
O581 C562 1.240 . S
O582 Gd560 2.448 . S
O582 C563 1.249 . S
O583 Gd560 2.506 . S
O583 C563 1.252 . S
O584 Gd560 2.435 . S
O584 C570 1.256 . S
O585 Gd560 2.717 . S
O585 Gd561 2.327 . S
O585 C570 1.257 . S
O586 Gd561 2.377 . S
O586 C571 1.240 . S
O587 Gd560 2.395 . S
O587 C571 1.240 . S
O588 Gd561 2.448 . S
O588 C572 1.249 . S
O589 Gd561 2.506 . S
O589 C572 1.252 . S
O590 Gd561 2.435 . S
O590 C579 1.256 . S
O591 Gd560 2.327 . S
O591 Gd561 2.717 . S
O591 C579 1.257 . S
H592 C565 0.930 . S
H593 C566 0.931 . S
H594 C568 0.931 . S
H595 C569 0.931 . S
H596 C574 0.930 . S
H597 C575 0.931 . S
H598 C577 0.931 . S
H599 C578 0.931 . S
Gd600 C603 2.818 . S
Gd600 O620 2.377 . S
Gd600 O622 2.448 . S
Gd600 O623 2.506 . S
Gd600 O624 2.435 . S
Gd600 O625 2.717 . S
Gd600 O627 2.395 . S
Gd600 O631 2.327 . S
Gd601 C612 2.818 . S
Gd601 O621 2.395 . S
Gd601 O625 2.327 . S
Gd601 O626 2.377 . S
Gd601 O628 2.448 . S
Gd601 O629 2.506 . S
Gd601 O630 2.435 . S
Gd601 O631 2.717 . S
C602 O620 1.240 . S
C602 O621 1.240 . S
C603 Gd600 2.818 . S
C603 C604 1.510 . S
C603 O622 1.249 . S
C603 O623 1.252 . S
C604 C603 1.510 . S
C604 C605 1.404 . S
C604 C606 1.352 . S
C605 C604 1.404 . S
C605 C609 1.389 . S
C605 H632 0.930 . S
C606 C604 1.352 . S
C606 C608 1.374 . S
C606 H633 0.931 . S
C607 C608 1.359 . S
C607 C609 1.364 . S
C608 C606 1.374 . S
C608 C607 1.359 . S
C608 H634 0.931 . S
C609 C605 1.389 . S
C609 C607 1.364 . S
C609 H635 0.931 . S
C610 O624 1.256 . S
C610 O625 1.257 . S
C611 O626 1.240 . S
C611 O627 1.240 . S
C612 Gd601 2.818 . S
C612 C613 1.510 1_545 S
C612 O628 1.249 . S
C612 O629 1.252 . S
C613 C612 1.510 1_565 S
C613 C614 1.404 . S
C613 C615 1.352 . S
C614 C613 1.404 . S
C614 C618 1.389 . S
C614 H636 0.930 . S
C615 C613 1.352 . S
C615 C617 1.374 . S
C615 H637 0.931 . S
C616 C617 1.359 . S
C616 C618 1.364 . S
C617 C615 1.374 . S
C617 C616 1.359 . S
C617 H638 0.931 . S
C618 C614 1.389 . S
C618 C616 1.364 . S
C618 H639 0.931 . S
C619 O630 1.256 . S
C619 O631 1.257 . S
O620 Gd600 2.377 . S
O620 C602 1.240 . S
O621 Gd601 2.395 . S
O621 C602 1.240 . S
O622 Gd600 2.448 . S
O622 C603 1.249 . S
O623 Gd600 2.506 . S
O623 C603 1.252 . S
O624 Gd600 2.435 . S
O624 C610 1.256 . S
O625 Gd600 2.717 . S
O625 Gd601 2.327 . S
O625 C610 1.257 . S
O626 Gd601 2.377 . S
O626 C611 1.240 . S
O627 Gd600 2.395 . S
O627 C611 1.240 . S
O628 Gd601 2.448 . S
O628 C612 1.249 . S
O629 Gd601 2.506 . S
O629 C612 1.252 . S
O630 Gd601 2.435 . S
O630 C619 1.256 . S
O631 Gd600 2.327 . S
O631 Gd601 2.717 . S
O631 C619 1.257 . S
H632 C605 0.930 . S
H633 C606 0.931 . S
H634 C608 0.931 . S
H635 C609 0.931 . S
H636 C614 0.930 . S
H637 C615 0.931 . S
H638 C617 0.931 . S
H639 C618 0.931 . S
Gd640 C643 2.818 . S
Gd640 O660 2.377 . S
Gd640 O662 2.448 . S
Gd640 O663 2.506 . S
Gd640 O664 2.435 . S
Gd640 O665 2.717 . S
Gd640 O667 2.395 . S
Gd640 O671 2.327 . S
Gd641 C652 2.818 1_655 S
Gd641 O661 2.395 . S
Gd641 O665 2.327 . S
Gd641 O666 2.377 . S
Gd641 O668 2.448 1_655 S
Gd641 O669 2.506 1_655 S
Gd641 O670 2.435 . S
Gd641 O671 2.717 . S
C642 O660 1.240 . S
C642 O661 1.240 . S
C643 Gd640 2.818 . S
C643 C644 1.510 . S
C643 O662 1.249 . S
C643 O663 1.252 . S
C644 C643 1.510 . S
C644 C645 1.404 . S
C644 C646 1.352 . S
C645 C644 1.404 . S
C645 C649 1.389 . S
C645 H672 0.930 . S
C646 C644 1.352 . S
C646 C648 1.374 . S
C646 H673 0.931 . S
C647 C648 1.359 . S
C647 C649 1.364 . S
C648 C646 1.374 . S
C648 C647 1.359 . S
C648 H674 0.931 . S
C649 C645 1.389 . S
C649 C647 1.364 . S
C649 H675 0.931 . S
C650 O664 1.256 . S
C650 O665 1.257 . S
C651 O666 1.240 . S
C651 O667 1.240 . S
C652 Gd641 2.818 1_455 S
C652 C653 1.510 . S
C652 O668 1.249 . S
C652 O669 1.252 . S
C653 C652 1.510 . S
C653 C654 1.404 . S
C653 C655 1.352 . S
C654 C653 1.404 . S
C654 C658 1.389 . S
C654 H676 0.930 . S
C655 C653 1.352 . S
C655 C657 1.374 . S
C655 H677 0.931 . S
C656 C657 1.359 . S
C656 C658 1.364 . S
C657 C655 1.374 . S
C657 C656 1.359 . S
C657 H678 0.931 . S
C658 C654 1.389 . S
C658 C656 1.364 . S
C658 H679 0.931 . S
C659 O670 1.256 . S
C659 O671 1.257 . S
O660 Gd640 2.377 . S
O660 C642 1.240 . S
O661 Gd641 2.395 . S
O661 C642 1.240 . S
O662 Gd640 2.448 . S
O662 C643 1.249 . S
O663 Gd640 2.506 . S
O663 C643 1.252 . S
O664 Gd640 2.435 . S
O664 C650 1.256 . S
O665 Gd640 2.717 . S
O665 Gd641 2.327 . S
O665 C650 1.257 . S
O666 Gd641 2.377 . S
O666 C651 1.240 . S
O667 Gd640 2.395 . S
O667 C651 1.240 . S
O668 Gd641 2.448 1_455 S
O668 C652 1.249 . S
O669 Gd641 2.506 1_455 S
O669 C652 1.252 . S
O670 Gd641 2.435 . S
O670 C659 1.256 . S
O671 Gd640 2.327 . S
O671 Gd641 2.717 . S
O671 C659 1.257 . S
H672 C645 0.930 . S
H673 C646 0.931 . S
H674 C648 0.931 . S
H675 C649 0.931 . S
H676 C654 0.930 . S
H677 C655 0.931 . S
H678 C657 0.931 . S
H679 C658 0.931 . S
Gd680 C683 2.818 . S
Gd680 O700 2.377 . S
Gd680 O702 2.448 . S
Gd680 O703 2.506 . S
Gd680 O704 2.435 . S
Gd680 O705 2.717 . S
Gd680 O707 2.395 . S
Gd680 O711 2.327 . S
Gd681 C692 2.818 . S
Gd681 O701 2.395 . S
Gd681 O705 2.327 . S
Gd681 O706 2.377 . S
Gd681 O708 2.448 . S
Gd681 O709 2.506 . S
Gd681 O710 2.435 . S
Gd681 O711 2.717 . S
C682 O700 1.240 . S
C682 O701 1.240 . S
C683 Gd680 2.818 . S
C683 C684 1.510 . S
C683 O702 1.249 . S
C683 O703 1.252 . S
C684 C683 1.510 . S
C684 C685 1.404 . S
C684 C686 1.352 . S
C685 C684 1.404 . S
C685 C689 1.389 . S
C685 H712 0.930 . S
C686 C684 1.352 . S
C686 C688 1.374 . S
C686 H713 0.931 . S
C687 C688 1.359 . S
C687 C689 1.364 . S
C688 C686 1.374 . S
C688 C687 1.359 . S
C688 H714 0.931 . S
C689 C685 1.389 . S
C689 C687 1.364 . S
C689 H715 0.931 . S
C690 O704 1.256 . S
C690 O705 1.257 . S
C691 O706 1.240 . S
C691 O707 1.240 . S
C692 Gd681 2.818 . S
C692 C693 1.510 . S
C692 O708 1.249 . S
C692 O709 1.252 . S
C693 C692 1.510 . S
C693 C694 1.404 . S
C693 C695 1.352 . S
C694 C693 1.404 . S
C694 C698 1.389 . S
C694 H716 0.930 . S
C695 C693 1.352 . S
C695 C697 1.374 . S
C695 H717 0.931 . S
C696 C697 1.359 . S
C696 C698 1.364 . S
C697 C695 1.374 . S
C697 C696 1.359 . S
C697 H718 0.931 . S
C698 C694 1.389 . S
C698 C696 1.364 . S
C698 H719 0.931 . S
C699 O710 1.256 . S
C699 O711 1.257 . S
O700 Gd680 2.377 . S
O700 C682 1.240 . S
O701 Gd681 2.395 . S
O701 C682 1.240 . S
O702 Gd680 2.448 . S
O702 C683 1.249 . S
O703 Gd680 2.506 . S
O703 C683 1.252 . S
O704 Gd680 2.435 . S
O704 C690 1.256 . S
O705 Gd680 2.717 . S
O705 Gd681 2.327 . S
O705 C690 1.257 . S
O706 Gd681 2.377 . S
O706 C691 1.240 . S
O707 Gd680 2.395 . S
O707 C691 1.240 . S
O708 Gd681 2.448 . S
O708 C692 1.249 . S
O709 Gd681 2.506 . S
O709 C692 1.252 . S
O710 Gd681 2.435 . S
O710 C699 1.256 . S
O711 Gd680 2.327 . S
O711 Gd681 2.717 . S
O711 C699 1.257 . S
H712 C685 0.930 . S
H713 C686 0.931 . S
H714 C688 0.931 . S
H715 C689 0.931 . S
H716 C694 0.930 . S
H717 C695 0.931 . S
H718 C697 0.931 . S
H719 C698 0.931 . S
C720 C721 1.369 . S
C720 C722 1.419 . S
C720 H724 0.930 . S
C721 C720 1.369 . S
C721 C730 1.429 . S
C722 C720 1.419 . S
C722 C723 1.363 . S
C722 H725 0.929 . S
C723 C722 1.363 . S
C723 C729 1.428 . S
H724 C720 0.930 . S
H725 C722 0.929 . S
S726 N727 1.613 . S
S726 N728 1.610 . S
N727 S726 1.613 . S
N727 C730 1.350 . S
N728 S726 1.610 . S
N728 C729 1.351 . S
C729 C723 1.428 . S
C729 N728 1.351 . S
C729 C730 1.434 . S
C730 C721 1.429 . S
C730 N727 1.350 . S
C730 C729 1.434 . S
C731 C732 1.369 . S
C731 C733 1.419 . S
C731 H735 0.930 . S
C732 C731 1.369 . S
C732 C741 1.429 . S
C733 C731 1.419 . S
C733 C734 1.363 . S
C733 H736 0.929 . S
C734 C733 1.363 . S
C734 C740 1.428 . S
H735 C731 0.930 . S
H736 C733 0.929 . S
S737 N738 1.613 . S
S737 N739 1.610 . S
N738 S737 1.613 . S
N738 C741 1.350 . S
N739 S737 1.610 . S
N739 C740 1.351 . S
C740 C734 1.428 . S
C740 N739 1.351 . S
C740 C741 1.434 . S
C741 C732 1.429 . S
C741 N738 1.350 . S
C741 C740 1.434 . S
C742 C743 1.369 . S
C742 C744 1.419 . S
C742 H746 0.930 . S
C743 C742 1.369 . S
C743 C752 1.429 . S
C744 C742 1.419 . S
C744 C745 1.363 . S
C744 H747 0.929 . S
C745 C744 1.363 . S
C745 C751 1.428 . S
H746 C742 0.930 . S
H747 C744 0.929 . S
S748 N749 1.613 . S
S748 N750 1.610 . S
N749 S748 1.613 . S
N749 C752 1.350 . S
N750 S748 1.610 . S
N750 C751 1.351 . S
C751 C745 1.428 . S
C751 N750 1.351 . S
C751 C752 1.434 . S
C752 C743 1.429 . S
C752 N749 1.350 . S
C752 C751 1.434 . S
C753 C754 1.369 . S
C753 C755 1.419 . S
C753 H757 0.930 . S
C754 C753 1.369 . S
C754 C763 1.429 . S
C755 C753 1.419 . S
C755 C756 1.363 . S
C755 H758 0.929 . S
C756 C755 1.363 . S
C756 C762 1.428 . S
H757 C753 0.930 . S
H758 C755 0.929 . S
S759 N760 1.613 . S
S759 N761 1.610 . S
N760 S759 1.613 . S
N760 C763 1.350 . S
N761 S759 1.610 . S
N761 C762 1.351 . S
C762 C756 1.428 . S
C762 N761 1.351 . S
C762 C763 1.434 . S
C763 C754 1.429 . S
C763 N760 1.350 . S
C763 C762 1.434 . S
C764 C765 1.369 . S
C764 C766 1.419 . S
C764 H768 0.930 . S
C765 C764 1.369 . S
C765 C774 1.429 . S
C766 C764 1.419 . S
C766 C767 1.363 . S
C766 H769 0.929 . S
C767 C766 1.363 . S
C767 C773 1.428 . S
H768 C764 0.930 . S
H769 C766 0.929 . S
S770 N771 1.613 . S
S770 N772 1.610 . S
N771 S770 1.613 . S
N771 C774 1.350 . S
N772 S770 1.610 . S
N772 C773 1.351 . S
C773 C767 1.428 . S
C773 N772 1.351 . S
C773 C774 1.434 . S
C774 C765 1.429 . S
C774 N771 1.350 . S
C774 C773 1.434 . S
C775 C776 1.369 . S
C775 C777 1.419 . S
C775 H779 0.930 . S
C776 C775 1.369 . S
C776 C785 1.429 . S
C777 C775 1.419 . S
C777 C778 1.363 . S
C777 H780 0.929 . S
C778 C777 1.363 . S
C778 C784 1.428 . S
H779 C775 0.930 . S
H780 C777 0.929 . S
S781 N782 1.613 . S
S781 N783 1.610 . S
N782 S781 1.613 . S
N782 C785 1.350 . S
N783 S781 1.610 . S
N783 C784 1.351 . S
C784 C778 1.428 . S
C784 N783 1.351 . S
C784 C785 1.434 . S
C785 C776 1.429 . S
C785 N782 1.350 . S
C785 C784 1.434 . S
C786 C787 1.369 . S
C786 C788 1.419 . S
C786 H790 0.930 . S
C787 C786 1.369 . S
C787 C796 1.429 . S
C788 C786 1.419 . S
C788 C789 1.363 . S
C788 H791 0.929 . S
C789 C788 1.363 . S
C789 C795 1.428 . S
H790 C786 0.930 . S
H791 C788 0.929 . S
S792 N793 1.613 . S
S792 N794 1.610 . S
N793 S792 1.613 . S
N793 C796 1.350 . S
N794 S792 1.610 . S
N794 C795 1.351 . S
C795 C789 1.428 . S
C795 N794 1.351 . S
C795 C796 1.434 . S
C796 C787 1.429 . S
C796 N793 1.350 . S
C796 C795 1.434 . S
C797 C798 1.369 . S
C797 C799 1.419 1_545 S
C797 H801 0.930 . S
C798 C797 1.369 . S
C798 C807 1.429 . S
C799 C797 1.419 1_565 S
C799 C800 1.363 . S
C799 H802 0.929 . S
C800 C799 1.363 . S
C800 C806 1.428 . S
H801 C797 0.930 . S
H802 C799 0.929 . S
S803 N804 1.613 1_565 S
S803 N805 1.610 . S
N804 S803 1.613 1_545 S
N804 C807 1.350 . S
N805 S803 1.610 . S
N805 C806 1.351 . S
C806 C800 1.428 . S
C806 N805 1.351 . S
C806 C807 1.434 1_565 S
C807 C798 1.429 . S
C807 N804 1.350 . S
C807 C806 1.434 1_545 S
C808 C809 1.369 . S
C808 C810 1.419 . S
C808 H812 0.930 . S
C809 C808 1.369 . S
C809 C818 1.429 . S
C810 C808 1.419 . S
C810 C811 1.363 1_455 S
C810 H813 0.929 . S
C811 C810 1.363 1_655 S
C811 C817 1.428 1_655 S
H812 C808 0.930 . S
H813 C810 0.929 . S
S814 N815 1.613 . S
S814 N816 1.610 1_455 S
N815 S814 1.613 . S
N815 C818 1.350 . S
N816 S814 1.610 1_655 S
N816 C817 1.351 1_655 S
C817 C811 1.428 1_455 S
C817 N816 1.351 1_455 S
C817 C818 1.434 . S
C818 C809 1.429 . S
C818 N815 1.350 . S
C818 C817 1.434 . S
C819 C820 1.369 . S
C819 C821 1.419 . S
C819 H823 0.930 . S
C820 C819 1.369 . S
C820 C829 1.429 . S
C821 C819 1.419 . S
C821 C822 1.363 . S
C821 H824 0.929 . S
C822 C821 1.363 . S
C822 C828 1.428 . S
H823 C819 0.930 . S
H824 C821 0.929 . S
S825 N826 1.613 . S
S825 N827 1.610 . S
N826 S825 1.613 . S
N826 C829 1.350 . S
N827 S825 1.610 . S
N827 C828 1.351 . S
C828 C822 1.428 . S
C828 N827 1.351 . S
C828 C829 1.434 . S
C829 C820 1.429 . S
C829 N826 1.350 . S
C829 C828 1.434 . S
C830 C831 1.369 . S
C830 C832 1.419 . S
C830 H834 0.930 . S
C831 C830 1.369 . S
C831 C840 1.429 . S
C832 C830 1.419 . S
C832 C833 1.363 . S
C832 H835 0.929 . S
C833 C832 1.363 . S
C833 C839 1.428 . S
H834 C830 0.930 . S
H835 C832 0.929 . S
S836 N837 1.613 . S
S836 N838 1.610 . S
N837 S836 1.613 . S
N837 C840 1.350 . S
N838 S836 1.610 . S
N838 C839 1.351 . S
C839 C833 1.428 . S
C839 N838 1.351 . S
C839 C840 1.434 . S
C840 C831 1.429 . S
C840 N837 1.350 . S
C840 C839 1.434 . S
C841 C842 1.369 . S
C841 C843 1.419 . S
C841 H845 0.930 . S
C842 C841 1.369 . S
C842 C851 1.429 . S
C843 C841 1.419 . S
C843 C844 1.363 . S
C843 H846 0.929 . S
C844 C843 1.363 . S
C844 C850 1.428 . S
H845 C841 0.930 . S
H846 C843 0.929 . S
S847 N848 1.613 . S
S847 N849 1.610 . S
N848 S847 1.613 . S
N848 C851 1.350 . S
N849 S847 1.610 . S
N849 C850 1.351 . S
C850 C844 1.428 . S
C850 N849 1.351 . S
C850 C851 1.434 . S
C851 C842 1.429 . S
C851 N848 1.350 . S
C851 C850 1.434 . S
C852 C853 1.369 . S
C852 C854 1.419 . S
C852 H856 0.930 . S
C853 C852 1.369 . S
C853 C862 1.429 . S
C854 C852 1.419 . S
C854 C855 1.363 . S
C854 H857 0.929 . S
C855 C854 1.363 . S
C855 C861 1.428 . S
H856 C852 0.930 . S
H857 C854 0.929 . S
S858 N859 1.613 . S
S858 N860 1.610 . S
N859 S858 1.613 . S
N859 C862 1.350 . S
N860 S858 1.610 . S
N860 C861 1.351 . S
C861 C855 1.428 . S
C861 N860 1.351 . S
C861 C862 1.434 . S
C862 C853 1.429 . S
C862 N859 1.350 . S
C862 C861 1.434 . S
C863 C864 1.369 . S
C863 C865 1.419 . S
C863 H867 0.930 . S
C864 C863 1.369 . S
C864 C873 1.429 . S
C865 C863 1.419 . S
C865 C866 1.363 . S
C865 H868 0.929 . S
C866 C865 1.363 . S
C866 C872 1.428 . S
H867 C863 0.930 . S
H868 C865 0.929 . S
S869 N870 1.613 . S
S869 N871 1.610 . S
N870 S869 1.613 . S
N870 C873 1.350 . S
N871 S869 1.610 . S
N871 C872 1.351 . S
C872 C866 1.428 . S
C872 N871 1.351 . S
C872 C873 1.434 . S
C873 C864 1.429 . S
C873 N870 1.350 . S
C873 C872 1.434 . S
C874 C875 1.369 . S
C874 C876 1.419 . S
C874 H878 0.930 . S
C875 C874 1.369 . S
C875 C884 1.429 . S
C876 C874 1.419 . S
C876 C877 1.363 . S
C876 H879 0.929 . S
C877 C876 1.363 . S
C877 C883 1.428 . S
H878 C874 0.930 . S
H879 C876 0.929 . S
S880 N881 1.613 . S
S880 N882 1.610 . S
N881 S880 1.613 . S
N881 C884 1.350 . S
N882 S880 1.610 . S
N882 C883 1.351 . S
C883 C877 1.428 . S
C883 N882 1.351 . S
C883 C884 1.434 . S
C884 C875 1.429 . S
C884 N881 1.350 . S
C884 C883 1.434 . S
C885 C886 1.369 . S
C885 C887 1.419 . S
C885 H889 0.930 . S
C886 C885 1.369 . S
C886 C895 1.429 . S
C887 C885 1.419 . S
C887 C888 1.363 . S
C887 H890 0.929 . S
C888 C887 1.363 . S
C888 C894 1.428 . S
H889 C885 0.930 . S
H890 C887 0.929 . S
S891 N892 1.613 . S
S891 N893 1.610 . S
N892 S891 1.613 . S
N892 C895 1.350 . S
N893 S891 1.610 . S
N893 C894 1.351 . S
C894 C888 1.428 . S
C894 N893 1.351 . S
C894 C895 1.434 . S
C895 C886 1.429 . S
C895 N892 1.350 . S
C895 C894 1.434 . S
C896 C897 1.369 1_545 S
C896 C898 1.419 . S
C896 H900 0.930 1_545 S
C897 C896 1.369 1_565 S
C897 C906 1.429 1_565 S
C898 C896 1.419 . S
C898 C899 1.363 . S
C898 H901 0.929 . S
C899 C898 1.363 . S
C899 C905 1.428 . S
H900 C896 0.930 1_565 S
H901 C898 0.929 . S
S902 N903 1.613 . S
S902 N904 1.610 . S
N903 S902 1.613 . S
N903 C906 1.350 . S
N904 S902 1.610 . S
N904 C905 1.351 . S
C905 C899 1.428 . S
C905 N904 1.351 . S
C905 C906 1.434 . S
C906 C897 1.429 1_545 S
C906 N903 1.350 . S
C906 C905 1.434 . S
C907 C908 1.369 . S
C907 C909 1.419 1_455 S
C907 H911 0.930 . S
C908 C907 1.369 . S
C908 C917 1.452 . S
C909 C907 1.419 1_655 S
C909 C910 1.363 . S
C909 H912 0.929 . S
C910 C909 1.363 . S
C910 C916 1.428 . S
H911 C907 0.930 . S
H912 C909 0.929 . S
S913 N914 1.613 1_655 S
S913 N915 1.610 . S
N914 S913 1.613 1_455 S
N914 C917 1.343 . S
N915 S913 1.610 . S
N915 C916 1.351 . S
C916 C910 1.428 . S
C916 N915 1.351 . S
C916 C917 1.416 1_655 S
C917 C908 1.452 . S
C917 N914 1.343 . S
C917 C916 1.416 1_455 S
C918 C919 1.369 1_565 S
C918 C920 1.419 1_554 S
C918 H922 0.930 . S
C919 C918 1.369 1_545 S
C919 C928 1.429 . S
C920 C918 1.419 1_556 S
C920 C921 1.363 1_565 S
C920 H923 0.929 . S
C921 C920 1.363 1_545 S
C921 C927 1.428 . S
H922 C918 0.930 . S
H923 C920 0.929 . S
S924 N925 1.613 1_556 S
S924 N926 1.610 . S
N925 S924 1.613 1_554 S
N925 C928 1.350 . S
N926 S924 1.610 . S
N926 C927 1.351 . S
C927 C921 1.428 . S
C927 N926 1.351 . S
C927 C928 1.434 1_556 S
C928 C919 1.429 . S
C928 N925 1.350 . S
C928 C927 1.434 1_554 S
C929 C930 1.369 . S
C929 C931 1.419 1_556 S
C929 H933 0.930 . S
C930 C929 1.369 . S
C930 C939 1.429 1_455 S
C931 C929 1.419 1_554 S
C931 C932 1.363 . S
C931 H934 0.929 . S
C932 C931 1.363 . S
C932 C938 1.428 1_455 S
H933 C929 0.930 . S
H934 C931 0.929 . S
S935 N936 1.613 . S
S935 N937 1.610 1_556 S
N936 S935 1.613 . S
N936 C939 1.350 . S
N937 S935 1.610 1_554 S
N937 C938 1.351 . S
C938 C932 1.428 1_655 S
C938 N937 1.351 . S
C938 C939 1.434 1_554 S
C939 C930 1.429 1_655 S
C939 N936 1.350 . S
C939 C938 1.434 1_556 S
C940 C941 1.369 . S
C940 C942 1.419 1_556 S
C940 H944 0.930 . S
C941 C940 1.369 . S
C941 C950 1.429 . S
C942 C940 1.419 1_554 S
C942 C943 1.363 . S
C942 H945 0.929 . S
C943 C942 1.363 . S
C943 C949 1.428 . S
H944 C940 0.930 . S
H945 C942 0.929 . S
S946 N947 1.615 . S
S946 N948 1.608 1_556 S
N947 S946 1.615 . S
N947 C950 1.350 . S
N948 S946 1.608 1_554 S
N948 C949 1.351 . S
C949 C943 1.428 . S
C949 N948 1.351 . S
C949 C950 1.434 1_554 S
C950 C941 1.429 . S
C950 N947 1.350 . S
C950 C949 1.434 1_556 S
C951 C952 1.369 . S
C951 C953 1.419 . S
C951 H955 0.930 . S
C952 C951 1.369 . S
C952 C961 1.429 . S
C953 C951 1.419 . S
C953 C954 1.363 . S
C953 H956 0.929 . S
C954 C953 1.363 . S
C954 C960 1.428 . S
H955 C951 0.930 . S
H956 C953 0.929 . S
S957 N958 1.613 . S
S957 N959 1.610 . S
N958 S957 1.613 . S
N958 C961 1.350 . S
N959 S957 1.610 . S
N959 C960 1.351 . S
C960 C954 1.428 . S
C960 N959 1.351 . S
C960 C961 1.434 . S
C961 C952 1.429 . S
C961 N958 1.350 . S
C961 C960 1.434 . S
C962 C963 1.369 . S
C962 C964 1.419 . S
C962 H966 0.930 . S
C963 C962 1.369 . S
C963 C972 1.429 . S
C964 C962 1.419 . S
C964 C965 1.363 . S
C964 H967 0.929 . S
C965 C964 1.363 . S
C965 C971 1.428 . S
H966 C962 0.930 . S
H967 C964 0.929 . S
S968 N969 1.613 . S
S968 N970 1.610 . S
N969 S968 1.613 . S
N969 C972 1.350 . S
N970 S968 1.610 . S
N970 C971 1.351 . S
C971 C965 1.428 . S
C971 N970 1.351 . S
C971 C972 1.434 . S
C972 C963 1.429 . S
C972 N969 1.350 . S
C972 C971 1.434 . S
C973 C974 1.369 . S
C973 C975 1.419 . S
C973 H977 0.930 . S
C974 C973 1.369 . S
C974 C983 1.429 . S
C975 C973 1.419 . S
C975 C976 1.363 . S
C975 H978 0.929 . S
C976 C975 1.363 . S
C976 C982 1.428 . S
H977 C973 0.930 . S
H978 C975 0.929 . S
S979 N980 1.613 . S
S979 N981 1.610 . S
N980 S979 1.613 . S
N980 C983 1.350 . S
N981 S979 1.610 . S
N981 C982 1.351 . S
C982 C976 1.428 . S
C982 N981 1.351 . S
C982 C983 1.434 . S
C983 C974 1.429 . S
C983 N980 1.350 . S
C983 C982 1.434 . S
C984 C985 1.369 . S
C984 C986 1.419 . S
C984 H988 0.930 . S
C985 C984 1.369 . S
C985 C994 1.429 . S
C986 C984 1.419 . S
C986 C987 1.363 . S
C986 H989 0.929 . S
C987 C986 1.363 . S
C987 C993 1.428 . S
H988 C984 0.930 . S
H989 C986 0.929 . S
S990 N991 1.613 . S
S990 N992 1.610 . S
N991 S990 1.613 . S
N991 C994 1.350 . S
N992 S990 1.610 . S
N992 C993 1.351 . S
C993 C987 1.428 . S
C993 N992 1.351 . S
C993 C994 1.434 . S
C994 C985 1.429 . S
C994 N991 1.350 . S
C994 C993 1.434 . S
C995 C996 1.369 . S
C995 C997 1.419 . S
C995 H999 0.930 . S
C996 C995 1.369 . S
C996 C1005 1.429 . S
C997 C995 1.419 . S
C997 C998 1.363 . S
C997 H1000 0.929 . S
C998 C997 1.363 . S
C998 C1004 1.428 . S
H999 C995 0.930 . S
H1000 C997 0.929 . S
S1001 N1002 1.613 . S
S1001 N1003 1.610 . S
N1002 S1001 1.613 . S
N1002 C1005 1.350 . S
N1003 S1001 1.610 . S
N1003 C1004 1.351 . S
C1004 C998 1.428 . S
C1004 N1003 1.351 . S
C1004 C1005 1.434 . S
C1005 C996 1.429 . S
C1005 N1002 1.350 . S
C1005 C1004 1.434 . S
C1006 C1007 1.369 . S
C1006 C1008 1.419 . S
C1006 H1010 0.930 . S
C1007 C1006 1.369 . S
C1007 C1016 1.429 . S
C1008 C1006 1.419 . S
C1008 C1009 1.363 . S
C1008 H1011 0.929 . S
C1009 C1008 1.363 . S
C1009 C1015 1.428 . S
H1010 C1006 0.930 . S
H1011 C1008 0.929 . S
S1012 N1013 1.613 . S
S1012 N1014 1.610 . S
N1013 S1012 1.613 . S
N1013 C1016 1.350 . S
N1014 S1012 1.610 . S
N1014 C1015 1.351 . S
C1015 C1009 1.428 . S
C1015 N1014 1.351 . S
C1015 C1016 1.434 . S
C1016 C1007 1.429 . S
C1016 N1013 1.350 . S
C1016 C1015 1.434 . S
C1017 C1018 1.369 . S
C1017 C1019 1.419 . S
C1017 H1021 0.930 . S
C1018 C1017 1.369 . S
C1018 C1027 1.429 . S
C1019 C1017 1.419 . S
C1019 C1020 1.363 . S
C1019 H1022 0.929 . S
C1020 C1019 1.363 . S
C1020 C1026 1.428 . S
H1021 C1017 0.930 . S
H1022 C1019 0.929 . S
S1023 N1024 1.613 . S
S1023 N1025 1.610 . S
N1024 S1023 1.613 . S
N1024 C1027 1.350 . S
N1025 S1023 1.610 . S
N1025 C1026 1.351 . S
C1026 C1020 1.428 . S
C1026 N1025 1.351 . S
C1026 C1027 1.434 . S
C1027 C1018 1.429 . S
C1027 N1024 1.350 . S
C1027 C1026 1.434 . S
C1028 C1029 1.369 . S
C1028 C1030 1.419 . S
C1028 H1032 0.930 . S
C1029 C1028 1.369 . S
C1029 C1038 1.429 . S
C1030 C1028 1.419 . S
C1030 C1031 1.363 . S
C1030 H1033 0.929 . S
C1031 C1030 1.363 . S
C1031 C1037 1.428 . S
H1032 C1028 0.930 . S
H1033 C1030 0.929 . S
S1034 N1035 1.613 . S
S1034 N1036 1.610 . S
N1035 S1034 1.613 . S
N1035 C1038 1.350 . S
N1036 S1034 1.610 . S
N1036 C1037 1.351 . S
C1037 C1031 1.428 . S
C1037 N1036 1.351 . S
C1037 C1038 1.434 . S
C1038 C1029 1.429 . S
C1038 N1035 1.350 . S
C1038 C1037 1.434 . S
C1039 C1040 1.369 . S
C1039 C1041 1.419 . S
C1039 H1043 0.930 . S
C1040 C1039 1.369 . S
C1040 C1049 1.429 . S
C1041 C1039 1.419 . S
C1041 C1042 1.363 . S
C1041 H1044 0.929 . S
C1042 C1041 1.363 . S
C1042 C1048 1.428 . S
H1043 C1039 0.930 . S
H1044 C1041 0.929 . S
S1045 N1046 1.613 . S
S1045 N1047 1.610 . S
N1046 S1045 1.613 . S
N1046 C1049 1.350 . S
N1047 S1045 1.610 . S
N1047 C1048 1.351 . S
C1048 C1042 1.428 . S
C1048 N1047 1.351 . S
C1048 C1049 1.434 . S
C1049 C1040 1.429 . S
C1049 N1046 1.350 . S
C1049 C1048 1.434 . S
C1050 C1051 1.369 . S
C1050 C1052 1.419 . S
C1050 H1054 0.930 . S
C1051 C1050 1.369 . S
C1051 C1060 1.429 . S
C1052 C1050 1.419 . S
C1052 C1053 1.363 . S
C1052 H1055 0.929 . S
C1053 C1052 1.363 . S
C1053 C1059 1.428 . S
H1054 C1050 0.930 . S
H1055 C1052 0.929 . S
S1056 N1057 1.613 . S
S1056 N1058 1.610 1_455 S
N1057 S1056 1.613 . S
N1057 C1060 1.350 1_455 S
N1058 S1056 1.610 1_655 S
N1058 C1059 1.351 . S
C1059 C1053 1.428 . S
C1059 N1058 1.351 . S
C1059 C1060 1.434 . S
C1060 C1051 1.429 . S
C1060 N1057 1.350 1_655 S
C1060 C1059 1.434 . S
C1061 C1062 1.369 . S
C1061 C1063 1.419 . S
C1061 H1065 0.930 . S
C1062 C1061 1.369 . S
C1062 C1071 1.429 . S
C1063 C1061 1.419 . S
C1063 C1064 1.363 . S
C1063 H1066 0.929 . S
C1064 C1063 1.363 . S
C1064 C1070 1.428 . S
H1065 C1061 0.930 . S
H1066 C1063 0.929 . S
S1067 N1068 1.613 . S
S1067 N1069 1.610 . S
N1068 S1067 1.613 . S
N1068 C1071 1.350 . S
N1069 S1067 1.610 . S
N1069 C1070 1.351 . S
C1070 C1064 1.428 . S
C1070 N1069 1.351 . S
C1070 C1071 1.434 . S
C1071 C1062 1.429 . S
C1071 N1068 1.350 . S
C1071 C1070 1.434 . S
C1072 C1073 1.369 . S
C1072 C1074 1.419 . S
C1072 H1076 0.930 . S
C1073 C1072 1.369 . S
C1073 C1082 1.429 . S
C1074 C1072 1.419 . S
C1074 C1075 1.363 . S
C1074 H1077 0.929 . S
C1075 C1074 1.363 . S
C1075 C1081 1.428 . S
H1076 C1072 0.930 . S
H1077 C1074 0.929 . S
S1078 N1079 1.613 . S
S1078 N1080 1.610 . S
N1079 S1078 1.613 . S
N1079 C1082 1.350 . S
N1080 S1078 1.610 . S
N1080 C1081 1.351 . S
C1081 C1075 1.428 . S
C1081 N1080 1.351 . S
C1081 C1082 1.434 . S
C1082 C1073 1.429 . S
C1082 N1079 1.350 . S
C1082 C1081 1.434 . S
C1083 C1084 1.369 1_455 S
C1083 C1085 1.419 . S
C1083 H1087 0.930 1_455 S
C1084 C1083 1.369 1_655 S
C1084 C1093 1.429 . S
C1085 C1083 1.419 . S
C1085 C1086 1.363 . S
C1085 H1088 0.929 . S
C1086 C1085 1.363 . S
C1086 C1092 1.428 . S
H1087 C1083 0.930 1_655 S
H1088 C1085 0.929 . S
S1089 N1090 1.613 . S
S1089 N1091 1.610 1_655 S
N1090 S1089 1.613 . S
N1090 C1093 1.350 . S
N1091 S1089 1.610 1_455 S
N1091 C1092 1.351 . S
C1092 C1086 1.428 . S
C1092 N1091 1.351 . S
C1092 C1093 1.434 1_455 S
C1093 C1084 1.429 . S
C1093 N1090 1.350 . S
C1093 C1092 1.434 1_655 S
C1094 C1095 1.369 . S
C1094 C1096 1.419 . S
C1094 H1098 0.930 . S
C1095 C1094 1.369 . S
C1095 C1104 1.429 . S
C1096 C1094 1.419 . S
C1096 C1097 1.363 . S
C1096 H1099 0.929 . S
C1097 C1096 1.363 . S
C1097 C1103 1.428 . S
H1098 C1094 0.930 . S
H1099 C1096 0.929 . S
S1100 N1101 1.613 . S
S1100 N1102 1.610 . S
N1101 S1100 1.613 . S
N1101 C1104 1.350 . S
N1102 S1100 1.610 . S
N1102 C1103 1.351 . S
C1103 C1097 1.428 . S
C1103 N1102 1.351 . S
C1103 C1104 1.434 . S
C1104 C1095 1.429 . S
C1104 N1101 1.350 . S
C1104 C1103 1.434 . S
C1105 C1106 1.369 . S
C1105 C1107 1.419 1_565 S
C1105 H1109 0.930 . S
C1106 C1105 1.369 . S
C1106 C1115 1.429 1_565 S
C1107 C1105 1.419 1_545 S
C1107 C1108 1.363 . S
C1107 H1110 0.929 . S
C1108 C1107 1.363 . S
C1108 C1114 1.428 . S
H1109 C1105 0.930 . S
H1110 C1107 0.929 . S
S1111 N1112 1.613 . S
S1111 N1113 1.610 . S
N1112 S1111 1.613 . S
N1112 C1115 1.350 . S
N1113 S1111 1.610 . S
N1113 C1114 1.351 . S
C1114 C1108 1.428 . S
C1114 N1113 1.351 . S
C1114 C1115 1.434 . S
C1115 C1106 1.429 1_545 S
C1115 N1112 1.350 . S
C1115 C1114 1.434 . S
C1116 C1117 1.369 . S
C1116 C1118 1.419 . S
C1116 H1120 0.930 . S
C1117 C1116 1.369 . S
C1117 C1126 1.429 . S
C1118 C1116 1.419 . S
C1118 C1119 1.363 . S
C1118 H1121 0.929 . S
C1119 C1118 1.363 . S
C1119 C1125 1.428 . S
H1120 C1116 0.930 . S
H1121 C1118 0.929 . S
S1122 N1123 1.613 . S
S1122 N1124 1.610 . S
N1123 S1122 1.613 . S
N1123 C1126 1.350 . S
N1124 S1122 1.610 . S
N1124 C1125 1.351 . S
C1125 C1119 1.428 . S
C1125 N1124 1.351 . S
C1125 C1126 1.434 . S
C1126 C1117 1.429 . S
C1126 N1123 1.350 . S
C1126 C1125 1.434 . S
C1127 C1128 1.369 . S
C1127 C1129 1.419 . S
C1127 H1131 0.930 . S
C1128 C1127 1.369 . S
C1128 C1137 1.429 . S
C1129 C1127 1.419 . S
C1129 C1130 1.363 . S
C1129 H1132 0.929 . S
C1130 C1129 1.363 . S
C1130 C1136 1.428 . S
H1131 C1127 0.930 . S
H1132 C1129 0.929 . S
S1133 N1134 1.613 . S
S1133 N1135 1.610 . S
N1134 S1133 1.613 . S
N1134 C1137 1.350 . S
N1135 S1133 1.610 . S
N1135 C1136 1.351 . S
C1136 C1130 1.428 . S
C1136 N1135 1.351 . S
C1136 C1137 1.434 . S
C1137 C1128 1.429 . S
C1137 N1134 1.350 . S
C1137 C1136 1.434 . S
C1138 C1139 1.369 . S
C1138 C1140 1.419 . S
C1138 H1142 0.930 . S
C1139 C1138 1.369 . S
C1139 C1148 1.429 . S
C1140 C1138 1.419 . S
C1140 C1141 1.363 . S
C1140 H1143 0.929 . S
C1141 C1140 1.363 . S
C1141 C1147 1.428 . S
H1142 C1138 0.930 . S
H1143 C1140 0.929 . S
S1144 N1145 1.613 . S
S1144 N1146 1.610 . S
N1145 S1144 1.613 . S
N1145 C1148 1.350 . S
N1146 S1144 1.610 . S
N1146 C1147 1.351 . S
C1147 C1141 1.428 . S
C1147 N1146 1.351 . S
C1147 C1148 1.434 . S
C1148 C1139 1.429 . S
C1148 N1145 1.350 . S
C1148 C1147 1.434 . S
C1149 C1150 1.369 . S
C1149 C1151 1.419 . S
C1149 H1153 0.930 . S
C1150 C1149 1.369 . S
C1150 C1159 1.429 . S
C1151 C1149 1.419 . S
C1151 C1152 1.363 . S
C1151 H1154 0.929 . S
C1152 C1151 1.363 . S
C1152 C1158 1.428 . S
H1153 C1149 0.930 . S
H1154 C1151 0.929 . S
S1155 N1156 1.613 . S
S1155 N1157 1.610 . S
N1156 S1155 1.613 . S
N1156 C1159 1.350 . S
N1157 S1155 1.610 . S
N1157 C1158 1.351 . S
C1158 C1152 1.428 . S
C1158 N1157 1.351 . S
C1158 C1159 1.434 . S
C1159 C1150 1.429 . S
C1159 N1156 1.350 . S
C1159 C1158 1.434 . S
C1160 C1161 1.369 . S
C1160 C1162 1.419 . S
C1160 H1164 0.930 . S
C1161 C1160 1.369 . S
C1161 C1170 1.429 . S
C1162 C1160 1.419 . S
C1162 C1163 1.363 . S
C1162 H1165 0.929 . S
C1163 C1162 1.363 . S
C1163 C1169 1.428 . S
H1164 C1160 0.930 . S
H1165 C1162 0.929 . S
S1166 N1167 1.613 . S
S1166 N1168 1.610 . S
N1167 S1166 1.613 . S
N1167 C1170 1.350 . S
N1168 S1166 1.610 . S
N1168 C1169 1.351 . S
C1169 C1163 1.428 . S
C1169 N1168 1.351 . S
C1169 C1170 1.434 . S
C1170 C1161 1.429 . S
C1170 N1167 1.350 . S
C1170 C1169 1.434 . S
C1171 C1172 1.369 . S
C1171 C1173 1.419 . S
C1171 H1175 0.930 . S
C1172 C1171 1.369 . S
C1172 C1181 1.429 . S
C1173 C1171 1.419 . S
C1173 C1174 1.363 . S
C1173 H1176 0.929 . S
C1174 C1173 1.363 . S
C1174 C1180 1.428 . S
H1175 C1171 0.930 . S
H1176 C1173 0.929 . S
S1177 N1178 1.613 . S
S1177 N1179 1.610 . S
N1178 S1177 1.613 . S
N1178 C1181 1.350 . S
N1179 S1177 1.610 . S
N1179 C1180 1.351 . S
C1180 C1174 1.428 . S
C1180 N1179 1.351 . S
C1180 C1181 1.434 . S
C1181 C1172 1.429 . S
C1181 N1178 1.350 . S
C1181 C1180 1.434 . S
C1182 C1183 1.369 . S
C1182 C1184 1.419 . S
C1182 H1186 0.930 . S
C1183 C1182 1.369 . S
C1183 C1192 1.429 . S
C1184 C1182 1.419 . S
C1184 C1185 1.363 . S
C1184 H1187 0.929 . S
C1185 C1184 1.363 . S
C1185 C1191 1.428 . S
H1186 C1182 0.930 . S
H1187 C1184 0.929 . S
S1188 N1189 1.613 . S
S1188 N1190 1.610 . S
N1189 S1188 1.613 . S
N1189 C1192 1.350 . S
N1190 S1188 1.610 . S
N1190 C1191 1.351 . S
C1191 C1185 1.428 . S
C1191 N1190 1.351 . S
C1191 C1192 1.434 . S
C1192 C1183 1.429 . S
C1192 N1189 1.350 . S
C1192 C1191 1.434 . S
C1193 C1194 1.369 . S
C1193 C1195 1.419 . S
C1193 H1197 0.930 . S
C1194 C1193 1.369 . S
C1194 C1203 1.429 . S
C1195 C1193 1.419 . S
C1195 C1196 1.363 . S
C1195 H1198 0.929 . S
C1196 C1195 1.363 . S
C1196 C1202 1.428 . S
H1197 C1193 0.930 . S
H1198 C1195 0.929 . S
S1199 N1200 1.613 . S
S1199 N1201 1.610 . S
N1200 S1199 1.613 . S
N1200 C1203 1.350 . S
N1201 S1199 1.610 . S
N1201 C1202 1.351 . S
C1202 C1196 1.428 . S
C1202 N1201 1.351 . S
C1202 C1203 1.434 . S
C1203 C1194 1.429 . S
C1203 N1200 1.350 . S
C1203 C1202 1.434 . S
C1204 C1205 1.369 . S
C1204 C1206 1.419 . S
C1204 H1208 0.930 . S
C1205 C1204 1.369 . S
C1205 C1214 1.429 . S
C1206 C1204 1.419 . S
C1206 C1207 1.363 . S
C1206 H1209 0.929 . S
C1207 C1206 1.363 . S
C1207 C1213 1.428 . S
H1208 C1204 0.930 . S
H1209 C1206 0.929 . S
S1210 N1211 1.613 . S
S1210 N1212 1.610 . S
N1211 S1210 1.613 . S
N1211 C1214 1.350 . S
N1212 S1210 1.610 . S
N1212 C1213 1.351 . S
C1213 C1207 1.428 . S
C1213 N1212 1.351 . S
C1213 C1214 1.434 . S
C1214 C1205 1.429 . S
C1214 N1211 1.350 . S
C1214 C1213 1.434 . S
C1215 C1216 1.369 . S
C1215 C1217 1.419 . S
C1215 H1219 0.930 . S
C1216 C1215 1.369 . S
C1216 C1225 1.429 . S
C1217 C1215 1.419 . S
C1217 C1218 1.363 . S
C1217 H1220 0.929 . S
C1218 C1217 1.363 . S
C1218 C1224 1.428 . S
H1219 C1215 0.930 . S
H1220 C1217 0.929 . S
S1221 N1222 1.613 . S
S1221 N1223 1.610 . S
N1222 S1221 1.613 . S
N1222 C1225 1.350 . S
N1223 S1221 1.610 . S
N1223 C1224 1.351 . S
C1224 C1218 1.428 . S
C1224 N1223 1.351 . S
C1224 C1225 1.434 . S
C1225 C1216 1.429 . S
C1225 N1222 1.350 . S
C1225 C1224 1.434 . S
C1226 C1227 1.369 1_545 S
C1226 C1228 1.419 . S
C1226 H1230 0.930 . S
C1227 C1226 1.369 1_565 S
C1227 C1236 1.429 . S
C1228 C1226 1.419 . S
C1228 C1229 1.363 . S
C1228 H1231 0.929 . S
C1229 C1228 1.363 . S
C1229 C1235 1.428 . S
H1230 C1226 0.930 . S
H1231 C1228 0.929 . S
S1232 N1233 1.613 . S
S1232 N1234 1.610 . S
N1233 S1232 1.613 . S
N1233 C1236 1.350 . S
N1234 S1232 1.610 . S
N1234 C1235 1.351 1_565 S
C1235 C1229 1.428 . S
C1235 N1234 1.351 1_545 S
C1235 C1236 1.434 1_545 S
C1236 C1227 1.429 . S
C1236 N1233 1.350 . S
C1236 C1235 1.434 1_565 S
C1237 C1238 1.369 1_455 S
C1237 C1239 1.419 . S
C1237 H1241 0.930 . S
C1238 C1237 1.369 1_655 S
C1238 C1247 1.429 . S
C1239 C1237 1.419 . S
C1239 C1240 1.363 . S
C1239 H1242 0.929 . S
C1240 C1239 1.363 . S
C1240 C1246 1.428 . S
H1241 C1237 0.930 . S
H1242 C1239 0.929 . S
S1243 N1244 1.613 . S
S1243 N1245 1.610 1_655 S
N1244 S1243 1.613 . S
N1244 C1247 1.350 . S
N1245 S1243 1.610 1_455 S
N1245 C1246 1.351 . S
C1246 C1240 1.428 . S
C1246 N1245 1.351 . S
C1246 C1247 1.434 1_455 S
C1247 C1238 1.429 . S
C1247 N1244 1.350 . S
C1247 C1246 1.434 1_655 S
C1248 C1249 1.369 . S
C1248 C1250 1.419 . S
C1248 H1252 0.930 . S
C1249 C1248 1.369 . S
C1249 C1258 1.429 . S
C1250 C1248 1.419 . S
C1250 C1251 1.363 . S
C1250 H1253 0.929 . S
C1251 C1250 1.363 . S
C1251 C1257 1.428 . S
H1252 C1248 0.930 . S
H1253 C1250 0.929 . S
S1254 N1255 1.613 . S
S1254 N1256 1.610 . S
N1255 S1254 1.613 . S
N1255 C1258 1.350 . S
N1256 S1254 1.610 . S
N1256 C1257 1.351 . S
C1257 C1251 1.428 . S
C1257 N1256 1.351 . S
C1257 C1258 1.434 . S
C1258 C1249 1.429 . S
C1258 N1255 1.350 . S
C1258 C1257 1.434 . S
C1259 C1260 1.369 . S
C1259 C1261 1.419 1_545 S
C1259 H1263 0.930 1_545 S
C1260 C1259 1.369 . S
C1260 C1269 1.429 . S
C1261 C1259 1.419 1_565 S
C1261 C1262 1.363 . S
C1261 H1264 0.929 . S
C1262 C1261 1.363 . S
C1262 C1268 1.428 1_565 S
H1263 C1259 0.930 1_565 S
H1264 C1261 0.929 . S
S1265 N1266 1.613 . S
S1265 N1267 1.610 . S
N1266 S1265 1.613 . S
N1266 C1269 1.350 . S
N1267 S1265 1.610 . S
N1267 C1268 1.351 . S
C1268 C1262 1.428 1_545 S
C1268 N1267 1.351 . S
C1268 C1269 1.434 . S
C1269 C1260 1.429 . S
C1269 N1266 1.350 . S
C1269 C1268 1.434 . S
C1270 C1271 1.369 . S
C1270 C1272 1.419 1_455 S
C1270 H1274 0.930 1_455 S
C1271 C1270 1.369 . S
C1271 C1280 1.429 . S
C1272 C1270 1.419 1_655 S
C1272 C1273 1.363 . S
C1272 H1275 0.929 . S
C1273 C1272 1.363 . S
C1273 C1279 1.428 1_655 S
H1274 C1270 0.930 1_655 S
H1275 C1272 0.929 . S
S1276 N1277 1.613 . S
S1276 N1278 1.610 . S
N1277 S1276 1.613 . S
N1277 C1280 1.350 . S
N1278 S1276 1.610 . S
N1278 C1279 1.351 . S
C1279 C1273 1.428 1_455 S
C1279 N1278 1.351 . S
C1279 C1280 1.434 . S
C1280 C1271 1.429 . S
C1280 N1277 1.350 . S
C1280 C1279 1.434 . S
C1281 C1282 1.369 . S
C1281 C1283 1.419 . S
C1281 H1285 0.930 . S
C1282 C1281 1.369 . S
C1282 C1291 1.429 . S
C1283 C1281 1.419 . S
C1283 C1284 1.363 . S
C1283 H1286 0.929 . S
C1284 C1283 1.363 . S
C1284 C1290 1.428 . S
H1285 C1281 0.930 . S
H1286 C1283 0.929 . S
S1287 N1288 1.613 . S
S1287 N1289 1.610 . S
N1288 S1287 1.613 . S
N1288 C1291 1.350 . S
N1289 S1287 1.610 . S
N1289 C1290 1.351 . S
C1290 C1284 1.428 . S
C1290 N1289 1.351 . S
C1290 C1291 1.434 . S
C1291 C1282 1.429 . S
C1291 N1288 1.350 . S
C1291 C1290 1.434 . S
C1292 C1293 1.369 . S
C1292 C1294 1.419 . S
C1292 H1296 0.930 . S
C1293 C1292 1.369 . S
C1293 C1302 1.429 . S
C1294 C1292 1.419 . S
C1294 C1295 1.363 . S
C1294 H1297 0.929 . S
C1295 C1294 1.363 . S
C1295 C1301 1.428 . S
H1296 C1292 0.930 . S
H1297 C1294 0.929 . S
S1298 N1299 1.613 . S
S1298 N1300 1.610 . S
N1299 S1298 1.613 . S
N1299 C1302 1.350 . S
N1300 S1298 1.610 . S
N1300 C1301 1.351 . S
C1301 C1295 1.428 . S
C1301 N1300 1.351 . S
C1301 C1302 1.434 . S
C1302 C1293 1.429 . S
C1302 N1299 1.350 . S
C1302 C1301 1.434 . S
C1303 C1304 1.369 . S
C1303 C1305 1.419 . S
C1303 H1307 0.930 . S
C1304 C1303 1.369 . S
C1304 C1313 1.429 . S
C1305 C1303 1.419 . S
C1305 C1306 1.363 . S
C1305 H1308 0.929 . S
C1306 C1305 1.363 . S
C1306 C1312 1.428 . S
H1307 C1303 0.930 . S
H1308 C1305 0.929 . S
S1309 N1310 1.613 . S
S1309 N1311 1.610 . S
N1310 S1309 1.613 . S
N1310 C1313 1.350 . S
N1311 S1309 1.610 . S
N1311 C1312 1.351 . S
C1312 C1306 1.428 . S
C1312 N1311 1.351 . S
C1312 C1313 1.434 . S
C1313 C1304 1.429 . S
C1313 N1310 1.350 . S
C1313 C1312 1.434 . S
C721 C11 1.313 . S
C723 C96 1.345 . S
C732 C16 1.352 . S
C734 C51 1.308 . S
C743 C56 1.348 . S
C745 C91 1.309 . S
C754 C131 1.306 . S
C756 C176 1.350 . S
C765 C216 1.344 . S
C767 C171 1.316 . S
C776 C211 1.318 . S
C778 C136 1.345 . S
C787 C336 1.343 . S
C789 C251 1.316 . S
C798 C256 1.350 . S
C800 C291 1.312 . S
C809 C331 1.307 . S
C811 C296 1.349 . S
C820 C416 1.345 . S
C822 C371 1.312 . S
C831 C411 1.309 . S
C833 C456 1.350 . S
C842 C376 1.346 . S
C844 C451 1.311 . S
C853 C491 1.308 . S
C855 C576 1.348 . S
C864 C496 1.344 . S
C866 C531 1.314 . S
C875 C536 1.351 . S
C877 C571 1.310 . S
C886 C656 1.351 . S
C888 C611 1.310 . S
C897 C696 1.351 . S
C899 C651 1.307 . S
C908 C616 1.351 . S
C910 C691 1.310 . S
C919 C19 1.675 . S
C921 C219 1.672 . S
C930 C139 1.677 . S
C932 C59 1.680 . S
C941 C179 1.681 . S
C943 C99 1.678 . S
C952 C259 1.679 . S
C954 C459 1.680 . S
C963 C299 1.672 . S
C965 C379 1.672 . S
C974 C419 1.681 . S
C976 C339 1.676 . S
C985 C499 1.670 . S
C987 C699 1.675 . S
C996 C619 1.672 . S
C998 C539 1.678 . S
C1007 C659 1.680 . S
C1009 C579 1.674 . S
C1018 C410 2.505 . S
C1020 C10 2.501 1_565 S
C1029 C50 2.503 . S
C1031 C450 2.503 . S
C1040 C370 2.502 . S
C1042 C90 2.503 . S
C1051 C130 2.504 1_655 S
C1053 C570 2.502 . S
C1062 C170 2.501 . S
C1064 C490 2.505 . S
C1073 C530 2.504 . S
C1075 C210 2.502 . S
C1084 C650 2.505 . S
C1086 C250 2.501 . S
C1095 C290 2.505 . S
C1097 C690 2.501 . S
C1106 C330 2.500 . S
C1108 C610 2.505 . S
C1117 C87 1.866 . S
C1119 C2 1.909 . S
C1128 C7 1.864 . S
C1130 C42 1.910 . S
C1139 C82 1.909 . S
C1141 C47 1.865 . S
C1150 C167 1.860 . S
C1152 C122 1.913 . S
C1161 C207 1.861 . S
C1163 C162 1.912 . S
C1172 C202 1.909 . S
C1174 C127 1.865 . S
C1183 C327 1.868 . S
C1185 C242 1.908 . S
C1194 C282 1.913 . S
C1196 C247 1.863 . S
C1205 C287 1.866 . S
C1207 C322 1.911 . S
C1216 C362 1.913 . S
C1218 C407 1.861 . S
C1227 C402 1.909 . S
C1229 C447 1.867 . S
C1238 C367 1.860 . S
C1240 C442 1.913 . S
C1249 C482 1.908 . S
C1251 C567 1.868 . S
C1260 C522 1.908 . S
C1262 C487 1.867 . S
C1271 C527 1.861 . S
C1273 C562 1.912 . S
C1282 C602 1.913 . S
C1284 C647 1.863 . S
C1293 C642 1.913 . S
C1295 C687 1.861 . S
C1304 C607 1.865 . S
C1306 C682 1.910 . S
