# Generated by pormake.
# Topology sxa, (6)-cn, num edge types: 1
# Building blocks:
#     Node 0, Type 0, BuildingBlock: UKALOJ_clean_sbu_0, # of connection points: 6
#     Node 1, Type 0, BuildingBlock: UKALOJ_clean_sbu_0, # of connection points: 6
#     Node 2, Type 0, BuildingBlock: UKALOJ_clean_sbu_0, # of connection points: 6
#     Node 3, Type 0, BuildingBlock: UKALOJ_clean_sbu_0, # of connection points: 6
#     Edge 4, Type (0, 0), BuildingBlock: XUDNAN_clean_linker_2, # of connection points: 2
#     Edge 5, Type (0, 0), BuildingBlock: XUDNAN_clean_linker_2, # of connection points: 2
#     Edge 6, Type (0, 0), BuildingBlock: XUDNAN_clean_linker_2, # of connection points: 2
#     Edge 7, Type (0, 0), BuildingBlock: XUDNAN_clean_linker_2, # of connection points: 2
#     Edge 8, Type (0, 0), BuildingBlock: XUDNAN_clean_linker_2, # of connection points: 2
#     Edge 9, Type (0, 0), BuildingBlock: XUDNAN_clean_linker_2, # of connection points: 2
#     Edge 10, Type (0, 0), BuildingBlock: XUDNAN_clean_linker_2, # of connection points: 2
#     Edge 11, Type (0, 0), BuildingBlock: XUDNAN_clean_linker_2, # of connection points: 2
#     Edge 12, Type (0, 0), BuildingBlock: XUDNAN_clean_linker_2, # of connection points: 2
#     Edge 13, Type (0, 0), BuildingBlock: XUDNAN_clean_linker_2, # of connection points: 2
#     Edge 14, Type (0, 0), BuildingBlock: XUDNAN_clean_linker_2, # of connection points: 2
#     Edge 15, Type (0, 0), BuildingBlock: XUDNAN_clean_linker_2, # of connection points: 2
# Relax obj value: 0.135
# Max RMSD: 0.193
# Mean RMSD: 0.193
data_MOF--net-sxa--node1-UKALOJ_clean_sbu_0--edge1-XUDNAN_clean_linker_2
_symmetry_space_group_name_H-M    P1
_symmetry_Int_Tables_number       1
_symmetry_cell_setting            triclinic
loop_
_symmetry_equiv_pos_as_xyz
'x, y, z'
_cell_length_a     23.554018
_cell_length_b     37.888774
_cell_length_c     15.252569
_cell_angle_alpha  89.591336
_cell_angle_beta   89.944644
_cell_angle_gamma 89.892426
loop_
_atom_site_label
_atom_site_type_symbol
_atom_site_fract_x
_atom_site_fract_y
_atom_site_fract_z
_atom_type_partial_charge
Zn0 Zn 0.99251 0.82654 0.23367 0.0
O1 O 0.07966 0.82852 0.27527 0.0
C2 C 0.02526 0.80576 0.05535 0.0
Zn3 Zn -0.00425 0.76696 0.22024 0.0
C4 C 0.10722 0.7995 0.27587 0.0
O5 O 0.08205 0.77106 0.25542 0.0
C6 C 0.88176 0.79299 0.18635 0.0
O7 O 0.97108 0.76009 0.35339 0.0
O8 O 0.96464 0.8181 0.36401 0.0
N9 N 0.00775 0.71297 0.19629 0.0
C10 C 0.97324 0.68586 0.17415 0.0
C11 C 0.05789 0.66939 0.14787 0.0
N12 N 0.06025 0.7023 0.18026 0.0
N13 N 0.00371 0.65824 0.14194 0.0
C14 C 0.00611 0.90875 0.20015 0.0
C15 C 0.93829 0.92961 0.27606 0.0
N16 N 0.98209 0.88123 0.24359 0.0
N17 N 0.94006 0.89447 0.29085 0.0
N18 N 0.97888 0.93939 0.21841 0.0
H19 H 0.08332 0.88238 0.16188 0.0
H20 H 0.08423 0.92992 0.14917 0.0
H21 H 0.04407 0.90349 0.07431 0.0
C22 C 0.05772 0.90586 0.14349 0.0
C23 C 0.91066 0.68577 0.19075 0.0
H24 H 0.90118 0.70102 0.25085 0.0
H25 H 0.89465 0.65846 0.19957 0.0
H26 H 0.8885 0.69838 0.13449 0.0
O27 O 0.91066 0.76471 0.18846 0.0
O28 O 0.90619 0.82263 0.19598 0.0
C29 C 0.95682 0.78742 0.39691 0.0
O30 O 0.01796 0.83278 0.10265 0.0
O31 O 0.01757 0.77531 0.08831 0.0
Zn32 Zn 0.50177 0.26264 0.23036 0.0
O33 O 0.41534 0.25908 0.2652 0.0
C34 C 0.46949 0.29541 0.0603 0.0
Zn35 Zn 0.49848 0.32237 0.23614 0.0
C36 C 0.38685 0.2869 0.281 0.0
O37 O 0.41092 0.31699 0.275 0.0
C38 C 0.61296 0.29727 0.19545 0.0
O39 O 0.5258 0.31939 0.36824 0.0
O40 O 0.52637 0.26114 0.36431 0.0
N41 N 0.49208 0.37742 0.23914 0.0
C42 C 0.50429 0.40261 0.17833 0.0
C43 C 0.47017 0.42886 0.28938 0.0
N44 N 0.47084 0.39397 0.30794 0.0
N45 N 0.49045 0.43515 0.20799 0.0
C46 C 0.47798 0.18352 0.17504 0.0
C47 C 0.55697 0.1591 0.20635 0.0
N48 N 0.50983 0.20798 0.21679 0.0
N49 N 0.5587 0.19247 0.23644 0.0
N50 N 0.50677 0.15271 0.1674 0.0
H51 H 0.4094 0.21865 0.13676 0.0
H52 H 0.38822 0.17559 0.17383 0.0
H53 H 0.41954 0.18054 0.06741 0.0
C54 C 0.42067 0.19036 0.13578 0.0
C55 C 0.53238 0.39559 0.09198 0.0
H56 H 0.56298 0.41692 0.07591 0.0
H57 H 0.49959 0.3952 0.04002 0.0
H58 H 0.55473 0.36993 0.09201 0.0
O59 O 0.58477 0.32573 0.20214 0.0
O60 O 0.58776 0.26773 0.19987 0.0
C61 C 0.53674 0.28977 0.40487 0.0
O62 O 0.47965 0.26594 0.09706 0.0
O63 O 0.47377 0.32356 0.10432 0.0
Zn64 Zn -0.00255 0.32759 0.77587 0.0
O65 O 0.91083 0.32451 0.73557 0.0
C66 C 0.96866 0.30473 0.95692 0.0
Zn67 Zn 0.00221 0.26812 0.79336 0.0
C68 C 0.8864 0.29449 0.7375 0.0
O69 O 0.91454 0.26718 0.76044 0.0
C70 C 0.11265 0.301 0.82263 0.0
O71 O 0.02589 0.26359 0.65933 0.0
O72 O 0.02594 0.32167 0.64503 0.0
N73 N 0.00153 0.21313 0.8138 0.0
C74 C 0.01687 0.19365 0.88488 0.0
C75 C 0.97478 0.15892 0.79749 0.0
N76 N 0.9757 0.19127 0.7595 0.0
N77 N -0.00014 0.15962 0.87691 0.0
C78 C 0.96763 0.40801 0.80725 0.0
C79 C 0.04395 0.43262 0.76405 0.0
N80 N -0.00046 0.38269 0.76848 0.0
N81 N 0.04661 0.39836 0.74099 0.0
N82 N -0.00517 0.43948 0.80598 0.0
H83 H 0.89908 0.37362 0.84893 0.0
H84 H 0.87877 0.418 0.82112 0.0
H85 H 0.9153 0.41001 0.9219 0.0
C86 C 0.91215 0.40159 0.85256 0.0
C87 C 0.05066 0.20753 0.96043 0.0
H88 H 0.07848 0.22949 0.94002 0.0
H89 H 0.07715 0.18628 0.9898 0.0
H90 H 0.02145 0.21747 1.01137 0.0
O91 O 0.08879 0.271 0.82143 0.0
O92 O 0.08318 0.32879 0.81216 0.0
C93 C 0.03663 0.2912 0.61377 0.0
O94 O 0.97211 0.33166 0.90739 0.0
O95 O 0.98032 0.27455 0.92612 0.0
Zn96 Zn 0.49632 0.82283 0.77859 0.0
O97 O 0.46792 0.82254 0.6481 0.0
C98 C 0.38152 0.7978 0.82218 0.0
Zn99 Zn 0.49122 0.76295 0.78445 0.0
C100 C 0.4558 0.79344 0.61087 0.0
O101 O 0.46548 0.76406 0.65012 0.0
C102 C 0.52535 0.79403 0.95382 0.0
O103 O 0.57701 0.75894 0.74774 0.0
O104 O 0.5835 0.81667 0.73693 0.0
N105 N 0.48311 0.70785 0.79762 0.0
C106 C 0.51151 0.68504 0.85073 0.0
C107 C 0.43847 0.65798 0.80474 0.0
N108 N 0.43795 0.6907 0.76874 0.0
N109 N 0.48391 0.65373 0.85756 0.0
C110 C 0.47302 0.90468 0.80965 0.0
C111 C 0.55803 0.92304 0.81887 0.0
N112 N 0.50724 0.87771 0.78478 0.0
N113 N 0.55993 0.88956 0.79001 0.0
N114 N 0.50403 0.93338 0.83342 0.0
H115 H 0.3964 0.88642 0.74873 0.0
H116 H 0.39185 0.93031 0.79305 0.0
H117 H 0.39222 0.89245 0.86578 0.0
C118 C 0.40962 0.90349 0.80386 0.0
C119 C 0.56763 0.69279 0.8928 0.0
H120 H 0.59262 0.71155 0.85284 0.0
H121 H 0.59252 0.66813 0.90178 0.0
H122 H 0.56077 0.70465 0.95795 0.0
O123 O 0.51409 0.76475 0.91804 0.0
O124 O 0.52182 0.82214 0.90883 0.0
C125 C 0.60641 0.78625 0.73082 0.0
O126 O 0.41035 0.82606 0.81649 0.0
O127 O 0.40604 0.76808 0.81629 0.0
H128 H 0.06232 0.47122 0.92489 0.0
H129 H 0.89972 0.47999 0.79478 0.0
H130 H 0.88046 0.53581 0.87408 0.0
H131 H 0.01558 0.50565 0.13666 0.0
H132 H 0.08145 0.52841 0.15624 0.0
H133 H 0.08091 0.48881 0.0915 0.0
H134 H 0.12959 0.52238 0.96347 0.0
H135 H 0.13041 0.56201 0.02783 0.0
H136 H 0.09755 0.56225 0.92115 0.0
H137 H 0.88395 0.59395 0.95901 0.0
H138 H 0.90708 0.64676 0.04488 0.0
H139 H 0.06438 0.59758 0.12918 0.0
C140 C 0.02253 0.48487 0.91372 0.0
C141 C 0.98222 0.47125 0.85426 0.0
C142 C 0.93063 0.48972 0.84109 0.0
C143 C 0.91958 0.5215 0.88559 0.0
C144 C 0.96032 0.53427 0.94388 0.0
C145 C 0.01058 0.51627 0.95854 0.0
C146 C 0.04774 0.53562 0.02358 0.0
C147 C 0.05694 0.51329 0.10694 0.0
C148 C 0.10467 0.54619 0.98147 0.0
C149 C 0.01118 0.56772 0.04218 0.0
C150 C 0.96096 0.56657 0.99557 0.0
C151 C 0.9224 0.59457 0.99775 0.0
C152 C 0.93556 0.62444 0.04831 0.0
C153 C 0.98648 0.62607 0.09789 0.0
C154 C 0.0244 0.59699 0.09427 0.0
H155 H 0.46831 0.45455 0.03685 0.0
H156 H 0.52376 0.49472 0.28794 0.0
H157 H 0.5307 0.55466 0.22398 0.0
H158 H 0.56018 0.51103 0.90099 0.0
H159 H 0.50742 0.51703 0.81664 0.0
H160 H 0.5084 0.47702 0.88128 0.0
H161 H 0.40358 0.48751 0.9252 0.0
H162 H 0.40232 0.52762 0.86112 0.0
H163 H 0.38367 0.5286 0.97572 0.0
H164 H 0.52702 0.61056 0.13573 0.0
H165 H 0.51486 0.65877 0.02878 0.0
H166 H 0.46678 0.58331 0.83006 0.0
C167 C 0.48345 0.4757 0.07776 0.0
C168 C 0.49679 0.46965 0.16738 0.0
C169 C 0.51376 0.49863 0.21928 0.0
C170 C 0.51792 0.53276 0.1834 0.0
C171 C 0.50479 0.53778 0.09508 0.0
C172 C 0.488 0.51011 0.0427 0.0
C173 C 0.47489 0.52312 0.9502 0.0
C174 C 0.51513 0.50604 0.88332 0.0
C175 C 0.4124 0.51631 0.92671 0.0
C176 C 0.48666 0.56243 0.95903 0.0
C177 C 0.50386 0.57017 0.04331 0.0
C178 C 0.51498 0.60468 0.06897 0.0
C179 C 0.50882 0.63198 1.00703 0.0
C180 C 0.4926 0.6249 0.91937 0.0
C181 C 0.48067 0.58952 0.89578 0.0
H182 H 0.56395 0.99451 0.83771 0.0
H183 H 0.41238 0.94484 0.94257 0.0
H184 H 0.39209 0.99792 0.02836 0.0
H185 H 0.60579 1.03018 0.04046 0.0
H186 H 0.63553 0.07003 0.99452 0.0
H187 H 0.6336 1.03038 0.93029 0.0
H188 H 0.57867 0.0635 0.80769 0.0
H189 H 0.58067 0.10335 0.87142 0.0
H190 H 0.51363 0.08624 0.8341 0.0
H191 H 0.39061 0.05645 0.11047 0.0
H192 H 0.41243 0.11241 0.1871 0.0
H193 H 0.56938 0.12131 0.04102 0.0
C194 C 0.5257 0.99504 0.87705 0.0
C195 C 0.48834 0.96568 0.87869 0.0
C196 C 0.44 0.96728 0.93435 0.0
C197 C 0.42852 0.99737 0.9851 0.0
C198 C 0.46635 1.02563 0.98176 0.0
C199 C 0.51433 1.02452 0.92968 0.0
C200 C 0.55119 0.05681 0.94403 0.0
C201 C 0.60999 1.0462 0.97944 0.0
C202 C 0.55632 0.07877 0.85926 0.0
C203 C 0.51674 0.07615 0.01279 0.0
C204 C 0.46744 0.05806 0.0328 0.0
C205 C 0.429 0.07084 0.09487 0.0
C206 C 0.44146 0.10271 0.13779 0.0
C207 C 0.49226 0.12123 0.11944 0.0
C208 C 0.53021 0.10764 0.05609 0.0
H209 H 0.00235 0.95929 0.0482 0.0
H210 H 0.96902 1.00007 0.30801 0.0
H211 H 0.97375 0.06099 0.24932 0.0
H212 H 0.10285 1.02893 0.98036 0.0
H213 H 0.07744 1.02987 0.86893 0.0
H214 H 0.07407 0.98953 0.9321 0.0
H215 H 0.96613 0.98565 0.90209 0.0
H216 H 0.96903 1.02608 0.83948 0.0
H217 H 0.92087 1.0222 0.93094 0.0
H218 H 0.97549 0.11714 0.16128 0.0
H219 H 0.97768 0.16495 0.05152 0.0
H220 H 0.01565 0.08919 0.84805 0.0
C221 C -0.00203 0.98097 0.09337 0.0
C222 C 0.98673 0.97478 0.18363 0.0
C223 C 0.97826 1.00414 0.23913 0.0
C224 C 0.98091 1.03883 0.20631 0.0
C225 C 0.992 1.044 0.11732 0.0
C226 C 0.00072 1.01593 0.06155 0.0
C227 C 0.01011 1.02893 0.96799 0.0
C228 C 0.06967 1.01871 0.93544 0.0
C229 C 0.96377 1.01488 0.90652 0.0
C230 C 0.00483 0.06865 0.97985 0.0
C231 C -0.00565 0.07664 0.06664 0.0
C232 C 0.98521 0.11125 0.09358 0.0
C233 C 0.98739 0.13844 0.03066 0.0
C234 C -0.00036 0.13128 0.94148 0.0
C235 C 0.00765 0.09567 0.91596 0.0
H236 H 0.37612 0.8427 0.57031 0.0
H237 H 0.44774 0.74368 0.48174 0.0
H238 H 0.37152 0.73913 0.37074 0.0
H239 H 0.23863 0.81407 0.56703 0.0
H240 H 0.20698 0.85537 0.53358 0.0
H241 H 0.27319 0.85517 0.59212 0.0
H242 H 0.32077 0.89111 0.46707 0.0
H243 H 0.2544 0.89191 0.40829 0.0
H244 H 0.31753 0.87514 0.35611 0.0
H245 H 0.28128 0.7411 0.28525 0.0
H246 H 0.18334 0.74863 0.23179 0.0
H247 H 0.16751 0.84553 0.37985 0.0
C248 C 0.37731 0.82089 0.52478 0.0
C249 C 0.41877 0.79399 0.53273 0.0
C250 C 0.41709 0.76489 0.4753 0.0
C251 C 0.37392 0.76212 0.41226 0.0
C252 C 0.33247 0.78849 0.40833 0.0
C253 C 0.33384 0.81738 0.46301 0.0
C254 C 0.28027 0.83945 0.45416 0.0
C255 C 0.24788 0.84109 0.54189 0.0
C256 C 0.29408 0.87661 0.4193 0.0
C257 C 0.24801 0.81819 0.38683 0.0
C258 C 0.27922 0.78911 0.36069 0.0
C259 C 0.25687 0.76405 0.30416 0.0
C260 C 0.20104 0.76851 0.27447 0.0
C261 C 0.16786 0.79778 0.30129 0.0
C262 C 0.19218 0.82327 0.35695 0.0
H263 H 0.11188 0.3399 0.55232 0.0
H264 H 0.04876 0.23433 0.50493 0.0
H265 H 0.12655 0.22453 0.39872 0.0
H266 H 0.17008 0.35879 0.32757 0.0
H267 H 0.23099 0.38095 0.37261 0.0
H268 H 0.16397 0.38217 0.42971 0.0
H269 H 0.21291 0.35707 0.56894 0.0
H270 H 0.27978 0.35515 0.51223 0.0
H271 H 0.25105 0.31589 0.56266 0.0
H272 H 0.21882 0.22301 0.31611 0.0
H273 H 0.31665 0.23019 0.26076 0.0
H274 H 0.32134 0.33634 0.36548 0.0
C275 C 0.11276 0.31532 0.51652 0.0
C276 C 0.07342 0.28813 0.53538 0.0
C277 C 0.07779 0.25572 0.49027 0.0
C278 C 0.12194 0.24992 0.43002 0.0
C279 C 0.16156 0.27673 0.41598 0.0
C280 C 0.15712 0.30892 0.45752 0.0
C281 C 0.20889 0.33168 0.44006 0.0
C282 C 0.19249 0.36539 0.38945 0.0
C283 C 0.23996 0.34044 0.52605 0.0
C284 C 0.24374 0.30704 0.38358 0.0
C285 C 0.21548 0.2756 0.36982 0.0
C286 C 0.24089 0.24774 0.32522 0.0
C287 C 0.29664 0.25201 0.29441 0.0
C288 C 0.3266 0.28389 0.30838 0.0
C289 C 0.29927 0.31188 0.35249 0.0
H290 H 0.82054 0.34176 0.64465 0.0
H291 H 0.81652 0.23822 0.76798 0.0
H292 H 0.71887 0.22949 0.71418 0.0
H293 H 0.66889 0.36462 0.67805 0.0
H294 H 0.66325 0.38555 0.5719 0.0
H295 H 0.73001 0.38572 0.62963 0.0
H296 H 0.77953 0.35696 0.49577 0.0
H297 H 0.71314 0.35706 0.43772 0.0
H298 H 0.75173 0.31635 0.45245 0.0
H299 H 0.62688 0.22869 0.6316 0.0
H300 H 0.54926 0.23562 0.52367 0.0
H301 H 0.61136 0.34014 0.45745 0.0
C302 C 0.79862 0.31761 0.66206 0.0
C303 C 0.82613 0.29077 0.711 0.0
C304 C 0.79637 0.2592 0.73068 0.0
C305 C 0.74071 0.25405 0.7008 0.0
C306 C 0.71513 0.28074 0.65139 0.0
C307 C 0.7431 0.31192 0.63216 0.0
C308 C 0.70819 0.33496 0.57093 0.0
C309 C 0.6916 0.36978 0.61531 0.0
C310 C 0.74004 0.3417 0.48413 0.0
C311 C 0.65681 0.31157 0.5574 0.0
C312 C 0.66141 0.2805 0.60486 0.0
C313 C 0.6221 0.25325 0.59569 0.0
C314 C 0.57803 0.25743 0.53446 0.0
C315 C 0.57341 0.2887 0.48363 0.0
C316 C 0.61242 0.31645 0.49757 0.0
H317 H 0.88452 0.83682 0.46306 0.0
H318 H 0.94055 0.72862 0.50052 0.0
H319 H 0.86201 0.71888 0.60561 0.0
H320 H 0.82793 0.85261 0.68919 0.0
H321 H 0.76862 0.87749 0.64664 0.0
H322 H 0.8356 0.87791 0.58933 0.0
H323 H 0.78476 0.85727 0.44821 0.0
H324 H 0.71788 0.85613 0.50503 0.0
H325 H 0.74376 0.81716 0.45077 0.0
H326 H 0.76968 0.71835 0.68796 0.0
H327 H 0.67269 0.7272 0.74454 0.0
H328 H 0.67516 0.83554 0.65022 0.0
C329 C 0.88194 0.8115 0.49622 0.0
C330 C 0.91949 0.78363 0.47474 0.0
C331 C 0.91295 0.75049 0.51698 0.0
C332 C 0.86834 0.74473 0.5766 0.0
C333 C 0.83054 0.77233 0.59308 0.0
C334 C 0.83718 0.80518 0.55461 0.0
C335 C 0.78711 0.82908 0.57448 0.0
C336 C 0.80595 0.86117 0.62813 0.0
C337 C 0.7566 0.84056 0.4896 0.0
C338 C 0.75059 0.80436 0.62875 0.0
C339 C 0.77664 0.77185 0.63933 0.0
C340 C 0.74938 0.74388 0.68139 0.0
C341 C 0.69408 0.74915 0.71298 0.0
C342 C 0.66632 0.78215 0.70236 0.0
C343 C 0.69549 0.8102 0.66066 0.0
H344 H 0.31321 0.85166 0.87765 0.0
H345 H 0.30976 0.74657 0.76734 0.0
H346 H 0.20557 0.74717 0.77103 0.0
H347 H 0.21783 0.83779 0.03143 0.0
H348 H 0.18369 0.88043 0.02742 0.0
H349 H 0.25541 0.87596 0.99054 0.0
H350 H 0.22623 0.90308 0.84035 0.0
H351 H 0.15358 0.9066 0.87697 0.0
H352 H 0.1701 0.88308 0.7778 0.0
H353 H 0.10809 0.75187 0.81895 0.0
H354 H 0.02969 0.75707 0.92451 0.0
H355 H 0.09188 0.85967 1.00126 0.0
C356 C 0.29024 0.82932 0.85197 0.0
C357 C 0.31924 0.79909 0.82292 0.0
C358 C 0.2882 0.76991 0.79115 0.0
C359 C 0.22895 0.77028 0.79124 0.0
C360 C 0.20125 0.8001 0.82271 0.0
C361 C 0.2309 0.82916 0.85262 0.0
C362 C 0.19205 0.85473 0.89909 0.0
C363 C 0.21349 0.8626 0.99259 0.0
C364 C 0.18507 0.8889 0.8453 0.0
C365 C 0.13757 0.83353 0.89955 0.0
C366 C 0.14294 0.80297 0.851 0.0
C367 C 0.1025 0.77615 0.85491 0.0
C368 C 0.05805 0.77927 0.91519 0.0
C369 C 0.05493 0.80885 0.97085 0.0
C370 C 0.0924 0.83735 0.95784 0.0
H371 H 0.18756 0.24859 0.86435 0.0
H372 H 0.17774 0.35907 0.78903 0.0
H373 H 0.28175 0.36351 0.79751 0.0
H374 H 0.28119 0.25801 0.02491 0.0
H375 H 0.31979 0.21755 1.00707 0.0
H376 H 0.2476 0.22117 0.97177 0.0
H377 H 0.27927 0.20434 0.81419 0.0
H378 H 0.35222 0.20179 0.84967 0.0
H379 H 0.3329 0.23016 0.75909 0.0
H380 H 0.37989 0.36031 0.84622 0.0
H381 H 0.45946 0.35164 0.94816 0.0
H382 H 0.41036 0.24253 0.98538 0.0
C383 C 0.20755 0.27346 0.84767 0.0
C384 C 0.17482 0.3035 0.82675 0.0
C385 C 0.20211 0.33576 0.80622 0.0
C386 C 0.26126 0.33837 0.80922 0.0
C387 C 0.29249 0.30841 0.83184 0.0
C388 C 0.26655 0.2765 0.85073 0.0
C389 C 0.30824 0.25012 0.88836 0.0
C390 C 0.28802 0.23596 0.97831 0.0
C391 C 0.31878 0.21981 0.82394 0.0
C392 C 0.3602 0.27331 0.89614 0.0
C393 C 0.351 0.30638 0.85949 0.0
C394 C 0.38839 0.3343 0.87292 0.0
C395 C 0.4335 0.3292 0.93116 0.0
C396 C 0.44028 0.29656 0.97529 0.0
C397 C 0.40637 0.26759 0.95159 0.0
H398 H 0.68132 0.35114 0.13981 0.0
H399 H 0.68442 0.24504 0.2481 0.0
H400 H 0.78864 0.24493 0.24226 0.0
H401 H 0.77575 0.33735 0.98331 0.0
H402 H 0.81032 0.37974 0.98682 0.0
H403 H 0.73876 0.37549 0.02474 0.0
H404 H 0.76916 0.4016 0.1745 0.0
H405 H 0.8416 0.40489 0.13677 0.0
H406 H 0.82548 0.38089 0.23618 0.0
H407 H 0.88606 0.24961 0.19393 0.0
H408 H 0.96418 0.25525 0.0885 0.0
H409 H 0.90303 0.35886 0.01303 0.0
C410 C 0.70431 0.32837 0.16441 0.0
C411 C 0.67521 0.29808 0.19373 0.0
C412 C 0.70611 0.26841 0.22426 0.0
C413 C 0.76537 0.26836 0.22289 0.0
C414 C 0.79316 0.29825 0.19123 0.0
C415 C 0.76365 0.32776 0.16226 0.0
C416 C 0.80247 0.35338 0.11524 0.0
C417 C 0.78055 0.36191 0.02207 0.0
C418 C 0.81013 0.38719 0.16892 0.0
C419 C 0.85675 0.33188 0.11385 0.0
C420 C 0.85128 0.30099 0.16208 0.0
C421 C 0.89158 0.27407 0.15788 0.0
C422 C 0.93589 0.27741 0.09742 0.0
C423 C 0.93899 0.30728 0.04165 0.0
C424 C 0.90191 0.33596 0.05546 0.0
H425 H 0.80696 0.84535 0.14296 0.0
H426 H 0.81641 0.73605 0.22759 0.0
H427 H 0.71258 0.73177 0.22279 0.0
H428 H 0.661 0.86519 0.24901 0.0
H429 H 0.64132 0.89224 0.15615 0.0
H430 H 0.71432 0.89046 0.1917 0.0
H431 H 0.74611 0.87168 0.03574 0.0
H432 H 0.67394 0.87446 1.00008 0.0
H433 H 0.71306 0.83393 0.98576 0.0
H434 H 0.61381 0.73438 0.1784 0.0
H435 H 0.53386 0.7408 0.07593 0.0
H436 H 0.58462 0.84857 0.02111 0.0
C437 C 0.78684 0.82085 0.16249 0.0
C438 C 0.81952 0.79096 0.18448 0.0
C439 C 0.79217 0.75914 0.20883 0.0
C440 C 0.73305 0.75669 0.20829 0.0
C441 C 0.70175 0.78637 0.1841 0.0
C442 C 0.72772 0.81792 0.1614 0.0
C443 C 0.68579 0.84358 0.12144 0.0
C444 C 0.67496 0.87471 0.1833 0.0
C445 C 0.7059 0.85659 0.0304 0.0
C446 C 0.63402 0.82006 0.11581 0.0
C447 C 0.64313 0.78785 0.1569 0.0
C448 C 0.60557 0.7597 0.14761 0.0
C449 C 0.56047 0.76344 0.08873 0.0
C450 C 0.55447 0.79479 0.03899 0.0
C451 C 0.58834 0.82434 0.05872 0.0
loop_
_geom_bond_atom_site_label_1
_geom_bond_atom_site_label_2
_geom_bond_distance
_geom_bond_site_symmetry_2
_ccdc_geom_bond_type
Zn0 O1 2.055 1_655 S
Zn0 O8 2.046 . S
Zn0 N16 2.036 . S
Zn0 O28 2.053 . S
Zn0 O30 2.066 1_655 S
O1 Zn0 2.055 1_455 S
O1 C4 1.259 . S
C2 O30 1.256 . S
C2 O31 1.244 . S
Zn3 O5 2.046 . S
Zn3 O7 2.055 1_455 S
Zn3 N9 2.036 . S
Zn3 O27 2.066 1_455 S
Zn3 O31 2.053 . S
C4 O1 1.259 . S
C4 O5 1.254 . S
O5 Zn3 2.046 . S
O5 C4 1.254 . S
C6 O27 1.256 . S
C6 O28 1.244 . S
O7 Zn3 2.055 1_655 S
O7 C29 1.259 . S
O8 Zn0 2.046 . S
O8 C29 1.254 . S
N9 Zn3 2.036 . S
N9 C10 1.298 1_455 S
N9 N12 1.398 . S
C10 N9 1.298 1_655 S
C10 N13 1.367 . S
C10 C23 1.481 . S
C11 N12 1.299 . S
C11 N13 1.379 1_455 S
N12 N9 1.398 . S
N12 C11 1.299 . S
N13 C10 1.367 . S
N13 C11 1.379 1_655 S
C14 N16 1.298 1_455 S
C14 N18 1.367 . S
C14 C22 1.481 . S
C15 N17 1.299 . S
C15 N18 1.379 1_655 S
N16 Zn0 2.036 . S
N16 C14 1.298 1_655 S
N16 N17 1.398 . S
N17 C15 1.299 . S
N17 N16 1.398 . S
N18 C14 1.367 . S
N18 C15 1.379 1_455 S
H19 C22 0.980 . S
H20 C22 0.981 . S
H21 C22 0.981 . S
C22 C14 1.481 . S
C22 H19 0.980 . S
C22 H20 0.981 . S
C22 H21 0.981 . S
C23 C10 1.481 . S
C23 H24 0.980 . S
C23 H25 0.981 . S
C23 H26 0.981 . S
H24 C23 0.980 . S
H25 C23 0.981 . S
H26 C23 0.981 . S
O27 Zn3 2.066 1_655 S
O27 C6 1.256 . S
O28 Zn0 2.053 . S
O28 C6 1.244 . S
C29 O7 1.259 . S
C29 O8 1.254 . S
O30 Zn0 2.066 1_455 S
O30 C2 1.256 . S
O31 C2 1.244 . S
O31 Zn3 2.053 . S
Zn32 O33 2.055 . S
Zn32 O40 2.046 . S
Zn32 N48 2.036 . S
Zn32 O60 2.053 . S
Zn32 O62 2.066 . S
O33 Zn32 2.055 . S
O33 C36 1.259 . S
C34 O62 1.256 . S
C34 O63 1.244 . S
Zn35 O37 2.046 . S
Zn35 O39 2.055 . S
Zn35 N41 2.036 . S
Zn35 O59 2.066 . S
Zn35 O63 2.053 . S
C36 O33 1.259 . S
C36 O37 1.254 . S
O37 Zn35 2.046 . S
O37 C36 1.254 . S
C38 O59 1.256 . S
C38 O60 1.244 . S
O39 Zn35 2.055 . S
O39 C61 1.259 . S
O40 Zn32 2.046 . S
O40 C61 1.254 . S
N41 Zn35 2.036 . S
N41 C42 1.298 . S
N41 N44 1.398 . S
C42 N41 1.298 . S
C42 N45 1.367 . S
C42 C55 1.481 . S
C43 N44 1.299 . S
C43 N45 1.379 . S
N44 N41 1.398 . S
N44 C43 1.299 . S
N45 C42 1.367 . S
N45 C43 1.379 . S
C46 N48 1.298 . S
C46 N50 1.367 . S
C46 C54 1.481 . S
C47 N49 1.299 . S
C47 N50 1.379 . S
N48 Zn32 2.036 . S
N48 C46 1.298 . S
N48 N49 1.398 . S
N49 C47 1.299 . S
N49 N48 1.398 . S
N50 C46 1.367 . S
N50 C47 1.379 . S
H51 C54 0.980 . S
H52 C54 0.981 . S
H53 C54 0.981 . S
C54 C46 1.481 . S
C54 H51 0.980 . S
C54 H52 0.981 . S
C54 H53 0.981 . S
C55 C42 1.481 . S
C55 H56 0.980 . S
C55 H57 0.981 . S
C55 H58 0.981 . S
H56 C55 0.980 . S
H57 C55 0.981 . S
H58 C55 0.981 . S
O59 Zn35 2.066 . S
O59 C38 1.256 . S
O60 Zn32 2.053 . S
O60 C38 1.244 . S
C61 O39 1.259 . S
C61 O40 1.254 . S
O62 Zn32 2.066 . S
O62 C34 1.256 . S
O63 C34 1.244 . S
O63 Zn35 2.053 . S
Zn64 O65 2.055 1_455 S
Zn64 O72 2.046 . S
Zn64 N80 2.036 . S
Zn64 O92 2.053 . S
Zn64 O94 2.066 1_455 S
O65 Zn64 2.055 1_655 S
O65 C68 1.259 . S
C66 O94 1.256 . S
C66 O95 1.244 . S
Zn67 O69 2.046 . S
Zn67 O71 2.055 1_655 S
Zn67 N73 2.036 . S
Zn67 O91 2.066 1_655 S
Zn67 O95 2.053 . S
C68 O65 1.259 . S
C68 O69 1.254 . S
O69 Zn67 2.046 . S
O69 C68 1.254 . S
C70 O91 1.256 . S
C70 O92 1.244 . S
O71 Zn67 2.055 1_455 S
O71 C93 1.259 . S
O72 Zn64 2.046 . S
O72 C93 1.254 . S
N73 Zn67 2.036 . S
N73 C74 1.298 1_655 S
N73 N76 1.398 . S
C74 N73 1.298 1_455 S
C74 N77 1.367 . S
C74 C87 1.481 . S
C75 N76 1.299 . S
C75 N77 1.379 1_655 S
N76 N73 1.398 . S
N76 C75 1.299 . S
N77 C74 1.367 . S
N77 C75 1.379 1_455 S
C78 N80 1.298 1_655 S
C78 N82 1.367 . S
C78 C86 1.481 . S
C79 N81 1.299 . S
C79 N82 1.379 1_455 S
N80 Zn64 2.036 . S
N80 C78 1.298 1_455 S
N80 N81 1.398 . S
N81 C79 1.299 . S
N81 N80 1.398 . S
N82 C78 1.367 . S
N82 C79 1.379 1_655 S
H83 C86 0.980 . S
H84 C86 0.981 . S
H85 C86 0.981 . S
C86 C78 1.481 . S
C86 H83 0.980 . S
C86 H84 0.981 . S
C86 H85 0.981 . S
C87 C74 1.481 . S
C87 H88 0.980 . S
C87 H89 0.981 . S
C87 H90 0.981 . S
H88 C87 0.980 . S
H89 C87 0.981 . S
H90 C87 0.981 . S
O91 Zn67 2.066 1_455 S
O91 C70 1.256 . S
O92 Zn64 2.053 . S
O92 C70 1.244 . S
C93 O71 1.259 . S
C93 O72 1.254 . S
O94 Zn64 2.066 1_655 S
O94 C66 1.256 . S
O95 C66 1.244 . S
O95 Zn67 2.053 . S
Zn96 O97 2.055 . S
Zn96 O104 2.046 . S
Zn96 N112 2.036 . S
Zn96 O124 2.053 . S
Zn96 O126 2.066 . S
O97 Zn96 2.055 . S
O97 C100 1.259 . S
C98 O126 1.256 . S
C98 O127 1.244 . S
Zn99 O101 2.046 . S
Zn99 O103 2.055 . S
Zn99 N105 2.036 . S
Zn99 O123 2.066 . S
Zn99 O127 2.053 . S
C100 O97 1.259 . S
C100 O101 1.254 . S
O101 Zn99 2.046 . S
O101 C100 1.254 . S
C102 O123 1.256 . S
C102 O124 1.244 . S
O103 Zn99 2.055 . S
O103 C125 1.259 . S
O104 Zn96 2.046 . S
O104 C125 1.254 . S
N105 Zn99 2.036 . S
N105 C106 1.298 . S
N105 N108 1.398 . S
C106 N105 1.298 . S
C106 N109 1.367 . S
C106 C119 1.481 . S
C107 N108 1.299 . S
C107 N109 1.379 . S
N108 N105 1.398 . S
N108 C107 1.299 . S
N109 C106 1.367 . S
N109 C107 1.379 . S
C110 N112 1.298 . S
C110 N114 1.367 . S
C110 C118 1.481 . S
C111 N113 1.299 . S
C111 N114 1.379 . S
N112 Zn96 2.036 . S
N112 C110 1.298 . S
N112 N113 1.398 . S
N113 C111 1.299 . S
N113 N112 1.398 . S
N114 C110 1.367 . S
N114 C111 1.379 . S
H115 C118 0.980 . S
H116 C118 0.981 . S
H117 C118 0.981 . S
C118 C110 1.481 . S
C118 H115 0.980 . S
C118 H116 0.981 . S
C118 H117 0.981 . S
C119 C106 1.481 . S
C119 H120 0.980 . S
C119 H121 0.981 . S
C119 H122 0.981 . S
H120 C119 0.980 . S
H121 C119 0.981 . S
H122 C119 0.981 . S
O123 Zn99 2.066 . S
O123 C102 1.256 . S
O124 Zn96 2.053 . S
O124 C102 1.244 . S
C125 O103 1.259 . S
C125 O104 1.254 . S
O126 Zn96 2.066 . S
O126 C98 1.256 . S
O127 C98 1.244 . S
O127 Zn99 2.053 . S
H128 C140 0.930 . S
H129 C142 0.930 . S
H130 C143 0.930 . S
H131 C147 0.959 . S
H132 C147 0.959 . S
H133 C147 0.961 . S
H134 C148 0.960 . S
H135 C148 0.961 1_554 S
H136 C148 0.959 . S
H137 C151 0.929 1_556 S
H138 C152 0.931 . S
H139 C154 0.930 . S
C140 H128 0.930 . S
C140 C141 1.399 1_455 S
C140 C145 1.399 . S
C141 C140 1.399 1_655 S
C141 C142 1.376 . S
C142 H129 0.930 . S
C142 C141 1.376 . S
C142 C143 1.388 . S
C143 H130 0.930 . S
C143 C142 1.388 . S
C143 C144 1.390 . S
C144 C143 1.390 . S
C144 C145 1.394 1_655 S
C144 C150 1.465 1_556 S
C145 C140 1.399 . S
C145 C144 1.394 1_455 S
C145 C146 1.516 1_556 S
C146 C145 1.516 1_554 S
C146 C147 1.502 . S
C146 C148 1.561 1_554 S
C146 C149 1.526 . S
C147 H131 0.959 . S
C147 H132 0.959 . S
C147 H133 0.961 . S
C147 C146 1.502 . S
C148 H134 0.960 . S
C148 H135 0.961 1_556 S
C148 H136 0.959 . S
C148 C146 1.561 1_556 S
C149 C146 1.526 . S
C149 C150 1.396 1_455 S
C149 C154 1.390 . S
C150 C144 1.465 1_554 S
C150 C149 1.396 1_655 S
C150 C151 1.399 . S
C151 H137 0.929 1_554 S
C151 C150 1.399 . S
C151 C152 1.385 . S
C152 H138 0.931 . S
C152 C151 1.385 . S
C152 C153 1.389 . S
C153 C152 1.389 . S
C153 C154 1.387 1_655 S
C154 H139 0.930 . S
C154 C149 1.390 . S
C154 C153 1.387 1_455 S
H155 C167 0.930 . S
H156 C169 0.930 . S
H157 C170 0.930 . S
H158 C174 0.959 . S
H159 C174 0.959 . S
H160 C174 0.961 . S
H161 C175 0.960 . S
H162 C175 0.961 . S
H163 C175 0.959 . S
H164 C178 0.929 . S
H165 C179 0.931 . S
H166 C181 0.930 . S
C167 H155 0.930 . S
C167 C168 1.399 . S
C167 C172 1.399 . S
C168 C167 1.399 . S
C168 C169 1.376 . S
C169 H156 0.930 . S
C169 C168 1.376 . S
C169 C170 1.388 . S
C170 H157 0.930 . S
C170 C169 1.388 . S
C170 C171 1.390 . S
C171 C170 1.390 . S
C171 C172 1.394 . S
C171 C177 1.465 . S
C172 C167 1.399 . S
C172 C171 1.394 . S
C172 C173 1.516 1_554 S
C173 C172 1.516 1_556 S
C173 C174 1.502 . S
C173 C175 1.561 . S
C173 C176 1.526 . S
C174 H158 0.959 . S
C174 H159 0.959 . S
C174 H160 0.961 . S
C174 C173 1.502 . S
C175 H161 0.960 . S
C175 H162 0.961 . S
C175 H163 0.959 . S
C175 C173 1.561 . S
C176 C173 1.526 . S
C176 C177 1.396 1_556 S
C176 C181 1.390 . S
C177 C171 1.465 . S
C177 C176 1.396 1_554 S
C177 C178 1.399 . S
C178 H164 0.929 . S
C178 C177 1.399 . S
C178 C179 1.385 1_554 S
C179 H165 0.931 . S
C179 C178 1.385 1_556 S
C179 C180 1.389 . S
C180 C179 1.389 . S
C180 C181 1.387 . S
C181 H166 0.930 . S
C181 C176 1.390 . S
C181 C180 1.387 . S
H182 C194 0.930 . S
H183 C196 0.930 . S
H184 C197 0.930 . S
H185 C201 0.959 . S
H186 C201 0.959 . S
H187 C201 0.961 . S
H188 C202 0.960 . S
H189 C202 0.961 . S
H190 C202 0.959 . S
H191 C205 0.929 . S
H192 C206 0.931 . S
H193 C208 0.930 . S
C194 H182 0.930 . S
C194 C195 1.399 . S
C194 C199 1.399 . S
C195 C194 1.399 . S
C195 C196 1.376 . S
C196 H183 0.930 . S
C196 C195 1.376 . S
C196 C197 1.388 1_556 S
C197 H184 0.930 . S
C197 C196 1.388 1_554 S
C197 C198 1.390 1_554 S
C198 C197 1.390 1_556 S
C198 C199 1.394 . S
C198 C204 1.465 1_566 S
C199 C194 1.399 . S
C199 C198 1.394 . S
C199 C200 1.516 1_565 S
C200 C199 1.516 1_545 S
C200 C201 1.502 . S
C200 C202 1.561 . S
C200 C203 1.526 1_556 S
C201 H185 0.959 . S
C201 H186 0.959 . S
C201 H187 0.961 . S
C201 C200 1.502 . S
C202 H188 0.960 . S
C202 H189 0.961 . S
C202 H190 0.959 . S
C202 C200 1.561 . S
C203 C200 1.526 1_554 S
C203 C204 1.396 . S
C203 C208 1.390 . S
C204 C198 1.465 1_544 S
C204 C203 1.396 . S
C204 C205 1.399 . S
C205 H191 0.929 . S
C205 C204 1.399 . S
C205 C206 1.385 . S
C206 H192 0.931 . S
C206 C205 1.385 . S
C206 C207 1.389 . S
C207 C206 1.389 . S
C207 C208 1.387 . S
C208 H193 0.930 . S
C208 C203 1.390 . S
C208 C207 1.387 . S
H209 C221 0.930 . S
H210 C223 0.930 . S
H211 C224 0.930 . S
H212 C228 0.959 1_544 S
H213 C228 0.959 1_545 S
H214 C228 0.962 . S
H215 C229 0.960 . S
H216 C229 0.961 . S
H217 C229 0.959 . S
H218 C232 0.929 1_554 S
H219 C233 0.931 . S
H220 C235 0.930 . S
C221 H209 0.930 . S
C221 C222 1.399 . S
C221 C226 1.399 . S
C222 C221 1.399 . S
C222 C223 1.376 1_455 S
C223 H210 0.930 . S
C223 C222 1.376 1_655 S
C223 C224 1.388 . S
C224 H211 0.930 . S
C224 C223 1.388 . S
C224 C225 1.390 . S
C225 C224 1.390 . S
C225 C226 1.394 1_655 S
C225 C231 1.465 1_564 S
C226 C221 1.399 . S
C226 C225 1.394 1_455 S
C226 C227 1.516 1_554 S
C227 C226 1.516 1_556 S
C227 C228 1.502 . S
C227 C229 1.561 . S
C227 C230 1.526 1_565 S
C228 H212 0.959 1_566 S
C228 H213 0.959 1_565 S
C228 H214 0.962 . S
C228 C227 1.502 . S
C229 H215 0.960 . S
C229 H216 0.961 . S
C229 H217 0.959 . S
C229 C227 1.561 . S
C230 C227 1.526 1_545 S
C230 C231 1.396 1_455 S
C230 C235 1.390 . S
C231 C225 1.465 1_546 S
C231 C230 1.396 1_655 S
C231 C232 1.399 . S
C232 H218 0.929 1_556 S
C232 C231 1.399 . S
C232 C233 1.385 . S
C233 H219 0.931 . S
C233 C232 1.385 . S
C233 C234 1.389 1_655 S
C234 C233 1.389 1_455 S
C234 C235 1.387 . S
C235 H220 0.930 . S
C235 C230 1.390 . S
C235 C234 1.387 . S
H236 C248 0.930 . S
H237 C250 0.930 . S
H238 C251 0.930 . S
H239 C255 0.959 . S
H240 C255 0.959 . S
H241 C255 0.961 . S
H242 C256 0.960 . S
H243 C256 0.961 . S
H244 C256 0.959 . S
H245 C259 0.929 . S
H246 C260 0.931 . S
H247 C262 0.930 . S
C248 H236 0.930 . S
C248 C249 1.399 . S
C248 C253 1.399 . S
C249 C248 1.399 . S
C249 C250 1.376 . S
C250 H237 0.930 . S
C250 C249 1.376 . S
C250 C251 1.388 . S
C251 H238 0.930 . S
C251 C250 1.388 . S
C251 C252 1.390 . S
C252 C251 1.390 . S
C252 C253 1.394 . S
C252 C258 1.465 . S
C253 C248 1.399 . S
C253 C252 1.394 . S
C253 C254 1.516 . S
C254 C253 1.516 . S
C254 C255 1.502 . S
C254 C256 1.561 . S
C254 C257 1.526 . S
C255 H239 0.959 . S
C255 H240 0.959 . S
C255 H241 0.961 . S
C255 C254 1.502 . S
C256 H242 0.960 . S
C256 H243 0.961 . S
C256 H244 0.959 . S
C256 C254 1.561 . S
C257 C254 1.526 . S
C257 C258 1.396 . S
C257 C262 1.390 . S
C258 C252 1.465 . S
C258 C257 1.396 . S
C258 C259 1.399 . S
C259 H245 0.929 . S
C259 C258 1.399 . S
C259 C260 1.385 . S
C260 H246 0.931 . S
C260 C259 1.385 . S
C260 C261 1.389 . S
C261 C260 1.389 . S
C261 C262 1.387 . S
C262 H247 0.930 . S
C262 C257 1.390 . S
C262 C261 1.387 . S
H263 C275 0.930 . S
H264 C277 0.930 . S
H265 C278 0.930 . S
H266 C282 0.959 . S
H267 C282 0.959 . S
H268 C282 0.961 . S
H269 C283 0.960 . S
H270 C283 0.961 . S
H271 C283 0.959 . S
H272 C286 0.929 . S
H273 C287 0.931 . S
H274 C289 0.930 . S
C275 H263 0.930 . S
C275 C276 1.399 . S
C275 C280 1.399 . S
C276 C275 1.399 . S
C276 C277 1.376 . S
C277 H264 0.930 . S
C277 C276 1.376 . S
C277 C278 1.388 . S
C278 H265 0.930 . S
C278 C277 1.388 . S
C278 C279 1.390 . S
C279 C278 1.390 . S
C279 C280 1.394 . S
C279 C285 1.465 . S
C280 C275 1.399 . S
C280 C279 1.394 . S
C280 C281 1.516 . S
C281 C280 1.516 . S
C281 C282 1.502 . S
C281 C283 1.561 . S
C281 C284 1.526 . S
C282 H266 0.959 . S
C282 H267 0.959 . S
C282 H268 0.961 . S
C282 C281 1.502 . S
C283 H269 0.960 . S
C283 H270 0.961 . S
C283 H271 0.959 . S
C283 C281 1.561 . S
C284 C281 1.526 . S
C284 C285 1.396 . S
C284 C289 1.390 . S
C285 C279 1.465 . S
C285 C284 1.396 . S
C285 C286 1.399 . S
C286 H272 0.929 . S
C286 C285 1.399 . S
C286 C287 1.385 . S
C287 H273 0.931 . S
C287 C286 1.385 . S
C287 C288 1.389 . S
C288 C287 1.389 . S
C288 C289 1.387 . S
C289 H274 0.930 . S
C289 C284 1.390 . S
C289 C288 1.387 . S
H290 C302 0.930 . S
H291 C304 0.930 . S
H292 C305 0.930 . S
H293 C309 0.959 . S
H294 C309 0.959 . S
H295 C309 0.961 . S
H296 C310 0.960 . S
H297 C310 0.961 . S
H298 C310 0.959 . S
H299 C313 0.929 . S
H300 C314 0.931 . S
H301 C316 0.930 . S
C302 H290 0.930 . S
C302 C303 1.399 . S
C302 C307 1.399 . S
C303 C302 1.399 . S
C303 C304 1.376 . S
C304 H291 0.930 . S
C304 C303 1.376 . S
C304 C305 1.388 . S
C305 H292 0.930 . S
C305 C304 1.388 . S
C305 C306 1.390 . S
C306 C305 1.390 . S
C306 C307 1.394 . S
C306 C312 1.465 . S
C307 C302 1.399 . S
C307 C306 1.394 . S
C307 C308 1.516 . S
C308 C307 1.516 . S
C308 C309 1.502 . S
C308 C310 1.561 . S
C308 C311 1.526 . S
C309 H293 0.959 . S
C309 H294 0.959 . S
C309 H295 0.961 . S
C309 C308 1.502 . S
C310 H296 0.960 . S
C310 H297 0.961 . S
C310 H298 0.959 . S
C310 C308 1.561 . S
C311 C308 1.526 . S
C311 C312 1.396 . S
C311 C316 1.390 . S
C312 C306 1.465 . S
C312 C311 1.396 . S
C312 C313 1.399 . S
C313 H299 0.929 . S
C313 C312 1.399 . S
C313 C314 1.385 . S
C314 H300 0.931 . S
C314 C313 1.385 . S
C314 C315 1.389 . S
C315 C314 1.389 . S
C315 C316 1.387 . S
C316 H301 0.930 . S
C316 C311 1.390 . S
C316 C315 1.387 . S
H317 C329 0.930 . S
H318 C331 0.930 . S
H319 C332 0.930 . S
H320 C336 0.959 . S
H321 C336 0.959 . S
H322 C336 0.961 . S
H323 C337 0.960 . S
H324 C337 0.961 . S
H325 C337 0.959 . S
H326 C340 0.929 . S
H327 C341 0.931 . S
H328 C343 0.930 . S
C329 H317 0.930 . S
C329 C330 1.399 . S
C329 C334 1.399 . S
C330 C329 1.399 . S
C330 C331 1.376 . S
C331 H318 0.930 . S
C331 C330 1.376 . S
C331 C332 1.388 . S
C332 H319 0.930 . S
C332 C331 1.388 . S
C332 C333 1.390 . S
C333 C332 1.390 . S
C333 C334 1.394 . S
C333 C339 1.465 . S
C334 C329 1.399 . S
C334 C333 1.394 . S
C334 C335 1.516 . S
C335 C334 1.516 . S
C335 C336 1.502 . S
C335 C337 1.561 . S
C335 C338 1.526 . S
C336 H320 0.959 . S
C336 H321 0.959 . S
C336 H322 0.961 . S
C336 C335 1.502 . S
C337 H323 0.960 . S
C337 H324 0.961 . S
C337 H325 0.959 . S
C337 C335 1.561 . S
C338 C335 1.526 . S
C338 C339 1.396 . S
C338 C343 1.390 . S
C339 C333 1.465 . S
C339 C338 1.396 . S
C339 C340 1.399 . S
C340 H326 0.929 . S
C340 C339 1.399 . S
C340 C341 1.385 . S
C341 H327 0.931 . S
C341 C340 1.385 . S
C341 C342 1.389 . S
C342 C341 1.389 . S
C342 C343 1.387 . S
C343 H328 0.930 . S
C343 C338 1.390 . S
C343 C342 1.387 . S
H344 C356 0.930 1_554 S
H345 C358 0.930 . S
H346 C359 0.930 . S
H347 C363 0.959 . S
H348 C363 0.959 . S
H349 C363 0.961 . S
H350 C364 0.960 . S
H351 C364 0.961 . S
H352 C364 0.959 1_556 S
H353 C367 0.929 . S
H354 C368 0.931 . S
H355 C370 0.930 . S
C356 H344 0.930 1_556 S
C356 C357 1.399 . S
C356 C361 1.399 1_556 S
C357 C356 1.399 . S
C357 C358 1.376 . S
C358 H345 0.930 . S
C358 C357 1.376 . S
C358 C359 1.388 . S
C359 H346 0.930 . S
C359 C358 1.388 . S
C359 C360 1.390 . S
C360 C359 1.390 . S
C360 C361 1.394 1_556 S
C360 C366 1.465 . S
C361 C356 1.399 1_554 S
C361 C360 1.394 1_554 S
C361 C362 1.516 . S
C362 C361 1.516 . S
C362 C363 1.502 . S
C362 C364 1.561 . S
C362 C365 1.526 . S
C363 H347 0.959 . S
C363 H348 0.959 . S
C363 H349 0.961 . S
C363 C362 1.502 . S
C364 H350 0.960 . S
C364 H351 0.961 . S
C364 H352 0.959 1_554 S
C364 C362 1.561 . S
C365 C362 1.526 . S
C365 C366 1.396 1_554 S
C365 C370 1.390 . S
C366 C360 1.465 . S
C366 C365 1.396 1_556 S
C366 C367 1.399 . S
C367 H353 0.929 . S
C367 C366 1.399 . S
C367 C368 1.385 . S
C368 H354 0.931 . S
C368 C367 1.385 . S
C368 C369 1.389 1_556 S
C369 C368 1.389 1_554 S
C369 C370 1.387 . S
C370 H355 0.930 . S
C370 C365 1.390 . S
C370 C369 1.387 . S
H371 C383 0.930 . S
H372 C385 0.930 . S
H373 C386 0.930 . S
H374 C390 0.959 . S
H375 C390 0.959 . S
H376 C390 0.961 . S
H377 C391 0.960 . S
H378 C391 0.961 . S
H379 C391 0.959 . S
H380 C394 0.929 . S
H381 C395 0.931 . S
H382 C397 0.930 . S
C383 H371 0.930 . S
C383 C384 1.399 . S
C383 C388 1.399 . S
C384 C383 1.399 . S
C384 C385 1.376 . S
C385 H372 0.930 . S
C385 C384 1.376 . S
C385 C386 1.388 . S
C386 H373 0.930 . S
C386 C385 1.388 . S
C386 C387 1.390 . S
C387 C386 1.390 . S
C387 C388 1.394 . S
C387 C393 1.465 . S
C388 C383 1.399 . S
C388 C387 1.394 . S
C388 C389 1.516 1_556 S
C389 C388 1.516 1_554 S
C389 C390 1.502 . S
C389 C391 1.561 1_554 S
C389 C392 1.526 . S
C390 H374 0.959 . S
C390 H375 0.959 . S
C390 H376 0.961 . S
C390 C389 1.502 . S
C391 H377 0.960 . S
C391 H378 0.961 . S
C391 H379 0.959 . S
C391 C389 1.561 1_556 S
C392 C389 1.526 . S
C392 C393 1.396 1_554 S
C392 C397 1.390 . S
C393 C387 1.465 . S
C393 C392 1.396 1_556 S
C393 C394 1.399 . S
C394 H380 0.929 . S
C394 C393 1.399 . S
C394 C395 1.385 1_556 S
C395 H381 0.931 . S
C395 C394 1.385 1_554 S
C395 C396 1.389 . S
C396 C395 1.389 . S
C396 C397 1.387 . S
C397 H382 0.930 . S
C397 C392 1.390 . S
C397 C396 1.387 . S
H398 C410 0.927 1_556 S
H399 C412 0.930 . S
H400 C413 0.930 . S
H401 C417 0.959 . S
H402 C417 0.959 . S
H403 C417 0.961 . S
H404 C418 0.960 . S
H405 C418 0.961 . S
H406 C418 0.959 . S
H407 C421 0.929 . S
H408 C422 0.932 . S
H409 C424 0.930 . S
C410 H398 0.927 1_554 S
C410 C411 1.399 . S
C410 C415 1.399 . S
C411 C410 1.399 . S
C411 C412 1.376 . S
C412 H399 0.930 . S
C412 C411 1.376 . S
C412 C413 1.388 . S
C413 H400 0.930 . S
C413 C412 1.388 . S
C413 C414 1.390 . S
C414 C413 1.390 . S
C414 C415 1.394 . S
C414 C420 1.465 . S
C415 C410 1.399 . S
C415 C414 1.394 . S
C415 C416 1.516 1_554 S
C416 C415 1.516 1_556 S
C416 C417 1.502 . S
C416 C418 1.561 1_556 S
C416 C419 1.526 . S
C417 H401 0.959 . S
C417 H402 0.959 . S
C417 H403 0.961 . S
C417 C416 1.502 . S
C418 H404 0.960 . S
C418 H405 0.961 . S
C418 H406 0.959 . S
C418 C416 1.561 1_554 S
C419 C416 1.526 . S
C419 C420 1.396 1_556 S
C419 C424 1.390 . S
C420 C414 1.465 . S
C420 C419 1.396 1_554 S
C420 C421 1.399 . S
C421 H407 0.929 . S
C421 C420 1.399 . S
C421 C422 1.385 1_554 S
C422 H408 0.932 . S
C422 C421 1.385 1_556 S
C422 C423 1.389 . S
C423 C422 1.389 . S
C423 C424 1.387 . S
C424 H409 0.930 . S
C424 C419 1.390 . S
C424 C423 1.387 . S
H425 C437 0.930 . S
H426 C439 0.930 . S
H427 C440 0.930 . S
H428 C444 0.959 . S
H429 C444 0.959 . S
H430 C444 0.961 . S
H431 C445 0.960 . S
H432 C445 0.961 . S
H433 C445 0.959 . S
H434 C448 0.929 . S
H435 C449 0.931 . S
H436 C451 0.930 . S
C437 H425 0.930 . S
C437 C438 1.399 . S
C437 C442 1.399 . S
C438 C437 1.399 . S
C438 C439 1.376 . S
C439 H426 0.930 . S
C439 C438 1.376 . S
C439 C440 1.388 1_554 S
C440 H427 0.930 . S
C440 C439 1.388 1_556 S
C440 C441 1.390 . S
C441 C440 1.390 . S
C441 C442 1.394 1_556 S
C441 C447 1.465 . S
C442 C437 1.399 . S
C442 C441 1.394 1_554 S
C442 C443 1.516 . S
C443 C442 1.516 . S
C443 C444 1.502 . S
C443 C445 1.561 1_554 S
C443 C446 1.526 1_554 S
C444 H428 0.959 . S
C444 H429 0.959 . S
C444 H430 0.961 . S
C444 C443 1.502 . S
C445 H431 0.960 . S
C445 H432 0.961 . S
C445 H433 0.959 . S
C445 C443 1.561 1_556 S
C446 C443 1.526 1_556 S
C446 C447 1.396 . S
C446 C451 1.390 . S
C447 C441 1.465 . S
C447 C446 1.396 . S
C447 C448 1.399 . S
C448 H434 0.929 . S
C448 C447 1.399 . S
C448 C449 1.385 . S
C449 H435 0.931 . S
C449 C448 1.385 . S
C449 C450 1.389 . S
C450 C449 1.389 . S
C450 C451 1.387 . S
C451 H436 0.930 . S
C451 C446 1.390 . S
C451 C450 1.387 . S
C141 N82 1.942 . S
C153 N13 1.924 . S
C168 N45 1.892 . S
C180 N109 1.875 . S
C195 N114 1.929 . S
C207 N50 1.943 . S
C222 N18 1.878 . S
C234 N77 1.875 . S
C249 C100 1.546 . S
C261 C4 1.556 . S
C276 C93 1.566 . S
C288 C36 1.550 . S
C303 C68 1.545 . S
C315 C61 1.558 . S
C330 C29 1.564 . S
C342 C125 1.555 . S
C357 C98 0.719 . S
C369 C2 0.811 . S
C384 C70 0.729 . S
C396 C34 0.799 . S
C411 C38 0.728 . S
C423 C66 0.799 . S
C438 C6 0.811 . S
C450 C102 0.756 . S
