# Generated by pormake.
# Topology uow, (4)-cn, num edge types: 1
# Building blocks:
#     Node 0, Type 0, BuildingBlock: KUFVIS_clean_sbu_0, # of connection points: 4
#     Node 1, Type 0, BuildingBlock: KUFVIS_clean_sbu_0, # of connection points: 4
#     Node 2, Type 0, BuildingBlock: KUFVIS_clean_sbu_0, # of connection points: 4
#     Node 3, Type 0, BuildingBlock: KUFVIS_clean_sbu_0, # of connection points: 4
#     Node 4, Type 0, BuildingBlock: KUFVIS_clean_sbu_0, # of connection points: 4
#     Node 5, Type 0, BuildingBlock: KUFVIS_clean_sbu_0, # of connection points: 4
#     Node 6, Type 0, BuildingBlock: KUFVIS_clean_sbu_0, # of connection points: 4
#     Node 7, Type 0, BuildingBlock: KUFVIS_clean_sbu_0, # of connection points: 4
#     Node 8, Type 0, BuildingBlock: KUFVIS_clean_sbu_0, # of connection points: 4
#     Node 9, Type 0, BuildingBlock: KUFVIS_clean_sbu_0, # of connection points: 4
#     Node 10, Type 0, BuildingBlock: KUFVIS_clean_sbu_0, # of connection points: 4
#     Node 11, Type 0, BuildingBlock: KUFVIS_clean_sbu_0, # of connection points: 4
#     Node 12, Type 0, BuildingBlock: KUFVIS_clean_sbu_0, # of connection points: 4
#     Node 13, Type 0, BuildingBlock: KUFVIS_clean_sbu_0, # of connection points: 4
#     Node 14, Type 0, BuildingBlock: KUFVIS_clean_sbu_0, # of connection points: 4
#     Node 15, Type 0, BuildingBlock: KUFVIS_clean_sbu_0, # of connection points: 4
#     Node 16, Type 0, BuildingBlock: KUFVIS_clean_sbu_0, # of connection points: 4
#     Node 17, Type 0, BuildingBlock: KUFVIS_clean_sbu_0, # of connection points: 4
#     Node 18, Type 0, BuildingBlock: KUFVIS_clean_sbu_0, # of connection points: 4
#     Node 19, Type 0, BuildingBlock: KUFVIS_clean_sbu_0, # of connection points: 4
#     Node 20, Type 0, BuildingBlock: KUFVIS_clean_sbu_0, # of connection points: 4
#     Node 21, Type 0, BuildingBlock: KUFVIS_clean_sbu_0, # of connection points: 4
#     Node 22, Type 0, BuildingBlock: KUFVIS_clean_sbu_0, # of connection points: 4
#     Node 23, Type 0, BuildingBlock: KUFVIS_clean_sbu_0, # of connection points: 4
#     Node 24, Type 0, BuildingBlock: KUFVIS_clean_sbu_0, # of connection points: 4
#     Node 25, Type 0, BuildingBlock: KUFVIS_clean_sbu_0, # of connection points: 4
#     Node 26, Type 0, BuildingBlock: KUFVIS_clean_sbu_0, # of connection points: 4
#     Node 27, Type 0, BuildingBlock: KUFVIS_clean_sbu_0, # of connection points: 4
#     Node 28, Type 0, BuildingBlock: KUFVIS_clean_sbu_0, # of connection points: 4
#     Node 29, Type 0, BuildingBlock: KUFVIS_clean_sbu_0, # of connection points: 4
#     Node 30, Type 0, BuildingBlock: KUFVIS_clean_sbu_0, # of connection points: 4
#     Node 31, Type 0, BuildingBlock: KUFVIS_clean_sbu_0, # of connection points: 4
#     Edge 32, Type (0, 0), BuildingBlock: OJICUG_clean_linker_0, # of connection points: 2
#     Edge 33, Type (0, 0), BuildingBlock: OJICUG_clean_linker_0, # of connection points: 2
#     Edge 34, Type (0, 0), BuildingBlock: OJICUG_clean_linker_0, # of connection points: 2
#     Edge 35, Type (0, 0), BuildingBlock: OJICUG_clean_linker_0, # of connection points: 2
#     Edge 36, Type (0, 0), BuildingBlock: OJICUG_clean_linker_0, # of connection points: 2
#     Edge 37, Type (0, 0), BuildingBlock: OJICUG_clean_linker_0, # of connection points: 2
#     Edge 38, Type (0, 0), BuildingBlock: OJICUG_clean_linker_0, # of connection points: 2
#     Edge 39, Type (0, 0), BuildingBlock: OJICUG_clean_linker_0, # of connection points: 2
#     Edge 40, Type (0, 0), BuildingBlock: OJICUG_clean_linker_0, # of connection points: 2
#     Edge 41, Type (0, 0), BuildingBlock: OJICUG_clean_linker_0, # of connection points: 2
#     Edge 42, Type (0, 0), BuildingBlock: OJICUG_clean_linker_0, # of connection points: 2
#     Edge 43, Type (0, 0), BuildingBlock: OJICUG_clean_linker_0, # of connection points: 2
#     Edge 44, Type (0, 0), BuildingBlock: OJICUG_clean_linker_0, # of connection points: 2
#     Edge 45, Type (0, 0), BuildingBlock: OJICUG_clean_linker_0, # of connection points: 2
#     Edge 46, Type (0, 0), BuildingBlock: OJICUG_clean_linker_0, # of connection points: 2
#     Edge 47, Type (0, 0), BuildingBlock: OJICUG_clean_linker_0, # of connection points: 2
#     Edge 48, Type (0, 0), BuildingBlock: OJICUG_clean_linker_0, # of connection points: 2
#     Edge 49, Type (0, 0), BuildingBlock: OJICUG_clean_linker_0, # of connection points: 2
#     Edge 50, Type (0, 0), BuildingBlock: OJICUG_clean_linker_0, # of connection points: 2
#     Edge 51, Type (0, 0), BuildingBlock: OJICUG_clean_linker_0, # of connection points: 2
#     Edge 52, Type (0, 0), BuildingBlock: OJICUG_clean_linker_0, # of connection points: 2
#     Edge 53, Type (0, 0), BuildingBlock: OJICUG_clean_linker_0, # of connection points: 2
#     Edge 54, Type (0, 0), BuildingBlock: OJICUG_clean_linker_0, # of connection points: 2
#     Edge 55, Type (0, 0), BuildingBlock: OJICUG_clean_linker_0, # of connection points: 2
#     Edge 56, Type (0, 0), BuildingBlock: OJICUG_clean_linker_0, # of connection points: 2
#     Edge 57, Type (0, 0), BuildingBlock: OJICUG_clean_linker_0, # of connection points: 2
#     Edge 58, Type (0, 0), BuildingBlock: OJICUG_clean_linker_0, # of connection points: 2
#     Edge 59, Type (0, 0), BuildingBlock: OJICUG_clean_linker_0, # of connection points: 2
#     Edge 60, Type (0, 0), BuildingBlock: OJICUG_clean_linker_0, # of connection points: 2
#     Edge 61, Type (0, 0), BuildingBlock: OJICUG_clean_linker_0, # of connection points: 2
#     Edge 62, Type (0, 0), BuildingBlock: OJICUG_clean_linker_0, # of connection points: 2
#     Edge 63, Type (0, 0), BuildingBlock: OJICUG_clean_linker_0, # of connection points: 2
#     Edge 64, Type (0, 0), BuildingBlock: OJICUG_clean_linker_0, # of connection points: 2
#     Edge 65, Type (0, 0), BuildingBlock: OJICUG_clean_linker_0, # of connection points: 2
#     Edge 66, Type (0, 0), BuildingBlock: OJICUG_clean_linker_0, # of connection points: 2
#     Edge 67, Type (0, 0), BuildingBlock: OJICUG_clean_linker_0, # of connection points: 2
#     Edge 68, Type (0, 0), BuildingBlock: OJICUG_clean_linker_0, # of connection points: 2
#     Edge 69, Type (0, 0), BuildingBlock: OJICUG_clean_linker_0, # of connection points: 2
#     Edge 70, Type (0, 0), BuildingBlock: OJICUG_clean_linker_0, # of connection points: 2
#     Edge 71, Type (0, 0), BuildingBlock: OJICUG_clean_linker_0, # of connection points: 2
#     Edge 72, Type (0, 0), BuildingBlock: OJICUG_clean_linker_0, # of connection points: 2
#     Edge 73, Type (0, 0), BuildingBlock: OJICUG_clean_linker_0, # of connection points: 2
#     Edge 74, Type (0, 0), BuildingBlock: OJICUG_clean_linker_0, # of connection points: 2
#     Edge 75, Type (0, 0), BuildingBlock: OJICUG_clean_linker_0, # of connection points: 2
#     Edge 76, Type (0, 0), BuildingBlock: OJICUG_clean_linker_0, # of connection points: 2
#     Edge 77, Type (0, 0), BuildingBlock: OJICUG_clean_linker_0, # of connection points: 2
#     Edge 78, Type (0, 0), BuildingBlock: OJICUG_clean_linker_0, # of connection points: 2
#     Edge 79, Type (0, 0), BuildingBlock: OJICUG_clean_linker_0, # of connection points: 2
#     Edge 80, Type (0, 0), BuildingBlock: OJICUG_clean_linker_0, # of connection points: 2
#     Edge 81, Type (0, 0), BuildingBlock: OJICUG_clean_linker_0, # of connection points: 2
#     Edge 82, Type (0, 0), BuildingBlock: OJICUG_clean_linker_0, # of connection points: 2
#     Edge 83, Type (0, 0), BuildingBlock: OJICUG_clean_linker_0, # of connection points: 2
#     Edge 84, Type (0, 0), BuildingBlock: OJICUG_clean_linker_0, # of connection points: 2
#     Edge 85, Type (0, 0), BuildingBlock: OJICUG_clean_linker_0, # of connection points: 2
#     Edge 86, Type (0, 0), BuildingBlock: OJICUG_clean_linker_0, # of connection points: 2
#     Edge 87, Type (0, 0), BuildingBlock: OJICUG_clean_linker_0, # of connection points: 2
#     Edge 88, Type (0, 0), BuildingBlock: OJICUG_clean_linker_0, # of connection points: 2
#     Edge 89, Type (0, 0), BuildingBlock: OJICUG_clean_linker_0, # of connection points: 2
#     Edge 90, Type (0, 0), BuildingBlock: OJICUG_clean_linker_0, # of connection points: 2
#     Edge 91, Type (0, 0), BuildingBlock: OJICUG_clean_linker_0, # of connection points: 2
#     Edge 92, Type (0, 0), BuildingBlock: OJICUG_clean_linker_0, # of connection points: 2
#     Edge 93, Type (0, 0), BuildingBlock: OJICUG_clean_linker_0, # of connection points: 2
#     Edge 94, Type (0, 0), BuildingBlock: OJICUG_clean_linker_0, # of connection points: 2
#     Edge 95, Type (0, 0), BuildingBlock: OJICUG_clean_linker_0, # of connection points: 2
# Relax obj value: 0.133
# Max RMSD: 0.180
# Mean RMSD: 0.166
data_MOF--net-uow--node1-KUFVIS_clean_sbu_0--edge1-OJICUG_clean_linker_0
_symmetry_space_group_name_H-M    P1
_symmetry_Int_Tables_number       1
_symmetry_cell_setting            triclinic
loop_
_symmetry_equiv_pos_as_xyz
'x, y, z'
_cell_length_a     44.301735
_cell_length_b     45.887422
_cell_length_c     29.748588
_cell_angle_alpha  89.988831
_cell_angle_beta   90.000199
_cell_angle_gamma 89.983135
loop_
_atom_site_label
_atom_site_type_symbol
_atom_site_fract_x
_atom_site_fract_y
_atom_site_fract_z
_atom_type_partial_charge
Mn0 Mn 0.04349 0.38085 0.30023 0.0
Mn1 Mn 0.9822 0.37839 0.23371 0.0
C2 C 0.99561 0.378 0.33063 0.0
C3 C 0.07903 0.35551 0.34189 0.0
C4 C 0.01739 0.43409 0.25253 0.0
O5 O 0.06147 0.36943 0.23978 0.0
O6 O 0.01862 0.36685 0.19871 0.0
C7 C 0.98132 0.31441 0.22009 0.0
N8 N 0.96717 0.33926 0.23369 0.0
C9 C 0.92338 0.31217 0.25714 0.0
C10 C 0.93726 0.28641 0.24246 0.0
C11 C 0.9664 0.28754 0.22401 0.0
C12 C 0.93923 0.33838 0.25191 0.0
H13 H 0.00398 0.315 0.20689 0.0
C14 C 0.04727 0.36399 0.20331 0.0
O15 O 0.08403 0.38248 0.33063 0.0
O16 O 0.05493 0.34324 0.32657 0.0
N17 N 0.94547 0.3881 0.26436 0.0
C18 C 0.93643 0.41435 0.28099 0.0
C19 C 0.90815 0.41678 0.30198 0.0
C20 C 0.88959 0.39213 0.30614 0.0
C21 C 0.89949 0.36525 0.28928 0.0
C22 C 0.92765 0.36427 0.26789 0.0
H23 H 0.95087 0.43316 0.27897 0.0
O24 O 0.01763 0.38838 0.3544 0.0
O25 O 0.00241 0.37056 0.28996 0.0
O26 O 0.03734 0.42266 0.27807 0.0
O27 O 0.99601 0.41958 0.23397 0.0
C28 C 0.88287 0.33926 0.29396 0.0
C29 C 0.89483 0.31273 0.27798 0.0
H30 H 0.92596 0.2656 0.24591 0.0
H31 H 0.97747 0.2677 0.21325 0.0
H32 H 0.90085 0.43752 0.31544 0.0
H33 H 0.868 0.39399 0.32301 0.0
H34 H 0.8611 0.33934 0.31055 0.0
H35 H 0.88209 0.2928 0.28256 0.0
Mn36 Mn 0.87298 0.80714 0.54107 0.0
Mn37 Mn 0.85062 0.87736 0.53613 0.0
C38 C 0.90416 0.84353 0.56984 0.0
C39 C 0.87539 0.76233 0.57812 0.0
C40 C 0.87518 0.84413 0.45597 0.0
O41 O 0.82786 0.80363 0.52739 0.0
O42 O 0.81523 0.85104 0.53367 0.0
C43 C 0.81826 0.88101 0.62302 0.0
N44 N 0.84012 0.89097 0.59475 0.0
C45 C 0.85153 0.93098 0.64407 0.0
C46 C 0.82882 0.92142 0.67343 0.0
C47 C 0.81242 0.89609 0.66316 0.0
C48 C 0.857 0.91451 0.60533 0.0
H49 H 0.80534 0.8618 0.61486 0.0
C50 C 0.80839 0.82414 0.52843 0.0
O51 O 0.87891 0.76416 0.53489 0.0
O52 O 0.86858 0.78616 0.59924 0.0
N53 N 0.88225 0.90572 0.53809 0.0
C54 C 0.90139 0.91369 0.50432 0.0
C55 C 0.91989 0.93829 0.5097 0.0
C56 C 0.91768 0.95515 0.54893 0.0
C57 C 0.89665 0.94749 0.58209 0.0
C58 C 0.87924 0.92239 0.57528 0.0
H59 H 0.90272 0.90135 0.47352 0.0
O60 O 0.91476 0.81819 0.55886 0.0
O61 O 0.87525 0.8468 0.56423 0.0
O62 O 0.88138 0.82068 0.47699 0.0
O63 O 0.86191 0.86581 0.47421 0.0
C64 C 0.89136 0.96454 0.62063 0.0
C65 C 0.86858 0.95648 0.65129 0.0
H66 H 0.82383 0.93332 0.70399 0.0
H67 H 0.79502 0.88845 0.68582 0.0
H68 H 0.93553 0.94445 0.48343 0.0
H69 H 0.93166 0.97435 0.55269 0.0
H70 H 0.90427 0.98421 0.62659 0.0
H71 H 0.86431 0.97016 0.68025 0.0
Mn72 Mn 0.4466 0.62013 0.79255 0.0
Mn73 Mn 0.50387 0.61621 0.71884 0.0
C74 C 0.49597 0.62281 0.81723 0.0
C75 C 0.41312 0.64877 0.83222 0.0
C76 C 0.46696 0.56401 0.7491 0.0
O77 O 0.42596 0.62735 0.73208 0.0
O78 O 0.46707 0.63027 0.68721 0.0
C79 C 0.5111 0.67923 0.70024 0.0
N80 N 0.52306 0.65345 0.71427 0.0
C81 C 0.57061 0.67634 0.73119 0.0
C82 C 0.55897 0.70298 0.71594 0.0
C83 C 0.52904 0.70444 0.70056 0.0
C84 C 0.55176 0.65185 0.72957 0.0
H85 H 0.48791 0.68062 0.68954 0.0
C86 C 0.43858 0.63253 0.69424 0.0
O87 O 0.40744 0.62126 0.82611 0.0
O88 O 0.43684 0.6596 0.81319 0.0
N89 N 0.54071 0.60347 0.74633 0.0
C90 C 0.54769 0.57673 0.76336 0.0
C91 C 0.57641 0.57194 0.78192 0.0
C92 C 0.59761 0.59468 0.78289 0.0
C93 C 0.58995 0.62199 0.7651 0.0
C94 C 0.56114 0.62536 0.74641 0.0
H95 H 0.53146 0.5592 0.76301 0.0
O96 O 0.47466 0.61573 0.84501 0.0
O97 O 0.48744 0.62798 0.7764 0.0
O98 O 0.451 0.57716 0.77834 0.0
O99 O 0.4859 0.57668 0.72313 0.0
C100 C 0.60951 0.64617 0.76617 0.0
C101 C 0.59984 0.67334 0.74928 0.0
H102 H 0.57263 0.72255 0.71666 0.0
H103 H 0.51972 0.72503 0.68945 0.0
H104 H 0.58211 0.55083 0.79573 0.0
H105 H 0.61961 0.591 0.79777 0.0
H106 H 0.63188 0.64424 0.78059 0.0
H107 H 0.61489 0.6919 0.75106 0.0
Mn108 Mn 0.62446 0.19104 0.05022 0.0
Mn109 Mn 0.6427 0.11958 0.0438 0.0
C110 C 0.59141 0.15614 0.07873 0.0
C111 C 0.62468 0.23607 0.08707 0.0
C112 C 0.61927 0.1545 0.9648 0.0
O113 O 0.66967 0.19224 0.03605 0.0
O114 O 0.67922 0.14413 0.03975 0.0
C115 C 0.67686 0.1139 0.12884 0.0
N116 N 0.65371 0.1053 0.10183 0.0
C117 C 0.64185 0.06521 0.15077 0.0
C118 C 0.66563 0.07356 0.17911 0.0
C119 C 0.68296 0.09824 0.16838 0.0
C120 C 0.63605 0.08237 0.11286 0.0
H121 H 0.69071 0.13241 0.12004 0.0
C122 C 0.68778 0.17059 0.0352 0.0
O123 O 0.62092 0.23424 0.04391 0.0
O124 O 0.63019 0.21195 0.10836 0.0
N125 N 0.60988 0.09258 0.04687 0.0
C126 C 0.59016 0.08527 0.01348 0.0
C127 C 0.57086 0.06129 0.0192 0.0
C128 C 0.57305 0.04415 0.05813 0.0
C129 C 0.59485 0.0509 0.09063 0.0
C130 C 0.6129 0.07558 0.08371 0.0
H131 H 0.58892 0.09775 0.98278 0.0
O132 O 0.58224 0.18212 0.06841 0.0
O133 O 0.62008 0.1513 0.07294 0.0
O134 O 0.61498 0.17824 0.98607 0.0
O135 O 0.63094 0.13185 0.98258 0.0
C136 C 0.60045 0.03318 0.12836 0.0
C137 C 0.62416 0.04012 0.15805 0.0
H138 H 0.67084 0.06113 0.20909 0.0
H139 H 0.70133 0.10483 0.19009 0.0
H140 H 0.55468 0.05575 0.99332 0.0
H141 H 0.55853 0.02533 0.06204 0.0
H142 H 0.58709 0.01379 0.13432 0.0
H143 H 0.62869 0.02588 0.1863 0.0
Mn144 Mn 0.04277 0.61577 0.20218 0.0
Mn145 Mn 0.98204 0.61441 0.26984 0.0
C146 C 0.99468 0.62112 0.17319 0.0
C147 C 0.0783 0.64334 0.16389 0.0
C148 C 0.01585 0.55983 0.24083 0.0
O149 O 0.06163 0.62266 0.26358 0.0
O150 O 0.01931 0.6217 0.30593 0.0
C151 C 0.98404 0.67683 0.29528 0.0
N152 N 0.96864 0.65378 0.27775 0.0
C153 C 0.92586 0.68423 0.26078 0.0
C154 C 0.941 0.70808 0.27971 0.0
C155 C 0.97027 0.70438 0.29685 0.0
C156 C 0.9406 0.65721 0.26062 0.0
H157 H 0.00683 0.67437 0.30736 0.0
C158 C 0.04797 0.62465 0.30128 0.0
O159 O 0.08296 0.61569 0.17063 0.0
O160 O 0.05454 0.65481 0.1817 0.0
N161 N 0.94453 0.60864 0.23886 0.0
C162 C 0.93406 0.58424 0.21803 0.0
C163 C 0.9055 0.58458 0.19758 0.0
C164 C 0.88807 0.61012 0.19838 0.0
C165 C 0.89935 0.63507 0.21971 0.0
C166 C 0.92774 0.63325 0.24029 0.0
H167 H 0.94762 0.56488 0.21632 0.0
O168 O 0.01644 0.61208 0.14768 0.0
O169 O 0.0018 0.62602 0.21471 0.0
O170 O 0.03627 0.57277 0.218 0.0
O171 O 0.99429 0.57307 0.26116 0.0
C172 C 0.88383 0.66187 0.2204 0.0
C173 C 0.8971 0.68644 0.24085 0.0
H174 H 0.93059 0.72944 0.28051 0.0
H175 H 0.98233 0.72279 0.31079 0.0
H176 H 0.89713 0.56531 0.18073 0.0
H177 H 0.86625 0.61045 0.18194 0.0
H178 H 0.86191 0.66394 0.20461 0.0
H179 H 0.8852 0.70706 0.24044 0.0
Mn180 Mn 0.62376 0.80669 0.44407 0.0
Mn181 Mn 0.64659 0.87691 0.44972 0.0
C182 C 0.59507 0.84289 0.41014 0.0
C183 C 0.62303 0.76093 0.40956 0.0
C184 C 0.61353 0.84723 0.52539 0.0
O185 O 0.66756 0.80218 0.46444 0.0
O186 O 0.6787 0.84981 0.46905 0.0
C187 C 0.69115 0.87187 0.37602 0.0
N188 N 0.66646 0.8851 0.39417 0.0
C189 C 0.66422 0.91955 0.33342 0.0
C190 C 0.68963 0.90635 0.31404 0.0
C191 C 0.70301 0.88224 0.33528 0.0
C192 C 0.65275 0.90759 0.37319 0.0
H193 H 0.70177 0.85361 0.39258 0.0
C194 C 0.68545 0.82297 0.47405 0.0
O195 O 0.61662 0.76399 0.45188 0.0
O196 O 0.63138 0.78416 0.38802 0.0
N197 N 0.6187 0.90672 0.43278 0.0
C198 C 0.59749 0.91974 0.45925 0.0
C199 C 0.58225 0.94456 0.44353 0.0
C200 C 0.59029 0.95685 0.40203 0.0
C201 C 0.61393 0.94453 0.37715 0.0
C202 C 0.62767 0.91927 0.39388 0.0
H203 H 0.59196 0.91101 0.49194 0.0
O204 O 0.58352 0.8178 0.42015 0.0
O205 O 0.62372 0.84605 0.41892 0.0
O206 O 0.61183 0.82226 0.50644 0.0
O207 O 0.62562 0.86961 0.50717 0.0
C208 C 0.62548 0.95729 0.33773 0.0
C209 C 0.6504 0.94462 0.31557 0.0
H210 H 0.6992 0.91468 0.28309 0.0
H211 H 0.72265 0.87194 0.32059 0.0
H212 H 0.56473 0.9545 0.46374 0.0
H213 H 0.57891 0.97634 0.39039 0.0
H214 H 0.61566 0.97717 0.3246 0.0
H215 H 0.65916 0.9547 0.28535 0.0
Mn216 Mn 0.44544 0.38324 0.70252 0.0
Mn217 Mn 0.50336 0.38637 0.77502 0.0
C218 C 0.49445 0.37947 0.67683 0.0
C219 C 0.41115 0.35498 0.66414 0.0
C220 C 0.46706 0.43912 0.74508 0.0
O221 O 0.42523 0.37672 0.76335 0.0
O222 O 0.46662 0.37298 0.80748 0.0
C223 C 0.50959 0.32327 0.79379 0.0
N224 N 0.5219 0.34881 0.77934 0.0
C225 C 0.56873 0.32497 0.76107 0.0
C226 C 0.55675 0.29857 0.7767 0.0
C227 C 0.52701 0.29771 0.79298 0.0
C228 C 0.5504 0.34982 0.76318 0.0
H229 H 0.48653 0.32234 0.80521 0.0
C230 C 0.43805 0.37127 0.80093 0.0
O231 O 0.40602 0.38265 0.66972 0.0
O232 O 0.43482 0.34386 0.68292 0.0
N233 N 0.54014 0.39841 0.74667 0.0
C234 C 0.54748 0.42502 0.72952 0.0
C235 C 0.57608 0.42926 0.71026 0.0
C236 C 0.5968 0.40611 0.70873 0.0
C237 C 0.58877 0.37894 0.72666 0.0
C238 C 0.56011 0.37612 0.74607 0.0
H239 H 0.53162 0.44287 0.73031 0.0
O240 O 0.47303 0.38684 0.64942 0.0
O241 O 0.48621 0.37471 0.71792 0.0
O242 O 0.45076 0.42616 0.7161 0.0
O243 O 0.48598 0.42623 0.77087 0.0
C244 C 0.60781 0.35437 0.72505 0.0
C245 C 0.59778 0.32739 0.74218 0.0
H246 H 0.56999 0.27873 0.77562 0.0
H247 H 0.51741 0.27732 0.80441 0.0
H248 H 0.58207 0.45027 0.69635 0.0
H249 H 0.61869 0.40937 0.69331 0.0
H250 H 0.63004 0.35586 0.71005 0.0
H251 H 0.61242 0.30854 0.74001 0.0
Mn252 Mn 0.8718 0.20319 0.9578 0.0
Mn253 Mn 0.86193 0.13 0.96178 0.0
C254 C 0.90682 0.17278 0.92362 0.0
C255 C 0.86645 0.24899 0.92438 0.0
C256 C 0.88576 0.1649 0.03981 0.0
O257 O 0.82748 0.19986 0.97579 0.0
O258 O 0.824 0.15089 0.97629 0.0
C259 C 0.82006 0.12279 0.88504 0.0
N260 N 0.84614 0.11552 0.90646 0.0
C261 C 0.855 0.07564 0.85568 0.0
C262 C 0.82822 0.08266 0.83298 0.0
C263 C 0.81082 0.10651 0.84748 0.0
C264 C 0.86331 0.09297 0.8923 0.0
H265 H 0.80631 0.14067 0.89687 0.0
C266 C 0.81273 0.17633 0.98201 0.0
O267 O 0.87174 0.24624 0.96706 0.0
O268 O 0.86185 0.22513 0.90193 0.0
N269 N 0.89649 0.10652 0.94911 0.0
C270 C 0.92287 0.10432 0.97239 0.0
C271 C 0.94403 0.08298 0.95997 0.0
C272 C 0.93745 0.06366 0.92465 0.0
C273 C 0.90992 0.06612 0.90168 0.0
C274 C 0.89001 0.08817 0.91496 0.0
H275 H 0.92772 0.1188 9e-05 0.0
O276 O 0.91367 0.19907 0.93583 0.0
O277 O 0.87904 0.16456 0.93129 0.0
O278 O 0.88501 0.18982 0.02087 0.0
O279 O 0.87802 0.14137 0.02046 0.0
C280 C 0.90148 0.04768 0.86599 0.0
C281 C 0.87383 0.05219 0.84346 0.0
H282 H 0.8209 0.07 0.80425 0.0
H283 H 0.79013 0.11206 0.83012 0.0
H284 H 0.96521 0.08122 0.97789 0.0
H285 H 0.95372 0.0471 0.91537 0.0
H286 H 0.91614 0.03007 0.85543 0.0
H287 H 0.86748 0.03772 0.81632 0.0
Mn288 Mn 0.952 0.62495 0.70305 0.0
Mn289 Mn 0.00347 0.60605 0.78129 0.0
C290 C 0.00128 0.61658 0.68021 0.0
C291 C 0.92513 0.66228 0.66778 0.0
C292 C 0.95665 0.56434 0.74338 0.0
O293 O 0.93151 0.63467 0.76201 0.0
O294 O 0.96977 0.62742 0.81034 0.0
C295 C 0.0252 0.6644 0.80897 0.0
N296 N 0.03105 0.63699 0.79374 0.0
C297 C 0.08463 0.64478 0.79881 0.0
C298 C 0.07922 0.67306 0.81478 0.0
C299 C 0.04938 0.68301 0.8194 0.0
C300 C 0.05964 0.6274 0.78832 0.0
H301 H 0.00227 0.67194 0.81319 0.0
C302 C 0.94311 0.63624 0.80105 0.0
O303 O 0.91466 0.63584 0.66884 0.0
O304 O 0.95107 0.66685 0.68658 0.0
N305 N 0.03776 0.5854 0.75889 0.0
C306 C 0.03904 0.55796 0.74149 0.0
C307 C 0.0672 0.5445 0.73557 0.0
C308 C 0.09367 0.55937 0.74776 0.0
C309 C 0.09189 0.58793 0.7641 0.0
C310 C 0.06319 0.59999 0.77011 0.0
H311 H 0.01872 0.5461 0.73342 0.0
O312 O 0.97889 0.61617 0.65206 0.0
O313 O 0.99421 0.62297 0.72177 0.0
O314 O 0.94573 0.5811 0.71327 0.0
O315 O 0.9768 0.57223 0.77149 0.0
C316 C 0.11742 0.6047 0.7755 0.0
C317 C 0.1138 0.63322 0.79242 0.0
H318 H 0.09779 0.6874 0.82326 0.0
H319 H 0.04503 0.7049 0.83125 0.0
H320 H 0.06848 0.52249 0.72264 0.0
H321 H 0.11521 0.54847 0.74521 0.0
H322 H 0.13994 0.59595 0.77103 0.0
H323 H 0.13359 0.64606 0.80047 0.0
Mn324 Mn 0.1215 0.21635 0.46499 0.0
Mn325 Mn 0.13379 0.267 0.54496 0.0
C326 C 0.126 0.26457 0.44501 0.0
C327 C 0.08874 0.18749 0.42449 0.0
C328 C 0.18239 0.22763 0.50805 0.0
O329 O 0.11106 0.1952 0.52239 0.0
O330 O 0.11849 0.23058 0.57368 0.0
C331 C 0.07077 0.27694 0.5744 0.0
N332 N 0.09709 0.28744 0.55716 0.0
C333 C 0.07696 0.3361 0.55364 0.0
C334 C 0.04971 0.32584 0.5717 0.0
C335 C 0.04658 0.29611 0.58192 0.0
C336 C 0.10035 0.31601 0.54717 0.0
H337 H 0.06826 0.25411 0.58235 0.0
C338 C 0.11096 0.20457 0.56266 0.0
O339 O 0.11664 0.17965 0.43022 0.0
O340 O 0.07994 0.21179 0.44251 0.0
N341 N 0.14825 0.30327 0.5217 0.0
C342 C 0.17536 0.30931 0.50215 0.0
C343 C 0.1816 0.33786 0.48799 0.0
C344 C 0.16001 0.35992 0.49429 0.0
C345 C 0.13234 0.35321 0.51472 0.0
C346 C 0.12743 0.32438 0.5283 0.0
H347 H 0.19198 0.2924 0.49709 0.0
O348 O 0.13043 0.24408 0.41562 0.0
O349 O 0.11842 0.25608 0.48531 0.0
O350 O 0.16599 0.21411 0.47992 0.0
O351 O 0.1728 0.24759 0.53428 0.0
C352 C 0.10926 0.37389 0.52148 0.0
C353 C 0.08161 0.36535 0.54101 0.0
H354 H 0.03096 0.34054 0.57746 0.0
H355 H 0.02555 0.28799 0.59556 0.0
H356 H 0.20298 0.34286 0.47216 0.0
H357 H 0.16485 0.38189 0.48308 0.0
H358 H 0.11243 0.39636 0.51137 0.0
H359 H 0.06394 0.38139 0.54564 0.0
Mn360 Mn 0.5505 0.37603 0.20748 0.0
Mn361 Mn 0.49748 0.39486 0.28361 0.0
C362 C 0.50146 0.38357 0.18308 0.0
C363 C 0.57798 0.33836 0.17383 0.0
C364 C 0.54331 0.43751 0.24536 0.0
O365 O 0.57051 0.36703 0.2669 0.0
O366 O 0.53224 0.37631 0.3142 0.0
C367 C 0.48001 0.33555 0.31304 0.0
N368 N 0.47217 0.36232 0.29709 0.0
C369 C 0.41934 0.35064 0.3013 0.0
C370 C 0.42679 0.32301 0.31816 0.0
C371 C 0.45729 0.31533 0.32355 0.0
C372 C 0.44299 0.3697 0.29078 0.0
H373 H 0.50342 0.32968 0.3177 0.0
C374 C 0.55889 0.36714 0.30594 0.0
O375 O 0.58835 0.36487 0.17433 0.0
O376 O 0.55186 0.33399 0.19207 0.0
N377 N 0.46184 0.41278 0.26026 0.0
C378 C 0.45855 0.43994 0.24242 0.0
C379 C 0.42943 0.4512 0.23569 0.0
C380 C 0.40409 0.43441 0.2474 0.0
C381 C 0.408 0.40631 0.26464 0.0
C382 C 0.43751 0.39652 0.27159 0.0
H383 H 0.47798 0.45322 0.23464 0.0
O384 O 0.52417 0.38411 0.15554 0.0
O385 O 0.50806 0.37759 0.22494 0.0
O386 O 0.55602 0.42016 0.21752 0.0
O387 O 0.52208 0.42992 0.27196 0.0
C388 C 0.38375 0.38786 0.27605 0.0
C389 C 0.38942 0.35991 0.29397 0.0
H390 H 0.40933 0.30744 0.32668 0.0
H391 H 0.46325 0.29393 0.33597 0.0
H392 H 0.42653 0.473 0.22247 0.0
H393 H 0.38168 0.44341 0.24395 0.0
H394 H 0.36065 0.39487 0.27087 0.0
H395 H 0.37063 0.34575 0.30202 0.0
Mn396 Mn 0.36881 0.78982 0.95214 0.0
Mn397 Mn 0.36024 0.7386 0.03231 0.0
C398 C 0.3648 0.74152 0.93244 0.0
C399 C 0.40024 0.81854 0.90889 0.0
C400 C 0.30944 0.77693 -0.00072 0.0
O401 O 0.38111 0.811 0.00886 0.0
O402 O 0.37579 0.77512 0.06002 0.0
C403 C 0.4246 0.73007 0.05579 0.0
N404 N 0.39786 0.71896 0.04108 0.0
C405 C 0.41936 0.67104 0.03372 0.0
C406 C 0.44705 0.68191 0.04917 0.0
C407 C 0.44971 0.71159 0.06002 0.0
C408 C 0.39507 0.69046 0.03039 0.0
H409 H 0.4268 0.75288 0.06406 0.0
C410 C 0.38284 0.80123 0.04885 0.0
O411 O 0.37255 0.82649 0.91649 0.0
O412 O 0.40959 0.79448 0.92692 0.0
N413 N 0.34587 0.70212 0.00962 0.0
C414 C 0.31822 0.69555 0.99228 0.0
C415 C 0.31228 0.66701 0.97778 0.0
C416 C 0.33475 0.64553 0.98138 0.0
C417 C 0.36298 0.65278 -0.00048 0.0
C418 C 0.36754 0.68154 0.0137 0.0
H419 H 0.30093 0.71202 0.9892 0.0
O420 O 0.35878 0.76182 0.90337 0.0
O421 O 0.37322 0.75029 0.97208 0.0
O422 O 0.32461 0.79121 0.97038 0.0
O423 O 0.32046 0.75716 0.02465 0.0
C424 C 0.38695 0.63274 0.00332 0.0
C425 C 0.4151 0.64185 0.02045 0.0
H426 H 0.46651 0.66775 0.05237 0.0
H427 H 0.47108 0.7202 0.07161 0.0
H428 H 0.29046 0.6616 0.9637 0.0
H429 H 0.33015 0.62359 0.96983 0.0
H430 H 0.38409 0.61035 0.99264 0.0
H431 H 0.43347 0.62633 0.02267 0.0
Mn432 Mn 0.9453 0.38254 0.79911 0.0
Mn433 Mn -0.00088 0.39233 0.72083 0.0
C434 C 0.99528 0.38732 0.82325 0.0
C435 C 0.91543 0.34943 0.83864 0.0
C436 C 0.95605 0.44017 0.75087 0.0
O437 O 0.92451 0.36971 0.74191 0.0
O438 O 0.96316 0.37392 0.69376 0.0
C439 C 0.0123 0.33011 0.7028 0.0
N440 N 0.02206 0.35736 0.71372 0.0
C441 C 0.07392 0.34198 0.71176 0.0
C442 C 0.06449 0.31379 0.70021 0.0
C443 C 0.03351 0.30778 0.69612 0.0
C444 C 0.0517 0.36318 0.71887 0.0
H445 H 0.98853 0.32551 0.69903 0.0
C446 C 0.93611 0.36668 0.70319 0.0
O447 O 0.90673 0.37629 0.83348 0.0
O448 O 0.94145 0.3423 0.82233 0.0
N449 N 0.03613 0.40976 0.7397 0.0
C450 C 0.04147 0.43814 0.75061 0.0
C451 C 0.07136 0.44806 0.75406 0.0
C452 C 0.09542 0.42878 0.74605 0.0
C453 C 0.08942 0.39966 0.73523 0.0
C454 C 0.05919 0.39115 0.73132 0.0
H455 H 0.02309 0.45326 0.75556 0.0
O456 O 0.97249 0.39356 0.84893 0.0
O457 O 0.98789 0.37964 0.78232 0.0
O458 O 0.94223 0.42546 0.78087 0.0
O459 O 0.97698 0.42967 0.72611 0.0
C460 C 0.11224 0.37882 0.72772 0.0
C461 C 0.10449 0.34992 0.71633 0.0
H462 H 0.0808 0.2966 0.6944 0.0
H463 H 0.02603 0.28606 0.68733 0.0
H464 H 0.07587 0.47062 0.76229 0.0
H465 H 0.11844 0.43656 0.74794 0.0
H466 H 0.13582 0.38476 0.73078 0.0
H467 H 0.12221 0.33404 0.71087 0.0
Mn468 Mn 0.37085 0.21211 0.54678 0.0
Mn469 Mn 0.35907 0.26323 0.46717 0.0
C470 C 0.36611 0.26023 0.56678 0.0
C471 C 0.40381 0.18372 0.58787 0.0
C472 C 0.31019 0.22385 0.5031 0.0
O473 O 0.3818 0.19116 0.48932 0.0
O474 O 0.37453 0.22701 0.43866 0.0
C475 C 0.42261 0.27296 0.44025 0.0
N476 N 0.39595 0.28361 0.45607 0.0
C477 C 0.41633 0.3321 0.46113 0.0
C478 C 0.44392 0.32171 0.44446 0.0
C479 C 0.44711 0.29198 0.43426 0.0
C480 C 0.39266 0.31214 0.46624 0.0
H481 H 0.4252 0.25012 0.43246 0.0
C482 C 0.38209 0.20095 0.44928 0.0
O483 O 0.37606 0.17545 0.58184 0.0
O484 O 0.41235 0.20798 0.56957 0.0
N485 N 0.34444 0.29947 0.49038 0.0
C486 C 0.31712 0.30552 0.50924 0.0
C487 C 0.31079 0.33405 0.52347 0.0
C488 C 0.33253 0.35604 0.518 0.0
C489 C 0.36042 0.34932 0.49825 0.0
C490 C 0.36538 0.32055 0.48441 0.0
H491 H 0.30039 0.28866 0.51372 0.0
O492 O 0.36157 0.23979 0.5962 0.0
O493 O 0.37385 0.25177 0.52665 0.0
O494 O 0.32633 0.20994 0.53121 0.0
O495 O 0.32005 0.24387 0.47719 0.0
C496 C 0.38371 0.3699 0.49256 0.0
C497 C 0.41164 0.3613 0.47398 0.0
H498 H 0.46291 0.33628 0.4399 0.0
H499 H 0.46843 0.28374 0.42185 0.0
H500 H 0.28924 0.33905 0.53878 0.0
H501 H 0.32765 0.37797 0.52936 0.0
H502 H 0.38053 0.39232 0.50293 0.0
H503 H 0.42951 0.37723 0.47038 0.0
Mn504 Mn 0.55072 0.62251 0.28433 0.0
Mn505 Mn 0.49765 0.60522 0.20759 0.0
C506 C 0.5016 0.61498 0.30839 0.0
C507 C 0.57819 0.65917 0.32012 0.0
C508 C 0.54335 0.56173 0.24398 0.0
O509 O 0.57073 0.63274 0.2253 0.0
O510 O 0.53253 0.62412 0.17751 0.0
C511 C 0.48024 0.66489 0.17981 0.0
N512 N 0.4724 0.63802 0.19535 0.0
C513 C 0.41959 0.65005 0.1925 0.0
C514 C 0.42705 0.67779 0.1761 0.0
C515 C 0.45753 0.68533 0.17021 0.0
C516 C 0.44322 0.63075 0.20205 0.0
H517 H 0.50362 0.67067 0.17477 0.0
C518 C 0.55916 0.63323 0.18621 0.0
O519 O 0.58853 0.63268 0.31814 0.0
O520 O 0.55218 0.66413 0.3019 0.0
N521 N 0.46205 0.58714 0.23075 0.0
C522 C 0.45875 0.55984 0.2481 0.0
C523 C 0.42963 0.54874 0.25536 0.0
C524 C 0.40429 0.56581 0.24462 0.0
C525 C 0.40823 0.59406 0.22794 0.0
C526 C 0.43773 0.60372 0.22054 0.0
H527 H 0.47816 0.54636 0.25518 0.0
O528 O 0.52432 0.61345 0.33581 0.0
O529 O 0.5083 0.62164 0.26681 0.0
O530 O 0.55616 0.57863 0.27232 0.0
O531 O 0.52209 0.56983 0.21779 0.0
C532 C 0.38399 0.6128 0.21757 0.0
C533 C 0.38968 0.6409 0.20023 0.0
H534 H 0.4096 0.69355 0.1683 0.0
H535 H 0.46351 0.7068 0.1581 0.0
H536 H 0.4267 0.52688 0.26831 0.0
H537 H 0.38187 0.55692 0.24851 0.0
H538 H 0.3609 0.6059 0.22308 0.0
H539 H 0.37091 0.65527 0.19294 0.0
Mn540 Mn 0.12041 0.78549 0.04286 0.0
Mn541 Mn 0.13164 0.73367 0.96425 0.0
C542 C 0.12415 0.73733 0.06406 0.0
C543 C 0.08799 0.81517 0.08297 0.0
C544 C 0.18109 0.77277 -0.00046 0.0
O545 O 0.10994 0.80617 0.98476 0.0
O546 O 0.1166 0.76987 0.93474 0.0
C547 C 0.06811 0.72433 0.93685 0.0
N548 N 0.09456 0.71358 0.95329 0.0
C549 C 0.07368 0.66531 0.95893 0.0
C550 C 0.0463 0.67581 0.94167 0.0
C551 C 0.04347 0.70548 0.93082 0.0
C552 C 0.09751 0.68509 0.96399 0.0
H553 H 0.06581 0.74712 0.92851 0.0
C554 C 0.10941 0.79613 0.94484 0.0
O555 O 0.11596 0.82264 0.07688 0.0
O556 O 0.07892 0.79081 0.06549 0.0
N557 N 0.14579 0.69748 0.98826 0.0
C558 C 0.17295 0.69131 0.00752 0.0
C559 C 0.17892 0.66283 0.02237 0.0
C560 C 0.15697 0.64101 0.01707 0.0
C561 C 0.12925 0.64785 0.99693 0.0
C562 C 0.12465 0.67656 0.98253 0.0
H563 H 0.18984 0.70804 0.01185 0.0
O564 O 0.129 0.75801 0.09296 0.0
O565 O 0.11675 0.7456 0.02362 0.0
O566 O 0.16505 0.78686 0.02754 0.0
O567 O 0.171 0.75273 0.97385 0.0
C568 C 0.10577 0.62745 0.99137 0.0
C569 C 0.07803 0.63616 0.97234 0.0
H570 H 0.02721 0.66137 0.93707 0.0
H571 H 0.02235 0.71379 0.91775 0.0
H572 H 0.20034 0.65774 0.03799 0.0
H573 H 0.16158 0.61912 0.02889 0.0
H574 H 0.10868 0.60507 0.00217 0.0
H575 H 0.06002 0.62037 0.9688 0.0
Mn576 Mn 0.54248 0.88104 0.78858 0.0
Mn577 Mn 0.48386 0.88615 0.71732 0.0
C578 C 0.49363 0.8781 0.81515 0.0
C579 C 0.57667 0.85197 0.82632 0.0
C580 C 0.52131 0.93789 0.74798 0.0
O581 O 0.56195 0.87461 0.72708 0.0
O582 O 0.52016 0.87308 0.68346 0.0
C583 C 0.47679 0.82354 0.69567 0.0
N584 N 0.46493 0.84886 0.71174 0.0
C585 C 0.41799 0.82517 0.72974 0.0
C586 C 0.42953 0.79899 0.71257 0.0
C587 C 0.4591 0.79816 0.69559 0.0
C588 C 0.43656 0.84986 0.72846 0.0
H589 H 0.49971 0.82263 0.68354 0.0
C590 C 0.54873 0.87054 0.68936 0.0
O591 O 0.58222 0.87953 0.82055 0.0
O592 O 0.55264 0.84131 0.80789 0.0
N593 N 0.44745 0.89802 0.74685 0.0
C594 C 0.44052 0.92438 0.76528 0.0
C595 C 0.41215 0.92852 0.78531 0.0
C596 C 0.39122 0.90555 0.78626 0.0
C597 C 0.39881 0.87865 0.76698 0.0
C598 C 0.42726 0.87592 0.74689 0.0
H599 H 0.45657 0.94207 0.76497 0.0
O600 O 0.51547 0.88486 0.84221 0.0
O601 O 0.50134 0.87338 0.77379 0.0
O602 O 0.53794 0.92422 0.77578 0.0
O603 O 0.50163 0.92571 0.72268 0.0
C604 C 0.37952 0.85425 0.76784 0.0
C605 C 0.38912 0.82752 0.74928 0.0
H606 H 0.41607 0.77928 0.71294 0.0
H607 H 0.46833 0.77793 0.68289 0.0
H608 H 0.4065 0.94932 0.80025 0.0
H609 H 0.3695 0.90873 0.80225 0.0
H610 H 0.35744 0.85568 0.78332 0.0
H611 H 0.37428 0.80879 0.75083 0.0
Mn612 Mn 0.37031 0.30991 0.05032 0.0
Mn613 Mn 0.35158 0.3812 0.044 0.0
C614 C 0.40321 0.34495 0.07868 0.0
C615 C 0.37013 0.26492 0.08721 0.0
C616 C 0.37483 0.34634 0.96481 0.0
O617 O 0.32512 0.30853 0.03623 0.0
O618 O 0.31509 0.35653 0.04081 0.0
C619 C 0.31815 0.38702 0.12966 0.0
N620 N 0.34105 0.3956 0.10215 0.0
C621 C 0.35333 0.43577 0.15069 0.0
C622 C 0.32981 0.42745 0.17952 0.0
C623 C 0.3124 0.40275 0.16925 0.0
C624 C 0.35879 0.41855 0.11273 0.0
H625 H 0.30424 0.36849 0.12121 0.0
C626 C 0.30679 0.33 0.03602 0.0
O627 O 0.37396 0.26674 0.04406 0.0
O628 O 0.36462 0.28905 0.10847 0.0
N629 N 0.3844 0.40824 0.04629 0.0
C630 C 0.40392 0.41542 0.01258 0.0
C631 C 0.42329 0.43939 0.01786 0.0
C632 C 0.4214 0.45662 0.05672 0.0
C633 C 0.39983 0.44997 0.08961 0.0
C634 C 0.38168 0.42531 0.08311 0.0
H635 H 0.40495 0.40286 0.98196 0.0
O636 O 0.41251 0.31901 0.06846 0.0
O637 O 0.37451 0.34963 0.07293 0.0
O638 O 0.37967 0.32274 0.98617 0.0
O639 O 0.36284 0.36884 0.9826 0.0
C640 C 0.39456 0.46774 0.12736 0.0
C641 C 0.37107 0.46087 0.15749 0.0
H642 H 0.32486 0.43993 0.20955 0.0
H643 H 0.29423 0.39618 0.19135 0.0
H644 H 0.4393 0.44484 0.9917 0.0
H645 H 0.43597 0.47543 0.06029 0.0
H646 H 0.40797 0.48714 0.13298 0.0
H647 H 0.36672 0.47522 0.18566 0.0
Mn648 Mn 0.94986 0.1207 0.30255 0.0
Mn649 Mn 0.00949 0.11929 0.23292 0.0
C650 C -0.00166 0.12304 0.3308 0.0
C651 C 0.91526 0.14783 0.34277 0.0
C652 C 0.9716 0.06603 0.25566 0.0
O653 O 0.93137 0.13051 0.24145 0.0
O654 O 0.97386 0.13435 0.19966 0.0
C655 C 0.01694 0.18287 0.21974 0.0
N656 N 0.02851 0.15673 0.23298 0.0
C657 C 0.07491 0.17936 0.25649 0.0
C658 C 0.06368 0.2064 0.24229 0.0
C659 C 0.03453 0.20817 0.22396 0.0
C660 C 0.05646 0.15483 0.251 0.0
H661 H 0.9943 0.18447 0.20664 0.0
C662 C 0.94526 0.13693 0.20503 0.0
O663 O 0.90974 0.12064 0.33366 0.0
O664 O 0.93945 0.15934 0.32616 0.0
N665 N 0.04531 0.10581 0.26247 0.0
C666 C 0.05187 0.07855 0.2778 0.0
C667 C 0.07981 0.07331 0.29857 0.0
C668 C 0.10067 0.09613 0.30348 0.0
C669 C 0.09343 0.124 0.28743 0.0
C670 C 0.06542 0.12783 0.2664 0.0
H671 H 0.03588 0.06095 0.27443 0.0
O672 O 0.97637 0.11447 0.35638 0.0
O673 O 0.99096 0.12915 0.28983 0.0
O674 O 0.95468 0.07827 0.28467 0.0
O675 O 0.99158 0.07951 0.23248 0.0
C676 C 0.1126 0.14827 0.29249 0.0
C677 C 0.10333 0.17594 0.27711 0.0
H678 H 0.07705 0.22602 0.24598 0.0
H679 H 0.02552 0.22903 0.21353 0.0
H680 H 0.08518 0.05177 0.31104 0.0
H681 H 0.12204 0.09208 0.32004 0.0
H682 H 0.13433 0.14599 0.30882 0.0
H683 H 0.11804 0.19453 0.28192 0.0
Mn684 Mn 0.12598 0.69306 0.54172 0.0
Mn685 Mn 0.14987 0.62311 0.53811 0.0
C686 C 0.09826 0.65709 0.57744 0.0
C687 C 0.12474 0.7391 0.5754 0.0
C688 C 0.1149 0.65085 0.46266 0.0
O689 O 0.16942 0.69789 0.52 0.0
O690 O 0.1811 0.65035 0.51621 0.0
C691 C 0.19568 0.63036 0.60964 0.0
N692 N 0.1709 0.61639 0.5932 0.0
C693 C 0.17019 0.58344 0.65599 0.0
C694 C 0.19571 0.59743 0.67362 0.0
C695 C 0.20837 0.62114 0.65049 0.0
C696 C 0.1579 0.59425 0.61597 0.0
H697 H 0.20574 0.64835 0.59167 0.0
C698 C 0.18741 0.67721 0.51022 0.0
O699 O 0.11792 0.73563 0.53327 0.0
O700 O 0.13401 0.71622 0.59694 0.0
N701 N 0.12288 0.59319 0.55764 0.0
C702 C 0.10152 0.57921 0.53269 0.0
C703 C 0.08692 0.55459 0.5504 0.0
C704 C 0.09578 0.54348 0.59232 0.0
C705 C 0.1196 0.55672 0.61561 0.0
C706 C 0.13268 0.58173 0.5969 0.0
H707 H 0.09535 0.58703 0.4997 0.0
O708 O 0.08626 0.68188 0.56689 0.0
O709 O 0.12689 0.65412 0.56829 0.0
O710 O 0.11334 0.67626 0.4803 0.0
O711 O 0.12763 0.62897 0.48136 0.0
C712 C 0.13194 0.54514 0.65537 0.0
C713 C 0.157 0.55869 0.67586 0.0
H714 H 0.20591 0.59 0.70468 0.0
H715 H 0.22809 0.63205 0.66383 0.0
H716 H 0.06927 0.54391 0.5314 0.0
H717 H 0.08489 0.52415 0.60551 0.0
H718 H 0.12258 0.52555 0.67014 0.0
H719 H 0.16632 0.54955 0.70643 0.0
Mn720 Mn 0.54714 0.11845 0.70318 0.0
Mn721 Mn 0.48937 0.11605 0.77608 0.0
C722 C 0.49812 0.12269 0.67778 0.0
C723 C 0.58168 0.14642 0.66459 0.0
C724 C 0.52472 0.0628 0.74578 0.0
O725 O 0.56763 0.12473 0.76386 0.0
O726 O 0.52643 0.12884 0.80828 0.0
C727 C 0.48429 0.17923 0.7949 0.0
N728 N 0.47149 0.1539 0.7806 0.0
C729 C 0.42496 0.17846 0.76288 0.0
C730 C 0.43745 0.20466 0.77839 0.0
C731 C 0.46729 0.20506 0.7943 0.0
C732 C 0.44288 0.15333 0.76477 0.0
H733 H 0.50743 0.17981 0.80603 0.0
C734 C 0.55501 0.13025 0.80155 0.0
O735 O 0.58648 0.1187 0.67006 0.0
O736 O 0.55818 0.15775 0.68353 0.0
N737 N 0.45228 0.1046 0.74808 0.0
C738 C 0.4444 0.07811 0.731 0.0
C739 C 0.41564 0.07433 0.71206 0.0
C740 C 0.3953 0.09779 0.71077 0.0
C741 C 0.40387 0.12483 0.72863 0.0
C742 C 0.43266 0.12719 0.74773 0.0
H743 H 0.45997 0.06002 0.73161 0.0
O744 O 0.5194 0.11514 0.65026 0.0
O745 O 0.50649 0.12745 0.71881 0.0
O746 O 0.54125 0.07556 0.71684 0.0
O747 O 0.50605 0.07594 0.77167 0.0
C748 C 0.38522 0.14968 0.72727 0.0
C749 C 0.39577 0.17649 0.74431 0.0
H750 H 0.42454 0.2247 0.77747 0.0
H751 H 0.47728 0.2253 0.80562 0.0
H752 H 0.40924 0.05342 0.6982 0.0
H753 H 0.37328 0.09489 0.69559 0.0
H754 H 0.3629 0.14854 0.71251 0.0
H755 H 0.38143 0.19557 0.74232 0.0
Mn756 Mn 0.12309 0.29678 0.95772 0.0
Mn757 Mn 0.13306 0.37 0.9621 0.0
C758 C 0.08836 0.32728 0.92328 0.0
C759 C 0.1286 0.25105 0.92405 0.0
C760 C 0.10822 0.33509 0.03939 0.0
O761 O 0.16727 0.3 0.97651 0.0
O762 O 0.17071 0.34896 0.97753 0.0
C763 C 0.17576 0.3769 0.88631 0.0
N764 N 0.14952 0.38435 0.90713 0.0
C765 C 0.14141 0.42421 0.85601 0.0
C766 C 0.16838 0.41701 0.83393 0.0
C767 C 0.18548 0.39308 0.8489 0.0
C768 C 0.13262 0.40697 0.89249 0.0
H769 H 0.18927 0.35896 0.89849 0.0
C770 C 0.18194 0.32351 0.98325 0.0
O771 O 0.123 0.25367 0.96667 0.0
O772 O 0.13346 0.27498 0.90189 0.0
N773 N 0.0988 0.3937 0.94863 0.0
C774 C 0.07226 0.39621 0.97146 0.0
C775 C 0.05143 0.41774 0.95862 0.0
C776 C 0.0585 0.43696 0.92337 0.0
C777 C 0.08618 0.43422 0.90089 0.0
C778 C 0.10576 0.41199 0.91459 0.0
H779 H 0.06705 0.38181 -0.00087 0.0
O780 O 0.08144 0.30094 0.9351 0.0
O781 O 0.1161 0.33549 0.9313 0.0
O782 O 0.1093 0.31013 0.02057 0.0
O783 O 0.11621 0.35863 0.0203 0.0
C784 C 0.09511 0.45257 0.86534 0.0
C785 C 0.12289 0.44779 0.84333 0.0
H786 H 0.17607 0.42959 0.80532 0.0
H787 H 0.2063 0.38737 0.83202 0.0
H788 H 0.03014 0.41973 0.97616 0.0
H789 H 0.04247 0.45367 0.91376 0.0
H790 H 0.08071 0.47031 0.85449 0.0
H791 H 0.12961 0.46219 0.81628 0.0
Mn792 Mn 0.9471 0.88612 0.19559 0.0
Mn793 Mn 0.00447 0.88746 0.26907 0.0
C794 C 0.99634 0.88162 0.17063 0.0
C795 C 0.91293 0.85817 0.15576 0.0
C796 C 0.96899 0.94119 0.24068 0.0
O797 O 0.92633 0.8791 0.25607 0.0
O798 O 0.96744 0.87371 0.30043 0.0
C799 C 0.01027 0.82403 0.28531 0.0
N800 N 0.02278 0.84973 0.27203 0.0
C801 C 0.06952 0.82594 0.25312 0.0
C802 C 0.05733 0.79935 0.26757 0.0
C803 C 0.02753 0.79838 0.28359 0.0
C804 C 0.05135 0.85085 0.25613 0.0
H805 H 0.98716 0.82302 0.29646 0.0
C806 C 0.93885 0.8726 0.29352 0.0
O807 O 0.90792 0.88583 0.16168 0.0
O808 O 0.93633 0.8469 0.17499 0.0
N809 N 0.04144 0.89977 0.24154 0.0
C810 C 0.04897 0.92659 0.22539 0.0
C811 C 0.07764 0.93098 0.20644 0.0
C812 C 0.09823 0.90775 0.20417 0.0
C813 C 0.09 0.88035 0.22102 0.0
C814 C 0.06127 0.87738 0.24015 0.0
H815 H 0.03321 0.94451 0.22676 0.0
O816 O 0.97531 0.88976 0.14306 0.0
O817 O 0.98757 0.87688 0.21144 0.0
O818 O 0.95293 0.92903 0.21048 0.0
O819 O 0.98732 0.92746 0.2664 0.0
C820 C 0.1089 0.8557 0.21854 0.0
C821 C 0.09865 0.82851 0.23451 0.0
H822 H 0.07045 0.77946 0.26576 0.0
H823 H 0.01777 0.77786 0.29409 0.0
H824 H 0.08378 0.95217 0.19335 0.0
H825 H 0.12018 0.91113 0.189 0.0
H826 H 0.13117 0.85732 0.20373 0.0
H827 H 0.11317 0.80961 0.23166 0.0
Mn828 Mn 0.37472 0.69399 0.44323 0.0
Mn829 Mn 0.35291 0.62367 0.4498 0.0
C830 C 0.40622 0.65758 0.41514 0.0
C831 C 0.37626 0.73881 0.40609 0.0
C832 C 0.37667 0.65809 0.52927 0.0
O833 O 0.32955 0.69706 0.45701 0.0
O834 O 0.31718 0.64961 0.45031 0.0
C835 C 0.32154 0.61806 0.36236 0.0
N836 N 0.34329 0.60894 0.39149 0.0
C837 C 0.35571 0.56813 0.34427 0.0
C838 C 0.33319 0.57687 0.31398 0.0
C839 C 0.31633 0.60217 0.32276 0.0
C840 C 0.36059 0.58541 0.38234 0.0
H841 H 0.30819 0.63719 0.36946 0.0
C842 C 0.31018 0.67649 0.45547 0.0
O843 O 0.37996 0.73699 0.44926 0.0
O844 O 0.37 0.71484 0.38488 0.0
N845 N 0.38494 0.59568 0.44982 0.0
C846 C 0.40378 0.58853 0.4844 0.0
C847 C 0.42262 0.56404 0.48055 0.0
C848 C 0.42105 0.54644 0.44205 0.0
C849 C 0.40031 0.55327 0.40805 0.0
C850 C 0.38255 0.57831 0.41329 0.0
H851 H 0.40462 0.60142 0.51468 0.0
O852 O 0.41661 0.68317 0.42525 0.0
O853 O 0.37737 0.65414 0.42104 0.0
O854 O 0.38334 0.68107 0.50743 0.0
O855 O 0.36323 0.63629 0.51166 0.0
C856 C 0.3956 0.53542 0.37022 0.0
C857 C 0.37306 0.54263 0.33872 0.0
H858 H 0.32865 0.56432 0.28389 0.0
H859 H 0.29903 0.60914 0.29943 0.0
H860 H 0.43803 0.55853 0.50748 0.0
H861 H 0.43527 0.52731 0.43951 0.0
H862 H 0.40873 0.51573 0.36554 0.0
H863 H 0.36907 0.5282 0.31056 0.0
Mn864 Mn 0.44422 0.12546 0.20836 0.0
Mn865 Mn 0.49745 0.10727 0.28452 0.0
C866 C 0.49322 0.11799 0.18387 0.0
C867 C 0.41658 0.16282 0.17438 0.0
C868 C 0.45166 0.06425 0.24714 0.0
O869 O 0.42429 0.13468 0.26769 0.0
O870 O 0.46259 0.12572 0.31509 0.0
C871 C 0.5146 0.1668 0.31329 0.0
N872 N 0.52257 0.14 0.29758 0.0
C873 C 0.57534 0.15207 0.3012 0.0
C874 C 0.56774 0.17972 0.31783 0.0
C875 C 0.53721 0.18721 0.32339 0.0
C876 C 0.55179 0.13279 0.29116 0.0
H877 H 0.49117 0.17253 0.31805 0.0
C878 C 0.43589 0.13473 0.30673 0.0
O879 O 0.40628 0.13629 0.17526 0.0
O880 O 0.44273 0.16737 0.19243 0.0
N881 N 0.53314 0.08952 0.26108 0.0
C882 C 0.53653 0.0625 0.2428 0.0
C883 C 0.5657 0.05158 0.23532 0.0
C884 C 0.59097 0.0685 0.24686 0.0
C885 C 0.58693 0.09647 0.26454 0.0
C886 C 0.55739 0.10597 0.2721 0.0
H887 H 0.51716 0.04913 0.23508 0.0
O888 O 0.47047 0.11717 0.15644 0.0
O889 O 0.48667 0.12419 0.22568 0.0
O890 O 0.43882 0.0814 0.21913 0.0
O891 O 0.47303 0.07204 0.27336 0.0
C892 C 0.6111 0.11513 0.27555 0.0
C893 C 0.60529 0.14303 0.29351 0.0
H894 H 0.58512 0.19546 0.32598 0.0
H895 H 0.53113 0.20863 0.33559 0.0
H896 H 0.56871 0.02997 0.2215 0.0
H897 H 0.61344 0.05976 0.2428 0.0
H898 H 0.63422 0.10834 0.26992 0.0
H899 H 0.624 0.15738 0.30118 0.0
Mn900 Mn 0.62418 0.71151 0.94663 0.0
Mn901 Mn 0.63438 0.76331 0.02534 0.0
C902 C 0.62726 0.75968 0.92579 0.0
C903 C 0.59157 0.68243 0.90601 0.0
C904 C 0.68455 0.72491 0.99026 0.0
O905 O 0.61379 0.6906 0.00444 0.0
O906 O 0.61977 0.72692 0.05466 0.0
C907 C 0.57067 0.77179 0.05246 0.0
N908 N 0.59691 0.78285 0.03576 0.0
C909 C 0.57493 0.83057 0.02837 0.0
C910 C 0.54775 0.81975 0.04584 0.0
C911 C 0.54559 0.79021 0.05777 0.0
C912 C 0.59923 0.81124 0.02413 0.0
H913 H 0.56886 0.74908 0.06157 0.0
C914 C 0.61294 0.7006 0.04435 0.0
O915 O 0.6195 0.67458 0.91179 0.0
O916 O 0.58272 0.70654 0.92436 0.0
N917 N 0.648 0.79964 0.00112 0.0
C918 C 0.67518 0.8062 0.98224 0.0
C919 C 0.68059 0.83462 0.96673 0.0
C920 C 0.65806 0.856 0.97091 0.0
C921 C 0.63031 0.84876 0.99065 0.0
C922 C 0.62628 0.82013 0.00576 0.0
H923 H 0.69251 0.7898 0.97872 0.0
O924 O 0.63257 0.7392 0.89675 0.0
O925 O 0.62002 0.75114 0.96609 0.0
O926 O 0.66887 0.7105 0.96212 0.0
O927 O 0.67401 0.74477 0.01591 0.0
C928 C 0.60631 0.86871 0.99521 0.0
C929 C 0.57866 0.85963 0.01413 0.0
H930 H 0.52832 0.83386 0.04986 0.0
H931 H 0.52464 0.78165 0.07105 0.0
H932 H 0.70204 0.84002 0.95143 0.0
H933 H 0.66224 0.87784 0.95859 0.0
H934 H 0.60878 0.89101 0.98384 0.0
H935 H 0.56027 0.87509 0.017 0.0
Mn936 Mn 0.04877 0.87472 0.70348 0.0
Mn937 Mn 0.99484 0.89058 0.77982 0.0
C938 C -0.00028 0.88188 0.67903 0.0
C939 C 0.07721 0.83903 0.66695 0.0
C940 C 0.0395 0.93521 0.74423 0.0
O941 O 0.06861 0.86426 0.76274 0.0
O942 O 0.03003 0.87238 0.81007 0.0
C943 C 0.97894 0.83028 0.80644 0.0
N944 N 0.97043 0.85708 0.79133 0.0
C945 C 0.91797 0.84366 0.79323 0.0
C946 C 0.92612 0.81599 0.80918 0.0
C947 C 0.95676 0.80918 0.81532 0.0
C948 C 0.9411 0.86365 0.7844 0.0
H949 H 0.00245 0.82506 0.81167 0.0
C950 C 0.05682 0.86356 0.80171 0.0
O951 O 0.08697 0.86567 0.66989 0.0
O952 O 0.05127 0.83329 0.68488 0.0
N953 N 0.95886 0.9079 0.75656 0.0
C954 C 0.95491 0.93515 0.73938 0.0
C955 C 0.92554 0.9455 0.73169 0.0
C956 C 0.90063 0.92772 0.74178 0.0
C957 C 0.90525 0.89954 0.75839 0.0
C958 C 0.93496 0.89065 0.76628 0.0
H959 H 0.97398 0.94915 0.73268 0.0
O960 O 0.02252 0.88376 0.65181 0.0
O961 O 0.00624 0.87481 0.72051 0.0
O962 O 0.05312 0.91866 0.71624 0.0
O963 O 0.01832 0.9266 0.77014 0.0
C964 C 0.88149 0.88011 0.76809 0.0
C965 C 0.88787 0.85208 0.78515 0.0
H966 H 0.90908 0.79973 0.81642 0.0
H967 H 0.96326 0.78778 0.82715 0.0
H968 H 0.9221 0.96733 0.71889 0.0
H969 H 0.878 0.93599 0.73747 0.0
H970 H 0.85826 0.88641 0.7622 0.0
H971 H 0.86947 0.83716 0.79188 0.0
Mn972 Mn 0.8716 0.28663 0.46666 0.0
Mn973 Mn 0.85881 0.23533 0.54535 0.0
C974 C 0.86708 0.23868 0.4457 0.0
C975 C 0.90515 0.31534 0.42745 0.0
C976 C 0.81056 0.27542 0.50904 0.0
O977 O 0.88171 0.30715 0.52456 0.0
O978 O 0.87454 0.2712 0.57504 0.0
C979 C 0.92174 0.22439 0.57437 0.0
N980 N 0.89531 0.21437 0.55683 0.0
C981 C 0.91519 0.16572 0.55082 0.0
C982 C 0.94254 0.17547 0.56918 0.0
C983 C 0.94586 0.20496 0.5808 0.0
C984 C 0.89187 0.18604 0.54548 0.0
H985 H 0.92442 0.24705 0.58332 0.0
C986 C 0.88202 0.29732 0.56455 0.0
O987 O 0.87729 0.32353 0.43256 0.0
O988 O 0.91341 0.29085 0.44537 0.0
N989 N 0.84399 0.19952 0.52088 0.0
C990 C 0.8168 0.19403 0.5012 0.0
C991 C 0.81036 0.16579 0.48576 0.0
C992 C 0.83185 0.14352 0.49087 0.0
C993 C 0.85961 0.14968 0.51143 0.0
C994 C 0.86471 0.17819 0.52636 0.0
H995 H 0.80027 0.21111 0.49699 0.0
O996 O 0.86291 0.25938 0.41657 0.0
O997 O 0.87432 0.24686 0.48624 0.0
O998 O 0.82701 0.28896 0.48096 0.0
O999 O 0.82006 0.25531 0.53513 0.0
C1000 C 0.88261 0.12877 0.51702 0.0
C1001 C 0.91035 0.13677 0.53678 0.0
H1002 H 0.96123 0.16058 0.57407 0.0
H1003 H 0.96698 0.21271 0.59461 0.0
H1004 H 0.78891 0.16122 0.46983 0.0
H1005 H 0.82687 0.12181 0.47865 0.0
H1006 H 0.87931 0.10653 0.50583 0.0
H1007 H 0.92796 0.12056 0.54049 0.0
Mn1008 Mn 0.44918 0.87934 0.28532 0.0
Mn1009 Mn 0.50029 0.89978 0.20783 0.0
C1010 C 0.49841 0.88766 0.30876 0.0
C1011 C 0.42289 0.84104 0.319 0.0
C1012 C 0.4524 0.94031 0.2462 0.0
O1013 O 0.42891 0.87027 0.22604 0.0
O1014 O 0.46731 0.8777 0.17803 0.0
C1015 C 0.52402 0.84246 0.17872 0.0
N1016 N 0.5289 0.86979 0.195 0.0
C1017 C 0.58274 0.86365 0.19034 0.0
C1018 C 0.57833 0.83544 0.17338 0.0
C1019 C 0.54883 0.82472 0.16797 0.0
C1020 C 0.55715 0.88013 0.20109 0.0
H1021 H 0.50136 0.83433 0.17389 0.0
C1022 C 0.44064 0.86878 0.1871 0.0
O1023 O 0.41197 0.86733 0.31899 0.0
O1024 O 0.44894 0.8372 0.30018 0.0
N1025 N 0.53378 0.92119 0.23113 0.0
C1026 C 0.53408 0.94849 0.24914 0.0
C1027 C 0.56175 0.96274 0.25561 0.0
C1028 C 0.58874 0.94884 0.24322 0.0
C1029 C 0.58798 0.92035 0.2264 0.0
C1030 C 0.55972 0.90744 0.21999 0.0
H1031 H 0.51336 0.95965 0.2573 0.0
O1032 O 0.47589 0.88771 0.33668 0.0
O1033 O 0.4914 0.88199 0.2669 0.0
O1034 O 0.44219 0.92323 0.27645 0.0
O1035 O 0.47254 0.93284 0.2178 0.0
C1036 C 0.6141 0.90447 0.21484 0.0
C1037 C 0.61149 0.87601 0.19727 0.0
H1038 H 0.59739 0.82178 0.16465 0.0
H1039 H 0.54525 0.8029 0.15527 0.0
H1040 H 0.56225 0.98461 0.26916 0.0
H1041 H 0.60988 0.96043 0.24617 0.0
H1042 H 0.6363 0.91388 0.2196 0.0
H1043 H 0.63172 0.86387 0.18905 0.0
Mn1044 Mn 0.87288 0.71526 0.03682 0.0
Mn1045 Mn 0.8626 0.76638 0.95679 0.0
C1046 C 0.8682 0.7635 0.0568 0.0
C1047 C 0.90486 0.68625 0.07881 0.0
C1048 C 0.81292 0.727 0.99061 0.0
O1049 O 0.88483 0.69435 0.9797 0.0
O1050 O 0.87879 0.73022 0.92871 0.0
C1051 C 0.92657 0.77635 0.93239 0.0
N1052 N 0.89961 0.78688 0.94726 0.0
C1053 C 0.91976 0.83541 0.95338 0.0
C1054 C 0.94765 0.82514 0.93769 0.0
C1055 C 0.95111 0.79545 0.92744 0.0
C1056 C 0.89607 0.81538 0.95745 0.0
H1057 H 0.92936 0.75354 0.92452 0.0
C1058 C 0.88618 0.70416 0.9397 0.0
O1059 O 0.8771 0.67843 0.07166 0.0
O1060 O 0.91398 0.71062 0.06142 0.0
N1061 N 0.84747 0.80253 0.97961 0.0
C1062 C 0.81984 0.80845 0.99758 0.0
C1063 C 0.81321 0.83691 0.01181 0.0
C1064 C 0.83498 0.85898 0.00729 0.0
C1065 C 0.8632 0.85238 0.9885 0.0
C1066 C 0.86845 0.82367 0.97462 0.0
H1067 H 0.80309 0.79153 0.00134 0.0
O1068 O 0.86296 0.74304 0.08596 0.0
O1069 O 0.87644 0.75496 0.01691 0.0
O1070 O 0.82859 0.71328 0.01951 0.0
O1071 O 0.8233 0.74692 0.96494 0.0
C1072 C 0.88652 0.87303 0.98386 0.0
C1073 C 0.91477 0.86456 0.96627 0.0
H1074 H 0.96667 0.83977 0.93394 0.0
H1075 H 0.97265 0.78731 0.91575 0.0
H1076 H 0.79141 0.84181 0.0264 0.0
H1077 H 0.82986 0.88085 0.01865 0.0
H1078 H 0.88312 0.89541 0.99429 0.0
H1079 H 0.93266 0.88054 0.96347 0.0
Mn1080 Mn 0.04972 0.11792 0.79742 0.0
Mn1081 Mn 0.99567 0.10789 0.71961 0.0
C1082 C -0.00022 0.11338 0.82201 0.0
C1083 C 0.07976 0.15107 0.8367 0.0
C1084 C 0.03849 0.05993 0.75021 0.0
O1085 O 0.07041 0.13054 0.73988 0.0
O1086 O 0.03164 0.12605 0.69205 0.0
C1087 C 0.98282 0.17012 0.70106 0.0
N1088 N 0.97292 0.14296 0.71224 0.0
C1089 C 0.92115 0.15868 0.71068 0.0
C1090 C 0.93073 0.18678 0.69885 0.0
C1091 C 0.96173 0.19258 0.69444 0.0
C1092 C 0.94326 0.13736 0.71775 0.0
H1093 H 0.0066 0.17458 0.69709 0.0
C1094 C 0.0587 0.13345 0.70119 0.0
O1095 O 0.08837 0.12418 0.83164 0.0
O1096 O 0.05378 0.15824 0.82028 0.0
N1097 N 0.9586 0.09074 0.73885 0.0
C1098 C 0.9531 0.06241 0.74983 0.0
C1099 C 0.92316 0.05266 0.75346 0.0
C1100 C 0.8992 0.07209 0.74562 0.0
C1101 C 0.90536 0.10116 0.73467 0.0
C1102 C 0.93563 0.10948 0.73051 0.0
H1103 H 0.97139 0.04717 0.75469 0.0
O1104 O 0.02265 0.1072 0.84755 0.0
O1105 O 0.00705 0.12089 0.78093 0.0
O1106 O 0.05255 0.07483 0.77975 0.0
O1107 O 0.01761 0.0704 0.7253 0.0
C1108 C 0.88265 0.12213 0.72722 0.0
C1109 C 0.89055 0.15094 0.71559 0.0
H1110 H 0.91452 0.20405 0.69308 0.0
H1111 H 0.96933 0.21423 0.68546 0.0
H1112 H 0.91854 0.03012 0.76168 0.0
H1113 H 0.87613 0.06445 0.74773 0.0
H1114 H 0.85905 0.11634 0.73049 0.0
H1115 H 0.87292 0.16692 0.71016 0.0
Mn1116 Mn 0.6219 0.28942 0.54699 0.0
Mn1117 Mn 0.63428 0.23822 0.46775 0.0
C1118 C 0.62659 0.24132 0.5673 0.0
C1119 C 0.58869 0.31794 0.58744 0.0
C1120 C 0.6828 0.27788 0.50401 0.0
O1121 O 0.61134 0.31027 0.48925 0.0
O1122 O 0.61877 0.27431 0.43884 0.0
C1123 C 0.57091 0.22809 0.44031 0.0
N1124 N 0.59758 0.21761 0.45636 0.0
C1125 C 0.57749 0.16901 0.4614 0.0
C1126 C 0.5499 0.17922 0.44447 0.0
C1127 C 0.54655 0.20893 0.43418 0.0
C1128 C 0.60101 0.18911 0.46665 0.0
H1129 H 0.56821 0.25092 0.43245 0.0
C1130 C 0.61122 0.30041 0.44924 0.0
O1131 O 0.61648 0.32616 0.58174 0.0
O1132 O 0.58025 0.29361 0.56922 0.0
N1133 N 0.64901 0.20212 0.4913 0.0
C1134 C 0.67627 0.19627 0.51051 0.0
C1135 C 0.68272 0.1678 0.52492 0.0
C1136 C 0.66116 0.14566 0.51927 0.0
C1137 C 0.63333 0.15218 0.49916 0.0
C1138 C 0.62826 0.1809 0.48515 0.0
H1139 H 0.69286 0.21324 0.51512 0.0
O1140 O 0.63088 0.26182 0.59669 0.0
O1141 O 0.6191 0.24971 0.52702 0.0
O1142 O 0.6665 0.29165 0.53205 0.0
O1143 O 0.67314 0.25782 0.47801 0.0
C1144 C 0.61021 0.13145 0.49331 0.0
C1145 C 0.58232 0.13985 0.47441 0.0
H1146 H 0.53102 0.16453 0.4398 0.0
H1147 H 0.52522 0.21703 0.42161 0.0
H1148 H 0.70422 0.16295 0.5405 0.0
H1149 H 0.66613 0.12378 0.53077 0.0
H1150 H 0.61349 0.10906 0.5038 0.0
H1151 H 0.56456 0.12381 0.4707 0.0
C1152 C 0.09422 0.36307 0.15647 0.0
C1153 C 0.06448 0.35368 0.16386 0.0
H1154 H 0.13145 0.36451 0.11042 0.0
C1155 C 0.0507 0.33528 0.13204 0.0
H1156 H 0.10536 0.37728 0.18035 0.0
C1157 C 0.06599 0.32717 0.09292 0.0
C1158 C 0.09498 0.33801 0.08441 0.0
H1159 H 0.02781 0.32763 0.13683 0.0
H1160 H 0.05448 0.31394 0.0681 0.0
C1161 C 0.10915 0.35569 0.11668 0.0
C1162 C 0.89238 0.87667 0.34148 0.0
C1163 C 0.91983 0.86283 0.33139 0.0
H1164 H 0.85654 0.88175 0.38946 0.0
C1165 C 0.93034 0.84064 0.35986 0.0
H1166 H 0.88384 0.8939 0.32007 0.0
C1167 C 0.91443 0.83311 0.39855 0.0
C1168 C 0.88802 0.84819 0.41046 0.0
H1169 H 0.95133 0.8295 0.35288 0.0
H1170 H 0.92389 0.81663 0.42051 0.0
C1171 C 0.8768 0.8697 0.3811 0.0
C1172 C 0.39263 0.62755 0.64551 0.0
C1173 C 0.4198 0.64181 0.65586 0.0
H1174 H 0.35752 0.62134 0.59666 0.0
C1175 C 0.43049 0.66362 0.62689 0.0
H1176 H 0.38401 0.61057 0.6673 0.0
C1177 C 0.41507 0.67033 0.58741 0.0
C1178 C 0.389 0.65479 0.57527 0.0
H1179 H 0.45129 0.67503 0.63407 0.0
H1180 H 0.42467 0.68654 0.56513 0.0
C1181 C 0.37754 0.63371 0.60515 0.0
C1182 C 0.60147 0.12489 0.84892 0.0
C1183 C 0.57398 0.13897 0.83997 0.0
H1184 H 0.63751 0.11858 0.89621 0.0
C1185 C 0.56352 0.16036 0.86989 0.0
H1186 H 0.60995 0.10826 0.82637 0.0
C1187 C 0.57962 0.16689 0.90884 0.0
C1188 C 0.6061 0.15155 0.91943 0.0
H1189 H 0.54247 0.17164 0.86378 0.0
H1190 H 0.5703 0.18276 0.93197 0.0
C1191 C 0.61719 0.1308 0.88876 0.0
C1192 C 0.05264 0.64847 0.3765 0.0
C1193 C 0.06577 0.63191 0.34185 0.0
H1194 H 0.05843 0.66828 0.44115 0.0
C1195 C 0.09581 0.62251 0.34654 0.0
H1196 H 0.02953 0.65596 0.37404 0.0
C1197 C 0.11205 0.62887 0.38575 0.0
C1198 C 0.09888 0.64566 0.42003 0.0
H1199 H 0.10645 0.60962 0.32047 0.0
H1200 H 0.13489 0.62073 0.38929 0.0
C1201 C 0.0692 0.65569 0.41482 0.0
C1202 C 0.57144 0.83684 0.57855 0.0
C1203 C 0.59876 0.85112 0.56946 0.0
H1204 H 0.53397 0.8323 0.62324 0.0
C1205 C 0.61056 0.87058 0.60147 0.0
H1206 H 0.56171 0.82194 0.5543 0.0
C1207 C 0.59504 0.87592 0.64167 0.0
C1208 C 0.56702 0.86261 0.64971 0.0
H1209 H 0.63162 0.88187 0.59519 0.0
H1210 H 0.60429 0.89136 0.66552 0.0
C1211 C 0.55551 0.84287 0.61794 0.0
C1212 C 0.37628 0.37008 0.88875 0.0
C1213 C 0.38772 0.34941 0.91927 0.0
H1214 H 0.38302 0.39275 0.82633 0.0
C1215 C 0.41427 0.33426 0.90834 0.0
H1216 H 0.3559 0.38213 0.89645 0.0
C1217 C 0.4301 0.34095 0.86921 0.0
C1218 C 0.41931 0.3623 0.83947 0.0
H1219 H 0.42385 0.31845 0.93133 0.0
H1220 H 0.45121 0.32985 0.86283 0.0
C1221 C 0.39175 0.37616 0.84875 0.0
C1222 C 0.92574 0.17521 0.09632 0.0
C1223 C 0.89815 0.16209 0.08545 0.0
H1224 H 0.96262 0.17697 0.14257 0.0
C1225 C 0.88467 0.14282 0.11623 0.0
H1226 H 0.93669 0.18984 0.07284 0.0
C1227 C 0.89913 0.13591 0.15662 0.0
C1228 C 0.92774 0.14747 0.1661 0.0
H1229 H 0.8634 0.13236 0.10831 0.0
H1230 H 0.88876 0.12029 0.17913 0.0
C1231 C 0.94062 0.16764 0.13604 0.0
C1232 C 0.9049 0.673 0.82543 0.0
C1233 C 0.92601 0.65132 0.83666 0.0
H1234 H 0.87596 0.707 0.84934 0.0
C1235 C 0.93246 0.64595 0.88213 0.0
H1236 H 0.89969 0.67778 0.79061 0.0
C1237 C 0.91857 0.6624 0.91574 0.0
C1238 C 0.89846 0.68494 0.90443 0.0
H1239 H 0.94864 0.62937 0.89173 0.0
H1240 H 0.92448 0.65819 0.95048 0.0
C1241 C 0.89148 0.68985 0.859 0.0
C1242 C 0.10751 0.1895 0.64355 0.0
C1243 C 0.10026 0.18459 0.59817 0.0
H1244 H 0.10061 0.17644 0.71197 0.0
C1245 C 0.08163 0.1609 0.58693 0.0
H1246 H 0.12199 0.20747 0.65316 0.0
C1247 C 0.06924 0.14341 0.62049 0.0
C1248 C 0.07568 0.14887 0.6659 0.0
H1249 H 0.07561 0.15653 0.55228 0.0
H1250 H 0.05395 0.12605 0.61095 0.0
C1251 C 0.09554 0.17159 0.67714 0.0
C1252 C 0.58077 0.34281 0.42258 0.0
C1253 C 0.60054 0.3197 0.41298 0.0
H1254 H 0.55201 0.37608 0.39597 0.0
C1255 C 0.60877 0.31426 0.36817 0.0
H1256 H 0.57402 0.3475 0.45684 0.0
C1257 C 0.59659 0.33094 0.33342 0.0
C1258 C 0.57554 0.35301 0.34284 0.0
H1259 H 0.62417 0.29672 0.35986 0.0
H1260 H 0.60254 0.32557 0.29908 0.0
C1261 C 0.56816 0.35915 0.38778 0.0
C1262 C 0.40209 0.83241 0.16278 0.0
C1263 C 0.42356 0.85373 0.15145 0.0
H1264 H 0.37255 0.79886 0.1391 0.0
C1265 C 0.43006 0.85892 0.10594 0.0
H1266 H 0.39679 0.82777 0.19762 0.0
C1267 C 0.41583 0.84265 0.07242 0.0
C1268 C 0.39534 0.82048 0.08389 0.0
H1269 H 0.44649 0.87524 0.09627 0.0
H1270 H 0.42176 0.84667 0.03764 0.0
C1271 C 0.38834 0.81574 0.12934 0.0
C1272 C 0.89885 0.32895 0.67932 0.0
C1273 C 0.91881 0.35159 0.66806 0.0
H1274 H 0.8718 0.29355 0.65517 0.0
C1275 C 0.92483 0.35746 0.62267 0.0
H1276 H 0.89409 0.32384 0.71416 0.0
C1277 C 0.91192 0.34044 0.58907 0.0
C1278 C 0.89317 0.31682 0.60024 0.0
H1279 H 0.94016 0.3748 0.61317 0.0
H1280 H 0.91763 0.3451 0.55439 0.0
C1281 C 0.88635 0.31149 0.64564 0.0
C1282 C 0.39758 0.17042 0.33382 0.0
C1283 C 0.41903 0.14875 0.34349 0.0
H1284 H 0.36926 0.20417 0.35987 0.0
C1285 C 0.4264 0.14282 0.3885 0.0
H1286 H 0.39161 0.1756 0.29941 0.0
C1287 C 0.41335 0.15898 0.42313 0.0
C1288 C 0.39315 0.18171 0.41326 0.0
H1289 H 0.44284 0.1262 0.39689 0.0
H1290 H 0.42009 0.15451 0.45746 0.0
C1291 C 0.38497 0.18693 0.36838 0.0
C1292 C 0.59672 0.67001 0.15986 0.0
C1293 C 0.57598 0.64778 0.14979 0.0
H1294 H 0.62445 0.70443 0.1343 0.0
C1295 C 0.56926 0.64168 0.10462 0.0
H1296 H 0.60214 0.67537 0.1944 0.0
C1297 C 0.58232 0.65808 0.07022 0.0
C1298 C 0.60186 0.68128 0.0804 0.0
H1299 H 0.55336 0.62466 0.0959 0.0
H1300 H 0.5761 0.65335 0.03576 0.0
C1301 C 0.60931 0.6868 0.1255 0.0
C1302 C 0.09415 0.82667 0.82881 0.0
C1303 C 0.07346 0.84904 0.83844 0.0
H1304 H 0.12147 0.7921 0.85498 0.0
C1305 C 0.06639 0.85518 0.8835 0.0
H1306 H 0.09981 0.82126 0.79437 0.0
C1307 C 0.07906 0.83872 0.91819 0.0
C1308 C 0.09856 0.8154 0.90846 0.0
H1309 H 0.0505 0.87228 0.8919 0.0
H1310 H 0.07258 0.84352 0.95252 0.0
C1311 C 0.10635 0.80982 0.86347 0.0
C1312 C 0.08048 0.32977 0.41383 0.0
C1313 C 0.0964 0.33998 0.37624 0.0
H1314 H 0.07738 0.29723 0.46475 0.0
C1315 C 0.12521 0.32891 0.36699 0.0
H1316 H 0.05794 0.33773 0.42096 0.0
C1317 C 0.13668 0.30589 0.39289 0.0
C1318 C 0.11945 0.29401 0.42816 0.0
H1319 H 0.13749 0.33609 0.33751 0.0
H1320 H 0.15785 0.29588 0.38318 0.0
C1321 C 0.09174 0.30678 0.43925 0.0
C1322 C 0.94217 0.88181 0.58754 0.0
C1323 C 0.92172 0.8607 0.60239 0.0
H1324 H 0.98085 0.90772 0.60276 0.0
C1325 C 0.92463 0.84974 0.64628 0.0
H1326 H 0.94263 0.88837 0.55279 0.0
C1327 C 0.94896 0.85812 0.67333 0.0
C1328 C 0.96941 0.87937 0.65851 0.0
H1329 H 0.91023 0.83211 0.65761 0.0
H1330 H 0.95352 0.84565 0.70328 0.0
C1331 C 0.96476 0.89217 0.61608 0.0
C1332 C 0.35518 0.6986 0.88293 0.0
C1333 C 0.37306 0.71266 0.91538 0.0
H1334 H 0.35381 0.66592 0.83104 0.0
C1335 C 0.40223 0.70238 0.92414 0.0
H1336 H 0.33283 0.70672 0.87508 0.0
C1337 C 0.414 0.67941 0.89938 0.0
C1338 C 0.39695 0.66656 0.86503 0.0
H1339 H 0.41688 0.7136 0.94761 0.0
H1340 H 0.43728 0.67304 0.90488 0.0
C1341 C 0.36703 0.67535 0.85798 0.0
C1342 C 0.55104 0.11956 0.09272 0.0
C1343 C 0.57249 0.13902 0.10961 0.0
H1344 H 0.51129 0.09463 0.10538 0.0
C1345 C 0.56972 0.14865 0.15425 0.0
H1346 H 0.55033 0.1145 0.05738 0.0
C1347 C 0.54481 0.1404 0.18025 0.0
C1348 C 0.52364 0.1204 0.16363 0.0
H1349 H 0.58483 0.16523 0.16716 0.0
H1350 H 0.54051 0.1521 0.21098 0.0
C1351 C 0.52794 0.10904 0.12017 0.0
C1352 C 0.12376 0.67168 0.14015 0.0
C1353 C 0.09497 0.66059 0.13076 0.0
H1354 H 0.15614 0.70519 0.125 0.0
C1355 C 0.07842 0.67195 0.0946 0.0
H1356 H 0.13648 0.66366 0.16868 0.0
C1357 C 0.08925 0.69568 0.07044 0.0
C1358 C 0.1172 0.70805 0.08122 0.0
H1359 H 0.05585 0.66405 0.0875 0.0
H1360 H 0.07461 0.70579 0.0458 0.0
C1361 C 0.13481 0.69546 0.11547 0.0
C1362 C 0.5331 0.89315 0.37349 0.0
C1363 C 0.52899 0.88429 0.32858 0.0
H1364 H 0.55488 0.88388 0.43589 0.0
C1365 C 0.55038 0.86533 0.30968 0.0
H1366 H 0.51644 0.90677 0.38994 0.0
C1367 C 0.57506 0.85545 0.33499 0.0
C1368 C 0.57743 0.86236 0.38086 0.0
H1369 H 0.54633 0.85536 0.27751 0.0
H1370 H 0.59015 0.83951 0.32022 0.0
C1371 C 0.55583 0.88085 0.39989 0.0
C1372 C 0.35497 0.30254 0.61667 0.0
C1373 C 0.37285 0.28958 0.58314 0.0
H1374 H 0.35301 0.33494 0.66887 0.0
C1375 C 0.4009 0.30171 0.57235 0.0
H1376 H 0.33354 0.29295 0.6261 0.0
C1377 C 0.41163 0.32562 0.59597 0.0
C1378 C 0.39482 0.33731 0.63153 0.0
H1379 H 0.41567 0.29129 0.54819 0.0
H1380 H 0.43426 0.33341 0.58901 0.0
C1381 C 0.36591 0.32652 0.64079 0.0
C1382 C 0.98226 0.14804 0.88008 0.0
C1383 C 0.97462 0.128 0.84613 0.0
H1384 H 0.96704 0.17632 0.93229 0.0
C1385 C 0.94399 0.12191 0.83886 0.0
H1386 H 0.00565 0.1533 0.88703 0.0
C1387 C 0.92157 0.13706 0.86271 0.0
C1388 C 0.92946 0.15591 0.89797 0.0
H1389 H 0.93723 0.10491 0.81636 0.0
H1390 H 0.89817 0.13387 0.85382 0.0
C1391 C 0.9601 0.16135 0.90607 0.0
C1392 C 0.90806 0.71383 0.66812 0.0
C1393 C 0.90852 0.68658 0.64679 0.0
H1394 H 0.89613 0.7589 0.66364 0.0
C1395 C 0.8952 0.68362 0.6042 0.0
H1396 H 0.91813 0.71659 0.70105 0.0
C1397 C 0.88328 0.70809 0.58212 0.0
C1398 C 0.88361 0.73557 0.60304 0.0
H1399 H 0.89546 0.66279 0.58707 0.0
H1400 H 0.87451 0.70567 0.54833 0.0
C1401 C 0.89529 0.73798 0.64679 0.0
C1402 C 0.04467 0.12361 0.37887 0.0
C1403 C 0.02371 0.13816 0.35165 0.0
H1404 H 0.08313 0.12815 0.42239 0.0
C1405 C 0.02493 0.16856 0.34753 0.0
H1406 H 0.04363 0.10017 0.38285 0.0
C1407 C 0.04659 0.1844 0.37074 0.0
C1408 C 0.06765 0.17005 0.39792 0.0
H1409 H 0.00853 0.18018 0.32728 0.0
H1410 H 0.04673 0.20794 0.36768 0.0
C1411 C 0.06709 0.13951 0.40122 0.0
C1412 C 0.60696 0.26202 0.15579 0.0
C1413 C 0.61802 0.26343 0.11159 0.0
H1414 H 0.58517 0.28477 0.20969 0.0
C1415 C 0.61882 0.29061 0.08967 0.0
H1416 H 0.6058 0.2414 0.17345 0.0
C1417 C 0.60767 0.31569 0.11104 0.0
C1418 C 0.59473 0.3137 0.154 0.0
H1419 H 0.62713 0.29229 0.05553 0.0
H1420 H 0.60751 0.33619 0.09298 0.0
C1421 C 0.595 0.2868 0.17647 0.0
C1422 C 0.43927 0.82032 0.85009 0.0
C1423 C 0.42066 0.83535 0.88025 0.0
H1424 H 0.47669 0.82267 0.80502 0.0
C1425 C 0.42424 0.86552 0.88598 0.0
H1426 H 0.43684 0.79702 0.84531 0.0
C1427 C 0.44757 0.88013 0.86356 0.0
C1428 C 0.46645 0.86482 0.83398 0.0
H1429 H 0.41023 0.87735 0.9096 0.0
H1430 H 0.45125 0.9031 0.8699 0.0
C1431 C 0.46188 0.83497 0.82696 0.0
C1432 C 0.87626 0.30299 0.92555 0.0
C1433 C 0.8717 0.27709 0.90105 0.0
H1434 H 0.89325 0.34696 0.92444 0.0
C1435 C 0.87736 0.27716 0.85457 0.0
H1436 H 0.87218 0.30359 0.96144 0.0
C1437 C 0.88993 0.30163 0.8339 0.0
C1438 C 0.89626 0.3268 0.85892 0.0
H1439 H 0.87426 0.25761 0.8347 0.0
H1440 H 0.89606 0.30041 0.79868 0.0
C1441 C 0.88824 0.32781 0.90449 0.0
C1442 C 0.45094 0.1215 0.63184 0.0
C1443 C 0.47118 0.13667 0.6595 0.0
H1444 H 0.41227 0.1247 0.58844 0.0
C1445 C 0.46799 0.1668 0.6653 0.0
H1446 H 0.45355 0.09829 0.62645 0.0
C1447 C 0.44526 0.18182 0.64298 0.0
C1448 C 0.42514 0.16686 0.61495 0.0
H1449 H 0.48385 0.17894 0.68579 0.0
H1450 H 0.44376 0.20525 0.64695 0.0
C1451 C 0.4275 0.1365 0.61035 0.0
C1452 C 0.61429 0.70676 0.40871 0.0
C1453 C 0.6168 0.73336 0.38547 0.0
H1454 H 0.60089 0.66171 0.40548 0.0
C1455 C 0.60977 0.73417 0.33943 0.0
H1456 H 0.61948 0.70555 0.44424 0.0
C1457 C 0.59846 0.70947 0.31783 0.0
C1458 C 0.59489 0.68322 0.34139 0.0
H1459 H 0.61124 0.75436 0.32066 0.0
H1460 H 0.59159 0.7111 0.28295 0.0
C1461 C 0.60379 0.68171 0.3866 0.0
C1462 C 0.0455 0.81942 0.13619 0.0
C1463 C 0.06699 0.83318 0.10896 0.0
H1464 H 0.00668 0.82456 0.17798 0.0
C1465 C 0.06665 0.86367 0.10455 0.0
H1466 H 0.04544 0.79594 0.1401 0.0
C1467 C 0.04395 0.88004 0.12548 0.0
C1468 C 0.02241 0.86607 0.15245 0.0
H1469 H 0.08298 0.87459 0.08334 0.0
H1470 H 0.04301 0.90338 0.12033 0.0
C1471 C 0.02353 0.83576 0.15799 0.0
C1472 C 0.63564 0.80238 0.87533 0.0
C1473 C 0.61842 0.78838 0.90864 0.0
H1474 H 0.63596 0.83486 0.82308 0.0
C1475 C 0.58929 0.79845 0.91824 0.0
H1476 H 0.65794 0.79441 0.86684 0.0
C1477 C 0.5769 0.82114 0.89346 0.0
C1478 C 0.59331 0.83399 0.85841 0.0
H1479 H 0.57517 0.7873 0.94249 0.0
H1480 H 0.55367 0.82738 0.89971 0.0
C1481 C 0.6232 0.82541 0.85049 0.0
C1482 C 0.44978 0.36133 0.17997 0.0
C1483 C 0.47099 0.38117 0.16301 0.0
H1484 H 0.40975 0.33644 0.16728 0.0
C1485 C 0.46666 0.39231 0.1194 0.0
H1486 H 0.45408 0.34982 0.21087 0.0
C1487 C 0.44352 0.38167 0.09214 0.0
C1488 C 0.42209 0.36229 0.10933 0.0
H1489 H 0.48332 0.40661 0.10439 0.0
H1490 H 0.44418 0.38657 0.05674 0.0
C1491 C 0.42486 0.35294 0.1541 0.0
C1492 C 0.85719 0.19726 0.3936 0.0
C1493 C 0.87437 0.20958 0.42851 0.0
H1494 H 0.85664 0.16669 0.33874 0.0
C1495 C 0.90261 0.19771 0.43904 0.0
H1496 H 0.83561 0.20663 0.38439 0.0
C1497 C 0.91439 0.17513 0.41335 0.0
C1498 C 0.89831 0.16432 0.37637 0.0
H1499 H 0.91681 0.20761 0.46444 0.0
H1500 H 0.93719 0.16773 0.42013 0.0
C1501 C 0.86908 0.17449 0.36767 0.0
C1502 C 0.0595 0.61917 0.59 0.0
C1503 C 0.08112 0.63808 0.60791 0.0
H1504 H 0.01964 0.59419 0.60125 0.0
C1505 C 0.07856 0.6465 0.65314 0.0
H1506 H 0.05866 0.61508 0.55424 0.0
C1507 C 0.0535 0.63791 0.67863 0.0
C1508 C 0.03202 0.61866 0.66082 0.0
H1509 H 0.09366 0.66282 0.66684 0.0
H1510 H 0.04923 0.64913 0.70976 0.0
C1511 C 0.0364 0.60809 0.61689 0.0
C1512 C 0.59209 0.19953 0.57256 0.0
C1513 C 0.61997 0.21192 0.58368 0.0
H1514 H 0.55892 0.16756 0.58887 0.0
C1515 C 0.63773 0.19914 0.61752 0.0
H1516 H 0.57738 0.20981 0.54818 0.0
C1517 C 0.62685 0.17509 0.64159 0.0
C1518 C 0.59812 0.16401 0.63194 0.0
H1519 H 0.65901 0.20892 0.62723 0.0
H1520 H 0.63963 0.16684 0.66991 0.0
C1521 C 0.58144 0.17553 0.5961 0.0
C1522 C 0.01288 0.35264 0.88114 0.0
C1523 C 0.02046 0.37271 0.84721 0.0
H1524 H 0.02825 0.3241 0.93291 0.0
C1525 C 0.05106 0.37868 0.83955 0.0
H1526 H 0.98951 0.34748 0.88835 0.0
C1527 C 0.07353 0.36332 0.86295 0.0
C1528 C 0.06572 0.34438 0.89814 0.0
H1529 H 0.05778 0.39572 0.81708 0.0
H1530 H 0.09691 0.36644 0.85382 0.0
C1531 C 0.03511 0.33911 0.90669 0.0
C1532 C 0.90333 0.80481 0.06359 0.0
C1533 C 0.87506 0.79283 0.07355 0.0
H1534 H 0.93672 0.8363 0.08115 0.0
C1535 C 0.85692 0.80594 0.10666 0.0
H1536 H 0.91831 0.7943 0.03981 0.0
C1537 C 0.86774 0.8299 0.13109 0.0
C1538 C 0.89682 0.84057 0.12261 0.0
H1539 H 0.83531 0.79651 0.11553 0.0
H1540 H 0.85456 0.83839 0.15881 0.0
C1541 C 0.91395 0.82867 0.08752 0.0
C1542 C 0.44444 0.61892 0.40026 0.0
C1543 C 0.42407 0.63963 0.38389 0.0
H1544 H 0.48268 0.59201 0.3868 0.0
C1545 C 0.42693 0.64909 0.33918 0.0
H1546 H 0.44496 0.61354 0.4355 0.0
C1547 C 0.45104 0.6395 0.31258 0.0
C1548 C 0.47134 0.61852 0.32886 0.0
H1549 H 0.41262 0.66642 0.32656 0.0
H1550 H 0.4556 0.65091 0.28167 0.0
C1551 C 0.46673 0.60728 0.37236 0.0
C1552 C 0.39912 0.21418 0.17704 0.0
C1553 C 0.39973 0.18734 0.15446 0.0
H1554 H 0.38818 0.25954 0.17397 0.0
C1555 C 0.38718 0.18535 0.11125 0.0
H1556 H 0.40866 0.21619 0.21045 0.0
C1557 C 0.37611 0.21042 0.08975 0.0
C1558 C 0.37663 0.23757 0.11177 0.0
H1559 H 0.38762 0.16489 0.09312 0.0
H1560 H 0.36812 0.20876 0.05544 0.0
C1561 C 0.38726 0.23894 0.15621 0.0
C1562 C 0.52742 0.66614 0.82854 0.0
C1563 C 0.52338 0.63617 0.83512 0.0
H1564 H 0.55269 0.70411 0.84581 0.0
C1565 C 0.54331 0.62074 0.86302 0.0
H1566 H 0.51184 0.6785 0.80791 0.0
C1567 C 0.5672 0.63536 0.8841 0.0
C1568 C 0.57034 0.66561 0.87873 0.0
H1569 H 0.54008 0.59767 0.86898 0.0
H1570 H 0.58208 0.62344 0.9064 0.0
C1571 C 0.55062 0.68075 0.85031 0.0
C1572 C 0.09982 0.78964 0.66822 0.0
C1573 C 0.09449 0.81566 0.64485 0.0
H1574 H 0.11465 0.74538 0.66479 0.0
C1575 C 0.10223 0.81749 0.59918 0.0
H1576 H 0.09382 0.78776 0.70343 0.0
C1577 C 0.11341 0.79289 0.57654 0.0
C1578 C 0.11774 0.76646 0.59966 0.0
H1579 H 0.09794 0.83731 0.58046 0.0
H1580 H 0.1177 0.79427 0.54076 0.0
C1581 C 0.1118 0.76544 0.64606 0.0
C1582 C 0.92775 0.36287 0.40381 0.0
C1583 C 0.92675 0.33233 0.40113 0.0
H1584 H 0.95149 0.40177 0.38401 0.0
C1585 C 0.94774 0.31745 0.37449 0.0
H1586 H 0.91182 0.37463 0.42463 0.0
C1587 C 0.9695 0.33279 0.35075 0.0
C1588 C 0.97089 0.36323 0.3537 0.0
H1589 H 0.9473 0.29389 0.37196 0.0
H1590 H 0.98565 0.32077 0.3306 0.0
C1591 C 0.95028 0.37829 0.38088 0.0
C1592 C 0.39318 0.81827 0.38154 0.0
C1593 C 0.40678 0.81611 0.33906 0.0
H1594 H 0.37308 0.79509 0.43675 0.0
C1595 C 0.40728 0.78905 0.31711 0.0
H1596 H 0.3927 0.83893 0.39915 0.0
C1597 C 0.39529 0.7643 0.33782 0.0
C1598 C 0.38343 0.76596 0.38153 0.0
H1599 H 0.41758 0.7869 0.28423 0.0
H1600 H 0.39692 0.74356 0.32059 0.0
C1601 C 0.38203 0.79325 0.40298 0.0
C1602 C 0.9667 0.66653 0.15918 0.0
C1603 C 0.96927 0.6364 0.15241 0.0
H1604 H 0.94402 0.7059 0.14084 0.0
C1605 C 0.94977 0.62232 0.12233 0.0
H1606 H 0.98204 0.67787 0.18153 0.0
C1607 C 0.92744 0.63829 0.09987 0.0
C1608 C 0.92553 0.66858 0.10586 0.0
H1609 H 0.95191 0.59915 0.11615 0.0
H1610 H 0.91262 0.62725 0.07645 0.0
C1611 C 0.94515 0.68254 0.13583 0.0
C1612 C 0.11867 0.19704 0.92447 0.0
C1613 C 0.12335 0.22308 0.90034 0.0
H1614 H 0.10167 0.15309 0.92266 0.0
C1615 C 0.11782 0.22327 0.85382 0.0
H1616 H 0.12263 0.19625 0.96038 0.0
C1617 C 0.10529 0.19892 0.83274 0.0
C1618 C 0.09888 0.17361 0.85737 0.0
H1619 H 0.121 0.24293 0.83422 0.0
H1620 H 0.09927 0.20034 0.79749 0.0
C1621 C 0.10674 0.17235 0.903 0.0
C1622 C 0.54703 0.32006 0.64219 0.0
C1623 C 0.56724 0.33489 0.61415 0.0
H1624 H 0.50846 0.32317 0.68498 0.0
C1625 C 0.56499 0.36526 0.60936 0.0
H1626 H 0.54847 0.29664 0.64633 0.0
C1627 C 0.54158 0.38039 0.63072 0.0
C1628 C 0.52129 0.36535 0.65846 0.0
H1629 H 0.5803 0.37696 0.58746 0.0
H1630 H 0.53907 0.4036 0.62523 0.0
C1631 C 0.52435 0.33521 0.66441 0.0
C1632 C 0.99066 0.48115 0.23817 0.0
C1633 C 0.01769 0.46615 0.24677 0.0
H1634 H 0.96871 0.52223 0.23161 0.0
C1635 C 0.04444 0.48229 0.25236 0.0
H1636 H 0.96969 0.46952 0.23322 0.0
C1637 C 0.04401 0.51278 0.24956 0.0
C1638 C 0.01667 0.52767 0.24279 0.0
H1639 H 0.06567 0.47136 0.25884 0.0
H1640 H 0.06489 0.52475 0.25381 0.0
C1641 C 0.99005 0.51153 0.23723 0.0
C1642 C 0.76613 0.79741 0.48934 0.0
C1643 C 0.77604 0.81773 0.5216 0.0
H1644 H 0.72883 0.78291 0.44847 0.0
C1645 C 0.75472 0.83565 0.54284 0.0
H1646 H 0.78219 0.78343 0.47235 0.0
C1647 C 0.72471 0.83532 0.5294 0.0
C1648 C 0.71519 0.81709 0.49433 0.0
H1649 H 0.76155 0.85126 0.56817 0.0
H1650 H 0.7092 0.85065 0.54476 0.0
C1651 C 0.73571 0.79711 0.47569 0.0
C1652 C 0.46496 0.48687 0.70602 0.0
C1653 C 0.46555 0.47101 0.74642 0.0
H1654 H 0.46558 0.52915 0.67524 0.0
C1655 C 0.46574 0.48587 0.78755 0.0
H1656 H 0.46511 0.47574 0.6739 0.0
C1657 C 0.46509 0.51627 0.78825 0.0
C1658 C 0.46527 0.53213 0.74784 0.0
H1659 H 0.46624 0.47399 0.81902 0.0
H1660 H 0.46541 0.52741 0.82037 0.0
C1661 C 0.46533 0.51727 0.70672 0.0
C1662 C 0.77044 0.15359 0.02365 0.0
C1663 C 0.78138 0.17748 -0.00088 0.0
H1664 H 0.73296 0.13322 0.05522 0.0
C1665 C 0.76196 0.20114 0.99072 0.0
H1666 H 0.78495 0.13531 0.0318 0.0
C1667 C 0.73155 0.19991 0.00428 0.0
C1668 C 0.7204 0.17508 0.02662 0.0
H1669 H 0.76991 0.21996 0.9722 0.0
H1670 H 0.71659 0.21771 0.99562 0.0
C1671 C 0.74052 0.15245 0.03731 0.0
C1672 C 0.94362 0.48817 0.78586 0.0
C1673 C 0.94983 0.47174 0.74712 0.0
H1674 H 0.94107 0.53088 0.81493 0.0
C1675 C 0.95359 0.48626 0.70585 0.0
H1676 H 0.94087 0.47759 0.81816 0.0
C1677 C 0.95275 0.51672 0.70382 0.0
C1678 C 0.94895 0.53312 0.74322 0.0
H1679 H 0.9584 0.47409 0.67547 0.0
H1680 H 0.95742 0.52745 0.67212 0.0
C1681 C 0.94368 0.51862 0.78404 0.0
C1682 C 0.26268 0.21977 0.54592 0.0
C1683 C 0.27766 0.21939 0.50438 0.0
H1684 H 0.22008 0.22329 0.57957 0.0
C1685 C 0.26105 0.21876 0.46435 0.0
H1686 H 0.27527 0.22064 0.57713 0.0
C1687 C 0.22967 0.21952 0.4658 0.0
C1688 C 0.21475 0.22191 0.50725 0.0
H1689 H 0.27237 0.21863 0.43205 0.0
H1690 H 0.21716 0.22004 0.4345 0.0
C1691 C 0.23133 0.22149 0.54734 0.0
C1692 C 0.55071 0.51457 0.20338 0.0
C1693 C 0.55077 0.53033 0.24395 0.0
H1694 H 0.54947 0.47245 0.17206 0.0
C1695 C 0.55302 0.51508 0.28471 0.0
H1696 H 0.54882 0.52585 0.17151 0.0
C1697 C 0.55261 0.48458 0.28503 0.0
C1698 C 0.5509 0.46883 0.24456 0.0
H1699 H 0.5527 0.52667 0.31644 0.0
H1700 H 0.55216 0.47328 0.31701 0.0
C1701 C 0.55123 0.48406 0.20366 0.0
C1702 C 0.22934 0.77962 0.04025 0.0
C1703 C 0.2136 0.77812 -0.00062 0.0
H1704 H 0.27271 0.78001 0.0722 0.0
C1705 C 0.22945 0.77922 0.95867 0.0
H1706 H 0.2174 0.77854 0.072 0.0
C1707 C 0.26085 0.78099 0.95882 0.0
C1708 C 0.27669 0.78071 -0.00033 0.0
H1709 H 0.2176 0.77805 0.92685 0.0
H1710 H 0.2728 0.78082 0.92703 0.0
C1711 C 0.26079 0.78041 0.0404 0.0
C1712 C 0.5247 0.98532 0.78785 0.0
C1713 C 0.52355 0.96975 0.74722 0.0
H1714 H 0.5253 0.02743 0.81922 0.0
C1715 C 0.52353 0.98488 0.70632 0.0
H1716 H 0.52444 0.97397 0.81979 0.0
C1717 C 0.52494 0.01525 0.70604 0.0
C1718 C 0.52536 0.03086 0.74667 0.0
H1719 H 0.52259 0.97322 0.67469 0.0
H1720 H 0.5248 0.0266 0.67409 0.0
C1721 C 0.52508 0.01574 0.78759 0.0
C1722 C 0.2633 0.30049 0.00486 0.0
C1723 C 0.27419 0.32518 0.02783 0.0
H1724 H 0.22515 0.28041 0.97231 0.0
C1725 C 0.25381 0.34738 0.03944 0.0
H1726 H 0.27849 0.28302 0.99549 0.0
C1727 C 0.22385 0.34602 0.02597 0.0
C1728 C 0.21319 0.32235 0.00069 0.0
H1729 H 0.26118 0.36646 0.05786 0.0
H1730 H 0.20911 0.364 0.03473 0.0
C1731 C 0.23288 0.29904 0.99146 0.0
C1732 C 0.96711 0.01685 0.29002 0.0
C1733 C 0.96947 0.03419 0.25124 0.0
H1734 H 0.96575 0.97351 0.31701 0.0
C1735 C 0.97073 0.02079 0.20892 0.0
H1736 H 0.96639 0.02676 0.32306 0.0
C1737 C 0.96941 0.99043 0.20545 0.0
C1738 C 0.96786 0.9731 0.24434 0.0
H1739 H 0.9726 0.03378 0.17863 0.0
H1740 H 0.97057 0.98044 0.17249 0.0
C1741 C 0.96684 0.9865 0.28664 0.0
C1742 C 0.2677 0.70334 0.49379 0.0
C1743 C 0.27777 0.68278 0.46201 0.0
H1744 H 0.23033 0.71794 0.53442 0.0
C1745 C 0.25657 0.66452 0.44117 0.0
H1746 H 0.28365 0.7176 0.51046 0.0
C1747 C 0.22657 0.66474 0.45469 0.0
C1748 C 0.21693 0.68323 0.48937 0.0
H1749 H 0.26353 0.64872 0.41618 0.0
H1750 H 0.21118 0.64912 0.43979 0.0
C1751 C 0.2373 0.70356 0.50748 0.0
C1752 C 0.44171 0.01767 0.20641 0.0
C1753 C 0.44394 0.03294 0.24712 0.0
H1754 H 0.44275 0.97585 0.17427 0.0
C1755 C 0.44384 0.01725 0.28775 0.0
H1756 H 0.4421 0.02923 0.17466 0.0
C1757 C 0.44343 0.98676 0.2876 0.0
C1758 C 0.444 0.97147 0.24677 0.0
H1759 H 0.44566 0.02858 0.31959 0.0
H1760 H 0.44525 0.97524 0.31928 0.0
C1761 C 0.44216 0.98717 0.20622 0.0
C1762 C 0.76455 0.71985 0.03079 0.0
C1763 C 0.78035 0.72186 0.99001 0.0
H1764 H 0.72119 0.71972 0.06273 0.0
C1765 C 0.76446 0.72191 0.94926 0.0
H1766 H 0.77646 0.7201 0.06261 0.0
C1767 C 0.73302 0.72082 0.94935 0.0
C1768 C 0.71722 0.72064 0.99023 0.0
H1769 H 0.77634 0.72352 0.91751 0.0
H1770 H 0.72103 0.72186 0.91763 0.0
C1771 C 0.73311 0.71974 0.03092 0.0
C1772 C 0.0498 0.012 0.78651 0.0
C1773 C 0.04442 0.02823 0.74725 0.0
H1774 H 0.05216 0.96944 0.81626 0.0
C1775 C 0.04141 0.01343 0.70609 0.0
H1776 H 0.05189 0.0228 0.81875 0.0
C1777 C 0.04255 0.98293 0.70452 0.0
C1778 C 0.04586 0.96675 0.74425 0.0
H1779 H 0.03717 0.02541 0.67534 0.0
H1780 H 0.03875 0.97199 0.67275 0.0
C1781 C 0.04998 0.98152 0.78512 0.0
C1782 C 0.73024 0.28272 0.54683 0.0
C1783 C 0.71528 0.28272 0.50527 0.0
H1784 H 0.77288 0.27986 0.58051 0.0
C1785 C 0.73188 0.28349 0.46524 0.0
H1786 H 0.71766 0.28179 0.57804 0.0
C1787 C 0.76327 0.28317 0.46671 0.0
C1788 C 0.7782 0.2811 0.50818 0.0
H1789 H 0.72057 0.28336 0.43294 0.0
H1790 H 0.77579 0.28267 0.43542 0.0
C1791 C 0.76162 0.28145 0.54826 0.0
loop_
_geom_bond_atom_site_label_1
_geom_bond_atom_site_label_2
_geom_bond_distance
_geom_bond_site_symmetry_2
_ccdc_geom_bond_type
Mn0 O5 2.095 . S
Mn0 O15 2.162 . S
Mn0 O16 2.297 . S
Mn0 O24 2.385 . S
Mn0 O25 2.209 . S
Mn0 O26 2.094 . S
Mn1 O6 2.121 . S
Mn1 N8 2.257 1_455 S
Mn1 N17 2.282 1_455 S
Mn1 O25 2.215 . S
Mn1 O27 2.117 . S
C2 O24 1.234 . S
C2 O25 1.283 . S
C3 O15 1.281 . S
C3 O16 1.236 . S
C4 O26 1.240 . S
C4 O27 1.264 . S
O5 Mn0 2.095 . S
O5 C14 1.250 . S
O6 Mn1 2.121 . S
O6 C14 1.258 . S
C7 N8 1.326 . S
C7 C11 1.460 . S
C7 H13 0.929 1_655 S
N8 Mn1 2.257 1_655 S
N8 C7 1.326 . S
N8 C12 1.362 . S
C9 C10 1.258 . S
C9 C12 1.431 . S
C9 C29 1.449 . S
C10 C9 1.258 . S
C10 C11 1.477 . S
C10 H30 0.931 . S
C11 C7 1.460 . S
C11 C10 1.477 . S
C11 H31 0.930 . S
C12 N8 1.362 . S
C12 C9 1.431 . S
C12 C22 1.476 . S
H13 C7 0.929 1_455 S
C14 O5 1.250 . S
C14 O6 1.258 . S
O15 Mn0 2.162 . S
O15 C3 1.281 . S
O16 Mn0 2.297 . S
O16 C3 1.236 . S
N17 Mn1 2.282 1_655 S
N17 C18 1.328 . S
N17 C22 1.318 . S
C18 N17 1.328 . S
C18 C19 1.457 . S
C18 H23 0.929 1_655 S
C19 C18 1.457 . S
C19 C20 1.291 . S
C19 H32 0.931 . S
C20 C19 1.291 . S
C20 C21 1.373 . S
C20 H33 0.929 . S
C21 C20 1.373 . S
C21 C22 1.396 . S
C21 C28 1.403 . S
C22 C12 1.476 . S
C22 N17 1.318 . S
C22 C21 1.396 . S
H23 C18 0.929 1_455 S
O24 Mn0 2.385 . S
O24 C2 1.234 . S
O25 Mn0 2.209 . S
O25 Mn1 2.215 . S
O25 C2 1.283 . S
O26 Mn0 2.094 . S
O26 C4 1.240 . S
O27 Mn1 2.117 . S
O27 C4 1.264 . S
C28 C21 1.403 . S
C28 C29 1.399 . S
C28 H34 0.929 . S
C29 C9 1.449 . S
C29 C28 1.399 . S
C29 H35 0.930 . S
H30 C10 0.931 . S
H31 C11 0.930 . S
H32 C19 0.931 . S
H33 C20 0.929 . S
H34 C28 0.929 . S
H35 C29 0.930 . S
Mn36 O41 2.095 . S
Mn36 O51 2.162 . S
Mn36 O52 2.297 . S
Mn36 O60 2.385 . S
Mn36 O61 2.209 . S
Mn36 O62 2.094 . S
Mn37 O42 2.121 . S
Mn37 N44 2.257 . S
Mn37 N53 2.282 . S
Mn37 O61 2.215 . S
Mn37 O63 2.117 . S
C38 O60 1.234 . S
C38 O61 1.283 . S
C39 O51 1.281 . S
C39 O52 1.236 . S
C40 O62 1.240 . S
C40 O63 1.264 . S
O41 Mn36 2.095 . S
O41 C50 1.250 . S
O42 Mn37 2.121 . S
O42 C50 1.258 . S
C43 N44 1.326 . S
C43 C47 1.460 . S
C43 H49 0.929 . S
N44 Mn37 2.257 . S
N44 C43 1.326 . S
N44 C48 1.362 . S
C45 C46 1.258 . S
C45 C48 1.431 . S
C45 C65 1.449 . S
C46 C45 1.258 . S
C46 C47 1.477 . S
C46 H66 0.931 . S
C47 C43 1.460 . S
C47 C46 1.477 . S
C47 H67 0.930 . S
C48 N44 1.362 . S
C48 C45 1.431 . S
C48 C58 1.476 . S
H49 C43 0.929 . S
C50 O41 1.250 . S
C50 O42 1.258 . S
O51 Mn36 2.162 . S
O51 C39 1.281 . S
O52 Mn36 2.297 . S
O52 C39 1.236 . S
N53 Mn37 2.282 . S
N53 C54 1.328 . S
N53 C58 1.318 . S
C54 N53 1.328 . S
C54 C55 1.457 . S
C54 H59 0.929 . S
C55 C54 1.457 . S
C55 C56 1.291 . S
C55 H68 0.931 . S
C56 C55 1.291 . S
C56 C57 1.373 . S
C56 H69 0.929 . S
C57 C56 1.373 . S
C57 C58 1.396 . S
C57 C64 1.403 . S
C58 C48 1.476 . S
C58 N53 1.318 . S
C58 C57 1.396 . S
H59 C54 0.929 . S
O60 Mn36 2.385 . S
O60 C38 1.234 . S
O61 Mn36 2.209 . S
O61 Mn37 2.215 . S
O61 C38 1.283 . S
O62 Mn36 2.094 . S
O62 C40 1.240 . S
O63 Mn37 2.117 . S
O63 C40 1.264 . S
C64 C57 1.403 . S
C64 C65 1.399 . S
C64 H70 0.929 . S
C65 C45 1.449 . S
C65 C64 1.399 . S
C65 H71 0.930 . S
H66 C46 0.931 . S
H67 C47 0.930 . S
H68 C55 0.931 . S
H69 C56 0.929 . S
H70 C64 0.929 . S
H71 C65 0.930 . S
Mn72 O77 2.095 . S
Mn72 O87 2.162 . S
Mn72 O88 2.297 . S
Mn72 O96 2.385 . S
Mn72 O97 2.209 . S
Mn72 O98 2.094 . S
Mn73 O78 2.121 . S
Mn73 N80 2.257 . S
Mn73 N89 2.282 . S
Mn73 O97 2.215 . S
Mn73 O99 2.117 . S
C74 O96 1.234 . S
C74 O97 1.283 . S
C75 O87 1.281 . S
C75 O88 1.236 . S
C76 O98 1.240 . S
C76 O99 1.264 . S
O77 Mn72 2.095 . S
O77 C86 1.250 . S
O78 Mn73 2.121 . S
O78 C86 1.258 . S
C79 N80 1.326 . S
C79 C83 1.460 . S
C79 H85 0.929 . S
N80 Mn73 2.257 . S
N80 C79 1.326 . S
N80 C84 1.362 . S
C81 C82 1.258 . S
C81 C84 1.431 . S
C81 C101 1.449 . S
C82 C81 1.258 . S
C82 C83 1.477 . S
C82 H102 0.931 . S
C83 C79 1.460 . S
C83 C82 1.477 . S
C83 H103 0.930 . S
C84 N80 1.362 . S
C84 C81 1.431 . S
C84 C94 1.476 . S
H85 C79 0.929 . S
C86 O77 1.250 . S
C86 O78 1.258 . S
O87 Mn72 2.162 . S
O87 C75 1.281 . S
O88 Mn72 2.297 . S
O88 C75 1.236 . S
N89 Mn73 2.282 . S
N89 C90 1.328 . S
N89 C94 1.318 . S
C90 N89 1.328 . S
C90 C91 1.457 . S
C90 H95 0.929 . S
C91 C90 1.457 . S
C91 C92 1.291 . S
C91 H104 0.931 . S
C92 C91 1.291 . S
C92 C93 1.373 . S
C92 H105 0.929 . S
C93 C92 1.373 . S
C93 C94 1.396 . S
C93 C100 1.403 . S
C94 C84 1.476 . S
C94 N89 1.318 . S
C94 C93 1.396 . S
H95 C90 0.929 . S
O96 Mn72 2.385 . S
O96 C74 1.234 . S
O97 Mn72 2.209 . S
O97 Mn73 2.215 . S
O97 C74 1.283 . S
O98 Mn72 2.094 . S
O98 C76 1.240 . S
O99 Mn73 2.117 . S
O99 C76 1.264 . S
C100 C93 1.403 . S
C100 C101 1.399 . S
C100 H106 0.929 . S
C101 C81 1.449 . S
C101 C100 1.399 . S
C101 H107 0.930 . S
H102 C82 0.931 . S
H103 C83 0.930 . S
H104 C91 0.931 . S
H105 C92 0.929 . S
H106 C100 0.929 . S
H107 C101 0.930 . S
Mn108 O113 2.095 . S
Mn108 O123 2.162 . S
Mn108 O124 2.297 . S
Mn108 O132 2.385 . S
Mn108 O133 2.209 . S
Mn108 O134 2.094 1_554 S
Mn109 O114 2.121 . S
Mn109 N116 2.257 . S
Mn109 N125 2.282 . S
Mn109 O133 2.215 . S
Mn109 O135 2.117 1_554 S
C110 O132 1.234 . S
C110 O133 1.283 . S
C111 O123 1.281 . S
C111 O124 1.236 . S
C112 O134 1.240 . S
C112 O135 1.264 . S
O113 Mn108 2.095 . S
O113 C122 1.250 . S
O114 Mn109 2.121 . S
O114 C122 1.258 . S
C115 N116 1.326 . S
C115 C119 1.460 . S
C115 H121 0.929 . S
N116 Mn109 2.257 . S
N116 C115 1.326 . S
N116 C120 1.362 . S
C117 C118 1.258 . S
C117 C120 1.431 . S
C117 C137 1.449 . S
C118 C117 1.258 . S
C118 C119 1.477 . S
C118 H138 0.931 . S
C119 C115 1.460 . S
C119 C118 1.477 . S
C119 H139 0.930 . S
C120 N116 1.362 . S
C120 C117 1.431 . S
C120 C130 1.476 . S
H121 C115 0.929 . S
C122 O113 1.250 . S
C122 O114 1.258 . S
O123 Mn108 2.162 . S
O123 C111 1.281 . S
O124 Mn108 2.297 . S
O124 C111 1.236 . S
N125 Mn109 2.282 . S
N125 C126 1.328 . S
N125 C130 1.318 . S
C126 N125 1.328 . S
C126 C127 1.457 . S
C126 H131 0.929 1_554 S
C127 C126 1.457 . S
C127 C128 1.291 . S
C127 H140 0.931 . S
C128 C127 1.291 . S
C128 C129 1.373 . S
C128 H141 0.929 . S
C129 C128 1.373 . S
C129 C130 1.396 . S
C129 C136 1.403 . S
C130 C120 1.476 . S
C130 N125 1.318 . S
C130 C129 1.396 . S
H131 C126 0.929 1_556 S
O132 Mn108 2.385 . S
O132 C110 1.234 . S
O133 Mn108 2.209 . S
O133 Mn109 2.215 . S
O133 C110 1.283 . S
O134 Mn108 2.094 1_556 S
O134 C112 1.240 . S
O135 Mn109 2.117 1_556 S
O135 C112 1.264 . S
C136 C129 1.403 . S
C136 C137 1.399 . S
C136 H142 0.929 . S
C137 C117 1.449 . S
C137 C136 1.399 . S
C137 H143 0.930 . S
H138 C118 0.931 . S
H139 C119 0.930 . S
H140 C127 0.931 . S
H141 C128 0.929 . S
H142 C136 0.929 . S
H143 C137 0.930 . S
Mn144 O149 2.095 . S
Mn144 O159 2.162 . S
Mn144 O160 2.297 . S
Mn144 O168 2.385 . S
Mn144 O169 2.209 . S
Mn144 O170 2.094 . S
Mn145 O150 2.121 . S
Mn145 N152 2.257 1_455 S
Mn145 N161 2.282 1_455 S
Mn145 O169 2.215 . S
Mn145 O171 2.117 . S
C146 O168 1.234 . S
C146 O169 1.283 . S
C147 O159 1.281 . S
C147 O160 1.236 . S
C148 O170 1.240 . S
C148 O171 1.264 . S
O149 Mn144 2.095 . S
O149 C158 1.250 . S
O150 Mn145 2.121 . S
O150 C158 1.258 . S
C151 N152 1.326 . S
C151 C155 1.460 . S
C151 H157 0.929 1_655 S
N152 Mn145 2.257 1_655 S
N152 C151 1.326 . S
N152 C156 1.362 . S
C153 C154 1.258 . S
C153 C156 1.431 . S
C153 C173 1.449 . S
C154 C153 1.258 . S
C154 C155 1.477 . S
C154 H174 0.931 . S
C155 C151 1.460 . S
C155 C154 1.477 . S
C155 H175 0.930 . S
C156 N152 1.362 . S
C156 C153 1.431 . S
C156 C166 1.476 . S
H157 C151 0.929 1_455 S
C158 O149 1.250 . S
C158 O150 1.258 . S
O159 Mn144 2.162 . S
O159 C147 1.281 . S
O160 Mn144 2.297 . S
O160 C147 1.236 . S
N161 Mn145 2.282 1_655 S
N161 C162 1.328 . S
N161 C166 1.318 . S
C162 N161 1.328 . S
C162 C163 1.457 . S
C162 H167 0.929 1_655 S
C163 C162 1.457 . S
C163 C164 1.291 . S
C163 H176 0.931 . S
C164 C163 1.291 . S
C164 C165 1.373 . S
C164 H177 0.929 . S
C165 C164 1.373 . S
C165 C166 1.396 . S
C165 C172 1.403 . S
C166 C156 1.476 . S
C166 N161 1.318 . S
C166 C165 1.396 . S
H167 C162 0.929 1_455 S
O168 Mn144 2.385 . S
O168 C146 1.234 . S
O169 Mn144 2.209 . S
O169 Mn145 2.215 . S
O169 C146 1.283 . S
O170 Mn144 2.094 . S
O170 C148 1.240 . S
O171 Mn145 2.117 . S
O171 C148 1.264 . S
C172 C165 1.403 . S
C172 C173 1.399 . S
C172 H178 0.929 . S
C173 C153 1.449 . S
C173 C172 1.399 . S
C173 H179 0.930 . S
H174 C154 0.931 . S
H175 C155 0.930 . S
H176 C163 0.931 . S
H177 C164 0.929 . S
H178 C172 0.929 . S
H179 C173 0.930 . S
Mn180 O185 2.095 . S
Mn180 O195 2.162 . S
Mn180 O196 2.297 . S
Mn180 O204 2.385 . S
Mn180 O205 2.209 . S
Mn180 O206 2.094 . S
Mn181 O186 2.121 . S
Mn181 N188 2.257 . S
Mn181 N197 2.282 . S
Mn181 O205 2.215 . S
Mn181 O207 2.117 . S
C182 O204 1.234 . S
C182 O205 1.283 . S
C183 O195 1.281 . S
C183 O196 1.236 . S
C184 O206 1.240 . S
C184 O207 1.264 . S
O185 Mn180 2.095 . S
O185 C194 1.250 . S
O186 Mn181 2.121 . S
O186 C194 1.258 . S
C187 N188 1.326 . S
C187 C191 1.460 . S
C187 H193 0.929 . S
N188 Mn181 2.257 . S
N188 C187 1.326 . S
N188 C192 1.362 . S
C189 C190 1.258 . S
C189 C192 1.431 . S
C189 C209 1.449 . S
C190 C189 1.258 . S
C190 C191 1.477 . S
C190 H210 0.931 . S
C191 C187 1.460 . S
C191 C190 1.477 . S
C191 H211 0.930 . S
C192 N188 1.362 . S
C192 C189 1.431 . S
C192 C202 1.476 . S
H193 C187 0.929 . S
C194 O185 1.250 . S
C194 O186 1.258 . S
O195 Mn180 2.162 . S
O195 C183 1.281 . S
O196 Mn180 2.297 . S
O196 C183 1.236 . S
N197 Mn181 2.282 . S
N197 C198 1.328 . S
N197 C202 1.318 . S
C198 N197 1.328 . S
C198 C199 1.457 . S
C198 H203 0.929 . S
C199 C198 1.457 . S
C199 C200 1.291 . S
C199 H212 0.931 . S
C200 C199 1.291 . S
C200 C201 1.373 . S
C200 H213 0.929 . S
C201 C200 1.373 . S
C201 C202 1.396 . S
C201 C208 1.403 . S
C202 C192 1.476 . S
C202 N197 1.318 . S
C202 C201 1.396 . S
H203 C198 0.929 . S
O204 Mn180 2.385 . S
O204 C182 1.234 . S
O205 Mn180 2.209 . S
O205 Mn181 2.215 . S
O205 C182 1.283 . S
O206 Mn180 2.094 . S
O206 C184 1.240 . S
O207 Mn181 2.117 . S
O207 C184 1.264 . S
C208 C201 1.403 . S
C208 C209 1.399 . S
C208 H214 0.929 . S
C209 C189 1.449 . S
C209 C208 1.399 . S
C209 H215 0.930 . S
H210 C190 0.931 . S
H211 C191 0.930 . S
H212 C199 0.931 . S
H213 C200 0.929 . S
H214 C208 0.929 . S
H215 C209 0.930 . S
Mn216 O221 2.095 . S
Mn216 O231 2.162 . S
Mn216 O232 2.297 . S
Mn216 O240 2.385 . S
Mn216 O241 2.209 . S
Mn216 O242 2.094 . S
Mn217 O222 2.121 . S
Mn217 N224 2.257 . S
Mn217 N233 2.282 . S
Mn217 O241 2.215 . S
Mn217 O243 2.117 . S
C218 O240 1.234 . S
C218 O241 1.283 . S
C219 O231 1.281 . S
C219 O232 1.236 . S
C220 O242 1.240 . S
C220 O243 1.264 . S
O221 Mn216 2.095 . S
O221 C230 1.250 . S
O222 Mn217 2.121 . S
O222 C230 1.258 . S
C223 N224 1.326 . S
C223 C227 1.460 . S
C223 H229 0.929 . S
N224 Mn217 2.257 . S
N224 C223 1.326 . S
N224 C228 1.362 . S
C225 C226 1.258 . S
C225 C228 1.431 . S
C225 C245 1.449 . S
C226 C225 1.258 . S
C226 C227 1.477 . S
C226 H246 0.931 . S
C227 C223 1.460 . S
C227 C226 1.477 . S
C227 H247 0.930 . S
C228 N224 1.362 . S
C228 C225 1.431 . S
C228 C238 1.476 . S
H229 C223 0.929 . S
C230 O221 1.250 . S
C230 O222 1.258 . S
O231 Mn216 2.162 . S
O231 C219 1.281 . S
O232 Mn216 2.297 . S
O232 C219 1.236 . S
N233 Mn217 2.282 . S
N233 C234 1.328 . S
N233 C238 1.318 . S
C234 N233 1.328 . S
C234 C235 1.457 . S
C234 H239 0.929 . S
C235 C234 1.457 . S
C235 C236 1.291 . S
C235 H248 0.931 . S
C236 C235 1.291 . S
C236 C237 1.373 . S
C236 H249 0.929 . S
C237 C236 1.373 . S
C237 C238 1.396 . S
C237 C244 1.403 . S
C238 C228 1.476 . S
C238 N233 1.318 . S
C238 C237 1.396 . S
H239 C234 0.929 . S
O240 Mn216 2.385 . S
O240 C218 1.234 . S
O241 Mn216 2.209 . S
O241 Mn217 2.215 . S
O241 C218 1.283 . S
O242 Mn216 2.094 . S
O242 C220 1.240 . S
O243 Mn217 2.117 . S
O243 C220 1.264 . S
C244 C237 1.403 . S
C244 C245 1.399 . S
C244 H250 0.929 . S
C245 C225 1.449 . S
C245 C244 1.399 . S
C245 H251 0.930 . S
H246 C226 0.931 . S
H247 C227 0.930 . S
H248 C235 0.931 . S
H249 C236 0.929 . S
H250 C244 0.929 . S
H251 C245 0.930 . S
Mn252 O257 2.095 . S
Mn252 O267 2.162 . S
Mn252 O268 2.297 . S
Mn252 O276 2.385 . S
Mn252 O277 2.209 . S
Mn252 O278 2.094 1_556 S
Mn253 O258 2.121 . S
Mn253 N260 2.257 . S
Mn253 N269 2.282 . S
Mn253 O277 2.215 . S
Mn253 O279 2.117 1_556 S
C254 O276 1.234 . S
C254 O277 1.283 . S
C255 O267 1.281 . S
C255 O268 1.236 . S
C256 O278 1.240 . S
C256 O279 1.264 . S
O257 Mn252 2.095 . S
O257 C266 1.250 . S
O258 Mn253 2.121 . S
O258 C266 1.258 . S
C259 N260 1.326 . S
C259 C263 1.460 . S
C259 H265 0.929 . S
N260 Mn253 2.257 . S
N260 C259 1.326 . S
N260 C264 1.362 . S
C261 C262 1.258 . S
C261 C264 1.431 . S
C261 C281 1.449 . S
C262 C261 1.258 . S
C262 C263 1.477 . S
C262 H282 0.931 . S
C263 C259 1.460 . S
C263 C262 1.477 . S
C263 H283 0.930 . S
C264 N260 1.362 . S
C264 C261 1.431 . S
C264 C274 1.476 . S
H265 C259 0.929 . S
C266 O257 1.250 . S
C266 O258 1.258 . S
O267 Mn252 2.162 . S
O267 C255 1.281 . S
O268 Mn252 2.297 . S
O268 C255 1.236 . S
N269 Mn253 2.282 . S
N269 C270 1.328 . S
N269 C274 1.318 . S
C270 N269 1.328 . S
C270 C271 1.457 . S
C270 H275 0.929 1_556 S
C271 C270 1.457 . S
C271 C272 1.291 . S
C271 H284 0.931 . S
C272 C271 1.291 . S
C272 C273 1.373 . S
C272 H285 0.929 . S
C273 C272 1.373 . S
C273 C274 1.396 . S
C273 C280 1.403 . S
C274 C264 1.476 . S
C274 N269 1.318 . S
C274 C273 1.396 . S
H275 C270 0.929 1_554 S
O276 Mn252 2.385 . S
O276 C254 1.234 . S
O277 Mn252 2.209 . S
O277 Mn253 2.215 . S
O277 C254 1.283 . S
O278 Mn252 2.094 1_554 S
O278 C256 1.240 . S
O279 Mn253 2.117 1_554 S
O279 C256 1.264 . S
C280 C273 1.403 . S
C280 C281 1.399 . S
C280 H286 0.929 . S
C281 C261 1.449 . S
C281 C280 1.399 . S
C281 H287 0.930 . S
H282 C262 0.931 . S
H283 C263 0.930 . S
H284 C271 0.931 . S
H285 C272 0.929 . S
H286 C280 0.929 . S
H287 C281 0.930 . S
Mn288 O293 2.095 . S
Mn288 O303 2.162 . S
Mn288 O304 2.297 . S
Mn288 O312 2.385 . S
Mn288 O313 2.209 . S
Mn288 O314 2.094 . S
Mn289 O294 2.121 . S
Mn289 N296 2.257 1_655 S
Mn289 N305 2.282 1_655 S
Mn289 O313 2.215 . S
Mn289 O315 2.117 . S
C290 O312 1.234 . S
C290 O313 1.283 . S
C291 O303 1.281 . S
C291 O304 1.236 . S
C292 O314 1.240 . S
C292 O315 1.264 . S
O293 Mn288 2.095 . S
O293 C302 1.250 . S
O294 Mn289 2.121 . S
O294 C302 1.258 . S
C295 N296 1.326 . S
C295 C299 1.460 . S
C295 H301 0.929 . S
N296 Mn289 2.257 1_455 S
N296 C295 1.326 . S
N296 C300 1.362 . S
C297 C298 1.258 . S
C297 C300 1.431 . S
C297 C317 1.449 . S
C298 C297 1.258 . S
C298 C299 1.477 . S
C298 H318 0.931 . S
C299 C295 1.460 . S
C299 C298 1.477 . S
C299 H319 0.930 . S
C300 N296 1.362 . S
C300 C297 1.431 . S
C300 C310 1.476 . S
H301 C295 0.929 . S
C302 O293 1.250 . S
C302 O294 1.258 . S
O303 Mn288 2.162 . S
O303 C291 1.281 . S
O304 Mn288 2.297 . S
O304 C291 1.236 . S
N305 Mn289 2.282 1_455 S
N305 C306 1.328 . S
N305 C310 1.318 . S
C306 N305 1.328 . S
C306 C307 1.457 . S
C306 H311 0.929 . S
C307 C306 1.457 . S
C307 C308 1.291 . S
C307 H320 0.931 . S
C308 C307 1.291 . S
C308 C309 1.373 . S
C308 H321 0.929 . S
C309 C308 1.373 . S
C309 C310 1.396 . S
C309 C316 1.403 . S
C310 C300 1.476 . S
C310 N305 1.318 . S
C310 C309 1.396 . S
H311 C306 0.929 . S
O312 Mn288 2.385 . S
O312 C290 1.234 . S
O313 Mn288 2.209 . S
O313 Mn289 2.215 . S
O313 C290 1.283 . S
O314 Mn288 2.094 . S
O314 C292 1.240 . S
O315 Mn289 2.117 . S
O315 C292 1.264 . S
C316 C309 1.403 . S
C316 C317 1.399 . S
C316 H322 0.929 . S
C317 C297 1.449 . S
C317 C316 1.399 . S
C317 H323 0.930 . S
H318 C298 0.931 . S
H319 C299 0.930 . S
H320 C307 0.931 . S
H321 C308 0.929 . S
H322 C316 0.929 . S
H323 C317 0.930 . S
Mn324 O329 2.095 . S
Mn324 O339 2.162 . S
Mn324 O340 2.297 . S
Mn324 O348 2.385 . S
Mn324 O349 2.209 . S
Mn324 O350 2.094 . S
Mn325 O330 2.121 . S
Mn325 N332 2.257 . S
Mn325 N341 2.282 . S
Mn325 O349 2.215 . S
Mn325 O351 2.117 . S
C326 O348 1.234 . S
C326 O349 1.283 . S
C327 O339 1.281 . S
C327 O340 1.236 . S
C328 O350 1.240 . S
C328 O351 1.264 . S
O329 Mn324 2.095 . S
O329 C338 1.250 . S
O330 Mn325 2.121 . S
O330 C338 1.258 . S
C331 N332 1.326 . S
C331 C335 1.460 . S
C331 H337 0.929 . S
N332 Mn325 2.257 . S
N332 C331 1.326 . S
N332 C336 1.362 . S
C333 C334 1.258 . S
C333 C336 1.431 . S
C333 C353 1.449 . S
C334 C333 1.258 . S
C334 C335 1.477 . S
C334 H354 0.931 . S
C335 C331 1.460 . S
C335 C334 1.477 . S
C335 H355 0.930 . S
C336 N332 1.362 . S
C336 C333 1.431 . S
C336 C346 1.476 . S
H337 C331 0.929 . S
C338 O329 1.250 . S
C338 O330 1.258 . S
O339 Mn324 2.162 . S
O339 C327 1.281 . S
O340 Mn324 2.297 . S
O340 C327 1.236 . S
N341 Mn325 2.282 . S
N341 C342 1.328 . S
N341 C346 1.318 . S
C342 N341 1.328 . S
C342 C343 1.457 . S
C342 H347 0.929 . S
C343 C342 1.457 . S
C343 C344 1.291 . S
C343 H356 0.931 . S
C344 C343 1.291 . S
C344 C345 1.373 . S
C344 H357 0.929 . S
C345 C344 1.373 . S
C345 C346 1.396 . S
C345 C352 1.403 . S
C346 C336 1.476 . S
C346 N341 1.318 . S
C346 C345 1.396 . S
H347 C342 0.929 . S
O348 Mn324 2.385 . S
O348 C326 1.234 . S
O349 Mn324 2.209 . S
O349 Mn325 2.215 . S
O349 C326 1.283 . S
O350 Mn324 2.094 . S
O350 C328 1.240 . S
O351 Mn325 2.117 . S
O351 C328 1.264 . S
C352 C345 1.403 . S
C352 C353 1.399 . S
C352 H358 0.929 . S
C353 C333 1.449 . S
C353 C352 1.399 . S
C353 H359 0.930 . S
H354 C334 0.931 . S
H355 C335 0.930 . S
H356 C343 0.931 . S
H357 C344 0.929 . S
H358 C352 0.929 . S
H359 C353 0.930 . S
Mn360 O365 2.095 . S
Mn360 O375 2.162 . S
Mn360 O376 2.297 . S
Mn360 O384 2.385 . S
Mn360 O385 2.209 . S
Mn360 O386 2.094 . S
Mn361 O366 2.121 . S
Mn361 N368 2.257 . S
Mn361 N377 2.282 . S
Mn361 O385 2.215 . S
Mn361 O387 2.117 . S
C362 O384 1.234 . S
C362 O385 1.283 . S
C363 O375 1.281 . S
C363 O376 1.236 . S
C364 O386 1.240 . S
C364 O387 1.264 . S
O365 Mn360 2.095 . S
O365 C374 1.250 . S
O366 Mn361 2.121 . S
O366 C374 1.258 . S
C367 N368 1.326 . S
C367 C371 1.460 . S
C367 H373 0.929 . S
N368 Mn361 2.257 . S
N368 C367 1.326 . S
N368 C372 1.362 . S
C369 C370 1.258 . S
C369 C372 1.431 . S
C369 C389 1.449 . S
C370 C369 1.258 . S
C370 C371 1.477 . S
C370 H390 0.931 . S
C371 C367 1.460 . S
C371 C370 1.477 . S
C371 H391 0.930 . S
C372 N368 1.362 . S
C372 C369 1.431 . S
C372 C382 1.476 . S
H373 C367 0.929 . S
C374 O365 1.250 . S
C374 O366 1.258 . S
O375 Mn360 2.162 . S
O375 C363 1.281 . S
O376 Mn360 2.297 . S
O376 C363 1.236 . S
N377 Mn361 2.282 . S
N377 C378 1.328 . S
N377 C382 1.318 . S
C378 N377 1.328 . S
C378 C379 1.457 . S
C378 H383 0.929 . S
C379 C378 1.457 . S
C379 C380 1.291 . S
C379 H392 0.931 . S
C380 C379 1.291 . S
C380 C381 1.373 . S
C380 H393 0.929 . S
C381 C380 1.373 . S
C381 C382 1.396 . S
C381 C388 1.403 . S
C382 C372 1.476 . S
C382 N377 1.318 . S
C382 C381 1.396 . S
H383 C378 0.929 . S
O384 Mn360 2.385 . S
O384 C362 1.234 . S
O385 Mn360 2.209 . S
O385 Mn361 2.215 . S
O385 C362 1.283 . S
O386 Mn360 2.094 . S
O386 C364 1.240 . S
O387 Mn361 2.117 . S
O387 C364 1.264 . S
C388 C381 1.403 . S
C388 C389 1.399 . S
C388 H394 0.929 . S
C389 C369 1.449 . S
C389 C388 1.399 . S
C389 H395 0.930 . S
H390 C370 0.931 . S
H391 C371 0.930 . S
H392 C379 0.931 . S
H393 C380 0.929 . S
H394 C388 0.929 . S
H395 C389 0.930 . S
Mn396 O401 2.095 1_556 S
Mn396 O411 2.162 . S
Mn396 O412 2.297 . S
Mn396 O420 2.385 . S
Mn396 O421 2.209 . S
Mn396 O422 2.094 . S
Mn397 O402 2.121 . S
Mn397 N404 2.257 . S
Mn397 N413 2.282 1_554 S
Mn397 O421 2.215 1_554 S
Mn397 O423 2.117 1_554 S
C398 O420 1.234 . S
C398 O421 1.283 . S
C399 O411 1.281 . S
C399 O412 1.236 . S
C400 O422 1.240 . S
C400 O423 1.264 . S
O401 Mn396 2.095 1_554 S
O401 C410 1.250 . S
O402 Mn397 2.121 . S
O402 C410 1.258 . S
C403 N404 1.326 . S
C403 C407 1.460 . S
C403 H409 0.929 . S
N404 Mn397 2.257 . S
N404 C403 1.326 . S
N404 C408 1.362 . S
C405 C406 1.258 . S
C405 C408 1.431 . S
C405 C425 1.449 . S
C406 C405 1.258 . S
C406 C407 1.477 . S
C406 H426 0.931 . S
C407 C403 1.460 . S
C407 C406 1.477 . S
C407 H427 0.930 . S
C408 N404 1.362 . S
C408 C405 1.431 . S
C408 C418 1.476 1_554 S
H409 C403 0.929 . S
C410 O401 1.250 . S
C410 O402 1.258 . S
O411 Mn396 2.162 . S
O411 C399 1.281 . S
O412 Mn396 2.297 . S
O412 C399 1.236 . S
N413 Mn397 2.282 1_556 S
N413 C414 1.328 . S
N413 C418 1.318 . S
C414 N413 1.328 . S
C414 C415 1.457 . S
C414 H419 0.929 . S
C415 C414 1.457 . S
C415 C416 1.291 . S
C415 H428 0.931 . S
C416 C415 1.291 . S
C416 C417 1.373 . S
C416 H429 0.929 . S
C417 C416 1.373 . S
C417 C418 1.396 . S
C417 C424 1.403 . S
C418 C408 1.476 1_556 S
C418 N413 1.318 . S
C418 C417 1.396 . S
H419 C414 0.929 . S
O420 Mn396 2.385 . S
O420 C398 1.234 . S
O421 Mn396 2.209 . S
O421 Mn397 2.215 1_556 S
O421 C398 1.283 . S
O422 Mn396 2.094 . S
O422 C400 1.240 . S
O423 Mn397 2.117 1_556 S
O423 C400 1.264 . S
C424 C417 1.403 . S
C424 C425 1.399 1_556 S
C424 H430 0.929 . S
C425 C405 1.449 . S
C425 C424 1.399 1_554 S
C425 H431 0.930 . S
H426 C406 0.931 . S
H427 C407 0.930 . S
H428 C415 0.931 . S
H429 C416 0.929 . S
H430 C424 0.929 . S
H431 C425 0.930 . S
Mn432 O437 2.095 . S
Mn432 O447 2.162 . S
Mn432 O448 2.297 . S
Mn432 O456 2.385 . S
Mn432 O457 2.209 . S
Mn432 O458 2.094 . S
Mn433 O438 2.121 . S
Mn433 N440 2.257 1_655 S
Mn433 N449 2.282 1_655 S
Mn433 O457 2.215 . S
Mn433 O459 2.117 . S
C434 O456 1.234 . S
C434 O457 1.283 . S
C435 O447 1.281 . S
C435 O448 1.236 . S
C436 O458 1.240 . S
C436 O459 1.264 . S
O437 Mn432 2.095 . S
O437 C446 1.250 . S
O438 Mn433 2.121 . S
O438 C446 1.258 . S
C439 N440 1.326 . S
C439 C443 1.460 . S
C439 H445 0.929 . S
N440 Mn433 2.257 1_455 S
N440 C439 1.326 . S
N440 C444 1.362 . S
C441 C442 1.258 . S
C441 C444 1.431 . S
C441 C461 1.449 . S
C442 C441 1.258 . S
C442 C443 1.477 . S
C442 H462 0.931 . S
C443 C439 1.460 . S
C443 C442 1.477 . S
C443 H463 0.930 . S
C444 N440 1.362 . S
C444 C441 1.431 . S
C444 C454 1.476 . S
H445 C439 0.929 . S
C446 O437 1.250 . S
C446 O438 1.258 . S
O447 Mn432 2.162 . S
O447 C435 1.281 . S
O448 Mn432 2.297 . S
O448 C435 1.236 . S
N449 Mn433 2.282 1_455 S
N449 C450 1.328 . S
N449 C454 1.318 . S
C450 N449 1.328 . S
C450 C451 1.457 . S
C450 H455 0.929 . S
C451 C450 1.457 . S
C451 C452 1.291 . S
C451 H464 0.931 . S
C452 C451 1.291 . S
C452 C453 1.373 . S
C452 H465 0.929 . S
C453 C452 1.373 . S
C453 C454 1.396 . S
C453 C460 1.403 . S
C454 C444 1.476 . S
C454 N449 1.318 . S
C454 C453 1.396 . S
H455 C450 0.929 . S
O456 Mn432 2.385 . S
O456 C434 1.234 . S
O457 Mn432 2.209 . S
O457 Mn433 2.215 . S
O457 C434 1.283 . S
O458 Mn432 2.094 . S
O458 C436 1.240 . S
O459 Mn433 2.117 . S
O459 C436 1.264 . S
C460 C453 1.403 . S
C460 C461 1.399 . S
C460 H466 0.929 . S
C461 C441 1.449 . S
C461 C460 1.399 . S
C461 H467 0.930 . S
H462 C442 0.931 . S
H463 C443 0.930 . S
H464 C451 0.931 . S
H465 C452 0.929 . S
H466 C460 0.929 . S
H467 C461 0.930 . S
Mn468 O473 2.095 . S
Mn468 O483 2.162 . S
Mn468 O484 2.297 . S
Mn468 O492 2.385 . S
Mn468 O493 2.209 . S
Mn468 O494 2.094 . S
Mn469 O474 2.121 . S
Mn469 N476 2.257 . S
Mn469 N485 2.282 . S
Mn469 O493 2.215 . S
Mn469 O495 2.117 . S
C470 O492 1.234 . S
C470 O493 1.283 . S
C471 O483 1.281 . S
C471 O484 1.236 . S
C472 O494 1.240 . S
C472 O495 1.264 . S
O473 Mn468 2.095 . S
O473 C482 1.250 . S
O474 Mn469 2.121 . S
O474 C482 1.258 . S
C475 N476 1.326 . S
C475 C479 1.460 . S
C475 H481 0.929 . S
N476 Mn469 2.257 . S
N476 C475 1.326 . S
N476 C480 1.362 . S
C477 C478 1.258 . S
C477 C480 1.431 . S
C477 C497 1.449 . S
C478 C477 1.258 . S
C478 C479 1.477 . S
C478 H498 0.931 . S
C479 C475 1.460 . S
C479 C478 1.477 . S
C479 H499 0.930 . S
C480 N476 1.362 . S
C480 C477 1.431 . S
C480 C490 1.476 . S
H481 C475 0.929 . S
C482 O473 1.250 . S
C482 O474 1.258 . S
O483 Mn468 2.162 . S
O483 C471 1.281 . S
O484 Mn468 2.297 . S
O484 C471 1.236 . S
N485 Mn469 2.282 . S
N485 C486 1.328 . S
N485 C490 1.318 . S
C486 N485 1.328 . S
C486 C487 1.457 . S
C486 H491 0.929 . S
C487 C486 1.457 . S
C487 C488 1.291 . S
C487 H500 0.931 . S
C488 C487 1.291 . S
C488 C489 1.373 . S
C488 H501 0.929 . S
C489 C488 1.373 . S
C489 C490 1.396 . S
C489 C496 1.403 . S
C490 C480 1.476 . S
C490 N485 1.318 . S
C490 C489 1.396 . S
H491 C486 0.929 . S
O492 Mn468 2.385 . S
O492 C470 1.234 . S
O493 Mn468 2.209 . S
O493 Mn469 2.215 . S
O493 C470 1.283 . S
O494 Mn468 2.094 . S
O494 C472 1.240 . S
O495 Mn469 2.117 . S
O495 C472 1.264 . S
C496 C489 1.403 . S
C496 C497 1.399 . S
C496 H502 0.929 . S
C497 C477 1.449 . S
C497 C496 1.399 . S
C497 H503 0.930 . S
H498 C478 0.931 . S
H499 C479 0.930 . S
H500 C487 0.931 . S
H501 C488 0.929 . S
H502 C496 0.929 . S
H503 C497 0.930 . S
Mn504 O509 2.095 . S
Mn504 O519 2.162 . S
Mn504 O520 2.297 . S
Mn504 O528 2.385 . S
Mn504 O529 2.209 . S
Mn504 O530 2.094 . S
Mn505 O510 2.121 . S
Mn505 N512 2.257 . S
Mn505 N521 2.282 . S
Mn505 O529 2.215 . S
Mn505 O531 2.117 . S
C506 O528 1.234 . S
C506 O529 1.283 . S
C507 O519 1.281 . S
C507 O520 1.236 . S
C508 O530 1.240 . S
C508 O531 1.264 . S
O509 Mn504 2.095 . S
O509 C518 1.250 . S
O510 Mn505 2.121 . S
O510 C518 1.258 . S
C511 N512 1.326 . S
C511 C515 1.460 . S
C511 H517 0.929 . S
N512 Mn505 2.257 . S
N512 C511 1.326 . S
N512 C516 1.362 . S
C513 C514 1.258 . S
C513 C516 1.431 . S
C513 C533 1.449 . S
C514 C513 1.258 . S
C514 C515 1.477 . S
C514 H534 0.931 . S
C515 C511 1.460 . S
C515 C514 1.477 . S
C515 H535 0.930 . S
C516 N512 1.362 . S
C516 C513 1.431 . S
C516 C526 1.476 . S
H517 C511 0.929 . S
C518 O509 1.250 . S
C518 O510 1.258 . S
O519 Mn504 2.162 . S
O519 C507 1.281 . S
O520 Mn504 2.297 . S
O520 C507 1.236 . S
N521 Mn505 2.282 . S
N521 C522 1.328 . S
N521 C526 1.318 . S
C522 N521 1.328 . S
C522 C523 1.457 . S
C522 H527 0.929 . S
C523 C522 1.457 . S
C523 C524 1.291 . S
C523 H536 0.931 . S
C524 C523 1.291 . S
C524 C525 1.373 . S
C524 H537 0.929 . S
C525 C524 1.373 . S
C525 C526 1.396 . S
C525 C532 1.403 . S
C526 C516 1.476 . S
C526 N521 1.318 . S
C526 C525 1.396 . S
H527 C522 0.929 . S
O528 Mn504 2.385 . S
O528 C506 1.234 . S
O529 Mn504 2.209 . S
O529 Mn505 2.215 . S
O529 C506 1.283 . S
O530 Mn504 2.094 . S
O530 C508 1.240 . S
O531 Mn505 2.117 . S
O531 C508 1.264 . S
C532 C525 1.403 . S
C532 C533 1.399 . S
C532 H538 0.929 . S
C533 C513 1.449 . S
C533 C532 1.399 . S
C533 H539 0.930 . S
H534 C514 0.931 . S
H535 C515 0.930 . S
H536 C523 0.931 . S
H537 C524 0.929 . S
H538 C532 0.929 . S
H539 C533 0.930 . S
Mn540 O545 2.095 1_554 S
Mn540 O555 2.162 . S
Mn540 O556 2.297 . S
Mn540 O564 2.385 . S
Mn540 O565 2.209 . S
Mn540 O566 2.094 . S
Mn541 O546 2.121 . S
Mn541 N548 2.257 . S
Mn541 N557 2.282 1_556 S
Mn541 O565 2.215 1_556 S
Mn541 O567 2.117 1_556 S
C542 O564 1.234 . S
C542 O565 1.283 . S
C543 O555 1.281 . S
C543 O556 1.236 . S
C544 O566 1.240 . S
C544 O567 1.264 . S
O545 Mn540 2.095 1_556 S
O545 C554 1.250 . S
O546 Mn541 2.121 . S
O546 C554 1.258 . S
C547 N548 1.326 . S
C547 C551 1.460 . S
C547 H553 0.929 . S
N548 Mn541 2.257 . S
N548 C547 1.326 . S
N548 C552 1.362 . S
C549 C550 1.258 . S
C549 C552 1.431 . S
C549 C569 1.449 . S
C550 C549 1.258 . S
C550 C551 1.477 . S
C550 H570 0.931 . S
C551 C547 1.460 . S
C551 C550 1.477 . S
C551 H571 0.930 . S
C552 N548 1.362 . S
C552 C549 1.431 . S
C552 C562 1.476 1_556 S
H553 C547 0.929 . S
C554 O545 1.250 . S
C554 O546 1.258 . S
O555 Mn540 2.162 . S
O555 C543 1.281 . S
O556 Mn540 2.297 . S
O556 C543 1.236 . S
N557 Mn541 2.282 1_554 S
N557 C558 1.328 . S
N557 C562 1.318 . S
C558 N557 1.328 . S
C558 C559 1.457 . S
C558 H563 0.929 . S
C559 C558 1.457 . S
C559 C560 1.291 . S
C559 H572 0.931 . S
C560 C559 1.291 . S
C560 C561 1.373 . S
C560 H573 0.929 . S
C561 C560 1.373 . S
C561 C562 1.396 . S
C561 C568 1.403 . S
C562 C552 1.476 1_554 S
C562 N557 1.318 . S
C562 C561 1.396 . S
H563 C558 0.929 . S
O564 Mn540 2.385 . S
O564 C542 1.234 . S
O565 Mn540 2.209 . S
O565 Mn541 2.215 1_554 S
O565 C542 1.283 . S
O566 Mn540 2.094 . S
O566 C544 1.240 . S
O567 Mn541 2.117 1_554 S
O567 C544 1.264 . S
C568 C561 1.403 . S
C568 C569 1.399 1_554 S
C568 H574 0.929 . S
C569 C549 1.449 . S
C569 C568 1.399 1_556 S
C569 H575 0.930 . S
H570 C550 0.931 . S
H571 C551 0.930 . S
H572 C559 0.931 . S
H573 C560 0.929 . S
H574 C568 0.929 . S
H575 C569 0.930 . S
Mn576 O581 2.095 . S
Mn576 O591 2.162 . S
Mn576 O592 2.297 . S
Mn576 O600 2.385 . S
Mn576 O601 2.209 . S
Mn576 O602 2.094 . S
Mn577 O582 2.121 . S
Mn577 N584 2.257 . S
Mn577 N593 2.282 . S
Mn577 O601 2.215 . S
Mn577 O603 2.117 . S
C578 O600 1.234 . S
C578 O601 1.283 . S
C579 O591 1.281 . S
C579 O592 1.236 . S
C580 O602 1.240 . S
C580 O603 1.264 . S
O581 Mn576 2.095 . S
O581 C590 1.250 . S
O582 Mn577 2.121 . S
O582 C590 1.258 . S
C583 N584 1.326 . S
C583 C587 1.460 . S
C583 H589 0.929 . S
N584 Mn577 2.257 . S
N584 C583 1.326 . S
N584 C588 1.362 . S
C585 C586 1.258 . S
C585 C588 1.431 . S
C585 C605 1.449 . S
C586 C585 1.258 . S
C586 C587 1.477 . S
C586 H606 0.931 . S
C587 C583 1.460 . S
C587 C586 1.477 . S
C587 H607 0.930 . S
C588 N584 1.362 . S
C588 C585 1.431 . S
C588 C598 1.476 . S
H589 C583 0.929 . S
C590 O581 1.250 . S
C590 O582 1.258 . S
O591 Mn576 2.162 . S
O591 C579 1.281 . S
O592 Mn576 2.297 . S
O592 C579 1.236 . S
N593 Mn577 2.282 . S
N593 C594 1.328 . S
N593 C598 1.318 . S
C594 N593 1.328 . S
C594 C595 1.457 . S
C594 H599 0.929 . S
C595 C594 1.457 . S
C595 C596 1.291 . S
C595 H608 0.931 . S
C596 C595 1.291 . S
C596 C597 1.373 . S
C596 H609 0.929 . S
C597 C596 1.373 . S
C597 C598 1.396 . S
C597 C604 1.403 . S
C598 C588 1.476 . S
C598 N593 1.318 . S
C598 C597 1.396 . S
H599 C594 0.929 . S
O600 Mn576 2.385 . S
O600 C578 1.234 . S
O601 Mn576 2.209 . S
O601 Mn577 2.215 . S
O601 C578 1.283 . S
O602 Mn576 2.094 . S
O602 C580 1.240 . S
O603 Mn577 2.117 . S
O603 C580 1.264 . S
C604 C597 1.403 . S
C604 C605 1.399 . S
C604 H610 0.929 . S
C605 C585 1.449 . S
C605 C604 1.399 . S
C605 H611 0.930 . S
H606 C586 0.931 . S
H607 C587 0.930 . S
H608 C595 0.931 . S
H609 C596 0.929 . S
H610 C604 0.929 . S
H611 C605 0.930 . S
Mn612 O617 2.095 . S
Mn612 O627 2.162 . S
Mn612 O628 2.297 . S
Mn612 O636 2.385 . S
Mn612 O637 2.209 . S
Mn612 O638 2.094 1_554 S
Mn613 O618 2.121 . S
Mn613 N620 2.257 . S
Mn613 N629 2.282 . S
Mn613 O637 2.215 . S
Mn613 O639 2.117 1_554 S
C614 O636 1.234 . S
C614 O637 1.283 . S
C615 O627 1.281 . S
C615 O628 1.236 . S
C616 O638 1.240 . S
C616 O639 1.264 . S
O617 Mn612 2.095 . S
O617 C626 1.250 . S
O618 Mn613 2.121 . S
O618 C626 1.258 . S
C619 N620 1.326 . S
C619 C623 1.460 . S
C619 H625 0.929 . S
N620 Mn613 2.257 . S
N620 C619 1.326 . S
N620 C624 1.362 . S
C621 C622 1.258 . S
C621 C624 1.431 . S
C621 C641 1.449 . S
C622 C621 1.258 . S
C622 C623 1.477 . S
C622 H642 0.931 . S
C623 C619 1.460 . S
C623 C622 1.477 . S
C623 H643 0.930 . S
C624 N620 1.362 . S
C624 C621 1.431 . S
C624 C634 1.476 . S
H625 C619 0.929 . S
C626 O617 1.250 . S
C626 O618 1.258 . S
O627 Mn612 2.162 . S
O627 C615 1.281 . S
O628 Mn612 2.297 . S
O628 C615 1.236 . S
N629 Mn613 2.282 . S
N629 C630 1.328 . S
N629 C634 1.318 . S
C630 N629 1.328 . S
C630 C631 1.457 . S
C630 H635 0.929 1_554 S
C631 C630 1.457 . S
C631 C632 1.291 . S
C631 H644 0.931 . S
C632 C631 1.291 . S
C632 C633 1.373 . S
C632 H645 0.929 . S
C633 C632 1.373 . S
C633 C634 1.396 . S
C633 C640 1.403 . S
C634 C624 1.476 . S
C634 N629 1.318 . S
C634 C633 1.396 . S
H635 C630 0.929 1_556 S
O636 Mn612 2.385 . S
O636 C614 1.234 . S
O637 Mn612 2.209 . S
O637 Mn613 2.215 . S
O637 C614 1.283 . S
O638 Mn612 2.094 1_556 S
O638 C616 1.240 . S
O639 Mn613 2.117 1_556 S
O639 C616 1.264 . S
C640 C633 1.403 . S
C640 C641 1.399 . S
C640 H646 0.929 . S
C641 C621 1.449 . S
C641 C640 1.399 . S
C641 H647 0.930 . S
H642 C622 0.931 . S
H643 C623 0.930 . S
H644 C631 0.931 . S
H645 C632 0.929 . S
H646 C640 0.929 . S
H647 C641 0.930 . S
Mn648 O653 2.095 . S
Mn648 O663 2.162 . S
Mn648 O664 2.297 . S
Mn648 O672 2.385 . S
Mn648 O673 2.209 . S
Mn648 O674 2.094 . S
Mn649 O654 2.121 . S
Mn649 N656 2.257 1_655 S
Mn649 N665 2.282 1_655 S
Mn649 O673 2.215 . S
Mn649 O675 2.117 . S
C650 O672 1.234 . S
C650 O673 1.283 . S
C651 O663 1.281 . S
C651 O664 1.236 . S
C652 O674 1.240 . S
C652 O675 1.264 . S
O653 Mn648 2.095 . S
O653 C662 1.250 . S
O654 Mn649 2.121 . S
O654 C662 1.258 . S
C655 N656 1.326 . S
C655 C659 1.460 . S
C655 H661 0.929 1_455 S
N656 Mn649 2.257 1_455 S
N656 C655 1.326 . S
N656 C660 1.362 . S
C657 C658 1.258 . S
C657 C660 1.431 . S
C657 C677 1.449 . S
C658 C657 1.258 . S
C658 C659 1.477 . S
C658 H678 0.931 . S
C659 C655 1.460 . S
C659 C658 1.477 . S
C659 H679 0.930 . S
C660 N656 1.362 . S
C660 C657 1.431 . S
C660 C670 1.476 . S
H661 C655 0.929 1_655 S
C662 O653 1.250 . S
C662 O654 1.258 . S
O663 Mn648 2.162 . S
O663 C651 1.281 . S
O664 Mn648 2.297 . S
O664 C651 1.236 . S
N665 Mn649 2.282 1_455 S
N665 C666 1.328 . S
N665 C670 1.318 . S
C666 N665 1.328 . S
C666 C667 1.457 . S
C666 H671 0.929 1_455 S
C667 C666 1.457 . S
C667 C668 1.291 . S
C667 H680 0.931 . S
C668 C667 1.291 . S
C668 C669 1.373 . S
C668 H681 0.929 . S
C669 C668 1.373 . S
C669 C670 1.396 . S
C669 C676 1.403 . S
C670 C660 1.476 . S
C670 N665 1.318 . S
C670 C669 1.396 . S
H671 C666 0.929 1_655 S
O672 Mn648 2.385 . S
O672 C650 1.234 . S
O673 Mn648 2.209 . S
O673 Mn649 2.215 . S
O673 C650 1.283 . S
O674 Mn648 2.094 . S
O674 C652 1.240 . S
O675 Mn649 2.117 . S
O675 C652 1.264 . S
C676 C669 1.403 . S
C676 C677 1.399 . S
C676 H682 0.929 . S
C677 C657 1.449 . S
C677 C676 1.399 . S
C677 H683 0.930 . S
H678 C658 0.931 . S
H679 C659 0.930 . S
H680 C667 0.931 . S
H681 C668 0.929 . S
H682 C676 0.929 . S
H683 C677 0.930 . S
Mn684 O689 2.095 . S
Mn684 O699 2.162 . S
Mn684 O700 2.297 . S
Mn684 O708 2.385 . S
Mn684 O709 2.209 . S
Mn684 O710 2.094 . S
Mn685 O690 2.121 . S
Mn685 N692 2.257 . S
Mn685 N701 2.282 . S
Mn685 O709 2.215 . S
Mn685 O711 2.117 . S
C686 O708 1.234 . S
C686 O709 1.283 . S
C687 O699 1.281 . S
C687 O700 1.236 . S
C688 O710 1.240 . S
C688 O711 1.264 . S
O689 Mn684 2.095 . S
O689 C698 1.250 . S
O690 Mn685 2.121 . S
O690 C698 1.258 . S
C691 N692 1.326 . S
C691 C695 1.460 . S
C691 H697 0.929 . S
N692 Mn685 2.257 . S
N692 C691 1.326 . S
N692 C696 1.362 . S
C693 C694 1.258 . S
C693 C696 1.431 . S
C693 C713 1.449 . S
C694 C693 1.258 . S
C694 C695 1.477 . S
C694 H714 0.931 . S
C695 C691 1.460 . S
C695 C694 1.477 . S
C695 H715 0.930 . S
C696 N692 1.362 . S
C696 C693 1.431 . S
C696 C706 1.476 . S
H697 C691 0.929 . S
C698 O689 1.250 . S
C698 O690 1.258 . S
O699 Mn684 2.162 . S
O699 C687 1.281 . S
O700 Mn684 2.297 . S
O700 C687 1.236 . S
N701 Mn685 2.282 . S
N701 C702 1.328 . S
N701 C706 1.318 . S
C702 N701 1.328 . S
C702 C703 1.457 . S
C702 H707 0.929 . S
C703 C702 1.457 . S
C703 C704 1.291 . S
C703 H716 0.931 . S
C704 C703 1.291 . S
C704 C705 1.373 . S
C704 H717 0.929 . S
C705 C704 1.373 . S
C705 C706 1.396 . S
C705 C712 1.403 . S
C706 C696 1.476 . S
C706 N701 1.318 . S
C706 C705 1.396 . S
H707 C702 0.929 . S
O708 Mn684 2.385 . S
O708 C686 1.234 . S
O709 Mn684 2.209 . S
O709 Mn685 2.215 . S
O709 C686 1.283 . S
O710 Mn684 2.094 . S
O710 C688 1.240 . S
O711 Mn685 2.117 . S
O711 C688 1.264 . S
C712 C705 1.403 . S
C712 C713 1.399 . S
C712 H718 0.929 . S
C713 C693 1.449 . S
C713 C712 1.399 . S
C713 H719 0.930 . S
H714 C694 0.931 . S
H715 C695 0.930 . S
H716 C703 0.931 . S
H717 C704 0.929 . S
H718 C712 0.929 . S
H719 C713 0.930 . S
Mn720 O725 2.095 . S
Mn720 O735 2.162 . S
Mn720 O736 2.297 . S
Mn720 O744 2.385 . S
Mn720 O745 2.209 . S
Mn720 O746 2.094 . S
Mn721 O726 2.121 . S
Mn721 N728 2.257 . S
Mn721 N737 2.282 . S
Mn721 O745 2.215 . S
Mn721 O747 2.117 . S
C722 O744 1.234 . S
C722 O745 1.283 . S
C723 O735 1.281 . S
C723 O736 1.236 . S
C724 O746 1.240 . S
C724 O747 1.264 . S
O725 Mn720 2.095 . S
O725 C734 1.250 . S
O726 Mn721 2.121 . S
O726 C734 1.258 . S
C727 N728 1.326 . S
C727 C731 1.460 . S
C727 H733 0.929 . S
N728 Mn721 2.257 . S
N728 C727 1.326 . S
N728 C732 1.362 . S
C729 C730 1.258 . S
C729 C732 1.431 . S
C729 C749 1.449 . S
C730 C729 1.258 . S
C730 C731 1.477 . S
C730 H750 0.931 . S
C731 C727 1.460 . S
C731 C730 1.477 . S
C731 H751 0.930 . S
C732 N728 1.362 . S
C732 C729 1.431 . S
C732 C742 1.476 . S
H733 C727 0.929 . S
C734 O725 1.250 . S
C734 O726 1.258 . S
O735 Mn720 2.162 . S
O735 C723 1.281 . S
O736 Mn720 2.297 . S
O736 C723 1.236 . S
N737 Mn721 2.282 . S
N737 C738 1.328 . S
N737 C742 1.318 . S
C738 N737 1.328 . S
C738 C739 1.457 . S
C738 H743 0.929 . S
C739 C738 1.457 . S
C739 C740 1.291 . S
C739 H752 0.931 . S
C740 C739 1.291 . S
C740 C741 1.373 . S
C740 H753 0.929 . S
C741 C740 1.373 . S
C741 C742 1.396 . S
C741 C748 1.403 . S
C742 C732 1.476 . S
C742 N737 1.318 . S
C742 C741 1.396 . S
H743 C738 0.929 . S
O744 Mn720 2.385 . S
O744 C722 1.234 . S
O745 Mn720 2.209 . S
O745 Mn721 2.215 . S
O745 C722 1.283 . S
O746 Mn720 2.094 . S
O746 C724 1.240 . S
O747 Mn721 2.117 . S
O747 C724 1.264 . S
C748 C741 1.403 . S
C748 C749 1.399 . S
C748 H754 0.929 . S
C749 C729 1.449 . S
C749 C748 1.399 . S
C749 H755 0.930 . S
H750 C730 0.931 . S
H751 C731 0.930 . S
H752 C739 0.931 . S
H753 C740 0.929 . S
H754 C748 0.929 . S
H755 C749 0.930 . S
Mn756 O761 2.095 . S
Mn756 O771 2.162 . S
Mn756 O772 2.297 . S
Mn756 O780 2.385 . S
Mn756 O781 2.209 . S
Mn756 O782 2.094 1_556 S
Mn757 O762 2.121 . S
Mn757 N764 2.257 . S
Mn757 N773 2.282 . S
Mn757 O781 2.215 . S
Mn757 O783 2.117 1_556 S
C758 O780 1.234 . S
C758 O781 1.283 . S
C759 O771 1.281 . S
C759 O772 1.236 . S
C760 O782 1.240 . S
C760 O783 1.264 . S
O761 Mn756 2.095 . S
O761 C770 1.250 . S
O762 Mn757 2.121 . S
O762 C770 1.258 . S
C763 N764 1.326 . S
C763 C767 1.460 . S
C763 H769 0.929 . S
N764 Mn757 2.257 . S
N764 C763 1.326 . S
N764 C768 1.362 . S
C765 C766 1.258 . S
C765 C768 1.431 . S
C765 C785 1.449 . S
C766 C765 1.258 . S
C766 C767 1.477 . S
C766 H786 0.931 . S
C767 C763 1.460 . S
C767 C766 1.477 . S
C767 H787 0.930 . S
C768 N764 1.362 . S
C768 C765 1.431 . S
C768 C778 1.476 . S
H769 C763 0.929 . S
C770 O761 1.250 . S
C770 O762 1.258 . S
O771 Mn756 2.162 . S
O771 C759 1.281 . S
O772 Mn756 2.297 . S
O772 C759 1.236 . S
N773 Mn757 2.282 . S
N773 C774 1.328 . S
N773 C778 1.318 . S
C774 N773 1.328 . S
C774 C775 1.457 . S
C774 H779 0.929 1_556 S
C775 C774 1.457 . S
C775 C776 1.291 . S
C775 H788 0.931 . S
C776 C775 1.291 . S
C776 C777 1.373 . S
C776 H789 0.929 . S
C777 C776 1.373 . S
C777 C778 1.396 . S
C777 C784 1.403 . S
C778 C768 1.476 . S
C778 N773 1.318 . S
C778 C777 1.396 . S
H779 C774 0.929 1_554 S
O780 Mn756 2.385 . S
O780 C758 1.234 . S
O781 Mn756 2.209 . S
O781 Mn757 2.215 . S
O781 C758 1.283 . S
O782 Mn756 2.094 1_554 S
O782 C760 1.240 . S
O783 Mn757 2.117 1_554 S
O783 C760 1.264 . S
C784 C777 1.403 . S
C784 C785 1.399 . S
C784 H790 0.929 . S
C785 C765 1.449 . S
C785 C784 1.399 . S
C785 H791 0.930 . S
H786 C766 0.931 . S
H787 C767 0.930 . S
H788 C775 0.931 . S
H789 C776 0.929 . S
H790 C784 0.929 . S
H791 C785 0.930 . S
Mn792 O797 2.095 . S
Mn792 O807 2.162 . S
Mn792 O808 2.297 . S
Mn792 O816 2.385 . S
Mn792 O817 2.209 . S
Mn792 O818 2.094 . S
Mn793 O798 2.121 . S
Mn793 N800 2.257 1_655 S
Mn793 N809 2.282 1_655 S
Mn793 O817 2.215 . S
Mn793 O819 2.117 . S
C794 O816 1.234 . S
C794 O817 1.283 . S
C795 O807 1.281 . S
C795 O808 1.236 . S
C796 O818 1.240 . S
C796 O819 1.264 . S
O797 Mn792 2.095 . S
O797 C806 1.250 . S
O798 Mn793 2.121 . S
O798 C806 1.258 . S
C799 N800 1.326 . S
C799 C803 1.460 . S
C799 H805 0.929 1_455 S
N800 Mn793 2.257 1_455 S
N800 C799 1.326 . S
N800 C804 1.362 . S
C801 C802 1.258 . S
C801 C804 1.431 . S
C801 C821 1.449 . S
C802 C801 1.258 . S
C802 C803 1.477 . S
C802 H822 0.931 . S
C803 C799 1.460 . S
C803 C802 1.477 . S
C803 H823 0.930 . S
C804 N800 1.362 . S
C804 C801 1.431 . S
C804 C814 1.476 . S
H805 C799 0.929 1_655 S
C806 O797 1.250 . S
C806 O798 1.258 . S
O807 Mn792 2.162 . S
O807 C795 1.281 . S
O808 Mn792 2.297 . S
O808 C795 1.236 . S
N809 Mn793 2.282 1_455 S
N809 C810 1.328 . S
N809 C814 1.318 . S
C810 N809 1.328 . S
C810 C811 1.457 . S
C810 H815 0.929 1_455 S
C811 C810 1.457 . S
C811 C812 1.291 . S
C811 H824 0.931 . S
C812 C811 1.291 . S
C812 C813 1.373 . S
C812 H825 0.929 . S
C813 C812 1.373 . S
C813 C814 1.396 . S
C813 C820 1.403 . S
C814 C804 1.476 . S
C814 N809 1.318 . S
C814 C813 1.396 . S
H815 C810 0.929 1_655 S
O816 Mn792 2.385 . S
O816 C794 1.234 . S
O817 Mn792 2.209 . S
O817 Mn793 2.215 . S
O817 C794 1.283 . S
O818 Mn792 2.094 . S
O818 C796 1.240 . S
O819 Mn793 2.117 . S
O819 C796 1.264 . S
C820 C813 1.403 . S
C820 C821 1.399 . S
C820 H826 0.929 . S
C821 C801 1.449 . S
C821 C820 1.399 . S
C821 H827 0.930 . S
H822 C802 0.931 . S
H823 C803 0.930 . S
H824 C811 0.931 . S
H825 C812 0.929 . S
H826 C820 0.929 . S
H827 C821 0.930 . S
Mn828 O833 2.095 . S
Mn828 O843 2.162 . S
Mn828 O844 2.297 . S
Mn828 O852 2.385 . S
Mn828 O853 2.209 . S
Mn828 O854 2.094 . S
Mn829 O834 2.121 . S
Mn829 N836 2.257 . S
Mn829 N845 2.282 . S
Mn829 O853 2.215 . S
Mn829 O855 2.117 . S
C830 O852 1.234 . S
C830 O853 1.283 . S
C831 O843 1.281 . S
C831 O844 1.236 . S
C832 O854 1.240 . S
C832 O855 1.264 . S
O833 Mn828 2.095 . S
O833 C842 1.250 . S
O834 Mn829 2.121 . S
O834 C842 1.258 . S
C835 N836 1.326 . S
C835 C839 1.460 . S
C835 H841 0.929 . S
N836 Mn829 2.257 . S
N836 C835 1.326 . S
N836 C840 1.362 . S
C837 C838 1.258 . S
C837 C840 1.431 . S
C837 C857 1.449 . S
C838 C837 1.258 . S
C838 C839 1.477 . S
C838 H858 0.931 . S
C839 C835 1.460 . S
C839 C838 1.477 . S
C839 H859 0.930 . S
C840 N836 1.362 . S
C840 C837 1.431 . S
C840 C850 1.476 . S
H841 C835 0.929 . S
C842 O833 1.250 . S
C842 O834 1.258 . S
O843 Mn828 2.162 . S
O843 C831 1.281 . S
O844 Mn828 2.297 . S
O844 C831 1.236 . S
N845 Mn829 2.282 . S
N845 C846 1.328 . S
N845 C850 1.318 . S
C846 N845 1.328 . S
C846 C847 1.457 . S
C846 H851 0.929 . S
C847 C846 1.457 . S
C847 C848 1.291 . S
C847 H860 0.931 . S
C848 C847 1.291 . S
C848 C849 1.373 . S
C848 H861 0.929 . S
C849 C848 1.373 . S
C849 C850 1.396 . S
C849 C856 1.403 . S
C850 C840 1.476 . S
C850 N845 1.318 . S
C850 C849 1.396 . S
H851 C846 0.929 . S
O852 Mn828 2.385 . S
O852 C830 1.234 . S
O853 Mn828 2.209 . S
O853 Mn829 2.215 . S
O853 C830 1.283 . S
O854 Mn828 2.094 . S
O854 C832 1.240 . S
O855 Mn829 2.117 . S
O855 C832 1.264 . S
C856 C849 1.403 . S
C856 C857 1.399 . S
C856 H862 0.929 . S
C857 C837 1.449 . S
C857 C856 1.399 . S
C857 H863 0.930 . S
H858 C838 0.931 . S
H859 C839 0.930 . S
H860 C847 0.931 . S
H861 C848 0.929 . S
H862 C856 0.929 . S
H863 C857 0.930 . S
Mn864 O869 2.095 . S
Mn864 O879 2.162 . S
Mn864 O880 2.297 . S
Mn864 O888 2.385 . S
Mn864 O889 2.209 . S
Mn864 O890 2.094 . S
Mn865 O870 2.121 . S
Mn865 N872 2.257 . S
Mn865 N881 2.282 . S
Mn865 O889 2.215 . S
Mn865 O891 2.117 . S
C866 O888 1.234 . S
C866 O889 1.283 . S
C867 O879 1.281 . S
C867 O880 1.236 . S
C868 O890 1.240 . S
C868 O891 1.264 . S
O869 Mn864 2.095 . S
O869 C878 1.250 . S
O870 Mn865 2.121 . S
O870 C878 1.258 . S
C871 N872 1.326 . S
C871 C875 1.460 . S
C871 H877 0.929 . S
N872 Mn865 2.257 . S
N872 C871 1.326 . S
N872 C876 1.362 . S
C873 C874 1.258 . S
C873 C876 1.431 . S
C873 C893 1.449 . S
C874 C873 1.258 . S
C874 C875 1.477 . S
C874 H894 0.931 . S
C875 C871 1.460 . S
C875 C874 1.477 . S
C875 H895 0.930 . S
C876 N872 1.362 . S
C876 C873 1.431 . S
C876 C886 1.476 . S
H877 C871 0.929 . S
C878 O869 1.250 . S
C878 O870 1.258 . S
O879 Mn864 2.162 . S
O879 C867 1.281 . S
O880 Mn864 2.297 . S
O880 C867 1.236 . S
N881 Mn865 2.282 . S
N881 C882 1.328 . S
N881 C886 1.318 . S
C882 N881 1.328 . S
C882 C883 1.457 . S
C882 H887 0.929 . S
C883 C882 1.457 . S
C883 C884 1.291 . S
C883 H896 0.931 . S
C884 C883 1.291 . S
C884 C885 1.373 . S
C884 H897 0.929 . S
C885 C884 1.373 . S
C885 C886 1.396 . S
C885 C892 1.403 . S
C886 C876 1.476 . S
C886 N881 1.318 . S
C886 C885 1.396 . S
H887 C882 0.929 . S
O888 Mn864 2.385 . S
O888 C866 1.234 . S
O889 Mn864 2.209 . S
O889 Mn865 2.215 . S
O889 C866 1.283 . S
O890 Mn864 2.094 . S
O890 C868 1.240 . S
O891 Mn865 2.117 . S
O891 C868 1.264 . S
C892 C885 1.403 . S
C892 C893 1.399 . S
C892 H898 0.929 . S
C893 C873 1.449 . S
C893 C892 1.399 . S
C893 H899 0.930 . S
H894 C874 0.931 . S
H895 C875 0.930 . S
H896 C883 0.931 . S
H897 C884 0.929 . S
H898 C892 0.929 . S
H899 C893 0.930 . S
Mn900 O905 2.095 1_556 S
Mn900 O915 2.162 . S
Mn900 O916 2.297 . S
Mn900 O924 2.385 . S
Mn900 O925 2.209 . S
Mn900 O926 2.094 . S
Mn901 O906 2.121 . S
Mn901 N908 2.257 . S
Mn901 N917 2.282 1_554 S
Mn901 O925 2.215 1_554 S
Mn901 O927 2.117 1_554 S
C902 O924 1.234 . S
C902 O925 1.283 . S
C903 O915 1.281 . S
C903 O916 1.236 . S
C904 O926 1.240 . S
C904 O927 1.264 . S
O905 Mn900 2.095 1_554 S
O905 C914 1.250 . S
O906 Mn901 2.121 . S
O906 C914 1.258 . S
C907 N908 1.326 . S
C907 C911 1.460 . S
C907 H913 0.929 . S
N908 Mn901 2.257 . S
N908 C907 1.326 . S
N908 C912 1.362 . S
C909 C910 1.258 . S
C909 C912 1.431 . S
C909 C929 1.449 . S
C910 C909 1.258 . S
C910 C911 1.477 . S
C910 H930 0.931 . S
C911 C907 1.460 . S
C911 C910 1.477 . S
C911 H931 0.930 . S
C912 N908 1.362 . S
C912 C909 1.431 . S
C912 C922 1.476 1_554 S
H913 C907 0.929 . S
C914 O905 1.250 . S
C914 O906 1.258 . S
O915 Mn900 2.162 . S
O915 C903 1.281 . S
O916 Mn900 2.297 . S
O916 C903 1.236 . S
N917 Mn901 2.282 1_556 S
N917 C918 1.328 . S
N917 C922 1.318 . S
C918 N917 1.328 . S
C918 C919 1.457 . S
C918 H923 0.929 . S
C919 C918 1.457 . S
C919 C920 1.291 . S
C919 H932 0.931 . S
C920 C919 1.291 . S
C920 C921 1.373 . S
C920 H933 0.929 . S
C921 C920 1.373 . S
C921 C922 1.396 . S
C921 C928 1.403 . S
C922 C912 1.476 1_556 S
C922 N917 1.318 . S
C922 C921 1.396 . S
H923 C918 0.929 . S
O924 Mn900 2.385 . S
O924 C902 1.234 . S
O925 Mn900 2.209 . S
O925 Mn901 2.215 1_556 S
O925 C902 1.283 . S
O926 Mn900 2.094 . S
O926 C904 1.240 . S
O927 Mn901 2.117 1_556 S
O927 C904 1.264 . S
C928 C921 1.403 . S
C928 C929 1.399 1_556 S
C928 H934 0.929 . S
C929 C909 1.449 . S
C929 C928 1.399 1_554 S
C929 H935 0.930 . S
H930 C910 0.931 . S
H931 C911 0.930 . S
H932 C919 0.931 . S
H933 C920 0.929 . S
H934 C928 0.929 . S
H935 C929 0.930 . S
Mn936 O941 2.095 . S
Mn936 O951 2.162 . S
Mn936 O952 2.297 . S
Mn936 O960 2.385 . S
Mn936 O961 2.209 . S
Mn936 O962 2.094 . S
Mn937 O942 2.121 . S
Mn937 N944 2.257 1_455 S
Mn937 N953 2.282 1_455 S
Mn937 O961 2.215 . S
Mn937 O963 2.117 . S
C938 O960 1.234 . S
C938 O961 1.283 . S
C939 O951 1.281 . S
C939 O952 1.236 . S
C940 O962 1.240 . S
C940 O963 1.264 . S
O941 Mn936 2.095 . S
O941 C950 1.250 . S
O942 Mn937 2.121 . S
O942 C950 1.258 . S
C943 N944 1.326 . S
C943 C947 1.460 . S
C943 H949 0.929 . S
N944 Mn937 2.257 1_655 S
N944 C943 1.326 . S
N944 C948 1.362 . S
C945 C946 1.258 . S
C945 C948 1.431 . S
C945 C965 1.449 . S
C946 C945 1.258 . S
C946 C947 1.477 . S
C946 H966 0.931 . S
C947 C943 1.460 . S
C947 C946 1.477 . S
C947 H967 0.930 . S
C948 N944 1.362 . S
C948 C945 1.431 . S
C948 C958 1.476 . S
H949 C943 0.929 . S
C950 O941 1.250 . S
C950 O942 1.258 . S
O951 Mn936 2.162 . S
O951 C939 1.281 . S
O952 Mn936 2.297 . S
O952 C939 1.236 . S
N953 Mn937 2.282 1_655 S
N953 C954 1.328 . S
N953 C958 1.318 . S
C954 N953 1.328 . S
C954 C955 1.457 . S
C954 H959 0.929 . S
C955 C954 1.457 . S
C955 C956 1.291 . S
C955 H968 0.931 . S
C956 C955 1.291 . S
C956 C957 1.373 . S
C956 H969 0.929 . S
C957 C956 1.373 . S
C957 C958 1.396 . S
C957 C964 1.403 . S
C958 C948 1.476 . S
C958 N953 1.318 . S
C958 C957 1.396 . S
H959 C954 0.929 . S
O960 Mn936 2.385 . S
O960 C938 1.234 . S
O961 Mn936 2.209 . S
O961 Mn937 2.215 . S
O961 C938 1.283 . S
O962 Mn936 2.094 . S
O962 C940 1.240 . S
O963 Mn937 2.117 . S
O963 C940 1.264 . S
C964 C957 1.403 . S
C964 C965 1.399 . S
C964 H970 0.929 . S
C965 C945 1.449 . S
C965 C964 1.399 . S
C965 H971 0.930 . S
H966 C946 0.931 . S
H967 C947 0.930 . S
H968 C955 0.931 . S
H969 C956 0.929 . S
H970 C964 0.929 . S
H971 C965 0.930 . S
Mn972 O977 2.095 . S
Mn972 O987 2.162 . S
Mn972 O988 2.297 . S
Mn972 O996 2.385 . S
Mn972 O997 2.209 . S
Mn972 O998 2.094 . S
Mn973 O978 2.121 . S
Mn973 N980 2.257 . S
Mn973 N989 2.282 . S
Mn973 O997 2.215 . S
Mn973 O999 2.117 . S
C974 O996 1.234 . S
C974 O997 1.283 . S
C975 O987 1.281 . S
C975 O988 1.236 . S
C976 O998 1.240 . S
C976 O999 1.264 . S
O977 Mn972 2.095 . S
O977 C986 1.250 . S
O978 Mn973 2.121 . S
O978 C986 1.258 . S
C979 N980 1.326 . S
C979 C983 1.460 . S
C979 H985 0.929 . S
N980 Mn973 2.257 . S
N980 C979 1.326 . S
N980 C984 1.362 . S
C981 C982 1.258 . S
C981 C984 1.431 . S
C981 C1001 1.449 . S
C982 C981 1.258 . S
C982 C983 1.477 . S
C982 H1002 0.931 . S
C983 C979 1.460 . S
C983 C982 1.477 . S
C983 H1003 0.930 . S
C984 N980 1.362 . S
C984 C981 1.431 . S
C984 C994 1.476 . S
H985 C979 0.929 . S
C986 O977 1.250 . S
C986 O978 1.258 . S
O987 Mn972 2.162 . S
O987 C975 1.281 . S
O988 Mn972 2.297 . S
O988 C975 1.236 . S
N989 Mn973 2.282 . S
N989 C990 1.328 . S
N989 C994 1.318 . S
C990 N989 1.328 . S
C990 C991 1.457 . S
C990 H995 0.929 . S
C991 C990 1.457 . S
C991 C992 1.291 . S
C991 H1004 0.931 . S
C992 C991 1.291 . S
C992 C993 1.373 . S
C992 H1005 0.929 . S
C993 C992 1.373 . S
C993 C994 1.396 . S
C993 C1000 1.403 . S
C994 C984 1.476 . S
C994 N989 1.318 . S
C994 C993 1.396 . S
H995 C990 0.929 . S
O996 Mn972 2.385 . S
O996 C974 1.234 . S
O997 Mn972 2.209 . S
O997 Mn973 2.215 . S
O997 C974 1.283 . S
O998 Mn972 2.094 . S
O998 C976 1.240 . S
O999 Mn973 2.117 . S
O999 C976 1.264 . S
C1000 C993 1.403 . S
C1000 C1001 1.399 . S
C1000 H1006 0.929 . S
C1001 C981 1.449 . S
C1001 C1000 1.399 . S
C1001 H1007 0.930 . S
H1002 C982 0.931 . S
H1003 C983 0.930 . S
H1004 C991 0.931 . S
H1005 C992 0.929 . S
H1006 C1000 0.929 . S
H1007 C1001 0.930 . S
Mn1008 O1013 2.095 . S
Mn1008 O1023 2.162 . S
Mn1008 O1024 2.297 . S
Mn1008 O1032 2.385 . S
Mn1008 O1033 2.209 . S
Mn1008 O1034 2.094 . S
Mn1009 O1014 2.121 . S
Mn1009 N1016 2.257 . S
Mn1009 N1025 2.282 . S
Mn1009 O1033 2.215 . S
Mn1009 O1035 2.117 . S
C1010 O1032 1.234 . S
C1010 O1033 1.283 . S
C1011 O1023 1.281 . S
C1011 O1024 1.236 . S
C1012 O1034 1.240 . S
C1012 O1035 1.264 . S
O1013 Mn1008 2.095 . S
O1013 C1022 1.250 . S
O1014 Mn1009 2.121 . S
O1014 C1022 1.258 . S
C1015 N1016 1.326 . S
C1015 C1019 1.460 . S
C1015 H1021 0.929 . S
N1016 Mn1009 2.257 . S
N1016 C1015 1.326 . S
N1016 C1020 1.362 . S
C1017 C1018 1.258 . S
C1017 C1020 1.431 . S
C1017 C1037 1.449 . S
C1018 C1017 1.258 . S
C1018 C1019 1.477 . S
C1018 H1038 0.931 . S
C1019 C1015 1.460 . S
C1019 C1018 1.477 . S
C1019 H1039 0.930 . S
C1020 N1016 1.362 . S
C1020 C1017 1.431 . S
C1020 C1030 1.476 . S
H1021 C1015 0.929 . S
C1022 O1013 1.250 . S
C1022 O1014 1.258 . S
O1023 Mn1008 2.162 . S
O1023 C1011 1.281 . S
O1024 Mn1008 2.297 . S
O1024 C1011 1.236 . S
N1025 Mn1009 2.282 . S
N1025 C1026 1.328 . S
N1025 C1030 1.318 . S
C1026 N1025 1.328 . S
C1026 C1027 1.457 . S
C1026 H1031 0.929 . S
C1027 C1026 1.457 . S
C1027 C1028 1.291 . S
C1027 H1040 0.931 . S
C1028 C1027 1.291 . S
C1028 C1029 1.373 . S
C1028 H1041 0.929 . S
C1029 C1028 1.373 . S
C1029 C1030 1.396 . S
C1029 C1036 1.403 . S
C1030 C1020 1.476 . S
C1030 N1025 1.318 . S
C1030 C1029 1.396 . S
H1031 C1026 0.929 . S
O1032 Mn1008 2.385 . S
O1032 C1010 1.234 . S
O1033 Mn1008 2.209 . S
O1033 Mn1009 2.215 . S
O1033 C1010 1.283 . S
O1034 Mn1008 2.094 . S
O1034 C1012 1.240 . S
O1035 Mn1009 2.117 . S
O1035 C1012 1.264 . S
C1036 C1029 1.403 . S
C1036 C1037 1.399 . S
C1036 H1042 0.929 . S
C1037 C1017 1.449 . S
C1037 C1036 1.399 . S
C1037 H1043 0.930 . S
H1038 C1018 0.931 . S
H1039 C1019 0.930 . S
H1040 C1027 0.931 . S
H1041 C1028 0.929 . S
H1042 C1036 0.929 . S
H1043 C1037 0.930 . S
Mn1044 O1049 2.095 1_554 S
Mn1044 O1059 2.162 . S
Mn1044 O1060 2.297 . S
Mn1044 O1068 2.385 . S
Mn1044 O1069 2.209 . S
Mn1044 O1070 2.094 . S
Mn1045 O1050 2.121 . S
Mn1045 N1052 2.257 . S
Mn1045 N1061 2.282 1_556 S
Mn1045 O1069 2.215 1_556 S
Mn1045 O1071 2.117 1_556 S
C1046 O1068 1.234 . S
C1046 O1069 1.283 . S
C1047 O1059 1.281 . S
C1047 O1060 1.236 . S
C1048 O1070 1.240 . S
C1048 O1071 1.264 . S
O1049 Mn1044 2.095 1_556 S
O1049 C1058 1.250 . S
O1050 Mn1045 2.121 . S
O1050 C1058 1.258 . S
C1051 N1052 1.326 . S
C1051 C1055 1.460 . S
C1051 H1057 0.929 . S
N1052 Mn1045 2.257 . S
N1052 C1051 1.326 . S
N1052 C1056 1.362 . S
C1053 C1054 1.258 . S
C1053 C1056 1.431 . S
C1053 C1073 1.449 . S
C1054 C1053 1.258 . S
C1054 C1055 1.477 . S
C1054 H1074 0.931 . S
C1055 C1051 1.460 . S
C1055 C1054 1.477 . S
C1055 H1075 0.930 . S
C1056 N1052 1.362 . S
C1056 C1053 1.431 . S
C1056 C1066 1.476 1_556 S
H1057 C1051 0.929 . S
C1058 O1049 1.250 . S
C1058 O1050 1.258 . S
O1059 Mn1044 2.162 . S
O1059 C1047 1.281 . S
O1060 Mn1044 2.297 . S
O1060 C1047 1.236 . S
N1061 Mn1045 2.282 1_554 S
N1061 C1062 1.328 . S
N1061 C1066 1.318 . S
C1062 N1061 1.328 . S
C1062 C1063 1.457 . S
C1062 H1067 0.929 . S
C1063 C1062 1.457 . S
C1063 C1064 1.291 . S
C1063 H1076 0.931 . S
C1064 C1063 1.291 . S
C1064 C1065 1.373 . S
C1064 H1077 0.929 . S
C1065 C1064 1.373 . S
C1065 C1066 1.396 . S
C1065 C1072 1.403 . S
C1066 C1056 1.476 1_554 S
C1066 N1061 1.318 . S
C1066 C1065 1.396 . S
H1067 C1062 0.929 . S
O1068 Mn1044 2.385 . S
O1068 C1046 1.234 . S
O1069 Mn1044 2.209 . S
O1069 Mn1045 2.215 1_554 S
O1069 C1046 1.283 . S
O1070 Mn1044 2.094 . S
O1070 C1048 1.240 . S
O1071 Mn1045 2.117 1_554 S
O1071 C1048 1.264 . S
C1072 C1065 1.403 . S
C1072 C1073 1.399 1_554 S
C1072 H1078 0.929 . S
C1073 C1053 1.449 . S
C1073 C1072 1.399 1_556 S
C1073 H1079 0.930 . S
H1074 C1054 0.931 . S
H1075 C1055 0.930 . S
H1076 C1063 0.931 . S
H1077 C1064 0.929 . S
H1078 C1072 0.929 . S
H1079 C1073 0.930 . S
Mn1080 O1085 2.095 . S
Mn1080 O1095 2.162 . S
Mn1080 O1096 2.297 . S
Mn1080 O1104 2.385 . S
Mn1080 O1105 2.209 . S
Mn1080 O1106 2.094 . S
Mn1081 O1086 2.121 . S
Mn1081 N1088 2.257 1_455 S
Mn1081 N1097 2.282 1_455 S
Mn1081 O1105 2.215 . S
Mn1081 O1107 2.117 . S
C1082 O1104 1.234 . S
C1082 O1105 1.283 . S
C1083 O1095 1.281 . S
C1083 O1096 1.236 . S
C1084 O1106 1.240 . S
C1084 O1107 1.264 . S
O1085 Mn1080 2.095 . S
O1085 C1094 1.250 . S
O1086 Mn1081 2.121 . S
O1086 C1094 1.258 . S
C1087 N1088 1.326 . S
C1087 C1091 1.460 . S
C1087 H1093 0.929 . S
N1088 Mn1081 2.257 1_655 S
N1088 C1087 1.326 . S
N1088 C1092 1.362 . S
C1089 C1090 1.258 . S
C1089 C1092 1.431 . S
C1089 C1109 1.449 . S
C1090 C1089 1.258 . S
C1090 C1091 1.477 . S
C1090 H1110 0.931 . S
C1091 C1087 1.460 . S
C1091 C1090 1.477 . S
C1091 H1111 0.930 . S
C1092 N1088 1.362 . S
C1092 C1089 1.431 . S
C1092 C1102 1.476 . S
H1093 C1087 0.929 . S
C1094 O1085 1.250 . S
C1094 O1086 1.258 . S
O1095 Mn1080 2.162 . S
O1095 C1083 1.281 . S
O1096 Mn1080 2.297 . S
O1096 C1083 1.236 . S
N1097 Mn1081 2.282 1_655 S
N1097 C1098 1.328 . S
N1097 C1102 1.318 . S
C1098 N1097 1.328 . S
C1098 C1099 1.457 . S
C1098 H1103 0.929 . S
C1099 C1098 1.457 . S
C1099 C1100 1.291 . S
C1099 H1112 0.931 . S
C1100 C1099 1.291 . S
C1100 C1101 1.373 . S
C1100 H1113 0.929 . S
C1101 C1100 1.373 . S
C1101 C1102 1.396 . S
C1101 C1108 1.403 . S
C1102 C1092 1.476 . S
C1102 N1097 1.318 . S
C1102 C1101 1.396 . S
H1103 C1098 0.929 . S
O1104 Mn1080 2.385 . S
O1104 C1082 1.234 . S
O1105 Mn1080 2.209 . S
O1105 Mn1081 2.215 . S
O1105 C1082 1.283 . S
O1106 Mn1080 2.094 . S
O1106 C1084 1.240 . S
O1107 Mn1081 2.117 . S
O1107 C1084 1.264 . S
C1108 C1101 1.403 . S
C1108 C1109 1.399 . S
C1108 H1114 0.929 . S
C1109 C1089 1.449 . S
C1109 C1108 1.399 . S
C1109 H1115 0.930 . S
H1110 C1090 0.931 . S
H1111 C1091 0.930 . S
H1112 C1099 0.931 . S
H1113 C1100 0.929 . S
H1114 C1108 0.929 . S
H1115 C1109 0.930 . S
Mn1116 O1121 2.095 . S
Mn1116 O1131 2.162 . S
Mn1116 O1132 2.297 . S
Mn1116 O1140 2.385 . S
Mn1116 O1141 2.209 . S
Mn1116 O1142 2.094 . S
Mn1117 O1122 2.121 . S
Mn1117 N1124 2.257 . S
Mn1117 N1133 2.282 . S
Mn1117 O1141 2.215 . S
Mn1117 O1143 2.117 . S
C1118 O1140 1.234 . S
C1118 O1141 1.283 . S
C1119 O1131 1.281 . S
C1119 O1132 1.236 . S
C1120 O1142 1.240 . S
C1120 O1143 1.264 . S
O1121 Mn1116 2.095 . S
O1121 C1130 1.250 . S
O1122 Mn1117 2.121 . S
O1122 C1130 1.258 . S
C1123 N1124 1.326 . S
C1123 C1127 1.460 . S
C1123 H1129 0.929 . S
N1124 Mn1117 2.257 . S
N1124 C1123 1.326 . S
N1124 C1128 1.362 . S
C1125 C1126 1.258 . S
C1125 C1128 1.431 . S
C1125 C1145 1.449 . S
C1126 C1125 1.258 . S
C1126 C1127 1.477 . S
C1126 H1146 0.931 . S
C1127 C1123 1.460 . S
C1127 C1126 1.477 . S
C1127 H1147 0.930 . S
C1128 N1124 1.362 . S
C1128 C1125 1.431 . S
C1128 C1138 1.476 . S
H1129 C1123 0.929 . S
C1130 O1121 1.250 . S
C1130 O1122 1.258 . S
O1131 Mn1116 2.162 . S
O1131 C1119 1.281 . S
O1132 Mn1116 2.297 . S
O1132 C1119 1.236 . S
N1133 Mn1117 2.282 . S
N1133 C1134 1.328 . S
N1133 C1138 1.318 . S
C1134 N1133 1.328 . S
C1134 C1135 1.457 . S
C1134 H1139 0.929 . S
C1135 C1134 1.457 . S
C1135 C1136 1.291 . S
C1135 H1148 0.931 . S
C1136 C1135 1.291 . S
C1136 C1137 1.373 . S
C1136 H1149 0.929 . S
C1137 C1136 1.373 . S
C1137 C1138 1.396 . S
C1137 C1144 1.403 . S
C1138 C1128 1.476 . S
C1138 N1133 1.318 . S
C1138 C1137 1.396 . S
H1139 C1134 0.929 . S
O1140 Mn1116 2.385 . S
O1140 C1118 1.234 . S
O1141 Mn1116 2.209 . S
O1141 Mn1117 2.215 . S
O1141 C1118 1.283 . S
O1142 Mn1116 2.094 . S
O1142 C1120 1.240 . S
O1143 Mn1117 2.117 . S
O1143 C1120 1.264 . S
C1144 C1137 1.403 . S
C1144 C1145 1.399 . S
C1144 H1150 0.929 . S
C1145 C1125 1.449 . S
C1145 C1144 1.399 . S
C1145 H1151 0.930 . S
H1146 C1126 0.931 . S
H1147 C1127 0.930 . S
H1148 C1135 0.931 . S
H1149 C1136 0.929 . S
H1150 C1144 0.929 . S
H1151 C1145 0.930 . S
C1152 C1153 1.387 . S
C1152 H1156 0.950 . S
C1152 C1161 1.390 . S
C1153 C1152 1.387 . S
C1153 C1155 1.387 . S
H1154 C1161 0.950 . S
C1155 C1153 1.387 . S
C1155 C1157 1.390 . S
C1155 H1159 0.950 . S
H1156 C1152 0.950 . S
C1157 C1155 1.390 . S
C1157 C1158 1.387 . S
C1157 H1160 0.950 . S
C1158 C1157 1.387 . S
C1158 C1161 1.387 . S
H1159 C1155 0.950 . S
H1160 C1157 0.950 . S
C1161 C1152 1.390 . S
C1161 H1154 0.950 . S
C1161 C1158 1.387 . S
C1162 C1163 1.387 . S
C1162 H1166 0.950 . S
C1162 C1171 1.390 . S
C1163 C1162 1.387 . S
C1163 C1165 1.387 . S
H1164 C1171 0.950 . S
C1165 C1163 1.387 . S
C1165 C1167 1.390 . S
C1165 H1169 0.950 . S
H1166 C1162 0.950 . S
C1167 C1165 1.390 . S
C1167 C1168 1.387 . S
C1167 H1170 0.950 . S
C1168 C1167 1.387 . S
C1168 C1171 1.387 . S
H1169 C1165 0.950 . S
H1170 C1167 0.950 . S
C1171 C1162 1.390 . S
C1171 H1164 0.950 . S
C1171 C1168 1.387 . S
C1172 C1173 1.387 . S
C1172 H1176 0.950 . S
C1172 C1181 1.390 . S
C1173 C1172 1.387 . S
C1173 C1175 1.387 . S
H1174 C1181 0.950 . S
C1175 C1173 1.387 . S
C1175 C1177 1.390 . S
C1175 H1179 0.950 . S
H1176 C1172 0.950 . S
C1177 C1175 1.390 . S
C1177 C1178 1.387 . S
C1177 H1180 0.950 . S
C1178 C1177 1.387 . S
C1178 C1181 1.387 . S
H1179 C1175 0.950 . S
H1180 C1177 0.950 . S
C1181 C1172 1.390 . S
C1181 H1174 0.950 . S
C1181 C1178 1.387 . S
C1182 C1183 1.387 . S
C1182 H1186 0.950 . S
C1182 C1191 1.390 . S
C1183 C1182 1.387 . S
C1183 C1185 1.387 . S
H1184 C1191 0.950 . S
C1185 C1183 1.387 . S
C1185 C1187 1.390 . S
C1185 H1189 0.950 . S
H1186 C1182 0.950 . S
C1187 C1185 1.390 . S
C1187 C1188 1.387 . S
C1187 H1190 0.950 . S
C1188 C1187 1.387 . S
C1188 C1191 1.387 . S
H1189 C1185 0.950 . S
H1190 C1187 0.950 . S
C1191 C1182 1.390 . S
C1191 H1184 0.950 . S
C1191 C1188 1.387 . S
C1192 C1193 1.387 . S
C1192 H1196 0.950 . S
C1192 C1201 1.390 . S
C1193 C1192 1.387 . S
C1193 C1195 1.387 . S
H1194 C1201 0.950 . S
C1195 C1193 1.387 . S
C1195 C1197 1.390 . S
C1195 H1199 0.950 . S
H1196 C1192 0.950 . S
C1197 C1195 1.390 . S
C1197 C1198 1.387 . S
C1197 H1200 0.950 . S
C1198 C1197 1.387 . S
C1198 C1201 1.387 . S
H1199 C1195 0.950 . S
H1200 C1197 0.950 . S
C1201 C1192 1.390 . S
C1201 H1194 0.950 . S
C1201 C1198 1.387 . S
C1202 C1203 1.387 . S
C1202 H1206 0.950 . S
C1202 C1211 1.390 . S
C1203 C1202 1.387 . S
C1203 C1205 1.387 . S
H1204 C1211 0.950 . S
C1205 C1203 1.387 . S
C1205 C1207 1.390 . S
C1205 H1209 0.950 . S
H1206 C1202 0.950 . S
C1207 C1205 1.390 . S
C1207 C1208 1.387 . S
C1207 H1210 0.950 . S
C1208 C1207 1.387 . S
C1208 C1211 1.387 . S
H1209 C1205 0.950 . S
H1210 C1207 0.950 . S
C1211 C1202 1.390 . S
C1211 H1204 0.950 . S
C1211 C1208 1.387 . S
C1212 C1213 1.387 . S
C1212 H1216 0.950 . S
C1212 C1221 1.390 . S
C1213 C1212 1.387 . S
C1213 C1215 1.387 . S
H1214 C1221 0.950 . S
C1215 C1213 1.387 . S
C1215 C1217 1.390 . S
C1215 H1219 0.950 . S
H1216 C1212 0.950 . S
C1217 C1215 1.390 . S
C1217 C1218 1.387 . S
C1217 H1220 0.950 . S
C1218 C1217 1.387 . S
C1218 C1221 1.387 . S
H1219 C1215 0.950 . S
H1220 C1217 0.950 . S
C1221 C1212 1.390 . S
C1221 H1214 0.950 . S
C1221 C1218 1.387 . S
C1222 C1223 1.387 . S
C1222 H1226 0.950 . S
C1222 C1231 1.390 . S
C1223 C1222 1.387 . S
C1223 C1225 1.387 . S
H1224 C1231 0.950 . S
C1225 C1223 1.387 . S
C1225 C1227 1.390 . S
C1225 H1229 0.950 . S
H1226 C1222 0.950 . S
C1227 C1225 1.390 . S
C1227 C1228 1.387 . S
C1227 H1230 0.950 . S
C1228 C1227 1.387 . S
C1228 C1231 1.387 . S
H1229 C1225 0.950 . S
H1230 C1227 0.950 . S
C1231 C1222 1.390 . S
C1231 H1224 0.950 . S
C1231 C1228 1.387 . S
C1232 C1233 1.387 . S
C1232 H1236 0.950 . S
C1232 C1241 1.390 . S
C1233 C1232 1.387 . S
C1233 C1235 1.387 . S
H1234 C1241 0.950 . S
C1235 C1233 1.387 . S
C1235 C1237 1.390 . S
C1235 H1239 0.950 . S
H1236 C1232 0.950 . S
C1237 C1235 1.390 . S
C1237 C1238 1.387 . S
C1237 H1240 0.950 . S
C1238 C1237 1.387 . S
C1238 C1241 1.387 . S
H1239 C1235 0.950 . S
H1240 C1237 0.950 . S
C1241 C1232 1.390 . S
C1241 H1234 0.950 . S
C1241 C1238 1.387 . S
C1242 C1243 1.387 . S
C1242 H1246 0.950 . S
C1242 C1251 1.390 . S
C1243 C1242 1.387 . S
C1243 C1245 1.387 . S
H1244 C1251 0.950 . S
C1245 C1243 1.387 . S
C1245 C1247 1.390 . S
C1245 H1249 0.950 . S
H1246 C1242 0.950 . S
C1247 C1245 1.390 . S
C1247 C1248 1.387 . S
C1247 H1250 0.950 . S
C1248 C1247 1.387 . S
C1248 C1251 1.387 . S
H1249 C1245 0.950 . S
H1250 C1247 0.950 . S
C1251 C1242 1.390 . S
C1251 H1244 0.950 . S
C1251 C1248 1.387 . S
C1252 C1253 1.387 . S
C1252 H1256 0.950 . S
C1252 C1261 1.390 . S
C1253 C1252 1.387 . S
C1253 C1255 1.387 . S
H1254 C1261 0.950 . S
C1255 C1253 1.387 . S
C1255 C1257 1.390 . S
C1255 H1259 0.950 . S
H1256 C1252 0.950 . S
C1257 C1255 1.390 . S
C1257 C1258 1.387 . S
C1257 H1260 0.950 . S
C1258 C1257 1.387 . S
C1258 C1261 1.387 . S
H1259 C1255 0.950 . S
H1260 C1257 0.950 . S
C1261 C1252 1.390 . S
C1261 H1254 0.950 . S
C1261 C1258 1.387 . S
C1262 C1263 1.387 . S
C1262 H1266 0.950 . S
C1262 C1271 1.390 . S
C1263 C1262 1.387 . S
C1263 C1265 1.387 . S
H1264 C1271 0.950 . S
C1265 C1263 1.387 . S
C1265 C1267 1.390 . S
C1265 H1269 0.950 . S
H1266 C1262 0.950 . S
C1267 C1265 1.390 . S
C1267 C1268 1.387 . S
C1267 H1270 0.950 . S
C1268 C1267 1.387 . S
C1268 C1271 1.387 . S
H1269 C1265 0.950 . S
H1270 C1267 0.950 . S
C1271 C1262 1.390 . S
C1271 H1264 0.950 . S
C1271 C1268 1.387 . S
C1272 C1273 1.387 . S
C1272 H1276 0.950 . S
C1272 C1281 1.390 . S
C1273 C1272 1.387 . S
C1273 C1275 1.387 . S
H1274 C1281 0.950 . S
C1275 C1273 1.387 . S
C1275 C1277 1.390 . S
C1275 H1279 0.950 . S
H1276 C1272 0.950 . S
C1277 C1275 1.390 . S
C1277 C1278 1.387 . S
C1277 H1280 0.950 . S
C1278 C1277 1.387 . S
C1278 C1281 1.387 . S
H1279 C1275 0.950 . S
H1280 C1277 0.950 . S
C1281 C1272 1.390 . S
C1281 H1274 0.950 . S
C1281 C1278 1.387 . S
C1282 C1283 1.387 . S
C1282 H1286 0.950 . S
C1282 C1291 1.390 . S
C1283 C1282 1.387 . S
C1283 C1285 1.387 . S
H1284 C1291 0.950 . S
C1285 C1283 1.387 . S
C1285 C1287 1.390 . S
C1285 H1289 0.950 . S
H1286 C1282 0.950 . S
C1287 C1285 1.390 . S
C1287 C1288 1.387 . S
C1287 H1290 0.950 . S
C1288 C1287 1.387 . S
C1288 C1291 1.387 . S
H1289 C1285 0.950 . S
H1290 C1287 0.950 . S
C1291 C1282 1.390 . S
C1291 H1284 0.950 . S
C1291 C1288 1.387 . S
C1292 C1293 1.387 . S
C1292 H1296 0.950 . S
C1292 C1301 1.390 . S
C1293 C1292 1.387 . S
C1293 C1295 1.387 . S
H1294 C1301 0.950 . S
C1295 C1293 1.387 . S
C1295 C1297 1.390 . S
C1295 H1299 0.950 . S
H1296 C1292 0.950 . S
C1297 C1295 1.390 . S
C1297 C1298 1.387 . S
C1297 H1300 0.950 . S
C1298 C1297 1.387 . S
C1298 C1301 1.387 . S
H1299 C1295 0.950 . S
H1300 C1297 0.950 . S
C1301 C1292 1.390 . S
C1301 H1294 0.950 . S
C1301 C1298 1.387 . S
C1302 C1303 1.387 . S
C1302 H1306 0.950 . S
C1302 C1311 1.390 . S
C1303 C1302 1.387 . S
C1303 C1305 1.387 . S
H1304 C1311 0.950 . S
C1305 C1303 1.387 . S
C1305 C1307 1.390 . S
C1305 H1309 0.950 . S
H1306 C1302 0.950 . S
C1307 C1305 1.390 . S
C1307 C1308 1.387 . S
C1307 H1310 0.950 . S
C1308 C1307 1.387 . S
C1308 C1311 1.387 . S
H1309 C1305 0.950 . S
H1310 C1307 0.950 . S
C1311 C1302 1.390 . S
C1311 H1304 0.950 . S
C1311 C1308 1.387 . S
C1312 C1313 1.387 . S
C1312 H1316 0.950 . S
C1312 C1321 1.390 . S
C1313 C1312 1.387 . S
C1313 C1315 1.387 . S
H1314 C1321 0.950 . S
C1315 C1313 1.387 . S
C1315 C1317 1.390 . S
C1315 H1319 0.950 . S
H1316 C1312 0.950 . S
C1317 C1315 1.390 . S
C1317 C1318 1.387 . S
C1317 H1320 0.950 . S
C1318 C1317 1.387 . S
C1318 C1321 1.387 . S
H1319 C1315 0.950 . S
H1320 C1317 0.950 . S
C1321 C1312 1.390 . S
C1321 H1314 0.950 . S
C1321 C1318 1.387 . S
C1322 C1323 1.387 . S
C1322 H1326 0.950 . S
C1322 C1331 1.390 . S
C1323 C1322 1.387 . S
C1323 C1325 1.387 . S
H1324 C1331 0.950 . S
C1325 C1323 1.387 . S
C1325 C1327 1.390 . S
C1325 H1329 0.950 . S
H1326 C1322 0.950 . S
C1327 C1325 1.390 . S
C1327 C1328 1.387 . S
C1327 H1330 0.950 . S
C1328 C1327 1.387 . S
C1328 C1331 1.387 . S
H1329 C1325 0.950 . S
H1330 C1327 0.950 . S
C1331 C1322 1.390 . S
C1331 H1324 0.950 . S
C1331 C1328 1.387 . S
C1332 C1333 1.387 . S
C1332 H1336 0.950 . S
C1332 C1341 1.390 . S
C1333 C1332 1.387 . S
C1333 C1335 1.387 . S
H1334 C1341 0.950 . S
C1335 C1333 1.387 . S
C1335 C1337 1.390 . S
C1335 H1339 0.950 . S
H1336 C1332 0.950 . S
C1337 C1335 1.390 . S
C1337 C1338 1.387 . S
C1337 H1340 0.950 . S
C1338 C1337 1.387 . S
C1338 C1341 1.387 . S
H1339 C1335 0.950 . S
H1340 C1337 0.950 . S
C1341 C1332 1.390 . S
C1341 H1334 0.950 . S
C1341 C1338 1.387 . S
C1342 C1343 1.387 . S
C1342 H1346 0.950 . S
C1342 C1351 1.390 . S
C1343 C1342 1.387 . S
C1343 C1345 1.387 . S
H1344 C1351 0.950 . S
C1345 C1343 1.387 . S
C1345 C1347 1.390 . S
C1345 H1349 0.950 . S
H1346 C1342 0.950 . S
C1347 C1345 1.390 . S
C1347 C1348 1.387 . S
C1347 H1350 0.950 . S
C1348 C1347 1.387 . S
C1348 C1351 1.387 . S
H1349 C1345 0.950 . S
H1350 C1347 0.950 . S
C1351 C1342 1.390 . S
C1351 H1344 0.950 . S
C1351 C1348 1.387 . S
C1352 C1353 1.387 . S
C1352 H1356 0.950 . S
C1352 C1361 1.390 . S
C1353 C1352 1.387 . S
C1353 C1355 1.387 . S
H1354 C1361 0.950 . S
C1355 C1353 1.387 . S
C1355 C1357 1.390 . S
C1355 H1359 0.950 . S
H1356 C1352 0.950 . S
C1357 C1355 1.390 . S
C1357 C1358 1.387 . S
C1357 H1360 0.950 . S
C1358 C1357 1.387 . S
C1358 C1361 1.387 . S
H1359 C1355 0.950 . S
H1360 C1357 0.950 . S
C1361 C1352 1.390 . S
C1361 H1354 0.950 . S
C1361 C1358 1.387 . S
C1362 C1363 1.387 . S
C1362 H1366 0.950 . S
C1362 C1371 1.390 . S
C1363 C1362 1.387 . S
C1363 C1365 1.387 . S
H1364 C1371 0.950 . S
C1365 C1363 1.387 . S
C1365 C1367 1.390 . S
C1365 H1369 0.950 . S
H1366 C1362 0.950 . S
C1367 C1365 1.390 . S
C1367 C1368 1.387 . S
C1367 H1370 0.950 . S
C1368 C1367 1.387 . S
C1368 C1371 1.387 . S
H1369 C1365 0.950 . S
H1370 C1367 0.950 . S
C1371 C1362 1.390 . S
C1371 H1364 0.950 . S
C1371 C1368 1.387 . S
C1372 C1373 1.387 . S
C1372 H1376 0.950 . S
C1372 C1381 1.390 . S
C1373 C1372 1.387 . S
C1373 C1375 1.387 . S
H1374 C1381 0.950 . S
C1375 C1373 1.387 . S
C1375 C1377 1.390 . S
C1375 H1379 0.950 . S
H1376 C1372 0.950 . S
C1377 C1375 1.390 . S
C1377 C1378 1.387 . S
C1377 H1380 0.950 . S
C1378 C1377 1.387 . S
C1378 C1381 1.387 . S
H1379 C1375 0.950 . S
H1380 C1377 0.950 . S
C1381 C1372 1.390 . S
C1381 H1374 0.950 . S
C1381 C1378 1.387 . S
C1382 C1383 1.387 . S
C1382 H1386 0.950 . S
C1382 C1391 1.390 . S
C1383 C1382 1.387 . S
C1383 C1385 1.387 . S
H1384 C1391 0.950 . S
C1385 C1383 1.387 . S
C1385 C1387 1.390 . S
C1385 H1389 0.950 . S
H1386 C1382 0.950 . S
C1387 C1385 1.390 . S
C1387 C1388 1.387 . S
C1387 H1390 0.950 . S
C1388 C1387 1.387 . S
C1388 C1391 1.387 . S
H1389 C1385 0.950 . S
H1390 C1387 0.950 . S
C1391 C1382 1.390 . S
C1391 H1384 0.950 . S
C1391 C1388 1.387 . S
C1392 C1393 1.387 . S
C1392 H1396 0.950 . S
C1392 C1401 1.390 . S
C1393 C1392 1.387 . S
C1393 C1395 1.387 . S
H1394 C1401 0.950 . S
C1395 C1393 1.387 . S
C1395 C1397 1.390 . S
C1395 H1399 0.950 . S
H1396 C1392 0.950 . S
C1397 C1395 1.390 . S
C1397 C1398 1.387 . S
C1397 H1400 0.950 . S
C1398 C1397 1.387 . S
C1398 C1401 1.387 . S
H1399 C1395 0.950 . S
H1400 C1397 0.950 . S
C1401 C1392 1.390 . S
C1401 H1394 0.950 . S
C1401 C1398 1.387 . S
C1402 C1403 1.387 . S
C1402 H1406 0.950 . S
C1402 C1411 1.390 . S
C1403 C1402 1.387 . S
C1403 C1405 1.387 . S
H1404 C1411 0.950 . S
C1405 C1403 1.387 . S
C1405 C1407 1.390 . S
C1405 H1409 0.950 . S
H1406 C1402 0.950 . S
C1407 C1405 1.390 . S
C1407 C1408 1.387 . S
C1407 H1410 0.950 . S
C1408 C1407 1.387 . S
C1408 C1411 1.387 . S
H1409 C1405 0.950 . S
H1410 C1407 0.950 . S
C1411 C1402 1.390 . S
C1411 H1404 0.950 . S
C1411 C1408 1.387 . S
C1412 C1413 1.387 . S
C1412 H1416 0.950 . S
C1412 C1421 1.390 . S
C1413 C1412 1.387 . S
C1413 C1415 1.387 . S
H1414 C1421 0.950 . S
C1415 C1413 1.387 . S
C1415 C1417 1.390 . S
C1415 H1419 0.950 . S
H1416 C1412 0.950 . S
C1417 C1415 1.390 . S
C1417 C1418 1.387 . S
C1417 H1420 0.950 . S
C1418 C1417 1.387 . S
C1418 C1421 1.387 . S
H1419 C1415 0.950 . S
H1420 C1417 0.950 . S
C1421 C1412 1.390 . S
C1421 H1414 0.950 . S
C1421 C1418 1.387 . S
C1422 C1423 1.387 . S
C1422 H1426 0.950 . S
C1422 C1431 1.390 . S
C1423 C1422 1.387 . S
C1423 C1425 1.387 . S
H1424 C1431 0.950 . S
C1425 C1423 1.387 . S
C1425 C1427 1.390 . S
C1425 H1429 0.950 . S
H1426 C1422 0.950 . S
C1427 C1425 1.390 . S
C1427 C1428 1.387 . S
C1427 H1430 0.950 . S
C1428 C1427 1.387 . S
C1428 C1431 1.387 . S
H1429 C1425 0.950 . S
H1430 C1427 0.950 . S
C1431 C1422 1.390 . S
C1431 H1424 0.950 . S
C1431 C1428 1.387 . S
C1432 C1433 1.387 . S
C1432 H1436 0.950 . S
C1432 C1441 1.390 . S
C1433 C1432 1.387 . S
C1433 C1435 1.387 . S
H1434 C1441 0.950 . S
C1435 C1433 1.387 . S
C1435 C1437 1.390 . S
C1435 H1439 0.950 . S
H1436 C1432 0.950 . S
C1437 C1435 1.390 . S
C1437 C1438 1.387 . S
C1437 H1440 0.950 . S
C1438 C1437 1.387 . S
C1438 C1441 1.387 . S
H1439 C1435 0.950 . S
H1440 C1437 0.950 . S
C1441 C1432 1.390 . S
C1441 H1434 0.950 . S
C1441 C1438 1.387 . S
C1442 C1443 1.387 . S
C1442 H1446 0.950 . S
C1442 C1451 1.390 . S
C1443 C1442 1.387 . S
C1443 C1445 1.387 . S
H1444 C1451 0.950 . S
C1445 C1443 1.387 . S
C1445 C1447 1.390 . S
C1445 H1449 0.950 . S
H1446 C1442 0.950 . S
C1447 C1445 1.390 . S
C1447 C1448 1.387 . S
C1447 H1450 0.950 . S
C1448 C1447 1.387 . S
C1448 C1451 1.387 . S
H1449 C1445 0.950 . S
H1450 C1447 0.950 . S
C1451 C1442 1.390 . S
C1451 H1444 0.950 . S
C1451 C1448 1.387 . S
C1452 C1453 1.387 . S
C1452 H1456 0.950 . S
C1452 C1461 1.390 . S
C1453 C1452 1.387 . S
C1453 C1455 1.387 . S
H1454 C1461 0.950 . S
C1455 C1453 1.387 . S
C1455 C1457 1.390 . S
C1455 H1459 0.950 . S
H1456 C1452 0.950 . S
C1457 C1455 1.390 . S
C1457 C1458 1.387 . S
C1457 H1460 0.950 . S
C1458 C1457 1.387 . S
C1458 C1461 1.387 . S
H1459 C1455 0.950 . S
H1460 C1457 0.950 . S
C1461 C1452 1.390 . S
C1461 H1454 0.950 . S
C1461 C1458 1.387 . S
C1462 C1463 1.387 . S
C1462 H1466 0.950 . S
C1462 C1471 1.390 . S
C1463 C1462 1.387 . S
C1463 C1465 1.387 . S
H1464 C1471 0.950 . S
C1465 C1463 1.387 . S
C1465 C1467 1.390 . S
C1465 H1469 0.950 . S
H1466 C1462 0.950 . S
C1467 C1465 1.390 . S
C1467 C1468 1.387 . S
C1467 H1470 0.950 . S
C1468 C1467 1.387 . S
C1468 C1471 1.387 . S
H1469 C1465 0.950 . S
H1470 C1467 0.950 . S
C1471 C1462 1.390 . S
C1471 H1464 0.950 . S
C1471 C1468 1.387 . S
C1472 C1473 1.387 . S
C1472 H1476 0.950 . S
C1472 C1481 1.390 . S
C1473 C1472 1.387 . S
C1473 C1475 1.387 . S
H1474 C1481 0.950 . S
C1475 C1473 1.387 . S
C1475 C1477 1.390 . S
C1475 H1479 0.950 . S
H1476 C1472 0.950 . S
C1477 C1475 1.390 . S
C1477 C1478 1.387 . S
C1477 H1480 0.950 . S
C1478 C1477 1.387 . S
C1478 C1481 1.387 . S
H1479 C1475 0.950 . S
H1480 C1477 0.950 . S
C1481 C1472 1.390 . S
C1481 H1474 0.950 . S
C1481 C1478 1.387 . S
C1482 C1483 1.387 . S
C1482 H1486 0.950 . S
C1482 C1491 1.390 . S
C1483 C1482 1.387 . S
C1483 C1485 1.387 . S
H1484 C1491 0.950 . S
C1485 C1483 1.387 . S
C1485 C1487 1.390 . S
C1485 H1489 0.950 . S
H1486 C1482 0.950 . S
C1487 C1485 1.390 . S
C1487 C1488 1.387 . S
C1487 H1490 0.950 . S
C1488 C1487 1.387 . S
C1488 C1491 1.387 . S
H1489 C1485 0.950 . S
H1490 C1487 0.950 . S
C1491 C1482 1.390 . S
C1491 H1484 0.950 . S
C1491 C1488 1.387 . S
C1492 C1493 1.387 . S
C1492 H1496 0.950 . S
C1492 C1501 1.390 . S
C1493 C1492 1.387 . S
C1493 C1495 1.387 . S
H1494 C1501 0.950 . S
C1495 C1493 1.387 . S
C1495 C1497 1.390 . S
C1495 H1499 0.950 . S
H1496 C1492 0.950 . S
C1497 C1495 1.390 . S
C1497 C1498 1.387 . S
C1497 H1500 0.950 . S
C1498 C1497 1.387 . S
C1498 C1501 1.387 . S
H1499 C1495 0.950 . S
H1500 C1497 0.950 . S
C1501 C1492 1.390 . S
C1501 H1494 0.950 . S
C1501 C1498 1.387 . S
C1502 C1503 1.387 . S
C1502 H1506 0.950 . S
C1502 C1511 1.390 . S
C1503 C1502 1.387 . S
C1503 C1505 1.387 . S
H1504 C1511 0.950 . S
C1505 C1503 1.387 . S
C1505 C1507 1.390 . S
C1505 H1509 0.950 . S
H1506 C1502 0.950 . S
C1507 C1505 1.390 . S
C1507 C1508 1.387 . S
C1507 H1510 0.950 . S
C1508 C1507 1.387 . S
C1508 C1511 1.387 . S
H1509 C1505 0.950 . S
H1510 C1507 0.950 . S
C1511 C1502 1.390 . S
C1511 H1504 0.950 . S
C1511 C1508 1.387 . S
C1512 C1513 1.387 . S
C1512 H1516 0.950 . S
C1512 C1521 1.390 . S
C1513 C1512 1.387 . S
C1513 C1515 1.387 . S
H1514 C1521 0.950 . S
C1515 C1513 1.387 . S
C1515 C1517 1.390 . S
C1515 H1519 0.950 . S
H1516 C1512 0.950 . S
C1517 C1515 1.390 . S
C1517 C1518 1.387 . S
C1517 H1520 0.950 . S
C1518 C1517 1.387 . S
C1518 C1521 1.387 . S
H1519 C1515 0.950 . S
H1520 C1517 0.950 . S
C1521 C1512 1.390 . S
C1521 H1514 0.950 . S
C1521 C1518 1.387 . S
C1522 C1523 1.387 . S
C1522 H1526 0.950 . S
C1522 C1531 1.390 . S
C1523 C1522 1.387 . S
C1523 C1525 1.387 . S
H1524 C1531 0.950 . S
C1525 C1523 1.387 . S
C1525 C1527 1.390 . S
C1525 H1529 0.950 . S
H1526 C1522 0.950 . S
C1527 C1525 1.390 . S
C1527 C1528 1.387 . S
C1527 H1530 0.950 . S
C1528 C1527 1.387 . S
C1528 C1531 1.387 . S
H1529 C1525 0.950 . S
H1530 C1527 0.950 . S
C1531 C1522 1.390 . S
C1531 H1524 0.950 . S
C1531 C1528 1.387 . S
C1532 C1533 1.387 . S
C1532 H1536 0.950 . S
C1532 C1541 1.390 . S
C1533 C1532 1.387 . S
C1533 C1535 1.387 . S
H1534 C1541 0.950 . S
C1535 C1533 1.387 . S
C1535 C1537 1.390 . S
C1535 H1539 0.950 . S
H1536 C1532 0.950 . S
C1537 C1535 1.390 . S
C1537 C1538 1.387 . S
C1537 H1540 0.950 . S
C1538 C1537 1.387 . S
C1538 C1541 1.387 . S
H1539 C1535 0.950 . S
H1540 C1537 0.950 . S
C1541 C1532 1.390 . S
C1541 H1534 0.950 . S
C1541 C1538 1.387 . S
C1542 C1543 1.387 . S
C1542 H1546 0.950 . S
C1542 C1551 1.390 . S
C1543 C1542 1.387 . S
C1543 C1545 1.387 . S
H1544 C1551 0.950 . S
C1545 C1543 1.387 . S
C1545 C1547 1.390 . S
C1545 H1549 0.950 . S
H1546 C1542 0.950 . S
C1547 C1545 1.390 . S
C1547 C1548 1.387 . S
C1547 H1550 0.950 . S
C1548 C1547 1.387 . S
C1548 C1551 1.387 . S
H1549 C1545 0.950 . S
H1550 C1547 0.950 . S
C1551 C1542 1.390 . S
C1551 H1544 0.950 . S
C1551 C1548 1.387 . S
C1552 C1553 1.387 . S
C1552 H1556 0.950 . S
C1552 C1561 1.390 . S
C1553 C1552 1.387 . S
C1553 C1555 1.387 . S
H1554 C1561 0.950 . S
C1555 C1553 1.387 . S
C1555 C1557 1.390 . S
C1555 H1559 0.950 . S
H1556 C1552 0.950 . S
C1557 C1555 1.390 . S
C1557 C1558 1.387 . S
C1557 H1560 0.950 . S
C1558 C1557 1.387 . S
C1558 C1561 1.387 . S
H1559 C1555 0.950 . S
H1560 C1557 0.950 . S
C1561 C1552 1.390 . S
C1561 H1554 0.950 . S
C1561 C1558 1.387 . S
C1562 C1563 1.387 . S
C1562 H1566 0.950 . S
C1562 C1571 1.390 . S
C1563 C1562 1.387 . S
C1563 C1565 1.387 . S
H1564 C1571 0.950 . S
C1565 C1563 1.387 . S
C1565 C1567 1.390 . S
C1565 H1569 0.950 . S
H1566 C1562 0.950 . S
C1567 C1565 1.390 . S
C1567 C1568 1.387 . S
C1567 H1570 0.950 . S
C1568 C1567 1.387 . S
C1568 C1571 1.387 . S
H1569 C1565 0.950 . S
H1570 C1567 0.950 . S
C1571 C1562 1.390 . S
C1571 H1564 0.950 . S
C1571 C1568 1.387 . S
C1572 C1573 1.387 . S
C1572 H1576 0.950 . S
C1572 C1581 1.390 . S
C1573 C1572 1.387 . S
C1573 C1575 1.387 . S
H1574 C1581 0.950 . S
C1575 C1573 1.387 . S
C1575 C1577 1.390 . S
C1575 H1579 0.950 . S
H1576 C1572 0.950 . S
C1577 C1575 1.390 . S
C1577 C1578 1.387 . S
C1577 H1580 0.950 . S
C1578 C1577 1.387 . S
C1578 C1581 1.387 . S
H1579 C1575 0.950 . S
H1580 C1577 0.950 . S
C1581 C1572 1.390 . S
C1581 H1574 0.950 . S
C1581 C1578 1.387 . S
C1582 C1583 1.387 . S
C1582 H1586 0.950 . S
C1582 C1591 1.390 . S
C1583 C1582 1.387 . S
C1583 C1585 1.387 . S
H1584 C1591 0.950 . S
C1585 C1583 1.387 . S
C1585 C1587 1.390 . S
C1585 H1589 0.950 . S
H1586 C1582 0.950 . S
C1587 C1585 1.390 . S
C1587 C1588 1.387 . S
C1587 H1590 0.950 . S
C1588 C1587 1.387 . S
C1588 C1591 1.387 . S
H1589 C1585 0.950 . S
H1590 C1587 0.950 . S
C1591 C1582 1.390 . S
C1591 H1584 0.950 . S
C1591 C1588 1.387 . S
C1592 C1593 1.387 . S
C1592 H1596 0.950 . S
C1592 C1601 1.390 . S
C1593 C1592 1.387 . S
C1593 C1595 1.387 . S
H1594 C1601 0.950 . S
C1595 C1593 1.387 . S
C1595 C1597 1.390 . S
C1595 H1599 0.950 . S
H1596 C1592 0.950 . S
C1597 C1595 1.390 . S
C1597 C1598 1.387 . S
C1597 H1600 0.950 . S
C1598 C1597 1.387 . S
C1598 C1601 1.387 . S
H1599 C1595 0.950 . S
H1600 C1597 0.950 . S
C1601 C1592 1.390 . S
C1601 H1594 0.950 . S
C1601 C1598 1.387 . S
C1602 C1603 1.387 . S
C1602 H1606 0.950 . S
C1602 C1611 1.390 . S
C1603 C1602 1.387 . S
C1603 C1605 1.387 . S
H1604 C1611 0.950 . S
C1605 C1603 1.387 . S
C1605 C1607 1.390 . S
C1605 H1609 0.950 . S
H1606 C1602 0.950 . S
C1607 C1605 1.390 . S
C1607 C1608 1.387 . S
C1607 H1610 0.950 . S
C1608 C1607 1.387 . S
C1608 C1611 1.387 . S
H1609 C1605 0.950 . S
H1610 C1607 0.950 . S
C1611 C1602 1.390 . S
C1611 H1604 0.950 . S
C1611 C1608 1.387 . S
C1612 C1613 1.387 . S
C1612 H1616 0.950 . S
C1612 C1621 1.390 . S
C1613 C1612 1.387 . S
C1613 C1615 1.387 . S
H1614 C1621 0.950 . S
C1615 C1613 1.387 . S
C1615 C1617 1.390 . S
C1615 H1619 0.950 . S
H1616 C1612 0.950 . S
C1617 C1615 1.390 . S
C1617 C1618 1.387 . S
C1617 H1620 0.950 . S
C1618 C1617 1.387 . S
C1618 C1621 1.387 . S
H1619 C1615 0.950 . S
H1620 C1617 0.950 . S
C1621 C1612 1.390 . S
C1621 H1614 0.950 . S
C1621 C1618 1.387 . S
C1622 C1623 1.387 . S
C1622 H1626 0.950 . S
C1622 C1631 1.390 . S
C1623 C1622 1.387 . S
C1623 C1625 1.387 . S
H1624 C1631 0.950 . S
C1625 C1623 1.387 . S
C1625 C1627 1.390 . S
C1625 H1629 0.950 . S
H1626 C1622 0.950 . S
C1627 C1625 1.390 . S
C1627 C1628 1.387 . S
C1627 H1630 0.950 . S
C1628 C1627 1.387 . S
C1628 C1631 1.387 . S
H1629 C1625 0.950 . S
H1630 C1627 0.950 . S
C1631 C1622 1.390 . S
C1631 H1624 0.950 . S
C1631 C1628 1.387 . S
C1632 C1633 1.387 . S
C1632 H1636 0.950 . S
C1632 C1641 1.390 . S
C1633 C1632 1.387 . S
C1633 C1635 1.387 . S
H1634 C1641 0.950 . S
C1635 C1633 1.387 . S
C1635 C1637 1.390 . S
C1635 H1639 0.950 . S
H1636 C1632 0.950 . S
C1637 C1635 1.390 . S
C1637 C1638 1.387 . S
C1637 H1640 0.950 . S
C1638 C1637 1.387 . S
C1638 C1641 1.387 . S
H1639 C1635 0.950 . S
H1640 C1637 0.950 . S
C1641 C1632 1.390 . S
C1641 H1634 0.950 . S
C1641 C1638 1.387 . S
C1642 C1643 1.387 . S
C1642 H1646 0.950 . S
C1642 C1651 1.390 . S
C1643 C1642 1.387 . S
C1643 C1645 1.387 . S
H1644 C1651 0.950 . S
C1645 C1643 1.387 . S
C1645 C1647 1.390 . S
C1645 H1649 0.950 . S
H1646 C1642 0.950 . S
C1647 C1645 1.390 . S
C1647 C1648 1.387 . S
C1647 H1650 0.950 . S
C1648 C1647 1.387 . S
C1648 C1651 1.387 . S
H1649 C1645 0.950 . S
H1650 C1647 0.950 . S
C1651 C1642 1.390 . S
C1651 H1644 0.950 . S
C1651 C1648 1.387 . S
C1652 C1653 1.387 . S
C1652 H1656 0.950 . S
C1652 C1661 1.390 . S
C1653 C1652 1.387 . S
C1653 C1655 1.387 . S
H1654 C1661 0.950 . S
C1655 C1653 1.387 . S
C1655 C1657 1.390 . S
C1655 H1659 0.950 . S
H1656 C1652 0.950 . S
C1657 C1655 1.390 . S
C1657 C1658 1.387 . S
C1657 H1660 0.950 . S
C1658 C1657 1.387 . S
C1658 C1661 1.387 . S
H1659 C1655 0.950 . S
H1660 C1657 0.950 . S
C1661 C1652 1.390 . S
C1661 H1654 0.950 . S
C1661 C1658 1.387 . S
C1662 C1663 1.387 . S
C1662 H1666 0.950 . S
C1662 C1671 1.390 1_556 S
C1663 C1662 1.387 . S
C1663 C1665 1.387 . S
H1664 C1671 0.950 . S
C1665 C1663 1.387 . S
C1665 C1667 1.390 1_556 S
C1665 H1669 0.950 . S
H1666 C1662 0.950 . S
C1667 C1665 1.390 1_554 S
C1667 C1668 1.387 . S
C1667 H1670 0.950 . S
C1668 C1667 1.387 . S
C1668 C1671 1.387 . S
H1669 C1665 0.950 . S
H1670 C1667 0.950 . S
C1671 C1662 1.390 1_554 S
C1671 H1664 0.950 . S
C1671 C1668 1.387 . S
C1672 C1673 1.387 . S
C1672 H1676 0.950 . S
C1672 C1681 1.390 . S
C1673 C1672 1.387 . S
C1673 C1675 1.387 . S
H1674 C1681 0.950 . S
C1675 C1673 1.387 . S
C1675 C1677 1.390 . S
C1675 H1679 0.950 . S
H1676 C1672 0.950 . S
C1677 C1675 1.390 . S
C1677 C1678 1.387 . S
C1677 H1680 0.950 . S
C1678 C1677 1.387 . S
C1678 C1681 1.387 . S
H1679 C1675 0.950 . S
H1680 C1677 0.950 . S
C1681 C1672 1.390 . S
C1681 H1674 0.950 . S
C1681 C1678 1.387 . S
C1682 C1683 1.387 . S
C1682 H1686 0.950 . S
C1682 C1691 1.390 . S
C1683 C1682 1.387 . S
C1683 C1685 1.387 . S
H1684 C1691 0.950 . S
C1685 C1683 1.387 . S
C1685 C1687 1.390 . S
C1685 H1689 0.950 . S
H1686 C1682 0.950 . S
C1687 C1685 1.390 . S
C1687 C1688 1.387 . S
C1687 H1690 0.950 . S
C1688 C1687 1.387 . S
C1688 C1691 1.387 . S
H1689 C1685 0.950 . S
H1690 C1687 0.950 . S
C1691 C1682 1.390 . S
C1691 H1684 0.950 . S
C1691 C1688 1.387 . S
C1692 C1693 1.387 . S
C1692 H1696 0.950 . S
C1692 C1701 1.390 . S
C1693 C1692 1.387 . S
C1693 C1695 1.387 . S
H1694 C1701 0.950 . S
C1695 C1693 1.387 . S
C1695 C1697 1.390 . S
C1695 H1699 0.950 . S
H1696 C1692 0.950 . S
C1697 C1695 1.390 . S
C1697 C1698 1.387 . S
C1697 H1700 0.950 . S
C1698 C1697 1.387 . S
C1698 C1701 1.387 . S
H1699 C1695 0.950 . S
H1700 C1697 0.950 . S
C1701 C1692 1.390 . S
C1701 H1694 0.950 . S
C1701 C1698 1.387 . S
C1702 C1703 1.387 . S
C1702 H1706 0.950 . S
C1702 C1711 1.390 1_554 S
C1703 C1702 1.387 . S
C1703 C1705 1.387 . S
H1704 C1711 0.950 . S
C1705 C1703 1.387 . S
C1705 C1707 1.390 1_554 S
C1705 H1709 0.950 . S
H1706 C1702 0.950 . S
C1707 C1705 1.390 1_556 S
C1707 C1708 1.387 . S
C1707 H1710 0.950 . S
C1708 C1707 1.387 . S
C1708 C1711 1.387 . S
H1709 C1705 0.950 . S
H1710 C1707 0.950 . S
C1711 C1702 1.390 1_556 S
C1711 H1704 0.950 . S
C1711 C1708 1.387 . S
C1712 C1713 1.387 . S
C1712 H1716 0.950 . S
C1712 C1721 1.390 1_565 S
C1713 C1712 1.387 . S
C1713 C1715 1.387 . S
H1714 C1721 0.950 . S
C1715 C1713 1.387 . S
C1715 C1717 1.390 1_565 S
C1715 H1719 0.950 . S
H1716 C1712 0.950 . S
C1717 C1715 1.390 1_545 S
C1717 C1718 1.387 . S
C1717 H1720 0.950 . S
C1718 C1717 1.387 . S
C1718 C1721 1.387 . S
H1719 C1715 0.950 . S
H1720 C1717 0.950 . S
C1721 C1712 1.390 1_545 S
C1721 H1714 0.950 . S
C1721 C1718 1.387 . S
C1722 C1723 1.387 . S
C1722 H1726 0.950 . S
C1722 C1731 1.390 1_554 S
C1723 C1722 1.387 . S
C1723 C1725 1.387 . S
H1724 C1731 0.950 . S
C1725 C1723 1.387 . S
C1725 C1727 1.390 1_554 S
C1725 H1729 0.950 . S
H1726 C1722 0.950 . S
C1727 C1725 1.390 1_556 S
C1727 C1728 1.387 . S
C1727 H1730 0.950 . S
C1728 C1727 1.387 . S
C1728 C1731 1.387 . S
H1729 C1725 0.950 . S
H1730 C1727 0.950 . S
C1731 C1722 1.390 1_556 S
C1731 H1724 0.950 . S
C1731 C1728 1.387 . S
C1732 C1733 1.387 . S
C1732 H1736 0.950 . S
C1732 C1741 1.390 1_545 S
C1733 C1732 1.387 . S
C1733 C1735 1.387 . S
H1734 C1741 0.950 . S
C1735 C1733 1.387 . S
C1735 C1737 1.390 1_545 S
C1735 H1739 0.950 . S
H1736 C1732 0.950 . S
C1737 C1735 1.390 1_565 S
C1737 C1738 1.387 . S
C1737 H1740 0.950 . S
C1738 C1737 1.387 . S
C1738 C1741 1.387 . S
H1739 C1735 0.950 . S
H1740 C1737 0.950 . S
C1741 C1732 1.390 1_565 S
C1741 H1734 0.950 . S
C1741 C1738 1.387 . S
C1742 C1743 1.387 . S
C1742 H1746 0.950 . S
C1742 C1751 1.390 . S
C1743 C1742 1.387 . S
C1743 C1745 1.387 . S
H1744 C1751 0.950 . S
C1745 C1743 1.387 . S
C1745 C1747 1.390 . S
C1745 H1749 0.950 . S
H1746 C1742 0.950 . S
C1747 C1745 1.390 . S
C1747 C1748 1.387 . S
C1747 H1750 0.950 . S
C1748 C1747 1.387 . S
C1748 C1751 1.387 . S
H1749 C1745 0.950 . S
H1750 C1747 0.950 . S
C1751 C1742 1.390 . S
C1751 H1744 0.950 . S
C1751 C1748 1.387 . S
C1752 C1753 1.387 . S
C1752 H1756 0.950 . S
C1752 C1761 1.390 1_545 S
C1753 C1752 1.387 . S
C1753 C1755 1.387 . S
H1754 C1761 0.950 . S
C1755 C1753 1.387 . S
C1755 C1757 1.390 1_545 S
C1755 H1759 0.950 . S
H1756 C1752 0.950 . S
C1757 C1755 1.390 1_565 S
C1757 C1758 1.387 . S
C1757 H1760 0.950 . S
C1758 C1757 1.387 . S
C1758 C1761 1.387 . S
H1759 C1755 0.950 . S
H1760 C1757 0.950 . S
C1761 C1752 1.390 1_565 S
C1761 H1754 0.950 . S
C1761 C1758 1.387 . S
C1762 C1763 1.387 . S
C1762 H1766 0.950 . S
C1762 C1771 1.390 1_554 S
C1763 C1762 1.387 . S
C1763 C1765 1.387 . S
H1764 C1771 0.950 . S
C1765 C1763 1.387 . S
C1765 C1767 1.390 1_554 S
C1765 H1769 0.950 . S
H1766 C1762 0.950 . S
C1767 C1765 1.390 1_556 S
C1767 C1768 1.387 . S
C1767 H1770 0.950 . S
C1768 C1767 1.387 . S
C1768 C1771 1.387 . S
H1769 C1765 0.950 . S
H1770 C1767 0.950 . S
C1771 C1762 1.390 1_556 S
C1771 H1764 0.950 . S
C1771 C1768 1.387 . S
C1772 C1773 1.387 . S
C1772 H1776 0.950 . S
C1772 C1781 1.390 1_545 S
C1773 C1772 1.387 . S
C1773 C1775 1.387 . S
H1774 C1781 0.950 . S
C1775 C1773 1.387 . S
C1775 C1777 1.390 1_545 S
C1775 H1779 0.950 . S
H1776 C1772 0.950 . S
C1777 C1775 1.390 1_565 S
C1777 C1778 1.387 . S
C1777 H1780 0.950 . S
C1778 C1777 1.387 . S
C1778 C1781 1.387 . S
H1779 C1775 0.950 . S
H1780 C1777 0.950 . S
C1781 C1772 1.390 1_565 S
C1781 H1774 0.950 . S
C1781 C1778 1.387 . S
C1782 C1783 1.387 . S
C1782 H1786 0.950 . S
C1782 C1791 1.390 . S
C1783 C1782 1.387 . S
C1783 C1785 1.387 . S
H1784 C1791 0.950 . S
C1785 C1783 1.387 . S
C1785 C1787 1.390 . S
C1785 H1789 0.950 . S
H1786 C1782 0.950 . S
C1787 C1785 1.390 . S
C1787 C1788 1.387 . S
C1787 H1790 0.950 . S
C1788 C1787 1.387 . S
C1788 C1791 1.387 . S
H1789 C1785 0.950 . S
H1790 C1787 0.950 . S
C1791 C1782 1.390 . S
C1791 H1784 0.950 . S
C1791 C1788 1.387 . S
C1153 C14 1.278 . S
C1158 C760 1.305 . S
C1163 C806 1.279 . S
C1168 C40 1.304 . S
C1173 C86 1.278 . S
C1178 C832 1.305 . S
C1183 C734 1.278 . S
C1188 C112 1.305 . S
C1193 C158 1.280 . S
C1198 C688 1.304 . S
C1203 C184 1.304 . S
C1208 C590 1.280 . S
C1213 C616 1.305 . S
C1218 C230 1.278 . S
C1223 C256 1.305 . S
C1228 C662 1.279 . S
C1233 C302 1.400 . S
C1238 C1058 1.398 . S
C1243 C338 1.399 . S
C1248 C1094 1.401 . S
C1253 C1130 1.400 . S
C1258 C374 1.402 . S
C1263 C1022 1.401 . S
C1268 C410 1.398 . S
C1273 C446 1.401 . S
C1278 C986 1.398 . S
C1283 C878 1.401 . S
C1288 C482 1.398 . S
C1293 C518 1.401 . S
C1298 C914 1.398 . S
C1303 C950 1.402 . S
C1308 C554 1.399 . S
C1313 C3 1.465 . S
C1318 C326 1.492 . S
C1323 C38 1.399 . S
C1328 C938 1.469 1_655 S
C1333 C398 1.492 . S
C1338 C75 1.464 . S
C1343 C110 1.399 . S
C1348 C866 1.469 . S
C1353 C147 1.463 . S
C1358 C542 1.493 . S
C1363 C1010 1.469 . S
C1368 C182 1.399 . S
C1373 C470 1.493 . S
C1378 C219 1.464 . S
C1383 C1082 1.467 1_655 S
C1388 C254 1.402 . S
C1393 C291 1.334 . S
C1398 C39 1.346 . S
C1403 C650 1.312 1_455 S
C1408 C327 1.300 . S
C1413 C111 1.346 . S
C1418 C363 1.333 . S
C1423 C399 1.298 . S
C1428 C578 1.313 . S
C1433 C255 1.347 . S
C1438 C435 1.333 . S
C1443 C722 1.313 . S
C1448 C471 1.300 . S
C1453 C183 1.347 . S
C1458 C507 1.332 . S
C1463 C543 1.298 . S
C1468 C794 1.314 1_455 S
C1473 C902 1.493 . S
C1478 C579 1.464 . S
C1483 C362 1.467 . S
C1488 C614 1.402 . S
C1493 C974 1.493 . S
C1498 C651 1.463 . S
C1503 C686 1.399 . S
C1508 C290 1.469 1_455 S
C1513 C1118 1.492 . S
C1518 C723 1.464 . S
C1523 C434 1.467 1_455 S
C1528 C758 1.401 . S
C1533 C1046 1.492 . S
C1538 C795 1.465 . S
C1543 C830 1.399 . S
C1548 C506 1.469 . S
C1553 C867 1.334 . S
C1558 C615 1.346 . S
C1563 C74 1.314 . S
C1568 C903 1.298 . S
C1573 C939 1.334 . S
C1578 C687 1.347 . S
C1583 C975 1.300 . S
C1588 C2 1.312 1_655 S
C1593 C1011 1.332 . S
C1598 C831 1.347 . S
C1603 C146 1.314 1_655 S
C1608 C1047 1.298 . S
C1613 C759 1.347 . S
C1618 C1083 1.332 . S
C1623 C1119 1.298 . S
C1628 C218 1.314 . S
C1633 C4 1.413 . S
C1638 C148 1.413 . S
C1643 C50 1.357 . S
C1648 C194 1.357 . S
C1653 C220 1.413 . S
C1658 C76 1.413 . S
C1663 C266 1.362 . S
C1668 C122 1.362 . S
C1673 C436 1.321 . S
C1678 C292 1.321 . S
C1683 C472 1.347 . S
C1688 C328 1.347 . S
C1693 C508 1.324 . S
C1698 C364 1.324 . S
C1703 C544 1.347 . S
C1708 C400 1.347 . S
C1713 C580 1.416 . S
C1718 C724 1.416 . S
C1723 C626 1.357 . S
C1728 C770 1.357 . S
C1733 C652 1.413 . S
C1738 C796 1.413 . S
C1743 C842 1.357 . S
C1748 C698 1.357 . S
C1753 C868 1.325 . S
C1758 C1012 1.325 . S
C1763 C1048 1.351 . S
C1768 C904 1.351 . S
C1773 C1084 1.321 . S
C1778 C940 1.321 . S
C1783 C1120 1.347 . S
C1788 C976 1.347 . S
