# Generated by pormake.
# Topology und, (4)-cn, num edge types: 1
# Building blocks:
#     Node 0, Type 0, BuildingBlock: QUQFOY_clean_sbu_3, # of connection points: 4
#     Node 1, Type 0, BuildingBlock: QUQFOY_clean_sbu_3, # of connection points: 4
#     Node 2, Type 0, BuildingBlock: QUQFOY_clean_sbu_3, # of connection points: 4
#     Node 3, Type 0, BuildingBlock: QUQFOY_clean_sbu_3, # of connection points: 4
#     Node 4, Type 0, BuildingBlock: QUQFOY_clean_sbu_3, # of connection points: 4
#     Node 5, Type 0, BuildingBlock: QUQFOY_clean_sbu_3, # of connection points: 4
#     Node 6, Type 0, BuildingBlock: QUQFOY_clean_sbu_3, # of connection points: 4
#     Node 7, Type 0, BuildingBlock: QUQFOY_clean_sbu_3, # of connection points: 4
#     Node 8, Type 0, BuildingBlock: QUQFOY_clean_sbu_3, # of connection points: 4
#     Node 9, Type 0, BuildingBlock: QUQFOY_clean_sbu_3, # of connection points: 4
#     Node 10, Type 0, BuildingBlock: QUQFOY_clean_sbu_3, # of connection points: 4
#     Node 11, Type 0, BuildingBlock: QUQFOY_clean_sbu_3, # of connection points: 4
#     Node 12, Type 0, BuildingBlock: QUQFOY_clean_sbu_3, # of connection points: 4
#     Node 13, Type 0, BuildingBlock: QUQFOY_clean_sbu_3, # of connection points: 4
#     Node 14, Type 0, BuildingBlock: QUQFOY_clean_sbu_3, # of connection points: 4
#     Node 15, Type 0, BuildingBlock: QUQFOY_clean_sbu_3, # of connection points: 4
#     Edge 16, Type (0, 0), BuildingBlock: AJUNOK_clean_linker_0, # of connection points: 2
#     Edge 17, Type (0, 0), BuildingBlock: AJUNOK_clean_linker_0, # of connection points: 2
#     Edge 18, Type (0, 0), BuildingBlock: AJUNOK_clean_linker_0, # of connection points: 2
#     Edge 19, Type (0, 0), BuildingBlock: AJUNOK_clean_linker_0, # of connection points: 2
#     Edge 20, Type (0, 0), BuildingBlock: AJUNOK_clean_linker_0, # of connection points: 2
#     Edge 21, Type (0, 0), BuildingBlock: AJUNOK_clean_linker_0, # of connection points: 2
#     Edge 22, Type (0, 0), BuildingBlock: AJUNOK_clean_linker_0, # of connection points: 2
#     Edge 23, Type (0, 0), BuildingBlock: AJUNOK_clean_linker_0, # of connection points: 2
#     Edge 24, Type (0, 0), BuildingBlock: AJUNOK_clean_linker_0, # of connection points: 2
#     Edge 25, Type (0, 0), BuildingBlock: AJUNOK_clean_linker_0, # of connection points: 2
#     Edge 26, Type (0, 0), BuildingBlock: AJUNOK_clean_linker_0, # of connection points: 2
#     Edge 27, Type (0, 0), BuildingBlock: AJUNOK_clean_linker_0, # of connection points: 2
#     Edge 28, Type (0, 0), BuildingBlock: AJUNOK_clean_linker_0, # of connection points: 2
#     Edge 29, Type (0, 0), BuildingBlock: AJUNOK_clean_linker_0, # of connection points: 2
#     Edge 30, Type (0, 0), BuildingBlock: AJUNOK_clean_linker_0, # of connection points: 2
#     Edge 31, Type (0, 0), BuildingBlock: AJUNOK_clean_linker_0, # of connection points: 2
#     Edge 32, Type (0, 0), BuildingBlock: AJUNOK_clean_linker_0, # of connection points: 2
#     Edge 33, Type (0, 0), BuildingBlock: AJUNOK_clean_linker_0, # of connection points: 2
#     Edge 34, Type (0, 0), BuildingBlock: AJUNOK_clean_linker_0, # of connection points: 2
#     Edge 35, Type (0, 0), BuildingBlock: AJUNOK_clean_linker_0, # of connection points: 2
#     Edge 36, Type (0, 0), BuildingBlock: AJUNOK_clean_linker_0, # of connection points: 2
#     Edge 37, Type (0, 0), BuildingBlock: AJUNOK_clean_linker_0, # of connection points: 2
#     Edge 38, Type (0, 0), BuildingBlock: AJUNOK_clean_linker_0, # of connection points: 2
#     Edge 39, Type (0, 0), BuildingBlock: AJUNOK_clean_linker_0, # of connection points: 2
#     Edge 40, Type (0, 0), BuildingBlock: AJUNOK_clean_linker_0, # of connection points: 2
#     Edge 41, Type (0, 0), BuildingBlock: AJUNOK_clean_linker_0, # of connection points: 2
#     Edge 42, Type (0, 0), BuildingBlock: AJUNOK_clean_linker_0, # of connection points: 2
#     Edge 43, Type (0, 0), BuildingBlock: AJUNOK_clean_linker_0, # of connection points: 2
#     Edge 44, Type (0, 0), BuildingBlock: AJUNOK_clean_linker_0, # of connection points: 2
#     Edge 45, Type (0, 0), BuildingBlock: AJUNOK_clean_linker_0, # of connection points: 2
#     Edge 46, Type (0, 0), BuildingBlock: AJUNOK_clean_linker_0, # of connection points: 2
#     Edge 47, Type (0, 0), BuildingBlock: AJUNOK_clean_linker_0, # of connection points: 2
# Relax obj value: 0.006
# Max RMSD: 0.045
# Mean RMSD: 0.045
data_MOF--net-und--node1-QUQFOY_clean_sbu_3--edge1-AJUNOK_clean_linker_0
_symmetry_space_group_name_H-M    P1
_symmetry_Int_Tables_number       1
_symmetry_cell_setting            triclinic
loop_
_symmetry_equiv_pos_as_xyz
'x, y, z'
_cell_length_a     46.000899
_cell_length_b     46.095726
_cell_length_c     17.038568
_cell_angle_alpha  89.768263
_cell_angle_beta   89.966814
_cell_angle_gamma 95.987997
loop_
_atom_site_label
_atom_site_type_symbol
_atom_site_fract_x
_atom_site_fract_y
_atom_site_fract_z
_atom_type_partial_charge
C0 C 0.25786 0.30694 0.15638 0.0
O1 O 0.28464 0.31148 0.13724 0.0
Cd2 Cd 0.29736 0.33817 0.01694 0.0
O3 O 0.23874 0.3186 0.11741 0.0
Cd4 Cd 0.2307 0.35173 0.01276 0.0
C5 C 0.24794 0.29849 0.89652 0.0
O6 O 0.27626 0.38366 0.0099 0.0
O7 O 0.2463 0.38569 0.91163 0.0
O8 O 0.20536 0.37387 0.11444 0.0
C9 C 0.2701 0.3951 0.94461 0.0
O10 O 0.27417 0.30577 0.91817 0.0
C11 C 0.18183 0.37493 0.07629 0.0
O12 O 0.22686 0.31104 0.92446 0.0
O13 O 0.18091 0.36507 0.00655 0.0
C14 C 0.93505 -0.01008 0.10814 0.0
O15 O 0.92848 0.96333 0.12668 0.0
Cd16 Cd 0.89991 0.95203 0.2441 0.0
O17 O 0.92462 0.00982 0.14677 0.0
Cd18 Cd 0.89199 0.02001 0.25064 0.0
C19 C 0.9425 -0.00276 0.36837 0.0
O20 O 0.85671 0.97739 0.24362 0.0
O21 O 0.85626 0.00367 0.34872 0.0
O22 O 0.87452 0.05048 0.15219 0.0
C23 C 0.84504 0.98201 0.30945 0.0
O24 O 0.93326 0.97138 0.34747 0.0
C25 C 0.8754 0.07318 0.19431 0.0
O26 O 0.93193 0.01923 0.33902 0.0
O27 O 0.88394 0.07114 0.26494 0.0
C28 C 0.2235 0.72189 0.64007 0.0
O29 O 0.19729 0.71423 0.61969 0.0
Cd30 Cd 0.1862 0.682 0.51062 0.0
O31 O 0.2444 0.71033 0.60834 0.0
Cd32 Cd 0.25494 0.6736 0.51414 0.0
C33 C 0.23408 0.71961 0.38046 0.0
O34 O 0.21144 0.63957 0.52426 0.0
O35 O 0.23823 0.63625 0.42092 0.0
O36 O 0.28447 0.6564 0.61579 0.0
C37 C 0.21592 0.62657 0.46047 0.0
O38 O 0.20798 0.71118 0.4018 0.0
C39 C 0.30724 0.65578 0.57401 0.0
O40 O 0.25584 0.71036 0.41492 0.0
O41 O 0.30578 0.66383 0.50276 0.0
C42 C 0.53319 0.02654 0.6194 0.0
O43 O 0.54135 0.05326 0.63227 0.0
Cd44 Cd 0.57102 0.06554 0.74725 0.0
O45 O 0.54361 0.00702 0.65989 0.0
Cd46 Cd 0.57798 -0.00251 0.76032 0.0
C47 C 0.52894 0.02225 0.87896 0.0
O48 O 0.61391 0.03984 0.75299 0.0
O49 O 0.61281 0.01363 0.85924 0.0
O50 O 0.59609 0.96759 0.66177 0.0
C51 C 0.62446 0.03535 0.82051 0.0
O52 O 0.5383 0.04757 0.8536 0.0
C53 C 0.59535 0.94472 0.70371 0.0
O54 O 0.53878 -0.00048 0.85175 0.0
O55 O 0.58637 0.94632 0.77409 0.0
C56 C 0.72742 0.72101 0.89976 0.0
O57 O 0.7008 0.71302 0.91575 0.0
Cd58 Cd 0.68857 0.67901 0.02195 0.0
O59 O 0.74753 0.70861 0.93259 0.0
Cd60 Cd 0.7575 0.67009 0.02146 0.0
C61 C 0.73545 0.7139 0.15887 0.0
O62 O 0.71375 0.63643 0.00911 0.0
O63 O 0.74125 0.63133 0.11038 0.0
O64 O 0.78556 0.65432 0.91506 0.0
C65 C 0.71839 0.62271 0.07204 0.0
O66 O 0.70964 0.70628 0.13407 0.0
C67 C 0.80876 0.65269 0.95432 0.0
O68 O 0.75763 0.70504 0.12545 0.0
O69 O 0.80829 0.65964 0.02649 0.0
C70 C 0.02465 0.02267 0.87505 0.0
O71 O 0.03283 0.04899 0.85681 0.0
Cd72 Cd 0.06606 0.06026 0.74883 0.0
O73 O 0.03615 0.00203 0.84222 0.0
Cd74 Cd 0.07324 -0.00901 0.75009 0.0
C75 C 0.02912 0.01363 0.61473 0.0
O76 O 0.10786 0.03394 0.76007 0.0
O77 O 0.11118 0.0069 0.65739 0.0
O78 O 0.08926 0.96265 0.85567 0.0
C79 C 0.12067 0.02941 0.69582 0.0
O80 O 0.03774 0.03929 0.63833 0.0
C81 C 0.08997 0.93936 0.81663 0.0
O82 O 0.03724 -0.00878 0.64881 0.0
O83 O 0.08255 0.93996 0.74474 0.0
C84 C 0.75436 0.30316 0.3748 0.0
O85 O 0.78127 0.30977 0.38967 0.0
Cd86 Cd 0.79356 0.33946 0.50407 0.0
O87 O 0.73523 0.31541 0.41194 0.0
Cd88 Cd 0.72812 0.35223 0.5074 0.0
C89 C 0.74499 0.30192 0.63209 0.0
O90 O 0.77284 0.38529 0.50342 0.0
O91 O 0.74605 0.38531 0.60844 0.0
O92 O 0.70184 0.3727 0.40423 0.0
C93 C 0.76829 0.39616 0.57036 0.0
O94 O 0.77127 0.30909 0.61012 0.0
C95 C 0.67856 0.37408 0.44336 0.0
O96 O 0.72387 0.31342 0.60085 0.0
O97 O 0.6784 0.36554 0.51451 0.0
C98 C 0.44366 -0.00588 0.38583 0.0
O99 O 0.43581 0.96785 0.36714 0.0
Cd100 Cd 0.40451 0.95738 0.25552 0.0
O101 O 0.43229 0.01476 0.35212 0.0
Cd102 Cd 0.39473 0.02397 0.2584 0.0
C103 C 0.44168 0.00571 0.12549 0.0
O104 O 0.36042 0.98041 0.26702 0.0
O105 O 0.35858 0.00702 0.16235 0.0
O106 O 0.37646 0.05041 0.36426 0.0
C107 C 0.3478 0.98535 0.20271 0.0
O108 O 0.43385 0.9796 0.14763 0.0
C109 C 0.37412 0.07358 0.32545 0.0
O110 O 0.43181 0.02719 0.15926 0.0
O111 O 0.38172 0.07388 0.25358 0.0
C112 C 0.75683 0.81057 0.66369 0.0
O113 O 0.78298 0.81963 0.64548 0.0
Cd114 Cd 0.79263 0.84701 0.52591 0.0
O115 O 0.73574 0.81875 0.62438 0.0
Cd116 Cd 0.72314 0.85038 0.51917 0.0
C117 C 0.74887 0.8008 0.4048 0.0
O118 O 0.76426 0.88765 0.52086 0.0
O119 O 0.73748 0.88478 0.41607 0.0
O120 O 0.69331 0.86746 0.61942 0.0
C121 C 0.75911 0.89742 0.45294 0.0
O122 O 0.77414 0.81177 0.42654 0.0
C123 C 0.67019 0.86666 0.57867 0.0
O124 O 0.72581 0.80995 0.43256 0.0
O125 O 0.67152 0.85816 0.50788 0.0
C126 C 0.44674 0.49577 0.63356 0.0
O127 O 0.44137 0.46898 0.65196 0.0
Cd128 Cd 0.40785 0.45397 0.75817 0.0
O129 O 0.4334 0.51489 0.66745 0.0
Cd130 Cd 0.39684 0.52474 0.76127 0.0
C131 C 0.44096 0.50049 0.89818 0.0
O132 O 0.36612 0.48012 0.7426 0.0
O133 O 0.35303 0.50838 0.83449 0.0
O134 O 0.3843 0.55623 0.65802 0.0
C135 C 0.34872 0.4844 0.79812 0.0
O136 O 0.43452 0.47486 0.87136 0.0
C137 C 0.38253 0.57829 0.70142 0.0
O138 O 0.43113 0.52255 0.86656 0.0
O139 O 0.38757 0.57542 0.77433 0.0
C140 C 0.71917 0.21477 0.1414 0.0
O141 O 0.69266 0.20665 0.12497 0.0
Cd142 Cd 0.68108 0.17577 0.01289 0.0
O143 O 0.73953 0.20421 0.10454 0.0
Cd144 Cd 0.74941 0.16877 0.00692 0.0
C145 C 0.72586 0.21536 0.87936 0.0
O146 O 0.70698 0.13334 0.01902 0.0
O147 O 0.73282 0.13175 0.91306 0.0
O148 O 0.77929 0.15287 0.10891 0.0
C149 C 0.71134 0.12095 0.95415 0.0
O150 O 0.70025 0.20643 0.90354 0.0
C151 C 0.80205 0.1522 0.06721 0.0
O152 O 0.74835 0.20625 0.91047 0.0
O153 O 0.80039 0.15924 -0.00483 0.0
C154 C 0.0388 0.53186 0.10465 0.0
O155 O 0.04393 0.55852 0.12339 0.0
Cd156 Cd 0.07057 0.57061 0.24306 0.0
O157 O 0.05013 0.51252 0.14373 0.0
Cd158 Cd 0.0836 0.50592 0.24948 0.0
C159 C 0.03032 0.52254 0.36569 0.0
O160 O 0.11693 0.55063 0.25009 0.0
O161 O 0.11412 0.52407 0.35583 0.0
O162 O 0.10689 0.47802 0.15509 0.0
C163 C 0.12626 0.54599 0.31887 0.0
O164 O 0.03785 0.54888 0.34516 0.0
C165 C 0.10728 0.45552 0.19805 0.0
O166 O 0.0425 0.50173 0.33557 0.0
O167 O 0.0966 0.45644 0.26675 0.0
C168 C 0.21777 0.21913 0.388 0.0
O169 O 0.19104 0.21318 0.40603 0.0
Cd170 Cd 0.17751 0.18012 0.51362 0.0
O171 O 0.2371 0.20566 0.42097 0.0
Cd172 Cd 0.24278 0.16726 0.51448 0.0
C173 C 0.22418 0.21314 0.6505 0.0
O174 O 0.1981 0.13426 0.50283 0.0
O175 O 0.22406 0.13135 0.60832 0.0
O176 O 0.27165 0.14811 0.4144 0.0
C177 C 0.20243 0.12124 0.56715 0.0
O178 O 0.19794 0.20686 0.62745 0.0
C179 C 0.29398 0.14636 0.45715 0.0
O180 O 0.24535 0.20301 0.61571 0.0
O181 O 0.29252 0.1545 0.52815 0.0
C182 C 0.53513 0.53158 0.39947 0.0
O183 O 0.54166 0.55791 0.37863 0.0
Cd184 Cd 0.56998 0.56843 0.26159 0.0
O185 O 0.54605 0.51119 0.3638 0.0
Cd186 Cd 0.58021 0.50246 0.26068 0.0
C187 C 0.5286 0.52071 0.14116 0.0
O188 O 0.61467 0.54575 0.2665 0.0
O189 O 0.6139 0.52079 0.15883 0.0
O190 O 0.60034 0.47352 0.35888 0.0
C191 C 0.62601 0.54145 0.2001 0.0
O192 O 0.53714 0.54696 0.15991 0.0
C193 C 0.60165 0.45127 0.31602 0.0
O194 O 0.53994 0.49952 0.17241 0.0
O195 O 0.59258 0.45266 0.24574 0.0
C196 C 0.25425 0.81205 0.87131 0.0
O197 O 0.28082 0.82006 0.88745 0.0
Cd198 Cd 0.29187 0.84977 0.00248 0.0
O199 O 0.23401 0.82161 0.91084 0.0
Cd200 Cd 0.222 0.85404 0.01312 0.0
C201 C 0.24886 0.80649 0.13289 0.0
O202 O 0.26348 0.89061 0.0039 0.0
O203 O 0.23677 0.89079 0.10872 0.0
O204 O 0.19097 0.8685 0.91227 0.0
C205 C 0.25877 0.90189 0.07011 0.0
O206 O 0.27405 0.81675 0.10838 0.0
C207 C 0.16808 0.8676 0.9541 0.0
O208 O 0.22571 0.81523 0.10446 0.0
O209 O 0.17023 0.86073 0.02614 0.0
C210 C 0.94965 0.49557 0.87397 0.0
O211 O 0.94193 0.46899 0.85818 0.0
Cd212 Cd 0.90826 0.45641 0.75211 0.0
O213 O 0.93748 0.51561 0.83988 0.0
Cd214 Cd 0.89951 0.52498 0.74803 0.0
C215 C 0.94411 0.50221 0.61362 0.0
O216 O 0.86558 0.48163 0.764 0.0
O217 O 0.86086 0.50768 0.65955 0.0
O218 O 0.88471 0.55406 0.85306 0.0
C219 C 0.8518 0.48563 0.70086 0.0
O220 O 0.93615 0.47661 0.63939 0.0
C221 C 0.88277 0.57685 0.81229 0.0
O222 O 0.93509 0.52454 0.64549 0.0
O223 O 0.8885 0.57559 0.73935 0.0
C224 C 0.26606 0.26548 0.24544 0.0
C225 C 0.24799 0.28635 0.22001 0.0
C226 C 0.25591 0.24379 0.29934 0.0
C227 C 0.2273 0.24213 0.33 0.0
H228 H 0.28795 0.26535 0.22204 0.0
H229 H 0.27061 0.22797 0.31627 0.0
S230 S 0.17216 0.29335 0.28771 0.0
N231 N 0.20068 0.30528 0.23343 0.0
N232 N 0.18166 0.26437 0.3345 0.0
C233 C 0.20923 0.26333 0.30663 0.0
C234 C 0.21958 0.2855 0.25187 0.0
C235 C 0.97162 0.97845 0.47694 0.0
C236 C 0.96563 0.00175 0.42817 0.0
C237 C -0.00741 0.98239 0.53619 0.0
C238 C 0.00837 0.00978 0.5488 0.0
H239 H 0.95962 0.95708 0.47049 0.0
H240 H -0.00403 0.96392 0.57334 0.0
S241 S 0.00302 0.07716 0.43175 0.0
N242 N 0.97857 0.0527 0.39261 0.0
N243 N 0.01808 0.06012 0.50407 0.0
C244 C 0.00326 0.03308 0.49885 0.0
C245 C 0.98186 0.02907 0.43852 0.0
C246 C 0.25933 0.75055 0.72716 0.0
C247 C 0.23047 0.74507 0.69895 0.0
C248 C 0.26706 0.77277 0.78119 0.0
C249 C 0.24623 0.79035 0.80934 0.0
H250 H 0.2762 0.73747 0.70781 0.0
H251 H 0.2894 0.77575 0.80213 0.0
S252 S 0.16805 0.78628 0.75055 0.0
N253 N 0.18125 0.75992 0.70094 0.0
N254 N 0.1957 0.80175 0.80234 0.0
C255 C 0.21737 0.7855 0.78063 0.0
C256 C 0.2095 0.76282 0.72562 0.0
C257 C 0.47733 0.98732 0.03301 0.0
C258 C 0.46327 0.01082 0.06146 0.0
C259 C 0.49842 -0.00868 0.97407 0.0
C260 C 0.50635 0.01901 0.94093 0.0
H261 H 0.47229 0.96555 0.05686 0.0
H262 H 0.50867 0.97247 0.95487 0.0
S263 S 0.47527 0.0877 -0.0075 0.0
N264 N 0.4582 0.06277 0.05068 0.0
N265 N 0.49794 0.07034 0.9395 0.0
C266 C 0.49228 0.04274 0.96815 0.0
C267 C 0.47073 0.03866 0.02844 0.0
C268 C 0.21848 0.76975 0.21333 0.0
C269 C 0.2462 0.78399 0.19505 0.0
C270 C 0.21493 0.74874 0.27261 0.0
C271 C 0.23896 0.7411 0.31616 0.0
H272 H 0.1992 0.77482 0.18174 0.0
H273 H 0.19308 0.73854 0.28439 0.0
S274 S 0.31635 0.77198 0.29166 0.0
N275 N 0.29825 0.78898 0.22513 0.0
N276 N 0.29159 0.74938 0.33689 0.0
C277 C 0.26692 0.75496 0.29816 0.0
C278 C 0.27055 0.77643 0.23758 0.0
C279 C 0.47811 0.03075 0.45549 0.0
C280 C 0.46651 0.00145 0.44572 0.0
C281 C 0.49983 0.03866 0.51104 0.0
C282 C 0.51086 0.01759 0.55919 0.0
H283 H 0.47046 0.0479 0.41974 0.0
H284 H 0.50794 0.06148 0.51626 0.0
S285 S 0.48748 0.93777 0.55813 0.0
N286 N 0.46745 0.9513 0.48949 0.0
N287 N 0.50826 0.96593 0.59399 0.0
C288 C 0.49946 0.98812 0.55007 0.0
C289 C 0.47732 0.9801 0.49338 0.0
C290 C 0.20904 0.25163 0.73928 0.0
C291 C 0.2302 0.2334 0.71653 0.0
C292 C 0.21483 0.27231 0.79843 0.0
C293 C 0.24197 0.27549 0.83707 0.0
H294 H 0.18806 0.25045 0.71 0.0
H295 H 0.19805 0.28627 0.81272 0.0
S296 S 0.30366 0.2309 0.80494 0.0
N297 N 0.27858 0.21834 0.74098 0.0
N298 N 0.28948 0.25721 0.85238 0.0
C299 C 0.26299 0.25673 0.8167 0.0
C300 C 0.2571 0.23568 0.75638 0.0
C301 C -0.00362 0.98628 0.96182 0.0
C302 C 0.00136 0.01519 0.93373 0.0
C303 C 0.97433 0.97806 0.01636 0.0
C304 C 0.95637 -0.00158 0.04512 0.0
H305 H 0.00982 0.96975 0.94221 0.0
H306 H 0.97181 0.95572 0.03729 0.0
S307 S 0.95893 0.07648 0.98642 0.0
N308 N 0.98558 0.06392 0.93611 0.0
N309 N 0.94397 0.04857 0.03851 0.0
C310 C 0.96064 0.02731 0.01629 0.0
C311 C 0.98319 0.03568 0.96078 0.0
C312 C 0.71375 0.75608 0.79757 0.0
C313 C 0.7355 0.74474 0.84258 0.0
C314 C 0.72093 0.77782 0.74142 0.0
C315 C 0.75019 0.78917 0.72787 0.0
H316 H 0.69097 0.74784 0.80474 0.0
H317 H 0.70328 0.78539 0.70748 0.0
S318 S 0.81531 0.76847 0.8344 0.0
N319 N 0.78756 0.74766 0.87305 0.0
N320 N 0.80093 0.78847 0.76709 0.0
C321 C 0.77213 0.77864 0.77398 0.0
C322 C 0.76483 0.75645 0.83133 0.0
C323 C 0.76536 0.2693 0.26725 0.0
C324 C 0.74473 0.28076 0.31568 0.0
C325 C 0.75677 0.24792 0.21162 0.0
C326 C 0.72717 0.23704 0.20213 0.0
H327 H 0.78838 0.27694 0.27197 0.0
H328 H 0.77363 0.24001 0.1755 0.0
S329 S 0.66447 0.25901 0.31649 0.0
N330 N 0.69322 0.27909 0.35198 0.0
N331 N 0.67725 0.2389 0.24718 0.0
C332 C 0.70627 0.24812 0.25054 0.0
C333 C 0.715 0.26996 0.30731 0.0
C334 C 0.75795 0.25055 0.7986 0.0
C335 C 0.72976 0.2371 0.81545 0.0
C336 C 0.76255 0.27146 0.73931 0.0
C337 C 0.73917 0.2798 0.69443 0.0
H338 H 0.77673 0.24511 0.83177 0.0
H339 H 0.78468 0.28127 0.72911 0.0
S340 S 0.66115 0.25034 0.71274 0.0
N341 N 0.67811 0.23304 0.78104 0.0
N342 N 0.68679 0.27246 0.66924 0.0
C343 C 0.71083 0.26643 0.71012 0.0
C344 C 0.70613 0.24505 0.77068 0.0
C345 C 0.71551 0.74842 0.25163 0.0
C346 C 0.73949 0.73461 0.22484 0.0
C347 C 0.71876 0.76942 0.31054 0.0
C348 C 0.74611 0.77751 0.34518 0.0
H349 H 0.69404 0.74346 0.22598 0.0
H350 H 0.69965 0.77974 0.3279 0.0
S351 S 0.81546 0.74614 0.30088 0.0
N352 N 0.79128 0.72924 0.2407 0.0
N353 N 0.7974 0.76882 0.35178 0.0
C354 C 0.77019 0.76331 0.32066 0.0
C355 C 0.76687 0.74184 0.26046 0.0
C356 C 0.49643 0.5381 0.03742 0.0
C357 C 0.50527 0.51491 0.0822 0.0
C358 C 0.47509 0.53327 0.97946 0.0
C359 C 0.46174 0.50503 0.96392 0.0
H360 H 0.50641 0.56021 0.04606 0.0
H361 H 0.46955 0.55181 0.94545 0.0
S362 S 0.47508 0.43708 0.06967 0.0
N363 N 0.49764 0.4628 0.11068 0.0
N364 N 0.45745 0.45372 0.00144 0.0
C365 C 0.46969 0.4817 0.00983 0.0
C366 C 0.49147 0.48661 0.06901 0.0
C367 C -0.00728 0.53909 0.45568 0.0
C368 C 0.00752 0.51626 0.42625 0.0
C369 C 0.9719 0.53418 0.51516 0.0
C370 C 0.96501 0.50621 0.54768 0.0
H371 H -0.00263 0.56112 0.43323 0.0
H372 H 0.96136 0.5526 0.53618 0.0
S373 S -0.00299 0.43865 0.48994 0.0
N374 N 0.0134 0.46436 0.43292 0.0
N375 N 0.97422 0.45511 0.54487 0.0
C376 C 0.97922 0.48299 0.51782 0.0
C377 C 0.00049 0.488 0.45713 0.0
C378 C -0.00124 0.54206 0.01311 0.0
C379 C 0.01781 0.52259 0.04161 0.0
C380 C 0.97682 0.53298 0.95922 0.0
C381 C 0.97302 0.50404 0.93155 0.0
H382 H 0.00028 0.56435 0.0339 0.0
H383 H 0.96247 0.5488 0.93996 0.0
S384 S 0.01872 0.44503 0.98306 0.0
N385 N 0.0326 0.47336 0.0347 0.0
N386 N -0.0088 0.45637 0.9335 0.0
C387 C -0.00766 0.48449 0.95809 0.0
C388 C 0.0148 0.49375 0.01291 0.0
C389 C 0.48876 0.48623 0.54791 0.0
C390 C 0.46907 0.50544 0.5739 0.0
C391 C 0.51051 0.49522 0.49308 0.0
C392 C 0.51343 0.52377 0.46203 0.0
H393 H 0.48752 0.4641 0.57026 0.0
H394 H 0.52506 0.47951 0.47463 0.0
S395 S 0.46684 0.5824 0.50917 0.0
N396 N 0.45355 0.55435 0.56333 0.0
N397 N 0.49453 0.57111 0.46051 0.0
C398 C 0.49399 0.54328 0.4877 0.0
C399 C 0.47176 0.53413 0.54341 0.0
C400 C 0.12326 0.42566 0.08865 0.0
C401 C 0.12149 0.43046 0.16989 0.0
C402 C 0.14112 0.4056 0.05868 0.0
C403 C 0.15817 0.39019 0.10908 0.0
H404 H 0.11173 0.43839 0.0477 0.0
H405 H 0.1431 0.40372 -0.00441 0.0
S406 S 0.15821 0.39194 0.32671 0.0
N407 N 0.13561 0.41583 0.30057 0.0
N408 N 0.1697 0.37839 0.24409 0.0
C409 C 0.15496 0.3932 0.19061 0.0
C410 C 0.13642 0.4133 0.22116 0.0
C411 C 0.79751 0.93951 0.46046 0.0
C412 C 0.77966 0.91971 0.41449 0.0
C413 C 0.81808 0.9601 0.42564 0.0
C414 C 0.82193 0.96122 0.34369 0.0
H415 H 0.79562 0.93908 0.52385 0.0
H416 H 0.83154 0.97478 0.4635 0.0
S417 S 0.78045 0.91427 0.19712 0.0
N418 N 0.76674 0.90274 0.28264 0.0
N419 N 0.80589 0.94115 0.21735 0.0
C420 C 0.80408 0.94169 0.29696 0.0
C421 C 0.78278 0.92102 0.33233 0.0
C422 C 0.33504 0.63921 0.68739 0.0
C423 C 0.3327 0.64281 0.60568 0.0
C424 C 0.35384 0.62035 0.71912 0.0
C425 C 0.37058 0.60426 0.66993 0.0
H426 H 0.32082 0.6495 0.72698 0.0
H427 H 0.35326 0.6165 0.7819 0.0
S428 S 0.37753 0.61108 0.45365 0.0
N429 N 0.35261 0.63287 0.4773 0.0
N430 N 0.38781 0.59702 0.53718 0.0
C431 C 0.37097 0.61018 0.58894 0.0
C432 C 0.35204 0.62965 0.55663 0.0
C433 C 0.68745 0.0945 0.84025 0.0
C434 C 0.68999 0.09802 0.92207 0.0
C435 C 0.6662 0.07411 0.80779 0.0
C436 C 0.64718 0.05613 0.85604 0.0
H437 H 0.70152 0.10807 0.80079 0.0
H438 H 0.66471 0.07241 0.74448 0.0
S439 S 0.64554 0.05615 0.07402 0.0
N440 N 0.6721 0.08161 0.05064 0.0
N441 N 0.63248 0.0428 0.98989 0.0
C442 C 0.64989 0.059 0.93804 0.0
C443 C 0.67121 0.08011 0.971 0.0
C444 C 0.16994 0.58262 0.30996 0.0
C445 C 0.14908 0.56605 0.35637 0.0
C446 C 0.19198 0.60158 0.34442 0.0
C447 C 0.19354 0.60509 0.4264 0.0
H448 H 0.16939 0.58073 0.2466 0.0
H449 H 0.20754 0.61403 0.30632 0.0
S450 S 0.14385 0.56695 0.57381 0.0
N451 N 0.1313 0.55424 0.48851 0.0
N452 N 0.17244 0.59043 0.55309 0.0
C453 C 0.17276 0.58872 0.47347 0.0
C454 C 0.1506 0.56904 0.43849 0.0
C455 C 0.61058 0.91573 0.59136 0.0
C456 C 0.60759 0.91878 0.67307 0.0
C457 C 0.62867 0.89613 0.56012 0.0
C458 C 0.64462 0.87935 0.60982 0.0
H459 H 0.60038 0.92993 0.55133 0.0
H460 H 0.63218 0.89609 0.49723 0.0
S461 S 0.63963 0.87472 0.82676 0.0
N462 N 0.61817 0.89988 0.80231 0.0
N463 N 0.65268 0.86329 0.74339 0.0
C464 C 0.63941 0.87991 0.69104 0.0
C465 C 0.62067 0.89958 0.72284 0.0
C466 C 0.33909 0.43703 0.86703 0.0
C467 C 0.32831 0.46095 0.8299 0.0
C468 C 0.32011 0.41597 0.90596 0.0
C469 C 0.28986 0.41802 0.90696 0.0
H470 H 0.36236 0.43505 0.86778 0.0
H471 H 0.32907 0.39782 0.93445 0.0
S472 S 0.25121 0.47666 0.81784 0.0
N473 N 0.28606 0.48597 0.79732 0.0
N474 N 0.25004 0.44568 0.86743 0.0
C475 C 0.27889 0.44167 0.8689 0.0
C476 C 0.29827 0.4634 0.83113 0.0
C477 C 0.84354 0.12267 0.04992 0.0
C478 C 0.82743 0.13935 0.09916 0.0
C479 C 0.86134 0.10285 0.08169 0.0
C480 C 0.86381 0.09946 0.16345 0.0
H481 H 0.84038 0.12292 0.98692 0.0
H482 H 0.87162 0.0887 0.04197 0.0
S483 S 0.83167 0.14345 0.31622 0.0
N484 N 0.81907 0.15525 0.23248 0.0
N485 N 0.85293 0.11812 0.29239 0.0
C486 C 0.85075 0.11866 0.21286 0.0
C487 C 0.83236 0.13862 0.18052 0.0
C488 C 0.83467 0.63703 0.83643 0.0
C489 C 0.83356 0.63978 0.91862 0.0
C490 C 0.85304 0.61857 0.80114 0.0
C491 C 0.87056 0.60204 0.84713 0.0
H492 H 0.81992 0.64778 0.79928 0.0
H493 H 0.85165 0.61545 0.7382 0.0
S494 S 0.88035 0.60618 0.06297 0.0
N495 N 0.85515 0.62823 0.0438 0.0
N496 N 0.88949 0.59317 0.9773 0.0
C497 C 0.87195 0.60692 0.92849 0.0
C498 C 0.85348 0.62597 0.96439 0.0
C499 C 0.17944 0.09269 0.67912 0.0
C500 C 0.18177 0.09728 0.59754 0.0
C501 C 0.15966 0.07055 0.7104 0.0
C502 C 0.14205 0.05181 0.66115 0.0
H503 H 0.19261 0.10665 0.71935 0.0
H504 H 0.15825 0.06804 0.77359 0.0
S505 S 0.14015 0.05437 0.44338 0.0
N506 N 0.16492 0.08131 0.46808 0.0
N507 N 0.12813 0.03912 0.52673 0.0
C508 C 0.14444 0.05585 0.57936 0.0
C509 C 0.16419 0.07879 0.54758 0.0
C510 C 0.63646 0.40308 0.45872 0.0
C511 C 0.65419 0.38809 0.40947 0.0
C512 C 0.61776 0.42212 0.4273 0.0
C513 C 0.61589 0.42636 0.34574 0.0
H514 H 0.63853 0.40176 0.52194 0.0
H515 H 0.60583 0.43473 0.46737 0.0
S516 S 0.65379 0.38792 0.19174 0.0
N517 N 0.66591 0.37553 0.27534 0.0
N518 N 0.63034 0.41114 0.21614 0.0
C519 C 0.63134 0.40932 0.29572 0.0
C520 C 0.65069 0.39022 0.32774 0.0
C521 C 0.32 0.96278 0.08928 0.0
C522 C 0.3241 0.9648 0.17099 0.0
C523 C 0.29864 0.94246 0.05709 0.0
C524 C 0.28022 0.92394 0.10555 0.0
H525 H 0.33386 0.9765 0.04968 0.0
H526 H 0.29655 0.94125 -0.00619 0.0
S527 S 0.28146 0.92131 0.32339 0.0
N528 N 0.30779 0.94699 0.29974 0.0
N529 N 0.26711 0.90916 0.23945 0.0
C530 C 0.28365 0.92619 0.18747 0.0
C531 C 0.30577 0.94651 0.22015 0.0
C532 C 0.80582 0.4388 0.55629 0.0
C533 C 0.78903 0.419 0.60514 0.0
C534 C 0.82558 0.46076 0.58807 0.0
C535 C 0.82968 0.46323 0.66973 0.0
H536 H 0.80351 0.4375 0.49308 0.0
H537 H 0.83815 0.47552 0.54816 0.0
S538 S 0.79128 0.41642 0.82286 0.0
N539 N 0.77764 0.40317 0.7392 0.0
N540 N 0.81539 0.44411 0.79876 0.0
C541 C 0.81313 0.44348 0.71923 0.0
C542 C 0.79261 0.42145 0.68696 0.0
C543 C 0.32326 0.13174 0.3444 0.0
C544 C 0.31928 0.13305 0.42613 0.0
C545 C 0.34322 0.1143 0.31195 0.0
C546 C 0.35946 0.09727 0.36027 0.0
H547 H 0.30984 0.14315 0.30498 0.0
H548 H 0.3443 0.11254 0.24865 0.0
S549 S 0.36057 0.09669 0.57799 0.0
N550 N 0.33593 0.11889 0.55487 0.0
N551 N 0.37326 0.08569 0.49372 0.0
C552 C 0.3575 0.10029 0.44215 0.0
C553 C 0.33743 0.11834 0.47522 0.0
C554 C 0.65302 0.56598 0.08736 0.0
C555 C 0.65038 0.56133 0.16879 0.0
C556 C 0.67526 0.58576 0.05635 0.0
C557 C 0.69598 0.60102 0.10563 0.0
H558 H 0.63738 0.55478 0.04737 0.0
H559 H 0.67622 0.58915 -0.0066 0.0
S560 S 0.69925 0.59547 0.32296 0.0
N561 N 0.67054 0.57291 0.298 0.0
N562 N 0.71283 0.60964 0.23991 0.0
C563 C 0.69397 0.59599 0.18712 0.0
C564 C 0.67101 0.57627 0.21869 0.0
C565 C 0.12515 0.89536 0.96852 0.0
C566 C 0.14162 0.8782 0.92168 0.0
C567 C 0.10605 0.91334 0.93404 0.0
C568 C 0.10266 0.91436 0.85196 0.0
H569 H 0.12903 0.89702 0.03114 0.0
H570 H 0.09554 0.92806 0.97153 0.0
S571 S 0.13541 0.8677 0.70656 0.0
N572 N 0.14945 0.85902 0.79158 0.0
N573 N 0.11311 0.89255 0.72654 0.0
C574 C 0.11613 0.89444 0.80576 0.0
C575 C 0.13583 0.8764 0.84082 0.0
loop_
_geom_bond_atom_site_label_1
_geom_bond_atom_site_label_2
_geom_bond_distance
_geom_bond_site_symmetry_2
_ccdc_geom_bond_type
C0 O1 1.306 . S
C0 O3 1.160 . S
O1 C0 1.306 . S
O1 Cd2 2.228 . S
Cd2 O1 2.228 . S
Cd2 O6 2.273 . S
Cd2 O10 2.277 1_554 S
O3 C0 1.160 . S
O3 Cd4 2.203 . S
Cd4 O3 2.203 . S
Cd4 O6 2.411 . S
Cd4 O7 2.333 1_554 S
Cd4 O8 2.352 . S
Cd4 O12 2.277 1_554 S
Cd4 O13 2.356 . S
C5 O10 1.209 . S
C5 O12 1.226 . S
O6 Cd2 2.273 . S
O6 Cd4 2.411 . S
O6 C9 1.320 1_554 S
O7 Cd4 2.333 1_556 S
O7 C9 1.214 . S
O8 Cd4 2.352 . S
O8 C11 1.258 . S
C9 O6 1.320 1_556 S
C9 O7 1.214 . S
O10 Cd2 2.277 1_556 S
O10 C5 1.209 . S
C11 O8 1.258 . S
C11 O13 1.282 . S
O12 Cd4 2.277 1_556 S
O12 C5 1.226 . S
O13 Cd4 2.356 . S
O13 C11 1.282 . S
C14 O15 1.306 1_545 S
C14 O17 1.160 . S
O15 C14 1.306 1_565 S
O15 Cd16 2.228 . S
Cd16 O15 2.228 . S
Cd16 O20 2.273 . S
Cd16 O24 2.277 1_565 S
O17 C14 1.160 . S
O17 Cd18 2.203 . S
Cd18 O17 2.203 . S
Cd18 O20 2.411 1_545 S
Cd18 O21 2.333 . S
Cd18 O22 2.352 . S
Cd18 O26 2.277 . S
Cd18 O27 2.356 . S
C19 O24 1.209 . S
C19 O26 1.226 . S
O20 Cd16 2.273 . S
O20 Cd18 2.411 1_565 S
O20 C23 1.320 . S
O21 Cd18 2.333 . S
O21 C23 1.214 1_545 S
O22 Cd18 2.352 . S
O22 C25 1.258 . S
C23 O20 1.320 . S
C23 O21 1.214 1_565 S
O24 Cd16 2.277 1_545 S
O24 C19 1.209 . S
C25 O22 1.258 . S
C25 O27 1.282 . S
O26 Cd18 2.277 . S
O26 C19 1.226 . S
O27 Cd18 2.356 . S
O27 C25 1.282 . S
C28 O29 1.306 . S
C28 O31 1.160 . S
O29 C28 1.306 . S
O29 Cd30 2.228 . S
Cd30 O29 2.228 . S
Cd30 O34 2.273 . S
Cd30 O38 2.277 . S
O31 C28 1.160 . S
O31 Cd32 2.203 . S
Cd32 O31 2.203 . S
Cd32 O34 2.411 . S
Cd32 O35 2.333 . S
Cd32 O36 2.352 . S
Cd32 O40 2.277 . S
Cd32 O41 2.356 . S
C33 O38 1.209 . S
C33 O40 1.226 . S
O34 Cd30 2.273 . S
O34 Cd32 2.411 . S
O34 C37 1.320 . S
O35 Cd32 2.333 . S
O35 C37 1.214 . S
O36 Cd32 2.352 . S
O36 C39 1.258 . S
C37 O34 1.320 . S
C37 O35 1.214 . S
O38 Cd30 2.277 . S
O38 C33 1.209 . S
C39 O36 1.258 . S
C39 O41 1.282 . S
O40 Cd32 2.277 . S
O40 C33 1.226 . S
O41 Cd32 2.356 . S
O41 C39 1.282 . S
C42 O43 1.306 . S
C42 O45 1.160 . S
O43 C42 1.306 . S
O43 Cd44 2.228 . S
Cd44 O43 2.228 . S
Cd44 O48 2.273 . S
Cd44 O52 2.277 . S
O45 C42 1.160 . S
O45 Cd46 2.203 . S
Cd46 O45 2.203 . S
Cd46 O48 2.411 . S
Cd46 O49 2.333 . S
Cd46 O50 2.352 1_545 S
Cd46 O54 2.277 1_545 S
Cd46 O55 2.356 1_545 S
C47 O52 1.209 . S
C47 O54 1.226 1_545 S
O48 Cd44 2.273 . S
O48 Cd46 2.411 . S
O48 C51 1.320 . S
O49 Cd46 2.333 . S
O49 C51 1.214 . S
O50 Cd46 2.352 1_565 S
O50 C53 1.256 . S
C51 O48 1.320 . S
C51 O49 1.214 . S
O52 Cd44 2.277 . S
O52 C47 1.209 . S
C53 O50 1.256 . S
C53 O55 1.282 . S
O54 Cd46 2.277 1_565 S
O54 C47 1.226 1_565 S
O55 Cd46 2.356 1_565 S
O55 C53 1.282 . S
C56 O57 1.306 . S
C56 O59 1.160 . S
O57 C56 1.306 . S
O57 Cd58 2.228 1_556 S
Cd58 O57 2.228 1_554 S
Cd58 O62 2.273 . S
Cd58 O66 2.277 . S
O59 C56 1.160 . S
O59 Cd60 2.203 1_556 S
Cd60 O59 2.203 1_554 S
Cd60 O62 2.411 . S
Cd60 O63 2.333 . S
Cd60 O64 2.352 1_554 S
Cd60 O68 2.277 . S
Cd60 O69 2.356 . S
C61 O66 1.209 . S
C61 O68 1.226 . S
O62 Cd58 2.273 . S
O62 Cd60 2.411 . S
O62 C65 1.320 . S
O63 Cd60 2.333 . S
O63 C65 1.214 . S
O64 Cd60 2.352 1_556 S
O64 C67 1.258 . S
C65 O62 1.320 . S
C65 O63 1.214 . S
O66 Cd58 2.277 . S
O66 C61 1.209 . S
C67 O64 1.258 . S
C67 O69 1.282 1_556 S
O68 Cd60 2.277 . S
O68 C61 1.226 . S
O69 Cd60 2.356 . S
O69 C67 1.282 1_554 S
C70 O71 1.306 . S
C70 O73 1.160 . S
O71 C70 1.306 . S
O71 Cd72 2.228 . S
Cd72 O71 2.228 . S
Cd72 O76 2.273 . S
Cd72 O80 2.277 . S
O73 C70 1.160 . S
O73 Cd74 2.203 . S
Cd74 O73 2.203 . S
Cd74 O76 2.411 . S
Cd74 O77 2.333 . S
Cd74 O78 2.352 1_545 S
Cd74 O82 2.277 1_545 S
Cd74 O83 2.356 1_545 S
C75 O80 1.209 . S
C75 O82 1.226 1_545 S
O76 Cd72 2.273 . S
O76 Cd74 2.411 . S
O76 C79 1.320 . S
O77 Cd74 2.333 . S
O77 C79 1.214 . S
O78 Cd74 2.352 1_565 S
O78 C81 1.256 . S
C79 O76 1.320 . S
C79 O77 1.214 . S
O80 Cd72 2.277 . S
O80 C75 1.209 . S
C81 O78 1.256 . S
C81 O83 1.282 . S
O82 Cd74 2.277 1_565 S
O82 C75 1.226 1_565 S
O83 Cd74 2.356 1_565 S
O83 C81 1.282 . S
C84 O85 1.306 . S
C84 O87 1.160 . S
O85 C84 1.306 . S
O85 Cd86 2.228 . S
Cd86 O85 2.228 . S
Cd86 O90 2.273 . S
Cd86 O94 2.277 . S
O87 C84 1.160 . S
O87 Cd88 2.203 . S
Cd88 O87 2.203 . S
Cd88 O90 2.411 . S
Cd88 O91 2.333 . S
Cd88 O92 2.352 . S
Cd88 O96 2.277 . S
Cd88 O97 2.356 . S
C89 O94 1.209 . S
C89 O96 1.226 . S
O90 Cd86 2.273 . S
O90 Cd88 2.411 . S
O90 C93 1.320 . S
O91 Cd88 2.333 . S
O91 C93 1.214 . S
O92 Cd88 2.352 . S
O92 C95 1.258 . S
C93 O90 1.320 . S
C93 O91 1.214 . S
O94 Cd86 2.277 . S
O94 C89 1.209 . S
C95 O92 1.258 . S
C95 O97 1.282 . S
O96 Cd88 2.277 . S
O96 C89 1.226 . S
O97 Cd88 2.356 . S
O97 C95 1.282 . S
C98 O99 1.306 1_545 S
C98 O101 1.160 . S
O99 C98 1.306 1_565 S
O99 Cd100 2.228 . S
Cd100 O99 2.228 . S
Cd100 O104 2.273 . S
Cd100 O108 2.277 1_565 S
O101 C98 1.160 . S
O101 Cd102 2.203 . S
Cd102 O101 2.203 . S
Cd102 O104 2.411 1_545 S
Cd102 O105 2.333 . S
Cd102 O106 2.352 . S
Cd102 O110 2.277 . S
Cd102 O111 2.356 . S
C103 O108 1.209 . S
C103 O110 1.226 . S
O104 Cd100 2.273 . S
O104 Cd102 2.411 1_565 S
O104 C107 1.320 . S
O105 Cd102 2.333 . S
O105 C107 1.214 1_545 S
O106 Cd102 2.352 . S
O106 C109 1.258 . S
C107 O104 1.320 . S
C107 O105 1.214 1_565 S
O108 Cd100 2.277 1_545 S
O108 C103 1.209 . S
C109 O106 1.258 . S
C109 O111 1.282 . S
O110 Cd102 2.277 . S
O110 C103 1.226 . S
O111 Cd102 2.356 . S
O111 C109 1.282 . S
C112 O113 1.306 . S
C112 O115 1.160 . S
O113 C112 1.306 . S
O113 Cd114 2.228 . S
Cd114 O113 2.228 . S
Cd114 O118 2.273 . S
Cd114 O122 2.277 . S
O115 C112 1.160 . S
O115 Cd116 2.203 . S
Cd116 O115 2.203 . S
Cd116 O118 2.411 . S
Cd116 O119 2.333 . S
Cd116 O120 2.352 . S
Cd116 O124 2.277 . S
Cd116 O125 2.356 . S
C117 O122 1.209 . S
C117 O124 1.226 . S
O118 Cd114 2.273 . S
O118 Cd116 2.411 . S
O118 C121 1.320 . S
O119 Cd116 2.333 . S
O119 C121 1.214 . S
O120 Cd116 2.352 . S
O120 C123 1.258 . S
C121 O118 1.320 . S
C121 O119 1.214 . S
O122 Cd114 2.277 . S
O122 C117 1.209 . S
C123 O120 1.258 . S
C123 O125 1.282 . S
O124 Cd116 2.277 . S
O124 C117 1.226 . S
O125 Cd116 2.356 . S
O125 C123 1.282 . S
C126 O127 1.306 . S
C126 O129 1.160 . S
O127 C126 1.306 . S
O127 Cd128 2.228 . S
Cd128 O127 2.228 . S
Cd128 O132 2.273 . S
Cd128 O136 2.277 . S
O129 C126 1.160 . S
O129 Cd130 2.203 . S
Cd130 O129 2.203 . S
Cd130 O132 2.411 . S
Cd130 O133 2.333 . S
Cd130 O134 2.352 . S
Cd130 O138 2.277 . S
Cd130 O139 2.356 . S
C131 O136 1.209 . S
C131 O138 1.226 . S
O132 Cd128 2.273 . S
O132 Cd130 2.411 . S
O132 C135 1.320 . S
O133 Cd130 2.333 . S
O133 C135 1.214 . S
O134 Cd130 2.352 . S
O134 C137 1.258 . S
C135 O132 1.320 . S
C135 O133 1.214 . S
O136 Cd128 2.277 . S
O136 C131 1.209 . S
C137 O134 1.258 . S
C137 O139 1.282 . S
O138 Cd130 2.277 . S
O138 C131 1.226 . S
O139 Cd130 2.356 . S
O139 C137 1.282 . S
C140 O141 1.306 . S
C140 O143 1.160 . S
O141 C140 1.306 . S
O141 Cd142 2.228 . S
Cd142 O141 2.228 . S
Cd142 O146 2.273 . S
Cd142 O150 2.277 1_554 S
O143 C140 1.160 . S
O143 Cd144 2.203 . S
Cd144 O143 2.203 . S
Cd144 O146 2.411 . S
Cd144 O147 2.333 1_554 S
Cd144 O148 2.352 . S
Cd144 O152 2.277 1_554 S
Cd144 O153 2.356 . S
C145 O150 1.209 . S
C145 O152 1.226 . S
O146 Cd142 2.273 . S
O146 Cd144 2.411 . S
O146 C149 1.320 1_554 S
O147 Cd144 2.333 1_556 S
O147 C149 1.214 . S
O148 Cd144 2.352 . S
O148 C151 1.258 . S
C149 O146 1.320 1_556 S
C149 O147 1.214 . S
O150 Cd142 2.277 1_556 S
O150 C145 1.209 . S
C151 O148 1.258 . S
C151 O153 1.282 . S
O152 Cd144 2.277 1_556 S
O152 C145 1.226 . S
O153 Cd144 2.356 . S
O153 C151 1.282 . S
C154 O155 1.306 . S
C154 O157 1.160 . S
O155 C154 1.306 . S
O155 Cd156 2.228 . S
Cd156 O155 2.228 . S
Cd156 O160 2.273 . S
Cd156 O164 2.277 . S
O157 C154 1.160 . S
O157 Cd158 2.203 . S
Cd158 O157 2.203 . S
Cd158 O160 2.411 . S
Cd158 O161 2.333 . S
Cd158 O162 2.352 . S
Cd158 O166 2.277 . S
Cd158 O167 2.356 . S
C159 O164 1.209 . S
C159 O166 1.226 . S
O160 Cd156 2.273 . S
O160 Cd158 2.411 . S
O160 C163 1.320 . S
O161 Cd158 2.333 . S
O161 C163 1.214 . S
O162 Cd158 2.352 . S
O162 C165 1.258 . S
C163 O160 1.320 . S
C163 O161 1.214 . S
O164 Cd156 2.277 . S
O164 C159 1.209 . S
C165 O162 1.258 . S
C165 O167 1.282 . S
O166 Cd158 2.277 . S
O166 C159 1.226 . S
O167 Cd158 2.356 . S
O167 C165 1.282 . S
C168 O169 1.306 . S
C168 O171 1.160 . S
O169 C168 1.306 . S
O169 Cd170 2.228 . S
Cd170 O169 2.228 . S
Cd170 O174 2.273 . S
Cd170 O178 2.277 . S
O171 C168 1.160 . S
O171 Cd172 2.203 . S
Cd172 O171 2.203 . S
Cd172 O174 2.411 . S
Cd172 O175 2.333 . S
Cd172 O176 2.352 . S
Cd172 O180 2.277 . S
Cd172 O181 2.356 . S
C173 O178 1.209 . S
C173 O180 1.226 . S
O174 Cd170 2.273 . S
O174 Cd172 2.411 . S
O174 C177 1.320 . S
O175 Cd172 2.333 . S
O175 C177 1.214 . S
O176 Cd172 2.352 . S
O176 C179 1.258 . S
C177 O174 1.320 . S
C177 O175 1.214 . S
O178 Cd170 2.277 . S
O178 C173 1.209 . S
C179 O176 1.258 . S
C179 O181 1.282 . S
O180 Cd172 2.277 . S
O180 C173 1.226 . S
O181 Cd172 2.356 . S
O181 C179 1.282 . S
C182 O183 1.306 . S
C182 O185 1.160 . S
O183 C182 1.306 . S
O183 Cd184 2.228 . S
Cd184 O183 2.228 . S
Cd184 O188 2.273 . S
Cd184 O192 2.277 . S
O185 C182 1.160 . S
O185 Cd186 2.203 . S
Cd186 O185 2.203 . S
Cd186 O188 2.411 . S
Cd186 O189 2.333 . S
Cd186 O190 2.352 . S
Cd186 O194 2.277 . S
Cd186 O195 2.356 . S
C187 O192 1.209 . S
C187 O194 1.226 . S
O188 Cd184 2.273 . S
O188 Cd186 2.411 . S
O188 C191 1.320 . S
O189 Cd186 2.333 . S
O189 C191 1.214 . S
O190 Cd186 2.352 . S
O190 C193 1.258 . S
C191 O188 1.320 . S
C191 O189 1.214 . S
O192 Cd184 2.277 . S
O192 C187 1.209 . S
C193 O190 1.258 . S
C193 O195 1.282 . S
O194 Cd186 2.277 . S
O194 C187 1.226 . S
O195 Cd186 2.356 . S
O195 C193 1.282 . S
C196 O197 1.306 . S
C196 O199 1.160 . S
O197 C196 1.306 . S
O197 Cd198 2.228 1_556 S
Cd198 O197 2.228 1_554 S
Cd198 O202 2.273 . S
Cd198 O206 2.277 . S
O199 C196 1.160 . S
O199 Cd200 2.203 1_556 S
Cd200 O199 2.203 1_554 S
Cd200 O202 2.411 . S
Cd200 O203 2.333 . S
Cd200 O204 2.352 1_554 S
Cd200 O208 2.277 . S
Cd200 O209 2.356 . S
C201 O206 1.209 . S
C201 O208 1.226 . S
O202 Cd198 2.273 . S
O202 Cd200 2.411 . S
O202 C205 1.320 . S
O203 Cd200 2.333 . S
O203 C205 1.214 . S
O204 Cd200 2.352 1_556 S
O204 C207 1.258 . S
C205 O202 1.320 . S
C205 O203 1.214 . S
O206 Cd198 2.277 . S
O206 C201 1.209 . S
C207 O204 1.258 . S
C207 O209 1.282 1_556 S
O208 Cd200 2.277 . S
O208 C201 1.226 . S
O209 Cd200 2.356 . S
O209 C207 1.282 1_554 S
C210 O211 1.306 . S
C210 O213 1.160 . S
O211 C210 1.306 . S
O211 Cd212 2.228 . S
Cd212 O211 2.228 . S
Cd212 O216 2.273 . S
Cd212 O220 2.277 . S
O213 C210 1.160 . S
O213 Cd214 2.203 . S
Cd214 O213 2.203 . S
Cd214 O216 2.411 . S
Cd214 O217 2.333 . S
Cd214 O218 2.352 . S
Cd214 O222 2.277 . S
Cd214 O223 2.356 . S
C215 O220 1.209 . S
C215 O222 1.226 . S
O216 Cd212 2.273 . S
O216 Cd214 2.411 . S
O216 C219 1.320 . S
O217 Cd214 2.333 . S
O217 C219 1.214 . S
O218 Cd214 2.352 . S
O218 C221 1.258 . S
C219 O216 1.320 . S
C219 O217 1.214 . S
O220 Cd212 2.277 . S
O220 C215 1.209 . S
C221 O218 1.258 . S
C221 O223 1.282 . S
O222 Cd214 2.277 . S
O222 C215 1.226 . S
O223 Cd214 2.356 . S
O223 C221 1.282 . S
C224 C225 1.369 . S
C224 C226 1.419 . S
C224 H228 0.930 . S
C225 C224 1.369 . S
C225 C234 1.429 . S
C226 C224 1.419 . S
C226 C227 1.363 . S
C226 H229 0.929 . S
C227 C226 1.363 . S
C227 C233 1.428 . S
H228 C224 0.930 . S
H229 C226 0.929 . S
S230 N231 1.613 . S
S230 N232 1.610 . S
N231 S230 1.613 . S
N231 C234 1.350 . S
N232 S230 1.610 . S
N232 C233 1.351 . S
C233 C227 1.428 . S
C233 N232 1.351 . S
C233 C234 1.434 . S
C234 C225 1.429 . S
C234 N231 1.350 . S
C234 C233 1.434 . S
C235 C236 1.369 . S
C235 C237 1.419 . S
C235 H239 0.936 . S
C236 C235 1.369 . S
C236 C245 1.429 1_655 S
C237 C235 1.419 . S
C237 C238 1.363 1_655 S
C237 H240 0.929 1_545 S
C238 C237 1.363 1_455 S
C238 C244 1.428 . S
H239 C235 0.936 . S
H240 C237 0.929 1_565 S
S241 N242 1.613 . S
S241 N243 1.610 . S
N242 S241 1.613 . S
N242 C245 1.350 . S
N243 S241 1.610 . S
N243 C244 1.351 . S
C244 C238 1.428 . S
C244 N243 1.351 . S
C244 C245 1.434 . S
C245 C236 1.429 1_455 S
C245 N242 1.350 . S
C245 C244 1.434 . S
C246 C247 1.369 . S
C246 C248 1.419 . S
C246 H250 0.930 . S
C247 C246 1.369 . S
C247 C256 1.429 . S
C248 C246 1.419 . S
C248 C249 1.363 . S
C248 H251 0.929 . S
C249 C248 1.363 . S
C249 C255 1.428 . S
H250 C246 0.930 . S
H251 C248 0.929 . S
S252 N253 1.613 . S
S252 N254 1.610 . S
N253 S252 1.613 . S
N253 C256 1.350 . S
N254 S252 1.610 . S
N254 C255 1.351 . S
C255 C249 1.428 . S
C255 N254 1.351 . S
C255 C256 1.434 . S
C256 C247 1.429 . S
C256 N253 1.350 . S
C256 C255 1.434 . S
C257 C258 1.369 . S
C257 C259 1.419 . S
C257 H261 0.930 1_545 S
C258 C257 1.369 . S
C258 C267 1.429 . S
C259 C257 1.419 . S
C259 C260 1.363 1_554 S
C259 H262 0.929 1_545 S
C260 C259 1.363 1_556 S
C260 C266 1.428 . S
H261 C257 0.930 1_565 S
H262 C259 0.929 1_565 S
S263 N264 1.613 . S
S263 N265 1.610 . S
N264 S263 1.613 . S
N264 C267 1.350 1_556 S
N265 S263 1.610 . S
N265 C266 1.351 . S
C266 C260 1.428 . S
C266 N265 1.351 . S
C266 C267 1.434 1_556 S
C267 C258 1.429 . S
C267 N264 1.350 1_554 S
C267 C266 1.434 1_554 S
C268 C269 1.369 . S
C268 C270 1.419 . S
C268 H272 0.930 . S
C269 C268 1.369 . S
C269 C278 1.429 . S
C270 C268 1.419 . S
C270 C271 1.363 . S
C270 H273 0.929 . S
C271 C270 1.363 . S
C271 C277 1.428 . S
H272 C268 0.930 . S
H273 C270 0.929 . S
S274 N275 1.613 . S
S274 N276 1.610 . S
N275 S274 1.613 . S
N275 C278 1.350 . S
N276 S274 1.610 . S
N276 C277 1.351 . S
C277 C271 1.428 . S
C277 N276 1.351 . S
C277 C278 1.434 . S
C278 C269 1.429 . S
C278 N275 1.350 . S
C278 C277 1.434 . S
C279 C280 1.369 . S
C279 C281 1.419 . S
C279 H283 0.930 . S
C280 C279 1.369 . S
C280 C289 1.429 . S
C281 C279 1.419 . S
C281 C282 1.363 . S
C281 H284 0.929 . S
C282 C281 1.363 . S
C282 C288 1.428 . S
H283 C279 0.930 . S
H284 C281 0.929 . S
S285 N286 1.613 . S
S285 N287 1.610 . S
N286 S285 1.613 . S
N286 C289 1.350 . S
N287 S285 1.610 . S
N287 C288 1.351 . S
C288 C282 1.428 . S
C288 N287 1.351 . S
C288 C289 1.434 . S
C289 C280 1.429 . S
C289 N286 1.350 . S
C289 C288 1.434 . S
C290 C291 1.369 . S
C290 C292 1.419 . S
C290 H294 0.930 . S
C291 C290 1.369 . S
C291 C300 1.429 . S
C292 C290 1.419 . S
C292 C293 1.363 . S
C292 H295 0.929 . S
C293 C292 1.363 . S
C293 C299 1.428 . S
H294 C290 0.930 . S
H295 C292 0.929 . S
S296 N297 1.613 . S
S296 N298 1.610 . S
N297 S296 1.613 . S
N297 C300 1.350 . S
N298 S296 1.610 . S
N298 C299 1.351 . S
C299 C293 1.428 . S
C299 N298 1.351 . S
C299 C300 1.434 . S
C300 C291 1.429 . S
C300 N297 1.350 . S
C300 C299 1.434 . S
C301 C302 1.391 1_554 S
C301 C303 1.421 1_445 S
C301 H305 0.906 1_545 S
C302 C301 1.391 1_556 S
C302 C311 1.429 . S
C303 C301 1.421 1_665 S
C303 C304 1.340 1_565 S
C303 H306 0.953 . S
C304 C303 1.340 1_545 S
C304 C310 1.428 . S
H305 C301 0.906 1_565 S
H306 C303 0.953 . S
S307 N308 1.613 1_655 S
S307 N309 1.610 1_556 S
N308 S307 1.613 1_455 S
N308 C311 1.350 . S
N309 S307 1.610 1_554 S
N309 C310 1.351 . S
C310 C304 1.428 . S
C310 N309 1.351 . S
C310 C311 1.434 1_654 S
C311 C302 1.429 . S
C311 N308 1.350 . S
C311 C310 1.434 1_456 S
C312 C313 1.369 . S
C312 C314 1.419 . S
C312 H316 0.930 . S
C313 C312 1.369 . S
C313 C322 1.429 . S
C314 C312 1.419 . S
C314 C315 1.363 . S
C314 H317 0.929 . S
C315 C314 1.363 . S
C315 C321 1.428 . S
H316 C312 0.930 . S
H317 C314 0.929 . S
S318 N319 1.613 . S
S318 N320 1.610 . S
N319 S318 1.613 . S
N319 C322 1.350 . S
N320 S318 1.610 . S
N320 C321 1.351 . S
C321 C315 1.428 . S
C321 N320 1.351 . S
C321 C322 1.434 . S
C322 C313 1.429 . S
C322 N319 1.350 . S
C322 C321 1.434 . S
C323 C324 1.369 . S
C323 C325 1.419 . S
C323 H327 0.930 . S
C324 C323 1.369 . S
C324 C333 1.429 . S
C325 C323 1.419 . S
C325 C326 1.363 . S
C325 H328 0.929 . S
C326 C325 1.363 . S
C326 C332 1.428 . S
H327 C323 0.930 . S
H328 C325 0.929 . S
S329 N330 1.613 . S
S329 N331 1.610 . S
N330 S329 1.613 . S
N330 C333 1.350 . S
N331 S329 1.610 . S
N331 C332 1.351 . S
C332 C326 1.428 . S
C332 N331 1.351 . S
C332 C333 1.434 . S
C333 C324 1.429 . S
C333 N330 1.350 . S
C333 C332 1.434 . S
C334 C335 1.369 . S
C334 C336 1.419 . S
C334 H338 0.930 . S
C335 C334 1.369 . S
C335 C344 1.429 . S
C336 C334 1.419 . S
C336 C337 1.363 . S
C336 H339 0.929 . S
C337 C336 1.363 . S
C337 C343 1.428 . S
H338 C334 0.930 . S
H339 C336 0.929 . S
S340 N341 1.613 . S
S340 N342 1.610 . S
N341 S340 1.613 . S
N341 C344 1.350 . S
N342 S340 1.610 . S
N342 C343 1.351 . S
C343 C337 1.428 . S
C343 N342 1.351 . S
C343 C344 1.434 . S
C344 C335 1.429 . S
C344 N341 1.350 . S
C344 C343 1.434 . S
C345 C346 1.369 . S
C345 C347 1.419 . S
C345 H349 0.930 . S
C346 C345 1.369 . S
C346 C355 1.429 . S
C347 C345 1.419 . S
C347 C348 1.363 . S
C347 H350 0.929 . S
C348 C347 1.363 . S
C348 C354 1.428 . S
H349 C345 0.930 . S
H350 C347 0.929 . S
S351 N352 1.613 . S
S351 N353 1.610 . S
N352 S351 1.613 . S
N352 C355 1.350 . S
N353 S351 1.610 . S
N353 C354 1.351 . S
C354 C348 1.428 . S
C354 N353 1.351 . S
C354 C355 1.434 . S
C355 C346 1.429 . S
C355 N352 1.350 . S
C355 C354 1.434 . S
C356 C357 1.369 . S
C356 C358 1.419 1_554 S
C356 H360 0.930 . S
C357 C356 1.369 . S
C357 C366 1.429 . S
C358 C356 1.419 1_556 S
C358 C359 1.363 . S
C358 H361 0.929 . S
C359 C358 1.363 . S
C359 C365 1.428 1_556 S
H360 C356 0.930 . S
H361 C358 0.929 . S
S362 N363 1.613 . S
S362 N364 1.610 . S
N363 S362 1.613 . S
N363 C366 1.350 . S
N364 S362 1.610 . S
N364 C365 1.351 . S
C365 C359 1.428 1_554 S
C365 N364 1.351 . S
C365 C366 1.434 . S
C366 C357 1.429 . S
C366 N363 1.350 . S
C366 C365 1.434 . S
C367 C368 1.369 1_655 S
C367 C369 1.419 . S
C367 H371 0.930 . S
C368 C367 1.369 1_455 S
C368 C377 1.429 . S
C369 C367 1.419 . S
C369 C370 1.363 . S
C369 H372 0.929 . S
C370 C369 1.363 . S
C370 C376 1.428 1_655 S
H371 C367 0.930 . S
H372 C369 0.929 . S
S373 N374 1.613 . S
S373 N375 1.610 . S
N374 S373 1.613 . S
N374 C377 1.350 . S
N375 S373 1.610 . S
N375 C376 1.351 . S
C376 C370 1.428 1_455 S
C376 N375 1.351 . S
C376 C377 1.434 . S
C377 C368 1.429 . S
C377 N374 1.350 . S
C377 C376 1.434 . S
C378 C379 1.369 1_655 S
C378 C380 1.419 . S
C378 H382 0.930 . S
C379 C378 1.369 1_455 S
C379 C388 1.423 1_554 S
C380 C378 1.419 . S
C380 C381 1.363 1_554 S
C380 H383 0.929 . S
C381 C380 1.363 1_556 S
C381 C387 1.428 1_655 S
H382 C378 0.930 . S
H383 C380 0.929 . S
S384 N385 1.613 . S
S384 N386 1.610 . S
N385 S384 1.613 . S
N385 C388 1.352 . S
N386 S384 1.610 . S
N386 C387 1.351 . S
C387 C381 1.428 1_455 S
C387 N386 1.351 . S
C387 C388 1.438 . S
C388 C379 1.423 1_556 S
C388 N385 1.352 . S
C388 C387 1.438 . S
C389 C390 1.369 . S
C389 C391 1.419 . S
C389 H393 0.930 . S
C390 C389 1.369 . S
C390 C399 1.429 . S
C391 C389 1.419 . S
C391 C392 1.363 . S
C391 H394 0.929 . S
C392 C391 1.363 . S
C392 C398 1.428 . S
H393 C389 0.930 . S
H394 C391 0.929 . S
S395 N396 1.613 . S
S395 N397 1.610 . S
N396 S395 1.613 . S
N396 C399 1.350 . S
N397 S395 1.610 . S
N397 C398 1.351 . S
C398 C392 1.428 . S
C398 N397 1.351 . S
C398 C399 1.434 . S
C399 C390 1.429 . S
C399 N396 1.350 . S
C399 C398 1.434 . S
C400 C401 1.369 . S
C400 C402 1.419 . S
C400 H404 0.930 . S
C401 C400 1.369 . S
C401 C410 1.429 . S
C402 C400 1.419 . S
C402 C403 1.363 . S
C402 H405 0.929 . S
C403 C402 1.363 . S
C403 C409 1.428 . S
H404 C400 0.930 . S
H405 C402 0.929 . S
S406 N407 1.613 . S
S406 N408 1.610 . S
N407 S406 1.613 . S
N407 C410 1.350 . S
N408 S406 1.610 . S
N408 C409 1.351 . S
C409 C403 1.428 . S
C409 N408 1.351 . S
C409 C410 1.434 . S
C410 C401 1.429 . S
C410 N407 1.350 . S
C410 C409 1.434 . S
C411 C412 1.369 . S
C411 C413 1.419 . S
C411 H415 0.930 . S
C412 C411 1.369 . S
C412 C421 1.429 . S
C413 C411 1.419 . S
C413 C414 1.363 . S
C413 H416 0.929 . S
C414 C413 1.363 . S
C414 C420 1.428 . S
H415 C411 0.930 . S
H416 C413 0.929 . S
S417 N418 1.613 . S
S417 N419 1.610 . S
N418 S417 1.613 . S
N418 C421 1.350 . S
N419 S417 1.610 . S
N419 C420 1.351 . S
C420 C414 1.428 . S
C420 N419 1.351 . S
C420 C421 1.434 . S
C421 C412 1.429 . S
C421 N418 1.350 . S
C421 C420 1.434 . S
C422 C423 1.369 . S
C422 C424 1.419 . S
C422 H426 0.930 . S
C423 C422 1.369 . S
C423 C432 1.429 . S
C424 C422 1.419 . S
C424 C425 1.363 . S
C424 H427 0.929 . S
C425 C424 1.363 . S
C425 C431 1.428 . S
H426 C422 0.930 . S
H427 C424 0.929 . S
S428 N429 1.613 . S
S428 N430 1.610 . S
N429 S428 1.613 . S
N429 C432 1.350 . S
N430 S428 1.610 . S
N430 C431 1.351 . S
C431 C425 1.428 . S
C431 N430 1.351 . S
C431 C432 1.434 . S
C432 C423 1.429 . S
C432 N429 1.350 . S
C432 C431 1.434 . S
C433 C434 1.369 . S
C433 C435 1.419 . S
C433 H437 0.930 . S
C434 C433 1.369 . S
C434 C443 1.429 . S
C435 C433 1.419 . S
C435 C436 1.363 . S
C435 H438 0.929 . S
C436 C435 1.363 . S
C436 C442 1.428 . S
H437 C433 0.930 . S
H438 C435 0.929 . S
S439 N440 1.613 . S
S439 N441 1.610 1_554 S
N440 S439 1.613 . S
N440 C443 1.350 1_554 S
N441 S439 1.610 1_556 S
N441 C442 1.351 . S
C442 C436 1.428 . S
C442 N441 1.351 . S
C442 C443 1.434 . S
C443 C434 1.429 . S
C443 N440 1.350 1_556 S
C443 C442 1.434 . S
C444 C445 1.369 . S
C444 C446 1.419 . S
C444 H448 0.930 . S
C445 C444 1.369 . S
C445 C454 1.429 . S
C446 C444 1.419 . S
C446 C447 1.363 . S
C446 H449 0.929 . S
C447 C446 1.363 . S
C447 C453 1.428 . S
H448 C444 0.930 . S
H449 C446 0.929 . S
S450 N451 1.613 . S
S450 N452 1.610 . S
N451 S450 1.613 . S
N451 C454 1.350 . S
N452 S450 1.610 . S
N452 C453 1.351 . S
C453 C447 1.428 . S
C453 N452 1.351 . S
C453 C454 1.434 . S
C454 C445 1.429 . S
C454 N451 1.350 . S
C454 C453 1.434 . S
C455 C456 1.369 . S
C455 C457 1.419 . S
C455 H459 0.930 . S
C456 C455 1.369 . S
C456 C465 1.429 . S
C457 C455 1.419 . S
C457 C458 1.363 . S
C457 H460 0.929 . S
C458 C457 1.363 . S
C458 C464 1.428 . S
H459 C455 0.930 . S
H460 C457 0.929 . S
S461 N462 1.613 . S
S461 N463 1.610 . S
N462 S461 1.613 . S
N462 C465 1.350 . S
N463 S461 1.610 . S
N463 C464 1.351 . S
C464 C458 1.428 . S
C464 N463 1.351 . S
C464 C465 1.434 . S
C465 C456 1.429 . S
C465 N462 1.350 . S
C465 C464 1.434 . S
C466 C467 1.369 . S
C466 C468 1.419 . S
C466 H470 0.930 . S
C467 C466 1.369 . S
C467 C476 1.429 . S
C468 C466 1.419 . S
C468 C469 1.363 . S
C468 H471 0.929 . S
C469 C468 1.363 . S
C469 C475 1.428 . S
H470 C466 0.930 . S
H471 C468 0.929 . S
S472 N473 1.613 . S
S472 N474 1.610 . S
N473 S472 1.613 . S
N473 C476 1.350 . S
N474 S472 1.610 . S
N474 C475 1.351 . S
C475 C469 1.428 . S
C475 N474 1.351 . S
C475 C476 1.434 . S
C476 C467 1.429 . S
C476 N473 1.350 . S
C476 C475 1.434 . S
C477 C478 1.369 . S
C477 C479 1.419 . S
C477 H481 0.930 . S
C478 C477 1.369 . S
C478 C487 1.429 . S
C479 C477 1.419 . S
C479 C480 1.363 . S
C479 H482 0.929 . S
C480 C479 1.363 . S
C480 C486 1.428 . S
H481 C477 0.930 . S
H482 C479 0.929 . S
S483 N484 1.613 . S
S483 N485 1.610 . S
N484 S483 1.613 . S
N484 C487 1.350 . S
N485 S483 1.610 . S
N485 C486 1.351 . S
C486 C480 1.428 . S
C486 N485 1.351 . S
C486 C487 1.434 . S
C487 C478 1.429 . S
C487 N484 1.350 . S
C487 C486 1.434 . S
C488 C489 1.369 . S
C488 C490 1.419 . S
C488 H492 0.930 . S
C489 C488 1.369 . S
C489 C498 1.429 . S
C490 C488 1.419 . S
C490 C491 1.363 . S
C490 H493 0.929 . S
C491 C490 1.363 . S
C491 C497 1.428 . S
H492 C488 0.930 . S
H493 C490 0.929 . S
S494 N495 1.613 . S
S494 N496 1.610 1_554 S
N495 S494 1.613 . S
N495 C498 1.350 1_554 S
N496 S494 1.610 1_556 S
N496 C497 1.351 . S
C497 C491 1.428 . S
C497 N496 1.351 . S
C497 C498 1.434 . S
C498 C489 1.429 . S
C498 N495 1.350 1_556 S
C498 C497 1.434 . S
C499 C500 1.369 . S
C499 C501 1.419 . S
C499 H503 0.930 . S
C500 C499 1.369 . S
C500 C509 1.429 . S
C501 C499 1.419 . S
C501 C502 1.363 . S
C501 H504 0.929 . S
C502 C501 1.363 . S
C502 C508 1.428 . S
H503 C499 0.930 . S
H504 C501 0.929 . S
S505 N506 1.613 . S
S505 N507 1.610 . S
N506 S505 1.613 . S
N506 C509 1.350 . S
N507 S505 1.610 . S
N507 C508 1.351 . S
C508 C502 1.428 . S
C508 N507 1.351 . S
C508 C509 1.434 . S
C509 C500 1.429 . S
C509 N506 1.350 . S
C509 C508 1.434 . S
C510 C511 1.369 . S
C510 C512 1.419 . S
C510 H514 0.930 . S
C511 C510 1.369 . S
C511 C520 1.429 . S
C512 C510 1.419 . S
C512 C513 1.363 . S
C512 H515 0.929 . S
C513 C512 1.363 . S
C513 C519 1.428 . S
H514 C510 0.930 . S
H515 C512 0.929 . S
S516 N517 1.613 . S
S516 N518 1.610 . S
N517 S516 1.613 . S
N517 C520 1.350 . S
N518 S516 1.610 . S
N518 C519 1.351 . S
C519 C513 1.428 . S
C519 N518 1.351 . S
C519 C520 1.434 . S
C520 C511 1.429 . S
C520 N517 1.350 . S
C520 C519 1.434 . S
C521 C522 1.369 . S
C521 C523 1.419 . S
C521 H525 0.930 . S
C522 C521 1.369 . S
C522 C531 1.429 . S
C523 C521 1.419 . S
C523 C524 1.363 . S
C523 H526 0.929 . S
C524 C523 1.363 . S
C524 C530 1.428 . S
H525 C521 0.930 . S
H526 C523 0.929 . S
S527 N528 1.613 . S
S527 N529 1.610 . S
N528 S527 1.613 . S
N528 C531 1.350 . S
N529 S527 1.610 . S
N529 C530 1.351 . S
C530 C524 1.428 . S
C530 N529 1.351 . S
C530 C531 1.434 . S
C531 C522 1.429 . S
C531 N528 1.350 . S
C531 C530 1.434 . S
C532 C533 1.369 . S
C532 C534 1.419 . S
C532 H536 0.930 . S
C533 C532 1.369 . S
C533 C542 1.429 . S
C534 C532 1.419 . S
C534 C535 1.363 . S
C534 H537 0.929 . S
C535 C534 1.363 . S
C535 C541 1.428 . S
H536 C532 0.930 . S
H537 C534 0.929 . S
S538 N539 1.613 . S
S538 N540 1.610 . S
N539 S538 1.613 . S
N539 C542 1.350 . S
N540 S538 1.610 . S
N540 C541 1.351 . S
C541 C535 1.428 . S
C541 N540 1.351 . S
C541 C542 1.434 . S
C542 C533 1.429 . S
C542 N539 1.350 . S
C542 C541 1.434 . S
C543 C544 1.369 . S
C543 C545 1.419 . S
C543 H547 0.930 . S
C544 C543 1.369 . S
C544 C553 1.429 . S
C545 C543 1.419 . S
C545 C546 1.363 . S
C545 H548 0.929 . S
C546 C545 1.363 . S
C546 C552 1.428 . S
H547 C543 0.930 . S
H548 C545 0.929 . S
S549 N550 1.613 . S
S549 N551 1.610 . S
N550 S549 1.613 . S
N550 C553 1.350 . S
N551 S549 1.610 . S
N551 C552 1.351 . S
C552 C546 1.428 . S
C552 N551 1.351 . S
C552 C553 1.434 . S
C553 C544 1.429 . S
C553 N550 1.350 . S
C553 C552 1.434 . S
C554 C555 1.369 . S
C554 C556 1.419 . S
C554 H558 0.930 . S
C555 C554 1.369 . S
C555 C564 1.429 . S
C556 C554 1.419 . S
C556 C557 1.363 . S
C556 H559 0.929 . S
C557 C556 1.363 . S
C557 C563 1.428 . S
H558 C554 0.930 . S
H559 C556 0.929 . S
S560 N561 1.613 . S
S560 N562 1.610 . S
N561 S560 1.613 . S
N561 C564 1.350 . S
N562 S560 1.610 . S
N562 C563 1.351 . S
C563 C557 1.428 . S
C563 N562 1.351 . S
C563 C564 1.434 . S
C564 C555 1.429 . S
C564 N561 1.350 . S
C564 C563 1.434 . S
C565 C566 1.369 . S
C565 C567 1.419 . S
C565 H569 0.930 . S
C566 C565 1.369 . S
C566 C575 1.429 . S
C567 C565 1.419 . S
C567 C568 1.363 . S
C567 H570 0.929 . S
C568 C567 1.363 . S
C568 C574 1.428 . S
H569 C565 0.930 . S
H570 C567 0.929 . S
S571 N572 1.613 . S
S571 N573 1.610 . S
N572 S571 1.613 . S
N572 C575 1.350 . S
N573 S571 1.610 . S
N573 C574 1.351 . S
C574 C568 1.428 . S
C574 N573 1.351 . S
C574 C575 1.434 . S
C575 C566 1.429 . S
C575 N572 1.350 . S
C575 C574 1.434 . S
C225 C0 1.455 . S
C227 C168 1.453 . S
C236 C19 1.420 . S
C238 C75 1.420 . S
C247 C28 1.453 . S
C249 C196 1.455 . S
C258 C103 1.421 . S
C260 C47 1.419 . S
C269 C201 1.418 . S
C271 C33 1.421 . S
C280 C98 1.455 . S
C282 C42 1.453 . S
C291 C173 1.420 . S
C293 C5 1.420 . S
C302 C70 1.453 . S
C304 C14 1.454 . S
C313 C56 1.453 . S
C315 C112 1.454 . S
C324 C84 1.452 . S
C326 C140 1.455 . S
C335 C145 1.419 . S
C337 C89 1.420 . S
C346 C61 1.420 . S
C348 C117 1.419 . S
C357 C187 1.421 . S
C359 C131 1.419 . S
C368 C159 1.421 . S
C370 C215 1.419 . S
C379 C154 1.455 . S
C381 C210 1.453 . S
C390 C126 1.455 . S
C392 C182 1.453 . S
C401 C165 1.489 . S
C403 C11 1.489 . S
C412 C121 1.484 . S
C414 C23 1.484 . S
C423 C39 1.488 . S
C425 C137 1.489 . S
C434 C149 1.483 . S
C436 C51 1.481 . S
C445 C163 1.483 . S
C447 C37 1.484 . S
C456 C53 1.489 . S
C458 C123 1.489 . S
C467 C135 1.481 . S
C469 C9 1.481 . S
C478 C151 1.489 . S
C480 C25 1.489 . S
C489 C67 1.489 . S
C491 C221 1.489 . S
C500 C177 1.483 . S
C502 C79 1.481 . S
C511 C95 1.489 . S
C513 C193 1.489 . S
C522 C107 1.483 . S
C524 C205 1.481 . S
C533 C93 1.480 . S
C535 C219 1.482 . S
C544 C179 1.489 . S
C546 C109 1.489 . S
C555 C191 1.482 . S
C557 C65 1.481 . S
C566 C207 1.489 . S
C568 C81 1.489 . S
