# Generated by pormake.
# Topology lcy-e, (6)-cn, num edge types: 1
# Building blocks:
#     Node 0, Type 0, BuildingBlock: VOLQOD_clean_sbu_1, # of connection points: 6
#     Node 1, Type 0, BuildingBlock: VOLQOD_clean_sbu_1, # of connection points: 6
#     Node 2, Type 0, BuildingBlock: VOLQOD_clean_sbu_1, # of connection points: 6
#     Node 3, Type 0, BuildingBlock: VOLQOD_clean_sbu_1, # of connection points: 6
#     Node 4, Type 0, BuildingBlock: VOLQOD_clean_sbu_1, # of connection points: 6
#     Node 5, Type 0, BuildingBlock: VOLQOD_clean_sbu_1, # of connection points: 6
#     Node 6, Type 0, BuildingBlock: VOLQOD_clean_sbu_1, # of connection points: 6
#     Node 7, Type 0, BuildingBlock: VOLQOD_clean_sbu_1, # of connection points: 6
#     Node 8, Type 0, BuildingBlock: VOLQOD_clean_sbu_1, # of connection points: 6
#     Node 9, Type 0, BuildingBlock: VOLQOD_clean_sbu_1, # of connection points: 6
#     Node 10, Type 0, BuildingBlock: VOLQOD_clean_sbu_1, # of connection points: 6
#     Node 11, Type 0, BuildingBlock: VOLQOD_clean_sbu_1, # of connection points: 6
#     Edge 12, Type (0, 0), BuildingBlock: EZIPEK_clean_linker_0, # of connection points: 2
#     Edge 13, Type (0, 0), BuildingBlock: EZIPEK_clean_linker_0, # of connection points: 2
#     Edge 14, Type (0, 0), BuildingBlock: EZIPEK_clean_linker_0, # of connection points: 2
#     Edge 15, Type (0, 0), BuildingBlock: EZIPEK_clean_linker_0, # of connection points: 2
#     Edge 16, Type (0, 0), BuildingBlock: EZIPEK_clean_linker_0, # of connection points: 2
#     Edge 17, Type (0, 0), BuildingBlock: EZIPEK_clean_linker_0, # of connection points: 2
#     Edge 18, Type (0, 0), BuildingBlock: EZIPEK_clean_linker_0, # of connection points: 2
#     Edge 19, Type (0, 0), BuildingBlock: EZIPEK_clean_linker_0, # of connection points: 2
#     Edge 20, Type (0, 0), BuildingBlock: EZIPEK_clean_linker_0, # of connection points: 2
#     Edge 21, Type (0, 0), BuildingBlock: EZIPEK_clean_linker_0, # of connection points: 2
#     Edge 22, Type (0, 0), BuildingBlock: EZIPEK_clean_linker_0, # of connection points: 2
#     Edge 23, Type (0, 0), BuildingBlock: EZIPEK_clean_linker_0, # of connection points: 2
#     Edge 24, Type (0, 0), BuildingBlock: EZIPEK_clean_linker_0, # of connection points: 2
#     Edge 25, Type (0, 0), BuildingBlock: EZIPEK_clean_linker_0, # of connection points: 2
#     Edge 26, Type (0, 0), BuildingBlock: EZIPEK_clean_linker_0, # of connection points: 2
#     Edge 27, Type (0, 0), BuildingBlock: EZIPEK_clean_linker_0, # of connection points: 2
#     Edge 28, Type (0, 0), BuildingBlock: EZIPEK_clean_linker_0, # of connection points: 2
#     Edge 29, Type (0, 0), BuildingBlock: EZIPEK_clean_linker_0, # of connection points: 2
#     Edge 30, Type (0, 0), BuildingBlock: EZIPEK_clean_linker_0, # of connection points: 2
#     Edge 31, Type (0, 0), BuildingBlock: EZIPEK_clean_linker_0, # of connection points: 2
#     Edge 32, Type (0, 0), BuildingBlock: EZIPEK_clean_linker_0, # of connection points: 2
#     Edge 33, Type (0, 0), BuildingBlock: EZIPEK_clean_linker_0, # of connection points: 2
#     Edge 34, Type (0, 0), BuildingBlock: EZIPEK_clean_linker_0, # of connection points: 2
#     Edge 35, Type (0, 0), BuildingBlock: EZIPEK_clean_linker_0, # of connection points: 2
#     Edge 36, Type (0, 0), BuildingBlock: EZIPEK_clean_linker_0, # of connection points: 2
#     Edge 37, Type (0, 0), BuildingBlock: EZIPEK_clean_linker_0, # of connection points: 2
#     Edge 38, Type (0, 0), BuildingBlock: EZIPEK_clean_linker_0, # of connection points: 2
#     Edge 39, Type (0, 0), BuildingBlock: EZIPEK_clean_linker_0, # of connection points: 2
#     Edge 40, Type (0, 0), BuildingBlock: EZIPEK_clean_linker_0, # of connection points: 2
#     Edge 41, Type (0, 0), BuildingBlock: EZIPEK_clean_linker_0, # of connection points: 2
#     Edge 42, Type (0, 0), BuildingBlock: EZIPEK_clean_linker_0, # of connection points: 2
#     Edge 43, Type (0, 0), BuildingBlock: EZIPEK_clean_linker_0, # of connection points: 2
#     Edge 44, Type (0, 0), BuildingBlock: EZIPEK_clean_linker_0, # of connection points: 2
#     Edge 45, Type (0, 0), BuildingBlock: EZIPEK_clean_linker_0, # of connection points: 2
#     Edge 46, Type (0, 0), BuildingBlock: EZIPEK_clean_linker_0, # of connection points: 2
#     Edge 47, Type (0, 0), BuildingBlock: EZIPEK_clean_linker_0, # of connection points: 2
# Relax obj value: 0.403
# Max RMSD: 0.290
# Mean RMSD: 0.282
data_MOF--net-lcy-e--node1-VOLQOD_clean_sbu_1--edge1-EZIPEK_clean_linker_0
_symmetry_space_group_name_H-M    P1
_symmetry_Int_Tables_number       1
_symmetry_cell_setting            triclinic
loop_
_symmetry_equiv_pos_as_xyz
'x, y, z'
_cell_length_a     29.060972
_cell_length_b     28.933199
_cell_length_c     29.004062
_cell_angle_alpha  89.924959
_cell_angle_beta   90.311585
_cell_angle_gamma 90.237398
loop_
_atom_site_label
_atom_site_type_symbol
_atom_site_fract_x
_atom_site_fract_y
_atom_site_fract_z
_atom_type_partial_charge
O0 O 0.24296 0.13498 0.41999 0.0
Zn1 Zn 0.20297 0.14333 0.47656 0.0
O2 O 0.14354 0.16596 0.45614 0.0
Zn3 Zn 0.13106 0.22751 0.47642 0.0
Zn4 Zn 0.14122 0.16586 0.39085 0.0
Zn5 Zn 0.09493 0.12734 0.47644 0.0
O6 O 0.08476 0.2274 0.52731 0.0
O7 O 0.06866 0.15247 0.53408 0.0
O8 O 0.23428 0.19167 0.51771 0.0
O9 O 0.18703 0.25131 0.5068 0.0
O10 O 0.11784 0.27159 0.42423 0.0
O11 O 0.14949 0.23026 0.36809 0.0
O12 O 0.08046 0.14689 0.36603 0.0
O13 O 0.19357 0.08086 0.50908 0.0
O14 O 0.04537 0.12268 0.42879 0.0
O15 O 0.11951 0.06629 0.49352 0.0
C16 C 0.23166 0.1249 0.37862 0.0
C17 C 0.06619 0.19372 0.54857 0.0
C18 C 0.13346 0.26802 0.38346 0.0
C19 C 0.22381 0.23416 0.52304 0.0
C20 C 0.04451 0.13257 0.38599 0.0
C21 C 0.15838 0.0541 0.50962 0.0
O22 O 0.18996 0.12574 0.36531 0.0
O23 O 0.03222 0.70774 0.62363 0.0
Zn24 Zn 0.98329 0.75413 0.63935 0.0
O25 O 0.01323 0.81198 0.65401 0.0
Zn26 Zn -0.00278 0.8242 0.71482 0.0
Zn27 Zn 0.07839 0.80991 0.65217 0.0
Zn28 Zn -0.00981 0.86418 0.62158 0.0
O29 O 0.93486 0.85112 0.71553 0.0
O30 O 0.93773 0.89711 0.65483 0.0
O31 O 0.95033 0.72893 0.69745 0.0
O32 O -0.00767 0.76645 0.74955 0.0
O33 O 0.04432 0.86278 0.74648 0.0
O34 O 0.10287 0.82537 0.71478 0.0
O35 O 0.10367 0.85984 0.61065 0.0
O36 O 0.94305 0.76446 0.58219 0.0
O37 O 0.04256 0.90562 0.60179 0.0
O38 O 0.96104 0.8382 0.56654 0.0
C39 C 0.07606 0.70906 0.62495 0.0
C40 C 0.91675 0.88207 0.69034 0.0
C41 C 0.08636 0.85088 0.74633 0.0
C42 C 0.96373 0.73496 0.73921 0.0
C43 C 0.08537 0.89737 0.5967 0.0
C44 C 0.94178 0.80009 0.55602 0.0
O45 O 0.09829 0.74589 0.63483 0.0
O46 O 0.41839 0.84046 0.93157 0.0
Zn47 Zn 0.3761 0.79413 0.96411 0.0
O48 O 0.31335 0.81642 0.96221 0.0
Zn49 Zn 0.28717 0.82724 0.02201 0.0
Zn50 Zn 0.31261 0.873 0.92959 0.0
Zn51 Zn 0.27529 0.77533 0.92848 0.0
O52 O 0.23366 0.78176 0.03331 0.0
O53 O 0.23871 0.73742 0.97119 0.0
O54 O 0.39391 0.78118 0.0313 0.0
O55 O 0.33524 0.81199 0.06911 0.0
O56 O 0.27488 0.89587 0.03255 0.0
O57 O 0.31515 0.92383 0.97433 0.0
O58 O 0.25576 0.88186 0.89268 0.0
O59 O 0.38238 0.73708 0.92413 0.0
O60 O 0.23117 0.80926 0.88868 0.0
O61 O 0.3135 0.73458 0.89003 0.0
C62 C 0.40795 0.86635 0.8973 0.0
C63 C 0.22196 0.74555 0.01072 0.0
C64 C 0.29429 0.92988 0.01227 0.0
C65 C 0.37429 0.79227 0.06912 0.0
C66 C 0.22737 0.85172 0.8783 0.0
C67 C 0.35476 0.72074 0.89394 0.0
O68 O 0.36648 0.87698 0.88835 0.0
O69 O 0.41419 0.06286 0.13085 0.0
Zn70 Zn 0.44832 0.09956 0.17911 0.0
O71 O 0.45756 0.16326 0.15925 0.0
Zn72 Zn 0.52082 0.18276 0.16512 0.0
Zn73 Zn 0.43983 0.16735 0.09635 0.0
Zn74 Zn 0.41977 0.20488 0.19207 0.0
O75 O 0.52921 0.22767 0.21878 0.0
O76 O 0.45632 0.23829 0.23907 0.0
O77 O 0.50914 0.06893 0.19331 0.0
O78 O 0.55762 0.12784 0.18263 0.0
O79 O 0.54764 0.19997 0.10294 0.0
O80 O 0.49668 0.16095 0.06019 0.0
O81 O 0.41057 0.22748 0.08046 0.0
O82 O 0.40519 0.09779 0.23332 0.0
O83 O 0.3888 0.25038 0.15013 0.0
O84 O 0.37515 0.16844 0.22813 0.0
C85 C 0.39086 0.0764 0.09614 0.0
C86 C 0.4991 0.24416 0.24605 0.0
C87 C 0.53635 0.17899 0.0658 0.0
C88 C 0.54972 0.08573 0.19211 0.0
C89 C 0.38965 0.25552 0.10655 0.0
C90 C 0.37555 0.12782 0.24511 0.0
O91 O 0.39447 0.11745 0.08081 0.0
O92 O 0.67596 0.22389 0.47607 0.0
Zn93 Zn 0.62319 0.25813 0.49886 0.0
O94 O 0.64608 0.31697 0.51733 0.0
Zn95 Zn 0.65474 0.31344 0.58212 0.0
Zn96 Zn 0.70349 0.33313 0.48786 0.0
Zn97 Zn 0.5988 0.35881 0.50165 0.0
O98 O 0.60354 0.34561 0.61486 0.0
O99 O 0.55907 0.37067 0.55714 0.0
O100 O 0.59771 0.22134 0.55204 0.0
O101 O 0.65091 0.24741 0.60075 0.0
O102 O 0.71548 0.33978 0.60188 0.0
O103 O 0.74969 0.35402 0.53497 0.0
O104 O 0.69395 0.39017 0.44773 0.0
O105 O 0.58117 0.26309 0.44492 0.0
O106 O 0.62972 0.41554 0.48124 0.0
O107 O 0.56283 0.33742 0.44555 0.0
C108 C 0.71571 0.23339 0.46069 0.0
C109 C 0.56713 0.365 0.60006 0.0
C110 C 0.74977 0.35415 0.57877 0.0
C111 C 0.62074 0.21741 0.58929 0.0
C112 C 0.6646 0.42201 0.45558 0.0
C113 C 0.56123 0.29768 0.42684 0.0
O114 O 0.73108 0.27487 0.45944 0.0
O115 O 0.93397 0.23071 0.83866 0.0
Zn116 Zn 0.98395 0.27437 0.82006 0.0
O117 O 0.95724 0.3334 0.80518 0.0
Zn118 Zn 0.98165 0.35816 0.74958 0.0
Zn119 Zn 0.892 0.33108 0.80172 0.0
Zn120 Zn 0.97467 0.37376 0.85249 0.0
O121 O 0.03977 0.39433 0.76228 0.0
O122 O 0.03449 0.40466 0.83796 0.0
O123 O 0.01131 0.24689 0.76243 0.0
O124 O 0.00023 0.30463 0.71257 0.0
O125 O 0.93284 0.38957 0.71117 0.0
O126 O 0.8728 0.34986 0.73845 0.0
O127 O 0.86301 0.37456 0.84658 0.0
O128 O 0.02833 0.28151 0.87391 0.0
O129 O 0.92396 0.41668 0.86699 0.0
O130 O -0.01103 0.33724 0.90812 0.0
C131 C 0.8906 0.23227 0.83272 0.0
C132 C 0.05645 0.40866 0.80041 0.0
C133 C 0.89118 0.37576 0.70808 0.0
C134 C 0.01212 0.26343 0.72166 0.0
C135 C 0.88069 0.40935 0.86676 0.0
C136 C 0.02032 0.30678 0.90897 0.0
O137 O 0.87025 0.26767 0.81662 0.0
O138 O 0.93084 0.65786 0.06179 0.0
Zn139 Zn 0.88867 0.69375 0.02 0.0
O140 O 0.82784 0.66544 0.02417 0.0
Zn141 Zn 0.80121 0.65733 0.96363 0.0
Zn142 Zn 0.82707 0.60874 0.05889 0.0
Zn143 Zn 0.79063 0.7061 0.05792 0.0
O144 O 0.7511 0.70455 0.95027 0.0
O145 O 0.75755 0.74531 0.01497 0.0
O146 O 0.91087 0.69746 0.95273 0.0
O147 O 0.84752 0.67329 0.91677 0.0
O148 O 0.79167 0.58987 0.94992 0.0
O149 O 0.81624 0.55795 0.01542 0.0
O150 O 0.77733 0.60527 0.10642 0.0
O151 O 0.88994 0.75711 0.04898 0.0
O152 O 0.74644 0.6749 0.09861 0.0
O153 O 0.82928 0.74798 0.09468 0.0
C154 C 0.9266 0.62207 0.08713 0.0
C155 C 0.74298 0.74073 0.974 0.0
C156 C 0.80418 0.55472 0.9734 0.0
C157 C 0.88856 0.68819 0.91573 0.0
C158 C 0.74682 0.63487 0.1163 0.0
C159 C 0.86583 0.76917 0.08338 0.0
O160 O 0.88889 0.59948 0.08868 0.0
O161 O 0.55881 0.56442 0.3524 0.0
Zn162 Zn 0.52705 0.60244 0.30434 0.0
O163 O 0.51332 0.66392 0.32716 0.0
Zn164 Zn 0.44834 0.67439 0.32482 0.0
Zn165 Zn 0.53475 0.66672 0.3892 0.0
Zn166 Zn 0.54488 0.71128 0.294 0.0
O167 O 0.43297 0.72018 0.27406 0.0
O168 O 0.50185 0.74341 0.25084 0.0
O169 O 0.47147 0.56914 0.27928 0.0
O170 O 0.41771 0.61959 0.29885 0.0
O171 O 0.42099 0.67845 0.38913 0.0
O172 O 0.48133 0.65131 0.42864 0.0
O173 O 0.56102 0.72818 0.40666 0.0
O174 O 0.57347 0.60732 0.25454 0.0
O175 O 0.57481 0.7562 0.3367 0.0
O176 O 0.59354 0.68184 0.25586 0.0
C177 C 0.58616 0.57852 0.38385 0.0
C178 C 0.45843 0.7419 0.24542 0.0
C179 C 0.43864 0.66065 0.42552 0.0
C180 C 0.42962 0.58143 0.2814 0.0
C181 C 0.57784 0.75896 0.38037 0.0
C182 C 0.5988 0.64068 0.24147 0.0
O183 O 0.58504 0.62001 0.39817 0.0
O184 O 0.15164 0.44362 0.24099 0.0
Zn185 Zn 0.16603 0.49299 0.1941 0.0
O186 O 0.17171 0.46472 0.13435 0.0
Zn187 Zn 0.22531 0.48546 0.10305 0.0
Zn188 Zn 0.17474 0.39972 0.13744 0.0
Zn189 Zn 0.12044 0.48364 0.09913 0.0
O190 O 0.21238 0.54407 0.06865 0.0
O191 O 0.13586 0.54516 0.06924 0.0
O192 O 0.22807 0.52035 0.21241 0.0
O193 O 0.27015 0.50267 0.15087 0.0
O194 O 0.25664 0.43497 0.06794 0.0
O195 O 0.23746 0.38016 0.11849 0.0
O196 O 0.1327 0.37133 0.0908 0.0
O197 O 0.11349 0.53957 0.19058 0.0
O198 O 0.1021 0.43249 0.05521 0.0
O199 O 0.0701 0.49801 0.14296 0.0
C200 C 0.15172 0.39964 0.23855 0.0
C201 C 0.1744 0.5644 0.06056 0.0
C202 C 0.26302 0.39548 0.08632 0.0
C203 C 0.26669 0.51771 0.19176 0.0
C204 C 0.10825 0.38894 0.05886 0.0
C205 C 0.07487 0.53172 0.17074 0.0
O206 O 0.16061 0.37815 0.20137 0.0
O207 O 0.75612 0.98001 0.78509 0.0
Zn208 Zn 0.72436 -0.0031 0.84202 0.0
O209 O 0.66328 0.01139 0.82852 0.0
Zn210 Zn 0.66014 0.07598 0.82548 0.0
Zn211 Zn 0.64749 0.98449 0.76927 0.0
Zn212 Zn 0.62723 -0.00815 0.87926 0.0
O213 O 0.63391 0.1043 0.88132 0.0
O214 O 0.61409 0.04365 0.92389 0.0
O215 O 0.75909 0.05032 0.86777 0.0
O216 O 0.72408 0.1016 0.8224 0.0
O217 O 0.62194 0.09381 0.77192 0.0
O218 O 0.64021 0.03796 0.72335 0.0
O219 O 0.58588 0.94998 0.77851 0.0
O220 O 0.72536 0.94002 0.88003 0.0
O221 O 0.57059 0.96726 0.85224 0.0
O222 O 0.65564 0.93763 0.91073 0.0
C223 C 0.74359 0.95233 0.75352 0.0
C224 C 0.61793 0.08716 0.91814 0.0
C225 C 0.62609 0.07897 0.73102 0.0
C226 C 0.75796 0.08935 0.84759 0.0
C227 C 0.55941 0.94924 0.81378 0.0
C228 C 0.6951 0.92005 0.90456 0.0
O229 O 0.70099 0.94352 0.74611 0.0
O230 O 0.83697 0.92372 0.42262 0.0
Zn231 Zn 0.79 0.95932 0.38563 0.0
O232 O 0.8041 0.95882 0.3211 0.0
Zn233 Zn 0.80143 0.0193 0.29534 0.0
Zn234 Zn 0.86435 0.936 0.31695 0.0
Zn235 Zn 0.76626 0.91906 0.28622 0.0
O236 O 0.75419 0.02474 0.24453 0.0
O237 O 0.71927 0.95691 0.25401 0.0
O238 O 0.78516 0.02512 0.40903 0.0
O239 O 0.77844 0.06272 0.34274 0.0
O240 O 0.8658 0.04268 0.28375 0.0
O241 O 0.90526 0.99009 0.32409 0.0
O242 O 0.87544 0.90727 0.25671 0.0
O243 O 0.73144 0.9227 0.3939 0.0
O244 O 0.80401 0.88482 0.23931 0.0
O245 O 0.73089 0.87971 0.32968 0.0
C246 C 0.86348 0.89181 0.40856 0.0
C247 C 0.72008 -0.00231 0.2378 0.0
C248 C 0.90191 0.02983 0.30546 0.0
C249 C 0.77774 0.06226 0.3865 0.0
C250 C 0.84708 0.88588 0.23105 0.0
C251 C 0.71586 0.88913 0.36981 0.0
O252 O 0.8741 0.88857 0.36623 0.0
O253 O 0.31897 0.53437 0.56823 0.0
Zn254 Zn 0.28082 0.49918 0.61408 0.0
O255 O 0.30914 0.50357 0.67468 0.0
Zn256 Zn 0.31563 0.44378 0.70397 0.0
Zn257 Zn 0.36883 0.53121 0.67021 0.0
Zn258 Zn 0.27283 0.54231 0.71246 0.0
O259 O 0.2707 0.43641 0.75711 0.0
O260 O 0.23538 0.5039 0.75445 0.0
O261 O 0.27365 0.43199 0.59515 0.0
O262 O 0.29712 0.39548 0.65863 0.0
O263 O 0.38271 0.42811 0.7165 0.0
O264 O 0.41412 0.48019 0.66947 0.0
O265 O 0.38281 0.57322 0.72365 0.0
O266 O 0.22006 0.53274 0.61238 0.0
O267 O 0.31214 0.5839 0.75074 0.0
O268 O 0.2283 0.5778 0.67423 0.0
C269 C 0.35278 0.56214 0.57309 0.0
C270 C 0.23888 0.46331 0.77084 0.0
C271 C 0.41616 0.44239 0.69183 0.0
C272 C 0.28176 0.39485 0.61755 0.0
C273 C 0.35522 0.59156 0.75209 0.0
C274 C 0.20776 0.56698 0.63691 0.0
O275 O 0.37409 0.56677 0.61126 0.0
C276 C 0.23892 0.27205 0.59746 0.0
C277 C 0.25232 0.26547 0.55126 0.0
C278 C 0.29494 0.33855 0.55315 0.0
C279 C 0.27344 0.34937 0.59566 0.0
N280 N 0.22107 0.32763 0.65676 0.0
N281 N 0.29307 0.29132 0.48406 0.0
C282 C 0.24498 0.31614 0.61795 0.0
C283 C 0.28094 0.29815 0.52896 0.0
N284 N 0.21937 0.23628 0.62113 0.0
N285 N 0.32941 0.36613 0.5366 0.0
H286 H 0.28517 0.2608 0.46647 0.0
H287 H 0.30899 0.31649 0.4639 0.0
H288 H 0.34137 0.39533 0.55407 0.0
H289 H 0.34906 0.35765 0.50793 0.0
H290 H 0.21221 0.23754 0.65625 0.0
H291 H 0.21503 0.20364 0.60638 0.0
H292 H 0.19633 0.3062 0.67158 0.0
H293 H 0.22242 0.3603 0.67182 0.0
C294 C 0.81302 0.90536 0.76423 0.0
C295 C 0.78119 0.9249 0.7329 0.0
C296 C 0.83523 0.90918 0.67032 0.0
C297 C 0.87044 0.89963 0.70361 0.0
N298 N 0.89314 0.90238 0.78423 0.0
N299 N 0.76321 0.94909 0.65543 0.0
C300 C 0.85941 0.90143 0.75122 0.0
C301 C 0.79245 0.92776 0.68555 0.0
N302 N 0.79894 0.89136 0.80686 0.0
N303 N 0.84126 0.89857 0.62489 0.0
H304 H 0.73123 0.96174 0.66543 0.0
H305 H 0.77209 0.95653 0.62144 0.0
H306 H 0.87037 0.882 0.61243 0.0
H307 H 0.81502 0.9015 0.60043 0.0
H308 H 0.82056 0.8742 0.82998 0.0
H309 H 0.76434 0.89197 0.81626 0.0
H310 H 0.88604 0.9068 0.81916 0.0
H311 H 0.92803 0.90519 0.77641 0.0
C312 C 0.20011 0.69259 0.07633 0.0
C313 C 0.19231 0.70845 0.03083 0.0
C314 C 0.15912 0.63319 0.00929 0.0
C315 C 0.17574 0.61486 0.05149 0.0
N316 N 0.20644 0.62711 0.12821 0.0
N317 N 0.14673 0.70172 0.96203 0.0
C318 C 0.19423 0.64473 0.08611 0.0
C319 C 0.16576 0.68107 -6e-05 0.0
N320 N 0.21077 0.72348 0.11037 0.0
N321 N 0.13976 0.60437 0.97723 0.0
H322 H 0.15022 0.73719 0.95612 0.0
H323 H 0.12437 0.68526 0.93918 0.0
H324 H 0.13425 0.56925 0.98332 0.0
H325 H 0.13108 0.61446 0.94387 0.0
H326 H 0.21469 0.71482 0.14496 0.0
H327 H 0.20971 0.75906 0.10525 0.0
H328 H 0.22514 0.64531 0.15295 0.0
H329 H 0.19896 0.59331 0.13833 0.0
C330 C 0.60523 0.05703 0.25065 0.0
C331 C 0.58947 0.05697 0.20441 0.0
C332 C 0.66024 0.01912 0.179 0.0
C333 C 0.67548 0.01819 0.22541 0.0
N334 N 0.66026 0.02866 0.30671 0.0
N335 N 0.59676 0.0321 0.12564 0.0
C336 C 0.64722 0.0348 0.26166 0.0
C337 C 0.61541 0.03606 0.16884 0.0
N338 N 0.58087 0.08 0.28369 0.0
N339 N 0.6891 0.00489 0.14481 0.0
H340 H 0.56404 0.04446 0.11737 0.0
H341 H 0.61202 0.01395 0.09886 0.0
H342 H 0.72176 0.99153 0.15157 0.0
H343 H 0.68211 0.00888 0.10981 0.0
H344 H 0.59345 0.08679 0.31668 0.0
H345 H 0.54874 0.09477 0.2774 0.0
H346 H 0.63868 0.03471 0.33457 0.0
H347 H 0.69173 0.01448 0.31664 0.0
C348 C 0.76732 0.19148 0.4043 0.0
C349 C 0.744 0.1933 0.44697 0.0
C350 C 0.74524 0.10915 0.45252 0.0
C351 C 0.77028 0.10693 0.41067 0.0
N352 N 0.82084 0.14836 0.35824 0.0
N353 N 0.72965 0.15544 0.51978 0.0
C354 C 0.78653 0.14884 0.39024 0.0
C355 C 0.73986 0.15258 0.47396 0.0
N356 N 0.76906 0.22898 0.37572 0.0
N357 N 0.72313 0.07133 0.47013 0.0
H358 H 0.72702 0.18711 0.5368 0.0
H359 H 0.72919 0.12665 0.54145 0.0
H360 H 0.72136 0.03951 0.45356 0.0
H361 H 0.70144 0.07332 0.49859 0.0
H362 H 0.78138 0.22703 0.34208 0.0
H363 H 0.75499 0.26094 0.3838 0.0
H364 H 0.8361 0.17849 0.34567 0.0
H365 H 0.83786 0.11837 0.34853 0.0
C366 C 0.11946 0.46657 0.81538 0.0
C367 C 0.10575 0.42116 0.80297 0.0
C368 C 0.18672 0.39834 0.79618 0.0
C369 C 0.1992 0.44553 0.7984 0.0
N370 N 0.18296 0.51862 0.83346 0.0
N371 N 0.12578 0.3418 0.78623 0.0
C372 C 0.16711 0.47783 0.81572 0.0
C373 C 0.13928 0.38625 0.79525 0.0
N374 N 0.08696 0.49945 0.82392 0.0
N375 N 0.22009 0.36531 0.79823 0.0
H376 H 0.09178 0.33047 0.78895 0.0
H377 H 0.14797 0.31642 0.77423 0.0
H378 H 0.25439 0.37359 0.80515 0.0
H379 H 0.21335 0.32999 0.79976 0.0
H380 H 0.09454 0.53437 0.82826 0.0
H381 H 0.05176 0.49226 0.82392 0.0
H382 H 0.16222 0.54274 0.84983 0.0
H383 H 0.21816 0.52571 0.83604 0.0
C384 C 0.67438 0.83593 0.9156 0.0
C385 C 0.70545 0.87362 0.92287 0.0
C386 C 0.76359 0.81999 0.95059 0.0
C387 C 0.73029 0.78399 0.95079 0.0
N388 N 0.6525 0.75809 0.93817 0.0
N389 N 0.77641 0.90211 0.9563 0.0
C390 C 0.68513 0.79198 0.93465 0.0
C391 C 0.74925 0.8658 0.9428 0.0
N392 N 0.63625 0.84107 0.88832 0.0
N393 N 0.80913 0.81034 0.95738 0.0
H394 H 0.76576 0.93644 0.95432 0.0
H395 H 0.80736 0.89794 0.97407 0.0
H396 H 0.82133 0.77713 0.96408 0.0
H397 H 0.83514 0.8346 0.95176 0.0
H398 H 0.61513 0.81347 0.87886 0.0
H399 H 0.62832 0.87155 0.87094 0.0
H400 H 0.61767 0.76379 0.93169 0.0
H401 H 0.65994 0.72511 0.9507 0.0
C402 C 0.38126 0.57654 0.21201 0.0
C403 C 0.39423 0.55694 0.25478 0.0
C404 C 0.32555 0.50795 0.25447 0.0
C405 C 0.30953 0.53226 0.21492 0.0
N406 N 0.31981 0.5925 0.158 0.0
N407 N 0.38113 0.50412 0.31724 0.0
C408 C 0.33696 0.56705 0.19392 0.0
C409 C 0.36719 0.52236 0.27605 0.0
N410 N 0.41163 0.60421 0.18878 0.0
N411 N 0.30194 0.47016 0.27017 0.0
H412 H 0.41347 0.51134 0.33134 0.0
H413 H 0.36053 0.48316 0.33784 0.0
H414 H 0.27129 0.45867 0.25525 0.0
H415 H 0.31416 0.44821 0.29587 0.0
H416 H 0.40611 0.61616 0.15534 0.0
H417 H 0.44455 0.61171 0.20134 0.0
H418 H 0.33584 0.62194 0.14494 0.0
H419 H 0.28752 0.58659 0.14344 0.0
C420 C 0.5409 0.30136 0.29686 0.0
C421 C 0.51323 0.26125 0.29207 0.0
C422 C 0.50653 0.2555 0.37605 0.0
C423 C 0.53954 0.29116 0.38102 0.0
N424 N 0.59307 0.34484 0.34581 0.0
N425 N 0.47727 0.1944 0.32746 0.0
C426 C 0.55778 0.31374 0.34138 0.0
C427 C 0.49778 0.23686 0.33176 0.0
N428 N 0.55045 0.32793 0.25911 0.0
N429 N 0.48339 0.23958 0.41381 0.0
H430 H 0.47231 0.17782 0.29591 0.0
H431 H 0.46964 0.17329 0.35555 0.0
H432 H 0.4887 0.25316 0.44675 0.0
H433 H 0.45574 0.21662 0.41165 0.0
H434 H 0.56639 0.36018 0.26117 0.0
H435 H 0.53888 0.31946 0.22605 0.0
H436 H 0.61115 0.35808 0.31781 0.0
H437 H 0.60684 0.35494 0.37748 0.0
C438 C 0.0032 0.21555 0.60231 0.0
C439 C 0.04919 0.20171 0.59533 0.0
C440 C 0.06897 0.21865 0.67558 0.0
C441 C 0.02331 0.23388 0.68224 0.0
N442 N 0.94398 0.2348 0.65761 0.0
N443 N 0.12201 0.1769 0.62705 0.0
C444 C -0.01065 0.22821 0.64731 0.0
C445 C 0.08077 0.19868 0.6327 0.0
N446 N 0.97344 0.21794 0.56573 0.0
N447 N 0.10169 0.22616 0.70882 0.0
H448 H 0.13234 0.16276 0.59571 0.0
H449 H 0.14418 0.16925 0.65432 0.0
H450 H 0.09418 0.24015 0.741 0.0
H451 H 0.13673 0.22118 0.70353 0.0
H452 H 0.94089 0.23269 0.56754 0.0
H453 H 0.98232 0.20709 0.53265 0.0
H454 H 0.91709 0.22788 0.63475 0.0
H455 H 0.93297 0.2433 0.69073 0.0
C456 C 0.96667 0.68569 0.81016 0.0
C457 C 0.94042 0.71279 0.77876 0.0
C458 C 0.8833 0.72687 0.83869 0.0
C459 C 0.9082 0.69781 0.86951 0.0
N460 N 0.96838 0.64187 0.88158 0.0
N461 N 0.86912 0.75116 0.76004 0.0
C462 C 0.94844 0.6749 0.8544 0.0
C463 C 0.89699 0.73028 0.79193 0.0
N464 N 0.00972 0.67146 0.79808 0.0
N465 N 0.8481 0.75353 0.85475 0.0
H466 H 0.87817 0.75549 0.72562 0.0
H467 H 0.83515 0.7603 0.76659 0.0
H468 H 0.83756 0.75313 0.88896 0.0
H469 H 0.83232 0.77945 0.83547 0.0
H470 H 0.03291 0.65659 0.82118 0.0
H471 H 0.0231 0.67688 0.76523 0.0
H472 H -0.00512 0.62057 0.87043 0.0
H473 H 0.95597 0.63308 0.91412 0.0
C474 C 0.46403 0.75878 0.15923 0.0
C475 C 0.43805 0.75898 0.20098 0.0
C476 C 0.3691 0.77259 0.15444 0.0
C477 C 0.39639 0.78135 0.1146 0.0
N478 N 0.47328 0.79799 0.08663 0.0
N479 N 0.36654 0.78143 0.23703 0.0
C480 C 0.44496 0.7795 0.11926 0.0
C481 C 0.39081 0.77096 0.19832 0.0
N482 N 0.5048 0.73575 0.15561 0.0
N483 N 0.32326 0.76255 0.15085 0.0
H484 H 0.38199 0.78457 0.26942 0.0
H485 H 0.33256 0.79288 0.23559 0.0
H486 H 0.30671 0.75672 0.11943 0.0
H487 H 0.3035 0.75323 0.17934 0.0
H488 H 0.52245 0.73343 0.12447 0.0
H489 H 0.51724 0.71301 0.1805 0.0
H490 H 0.50895 0.79913 0.09095 0.0
H491 H 0.46122 0.81751 0.05891 0.0
C492 C 0.09685 0.32764 0.33252 0.0
C493 C 0.1368 0.30908 0.3537 0.0
C494 C 0.18632 0.35397 0.30259 0.0
C495 C 0.14646 0.37239 0.28105 0.0
N496 N 0.06463 0.38534 0.2808 0.0
N497 N 0.21836 0.31311 0.36828 0.0
C498 C 0.10191 0.36223 0.29801 0.0
C499 C 0.18123 0.32513 0.34172 0.0
N500 N 0.05445 0.31035 0.34351 0.0
N501 N 0.22891 0.36274 0.28463 0.0
H502 H 0.21545 0.29236 0.39761 0.0
H503 H 0.25113 0.32709 0.36403 0.0
H504 H 0.23421 0.38478 0.25669 0.0
H505 H 0.2587 0.34595 0.29542 0.0
H506 H 0.02444 0.31846 0.32555 0.0
H507 H 0.04952 0.28563 0.36924 0.0
H508 H 0.03176 0.38275 0.29468 0.0
H509 H 0.06726 0.41002 0.25467 0.0
C510 C 0.94311 0.80924 0.47287 0.0
C511 C 0.9164 0.80026 0.51221 0.0
C512 C 0.85064 0.8378 0.47565 0.0
C513 C 0.88092 0.85701 0.44197 0.0
N514 N 0.95869 0.86405 0.41231 0.0
N515 N 0.84393 0.80227 0.55119 0.0
C516 C 0.92774 0.84269 0.44069 0.0
C517 C 0.86948 0.81235 0.51307 0.0
N518 N 0.98467 0.78797 0.46846 0.0
N519 N 0.80413 0.84348 0.47187 0.0
H520 H 0.85668 0.78178 0.57798 0.0
H521 H 0.81127 0.81564 0.55708 0.0
H522 H 0.78862 0.8619 0.44524 0.0
H523 H 0.78053 0.82637 0.49279 0.0
H524 H 0.00472 0.79034 0.43887 0.0
H525 H -0.00366 0.76418 0.49298 0.0
H526 H -0.00612 0.85745 0.41345 0.0
H527 H 0.95059 0.89209 0.39131 0.0
C528 C 0.37915 0.60873 0.83249 0.0
C529 C 0.37243 0.62441 0.78673 0.0
C530 C 0.3737 0.70462 0.81249 0.0
C531 C 0.37137 0.68852 0.85865 0.0
N532 N 0.37517 0.62675 0.91419 0.0
N533 N 0.36779 0.68588 0.73105 0.0
C534 C 0.3763 0.641 0.86926 0.0
C535 C 0.37225 0.6721 0.77599 0.0
N536 N 0.38743 0.56293 0.84035 0.0
N537 N 0.37627 0.75106 0.80396 0.0
H538 H 0.36871 0.66264 0.70358 0.0
H539 H 0.3619 0.71981 0.72078 0.0
H540 H 0.37575 0.77568 0.8302 0.0
H541 H 0.38203 0.76531 0.77155 0.0
H542 H 0.39578 0.54923 0.87249 0.0
H543 H 0.3896 0.53901 0.81353 0.0
H544 H 0.37345 0.5923 0.92436 0.0
H545 H 0.37436 0.64988 0.94173 0.0
C546 C 0.60768 0.14102 0.03641 0.0
C547 C 0.56985 0.17104 0.02868 0.0
C548 C 0.56831 0.1513 0.94697 0.0
C549 C 0.60403 0.11894 0.95509 0.0
N550 N 0.66746 0.09369 0.0026 0.0
N551 N 0.52609 0.21731 0.9759 0.0
C552 C 0.62699 0.11731 -0.00168 0.0
C553 C 0.55467 0.18068 0.98338 0.0
N554 N 0.62334 0.13303 0.08018 0.0
N555 N 0.54522 0.15176 0.90576 0.0
H556 H 0.51598 0.23903 0.00272 0.0
H557 H 0.51643 0.22872 0.94319 0.0
H558 H 0.55315 0.12989 0.87842 0.0
H559 H 0.51572 0.17123 0.89983 0.0
H560 H 0.64668 0.10712 0.08858 0.0
H561 H 0.61222 0.15165 0.10864 0.0
H562 H 0.68815 0.09475 0.032 0.0
H563 H 0.68261 0.07634 0.9751 0.0
C564 C 0.60881 0.13292 0.61139 0.0
C565 C 0.61081 0.18056 0.62318 0.0
C566 C 0.62752 0.16071 0.70227 0.0
C567 C 0.61988 0.11298 0.69292 0.0
N568 N 0.58934 0.05637 0.63902 0.0
N569 N 0.60173 0.23722 0.68346 0.0
C570 C 0.60613 0.09964 0.64758 0.0
C571 C 0.61248 0.1934 0.67 0.0
N572 N 0.61176 0.11902 0.56656 0.0
N573 N 0.65315 0.17533 0.73916 0.0
H574 H 0.58872 0.26169 0.66039 0.0
H575 H 0.60081 0.24685 0.71811 0.0
H576 H 0.67297 0.15312 0.75933 0.0
H577 H 0.66071 0.21017 0.74478 0.0
H578 H 0.61517 0.0844 0.55731 0.0
H579 H 0.61469 0.14197 0.53904 0.0
H580 H 0.57607 0.04674 0.60696 0.0
H581 H 0.5834 0.03219 0.66498 0.0
C582 C 0.05259 0.3287 0.03107 0.0
C583 C 0.09079 0.35806 0.02238 0.0
C584 C 0.09516 0.32938 0.94319 0.0
C585 C 0.05159 0.30823 0.94914 0.0
N586 N -0.00898 0.28161 -0.0016 0.0
N587 N 0.15079 0.38524 0.97174 0.0
C588 C 0.03158 0.30512 -0.00655 0.0
C589 C 0.11319 0.3576 0.97901 0.0
N590 N 0.03603 0.32427 0.0749 0.0
N591 N 0.11885 0.32277 0.9032 0.0
H592 H 0.16646 0.40459 -0.00218 0.0
H593 H 0.16524 0.39094 0.93947 0.0
H594 H 0.10708 0.30088 0.8772 0.0
H595 H 0.15221 0.33466 0.89768 0.0
H596 H 0.01077 0.30055 0.08434 0.0
H597 H 0.04952 0.34264 0.10282 0.0
H598 H 0.97111 0.28206 0.0281 0.0
H599 H 0.97677 0.26215 0.97153 0.0
C600 C 0.89213 0.82258 0.1944 0.0
C601 C 0.86441 0.86264 0.18986 0.0
C602 C 0.85637 0.8502 0.10719 0.0
C603 C 0.87978 0.80787 0.11269 0.0
N604 N 0.9325 0.76059 0.15525 0.0
N605 N 0.83249 0.92253 0.14167 0.0
C606 C 0.90254 0.79683 0.15429 0.0
C607 C 0.85075 0.87924 0.14595 0.0
N608 N 0.9055 0.80744 0.23709 0.0
N609 N 0.83727 0.86082 0.06547 0.0
H610 H 0.82833 0.94459 0.16978 0.0
H611 H 0.82499 0.93807 0.11015 0.0
H612 H 0.8438 0.84096 0.03629 0.0
H613 H 0.81454 0.88802 0.06007 0.0
H614 H 0.92153 0.77587 0.24298 0.0
H615 H 0.89832 0.8253 0.26738 0.0
H616 H 0.95289 0.75219 0.18364 0.0
H617 H 0.93984 0.74146 0.1257 0.0
C618 C 0.38869 0.56379 0.49531 0.0
C619 C 0.36928 0.58817 0.53271 0.0
C620 C 0.38993 0.66223 0.49685 0.0
C621 C 0.4084 0.63766 0.45916 0.0
N622 N 0.41549 0.5665 0.41662 0.0
N623 N 0.34241 0.65969 0.56545 0.0
C624 C 0.40434 0.58887 0.45649 0.0
C625 C 0.36709 0.63724 0.53238 0.0
N626 N 0.39479 0.51697 0.49802 0.0
N627 N 0.3957 0.70904 0.49935 0.0
H628 H 0.3251 0.64228 0.59174 0.0
H629 H 0.33587 0.69503 0.56474 0.0
H630 H 0.41085 0.72817 0.47289 0.0
H631 H 0.38771 0.7285 0.52837 0.0
H632 H 0.41389 0.49819 0.47431 0.0
H633 H 0.38427 0.49709 0.52609 0.0
H634 H 0.4089 0.53155 0.41115 0.0
H635 H 0.42738 0.58372 0.38738 0.0
C636 C 0.2617 0.1403 0.29925 0.0
C637 C 0.26767 0.11915 0.34317 0.0
C638 C 0.34618 0.09794 0.32171 0.0
C639 C 0.33788 0.11571 0.27677 0.0
N640 N 0.28174 0.13694 0.21895 0.0
N641 N 0.3115 0.06641 0.39078 0.0
C642 C 0.29334 0.13056 0.26422 0.0
C643 C 0.30864 0.09418 0.35279 0.0
N644 N 0.22892 0.17328 0.29176 0.0
N645 N 0.38975 0.08721 0.33582 0.0
H646 H 0.28393 0.06123 0.4131 0.0
H647 H 0.3394 0.04473 0.3971 0.0
H648 H 0.41839 0.09009 0.31456 0.0
H649 H 0.39783 0.07897 0.3699 0.0
H650 H 0.22637 0.19162 0.26088 0.0
H651 H 0.20903 0.18734 0.31788 0.0
H652 H 0.24827 0.14468 0.20839 0.0
H653 H 0.30429 0.12953 0.19209 0.0
C654 C 0.15383 0.9683 0.51044 0.0
C655 C 0.15872 0.01009 0.53532 0.0
C656 C 0.12265 0.97525 0.60293 0.0
C657 C 0.11513 0.93407 0.57726 0.0
N658 N 0.1319 0.88714 0.51074 0.0
N659 N 0.16124 0.04973 0.60798 0.0
C660 C 0.13404 0.929 0.53248 0.0
C661 C 0.14803 0.01203 0.58276 0.0
N662 N 0.16592 0.96738 0.46498 0.0
N663 N 0.10367 0.98 0.64572 0.0
H664 H 0.17971 0.07713 0.59365 0.0
H665 H 0.15794 0.052 0.64362 0.0
H666 H 0.08565 0.95355 0.6622 0.0
H667 H 0.10328 0.01095 0.66395 0.0
H668 H 0.15849 0.94014 0.44274 0.0
H669 H 0.18262 -0.0048 0.4492 0.0
H670 H 0.14849 0.88002 0.47987 0.0
H671 H 0.1157 0.8583 0.52499 0.0
C672 C 0.1596 0.88598 0.77258 0.0
C673 C 0.11717 0.8648 0.78413 0.0
C674 C 0.14377 0.85436 0.86331 0.0
C675 C 0.18881 0.86552 0.84872 0.0
N676 N 0.24096 0.89161 0.78935 0.0
N677 N 0.0686 0.82677 0.84043 0.0
C678 C 0.19709 0.88242 0.80365 0.0
C679 C 0.10855 0.84945 0.82981 0.0
N680 N 0.16399 0.90874 0.73153 0.0
N681 N 0.13506 0.84796 0.90915 0.0
H682 H 0.04164 0.82189 0.81716 0.0
H683 H 0.06339 0.80977 0.87166 0.0
H684 H 0.16057 0.85165 0.93439 0.0
H685 H 0.10206 0.84373 0.92238 0.0
H686 H 0.19265 0.92859 0.72288 0.0
H687 H 0.13691 0.91123 0.70797 0.0
H688 H 0.24941 0.89842 0.75516 0.0
H689 H 0.26963 0.88951 0.81095 0.0
C690 C 0.32657 0.0182 0.10342 0.0
C691 C 0.35684 0.0444 0.0749 0.0
C692 C 0.31857 0.01193 0.00737 0.0
C693 C 0.30014 0.97605 0.03491 0.0
N694 N 0.27579 0.95194 0.1108 0.0
N695 N 0.38352 0.0627 -0.00219 0.0
C696 C 0.3004 0.9814 0.08358 0.0
C697 C 0.35281 0.04112 0.02623 0.0
N698 N 0.32114 0.02994 0.14871 0.0
N699 N 0.30383 0.01728 0.96295 0.0
H700 H 0.41178 0.08152 0.00975 0.0
H701 H 0.38378 0.05743 0.96225 0.0
H702 H 0.27718 -0.00295 0.94932 0.0
H703 H 0.31414 0.04485 0.94218 0.0
H704 H 0.29669 0.0149 0.17019 0.0
H705 H 0.33776 0.05813 0.16378 0.0
H706 H 0.281 0.9489 0.14623 0.0
H707 H 0.24903 0.93156 0.09799 0.0
C708 C 0.87124 0.3564 0.62749 0.0
C709 C 0.86383 0.38495 0.66628 0.0
C710 C 0.78781 0.40565 0.63651 0.0
C711 C 0.79141 0.36941 0.60387 0.0
N712 N 0.8359 0.30813 0.5692 0.0
N713 N 0.81744 0.43955 0.7073 0.0
C714 C 0.83334 0.34491 0.59866 0.0
C715 C 0.82302 0.41111 0.6702 0.0
N716 N 0.91406 0.33905 0.61923 0.0
N717 N 0.75086 0.4347 0.63499 0.0
H718 H 0.844 0.44596 0.73087 0.0
H719 H 0.78644 0.45535 0.71556 0.0
H720 H 0.72495 0.43172 0.61008 0.0
H721 H 0.7479 0.464 0.65553 0.0
H722 H 0.92253 0.32136 0.58923 0.0
H723 H 0.94237 0.3464 0.64021 0.0
H724 H 0.86374 0.28561 0.56832 0.0
H725 H 0.80879 0.29749 0.54805 0.0
C726 C 0.8709 0.44821 0.94094 0.0
C727 C 0.85248 0.43836 0.89704 0.0
C728 C 0.79193 0.49506 0.91082 0.0
C729 C 0.81785 0.51227 0.94881 0.0
N730 N 0.89273 0.51219 0.98779 0.0
N731 N 0.79563 0.45434 0.83795 0.0
C732 C 0.86008 0.49056 0.96124 0.0
C733 C 0.81249 0.46177 0.88133 0.0
N734 N 0.90038 0.41825 0.96223 0.0
N735 N 0.74808 0.51004 0.90316 0.0
H736 H 0.80987 0.4305 0.81529 0.0
H737 H 0.76951 0.47428 0.82341 0.0
H738 H 0.73171 0.53315 0.92519 0.0
H739 H 0.72664 0.49587 0.87792 0.0
H740 H 0.91255 0.42369 -0.00428 0.0
H741 H 0.90811 0.38591 0.9484 0.0
H742 H 0.92477 0.49747 -0.00541 0.0
H743 H 0.89153 0.54705 -0.00341 0.0
C744 C 0.6666 0.61324 0.13413 0.0
C745 C 0.71137 0.62403 0.15024 0.0
C746 C 0.68282 0.63422 0.22845 0.0
C747 C 0.63734 0.63089 0.21077 0.0
N748 N 0.58453 0.61861 0.14741 0.0
N749 N 0.76382 0.64454 0.21153 0.0
C750 C 0.62872 0.61994 0.16389 0.0
C751 C 0.72015 0.63368 0.19729 0.0
N752 N 0.66067 0.59684 0.09031 0.0
N753 N 0.69011 0.63746 0.27499 0.0
H754 H 0.79228 0.64235 0.18986 0.0
H755 H 0.77171 0.65768 0.24402 0.0
H756 H 0.66336 0.63862 0.2988 0.0
H757 H 0.72246 0.63533 0.2904 0.0
H758 H 0.62943 0.58452 0.0775 0.0
H759 H 0.68823 0.59169 0.06797 0.0
H760 H 0.57618 0.61599 0.11257 0.0
H761 H 0.55584 0.62317 0.16835 0.0
C762 C 0.66288 0.47422 0.38671 0.0
C763 C 0.66837 0.46837 0.43479 0.0
C764 C 0.63034 0.54157 0.44981 0.0
C765 C 0.62126 0.546 0.40178 0.0
N766 N 0.64645 0.52774 0.32463 0.0
N767 N 0.67713 0.50451 0.5086 0.0
C768 C 0.64356 0.51604 0.37016 0.0
C769 C 0.65975 0.50566 0.46482 0.0
N770 N 0.67303 0.43908 0.35718 0.0
N771 N 0.60785 0.56802 0.48148 0.0
H772 H 0.69805 0.4774 0.51985 0.0
H773 H 0.6747 0.53218 0.53143 0.0
H774 H 0.58342 0.59281 0.47301 0.0
H775 H 0.61025 0.56225 0.51687 0.0
H776 H 0.66368 0.43934 0.32244 0.0
H777 H 0.68944 0.40894 0.36782 0.0
H778 H 0.66542 0.50889 0.30083 0.0
H779 H 0.63419 0.55911 0.31191 0.0
C780 C 0.34598 0.37632 0.09317 0.0
C781 C 0.3024 0.36689 0.07315 0.0
C782 C 0.32244 0.28598 0.06192 0.0
C783 C 0.36419 0.29438 0.08618 0.0
N784 N 0.42247 0.34796 0.11158 0.0
N785 N 0.25468 0.31902 0.02524 0.0
C786 C 0.37832 0.33995 0.09711 0.0
C787 C 0.29284 0.32371 0.05256 0.0
N788 N 0.35499 0.41902 0.11125 0.0
N789 N 0.30954 0.24179 0.05107 0.0
H790 H 0.23283 0.3468 0.01845 0.0
H791 H 0.24709 0.28948 0.00617 0.0
H792 H 0.33047 0.21321 0.057 0.0
H793 H 0.27715 0.23298 0.03827 0.0
H794 H 0.38359 0.42658 0.13167 0.0
H795 H 0.33272 0.44686 0.10688 0.0
H796 H 0.43621 0.38083 0.11679 0.0
H797 H 0.44669 0.32153 0.11441 0.0
C798 C 0.82918 0.19418 0.8783 0.0
C799 C 0.8627 0.19134 0.84314 0.0
C800 C 0.83536 0.11435 0.82195 0.0
C801 C 0.79737 0.12074 0.85159 0.0
N802 N 0.75693 0.16519 0.90855 0.0
N803 N 0.89685 0.15084 0.77914 0.0
C804 C 0.79415 0.16004 0.88038 0.0
C805 C 0.86623 0.15163 0.81481 0.0
N806 N 0.83145 0.22919 0.90987 0.0
N807 N 0.84151 0.07291 0.80029 0.0
H808 H 0.9202 0.17747 0.77258 0.0
H809 H 0.89704 0.12531 0.75388 0.0
H810 H 0.81895 0.04511 0.80418 0.0
H811 H 0.87098 0.06462 0.78184 0.0
H812 H 0.81049 0.23109 0.93878 0.0
H813 H 0.85721 0.25444 0.90931 0.0
H814 H 0.74965 0.1955 0.92633 0.0
H815 H 0.73192 0.13953 0.9126 0.0
C816 C -0.00543 0.55983 0.18086 0.0
C817 C 0.04008 0.56843 0.16644 0.0
C818 C 0.01232 0.61425 0.10208 0.0
C819 C 0.96608 0.60684 0.1164 0.0
N820 N 0.91671 0.58876 0.18141 0.0
N821 N 0.09077 0.62184 0.12851 0.0
C822 C 0.95805 0.58468 0.15968 0.0
C823 C 0.04832 0.60237 0.13263 0.0
N824 N 0.98627 0.52737 0.21395 0.0
N825 N 0.02276 0.62823 0.05832 0.0
H826 H 0.11719 0.61437 0.15173 0.0
H827 H 0.09712 0.64942 0.1062 0.0
H828 H -0.00144 0.63098 0.0319 0.0
H829 H 0.05657 0.63068 0.04665 0.0
H830 H 0.95322 0.51612 0.22232 0.0
H831 H 0.01297 0.51055 0.23133 0.0
H832 H 0.91071 0.57539 0.21423 0.0
H833 H 0.89072 0.61057 0.16955 0.0
C834 C 0.63373 0.87476 0.39014 0.0
C835 C 0.67987 0.85891 0.38868 0.0
C836 C 0.65446 0.78111 0.40899 0.0
C837 C 0.60875 0.79455 0.39925 0.0
N838 N 0.55271 0.8536 0.38546 0.0
N839 N 0.73473 0.79651 0.39433 0.0
C840 C 0.59762 0.84157 0.39239 0.0
C841 C 0.69058 0.81212 0.39844 0.0
N842 N 0.62456 0.92099 0.38739 0.0
N843 N 0.66332 0.73818 0.42646 0.0
H844 H 0.76233 0.81792 0.38583 0.0
H845 H 0.74353 0.76168 0.39578 0.0
H846 H 0.63734 0.71465 0.43451 0.0
H847 H 0.69582 0.72792 0.43771 0.0
H848 H 0.59191 0.93491 0.39169 0.0
H849 H 0.65025 0.94599 0.38399 0.0
H850 H 0.54211 0.88627 0.37489 0.0
H851 H 0.52591 0.82975 0.38925 0.0
C852 C 0.53784 0.41795 0.66158 0.0
C853 C 0.53162 0.37837 0.63348 0.0
C854 C 0.45139 0.3715 0.65734 0.0
C855 C 0.45666 0.41291 0.68328 0.0
N856 N 0.50654 0.46704 0.72162 0.0
N857 N 0.48862 0.3092 0.61616 0.0
C858 C 0.50075 0.43306 0.68942 0.0
C859 C 0.49034 0.35236 0.63529 0.0
N860 N 0.57813 0.44241 0.65968 0.0
N861 N 0.40883 0.35227 0.65085 0.0
H862 H 0.51677 0.29424 0.59979 0.0
H863 H 0.46098 0.28658 0.62033 0.0
H864 H 0.37972 0.36301 0.66841 0.0
H865 H 0.40195 0.32666 0.62653 0.0
H866 H 0.58299 0.4744 0.67538 0.0
H867 H 0.60621 0.43187 0.64011 0.0
H868 H 0.53838 0.48106 0.73062 0.0
H869 H 0.47952 0.47803 0.74249 0.0
C870 C 0.17326 0.6309 0.59046 0.0
C871 C 0.16786 0.59494 0.62317 0.0
C872 C 0.09632 0.62867 0.65071 0.0
C873 C 0.10242 0.66589 0.61914 0.0
N874 N 0.13831 0.69586 0.55065 0.0
N875 N 0.11903 0.55138 0.67389 0.0
C876 C 0.1382 0.66472 0.58612 0.0
C877 C 0.12732 0.59101 0.64953 0.0
N878 N 0.21291 0.63406 0.56549 0.0
N879 N 0.06344 0.6308 0.68419 0.0
H880 H 0.14162 0.5234 0.6736 0.0
H881 H 0.08808 0.54443 0.6905 0.0
H882 H 0.03986 0.65757 0.68694 0.0
H883 H 0.0615 0.60755 0.71155 0.0
H884 H 0.22149 0.66255 0.54527 0.0
H885 H 0.23849 0.60888 0.56678 0.0
H886 H 0.16125 0.69455 0.52324 0.0
H887 H 0.1125 0.72053 0.54647 0.0
C888 C 0.44443 0.9342 0.85778 0.0
C889 C 0.44432 0.88594 0.86736 0.0
C890 C 0.51423 0.87672 0.82117 0.0
C891 C 0.51478 0.92502 0.81359 0.0
N892 N 0.47339 -0.00389 0.80926 0.0
N893 N 0.47207 0.80959 0.84843 0.0
C894 C 0.47675 0.95217 0.82607 0.0
C895 C 0.47695 0.85652 0.84581 0.0
N896 N 0.41654 0.96349 0.88177 0.0
N897 N 0.55069 0.85079 0.80707 0.0
H898 H 0.44586 0.79349 0.86687 0.0
H899 H 0.49187 0.78653 0.82956 0.0
H900 H 0.57713 0.86461 0.78709 0.0
H901 H 0.55544 0.81631 0.81613 0.0
H902 H 0.4185 -0.00066 0.87903 0.0
H903 H 0.39482 0.9526 0.90816 0.0
H904 H 0.44467 0.01694 0.81413 0.0
H905 H 0.49776 0.00952 0.78643 0.0
C906 C 0.96943 0.08224 0.29252 0.0
C907 C 0.93396 0.06562 0.32151 0.0
C908 C 0.96094 0.11513 0.384 0.0
C909 C 0.00172 0.12307 0.35915 0.0
N910 N 0.03228 0.13688 0.28306 0.0
N911 N 0.89603 0.06482 0.39577 0.0
C912 C 0.00252 0.11358 0.31108 0.0
C913 C 0.9292 0.08226 0.3673 0.0
N914 N 0.97262 0.06631 0.24832 0.0
N915 N 0.95204 0.14051 0.42259 0.0
H916 H 0.87145 0.04085 0.38499 0.0
H917 H 0.89474 0.07194 0.43094 0.0
H918 H 0.97381 0.16729 0.43329 0.0
H919 H 0.92085 0.1391 0.44011 0.0
H920 H 0.0006 0.07276 0.22699 0.0
H921 H 0.94806 0.04427 0.2337 0.0
H922 H 0.03303 0.13314 0.2474 0.0
H923 H 0.05155 0.16509 0.2945 0.0
loop_
_geom_bond_atom_site_label_1
_geom_bond_atom_site_label_2
_geom_bond_distance
_geom_bond_site_symmetry_2
_ccdc_geom_bond_type
O0 Zn1 1.953 . S
O0 C16 1.225 . S
Zn1 O0 1.953 . S
Zn1 O2 1.949 . S
Zn1 O8 1.919 . S
Zn1 O13 1.924 . S
O2 Zn1 1.949 . S
O2 Zn3 1.923 . S
O2 Zn4 1.950 . S
O2 Zn5 1.945 . S
Zn3 O2 1.923 . S
Zn3 O6 1.933 . S
Zn3 O9 1.941 . S
Zn3 O10 1.965 . S
Zn4 O2 1.950 . S
Zn4 O11 1.938 . S
Zn4 O12 1.906 . S
Zn4 O22 1.953 . S
Zn5 O2 1.945 . S
Zn5 O7 1.932 . S
Zn5 O14 1.977 . S
Zn5 O15 1.910 . S
O6 Zn3 1.933 . S
O6 C17 1.226 . S
O7 Zn5 1.932 . S
O7 C17 1.307 . S
O8 Zn1 1.919 . S
O8 C19 1.253 . S
O9 Zn3 1.941 . S
O9 C19 1.283 . S
O10 Zn3 1.965 . S
O10 C18 1.303 . S
O11 Zn4 1.938 . S
O11 C18 1.247 . S
O12 Zn4 1.906 . S
O12 C20 1.304 . S
O13 Zn1 1.924 . S
O13 C21 1.311 . S
O14 Zn5 1.977 . S
O14 C20 1.272 . S
O15 Zn5 1.910 . S
O15 C21 1.231 . S
C16 O0 1.225 . S
C16 O22 1.298 . S
C17 O6 1.226 . S
C17 O7 1.307 . S
C18 O10 1.303 . S
C18 O11 1.247 . S
C19 O8 1.253 . S
C19 O9 1.283 . S
C20 O12 1.304 . S
C20 O14 1.272 . S
C21 O13 1.311 . S
C21 O15 1.231 . S
O22 Zn4 1.953 . S
O22 C16 1.298 . S
O23 Zn24 1.953 . S
O23 C39 1.225 . S
Zn24 O23 1.953 . S
Zn24 O25 1.949 . S
Zn24 O31 1.919 1_455 S
Zn24 O36 1.924 1_455 S
O25 Zn24 1.949 . S
O25 Zn26 1.923 . S
O25 Zn27 1.950 . S
O25 Zn28 1.954 . S
Zn26 O25 1.923 . S
Zn26 O29 1.933 1_455 S
Zn26 O32 1.941 . S
Zn26 O33 1.965 . S
Zn27 O25 1.950 . S
Zn27 O34 1.938 . S
Zn27 O35 1.906 . S
Zn27 O45 1.953 . S
Zn28 O25 1.954 . S
Zn28 O30 1.924 1_455 S
Zn28 O37 1.986 . S
Zn28 O38 1.903 1_455 S
O29 Zn26 1.933 1_655 S
O29 C40 1.226 . S
O30 Zn28 1.924 1_655 S
O30 C40 1.307 . S
O31 Zn24 1.919 1_655 S
O31 C42 1.253 . S
O32 Zn26 1.941 . S
O32 C42 1.283 1_455 S
O33 Zn26 1.965 . S
O33 C41 1.303 . S
O34 Zn27 1.938 . S
O34 C41 1.247 . S
O35 Zn27 1.906 . S
O35 C43 1.304 . S
O36 Zn24 1.924 1_655 S
O36 C44 1.311 . S
O37 Zn28 1.986 . S
O37 C43 1.272 . S
O38 Zn28 1.903 1_655 S
O38 C44 1.231 . S
C39 O23 1.225 . S
C39 O45 1.298 . S
C40 O29 1.226 . S
C40 O30 1.307 . S
C41 O33 1.303 . S
C41 O34 1.247 . S
C42 O31 1.253 . S
C42 O32 1.283 1_655 S
C43 O35 1.304 . S
C43 O37 1.272 . S
C44 O36 1.311 . S
C44 O38 1.231 . S
O45 Zn27 1.953 . S
O45 C39 1.298 . S
O46 Zn47 1.953 . S
O46 C62 1.225 . S
Zn47 O46 1.953 . S
Zn47 O48 1.949 . S
Zn47 O54 1.919 . S
Zn47 O59 1.924 . S
O48 Zn47 1.949 . S
O48 Zn49 1.923 1_556 S
O48 Zn50 1.950 . S
O48 Zn51 1.945 . S
Zn49 O48 1.923 1_554 S
Zn49 O52 1.933 . S
Zn49 O55 1.941 . S
Zn49 O56 1.965 . S
Zn50 O48 1.950 . S
Zn50 O57 1.938 . S
Zn50 O58 1.906 . S
Zn50 O68 1.953 . S
Zn51 O48 1.945 . S
Zn51 O53 1.932 . S
Zn51 O60 1.977 . S
Zn51 O61 1.910 . S
O52 Zn49 1.933 . S
O52 C63 1.226 . S
O53 Zn51 1.932 . S
O53 C63 1.307 1_556 S
O54 Zn47 1.919 . S
O54 C65 1.253 1_556 S
O55 Zn49 1.941 . S
O55 C65 1.283 . S
O56 Zn49 1.965 . S
O56 C64 1.303 . S
O57 Zn50 1.938 . S
O57 C64 1.247 1_556 S
O58 Zn50 1.906 . S
O58 C66 1.304 . S
O59 Zn47 1.924 . S
O59 C67 1.311 . S
O60 Zn51 1.977 . S
O60 C66 1.272 . S
O61 Zn51 1.910 . S
O61 C67 1.231 . S
C62 O46 1.225 . S
C62 O68 1.298 . S
C63 O52 1.226 . S
C63 O53 1.307 1_554 S
C64 O56 1.303 . S
C64 O57 1.247 1_554 S
C65 O54 1.253 1_554 S
C65 O55 1.283 . S
C66 O58 1.304 . S
C66 O60 1.272 . S
C67 O59 1.311 . S
C67 O61 1.231 . S
O68 Zn50 1.953 . S
O68 C62 1.298 . S
O69 Zn70 1.953 . S
O69 C85 1.225 . S
Zn70 O69 1.953 . S
Zn70 O71 1.949 . S
Zn70 O77 1.919 . S
Zn70 O82 1.924 . S
O71 Zn70 1.949 . S
O71 Zn72 1.923 . S
O71 Zn73 1.950 . S
O71 Zn74 1.945 . S
Zn72 O71 1.923 . S
Zn72 O75 1.933 . S
Zn72 O78 1.941 . S
Zn72 O79 1.965 . S
Zn73 O71 1.950 . S
Zn73 O80 1.938 . S
Zn73 O81 1.906 . S
Zn73 O91 1.953 . S
Zn74 O71 1.945 . S
Zn74 O76 1.932 . S
Zn74 O83 1.977 . S
Zn74 O84 1.910 . S
O75 Zn72 1.933 . S
O75 C86 1.226 . S
O76 Zn74 1.932 . S
O76 C86 1.307 . S
O77 Zn70 1.919 . S
O77 C88 1.253 . S
O78 Zn72 1.941 . S
O78 C88 1.283 . S
O79 Zn72 1.965 . S
O79 C87 1.303 . S
O80 Zn73 1.938 . S
O80 C87 1.247 . S
O81 Zn73 1.906 . S
O81 C89 1.304 . S
O82 Zn70 1.924 . S
O82 C90 1.311 . S
O83 Zn74 1.977 . S
O83 C89 1.272 . S
O84 Zn74 1.910 . S
O84 C90 1.231 . S
C85 O69 1.225 . S
C85 O91 1.298 . S
C86 O75 1.226 . S
C86 O76 1.307 . S
C87 O79 1.303 . S
C87 O80 1.247 . S
C88 O77 1.253 . S
C88 O78 1.283 . S
C89 O81 1.304 . S
C89 O83 1.272 . S
C90 O82 1.311 . S
C90 O84 1.231 . S
O91 Zn73 1.953 . S
O91 C85 1.298 . S
O92 Zn93 1.953 . S
O92 C108 1.225 . S
Zn93 O92 1.953 . S
Zn93 O94 1.949 . S
Zn93 O100 1.919 . S
Zn93 O105 1.924 . S
O94 Zn93 1.949 . S
O94 Zn95 1.923 . S
O94 Zn96 1.950 . S
O94 Zn97 1.945 . S
Zn95 O94 1.923 . S
Zn95 O98 1.933 . S
Zn95 O101 1.941 . S
Zn95 O102 1.965 . S
Zn96 O94 1.950 . S
Zn96 O103 1.938 . S
Zn96 O104 1.906 . S
Zn96 O114 1.953 . S
Zn97 O94 1.945 . S
Zn97 O99 1.932 . S
Zn97 O106 1.977 . S
Zn97 O107 1.910 . S
O98 Zn95 1.933 . S
O98 C109 1.226 . S
O99 Zn97 1.932 . S
O99 C109 1.307 . S
O100 Zn93 1.919 . S
O100 C111 1.253 . S
O101 Zn95 1.941 . S
O101 C111 1.283 . S
O102 Zn95 1.965 . S
O102 C110 1.303 . S
O103 Zn96 1.938 . S
O103 C110 1.247 . S
O104 Zn96 1.906 . S
O104 C112 1.304 . S
O105 Zn93 1.924 . S
O105 C113 1.311 . S
O106 Zn97 1.977 . S
O106 C112 1.272 . S
O107 Zn97 1.910 . S
O107 C113 1.231 . S
C108 O92 1.225 . S
C108 O114 1.298 . S
C109 O98 1.226 . S
C109 O99 1.307 . S
C110 O102 1.303 . S
C110 O103 1.247 . S
C111 O100 1.253 . S
C111 O101 1.283 . S
C112 O104 1.304 . S
C112 O106 1.272 . S
C113 O105 1.311 . S
C113 O107 1.231 . S
O114 Zn96 1.953 . S
O114 C108 1.298 . S
O115 Zn116 1.953 . S
O115 C131 1.225 . S
Zn116 O115 1.953 . S
Zn116 O117 1.949 . S
Zn116 O123 1.919 1_655 S
Zn116 O128 1.924 1_655 S
O117 Zn116 1.949 . S
O117 Zn118 1.923 . S
O117 Zn119 1.950 . S
O117 Zn120 1.945 . S
Zn118 O117 1.923 . S
Zn118 O121 1.933 1_655 S
Zn118 O124 1.941 . S
Zn118 O125 1.965 . S
Zn119 O117 1.950 . S
Zn119 O126 1.938 . S
Zn119 O127 1.906 . S
Zn119 O137 1.953 . S
Zn120 O117 1.945 . S
Zn120 O122 1.932 1_655 S
Zn120 O129 1.977 . S
Zn120 O130 1.910 1_655 S
O121 Zn118 1.933 1_455 S
O121 C132 1.226 . S
O122 Zn120 1.932 1_455 S
O122 C132 1.307 . S
O123 Zn116 1.919 1_455 S
O123 C134 1.253 . S
O124 Zn118 1.941 . S
O124 C134 1.283 1_655 S
O125 Zn118 1.965 . S
O125 C133 1.303 . S
O126 Zn119 1.938 . S
O126 C133 1.247 . S
O127 Zn119 1.906 . S
O127 C135 1.304 . S
O128 Zn116 1.924 1_455 S
O128 C136 1.311 . S
O129 Zn120 1.977 . S
O129 C135 1.272 . S
O130 Zn120 1.910 1_455 S
O130 C136 1.231 . S
C131 O115 1.225 . S
C131 O137 1.298 . S
C132 O121 1.226 . S
C132 O122 1.307 . S
C133 O125 1.303 . S
C133 O126 1.247 . S
C134 O123 1.253 . S
C134 O124 1.283 1_455 S
C135 O127 1.304 . S
C135 O129 1.272 . S
C136 O128 1.311 . S
C136 O130 1.231 . S
O137 Zn119 1.953 . S
O137 C131 1.298 . S
O138 Zn139 1.953 . S
O138 C154 1.225 . S
Zn139 O138 1.953 . S
Zn139 O140 1.949 . S
Zn139 O146 1.938 . S
Zn139 O151 1.924 . S
O140 Zn139 1.949 . S
O140 Zn141 1.923 1_554 S
O140 Zn142 1.950 . S
O140 Zn143 1.945 . S
Zn141 O140 1.923 1_556 S
Zn141 O144 1.933 . S
Zn141 O147 1.941 . S
Zn141 O148 1.965 . S
Zn142 O140 1.950 . S
Zn142 O149 1.938 . S
Zn142 O150 1.906 . S
Zn142 O160 1.953 . S
Zn143 O140 1.945 . S
Zn143 O145 1.932 . S
Zn143 O152 1.977 . S
Zn143 O153 1.910 . S
O144 Zn141 1.933 . S
O144 C155 1.226 . S
O145 Zn143 1.932 . S
O145 C155 1.307 1_554 S
O146 Zn139 1.938 . S
O146 C157 1.231 1_554 S
O147 Zn141 1.941 . S
O147 C157 1.283 . S
O148 Zn141 1.965 . S
O148 C156 1.303 . S
O149 Zn142 1.938 . S
O149 C156 1.247 1_554 S
O150 Zn142 1.906 . S
O150 C158 1.304 . S
O151 Zn139 1.924 . S
O151 C159 1.311 . S
O152 Zn143 1.977 . S
O152 C158 1.272 . S
O153 Zn143 1.910 . S
O153 C159 1.231 . S
C154 O138 1.225 . S
C154 O160 1.298 . S
C155 O144 1.226 . S
C155 O145 1.307 1_556 S
C156 O148 1.303 . S
C156 O149 1.247 1_556 S
C157 O146 1.231 1_556 S
C157 O147 1.283 . S
C158 O150 1.304 . S
C158 O152 1.272 . S
C159 O151 1.311 . S
C159 O153 1.231 . S
O160 Zn142 1.953 . S
O160 C154 1.298 . S
O161 Zn162 1.953 . S
O161 C177 1.225 . S
Zn162 O161 1.953 . S
Zn162 O163 1.949 . S
Zn162 O169 1.919 . S
Zn162 O174 1.924 . S
O163 Zn162 1.949 . S
O163 Zn164 1.923 . S
O163 Zn165 1.950 . S
O163 Zn166 1.945 . S
Zn164 O163 1.923 . S
Zn164 O167 1.933 . S
Zn164 O170 1.941 . S
Zn164 O171 1.965 . S
Zn165 O163 1.950 . S
Zn165 O172 1.938 . S
Zn165 O173 1.906 . S
Zn165 O183 1.953 . S
Zn166 O163 1.945 . S
Zn166 O168 1.932 . S
Zn166 O175 1.977 . S
Zn166 O176 1.910 . S
O167 Zn164 1.933 . S
O167 C178 1.226 . S
O168 Zn166 1.932 . S
O168 C178 1.307 . S
O169 Zn162 1.919 . S
O169 C180 1.253 . S
O170 Zn164 1.941 . S
O170 C180 1.283 . S
O171 Zn164 1.965 . S
O171 C179 1.303 . S
O172 Zn165 1.938 . S
O172 C179 1.247 . S
O173 Zn165 1.906 . S
O173 C181 1.304 . S
O174 Zn162 1.924 . S
O174 C182 1.311 . S
O175 Zn166 1.977 . S
O175 C181 1.272 . S
O176 Zn166 1.910 . S
O176 C182 1.231 . S
C177 O161 1.225 . S
C177 O183 1.298 . S
C178 O167 1.226 . S
C178 O168 1.307 . S
C179 O171 1.303 . S
C179 O172 1.247 . S
C180 O169 1.253 . S
C180 O170 1.283 . S
C181 O173 1.304 . S
C181 O175 1.272 . S
C182 O174 1.311 . S
C182 O176 1.231 . S
O183 Zn165 1.953 . S
O183 C177 1.298 . S
O184 Zn185 1.953 . S
O184 C200 1.225 . S
Zn185 O184 1.953 . S
Zn185 O186 1.949 . S
Zn185 O192 1.919 . S
Zn185 O197 1.924 . S
O186 Zn185 1.949 . S
O186 Zn187 1.923 . S
O186 Zn188 1.950 . S
O186 Zn189 1.945 . S
Zn187 O186 1.923 . S
Zn187 O190 1.933 . S
Zn187 O193 1.941 . S
Zn187 O194 1.965 . S
Zn188 O186 1.950 . S
Zn188 O195 1.938 . S
Zn188 O196 1.906 . S
Zn188 O206 1.953 . S
Zn189 O186 1.945 . S
Zn189 O191 1.932 . S
Zn189 O198 1.977 . S
Zn189 O199 1.910 . S
O190 Zn187 1.933 . S
O190 C201 1.226 . S
O191 Zn189 1.932 . S
O191 C201 1.307 . S
O192 Zn185 1.919 . S
O192 C203 1.253 . S
O193 Zn187 1.941 . S
O193 C203 1.283 . S
O194 Zn187 1.965 . S
O194 C202 1.303 . S
O195 Zn188 1.938 . S
O195 C202 1.247 . S
O196 Zn188 1.906 . S
O196 C204 1.304 . S
O197 Zn185 1.924 . S
O197 C205 1.311 . S
O198 Zn189 1.977 . S
O198 C204 1.272 . S
O199 Zn189 1.910 . S
O199 C205 1.231 . S
C200 O184 1.225 . S
C200 O206 1.298 . S
C201 O190 1.226 . S
C201 O191 1.307 . S
C202 O194 1.303 . S
C202 O195 1.247 . S
C203 O192 1.253 . S
C203 O193 1.283 . S
C204 O196 1.304 . S
C204 O198 1.272 . S
C205 O197 1.311 . S
C205 O199 1.231 . S
O206 Zn188 1.953 . S
O206 C200 1.298 . S
O207 Zn208 1.953 . S
O207 C223 1.225 1_545 S
Zn208 O207 1.953 . S
Zn208 O209 1.949 . S
Zn208 O215 1.919 . S
Zn208 O220 1.924 1_545 S
O209 Zn208 1.949 . S
O209 Zn210 1.923 . S
O209 Zn211 1.950 . S
O209 Zn212 1.945 . S
Zn210 O209 1.923 . S
Zn210 O213 1.933 . S
Zn210 O216 1.941 . S
Zn210 O217 1.965 . S
Zn211 O209 1.950 . S
Zn211 O218 1.938 . S
Zn211 O219 1.906 1_545 S
Zn211 O229 1.953 1_545 S
Zn212 O209 1.945 . S
Zn212 O214 1.932 . S
Zn212 O221 1.977 1_545 S
Zn212 O222 1.910 1_545 S
O213 Zn210 1.933 . S
O213 C224 1.226 . S
O214 Zn212 1.932 . S
O214 C224 1.307 . S
O215 Zn208 1.919 . S
O215 C226 1.253 . S
O216 Zn210 1.941 . S
O216 C226 1.283 . S
O217 Zn210 1.965 . S
O217 C225 1.303 . S
O218 Zn211 1.938 . S
O218 C225 1.247 . S
O219 Zn211 1.906 1_565 S
O219 C227 1.304 . S
O220 Zn208 1.924 1_565 S
O220 C228 1.311 . S
O221 Zn212 1.977 1_565 S
O221 C227 1.272 . S
O222 Zn212 1.910 1_565 S
O222 C228 1.231 . S
C223 O207 1.225 1_565 S
C223 O229 1.298 . S
C224 O213 1.226 . S
C224 O214 1.307 . S
C225 O217 1.303 . S
C225 O218 1.247 . S
C226 O215 1.253 . S
C226 O216 1.283 . S
C227 O219 1.304 . S
C227 O221 1.272 . S
C228 O220 1.311 . S
C228 O222 1.231 . S
O229 Zn211 1.953 1_565 S
O229 C223 1.298 . S
O230 Zn231 1.953 . S
O230 C246 1.225 . S
Zn231 O230 1.953 . S
Zn231 O232 1.949 . S
Zn231 O238 1.919 . S
Zn231 O243 1.924 . S
O232 Zn231 1.949 . S
O232 Zn233 1.923 1_565 S
O232 Zn234 1.950 . S
O232 Zn235 1.945 . S
Zn233 O232 1.923 1_545 S
Zn233 O236 1.933 . S
Zn233 O239 1.941 . S
Zn233 O240 1.965 . S
Zn234 O232 1.950 . S
Zn234 O241 1.938 . S
Zn234 O242 1.906 . S
Zn234 O252 1.953 . S
Zn235 O232 1.945 . S
Zn235 O237 1.932 . S
Zn235 O244 1.977 . S
Zn235 O245 1.910 . S
O236 Zn233 1.933 . S
O236 C247 1.226 . S
O237 Zn235 1.932 . S
O237 C247 1.307 1_565 S
O238 Zn231 1.919 . S
O238 C249 1.253 1_565 S
O239 Zn233 1.941 . S
O239 C249 1.283 . S
O240 Zn233 1.965 . S
O240 C248 1.303 . S
O241 Zn234 1.938 . S
O241 C248 1.247 1_565 S
O242 Zn234 1.906 . S
O242 C250 1.304 . S
O243 Zn231 1.924 . S
O243 C251 1.311 . S
O244 Zn235 1.977 . S
O244 C250 1.272 . S
O245 Zn235 1.910 . S
O245 C251 1.231 . S
C246 O230 1.225 . S
C246 O252 1.298 . S
C247 O236 1.226 . S
C247 O237 1.307 1_545 S
C248 O240 1.303 . S
C248 O241 1.247 1_545 S
C249 O238 1.253 1_545 S
C249 O239 1.283 . S
C250 O242 1.304 . S
C250 O244 1.272 . S
C251 O243 1.311 . S
C251 O245 1.231 . S
O252 Zn234 1.953 . S
O252 C246 1.298 . S
O253 Zn254 1.953 . S
O253 C269 1.225 . S
Zn254 O253 1.953 . S
Zn254 O255 1.949 . S
Zn254 O261 1.919 . S
Zn254 O266 1.924 . S
O255 Zn254 1.949 . S
O255 Zn256 1.923 . S
O255 Zn257 1.950 . S
O255 Zn258 1.945 . S
Zn256 O255 1.923 . S
Zn256 O259 1.933 . S
Zn256 O262 1.941 . S
Zn256 O263 1.965 . S
Zn257 O255 1.950 . S
Zn257 O264 1.938 . S
Zn257 O265 1.906 . S
Zn257 O275 1.953 . S
Zn258 O255 1.945 . S
Zn258 O260 1.932 . S
Zn258 O267 1.977 . S
Zn258 O268 1.910 . S
O259 Zn256 1.933 . S
O259 C270 1.226 . S
O260 Zn258 1.932 . S
O260 C270 1.307 . S
O261 Zn254 1.919 . S
O261 C272 1.253 . S
O262 Zn256 1.941 . S
O262 C272 1.283 . S
O263 Zn256 1.965 . S
O263 C271 1.303 . S
O264 Zn257 1.938 . S
O264 C271 1.247 . S
O265 Zn257 1.906 . S
O265 C273 1.304 . S
O266 Zn254 1.924 . S
O266 C274 1.311 . S
O267 Zn258 1.977 . S
O267 C273 1.272 . S
O268 Zn258 1.910 . S
O268 C274 1.231 . S
C269 O253 1.225 . S
C269 O275 1.298 . S
C270 O259 1.226 . S
C270 O260 1.307 . S
C271 O263 1.303 . S
C271 O264 1.247 . S
C272 O261 1.253 . S
C272 O262 1.283 . S
C273 O265 1.304 . S
C273 O267 1.272 . S
C274 O266 1.311 . S
C274 O268 1.231 . S
O275 Zn257 1.953 . S
O275 C269 1.298 . S
C276 C277 1.363 . S
C276 C282 1.379 . S
C276 N284 1.356 . S
C277 C276 1.363 . S
C277 C283 1.363 . S
C278 C279 1.363 . S
C278 C283 1.379 . S
C278 N285 1.356 . S
C279 C278 1.363 . S
C279 C282 1.363 . S
N280 C282 1.356 . S
N280 H292 0.984 . S
N280 H293 0.985 . S
N281 C283 1.356 . S
N281 H286 0.984 . S
N281 H287 0.985 . S
C282 C276 1.379 . S
C282 C279 1.363 . S
C282 N280 1.356 . S
C283 C277 1.363 . S
C283 C278 1.379 . S
C283 N281 1.356 . S
N284 C276 1.356 . S
N284 H290 0.984 . S
N284 H291 0.984 . S
N285 C278 1.356 . S
N285 H288 0.984 . S
N285 H289 0.985 . S
H286 N281 0.984 . S
H287 N281 0.985 . S
H288 N285 0.984 . S
H289 N285 0.985 . S
H290 N284 0.984 . S
H291 N284 0.984 . S
H292 N280 0.984 . S
H293 N280 0.985 . S
C294 C295 1.363 . S
C294 C300 1.379 . S
C294 N302 1.356 . S
C295 C294 1.363 . S
C295 C301 1.363 . S
C296 C297 1.363 . S
C296 C301 1.379 . S
C296 N303 1.356 . S
C297 C296 1.363 . S
C297 C300 1.363 . S
N298 C300 1.356 . S
N298 H310 0.984 . S
N298 H311 0.985 . S
N299 C301 1.356 1_545 S
N299 H304 0.985 . S
N299 H305 0.985 . S
C300 C294 1.379 . S
C300 C297 1.363 . S
C300 N298 1.356 . S
C301 C295 1.363 . S
C301 C296 1.379 . S
C301 N299 1.356 1_565 S
N302 C294 1.356 . S
N302 H308 0.984 . S
N302 H309 0.984 . S
N303 C296 1.356 . S
N303 H306 0.984 . S
N303 H307 0.985 1_565 S
H304 N299 0.985 . S
H305 N299 0.985 . S
H306 N303 0.984 . S
H307 N303 0.985 1_545 S
H308 N302 0.984 . S
H309 N302 0.984 . S
H310 N298 0.984 . S
H311 N298 0.985 . S
C312 C313 1.363 . S
C312 C318 1.379 . S
C312 N320 1.356 . S
C313 C312 1.363 . S
C313 C319 1.363 1_554 S
C314 C315 1.363 1_556 S
C314 C319 1.379 . S
C314 N321 1.356 . S
C315 C314 1.363 1_554 S
C315 C318 1.363 . S
N316 C318 1.356 . S
N316 H328 0.984 . S
N316 H329 0.985 . S
N317 C319 1.356 . S
N317 H322 0.984 . S
N317 H323 0.985 . S
C318 C312 1.379 . S
C318 C315 1.363 . S
C318 N316 1.356 . S
C319 C313 1.363 1_556 S
C319 C314 1.379 . S
C319 N317 1.356 . S
N320 C312 1.356 . S
N320 H326 0.984 . S
N320 H327 0.984 . S
N321 C314 1.356 . S
N321 H324 0.984 . S
N321 H325 0.985 . S
H322 N317 0.984 . S
H323 N317 0.985 . S
H324 N321 0.984 . S
H325 N321 0.985 . S
H326 N320 0.984 . S
H327 N320 0.984 . S
H328 N316 0.984 . S
H329 N316 0.985 . S
C330 C331 1.363 . S
C330 C336 1.379 . S
C330 N338 1.356 . S
C331 C330 1.363 . S
C331 C337 1.363 . S
C332 C333 1.363 . S
C332 C337 1.379 . S
C332 N339 1.356 . S
C333 C332 1.363 . S
C333 C336 1.363 . S
N334 C336 1.356 . S
N334 H346 0.984 . S
N334 H347 0.985 . S
N335 C337 1.356 . S
N335 H340 0.984 . S
N335 H341 0.985 . S
C336 C330 1.379 . S
C336 C333 1.363 . S
C336 N334 1.356 . S
C337 C331 1.363 . S
C337 C332 1.379 . S
C337 N335 1.356 . S
N338 C330 1.356 . S
N338 H344 0.984 . S
N338 H345 0.984 . S
N339 C332 1.356 . S
N339 H342 0.984 . S
N339 H343 0.985 . S
H340 N335 0.984 . S
H341 N335 0.985 . S
H342 N339 0.984 . S
H343 N339 0.985 . S
H344 N338 0.984 . S
H345 N338 0.984 . S
H346 N334 0.984 . S
H347 N334 0.985 . S
C348 C349 1.363 . S
C348 C354 1.379 . S
C348 N356 1.356 . S
C349 C348 1.363 . S
C349 C355 1.363 . S
C350 C351 1.363 . S
C350 C355 1.379 . S
C350 N357 1.356 . S
C351 C350 1.363 . S
C351 C354 1.363 . S
N352 C354 1.356 . S
N352 H364 0.984 . S
N352 H365 0.985 . S
N353 C355 1.356 . S
N353 H358 0.984 . S
N353 H359 0.985 . S
C354 C348 1.379 . S
C354 C351 1.363 . S
C354 N352 1.356 . S
C355 C349 1.363 . S
C355 C350 1.379 . S
C355 N353 1.356 . S
N356 C348 1.356 . S
N356 H362 0.984 . S
N356 H363 0.984 . S
N357 C350 1.356 . S
N357 H360 0.984 . S
N357 H361 0.985 . S
H358 N353 0.984 . S
H359 N353 0.985 . S
H360 N357 0.984 . S
H361 N357 0.985 . S
H362 N356 0.984 . S
H363 N356 0.984 . S
H364 N352 0.984 . S
H365 N352 0.985 . S
C366 C367 1.363 . S
C366 C372 1.379 . S
C366 N374 1.356 . S
C367 C366 1.363 . S
C367 C373 1.363 . S
C368 C369 1.363 . S
C368 C373 1.379 . S
C368 N375 1.356 . S
C369 C368 1.363 . S
C369 C372 1.363 . S
N370 C372 1.356 . S
N370 H382 0.984 . S
N370 H383 0.985 . S
N371 C373 1.356 . S
N371 H376 0.984 . S
N371 H377 0.985 . S
C372 C366 1.379 . S
C372 C369 1.363 . S
C372 N370 1.356 . S
C373 C367 1.363 . S
C373 C368 1.379 . S
C373 N371 1.356 . S
N374 C366 1.356 . S
N374 H380 0.984 . S
N374 H381 0.984 . S
N375 C368 1.356 . S
N375 H378 0.984 . S
N375 H379 0.985 . S
H376 N371 0.984 . S
H377 N371 0.985 . S
H378 N375 0.984 . S
H379 N375 0.985 . S
H380 N374 0.984 . S
H381 N374 0.984 . S
H382 N370 0.984 . S
H383 N370 0.985 . S
C384 C385 1.363 . S
C384 C390 1.379 . S
C384 N392 1.356 . S
C385 C384 1.363 . S
C385 C391 1.363 . S
C386 C387 1.363 . S
C386 C391 1.379 . S
C386 N393 1.356 1_556 S
C387 C386 1.363 . S
C387 C390 1.363 . S
N388 C390 1.356 . S
N388 H400 0.984 . S
N388 H401 0.985 . S
N389 C391 1.356 1_554 S
N389 H394 0.984 1_554 S
N389 H395 0.985 . S
C390 C384 1.379 . S
C390 C387 1.363 . S
C390 N388 1.356 . S
C391 C385 1.363 . S
C391 C386 1.379 . S
C391 N389 1.356 1_556 S
N392 C384 1.356 . S
N392 H398 0.984 . S
N392 H399 0.984 . S
N393 C386 1.356 1_554 S
N393 H396 0.984 . S
N393 H397 0.985 . S
H394 N389 0.984 1_556 S
H395 N389 0.985 . S
H396 N393 0.984 . S
H397 N393 0.985 . S
H398 N392 0.984 . S
H399 N392 0.984 . S
H400 N388 0.984 . S
H401 N388 0.985 . S
C402 C403 1.363 . S
C402 C408 1.379 . S
C402 N410 1.356 . S
C403 C402 1.363 . S
C403 C409 1.363 . S
C404 C405 1.363 . S
C404 C409 1.379 . S
C404 N411 1.356 . S
C405 C404 1.363 . S
C405 C408 1.363 . S
N406 C408 1.356 . S
N406 H418 0.984 . S
N406 H419 0.985 . S
N407 C409 1.356 . S
N407 H412 0.984 . S
N407 H413 0.985 . S
C408 C402 1.379 . S
C408 C405 1.363 . S
C408 N406 1.356 . S
C409 C403 1.363 . S
C409 C404 1.379 . S
C409 N407 1.356 . S
N410 C402 1.356 . S
N410 H416 0.984 . S
N410 H417 0.984 . S
N411 C404 1.356 . S
N411 H414 0.984 . S
N411 H415 0.985 . S
H412 N407 0.984 . S
H413 N407 0.985 . S
H414 N411 0.984 . S
H415 N411 0.985 . S
H416 N410 0.984 . S
H417 N410 0.984 . S
H418 N406 0.984 . S
H419 N406 0.985 . S
C420 C421 1.363 . S
C420 C426 1.379 . S
C420 N428 1.356 . S
C421 C420 1.363 . S
C421 C427 1.363 . S
C422 C423 1.363 . S
C422 C427 1.379 . S
C422 N429 1.356 . S
C423 C422 1.363 . S
C423 C426 1.363 . S
N424 C426 1.356 . S
N424 H436 0.984 . S
N424 H437 0.985 . S
N425 C427 1.356 . S
N425 H430 0.984 . S
N425 H431 0.985 . S
C426 C420 1.379 . S
C426 C423 1.363 . S
C426 N424 1.356 . S
C427 C421 1.363 . S
C427 C422 1.379 . S
C427 N425 1.356 . S
N428 C420 1.356 . S
N428 H434 0.984 . S
N428 H435 0.984 . S
N429 C422 1.356 . S
N429 H432 0.984 . S
N429 H433 0.985 . S
H430 N425 0.984 . S
H431 N425 0.985 . S
H432 N429 0.984 . S
H433 N429 0.985 . S
H434 N428 0.984 . S
H435 N428 0.984 . S
H436 N424 0.984 . S
H437 N424 0.985 . S
C438 C439 1.363 . S
C438 C444 1.379 . S
C438 N446 1.356 1_455 S
C439 C438 1.363 . S
C439 C445 1.363 . S
C440 C441 1.363 . S
C440 C445 1.379 . S
C440 N447 1.356 . S
C441 C440 1.363 . S
C441 C444 1.363 . S
N442 C444 1.356 1_655 S
N442 H454 0.984 . S
N442 H455 0.985 . S
N443 C445 1.356 . S
N443 H448 0.984 . S
N443 H449 0.985 . S
C444 C438 1.379 . S
C444 C441 1.363 . S
C444 N442 1.356 1_455 S
C445 C439 1.363 . S
C445 C440 1.379 . S
C445 N443 1.356 . S
N446 C438 1.356 1_655 S
N446 H452 0.984 . S
N446 H453 0.984 . S
N447 C440 1.356 . S
N447 H450 0.984 . S
N447 H451 0.985 . S
H448 N443 0.984 . S
H449 N443 0.985 . S
H450 N447 0.984 . S
H451 N447 0.985 . S
H452 N446 0.984 . S
H453 N446 0.984 . S
H454 N442 0.984 . S
H455 N442 0.985 . S
C456 C457 1.363 . S
C456 C462 1.379 . S
C456 N464 1.356 . S
C457 C456 1.363 . S
C457 C463 1.363 . S
C458 C459 1.363 . S
C458 C463 1.379 . S
C458 N465 1.356 . S
C459 C458 1.363 . S
C459 C462 1.363 . S
N460 C462 1.356 . S
N460 H472 0.984 . S
N460 H473 0.985 . S
N461 C463 1.356 1_455 S
N461 H466 0.984 . S
N461 H467 0.985 . S
C462 C456 1.379 . S
C462 C459 1.363 . S
C462 N460 1.356 . S
C463 C457 1.363 . S
C463 C458 1.379 . S
C463 N461 1.356 1_655 S
N464 C456 1.356 . S
N464 H470 0.984 . S
N464 H471 0.984 . S
N465 C458 1.356 . S
N465 H468 0.984 . S
N465 H469 0.985 1_655 S
H466 N461 0.984 . S
H467 N461 0.985 . S
H468 N465 0.984 . S
H469 N465 0.985 1_455 S
H470 N464 0.984 . S
H471 N464 0.984 . S
H472 N460 0.984 . S
H473 N460 0.985 . S
C474 C475 1.363 . S
C474 C480 1.379 . S
C474 N482 1.356 . S
C475 C474 1.363 . S
C475 C481 1.363 . S
C476 C477 1.363 . S
C476 C481 1.379 . S
C476 N483 1.356 . S
C477 C476 1.363 . S
C477 C480 1.363 . S
N478 C480 1.356 . S
N478 H490 0.984 . S
N478 H491 0.985 . S
N479 C481 1.356 . S
N479 H484 0.984 . S
N479 H485 0.985 . S
C480 C474 1.379 . S
C480 C477 1.363 . S
C480 N478 1.356 . S
C481 C475 1.363 . S
C481 C476 1.379 . S
C481 N479 1.356 . S
N482 C474 1.356 . S
N482 H488 0.984 . S
N482 H489 0.984 . S
N483 C476 1.356 . S
N483 H486 0.984 . S
N483 H487 0.985 . S
H484 N479 0.984 . S
H485 N479 0.985 . S
H486 N483 0.984 . S
H487 N483 0.985 . S
H488 N482 0.984 . S
H489 N482 0.984 . S
H490 N478 0.984 . S
H491 N478 0.985 . S
C492 C493 1.363 . S
C492 C498 1.379 . S
C492 N500 1.356 . S
C493 C492 1.363 . S
C493 C499 1.363 . S
C494 C495 1.363 . S
C494 C499 1.379 . S
C494 N501 1.356 . S
C495 C494 1.363 . S
C495 C498 1.363 . S
N496 C498 1.356 . S
N496 H508 0.984 . S
N496 H509 0.985 . S
N497 C499 1.356 . S
N497 H502 0.984 . S
N497 H503 0.985 . S
C498 C492 1.379 . S
C498 C495 1.363 . S
C498 N496 1.356 . S
C499 C493 1.363 . S
C499 C494 1.379 . S
C499 N497 1.356 . S
N500 C492 1.356 . S
N500 H506 0.984 . S
N500 H507 0.984 . S
N501 C494 1.356 . S
N501 H504 0.984 . S
N501 H505 0.985 . S
H502 N497 0.984 . S
H503 N497 0.985 . S
H504 N501 0.984 . S
H505 N501 0.985 . S
H506 N500 0.984 . S
H507 N500 0.984 . S
H508 N496 0.984 . S
H509 N496 0.985 . S
C510 C511 1.363 . S
C510 C516 1.379 . S
C510 N518 1.356 1_655 S
C511 C510 1.363 . S
C511 C517 1.363 . S
C512 C513 1.363 . S
C512 C517 1.379 . S
C512 N519 1.356 . S
C513 C512 1.363 . S
C513 C516 1.363 . S
N514 C516 1.356 . S
N514 H526 0.984 . S
N514 H527 0.985 . S
N515 C517 1.356 . S
N515 H520 0.984 . S
N515 H521 0.985 . S
C516 C510 1.379 . S
C516 C513 1.363 . S
C516 N514 1.356 . S
C517 C511 1.363 . S
C517 C512 1.379 . S
C517 N515 1.356 . S
N518 C510 1.356 1_455 S
N518 H524 0.984 . S
N518 H525 0.984 . S
N519 C512 1.356 . S
N519 H522 0.984 . S
N519 H523 0.985 . S
H520 N515 0.984 . S
H521 N515 0.985 . S
H522 N519 0.984 . S
H523 N519 0.985 . S
H524 N518 0.984 . S
H525 N518 0.984 . S
H526 N514 0.984 . S
H527 N514 0.985 . S
C528 C529 1.363 . S
C528 C534 1.379 . S
C528 N536 1.356 . S
C529 C528 1.363 . S
C529 C535 1.363 . S
C530 C531 1.363 . S
C530 C535 1.379 . S
C530 N537 1.356 . S
C531 C530 1.363 . S
C531 C534 1.363 . S
N532 C534 1.356 . S
N532 H544 0.984 . S
N532 H545 0.985 . S
N533 C535 1.356 . S
N533 H538 0.984 . S
N533 H539 0.985 . S
C534 C528 1.379 . S
C534 C531 1.363 . S
C534 N532 1.356 . S
C535 C529 1.363 . S
C535 C530 1.379 . S
C535 N533 1.356 . S
N536 C528 1.356 . S
N536 H542 0.984 . S
N536 H543 0.984 . S
N537 C530 1.356 . S
N537 H540 0.984 . S
N537 H541 0.985 . S
H538 N533 0.984 . S
H539 N533 0.985 . S
H540 N537 0.984 . S
H541 N537 0.985 . S
H542 N536 0.984 . S
H543 N536 0.984 . S
H544 N532 0.984 . S
H545 N532 0.985 . S
C546 C547 1.363 . S
C546 C552 1.379 . S
C546 N554 1.356 . S
C547 C546 1.363 . S
C547 C553 1.363 . S
C548 C549 1.363 . S
C548 C553 1.379 1_556 S
C548 N555 1.356 . S
C549 C548 1.363 . S
C549 C552 1.363 1_556 S
N550 C552 1.356 1_556 S
N550 H562 0.984 1_556 S
N550 H563 0.985 . S
N551 C553 1.356 . S
N551 H556 0.984 . S
N551 H557 0.985 . S
C552 C546 1.379 . S
C552 C549 1.363 1_554 S
C552 N550 1.356 1_554 S
C553 C547 1.363 . S
C553 C548 1.379 1_554 S
C553 N551 1.356 . S
N554 C546 1.356 . S
N554 H560 0.984 . S
N554 H561 0.984 . S
N555 C548 1.356 . S
N555 H558 0.984 . S
N555 H559 0.985 . S
H556 N551 0.984 . S
H557 N551 0.985 . S
H558 N555 0.984 . S
H559 N555 0.985 . S
H560 N554 0.984 . S
H561 N554 0.984 . S
H562 N550 0.984 1_554 S
H563 N550 0.985 . S
C564 C565 1.363 . S
C564 C570 1.379 . S
C564 N572 1.356 . S
C565 C564 1.363 . S
C565 C571 1.363 . S
C566 C567 1.363 . S
C566 C571 1.379 . S
C566 N573 1.356 . S
C567 C566 1.363 . S
C567 C570 1.363 . S
N568 C570 1.356 . S
N568 H580 0.984 . S
N568 H581 0.985 . S
N569 C571 1.356 . S
N569 H574 0.984 . S
N569 H575 0.985 . S
C570 C564 1.379 . S
C570 C567 1.363 . S
C570 N568 1.356 . S
C571 C565 1.363 . S
C571 C566 1.379 . S
C571 N569 1.356 . S
N572 C564 1.356 . S
N572 H578 0.984 . S
N572 H579 0.984 . S
N573 C566 1.356 . S
N573 H576 0.984 . S
N573 H577 0.985 . S
H574 N569 0.984 . S
H575 N569 0.985 . S
H576 N573 0.984 . S
H577 N573 0.985 . S
H578 N572 0.984 . S
H579 N572 0.984 . S
H580 N568 0.984 . S
H581 N568 0.985 . S
C582 C583 1.358 1_556 S
C582 C588 1.379 . S
C582 N590 1.356 . S
C583 C582 1.358 1_554 S
C583 C589 1.361 1_554 S
C584 C585 1.363 . S
C584 C589 1.379 . S
C584 N591 1.356 . S
C585 C584 1.363 . S
C585 C588 1.363 . S
N586 C588 1.356 . S
N586 H598 0.984 1_455 S
N586 H599 0.985 1_455 S
N587 C589 1.356 1_554 S
N587 H592 0.984 . S
N587 H593 0.985 . S
C588 C582 1.379 . S
C588 C585 1.363 . S
C588 N586 1.356 . S
C589 C583 1.361 1_556 S
C589 C584 1.379 . S
C589 N587 1.356 1_556 S
N590 C582 1.356 . S
N590 H596 0.984 . S
N590 H597 0.984 1_556 S
N591 C584 1.356 . S
N591 H594 0.984 . S
N591 H595 0.985 . S
H592 N587 0.984 . S
H593 N587 0.985 . S
H594 N591 0.984 . S
H595 N591 0.985 . S
H596 N590 0.984 . S
H597 N590 0.984 1_554 S
H598 N586 0.984 1_655 S
H599 N586 0.985 1_655 S
C600 C601 1.363 . S
C600 C606 1.379 . S
C600 N608 1.356 . S
C601 C600 1.363 . S
C601 C607 1.363 . S
C602 C603 1.363 . S
C602 C607 1.379 . S
C602 N609 1.356 . S
C603 C602 1.363 . S
C603 C606 1.363 . S
N604 C606 1.356 . S
N604 H616 0.984 . S
N604 H617 0.985 . S
N605 C607 1.356 . S
N605 H610 0.984 . S
N605 H611 0.985 . S
C606 C600 1.379 . S
C606 C603 1.363 . S
C606 N604 1.356 . S
C607 C601 1.363 . S
C607 C602 1.379 . S
C607 N605 1.356 . S
N608 C600 1.356 . S
N608 H614 0.984 . S
N608 H615 0.984 . S
N609 C602 1.356 . S
N609 H612 0.984 . S
N609 H613 0.985 . S
H610 N605 0.984 . S
H611 N605 0.985 . S
H612 N609 0.984 . S
H613 N609 0.985 . S
H614 N608 0.984 . S
H615 N608 0.984 . S
H616 N604 0.984 . S
H617 N604 0.985 . S
C618 C619 1.363 . S
C618 C624 1.379 . S
C618 N626 1.356 . S
C619 C618 1.363 . S
C619 C625 1.363 . S
C620 C621 1.363 . S
C620 C625 1.379 . S
C620 N627 1.356 . S
C621 C620 1.363 . S
C621 C624 1.363 . S
N622 C624 1.356 . S
N622 H634 0.984 . S
N622 H635 0.985 . S
N623 C625 1.356 . S
N623 H628 0.984 . S
N623 H629 0.985 . S
C624 C618 1.379 . S
C624 C621 1.363 . S
C624 N622 1.356 . S
C625 C619 1.363 . S
C625 C620 1.379 . S
C625 N623 1.356 . S
N626 C618 1.356 . S
N626 H632 0.984 . S
N626 H633 0.984 . S
N627 C620 1.356 . S
N627 H630 0.984 . S
N627 H631 0.985 . S
H628 N623 0.984 . S
H629 N623 0.985 . S
H630 N627 0.984 . S
H631 N627 0.985 . S
H632 N626 0.984 . S
H633 N626 0.984 . S
H634 N622 0.984 . S
H635 N622 0.985 . S
C636 C637 1.363 . S
C636 C642 1.379 . S
C636 N644 1.356 . S
C637 C636 1.363 . S
C637 C643 1.363 . S
C638 C639 1.363 . S
C638 C643 1.379 . S
C638 N645 1.356 . S
C639 C638 1.363 . S
C639 C642 1.363 . S
N640 C642 1.356 . S
N640 H652 0.984 . S
N640 H653 0.985 . S
N641 C643 1.356 . S
N641 H646 0.984 . S
N641 H647 0.985 . S
C642 C636 1.379 . S
C642 C639 1.363 . S
C642 N640 1.356 . S
C643 C637 1.363 . S
C643 C638 1.379 . S
C643 N641 1.356 . S
N644 C636 1.356 . S
N644 H650 0.984 . S
N644 H651 0.984 . S
N645 C638 1.356 . S
N645 H648 0.984 . S
N645 H649 0.985 . S
H646 N641 0.984 . S
H647 N641 0.985 . S
H648 N645 0.984 . S
H649 N645 0.985 . S
H650 N644 0.984 . S
H651 N644 0.984 . S
H652 N640 0.984 . S
H653 N640 0.985 . S
C654 C655 1.363 . S
C654 C660 1.379 1_545 S
C654 N662 1.356 . S
C655 C654 1.363 . S
C655 C661 1.363 . S
C656 C657 1.363 1_545 S
C656 C661 1.379 . S
C656 N663 1.356 . S
C657 C656 1.363 1_565 S
C657 C660 1.363 . S
N658 C660 1.356 . S
N658 H670 0.984 . S
N658 H671 0.985 . S
N659 C661 1.356 . S
N659 H664 0.984 . S
N659 H665 0.985 . S
C660 C654 1.379 1_565 S
C660 C657 1.363 . S
C660 N658 1.356 . S
C661 C655 1.363 . S
C661 C656 1.379 . S
C661 N659 1.356 . S
N662 C654 1.356 . S
N662 H668 0.985 . S
N662 H669 0.984 . S
N663 C656 1.356 . S
N663 H666 0.984 . S
N663 H667 0.985 . S
H664 N659 0.984 . S
H665 N659 0.985 . S
H666 N663 0.984 . S
H667 N663 0.985 . S
H668 N662 0.985 . S
H669 N662 0.984 . S
H670 N658 0.984 . S
H671 N658 0.985 . S
C672 C673 1.363 . S
C672 C678 1.379 . S
C672 N680 1.356 . S
C673 C672 1.363 . S
C673 C679 1.363 . S
C674 C675 1.363 . S
C674 C679 1.379 . S
C674 N681 1.356 . S
C675 C674 1.363 . S
C675 C678 1.363 . S
N676 C678 1.356 . S
N676 H688 0.984 . S
N676 H689 0.985 . S
N677 C679 1.356 . S
N677 H682 0.984 . S
N677 H683 0.985 . S
C678 C672 1.379 . S
C678 C675 1.363 . S
C678 N676 1.356 . S
C679 C673 1.363 . S
C679 C674 1.379 . S
C679 N677 1.356 . S
N680 C672 1.356 . S
N680 H686 0.984 . S
N680 H687 0.984 . S
N681 C674 1.356 . S
N681 H684 0.984 . S
N681 H685 0.985 . S
H682 N677 0.984 . S
H683 N677 0.985 . S
H684 N681 0.984 . S
H685 N681 0.985 . S
H686 N680 0.984 . S
H687 N680 0.984 . S
H688 N676 0.984 . S
H689 N676 0.985 . S
C690 C691 1.363 1_565 S
C690 C696 1.379 . S
C690 N698 1.356 . S
C691 C690 1.363 1_545 S
C691 C697 1.363 . S
C692 C693 1.363 . S
C692 C697 1.379 1_565 S
C692 N699 1.356 1_554 S
C693 C692 1.363 . S
C693 C696 1.363 . S
N694 C696 1.356 . S
N694 H706 0.984 . S
N694 H707 0.985 . S
N695 C697 1.356 . S
N695 H700 0.984 . S
N695 H701 0.985 . S
C696 C690 1.379 . S
C696 C693 1.363 . S
C696 N694 1.356 . S
C697 C691 1.363 . S
C697 C692 1.379 1_545 S
C697 N695 1.356 . S
N698 C690 1.356 . S
N698 H704 0.984 . S
N698 H705 0.984 1_565 S
N699 C692 1.356 1_556 S
N699 H702 0.984 . S
N699 H703 0.985 . S
H700 N695 0.984 . S
H701 N695 0.985 . S
H702 N699 0.984 . S
H703 N699 0.985 . S
H704 N698 0.984 . S
H705 N698 0.984 1_545 S
H706 N694 0.984 . S
H707 N694 0.985 . S
C708 C709 1.363 . S
C708 C714 1.379 . S
C708 N716 1.356 . S
C709 C708 1.363 . S
C709 C715 1.363 . S
C710 C711 1.363 . S
C710 C715 1.379 . S
C710 N717 1.356 . S
C711 C710 1.363 . S
C711 C714 1.363 . S
N712 C714 1.356 . S
N712 H724 0.984 . S
N712 H725 0.985 . S
N713 C715 1.356 . S
N713 H718 0.984 . S
N713 H719 0.985 . S
C714 C708 1.379 . S
C714 C711 1.363 . S
C714 N712 1.356 . S
C715 C709 1.363 . S
C715 C710 1.379 . S
C715 N713 1.356 . S
N716 C708 1.356 . S
N716 H722 0.984 . S
N716 H723 0.984 . S
N717 C710 1.356 . S
N717 H720 0.984 . S
N717 H721 0.985 . S
H718 N713 0.984 . S
H719 N713 0.985 . S
H720 N717 0.984 . S
H721 N717 0.985 . S
H722 N716 0.984 . S
H723 N716 0.984 . S
H724 N712 0.984 . S
H725 N712 0.985 . S
C726 C727 1.363 . S
C726 C732 1.379 . S
C726 N734 1.356 . S
C727 C726 1.363 . S
C727 C733 1.363 . S
C728 C729 1.363 . S
C728 C733 1.379 . S
C728 N735 1.356 . S
C729 C728 1.363 . S
C729 C732 1.363 . S
N730 C732 1.356 1_554 S
N730 H742 0.984 . S
N730 H743 0.985 . S
N731 C733 1.356 . S
N731 H736 0.984 . S
N731 H737 0.985 . S
C732 C726 1.379 . S
C732 C729 1.363 . S
C732 N730 1.356 1_556 S
C733 C727 1.363 . S
C733 C728 1.379 . S
C733 N731 1.356 . S
N734 C726 1.356 . S
N734 H740 0.984 . S
N734 H741 0.984 . S
N735 C728 1.356 . S
N735 H738 0.984 . S
N735 H739 0.985 . S
H736 N731 0.984 . S
H737 N731 0.985 . S
H738 N735 0.984 . S
H739 N735 0.985 . S
H740 N734 0.984 . S
H741 N734 0.984 . S
H742 N730 0.984 . S
H743 N730 0.985 . S
C744 C745 1.363 . S
C744 C750 1.379 . S
C744 N752 1.356 . S
C745 C744 1.363 . S
C745 C751 1.363 . S
C746 C747 1.363 . S
C746 C751 1.379 . S
C746 N753 1.356 . S
C747 C746 1.363 . S
C747 C750 1.363 . S
N748 C750 1.356 . S
N748 H760 0.984 . S
N748 H761 0.985 . S
N749 C751 1.356 . S
N749 H754 0.984 . S
N749 H755 0.985 . S
C750 C744 1.379 . S
C750 C747 1.363 . S
C750 N748 1.356 . S
C751 C745 1.363 . S
C751 C746 1.379 . S
C751 N749 1.356 . S
N752 C744 1.356 . S
N752 H758 0.984 . S
N752 H759 0.984 . S
N753 C746 1.356 . S
N753 H756 0.984 . S
N753 H757 0.985 . S
H754 N749 0.984 . S
H755 N749 0.985 . S
H756 N753 0.984 . S
H757 N753 0.985 . S
H758 N752 0.984 . S
H759 N752 0.984 . S
H760 N748 0.984 . S
H761 N748 0.985 . S
C762 C763 1.363 . S
C762 C768 1.379 . S
C762 N770 1.356 . S
C763 C762 1.363 . S
C763 C769 1.363 . S
C764 C765 1.363 . S
C764 C769 1.379 . S
C764 N771 1.356 . S
C765 C764 1.363 . S
C765 C768 1.363 . S
N766 C768 1.356 . S
N766 H778 0.984 . S
N766 H779 0.985 . S
N767 C769 1.356 . S
N767 H772 0.984 . S
N767 H773 0.985 . S
C768 C762 1.379 . S
C768 C765 1.363 . S
C768 N766 1.356 . S
C769 C763 1.363 . S
C769 C764 1.379 . S
C769 N767 1.356 . S
N770 C762 1.356 . S
N770 H776 0.984 . S
N770 H777 0.984 . S
N771 C764 1.356 . S
N771 H774 0.984 . S
N771 H775 0.985 . S
H772 N767 0.984 . S
H773 N767 0.985 . S
H774 N771 0.984 . S
H775 N771 0.985 . S
H776 N770 0.984 . S
H777 N770 0.984 . S
H778 N766 0.984 . S
H779 N766 0.985 . S
C780 C781 1.363 . S
C780 C786 1.379 . S
C780 N788 1.356 . S
C781 C780 1.363 . S
C781 C787 1.363 . S
C782 C783 1.363 . S
C782 C787 1.379 . S
C782 N789 1.356 . S
C783 C782 1.363 . S
C783 C786 1.363 . S
N784 C786 1.356 . S
N784 H796 0.984 . S
N784 H797 0.985 . S
N785 C787 1.356 . S
N785 H790 0.984 . S
N785 H791 0.985 . S
C786 C780 1.379 . S
C786 C783 1.363 . S
C786 N784 1.356 . S
C787 C781 1.363 . S
C787 C782 1.379 . S
C787 N785 1.356 . S
N788 C780 1.356 . S
N788 H794 0.984 . S
N788 H795 0.984 . S
N789 C782 1.356 . S
N789 H792 0.984 . S
N789 H793 0.985 . S
H790 N785 0.984 . S
H791 N785 0.985 . S
H792 N789 0.984 . S
H793 N789 0.985 . S
H794 N788 0.984 . S
H795 N788 0.984 . S
H796 N784 0.984 . S
H797 N784 0.985 . S
C798 C799 1.363 . S
C798 C804 1.379 . S
C798 N806 1.356 . S
C799 C798 1.363 . S
C799 C805 1.363 . S
C800 C801 1.363 . S
C800 C805 1.379 . S
C800 N807 1.356 . S
C801 C800 1.363 . S
C801 C804 1.363 . S
N802 C804 1.356 . S
N802 H814 0.984 . S
N802 H815 0.985 . S
N803 C805 1.356 . S
N803 H808 0.984 . S
N803 H809 0.985 . S
C804 C798 1.379 . S
C804 C801 1.363 . S
C804 N802 1.356 . S
C805 C799 1.363 . S
C805 C800 1.379 . S
C805 N803 1.356 . S
N806 C798 1.356 . S
N806 H812 0.984 . S
N806 H813 0.984 . S
N807 C800 1.356 . S
N807 H810 0.984 . S
N807 H811 0.985 . S
H808 N803 0.984 . S
H809 N803 0.985 . S
H810 N807 0.984 . S
H811 N807 0.985 . S
H812 N806 0.984 . S
H813 N806 0.984 . S
H814 N802 0.984 . S
H815 N802 0.985 . S
C816 C817 1.363 . S
C816 C822 1.379 1_455 S
C816 N824 1.356 . S
C817 C816 1.363 . S
C817 C823 1.363 . S
C818 C819 1.363 1_455 S
C818 C823 1.379 . S
C818 N825 1.356 . S
C819 C818 1.363 1_655 S
C819 C822 1.363 . S
N820 C822 1.356 . S
N820 H832 0.984 . S
N820 H833 0.985 . S
N821 C823 1.356 . S
N821 H826 0.984 . S
N821 H827 0.985 . S
C822 C816 1.379 1_655 S
C822 C819 1.363 . S
C822 N820 1.356 . S
C823 C817 1.363 . S
C823 C818 1.379 . S
C823 N821 1.356 . S
N824 C816 1.356 . S
N824 H830 0.984 1_455 S
N824 H831 0.984 . S
N825 C818 1.356 . S
N825 H828 0.984 1_455 S
N825 H829 0.985 . S
H826 N821 0.984 . S
H827 N821 0.985 . S
H828 N825 0.984 1_655 S
H829 N825 0.985 . S
H830 N824 0.984 1_655 S
H831 N824 0.984 . S
H832 N820 0.984 . S
H833 N820 0.985 . S
C834 C835 1.363 . S
C834 C840 1.379 . S
C834 N842 1.356 . S
C835 C834 1.363 . S
C835 C841 1.363 . S
C836 C837 1.363 . S
C836 C841 1.379 . S
C836 N843 1.356 . S
C837 C836 1.363 . S
C837 C840 1.363 . S
N838 C840 1.356 . S
N838 H850 0.984 . S
N838 H851 0.985 . S
N839 C841 1.356 . S
N839 H844 0.984 . S
N839 H845 0.985 . S
C840 C834 1.379 . S
C840 C837 1.363 . S
C840 N838 1.356 . S
C841 C835 1.363 . S
C841 C836 1.379 . S
C841 N839 1.356 . S
N842 C834 1.356 . S
N842 H848 0.984 . S
N842 H849 0.984 . S
N843 C836 1.356 . S
N843 H846 0.984 . S
N843 H847 0.985 . S
H844 N839 0.984 . S
H845 N839 0.985 . S
H846 N843 0.984 . S
H847 N843 0.985 . S
H848 N842 0.984 . S
H849 N842 0.984 . S
H850 N838 0.984 . S
H851 N838 0.985 . S
C852 C853 1.363 . S
C852 C858 1.379 . S
C852 N860 1.356 . S
C853 C852 1.363 . S
C853 C859 1.363 . S
C854 C855 1.363 . S
C854 C859 1.379 . S
C854 N861 1.356 . S
C855 C854 1.363 . S
C855 C858 1.363 . S
N856 C858 1.356 . S
N856 H868 0.984 . S
N856 H869 0.985 . S
N857 C859 1.356 . S
N857 H862 0.984 . S
N857 H863 0.985 . S
C858 C852 1.379 . S
C858 C855 1.363 . S
C858 N856 1.356 . S
C859 C853 1.363 . S
C859 C854 1.379 . S
C859 N857 1.356 . S
N860 C852 1.356 . S
N860 H866 0.984 . S
N860 H867 0.984 . S
N861 C854 1.356 . S
N861 H864 0.984 . S
N861 H865 0.985 . S
H862 N857 0.984 . S
H863 N857 0.985 . S
H864 N861 0.984 . S
H865 N861 0.985 . S
H866 N860 0.984 . S
H867 N860 0.984 . S
H868 N856 0.984 . S
H869 N856 0.985 . S
C870 C871 1.363 . S
C870 C876 1.379 . S
C870 N878 1.356 . S
C871 C870 1.363 . S
C871 C877 1.363 . S
C872 C873 1.363 . S
C872 C877 1.379 . S
C872 N879 1.356 . S
C873 C872 1.363 . S
C873 C876 1.363 . S
N874 C876 1.356 . S
N874 H886 0.984 . S
N874 H887 0.985 . S
N875 C877 1.356 . S
N875 H880 0.984 . S
N875 H881 0.985 . S
C876 C870 1.379 . S
C876 C873 1.363 . S
C876 N874 1.356 . S
C877 C871 1.363 . S
C877 C872 1.379 . S
C877 N875 1.356 . S
N878 C870 1.356 . S
N878 H884 0.984 . S
N878 H885 0.984 . S
N879 C872 1.356 . S
N879 H882 0.984 . S
N879 H883 0.985 . S
H880 N875 0.984 . S
H881 N875 0.985 . S
H882 N879 0.984 . S
H883 N879 0.985 . S
H884 N878 0.984 . S
H885 N878 0.984 . S
H886 N874 0.984 . S
H887 N874 0.985 . S
C888 C889 1.363 . S
C888 C894 1.379 . S
C888 N896 1.356 . S
C889 C888 1.363 . S
C889 C895 1.363 . S
C890 C891 1.363 . S
C890 C895 1.379 . S
C890 N897 1.356 . S
C891 C890 1.363 . S
C891 C894 1.363 . S
N892 C894 1.356 . S
N892 H904 0.984 1_565 S
N892 H905 0.985 1_565 S
N893 C895 1.356 . S
N893 H898 0.984 . S
N893 H899 0.985 . S
C894 C888 1.379 . S
C894 C891 1.363 . S
C894 N892 1.356 . S
C895 C889 1.363 . S
C895 C890 1.379 . S
C895 N893 1.356 . S
N896 C888 1.356 . S
N896 H902 0.984 . S
N896 H903 0.984 . S
N897 C890 1.356 . S
N897 H900 0.984 . S
N897 H901 0.985 . S
H898 N893 0.984 . S
H899 N893 0.985 . S
H900 N897 0.984 . S
H901 N897 0.985 . S
H902 N896 0.984 . S
H903 N896 0.984 . S
H904 N892 0.984 1_545 S
H905 N892 0.985 1_545 S
C906 C907 1.363 . S
C906 C912 1.379 . S
C906 N914 1.356 . S
C907 C906 1.363 . S
C907 C913 1.363 . S
C908 C909 1.368 . S
C908 C913 1.379 . S
C908 N915 1.356 . S
C909 C908 1.368 . S
C909 C912 1.364 . S
N910 C912 1.356 1_455 S
N910 H922 0.984 . S
N910 H923 0.985 . S
N911 C913 1.356 . S
N911 H916 0.984 . S
N911 H917 0.985 . S
C912 C906 1.379 . S
C912 C909 1.364 . S
C912 N910 1.356 1_655 S
C913 C907 1.363 . S
C913 C908 1.379 . S
C913 N911 1.356 . S
N914 C906 1.356 . S
N914 H920 0.984 . S
N914 H921 0.984 . S
N915 C908 1.356 . S
N915 H918 0.984 1_655 S
N915 H919 0.985 . S
H916 N911 0.984 . S
H917 N911 0.985 . S
H918 N915 0.984 1_455 S
H919 N915 0.985 . S
H920 N914 0.984 . S
H921 N914 0.984 . S
H922 N910 0.984 . S
H923 N910 0.985 . S
C277 C19 1.483 . S
C279 C272 1.509 . S
C295 C223 1.720 . S
C297 C40 1.790 . S
C313 C63 1.613 . S
C315 C201 1.629 . S
C331 C88 1.586 . S
C333 C247 1.588 . S
C349 C108 1.542 . S
C351 C249 1.582 . S
C367 C132 1.672 . S
C369 C270 1.651 . S
C385 C228 1.676 . S
C387 C155 1.603 . S
C403 C180 1.460 . S
C405 C203 1.460 . S
C421 C86 1.452 . S
C423 C113 1.526 . S
C439 C17 1.558 . S
C441 C134 1.518 . S
C457 C42 1.575 . S
C459 C157 1.590 . S
C475 C178 1.535 . S
C477 C65 1.529 . S
C493 C18 1.191 . S
C495 C200 1.183 . S
C511 C44 1.149 . S
C513 C246 1.247 . S
C529 C273 1.131 . S
C531 C67 1.096 . S
C547 C87 1.139 . S
C549 C224 1.134 . S
C565 C111 1.187 . S
C567 C225 1.274 . S
C583 C204 1.285 . S
C585 C136 1.177 . S
C601 C250 1.229 . S
C603 C159 1.176 . S
C619 C269 1.193 . S
C621 C179 1.201 . S
C637 C16 1.401 . S
C639 C90 1.338 . S
C655 C21 1.214 . S
C657 C43 1.317 . S
C673 C41 1.077 . S
C675 C66 1.038 . S
C691 C85 1.134 . S
C693 C64 1.142 . S
C709 C133 1.138 . S
C711 C110 1.132 . S
C727 C135 1.104 . S
C729 C156 1.131 . S
C745 C158 1.298 . S
C747 C182 1.250 . S
C763 C112 1.214 . S
C765 C177 1.214 . S
C781 C202 1.159 . S
C783 C89 1.123 . S
C799 C131 1.263 . S
C801 C226 1.185 . S
C817 C205 1.275 . S
C819 C154 1.384 . S
C835 C251 1.166 . S
C837 C181 1.215 . S
C853 C109 1.225 . S
C855 C271 1.229 . S
C871 C274 1.180 . S
C873 C39 1.224 . S
C889 C62 1.144 . S
C891 C227 1.137 . S
C907 C248 1.041 . S
C909 C20 1.005 1_655 S
