# Generated by pormake.
# Topology vbf, (5)-cn, num edge types: 1
# Building blocks:
#     Node 0, Type 0, BuildingBlock: XOMCOT_clean_sbu_1, # of connection points: 5
#     Node 1, Type 0, BuildingBlock: XOMCOT_clean_sbu_1, # of connection points: 5
#     Node 2, Type 0, BuildingBlock: XOMCOT_clean_sbu_1, # of connection points: 5
#     Node 3, Type 0, BuildingBlock: XOMCOT_clean_sbu_1, # of connection points: 5
#     Node 4, Type 0, BuildingBlock: XOMCOT_clean_sbu_1, # of connection points: 5
#     Node 5, Type 0, BuildingBlock: XOMCOT_clean_sbu_1, # of connection points: 5
#     Node 6, Type 0, BuildingBlock: XOMCOT_clean_sbu_1, # of connection points: 5
#     Node 7, Type 0, BuildingBlock: XOMCOT_clean_sbu_1, # of connection points: 5
#     Node 8, Type 0, BuildingBlock: XOMCOT_clean_sbu_1, # of connection points: 5
#     Node 9, Type 0, BuildingBlock: XOMCOT_clean_sbu_1, # of connection points: 5
#     Node 10, Type 0, BuildingBlock: XOMCOT_clean_sbu_1, # of connection points: 5
#     Node 11, Type 0, BuildingBlock: XOMCOT_clean_sbu_1, # of connection points: 5
#     Node 12, Type 0, BuildingBlock: XOMCOT_clean_sbu_1, # of connection points: 5
#     Node 13, Type 0, BuildingBlock: XOMCOT_clean_sbu_1, # of connection points: 5
#     Node 14, Type 0, BuildingBlock: XOMCOT_clean_sbu_1, # of connection points: 5
#     Node 15, Type 0, BuildingBlock: XOMCOT_clean_sbu_1, # of connection points: 5
#     Edge 16, Type (0, 0), None
#     Edge 17, Type (0, 0), None
#     Edge 18, Type (0, 0), None
#     Edge 19, Type (0, 0), None
#     Edge 20, Type (0, 0), None
#     Edge 21, Type (0, 0), None
#     Edge 22, Type (0, 0), None
#     Edge 23, Type (0, 0), None
#     Edge 24, Type (0, 0), None
#     Edge 25, Type (0, 0), None
#     Edge 26, Type (0, 0), None
#     Edge 27, Type (0, 0), None
#     Edge 28, Type (0, 0), None
#     Edge 29, Type (0, 0), None
#     Edge 30, Type (0, 0), None
#     Edge 31, Type (0, 0), None
#     Edge 32, Type (0, 0), None
#     Edge 33, Type (0, 0), None
#     Edge 34, Type (0, 0), None
#     Edge 35, Type (0, 0), None
#     Edge 36, Type (0, 0), None
#     Edge 37, Type (0, 0), None
#     Edge 38, Type (0, 0), None
#     Edge 39, Type (0, 0), None
#     Edge 40, Type (0, 0), None
#     Edge 41, Type (0, 0), None
#     Edge 42, Type (0, 0), None
#     Edge 43, Type (0, 0), None
#     Edge 44, Type (0, 0), None
#     Edge 45, Type (0, 0), None
#     Edge 46, Type (0, 0), None
#     Edge 47, Type (0, 0), None
#     Edge 48, Type (0, 0), None
#     Edge 49, Type (0, 0), None
#     Edge 50, Type (0, 0), None
#     Edge 51, Type (0, 0), None
#     Edge 52, Type (0, 0), None
#     Edge 53, Type (0, 0), None
#     Edge 54, Type (0, 0), None
#     Edge 55, Type (0, 0), None
# Relax obj value: 0.075
# Max RMSD: 0.169
# Mean RMSD: 0.154
data_MOF--net-vbf--node1-XOMCOT_clean_sbu_1--edge1-none
_symmetry_space_group_name_H-M    P1
_symmetry_Int_Tables_number       1
_symmetry_cell_setting            triclinic
loop_
_symmetry_equiv_pos_as_xyz
'x, y, z'
_cell_length_a     19.810781
_cell_length_b     37.506705
_cell_length_c     15.165627
_cell_angle_alpha  89.990111
_cell_angle_beta   90.001936
_cell_angle_gamma 68.08241
loop_
_atom_site_label
_atom_site_type_symbol
_atom_site_fract_x
_atom_site_fract_y
_atom_site_fract_z
_atom_type_partial_charge
C0 C 0.08283 0.43278 -0.00362 0.0
C1 C 0.11807 0.45242 0.95024 0.0
N2 N 0.17544 0.42624 0.90973 0.0
N3 N 0.1182 0.39449 0.98556 0.0
C4 C 0.17476 0.39158 0.93203 0.0
H5 H 0.03474 0.44584 0.03548 0.0
Co6 Co 0.09676 0.35379 0.03545 0.0
C7 C 0.24906 0.29332 0.06582 0.0
O8 O 0.22968 0.26371 0.05636 0.0
N9 N 0.07488 0.31224 0.08604 0.0
C10 C 0.0533 0.25815 0.10322 0.0
C11 C 0.07631 0.27964 0.04589 0.0
C12 C 0.05025 0.30942 0.16841 0.0
N13 N 0.03615 0.2772 0.17995 0.0
O14 O 0.08491 0.37818 0.14964 0.0
H15 H 0.09369 0.27116 0.9791 0.0
H16 H 0.04407 0.32987 0.2207 0.0
O17 O 0.20196 0.32747 0.05779 0.0
C18 C 1.01835 0.39898 0.16521 0.0
O19 O 0.96935 0.40107 0.10504 0.0
N20 N 0.09883 0.33308 0.92184 0.0
C21 C 0.07061 0.30599 0.75965 0.0
C22 C 0.14256 0.29679 0.78921 0.0
C23 C 0.15568 0.31046 0.87113 0.0
C24 C 1.02908 0.34347 0.89222 0.0
C25 C 1.01365 0.32974 0.8122 0.0
H26 H 0.21106 0.30248 0.89354 0.0
H27 H 0.98477 0.36171 0.93286 0.0
H28 H 0.21564 0.36466 0.9111 0.0
H29 H 0.10232 0.48328 0.94585 0.0
H30 H 0.04919 0.23072 0.0894 0.0
H31 H 0.18811 0.27837 0.75044 0.0
H32 H 0.95767 0.3378 0.79123 0.0
C33 C 0.98188 0.64745 -0.00347 0.0
C34 C 0.94666 0.6278 0.95036 0.0
N35 N 0.88933 0.65398 0.90978 0.0
N36 N 0.94652 0.68574 0.98565 0.0
C37 C 0.88999 0.68864 0.93206 0.0
H38 H 1.02994 0.63438 0.03571 0.0
Co39 Co 0.96795 0.72644 0.03552 0.0
C40 C 0.81565 0.78689 0.06585 0.0
O41 O 0.83503 0.81651 0.05638 0.0
N42 N 0.98981 0.76799 0.08608 0.0
C43 C 1.0114 0.82208 0.10322 0.0
C44 C 0.9884 0.8006 0.0459 0.0
C45 C 1.01443 0.77082 0.16846 0.0
N46 N 1.02854 0.80304 0.17998 0.0
O47 O 0.97982 0.70204 0.14972 0.0
H48 H 0.97103 0.80907 0.9791 0.0
H49 H 1.02059 0.75037 0.22077 0.0
O50 O 0.86275 0.75275 0.05784 0.0
C51 C 0.0464 0.68126 0.16525 0.0
O52 O 0.09535 0.6792 0.10505 0.0
N53 N 0.96586 0.74716 0.9219 0.0
C54 C 0.99408 0.77424 0.75968 0.0
C55 C 0.92213 0.78345 0.78924 0.0
C56 C 0.90901 0.76978 0.87117 0.0
C57 C 0.03561 0.73676 0.89227 0.0
C58 C 0.05104 0.75049 0.81224 0.0
H59 H 0.85364 0.77777 0.89358 0.0
H60 H 0.07992 0.71852 0.93293 0.0
H61 H 0.84913 0.71557 0.91107 0.0
H62 H 0.96241 0.59695 0.94602 0.0
H63 H 1.01553 0.84951 0.08937 0.0
H64 H 0.87658 0.80188 0.75046 0.0
H65 H 0.10702 0.74243 0.79128 0.0
C66 C 0.18677 0.51935 0.21061 0.0
C67 C 0.12702 0.50901 0.20196 0.0
N68 N 0.06879 0.53861 0.23134 0.0
N69 N 0.16517 0.55501 0.24574 0.0
C70 C 0.09284 0.56562 0.25855 0.0
H71 H 0.24195 0.50242 0.19084 0.0
Co72 Co 0.2189 0.58589 0.26793 0.0
C73 C 0.07011 0.66007 0.24853 0.0
O74 O 1.02687 0.66826 0.31743 0.0
N75 N 0.26992 0.61842 0.29073 0.0
C76 C 0.29799 0.67077 0.29151 0.0
C77 C 0.25582 0.65313 0.25283 0.0
C78 C 0.32216 0.6152 0.35127 0.0
N79 N 0.33946 0.64676 0.35302 0.0
O80 O 0.20417 0.58159 0.39 0.0
H81 H 0.2164 0.66526 0.20113 0.0
H82 H 0.34545 0.59093 0.39505 0.0
O83 O 0.13014 0.63109 0.25049 0.0
C84 C 0.25726 0.54941 0.4019 0.0
O85 O 0.29955 0.53327 0.33466 0.0
N86 N 0.24331 0.58354 0.15074 0.0
C87 C 0.28752 0.54956 0.98797 0.0
C88 C 0.21484 0.57399 0.00244 0.0
C89 C 0.1936 0.59026 0.085 0.0
C90 C 0.31502 0.56191 0.13647 0.0
C91 C 0.33846 0.5442 0.05519 0.0
H92 H 0.13667 0.60447 0.09895 0.0
H93 H 0.35317 0.55567 0.19064 0.0
H94 H 0.05803 0.59226 0.28823 0.0
H95 H 0.12588 0.48263 0.17431 0.0
H96 H 0.29814 0.69888 0.27579 0.0
H97 H 0.17357 0.57853 0.95219 0.0
H98 H 0.39501 0.52587 0.04587 0.0
C99 C 0.87807 0.56088 0.21066 0.0
C100 C 0.93783 0.57121 0.20199 0.0
N101 N 0.99606 0.54159 0.23132 0.0
N102 N 0.89967 0.5252 0.24577 0.0
C103 C 0.972 0.51458 0.25856 0.0
H104 H 0.82288 0.57781 0.19092 0.0
Co105 Co 0.84594 0.49432 0.26797 0.0
C106 C 0.99472 0.42013 0.24855 0.0
O107 O 0.038 0.41187 0.31741 0.0
N108 N 0.79492 0.46179 0.29078 0.0
C109 C 0.76683 0.40945 0.29155 0.0
C110 C 0.80903 0.42708 0.2529 0.0
C111 C 0.74265 0.46501 0.35128 0.0
N112 N 0.72534 0.43346 0.35302 0.0
O113 O 0.86066 0.49862 0.39004 0.0
H114 H 0.84845 0.41495 0.20122 0.0
H115 H 0.71934 0.48928 0.39503 0.0
O116 O 0.93471 0.44912 0.25061 0.0
C117 C 0.80756 0.5308 0.40191 0.0
O118 O 0.76527 0.54693 0.33465 0.0
N119 N 0.82155 0.49667 0.15077 0.0
C120 C 0.77731 0.53066 0.98798 0.0
C121 C 0.85 0.50624 0.00248 0.0
C122 C 0.87125 0.48998 0.08506 0.0
C123 C 0.74982 0.51828 0.13648 0.0
C124 C 0.72638 0.53599 0.05518 0.0
H125 H 0.92818 0.47579 0.09904 0.0
H126 H 0.71167 0.52451 0.19063 0.0
H127 H 1.00683 0.48793 0.28823 0.0
H128 H 0.93896 0.59759 0.17435 0.0
H129 H 0.76667 0.38134 0.27584 0.0
H130 H 0.89128 0.50172 0.95225 0.0
H131 H 0.66981 0.55432 0.04583 0.0
C132 C 0.09371 0.93366 0.52016 0.0
C133 C 0.13042 0.95254 0.47447 0.0
N134 N 0.17825 0.92689 0.42086 0.0
N135 N 0.11848 0.89632 0.49563 0.0
C136 C 0.17046 0.89309 0.43483 0.0
H137 H 0.05202 0.94655 0.56863 0.0
Co138 Co 0.08731 0.85778 0.53742 0.0
C139 C 0.23752 0.79337 0.57465 0.0
O140 O 0.21726 0.76464 0.59312 0.0
N141 N 0.05356 0.82022 0.58038 0.0
C142 C 0.969 0.79534 0.60342 0.0
C143 C 0.99599 0.81451 0.54449 0.0
C144 C 0.06056 0.80407 0.66154 0.0
N145 N 1.00927 0.78901 0.67729 0.0
O146 O 0.07928 0.87845 0.65454 0.0
H147 H 0.97099 0.82649 0.48236 0.0
H148 H 0.09769 0.80667 0.71123 0.0
O149 O 0.1903 0.82638 0.5553 0.0
C150 C 1.01307 0.89828 0.67368 0.0
O151 O 0.96274 0.90192 0.6143 0.0
N152 N 0.08819 0.83934 0.42158 0.0
C153 C 0.05269 0.81559 0.25957 0.0
C154 C 0.10296 0.78918 0.31609 0.0
C155 C 0.12051 0.80172 0.39683 0.0
C156 C 0.04095 0.86548 0.36606 0.0
C157 C 1.02341 0.85434 0.28418 0.0
H158 H 0.15579 0.78072 0.44163 0.0
H159 H 1.01358 0.89491 0.38742 0.0
H160 H 0.20195 0.86649 0.40182 0.0
H161 H 0.12212 0.98266 0.47973 0.0
H162 H 0.92109 0.7884 0.59441 0.0
H163 H 0.12694 0.759 0.29898 0.0
H164 H 0.98389 0.87548 0.24279 0.0
C165 C 0.97103 0.14656 0.52021 0.0
C166 C 0.93434 0.12768 0.47451 0.0
N167 N 0.88651 0.15333 0.42088 0.0
N168 N 0.94625 0.18391 0.49566 0.0
C169 C 0.89428 0.18713 0.43484 0.0
H170 H 1.01272 0.13367 0.5687 0.0
Co171 Co 0.97741 0.22245 0.53743 0.0
C172 C 0.82719 0.28684 0.57462 0.0
O173 O 0.84745 0.31558 0.59307 0.0
N174 N 1.01114 0.26001 0.58037 0.0
C175 C 0.09568 0.28491 0.6034 0.0
C176 C 0.0687 0.26573 0.54448 0.0
C177 C 1.00415 0.27616 0.66153 0.0
N178 N 0.05542 0.29122 0.67727 0.0
O179 O 0.98547 0.20176 0.65454 0.0
H180 H 0.0937 0.25376 0.48235 0.0
H181 H 0.96702 0.27354 0.71122 0.0
O182 O 0.87441 0.25384 0.5553 0.0
C183 C 0.05169 0.18194 0.67368 0.0
O184 O 0.10201 0.17831 0.61428 0.0
N185 N 0.97651 0.2409 0.42159 0.0
C186 C 1.012 0.26465 0.25956 0.0
C187 C 0.96172 0.29105 0.31604 0.0
C188 C 0.94417 0.27851 0.3968 0.0
C189 C 1.02376 0.21475 0.3661 0.0
C190 C 0.04129 0.2259 0.28421 0.0
H191 H 0.90889 0.29951 0.44157 0.0
H192 H 0.05114 0.18533 0.38749 0.0
H193 H 0.86279 0.21373 0.4018 0.0
H194 H 0.94266 0.09756 0.47978 0.0
H195 H 0.14358 0.29186 0.59439 0.0
H196 H 0.93773 0.32123 0.2989 0.0
H197 H 0.08082 0.20476 0.24285 0.0
C198 C 0.18712 1.0193 0.71364 0.0
C199 C 0.12761 1.00887 0.70367 0.0
N200 N 0.06866 1.03882 0.73001 0.0
N201 N 0.16476 0.0553 0.74698 0.0
C202 C 0.09206 0.06613 0.7569 0.0
H203 H 0.24281 1.00207 0.69652 0.0
Co204 Co 0.21918 0.0856 0.77087 0.0
C205 C 0.07243 0.16131 0.75777 0.0
O206 O 1.02788 0.17124 0.82536 0.0
N207 N 0.27078 0.11762 0.79534 0.0
C208 C 0.30151 0.16913 0.79551 0.0
C209 C 0.26015 0.15147 0.75497 0.0
C210 C 0.31973 0.11502 0.85963 0.0
N211 N 0.33868 0.14604 0.86105 0.0
O212 O 0.20786 0.07873 0.89261 0.0
H213 H 0.22358 0.16299 0.7003 0.0
H214 H 0.33957 0.09157 0.90609 0.0
O215 O 0.13062 0.13133 0.76271 0.0
C216 C 0.26082 0.04645 0.90313 0.0
O217 O 0.30297 1.03099 0.83536 0.0
N218 N 0.24013 0.0857 0.6529 0.0
C219 C 0.28376 0.05282 0.48889 0.0
C220 C 0.21086 0.07671 0.50438 0.0
C221 C 0.18983 0.09234 0.58776 0.0
C222 C 0.31193 0.06473 0.63734 0.0
C223 C 0.33505 0.04761 0.55556 0.0
H224 H 0.13283 0.10595 0.60259 0.0
H225 H 0.35055 0.05827 0.69105 0.0
H226 H 0.05647 0.09307 0.78464 0.0
H227 H 0.12726 0.98206 0.67776 0.0
H228 H 0.30376 0.19668 0.77842 0.0
H229 H 0.1694 0.08106 0.45446 0.0
H230 H 0.39172 1.02961 0.54555 0.0
C231 C 0.87769 0.06092 0.71368 0.0
C232 C 0.9372 0.07134 0.7037 0.0
N233 N 0.99615 0.04139 0.73002 0.0
N234 N 0.90006 1.02491 0.74701 0.0
C235 C 0.97276 1.01407 0.75691 0.0
H236 H 0.822 0.07815 0.69657 0.0
Co237 Co 0.84563 0.99461 0.7709 0.0
C238 C 0.99235 0.9189 0.75779 0.0
O239 O 0.0369 0.90893 0.82539 0.0
N240 N 0.79403 0.96259 0.79538 0.0
C241 C 0.76329 0.91108 0.79555 0.0
C242 C 0.80466 0.92874 0.75502 0.0
C243 C 0.74506 0.96519 0.85965 0.0
N244 N 0.72611 0.93417 0.86106 0.0
O245 O 0.85696 1.00147 0.89266 0.0
H246 H 0.84124 0.91722 0.70037 0.0
H247 H 0.72522 0.98864 0.90609 0.0
O248 O 0.93418 0.94888 0.76274 0.0
C249 C 0.80399 1.03375 0.90315 0.0
O250 O 0.76184 0.0492 0.83536 0.0
N251 N 0.82468 0.99452 0.65294 0.0
C252 C 0.78106 1.02738 0.48889 0.0
C253 C 0.85396 1.00351 0.50442 0.0
C254 C 0.87499 0.98789 0.58783 0.0
C255 C 0.75287 1.01548 0.63734 0.0
C256 C 0.72976 1.03259 0.55554 0.0
H257 H 0.93199 0.97429 0.60268 0.0
H258 H 0.71425 1.02193 0.69103 0.0
H259 H 1.00835 0.98713 0.78463 0.0
H260 H 0.93754 0.09816 0.67779 0.0
H261 H 0.76102 0.88354 0.77847 0.0
H262 H 0.89542 0.99917 0.45452 0.0
H263 H 0.67309 0.05058 0.54549 0.0
C264 C 0.58285 0.43279 0.49643 0.0
C265 C 0.61808 0.45243 0.45027 0.0
N266 N 0.67541 0.42625 0.40969 0.0
N267 N 0.6182 0.3945 0.48557 0.0
C268 C 0.67473 0.39159 0.43199 0.0
H269 H 0.53479 0.44585 0.53559 0.0
Co270 Co 0.59676 0.35379 0.53546 0.0
C271 C 0.74905 0.29333 0.56583 0.0
O272 O 0.72968 0.26371 0.55639 0.0
N273 N 0.57489 0.31225 0.58605 0.0
C274 C 0.5533 0.25815 0.60322 0.0
C275 C 0.57631 0.27964 0.54589 0.0
C276 C 0.55026 0.30942 0.66841 0.0
N277 N 0.53615 0.2772 0.67996 0.0
O278 O 0.58491 0.37818 0.64965 0.0
H279 H 0.59369 0.27116 0.4791 0.0
H280 H 0.54408 0.32987 0.72071 0.0
O281 O 0.70195 0.32747 0.55779 0.0
C282 C 0.51835 0.39898 0.66522 0.0
O283 O 0.46935 0.40107 0.60505 0.0
N284 N 0.59883 0.33308 0.42185 0.0
C285 C 0.57061 0.30599 0.25965 0.0
C286 C 0.64256 0.29679 0.28922 0.0
C287 C 0.65568 0.31046 0.37114 0.0
C288 C 0.52908 0.34348 0.39222 0.0
C289 C 0.51365 0.32975 0.3122 0.0
H290 H 0.71105 0.30248 0.39355 0.0
H291 H 0.48477 0.36171 0.43285 0.0
H292 H 0.71559 0.36466 0.41103 0.0
H293 H 0.60235 0.48328 0.44591 0.0
H294 H 0.54919 0.23072 0.5894 0.0
H295 H 0.68811 0.27836 0.25046 0.0
H296 H 0.45766 0.33781 0.29123 0.0
C297 C 0.48186 0.64744 0.49658 0.0
C298 C 0.44665 0.6278 0.45039 0.0
N299 N 0.38936 0.65398 0.40974 0.0
N300 N 0.44653 0.68573 0.48565 0.0
C301 C 0.39003 0.68863 0.43202 0.0
H302 H 0.52989 0.63438 0.53582 0.0
Co303 Co 0.46795 0.72644 0.53552 0.0
C304 C 0.31566 0.78689 0.56586 0.0
O305 O 0.33503 0.81651 0.55642 0.0
N306 N 0.48981 0.76799 0.58609 0.0
C307 C 0.5114 0.82208 0.60322 0.0
C308 C 0.4884 0.80059 0.5459 0.0
C309 C 0.51442 0.77082 0.66846 0.0
N310 N 0.52853 0.80304 0.67998 0.0
O311 O 0.47982 0.70204 0.64973 0.0
H312 H 0.47104 0.80907 0.4791 0.0
H313 H 0.52058 0.75037 0.72078 0.0
O314 O 0.36276 0.75275 0.55783 0.0
C315 C 0.54641 0.68126 0.66526 0.0
O316 O 0.59535 0.67921 0.60506 0.0
N317 N 0.46586 0.74715 0.4219 0.0
C318 C 0.49408 0.77424 0.25969 0.0
C319 C 0.42213 0.78346 0.28925 0.0
C320 C 0.40901 0.76978 0.37118 0.0
C321 C 0.53561 0.73676 0.39227 0.0
C322 C 0.55104 0.75048 0.31225 0.0
H323 H 0.35364 0.77778 0.39359 0.0
H324 H 0.57992 0.71851 0.43292 0.0
H325 H 0.34918 0.71556 0.411 0.0
H326 H 0.46238 0.59694 0.44608 0.0
H327 H 0.51553 0.84951 0.58938 0.0
H328 H 0.37658 0.80189 0.25048 0.0
H329 H 0.60703 0.74242 0.29128 0.0
C330 C 0.68677 0.51934 0.71061 0.0
C331 C 0.62702 0.50901 0.70195 0.0
N332 N 0.56879 0.53861 0.73133 0.0
N333 N 0.66517 0.55501 0.74573 0.0
C334 C 0.59284 0.56562 0.75854 0.0
H335 H 0.74195 0.50242 0.69083 0.0
Co336 Co 0.7189 0.58589 0.76793 0.0
C337 C 0.57011 0.66007 0.74854 0.0
O338 O 0.52688 0.66825 0.81744 0.0
N339 N 0.76992 0.61842 0.79073 0.0
C340 C 0.79798 0.67077 0.79153 0.0
C341 C 0.75582 0.65312 0.75283 0.0
C342 C 0.82215 0.6152 0.8513 0.0
N343 N 0.83943 0.64677 0.85306 0.0
O344 O 0.70417 0.58158 0.89 0.0
H345 H 0.71642 0.66525 0.70111 0.0
H346 H 0.84543 0.59094 0.89508 0.0
O347 O 0.63014 0.63109 0.75049 0.0
C348 C 0.75726 0.54941 0.9019 0.0
O349 O 0.79955 0.53327 0.83466 0.0
N350 N 0.74331 0.58354 0.65074 0.0
C351 C 0.78753 0.54956 0.48797 0.0
C352 C 0.71485 0.57399 0.50243 0.0
C353 C 0.69361 0.59026 0.585 0.0
C354 C 0.81502 0.56191 0.63647 0.0
C355 C 0.83846 0.5442 0.5552 0.0
H356 H 0.63668 0.60448 0.59894 0.0
H357 H 0.85318 0.55566 0.69064 0.0
H358 H 0.55803 0.59226 0.78823 0.0
H359 H 0.62588 0.48263 0.6743 0.0
H360 H 0.79814 0.69888 0.77581 0.0
H361 H 0.67357 0.57854 0.45219 0.0
H362 H 0.89501 0.52586 0.54587 0.0
C363 C 0.37807 0.56088 0.71066 0.0
C364 C 0.43783 0.57121 0.70198 0.0
N365 N 0.49606 0.54159 0.73131 0.0
N366 N 0.39967 0.5252 0.74577 0.0
C367 C 0.472 0.51458 0.75855 0.0
H368 H 0.32288 0.57781 0.69091 0.0
Co369 Co 0.34594 0.49433 0.76797 0.0
C370 C 0.49472 0.42013 0.74855 0.0
O371 O 0.538 0.41188 0.81742 0.0
N372 N 0.29492 0.46179 0.79078 0.0
C373 C 0.26684 0.40945 0.79157 0.0
C374 C 0.30902 0.42709 0.7529 0.0
C375 C 0.24266 0.46501 0.8513 0.0
N376 N 0.22537 0.43345 0.85306 0.0
O377 O 0.36066 0.49863 0.89004 0.0
H378 H 0.34843 0.41496 0.70121 0.0
H379 H 0.21936 0.48928 0.89505 0.0
O380 O 0.43471 0.44912 0.75061 0.0
C381 C 0.30756 0.5308 0.90191 0.0
O382 O 0.26527 0.54694 0.83465 0.0
N383 N 0.32154 0.49667 0.65077 0.0
C384 C 0.27731 0.53066 0.48798 0.0
C385 C 0.35 0.50624 0.50248 0.0
C386 C 0.37125 0.48997 0.58506 0.0
C387 C 0.24982 0.51829 0.63648 0.0
C388 C 0.22638 0.536 0.55519 0.0
H389 H 0.42818 0.47578 0.59903 0.0
H390 H 0.21167 0.52452 0.69063 0.0
H391 H 0.50682 0.48793 0.78823 0.0
H392 H 0.43896 0.59759 0.67434 0.0
H393 H 0.26668 0.38134 0.77585 0.0
H394 H 0.39128 0.50172 0.45225 0.0
H395 H 0.16981 0.55432 0.54584 0.0
C396 C 0.59371 0.93366 0.02017 0.0
C397 C 0.63042 0.95254 0.97447 0.0
N398 N 0.67822 0.9269 0.92084 0.0
N399 N 0.61847 0.89632 -0.00438 0.0
C400 C 0.67044 0.8931 0.93481 0.0
H401 H 0.55203 0.94655 0.06866 0.0
Co402 Co 0.5873 0.85778 0.03742 0.0
C403 C 0.73751 0.79338 0.07465 0.0
O404 O 0.71726 0.76465 0.09313 0.0
N405 N 0.55356 0.82023 0.08038 0.0
C406 C 0.469 0.79534 0.10342 0.0
C407 C 0.49599 0.81451 0.0445 0.0
C408 C 0.56056 0.80407 0.16155 0.0
N409 N 0.50927 0.78901 0.1773 0.0
O410 O 0.57927 0.87846 0.15452 0.0
H411 H 0.47099 0.82649 0.98236 0.0
H412 H 0.59769 0.80668 0.21123 0.0
O413 O 0.6903 0.82638 0.0553 0.0
C414 C 0.51306 0.89829 0.17369 0.0
O415 O 0.46271 0.90193 0.11432 0.0
N416 N 0.58819 0.83934 0.92158 0.0
C417 C 0.55269 0.81559 0.75958 0.0
C418 C 0.60296 0.78918 0.81609 0.0
C419 C 0.62051 0.80172 0.89684 0.0
C420 C 0.54094 0.86549 0.86607 0.0
C421 C 0.5234 0.85434 0.78419 0.0
H422 H 0.65579 0.78072 0.94163 0.0
H423 H 0.51357 0.89491 0.88742 0.0
H424 H 0.70192 0.86649 0.90179 0.0
H425 H 0.62212 0.98266 0.97974 0.0
H426 H 0.42109 0.7884 0.09442 0.0
H427 H 0.62694 0.75901 0.79898 0.0
H428 H 0.48388 0.87548 0.7428 0.0
C429 C 0.47103 0.14656 0.02022 0.0
C430 C 0.43434 0.12767 0.97451 0.0
N431 N 0.38654 0.15332 0.92086 0.0
N432 N 0.44626 0.1839 -0.00436 0.0
C433 C 0.3943 0.18712 0.93482 0.0
H434 H 0.51271 0.13367 0.06872 0.0
Co435 Co 0.47742 0.22245 0.03742 0.0
C436 C 0.3272 0.28684 0.07463 0.0
O437 O 0.34745 0.31557 0.09308 0.0
N438 N 0.51115 0.26 0.08037 0.0
C439 C 0.59568 0.28491 0.1034 0.0
C440 C 0.5687 0.26573 0.04448 0.0
C441 C 0.50415 0.27616 0.16153 0.0
N442 N 0.55542 0.29122 0.17728 0.0
O443 O 0.4855 0.20175 0.15451 0.0
H444 H 0.5937 0.25376 0.98236 0.0
H445 H 0.46703 0.27354 0.21122 0.0
O446 O 0.37442 0.25383 0.0553 0.0
C447 C 0.55172 0.18192 0.17366 0.0
O448 O 0.60205 0.17828 0.11429 0.0
N449 N 0.47651 0.2409 0.92159 0.0
C450 C 0.512 0.26465 0.75956 0.0
C451 C 0.46172 0.29105 0.81605 0.0
C452 C 0.44417 0.27851 0.8968 0.0
C453 C 0.52377 0.21475 0.8661 0.0
C454 C 0.5413 0.2259 0.78421 0.0
H455 H 0.40889 0.29951 0.94157 0.0
H456 H 0.55115 0.18534 0.88749 0.0
H457 H 0.36282 0.21373 0.90178 0.0
H458 H 0.44266 0.09755 0.97978 0.0
H459 H 0.64358 0.29186 0.0944 0.0
H460 H 0.43773 0.32123 0.7989 0.0
H461 H 0.58083 0.20476 0.74286 0.0
C462 C 0.68712 1.0193 0.21364 0.0
C463 C 0.62761 1.00887 0.20366 0.0
N464 N 0.56866 1.03881 0.23 0.0
N465 N 0.66476 0.0553 0.24698 0.0
C466 C 0.59206 0.06613 0.2569 0.0
H467 H 0.7428 1.00207 0.19652 0.0
Co468 Co 0.71917 0.0856 0.27088 0.0
C469 C 0.57242 0.16132 0.25779 0.0
O470 O 0.52783 0.17129 0.32535 0.0
N471 N 0.77077 0.11762 0.29536 0.0
C472 C 0.8015 0.16913 0.29552 0.0
C473 C 0.76015 0.15147 0.25497 0.0
C474 C 0.81971 0.11503 0.35966 0.0
N475 N 0.83865 0.14605 0.36108 0.0
O476 O 0.70787 0.07872 0.39261 0.0
H477 H 0.72359 0.16298 0.20029 0.0
H478 H 0.83954 0.09157 0.40612 0.0
O479 O 0.63058 0.13133 0.26282 0.0
C480 C 0.76084 0.04643 0.40313 0.0
O481 O 0.80299 1.03098 0.33535 0.0
N482 N 0.7401 0.08571 0.1529 0.0
C483 C 0.78376 0.05282 -0.0111 0.0
C484 C 0.71085 0.0767 0.00438 0.0
C485 C 0.68981 0.09234 0.08776 0.0
C486 C 0.81191 0.06474 0.13734 0.0
C487 C 0.83503 0.04761 0.05557 0.0
H488 H 0.63281 0.10595 0.10258 0.0
H489 H 0.85052 0.05829 0.19106 0.0
H490 H 0.55647 0.09307 0.28464 0.0
H491 H 0.62726 0.98206 0.17775 0.0
H492 H 0.80376 0.19667 0.27842 0.0
H493 H 0.6694 0.08105 0.95446 0.0
H494 H 0.89171 1.02961 0.04557 0.0
C495 C 0.37768 0.06092 0.21368 0.0
C496 C 0.4372 0.07134 0.20369 0.0
N497 N 0.49615 0.04139 0.23001 0.0
N498 N 0.40005 1.02491 0.24701 0.0
C499 C 0.47275 1.01407 0.25691 0.0
H500 H 0.32199 0.07815 0.19657 0.0
Co501 Co 0.34563 0.99461 0.2709 0.0
C502 C 0.49237 0.91889 0.2578 0.0
O503 O 0.53695 0.90893 0.32537 0.0
N504 N 0.29403 0.96259 0.29539 0.0
C505 C 0.2633 0.91108 0.29556 0.0
C506 C 0.30466 0.92874 0.25502 0.0
C507 C 0.24508 0.96518 0.35967 0.0
N508 N 0.22613 0.93416 0.36109 0.0
O509 O 0.35695 1.00147 0.39265 0.0
H510 H 0.34122 0.91723 0.20036 0.0
H511 H 0.22525 0.98864 0.40611 0.0
O512 O 0.4342 0.94888 0.26279 0.0
C513 C 0.30398 1.03376 0.40314 0.0
O514 O 0.26183 0.04921 0.33536 0.0
N515 N 0.32469 0.99452 0.15294 0.0
C516 C 0.28105 1.02739 -0.0111 0.0
C517 C 0.35396 1.00352 0.00442 0.0
C518 C 0.37499 0.98789 0.08782 0.0
C519 C 0.25288 1.01547 0.13734 0.0
C520 C 0.22976 1.03259 0.05555 0.0
H521 H 0.43199 0.97429 0.10267 0.0
H522 H 0.21426 1.02192 0.19104 0.0
H523 H 0.50835 0.98713 0.28463 0.0
H524 H 0.43754 0.09816 0.17779 0.0
H525 H 0.26102 0.88354 0.27847 0.0
H526 H 0.39541 0.99918 0.95452 0.0
H527 H 0.17309 0.05058 0.04551 0.0
loop_
_geom_bond_atom_site_label_1
_geom_bond_atom_site_label_2
_geom_bond_distance
_geom_bond_site_symmetry_2
_ccdc_geom_bond_type
C0 C1 1.351 . S
C0 N3 1.368 . S
C0 H5 0.931 . S
C1 C0 1.351 . S
C1 N2 1.373 . S
C1 H29 0.930 . S
N2 C1 1.373 . S
N2 C4 1.340 . S
N3 C0 1.368 . S
N3 C4 1.321 . S
N3 Co6 2.135 1_556 S
C4 N2 1.340 . S
C4 N3 1.321 . S
C4 H28 0.930 . S
H5 C0 0.931 . S
Co6 N3 2.135 1_554 S
Co6 N9 2.121 . S
Co6 O14 2.055 . S
Co6 O17 2.039 . S
Co6 N20 2.140 1_554 S
C7 O8 1.227 1_554 S
C7 O17 1.265 . S
O8 C7 1.227 1_556 S
N9 Co6 2.121 . S
N9 C11 1.375 . S
N9 C12 1.313 . S
C10 C11 1.338 . S
C10 N13 1.377 . S
C10 H30 0.930 . S
C11 N9 1.375 . S
C11 C10 1.338 . S
C11 H15 0.931 . S
C12 N9 1.313 . S
C12 N13 1.344 . S
C12 H16 0.930 1_455 S
N13 C10 1.377 . S
N13 C12 1.344 . S
O14 Co6 2.055 . S
O14 C18 1.253 1_455 S
H15 C11 0.931 . S
H16 C12 0.930 1_655 S
O17 Co6 2.039 . S
O17 C7 1.265 . S
C18 O14 1.253 1_655 S
C18 O19 1.227 . S
O19 C18 1.227 . S
N20 Co6 2.140 1_556 S
N20 C23 1.346 . S
N20 C24 1.345 . S
C21 C22 1.387 . S
C21 C25 1.391 1_455 S
C22 C21 1.387 . S
C22 C23 1.369 . S
C22 H31 0.929 . S
C23 N20 1.346 . S
C23 C22 1.369 . S
C23 H26 0.928 . S
C24 N20 1.345 . S
C24 C25 1.371 1_455 S
C24 H27 0.931 1_456 S
C25 C21 1.391 1_655 S
C25 C24 1.371 1_655 S
C25 H32 0.930 . S
H26 C23 0.928 . S
H27 C24 0.931 1_654 S
H28 C4 0.930 . S
H29 C1 0.930 . S
H30 C10 0.930 . S
H31 C22 0.929 . S
H32 C25 0.930 . S
C33 C34 1.351 . S
C33 N36 1.368 . S
C33 H38 0.931 . S
C34 C33 1.351 . S
C34 N35 1.373 . S
C34 H62 0.930 . S
N35 C34 1.373 . S
N35 C37 1.340 . S
N36 C33 1.368 . S
N36 C37 1.321 . S
N36 Co39 2.135 1_556 S
C37 N35 1.340 . S
C37 N36 1.321 . S
C37 H61 0.930 . S
H38 C33 0.931 . S
Co39 N36 2.135 1_554 S
Co39 N42 2.121 . S
Co39 O47 2.055 . S
Co39 O50 2.039 . S
Co39 N53 2.140 1_554 S
C40 O41 1.227 1_554 S
C40 O50 1.265 . S
O41 C40 1.227 1_556 S
N42 Co39 2.121 . S
N42 C44 1.375 . S
N42 C45 1.313 . S
C43 C44 1.338 . S
C43 N46 1.377 . S
C43 H63 0.930 . S
C44 N42 1.375 . S
C44 C43 1.338 . S
C44 H48 0.931 . S
C45 N42 1.313 . S
C45 N46 1.344 . S
C45 H49 0.930 1_655 S
N46 C43 1.377 . S
N46 C45 1.344 . S
O47 Co39 2.055 . S
O47 C51 1.253 1_655 S
H48 C44 0.931 . S
H49 C45 0.930 1_455 S
O50 Co39 2.039 . S
O50 C40 1.265 . S
C51 O47 1.253 1_455 S
C51 O52 1.227 . S
O52 C51 1.227 . S
N53 Co39 2.140 1_556 S
N53 C56 1.346 . S
N53 C57 1.345 . S
C54 C55 1.387 . S
C54 C58 1.391 1_655 S
C55 C54 1.387 . S
C55 C56 1.369 . S
C55 H64 0.929 . S
C56 N53 1.346 . S
C56 C55 1.369 . S
C56 H59 0.928 . S
C57 N53 1.345 . S
C57 C58 1.371 1_655 S
C57 H60 0.931 1_656 S
C58 C54 1.391 1_455 S
C58 C57 1.371 1_455 S
C58 H65 0.930 . S
H59 C56 0.928 . S
H60 C57 0.931 1_454 S
H61 C37 0.930 . S
H62 C34 0.930 . S
H63 C43 0.930 . S
H64 C55 0.929 . S
H65 C58 0.930 . S
C66 C67 1.351 . S
C66 N69 1.368 . S
C66 H71 0.931 . S
C67 C66 1.351 . S
C67 N68 1.373 . S
C67 H95 0.930 . S
N68 C67 1.373 . S
N68 C70 1.340 . S
N69 C66 1.368 . S
N69 C70 1.321 . S
N69 Co72 2.135 . S
C70 N68 1.340 . S
C70 N69 1.321 . S
C70 H94 0.930 . S
H71 C66 0.931 . S
Co72 N69 2.135 . S
Co72 N75 2.121 . S
Co72 O80 2.055 . S
Co72 O83 2.039 . S
Co72 N86 2.140 . S
C73 O74 1.227 . S
C73 O83 1.265 . S
O74 C73 1.227 . S
N75 Co72 2.121 . S
N75 C77 1.375 . S
N75 C78 1.313 . S
C76 C77 1.338 . S
C76 N79 1.377 . S
C76 H96 0.930 . S
C77 N75 1.375 . S
C77 C76 1.338 . S
C77 H81 0.931 . S
C78 N75 1.313 . S
C78 N79 1.344 . S
C78 H82 0.930 . S
N79 C76 1.377 . S
N79 C78 1.344 . S
O80 Co72 2.055 . S
O80 C84 1.253 . S
H81 C77 0.931 . S
H82 C78 0.930 . S
O83 Co72 2.039 . S
O83 C73 1.265 . S
C84 O80 1.253 . S
C84 O85 1.227 . S
O85 C84 1.227 . S
N86 Co72 2.140 . S
N86 C89 1.346 . S
N86 C90 1.345 . S
C87 C88 1.387 . S
C87 C91 1.391 . S
C88 C87 1.387 . S
C88 C89 1.369 . S
C88 H97 0.929 1_554 S
C89 N86 1.346 . S
C89 C88 1.369 . S
C89 H92 0.928 . S
C90 N86 1.345 . S
C90 C91 1.371 . S
C90 H93 0.931 . S
C91 C87 1.391 . S
C91 C90 1.371 . S
C91 H98 0.930 . S
H92 C89 0.928 . S
H93 C90 0.931 . S
H94 C70 0.930 . S
H95 C67 0.930 . S
H96 C76 0.930 . S
H97 C88 0.929 1_556 S
H98 C91 0.930 . S
C99 C100 1.351 . S
C99 N102 1.368 . S
C99 H104 0.931 . S
C100 C99 1.351 . S
C100 N101 1.373 . S
C100 H128 0.930 . S
N101 C100 1.373 . S
N101 C103 1.340 . S
N102 C99 1.368 . S
N102 C103 1.321 . S
N102 Co105 2.135 . S
C103 N101 1.340 . S
C103 N102 1.321 . S
C103 H127 0.930 . S
H104 C99 0.931 . S
Co105 N102 2.135 . S
Co105 N108 2.121 . S
Co105 O113 2.055 . S
Co105 O116 2.039 . S
Co105 N119 2.140 . S
C106 O107 1.227 . S
C106 O116 1.265 . S
O107 C106 1.227 . S
N108 Co105 2.121 . S
N108 C110 1.375 . S
N108 C111 1.313 . S
C109 C110 1.338 . S
C109 N112 1.377 . S
C109 H129 0.930 . S
C110 N108 1.375 . S
C110 C109 1.338 . S
C110 H114 0.931 . S
C111 N108 1.313 . S
C111 N112 1.344 . S
C111 H115 0.930 . S
N112 C109 1.377 . S
N112 C111 1.344 . S
O113 Co105 2.055 . S
O113 C117 1.253 . S
H114 C110 0.931 . S
H115 C111 0.930 . S
O116 Co105 2.039 . S
O116 C106 1.265 . S
C117 O113 1.253 . S
C117 O118 1.227 . S
O118 C117 1.227 . S
N119 Co105 2.140 . S
N119 C122 1.346 . S
N119 C123 1.345 . S
C120 C121 1.387 . S
C120 C124 1.391 . S
C121 C120 1.387 . S
C121 C122 1.369 . S
C121 H130 0.929 1_554 S
C122 N119 1.346 . S
C122 C121 1.369 . S
C122 H125 0.928 . S
C123 N119 1.345 . S
C123 C124 1.371 . S
C123 H126 0.931 . S
C124 C120 1.391 . S
C124 C123 1.371 . S
C124 H131 0.930 . S
H125 C122 0.928 . S
H126 C123 0.931 . S
H127 C103 0.930 . S
H128 C100 0.930 . S
H129 C109 0.930 . S
H130 C121 0.929 1_556 S
H131 C124 0.930 . S
C132 C133 1.351 . S
C132 N135 1.368 . S
C132 H137 0.931 . S
C133 C132 1.351 . S
C133 N134 1.373 . S
C133 H161 0.930 . S
N134 C133 1.373 . S
N134 C136 1.340 . S
N135 C132 1.368 . S
N135 C136 1.321 . S
N135 Co138 2.135 . S
C136 N134 1.340 . S
C136 N135 1.321 . S
C136 H160 0.930 . S
H137 C132 0.931 . S
Co138 N135 2.135 . S
Co138 N141 2.121 . S
Co138 O146 2.055 . S
Co138 O149 2.039 . S
Co138 N152 2.140 . S
C139 O140 1.227 . S
C139 O149 1.265 . S
O140 C139 1.227 . S
N141 Co138 2.121 . S
N141 C143 1.375 . S
N141 C144 1.313 . S
C142 C143 1.338 . S
C142 N145 1.377 . S
C142 H162 0.930 . S
C143 N141 1.375 . S
C143 C142 1.338 . S
C143 H147 0.931 . S
C144 N141 1.313 . S
C144 N145 1.344 . S
C144 H148 0.930 1_455 S
N145 C142 1.377 . S
N145 C144 1.344 . S
O146 Co138 2.055 . S
O146 C150 1.253 1_455 S
H147 C143 0.931 . S
H148 C144 0.930 1_655 S
O149 Co138 2.039 . S
O149 C139 1.265 . S
C150 O146 1.253 1_655 S
C150 O151 1.227 . S
O151 C150 1.227 . S
N152 Co138 2.140 . S
N152 C155 1.346 . S
N152 C156 1.345 . S
C153 C154 1.387 . S
C153 C157 1.391 1_455 S
C154 C153 1.387 . S
C154 C155 1.369 . S
C154 H163 0.929 . S
C155 N152 1.346 . S
C155 C154 1.369 . S
C155 H158 0.928 . S
C156 N152 1.345 . S
C156 C157 1.371 1_455 S
C156 H159 0.931 1_455 S
C157 C153 1.391 1_655 S
C157 C156 1.371 1_655 S
C157 H164 0.930 . S
H158 C155 0.928 . S
H159 C156 0.931 1_655 S
H160 C136 0.930 . S
H161 C133 0.930 . S
H162 C142 0.930 . S
H163 C154 0.929 . S
H164 C157 0.930 . S
C165 C166 1.351 . S
C165 N168 1.368 . S
C165 H170 0.931 . S
C166 C165 1.351 . S
C166 N167 1.373 . S
C166 H194 0.930 . S
N167 C166 1.373 . S
N167 C169 1.340 . S
N168 C165 1.368 . S
N168 C169 1.321 . S
N168 Co171 2.135 . S
C169 N167 1.340 . S
C169 N168 1.321 . S
C169 H193 0.930 . S
H170 C165 0.931 . S
Co171 N168 2.135 . S
Co171 N174 2.121 . S
Co171 O179 2.055 . S
Co171 O182 2.039 . S
Co171 N185 2.140 . S
C172 O173 1.227 . S
C172 O182 1.265 . S
O173 C172 1.227 . S
N174 Co171 2.121 . S
N174 C176 1.375 . S
N174 C177 1.313 . S
C175 C176 1.338 . S
C175 N178 1.377 . S
C175 H195 0.930 . S
C176 N174 1.375 . S
C176 C175 1.338 . S
C176 H180 0.931 . S
C177 N174 1.313 . S
C177 N178 1.344 . S
C177 H181 0.930 1_655 S
N178 C175 1.377 . S
N178 C177 1.344 . S
O179 Co171 2.055 . S
O179 C183 1.253 1_655 S
H180 C176 0.931 . S
H181 C177 0.930 1_455 S
O182 Co171 2.039 . S
O182 C172 1.265 . S
C183 O179 1.253 1_455 S
C183 O184 1.227 . S
O184 C183 1.227 . S
N185 Co171 2.140 . S
N185 C188 1.346 . S
N185 C189 1.345 . S
C186 C187 1.387 . S
C186 C190 1.391 1_655 S
C187 C186 1.387 . S
C187 C188 1.369 . S
C187 H196 0.929 . S
C188 N185 1.346 . S
C188 C187 1.369 . S
C188 H191 0.928 . S
C189 N185 1.345 . S
C189 C190 1.371 1_655 S
C189 H192 0.931 1_655 S
C190 C186 1.391 1_455 S
C190 C189 1.371 1_455 S
C190 H197 0.930 . S
H191 C188 0.928 . S
H192 C189 0.931 1_455 S
H193 C169 0.930 . S
H194 C166 0.930 . S
H195 C175 0.930 . S
H196 C187 0.929 . S
H197 C190 0.930 . S
C198 C199 1.351 . S
C198 N201 1.368 1_565 S
C198 H203 0.931 . S
C199 C198 1.351 . S
C199 N200 1.373 . S
C199 H227 0.930 . S
N200 C199 1.373 . S
N200 C202 1.340 1_565 S
N201 C198 1.368 1_545 S
N201 C202 1.321 . S
N201 Co204 2.135 . S
C202 N200 1.340 1_545 S
C202 N201 1.321 . S
C202 H226 0.930 . S
H203 C198 0.931 . S
Co204 N201 2.135 . S
Co204 N207 2.121 . S
Co204 O212 2.055 . S
Co204 O215 2.039 . S
Co204 N218 2.140 . S
C205 O206 1.227 . S
C205 O215 1.265 . S
O206 C205 1.227 . S
N207 Co204 2.121 . S
N207 C209 1.375 . S
N207 C210 1.313 . S
C208 C209 1.338 . S
C208 N211 1.377 . S
C208 H228 0.930 . S
C209 N207 1.375 . S
C209 C208 1.338 . S
C209 H213 0.931 . S
C210 N207 1.313 . S
C210 N211 1.344 . S
C210 H214 0.930 . S
N211 C208 1.377 . S
N211 C210 1.344 . S
O212 Co204 2.055 . S
O212 C216 1.253 . S
H213 C209 0.931 . S
H214 C210 0.930 . S
O215 Co204 2.039 . S
O215 C205 1.265 . S
C216 O212 1.253 . S
C216 O217 1.227 . S
O217 C216 1.227 . S
N218 Co204 2.140 . S
N218 C221 1.346 . S
N218 C222 1.345 . S
C219 C220 1.387 1_565 S
C219 C223 1.391 1_565 S
C220 C219 1.387 1_545 S
C220 C221 1.369 . S
C220 H229 0.929 . S
C221 N218 1.346 . S
C221 C220 1.369 . S
C221 H224 0.928 . S
C222 N218 1.345 . S
C222 C223 1.371 . S
C222 H225 0.931 . S
C223 C219 1.391 1_545 S
C223 C222 1.371 . S
C223 H230 0.930 . S
H224 C221 0.928 . S
H225 C222 0.931 . S
H226 C202 0.930 . S
H227 C199 0.930 . S
H228 C208 0.930 . S
H229 C220 0.929 . S
H230 C223 0.930 . S
C231 C232 1.351 . S
C231 N234 1.368 1_545 S
C231 H236 0.931 . S
C232 C231 1.351 . S
C232 N233 1.373 . S
C232 H260 0.930 . S
N233 C232 1.373 . S
N233 C235 1.340 1_545 S
N234 C231 1.368 1_565 S
N234 C235 1.321 . S
N234 Co237 2.135 . S
C235 N233 1.340 1_565 S
C235 N234 1.321 . S
C235 H259 0.930 . S
H236 C231 0.931 . S
Co237 N234 2.135 . S
Co237 N240 2.121 . S
Co237 O245 2.055 . S
Co237 O248 2.039 . S
Co237 N251 2.140 . S
C238 O239 1.227 . S
C238 O248 1.265 . S
O239 C238 1.227 . S
N240 Co237 2.121 . S
N240 C242 1.375 . S
N240 C243 1.313 . S
C241 C242 1.338 . S
C241 N244 1.377 . S
C241 H261 0.930 . S
C242 N240 1.375 . S
C242 C241 1.338 . S
C242 H246 0.931 . S
C243 N240 1.313 . S
C243 N244 1.344 . S
C243 H247 0.930 . S
N244 C241 1.377 . S
N244 C243 1.344 . S
O245 Co237 2.055 . S
O245 C249 1.253 . S
H246 C242 0.931 . S
H247 C243 0.930 . S
O248 Co237 2.039 . S
O248 C238 1.265 . S
C249 O245 1.253 . S
C249 O250 1.227 . S
O250 C249 1.227 . S
N251 Co237 2.140 . S
N251 C254 1.346 . S
N251 C255 1.345 . S
C252 C253 1.387 1_545 S
C252 C256 1.391 1_545 S
C253 C252 1.387 1_565 S
C253 C254 1.369 . S
C253 H262 0.929 . S
C254 N251 1.346 . S
C254 C253 1.369 . S
C254 H257 0.928 . S
C255 N251 1.345 . S
C255 C256 1.371 . S
C255 H258 0.931 . S
C256 C252 1.391 1_565 S
C256 C255 1.371 . S
C256 H263 0.930 . S
H257 C254 0.928 . S
H258 C255 0.931 . S
H259 C235 0.930 . S
H260 C232 0.930 . S
H261 C241 0.930 . S
H262 C253 0.929 . S
H263 C256 0.930 . S
C264 C265 1.351 . S
C264 N267 1.368 . S
C264 H269 0.931 . S
C265 C264 1.351 . S
C265 N266 1.373 . S
C265 H293 0.930 . S
N266 C265 1.373 . S
N266 C268 1.340 . S
N267 C264 1.368 . S
N267 C268 1.321 . S
N267 Co270 2.135 . S
C268 N266 1.340 . S
C268 N267 1.321 . S
C268 H292 0.930 . S
H269 C264 0.931 . S
Co270 N267 2.135 . S
Co270 N273 2.121 . S
Co270 O278 2.055 . S
Co270 O281 2.039 . S
Co270 N284 2.140 . S
C271 O272 1.227 . S
C271 O281 1.265 . S
O272 C271 1.227 . S
N273 Co270 2.121 . S
N273 C275 1.375 . S
N273 C276 1.313 . S
C274 C275 1.338 . S
C274 N277 1.377 . S
C274 H294 0.930 . S
C275 N273 1.375 . S
C275 C274 1.338 . S
C275 H279 0.931 . S
C276 N273 1.313 . S
C276 N277 1.344 . S
C276 H280 0.930 . S
N277 C274 1.377 . S
N277 C276 1.344 . S
O278 Co270 2.055 . S
O278 C282 1.253 . S
H279 C275 0.931 . S
H280 C276 0.930 . S
O281 Co270 2.039 . S
O281 C271 1.265 . S
C282 O278 1.253 . S
C282 O283 1.227 . S
O283 C282 1.227 . S
N284 Co270 2.140 . S
N284 C287 1.346 . S
N284 C288 1.345 . S
C285 C286 1.387 . S
C285 C289 1.391 . S
C286 C285 1.387 . S
C286 C287 1.369 . S
C286 H295 0.929 . S
C287 N284 1.346 . S
C287 C286 1.369 . S
C287 H290 0.928 . S
C288 N284 1.345 . S
C288 C289 1.371 . S
C288 H291 0.931 . S
C289 C285 1.391 . S
C289 C288 1.371 . S
C289 H296 0.930 . S
H290 C287 0.928 . S
H291 C288 0.931 . S
H292 C268 0.930 . S
H293 C265 0.930 . S
H294 C274 0.930 . S
H295 C286 0.929 . S
H296 C289 0.930 . S
C297 C298 1.351 . S
C297 N300 1.368 . S
C297 H302 0.931 . S
C298 C297 1.351 . S
C298 N299 1.373 . S
C298 H326 0.930 . S
N299 C298 1.373 . S
N299 C301 1.340 . S
N300 C297 1.368 . S
N300 C301 1.321 . S
N300 Co303 2.135 . S
C301 N299 1.340 . S
C301 N300 1.321 . S
C301 H325 0.930 . S
H302 C297 0.931 . S
Co303 N300 2.135 . S
Co303 N306 2.121 . S
Co303 O311 2.055 . S
Co303 O314 2.039 . S
Co303 N317 2.140 . S
C304 O305 1.227 . S
C304 O314 1.265 . S
O305 C304 1.227 . S
N306 Co303 2.121 . S
N306 C308 1.375 . S
N306 C309 1.313 . S
C307 C308 1.338 . S
C307 N310 1.377 . S
C307 H327 0.930 . S
C308 N306 1.375 . S
C308 C307 1.338 . S
C308 H312 0.931 . S
C309 N306 1.313 . S
C309 N310 1.344 . S
C309 H313 0.930 . S
N310 C307 1.377 . S
N310 C309 1.344 . S
O311 Co303 2.055 . S
O311 C315 1.253 . S
H312 C308 0.931 . S
H313 C309 0.930 . S
O314 Co303 2.039 . S
O314 C304 1.265 . S
C315 O311 1.253 . S
C315 O316 1.227 . S
O316 C315 1.227 . S
N317 Co303 2.140 . S
N317 C320 1.346 . S
N317 C321 1.345 . S
C318 C319 1.387 . S
C318 C322 1.391 . S
C319 C318 1.387 . S
C319 C320 1.369 . S
C319 H328 0.929 . S
C320 N317 1.346 . S
C320 C319 1.369 . S
C320 H323 0.928 . S
C321 N317 1.345 . S
C321 C322 1.371 . S
C321 H324 0.931 . S
C322 C318 1.391 . S
C322 C321 1.371 . S
C322 H329 0.930 . S
H323 C320 0.928 . S
H324 C321 0.931 . S
H325 C301 0.930 . S
H326 C298 0.930 . S
H327 C307 0.930 . S
H328 C319 0.929 . S
H329 C322 0.930 . S
C330 C331 1.351 . S
C330 N333 1.368 . S
C330 H335 0.931 . S
C331 C330 1.351 . S
C331 N332 1.373 . S
C331 H359 0.930 . S
N332 C331 1.373 . S
N332 C334 1.340 . S
N333 C330 1.368 . S
N333 C334 1.321 . S
N333 Co336 2.135 . S
C334 N332 1.340 . S
C334 N333 1.321 . S
C334 H358 0.930 . S
H335 C330 0.931 . S
Co336 N333 2.135 . S
Co336 N339 2.121 . S
Co336 O344 2.055 . S
Co336 O347 2.039 . S
Co336 N350 2.140 . S
C337 O338 1.227 . S
C337 O347 1.265 . S
O338 C337 1.227 . S
N339 Co336 2.121 . S
N339 C341 1.375 . S
N339 C342 1.313 . S
C340 C341 1.338 . S
C340 N343 1.377 . S
C340 H360 0.930 . S
C341 N339 1.375 . S
C341 C340 1.338 . S
C341 H345 0.931 . S
C342 N339 1.313 . S
C342 N343 1.344 . S
C342 H346 0.930 . S
N343 C340 1.377 . S
N343 C342 1.344 . S
O344 Co336 2.055 . S
O344 C348 1.253 . S
H345 C341 0.931 . S
H346 C342 0.930 . S
O347 Co336 2.039 . S
O347 C337 1.265 . S
C348 O344 1.253 . S
C348 O349 1.227 . S
O349 C348 1.227 . S
N350 Co336 2.140 . S
N350 C353 1.346 . S
N350 C354 1.345 . S
C351 C352 1.387 . S
C351 C355 1.391 . S
C352 C351 1.387 . S
C352 C353 1.369 . S
C352 H361 0.929 . S
C353 N350 1.346 . S
C353 C352 1.369 . S
C353 H356 0.928 . S
C354 N350 1.345 . S
C354 C355 1.371 . S
C354 H357 0.931 . S
C355 C351 1.391 . S
C355 C354 1.371 . S
C355 H362 0.930 . S
H356 C353 0.928 . S
H357 C354 0.931 . S
H358 C334 0.930 . S
H359 C331 0.930 . S
H360 C340 0.930 . S
H361 C352 0.929 . S
H362 C355 0.930 . S
C363 C364 1.351 . S
C363 N366 1.368 . S
C363 H368 0.931 . S
C364 C363 1.351 . S
C364 N365 1.373 . S
C364 H392 0.930 . S
N365 C364 1.373 . S
N365 C367 1.340 . S
N366 C363 1.368 . S
N366 C367 1.321 . S
N366 Co369 2.135 . S
C367 N365 1.340 . S
C367 N366 1.321 . S
C367 H391 0.930 . S
H368 C363 0.931 . S
Co369 N366 2.135 . S
Co369 N372 2.121 . S
Co369 O377 2.055 . S
Co369 O380 2.039 . S
Co369 N383 2.140 . S
C370 O371 1.227 . S
C370 O380 1.265 . S
O371 C370 1.227 . S
N372 Co369 2.121 . S
N372 C374 1.375 . S
N372 C375 1.313 . S
C373 C374 1.338 . S
C373 N376 1.377 . S
C373 H393 0.930 . S
C374 N372 1.375 . S
C374 C373 1.338 . S
C374 H378 0.931 . S
C375 N372 1.313 . S
C375 N376 1.344 . S
C375 H379 0.930 . S
N376 C373 1.377 . S
N376 C375 1.344 . S
O377 Co369 2.055 . S
O377 C381 1.253 . S
H378 C374 0.931 . S
H379 C375 0.930 . S
O380 Co369 2.039 . S
O380 C370 1.265 . S
C381 O377 1.253 . S
C381 O382 1.227 . S
O382 C381 1.227 . S
N383 Co369 2.140 . S
N383 C386 1.346 . S
N383 C387 1.345 . S
C384 C385 1.387 . S
C384 C388 1.391 . S
C385 C384 1.387 . S
C385 C386 1.369 . S
C385 H394 0.929 . S
C386 N383 1.346 . S
C386 C385 1.369 . S
C386 H389 0.928 . S
C387 N383 1.345 . S
C387 C388 1.371 . S
C387 H390 0.931 . S
C388 C384 1.391 . S
C388 C387 1.371 . S
C388 H395 0.930 . S
H389 C386 0.928 . S
H390 C387 0.931 . S
H391 C367 0.930 . S
H392 C364 0.930 . S
H393 C373 0.930 . S
H394 C385 0.929 . S
H395 C388 0.930 . S
C396 C397 1.351 . S
C396 N399 1.368 . S
C396 H401 0.931 . S
C397 C396 1.351 . S
C397 N398 1.373 . S
C397 H425 0.930 . S
N398 C397 1.373 . S
N398 C400 1.340 . S
N399 C396 1.368 . S
N399 C400 1.321 . S
N399 Co402 2.135 1_556 S
C400 N398 1.340 . S
C400 N399 1.321 . S
C400 H424 0.930 . S
H401 C396 0.931 . S
Co402 N399 2.135 1_554 S
Co402 N405 2.121 . S
Co402 O410 2.055 . S
Co402 O413 2.039 . S
Co402 N416 2.140 1_554 S
C403 O404 1.227 1_554 S
C403 O413 1.265 . S
O404 C403 1.227 1_556 S
N405 Co402 2.121 . S
N405 C407 1.375 . S
N405 C408 1.313 . S
C406 C407 1.338 . S
C406 N409 1.377 . S
C406 H426 0.930 . S
C407 N405 1.375 . S
C407 C406 1.338 . S
C407 H411 0.931 . S
C408 N405 1.313 . S
C408 N409 1.344 . S
C408 H412 0.930 . S
N409 C406 1.377 . S
N409 C408 1.344 . S
O410 Co402 2.055 . S
O410 C414 1.253 . S
H411 C407 0.931 . S
H412 C408 0.930 . S
O413 Co402 2.039 . S
O413 C403 1.265 . S
C414 O410 1.253 . S
C414 O415 1.227 . S
O415 C414 1.227 . S
N416 Co402 2.140 1_556 S
N416 C419 1.346 . S
N416 C420 1.345 . S
C417 C418 1.387 . S
C417 C421 1.391 . S
C418 C417 1.387 . S
C418 C419 1.369 . S
C418 H427 0.929 . S
C419 N416 1.346 . S
C419 C418 1.369 . S
C419 H422 0.928 . S
C420 N416 1.345 . S
C420 C421 1.371 . S
C420 H423 0.931 1_556 S
C421 C417 1.391 . S
C421 C420 1.371 . S
C421 H428 0.930 . S
H422 C419 0.928 . S
H423 C420 0.931 1_554 S
H424 C400 0.930 . S
H425 C397 0.930 . S
H426 C406 0.930 . S
H427 C418 0.929 . S
H428 C421 0.930 . S
C429 C430 1.351 . S
C429 N432 1.368 . S
C429 H434 0.931 . S
C430 C429 1.351 . S
C430 N431 1.373 . S
C430 H458 0.930 . S
N431 C430 1.373 . S
N431 C433 1.340 . S
N432 C429 1.368 . S
N432 C433 1.321 . S
N432 Co435 2.135 1_556 S
C433 N431 1.340 . S
C433 N432 1.321 . S
C433 H457 0.930 . S
H434 C429 0.931 . S
Co435 N432 2.135 1_554 S
Co435 N438 2.121 . S
Co435 O443 2.055 . S
Co435 O446 2.039 . S
Co435 N449 2.140 1_554 S
C436 O437 1.227 1_554 S
C436 O446 1.265 . S
O437 C436 1.227 1_556 S
N438 Co435 2.121 . S
N438 C440 1.375 . S
N438 C441 1.313 . S
C439 C440 1.338 . S
C439 N442 1.377 . S
C439 H459 0.930 . S
C440 N438 1.375 . S
C440 C439 1.338 . S
C440 H444 0.931 . S
C441 N438 1.313 . S
C441 N442 1.344 . S
C441 H445 0.930 . S
N442 C439 1.377 . S
N442 C441 1.344 . S
O443 Co435 2.055 . S
O443 C447 1.253 . S
H444 C440 0.931 . S
H445 C441 0.930 . S
O446 Co435 2.039 . S
O446 C436 1.265 . S
C447 O443 1.253 . S
C447 O448 1.227 . S
O448 C447 1.227 . S
N449 Co435 2.140 1_556 S
N449 C452 1.346 . S
N449 C453 1.345 . S
C450 C451 1.387 . S
C450 C454 1.391 . S
C451 C450 1.387 . S
C451 C452 1.369 . S
C451 H460 0.929 . S
C452 N449 1.346 . S
C452 C451 1.369 . S
C452 H455 0.928 . S
C453 N449 1.345 . S
C453 C454 1.371 . S
C453 H456 0.931 1_556 S
C454 C450 1.391 . S
C454 C453 1.371 . S
C454 H461 0.930 . S
H455 C452 0.928 . S
H456 C453 0.931 1_554 S
H457 C433 0.930 . S
H458 C430 0.930 . S
H459 C439 0.930 . S
H460 C451 0.929 . S
H461 C454 0.930 . S
C462 C463 1.351 . S
C462 N465 1.368 1_565 S
C462 H467 0.931 . S
C463 C462 1.351 . S
C463 N464 1.373 . S
C463 H491 0.930 . S
N464 C463 1.373 . S
N464 C466 1.340 1_565 S
N465 C462 1.368 1_545 S
N465 C466 1.321 . S
N465 Co468 2.135 . S
C466 N464 1.340 1_545 S
C466 N465 1.321 . S
C466 H490 0.930 . S
H467 C462 0.931 . S
Co468 N465 2.135 . S
Co468 N471 2.121 . S
Co468 O476 2.055 . S
Co468 O479 2.039 . S
Co468 N482 2.140 . S
C469 O470 1.227 . S
C469 O479 1.265 . S
O470 C469 1.227 . S
N471 Co468 2.121 . S
N471 C473 1.375 . S
N471 C474 1.313 . S
C472 C473 1.338 . S
C472 N475 1.377 . S
C472 H492 0.930 . S
C473 N471 1.375 . S
C473 C472 1.338 . S
C473 H477 0.931 . S
C474 N471 1.313 . S
C474 N475 1.344 . S
C474 H478 0.930 . S
N475 C472 1.377 . S
N475 C474 1.344 . S
O476 Co468 2.055 . S
O476 C480 1.253 . S
H477 C473 0.931 . S
H478 C474 0.930 . S
O479 Co468 2.039 . S
O479 C469 1.265 . S
C480 O476 1.253 . S
C480 O481 1.227 . S
O481 C480 1.227 . S
N482 Co468 2.140 . S
N482 C485 1.346 . S
N482 C486 1.345 . S
C483 C484 1.387 1_565 S
C483 C487 1.391 1_565 S
C484 C483 1.387 1_545 S
C484 C485 1.369 . S
C484 H493 0.929 1_554 S
C485 N482 1.346 . S
C485 C484 1.369 . S
C485 H488 0.928 . S
C486 N482 1.345 . S
C486 C487 1.371 . S
C486 H489 0.931 . S
C487 C483 1.391 1_545 S
C487 C486 1.371 . S
C487 H494 0.930 . S
H488 C485 0.928 . S
H489 C486 0.931 . S
H490 C466 0.930 . S
H491 C463 0.930 . S
H492 C472 0.930 . S
H493 C484 0.929 1_556 S
H494 C487 0.930 . S
C495 C496 1.351 . S
C495 N498 1.368 1_545 S
C495 H500 0.931 . S
C496 C495 1.351 . S
C496 N497 1.373 . S
C496 H524 0.930 . S
N497 C496 1.373 . S
N497 C499 1.340 1_545 S
N498 C495 1.368 1_565 S
N498 C499 1.321 . S
N498 Co501 2.135 . S
C499 N497 1.340 1_565 S
C499 N498 1.321 . S
C499 H523 0.930 . S
H500 C495 0.931 . S
Co501 N498 2.135 . S
Co501 N504 2.121 . S
Co501 O509 2.055 . S
Co501 O512 2.039 . S
Co501 N515 2.140 . S
C502 O503 1.227 . S
C502 O512 1.265 . S
O503 C502 1.227 . S
N504 Co501 2.121 . S
N504 C506 1.375 . S
N504 C507 1.313 . S
C505 C506 1.338 . S
C505 N508 1.377 . S
C505 H525 0.930 . S
C506 N504 1.375 . S
C506 C505 1.338 . S
C506 H510 0.931 . S
C507 N504 1.313 . S
C507 N508 1.344 . S
C507 H511 0.930 . S
N508 C505 1.377 . S
N508 C507 1.344 . S
O509 Co501 2.055 . S
O509 C513 1.253 . S
H510 C506 0.931 . S
H511 C507 0.930 . S
O512 Co501 2.039 . S
O512 C502 1.265 . S
C513 O509 1.253 . S
C513 O514 1.227 . S
O514 C513 1.227 . S
N515 Co501 2.140 . S
N515 C518 1.346 . S
N515 C519 1.345 . S
C516 C517 1.387 1_545 S
C516 C520 1.391 1_545 S
C517 C516 1.387 1_565 S
C517 C518 1.369 . S
C517 H526 0.929 1_554 S
C518 N515 1.346 . S
C518 C517 1.369 . S
C518 H521 0.928 . S
C519 N515 1.345 . S
C519 C520 1.371 . S
C519 H522 0.931 . S
C520 C516 1.391 1_565 S
C520 C519 1.371 . S
C520 H527 0.930 . S
H521 C518 0.928 . S
H522 C519 0.931 . S
H523 C499 0.930 . S
H524 C496 0.930 . S
H525 C505 0.930 . S
H526 C517 0.929 1_556 S
H527 C520 0.930 . S
N2 N376 1.789 . S
N35 N343 1.789 . S
C51 C73 1.482 . S
C18 C106 1.482 . S
N134 N508 1.789 . S
N167 N475 1.789 . S
C183 C205 1.482 . S
C238 C150 1.482 . S
N112 N266 1.789 . S
N79 N299 1.789 . S
C315 C337 1.482 . S
C282 C370 1.482 . S
N398 N244 1.789 . S
N431 N211 1.789 . S
C469 C447 1.482 . S
C414 C502 1.482 . S
C186 N13 1.318 1_655 S
C153 N46 1.318 1_455 S
C84 C384 1.469 . S
C351 C117 1.469 . S
C54 N145 1.318 1_655 S
C21 N178 1.318 1_455 S
C216 C516 1.469 1_556 S
C249 C483 1.469 1_556 S
N277 C450 1.318 . S
C417 N310 1.318 . S
C120 C348 1.469 1_554 S
C87 C381 1.469 1_554 S
C318 N409 1.318 . S
C285 N442 1.318 . S
C252 C480 1.469 . S
C219 C513 1.469 . S
C436 C7 1.481 . S
C40 C403 1.481 . S
N68 N101 1.158 1_455 S
C304 C139 1.481 . S
C172 C271 1.481 . S
N200 N233 1.158 1_465 S
N365 N332 1.158 . S
N497 N464 1.158 1_545 S
