# Generated by pormake.
# Topology umm, (4)-cn, num edge types: 1
# Building blocks:
#     Node 0, Type 0, BuildingBlock: CEKHIL_clean_sbu_0, # of connection points: 4
#     Node 1, Type 0, BuildingBlock: CEKHIL_clean_sbu_0, # of connection points: 4
#     Node 2, Type 0, BuildingBlock: CEKHIL_clean_sbu_0, # of connection points: 4
#     Node 3, Type 0, BuildingBlock: CEKHIL_clean_sbu_0, # of connection points: 4
#     Node 4, Type 0, BuildingBlock: CEKHIL_clean_sbu_0, # of connection points: 4
#     Node 5, Type 0, BuildingBlock: CEKHIL_clean_sbu_0, # of connection points: 4
#     Node 6, Type 0, BuildingBlock: CEKHIL_clean_sbu_0, # of connection points: 4
#     Node 7, Type 0, BuildingBlock: CEKHIL_clean_sbu_0, # of connection points: 4
#     Node 8, Type 0, BuildingBlock: CEKHIL_clean_sbu_0, # of connection points: 4
#     Node 9, Type 0, BuildingBlock: CEKHIL_clean_sbu_0, # of connection points: 4
#     Node 10, Type 0, BuildingBlock: CEKHIL_clean_sbu_0, # of connection points: 4
#     Node 11, Type 0, BuildingBlock: CEKHIL_clean_sbu_0, # of connection points: 4
#     Edge 12, Type (0, 0), BuildingBlock: ZUJKAS_clean_linker_0, # of connection points: 2
#     Edge 13, Type (0, 0), BuildingBlock: ZUJKAS_clean_linker_0, # of connection points: 2
#     Edge 14, Type (0, 0), BuildingBlock: ZUJKAS_clean_linker_0, # of connection points: 2
#     Edge 15, Type (0, 0), BuildingBlock: ZUJKAS_clean_linker_0, # of connection points: 2
#     Edge 16, Type (0, 0), BuildingBlock: ZUJKAS_clean_linker_0, # of connection points: 2
#     Edge 17, Type (0, 0), BuildingBlock: ZUJKAS_clean_linker_0, # of connection points: 2
#     Edge 18, Type (0, 0), BuildingBlock: ZUJKAS_clean_linker_0, # of connection points: 2
#     Edge 19, Type (0, 0), BuildingBlock: ZUJKAS_clean_linker_0, # of connection points: 2
#     Edge 20, Type (0, 0), BuildingBlock: ZUJKAS_clean_linker_0, # of connection points: 2
#     Edge 21, Type (0, 0), BuildingBlock: ZUJKAS_clean_linker_0, # of connection points: 2
#     Edge 22, Type (0, 0), BuildingBlock: ZUJKAS_clean_linker_0, # of connection points: 2
#     Edge 23, Type (0, 0), BuildingBlock: ZUJKAS_clean_linker_0, # of connection points: 2
#     Edge 24, Type (0, 0), BuildingBlock: ZUJKAS_clean_linker_0, # of connection points: 2
#     Edge 25, Type (0, 0), BuildingBlock: ZUJKAS_clean_linker_0, # of connection points: 2
#     Edge 26, Type (0, 0), BuildingBlock: ZUJKAS_clean_linker_0, # of connection points: 2
#     Edge 27, Type (0, 0), BuildingBlock: ZUJKAS_clean_linker_0, # of connection points: 2
#     Edge 28, Type (0, 0), BuildingBlock: ZUJKAS_clean_linker_0, # of connection points: 2
#     Edge 29, Type (0, 0), BuildingBlock: ZUJKAS_clean_linker_0, # of connection points: 2
#     Edge 30, Type (0, 0), BuildingBlock: ZUJKAS_clean_linker_0, # of connection points: 2
#     Edge 31, Type (0, 0), BuildingBlock: ZUJKAS_clean_linker_0, # of connection points: 2
#     Edge 32, Type (0, 0), BuildingBlock: ZUJKAS_clean_linker_0, # of connection points: 2
#     Edge 33, Type (0, 0), BuildingBlock: ZUJKAS_clean_linker_0, # of connection points: 2
#     Edge 34, Type (0, 0), BuildingBlock: ZUJKAS_clean_linker_0, # of connection points: 2
#     Edge 35, Type (0, 0), BuildingBlock: ZUJKAS_clean_linker_0, # of connection points: 2
# Relax obj value: 0.137
# Max RMSD: 0.385
# Mean RMSD: 0.252
data_MOF--net-umm--node1-CEKHIL_clean_sbu_0--edge1-ZUJKAS_clean_linker_0
_symmetry_space_group_name_H-M    P1
_symmetry_Int_Tables_number       1
_symmetry_cell_setting            triclinic
loop_
_symmetry_equiv_pos_as_xyz
'x, y, z'
_cell_length_a     67.675773
_cell_length_b     73.215047
_cell_length_c     35.592584
_cell_angle_alpha  90.048337
_cell_angle_beta   89.967923
_cell_angle_gamma 117.5958
loop_
_atom_site_label
_atom_site_type_symbol
_atom_site_fract_x
_atom_site_fract_y
_atom_site_fract_z
_atom_type_partial_charge
Co0 Co 0.43168 0.59738 0.07115 0.0
O1 O 0.4077 0.60429 0.0767 0.0
O2 O 0.40478 0.57583 0.04969 0.0
C3 C 0.44523 0.60541 0.12957 0.0
O4 O 0.45221 0.58446 0.06216 0.0
Co5 Co 0.48093 0.631 0.07703 0.0
O6 O 0.48735 0.60721 0.07754 0.0
C7 C 0.45606 0.62768 0.00773 0.0
C8 C 0.39534 0.58705 0.05957 0.0
C9 C 0.47281 0.58919 0.06793 0.0
O10 O 0.43944 0.61164 0.02111 0.0
O11 O 0.47406 0.63834 0.02604 0.0
O12 O 0.42798 0.5878 0.12268 0.0
O13 O 0.45209 0.61841 0.10202 0.0
Co14 Co 0.87149 0.36896 0.40975 0.0
O15 O 0.84818 0.34151 0.41665 0.0
O16 O 0.87649 0.34973 0.37776 0.0
C17 C 0.87645 0.37711 0.47097 0.0
O18 O 0.89891 0.39659 0.39762 0.0
Co19 Co 0.86073 0.40422 0.43295 0.0
O20 O 0.89364 0.42044 0.43022 0.0
C21 C 0.84251 0.38236 0.36264 0.0
C22 C 0.85773 0.33557 0.39145 0.0
C23 C 0.90594 0.41501 0.411 0.0
O24 O 0.85407 0.37281 0.36789 0.0
O25 O 0.84179 0.39524 0.38623 0.0
O26 O 0.88605 0.36711 0.45572 0.0
O27 O 0.86248 0.37977 0.44976 0.0
Co28 Co 0.47839 0.8627 0.74448 0.0
O29 O 0.48029 0.83747 0.74947 0.0
O30 O 0.50506 0.86492 0.71922 0.0
C31 C 0.46957 0.86448 0.80485 0.0
O32 O 0.48168 0.8918 0.73596 0.0
Co33 Co 0.43221 0.8612 0.75842 0.0
O34 O 0.45057 0.89155 0.75918 0.0
C35 C 0.4404 0.84583 0.68694 0.0
C36 C 0.49858 0.84602 0.73028 0.0
C37 C 0.47024 0.90112 0.74575 0.0
O38 O 0.46092 0.85237 0.69643 0.0
O39 O 0.42578 0.84658 0.70881 0.0
O40 O 0.49028 0.87096 0.79522 0.0
O41 O 0.4551 0.85532 0.77874 0.0
Co42 Co 0.58361 0.42288 0.07288 0.0
O43 O 0.60741 0.41564 0.07726 0.0
O44 O 0.60985 0.44328 0.04782 0.0
C45 C 0.57225 0.41739 0.1327 0.0
O46 O 0.5632 0.43595 0.06409 0.0
Co47 Co 0.53445 0.39044 0.08544 0.0
O48 O 0.52923 0.41493 0.0871 0.0
C49 C 0.5562 0.3906 0.01402 0.0
C50 C 0.61934 0.43213 0.05779 0.0
C51 C 0.54336 0.43224 0.07375 0.0
O52 O 0.57372 0.40668 0.02487 0.0
O53 O 0.53878 0.38117 0.03436 0.0
O54 O 0.58936 0.43456 0.12306 0.0
O55 O 0.56423 0.40328 0.10706 0.0
Co56 Co 0.13825 0.65085 0.40425 0.0
O57 O 0.16236 0.67798 0.41107 0.0
O58 O 0.13323 0.67078 0.37455 0.0
C59 C 0.13475 0.64216 0.46522 0.0
O60 O 0.10989 0.62382 0.39279 0.0
Co61 Co 0.1476 0.61419 0.42395 0.0
O62 O 0.11457 0.59904 0.42321 0.0
C63 C 0.16496 0.63649 0.3535 0.0
C64 C 0.1524 0.68449 0.38772 0.0
C65 C 0.10242 0.60525 0.40554 0.0
O66 O 0.15415 0.64664 0.36019 0.0
O67 O 0.16567 0.62335 0.37644 0.0
O68 O 0.12525 0.65275 0.45219 0.0
O69 O 0.14765 0.63918 0.44203 0.0
Co70 Co 0.53076 0.15577 0.74372 0.0
O71 O 0.5272 0.1801 0.75037 0.0
O72 O 0.50369 0.1526 0.71862 0.0
C73 C 0.53967 0.15343 0.8038 0.0
O74 O 0.52917 0.12751 0.73325 0.0
Co75 Co 0.57799 0.15962 0.75673 0.0
O76 O 0.56203 0.12925 0.75086 0.0
C77 C 0.56882 0.1753 0.68661 0.0
C78 C 0.50912 0.17115 0.7307 0.0
C79 C 0.54209 0.11916 0.73884 0.0
O80 O 0.54812 0.16742 0.69596 0.0
O81 O 0.58388 0.17542 0.70848 0.0
O82 O 0.51888 0.14613 0.794 0.0
O83 O 0.55407 0.16367 0.77822 0.0
Co84 Co 0.51151 0.64776 0.57326 0.0
O85 O 0.51329 0.6746 0.56954 0.0
O86 O 0.53372 0.66674 0.60835 0.0
C87 C 0.51083 0.6423 0.51113 0.0
O88 O 0.51393 0.62109 0.5827 0.0
Co89 Co 0.46858 0.61049 0.54289 0.0
O90 O 0.48794 0.5969 0.5455 0.0
C91 C 0.46731 0.6281 0.61615 0.0
C92 C 0.5282 0.68048 0.59577 0.0
C93 C 0.50488 0.60309 0.567 0.0
O94 O 0.48828 0.64024 0.61345 0.0
O95 O 0.45576 0.61534 0.59057 0.0
O96 O 0.52978 0.653 0.52806 0.0
O97 O 0.49325 0.6372 0.53145 0.0
Co98 Co 0.84512 0.42586 0.9088 0.0
O99 O 0.81374 0.41717 0.90577 0.0
O100 O 0.83868 0.44675 0.93033 0.0
C101 C 0.84999 0.41769 0.85009 0.0
O102 O 0.87885 0.44014 0.91529 0.0
Co103 Co 0.86197 0.39312 0.90247 0.0
O104 O 0.89172 0.4177 0.90027 0.0
C105 C 0.84007 0.39569 0.97179 0.0
C106 C 0.81792 0.43436 0.92241 0.0
C107 C 0.89494 0.43577 0.90899 0.0
O108 O 0.84071 0.41241 0.95936 0.0
O109 O 0.84606 0.38446 0.9521 0.0
O110 O 0.84922 0.43481 0.85679 0.0
O111 O 0.845 0.40505 0.87808 0.0
Co112 Co 0.3851 0.86414 0.24114 0.0
O113 O 0.35743 0.83941 0.23652 0.0
O114 O 0.36131 0.86712 0.26722 0.0
C115 C 0.39516 0.86576 0.18046 0.0
O116 O 0.41179 0.89275 0.2495 0.0
Co117 Co 0.42857 0.86054 0.22556 0.0
O118 O 0.44231 0.89099 0.22833 0.0
C119 C 0.40499 0.84536 0.297 0.0
C120 C 0.34827 0.84831 0.25623 0.0
C121 C 0.43282 0.90119 0.24137 0.0
O122 O 0.39213 0.85335 0.28873 0.0
O123 O 0.41936 0.84496 0.27408 0.0
O124 O 0.38147 0.87276 0.19064 0.0
O125 O 0.40009 0.85618 0.20619 0.0
Co126 Co 0.50259 0.36851 0.57439 0.0
O127 O 0.49734 0.34056 0.57006 0.0
O128 O 0.47787 0.35064 0.60684 0.0
C129 C 0.50657 0.3752 0.5126 0.0
O130 O 0.50361 0.39675 0.58377 0.0
Co131 Co 0.54886 0.40302 0.54955 0.0
O132 O 0.53225 0.41929 0.54861 0.0
C133 C 0.5446 0.38344 0.62285 0.0
C134 C 0.48174 0.33575 0.59483 0.0
C135 C 0.5148 0.41463 0.56824 0.0
O136 O 0.52357 0.37285 0.61722 0.0
O137 O 0.55813 0.39615 0.599 0.0
O138 O 0.48673 0.36621 0.52734 0.0
O139 O 0.52281 0.37793 0.53477 0.0
Co140 Co 0.17293 0.59475 0.90291 0.0
O141 O 0.20344 0.60034 0.89813 0.0
O142 O 0.17705 0.57313 0.92707 0.0
C143 C 0.16786 0.60168 0.84353 0.0
O144 O 0.13958 0.58349 0.91155 0.0
Co145 Co 0.16024 0.6301 0.89272 0.0
O146 O 0.12932 0.6072 0.89275 0.0
C147 C 0.18175 0.62768 0.96268 0.0
C148 C 0.19785 0.58352 0.91709 0.0
C149 C 0.12458 0.58912 0.9041 0.0
O150 O 0.18004 0.6103 0.95168 0.0
O151 O 0.1762 0.63892 0.94218 0.0
O152 O 0.16656 0.58388 0.85205 0.0
O153 O 0.17476 0.61534 0.86999 0.0
Co154 Co 0.62691 0.15755 0.23858 0.0
O155 O 0.65401 0.18295 0.23596 0.0
O156 O 0.65101 0.15485 0.26406 0.0
C157 C 0.61716 0.15651 0.17792 0.0
O158 O 0.60086 0.12844 0.24531 0.0
Co159 Co 0.58287 0.16004 0.22385 0.0
O160 O 0.56984 0.12959 0.22518 0.0
C161 C 0.60563 0.17427 0.29613 0.0
C162 C 0.66343 0.17415 0.25523 0.0
C163 C 0.57981 0.11964 0.23731 0.0
O164 O 0.61904 0.16704 0.28691 0.0
O165 O 0.59106 0.17458 0.2736 0.0
O166 O 0.63126 0.14995 0.18778 0.0
O167 O 0.61169 0.16559 0.20397 0.0
H168 H 0.4338 0.58044 0.19079 0.0
H169 H 0.45088 0.58857 0.25308 0.0
H170 H 0.49902 0.64857 0.21411 0.0
H171 H 0.482 0.6406 0.15135 0.0
H172 H 0.51264 0.61896 0.26645 0.0
H173 H 0.4469 0.63902 0.31537 0.0
H174 H 0.43818 0.61627 0.2868 0.0
H175 H 0.45533 0.64113 0.26671 0.0
C176 C 0.44814 0.59531 0.1953 0.0
C177 C 0.45646 0.60998 0.16636 0.0
C178 C 0.4579 0.59987 0.23081 0.0
C179 C 0.47613 0.61912 0.2379 0.0
C180 C 0.48499 0.6336 0.20888 0.0
H181 H 0.54185 0.66205 0.45651 0.0
H182 H 0.53629 0.65717 0.38841 0.0
C183 C 0.47519 0.62906 0.17324 0.0
C184 C 0.48452 0.62449 0.27656 0.0
H185 H 0.47016 0.63606 0.3616 0.0
C186 C 0.50361 0.62293 0.28736 0.0
C187 C 0.47258 0.62966 0.30335 0.0
C188 C 0.45216 0.63177 0.29266 0.0
C189 C 0.51052 0.62555 0.32508 0.0
C190 C 0.4981 0.63008 0.35216 0.0
C191 C 0.47953 0.63241 0.34082 0.0
C192 C 0.5031 0.63151 0.39281 0.0
C193 C 0.53043 0.62263 0.33586 0.0
C194 C 0.48636 0.61866 0.41774 0.0
C195 C 0.48931 0.6217 0.45636 0.0
C196 C 0.50916 0.6375 0.47078 0.0
C197 C 0.52644 0.64967 0.446 0.0
C198 C 0.52333 0.64683 0.40716 0.0
H199 H 0.53491 0.61461 0.31348 0.0
H200 H 0.54498 0.63794 0.34053 0.0
H201 H 0.52721 0.61367 0.36231 0.0
H202 H 0.47065 0.60672 0.40722 0.0
H203 H 0.47579 0.61201 0.47487 0.0
H204 H 0.90068 0.36889 0.52337 0.0
H205 H 0.90274 0.37607 0.59099 0.0
H206 H 0.86163 0.4062 0.576 0.0
H207 H 0.85937 0.39906 0.5085 0.0
H208 H 0.90966 0.42425 0.6287 0.0
H209 H 0.83655 0.34763 0.6551 0.0
H210 H 0.85744 0.35082 0.6205 0.0
H211 H 0.83841 0.36102 0.61161 0.0
C212 C 0.89233 0.37728 0.53441 0.0
C213 C 0.8797 0.38328 0.51079 0.0
C214 C 0.89355 0.38136 0.57293 0.0
C215 C 0.88229 0.39157 0.58814 0.0
C216 C 0.87043 0.3983 0.5645 0.0
H217 H 0.85704 0.44005 0.78618 0.0
H218 H 0.86832 0.43329 0.72489 0.0
C219 C 0.86912 0.39417 0.52606 0.0
C220 C 0.88143 0.39404 0.62903 0.0
H221 H 0.84865 0.37134 0.7051 0.0
C222 C 0.89657 0.41262 0.64568 0.0
C223 C 0.86453 0.37865 0.65089 0.0
C224 C 0.84824 0.35832 0.6339 0.0
C225 C 0.89461 0.41658 0.6837 0.0
C226 C 0.87667 0.40177 0.70501 0.0
C227 C 0.8623 0.38272 0.68869 0.0
C228 C 0.87119 0.40637 0.74295 0.0
C229 C 0.9116 0.43668 0.70048 0.0
C230 C 0.86834 0.3931 0.77324 0.0
C231 C 0.86145 0.39672 0.80826 0.0
C232 C 0.85731 0.41367 0.81342 0.0
C233 C 0.86026 0.42695 0.78311 0.0
C234 C 0.86695 0.42323 0.74814 0.0
H235 H 0.9279 0.44247 0.68586 0.0
H236 H 0.90573 0.44845 0.69709 0.0
H237 H 0.91413 0.43506 0.73087 0.0
H238 H 0.87129 0.37986 0.76968 0.0
H239 H 0.85934 0.38626 0.8312 0.0
H240 H 0.49657 0.88316 0.86497 0.0
H241 H 0.48498 0.88602 0.92909 0.0
H242 H 0.41609 0.85547 0.89448 0.0
H243 H 0.42745 0.85241 0.83056 0.0
H244 H 0.45716 0.90413 0.95678 0.0
H245 H 0.42099 0.81979 0.98167 0.0
H246 H 0.44006 0.83262 0.94361 0.0
H247 H 0.41132 0.827 0.93999 0.0
C248 C 0.47897 0.87715 0.87102 0.0
C249 C 0.46289 0.86738 0.84292 0.0
C250 C 0.4724 0.87885 0.90755 0.0
C251 C 0.4497 0.87073 0.91644 0.0
C252 C 0.43368 0.86158 0.88817 0.0
H253 H 0.38579 0.88335 0.1198 0.0
H254 H 0.40019 0.88615 0.0557 0.0
C255 C 0.44021 0.85988 0.8517 0.0
C256 C 0.44265 0.87103 0.9556 0.0
H257 H 0.41476 0.83943 0.02858 0.0
C258 C 0.44793 0.89003 0.97261 0.0
C259 C 0.43085 0.85259 0.97612 0.0
C260 C 0.4256 0.83182 0.95964 0.0
C261 C 0.44138 0.89104 0.00969 0.0
C262 C 0.42908 0.87253 0.02986 0.0
C263 C 0.42408 0.85358 0.01291 0.0
C264 C 0.42152 0.87232 0.06891 0.0
C265 C 0.44794 0.91184 0.02714 0.0
C266 C 0.42858 0.86344 0.09736 0.0
C267 C 0.42025 0.86164 0.13375 0.0
C268 C 0.40465 0.86865 0.14233 0.0
C269 C 0.39785 0.87787 0.11398 0.0
C270 C 0.40617 0.87961 0.07745 0.0
H271 H 0.46177 0.92441 0.01151 0.0
H272 H 0.4334 0.91497 0.02673 0.0
H273 H 0.45313 0.91219 0.05684 0.0
H274 H 0.44036 0.85765 0.09125 0.0
H275 H 0.42584 0.85451 0.15502 0.0
H276 H 0.54753 0.38163 0.17028 0.0
H277 H 0.53188 0.37772 0.23341 0.0
H278 H 0.55603 0.44355 0.24017 0.0
H279 H 0.57293 0.44755 0.178 0.0
H280 H 0.56622 0.43214 0.29997 0.0
H281 H 0.47806 0.37749 0.27568 0.0
H282 H 0.49492 0.36644 0.25807 0.0
H283 H 0.49707 0.38979 0.23736 0.0
C284 C 0.5493 0.39521 0.18521 0.0
C285 C 0.56154 0.41488 0.16959 0.0
C286 C 0.5401 0.39296 0.22109 0.0
C287 C 0.54231 0.41029 0.24138 0.0
C288 C 0.55402 0.42993 0.22513 0.0
H289 H 0.47966 0.38343 0.46568 0.0
H290 H 0.48726 0.39495 0.4 0.0
C291 C 0.56373 0.43222 0.18969 0.0
C292 C 0.53452 0.40814 0.2809 0.0
H293 H 0.49189 0.37761 0.33916 0.0
C294 C 0.54977 0.42049 0.30835 0.0
C295 C 0.51287 0.39338 0.29211 0.0
C296 C 0.49476 0.38124 0.2641 0.0
C297 C 0.54451 0.41759 0.34664 0.0
C298 C 0.52384 0.40123 0.35796 0.0
C299 C 0.50798 0.38982 0.33055 0.0
C300 C 0.51917 0.39477 0.3978 0.0
C301 C 0.56132 0.43206 0.37445 0.0
C302 C 0.53434 0.39052 0.41809 0.0
C303 C 0.53027 0.38442 0.45553 0.0
C304 C 0.51057 0.38178 0.47311 0.0
C305 C 0.49499 0.3854 0.45265 0.0
C306 C 0.49932 0.39197 0.41524 0.0
H307 H 0.57121 0.44761 0.362 0.0
H308 H 0.55318 0.43365 0.40046 0.0
H309 H 0.57318 0.4261 0.38201 0.0
H310 H 0.54932 0.39175 0.40488 0.0
H311 H 0.54238 0.38141 0.47052 0.0
H312 H 0.15116 0.61825 0.49683 0.0
H313 H 0.15157 0.61042 0.56337 0.0
H314 H 0.11429 0.64324 0.58941 0.0
H315 H 0.11363 0.65104 0.52253 0.0
H316 H 0.17143 0.64333 0.61723 0.0
H317 H 0.08324 0.58822 0.65099 0.0
H318 H 0.09403 0.59215 0.60359 0.0
H319 H 0.08826 0.61121 0.62555 0.0
C320 C 0.14274 0.62353 0.5166 0.0
C321 C 0.13252 0.63539 0.50461 0.0
C322 C 0.14296 0.61903 0.55455 0.0
C323 C 0.13291 0.62622 0.58111 0.0
C324 C 0.12189 0.63735 0.56916 0.0
H325 H 0.16923 0.63749 0.81865 0.0
H326 H 0.15877 0.64429 0.75632 0.0
C327 C 0.12161 0.64185 0.53106 0.0
C328 C 0.13604 0.62373 0.62142 0.0
H329 H 0.10915 0.59844 0.70099 0.0
C330 C 0.15782 0.63363 0.63567 0.0
C331 C 0.11818 0.61105 0.64511 0.0
C332 C 0.09458 0.5999 0.63069 0.0
C333 C 0.16235 0.63086 0.67298 0.0
C334 C 0.14455 0.61804 0.69665 0.0
C335 C 0.12268 0.60836 0.68264 0.0
C336 C 0.14872 0.61351 0.73531 0.0
C337 C 0.18621 0.6411 0.68648 0.0
C338 C 0.14603 0.59384 0.74411 0.0
C339 C 0.15206 0.58993 0.77952 0.0
C340 C 0.16076 0.60563 0.80666 0.0
C341 C 0.16274 0.62515 0.79815 0.0
C342 C 0.15675 0.62906 0.76267 0.0
H343 H 0.19827 0.64763 0.66294 0.0
H344 H 0.18876 0.65385 0.70598 0.0
H345 H 0.18998 0.62995 0.70205 0.0
H346 H 0.13988 0.58169 0.72321 0.0
H347 H 0.15019 0.5747 0.78541 0.0
H348 H 0.59802 0.17758 0.14386 0.0
H349 H 0.58277 0.17264 0.08034 0.0
H350 H 0.59796 0.12206 0.06368 0.0
H351 H 0.61441 0.12778 0.12658 0.0
H352 H 0.60938 0.14448 0.00489 0.0
H353 H 0.52462 0.13143 0.0407 0.0
H354 H 0.54468 0.15572 0.05926 0.0
H355 H 0.54405 0.13221 0.07608 0.0
C356 C 0.59798 0.16535 0.12667 0.0
C357 C 0.60735 0.15305 0.14003 0.0
C358 C 0.58905 0.16238 0.0905 0.0
C359 C 0.58865 0.14661 0.06745 0.0
C360 C 0.59794 0.13424 0.08095 0.0
H361 H 0.51494 0.12401 0.85523 0.0
H362 H 0.52648 0.11931 0.91824 0.0
C363 C 0.60734 0.13752 0.11685 0.0
C364 C 0.57976 0.14389 0.02856 0.0
H365 H 0.53647 0.14209 0.9768 0.0
C366 C 0.59328 0.14363 -0.00118 0.0
C367 C 0.55849 0.14221 0.02046 0.0
C368 C 0.54206 0.14016 0.05091 0.0
C369 C 0.5866 0.14274 0.96128 0.0
C370 C 0.56628 0.14305 0.95314 0.0
C371 C 0.55227 0.14228 0.98289 0.0
C372 C 0.55965 0.14507 0.91418 0.0
C373 C 0.60139 0.14131 0.93089 0.0
C374 C 0.57436 0.16114 0.89098 0.0
C375 C 0.56796 0.16354 0.85481 0.0
C376 C 0.54648 0.15032 0.84156 0.0
C377 C 0.5316 0.13443 0.86486 0.0
C378 C 0.53818 0.13174 0.90081 0.0
H379 H 0.61093 0.13342 0.94135 0.0
H380 H 0.59162 0.13283 0.90591 0.0
H381 H 0.61367 0.15707 0.92217 0.0
H382 H 0.59069 0.17211 0.90103 0.0
H383 H 0.57967 0.17608 0.83756 0.0
H384 H 0.36848 0.60086 0.09217 0.0
H385 H 0.33143 0.59459 0.0717 0.0
H386 H 0.33319 0.55518 0.98288 0.0
H387 H 0.3699 0.56073 0.00438 0.0
H388 H 0.32309 0.60631 0.00758 0.0
H389 H 0.2703 0.52194 0.01812 0.0
H390 H 0.29744 0.53504 0.03985 0.0
H391 H 0.29492 0.52852 -0.00932 0.0
C392 C 0.36075 0.59051 0.06877 0.0
C393 C 0.37203 0.58129 0.04981 0.0
C394 C 0.33958 0.58693 0.0571 0.0
C395 C 0.32939 0.57426 0.02594 0.0
C396 C 0.3404 0.56457 0.00758 0.0
H397 H 0.23797 0.59433 0.88442 0.0
H398 H 0.26885 0.58966 0.90986 0.0
C399 C 0.36146 0.56787 0.01971 0.0
C400 C 0.30855 0.5732 0.01033 0.0
H401 H 0.25589 0.5403 0.98045 0.0
C402 C 0.30835 0.59185 0.00202 0.0
C403 C 0.28922 0.55435 0.00335 0.0
C404 C 0.28786 0.53384 0.01384 0.0
C405 C 0.28955 0.59222 0.98649 0.0
C406 C 0.27064 0.5734 0.97764 0.0
C407 C 0.27057 0.5547 0.98665 0.0
C408 C 0.25084 0.57307 0.95929 0.0
C409 C 0.29008 0.61286 0.9803 0.0
C410 C 0.23003 0.56405 0.97736 0.0
C411 C 0.21216 0.56631 0.9624 0.0
C412 C 0.21501 0.57778 0.92939 0.0
C413 C 0.23543 0.58565 0.91019 0.0
C414 C 0.2531 0.58308 0.92477 0.0
H415 H 0.30269 0.625 -0.00151 0.0
H416 H 0.29461 0.61763 0.95065 0.0
H417 H 0.27356 0.61205 0.98605 0.0
H418 H 0.22791 0.55612 0.00391 0.0
H419 H 0.19658 0.56011 0.97775 0.0
H420 H 0.8647 0.31943 0.32527 0.0
H421 H 0.83879 0.28633 0.29646 0.0
H422 H 0.79662 0.27151 0.39451 0.0
H423 H 0.82271 0.30352 0.42378 0.0
H424 H 0.79438 0.23772 0.36777 0.0
H425 H 0.78361 0.28173 0.24894 0.0
H426 H 0.8109 0.28367 0.25364 0.0
H427 H 0.80044 0.29443 0.28923 0.0
C428 C 0.85023 0.30877 0.341 0.0
C429 C 0.84559 0.31426 0.37655 0.0
C430 C 0.83524 0.28998 0.32432 0.0
C431 C 0.81526 0.27663 0.34272 0.0
C432 C 0.81172 0.28147 0.37942 0.0
H433 H 0.68356 0.2146 0.27158 0.0
H434 H 0.72197 0.23643 0.29001 0.0
C435 C 0.8267 0.29994 0.39614 0.0
C436 C 0.79678 0.25868 0.32353 0.0
H437 H 0.75846 0.2469 0.25315 0.0
C438 C 0.78666 0.23963 0.3424 0.0
C439 C 0.78662 0.26112 0.2904 0.0
C440 C 0.79578 0.28134 0.26945 0.0
C441 C 0.76591 0.22364 0.33095 0.0
C442 C 0.75536 0.22642 0.2987 0.0
C443 C 0.76643 0.2448 0.27805 0.0
C444 C 0.73169 0.2121 0.28866 0.0
C445 C 0.75485 0.20461 0.35514 0.0
C446 C 0.72393 0.19086 0.28229 0.0
C447 C 0.70149 0.17808 0.27262 0.0
C448 C 0.68672 0.18651 0.26814 0.0
C449 C 0.69457 0.20767 0.27452 0.0
C450 C 0.71663 0.22022 0.28495 0.0
H451 H 0.76294 0.20685 0.3831 0.0
H452 H 0.73694 0.20017 0.35947 0.0
H453 H 0.75602 0.19164 0.34098 0.0
H454 H 0.73522 0.18421 0.28413 0.0
H455 H 0.69589 0.16184 0.26749 0.0
H456 H 0.50073 0.81648 0.77283 0.0
H457 H 0.51471 0.79243 0.75495 0.0
H458 H 0.53555 0.8229 0.64773 0.0
H459 H 0.52237 0.84772 0.66647 0.0
H460 H 0.49803 0.76565 0.70178 0.0
H461 H 0.58766 0.81298 0.66985 0.0
H462 H 0.57163 0.82327 0.69433 0.0
H463 H 0.57044 0.82114 0.64387 0.0
C464 C 0.50882 0.8184 0.7458 0.0
C465 C 0.51049 0.83398 0.72104 0.0
C466 C 0.51678 0.80459 0.73555 0.0
C467 C 0.52633 0.80578 0.70002 0.0
C468 C 0.52877 0.82187 0.67566 0.0
H469 H 0.53394 0.71511 0.55977 0.0
H470 H 0.53777 0.74697 0.58827 0.0
C471 C 0.52116 0.83602 0.68628 0.0
C472 C 0.53118 0.78881 0.68737 0.0
H473 H 0.57056 0.77808 0.6469 0.0
C474 C 0.51405 0.76843 0.69039 0.0
C475 C 0.55204 0.79229 0.67234 0.0
C476 C 0.57156 0.81359 0.67024 0.0
C477 C 0.51695 0.75162 0.67805 0.0
C478 C 0.53755 0.75516 0.66214 0.0
C479 C 0.55483 0.77543 0.65936 0.0
C480 C 0.54033 0.73796 0.64513 0.0
C481 C 0.49768 0.73016 0.68088 0.0
C482 C 0.54147 0.72267 0.66757 0.0
C483 C 0.53956 0.70445 0.65123 0.0
C484 C 0.53618 0.70125 0.61233 0.0
C485 C 0.53655 0.71719 0.58983 0.0
C486 C 0.53876 0.73542 0.60605 0.0
H487 H 0.48208 0.73024 0.69036 0.0
H488 H 0.49458 0.72227 0.65323 0.0
H489 H 0.50188 0.72101 0.70122 0.0
H490 H 0.54261 0.72435 0.69784 0.0
H491 H 0.53905 0.69233 0.66924 0.0
H492 H 0.6479 0.46458 0.01444 0.0
H493 H 0.68475 0.47119 -0.00875 0.0
H494 H 0.67892 0.4175 0.0503 0.0
H495 H 0.64241 0.41098 0.07401 0.0
H496 H 0.72093 0.45142 0.05704 0.0
H497 H 0.69277 0.43625 0.90821 0.0
H498 H 0.6887 0.45602 0.93159 0.0
H499 H 0.67351 0.42975 0.94698 0.0
C500 C 0.65458 0.4543 0.02271 0.0
C501 C 0.64221 0.43718 0.04584 0.0
C502 C 0.67555 0.45804 0.0093 0.0
C503 C 0.68438 0.44466 0.01864 0.0
C504 C 0.67237 0.42798 0.04271 0.0
H505 H 0.77348 0.40916 0.91508 0.0
H506 H 0.74288 0.41493 0.93776 0.0
C507 C 0.65148 0.42426 0.05616 0.0
C508 C 0.70574 0.44738 0.00252 0.0
H509 H 0.72997 0.44408 0.92043 0.0
C510 C 0.72307 0.45007 0.02713 0.0
C511 C 0.70829 0.44537 0.96353 0.0
C512 C 0.68982 0.44152 0.93596 0.0
C513 C 0.74267 0.45017 0.01394 0.0
C514 C 0.74514 0.44797 0.97497 0.0
C515 C 0.72808 0.44594 0.95024 0.0
C516 C 0.76409 0.44543 0.9597 0.0
C517 C 0.76001 0.45153 0.04203 0.0
C518 C 0.78622 0.46083 0.96393 0.0
C519 C 0.80387 0.45749 0.95122 0.0
C520 C 0.79958 0.43879 0.93372 0.0
C521 C 0.77737 0.42373 0.92846 0.0
C522 C 0.75983 0.42701 0.94136 0.0
H523 H 0.75349 0.44887 0.07125 0.0
H524 H 0.766 0.4401 0.03546 0.0
H525 H 0.7745 0.46713 0.04076 0.0
H526 H 0.78985 0.47532 0.97735 0.0
H527 H 0.82082 0.46941 0.95546 0.0
H528 H 0.15366 0.69905 0.3163 0.0
H529 H 0.18266 0.732 0.2916 0.0
H530 H 0.20818 0.75074 0.40361 0.0
H531 H 0.17958 0.71797 0.42826 0.0
H532 H 0.20542 0.78252 0.32872 0.0
H533 H 0.25213 0.73666 0.32345 0.0
H534 H 0.22236 0.72466 0.31619 0.0
H535 H 0.23357 0.73321 0.36221 0.0
C536 C 0.16481 0.7106 0.33578 0.0
C537 C 0.1644 0.70599 0.37417 0.0
C538 C 0.18142 0.72937 0.32165 0.0
C539 C 0.19754 0.74377 0.34584 0.0
C540 C 0.19581 0.73991 0.38455 0.0
H541 H 0.32578 0.85445 0.31581 0.0
H542 H 0.28763 0.83084 0.3367 0.0
C543 C 0.17946 0.72117 0.39856 0.0
C544 C 0.2184 0.7607 0.33065 0.0
H545 H 0.27162 0.77155 0.30731 0.0
C546 C 0.21991 0.78019 0.32379 0.0
C547 C 0.23724 0.75758 0.32456 0.0
C548 C 0.23645 0.73693 0.33183 0.0
C549 C 0.23991 0.79666 0.31065 0.0
C550 C 0.25881 0.79351 0.30477 0.0
C551 C 0.25715 0.77398 0.31179 0.0
C552 C 0.28038 0.80976 0.2899 0.0
C553 C 0.2406 0.81714 0.30251 0.0
C554 C 0.28888 0.80596 0.25654 0.0
C555 C 0.31055 0.81919 0.24493 0.0
C556 C 0.32434 0.83665 0.2663 0.0
C557 C 0.31549 0.84119 0.29866 0.0
C558 C 0.29368 0.82774 0.31052 0.0
H559 H 0.22362 0.81589 0.30107 0.0
H560 H 0.24995 0.82818 0.32519 0.0
H561 H 0.24937 0.82356 0.27558 0.0
H562 H 0.27898 0.79224 0.24013 0.0
H563 H 0.31677 0.81532 0.21969 0.0
H564 H 0.50431 0.19893 0.77462 0.0
H565 H 0.48962 0.22249 0.7569 0.0
H566 H 0.47263 0.19414 0.64731 0.0
H567 H 0.48648 0.16981 0.66581 0.0
H568 H 0.50732 0.25037 0.70583 0.0
H569 H 0.41908 0.20237 0.66584 0.0
H570 H 0.43478 0.19202 0.6911 0.0
H571 H 0.43742 0.19515 0.64085 0.0
C572 C 0.49685 0.19734 0.7471 0.0
C573 C 0.49648 0.18252 0.7216 0.0
C574 C 0.48849 0.21086 0.73694 0.0
C575 C 0.47987 0.21016 0.70078 0.0
C576 C 0.47865 0.19477 0.67568 0.0
H577 H 0.47287 0.30011 0.55933 0.0
H578 H 0.46762 0.26803 0.5887 0.0
C579 C 0.48665 0.18089 0.68619 0.0
C580 C 0.47489 0.22708 0.68832 0.0
H581 H 0.43628 0.23761 0.64455 0.0
C582 C 0.49159 0.24751 0.69307 0.0
C583 C 0.45444 0.22348 0.67146 0.0
C584 C 0.43533 0.20207 0.66735 0.0
C585 C 0.48874 0.26431 0.68054 0.0
C586 C 0.46856 0.2607 0.66283 0.0
C587 C 0.45167 0.24034 0.65843 0.0
C588 C 0.46599 0.27791 0.64534 0.0
C589 C 0.50775 0.28582 0.68495 0.0
C590 C 0.46557 0.29372 0.6673 0.0
C591 C 0.46832 0.31209 0.65045 0.0
C592 C 0.47174 0.31488 0.61149 0.0
C593 C 0.47024 0.29835 0.58943 0.0
C594 C 0.46725 0.27999 0.60616 0.0
H595 H 0.52336 0.28576 0.69438 0.0
H596 H 0.51107 0.29437 0.65799 0.0
H597 H 0.50316 0.29435 0.7061 0.0
H598 H 0.46454 0.29236 0.69762 0.0
H599 H 0.4697 0.32466 0.66815 0.0
H600 H 0.51509 0.59463 0.05686 0.0
H601 H 0.52732 0.56813 0.05241 0.0
H602 H 0.45939 0.52094 0.06675 0.0
H603 H 0.44692 0.54735 0.06995 0.0
H604 H 0.52461 0.54112 0.10446 0.0
H605 H 0.47796 0.49842 0.97848 0.0
H606 H 0.48043 0.52324 -0.0087 0.0
H607 H 0.46011 0.50018 0.01398 0.0
C608 C 0.50271 0.5786 0.05868 0.0
C609 C 0.48002 0.57307 0.06363 0.0
C610 C 0.50973 0.56347 0.05611 0.0
C611 C 0.49424 0.54253 0.05866 0.0
C612 C 0.47157 0.53696 0.06363 0.0
H613 H 0.50227 0.42955 0.08698 0.0
H614 H 0.49134 0.45688 0.08185 0.0
C615 C 0.46447 0.55208 0.06569 0.0
C616 C 0.50206 0.52667 0.05836 0.0
H617 H 0.49449 0.48203 0.01596 0.0
C618 C 0.51819 0.52832 0.08484 0.0
C619 C 0.49367 0.50998 0.03273 0.0
C620 C 0.47726 0.50793 0.00228 0.0
C621 C 0.52576 0.51348 0.08699 0.0
C622 C 0.51704 0.49662 0.06187 0.0
C623 C 0.50107 0.49501 0.03519 0.0
C624 C 0.52379 0.48013 0.06373 0.0
C625 C 0.54259 0.51561 0.11673 0.0
C626 C 0.54561 0.48416 0.05473 0.0
C627 C 0.55197 0.46857 0.05756 0.0
C628 C 0.53657 0.44867 0.06943 0.0
C629 C 0.51461 0.44469 0.07785 0.0
C630 C 0.50827 0.46026 0.07489 0.0
H631 H 0.54453 0.52735 0.13821 0.0
H632 H 0.53765 0.50064 0.13103 0.0
H633 H 0.55905 0.52036 0.10329 0.0
H634 H 0.55773 0.49939 0.04563 0.0
H635 H 0.56899 0.47218 0.05078 0.0
H636 H 0.92823 0.42708 0.34361 0.0
H637 H 0.96283 0.4593 0.33197 0.0
H638 H 0.96883 0.47245 0.45073 0.0
H639 H 0.93451 0.44073 0.46224 0.0
H640 H 0.96858 0.50058 0.3549 0.0
H641 H 0.03199 0.48211 0.418 0.0
H642 H 1.0051 0.46245 0.40236 0.0
H643 H 0.00778 0.47492 0.44699 0.0
C644 C 0.9374 0.43658 0.36721 0.0
C645 C 0.9289 0.43133 0.40387 0.0
C646 C 0.95697 0.45505 0.36053 0.0
C647 C 0.96846 0.46824 0.39053 0.0
C648 C 0.96043 0.46244 0.42721 0.0
H649 H 0.07271 0.58266 0.45833 0.0
H650 H 0.0389 0.55015 0.44891 0.0
C651 C 0.94085 0.44428 0.43377 0.0
C652 C 0.98802 0.48873 0.38421 0.0
H653 H 0.04193 0.51791 0.4122 0.0
C654 C 0.98479 0.50435 0.36668 0.0
C655 C 0.00912 0.49362 0.39968 0.0
C656 C 0.01384 0.47736 0.41752 0.0
C657 C 1.00173 0.52497 0.36632 0.0
C658 C 0.02245 0.53 0.38358 0.0
C659 C 0.02598 0.51414 0.39932 0.0
C660 C 0.04034 0.55162 0.3882 0.0
C661 C 0.99697 0.54139 0.34934 0.0
C662 C 0.05191 0.56382 0.35719 0.0
C663 C 0.07115 0.58274 0.36263 0.0
C664 C 0.07912 0.58952 0.39912 0.0
C665 C 0.06674 0.57789 0.42995 0.0
C666 C 0.04753 0.55923 0.42456 0.0
H667 H 0.97898 0.53555 0.34299 0.0
H668 H 1.00244 0.5548 0.36859 0.0
H669 H 0.00647 0.54688 0.32275 0.0
H670 H 0.04692 0.55817 0.32887 0.0
H671 H 0.08073 0.59117 0.33842 0.0
H672 H 0.56685 0.10065 0.71682 0.0
H673 H 0.55526 0.06392 0.7108 0.0
H674 H 0.48795 0.05024 0.74018 0.0
H675 H 0.49941 0.08728 0.74493 0.0
H676 H 0.54048 0.03613 0.764 0.0
H677 H 0.47591 0.01195 0.65313 0.0
H678 H 0.49443 0.03871 0.66295 0.0
H679 H 0.47012 0.02455 0.69164 0.0
C680 C 0.54947 0.08985 0.72144 0.0
C681 C 0.53403 0.09689 0.73136 0.0
C682 C 0.54288 0.06881 0.71803 0.0
C683 C 0.52069 0.05419 0.72472 0.0
C684 C 0.50507 0.06116 0.73395 0.0
H685 H 0.45018 0.92473 0.76421 0.0
H686 H 0.46412 0.96155 0.75647 0.0
C687 C 0.51162 0.08234 0.73681 0.0
C688 C 0.51451 0.03179 0.72454 0.0
H689 H 0.47748 0.98497 0.6888 0.0
C690 C 0.52686 0.025 0.74717 0.0
C691 C 0.49682 0.0172 0.70251 0.0
C692 C 0.48371 0.02348 0.6759 0.0
C693 C 0.52156 1.00405 0.74932 0.0
C694 C 0.50349 0.98943 0.72813 0.0
C695 C 0.49138 0.99621 0.70499 0.0
C696 C 0.49559 0.96689 0.73214 0.0
C697 C 0.53479 0.99759 0.77534 0.0
C698 C 0.50869 0.95749 0.72095 0.0
C699 C 0.50072 0.93613 0.72534 0.0
C700 C 0.4795 0.92385 0.74097 0.0
C701 C 0.46658 0.9335 0.75202 0.0
C702 C 0.47449 0.95466 0.74755 0.0
H703 H 0.54585 0.0103 0.79426 0.0
H704 H 0.52346 0.98424 0.79275 0.0
H705 H 0.54534 0.99275 0.75842 0.0
H706 H 0.52497 0.96664 0.70859 0.0
H707 H 0.51109 0.92927 0.71641 0.0
H708 H 0.51378 0.58036 0.51664 0.0
H709 H 0.51718 0.54908 0.5289 0.0
H710 H 0.51496 0.55845 0.64811 0.0
H711 H 0.51182 0.59017 0.63581 0.0
H712 H 0.54872 0.54123 0.57746 0.0
H713 H 0.45954 0.50038 0.62138 0.0
H714 H 0.47044 0.52383 0.59412 0.0
H715 H 0.47769 0.5248 0.64276 0.0
C716 C 0.51474 0.57611 0.54549 0.0
C717 C 0.51277 0.58777 0.57529 0.0
C718 C 0.51653 0.55817 0.55247 0.0
C719 C 0.51599 0.55127 0.58937 0.0
C720 C 0.51523 0.56344 0.6194 0.0
H721 H 0.50208 0.42636 0.63384 0.0
H722 H 0.50162 0.45945 0.64484 0.0
C723 C 0.51375 0.58167 0.61239 0.0
C724 C 0.51484 0.53071 0.59547 0.0
H725 H 0.47783 0.48018 0.61201 0.0
C726 C 0.53335 0.52795 0.58568 0.0
C727 C 0.49477 0.51336 0.60626 0.0
C728 C 0.47436 0.51553 0.61666 0.0
C729 C 0.53212 0.50826 0.5851 0.0
C730 C 0.51165 0.49074 0.59356 0.0
C731 C 0.49345 0.49357 0.6053 0.0
C732 C 0.50856 0.46948 0.58696 0.0
C733 C 0.55269 0.50635 0.57459 0.0
C734 C 0.51135 0.46368 0.55057 0.0
C735 C 0.51162 0.44498 0.54434 0.0
C736 C 0.50877 0.43145 0.57424 0.0
C737 C 0.50413 0.43642 0.61025 0.0
C738 C 0.50405 0.45537 0.61658 0.0
H739 H 0.56814 0.52087 0.58031 0.0
H740 H 0.55352 0.49359 0.5902 0.0
H741 H 0.55224 0.50305 0.54407 0.0
H742 H 0.51429 0.47405 0.52712 0.0
H743 H 0.5151 0.4415 0.51625 0.0
H744 H 0.10658 0.54733 0.91379 0.0
H745 H 0.06705 0.52231 0.91715 0.0
H746 H 0.04924 0.57158 0.90818 0.0
H747 H 0.08859 0.59664 0.90392 0.0
H748 H 0.03437 0.51822 0.96716 0.0
H749 H 0.01316 0.53356 0.82392 0.0
H750 H 0.04157 0.54306 0.83967 0.0
H751 H 0.02571 0.55608 0.85313 0.0
C752 C 0.09426 0.55286 0.91259 0.0
C753 C 0.10076 0.57398 0.90823 0.0
C754 C 0.07169 0.53854 0.9145 0.0
C755 C 0.05522 0.54506 0.91215 0.0
C756 C 0.06166 0.56617 0.90904 0.0
H757 H 0.90977 0.47744 0.91612 0.0
H758 H 0.94853 0.50456 0.91927 0.0
C759 C 0.08419 0.58047 0.90681 0.0
C760 C 0.03131 0.52978 0.913 0.0
H761 H 0.98297 0.51141 0.8625 0.0
C762 C 0.02313 0.51671 0.94426 0.0
C763 C 0.0167 0.52785 0.88306 0.0
C764 C 0.02473 0.54074 0.84788 0.0
C765 C 1.00069 0.50182 0.94647 0.0
C766 C 0.98615 0.4999 0.91653 0.0
C767 C 0.99421 0.51308 0.88548 0.0
C768 C 0.96276 0.48356 0.916 0.0
C769 C 0.99262 0.48829 0.98085 0.0
C770 C 0.95806 0.46287 0.9128 0.0
C771 C 0.93604 0.44739 0.91078 0.0
C772 C 0.91825 0.4523 0.91195 0.0
C773 C 0.92305 0.47311 0.91532 0.0
C774 C 0.94515 0.48862 0.91708 0.0
H775 H 1.00438 0.49477 0.00479 0.0
H776 H 0.97596 0.48621 0.98966 0.0
H777 H 0.99105 0.47287 0.97412 0.0
H778 H 0.97147 0.45873 0.91135 0.0
H779 H 0.93301 0.43157 0.90818 0.0
H780 H 0.47806 0.92114 0.24574 0.0
H781 H 0.5027 0.9579 0.25033 0.0
H782 H 0.44582 0.96954 0.25372 0.0
H783 H 0.4207 0.93228 0.2497 0.0
H784 H 0.50662 0.98704 0.20013 0.0
H785 H 0.48372 1.00515 0.33995 0.0
H786 H 0.47544 0.97908 0.32473 0.0
H787 H 0.46065 0.99253 0.30827 0.0
C788 C 0.47063 0.9314 0.24774 0.0
C789 C 0.44729 0.92367 0.24715 0.0
C790 C 0.48484 0.9525 0.2504 0.0
C791 C 0.47621 0.96655 0.25259 0.0
C792 C 0.4529 0.95898 0.25274 0.0
H793 H 0.53449 0.09844 0.23949 0.0
H794 H 0.51087 0.0615 0.24496 0.0
C795 C 0.43855 0.93769 0.25029 0.0
C796 C 0.49186 0.98905 0.2526 0.0
H797 H 0.50835 0.03358 0.30278 0.0
C798 C 0.50707 0.99718 0.22272 0.0
C799 C 0.49253 1.00229 0.28211 0.0
C800 C 0.47737 0.99435 0.31579 0.0
C801 C 0.52259 0.01819 0.22115 0.0
C802 C 0.52315 0.03144 0.25049 0.0
C803 C 0.50801 0.02335 0.28045 0.0
C804 C 0.53815 0.05402 0.24909 0.0
C805 C 0.53784 0.02617 0.18755 0.0
C806 C 0.56151 0.06224 0.25017 0.0
C807 C 0.57528 0.0836 0.24708 0.0
C808 C 0.56587 0.09704 0.24265 0.0
C809 C 0.54244 0.08864 0.24244 0.0
C810 C 0.52881 0.06746 0.24576 0.0
H811 H 0.53255 0.01478 0.16424 0.0
H812 H 0.53837 0.04066 0.17701 0.0
H813 H 0.555 0.02962 0.19597 0.0
H814 H 0.56907 0.05212 0.25318 0.0
H815 H 0.59321 0.08952 0.24747 0.0
H816 H 0.45892 0.65789 0.64603 0.0
H817 H 0.44971 0.66046 0.7119 0.0
H818 H 0.44679 0.60127 0.73431 0.0
H819 H 0.45422 0.59811 0.66806 0.0
H820 H 0.41816 0.60512 0.77589 0.0
H821 H 0.49757 0.67777 0.78741 0.0
H822 H 0.47791 0.67956 0.75589 0.0
H823 H 0.48968 0.66256 0.74514 0.0
C824 C 0.45548 0.64519 0.66497 0.0
C825 C 0.45701 0.62774 0.65239 0.0
C826 C 0.45061 0.64679 0.70261 0.0
C827 C 0.44833 0.6314 0.72839 0.0
C828 C 0.44857 0.61341 0.71508 0.0
H829 H 0.48906 0.64063 0.95561 0.0
H830 H 0.4852 0.64338 0.88791 0.0
C831 C 0.45273 0.61154 0.67727 0.0
C832 C 0.44739 0.6344 0.76947 0.0
H833 H 0.47641 0.66561 0.84242 0.0
C834 C 0.43084 0.6184 0.79046 0.0
C835 C 0.46412 0.65165 0.7885 0.0
C836 C 0.48344 0.66876 0.76816 0.0
C837 C 0.43113 0.61861 0.82985 0.0
C838 C 0.44774 0.63594 0.84888 0.0
C839 C 0.46363 0.65241 0.82784 0.0
C840 C 0.45038 0.6364 0.89033 0.0
C841 C 0.41449 0.59963 0.85037 0.0
C842 C 0.43238 0.63231 0.91446 0.0
C843 C 0.43441 0.63011 0.95303 0.0
C844 C 0.45475 0.63285 0.96822 0.0
C845 C 0.47324 0.63855 0.94453 0.0
C846 C 0.47101 0.6401 0.90586 0.0
H847 H 0.40724 0.5859 0.83171 0.0
H848 H 0.42232 0.59604 0.87475 0.0
H849 H 0.40058 0.60229 0.86074 0.0
H850 H 0.41657 0.63019 0.90339 0.0
H851 H 0.41999 0.62591 0.97093 0.0
H852 H 0.83323 0.40943 0.32251 0.0
H853 H 0.82313 0.40637 0.25578 0.0
H854 H 0.8165 0.34488 0.25361 0.0
H855 H 0.82671 0.34786 0.31983 0.0
H856 H 0.84966 0.37372 0.206 0.0
H857 H 0.76827 0.3738 0.18636 0.0
H858 H 0.78729 0.39285 0.21835 0.0
H859 H 0.77599 0.36601 0.22982 0.0
C860 C 0.82882 0.39501 0.30811 0.0
C861 C 0.83108 0.37902 0.3261 0.0
C862 C 0.82299 0.39325 0.27005 0.0
C863 C 0.81908 0.37539 0.24988 0.0
C864 C 0.81944 0.35876 0.26874 0.0
H865 H 0.83269 0.36013 0.00873 0.0
H866 H 0.82424 0.35238 0.07547 0.0
C867 C 0.82536 0.36054 0.30652 0.0
C868 C 0.81877 0.37542 0.20839 0.0
H869 H 0.79094 0.37976 0.13185 0.0
C870 C 0.83667 0.37476 0.18969 0.0
C871 C 0.80191 0.37698 0.18746 0.0
C872 C 0.78215 0.3773 0.2064 0.0
C873 C 0.83863 0.37631 0.15055 0.0
C874 C 0.82184 0.37799 0.12944 0.0
C875 C 0.80368 0.37829 0.14812 0.0
C876 C 0.82391 0.38115 0.08828 0.0
C877 C 0.85922 0.37713 0.13242 0.0
C878 C 0.82543 0.39941 0.07313 0.0
C879 C 0.82998 0.40377 0.03505 0.0
C880 C 0.8332 0.38997 0.01133 0.0
C881 C 0.83063 0.37122 0.02628 0.0
C882 C 0.82585 0.36679 0.06441 0.0
H883 H 0.87278 0.38062 0.15314 0.0
H884 H 0.85498 0.36194 0.11959 0.0
H885 H 0.86564 0.38898 0.10994 0.0
H886 H 0.82392 0.41067 0.09105 0.0
H887 H 0.83166 0.4183 0.02453 0.0
H888 H 0.40249 0.83995 0.65 0.0
H889 H 0.39404 0.83244 0.58355 0.0
H890 H 0.45463 0.82743 0.56887 0.0
H891 H 0.46358 0.83553 0.63528 0.0
H892 H 0.45191 0.8535 0.51999 0.0
H893 H 0.37167 0.78196 0.51867 0.0
H894 H 0.37042 0.80142 0.5477 0.0
H895 H 0.38887 0.79088 0.56019 0.0
C896 C 0.41383 0.83684 0.63288 0.0
C897 C 0.43379 0.83847 0.64795 0.0
C898 C 0.40886 0.83237 0.59486 0.0
C899 C 0.42352 0.82906 0.57131 0.0
C900 C 0.44301 0.82983 0.5866 0.0
H901 H 0.42982 0.82798 0.32624 0.0
H902 H 0.43316 0.8207 0.39221 0.0
C903 C 0.44812 0.8345 0.62455 0.0
C904 C 0.4199 0.82737 0.53012 0.0
H905 H 0.38111 0.80236 0.46196 0.0
C906 C 0.43659 0.84206 0.50725 0.0
C907 C 0.39985 0.81253 0.51355 0.0
C908 C 0.38179 0.79569 0.53631 0.0
C909 C 0.43345 0.84285 0.46851 0.0
C910 C 0.41316 0.82841 0.45215 0.0
C911 C 0.39663 0.8134 0.47473 0.0
C912 C 0.40858 0.82955 0.41189 0.0
C913 C 0.45152 0.85965 0.44559 0.0
C914 C 0.39293 0.83606 0.4011 0.0
C915 C 0.39093 0.84024 0.3634 0.0
C916 C 0.40457 0.83796 0.33588 0.0
C917 C 0.41922 0.83014 0.34666 0.0
C918 C 0.42118 0.82597 0.38435 0.0
H919 H 0.46437 0.87173 0.46357 0.0
H920 H 0.4599 0.85283 0.42785 0.0
H921 H 0.4443 0.86706 0.42668 0.0
H922 H 0.38302 0.83885 0.42207 0.0
H923 H 0.37935 0.84607 0.35613 0.0
H924 H 0.56674 0.41433 0.6721 0.0
H925 H 0.57285 0.41075 0.73862 0.0
H926 H 0.54729 0.34508 0.72371 0.0
H927 H 0.53932 0.3486 0.65777 0.0
H928 H 0.52871 0.34967 0.77936 0.0
H929 H 0.6168 0.40488 0.80051 0.0
H930 H 0.60349 0.41854 0.7797 0.0
H931 H 0.60505 0.39791 0.75406 0.0
C932 C 0.56305 0.39926 0.68295 0.0
C933 C 0.55285 0.38177 0.66007 0.0
C934 C 0.5667 0.3972 0.72095 0.0
C935 C 0.56103 0.37769 0.73634 0.0
C936 C 0.55189 0.36032 0.71268 0.0
H937 H 0.58883 0.38581 0.97779 0.0
H938 H 0.58988 0.37786 0.91119 0.0
C939 C 0.5475 0.36231 0.675 0.0
C940 C 0.56199 0.37518 0.77766 0.0
H941 H 0.59267 0.39873 0.85534 0.0
C942 C 0.54298 0.36011 0.79584 0.0
C943 C 0.58068 0.38831 0.79956 0.0
C944 C 0.6027 0.40311 0.78226 0.0
C945 C 0.54164 0.35863 0.83512 0.0
C946 C 0.55929 0.3734 0.85699 0.0
C947 C 0.57884 0.38764 0.83884 0.0
C948 C 0.55738 0.3753 0.89829 0.0
C949 C 0.52129 0.34119 0.85244 0.0
C950 C 0.53864 0.37614 0.91359 0.0
C951 C 0.53769 0.37984 0.95186 0.0
C952 C 0.55586 0.38365 0.97521 0.0
C953 C 0.57458 0.38279 0.96019 0.0
C954 C 0.5752 0.37835 0.92216 0.0
H955 H 0.51484 0.32728 0.83424 0.0
H956 H 0.52489 0.33699 0.88065 0.0
H957 H 0.50786 0.3458 0.85498 0.0
H958 H 0.52507 0.37476 0.89577 0.0
H959 H 0.5233 0.38089 0.96277 0.0
H960 H 0.17835 0.65794 0.00318 0.0
H961 H 0.18403 0.66409 0.07076 0.0
H962 H 0.20595 0.61754 0.07892 0.0
H963 H 0.20048 0.6113 0.01144 0.0
H964 H 0.15904 0.63031 0.12019 0.0
H965 H 0.25019 0.66513 0.14751 0.0
H966 H 0.23885 0.66669 0.10234 0.0
H967 H 0.23891 0.6432 0.11656 0.0
C968 C 0.18492 0.64936 0.01912 0.0
C969 C 0.18871 0.63396 0.00198 0.0
C970 C 0.18816 0.65292 0.05772 0.0
C971 C 0.19552 0.64135 0.07965 0.0
C972 C 0.20059 0.62684 0.06233 0.0
H973 H 0.17698 0.61034 0.31616 0.0
H974 H 0.18812 0.61272 0.24998 0.0
C975 C 0.19725 0.62318 0.0238 0.0
C976 C 0.19471 0.64224 0.12101 0.0
H977 H 0.22623 0.65346 0.20081 0.0
C978 C 0.17374 0.63549 0.1378 0.0
C979 C 0.21392 0.6488 0.14374 0.0
C980 C 0.23681 0.65652 0.12675 0.0
C981 C 0.17143 0.63501 0.17688 0.0
C982 C 0.1906 0.64162 0.19963 0.0
C983 C 0.21162 0.64835 0.18303 0.0
C984 C 0.18871 0.64215 0.24076 0.0
C985 C 0.14849 0.62737 0.19378 0.0
C986 C 0.1861 0.65824 0.25733 0.0
C987 C 0.17961 0.65688 0.29479 0.0
C988 C 0.17565 0.63939 0.31629 0.0
C989 C 0.17989 0.62398 0.30031 0.0
C990 C 0.18629 0.62532 0.26262 0.0
H991 H 0.13509 0.62089 0.17227 0.0
H992 H 0.14552 0.61533 0.21515 0.0
H993 H 0.14735 0.64031 0.20819 0.0
H994 H 0.18787 0.6713 0.24069 0.0
H995 H 0.17677 0.66915 0.30643 0.0
H996 H 0.54147 0.17486 0.62939 0.0
H997 H 0.55091 0.18115 0.56272 0.0
H998 H 0.61952 0.19816 0.58795 0.0
H999 H 0.61041 0.19194 0.65471 0.0
H1000 H 0.59914 0.22203 0.52319 0.0
H1001 H 0.58016 0.13933 0.51638 0.0
H1002 H 0.5643 0.14741 0.54677 0.0
H1003 H 0.59278 0.15455 0.55778 0.0
C1004 C 0.55869 0.18038 0.621 0.0
C1005 C 0.57512 0.18261 0.64746 0.0
C1006 C 0.56402 0.18402 0.58288 0.0
C1007 C 0.58585 0.19005 0.57068 0.0
C1008 C 0.60258 0.19358 0.59707 0.0
H1009 H 0.63299 0.17481 0.35326 0.0
H1010 H 0.6303 0.18168 0.41966 0.0
C1011 C 0.5973 0.18993 0.63518 0.0
C1012 C 0.59058 0.19004 0.53026 0.0
H1013 H 0.59095 0.15832 0.46043 0.0
C1014 C 0.5974 0.20817 0.50931 0.0
C1015 C 0.58835 0.17191 0.51263 0.0
C1016 C 0.58101 0.15211 0.53431 0.0
C1017 C 0.60204 0.20857 0.47071 0.0
C1018 C 0.59955 0.19032 0.45297 0.0
C1019 C 0.5929 0.17229 0.47418 0.0
C1020 C 0.60322 0.18924 0.41223 0.0
C1021 C 0.60981 0.22848 0.44931 0.0
C1022 C 0.58907 0.19153 0.386 0.0
C1023 C 0.59047 0.18754 0.34794 0.0
C1024 C 0.60599 0.18106 0.3355 0.0
C1025 C 0.62076 0.17966 0.36176 0.0
C1026 C 0.61931 0.18362 0.39977 0.0
H1027 H 0.61598 0.242 0.46843 0.0
H1028 H 0.62329 0.23058 0.42927 0.0
H1029 H 0.59566 0.22804 0.43291 0.0
H1030 H 0.57628 0.19551 0.39516 0.0
H1031 H 0.57884 0.1888 0.32856 0.0
loop_
_geom_bond_atom_site_label_1
_geom_bond_atom_site_label_2
_geom_bond_distance
_geom_bond_site_symmetry_2
_ccdc_geom_bond_type
Co0 O1 2.216 . S
Co0 O2 2.091 . S
Co0 O4 2.004 . S
Co0 O10 2.021 . S
Co0 O12 2.137 . S
Co0 O13 2.244 . S
O1 Co0 2.216 . S
O1 C8 1.247 . S
O2 Co0 2.091 . S
O2 C8 1.261 . S
C3 O12 1.247 . S
C3 O13 1.272 . S
O4 Co0 2.004 . S
O4 C9 1.259 . S
Co5 O6 2.061 . S
Co5 O11 2.052 . S
Co5 O13 2.135 . S
O6 Co5 2.061 . S
O6 C9 1.235 . S
C7 O10 1.238 1_556 S
C7 O11 1.241 1_556 S
C8 O1 1.247 . S
C8 O2 1.261 . S
C9 O4 1.259 . S
C9 O6 1.235 . S
O10 Co0 2.021 . S
O10 C7 1.238 1_554 S
O11 Co5 2.052 . S
O11 C7 1.241 1_554 S
O12 Co0 2.137 . S
O12 C3 1.247 . S
O13 Co0 2.244 . S
O13 C3 1.272 . S
O13 Co5 2.135 . S
Co14 O15 2.216 . S
Co14 O16 2.091 . S
Co14 O18 2.004 . S
Co14 O24 2.021 . S
Co14 O26 2.137 . S
Co14 O27 2.244 . S
O15 Co14 2.216 . S
O15 C22 1.247 . S
O16 Co14 2.091 . S
O16 C22 1.261 . S
C17 O26 1.247 . S
C17 O27 1.272 . S
O18 Co14 2.004 . S
O18 C23 1.259 . S
Co19 O20 2.061 . S
Co19 O25 2.052 . S
Co19 O27 2.135 . S
O20 Co19 2.061 . S
O20 C23 1.235 . S
C21 O24 1.238 . S
C21 O25 1.241 . S
C22 O15 1.247 . S
C22 O16 1.261 . S
C23 O18 1.259 . S
C23 O20 1.235 . S
O24 Co14 2.021 . S
O24 C21 1.238 . S
O25 Co19 2.052 . S
O25 C21 1.241 . S
O26 Co14 2.137 . S
O26 C17 1.247 . S
O27 Co14 2.244 . S
O27 C17 1.272 . S
O27 Co19 2.135 . S
Co28 O29 2.216 . S
Co28 O30 2.091 . S
Co28 O32 2.004 . S
Co28 O38 2.021 . S
Co28 O40 2.137 . S
Co28 O41 2.244 . S
O29 Co28 2.216 . S
O29 C36 1.247 . S
O30 Co28 2.091 . S
O30 C36 1.261 . S
C31 O40 1.247 . S
C31 O41 1.272 . S
O32 Co28 2.004 . S
O32 C37 1.259 . S
Co33 O34 2.061 . S
Co33 O39 2.052 . S
Co33 O41 2.135 . S
O34 Co33 2.061 . S
O34 C37 1.235 . S
C35 O38 1.238 . S
C35 O39 1.241 . S
C36 O29 1.247 . S
C36 O30 1.261 . S
C37 O32 1.259 . S
C37 O34 1.235 . S
O38 Co28 2.021 . S
O38 C35 1.238 . S
O39 Co33 2.052 . S
O39 C35 1.241 . S
O40 Co28 2.137 . S
O40 C31 1.247 . S
O41 Co28 2.244 . S
O41 C31 1.272 . S
O41 Co33 2.135 . S
Co42 O43 2.216 . S
Co42 O44 2.091 . S
Co42 O46 2.004 . S
Co42 O52 2.021 . S
Co42 O54 2.137 . S
Co42 O55 2.244 . S
O43 Co42 2.216 . S
O43 C50 1.247 . S
O44 Co42 2.091 . S
O44 C50 1.261 . S
C45 O54 1.247 . S
C45 O55 1.272 . S
O46 Co42 2.004 . S
O46 C51 1.259 . S
Co47 O48 2.061 . S
Co47 O53 2.052 . S
Co47 O55 2.135 . S
O48 Co47 2.061 . S
O48 C51 1.235 . S
C49 O52 1.238 1_556 S
C49 O53 1.241 1_556 S
C50 O43 1.247 . S
C50 O44 1.261 . S
C51 O46 1.259 . S
C51 O48 1.235 . S
O52 Co42 2.021 . S
O52 C49 1.238 1_554 S
O53 Co47 2.052 . S
O53 C49 1.241 1_554 S
O54 Co42 2.137 . S
O54 C45 1.247 . S
O55 Co42 2.244 . S
O55 C45 1.272 . S
O55 Co47 2.135 . S
Co56 O57 2.216 . S
Co56 O58 2.091 . S
Co56 O60 2.004 . S
Co56 O66 2.021 . S
Co56 O68 2.137 . S
Co56 O69 2.244 . S
O57 Co56 2.216 . S
O57 C64 1.247 . S
O58 Co56 2.091 . S
O58 C64 1.261 . S
C59 O68 1.247 . S
C59 O69 1.272 . S
O60 Co56 2.004 . S
O60 C65 1.259 . S
Co61 O62 2.061 . S
Co61 O67 2.052 . S
Co61 O69 2.135 . S
O62 Co61 2.061 . S
O62 C65 1.235 . S
C63 O66 1.238 . S
C63 O67 1.241 . S
C64 O57 1.247 . S
C64 O58 1.261 . S
C65 O60 1.259 . S
C65 O62 1.235 . S
O66 Co56 2.021 . S
O66 C63 1.238 . S
O67 Co61 2.052 . S
O67 C63 1.241 . S
O68 Co56 2.137 . S
O68 C59 1.247 . S
O69 Co56 2.244 . S
O69 C59 1.272 . S
O69 Co61 2.135 . S
Co70 O71 2.216 . S
Co70 O72 2.091 . S
Co70 O74 2.004 . S
Co70 O80 2.021 . S
Co70 O82 2.137 . S
Co70 O83 2.244 . S
O71 Co70 2.216 . S
O71 C78 1.247 . S
O72 Co70 2.091 . S
O72 C78 1.261 . S
C73 O82 1.247 . S
C73 O83 1.272 . S
O74 Co70 2.004 . S
O74 C79 1.259 . S
Co75 O76 2.061 . S
Co75 O81 2.052 . S
Co75 O83 2.135 . S
O76 Co75 2.061 . S
O76 C79 1.235 . S
C77 O80 1.238 . S
C77 O81 1.241 . S
C78 O71 1.247 . S
C78 O72 1.261 . S
C79 O74 1.259 . S
C79 O76 1.235 . S
O80 Co70 2.021 . S
O80 C77 1.238 . S
O81 Co75 2.052 . S
O81 C77 1.241 . S
O82 Co70 2.137 . S
O82 C73 1.247 . S
O83 Co70 2.244 . S
O83 C73 1.272 . S
O83 Co75 2.135 . S
Co84 O85 2.216 . S
Co84 O86 2.091 . S
Co84 O88 2.004 . S
Co84 O94 2.021 . S
Co84 O96 2.137 . S
Co84 O97 2.244 . S
O85 Co84 2.216 . S
O85 C92 1.247 . S
O86 Co84 2.091 . S
O86 C92 1.261 . S
C87 O96 1.247 . S
C87 O97 1.272 . S
O88 Co84 2.004 . S
O88 C93 1.259 . S
Co89 O90 2.061 . S
Co89 O95 2.052 . S
Co89 O97 2.135 . S
O90 Co89 2.061 . S
O90 C93 1.235 . S
C91 O94 1.238 . S
C91 O95 1.241 . S
C92 O85 1.247 . S
C92 O86 1.261 . S
C93 O88 1.259 . S
C93 O90 1.235 . S
O94 Co84 2.021 . S
O94 C91 1.238 . S
O95 Co89 2.052 . S
O95 C91 1.241 . S
O96 Co84 2.137 . S
O96 C87 1.247 . S
O97 Co84 2.244 . S
O97 C87 1.272 . S
O97 Co89 2.135 . S
Co98 O99 2.216 . S
Co98 O100 2.091 . S
Co98 O102 2.004 . S
Co98 O108 2.021 . S
Co98 O110 2.137 . S
Co98 O111 2.244 . S
O99 Co98 2.216 . S
O99 C106 1.247 . S
O100 Co98 2.091 . S
O100 C106 1.261 . S
C101 O110 1.247 . S
C101 O111 1.272 . S
O102 Co98 2.004 . S
O102 C107 1.259 . S
Co103 O104 2.061 . S
Co103 O109 2.052 . S
Co103 O111 2.135 . S
O104 Co103 2.061 . S
O104 C107 1.235 . S
C105 O108 1.238 1_554 S
C105 O109 1.241 1_554 S
C106 O99 1.247 . S
C106 O100 1.261 . S
C107 O102 1.259 . S
C107 O104 1.235 . S
O108 Co98 2.021 . S
O108 C105 1.238 1_556 S
O109 Co103 2.052 . S
O109 C105 1.241 1_556 S
O110 Co98 2.137 . S
O110 C101 1.247 . S
O111 Co98 2.244 . S
O111 C101 1.272 . S
O111 Co103 2.135 . S
Co112 O113 2.216 . S
Co112 O114 2.091 . S
Co112 O116 2.004 . S
Co112 O122 2.021 . S
Co112 O124 2.137 . S
Co112 O125 2.244 . S
O113 Co112 2.216 . S
O113 C120 1.247 . S
O114 Co112 2.091 . S
O114 C120 1.261 . S
C115 O124 1.247 . S
C115 O125 1.272 . S
O116 Co112 2.004 . S
O116 C121 1.259 . S
Co117 O118 2.061 . S
Co117 O123 2.052 . S
Co117 O125 2.135 . S
O118 Co117 2.061 . S
O118 C121 1.235 . S
C119 O122 1.238 . S
C119 O123 1.241 . S
C120 O113 1.247 . S
C120 O114 1.261 . S
C121 O116 1.259 . S
C121 O118 1.235 . S
O122 Co112 2.021 . S
O122 C119 1.238 . S
O123 Co117 2.052 . S
O123 C119 1.241 . S
O124 Co112 2.137 . S
O124 C115 1.247 . S
O125 Co112 2.244 . S
O125 C115 1.272 . S
O125 Co117 2.135 . S
Co126 O127 2.216 . S
Co126 O128 2.091 . S
Co126 O130 2.004 . S
Co126 O136 2.021 . S
Co126 O138 2.137 . S
Co126 O139 2.244 . S
O127 Co126 2.216 . S
O127 C134 1.247 . S
O128 Co126 2.091 . S
O128 C134 1.261 . S
C129 O138 1.247 . S
C129 O139 1.272 . S
O130 Co126 2.004 . S
O130 C135 1.259 . S
Co131 O132 2.061 . S
Co131 O137 2.052 . S
Co131 O139 2.135 . S
O132 Co131 2.061 . S
O132 C135 1.235 . S
C133 O136 1.238 . S
C133 O137 1.241 . S
C134 O127 1.247 . S
C134 O128 1.261 . S
C135 O130 1.259 . S
C135 O132 1.235 . S
O136 Co126 2.021 . S
O136 C133 1.238 . S
O137 Co131 2.052 . S
O137 C133 1.241 . S
O138 Co126 2.137 . S
O138 C129 1.247 . S
O139 Co126 2.244 . S
O139 C129 1.272 . S
O139 Co131 2.135 . S
Co140 O141 2.216 . S
Co140 O142 2.091 . S
Co140 O144 2.004 . S
Co140 O150 2.021 . S
Co140 O152 2.137 . S
Co140 O153 2.244 . S
O141 Co140 2.216 . S
O141 C148 1.247 . S
O142 Co140 2.091 . S
O142 C148 1.261 . S
C143 O152 1.247 . S
C143 O153 1.272 . S
O144 Co140 2.004 . S
O144 C149 1.259 . S
Co145 O146 2.061 . S
Co145 O151 2.052 . S
Co145 O153 2.135 . S
O146 Co145 2.061 . S
O146 C149 1.235 . S
C147 O150 1.238 1_554 S
C147 O151 1.241 1_554 S
C148 O141 1.247 . S
C148 O142 1.261 . S
C149 O144 1.259 . S
C149 O146 1.235 . S
O150 Co140 2.021 . S
O150 C147 1.238 1_556 S
O151 Co145 2.052 . S
O151 C147 1.241 1_556 S
O152 Co140 2.137 . S
O152 C143 1.247 . S
O153 Co140 2.244 . S
O153 C143 1.272 . S
O153 Co145 2.135 . S
Co154 O155 2.216 . S
Co154 O156 2.091 . S
Co154 O158 2.004 . S
Co154 O164 2.021 . S
Co154 O166 2.137 . S
Co154 O167 2.244 . S
O155 Co154 2.216 . S
O155 C162 1.247 . S
O156 Co154 2.091 . S
O156 C162 1.261 . S
C157 O166 1.247 . S
C157 O167 1.272 . S
O158 Co154 2.004 . S
O158 C163 1.259 . S
Co159 O160 2.061 . S
Co159 O165 2.052 . S
Co159 O167 2.135 . S
O160 Co159 2.061 . S
O160 C163 1.235 . S
C161 O164 1.238 . S
C161 O165 1.241 . S
C162 O155 1.247 . S
C162 O156 1.261 . S
C163 O158 1.259 . S
C163 O160 1.235 . S
O164 Co154 2.021 . S
O164 C161 1.238 . S
O165 Co159 2.052 . S
O165 C161 1.241 . S
O166 Co154 2.137 . S
O166 C157 1.247 . S
O167 Co154 2.244 . S
O167 C157 1.272 . S
O167 Co159 2.135 . S
H168 C176 0.929 . S
H169 C178 0.930 . S
H170 C180 0.930 . S
H171 C183 0.929 . S
H172 C186 0.930 . S
H173 C188 0.960 . S
H174 C188 0.960 . S
H175 C188 0.960 . S
C176 H168 0.929 . S
C176 C177 1.377 . S
C176 C178 1.384 . S
C177 C176 1.377 . S
C177 C183 1.390 . S
C178 H169 0.930 . S
C178 C176 1.384 . S
C178 C179 1.372 . S
C179 C178 1.372 . S
C179 C180 1.400 . S
C179 C184 1.490 . S
C180 H170 0.930 . S
C180 C179 1.400 . S
C180 C183 1.386 . S
H181 C197 0.930 . S
H182 C198 0.931 . S
C183 H171 0.929 . S
C183 C177 1.390 . S
C183 C180 1.386 . S
C184 C179 1.490 . S
C184 C186 1.395 . S
C184 C187 1.403 . S
H185 C191 0.930 . S
C186 H172 0.930 . S
C186 C184 1.395 . S
C186 C189 1.403 . S
C187 C184 1.403 . S
C187 C188 1.524 . S
C187 C191 1.400 . S
C188 H173 0.960 . S
C188 H174 0.960 . S
C188 H175 0.960 . S
C188 C187 1.524 . S
C189 C186 1.403 . S
C189 C190 1.392 . S
C189 C193 1.495 . S
C190 C189 1.392 . S
C190 C191 1.385 . S
C190 C192 1.478 . S
C191 H185 0.930 . S
C191 C187 1.400 . S
C191 C190 1.385 . S
C192 C190 1.478 . S
C192 C194 1.381 . S
C192 C198 1.383 . S
C193 C189 1.495 . S
C193 H199 0.959 . S
C193 H200 0.961 . S
C193 H201 0.960 . S
C194 C192 1.381 . S
C194 C195 1.394 . S
C194 H202 0.930 . S
C195 C194 1.394 . S
C195 C196 1.383 . S
C195 H203 0.929 . S
C196 C195 1.383 . S
C196 C197 1.377 . S
C197 H181 0.930 . S
C197 C196 1.377 . S
C197 C198 1.379 . S
C198 H182 0.931 . S
C198 C192 1.383 . S
C198 C197 1.379 . S
H199 C193 0.959 . S
H200 C193 0.961 . S
H201 C193 0.960 . S
H202 C194 0.930 . S
H203 C195 0.929 . S
H204 C212 0.929 . S
H205 C214 0.930 . S
H206 C216 0.930 . S
H207 C219 0.929 . S
H208 C222 0.930 . S
H209 C224 0.960 . S
H210 C224 0.960 . S
H211 C224 0.960 . S
C212 H204 0.929 . S
C212 C213 1.377 . S
C212 C214 1.384 . S
C213 C212 1.377 . S
C213 C219 1.390 . S
C214 H205 0.930 . S
C214 C212 1.384 . S
C214 C215 1.372 . S
C215 C214 1.372 . S
C215 C216 1.400 . S
C215 C220 1.490 . S
C216 H206 0.930 . S
C216 C215 1.400 . S
C216 C219 1.386 . S
H217 C233 0.930 . S
H218 C234 0.931 . S
C219 H207 0.929 . S
C219 C213 1.390 . S
C219 C216 1.386 . S
C220 C215 1.490 . S
C220 C222 1.395 . S
C220 C223 1.403 . S
H221 C227 0.930 . S
C222 H208 0.930 . S
C222 C220 1.395 . S
C222 C225 1.403 . S
C223 C220 1.403 . S
C223 C224 1.524 . S
C223 C227 1.400 . S
C224 H209 0.960 . S
C224 H210 0.960 . S
C224 H211 0.960 . S
C224 C223 1.524 . S
C225 C222 1.403 . S
C225 C226 1.392 . S
C225 C229 1.495 . S
C226 C225 1.392 . S
C226 C227 1.385 . S
C226 C228 1.478 . S
C227 H221 0.930 . S
C227 C223 1.400 . S
C227 C226 1.385 . S
C228 C226 1.478 . S
C228 C230 1.381 . S
C228 C234 1.383 . S
C229 C225 1.495 . S
C229 H235 0.959 . S
C229 H236 0.961 . S
C229 H237 0.960 . S
C230 C228 1.381 . S
C230 C231 1.394 . S
C230 H238 0.930 . S
C231 C230 1.394 . S
C231 C232 1.383 . S
C231 H239 0.929 . S
C232 C231 1.383 . S
C232 C233 1.377 . S
C233 H217 0.930 . S
C233 C232 1.377 . S
C233 C234 1.379 . S
C234 H218 0.931 . S
C234 C228 1.383 . S
C234 C233 1.379 . S
H235 C229 0.959 . S
H236 C229 0.961 . S
H237 C229 0.960 . S
H238 C230 0.930 . S
H239 C231 0.929 . S
H240 C248 0.929 . S
H241 C250 0.930 . S
H242 C252 0.930 . S
H243 C255 0.929 . S
H244 C258 0.930 . S
H245 C260 0.960 . S
H246 C260 0.960 . S
H247 C260 0.960 . S
C248 H240 0.929 . S
C248 C249 1.377 . S
C248 C250 1.384 . S
C249 C248 1.377 . S
C249 C255 1.390 . S
C250 H241 0.930 . S
C250 C248 1.384 . S
C250 C251 1.372 . S
C251 C250 1.372 . S
C251 C252 1.400 . S
C251 C256 1.490 . S
C252 H242 0.930 . S
C252 C251 1.400 . S
C252 C255 1.386 . S
H253 C269 0.930 . S
H254 C270 0.931 . S
C255 H243 0.929 . S
C255 C249 1.390 . S
C255 C252 1.386 . S
C256 C251 1.490 . S
C256 C258 1.395 . S
C256 C259 1.403 . S
H257 C263 0.930 . S
C258 H244 0.930 . S
C258 C256 1.395 . S
C258 C261 1.403 1_556 S
C259 C256 1.403 . S
C259 C260 1.524 . S
C259 C263 1.400 1_556 S
C260 H245 0.960 . S
C260 H246 0.960 . S
C260 H247 0.960 . S
C260 C259 1.524 . S
C261 C258 1.403 1_554 S
C261 C262 1.392 . S
C261 C265 1.495 . S
C262 C261 1.392 . S
C262 C263 1.385 . S
C262 C264 1.478 . S
C263 H257 0.930 . S
C263 C259 1.400 1_554 S
C263 C262 1.385 . S
C264 C262 1.478 . S
C264 C266 1.381 . S
C264 C270 1.383 . S
C265 C261 1.495 . S
C265 H271 0.959 . S
C265 H272 0.961 . S
C265 H273 0.960 . S
C266 C264 1.381 . S
C266 C267 1.394 . S
C266 H274 0.930 . S
C267 C266 1.394 . S
C267 C268 1.383 . S
C267 H275 0.929 . S
C268 C267 1.383 . S
C268 C269 1.377 . S
C269 H253 0.930 . S
C269 C268 1.377 . S
C269 C270 1.379 . S
C270 H254 0.931 . S
C270 C264 1.383 . S
C270 C269 1.379 . S
H271 C265 0.959 . S
H272 C265 0.961 . S
H273 C265 0.960 . S
H274 C266 0.930 . S
H275 C267 0.929 . S
H276 C284 0.929 . S
H277 C286 0.930 . S
H278 C288 0.930 . S
H279 C291 0.929 . S
H280 C294 0.930 . S
H281 C296 0.960 . S
H282 C296 0.960 . S
H283 C296 0.960 . S
C284 H276 0.929 . S
C284 C285 1.377 . S
C284 C286 1.384 . S
C285 C284 1.377 . S
C285 C291 1.390 . S
C286 H277 0.930 . S
C286 C284 1.384 . S
C286 C287 1.372 . S
C287 C286 1.372 . S
C287 C288 1.400 . S
C287 C292 1.490 . S
C288 H278 0.930 . S
C288 C287 1.400 . S
C288 C291 1.386 . S
H289 C305 0.930 . S
H290 C306 0.931 . S
C291 H279 0.929 . S
C291 C285 1.390 . S
C291 C288 1.386 . S
C292 C287 1.490 . S
C292 C294 1.395 . S
C292 C295 1.403 . S
H293 C299 0.930 . S
C294 H280 0.930 . S
C294 C292 1.395 . S
C294 C297 1.403 . S
C295 C292 1.403 . S
C295 C296 1.524 . S
C295 C299 1.400 . S
C296 H281 0.960 . S
C296 H282 0.960 . S
C296 H283 0.960 . S
C296 C295 1.524 . S
C297 C294 1.403 . S
C297 C298 1.392 . S
C297 C301 1.495 . S
C298 C297 1.392 . S
C298 C299 1.385 . S
C298 C300 1.478 . S
C299 H293 0.930 . S
C299 C295 1.400 . S
C299 C298 1.385 . S
C300 C298 1.478 . S
C300 C302 1.381 . S
C300 C306 1.383 . S
C301 C297 1.495 . S
C301 H307 0.959 . S
C301 H308 0.961 . S
C301 H309 0.960 . S
C302 C300 1.381 . S
C302 C303 1.394 . S
C302 H310 0.930 . S
C303 C302 1.394 . S
C303 C304 1.383 . S
C303 H311 0.929 . S
C304 C303 1.383 . S
C304 C305 1.377 . S
C305 H289 0.930 . S
C305 C304 1.377 . S
C305 C306 1.379 . S
C306 H290 0.931 . S
C306 C300 1.383 . S
C306 C305 1.379 . S
H307 C301 0.959 . S
H308 C301 0.961 . S
H309 C301 0.960 . S
H310 C302 0.930 . S
H311 C303 0.929 . S
H312 C320 0.929 . S
H313 C322 0.930 . S
H314 C324 0.930 . S
H315 C327 0.929 . S
H316 C330 0.930 . S
H317 C332 0.960 . S
H318 C332 0.960 . S
H319 C332 0.960 . S
C320 H312 0.929 . S
C320 C321 1.377 . S
C320 C322 1.384 . S
C321 C320 1.377 . S
C321 C327 1.390 . S
C322 H313 0.930 . S
C322 C320 1.384 . S
C322 C323 1.372 . S
C323 C322 1.372 . S
C323 C324 1.400 . S
C323 C328 1.490 . S
C324 H314 0.930 . S
C324 C323 1.400 . S
C324 C327 1.386 . S
H325 C341 0.930 . S
H326 C342 0.931 . S
C327 H315 0.929 . S
C327 C321 1.390 . S
C327 C324 1.386 . S
C328 C323 1.490 . S
C328 C330 1.395 . S
C328 C331 1.403 . S
H329 C335 0.930 . S
C330 H316 0.930 . S
C330 C328 1.395 . S
C330 C333 1.403 . S
C331 C328 1.403 . S
C331 C332 1.524 . S
C331 C335 1.400 . S
C332 H317 0.960 . S
C332 H318 0.960 . S
C332 H319 0.960 . S
C332 C331 1.524 . S
C333 C330 1.403 . S
C333 C334 1.392 . S
C333 C337 1.495 . S
C334 C333 1.392 . S
C334 C335 1.385 . S
C334 C336 1.478 . S
C335 H329 0.930 . S
C335 C331 1.400 . S
C335 C334 1.385 . S
C336 C334 1.478 . S
C336 C338 1.381 . S
C336 C342 1.383 . S
C337 C333 1.495 . S
C337 H343 0.959 . S
C337 H344 0.961 . S
C337 H345 0.960 . S
C338 C336 1.381 . S
C338 C339 1.394 . S
C338 H346 0.930 . S
C339 C338 1.394 . S
C339 C340 1.383 . S
C339 H347 0.929 . S
C340 C339 1.383 . S
C340 C341 1.377 . S
C341 H325 0.930 . S
C341 C340 1.377 . S
C341 C342 1.379 . S
C342 H326 0.931 . S
C342 C336 1.383 . S
C342 C341 1.379 . S
H343 C337 0.959 . S
H344 C337 0.961 . S
H345 C337 0.960 . S
H346 C338 0.930 . S
H347 C339 0.929 . S
H348 C356 0.929 . S
H349 C358 0.930 . S
H350 C360 0.930 . S
H351 C363 0.929 . S
H352 C366 0.930 . S
H353 C368 0.960 . S
H354 C368 0.960 . S
H355 C368 0.960 . S
C356 H348 0.929 . S
C356 C357 1.377 . S
C356 C358 1.384 . S
C357 C356 1.377 . S
C357 C363 1.390 . S
C358 H349 0.930 . S
C358 C356 1.384 . S
C358 C359 1.372 . S
C359 C358 1.372 . S
C359 C360 1.400 . S
C359 C364 1.490 . S
C360 H350 0.930 . S
C360 C359 1.400 . S
C360 C363 1.386 . S
H361 C377 0.930 . S
H362 C378 0.931 . S
C363 H351 0.929 . S
C363 C357 1.390 . S
C363 C360 1.386 . S
C364 C359 1.490 . S
C364 C366 1.395 . S
C364 C367 1.403 . S
H365 C371 0.930 . S
C366 H352 0.930 . S
C366 C364 1.395 . S
C366 C369 1.403 1_554 S
C367 C364 1.403 . S
C367 C368 1.524 . S
C367 C371 1.400 1_554 S
C368 H353 0.960 . S
C368 H354 0.960 . S
C368 H355 0.960 . S
C368 C367 1.524 . S
C369 C366 1.403 1_556 S
C369 C370 1.392 . S
C369 C373 1.495 . S
C370 C369 1.392 . S
C370 C371 1.385 . S
C370 C372 1.478 . S
C371 H365 0.930 . S
C371 C367 1.400 1_556 S
C371 C370 1.385 . S
C372 C370 1.478 . S
C372 C374 1.381 . S
C372 C378 1.383 . S
C373 C369 1.495 . S
C373 H379 0.959 . S
C373 H380 0.961 . S
C373 H381 0.960 . S
C374 C372 1.381 . S
C374 C375 1.394 . S
C374 H382 0.930 . S
C375 C374 1.394 . S
C375 C376 1.383 . S
C375 H383 0.929 . S
C376 C375 1.383 . S
C376 C377 1.377 . S
C377 H361 0.930 . S
C377 C376 1.377 . S
C377 C378 1.379 . S
C378 H362 0.931 . S
C378 C372 1.383 . S
C378 C377 1.379 . S
H379 C373 0.959 . S
H380 C373 0.961 . S
H381 C373 0.960 . S
H382 C374 0.930 . S
H383 C375 0.929 . S
H384 C392 0.929 . S
H385 C394 0.930 . S
H386 C396 0.913 1_556 S
H387 C399 0.929 1_556 S
H388 C402 0.930 . S
H389 C404 0.960 . S
H390 C404 0.960 . S
H391 C404 0.960 1_556 S
C392 H384 0.929 . S
C392 C393 1.377 . S
C392 C394 1.384 . S
C393 C392 1.377 . S
C393 C399 1.390 . S
C394 H385 0.930 . S
C394 C392 1.384 . S
C394 C395 1.372 . S
C395 C394 1.372 . S
C395 C396 1.412 . S
C395 C400 1.490 . S
C396 H386 0.913 1_554 S
C396 C395 1.412 . S
C396 C399 1.391 . S
H397 C413 0.930 . S
H398 C414 0.931 . S
C399 H387 0.929 1_554 S
C399 C393 1.390 . S
C399 C396 1.391 . S
C400 C395 1.490 . S
C400 C402 1.395 . S
C400 C403 1.403 . S
H401 C407 0.930 . S
C402 H388 0.930 . S
C402 C400 1.395 . S
C402 C405 1.403 1_554 S
C403 C400 1.403 . S
C403 C404 1.524 . S
C403 C407 1.400 1_554 S
C404 H389 0.960 . S
C404 H390 0.960 . S
C404 H391 0.960 1_554 S
C404 C403 1.524 . S
C405 C402 1.403 1_556 S
C405 C406 1.392 . S
C405 C409 1.495 . S
C406 C405 1.392 . S
C406 C407 1.385 . S
C406 C408 1.478 . S
C407 H401 0.930 . S
C407 C403 1.400 1_556 S
C407 C406 1.385 . S
C408 C406 1.478 . S
C408 C410 1.381 1_556 S
C408 C414 1.383 . S
C409 C405 1.495 . S
C409 H415 0.959 . S
C409 H416 0.961 . S
C409 H417 0.960 1_556 S
C410 C408 1.381 1_554 S
C410 C411 1.394 1_554 S
C410 H418 0.930 . S
C411 C410 1.394 1_556 S
C411 C412 1.383 . S
C411 H419 0.929 1_556 S
C412 C411 1.383 . S
C412 C413 1.377 . S
C413 H397 0.930 . S
C413 C412 1.377 . S
C413 C414 1.379 . S
C414 H398 0.931 . S
C414 C408 1.383 . S
C414 C413 1.379 . S
H415 C409 0.959 . S
H416 C409 0.961 . S
H417 C409 0.960 1_554 S
H418 C410 0.930 . S
H419 C411 0.929 1_554 S
H420 C428 0.929 . S
H421 C430 0.930 . S
H422 C432 0.930 . S
H423 C435 0.929 . S
H424 C438 0.930 . S
H425 C440 0.960 . S
H426 C440 0.960 . S
H427 C440 0.960 . S
C428 H420 0.929 . S
C428 C429 1.377 . S
C428 C430 1.384 . S
C429 C428 1.377 . S
C429 C435 1.390 . S
C430 H421 0.930 . S
C430 C428 1.384 . S
C430 C431 1.372 . S
C431 C430 1.372 . S
C431 C432 1.400 . S
C431 C436 1.490 . S
C432 H422 0.930 . S
C432 C431 1.400 . S
C432 C435 1.386 . S
H433 C449 0.930 . S
H434 C450 0.931 . S
C435 H423 0.929 . S
C435 C429 1.390 . S
C435 C432 1.386 . S
C436 C431 1.490 . S
C436 C438 1.395 . S
C436 C439 1.403 . S
H437 C443 0.930 . S
C438 H424 0.930 . S
C438 C436 1.395 . S
C438 C441 1.403 . S
C439 C436 1.403 . S
C439 C440 1.524 . S
C439 C443 1.400 . S
C440 H425 0.960 . S
C440 H426 0.960 . S
C440 H427 0.960 . S
C440 C439 1.524 . S
C441 C438 1.403 . S
C441 C442 1.392 . S
C441 C445 1.495 . S
C442 C441 1.392 . S
C442 C443 1.385 . S
C442 C444 1.478 . S
C443 H437 0.930 . S
C443 C439 1.400 . S
C443 C442 1.385 . S
C444 C442 1.478 . S
C444 C446 1.381 . S
C444 C450 1.383 . S
C445 C441 1.495 . S
C445 H451 0.959 . S
C445 H452 0.961 . S
C445 H453 0.960 . S
C446 C444 1.381 . S
C446 C447 1.394 . S
C446 H454 0.930 . S
C447 C446 1.394 . S
C447 C448 1.383 . S
C447 H455 0.929 . S
C448 C447 1.383 . S
C448 C449 1.377 . S
C449 H433 0.930 . S
C449 C448 1.377 . S
C449 C450 1.379 . S
C450 H434 0.931 . S
C450 C444 1.383 . S
C450 C449 1.379 . S
H451 C445 0.959 . S
H452 C445 0.961 . S
H453 C445 0.960 . S
H454 C446 0.930 . S
H455 C447 0.929 . S
H456 C464 0.929 . S
H457 C466 0.930 . S
H458 C468 0.930 . S
H459 C471 0.929 . S
H460 C474 0.930 . S
H461 C476 0.960 . S
H462 C476 0.960 . S
H463 C476 0.960 . S
C464 H456 0.929 . S
C464 C465 1.377 . S
C464 C466 1.384 . S
C465 C464 1.377 . S
C465 C471 1.390 . S
C466 H457 0.930 . S
C466 C464 1.384 . S
C466 C467 1.372 . S
C467 C466 1.372 . S
C467 C468 1.400 . S
C467 C472 1.490 . S
C468 H458 0.930 . S
C468 C467 1.400 . S
C468 C471 1.386 . S
H469 C485 0.930 . S
H470 C486 0.931 . S
C471 H459 0.929 . S
C471 C465 1.390 . S
C471 C468 1.386 . S
C472 C467 1.490 . S
C472 C474 1.395 . S
C472 C475 1.403 . S
H473 C479 0.930 . S
C474 H460 0.930 . S
C474 C472 1.395 . S
C474 C477 1.403 . S
C475 C472 1.403 . S
C475 C476 1.524 . S
C475 C479 1.400 . S
C476 H461 0.960 . S
C476 H462 0.960 . S
C476 H463 0.960 . S
C476 C475 1.524 . S
C477 C474 1.403 . S
C477 C478 1.392 . S
C477 C481 1.495 . S
C478 C477 1.392 . S
C478 C479 1.385 . S
C478 C480 1.478 . S
C479 H473 0.930 . S
C479 C475 1.400 . S
C479 C478 1.385 . S
C480 C478 1.478 . S
C480 C482 1.381 . S
C480 C486 1.383 . S
C481 C477 1.495 . S
C481 H487 0.959 . S
C481 H488 0.961 . S
C481 H489 0.960 . S
C482 C480 1.381 . S
C482 C483 1.394 . S
C482 H490 0.930 . S
C483 C482 1.394 . S
C483 C484 1.383 . S
C483 H491 0.929 . S
C484 C483 1.383 . S
C484 C485 1.377 . S
C485 H469 0.930 . S
C485 C484 1.377 . S
C485 C486 1.379 . S
C486 H470 0.931 . S
C486 C480 1.383 . S
C486 C485 1.379 . S
H487 C481 0.959 . S
H488 C481 0.961 . S
H489 C481 0.960 . S
H490 C482 0.930 . S
H491 C483 0.929 . S
H492 C500 0.929 . S
H493 C502 0.930 . S
H494 C504 0.930 . S
H495 C507 0.929 . S
H496 C510 0.930 . S
H497 C512 0.960 . S
H498 C512 0.960 . S
H499 C512 0.960 . S
C500 H492 0.929 . S
C500 C501 1.377 . S
C500 C502 1.384 . S
C501 C500 1.377 . S
C501 C507 1.390 . S
C502 H493 0.930 . S
C502 C500 1.384 . S
C502 C503 1.372 . S
C503 C502 1.372 . S
C503 C504 1.400 . S
C503 C508 1.490 . S
C504 H494 0.930 . S
C504 C503 1.400 . S
C504 C507 1.386 . S
H505 C521 0.930 . S
H506 C522 0.931 . S
C507 H495 0.929 . S
C507 C501 1.390 . S
C507 C504 1.386 . S
C508 C503 1.490 . S
C508 C510 1.395 . S
C508 C511 1.403 1_554 S
H509 C515 0.930 . S
C510 H496 0.930 . S
C510 C508 1.395 . S
C510 C513 1.403 . S
C511 C508 1.403 1_556 S
C511 C512 1.524 . S
C511 C515 1.400 . S
C512 H497 0.960 . S
C512 H498 0.960 . S
C512 H499 0.960 . S
C512 C511 1.524 . S
C513 C510 1.403 . S
C513 C514 1.392 1_554 S
C513 C517 1.495 . S
C514 C513 1.392 1_556 S
C514 C515 1.385 . S
C514 C516 1.478 . S
C515 H509 0.930 . S
C515 C511 1.400 . S
C515 C514 1.385 . S
C516 C514 1.478 . S
C516 C518 1.381 . S
C516 C522 1.383 . S
C517 C513 1.495 . S
C517 H523 0.959 . S
C517 H524 0.961 . S
C517 H525 0.960 . S
C518 C516 1.381 . S
C518 C519 1.394 . S
C518 H526 0.930 . S
C519 C518 1.394 . S
C519 C520 1.383 . S
C519 H527 0.929 . S
C520 C519 1.383 . S
C520 C521 1.377 . S
C521 H505 0.930 . S
C521 C520 1.377 . S
C521 C522 1.379 . S
C522 H506 0.931 . S
C522 C516 1.383 . S
C522 C521 1.379 . S
H523 C517 0.959 . S
H524 C517 0.961 . S
H525 C517 0.960 . S
H526 C518 0.930 . S
H527 C519 0.929 . S
H528 C536 0.929 . S
H529 C538 0.930 . S
H530 C540 0.930 . S
H531 C543 0.929 . S
H532 C546 0.930 . S
H533 C548 0.960 . S
H534 C548 0.960 . S
H535 C548 0.960 . S
C536 H528 0.929 . S
C536 C537 1.377 . S
C536 C538 1.384 . S
C537 C536 1.377 . S
C537 C543 1.390 . S
C538 H529 0.930 . S
C538 C536 1.384 . S
C538 C539 1.372 . S
C539 C538 1.372 . S
C539 C540 1.400 . S
C539 C544 1.490 . S
C540 H530 0.930 . S
C540 C539 1.400 . S
C540 C543 1.386 . S
H541 C557 0.930 . S
H542 C558 0.931 . S
C543 H531 0.929 . S
C543 C537 1.390 . S
C543 C540 1.386 . S
C544 C539 1.490 . S
C544 C546 1.395 . S
C544 C547 1.403 . S
H545 C551 0.930 . S
C546 H532 0.930 . S
C546 C544 1.395 . S
C546 C549 1.403 . S
C547 C544 1.403 . S
C547 C548 1.524 . S
C547 C551 1.400 . S
C548 H533 0.960 . S
C548 H534 0.960 . S
C548 H535 0.960 . S
C548 C547 1.524 . S
C549 C546 1.403 . S
C549 C550 1.392 . S
C549 C553 1.495 . S
C550 C549 1.392 . S
C550 C551 1.385 . S
C550 C552 1.478 . S
C551 H545 0.930 . S
C551 C547 1.400 . S
C551 C550 1.385 . S
C552 C550 1.478 . S
C552 C554 1.381 . S
C552 C558 1.383 . S
C553 C549 1.495 . S
C553 H559 0.959 . S
C553 H560 0.961 . S
C553 H561 0.960 . S
C554 C552 1.381 . S
C554 C555 1.394 . S
C554 H562 0.930 . S
C555 C554 1.394 . S
C555 C556 1.383 . S
C555 H563 0.929 . S
C556 C555 1.383 . S
C556 C557 1.377 . S
C557 H541 0.930 . S
C557 C556 1.377 . S
C557 C558 1.379 . S
C558 H542 0.931 . S
C558 C552 1.383 . S
C558 C557 1.379 . S
H559 C553 0.959 . S
H560 C553 0.961 . S
H561 C553 0.960 . S
H562 C554 0.930 . S
H563 C555 0.929 . S
H564 C572 0.929 . S
H565 C574 0.930 . S
H566 C576 0.930 . S
H567 C579 0.929 . S
H568 C582 0.930 . S
H569 C584 0.960 . S
H570 C584 0.960 . S
H571 C584 0.960 . S
C572 H564 0.929 . S
C572 C573 1.377 . S
C572 C574 1.384 . S
C573 C572 1.377 . S
C573 C579 1.390 . S
C574 H565 0.930 . S
C574 C572 1.384 . S
C574 C575 1.372 . S
C575 C574 1.372 . S
C575 C576 1.400 . S
C575 C580 1.490 . S
C576 H566 0.930 . S
C576 C575 1.400 . S
C576 C579 1.386 . S
H577 C593 0.930 . S
H578 C594 0.931 . S
C579 H567 0.929 . S
C579 C573 1.390 . S
C579 C576 1.386 . S
C580 C575 1.490 . S
C580 C582 1.395 . S
C580 C583 1.403 . S
H581 C587 0.930 . S
C582 H568 0.930 . S
C582 C580 1.395 . S
C582 C585 1.403 . S
C583 C580 1.403 . S
C583 C584 1.524 . S
C583 C587 1.400 . S
C584 H569 0.960 . S
C584 H570 0.960 . S
C584 H571 0.960 . S
C584 C583 1.524 . S
C585 C582 1.403 . S
C585 C586 1.392 . S
C585 C589 1.495 . S
C586 C585 1.392 . S
C586 C587 1.385 . S
C586 C588 1.478 . S
C587 H581 0.930 . S
C587 C583 1.400 . S
C587 C586 1.385 . S
C588 C586 1.478 . S
C588 C590 1.381 . S
C588 C594 1.383 . S
C589 C585 1.495 . S
C589 H595 0.959 . S
C589 H596 0.961 . S
C589 H597 0.960 . S
C590 C588 1.381 . S
C590 C591 1.394 . S
C590 H598 0.930 . S
C591 C590 1.394 . S
C591 C592 1.383 . S
C591 H599 0.929 . S
C592 C591 1.383 . S
C592 C593 1.377 . S
C593 H577 0.930 . S
C593 C592 1.377 . S
C593 C594 1.379 . S
C594 H578 0.931 . S
C594 C588 1.383 . S
C594 C593 1.379 . S
H595 C589 0.959 . S
H596 C589 0.961 . S
H597 C589 0.960 . S
H598 C590 0.930 . S
H599 C591 0.929 . S
H600 C608 0.929 . S
H601 C610 0.930 . S
H602 C612 0.930 . S
H603 C615 0.929 . S
H604 C618 0.930 . S
H605 C620 0.960 . S
H606 C620 0.960 . S
H607 C620 0.960 . S
C608 H600 0.929 . S
C608 C609 1.377 . S
C608 C610 1.384 . S
C609 C608 1.377 . S
C609 C615 1.390 . S
C610 H601 0.930 . S
C610 C608 1.384 . S
C610 C611 1.372 . S
C611 C610 1.372 . S
C611 C612 1.400 . S
C611 C616 1.490 . S
C612 H602 0.930 . S
C612 C611 1.400 . S
C612 C615 1.386 . S
H613 C629 0.930 . S
H614 C630 0.931 . S
C615 H603 0.929 . S
C615 C609 1.390 . S
C615 C612 1.386 . S
C616 C611 1.490 . S
C616 C618 1.395 . S
C616 C619 1.403 . S
H617 C623 0.930 . S
C618 H604 0.930 . S
C618 C616 1.395 . S
C618 C621 1.403 . S
C619 C616 1.403 . S
C619 C620 1.524 . S
C619 C623 1.400 . S
C620 H605 0.960 . S
C620 H606 0.960 . S
C620 H607 0.960 . S
C620 C619 1.524 . S
C621 C618 1.403 . S
C621 C622 1.392 . S
C621 C625 1.495 . S
C622 C621 1.392 . S
C622 C623 1.385 . S
C622 C624 1.478 . S
C623 H617 0.930 . S
C623 C619 1.400 . S
C623 C622 1.385 . S
C624 C622 1.478 . S
C624 C626 1.381 . S
C624 C630 1.383 . S
C625 C621 1.495 . S
C625 H631 0.959 . S
C625 H632 0.961 . S
C625 H633 0.960 . S
C626 C624 1.381 . S
C626 C627 1.394 . S
C626 H634 0.930 . S
C627 C626 1.394 . S
C627 C628 1.383 . S
C627 H635 0.929 . S
C628 C627 1.383 . S
C628 C629 1.377 . S
C629 H613 0.930 . S
C629 C628 1.377 . S
C629 C630 1.379 . S
C630 H614 0.931 . S
C630 C624 1.383 . S
C630 C629 1.379 . S
H631 C625 0.959 . S
H632 C625 0.961 . S
H633 C625 0.960 . S
H634 C626 0.930 . S
H635 C627 0.929 . S
H636 C644 0.929 . S
H637 C646 0.930 . S
H638 C648 0.930 . S
H639 C651 0.929 . S
H640 C654 0.930 . S
H641 C656 0.960 1_455 S
H642 C656 0.960 1_455 S
H643 C656 0.960 . S
C644 H636 0.929 . S
C644 C645 1.377 . S
C644 C646 1.384 . S
C645 C644 1.377 . S
C645 C651 1.390 . S
C646 H637 0.930 . S
C646 C644 1.384 . S
C646 C647 1.372 . S
C647 C646 1.372 . S
C647 C648 1.400 . S
C647 C652 1.490 . S
C648 H638 0.930 . S
C648 C647 1.400 . S
C648 C651 1.386 . S
H649 C665 0.930 . S
H650 C666 0.931 . S
C651 H639 0.929 . S
C651 C645 1.390 . S
C651 C648 1.386 . S
C652 C647 1.490 . S
C652 C654 1.395 . S
C652 C655 1.403 . S
H653 C659 0.930 . S
C654 H640 0.930 . S
C654 C652 1.395 . S
C654 C657 1.403 1_655 S
C655 C652 1.403 . S
C655 C656 1.524 . S
C655 C659 1.400 1_655 S
C656 H641 0.960 1_655 S
C656 H642 0.960 1_655 S
C656 H643 0.960 . S
C656 C655 1.524 . S
C657 C654 1.403 1_455 S
C657 C658 1.392 . S
C657 C661 1.495 . S
C658 C657 1.392 . S
C658 C659 1.385 . S
C658 C660 1.478 . S
C659 H653 0.930 . S
C659 C655 1.400 1_455 S
C659 C658 1.385 . S
C660 C658 1.478 . S
C660 C662 1.381 . S
C660 C666 1.383 . S
C661 C657 1.495 . S
C661 H667 0.959 1_455 S
C661 H668 0.963 1_455 S
C661 H669 0.960 . S
C662 C660 1.381 . S
C662 C663 1.394 . S
C662 H670 0.930 . S
C663 C662 1.394 . S
C663 C664 1.383 . S
C663 H671 0.929 . S
C664 C663 1.383 . S
C664 C665 1.377 . S
C665 H649 0.930 . S
C665 C664 1.377 . S
C665 C666 1.379 . S
C666 H650 0.931 . S
C666 C660 1.383 . S
C666 C665 1.379 . S
H667 C661 0.959 1_655 S
H668 C661 0.963 1_655 S
H669 C661 0.960 . S
H670 C662 0.930 . S
H671 C663 0.929 . S
H672 C680 0.929 . S
H673 C682 0.930 . S
H674 C684 0.930 . S
H675 C687 0.929 . S
H676 C690 0.930 . S
H677 C692 0.960 1_565 S
H678 C692 0.960 . S
H679 C692 0.960 . S
C680 H672 0.929 . S
C680 C681 1.377 . S
C680 C682 1.384 . S
C681 C680 1.377 . S
C681 C687 1.390 . S
C682 H673 0.930 . S
C682 C680 1.384 . S
C682 C683 1.372 . S
C683 C682 1.372 . S
C683 C684 1.400 . S
C683 C688 1.490 . S
C684 H674 0.930 . S
C684 C683 1.400 . S
C684 C687 1.386 . S
H685 C701 0.930 . S
H686 C702 0.931 . S
C687 H675 0.929 . S
C687 C681 1.390 . S
C687 C684 1.386 . S
C688 C683 1.490 . S
C688 C690 1.395 . S
C688 C691 1.403 . S
H689 C695 0.930 . S
C690 H676 0.930 . S
C690 C688 1.395 . S
C690 C693 1.403 1_545 S
C691 C688 1.403 . S
C691 C692 1.524 . S
C691 C695 1.400 1_545 S
C692 H677 0.960 1_545 S
C692 H678 0.960 . S
C692 H679 0.960 . S
C692 C691 1.524 . S
C693 C690 1.403 1_565 S
C693 C694 1.392 . S
C693 C697 1.495 . S
C694 C693 1.392 . S
C694 C695 1.385 . S
C694 C696 1.478 . S
C695 H689 0.930 . S
C695 C691 1.400 1_565 S
C695 C694 1.385 . S
C696 C694 1.478 . S
C696 C698 1.381 . S
C696 C702 1.383 . S
C697 C693 1.495 . S
C697 H703 0.959 1_565 S
C697 H704 0.961 . S
C697 H705 0.960 . S
C698 C696 1.381 . S
C698 C699 1.394 . S
C698 H706 0.930 . S
C699 C698 1.394 . S
C699 C700 1.383 . S
C699 H707 0.929 . S
C700 C699 1.383 . S
C700 C701 1.377 . S
C701 H685 0.930 . S
C701 C700 1.377 . S
C701 C702 1.379 . S
C702 H686 0.931 . S
C702 C696 1.383 . S
C702 C701 1.379 . S
H703 C697 0.959 1_545 S
H704 C697 0.961 . S
H705 C697 0.960 . S
H706 C698 0.930 . S
H707 C699 0.929 . S
H708 C716 0.929 . S
H709 C718 0.930 . S
H710 C720 0.930 . S
H711 C723 0.929 . S
H712 C726 0.930 . S
H713 C728 0.960 . S
H714 C728 0.960 . S
H715 C728 0.960 . S
C716 H708 0.929 . S
C716 C717 1.377 . S
C716 C718 1.384 . S
C717 C716 1.377 . S
C717 C723 1.390 . S
C718 H709 0.930 . S
C718 C716 1.384 . S
C718 C719 1.372 . S
C719 C718 1.372 . S
C719 C720 1.400 . S
C719 C724 1.490 . S
C720 H710 0.930 . S
C720 C719 1.400 . S
C720 C723 1.386 . S
H721 C737 0.930 . S
H722 C738 0.931 . S
C723 H711 0.929 . S
C723 C717 1.390 . S
C723 C720 1.386 . S
C724 C719 1.490 . S
C724 C726 1.395 . S
C724 C727 1.403 . S
H725 C731 0.930 . S
C726 H712 0.930 . S
C726 C724 1.395 . S
C726 C729 1.403 . S
C727 C724 1.403 . S
C727 C728 1.524 . S
C727 C731 1.400 . S
C728 H713 0.960 . S
C728 H714 0.960 . S
C728 H715 0.960 . S
C728 C727 1.524 . S
C729 C726 1.403 . S
C729 C730 1.392 . S
C729 C733 1.495 . S
C730 C729 1.392 . S
C730 C731 1.385 . S
C730 C732 1.478 . S
C731 H725 0.930 . S
C731 C727 1.400 . S
C731 C730 1.385 . S
C732 C730 1.478 . S
C732 C734 1.381 . S
C732 C738 1.383 . S
C733 C729 1.495 . S
C733 H739 0.959 . S
C733 H740 0.961 . S
C733 H741 0.960 . S
C734 C732 1.381 . S
C734 C735 1.394 . S
C734 H742 0.930 . S
C735 C734 1.394 . S
C735 C736 1.383 . S
C735 H743 0.929 . S
C736 C735 1.383 . S
C736 C737 1.377 . S
C737 H721 0.930 . S
C737 C736 1.377 . S
C737 C738 1.379 . S
C738 H722 0.931 . S
C738 C732 1.383 . S
C738 C737 1.379 . S
H739 C733 0.959 . S
H740 C733 0.961 . S
H741 C733 0.960 . S
H742 C734 0.930 . S
H743 C735 0.929 . S
H744 C752 0.929 . S
H745 C754 0.930 . S
H746 C756 0.930 . S
H747 C759 0.929 . S
H748 C762 0.930 . S
H749 C764 0.960 . S
H750 C764 0.960 . S
H751 C764 0.960 . S
C752 H744 0.929 . S
C752 C753 1.377 . S
C752 C754 1.384 . S
C753 C752 1.377 . S
C753 C759 1.390 . S
C754 H745 0.930 . S
C754 C752 1.384 . S
C754 C755 1.372 . S
C755 C754 1.372 . S
C755 C756 1.400 . S
C755 C760 1.490 . S
C756 H746 0.930 . S
C756 C755 1.400 . S
C756 C759 1.386 . S
H757 C773 0.930 . S
H758 C774 0.931 . S
C759 H747 0.929 . S
C759 C753 1.390 . S
C759 C756 1.386 . S
C760 C755 1.490 . S
C760 C762 1.395 . S
C760 C763 1.403 . S
H761 C767 0.930 . S
C762 H748 0.930 . S
C762 C760 1.395 . S
C762 C765 1.403 1_455 S
C763 C760 1.403 . S
C763 C764 1.524 . S
C763 C767 1.400 1_455 S
C764 H749 0.960 . S
C764 H750 0.960 . S
C764 H751 0.960 . S
C764 C763 1.524 . S
C765 C762 1.403 1_655 S
C765 C766 1.392 . S
C765 C769 1.472 1_556 S
C766 C765 1.392 . S
C766 C767 1.385 . S
C766 C768 1.478 . S
C767 H761 0.930 . S
C767 C763 1.400 1_655 S
C767 C766 1.385 . S
C768 C766 1.478 . S
C768 C770 1.381 . S
C768 C774 1.383 . S
C769 C765 1.472 1_554 S
C769 H775 0.977 . S
C769 H776 0.979 . S
C769 H777 0.948 1_554 S
C770 C768 1.381 . S
C770 C771 1.394 . S
C770 H778 0.930 . S
C771 C770 1.394 . S
C771 C772 1.383 . S
C771 H779 0.929 . S
C772 C771 1.383 . S
C772 C773 1.377 . S
C773 H757 0.930 . S
C773 C772 1.377 . S
C773 C774 1.379 . S
C774 H758 0.931 . S
C774 C768 1.383 . S
C774 C773 1.379 . S
H775 C769 0.977 . S
H776 C769 0.979 . S
H777 C769 0.948 1_556 S
H778 C770 0.930 . S
H779 C771 0.929 . S
H780 C788 0.929 . S
H781 C790 0.930 . S
H782 C792 0.930 . S
H783 C795 0.929 . S
H784 C798 0.930 . S
H785 C800 0.960 . S
H786 C800 0.960 . S
H787 C800 0.960 . S
C788 H780 0.929 . S
C788 C789 1.377 . S
C788 C790 1.384 . S
C789 C788 1.377 . S
C789 C795 1.390 . S
C790 H781 0.930 . S
C790 C788 1.384 . S
C790 C791 1.372 . S
C791 C790 1.372 . S
C791 C792 1.400 . S
C791 C796 1.490 . S
C792 H782 0.930 . S
C792 C791 1.400 . S
C792 C795 1.386 . S
H793 C809 0.930 . S
H794 C810 0.931 . S
C795 H783 0.929 . S
C795 C789 1.390 . S
C795 C792 1.386 . S
C796 C791 1.490 . S
C796 C798 1.395 . S
C796 C799 1.403 . S
H797 C803 0.930 . S
C798 H784 0.930 . S
C798 C796 1.395 . S
C798 C801 1.403 1_565 S
C799 C796 1.403 . S
C799 C800 1.524 . S
C799 C803 1.400 1_565 S
C800 H785 0.960 . S
C800 H786 0.960 . S
C800 H787 0.960 . S
C800 C799 1.524 . S
C801 C798 1.403 1_545 S
C801 C802 1.392 . S
C801 C805 1.495 . S
C802 C801 1.392 . S
C802 C803 1.385 . S
C802 C804 1.478 . S
C803 H797 0.930 . S
C803 C799 1.400 1_545 S
C803 C802 1.385 . S
C804 C802 1.478 . S
C804 C806 1.381 . S
C804 C810 1.383 . S
C805 C801 1.495 . S
C805 H811 0.959 . S
C805 H812 0.961 . S
C805 H813 0.960 . S
C806 C804 1.381 . S
C806 C807 1.394 . S
C806 H814 0.930 . S
C807 C806 1.394 . S
C807 C808 1.383 . S
C807 H815 0.929 . S
C808 C807 1.383 . S
C808 C809 1.377 . S
C809 H793 0.930 . S
C809 C808 1.377 . S
C809 C810 1.379 . S
C810 H794 0.931 . S
C810 C804 1.383 . S
C810 C809 1.379 . S
H811 C805 0.959 . S
H812 C805 0.961 . S
H813 C805 0.960 . S
H814 C806 0.930 . S
H815 C807 0.929 . S
H816 C824 0.929 . S
H817 C826 0.930 . S
H818 C828 0.930 . S
H819 C831 0.929 . S
H820 C834 0.930 . S
H821 C836 0.960 . S
H822 C836 0.960 . S
H823 C836 0.960 . S
C824 H816 0.929 . S
C824 C825 1.377 . S
C824 C826 1.384 . S
C825 C824 1.377 . S
C825 C831 1.390 . S
C826 H817 0.930 . S
C826 C824 1.384 . S
C826 C827 1.372 . S
C827 C826 1.372 . S
C827 C828 1.400 . S
C827 C832 1.490 . S
C828 H818 0.930 . S
C828 C827 1.400 . S
C828 C831 1.386 . S
H829 C845 0.930 . S
H830 C846 0.931 . S
C831 H819 0.929 . S
C831 C825 1.390 . S
C831 C828 1.386 . S
C832 C827 1.490 . S
C832 C834 1.395 . S
C832 C835 1.403 . S
H833 C839 0.930 . S
C834 H820 0.930 . S
C834 C832 1.395 . S
C834 C837 1.403 . S
C835 C832 1.403 . S
C835 C836 1.524 . S
C835 C839 1.400 . S
C836 H821 0.960 . S
C836 H822 0.960 . S
C836 H823 0.960 . S
C836 C835 1.524 . S
C837 C834 1.403 . S
C837 C838 1.392 . S
C837 C841 1.495 . S
C838 C837 1.392 . S
C838 C839 1.385 . S
C838 C840 1.478 . S
C839 H833 0.930 . S
C839 C835 1.400 . S
C839 C838 1.385 . S
C840 C838 1.478 . S
C840 C842 1.381 . S
C840 C846 1.383 . S
C841 C837 1.495 . S
C841 H847 0.959 . S
C841 H848 0.961 . S
C841 H849 0.960 . S
C842 C840 1.381 . S
C842 C843 1.394 . S
C842 H850 0.930 . S
C843 C842 1.394 . S
C843 C844 1.383 . S
C843 H851 0.929 . S
C844 C843 1.383 . S
C844 C845 1.377 . S
C845 H829 0.930 . S
C845 C844 1.377 . S
C845 C846 1.379 . S
C846 H830 0.931 . S
C846 C840 1.383 . S
C846 C845 1.379 . S
H847 C841 0.959 . S
H848 C841 0.961 . S
H849 C841 0.960 . S
H850 C842 0.930 . S
H851 C843 0.929 . S
H852 C860 0.929 . S
H853 C862 0.930 . S
H854 C864 0.930 . S
H855 C867 0.929 . S
H856 C870 0.930 . S
H857 C872 0.960 . S
H858 C872 0.960 . S
H859 C872 0.960 . S
C860 H852 0.929 . S
C860 C861 1.377 . S
C860 C862 1.384 . S
C861 C860 1.377 . S
C861 C867 1.390 . S
C862 H853 0.930 . S
C862 C860 1.384 . S
C862 C863 1.372 . S
C863 C862 1.372 . S
C863 C864 1.400 . S
C863 C868 1.490 . S
C864 H854 0.930 . S
C864 C863 1.400 . S
C864 C867 1.386 . S
H865 C881 0.930 . S
H866 C882 0.931 . S
C867 H855 0.929 . S
C867 C861 1.390 . S
C867 C864 1.386 . S
C868 C863 1.490 . S
C868 C870 1.395 . S
C868 C871 1.403 . S
H869 C875 0.930 . S
C870 H856 0.930 . S
C870 C868 1.395 . S
C870 C873 1.403 . S
C871 C868 1.403 . S
C871 C872 1.524 . S
C871 C875 1.400 . S
C872 H857 0.960 . S
C872 H858 0.960 . S
C872 H859 0.960 . S
C872 C871 1.524 . S
C873 C870 1.403 . S
C873 C874 1.392 . S
C873 C877 1.495 . S
C874 C873 1.392 . S
C874 C875 1.385 . S
C874 C876 1.478 . S
C875 H869 0.930 . S
C875 C871 1.400 . S
C875 C874 1.385 . S
C876 C874 1.478 . S
C876 C878 1.381 . S
C876 C882 1.383 . S
C877 C873 1.495 . S
C877 H883 0.959 . S
C877 H884 0.961 . S
C877 H885 0.960 . S
C878 C876 1.381 . S
C878 C879 1.394 . S
C878 H886 0.930 . S
C879 C878 1.394 . S
C879 C880 1.383 . S
C879 H887 0.929 . S
C880 C879 1.383 . S
C880 C881 1.377 . S
C881 H865 0.930 . S
C881 C880 1.377 . S
C881 C882 1.379 . S
C882 H866 0.931 . S
C882 C876 1.383 . S
C882 C881 1.379 . S
H883 C877 0.959 . S
H884 C877 0.961 . S
H885 C877 0.960 . S
H886 C878 0.930 . S
H887 C879 0.929 . S
H888 C896 0.929 . S
H889 C898 0.930 . S
H890 C900 0.930 . S
H891 C903 0.929 . S
H892 C906 0.930 . S
H893 C908 0.960 . S
H894 C908 0.960 . S
H895 C908 0.960 . S
C896 H888 0.929 . S
C896 C897 1.377 . S
C896 C898 1.384 . S
C897 C896 1.377 . S
C897 C903 1.390 . S
C898 H889 0.930 . S
C898 C896 1.384 . S
C898 C899 1.372 . S
C899 C898 1.372 . S
C899 C900 1.400 . S
C899 C904 1.490 . S
C900 H890 0.930 . S
C900 C899 1.400 . S
C900 C903 1.386 . S
H901 C917 0.930 . S
H902 C918 0.931 . S
C903 H891 0.929 . S
C903 C897 1.390 . S
C903 C900 1.386 . S
C904 C899 1.490 . S
C904 C906 1.395 . S
C904 C907 1.403 . S
H905 C911 0.930 . S
C906 H892 0.930 . S
C906 C904 1.395 . S
C906 C909 1.403 . S
C907 C904 1.403 . S
C907 C908 1.524 . S
C907 C911 1.400 . S
C908 H893 0.960 . S
C908 H894 0.960 . S
C908 H895 0.960 . S
C908 C907 1.524 . S
C909 C906 1.403 . S
C909 C910 1.392 . S
C909 C913 1.495 . S
C910 C909 1.392 . S
C910 C911 1.385 . S
C910 C912 1.478 . S
C911 H905 0.930 . S
C911 C907 1.400 . S
C911 C910 1.385 . S
C912 C910 1.478 . S
C912 C914 1.381 . S
C912 C918 1.383 . S
C913 C909 1.495 . S
C913 H919 0.959 . S
C913 H920 0.961 . S
C913 H921 0.960 . S
C914 C912 1.381 . S
C914 C915 1.394 . S
C914 H922 0.930 . S
C915 C914 1.394 . S
C915 C916 1.383 . S
C915 H923 0.929 . S
C916 C915 1.383 . S
C916 C917 1.377 . S
C917 H901 0.930 . S
C917 C916 1.377 . S
C917 C918 1.379 . S
C918 H902 0.931 . S
C918 C912 1.383 . S
C918 C917 1.379 . S
H919 C913 0.959 . S
H920 C913 0.961 . S
H921 C913 0.960 . S
H922 C914 0.930 . S
H923 C915 0.929 . S
H924 C932 0.929 . S
H925 C934 0.930 . S
H926 C936 0.930 . S
H927 C939 0.929 . S
H928 C942 0.930 . S
H929 C944 0.960 . S
H930 C944 0.960 . S
H931 C944 0.960 . S
C932 H924 0.929 . S
C932 C933 1.377 . S
C932 C934 1.384 . S
C933 C932 1.377 . S
C933 C939 1.390 . S
C934 H925 0.930 . S
C934 C932 1.384 . S
C934 C935 1.372 . S
C935 C934 1.372 . S
C935 C936 1.400 . S
C935 C940 1.490 . S
C936 H926 0.930 . S
C936 C935 1.400 . S
C936 C939 1.386 . S
H937 C953 0.930 . S
H938 C954 0.931 . S
C939 H927 0.929 . S
C939 C933 1.390 . S
C939 C936 1.386 . S
C940 C935 1.490 . S
C940 C942 1.395 . S
C940 C943 1.403 . S
H941 C947 0.930 . S
C942 H928 0.930 . S
C942 C940 1.395 . S
C942 C945 1.403 . S
C943 C940 1.403 . S
C943 C944 1.524 . S
C943 C947 1.400 . S
C944 H929 0.960 . S
C944 H930 0.960 . S
C944 H931 0.960 . S
C944 C943 1.524 . S
C945 C942 1.403 . S
C945 C946 1.392 . S
C945 C949 1.495 . S
C946 C945 1.392 . S
C946 C947 1.385 . S
C946 C948 1.478 . S
C947 H941 0.930 . S
C947 C943 1.400 . S
C947 C946 1.385 . S
C948 C946 1.478 . S
C948 C950 1.381 . S
C948 C954 1.383 . S
C949 C945 1.495 . S
C949 H955 0.959 . S
C949 H956 0.961 . S
C949 H957 0.960 . S
C950 C948 1.381 . S
C950 C951 1.394 . S
C950 H958 0.930 . S
C951 C950 1.394 . S
C951 C952 1.383 . S
C951 H959 0.929 . S
C952 C951 1.383 . S
C952 C953 1.377 . S
C953 H937 0.930 . S
C953 C952 1.377 . S
C953 C954 1.379 . S
C954 H938 0.931 . S
C954 C948 1.383 . S
C954 C953 1.379 . S
H955 C949 0.959 . S
H956 C949 0.961 . S
H957 C949 0.960 . S
H958 C950 0.930 . S
H959 C951 0.929 . S
H960 C968 0.929 . S
H961 C970 0.930 . S
H962 C972 0.930 . S
H963 C975 0.929 . S
H964 C978 0.930 . S
H965 C980 0.960 . S
H966 C980 0.960 . S
H967 C980 0.960 . S
C968 H960 0.929 . S
C968 C969 1.377 . S
C968 C970 1.384 . S
C969 C968 1.377 . S
C969 C975 1.390 . S
C970 H961 0.930 . S
C970 C968 1.384 . S
C970 C971 1.372 . S
C971 C970 1.372 . S
C971 C972 1.400 . S
C971 C976 1.490 . S
C972 H962 0.930 . S
C972 C971 1.400 . S
C972 C975 1.386 . S
H973 C989 0.930 . S
H974 C990 0.931 . S
C975 H963 0.929 . S
C975 C969 1.390 . S
C975 C972 1.386 . S
C976 C971 1.490 . S
C976 C978 1.395 . S
C976 C979 1.403 . S
H977 C983 0.930 . S
C978 H964 0.930 . S
C978 C976 1.395 . S
C978 C981 1.403 . S
C979 C976 1.403 . S
C979 C980 1.524 . S
C979 C983 1.400 . S
C980 H965 0.960 . S
C980 H966 0.960 . S
C980 H967 0.960 . S
C980 C979 1.524 . S
C981 C978 1.403 . S
C981 C982 1.392 . S
C981 C985 1.495 . S
C982 C981 1.392 . S
C982 C983 1.385 . S
C982 C984 1.478 . S
C983 H977 0.930 . S
C983 C979 1.400 . S
C983 C982 1.385 . S
C984 C982 1.478 . S
C984 C986 1.381 . S
C984 C990 1.383 . S
C985 C981 1.495 . S
C985 H991 0.959 . S
C985 H992 0.961 . S
C985 H993 0.960 . S
C986 C984 1.381 . S
C986 C987 1.394 . S
C986 H994 0.930 . S
C987 C986 1.394 . S
C987 C988 1.383 . S
C987 H995 0.929 . S
C988 C987 1.383 . S
C988 C989 1.377 . S
C989 H973 0.930 . S
C989 C988 1.377 . S
C989 C990 1.379 . S
C990 H974 0.931 . S
C990 C984 1.383 . S
C990 C989 1.379 . S
H991 C985 0.959 . S
H992 C985 0.961 . S
H993 C985 0.960 . S
H994 C986 0.930 . S
H995 C987 0.929 . S
H996 C1004 0.929 . S
H997 C1006 0.930 . S
H998 C1008 0.930 . S
H999 C1011 0.929 . S
H1000 C1014 0.930 . S
H1001 C1016 0.960 . S
H1002 C1016 0.960 . S
H1003 C1016 0.960 . S
C1004 H996 0.929 . S
C1004 C1005 1.377 . S
C1004 C1006 1.384 . S
C1005 C1004 1.377 . S
C1005 C1011 1.390 . S
C1006 H997 0.930 . S
C1006 C1004 1.384 . S
C1006 C1007 1.372 . S
C1007 C1006 1.372 . S
C1007 C1008 1.400 . S
C1007 C1012 1.490 . S
C1008 H998 0.930 . S
C1008 C1007 1.400 . S
C1008 C1011 1.386 . S
H1009 C1025 0.930 . S
H1010 C1026 0.931 . S
C1011 H999 0.929 . S
C1011 C1005 1.390 . S
C1011 C1008 1.386 . S
C1012 C1007 1.490 . S
C1012 C1014 1.395 . S
C1012 C1015 1.403 . S
H1013 C1019 0.930 . S
C1014 H1000 0.930 . S
C1014 C1012 1.395 . S
C1014 C1017 1.403 . S
C1015 C1012 1.403 . S
C1015 C1016 1.524 . S
C1015 C1019 1.400 . S
C1016 H1001 0.960 . S
C1016 H1002 0.960 . S
C1016 H1003 0.960 . S
C1016 C1015 1.524 . S
C1017 C1014 1.403 . S
C1017 C1018 1.392 . S
C1017 C1021 1.495 . S
C1018 C1017 1.392 . S
C1018 C1019 1.385 . S
C1018 C1020 1.478 . S
C1019 H1013 0.930 . S
C1019 C1015 1.400 . S
C1019 C1018 1.385 . S
C1020 C1018 1.478 . S
C1020 C1022 1.381 . S
C1020 C1026 1.383 . S
C1021 C1017 1.495 . S
C1021 H1027 0.959 . S
C1021 H1028 0.961 . S
C1021 H1029 0.960 . S
C1022 C1020 1.381 . S
C1022 C1023 1.394 . S
C1022 H1030 0.930 . S
C1023 C1022 1.394 . S
C1023 C1024 1.383 . S
C1023 H1031 0.929 . S
C1024 C1023 1.383 . S
C1024 C1025 1.377 . S
C1025 H1009 0.930 . S
C1025 C1024 1.377 . S
C1025 C1026 1.379 . S
C1026 H1010 0.931 . S
C1026 C1020 1.383 . S
C1026 C1025 1.379 . S
H1027 C1021 0.959 . S
H1028 C1021 0.961 . S
H1029 C1021 0.960 . S
H1030 C1022 0.930 . S
H1031 C1023 0.929 . S
C177 C3 1.488 . S
C196 C87 1.479 . S
C213 C17 1.495 . S
C232 C101 1.471 . S
C249 C31 1.413 . S
C268 C115 1.395 . S
C285 C45 1.496 . S
C304 C129 1.512 . S
C321 C59 1.500 . S
C340 C143 1.494 . S
C357 C157 1.421 . S
C376 C73 1.433 . S
C393 C8 1.558 . S
C412 C148 1.556 . S
C429 C22 1.407 . S
C448 C162 1.465 . S
C465 C36 1.477 . S
C484 C92 1.374 . S
C501 C50 1.556 . S
C520 C106 1.548 . S
C537 C64 1.404 . S
C556 C120 1.469 . S
C573 C78 1.476 . S
C592 C134 1.374 . S
C609 C9 1.128 . S
C628 C51 1.150 . S
C645 C23 1.841 . S
C664 C65 1.840 . S
C681 C79 1.314 . S
C700 C37 1.337 . S
C717 C93 1.830 . S
C736 C135 1.794 . S
C753 C149 1.128 . S
C772 C107 1.111 . S
C789 C121 1.309 . S
C808 C163 1.317 . S
C825 C91 0.467 . S
C844 C7 0.466 . S
C861 C21 0.458 . S
C880 C105 0.451 . S
C897 C35 0.434 . S
C916 C119 0.436 . S
C933 C133 0.454 . S
C952 C49 0.481 . S
C969 C147 0.494 . S
C988 C63 0.428 . S
C1005 C77 0.433 . S
C1024 C161 0.494 . S
