# Generated by pormake.
# Topology pts-e, (5)-cn, num edge types: 1
# Building blocks:
#     Node 0, Type 0, BuildingBlock: BEQFEK_clean_sbu_0, # of connection points: 5
#     Node 1, Type 0, BuildingBlock: BEQFEK_clean_sbu_0, # of connection points: 5
#     Node 2, Type 0, BuildingBlock: BEQFEK_clean_sbu_0, # of connection points: 5
#     Node 3, Type 0, BuildingBlock: BEQFEK_clean_sbu_0, # of connection points: 5
#     Node 4, Type 0, BuildingBlock: BEQFEK_clean_sbu_0, # of connection points: 5
#     Node 5, Type 0, BuildingBlock: BEQFEK_clean_sbu_0, # of connection points: 5
#     Node 6, Type 0, BuildingBlock: BEQFEK_clean_sbu_0, # of connection points: 5
#     Node 7, Type 0, BuildingBlock: BEQFEK_clean_sbu_0, # of connection points: 5
#     Edge 8, Type (0, 0), BuildingBlock: EZIPEK_clean_linker_0, # of connection points: 2
#     Edge 9, Type (0, 0), BuildingBlock: EZIPEK_clean_linker_0, # of connection points: 2
#     Edge 10, Type (0, 0), BuildingBlock: EZIPEK_clean_linker_0, # of connection points: 2
#     Edge 11, Type (0, 0), BuildingBlock: EZIPEK_clean_linker_0, # of connection points: 2
#     Edge 12, Type (0, 0), BuildingBlock: EZIPEK_clean_linker_0, # of connection points: 2
#     Edge 13, Type (0, 0), BuildingBlock: EZIPEK_clean_linker_0, # of connection points: 2
#     Edge 14, Type (0, 0), BuildingBlock: EZIPEK_clean_linker_0, # of connection points: 2
#     Edge 15, Type (0, 0), BuildingBlock: EZIPEK_clean_linker_0, # of connection points: 2
#     Edge 16, Type (0, 0), BuildingBlock: EZIPEK_clean_linker_0, # of connection points: 2
#     Edge 17, Type (0, 0), BuildingBlock: EZIPEK_clean_linker_0, # of connection points: 2
#     Edge 18, Type (0, 0), BuildingBlock: EZIPEK_clean_linker_0, # of connection points: 2
#     Edge 19, Type (0, 0), BuildingBlock: EZIPEK_clean_linker_0, # of connection points: 2
#     Edge 20, Type (0, 0), BuildingBlock: EZIPEK_clean_linker_0, # of connection points: 2
#     Edge 21, Type (0, 0), BuildingBlock: EZIPEK_clean_linker_0, # of connection points: 2
#     Edge 22, Type (0, 0), BuildingBlock: EZIPEK_clean_linker_0, # of connection points: 2
#     Edge 23, Type (0, 0), BuildingBlock: EZIPEK_clean_linker_0, # of connection points: 2
#     Edge 24, Type (0, 0), BuildingBlock: EZIPEK_clean_linker_0, # of connection points: 2
#     Edge 25, Type (0, 0), BuildingBlock: EZIPEK_clean_linker_0, # of connection points: 2
#     Edge 26, Type (0, 0), BuildingBlock: EZIPEK_clean_linker_0, # of connection points: 2
#     Edge 27, Type (0, 0), BuildingBlock: EZIPEK_clean_linker_0, # of connection points: 2
# Relax obj value: 0.398
# Max RMSD: 0.231
# Mean RMSD: 0.231
data_MOF--net-pts-e--node1-BEQFEK_clean_sbu_0--edge1-EZIPEK_clean_linker_0
_symmetry_space_group_name_H-M    P1
_symmetry_Int_Tables_number       1
_symmetry_cell_setting            triclinic
loop_
_symmetry_equiv_pos_as_xyz
'x, y, z'
_cell_length_a     28.461609
_cell_length_b     28.366946
_cell_length_c     36.98434
_cell_angle_alpha  89.697975
_cell_angle_beta   89.829927
_cell_angle_gamma 90.135896
loop_
_atom_site_label
_atom_site_type_symbol
_atom_site_fract_x
_atom_site_fract_y
_atom_site_fract_z
_atom_type_partial_charge
Co0 Co 0.17715 0.0152 0.18306 0.0
Co1 Co 0.27665 0.00875 0.21742 0.0
C2 C 0.20963 0.08938 0.23466 0.0
O3 O 0.17886 0.07213 0.21345 0.0
O4 O 0.25014 0.0701 0.23828 0.0
C5 C 0.0839 0.99567 0.16487 0.0
O6 O 0.08116 0.98463 0.19935 0.0
C7 C 0.37893 0.02419 0.23236 0.0
C8 C 0.39875 0.95236 0.25007 0.0
C9 C 0.41669 -0.0031 0.24371 0.0
N10 N 0.34026 -0.00321 0.23197 0.0
N11 N 0.3525 0.95404 0.24284 0.0
C12 C 0.37972 0.07518 0.22205 0.0
H13 H 0.34542 0.08601 0.21049 0.0
H14 H 0.4083 0.08203 0.20222 0.0
H15 H 0.38727 0.09653 0.24642 0.0
C16 C 0.23131 0.01246 0.1155 0.0
N17 N 0.22925 0.01163 0.1519 0.0
N18 N 0.27186 0.00797 0.16521 0.0
C19 C 0.30248 0.00584 0.1371 0.0
C20 C 0.27767 0.00884 0.10475 0.0
C21 C 0.1895 0.01712 0.09126 0.0
H22 H 0.16645 0.98583 0.09484 0.0
H23 H 0.16921 0.04893 0.09883 0.0
H24 H 0.19983 0.01985 0.06237 0.0
O25 O 0.17119 0.96018 0.21553 0.0
O26 O 0.24124 0.95485 0.24053 0.0
H27 H 0.3618 0.97257 0.16099 0.0
H28 H 0.37098 0.99168 0.1146 0.0
C29 C 0.35427 0.0006 0.14084 0.0
H30 H 0.36921 0.03428 0.15062 0.0
H31 H 0.32938 0.92554 0.2447 0.0
O32 O 0.1215 0.01318 0.15238 0.0
C33 C 0.19902 0.94059 0.23766 0.0
Co34 Co 0.01586 0.18728 0.67144 0.0
Co35 Co 0.01692 0.28348 0.71051 0.0
C36 C 0.93893 0.20994 0.72211 0.0
O37 O 0.95389 0.18634 0.69516 0.0
O38 O 0.95951 0.24831 0.73163 0.0
C39 C 0.00145 0.09795 0.63499 0.0
O40 O 0.95778 0.09824 0.64656 0.0
C41 C -0.0049 0.38332 0.73227 0.0
C42 C 0.06785 0.40937 0.73924 0.0
C43 C 0.02144 0.42339 0.74046 0.0
N44 N 0.02497 0.3474 0.7263 0.0
N45 N 0.06825 0.36337 0.7308 0.0
C46 C 0.94284 0.37907 0.73007 0.0
H47 H 0.93305 0.35356 0.70869 0.0
H48 H 0.92626 0.41378 0.72484 0.0
H49 H 0.92937 0.36519 0.75623 0.0
C50 C 0.02306 0.24494 0.60659 0.0
N51 N 0.02224 0.24064 0.6428 0.0
N52 N 0.02009 0.2824 0.65784 0.0
C53 C 0.01937 0.31506 0.63088 0.0
C54 C 0.02121 0.29216 0.59757 0.0
C55 C 0.02252 0.2042 0.581 0.0
H56 H 0.05387 0.18191 0.58582 0.0
H57 H 0.99075 0.1824 0.58613 0.0
H58 H 0.02266 0.21594 0.55235 0.0
O59 O 0.06407 0.18045 0.70897 0.0
O60 O 0.07163 0.25073 0.73363 0.0
H61 H 0.04189 0.37914 0.65535 0.0
H62 H 0.01667 0.38654 0.61071 0.0
C63 C 0.01421 0.36673 0.63661 0.0
H64 H 0.9795 0.37336 0.64927 0.0
H65 H 0.09836 0.34299 0.72725 0.0
O66 O 0.02823 0.13235 0.64176 0.0
C67 C 0.08345 0.20764 0.73155 0.0
Co68 Co 0.84684 0.00071 0.1723 0.0
Co69 Co 0.75299 0.01529 0.2143 0.0
C70 C 0.82022 0.93495 0.23208 0.0
O71 O 0.84545 0.94626 0.20495 0.0
O72 O 0.78256 0.95771 0.23957 0.0
C73 C 0.91291 0.95409 0.1262 0.0
O74 O 0.88667 0.91658 0.13162 0.0
C75 C 0.6513 0.0064 0.23383 0.0
C76 C 0.63798 0.07758 0.25559 0.0
C77 C 0.61628 0.03537 0.24748 0.0
N78 N 0.69205 0.03057 0.23362 0.0
N79 N 0.68375 0.07286 0.24715 0.0
C80 C 0.64589 0.9568 0.22107 0.0
H81 H 0.6777 0.94537 0.20606 0.0
H82 H 0.61422 0.95356 0.20381 0.0
H83 H 0.6407 0.93337 0.24488 0.0
C84 C 0.78574 0.00859 0.10911 0.0
N85 N 0.79189 0.0069 0.14515 0.0
N86 N 0.75129 0.01236 0.16167 0.0
C87 C 0.71786 0.01807 0.1359 0.0
C88 C 0.73875 0.01527 0.1019 0.0
C89 C 0.82461 0.00725 0.08182 0.0
H90 H 0.85328 0.0312 0.09031 0.0
H91 H 0.83836 0.97083 0.08005 0.0
H92 H 0.81245 0.01811 0.05458 0.0
O93 O 0.86085 0.05613 0.20282 0.0
O94 O 0.79295 0.06911 0.23034 0.0
H95 H 0.66699 0.05735 0.16477 0.0
H96 H 0.6503 0.04403 0.11866 0.0
C97 C 0.66795 0.03035 0.14329 0.0
H98 H 0.64889 -0.00152 0.15264 0.0
H99 H 0.70909 0.09928 0.24957 0.0
O100 O 0.9009 0.99286 0.14048 0.0
C101 C 0.83603 0.07921 0.2252 0.0
Co102 Co 0.01008 0.84925 0.67356 0.0
Co103 Co -0.00018 0.75873 0.72013 0.0
C104 C 0.08256 0.82723 0.72723 0.0
O105 O 0.07184 0.84553 0.69698 0.0
O106 O 0.05815 0.79302 0.74025 0.0
C107 C 0.04865 0.91339 0.62072 0.0
O108 O 0.08404 0.88393 0.61858 0.0
C109 C 0.01212 0.65743 0.74176 0.0
C110 C 0.94433 0.64469 0.76945 0.0
C111 C 0.98467 0.62245 0.75772 0.0
N112 N 0.9885 0.69846 0.74313 0.0
N113 N 0.94849 0.69056 0.7605 0.0
C114 C 0.05926 0.65138 0.72455 0.0
H115 H 0.06895 0.6831 0.70844 0.0
H116 H 0.05951 0.61939 0.7074 0.0
H117 H 0.08581 0.64609 0.7461 0.0
C118 C 0.99177 0.78631 0.6135 0.0
N119 N -0.0033 0.79394 0.64909 0.0
N120 N -0.00335 0.75362 0.66689 0.0
C121 C 0.99279 0.71868 0.64194 0.0
C122 C 0.99029 0.73858 0.60747 0.0
C123 C 0.98813 0.82407 0.58536 0.0
H124 H 0.96967 0.85507 0.59654 0.0
H125 H 0.0239 0.83425 0.57625 0.0
H126 H 0.96829 0.81143 0.56153 0.0
O127 O 0.96149 0.86512 0.70974 0.0
O128 O 0.94728 0.79852 0.73928 0.0
H129 H 0.97232 0.6615 0.67594 0.0
H130 H 0.97248 0.64796 0.62823 0.0
C131 C 0.99086 0.66727 0.65009 0.0
H132 H 0.02714 0.65342 0.65193 0.0
H133 H 0.92276 0.71606 0.76482 0.0
O134 O 0.01381 0.90369 0.64096 0.0
C135 C 0.93875 0.8419 0.73357 0.0
Co136 Co 0.17237 0.00871 0.87677 0.0
Co137 Co 0.27023 0.01669 0.83945 0.0
C138 C 0.20337 0.93815 0.8205 0.0
O139 O 0.17456 0.95409 0.84375 0.0
O140 O 0.24345 0.95782 0.81542 0.0
C141 C 0.10417 0.96581 0.92554 0.0
O142 O 0.13264 0.92969 0.92877 0.0
C143 C 0.37297 0.01082 0.8202 0.0
C144 C 0.38366 0.08316 0.79915 0.0
C145 C 0.40681 0.0416 0.80663 0.0
N146 N 0.33148 0.03352 0.82114 0.0
N147 N 0.33828 0.07646 0.80787 0.0
C148 C 0.38055 0.96144 0.83304 0.0
H149 H 0.34802 0.94692 0.8455 0.0
H150 H 0.40995 0.96053 0.85269 0.0
H151 H 0.3909 0.93925 0.80972 0.0
C152 C 0.22977 0.01634 0.94294 0.0
N153 N 0.22604 0.01425 0.90666 0.0
N154 N 0.26833 0.01418 0.89208 0.0
C155 C 0.30023 0.01469 0.91935 0.0
C156 C 0.27658 0.01576 0.95234 0.0
C157 C 0.18947 0.02063 0.96867 0.0
H158 H 0.16043 0.04061 0.95598 0.0
H159 H 0.17726 0.98485 0.97645 0.0
H160 H 0.20033 0.039 0.99372 0.0
O161 O 0.16161 0.06499 0.84619 0.0
O162 O 0.23172 0.07099 0.82109 0.0
H163 H 0.36187 0.03753 0.89147 0.0
H164 H 0.3703 0.02675 0.93929 0.0
C165 C 0.35222 0.01449 0.91449 0.0
H166 H 0.36383 0.97803 0.90874 0.0
H167 H 0.31222 0.10208 0.80578 0.0
O168 O 0.11562 0.00094 0.90599 0.0
C169 C 0.18968 0.08536 0.82433 0.0
Co170 Co 0.02533 0.18035 0.37409 0.0
Co171 Co 0.01747 0.27654 0.3338 0.0
C172 C 0.09822 0.2133 0.3188 0.0
O173 O 0.07999 0.18415 0.34107 0.0
O174 O 0.08023 0.25418 0.31411 0.0
C175 C 0.07191 0.11773 0.42449 0.0
O176 O 0.10525 0.14963 0.42681 0.0
C177 C 0.01953 0.37883 0.31333 0.0
C178 C 0.94806 0.3864 0.29084 0.0
C179 C 0.98816 0.41145 0.29926 0.0
N180 N -0.00138 0.33627 0.31383 0.0
N181 N 0.95623 0.3411 0.29963 0.0
C182 C 0.06789 0.38855 0.32703 0.0
H183 H 0.08273 0.35681 0.34043 0.0
H184 H 0.06714 0.41869 0.34604 0.0
H185 H 0.09074 0.39889 0.30393 0.0
C186 C 0.0125 0.24023 0.43838 0.0
N187 N 0.01629 0.23505 0.40229 0.0
N188 N 0.01548 0.27679 0.38653 0.0
C189 C 0.01259 0.30987 0.41292 0.0
C190 C 0.01105 0.28756 0.44649 0.0
C191 C 0.0091 0.2007 0.46509 0.0
H192 H 0.04495 0.19111 0.47412 0.0
H193 H 0.98871 0.21146 0.48928 0.0
H194 H 0.99168 0.16982 0.4527 0.0
O195 O 0.97101 0.16577 0.34371 0.0
O196 O 0.96874 0.23287 0.31301 0.0
H197 H -0.00322 0.38026 0.43072 0.0
H198 H 0.04768 0.37472 0.40216 0.0
C199 C 0.01138 0.36181 0.40681 0.0
H200 H 0.98972 0.36975 0.38288 0.0
H201 H 0.93193 0.31373 0.29719 0.0
O202 O 0.03614 0.12527 0.40486 0.0
C203 C 0.95395 0.19106 0.31857 0.0
Co204 Co 0.84219 0.04376 0.87917 0.0
Co205 Co 0.74726 0.02882 0.83881 0.0
C206 C 0.81431 0.10969 0.81982 0.0
O207 O 0.84303 0.09709 0.84449 0.0
O208 O 0.77501 0.08819 0.81521 0.0
C209 C 0.9348 0.03052 0.89803 0.0
O210 O 0.93875 0.03158 0.86271 0.0
C211 C 0.64809 0.0431 0.81562 0.0
C212 C 0.62218 0.96977 0.82075 0.0
C213 C 0.60759 0.01548 0.81421 0.0
N214 N 0.6845 0.01492 0.82398 0.0
N215 N 0.66882 0.9711 0.82619 0.0
C216 C 0.65215 0.0953 0.8107 0.0
H217 H 0.67832 0.10303 0.78916 0.0
H218 H 0.6655 0.11122 0.83604 0.0
H219 H 0.61784 0.11122 0.80343 0.0
C220 C 0.78255 0.04307 0.94291 0.0
N221 N 0.78784 0.0414 0.90681 0.0
N222 N 0.7477 0.03076 0.89144 0.0
C223 C 0.71553 0.02375 0.91815 0.0
C224 C 0.73671 0.03164 0.95151 0.0
C225 C 0.82156 0.05285 0.96891 0.0
H226 H 0.8434 0.08253 0.9587 0.0
H227 H 0.80795 0.06175 0.99614 0.0
H228 H 0.84407 0.0211 0.97127 0.0
O229 O 0.8506 0.98628 0.85008 0.0
O230 O 0.78611 0.97656 0.81803 0.0
H231 H 0.66769 0.96972 0.90257 0.0
H232 H 0.64574 0.0078 0.93785 0.0
C233 C 0.6666 0.00655 0.91246 0.0
H234 H 0.64966 0.02842 0.89162 0.0
H235 H 0.68971 0.94227 0.83312 0.0
O236 O 0.89589 0.0411 0.91234 0.0
C237 C 0.82796 0.96464 0.82575 0.0
Co238 Co 0.0108 0.84736 0.38545 0.0
Co239 Co 0.01049 0.75066 0.34559 0.0
C240 C 0.93704 0.82536 0.32995 0.0
O241 O 0.95442 0.85126 0.3547 0.0
O242 O 0.95411 0.78454 0.32291 0.0
C243 C 0.02762 0.93986 0.40163 0.0
O244 O 0.02964 0.94108 0.36615 0.0
C245 C 0.99081 0.65038 0.32389 0.0
C246 C 0.06385 0.62692 0.31429 0.0
C247 C 0.01784 0.61144 0.31451 0.0
N248 N 0.01988 0.68723 0.3292 0.0
N249 N 0.06335 0.6728 0.3231 0.0
C250 C 0.93861 0.65228 0.328 0.0
H251 H 0.92209 0.64663 0.30122 0.0
H252 H 0.92751 0.68694 0.33887 0.0
H253 H 0.92637 0.62354 0.34619 0.0
C254 C 0.00904 0.7875 0.44982 0.0
N255 N 0.01063 0.7928 0.41367 0.0
N256 N 0.00913 0.75134 0.39804 0.0
C257 C 0.00639 0.71809 0.42443 0.0
C258 C 0.00605 0.74003 0.45801 0.0
C259 C 0.00962 0.82747 0.47606 0.0
H260 H 0.97851 0.85019 0.47142 0.0
H261 H 0.00941 0.81474 0.50443 0.0
H262 H 0.04162 0.84912 0.47151 0.0
O263 O 0.06592 0.85261 0.35315 0.0
O264 O 0.06721 0.78407 0.32525 0.0
H265 H 0.03354 0.65595 0.40045 0.0
H266 H 0.00456 0.64612 0.44356 0.0
C267 C 0.00363 0.6665 0.41787 0.0
H268 H 0.97041 0.65872 0.4035 0.0
H269 H 0.09305 0.6941 0.3258 0.0
O270 O 0.01629 0.90184 0.4174 0.0
C271 C 0.08378 0.82527 0.32988 0.0
C272 C 0.30054 0.05344 0.04835 0.0
C273 C 0.29487 0.00958 0.06653 0.0
C274 C 0.29337 0.96835 1.00836 0.0
C275 C 0.29469 0.01253 0.99017 0.0
N276 N 0.31133 0.09548 0.99126 0.0
N277 N 0.29828 0.92506 0.06528 0.0
C278 C 0.30266 0.05456 1.00978 0.0
C279 C 0.29577 0.96687 0.04687 0.0
N280 N 0.30138 0.09403 0.06809 0.0
N281 N 0.28732 0.92812 0.9887 0.0
H282 H 0.29993 0.92342 0.09344 0.0
H283 H 0.30251 0.89246 0.05296 0.0
H284 H 0.28791 0.92806 0.96048 0.0
H285 H 0.28038 0.89518 1.0 0.0
H286 H 0.30011 0.1277 0.05688 0.0
H287 H 0.30209 0.09388 0.0963 0.0
H288 H 0.32067 0.12709 1.00345 0.0
H289 H 0.31268 0.09681 0.96307 0.0
C290 C 0.05727 0.3125 0.50103 0.0
C291 C 0.01307 0.30764 0.48374 0.0
C292 C 0.97299 0.3109 0.54253 0.0
C293 C 0.01737 0.311 0.55992 0.0
N294 N 0.10029 0.32556 0.55698 0.0
N295 N 0.92919 0.3153 0.48609 0.0
C296 C 0.05906 0.31683 0.53941 0.0
C297 C 0.97096 0.31169 0.50398 0.0
N298 N 0.09748 0.31022 0.48083 0.0
N299 N 0.93312 0.30723 0.56301 0.0
H300 H 0.92734 0.31582 0.4579 0.0
H301 H 0.89714 0.32156 0.49874 0.0
H302 H 0.93376 0.30873 0.5912 0.0
H303 H 0.89979 0.30145 0.55244 0.0
H304 H 0.13103 0.30789 0.49177 0.0
H305 H 0.09709 0.30915 0.45264 0.0
H306 H 0.1318 0.33347 0.54394 0.0
H307 H 0.10188 0.32883 0.58505 0.0
C308 C 0.71558 0.97726 0.04409 0.0
C309 C 0.71809 0.01887 0.06499 0.0
C310 C 0.70949 0.06635 1.00983 0.0
C311 C 0.71793 0.02551 0.98893 0.0
N312 N 0.72693 0.9413 0.9853 0.0
N313 N 0.71537 0.10347 0.06869 0.0
C314 C 0.71915 0.9805 1.00575 0.0
C315 C 0.71318 0.06362 0.04819 0.0
N316 N 0.71096 0.93475 0.06124 0.0
N317 N 0.6992 0.1078 0.99269 0.0
H318 H 0.71689 0.10241 0.09685 0.0
H319 H 0.71772 0.13734 0.05786 0.0
H320 H 0.6965 0.11018 0.96459 0.0
H321 H 0.68922 0.13832 1.00617 0.0
H322 H 0.7054 0.90309 0.0478 0.0
H323 H 0.70832 0.93202 0.08935 0.0
H324 H 0.73399 0.90816 0.99617 0.0
H325 H 0.7284 0.94238 0.95713 0.0
C326 C 0.04199 0.71218 0.51594 0.0
C327 C 0.00105 0.71947 0.49503 0.0
C328 C 0.95253 0.71342 0.54987 0.0
C329 C 0.99377 0.71671 0.57097 0.0
N330 N 0.07794 0.71399 0.57549 0.0
N331 N 0.91686 0.72175 0.49045 0.0
C332 C 0.03864 0.71318 0.55439 0.0
C333 C 0.95599 0.71731 0.51149 0.0
N334 N 0.08398 0.70538 0.49878 0.0
N335 N 0.91023 0.70811 0.56695 0.0
H336 H 0.91862 0.72269 0.46227 0.0
H337 H 0.883 0.72563 0.50063 0.0
H338 H 0.90768 0.70537 0.59506 0.0
H339 H 0.87857 0.7027 0.55361 0.0
H340 H 0.11499 0.69665 0.51201 0.0
H341 H 0.08681 0.70469 0.47064 0.0
H342 H 0.11197 0.71726 0.56542 0.0
H343 H 0.07622 0.71259 0.60366 0.0
C344 C 0.17298 0.16734 0.31438 0.0
C345 C 0.13885 0.19564 0.29664 0.0
C346 C 0.17066 0.16835 0.23847 0.0
C347 C 0.1952 0.13155 0.2564 0.0
N348 N 0.21787 0.0951 0.3131 0.0
N349 N 0.10451 0.2215 0.23994 0.0
C350 C 0.19689 0.13134 0.29486 0.0
C351 C 0.13817 0.1967 0.25811 0.0
N352 N 0.18185 0.17454 0.3502 0.0
N353 N 0.17824 0.17586 0.20241 0.0
H354 H 0.08009 0.24327 0.25237 0.0
H355 H 0.09885 0.218 0.21226 0.0
H356 H 0.20246 0.1561 0.18764 0.0
H357 H 0.16461 0.20467 0.18837 0.0
H358 H 0.20891 0.15776 0.3641 0.0
H359 H 0.16532 0.20123 0.36481 0.0
H360 H 0.21492 0.09055 0.34098 0.0
H361 H 0.23536 0.06754 0.30049 0.0
C362 C 0.86139 0.11405 0.76376 0.0
C363 C 0.83477 0.13854 0.78981 0.0
C364 C 0.8683 0.21283 0.76616 0.0
C365 C 0.90198 0.18683 0.74569 0.0
N366 N 0.93866 0.1099 0.73843 0.0
N367 N 0.8149 0.21208 0.81786 0.0
C368 C 0.90061 0.13658 0.74782 0.0
C369 C 0.83878 0.18834 0.79167 0.0
N370 N 0.85078 0.06849 0.75532 0.0
N371 N 0.86322 0.26013 0.76061 0.0
H372 H 0.79169 0.19503 0.83555 0.0
H373 H 0.8201 0.24779 0.82302 0.0
H374 H 0.88196 0.27859 0.74084 0.0
H375 H 0.83688 0.27988 0.77291 0.0
H376 H 0.86779 0.05055 0.73451 0.0
H377 H 0.82226 0.05054 0.76664 0.0
H378 H 0.93936 0.07338 0.74182 0.0
H379 H 0.97171 0.1242 0.73299 0.0
C380 C 0.88863 0.92417 0.27267 0.0
C381 C 0.84487 0.90645 0.26039 0.0
C382 C 0.85914 0.83351 0.29543 0.0
C383 C 0.90528 0.84972 0.30363 0.0
N384 N 0.96788 0.9046 0.28938 0.0
N385 N 0.78958 0.84241 0.25745 0.0
C386 C 0.92112 0.89332 0.28908 0.0
C387 C 0.83024 0.86049 0.2711 0.0
N388 N 0.89897 0.97107 0.26934 0.0
N389 N 0.84269 0.79328 0.31143 0.0
H390 H 0.76764 0.862 0.24056 0.0
H391 H 0.77907 0.80754 0.26124 0.0
H392 H 0.86327 0.77288 0.32876 0.0
H393 H 0.80803 0.78183 0.30932 0.0
H394 H 0.92869 0.98637 0.28085 0.0
H395 H 0.87522 0.99546 0.2589 0.0
H396 H 0.98151 0.93414 0.27609 0.0
H397 H 0.99369 0.88168 0.29896 0.0
C398 C 0.15635 0.92878 0.76477 0.0
C399 C 0.18269 0.90672 0.79237 0.0
C400 C 0.15036 0.82998 0.7732 0.0
C401 C 0.11802 0.85346 0.74988 0.0
N402 N 0.08268 0.92891 0.73357 0.0
N403 N 0.20226 0.83628 0.82531 0.0
C404 C 0.11917 0.90387 0.74811 0.0
C405 C 0.17904 0.85718 0.7973 0.0
N406 N 0.1656 0.97446 0.75525 0.0
N407 N 0.15489 0.78215 0.77163 0.0
H408 H 0.22487 0.85512 0.84212 0.0
H409 H 0.19709 0.80122 0.83288 0.0
H410 H 0.13605 0.76149 0.75347 0.0
H411 H 0.18057 0.76362 0.78577 0.0
H412 H 0.15041 0.9908 0.73284 0.0
H413 H 0.19211 0.99411 0.76737 0.0
H414 H 0.08059 0.96556 0.73479 0.0
H415 H 0.05131 0.9139 0.72498 0.0
C416 C 0.9302 0.90831 0.77645 0.0
C417 C 0.90942 0.86889 0.75962 0.0
C418 C 0.83521 0.88717 0.79087 0.0
C419 C 0.85453 0.93102 0.8023 0.0
N420 N 0.91726 0.98829 0.79395 0.0
N421 N 0.84013 0.82243 0.74806 0.0
C422 C 0.90116 0.94302 0.79174 0.0
C423 C 0.86126 0.85853 0.76611 0.0
N424 N 0.97793 0.91214 0.77885 0.0
N425 N 0.79314 0.87205 0.80449 0.0
H426 H 0.85832 0.80084 0.73011 0.0
H427 H 0.80404 0.81626 0.7489 0.0
H428 H 0.77399 0.89123 0.82343 0.0
H429 H 0.77951 0.83858 0.79962 0.0
H430 H 0.99438 0.93889 0.7934 0.0
H431 H 0.00043 0.88534 0.77045 0.0
H432 H 0.94989 -0.00137 0.78369 0.0
H433 H 0.89615 0.01641 0.80168 0.0
C434 C 0.15064 0.8675 0.24567 0.0
C435 C 0.17989 0.90224 0.26143 0.0
C436 C 0.15894 0.87049 0.32129 0.0
C437 C 0.1215 0.84451 0.30574 0.0
N438 N 0.07845 0.82352 0.25154 0.0
N439 N 0.20887 0.93921 0.31603 0.0
C440 C 0.11682 0.84362 0.26743 0.0
C441 C 0.18403 0.90396 0.29977 0.0
N442 N 0.15523 0.85729 0.20981 0.0
N443 N 0.17051 0.86308 0.35666 0.0
H444 H 0.22643 0.96579 0.30196 0.0
H445 H 0.20881 0.94441 0.34388 0.0
H446 H 0.15324 0.83814 0.37279 0.0
H447 H 0.20008 0.87796 0.36867 0.0
H448 H 0.13758 0.82937 0.19759 0.0
H449 H 0.18053 0.87349 0.19341 0.0
H450 H 0.07143 0.82691 0.224 0.0
H451 H 0.05121 0.80747 0.26585 0.0
C452 C 0.1565 0.16098 0.74165 0.0
C453 C 0.11872 0.1868 0.75659 0.0
C454 C 0.14122 0.15876 0.81699 0.0
C455 C 0.17172 0.12498 0.8012 0.0
N456 N 0.20653 0.0929 0.74638 0.0
N457 N 0.07238 0.20751 0.80905 0.0
C458 C 0.17965 0.12628 0.76302 0.0
C459 C 0.11072 0.18565 0.79452 0.0
N460 N 0.17039 0.1699 0.70687 0.0
N461 N 0.14195 0.16567 0.85352 0.0
H462 H 0.04878 0.22735 0.79385 0.0
H463 H 0.06194 0.20285 0.83586 0.0
H464 H 0.16527 0.14795 0.87053 0.0
H465 H 0.12348 0.19264 0.8662 0.0
H466 H 0.20068 0.15568 0.69545 0.0
H467 H 0.15437 0.19555 0.69078 0.0
H468 H 0.2072 0.08846 0.71843 0.0
H469 H 0.22586 0.06737 0.75985 0.0
C470 C 0.89191 0.14706 0.23332 0.0
C471 C 0.85985 0.11433 0.24886 0.0
C472 C 0.88024 0.14424 0.30903 0.0
C473 C 0.9185 0.16971 0.29395 0.0
N474 N 0.96529 0.1887 0.24089 0.0
N475 N 0.83054 0.07585 0.30334 0.0
C476 C 0.92536 0.16991 0.25579 0.0
C477 C 0.85535 0.1116 0.28723 0.0
N478 N 0.89026 0.15657 0.19711 0.0
N479 N 0.86746 0.15134 0.34421 0.0
H480 H 0.81397 0.04893 0.28923 0.0
H481 H 0.83078 0.06994 0.33118 0.0
H482 H 0.88422 0.17592 0.36069 0.0
H483 H 0.83713 0.1368 0.35559 0.0
H484 H 0.91006 0.18325 0.18492 0.0
H485 H 0.86536 0.14136 0.18007 0.0
H486 H 0.97392 0.18503 0.21365 0.0
H487 H 0.99222 0.20364 0.25601 0.0
C488 C 0.02342 0.00959 0.11653 0.0
C489 C 0.04774 0.97827 0.13986 0.0
C490 C 0.99093 0.91575 0.12742 0.0
C491 C 0.96164 0.95074 0.1125 0.0
N492 N 0.9586 0.01863 0.07425 0.0
N493 N 0.06621 0.89778 0.15524 0.0
C494 C 0.9817 0.99324 0.09998 0.0
C495 C 0.03535 0.92972 0.14113 0.0
N496 N 0.03769 0.05533 0.11259 0.0
N497 N 0.97525 0.87035 0.12946 0.0
H498 H 0.09987 0.90756 0.16344 0.0
H499 H 0.06015 0.86166 0.15664 0.0
H500 H 0.94496 0.85964 0.11592 0.0
H501 H 0.99253 0.84331 0.14303 0.0
H502 H 0.01834 0.0807 0.09872 0.0
H503 H 0.06799 0.06863 0.12457 0.0
H504 H 0.97215 0.04903 0.06218 0.0
H505 H 0.92764 0.00579 0.06277 0.0
C506 C 0.06509 0.03782 0.63609 0.0
C507 C 0.02256 0.05424 0.62068 0.0
C508 C 0.01364 0.98043 0.58779 0.0
C509 C 0.05224 0.96225 0.60736 0.0
N510 N 0.12619 0.97811 0.63592 0.0
N511 N 0.9638 0.04793 0.57432 0.0
C512 C 0.08225 0.99278 0.62646 0.0
C513 C -0.00074 0.02773 0.59376 0.0
N514 N 0.08588 0.06437 0.6622 0.0
N515 N 0.99045 0.95139 0.56455 0.0
H516 H 0.95437 0.08321 0.57749 0.0
H517 H 0.94573 0.03115 0.55365 0.0
H518 H 0.00354 0.91803 0.5584 0.0
H519 H 0.95951 0.96004 0.55121 0.0
H520 H 0.11464 0.0538 0.67763 0.0
H521 H 0.11464 0.0538 0.67763 0.0
H522 H 0.1513 -4e-05 0.64757 0.0
H523 H 0.13945 0.94556 0.62795 0.0
C524 C -0.00271 0.02613 0.94572 0.0
C525 C 0.96966 0.00381 0.91906 0.0
C526 C 0.02347 0.93706 0.91702 0.0
C527 C 0.0551 0.9638 0.93793 0.0
N528 N 0.0651 0.01964 0.9854 0.0
N529 N 0.94508 0.93084 0.89192 0.0
C530 C 0.03899 0.00337 0.95726 0.0
C531 C 0.97891 0.95653 0.90904 0.0
N532 N 0.98544 0.06984 0.95796 0.0
N533 N 0.03765 0.89528 0.90253 0.0
H534 H 0.91154 0.94422 0.8874 0.0
H535 H 0.94845 0.89531 0.88556 0.0
H536 H 0.06901 0.87916 0.91013 0.0
H537 H 0.01889 0.877 0.88294 0.0
H538 H 0.00681 0.08986 0.97477 0.0
H539 H 0.95453 0.08675 0.95023 0.0
H540 H 0.05468 0.04709 1.00216 0.0
H541 H 0.09525 0.0018 0.99376 0.0
C542 C 0.02133 0.00567 0.4466 0.0
C543 C 0.04859 0.97875 0.42224 0.0
C544 C 0.10928 0.03951 0.42033 0.0
C545 C 0.07779 0.06955 0.43865 0.0
N546 N 0.01769 0.0764 0.48348 0.0
N547 N 0.12566 0.96014 0.39972 0.0
C548 C 0.03873 0.05038 0.45718 0.0
C549 C 0.09528 0.99237 0.41387 0.0
N550 N 0.97807 0.99013 0.45748 0.0
N551 N 0.15033 0.05713 0.40664 0.0
H552 H 0.11582 0.92513 0.39555 0.0
H553 H 0.16129 0.96669 0.39577 0.0
H554 H 0.16259 0.09066 0.41317 0.0
H555 H 0.17181 0.03884 0.38874 0.0
H556 H 0.95471 0.01045 0.47244 0.0
H557 H 0.96484 0.95715 0.45043 0.0
H558 H 0.98994 0.06427 0.49938 0.0
H559 H 0.03185 0.10869 0.49141 0.0
C560 C 0.49255 0.01743 0.21266 0.0
C561 C 0.46726 0.00945 0.24519 0.0
C562 C 0.54071 0.01519 0.27956 0.0
C563 C 0.56481 0.02739 0.24723 0.0
N564 N 0.56054 0.05377 0.18521 0.0
N565 N 0.46553 0.00817 0.31037 0.0
C566 C 0.5398 0.03262 0.21441 0.0
C567 C 0.49086 0.01048 0.27895 0.0
N568 N 0.47234 0.00829 0.18001 0.0
N569 N 0.5655 0.00721 0.31057 0.0
H570 H 0.429 0.00508 0.31082 0.0
H571 H 0.48017 0.01339 0.3358 0.0
H572 H 0.60191 0.01121 0.31199 0.0
H573 H 0.55054 0.99342 0.33408 0.0
H574 H 0.49092 0.00908 0.15569 0.0
H575 H 0.43849 0.99485 0.17768 0.0
H576 H 0.54244 0.06202 0.16156 0.0
H577 H 0.59406 0.06833 0.18636 0.0
C578 C 0.01388 0.54514 0.78248 0.0
C579 C 0.9906 0.57065 0.75484 0.0
C580 C 0.98589 0.49939 0.718 0.0
C581 C 0.00623 0.47287 0.74656 0.0
N582 N 0.03078 0.4685 0.80881 0.0
N583 N 0.94271 0.56919 0.70102 0.0
C584 C 0.01759 0.49521 0.77972 0.0
C585 C 0.97284 0.54687 0.72411 0.0
N586 N 0.03315 0.56867 0.81099 0.0
N587 N 0.98152 0.48039 0.68434 0.0
H588 H 0.93105 0.60353 0.70503 0.0
H589 H 0.92531 0.55191 0.68016 0.0
H590 H 0.99176 0.44618 0.67836 0.0
H591 H 0.97199 0.50002 0.66164 0.0
H592 H 0.055 0.55274 0.82997 0.0
H593 H 0.0299 0.60503 0.81428 0.0
H594 H 0.03533 0.48213 0.83465 0.0
H595 H 0.03277 0.4318 0.80788 0.0
C596 C 0.48365 0.05594 0.83733 0.0
C597 C 0.45859 0.03671 0.80769 0.0
C598 C 0.53248 0.01191 0.77935 0.0
C599 C 0.55747 0.0291 0.80978 0.0
N600 N 0.55842 0.07449 0.86487 0.0
N601 N 0.45709 0.99373 0.75181 0.0
C602 C 0.53351 0.05325 0.83791 0.0
C603 C 0.48248 0.01415 0.77893 0.0
N604 N 0.45942 0.07476 0.86584 0.0
N605 N 0.55705 0.99529 0.75025 0.0
H606 H 0.42056 0.99589 0.75027 0.0
H607 H 0.47148 0.97233 0.73193 0.0
H608 H 0.5937 0.99467 0.74937 0.0
H609 H 0.54186 0.98576 0.72581 0.0
H610 H 0.47435 0.08329 0.89058 0.0
H611 H 0.42319 0.07957 0.86584 0.0
H612 H 0.54406 0.09739 0.88374 0.0
H613 H 0.59462 0.07242 0.86708 0.0
C614 C 0.00867 0.49026 0.27208 0.0
C615 C 0.99116 0.46341 0.3016 0.0
C616 C 0.98873 0.53386 0.33921 0.0
C617 C 0.00363 0.56156 0.30923 0.0
N618 N 0.01896 0.56795 0.24528 0.0
N619 N 0.95216 0.4616 0.35969 0.0
C620 C 0.01087 0.54026 0.27501 0.0
C621 C 0.97711 0.48586 0.33399 0.0
N622 N 0.02414 0.46792 0.24166 0.0
N623 N 0.98861 0.55231 0.3732 0.0
H624 H 0.94214 0.42651 0.35671 0.0
H625 H 0.93712 0.47769 0.38218 0.0
H626 H -0.00158 0.58684 0.37839 0.0
H627 H 0.98335 0.53215 0.3965 0.0
H628 H 0.04205 0.48501 0.22077 0.0
H629 H 0.02176 0.43148 0.23835 0.0
H630 H 0.02027 0.55498 0.21902 0.0
H631 H 0.0201 0.60468 0.24656 0.0
loop_
_geom_bond_atom_site_label_1
_geom_bond_atom_site_label_2
_geom_bond_distance
_geom_bond_site_symmetry_2
_ccdc_geom_bond_type
Co0 O3 1.970 . S
Co0 N17 1.989 . S
Co0 O25 1.967 1_545 S
Co0 O32 1.920 . S
Co1 O4 1.966 . S
Co1 N10 2.022 . S
Co1 N18 1.993 . S
Co1 O26 1.941 1_545 S
C2 O3 1.258 . S
C2 O4 1.263 . S
O3 Co0 1.970 . S
O3 C2 1.258 . S
O4 Co1 1.966 . S
O4 C2 1.263 . S
C5 O6 1.235 . S
C5 O32 1.289 . S
O6 C5 1.235 . S
C7 C9 1.400 . S
C7 N10 1.351 . S
C7 C12 1.501 . S
C8 C9 1.387 1_565 S
C8 N11 1.341 . S
C9 C7 1.400 . S
C9 C8 1.387 1_545 S
N10 Co1 2.022 . S
N10 C7 1.351 . S
N10 N11 1.365 1_545 S
N11 C8 1.341 . S
N11 N10 1.365 1_565 S
N11 H31 0.862 . S
C12 C7 1.501 . S
C12 H13 0.961 . S
C12 H14 0.961 . S
C12 H15 0.960 . S
H13 C12 0.961 . S
H14 C12 0.961 . S
H15 C12 0.960 . S
C16 N17 1.342 . S
C16 C20 1.401 . S
C16 C21 1.499 . S
N17 Co0 1.989 . S
N17 C16 1.342 . S
N17 N18 1.388 . S
N18 Co1 1.993 . S
N18 N17 1.388 . S
N18 C19 1.346 . S
C19 N18 1.346 . S
C19 C20 1.396 . S
C19 C29 1.510 . S
C20 C16 1.401 . S
C20 C19 1.396 . S
C21 C16 1.499 . S
C21 H22 0.959 . S
C21 H23 0.960 . S
C21 H24 0.961 1_545 S
H22 C21 0.959 . S
H23 C21 0.960 . S
H24 C21 0.961 1_565 S
O25 Co0 1.967 1_565 S
O25 C33 1.258 . S
O26 Co1 1.941 1_565 S
O26 C33 1.266 . S
H27 C29 0.959 1_565 S
H28 C29 0.961 . S
C29 C19 1.510 . S
C29 H27 0.959 1_545 S
C29 H28 0.961 . S
C29 H30 0.960 . S
H30 C29 0.960 . S
H31 N11 0.862 . S
O32 Co0 1.920 . S
O32 C5 1.289 . S
C33 O25 1.258 . S
C33 O26 1.266 . S
Co34 O37 1.970 1_455 S
Co34 N51 1.989 . S
Co34 O59 1.967 . S
Co34 O66 1.920 . S
Co35 O38 1.966 1_455 S
Co35 N44 2.022 . S
Co35 N52 1.993 . S
Co35 O60 1.941 . S
C36 O37 1.258 . S
C36 O38 1.263 . S
O37 Co34 1.970 1_655 S
O37 C36 1.258 . S
O38 Co35 1.966 1_655 S
O38 C36 1.263 . S
C39 O40 1.235 . S
C39 O66 1.289 1_655 S
O40 C39 1.235 . S
C41 C43 1.400 . S
C41 N44 1.351 1_655 S
C41 C46 1.501 . S
C42 C43 1.387 1_455 S
C42 N45 1.341 . S
C43 C41 1.400 . S
C43 C42 1.387 1_655 S
N44 Co35 2.022 . S
N44 C41 1.351 1_455 S
N44 N45 1.365 . S
N45 C42 1.341 . S
N45 N44 1.365 . S
N45 H65 0.862 . S
C46 C41 1.501 . S
C46 H47 0.961 . S
C46 H48 0.961 . S
C46 H49 0.960 . S
H47 C46 0.961 . S
H48 C46 0.961 . S
H49 C46 0.960 . S
C50 N51 1.342 . S
C50 C54 1.401 . S
C50 C55 1.499 . S
N51 Co34 1.989 . S
N51 C50 1.342 . S
N51 N52 1.388 . S
N52 Co35 1.993 . S
N52 N51 1.388 . S
N52 C53 1.346 . S
C53 N52 1.346 . S
C53 C54 1.396 . S
C53 C63 1.510 . S
C54 C50 1.401 . S
C54 C53 1.396 . S
C55 C50 1.499 . S
C55 H56 0.959 . S
C55 H57 0.960 . S
C55 H58 0.961 . S
H56 C55 0.959 . S
H57 C55 0.960 . S
H58 C55 0.961 . S
O59 Co34 1.967 . S
O59 C67 1.258 . S
O60 Co35 1.941 . S
O60 C67 1.266 . S
H61 C63 0.959 . S
H62 C63 0.961 1_655 S
C63 C53 1.510 . S
C63 H61 0.959 . S
C63 H62 0.961 1_455 S
C63 H64 0.960 . S
H64 C63 0.960 . S
H65 N45 0.862 . S
O66 Co34 1.920 . S
O66 C39 1.289 1_455 S
C67 O59 1.258 . S
C67 O60 1.266 . S
Co68 O71 1.970 1_545 S
Co68 N85 1.989 . S
Co68 O93 1.967 . S
Co68 O100 1.920 . S
Co69 O72 1.966 1_545 S
Co69 N78 2.022 . S
Co69 N86 1.993 . S
Co69 O94 1.941 . S
C70 O71 1.258 . S
C70 O72 1.263 . S
O71 Co68 1.970 1_565 S
O71 C70 1.258 . S
O72 Co69 1.966 1_565 S
O72 C70 1.263 . S
C73 O74 1.235 . S
C73 O100 1.289 1_565 S
O74 C73 1.235 . S
C75 C77 1.407 . S
C75 N78 1.351 1_565 S
C75 C80 1.501 . S
C76 C77 1.366 1_545 S
C76 N79 1.341 . S
C77 C75 1.407 . S
C77 C76 1.366 1_565 S
N78 Co69 2.022 . S
N78 C75 1.351 1_545 S
N78 N79 1.365 . S
N79 C76 1.341 . S
N79 N78 1.365 . S
N79 H99 0.862 . S
C80 C75 1.501 . S
C80 H81 0.961 . S
C80 H82 0.961 . S
C80 H83 0.960 . S
H81 C80 0.961 . S
H82 C80 0.961 . S
H83 C80 0.960 . S
C84 N85 1.342 . S
C84 C88 1.401 . S
C84 C89 1.499 . S
N85 Co68 1.989 . S
N85 C84 1.342 . S
N85 N86 1.388 . S
N86 Co69 1.993 . S
N86 N85 1.388 . S
N86 C87 1.346 . S
C87 N86 1.346 . S
C87 C88 1.396 . S
C87 C97 1.510 . S
C88 C84 1.401 . S
C88 C87 1.396 . S
C89 C84 1.499 . S
C89 H90 0.959 . S
C89 H91 0.960 . S
C89 H92 0.961 . S
H90 C89 0.959 . S
H91 C89 0.960 . S
H92 C89 0.961 . S
O93 Co68 1.967 . S
O93 C101 1.258 . S
O94 Co69 1.941 . S
O94 C101 1.266 . S
H95 C97 0.959 . S
H96 C97 0.961 1_565 S
C97 C87 1.510 . S
C97 H95 0.959 . S
C97 H96 0.961 1_545 S
C97 H98 0.960 . S
H98 C97 0.960 . S
H99 N79 0.862 . S
O100 Co68 1.920 . S
O100 C73 1.289 1_545 S
C101 O93 1.258 . S
C101 O94 1.266 . S
Co102 O105 1.970 . S
Co102 N119 1.989 . S
Co102 O127 1.967 1_455 S
Co102 O134 1.920 . S
Co103 O106 1.966 . S
Co103 N112 2.022 . S
Co103 N120 1.993 . S
Co103 O128 1.941 1_455 S
C104 O105 1.258 . S
C104 O106 1.263 . S
O105 Co102 1.970 . S
O105 C104 1.258 . S
O106 Co103 1.966 . S
O106 C104 1.263 . S
C107 O108 1.235 . S
C107 O134 1.289 . S
O108 C107 1.235 . S
C109 C111 1.400 . S
C109 N112 1.351 . S
C109 C114 1.501 . S
C110 C111 1.387 1_655 S
C110 N113 1.341 . S
C111 C109 1.400 . S
C111 C110 1.387 1_455 S
N112 Co103 2.022 . S
N112 C109 1.351 . S
N112 N113 1.365 1_455 S
N113 C110 1.341 . S
N113 N112 1.365 1_655 S
N113 H133 0.862 . S
C114 C109 1.501 . S
C114 H115 0.961 . S
C114 H116 0.961 . S
C114 H117 0.960 . S
H115 C114 0.961 . S
H116 C114 0.961 . S
H117 C114 0.960 . S
C118 N119 1.342 . S
C118 C122 1.401 . S
C118 C123 1.499 . S
N119 Co102 1.989 . S
N119 C118 1.342 . S
N119 N120 1.388 . S
N120 Co103 1.993 . S
N120 N119 1.388 . S
N120 C121 1.346 . S
C121 N120 1.346 . S
C121 C122 1.396 . S
C121 C131 1.510 . S
C122 C118 1.401 . S
C122 C121 1.396 . S
C123 C118 1.499 . S
C123 H124 0.959 . S
C123 H125 0.960 . S
C123 H126 0.961 1_455 S
H124 C123 0.959 . S
H125 C123 0.960 . S
H126 C123 0.961 1_655 S
O127 Co102 1.967 1_655 S
O127 C135 1.258 . S
O128 Co103 1.941 1_655 S
O128 C135 1.266 . S
H129 C131 0.959 1_655 S
H130 C131 0.961 . S
C131 C121 1.510 . S
C131 H129 0.959 1_455 S
C131 H130 0.961 . S
C131 H132 0.960 . S
H132 C131 0.960 . S
H133 N113 0.862 . S
O134 Co102 1.920 . S
O134 C107 1.289 . S
C135 O127 1.258 . S
C135 O128 1.266 . S
Co136 O139 1.970 1_545 S
Co136 N153 1.989 . S
Co136 O161 1.967 . S
Co136 O168 1.920 . S
Co137 O140 1.966 1_545 S
Co137 N146 2.022 . S
Co137 N154 1.993 . S
Co137 O162 1.941 . S
C138 O139 1.258 . S
C138 O140 1.263 . S
O139 Co136 1.970 1_565 S
O139 C138 1.258 . S
O140 Co137 1.966 1_565 S
O140 C138 1.263 . S
C141 O142 1.235 . S
C141 O168 1.289 1_565 S
O142 C141 1.235 . S
C143 C145 1.400 . S
C143 N146 1.351 1_565 S
C143 C148 1.501 . S
C144 C145 1.387 1_545 S
C144 N147 1.341 . S
C145 C143 1.400 . S
C145 C144 1.387 1_565 S
N146 Co137 2.022 . S
N146 C143 1.351 1_545 S
N146 N147 1.365 . S
N147 C144 1.341 . S
N147 N146 1.365 . S
N147 H167 0.862 . S
C148 C143 1.501 . S
C148 H149 0.961 . S
C148 H150 0.961 . S
C148 H151 0.960 . S
H149 C148 0.961 . S
H150 C148 0.961 . S
H151 C148 0.960 . S
C152 N153 1.342 . S
C152 C156 1.401 . S
C152 C157 1.499 . S
N153 Co136 1.989 . S
N153 C152 1.342 . S
N153 N154 1.388 . S
N154 Co137 1.993 . S
N154 N153 1.388 . S
N154 C155 1.346 . S
C155 N154 1.346 . S
C155 C156 1.396 . S
C155 C165 1.510 . S
C156 C152 1.401 . S
C156 C155 1.396 . S
C157 C152 1.499 . S
C157 H158 0.959 . S
C157 H159 0.960 . S
C157 H160 0.961 . S
H158 C157 0.959 . S
H159 C157 0.960 . S
H160 C157 0.961 . S
O161 Co136 1.967 . S
O161 C169 1.258 . S
O162 Co137 1.941 . S
O162 C169 1.266 . S
H163 C165 0.959 . S
H164 C165 0.961 1_565 S
C165 C155 1.510 . S
C165 H163 0.959 . S
C165 H164 0.961 1_545 S
C165 H166 0.960 . S
H166 C165 0.960 . S
H167 N147 0.862 . S
O168 Co136 1.920 . S
O168 C141 1.289 1_545 S
C169 O161 1.258 . S
C169 O162 1.266 . S
Co170 O173 1.970 . S
Co170 N187 1.989 . S
Co170 O195 1.967 1_455 S
Co170 O202 1.920 . S
Co171 O174 1.966 . S
Co171 N180 2.022 . S
Co171 N188 1.993 . S
Co171 O196 1.941 1_455 S
C172 O173 1.258 . S
C172 O174 1.263 . S
O173 Co170 1.970 . S
O173 C172 1.258 . S
O174 Co171 1.966 . S
O174 C172 1.263 . S
C175 O176 1.235 . S
C175 O202 1.289 . S
O176 C175 1.235 . S
C177 C179 1.400 . S
C177 N180 1.351 . S
C177 C182 1.501 . S
C178 C179 1.387 1_655 S
C178 N181 1.341 . S
C179 C177 1.400 . S
C179 C178 1.387 1_455 S
N180 Co171 2.022 . S
N180 C177 1.351 . S
N180 N181 1.365 1_455 S
N181 C178 1.341 . S
N181 N180 1.365 1_655 S
N181 H201 0.862 . S
C182 C177 1.501 . S
C182 H183 0.961 . S
C182 H184 0.961 . S
C182 H185 0.960 . S
H183 C182 0.961 . S
H184 C182 0.961 . S
H185 C182 0.960 . S
C186 N187 1.342 . S
C186 C190 1.401 . S
C186 C191 1.499 . S
N187 Co170 1.989 . S
N187 C186 1.342 . S
N187 N188 1.388 . S
N188 Co171 1.993 . S
N188 N187 1.388 . S
N188 C189 1.346 . S
C189 N188 1.346 . S
C189 C190 1.396 . S
C189 C199 1.510 . S
C190 C186 1.401 . S
C190 C189 1.396 . S
C191 C186 1.499 . S
C191 H192 0.959 . S
C191 H193 0.960 . S
C191 H194 0.961 1_455 S
H192 C191 0.959 . S
H193 C191 0.960 . S
H194 C191 0.961 1_655 S
O195 Co170 1.967 1_655 S
O195 C203 1.258 . S
O196 Co171 1.941 1_655 S
O196 C203 1.266 . S
H197 C199 0.959 1_655 S
H198 C199 0.961 . S
C199 C189 1.510 . S
C199 H197 0.959 1_455 S
C199 H198 0.961 . S
C199 H200 0.960 . S
H200 C199 0.960 . S
H201 N181 0.862 . S
O202 Co170 1.920 . S
O202 C175 1.289 . S
C203 O195 1.258 . S
C203 O196 1.266 . S
Co204 O207 1.970 . S
Co204 N221 1.989 . S
Co204 O229 1.967 1_545 S
Co204 O236 1.920 . S
Co205 O208 1.966 . S
Co205 N214 2.022 . S
Co205 N222 1.993 . S
Co205 O230 1.941 1_545 S
C206 O207 1.258 . S
C206 O208 1.263 . S
O207 Co204 1.970 . S
O207 C206 1.258 . S
O208 Co205 1.966 . S
O208 C206 1.263 . S
C209 O210 1.235 . S
C209 O236 1.289 . S
O210 C209 1.235 . S
C211 C213 1.400 . S
C211 N214 1.351 . S
C211 C216 1.501 . S
C212 C213 1.387 1_565 S
C212 N215 1.341 . S
C213 C211 1.400 . S
C213 C212 1.387 1_545 S
N214 Co205 2.022 . S
N214 C211 1.351 . S
N214 N215 1.365 1_545 S
N215 C212 1.341 . S
N215 N214 1.365 1_565 S
N215 H235 0.862 . S
C216 C211 1.501 . S
C216 H217 0.961 . S
C216 H218 0.961 . S
C216 H219 0.960 . S
H217 C216 0.961 . S
H218 C216 0.961 . S
H219 C216 0.960 . S
C220 N221 1.342 . S
C220 C224 1.401 . S
C220 C225 1.499 . S
N221 Co204 1.989 . S
N221 C220 1.342 . S
N221 N222 1.388 . S
N222 Co205 1.993 . S
N222 N221 1.388 . S
N222 C223 1.346 . S
C223 N222 1.346 . S
C223 C224 1.396 . S
C223 C233 1.510 . S
C224 C220 1.401 . S
C224 C223 1.396 . S
C225 C220 1.499 . S
C225 H226 0.959 . S
C225 H227 0.960 . S
C225 H228 0.961 1_545 S
H226 C225 0.959 . S
H227 C225 0.960 . S
H228 C225 0.961 1_565 S
O229 Co204 1.967 1_565 S
O229 C237 1.258 . S
O230 Co205 1.941 1_565 S
O230 C237 1.266 . S
H231 C233 0.959 1_565 S
H232 C233 0.961 . S
C233 C223 1.510 . S
C233 H231 0.959 1_545 S
C233 H232 0.961 . S
C233 H234 0.960 . S
H234 C233 0.960 . S
H235 N215 0.862 . S
O236 Co204 1.920 . S
O236 C209 1.289 . S
C237 O229 1.258 . S
C237 O230 1.266 . S
Co238 O241 1.970 1_455 S
Co238 N255 1.989 . S
Co238 O263 1.967 . S
Co238 O270 1.920 . S
Co239 O242 1.966 1_455 S
Co239 N248 2.022 . S
Co239 N256 1.993 . S
Co239 O264 1.941 . S
C240 O241 1.258 . S
C240 O242 1.263 . S
O241 Co238 1.970 1_655 S
O241 C240 1.258 . S
O242 Co239 1.966 1_655 S
O242 C240 1.263 . S
C243 O244 1.235 . S
C243 O270 1.289 1_655 S
O244 C243 1.235 . S
C245 C247 1.407 . S
C245 N248 1.351 1_655 S
C245 C250 1.501 . S
C246 C247 1.366 1_455 S
C246 N249 1.341 . S
C247 C245 1.407 . S
C247 C246 1.366 1_655 S
N248 Co239 2.022 . S
N248 C245 1.351 1_455 S
N248 N249 1.365 . S
N249 C246 1.341 . S
N249 N248 1.365 . S
N249 H269 0.862 . S
C250 C245 1.501 . S
C250 H251 0.961 . S
C250 H252 0.961 . S
C250 H253 0.960 . S
H251 C250 0.961 . S
H252 C250 0.961 . S
H253 C250 0.960 . S
C254 N255 1.342 . S
C254 C258 1.401 . S
C254 C259 1.499 . S
N255 Co238 1.989 . S
N255 C254 1.342 . S
N255 N256 1.388 . S
N256 Co239 1.993 . S
N256 N255 1.388 . S
N256 C257 1.346 . S
C257 N256 1.346 . S
C257 C258 1.396 . S
C257 C267 1.510 . S
C258 C254 1.401 . S
C258 C257 1.396 . S
C259 C254 1.499 . S
C259 H260 0.959 . S
C259 H261 0.960 . S
C259 H262 0.961 . S
H260 C259 0.959 . S
H261 C259 0.960 . S
H262 C259 0.961 . S
O263 Co238 1.967 . S
O263 C271 1.258 . S
O264 Co239 1.941 . S
O264 C271 1.266 . S
H265 C267 0.959 . S
H266 C267 0.961 1_655 S
C267 C257 1.510 . S
C267 H265 0.959 . S
C267 H266 0.961 1_455 S
C267 H268 0.960 . S
H268 C267 0.960 . S
H269 N249 0.862 . S
O270 Co238 1.920 . S
O270 C243 1.289 1_455 S
C271 O263 1.258 . S
C271 O264 1.266 . S
C272 C273 1.363 . S
C272 C278 1.379 1_554 S
C272 N280 1.356 . S
C273 C272 1.363 . S
C273 C279 1.363 1_545 S
C274 C275 1.363 1_565 S
C274 C279 1.379 1_556 S
C274 N281 1.356 . S
C275 C274 1.363 1_545 S
C275 C278 1.363 . S
N276 C278 1.356 . S
N276 H288 0.984 . S
N276 H289 0.985 . S
N277 C279 1.356 . S
N277 H282 0.984 . S
N277 H283 0.985 . S
C278 C272 1.379 1_556 S
C278 C275 1.363 . S
C278 N276 1.356 . S
C279 C273 1.363 1_565 S
C279 C274 1.379 1_554 S
C279 N277 1.356 . S
N280 C272 1.356 . S
N280 H286 0.984 . S
N280 H287 0.984 . S
N281 C274 1.356 . S
N281 H284 0.984 . S
N281 H285 0.985 . S
H282 N277 0.984 . S
H283 N277 0.985 . S
H284 N281 0.984 . S
H285 N281 0.985 . S
H286 N280 0.984 . S
H287 N280 0.984 . S
H288 N276 0.984 . S
H289 N276 0.985 . S
C290 C291 1.363 . S
C290 C296 1.379 . S
C290 N298 1.356 . S
C291 C290 1.363 . S
C291 C297 1.363 1_455 S
C292 C293 1.363 1_655 S
C292 C297 1.379 . S
C292 N299 1.356 . S
C293 C292 1.363 1_455 S
C293 C296 1.363 . S
N294 C296 1.356 . S
N294 H306 0.984 . S
N294 H307 0.985 . S
N295 C297 1.356 . S
N295 H300 0.984 . S
N295 H301 0.985 . S
C296 C290 1.379 . S
C296 C293 1.363 . S
C296 N294 1.356 . S
C297 C291 1.363 1_655 S
C297 C292 1.379 . S
C297 N295 1.356 . S
N298 C290 1.356 . S
N298 H304 0.984 . S
N298 H305 0.984 . S
N299 C292 1.356 . S
N299 H302 0.984 . S
N299 H303 0.985 . S
H300 N295 0.984 . S
H301 N295 0.985 . S
H302 N299 0.984 . S
H303 N299 0.985 . S
H304 N298 0.984 . S
H305 N298 0.984 . S
H306 N294 0.984 . S
H307 N294 0.985 . S
C308 C309 1.363 1_565 S
C308 C314 1.379 1_554 S
C308 N316 1.356 . S
C309 C308 1.363 1_545 S
C309 C315 1.363 . S
C310 C311 1.363 . S
C310 C315 1.379 1_556 S
C310 N317 1.356 . S
C311 C310 1.363 . S
C311 C314 1.363 1_545 S
N312 C314 1.356 . S
N312 H324 0.984 . S
N312 H325 0.985 . S
N313 C315 1.356 . S
N313 H318 0.984 . S
N313 H319 0.985 . S
C314 C308 1.379 1_556 S
C314 C311 1.363 1_565 S
C314 N312 1.356 . S
C315 C309 1.363 . S
C315 C310 1.379 1_554 S
C315 N313 1.356 . S
N316 C308 1.356 . S
N316 H322 0.984 . S
N316 H323 0.984 . S
N317 C310 1.356 . S
N317 H320 0.984 . S
N317 H321 0.985 . S
H318 N313 0.984 . S
H319 N313 0.985 . S
H320 N317 0.984 . S
H321 N317 0.985 . S
H322 N316 0.984 . S
H323 N316 0.984 . S
H324 N312 0.984 . S
H325 N312 0.985 . S
C326 C327 1.363 . S
C326 C332 1.379 . S
C326 N334 1.356 . S
C327 C326 1.363 . S
C327 C333 1.349 1_455 S
C328 C329 1.363 1_655 S
C328 C333 1.383 . S
C328 N335 1.356 . S
C329 C328 1.363 1_455 S
C329 C332 1.363 . S
N330 C332 1.356 . S
N330 H342 0.984 . S
N330 H343 0.985 . S
N331 C333 1.363 . S
N331 H336 0.984 . S
N331 H337 0.985 . S
C332 C326 1.379 . S
C332 C329 1.363 . S
C332 N330 1.356 . S
C333 C327 1.349 1_655 S
C333 C328 1.383 . S
C333 N331 1.363 . S
N334 C326 1.356 . S
N334 H340 0.984 . S
N334 H341 0.984 . S
N335 C328 1.356 . S
N335 H338 0.984 . S
N335 H339 0.985 . S
H336 N331 0.984 . S
H337 N331 0.985 . S
H338 N335 0.984 . S
H339 N335 0.985 . S
H340 N334 0.984 . S
H341 N334 0.984 . S
H342 N330 0.984 . S
H343 N330 0.985 . S
C344 C345 1.363 . S
C344 C350 1.379 . S
C344 N352 1.356 . S
C345 C344 1.363 . S
C345 C351 1.363 . S
C346 C347 1.363 . S
C346 C351 1.379 . S
C346 N353 1.356 . S
C347 C346 1.363 . S
C347 C350 1.363 . S
N348 C350 1.356 . S
N348 H360 0.984 . S
N348 H361 0.985 . S
N349 C351 1.356 . S
N349 H354 0.984 . S
N349 H355 0.985 . S
C350 C344 1.379 . S
C350 C347 1.363 . S
C350 N348 1.356 . S
C351 C345 1.363 . S
C351 C346 1.379 . S
C351 N349 1.356 . S
N352 C344 1.356 . S
N352 H358 0.984 . S
N352 H359 0.984 . S
N353 C346 1.356 . S
N353 H356 0.984 . S
N353 H357 0.985 . S
H354 N349 0.984 . S
H355 N349 0.985 . S
H356 N353 0.984 . S
H357 N353 0.985 . S
H358 N352 0.984 . S
H359 N352 0.984 . S
H360 N348 0.984 . S
H361 N348 0.985 . S
C362 C363 1.363 . S
C362 C368 1.379 . S
C362 N370 1.356 . S
C363 C362 1.363 . S
C363 C369 1.363 . S
C364 C365 1.363 . S
C364 C369 1.379 . S
C364 N371 1.356 . S
C365 C364 1.363 . S
C365 C368 1.363 . S
N366 C368 1.356 . S
N366 H378 0.984 . S
N366 H379 0.985 . S
N367 C369 1.356 . S
N367 H372 0.984 . S
N367 H373 0.985 . S
C368 C362 1.379 . S
C368 C365 1.363 . S
C368 N366 1.356 . S
C369 C363 1.363 . S
C369 C364 1.379 . S
C369 N367 1.356 . S
N370 C362 1.356 . S
N370 H376 0.984 . S
N370 H377 0.984 . S
N371 C364 1.356 . S
N371 H374 0.984 . S
N371 H375 0.985 . S
H372 N367 0.984 . S
H373 N367 0.985 . S
H374 N371 0.984 . S
H375 N371 0.985 . S
H376 N370 0.984 . S
H377 N370 0.984 . S
H378 N366 0.984 . S
H379 N366 0.985 . S
C380 C381 1.363 . S
C380 C386 1.379 . S
C380 N388 1.356 . S
C381 C380 1.363 . S
C381 C387 1.363 . S
C382 C383 1.363 . S
C382 C387 1.379 . S
C382 N389 1.356 . S
C383 C382 1.363 . S
C383 C386 1.363 . S
N384 C386 1.356 . S
N384 H396 0.984 . S
N384 H397 0.985 . S
N385 C387 1.356 . S
N385 H390 0.984 . S
N385 H391 0.985 . S
C386 C380 1.379 . S
C386 C383 1.363 . S
C386 N384 1.356 . S
C387 C381 1.363 . S
C387 C382 1.379 . S
C387 N385 1.356 . S
N388 C380 1.356 . S
N388 H394 0.984 . S
N388 H395 0.984 . S
N389 C382 1.356 . S
N389 H392 0.984 . S
N389 H393 0.985 . S
H390 N385 0.984 . S
H391 N385 0.985 . S
H392 N389 0.984 . S
H393 N389 0.985 . S
H394 N388 0.984 . S
H395 N388 0.984 . S
H396 N384 0.984 . S
H397 N384 0.985 . S
C398 C399 1.363 . S
C398 C404 1.379 . S
C398 N406 1.356 . S
C399 C398 1.363 . S
C399 C405 1.363 . S
C400 C401 1.363 . S
C400 C405 1.379 . S
C400 N407 1.356 . S
C401 C400 1.363 . S
C401 C404 1.363 . S
N402 C404 1.356 . S
N402 H414 0.984 . S
N402 H415 0.985 . S
N403 C405 1.356 . S
N403 H408 0.984 . S
N403 H409 0.985 . S
C404 C398 1.379 . S
C404 C401 1.363 . S
C404 N402 1.356 . S
C405 C399 1.363 . S
C405 C400 1.379 . S
C405 N403 1.356 . S
N406 C398 1.356 . S
N406 H412 0.984 . S
N406 H413 0.984 . S
N407 C400 1.356 . S
N407 H410 0.984 . S
N407 H411 0.985 . S
H408 N403 0.984 . S
H409 N403 0.985 . S
H410 N407 0.984 . S
H411 N407 0.985 . S
H412 N406 0.984 . S
H413 N406 0.984 . S
H414 N402 0.984 . S
H415 N402 0.985 . S
C416 C417 1.363 . S
C416 C422 1.379 . S
C416 N424 1.356 . S
C417 C416 1.363 . S
C417 C423 1.363 . S
C418 C419 1.363 . S
C418 C423 1.379 . S
C418 N425 1.356 . S
C419 C418 1.363 . S
C419 C422 1.363 . S
N420 C422 1.356 . S
N420 H432 0.984 . S
N420 H433 0.985 . S
N421 C423 1.356 . S
N421 H426 0.984 . S
N421 H427 0.985 . S
C422 C416 1.379 . S
C422 C419 1.363 . S
C422 N420 1.356 . S
C423 C417 1.363 . S
C423 C418 1.379 . S
C423 N421 1.356 . S
N424 C416 1.356 . S
N424 H430 0.984 . S
N424 H431 0.984 . S
N425 C418 1.356 . S
N425 H428 0.984 . S
N425 H429 0.985 . S
H426 N421 0.984 . S
H427 N421 0.985 . S
H428 N425 0.984 . S
H429 N425 0.985 . S
H430 N424 0.984 . S
H431 N424 0.984 . S
H432 N420 0.984 . S
H433 N420 0.985 . S
C434 C435 1.363 . S
C434 C440 1.379 . S
C434 N442 1.356 . S
C435 C434 1.363 . S
C435 C441 1.363 . S
C436 C437 1.363 . S
C436 C441 1.379 . S
C436 N443 1.356 . S
C437 C436 1.363 . S
C437 C440 1.363 . S
N438 C440 1.356 . S
N438 H450 0.984 . S
N438 H451 0.985 . S
N439 C441 1.356 . S
N439 H444 0.984 . S
N439 H445 0.985 . S
C440 C434 1.379 . S
C440 C437 1.363 . S
C440 N438 1.356 . S
C441 C435 1.363 . S
C441 C436 1.379 . S
C441 N439 1.356 . S
N442 C434 1.356 . S
N442 H448 0.984 . S
N442 H449 0.984 . S
N443 C436 1.356 . S
N443 H446 0.984 . S
N443 H447 0.985 . S
H444 N439 0.984 . S
H445 N439 0.985 . S
H446 N443 0.984 . S
H447 N443 0.985 . S
H448 N442 0.984 . S
H449 N442 0.984 . S
H450 N438 0.984 . S
H451 N438 0.985 . S
C452 C453 1.363 . S
C452 C458 1.379 . S
C452 N460 1.356 . S
C453 C452 1.363 . S
C453 C459 1.363 . S
C454 C455 1.363 . S
C454 C459 1.379 . S
C454 N461 1.356 . S
C455 C454 1.363 . S
C455 C458 1.363 . S
N456 C458 1.356 . S
N456 H468 0.984 . S
N456 H469 0.985 . S
N457 C459 1.356 . S
N457 H462 0.984 . S
N457 H463 0.985 . S
C458 C452 1.379 . S
C458 C455 1.363 . S
C458 N456 1.356 . S
C459 C453 1.363 . S
C459 C454 1.379 . S
C459 N457 1.356 . S
N460 C452 1.356 . S
N460 H466 0.984 . S
N460 H467 0.984 . S
N461 C454 1.356 . S
N461 H464 0.984 . S
N461 H465 0.985 . S
H462 N457 0.984 . S
H463 N457 0.985 . S
H464 N461 0.984 . S
H465 N461 0.985 . S
H466 N460 0.984 . S
H467 N460 0.984 . S
H468 N456 0.984 . S
H469 N456 0.985 . S
C470 C471 1.363 . S
C470 C476 1.379 . S
C470 N478 1.356 . S
C471 C470 1.363 . S
C471 C477 1.363 . S
C472 C473 1.363 . S
C472 C477 1.379 . S
C472 N479 1.356 . S
C473 C472 1.363 . S
C473 C476 1.363 . S
N474 C476 1.356 . S
N474 H486 0.984 . S
N474 H487 0.985 . S
N475 C477 1.356 . S
N475 H480 0.984 . S
N475 H481 0.985 . S
C476 C470 1.379 . S
C476 C473 1.363 . S
C476 N474 1.356 . S
C477 C471 1.363 . S
C477 C472 1.379 . S
C477 N475 1.356 . S
N478 C470 1.356 . S
N478 H484 0.984 . S
N478 H485 0.984 . S
N479 C472 1.356 . S
N479 H482 0.984 . S
N479 H483 0.985 . S
H480 N475 0.984 . S
H481 N475 0.985 . S
H482 N479 0.984 . S
H483 N479 0.985 . S
H484 N478 0.984 . S
H485 N478 0.984 . S
H486 N474 0.984 . S
H487 N474 0.985 . S
C488 C489 1.363 . S
C488 C494 1.379 1_455 S
C488 N496 1.356 . S
C489 C488 1.363 . S
C489 C495 1.363 . S
C490 C491 1.363 1_455 S
C490 C495 1.379 1_565 S
C490 N497 1.356 . S
C491 C490 1.363 1_655 S
C491 C494 1.363 1_565 S
N492 C494 1.356 . S
N492 H504 0.984 . S
N492 H505 0.985 1_545 S
N493 C495 1.356 . S
N493 H498 0.984 . S
N493 H499 0.985 . S
C494 C488 1.379 1_655 S
C494 C491 1.363 1_545 S
C494 N492 1.356 . S
C495 C489 1.363 . S
C495 C490 1.379 1_545 S
C495 N493 1.356 . S
N496 C488 1.356 . S
N496 H502 0.984 . S
N496 H503 0.984 . S
N497 C490 1.356 . S
N497 H500 0.984 1_455 S
N497 H501 0.985 . S
H498 N493 0.984 . S
H499 N493 0.985 . S
H500 N497 0.984 1_655 S
H501 N497 0.985 . S
H502 N496 0.984 . S
H503 N496 0.984 . S
H504 N492 0.984 . S
H505 N492 0.985 1_565 S
C506 C507 1.363 1_455 S
C506 C512 1.379 . S
C506 N514 1.356 . S
C507 C506 1.363 1_655 S
C507 C513 1.363 . S
C508 C509 1.363 . S
C508 C513 1.379 1_465 S
C508 N515 1.356 . S
C509 C508 1.363 . S
C509 C512 1.363 1_565 S
N510 C512 1.356 . S
N510 H522 0.984 . S
N510 H523 0.985 1_545 S
N511 C513 1.356 . S
N511 H516 0.984 . S
N511 H517 0.985 . S
C512 C506 1.379 . S
C512 C509 1.363 1_545 S
C512 N510 1.356 . S
C513 C507 1.363 . S
C513 C508 1.379 1_645 S
C513 N511 1.356 . S
N514 C506 1.356 . S
N514 H520 0.984 . S
N514 H521 0.984 1_455 S
N515 C508 1.356 . S
N515 H518 0.984 . S
N515 H519 0.985 . S
H516 N511 0.984 . S
H517 N511 0.985 . S
H518 N515 0.984 . S
H519 N515 0.985 . S
H520 N514 0.984 . S
H521 N514 0.984 1_655 S
H522 N510 0.984 . S
H523 N510 0.985 1_565 S
C524 C525 1.363 1_455 S
C524 C530 1.379 . S
C524 N532 1.356 . S
C525 C524 1.363 1_655 S
C525 C531 1.363 . S
C526 C527 1.363 . S
C526 C531 1.379 1_465 S
C526 N533 1.356 . S
C527 C526 1.363 . S
C527 C530 1.363 1_565 S
N528 C530 1.356 . S
N528 H540 0.984 . S
N528 H541 0.985 1_545 S
N529 C531 1.356 . S
N529 H534 0.984 . S
N529 H535 0.985 . S
C530 C524 1.379 . S
C530 C527 1.363 1_545 S
C530 N528 1.356 . S
C531 C525 1.363 . S
C531 C526 1.379 1_645 S
C531 N529 1.356 . S
N532 C524 1.356 . S
N532 H538 0.984 . S
N532 H539 0.984 1_455 S
N533 C526 1.356 . S
N533 H536 0.984 . S
N533 H537 0.985 . S
H534 N529 0.984 . S
H535 N529 0.985 . S
H536 N533 0.984 . S
H537 N533 0.985 . S
H538 N532 0.984 . S
H539 N532 0.984 1_655 S
H540 N528 0.984 . S
H541 N528 0.985 1_565 S
C542 C543 1.363 1_545 S
C542 C548 1.379 1_655 S
C542 N550 1.356 . S
C543 C542 1.363 1_565 S
C543 C549 1.363 1_655 S
C544 C545 1.363 . S
C544 C549 1.379 1_545 S
C544 N551 1.356 . S
C545 C544 1.363 . S
C545 C548 1.363 . S
N546 C548 1.356 . S
N546 H558 0.984 . S
N546 H559 0.985 . S
N547 C549 1.356 . S
N547 H552 0.984 1_455 S
N547 H553 0.985 . S
C548 C542 1.379 1_455 S
C548 C545 1.363 . S
C548 N546 1.356 . S
C549 C543 1.363 1_455 S
C549 C544 1.379 1_565 S
C549 N547 1.356 . S
N550 C542 1.356 . S
N550 H556 0.984 . S
N550 H557 0.984 1_545 S
N551 C544 1.356 . S
N551 H554 0.984 . S
N551 H555 0.985 . S
H552 N547 0.984 1_655 S
H553 N547 0.985 . S
H554 N551 0.984 . S
H555 N551 0.985 . S
H556 N550 0.984 . S
H557 N550 0.984 1_565 S
H558 N546 0.984 . S
H559 N546 0.985 . S
C560 C561 1.363 . S
C560 C566 1.379 1_545 S
C560 N568 1.356 . S
C561 C560 1.363 . S
C561 C567 1.363 . S
C562 C563 1.363 1_545 S
C562 C567 1.379 . S
C562 N569 1.356 . S
C563 C562 1.363 1_565 S
C563 C566 1.363 . S
N564 C566 1.356 . S
N564 H576 0.984 . S
N564 H577 0.985 . S
N565 C567 1.356 . S
N565 H570 0.984 . S
N565 H571 0.985 . S
C566 C560 1.379 1_565 S
C566 C563 1.363 . S
C566 N564 1.356 . S
C567 C561 1.363 . S
C567 C562 1.379 . S
C567 N565 1.356 . S
N568 C560 1.356 . S
N568 H574 0.984 1_545 S
N568 H575 0.984 . S
N569 C562 1.356 . S
N569 H572 0.984 . S
N569 H573 0.985 . S
H570 N565 0.984 . S
H571 N565 0.985 . S
H572 N569 0.984 . S
H573 N569 0.985 . S
H574 N568 0.984 1_565 S
H575 N568 0.984 . S
H576 N564 0.984 . S
H577 N564 0.985 . S
C578 C579 1.363 . S
C578 C584 1.379 . S
C578 N586 1.356 . S
C579 C578 1.363 . S
C579 C585 1.363 . S
C580 C581 1.363 . S
C580 C585 1.379 1_655 S
C580 N587 1.356 . S
C581 C580 1.363 . S
C581 C584 1.363 1_655 S
N582 C584 1.356 . S
N582 H594 0.984 . S
N582 H595 0.985 . S
N583 C585 1.356 . S
N583 H588 0.984 . S
N583 H589 0.985 1_455 S
C584 C578 1.379 . S
C584 C581 1.363 1_455 S
C584 N582 1.356 . S
C585 C579 1.363 . S
C585 C580 1.379 1_455 S
C585 N583 1.356 . S
N586 C578 1.356 . S
N586 H592 0.984 . S
N586 H593 0.984 . S
N587 C580 1.356 . S
N587 H590 0.984 . S
N587 H591 0.985 . S
H588 N583 0.984 . S
H589 N583 0.985 1_655 S
H590 N587 0.984 . S
H591 N587 0.985 . S
H592 N586 0.984 . S
H593 N586 0.984 . S
H594 N582 0.984 . S
H595 N582 0.985 . S
C596 C597 1.363 1_545 S
C596 C602 1.379 . S
C596 N604 1.356 . S
C597 C596 1.363 1_565 S
C597 C603 1.363 . S
C598 C599 1.363 . S
C598 C603 1.379 1_545 S
C598 N605 1.356 . S
C599 C598 1.363 . S
C599 C602 1.363 . S
N600 C602 1.356 . S
N600 H612 0.984 . S
N600 H613 0.985 . S
N601 C603 1.356 . S
N601 H606 0.984 . S
N601 H607 0.985 . S
C602 C596 1.379 . S
C602 C599 1.363 . S
C602 N600 1.356 . S
C603 C597 1.363 . S
C603 C598 1.379 1_565 S
C603 N601 1.356 . S
N604 C596 1.356 . S
N604 H610 0.984 . S
N604 H611 0.984 . S
N605 C598 1.356 . S
N605 H608 0.984 . S
N605 H609 0.985 1_545 S
H606 N601 0.984 . S
H607 N601 0.985 . S
H608 N605 0.984 . S
H609 N605 0.985 1_565 S
H610 N604 0.984 . S
H611 N604 0.984 . S
H612 N600 0.984 . S
H613 N600 0.985 . S
C614 C615 1.363 . S
C614 C620 1.379 . S
C614 N622 1.356 . S
C615 C614 1.363 . S
C615 C621 1.363 . S
C616 C617 1.363 . S
C616 C621 1.379 1_655 S
C616 N623 1.356 . S
C617 C616 1.363 . S
C617 C620 1.363 1_655 S
N618 C620 1.356 . S
N618 H630 0.984 . S
N618 H631 0.985 . S
N619 C621 1.356 . S
N619 H624 0.984 . S
N619 H625 0.985 1_455 S
C620 C614 1.379 . S
C620 C617 1.363 1_455 S
C620 N618 1.356 . S
C621 C615 1.363 . S
C621 C616 1.379 1_455 S
C621 N619 1.356 . S
N622 C614 1.356 . S
N622 H628 0.984 . S
N622 H629 0.984 . S
N623 C616 1.356 . S
N623 H626 0.984 . S
N623 H627 0.985 . S
H624 N619 0.984 . S
H625 N619 0.985 1_655 S
H626 N623 0.984 . S
H627 N623 0.985 . S
H628 N622 0.984 . S
H629 N622 0.984 . S
H630 N618 0.984 . S
H631 N618 0.985 . S
C273 C20 1.694 . S
C275 C156 1.694 . S
C291 C190 1.694 . S
C293 C54 1.694 . S
C309 C88 1.693 . S
C311 C224 1.693 . S
C327 C258 1.693 . S
C329 C122 1.693 . S
C345 C172 1.470 . S
C347 C2 1.470 . S
C363 C206 1.470 . S
C365 C36 1.470 . S
C381 C70 1.470 . S
C383 C240 1.470 . S
C399 C138 1.470 . S
C401 C104 1.470 . S
C417 C135 1.497 . S
C419 C237 1.497 . S
C435 C33 1.497 . S
C437 C271 1.497 . S
C453 C67 1.497 . S
C455 C169 1.497 . S
C471 C101 1.497 . S
C473 C203 1.497 . S
C489 C5 0.760 . S
C491 C73 0.760 . S
C507 C39 0.762 . S
C509 C107 0.762 . S
C525 C209 0.762 . S
C527 C141 0.762 . S
C543 C243 0.760 . S
C545 C175 0.760 . S
C561 C9 1.385 . S
C563 C77 1.386 . S
C579 C111 1.386 . S
C581 C43 1.386 . S
C597 C145 1.386 . S
C599 C213 1.386 . S
C615 C179 1.385 . S
C617 C247 1.386 . S
