# Generated by pormake.
# Topology ske, (6)-cn, num edge types: 1
# Building blocks:
#     Node 0, Type 0, BuildingBlock: BETFAJ_clean_sbu_0, # of connection points: 6
#     Node 1, Type 0, BuildingBlock: BETFAJ_clean_sbu_0, # of connection points: 6
#     Node 2, Type 0, BuildingBlock: BETFAJ_clean_sbu_0, # of connection points: 6
#     Node 3, Type 0, BuildingBlock: BETFAJ_clean_sbu_0, # of connection points: 6
#     Node 4, Type 0, BuildingBlock: BETFAJ_clean_sbu_0, # of connection points: 6
#     Node 5, Type 0, BuildingBlock: BETFAJ_clean_sbu_0, # of connection points: 6
#     Node 6, Type 0, BuildingBlock: BETFAJ_clean_sbu_0, # of connection points: 6
#     Node 7, Type 0, BuildingBlock: BETFAJ_clean_sbu_0, # of connection points: 6
#     Edge 8, Type (0, 0), BuildingBlock: OJICUG_clean_linker_0, # of connection points: 2
#     Edge 9, Type (0, 0), BuildingBlock: OJICUG_clean_linker_0, # of connection points: 2
#     Edge 10, Type (0, 0), BuildingBlock: OJICUG_clean_linker_0, # of connection points: 2
#     Edge 11, Type (0, 0), BuildingBlock: OJICUG_clean_linker_0, # of connection points: 2
#     Edge 12, Type (0, 0), BuildingBlock: OJICUG_clean_linker_0, # of connection points: 2
#     Edge 13, Type (0, 0), BuildingBlock: OJICUG_clean_linker_0, # of connection points: 2
#     Edge 14, Type (0, 0), BuildingBlock: OJICUG_clean_linker_0, # of connection points: 2
#     Edge 15, Type (0, 0), BuildingBlock: OJICUG_clean_linker_0, # of connection points: 2
#     Edge 16, Type (0, 0), BuildingBlock: OJICUG_clean_linker_0, # of connection points: 2
#     Edge 17, Type (0, 0), BuildingBlock: OJICUG_clean_linker_0, # of connection points: 2
#     Edge 18, Type (0, 0), BuildingBlock: OJICUG_clean_linker_0, # of connection points: 2
#     Edge 19, Type (0, 0), BuildingBlock: OJICUG_clean_linker_0, # of connection points: 2
#     Edge 20, Type (0, 0), BuildingBlock: OJICUG_clean_linker_0, # of connection points: 2
#     Edge 21, Type (0, 0), BuildingBlock: OJICUG_clean_linker_0, # of connection points: 2
#     Edge 22, Type (0, 0), BuildingBlock: OJICUG_clean_linker_0, # of connection points: 2
#     Edge 23, Type (0, 0), BuildingBlock: OJICUG_clean_linker_0, # of connection points: 2
#     Edge 24, Type (0, 0), BuildingBlock: OJICUG_clean_linker_0, # of connection points: 2
#     Edge 25, Type (0, 0), BuildingBlock: OJICUG_clean_linker_0, # of connection points: 2
#     Edge 26, Type (0, 0), BuildingBlock: OJICUG_clean_linker_0, # of connection points: 2
#     Edge 27, Type (0, 0), BuildingBlock: OJICUG_clean_linker_0, # of connection points: 2
#     Edge 28, Type (0, 0), BuildingBlock: OJICUG_clean_linker_0, # of connection points: 2
#     Edge 29, Type (0, 0), BuildingBlock: OJICUG_clean_linker_0, # of connection points: 2
#     Edge 30, Type (0, 0), BuildingBlock: OJICUG_clean_linker_0, # of connection points: 2
#     Edge 31, Type (0, 0), BuildingBlock: OJICUG_clean_linker_0, # of connection points: 2
# Relax obj value: 0.204
# Max RMSD: 0.213
# Mean RMSD: 0.206
data_MOF--net-ske--node1-BETFAJ_clean_sbu_0--edge1-OJICUG_clean_linker_0
_symmetry_space_group_name_H-M    P1
_symmetry_Int_Tables_number       1
_symmetry_cell_setting            triclinic
loop_
_symmetry_equiv_pos_as_xyz
'x, y, z'
_cell_length_a     88.12113
_cell_length_b     21.315413
_cell_length_c     11.626731
_cell_angle_alpha  89.989899
_cell_angle_beta   90.010237
_cell_angle_gamma 84.24412
loop_
_atom_site_label
_atom_site_type_symbol
_atom_site_fract_x
_atom_site_fract_y
_atom_site_fract_z
_atom_type_partial_charge
Sm0 Sm 0.15974 0.25208 0.53432 0.0
Sm1 Sm 0.12591 0.25137 0.54275 0.0
C2 C 0.18856 0.2786 0.55027 0.0
C3 C 0.20348 0.26947 0.61058 0.0
C4 C 0.20958 0.32191 0.65884 0.0
C5 C 0.22448 0.31679 0.70219 0.0
C6 C 0.23374 0.25905 0.69788 0.0
C7 C 0.22747 0.20608 0.65236 0.0
C8 C 0.21253 0.21122 0.6091 0.0
C9 C 0.15053 0.13134 0.52471 0.0
C10 C 0.1432 0.24528 0.78702 0.0
C11 C 0.09673 0.2291 0.53389 0.0
C12 C 0.08049 0.24512 0.50163 0.0
C13 C 0.07363 0.2083 0.41997 0.0
C14 C 0.05773 0.21411 0.40594 0.0
C15 C 0.04834 0.2563 0.47445 0.0
C16 C 0.05528 0.29536 0.55184 0.0
C17 C 0.07114 0.2899 0.56525 0.0
C18 C 0.13549 0.37176 0.5483 0.0
C19 C 0.14274 0.25192 0.28932 0.0
O20 O 0.17719 0.31237 0.60001 0.0
O21 O 0.18422 0.23209 0.48917 0.0
O22 O 0.1446 0.17549 0.58761 0.0
O23 O 0.16258 0.14811 0.47415 0.0
O24 O 0.15473 0.2654 0.72974 0.0
O25 O 0.13167 0.22475 0.73087 0.0
O26 O 0.10675 0.20745 0.45692 0.0
O27 O 0.10255 0.26211 0.61431 0.0
O28 O 0.14084 0.3273 0.48402 0.0
O29 O 0.12425 0.35454 0.60811 0.0
O30 O 0.13105 0.23386 0.34793 0.0
O31 O 0.15443 0.27233 0.34372 0.0
H32 H 0.20297 0.36761 0.65954 0.0
H33 H 0.22893 0.3588 0.73516 0.0
H34 H 0.23415 0.16063 0.64918 0.0
H35 H 0.20824 0.16988 0.57199 0.0
H36 H 0.08048 0.17272 0.37091 0.0
H37 H 0.05275 0.18308 0.34606 0.0
H38 H 0.04839 0.32897 0.60475 0.0
H39 H 0.07598 0.31882 0.62951 0.0
Sm40 Sm 0.87147 0.25739 0.52876 0.0
Sm41 Sm 0.90473 0.25757 0.54209 0.0
C42 C 0.8422 0.23679 0.54136 0.0
C43 C 0.82745 0.24486 0.60426 0.0
C44 C 0.82144 0.19182 0.65111 0.0
C45 C 0.80659 0.19635 0.69542 0.0
C46 C 0.7973 0.25404 0.69328 0.0
C47 C 0.8035 0.30757 0.64958 0.0
C48 C 0.81837 0.30305 0.60544 0.0
C49 C 0.88112 0.37712 0.5135 0.0
C50 C 0.88743 0.26494 0.78393 0.0
C51 C 0.93402 0.27832 0.53557 0.0
C52 C 0.95026 0.2627 0.50268 0.0
C53 C 0.95703 0.29933 0.4202 0.0
C54 C 0.97293 0.29387 0.40592 0.0
C55 C 0.9824 0.25227 0.47504 0.0
C56 C 0.97555 0.21339 0.55325 0.0
C57 C 0.9597 0.21849 0.56689 0.0
C58 C 0.89521 0.13718 0.54973 0.0
C59 C 0.88849 0.25409 0.28598 0.0
O60 O 0.85328 0.19752 0.58189 0.0
O61 O 0.84705 0.28583 0.4911 0.0
O62 O 0.88614 0.33516 0.58429 0.0
O63 O 0.87054 0.35728 0.44977 0.0
O64 O 0.87606 0.24426 0.72547 0.0
O65 O 0.89891 0.28601 0.7285 0.0
O66 O 0.92403 0.30267 0.46061 0.0
O67 O 0.92813 0.2434 0.61261 0.0
O68 O 0.89012 0.18064 0.48245 0.0
O69 O 0.906 0.15555 0.61283 0.0
O70 O 0.90004 0.27302 0.3454 0.0
O71 O 0.87682 0.23357 0.34011 0.0
H72 H 0.82805 0.14613 0.6497 0.0
H73 H 0.80219 0.15397 0.72711 0.0
H74 H 0.79678 0.35299 0.64815 0.0
H75 H 0.82257 0.34484 0.56932 0.0
H76 H 0.95012 0.33449 0.37064 0.0
H77 H 0.97784 0.32472 0.34535 0.0
H78 H 0.98251 0.18024 0.60665 0.0
H79 H 0.95494 0.18978 0.63188 0.0
Sm80 Sm 0.12609 0.75094 0.50936 0.0
Sm81 Sm 0.15987 0.75094 0.51783 0.0
C82 C 0.09711 0.72582 0.51945 0.0
C83 C 0.0808 0.7427 0.54882 0.0
C84 C 0.07376 0.70804 0.6329 0.0
C85 C 0.05784 0.71443 0.64545 0.0
C86 C 0.0486 0.75504 0.57307 0.0
C87 C 0.0557 0.79199 0.49295 0.0
C88 C 0.07158 0.78596 0.48098 0.0
C89 C 0.13525 0.87223 0.50684 0.0
C90 C 0.14297 0.75234 0.76216 0.0
C91 C 0.18906 0.77242 0.50433 0.0
C92 C 0.20382 0.76416 0.44194 0.0
C93 C 0.20962 0.81693 0.39225 0.0
C94 C 0.22443 0.81263 0.34761 0.0
C95 C 0.2339 0.75546 0.35216 0.0
C96 C 0.22794 0.70214 0.39893 0.0
C97 C 0.21309 0.70644 0.44349 0.0
C98 C 0.15004 0.63153 0.53196 0.0
C99 C 0.14341 0.74605 0.26439 0.0
O100 O 0.10705 0.70853 0.59991 0.0
O101 O 0.10294 0.75554 0.43457 0.0
O102 O 0.14122 0.82671 0.56612 0.0
O103 O 0.12316 0.85626 0.45576 0.0
O104 O 0.13145 0.73259 0.7037 0.0
O105 O 0.15448 0.77389 0.70732 0.0
O106 O 0.17793 0.81034 0.46108 0.0
O107 O 0.18432 0.72397 0.55743 0.0
O108 O 0.14484 0.67437 0.46338 0.0
O109 O 0.16106 0.65009 0.59274 0.0
O110 O 0.15514 0.76412 0.32204 0.0
O111 O 0.13163 0.72727 0.3199 0.0
H112 H 0.08051 0.67366 0.68528 0.0
H113 H 0.05274 0.68502 0.70754 0.0
H114 H 0.04893 0.8244 0.43702 0.0
H115 H 0.07656 0.81325 0.41484 0.0
H116 H 0.20286 0.8623 0.39158 0.0
H117 H 0.22867 0.85486 0.31363 0.0
H118 H 0.23481 0.65712 0.40233 0.0
H119 H 0.20905 0.66491 0.48188 0.0
Sm120 Sm 0.90493 0.75775 0.50429 0.0
Sm121 Sm 0.87166 0.75701 0.5175 0.0
C122 C 0.93417 0.77925 0.51082 0.0
C123 C 0.95042 0.76385 0.54373 0.0
C124 C 0.95725 0.80162 0.62401 0.0
C125 C 0.97314 0.79606 0.63824 0.0
C126 C 0.98257 0.75318 0.57128 0.0
C127 C 0.97567 0.71328 0.49524 0.0
C128 C 0.95981 0.7185 0.48164 0.0
C129 C 0.89556 0.637 0.4972 0.0
C130 C 0.88868 0.75407 0.76037 0.0
C131 C 0.84241 0.73605 0.50539 0.0
C132 C 0.82774 0.74267 0.44152 0.0
C133 C 0.82216 0.68906 0.3932 0.0
C134 C 0.80737 0.69212 0.34803 0.0
C135 C 0.79771 0.74885 0.35077 0.0
C136 C 0.80346 0.80297 0.39606 0.0
C137 C 0.81828 0.79991 0.44106 0.0
C138 C 0.88125 0.8767 0.53337 0.0
C139 C 0.88761 0.76473 0.26239 0.0
O140 O 0.92416 0.80324 0.58594 0.0
O141 O 0.92832 0.74433 0.43358 0.0
O142 O 0.89038 0.68058 0.56382 0.0
O143 O 0.90636 0.65545 0.43431 0.0
O144 O 0.90022 0.77305 0.70099 0.0
O145 O 0.87701 0.73355 0.70627 0.0
O146 O 0.85355 0.69605 0.46791 0.0
O147 O 0.8472 0.78614 0.55241 0.0
O148 O 0.88625 0.83497 0.46202 0.0
O149 O 0.87073 0.85657 0.59735 0.0
O150 O 0.87625 0.7439 0.32082 0.0
O151 O 0.89907 0.78596 0.31782 0.0
H152 H 0.95037 0.83765 0.67183 0.0
H153 H 0.97809 0.82773 0.69707 0.0
H154 H 0.98258 0.67912 0.44358 0.0
H155 H 0.95501 0.68886 0.41839 0.0
H156 H 0.82905 0.64401 0.39409 0.0
H157 H 0.8033 0.64931 0.31516 0.0
H158 H 0.79645 0.84767 0.39805 0.0
H159 H 0.82213 0.84207 0.47845 0.0
Sm160 Sm 0.66055 0.75445 1.02262 0.0
Sm161 Sm 0.62738 0.76323 0.03526 0.0
C162 C 0.69023 0.76778 0.03684 0.0
C163 C 0.7047 0.7612 0.10345 0.0
C164 C 0.7102 0.81469 0.15294 0.0
C165 C 0.72492 0.81147 0.19951 0.0
C166 C 0.73458 0.75473 0.19702 0.0
C167 C 0.72887 0.70071 0.15098 0.0
C168 C 0.71414 0.70392 0.10453 0.0
C169 C 0.64917 0.63851 1.00428 0.0
C170 C 0.64412 0.75101 0.27785 0.0
C171 C 0.59753 0.75835 1.02304 0.0
C172 C 0.58074 0.75751 1.01979 0.0
C173 C 0.57381 0.71737 0.94456 0.0
C174 C 0.55789 0.71736 0.94231 0.0
C175 C 0.5486 0.75705 1.01607 0.0
C176 C 0.5556 0.79707 0.0912 0.0
C177 C 0.57145 0.79743 0.09279 0.0
C178 C 0.63901 0.87906 0.04709 0.0
C179 C 0.64373 0.76213 0.77909 0.0
O180 O 0.67955 0.81215 0.06522 0.0
O181 O 0.6848 0.71702 0.99797 0.0
O182 O 0.64471 0.68057 0.07681 0.0
O183 O 0.65992 0.65648 0.94001 0.0
O184 O 0.656 0.76734 0.2194 0.0
O185 O 0.63204 0.7349 0.22284 0.0
O186 O 0.60716 0.71533 0.97531 0.0
O187 O 0.60382 0.80322 0.07561 0.0
O188 O 0.64317 0.83588 0.97631 0.0
O189 O 0.62866 0.86163 0.11543 0.0
O190 O 0.6317 0.74814 0.83851 0.0
O191 O 0.65596 0.77754 0.83287 0.0
H192 H 0.70335 0.85981 0.15168 0.0
H193 H 0.72896 0.85421 0.23299 0.0
H194 H 0.73588 0.65598 0.14918 0.0
H195 H 0.71036 0.66189 0.06612 0.0
H196 H 0.58068 0.68611 0.8873 0.0
H197 H 0.55287 0.68558 0.88411 0.0
H198 H 0.54879 0.82875 0.14815 0.0
H199 H 0.57643 0.82894 0.15179 0.0
Sm200 Sm 0.37096 0.74674 0.02687 0.0
Sm201 Sm 0.40408 0.74329 0.03956 0.0
C202 C 0.34158 0.72844 0.04172 0.0
C203 C 0.32703 0.73646 0.107 0.0
C204 C 0.3213 0.68362 0.15695 0.0
C205 C 0.30656 0.68794 0.20311 0.0
C206 C 0.29711 0.7452 0.19971 0.0
C207 C 0.30305 0.79861 0.15313 0.0
C208 C 0.31781 0.7943 0.10714 0.0
C209 C 0.38109 0.86502 1.01045 0.0
C210 C 0.38732 0.75305 0.28228 0.0
C211 C 0.4338 0.75161 0.02712 0.0
C212 C 0.45054 0.75421 0.02425 0.0
C213 C 0.45727 0.79379 0.94687 0.0
C214 C 0.47317 0.79468 0.94383 0.0
C215 C 0.48262 0.75647 1.01898 0.0
C216 C 0.4758 0.7172 0.09658 0.0
C217 C 0.45998 0.71594 0.09892 0.0
C218 C 0.39354 0.62545 0.05114 0.0
C219 C 0.38782 0.74183 0.78363 0.0
O220 O 0.35259 0.68761 0.07854 0.0
O221 O 0.34655 0.7779 0.99375 0.0
O222 O 0.38603 0.82321 0.08197 0.0
O223 O 0.37048 0.84565 0.94655 0.0
O224 O 0.37563 0.73494 0.22381 0.0
O225 O 0.39921 0.77098 0.22724 0.0
O226 O 0.42391 0.79382 0.97973 0.0
O227 O 0.42782 0.70595 0.07971 0.0
O228 O 0.38902 0.66808 0.98032 0.0
O229 O 0.40364 0.6445 0.11989 0.0
O230 O 0.39957 0.7586 0.8431 0.0
O231 O 0.3759 0.72341 0.83753 0.0
H232 H 0.32802 0.63816 0.15643 0.0
H233 H 0.30235 0.64567 0.23706 0.0
H234 H 0.29619 0.84369 0.15064 0.0
H235 H 0.32179 0.8359 0.06857 0.0
H236 H 0.45028 0.82374 0.88822 0.0
H237 H 0.47805 0.82585 0.8837 0.0
H238 H 0.48274 0.68665 0.15468 0.0
H239 H 0.45515 0.68488 0.15957 0.0
Sm240 Sm 0.62673 0.25629 0.99501 0.0
Sm241 Sm 0.65998 0.26193 1.00784 0.0
C242 C 0.59767 0.2316 1.00322 0.0
C243 C 0.58132 0.25059 0.02892 0.0
C244 C 0.57358 0.21531 0.10781 0.0
C245 C 0.55763 0.22427 0.11715 0.0
C246 C 0.54903 0.26834 0.04682 0.0
C247 C 0.55686 0.30567 0.97176 0.0
C248 C 0.57279 0.29697 0.96292 0.0
C249 C 0.63506 0.37871 0.98832 0.0
C250 C 0.64304 0.2611 0.25018 0.0
C251 C 0.68895 0.28699 0.99478 0.0
C252 C 0.70373 0.27816 0.93261 0.0
C253 C 0.70985 0.33084 0.88542 0.0
C254 C 0.72469 0.32568 0.84093 0.0
C255 C 0.73386 0.26768 0.84313 0.0
C256 C 0.72756 0.2145 0.88731 0.0
C257 C 0.71269 0.21966 0.93162 0.0
C258 C 0.65157 0.14055 0.02474 0.0
C259 C 0.64412 0.25095 0.75281 0.0
O260 O 0.60733 0.21679 0.08664 0.0
O261 O 0.60384 0.25826 0.91634 0.0
O262 O 0.64065 0.33553 0.05405 0.0
O263 O 0.62429 0.35907 0.92666 0.0
O264 O 0.63197 0.2385 0.19049 0.0
O265 O 0.65417 0.28568 0.19601 0.0
O266 O 0.67765 0.32316 0.94918 0.0
O267 O 0.68444 0.23912 0.05095 0.0
O268 O 0.64605 0.18154 0.9538 0.0
O269 O 0.66209 0.16213 0.08663 0.0
O270 O 0.65527 0.27353 0.81101 0.0
O271 O 0.63284 0.22839 0.80851 0.0
H272 H 0.57979 0.17861 0.15856 0.0
H273 H 0.552 0.19433 0.1752 0.0
H274 H 0.55063 0.34069 0.91756 0.0
H275 H 0.57834 0.32488 0.90081 0.0
H276 H 0.70332 0.37671 0.88658 0.0
H277 H 0.72918 0.36781 0.80892 0.0
H278 H 0.73418 0.16888 0.88883 0.0
H279 H 0.70838 0.1781 0.96783 0.0
Sm280 Sm 0.40466 0.24413 1.00711 0.0
Sm281 Sm 0.37126 0.24546 1.01901 0.0
C282 C 0.43424 0.25646 1.02189 0.0
C283 C 0.45091 0.26173 0.02664 0.0
C284 C 0.45718 0.30067 0.10781 0.0
C285 C 0.47301 0.30404 0.11284 0.0
C286 C 0.48288 0.2691 0.03584 0.0
C287 C 0.47654 0.23051 0.95436 0.0
C288 C 0.46079 0.2267 0.95012 0.0
C289 C 0.3945 0.12536 0.99648 0.0
C290 C 0.38819 0.24124 0.26247 0.0
C291 C 0.34194 0.22585 1.0033 0.0
C292 C 0.32729 0.23456 0.93905 0.0
C293 C 0.32128 0.18193 0.89064 0.0
C294 C 0.30646 0.18698 0.84536 0.0
C295 C 0.29722 0.24479 0.84806 0.0
C296 C 0.30344 0.29794 0.89316 0.0
C297 C 0.31827 0.2929 0.93825 0.0
C298 C 0.3811 0.36409 0.03552 0.0
C299 C 0.38779 0.2522 0.76398 0.0
O300 O 0.42397 0.29669 0.07021 0.0
O301 O 0.42871 0.21051 0.96676 0.0
O302 O 0.3897 0.16831 0.06573 0.0
O303 O 0.40485 0.14423 0.92968 0.0
O304 O 0.39989 0.25878 0.20332 0.0
O305 O 0.37636 0.22206 0.20836 0.0
O306 O 0.35302 0.18625 0.96374 0.0
O307 O 0.34682 0.27461 0.05437 0.0
O308 O 0.38619 0.32239 0.96425 0.0
O309 O 0.37041 0.34453 0.09836 0.0
O310 O 0.37611 0.23385 0.82235 0.0
O311 O 0.39965 0.27065 0.8189 0.0
H312 H 0.44987 0.32815 0.16804 0.0
H313 H 0.4775 0.33455 0.17612 0.0
H314 H 0.48379 0.20235 0.89471 0.0
H315 H 0.45634 0.19619 0.88658 0.0
H316 H 0.32783 0.13613 0.89167 0.0
H317 H 0.30205 0.14487 0.81258 0.0
H318 H 0.29676 0.34344 0.89507 0.0
H319 H 0.32247 0.3344 0.97551 0.0
C320 C 0.25418 0.28796 0.83488 0.0
C321 C 0.24999 0.25478 0.73713 0.0
H322 H 0.27216 0.31036 0.94695 0.0
C323 C 0.26153 0.21859 0.67563 0.0
H324 H 0.24562 0.3156 0.88545 0.0
C325 C 0.2768 0.21568 0.71086 0.0
C326 C 0.28098 0.24894 0.80854 0.0
H327 H 0.25881 0.19331 0.59875 0.0
H328 H 0.28537 0.18798 0.66047 0.0
C329 C 0.26945 0.28509 0.87005 0.0
C330 C 0.75427 0.297 0.70636 0.0
C331 C 0.75008 0.26336 0.80356 0.0
H332 H 0.77224 0.31991 0.5948 0.0
C333 C 0.76161 0.22675 0.86447 0.0
H334 H 0.7457 0.32497 0.65632 0.0
C335 C 0.77688 0.22398 0.82933 0.0
C336 C 0.78106 0.25777 0.73231 0.0
H337 H 0.75889 0.2011 0.94092 0.0
H338 H 0.78544 0.19603 0.87938 0.0
C339 C 0.76953 0.29423 0.67123 0.0
C340 C 0.26923 0.78307 0.1776 0.0
C341 C 0.28095 0.74842 0.23985 0.0
H342 H 0.24531 0.81142 0.16231 0.0
C343 C 0.27702 0.71566 0.33878 0.0
H344 H 0.27177 0.80789 0.09976 0.0
C345 C 0.2618 0.71756 0.37454 0.0
C346 C 0.25008 0.75221 0.31228 0.0
H347 H 0.28574 0.68913 0.38967 0.0
H348 H 0.25925 0.69273 0.45236 0.0
C349 C 0.25402 0.78494 0.21332 0.0
C350 C 0.75452 0.78635 0.33571 0.0
C351 C 0.75073 0.75265 0.23749 0.0
H352 H 0.77215 0.81102 0.44901 0.0
C353 C 0.76257 0.71809 0.17635 0.0
H354 H 0.74572 0.81283 0.38581 0.0
C355 C 0.77775 0.71719 0.21243 0.0
C356 C 0.78155 0.75088 0.31063 0.0
H357 H 0.76014 0.69257 0.09906 0.0
H358 H 0.78656 0.69073 0.16226 0.0
C359 C 0.76972 0.78545 0.37178 0.0
C360 C 0.15422 0.95191 0.53334 0.0
C361 C 0.13907 0.93857 0.51749 0.0
H362 H 0.16977 0.02328 0.5445 0.0
C363 C 0.12761 0.98942 0.50909 0.0
H364 H 0.16328 0.91396 0.54088 0.0
C365 C 0.13124 0.05207 0.51644 0.0
C366 C 0.14647 0.06527 0.52756 0.0
H367 H 0.1158 0.98075 0.49743 0.0
H368 H 0.12219 0.09019 0.50954 0.0
C369 C 0.15793 0.01452 0.53566 0.0
C370 C 0.88751 0.47254 0.40551 0.0
C371 C 0.88523 0.44301 0.51129 0.0
H372 H 0.89301 0.55644 0.31882 0.0
C373 C 0.88632 0.47782 0.61318 0.0
H374 H 0.88671 0.44681 0.32573 0.0
C375 C 0.88927 0.54147 0.60892 0.0
C376 C 0.89182 0.5706 0.50299 0.0
H377 H 0.88451 0.45629 0.69581 0.0
H378 H 0.88985 0.56757 0.68848 0.0
C379 C 0.89109 0.5352 0.40156 0.0
C380 C 0.88665 0.97717 0.43351 0.0
C381 C 0.88523 0.94278 0.53555 0.0
H382 H 0.89031 0.06673 0.35798 0.0
C383 C 0.88703 0.97294 0.64142 0.0
H384 H 0.8852 0.95517 0.35078 0.0
C385 C 0.89047 0.03576 0.64541 0.0
C386 C 0.89153 0.07071 0.54378 0.0
H387 H 0.88597 0.94756 0.72132 0.0
H388 H 0.89203 0.05747 0.72828 0.0
C389 C 0.88946 0.04099 0.43767 0.0
C390 C 0.14506 0.53055 0.43191 0.0
C391 C 0.14582 0.5658 0.53366 0.0
H392 H 0.1418 0.44038 0.3569 0.0
C393 C 0.1433 0.53657 0.63929 0.0
H394 H 0.1471 0.55181 0.34943 0.0
C395 C 0.13978 0.47384 0.64325 0.0
C396 C 0.13936 0.438 0.5421 0.0
H397 H 0.14388 0.56259 0.71897 0.0
H398 H 0.13765 0.45291 0.72588 0.0
C399 C 0.14216 0.46679 0.43628 0.0
C400 C 0.64136 0.54518 0.8979 0.0
C401 C 0.64472 0.57326 1.00294 0.0
H402 H 0.63523 0.46215 0.81185 0.0
C403 C 0.64478 0.53708 0.10405 0.0
H404 H 0.64133 0.57202 0.81871 0.0
C405 C 0.64193 0.47336 0.09944 0.0
C406 C 0.63838 0.44556 0.9943 0.0
H407 H 0.6475 0.55747 0.18592 0.0
H408 H 0.64231 0.44606 0.17817 0.0
C409 C 0.63791 0.48241 0.89396 0.0
C410 C 0.38675 0.96133 0.9035 0.0
C411 C 0.38501 0.93096 1.00917 0.0
H412 H 0.39151 0.04629 0.81733 0.0
C413 C 0.38624 0.96515 0.11155 0.0
H414 H 0.3858 0.93601 0.82342 0.0
C415 C 0.38885 0.02912 0.10788 0.0
C416 C 0.39086 0.05906 1.00194 0.0
H417 H 0.38479 0.94288 0.19405 0.0
H418 H 0.3896 0.0548 0.18774 0.0
C419 C 0.38997 0.02433 0.90001 0.0
C420 C 0.38615 0.46448 0.93477 0.0
C421 C 0.38483 0.43024 0.03702 0.0
H422 H 0.38933 0.55445 0.85901 0.0
C423 C 0.38619 0.46086 0.14287 0.0
H424 H 0.38498 0.44201 0.85211 0.0
C425 C 0.38911 0.52418 0.14677 0.0
C426 C 0.3901 0.55895 0.04497 0.0
H427 H 0.38515 0.43552 0.22284 0.0
H428 H 0.39037 0.54633 0.22965 0.0
C429 C 0.38848 0.52875 0.93876 0.0
C430 C 0.64749 0.04313 0.13475 0.0
C431 C 0.64816 0.07388 0.02829 0.0
H432 H 0.6437 0.95775 0.22363 0.0
C433 C 0.64615 0.03966 0.92697 0.0
H434 H 0.64903 0.06843 0.21406 0.0
C435 C 0.64375 0.97545 0.93232 0.0
C436 C 0.64275 0.94521 0.03921 0.0
H437 H 0.64673 0.0622 0.84379 0.0
H438 H 0.64229 0.94991 0.85319 0.0
C439 C 0.64449 0.97987 0.14022 0.0
C440 C 0.13063 0.22803 0.09906 0.0
C441 C 0.14278 0.24998 0.16074 0.0
H442 H 0.12121 0.20906 0.93396 0.0
C443 C 0.15515 0.26959 0.09805 0.0
H444 H 0.12092 0.21241 0.14401 0.0
C445 C 0.15534 0.26756 0.9774 0.0
C446 C 0.14318 0.24579 0.91564 0.0
H447 H 0.16475 0.2867 0.14211 0.0
H448 H 0.16504 0.28336 0.9326 0.0
C449 C 0.13082 0.22597 0.97824 0.0
C450 C 0.90028 0.28035 0.09575 0.0
C451 C 0.88837 0.25655 0.15743 0.0
H452 H 0.9093 0.30204 0.93077 0.0
C453 C 0.87605 0.23639 0.09484 0.0
H454 H 0.90992 0.29656 0.14063 0.0
C455 C 0.87565 0.23972 0.97427 0.0
C456 C 0.88755 0.2634 0.91253 0.0
H457 H 0.86662 0.21793 0.13894 0.0
H458 H 0.866 0.22341 0.9295 0.0
C459 C 0.89987 0.28371 0.97505 0.0
C460 C 0.13104 0.72694 0.07318 0.0
C461 C 0.14342 0.74661 0.13578 0.0
H462 H 0.12114 0.71329 0.9075 0.0
C463 C 0.15562 0.76807 0.07401 0.0
H464 H 0.12141 0.71019 0.11742 0.0
C465 C 0.15542 0.77004 0.95333 0.0
C466 C 0.14303 0.75055 0.89071 0.0
H467 H 0.16533 0.78373 0.11884 0.0
H468 H 0.16504 0.78692 0.90917 0.0
C469 C 0.13086 0.72882 0.95241 0.0
C470 C 0.90043 0.78047 0.95065 0.0
C471 C 0.88856 0.75651 0.88892 0.0
H472 H 0.90943 0.80223 0.11566 0.0
C473 C 0.87625 0.73612 0.95144 0.0
H474 H 0.91006 0.79685 0.90582 0.0
C475 C 0.87585 0.73939 0.07201 0.0
C476 C 0.88773 0.76323 0.1338 0.0
H477 H 0.86685 0.71752 0.90729 0.0
H478 H 0.86622 0.72291 0.11672 0.0
C479 C 0.90003 0.78377 0.07134 0.0
C480 C 0.63135 0.7372 0.46927 0.0
C481 C 0.64414 0.75251 0.40623 0.0
H482 H 0.62112 0.72841 0.63527 0.0
C483 C 0.65671 0.77124 0.46722 0.0
H484 H 0.62143 0.72275 0.4255 0.0
C485 C 0.6565 0.77469 0.58768 0.0
C486 C 0.6437 0.75958 0.65077 0.0
H487 H 0.66673 0.78359 0.42195 0.0
H488 H 0.66642 0.78925 0.6313 0.0
C489 C 0.63114 0.74068 0.58987 0.0
C490 C 0.40011 0.7657 0.59442 0.0
C491 C 0.3878 0.7445 0.65528 0.0
H492 H 0.4096 0.78539 0.43009 0.0
C493 C 0.37523 0.72716 0.59212 0.0
H494 H 0.40995 0.77973 0.63987 0.0
C495 C 0.37499 0.73063 0.47164 0.0
C496 C 0.38731 0.75159 0.41069 0.0
H497 H 0.3655 0.71082 0.63569 0.0
H498 H 0.36515 0.71651 0.42631 0.0
C499 C 0.39987 0.76917 0.47381 0.0
C500 C 0.63167 0.23194 0.44057 0.0
C501 C 0.64321 0.25831 0.37886 0.0
H502 H 0.62291 0.20862 0.60563 0.0
C503 C 0.6552 0.28115 0.44159 0.0
H504 H 0.62229 0.21365 0.39563 0.0
C505 C 0.65561 0.27804 0.56222 0.0
C506 C 0.64403 0.252 0.62404 0.0
H507 H 0.66435 0.30161 0.39753 0.0
H508 H 0.66498 0.29651 0.60701 0.0
C509 C 0.63207 0.22888 0.56137 0.0
C510 C 0.40046 0.26535 0.45165 0.0
C511 C 0.38819 0.24378 0.39086 0.0
H512 H 0.40995 0.28526 0.61588 0.0
C513 C 0.37568 0.22596 0.45415 0.0
H514 H 0.41026 0.27974 0.40614 0.0
C515 C 0.37547 0.22934 0.57467 0.0
C516 C 0.38776 0.25069 0.63553 0.0
H517 H 0.36598 0.20933 0.41064 0.0
H518 H 0.36567 0.21488 0.62008 0.0
C519 C 0.40025 0.26872 0.57227 0.0
C520 C 0.02327 0.25583 0.57644 0.0
C521 C 0.03142 0.25613 0.4725 0.0
H522 H 1.00158 0.25428 0.65841 0.0
C523 C 0.02331 0.25463 0.36837 0.0
H524 H 0.02917 0.25611 0.65818 0.0
C525 C 1.0074 0.25359 0.36851 0.0
C526 C 0.99931 0.25283 0.47278 0.0
H527 H 0.02925 0.25492 0.28688 0.0
H528 H 1.00144 0.25264 0.28713 0.0
C529 C 1.00747 0.25398 0.57658 0.0
C530 C 1.00752 0.75583 0.67804 0.0
C531 C 0.9995 0.75319 0.57373 0.0
H532 H 0.02932 0.75819 0.76003 0.0
C533 C 1.00775 0.75193 0.47011 0.0
H534 H 1.0015 0.75674 0.75931 0.0
C535 C 0.02358 0.75325 0.47048 0.0
C536 C 0.03165 0.75543 0.57452 0.0
H537 H 1.00193 0.75074 0.38818 0.0
H538 H 0.02954 0.75163 0.38891 0.0
C539 C 0.02344 0.75638 0.67846 0.0
C540 C 0.5235 0.75585 0.91222 0.0
C541 C 0.5317 0.75662 1.01598 0.0
H542 H 0.5016 0.7556 0.83164 0.0
C543 C 0.5236 0.75776 0.1203 0.0
H544 H 0.52938 0.7555 0.83041 0.0
C545 C 0.50773 0.75796 0.12099 0.0
C546 C 0.49951 0.7574 1.01738 0.0
H547 H 0.52956 0.75782 0.20177 0.0
H548 H 0.50186 0.75909 0.20295 0.0
C549 C 0.50758 0.75659 0.91291 0.0
C550 C 0.50814 0.27589 0.93777 0.0
C551 C 0.49974 0.27229 0.04001 0.0
H552 H 0.5301 0.27748 0.85979 0.0
C553 C 0.50765 0.2698 0.14539 0.0
H554 H 0.50243 0.27847 0.85517 0.0
C555 C 0.52359 0.26932 0.14812 0.0
C556 C 0.532 0.27214 0.04561 0.0
H557 H 0.50155 0.26657 0.2257 0.0
H558 H 0.52934 0.26664 0.23056 0.0
C559 C 0.52402 0.27601 0.94054 0.0
loop_
_geom_bond_atom_site_label_1
_geom_bond_atom_site_label_2
_geom_bond_distance
_geom_bond_site_symmetry_2
_ccdc_geom_bond_type
Sm0 C2 2.846 . S
Sm0 O20 2.543 . S
Sm0 O21 2.450 . S
Sm0 O22 2.681 . S
Sm0 O23 2.464 . S
Sm0 O24 2.396 . S
Sm0 O28 2.386 . S
Sm0 O31 2.408 . S
Sm1 C11 2.846 . S
Sm1 O22 2.386 . S
Sm1 O25 2.408 . S
Sm1 O26 2.543 . S
Sm1 O27 2.450 . S
Sm1 O28 2.681 . S
Sm1 O29 2.464 . S
Sm1 O30 2.396 . S
C2 Sm0 2.846 . S
C2 C3 1.506 . S
C2 O20 1.261 . S
C2 O21 1.242 . S
C3 C2 1.506 . S
C3 C4 1.358 . S
C3 C8 1.382 . S
C4 C3 1.358 . S
C4 C5 1.385 . S
C4 H32 0.930 . S
C5 C4 1.385 . S
C5 C6 1.395 . S
C5 H33 0.929 . S
C6 C5 1.395 . S
C6 C7 1.335 . S
C7 C6 1.335 . S
C7 C8 1.398 . S
C7 H34 0.930 . S
C8 C3 1.382 . S
C8 C7 1.398 . S
C8 H35 0.929 . S
C9 O22 1.271 . S
C9 O23 1.251 . S
C10 O24 1.252 . S
C10 O25 1.272 . S
C11 Sm1 2.846 . S
C11 C12 1.506 . S
C11 O26 1.261 . S
C11 O27 1.242 . S
C12 C11 1.506 . S
C12 C13 1.358 . S
C12 C17 1.382 . S
C13 C12 1.358 . S
C13 C14 1.385 . S
C13 H36 0.930 . S
C14 C13 1.385 . S
C14 C15 1.395 . S
C14 H37 0.929 . S
C15 C14 1.395 . S
C15 C16 1.335 . S
C16 C15 1.335 . S
C16 C17 1.398 . S
C16 H38 0.930 . S
C17 C12 1.382 . S
C17 C16 1.398 . S
C17 H39 0.929 . S
C18 O28 1.271 . S
C18 O29 1.251 . S
C19 O30 1.252 . S
C19 O31 1.272 . S
O20 Sm0 2.543 . S
O20 C2 1.261 . S
O21 Sm0 2.450 . S
O21 C2 1.242 . S
O22 Sm0 2.681 . S
O22 Sm1 2.386 . S
O22 C9 1.271 . S
O23 Sm0 2.464 . S
O23 C9 1.251 . S
O24 Sm0 2.396 . S
O24 C10 1.252 . S
O25 Sm1 2.408 . S
O25 C10 1.272 . S
O26 Sm1 2.543 . S
O26 C11 1.261 . S
O27 Sm1 2.450 . S
O27 C11 1.242 . S
O28 Sm0 2.386 . S
O28 Sm1 2.681 . S
O28 C18 1.271 . S
O29 Sm1 2.464 . S
O29 C18 1.251 . S
O30 Sm1 2.396 . S
O30 C19 1.252 . S
O31 Sm0 2.408 . S
O31 C19 1.272 . S
H32 C4 0.930 . S
H33 C5 0.929 . S
H34 C7 0.930 . S
H35 C8 0.929 . S
H36 C13 0.930 . S
H37 C14 0.929 . S
H38 C16 0.930 . S
H39 C17 0.929 . S
Sm40 C42 2.846 . S
Sm40 O60 2.543 . S
Sm40 O61 2.450 . S
Sm40 O62 2.681 . S
Sm40 O63 2.464 . S
Sm40 O64 2.396 . S
Sm40 O68 2.386 . S
Sm40 O71 2.408 . S
Sm41 C51 2.846 . S
Sm41 O62 2.386 . S
Sm41 O65 2.408 . S
Sm41 O66 2.543 . S
Sm41 O67 2.450 . S
Sm41 O68 2.681 . S
Sm41 O69 2.464 . S
Sm41 O70 2.396 . S
C42 Sm40 2.846 . S
C42 C43 1.506 . S
C42 O60 1.261 . S
C42 O61 1.242 . S
C43 C42 1.506 . S
C43 C44 1.358 . S
C43 C48 1.382 . S
C44 C43 1.358 . S
C44 C45 1.385 . S
C44 H72 0.930 . S
C45 C44 1.385 . S
C45 C46 1.395 . S
C45 H73 0.929 . S
C46 C45 1.395 . S
C46 C47 1.335 . S
C47 C46 1.335 . S
C47 C48 1.398 . S
C47 H74 0.930 . S
C48 C43 1.382 . S
C48 C47 1.398 . S
C48 H75 0.929 . S
C49 O62 1.271 . S
C49 O63 1.251 . S
C50 O64 1.252 . S
C50 O65 1.272 . S
C51 Sm41 2.846 . S
C51 C52 1.506 . S
C51 O66 1.261 . S
C51 O67 1.242 . S
C52 C51 1.506 . S
C52 C53 1.358 . S
C52 C57 1.382 . S
C53 C52 1.358 . S
C53 C54 1.385 . S
C53 H76 0.930 . S
C54 C53 1.385 . S
C54 C55 1.395 . S
C54 H77 0.929 . S
C55 C54 1.395 . S
C55 C56 1.335 . S
C56 C55 1.335 . S
C56 C57 1.398 . S
C56 H78 0.930 . S
C57 C52 1.382 . S
C57 C56 1.398 . S
C57 H79 0.929 . S
C58 O68 1.271 . S
C58 O69 1.251 . S
C59 O70 1.252 . S
C59 O71 1.272 . S
O60 Sm40 2.543 . S
O60 C42 1.261 . S
O61 Sm40 2.450 . S
O61 C42 1.242 . S
O62 Sm40 2.681 . S
O62 Sm41 2.386 . S
O62 C49 1.271 . S
O63 Sm40 2.464 . S
O63 C49 1.251 . S
O64 Sm40 2.396 . S
O64 C50 1.252 . S
O65 Sm41 2.408 . S
O65 C50 1.272 . S
O66 Sm41 2.543 . S
O66 C51 1.261 . S
O67 Sm41 2.450 . S
O67 C51 1.242 . S
O68 Sm40 2.386 . S
O68 Sm41 2.681 . S
O68 C58 1.271 . S
O69 Sm41 2.464 . S
O69 C58 1.251 . S
O70 Sm41 2.396 . S
O70 C59 1.252 . S
O71 Sm40 2.408 . S
O71 C59 1.272 . S
H72 C44 0.930 . S
H73 C45 0.929 . S
H74 C47 0.930 . S
H75 C48 0.929 . S
H76 C53 0.930 . S
H77 C54 0.929 . S
H78 C56 0.930 . S
H79 C57 0.929 . S
Sm80 C82 2.846 . S
Sm80 O100 2.543 . S
Sm80 O101 2.450 . S
Sm80 O102 2.681 . S
Sm80 O103 2.464 . S
Sm80 O104 2.396 . S
Sm80 O108 2.386 . S
Sm80 O111 2.408 . S
Sm81 C91 2.846 . S
Sm81 O102 2.386 . S
Sm81 O105 2.408 . S
Sm81 O106 2.543 . S
Sm81 O107 2.450 . S
Sm81 O108 2.681 . S
Sm81 O109 2.464 . S
Sm81 O110 2.396 . S
C82 Sm80 2.846 . S
C82 C83 1.506 . S
C82 O100 1.261 . S
C82 O101 1.242 . S
C83 C82 1.506 . S
C83 C84 1.358 . S
C83 C88 1.382 . S
C84 C83 1.358 . S
C84 C85 1.385 . S
C84 H112 0.930 . S
C85 C84 1.385 . S
C85 C86 1.395 . S
C85 H113 0.929 . S
C86 C85 1.395 . S
C86 C87 1.335 . S
C87 C86 1.335 . S
C87 C88 1.398 . S
C87 H114 0.930 . S
C88 C83 1.382 . S
C88 C87 1.398 . S
C88 H115 0.929 . S
C89 O102 1.271 . S
C89 O103 1.251 . S
C90 O104 1.252 . S
C90 O105 1.272 . S
C91 Sm81 2.846 . S
C91 C92 1.506 . S
C91 O106 1.261 . S
C91 O107 1.242 . S
C92 C91 1.506 . S
C92 C93 1.358 . S
C92 C97 1.382 . S
C93 C92 1.358 . S
C93 C94 1.385 . S
C93 H116 0.930 . S
C94 C93 1.385 . S
C94 C95 1.395 . S
C94 H117 0.929 . S
C95 C94 1.395 . S
C95 C96 1.335 . S
C96 C95 1.335 . S
C96 C97 1.398 . S
C96 H118 0.930 . S
C97 C92 1.382 . S
C97 C96 1.398 . S
C97 H119 0.929 . S
C98 O108 1.271 . S
C98 O109 1.251 . S
C99 O110 1.252 . S
C99 O111 1.272 . S
O100 Sm80 2.543 . S
O100 C82 1.261 . S
O101 Sm80 2.450 . S
O101 C82 1.242 . S
O102 Sm80 2.681 . S
O102 Sm81 2.386 . S
O102 C89 1.271 . S
O103 Sm80 2.464 . S
O103 C89 1.251 . S
O104 Sm80 2.396 . S
O104 C90 1.252 . S
O105 Sm81 2.408 . S
O105 C90 1.272 . S
O106 Sm81 2.543 . S
O106 C91 1.261 . S
O107 Sm81 2.450 . S
O107 C91 1.242 . S
O108 Sm80 2.386 . S
O108 Sm81 2.681 . S
O108 C98 1.271 . S
O109 Sm81 2.464 . S
O109 C98 1.251 . S
O110 Sm81 2.396 . S
O110 C99 1.252 . S
O111 Sm80 2.408 . S
O111 C99 1.272 . S
H112 C84 0.930 . S
H113 C85 0.929 . S
H114 C87 0.930 . S
H115 C88 0.929 . S
H116 C93 0.930 . S
H117 C94 0.929 . S
H118 C96 0.930 . S
H119 C97 0.929 . S
Sm120 C122 2.846 . S
Sm120 O140 2.543 . S
Sm120 O141 2.450 . S
Sm120 O142 2.681 . S
Sm120 O143 2.464 . S
Sm120 O144 2.396 . S
Sm120 O148 2.386 . S
Sm120 O151 2.408 . S
Sm121 C131 2.846 . S
Sm121 O142 2.386 . S
Sm121 O145 2.408 . S
Sm121 O146 2.543 . S
Sm121 O147 2.450 . S
Sm121 O148 2.681 . S
Sm121 O149 2.464 . S
Sm121 O150 2.396 . S
C122 Sm120 2.846 . S
C122 C123 1.506 . S
C122 O140 1.261 . S
C122 O141 1.242 . S
C123 C122 1.506 . S
C123 C124 1.358 . S
C123 C128 1.382 . S
C124 C123 1.358 . S
C124 C125 1.385 . S
C124 H152 0.930 . S
C125 C124 1.385 . S
C125 C126 1.395 . S
C125 H153 0.929 . S
C126 C125 1.395 . S
C126 C127 1.335 . S
C127 C126 1.335 . S
C127 C128 1.398 . S
C127 H154 0.930 . S
C128 C123 1.382 . S
C128 C127 1.398 . S
C128 H155 0.929 . S
C129 O142 1.271 . S
C129 O143 1.251 . S
C130 O144 1.252 . S
C130 O145 1.272 . S
C131 Sm121 2.846 . S
C131 C132 1.506 . S
C131 O146 1.261 . S
C131 O147 1.242 . S
C132 C131 1.506 . S
C132 C133 1.358 . S
C132 C137 1.382 . S
C133 C132 1.358 . S
C133 C134 1.385 . S
C133 H156 0.930 . S
C134 C133 1.385 . S
C134 C135 1.395 . S
C134 H157 0.929 . S
C135 C134 1.395 . S
C135 C136 1.335 . S
C136 C135 1.335 . S
C136 C137 1.398 . S
C136 H158 0.930 . S
C137 C132 1.382 . S
C137 C136 1.398 . S
C137 H159 0.929 . S
C138 O148 1.271 . S
C138 O149 1.251 . S
C139 O150 1.252 . S
C139 O151 1.272 . S
O140 Sm120 2.543 . S
O140 C122 1.261 . S
O141 Sm120 2.450 . S
O141 C122 1.242 . S
O142 Sm120 2.681 . S
O142 Sm121 2.386 . S
O142 C129 1.271 . S
O143 Sm120 2.464 . S
O143 C129 1.251 . S
O144 Sm120 2.396 . S
O144 C130 1.252 . S
O145 Sm121 2.408 . S
O145 C130 1.272 . S
O146 Sm121 2.543 . S
O146 C131 1.261 . S
O147 Sm121 2.450 . S
O147 C131 1.242 . S
O148 Sm120 2.386 . S
O148 Sm121 2.681 . S
O148 C138 1.271 . S
O149 Sm121 2.464 . S
O149 C138 1.251 . S
O150 Sm121 2.396 . S
O150 C139 1.252 . S
O151 Sm120 2.408 . S
O151 C139 1.272 . S
H152 C124 0.930 . S
H153 C125 0.929 . S
H154 C127 0.930 . S
H155 C128 0.929 . S
H156 C133 0.930 . S
H157 C134 0.929 . S
H158 C136 0.930 . S
H159 C137 0.929 . S
Sm160 C162 2.846 1_556 S
Sm160 O180 2.543 1_556 S
Sm160 O181 2.450 1_556 S
Sm160 O182 2.681 . S
Sm160 O183 2.464 . S
Sm160 O184 2.396 1_556 S
Sm160 O188 2.386 1_556 S
Sm160 O191 2.408 . S
Sm161 C171 2.846 1_554 S
Sm161 O182 2.386 1_554 S
Sm161 O185 2.408 . S
Sm161 O186 2.543 1_554 S
Sm161 O187 2.450 1_554 S
Sm161 O188 2.681 . S
Sm161 O189 2.464 . S
Sm161 O190 2.396 1_554 S
C162 Sm160 2.846 1_554 S
C162 C163 1.506 . S
C162 O180 1.261 . S
C162 O181 1.242 . S
C163 C162 1.506 . S
C163 C164 1.358 . S
C163 C168 1.382 . S
C164 C163 1.358 . S
C164 C165 1.385 . S
C164 H192 0.930 . S
C165 C164 1.385 . S
C165 C166 1.395 . S
C165 H193 0.929 . S
C166 C165 1.395 . S
C166 C167 1.335 . S
C167 C166 1.335 . S
C167 C168 1.398 . S
C167 H194 0.930 . S
C168 C163 1.382 . S
C168 C167 1.398 . S
C168 H195 0.929 . S
C169 O182 1.271 . S
C169 O183 1.251 . S
C170 O184 1.252 . S
C170 O185 1.272 . S
C171 Sm161 2.846 1_556 S
C171 C172 1.506 . S
C171 O186 1.261 . S
C171 O187 1.242 . S
C172 C171 1.506 . S
C172 C173 1.358 . S
C172 C177 1.382 . S
C173 C172 1.358 . S
C173 C174 1.385 . S
C173 H196 0.930 . S
C174 C173 1.385 . S
C174 C175 1.395 . S
C174 H197 0.929 . S
C175 C174 1.395 . S
C175 C176 1.335 . S
C176 C175 1.335 . S
C176 C177 1.398 . S
C176 H198 0.930 . S
C177 C172 1.382 . S
C177 C176 1.398 . S
C177 H199 0.929 . S
C178 O188 1.271 . S
C178 O189 1.251 . S
C179 O190 1.252 . S
C179 O191 1.272 . S
O180 Sm160 2.543 1_554 S
O180 C162 1.261 . S
O181 Sm160 2.450 1_554 S
O181 C162 1.242 . S
O182 Sm160 2.681 . S
O182 Sm161 2.386 1_556 S
O182 C169 1.271 . S
O183 Sm160 2.464 . S
O183 C169 1.251 . S
O184 Sm160 2.396 1_554 S
O184 C170 1.252 . S
O185 Sm161 2.408 . S
O185 C170 1.272 . S
O186 Sm161 2.543 1_556 S
O186 C171 1.261 . S
O187 Sm161 2.450 1_556 S
O187 C171 1.242 . S
O188 Sm160 2.386 1_554 S
O188 Sm161 2.681 . S
O188 C178 1.271 . S
O189 Sm161 2.464 . S
O189 C178 1.251 . S
O190 Sm161 2.396 1_556 S
O190 C179 1.252 . S
O191 Sm160 2.408 . S
O191 C179 1.272 . S
H192 C164 0.930 . S
H193 C165 0.929 . S
H194 C167 0.930 . S
H195 C168 0.929 . S
H196 C173 0.930 . S
H197 C174 0.929 . S
H198 C176 0.930 . S
H199 C177 0.929 . S
Sm200 C202 2.846 1_556 S
Sm200 O220 2.543 1_556 S
Sm200 O221 2.450 1_556 S
Sm200 O222 2.681 . S
Sm200 O223 2.464 . S
Sm200 O224 2.396 1_556 S
Sm200 O228 2.386 1_556 S
Sm200 O231 2.408 . S
Sm201 C211 2.846 1_554 S
Sm201 O222 2.386 1_554 S
Sm201 O225 2.408 . S
Sm201 O226 2.543 1_554 S
Sm201 O227 2.450 1_554 S
Sm201 O228 2.681 . S
Sm201 O229 2.464 . S
Sm201 O230 2.396 1_554 S
C202 Sm200 2.846 1_554 S
C202 C203 1.506 . S
C202 O220 1.261 . S
C202 O221 1.242 . S
C203 C202 1.506 . S
C203 C204 1.358 . S
C203 C208 1.382 . S
C204 C203 1.358 . S
C204 C205 1.385 . S
C204 H232 0.930 . S
C205 C204 1.385 . S
C205 C206 1.395 . S
C205 H233 0.929 . S
C206 C205 1.395 . S
C206 C207 1.335 . S
C207 C206 1.335 . S
C207 C208 1.398 . S
C207 H234 0.930 . S
C208 C203 1.382 . S
C208 C207 1.398 . S
C208 H235 0.929 . S
C209 O222 1.271 . S
C209 O223 1.251 . S
C210 O224 1.252 . S
C210 O225 1.272 . S
C211 Sm201 2.846 1_556 S
C211 C212 1.506 . S
C211 O226 1.261 . S
C211 O227 1.242 . S
C212 C211 1.506 . S
C212 C213 1.358 . S
C212 C217 1.382 . S
C213 C212 1.358 . S
C213 C214 1.385 . S
C213 H236 0.930 . S
C214 C213 1.385 . S
C214 C215 1.395 . S
C214 H237 0.929 . S
C215 C214 1.395 . S
C215 C216 1.335 . S
C216 C215 1.335 . S
C216 C217 1.398 . S
C216 H238 0.930 . S
C217 C212 1.382 . S
C217 C216 1.398 . S
C217 H239 0.929 . S
C218 O228 1.271 . S
C218 O229 1.251 . S
C219 O230 1.252 . S
C219 O231 1.272 . S
O220 Sm200 2.543 1_554 S
O220 C202 1.261 . S
O221 Sm200 2.450 1_554 S
O221 C202 1.242 . S
O222 Sm200 2.681 . S
O222 Sm201 2.386 1_556 S
O222 C209 1.271 . S
O223 Sm200 2.464 . S
O223 C209 1.251 . S
O224 Sm200 2.396 1_554 S
O224 C210 1.252 . S
O225 Sm201 2.408 . S
O225 C210 1.272 . S
O226 Sm201 2.543 1_556 S
O226 C211 1.261 . S
O227 Sm201 2.450 1_556 S
O227 C211 1.242 . S
O228 Sm200 2.386 1_554 S
O228 Sm201 2.681 . S
O228 C218 1.271 . S
O229 Sm201 2.464 . S
O229 C218 1.251 . S
O230 Sm201 2.396 1_556 S
O230 C219 1.252 . S
O231 Sm200 2.408 . S
O231 C219 1.272 . S
H232 C204 0.930 . S
H233 C205 0.929 . S
H234 C207 0.930 . S
H235 C208 0.929 . S
H236 C213 0.930 . S
H237 C214 0.929 . S
H238 C216 0.930 . S
H239 C217 0.929 . S
Sm240 C242 2.846 1_556 S
Sm240 O260 2.543 1_556 S
Sm240 O261 2.450 1_556 S
Sm240 O262 2.681 . S
Sm240 O263 2.464 . S
Sm240 O264 2.396 1_556 S
Sm240 O268 2.386 1_556 S
Sm240 O271 2.408 . S
Sm241 C251 2.846 1_554 S
Sm241 O262 2.386 1_554 S
Sm241 O265 2.408 . S
Sm241 O266 2.543 1_554 S
Sm241 O267 2.450 1_554 S
Sm241 O268 2.681 . S
Sm241 O269 2.464 . S
Sm241 O270 2.396 1_554 S
C242 Sm240 2.846 1_554 S
C242 C243 1.506 . S
C242 O260 1.261 . S
C242 O261 1.242 . S
C243 C242 1.506 . S
C243 C244 1.358 . S
C243 C248 1.382 . S
C244 C243 1.358 . S
C244 C245 1.385 . S
C244 H272 0.930 . S
C245 C244 1.385 . S
C245 C246 1.395 . S
C245 H273 0.929 . S
C246 C245 1.395 . S
C246 C247 1.335 . S
C247 C246 1.335 . S
C247 C248 1.398 . S
C247 H274 0.930 . S
C248 C243 1.382 . S
C248 C247 1.398 . S
C248 H275 0.929 . S
C249 O262 1.271 . S
C249 O263 1.251 . S
C250 O264 1.252 . S
C250 O265 1.272 . S
C251 Sm241 2.846 1_556 S
C251 C252 1.506 . S
C251 O266 1.261 . S
C251 O267 1.242 . S
C252 C251 1.506 . S
C252 C253 1.358 . S
C252 C257 1.382 . S
C253 C252 1.358 . S
C253 C254 1.385 . S
C253 H276 0.930 . S
C254 C253 1.385 . S
C254 C255 1.395 . S
C254 H277 0.929 . S
C255 C254 1.395 . S
C255 C256 1.335 . S
C256 C255 1.335 . S
C256 C257 1.398 . S
C256 H278 0.930 . S
C257 C252 1.382 . S
C257 C256 1.398 . S
C257 H279 0.929 . S
C258 O268 1.271 . S
C258 O269 1.251 . S
C259 O270 1.252 . S
C259 O271 1.272 . S
O260 Sm240 2.543 1_554 S
O260 C242 1.261 . S
O261 Sm240 2.450 1_554 S
O261 C242 1.242 . S
O262 Sm240 2.681 . S
O262 Sm241 2.386 1_556 S
O262 C249 1.271 . S
O263 Sm240 2.464 . S
O263 C249 1.251 . S
O264 Sm240 2.396 1_554 S
O264 C250 1.252 . S
O265 Sm241 2.408 . S
O265 C250 1.272 . S
O266 Sm241 2.543 1_556 S
O266 C251 1.261 . S
O267 Sm241 2.450 1_556 S
O267 C251 1.242 . S
O268 Sm240 2.386 1_554 S
O268 Sm241 2.681 . S
O268 C258 1.271 . S
O269 Sm241 2.464 . S
O269 C258 1.251 . S
O270 Sm241 2.396 1_556 S
O270 C259 1.252 . S
O271 Sm240 2.408 . S
O271 C259 1.272 . S
H272 C244 0.930 . S
H273 C245 0.929 . S
H274 C247 0.930 . S
H275 C248 0.929 . S
H276 C253 0.930 . S
H277 C254 0.929 . S
H278 C256 0.930 . S
H279 C257 0.929 . S
Sm280 C282 2.846 1_556 S
Sm280 O300 2.543 1_556 S
Sm280 O301 2.450 1_556 S
Sm280 O302 2.681 . S
Sm280 O303 2.464 . S
Sm280 O304 2.396 1_556 S
Sm280 O308 2.386 1_556 S
Sm280 O311 2.408 . S
Sm281 C291 2.846 1_554 S
Sm281 O302 2.386 1_554 S
Sm281 O305 2.408 . S
Sm281 O306 2.543 1_554 S
Sm281 O307 2.450 1_554 S
Sm281 O308 2.681 . S
Sm281 O309 2.464 . S
Sm281 O310 2.396 1_554 S
C282 Sm280 2.846 1_554 S
C282 C283 1.506 . S
C282 O300 1.261 . S
C282 O301 1.242 . S
C283 C282 1.506 . S
C283 C284 1.358 . S
C283 C288 1.382 . S
C284 C283 1.358 . S
C284 C285 1.385 . S
C284 H312 0.930 . S
C285 C284 1.385 . S
C285 C286 1.395 . S
C285 H313 0.929 . S
C286 C285 1.395 . S
C286 C287 1.335 . S
C287 C286 1.335 . S
C287 C288 1.398 . S
C287 H314 0.930 . S
C288 C283 1.382 . S
C288 C287 1.398 . S
C288 H315 0.929 . S
C289 O302 1.271 . S
C289 O303 1.251 . S
C290 O304 1.252 . S
C290 O305 1.272 . S
C291 Sm281 2.846 1_556 S
C291 C292 1.506 . S
C291 O306 1.261 . S
C291 O307 1.242 . S
C292 C291 1.506 . S
C292 C293 1.358 . S
C292 C297 1.382 . S
C293 C292 1.358 . S
C293 C294 1.385 . S
C293 H316 0.930 . S
C294 C293 1.385 . S
C294 C295 1.395 . S
C294 H317 0.929 . S
C295 C294 1.395 . S
C295 C296 1.335 . S
C296 C295 1.335 . S
C296 C297 1.398 . S
C296 H318 0.930 . S
C297 C292 1.382 . S
C297 C296 1.398 . S
C297 H319 0.929 . S
C298 O308 1.271 . S
C298 O309 1.251 . S
C299 O310 1.252 . S
C299 O311 1.272 . S
O300 Sm280 2.543 1_554 S
O300 C282 1.261 . S
O301 Sm280 2.450 1_554 S
O301 C282 1.242 . S
O302 Sm280 2.681 . S
O302 Sm281 2.386 1_556 S
O302 C289 1.271 . S
O303 Sm280 2.464 . S
O303 C289 1.251 . S
O304 Sm280 2.396 1_554 S
O304 C290 1.252 . S
O305 Sm281 2.408 . S
O305 C290 1.272 . S
O306 Sm281 2.543 1_556 S
O306 C291 1.261 . S
O307 Sm281 2.450 1_556 S
O307 C291 1.242 . S
O308 Sm280 2.386 1_554 S
O308 Sm281 2.681 . S
O308 C298 1.271 . S
O309 Sm281 2.464 . S
O309 C298 1.251 . S
O310 Sm281 2.396 1_556 S
O310 C299 1.252 . S
O311 Sm280 2.408 . S
O311 C299 1.272 . S
H312 C284 0.930 . S
H313 C285 0.929 . S
H314 C287 0.930 . S
H315 C288 0.929 . S
H316 C293 0.930 . S
H317 C294 0.929 . S
H318 C296 0.930 . S
H319 C297 0.929 . S
C320 C321 1.387 . S
C320 H324 0.950 . S
C320 C329 1.390 . S
C321 C320 1.387 . S
C321 C323 1.387 . S
H322 C329 0.950 . S
C323 C321 1.387 . S
C323 C325 1.390 . S
C323 H327 0.950 . S
H324 C320 0.950 . S
C325 C323 1.390 . S
C325 C326 1.387 . S
C325 H328 0.950 . S
C326 C325 1.387 . S
C326 C329 1.387 . S
H327 C323 0.950 . S
H328 C325 0.950 . S
C329 C320 1.390 . S
C329 H322 0.950 . S
C329 C326 1.387 . S
C330 C331 1.387 . S
C330 H334 0.950 . S
C330 C339 1.390 . S
C331 C330 1.387 . S
C331 C333 1.387 . S
H332 C339 0.950 . S
C333 C331 1.387 . S
C333 C335 1.390 . S
C333 H337 0.950 . S
H334 C330 0.950 . S
C335 C333 1.390 . S
C335 C336 1.387 . S
C335 H338 0.950 . S
C336 C335 1.387 . S
C336 C339 1.387 . S
H337 C333 0.950 . S
H338 C335 0.950 . S
C339 C330 1.390 . S
C339 H332 0.950 . S
C339 C336 1.387 . S
C340 C341 1.387 . S
C340 H344 0.950 . S
C340 C349 1.390 . S
C341 C340 1.387 . S
C341 C343 1.387 . S
H342 C349 0.950 . S
C343 C341 1.387 . S
C343 C345 1.390 . S
C343 H347 0.950 . S
H344 C340 0.950 . S
C345 C343 1.390 . S
C345 C346 1.387 . S
C345 H348 0.950 . S
C346 C345 1.387 . S
C346 C349 1.387 . S
H347 C343 0.950 . S
H348 C345 0.950 . S
C349 C340 1.390 . S
C349 H342 0.950 . S
C349 C346 1.387 . S
C350 C351 1.387 . S
C350 H354 0.950 . S
C350 C359 1.390 . S
C351 C350 1.387 . S
C351 C353 1.387 . S
H352 C359 0.950 . S
C353 C351 1.387 . S
C353 C355 1.390 . S
C353 H357 0.950 . S
H354 C350 0.950 . S
C355 C353 1.390 . S
C355 C356 1.387 . S
C355 H358 0.950 . S
C356 C355 1.387 . S
C356 C359 1.387 . S
H357 C353 0.950 . S
H358 C355 0.950 . S
C359 C350 1.390 . S
C359 H352 0.950 . S
C359 C356 1.387 . S
C360 C361 1.387 . S
C360 H364 0.950 . S
C360 C369 1.390 1_565 S
C361 C360 1.387 . S
C361 C363 1.387 . S
H362 C369 0.950 . S
C363 C361 1.387 . S
C363 C365 1.390 1_565 S
C363 H367 0.950 . S
H364 C360 0.950 . S
C365 C363 1.390 1_545 S
C365 C366 1.387 . S
C365 H368 0.950 . S
C366 C365 1.387 . S
C366 C369 1.387 . S
H367 C363 0.950 . S
H368 C365 0.950 . S
C369 C360 1.390 1_545 S
C369 H362 0.950 . S
C369 C366 1.387 . S
C370 C371 1.387 . S
C370 H374 0.950 . S
C370 C379 1.390 . S
C371 C370 1.387 . S
C371 C373 1.387 . S
H372 C379 0.950 . S
C373 C371 1.387 . S
C373 C375 1.390 . S
C373 H377 0.950 . S
H374 C370 0.950 . S
C375 C373 1.390 . S
C375 C376 1.387 . S
C375 H378 0.950 . S
C376 C375 1.387 . S
C376 C379 1.387 . S
H377 C373 0.950 . S
H378 C375 0.950 . S
C379 C370 1.390 . S
C379 H372 0.950 . S
C379 C376 1.387 . S
C380 C381 1.387 . S
C380 H384 0.950 . S
C380 C389 1.390 1_565 S
C381 C380 1.387 . S
C381 C383 1.387 . S
H382 C389 0.950 . S
C383 C381 1.387 . S
C383 C385 1.390 1_565 S
C383 H387 0.950 . S
H384 C380 0.950 . S
C385 C383 1.390 1_545 S
C385 C386 1.387 . S
C385 H388 0.950 . S
C386 C385 1.387 . S
C386 C389 1.387 . S
H387 C383 0.950 . S
H388 C385 0.950 . S
C389 C380 1.390 1_545 S
C389 H382 0.950 . S
C389 C386 1.387 . S
C390 C391 1.387 . S
C390 H394 0.950 . S
C390 C399 1.390 . S
C391 C390 1.387 . S
C391 C393 1.387 . S
H392 C399 0.950 . S
C393 C391 1.387 . S
C393 C395 1.390 . S
C393 H397 0.950 . S
H394 C390 0.950 . S
C395 C393 1.390 . S
C395 C396 1.387 . S
C395 H398 0.950 . S
C396 C395 1.387 . S
C396 C399 1.387 . S
H397 C393 0.950 . S
H398 C395 0.950 . S
C399 C390 1.390 . S
C399 H392 0.950 . S
C399 C396 1.387 . S
C400 C401 1.387 . S
C400 H404 0.950 . S
C400 C409 1.390 . S
C401 C400 1.387 . S
C401 C403 1.387 1_556 S
H402 C409 0.950 . S
C403 C401 1.387 1_554 S
C403 C405 1.390 . S
C403 H407 0.950 . S
H404 C400 0.950 . S
C405 C403 1.390 . S
C405 C406 1.387 1_554 S
C405 H408 0.950 . S
C406 C405 1.387 1_556 S
C406 C409 1.387 . S
H407 C403 0.950 . S
H408 C405 0.950 . S
C409 C400 1.390 . S
C409 H402 0.950 . S
C409 C406 1.387 . S
C410 C411 1.387 . S
C410 H414 0.950 . S
C410 C419 1.390 1_565 S
C411 C410 1.387 . S
C411 C413 1.387 1_556 S
H412 C419 0.950 . S
C413 C411 1.387 1_554 S
C413 C415 1.390 1_565 S
C413 H417 0.950 . S
H414 C410 0.950 . S
C415 C413 1.390 1_545 S
C415 C416 1.387 1_554 S
C415 H418 0.950 . S
C416 C415 1.387 1_556 S
C416 C419 1.387 . S
H417 C413 0.950 . S
H418 C415 0.950 . S
C419 C410 1.390 1_545 S
C419 H412 0.950 . S
C419 C416 1.387 . S
C420 C421 1.387 1_556 S
C420 H424 0.950 . S
C420 C429 1.390 . S
C421 C420 1.387 1_554 S
C421 C423 1.387 . S
H422 C429 0.950 . S
C423 C421 1.387 . S
C423 C425 1.390 . S
C423 H427 0.950 . S
H424 C420 0.950 . S
C425 C423 1.390 . S
C425 C426 1.387 . S
C425 H428 0.950 . S
C426 C425 1.387 . S
C426 C429 1.387 1_554 S
H427 C423 0.950 . S
H428 C425 0.950 . S
C429 C420 1.390 . S
C429 H422 0.950 . S
C429 C426 1.387 1_556 S
C430 C431 1.387 . S
C430 H434 0.950 . S
C430 C439 1.390 1_545 S
C431 C430 1.387 . S
C431 C433 1.387 1_554 S
H432 C439 0.950 . S
C433 C431 1.387 1_556 S
C433 C435 1.390 1_545 S
C433 H437 0.950 . S
H434 C430 0.950 . S
C435 C433 1.390 1_565 S
C435 C436 1.387 1_556 S
C435 H438 0.950 . S
C436 C435 1.387 1_554 S
C436 C439 1.387 . S
H437 C433 0.950 . S
H438 C435 0.950 . S
C439 C430 1.390 1_565 S
C439 H432 0.950 . S
C439 C436 1.387 . S
C440 C441 1.387 1_556 S
C440 H444 0.950 1_556 S
C440 C449 1.390 . S
C441 C440 1.387 1_554 S
C441 C443 1.387 1_554 S
H442 C449 0.950 . S
C443 C441 1.387 1_556 S
C443 C445 1.390 . S
C443 H447 0.950 1_556 S
H444 C440 0.950 1_554 S
C445 C443 1.390 . S
C445 C446 1.387 . S
C445 H448 0.950 . S
C446 C445 1.387 . S
C446 C449 1.387 . S
H447 C443 0.950 1_554 S
H448 C445 0.950 . S
C449 C440 1.390 . S
C449 H442 0.950 . S
C449 C446 1.387 . S
C450 C451 1.387 1_556 S
C450 H454 0.954 . S
C450 C459 1.390 . S
C451 C450 1.387 1_554 S
C451 C453 1.387 1_554 S
H452 C459 0.950 . S
C453 C451 1.387 1_556 S
C453 C455 1.390 . S
C453 H457 0.950 1_556 S
H454 C450 0.954 . S
C455 C453 1.390 . S
C455 C456 1.387 . S
C455 H458 0.950 . S
C456 C455 1.387 . S
C456 C459 1.387 . S
H457 C453 0.950 1_554 S
H458 C455 0.950 . S
C459 C450 1.390 . S
C459 H452 0.950 . S
C459 C456 1.387 . S
C460 C461 1.387 . S
C460 H464 0.950 . S
C460 C469 1.390 . S
C461 C460 1.387 . S
C461 C463 1.387 . S
H462 C469 0.950 1_556 S
C463 C461 1.387 . S
C463 C465 1.390 . S
C463 H467 0.950 . S
H464 C460 0.950 . S
C465 C463 1.390 . S
C465 C466 1.387 1_554 S
C465 H468 0.950 1_554 S
C466 C465 1.387 1_556 S
C466 C469 1.387 1_556 S
H467 C463 0.950 . S
H468 C465 0.950 1_556 S
C469 C460 1.390 . S
C469 H462 0.950 1_554 S
C469 C466 1.387 1_554 S
C470 C471 1.387 1_554 S
C470 H474 0.953 . S
C470 C479 1.390 . S
C471 C470 1.387 1_556 S
C471 C473 1.387 1_556 S
H472 C479 0.950 . S
C473 C471 1.387 1_554 S
C473 C475 1.390 . S
C473 H477 0.950 1_554 S
H474 C470 0.953 . S
C475 C473 1.390 . S
C475 C476 1.387 . S
C475 H478 0.950 . S
C476 C475 1.387 . S
C476 C479 1.387 . S
H477 C473 0.950 1_556 S
H478 C475 0.950 . S
C479 C470 1.390 . S
C479 H472 0.950 . S
C479 C476 1.387 . S
C480 C481 1.387 . S
C480 H484 0.950 . S
C480 C489 1.390 . S
C481 C480 1.387 . S
C481 C483 1.387 . S
H482 C489 0.950 . S
C483 C481 1.387 . S
C483 C485 1.390 . S
C483 H487 0.950 . S
H484 C480 0.950 . S
C485 C483 1.390 . S
C485 C486 1.387 . S
C485 H488 0.950 . S
C486 C485 1.387 . S
C486 C489 1.387 . S
H487 C483 0.950 . S
H488 C485 0.950 . S
C489 C480 1.390 . S
C489 H482 0.950 . S
C489 C486 1.387 . S
C490 C491 1.387 . S
C490 H494 0.950 . S
C490 C499 1.390 . S
C491 C490 1.387 . S
C491 C493 1.387 . S
H492 C499 0.950 . S
C493 C491 1.387 . S
C493 C495 1.390 . S
C493 H497 0.950 . S
H494 C490 0.950 . S
C495 C493 1.390 . S
C495 C496 1.387 . S
C495 H498 0.950 . S
C496 C495 1.387 . S
C496 C499 1.387 . S
H497 C493 0.950 . S
H498 C495 0.950 . S
C499 C490 1.390 . S
C499 H492 0.950 . S
C499 C496 1.387 . S
C500 C501 1.387 . S
C500 H504 0.950 . S
C500 C509 1.390 . S
C501 C500 1.387 . S
C501 C503 1.387 . S
H502 C509 0.950 . S
C503 C501 1.387 . S
C503 C505 1.390 . S
C503 H507 0.950 . S
H504 C500 0.950 . S
C505 C503 1.390 . S
C505 C506 1.387 . S
C505 H508 0.950 . S
C506 C505 1.387 . S
C506 C509 1.387 . S
H507 C503 0.950 . S
H508 C505 0.950 . S
C509 C500 1.390 . S
C509 H502 0.950 . S
C509 C506 1.387 . S
C510 C511 1.387 . S
C510 H514 0.950 . S
C510 C519 1.390 . S
C511 C510 1.387 . S
C511 C513 1.387 . S
H512 C519 0.950 . S
C513 C511 1.387 . S
C513 C515 1.390 . S
C513 H517 0.950 . S
H514 C510 0.950 . S
C515 C513 1.390 . S
C515 C516 1.387 . S
C515 H518 0.950 . S
C516 C515 1.387 . S
C516 C519 1.387 . S
H517 C513 0.950 . S
H518 C515 0.950 . S
C519 C510 1.390 . S
C519 H512 0.950 . S
C519 C516 1.387 . S
C520 C521 1.387 . S
C520 H524 0.950 . S
C520 C529 1.390 1_455 S
C521 C520 1.387 . S
C521 C523 1.387 . S
H522 C529 0.950 . S
C523 C521 1.387 . S
C523 C525 1.390 1_455 S
C523 H527 0.950 1_554 S
H524 C520 0.950 . S
C525 C523 1.390 1_655 S
C525 C526 1.387 . S
C525 H528 0.950 1_554 S
C526 C525 1.387 . S
C526 C529 1.387 . S
H527 C523 0.950 1_556 S
H528 C525 0.950 1_556 S
C529 C520 1.390 1_655 S
C529 H522 0.950 . S
C529 C526 1.387 . S
C530 C531 1.387 . S
C530 H534 0.950 1_556 S
C530 C539 1.390 1_655 S
C531 C530 1.387 . S
C531 C533 1.387 . S
H532 C539 0.950 1_554 S
C533 C531 1.387 . S
C533 C535 1.390 1_655 S
C533 H537 0.950 . S
H534 C530 0.950 1_554 S
C535 C533 1.390 1_455 S
C535 C536 1.387 . S
C535 H538 0.950 . S
C536 C535 1.387 . S
C536 C539 1.387 . S
H537 C533 0.950 . S
H538 C535 0.950 . S
C539 C530 1.390 1_455 S
C539 H532 0.950 1_556 S
C539 C536 1.387 . S
C540 C541 1.387 . S
C540 H544 0.950 . S
C540 C549 1.390 . S
C541 C540 1.387 . S
C541 C543 1.387 . S
H542 C549 0.950 . S
C543 C541 1.387 . S
C543 C545 1.390 . S
C543 H547 0.950 . S
H544 C540 0.950 . S
C545 C543 1.390 . S
C545 C546 1.387 . S
C545 H548 0.950 . S
C546 C545 1.387 . S
C546 C549 1.387 . S
H547 C543 0.950 . S
H548 C545 0.950 . S
C549 C540 1.390 . S
C549 H542 0.950 . S
C549 C546 1.387 . S
C550 C551 1.387 . S
C550 H554 0.950 . S
C550 C559 1.390 . S
C551 C550 1.387 . S
C551 C553 1.387 . S
H552 C559 0.950 . S
C553 C551 1.387 . S
C553 C555 1.390 . S
C553 H557 0.950 . S
H554 C550 0.950 . S
C555 C553 1.390 . S
C555 C556 1.387 . S
C555 H558 0.950 . S
C556 C555 1.387 . S
C556 C559 1.387 . S
H557 C553 0.950 . S
H558 C555 0.950 . S
C559 C550 1.390 . S
C559 H552 0.950 . S
C559 C556 1.387 . S
C321 C6 1.707 . S
C326 C295 1.707 . S
C331 C255 1.708 . S
C336 C46 1.708 . S
C341 C206 1.708 . S
C346 C95 1.708 . S
C351 C166 1.707 . S
C356 C135 1.707 . S
C361 C89 1.612 . S
C366 C9 1.644 . S
C371 C49 1.645 . S
C376 C129 1.613 . S
C381 C138 1.645 . S
C386 C58 1.613 . S
C391 C98 1.646 . S
C396 C18 1.614 . S
C401 C169 1.441 . S
C406 C249 1.441 . S
C411 C209 1.442 . S
C416 C289 1.442 . S
C421 C298 1.441 . S
C426 C218 1.441 . S
C431 C258 1.439 . S
C436 C178 1.439 . S
C441 C19 2.071 . S
C446 C10 2.071 . S
C451 C59 2.071 . S
C456 C50 2.071 . S
C461 C99 2.073 . S
C466 C90 2.073 . S
C471 C130 2.073 . S
C476 C139 2.073 . S
C481 C170 2.073 . S
C486 C179 2.073 . S
C491 C219 2.070 . S
C496 C210 2.070 . S
C501 C250 2.073 . S
C506 C259 2.073 . S
C511 C290 2.073 . S
C516 C299 2.073 . S
C521 C15 2.247 . S
C526 C55 2.247 . S
C531 C126 2.247 . S
C536 C86 2.247 . S
C541 C175 2.249 . S
C546 C215 2.249 . S
C551 C286 2.249 . S
C556 C246 2.249 . S
