# Generated by pormake.
# Topology umy, (4)-cn, num edge types: 1
# Building blocks:
#     Node 0, Type 0, BuildingBlock: CEKHIL_clean_sbu_0, # of connection points: 4
#     Node 1, Type 0, BuildingBlock: CEKHIL_clean_sbu_0, # of connection points: 4
#     Node 2, Type 0, BuildingBlock: CEKHIL_clean_sbu_0, # of connection points: 4
#     Node 3, Type 0, BuildingBlock: CEKHIL_clean_sbu_0, # of connection points: 4
#     Node 4, Type 0, BuildingBlock: CEKHIL_clean_sbu_0, # of connection points: 4
#     Node 5, Type 0, BuildingBlock: CEKHIL_clean_sbu_0, # of connection points: 4
#     Node 6, Type 0, BuildingBlock: CEKHIL_clean_sbu_0, # of connection points: 4
#     Node 7, Type 0, BuildingBlock: CEKHIL_clean_sbu_0, # of connection points: 4
#     Node 8, Type 0, BuildingBlock: CEKHIL_clean_sbu_0, # of connection points: 4
#     Node 9, Type 0, BuildingBlock: CEKHIL_clean_sbu_0, # of connection points: 4
#     Node 10, Type 0, BuildingBlock: CEKHIL_clean_sbu_0, # of connection points: 4
#     Node 11, Type 0, BuildingBlock: CEKHIL_clean_sbu_0, # of connection points: 4
#     Edge 12, Type (0, 0), BuildingBlock: AJUNOK_clean_linker_0, # of connection points: 2
#     Edge 13, Type (0, 0), BuildingBlock: AJUNOK_clean_linker_0, # of connection points: 2
#     Edge 14, Type (0, 0), BuildingBlock: AJUNOK_clean_linker_0, # of connection points: 2
#     Edge 15, Type (0, 0), BuildingBlock: AJUNOK_clean_linker_0, # of connection points: 2
#     Edge 16, Type (0, 0), BuildingBlock: AJUNOK_clean_linker_0, # of connection points: 2
#     Edge 17, Type (0, 0), BuildingBlock: AJUNOK_clean_linker_0, # of connection points: 2
#     Edge 18, Type (0, 0), BuildingBlock: AJUNOK_clean_linker_0, # of connection points: 2
#     Edge 19, Type (0, 0), BuildingBlock: AJUNOK_clean_linker_0, # of connection points: 2
#     Edge 20, Type (0, 0), BuildingBlock: AJUNOK_clean_linker_0, # of connection points: 2
#     Edge 21, Type (0, 0), BuildingBlock: AJUNOK_clean_linker_0, # of connection points: 2
#     Edge 22, Type (0, 0), BuildingBlock: AJUNOK_clean_linker_0, # of connection points: 2
#     Edge 23, Type (0, 0), BuildingBlock: AJUNOK_clean_linker_0, # of connection points: 2
#     Edge 24, Type (0, 0), BuildingBlock: AJUNOK_clean_linker_0, # of connection points: 2
#     Edge 25, Type (0, 0), BuildingBlock: AJUNOK_clean_linker_0, # of connection points: 2
#     Edge 26, Type (0, 0), BuildingBlock: AJUNOK_clean_linker_0, # of connection points: 2
#     Edge 27, Type (0, 0), BuildingBlock: AJUNOK_clean_linker_0, # of connection points: 2
#     Edge 28, Type (0, 0), BuildingBlock: AJUNOK_clean_linker_0, # of connection points: 2
#     Edge 29, Type (0, 0), BuildingBlock: AJUNOK_clean_linker_0, # of connection points: 2
#     Edge 30, Type (0, 0), BuildingBlock: AJUNOK_clean_linker_0, # of connection points: 2
#     Edge 31, Type (0, 0), BuildingBlock: AJUNOK_clean_linker_0, # of connection points: 2
#     Edge 32, Type (0, 0), BuildingBlock: AJUNOK_clean_linker_0, # of connection points: 2
#     Edge 33, Type (0, 0), BuildingBlock: AJUNOK_clean_linker_0, # of connection points: 2
#     Edge 34, Type (0, 0), BuildingBlock: AJUNOK_clean_linker_0, # of connection points: 2
#     Edge 35, Type (0, 0), BuildingBlock: AJUNOK_clean_linker_0, # of connection points: 2
# Relax obj value: 0.119
# Max RMSD: 0.083
# Mean RMSD: 0.083
data_MOF--net-umy--node1-CEKHIL_clean_sbu_0--edge1-AJUNOK_clean_linker_0
_symmetry_space_group_name_H-M    P1
_symmetry_Int_Tables_number       1
_symmetry_cell_setting            triclinic
loop_
_symmetry_equiv_pos_as_xyz
'x, y, z'
_cell_length_a     27.382231
_cell_length_b     27.406804
_cell_length_c     37.557713
_cell_angle_alpha  90.046199
_cell_angle_beta   89.989569
_cell_angle_gamma 120.00084
loop_
_atom_site_label
_atom_site_type_symbol
_atom_site_fract_x
_atom_site_fract_y
_atom_site_fract_z
_atom_type_partial_charge
Co0 Co 0.07345 0.36287 0.13517 0.0
O1 O 0.0469 0.39617 0.10042 0.0
O2 O 0.11914 0.44464 0.13651 0.0
C3 C 0.98711 0.29997 0.15784 0.0
O4 O 0.11054 0.34384 0.17601 0.0
Co5 Co 0.03824 0.23618 0.13073 0.0
O6 O 0.06567 0.24938 0.18065 0.0
C7 C 0.12533 0.3167 0.08187 0.0
C8 C 0.08608 0.44494 0.11176 0.0
C9 C 0.09903 0.29842 0.19295 0.0
O10 O 0.12671 0.35831 0.09898 0.0
O11 O 0.08964 0.26507 0.08852 0.0
O12 O 1.01289 0.35231 0.16805 0.0
O13 O 1.01148 0.28936 0.13198 0.0
Co14 Co 0.7228 0.06996 0.30155 0.0
O15 O 0.66348 0.04257 0.26644 0.0
O16 O 0.68526 0.11443 0.30244 0.0
C17 C 0.69975 0.98403 0.32447 0.0
O18 O 0.7783 0.10742 0.34269 0.0
Co19 Co 0.81513 0.03547 0.29774 0.0
O20 O 0.82829 0.06289 0.34767 0.0
C21 C 0.82198 0.12306 0.2491 0.0
C22 C 0.65219 0.08052 0.27787 0.0
C23 C 0.81217 0.096 0.35981 0.0
O24 O 0.78088 0.12361 0.26567 0.0
O25 O 0.83842 0.08779 0.25597 0.0
O26 O 0.67265 1.00945 0.33422 0.0
O27 O 0.73511 1.00842 0.29878 0.0
Co28 Co 0.67026 0.71993 0.46663 0.0
O29 O 0.63619 0.65973 0.43207 0.0
O30 O 0.58843 0.6836 0.46869 0.0
C31 C 0.73389 0.69698 0.48862 0.0
O32 O 0.68988 0.77638 0.50733 0.0
Co33 Co 0.79676 0.81181 0.46149 0.0
O34 O 0.78426 0.82935 0.51075 0.0
C35 C 0.71485 0.81892 0.41409 0.0
C36 C 0.5876 0.65006 0.44389 0.0
C37 C 0.73521 0.81305 0.52331 0.0
O38 O 0.67372 0.77741 0.4307 0.0
O39 O 0.76674 0.83528 0.42035 0.0
O40 O 0.68173 0.67038 0.49924 0.0
O41 O 0.74394 0.73179 0.46278 0.0
Co42 Co 0.96021 0.66261 0.63477 0.0
O43 O 0.99008 0.63033 0.60169 0.0
O44 O 0.91511 0.5806 0.63541 0.0
C45 C 0.04443 0.72514 0.66012 0.0
O46 O 0.9194 0.68132 0.67341 0.0
Co47 Co 0.99663 0.78972 0.6285 0.0
O48 O 0.95575 0.77543 0.67434 0.0
C49 C 0.9117 0.70844 0.57879 0.0
C50 C 0.9508 0.58119 0.61228 0.0
C51 C 0.92306 0.72637 0.68685 0.0
O52 O 0.90961 0.66709 0.59656 0.0
O53 O 0.9474 0.76016 0.58529 0.0
O54 O 0.01774 0.6727 0.66996 0.0
O55 O 0.02252 0.73621 0.63307 0.0
Co56 Co 0.31286 0.95751 0.8012 0.0
O57 O 0.37198 0.98302 0.76595 0.0
O58 O 0.34849 0.91138 0.80242 0.0
C59 C 0.33753 0.04424 0.82355 0.0
O60 O 0.2576 0.92148 0.84255 0.0
Co61 Co 0.22202 0.9939 0.7976 0.0
O62 O 0.20848 0.96685 0.84761 0.0
C63 C 0.21211 0.90402 0.74977 0.0
C64 C 0.38162 0.94398 0.77746 0.0
C65 C 0.22409 0.93335 0.85973 0.0
O66 O 0.25386 0.90388 0.76575 0.0
O67 O 0.19653 0.93999 0.75654 0.0
O68 O 0.36401 0.01828 0.83349 0.0
O69 O 0.30184 0.01982 0.79802 0.0
Co70 Co 0.36605 0.30638 0.96736 0.0
O71 O 0.39913 0.3677 0.93373 0.0
O72 O 0.44808 0.34377 0.96921 0.0
C73 C 0.30217 0.32793 0.99072 0.0
O74 O 0.34674 0.24828 0.00694 0.0
Co75 Co 0.23971 0.21443 0.96074 0.0
O76 O 0.2525 0.19244 0.00859 0.0
C77 C 0.32245 0.20951 0.91306 0.0
C78 C 0.44803 0.3781 0.94533 0.0
C79 C 0.3014 0.20906 0.02155 0.0
O80 O 0.36319 0.25051 0.93028 0.0
O81 O 0.27042 0.19281 0.91905 0.0
O82 O 0.35436 0.35435 1.00125 0.0
O83 O 0.29221 0.29429 0.96415 0.0
Co84 Co 0.66804 0.95632 0.70991 0.0
O85 O 0.63364 0.98339 0.74352 0.0
O86 O 0.58624 0.91005 0.70805 0.0
C87 C 0.73057 0.04205 0.68659 0.0
O88 O 0.68849 0.91843 0.67029 0.0
Co89 Co 0.79521 0.99321 0.71623 0.0
O90 O 0.78288 0.95834 0.66836 0.0
C91 C 0.71367 0.90594 0.76466 0.0
C92 C 0.58519 0.94375 0.73206 0.0
C93 C 0.73407 0.92544 0.65549 0.0
O94 O 0.67233 0.90427 0.74704 0.0
O95 O 0.76543 0.94195 0.75848 0.0
O96 O 0.67838 0.01545 0.67609 0.0
O97 O 0.74132 0.01893 0.71311 0.0
Co98 Co 0.72245 0.66359 0.87698 0.0
O99 O 0.6637 0.63148 0.91248 0.0
O100 O 0.68441 0.58165 0.87554 0.0
C101 C 0.69996 0.72766 0.85525 0.0
O102 O 0.77699 0.6814 0.83535 0.0
Co103 Co 0.81591 0.78978 0.88055 0.0
O104 O 0.82761 0.77578 0.83026 0.0
C105 C 0.82319 0.70825 0.9282 0.0
C106 C 0.652 0.58231 0.90063 0.0
C107 C 0.81079 0.72647 0.81806 0.0
O108 O 0.78098 0.66697 0.91211 0.0
O109 O 0.8399 0.76006 0.92157 0.0
O110 O 0.67219 0.67534 0.84509 0.0
O111 O 0.73569 0.73768 0.88054 0.0
Co112 Co 0.07509 0.7187 0.0423 0.0
O113 O 0.04653 0.65637 0.07522 0.0
O114 O 0.12166 0.68345 0.04125 0.0
C115 C 0.99031 0.69584 0.01739 0.0
O116 O 0.11484 0.77851 1.00374 0.0
Co117 Co 0.03687 0.80798 0.04904 0.0
O118 O 0.07724 0.83519 1.00309 0.0
C119 C 0.12274 0.81294 0.09842 0.0
C120 C 0.08688 0.64808 0.06459 0.0
C121 C 0.11039 0.81949 0.99041 0.0
O122 O 0.12537 0.77405 0.08051 0.0
O123 O 0.08646 0.82828 0.0921 0.0
O124 O 0.01759 0.6708 0.0072 0.0
O125 O 1.01208 0.7288 0.04448 0.0
Co126 Co 0.36481 0.06657 0.21013 0.0
O127 O 0.39791 0.03985 0.24485 0.0
O128 O 0.44676 0.11101 0.20818 0.0
C129 C 0.3007 0.98014 0.18817 0.0
O130 O 0.3459 0.10369 0.16931 0.0
Co131 Co 0.23854 0.03309 0.21519 0.0
O132 O 0.25154 0.06291 0.16588 0.0
C133 C 0.32092 0.12175 0.26262 0.0
C134 C 0.44679 0.07781 0.23289 0.0
C135 C 0.30068 0.09528 0.15331 0.0
O136 O 0.36189 0.1211 0.24594 0.0
O137 O 0.26896 0.08642 0.25643 0.0
O138 O 0.35287 1.00522 0.17762 0.0
O139 O 0.29086 1.00528 0.21391 0.0
Co140 Co 0.31257 0.36422 0.37637 0.0
O141 O 0.37475 0.39836 0.40952 0.0
O142 O 0.34793 0.446 0.37504 0.0
C143 C 0.33555 0.3021 0.35196 0.0
O144 O 0.25312 0.34394 0.33747 0.0
Co145 Co 0.22306 0.23677 0.38298 0.0
O146 O 0.19668 0.24967 0.33665 0.0
C147 C 0.21635 0.31794 0.43131 0.0
C148 C 0.38321 0.44687 0.39858 0.0
C149 C 0.2124 0.29846 0.32394 0.0
O150 O 0.25669 0.35936 0.41414 0.0
O151 O 0.20089 0.26628 0.42507 0.0
O152 O 0.3608 0.35433 0.34168 0.0
O153 O 0.30235 0.29113 0.37888 0.0
Co154 Co 0.96255 0.30667 0.54414 0.0
O155 O 0.99126 0.36778 0.578 0.0
O156 O 0.91753 0.34365 0.54326 0.0
C157 C 0.04767 0.32886 0.51994 0.0
O158 O 0.92281 0.24851 0.50465 0.0
Co159 Co 0.99819 0.21532 0.5497 0.0
O160 O 0.95817 0.18991 0.5035 0.0
C161 C 0.91098 0.20965 0.59825 0.0
C162 C 0.9523 0.37795 0.56705 0.0
C163 C 0.92616 0.20711 0.49095 0.0
O164 O 0.91056 0.25048 0.58133 0.0
O165 O 0.94666 0.19352 0.59187 0.0
O166 O 0.02146 0.35506 0.50996 0.0
O167 O 0.02463 0.29496 0.54644 0.0
C168 C 0.03848 0.54657 0.0814 0.0
C169 C 0.08923 0.5976 0.0764 0.0
C170 C 0.03831 0.49744 0.09203 0.0
C171 C 0.08882 0.49764 0.09923 0.0
H172 H 0.99839 0.54431 0.07654 0.0
H173 H 0.99808 0.45915 0.09535 0.0
S174 S 0.23317 0.62047 0.09073 0.0
N175 N 0.19151 0.64527 0.079 0.0
N176 N 0.19112 0.55336 0.10074 0.0
C177 C 0.13995 0.54849 0.09477 0.0
C178 C 0.14018 0.59831 0.08284 0.0
C179 C 0.59968 0.13087 0.26047 0.0
C180 C 0.60032 0.08039 0.26614 0.0
C181 C 0.55015 0.13017 0.24918 0.0
C182 C 0.49922 0.079 0.24457 0.0
H183 H 0.63785 0.17104 0.26421 0.0
H184 H 0.55148 0.16983 0.2446 0.0
S185 S 0.47842 0.93551 0.25693 0.0
N186 N 0.54564 0.9781 0.26628 0.0
N187 N 0.45272 0.97684 0.24666 0.0
C188 C 0.49934 0.02848 0.25071 0.0
C189 C 0.54983 0.02916 0.26109 0.0
C190 C 0.53454 0.54936 0.425 0.0
C191 C 0.53458 0.59984 0.43188 0.0
C192 C 0.48509 0.50018 0.41488 0.0
C193 C 0.43395 0.49982 0.41009 0.0
H194 H 0.5729 0.54748 0.42816 0.0
H195 H 0.48719 0.46225 0.41022 0.0
S196 S 0.41159 0.62124 0.42379 0.0
N197 N 0.47894 0.64647 0.43336 0.0
N198 N 0.38644 0.55455 0.41257 0.0
C199 C 0.43347 0.55021 0.41623 0.0
C200 C 0.48362 0.60003 0.42765 0.0
C201 C 0.89997 0.47827 0.59489 0.0
C202 C 0.95064 0.52917 0.60083 0.0
C203 C 0.90038 0.42936 0.58349 0.0
C204 C 0.95142 0.42928 0.57892 0.0
H205 H 0.85987 0.47651 0.59847 0.0
H206 H 0.86056 0.39123 0.57872 0.0
S207 S 0.09537 0.55133 0.59195 0.0
N208 N 0.053 0.57618 0.60134 0.0
N209 N 0.05371 0.48449 0.58136 0.0
C210 C 1.00214 0.47972 0.58534 0.0
C211 C 1.00176 0.52958 0.59592 0.0
C212 C 0.53174 0.99192 0.74873 0.0
C213 C 0.53211 0.94128 0.74353 0.0
C214 C 0.48243 0.99196 0.75882 0.0
C215 C 0.43184 0.94138 0.76524 0.0
H216 H 0.56976 0.03203 0.74443 0.0
H217 H 0.4843 0.0321 0.76235 0.0
S218 S 0.41043 0.79727 0.75591 0.0
N219 N 0.4773 0.83904 0.74507 0.0
N220 N 0.38511 0.83916 0.76585 0.0
C221 C 0.43165 0.89036 0.76058 0.0
C222 C 0.48161 0.89029 0.74918 0.0
C223 C 0.55094 0.42972 0.92792 0.0
C224 C 0.5003 0.42989 0.9342 0.0
C225 C 0.60006 0.47895 0.91668 0.0
C226 C 0.60064 0.53037 0.91271 0.0
H227 H 0.55227 0.39112 0.93103 0.0
H228 H 0.63794 0.47696 0.91153 0.0
S229 S 0.47945 0.55327 0.9269 0.0
N230 N 0.45403 0.48582 0.93568 0.0
N231 N 0.54623 0.57817 0.91615 0.0
C232 C 0.5505 0.53105 0.91956 0.0
C233 C 0.50039 0.48088 0.9299 0.0
C234 C 0.22677 0.36377 0.06287 0.0
C235 C 0.16947 0.3272 0.05513 0.0
C236 C 0.26949 0.36513 0.04125 0.0
C237 C 0.25649 0.3305 0.01085 0.0
H238 H 0.23872 0.38911 0.08687 0.0
H239 H 0.31299 0.39222 0.04914 0.0
S240 S 0.11246 0.23336 0.97647 0.0
N241 N 0.10188 0.25943 0.01341 0.0
N242 N 0.18153 0.26319 0.97226 0.0
C243 C 0.19922 0.29661 1.00164 0.0
C244 C 0.15592 0.29463 0.02391 0.0
C245 C 0.87663 0.22462 0.23045 0.0
C246 C 0.85567 0.16737 0.22251 0.0
C247 C 0.91777 0.26738 0.20876 0.0
C248 C 0.93892 0.25446 0.1781 0.0
H249 H 0.86355 0.23647 0.25462 0.0
H250 H 0.93441 0.31082 0.21679 0.0
S251 S 0.89147 0.11057 0.14332 0.0
N252 N 0.85535 0.09994 0.18049 0.0
N253 N 0.93063 0.17958 0.13916 0.0
C254 C 0.91536 0.19723 0.16877 0.0
C255 C 0.87434 0.15392 0.19112 0.0
C256 C 0.74132 0.88002 0.35999 0.0
C257 C 0.70348 0.85326 0.3883 0.0
C258 C 0.73802 0.92018 0.33859 0.0
C259 C 0.69742 0.93633 0.34495 0.0
H260 H 0.77492 0.87093 0.35486 0.0
H261 H 0.76903 0.94016 0.3177 0.0
S262 S 0.58593 0.8764 0.41435 0.0
N263 N 0.62184 0.84334 0.42024 0.0
N264 N 0.61609 0.91957 0.38044 0.0
C265 C 0.65778 0.90828 0.37228 0.0
C266 C 0.66065 0.86658 0.39379 0.0
C267 C 0.76719 0.65935 0.53855 0.0
C268 C 0.77977 0.69409 0.50829 0.0
C269 C 0.81021 0.6608 0.55989 0.0
C270 C 0.86744 0.69757 0.55201 0.0
H271 H 0.72379 0.63221 0.5466 0.0
H272 H 0.79853 0.63547 0.58386 0.0
S273 S 0.92342 0.79165 0.47351 0.0
N274 N 0.85429 0.76159 0.46956 0.0
N275 N 0.93449 0.76557 0.51025 0.0
C276 C 0.88058 0.73018 0.52088 0.0
C277 C 0.83697 0.7281 0.49888 0.0
C278 C 0.10913 0.82701 0.67462 0.0
C279 C 0.09215 0.77009 0.68089 0.0
C280 C 0.15002 0.87015 0.69596 0.0
C281 C 0.17665 0.85849 0.7241 0.0
H282 H 0.08932 0.83844 0.65384 0.0
H283 H 0.15986 0.91304 0.6909 0.0
S284 S 0.15108 0.717 0.74993 0.0
N285 N 0.10772 0.70466 0.71618 0.0
N286 N 0.18528 0.78597 0.75585 0.0
C287 C 0.16231 0.80209 0.72954 0.0
C288 C 0.11987 0.75789 0.70811 0.0
C289 C 0.30048 0.10935 0.83704 0.0
C290 C 0.34034 0.09236 0.84388 0.0
C291 C 0.29721 0.14963 0.85839 0.0
C292 C 0.33438 0.1757 0.88712 0.0
H293 H 0.26992 0.08986 0.81585 0.0
H294 H 0.26406 0.15923 0.85295 0.0
S295 S 0.45011 0.1505 0.9144 0.0
N296 N 0.42043 0.10778 0.88018 0.0
N297 N 0.41479 0.18426 0.91989 0.0
C298 C 0.37663 0.16169 0.89303 0.0
C299 C 0.37944 0.11985 0.87156 0.0
C300 C 0.66335 0.76126 0.80488 0.0
C301 C 0.69778 0.77364 0.83531 0.0
C302 C 0.6655 0.80439 0.78336 0.0
C303 C 0.70267 0.8615 0.79125 0.0
H304 H 0.63589 0.71793 0.79685 0.0
H305 H 0.64027 0.79287 0.75932 0.0
S306 S 0.79632 0.91698 0.87009 0.0
N307 N 0.76557 0.84788 0.87412 0.0
N308 N 0.77082 0.92825 0.83315 0.0
C309 C 0.73508 0.87445 0.82249 0.0
C310 C 0.7323 0.83075 0.84466 0.0
C311 C 0.88382 0.73463 0.98251 0.0
C312 C 0.85789 0.69721 0.95387 0.0
C313 C 0.92468 0.73215 1.00372 0.0
C314 C 0.94234 0.69286 0.99682 0.0
H315 H 0.87358 0.76731 0.988 0.0
H316 H 0.94399 0.76281 0.02488 0.0
S317 S 0.88502 0.5829 0.92641 0.0
N318 N 0.85035 0.61733 0.92104 0.0
N319 N 0.9279 0.61315 0.96049 0.0
C320 C 0.91514 0.65363 0.96915 0.0
C321 C 0.87272 0.65562 0.94784 0.0
C322 C 0.26727 0.90864 0.13855 0.0
C323 C 0.25473 0.9313 0.16861 0.0
C324 C 0.22423 0.86689 0.11732 0.0
C325 C 0.16701 0.84671 0.12512 0.0
H326 H 0.31066 0.92461 0.13057 0.0
H327 H 0.23589 0.85281 0.0935 0.0
S328 S 0.11116 0.88616 0.20319 0.0
N329 N 0.1803 0.92514 0.20711 0.0
N330 N 0.10003 0.84848 0.16667 0.0
C331 C 0.15391 0.86669 0.15608 0.0
C332 C 0.19756 0.90845 0.17796 0.0
C333 C 0.29546 0.15649 0.31712 0.0
C334 C 0.33253 0.16763 0.28833 0.0
C335 C 0.29854 0.20002 0.33839 0.0
C336 C 0.33809 0.25685 0.33141 0.0
H337 H 0.26259 0.11369 0.32269 0.0
H338 H 0.26811 0.18893 0.35966 0.0
S339 S 0.44741 0.3086 0.26063 0.0
N340 N 0.41244 0.23952 0.25529 0.0
N341 N 0.41772 0.32161 0.29486 0.0
C342 C 0.37701 0.26853 0.30361 0.0
C343 C 0.37442 0.22391 0.28223 0.0
C344 C 0.15404 0.28977 0.48504 0.0
C345 C 0.18143 0.32847 0.45722 0.0
C346 C 0.11271 0.29182 0.50603 0.0
C347 C 0.09609 0.33205 0.49977 0.0
H348 H 0.16341 0.25636 0.48999 0.0
H349 H 0.09221 0.26013 0.52647 0.0
S350 S 0.15756 0.44577 0.43198 0.0
N351 N 0.19149 0.41071 0.42609 0.0
N352 N 0.11324 0.41415 0.46518 0.0
C353 C 0.12481 0.37261 0.47307 0.0
C354 C 0.16764 0.371 0.45196 0.0
C355 C 0.87644 0.14828 0.6523 0.0
C356 C 0.86531 0.17507 0.62404 0.0
C357 C 0.83285 0.10731 0.6733 0.0
C358 C 0.77599 0.09041 0.66656 0.0
H359 H 0.91923 0.15784 0.6576 0.0
H360 H 0.84389 0.08725 0.69412 0.0
S361 S 0.72424 0.15026 0.59732 0.0
N362 N 0.79335 0.18429 0.59188 0.0
N363 N 0.71124 0.10662 0.63094 0.0
C364 C 0.76435 0.11855 0.63937 0.0
C365 C 0.80899 0.16105 0.61827 0.0
C366 C 0.20902 0.34484 0.26676 0.0
C367 C 0.1817 0.30188 0.29228 0.0
C368 C 0.18155 0.34495 0.23507 0.0
C369 C 0.12592 0.30208 0.22789 0.0
H370 H 0.25251 0.3774 0.27067 0.0
H371 H 0.20472 0.37755 0.21553 0.0
S372 S 0.03261 0.18589 0.2888 0.0
N373 N 0.09347 0.21946 0.31001 0.0
N374 N 0.04236 0.21974 0.25081 0.0
C375 C 0.09724 0.26089 0.25412 0.0
C376 C 0.12498 0.26076 0.2862 0.0
C377 C 0.87794 0.2058 0.43347 0.0
C378 C 0.89141 0.17718 0.45934 0.0
C379 C 0.85004 0.17883 0.40173 0.0
C380 C 0.83481 0.12244 0.3949 0.0
H381 H 0.89094 0.24985 0.43713 0.0
H382 H 0.84248 0.2029 0.38184 0.0
S383 S 0.85109 0.02607 0.45682 0.0
N384 N 0.88066 0.0872 0.4778 0.0
N385 N 0.82869 0.03702 0.41849 0.0
C386 C 0.84496 0.09257 0.42151 0.0
C387 C 0.87314 0.11979 0.45362 0.0
C388 C 0.77976 0.89388 0.61049 0.0
C389 C 0.731 0.89396 0.62236 0.0
C390 C 0.78001 0.86695 0.57893 0.0
C391 C 0.73152 0.83857 0.55753 0.0
H392 H 0.81862 0.91506 0.6256 0.0
H393 H 0.819 0.86869 0.57128 0.0
S394 S 0.5922 0.82522 0.57646 0.0
N395 N 0.63225 0.86235 0.6102 0.0
N396 N 0.63276 0.81151 0.5507 0.0
C397 C 0.68196 0.83726 0.56923 0.0
C398 C 0.6817 0.86496 0.6016 0.0
C399 C 0.87394 0.67995 0.74417 0.0
C400 C 0.88836 0.72226 0.71833 0.0
C401 C 0.84657 0.67985 0.77595 0.0
C402 C 0.83286 0.72209 0.78289 0.0
H403 H 0.88586 0.64808 0.74047 0.0
H404 H 0.83828 0.64796 0.7958 0.0
S405 S 0.85208 0.83599 0.72114 0.0
N406 N 0.88009 0.80302 0.70003 0.0
N407 N 0.82919 0.80282 0.75946 0.0
C408 C 0.84395 0.76241 0.75633 0.0
C409 C 0.87155 0.76251 0.72415 0.0
C410 C 0.18788 0.85067 0.90157 0.0
C411 C 0.20099 0.90643 0.89466 0.0
C412 C 0.16022 0.82308 0.93319 0.0
C413 C 0.14484 0.85039 0.95892 0.0
H414 H 0.19705 0.8275 0.88186 0.0
H415 H 0.14898 0.77949 0.93687 0.0
S416 S 0.17893 0.99971 0.95621 0.0
N417 N 0.20285 0.99006 0.91806 0.0
N418 N 0.1513 0.93869 0.97715 0.0
C419 C 0.16083 0.90722 0.95312 0.0
C420 C 0.18878 0.9351 0.9211 0.0
C421 C 0.25609 0.10408 0.09759 0.0
C422 C 0.30449 0.1244 0.11908 0.0
C423 C 0.25622 0.13136 0.06616 0.0
C424 C 0.30477 0.18055 0.0545 0.0
H425 H 0.21723 0.06661 0.10509 0.0
H426 H 0.2174 0.11351 0.051 0.0
S427 S 0.44344 0.25092 0.10055 0.0
N428 N 0.40306 0.19641 0.12613 0.0
N429 N 0.40336 0.24799 0.06682 0.0
C430 C 0.35406 0.20094 0.07529 0.0
C431 C 0.35392 0.17285 0.10754 0.0
loop_
_geom_bond_atom_site_label_1
_geom_bond_atom_site_label_2
_geom_bond_distance
_geom_bond_site_symmetry_2
_ccdc_geom_bond_type
Co0 O1 2.216 . S
Co0 O2 2.091 . S
Co0 O4 2.004 . S
Co0 O10 2.021 . S
Co0 O12 2.137 1_455 S
Co0 O13 2.244 1_455 S
O1 Co0 2.216 . S
O1 C8 1.247 . S
O2 Co0 2.091 . S
O2 C8 1.261 . S
C3 O12 1.247 . S
C3 O13 1.272 . S
O4 Co0 2.004 . S
O4 C9 1.259 . S
Co5 O6 2.061 . S
Co5 O11 2.052 . S
Co5 O13 2.135 1_455 S
O6 Co5 2.061 . S
O6 C9 1.235 . S
C7 O10 1.238 . S
C7 O11 1.241 . S
C8 O1 1.247 . S
C8 O2 1.261 . S
C9 O4 1.259 . S
C9 O6 1.235 . S
O10 Co0 2.021 . S
O10 C7 1.238 . S
O11 Co5 2.052 . S
O11 C7 1.241 . S
O12 Co0 2.137 1_655 S
O12 C3 1.247 . S
O13 Co0 2.244 1_655 S
O13 C3 1.272 . S
O13 Co5 2.135 1_655 S
Co14 O15 2.216 . S
Co14 O16 2.091 . S
Co14 O18 2.004 . S
Co14 O24 2.021 . S
Co14 O26 2.137 1_545 S
Co14 O27 2.244 1_545 S
O15 Co14 2.216 . S
O15 C22 1.247 . S
O16 Co14 2.091 . S
O16 C22 1.261 . S
C17 O26 1.247 . S
C17 O27 1.272 . S
O18 Co14 2.004 . S
O18 C23 1.259 . S
Co19 O20 2.061 . S
Co19 O25 2.052 . S
Co19 O27 2.135 1_545 S
O20 Co19 2.061 . S
O20 C23 1.235 . S
C21 O24 1.238 . S
C21 O25 1.241 . S
C22 O15 1.247 . S
C22 O16 1.261 . S
C23 O18 1.259 . S
C23 O20 1.235 . S
O24 Co14 2.021 . S
O24 C21 1.238 . S
O25 Co19 2.052 . S
O25 C21 1.241 . S
O26 Co14 2.137 1_565 S
O26 C17 1.247 . S
O27 Co14 2.244 1_565 S
O27 C17 1.272 . S
O27 Co19 2.135 1_565 S
Co28 O29 2.216 . S
Co28 O30 2.091 . S
Co28 O32 2.004 . S
Co28 O38 2.021 . S
Co28 O40 2.137 . S
Co28 O41 2.244 . S
O29 Co28 2.216 . S
O29 C36 1.247 . S
O30 Co28 2.091 . S
O30 C36 1.261 . S
C31 O40 1.247 . S
C31 O41 1.272 . S
O32 Co28 2.004 . S
O32 C37 1.259 . S
Co33 O34 2.061 . S
Co33 O39 2.052 . S
Co33 O41 2.135 . S
O34 Co33 2.061 . S
O34 C37 1.235 . S
C35 O38 1.238 . S
C35 O39 1.241 . S
C36 O29 1.247 . S
C36 O30 1.261 . S
C37 O32 1.259 . S
C37 O34 1.235 . S
O38 Co28 2.021 . S
O38 C35 1.238 . S
O39 Co33 2.052 . S
O39 C35 1.241 . S
O40 Co28 2.137 . S
O40 C31 1.247 . S
O41 Co28 2.244 . S
O41 C31 1.272 . S
O41 Co33 2.135 . S
Co42 O43 2.216 . S
Co42 O44 2.091 . S
Co42 O46 2.004 . S
Co42 O52 2.021 . S
Co42 O54 2.137 1_655 S
Co42 O55 2.244 1_655 S
O43 Co42 2.216 . S
O43 C50 1.247 . S
O44 Co42 2.091 . S
O44 C50 1.261 . S
C45 O54 1.247 . S
C45 O55 1.272 . S
O46 Co42 2.004 . S
O46 C51 1.259 . S
Co47 O48 2.061 . S
Co47 O53 2.052 . S
Co47 O55 2.135 1_655 S
O48 Co47 2.061 . S
O48 C51 1.235 . S
C49 O52 1.238 . S
C49 O53 1.241 . S
C50 O43 1.247 . S
C50 O44 1.261 . S
C51 O46 1.259 . S
C51 O48 1.235 . S
O52 Co42 2.021 . S
O52 C49 1.238 . S
O53 Co47 2.052 . S
O53 C49 1.241 . S
O54 Co42 2.137 1_455 S
O54 C45 1.247 . S
O55 Co42 2.244 1_455 S
O55 C45 1.272 . S
O55 Co47 2.135 1_455 S
Co56 O57 2.216 . S
Co56 O58 2.091 . S
Co56 O60 2.004 . S
Co56 O66 2.021 . S
Co56 O68 2.137 1_565 S
Co56 O69 2.244 1_565 S
O57 Co56 2.216 . S
O57 C64 1.247 . S
O58 Co56 2.091 . S
O58 C64 1.261 . S
C59 O68 1.247 . S
C59 O69 1.272 . S
O60 Co56 2.004 . S
O60 C65 1.259 . S
Co61 O62 2.061 . S
Co61 O67 2.052 . S
Co61 O69 2.135 1_565 S
O62 Co61 2.061 . S
O62 C65 1.235 . S
C63 O66 1.238 . S
C63 O67 1.241 . S
C64 O57 1.247 . S
C64 O58 1.261 . S
C65 O60 1.259 . S
C65 O62 1.235 . S
O66 Co56 2.021 . S
O66 C63 1.238 . S
O67 Co61 2.052 . S
O67 C63 1.241 . S
O68 Co56 2.137 1_545 S
O68 C59 1.247 . S
O69 Co56 2.244 1_545 S
O69 C59 1.272 . S
O69 Co61 2.135 1_545 S
Co70 O71 2.216 . S
Co70 O72 2.091 . S
Co70 O74 2.004 1_556 S
Co70 O80 2.021 . S
Co70 O82 2.137 . S
Co70 O83 2.244 . S
O71 Co70 2.216 . S
O71 C78 1.247 . S
O72 Co70 2.091 . S
O72 C78 1.261 . S
C73 O82 1.247 . S
C73 O83 1.272 . S
O74 Co70 2.004 1_554 S
O74 C79 1.259 . S
Co75 O76 2.061 1_556 S
Co75 O81 2.052 . S
Co75 O83 2.135 . S
O76 Co75 2.061 1_554 S
O76 C79 1.235 . S
C77 O80 1.238 . S
C77 O81 1.241 . S
C78 O71 1.247 . S
C78 O72 1.261 . S
C79 O74 1.259 . S
C79 O76 1.235 . S
O80 Co70 2.021 . S
O80 C77 1.238 . S
O81 Co75 2.052 . S
O81 C77 1.241 . S
O82 Co70 2.137 . S
O82 C73 1.247 . S
O83 Co70 2.244 . S
O83 C73 1.272 . S
O83 Co75 2.135 . S
Co84 O85 2.216 . S
Co84 O86 2.091 . S
Co84 O88 2.004 . S
Co84 O94 2.021 . S
Co84 O96 2.137 1_565 S
Co84 O97 2.244 1_565 S
O85 Co84 2.216 . S
O85 C92 1.247 . S
O86 Co84 2.091 . S
O86 C92 1.261 . S
C87 O96 1.247 . S
C87 O97 1.272 . S
O88 Co84 2.004 . S
O88 C93 1.259 . S
Co89 O90 2.061 . S
Co89 O95 2.052 . S
Co89 O97 2.135 1_565 S
O90 Co89 2.061 . S
O90 C93 1.235 . S
C91 O94 1.238 . S
C91 O95 1.241 . S
C92 O85 1.247 . S
C92 O86 1.261 . S
C93 O88 1.259 . S
C93 O90 1.235 . S
O94 Co84 2.021 . S
O94 C91 1.238 . S
O95 Co89 2.052 . S
O95 C91 1.241 . S
O96 Co84 2.137 1_545 S
O96 C87 1.247 . S
O97 Co84 2.244 1_545 S
O97 C87 1.272 . S
O97 Co89 2.135 1_545 S
Co98 O99 2.216 . S
Co98 O100 2.091 . S
Co98 O102 2.004 . S
Co98 O108 2.021 . S
Co98 O110 2.137 . S
Co98 O111 2.244 . S
O99 Co98 2.216 . S
O99 C106 1.247 . S
O100 Co98 2.091 . S
O100 C106 1.261 . S
C101 O110 1.247 . S
C101 O111 1.272 . S
O102 Co98 2.004 . S
O102 C107 1.259 . S
Co103 O104 2.061 . S
Co103 O109 2.052 . S
Co103 O111 2.135 . S
O104 Co103 2.061 . S
O104 C107 1.235 . S
C105 O108 1.238 . S
C105 O109 1.241 . S
C106 O99 1.247 . S
C106 O100 1.261 . S
C107 O102 1.259 . S
C107 O104 1.235 . S
O108 Co98 2.021 . S
O108 C105 1.238 . S
O109 Co103 2.052 . S
O109 C105 1.241 . S
O110 Co98 2.137 . S
O110 C101 1.247 . S
O111 Co98 2.244 . S
O111 C101 1.272 . S
O111 Co103 2.135 . S
Co112 O113 2.216 . S
Co112 O114 2.091 . S
Co112 O116 2.004 1_554 S
Co112 O122 2.021 . S
Co112 O124 2.137 1_455 S
Co112 O125 2.244 1_455 S
O113 Co112 2.216 . S
O113 C120 1.247 . S
O114 Co112 2.091 . S
O114 C120 1.261 . S
C115 O124 1.247 . S
C115 O125 1.272 . S
O116 Co112 2.004 1_556 S
O116 C121 1.259 . S
Co117 O118 2.061 1_554 S
Co117 O123 2.052 . S
Co117 O125 2.135 1_455 S
O118 Co117 2.061 1_556 S
O118 C121 1.235 . S
C119 O122 1.238 . S
C119 O123 1.241 . S
C120 O113 1.247 . S
C120 O114 1.261 . S
C121 O116 1.259 . S
C121 O118 1.235 . S
O122 Co112 2.021 . S
O122 C119 1.238 . S
O123 Co117 2.052 . S
O123 C119 1.241 . S
O124 Co112 2.137 1_655 S
O124 C115 1.247 . S
O125 Co112 2.244 1_655 S
O125 C115 1.272 . S
O125 Co117 2.135 1_655 S
Co126 O127 2.216 . S
Co126 O128 2.091 . S
Co126 O130 2.004 . S
Co126 O136 2.021 . S
Co126 O138 2.137 1_545 S
Co126 O139 2.244 1_545 S
O127 Co126 2.216 . S
O127 C134 1.247 . S
O128 Co126 2.091 . S
O128 C134 1.261 . S
C129 O138 1.247 . S
C129 O139 1.272 . S
O130 Co126 2.004 . S
O130 C135 1.259 . S
Co131 O132 2.061 . S
Co131 O137 2.052 . S
Co131 O139 2.135 1_545 S
O132 Co131 2.061 . S
O132 C135 1.235 . S
C133 O136 1.238 . S
C133 O137 1.241 . S
C134 O127 1.247 . S
C134 O128 1.261 . S
C135 O130 1.259 . S
C135 O132 1.235 . S
O136 Co126 2.021 . S
O136 C133 1.238 . S
O137 Co131 2.052 . S
O137 C133 1.241 . S
O138 Co126 2.137 1_565 S
O138 C129 1.247 . S
O139 Co126 2.244 1_565 S
O139 C129 1.272 . S
O139 Co131 2.135 1_565 S
Co140 O141 2.216 . S
Co140 O142 2.091 . S
Co140 O144 2.004 . S
Co140 O150 2.021 . S
Co140 O152 2.137 . S
Co140 O153 2.244 . S
O141 Co140 2.216 . S
O141 C148 1.247 . S
O142 Co140 2.091 . S
O142 C148 1.261 . S
C143 O152 1.247 . S
C143 O153 1.272 . S
O144 Co140 2.004 . S
O144 C149 1.259 . S
Co145 O146 2.061 . S
Co145 O151 2.052 . S
Co145 O153 2.135 . S
O146 Co145 2.061 . S
O146 C149 1.235 . S
C147 O150 1.238 . S
C147 O151 1.241 . S
C148 O141 1.247 . S
C148 O142 1.261 . S
C149 O144 1.259 . S
C149 O146 1.235 . S
O150 Co140 2.021 . S
O150 C147 1.238 . S
O151 Co145 2.052 . S
O151 C147 1.241 . S
O152 Co140 2.137 . S
O152 C143 1.247 . S
O153 Co140 2.244 . S
O153 C143 1.272 . S
O153 Co145 2.135 . S
Co154 O155 2.216 . S
Co154 O156 2.091 . S
Co154 O158 2.004 . S
Co154 O164 2.021 . S
Co154 O166 2.137 1_655 S
Co154 O167 2.244 1_655 S
O155 Co154 2.216 . S
O155 C162 1.247 . S
O156 Co154 2.091 . S
O156 C162 1.261 . S
C157 O166 1.247 . S
C157 O167 1.272 . S
O158 Co154 2.004 . S
O158 C163 1.259 . S
Co159 O160 2.061 . S
Co159 O165 2.052 . S
Co159 O167 2.135 1_655 S
O160 Co159 2.061 . S
O160 C163 1.235 . S
C161 O164 1.238 . S
C161 O165 1.241 . S
C162 O155 1.247 . S
C162 O156 1.261 . S
C163 O158 1.259 . S
C163 O160 1.235 . S
O164 Co154 2.021 . S
O164 C161 1.238 . S
O165 Co159 2.052 . S
O165 C161 1.241 . S
O166 Co154 2.137 1_455 S
O166 C157 1.247 . S
O167 Co154 2.244 1_455 S
O167 C157 1.272 . S
O167 Co159 2.135 1_455 S
C168 C169 1.369 1_655 S
C168 C170 1.419 . S
C168 H172 0.930 . S
C169 C168 1.369 1_455 S
C169 C178 1.429 . S
C170 C168 1.419 . S
C170 C171 1.363 1_655 S
C170 H173 0.929 . S
C171 C170 1.363 1_455 S
C171 C177 1.428 . S
H172 C168 0.930 . S
H173 C170 0.929 . S
S174 N175 1.613 . S
S174 N176 1.610 . S
N175 S174 1.613 . S
N175 C178 1.350 . S
N176 S174 1.610 . S
N176 C177 1.351 . S
C177 C171 1.428 . S
C177 N176 1.351 . S
C177 C178 1.434 . S
C178 C169 1.429 . S
C178 N175 1.350 . S
C178 C177 1.434 . S
C179 C180 1.369 . S
C179 C181 1.419 . S
C179 H183 0.930 . S
C180 C179 1.369 . S
C180 C189 1.429 1_545 S
C181 C179 1.419 . S
C181 C182 1.363 . S
C181 H184 0.929 . S
C182 C181 1.363 . S
C182 C188 1.428 1_545 S
H183 C179 0.930 . S
H184 C181 0.929 . S
S185 N186 1.613 . S
S185 N187 1.610 . S
N186 S185 1.613 . S
N186 C189 1.350 . S
N187 S185 1.610 . S
N187 C188 1.351 . S
C188 C182 1.428 1_565 S
C188 N187 1.351 . S
C188 C189 1.434 . S
C189 C180 1.429 1_565 S
C189 N186 1.350 . S
C189 C188 1.434 . S
C190 C191 1.369 . S
C190 C192 1.419 . S
C190 H194 0.930 . S
C191 C190 1.369 . S
C191 C200 1.429 . S
C192 C190 1.419 . S
C192 C193 1.363 . S
C192 H195 0.929 . S
C193 C192 1.363 . S
C193 C199 1.428 . S
H194 C190 0.930 . S
H195 C192 0.929 . S
S196 N197 1.613 . S
S196 N198 1.610 . S
N197 S196 1.613 . S
N197 C200 1.350 . S
N198 S196 1.610 . S
N198 C199 1.351 . S
C199 C193 1.428 . S
C199 N198 1.351 . S
C199 C200 1.434 . S
C200 C191 1.429 . S
C200 N197 1.350 . S
C200 C199 1.434 . S
C201 C202 1.369 . S
C201 C203 1.419 . S
C201 H205 0.930 . S
C202 C201 1.369 . S
C202 C211 1.429 1_655 S
C203 C201 1.419 . S
C203 C204 1.363 . S
C203 H206 0.929 . S
C204 C203 1.363 . S
C204 C210 1.428 1_655 S
H205 C201 0.930 . S
H206 C203 0.929 . S
S207 N208 1.613 . S
S207 N209 1.610 . S
N208 S207 1.613 . S
N208 C211 1.350 . S
N209 S207 1.610 . S
N209 C210 1.351 . S
C210 C204 1.428 1_455 S
C210 N209 1.351 . S
C210 C211 1.434 . S
C211 C202 1.429 1_455 S
C211 N208 1.350 . S
C211 C210 1.434 . S
C212 C213 1.369 1_545 S
C212 C214 1.419 . S
C212 H216 0.930 . S
C213 C212 1.369 1_565 S
C213 C222 1.429 . S
C214 C212 1.419 . S
C214 C215 1.363 1_545 S
C214 H217 0.929 . S
C215 C214 1.363 1_565 S
C215 C221 1.428 . S
H216 C212 0.930 . S
H217 C214 0.929 . S
S218 N219 1.613 . S
S218 N220 1.610 . S
N219 S218 1.613 . S
N219 C222 1.350 . S
N220 S218 1.610 . S
N220 C221 1.351 . S
C221 C215 1.428 . S
C221 N220 1.351 . S
C221 C222 1.434 . S
C222 C213 1.429 . S
C222 N219 1.350 . S
C222 C221 1.434 . S
C223 C224 1.369 . S
C223 C225 1.419 . S
C223 H227 0.930 . S
C224 C223 1.369 . S
C224 C233 1.429 . S
C225 C223 1.419 . S
C225 C226 1.363 . S
C225 H228 0.929 . S
C226 C225 1.363 . S
C226 C232 1.428 . S
H227 C223 0.930 . S
H228 C225 0.929 . S
S229 N230 1.613 . S
S229 N231 1.610 . S
N230 S229 1.613 . S
N230 C233 1.350 . S
N231 S229 1.610 . S
N231 C232 1.351 . S
C232 C226 1.428 . S
C232 N231 1.351 . S
C232 C233 1.434 . S
C233 C224 1.429 . S
C233 N230 1.350 . S
C233 C232 1.434 . S
C234 C235 1.369 . S
C234 C236 1.419 . S
C234 H238 0.930 . S
C235 C234 1.369 . S
C235 C244 1.429 . S
C236 C234 1.419 . S
C236 C237 1.363 . S
C236 H239 0.929 . S
C237 C236 1.363 . S
C237 C243 1.428 1_554 S
H238 C234 0.930 . S
H239 C236 0.929 . S
S240 N241 1.613 1_556 S
S240 N242 1.610 . S
N241 S240 1.613 1_554 S
N241 C244 1.350 . S
N242 S240 1.610 . S
N242 C243 1.351 . S
C243 C237 1.428 1_556 S
C243 N242 1.351 . S
C243 C244 1.434 1_556 S
C244 C235 1.429 . S
C244 N241 1.350 . S
C244 C243 1.434 1_554 S
C245 C246 1.369 . S
C245 C247 1.419 . S
C245 H249 0.930 . S
C246 C245 1.369 . S
C246 C255 1.429 . S
C247 C245 1.419 . S
C247 C248 1.363 . S
C247 H250 0.929 . S
C248 C247 1.363 . S
C248 C254 1.428 . S
H249 C245 0.930 . S
H250 C247 0.929 . S
S251 N252 1.613 . S
S251 N253 1.610 . S
N252 S251 1.613 . S
N252 C255 1.350 . S
N253 S251 1.610 . S
N253 C254 1.351 . S
C254 C248 1.428 . S
C254 N253 1.351 . S
C254 C255 1.434 . S
C255 C246 1.429 . S
C255 N252 1.350 . S
C255 C254 1.434 . S
C256 C257 1.369 . S
C256 C258 1.419 . S
C256 H260 0.930 . S
C257 C256 1.369 . S
C257 C266 1.429 . S
C258 C256 1.419 . S
C258 C259 1.363 . S
C258 H261 0.929 . S
C259 C258 1.363 . S
C259 C265 1.428 . S
H260 C256 0.930 . S
H261 C258 0.929 . S
S262 N263 1.613 . S
S262 N264 1.610 . S
N263 S262 1.613 . S
N263 C266 1.350 . S
N264 S262 1.610 . S
N264 C265 1.351 . S
C265 C259 1.428 . S
C265 N264 1.351 . S
C265 C266 1.434 . S
C266 C257 1.429 . S
C266 N263 1.350 . S
C266 C265 1.434 . S
C267 C268 1.369 . S
C267 C269 1.419 . S
C267 H271 0.930 . S
C268 C267 1.369 . S
C268 C277 1.429 . S
C269 C267 1.419 . S
C269 C270 1.363 . S
C269 H272 0.929 . S
C270 C269 1.363 . S
C270 C276 1.428 . S
H271 C267 0.930 . S
H272 C269 0.929 . S
S273 N274 1.613 . S
S273 N275 1.610 . S
N274 S273 1.613 . S
N274 C277 1.350 . S
N275 S273 1.610 . S
N275 C276 1.351 . S
C276 C270 1.428 . S
C276 N275 1.351 . S
C276 C277 1.434 . S
C277 C268 1.429 . S
C277 N274 1.350 . S
C277 C276 1.434 . S
C278 C279 1.369 . S
C278 C280 1.419 . S
C278 H282 0.930 . S
C279 C278 1.369 . S
C279 C288 1.429 . S
C280 C278 1.419 . S
C280 C281 1.363 . S
C280 H283 0.929 . S
C281 C280 1.363 . S
C281 C287 1.428 . S
H282 C278 0.930 . S
H283 C280 0.929 . S
S284 N285 1.613 . S
S284 N286 1.610 . S
N285 S284 1.613 . S
N285 C288 1.350 . S
N286 S284 1.610 . S
N286 C287 1.351 . S
C287 C281 1.428 . S
C287 N286 1.351 . S
C287 C288 1.434 . S
C288 C279 1.429 . S
C288 N285 1.350 . S
C288 C287 1.434 . S
C289 C290 1.369 . S
C289 C291 1.419 . S
C289 H293 0.930 . S
C290 C289 1.369 . S
C290 C299 1.429 . S
C291 C289 1.419 . S
C291 C292 1.363 . S
C291 H294 0.929 . S
C292 C291 1.363 . S
C292 C298 1.428 . S
H293 C289 0.930 . S
H294 C291 0.929 . S
S295 N296 1.613 . S
S295 N297 1.610 . S
N296 S295 1.613 . S
N296 C299 1.350 . S
N297 S295 1.610 . S
N297 C298 1.351 . S
C298 C292 1.428 . S
C298 N297 1.351 . S
C298 C299 1.434 . S
C299 C290 1.429 . S
C299 N296 1.350 . S
C299 C298 1.434 . S
C300 C301 1.369 . S
C300 C302 1.419 . S
C300 H304 0.930 . S
C301 C300 1.369 . S
C301 C310 1.429 . S
C302 C300 1.419 . S
C302 C303 1.363 . S
C302 H305 0.929 . S
C303 C302 1.363 . S
C303 C309 1.428 . S
H304 C300 0.930 . S
H305 C302 0.929 . S
S306 N307 1.613 . S
S306 N308 1.610 . S
N307 S306 1.613 . S
N307 C310 1.350 . S
N308 S306 1.610 . S
N308 C309 1.351 . S
C309 C303 1.428 . S
C309 N308 1.351 . S
C309 C310 1.434 . S
C310 C301 1.429 . S
C310 N307 1.350 . S
C310 C309 1.434 . S
C311 C312 1.369 . S
C311 C313 1.419 . S
C311 H315 0.930 . S
C312 C311 1.369 . S
C312 C321 1.429 . S
C313 C311 1.419 . S
C313 C314 1.363 . S
C313 H316 0.929 1_556 S
C314 C313 1.363 . S
C314 C320 1.428 . S
H315 C311 0.930 . S
H316 C313 0.929 1_554 S
S317 N318 1.613 . S
S317 N319 1.610 . S
N318 S317 1.613 . S
N318 C321 1.350 . S
N319 S317 1.610 . S
N319 C320 1.351 . S
C320 C314 1.428 . S
C320 N319 1.351 . S
C320 C321 1.434 . S
C321 C312 1.429 . S
C321 N318 1.350 . S
C321 C320 1.434 . S
C322 C323 1.369 . S
C322 C324 1.419 . S
C322 H326 0.930 . S
C323 C322 1.369 . S
C323 C332 1.429 . S
C324 C322 1.419 . S
C324 C325 1.363 . S
C324 H327 0.929 . S
C325 C324 1.363 . S
C325 C331 1.428 . S
H326 C322 0.930 . S
H327 C324 0.929 . S
S328 N329 1.613 . S
S328 N330 1.610 . S
N329 S328 1.613 . S
N329 C332 1.350 . S
N330 S328 1.610 . S
N330 C331 1.351 . S
C331 C325 1.428 . S
C331 N330 1.351 . S
C331 C332 1.434 . S
C332 C323 1.429 . S
C332 N329 1.350 . S
C332 C331 1.434 . S
C333 C334 1.369 . S
C333 C335 1.419 . S
C333 H337 0.930 . S
C334 C333 1.369 . S
C334 C343 1.429 . S
C335 C333 1.419 . S
C335 C336 1.363 . S
C335 H338 0.929 . S
C336 C335 1.363 . S
C336 C342 1.428 . S
H337 C333 0.930 . S
H338 C335 0.929 . S
S339 N340 1.613 . S
S339 N341 1.610 . S
N340 S339 1.613 . S
N340 C343 1.350 . S
N341 S339 1.610 . S
N341 C342 1.351 . S
C342 C336 1.428 . S
C342 N341 1.351 . S
C342 C343 1.434 . S
C343 C334 1.429 . S
C343 N340 1.350 . S
C343 C342 1.434 . S
C344 C345 1.369 . S
C344 C346 1.419 . S
C344 H348 0.930 . S
C345 C344 1.369 . S
C345 C354 1.429 . S
C346 C344 1.419 . S
C346 C347 1.363 . S
C346 H349 0.929 . S
C347 C346 1.363 . S
C347 C353 1.428 . S
H348 C344 0.930 . S
H349 C346 0.929 . S
S350 N351 1.613 . S
S350 N352 1.610 . S
N351 S350 1.613 . S
N351 C354 1.350 . S
N352 S350 1.610 . S
N352 C353 1.351 . S
C353 C347 1.428 . S
C353 N352 1.351 . S
C353 C354 1.434 . S
C354 C345 1.429 . S
C354 N351 1.350 . S
C354 C353 1.434 . S
C355 C356 1.369 . S
C355 C357 1.419 . S
C355 H359 0.930 . S
C356 C355 1.369 . S
C356 C365 1.429 . S
C357 C355 1.419 . S
C357 C358 1.363 . S
C357 H360 0.929 . S
C358 C357 1.363 . S
C358 C364 1.428 . S
H359 C355 0.930 . S
H360 C357 0.929 . S
S361 N362 1.613 . S
S361 N363 1.610 . S
N362 S361 1.613 . S
N362 C365 1.350 . S
N363 S361 1.610 . S
N363 C364 1.351 . S
C364 C358 1.428 . S
C364 N363 1.351 . S
C364 C365 1.434 . S
C365 C356 1.429 . S
C365 N362 1.350 . S
C365 C364 1.434 . S
C366 C367 1.369 . S
C366 C368 1.419 . S
C366 H370 0.930 . S
C367 C366 1.369 . S
C367 C376 1.429 . S
C368 C366 1.419 . S
C368 C369 1.363 . S
C368 H371 0.929 . S
C369 C368 1.363 . S
C369 C375 1.428 . S
H370 C366 0.930 . S
H371 C368 0.929 . S
S372 N373 1.613 . S
S372 N374 1.610 . S
N373 S372 1.613 . S
N373 C376 1.350 . S
N374 S372 1.610 . S
N374 C375 1.351 . S
C375 C369 1.428 . S
C375 N374 1.351 . S
C375 C376 1.434 . S
C376 C367 1.429 . S
C376 N373 1.350 . S
C376 C375 1.434 . S
C377 C378 1.369 . S
C377 C379 1.419 . S
C377 H381 0.930 . S
C378 C377 1.369 . S
C378 C387 1.429 . S
C379 C377 1.419 . S
C379 C380 1.363 . S
C379 H382 0.929 . S
C380 C379 1.363 . S
C380 C386 1.428 . S
H381 C377 0.930 . S
H382 C379 0.929 . S
S383 N384 1.613 . S
S383 N385 1.610 . S
N384 S383 1.613 . S
N384 C387 1.350 . S
N385 S383 1.610 . S
N385 C386 1.351 . S
C386 C380 1.428 . S
C386 N385 1.351 . S
C386 C387 1.434 . S
C387 C378 1.429 . S
C387 N384 1.350 . S
C387 C386 1.434 . S
C388 C389 1.369 . S
C388 C390 1.419 . S
C388 H392 0.930 . S
C389 C388 1.369 . S
C389 C398 1.429 . S
C390 C388 1.419 . S
C390 C391 1.363 . S
C390 H393 0.929 . S
C391 C390 1.363 . S
C391 C397 1.428 . S
H392 C388 0.930 . S
H393 C390 0.929 . S
S394 N395 1.613 . S
S394 N396 1.610 . S
N395 S394 1.613 . S
N395 C398 1.350 . S
N396 S394 1.610 . S
N396 C397 1.351 . S
C397 C391 1.428 . S
C397 N396 1.351 . S
C397 C398 1.434 . S
C398 C389 1.429 . S
C398 N395 1.350 . S
C398 C397 1.434 . S
C399 C400 1.369 . S
C399 C401 1.419 . S
C399 H403 0.930 . S
C400 C399 1.369 . S
C400 C409 1.429 . S
C401 C399 1.419 . S
C401 C402 1.363 . S
C401 H404 0.929 . S
C402 C401 1.363 . S
C402 C408 1.428 . S
H403 C399 0.930 . S
H404 C401 0.929 . S
S405 N406 1.613 . S
S405 N407 1.610 . S
N406 S405 1.613 . S
N406 C409 1.350 . S
N407 S405 1.610 . S
N407 C408 1.351 . S
C408 C402 1.428 . S
C408 N407 1.351 . S
C408 C409 1.434 . S
C409 C400 1.429 . S
C409 N406 1.350 . S
C409 C408 1.434 . S
C410 C411 1.369 . S
C410 C412 1.419 . S
C410 H414 0.930 . S
C411 C410 1.369 . S
C411 C420 1.429 . S
C412 C410 1.419 . S
C412 C413 1.363 . S
C412 H415 0.929 . S
C413 C412 1.363 . S
C413 C419 1.428 . S
H414 C410 0.930 . S
H415 C412 0.929 . S
S416 N417 1.613 . S
S416 N418 1.610 . S
N417 S416 1.613 . S
N417 C420 1.350 . S
N418 S416 1.610 . S
N418 C419 1.351 . S
C419 C413 1.428 . S
C419 N418 1.351 . S
C419 C420 1.434 . S
C420 C411 1.429 . S
C420 N417 1.350 . S
C420 C419 1.434 . S
C421 C422 1.369 . S
C421 C423 1.419 . S
C421 H425 0.930 . S
C422 C421 1.369 . S
C422 C431 1.429 . S
C423 C421 1.419 . S
C423 C424 1.363 . S
C423 H426 0.929 . S
C424 C423 1.363 . S
C424 C430 1.428 . S
H425 C421 0.930 . S
H426 C423 0.929 . S
S427 N428 1.613 . S
S427 N429 1.610 . S
N428 S427 1.613 . S
N428 C431 1.350 . S
N429 S427 1.610 . S
N429 C430 1.351 . S
C430 C424 1.428 . S
C430 N429 1.351 . S
C430 C431 1.434 . S
C431 C422 1.429 . S
C431 N428 1.350 . S
C431 C430 1.434 . S
C169 C120 1.453 . S
C171 C8 1.458 . S
C180 C22 1.459 . S
C182 C134 1.457 . S
C191 C36 1.456 . S
C193 C148 1.455 . S
C202 C50 1.460 . S
C204 C162 1.456 . S
C213 C92 1.454 . S
C215 C64 1.457 . S
C224 C78 1.458 . S
C226 C106 1.457 . S
C235 C7 1.547 . S
C237 C73 1.549 1_554 S
C246 C21 1.543 . S
C248 C3 1.546 . S
C257 C35 1.543 . S
C259 C17 1.546 . S
C268 C31 1.550 . S
C270 C49 1.547 . S
C279 C45 1.546 . S
C281 C63 1.544 . S
C290 C59 1.548 . S
C292 C77 1.546 . S
C301 C101 1.551 . S
C303 C91 1.548 . S
C312 C105 1.542 . S
C314 C115 1.545 1_556 S
C323 C129 1.546 . S
C325 C119 1.544 . S
C334 C133 1.545 . S
C336 C143 1.547 . S
C345 C147 1.548 . S
C347 C157 1.550 . S
C356 C161 1.544 . S
C358 C87 1.547 . S
C367 C149 1.322 . S
C369 C9 1.322 . S
C378 C163 1.321 . S
C380 C23 1.322 . S
C389 C93 1.325 . S
C391 C37 1.325 . S
C400 C51 1.322 . S
C402 C107 1.322 . S
C411 C65 1.323 . S
C413 C121 1.324 . S
C422 C135 1.326 . S
C424 C79 1.326 . S
