# Generated by pormake.
# Topology uoo, (4)-cn, num edge types: 1
# Building blocks:
#     Node 0, Type 0, BuildingBlock: GALJAG_clean_sbu_0, # of connection points: 4
#     Node 1, Type 0, BuildingBlock: GALJAG_clean_sbu_0, # of connection points: 4
#     Node 2, Type 0, BuildingBlock: GALJAG_clean_sbu_0, # of connection points: 4
#     Node 3, Type 0, BuildingBlock: GALJAG_clean_sbu_0, # of connection points: 4
#     Node 4, Type 0, BuildingBlock: GALJAG_clean_sbu_0, # of connection points: 4
#     Node 5, Type 0, BuildingBlock: GALJAG_clean_sbu_0, # of connection points: 4
#     Edge 6, Type (0, 0), BuildingBlock: ZUJKAS_clean_linker_0, # of connection points: 2
#     Edge 7, Type (0, 0), BuildingBlock: ZUJKAS_clean_linker_0, # of connection points: 2
#     Edge 8, Type (0, 0), BuildingBlock: ZUJKAS_clean_linker_0, # of connection points: 2
#     Edge 9, Type (0, 0), BuildingBlock: ZUJKAS_clean_linker_0, # of connection points: 2
#     Edge 10, Type (0, 0), BuildingBlock: ZUJKAS_clean_linker_0, # of connection points: 2
#     Edge 11, Type (0, 0), BuildingBlock: ZUJKAS_clean_linker_0, # of connection points: 2
#     Edge 12, Type (0, 0), BuildingBlock: ZUJKAS_clean_linker_0, # of connection points: 2
#     Edge 13, Type (0, 0), BuildingBlock: ZUJKAS_clean_linker_0, # of connection points: 2
#     Edge 14, Type (0, 0), BuildingBlock: ZUJKAS_clean_linker_0, # of connection points: 2
#     Edge 15, Type (0, 0), BuildingBlock: ZUJKAS_clean_linker_0, # of connection points: 2
#     Edge 16, Type (0, 0), BuildingBlock: ZUJKAS_clean_linker_0, # of connection points: 2
#     Edge 17, Type (0, 0), BuildingBlock: ZUJKAS_clean_linker_0, # of connection points: 2
# Relax obj value: 0.098
# Max RMSD: 0.113
# Mean RMSD: 0.113
data_MOF--net-uoo--node1-GALJAG_clean_sbu_0--edge1-ZUJKAS_clean_linker_0
_symmetry_space_group_name_H-M    P1
_symmetry_Int_Tables_number       1
_symmetry_cell_setting            triclinic
loop_
_symmetry_equiv_pos_as_xyz
'x, y, z'
_cell_length_a     32.97719
_cell_length_b     32.992736
_cell_length_c     50.625981
_cell_angle_alpha  90.084492
_cell_angle_beta   89.958139
_cell_angle_gamma 120.06764
loop_
_atom_site_label
_atom_site_type_symbol
_atom_site_fract_x
_atom_site_fract_y
_atom_site_fract_z
_atom_type_partial_charge
In0 In 0.15486 0.31278 0.01237 0.0
O1 O 0.10031 0.2488 0.03496 0.0
O2 O 0.15578 0.30323 0.05694 0.0
C3 C 0.14146 0.26582 0.96641 0.0
C4 C 0.11119 0.36338 0.00738 0.0
C5 C 0.24864 0.35972 0.0199 0.0
O6 O 0.13657 0.24675 0.98864 0.0
O7 O 0.15265 0.30835 0.96736 0.0
O8 O 0.22326 0.37746 0.02461 0.0
O9 O 0.22666 0.31796 0.01175 0.0
C10 C 0.11879 0.26376 0.0573 0.0
O11 O 0.15263 0.37816 -0.00029 0.0
O12 O 0.09154 0.32287 0.01721 0.0
In13 In 0.84518 0.15567 0.34572 0.0
O14 O 0.86739 0.11122 0.36987 0.0
O15 O 0.83403 0.14311 0.38991 0.0
C16 C 0.88749 0.14458 0.30273 0.0
C17 C 0.75117 0.11268 0.3403 0.0
C18 C 0.88648 0.24992 0.34864 0.0
O19 O 0.90982 0.16645 0.32305 0.0
O20 O 0.84381 0.12771 0.30422 0.0
O21 O 0.8555 0.22602 0.33171 0.0
O22 O 0.89656 0.22631 0.36408 0.0
C23 C 0.85231 0.1176 0.39147 0.0
O24 O 0.77625 0.15605 0.3446 0.0
O25 O 0.77353 0.09097 0.33857 0.0
In26 In 0.68534 0.84251 0.67766 0.0
O27 O 0.61975 0.77226 0.68595 0.0
O28 O 0.6758 0.77123 0.66599 0.0
C29 C 0.63757 0.88907 0.67915 0.0
C30 C 0.7304 0.85297 0.72392 0.0
C31 C 0.73287 0.87933 0.63234 0.0
O32 O 0.61975 0.84741 0.67105 0.0
O33 O 0.67973 0.90749 0.68651 0.0
O34 O 0.75235 0.89118 0.65467 0.0
O35 O 0.68996 0.84894 0.63299 0.0
C36 C 0.63501 0.74793 0.67536 0.0
O37 O 0.74551 0.84666 0.70231 0.0
O38 O 0.69313 0.85458 0.72208 0.0
In39 In 0.84444 0.69226 0.01671 0.0
O40 O 0.90756 0.75383 0.03651 0.0
O41 O 0.84744 0.7127 0.06006 0.0
C42 C 0.84661 0.73495 0.97077 0.0
C43 C 0.889 0.64246 0.0146 0.0
C44 C 0.75058 0.63836 0.02192 0.0
O45 O 0.8514 0.75448 0.9929 0.0
O46 O 0.84127 0.69441 0.9719 0.0
O47 O 0.77629 0.62243 0.01429 0.0
O48 O 0.77221 0.68163 0.02708 0.0
C49 C 0.88879 0.74673 0.059 0.0
O50 O 0.85384 0.63109 0.02915 0.0
O51 O 0.90191 0.67915 0.00121 0.0
In52 In 0.15516 0.84646 0.34955 0.0
O53 O 0.22169 0.84567 0.33785 0.0
O54 O 0.2293 0.90916 0.35298 0.0
C55 C 0.11161 0.75204 0.35327 0.0
C56 C 0.13846 0.88101 0.39422 0.0
C57 C 0.12184 0.86202 0.30431 0.0
O58 O 0.15014 0.77864 0.36452 0.0
O59 O 0.09496 0.77303 0.34041 0.0
O60 O 0.09813 0.84898 0.32533 0.0
O61 O 0.1626 0.86791 0.30621 0.0
C62 C 0.24921 0.88779 0.34414 0.0
O63 O 0.14302 0.89979 0.37194 0.0
O64 O 0.14165 0.84454 0.39392 0.0
In65 In 0.305 0.15267 0.67971 0.0
O66 O 0.37339 0.21991 0.67021 0.0
O67 O 0.31306 0.22547 0.6777 0.0
C68 C 0.3605 0.1141 0.68153 0.0
C69 C 0.26121 0.14314 0.7263 0.0
C70 C 0.2452 0.10854 0.63939 0.0
O71 O 0.35393 0.13088 0.66069 0.0
O72 O 0.33915 0.11677 0.70153 0.0
O73 O 0.25047 0.0868 0.65833 0.0
O74 O 0.26921 0.15255 0.64113 0.0
C75 C 0.35617 0.24633 0.67231 0.0
O76 O 0.23896 0.12412 0.70536 0.0
O77 O 0.30512 0.16608 0.72369 0.0
H78 H 0.30311 0.18612 0.77227 0.0
H79 H 0.26563 0.18836 0.81326 0.0
H80 H 0.12962 0.09793 0.77899 0.0
H81 H 0.16717 0.09643 0.73738 0.0
H82 H 0.13283 0.1721 0.80276 0.0
H83 H 0.20424 0.09391 0.87124 0.0
H84 H 0.25094 0.14064 0.85316 0.0
H85 H 0.20735 0.08946 0.83583 0.0
C86 C 0.26523 0.16617 0.77352 0.0
C87 C 0.23806 0.14103 0.75164 0.0
C88 C 0.24384 0.16716 0.79707 0.0
C89 C 0.19484 0.14251 0.79941 0.0
C90 C 0.16751 0.11683 0.77769 0.0
H91 H 0.10921 0.1725 0.95895 0.0
H92 H 0.10948 0.13352 0.91777 0.0
C93 C 0.18897 0.11599 0.75398 0.0
C94 C 0.17281 0.14718 0.82388 0.0
H95 H 0.18271 0.14789 0.89091 0.0
C96 C 0.14288 0.16585 0.82206 0.0
C97 C 0.18479 0.13788 0.84908 0.0
C98 C 0.21316 0.11384 0.85242 0.0
C99 C 0.12775 0.17895 0.84476 0.0
C100 C 0.1441 0.17447 0.86982 0.0
C101 C 0.17086 0.15226 0.87171 0.0
C102 C 0.13785 0.19636 0.89396 0.0
C103 C 0.09515 0.19827 0.84154 0.0
C104 C 0.15335 0.24453 0.89426 0.0
C105 C 0.15274 0.26668 0.91764 0.0
C106 C 0.13752 0.24129 0.94131 0.0
C107 C 0.12118 0.19293 0.94097 0.0
C108 C 0.12129 0.17064 0.91747 0.0
H109 H 0.07219 0.18271 0.82401 0.0
H110 H 0.07276 0.19147 0.85924 0.0
H111 H 0.11614 0.23665 0.83833 0.0
H112 H 0.1677 0.26549 0.87663 0.0
H113 H 0.16589 0.30406 0.91734 0.0
H114 H 0.84639 0.09457 0.25799 0.0
H115 H 0.88458 0.09789 0.21594 0.0
H116 H 0.01899 0.19413 0.25014 0.0
H117 H 0.9812 0.18993 0.29235 0.0
H118 H 0.93037 0.17545 0.18735 0.0
H119 H 0.05158 0.10986 0.20911 0.0
H120 H 0.00468 0.10059 0.23121 0.0
H121 H 0.0594 0.15519 0.23165 0.0
C122 C 0.88419 0.11563 0.25668 0.0
C123 C 0.91084 0.14212 0.2784 0.0
C124 C 0.90596 0.11746 0.23267 0.0
C125 C 0.95472 0.14579 0.22995 0.0
C126 C 0.98151 0.17105 0.25191 0.0
H127 H 0.15103 0.29049 0.10755 0.0
H128 H 0.10983 0.25433 0.14872 0.0
C129 C 0.9598 0.16895 0.27598 0.0
C130 C 0.9768 0.15363 0.20352 0.0
H131 H 0.06902 0.15808 0.17014 0.0
C132 C 0.96011 0.17077 0.18343 0.0
C133 C 0.0157 0.14764 0.19846 0.0
C134 C 0.03357 0.12685 0.21869 0.0
C135 C 0.98254 0.18415 0.15886 0.0
C136 C 0.02246 0.17983 0.15416 0.0
C137 C 0.03843 0.1614 0.17389 0.0
C138 C 0.04966 0.19739 0.12946 0.0
C139 C 0.96463 0.20479 0.13851 0.0
C140 C 0.02996 0.17645 0.10512 0.0
C141 C 0.05333 0.19708 0.08158 0.0
C142 C 0.09678 0.2389 0.08208 0.0
C143 C 0.11749 0.2584 0.10656 0.0
C144 C 0.09411 0.23773 0.13007 0.0
H145 H 0.93844 0.21303 0.14689 0.0
H146 H 0.99401 0.23732 0.13003 0.0
H147 H 0.94771 0.17935 0.12215 0.0
H148 H 0.99585 0.14502 0.10432 0.0
H149 H 0.03667 0.18111 0.063 0.0
H150 H 0.81436 0.12056 0.43853 0.0
H151 H 0.8133 0.08147 0.47948 0.0
H152 H 0.89408 0.02694 0.44252 0.0
H153 H 0.89412 0.06519 0.40095 0.0
H154 H 0.82187 0.96006 0.46841 0.0
H155 H 0.91094 0.11199 0.53487 0.0
H156 H 0.86389 0.11377 0.51829 0.0
H157 H 0.91239 0.11826 0.4994 0.0
C158 C 0.83238 0.10071 0.43916 0.0
C159 C 0.85439 0.09598 0.41656 0.0
C160 C 0.83216 0.07873 0.46269 0.0
C161 C 0.85459 0.05219 0.4643 0.0
C162 C 0.877 0.04768 0.4418 0.0
H163 H 0.82682 0.93878 0.6246 0.0
H164 H 0.86582 0.97736 0.58323 0.0
C165 C 0.87696 0.06948 0.4181 0.0
C166 C 0.85074 0.02613 0.48889 0.0
H167 H 0.85503 0.03816 0.55589 0.0
C168 C 0.83012 0.97723 0.48753 0.0
C169 C 0.86274 0.04846 0.51385 0.0
C170 C 0.88923 0.10107 0.51664 0.0
C171 C 0.81749 0.94986 0.51051 0.0
C172 C 0.82436 0.97192 0.53543 0.0
C173 C 0.84874 0.02104 0.53681 0.0
C174 C 0.80226 0.94501 0.55985 0.0
C175 C 0.79595 0.89753 0.50775 0.0
C176 C 0.75367 0.91412 0.5605 0.0
C177 C 0.73155 0.89182 0.58392 0.0
C178 C 0.75738 0.90067 0.60737 0.0
C179 C 0.80607 0.93132 0.60678 0.0
C180 C 0.82836 0.9533 0.58319 0.0
H181 H 0.8101 0.88864 0.49014 0.0
H182 H 0.80247 0.88183 0.52548 0.0
H183 H 0.75756 0.88143 0.50493 0.0
H184 H 0.73246 0.90835 0.54305 0.0
H185 H 0.69391 0.86872 0.5838 0.0
H186 H 0.85461 0.82082 0.96314 0.0
H187 H 0.84358 0.85242 0.92159 0.0
H188 H 0.82267 0.729 0.88032 0.0
H189 H 0.83362 0.69722 0.92156 0.0
H190 H 0.89096 0.86408 0.86712 0.0
H191 H 0.69907 0.73927 0.87194 0.0
H192 H 0.73656 0.75508 0.90062 0.0
H193 H 0.73622 0.71448 0.87685 0.0
C194 C 0.84823 0.80072 0.94514 0.0
C195 C 0.84456 0.75638 0.9456 0.0
C196 C 0.84209 0.81886 0.92147 0.0
C197 C 0.83202 0.79279 0.89806 0.0
C198 C 0.83019 0.74943 0.89829 0.0
H199 H 0.80407 0.83912 0.73376 0.0
H200 H 0.83324 0.83215 0.77699 0.0
C201 C 0.83642 0.73136 0.92185 0.0
C202 C 0.81997 0.80895 0.8737 0.0
H203 H 0.72839 0.78208 0.83234 0.0
C204 C 0.85542 0.84653 0.85952 0.0
C205 C 0.77348 0.78622 0.86416 0.0
C206 C 0.73393 0.74672 0.87921 0.0
C207 C 0.84565 0.86107 0.83544 0.0
C208 C 0.79941 0.83702 0.82538 0.0
C209 C 0.76385 0.80038 0.84005 0.0
C210 C 0.7868 0.8479 0.79932 0.0
C211 C 0.88475 0.90199 0.82104 0.0
C212 C 0.7511 0.85913 0.79754 0.0
C213 C 0.73407 0.86262 0.77292 0.0
C214 C 0.75235 0.8548 0.74964 0.0
C215 C 0.78943 0.84547 0.75139 0.0
C216 C 0.80636 0.84181 0.77607 0.0
H217 H 0.9141 0.92446 0.83455 0.0
H218 H 0.89866 0.88866 0.8054 0.0
H219 H 0.87197 0.92378 0.81149 0.0
H220 H 0.7354 0.86375 0.81526 0.0
H221 H 0.70558 0.87002 0.77219 0.0
H222 H 0.03058 0.83395 0.29328 0.0
H223 H 0.99624 0.82972 0.24983 0.0
H224 H 0.13387 0.89508 0.21467 0.0
H225 H 0.1683 0.89808 0.25796 0.0
H226 H 0.0072 0.89292 0.21076 0.0
H227 H 0.06611 0.77081 0.17604 0.0
H228 H 0.06918 0.78741 0.21023 0.0
H229 H 0.11258 0.82656 0.18712 0.0
C230 C 0.05357 0.84792 0.27633 0.0
C231 C 0.10202 0.86568 0.2789 0.0
C232 C 0.03392 0.84557 0.25154 0.0
C233 C 0.06241 0.86114 0.22896 0.0
C234 C 0.11115 0.88181 0.23176 0.0
H235 H 0.98146 0.81267 0.06284 0.0
H236 H 0.02574 0.84911 0.10324 0.0
C237 C 0.13078 0.88369 0.2565 0.0
C238 C 0.04066 0.85252 0.20243 0.0
H239 H 0.02638 0.7917 0.1453 0.0
C240 C 0.01159 0.87103 0.19636 0.0
C241 C 0.04624 0.8237 0.18374 0.0
C242 C 0.07484 0.80058 0.18961 0.0
C243 C 0.98772 0.86121 0.17213 0.0
C244 C 0.99296 0.83199 0.15367 0.0
C245 C 0.02283 0.81443 0.15947 0.0
C246 C 0.96535 0.81608 0.12899 0.0
C247 C 0.95695 0.88189 0.16645 0.0
C248 C 0.91671 0.7859 0.13013 0.0
C249 C 0.89141 0.76477 0.10715 0.0
C250 C 0.9144 0.77349 0.08267 0.0
C251 C 0.96281 0.80533 0.08143 0.0
C252 C 0.98813 0.82621 0.10445 0.0
H253 H 0.96576 0.9125 0.17934 0.0
H254 H 0.96018 0.89293 0.14547 0.0
H255 H 0.91984 0.85498 0.17011 0.0
H256 H 0.89863 0.77698 0.14895 0.0
H257 H 0.85414 0.74037 0.1087 0.0
H258 H 0.22812 0.14796 0.59658 0.0
H259 H 0.19205 0.10958 0.55476 0.0
H260 H 0.16523 0.97713 0.58653 0.0
H261 H 0.20023 0.01502 0.6285 0.0
H262 H 0.22867 0.06914 0.52461 0.0
H263 H 0.04471 0.9376 0.54712 0.0
H264 H 0.08052 0.98517 0.56934 0.0
H265 H 0.0849 0.93291 0.56899 0.0
C266 C 0.21346 0.11045 0.59485 0.0
C267 C 0.21718 0.0845 0.61574 0.0
C268 C 0.19284 0.08857 0.57096 0.0
C269 C 0.17549 0.04039 0.56758 0.0
C270 C 0.1773 0.01409 0.58885 0.0
H271 H 0.13237 0.84861 0.44441 0.0
H272 H 0.13469 0.88861 0.48559 0.0
C273 C 0.19768 0.03589 0.61279 0.0
C274 C 0.16172 0.01896 0.54096 0.0
H275 H 0.07725 0.92432 0.50741 0.0
C276 C 0.19517 0.03803 0.52069 0.0
C277 C 0.1181 0.97825 0.53592 0.0
C278 C 0.07985 0.95758 0.55645 0.0
C279 C 0.1872 0.01624 0.49595 0.0
C280 C 0.14429 0.97457 0.49122 0.0
C281 C 0.11012 0.95627 0.51115 0.0
C282 C 0.13616 0.94786 0.46639 0.0
C283 C 0.22574 0.03668 0.47552 0.0
C284 C 0.13473 0.96732 0.44202 0.0
C285 C 0.13364 0.94466 0.41845 0.0
C286 C 0.13374 0.90211 0.41894 0.0
C287 C 0.13253 0.88149 0.44342 0.0
C288 C 0.13369 0.90419 0.46695 0.0
H289 H 0.25967 0.06379 0.48403 0.0
H290 H 0.23073 0.00881 0.46646 0.0
H291 H 0.21593 0.05322 0.4596 0.0
H292 H 0.13599 0.00073 0.44124 0.0
H293 H 0.13424 0.9612 0.39988 0.0
H294 H 0.3031 0.45064 0.03548 0.0
H295 H 0.38873 0.49619 0.03764 0.0
H296 H 0.39613 0.37477 0.01324 0.0
H297 H 0.3105 0.32911 0.01068 0.0
H298 H 0.45283 0.48167 0.06704 0.0
H299 H 0.47863 0.47471 0.95902 0.0
H300 H 0.42246 0.45901 0.97327 0.0
H301 H 0.44392 0.41857 0.9744 0.0
C302 C 0.32296 0.4336 0.03065 0.0
C303 C 0.30015 0.38641 0.02272 0.0
C304 C 0.37184 0.45965 0.03192 0.0
C305 C 0.39873 0.43904 0.02519 0.0
C306 C 0.37601 0.39156 0.01801 0.0
H307 H 0.69743 0.5449 0.01172 0.0
H308 H 0.6121 0.49609 0.01415 0.0
C309 C 0.32712 0.36548 0.01669 0.0
C310 C 0.45055 0.46747 0.02538 0.0
H311 H 0.5468 0.50874 0.9856 0.0
C312 C 0.47345 0.48771 0.04925 0.0
C313 C 0.47723 0.4753 0.00211 0.0
C314 C 0.45441 0.45615 0.97568 0.0
C315 C 0.5225 0.51504 0.05055 0.0
C316 C 0.54915 0.52286 0.02727 0.0
C317 C 0.52623 0.50254 0.00343 0.0
C318 C 0.60089 0.55225 0.02707 0.0
C319 C 0.54543 0.53459 0.07689 0.0
C320 C 0.62281 0.60007 0.03341 0.0
C321 C 0.67158 0.62806 0.03205 0.0
C322 C 0.69917 0.60871 0.02416 0.0
C323 C 0.6771 0.56079 0.0179 0.0
C324 C 0.62839 0.53286 0.01926 0.0
H325 H 0.52147 0.5158 0.09361 0.0
H326 H 0.57779 0.53244 0.07919 0.0
H327 H 0.55526 0.572 0.07813 0.0
H328 H 0.60215 0.61592 0.03896 0.0
H329 H 0.6876 0.66493 0.03687 0.0
H330 H 0.95826 0.30879 0.38099 0.0
H331 H 0.99617 0.39431 0.38346 0.0
H332 H 0.90437 0.39292 0.32241 0.0
H333 H 0.86624 0.30742 0.31981 0.0
H334 H 0.04116 0.45979 0.34018 0.0
H335 H 0.89215 0.47036 0.38404 0.0
H336 H 0.89625 0.41781 0.38532 0.0
H337 H 0.87836 0.4335 0.35538 0.0
C338 C 0.94604 0.3267 0.36816 0.0
C339 C 0.9092 0.30146 0.35025 0.0
C340 C 0.96774 0.37548 0.36958 0.0
C341 C 0.95265 0.39975 0.35334 0.0
C342 C 0.916 0.37469 0.33539 0.0
H343 H 0.03218 0.68874 0.3276 0.0
H344 H 0.99489 0.60333 0.3283 0.0
C345 C 0.89444 0.32593 0.33384 0.0
C346 C 0.97605 0.45142 0.35467 0.0
H347 H 0.95738 0.54162 0.36975 0.0
C348 C 0.02304 0.4778 0.34678 0.0
C349 C 0.95212 0.47458 0.36324 0.0
C350 C 0.90203 0.44775 0.3727 0.0
C351 C 0.04652 0.52695 0.3466 0.0
C352 C 0.02257 0.55019 0.35512 0.0
C353 C 0.97565 0.52371 0.36323 0.0
C354 C 0.04518 0.60197 0.35518 0.0
C355 C 0.09624 0.55344 0.33649 0.0
C356 C 0.08544 0.62951 0.37039 0.0
C357 C 0.10699 0.67837 0.36991 0.0
C358 C 0.08831 0.70043 0.35444 0.0
C359 C 0.04743 0.67273 0.33968 0.0
C360 C 0.02606 0.62395 0.34007 0.0
H361 H 0.10506 0.53075 0.32442 0.0
H362 H 0.10213 0.58392 0.32434 0.0
H363 H 0.12069 0.56666 0.35352 0.0
H364 H 0.10016 0.61323 0.38266 0.0
H365 H 0.13827 0.69883 0.38163 0.0
H366 H 0.39983 0.09399 0.63987 0.0
H367 H 0.44806 0.0569 0.64104 0.0
H368 H 0.43866 0.05042 0.72608 0.0
H369 H 0.3892 0.08627 0.72499 0.0
H370 H 0.53223 0.08477 0.66357 0.0
H371 H 0.39807 0.91633 0.70751 0.0
H372 H 0.38408 0.95903 0.69499 0.0
H373 H 0.4103 0.96657 0.7271 0.0
C374 C 0.40793 0.08453 0.65881 0.0
C375 C 0.39049 0.09267 0.68233 0.0
C376 C 0.43554 0.06341 0.65946 0.0
C377 C 0.44633 0.05018 0.68361 0.0
C378 C 0.42981 0.05926 0.70718 0.0
H379 H 0.66444 0.97479 0.70089 0.0
H380 H 0.61917 0.01514 0.70281 0.0
C381 C 0.4018 0.07999 0.70654 0.0
C382 C 0.47516 0.02723 0.68399 0.0
H383 H 0.47465 0.92775 0.70302 0.0
C384 C 0.51966 0.05042 0.67218 0.0
C385 C 0.45845 0.98218 0.69497 0.0
C386 C 0.40995 0.95432 0.70663 0.0
C387 C 0.54794 0.02981 0.67102 0.0
C388 C 0.53168 0.98525 0.68256 0.0
C389 C 0.4872 0.96209 0.69439 0.0
C390 C 0.55935 0.96109 0.68167 0.0
C391 C 0.59431 0.05537 0.65677 0.0
C392 C 0.54027 0.91679 0.66981 0.0
C393 C 0.56576 0.89345 0.66901 0.0
C394 C 0.61088 0.91402 0.68003 0.0
C395 C 0.6299 0.95828 0.69203 0.0
C396 C 0.6042 0.98148 0.69301 0.0
H397 H 0.59582 0.08251 0.64319 0.0
H398 H 0.62287 0.07315 0.67147 0.0
H399 H 0.601 0.0307 0.64519 0.0
H400 H 0.50567 0.90034 0.66102 0.0
H401 H 0.55016 0.85935 0.65966 0.0
H402 H 0.44812 0.29848 0.65786 0.0
H403 H 0.49641 0.38414 0.65678 0.0
H404 H 0.37719 0.39582 0.68074 0.0
H405 H 0.32861 0.31033 0.68177 0.0
H406 H 0.47748 0.45268 0.62743 0.0
H407 H 0.48495 0.47084 0.73687 0.0
H408 H 0.47093 0.41667 0.72048 0.0
H409 H 0.42785 0.43459 0.72263 0.0
C410 C 0.43214 0.31932 0.66273 0.0
C411 C 0.38467 0.29778 0.67001 0.0
C412 C 0.45973 0.36814 0.66208 0.0
C413 C 0.44036 0.39606 0.66895 0.0
C414 C 0.39277 0.37471 0.67563 0.0
H415 H 0.54561 0.69134 0.69264 0.0
H416 H 0.49908 0.60591 0.68993 0.0
C417 C 0.36509 0.32594 0.67612 0.0
C418 C 0.47008 0.44758 0.6697 0.0
H419 H 0.51774 0.54069 0.71198 0.0
C420 C 0.48655 0.47205 0.64587 0.0
C421 C 0.48162 0.47246 0.69383 0.0
C422 C 0.4658 0.44747 0.71999 0.0
C423 C 0.51351 0.52117 0.64549 0.0
C424 C 0.52504 0.54613 0.66966 0.0
C425 C 0.5088 0.52147 0.69349 0.0
C426 C 0.55331 0.59791 0.67073 0.0
C427 C 0.52827 0.54592 0.61922 0.0
C428 C 0.59942 0.62168 0.66108 0.0
C429 C 0.62604 0.67052 0.66253 0.0
C430 C 0.6071 0.69633 0.67387 0.0
C431 C 0.56111 0.6724 0.68375 0.0
C432 C 0.5345 0.62362 0.68223 0.0
H433 H 0.50666 0.52301 0.60273 0.0
H434 H 0.52559 0.57815 0.61927 0.0
H435 H 0.56532 0.55619 0.61533 0.0
H436 H 0.61497 0.60243 0.65267 0.0
H437 H 0.66149 0.68802 0.65488 0.0
H438 H 0.96832 0.66287 0.98714 0.0
H439 H 0.00652 0.61559 0.9841 0.0
H440 H 0.90135 0.512 0.0354 0.0
H441 H 0.86296 0.55896 0.03857 0.0
H442 H 0.04072 0.5833 0.02798 0.0
H443 H 0.90248 0.43788 0.9686 0.0
H444 H 0.90763 0.49495 0.97072 0.0
H445 H 0.88235 0.45423 -0.00246 0.0
C446 C 0.95333 0.62999 -0.00225 0.0
C447 C 0.91258 0.6145 0.01303 0.0
C448 C 0.97517 0.6031 0.99599 0.0
C449 C 0.95634 0.56012 0.00925 0.0
C450 C 0.91595 0.54477 0.02471 0.0
H451 H 0.02573 0.34186 0.0271 0.0
H452 H 0.98942 0.39086 0.02681 0.0
C453 C 0.89423 0.57173 0.02659 0.0
C454 C 0.9794 0.53163 0.00736 0.0
H455 H 0.96306 0.42657 0.98552 0.0
C456 C 0.02399 0.54916 0.01856 0.0
C457 C 0.95726 0.48712 0.99512 0.0
C458 C 0.90993 0.46741 0.98209 0.0
C459 C 0.04662 0.52272 0.01847 0.0
C460 C 0.02443 0.47807 0.00627 0.0
C461 C 0.97999 0.46079 0.99484 0.0
C462 C 0.04624 0.44822 0.0057 0.0
C463 C 0.09337 0.54222 0.03217 0.0
C464 C 0.08981 0.46385 0.99347 0.0
C465 C 0.11075 0.43605 0.99375 0.0
C466 C 0.08819 0.39189 0.00598 0.0
C467 C 0.04398 0.37577 0.01755 0.0
C468 C 0.02319 0.4037 0.0174 0.0
H469 H 0.09952 0.57055 0.0463 0.0
H470 H 0.09587 0.51434 0.04305 0.0
H471 H 0.12174 0.55718 0.0172 0.0
H472 H 0.10767 0.49762 0.98377 0.0
H473 H 0.1447 0.44923 0.9845 0.0
H474 H 0.69018 0.02025 0.3301 0.0
H475 H 0.60457 0.981 0.32755 0.0
H476 H 0.61019 0.11217 0.34356 0.0
H477 H 0.6957 0.15174 0.34567 0.0
H478 H 0.54343 0.97386 0.36652 0.0
H479 H 0.52483 0.06482 0.27939 0.0
H480 H 0.57932 0.06742 0.28768 0.0
H481 H 0.56187 0.10421 0.30463 0.0
C482 C 0.67317 0.04078 0.33283 0.0
C483 C 0.69962 0.08909 0.33799 0.0
C484 C 0.6243 0.01832 0.33138 0.0
C485 C 0.60106 0.04379 0.33495 0.0
C486 C 0.62743 0.09203 0.34012 0.0
H487 H 0.31467 0.9789 0.35417 0.0
H488 H 0.40003 0.01536 0.35111 0.0
C489 C 0.67628 0.11454 0.3415 0.0
C490 C 0.54915 0.01953 0.33461 0.0
H491 H 0.456 0.01978 0.3053 0.0
C492 C 0.52428 0.98357 0.35297 0.0
C493 C 0.52426 0.0323 0.31691 0.0
C494 C 0.54888 0.06898 0.29586 0.0
C495 C 0.47523 0.9609 0.35459 0.0
C496 C 0.45047 0.97425 0.3372 0.0
C497 C 0.47522 0.00981 0.31865 0.0
C498 C 0.39885 0.95219 0.33833 0.0
C499 C 0.45032 0.92373 0.37536 0.0
C500 C 0.37005 0.9048 0.33179 0.0
C501 C 0.32132 0.8839 0.33344 0.0
C502 C 0.30064 0.91013 0.34167 0.0
C503 C 0.32961 0.95778 0.34785 0.0
C504 C 0.37831 0.97867 0.34608 0.0
H505 H 0.47489 0.92418 0.39052 0.0
H506 H 0.42298 0.92847 0.38536 0.0
H507 H 0.43277 0.88875 0.36579 0.0
H508 H 0.38529 0.88397 0.32542 0.0
H509 H 0.29988 0.84716 0.32847 0.0
loop_
_geom_bond_atom_site_label_1
_geom_bond_atom_site_label_2
_geom_bond_distance
_geom_bond_site_symmetry_2
_ccdc_geom_bond_type
In0 O1 2.294 . S
In0 O2 2.326 . S
In0 O6 2.266 1_554 S
In0 O7 2.326 1_554 S
In0 O8 2.266 . S
In0 O9 2.326 . S
In0 O11 2.294 . S
In0 O12 2.326 . S
O1 In0 2.294 . S
O1 C10 1.240 . S
O2 In0 2.326 . S
O2 C10 1.252 . S
C3 O6 1.252 . S
C3 O7 1.260 . S
C4 O11 1.240 . S
C4 O12 1.252 . S
C5 O8 1.252 . S
C5 O9 1.260 . S
O6 In0 2.266 1_556 S
O6 C3 1.252 . S
O7 In0 2.326 1_556 S
O7 C3 1.260 . S
O8 In0 2.266 . S
O8 C5 1.252 . S
O9 In0 2.326 . S
O9 C5 1.260 . S
C10 O1 1.240 . S
C10 O2 1.252 . S
O11 In0 2.294 . S
O11 C4 1.240 . S
O12 In0 2.326 . S
O12 C4 1.252 . S
In13 O14 2.294 . S
In13 O15 2.326 . S
In13 O19 2.266 . S
In13 O20 2.326 . S
In13 O21 2.266 . S
In13 O22 2.326 . S
In13 O24 2.294 . S
In13 O25 2.326 . S
O14 In13 2.294 . S
O14 C23 1.240 . S
O15 In13 2.326 . S
O15 C23 1.252 . S
C16 O19 1.252 . S
C16 O20 1.260 . S
C17 O24 1.240 . S
C17 O25 1.252 . S
C18 O21 1.252 . S
C18 O22 1.260 . S
O19 In13 2.266 . S
O19 C16 1.252 . S
O20 In13 2.326 . S
O20 C16 1.260 . S
O21 In13 2.266 . S
O21 C18 1.252 . S
O22 In13 2.326 . S
O22 C18 1.260 . S
C23 O14 1.240 . S
C23 O15 1.252 . S
O24 In13 2.294 . S
O24 C17 1.240 . S
O25 In13 2.326 . S
O25 C17 1.252 . S
In26 O27 2.294 . S
In26 O28 2.326 . S
In26 O32 2.266 . S
In26 O33 2.326 . S
In26 O34 2.266 . S
In26 O35 2.326 . S
In26 O37 2.294 . S
In26 O38 2.326 . S
O27 In26 2.294 . S
O27 C36 1.240 . S
O28 In26 2.326 . S
O28 C36 1.252 . S
C29 O32 1.252 . S
C29 O33 1.260 . S
C30 O37 1.240 . S
C30 O38 1.252 . S
C31 O34 1.252 . S
C31 O35 1.260 . S
O32 In26 2.266 . S
O32 C29 1.252 . S
O33 In26 2.326 . S
O33 C29 1.260 . S
O34 In26 2.266 . S
O34 C31 1.252 . S
O35 In26 2.326 . S
O35 C31 1.260 . S
C36 O27 1.240 . S
C36 O28 1.252 . S
O37 In26 2.294 . S
O37 C30 1.240 . S
O38 In26 2.326 . S
O38 C30 1.252 . S
In39 O40 2.294 . S
In39 O41 2.326 . S
In39 O45 2.266 1_554 S
In39 O46 2.326 1_554 S
In39 O47 2.266 . S
In39 O48 2.326 . S
In39 O50 2.294 . S
In39 O51 2.326 . S
O40 In39 2.294 . S
O40 C49 1.240 . S
O41 In39 2.326 . S
O41 C49 1.252 . S
C42 O45 1.252 . S
C42 O46 1.260 . S
C43 O50 1.240 . S
C43 O51 1.252 . S
C44 O47 1.252 . S
C44 O48 1.260 . S
O45 In39 2.266 1_556 S
O45 C42 1.252 . S
O46 In39 2.326 1_556 S
O46 C42 1.260 . S
O47 In39 2.266 . S
O47 C44 1.252 . S
O48 In39 2.326 . S
O48 C44 1.260 . S
C49 O40 1.240 . S
C49 O41 1.252 . S
O50 In39 2.294 . S
O50 C43 1.240 . S
O51 In39 2.326 . S
O51 C43 1.252 . S
In52 O53 2.294 . S
In52 O54 2.326 . S
In52 O58 2.266 . S
In52 O59 2.326 . S
In52 O60 2.266 . S
In52 O61 2.326 . S
In52 O63 2.294 . S
In52 O64 2.326 . S
O53 In52 2.294 . S
O53 C62 1.240 . S
O54 In52 2.326 . S
O54 C62 1.252 . S
C55 O58 1.252 . S
C55 O59 1.260 . S
C56 O63 1.240 . S
C56 O64 1.252 . S
C57 O60 1.252 . S
C57 O61 1.260 . S
O58 In52 2.266 . S
O58 C55 1.252 . S
O59 In52 2.326 . S
O59 C55 1.260 . S
O60 In52 2.266 . S
O60 C57 1.252 . S
O61 In52 2.326 . S
O61 C57 1.260 . S
C62 O53 1.240 . S
C62 O54 1.252 . S
O63 In52 2.294 . S
O63 C56 1.240 . S
O64 In52 2.326 . S
O64 C56 1.252 . S
In65 O66 2.294 . S
In65 O67 2.326 . S
In65 O71 2.266 . S
In65 O72 2.326 . S
In65 O73 2.266 . S
In65 O74 2.326 . S
In65 O76 2.294 . S
In65 O77 2.326 . S
O66 In65 2.294 . S
O66 C75 1.240 . S
O67 In65 2.326 . S
O67 C75 1.252 . S
C68 O71 1.252 . S
C68 O72 1.260 . S
C69 O76 1.240 . S
C69 O77 1.252 . S
C70 O73 1.252 . S
C70 O74 1.260 . S
O71 In65 2.266 . S
O71 C68 1.252 . S
O72 In65 2.326 . S
O72 C68 1.260 . S
O73 In65 2.266 . S
O73 C70 1.252 . S
O74 In65 2.326 . S
O74 C70 1.260 . S
C75 O66 1.240 . S
C75 O67 1.252 . S
O76 In65 2.294 . S
O76 C69 1.240 . S
O77 In65 2.326 . S
O77 C69 1.252 . S
H78 C86 0.929 . S
H79 C88 0.930 . S
H80 C90 0.930 . S
H81 C93 0.929 . S
H82 C96 0.930 . S
H83 C98 0.960 . S
H84 C98 0.960 . S
H85 C98 0.960 . S
C86 H78 0.929 . S
C86 C87 1.377 . S
C86 C88 1.384 . S
C87 C86 1.377 . S
C87 C93 1.390 . S
C88 H79 0.930 . S
C88 C86 1.384 . S
C88 C89 1.372 . S
C89 C88 1.372 . S
C89 C90 1.400 . S
C89 C94 1.490 . S
C90 H80 0.930 . S
C90 C89 1.400 . S
C90 C93 1.386 . S
H91 C107 0.930 . S
H92 C108 0.931 . S
C93 H81 0.929 . S
C93 C87 1.390 . S
C93 C90 1.386 . S
C94 C89 1.490 . S
C94 C96 1.395 . S
C94 C97 1.403 . S
H95 C101 0.930 . S
C96 H82 0.930 . S
C96 C94 1.395 . S
C96 C99 1.403 . S
C97 C94 1.403 . S
C97 C98 1.524 . S
C97 C101 1.400 . S
C98 H83 0.960 . S
C98 H84 0.960 . S
C98 H85 0.960 . S
C98 C97 1.524 . S
C99 C96 1.403 . S
C99 C100 1.392 . S
C99 C103 1.495 . S
C100 C99 1.392 . S
C100 C101 1.385 . S
C100 C102 1.478 . S
C101 H95 0.930 . S
C101 C97 1.400 . S
C101 C100 1.385 . S
C102 C100 1.478 . S
C102 C104 1.381 . S
C102 C108 1.383 . S
C103 C99 1.495 . S
C103 H109 0.959 . S
C103 H110 0.961 . S
C103 H111 0.960 . S
C104 C102 1.381 . S
C104 C105 1.394 . S
C104 H112 0.930 . S
C105 C104 1.394 . S
C105 C106 1.383 . S
C105 H113 0.929 . S
C106 C105 1.383 . S
C106 C107 1.377 . S
C107 H91 0.930 . S
C107 C106 1.377 . S
C107 C108 1.379 . S
C108 H92 0.931 . S
C108 C102 1.383 . S
C108 C107 1.379 . S
H109 C103 0.959 . S
H110 C103 0.961 . S
H111 C103 0.960 . S
H112 C104 0.930 . S
H113 C105 0.929 . S
H114 C122 0.929 . S
H115 C124 0.930 . S
H116 C126 0.930 . S
H117 C129 0.929 . S
H118 C132 0.930 . S
H119 C134 0.960 . S
H120 C134 0.960 . S
H121 C134 0.960 . S
C122 H114 0.929 . S
C122 C123 1.377 . S
C122 C124 1.384 . S
C123 C122 1.377 . S
C123 C129 1.390 . S
C124 H115 0.930 . S
C124 C122 1.384 . S
C124 C125 1.372 . S
C125 C124 1.372 . S
C125 C126 1.400 . S
C125 C130 1.490 . S
C126 H116 0.930 . S
C126 C125 1.400 . S
C126 C129 1.386 . S
H127 C143 0.930 . S
H128 C144 0.931 . S
C129 H117 0.929 . S
C129 C123 1.390 . S
C129 C126 1.386 . S
C130 C125 1.490 . S
C130 C132 1.395 . S
C130 C133 1.403 1_655 S
H131 C137 0.930 . S
C132 H118 0.930 . S
C132 C130 1.395 . S
C132 C135 1.403 . S
C133 C130 1.403 1_455 S
C133 C134 1.524 . S
C133 C137 1.400 . S
C134 H119 0.960 . S
C134 H120 0.960 . S
C134 H121 0.960 . S
C134 C133 1.524 . S
C135 C132 1.403 . S
C135 C136 1.392 1_655 S
C135 C139 1.495 . S
C136 C135 1.392 1_455 S
C136 C137 1.385 . S
C136 C138 1.478 . S
C137 H131 0.930 . S
C137 C133 1.400 . S
C137 C136 1.385 . S
C138 C136 1.478 . S
C138 C140 1.381 . S
C138 C144 1.383 . S
C139 C135 1.495 . S
C139 H145 0.959 . S
C139 H146 0.961 . S
C139 H147 0.960 . S
C140 C138 1.381 . S
C140 C141 1.394 . S
C140 H148 0.930 1_455 S
C141 C140 1.394 . S
C141 C142 1.383 . S
C141 H149 0.929 . S
C142 C141 1.383 . S
C142 C143 1.377 . S
C143 H127 0.930 . S
C143 C142 1.377 . S
C143 C144 1.379 . S
C144 H128 0.931 . S
C144 C138 1.383 . S
C144 C143 1.379 . S
H145 C139 0.959 . S
H146 C139 0.961 . S
H147 C139 0.960 . S
H148 C140 0.930 1_655 S
H149 C141 0.929 . S
H150 C158 0.929 . S
H151 C160 0.930 . S
H152 C162 0.930 . S
H153 C165 0.929 . S
H154 C168 0.930 . S
H155 C170 0.960 . S
H156 C170 0.960 . S
H157 C170 0.960 . S
C158 H150 0.929 . S
C158 C159 1.377 . S
C158 C160 1.384 . S
C159 C158 1.377 . S
C159 C165 1.390 . S
C160 H151 0.930 . S
C160 C158 1.384 . S
C160 C161 1.372 . S
C161 C160 1.372 . S
C161 C162 1.400 . S
C161 C166 1.490 . S
C162 H152 0.930 . S
C162 C161 1.400 . S
C162 C165 1.386 . S
H163 C179 0.930 . S
H164 C180 0.931 . S
C165 H153 0.929 . S
C165 C159 1.390 . S
C165 C162 1.386 . S
C166 C161 1.490 . S
C166 C168 1.395 1_545 S
C166 C169 1.403 . S
H167 C173 0.930 . S
C168 H154 0.930 . S
C168 C166 1.395 1_565 S
C168 C171 1.403 . S
C169 C166 1.403 . S
C169 C170 1.524 . S
C169 C173 1.400 . S
C170 H155 0.960 . S
C170 H156 0.960 . S
C170 H157 0.960 . S
C170 C169 1.524 . S
C171 C168 1.403 . S
C171 C172 1.392 . S
C171 C175 1.495 . S
C172 C171 1.392 . S
C172 C173 1.385 1_565 S
C172 C174 1.478 . S
C173 H167 0.930 . S
C173 C169 1.400 . S
C173 C172 1.385 1_545 S
C174 C172 1.478 . S
C174 C176 1.381 . S
C174 C180 1.383 . S
C175 C171 1.495 . S
C175 H181 0.959 . S
C175 H182 0.961 . S
C175 H183 0.960 . S
C176 C174 1.381 . S
C176 C177 1.394 . S
C176 H184 0.930 . S
C177 C176 1.394 . S
C177 C178 1.383 . S
C177 H185 0.929 . S
C178 C177 1.383 . S
C178 C179 1.377 . S
C179 H163 0.930 . S
C179 C178 1.377 . S
C179 C180 1.379 . S
C180 H164 0.931 . S
C180 C174 1.383 . S
C180 C179 1.379 . S
H181 C175 0.959 . S
H182 C175 0.961 . S
H183 C175 0.960 . S
H184 C176 0.930 . S
H185 C177 0.929 . S
H186 C194 0.929 . S
H187 C196 0.930 . S
H188 C198 0.930 . S
H189 C201 0.929 . S
H190 C204 0.930 . S
H191 C206 0.960 . S
H192 C206 0.960 . S
H193 C206 0.960 . S
C194 H186 0.929 . S
C194 C195 1.377 . S
C194 C196 1.384 . S
C195 C194 1.377 . S
C195 C201 1.390 . S
C196 H187 0.930 . S
C196 C194 1.384 . S
C196 C197 1.372 . S
C197 C196 1.372 . S
C197 C198 1.400 . S
C197 C202 1.490 . S
C198 H188 0.930 . S
C198 C197 1.400 . S
C198 C201 1.386 . S
H199 C215 0.930 . S
H200 C216 0.931 . S
C201 H189 0.929 . S
C201 C195 1.390 . S
C201 C198 1.386 . S
C202 C197 1.490 . S
C202 C204 1.395 . S
C202 C205 1.403 . S
H203 C209 0.930 . S
C204 H190 0.930 . S
C204 C202 1.395 . S
C204 C207 1.403 . S
C205 C202 1.403 . S
C205 C206 1.524 . S
C205 C209 1.400 . S
C206 H191 0.960 . S
C206 H192 0.960 . S
C206 H193 0.960 . S
C206 C205 1.524 . S
C207 C204 1.403 . S
C207 C208 1.392 . S
C207 C211 1.495 . S
C208 C207 1.392 . S
C208 C209 1.385 . S
C208 C210 1.478 . S
C209 H203 0.930 . S
C209 C205 1.400 . S
C209 C208 1.385 . S
C210 C208 1.478 . S
C210 C212 1.381 . S
C210 C216 1.383 . S
C211 C207 1.495 . S
C211 H217 0.959 . S
C211 H218 0.961 . S
C211 H219 0.960 . S
C212 C210 1.381 . S
C212 C213 1.394 . S
C212 H220 0.930 . S
C213 C212 1.394 . S
C213 C214 1.383 . S
C213 H221 0.929 . S
C214 C213 1.383 . S
C214 C215 1.377 . S
C215 H199 0.930 . S
C215 C214 1.377 . S
C215 C216 1.379 . S
C216 H200 0.931 . S
C216 C210 1.383 . S
C216 C215 1.379 . S
H217 C211 0.959 . S
H218 C211 0.961 . S
H219 C211 0.960 . S
H220 C212 0.930 . S
H221 C213 0.929 . S
H222 C230 0.929 . S
H223 C232 0.930 1_655 S
H224 C234 0.930 . S
H225 C237 0.929 . S
H226 C240 0.930 . S
H227 C242 0.960 . S
H228 C242 0.960 . S
H229 C242 0.960 . S
C230 H222 0.929 . S
C230 C231 1.377 . S
C230 C232 1.384 . S
C231 C230 1.377 . S
C231 C237 1.390 . S
C232 H223 0.930 1_455 S
C232 C230 1.384 . S
C232 C233 1.372 . S
C233 C232 1.372 . S
C233 C234 1.400 . S
C233 C238 1.490 . S
C234 H224 0.930 . S
C234 C233 1.400 . S
C234 C237 1.386 . S
H235 C251 0.930 . S
H236 C252 0.931 1_455 S
C237 H225 0.929 . S
C237 C231 1.390 . S
C237 C234 1.386 . S
C238 C233 1.490 . S
C238 C240 1.395 1_455 S
C238 C241 1.403 . S
H239 C245 0.930 . S
C240 H226 0.930 . S
C240 C238 1.395 1_655 S
C240 C243 1.403 . S
C241 C238 1.403 . S
C241 C242 1.524 . S
C241 C245 1.400 1_455 S
C242 H227 0.960 . S
C242 H228 0.960 . S
C242 H229 0.960 . S
C242 C241 1.524 . S
C243 C240 1.403 . S
C243 C244 1.392 . S
C243 C247 1.495 . S
C244 C243 1.392 . S
C244 C245 1.385 . S
C244 C246 1.478 . S
C245 H239 0.930 . S
C245 C241 1.400 1_655 S
C245 C244 1.385 . S
C246 C244 1.478 . S
C246 C248 1.381 . S
C246 C252 1.383 . S
C247 C243 1.495 . S
C247 H253 0.959 . S
C247 H254 0.961 . S
C247 H255 0.960 . S
C248 C246 1.381 . S
C248 C249 1.394 . S
C248 H256 0.930 . S
C249 C248 1.394 . S
C249 C250 1.383 . S
C249 H257 0.929 . S
C250 C249 1.383 . S
C250 C251 1.377 . S
C251 H235 0.930 . S
C251 C250 1.377 . S
C251 C252 1.379 . S
C252 H236 0.931 1_655 S
C252 C246 1.383 . S
C252 C251 1.379 . S
H253 C247 0.959 . S
H254 C247 0.961 . S
H255 C247 0.960 . S
H256 C248 0.930 . S
H257 C249 0.929 . S
H258 C266 0.929 . S
H259 C268 0.930 . S
H260 C270 0.930 1_565 S
H261 C273 0.929 . S
H262 C276 0.930 . S
H263 C278 0.960 . S
H264 C278 0.960 . S
H265 C278 0.960 . S
C266 H258 0.929 . S
C266 C267 1.377 . S
C266 C268 1.384 . S
C267 C266 1.377 . S
C267 C273 1.390 . S
C268 H259 0.930 . S
C268 C266 1.384 . S
C268 C269 1.372 . S
C269 C268 1.372 . S
C269 C270 1.400 . S
C269 C274 1.490 . S
C270 H260 0.930 1_545 S
C270 C269 1.400 . S
C270 C273 1.386 . S
H271 C287 0.930 . S
H272 C288 0.931 . S
C273 H261 0.929 . S
C273 C267 1.390 . S
C273 C270 1.386 . S
C274 C269 1.490 . S
C274 C276 1.395 . S
C274 C277 1.403 1_545 S
H275 C281 0.930 . S
C276 H262 0.930 . S
C276 C274 1.395 . S
C276 C279 1.403 . S
C277 C274 1.403 1_565 S
C277 C278 1.524 . S
C277 C281 1.400 . S
C278 H263 0.960 . S
C278 H264 0.960 . S
C278 H265 0.960 . S
C278 C277 1.524 . S
C279 C276 1.403 . S
C279 C280 1.392 1_545 S
C279 C283 1.495 . S
C280 C279 1.392 1_565 S
C280 C281 1.385 . S
C280 C282 1.478 . S
C281 H275 0.930 . S
C281 C277 1.400 . S
C281 C280 1.385 . S
C282 C280 1.478 . S
C282 C284 1.381 . S
C282 C288 1.383 . S
C283 C279 1.495 . S
C283 H289 0.959 . S
C283 H290 0.961 . S
C283 H291 0.960 . S
C284 C282 1.381 . S
C284 C285 1.394 . S
C284 H292 0.930 1_565 S
C285 C284 1.394 . S
C285 C286 1.383 . S
C285 H293 0.929 . S
C286 C285 1.383 . S
C286 C287 1.377 . S
C287 H271 0.930 . S
C287 C286 1.377 . S
C287 C288 1.379 . S
C288 H272 0.931 . S
C288 C282 1.383 . S
C288 C287 1.379 . S
H289 C283 0.959 . S
H290 C283 0.961 . S
H291 C283 0.960 . S
H292 C284 0.930 1_545 S
H293 C285 0.929 . S
H294 C302 0.929 . S
H295 C304 0.930 . S
H296 C306 0.930 . S
H297 C309 0.929 . S
H298 C312 0.930 . S
H299 C314 0.960 . S
H300 C314 0.960 . S
H301 C314 0.960 . S
C302 H294 0.929 . S
C302 C303 1.377 . S
C302 C304 1.384 . S
C303 C302 1.377 . S
C303 C309 1.390 . S
C304 H295 0.930 . S
C304 C302 1.384 . S
C304 C305 1.372 . S
C305 C304 1.372 . S
C305 C306 1.400 . S
C305 C310 1.490 . S
C306 H296 0.930 . S
C306 C305 1.400 . S
C306 C309 1.386 . S
H307 C323 0.930 . S
H308 C324 0.931 . S
C309 H297 0.929 . S
C309 C303 1.390 . S
C309 C306 1.386 . S
C310 C305 1.490 . S
C310 C312 1.395 . S
C310 C313 1.403 . S
H311 C317 0.930 1_556 S
C312 H298 0.930 . S
C312 C310 1.395 . S
C312 C315 1.403 . S
C313 C310 1.403 . S
C313 C314 1.524 1_554 S
C313 C317 1.400 . S
C314 H299 0.960 . S
C314 H300 0.960 . S
C314 H301 0.960 . S
C314 C313 1.524 1_556 S
C315 C312 1.403 . S
C315 C316 1.392 . S
C315 C319 1.495 . S
C316 C315 1.392 . S
C316 C317 1.385 . S
C316 C318 1.478 . S
C317 H311 0.930 1_554 S
C317 C313 1.400 . S
C317 C316 1.385 . S
C318 C316 1.478 . S
C318 C320 1.381 . S
C318 C324 1.383 . S
C319 C315 1.495 . S
C319 H325 0.959 . S
C319 H326 0.961 . S
C319 H327 0.960 . S
C320 C318 1.381 . S
C320 C321 1.394 . S
C320 H328 0.930 . S
C321 C320 1.394 . S
C321 C322 1.383 . S
C321 H329 0.929 . S
C322 C321 1.383 . S
C322 C323 1.377 . S
C323 H307 0.930 . S
C323 C322 1.377 . S
C323 C324 1.379 . S
C324 H308 0.931 . S
C324 C318 1.383 . S
C324 C323 1.379 . S
H325 C319 0.959 . S
H326 C319 0.961 . S
H327 C319 0.960 . S
H328 C320 0.930 . S
H329 C321 0.929 . S
H330 C338 0.929 . S
H331 C340 0.930 1_455 S
H332 C342 0.930 . S
H333 C345 0.929 . S
H334 C348 0.930 . S
H335 C350 0.960 . S
H336 C350 0.960 . S
H337 C350 0.960 . S
C338 H330 0.929 . S
C338 C339 1.377 . S
C338 C340 1.384 . S
C339 C338 1.377 . S
C339 C345 1.390 . S
C340 H331 0.930 1_655 S
C340 C338 1.384 . S
C340 C341 1.372 . S
C341 C340 1.372 . S
C341 C342 1.400 . S
C341 C346 1.490 . S
C342 H332 0.930 . S
C342 C341 1.400 . S
C342 C345 1.386 . S
H343 C359 0.930 . S
H344 C360 0.931 . S
C345 H333 0.929 . S
C345 C339 1.390 . S
C345 C342 1.386 . S
C346 C341 1.490 . S
C346 C348 1.395 1_655 S
C346 C349 1.403 . S
H347 C353 0.930 . S
C348 H334 0.930 . S
C348 C346 1.395 1_455 S
C348 C351 1.403 . S
C349 C346 1.403 . S
C349 C350 1.524 . S
C349 C353 1.400 . S
C350 H335 0.960 . S
C350 H336 0.960 . S
C350 H337 0.960 . S
C350 C349 1.524 . S
C351 C348 1.403 . S
C351 C352 1.392 . S
C351 C355 1.495 . S
C352 C351 1.392 . S
C352 C353 1.385 1_455 S
C352 C354 1.478 . S
C353 H347 0.930 . S
C353 C349 1.400 . S
C353 C352 1.385 1_655 S
C354 C352 1.478 . S
C354 C356 1.381 . S
C354 C360 1.383 . S
C355 C351 1.495 . S
C355 H361 0.959 . S
C355 H362 0.961 . S
C355 H363 0.960 . S
C356 C354 1.381 . S
C356 C357 1.394 . S
C356 H364 0.930 . S
C357 C356 1.394 . S
C357 C358 1.383 . S
C357 H365 0.929 . S
C358 C357 1.383 . S
C358 C359 1.377 . S
C359 H343 0.930 . S
C359 C358 1.377 . S
C359 C360 1.379 . S
C360 H344 0.931 . S
C360 C354 1.383 . S
C360 C359 1.379 . S
H361 C355 0.959 . S
H362 C355 0.961 . S
H363 C355 0.960 . S
H364 C356 0.930 . S
H365 C357 0.929 . S
H366 C374 0.929 . S
H367 C376 0.930 . S
H368 C378 0.930 . S
H369 C381 0.929 . S
H370 C384 0.930 . S
H371 C386 0.960 . S
H372 C386 0.960 . S
H373 C386 0.960 . S
C374 H366 0.929 . S
C374 C375 1.377 . S
C374 C376 1.384 . S
C375 C374 1.377 . S
C375 C381 1.390 . S
C376 H367 0.930 . S
C376 C374 1.384 . S
C376 C377 1.372 . S
C377 C376 1.372 . S
C377 C378 1.400 . S
C377 C382 1.490 . S
C378 H368 0.930 . S
C378 C377 1.400 . S
C378 C381 1.386 . S
H379 C395 0.930 . S
H380 C396 0.931 . S
C381 H369 0.929 . S
C381 C375 1.390 . S
C381 C378 1.386 . S
C382 C377 1.490 . S
C382 C384 1.395 . S
C382 C385 1.403 1_545 S
H383 C389 0.930 . S
C384 H370 0.930 . S
C384 C382 1.395 . S
C384 C387 1.403 . S
C385 C382 1.403 1_565 S
C385 C386 1.524 . S
C385 C389 1.400 . S
C386 H371 0.960 . S
C386 H372 0.960 . S
C386 H373 0.960 . S
C386 C385 1.524 . S
C387 C384 1.403 . S
C387 C388 1.392 1_545 S
C387 C391 1.495 . S
C388 C387 1.392 1_565 S
C388 C389 1.385 . S
C388 C390 1.478 . S
C389 H383 0.930 . S
C389 C385 1.400 . S
C389 C388 1.385 . S
C390 C388 1.478 . S
C390 C392 1.381 . S
C390 C396 1.383 . S
C391 C387 1.495 . S
C391 H397 0.959 . S
C391 H398 0.961 . S
C391 H399 0.960 . S
C392 C390 1.381 . S
C392 C393 1.394 . S
C392 H400 0.930 . S
C393 C392 1.394 . S
C393 C394 1.383 . S
C393 H401 0.929 . S
C394 C393 1.383 . S
C394 C395 1.377 . S
C395 H379 0.930 . S
C395 C394 1.377 . S
C395 C396 1.379 . S
C396 H380 0.931 . S
C396 C390 1.383 . S
C396 C395 1.379 . S
H397 C391 0.959 . S
H398 C391 0.961 . S
H399 C391 0.960 . S
H400 C392 0.930 . S
H401 C393 0.929 . S
H402 C410 0.929 . S
H403 C412 0.930 . S
H404 C414 0.930 . S
H405 C417 0.929 . S
H406 C420 0.930 . S
H407 C422 0.960 . S
H408 C422 0.960 . S
H409 C422 0.960 . S
C410 H402 0.929 . S
C410 C411 1.377 . S
C410 C412 1.384 . S
C411 C410 1.377 . S
C411 C417 1.390 . S
C412 H403 0.930 . S
C412 C410 1.384 . S
C412 C413 1.372 . S
C413 C412 1.372 . S
C413 C414 1.400 . S
C413 C418 1.490 . S
C414 H404 0.930 . S
C414 C413 1.400 . S
C414 C417 1.386 . S
H415 C431 0.930 . S
H416 C432 0.931 . S
C417 H405 0.929 . S
C417 C411 1.390 . S
C417 C414 1.386 . S
C418 C413 1.490 . S
C418 C420 1.395 . S
C418 C421 1.403 . S
H419 C425 0.930 . S
C420 H406 0.930 . S
C420 C418 1.395 . S
C420 C423 1.403 . S
C421 C418 1.403 . S
C421 C422 1.524 . S
C421 C425 1.400 . S
C422 H407 0.960 . S
C422 H408 0.960 . S
C422 H409 0.960 . S
C422 C421 1.524 . S
C423 C420 1.403 . S
C423 C424 1.392 . S
C423 C427 1.495 . S
C424 C423 1.392 . S
C424 C425 1.385 . S
C424 C426 1.478 . S
C425 H419 0.930 . S
C425 C421 1.400 . S
C425 C424 1.385 . S
C426 C424 1.478 . S
C426 C428 1.381 . S
C426 C432 1.383 . S
C427 C423 1.495 . S
C427 H433 0.959 . S
C427 H434 0.961 . S
C427 H435 0.960 . S
C428 C426 1.381 . S
C428 C429 1.394 . S
C428 H436 0.930 . S
C429 C428 1.394 . S
C429 C430 1.383 . S
C429 H437 0.929 . S
C430 C429 1.383 . S
C430 C431 1.377 . S
C431 H415 0.930 . S
C431 C430 1.377 . S
C431 C432 1.379 . S
C432 H416 0.931 . S
C432 C426 1.383 . S
C432 C431 1.379 . S
H433 C427 0.959 . S
H434 C427 0.961 . S
H435 C427 0.960 . S
H436 C428 0.930 . S
H437 C429 0.929 . S
H438 C446 0.929 . S
H439 C448 0.919 1_455 S
H440 C450 0.930 . S
H441 C453 0.929 . S
H442 C456 0.930 . S
H443 C458 0.960 . S
H444 C458 0.960 . S
H445 C458 0.960 1_554 S
C446 H438 0.929 . S
C446 C447 1.377 1_556 S
C446 C448 1.384 . S
C447 C446 1.377 1_554 S
C447 C453 1.390 . S
C448 H439 0.919 1_655 S
C448 C446 1.384 . S
C448 C449 1.372 1_556 S
C449 C448 1.372 1_554 S
C449 C450 1.400 . S
C449 C454 1.490 . S
C450 H440 0.930 . S
C450 C449 1.400 . S
C450 C453 1.386 . S
H451 C467 0.930 . S
H452 C468 0.931 . S
C453 H441 0.929 . S
C453 C447 1.390 . S
C453 C450 1.386 . S
C454 C449 1.490 . S
C454 C456 1.395 1_655 S
C454 C457 1.403 . S
H455 C461 0.930 . S
C456 H442 0.930 . S
C456 C454 1.395 1_455 S
C456 C459 1.403 . S
C457 C454 1.403 . S
C457 C458 1.524 1_554 S
C457 C461 1.400 . S
C458 H443 0.960 . S
C458 H444 0.960 . S
C458 H445 0.960 1_556 S
C458 C457 1.524 1_556 S
C459 C456 1.403 . S
C459 C460 1.392 . S
C459 C463 1.495 . S
C460 C459 1.392 . S
C460 C461 1.385 1_455 S
C460 C462 1.478 . S
C461 H455 0.930 . S
C461 C457 1.400 . S
C461 C460 1.385 1_655 S
C462 C460 1.478 . S
C462 C464 1.381 1_554 S
C462 C468 1.383 . S
C463 C459 1.495 . S
C463 H469 0.959 . S
C463 H470 0.961 . S
C463 H471 0.960 . S
C464 C462 1.381 1_556 S
C464 C465 1.394 . S
C464 H472 0.930 . S
C465 C464 1.394 . S
C465 C466 1.383 1_556 S
C465 H473 0.929 . S
C466 C465 1.383 1_554 S
C466 C467 1.377 . S
C467 H451 0.930 . S
C467 C466 1.377 . S
C467 C468 1.379 . S
C468 H452 0.931 . S
C468 C462 1.383 . S
C468 C467 1.379 . S
H469 C463 0.959 . S
H470 C463 0.961 . S
H471 C463 0.960 . S
H472 C464 0.930 . S
H473 C465 0.929 . S
H474 C482 0.929 . S
H475 C484 0.930 1_565 S
H476 C486 0.930 . S
H477 C489 0.929 . S
H478 C492 0.930 . S
H479 C494 0.960 . S
H480 C494 0.960 . S
H481 C494 0.960 . S
C482 H474 0.929 . S
C482 C483 1.377 . S
C482 C484 1.384 . S
C483 C482 1.377 . S
C483 C489 1.390 . S
C484 H475 0.930 1_545 S
C484 C482 1.384 . S
C484 C485 1.372 . S
C485 C484 1.372 . S
C485 C486 1.400 . S
C485 C490 1.490 . S
C486 H476 0.930 . S
C486 C485 1.400 . S
C486 C489 1.386 . S
H487 C503 0.930 . S
H488 C504 0.931 1_545 S
C489 H477 0.929 . S
C489 C483 1.390 . S
C489 C486 1.386 . S
C490 C485 1.490 . S
C490 C492 1.395 1_545 S
C490 C493 1.403 . S
H491 C497 0.930 . S
C492 H478 0.930 . S
C492 C490 1.395 1_565 S
C492 C495 1.403 . S
C493 C490 1.403 . S
C493 C494 1.524 . S
C493 C497 1.400 . S
C494 H479 0.960 . S
C494 H480 0.960 . S
C494 H481 0.960 . S
C494 C493 1.524 . S
C495 C492 1.403 . S
C495 C496 1.392 . S
C495 C499 1.495 . S
C496 C495 1.392 . S
C496 C497 1.385 1_565 S
C496 C498 1.478 . S
C497 H491 0.930 . S
C497 C493 1.400 . S
C497 C496 1.385 1_545 S
C498 C496 1.478 . S
C498 C500 1.381 . S
C498 C504 1.383 . S
C499 C495 1.495 . S
C499 H505 0.959 . S
C499 H506 0.961 . S
C499 H507 0.960 . S
C500 C498 1.381 . S
C500 C501 1.394 . S
C500 H508 0.930 . S
C501 C500 1.394 . S
C501 C502 1.383 . S
C501 H509 0.929 . S
C502 C501 1.383 . S
C502 C503 1.377 . S
C503 H487 0.930 . S
C503 C502 1.377 . S
C503 C504 1.379 . S
C504 H488 0.931 1_565 S
C504 C498 1.383 . S
C504 C503 1.379 . S
H505 C499 0.959 . S
H506 C499 0.961 . S
H507 C499 0.960 . S
H508 C500 0.930 . S
H509 C501 0.929 . S
C87 C69 1.262 . S
C106 C3 1.263 . S
C123 C16 1.268 . S
C142 C10 1.248 . S
C159 C23 1.263 . S
C178 C31 1.258 . S
C195 C42 1.264 . S
C214 C30 1.273 . S
C231 C57 1.263 . S
C250 C49 1.275 . S
C267 C70 1.268 . S
C286 C56 1.247 . S
C303 C5 1.404 . S
C322 C44 1.410 . S
C339 C18 1.408 . S
C358 C55 1.391 . S
C375 C68 1.408 . S
C394 C29 1.411 . S
C411 C75 1.375 . S
C430 C36 1.381 . S
C447 C43 1.379 . S
C466 C4 1.360 . S
C483 C17 1.380 . S
C502 C62 1.360 . S
