# Generated by pormake.
# Topology ske, (6)-cn, num edge types: 1
# Building blocks:
#     Node 0, Type 0, BuildingBlock: UKALOJ_clean_sbu_0, # of connection points: 6
#     Node 1, Type 0, BuildingBlock: UKALOJ_clean_sbu_0, # of connection points: 6
#     Node 2, Type 0, BuildingBlock: UKALOJ_clean_sbu_0, # of connection points: 6
#     Node 3, Type 0, BuildingBlock: UKALOJ_clean_sbu_0, # of connection points: 6
#     Node 4, Type 0, BuildingBlock: UKALOJ_clean_sbu_0, # of connection points: 6
#     Node 5, Type 0, BuildingBlock: UKALOJ_clean_sbu_0, # of connection points: 6
#     Node 6, Type 0, BuildingBlock: UKALOJ_clean_sbu_0, # of connection points: 6
#     Node 7, Type 0, BuildingBlock: UKALOJ_clean_sbu_0, # of connection points: 6
#     Edge 8, Type (0, 0), BuildingBlock: CIFDUS_clean_linker_0, # of connection points: 2
#     Edge 9, Type (0, 0), BuildingBlock: CIFDUS_clean_linker_0, # of connection points: 2
#     Edge 10, Type (0, 0), BuildingBlock: CIFDUS_clean_linker_0, # of connection points: 2
#     Edge 11, Type (0, 0), BuildingBlock: CIFDUS_clean_linker_0, # of connection points: 2
#     Edge 12, Type (0, 0), BuildingBlock: CIFDUS_clean_linker_0, # of connection points: 2
#     Edge 13, Type (0, 0), BuildingBlock: CIFDUS_clean_linker_0, # of connection points: 2
#     Edge 14, Type (0, 0), BuildingBlock: CIFDUS_clean_linker_0, # of connection points: 2
#     Edge 15, Type (0, 0), BuildingBlock: CIFDUS_clean_linker_0, # of connection points: 2
#     Edge 16, Type (0, 0), BuildingBlock: CIFDUS_clean_linker_0, # of connection points: 2
#     Edge 17, Type (0, 0), BuildingBlock: CIFDUS_clean_linker_0, # of connection points: 2
#     Edge 18, Type (0, 0), BuildingBlock: CIFDUS_clean_linker_0, # of connection points: 2
#     Edge 19, Type (0, 0), BuildingBlock: CIFDUS_clean_linker_0, # of connection points: 2
#     Edge 20, Type (0, 0), BuildingBlock: CIFDUS_clean_linker_0, # of connection points: 2
#     Edge 21, Type (0, 0), BuildingBlock: CIFDUS_clean_linker_0, # of connection points: 2
#     Edge 22, Type (0, 0), BuildingBlock: CIFDUS_clean_linker_0, # of connection points: 2
#     Edge 23, Type (0, 0), BuildingBlock: CIFDUS_clean_linker_0, # of connection points: 2
#     Edge 24, Type (0, 0), BuildingBlock: CIFDUS_clean_linker_0, # of connection points: 2
#     Edge 25, Type (0, 0), BuildingBlock: CIFDUS_clean_linker_0, # of connection points: 2
#     Edge 26, Type (0, 0), BuildingBlock: CIFDUS_clean_linker_0, # of connection points: 2
#     Edge 27, Type (0, 0), BuildingBlock: CIFDUS_clean_linker_0, # of connection points: 2
#     Edge 28, Type (0, 0), BuildingBlock: CIFDUS_clean_linker_0, # of connection points: 2
#     Edge 29, Type (0, 0), BuildingBlock: CIFDUS_clean_linker_0, # of connection points: 2
#     Edge 30, Type (0, 0), BuildingBlock: CIFDUS_clean_linker_0, # of connection points: 2
#     Edge 31, Type (0, 0), BuildingBlock: CIFDUS_clean_linker_0, # of connection points: 2
# Relax obj value: 0.071
# Max RMSD: 0.118
# Mean RMSD: 0.118
data_MOF--net-ske--node1-UKALOJ_clean_sbu_0--edge1-CIFDUS_clean_linker_0
_symmetry_space_group_name_H-M    P1
_symmetry_Int_Tables_number       1
_symmetry_cell_setting            triclinic
loop_
_symmetry_equiv_pos_as_xyz
'x, y, z'
_cell_length_a     50.90654
_cell_length_b     36.883428
_cell_length_c     13.353681
_cell_angle_alpha  90.092919
_cell_angle_beta   90.413433
_cell_angle_gamma 90.636323
loop_
_atom_site_label
_atom_site_type_symbol
_atom_site_fract_x
_atom_site_fract_y
_atom_site_fract_z
_atom_type_partial_charge
Zn0 Zn 0.13584 0.29107 0.52086 0.0
O1 O 0.1317 0.29691 0.67721 0.0
C2 C 0.19065 0.27134 0.5602 0.0
Zn3 Zn 0.13923 0.23111 0.53622 0.0
C4 C 0.13199 0.26863 0.73169 0.0
O5 O 0.13401 0.23761 0.69097 0.0
C6 C 0.14331 0.25361 0.32523 0.0
O7 O 0.09793 0.22385 0.51657 0.0
O8 O 0.09496 0.28298 0.5054 0.0
N9 N 0.14446 0.17646 0.55597 0.0
C10 C 0.13256 0.1471 0.51473 0.0
C11 C 0.1625 0.12791 0.61302 0.0
N12 N 0.16303 0.16442 0.617 0.0
N13 N 0.14347 0.11632 0.54973 0.0
C14 C 0.1393 0.37596 0.54115 0.0
C15 C 0.11695 0.39137 0.41279 0.0
N16 N 0.13061 0.34523 0.49632 0.0
N17 N 0.11669 0.35497 0.41691 0.0
N18 N 0.131 0.40542 0.48974 0.0
H19 H 0.14437 0.38093 0.69953 0.0
H20 H 0.17121 0.39932 0.6275 0.0
H21 H 0.16706 0.3509 0.64247 0.0
C22 C 0.15666 0.37677 0.63233 0.0
C23 C 0.11139 0.14863 0.43625 0.0
H24 H 0.09197 0.14769 0.47333 0.0
H25 H 0.11264 0.12514 0.38454 0.0
H26 H 0.11271 0.174 0.39246 0.0
O27 O 0.1448 0.22559 0.38007 0.0
O28 O 0.13994 0.28431 0.36578 0.0
C29 C 0.08392 0.25191 0.50549 0.0
O30 O 0.17674 0.29854 0.53781 0.0
O31 O 0.18014 0.23988 0.56067 0.0
Zn32 Zn 0.87552 0.31026 0.51783 0.0
O33 O 0.91654 0.30592 0.50071 0.0
C34 C 0.86944 0.28947 0.30806 0.0
Zn35 Zn 0.87392 0.25024 0.50536 0.0
C36 C 0.9284 0.27606 0.48822 0.0
O37 O 0.91521 0.2465 0.48594 0.0
C38 C 0.82167 0.28459 0.54591 0.0
O39 O 0.87822 0.24252 0.66082 0.0
O40 O 0.8796 0.30194 0.67363 0.0
N41 N 0.86771 0.1965 0.47743 0.0
C42 C 0.87991 0.16528 0.49995 0.0
C43 C 0.84648 0.15185 0.40959 0.0
N44 N 0.84701 0.18799 0.4213 0.0
N45 N 0.86692 0.13671 0.45778 0.0
C46 C 0.88717 0.39236 0.48279 0.0
C47 C 0.86784 0.41573 0.6078 0.0
N48 N 0.87802 0.3649 0.53977 0.0
N49 N 0.86617 0.37951 0.61763 0.0
N50 N 0.88073 0.42474 0.52337 0.0
H51 H 0.9142 0.36129 0.3943 0.0
H52 H 0.91762 0.40981 0.38158 0.0
H53 H 0.89027 0.38592 0.32407 0.0
C54 C 0.90337 0.38709 0.3907 0.0
C55 C 0.90369 0.1632 0.56631 0.0
H56 H 0.92154 0.16271 0.51916 0.0
H57 H 0.90303 0.13824 0.61253 0.0
H58 H 0.9052 0.18727 0.61576 0.0
O59 O 0.83302 0.25468 0.52995 0.0
O60 O 0.83472 0.3139 0.53845 0.0
C61 C 0.87969 0.27089 0.71496 0.0
O62 O 0.87108 0.31774 0.3621 0.0
O63 O 0.86958 0.25859 0.3497 0.0
Zn64 Zn 0.13131 0.79333 0.43245 0.0
O65 O 0.09006 0.79182 0.44948 0.0
C66 C 0.13672 0.77276 0.64329 0.0
Zn67 Zn 0.13278 0.73321 0.44669 0.0
C68 C 0.0784 0.76141 0.45924 0.0
O69 O 0.09178 0.73262 0.46026 0.0
C70 C 0.18535 0.76423 0.40976 0.0
O71 O 0.12902 0.72536 0.29058 0.0
O72 O 0.12711 0.78467 0.27737 0.0
N73 N 0.13208 0.67887 0.47535 0.0
C74 C 0.14146 0.64876 0.43133 0.0
C75 C 0.12063 0.63206 0.56155 0.0
N76 N 0.11919 0.66831 0.55606 0.0
N77 N 0.13447 0.61884 0.4843 0.0
C78 C 0.14218 0.87666 0.45187 0.0
C79 C 0.11512 0.89786 0.34487 0.0
N80 N 0.12968 0.84819 0.40853 0.0
N81 N 0.11299 0.86145 0.34183 0.0
N82 N 0.13335 0.90816 0.41307 0.0
H83 H 0.14912 0.87416 0.6093 0.0
H84 H 0.17509 0.89605 0.5423 0.0
H85 H 0.17133 0.84744 0.5363 0.0
C86 C 0.16067 0.87343 0.53924 0.0
C87 C 0.15825 0.64929 0.33967 0.0
H88 H 0.16867 0.67565 0.33228 0.0
H89 H 0.14553 0.64563 0.2725 0.0
H90 H 0.17277 0.62709 0.34218 0.0
O91 O 0.17379 0.73442 0.43006 0.0
O92 O 0.17243 0.79358 0.41092 0.0
C93 C 0.12734 0.75356 0.23626 0.0
O94 O 0.1354 0.80092 0.58895 0.0
O95 O 0.13651 0.74177 0.60197 0.0
Zn96 Zn 0.86784 0.80878 0.42541 0.0
O97 O 0.87264 0.81588 0.27055 0.0
C98 C 0.8156 0.77682 0.39141 0.0
Zn99 Zn 0.87056 0.74887 0.41306 0.0
C100 C 0.87359 0.7876 0.21615 0.0
O101 O 0.8732 0.75647 0.25701 0.0
C102 C 0.86454 0.77022 0.62257 0.0
O103 O 0.91169 0.75001 0.42439 0.0
O104 O 0.9091 0.80872 0.44466 0.0
N105 N 0.87032 0.69388 0.39376 0.0
C106 C 0.88032 0.66681 0.44962 0.0
C107 C 0.85891 0.6425 0.32888 0.0
N108 N 0.85711 0.6787 0.31866 0.0
N109 N 0.87322 0.63419 0.41087 0.0
C110 C 0.85858 0.89341 0.41702 0.0
C111 C 0.8863 0.90956 0.52961 0.0
N112 N 0.86962 0.86303 0.45333 0.0
N113 N 0.88669 0.87327 0.52343 0.0
N114 N 0.86886 0.923 0.4637 0.0
H115 H 0.84006 0.86905 0.28727 0.0
H116 H 0.84176 0.91827 0.286 0.0
H117 H 0.81881 0.89497 0.36587 0.0
C118 C 0.83881 0.89393 0.33354 0.0
C119 C 0.89786 0.6725 0.53925 0.0
H120 H 0.90857 0.69863 0.53543 0.0
H121 H 0.91232 0.65032 0.54566 0.0
H122 H 0.88573 0.67288 0.60782 0.0
O123 O 0.86755 0.74223 0.56879 0.0
O124 O 0.86318 0.80105 0.58097 0.0
C125 C 0.92291 0.78039 0.43975 0.0
O126 O 0.82637 0.80798 0.40175 0.0
O127 O 0.82948 0.74852 0.39891 0.0
Zn128 Zn 0.62531 0.78384 0.04994 0.0
O129 O 0.62078 0.78911 0.20631 0.0
C130 C 0.68047 0.76632 0.08972 0.0
Zn131 Zn 0.62993 0.72381 0.06576 0.0
C132 C 0.62191 0.76089 0.26095 0.0
O133 O 0.62486 0.72996 0.22053 0.0
C134 C 0.63358 0.74719 0.85449 0.0
O135 O 0.58881 0.71482 0.04791 0.0
O136 O 0.585 0.77365 0.03317 0.0
N137 N 0.636 0.66893 0.08322 0.0
C138 C 0.6291 0.64022 0.02541 0.0
C139 C 0.65065 0.61981 0.15006 0.0
N140 N 0.64933 0.65611 0.16069 0.0
N141 N 0.63823 0.60901 0.06541 0.0
C142 C 0.63141 0.86889 0.04432 0.0
C143 C 0.5977 0.88266 0.95737 0.0
N144 N 0.61801 0.83783 0.02566 0.0
N145 N 0.59703 0.84659 0.9721 0.0
N146 N 0.61917 0.89739 0.00139 0.0
H147 H 0.65464 0.85076 0.16925 0.0
H148 H 0.65753 0.89876 0.143 0.0
H149 H 0.67305 0.86623 0.06253 0.0
C150 C 0.65552 0.8714 0.10897 0.0
C151 C 0.61242 0.64273 0.93257 0.0
H152 H 0.59988 0.66692 0.93355 0.0
H153 H 0.59974 0.61824 0.92407 0.0
H154 H 0.62534 0.64495 0.86637 0.0
O155 O 0.63528 0.71914 0.90916 0.0
O156 O 0.62983 0.7778 0.89509 0.0
C157 C 0.57446 0.74234 0.03445 0.0
O158 O 0.66588 0.793 0.06852 0.0
O159 O 0.67074 0.73434 0.08926 0.0
Zn160 Zn 0.36508 0.74376 0.03526 0.0
O161 O 0.37032 0.73597 0.19044 0.0
C162 C 0.31419 0.78176 0.08002 0.0
Zn163 Zn 0.3684 0.80427 0.04745 0.0
C164 C 0.3724 0.76429 0.24459 0.0
O165 O 0.37272 0.79536 0.20327 0.0
C166 C 0.36102 0.78326 0.83778 0.0
O167 O 0.40879 0.79741 0.02623 0.0
O168 O 0.40596 0.73815 0.01129 0.0
N169 N 0.37496 0.85891 0.07067 0.0
C170 C 0.36477 0.88885 0.02806 0.0
C171 C 0.39306 0.90659 0.13658 0.0
N172 N 0.39247 0.87006 0.13812 0.0
N173 N 0.37582 0.91916 0.06836 0.0
C174 C 0.37247 0.65925 0.01808 0.0
C175 C 0.33575 0.64335 0.95317 0.0
N176 N 0.3578 0.68939 0.01014 0.0
N177 N 0.33499 0.67931 0.97012 0.0
N178 N 0.35913 0.62995 -0.0181 0.0
H179 H 0.41424 0.66384 0.00872 0.0
H180 H 0.40282 0.63168 0.10072 0.0
H181 H 0.40082 0.6799 0.12461 0.0
C182 C 0.3991 0.65852 0.06635 0.0
C183 C 0.34641 0.88783 0.93972 0.0
H184 H 0.35814 0.88372 0.87109 0.0
H185 H 0.33548 0.91331 0.93017 0.0
H186 H 0.33233 0.86485 0.94645 0.0
O187 O 0.36401 0.8115 0.89151 0.0
O188 O 0.35993 0.75237 0.87964 0.0
C189 C 0.41977 0.76709 0.01199 0.0
O190 O 0.32451 0.75105 0.06395 0.0
O191 O 0.32803 0.81042 0.07115 0.0
Zn192 Zn 0.64062 0.28322 0.92406 0.0
O193 O 0.59956 0.27924 0.94667 0.0
C194 C 0.64903 0.25171 0.12211 0.0
Zn195 Zn 0.64232 0.2229 0.91269 0.0
C196 C 0.58796 0.24845 0.94785 0.0
O197 O 0.60129 0.21976 0.93609 0.0
C198 C 0.69438 0.25731 0.87934 0.0
O199 O 0.6366 0.22334 0.75556 0.0
O200 O 0.63426 0.28269 0.76865 0.0
N201 N 0.64644 0.16781 0.91882 0.0
C202 C 0.63069 0.13878 0.90143 0.0
C203 C 0.66632 0.11928 0.96519 0.0
N204 N 0.66855 0.15548 0.95799 0.0
N205 N 0.64268 0.10786 0.9309 0.0
C206 C 0.63189 0.36519 -0.0169 0.0
C207 C 0.6513 0.39102 0.86136 0.0
N208 N 0.64031 0.33886 0.92107 0.0
N209 N 0.65229 0.35509 0.84562 0.0
N210 N 0.63872 0.39845 0.9474 0.0
H211 H 0.60601 0.33122 0.07026 0.0
H212 H 0.60146 0.37941 0.08695 0.0
H213 H 0.62959 0.35714 0.14119 0.0
C214 C 0.61618 0.35786 0.07542 0.0
C215 C 0.60441 0.14101 0.8511 0.0
H216 H 0.58904 0.14363 0.90889 0.0
H217 H 0.60031 0.11618 0.80632 0.0
H218 H 0.60359 0.16517 0.80185 0.0
O219 O 0.68278 0.2269 0.88726 0.0
O220 O 0.68168 0.28612 0.89584 0.0
C221 C 0.634 0.25429 0.71468 0.0
O222 O 0.64683 0.28263 0.08107 0.0
O223 O 0.64831 0.22337 0.06821 0.0
Zn224 Zn 0.37898 0.24278 0.90958 0.0
O225 O 0.42002 0.23963 0.93073 0.0
C226 C 0.37215 0.27671 0.1057 0.0
Zn227 Zn 0.37851 0.30338 0.89526 0.0
C228 C 0.43233 0.26979 0.93197 0.0
O229 O 0.41965 0.29894 0.91952 0.0
C230 C 0.32547 0.2754 0.86641 0.0
O231 O 0.38403 0.30087 0.7396 0.0
O232 O 0.38406 0.24139 0.7535 0.0
N233 N 0.38335 0.3592 0.89876 0.0
C234 C 0.36807 0.38827 0.88092 0.0
C235 C 0.40414 0.40811 0.94297 0.0
N236 N 0.40574 0.37184 0.9368 0.0
N237 N 0.38064 0.41935 0.90904 0.0
C238 C 0.38576 0.15972 0.95968 0.0
C239 C 0.3558 0.13682 0.86601 0.0
N240 N 0.37445 0.18732 0.90962 0.0
N241 N 0.35592 0.17289 0.85145 0.0
N242 N 0.37435 0.1277 0.93348 0.0
H243 H 0.4059 0.19173 0.0723 0.0
H244 H 0.42631 0.16199 0.00113 0.0
H245 H 0.40516 0.14338 0.09611 0.0
C246 C 0.40687 0.16452 0.03741 0.0
C247 C 0.34176 0.38614 0.83028 0.0
H248 H 0.342 0.36515 0.77068 0.0
H249 H 0.33648 0.4125 0.79624 0.0
H250 H 0.32664 0.37837 0.88596 0.0
O251 O 0.33751 0.30578 0.86824 0.0
O252 O 0.33802 0.24664 0.88584 0.0
C253 C 0.38519 0.26964 0.69919 0.0
O254 O 0.37394 0.24558 0.06549 0.0
O255 O 0.37277 0.30487 0.0511 0.0
H256 H 0.21694 0.22596 0.68261 0.0
H257 H 0.22321 0.33044 0.5395 0.0
H258 H 0.26462 0.34254 0.62869 0.0
H259 H 0.29907 0.32312 0.74771 0.0
H260 H 0.29157 0.21895 0.8923 0.0
H261 H 0.25021 0.20753 0.80417 0.0
C262 C 0.22755 0.25116 0.66956 0.0
C263 C 0.21725 0.27698 0.60312 0.0
C264 C 0.25082 0.25835 0.7232 0.0
C265 C 0.23093 0.3099 0.58922 0.0
C266 C 0.25447 0.31696 0.64089 0.0
C267 C 0.28811 0.29826 0.76138 0.0
C268 C 0.29834 0.27201 0.8269 0.0
C269 C 0.26449 0.2915 0.70879 0.0
C270 C 0.28409 0.23967 0.84257 0.0
C271 C 0.26054 0.23295 0.79156 0.0
H272 H 0.71657 0.31362 0.77817 0.0
H273 H 0.73022 0.20336 0.87148 0.0
H274 H 0.76956 0.20124 0.76853 0.0
H275 H 0.79927 0.22983 0.64909 0.0
H276 H 0.78683 0.34047 0.55744 0.0
H277 H 0.74728 0.34298 0.66065 0.0
C278 C 0.72848 0.28941 0.77759 0.0
C279 C 0.72061 0.25877 0.83298 0.0
C280 C 0.75079 0.28808 0.71641 0.0
C281 C 0.73596 0.22737 0.83001 0.0
C282 C 0.7583 0.226 0.77042 0.0
C283 C 0.78766 0.25432 0.65008 0.0
C284 C 0.79569 0.28473 0.59431 0.0
C285 C 0.76561 0.25594 0.71201 0.0
C286 C 0.78081 0.31654 0.59866 0.0
C287 C 0.75839 0.3181 0.65843 0.0
H288 H 0.29038 0.72913 0.18747 0.0
H289 H 0.28094 0.83941 0.0872 0.0
H290 H 0.24131 0.84485 0.18877 0.0
H291 H 0.20965 0.81822 0.30637 0.0
H292 H 0.21985 0.70815 0.40819 0.0
H293 H 0.25952 0.70312 0.30783 0.0
C294 C 0.2794 0.75417 0.18632 0.0
C295 C 0.28829 0.78363 0.12852 0.0
C296 C 0.25723 0.75744 0.24716 0.0
C297 C 0.27425 0.8162 0.13006 0.0
C298 C 0.25178 0.81942 0.18883 0.0
C299 C 0.22081 0.79334 0.30819 0.0
C300 C 0.21185 0.76366 0.36524 0.0
C301 C 0.24326 0.79033 0.24848 0.0
C302 C 0.22639 0.73149 0.36554 0.0
C303 C 0.24892 0.72845 0.30735 0.0
H304 H 0.70738 0.72299 0.21583 0.0
H305 H 0.71227 0.82586 0.06361 0.0
H306 H 0.75334 0.84023 0.15237 0.0
H307 H 0.78815 0.82304 0.2727 0.0
H308 H 0.78266 0.71992 0.42362 0.0
H309 H 0.74115 0.7066 0.338 0.0
C310 C 0.71763 0.74832 0.20077 0.0
C311 C 0.70698 0.77311 0.1322 0.0
C312 C 0.74081 0.75672 0.25371 0.0
C313 C 0.72018 0.8062 0.11549 0.0
C314 C 0.74356 0.81454 0.16676 0.0
C315 C 0.77751 0.79807 0.28847 0.0
C316 C 0.78829 0.77264 0.3551 0.0
C317 C 0.75396 0.79011 0.23674 0.0
C318 C 0.77463 0.74002 0.37318 0.0
C319 C 0.75104 0.73222 0.32354 0.0
H320 H 0.09927 0.95991 0.45963 0.0
H321 H 0.18157 0.93944 0.41931 0.0
H322 H 0.19221 1.00261 0.46177 0.0
H323 H 0.17777 0.06411 0.50769 0.0
H324 H 0.09529 0.08495 0.54239 0.0
H325 H 0.08479 0.02152 0.50341 0.0
C326 C 0.1195 0.96944 0.46077 0.0
C327 C 0.13972 0.94499 0.43997 0.0
C328 C 0.12531 1.0059 0.48298 0.0
C329 C 0.16585 0.95751 0.43949 0.0
C330 C 0.17186 0.99367 0.46243 0.0
C331 C 0.15755 0.05458 0.50662 0.0
C332 C 0.13728 0.07912 0.52599 0.0
C333 C 0.15174 0.0181 0.48435 0.0
C334 C 0.11111 0.06669 0.52498 0.0
C335 C 0.10515 0.0304 0.50359 0.0
H336 H 0.8843 0.48533 0.63272 0.0
H337 H 0.88019 0.44693 0.32769 0.0
H338 H 0.88093 0.50885 0.26674 0.0
H339 H 0.87916 0.57436 0.29997 0.0
H340 H 0.87477 0.61178 0.60537 0.0
H341 H 0.88086 0.5504 0.66599 0.0
C342 C 0.88388 0.49053 0.55283 0.0
C343 C 0.88334 0.4612 0.48531 0.0
C344 C 0.88261 0.52634 0.51823 0.0
C345 C 0.88219 0.46849 0.38193 0.0
C346 C 0.88202 0.50414 0.34676 0.0
C347 C 0.87979 0.56905 0.37978 0.0
C348 C 0.87772 0.59804 0.44773 0.0
C349 C 0.88184 0.53326 0.41428 0.0
C350 C 0.8779 0.59061 0.55103 0.0
C351 C 0.88088 0.55525 0.58595 0.0
H352 H 0.90513 0.97546 0.45635 0.0
H353 H 0.82164 0.95561 0.44684 0.0
H354 H 0.81372 0.02102 0.44508 0.0
H355 H 0.83075 0.08359 0.45466 0.0
H356 H 0.91443 0.10319 0.457 0.0
H357 H 0.9222 0.0381 0.45667 0.0
C358 C 0.88523 0.98562 0.45287 0.0
C359 C 0.86398 0.96096 0.45032 0.0
C360 C 0.88094 0.02307 0.45334 0.0
C361 C 0.83826 0.97413 0.44615 0.0
C362 C 0.83377 1.01147 0.44657 0.0
C363 C 0.8507 0.07359 0.45523 0.0
C364 C 0.87196 0.09833 0.4599 0.0
C365 C 0.85498 0.03613 0.45145 0.0
C366 C 0.89769 0.08498 0.45883 0.0
C367 C 0.90215 0.04768 0.45668 0.0
H368 H 0.13977 0.56795 0.62472 0.0
H369 H 0.13631 0.58326 0.30484 0.0
H370 H 0.13818 0.51793 0.27932 0.0
H371 H 0.13673 0.45616 0.34834 0.0
H372 H 0.13355 0.44133 0.66828 0.0
H373 H 0.13839 0.50643 0.69356 0.0
C374 C 0.13975 0.55698 0.54933 0.0
C375 C 0.13862 0.58072 0.46693 0.0
C376 C 0.13946 0.5193 0.53541 0.0
C377 C 0.1383 0.56605 0.36971 0.0
C378 C 0.13889 0.52851 0.35508 0.0
C379 C 0.13734 0.46721 0.42362 0.0
C380 C 0.13558 0.44364 0.50628 0.0
C381 C 0.13894 0.5049 0.43744 0.0
C382 C 0.13606 0.45839 0.60336 0.0
C383 C 0.1384 0.49581 0.61784 0.0
H384 H 0.63421 0.54812 0.17529 0.0
H385 H 0.64122 0.58642 0.87168 0.0
H386 H 0.63837 0.52462 0.80932 0.0
H387 H 0.63591 0.45948 0.84041 0.0
H388 H 0.63648 0.42011 0.1444 0.0
H389 H 0.63398 0.48198 0.20685 0.0
C390 C 0.63494 0.54286 0.09547 0.0
C391 C 0.63662 0.57221 0.0282 0.0
C392 C 0.63455 0.50686 0.06009 0.0
C393 C 0.63828 0.56485 0.9251 0.0
C394 C 0.63713 0.5293 0.8893 0.0
C395 C 0.63529 0.46433 0.92045 0.0
C396 C 0.6354 0.43469 -0.01308 0.0
C397 C 0.63534 0.50013 0.95609 0.0
C398 C 0.63503 0.44176 0.09055 0.0
C399 C 0.63413 0.47743 0.12665 0.0
H400 H 0.4125 0.97032 0.03458 0.0
H401 H 0.3291 0.95301 0.062 0.0
H402 H 0.32129 1.01691 0.02392 0.0
H403 H 0.33827 0.0775 -0.02028 0.0
H404 H 0.4217 0.09573 0.95731 0.0
H405 H 0.42967 0.03207 -0.00103 0.0
C406 C 0.39267 0.98071 0.03185 0.0
C407 C 0.3713 0.95681 0.04653 0.0
C408 C 0.38845 0.01768 0.01228 0.0
C409 C 0.34571 0.97057 0.04571 0.0
C410 C 0.3413 1.00716 0.02544 0.0
C411 C 0.35818 0.06747 -0.01518 0.0
C412 C 0.37938 0.09129 0.96689 0.0
C413 C 0.3625 0.03087 0.00775 0.0
C414 C 0.40512 0.07813 0.97332 0.0
C415 C 0.40963 0.04165 -0.00402 0.0
H416 H 0.40937 0.47953 0.87978 0.0
H417 H 0.33212 0.44208 0.96329 0.0
H418 H 0.3186 0.50454 -0.00724 0.0
H419 H 0.32938 0.56994 0.00153 0.0
H420 H 0.40684 0.60706 0.91966 0.0
H421 H 0.41994 0.54479 0.88604 0.0
C422 C 0.38949 0.48516 0.90339 0.0
C423 C 0.37158 0.45621 0.91634 0.0
C424 C 0.38213 0.52107 0.9231 0.0
C425 C 0.34599 0.46381 0.94855 0.0
C426 C 0.33839 0.49955 0.96714 0.0
C427 C 0.34916 0.56426 0.97681 0.0
C428 C 0.36736 0.59304 0.96651 0.0
C429 C 0.35637 0.52836 0.95561 0.0
C430 C 0.3928 0.58542 0.93275 0.0
C431 C 0.40017 0.5498 0.91184 0.0
H432 H 0.67166 0.04833 0.91275 0.0
H433 H 0.59295 0.08406 0.97244 0.0
H434 H 0.57869 0.02149 -0.00162 0.0
H435 H 0.58906 0.95634 0.01076 0.0
H436 H 0.66821 0.92126 0.95838 0.0
H437 H 0.6821 0.98376 0.92667 0.0
C438 C 0.65132 0.04236 0.93061 0.0
C439 C 0.63327 0.07089 0.93723 0.0
C440 C 0.64352 1.00644 0.94953 0.0
C441 C 0.60706 0.06276 0.96196 0.0
C442 C 0.59898 0.02692 -0.02114 0.0
C443 C 0.60936 0.9626 -0.00688 0.0
C444 C 0.62775 0.93444 -0.0102 0.0
C445 C 0.6171 0.99859 0.97374 0.0
C446 C 0.65394 0.94261 0.96538 0.0
C447 C 0.66178 0.97827 0.94568 0.0
H448 H 0.13561 0.30746 0.19079 0.0
H449 H 0.15043 0.19263 0.21221 0.0
H450 H 0.14732 0.18714 0.03014 0.0
H451 H 0.13994 0.21478 0.86596 0.0
H452 H 0.12518 0.32962 0.8447 0.0
H453 H 0.1284 0.33513 0.02669 0.0
C454 C 0.13835 0.28123 0.15577 0.0
C455 C 0.14334 0.25051 0.215 0.0
C456 C 0.13625 0.2782 0.05146 0.0
C457 C 0.14668 0.21673 0.16832 0.0
C458 C 0.14479 0.21353 0.06431 0.0
C459 C 0.13722 0.241 0.90104 0.0
C460 C 0.13217 0.27172 0.84188 0.0
C461 C 0.1394 0.24404 0.00534 0.0
C462 C 0.12896 0.30553 0.88855 0.0
C463 C 0.13091 0.30873 -0.00749 0.0
H464 H 0.87433 0.23435 0.17515 0.0
H465 H 0.8652 0.35045 0.19301 0.0
H466 H 0.86857 0.35488 0.01108 0.0
H467 H 0.87448 0.32591 0.84787 0.0
H468 H 0.88342 0.20978 0.82971 0.0
H469 H 0.88 0.20533 0.01174 0.0
C470 C 0.87288 0.26064 0.13934 0.0
C471 C 0.86952 0.29205 0.19766 0.0
C472 C 0.87506 0.26301 0.03498 0.0
C473 C 0.86784 0.32587 0.14997 0.0
C474 C 0.86982 0.32843 0.04597 0.0
C475 C 0.87588 0.29961 0.88363 0.0
C476 C 0.87934 0.26823 0.8253 0.0
C477 C 0.87362 0.29721 -0.01207 0.0
C478 C 0.88086 0.23436 0.87289 0.0
C479 C 0.87881 0.23178 0.97688 0.0
H480 H 0.13049 0.80889 0.10353 0.0
H481 H 0.12582 0.69207 0.12132 0.0
H482 H 0.12927 0.6879 0.93923 0.0
H483 H 0.1338 0.71736 0.77604 0.0
H484 H 0.13854 0.83418 0.75851 0.0
H485 H 0.13521 0.83833 0.94053 0.0
C486 C 0.13004 0.78247 0.06772 0.0
C487 C 0.12775 0.75083 0.12594 0.0
C488 C 0.13232 0.78026 0.96342 0.0
C489 C 0.12743 0.71685 0.07824 0.0
C490 C 0.12951 0.71444 0.97421 0.0
C491 C 0.13428 0.74378 0.81189 0.0
C492 C 0.13649 0.77544 0.75367 0.0
C493 C 0.13208 0.74597 0.91625 0.0
C494 C 0.13694 0.8094 0.80148 0.0
C495 C 0.13493 0.81179 0.90551 0.0
H496 H 0.86826 0.8253 0.75669 0.0
H497 H 0.86131 0.70873 0.73564 0.0
H498 H 0.86443 0.70393 0.91761 0.0
H499 H 0.86949 0.7327 0.08177 0.0
H500 H 0.87626 0.8493 0.10334 0.0
H501 H 0.87306 0.85415 0.92127 0.0
C502 C 0.86722 0.79884 0.79188 0.0
C503 C 0.86456 0.76741 0.73273 0.0
C504 C 0.86924 0.79626 0.8963 0.0
C505 C 0.86344 0.73333 0.77945 0.0
C506 C 0.86526 0.73055 0.88344 0.0
C507 C 0.87045 0.7592 0.04676 0.0
C508 C 0.87324 0.79058 0.10599 0.0
C509 C 0.86834 0.76181 0.94242 0.0
C510 C 0.87423 0.8247 0.0594 0.0
C511 C 0.8723 0.82751 0.95538 0.0
H512 H 0.63302 0.70824 0.39537 0.0
H513 H 0.61152 0.82093 0.37358 0.0
H514 H 0.61421 0.82677 0.55565 0.0
H515 H 0.62276 0.79997 0.72001 0.0
H516 H 0.64468 0.68745 0.74154 0.0
H517 H 0.64197 0.6816 0.55958 0.0
C518 C 0.62871 0.73405 0.43035 0.0
C519 C 0.62191 0.76406 0.37108 0.0
C520 C 0.6306 0.73732 0.53465 0.0
C521 C 0.61668 0.79737 0.41758 0.0
C522 C 0.61831 0.80077 0.52157 0.0
C523 C 0.62714 0.77419 0.68501 0.0
C524 C 0.63388 0.74415 0.7443 0.0
C525 C 0.62537 0.77097 0.58066 0.0
C526 C 0.63936 0.71094 0.69768 0.0
C527 C 0.63777 0.70756 0.59369 0.0
H528 H 0.36489 0.72786 0.70479 0.0
H529 H 0.35843 0.84432 0.72235 0.0
H530 H 0.36244 0.84863 0.54072 0.0
H531 H 0.36826 0.8195 0.37771 0.0
H532 H 0.37474 0.70303 0.35954 0.0
H533 H 0.37059 0.69865 0.54137 0.0
C534 C 0.36412 0.7542 0.66894 0.0
C535 C 0.36128 0.78574 0.72724 0.0
C536 C 0.36678 0.75651 0.56464 0.0
C537 C 0.36056 0.81963 0.67945 0.0
C538 C 0.36296 0.82213 0.57557 0.0
C539 C 0.36899 0.79313 0.41341 0.0
C540 C 0.37195 0.76164 0.35505 0.0
C541 C 0.36628 0.79078 0.51762 0.0
C542 C 0.37259 0.72771 0.40267 0.0
C543 C 0.3701 0.72517 0.50657 0.0
H544 H 0.63371 0.30073 0.26116 0.0
H545 H 0.66512 0.19318 0.22878 0.0
H546 H 0.66181 0.18355 0.40899 0.0
H547 H 0.64947 0.20535 0.57563 0.0
H548 H 0.61801 0.31289 0.60794 0.0
H549 H 0.62143 0.32257 0.42782 0.0
C550 C 0.64017 0.27541 0.29379 0.0
C551 C 0.64977 0.24783 0.23194 0.0
C552 C 0.63777 0.26977 0.39721 0.0
C553 C 0.65769 0.2149 0.275 0.0
C554 C 0.65569 0.20927 0.37792 0.0
C555 C 0.64305 0.23069 0.54301 0.0
C556 C 0.63337 0.25823 0.60483 0.0
C557 C 0.64548 0.23635 0.43961 0.0
C558 C 0.62548 0.29118 0.56177 0.0
C559 C 0.62755 0.29685 0.45888 0.0
H560 H 0.38327 0.2253 0.24401 0.0
H561 H 0.36097 0.33737 0.21344 0.0
H562 H 0.36426 0.34554 0.39449 0.0
H563 H 0.37392 0.32106 0.56104 0.0
H564 H 0.39624 0.209 0.59144 0.0
H565 H 0.39286 0.20081 0.41045 0.0
C566 C 0.37886 0.25141 0.27703 0.0
C567 C 0.37179 0.28062 0.21553 0.0
C568 C 0.38116 0.25608 0.38089 0.0
C569 C 0.36642 0.31441 0.25929 0.0
C570 C 0.3684 0.31917 0.36272 0.0
C571 C 0.37833 0.29497 0.52794 0.0
C572 C 0.38545 0.26576 0.58938 0.0
C573 C 0.37599 0.29028 0.42409 0.0
C574 C 0.39076 0.23196 0.54561 0.0
C575 C 0.38873 0.22719 0.44223 0.0
H576 H 0.05005 0.30671 0.4735 0.0
H577 H 0.05265 0.19079 0.51531 0.0
H578 H 0.00459 0.18752 0.50803 0.0
H579 H 0.9617 0.21834 0.49803 0.0
H580 H 0.96026 0.33459 0.45969 0.0
H581 H 0.00799 0.33681 0.45703 0.0
C582 C 0.04019 0.28063 0.48068 0.0
C583 C 0.05496 0.24909 0.49561 0.0
C584 C 0.0127 0.279 0.47729 0.0
C585 C 0.04177 0.21554 0.50404 0.0
C586 C 0.01428 0.21365 0.50003 0.0
C587 C 0.97186 0.24408 0.48824 0.0
C588 C 0.95737 0.27626 0.47969 0.0
C589 C 0.99951 0.24531 0.48785 0.0
C590 C 0.97085 0.30942 0.4672 0.0
C591 C 0.99819 0.31076 0.46563 0.0
H592 H 0.95732 0.72505 0.45531 0.0
H593 H 0.95311 0.84189 0.44789 0.0
H594 H 1.00091 0.8464 0.45763 0.0
H595 H 0.04392 0.81715 0.46127 0.0
H596 H 0.04798 0.70027 0.46939 0.0
H597 H 1.00019 0.69591 0.46698 0.0
C598 C 0.96685 0.7515 0.45599 0.0
C599 C 0.95172 0.78303 0.44998 0.0
C600 C 0.99431 0.75394 0.46168 0.0
C601 C 0.96434 0.81714 0.45206 0.0
C602 C 0.99167 0.81978 0.45754 0.0
C603 C 0.03435 0.79074 0.46307 0.0
C604 C 0.04949 0.75913 0.46475 0.0
C605 C 0.00685 0.78835 0.46135 0.0
C606 C 0.03679 0.72508 0.46767 0.0
C607 C 0.00945 0.72251 0.46613 0.0
H608 H 0.54101 0.79523 -0.01721 0.0
H609 H 0.54331 0.68161 0.05872 0.0
H610 H 0.49519 0.67829 0.0509 0.0
H611 H 0.45245 0.70924 0.03398 0.0
H612 H 0.45158 0.82338 0.96224 0.0
H613 H 0.49929 0.8248 0.95657 0.0
C614 C 0.53108 0.76962 -0.00265 0.0
C615 C 0.54568 0.73883 0.02258 0.0
C616 C 0.50366 0.76805 -0.00626 0.0
C617 C 0.53247 0.70578 0.03975 0.0
C618 C 0.50499 0.7039 0.03544 0.0
C619 C 0.46274 0.73424 0.01589 0.0
C620 C 0.44851 0.76621 -0.00056 0.0
C621 C 0.49035 0.73506 0.01415 0.0
C622 C 0.46207 0.79848 0.97632 0.0
C623 C 0.48936 0.79936 0.97296 0.0
H624 H 0.46631 0.21336 0.94943 0.0
H625 H 0.46331 0.33034 0.94354 0.0
H626 H 0.51101 0.33397 0.9544 0.0
H627 H 0.55368 0.30423 0.95623 0.0
H628 H 0.55713 0.18738 0.95994 0.0
H629 H 0.50925 0.18352 0.95998 0.0
C630 C 0.47609 0.23964 0.9511 0.0
C631 C 0.46122 0.27147 0.94476 0.0
C632 C 0.50365 0.24163 0.95663 0.0
C633 C 0.47423 0.30533 0.94756 0.0
C634 C 0.50155 0.3075 0.95381 0.0
C635 C 0.544 0.27789 0.95782 0.0
C636 C 0.55903 0.24615 0.95696 0.0
C637 C 0.51647 0.27584 0.95695 0.0
C638 C 0.54609 0.21227 0.95953 0.0
C639 C 0.51867 0.21001 0.95957 0.0
loop_
_geom_bond_atom_site_label_1
_geom_bond_atom_site_label_2
_geom_bond_distance
_geom_bond_site_symmetry_2
_ccdc_geom_bond_type
Zn0 O1 2.055 . S
Zn0 O8 2.046 . S
Zn0 N16 2.036 . S
Zn0 O28 2.053 . S
Zn0 O30 2.066 . S
O1 Zn0 2.055 . S
O1 C4 1.259 . S
C2 O30 1.256 . S
C2 O31 1.244 . S
Zn3 O5 2.046 . S
Zn3 O7 2.055 . S
Zn3 N9 2.036 . S
Zn3 O27 2.066 . S
Zn3 O31 2.053 . S
C4 O1 1.259 . S
C4 O5 1.254 . S
O5 Zn3 2.046 . S
O5 C4 1.254 . S
C6 O27 1.256 . S
C6 O28 1.244 . S
O7 Zn3 2.055 . S
O7 C29 1.259 . S
O8 Zn0 2.046 . S
O8 C29 1.254 . S
N9 Zn3 2.036 . S
N9 C10 1.298 . S
N9 N12 1.398 . S
C10 N9 1.298 . S
C10 N13 1.367 . S
C10 C23 1.481 . S
C11 N12 1.299 . S
C11 N13 1.379 . S
N12 N9 1.398 . S
N12 C11 1.299 . S
N13 C10 1.367 . S
N13 C11 1.379 . S
C14 N16 1.298 . S
C14 N18 1.367 . S
C14 C22 1.481 . S
C15 N17 1.299 . S
C15 N18 1.379 . S
N16 Zn0 2.036 . S
N16 C14 1.298 . S
N16 N17 1.398 . S
N17 C15 1.299 . S
N17 N16 1.398 . S
N18 C14 1.367 . S
N18 C15 1.379 . S
H19 C22 0.980 . S
H20 C22 0.981 . S
H21 C22 0.981 . S
C22 C14 1.481 . S
C22 H19 0.980 . S
C22 H20 0.981 . S
C22 H21 0.981 . S
C23 C10 1.481 . S
C23 H24 0.980 . S
C23 H25 0.981 . S
C23 H26 0.981 . S
H24 C23 0.980 . S
H25 C23 0.981 . S
H26 C23 0.981 . S
O27 Zn3 2.066 . S
O27 C6 1.256 . S
O28 Zn0 2.053 . S
O28 C6 1.244 . S
C29 O7 1.259 . S
C29 O8 1.254 . S
O30 Zn0 2.066 . S
O30 C2 1.256 . S
O31 C2 1.244 . S
O31 Zn3 2.053 . S
Zn32 O33 2.055 . S
Zn32 O40 2.046 . S
Zn32 N48 2.036 . S
Zn32 O60 2.053 . S
Zn32 O62 2.066 . S
O33 Zn32 2.055 . S
O33 C36 1.259 . S
C34 O62 1.256 . S
C34 O63 1.244 . S
Zn35 O37 2.046 . S
Zn35 O39 2.055 . S
Zn35 N41 2.036 . S
Zn35 O59 2.066 . S
Zn35 O63 2.053 . S
C36 O33 1.259 . S
C36 O37 1.254 . S
O37 Zn35 2.046 . S
O37 C36 1.254 . S
C38 O59 1.256 . S
C38 O60 1.244 . S
O39 Zn35 2.055 . S
O39 C61 1.259 . S
O40 Zn32 2.046 . S
O40 C61 1.254 . S
N41 Zn35 2.036 . S
N41 C42 1.298 . S
N41 N44 1.398 . S
C42 N41 1.298 . S
C42 N45 1.367 . S
C42 C55 1.481 . S
C43 N44 1.299 . S
C43 N45 1.379 . S
N44 N41 1.398 . S
N44 C43 1.299 . S
N45 C42 1.367 . S
N45 C43 1.379 . S
C46 N48 1.298 . S
C46 N50 1.367 . S
C46 C54 1.481 . S
C47 N49 1.299 . S
C47 N50 1.379 . S
N48 Zn32 2.036 . S
N48 C46 1.298 . S
N48 N49 1.398 . S
N49 C47 1.299 . S
N49 N48 1.398 . S
N50 C46 1.367 . S
N50 C47 1.379 . S
H51 C54 0.980 . S
H52 C54 0.981 . S
H53 C54 0.981 . S
C54 C46 1.481 . S
C54 H51 0.980 . S
C54 H52 0.981 . S
C54 H53 0.981 . S
C55 C42 1.481 . S
C55 H56 0.980 . S
C55 H57 0.981 . S
C55 H58 0.981 . S
H56 C55 0.980 . S
H57 C55 0.981 . S
H58 C55 0.981 . S
O59 Zn35 2.066 . S
O59 C38 1.256 . S
O60 Zn32 2.053 . S
O60 C38 1.244 . S
C61 O39 1.259 . S
C61 O40 1.254 . S
O62 Zn32 2.066 . S
O62 C34 1.256 . S
O63 C34 1.244 . S
O63 Zn35 2.053 . S
Zn64 O65 2.055 . S
Zn64 O72 2.046 . S
Zn64 N80 2.036 . S
Zn64 O92 2.053 . S
Zn64 O94 2.066 . S
O65 Zn64 2.055 . S
O65 C68 1.259 . S
C66 O94 1.256 . S
C66 O95 1.244 . S
Zn67 O69 2.046 . S
Zn67 O71 2.055 . S
Zn67 N73 2.036 . S
Zn67 O91 2.066 . S
Zn67 O95 2.053 . S
C68 O65 1.259 . S
C68 O69 1.254 . S
O69 Zn67 2.046 . S
O69 C68 1.254 . S
C70 O91 1.256 . S
C70 O92 1.244 . S
O71 Zn67 2.055 . S
O71 C93 1.259 . S
O72 Zn64 2.046 . S
O72 C93 1.254 . S
N73 Zn67 2.036 . S
N73 C74 1.298 . S
N73 N76 1.398 . S
C74 N73 1.298 . S
C74 N77 1.367 . S
C74 C87 1.481 . S
C75 N76 1.299 . S
C75 N77 1.379 . S
N76 N73 1.398 . S
N76 C75 1.299 . S
N77 C74 1.367 . S
N77 C75 1.379 . S
C78 N80 1.298 . S
C78 N82 1.367 . S
C78 C86 1.481 . S
C79 N81 1.299 . S
C79 N82 1.379 . S
N80 Zn64 2.036 . S
N80 C78 1.298 . S
N80 N81 1.398 . S
N81 C79 1.299 . S
N81 N80 1.398 . S
N82 C78 1.367 . S
N82 C79 1.379 . S
H83 C86 0.980 . S
H84 C86 0.981 . S
H85 C86 0.981 . S
C86 C78 1.481 . S
C86 H83 0.980 . S
C86 H84 0.981 . S
C86 H85 0.981 . S
C87 C74 1.481 . S
C87 H88 0.980 . S
C87 H89 0.981 . S
C87 H90 0.981 . S
H88 C87 0.980 . S
H89 C87 0.981 . S
H90 C87 0.981 . S
O91 Zn67 2.066 . S
O91 C70 1.256 . S
O92 Zn64 2.053 . S
O92 C70 1.244 . S
C93 O71 1.259 . S
C93 O72 1.254 . S
O94 Zn64 2.066 . S
O94 C66 1.256 . S
O95 C66 1.244 . S
O95 Zn67 2.053 . S
Zn96 O97 2.055 . S
Zn96 O104 2.046 . S
Zn96 N112 2.036 . S
Zn96 O124 2.053 . S
Zn96 O126 2.066 . S
O97 Zn96 2.055 . S
O97 C100 1.259 . S
C98 O126 1.256 . S
C98 O127 1.244 . S
Zn99 O101 2.046 . S
Zn99 O103 2.055 . S
Zn99 N105 2.036 . S
Zn99 O123 2.066 . S
Zn99 O127 2.053 . S
C100 O97 1.259 . S
C100 O101 1.254 . S
O101 Zn99 2.046 . S
O101 C100 1.254 . S
C102 O123 1.256 . S
C102 O124 1.244 . S
O103 Zn99 2.055 . S
O103 C125 1.259 . S
O104 Zn96 2.046 . S
O104 C125 1.254 . S
N105 Zn99 2.036 . S
N105 C106 1.298 . S
N105 N108 1.398 . S
C106 N105 1.298 . S
C106 N109 1.367 . S
C106 C119 1.481 . S
C107 N108 1.299 . S
C107 N109 1.379 . S
N108 N105 1.398 . S
N108 C107 1.299 . S
N109 C106 1.367 . S
N109 C107 1.379 . S
C110 N112 1.298 . S
C110 N114 1.367 . S
C110 C118 1.481 . S
C111 N113 1.299 . S
C111 N114 1.379 . S
N112 Zn96 2.036 . S
N112 C110 1.298 . S
N112 N113 1.398 . S
N113 C111 1.299 . S
N113 N112 1.398 . S
N114 C110 1.367 . S
N114 C111 1.379 . S
H115 C118 0.980 . S
H116 C118 0.981 . S
H117 C118 0.981 . S
C118 C110 1.481 . S
C118 H115 0.980 . S
C118 H116 0.981 . S
C118 H117 0.981 . S
C119 C106 1.481 . S
C119 H120 0.980 . S
C119 H121 0.981 . S
C119 H122 0.981 . S
H120 C119 0.980 . S
H121 C119 0.981 . S
H122 C119 0.981 . S
O123 Zn99 2.066 . S
O123 C102 1.256 . S
O124 Zn96 2.053 . S
O124 C102 1.244 . S
C125 O103 1.259 . S
C125 O104 1.254 . S
O126 Zn96 2.066 . S
O126 C98 1.256 . S
O127 C98 1.244 . S
O127 Zn99 2.053 . S
Zn128 O129 2.055 . S
Zn128 O136 2.046 . S
Zn128 N144 2.036 . S
Zn128 O156 2.053 1_554 S
Zn128 O158 2.066 . S
O129 Zn128 2.055 . S
O129 C132 1.259 . S
C130 O158 1.256 . S
C130 O159 1.244 . S
Zn131 O133 2.046 . S
Zn131 O135 2.055 . S
Zn131 N137 2.036 . S
Zn131 O155 2.066 1_554 S
Zn131 O159 2.053 . S
C132 O129 1.259 . S
C132 O133 1.254 . S
O133 Zn131 2.046 . S
O133 C132 1.254 . S
C134 O155 1.256 . S
C134 O156 1.244 . S
O135 Zn131 2.055 . S
O135 C157 1.259 . S
O136 Zn128 2.046 . S
O136 C157 1.254 . S
N137 Zn131 2.036 . S
N137 C138 1.298 . S
N137 N140 1.398 . S
C138 N137 1.298 . S
C138 N141 1.367 . S
C138 C151 1.481 1_554 S
C139 N140 1.299 . S
C139 N141 1.379 . S
N140 N137 1.398 . S
N140 C139 1.299 . S
N141 C138 1.367 . S
N141 C139 1.379 . S
C142 N144 1.298 . S
C142 N146 1.367 . S
C142 C150 1.481 . S
C143 N145 1.299 . S
C143 N146 1.379 1_556 S
N144 Zn128 2.036 . S
N144 C142 1.298 . S
N144 N145 1.398 1_554 S
N145 C143 1.299 . S
N145 N144 1.398 1_556 S
N146 C142 1.367 . S
N146 C143 1.379 1_554 S
H147 C150 0.980 . S
H148 C150 0.981 . S
H149 C150 0.981 . S
C150 C142 1.481 . S
C150 H147 0.980 . S
C150 H148 0.981 . S
C150 H149 0.981 . S
C151 C138 1.481 1_556 S
C151 H152 0.980 1_556 S
C151 H153 0.981 . S
C151 H154 0.981 . S
H152 C151 0.980 1_554 S
H153 C151 0.981 . S
H154 C151 0.981 . S
O155 Zn131 2.066 1_556 S
O155 C134 1.256 . S
O156 Zn128 2.053 1_556 S
O156 C134 1.244 . S
C157 O135 1.259 . S
C157 O136 1.254 . S
O158 Zn128 2.066 . S
O158 C130 1.256 . S
O159 C130 1.244 . S
O159 Zn131 2.053 . S
Zn160 O161 2.055 . S
Zn160 O168 2.046 . S
Zn160 N176 2.036 . S
Zn160 O188 2.053 1_554 S
Zn160 O190 2.066 . S
O161 Zn160 2.055 . S
O161 C164 1.259 . S
C162 O190 1.256 . S
C162 O191 1.244 . S
Zn163 O165 2.046 . S
Zn163 O167 2.055 . S
Zn163 N169 2.036 . S
Zn163 O187 2.066 1_554 S
Zn163 O191 2.053 . S
C164 O161 1.259 . S
C164 O165 1.254 . S
O165 Zn163 2.046 . S
O165 C164 1.254 . S
C166 O187 1.256 . S
C166 O188 1.244 . S
O167 Zn163 2.055 . S
O167 C189 1.259 . S
O168 Zn160 2.046 . S
O168 C189 1.254 . S
N169 Zn163 2.036 . S
N169 C170 1.298 . S
N169 N172 1.398 . S
C170 N169 1.298 . S
C170 N173 1.367 . S
C170 C183 1.481 1_554 S
C171 N172 1.299 . S
C171 N173 1.379 . S
N172 N169 1.398 . S
N172 C171 1.299 . S
N173 C170 1.367 . S
N173 C171 1.379 . S
C174 N176 1.298 . S
C174 N178 1.367 . S
C174 C182 1.481 . S
C175 N177 1.299 . S
C175 N178 1.379 1_556 S
N176 Zn160 2.036 . S
N176 C174 1.298 . S
N176 N177 1.398 1_554 S
N177 C175 1.299 . S
N177 N176 1.398 1_556 S
N178 C174 1.367 . S
N178 C175 1.379 1_554 S
H179 C182 0.980 . S
H180 C182 0.981 . S
H181 C182 0.981 . S
C182 C174 1.481 . S
C182 H179 0.980 . S
C182 H180 0.981 . S
C182 H181 0.981 . S
C183 C170 1.481 1_556 S
C183 H184 0.980 1_556 S
C183 H185 0.981 . S
C183 H186 0.981 . S
H184 C183 0.980 1_554 S
H185 C183 0.981 . S
H186 C183 0.981 . S
O187 Zn163 2.066 1_556 S
O187 C166 1.256 . S
O188 Zn160 2.053 1_556 S
O188 C166 1.244 . S
C189 O167 1.259 . S
C189 O168 1.254 . S
O190 Zn160 2.066 . S
O190 C162 1.256 . S
O191 C162 1.244 . S
O191 Zn163 2.053 . S
Zn192 O193 2.055 . S
Zn192 O200 2.046 . S
Zn192 N208 2.036 . S
Zn192 O220 2.053 . S
Zn192 O222 2.066 1_556 S
O193 Zn192 2.055 . S
O193 C196 1.259 . S
C194 O222 1.256 . S
C194 O223 1.244 . S
Zn195 O197 2.046 . S
Zn195 O199 2.055 . S
Zn195 N201 2.036 . S
Zn195 O219 2.066 . S
Zn195 O223 2.053 1_556 S
C196 O193 1.259 . S
C196 O197 1.254 . S
O197 Zn195 2.046 . S
O197 C196 1.254 . S
C198 O219 1.256 . S
C198 O220 1.244 . S
O199 Zn195 2.055 . S
O199 C221 1.259 . S
O200 Zn192 2.046 . S
O200 C221 1.254 . S
N201 Zn195 2.036 . S
N201 C202 1.298 . S
N201 N204 1.398 1_556 S
C202 N201 1.298 . S
C202 N205 1.367 . S
C202 C215 1.481 . S
C203 N204 1.299 . S
C203 N205 1.379 1_554 S
N204 N201 1.398 1_554 S
N204 C203 1.299 . S
N205 C202 1.367 . S
N205 C203 1.379 1_556 S
C206 N208 1.298 . S
C206 N210 1.367 . S
C206 C214 1.481 1_556 S
C207 N209 1.299 . S
C207 N210 1.379 . S
N208 Zn192 2.036 . S
N208 C206 1.298 . S
N208 N209 1.398 . S
N209 C207 1.299 . S
N209 N208 1.398 . S
N210 C206 1.367 . S
N210 C207 1.379 . S
H211 C214 0.980 1_556 S
H212 C214 0.981 . S
H213 C214 0.981 . S
C214 C206 1.481 1_554 S
C214 H211 0.980 1_554 S
C214 H212 0.981 . S
C214 H213 0.981 . S
C215 C202 1.481 . S
C215 H216 0.980 . S
C215 H217 0.981 . S
C215 H218 0.981 . S
H216 C215 0.980 . S
H217 C215 0.981 . S
H218 C215 0.981 . S
O219 Zn195 2.066 . S
O219 C198 1.256 . S
O220 Zn192 2.053 . S
O220 C198 1.244 . S
C221 O199 1.259 . S
C221 O200 1.254 . S
O222 Zn192 2.066 1_554 S
O222 C194 1.256 . S
O223 C194 1.244 . S
O223 Zn195 2.053 1_554 S
Zn224 O225 2.055 . S
Zn224 O232 2.046 . S
Zn224 N240 2.036 . S
Zn224 O252 2.053 . S
Zn224 O254 2.066 1_556 S
O225 Zn224 2.055 . S
O225 C228 1.259 . S
C226 O254 1.256 . S
C226 O255 1.244 . S
Zn227 O229 2.046 . S
Zn227 O231 2.055 . S
Zn227 N233 2.036 . S
Zn227 O251 2.066 . S
Zn227 O255 2.053 1_556 S
C228 O225 1.259 . S
C228 O229 1.254 . S
O229 Zn227 2.046 . S
O229 C228 1.254 . S
C230 O251 1.256 . S
C230 O252 1.244 . S
O231 Zn227 2.055 . S
O231 C253 1.259 . S
O232 Zn224 2.046 . S
O232 C253 1.254 . S
N233 Zn227 2.036 . S
N233 C234 1.298 . S
N233 N236 1.398 1_556 S
C234 N233 1.298 . S
C234 N237 1.367 . S
C234 C247 1.481 . S
C235 N236 1.299 . S
C235 N237 1.379 1_554 S
N236 N233 1.398 1_554 S
N236 C235 1.299 . S
N237 C234 1.367 . S
N237 C235 1.379 1_556 S
C238 N240 1.298 . S
C238 N242 1.367 . S
C238 C246 1.481 1_556 S
C239 N241 1.299 . S
C239 N242 1.379 . S
N240 Zn224 2.036 . S
N240 C238 1.298 . S
N240 N241 1.398 . S
N241 C239 1.299 . S
N241 N240 1.398 . S
N242 C238 1.367 . S
N242 C239 1.379 . S
H243 C246 0.980 1_556 S
H244 C246 0.981 . S
H245 C246 0.981 . S
C246 C238 1.481 1_554 S
C246 H243 0.980 1_554 S
C246 H244 0.981 . S
C246 H245 0.981 . S
C247 C234 1.481 . S
C247 H248 0.980 . S
C247 H249 0.981 . S
C247 H250 0.981 . S
H248 C247 0.980 . S
H249 C247 0.981 . S
H250 C247 0.981 . S
O251 Zn227 2.066 . S
O251 C230 1.256 . S
O252 Zn224 2.053 . S
O252 C230 1.244 . S
C253 O231 1.259 . S
C253 O232 1.254 . S
O254 Zn224 2.066 1_554 S
O254 C226 1.256 . S
O255 C226 1.244 . S
O255 Zn227 2.053 1_554 S
H256 C262 0.930 . S
H257 C265 0.930 . S
H258 C266 0.930 . S
H259 C267 0.930 . S
H260 C270 0.930 . S
H261 C271 0.930 . S
C262 H256 0.930 . S
C262 C263 1.355 . S
C262 C264 1.415 . S
C263 C262 1.355 . S
C263 C265 1.419 . S
C264 C262 1.415 . S
C264 C269 1.425 . S
C264 C271 1.409 . S
C265 H257 0.930 . S
C265 C263 1.419 . S
C265 C266 1.362 . S
C266 H258 0.930 . S
C266 C265 1.362 . S
C266 C269 1.409 . S
C267 H259 0.930 . S
C267 C268 1.355 . S
C267 C269 1.415 . S
C268 C267 1.355 . S
C268 C270 1.419 . S
C269 C264 1.425 . S
C269 C266 1.409 . S
C269 C267 1.415 . S
C270 H260 0.930 . S
C270 C268 1.419 . S
C270 C271 1.362 . S
C271 H261 0.930 . S
C271 C264 1.409 . S
C271 C270 1.362 . S
H272 C278 0.930 . S
H273 C281 0.930 . S
H274 C282 0.930 . S
H275 C283 0.930 . S
H276 C286 0.930 . S
H277 C287 0.930 . S
C278 H272 0.930 . S
C278 C279 1.355 . S
C278 C280 1.415 . S
C279 C278 1.355 . S
C279 C281 1.419 . S
C280 C278 1.415 . S
C280 C285 1.425 . S
C280 C287 1.409 . S
C281 H273 0.930 . S
C281 C279 1.419 . S
C281 C282 1.362 . S
C282 H274 0.930 . S
C282 C281 1.362 . S
C282 C285 1.409 . S
C283 H275 0.930 . S
C283 C284 1.355 . S
C283 C285 1.415 . S
C284 C283 1.355 . S
C284 C286 1.419 . S
C285 C280 1.425 . S
C285 C282 1.409 . S
C285 C283 1.415 . S
C286 H276 0.930 . S
C286 C284 1.419 . S
C286 C287 1.362 . S
C287 H277 0.930 . S
C287 C280 1.409 . S
C287 C286 1.362 . S
H288 C294 0.930 . S
H289 C297 0.930 . S
H290 C298 0.930 . S
H291 C299 0.930 . S
H292 C302 0.930 . S
H293 C303 0.930 . S
C294 H288 0.930 . S
C294 C295 1.355 . S
C294 C296 1.415 . S
C295 C294 1.355 . S
C295 C297 1.419 . S
C296 C294 1.415 . S
C296 C301 1.425 . S
C296 C303 1.409 . S
C297 H289 0.930 . S
C297 C295 1.419 . S
C297 C298 1.362 . S
C298 H290 0.930 . S
C298 C297 1.362 . S
C298 C301 1.409 . S
C299 H291 0.930 . S
C299 C300 1.355 . S
C299 C301 1.415 . S
C300 C299 1.355 . S
C300 C302 1.419 . S
C301 C296 1.425 . S
C301 C298 1.409 . S
C301 C299 1.415 . S
C302 H292 0.930 . S
C302 C300 1.419 . S
C302 C303 1.362 . S
C303 H293 0.930 . S
C303 C296 1.409 . S
C303 C302 1.362 . S
H304 C310 0.930 . S
H305 C313 0.930 . S
H306 C314 0.930 . S
H307 C315 0.930 . S
H308 C318 0.930 . S
H309 C319 0.930 . S
C310 H304 0.930 . S
C310 C311 1.355 . S
C310 C312 1.415 . S
C311 C310 1.355 . S
C311 C313 1.419 . S
C312 C310 1.415 . S
C312 C317 1.425 . S
C312 C319 1.409 . S
C313 H305 0.930 . S
C313 C311 1.419 . S
C313 C314 1.362 . S
C314 H306 0.930 . S
C314 C313 1.362 . S
C314 C317 1.409 . S
C315 H307 0.930 . S
C315 C316 1.355 . S
C315 C317 1.415 . S
C316 C315 1.355 . S
C316 C318 1.419 . S
C317 C312 1.425 . S
C317 C314 1.409 . S
C317 C315 1.415 . S
C318 H308 0.930 . S
C318 C316 1.419 . S
C318 C319 1.362 . S
C319 H309 0.930 . S
C319 C312 1.409 . S
C319 C318 1.362 . S
H320 C326 0.930 . S
H321 C329 0.930 . S
H322 C330 0.930 . S
H323 C331 0.930 . S
H324 C334 0.930 . S
H325 C335 0.930 . S
C326 H320 0.930 . S
C326 C327 1.355 . S
C326 C328 1.415 . S
C327 C326 1.355 . S
C327 C329 1.419 . S
C328 C326 1.415 . S
C328 C333 1.425 1_565 S
C328 C335 1.409 1_565 S
C329 H321 0.930 . S
C329 C327 1.419 . S
C329 C330 1.362 . S
C330 H322 0.930 . S
C330 C329 1.362 . S
C330 C333 1.409 1_565 S
C331 H323 0.930 . S
C331 C332 1.355 . S
C331 C333 1.415 . S
C332 C331 1.355 . S
C332 C334 1.419 . S
C333 C328 1.425 1_545 S
C333 C330 1.409 1_545 S
C333 C331 1.415 . S
C334 H324 0.930 . S
C334 C332 1.419 . S
C334 C335 1.362 . S
C335 H325 0.930 . S
C335 C328 1.409 1_545 S
C335 C334 1.362 . S
H336 C342 0.930 . S
H337 C345 0.930 . S
H338 C346 0.930 . S
H339 C347 0.930 . S
H340 C350 0.930 . S
H341 C351 0.930 . S
C342 H336 0.930 . S
C342 C343 1.355 . S
C342 C344 1.415 . S
C343 C342 1.355 . S
C343 C345 1.419 . S
C344 C342 1.415 . S
C344 C349 1.425 . S
C344 C351 1.409 . S
C345 H337 0.930 . S
C345 C343 1.419 . S
C345 C346 1.362 . S
C346 H338 0.930 . S
C346 C345 1.362 . S
C346 C349 1.409 . S
C347 H339 0.930 . S
C347 C348 1.355 . S
C347 C349 1.415 . S
C348 C347 1.355 . S
C348 C350 1.419 . S
C349 C344 1.425 . S
C349 C346 1.409 . S
C349 C347 1.415 . S
C350 H340 0.930 . S
C350 C348 1.419 . S
C350 C351 1.362 . S
C351 H341 0.930 . S
C351 C344 1.409 . S
C351 C350 1.362 . S
H352 C358 0.930 . S
H353 C361 0.930 . S
H354 C362 0.930 . S
H355 C363 0.930 . S
H356 C366 0.930 . S
H357 C367 0.930 . S
C358 H352 0.930 . S
C358 C359 1.355 . S
C358 C360 1.415 . S
C359 C358 1.355 . S
C359 C361 1.419 . S
C360 C358 1.415 . S
C360 C365 1.425 1_565 S
C360 C367 1.409 1_565 S
C361 H353 0.930 . S
C361 C359 1.419 . S
C361 C362 1.362 . S
C362 H354 0.930 . S
C362 C361 1.362 . S
C362 C365 1.409 1_565 S
C363 H355 0.930 . S
C363 C364 1.355 . S
C363 C365 1.415 . S
C364 C363 1.355 . S
C364 C366 1.419 . S
C365 C360 1.425 1_545 S
C365 C362 1.409 1_545 S
C365 C363 1.415 . S
C366 H356 0.930 . S
C366 C364 1.419 . S
C366 C367 1.362 . S
C367 H357 0.930 . S
C367 C360 1.409 1_545 S
C367 C366 1.362 . S
H368 C374 0.930 . S
H369 C377 0.930 . S
H370 C378 0.930 . S
H371 C379 0.930 . S
H372 C382 0.930 . S
H373 C383 0.930 . S
C374 H368 0.930 . S
C374 C375 1.355 . S
C374 C376 1.415 . S
C375 C374 1.355 . S
C375 C377 1.419 . S
C376 C374 1.415 . S
C376 C381 1.425 . S
C376 C383 1.409 . S
C377 H369 0.930 . S
C377 C375 1.419 . S
C377 C378 1.362 . S
C378 H370 0.930 . S
C378 C377 1.362 . S
C378 C381 1.409 . S
C379 H371 0.930 . S
C379 C380 1.355 . S
C379 C381 1.415 . S
C380 C379 1.355 . S
C380 C382 1.419 . S
C381 C376 1.425 . S
C381 C378 1.409 . S
C381 C379 1.415 . S
C382 H372 0.930 . S
C382 C380 1.419 . S
C382 C383 1.362 . S
C383 H373 0.930 . S
C383 C376 1.409 . S
C383 C382 1.362 . S
H384 C390 0.930 . S
H385 C393 0.930 . S
H386 C394 0.930 . S
H387 C395 0.930 . S
H388 C398 0.930 . S
H389 C399 0.930 . S
C390 H384 0.930 . S
C390 C391 1.357 . S
C390 C392 1.415 . S
C391 C390 1.357 . S
C391 C393 1.416 1_554 S
C392 C390 1.415 . S
C392 C397 1.425 1_554 S
C392 C399 1.409 . S
C393 H385 0.930 . S
C393 C391 1.416 1_556 S
C393 C394 1.362 . S
C394 H386 0.930 . S
C394 C393 1.362 . S
C394 C397 1.409 . S
C395 H387 0.930 . S
C395 C396 1.357 . S
C395 C397 1.415 . S
C396 C395 1.357 . S
C396 C398 1.416 1_556 S
C397 C392 1.425 1_556 S
C397 C394 1.409 . S
C397 C395 1.415 . S
C398 H388 0.930 . S
C398 C396 1.416 1_554 S
C398 C399 1.362 . S
C399 H389 0.930 . S
C399 C392 1.409 . S
C399 C398 1.362 . S
H400 C406 0.930 . S
H401 C409 0.930 . S
H402 C410 0.930 . S
H403 C411 0.930 . S
H404 C414 0.930 . S
H405 C415 0.930 . S
C406 H400 0.930 . S
C406 C407 1.355 . S
C406 C408 1.415 . S
C407 C406 1.355 . S
C407 C409 1.419 1_554 S
C408 C406 1.415 . S
C408 C413 1.425 1_564 S
C408 C415 1.409 1_565 S
C409 H401 0.930 . S
C409 C407 1.419 1_556 S
C409 C410 1.362 . S
C410 H402 0.930 . S
C410 C409 1.362 . S
C410 C413 1.409 1_565 S
C411 H403 0.930 . S
C411 C412 1.355 . S
C411 C413 1.415 . S
C412 C411 1.355 . S
C412 C414 1.419 1_556 S
C413 C408 1.425 1_546 S
C413 C410 1.409 1_545 S
C413 C411 1.415 . S
C414 H404 0.930 . S
C414 C412 1.419 1_554 S
C414 C415 1.362 . S
C415 H405 0.930 . S
C415 C408 1.409 1_545 S
C415 C414 1.362 . S
H416 C422 0.930 . S
H417 C425 0.930 . S
H418 C426 0.930 . S
H419 C427 0.930 . S
H420 C430 0.930 . S
H421 C431 0.930 . S
C422 H416 0.930 . S
C422 C423 1.355 1_554 S
C422 C424 1.415 . S
C423 C422 1.355 1_556 S
C423 C425 1.419 . S
C424 C422 1.415 . S
C424 C429 1.425 1_554 S
C424 C431 1.409 . S
C425 H417 0.930 . S
C425 C423 1.419 . S
C425 C426 1.362 . S
C426 H418 0.930 . S
C426 C425 1.362 . S
C426 C429 1.409 . S
C427 H419 0.930 . S
C427 C428 1.355 1_556 S
C427 C429 1.415 . S
C428 C427 1.355 1_554 S
C428 C430 1.419 . S
C429 C424 1.425 1_556 S
C429 C426 1.409 . S
C429 C427 1.415 . S
C430 H420 0.930 . S
C430 C428 1.419 . S
C430 C431 1.362 . S
C431 H421 0.930 . S
C431 C424 1.409 . S
C431 C430 1.362 . S
H432 C438 0.930 . S
H433 C441 0.930 . S
H434 C442 0.930 . S
H435 C443 0.930 . S
H436 C446 0.930 . S
H437 C447 0.930 . S
C438 H432 0.930 . S
C438 C439 1.355 . S
C438 C440 1.413 1_556 S
C439 C438 1.355 . S
C439 C441 1.419 . S
C440 C438 1.413 1_554 S
C440 C445 1.425 1_544 S
C440 C447 1.411 1_545 S
C441 H433 0.930 . S
C441 C439 1.419 . S
C441 C442 1.362 . S
C442 H434 0.930 . S
C442 C441 1.362 . S
C442 C445 1.411 1_545 S
C443 H435 0.930 . S
C443 C444 1.355 . S
C443 C445 1.413 1_554 S
C444 C443 1.355 . S
C444 C446 1.419 . S
C445 C440 1.425 1_566 S
C445 C442 1.411 1_565 S
C445 C443 1.413 1_556 S
C446 H436 0.930 . S
C446 C444 1.419 . S
C446 C447 1.362 . S
C447 H437 0.930 . S
C447 C440 1.411 1_565 S
C447 C446 1.362 . S
H448 C454 0.930 . S
H449 C457 0.930 . S
H450 C458 0.930 . S
H451 C459 0.930 . S
H452 C462 0.930 . S
H453 C463 0.930 . S
C454 H448 0.930 . S
C454 C455 1.355 . S
C454 C456 1.415 . S
C455 C454 1.355 . S
C455 C457 1.419 . S
C456 C454 1.415 . S
C456 C461 1.425 . S
C456 C463 1.409 . S
C457 H449 0.930 . S
C457 C455 1.419 . S
C457 C458 1.362 . S
C458 H450 0.930 . S
C458 C457 1.362 . S
C458 C461 1.409 . S
C459 H451 0.930 . S
C459 C460 1.355 . S
C459 C461 1.415 1_556 S
C460 C459 1.355 . S
C460 C462 1.419 . S
C461 C456 1.425 . S
C461 C458 1.409 . S
C461 C459 1.415 1_554 S
C462 H452 0.930 . S
C462 C460 1.419 . S
C462 C463 1.362 1_556 S
C463 H453 0.930 . S
C463 C456 1.409 . S
C463 C462 1.362 1_554 S
H464 C470 0.930 . S
H465 C473 0.930 . S
H466 C474 0.930 . S
H467 C475 0.930 . S
H468 C478 0.930 . S
H469 C479 0.930 . S
C470 H464 0.930 . S
C470 C471 1.355 . S
C470 C472 1.415 . S
C471 C470 1.355 . S
C471 C473 1.419 . S
C472 C470 1.415 . S
C472 C477 1.425 . S
C472 C479 1.409 . S
C473 H465 0.930 . S
C473 C471 1.419 . S
C473 C474 1.362 . S
C474 H466 0.930 . S
C474 C473 1.362 . S
C474 C477 1.409 . S
C475 H467 0.930 . S
C475 C476 1.355 . S
C475 C477 1.415 1_556 S
C476 C475 1.355 . S
C476 C478 1.419 . S
C477 C472 1.425 . S
C477 C474 1.409 . S
C477 C475 1.415 1_554 S
C478 H468 0.930 . S
C478 C476 1.419 . S
C478 C479 1.362 1_556 S
C479 H469 0.930 . S
C479 C472 1.409 . S
C479 C478 1.362 1_554 S
H480 C486 0.930 . S
H481 C489 0.930 . S
H482 C490 0.930 . S
H483 C491 0.930 . S
H484 C494 0.930 . S
H485 C495 0.930 . S
C486 H480 0.930 . S
C486 C487 1.355 . S
C486 C488 1.415 1_554 S
C487 C486 1.355 . S
C487 C489 1.419 . S
C488 C486 1.415 1_556 S
C488 C493 1.425 . S
C488 C495 1.409 . S
C489 H481 0.930 . S
C489 C487 1.419 . S
C489 C490 1.362 1_554 S
C490 H482 0.930 . S
C490 C489 1.362 1_556 S
C490 C493 1.409 . S
C491 H483 0.930 . S
C491 C492 1.355 . S
C491 C493 1.415 . S
C492 C491 1.355 . S
C492 C494 1.419 . S
C493 C488 1.425 . S
C493 C490 1.409 . S
C493 C491 1.415 . S
C494 H484 0.930 . S
C494 C492 1.419 . S
C494 C495 1.362 . S
C495 H485 0.930 . S
C495 C488 1.409 . S
C495 C494 1.362 . S
H496 C502 0.930 . S
H497 C505 0.930 . S
H498 C506 0.930 . S
H499 C507 0.930 . S
H500 C510 0.930 . S
H501 C511 0.930 . S
C502 H496 0.930 . S
C502 C503 1.355 . S
C502 C504 1.415 . S
C503 C502 1.355 . S
C503 C505 1.419 . S
C504 C502 1.415 . S
C504 C509 1.425 . S
C504 C511 1.409 . S
C505 H497 0.930 . S
C505 C503 1.419 . S
C505 C506 1.362 . S
C506 H498 0.930 . S
C506 C505 1.362 . S
C506 C509 1.409 . S
C507 H499 0.930 . S
C507 C508 1.355 . S
C507 C509 1.415 1_554 S
C508 C507 1.355 . S
C508 C510 1.419 . S
C509 C504 1.425 . S
C509 C506 1.409 . S
C509 C507 1.415 1_556 S
C510 H500 0.930 . S
C510 C508 1.419 . S
C510 C511 1.362 1_554 S
C511 H501 0.930 . S
C511 C504 1.409 . S
C511 C510 1.362 1_556 S
H512 C518 0.930 . S
H513 C521 0.930 . S
H514 C522 0.930 . S
H515 C523 0.930 . S
H516 C526 0.930 . S
H517 C527 0.930 . S
C518 H512 0.930 . S
C518 C519 1.355 . S
C518 C520 1.415 . S
C519 C518 1.355 . S
C519 C521 1.419 . S
C520 C518 1.415 . S
C520 C525 1.425 . S
C520 C527 1.409 . S
C521 H513 0.930 . S
C521 C519 1.419 . S
C521 C522 1.362 . S
C522 H514 0.930 . S
C522 C521 1.362 . S
C522 C525 1.409 . S
C523 H515 0.930 . S
C523 C524 1.355 . S
C523 C525 1.415 . S
C524 C523 1.355 . S
C524 C526 1.419 . S
C525 C520 1.425 . S
C525 C522 1.409 . S
C525 C523 1.415 . S
C526 H516 0.930 . S
C526 C524 1.419 . S
C526 C527 1.362 . S
C527 H517 0.930 . S
C527 C520 1.409 . S
C527 C526 1.362 . S
H528 C534 0.930 . S
H529 C537 0.930 . S
H530 C538 0.930 . S
H531 C539 0.930 . S
H532 C542 0.930 . S
H533 C543 0.930 . S
C534 H528 0.930 . S
C534 C535 1.355 . S
C534 C536 1.415 . S
C535 C534 1.355 . S
C535 C537 1.419 . S
C536 C534 1.415 . S
C536 C541 1.425 . S
C536 C543 1.409 . S
C537 H529 0.930 . S
C537 C535 1.419 . S
C537 C538 1.362 . S
C538 H530 0.930 . S
C538 C537 1.362 . S
C538 C541 1.409 . S
C539 H531 0.930 . S
C539 C540 1.355 . S
C539 C541 1.415 . S
C540 C539 1.355 . S
C540 C542 1.419 . S
C541 C536 1.425 . S
C541 C538 1.409 . S
C541 C539 1.415 . S
C542 H532 0.930 . S
C542 C540 1.419 . S
C542 C543 1.362 . S
C543 H533 0.930 . S
C543 C536 1.409 . S
C543 C542 1.362 . S
H544 C550 0.930 . S
H545 C553 0.930 . S
H546 C554 0.930 . S
H547 C555 0.930 . S
H548 C558 0.930 . S
H549 C559 0.930 . S
C550 H544 0.930 . S
C550 C551 1.355 . S
C550 C552 1.415 . S
C551 C550 1.355 . S
C551 C553 1.419 . S
C552 C550 1.415 . S
C552 C557 1.425 . S
C552 C559 1.409 . S
C553 H545 0.930 . S
C553 C551 1.419 . S
C553 C554 1.362 . S
C554 H546 0.930 . S
C554 C553 1.362 . S
C554 C557 1.409 . S
C555 H547 0.930 . S
C555 C556 1.355 . S
C555 C557 1.415 . S
C556 C555 1.355 . S
C556 C558 1.419 . S
C557 C552 1.425 . S
C557 C554 1.409 . S
C557 C555 1.415 . S
C558 H548 0.930 . S
C558 C556 1.419 . S
C558 C559 1.362 . S
C559 H549 0.930 . S
C559 C552 1.409 . S
C559 C558 1.362 . S
H560 C566 0.930 . S
H561 C569 0.930 . S
H562 C570 0.930 . S
H563 C571 0.930 . S
H564 C574 0.930 . S
H565 C575 0.930 . S
C566 H560 0.930 . S
C566 C567 1.355 . S
C566 C568 1.415 . S
C567 C566 1.355 . S
C567 C569 1.419 . S
C568 C566 1.415 . S
C568 C573 1.425 . S
C568 C575 1.409 . S
C569 H561 0.930 . S
C569 C567 1.419 . S
C569 C570 1.362 . S
C570 H562 0.930 . S
C570 C569 1.362 . S
C570 C573 1.409 . S
C571 H563 0.930 . S
C571 C572 1.355 . S
C571 C573 1.415 . S
C572 C571 1.355 . S
C572 C574 1.419 . S
C573 C568 1.425 . S
C573 C570 1.409 . S
C573 C571 1.415 . S
C574 H564 0.930 . S
C574 C572 1.419 . S
C574 C575 1.362 . S
C575 H565 0.930 . S
C575 C568 1.409 . S
C575 C574 1.362 . S
H576 C582 0.930 . S
H577 C585 0.930 . S
H578 C586 0.930 . S
H579 C587 0.930 . S
H580 C590 0.930 . S
H581 C591 0.930 . S
C582 H576 0.930 . S
C582 C583 1.355 . S
C582 C584 1.415 . S
C583 C582 1.355 . S
C583 C585 1.419 . S
C584 C582 1.415 . S
C584 C589 1.425 1_455 S
C584 C591 1.409 1_455 S
C585 H577 0.930 . S
C585 C583 1.419 . S
C585 C586 1.362 . S
C586 H578 0.930 . S
C586 C585 1.362 . S
C586 C589 1.409 1_455 S
C587 H579 0.930 . S
C587 C588 1.355 . S
C587 C589 1.415 . S
C588 C587 1.355 . S
C588 C590 1.419 . S
C589 C584 1.425 1_655 S
C589 C586 1.409 1_655 S
C589 C587 1.415 . S
C590 H580 0.930 . S
C590 C588 1.419 . S
C590 C591 1.362 . S
C591 H581 0.930 . S
C591 C584 1.409 1_655 S
C591 C590 1.362 . S
H592 C598 0.930 . S
H593 C601 0.930 . S
H594 C602 0.930 . S
H595 C603 0.930 . S
H596 C606 0.930 . S
H597 C607 0.930 . S
C598 H592 0.930 . S
C598 C599 1.355 . S
C598 C600 1.415 . S
C599 C598 1.355 . S
C599 C601 1.419 . S
C600 C598 1.415 . S
C600 C605 1.425 1_655 S
C600 C607 1.409 1_655 S
C601 H593 0.930 . S
C601 C599 1.419 . S
C601 C602 1.362 . S
C602 H594 0.930 . S
C602 C601 1.362 . S
C602 C605 1.409 1_655 S
C603 H595 0.930 . S
C603 C604 1.355 . S
C603 C605 1.415 . S
C604 C603 1.355 . S
C604 C606 1.419 . S
C605 C600 1.425 1_455 S
C605 C602 1.409 1_455 S
C605 C603 1.415 . S
C606 H596 0.930 . S
C606 C604 1.419 . S
C606 C607 1.362 . S
C607 H597 0.930 . S
C607 C600 1.409 1_455 S
C607 C606 1.362 . S
H608 C614 0.930 . S
H609 C617 0.930 . S
H610 C618 0.930 . S
H611 C619 0.930 . S
H612 C622 0.930 . S
H613 C623 0.930 . S
C614 H608 0.930 . S
C614 C615 1.355 1_556 S
C614 C616 1.415 . S
C615 C614 1.355 1_554 S
C615 C617 1.419 . S
C616 C614 1.415 . S
C616 C621 1.420 1_556 S
C616 C623 1.413 . S
C617 H609 0.930 . S
C617 C615 1.419 . S
C617 C618 1.362 . S
C618 H610 0.930 . S
C618 C617 1.362 . S
C618 C621 1.409 . S
C619 H611 0.930 . S
C619 C620 1.355 . S
C619 C621 1.415 . S
C620 C619 1.355 . S
C620 C622 1.419 1_554 S
C621 C616 1.420 1_554 S
C621 C618 1.409 . S
C621 C619 1.415 . S
C622 H612 0.930 . S
C622 C620 1.419 1_556 S
C622 C623 1.362 . S
C623 H613 0.930 . S
C623 C616 1.413 . S
C623 C622 1.362 . S
H624 C630 0.930 . S
H625 C633 0.930 . S
H626 C634 0.930 . S
H627 C635 0.930 . S
H628 C638 0.930 . S
H629 C639 0.930 . S
C630 H624 0.930 . S
C630 C631 1.355 . S
C630 C632 1.415 . S
C631 C630 1.355 . S
C631 C633 1.419 . S
C632 C630 1.415 . S
C632 C637 1.425 . S
C632 C639 1.409 . S
C633 H625 0.930 . S
C633 C631 1.419 . S
C633 C634 1.362 . S
C634 H626 0.930 . S
C634 C633 1.362 . S
C634 C637 1.409 . S
C635 H627 0.930 . S
C635 C636 1.355 . S
C635 C637 1.415 . S
C636 C635 1.355 . S
C636 C638 1.419 . S
C637 C632 1.425 . S
C637 C634 1.409 . S
C637 C635 1.415 . S
C638 H628 0.930 . S
C638 C636 1.419 . S
C638 C639 1.362 . S
C639 H629 0.930 . S
C639 C632 1.409 . S
C639 C638 1.362 . S
C263 C2 1.636 . S
C268 C230 1.634 . S
C279 C198 1.666 . S
C284 C38 1.664 . S
C295 C162 1.656 . S
C300 C70 1.660 . S
C311 C130 1.665 . S
C316 C98 1.662 . S
C327 N82 1.547 . S
C332 N13 1.566 . S
C343 N50 1.601 . S
C348 N109 1.607 . S
C359 N114 1.401 . S
C364 N45 1.388 . S
C375 N77 1.444 . S
C380 N18 1.392 . S
C391 N141 1.611 . S
C396 N210 1.594 . S
C407 N173 1.562 . S
C412 N242 1.594 . S
C423 N237 1.478 . S
C428 N178 1.428 . S
C439 N205 1.429 . S
C444 N146 1.478 . S
C455 C6 1.329 . S
C460 C4 1.327 . S
C471 C34 1.325 . S
C476 C61 1.319 . S
C487 C93 1.331 . S
C492 C66 1.329 . S
C503 C102 1.326 . S
C508 C100 1.321 . S
C519 C132 1.314 . S
C524 C134 1.323 . S
C535 C166 1.328 . S
C540 C164 1.332 . S
C551 C194 1.319 . S
C556 C221 1.307 . S
C567 C226 1.316 . S
C572 C253 1.308 . S
C583 C29 1.543 . S
C588 C36 1.582 . S
C599 C125 1.562 . S
C604 C68 1.559 . S
C615 C157 1.549 . S
C620 C189 1.583 . S
C631 C228 1.564 . S
C636 C196 1.556 . S
