# Generated by pormake.
# Topology snp, (6)-cn, num edge types: 1
# Building blocks:
#     Node 0, Type 0, BuildingBlock: KUMJIN_clean_sbu_1, # of connection points: 6
#     Node 1, Type 0, BuildingBlock: KUMJIN_clean_sbu_1, # of connection points: 6
#     Node 2, Type 0, BuildingBlock: KUMJIN_clean_sbu_1, # of connection points: 6
#     Node 3, Type 0, BuildingBlock: KUMJIN_clean_sbu_1, # of connection points: 6
#     Edge 4, Type (0, 0), BuildingBlock: UVAHIK_clean_linker_0, # of connection points: 2
#     Edge 5, Type (0, 0), BuildingBlock: UVAHIK_clean_linker_0, # of connection points: 2
#     Edge 6, Type (0, 0), BuildingBlock: UVAHIK_clean_linker_0, # of connection points: 2
#     Edge 7, Type (0, 0), BuildingBlock: UVAHIK_clean_linker_0, # of connection points: 2
#     Edge 8, Type (0, 0), BuildingBlock: UVAHIK_clean_linker_0, # of connection points: 2
#     Edge 9, Type (0, 0), BuildingBlock: UVAHIK_clean_linker_0, # of connection points: 2
#     Edge 10, Type (0, 0), BuildingBlock: UVAHIK_clean_linker_0, # of connection points: 2
#     Edge 11, Type (0, 0), BuildingBlock: UVAHIK_clean_linker_0, # of connection points: 2
#     Edge 12, Type (0, 0), BuildingBlock: UVAHIK_clean_linker_0, # of connection points: 2
#     Edge 13, Type (0, 0), BuildingBlock: UVAHIK_clean_linker_0, # of connection points: 2
#     Edge 14, Type (0, 0), BuildingBlock: UVAHIK_clean_linker_0, # of connection points: 2
#     Edge 15, Type (0, 0), BuildingBlock: UVAHIK_clean_linker_0, # of connection points: 2
# Relax obj value: 0.196
# Max RMSD: 0.234
# Mean RMSD: 0.234
data_MOF--net-snp--node1-KUMJIN_clean_sbu_1--edge1-UVAHIK_clean_linker_0
_symmetry_space_group_name_H-M    P1
_symmetry_Int_Tables_number       1
_symmetry_cell_setting            triclinic
loop_
_symmetry_equiv_pos_as_xyz
'x, y, z'
_cell_length_a     31.402534
_cell_length_b     31.427217
_cell_length_c     41.32701
_cell_angle_alpha  108.42438
_cell_angle_beta   71.465909
_cell_angle_gamma 155.42711
loop_
_atom_site_label
_atom_site_type_symbol
_atom_site_fract_x
_atom_site_fract_y
_atom_site_fract_z
_atom_type_partial_charge
Eu0 Eu 0.92973 0.72296 0.07487 0.0
C1 C 0.46363 0.24082 0.08736 0.0
N2 N 0.50951 0.31169 0.1135 0.0
C3 C 0.36287 0.22806 0.12594 0.0
C4 C 0.36787 0.16436 0.0779 0.0
C5 C 0.45807 0.30261 0.13418 0.0
C6 C 0.31879 0.16033 0.09705 0.0
C7 C 0.45626 0.15866 0.04813 0.0
C8 C 0.5072 0.23802 0.07271 0.0
C9 C 0.36581 0.08811 0.03615 0.0
C10 C 0.32133 0.09069 0.05118 0.0
Eu11 Eu 0.67791 0.445 0.12158 0.0
N12 N 0.59485 0.3077 0.08482 0.0
C13 C 0.49477 0.14948 0.03784 0.0
C14 C 0.62617 0.29256 0.07773 0.0
C15 C 0.57819 0.21478 0.05352 0.0
H16 H 0.49231 0.35515 0.15648 0.0
H17 H 0.60492 0.2047 0.04706 0.0
H18 H 0.11108 0.80234 0.0516 0.0
H19 H 0.96975 0.93126 0.15764 0.0
H20 H 0.68926 0.34196 0.09032 0.0
H21 H 0.45756 0.08914 0.01919 0.0
H22 H 0.89653 0.8038 0.11162 0.0
H23 H 0.32302 0.22198 0.14233 0.0
H24 H 0.32653 0.02774 0.01676 0.0
H25 H 0.24816 0.03202 0.04342 0.0
H26 H 0.26487 0.92145 0.07492 0.0
H27 H 0.24391 0.10099 0.091 0.0
H28 H 0.11494 0.04637 0.18734 0.0
N29 N 0.08767 0.84429 0.09073 0.0
C30 C 0.12932 0.91324 0.11711 0.0
C31 C 0.22627 0.91847 0.08745 0.0
C32 C 0.21745 0.98288 0.13121 0.0
C33 C 0.13829 0.85026 0.07452 0.0
C34 C 0.26496 0.98377 0.11631 0.0
N35 N 0.00212 0.85018 0.11488 0.0
C36 C 0.96211 0.85644 0.12385 0.0
C37 C 0.12774 0.98803 0.15638 0.0
C38 C 0.08643 0.91744 0.12919 0.0
C39 C 0.08467 -0.00759 0.16675 0.0
C40 C 0.00267 0.92755 0.15003 0.0
H41 H 0.33349 0.03692 0.12613 0.0
H42 H 0.32342 0.10388 0.17061 0.0
H43 H 0.24317 0.10643 0.19322 0.0
O44 O 0.95799 0.79723 0.04652 0.0
O45 O 0.89581 0.71739 0.13433 0.0
O46 O 0.7215 0.5546 0.14991 0.0
O47 O 0.02824 0.79415 0.02666 0.0
O48 O 0.77917 0.62248 0.07646 0.0
O49 O 0.65392 0.49181 0.11433 0.0
O50 O 0.72696 0.45977 0.15908 0.0
O51 O 0.73142 0.45678 0.06691 0.0
O52 O 0.79031 0.56653 0.04622 0.0
O53 O 0.56963 0.33812 0.16202 0.0
O54 O 0.85006 0.59132 0.12101 0.0
O55 O 0.93129 0.64965 0.06916 0.0
C56 C 0.81297 0.65453 0.15601 0.0
C57 C 0.06156 0.87394 0.99141 0.0
C58 C 0.06227 0.91164 0.94662 0.0
C59 C 0.1567 0.97567 0.93263 0.0
C60 C 0.15497 0.93718 0.97596 0.0
C61 C 0.20216 0.98795 0.94712 0.0
C62 C 0.01469 0.86098 0.97648 0.0
C63 C 0.68919 0.54701 0.09414 0.0
C64 C 0.01321 0.8189 0.02167 0.0
C65 C 0.25655 0.05074 0.1592 0.0
C66 C 0.21098 0.05238 0.17202 0.0
C67 C 0.73808 0.48242 0.04335 0.0
C68 C 0.64079 0.40926 0.21383 0.0
C69 C 0.58772 0.36243 0.27195 0.0
C70 C 0.63974 0.45013 0.28466 0.0
C71 C 0.69263 0.49651 0.22695 0.0
C72 C 0.58877 0.34267 0.23634 0.0
C73 C 0.69198 0.51672 0.26221 0.0
C74 C 0.90259 0.61002 0.09535 0.0
C75 C 0.63887 0.38591 0.17679 0.0
H76 H 0.19487 0.01534 0.90996 0.0
H77 H 0.19179 0.94725 0.98612 0.0
H78 H 0.27402 0.03627 0.93566 0.0
H79 H 0.94165 0.81106 0.98757 0.0
H80 H 0.63872 0.46642 0.31191 0.0
H81 H 0.73336 0.54864 0.20991 0.0
H82 H 0.5497 0.27587 0.22605 0.0
H83 H 0.73156 0.5838 0.2722 0.0
Eu84 Eu 0.74579 0.94976 0.6044 0.0
C85 C 0.2837 0.49121 0.58219 0.0
N86 N 0.35892 0.5464 0.55624 0.0
C87 C 0.2924 0.41178 0.53892 0.0
C88 C 0.21625 0.39847 0.58945 0.0
C89 C 0.35646 0.50252 0.53256 0.0
C90 C 0.22585 0.36245 0.56855 0.0
C91 C 0.1804 0.4579 0.62266 0.0
C92 C 0.26615 0.52084 0.59883 0.0
C93 C 0.11872 0.3704 0.63206 0.0
C94 C 0.13688 0.34094 0.61557 0.0
Eu95 Eu 0.47492 0.70853 0.55243 0.0
N96 N 0.32866 0.60746 0.58994 0.0
C97 C 0.1567 0.48242 0.63523 0.0
C98 C 0.30158 0.6274 0.60017 0.0
C99 C 0.21593 0.56592 0.62318 0.0
H100 H 0.40739 0.54009 0.50946 0.0
H101 H 0.19604 0.58329 0.63172 0.0
H102 H 0.81053 0.11975 0.63149 0.0
H103 H 0.00089 0.04276 0.52782 0.0
H104 H 0.34636 0.69066 0.59041 0.0
H105 H 0.09084 0.43534 0.65327 0.0
H106 H 0.86113 0.95259 0.57158 0.0
H107 H 0.29379 0.37962 0.52072 0.0
H108 H 0.05385 0.32235 0.65086 0.0
H109 H 0.08521 0.27018 0.62171 0.0
H110 H 0.9224 0.27151 0.61073 0.0
H111 H 0.17619 0.29207 0.57344 0.0
H112 H 0.10169 0.17872 0.49741 0.0
N113 N 0.85599 0.10241 0.58971 0.0
C114 C 0.92864 0.15024 0.56353 0.0
C115 C 0.92286 0.23645 0.59664 0.0
C116 C 0.99604 0.23903 0.55126 0.0
C117 C 0.85793 0.14885 0.60791 0.0
C118 C 0.99052 0.28032 0.56773 0.0
N119 N 0.8834 0.03705 0.56557 0.0
C120 C 0.90697 0.01395 0.55901 0.0
C121 C 0.02216 0.16913 0.52577 0.0
C122 C 0.94326 0.11719 0.5513 0.0
C123 C 0.04136 0.14027 0.51679 0.0
C124 C 0.98546 0.06437 0.53418 0.0
H125 H 0.04256 0.34976 0.55979 0.0
H126 H 0.12167 0.35415 0.5142 0.0
H127 H 0.14241 0.29107 0.49121 0.0
O128 O 0.79883 0.95231 0.63159 0.0
O129 O 0.74483 0.90841 0.54668 0.0
O130 O 0.63941 0.85805 0.53036 0.0
O131 O 0.83023 0.05183 0.65064 0.0
O132 O 0.62362 0.78622 0.59798 0.0
O133 O 0.54239 0.70078 0.54762 0.0
O134 O 0.42555 0.71256 0.52925 0.0
O135 O 0.46546 0.73261 0.61021 0.0
O136 O 0.58808 0.80924 0.63257 0.0
O137 O 0.4177 0.63492 0.50118 0.0
O138 O 0.61543 0.87879 0.56268 0.0
O139 O 0.66307 0.94375 0.61579 0.0
C140 C 0.70298 0.88116 0.52212 0.0
C141 C 0.8948 0.06437 0.68332 0.0
C142 C 0.92977 0.05496 0.72359 0.0
C143 C 0.01047 0.1574 0.73493 0.0
C144 C 0.97539 0.16623 0.69591 0.0
C145 C 0.03305 0.21231 0.72119 0.0
C146 C 0.87185 0.00823 0.69736 0.0
C147 C 0.58186 0.72203 0.5709 0.0
C148 C 0.83992 0.02149 0.65476 0.0
C149 C 0.07038 0.28694 0.52428 0.0
C150 C 0.08245 0.25118 0.51125 0.0
C151 C 0.49657 0.74473 0.63368 0.0
C152 C 0.29633 0.57413 0.49079 0.0
C153 C 0.19229 0.4805 0.44446 0.0
C154 C 0.11224 0.42954 0.46864 0.0
C155 C 0.21542 0.52235 0.51454 0.0
C156 C 0.28412 0.5524 0.45574 0.0
C157 C 0.12408 0.45072 0.50346 0.0
C158 C 0.6219 0.91713 0.59121 0.0
C159 C 0.3964 0.65637 0.50193 0.0
H160 H 0.05615 0.19511 0.75476 0.0
H161 H 0.99541 0.21137 0.68569 0.0
H162 H 0.09615 0.29145 0.73014 0.0
H163 H 0.81006 0.92957 0.68804 0.0
H164 H 0.04029 0.37298 0.46062 0.0
H165 H 0.22264 0.5375 0.54158 0.0
H166 H 0.34718 0.59372 0.43732 0.0
H167 H 0.06242 0.41189 0.5219 0.0
Eu168 Eu 0.83797 0.05106 0.04748 0.0
C169 C 0.37082 0.56294 0.05594 0.0
N170 N 0.41945 0.64411 0.07461 0.0
C171 C 0.27938 0.56385 0.07056 0.0
C172 C 0.27734 0.48209 0.042 0.0
C173 C 0.37329 0.64365 0.08319 0.0
C174 C 0.23206 0.48363 0.04938 0.0
C175 C 0.36588 0.47732 0.03153 0.0
C176 C 0.41392 0.55982 0.05104 0.0
C177 C 0.27595 0.39982 0.01607 0.0
C178 C 0.2317 0.40207 0.0214 0.0
Eu179 Eu 0.5788 0.77487 0.09363 0.0
N180 N 0.50394 0.6385 0.06479 0.0
C181 C 0.41022 0.47565 0.02786 0.0
C182 C 0.54687 0.63677 0.06184 0.0
C183 C 0.50039 0.55503 0.04346 0.0
H184 H 0.40714 0.70342 0.10022 0.0
H185 H 0.5347 0.55386 0.041 0.0
H186 H 0.00461 0.11131 0.0293 0.0
H187 H 0.92656 0.30486 0.11492 0.0
H188 H 0.61672 0.69815 0.07376 0.0
H189 H 0.3755 0.41362 0.01296 0.0
H190 H 0.83828 0.16294 0.07431 0.0
H191 H 0.24333 0.56405 0.07728 0.0
H192 H 0.23899 0.3368 1.00042 0.0
H193 H 0.16185 0.34122 1.00961 0.0
H194 H 0.14707 0.21717 0.05572 0.0
H195 H 0.15949 0.42212 0.03955 0.0
H196 H 0.06523 0.41326 0.14668 0.0
N197 N 0.98666 0.15994 0.06655 0.0
C198 C 0.03447 0.23493 0.09111 0.0
C199 C 0.11425 0.22081 0.06657 0.0
C200 C 0.12129 0.30241 0.10547 0.0
C201 C 0.031 0.15841 0.05228 0.0
C202 C 0.15834 0.29172 0.09376 0.0
N203 N 0.91998 0.18597 0.08529 0.0
C204 C 0.89607 0.20782 0.089 0.0
C205 C 0.05532 0.33241 0.12323 0.0
C206 C 0.00172 0.24975 0.10014 0.0
C207 C 0.02559 0.3502 0.12931 0.0
C208 C 0.94699 0.28889 0.11156 0.0
H209 H 0.22474 0.34195 0.10409 0.0
H210 H 0.23753 0.43316 0.14123 0.0
H211 H 0.17995 0.4596 0.15669 0.0
O212 O 0.82909 0.08139 0.01164 0.0
O213 O 0.7889 0.04055 0.10342 0.0
O214 O 0.7358 0.92929 0.11369 0.0
O215 O 0.96878 0.17261 0.01298 0.0
O216 O 0.6725 0.92109 0.04707 0.0
O217 O 0.58842 0.85844 0.09874 0.0
O218 O 0.53376 0.69686 0.1296 0.0
O219 O 0.58828 0.75935 0.03413 0.0
O220 O 0.75282 0.9189 1.01038 0.0
O221 O 0.50327 0.74136 0.14427 0.0
O222 O 0.72616 0.86756 0.0855 0.0
O223 O 0.82755 0.96673 0.03899 0.0
C224 C 0.77662 0.00579 0.12427 0.0
C225 C 0.92398 0.13148 0.95936 0.0
C226 C 0.94048 0.15216 0.90182 0.0
C227 C 0.94868 0.11248 0.88849 0.0
C228 C 0.93215 0.092 0.9456 0.0
C229 C 0.94488 0.08313 0.91041 0.0
C230 C 0.92645 0.15984 0.9375 0.0
C231 C 0.62283 0.90434 0.07357 0.0
C232 C 0.91907 0.14866 0.99647 0.0
C233 C 0.17123 0.38122 0.12988 0.0
C234 C 0.13857 0.39642 0.13864 0.0
C235 C 0.65843 0.81747 1.00793 0.0
C236 C 0.45415 0.66067 0.18759 0.0
C237 C 0.44632 0.62552 0.23732 0.0
C238 C 0.38008 0.60202 0.25506 0.0
C239 C 0.38677 0.63484 0.20616 0.0
C240 C 0.48356 0.65535 0.2032 0.0
C241 C 0.35081 0.60652 0.23958 0.0
C242 C 0.78752 0.90623 0.05757 0.0
C243 C 0.49982 0.70215 0.15351 0.0
H244 H 0.96283 0.10851 0.86126 0.0
H245 H 0.93079 0.06988 0.96207 0.0
H246 H 0.95552 0.05689 0.90035 0.0
H247 H 0.92033 0.1905 0.94838 0.0
H248 H 0.3525 0.58255 0.28146 0.0
H249 H 0.36346 0.63877 0.19509 0.0
H250 H 0.53614 0.67584 0.18909 0.0
H251 H 0.3016 0.5902 0.25382 0.0
Eu252 Eu 0.06306 0.82849 0.62756 0.0
C253 C 0.59423 0.36171 0.61148 0.0
N254 N 0.66542 0.41593 0.58436 0.0
C255 C 0.60446 0.28528 0.56544 0.0
C256 C 0.53088 0.27116 0.61822 0.0
C257 C 0.66549 0.37478 0.55989 0.0
C258 C 0.53906 0.23489 0.59528 0.0
C259 C 0.49952 0.33326 0.65727 0.0
C260 C 0.57695 0.39071 0.63026 0.0
C261 C 0.44344 0.24913 0.66637 0.0
C262 C 0.45814 0.2173 0.64657 0.0
Eu263 Eu 0.77785 0.57721 0.58268 0.0
N264 N 0.6305 0.47051 0.62021 0.0
C265 C 0.47659 0.35827 0.67279 0.0
C266 C 0.60134 0.48831 0.63258 0.0
C267 C 0.52441 0.43294 0.65935 0.0
H268 H 0.7159 0.41348 0.53674 0.0
H269 H 0.5041 0.4498 0.67019 0.0
H270 H 0.14628 0.00719 0.67116 0.0
H271 H 0.31535 0.92715 0.53692 0.0
H272 H 0.6425 0.55001 0.62337 0.0
H273 H 0.41799 0.3164 0.69379 0.0
H274 H 0.18045 0.83479 0.58419 0.0
H275 H 0.60762 0.25504 0.54668 0.0
H276 H 0.38425 0.20446 0.68731 0.0
H277 H 0.40986 0.1486 0.65255 0.0
H278 H 0.26114 0.16799 0.6594 0.0
H279 H 0.49131 0.16521 0.5994 0.0
H280 H 0.41424 0.06912 0.51324 0.0
N281 N 0.18563 -0.00631 0.62304 0.0
C282 C 0.25209 0.04156 0.59467 0.0
C283 C 0.25818 0.13251 0.64055 0.0
C284 C 0.32005 0.13422 0.58698 0.0
C285 C 0.19396 0.04203 0.64735 0.0
C286 C 0.31908 0.17711 0.60965 0.0
N287 N 0.19949 0.91956 0.5856 0.0
C288 C 0.22274 0.89571 0.57358 0.0
C289 C 0.33771 0.05904 0.54867 0.0
C290 C 0.26035 0.0041 0.57557 0.0
C291 C 0.35487 0.02833 0.53377 0.0
C292 C 0.29942 0.94841 0.54709 0.0
H293 H 0.3703 0.24834 0.60465 0.0
H294 H 0.44264 0.25467 0.55168 0.0
H295 H 0.45774 0.18809 0.51791 0.0
O296 O 0.09247 0.80194 0.64892 0.0
O297 O 0.05156 0.78174 0.57091 0.0
O298 O 0.94259 0.73474 0.56656 0.0
O299 O 0.15063 0.92044 0.67281 0.0
O300 O 0.91076 0.65675 0.62665 0.0
O301 O 0.84853 0.57177 0.57627 0.0
O302 O 0.68299 0.5291 0.55872 0.0
O303 O 0.78006 0.61364 0.6414 0.0
O304 O 0.93669 0.75282 0.66615 0.0
O305 O 0.77884 0.56124 0.527 0.0
O306 O 0.86111 0.71874 0.60018 0.0
O307 O 0.01068 0.85056 0.62821 0.0
C308 C 0.00521 0.75796 0.55153 0.0
C309 C 0.23641 0.93661 0.68078 0.0
C310 C 0.33352 0.00954 0.72405 0.0
C311 C 0.4099 0.05674 0.69844 0.0
C312 C 0.31298 0.98408 0.65548 0.0
C313 C 0.39916 0.04347 0.6643 0.0
C314 C 0.24616 0.94804 0.7147 0.0
C315 C 0.89246 0.60445 0.60159 0.0
C316 C 0.14468 0.87393 0.67317 0.0
C317 C 0.39073 0.18403 0.55817 0.0
C318 C 0.39946 0.14634 0.539 0.0
C319 C 0.83856 0.67562 0.66783 0.0
C320 C 0.6498 0.47036 0.49943 0.0
C321 C 0.59415 0.44235 0.45103 0.0
C322 C 0.53222 0.34777 0.4428 0.0
C323 C 0.58832 0.37687 0.49006 0.0
C324 C 0.65197 0.50253 0.48016 0.0
C325 C 0.52912 0.3156 0.46218 0.0
C326 C 0.94135 0.80935 0.61709 0.0
C327 C 0.71774 0.53869 0.52769 0.0
H328 H 0.47898 0.10591 0.70482 0.0
H329 H 0.30754 0.97714 0.62922 0.0
H330 H 0.45859 0.08078 0.64473 0.0
H331 H 0.18522 0.90896 0.73392 0.0
H332 H 0.48697 0.29824 0.42094 0.0
H333 H 0.58742 0.35221 0.50409 0.0
H334 H 0.69941 0.57478 0.48804 0.0
H335 H 0.48171 0.24327 0.45514 0.0
C336 C 0.86475 0.92279 0.08178 0.0
C337 C 0.84065 0.91183 0.05292 0.0
C338 C 0.94689 0.96829 0.07937 0.0
C339 C 0.19141 0.16644 0.02653 0.0
H340 H 0.25758 0.19239 0.10439 0.0
C341 C 0.60198 0.49669 0.05386 0.0
C342 C 0.61519 0.51071 0.0877 0.0
C343 C 0.50772 0.42389 0.04547 0.0
C344 C 0.24162 0.18668 0.08214 0.0
H345 H 0.8664 0.91779 0.99787 0.0
H346 H 0.00816 -0.00562 0.9934 0.0
H347 H 0.08278 0.03135 0.09036 0.0
H348 H 0.55238 0.48013 0.14023 0.0
H349 H 0.39175 0.36071 0.12617 0.0
H350 H 0.35276 0.32055 0.01713 0.0
C351 C 0.96808 0.97336 0.01814 0.0
C352 C 0.14021 0.09374 0.07424 0.0
C353 C 0.88641 0.9288 0.02065 0.0
C354 C 0.54208 0.46746 0.11379 0.0
C355 C 0.44965 0.398 0.1056 0.0
C356 C 0.29424 0.25817 0.03342 0.0
C357 C 0.00504 0.00204 0.04789 0.0
C358 C 0.11262 0.08454 0.04793 0.0
C359 C 0.42793 0.36823 0.07117 0.0
C360 C 0.32001 0.27079 0.0623 0.0
H361 H 0.82908 0.90838 0.10693 0.0
H362 H 0.97116 0.98755 0.1031 0.0
H363 H 0.17414 0.16337 1.00598 0.0
H364 H 0.65881 0.53148 0.03335 0.0
H365 H 0.4947 0.40462 0.0187 0.0
C366 C 0.01497 0.95112 0.64319 0.0
C367 C 0.97209 0.88132 0.61544 0.0
C368 C 0.0793 0.04254 0.63776 0.0
C369 C 0.19427 0.19201 0.5697 0.0
H370 H 0.43381 0.41908 0.62146 0.0
C371 C 0.53175 0.59756 0.54165 0.0
C372 C 0.55421 0.65185 0.57155 0.0
C373 C 0.47935 0.51212 0.54396 0.0
C374 C 0.36761 0.35653 0.60669 0.0
H375 H 0.95165 0.84487 0.56131 0.0
H376 H 0.06664 0.00489 0.55141 0.0
H377 H 0.28411 0.24583 0.63594 0.0
H378 H 0.55792 0.6724 0.62661 0.0
H379 H 0.46424 0.5231 0.63084 0.0
H380 H 0.27732 0.30362 0.5411 0.0
C381 C 0.05045 0.99021 0.57748 0.0
C382 C 0.28096 0.25661 0.61514 0.0
C383 C 0.98404 0.89788 0.58312 0.0
C384 C 0.53796 0.62953 0.60319 0.0
C385 C 0.48505 0.54414 0.60556 0.0
C386 C 0.28071 0.29207 0.5614 0.0
C387 C 0.10371 0.06624 0.60439 0.0
C388 C 0.19284 0.17284 0.59686 0.0
C389 C 0.44933 0.48074 0.57621 0.0
C390 C 0.36756 0.37559 0.58028 0.0
H391 H 0.00575 0.93901 0.66842 0.0
H392 H 0.11635 0.09801 0.65923 0.0
H393 H 0.12796 0.12993 0.55518 0.0
H394 H 0.54778 0.6164 0.51678 0.0
H395 H 0.45575 0.46648 0.52079 0.0
C396 C 0.64593 0.98713 0.04823 0.0
C397 C 0.63047 0.95983 0.07764 0.0
C398 C 0.67334 0.05584 0.05063 0.0
C399 C 0.79256 0.26387 0.10933 0.0
H400 H 0.72329 0.25524 0.04148 0.0
C401 C 0.88657 0.53355 0.1212 0.0
C402 C 0.89687 0.55625 0.09176 0.0
C403 C 0.86263 0.46763 0.11905 0.0
C404 C 0.74442 0.25988 0.06056 0.0
H405 H 0.62409 0.97747 0.13297 0.0
H406 H 0.66888 0.09551 0.13744 0.0
H407 H 0.64925 0.11716 0.04097 0.0
H408 H 0.9019 0.53687 0.03642 0.0
H409 H 0.86431 0.42499 0.03232 0.0
H410 H 0.88723 0.40642 0.12905 0.0
C411 C 0.66282 0.06601 0.11229 0.0
C412 C 0.70177 0.1801 0.06023 0.0
C413 C 0.63553 -0.00298 0.10983 0.0
C414 C 0.89286 0.51964 0.05967 0.0
C415 C 0.86991 0.45426 0.05742 0.0
C416 C 0.83484 0.34351 0.10978 0.0
C417 C 0.68505 0.09875 0.08262 0.0
C418 C 0.72545 0.18087 0.08449 0.0
C419 C 0.85052 0.42406 0.0872 0.0
C420 C 0.81111 0.34268 0.08548 0.0
H421 H 0.64162 0.959 0.02303 0.0
H422 H 0.69045 0.07911 0.0271 0.0
H423 H 0.81429 0.2687 0.12818 0.0
H424 H 0.89343 0.56399 0.14622 0.0
H425 H 0.84871 0.44715 0.14265 0.0
C426 C 0.51062 0.88312 0.62794 0.0
C427 C 0.56144 0.90448 0.59638 0.0
C428 C 0.4387 0.85221 0.62969 0.0
C429 C 0.26636 0.72762 0.5725 0.0
H430 H 0.22222 0.79926 0.6466 0.0
C431 C 0.99589 0.62813 0.56726 0.0
C432 C 0.9467 0.61061 0.59834 0.0
C433 C 0.06437 0.65538 0.56678 0.0
C434 C 0.23233 0.7771 0.62585 0.0
H435 H 0.58496 0.92104 0.54289 0.0
H436 H 0.4619 0.8685 0.5459 0.0
H437 H 0.35948 0.87191 0.64804 0.0
H438 H 0.91881 0.59293 0.65215 0.0
H439 H 0.03772 0.64089 0.65149 0.0
H440 H 0.13959 0.63305 0.55024 0.0
C441 C 0.47395 0.87177 0.56913 0.0
C442 C 0.31153 0.81918 0.62671 0.0
C443 C 0.54528 0.90266 0.56746 0.0
C444 C 0.95834 0.60944 0.628 0.0
C445 C 0.02741 0.63795 0.62767 0.0
C446 C 0.18726 0.68558 0.57164 0.0
C447 C 0.41641 0.8421 0.5999 0.0
C448 C 0.33033 0.79571 0.59991 0.0
C449 C 0.08497 0.66573 0.59738 0.0
C450 C 0.16884 0.70956 0.59828 0.0
H451 H 0.52141 0.88392 0.65071 0.0
H452 H 0.39627 0.8304 0.65391 0.0
H453 H 0.27665 0.70569 0.55168 0.0
H454 H 0.98742 0.62818 0.54384 0.0
H455 H 0.10631 0.67516 0.54283 0.0
C456 C 0.65671 0.81756 0.46107 0.0
C457 C 0.71598 0.86337 0.48579 0.0
C458 C 0.66294 0.79398 0.4274 0.0
C459 C 0.61538 0.65714 0.3701 0.0
H460 H 0.93614 0.90853 0.30678 0.0
C461 C 0.7338 0.64779 0.20156 0.0
C462 C 0.81806 0.69445 0.18949 0.0
C463 C 0.72071 0.66219 0.23573 0.0
C464 C 0.85875 0.84271 0.31877 0.0
H465 H 0.83007 0.92216 0.49366 0.0
H466 H 0.84532 0.8864 0.43437 0.0
H467 H 0.91084 0.94761 0.36793 0.0
H468 H 0.95911 0.79902 0.20329 0.0
H469 H 0.93689 0.82628 0.26396 0.0
H470 H 0.58647 0.54616 0.29506 0.0
C471 C 0.79335 0.86808 0.44143 0.0
C472 C 0.84191 0.86851 0.35785 0.0
C473 C 0.78458 0.88854 0.47544 0.0
C474 C 0.89373 0.76266 0.21193 0.0
C475 C 0.88046 0.77731 0.24661 0.0
C476 C 0.64092 0.61747 0.31115 0.0
C477 C 0.73134 0.81911 0.41729 0.0
C478 C 0.73018 0.78483 0.38279 0.0
C479 C 0.79119 0.7233 0.25901 0.0
C480 C 0.76765 0.72737 0.29574 0.0
H481 H 0.60365 0.79777 0.46781 0.0
H482 H 0.61385 0.75559 0.40926 0.0
H483 H 0.54709 0.608 0.3875 0.0
H484 H 0.67497 0.59593 0.18478 0.0
H485 H 0.65359 0.62328 0.24398 0.0
C486 C 0.42062 0.64191 0.6761 0.0
C487 C 0.42499 0.68217 0.66328 0.0
C488 C 0.35148 0.58008 0.70356 0.0
C489 C 0.11153 0.40324 0.74933 0.0
H490 H 0.23952 0.50005 0.82545 0.0
C491 C 0.02235 0.29178 0.88882 0.0
C492 C 0.95985 0.19734 0.87885 0.0
C493 C 0.05827 0.34526 0.86522 0.0
C494 C 0.2023 0.47266 0.80482 0.0
H495 H 0.36316 0.69218 0.66929 0.0
H496 H 0.23932 0.58106 0.7175 0.0
H497 H 0.34637 0.60682 0.7778 0.0
H498 H 0.87702 0.0799 0.83726 0.0
H499 H 0.94265 0.17532 0.79568 0.0
H500 H 0.96694 0.26602 0.7758 0.0
C501 C 0.28899 0.59692 0.70584 0.0
C502 C 0.2636 0.53351 0.77747 0.0
C503 C 0.35927 0.65993 0.67841 0.0
C504 C 0.92681 0.1535 0.84553 0.0
C505 C 0.9633 0.20748 0.82182 0.0
C506 C 0.04961 0.34126 0.77673 0.0
C507 C 0.28563 0.55759 0.71871 0.0
C508 C 0.21888 0.49835 0.74924 0.0
C509 C 0.03342 0.30608 0.83108 0.0
C510 C 0.09483 0.37494 0.80441 0.0
H511 H 0.4701 0.65755 0.66472 0.0
H512 H 0.3496 0.54996 0.71312 0.0
H513 H 0.07595 0.37477 0.72751 0.0
H514 H 0.05002 0.32841 0.91414 0.0
H515 H 0.1113 0.42068 0.87309 0.0
C516 C 0.5204 0.40709 0.4074 0.0
C517 C 0.59933 0.47765 0.42884 0.0
C518 C 0.5266 0.43953 0.38584 0.0
C519 C 0.7273 0.70391 0.35523 0.0
H520 H 0.40285 0.44551 0.32628 0.0
C521 C 0.57823 0.69531 0.25149 0.0
C522 C 0.47765 0.62203 0.25568 0.0
C523 C 0.60841 0.69661 0.27146 0.0
C524 C 0.48136 0.51315 0.33174 0.0
H525 H 0.74799 0.64075 0.44317 0.0
H526 H 0.75336 0.69495 0.40873 0.0
H527 H 0.43013 0.41345 0.35934 0.0
H528 H 0.32901 0.48897 0.28329 0.0
H529 H 0.38243 0.49487 0.31903 0.0
H530 H 0.75242 0.80731 0.31497 0.0
C531 C 0.68844 0.61429 0.40715 0.0
C532 C 0.49994 0.49133 0.35237 0.0
C533 C 0.68393 0.58226 0.42797 0.0
C534 C 0.40789 0.54856 0.27981 0.0
C535 C 0.43839 0.55092 0.30011 0.0
C536 C 0.69858 0.73735 0.32418 0.0
C537 C 0.61003 0.54357 0.38552 0.0
C538 C 0.61272 0.57721 0.3642 0.0
C539 C 0.53936 0.62535 0.29652 0.0
C540 C 0.57101 0.62601 0.31776 0.0
H541 H 0.452 0.32556 0.40718 0.0
H542 H 0.46507 0.38176 0.36938 0.0
H543 H 0.79719 0.75534 0.36287 0.0
H544 H 0.63461 0.75339 0.23334 0.0
H545 H 0.68599 0.75334 0.26687 0.0
C546 C 0.31424 0.03973 0.78541 0.0
C547 C 0.34633 0.02804 0.76065 0.0
C548 C 0.32995 0.06177 0.81968 0.0
C549 C 0.4083 0.0802 0.88286 0.0
H550 H 0.52583 0.30347 0.92302 0.0
C551 C 0.6753 0.36668 0.99357 0.0
C552 C 0.66922 0.4052 0.01598 0.0
C553 C 0.61231 0.29667 0.9664 0.0
C554 C 0.49129 0.23976 0.91253 0.0
H555 H 0.41639 0.02625 0.75278 0.0
H556 H 0.44925 0.07074 0.81267 0.0
H557 H 0.45852 0.22466 0.86747 0.0
H558 H 0.58516 0.39194 0.03122 0.0
H559 H 0.47509 0.27023 0.98373 0.0
H560 H 0.44545 0.09909 0.92793 0.0
C561 C 0.40949 0.06013 0.80551 0.0
C562 C 0.45253 0.1944 0.88065 0.0
C563 C 0.39234 0.03648 0.77115 0.0
C564 C 0.59458 0.36739 0.01283 0.0
C565 C 0.53092 0.2968 0.98606 0.0
C566 C 0.44758 0.12606 0.91493 0.0
C567 C 0.38033 0.07509 0.82996 0.0
C568 C 0.41186 0.11512 0.86525 0.0
C569 C 0.54206 0.26397 0.96182 0.0
C570 C 0.49051 0.20708 0.92978 0.0
H571 H 0.27979 0.03519 0.77828 0.0
H572 H 0.30531 0.07142 0.83802 0.0
H573 H 0.37637 0.01846 0.87168 0.0
H574 H 0.73104 0.39346 0.99639 0.0
H575 H 0.62229 0.27239 0.94808 0.0
C576 C 0.67822 0.81692 0.94449 0.0
C577 C 0.63742 0.76889 0.97319 0.0
C578 C 0.67766 0.78572 0.91153 0.0
C579 C 0.66517 0.65176 0.86625 0.0
H580 H 0.66438 0.6924 0.78745 0.0
C581 C 0.72914 0.64128 0.70614 0.0
C582 C 0.79371 0.66274 0.70222 0.0
C583 C 0.69109 0.63412 0.73871 0.0
C584 C 0.66278 0.67796 0.80876 0.0
H585 H 0.56204 0.64872 0.98948 0.0
H586 H 0.55729 0.59092 0.93182 0.0
H587 H 0.62401 0.70791 0.8439 0.0
H588 H 0.87312 0.69851 0.7298 0.0
H589 H 0.81275 0.6922 0.78631 0.0
H590 H 0.69973 0.61764 0.83124 0.0
C591 C 0.59122 0.65406 0.9348 0.0
C592 C 0.64122 0.68897 0.8416 0.0
C593 C 0.59191 0.68566 0.96793 0.0
C594 C 0.82176 0.67979 0.73184 0.0
C595 C 0.78564 0.67484 0.76448 0.0
C596 C 0.6848 0.63871 0.83331 0.0
C597 C 0.63604 0.70507 0.9061 0.0
C598 C 0.64513 0.67922 0.87097 0.0
C599 C 0.71988 0.65246 0.76869 0.0
C600 C 0.68712 0.65461 0.80388 0.0
H601 H 0.71376 0.88127 0.94767 0.0
H602 H 0.71406 0.82822 0.89051 0.0
H603 H 0.66962 0.64397 0.88804 0.0
H604 H 0.71138 0.63436 0.6841 0.0
H605 H 0.63997 0.61531 0.74004 0.0
C606 C 0.4332 0.18405 0.28857 0.0
C607 C 0.53044 0.29052 0.29579 0.0
C608 C 0.37659 0.11629 0.3119 0.0
C609 C 0.39231 0.10047 0.39206 0.0
H610 H 0.10325 0.87187 0.40485 0.0
C611 C 0.1201 0.82228 0.49936 0.0
C612 C 0.0551 0.79985 0.51756 0.0
C613 C 0.17529 0.87208 0.46892 0.0
C614 C 0.18388 0.93545 0.40169 0.0
H615 H 0.64689 0.4093 0.3323 0.0
H616 H 0.54788 0.29149 0.37316 0.0
H617 H 0.20899 0.98121 0.35854 0.0
H618 H 0.99321 0.80764 0.51736 0.0
H619 H 0.08926 0.89459 0.46502 0.0
H620 H 0.36768 0.05801 0.4369 0.0
C621 C 0.51477 0.25987 0.3496 0.0
C622 C 0.24446 -0.00254 0.37473 0.0
C623 C 0.57134 0.32767 0.32629 0.0
C624 C 0.04277 0.82392 0.50405 0.0
C625 C 0.09764 0.87348 0.47383 0.0
C626 C 0.33169 0.03886 0.41935 0.0
C627 C 0.41549 0.15334 0.34313 0.0
C628 C 0.34987 0.08188 0.36986 0.0
C629 C 0.16533 0.89912 0.45603 0.0
C630 C 0.22725 0.957 0.42488 0.0
H631 H 0.39929 0.15287 0.26534 0.0
H632 H 0.30147 0.03475 0.30564 0.0
H633 H 0.47287 0.16391 0.38881 0.0
H634 H 0.12906 0.80234 0.50883 0.0
H635 H 0.22579 0.88954 0.45556 0.0
C636 C 0.83896 0.94483 0.76881 0.0
C637 C 0.91009 0.0015 0.74021 0.0
C638 C 0.83882 0.91742 0.7901 0.0
C639 C 0.94968 0.91035 0.7979 0.0
H640 H 0.89966 0.92734 0.89504 0.0
C641 C 0.94507 0.81728 0.90406 0.0
C642 C 0.0169 0.89963 0.92851 0.0
C643 C 0.92044 0.81805 0.88129 0.0
C644 C 0.91394 0.92234 0.868 0.0
H645 H 0.03671 0.07357 0.71174 0.0
H646 H 0.03529 0.02391 0.74785 0.0
H647 H 0.87519 0.94463 0.85365 0.0
H648 H 0.12054 0.04815 0.94741 0.0
H649 H 0.07197 0.04605 0.90968 0.0
H650 H 0.98633 0.88566 0.81241 0.0
C651 C 0.97804 -0.0013 0.75387 0.0
C652 C 0.8997 0.93208 0.84417 0.0
C653 C 0.97861 0.02681 0.73282 0.0
C654 C 0.06165 0.98153 0.92998 0.0
C655 C 0.03474 0.98088 0.90802 0.0
C656 C 0.96181 0.89835 0.82173 0.0
C657 C 0.91012 0.94602 0.78356 0.0
C658 C 0.91881 0.92803 0.80869 0.0
C659 C 0.96571 0.90041 0.88275 0.0
C660 C 0.94552 0.90562 0.85718 0.0
H661 H 0.78705 0.92656 0.77581 0.0
H662 H 0.78419 0.87599 0.81227 0.0
H663 H 0.96368 0.90476 0.77093 0.0
H664 H 0.91187 0.75471 0.90141 0.0
H665 H 0.86716 0.75493 0.86215 0.0
C666 C 0.89733 0.08963 0.15824 0.0
C667 C 0.84266 0.07514 0.15276 0.0
C668 C 0.96032 0.15545 0.18524 0.0
C669 C 0.07452 0.35153 0.2529 0.0
H670 H 0.05342 0.2459 0.30226 0.0
C671 C 0.13588 0.45169 0.39564 0.0
C672 C 0.17985 0.45922 0.40758 0.0
C673 C 0.11654 0.42383 0.36135 0.0
C674 C 0.06194 0.27776 0.2885 0.0
H675 H 0.81238 0.11925 0.17001 0.0
H676 H 0.91744 0.22971 0.21874 0.0
H677 H 0.97905 0.16194 0.24781 0.0
H678 H 0.24166 0.44736 0.39292 0.0
H679 H 0.20758 0.39828 0.33285 0.0
H680 H 0.15171 0.46333 0.29505 0.0
C681 C 0.9146 0.19305 0.2017 0.0
C682 C 0.01942 0.22971 0.25712 0.0
C683 C 0.8533 0.12883 0.17415 0.0
C684 C 0.20787 0.4423 0.38434 0.0
C685 C 0.188 0.41385 0.35 0.0
C686 C 0.11548 0.39848 0.28464 0.0
C687 C 0.96764 0.20588 0.20787 0.0
C688 C 0.02347 0.26477 0.23921 0.0
C689 C 0.14064 0.40277 0.33828 0.0
C690 C 0.10835 0.36119 0.30296 0.0
H691 H 0.89251 0.05113 0.14136 0.0
H692 H 0.00238 0.16585 0.18856 0.0
H693 H 0.08124 0.38212 0.23945 0.0
H694 H 0.11488 0.46576 0.41297 0.0
H695 H 0.0788 0.41473 0.35327 0.0
loop_
_geom_bond_atom_site_label_1
_geom_bond_atom_site_label_2
_geom_bond_distance
_geom_bond_site_symmetry_2
_ccdc_geom_bond_type
Eu0 N29 2.600 1_655 S
Eu0 N35 2.562 . S
Eu0 O44 2.462 . S
Eu0 O45 2.373 . S
Eu0 O47 2.432 . S
Eu0 O48 2.291 . S
Eu0 O52 2.335 . S
Eu0 O55 2.372 . S
Eu0 C64 2.787 . S
C1 N2 1.365 . S
C1 C4 1.405 . S
C1 C8 1.448 . S
N2 C1 1.365 . S
N2 C5 1.319 . S
N2 Eu11 2.600 . S
C3 C5 1.397 . S
C3 C6 1.367 . S
C3 H23 0.931 . S
C4 C1 1.405 . S
C4 C6 1.403 . S
C4 C10 1.439 1_545 S
C5 N2 1.319 . S
C5 C3 1.397 . S
C5 H16 0.930 . S
C6 C3 1.367 . S
C6 C4 1.403 . S
C6 H27 0.929 1_545 S
C7 C8 1.430 . S
C7 C9 1.387 1_545 S
C7 C13 1.404 . S
C8 C1 1.448 . S
C8 C7 1.430 . S
C8 N12 1.351 . S
C9 C7 1.387 1_565 S
C9 C10 1.374 . S
C9 H24 0.931 . S
C10 C4 1.439 1_565 S
C10 C9 1.374 . S
C10 H25 0.931 . S
Eu11 N2 2.600 . S
Eu11 N12 2.562 . S
Eu11 O46 2.335 . S
Eu11 O49 2.372 . S
Eu11 O50 2.462 . S
Eu11 O51 2.373 . S
Eu11 O53 2.432 . S
Eu11 O54 2.291 . S
Eu11 C75 2.787 . S
N12 C8 1.351 . S
N12 Eu11 2.562 . S
N12 C14 1.325 . S
C13 C7 1.404 . S
C13 C15 1.366 . S
C13 H21 0.924 1_545 S
C14 N12 1.325 . S
C14 C15 1.416 . S
C14 H20 0.929 . S
C15 C13 1.366 . S
C15 C14 1.416 . S
C15 H17 0.930 . S
H16 C5 0.930 . S
H17 C15 0.930 . S
H18 C33 0.930 . S
H19 C40 0.930 . S
H20 C14 0.929 . S
H21 C13 0.924 1_565 S
H22 C36 0.929 . S
H23 C3 0.931 . S
H24 C9 0.931 . S
H25 C10 0.931 . S
H26 C31 0.931 . S
H27 C6 0.929 1_565 S
H28 C39 0.930 1_545 S
N29 Eu0 2.600 1_455 S
N29 C30 1.365 . S
N29 C33 1.319 . S
C30 N29 1.365 . S
C30 C32 1.405 1_565 S
C30 C38 1.448 . S
C31 H26 0.931 . S
C31 C33 1.397 . S
C31 C34 1.367 1_565 S
C32 C30 1.405 1_545 S
C32 C34 1.403 . S
C32 C65 1.439 . S
C33 H18 0.930 . S
C33 N29 1.319 . S
C33 C31 1.397 . S
C34 C31 1.367 1_545 S
C34 C32 1.403 . S
C34 H41 0.929 . S
N35 Eu0 2.562 . S
N35 C36 1.325 . S
N35 C38 1.351 1_655 S
C36 H22 0.929 . S
C36 N35 1.325 . S
C36 C40 1.416 . S
C37 C38 1.430 . S
C37 C39 1.404 . S
C37 C66 1.387 1_565 S
C38 C30 1.448 . S
C38 N35 1.351 1_455 S
C38 C37 1.430 . S
C39 H28 0.930 1_565 S
C39 C37 1.404 . S
C39 C40 1.366 1_455 S
C40 H19 0.930 . S
C40 C36 1.416 . S
C40 C39 1.366 1_655 S
H41 C34 0.929 . S
H42 C65 0.931 . S
H43 C66 0.931 . S
O44 Eu0 2.462 . S
O44 C64 1.252 . S
O45 Eu0 2.373 . S
O45 C56 1.249 . S
O46 Eu11 2.335 . S
O46 C56 1.264 . S
O47 Eu0 2.432 . S
O47 C64 1.268 . S
O48 Eu0 2.291 . S
O48 C63 1.255 . S
O49 Eu11 2.372 . S
O49 C63 1.257 . S
O50 Eu11 2.462 . S
O50 C75 1.252 . S
O51 Eu11 2.373 . S
O51 C67 1.249 . S
O52 Eu0 2.335 . S
O52 C67 1.264 . S
O53 Eu11 2.432 . S
O53 C75 1.268 . S
O54 Eu11 2.291 . S
O54 C74 1.255 . S
O55 Eu0 2.372 . S
O55 C74 1.257 . S
C56 O45 1.249 . S
C56 O46 1.264 . S
C57 C60 1.382 1_655 S
C57 C62 1.390 . S
C57 C64 1.506 1_556 S
C58 C59 1.398 1_655 S
C58 C62 1.392 . S
C59 C58 1.398 1_455 S
C59 C61 1.372 . S
C59 H76 0.931 . S
C60 C57 1.382 1_455 S
C60 C61 1.390 . S
C60 H77 0.931 . S
C61 C59 1.372 . S
C61 C60 1.390 . S
C61 H78 0.929 . S
C62 C57 1.390 . S
C62 C58 1.392 . S
C62 H79 0.930 . S
C63 O48 1.255 . S
C63 O49 1.257 . S
C64 Eu0 2.787 . S
C64 O44 1.252 . S
C64 O47 1.268 . S
C64 C57 1.506 1_554 S
C65 C32 1.439 . S
C65 H42 0.931 . S
C65 C66 1.374 . S
C66 C37 1.387 1_545 S
C66 H43 0.931 . S
C66 C65 1.374 . S
C67 O51 1.249 . S
C67 O52 1.264 . S
C68 C71 1.382 . S
C68 C72 1.390 . S
C68 C75 1.506 . S
C69 C70 1.398 . S
C69 C72 1.392 . S
C70 C69 1.398 . S
C70 C73 1.372 . S
C70 H80 0.931 . S
C71 C68 1.382 . S
C71 C73 1.390 . S
C71 H81 0.931 . S
C72 C68 1.390 . S
C72 C69 1.392 . S
C72 H82 0.930 . S
C73 C70 1.372 . S
C73 C71 1.390 . S
C73 H83 0.929 . S
C74 O54 1.255 . S
C74 O55 1.257 . S
C75 Eu11 2.787 . S
C75 O50 1.252 . S
C75 O53 1.268 . S
C75 C68 1.506 . S
H76 C59 0.931 . S
H77 C60 0.931 . S
H78 C61 0.929 . S
H79 C62 0.930 . S
H80 C70 0.931 . S
H81 C71 0.931 . S
H82 C72 0.930 . S
H83 C73 0.929 . S
Eu84 N113 2.600 1_565 S
Eu84 N119 2.562 . S
Eu84 O128 2.462 . S
Eu84 O129 2.373 . S
Eu84 O131 2.432 . S
Eu84 O132 2.291 . S
Eu84 O136 2.335 . S
Eu84 O139 2.372 . S
Eu84 C148 2.787 . S
C85 N86 1.365 . S
C85 C88 1.405 . S
C85 C92 1.448 . S
N86 C85 1.365 . S
N86 C89 1.319 . S
N86 Eu95 2.600 . S
C87 C89 1.397 . S
C87 C90 1.367 . S
C87 H107 0.931 . S
C88 C85 1.405 . S
C88 C90 1.403 . S
C88 C94 1.439 1_455 S
C89 N86 1.319 . S
C89 C87 1.397 . S
C89 H100 0.930 . S
C90 C87 1.367 . S
C90 C88 1.403 . S
C90 H111 0.929 1_455 S
C91 C92 1.430 . S
C91 C93 1.387 1_455 S
C91 C97 1.404 . S
C92 C85 1.448 . S
C92 C91 1.430 . S
C92 N96 1.351 . S
C93 C91 1.387 1_655 S
C93 C94 1.374 . S
C93 H108 0.931 . S
C94 C88 1.439 1_655 S
C94 C93 1.374 . S
C94 H109 0.931 . S
Eu95 N86 2.600 . S
Eu95 N96 2.562 . S
Eu95 O130 2.335 . S
Eu95 O133 2.372 . S
Eu95 O134 2.462 . S
Eu95 O135 2.373 . S
Eu95 O137 2.432 . S
Eu95 O138 2.291 . S
Eu95 C159 2.787 . S
N96 C92 1.351 . S
N96 Eu95 2.562 . S
N96 C98 1.325 . S
C97 C91 1.404 . S
C97 C99 1.366 . S
C97 H105 0.930 1_455 S
C98 N96 1.325 . S
C98 C99 1.416 . S
C98 H104 0.929 . S
C99 C97 1.366 . S
C99 C98 1.416 . S
C99 H101 0.930 . S
H100 C89 0.930 . S
H101 C99 0.930 . S
H102 C117 0.930 . S
H103 C124 0.930 . S
H104 C98 0.929 . S
H105 C97 0.930 1_655 S
H106 C120 0.929 . S
H107 C87 0.931 . S
H108 C93 0.931 . S
H109 C94 0.931 . S
H110 C115 0.931 . S
H111 C90 0.929 1_655 S
H112 C123 0.930 1_455 S
N113 Eu84 2.600 1_545 S
N113 C114 1.365 . S
N113 C117 1.319 . S
C114 N113 1.365 . S
C114 C116 1.406 1_655 S
C114 C122 1.448 . S
C115 H110 0.931 . S
C115 C117 1.397 . S
C115 C118 1.367 1_655 S
C116 C114 1.406 1_455 S
C116 C118 1.396 . S
C116 C149 1.446 . S
C117 H102 0.930 . S
C117 N113 1.319 . S
C117 C115 1.397 . S
C118 C115 1.367 1_455 S
C118 C116 1.396 . S
C118 H125 0.929 . S
N119 Eu84 2.562 . S
N119 C120 1.325 . S
N119 C122 1.351 1_565 S
C120 H106 0.929 . S
C120 N119 1.325 . S
C120 C124 1.416 . S
C121 C122 1.430 . S
C121 C123 1.404 . S
C121 C150 1.387 1_655 S
C122 C114 1.448 . S
C122 N119 1.351 1_545 S
C122 C121 1.430 . S
C123 H112 0.930 1_655 S
C123 C121 1.404 . S
C123 C124 1.366 1_545 S
C124 H103 0.930 . S
C124 C120 1.416 . S
C124 C123 1.366 1_565 S
H125 C118 0.929 . S
H126 C149 0.931 . S
H127 C150 0.931 . S
O128 Eu84 2.462 . S
O128 C148 1.252 . S
O129 Eu84 2.373 . S
O129 C140 1.249 . S
O130 Eu95 2.335 . S
O130 C140 1.264 . S
O131 Eu84 2.432 . S
O131 C148 1.268 . S
O132 Eu84 2.291 . S
O132 C147 1.255 . S
O133 Eu95 2.372 . S
O133 C147 1.257 . S
O134 Eu95 2.462 . S
O134 C159 1.252 . S
O135 Eu95 2.373 . S
O135 C151 1.249 . S
O136 Eu84 2.335 . S
O136 C151 1.264 . S
O137 Eu95 2.432 . S
O137 C159 1.268 . S
O138 Eu95 2.291 . S
O138 C158 1.255 . S
O139 Eu84 2.372 . S
O139 C158 1.257 . S
C140 O129 1.249 . S
C140 O130 1.264 . S
C141 C144 1.382 1_565 S
C141 C146 1.390 . S
C141 C148 1.506 . S
C142 C143 1.398 1_565 S
C142 C146 1.392 . S
C143 C142 1.398 1_545 S
C143 C145 1.372 . S
C143 H160 0.931 . S
C144 C141 1.382 1_545 S
C144 C145 1.390 . S
C144 H161 0.931 . S
C145 C143 1.372 . S
C145 C144 1.390 . S
C145 H162 0.929 . S
C146 C141 1.390 . S
C146 C142 1.392 . S
C146 H163 0.930 . S
C147 O132 1.255 . S
C147 O133 1.257 . S
C148 Eu84 2.787 . S
C148 O128 1.252 . S
C148 O131 1.268 . S
C148 C141 1.506 . S
C149 C116 1.446 . S
C149 H126 0.931 . S
C149 C150 1.374 . S
C150 C121 1.387 1_455 S
C150 H127 0.931 . S
C150 C149 1.374 . S
C151 O135 1.249 . S
C151 O136 1.264 . S
C152 C155 1.382 . S
C152 C156 1.390 . S
C152 C159 1.506 . S
C153 C154 1.398 . S
C153 C156 1.392 . S
C154 C153 1.398 . S
C154 C157 1.372 . S
C154 H164 0.931 . S
C155 C152 1.382 . S
C155 C157 1.390 . S
C155 H165 0.931 . S
C156 C152 1.390 . S
C156 C153 1.392 . S
C156 H166 0.930 . S
C157 C154 1.372 . S
C157 C155 1.390 . S
C157 H167 0.929 . S
C158 O138 1.255 . S
C158 O139 1.257 . S
C159 Eu95 2.787 . S
C159 O134 1.252 . S
C159 O137 1.268 . S
C159 C152 1.506 . S
H160 C143 0.931 . S
H161 C144 0.931 . S
H162 C145 0.929 . S
H163 C146 0.930 . S
H164 C154 0.931 . S
H165 C155 0.931 . S
H166 C156 0.930 . S
H167 C157 0.929 . S
Eu168 N197 2.600 1_655 S
Eu168 N203 2.562 1_655 S
Eu168 O212 2.462 . S
Eu168 O213 2.373 . S
Eu168 O215 2.432 1_654 S
Eu168 O216 2.291 . S
Eu168 O220 2.335 . S
Eu168 O223 2.372 . S
Eu168 C232 2.787 1_654 S
C169 N170 1.365 . S
C169 C172 1.405 . S
C169 C176 1.448 . S
N170 C169 1.365 . S
N170 C173 1.319 . S
N170 Eu179 2.600 . S
C171 C173 1.397 . S
C171 C174 1.367 . S
C171 H191 0.931 . S
C172 C169 1.405 . S
C172 C174 1.403 . S
C172 C178 1.439 . S
C173 N170 1.319 . S
C173 C171 1.397 . S
C173 H184 0.930 . S
C174 C171 1.367 . S
C174 C172 1.403 . S
C174 H195 0.929 . S
C175 C176 1.430 . S
C175 C177 1.387 . S
C175 C181 1.404 . S
C176 C169 1.448 . S
C176 C175 1.430 . S
C176 N180 1.351 . S
C177 C175 1.387 . S
C177 C178 1.374 . S
C177 H192 0.931 . S
C178 C172 1.439 . S
C178 C177 1.374 . S
C178 H193 0.931 . S
Eu179 N170 2.600 . S
Eu179 N180 2.562 . S
Eu179 O214 2.335 1_565 S
Eu179 O217 2.372 . S
Eu179 O218 2.462 . S
Eu179 O219 2.373 . S
Eu179 O221 2.432 . S
Eu179 O222 2.291 . S
Eu179 C243 2.787 . S
N180 C176 1.351 . S
N180 Eu179 2.562 . S
N180 C182 1.325 . S
C181 C175 1.404 . S
C181 C183 1.366 . S
C181 H189 0.930 . S
C182 N180 1.325 . S
C182 C183 1.416 . S
C182 H188 0.929 . S
C183 C181 1.366 . S
C183 C182 1.416 . S
C183 H185 0.930 . S
H184 C173 0.930 . S
H185 C183 0.930 . S
H186 C201 0.930 . S
H187 C208 0.930 1_655 S
H188 C182 0.929 . S
H189 C181 0.930 . S
H190 C204 0.929 . S
H191 C171 0.931 . S
H192 C177 0.931 . S
H193 C178 0.931 . S
H194 C199 0.931 . S
H195 C174 0.929 . S
H196 C207 0.930 . S
N197 Eu168 2.600 1_455 S
N197 C198 1.365 . S
N197 C201 1.319 . S
C198 N197 1.365 . S
C198 C200 1.405 . S
C198 C206 1.448 . S
C199 H194 0.931 . S
C199 C201 1.397 . S
C199 C202 1.367 . S
C200 C198 1.405 . S
C200 C202 1.403 . S
C200 C233 1.439 . S
C201 H186 0.930 . S
C201 N197 1.319 . S
C201 C199 1.397 . S
C202 C199 1.367 . S
C202 C200 1.403 . S
C202 H209 0.929 . S
N203 Eu168 2.562 1_455 S
N203 C204 1.325 1_455 S
N203 C206 1.351 . S
C204 H190 0.929 . S
C204 N203 1.325 1_655 S
C204 C208 1.416 1_655 S
C205 C206 1.430 . S
C205 C207 1.404 . S
C205 C234 1.387 . S
C206 C198 1.448 . S
C206 N203 1.351 . S
C206 C205 1.430 . S
C207 H196 0.930 . S
C207 C205 1.404 . S
C207 C208 1.366 . S
C208 H187 0.930 1_455 S
C208 C204 1.416 1_455 S
C208 C207 1.366 . S
H209 C202 0.929 . S
H210 C233 0.931 . S
H211 C234 0.931 . S
O212 Eu168 2.462 . S
O212 C232 1.252 1_654 S
O213 Eu168 2.373 . S
O213 C224 1.249 . S
O214 Eu179 2.335 1_545 S
O214 C224 1.264 . S
O215 Eu168 2.432 1_456 S
O215 C232 1.268 . S
O216 Eu168 2.291 . S
O216 C231 1.255 1_545 S
O217 Eu179 2.372 . S
O217 C231 1.257 . S
O218 Eu179 2.462 . S
O218 C243 1.252 . S
O219 Eu179 2.373 . S
O219 C235 1.249 . S
O220 Eu168 2.335 . S
O220 C235 1.264 1_545 S
O221 Eu179 2.432 . S
O221 C243 1.268 . S
O222 Eu179 2.291 . S
O222 C242 1.255 1_565 S
O223 Eu168 2.372 . S
O223 C242 1.257 . S
C224 O213 1.249 . S
C224 O214 1.264 . S
C225 C228 1.382 . S
C225 C230 1.390 1_455 S
C225 C232 1.506 . S
C226 C227 1.398 . S
C226 C230 1.392 1_455 S
C227 C226 1.398 . S
C227 C229 1.372 . S
C227 H244 0.931 . S
C228 C225 1.382 . S
C228 C229 1.390 . S
C228 H245 0.931 . S
C229 C227 1.372 . S
C229 C228 1.390 . S
C229 H246 0.929 . S
C230 C225 1.390 1_655 S
C230 C226 1.392 1_655 S
C230 H247 0.930 . S
C231 O216 1.255 1_565 S
C231 O217 1.257 . S
C232 Eu168 2.787 1_456 S
C232 O212 1.252 1_456 S
C232 O215 1.268 . S
C232 C225 1.506 . S
C233 C200 1.439 . S
C233 H210 0.931 . S
C233 C234 1.374 . S
C234 C205 1.387 . S
C234 H211 0.931 . S
C234 C233 1.374 . S
C235 O219 1.249 . S
C235 O220 1.264 1_565 S
C236 C239 1.382 . S
C236 C240 1.390 . S
C236 C243 1.506 . S
C237 C238 1.398 . S
C237 C240 1.392 . S
C238 C237 1.398 . S
C238 C241 1.372 . S
C238 H248 0.931 . S
C239 C236 1.382 . S
C239 C241 1.390 . S
C239 H249 0.931 . S
C240 C236 1.390 . S
C240 C237 1.392 . S
C240 H250 0.930 . S
C241 C238 1.372 . S
C241 C239 1.390 . S
C241 H251 0.929 . S
C242 O222 1.255 1_545 S
C242 O223 1.257 . S
C243 Eu179 2.787 . S
C243 O218 1.252 . S
C243 O221 1.268 . S
C243 C236 1.506 . S
H244 C227 0.931 . S
H245 C228 0.931 . S
H246 C229 0.929 . S
H247 C230 0.930 . S
H248 C238 0.931 . S
H249 C239 0.931 . S
H250 C240 0.930 . S
H251 C241 0.929 . S
Eu252 N281 2.600 1_565 S
Eu252 N287 2.562 1_565 S
Eu252 O296 2.462 . S
Eu252 O297 2.373 . S
Eu252 O299 2.432 1_565 S
Eu252 O300 2.291 . S
Eu252 O304 2.335 . S
Eu252 O307 2.372 . S
Eu252 C316 2.787 1_565 S
C253 N254 1.365 . S
C253 C256 1.405 . S
C253 C260 1.448 . S
N254 C253 1.365 . S
N254 C257 1.319 . S
N254 Eu263 2.600 . S
C255 C257 1.397 . S
C255 C258 1.367 . S
C255 H275 0.931 . S
C256 C253 1.405 . S
C256 C258 1.403 . S
C256 C262 1.439 . S
C257 N254 1.319 . S
C257 C255 1.397 . S
C257 H268 0.930 . S
C258 C255 1.367 . S
C258 C256 1.403 . S
C258 H279 0.929 . S
C259 C260 1.430 . S
C259 C261 1.387 . S
C259 C265 1.404 . S
C260 C253 1.448 . S
C260 C259 1.430 . S
C260 N264 1.351 . S
C261 C259 1.387 . S
C261 C262 1.374 . S
C261 H276 0.931 . S
C262 C256 1.439 . S
C262 C261 1.374 . S
C262 H277 0.931 . S
Eu263 N254 2.600 . S
Eu263 N264 2.562 . S
Eu263 O298 2.335 1_655 S
Eu263 O301 2.372 . S
Eu263 O302 2.462 . S
Eu263 O303 2.373 . S
Eu263 O305 2.432 . S
Eu263 O306 2.291 . S
Eu263 C327 2.787 . S
N264 C260 1.351 . S
N264 Eu263 2.562 . S
N264 C266 1.325 . S
C265 C259 1.404 . S
C265 C267 1.366 . S
C265 H273 0.930 . S
C266 N264 1.325 . S
C266 C267 1.416 . S
C266 H272 0.929 . S
C267 C265 1.366 . S
C267 C266 1.416 . S
C267 H269 0.930 . S
H268 C257 0.930 . S
H269 C267 0.930 . S
H270 C285 0.930 . S
H271 C292 0.930 1_565 S
H272 C266 0.929 . S
H273 C265 0.930 . S
H274 C288 0.929 . S
H275 C255 0.931 . S
H276 C261 0.931 . S
H277 C262 0.931 . S
H278 C283 0.931 . S
H279 C258 0.929 . S
H280 C291 0.930 . S
N281 Eu252 2.600 1_545 S
N281 C282 1.365 . S
N281 C285 1.319 . S
C282 N281 1.365 . S
C282 C284 1.405 . S
C282 C290 1.448 . S
C283 H278 0.931 . S
C283 C285 1.397 . S
C283 C286 1.367 . S
C284 C282 1.405 . S
C284 C286 1.403 . S
C284 C317 1.439 . S
C285 H270 0.930 . S
C285 N281 1.319 . S
C285 C283 1.397 . S
C286 C283 1.367 . S
C286 C284 1.403 . S
C286 H293 0.929 . S
N287 Eu252 2.562 1_545 S
N287 C288 1.325 1_545 S
N287 C290 1.351 . S
C288 H274 0.929 . S
C288 N287 1.325 1_565 S
C288 C292 1.416 1_565 S
C289 C290 1.430 . S
C289 C291 1.404 . S
C289 C318 1.387 . S
C290 C282 1.448 . S
C290 N287 1.351 . S
C290 C289 1.430 . S
C291 H280 0.930 . S
C291 C289 1.404 . S
C291 C292 1.366 . S
C292 H271 0.930 1_545 S
C292 C288 1.416 1_545 S
C292 C291 1.366 . S
H293 C286 0.929 . S
H294 C317 0.931 . S
H295 C318 0.931 . S
O296 Eu252 2.462 . S
O296 C316 1.252 1_565 S
O297 Eu252 2.373 . S
O297 C308 1.249 . S
O298 Eu263 2.335 1_455 S
O298 C308 1.264 . S
O299 Eu252 2.432 1_545 S
O299 C316 1.268 . S
O300 Eu252 2.291 . S
O300 C315 1.255 1_455 S
O301 Eu263 2.372 . S
O301 C315 1.257 . S
O302 Eu263 2.462 . S
O302 C327 1.252 . S
O303 Eu263 2.373 . S
O303 C319 1.249 . S
O304 Eu252 2.335 . S
O304 C319 1.264 1_455 S
O305 Eu263 2.432 . S
O305 C327 1.268 . S
O306 Eu263 2.291 . S
O306 C326 1.255 1_655 S
O307 Eu252 2.372 . S
O307 C326 1.257 . S
C308 O297 1.249 . S
C308 O298 1.264 . S
C309 C312 1.382 . S
C309 C314 1.390 1_545 S
C309 C316 1.506 . S
C310 C311 1.398 . S
C310 C314 1.392 1_545 S
C311 C310 1.398 . S
C311 C313 1.372 . S
C311 H328 0.931 . S
C312 C309 1.382 . S
C312 C313 1.390 . S
C312 H329 0.931 . S
C313 C311 1.372 . S
C313 C312 1.390 . S
C313 H330 0.929 . S
C314 C309 1.390 1_565 S
C314 C310 1.392 1_565 S
C314 H331 0.930 . S
C315 O300 1.255 1_655 S
C315 O301 1.257 . S
C316 Eu252 2.787 1_545 S
C316 O296 1.252 1_545 S
C316 O299 1.268 . S
C316 C309 1.506 . S
C317 C284 1.439 . S
C317 H294 0.931 . S
C317 C318 1.374 . S
C318 C289 1.387 . S
C318 H295 0.931 . S
C318 C317 1.374 . S
C319 O303 1.249 . S
C319 O304 1.264 1_655 S
C320 C323 1.382 . S
C320 C324 1.390 . S
C320 C327 1.506 . S
C321 C322 1.398 . S
C321 C324 1.392 . S
C322 C321 1.398 . S
C322 C325 1.372 . S
C322 H332 0.931 . S
C323 C320 1.382 . S
C323 C325 1.390 . S
C323 H333 0.931 . S
C324 C320 1.390 . S
C324 C321 1.392 . S
C324 H334 0.930 . S
C325 C322 1.372 . S
C325 C323 1.390 . S
C325 H335 0.929 . S
C326 O306 1.255 1_455 S
C326 O307 1.257 . S
C327 Eu263 2.787 . S
C327 O302 1.252 . S
C327 O305 1.268 . S
C327 C320 1.506 . S
H328 C311 0.931 . S
H329 C312 0.931 . S
H330 C313 0.929 . S
H331 C314 0.930 . S
H332 C322 0.931 . S
H333 C323 0.931 . S
H334 C324 0.930 . S
H335 C325 0.929 . S
C336 C337 1.349 . S
C336 C338 1.327 1_655 S
C336 H361 0.950 . S
C337 C336 1.349 . S
C337 C353 1.349 . S
C338 C336 1.327 1_455 S
C338 C357 1.429 . S
C338 H362 0.950 . S
C339 C356 1.574 . S
C339 C358 1.368 . S
C339 H363 0.949 . S
H340 C344 0.949 . S
C341 C342 1.349 . S
C341 C343 1.327 . S
C341 H364 0.950 . S
C342 C341 1.349 . S
C342 C354 1.349 . S
C343 C341 1.327 . S
C343 C359 1.429 . S
C343 H365 0.950 . S
C344 H340 0.949 . S
C344 C352 1.574 . S
C344 C360 1.368 . S
H345 C353 0.950 . S
H346 C351 0.950 . S
H347 C352 0.949 . S
H348 C354 0.950 . S
H349 C355 0.950 . S
H350 C356 0.949 . S
C351 H346 0.950 . S
C351 C353 1.327 1_455 S
C351 C357 1.429 . S
C352 C344 1.574 . S
C352 H347 0.949 . S
C352 C358 1.368 . S
C353 C337 1.349 . S
C353 H345 0.950 . S
C353 C351 1.327 1_655 S
C354 C342 1.349 . S
C354 H348 0.950 . S
C354 C355 1.327 . S
C355 H349 0.950 . S
C355 C354 1.327 . S
C355 C359 1.429 . S
C356 C339 1.574 . S
C356 H350 0.949 . S
C356 C360 1.368 . S
C357 C338 1.429 . S
C357 C351 1.429 . S
C357 C358 1.523 . S
C358 C339 1.368 . S
C358 C352 1.368 . S
C358 C357 1.523 . S
C359 C343 1.429 . S
C359 C355 1.429 . S
C359 C360 1.523 . S
C360 C344 1.368 . S
C360 C356 1.368 . S
C360 C359 1.523 . S
H361 C336 0.950 . S
H362 C338 0.950 . S
H363 C339 0.949 . S
H364 C341 0.950 . S
H365 C343 0.950 . S
C366 C367 1.349 . S
C366 C368 1.327 1_565 S
C366 H391 0.950 . S
C367 C366 1.349 . S
C367 C383 1.349 . S
C368 C366 1.327 1_545 S
C368 C387 1.429 . S
C368 H392 0.950 . S
C369 C386 1.574 . S
C369 C388 1.368 . S
C369 H393 0.949 . S
H370 C374 0.949 . S
C371 C372 1.349 . S
C371 C373 1.327 . S
C371 H394 0.950 . S
C372 C371 1.349 . S
C372 C384 1.349 . S
C373 C371 1.327 . S
C373 C389 1.429 . S
C373 H395 0.950 . S
C374 H370 0.949 . S
C374 C382 1.574 . S
C374 C390 1.368 . S
H375 C383 0.944 . S
H376 C381 0.950 1_545 S
H377 C382 0.949 . S
H378 C384 0.950 . S
H379 C385 0.950 . S
H380 C386 0.949 . S
C381 H376 0.950 1_565 S
C381 C383 1.327 . S
C381 C387 1.429 1_565 S
C382 C374 1.574 . S
C382 H377 0.949 . S
C382 C388 1.368 . S
C383 C367 1.349 . S
C383 H375 0.944 . S
C383 C381 1.327 . S
C384 C372 1.349 . S
C384 H378 0.950 . S
C384 C385 1.327 . S
C385 H379 0.950 . S
C385 C384 1.327 . S
C385 C389 1.429 . S
C386 C369 1.574 . S
C386 H380 0.949 . S
C386 C390 1.368 . S
C387 C368 1.429 . S
C387 C381 1.429 1_545 S
C387 C388 1.523 . S
C388 C369 1.368 . S
C388 C382 1.368 . S
C388 C387 1.523 . S
C389 C373 1.429 . S
C389 C385 1.429 . S
C389 C390 1.523 . S
C390 C374 1.368 . S
C390 C386 1.368 . S
C390 C389 1.523 . S
H391 C366 0.950 . S
H392 C368 0.950 . S
H393 C369 0.949 . S
H394 C371 0.950 . S
H395 C373 0.950 . S
C396 C397 1.349 1_565 S
C396 C398 1.327 1_565 S
C396 H421 0.950 . S
C397 C396 1.349 1_545 S
C397 C413 1.349 . S
C398 C396 1.327 1_545 S
C398 C417 1.429 . S
C398 H422 0.950 . S
C399 C416 1.574 . S
C399 C418 1.368 . S
C399 H423 0.949 . S
H400 C404 0.949 . S
C401 C402 1.349 . S
C401 C403 1.327 . S
C401 H424 0.950 . S
C402 C401 1.349 . S
C402 C414 1.349 . S
C403 C401 1.327 . S
C403 C419 1.429 . S
C403 H425 0.950 . S
C404 H400 0.949 . S
C404 C412 1.574 . S
C404 C420 1.368 . S
H405 C413 0.950 . S
H406 C411 0.950 . S
H407 C412 0.949 . S
H408 C414 0.950 . S
H409 C415 0.950 . S
H410 C416 0.949 . S
C411 H406 0.950 . S
C411 C413 1.327 . S
C411 C417 1.429 . S
C412 C404 1.574 . S
C412 H407 0.949 . S
C412 C418 1.368 . S
C413 C397 1.349 . S
C413 H405 0.950 . S
C413 C411 1.327 . S
C414 C402 1.349 . S
C414 H408 0.950 . S
C414 C415 1.327 . S
C415 H409 0.950 . S
C415 C414 1.327 . S
C415 C419 1.429 . S
C416 C399 1.574 . S
C416 H410 0.949 . S
C416 C420 1.368 . S
C417 C398 1.429 . S
C417 C411 1.429 . S
C417 C418 1.523 . S
C418 C399 1.368 . S
C418 C412 1.368 . S
C418 C417 1.523 . S
C419 C403 1.429 . S
C419 C415 1.429 . S
C419 C420 1.523 . S
C420 C404 1.368 . S
C420 C416 1.368 . S
C420 C419 1.523 . S
H421 C396 0.950 . S
H422 C398 0.950 . S
H423 C399 0.949 . S
H424 C401 0.950 . S
H425 C403 0.950 . S
C426 C427 1.349 . S
C426 C428 1.327 . S
C426 H451 0.950 . S
C427 C426 1.349 . S
C427 C443 1.349 . S
C428 C426 1.327 . S
C428 C447 1.429 . S
C428 H452 0.950 . S
C429 C446 1.574 . S
C429 C448 1.368 . S
C429 H453 0.949 . S
H430 C434 0.949 . S
C431 C432 1.349 1_655 S
C431 C433 1.327 1_655 S
C431 H454 0.950 . S
C432 C431 1.349 1_455 S
C432 C444 1.349 . S
C433 C431 1.327 1_455 S
C433 C449 1.429 . S
C433 H455 0.950 . S
C434 H430 0.949 . S
C434 C442 1.574 . S
C434 C450 1.368 . S
H435 C443 0.950 . S
H436 C441 0.950 . S
H437 C442 0.949 . S
H438 C444 0.950 . S
H439 C445 0.950 . S
H440 C446 0.949 . S
C441 H436 0.950 . S
C441 C443 1.327 . S
C441 C447 1.429 . S
C442 C434 1.574 . S
C442 H437 0.949 . S
C442 C448 1.368 . S
C443 C427 1.349 . S
C443 H435 0.950 . S
C443 C441 1.327 . S
C444 C432 1.349 . S
C444 H438 0.950 . S
C444 C445 1.327 . S
C445 H439 0.950 . S
C445 C444 1.327 . S
C445 C449 1.429 . S
C446 C429 1.574 . S
C446 H440 0.949 . S
C446 C450 1.368 . S
C447 C428 1.429 . S
C447 C441 1.429 . S
C447 C448 1.523 . S
C448 C429 1.368 . S
C448 C442 1.368 . S
C448 C447 1.523 . S
C449 C433 1.429 . S
C449 C445 1.429 . S
C449 C450 1.523 . S
C450 C434 1.368 . S
C450 C446 1.368 . S
C450 C449 1.523 . S
H451 C426 0.950 . S
H452 C428 0.950 . S
H453 C429 0.949 . S
H454 C431 0.950 . S
H455 C433 0.950 . S
C456 C457 1.349 . S
C456 C458 1.327 . S
C456 H481 0.950 . S
C457 C456 1.349 . S
C457 C473 1.349 . S
C458 C456 1.327 . S
C458 C477 1.429 . S
C458 H482 0.950 . S
C459 C476 1.574 . S
C459 C478 1.368 . S
C459 H483 0.949 . S
H460 C464 0.949 . S
C461 C462 1.349 . S
C461 C463 1.327 . S
C461 H484 0.950 . S
C462 C461 1.349 . S
C462 C474 1.349 . S
C463 C461 1.327 . S
C463 C479 1.429 . S
C463 H485 0.950 . S
C464 H460 0.949 . S
C464 C472 1.574 . S
C464 C480 1.368 . S
H465 C473 0.950 . S
H466 C471 0.950 . S
H467 C472 0.949 . S
H468 C474 0.950 . S
H469 C475 0.950 . S
H470 C476 0.949 . S
C471 H466 0.950 . S
C471 C473 1.327 . S
C471 C477 1.429 . S
C472 C464 1.574 . S
C472 H467 0.949 . S
C472 C478 1.368 . S
C473 C457 1.349 . S
C473 H465 0.950 . S
C473 C471 1.327 . S
C474 C462 1.349 . S
C474 H468 0.950 . S
C474 C475 1.327 . S
C475 H469 0.950 . S
C475 C474 1.327 . S
C475 C479 1.429 . S
C476 C459 1.574 . S
C476 H470 0.949 . S
C476 C480 1.368 . S
C477 C458 1.429 . S
C477 C471 1.429 . S
C477 C478 1.523 . S
C478 C459 1.368 . S
C478 C472 1.368 . S
C478 C477 1.523 . S
C479 C463 1.429 . S
C479 C475 1.429 . S
C479 C480 1.523 . S
C480 C464 1.368 . S
C480 C476 1.368 . S
C480 C479 1.523 . S
H481 C456 0.950 . S
H482 C458 0.950 . S
H483 C459 0.949 . S
H484 C461 0.950 . S
H485 C463 0.950 . S
C486 C487 1.349 . S
C486 C488 1.327 . S
C486 H511 0.950 . S
C487 C486 1.349 . S
C487 C503 1.349 . S
C488 C486 1.327 . S
C488 C507 1.429 . S
C488 H512 0.950 . S
C489 C506 1.574 . S
C489 C508 1.368 . S
C489 H513 0.949 . S
H490 C494 0.949 . S
C491 C492 1.349 . S
C491 C493 1.327 . S
C491 H514 0.950 . S
C492 C491 1.349 . S
C492 C504 1.349 . S
C493 C491 1.327 . S
C493 C509 1.429 . S
C493 H515 0.950 . S
C494 H490 0.949 . S
C494 C502 1.574 . S
C494 C510 1.368 . S
H495 C503 0.950 . S
H496 C501 0.950 . S
H497 C502 0.949 . S
H498 C504 0.962 1_655 S
H499 C505 0.950 . S
H500 C506 0.949 . S
C501 H496 0.950 . S
C501 C503 1.327 . S
C501 C507 1.429 . S
C502 C494 1.574 . S
C502 H497 0.949 . S
C502 C508 1.368 . S
C503 C487 1.349 . S
C503 H495 0.950 . S
C503 C501 1.327 . S
C504 C492 1.349 . S
C504 H498 0.962 1_455 S
C504 C505 1.327 . S
C505 H499 0.950 . S
C505 C504 1.327 . S
C505 C509 1.429 . S
C506 C489 1.574 . S
C506 H500 0.949 . S
C506 C510 1.368 . S
C507 C488 1.429 . S
C507 C501 1.429 . S
C507 C508 1.523 . S
C508 C489 1.368 . S
C508 C502 1.368 . S
C508 C507 1.523 . S
C509 C493 1.429 . S
C509 C505 1.429 . S
C509 C510 1.523 . S
C510 C494 1.368 . S
C510 C506 1.368 . S
C510 C509 1.523 . S
H511 C486 0.950 . S
H512 C488 0.950 . S
H513 C489 0.949 . S
H514 C491 0.950 . S
H515 C493 0.950 . S
C516 C517 1.349 . S
C516 C518 1.327 . S
C516 H541 0.950 . S
C517 C516 1.349 . S
C517 C533 1.349 . S
C518 C516 1.327 . S
C518 C537 1.429 . S
C518 H542 0.950 . S
C519 C536 1.574 . S
C519 C538 1.368 . S
C519 H543 0.949 . S
H520 C524 0.949 . S
C521 C522 1.349 . S
C521 C523 1.327 . S
C521 H544 0.950 . S
C522 C521 1.349 . S
C522 C534 1.349 . S
C523 C521 1.327 . S
C523 C539 1.429 . S
C523 H545 0.950 . S
C524 H520 0.949 . S
C524 C532 1.574 . S
C524 C540 1.368 . S
H525 C533 0.950 . S
H526 C531 0.950 . S
H527 C532 0.949 . S
H528 C534 0.950 . S
H529 C535 0.950 . S
H530 C536 0.949 . S
C531 H526 0.950 . S
C531 C533 1.327 . S
C531 C537 1.429 . S
C532 C524 1.574 . S
C532 H527 0.949 . S
C532 C538 1.368 . S
C533 C517 1.349 . S
C533 H525 0.950 . S
C533 C531 1.327 . S
C534 C522 1.349 . S
C534 H528 0.950 . S
C534 C535 1.327 . S
C535 H529 0.950 . S
C535 C534 1.327 . S
C535 C539 1.429 . S
C536 C519 1.574 . S
C536 H530 0.949 . S
C536 C540 1.368 . S
C537 C518 1.429 . S
C537 C531 1.429 . S
C537 C538 1.523 . S
C538 C519 1.368 . S
C538 C532 1.368 . S
C538 C537 1.523 . S
C539 C523 1.429 . S
C539 C535 1.429 . S
C539 C540 1.523 . S
C540 C524 1.368 . S
C540 C536 1.368 . S
C540 C539 1.523 . S
H541 C516 0.950 . S
H542 C518 0.950 . S
H543 C519 0.949 . S
H544 C521 0.950 . S
H545 C523 0.950 . S
C546 C547 1.349 . S
C546 C548 1.327 . S
C546 H571 0.950 . S
C547 C546 1.349 . S
C547 C563 1.349 . S
C548 C546 1.327 . S
C548 C567 1.429 . S
C548 H572 0.950 . S
C549 C566 1.574 . S
C549 C568 1.368 . S
C549 H573 0.949 . S
H550 C554 0.949 . S
C551 C552 1.349 1_556 S
C551 C553 1.327 . S
C551 H574 0.950 . S
C552 C551 1.349 1_554 S
C552 C564 1.349 1_554 S
C553 C551 1.327 . S
C553 C569 1.429 . S
C553 H575 0.950 . S
C554 H550 0.949 . S
C554 C562 1.574 . S
C554 C570 1.368 . S
H555 C563 0.950 1_565 S
H556 C561 0.950 . S
H557 C562 0.949 . S
H558 C564 0.950 1_554 S
H559 C565 0.950 . S
H560 C566 0.949 . S
C561 H556 0.950 . S
C561 C563 1.327 . S
C561 C567 1.429 . S
C562 C554 1.574 . S
C562 H557 0.949 . S
C562 C568 1.368 . S
C563 C547 1.349 . S
C563 H555 0.950 1_545 S
C563 C561 1.327 . S
C564 C552 1.349 1_556 S
C564 H558 0.950 1_556 S
C564 C565 1.327 . S
C565 H559 0.950 . S
C565 C564 1.327 . S
C565 C569 1.429 . S
C566 C549 1.574 . S
C566 H560 0.949 . S
C566 C570 1.368 . S
C567 C548 1.429 . S
C567 C561 1.429 . S
C567 C568 1.523 . S
C568 C549 1.368 . S
C568 C562 1.368 . S
C568 C567 1.523 . S
C569 C553 1.429 . S
C569 C565 1.429 . S
C569 C570 1.523 . S
C570 C554 1.368 . S
C570 C566 1.368 . S
C570 C569 1.523 . S
H571 C546 0.950 . S
H572 C548 0.950 . S
H573 C549 0.949 . S
H574 C551 0.950 . S
H575 C553 0.950 . S
C576 C577 1.349 . S
C576 C578 1.327 . S
C576 H601 0.950 1_565 S
C577 C576 1.349 . S
C577 C593 1.349 . S
C578 C576 1.327 . S
C578 C597 1.429 . S
C578 H602 0.950 . S
C579 C596 1.574 . S
C579 C598 1.368 . S
C579 H603 0.949 . S
H580 C584 0.949 . S
C581 C582 1.349 . S
C581 C583 1.327 . S
C581 H604 0.950 . S
C582 C581 1.349 . S
C582 C594 1.349 . S
C583 C581 1.327 . S
C583 C599 1.429 . S
C583 H605 0.950 . S
C584 H580 0.949 . S
C584 C592 1.574 . S
C584 C600 1.368 . S
H585 C593 0.950 . S
H586 C591 0.950 . S
H587 C592 0.949 . S
H588 C594 0.950 1_455 S
H589 C595 0.950 . S
H590 C596 0.949 . S
C591 H586 0.950 . S
C591 C593 1.327 . S
C591 C597 1.429 . S
C592 C584 1.574 . S
C592 H587 0.949 . S
C592 C598 1.368 . S
C593 C577 1.349 . S
C593 H585 0.950 . S
C593 C591 1.327 . S
C594 C582 1.349 . S
C594 H588 0.950 1_655 S
C594 C595 1.327 . S
C595 H589 0.950 . S
C595 C594 1.327 . S
C595 C599 1.429 . S
C596 C579 1.574 . S
C596 H590 0.949 . S
C596 C600 1.368 . S
C597 C578 1.429 . S
C597 C591 1.429 . S
C597 C598 1.523 . S
C598 C579 1.368 . S
C598 C592 1.368 . S
C598 C597 1.523 . S
C599 C583 1.429 . S
C599 C595 1.429 . S
C599 C600 1.523 . S
C600 C584 1.368 . S
C600 C596 1.368 . S
C600 C599 1.523 . S
H601 C576 0.950 1_545 S
H602 C578 0.950 . S
H603 C579 0.949 . S
H604 C581 0.950 . S
H605 C583 0.950 . S
C606 C607 1.349 . S
C606 C608 1.327 . S
C606 H631 0.950 . S
C607 C606 1.349 . S
C607 C623 1.349 . S
C608 C606 1.327 . S
C608 C627 1.429 . S
C608 H632 0.950 . S
C609 C626 1.574 . S
C609 C628 1.368 . S
C609 H633 0.949 . S
H610 C614 0.949 . S
C611 C612 1.349 . S
C611 C613 1.327 1_565 S
C611 H634 0.950 1_565 S
C612 C611 1.349 . S
C612 C624 1.349 . S
C613 C611 1.327 1_545 S
C613 C629 1.429 1_545 S
C613 H635 0.950 . S
C614 H610 0.949 . S
C614 C622 1.574 . S
C614 C630 1.368 1_565 S
H615 C623 0.950 . S
H616 C621 0.950 . S
H617 C622 0.949 . S
H618 C624 0.950 . S
H619 C625 0.950 . S
H620 C626 0.949 . S
C621 H616 0.950 . S
C621 C623 1.327 . S
C621 C627 1.429 . S
C622 C614 1.574 . S
C622 H617 0.949 . S
C622 C628 1.368 1_565 S
C623 C607 1.349 . S
C623 H615 0.950 . S
C623 C621 1.327 . S
C624 C612 1.349 . S
C624 H618 0.950 . S
C624 C625 1.327 . S
C625 H619 0.950 . S
C625 C624 1.327 . S
C625 C629 1.429 . S
C626 C609 1.574 . S
C626 H620 0.949 . S
C626 C630 1.368 . S
C627 C608 1.429 . S
C627 C621 1.429 . S
C627 C628 1.523 . S
C628 C609 1.368 . S
C628 C622 1.368 1_545 S
C628 C627 1.523 . S
C629 C613 1.429 1_565 S
C629 C625 1.429 . S
C629 C630 1.523 1_565 S
C630 C614 1.368 1_545 S
C630 C626 1.368 . S
C630 C629 1.523 1_545 S
H631 C606 0.950 . S
H632 C608 0.950 . S
H633 C609 0.949 . S
H634 C611 0.950 1_545 S
H635 C613 0.950 . S
C636 C637 1.349 . S
C636 C638 1.327 . S
C636 H661 0.950 . S
C637 C636 1.349 . S
C637 C653 1.349 . S
C638 C636 1.327 . S
C638 C657 1.429 . S
C638 H662 0.950 . S
C639 C656 1.574 . S
C639 C658 1.368 . S
C639 H663 0.949 . S
H640 C644 0.949 . S
C641 C642 1.349 . S
C641 C643 1.327 . S
C641 H664 0.950 . S
C642 C641 1.349 . S
C642 C654 1.349 . S
C643 C641 1.327 . S
C643 C659 1.429 . S
C643 H665 0.950 . S
C644 H640 0.949 . S
C644 C652 1.574 . S
C644 C660 1.368 . S
H645 C653 0.950 . S
H646 C651 0.950 . S
H647 C652 0.949 . S
H648 C654 0.950 . S
H649 C655 0.950 . S
H650 C656 0.949 . S
C651 H646 0.950 . S
C651 C653 1.327 . S
C651 C657 1.429 . S
C652 C644 1.574 . S
C652 H647 0.949 . S
C652 C658 1.368 . S
C653 C637 1.349 . S
C653 H645 0.950 . S
C653 C651 1.327 . S
C654 C642 1.349 . S
C654 H648 0.950 . S
C654 C655 1.327 . S
C655 H649 0.950 . S
C655 C654 1.327 . S
C655 C659 1.429 . S
C656 C639 1.574 . S
C656 H650 0.949 . S
C656 C660 1.368 . S
C657 C638 1.429 . S
C657 C651 1.429 . S
C657 C658 1.523 . S
C658 C639 1.368 . S
C658 C652 1.368 . S
C658 C657 1.523 . S
C659 C643 1.429 . S
C659 C655 1.429 . S
C659 C660 1.523 . S
C660 C644 1.368 . S
C660 C656 1.368 . S
C660 C659 1.523 . S
H661 C636 0.950 . S
H662 C638 0.950 . S
H663 C639 0.949 . S
H664 C641 0.950 . S
H665 C643 0.950 . S
C666 C667 1.349 . S
C666 C668 1.327 . S
C666 H691 0.950 . S
C667 C666 1.349 . S
C667 C683 1.349 . S
C668 C666 1.327 . S
C668 C687 1.429 . S
C668 H692 0.950 1_655 S
C669 C686 1.574 1_655 S
C669 C688 1.368 1_655 S
C669 H693 0.949 . S
H670 C674 0.949 . S
C671 C672 1.349 . S
C671 C673 1.327 . S
C671 H694 0.950 . S
C672 C671 1.349 . S
C672 C684 1.349 . S
C673 C671 1.327 . S
C673 C689 1.429 . S
C673 H695 0.950 . S
C674 H670 0.949 . S
C674 C682 1.574 . S
C674 C690 1.368 . S
H675 C683 0.950 . S
H676 C681 0.950 . S
H677 C682 0.949 . S
H678 C684 0.950 . S
H679 C685 0.950 . S
H680 C686 0.949 . S
C681 H676 0.950 . S
C681 C683 1.327 . S
C681 C687 1.429 . S
C682 C674 1.574 . S
C682 H677 0.949 . S
C682 C688 1.368 . S
C683 C667 1.349 . S
C683 H675 0.950 . S
C683 C681 1.327 . S
C684 C672 1.349 . S
C684 H678 0.950 . S
C684 C685 1.327 . S
C685 H679 0.950 . S
C685 C684 1.327 . S
C685 C689 1.429 . S
C686 C669 1.574 1_455 S
C686 H680 0.949 . S
C686 C690 1.368 . S
C687 C668 1.429 . S
C687 C681 1.429 . S
C687 C688 1.523 1_655 S
C688 C669 1.368 1_455 S
C688 C682 1.368 . S
C688 C687 1.523 1_455 S
C689 C673 1.429 . S
C689 C685 1.429 . S
C689 C690 1.523 . S
C690 C674 1.368 . S
C690 C686 1.368 . S
C690 C689 1.523 . S
H691 C666 0.950 . S
H692 C668 0.950 1_455 S
H693 C669 0.949 . S
H694 C671 0.950 . S
H695 C673 0.950 . S
C337 C242 0.425 . S
C342 C63 0.425 . S
C367 C326 0.425 . S
C372 C147 0.425 . S
C397 C231 1.568 1_545 S
C402 C74 1.568 . S
C427 C158 1.567 . S
C432 C315 1.567 1_455 S
C457 C140 1.957 . S
C462 C56 1.957 . S
C487 C151 1.100 . S
C492 C226 0.948 . S
C517 C321 1.852 . S
C522 C237 1.852 . S
C547 C310 0.948 . S
C552 C67 1.099 . S
C577 C235 1.957 1_556 S
C582 C319 1.957 . S
C607 C69 0.948 . S
C612 C308 1.099 . S
C637 C142 1.852 . S
C642 C58 1.852 . S
C667 C224 1.099 . S
C672 C153 0.948 . S
