# Generated by pormake.
# Topology uoa, (4)-cn, num edge types: 1
# Building blocks:
#     Node 0, Type 0, BuildingBlock: QUQFOY_clean_sbu_1, # of connection points: 4
#     Node 1, Type 0, BuildingBlock: QUQFOY_clean_sbu_1, # of connection points: 4
#     Node 2, Type 0, BuildingBlock: QUQFOY_clean_sbu_1, # of connection points: 4
#     Node 3, Type 0, BuildingBlock: QUQFOY_clean_sbu_1, # of connection points: 4
#     Node 4, Type 0, BuildingBlock: QUQFOY_clean_sbu_1, # of connection points: 4
#     Node 5, Type 0, BuildingBlock: QUQFOY_clean_sbu_1, # of connection points: 4
#     Node 6, Type 0, BuildingBlock: QUQFOY_clean_sbu_1, # of connection points: 4
#     Node 7, Type 0, BuildingBlock: QUQFOY_clean_sbu_1, # of connection points: 4
#     Node 8, Type 0, BuildingBlock: QUQFOY_clean_sbu_1, # of connection points: 4
#     Node 9, Type 0, BuildingBlock: QUQFOY_clean_sbu_1, # of connection points: 4
#     Node 10, Type 0, BuildingBlock: QUQFOY_clean_sbu_1, # of connection points: 4
#     Node 11, Type 0, BuildingBlock: QUQFOY_clean_sbu_1, # of connection points: 4
#     Node 12, Type 0, BuildingBlock: QUQFOY_clean_sbu_1, # of connection points: 4
#     Node 13, Type 0, BuildingBlock: QUQFOY_clean_sbu_1, # of connection points: 4
#     Node 14, Type 0, BuildingBlock: QUQFOY_clean_sbu_1, # of connection points: 4
#     Node 15, Type 0, BuildingBlock: QUQFOY_clean_sbu_1, # of connection points: 4
#     Node 16, Type 0, BuildingBlock: QUQFOY_clean_sbu_1, # of connection points: 4
#     Node 17, Type 0, BuildingBlock: QUQFOY_clean_sbu_1, # of connection points: 4
#     Node 18, Type 0, BuildingBlock: QUQFOY_clean_sbu_1, # of connection points: 4
#     Node 19, Type 0, BuildingBlock: QUQFOY_clean_sbu_1, # of connection points: 4
#     Node 20, Type 0, BuildingBlock: QUQFOY_clean_sbu_1, # of connection points: 4
#     Node 21, Type 0, BuildingBlock: QUQFOY_clean_sbu_1, # of connection points: 4
#     Node 22, Type 0, BuildingBlock: QUQFOY_clean_sbu_1, # of connection points: 4
#     Node 23, Type 0, BuildingBlock: QUQFOY_clean_sbu_1, # of connection points: 4
#     Node 24, Type 0, BuildingBlock: QUQFOY_clean_sbu_1, # of connection points: 4
#     Node 25, Type 0, BuildingBlock: QUQFOY_clean_sbu_1, # of connection points: 4
#     Node 26, Type 0, BuildingBlock: QUQFOY_clean_sbu_1, # of connection points: 4
#     Node 27, Type 0, BuildingBlock: QUQFOY_clean_sbu_1, # of connection points: 4
#     Node 28, Type 0, BuildingBlock: QUQFOY_clean_sbu_1, # of connection points: 4
#     Node 29, Type 0, BuildingBlock: QUQFOY_clean_sbu_1, # of connection points: 4
#     Node 30, Type 0, BuildingBlock: QUQFOY_clean_sbu_1, # of connection points: 4
#     Node 31, Type 0, BuildingBlock: QUQFOY_clean_sbu_1, # of connection points: 4
#     Edge 32, Type (0, 0), BuildingBlock: XIVTED_clean_linker_0, # of connection points: 2
#     Edge 33, Type (0, 0), BuildingBlock: XIVTED_clean_linker_0, # of connection points: 2
#     Edge 34, Type (0, 0), BuildingBlock: XIVTED_clean_linker_0, # of connection points: 2
#     Edge 35, Type (0, 0), BuildingBlock: XIVTED_clean_linker_0, # of connection points: 2
#     Edge 36, Type (0, 0), BuildingBlock: XIVTED_clean_linker_0, # of connection points: 2
#     Edge 37, Type (0, 0), BuildingBlock: XIVTED_clean_linker_0, # of connection points: 2
#     Edge 38, Type (0, 0), BuildingBlock: XIVTED_clean_linker_0, # of connection points: 2
#     Edge 39, Type (0, 0), BuildingBlock: XIVTED_clean_linker_0, # of connection points: 2
#     Edge 40, Type (0, 0), BuildingBlock: XIVTED_clean_linker_0, # of connection points: 2
#     Edge 41, Type (0, 0), BuildingBlock: XIVTED_clean_linker_0, # of connection points: 2
#     Edge 42, Type (0, 0), BuildingBlock: XIVTED_clean_linker_0, # of connection points: 2
#     Edge 43, Type (0, 0), BuildingBlock: XIVTED_clean_linker_0, # of connection points: 2
#     Edge 44, Type (0, 0), BuildingBlock: XIVTED_clean_linker_0, # of connection points: 2
#     Edge 45, Type (0, 0), BuildingBlock: XIVTED_clean_linker_0, # of connection points: 2
#     Edge 46, Type (0, 0), BuildingBlock: XIVTED_clean_linker_0, # of connection points: 2
#     Edge 47, Type (0, 0), BuildingBlock: XIVTED_clean_linker_0, # of connection points: 2
#     Edge 48, Type (0, 0), BuildingBlock: XIVTED_clean_linker_0, # of connection points: 2
#     Edge 49, Type (0, 0), BuildingBlock: XIVTED_clean_linker_0, # of connection points: 2
#     Edge 50, Type (0, 0), BuildingBlock: XIVTED_clean_linker_0, # of connection points: 2
#     Edge 51, Type (0, 0), BuildingBlock: XIVTED_clean_linker_0, # of connection points: 2
#     Edge 52, Type (0, 0), BuildingBlock: XIVTED_clean_linker_0, # of connection points: 2
#     Edge 53, Type (0, 0), BuildingBlock: XIVTED_clean_linker_0, # of connection points: 2
#     Edge 54, Type (0, 0), BuildingBlock: XIVTED_clean_linker_0, # of connection points: 2
#     Edge 55, Type (0, 0), BuildingBlock: XIVTED_clean_linker_0, # of connection points: 2
#     Edge 56, Type (0, 0), BuildingBlock: XIVTED_clean_linker_0, # of connection points: 2
#     Edge 57, Type (0, 0), BuildingBlock: XIVTED_clean_linker_0, # of connection points: 2
#     Edge 58, Type (0, 0), BuildingBlock: XIVTED_clean_linker_0, # of connection points: 2
#     Edge 59, Type (0, 0), BuildingBlock: XIVTED_clean_linker_0, # of connection points: 2
#     Edge 60, Type (0, 0), BuildingBlock: XIVTED_clean_linker_0, # of connection points: 2
#     Edge 61, Type (0, 0), BuildingBlock: XIVTED_clean_linker_0, # of connection points: 2
#     Edge 62, Type (0, 0), BuildingBlock: XIVTED_clean_linker_0, # of connection points: 2
#     Edge 63, Type (0, 0), BuildingBlock: XIVTED_clean_linker_0, # of connection points: 2
#     Edge 64, Type (0, 0), BuildingBlock: XIVTED_clean_linker_0, # of connection points: 2
#     Edge 65, Type (0, 0), BuildingBlock: XIVTED_clean_linker_0, # of connection points: 2
#     Edge 66, Type (0, 0), BuildingBlock: XIVTED_clean_linker_0, # of connection points: 2
#     Edge 67, Type (0, 0), BuildingBlock: XIVTED_clean_linker_0, # of connection points: 2
#     Edge 68, Type (0, 0), BuildingBlock: XIVTED_clean_linker_0, # of connection points: 2
#     Edge 69, Type (0, 0), BuildingBlock: XIVTED_clean_linker_0, # of connection points: 2
#     Edge 70, Type (0, 0), BuildingBlock: XIVTED_clean_linker_0, # of connection points: 2
#     Edge 71, Type (0, 0), BuildingBlock: XIVTED_clean_linker_0, # of connection points: 2
#     Edge 72, Type (0, 0), BuildingBlock: XIVTED_clean_linker_0, # of connection points: 2
#     Edge 73, Type (0, 0), BuildingBlock: XIVTED_clean_linker_0, # of connection points: 2
#     Edge 74, Type (0, 0), BuildingBlock: XIVTED_clean_linker_0, # of connection points: 2
#     Edge 75, Type (0, 0), BuildingBlock: XIVTED_clean_linker_0, # of connection points: 2
#     Edge 76, Type (0, 0), BuildingBlock: XIVTED_clean_linker_0, # of connection points: 2
#     Edge 77, Type (0, 0), BuildingBlock: XIVTED_clean_linker_0, # of connection points: 2
#     Edge 78, Type (0, 0), BuildingBlock: XIVTED_clean_linker_0, # of connection points: 2
#     Edge 79, Type (0, 0), BuildingBlock: XIVTED_clean_linker_0, # of connection points: 2
#     Edge 80, Type (0, 0), BuildingBlock: XIVTED_clean_linker_0, # of connection points: 2
#     Edge 81, Type (0, 0), BuildingBlock: XIVTED_clean_linker_0, # of connection points: 2
#     Edge 82, Type (0, 0), BuildingBlock: XIVTED_clean_linker_0, # of connection points: 2
#     Edge 83, Type (0, 0), BuildingBlock: XIVTED_clean_linker_0, # of connection points: 2
#     Edge 84, Type (0, 0), BuildingBlock: XIVTED_clean_linker_0, # of connection points: 2
#     Edge 85, Type (0, 0), BuildingBlock: XIVTED_clean_linker_0, # of connection points: 2
#     Edge 86, Type (0, 0), BuildingBlock: XIVTED_clean_linker_0, # of connection points: 2
#     Edge 87, Type (0, 0), BuildingBlock: XIVTED_clean_linker_0, # of connection points: 2
#     Edge 88, Type (0, 0), BuildingBlock: XIVTED_clean_linker_0, # of connection points: 2
#     Edge 89, Type (0, 0), BuildingBlock: XIVTED_clean_linker_0, # of connection points: 2
#     Edge 90, Type (0, 0), BuildingBlock: XIVTED_clean_linker_0, # of connection points: 2
#     Edge 91, Type (0, 0), BuildingBlock: XIVTED_clean_linker_0, # of connection points: 2
#     Edge 92, Type (0, 0), BuildingBlock: XIVTED_clean_linker_0, # of connection points: 2
#     Edge 93, Type (0, 0), BuildingBlock: XIVTED_clean_linker_0, # of connection points: 2
#     Edge 94, Type (0, 0), BuildingBlock: XIVTED_clean_linker_0, # of connection points: 2
#     Edge 95, Type (0, 0), BuildingBlock: XIVTED_clean_linker_0, # of connection points: 2
# Relax obj value: 0.073
# Max RMSD: 0.150
# Mean RMSD: 0.150
data_MOF--net-uoa--node1-QUQFOY_clean_sbu_1--edge1-XIVTED_clean_linker_0
_symmetry_space_group_name_H-M    P1
_symmetry_Int_Tables_number       1
_symmetry_cell_setting            triclinic
loop_
_symmetry_equiv_pos_as_xyz
'x, y, z'
_cell_length_a     79.233264
_cell_length_b     79.177096
_cell_length_c     28.830162
_cell_angle_alpha  90.02176
_cell_angle_beta   90.025724
_cell_angle_gamma 90.016085
loop_
_atom_site_label
_atom_site_type_symbol
_atom_site_fract_x
_atom_site_fract_y
_atom_site_fract_z
_atom_type_partial_charge
O0 O 0.03565 0.09247 0.17011 0.0
Cd1 Cd 0.04672 0.08733 0.10685 0.0
Cd2 Cd 0.01718 0.09851 0.07703 0.0
O3 O 0.0149 0.10821 0.14309 0.0
O4 O 0.07171 0.08906 0.11683 0.0
O5 O 0.05676 0.1079 0.07762 0.0
C6 C 0.07098 0.10347 0.09589 0.0
C7 C 0.01291 0.11381 0.00932 0.0
C8 C 0.02348 0.10263 0.17704 0.0
C9 C 0.02441 0.06203 0.06122 0.0
O10 O 0.01304 0.07314 0.06707 0.0
O11 O 0.03974 0.06553 0.07064 0.0
O12 O 1.00045 0.10966 0.03579 0.0
O13 O 0.02801 0.11046 0.02346 0.0
O14 O 0.16656 0.78673 0.42272 0.0
Cd15 Cd 0.17429 0.79828 0.36212 0.0
Cd16 Cd 0.1627 0.7691 0.32876 0.0
O17 O 0.15179 0.76579 0.39295 0.0
O18 O 0.17467 0.82265 0.38002 0.0
O19 O 0.15658 0.81199 0.32923 0.0
C20 C 0.16156 0.82466 0.35401 0.0
C21 C 0.14844 0.76538 0.2591 0.0
C22 C 0.15648 0.77439 0.42782 0.0
C23 C 0.1999 0.77541 0.32025 0.0
O24 O 0.18813 0.76453 0.32201 0.0
O25 O 0.19692 0.79073 0.33117 0.0
O26 O 0.15215 0.75275 0.28544 0.0
O27 O 0.15171 0.78041 0.27419 0.0
O28 O 0.47677 0.91962 0.67008 0.0
Cd29 Cd 0.46603 0.92475 0.60635 0.0
Cd30 Cd 0.49559 0.91309 0.57791 0.0
O31 O 0.49732 0.90341 0.644 0.0
O32 O 0.44094 0.92288 0.61485 0.0
O33 O 0.45634 0.90413 0.57666 0.0
C34 C 0.44195 0.90845 0.59406 0.0
C35 C 0.49995 0.89771 0.5104 0.0
C36 C 0.48871 0.90923 0.67757 0.0
C37 C 0.489 0.94963 0.56156 0.0
O38 O 0.50016 0.93839 0.56834 0.0
O39 O 0.47353 0.94635 0.56992 0.0
O40 O 0.51236 0.90165 0.53732 0.0
O41 O 0.48485 0.90134 0.52394 0.0
O42 O 0.34329 0.22788 0.92422 0.0
Cd43 Cd 0.33819 0.21707 0.86053 0.0
Cd44 Cd 0.34956 0.24671 0.83212 0.0
O45 O 0.35935 0.24855 0.8981 0.0
O46 O 0.34007 0.19199 0.86928 0.0
O47 O 0.3588 0.20735 0.83094 0.0
C48 C 0.35447 0.19297 0.84843 0.0
C49 C 0.36469 0.25096 0.76419 0.0
C50 C 0.3536 0.2399 0.93168 0.0
C51 C 0.31313 0.23983 0.8158 0.0
O52 O 0.32424 0.25111 0.82281 0.0
O53 O 0.31656 0.22438 0.824 0.0
O54 O 0.3608 0.26343 0.79097 0.0
O55 O 0.36121 0.23586 0.77816 0.0
O56 O 0.03529 0.91763 0.32903 0.0
Cd57 Cd 0.04663 0.92495 0.39036 0.0
Cd58 Cd 0.01758 0.91284 0.42249 0.0
O59 O 0.01439 0.9025 0.35754 0.0
O60 O 0.07106 0.92564 0.37314 0.0
O61 O 0.06035 0.90705 0.42238 0.0
C62 C 0.07307 0.91233 0.39835 0.0
C63 C 0.01488 0.89772 0.491 0.0
C64 C 0.02303 0.9075 0.32311 0.0
C65 C 0.02345 0.94994 0.43438 0.0
O66 O 0.01263 0.93814 0.43154 0.0
O67 O 0.03877 0.94717 0.42317 0.0
O68 O 1.00191 0.90136 0.46583 0.0
O69 O 0.02966 0.90158 0.47526 0.0
O70 O 0.34378 0.78402 0.57553 0.0
Cd71 Cd 0.33804 0.79534 0.63796 0.0
Cd72 Cd 0.34883 0.76547 0.66825 0.0
O73 O 0.35973 0.76358 0.60351 0.0
O74 O 0.3392 0.82039 0.62652 0.0
O75 O 0.35829 0.80618 0.66668 0.0
C76 C 0.35361 0.82014 0.6475 0.0
C77 C 0.36241 0.76479 0.73928 0.0
C78 C 0.3543 0.7721 0.56926 0.0
C79 C 0.31252 0.77242 0.6816 0.0
O80 O 0.32343 0.76093 0.67467 0.0
O81 O 0.31631 0.78784 0.67399 0.0
O82 O 0.36044 0.75112 0.71538 0.0
O83 O 0.35802 0.77896 0.7207 0.0
O84 O 0.47592 0.09079 0.81792 0.0
Cd85 Cd 0.46543 0.0862 0.88228 0.0
Cd86 Cd 0.49534 0.0972 0.90917 0.0
O87 O 0.49672 0.1069 0.843 0.0
O88 O 0.44036 0.08839 0.87457 0.0
O89 O 0.45621 0.10719 0.91123 0.0
C90 C 0.44167 0.10293 0.89459 0.0
C91 C 0.50044 0.11231 0.97667 0.0
C92 C 0.48789 0.10109 0.80982 0.0
C93 C 0.48798 0.06099 0.92719 0.0
O94 O 0.49941 0.07182 0.9189 0.0
O95 O 0.47256 0.06468 0.91959 0.0
O96 O 0.5126 0.10818 0.94913 0.0
O97 O 0.48517 0.10914 0.96359 0.0
O98 O 0.1724 0.22551 0.0683 0.0
Cd99 Cd 0.17674 0.21531 0.13312 0.0
Cd100 Cd 0.16579 0.24543 0.15835 0.0
O101 O 0.15616 0.24641 0.09201 0.0
O102 O 0.1744 0.1902 0.12608 0.0
O103 O 0.15563 0.20633 0.16181 0.0
C104 C 0.1598 0.19169 0.14564 0.0
C105 C 0.15075 0.25061 0.22586 0.0
C106 C 0.16208 0.23739 0.05938 0.0
C107 C 0.20188 0.23808 0.17742 0.0
O108 O 0.19116 0.2495 0.16805 0.0
O109 O 0.19814 0.22261 0.17077 0.0
O110 O 0.15478 0.26275 0.19811 0.0
O111 O 0.15394 0.23532 0.21294 0.0
O112 O 0.97703 0.91573 0.8279 0.0
Cd113 Cd 0.96573 0.92366 0.88863 0.0
Cd114 Cd 0.99541 0.91262 0.92081 0.0
O115 O 0.99864 0.90168 0.85662 0.0
O116 O 0.94144 0.92446 0.87023 0.0
O117 O 0.9516 0.90623 0.92135 0.0
C118 C 0.93911 0.91141 0.89624 0.0
C119 C 0.99888 0.89828 0.99034 0.0
C120 C 0.98958 0.90596 0.82226 0.0
C121 C 0.9886 0.94966 0.9298 0.0
O122 O 0.99971 0.93812 0.92769 0.0
O123 O 0.97331 0.94637 0.91924 0.0
O124 O 0.01161 0.90205 0.96443 0.0
O125 O 0.98391 0.90156 0.97488 0.0
O126 O 0.84502 0.22659 0.57078 0.0
Cd127 Cd 0.83762 0.21559 0.63251 0.0
Cd128 Cd 0.84905 0.24518 0.66294 0.0
O129 O 0.86009 0.24762 0.59879 0.0
O130 O 0.83712 0.19108 0.61607 0.0
O131 O 0.85558 0.20213 0.66519 0.0
C132 C 0.85043 0.18928 0.64142 0.0
C133 C 0.86327 0.24928 0.73229 0.0
C134 C 0.85528 0.23872 0.56464 0.0
C135 C 0.8121 0.23882 0.67382 0.0
O136 O 0.82363 0.24986 0.66956 0.0
O137 O 0.81527 0.22337 0.66472 0.0
O138 O 0.85966 0.26178 0.70536 0.0
O139 O 0.85997 0.23417 0.71787 0.0
O140 O 0.53737 0.09163 0.31746 0.0
Cd141 Cd 0.54744 0.08653 0.38199 0.0
Cd142 Cd 0.5174 0.09742 0.40755 0.0
O143 O 0.51656 0.1078 0.34209 0.0
O144 O 0.57255 0.08862 0.37503 0.0
O145 O 0.55672 0.10725 0.41235 0.0
C146 C 0.57127 0.10305 0.39568 0.0
C147 C 0.51208 0.11176 0.47616 0.0
C148 C 0.52559 0.10212 0.30916 0.0
C149 C 0.5244 0.06103 0.42334 0.0
O150 O 0.51311 0.07198 0.41474 0.0
O151 O 0.53992 0.06474 0.41752 0.0
O152 O 0.50002 0.10808 0.44777 0.0
O153 O 0.52739 0.10861 0.46343 0.0
O154 O 0.66576 0.78519 0.07598 0.0
Cd155 Cd 0.67352 0.79669 0.13665 0.0
Cd156 Cd 0.66235 0.76727 0.16961 0.0
O157 O 0.65152 0.76383 0.10539 0.0
O158 O 0.67398 0.82105 0.11859 0.0
O159 O 0.65588 0.81051 0.16946 0.0
C160 C 0.6609 0.82314 0.14462 0.0
C161 C 0.64784 0.76399 0.2389 0.0
C162 C 0.65592 0.77266 0.07071 0.0
C163 C 0.69938 0.774 0.17884 0.0
O164 O 0.68781 0.76291 0.17699 0.0
O165 O 0.69617 0.78925 0.16772 0.0
O166 O 0.65164 0.75118 0.21329 0.0
O167 O 0.6512 0.77892 0.22329 0.0
O168 O 0.97512 0.09483 0.67092 0.0
Cd169 Cd 0.96432 0.08755 0.60884 0.0
Cd170 Cd 0.99403 0.09892 0.57936 0.0
O171 O 0.99635 0.10984 0.64385 0.0
O172 O 0.93977 0.0872 0.62462 0.0
O173 O 0.9511 0.10563 0.57592 0.0
C174 C 0.93815 0.10056 0.59935 0.0
C175 C 0.99829 0.11308 0.50996 0.0
C176 C 0.98729 0.105 0.67764 0.0
C177 C 0.98755 0.06194 0.56816 0.0
O178 O 0.99858 0.07347 0.57261 0.0
O179 O 0.9721 0.06512 0.57697 0.0
O180 O 0.01072 0.10949 0.53717 0.0
O181 O 0.98316 0.10986 0.52419 0.0
O182 O 0.67164 0.22537 0.42724 0.0
Cd183 Cd 0.6767 0.21526 0.36271 0.0
Cd184 Cd 0.66581 0.2453 0.33704 0.0
O185 O 0.65549 0.24619 0.40253 0.0
O186 O 0.67483 0.19014 0.36995 0.0
O187 O 0.65599 0.20577 0.3328 0.0
C188 C 0.66035 0.19127 0.34955 0.0
C189 C 0.65137 0.25053 0.26858 0.0
C190 C 0.66116 0.23717 0.43549 0.0
C191 C 0.70215 0.23829 0.321 0.0
O192 O 0.69123 0.24961 0.32959 0.0
O193 O 0.69843 0.22277 0.32696 0.0
O194 O 0.65509 0.26263 0.29683 0.0
O195 O 0.65457 0.23523 0.28138 0.0
O196 O 0.53605 0.91743 0.17261 0.0
Cd197 Cd 0.54706 0.92478 0.11089 0.0
Cd198 Cd 0.5173 0.91373 0.08048 0.0
O199 O 0.51478 0.90267 0.14464 0.0
O200 O 0.57155 0.9251 0.12728 0.0
O201 O 0.56036 0.90675 0.07806 0.0
C202 C 0.57325 0.9118 0.10182 0.0
C203 C 0.513 0.89958 0.01108 0.0
C204 C 0.52378 0.90732 0.17876 0.0
C205 C 0.52414 0.95062 0.0698 0.0
O206 O 0.51296 0.93922 0.0739 0.0
O207 O 0.53952 0.94726 0.07898 0.0
O208 O 0.50057 0.90333 0.03808 0.0
O209 O 0.52814 0.90269 0.02545 0.0
O210 O 0.84338 0.78791 0.92178 0.0
Cd211 Cd 0.83631 0.79877 0.85967 0.0
Cd212 Cd 0.84741 0.76893 0.83013 0.0
O213 O 0.8582 0.76653 0.89478 0.0
O214 O 0.83609 0.82332 0.87561 0.0
O215 O 0.85453 0.81189 0.82714 0.0
C216 C 0.84951 0.82487 0.85059 0.0
C217 C 0.86172 0.76462 0.76102 0.0
C218 C 0.85343 0.77565 0.92854 0.0
C219 C 0.81056 0.77582 0.81832 0.0
O220 O 0.82194 0.76463 0.82279 0.0
O221 O 0.8139 0.79122 0.82744 0.0
O222 O 0.85795 0.75219 0.78801 0.0
O223 O 0.85858 0.77977 0.7753 0.0
O224 O 0.53752 0.5942 0.66862 0.0
Cd225 Cd 0.54834 0.58736 0.60622 0.0
Cd226 Cd 0.51857 0.59871 0.57722 0.0
O227 O 0.5163 0.60934 0.64212 0.0
O228 O 0.57288 0.58698 0.62206 0.0
O229 O 0.5615 0.60569 0.57428 0.0
C230 C 0.57447 0.60051 0.59749 0.0
C231 C 0.51441 0.61316 0.50823 0.0
C232 C 0.52537 0.60434 0.67572 0.0
C233 C 0.52524 0.56187 0.56428 0.0
O234 O 0.51411 0.57327 0.56945 0.0
O235 O 0.54067 0.56513 0.57315 0.0
O236 O 0.50194 0.60944 0.53513 0.0
O237 O 0.52952 0.60991 0.52261 0.0
O238 O 0.67213 0.2863 0.92671 0.0
Cd239 Cd 0.67672 0.2968 0.86235 0.0
Cd240 Cd 0.66536 0.26705 0.83558 0.0
O241 O 0.65562 0.26579 0.90169 0.0
O242 O 0.67474 0.3219 0.87023 0.0
O243 O 0.65574 0.30621 0.83383 0.0
C244 C 0.66013 0.32071 0.85052 0.0
C245 C 0.65029 0.26213 0.76793 0.0
C246 C 0.66163 0.2745 0.93486 0.0
C247 C 0.7016 0.27392 0.81742 0.0
O248 O 0.69066 0.26263 0.82606 0.0
O249 O 0.69809 0.28942 0.82471 0.0
O250 O 0.65421 0.24991 0.79552 0.0
O251 O 0.65363 0.27737 0.78105 0.0
O252 O 0.97665 0.42185 0.17528 0.0
Cd253 Cd 0.96622 0.42634 0.11079 0.0
Cd254 Cd 0.99604 0.41501 0.08432 0.0
O255 O 0.99722 0.4054 0.15058 0.0
O256 O 0.94113 0.42401 0.11823 0.0
O257 O 0.95714 0.40526 0.08197 0.0
C258 C 0.94256 0.40943 0.09845 0.0
C259 C 1.00121 0.39972 0.01717 0.0
C260 C 0.98846 0.4114 0.18361 0.0
C261 C 0.98903 0.45126 0.06577 0.0
O262 O 1.00033 0.44034 0.07441 0.0
O263 O 0.97355 0.44774 0.07314 0.0
O264 O 0.01333 0.40382 0.04491 0.0
O265 O 0.98594 0.40305 0.02983 0.0
O266 O 0.84182 0.72733 0.42094 0.0
Cd267 Cd 0.83682 0.71623 0.35762 0.0
Cd268 Cd 0.84788 0.74586 0.32801 0.0
O269 O 0.85757 0.74812 0.3941 0.0
O270 O 0.83903 0.69123 0.36722 0.0
O271 O 0.85753 0.70665 0.3282 0.0
C272 C 0.85341 0.6923 0.34628 0.0
C273 C 0.86308 0.75025 0.26021 0.0
C274 C 0.85198 0.73951 0.42798 0.0
C275 C 0.81147 0.73842 0.31202 0.0
O276 O 0.8225 0.74985 0.31812 0.0
O277 O 0.81503 0.72308 0.32125 0.0
O278 O 0.85892 0.76269 0.28678 0.0
O279 O 0.85982 0.73512 0.27431 0.0
O280 O 0.53625 0.41982 0.82187 0.0
Cd281 Cd 0.54684 0.42497 0.88574 0.0
Cd282 Cd 0.5169 0.41413 0.91346 0.0
O283 O 0.51513 0.40425 0.8475 0.0
O284 O 0.57189 0.42292 0.87728 0.0
O285 O 0.55641 0.40436 0.91592 0.0
C286 C 0.57082 0.40856 0.89837 0.0
C287 C 0.51219 0.39912 0.98141 0.0
C288 C 0.52407 0.40973 0.81414 0.0
C289 C 0.52429 0.45057 0.92906 0.0
O290 O 0.51288 0.43956 0.92234 0.0
O291 O 0.53969 0.4469 0.92118 0.0
O292 O 0.49988 0.40317 0.95425 0.0
O293 O 0.52738 0.4024 0.96787 0.0
O294 O 0.8434 0.28534 0.07326 0.0
Cd295 Cd 0.83839 0.29614 0.13698 0.0
Cd296 Cd 0.84993 0.26661 0.16539 0.0
O297 O 0.85962 0.2648 0.09936 0.0
O298 O 0.83999 0.32122 0.12786 0.0
O299 O 0.85903 0.30615 0.16593 0.0
C300 C 0.85449 0.32044 0.14828 0.0
C301 C 0.86527 0.26236 0.23296 0.0
C302 C 0.85378 0.27339 0.06578 0.0
C303 C 0.81348 0.27327 0.18196 0.0
O304 O 0.82464 0.26205 0.17497 0.0
O305 O 0.81683 0.28873 0.17369 0.0
O306 O 0.86135 0.2499 0.20615 0.0
O307 O 0.86164 0.27746 0.21926 0.0
O308 O 0.97666 0.59244 0.32301 0.0
Cd309 Cd 0.96609 0.58778 0.38715 0.0
Cd310 Cd 0.99593 0.59897 0.41429 0.0
O311 O 0.99759 0.60843 0.34791 0.0
O312 O 0.94102 0.58945 0.37843 0.0
O313 O 0.95628 0.60859 0.41565 0.0
C314 C 0.94193 0.60404 0.3984 0.0
C315 C 1.00036 0.61447 0.48152 0.0
C316 C 0.98872 0.60262 0.3148 0.0
C317 C 0.98876 0.56269 0.43218 0.0
O318 O 1.00015 0.57363 0.42453 0.0
O319 O 0.97334 0.56627 0.42421 0.0
O320 O 0.01276 0.61039 0.45473 0.0
O321 O 0.98524 0.61093 0.46793 0.0
O322 O 0.66669 0.7276 0.57715 0.0
Cd323 Cd 0.67397 0.7161 0.63825 0.0
Cd324 Cd 0.66229 0.74538 0.67069 0.0
O325 O 0.65194 0.74873 0.60585 0.0
O326 O 0.67469 0.69176 0.62012 0.0
O327 O 0.6561 0.7022 0.6698 0.0
C328 C 0.66139 0.6896 0.64525 0.0
C329 C 0.64721 0.74844 0.73913 0.0
C330 C 0.65674 0.74001 0.57137 0.0
C331 C 0.69927 0.73897 0.68242 0.0
O332 O 0.68764 0.74996 0.67974 0.0
O333 O 0.69627 0.72369 0.67102 0.0
O334 O 0.65107 0.76131 0.71384 0.0
O335 O 0.65085 0.73356 0.7236 0.0
O336 O 0.47567 0.41889 0.31994 0.0
Cd337 Cd 0.4646 0.42603 0.38177 0.0
Cd338 Cd 0.4941 0.41453 0.4123 0.0
O339 O 0.49668 0.40375 0.34773 0.0
O340 O 0.44014 0.42659 0.3651 0.0
O341 O 0.4511 0.40796 0.41384 0.0
C342 C 0.43829 0.4132 0.3901 0.0
C343 C 0.498 0.40011 0.48145 0.0
C344 C 0.48783 0.40868 0.31361 0.0
C345 C 0.48767 0.45146 0.42417 0.0
O346 O 0.49872 0.43994 0.41988 0.0
O347 O 0.47227 0.44831 0.41456 0.0
O348 O 0.51056 0.40378 0.45481 0.0
O349 O 0.48294 0.40342 0.46676 0.0
O350 O 0.33695 0.72914 0.07414 0.0
Cd351 Cd 0.33365 0.71504 0.13355 0.0
Cd352 Cd 0.34769 0.74134 0.17088 0.0
O353 O 0.35784 0.74371 0.10503 0.0
O354 O 0.33635 0.69043 0.11873 0.0
O355 O 0.35523 0.7055 0.15766 0.0
C356 C 0.35106 0.69143 0.138 0.0
C357 C 0.36319 0.74516 0.2386 0.0
C358 C 0.3495 0.739 0.06968 0.0
C359 C 0.31077 0.73636 0.18718 0.0
O360 O 0.32251 0.74712 0.18164 0.0
O361 O 0.31322 0.72105 0.17546 0.0
O362 O 0.35957 0.75769 0.2118 0.0
O363 O 0.35919 0.73016 0.22485 0.0
O364 O 0.03628 0.59484 0.81954 0.0
Cd365 Cd 0.04728 0.58747 0.8813 0.0
Cd366 Cd 0.01775 0.59883 0.91155 0.0
O367 O 0.01531 0.60999 0.84749 0.0
O368 O 0.07176 0.58692 0.86484 0.0
O369 O 0.06077 0.60545 0.91384 0.0
C370 C 0.0736 0.60026 0.89008 0.0
C371 C 0.01396 0.61283 0.98137 0.0
C372 C 0.02418 0.60514 0.81335 0.0
C373 C 0.02406 0.56189 0.9223 0.0
O374 O 0.01301 0.5734 0.91778 0.0
O375 O 0.0395 0.5651 0.91352 0.0
O376 O 1.00136 0.6094 0.95457 0.0
O377 O 0.02899 0.60953 0.9665 0.0
O378 O 0.17182 0.28727 0.56718 0.0
Cd379 Cd 0.17674 0.29735 0.63184 0.0
Cd380 Cd 0.16588 0.26727 0.65714 0.0
O381 O 0.15561 0.26643 0.5915 0.0
O382 O 0.17488 0.32248 0.62478 0.0
O383 O 0.15598 0.30677 0.66144 0.0
C384 C 0.16037 0.3213 0.64495 0.0
C385 C 0.15145 0.26227 0.72573 0.0
C386 C 0.16135 0.27548 0.55868 0.0
C387 C 0.20214 0.27433 0.67386 0.0
O388 O 0.19129 0.26299 0.66483 0.0
O389 O 0.19838 0.28984 0.66803 0.0
O390 O 0.15509 0.25008 0.69772 0.0
O391 O 0.15468 0.27752 0.71257 0.0
O392 O 0.47583 0.59382 0.1676 0.0
Cd393 Cd 0.46541 0.58842 0.10362 0.0
Cd394 Cd 0.49544 0.59921 0.07626 0.0
O395 O 0.49714 0.60917 0.14216 0.0
O396 O 0.44031 0.59033 0.11141 0.0
O397 O 0.45578 0.60884 0.07261 0.0
C398 C 0.44133 0.60459 0.08981 0.0
C399 C 0.50001 0.61406 0.00799 0.0
C400 C 0.48807 0.60383 0.17543 0.0
C401 C 0.48813 0.56273 0.06113 0.0
O402 O 0.49951 0.57377 0.06774 0.0
O403 O 0.47271 0.5664 0.06883 0.0
O404 O 0.51237 0.61012 0.03508 0.0
O405 O 0.48485 0.61079 0.02181 0.0
O406 O 0.16748 0.7269 0.92147 0.0
Cd407 Cd 0.17467 0.71524 0.86049 0.0
Cd408 Cd 0.16363 0.74477 0.82767 0.0
O409 O 0.15326 0.74834 0.89243 0.0
O410 O 0.17498 0.69089 0.87867 0.0
O411 O 0.15667 0.70156 0.82856 0.0
C412 C 0.16173 0.6889 0.85321 0.0
C413 C 0.14874 0.74857 0.75909 0.0
C414 C 0.15781 0.73955 0.92705 0.0
C415 C 0.20054 0.73757 0.8169 0.0
O416 O 0.1891 0.74878 0.81916 0.0
O417 O 0.19722 0.72237 0.8283 0.0
O418 O 0.15295 0.7612 0.78489 0.0
O419 O 0.15192 0.73352 0.77413 0.0
O420 O 0.03705 0.42058 0.67753 0.0
Cd421 Cd 0.04743 0.42595 0.61355 0.0
Cd422 Cd 0.01743 0.41536 0.5863 0.0
O423 O 0.01616 0.40481 0.65144 0.0
O424 O 0.07249 0.4238 0.62132 0.0
O425 O 0.0568 0.4054 0.58265 0.0
C426 C 0.07128 0.40951 0.59994 0.0
C427 C 0.01214 0.40108 0.51757 0.0
C428 C 0.0251 0.41019 0.68493 0.0
C429 C 0.02483 0.45177 0.57173 0.0
O430 O 0.0134 0.44086 0.57922 0.0
O431 O 0.04027 0.44794 0.5785 0.0
O432 O 1.00005 0.40493 0.54565 0.0
O433 O 0.02745 0.40408 0.53062 0.0
O434 O 0.3444 0.28782 0.42521 0.0
Cd435 Cd 0.33723 0.29847 0.36284 0.0
Cd436 Cd 0.3484 0.26853 0.33422 0.0
O437 O 0.35926 0.26639 0.39875 0.0
O438 O 0.33657 0.32302 0.37865 0.0
O439 O 0.35525 0.3119 0.33035 0.0
C440 C 0.34996 0.3248 0.35368 0.0
C441 C 0.36275 0.26431 0.26516 0.0
C442 C 0.35449 0.27562 0.43227 0.0
C443 C 0.31159 0.27518 0.32204 0.0
O444 O 0.32297 0.26403 0.32715 0.0
O445 O 0.31492 0.29064 0.3305 0.0
O446 O 0.35908 0.25186 0.29219 0.0
O447 O 0.35945 0.27945 0.27936 0.0
H448 H 0.96538 0.10627 0.75006 0.0
H449 H 0.03595 0.11914 0.93969 0.0
H450 H 0.017 0.1174 0.71346 0.0
H451 H 0.98257 0.12103 0.96911 0.0
H452 H 0.02961 0.12147 0.85684 0.0
H453 H 0.97151 0.11389 0.83009 0.0
C454 C 0.97802 0.1104 0.75889 0.0
C455 C 0.99077 0.11098 0.72522 0.0
C456 C 0.01931 0.12173 0.88152 0.0
C457 C 0.99794 0.11966 0.81713 0.0
C458 C 0.02292 0.12047 0.92887 0.0
C459 C 0.00974 0.11957 0.96133 0.0
C460 C 1.00242 0.12193 0.86671 0.0
C461 C 0.99312 0.12142 0.94532 0.0
C462 C 0.98149 0.11487 0.8046 0.0
C463 C 0.00684 0.11669 0.73848 0.0
N464 N 0.98993 0.1222 0.89912 0.0
N465 N 0.01006 0.12055 0.78365 0.0
H466 H 0.14645 0.77014 0.95983 0.0
H467 H 0.13929 0.73547 0.21954 0.0
H468 H 0.15592 0.71869 0.00176 0.0
H469 H 0.14593 0.78834 0.18791 0.0
H470 H 0.1373 0.72944 0.13683 0.0
H471 H 0.1391 0.77708 0.0405 0.0
C472 C 0.14679 0.76028 0.98586 0.0
C473 C 0.15202 0.74387 0.97429 0.0
C474 C 0.13894 0.7424 0.14798 0.0
C475 C 0.14343 0.75163 0.06593 0.0
C476 C 0.13999 0.74588 0.19525 0.0
C477 C 0.14309 0.7624 0.21065 0.0
C478 C 0.14105 0.75552 0.11576 0.0
C479 C 0.14369 0.77539 0.17751 0.0
C480 C 0.14262 0.76425 0.03176 0.0
C481 C 0.15221 0.73156 0.00926 0.0
N482 N 0.14295 0.77164 0.13147 0.0
N483 N 0.14804 0.73571 0.05344 0.0
H484 H 0.49414 0.89414 0.21265 0.0
H485 H 0.53032 0.8899 0.47117 0.0
H486 H 0.54525 0.90631 0.25237 0.0
H487 H 0.47709 0.89274 0.44015 0.0
H488 H 0.53625 0.88755 0.38844 0.0
H489 H 0.48816 0.88619 0.29337 0.0
C490 C 0.50414 0.89495 0.2382 0.0
C491 C 0.52014 0.90115 0.22603 0.0
C492 C 0.52325 0.8884 0.39978 0.0
C493 C 0.51348 0.89188 0.31777 0.0
C494 C 0.51984 0.88964 0.44706 0.0
C495 C 0.5032 0.89187 0.46255 0.0
C496 C 0.50994 0.88943 0.36773 0.0
C497 C 0.49012 0.89127 0.42967 0.0
C498 C 0.50072 0.89043 0.28414 0.0
C499 C 0.53265 0.90188 0.26039 0.0
N500 N 0.49379 0.89039 0.38365 0.0
N501 N 0.52904 0.89738 0.30467 0.0
H502 H 0.3555 0.29773 0.50438 0.0
H503 H 0.37014 0.22784 0.69482 0.0
H504 H 0.36731 0.24616 0.46847 0.0
H505 H 0.37137 0.28135 0.72338 0.0
H506 H 0.37205 0.23401 0.61184 0.0
H507 H 0.36345 0.29194 0.58435 0.0
C508 C 0.35984 0.28518 0.51334 0.0
C509 C 0.36053 0.27234 0.47989 0.0
C510 C 0.37226 0.24438 0.63635 0.0
C511 C 0.3696 0.26556 0.5717 0.0
C512 C 0.37124 0.24086 0.68377 0.0
C513 C 0.37027 0.25412 0.71605 0.0
C514 C 0.37214 0.26124 0.62127 0.0
C515 C 0.37182 0.27073 0.69974 0.0
C516 C 0.3645 0.2819 0.55901 0.0
C517 C 0.3665 0.25638 0.49331 0.0
N518 N 0.37236 0.27383 0.65347 0.0
N519 N 0.37057 0.25335 0.53843 0.0
H520 H 0.96775 0.90216 0.75045 0.0
H521 H 0.03862 0.89496 0.56011 0.0
H522 H 0.02017 0.89572 0.78695 0.0
H523 H 0.9856 0.88759 0.53215 0.0
H524 H 0.03282 0.89231 0.64323 0.0
H525 H 0.97437 0.89453 0.67076 0.0
C526 C 0.98067 0.89904 0.74165 0.0
C527 C 0.99348 0.89979 0.77515 0.0
C528 C 0.02253 0.8909 0.61881 0.0
C529 C 1.00123 0.89116 0.68362 0.0
C530 C 0.02584 0.89235 0.57132 0.0
C531 C 0.01252 0.89182 0.5392 0.0
C532 C 1.00579 0.88908 0.63405 0.0
C533 C 0.99623 0.88837 0.55569 0.0
C534 C 0.98445 0.89457 0.69615 0.0
C535 C 0.00995 0.89537 0.76202 0.0
N536 N 0.99328 0.88743 0.60196 0.0
N537 N 0.01343 0.89152 0.71698 0.0
H538 H 0.37859 0.73937 0.78634 0.0
H539 H 0.32904 0.7547 0.00827 0.0
H540 H 0.35461 0.7878 0.80586 0.0
H541 H 0.3801 0.73715 0.02651 0.0
H542 H 0.33625 0.76391 0.92943 0.0
H543 H 0.37859 0.73534 0.87092 0.0
C544 C 0.37374 0.74932 0.80843 0.0
C545 C 0.36649 0.76389 0.78914 0.0
C546 C 0.3459 0.75821 0.95096 0.0
C547 C 0.36598 0.75909 0.8849 0.0
C548 C 0.34178 0.75289 0.99557 0.0
C549 C 0.35404 0.74525 0.02346 0.0
C550 C 0.3622 0.75529 0.93376 0.0
C551 C 0.37039 0.74311 0.00577 0.0
C552 C 0.37375 0.74701 0.85649 0.0
C553 C 0.36032 0.77638 0.81927 0.0
N554 N 0.37396 0.74781 0.96142 0.0
N555 N 0.35977 0.77349 0.86564 0.0
H556 H 0.47796 0.11914 0.04663 0.0
H557 H 0.54723 0.10025 0.23597 0.0
H558 H 0.53131 0.11715 0.01669 0.0
H559 H 0.49706 0.1167 0.27272 0.0
H560 H 0.54166 0.10792 0.15559 0.0
H561 H 0.48455 0.12068 0.12944 0.0
C562 C 0.49106 0.11945 0.05735 0.0
C563 C 0.5041 0.11771 0.02472 0.0
C564 C 0.5319 0.11003 0.18123 0.0
C565 C 0.51168 0.11912 0.1193 0.0
C566 C 0.53504 0.10553 0.22711 0.0
C567 C 0.52251 0.10765 0.26096 0.0
C568 C 0.516 0.11644 0.16878 0.0
C569 C 0.50703 0.11478 0.24761 0.0
C570 C 0.49481 0.12026 0.10466 0.0
C571 C 0.52084 0.11824 0.04061 0.0
N572 N 0.50411 0.1187 0.20236 0.0
N573 N 0.52413 0.11858 0.0868 0.0
H574 H 0.16349 0.29715 0.48554 0.0
H575 H 0.14375 0.22815 0.29576 0.0
H576 H 0.14659 0.24705 0.52197 0.0
H577 H 0.14636 0.28153 0.2661 0.0
H578 H 0.1424 0.2347 0.37861 0.0
H579 H 0.1558 0.29169 0.40511 0.0
C580 C 0.15812 0.28499 0.4766 0.0
C581 C 0.15587 0.27246 0.51039 0.0
C582 C 0.14292 0.24498 0.35389 0.0
C583 C 0.14704 0.26609 0.41813 0.0
C584 C 0.14362 0.24126 0.30655 0.0
C585 C 0.14546 0.25431 0.27397 0.0
C586 C 0.14428 0.26184 0.36862 0.0
C587 C 0.14516 0.27105 0.28997 0.0
C588 C 0.1536 0.28192 0.43068 0.0
C589 C 0.14862 0.25703 0.49692 0.0
N590 N 0.14494 0.27431 0.33618 0.0
N591 N 0.14468 0.25418 0.45164 0.0
H592 H 0.99283 0.89548 0.2894 0.0
H593 H 0.02865 0.88925 0.03075 0.0
H594 H 0.04418 0.90617 0.24902 0.0
H595 H 0.97563 0.89542 0.06065 0.0
H596 H 0.03431 0.88713 0.11363 0.0
H597 H 0.98635 0.88809 0.20843 0.0
C598 C 1.00276 0.89608 0.26365 0.0
C599 C 0.019 0.90167 0.27571 0.0
C600 C 0.0214 0.88869 0.10205 0.0
C601 C 0.01177 0.89302 0.18379 0.0
C602 C 0.01813 0.88981 0.05469 0.0
C603 C 1.00168 0.89283 0.03878 0.0
C604 C 0.00813 0.89064 0.13383 0.0
C605 C 0.98853 0.89326 0.07146 0.0
C606 C 0.99906 0.89188 0.21758 0.0
C607 C 0.03142 0.90218 0.2411 0.0
N608 N 0.99207 0.89246 0.11761 0.0
N609 N 0.02754 0.89796 0.19677 0.0
H610 H 0.86737 0.24403 0.03145 0.0
H611 H 0.8705 0.27965 0.77231 0.0
H612 H 0.85237 0.29431 0.99094 0.0
H613 H 0.86733 0.22637 0.80302 0.0
H614 H 0.87208 0.2856 0.85514 0.0
H615 H 0.87459 0.23793 0.95028 0.0
C616 C 0.86574 0.25382 0.00559 0.0
C617 C 0.85906 0.26963 0.01776 0.0
C618 C 0.87129 0.27259 0.84372 0.0
C619 C 0.86754 0.26284 0.92554 0.0
C620 C 0.8705 0.26915 0.7964 0.0
C621 C 0.86846 0.2525 0.78073 0.0
C622 C 0.87007 0.25928 0.87566 0.0
C623 C 0.86871 0.23942 0.81363 0.0
C624 C 0.86986 0.25032 0.95941 0.0
C625 C 0.85725 0.28187 0.98298 0.0
N626 N 0.86923 0.2431 0.85971 0.0
N627 N 0.86144 0.27821 0.93848 0.0
H628 H 0.51655 0.11591 0.775 0.0
H629 H 0.48106 0.11646 0.51538 0.0
H630 H 0.46701 0.0985 0.73492 0.0
H631 H 0.53428 0.11773 0.54745 0.0
H632 H 0.47476 0.11756 0.59812 0.0
H633 H 0.5222 0.12334 0.69384 0.0
C634 C 0.50683 0.11377 0.74923 0.0
C635 C 0.49136 0.10637 0.76159 0.0
C636 C 0.48782 0.11786 0.58701 0.0
C637 C 0.49765 0.11507 0.66921 0.0
C638 C 0.49143 0.11735 0.53973 0.0
C639 C 0.50824 0.11671 0.52447 0.0
C640 C 0.50108 0.11775 0.61928 0.0
C641 C 0.52114 0.11802 0.5577 0.0
C642 C 0.51007 0.11802 0.70302 0.0
C643 C 0.47919 0.10394 0.72686 0.0
N644 N 0.5173 0.11824 0.60368 0.0
N645 N 0.48261 0.10825 0.68229 0.0
H646 H 0.64516 0.77038 0.53769 0.0
H647 H 0.63827 0.73438 0.27929 0.0
H648 H 0.65488 0.71879 0.49747 0.0
H649 H 0.64515 0.78738 0.30899 0.0
H650 H 0.63596 0.72883 0.36217 0.0
H651 H 0.63773 0.7769 0.45679 0.0
C652 C 0.64554 0.76041 0.51199 0.0
C653 C 0.65087 0.74408 0.52406 0.0
C654 C 0.63771 0.74172 0.35055 0.0
C655 C 0.64218 0.75135 0.43223 0.0
C656 C 0.63894 0.74492 0.30319 0.0
C657 C 0.64223 0.76132 0.28724 0.0
C658 C 0.63983 0.75499 0.38228 0.0
C659 C 0.64278 0.77451 0.31984 0.0
C660 C 0.64132 0.76413 0.46597 0.0
C661 C 0.6511 0.7316 0.48953 0.0
N662 N 0.64189 0.77102 0.366 0.0
N663 N 0.64687 0.73551 0.44525 0.0
H664 H 0.02872 0.12028 0.4704 0.0
H665 H 0.99383 0.11591 0.21047 0.0
H666 H 0.97558 0.11678 0.43859 0.0
H667 H 0.04418 0.10176 0.25242 0.0
H668 H 0.98742 0.12331 0.29136 0.0
H669 H 0.03488 0.12156 0.38765 0.0
C670 C 0.0183 0.12014 0.44607 0.0
C671 C 1.00162 0.11811 0.46144 0.0
C672 C 0.99989 0.11871 0.28261 0.0
C673 C 0.00864 0.11937 0.36659 0.0
C674 C 1.00356 0.1145 0.23658 0.0
C675 C 0.0195 0.10801 0.22488 0.0
C676 C 0.01235 0.11669 0.31681 0.0
C677 C 0.03166 0.10648 0.25999 0.0
C678 C 0.02185 0.12077 0.3988 0.0
C679 C 0.98864 0.11817 0.42824 0.0
N680 N 0.02782 0.11076 0.30432 0.0
N681 N 0.99244 0.11852 0.38222 0.0
H682 H 0.64653 0.28154 0.22931 0.0
H683 H 0.64662 0.24595 0.96979 0.0
H684 H 0.64531 0.22826 0.19749 0.0
H685 H 0.66445 0.29539 0.00968 0.0
H686 H 0.63925 0.24035 0.05104 0.0
H687 H 0.64528 0.28779 0.14655 0.0
C688 C 0.64562 0.27114 0.20501 0.0
C689 C 0.64633 0.25434 0.22033 0.0
C690 C 0.64465 0.25245 0.04179 0.0
C691 C 0.6451 0.26145 0.12551 0.0
C692 C 0.64886 0.25566 0.99554 0.0
C693 C 0.65636 0.27108 0.98311 0.0
C694 C 0.64773 0.26486 0.07556 0.0
C695 C 0.65892 0.28324 0.01781 0.0
C696 C 0.64503 0.27474 0.15773 0.0
C697 C 0.64498 0.2414 0.18717 0.0
N698 N 0.65464 0.27985 0.06242 0.0
N699 N 0.64467 0.24522 0.14119 0.0
H700 H 0.518 0.8955 0.71187 0.0
H701 H 0.48254 0.89269 0.9712 0.0
H702 H 0.46783 0.91074 0.75248 0.0
H703 H 0.53578 0.89532 0.94018 0.0
H704 H 0.47651 0.89118 0.8884 0.0
H705 H 0.5241 0.88827 0.79303 0.0
C706 C 0.50824 0.89718 0.73775 0.0
C707 C 0.49245 0.90393 0.7256 0.0
C708 C 0.48953 0.89183 0.89974 0.0
C709 C 0.49924 0.89545 0.81784 0.0
C710 C 0.49301 0.89259 0.94705 0.0
C711 C 0.50968 0.89445 0.96263 0.0
C712 C 0.50281 0.89291 0.86772 0.0
C713 C 0.52272 0.89407 0.92965 0.0
C714 C 0.51173 0.89306 0.78393 0.0
C715 C 0.48025 0.90581 0.76042 0.0
N716 N 0.519 0.89359 0.88359 0.0
N717 N 0.48391 0.90162 0.80492 0.0
H718 H 0.869 0.73417 0.72151 0.0
H719 H 0.8652 0.76918 0.46168 0.0
H720 H 0.86568 0.78736 0.68985 0.0
H721 H 0.85106 0.71875 0.5032 0.0
H722 H 0.87248 0.77557 0.54269 0.0
H723 H 0.87052 0.72803 0.63877 0.0
C724 C 0.86896 0.74461 0.69722 0.0
C725 C 0.8669 0.7613 0.71261 0.0
C726 C 0.86792 0.76308 0.53381 0.0
C727 C 0.86843 0.75429 0.61776 0.0
C728 C 0.86377 0.75942 0.48772 0.0
C729 C 0.85731 0.74348 0.47587 0.0
C730 C 0.86586 0.7506 0.56793 0.0
C731 C 0.85576 0.73129 0.51089 0.0
C732 C 0.86972 0.74107 0.64995 0.0
C733 C 0.86709 0.7743 0.67947 0.0
N734 N 0.85997 0.73511 0.55528 0.0
N735 N 0.86756 0.77051 0.63344 0.0
H736 H 0.46662 0.60325 0.24917 0.0
H737 H 0.53733 0.61766 0.43776 0.0
H738 H 0.5176 0.61658 0.21123 0.0
H739 H 0.484 0.61984 0.46782 0.0
H740 H 0.5308 0.61923 0.35482 0.0
H741 H 0.47296 0.61043 0.32947 0.0
C742 C 0.47916 0.60775 0.25775 0.0
C743 C 0.49166 0.60914 0.22357 0.0
C744 C 0.52057 0.61972 0.37966 0.0
C745 C 0.49905 0.61735 0.3157 0.0
C746 C 0.52428 0.61889 0.42703 0.0
C747 C 0.51117 0.61834 0.45976 0.0
C748 C 0.50364 0.6198 0.36511 0.0
C749 C 0.49451 0.61999 0.44385 0.0
C750 C 0.48274 0.61197 0.3036 0.0
C751 C 0.50762 0.61525 0.23659 0.0
N752 N 0.49122 0.62034 0.39767 0.0
N753 N 0.51095 0.61891 0.28183 0.0
H754 H 0.66299 0.21552 0.50873 0.0
H755 H 0.64379 0.28473 0.69797 0.0
H756 H 0.64655 0.26572 0.47179 0.0
H757 H 0.64533 0.23131 0.72767 0.0
H758 H 0.64246 0.27821 0.6151 0.0
H759 H 0.65516 0.22108 0.589 0.0
C760 C 0.65768 0.22772 0.51753 0.0
C761 C 0.65561 0.24025 0.48366 0.0
C762 C 0.64273 0.26792 0.63983 0.0
C763 C 0.64663 0.24674 0.5757 0.0
C764 C 0.64342 0.27163 0.68718 0.0
C765 C 0.64498 0.25855 0.71978 0.0
C766 C 0.64381 0.25104 0.62513 0.0
C767 C 0.64438 0.24181 0.70378 0.0
C768 C 0.65308 0.23085 0.56334 0.0
C769 C 0.64845 0.25574 0.49692 0.0
N770 N 0.64417 0.23855 0.65757 0.0
N771 N 0.64443 0.25865 0.5421 0.0
H772 H 0.99636 0.39536 0.71923 0.0
H773 H 0.03213 0.39395 0.97841 0.0
H774 H 0.04628 0.41165 0.75935 0.0
H775 H 0.97888 0.39344 0.94645 0.0
H776 H 0.03838 0.39226 0.89572 0.0
H777 H 0.99077 0.38744 0.80009 0.0
C778 C 1.00618 0.39713 0.74493 0.0
C779 C 0.02172 0.40441 0.73274 0.0
C780 C 0.02533 0.39223 0.90686 0.0
C781 C 0.01551 0.39515 0.82471 0.0
C782 C 0.02173 0.39308 0.95411 0.0
C783 C 1.00495 0.39418 0.96933 0.0
C784 C 0.01206 0.39247 0.87461 0.0
C785 C 0.99201 0.39284 0.9362 0.0
C786 C 1.00299 0.3926 0.79095 0.0
C787 C 0.03403 0.40634 0.76733 0.0
N788 N 0.99583 0.39232 0.89024 0.0
N789 N 0.03064 0.40179 0.81173 0.0
H790 H 0.86848 0.7272 0.19059 0.0
H791 H 0.85471 0.79761 0.00092 0.0
H792 H 0.86994 0.78066 0.21981 0.0
H793 H 0.86589 0.74596 0.96437 0.0
H794 H 0.86252 0.79158 0.08084 0.0
H795 H 0.87054 0.7335 0.10769 0.0
C796 C 0.86967 0.74024 0.1797 0.0
C797 C 0.86872 0.75344 0.21214 0.0
C798 C 0.86346 0.78156 0.05538 0.0
C799 C 0.87077 0.76072 0.11745 0.0
C800 C 0.85888 0.78498 0.00974 0.0
C801 C 0.85943 0.7722 0.97611 0.0
C802 C 0.86834 0.76514 0.0679 0.0
C803 C 0.8652 0.75614 0.98935 0.0
C804 C 0.87078 0.74382 0.13233 0.0
C805 C 0.87037 0.77008 0.19604 0.0
N806 N 0.86918 0.75298 0.03447 0.0
N807 N 0.871 0.77324 0.14982 0.0
H808 H 0.48162 0.39201 0.0205 0.0
H809 H 0.51739 0.39529 0.2797 0.0
H810 H 0.53485 0.39402 0.05209 0.0
H811 H 0.46656 0.40835 0.23953 0.0
H812 H 0.52344 0.38761 0.19879 0.0
H813 H 0.47553 0.38988 0.10318 0.0
C814 C 0.49206 0.39163 0.04473 0.0
C815 C 0.50876 0.39352 0.0294 0.0
C816 C 0.51093 0.39199 0.20795 0.0
C817 C 0.50184 0.39132 0.12419 0.0
C818 C 0.50747 0.39636 0.254 0.0
C819 C 0.49153 0.40271 0.26613 0.0
C820 C 0.49827 0.39375 0.17417 0.0
C821 C 0.47911 0.40378 0.23157 0.0
C822 C 0.48856 0.39051 0.09199 0.0
C823 C 0.52178 0.39278 0.06244 0.0
N824 N 0.48276 0.39942 0.1872 0.0
N825 N 0.51803 0.39201 0.10844 0.0
H826 H 0.87309 0.23201 0.27241 0.0
H827 H 0.86868 0.26829 0.53083 0.0
H828 H 0.8701 0.2853 0.30315 0.0
H829 H 0.85608 0.21726 0.49097 0.0
H830 H 0.8767 0.27422 0.45013 0.0
H831 H 0.87531 0.22613 0.35519 0.0
C832 C 0.87329 0.24252 0.29647 0.0
C833 C 0.87106 0.25915 0.28089 0.0
C834 C 0.87236 0.2617 0.45933 0.0
C835 C 0.87335 0.25246 0.37575 0.0
C836 C 0.86779 0.2583 0.50525 0.0
C837 C 0.86146 0.24234 0.51737 0.0
C838 C 0.87082 0.24895 0.42568 0.0
C839 C 0.86062 0.22983 0.48298 0.0
C840 C 0.87445 0.23914 0.34378 0.0
C841 C 0.87158 0.27226 0.3137 0.0
N842 N 0.86517 0.23342 0.43873 0.0
N843 N 0.87239 0.26862 0.35976 0.0
H844 H 0.99465 0.61855 0.77935 0.0
H845 H 0.03078 0.62218 0.52076 0.0
H846 H 0.04561 0.60585 0.73971 0.0
H847 H 0.97753 0.61962 0.55171 0.0
H848 H 0.03673 0.62459 0.60348 0.0
H849 H 0.9887 0.6264 0.69851 0.0
C850 C 1.00462 0.6176 0.75379 0.0
C851 C 0.02057 0.61129 0.76602 0.0
C852 C 0.02372 0.62378 0.59212 0.0
C853 C 0.01394 0.62045 0.67416 0.0
C854 C 0.0203 0.62251 0.54485 0.0
C855 C 1.00365 0.62036 0.52934 0.0
C856 C 0.01042 0.62286 0.62416 0.0
C857 C 0.99058 0.62105 0.56219 0.0
C858 C 1.00122 0.62207 0.70779 0.0
C859 C 0.03306 0.61038 0.73165 0.0
N860 N 0.99425 0.62196 0.60822 0.0
N861 N 0.02946 0.61483 0.68732 0.0
H862 H 0.6447 0.74209 0.03742 0.0
H863 H 0.63685 0.77787 0.77915 0.0
H864 H 0.6531 0.7939 0.99712 0.0
H865 H 0.64462 0.72502 0.80909 0.0
H866 H 0.63423 0.78342 0.86198 0.0
H867 H 0.63706 0.73542 0.95675 0.0
C868 C 0.64472 0.75208 0.01176 0.0
C869 C 0.64978 0.76851 0.0237 0.0
C870 C 0.63623 0.77055 0.85041 0.0
C871 C 0.64086 0.76106 0.93214 0.0
C872 C 0.63765 0.76735 0.80307 0.0
C873 C 0.6413 0.75101 0.78723 0.0
C874 C 0.63855 0.75734 0.88221 0.0
C875 C 0.64198 0.73785 0.81986 0.0
C876 C 0.64039 0.74827 0.96587 0.0
C877 C 0.64955 0.781 0.98925 0.0
N878 N 0.64093 0.74135 0.866 0.0
N879 N 0.64524 0.777 0.94508 0.0
H880 H 0.54548 0.41029 0.74039 0.0
H881 H 0.47493 0.39598 0.55171 0.0
H882 H 0.49452 0.39699 0.77849 0.0
H883 H 0.52826 0.39303 0.52216 0.0
H884 H 0.48134 0.39446 0.63473 0.0
H885 H 0.53916 0.40298 0.66019 0.0
C886 C 0.53295 0.40578 0.73185 0.0
C887 C 0.52045 0.40441 0.76604 0.0
C888 C 0.49159 0.3938 0.60998 0.0
C889 C 0.51307 0.39606 0.67404 0.0
C890 C 0.48794 0.39459 0.56256 0.0
C891 C 0.5011 0.39493 0.52996 0.0
C892 C 0.5085 0.39353 0.62467 0.0
C893 C 0.51772 0.39307 0.54603 0.0
C894 C 0.52937 0.40148 0.68607 0.0
C895 C 0.50449 0.39828 0.7531 0.0
N896 N 0.52095 0.39276 0.59223 0.0
N897 N 0.50116 0.39456 0.70791 0.0
H898 H 0.3676 0.72219 0.30895 0.0
H899 H 0.35489 0.79347 0.49556 0.0
H900 H 0.37147 0.77539 0.27798 0.0
H901 H 0.36704 0.74232 0.53493 0.0
H902 H 0.36257 0.7869 0.41582 0.0
H903 H 0.36985 0.7288 0.39169 0.0
C904 C 0.36936 0.73521 0.31941 0.0
C905 C 0.36902 0.74829 0.28655 0.0
C906 C 0.36376 0.77713 0.44187 0.0
C907 C 0.37127 0.75592 0.38097 0.0
C908 C 0.35925 0.78085 0.48738 0.0
C909 C 0.36012 0.76836 0.52174 0.0
C910 C 0.36887 0.76068 0.43025 0.0
C911 C 0.3661 0.75228 0.50935 0.0
C912 C 0.37058 0.73897 0.36668 0.0
C913 C 0.37141 0.76491 0.3021 0.0
N914 N 0.37 0.74881 0.46436 0.0
N915 N 0.3721 0.76828 0.34821 0.0
H916 H 0.03716 0.61687 0.05141 0.0
H917 H 0.9673 0.60126 0.24108 0.0
H918 H 0.98373 0.61938 0.02281 0.0
H919 H 0.01802 0.61573 0.27869 0.0
H920 H 0.97339 0.60853 0.16072 0.0
H921 H 0.03094 0.61803 0.13459 0.0
C922 C 0.02416 0.61808 0.06252 0.0
C923 C 0.01092 0.61775 0.03012 0.0
C924 C 0.98317 0.61028 0.18654 0.0
C925 C 1.00375 0.61872 0.12497 0.0
C926 C 0.97973 0.60601 0.2324 0.0
C927 C 0.99223 0.60773 0.2665 0.0
C928 C 0.99933 0.61605 0.17436 0.0
C929 C 0.00805 0.61415 0.25336 0.0
C930 C 0.02062 0.61867 0.11001 0.0
C931 C 0.99433 0.61937 0.04651 0.0
N932 N 0.01124 0.61787 0.20812 0.0
N933 N 0.9912 0.61948 0.09277 0.0
H934 H 0.14501 0.28482 0.79588 0.0
H935 H 0.16477 0.21589 0.98593 0.0
H936 H 0.14731 0.2314 0.76641 0.0
H937 H 0.14756 0.26587 0.02241 0.0
H938 H 0.15738 0.22142 0.90532 0.0
H939 H 0.14397 0.27835 0.87883 0.0
C940 C 0.14489 0.27172 0.80674 0.0
C941 C 0.14651 0.25864 0.77416 0.0
C942 C 0.15505 0.23115 0.93095 0.0
C943 C 0.14569 0.2512 0.86889 0.0
C944 C 0.1594 0.22804 0.97697 0.0
C945 C 0.15695 0.24051 0.01085 0.0
C946 C 0.14846 0.24696 0.9184 0.0
C947 C 0.14973 0.25594 0.99731 0.0
C948 C 0.14436 0.26805 0.85413 0.0
C949 C 0.14625 0.24191 0.79026 0.0
N950 N 0.14594 0.25883 0.95196 0.0
N951 N 0.14619 0.23869 0.83649 0.0
H952 H 0.54726 0.60486 0.74833 0.0
H953 H 0.4771 0.61966 0.93816 0.0
H954 H 0.4959 0.61718 0.71182 0.0
H955 H 0.53053 0.62026 0.96749 0.0
H956 H 0.48345 0.62153 0.85526 0.0
H957 H 0.54132 0.61249 0.82844 0.0
C958 C 0.53472 0.60924 0.7572 0.0
C959 C 0.52199 0.61017 0.7235 0.0
C960 C 0.49377 0.62161 0.87992 0.0
C961 C 0.51504 0.61889 0.81551 0.0
C962 C 0.49015 0.6206 0.9273 0.0
C963 C 0.50332 0.6195 0.95978 0.0
C964 C 0.51065 0.62133 0.86508 0.0
C965 C 0.51998 0.62084 0.9437 0.0
C966 C 0.53136 0.61372 0.80295 0.0
C967 C 0.50604 0.61619 0.73683 0.0
N968 N 0.52316 0.62137 0.89747 0.0
N969 N 0.50293 0.62008 0.78204 0.0
H970 H 0.14488 0.74386 0.46037 0.0
H971 H 0.13908 0.77845 0.7204 0.0
H972 H 0.1544 0.79531 0.50231 0.0
H973 H 0.14551 0.72561 0.6881 0.0
H974 H 0.1363 0.7845 0.63788 0.0
H975 H 0.13763 0.73691 0.54111 0.0
C976 C 0.14522 0.75372 0.48641 0.0
C977 C 0.15048 0.77013 0.47488 0.0
C978 C 0.13805 0.77153 0.64886 0.0
C979 C 0.14201 0.76236 0.56656 0.0
C980 C 0.13956 0.76805 0.69602 0.0
C981 C 0.14286 0.75154 0.71111 0.0
C982 C 0.13992 0.75844 0.61645 0.0
C983 C 0.14315 0.73855 0.67791 0.0
C984 C 0.14111 0.74975 0.53235 0.0
C985 C 0.15068 0.78244 0.50983 0.0
N986 N 0.142 0.74231 0.63195 0.0
N987 N 0.14658 0.77829 0.55404 0.0
H988 H 0.01695 0.39639 0.21884 0.0
H989 H 0.98116 0.39643 0.47802 0.0
H990 H 0.96754 0.4143 0.25826 0.0
H991 H 0.03442 0.39495 0.44665 0.0
H992 H 0.97497 0.39522 0.39521 0.0
H993 H 0.02246 0.38902 0.30014 0.0
C994 C 0.00723 0.39865 0.2445 0.0
C995 C 0.99184 0.40617 0.23192 0.0
C996 C 0.98801 0.3949 0.4065 0.0
C997 C 0.99796 0.39755 0.32443 0.0
C998 C 0.99157 0.39547 0.45381 0.0
C999 C 0.00835 0.39609 0.46927 0.0
C1000 C 1.00132 0.39491 0.3744 0.0
C1001 C 0.0213 0.39468 0.43622 0.0
C1002 C 0.01038 0.39444 0.29077 0.0
C1003 C 0.97967 0.40876 0.2665 0.0
N1004 N 0.01752 0.39439 0.39021 0.0
N1005 N 0.983 0.40448 0.31115 0.0
H1006 H 0.36991 0.23387 0.22545 0.0
H1007 H 0.36712 0.26931 0.96604 0.0
H1008 H 0.36698 0.28713 0.19429 0.0
H1009 H 0.35227 0.21898 0.00656 0.0
H1010 H 0.37425 0.27547 0.04725 0.0
H1011 H 0.37159 0.22783 0.14268 0.0
C1012 C 0.36999 0.24434 0.20128 0.0
C1013 C 0.36799 0.26102 0.2168 0.0
C1014 C 0.36957 0.26305 0.03811 0.0
C1015 C 0.36972 0.25414 0.12193 0.0
C1016 C 0.36551 0.25952 0.99191 0.0
C1017 C 0.35889 0.24368 0.97971 0.0
C1018 C 0.36726 0.25054 0.07201 0.0
C1019 C 0.3571 0.23144 0.01452 0.0
C1020 C 0.37084 0.24086 0.15399 0.0
C1021 C 0.36833 0.27407 0.1838 0.0
N1022 N 0.36124 0.23514 0.05905 0.0
N1023 N 0.36891 0.27033 0.13775 0.0
H1024 H 0.04475 0.03466 0.04185 0.0
H1025 H 0.96855 0.97755 0.94531 0.0
H1026 H 0.99288 0.05122 0.03637 0.0
H1027 H 0.02024 0.96057 0.95338 0.0
H1028 H 0.97733 1.00491 0.97691 0.0
H1029 H 0.03611 0.00754 0.00841 0.0
C1030 C 0.03156 0.03261 0.03376 0.0
C1031 C 0.01955 0.04528 0.04207 0.0
C1032 C 0.98675 0.9952 0.97164 0.0
C1033 C 0.00956 0.01427 0.00353 0.0
C1034 C 0.98174 0.97958 0.95346 0.0
C1035 C 0.99364 0.96668 0.94666 0.0
C1036 C 1.00379 0.99797 0.98314 0.0
C1037 C 0.01058 0.97008 0.95803 0.0
C1038 C 0.02663 0.01712 0.01458 0.0
C1039 C 1.00262 0.04187 0.03071 0.0
N1040 N 0.01512 0.98533 0.97573 0.0
N1041 N 0.99815 0.02674 0.01207 0.0
H1042 H 0.22838 0.79482 0.30557 0.0
H1043 H 0.28259 0.71718 0.20548 0.0
H1044 H 0.20998 0.74359 0.29612 0.0
H1045 H 0.30172 0.76811 0.2158 0.0
H1046 H 0.25598 0.72669 0.23961 0.0
H1047 H 0.25554 0.78534 0.27416 0.0
C1048 C 0.23005 0.78159 0.29716 0.0
C1049 C 0.21681 0.77003 0.3035 0.0
C1050 C 0.266 0.73579 0.23443 0.0
C1051 C 0.24785 0.75909 0.2673 0.0
C1052 C 0.28121 0.73036 0.21487 0.0
C1053 C 0.29445 0.74184 0.20761 0.0
C1054 C 0.26395 0.75285 0.24688 0.0
C1055 C 0.29189 0.75878 0.22062 0.0
C1056 C 0.24556 0.77619 0.27913 0.0
C1057 C 0.21975 0.75302 0.29183 0.0
N1058 N 0.27697 0.76376 0.23954 0.0
N1059 N 0.23488 0.74811 0.27427 0.0
H1060 H 0.49231 0.04977 0.43971 0.0
H1061 H 0.52106 0.96045 0.54271 0.0
H1062 H 0.54439 0.03422 0.45033 0.0
H1063 H 0.46911 0.9767 0.53603 0.0
H1064 H 0.52976 0.98721 0.50854 0.0
H1065 H 0.48364 0.02297 0.4736 0.0
C1066 C 0.50197 0.0407 0.44898 0.0
C1067 C 0.51916 0.04433 0.44206 0.0
C1068 C 0.51646 0.98497 0.51458 0.0
C1069 C 0.5092 0.01345 0.48132 0.0
C1070 C 0.51144 0.96966 0.53421 0.0
C1071 C 0.49427 0.96625 0.54236 0.0
C1072 C 0.50426 0.99707 0.50278 0.0
C1073 C 0.48246 0.97874 0.5305 0.0
C1074 C 0.49697 0.02537 0.46849 0.0
C1075 C 0.53102 0.03201 0.45491 0.0
N1076 N 0.48768 0.99357 0.51125 0.0
N1077 N 0.52581 0.01715 0.47396 0.0
H1078 H 0.302 0.27183 0.79735 0.0
H1079 H 0.21353 0.24228 0.69053 0.0
H1080 H 0.2864 0.21966 0.78922 0.0
H1081 H 0.22863 0.29452 0.70195 0.0
H1082 H 0.24022 0.23381 0.72551 0.0
H1083 H 0.27532 0.28028 0.76235 0.0
C1084 C 0.29295 0.26211 0.78837 0.0
C1085 C 0.29652 0.24495 0.79633 0.0
C1086 C 0.23774 0.24713 0.72033 0.0
C1087 C 0.2658 0.25466 0.75579 0.0
C1088 C 0.22248 0.25201 0.7002 0.0
C1089 C 0.21876 0.26919 0.69318 0.0
C1090 C 0.24949 0.25946 0.7337 0.0
C1091 C 0.23092 0.28115 0.70658 0.0
C1092 C 0.27768 0.26699 0.76827 0.0
C1093 C 0.28422 0.23301 0.78386 0.0
N1094 N 0.24571 0.27606 0.72622 0.0
N1095 N 0.26944 0.23809 0.76414 0.0
H1096 H 0.99155 0.95986 0.45851 0.0
H1097 H 0.01953 0.05157 0.54658 0.0
H1098 H 0.04285 0.97812 0.4527 0.0
H1099 H 0.96795 0.034 0.54845 0.0
H1100 H 0.02828 0.02463 0.51364 0.0
H1101 H 0.98276 0.98675 0.4918 0.0
C1102 C 1.001 0.96954 0.46405 0.0
C1103 C 0.01802 0.96665 0.45268 0.0
C1104 C 0.01505 0.02662 0.52131 0.0
C1105 C 0.00794 0.99762 0.49127 0.0
C1106 C 0.01001 0.04203 0.54029 0.0
C1107 C 0.99292 0.04514 0.5504 0.0
C1108 C 1.00297 0.01409 0.5122 0.0
C1109 C 0.98124 0.03221 0.54133 0.0
C1110 C 0.99594 0.98492 0.48319 0.0
C1111 C 0.02961 0.97974 0.46079 0.0
N1112 N 0.98648 0.01728 0.5227 0.0
N1113 N 0.02436 0.99462 0.47965 0.0
H1114 H 0.22804 0.71716 0.79952 0.0
H1115 H 0.28558 0.79302 0.70302 0.0
H1116 H 0.21164 0.7691 0.79283 0.0
H1117 H 0.3012 0.74079 0.70402 0.0
H1118 H 0.25854 0.78457 0.737 0.0
H1119 H 0.25523 0.72565 0.76641 0.0
C1120 C 0.23016 0.73034 0.79135 0.0
C1121 C 0.21747 0.7424 0.79901 0.0
C1122 C 0.26788 0.77496 0.72969 0.0
C1123 C 0.24857 0.75222 0.76083 0.0
C1124 C 0.28333 0.77979 0.71018 0.0
C1125 C 0.29573 0.76763 0.70052 0.0
C1126 C 0.2648 0.75784 0.73976 0.0
C1127 C 0.29206 0.75064 0.71074 0.0
C1128 C 0.24568 0.73519 0.77229 0.0
C1129 C 0.22098 0.75932 0.78755 0.0
N1130 N 0.27698 0.74628 0.72981 0.0
N1131 N 0.23614 0.7637 0.76906 0.0
H1132 H 0.54433 0.97789 0.04828 0.0
H1133 H 0.46752 0.03441 0.95301 0.0
H1134 H 0.49229 0.96171 0.04927 0.0
H1135 H 0.51974 0.04992 0.94863 0.0
H1136 H 0.47626 0.00784 0.98938 0.0
H1137 H 0.53547 1.00473 0.01377 0.0
C1138 C 0.53105 0.98 0.04156 0.0
C1139 C 0.51908 0.96746 0.05171 0.0
C1140 C 0.4858 0.01706 0.98038 0.0
C1141 C 0.50882 0.99815 0.01185 0.0
C1142 C 0.48081 0.03223 0.95949 0.0
C1143 C 0.49288 0.04446 0.9476 0.0
C1144 C 0.50299 0.01409 0.98957 0.0
C1145 C 0.50994 0.04091 0.95706 0.0
C1146 C 0.52599 0.99531 0.02169 0.0
C1147 C 0.50202 0.97094 0.04204 0.0
N1148 N 0.51446 0.02611 0.97745 0.0
N1149 N 0.49743 0.9859 0.02262 0.0
H1150 H 0.22824 0.21774 0.20557 0.0
H1151 H 0.28449 0.29523 0.29833 0.0
H1152 H 0.21301 0.27 0.19707 0.0
H1153 H 0.30056 0.24316 0.30293 0.0
H1154 H 0.25783 0.28613 0.26328 0.0
H1155 H 0.25465 0.2267 0.24241 0.0
C1156 C 0.23045 0.23108 0.21124 0.0
C1157 C 0.21834 0.2431 0.19806 0.0
C1158 C 0.26718 0.27669 0.2721 0.0
C1159 C 0.24853 0.25347 0.24056 0.0
C1160 C 0.28239 0.28189 0.29229 0.0
C1161 C 0.29485 0.26998 0.30361 0.0
C1162 C 0.26436 0.25944 0.26313 0.0
C1163 C 0.29139 0.25284 0.29477 0.0
C1164 C 0.24553 0.2362 0.2324 0.0
C1165 C 0.22193 0.26024 0.2065 0.0
N1166 N 0.27653 0.24812 0.27503 0.0
N1167 N 0.23664 0.26488 0.22719 0.0
H1168 H 0.8013 0.27091 0.69269 0.0
H1169 H 0.71236 0.24192 0.79743 0.0
H1170 H 0.78477 0.21898 0.69728 0.0
H1171 H 0.7283 0.29399 0.78999 0.0
H1172 H 0.73875 0.23338 0.76102 0.0
H1173 H 0.77462 0.27957 0.72734 0.0
C1174 C 0.79203 0.26129 0.70073 0.0
C1175 C 0.79536 0.24413 0.69201 0.0
C1176 C 0.73652 0.24667 0.76735 0.0
C1177 C 0.76465 0.25407 0.73222 0.0
C1178 C 0.72143 0.2516 0.78832 0.0
C1179 C 0.71804 0.26875 0.79695 0.0
C1180 C 0.74844 0.25894 0.75475 0.0
C1181 C 0.73034 0.28064 0.78416 0.0
C1182 C 0.77677 0.26629 0.72066 0.0
C1183 C 0.78279 0.23233 0.70326 0.0
N1184 N 0.74497 0.27552 0.7637 0.0
N1185 N 0.76803 0.23751 0.7229 0.0
H1186 H 0.72727 0.79407 0.19431 0.0
H1187 H 0.78418 0.71798 0.29225 0.0
H1188 H 0.71019 0.74239 0.20316 0.0
H1189 H 0.80063 0.76994 0.28714 0.0
H1190 H 0.75713 0.72656 0.25842 0.0
H1191 H 0.75454 0.78534 0.22639 0.0
C1192 C 0.72926 0.78089 0.20274 0.0
C1193 C 0.71636 0.76898 0.19601 0.0
C1194 C 0.76667 0.73607 0.26476 0.0
C1195 C 0.74755 0.75888 0.23303 0.0
C1196 C 0.78212 0.73118 0.28417 0.0
C1197 C 0.79474 0.74323 0.29269 0.0
C1198 C 0.7638 0.75315 0.2537 0.0
C1199 C 0.79131 0.76017 0.28133 0.0
C1200 C 0.74483 0.77591 0.22119 0.0
C1201 C 0.7197 0.75206 0.20774 0.0
N1202 N 0.77623 0.7646 0.26245 0.0
N1203 N 0.73491 0.74754 0.22569 0.0
H1204 H 0.71345 0.27037 0.30427 0.0
H1205 H 0.80255 0.24123 0.2009 0.0
H1206 H 0.72887 0.2182 0.29403 0.0
H1207 H 0.78655 0.2933 0.20769 0.0
H1208 H 0.7758 0.23265 0.23526 0.0
H1209 H 0.74024 0.27894 0.27018 0.0
C1210 C 0.72249 0.26067 0.29504 0.0
C1211 C 0.71883 0.24348 0.30213 0.0
C1212 C 0.77809 0.24595 0.2292 0.0
C1213 C 0.74969 0.25334 0.26265 0.0
C1214 C 0.7934 0.2509 0.20946 0.0
C1215 C 0.79687 0.26807 0.20128 0.0
C1216 C 0.76607 0.25821 0.24108 0.0
C1217 C 0.78445 0.27994 0.21324 0.0
C1218 C 0.73781 0.26562 0.27543 0.0
C1219 C 0.73111 0.23158 0.28932 0.0
N1220 N 0.76963 0.27479 0.23258 0.0
N1221 N 0.74596 0.23673 0.27017 0.0
H1222 H 0.72718 0.71912 0.69964 0.0
H1223 H 0.78288 0.79582 0.79963 0.0
H1224 H 0.70957 0.77064 0.70789 0.0
H1225 H 0.79993 0.74406 0.7948 0.0
H1226 H 0.75592 0.78688 0.76591 0.0
H1227 H 0.75411 0.72809 0.73347 0.0
C1228 C 0.72898 0.73231 0.70832 0.0
C1229 C 0.71604 0.74411 0.70084 0.0
C1230 C 0.76556 0.77748 0.77236 0.0
C1231 C 0.74684 0.75447 0.73987 0.0
C1232 C 0.78095 0.78258 0.79174 0.0
C1233 C 0.79374 0.77071 0.80015 0.0
C1234 C 0.76293 0.76037 0.76119 0.0
C1235 C 0.79049 0.75371 0.78902 0.0
C1236 C 0.74435 0.73743 0.72778 0.0
C1237 C 0.71913 0.76105 0.71297 0.0
N1238 N 0.77547 0.74908 0.77009 0.0
N1239 N 0.73415 0.76569 0.73187 0.0
H1240 H 0.54514 0.53439 0.54275 0.0
H1241 H 0.46783 0.47906 0.44493 0.0
H1242 H 0.49335 0.55132 0.54214 0.0
H1243 H 0.51955 0.46193 0.44671 0.0
H1244 H 0.47697 0.50578 0.47976 0.0
H1245 H 0.53602 0.50769 0.50779 0.0
C1246 C 0.53186 0.53248 0.53554 0.0
C1247 C 0.52003 0.54517 0.54548 0.0
C1248 C 0.48632 0.49618 0.47241 0.0
C1249 C 0.50948 0.51465 0.50509 0.0
C1250 C 0.4811 0.48093 0.45236 0.0
C1251 C 0.4929 0.46818 0.44281 0.0
C1252 C 0.50347 0.49872 0.48304 0.0
C1253 C 0.50996 0.47135 0.45341 0.0
C1254 C 0.52665 0.51724 0.51543 0.0
C1255 C 0.50297 0.54195 0.53515 0.0
N1256 N 0.5147 0.48624 0.47296 0.0
N1257 N 0.49824 0.52707 0.51551 0.0
H1258 H 0.021 0.46207 0.04581 0.0
H1259 H 0.99197 0.55102 0.94085 0.0
H1260 H 0.96894 0.47795 0.03825 0.0
H1261 H 0.04389 0.53457 0.94595 0.0
H1262 H 0.98332 0.5243 0.97544 0.0
H1263 H 0.02951 0.48848 0.0094 0.0
C1264 C 0.01131 0.47113 0.03667 0.0
C1265 C 0.99417 0.46771 0.04527 0.0
C1266 C 0.9966 0.52648 0.96888 0.0
C1267 C 1.00395 0.49815 0.00308 0.0
C1268 C 1.00159 0.54176 0.94899 0.0
C1269 C 0.01874 0.54513 0.94043 0.0
C1270 C 0.00881 0.51438 0.98057 0.0
C1271 C 0.03055 0.53257 0.9518 0.0
C1272 C 0.01622 0.48624 0.01571 0.0
C1273 C 0.98228 0.48001 0.03244 0.0
N1274 N 0.02537 0.51779 0.97141 0.0
N1275 N 0.98739 0.49466 0.01199 0.0
H1276 H 0.54469 0.4776 0.95163 0.0
H1277 H 0.46775 0.53567 0.03875 0.0
H1278 H 0.4925 0.46191 0.94907 0.0
H1279 H 0.51994 0.55137 0.04143 0.0
H1280 H 0.47658 0.50847 0.00623 0.0
H1281 H 0.53588 0.50478 0.98433 0.0
C1282 C 0.5314 0.47986 0.95776 0.0
C1283 C 0.51935 0.4674 0.94751 0.0
C1284 C 0.48609 0.51788 0.01402 0.0
C1285 C 0.50916 0.49849 0.98516 0.0
C1286 C 0.48105 0.5334 0.03269 0.0
C1287 C 0.49309 0.54588 0.04291 0.0
C1288 C 0.5033 0.51477 0.00545 0.0
C1289 C 0.51017 0.54218 0.03416 0.0
C1290 C 0.52636 0.49538 0.97653 0.0
C1291 C 0.50228 0.47109 0.95636 0.0
N1292 N 0.51474 0.52702 0.01595 0.0
N1293 N 0.49772 0.48624 0.97465 0.0
H1294 H 0.04531 0.47843 0.54671 0.0
H1295 H 0.96834 0.53604 0.45757 0.0
H1296 H 0.99299 0.46336 0.55352 0.0
H1297 H 0.02059 0.55145 0.45237 0.0
H1298 H 0.97714 0.50925 0.49249 0.0
H1299 H 0.03652 0.50537 0.51256 0.0
C1300 C 0.03199 0.48079 0.54127 0.0
C1301 C 0.0199 0.46856 0.55306 0.0
C1302 C 0.98667 0.5185 0.48364 0.0
C1303 C 0.00973 0.49935 0.51368 0.0
C1304 C 0.98165 0.5338 0.46358 0.0
C1305 C 0.99371 0.54607 0.45193 0.0
C1306 C 1.0039 0.51542 0.49215 0.0
C1307 C 0.0108 0.54241 0.46071 0.0
C1308 C 0.02697 0.49617 0.52165 0.0
C1309 C 1.0028 0.47236 0.54503 0.0
N1310 N 0.01535 0.52747 0.48026 0.0
N1311 N 0.99825 0.48735 0.52583 0.0
H1312 H 0.10418 0.09695 0.11739 0.0
H1313 H 0.12586 0.19361 0.16039 0.0
H1314 H 0.0702 0.13751 0.08177 0.0
H1315 H 0.16521 0.15814 0.12534 0.0
H1316 H 0.10484 0.17164 0.14607 0.0
H1317 H 0.12654 0.11789 0.13158 0.0
C1318 C 0.10148 0.11021 0.11199 0.0
C1319 C 0.0853 0.11548 0.09821 0.0
C1320 C 0.11808 0.16865 0.14181 0.0
C1321 C 0.11058 0.1394 0.1158 0.0
C1322 C 0.13012 0.18112 0.15046 0.0
C1323 C 0.14735 0.17773 0.144 0.0
C1324 C 0.12326 0.15254 0.12731 0.0
C1325 C 0.15206 0.16131 0.13068 0.0
C1326 C 0.11421 0.12212 0.12023 0.0
C1327 C 0.08248 0.13284 0.09203 0.0
N1328 N 0.14008 0.14928 0.12283 0.0
N1329 N 0.09491 0.14417 0.10145 0.0
H1330 H 0.14027 0.83836 0.28887 0.0
H1331 H 0.08678 0.89094 0.46311 0.0
H1332 H 0.15883 0.84582 0.42806 0.0
H1333 H 0.09437 0.91002 0.32456 0.0
H1334 H 0.11064 0.8715 0.45157 0.0
H1335 H 0.1206 0.86204 0.30037 0.0
C1336 C 0.14037 0.84512 0.32154 0.0
C1337 C 0.15126 0.84021 0.35745 0.0
C1338 C 0.10718 0.88013 0.42403 0.0
C1339 C 0.1285 0.86676 0.37127 0.0
C1340 C 0.09361 0.89119 0.43057 0.0
C1341 C 0.08869 0.90216 0.39487 0.0
C1342 C 0.11545 0.87966 0.38097 0.0
C1343 C 0.09787 0.90188 0.35317 0.0
C1344 C 0.12918 0.85859 0.32805 0.0
C1345 C 0.15077 0.84931 0.3993 0.0
N1346 N 0.11061 0.89058 0.34701 0.0
N1347 N 0.13935 0.86194 0.40541 0.0
H1348 H 0.34684 0.85314 0.62323 0.0
H1349 H 0.44312 0.87459 0.57729 0.0
H1350 H 0.38756 0.81982 0.66204 0.0
H1351 H 0.40863 0.91432 0.61636 0.0
H1352 H 0.42096 0.85383 0.592 0.0
H1353 H 0.36767 0.87554 0.60777 0.0
C1354 C 0.3601 0.8506 0.62905 0.0
C1355 C 0.36546 0.83459 0.64414 0.0
C1356 C 0.41821 0.86711 0.59699 0.0
C1357 C 0.38922 0.85986 0.62502 0.0
C1358 C 0.43079 0.879 0.58815 0.0
C1359 C 0.42776 0.89624 0.59571 0.0
C1360 C 0.40234 0.87246 0.61276 0.0
C1361 C 0.41153 0.90115 0.61018 0.0
C1362 C 0.37194 0.86334 0.62009 0.0
C1363 C 0.38282 0.83197 0.65078 0.0
N1364 N 0.39938 0.8893 0.6182 0.0
N1365 N 0.39406 0.84437 0.64059 0.0
H1366 H 0.40808 0.09707 0.87624 0.0
H1367 H 0.38826 0.19393 0.83068 0.0
H1368 H 0.44341 0.13701 0.90715 0.0
H1369 H 0.34849 0.15971 0.8711 0.0
H1370 H 0.40889 0.17154 0.84422 0.0
H1371 H 0.38607 0.11845 0.86313 0.0
C1372 C 0.41116 0.11029 0.88084 0.0
C1373 C 0.42761 0.11526 0.89297 0.0
C1374 C 0.39563 0.16891 0.84984 0.0
C1375 C 0.40271 0.13967 0.87659 0.0
C1376 C 0.38381 0.18162 0.84166 0.0
C1377 C 0.3666 0.17871 0.84984 0.0
C1378 C 0.39023 0.15304 0.8656 0.0
C1379 C 0.36164 0.16251 0.86443 0.0
C1380 C 0.39862 0.12245 0.87322 0.0
C1381 C 0.43091 0.13258 0.89817 0.0
N1382 N 0.3734 0.15024 0.87178 0.0
N1383 N 0.41865 0.14414 0.88936 0.0
H1384 H 0.8716 0.83773 0.78626 0.0
H1385 H 0.92473 0.89049 0.96115 0.0
H1386 H 0.85202 0.84643 0.9238 0.0
H1387 H 0.91827 0.90894 0.8215 0.0
H1388 H 0.90067 0.8713 0.94912 0.0
H1389 H 0.89164 0.86111 0.79797 0.0
C1390 C 0.87137 0.8447 0.81859 0.0
C1391 C 0.86007 0.84024 0.85397 0.0
C1392 C 0.90443 0.87974 0.92144 0.0
C1393 C 0.88324 0.86642 0.86809 0.0
C1394 C 0.91811 0.89065 0.92826 0.0
C1395 C 0.9234 0.90138 0.89239 0.0
C1396 C 0.89643 0.87917 0.87798 0.0
C1397 C 0.91448 0.901 0.85024 0.0
C1398 C 0.88276 0.85799 0.82523 0.0
C1399 C 0.86039 0.84959 0.89542 0.0
N1400 N 0.90163 0.88984 0.84387 0.0
N1401 N 0.87201 0.86203 0.90172 0.0
H1402 H 0.92506 0.12222 0.53421 0.0
H1403 H 0.87182 0.1758 0.70662 0.0
H1404 H 0.91663 0.10326 0.67252 0.0
H1405 H 0.85304 0.1679 0.56785 0.0
H1406 H 0.89138 0.15198 0.6956 0.0
H1407 H 0.90146 0.14205 0.54512 0.0
C1408 C 0.9181 0.12208 0.56655 0.0
C1409 C 0.9227 0.11101 0.60237 0.0
C1410 C 0.88279 0.15538 0.6679 0.0
C1411 C 0.89628 0.13396 0.61558 0.0
C1412 C 0.87167 0.16892 0.67414 0.0
C1413 C 0.86073 0.17372 0.63824 0.0
C1414 C 0.88336 0.14703 0.62492 0.0
C1415 C 0.86114 0.16448 0.59662 0.0
C1416 C 0.90469 0.13336 0.57274 0.0
C1417 C 0.91338 0.11145 0.64382 0.0
N1418 N 0.8725 0.15178 0.59075 0.0
N1419 N 0.90081 0.12297 0.64965 0.0
H1420 H 0.66653 0.15776 0.36827 0.0
H1421 H 0.56981 0.13692 0.41266 0.0
H1422 H 0.62629 0.19261 0.33647 0.0
H1423 H 0.60468 0.09742 0.37448 0.0
H1424 H 0.59196 0.15781 0.39911 0.0
H1425 H 0.64537 0.13554 0.3816 0.0
C1426 C 0.65329 0.16068 0.3635 0.0
C1427 C 0.64818 0.17706 0.35105 0.0
C1428 C 0.59478 0.14456 0.394 0.0
C1429 C 0.62402 0.15193 0.36772 0.0
C1430 C 0.5822 0.13259 0.40221 0.0
C1431 C 0.58537 0.11537 0.39464 0.0
C1432 C 0.61077 0.1393 0.37881 0.0
C1433 C 0.60168 0.11057 0.38068 0.0
C1434 C 0.64125 0.14803 0.37127 0.0
C1435 C 0.63084 0.18016 0.34567 0.0
N1436 N 0.61381 0.12248 0.37327 0.0
N1437 N 0.6194 0.16779 0.35462 0.0
H1438 H 0.58635 0.89009 0.03681 0.0
H1439 H 0.63991 0.83709 0.21002 0.0
H1440 H 0.59484 0.90927 0.17492 0.0
H1441 H 0.65808 0.84416 0.07036 0.0
H1442 H 0.62042 0.86094 0.19874 0.0
H1443 H 0.60998 0.87032 0.04781 0.0
C1444 C 0.59332 0.8903 0.06913 0.0
C1445 C 0.58873 0.9014 0.10487 0.0
C1446 C 0.62887 0.85736 0.17089 0.0
C1447 C 0.61521 0.87854 0.11818 0.0
C1448 C 0.63995 0.8438 0.17728 0.0
C1449 C 0.65068 0.83874 0.14119 0.0
C1450 C 0.62813 0.86548 0.12763 0.0
C1451 C 0.65014 0.84777 0.09925 0.0
C1452 C 0.60676 0.87905 0.07536 0.0
C1453 C 0.59809 0.90105 0.14629 0.0
N1454 N 0.63882 0.8605 0.09328 0.0
N1455 N 0.61069 0.88957 0.15217 0.0
H1456 H 0.58746 0.62272 0.53363 0.0
H1457 H 0.64013 0.67537 0.7095 0.0
H1458 H 0.59597 0.60274 0.67084 0.0
H1459 H 0.65904 0.66879 0.57039 0.0
H1460 H 0.62083 0.65143 0.69693 0.0
H1461 H 0.61092 0.64263 0.54582 0.0
C1462 C 0.59441 0.62237 0.56599 0.0
C1463 C 0.58987 0.611 0.60113 0.0
C1464 C 0.6294 0.65514 0.66949 0.0
C1465 C 0.61614 0.63402 0.6158 0.0
C1466 C 0.64037 0.66875 0.67661 0.0
C1467 C 0.65126 0.67397 0.64106 0.0
C1468 C 0.62893 0.64714 0.62602 0.0
C1469 C 0.65097 0.66505 0.59889 0.0
C1470 C 0.60774 0.6337 0.57289 0.0
C1471 C 0.59919 0.61118 0.64264 0.0
N1472 N 0.63975 0.65228 0.59219 0.0
N1473 N 0.61167 0.62273 0.6492 0.0
H1474 H 0.56963 0.37475 0.91622 0.0
H1475 H 0.66624 0.35427 0.86904 0.0
H1476 H 0.60408 0.41431 0.8757 0.0
H1477 H 0.62602 0.31919 0.83884 0.0
H1478 H 0.64505 0.37641 0.88281 0.0
H1479 H 0.59184 0.35394 0.90245 0.0
C1480 C 0.58195 0.37911 0.9052 0.0
C1481 C 0.58498 0.39632 0.89704 0.0
C1482 C 0.64094 0.36389 0.87274 0.0
C1483 C 0.61045 0.37249 0.88099 0.0
C1484 C 0.65299 0.35128 0.86474 0.0
C1485 C 0.6479 0.33486 0.85258 0.0
C1486 C 0.62371 0.35991 0.86973 0.0
C1487 C 0.63055 0.33167 0.8478 0.0
C1488 C 0.59456 0.3672 0.89688 0.0
C1489 C 0.6012 0.40117 0.88237 0.0
N1490 N 0.6191 0.344 0.85697 0.0
N1491 N 0.61336 0.38931 0.87486 0.0
H1492 H 0.84791 0.35373 0.12751 0.0
H1493 H 0.9444 0.37549 0.08309 0.0
H1494 H 0.88854 0.31965 0.16171 0.0
H1495 H 0.90909 0.41481 0.1195 0.0
H1496 H 0.92247 0.35444 0.09743 0.0
H1497 H 0.8688 0.37614 0.11334 0.0
C1498 C 0.86118 0.35102 0.13261 0.0
C1499 C 0.86648 0.3348 0.14599 0.0
C1500 C 0.9195 0.36768 0.10199 0.0
C1501 C 0.89034 0.36013 0.1284 0.0
C1502 C 0.93195 0.37974 0.09333 0.0
C1503 C 0.9286 0.39697 0.10016 0.0
C1504 C 0.90345 0.37285 0.11687 0.0
C1505 C 0.91223 0.40167 0.11387 0.0
C1506 C 0.87306 0.36378 0.12438 0.0
C1507 C 0.88385 0.33197 0.15178 0.0
N1508 N 0.90022 0.38967 0.12171 0.0
N1509 N 0.89514 0.34442 0.14237 0.0
H1510 H 0.90855 0.59747 0.37896 0.0
H1511 H 0.88723 0.69371 0.32911 0.0
H1512 H 0.94297 0.63818 0.41008 0.0
H1513 H 0.84788 0.65907 0.37002 0.0
H1514 H 0.90817 0.67173 0.34408 0.0
H1515 H 0.88622 0.61839 0.36428 0.0
C1516 C 0.91135 0.61077 0.38328 0.0
C1517 C 0.92764 0.61609 0.39594 0.0
C1518 C 0.89494 0.66892 0.34948 0.0
C1519 C 0.9024 0.63996 0.37775 0.0
C1520 C 0.88294 0.68139 0.34047 0.0
C1521 C 0.86575 0.67825 0.34838 0.0
C1522 C 0.88974 0.65305 0.36581 0.0
C1523 C 0.861 0.66205 0.36352 0.0
C1524 C 0.89864 0.62266 0.37476 0.0
C1525 C 0.93059 0.63348 0.40073 0.0
N1526 N 0.87294 0.65001 0.37169 0.0
N1527 N 0.91818 0.64478 0.39104 0.0
H1528 H 0.35203 0.34646 0.42677 0.0
H1529 H 0.41694 0.41091 0.3164 0.0
H1530 H 0.37171 0.33818 0.28914 0.0
H1531 H 0.42467 0.39164 0.45472 0.0
H1532 H 0.39362 0.39085 0.30603 0.0
H1533 H 0.37208 0.3698 0.43696 0.0
C1534 C 0.36029 0.3498 0.39829 0.0
C1535 C 0.3602 0.34039 0.35696 0.0
C1536 C 0.4003 0.39124 0.33881 0.0
C1537 C 0.38292 0.36713 0.36839 0.0
C1538 C 0.41349 0.40273 0.34497 0.0
C1539 C 0.42273 0.40294 0.38657 0.0
C1540 C 0.39602 0.38022 0.37494 0.0
C1541 C 0.41787 0.39188 0.42215 0.0
C1542 C 0.37178 0.363 0.40436 0.0
C1543 C 0.37138 0.34511 0.3215 0.0
N1544 N 0.40476 0.38099 0.41564 0.0
N1545 N 0.38226 0.35824 0.32791 0.0
H1546 H 0.34529 0.65806 0.1163 0.0
H1547 H 0.44225 0.63831 0.07061 0.0
H1548 H 0.38522 0.69335 0.14758 0.0
H1549 H 0.40802 0.59859 0.11133 0.0
H1550 H 0.41976 0.65895 0.08281 0.0
H1551 H 0.36668 0.63619 0.1014 0.0
C1552 C 0.35852 0.66116 0.12041 0.0
C1553 C 0.36347 0.67753 0.13344 0.0
C1554 C 0.41715 0.64569 0.08871 0.0
C1555 C 0.38788 0.65281 0.11511 0.0
C1556 C 0.42992 0.63387 0.08132 0.0
C1557 C 0.42704 0.61668 0.09008 0.0
C1558 C 0.40125 0.64031 0.10426 0.0
C1559 C 0.4108 0.61173 0.10427 0.0
C1560 C 0.37068 0.64871 0.11182 0.0
C1561 C 0.3808 0.68089 0.13799 0.0
N1562 N 0.39848 0.62349 0.1109 0.0
N1563 N 0.39236 0.66871 0.12834 0.0
H1564 H 0.09513 0.60245 0.81679 0.0
H1565 H 0.15924 0.66782 0.92746 0.0
H1566 H 0.08701 0.62201 0.95467 0.0
H1567 H 0.14034 0.675 0.78851 0.0
H1568 H 0.13926 0.64444 0.93791 0.0
H1569 H 0.11838 0.6226 0.80656 0.0
C1570 C 0.09849 0.61071 0.84531 0.0
C1571 C 0.08915 0.61056 0.88673 0.0
C1572 C 0.1397 0.65102 0.90499 0.0
C1573 C 0.11577 0.63339 0.87525 0.0
C1574 C 0.15115 0.66424 0.89879 0.0
C1575 C 0.15145 0.67335 0.85698 0.0
C1576 C 0.12881 0.64656 0.8687 0.0
C1577 C 0.1405 0.66831 0.82125 0.0
C1578 C 0.11163 0.62226 0.83922 0.0
C1579 C 0.09389 0.62173 0.92224 0.0
N1580 N 0.12966 0.65517 0.82783 0.0
N1581 N 0.10695 0.63267 0.91579 0.0
H1582 H 0.0699 0.37572 0.58176 0.0
H1583 H 0.16655 0.35486 0.62687 0.0
H1584 H 0.10463 0.41512 0.62184 0.0
H1585 H 0.1263 0.31988 0.65755 0.0
H1586 H 0.1454 0.37709 0.61376 0.0
H1587 H 0.09206 0.35482 0.59493 0.0
C1588 C 0.08227 0.38003 0.59254 0.0
C1589 C 0.08539 0.39722 0.60077 0.0
C1590 C 0.14128 0.36457 0.62379 0.0
C1591 C 0.1108 0.37328 0.61616 0.0
C1592 C 0.15331 0.35191 0.63143 0.0
C1593 C 0.14819 0.3355 0.64351 0.0
C1594 C 0.12404 0.36064 0.62709 0.0
C1595 C 0.13085 0.33236 0.64863 0.0
C1596 C 0.09486 0.36805 0.60054 0.0
C1597 C 0.10167 0.40199 0.61514 0.0
N1598 N 0.11941 0.34474 0.63981 0.0
N1599 N 0.11381 0.39008 0.62233 0.0
loop_
_geom_bond_atom_site_label_1
_geom_bond_atom_site_label_2
_geom_bond_distance
_geom_bond_site_symmetry_2
_ccdc_geom_bond_type
O0 Cd1 2.223 . S
O0 C8 1.315 . S
Cd1 O0 2.223 . S
Cd1 O4 2.297 . S
Cd1 O5 2.439 . S
Cd1 O11 2.240 . S
Cd2 O3 2.240 . S
Cd2 O10 2.223 . S
Cd2 O12 2.292 1_454 S
Cd2 O13 2.439 1_554 S
O3 Cd2 2.240 . S
O3 C8 1.279 . S
O4 Cd1 2.297 . S
O4 C6 1.247 . S
O5 Cd1 2.439 . S
O5 C6 1.208 . S
C6 O4 1.247 . S
C6 O5 1.208 . S
C7 O12 1.226 1_455 S
C7 O13 1.208 . S
C8 O0 1.315 . S
C8 O3 1.279 . S
C9 O10 1.315 . S
C9 O11 1.279 . S
O10 Cd2 2.223 . S
O10 C9 1.315 . S
O11 Cd1 2.240 . S
O11 C9 1.279 . S
O12 Cd2 2.292 1_656 S
O12 C7 1.226 1_655 S
O13 Cd2 2.439 1_556 S
O13 C7 1.208 . S
O14 Cd15 2.223 . S
O14 C22 1.315 . S
Cd15 O14 2.223 . S
Cd15 O18 2.297 . S
Cd15 O19 2.439 . S
Cd15 O25 2.240 . S
Cd16 O17 2.240 . S
Cd16 O24 2.223 . S
Cd16 O26 2.297 . S
Cd16 O27 2.439 . S
O17 Cd16 2.240 . S
O17 C22 1.279 . S
O18 Cd15 2.297 . S
O18 C20 1.247 . S
O19 Cd15 2.439 . S
O19 C20 1.208 . S
C20 O18 1.247 . S
C20 O19 1.208 . S
C21 O26 1.247 . S
C21 O27 1.208 . S
C22 O14 1.315 . S
C22 O17 1.279 . S
C23 O24 1.315 . S
C23 O25 1.279 . S
O24 Cd16 2.223 . S
O24 C23 1.315 . S
O25 Cd15 2.240 . S
O25 C23 1.279 . S
O26 Cd16 2.297 . S
O26 C21 1.247 . S
O27 Cd16 2.439 . S
O27 C21 1.208 . S
O28 Cd29 2.223 . S
O28 C36 1.315 . S
Cd29 O28 2.223 . S
Cd29 O32 2.297 . S
Cd29 O33 2.439 . S
Cd29 O39 2.240 . S
Cd30 O31 2.240 . S
Cd30 O38 2.223 . S
Cd30 O40 2.297 . S
Cd30 O41 2.439 . S
O31 Cd30 2.240 . S
O31 C36 1.279 . S
O32 Cd29 2.297 . S
O32 C34 1.247 . S
O33 Cd29 2.439 . S
O33 C34 1.208 . S
C34 O32 1.247 . S
C34 O33 1.208 . S
C35 O40 1.247 . S
C35 O41 1.208 . S
C36 O28 1.315 . S
C36 O31 1.279 . S
C37 O38 1.315 . S
C37 O39 1.279 . S
O38 Cd30 2.223 . S
O38 C37 1.315 . S
O39 Cd29 2.240 . S
O39 C37 1.279 . S
O40 Cd30 2.297 . S
O40 C35 1.247 . S
O41 Cd30 2.439 . S
O41 C35 1.208 . S
O42 Cd43 2.223 . S
O42 C50 1.315 . S
Cd43 O42 2.223 . S
Cd43 O46 2.297 . S
Cd43 O47 2.439 . S
Cd43 O53 2.240 . S
Cd44 O45 2.240 . S
Cd44 O52 2.223 . S
Cd44 O54 2.297 . S
Cd44 O55 2.439 . S
O45 Cd44 2.240 . S
O45 C50 1.279 . S
O46 Cd43 2.297 . S
O46 C48 1.247 . S
O47 Cd43 2.439 . S
O47 C48 1.208 . S
C48 O46 1.247 . S
C48 O47 1.208 . S
C49 O54 1.247 . S
C49 O55 1.208 . S
C50 O42 1.315 . S
C50 O45 1.279 . S
C51 O52 1.315 . S
C51 O53 1.279 . S
O52 Cd44 2.223 . S
O52 C51 1.315 . S
O53 Cd43 2.240 . S
O53 C51 1.279 . S
O54 Cd44 2.297 . S
O54 C49 1.247 . S
O55 Cd44 2.439 . S
O55 C49 1.208 . S
O56 Cd57 2.223 . S
O56 C64 1.315 . S
Cd57 O56 2.223 . S
Cd57 O60 2.297 . S
Cd57 O61 2.439 . S
Cd57 O67 2.240 . S
Cd58 O59 2.240 . S
Cd58 O66 2.223 . S
Cd58 O68 2.292 1_455 S
Cd58 O69 2.439 . S
O59 Cd58 2.240 . S
O59 C64 1.279 . S
O60 Cd57 2.297 . S
O60 C62 1.247 . S
O61 Cd57 2.439 . S
O61 C62 1.208 . S
C62 O60 1.247 . S
C62 O61 1.208 . S
C63 O68 1.224 1_455 S
C63 O69 1.208 . S
C64 O56 1.315 . S
C64 O59 1.279 . S
C65 O66 1.315 . S
C65 O67 1.279 . S
O66 Cd58 2.223 . S
O66 C65 1.315 . S
O67 Cd57 2.240 . S
O67 C65 1.279 . S
O68 Cd58 2.292 1_655 S
O68 C63 1.224 1_655 S
O69 Cd58 2.439 . S
O69 C63 1.208 . S
O70 Cd71 2.223 . S
O70 C78 1.315 . S
Cd71 O70 2.223 . S
Cd71 O74 2.297 . S
Cd71 O75 2.439 . S
Cd71 O81 2.240 . S
Cd72 O73 2.240 . S
Cd72 O80 2.223 . S
Cd72 O82 2.297 . S
Cd72 O83 2.439 . S
O73 Cd72 2.240 . S
O73 C78 1.279 . S
O74 Cd71 2.297 . S
O74 C76 1.247 . S
O75 Cd71 2.439 . S
O75 C76 1.208 . S
C76 O74 1.247 . S
C76 O75 1.208 . S
C77 O82 1.247 . S
C77 O83 1.208 . S
C78 O70 1.315 . S
C78 O73 1.279 . S
C79 O80 1.315 . S
C79 O81 1.279 . S
O80 Cd72 2.223 . S
O80 C79 1.315 . S
O81 Cd71 2.240 . S
O81 C79 1.279 . S
O82 Cd72 2.297 . S
O82 C77 1.247 . S
O83 Cd72 2.439 . S
O83 C77 1.208 . S
O84 Cd85 2.223 . S
O84 C92 1.315 . S
Cd85 O84 2.223 . S
Cd85 O88 2.297 . S
Cd85 O89 2.439 . S
Cd85 O95 2.240 . S
Cd86 O87 2.240 . S
Cd86 O94 2.223 . S
Cd86 O96 2.297 1_556 S
Cd86 O97 2.439 1_556 S
O87 Cd86 2.240 . S
O87 C92 1.279 . S
O88 Cd85 2.297 . S
O88 C90 1.247 . S
O89 Cd85 2.439 . S
O89 C90 1.208 . S
C90 O88 1.247 . S
C90 O89 1.208 . S
C91 O96 1.247 . S
C91 O97 1.208 . S
C92 O84 1.315 . S
C92 O87 1.279 . S
C93 O94 1.315 . S
C93 O95 1.279 . S
O94 Cd86 2.223 . S
O94 C93 1.315 . S
O95 Cd85 2.240 . S
O95 C93 1.279 . S
O96 Cd86 2.297 1_554 S
O96 C91 1.247 . S
O97 Cd86 2.439 1_554 S
O97 C91 1.208 . S
O98 Cd99 2.223 . S
O98 C106 1.315 . S
Cd99 O98 2.223 . S
Cd99 O102 2.297 . S
Cd99 O103 2.439 . S
Cd99 O109 2.240 . S
Cd100 O101 2.240 . S
Cd100 O108 2.223 . S
Cd100 O110 2.297 . S
Cd100 O111 2.439 . S
O101 Cd100 2.240 . S
O101 C106 1.279 . S
O102 Cd99 2.297 . S
O102 C104 1.247 . S
O103 Cd99 2.439 . S
O103 C104 1.208 . S
C104 O102 1.247 . S
C104 O103 1.208 . S
C105 O110 1.247 . S
C105 O111 1.208 . S
C106 O98 1.315 . S
C106 O101 1.279 . S
C107 O108 1.315 . S
C107 O109 1.279 . S
O108 Cd100 2.223 . S
O108 C107 1.315 . S
O109 Cd99 2.240 . S
O109 C107 1.279 . S
O110 Cd100 2.297 . S
O110 C105 1.247 . S
O111 Cd100 2.439 . S
O111 C105 1.208 . S
O112 Cd113 2.223 . S
O112 C120 1.315 . S
Cd113 O112 2.223 . S
Cd113 O116 2.297 . S
Cd113 O117 2.439 . S
Cd113 O123 2.240 . S
Cd114 O115 2.240 . S
Cd114 O122 2.223 . S
Cd114 O124 2.292 1_656 S
Cd114 O125 2.439 1_556 S
O115 Cd114 2.240 . S
O115 C120 1.279 . S
O116 Cd113 2.297 . S
O116 C118 1.247 . S
O117 Cd113 2.439 . S
O117 C118 1.208 . S
C118 O116 1.247 . S
C118 O117 1.208 . S
C119 O124 1.226 1_655 S
C119 O125 1.208 . S
C120 O112 1.315 . S
C120 O115 1.279 . S
C121 O122 1.315 . S
C121 O123 1.279 . S
O122 Cd114 2.223 . S
O122 C121 1.315 . S
O123 Cd113 2.240 . S
O123 C121 1.279 . S
O124 Cd114 2.292 1_454 S
O124 C119 1.226 1_455 S
O125 Cd114 2.439 1_554 S
O125 C119 1.208 . S
O126 Cd127 2.223 . S
O126 C134 1.315 . S
Cd127 O126 2.223 . S
Cd127 O130 2.297 . S
Cd127 O131 2.439 . S
Cd127 O137 2.240 . S
Cd128 O129 2.240 . S
Cd128 O136 2.223 . S
Cd128 O138 2.297 . S
Cd128 O139 2.439 . S
O129 Cd128 2.240 . S
O129 C134 1.279 . S
O130 Cd127 2.297 . S
O130 C132 1.247 . S
O131 Cd127 2.439 . S
O131 C132 1.208 . S
C132 O130 1.247 . S
C132 O131 1.208 . S
C133 O138 1.247 . S
C133 O139 1.208 . S
C134 O126 1.315 . S
C134 O129 1.279 . S
C135 O136 1.315 . S
C135 O137 1.279 . S
O136 Cd128 2.223 . S
O136 C135 1.315 . S
O137 Cd127 2.240 . S
O137 C135 1.279 . S
O138 Cd128 2.297 . S
O138 C133 1.247 . S
O139 Cd128 2.439 . S
O139 C133 1.208 . S
O140 Cd141 2.223 . S
O140 C148 1.315 . S
Cd141 O140 2.223 . S
Cd141 O144 2.297 . S
Cd141 O145 2.439 . S
Cd141 O151 2.240 . S
Cd142 O143 2.240 . S
Cd142 O150 2.223 . S
Cd142 O152 2.297 . S
Cd142 O153 2.439 . S
O143 Cd142 2.240 . S
O143 C148 1.279 . S
O144 Cd141 2.297 . S
O144 C146 1.247 . S
O145 Cd141 2.439 . S
O145 C146 1.208 . S
C146 O144 1.247 . S
C146 O145 1.208 . S
C147 O152 1.247 . S
C147 O153 1.208 . S
C148 O140 1.315 . S
C148 O143 1.279 . S
C149 O150 1.315 . S
C149 O151 1.279 . S
O150 Cd142 2.223 . S
O150 C149 1.315 . S
O151 Cd141 2.240 . S
O151 C149 1.279 . S
O152 Cd142 2.297 . S
O152 C147 1.247 . S
O153 Cd142 2.439 . S
O153 C147 1.208 . S
O154 Cd155 2.223 . S
O154 C162 1.315 . S
Cd155 O154 2.223 . S
Cd155 O158 2.297 . S
Cd155 O159 2.439 . S
Cd155 O165 2.240 . S
Cd156 O157 2.240 . S
Cd156 O164 2.223 . S
Cd156 O166 2.297 . S
Cd156 O167 2.439 . S
O157 Cd156 2.240 . S
O157 C162 1.279 . S
O158 Cd155 2.297 . S
O158 C160 1.247 . S
O159 Cd155 2.439 . S
O159 C160 1.208 . S
C160 O158 1.247 . S
C160 O159 1.208 . S
C161 O166 1.247 . S
C161 O167 1.208 . S
C162 O154 1.315 . S
C162 O157 1.279 . S
C163 O164 1.315 . S
C163 O165 1.279 . S
O164 Cd156 2.223 . S
O164 C163 1.315 . S
O165 Cd155 2.240 . S
O165 C163 1.279 . S
O166 Cd156 2.297 . S
O166 C161 1.247 . S
O167 Cd156 2.439 . S
O167 C161 1.208 . S
O168 Cd169 2.223 . S
O168 C176 1.315 . S
Cd169 O168 2.223 . S
Cd169 O172 2.297 . S
Cd169 O173 2.439 . S
Cd169 O179 2.240 . S
Cd170 O171 2.240 . S
Cd170 O178 2.223 . S
Cd170 O180 2.292 1_655 S
Cd170 O181 2.439 . S
O171 Cd170 2.240 . S
O171 C176 1.279 . S
O172 Cd169 2.297 . S
O172 C174 1.247 . S
O173 Cd169 2.439 . S
O173 C174 1.208 . S
C174 O172 1.247 . S
C174 O173 1.208 . S
C175 O180 1.224 1_655 S
C175 O181 1.208 . S
C176 O168 1.315 . S
C176 O171 1.279 . S
C177 O178 1.315 . S
C177 O179 1.279 . S
O178 Cd170 2.223 . S
O178 C177 1.315 . S
O179 Cd169 2.240 . S
O179 C177 1.279 . S
O180 Cd170 2.292 1_455 S
O180 C175 1.224 1_455 S
O181 Cd170 2.439 . S
O181 C175 1.208 . S
O182 Cd183 2.223 . S
O182 C190 1.315 . S
Cd183 O182 2.223 . S
Cd183 O186 2.297 . S
Cd183 O187 2.439 . S
Cd183 O193 2.240 . S
Cd184 O185 2.240 . S
Cd184 O192 2.223 . S
Cd184 O194 2.297 . S
Cd184 O195 2.439 . S
O185 Cd184 2.240 . S
O185 C190 1.279 . S
O186 Cd183 2.297 . S
O186 C188 1.247 . S
O187 Cd183 2.439 . S
O187 C188 1.208 . S
C188 O186 1.247 . S
C188 O187 1.208 . S
C189 O194 1.247 . S
C189 O195 1.208 . S
C190 O182 1.315 . S
C190 O185 1.279 . S
C191 O192 1.315 . S
C191 O193 1.279 . S
O192 Cd184 2.223 . S
O192 C191 1.315 . S
O193 Cd183 2.240 . S
O193 C191 1.279 . S
O194 Cd184 2.297 . S
O194 C189 1.247 . S
O195 Cd184 2.439 . S
O195 C189 1.208 . S
O196 Cd197 2.223 . S
O196 C204 1.315 . S
Cd197 O196 2.223 . S
Cd197 O200 2.297 . S
Cd197 O201 2.439 . S
Cd197 O207 2.240 . S
Cd198 O199 2.240 . S
Cd198 O206 2.223 . S
Cd198 O208 2.297 1_554 S
Cd198 O209 2.439 1_554 S
O199 Cd198 2.240 . S
O199 C204 1.279 . S
O200 Cd197 2.297 . S
O200 C202 1.247 . S
O201 Cd197 2.439 . S
O201 C202 1.208 . S
C202 O200 1.247 . S
C202 O201 1.208 . S
C203 O208 1.247 . S
C203 O209 1.208 . S
C204 O196 1.315 . S
C204 O199 1.279 . S
C205 O206 1.315 . S
C205 O207 1.279 . S
O206 Cd198 2.223 . S
O206 C205 1.315 . S
O207 Cd197 2.240 . S
O207 C205 1.279 . S
O208 Cd198 2.297 1_556 S
O208 C203 1.247 . S
O209 Cd198 2.439 1_556 S
O209 C203 1.208 . S
O210 Cd211 2.223 . S
O210 C218 1.315 . S
Cd211 O210 2.223 . S
Cd211 O214 2.297 . S
Cd211 O215 2.439 . S
Cd211 O221 2.240 . S
Cd212 O213 2.240 . S
Cd212 O220 2.223 . S
Cd212 O222 2.297 . S
Cd212 O223 2.439 . S
O213 Cd212 2.240 . S
O213 C218 1.279 . S
O214 Cd211 2.297 . S
O214 C216 1.247 . S
O215 Cd211 2.439 . S
O215 C216 1.208 . S
C216 O214 1.247 . S
C216 O215 1.208 . S
C217 O222 1.247 . S
C217 O223 1.208 . S
C218 O210 1.315 . S
C218 O213 1.279 . S
C219 O220 1.315 . S
C219 O221 1.279 . S
O220 Cd212 2.223 . S
O220 C219 1.315 . S
O221 Cd211 2.240 . S
O221 C219 1.279 . S
O222 Cd212 2.297 . S
O222 C217 1.247 . S
O223 Cd212 2.439 . S
O223 C217 1.208 . S
O224 Cd225 2.223 . S
O224 C232 1.315 . S
Cd225 O224 2.223 . S
Cd225 O228 2.297 . S
Cd225 O229 2.439 . S
Cd225 O235 2.240 . S
Cd226 O227 2.240 . S
Cd226 O234 2.223 . S
Cd226 O236 2.297 . S
Cd226 O237 2.439 . S
O227 Cd226 2.240 . S
O227 C232 1.279 . S
O228 Cd225 2.297 . S
O228 C230 1.247 . S
O229 Cd225 2.439 . S
O229 C230 1.208 . S
C230 O228 1.247 . S
C230 O229 1.208 . S
C231 O236 1.247 . S
C231 O237 1.208 . S
C232 O224 1.315 . S
C232 O227 1.279 . S
C233 O234 1.315 . S
C233 O235 1.279 . S
O234 Cd226 2.223 . S
O234 C233 1.315 . S
O235 Cd225 2.240 . S
O235 C233 1.279 . S
O236 Cd226 2.297 . S
O236 C231 1.247 . S
O237 Cd226 2.439 . S
O237 C231 1.208 . S
O238 Cd239 2.223 . S
O238 C246 1.315 . S
Cd239 O238 2.223 . S
Cd239 O242 2.297 . S
Cd239 O243 2.439 . S
Cd239 O249 2.240 . S
Cd240 O241 2.240 . S
Cd240 O248 2.223 . S
Cd240 O250 2.297 . S
Cd240 O251 2.439 . S
O241 Cd240 2.240 . S
O241 C246 1.279 . S
O242 Cd239 2.297 . S
O242 C244 1.247 . S
O243 Cd239 2.439 . S
O243 C244 1.208 . S
C244 O242 1.247 . S
C244 O243 1.208 . S
C245 O250 1.247 . S
C245 O251 1.208 . S
C246 O238 1.315 . S
C246 O241 1.279 . S
C247 O248 1.315 . S
C247 O249 1.279 . S
O248 Cd240 2.223 . S
O248 C247 1.315 . S
O249 Cd239 2.240 . S
O249 C247 1.279 . S
O250 Cd240 2.297 . S
O250 C245 1.247 . S
O251 Cd240 2.439 . S
O251 C245 1.208 . S
O252 Cd253 2.223 . S
O252 C260 1.315 . S
Cd253 O252 2.223 . S
Cd253 O256 2.297 . S
Cd253 O257 2.439 . S
Cd253 O263 2.240 . S
Cd254 O255 2.240 . S
Cd254 O262 2.223 . S
Cd254 O264 2.292 1_654 S
Cd254 O265 2.439 1_554 S
O255 Cd254 2.240 . S
O255 C260 1.279 . S
O256 Cd253 2.297 . S
O256 C258 1.247 . S
O257 Cd253 2.439 . S
O257 C258 1.208 . S
C258 O256 1.247 . S
C258 O257 1.208 . S
C259 O264 1.226 1_655 S
C259 O265 1.208 . S
C260 O252 1.315 . S
C260 O255 1.279 . S
C261 O262 1.315 . S
C261 O263 1.279 . S
O262 Cd254 2.223 . S
O262 C261 1.315 . S
O263 Cd253 2.240 . S
O263 C261 1.279 . S
O264 Cd254 2.292 1_456 S
O264 C259 1.226 1_455 S
O265 Cd254 2.439 1_556 S
O265 C259 1.208 . S
O266 Cd267 2.223 . S
O266 C274 1.315 . S
Cd267 O266 2.223 . S
Cd267 O270 2.297 . S
Cd267 O271 2.439 . S
Cd267 O277 2.240 . S
Cd268 O269 2.240 . S
Cd268 O276 2.223 . S
Cd268 O278 2.297 . S
Cd268 O279 2.439 . S
O269 Cd268 2.240 . S
O269 C274 1.279 . S
O270 Cd267 2.297 . S
O270 C272 1.247 . S
O271 Cd267 2.439 . S
O271 C272 1.208 . S
C272 O270 1.247 . S
C272 O271 1.208 . S
C273 O278 1.247 . S
C273 O279 1.208 . S
C274 O266 1.315 . S
C274 O269 1.279 . S
C275 O276 1.315 . S
C275 O277 1.279 . S
O276 Cd268 2.223 . S
O276 C275 1.315 . S
O277 Cd267 2.240 . S
O277 C275 1.279 . S
O278 Cd268 2.297 . S
O278 C273 1.247 . S
O279 Cd268 2.439 . S
O279 C273 1.208 . S
O280 Cd281 2.223 . S
O280 C288 1.315 . S
Cd281 O280 2.223 . S
Cd281 O284 2.297 . S
Cd281 O285 2.439 . S
Cd281 O291 2.240 . S
Cd282 O283 2.240 . S
Cd282 O290 2.223 . S
Cd282 O292 2.297 1_556 S
Cd282 O293 2.439 1_556 S
O283 Cd282 2.240 . S
O283 C288 1.279 . S
O284 Cd281 2.297 . S
O284 C286 1.247 . S
O285 Cd281 2.439 . S
O285 C286 1.208 . S
C286 O284 1.247 . S
C286 O285 1.208 . S
C287 O292 1.247 . S
C287 O293 1.208 . S
C288 O280 1.315 . S
C288 O283 1.279 . S
C289 O290 1.315 . S
C289 O291 1.279 . S
O290 Cd282 2.223 . S
O290 C289 1.315 . S
O291 Cd281 2.240 . S
O291 C289 1.279 . S
O292 Cd282 2.297 1_554 S
O292 C287 1.247 . S
O293 Cd282 2.439 1_554 S
O293 C287 1.208 . S
O294 Cd295 2.223 . S
O294 C302 1.315 . S
Cd295 O294 2.223 . S
Cd295 O298 2.297 . S
Cd295 O299 2.439 . S
Cd295 O305 2.240 . S
Cd296 O297 2.240 . S
Cd296 O304 2.223 . S
Cd296 O306 2.297 . S
Cd296 O307 2.439 . S
O297 Cd296 2.240 . S
O297 C302 1.279 . S
O298 Cd295 2.297 . S
O298 C300 1.247 . S
O299 Cd295 2.439 . S
O299 C300 1.208 . S
C300 O298 1.247 . S
C300 O299 1.208 . S
C301 O306 1.247 . S
C301 O307 1.208 . S
C302 O294 1.315 . S
C302 O297 1.279 . S
C303 O304 1.315 . S
C303 O305 1.279 . S
O304 Cd296 2.223 . S
O304 C303 1.315 . S
O305 Cd295 2.240 . S
O305 C303 1.279 . S
O306 Cd296 2.297 . S
O306 C301 1.247 . S
O307 Cd296 2.439 . S
O307 C301 1.208 . S
O308 Cd309 2.223 . S
O308 C316 1.315 . S
Cd309 O308 2.223 . S
Cd309 O312 2.297 . S
Cd309 O313 2.439 . S
Cd309 O319 2.240 . S
Cd310 O311 2.240 . S
Cd310 O318 2.223 . S
Cd310 O320 2.292 1_655 S
Cd310 O321 2.439 . S
O311 Cd310 2.240 . S
O311 C316 1.279 . S
O312 Cd309 2.297 . S
O312 C314 1.247 . S
O313 Cd309 2.439 . S
O313 C314 1.208 . S
C314 O312 1.247 . S
C314 O313 1.208 . S
C315 O320 1.224 1_655 S
C315 O321 1.208 . S
C316 O308 1.315 . S
C316 O311 1.279 . S
C317 O318 1.315 . S
C317 O319 1.279 . S
O318 Cd310 2.223 . S
O318 C317 1.315 . S
O319 Cd309 2.240 . S
O319 C317 1.279 . S
O320 Cd310 2.292 1_455 S
O320 C315 1.224 1_455 S
O321 Cd310 2.439 . S
O321 C315 1.208 . S
O322 Cd323 2.223 . S
O322 C330 1.315 . S
Cd323 O322 2.223 . S
Cd323 O326 2.297 . S
Cd323 O327 2.439 . S
Cd323 O333 2.240 . S
Cd324 O325 2.240 . S
Cd324 O332 2.223 . S
Cd324 O334 2.297 . S
Cd324 O335 2.439 . S
O325 Cd324 2.240 . S
O325 C330 1.279 . S
O326 Cd323 2.297 . S
O326 C328 1.247 . S
O327 Cd323 2.439 . S
O327 C328 1.208 . S
C328 O326 1.247 . S
C328 O327 1.208 . S
C329 O334 1.247 . S
C329 O335 1.208 . S
C330 O322 1.315 . S
C330 O325 1.279 . S
C331 O332 1.315 . S
C331 O333 1.279 . S
O332 Cd324 2.223 . S
O332 C331 1.315 . S
O333 Cd323 2.240 . S
O333 C331 1.279 . S
O334 Cd324 2.297 . S
O334 C329 1.247 . S
O335 Cd324 2.439 . S
O335 C329 1.208 . S
O336 Cd337 2.223 . S
O336 C344 1.315 . S
Cd337 O336 2.223 . S
Cd337 O340 2.297 . S
Cd337 O341 2.439 . S
Cd337 O347 2.240 . S
Cd338 O339 2.240 . S
Cd338 O346 2.223 . S
Cd338 O348 2.297 . S
Cd338 O349 2.439 . S
O339 Cd338 2.240 . S
O339 C344 1.279 . S
O340 Cd337 2.297 . S
O340 C342 1.247 . S
O341 Cd337 2.439 . S
O341 C342 1.208 . S
C342 O340 1.247 . S
C342 O341 1.208 . S
C343 O348 1.247 . S
C343 O349 1.208 . S
C344 O336 1.315 . S
C344 O339 1.279 . S
C345 O346 1.315 . S
C345 O347 1.279 . S
O346 Cd338 2.223 . S
O346 C345 1.315 . S
O347 Cd337 2.240 . S
O347 C345 1.279 . S
O348 Cd338 2.297 . S
O348 C343 1.247 . S
O349 Cd338 2.439 . S
O349 C343 1.208 . S
O350 Cd351 2.223 . S
O350 C358 1.315 . S
Cd351 O350 2.223 . S
Cd351 O354 2.297 . S
Cd351 O355 2.439 . S
Cd351 O361 2.240 . S
Cd352 O353 2.240 . S
Cd352 O360 2.223 . S
Cd352 O362 2.297 . S
Cd352 O363 2.439 . S
O353 Cd352 2.240 . S
O353 C358 1.279 . S
O354 Cd351 2.297 . S
O354 C356 1.247 . S
O355 Cd351 2.439 . S
O355 C356 1.208 . S
C356 O354 1.247 . S
C356 O355 1.208 . S
C357 O362 1.247 . S
C357 O363 1.208 . S
C358 O350 1.315 . S
C358 O353 1.279 . S
C359 O360 1.315 . S
C359 O361 1.279 . S
O360 Cd352 2.223 . S
O360 C359 1.315 . S
O361 Cd351 2.240 . S
O361 C359 1.279 . S
O362 Cd352 2.297 . S
O362 C357 1.247 . S
O363 Cd352 2.439 . S
O363 C357 1.208 . S
O364 Cd365 2.223 . S
O364 C372 1.315 . S
Cd365 O364 2.223 . S
Cd365 O368 2.297 . S
Cd365 O369 2.439 . S
Cd365 O375 2.240 . S
Cd366 O367 2.240 . S
Cd366 O374 2.223 . S
Cd366 O376 2.292 1_456 S
Cd366 O377 2.439 1_556 S
O367 Cd366 2.240 . S
O367 C372 1.279 . S
O368 Cd365 2.297 . S
O368 C370 1.247 . S
O369 Cd365 2.439 . S
O369 C370 1.208 . S
C370 O368 1.247 . S
C370 O369 1.208 . S
C371 O376 1.226 1_455 S
C371 O377 1.208 . S
C372 O364 1.315 . S
C372 O367 1.279 . S
C373 O374 1.315 . S
C373 O375 1.279 . S
O374 Cd366 2.223 . S
O374 C373 1.315 . S
O375 Cd365 2.240 . S
O375 C373 1.279 . S
O376 Cd366 2.292 1_654 S
O376 C371 1.226 1_655 S
O377 Cd366 2.439 1_554 S
O377 C371 1.208 . S
O378 Cd379 2.223 . S
O378 C386 1.315 . S
Cd379 O378 2.223 . S
Cd379 O382 2.297 . S
Cd379 O383 2.439 . S
Cd379 O389 2.240 . S
Cd380 O381 2.240 . S
Cd380 O388 2.223 . S
Cd380 O390 2.297 . S
Cd380 O391 2.439 . S
O381 Cd380 2.240 . S
O381 C386 1.279 . S
O382 Cd379 2.297 . S
O382 C384 1.247 . S
O383 Cd379 2.439 . S
O383 C384 1.208 . S
C384 O382 1.247 . S
C384 O383 1.208 . S
C385 O390 1.247 . S
C385 O391 1.208 . S
C386 O378 1.315 . S
C386 O381 1.279 . S
C387 O388 1.315 . S
C387 O389 1.279 . S
O388 Cd380 2.223 . S
O388 C387 1.315 . S
O389 Cd379 2.240 . S
O389 C387 1.279 . S
O390 Cd380 2.297 . S
O390 C385 1.247 . S
O391 Cd380 2.439 . S
O391 C385 1.208 . S
O392 Cd393 2.223 . S
O392 C400 1.315 . S
Cd393 O392 2.223 . S
Cd393 O396 2.297 . S
Cd393 O397 2.439 . S
Cd393 O403 2.240 . S
Cd394 O395 2.240 . S
Cd394 O402 2.223 . S
Cd394 O404 2.297 1_554 S
Cd394 O405 2.439 1_554 S
O395 Cd394 2.240 . S
O395 C400 1.279 . S
O396 Cd393 2.297 . S
O396 C398 1.247 . S
O397 Cd393 2.439 . S
O397 C398 1.208 . S
C398 O396 1.247 . S
C398 O397 1.208 . S
C399 O404 1.247 . S
C399 O405 1.208 . S
C400 O392 1.315 . S
C400 O395 1.279 . S
C401 O402 1.315 . S
C401 O403 1.279 . S
O402 Cd394 2.223 . S
O402 C401 1.315 . S
O403 Cd393 2.240 . S
O403 C401 1.279 . S
O404 Cd394 2.297 1_556 S
O404 C399 1.247 . S
O405 Cd394 2.439 1_556 S
O405 C399 1.208 . S
O406 Cd407 2.223 . S
O406 C414 1.315 . S
Cd407 O406 2.223 . S
Cd407 O410 2.297 . S
Cd407 O411 2.439 . S
Cd407 O417 2.240 . S
Cd408 O409 2.240 . S
Cd408 O416 2.223 . S
Cd408 O418 2.297 . S
Cd408 O419 2.439 . S
O409 Cd408 2.240 . S
O409 C414 1.279 . S
O410 Cd407 2.297 . S
O410 C412 1.247 . S
O411 Cd407 2.439 . S
O411 C412 1.208 . S
C412 O410 1.247 . S
C412 O411 1.208 . S
C413 O418 1.247 . S
C413 O419 1.208 . S
C414 O406 1.315 . S
C414 O409 1.279 . S
C415 O416 1.315 . S
C415 O417 1.279 . S
O416 Cd408 2.223 . S
O416 C415 1.315 . S
O417 Cd407 2.240 . S
O417 C415 1.279 . S
O418 Cd408 2.297 . S
O418 C413 1.247 . S
O419 Cd408 2.439 . S
O419 C413 1.208 . S
O420 Cd421 2.223 . S
O420 C428 1.315 . S
Cd421 O420 2.223 . S
Cd421 O424 2.297 . S
Cd421 O425 2.439 . S
Cd421 O431 2.240 . S
Cd422 O423 2.240 . S
Cd422 O430 2.223 . S
Cd422 O432 2.292 1_455 S
Cd422 O433 2.439 . S
O423 Cd422 2.240 . S
O423 C428 1.279 . S
O424 Cd421 2.297 . S
O424 C426 1.247 . S
O425 Cd421 2.439 . S
O425 C426 1.208 . S
C426 O424 1.247 . S
C426 O425 1.208 . S
C427 O432 1.224 1_455 S
C427 O433 1.208 . S
C428 O420 1.315 . S
C428 O423 1.279 . S
C429 O430 1.315 . S
C429 O431 1.279 . S
O430 Cd422 2.223 . S
O430 C429 1.315 . S
O431 Cd421 2.240 . S
O431 C429 1.279 . S
O432 Cd422 2.292 1_655 S
O432 C427 1.224 1_655 S
O433 Cd422 2.439 . S
O433 C427 1.208 . S
O434 Cd435 2.223 . S
O434 C442 1.315 . S
Cd435 O434 2.223 . S
Cd435 O438 2.297 . S
Cd435 O439 2.439 . S
Cd435 O445 2.240 . S
Cd436 O437 2.240 . S
Cd436 O444 2.223 . S
Cd436 O446 2.297 . S
Cd436 O447 2.439 . S
O437 Cd436 2.240 . S
O437 C442 1.279 . S
O438 Cd435 2.297 . S
O438 C440 1.247 . S
O439 Cd435 2.439 . S
O439 C440 1.208 . S
C440 O438 1.247 . S
C440 O439 1.208 . S
C441 O446 1.247 . S
C441 O447 1.208 . S
C442 O434 1.315 . S
C442 O437 1.279 . S
C443 O444 1.315 . S
C443 O445 1.279 . S
O444 Cd436 2.223 . S
O444 C443 1.315 . S
O445 Cd435 2.240 . S
O445 C443 1.279 . S
O446 Cd436 2.297 . S
O446 C441 1.247 . S
O447 Cd436 2.439 . S
O447 C441 1.208 . S
H448 C454 0.930 . S
H449 C458 0.930 . S
H450 C463 0.929 . S
H451 C461 0.929 . S
H452 C456 0.929 . S
H453 C462 0.929 . S
C454 H448 0.930 . S
C454 C455 1.367 . S
C454 C462 1.378 . S
C455 C454 1.367 . S
C455 C463 1.433 1_655 S
C456 H452 0.929 . S
C456 C458 1.378 . S
C456 C460 1.350 . S
C457 C460 1.463 1_655 S
C457 C462 1.350 . S
C457 N465 1.427 1_655 S
C458 H449 0.930 . S
C458 C456 1.378 . S
C458 C459 1.367 . S
C459 C458 1.367 . S
C459 C461 1.433 1_455 S
C460 C456 1.350 . S
C460 C457 1.463 1_455 S
C460 N464 1.427 1_455 S
C461 H451 0.929 . S
C461 C459 1.433 1_655 S
C461 N464 1.384 . S
C462 H453 0.929 . S
C462 C454 1.378 . S
C462 C457 1.350 . S
C463 H450 0.929 . S
C463 C455 1.433 1_455 S
C463 N465 1.384 . S
N464 C460 1.427 1_655 S
N464 C461 1.384 . S
N465 C457 1.427 1_455 S
N465 C463 1.384 . S
H466 C472 0.930 . S
H467 C476 0.930 . S
H468 C481 0.929 . S
H469 C479 0.929 . S
H470 C474 0.929 . S
H471 C480 0.929 . S
C472 H466 0.930 . S
C472 C473 1.367 . S
C472 C480 1.378 . S
C473 C472 1.367 . S
C473 C481 1.433 . S
C474 H470 0.929 . S
C474 C476 1.378 . S
C474 C478 1.350 . S
C475 C478 1.463 1_556 S
C475 C480 1.350 . S
C475 N483 1.427 . S
C476 H467 0.930 . S
C476 C474 1.378 . S
C476 C477 1.367 . S
C477 C476 1.367 . S
C477 C479 1.433 . S
C478 C474 1.350 . S
C478 C475 1.463 1_554 S
C478 N482 1.427 . S
C479 H469 0.929 . S
C479 C477 1.433 . S
C479 N482 1.384 . S
C480 H471 0.929 . S
C480 C472 1.378 . S
C480 C475 1.350 . S
C481 H468 0.929 . S
C481 C473 1.433 . S
C481 N483 1.384 . S
N482 C478 1.427 . S
N482 C479 1.384 . S
N483 C475 1.427 . S
N483 C481 1.384 . S
H484 C490 0.930 . S
H485 C494 0.930 . S
H486 C499 0.929 . S
H487 C497 0.929 . S
H488 C492 0.929 . S
H489 C498 0.929 . S
C490 H484 0.930 . S
C490 C491 1.367 . S
C490 C498 1.378 . S
C491 C490 1.367 . S
C491 C499 1.433 . S
C492 H488 0.929 . S
C492 C494 1.378 . S
C492 C496 1.350 . S
C493 C496 1.463 . S
C493 C498 1.350 . S
C493 N501 1.427 . S
C494 H485 0.930 . S
C494 C492 1.378 . S
C494 C495 1.367 . S
C495 C494 1.367 . S
C495 C497 1.433 . S
C496 C492 1.350 . S
C496 C493 1.463 . S
C496 N500 1.427 . S
C497 H487 0.929 . S
C497 C495 1.433 . S
C497 N500 1.384 . S
C498 H489 0.929 . S
C498 C490 1.378 . S
C498 C493 1.350 . S
C499 H486 0.929 . S
C499 C491 1.433 . S
C499 N501 1.384 . S
N500 C496 1.427 . S
N500 C497 1.384 . S
N501 C493 1.427 . S
N501 C499 1.384 . S
H502 C508 0.930 . S
H503 C512 0.930 . S
H504 C517 0.929 . S
H505 C515 0.929 . S
H506 C510 0.929 . S
H507 C516 0.929 . S
C508 H502 0.930 . S
C508 C509 1.367 . S
C508 C516 1.378 . S
C509 C508 1.367 . S
C509 C517 1.433 . S
C510 H506 0.929 . S
C510 C512 1.378 . S
C510 C514 1.350 . S
C511 C514 1.463 . S
C511 C516 1.350 . S
C511 N519 1.427 . S
C512 H503 0.930 . S
C512 C510 1.378 . S
C512 C513 1.367 . S
C513 C512 1.367 . S
C513 C515 1.433 . S
C514 C510 1.350 . S
C514 C511 1.463 . S
C514 N518 1.427 . S
C515 H505 0.929 . S
C515 C513 1.433 . S
C515 N518 1.384 . S
C516 H507 0.929 . S
C516 C508 1.378 . S
C516 C511 1.350 . S
C517 H504 0.929 . S
C517 C509 1.433 . S
C517 N519 1.384 . S
N518 C514 1.427 . S
N518 C515 1.384 . S
N519 C511 1.427 . S
N519 C517 1.384 . S
H520 C526 0.930 . S
H521 C530 0.930 . S
H522 C535 0.909 1_455 S
H523 C533 0.929 1_655 S
H524 C528 0.929 . S
H525 C534 0.929 . S
C526 H520 0.930 . S
C526 C527 1.367 . S
C526 C534 1.378 . S
C527 C526 1.367 . S
C527 C535 1.477 . S
C528 H524 0.929 . S
C528 C530 1.378 . S
C528 C532 1.350 . S
C529 C532 1.463 1_655 S
C529 C534 1.350 . S
C529 N537 1.427 1_655 S
C530 H521 0.930 . S
C530 C528 1.378 . S
C530 C531 1.367 . S
C531 C530 1.367 . S
C531 C533 1.433 . S
C532 C528 1.350 . S
C532 C529 1.463 1_455 S
C532 N536 1.427 1_455 S
C533 H523 0.929 1_455 S
C533 C531 1.433 . S
C533 N536 1.384 1_455 S
C534 H525 0.929 . S
C534 C526 1.378 . S
C534 C529 1.350 . S
C535 H522 0.909 1_655 S
C535 C527 1.477 . S
C535 N537 1.367 1_655 S
N536 C532 1.427 1_655 S
N536 C533 1.384 1_655 S
N537 C529 1.427 1_455 S
N537 C535 1.367 1_455 S
H538 C544 0.930 . S
H539 C548 0.930 . S
H540 C553 0.929 . S
H541 C551 0.929 . S
H542 C546 0.929 . S
H543 C552 0.929 . S
C544 H538 0.930 . S
C544 C545 1.367 . S
C544 C552 1.378 . S
C545 C544 1.367 . S
C545 C553 1.433 . S
C546 H542 0.929 . S
C546 C548 1.378 . S
C546 C550 1.350 . S
C547 C550 1.463 1_556 S
C547 C552 1.350 . S
C547 N555 1.427 . S
C548 H539 0.930 . S
C548 C546 1.378 . S
C548 C549 1.367 . S
C549 C548 1.367 . S
C549 C551 1.433 . S
C550 C546 1.350 . S
C550 C547 1.463 1_554 S
C550 N554 1.427 . S
C551 H541 0.929 . S
C551 C549 1.433 . S
C551 N554 1.384 . S
C552 H543 0.929 . S
C552 C544 1.378 . S
C552 C547 1.350 . S
C553 H540 0.929 . S
C553 C545 1.433 . S
C553 N555 1.384 . S
N554 C550 1.427 . S
N554 C551 1.384 . S
N555 C547 1.427 . S
N555 C553 1.384 . S
H556 C562 0.930 . S
H557 C566 0.930 . S
H558 C571 0.929 . S
H559 C569 0.929 . S
H560 C564 0.929 . S
H561 C570 0.929 . S
C562 H556 0.930 . S
C562 C563 1.367 . S
C562 C570 1.378 . S
C563 C562 1.367 . S
C563 C571 1.433 . S
C564 H560 0.929 . S
C564 C566 1.378 . S
C564 C568 1.350 . S
C565 C568 1.463 . S
C565 C570 1.350 . S
C565 N573 1.427 . S
C566 H557 0.930 . S
C566 C564 1.378 . S
C566 C567 1.367 . S
C567 C566 1.367 . S
C567 C569 1.433 . S
C568 C564 1.350 . S
C568 C565 1.463 . S
C568 N572 1.427 . S
C569 H559 0.929 . S
C569 C567 1.433 . S
C569 N572 1.384 . S
C570 H561 0.929 . S
C570 C562 1.378 . S
C570 C565 1.350 . S
C571 H558 0.929 . S
C571 C563 1.433 . S
C571 N573 1.384 . S
N572 C568 1.427 . S
N572 C569 1.384 . S
N573 C565 1.427 . S
N573 C571 1.384 . S
H574 C580 0.930 . S
H575 C584 0.930 . S
H576 C589 0.929 . S
H577 C587 0.929 . S
H578 C582 0.929 . S
H579 C588 0.929 . S
C580 H574 0.930 . S
C580 C581 1.367 . S
C580 C588 1.378 . S
C581 C580 1.367 . S
C581 C589 1.433 . S
C582 H578 0.929 . S
C582 C584 1.378 . S
C582 C586 1.350 . S
C583 C586 1.463 . S
C583 C588 1.350 . S
C583 N591 1.427 . S
C584 H575 0.930 . S
C584 C582 1.378 . S
C584 C585 1.367 . S
C585 C584 1.367 . S
C585 C587 1.433 . S
C586 C582 1.350 . S
C586 C583 1.463 . S
C586 N590 1.427 . S
C587 H577 0.929 . S
C587 C585 1.433 . S
C587 N590 1.384 . S
C588 H579 0.929 . S
C588 C580 1.378 . S
C588 C583 1.350 . S
C589 H576 0.929 . S
C589 C581 1.433 . S
C589 N591 1.384 . S
N590 C586 1.427 . S
N590 C587 1.384 . S
N591 C583 1.427 . S
N591 C589 1.384 . S
H592 C598 0.937 . S
H593 C602 0.939 . S
H594 C607 0.929 . S
H595 C605 0.929 . S
H596 C600 0.929 . S
H597 C606 0.929 . S
C598 H592 0.937 . S
C598 C599 1.367 . S
C598 C606 1.378 1_455 S
C599 C598 1.367 . S
C599 C607 1.433 . S
C600 H596 0.929 . S
C600 C602 1.378 1_455 S
C600 C604 1.350 1_455 S
C601 C604 1.463 1_455 S
C601 C606 1.350 1_455 S
C601 N609 1.427 . S
C602 H593 0.939 . S
C602 C600 1.378 1_655 S
C602 C603 1.367 . S
C603 C602 1.367 . S
C603 C605 1.433 . S
C604 C600 1.350 1_655 S
C604 C601 1.463 1_655 S
C604 N608 1.427 . S
C605 H595 0.929 . S
C605 C603 1.433 . S
C605 N608 1.384 . S
C606 H597 0.929 . S
C606 C598 1.378 1_655 S
C606 C601 1.350 1_655 S
C607 H594 0.929 . S
C607 C599 1.433 . S
C607 N609 1.384 . S
N608 C604 1.427 . S
N608 C605 1.384 . S
N609 C601 1.427 . S
N609 C607 1.384 . S
H610 C616 0.930 . S
H611 C620 0.930 . S
H612 C625 0.929 . S
H613 C623 0.929 . S
H614 C618 0.929 . S
H615 C624 0.929 . S
C616 H610 0.930 . S
C616 C617 1.367 . S
C616 C624 1.378 . S
C617 C616 1.367 . S
C617 C625 1.433 . S
C618 H614 0.929 . S
C618 C620 1.378 . S
C618 C622 1.350 . S
C619 C622 1.463 1_554 S
C619 C624 1.350 . S
C619 N627 1.427 . S
C620 H611 0.930 . S
C620 C618 1.378 . S
C620 C621 1.367 . S
C621 C620 1.367 . S
C621 C623 1.433 . S
C622 C618 1.350 . S
C622 C619 1.463 1_556 S
C622 N626 1.427 . S
C623 H613 0.929 . S
C623 C621 1.433 . S
C623 N626 1.384 . S
C624 H615 0.929 . S
C624 C616 1.378 . S
C624 C619 1.350 . S
C625 H612 0.929 . S
C625 C617 1.433 . S
C625 N627 1.384 . S
N626 C622 1.427 . S
N626 C623 1.384 . S
N627 C619 1.427 . S
N627 C625 1.384 . S
H628 C634 0.930 . S
H629 C638 0.930 . S
H630 C643 0.929 . S
H631 C641 0.929 . S
H632 C636 0.929 . S
H633 C642 0.929 . S
C634 H628 0.930 . S
C634 C635 1.367 . S
C634 C642 1.378 . S
C635 C634 1.367 . S
C635 C643 1.433 . S
C636 H632 0.929 . S
C636 C638 1.378 . S
C636 C640 1.350 . S
C637 C640 1.463 . S
C637 C642 1.350 . S
C637 N645 1.427 . S
C638 H629 0.930 . S
C638 C636 1.378 . S
C638 C639 1.367 . S
C639 C638 1.367 . S
C639 C641 1.433 . S
C640 C636 1.350 . S
C640 C637 1.463 . S
C640 N644 1.427 . S
C641 H631 0.929 . S
C641 C639 1.433 . S
C641 N644 1.384 . S
C642 H633 0.929 . S
C642 C634 1.378 . S
C642 C637 1.350 . S
C643 H630 0.929 . S
C643 C635 1.433 . S
C643 N645 1.384 . S
N644 C640 1.427 . S
N644 C641 1.384 . S
N645 C637 1.427 . S
N645 C643 1.384 . S
H646 C652 0.930 . S
H647 C656 0.930 . S
H648 C661 0.929 . S
H649 C659 0.929 . S
H650 C654 0.929 . S
H651 C660 0.929 . S
C652 H646 0.930 . S
C652 C653 1.367 . S
C652 C660 1.378 . S
C653 C652 1.367 . S
C653 C661 1.433 . S
C654 H650 0.929 . S
C654 C656 1.378 . S
C654 C658 1.350 . S
C655 C658 1.463 . S
C655 C660 1.350 . S
C655 N663 1.427 . S
C656 H647 0.930 . S
C656 C654 1.378 . S
C656 C657 1.367 . S
C657 C656 1.367 . S
C657 C659 1.433 . S
C658 C654 1.350 . S
C658 C655 1.463 . S
C658 N662 1.427 . S
C659 H649 0.929 . S
C659 C657 1.433 . S
C659 N662 1.384 . S
C660 H651 0.929 . S
C660 C652 1.378 . S
C660 C655 1.350 . S
C661 H648 0.929 . S
C661 C653 1.433 . S
C661 N663 1.384 . S
N662 C658 1.427 . S
N662 C659 1.384 . S
N663 C655 1.427 . S
N663 C661 1.384 . S
H664 C670 0.930 . S
H665 C674 0.930 . S
H666 C679 0.929 . S
H667 C677 0.929 . S
H668 C672 0.929 . S
H669 C678 0.929 . S
C670 H664 0.930 . S
C670 C671 1.367 1_455 S
C670 C678 1.378 . S
C671 C670 1.367 1_655 S
C671 C679 1.433 . S
C672 H668 0.929 . S
C672 C674 1.378 . S
C672 C676 1.350 1_655 S
C673 C676 1.463 1_655 S
C673 C678 1.350 1_655 S
C673 N681 1.427 . S
C674 H665 0.930 . S
C674 C672 1.378 . S
C674 C675 1.367 1_655 S
C675 C674 1.367 1_455 S
C675 C677 1.433 . S
C676 C672 1.350 1_455 S
C676 C673 1.463 1_455 S
C676 N680 1.427 . S
C677 H667 0.929 . S
C677 C675 1.433 . S
C677 N680 1.384 . S
C678 H669 0.929 . S
C678 C670 1.378 . S
C678 C673 1.350 1_455 S
C679 H666 0.929 . S
C679 C671 1.433 . S
C679 N681 1.384 . S
N680 C676 1.427 . S
N680 C677 1.384 . S
N681 C673 1.427 . S
N681 C679 1.384 . S
H682 C688 0.930 . S
H683 C692 0.930 . S
H684 C697 0.929 . S
H685 C695 0.929 . S
H686 C690 0.929 . S
H687 C696 0.929 . S
C688 H682 0.930 . S
C688 C689 1.367 . S
C688 C696 1.378 . S
C689 C688 1.367 . S
C689 C697 1.433 . S
C690 H686 0.929 . S
C690 C692 1.378 . S
C690 C694 1.350 . S
C691 C694 1.463 1_554 S
C691 C696 1.350 . S
C691 N699 1.427 . S
C692 H683 0.930 . S
C692 C690 1.378 . S
C692 C693 1.367 . S
C693 C692 1.367 . S
C693 C695 1.433 . S
C694 C690 1.350 . S
C694 C691 1.463 1_556 S
C694 N698 1.427 . S
C695 H685 0.929 . S
C695 C693 1.433 . S
C695 N698 1.384 . S
C696 H687 0.929 . S
C696 C688 1.378 . S
C696 C691 1.350 . S
C697 H684 0.929 . S
C697 C689 1.433 . S
C697 N699 1.384 . S
N698 C694 1.427 . S
N698 C695 1.384 . S
N699 C691 1.427 . S
N699 C697 1.384 . S
H700 C706 0.930 . S
H701 C710 0.930 . S
H702 C715 0.929 . S
H703 C713 0.929 . S
H704 C708 0.929 . S
H705 C714 0.929 . S
C706 H700 0.930 . S
C706 C707 1.367 . S
C706 C714 1.378 . S
C707 C706 1.367 . S
C707 C715 1.433 . S
C708 H704 0.929 . S
C708 C710 1.378 . S
C708 C712 1.350 . S
C709 C712 1.463 . S
C709 C714 1.350 . S
C709 N717 1.427 . S
C710 H701 0.930 . S
C710 C708 1.378 . S
C710 C711 1.367 . S
C711 C710 1.367 . S
C711 C713 1.433 . S
C712 C708 1.350 . S
C712 C709 1.463 . S
C712 N716 1.427 . S
C713 H703 0.929 . S
C713 C711 1.433 . S
C713 N716 1.384 . S
C714 H705 0.929 . S
C714 C706 1.378 . S
C714 C709 1.350 . S
C715 H702 0.929 . S
C715 C707 1.433 . S
C715 N717 1.384 . S
N716 C712 1.427 . S
N716 C713 1.384 . S
N717 C709 1.427 . S
N717 C715 1.384 . S
H718 C724 0.930 . S
H719 C728 0.930 . S
H720 C733 0.929 . S
H721 C731 0.929 . S
H722 C726 0.929 . S
H723 C732 0.929 . S
C724 H718 0.930 . S
C724 C725 1.367 . S
C724 C732 1.378 . S
C725 C724 1.367 . S
C725 C733 1.433 . S
C726 H722 0.929 . S
C726 C728 1.378 . S
C726 C730 1.350 . S
C727 C730 1.463 . S
C727 C732 1.350 . S
C727 N735 1.427 . S
C728 H719 0.930 . S
C728 C726 1.378 . S
C728 C729 1.367 . S
C729 C728 1.367 . S
C729 C731 1.433 . S
C730 C726 1.350 . S
C730 C727 1.463 . S
C730 N734 1.427 . S
C731 H721 0.929 . S
C731 C729 1.433 . S
C731 N734 1.384 . S
C732 H723 0.929 . S
C732 C724 1.378 . S
C732 C727 1.350 . S
C733 H720 0.929 . S
C733 C725 1.433 . S
C733 N735 1.384 . S
N734 C730 1.427 . S
N734 C731 1.384 . S
N735 C727 1.427 . S
N735 C733 1.384 . S
H736 C742 0.930 . S
H737 C746 0.930 . S
H738 C751 0.929 . S
H739 C749 0.929 . S
H740 C744 0.929 . S
H741 C750 0.929 . S
C742 H736 0.930 . S
C742 C743 1.367 . S
C742 C750 1.378 . S
C743 C742 1.367 . S
C743 C751 1.433 . S
C744 H740 0.929 . S
C744 C746 1.378 . S
C744 C748 1.350 . S
C745 C748 1.463 . S
C745 C750 1.350 . S
C745 N753 1.427 . S
C746 H737 0.930 . S
C746 C744 1.378 . S
C746 C747 1.367 . S
C747 C746 1.367 . S
C747 C749 1.433 . S
C748 C744 1.350 . S
C748 C745 1.463 . S
C748 N752 1.427 . S
C749 H739 0.929 . S
C749 C747 1.433 . S
C749 N752 1.384 . S
C750 H741 0.929 . S
C750 C742 1.378 . S
C750 C745 1.350 . S
C751 H738 0.929 . S
C751 C743 1.433 . S
C751 N753 1.384 . S
N752 C748 1.427 . S
N752 C749 1.384 . S
N753 C745 1.427 . S
N753 C751 1.384 . S
H754 C760 0.930 . S
H755 C764 0.930 . S
H756 C769 0.929 . S
H757 C767 0.929 . S
H758 C762 0.929 . S
H759 C768 0.929 . S
C760 H754 0.930 . S
C760 C761 1.367 . S
C760 C768 1.378 . S
C761 C760 1.367 . S
C761 C769 1.433 . S
C762 H758 0.929 . S
C762 C764 1.378 . S
C762 C766 1.350 . S
C763 C766 1.463 . S
C763 C768 1.350 . S
C763 N771 1.427 . S
C764 H755 0.930 . S
C764 C762 1.378 . S
C764 C765 1.367 . S
C765 C764 1.367 . S
C765 C767 1.433 . S
C766 C762 1.350 . S
C766 C763 1.463 . S
C766 N770 1.427 . S
C767 H757 0.929 . S
C767 C765 1.433 . S
C767 N770 1.384 . S
C768 H759 0.929 . S
C768 C760 1.378 . S
C768 C763 1.350 . S
C769 H756 0.929 . S
C769 C761 1.433 . S
C769 N771 1.384 . S
N770 C766 1.427 . S
N770 C767 1.384 . S
N771 C763 1.427 . S
N771 C769 1.384 . S
H772 C778 0.930 1_655 S
H773 C782 0.930 1_455 S
H774 C787 0.929 . S
H775 C785 0.929 . S
H776 C780 0.929 . S
H777 C786 0.929 . S
C778 H772 0.930 1_455 S
C778 C779 1.367 . S
C778 C786 1.378 1_455 S
C779 C778 1.367 . S
C779 C787 1.433 . S
C780 H776 0.929 . S
C780 C782 1.378 1_455 S
C780 C784 1.350 1_455 S
C781 C784 1.463 1_455 S
C781 C786 1.350 1_455 S
C781 N789 1.427 . S
C782 H773 0.930 1_655 S
C782 C780 1.378 1_655 S
C782 C783 1.367 . S
C783 C782 1.367 . S
C783 C785 1.433 . S
C784 C780 1.350 1_655 S
C784 C781 1.463 1_655 S
C784 N788 1.427 . S
C785 H775 0.929 . S
C785 C783 1.433 . S
C785 N788 1.384 . S
C786 H777 0.929 . S
C786 C778 1.378 1_655 S
C786 C781 1.350 1_655 S
C787 H774 0.929 . S
C787 C779 1.433 . S
C787 N789 1.384 . S
N788 C784 1.427 . S
N788 C785 1.384 . S
N789 C781 1.427 . S
N789 C787 1.384 . S
H790 C796 0.930 . S
H791 C800 0.930 . S
H792 C805 0.929 . S
H793 C803 0.929 . S
H794 C798 0.929 . S
H795 C804 0.929 . S
C796 H790 0.930 . S
C796 C797 1.367 . S
C796 C804 1.378 . S
C797 C796 1.367 . S
C797 C805 1.433 . S
C798 H794 0.929 . S
C798 C800 1.378 . S
C798 C802 1.350 . S
C799 C802 1.463 1_554 S
C799 C804 1.350 . S
C799 N807 1.427 . S
C800 H791 0.930 . S
C800 C798 1.378 . S
C800 C801 1.367 . S
C801 C800 1.367 . S
C801 C803 1.433 . S
C802 C798 1.350 . S
C802 C799 1.463 1_556 S
C802 N806 1.427 . S
C803 H793 0.929 . S
C803 C801 1.433 . S
C803 N806 1.384 . S
C804 H795 0.929 . S
C804 C796 1.378 . S
C804 C799 1.350 . S
C805 H792 0.929 . S
C805 C797 1.433 . S
C805 N807 1.384 . S
N806 C802 1.427 . S
N806 C803 1.384 . S
N807 C799 1.427 . S
N807 C805 1.384 . S
H808 C814 0.930 . S
H809 C818 0.930 . S
H810 C823 0.929 . S
H811 C821 0.929 . S
H812 C816 0.929 . S
H813 C822 0.929 . S
C814 H808 0.930 . S
C814 C815 1.367 . S
C814 C822 1.378 . S
C815 C814 1.367 . S
C815 C823 1.433 . S
C816 H812 0.929 . S
C816 C818 1.378 . S
C816 C820 1.350 . S
C817 C820 1.463 . S
C817 C822 1.350 . S
C817 N825 1.427 . S
C818 H809 0.930 . S
C818 C816 1.378 . S
C818 C819 1.367 . S
C819 C818 1.367 . S
C819 C821 1.433 . S
C820 C816 1.350 . S
C820 C817 1.463 . S
C820 N824 1.427 . S
C821 H811 0.929 . S
C821 C819 1.433 . S
C821 N824 1.384 . S
C822 H813 0.929 . S
C822 C814 1.378 . S
C822 C817 1.350 . S
C823 H810 0.929 . S
C823 C815 1.433 . S
C823 N825 1.384 . S
N824 C820 1.427 . S
N824 C821 1.384 . S
N825 C817 1.427 . S
N825 C823 1.384 . S
H826 C832 0.930 . S
H827 C836 0.930 . S
H828 C841 0.929 . S
H829 C839 0.929 . S
H830 C834 0.929 . S
H831 C840 0.929 . S
C832 H826 0.930 . S
C832 C833 1.367 . S
C832 C840 1.378 . S
C833 C832 1.367 . S
C833 C841 1.433 . S
C834 H830 0.929 . S
C834 C836 1.378 . S
C834 C838 1.350 . S
C835 C838 1.463 . S
C835 C840 1.350 . S
C835 N843 1.427 . S
C836 H827 0.930 . S
C836 C834 1.378 . S
C836 C837 1.367 . S
C837 C836 1.367 . S
C837 C839 1.433 . S
C838 C834 1.350 . S
C838 C835 1.463 . S
C838 N842 1.427 . S
C839 H829 0.929 . S
C839 C837 1.433 . S
C839 N842 1.384 . S
C840 H831 0.929 . S
C840 C832 1.378 . S
C840 C835 1.350 . S
C841 H828 0.929 . S
C841 C833 1.433 . S
C841 N843 1.384 . S
N842 C838 1.427 . S
N842 C839 1.384 . S
N843 C835 1.427 . S
N843 C841 1.384 . S
H844 C850 0.930 . S
H845 C854 0.930 . S
H846 C859 0.929 . S
H847 C857 0.929 . S
H848 C852 0.940 . S
H849 C858 0.942 . S
C850 H844 0.930 . S
C850 C851 1.367 . S
C850 C858 1.370 1_455 S
C851 C850 1.367 . S
C851 C859 1.433 . S
C852 H848 0.940 . S
C852 C854 1.371 1_455 S
C852 C856 1.346 1_455 S
C853 C856 1.463 1_455 S
C853 C858 1.345 1_455 S
C853 N861 1.427 . S
C854 H845 0.930 . S
C854 C852 1.371 1_655 S
C854 C855 1.367 . S
C855 C854 1.367 . S
C855 C857 1.433 . S
C856 C852 1.346 1_655 S
C856 C853 1.463 1_655 S
C856 N860 1.427 . S
C857 H847 0.929 . S
C857 C855 1.433 . S
C857 N860 1.384 . S
C858 H849 0.942 . S
C858 C850 1.370 1_655 S
C858 C853 1.345 1_655 S
C859 H846 0.929 . S
C859 C851 1.433 . S
C859 N861 1.384 . S
N860 C856 1.427 . S
N860 C857 1.384 . S
N861 C853 1.427 . S
N861 C859 1.384 . S
H862 C868 0.930 . S
H863 C872 0.930 . S
H864 C877 0.929 . S
H865 C875 0.929 . S
H866 C870 0.929 . S
H867 C876 0.929 . S
C868 H862 0.930 . S
C868 C869 1.367 . S
C868 C876 1.378 . S
C869 C868 1.367 . S
C869 C877 1.433 . S
C870 H866 0.929 . S
C870 C872 1.378 . S
C870 C874 1.350 . S
C871 C874 1.463 1_554 S
C871 C876 1.350 . S
C871 N879 1.427 . S
C872 H863 0.930 . S
C872 C870 1.378 . S
C872 C873 1.367 . S
C873 C872 1.367 . S
C873 C875 1.433 . S
C874 C870 1.350 . S
C874 C871 1.463 1_556 S
C874 N878 1.427 . S
C875 H865 0.929 . S
C875 C873 1.433 . S
C875 N878 1.384 . S
C876 H867 0.929 . S
C876 C868 1.378 . S
C876 C871 1.350 . S
C877 H864 0.929 . S
C877 C869 1.433 . S
C877 N879 1.384 . S
N878 C874 1.427 . S
N878 C875 1.384 . S
N879 C871 1.427 . S
N879 C877 1.384 . S
H880 C886 0.930 . S
H881 C890 0.930 . S
H882 C895 0.929 . S
H883 C893 0.929 . S
H884 C888 0.929 . S
H885 C894 0.929 . S
C886 H880 0.930 . S
C886 C887 1.367 . S
C886 C894 1.378 . S
C887 C886 1.367 . S
C887 C895 1.433 . S
C888 H884 0.929 . S
C888 C890 1.378 . S
C888 C892 1.350 . S
C889 C892 1.463 . S
C889 C894 1.350 . S
C889 N897 1.427 . S
C890 H881 0.930 . S
C890 C888 1.378 . S
C890 C891 1.367 . S
C891 C890 1.367 . S
C891 C893 1.433 . S
C892 C888 1.350 . S
C892 C889 1.463 . S
C892 N896 1.427 . S
C893 H883 0.929 . S
C893 C891 1.433 . S
C893 N896 1.384 . S
C894 H885 0.929 . S
C894 C886 1.378 . S
C894 C889 1.350 . S
C895 H882 0.929 . S
C895 C887 1.433 . S
C895 N897 1.384 . S
N896 C892 1.427 . S
N896 C893 1.384 . S
N897 C889 1.427 . S
N897 C895 1.384 . S
H898 C904 0.930 . S
H899 C908 0.930 . S
H900 C913 0.929 . S
H901 C911 0.929 . S
H902 C906 0.929 . S
H903 C912 0.929 . S
C904 H898 0.930 . S
C904 C905 1.367 . S
C904 C912 1.378 . S
C905 C904 1.367 . S
C905 C913 1.433 . S
C906 H902 0.929 . S
C906 C908 1.378 . S
C906 C910 1.350 . S
C907 C910 1.463 . S
C907 C912 1.350 . S
C907 N915 1.427 . S
C908 H899 0.930 . S
C908 C906 1.378 . S
C908 C909 1.367 . S
C909 C908 1.367 . S
C909 C911 1.433 . S
C910 C906 1.350 . S
C910 C907 1.463 . S
C910 N914 1.427 . S
C911 H901 0.929 . S
C911 C909 1.433 . S
C911 N914 1.384 . S
C912 H903 0.929 . S
C912 C904 1.378 . S
C912 C907 1.350 . S
C913 H900 0.929 . S
C913 C905 1.433 . S
C913 N915 1.384 . S
N914 C910 1.427 . S
N914 C911 1.384 . S
N915 C907 1.427 . S
N915 C913 1.384 . S
H916 C922 0.930 . S
H917 C926 0.930 . S
H918 C931 0.928 1_655 S
H919 C929 0.926 1_455 S
H920 C924 0.929 . S
H921 C930 0.929 . S
C922 H916 0.930 . S
C922 C923 1.367 . S
C922 C930 1.378 . S
C923 C922 1.367 . S
C923 C931 1.433 . S
C924 H920 0.929 . S
C924 C926 1.378 . S
C924 C928 1.350 . S
C925 C928 1.463 1_455 S
C925 C930 1.350 . S
C925 N933 1.427 1_455 S
C926 H917 0.930 . S
C926 C924 1.378 . S
C926 C927 1.367 . S
C927 C926 1.367 . S
C927 C929 1.433 . S
C928 C924 1.350 . S
C928 C925 1.463 1_655 S
C928 N932 1.427 1_655 S
C929 H919 0.926 1_655 S
C929 C927 1.433 . S
C929 N932 1.384 1_655 S
C930 H921 0.929 . S
C930 C922 1.378 . S
C930 C925 1.350 . S
C931 H918 0.928 1_455 S
C931 C923 1.433 . S
C931 N933 1.384 1_455 S
N932 C928 1.427 1_455 S
N932 C929 1.384 1_455 S
N933 C925 1.427 1_655 S
N933 C931 1.384 1_655 S
H934 C940 0.930 . S
H935 C944 0.930 . S
H936 C949 0.929 . S
H937 C947 0.929 . S
H938 C942 0.929 . S
H939 C948 0.929 . S
C940 H934 0.930 . S
C940 C941 1.367 . S
C940 C948 1.378 . S
C941 C940 1.367 . S
C941 C949 1.433 . S
C942 H938 0.929 . S
C942 C944 1.378 . S
C942 C946 1.350 . S
C943 C946 1.463 1_556 S
C943 C948 1.350 . S
C943 N951 1.427 . S
C944 H935 0.930 . S
C944 C942 1.378 . S
C944 C945 1.367 . S
C945 C944 1.367 . S
C945 C947 1.433 . S
C946 C942 1.350 . S
C946 C943 1.463 1_554 S
C946 N950 1.427 . S
C947 H937 0.929 . S
C947 C945 1.433 . S
C947 N950 1.384 . S
C948 H939 0.929 . S
C948 C940 1.378 . S
C948 C943 1.350 . S
C949 H936 0.929 . S
C949 C941 1.433 . S
C949 N951 1.384 . S
N950 C946 1.427 . S
N950 C947 1.384 . S
N951 C943 1.427 . S
N951 C949 1.384 . S
H952 C958 0.930 . S
H953 C962 0.930 . S
H954 C967 0.929 . S
H955 C965 0.929 . S
H956 C960 0.929 . S
H957 C966 0.929 . S
C958 H952 0.930 . S
C958 C959 1.367 . S
C958 C966 1.378 . S
C959 C958 1.367 . S
C959 C967 1.433 . S
C960 H956 0.929 . S
C960 C962 1.378 . S
C960 C964 1.350 . S
C961 C964 1.463 . S
C961 C966 1.350 . S
C961 N969 1.427 . S
C962 H953 0.930 . S
C962 C960 1.378 . S
C962 C963 1.367 . S
C963 C962 1.367 . S
C963 C965 1.433 . S
C964 C960 1.350 . S
C964 C961 1.463 . S
C964 N968 1.427 . S
C965 H955 0.929 . S
C965 C963 1.433 . S
C965 N968 1.384 . S
C966 H957 0.929 . S
C966 C958 1.378 . S
C966 C961 1.350 . S
C967 H954 0.929 . S
C967 C959 1.433 . S
C967 N969 1.384 . S
N968 C964 1.427 . S
N968 C965 1.384 . S
N969 C961 1.427 . S
N969 C967 1.384 . S
H970 C976 0.930 . S
H971 C980 0.930 . S
H972 C985 0.929 . S
H973 C983 0.929 . S
H974 C978 0.929 . S
H975 C984 0.929 . S
C976 H970 0.930 . S
C976 C977 1.367 . S
C976 C984 1.378 . S
C977 C976 1.367 . S
C977 C985 1.433 . S
C978 H974 0.929 . S
C978 C980 1.378 . S
C978 C982 1.350 . S
C979 C982 1.463 . S
C979 C984 1.350 . S
C979 N987 1.427 . S
C980 H971 0.930 . S
C980 C978 1.378 . S
C980 C981 1.367 . S
C981 C980 1.367 . S
C981 C983 1.433 . S
C982 C978 1.350 . S
C982 C979 1.463 . S
C982 N986 1.427 . S
C983 H973 0.929 . S
C983 C981 1.433 . S
C983 N986 1.384 . S
C984 H975 0.929 . S
C984 C976 1.378 . S
C984 C979 1.350 . S
C985 H972 0.929 . S
C985 C977 1.433 . S
C985 N987 1.384 . S
N986 C982 1.427 . S
N986 C983 1.384 . S
N987 C979 1.427 . S
N987 C985 1.384 . S
H988 C994 0.930 . S
H989 C998 0.930 . S
H990 C1003 0.929 . S
H991 C1001 0.929 . S
H992 C996 0.929 . S
H993 C1002 0.929 . S
C994 H988 0.930 . S
C994 C995 1.367 1_455 S
C994 C1002 1.378 . S
C995 C994 1.367 1_655 S
C995 C1003 1.433 . S
C996 H992 0.929 . S
C996 C998 1.378 . S
C996 C1000 1.350 1_655 S
C997 C1000 1.463 1_655 S
C997 C1002 1.350 1_655 S
C997 N1005 1.427 . S
C998 H989 0.930 . S
C998 C996 1.378 . S
C998 C999 1.367 1_655 S
C999 C998 1.367 1_455 S
C999 C1001 1.433 . S
C1000 C996 1.350 1_455 S
C1000 C997 1.463 1_455 S
C1000 N1004 1.427 . S
C1001 H991 0.929 . S
C1001 C999 1.433 . S
C1001 N1004 1.384 . S
C1002 H993 0.929 . S
C1002 C994 1.378 . S
C1002 C997 1.350 1_455 S
C1003 H990 0.929 . S
C1003 C995 1.433 . S
C1003 N1005 1.384 . S
N1004 C1000 1.427 . S
N1004 C1001 1.384 . S
N1005 C997 1.427 . S
N1005 C1003 1.384 . S
H1006 C1012 0.930 . S
H1007 C1016 0.930 . S
H1008 C1021 0.929 . S
H1009 C1019 0.929 . S
H1010 C1014 0.929 . S
H1011 C1020 0.929 . S
C1012 H1006 0.930 . S
C1012 C1013 1.367 . S
C1012 C1020 1.378 . S
C1013 C1012 1.367 . S
C1013 C1021 1.433 . S
C1014 H1010 0.929 . S
C1014 C1016 1.378 . S
C1014 C1018 1.350 . S
C1015 C1018 1.463 1_554 S
C1015 C1020 1.350 . S
C1015 N1023 1.427 . S
C1016 H1007 0.930 . S
C1016 C1014 1.378 . S
C1016 C1017 1.367 . S
C1017 C1016 1.367 . S
C1017 C1019 1.433 . S
C1018 C1014 1.350 . S
C1018 C1015 1.463 1_556 S
C1018 N1022 1.427 . S
C1019 H1009 0.929 . S
C1019 C1017 1.433 . S
C1019 N1022 1.384 . S
C1020 H1011 0.929 . S
C1020 C1012 1.378 . S
C1020 C1015 1.350 . S
C1021 H1008 0.929 . S
C1021 C1013 1.433 . S
C1021 N1023 1.384 . S
N1022 C1018 1.427 . S
N1022 C1019 1.384 . S
N1023 C1015 1.427 . S
N1023 C1021 1.384 . S
H1024 C1030 0.930 1_556 S
H1025 C1034 0.930 1_554 S
H1026 C1039 0.929 1_655 S
H1027 C1037 0.929 1_455 S
H1028 C1032 0.975 . S
H1029 C1038 0.975 . S
C1030 H1024 0.930 1_554 S
C1030 C1031 1.367 . S
C1030 C1038 1.378 1_554 S
C1031 C1030 1.367 . S
C1031 C1039 1.433 . S
C1032 H1028 0.975 . S
C1032 C1034 1.378 1_554 S
C1032 C1036 1.350 1_554 S
C1033 C1036 1.463 1_444 S
C1033 C1038 1.350 1_554 S
C1033 N1041 1.427 1_455 S
C1034 H1025 0.930 1_556 S
C1034 C1032 1.378 1_556 S
C1034 C1035 1.367 . S
C1035 C1034 1.367 . S
C1035 C1037 1.433 . S
C1036 C1032 1.350 1_556 S
C1036 C1033 1.463 1_666 S
C1036 N1040 1.427 1_655 S
C1037 H1027 0.929 1_655 S
C1037 C1035 1.433 . S
C1037 N1040 1.384 1_655 S
C1038 H1029 0.975 . S
C1038 C1030 1.378 1_556 S
C1038 C1033 1.350 1_556 S
C1039 H1026 0.929 1_455 S
C1039 C1031 1.433 . S
C1039 N1041 1.384 1_455 S
N1040 C1036 1.427 1_455 S
N1040 C1037 1.384 1_455 S
N1041 C1033 1.427 1_655 S
N1041 C1039 1.384 1_655 S
H1042 C1048 0.930 . S
H1043 C1052 0.930 . S
H1044 C1057 0.929 . S
H1045 C1055 0.929 . S
H1046 C1050 0.929 . S
H1047 C1056 0.929 . S
C1048 H1042 0.930 . S
C1048 C1049 1.367 . S
C1048 C1056 1.378 . S
C1049 C1048 1.367 . S
C1049 C1057 1.433 . S
C1050 H1046 0.929 . S
C1050 C1052 1.378 . S
C1050 C1054 1.350 . S
C1051 C1054 1.463 . S
C1051 C1056 1.350 . S
C1051 N1059 1.427 . S
C1052 H1043 0.930 . S
C1052 C1050 1.378 . S
C1052 C1053 1.367 . S
C1053 C1052 1.367 . S
C1053 C1055 1.433 . S
C1054 C1050 1.350 . S
C1054 C1051 1.463 . S
C1054 N1058 1.427 . S
C1055 H1045 0.929 . S
C1055 C1053 1.433 . S
C1055 N1058 1.384 . S
C1056 H1047 0.929 . S
C1056 C1048 1.378 . S
C1056 C1051 1.350 . S
C1057 H1044 0.929 . S
C1057 C1049 1.433 . S
C1057 N1059 1.384 . S
N1058 C1054 1.427 . S
N1058 C1055 1.384 . S
N1059 C1051 1.427 . S
N1059 C1057 1.384 . S
H1060 C1066 0.930 . S
H1061 C1070 0.930 . S
H1062 C1075 0.929 . S
H1063 C1073 0.929 . S
H1064 C1068 0.929 . S
H1065 C1074 0.929 . S
C1066 H1060 0.930 . S
C1066 C1067 1.367 . S
C1066 C1074 1.378 . S
C1067 C1066 1.367 . S
C1067 C1075 1.433 . S
C1068 H1064 0.929 . S
C1068 C1070 1.378 . S
C1068 C1072 1.350 . S
C1069 C1072 1.463 1_545 S
C1069 C1074 1.350 . S
C1069 N1077 1.427 . S
C1070 H1061 0.930 . S
C1070 C1068 1.378 . S
C1070 C1071 1.367 . S
C1071 C1070 1.367 . S
C1071 C1073 1.433 . S
C1072 C1068 1.350 . S
C1072 C1069 1.463 1_565 S
C1072 N1076 1.427 . S
C1073 H1063 0.929 . S
C1073 C1071 1.433 . S
C1073 N1076 1.384 . S
C1074 H1065 0.929 . S
C1074 C1066 1.378 . S
C1074 C1069 1.350 . S
C1075 H1062 0.929 . S
C1075 C1067 1.433 . S
C1075 N1077 1.384 . S
N1076 C1072 1.427 . S
N1076 C1073 1.384 . S
N1077 C1069 1.427 . S
N1077 C1075 1.384 . S
H1078 C1084 0.930 . S
H1079 C1088 0.930 . S
H1080 C1093 0.929 . S
H1081 C1091 0.929 . S
H1082 C1086 0.929 . S
H1083 C1092 0.929 . S
C1084 H1078 0.930 . S
C1084 C1085 1.367 . S
C1084 C1092 1.378 . S
C1085 C1084 1.367 . S
C1085 C1093 1.433 . S
C1086 H1082 0.929 . S
C1086 C1088 1.378 . S
C1086 C1090 1.350 . S
C1087 C1090 1.463 . S
C1087 C1092 1.350 . S
C1087 N1095 1.427 . S
C1088 H1079 0.930 . S
C1088 C1086 1.378 . S
C1088 C1089 1.367 . S
C1089 C1088 1.367 . S
C1089 C1091 1.433 . S
C1090 C1086 1.350 . S
C1090 C1087 1.463 . S
C1090 N1094 1.427 . S
C1091 H1081 0.929 . S
C1091 C1089 1.433 . S
C1091 N1094 1.384 . S
C1092 H1083 0.929 . S
C1092 C1084 1.378 . S
C1092 C1087 1.350 . S
C1093 H1080 0.929 . S
C1093 C1085 1.433 . S
C1093 N1095 1.384 . S
N1094 C1090 1.427 . S
N1094 C1091 1.384 . S
N1095 C1087 1.427 . S
N1095 C1093 1.384 . S
H1096 C1102 0.930 . S
H1097 C1106 0.930 . S
H1098 C1111 0.929 . S
H1099 C1109 0.929 . S
H1100 C1104 0.941 . S
H1101 C1110 0.941 . S
C1102 H1096 0.930 . S
C1102 C1103 1.367 . S
C1102 C1110 1.370 1_455 S
C1103 C1102 1.367 . S
C1103 C1111 1.433 . S
C1104 H1100 0.941 . S
C1104 C1106 1.370 1_455 S
C1104 C1108 1.346 1_455 S
C1105 C1108 1.463 1_465 S
C1105 C1110 1.346 1_455 S
C1105 N1113 1.427 . S
C1106 H1097 0.930 . S
C1106 C1104 1.370 1_655 S
C1106 C1107 1.367 . S
C1107 C1106 1.367 . S
C1107 C1109 1.433 . S
C1108 C1104 1.346 1_655 S
C1108 C1105 1.463 1_645 S
C1108 N1112 1.427 . S
C1109 H1099 0.929 . S
C1109 C1107 1.433 . S
C1109 N1112 1.384 . S
C1110 H1101 0.941 . S
C1110 C1102 1.370 1_655 S
C1110 C1105 1.346 1_655 S
C1111 H1098 0.929 . S
C1111 C1103 1.433 . S
C1111 N1113 1.384 . S
N1112 C1108 1.427 . S
N1112 C1109 1.384 . S
N1113 C1105 1.427 . S
N1113 C1111 1.384 . S
H1114 C1120 0.930 . S
H1115 C1124 0.930 . S
H1116 C1129 0.929 . S
H1117 C1127 0.929 . S
H1118 C1122 0.929 . S
H1119 C1128 0.929 . S
C1120 H1114 0.930 . S
C1120 C1121 1.367 . S
C1120 C1128 1.378 . S
C1121 C1120 1.367 . S
C1121 C1129 1.433 . S
C1122 H1118 0.929 . S
C1122 C1124 1.378 . S
C1122 C1126 1.350 . S
C1123 C1126 1.463 . S
C1123 C1128 1.350 . S
C1123 N1131 1.427 . S
C1124 H1115 0.930 . S
C1124 C1122 1.378 . S
C1124 C1125 1.367 . S
C1125 C1124 1.367 . S
C1125 C1127 1.433 . S
C1126 C1122 1.350 . S
C1126 C1123 1.463 . S
C1126 N1130 1.427 . S
C1127 H1117 0.929 . S
C1127 C1125 1.433 . S
C1127 N1130 1.384 . S
C1128 H1119 0.929 . S
C1128 C1120 1.378 . S
C1128 C1123 1.350 . S
C1129 H1116 0.929 . S
C1129 C1121 1.433 . S
C1129 N1131 1.384 . S
N1130 C1126 1.427 . S
N1130 C1127 1.384 . S
N1131 C1123 1.427 . S
N1131 C1129 1.384 . S
H1132 C1138 0.930 . S
H1133 C1142 0.930 . S
H1134 C1147 0.929 . S
H1135 C1145 0.929 . S
H1136 C1140 0.897 1_565 S
H1137 C1146 0.897 1_545 S
C1138 H1132 0.930 . S
C1138 C1139 1.367 . S
C1138 C1146 1.378 . S
C1139 C1138 1.367 . S
C1139 C1147 1.433 1_554 S
C1140 H1136 0.897 1_545 S
C1140 C1142 1.378 . S
C1140 C1144 1.350 . S
C1141 C1144 1.463 1_564 S
C1141 C1146 1.350 . S
C1141 N1149 1.427 1_554 S
C1142 H1133 0.930 . S
C1142 C1140 1.378 . S
C1142 C1143 1.367 . S
C1143 C1142 1.367 . S
C1143 C1145 1.433 1_556 S
C1144 C1140 1.350 . S
C1144 C1141 1.463 1_546 S
C1144 N1148 1.427 1_556 S
C1145 H1135 0.929 . S
C1145 C1143 1.433 1_554 S
C1145 N1148 1.384 . S
C1146 H1137 0.897 1_565 S
C1146 C1138 1.378 . S
C1146 C1141 1.350 . S
C1147 H1134 0.929 . S
C1147 C1139 1.433 1_556 S
C1147 N1149 1.384 . S
N1148 C1144 1.427 1_554 S
N1148 C1145 1.384 . S
N1149 C1141 1.427 1_556 S
N1149 C1147 1.384 . S
H1150 C1156 0.930 . S
H1151 C1160 0.930 . S
H1152 C1165 0.929 . S
H1153 C1163 0.929 . S
H1154 C1158 0.929 . S
H1155 C1164 0.929 . S
C1156 H1150 0.930 . S
C1156 C1157 1.367 . S
C1156 C1164 1.378 . S
C1157 C1156 1.367 . S
C1157 C1165 1.433 . S
C1158 H1154 0.929 . S
C1158 C1160 1.378 . S
C1158 C1162 1.350 . S
C1159 C1162 1.463 . S
C1159 C1164 1.350 . S
C1159 N1167 1.427 . S
C1160 H1151 0.930 . S
C1160 C1158 1.378 . S
C1160 C1161 1.367 . S
C1161 C1160 1.367 . S
C1161 C1163 1.433 . S
C1162 C1158 1.350 . S
C1162 C1159 1.463 . S
C1162 N1166 1.427 . S
C1163 H1153 0.929 . S
C1163 C1161 1.433 . S
C1163 N1166 1.384 . S
C1164 H1155 0.929 . S
C1164 C1156 1.378 . S
C1164 C1159 1.350 . S
C1165 H1152 0.929 . S
C1165 C1157 1.433 . S
C1165 N1167 1.384 . S
N1166 C1162 1.427 . S
N1166 C1163 1.384 . S
N1167 C1159 1.427 . S
N1167 C1165 1.384 . S
H1168 C1174 0.930 . S
H1169 C1178 0.930 . S
H1170 C1183 0.929 . S
H1171 C1181 0.929 . S
H1172 C1176 0.929 . S
H1173 C1182 0.929 . S
C1174 H1168 0.930 . S
C1174 C1175 1.367 . S
C1174 C1182 1.378 . S
C1175 C1174 1.367 . S
C1175 C1183 1.433 . S
C1176 H1172 0.929 . S
C1176 C1178 1.378 . S
C1176 C1180 1.350 . S
C1177 C1180 1.463 . S
C1177 C1182 1.350 . S
C1177 N1185 1.427 . S
C1178 H1169 0.930 . S
C1178 C1176 1.378 . S
C1178 C1179 1.367 . S
C1179 C1178 1.367 . S
C1179 C1181 1.433 . S
C1180 C1176 1.350 . S
C1180 C1177 1.463 . S
C1180 N1184 1.427 . S
C1181 H1171 0.929 . S
C1181 C1179 1.433 . S
C1181 N1184 1.384 . S
C1182 H1173 0.929 . S
C1182 C1174 1.378 . S
C1182 C1177 1.350 . S
C1183 H1170 0.929 . S
C1183 C1175 1.433 . S
C1183 N1185 1.384 . S
N1184 C1180 1.427 . S
N1184 C1181 1.384 . S
N1185 C1177 1.427 . S
N1185 C1183 1.384 . S
H1186 C1192 0.930 . S
H1187 C1196 0.930 . S
H1188 C1201 0.929 . S
H1189 C1199 0.929 . S
H1190 C1194 0.929 . S
H1191 C1200 0.929 . S
C1192 H1186 0.930 . S
C1192 C1193 1.367 . S
C1192 C1200 1.378 . S
C1193 C1192 1.367 . S
C1193 C1201 1.433 . S
C1194 H1190 0.929 . S
C1194 C1196 1.378 . S
C1194 C1198 1.350 . S
C1195 C1198 1.463 . S
C1195 C1200 1.350 . S
C1195 N1203 1.427 . S
C1196 H1187 0.930 . S
C1196 C1194 1.378 . S
C1196 C1197 1.367 . S
C1197 C1196 1.367 . S
C1197 C1199 1.433 . S
C1198 C1194 1.350 . S
C1198 C1195 1.463 . S
C1198 N1202 1.427 . S
C1199 H1189 0.929 . S
C1199 C1197 1.433 . S
C1199 N1202 1.384 . S
C1200 H1191 0.929 . S
C1200 C1192 1.378 . S
C1200 C1195 1.350 . S
C1201 H1188 0.929 . S
C1201 C1193 1.433 . S
C1201 N1203 1.384 . S
N1202 C1198 1.427 . S
N1202 C1199 1.384 . S
N1203 C1195 1.427 . S
N1203 C1201 1.384 . S
H1204 C1210 0.930 . S
H1205 C1214 0.930 . S
H1206 C1219 0.929 . S
H1207 C1217 0.929 . S
H1208 C1212 0.929 . S
H1209 C1218 0.929 . S
C1210 H1204 0.930 . S
C1210 C1211 1.367 . S
C1210 C1218 1.378 . S
C1211 C1210 1.367 . S
C1211 C1219 1.433 . S
C1212 H1208 0.929 . S
C1212 C1214 1.378 . S
C1212 C1216 1.350 . S
C1213 C1216 1.463 . S
C1213 C1218 1.350 . S
C1213 N1221 1.427 . S
C1214 H1205 0.930 . S
C1214 C1212 1.378 . S
C1214 C1215 1.367 . S
C1215 C1214 1.367 . S
C1215 C1217 1.433 . S
C1216 C1212 1.350 . S
C1216 C1213 1.463 . S
C1216 N1220 1.427 . S
C1217 H1207 0.929 . S
C1217 C1215 1.433 . S
C1217 N1220 1.384 . S
C1218 H1209 0.929 . S
C1218 C1210 1.378 . S
C1218 C1213 1.350 . S
C1219 H1206 0.929 . S
C1219 C1211 1.433 . S
C1219 N1221 1.384 . S
N1220 C1216 1.427 . S
N1220 C1217 1.384 . S
N1221 C1213 1.427 . S
N1221 C1219 1.384 . S
H1222 C1228 0.930 . S
H1223 C1232 0.930 . S
H1224 C1237 0.929 . S
H1225 C1235 0.929 . S
H1226 C1230 0.929 . S
H1227 C1236 0.929 . S
C1228 H1222 0.930 . S
C1228 C1229 1.367 . S
C1228 C1236 1.378 . S
C1229 C1228 1.367 . S
C1229 C1237 1.433 . S
C1230 H1226 0.929 . S
C1230 C1232 1.378 . S
C1230 C1234 1.350 . S
C1231 C1234 1.463 . S
C1231 C1236 1.350 . S
C1231 N1239 1.427 . S
C1232 H1223 0.930 . S
C1232 C1230 1.378 . S
C1232 C1233 1.367 . S
C1233 C1232 1.367 . S
C1233 C1235 1.433 . S
C1234 C1230 1.350 . S
C1234 C1231 1.463 . S
C1234 N1238 1.427 . S
C1235 H1225 0.929 . S
C1235 C1233 1.433 . S
C1235 N1238 1.384 . S
C1236 H1227 0.929 . S
C1236 C1228 1.378 . S
C1236 C1231 1.350 . S
C1237 H1224 0.929 . S
C1237 C1229 1.433 . S
C1237 N1239 1.384 . S
N1238 C1234 1.427 . S
N1238 C1235 1.384 . S
N1239 C1231 1.427 . S
N1239 C1237 1.384 . S
H1240 C1246 0.930 . S
H1241 C1250 0.930 . S
H1242 C1255 0.929 . S
H1243 C1253 0.929 . S
H1244 C1248 0.929 . S
H1245 C1254 0.929 . S
C1246 H1240 0.930 . S
C1246 C1247 1.367 . S
C1246 C1254 1.378 . S
C1247 C1246 1.367 . S
C1247 C1255 1.433 . S
C1248 H1244 0.929 . S
C1248 C1250 1.378 . S
C1248 C1252 1.350 . S
C1249 C1252 1.463 . S
C1249 C1254 1.350 . S
C1249 N1257 1.427 . S
C1250 H1241 0.930 . S
C1250 C1248 1.378 . S
C1250 C1251 1.367 . S
C1251 C1250 1.367 . S
C1251 C1253 1.433 . S
C1252 C1248 1.350 . S
C1252 C1249 1.463 . S
C1252 N1256 1.427 . S
C1253 H1243 0.929 . S
C1253 C1251 1.433 . S
C1253 N1256 1.384 . S
C1254 H1245 0.929 . S
C1254 C1246 1.378 . S
C1254 C1249 1.350 . S
C1255 H1242 0.929 . S
C1255 C1247 1.433 . S
C1255 N1257 1.384 . S
N1256 C1252 1.427 . S
N1256 C1253 1.384 . S
N1257 C1249 1.427 . S
N1257 C1255 1.384 . S
H1258 C1264 0.903 1_455 S
H1259 C1268 0.903 1_655 S
H1260 C1273 0.929 . S
H1261 C1271 0.929 . S
H1262 C1266 0.929 . S
H1263 C1272 0.929 . S
C1264 H1258 0.903 1_655 S
C1264 C1265 1.367 . S
C1264 C1272 1.378 1_655 S
C1265 C1264 1.367 . S
C1265 C1273 1.433 1_554 S
C1266 H1262 0.929 . S
C1266 C1268 1.378 1_655 S
C1266 C1270 1.350 1_655 S
C1267 C1270 1.463 1_654 S
C1267 C1272 1.350 1_655 S
C1267 N1275 1.427 1_554 S
C1268 H1259 0.903 1_455 S
C1268 C1266 1.378 1_455 S
C1268 C1269 1.367 . S
C1269 C1268 1.367 . S
C1269 C1271 1.433 1_556 S
C1270 C1266 1.350 1_455 S
C1270 C1267 1.463 1_456 S
C1270 N1274 1.427 1_556 S
C1271 H1261 0.929 . S
C1271 C1269 1.433 1_554 S
C1271 N1274 1.384 . S
C1272 H1263 0.929 . S
C1272 C1264 1.378 1_455 S
C1272 C1267 1.350 1_455 S
C1273 H1260 0.929 . S
C1273 C1265 1.433 1_556 S
C1273 N1275 1.384 . S
N1274 C1270 1.427 1_554 S
N1274 C1271 1.384 . S
N1275 C1267 1.427 1_556 S
N1275 C1273 1.384 . S
H1276 C1282 0.930 . S
H1277 C1286 0.930 . S
H1278 C1291 0.929 . S
H1279 C1289 0.929 . S
H1280 C1284 0.929 . S
H1281 C1290 0.929 . S
C1282 H1276 0.930 . S
C1282 C1283 1.367 1_554 S
C1282 C1290 1.378 . S
C1283 C1282 1.367 1_556 S
C1283 C1291 1.433 . S
C1284 H1280 0.929 . S
C1284 C1286 1.378 . S
C1284 C1288 1.350 1_556 S
C1285 C1288 1.463 1_556 S
C1285 C1290 1.350 1_556 S
C1285 N1293 1.427 . S
C1286 H1277 0.930 . S
C1286 C1284 1.378 . S
C1286 C1287 1.367 1_556 S
C1287 C1286 1.367 1_554 S
C1287 C1289 1.433 . S
C1288 C1284 1.350 1_554 S
C1288 C1285 1.463 1_554 S
C1288 N1292 1.427 . S
C1289 H1279 0.929 . S
C1289 C1287 1.433 . S
C1289 N1292 1.384 . S
C1290 H1281 0.929 . S
C1290 C1282 1.378 . S
C1290 C1285 1.350 1_554 S
C1291 H1278 0.929 . S
C1291 C1283 1.433 . S
C1291 N1293 1.384 . S
N1292 C1288 1.427 . S
N1292 C1289 1.384 . S
N1293 C1285 1.427 . S
N1293 C1291 1.384 . S
H1294 C1300 0.930 . S
H1295 C1304 0.930 . S
H1296 C1309 0.929 . S
H1297 C1307 0.929 . S
H1298 C1302 0.929 . S
H1299 C1308 0.929 . S
C1300 H1294 0.930 . S
C1300 C1301 1.367 . S
C1300 C1308 1.378 . S
C1301 C1300 1.367 . S
C1301 C1309 1.433 . S
C1302 H1298 0.929 . S
C1302 C1304 1.378 . S
C1302 C1306 1.350 . S
C1303 C1306 1.463 1_455 S
C1303 C1308 1.350 . S
C1303 N1311 1.427 1_455 S
C1304 H1295 0.930 . S
C1304 C1302 1.378 . S
C1304 C1305 1.367 . S
C1305 C1304 1.367 . S
C1305 C1307 1.433 . S
C1306 C1302 1.350 . S
C1306 C1303 1.463 1_655 S
C1306 N1310 1.427 1_655 S
C1307 H1297 0.929 . S
C1307 C1305 1.433 . S
C1307 N1310 1.384 1_655 S
C1308 H1299 0.929 . S
C1308 C1300 1.378 . S
C1308 C1303 1.350 . S
C1309 H1296 0.929 . S
C1309 C1301 1.433 . S
C1309 N1311 1.384 1_455 S
N1310 C1306 1.427 1_455 S
N1310 C1307 1.384 1_455 S
N1311 C1303 1.427 1_655 S
N1311 C1309 1.384 1_655 S
H1312 C1318 0.930 . S
H1313 C1322 0.930 . S
H1314 C1327 0.929 . S
H1315 C1325 0.929 . S
H1316 C1320 0.929 . S
H1317 C1326 0.929 . S
C1318 H1312 0.930 . S
C1318 C1319 1.367 . S
C1318 C1326 1.378 . S
C1319 C1318 1.367 . S
C1319 C1327 1.433 . S
C1320 H1316 0.929 . S
C1320 C1322 1.378 . S
C1320 C1324 1.350 . S
C1321 C1324 1.463 . S
C1321 C1326 1.350 . S
C1321 N1329 1.427 . S
C1322 H1313 0.930 . S
C1322 C1320 1.378 . S
C1322 C1323 1.367 . S
C1323 C1322 1.367 . S
C1323 C1325 1.433 . S
C1324 C1320 1.350 . S
C1324 C1321 1.463 . S
C1324 N1328 1.427 . S
C1325 H1315 0.929 . S
C1325 C1323 1.433 . S
C1325 N1328 1.384 . S
C1326 H1317 0.929 . S
C1326 C1318 1.378 . S
C1326 C1321 1.350 . S
C1327 H1314 0.929 . S
C1327 C1319 1.433 . S
C1327 N1329 1.384 . S
N1328 C1324 1.427 . S
N1328 C1325 1.384 . S
N1329 C1321 1.427 . S
N1329 C1327 1.384 . S
H1330 C1336 0.930 . S
H1331 C1340 0.930 . S
H1332 C1345 0.929 . S
H1333 C1343 0.929 . S
H1334 C1338 0.929 . S
H1335 C1344 0.929 . S
C1336 H1330 0.930 . S
C1336 C1337 1.367 . S
C1336 C1344 1.378 . S
C1337 C1336 1.367 . S
C1337 C1345 1.433 . S
C1338 H1334 0.929 . S
C1338 C1340 1.378 . S
C1338 C1342 1.350 . S
C1339 C1342 1.463 . S
C1339 C1344 1.350 . S
C1339 N1347 1.427 . S
C1340 H1331 0.930 . S
C1340 C1338 1.378 . S
C1340 C1341 1.367 . S
C1341 C1340 1.367 . S
C1341 C1343 1.433 . S
C1342 C1338 1.350 . S
C1342 C1339 1.463 . S
C1342 N1346 1.427 . S
C1343 H1333 0.929 . S
C1343 C1341 1.433 . S
C1343 N1346 1.384 . S
C1344 H1335 0.929 . S
C1344 C1336 1.378 . S
C1344 C1339 1.350 . S
C1345 H1332 0.929 . S
C1345 C1337 1.433 . S
C1345 N1347 1.384 . S
N1346 C1342 1.427 . S
N1346 C1343 1.384 . S
N1347 C1339 1.427 . S
N1347 C1345 1.384 . S
H1348 C1354 0.930 . S
H1349 C1358 0.930 . S
H1350 C1363 0.929 . S
H1351 C1361 0.929 . S
H1352 C1356 0.929 . S
H1353 C1362 0.929 . S
C1354 H1348 0.930 . S
C1354 C1355 1.367 . S
C1354 C1362 1.378 . S
C1355 C1354 1.367 . S
C1355 C1363 1.433 . S
C1356 H1352 0.929 . S
C1356 C1358 1.378 . S
C1356 C1360 1.350 . S
C1357 C1360 1.463 . S
C1357 C1362 1.350 . S
C1357 N1365 1.427 . S
C1358 H1349 0.930 . S
C1358 C1356 1.378 . S
C1358 C1359 1.367 . S
C1359 C1358 1.367 . S
C1359 C1361 1.433 . S
C1360 C1356 1.350 . S
C1360 C1357 1.463 . S
C1360 N1364 1.427 . S
C1361 H1351 0.929 . S
C1361 C1359 1.433 . S
C1361 N1364 1.384 . S
C1362 H1353 0.929 . S
C1362 C1354 1.378 . S
C1362 C1357 1.350 . S
C1363 H1350 0.929 . S
C1363 C1355 1.433 . S
C1363 N1365 1.384 . S
N1364 C1360 1.427 . S
N1364 C1361 1.384 . S
N1365 C1357 1.427 . S
N1365 C1363 1.384 . S
H1366 C1372 0.930 . S
H1367 C1376 0.930 . S
H1368 C1381 0.929 . S
H1369 C1379 0.929 . S
H1370 C1374 0.929 . S
H1371 C1380 0.929 . S
C1372 H1366 0.930 . S
C1372 C1373 1.367 . S
C1372 C1380 1.378 . S
C1373 C1372 1.367 . S
C1373 C1381 1.433 . S
C1374 H1370 0.929 . S
C1374 C1376 1.378 . S
C1374 C1378 1.350 . S
C1375 C1378 1.463 . S
C1375 C1380 1.350 . S
C1375 N1383 1.427 . S
C1376 H1367 0.930 . S
C1376 C1374 1.378 . S
C1376 C1377 1.367 . S
C1377 C1376 1.367 . S
C1377 C1379 1.433 . S
C1378 C1374 1.350 . S
C1378 C1375 1.463 . S
C1378 N1382 1.427 . S
C1379 H1369 0.929 . S
C1379 C1377 1.433 . S
C1379 N1382 1.384 . S
C1380 H1371 0.929 . S
C1380 C1372 1.378 . S
C1380 C1375 1.350 . S
C1381 H1368 0.929 . S
C1381 C1373 1.433 . S
C1381 N1383 1.384 . S
N1382 C1378 1.427 . S
N1382 C1379 1.384 . S
N1383 C1375 1.427 . S
N1383 C1381 1.384 . S
H1384 C1390 0.930 . S
H1385 C1394 0.930 . S
H1386 C1399 0.929 . S
H1387 C1397 0.929 . S
H1388 C1392 0.929 . S
H1389 C1398 0.929 . S
C1390 H1384 0.930 . S
C1390 C1391 1.367 . S
C1390 C1398 1.378 . S
C1391 C1390 1.367 . S
C1391 C1399 1.433 . S
C1392 H1388 0.929 . S
C1392 C1394 1.378 . S
C1392 C1396 1.350 . S
C1393 C1396 1.463 . S
C1393 C1398 1.350 . S
C1393 N1401 1.427 . S
C1394 H1385 0.930 . S
C1394 C1392 1.378 . S
C1394 C1395 1.367 . S
C1395 C1394 1.367 . S
C1395 C1397 1.433 . S
C1396 C1392 1.350 . S
C1396 C1393 1.463 . S
C1396 N1400 1.427 . S
C1397 H1387 0.929 . S
C1397 C1395 1.433 . S
C1397 N1400 1.384 . S
C1398 H1389 0.929 . S
C1398 C1390 1.378 . S
C1398 C1393 1.350 . S
C1399 H1386 0.929 . S
C1399 C1391 1.433 . S
C1399 N1401 1.384 . S
N1400 C1396 1.427 . S
N1400 C1397 1.384 . S
N1401 C1393 1.427 . S
N1401 C1399 1.384 . S
H1402 C1408 0.930 . S
H1403 C1412 0.930 . S
H1404 C1417 0.929 . S
H1405 C1415 0.929 . S
H1406 C1410 0.929 . S
H1407 C1416 0.929 . S
C1408 H1402 0.930 . S
C1408 C1409 1.367 . S
C1408 C1416 1.378 . S
C1409 C1408 1.367 . S
C1409 C1417 1.433 . S
C1410 H1406 0.929 . S
C1410 C1412 1.378 . S
C1410 C1414 1.350 . S
C1411 C1414 1.463 . S
C1411 C1416 1.350 . S
C1411 N1419 1.427 . S
C1412 H1403 0.930 . S
C1412 C1410 1.378 . S
C1412 C1413 1.367 . S
C1413 C1412 1.367 . S
C1413 C1415 1.433 . S
C1414 C1410 1.350 . S
C1414 C1411 1.463 . S
C1414 N1418 1.427 . S
C1415 H1405 0.929 . S
C1415 C1413 1.433 . S
C1415 N1418 1.384 . S
C1416 H1407 0.929 . S
C1416 C1408 1.378 . S
C1416 C1411 1.350 . S
C1417 H1404 0.929 . S
C1417 C1409 1.433 . S
C1417 N1419 1.384 . S
N1418 C1414 1.427 . S
N1418 C1415 1.384 . S
N1419 C1411 1.427 . S
N1419 C1417 1.384 . S
H1420 C1426 0.930 . S
H1421 C1430 0.930 . S
H1422 C1435 0.929 . S
H1423 C1433 0.929 . S
H1424 C1428 0.929 . S
H1425 C1434 0.929 . S
C1426 H1420 0.930 . S
C1426 C1427 1.367 . S
C1426 C1434 1.378 . S
C1427 C1426 1.367 . S
C1427 C1435 1.433 . S
C1428 H1424 0.929 . S
C1428 C1430 1.378 . S
C1428 C1432 1.350 . S
C1429 C1432 1.463 . S
C1429 C1434 1.350 . S
C1429 N1437 1.427 . S
C1430 H1421 0.930 . S
C1430 C1428 1.378 . S
C1430 C1431 1.367 . S
C1431 C1430 1.367 . S
C1431 C1433 1.433 . S
C1432 C1428 1.350 . S
C1432 C1429 1.463 . S
C1432 N1436 1.427 . S
C1433 H1423 0.929 . S
C1433 C1431 1.433 . S
C1433 N1436 1.384 . S
C1434 H1425 0.929 . S
C1434 C1426 1.378 . S
C1434 C1429 1.350 . S
C1435 H1422 0.929 . S
C1435 C1427 1.433 . S
C1435 N1437 1.384 . S
N1436 C1432 1.427 . S
N1436 C1433 1.384 . S
N1437 C1429 1.427 . S
N1437 C1435 1.384 . S
H1438 C1444 0.930 . S
H1439 C1448 0.930 . S
H1440 C1453 0.929 . S
H1441 C1451 0.929 . S
H1442 C1446 0.929 . S
H1443 C1452 0.929 . S
C1444 H1438 0.930 . S
C1444 C1445 1.367 . S
C1444 C1452 1.378 . S
C1445 C1444 1.367 . S
C1445 C1453 1.433 . S
C1446 H1442 0.929 . S
C1446 C1448 1.378 . S
C1446 C1450 1.350 . S
C1447 C1450 1.463 . S
C1447 C1452 1.350 . S
C1447 N1455 1.427 . S
C1448 H1439 0.930 . S
C1448 C1446 1.378 . S
C1448 C1449 1.367 . S
C1449 C1448 1.367 . S
C1449 C1451 1.433 . S
C1450 C1446 1.350 . S
C1450 C1447 1.463 . S
C1450 N1454 1.427 . S
C1451 H1441 0.929 . S
C1451 C1449 1.433 . S
C1451 N1454 1.384 . S
C1452 H1443 0.929 . S
C1452 C1444 1.378 . S
C1452 C1447 1.350 . S
C1453 H1440 0.929 . S
C1453 C1445 1.433 . S
C1453 N1455 1.384 . S
N1454 C1450 1.427 . S
N1454 C1451 1.384 . S
N1455 C1447 1.427 . S
N1455 C1453 1.384 . S
H1456 C1462 0.930 . S
H1457 C1466 0.930 . S
H1458 C1471 0.929 . S
H1459 C1469 0.929 . S
H1460 C1464 0.929 . S
H1461 C1470 0.929 . S
C1462 H1456 0.930 . S
C1462 C1463 1.367 . S
C1462 C1470 1.378 . S
C1463 C1462 1.367 . S
C1463 C1471 1.433 . S
C1464 H1460 0.929 . S
C1464 C1466 1.378 . S
C1464 C1468 1.350 . S
C1465 C1468 1.463 . S
C1465 C1470 1.350 . S
C1465 N1473 1.427 . S
C1466 H1457 0.930 . S
C1466 C1464 1.378 . S
C1466 C1467 1.367 . S
C1467 C1466 1.367 . S
C1467 C1469 1.433 . S
C1468 C1464 1.350 . S
C1468 C1465 1.463 . S
C1468 N1472 1.427 . S
C1469 H1459 0.929 . S
C1469 C1467 1.433 . S
C1469 N1472 1.384 . S
C1470 H1461 0.929 . S
C1470 C1462 1.378 . S
C1470 C1465 1.350 . S
C1471 H1458 0.929 . S
C1471 C1463 1.433 . S
C1471 N1473 1.384 . S
N1472 C1468 1.427 . S
N1472 C1469 1.384 . S
N1473 C1465 1.427 . S
N1473 C1471 1.384 . S
H1474 C1480 0.930 . S
H1475 C1484 0.930 . S
H1476 C1489 0.929 . S
H1477 C1487 0.929 . S
H1478 C1482 0.929 . S
H1479 C1488 0.929 . S
C1480 H1474 0.930 . S
C1480 C1481 1.367 . S
C1480 C1488 1.378 . S
C1481 C1480 1.367 . S
C1481 C1489 1.433 . S
C1482 H1478 0.929 . S
C1482 C1484 1.378 . S
C1482 C1486 1.350 . S
C1483 C1486 1.463 . S
C1483 C1488 1.350 . S
C1483 N1491 1.427 . S
C1484 H1475 0.930 . S
C1484 C1482 1.378 . S
C1484 C1485 1.367 . S
C1485 C1484 1.367 . S
C1485 C1487 1.433 . S
C1486 C1482 1.350 . S
C1486 C1483 1.463 . S
C1486 N1490 1.427 . S
C1487 H1477 0.929 . S
C1487 C1485 1.433 . S
C1487 N1490 1.384 . S
C1488 H1479 0.929 . S
C1488 C1480 1.378 . S
C1488 C1483 1.350 . S
C1489 H1476 0.929 . S
C1489 C1481 1.433 . S
C1489 N1491 1.384 . S
N1490 C1486 1.427 . S
N1490 C1487 1.384 . S
N1491 C1483 1.427 . S
N1491 C1489 1.384 . S
H1492 C1498 0.930 . S
H1493 C1502 0.930 . S
H1494 C1507 0.929 . S
H1495 C1505 0.929 . S
H1496 C1500 0.929 . S
H1497 C1506 0.929 . S
C1498 H1492 0.930 . S
C1498 C1499 1.367 . S
C1498 C1506 1.378 . S
C1499 C1498 1.367 . S
C1499 C1507 1.433 . S
C1500 H1496 0.929 . S
C1500 C1502 1.378 . S
C1500 C1504 1.350 . S
C1501 C1504 1.463 . S
C1501 C1506 1.350 . S
C1501 N1509 1.427 . S
C1502 H1493 0.930 . S
C1502 C1500 1.378 . S
C1502 C1503 1.367 . S
C1503 C1502 1.367 . S
C1503 C1505 1.433 . S
C1504 C1500 1.350 . S
C1504 C1501 1.463 . S
C1504 N1508 1.427 . S
C1505 H1495 0.929 . S
C1505 C1503 1.433 . S
C1505 N1508 1.384 . S
C1506 H1497 0.929 . S
C1506 C1498 1.378 . S
C1506 C1501 1.350 . S
C1507 H1494 0.929 . S
C1507 C1499 1.433 . S
C1507 N1509 1.384 . S
N1508 C1504 1.427 . S
N1508 C1505 1.384 . S
N1509 C1501 1.427 . S
N1509 C1507 1.384 . S
H1510 C1516 0.930 . S
H1511 C1520 0.930 . S
H1512 C1525 0.929 . S
H1513 C1523 0.929 . S
H1514 C1518 0.929 . S
H1515 C1524 0.929 . S
C1516 H1510 0.930 . S
C1516 C1517 1.367 . S
C1516 C1524 1.378 . S
C1517 C1516 1.367 . S
C1517 C1525 1.433 . S
C1518 H1514 0.929 . S
C1518 C1520 1.378 . S
C1518 C1522 1.350 . S
C1519 C1522 1.463 . S
C1519 C1524 1.350 . S
C1519 N1527 1.427 . S
C1520 H1511 0.930 . S
C1520 C1518 1.378 . S
C1520 C1521 1.367 . S
C1521 C1520 1.367 . S
C1521 C1523 1.433 . S
C1522 C1518 1.350 . S
C1522 C1519 1.463 . S
C1522 N1526 1.427 . S
C1523 H1513 0.929 . S
C1523 C1521 1.433 . S
C1523 N1526 1.384 . S
C1524 H1515 0.929 . S
C1524 C1516 1.378 . S
C1524 C1519 1.350 . S
C1525 H1512 0.929 . S
C1525 C1517 1.433 . S
C1525 N1527 1.384 . S
N1526 C1522 1.427 . S
N1526 C1523 1.384 . S
N1527 C1519 1.427 . S
N1527 C1525 1.384 . S
H1528 C1534 0.930 . S
H1529 C1538 0.930 . S
H1530 C1543 0.929 . S
H1531 C1541 0.929 . S
H1532 C1536 0.929 . S
H1533 C1542 0.929 . S
C1534 H1528 0.930 . S
C1534 C1535 1.367 . S
C1534 C1542 1.378 . S
C1535 C1534 1.367 . S
C1535 C1543 1.433 . S
C1536 H1532 0.929 . S
C1536 C1538 1.378 . S
C1536 C1540 1.350 . S
C1537 C1540 1.463 . S
C1537 C1542 1.350 . S
C1537 N1545 1.427 . S
C1538 H1529 0.930 . S
C1538 C1536 1.378 . S
C1538 C1539 1.367 . S
C1539 C1538 1.367 . S
C1539 C1541 1.433 . S
C1540 C1536 1.350 . S
C1540 C1537 1.463 . S
C1540 N1544 1.427 . S
C1541 H1531 0.929 . S
C1541 C1539 1.433 . S
C1541 N1544 1.384 . S
C1542 H1533 0.929 . S
C1542 C1534 1.378 . S
C1542 C1537 1.350 . S
C1543 H1530 0.929 . S
C1543 C1535 1.433 . S
C1543 N1545 1.384 . S
N1544 C1540 1.427 . S
N1544 C1541 1.384 . S
N1545 C1537 1.427 . S
N1545 C1543 1.384 . S
H1546 C1552 0.930 . S
H1547 C1556 0.930 . S
H1548 C1561 0.929 . S
H1549 C1559 0.929 . S
H1550 C1554 0.929 . S
H1551 C1560 0.929 . S
C1552 H1546 0.930 . S
C1552 C1553 1.367 . S
C1552 C1560 1.378 . S
C1553 C1552 1.367 . S
C1553 C1561 1.433 . S
C1554 H1550 0.929 . S
C1554 C1556 1.378 . S
C1554 C1558 1.350 . S
C1555 C1558 1.463 . S
C1555 C1560 1.350 . S
C1555 N1563 1.427 . S
C1556 H1547 0.930 . S
C1556 C1554 1.378 . S
C1556 C1557 1.367 . S
C1557 C1556 1.367 . S
C1557 C1559 1.433 . S
C1558 C1554 1.350 . S
C1558 C1555 1.463 . S
C1558 N1562 1.427 . S
C1559 H1549 0.929 . S
C1559 C1557 1.433 . S
C1559 N1562 1.384 . S
C1560 H1551 0.929 . S
C1560 C1552 1.378 . S
C1560 C1555 1.350 . S
C1561 H1548 0.929 . S
C1561 C1553 1.433 . S
C1561 N1563 1.384 . S
N1562 C1558 1.427 . S
N1562 C1559 1.384 . S
N1563 C1555 1.427 . S
N1563 C1561 1.384 . S
H1564 C1570 0.930 . S
H1565 C1574 0.930 . S
H1566 C1579 0.929 . S
H1567 C1577 0.929 . S
H1568 C1572 0.929 . S
H1569 C1578 0.929 . S
C1570 H1564 0.930 . S
C1570 C1571 1.367 . S
C1570 C1578 1.378 . S
C1571 C1570 1.367 . S
C1571 C1579 1.433 . S
C1572 H1568 0.929 . S
C1572 C1574 1.378 . S
C1572 C1576 1.350 . S
C1573 C1576 1.463 . S
C1573 C1578 1.350 . S
C1573 N1581 1.427 . S
C1574 H1565 0.930 . S
C1574 C1572 1.378 . S
C1574 C1575 1.367 . S
C1575 C1574 1.367 . S
C1575 C1577 1.433 . S
C1576 C1572 1.350 . S
C1576 C1573 1.463 . S
C1576 N1580 1.427 . S
C1577 H1567 0.929 . S
C1577 C1575 1.433 . S
C1577 N1580 1.384 . S
C1578 H1569 0.929 . S
C1578 C1570 1.378 . S
C1578 C1573 1.350 . S
C1579 H1566 0.929 . S
C1579 C1571 1.433 . S
C1579 N1581 1.384 . S
N1580 C1576 1.427 . S
N1580 C1577 1.384 . S
N1581 C1573 1.427 . S
N1581 C1579 1.384 . S
H1582 C1588 0.930 . S
H1583 C1592 0.930 . S
H1584 C1597 0.929 . S
H1585 C1595 0.929 . S
H1586 C1590 0.929 . S
H1587 C1596 0.929 . S
C1588 H1582 0.930 . S
C1588 C1589 1.367 . S
C1588 C1596 1.378 . S
C1589 C1588 1.367 . S
C1589 C1597 1.433 . S
C1590 H1586 0.929 . S
C1590 C1592 1.378 . S
C1590 C1594 1.350 . S
C1591 C1594 1.463 . S
C1591 C1596 1.350 . S
C1591 N1599 1.427 . S
C1592 H1583 0.930 . S
C1592 C1590 1.378 . S
C1592 C1593 1.367 . S
C1593 C1592 1.367 . S
C1593 C1595 1.433 . S
C1594 C1590 1.350 . S
C1594 C1591 1.463 . S
C1594 N1598 1.427 . S
C1595 H1585 0.929 . S
C1595 C1593 1.433 . S
C1595 N1598 1.384 . S
C1596 H1587 0.929 . S
C1596 C1588 1.378 . S
C1596 C1591 1.350 . S
C1597 H1584 0.929 . S
C1597 C1589 1.433 . S
C1597 N1599 1.384 . S
N1598 C1594 1.427 . S
N1598 C1595 1.384 . S
N1599 C1591 1.427 . S
N1599 C1597 1.384 . S
C455 C176 1.158 . S
C459 C7 1.178 . S
C473 C414 1.174 . S
C477 C21 1.172 . S
C491 C204 1.169 . S
C495 C35 1.179 . S
C509 C442 1.160 . S
C513 C49 1.184 . S
C527 C120 1.161 . S
C531 C63 1.175 . S
C545 C77 1.180 . S
C549 C358 1.167 . S
C563 C91 1.183 . S
C567 C148 1.159 . S
C581 C386 1.160 . S
C585 C105 1.183 . S
C599 C64 1.169 . S
C603 C119 1.169 . S
C617 C302 1.175 . S
C621 C133 1.171 . S
C635 C92 1.167 . S
C639 C147 1.170 . S
C653 C330 1.174 . S
C657 C161 1.174 . S
C671 C175 1.169 . S
C675 C8 1.174 . S
C689 C189 1.168 . S
C693 C246 1.173 . S
C707 C36 1.170 . S
C711 C203 1.169 . S
C725 C217 1.168 . S
C729 C274 1.173 . S
C743 C400 1.157 . S
C747 C231 1.180 . S
C761 C190 1.158 . S
C765 C245 1.183 . S
C779 C428 1.171 . S
C783 C259 1.177 . S
C797 C273 1.183 . S
C801 C218 1.162 . S
C815 C287 1.169 . S
C819 C344 1.168 . S
C833 C301 1.171 . S
C837 C134 1.175 . S
C851 C372 1.169 . S
C855 C315 1.179 . S
C869 C162 1.175 . S
C873 C329 1.170 . S
C887 C288 1.158 . S
C891 C343 1.183 . S
C905 C357 1.182 . S
C909 C78 1.157 . S
C923 C371 1.183 . S
C927 C316 1.162 . S
C941 C385 1.182 . S
C945 C106 1.157 . S
C959 C232 1.159 . S
C963 C399 1.183 . S
C977 C22 1.174 . S
C981 C413 1.173 . S
C995 C260 1.174 . S
C999 C427 1.169 . S
C1013 C441 1.168 . S
C1017 C50 1.171 . S
C1031 C9 1.331 . S
C1035 C121 1.331 . S
C1049 C23 1.327 . S
C1053 C359 1.327 . S
C1067 C149 1.317 . S
C1071 C37 1.317 . S
C1085 C51 1.321 . S
C1089 C387 1.321 . S
C1103 C65 1.314 . S
C1107 C177 1.314 . S
C1121 C415 1.327 . S
C1125 C79 1.327 . S
C1139 C205 1.333 . S
C1143 C93 1.333 . S
C1157 C107 1.331 . S
C1161 C443 1.331 . S
C1175 C135 1.318 . S
C1179 C247 1.318 . S
C1193 C163 1.333 . S
C1197 C275 1.333 . S
C1211 C191 1.322 . S
C1215 C303 1.322 . S
C1229 C331 1.325 . S
C1233 C219 1.325 . S
C1247 C233 1.331 . S
C1251 C345 1.331 . S
C1265 C261 1.319 . S
C1269 C373 1.319 . S
C1283 C289 1.321 . S
C1287 C401 1.321 . S
C1301 C429 1.333 . S
C1305 C317 1.333 . S
C1319 C6 1.391 . S
C1323 C104 1.395 . S
C1337 C20 1.402 . S
C1341 C62 1.403 . S
C1355 C76 1.397 . S
C1359 C34 1.402 . S
C1373 C90 1.394 . S
C1377 C48 1.400 . S
C1391 C216 1.404 . S
C1395 C118 1.402 . S
C1409 C174 1.404 . S
C1413 C132 1.401 . S
C1427 C188 1.394 . S
C1431 C146 1.400 . S
C1445 C202 1.401 . S
C1449 C160 1.404 . S
C1463 C230 1.403 . S
C1467 C328 1.403 . S
C1481 C286 1.403 . S
C1485 C244 1.399 . S
C1499 C300 1.391 . S
C1503 C258 1.395 . S
C1517 C314 1.390 . S
C1521 C272 1.394 . S
C1535 C440 1.390 . S
C1539 C342 1.393 . S
C1553 C356 1.391 . S
C1557 C398 1.395 . S
C1571 C370 1.392 . S
C1575 C412 1.391 . S
C1589 C426 1.398 . S
C1593 C384 1.392 . S
