# Generated by pormake.
# Topology vbm, (6)-cn, num edge types: 1
# Building blocks:
#     Node 0, Type 0, BuildingBlock: KUMBOL_clean_sbu_1, # of connection points: 6
#     Node 1, Type 0, BuildingBlock: KUMBOL_clean_sbu_1, # of connection points: 6
#     Node 2, Type 0, BuildingBlock: KUMBOL_clean_sbu_1, # of connection points: 6
#     Node 3, Type 0, BuildingBlock: KUMBOL_clean_sbu_1, # of connection points: 6
#     Node 4, Type 0, BuildingBlock: KUMBOL_clean_sbu_1, # of connection points: 6
#     Node 5, Type 0, BuildingBlock: KUMBOL_clean_sbu_1, # of connection points: 6
#     Node 6, Type 0, BuildingBlock: KUMBOL_clean_sbu_1, # of connection points: 6
#     Node 7, Type 0, BuildingBlock: KUMBOL_clean_sbu_1, # of connection points: 6
#     Node 8, Type 0, BuildingBlock: KUMBOL_clean_sbu_1, # of connection points: 6
#     Node 9, Type 0, BuildingBlock: KUMBOL_clean_sbu_1, # of connection points: 6
#     Node 10, Type 0, BuildingBlock: KUMBOL_clean_sbu_1, # of connection points: 6
#     Node 11, Type 0, BuildingBlock: KUMBOL_clean_sbu_1, # of connection points: 6
#     Node 12, Type 0, BuildingBlock: KUMBOL_clean_sbu_1, # of connection points: 6
#     Node 13, Type 0, BuildingBlock: KUMBOL_clean_sbu_1, # of connection points: 6
#     Node 14, Type 0, BuildingBlock: KUMBOL_clean_sbu_1, # of connection points: 6
#     Node 15, Type 0, BuildingBlock: KUMBOL_clean_sbu_1, # of connection points: 6
#     Edge 16, Type (0, 0), BuildingBlock: XIVTED_clean_linker_0, # of connection points: 2
#     Edge 17, Type (0, 0), BuildingBlock: XIVTED_clean_linker_0, # of connection points: 2
#     Edge 18, Type (0, 0), BuildingBlock: XIVTED_clean_linker_0, # of connection points: 2
#     Edge 19, Type (0, 0), BuildingBlock: XIVTED_clean_linker_0, # of connection points: 2
#     Edge 20, Type (0, 0), BuildingBlock: XIVTED_clean_linker_0, # of connection points: 2
#     Edge 21, Type (0, 0), BuildingBlock: XIVTED_clean_linker_0, # of connection points: 2
#     Edge 22, Type (0, 0), BuildingBlock: XIVTED_clean_linker_0, # of connection points: 2
#     Edge 23, Type (0, 0), BuildingBlock: XIVTED_clean_linker_0, # of connection points: 2
#     Edge 24, Type (0, 0), BuildingBlock: XIVTED_clean_linker_0, # of connection points: 2
#     Edge 25, Type (0, 0), BuildingBlock: XIVTED_clean_linker_0, # of connection points: 2
#     Edge 26, Type (0, 0), BuildingBlock: XIVTED_clean_linker_0, # of connection points: 2
#     Edge 27, Type (0, 0), BuildingBlock: XIVTED_clean_linker_0, # of connection points: 2
#     Edge 28, Type (0, 0), BuildingBlock: XIVTED_clean_linker_0, # of connection points: 2
#     Edge 29, Type (0, 0), BuildingBlock: XIVTED_clean_linker_0, # of connection points: 2
#     Edge 30, Type (0, 0), BuildingBlock: XIVTED_clean_linker_0, # of connection points: 2
#     Edge 31, Type (0, 0), BuildingBlock: XIVTED_clean_linker_0, # of connection points: 2
#     Edge 32, Type (0, 0), BuildingBlock: XIVTED_clean_linker_0, # of connection points: 2
#     Edge 33, Type (0, 0), BuildingBlock: XIVTED_clean_linker_0, # of connection points: 2
#     Edge 34, Type (0, 0), BuildingBlock: XIVTED_clean_linker_0, # of connection points: 2
#     Edge 35, Type (0, 0), BuildingBlock: XIVTED_clean_linker_0, # of connection points: 2
#     Edge 36, Type (0, 0), BuildingBlock: XIVTED_clean_linker_0, # of connection points: 2
#     Edge 37, Type (0, 0), BuildingBlock: XIVTED_clean_linker_0, # of connection points: 2
#     Edge 38, Type (0, 0), BuildingBlock: XIVTED_clean_linker_0, # of connection points: 2
#     Edge 39, Type (0, 0), BuildingBlock: XIVTED_clean_linker_0, # of connection points: 2
#     Edge 40, Type (0, 0), BuildingBlock: XIVTED_clean_linker_0, # of connection points: 2
#     Edge 41, Type (0, 0), BuildingBlock: XIVTED_clean_linker_0, # of connection points: 2
#     Edge 42, Type (0, 0), BuildingBlock: XIVTED_clean_linker_0, # of connection points: 2
#     Edge 43, Type (0, 0), BuildingBlock: XIVTED_clean_linker_0, # of connection points: 2
#     Edge 44, Type (0, 0), BuildingBlock: XIVTED_clean_linker_0, # of connection points: 2
#     Edge 45, Type (0, 0), BuildingBlock: XIVTED_clean_linker_0, # of connection points: 2
#     Edge 46, Type (0, 0), BuildingBlock: XIVTED_clean_linker_0, # of connection points: 2
#     Edge 47, Type (0, 0), BuildingBlock: XIVTED_clean_linker_0, # of connection points: 2
#     Edge 48, Type (0, 0), BuildingBlock: XIVTED_clean_linker_0, # of connection points: 2
#     Edge 49, Type (0, 0), BuildingBlock: XIVTED_clean_linker_0, # of connection points: 2
#     Edge 50, Type (0, 0), BuildingBlock: XIVTED_clean_linker_0, # of connection points: 2
#     Edge 51, Type (0, 0), BuildingBlock: XIVTED_clean_linker_0, # of connection points: 2
#     Edge 52, Type (0, 0), BuildingBlock: XIVTED_clean_linker_0, # of connection points: 2
#     Edge 53, Type (0, 0), BuildingBlock: XIVTED_clean_linker_0, # of connection points: 2
#     Edge 54, Type (0, 0), BuildingBlock: XIVTED_clean_linker_0, # of connection points: 2
#     Edge 55, Type (0, 0), BuildingBlock: XIVTED_clean_linker_0, # of connection points: 2
#     Edge 56, Type (0, 0), BuildingBlock: XIVTED_clean_linker_0, # of connection points: 2
#     Edge 57, Type (0, 0), BuildingBlock: XIVTED_clean_linker_0, # of connection points: 2
#     Edge 58, Type (0, 0), BuildingBlock: XIVTED_clean_linker_0, # of connection points: 2
#     Edge 59, Type (0, 0), BuildingBlock: XIVTED_clean_linker_0, # of connection points: 2
#     Edge 60, Type (0, 0), BuildingBlock: XIVTED_clean_linker_0, # of connection points: 2
#     Edge 61, Type (0, 0), BuildingBlock: XIVTED_clean_linker_0, # of connection points: 2
#     Edge 62, Type (0, 0), BuildingBlock: XIVTED_clean_linker_0, # of connection points: 2
#     Edge 63, Type (0, 0), BuildingBlock: XIVTED_clean_linker_0, # of connection points: 2
# Relax obj value: 0.077
# Max RMSD: 0.140
# Mean RMSD: 0.140
data_MOF--net-vbm--node1-KUMBOL_clean_sbu_1--edge1-XIVTED_clean_linker_0
_symmetry_space_group_name_H-M    P1
_symmetry_Int_Tables_number       1
_symmetry_cell_setting            triclinic
loop_
_symmetry_equiv_pos_as_xyz
'x, y, z'
_cell_length_a     54.521933
_cell_length_b     24.991803
_cell_length_c     58.127967
_cell_angle_alpha  90.032765
_cell_angle_beta   90.122752
_cell_angle_gamma 89.973459
loop_
_atom_site_label
_atom_site_type_symbol
_atom_site_fract_x
_atom_site_fract_y
_atom_site_fract_z
_atom_type_partial_charge
C0 C 0.20996 0.04526 0.1164 0.0
C1 C 0.2289 0.02707 0.15332 0.0
C2 C 0.2077 0.03347 0.13962 0.0
C3 C 0.25218 0.03505 0.14356 0.0
C4 C 0.23326 0.05176 0.10634 0.0
C5 C 0.25436 0.04731 0.12012 0.0
N6 N 0.1892 0.05075 0.10362 0.0
C7 C 0.19037 0.05898 0.08042 0.0
C8 C 0.23463 0.06217 0.0827 0.0
C9 C 0.2131 0.06527 0.06965 0.0
Gd10 Gd 0.12284 0.18493 0.1385 0.0
Gd11 Gd 0.15187 0.03917 0.12291 0.0
N12 N 0.1849 0.02588 0.14854 0.0
C13 C 0.22609 1.01126 0.17625 0.0
C14 C 0.1823 1.00587 0.17025 0.0
C15 C 0.20271 0.99964 0.18461 0.0
H16 H 0.16461 0.99324 0.17646 0.0
H17 H 0.20043 0.98493 0.20199 0.0
H18 H 0.09251 0.22013 0.09141 0.0
H19 H 0.1737 0.06123 0.07037 0.0
H20 H 0.04949 0.23354 0.07873 0.0
H21 H 0.24189 1.00589 0.18734 0.0
H22 H 0.26864 0.03075 0.15387 0.0
H23 H 0.12084 0.18427 0.19682 0.0
H24 H 0.25221 0.0673 0.07432 0.0
H25 H 0.21401 0.07257 0.05132 0.0
H26 H 1.002 0.19829 0.14665 0.0
H27 H 0.27244 0.05258 0.11277 0.0
H28 H 0.04582 0.17145 0.21727 0.0
H29 H 0.08993 0.17411 0.22727 0.0
N30 N 0.09484 0.18085 0.16942 0.0
C31 C 0.07067 0.18317 0.16374 0.0
C32 C 0.10178 0.18047 0.19202 0.0
C33 C 0.05938 0.17437 0.20372 0.0
C34 C 0.08425 0.17579 0.20943 0.0
C35 C 0.05227 0.17963 0.18069 0.0
H36 H 0.01309 0.18036 0.187 0.0
N37 N 0.0826 0.1979 0.12539 0.0
C38 C 0.06435 0.19299 0.14108 0.0
C39 C 0.03426 0.21391 0.11187 0.0
C40 C 0.03961 0.19994 0.13467 0.0
C41 C 0.07767 0.214 0.10342 0.0
C42 C 0.05341 0.22171 0.09626 0.0
O43 O 0.17287 0.11717 0.11708 0.0
O44 O 0.16134 0.16367 0.14859 0.0
O45 O 0.13506 0.25785 0.12127 0.0
O46 O 0.12244 0.26101 0.15634 0.0
O47 O 0.13381 0.04834 0.1576 0.0
O48 O 0.14161 0.13636 0.16678 0.0
O49 O 0.09834 0.12238 0.12205 0.0
O50 O 0.11234 0.04147 0.13555 0.0
O51 O 0.15527 0.95408 0.1292 0.0
O52 O 0.14463 0.98156 0.09547 0.0
O53 O 0.13513 0.1716 0.10123 0.0
O54 O 0.13135 0.07991 0.09429 0.0
C55 C 0.17766 0.15322 0.13285 0.0
C56 C 0.1363 0.08687 0.17278 0.0
C57 C 0.11399 0.33604 0.1332 0.0
C58 C 0.11086 0.43012 0.12181 0.0
C59 C 0.07423 0.37967 0.13194 0.0
C60 C 0.08847 0.3345 0.13624 0.0
C61 C 0.08527 0.42717 0.12488 0.0
C62 C 0.12513 0.38392 0.12595 0.0
C63 C 0.1291 0.28856 0.13847 0.0
C64 C 0.02116 0.19386 0.15128 0.0
C65 C 0.02747 0.18355 0.17424 0.0
H66 H 0.01549 0.21977 0.10627 0.0
C67 C 0.09432 0.07344 0.12924 0.0
C68 C 0.13188 0.13013 0.08728 0.0
C69 C 0.16549 0.89798 0.09835 0.0
C70 C 0.17274 0.80236 0.0926 0.0
C71 C 0.20375 0.86741 0.08162 0.0
C72 C 0.18868 0.90911 0.08915 0.0
C73 C 0.19593 0.81431 0.08343 0.0
C74 C 0.15756 0.84465 0.0999 0.0
C75 C 0.15001 0.94038 0.10823 0.0
H76 H 0.05458 0.37811 0.13447 0.0
H77 H 0.07952 0.29871 0.14234 0.0
H78 H 0.07374 0.46198 0.12238 0.0
H79 H 0.14484 0.38509 0.12361 0.0
H80 H 0.22165 0.87625 0.07457 0.0
H81 H 0.19531 0.94967 0.08807 0.0
H82 H 0.20795 0.78263 0.07755 0.0
H83 H 0.13985 0.83601 0.1075 0.0
C84 C 0.80191 0.96037 0.11669 0.0
C85 C 0.78278 0.97592 0.15374 0.0
C86 C 0.804 0.97321 0.13993 0.0
C87 C 0.7598 0.96341 0.14418 0.0
C88 C 0.77882 0.94909 0.1069 0.0
C89 C 0.75782 0.95007 0.12083 0.0
N90 N 0.82263 0.9575 0.10377 0.0
C91 C 0.8215 0.94776 0.08067 0.0
C92 C 0.77754 0.937 0.08339 0.0
C93 C 0.79895 0.93685 0.07018 0.0
Gd94 Gd 0.88831 0.83216 0.14106 0.0
Gd95 Gd 0.85949 0.9759 0.12287 0.0
N96 N 0.82657 0.9845 0.14883 0.0
C97 C 0.78521 0.99235 0.17665 0.0
C98 C 0.8286 1.00535 0.17047 0.0
C99 C 0.80814 1.00817 0.18489 0.0
H100 H 0.84577 0.02123 0.17662 0.0
H101 H 0.81002 0.02343 0.20224 0.0
H102 H 0.92757 0.81173 0.09791 0.0
H103 H 0.83814 0.94726 0.07057 0.0
H104 H 0.97203 0.79538 0.09272 0.0
H105 H 0.76937 0.99493 0.18782 0.0
H106 H 0.74337 0.96479 0.15462 0.0
H107 H 0.8773 0.81854 0.19765 0.0
H108 H 0.76012 0.92811 0.07524 0.0
H109 H 0.79809 0.92809 0.05196 0.0
H110 H 1.00375 0.78816 0.16984 0.0
H111 H 0.73993 0.94104 0.11367 0.0
H112 H 0.94632 0.79998 0.232 0.0
H113 H 0.90114 0.8087 0.23356 0.0
N114 N 0.90884 0.81936 0.17614 0.0
C115 C 0.93351 0.81242 0.17482 0.0
C116 C 0.89708 0.81638 0.19681 0.0
C117 C 0.936 0.80521 0.21621 0.0
C118 C 0.91049 0.81016 0.21717 0.0
C119 C 0.94779 0.80537 0.19484 0.0
H120 H 0.98453 0.79241 0.20807 0.0
N121 N 0.93005 0.81642 0.13435 0.0
C122 C 0.94439 0.81003 0.15328 0.0
C123 C 0.97981 0.79613 0.12909 0.0
C124 C 0.96976 0.80051 0.15118 0.0
C125 C 0.93942 0.80913 0.11279 0.0
C126 C 0.96451 0.79982 0.10983 0.0
O127 O 0.842 0.89391 0.11701 0.0
O128 O 0.84985 0.85332 0.15076 0.0
O129 O 0.87262 0.76845 0.12026 0.0
O130 O 0.88934 0.74994 0.15308 0.0
O131 O 0.87792 0.97232 0.15765 0.0
O132 O 0.86973 0.88537 0.16751 0.0
O133 O 0.91694 0.89469 0.13277 0.0
O134 O 0.90037 0.98107 0.13043 0.0
O135 O 0.85274 0.06108 0.12789 0.0
O136 O 0.8612 0.0308 0.09409 0.0
O137 O 0.88277 0.84749 0.1026 0.0
O138 O 0.88376 0.93951 0.09617 0.0
C139 C 0.83458 0.86383 0.1341 0.0
C140 C 0.87726 0.93374 0.17298 0.0
C141 C 0.85831 0.69181 0.13999 0.0
C142 C 0.84482 0.59858 0.13953 0.0
C143 C 0.81783 0.66854 0.15396 0.0
C144 C 0.83597 0.70685 0.1499 0.0
C145 C 0.82216 0.61468 0.1488 0.0
C146 C 0.86267 0.63781 0.13487 0.0
C147 C 0.8776 0.73132 0.13531 0.0
C148 C 0.98418 0.79506 0.17109 0.0
C149 C 0.97323 0.79756 0.19287 0.0
H150 H 0.99924 0.7889 0.12675 0.0
C151 C 0.919 0.94717 0.13174 0.0
C152 C 0.88589 0.88971 0.08919 0.0
C153 C 0.87525 0.11774 0.10325 0.0
C154 C 0.88481 0.21309 0.10636 0.0
C155 C 0.91495 0.15087 0.09092 0.0
C156 C 0.89858 0.10858 0.09386 0.0
C157 C 0.90817 0.20276 0.0971 0.0
C158 C 0.86842 0.17008 0.10941 0.0
C159 C 0.85791 0.07319 0.1067 0.0
H160 H 0.80052 0.68048 0.16148 0.0
H161 H 0.83276 0.74795 0.15469 0.0
H162 H 0.80806 0.58555 0.15267 0.0
H163 H 0.88006 0.6264 0.12729 0.0
H164 H 0.93291 0.14344 0.08368 0.0
H165 H 0.90411 0.06878 0.08867 0.0
H166 H 0.9211 0.23496 0.09424 0.0
H167 H 0.85045 0.1771 0.11678 0.0
C168 C 0.20315 0.96993 0.41273 0.0
C169 C 0.23655 0.97119 0.38513 0.0
C170 C 0.21124 0.97147 0.39003 0.0
C171 C 0.25358 0.96926 0.40328 0.0
C172 C 0.22019 0.96791 0.43098 0.0
C173 C 0.24542 0.96763 0.42613 0.0
N174 N 0.17861 0.96915 0.41691 0.0
C175 C 0.16987 0.96815 0.43887 0.0
C176 C 0.21135 0.96586 0.45357 0.0
C177 C 0.18608 0.96616 0.45752 0.0
Gd178 Gd 0.12305 0.83489 0.36122 0.0
Gd179 Gd 0.15314 0.97162 0.38447 0.0
N180 N 0.19431 0.97151 0.37275 0.0
C181 C 0.244 0.97266 0.36211 0.0
C182 C 0.20146 0.97522 0.35036 0.0
C183 C 0.22637 0.97516 0.34467 0.0
H184 H 0.1881 0.97902 0.33688 0.0
H185 H 0.23195 0.97745 0.32684 0.0
H186 H 0.09434 0.8108 0.41223 0.0
H187 H 0.15038 0.96987 0.44201 0.0
H188 H 0.05264 0.81445 0.4278 0.0
H189 H 0.26328 0.97249 0.35762 0.0
H190 H 0.2731 0.96891 0.39984 0.0
H191 H 0.11718 0.84295 0.30412 0.0
H192 H 0.22386 0.96426 0.46806 0.0
H193 H 0.17907 0.96513 0.47492 0.0
H194 H 1.00178 0.84258 0.36156 0.0
H195 H 0.25879 0.96602 0.43993 0.0
H196 H 0.04069 0.85363 0.28788 0.0
H197 H 0.08403 0.85194 0.27533 0.0
N198 N 0.09283 0.84047 0.33259 0.0
C199 C 0.06914 0.83988 0.33984 0.0
C200 C 0.09832 0.844 0.30976 0.0
C201 C 0.05516 0.84957 0.30057 0.0
C202 C 0.0796 0.84877 0.29342 0.0
C203 C 0.04965 0.84504 0.32401 0.0
H204 H 0.01018 0.85049 0.32016 0.0
N205 N 0.08374 0.83212 0.37819 0.0
C206 C 0.06446 0.836 0.36329 0.0
C207 C 0.0359 0.83021 0.39492 0.0
C208 C 0.04006 0.83624 0.37134 0.0
C209 C 0.07958 0.82148 0.40088 0.0
C210 C 0.05573 0.82176 0.40968 0.0
O211 O 0.17544 0.89449 0.38721 0.0
O212 O 0.16376 0.84453 0.35591 0.0
O213 O 0.12463 0.75436 0.37531 0.0
O214 O 0.12257 0.76577 0.33859 0.0
O215 O 0.14334 0.96772 0.34667 0.0
O216 O 0.14608 0.87901 0.33488 0.0
O217 O 0.10238 0.91291 0.35615 0.0
O218 O 0.11198 0.9618 0.38822 0.0
O219 O 0.15255 0.04972 0.36809 0.0
O220 O 0.15235 0.04383 0.40519 0.0
O221 O 0.13467 0.84013 0.39913 0.0
O222 O 0.12729 0.92849 0.40769 0.0
C223 C 0.1799 0.85735 0.37173 0.0
C224 C 0.14524 0.93086 0.33059 0.0
C225 C 0.14389 0.6899 0.35201 0.0
C226 C 0.15624 0.59622 0.35484 0.0
C227 C 0.18498 0.66321 0.34093 0.0
C228 C 0.16712 0.70281 0.34342 0.0
C229 C 0.17964 0.6102 0.34663 0.0
C230 C 0.1385 0.63666 0.35767 0.0
C231 C 0.12513 0.73147 0.35521 0.0
C232 C 0.02061 0.84187 0.35564 0.0
C233 C 0.02539 0.84622 0.33205 0.0
H234 H 0.01744 0.83024 0.40179 0.0
C235 C 0.09656 0.94843 0.37179 0.0
C236 C 0.1305 0.87875 0.41412 0.0
C237 C 0.13088 0.11578 0.38854 0.0
C238 C 0.11798 0.20903 0.38512 0.0
C239 C 0.08821 0.13971 0.39429 0.0
C240 C 0.10667 0.10106 0.3936 0.0
C241 C 0.09377 0.19337 0.39011 0.0
C242 C 0.13645 0.16964 0.38427 0.0
C243 C 0.15046 0.07541 0.3875 0.0
H244 H 0.20291 0.67352 0.33432 0.0
H245 H 0.17124 0.74342 0.33848 0.0
H246 H 0.19363 0.57999 0.34408 0.0
H247 H 0.12051 0.62685 0.36437 0.0
H248 H 0.06955 0.12808 0.39822 0.0
H249 H 0.10205 0.05987 0.39713 0.0
H250 H 0.07917 0.22266 0.39116 0.0
H251 H 0.15515 0.18065 0.38007 0.0
C252 C 0.81001 0.04828 0.40557 0.0
C253 C 0.78165 0.03691 0.37369 0.0
C254 C 0.80586 0.0413 0.3821 0.0
C255 C 0.76183 0.04113 0.38899 0.0
C256 C 0.79017 0.05212 0.42098 0.0
C257 C 0.76607 0.04873 0.41255 0.0
N258 N 0.83353 0.05241 0.41324 0.0
C259 C 0.83857 0.05919 0.43604 0.0
C260 C 0.79516 0.05976 0.44441 0.0
C261 C 0.81947 0.0632 0.45196 0.0
Gd262 Gd 0.89229 0.18335 0.36246 0.0
Gd263 Gd 0.86416 0.04439 0.38536 0.0
N264 N 0.82545 0.03794 0.3676 0.0
C265 C 0.77808 0.02736 0.35021 0.0
C266 C 0.82202 0.02454 0.34507 0.0
C267 C 0.79836 0.02032 0.33592 0.0
H268 H 0.8373 0.01503 0.3342 0.0
H269 H 0.7958 1.01054 0.31793 0.0
H270 H 0.92265 0.21001 0.41238 0.0
H271 H 0.85733 0.06079 0.44196 0.0
H272 H 0.96513 0.21349 0.42618 0.0
H273 H 0.75978 0.02364 0.34309 0.0
H274 H 0.74312 0.03808 0.38279 0.0
H275 H 0.89552 0.17698 0.30513 0.0
H276 H 0.78041 0.06295 0.45679 0.0
H277 H 0.82349 0.06871 0.47005 0.0
H278 H 0.01343 0.19268 0.35794 0.0
H279 H 0.75058 0.05176 0.42412 0.0
H280 H 0.97127 0.17566 0.28586 0.0
H281 H 0.92738 0.17203 0.27505 0.0
N282 N 0.92115 0.18201 0.33263 0.0
C283 C 0.94514 0.18514 0.33893 0.0
C284 C 0.91463 0.17798 0.31003 0.0
C285 C 0.95738 0.1777 0.29913 0.0
C286 C 0.93262 0.17555 0.29295 0.0
C287 C 0.96392 0.18273 0.32233 0.0
H288 H 1.00323 0.18307 0.3169 0.0
N289 N 0.93225 0.19176 0.37777 0.0
C290 C 0.95086 0.19005 0.36216 0.0
C291 C 0.98068 0.20051 0.39263 0.0
C292 C 0.97557 0.19348 0.36924 0.0
C293 C 0.93717 0.20248 0.40034 0.0
C294 C 0.96138 0.2059 0.40817 0.0
O295 O 0.84217 0.12173 0.38985 0.0
O296 O 0.85235 0.16582 0.35711 0.0
O297 O 0.88585 0.26216 0.37715 0.0
O298 O 0.88941 0.25305 0.34036 0.0
O299 O 0.87673 0.04789 0.34825 0.0
O300 O 0.86997 0.13527 0.33678 0.0
O301 O 0.91556 0.10877 0.35872 0.0
O302 O 0.9054 0.05477 0.38932 0.0
O303 O 0.86701 0.96278 0.37274 0.0
O304 O 0.86531 0.9777 0.40932 0.0
O305 O 0.88281 0.17661 0.40086 0.0
O306 O 0.88892 0.08748 0.40988 0.0
C307 C 0.83734 0.15831 0.37426 0.0
C308 C 0.87386 0.08434 0.33214 0.0
C309 C 0.90331 0.33404 0.35669 0.0
C310 C 0.90821 0.43058 0.36143 0.0
C311 C 0.94301 0.37528 0.35041 0.0
C312 C 0.92819 0.32982 0.35089 0.0
C313 C 0.93314 0.42538 0.35562 0.0
C314 C 0.8934 0.3844 0.36196 0.0
C315 C 0.88745 0.28647 0.3574 0.0
C316 C 0.99435 0.19048 0.35278 0.0
C317 C 0.98854 0.18512 0.3294 0.0
H318 H 0.99942 0.20333 0.39876 0.0
C319 C 0.92127 0.07236 0.37404 0.0
C320 C 0.88723 0.138 0.41587 0.0
C321 C 0.84902 0.8958 0.39568 0.0
C322 C 0.84253 0.79923 0.39339 0.0
C323 C 0.80896 0.85841 0.404 0.0
C324 C 0.82444 0.90264 0.40208 0.0
C325 C 0.81788 0.80698 0.39968 0.0
C326 C 0.85796 0.84414 0.39135 0.0
C327 C 0.86568 0.94169 0.39316 0.0
H328 H 0.96218 0.37172 0.34585 0.0
H329 H 0.93616 0.2916 0.34663 0.0
H330 H 0.94495 0.46013 0.35473 0.0
H331 H 0.87423 0.38744 0.36669 0.0
H332 H 0.79001 0.86398 0.40898 0.0
H333 H 0.81722 0.9419 0.40567 0.0
H334 H 0.8056 0.77325 0.40164 0.0
H335 H 0.87691 0.83906 0.38614 0.0
C336 C 0.94646 0.84635 0.84438 0.0
C337 C 0.97588 0.83239 0.87514 0.0
C338 C 0.9515 0.83759 0.86738 0.0
C339 C 0.99524 0.83896 0.8595 0.0
C340 C 0.96579 0.85021 0.82838 0.0
C341 C 0.9902 0.84799 0.83616 0.0
N342 N 0.92264 0.84723 0.83745 0.0
C343 C 0.91707 0.84586 0.81455 0.0
C344 C 0.96 0.85398 0.80498 0.0
C345 C 0.93553 0.85068 0.79801 0.0
Gd346 Gd 0.86277 0.98881 0.88188 0.0
Gd347 Gd 0.8928 0.8437 0.86682 0.0
N348 N 0.93237 0.83225 0.88209 0.0
C349 C 0.98 0.81972 0.8983 0.0
C350 C 0.93616 0.81719 0.9044 0.0
C351 C 0.96003 0.81132 0.91291 0.0
H352 H 0.92072 0.81046 0.91565 0.0
H353 H 0.96301 0.80039 0.9307 0.0
H354 H 0.8482 0.02928 0.8279 0.0
H355 H 0.89842 0.84002 0.80891 0.0
H356 H 0.8116 0.03557 0.80333 0.0
H357 H 0.99847 0.81526 0.90494 0.0
H358 H 0.01413 0.83589 0.86517 0.0
H359 H 0.8427 0.96756 0.93509 0.0
H360 H 0.9743 0.85701 0.79213 0.0
H361 H 0.93089 0.85089 0.77989 0.0
H362 H 0.74508 0.99473 0.85418 0.0
H363 H 1.0053 0.8515 0.82416 0.0
H364 H 0.76414 0.96156 0.93349 0.0
H365 H 0.8031 0.9566 0.95534 0.0
N366 N 0.82614 0.97718 0.90225 0.0
C367 C 0.80496 0.98223 0.89006 0.0
C368 C 0.82574 0.96934 0.92548 0.0
C369 C 0.78142 0.96638 0.92456 0.0
C370 C 0.80339 0.96341 0.93696 0.0
C371 C 0.782 0.97611 0.90083 0.0
H372 H 0.74263 0.97509 0.89558 0.0
N373 N 0.82894 0.9996 0.85695 0.0
C374 C 0.80643 0.99278 0.86666 0.0
C375 C 0.78681 1.01198 0.83028 0.0
C376 C 0.78479 0.99816 0.85351 0.0
C377 C 0.8308 0.01726 0.83482 0.0
C378 C 0.8099 0.02244 0.821 0.0
O379 O 0.91623 0.90733 0.88372 0.0
O380 O 0.90243 0.9875 0.86951 0.0
O381 O 0.85859 0.0734 0.87484 0.0
O382 O 0.86992 0.04802 0.9087 0.0
O383 O 0.87919 0.85693 0.9037 0.0
O384 O 0.88296 0.94844 0.91083 0.0
O385 O 0.842 0.91055 0.88701 0.0
O386 O 0.85431 0.8636 0.8558 0.0
O387 O 0.88038 0.77047 0.8837 0.0
O388 O 0.89427 0.76751 0.84908 0.0
O389 O 0.88082 0.98015 0.84723 0.0
O390 O 0.87598 0.89137 0.83704 0.0
C391 C 0.92041 0.9557 0.87603 0.0
C392 C 0.88234 0.89817 0.91781 0.0
C393 C 0.84863 0.13103 0.90528 0.0
C394 C 0.84123 0.22682 0.91044 0.0
C395 C 0.81045 0.16183 0.92205 0.0
C396 C 0.82555 0.12001 0.91473 0.0
C397 C 0.81812 0.21495 0.91982 0.0
C398 C 0.85644 0.1844 0.90332 0.0
C399 C 0.86411 0.08837 0.89559 0.0
C400 C 0.76186 0.99097 0.86405 0.0
C401 C 0.76046 0.97999 0.88765 0.0
H402 H 0.77064 0.01654 0.81959 0.0
C403 C 0.83749 0.87489 0.871 0.0
C404 C 0.87963 0.94211 0.83163 0.0
C405 C 0.90226 0.69272 0.8725 0.0
C406 C 0.90556 0.59855 0.88382 0.0
C407 C 0.94223 0.65035 0.87515 0.0
C408 C 0.92788 0.69514 0.87046 0.0
C409 C 0.93123 0.60239 0.88168 0.0
C410 C 0.89114 0.64435 0.87922 0.0
C411 C 0.8871 0.73983 0.86674 0.0
H412 H 0.79262 0.15308 0.9293 0.0
H413 H 0.81904 0.07939 0.91618 0.0
H414 H 0.80608 0.24671 0.92558 0.0
H415 H 0.87409 0.19296 0.89557 0.0
H416 H 0.96196 0.65257 0.87337 0.0
H417 H 0.93684 0.73135 0.86484 0.0
H418 H 0.94289 0.56793 0.88453 0.0
H419 H 0.87136 0.64251 0.88082 0.0
C420 C 0.06639 0.19433 0.86043 0.0
C421 C 0.04982 0.22245 0.89706 0.0
C422 C 0.07003 0.20921 0.88306 0.0
C423 C 0.0259 0.21723 0.88826 0.0
C424 C 0.04256 0.19234 0.85102 0.0
C425 C 0.02228 0.20231 0.86525 0.0
N426 N 0.08636 0.18452 0.84725 0.0
C427 C 0.0841 0.17703 0.82409 0.0
C428 C 0.03995 0.18184 0.82746 0.0
C429 C 0.06085 0.17504 0.81387 0.0
Gd430 Gd 0.15431 0.04256 0.88313 0.0
Gd431 Gd 0.1247 0.18642 0.86551 0.0
N432 N 0.0934 0.21508 0.89074 0.0
C433 C 0.0543 0.24282 0.9191 0.0
C434 C 0.0978 0.23979 0.91132 0.0
C435 C 0.07842 0.25259 0.92606 0.0
H436 H 0.11627 0.2499 0.91647 0.0
H437 H 0.08208 0.27068 0.94264 0.0
H438 H 0.19122 0.0164 0.83897 0.0
H439 H 0.10027 0.17166 0.81367 0.0
H440 H 0.23568 0.01928 0.82998 0.0
H441 H 0.0393 0.25342 0.93042 0.0
H442 H 0.01013 0.22653 0.89885 0.0
H443 H 0.15107 0.04133 0.94127 0.0
H444 H 0.02196 0.1801 0.81954 0.0
H445 H 0.05907 0.16802 0.79556 0.0
H446 H 0.27331 0.07223 0.9013 0.0
H447 H 1.00379 0.20014 0.85845 0.0
H448 H 0.22179 0.08218 0.96792 0.0
H449 H 0.17781 0.06278 0.97424 0.0
N450 N 0.17871 0.05559 0.91623 0.0
C451 C 0.20317 0.06166 0.91259 0.0
C452 C 0.16986 0.05267 0.93815 0.0
C453 C 0.20994 0.07438 0.95331 0.0
C454 C 0.18512 0.06356 0.95695 0.0
C455 C 0.21942 0.0719 0.93098 0.0
H456 H 0.25738 0.08569 0.94049 0.0
N457 N 0.19612 0.04221 0.87348 0.0
C458 C 0.21222 0.05377 0.89061 0.0
C459 C 0.24604 0.04465 0.8641 0.0
C460 C 0.23762 0.05634 0.88629 0.0
C461 C 0.20424 0.02765 0.85215 0.0
C462 C 0.2293 0.02941 0.84705 0.0
O463 O 0.10289 0.11071 0.85851 0.0
O464 O 0.11318 0.05349 0.88802 0.0
O465 O 0.15058 0.96722 0.86483 0.0
O466 O 0.15803 0.96655 0.90115 0.0
O467 O 0.13754 0.17199 0.9024 0.0
O468 O 0.12967 0.08299 0.90917 0.0
O469 O 0.17622 0.11047 0.86664 0.0
O470 O 0.16028 0.1824 0.88487 0.0
O471 O 0.12024 0.27308 0.86365 0.0
O472 O 0.14371 0.23248 0.83946 0.0
O473 O 0.14103 0.04797 0.84681 0.0
O474 O 0.14087 0.13765 0.83562 0.0
C475 C 0.09702 0.07325 0.87337 0.0
C476 C 0.13056 0.13303 0.91617 0.0
C477 C 0.13424 0.89579 0.88602 0.0
C478 C 0.12252 0.80137 0.88391 0.0
C479 C 0.09215 0.86948 0.8933 0.0
C480 C 0.11001 0.90926 0.89159 0.0
C481 C 0.09829 0.81593 0.88945 0.0
C482 C 0.14046 0.84186 0.88228 0.0
C483 C 0.15287 0.93786 0.88313 0.0
C484 C 0.25374 0.06939 0.90432 0.0
C485 C 0.24466 0.0772 0.92662 0.0
H486 H 0.26543 0.04618 0.86009 0.0
C487 C 0.17917 0.15771 0.87612 0.0
C488 C 0.14235 0.08562 0.83107 0.0
C489 C 0.15559 0.32007 0.8511 0.0
C490 C 0.16665 0.41349 0.8591 0.0
C491 C 0.19844 0.34674 0.85251 0.0
C492 C 0.18063 0.30741 0.84928 0.0
C493 C 0.19158 0.39933 0.85734 0.0
C494 C 0.14873 0.37328 0.85597 0.0
C495 C 0.13652 0.27853 0.84751 0.0
H496 H 0.07347 0.88019 0.89759 0.0
H497 H 0.10488 0.95052 0.8945 0.0
H498 H 0.08412 0.78584 0.8911 0.0
H499 H 0.15914 0.83164 0.87764 0.0
H500 H 0.21767 0.33655 0.85102 0.0
H501 H 0.18652 0.2672 0.84519 0.0
H502 H 0.20587 0.42911 0.85921 0.0
H503 H 0.12944 0.38315 0.85746 0.0
C504 C 0.93931 0.21158 0.66863 0.0
C505 C 0.97317 0.21949 0.64183 0.0
C506 C 0.94801 0.21191 0.64625 0.0
C507 C 0.98956 0.22538 0.66034 0.0
C508 C 0.95559 0.21873 0.68725 0.0
C509 C 0.98079 0.22495 0.683 0.0
N510 N 0.91483 0.20596 0.67212 0.0
C511 C 0.90526 0.20978 0.69371 0.0
C512 C 0.94598 0.22029 0.70956 0.0
C513 C 0.92066 0.21631 0.71277 0.0
Gd514 Gd 0.8622 0.04947 0.61804 0.0
Gd515 Gd 0.89041 0.19233 0.63931 0.0
N516 N 0.93168 0.20517 0.62876 0.0
C517 C 0.98103 0.22143 0.61894 0.0
C518 C 0.93906 0.20975 0.60642 0.0
C519 C 0.96385 0.21715 0.60117 0.0
H520 H 0.92591 0.20774 0.59261 0.0
H521 H 0.96967 0.21986 0.58342 0.0
H522 H 0.84162 0.01488 0.67123 0.0
H523 H 0.88565 0.20909 0.69611 0.0
H524 H 0.8024 1.01139 0.69178 0.0
H525 H 1.00022 0.22719 0.61481 0.0
H526 H 0.00899 0.23089 0.6573 0.0
H527 H 0.84862 0.07636 0.56333 0.0
H528 H 0.95787 0.2257 0.72433 0.0
H529 H 0.91298 0.21886 0.72989 0.0
H530 H 0.74246 0.05312 0.63411 0.0
H531 H 0.9936 0.23022 0.69709 0.0
H532 H 0.77037 0.08659 0.55733 0.0
H533 H 0.81149 0.09079 0.53946 0.0
N534 N 0.82848 0.06536 0.59418 0.0
C535 C 0.80606 0.06134 0.60431 0.0
C536 C 0.83069 0.07492 0.57119 0.0
C537 C 0.78655 0.08025 0.56784 0.0
C538 C 0.80975 0.08282 0.55768 0.0
C539 C 0.78447 0.06936 0.5914 0.0
H540 H 0.7448 0.0728 0.59274 0.0
N541 N 0.82607 0.0433 0.63996 0.0
C542 C 0.80485 0.05069 0.62785 0.0
C543 C 0.78108 0.03433 0.66217 0.0
C544 C 0.78182 0.04712 0.63876 0.0
C545 C 0.82526 0.02708 0.66235 0.0
C546 C 0.80287 0.02352 0.67392 0.0
O547 O 0.91892 0.12769 0.63527 0.0
O548 O 0.90379 0.04742 0.62022 0.0
O549 O 0.85952 0.96538 0.62704 0.0
O550 O 0.86317 0.98823 0.59138 0.0
O551 O 0.88211 0.17979 0.60098 0.0
O552 O 0.88698 0.08942 0.59277 0.0
O553 O 0.84246 0.12961 0.61367 0.0
O554 O 0.85214 0.16712 0.64768 0.0
O555 O 0.87987 0.26257 0.61929 0.0
O556 O 0.88433 0.26879 0.65605 0.0
O557 O 0.87861 0.05205 0.65369 0.0
O558 O 0.87304 0.13886 0.66653 0.0
C559 C 0.92171 0.07825 0.62794 0.0
C560 C 0.88742 0.14006 0.58677 0.0
C561 C 0.84263 0.90652 0.59959 0.0
C562 C 0.83327 0.81093 0.59728 0.0
C563 C 0.80252 0.87709 0.58662 0.0
C564 C 0.81898 0.91837 0.59157 0.0
C565 C 0.80953 0.82369 0.58952 0.0
C566 C 0.84969 0.85285 0.60235 0.0
C567 C 0.86015 0.94899 0.60582 0.0
C568 C 0.76028 0.05554 0.62596 0.0
C569 C 0.7616 0.06659 0.60236 0.0
H570 H 0.76375 0.03115 0.67117 0.0
C571 C 0.83662 0.1611 0.63084 0.0
C572 C 0.87782 0.08771 0.67035 0.0
C573 C 0.89504 0.34441 0.63417 0.0
C574 C 0.89727 0.43973 0.62471 0.0
C575 C 0.9338 0.39173 0.63718 0.0
C576 C 0.92017 0.34494 0.63936 0.0
C577 C 0.92249 0.4388 0.62995 0.0
C578 C 0.88357 0.39203 0.6269 0.0
C579 C 0.88075 0.29468 0.63695 0.0
H580 H 0.78428 0.88651 0.58046 0.0
H581 H 0.81321 0.95928 0.58912 0.0
H582 H 0.79654 0.7924 0.5853 0.0
H583 H 0.86792 0.84379 0.60877 0.0
H584 H 0.95315 0.39164 0.64136 0.0
H585 H 0.92924 0.30943 0.64543 0.0
H586 H 0.93347 0.47483 0.62892 0.0
H587 H 0.86414 0.39185 0.62292 0.0
C588 C 0.07269 0.84181 0.65958 0.0
C589 C 0.04305 0.8212 0.62969 0.0
C590 C 0.06742 0.82982 0.63688 0.0
C591 C 0.02386 0.82776 0.64552 0.0
C592 C 0.05357 0.84581 0.6758 0.0
C593 C 0.0291 0.84021 0.66853 0.0
N594 N 0.09658 0.84568 0.66608 0.0
C595 C 0.10257 0.84799 0.68889 0.0
C596 C 0.05967 0.85314 0.69898 0.0
C597 C 0.0843 0.85321 0.70559 0.0
Gd598 Gd 0.15439 0.9855 0.61856 0.0
Gd599 Gd 0.12592 0.84045 0.63632 0.0
N600 N 0.08637 0.82446 0.62197 0.0
C601 C 0.0388 0.80519 0.60693 0.0
C602 C 0.08253 0.80635 0.60009 0.0
C603 C 0.05866 0.79702 0.59216 0.0
H604 H 0.09791 0.79988 0.58873 0.0
H605 H 0.0556 0.78361 0.57468 0.0
H606 H 0.16701 0.03496 0.67154 0.0
H607 H 0.12142 0.84494 0.69438 0.0
H608 H 0.20279 0.04572 0.69692 0.0
H609 H 0.02033 0.79804 0.60074 0.0
H610 H 1.00496 0.82206 0.64027 0.0
H611 H 0.17615 0.95927 0.56634 0.0
H612 H 0.04554 0.85644 0.71199 0.0
H613 H 0.08922 0.85632 0.72359 0.0
H614 H 0.27108 0.99986 0.64905 0.0
H615 H 0.01417 0.84371 0.6807 0.0
H616 H 0.2547 0.95675 0.57002 0.0
H617 H 0.21644 0.9477 0.54732 0.0
N618 N 0.1917 0.97365 0.5993 0.0
C619 C 0.21246 0.981 0.61189 0.0
C620 C 0.19283 0.96308 0.57628 0.0
C621 C 0.23712 0.96197 0.57839 0.0
C622 C 0.21556 0.95671 0.56552 0.0
C623 C 0.23577 0.97446 0.60185 0.0
H624 H 0.27497 0.97546 0.60815 0.0
N625 N 0.18738 1.00139 0.64394 0.0
C626 C 0.2102 0.99425 0.63498 0.0
C627 C 0.22855 0.01902 0.67133 0.0
C628 C 0.23138 1.00215 0.64854 0.0
C629 C 0.18471 0.02235 0.66547 0.0
C630 C 0.20512 0.03012 0.67969 0.0
O631 O 0.10139 0.90045 0.61824 0.0
O632 O 0.11461 0.98304 0.63046 0.0
O633 O 0.15672 0.07099 0.62417 0.0
O634 O 0.14768 0.04138 0.59034 0.0
O635 O 0.1397 0.85058 0.59937 0.0
O636 O 0.13475 0.94096 0.59041 0.0
O637 O 0.17631 0.90794 0.61506 0.0
O638 O 0.16391 0.86447 0.64706 0.0
O639 O 0.13893 0.76625 0.62057 0.0
O640 O 0.12605 0.76625 0.65556 0.0
O641 O 0.13583 0.97958 0.6531 0.0
O642 O 0.14275 0.89255 0.66461 0.0
C643 C 0.09692 0.9499 0.6245 0.0
C644 C 0.13608 0.89002 0.5845 0.0
C645 C 0.16749 0.12634 0.5933 0.0
C646 C 0.1749 0.22235 0.58889 0.0
C647 C 0.20535 0.15767 0.57611 0.0
C648 C 0.19036 0.11558 0.58332 0.0
C649 C 0.19779 0.21074 0.57897 0.0
C650 C 0.15981 0.17968 0.59592 0.0
C651 C 0.15214 0.08343 0.60293 0.0
C652 C 0.25467 0.9944 0.63878 0.0
C653 C 0.25687 0.98067 0.61549 0.0
H654 H 0.24436 0.02558 0.6823 0.0
C655 C 0.18071 0.87368 0.63164 0.0
C656 C 0.1379 0.94318 0.66929 0.0
C657 C 0.11793 0.68899 0.63362 0.0
C658 C 0.1147 0.59469 0.6224 0.0
C659 C 0.07829 0.64475 0.63365 0.0
C660 C 0.0925 0.69019 0.6374 0.0
C661 C 0.08923 0.59734 0.62631 0.0
C662 C 0.12899 0.64111 0.62611 0.0
C663 C 0.13293 0.73707 0.63822 0.0
H664 H 0.22301 0.14913 0.56846 0.0
H665 H 0.19677 0.07496 0.58138 0.0
H666 H 0.20974 0.24267 0.57326 0.0
H667 H 0.14236 0.18797 0.60409 0.0
H668 H 0.05873 0.64607 0.63675 0.0
H669 H 0.08361 0.72599 0.64361 0.0
H670 H 0.07773 0.56238 0.6242 0.0
H671 H 0.1486 0.64016 0.62316 0.0
C672 C 0.70077 0.5397 0.09088 0.0
C673 C 0.73439 0.53616 0.11835 0.0
C674 C 0.70903 0.53684 0.11355 0.0
C675 C 0.75127 0.53869 0.10017 0.0
C676 C 0.71769 0.54221 0.0726 0.0
C677 C 0.74295 0.54171 0.07738 0.0
N678 N 0.6762 0.54091 0.08676 0.0
C679 C 0.6673 0.54332 0.06485 0.0
C680 C 0.70868 0.54549 0.05006 0.0
C681 C 0.68338 0.54591 0.04618 0.0
Gd682 Gd 0.62271 0.67526 0.14395 0.0
Gd683 Gd 0.65088 0.53737 0.11917 0.0
N684 N 0.69221 0.5359 0.13087 0.0
C685 C 0.74202 0.53302 0.14131 0.0
C686 C 0.69957 0.53071 0.15319 0.0
C687 C 0.72453 0.52981 0.15877 0.0
H688 H 0.68638 0.52654 0.16678 0.0
H689 H 0.73027 0.52628 0.17654 0.0
H690 H 0.59916 0.72113 0.09326 0.0
H691 H 0.64778 0.54239 0.06174 0.0
H692 H 0.55893 0.72838 0.07458 0.0
H693 H 0.76135 0.53242 0.14572 0.0
H694 H 0.77082 0.53837 0.10356 0.0
H695 H 0.6118 0.65705 0.19974 0.0
H696 H 0.72109 0.54754 0.03556 0.0
H697 H 0.67626 0.548 0.02881 0.0
H698 H 0.50185 0.6864 0.13446 0.0
H699 H 0.75622 0.5437 0.06356 0.0
H700 H 0.53404 0.65336 0.20993 0.0
H701 H 0.57617 0.64691 0.22563 0.0
N702 N 0.59001 0.66827 0.16984 0.0
C703 C 0.56706 0.6731 0.16092 0.0
C704 C 0.59348 0.65956 0.19278 0.0
C705 C 0.5496 0.65785 0.19853 0.0
C706 C 0.57336 0.65408 0.20745 0.0
C707 C 0.5462 0.66764 0.17502 0.0
H708 H 0.50646 0.66719 0.17574 0.0
N709 N 0.5851 0.68884 0.12449 0.0
C710 C 0.56453 0.68304 0.13753 0.0
C711 C 0.53901 0.70342 0.10465 0.0
C712 C 0.54094 0.68913 0.12784 0.0
C713 C 0.58319 0.70835 0.10261 0.0
C714 C 0.56024 0.71429 0.09215 0.0
O715 O 0.67377 0.6139 0.11673 0.0
O716 O 0.66272 0.65874 0.14926 0.0
O717 O 0.63089 0.75635 0.13273 0.0
O718 O 0.62329 0.74087 0.1685 0.0
O719 O 0.64194 0.53937 0.15713 0.0
O720 O 0.64432 0.62719 0.17028 0.0
O721 O 0.60139 0.5982 0.14864 0.0
O722 O 0.60958 0.54891 0.11625 0.0
O723 O 0.64877 0.45859 0.13487 0.0
O724 O 0.64859 0.46607 0.09784 0.0
O725 O 0.63363 0.66966 0.10595 0.0
O726 O 0.62501 0.58226 0.09636 0.0
C727 C 0.67814 0.65049 0.13247 0.0
C728 C 0.64399 0.57483 0.17382 0.0
C729 C 0.611 0.82473 0.15346 0.0
C730 C 0.6056 0.92119 0.14816 0.0
C731 C 0.57094 0.86511 0.15885 0.0
C732 C 0.58601 0.82 0.15879 0.0
C733 C 0.5806 0.91535 0.1536 0.0
C734 C 0.62072 0.87536 0.14815 0.0
C735 C 0.62702 0.77722 0.15291 0.0
C736 C 0.52009 0.68243 0.1417 0.0
C737 C 0.52271 0.67176 0.16523 0.0
H738 H 0.52124 0.70853 0.09656 0.0
C739 C 0.59446 0.56476 0.13253 0.0
C740 C 0.62778 0.63266 0.09069 0.0
C741 C 0.66556 0.38695 0.11362 0.0
C742 C 0.67203 0.2904 0.1172 0.0
C743 C 0.70573 0.34893 0.10627 0.0
C744 C 0.69024 0.39328 0.10748 0.0
C745 C 0.69675 0.29783 0.11108 0.0
C746 C 0.65653 0.33551 0.11845 0.0
C747 C 0.649 0.43338 0.11525 0.0
H748 H 0.5517 0.86114 0.16306 0.0
H749 H 0.57813 0.78159 0.16298 0.0
H750 H 0.56853 0.94975 0.15413 0.0
H751 H 0.63995 0.87881 0.14372 0.0
H752 H 0.72475 0.35414 0.10146 0.0
H753 H 0.69753 0.43231 0.10357 0.0
H754 H 0.7091 0.26403 0.10965 0.0
H755 H 0.6375 0.33079 0.12343 0.0
C756 C 0.30959 0.47897 0.08903 0.0
C757 C 0.27648 0.48007 0.11694 0.0
C758 C 0.30175 0.48092 0.11182 0.0
C759 C 0.25928 0.47726 0.09896 0.0
C760 C 0.29235 0.47595 0.07096 0.0
C761 C 0.26719 0.47522 0.07606 0.0
N762 N 0.33408 0.47848 0.08459 0.0
C763 C 0.34258 0.47675 0.06257 0.0
C764 C 0.30095 0.47331 0.0483 0.0
C765 C 0.32618 0.47387 0.04409 0.0
Gd766 Gd 0.38931 0.34587 0.14071 0.0
Gd767 Gd 0.35994 0.48268 0.11669 0.0
N768 N 0.31886 0.48187 0.12896 0.0
C769 C 0.26924 0.48188 0.14001 0.0
C770 C 0.31186 0.48589 0.1514 0.0
C771 C 0.28701 0.48526 0.15729 0.0
H772 H 0.32522 0.49039 0.16487 0.0
H773 H 0.28156 0.4878 0.17515 0.0
H774 H 0.41939 0.32082 0.09045 0.0
H775 H 0.36203 0.47856 0.05923 0.0
H776 H 0.46154 0.32277 0.076 0.0
H777 H 0.25001 0.48129 0.14466 0.0
H778 H 0.23979 0.47652 0.10259 0.0
H779 H 0.39361 0.35062 0.19791 0.0
H780 H 0.28829 0.47096 0.03394 0.0
H781 H 0.33298 0.47232 0.02663 0.0
H782 H 0.51065 0.34734 0.14365 0.0
H783 H 0.25368 0.47287 0.06239 0.0
H784 H 0.46959 0.3579 0.21633 0.0
H785 H 0.42587 0.35744 0.22769 0.0
N786 N 0.41875 0.34863 0.17013 0.0
C787 C 0.44264 0.34738 0.16354 0.0
C788 C 0.4126 0.3516 0.19282 0.0
C789 C 0.4555 0.35501 0.20322 0.0
C790 C 0.43084 0.35495 0.2097 0.0
C791 C 0.46168 0.35111 0.17992 0.0
H792 H 0.50106 0.35455 0.18486 0.0
N793 N 0.42914 0.34109 0.12484 0.0
C794 C 0.448 0.34383 0.14023 0.0
C795 C 0.47744 0.33724 0.10935 0.0
C796 C 0.47263 0.34306 0.13283 0.0
C797 C 0.43389 0.33062 0.10223 0.0
C798 C 0.45798 0.32993 0.09405 0.0
O799 O 0.33824 0.40486 0.11311 0.0
O800 O 0.34886 0.35918 0.14568 0.0
O801 O 0.3868 0.26608 0.12599 0.0
O802 O 0.38773 0.27585 0.16284 0.0
O803 O 0.36985 0.47996 0.15441 0.0
O804 O 0.3666 0.392 0.16681 0.0
O805 O 0.41073 0.42276 0.14573 0.0
O806 O 0.40133 0.47365 0.11404 0.0
O807 O 0.35878 0.56163 0.13232 0.0
O808 O 0.36148 0.55397 0.0954 0.0
O809 O 0.37902 0.35182 0.10248 0.0
O810 O 0.38627 0.44023 0.09368 0.0
C811 C 0.33338 0.36907 0.129 0.0
C812 C 0.36759 0.44408 0.17086 0.0
C813 C 0.36559 0.20223 0.14803 0.0
C814 C 0.35212 0.10917 0.1449 0.0
C815 C 0.32318 0.17905 0.15563 0.0
C816 C 0.34179 0.21728 0.15435 0.0
C817 C 0.32824 0.12534 0.15092 0.0
C818 C 0.3707 0.14824 0.14335 0.0
C819 C 0.38518 0.24242 0.14586 0.0
C820 C 0.49165 0.34742 0.14907 0.0
C821 C 0.48619 0.35139 0.17254 0.0
H822 H 0.4961 0.33651 0.10296 0.0
C823 C 0.41671 0.45863 0.13029 0.0
C824 C 0.38386 0.39007 0.08749 0.0
C825 C 0.38115 0.62779 0.11271 0.0
C826 C 0.39328 0.7213 0.11761 0.0
C827 C 0.42387 0.65324 0.10886 0.0
C828 C 0.40568 0.61402 0.1085 0.0
C829 C 0.41778 0.7065 0.11336 0.0
C830 C 0.37502 0.68135 0.11726 0.0
C831 C 0.36191 0.58653 0.11287 0.0
H832 H 0.30481 0.19101 0.16045 0.0
H833 H 0.33771 0.2585 0.15837 0.0
H834 H 0.31357 0.09635 0.15246 0.0
H835 H 0.3891 0.13683 0.13829 0.0
H836 H 0.44276 0.64233 0.10557 0.0
H837 H 0.41077 0.57307 0.10489 0.0
H838 H 0.43223 0.7362 0.11317 0.0
H839 H 0.3561 0.69166 0.12085 0.0
C840 C 0.70192 0.47132 0.41871 0.0
C841 C 0.73692 0.47894 0.39315 0.0
C842 C 0.71138 0.47885 0.39683 0.0
C843 C 0.75282 0.46873 0.41168 0.0
C844 C 0.71789 0.46402 0.43757 0.0
C845 C 0.74332 0.46121 0.43384 0.0
N846 N 0.67726 0.47521 0.42177 0.0
C847 C 0.66781 0.47884 0.44346 0.0
C848 C 0.7079 0.46207 0.45971 0.0
C849 C 0.68281 0.47069 0.46269 0.0
Gd850 Gd 0.62575 0.3378 0.37111 0.0
Gd851 Gd 0.65364 0.48368 0.38792 0.0
N852 N 0.69554 0.48786 0.37921 0.0
C853 C 0.74567 0.49062 0.37107 0.0
C854 C 0.70389 0.50244 0.35799 0.0
C855 C 0.72909 0.50329 0.35351 0.0
H856 H 0.69099 0.51186 0.34444 0.0
H857 H 0.7357 0.51349 0.33652 0.0
H858 H 0.61023 0.2861 0.42312 0.0
H859 H 0.64876 0.4887 0.44606 0.0
H860 H 0.57284 0.27329 0.44609 0.0
H861 H 0.76518 0.49118 0.36755 0.0
H862 H 0.7725 0.46797 0.40916 0.0
H863 H 0.60762 0.34885 0.31675 0.0
H864 H 0.71953 0.45648 0.47466 0.0
H865 H 0.67506 0.47199 0.47982 0.0
H866 H 0.50737 0.31327 0.39353 0.0
H867 H 0.75585 0.455 0.44808 0.0
H868 H 0.52903 0.34747 0.31495 0.0
H869 H 0.56881 0.3544 0.29467 0.0
N870 N 0.58985 0.34012 0.34895 0.0
C871 C 0.56832 0.33353 0.36024 0.0
C872 C 0.59032 0.3459 0.32562 0.0
C873 C 0.54599 0.34492 0.32464 0.0
C874 C 0.5684 0.3489 0.31313 0.0
C875 C 0.54574 0.33656 0.34847 0.0
H876 H 0.50621 0.33346 0.3521 0.0
N877 N 0.59126 0.31701 0.39393 0.0
C878 C 0.56904 0.32252 0.38355 0.0
C879 C 0.54855 0.29779 0.41878 0.0
C880 C 0.54707 0.31374 0.39575 0.0
C881 C 0.59273 0.29662 0.41569 0.0
C882 C 0.57149 0.2881 0.42864 0.0
O883 O 0.67754 0.41711 0.37291 0.0
O884 O 0.66079 0.34616 0.39107 0.0
O885 O 0.62089 0.2516 0.37372 0.0
O886 O 0.64569 0.28424 0.34838 0.0
O887 O 0.64309 0.47305 0.35093 0.0
O888 O 0.64427 0.38232 0.34128 0.0
O889 O 0.60467 0.41366 0.36257 0.0
O890 O 0.61284 0.47003 0.39279 0.0
O891 O 0.64491 0.5568 0.36922 0.0
O892 O 0.65886 0.56155 0.40379 0.0
O893 O 0.63732 0.35359 0.40823 0.0
O894 O 0.6293 0.44306 0.41423 0.0
C895 C 0.67986 0.36932 0.38196 0.0
C896 C 0.64548 0.43394 0.33588 0.0
C897 C 0.62863 0.19787 0.34091 0.0
C898 C 0.62295 0.10205 0.33415 0.0
C899 C 0.62001 0.16501 0.30241 0.0
C900 C 0.62465 0.20761 0.31741 0.0
C901 C 0.61941 0.11246 0.31066 0.0
C902 C 0.62739 0.14501 0.34923 0.0
C903 C 0.63575 0.24115 0.35687 0.0
C904 C 0.52444 0.31921 0.38438 0.0
C905 C 0.52377 0.33054 0.36076 0.0
H906 H 0.53211 0.29063 0.42876 0.0
C907 C 0.59757 0.45004 0.37746 0.0
C908 C 0.63049 0.39337 0.42166 0.0
C909 C 0.63091 0.62825 0.39223 0.0
C910 C 0.61536 0.72027 0.38951 0.0
C911 C 0.59418 0.65363 0.41291 0.0
C912 C 0.61138 0.61494 0.40678 0.0
C913 C 0.59623 0.70586 0.4046 0.0
C914 C 0.63269 0.68056 0.3834 0.0
C915 C 0.6497 0.58797 0.38655 0.0
H916 H 0.61711 0.1727 0.28429 0.0
H917 H 0.62546 0.24789 0.31059 0.0
H918 H 0.61596 0.07996 0.29874 0.0
H919 H 0.63056 0.13711 0.36734 0.0
H920 H 0.57931 0.64327 0.42438 0.0
H921 H 0.60961 0.57478 0.4136 0.0
H922 H 0.58292 0.73501 0.41038 0.0
H923 H 0.64751 0.68987 0.3717 0.0
C924 C 0.3153 0.55168 0.41341 0.0
C925 C 0.28129 0.54194 0.38671 0.0
C926 C 0.30667 0.54282 0.39131 0.0
C927 C 0.26468 0.55254 0.40456 0.0
C928 C 0.29863 0.55969 0.43161 0.0
C929 C 0.27333 0.56149 0.42697 0.0
N930 N 0.33986 0.54876 0.41736 0.0
C931 C 0.34858 0.54734 0.43939 0.0
C932 C 0.30782 0.56352 0.45405 0.0
C933 C 0.33287 0.55623 0.45799 0.0
Gd934 Gd 0.39368 0.68239 0.36664 0.0
Gd935 Gd 0.36482 0.53792 0.38457 0.0
N936 N 0.32322 0.53344 0.37434 0.0
C937 C 0.27341 0.5292 0.36441 0.0
C938 C 0.3157 0.51799 0.35292 0.0
C939 C 0.29069 0.51637 0.34754 0.0
H940 H 0.32912 0.50817 0.33994 0.0
H941 H 0.28476 0.50533 0.3304 0.0
H942 H 0.40957 0.73489 0.4184 0.0
H943 H 0.3676 0.53845 0.44279 0.0
H944 H 0.44707 0.74973 0.44106 0.0
H945 H 0.25405 0.52801 0.36019 0.0
H946 H 0.24509 0.55264 0.40134 0.0
H947 H 0.41179 0.66145 0.31285 0.0
H948 H 0.29563 0.5697 0.46851 0.0
H949 H 0.34003 0.55652 0.47537 0.0
H950 H 0.5123 0.70856 0.38868 0.0
H951 H 0.26027 0.56814 0.4407 0.0
H952 H 0.49034 0.6649 0.31094 0.0
H953 H 0.45053 0.65358 0.29096 0.0
N954 N 0.42964 0.67605 0.34472 0.0
C955 C 0.45121 0.68455 0.35581 0.0
C956 C 0.42911 0.66625 0.32162 0.0
C957 C 0.47342 0.66848 0.32056 0.0
C958 C 0.45098 0.66197 0.30922 0.0
C959 C 0.47374 0.68024 0.34411 0.0
H960 H 0.51328 0.68435 0.34764 0.0
N961 N 0.42841 0.70357 0.38926 0.0
C962 C 0.45058 0.69782 0.3789 0.0
C963 C 0.47124 0.72485 0.41383 0.0
C964 C 0.47261 0.70768 0.39096 0.0
C965 C 0.42703 0.72455 0.41094 0.0
C966 C 0.44834 0.73424 0.42371 0.0
O967 O 0.34095 0.60405 0.36909 0.0
O968 O 0.35812 0.6767 0.38589 0.0
O969 O 0.39614 0.76824 0.37095 0.0
O970 O 0.37842 0.7362 0.34071 0.0
O971 O 0.37761 0.54704 0.3481 0.0
O972 O 0.37367 0.63677 0.33797 0.0
O973 O 0.415 0.60598 0.35997 0.0
O974 O 0.40567 0.55085 0.39025 0.0
O975 O 0.37108 0.46248 0.36661 0.0
O976 O 0.36308 0.46243 0.40288 0.0
O977 O 0.38133 0.66954 0.40368 0.0
O978 O 0.3886 0.58023 0.41087 0.0
C979 C 0.33892 0.65265 0.37738 0.0
C980 C 0.3735 0.58495 0.33284 0.0
C981 C 0.39608 0.82355 0.33842 0.0
C982 C 0.39988 0.92047 0.33304 0.0
C983 C 0.42561 0.85874 0.3113 0.0
C984 C 0.41459 0.81512 0.32216 0.0
C985 C 0.41847 0.91101 0.31674 0.0
C986 C 0.38864 0.87601 0.34359 0.0
C987 C 0.38533 0.7792 0.35163 0.0
C988 C 0.49519 0.70165 0.37963 0.0
C989 C 0.49576 0.68803 0.35625 0.0
H990 H 0.48773 0.73285 0.42369 0.0
C991 C 0.42158 0.57082 0.37555 0.0
C992 C 0.3875 0.63037 0.41771 0.0
C993 C 0.34974 0.38773 0.38145 0.0
C994 C 0.34358 0.29273 0.37323 0.0
C995 C 0.309 0.34902 0.38386 0.0
C996 C 0.32455 0.39309 0.38587 0.0
C997 C 0.31842 0.29907 0.37773 0.0
C998 C 0.35915 0.33758 0.37488 0.0
C999 C 0.36651 0.43337 0.38462 0.0
H1000 H 0.44004 0.85206 0.29886 0.0
H1001 H 0.42072 0.77512 0.31808 0.0
H1002 H 0.42791 0.9439 0.3085 0.0
H1003 H 0.37409 0.88193 0.35602 0.0
H1004 H 0.2896 0.35346 0.38732 0.0
H1005 H 0.31695 0.43105 0.39121 0.0
H1006 H 0.30601 0.26536 0.37641 0.0
H1007 H 0.37864 0.33313 0.37176 0.0
C1008 C 0.44131 0.32274 0.8353 0.0
C1009 C 0.47448 0.30283 0.86187 0.0
C1010 C 0.44952 0.31376 0.85752 0.0
C1011 C 0.49135 0.30471 0.84368 0.0
C1012 C 0.45803 0.32192 0.81681 0.0
C1013 C 0.48316 0.3145 0.8212 0.0
N1014 N 0.4168 0.32791 0.8316 0.0
C1015 C 0.4077 0.3271 0.80967 0.0
C1016 C 0.44886 0.32617 0.79438 0.0
C1017 C 0.42355 0.32779 0.79079 0.0
Gd1018 Gd 0.36468 0.47538 0.88158 0.0
Gd1019 Gd 0.39203 0.33009 0.86483 0.0
N1020 N 0.43283 0.31287 0.87478 0.0
C1021 C 0.48155 0.28881 0.88427 0.0
C1022 C 0.43929 0.29667 0.89639 0.0
C1023 C 0.4638 0.28492 0.90152 0.0
H1024 H 0.42551 0.29356 0.90966 0.0
H1025 H 0.46899 0.27305 0.91876 0.0
H1026 H 0.35255 0.52515 0.82837 0.0
H1027 H 0.38817 0.32559 0.80657 0.0
H1028 H 0.31706 0.53375 0.80245 0.0
H1029 H 0.50053 0.27989 0.88829 0.0
H1030 H 0.51067 0.29723 0.84672 0.0
H1031 H 0.34221 0.45402 0.93384 0.0
H1032 H 0.46109 0.32583 0.77971 0.0
H1033 H 0.41622 0.32865 0.77348 0.0
H1034 H 0.24841 0.48341 0.84914 0.0
H1035 H 0.49629 0.31428 0.80723 0.0
H1036 H 0.26376 0.44621 0.92884 0.0
H1037 H 0.30162 0.44205 0.95239 0.0
N1038 N 0.32713 0.4641 0.90042 0.0
C1039 C 0.30657 0.46944 0.88738 0.0
C1040 C 0.32566 0.45617 0.92361 0.0
C1041 C 0.28144 0.45184 0.92072 0.0
C1042 C 0.30278 0.4494 0.93407 0.0
C1043 C 0.28313 0.46236 0.8971 0.0
H1044 H 0.24407 0.46049 0.89009 0.0
N1045 N 0.33202 0.49046 0.85569 0.0
C1046 C 0.30912 0.48192 0.86424 0.0
C1047 C 0.29118 0.50522 0.82755 0.0
C1048 C 0.28811 0.48828 0.8503 0.0
C1049 C 0.33483 0.5118 0.83424 0.0
C1050 C 0.3146 0.51811 0.81965 0.0
O1051 O 0.41861 0.39126 0.87989 0.0
O1052 O 0.40396 0.47387 0.86852 0.0
O1053 O 0.35816 0.56097 0.87831 0.0
O1054 O 0.37384 0.52928 0.90957 0.0
O1055 O 0.38245 0.34319 0.90272 0.0
O1056 O 0.38575 0.4347 0.90975 0.0
O1057 O 0.34428 0.3968 0.88745 0.0
O1058 O 0.35327 0.35081 0.85503 0.0
O1059 O 0.37727 0.26197 0.88339 0.0
O1060 O 0.39431 0.25003 0.85031 0.0
O1061 O 0.38254 0.4679 0.84678 0.0
O1062 O 0.37337 0.38086 0.83723 0.0
C1063 C 0.42218 0.44182 0.87437 0.0
C1064 C 0.3857 0.38453 0.91664 0.0
C1065 C 0.3874 0.61455 0.89728 0.0
C1066 C 0.39812 0.70876 0.89172 0.0
C1067 C 0.42994 0.64267 0.8995 0.0
C1068 C 0.41232 0.60232 0.90049 0.0
C1069 C 0.42296 0.6955 0.89522 0.0
C1070 C 0.38042 0.66773 0.89286 0.0
C1071 C 0.3686 0.57217 0.89784 0.0
C1072 C 0.26473 0.47926 0.85967 0.0
C1073 C 0.26224 0.46639 0.88302 0.0
H1074 H 0.27552 0.5106 0.81627 0.0
C1075 C 0.33751 0.36408 0.87095 0.0
C1076 C 0.37984 0.42979 0.83143 0.0
C1077 C 0.36462 0.18682 0.86185 0.0
C1078 C 0.35215 0.09295 0.86206 0.0
C1079 C 0.32455 0.16151 0.84736 0.0
C1080 C 0.34222 0.20074 0.85173 0.0
C1081 C 0.3294 0.10788 0.85256 0.0
C1082 C 0.36959 0.13301 0.86687 0.0
C1083 C 0.38306 0.22762 0.86747 0.0
H1084 H 0.44911 0.63296 0.90206 0.0
H1085 H 0.4182 0.56159 0.9037 0.0
H1086 H 0.43705 0.72601 0.89487 0.0
H1087 H 0.36123 0.6768 0.88988 0.0
H1088 H 0.30716 0.1726 0.83971 0.0
H1089 H 0.33859 0.24181 0.84717 0.0
H1090 H 0.31563 0.07802 0.8486 0.0
H1091 H 0.38701 0.12241 0.87466 0.0
C1092 C 0.57461 0.71783 0.83888 0.0
C1093 C 0.54146 0.73604 0.86553 0.0
C1094 C 0.56634 0.72452 0.86119 0.0
C1095 C 0.52471 0.73716 0.84715 0.0
C1096 C 0.55808 0.72172 0.82025 0.0
C1097 C 0.53299 0.72978 0.82455 0.0
N1098 N 0.59908 0.71203 0.83533 0.0
C1099 C 0.60841 0.71514 0.8136 0.0
C1100 C 0.56742 0.71986 0.79786 0.0
C1101 C 0.59276 0.71757 0.79453 0.0
Gd1102 Gd 0.65167 0.56134 0.88683 0.0
Gd1103 Gd 0.62368 0.70469 0.86854 0.0
N1104 N 0.58294 0.72265 0.87859 0.0
C1105 C 0.53433 0.74751 0.88815 0.0
C1106 C 0.57643 0.73646 0.90047 0.0
C1107 C 0.55198 0.74848 0.90564 0.0
H1108 H 0.5901 0.73759 0.91394 0.0
H1109 H 0.54676 0.75843 0.92308 0.0
H1110 H 0.66813 0.51368 0.83437 0.0
H1111 H 0.62796 0.71677 0.81092 0.0
H1112 H 0.7055 0.50688 0.81096 0.0
H1113 H 0.51541 0.75674 0.89219 0.0
H1114 H 0.50544 0.74514 0.85016 0.0
H1115 H 0.6699 0.59004 0.94008 0.0
H1116 H 0.55534 0.72265 0.78308 0.0
H1117 H 0.60026 0.71874 0.77732 0.0
H1118 H 0.76996 0.56022 0.86235 0.0
H1119 H 0.51999 0.73234 0.81047 0.0
H1120 H 0.74834 0.60246 0.94021 0.0
H1121 H 0.7088 0.60694 0.961 0.0
N1122 N 0.68748 0.57736 0.90799 0.0
C1123 C 0.70902 0.57197 0.89647 0.0
C1124 C 0.68714 0.5881 0.931 0.0
C1125 C 0.73138 0.59478 0.93103 0.0
C1126 C 0.70909 0.59751 0.94283 0.0
C1127 C 0.73157 0.5816 0.9076 0.0
H1128 H 0.77099 0.58558 0.90324 0.0
N1129 N 0.68622 0.54835 0.86318 0.0
C1130 C 0.70833 0.55806 0.87331 0.0
C1131 C 0.72917 0.53587 0.83793 0.0
C1132 C 0.73037 0.55284 0.86084 0.0
C1133 C 0.68519 0.52769 0.84146 0.0
C1134 C 0.70652 0.52233 0.82834 0.0
O1135 O 0.59677 0.64304 0.88239 0.0
O1136 O 0.61262 0.56007 0.87287 0.0
O1137 O 0.65941 0.47627 0.88339 0.0
O1138 O 0.64327 0.50658 0.91467 0.0
O1139 O 0.6327 0.69166 0.90661 0.0
O1140 O 0.62854 0.60067 0.91371 0.0
O1141 O 0.67107 0.64151 0.89131 0.0
O1142 O 0.66209 0.68358 0.85804 0.0
O1143 O 0.63985 0.77047 0.88766 0.0
O1144 O 0.62191 0.78595 0.85518 0.0
O1145 O 0.63506 0.56555 0.85141 0.0
O1146 O 0.64077 0.65336 0.84009 0.0
C1147 C 0.5939 0.59199 0.87731 0.0
C1148 C 0.62849 0.65082 0.92049 0.0
C1149 C 0.63075 0.42077 0.90195 0.0
C1150 C 0.62102 0.32612 0.89592 0.0
C1151 C 0.58847 0.39064 0.90341 0.0
C1152 C 0.60568 0.43178 0.90479 0.0
C1153 C 0.59602 0.33822 0.89908 0.0
C1154 C 0.63832 0.36795 0.89749 0.0
C1155 C 0.64907 0.46417 0.90283 0.0
C1156 C 0.75287 0.56361 0.87173 0.0
C1157 C 0.75347 0.5779 0.89504 0.0
H1158 H 0.74568 0.53135 0.82776 0.0
C1159 C 0.67808 0.67099 0.87387 0.0
C1160 C 0.63677 0.60235 0.83533 0.0
C1161 C 0.65271 0.8467 0.86694 0.0
C1162 C 0.66512 0.94066 0.86648 0.0
C1163 C 0.69358 0.87106 0.85438 0.0
C1164 C 0.67576 0.83204 0.85844 0.0
C1165 C 0.68837 0.92507 0.85842 0.0
C1166 C 0.64743 0.9009 0.87083 0.0
C1167 C 0.63401 0.80633 0.87237 0.0
H1168 H 0.56918 0.39942 0.90568 0.0
H1169 H 0.59935 0.4722 0.90799 0.0
H1170 H 0.58223 0.30708 0.89842 0.0
H1171 H 0.65763 0.35979 0.89479 0.0
H1172 H 0.71143 0.85946 0.84795 0.0
H1173 H 0.67986 0.79059 0.85497 0.0
H1174 H 0.70232 0.95467 0.85479 0.0
H1175 H 0.62959 0.91201 0.87753 0.0
C1176 C 0.43945 0.68538 0.66912 0.0
C1177 C 0.47269 0.69909 0.64208 0.0
C1178 C 0.44747 0.69386 0.64685 0.0
C1179 C 0.48983 0.69221 0.6599 0.0
C1180 C 0.45653 0.68174 0.6873 0.0
C1181 C 0.48177 0.68345 0.68248 0.0
N1182 N 0.41492 0.68514 0.6732 0.0
C1183 C 0.40636 0.68738 0.69526 0.0
C1184 C 0.44771 0.67886 0.70986 0.0
C1185 C 0.42254 0.68285 0.71387 0.0
Gd1186 Gd 0.36255 0.54065 0.62337 0.0
Gd1187 Gd 0.38938 0.68677 0.64039 0.0
N1188 N 0.43046 0.69976 0.62999 0.0
C1189 C 0.47981 0.71267 0.61969 0.0
C1190 C 0.4371 0.71629 0.60849 0.0
C1191 C 0.46191 0.72228 0.60293 0.0
H1192 H 0.42321 0.7233 0.59554 0.0
H1193 H 0.4672 0.73397 0.58572 0.0
H1194 H 0.35512 0.48082 0.6752 0.0
H1195 H 0.38701 0.69235 0.69862 0.0
H1196 H 0.32166 0.46413 0.70265 0.0
H1197 H 0.49901 0.71714 0.61533 0.0
H1198 H 0.50932 0.69522 0.65654 0.0
H1199 H 0.33601 0.5637 0.5728 0.0
H1200 H 0.46022 0.67595 0.72432 0.0
H1201 H 0.41558 0.68296 0.7313 0.0
H1202 H 0.24905 0.51769 0.66192 0.0
H1203 H 0.49517 0.68 0.69619 0.0
H1204 H 0.25807 0.56764 0.58271 0.0
H1205 H 0.29404 0.57577 0.55701 0.0
N1206 N 0.32355 0.55024 0.60689 0.0
C1207 C 0.30407 0.54249 0.621 0.0
C1208 C 0.32027 0.55983 0.58396 0.0
C1209 C 0.27636 0.56219 0.58964 0.0
C1210 C 0.29662 0.56676 0.57506 0.0
C1211 C 0.27991 0.54913 0.61285 0.0
H1212 H 0.24143 0.54685 0.6221 0.0
N1213 N 0.33201 0.51794 0.65029 0.0
C1214 C 0.30846 0.52658 0.64347 0.0
C1215 C 0.2936 0.49516 0.68018 0.0
C1216 C 0.28863 0.51612 0.65834 0.0
C1217 C 0.33673 0.49311 0.67075 0.0
C1218 C 0.31772 0.48255 0.6862 0.0
O1219 O 0.4139 0.62585 0.62283 0.0
O1220 O 0.40169 0.54432 0.63686 0.0
O1221 O 0.35757 0.45337 0.62384 0.0
O1222 O 0.37477 0.49293 0.5945 0.0
O1223 O 0.37901 0.67628 0.60248 0.0
O1224 O 0.3807 0.58475 0.59446 0.0
O1225 O 0.34122 0.6185 0.61807 0.0
O1226 O 0.35105 0.66405 0.65044 0.0
O1227 O 0.37321 0.75585 0.62343 0.0
O1228 O 0.39356 0.76637 0.65494 0.0
O1229 O 0.38082 0.54902 0.65809 0.0
O1230 O 0.37125 0.63573 0.66822 0.0
C1231 C 0.41901 0.57735 0.62999 0.0
C1232 C 0.38111 0.63534 0.58812 0.0
C1233 C 0.37094 0.39634 0.5918 0.0
C1234 C 0.37168 0.29845 0.59192 0.0
C1235 C 0.38394 0.3475 0.55775 0.0
C1236 C 0.37941 0.3958 0.56897 0.0
C1237 C 0.38029 0.29915 0.56916 0.0
C1238 C 0.36673 0.34731 0.60314 0.0
C1239 C 0.36772 0.44817 0.60373 0.0
C1240 C 0.2645 0.52495 0.65065 0.0
C1241 C 0.26015 0.54143 0.62795 0.0
H1242 H 0.27888 0.48653 0.69211 0.0
C1243 C 0.33508 0.65195 0.6345 0.0
C1244 C 0.37742 0.58632 0.6737 0.0
C1245 C 0.3624 0.82911 0.64692 0.0
C1246 C 0.34863 0.9223 0.64814 0.0
C1247 C 0.3255 0.85252 0.66779 0.0
C1248 C 0.34245 0.81409 0.6606 0.0
C1249 C 0.32853 0.90625 0.66168 0.0
C1250 C 0.36537 0.88295 0.64067 0.0
C1251 C 0.38046 0.78947 0.63911 0.0
H1252 H 0.39051 0.34757 0.54019 0.0
H1253 H 0.38274 0.43278 0.55978 0.0
H1254 H 0.38404 0.26211 0.56013 0.0
H1255 H 0.36038 0.34707 0.6208 0.0
H1256 H 0.31008 0.84072 0.67832 0.0
H1257 H 0.34013 0.77283 0.66578 0.0
H1258 H 0.31539 0.93527 0.66794 0.0
H1259 H 0.38071 0.89397 0.62983 0.0
C1260 C 0.57832 0.33412 0.67634 0.0
C1261 C 0.54308 0.33233 0.65079 0.0
C1262 C 0.56862 0.33622 0.65428 0.0
C1263 C 0.52744 0.32747 0.66984 0.0
C1264 C 0.56272 0.32831 0.69549 0.0
C1265 C 0.53723 0.32549 0.69213 0.0
N1266 N 0.60304 0.33681 0.67903 0.0
C1267 C 0.61343 0.3321 0.70028 0.0
C1268 C 0.57324 0.32505 0.71744 0.0
C1269 C 0.59873 0.32656 0.71982 0.0
Gd1270 Gd 0.65381 0.48793 0.62113 0.0
Gd1271 Gd 0.62627 0.34941 0.64554 0.0
N1272 N 0.58427 0.3419 0.63622 0.0
C1273 C 0.53405 0.33314 0.62825 0.0
C1274 C 0.57562 0.33992 0.61419 0.0
C1275 C 0.55043 0.33633 0.60988 0.0
H1276 H 0.58795 0.34053 0.59982 0.0
H1277 H 0.54367 0.33562 0.59236 0.0
H1278 H 0.68152 0.51549 0.67223 0.0
H1279 H 0.63313 0.33133 0.70203 0.0
H1280 H 0.72321 0.5163 0.6882 0.0
H1281 H 0.51455 0.33035 0.62484 0.0
H1282 H 0.50775 0.32479 0.6675 0.0
H1283 H 0.65993 0.4665 0.56477 0.0
H1284 H 0.56189 0.32056 0.73259 0.0
H1285 H 0.60707 0.32305 0.73666 0.0
H1286 H 0.77479 0.47958 0.62341 0.0
H1287 H 0.52495 0.32127 0.70665 0.0
H1288 H 0.73664 0.45372 0.54987 0.0
H1289 H 0.69343 0.45234 0.53675 0.0
N1290 N 0.68403 0.47422 0.5933 0.0
C1291 C 0.70766 0.4763 0.60087 0.0
C1292 C 0.67874 0.46636 0.57062 0.0
C1293 C 0.72204 0.45976 0.56221 0.0
C1294 C 0.69765 0.45878 0.55474 0.0
C1295 C 0.72731 0.46866 0.58551 0.0
H1296 H 0.76683 0.46379 0.58231 0.0
N1297 N 0.69267 0.49114 0.6388 0.0
C1298 C 0.71208 0.48462 0.62426 0.0
C1299 C 0.74031 0.49656 0.65594 0.0
C1300 C 0.73639 0.48636 0.63256 0.0
C1301 C 0.69652 0.5045 0.66127 0.0
C1302 C 0.7203 0.50638 0.67027 0.0
O1303 O 0.60023 0.41969 0.64705 0.0
O1304 O 0.61208 0.48318 0.62003 0.0
O1305 O 0.65435 0.5706 0.63261 0.0
O1306 O 0.65313 0.55291 0.59624 0.0
O1307 O 0.63249 0.35819 0.60667 0.0
O1308 O 0.62736 0.44775 0.59753 0.0
O1309 O 0.67368 0.40805 0.61663 0.0
O1310 O 0.66571 0.37056 0.65113 0.0
O1311 O 0.63379 0.27736 0.6257 0.0
O1312 O 0.63222 0.27342 0.66276 0.0
O1313 O 0.64075 0.48713 0.65786 0.0
O1314 O 0.64662 0.40115 0.67155 0.0
C1315 C 0.59576 0.46156 0.63401 0.0
C1316 C 0.62733 0.39693 0.59195 0.0
C1317 C 0.67217 0.63394 0.60775 0.0
C1318 C 0.68039 0.73007 0.60721 0.0
C1319 C 0.71291 0.66648 0.59861 0.0
C1320 C 0.69664 0.62398 0.60174 0.0
C1321 C 0.70492 0.71923 0.60136 0.0
C1322 C 0.66415 0.68692 0.61044 0.0
C1323 C 0.65475 0.59005 0.61186 0.0
C1324 C 0.75601 0.47855 0.61728 0.0
C1325 C 0.75149 0.46971 0.59385 0.0
H1326 H 0.75872 0.4983 0.66298 0.0
C1327 C 0.68007 0.37579 0.63338 0.0
C1328 C 0.64296 0.45289 0.67492 0.0
C1329 C 0.61905 0.19736 0.64226 0.0
C1330 C 0.61597 0.1012 0.63506 0.0
C1331 C 0.5798 0.15247 0.64581 0.0
C1332 C 0.59387 0.19891 0.64701 0.0
C1333 C 0.59071 0.10391 0.63992 0.0
C1334 C 0.63007 0.14844 0.63629 0.0
C1335 C 0.63396 0.24637 0.64373 0.0
H1336 H 0.73178 0.65851 0.59398 0.0
H1337 H 0.70318 0.58362 0.59949 0.0
H1338 H 0.71781 0.75152 0.59857 0.0
H1339 H 0.64529 0.69445 0.61538 0.0
H1340 H 0.56039 0.15405 0.64963 0.0
H1341 H 0.58509 0.23582 0.65183 0.0
H1342 H 0.57941 0.0683 0.63957 0.0
H1343 H 0.64952 0.14733 0.63247 0.0
H1344 H 0.19889 0.20894 0.16794 0.0
H1345 H 0.30535 0.34014 0.09174 0.0
H1346 H 0.2084 0.17131 0.0961 0.0
H1347 H 0.30677 0.33495 0.16585 0.0
H1348 H 0.26716 0.28768 0.09212 0.0
H1349 H 0.236 0.26361 0.16668 0.0
C1350 C 0.2088 0.21218 0.15187 0.0
C1351 C 0.20055 0.18532 0.13211 0.0
C1352 C 0.27587 0.29801 0.10827 0.0
C1353 C 0.24308 0.24847 0.13048 0.0
C1354 C 0.29755 0.32816 0.10807 0.0
C1355 C 0.30943 0.34103 0.12879 0.0
C1356 C 0.26579 0.28158 0.12937 0.0
C1357 C 0.29844 0.32501 0.14947 0.0
C1358 C 0.23004 0.24333 0.15117 0.0
C1359 C 0.21423 0.19089 0.11179 0.0
N1360 N 0.2773 0.29616 0.14924 0.0
N1361 N 0.23475 0.22205 0.11145 0.0
H1362 H 0.80427 0.84257 0.16991 0.0
H1363 H 0.71218 0.6577 0.09756 0.0
H1364 H 0.81078 0.82162 0.0966 0.0
H1365 H 0.69704 0.71488 0.16616 0.0
H1366 H 0.74989 0.71131 0.0973 0.0
H1367 H 0.76611 0.79102 0.16923 0.0
C1368 C 0.79754 0.82714 0.15365 0.0
C1369 C 0.81069 0.83591 0.13332 0.0
C1370 C 0.73825 0.71214 0.11237 0.0
C1371 C 0.76714 0.77646 0.13235 0.0
C1372 C 0.71679 0.68128 0.11259 0.0
C1373 C 0.70136 0.68164 0.13193 0.0
C1374 C 0.74443 0.74333 0.13167 0.0
C1375 C 0.70826 0.71334 0.15083 0.0
C1376 C 0.77577 0.79779 0.15324 0.0
C1377 C 0.80114 0.81558 0.11266 0.0
N1378 N 0.72924 0.74266 0.15024 0.0
N1379 N 0.78004 0.78632 0.11271 0.0
H1380 H 0.32411 0.73224 0.40624 0.0
H1381 H 0.20274 0.80452 0.33639 0.0
H1382 H 0.29961 0.63886 0.34818 0.0
H1383 H 0.21241 0.84754 0.40769 0.0
H1384 H 0.24059 0.75193 0.3382 0.0
H1385 H 0.28563 0.78268 0.40502 0.0
C1386 C 0.31059 0.72229 0.39324 0.0
C1387 C 0.31508 0.68126 0.37727 0.0
C1388 C 0.23434 0.77261 0.35348 0.0
C1389 C 0.27108 0.73942 0.37562 0.0
C1390 C 0.21262 0.80231 0.35253 0.0
C1391 C 0.20388 0.82902 0.37213 0.0
C1392 C 0.24788 0.7707 0.37402 0.0
C1393 C 0.21826 0.82714 0.39221 0.0
C1394 C 0.28861 0.751 0.39261 0.0
C1395 C 0.29684 0.66991 0.3609 0.0
N1396 N 0.23953 0.7985 0.39264 0.0
N1397 N 0.27572 0.69915 0.36035 0.0
H1398 H 0.82008 0.23164 0.3431 0.0
H1399 H 0.69431 0.28695 0.40962 0.0
H1400 H 0.8028 0.16109 0.40881 0.0
H1401 H 0.71946 0.38495 0.3534 0.0
H1402 H 0.73285 0.237 0.40831 0.0
H1403 H 0.78252 0.2848 0.34537 0.0
C1404 C 0.80837 0.22704 0.35799 0.0
C1405 C 0.81453 0.19097 0.37565 0.0
C1406 C 0.73004 0.26961 0.39633 0.0
C1407 C 0.77127 0.25199 0.37829 0.0
C1408 C 0.70799 0.29809 0.39701 0.0
C1409 C 0.70366 0.34038 0.38162 0.0
C1410 C 0.74791 0.28292 0.37994 0.0
C1411 C 0.72211 0.35307 0.36574 0.0
C1412 C 0.78691 0.25759 0.35928 0.0
C1413 C 0.79861 0.18727 0.39455 0.0
N1414 N 0.74336 0.32429 0.36521 0.0
N1415 N 0.7777 0.21709 0.39531 0.0
H1416 H 0.70504 0.70441 0.91104 0.0
H1417 H 0.81651 0.81842 0.8357 0.0
H1418 H 0.7063 0.69843 0.83697 0.0
H1419 H 0.80554 0.86001 0.90694 0.0
H1420 H 0.77829 0.76693 0.83645 0.0
H1421 H 0.74412 0.75313 0.91058 0.0
C1422 C 0.71365 0.71307 0.89469 0.0
C1423 C 0.70237 0.69774 0.874 0.0
C1424 C 0.7842 0.78741 0.85191 0.0
C1425 C 0.74706 0.7535 0.8733 0.0
C1426 C 0.80608 0.81671 0.85152 0.0
C1427 C 0.81422 0.84386 0.87126 0.0
C1428 C 0.77044 0.78451 0.87229 0.0
C1429 C 0.79986 0.84027 0.89124 0.0
C1430 C 0.73587 0.74116 0.89442 0.0
C1431 C 0.71431 0.70998 0.85329 0.0
N1432 N 0.77876 0.81104 0.89128 0.0
N1433 N 0.73597 0.73711 0.85346 0.0
H1434 H 0.30887 0.34498 0.90883 0.0
H1435 H 0.21626 0.14785 0.84448 0.0
H1436 H 0.31157 0.31887 0.83557 0.0
H1437 H 0.19645 0.23163 0.90657 0.0
H1438 H 0.25476 0.19893 0.84322 0.0
H1439 H 0.27032 0.29464 0.91036 0.0
C1440 C 0.30127 0.329 0.89304 0.0
C1441 C 0.31356 0.33587 0.87206 0.0
C1442 C 0.24198 0.206 0.85713 0.0
C1443 C 0.26983 0.2768 0.8738 0.0
C1444 C 0.22015 0.17652 0.85797 0.0
C1445 C 0.20319 0.18548 0.87567 0.0
C1446 C 0.24702 0.24413 0.8743 0.0
C1447 C 0.209 0.22366 0.89256 0.0
C1448 C 0.27935 0.29999 0.89395 0.0
C1449 C 0.30291 0.31384 0.85217 0.0
N1450 N 0.23044 0.25139 0.89153 0.0
N1451 N 0.28184 0.28478 0.85355 0.0
H1452 H 0.70857 0.35393 0.59545 0.0
H1453 H 0.81365 0.20603 0.66768 0.0
H1454 H 0.70432 0.32607 0.66856 0.0
H1455 H 0.80656 0.1867 0.59424 0.0
H1456 H 0.77572 0.2581 0.66794 0.0
H1457 H 0.74662 0.30126 0.59426 0.0
C1458 C 0.71567 0.33695 0.61126 0.0
C1459 C 0.70322 0.34448 0.63215 0.0
C1460 C 0.78239 0.24241 0.65175 0.0
C1461 C 0.74671 0.28416 0.63089 0.0
C1462 C 0.80412 0.2128 0.65157 0.0
C1463 C 0.81332 0.19193 0.6309 0.0
C1464 C 0.76979 0.25207 0.63106 0.0
C1465 C 0.80006 0.2018 0.61058 0.0
C1466 C 0.7373 0.30662 0.61053 0.0
C1467 C 0.7132 0.32115 0.65205 0.0
N1468 N 0.77904 0.23144 0.61113 0.0
N1469 N 0.73434 0.29235 0.65094 0.0
H1470 H 0.20092 0.82065 0.66806 0.0
H1471 H 0.30804 0.67932 0.59629 0.0
H1472 H 0.21272 0.85315 0.59607 0.0
H1473 H 0.30907 0.69403 0.67017 0.0
H1474 H 0.27049 0.73383 0.59516 0.0
H1475 H 0.2381 0.76591 0.66851 0.0
C1476 C 0.21134 0.81628 0.65232 0.0
C1477 C 0.20368 0.84165 0.632 0.0
C1478 C 0.27897 0.72513 0.6116 0.0
C1479 C 0.24628 0.77836 0.63235 0.0
C1480 C 0.30027 0.6937 0.61227 0.0
C1481 C 0.31175 0.6824 0.63336 0.0
C1482 C 0.26887 0.74466 0.63221 0.0
C1483 C 0.30095 0.70224 0.65353 0.0
C1484 C 0.23263 0.78511 0.65261 0.0
C1485 C 0.21803 0.83467 0.61216 0.0
N1486 N 0.28014 0.73223 0.65247 0.0
N1487 N 0.23854 0.8034 0.61278 0.0
H1488 H 0.10422 0.96402 0.30884 0.0
H1489 H 0.17073 0.10893 0.20577 0.0
H1490 H 0.18188 0.94291 0.29877 0.0
H1491 H 0.10234 0.02646 0.19458 0.0
H1492 H 0.17325 0.06844 0.24442 0.0
H1493 H 0.10121 1.00499 0.27052 0.0
C1494 C 0.12056 0.96752 0.29838 0.0
C1495 C 0.14325 0.94944 0.30666 0.0
C1496 C 0.15761 0.05984 0.23352 0.0
C1497 C 0.14019 0.99861 0.26364 0.0
C1498 C 0.156 0.08339 0.21172 0.0
C1499 C 0.13626 0.07096 0.19719 0.0
C1500 C 0.13894 0.02521 0.24094 0.0
C1501 C 0.11784 0.03686 0.20539 0.0
C1502 C 0.11886 0.99112 0.27669 0.0
C1503 C 0.16404 0.95597 0.29281 0.0
N1504 N 0.11951 0.01542 0.22681 0.0
N1505 N 0.16209 0.9807 0.272 0.0
H1506 H 0.9138 0.04354 0.3108 0.0
H1507 H 0.84474 0.91077 0.20731 0.0
H1508 H 0.83777 0.08256 0.29939 0.0
H1509 H 0.9118 0.99597 0.19347 0.0
H1510 H 0.844 0.95043 0.24615 0.0
H1511 H 0.91576 1.00493 0.27184 0.0
C1512 C 0.8976 0.04417 0.29997 0.0
C1513 C 0.87564 0.0664 0.30806 0.0
C1514 C 0.85897 0.95982 0.23462 0.0
C1515 C 0.87746 0.02047 0.26431 0.0
C1516 C 0.85956 0.93683 0.21267 0.0
C1517 C 0.8784 0.9502 0.19734 0.0
C1518 C 0.87778 0.99479 0.24141 0.0
C1519 C 0.89699 0.98483 0.20489 0.0
C1520 C 0.89872 0.02215 0.2779 0.0
C1521 C 0.85506 0.0661 0.29358 0.0
N1522 N 0.89636 1.00565 0.22651 0.0
N1523 N 0.85633 0.04259 0.27247 0.0
H1524 H 0.86549 0.13846 0.71103 0.0
H1525 H 0.86516 0.88794 0.79218 0.0
H1526 H 0.89126 0.98727 0.68443 0.0
H1527 H 0.89665 0.0372 0.81526 0.0
H1528 H 0.86584 0.92231 0.75248 0.0
H1529 H 0.86768 0.10156 0.75 0.0
C1530 C 0.87209 0.09806 0.7133 0.0
C1531 C 0.87895 0.06673 0.69433 0.0
C1532 C 0.87269 0.94712 0.76636 0.0
C1533 C 0.87988 0.02321 0.73879 0.0
C1534 C 0.87251 0.92745 0.78895 0.0
C1535 C 0.88103 0.95945 0.80716 0.0
C1536 C 0.88069 0.99963 0.76213 0.0
C1537 C 0.88976 1.01103 0.80189 0.0
C1538 C 0.87298 0.07679 0.73554 0.0
C1539 C 0.886 0.01329 0.69847 0.0
N1540 N 0.88903 0.02975 0.77997 0.0
N1541 N 0.88606 0.99307 0.7202 0.0
H1542 H 0.15387 0.98523 0.81623 0.0
H1543 H 0.11665 0.03441 0.68553 0.0
H1544 H 0.1338 0.14137 0.79051 0.0
H1545 H 0.15836 0.89714 0.7079 0.0
H1546 H 0.11909 0.07122 0.72442 0.0
H1547 H 0.15271 0.95043 0.77728 0.0
C1548 C 0.14923 1.01248 0.80241 0.0
C1549 C 0.14358 0.06647 0.80687 0.0
C1550 C 0.12766 0.03302 0.72084 0.0
C1551 C 0.14204 0.02601 0.76186 0.0
C1552 C 0.12618 1.01176 0.69868 0.0
C1553 C 0.13732 0.96249 0.69343 0.0
C1554 C 0.14012 1.0046 0.73806 0.0
C1555 C 0.1493 0.93491 0.7112 0.0
C1556 C 0.14862 0.99234 0.78009 0.0
C1557 C 0.138 0.09947 0.78803 0.0
N1558 N 0.15036 0.95633 0.73272 0.0
N1559 N 0.13711 0.07858 0.76635 0.0
H1560 H 0.64488 0.37235 0.29599 0.0
H1561 H 0.65405 0.63014 0.21374 0.0
H1562 H 0.65208 0.5354 0.31985 0.0
H1563 H 0.63942 0.4709 0.1883 0.0
H1564 H 0.65645 0.59404 0.25272 0.0
H1565 H 0.64603 0.40553 0.25618 0.0
C1566 C 0.64674 0.41489 0.29296 0.0
C1567 C 0.64797 0.45098 0.31146 0.0
C1568 C 0.65274 0.56694 0.2386 0.0
C1569 C 0.64957 0.48914 0.26602 0.0
C1570 C 0.65131 0.58765 0.2163 0.0
C1571 C 0.64628 0.55377 0.19765 0.0
C1572 C 0.64921 0.51182 0.24235 0.0
C1573 C 0.64324 0.49876 0.20211 0.0
C1574 C 0.64741 0.43383 0.27023 0.0
C1575 C 0.65074 0.50574 0.30635 0.0
N1576 N 0.64467 0.47958 0.22396 0.0
N1577 N 0.65136 0.52296 0.28425 0.0
H1578 H 0.37112 0.64571 0.293 0.0
H1579 H 0.35561 0.38958 0.21061 0.0
H1580 H 0.36809 0.48252 0.31732 0.0
H1581 H 0.3757 0.54636 0.18579 0.0
H1582 H 0.35523 0.42516 0.24988 0.0
H1583 H 0.36782 0.61218 0.25337 0.0
C1584 C 0.36968 0.60302 0.29009 0.0
C1585 C 0.37016 0.56704 0.30863 0.0
C1586 C 0.35972 0.45172 0.23579 0.0
C1587 C 0.36611 0.52845 0.2634 0.0
C1588 C 0.36006 0.43131 0.21337 0.0
C1589 C 0.36613 0.46462 0.19483 0.0
C1590 C 0.36519 0.50602 0.23971 0.0
C1591 C 0.37107 0.51888 0.19949 0.0
C1592 C 0.36782 0.58388 0.26747 0.0
C1593 C 0.36803 0.51204 0.30371 0.0
N1594 N 0.37054 0.53779 0.22141 0.0
N1595 N 0.36612 0.49457 0.28168 0.0
H1596 H 0.34536 0.41406 0.79779 0.0
H1597 H 0.41689 0.54303 0.69486 0.0
H1598 H 0.41608 0.48517 0.81049 0.0
H1599 H 0.34188 0.58931 0.70681 0.0
H1600 H 0.41827 0.50234 0.73337 0.0
H1601 H 0.34476 0.45653 0.75943 0.0
C1602 C 0.36098 0.43747 0.79223 0.0
C1603 C 0.38085 0.44617 0.8071 0.0
C1604 C 0.40159 0.52174 0.72757 0.0
C1605 C 0.38035 0.49405 0.76371 0.0
C1606 C 0.40083 0.54504 0.70577 0.0
C1607 C 0.37932 0.56977 0.69793 0.0
C1608 C 0.38038 0.52135 0.74116 0.0
C1609 C 0.35888 0.57116 0.7125 0.0
C1610 C 0.36048 0.46216 0.77061 0.0
C1611 C 0.40048 0.47761 0.7994 0.0
N1612 N 0.35973 0.54629 0.73335 0.0
N1613 N 0.39986 0.50011 0.77812 0.0
H1614 H 0.61937 0.50694 0.81965 0.0
H1615 H 0.63364 0.55649 0.68737 0.0
H1616 H 0.65419 0.65191 0.79597 0.0
H1617 H 0.65258 0.40311 0.71663 0.0
H1618 H 0.63258 0.59458 0.72601 0.0
H1619 H 0.62213 0.4704 0.78079 0.0
C1620 C 0.62737 0.53147 0.80626 0.0
C1621 C 0.63644 0.58294 0.81116 0.0
C1622 C 0.63683 0.55251 0.72387 0.0
C1623 C 0.63917 0.54125 0.76654 0.0
C1624 C 0.63739 0.53045 0.70184 0.0
C1625 C 0.64261 0.47574 0.69859 0.0
C1626 C 0.64092 0.51958 0.74293 0.0
C1627 C 0.64751 0.44467 0.71818 0.0
C1628 C 0.629 0.51033 0.78415 0.0
C1629 C 0.64646 0.61269 0.79298 0.0
N1630 N 0.64621 0.46684 0.73955 0.0
N1631 N 0.6474 0.59155 0.77138 0.0
H1632 H 0.15223 0.20984 0.9434 0.0
H1633 H 0.10553 0.06811 0.05812 0.0
H1634 H 0.10086 0.07881 0.94535 0.0
H1635 H 0.14916 0.212 0.05982 0.0
H1636 H 0.10198 0.07627 0.01664 0.0
H1637 H 0.14965 0.21679 0.98555 0.0
C1638 C 0.14008 0.18325 0.95267 0.0
C1639 C 0.12688 0.14338 0.94097 0.0
C1640 C 0.11221 0.10646 0.02596 0.0
C1641 C 0.12404 0.15068 0.98896 0.0
C1642 C 0.11431 0.10171 0.04972 0.0
C1643 C 0.12788 0.13915 0.06241 0.0
C1644 C 0.12405 0.14865 0.01455 0.0
C1645 C 0.13854 0.18226 0.05062 0.0
C1646 C 0.13871 0.18705 0.9767 0.0
C1647 C 0.11155 0.1097 0.95375 0.0
N1648 N 0.13668 0.1855 0.02724 0.0
N1649 N 0.11073 0.11383 0.977 0.0
H1650 H 0.86996 0.80964 0.94399 0.0
H1651 H 0.91011 0.95693 0.06064 0.0
H1652 H 0.90356 0.96563 0.94855 0.0
H1653 H 0.87142 0.80642 0.06096 0.0
H1654 H 0.91241 0.95281 0.01898 0.0
H1655 H 0.87423 0.80045 0.98605 0.0
C1656 C 0.8784 0.84165 0.95375 0.0
C1657 C 0.88612 0.88876 0.94275 0.0
C1658 C 0.90354 0.92031 0.02803 0.0
C1659 C 0.89118 0.87843 0.9906 0.0
C1660 C 0.90226 0.92263 0.0519 0.0
C1661 C 0.89034 0.88222 0.06429 0.0
C1662 C 0.89256 0.87752 0.01619 0.0
C1663 C 0.88078 0.83842 0.05203 0.0
C1664 C 0.88079 0.83643 0.97772 0.0
C1665 C 0.89697 0.92892 0.95623 0.0
N1666 N 0.8818 0.83752 0.02856 0.0
N1667 N 0.89907 0.92286 0.97931 0.0
H1668 H 0.09729 0.92319 0.44259 0.0
H1669 H 0.15519 0.80648 0.55903 0.0
H1670 H 0.15647 0.80879 0.44171 0.0
H1671 H 0.1087 0.94568 0.5539 0.0
H1672 H 0.15118 0.79359 0.51707 0.0
H1673 H 0.09584 0.91701 0.48429 0.0
C1674 C 0.10982 0.89618 0.45126 0.0
C1675 C 0.1272 0.86688 0.43879 0.0
C1676 C 0.14174 0.8266 0.52526 0.0
C1677 C 0.12598 0.8602 0.48677 0.0
C1678 C 0.14393 0.83383 0.54914 0.0
C1679 C 0.13246 0.87754 0.55986 0.0
C1680 C 0.12765 0.86287 0.51228 0.0
C1681 C 0.11815 0.9119 0.54632 0.0
C1682 C 0.10906 0.89278 0.4751 0.0
C1683 C 0.1428 0.83197 0.45081 0.0
N1684 N 0.11621 0.90387 0.52334 0.0
N1685 N 0.14208 0.83011 0.47428 0.0
H1686 H 0.91723 0.08496 0.55819 0.0
H1687 H 0.8664 0.21816 0.44222 0.0
H1688 H 0.86729 0.21873 0.55915 0.0
H1689 H 0.91658 0.085 0.44571 0.0
H1690 H 0.86942 0.22762 0.48442 0.0
H1691 H 0.92047 0.09313 0.51665 0.0
C1692 C 0.90709 0.1165 0.5496 0.0
C1693 C 0.89184 0.15095 0.56209 0.0
C1694 C 0.87998 0.19683 0.47585 0.0
C1695 C 0.89508 0.16017 0.51415 0.0
C1696 C 0.87836 0.19164 0.45181 0.0
C1697 C 0.89107 0.1504 0.44054 0.0
C1698 C 0.89456 0.16075 0.4885 0.0
C1699 C 0.90618 0.11688 0.45372 0.0
C1700 C 0.90891 0.12118 0.52581 0.0
C1701 C 0.87931 0.19144 0.5501 0.0
N1702 N 0.90737 0.12261 0.47688 0.0
N1703 N 0.88092 0.19452 0.52669 0.0
H1704 H 0.59562 0.58674 0.06133 0.0
H1705 H 0.64748 0.73024 0.94828 0.0
H1706 H 0.65074 0.71014 0.06466 0.0
H1707 H 0.60043 0.59158 0.94908 0.0
H1708 H 0.64432 0.73519 0.99056 0.0
H1709 H 0.59222 0.60042 0.02006 0.0
C1710 C 0.60691 0.6171 0.05331 0.0
C1711 C 0.62373 0.64684 0.06631 0.0
C1712 C 0.63447 0.70418 0.98138 0.0
C1713 C 0.62018 0.66247 0.0188 0.0
C1714 C 0.63614 0.70156 0.95731 0.0
C1715 C 0.62435 0.66018 0.94527 0.0
C1716 C 0.62068 0.6655 0.99326 0.0
C1717 C 0.61006 0.62376 0.95772 0.0
C1718 C 0.60499 0.62493 0.02971 0.0
C1719 C 0.63761 0.6863 0.05514 0.0
N1720 N 0.60873 0.62716 0.98094 0.0
N1721 N 0.6358 0.69254 0.03188 0.0
H1722 H 0.4127 0.44516 0.94572 0.0
H1723 H 0.36197 0.31173 0.06095 0.0
H1724 H 0.36699 0.30441 0.94419 0.0
H1725 H 0.41448 0.4405 0.05815 0.0
H1726 H 0.36525 0.30199 0.01882 0.0
H1727 H 0.41536 0.43821 0.98728 0.0
C1728 C 0.40333 0.41243 0.95419 0.0
C1729 C 0.38946 0.37554 0.94152 0.0
C1730 C 0.37626 0.33184 0.02753 0.0
C1731 C 0.39213 0.36754 0.98949 0.0
C1732 C 0.37447 0.33722 0.05152 0.0
C1733 C 0.38774 0.37742 0.06291 0.0
C1734 C 0.39151 0.36681 0.01509 0.0
C1735 C 0.40361 0.40955 0.04998 0.0
C1736 C 0.40487 0.40837 0.978 0.0
C1737 C 0.37792 0.3336 0.95339 0.0
N1738 N 0.40489 0.40381 0.02684 0.0
N1739 N 0.37922 0.33111 0.97682 0.0
H1740 H 0.65124 0.31646 0.44925 0.0
H1741 H 0.59643 0.44894 0.56323 0.0
H1742 H 0.60029 0.44843 0.45028 0.0
H1743 H 0.64805 0.31828 0.56508 0.0
H1744 H 0.5937 0.44006 0.52162 0.0
H1745 H 0.64686 0.30789 0.49115 0.0
C1746 C 0.63888 0.34309 0.45827 0.0
C1747 C 0.62627 0.38357 0.4464 0.0
C1748 C 0.60545 0.4128 0.53102 0.0
C1749 C 0.62121 0.37413 0.49412 0.0
C1750 C 0.60696 0.41781 0.55481 0.0
C1751 C 0.62262 0.38453 0.56752 0.0
C1752 C 0.61998 0.37466 0.51967 0.0
C1753 C 0.6357 0.34457 0.55584 0.0
C1754 C 0.63644 0.3383 0.48216 0.0
C1755 C 0.61056 0.41711 0.45884 0.0
N1756 N 0.63438 0.34122 0.53245 0.0
N1757 N 0.60861 0.41186 0.482 0.0
H1758 H 0.36494 0.71872 0.5608 0.0
H1759 H 0.41737 0.5774 0.44723 0.0
H1760 H 0.40802 0.57392 0.5594 0.0
H1761 H 0.36557 0.70765 0.44436 0.0
H1762 H 0.4194 0.587 0.48887 0.0
H1763 H 0.36981 0.72612 0.51872 0.0
C1764 C 0.37567 0.68904 0.5517 0.0
C1765 C 0.38581 0.64529 0.56349 0.0
C1766 C 0.40769 0.61389 0.47922 0.0
C1767 C 0.39152 0.65347 0.51577 0.0
C1768 C 0.40657 0.60841 0.45543 0.0
C1769 C 0.39105 0.64131 0.44245 0.0
C1770 C 0.39303 0.65236 0.49026 0.0
C1771 C 0.37771 0.68137 0.45385 0.0
C1772 C 0.37836 0.69311 0.52775 0.0
C1773 C 0.39952 0.60784 0.55096 0.0
N1774 N 0.37874 0.68539 0.47722 0.0
N1775 N 0.40187 0.61269 0.52787 0.0
H1776 H 0.93804 0.02977 0.10636 0.0
H1777 H 0.07441 0.99679 0.15729 0.0
H1778 H 0.95746 0.91505 0.15846 0.0
H1779 H 0.05597 0.10409 0.10188 0.0
H1780 H 0.03147 0.96773 0.1587 0.0
H1781 H 0.98064 0.0612 0.10586 0.0
C1782 C 0.95123 1.01139 0.11776 0.0
C1783 C 0.94428 0.9691 0.13216 0.0
C1784 C 0.03679 0.99777 0.14626 0.0
C1785 C 0.99318 1.00427 0.13163 0.0
C1786 C 0.06133 0.01413 0.14539 0.0
C1787 C 0.06871 0.05344 0.12964 0.0
C1788 C 0.01948 0.02071 0.13121 0.0
C1789 C 0.05097 0.07461 0.11464 0.0
C1790 C 0.97562 0.02899 0.11737 0.0
C1791 C 0.96221 0.94644 0.14653 0.0
N1792 N 0.02722 0.05815 0.11583 0.0
N1793 N 0.98579 0.96415 0.14587 0.0
H1794 H 0.94787 0.03439 0.41073 0.0
H1795 H 0.06589 0.9628 0.33525 0.0
H1796 H 0.95284 0.06509 0.33788 0.0
H1797 H 0.06928 0.98016 0.409 0.0
H1798 H 0.02309 0.99181 0.336 0.0
H1799 H 0.99099 1.0055 0.41061 0.0
C1800 C 0.95797 0.03461 0.3947 0.0
C1801 C 0.94679 0.0521 0.37429 0.0
C1802 C 0.03321 0.98968 0.35202 0.0
C1803 C 0.99595 0.01929 0.37401 0.0
C1804 C 0.05763 0.97302 0.3516 0.0
C1805 C 0.07116 0.96927 0.37208 0.0
C1806 C 0.02206 1.00222 0.37311 0.0
C1807 C 0.05954 0.98301 0.39279 0.0
C1808 C 0.98259 0.01857 0.39467 0.0
C1809 C 0.96078 0.05219 0.35404 0.0
N1810 N 0.03559 0.99857 0.39281 0.0
N1811 N 0.98456 0.03589 0.3544 0.0
H1812 H 0.07273 0.02436 0.90896 0.0
H1813 H 0.94221 0.023 0.845 0.0
H1814 H 0.06289 0.07551 0.83876 0.0
H1815 H 0.95684 0.93314 0.90677 0.0
H1816 H 0.98548 0.05055 0.84409 0.0
H1817 H 0.02967 0.99619 0.90986 0.0
C1818 C 0.06154 0.02968 0.89372 0.0
C1819 C 0.07134 0.05337 0.87387 0.0
C1820 C 0.97922 0.02477 0.85784 0.0
C1821 C 0.0219 0.02187 0.87487 0.0
C1822 C 0.95451 1.00944 0.85845 0.0
C1823 C 0.94602 0.97554 0.87591 0.0
C1824 C 0.99546 1.00667 0.87501 0.0
C1825 C 0.96274 0.9588 0.89285 0.0
C1826 C 0.03692 0.01377 0.89427 0.0
C1827 C 0.05592 0.05908 0.85464 0.0
N1828 N 0.9866 0.97455 0.89201 0.0
N1829 N 0.03198 0.0439 0.85566 0.0
H1830 H 0.9592 0.10552 0.65686 0.0
H1831 H 0.05914 0.91595 0.5971 0.0
H1832 H 0.94221 1.00112 0.59996 0.0
H1833 H 0.07608 0.02798 0.65122 0.0
H1834 H 0.01618 0.94423 0.59846 0.0
H1835 H 1.00172 0.07579 0.65556 0.0
C1836 C 0.96447 0.07672 0.64389 0.0
C1837 C 0.94715 0.0568 0.62815 0.0
C1838 C 0.02925 0.96272 0.61004 0.0
C1839 C 0.99601 0.02111 0.62695 0.0
C1840 C 0.05377 0.94634 0.60937 0.0
C1841 C 0.07116 0.96911 0.62428 0.0
C1842 C 0.02201 1.00258 0.62567 0.0
C1843 C 0.06331 1.00937 0.63939 0.0
C1844 C 0.98878 0.05933 0.6433 0.0
C1845 C 0.95492 0.01772 0.61239 0.0
N1846 N 0.03932 0.02466 0.63975 0.0
N1847 N 0.97879 1.00132 0.61213 0.0
H1848 H 0.44402 0.49233 0.09341 0.0
H1849 H 0.56419 0.55008 0.16918 0.0
H1850 H 0.44779 0.46889 0.16682 0.0
H1851 H 0.56572 0.54047 0.09515 0.0
H1852 H 0.52062 0.52718 0.16852 0.0
H1853 H 0.48752 0.51789 0.09355 0.0
C1854 C 0.45394 0.49312 0.10957 0.0
C1855 C 0.44232 0.47837 0.13013 0.0
C1856 C 0.53045 0.52973 0.1524 0.0
C1857 C 0.49202 0.50717 0.13041 0.0
C1858 C 0.55532 0.54288 0.15277 0.0
C1859 C 0.56855 0.5471 0.1322 0.0
C1860 C 0.51858 0.52094 0.13125 0.0
C1861 C 0.55621 0.53713 0.11142 0.0
C1862 C 0.47879 0.50726 0.10962 0.0
C1863 C 0.45608 0.47959 0.15055 0.0
N1864 N 0.53186 0.5248 0.11146 0.0
N1865 N 0.48015 0.49369 0.15018 0.0
H1866 H 0.44863 0.54108 0.41311 0.0
H1867 H 0.56676 0.45568 0.3404 0.0
H1868 H 0.45315 0.55864 0.33949 0.0
H1869 H 0.56992 0.48808 0.41319 0.0
H1870 H 0.52382 0.48444 0.33997 0.0
H1871 H 0.49178 0.51274 0.41381 0.0
C1872 C 0.45869 0.53868 0.39709 0.0
C1873 C 0.44737 0.55232 0.37621 0.0
C1874 C 0.53391 0.48546 0.35603 0.0
C1875 C 0.4966 0.51978 0.37684 0.0
C1876 C 0.55837 0.46875 0.3563 0.0
C1877 C 0.57185 0.46917 0.37688 0.0
C1878 C 0.52272 0.50242 0.37654 0.0
C1879 C 0.56018 0.48725 0.39694 0.0
C1880 C 0.48333 0.52288 0.39751 0.0
C1881 C 0.46126 0.54892 0.35597 0.0
N1882 N 0.53624 0.50279 0.39631 0.0
N1883 N 0.48509 0.53278 0.35676 0.0
H1884 H 0.46397 0.39461 0.89126 0.0
H1885 H 0.551 0.64021 0.89057 0.0
H1886 H 0.4386 0.54082 0.86004 0.0
H1887 H 0.57874 0.49041 0.86477 0.0
H1888 H 0.50932 0.60529 0.88804 0.0
H1889 H 0.50597 0.42853 0.89017 0.0
C1890 C 0.4672 0.43328 0.88374 0.0
C1891 C 0.44765 0.46372 0.87495 0.0
C1892 C 0.52456 0.5803 0.88278 0.0
C1893 C 0.49565 0.50459 0.87517 0.0
C1894 C 0.5484 0.60045 0.88394 0.0
C1895 C 0.56855 0.5693 0.87709 0.0
C1896 C 0.52075 0.52746 0.87567 0.0
C1897 C 0.56388 0.51636 0.87004 0.0
C1898 C 0.49119 0.45289 0.88339 0.0
C1899 C 0.45299 0.51543 0.8668 0.0
N1900 N 0.54049 0.49691 0.86973 0.0
N1901 N 0.47643 0.53445 0.86733 0.0
H1902 H 0.45504 0.60603 0.59992 0.0
H1903 H 0.56077 0.44732 0.66707 0.0
H1904 H 0.44179 0.50759 0.65943 0.0
H1905 H 0.5723 0.52316 0.6013 0.0
H1906 H 0.51781 0.47387 0.66569 0.0
H1907 H 0.49843 0.58094 0.60121 0.0
C1908 C 0.46133 0.57928 0.61333 0.0
C1909 C 0.44489 0.5594 0.62977 0.0
C1910 C 0.52968 0.48483 0.65155 0.0
C1911 C 0.49449 0.52987 0.63122 0.0
C1912 C 0.55428 0.46951 0.65227 0.0
C1913 C 0.57019 0.48226 0.63409 0.0
C1914 C 0.52079 0.51391 0.63264 0.0
C1915 C 0.56076 0.51239 0.6157 0.0
C1916 C 0.48607 0.5647 0.61397 0.0
C1917 C 0.45386 0.52382 0.64642 0.0
N1918 N 0.53667 0.52707 0.61542 0.0
N1919 N 0.47807 0.51043 0.6468 0.0
H1920 H 0.12808 0.75974 0.08137 0.0
H1921 H 0.15448 0.47372 0.13693 0.0
H1922 H 0.19865 0.71679 0.10951 0.0
H1923 H 0.09341 0.50543 0.09151 0.0
H1924 H 0.17083 0.56259 0.12818 0.0
H1925 H 0.11436 0.66743 0.0867 0.0
C1926 C 0.14068 0.73082 0.08868 0.0
C1927 C 0.16452 0.74596 0.09503 0.0
C1928 C 0.15393 0.54986 0.12004 0.0
C1929 C 0.14896 0.64014 0.10121 0.0
C1930 C 0.14464 0.49894 0.1249 0.0
C1931 C 0.12235 0.482 0.11514 0.0
C1932 C 0.14075 0.58434 0.10546 0.0
C1933 C 0.11033 0.51701 0.0999 0.0
C1934 C 0.13291 0.67806 0.09159 0.0
C1935 C 0.18018 0.70669 0.10421 0.0
N1936 N 0.11955 0.56652 0.09571 0.0
N1937 N 0.17207 0.65567 0.10719 0.0
H1938 H 0.84056 0.26345 0.09921 0.0
H1939 H 0.88752 0.54488 0.14848 0.0
H1940 H 0.91275 0.28974 0.12764 0.0
H1941 H 0.81451 0.52077 0.12158 0.0
H1942 H 0.89662 0.4509 0.14133 0.0
H1943 H 0.83001 0.3564 0.10815 0.0
C1944 C 0.85413 0.28858 0.10751 0.0
C1945 C 0.87764 0.26873 0.11257 0.0
C1946 C 0.87858 0.46603 0.13697 0.0
C1947 C 0.86576 0.37538 0.12261 0.0
C1948 C 0.87342 0.5199 0.1409 0.0
C1949 C 0.85027 0.54101 0.13543 0.0
C1950 C 0.8605 0.43265 0.12746 0.0
C1951 C 0.83256 0.50622 0.12617 0.0
C1952 C 0.84813 0.34176 0.11248 0.0
C1953 C 0.89455 0.30344 0.12307 0.0
N1954 N 0.83807 0.45382 0.12239 0.0
N1955 N 0.8883 0.35495 0.12767 0.0
H1956 H 0.15843 0.26525 0.39963 0.0
H1957 H 0.11404 0.5422 0.34422 0.0
H1958 H 0.09114 0.28349 0.36113 0.0
H1959 H 0.18463 0.52087 0.37669 0.0
H1960 H 0.10455 0.44846 0.35192 0.0
H1961 H 0.16783 0.35935 0.39255 0.0
C1962 C 0.14569 0.2889 0.38956 0.0
C1963 C 0.12396 0.26626 0.38094 0.0
C1964 C 0.12212 0.46424 0.35739 0.0
C1965 C 0.13448 0.3744 0.37304 0.0
C1966 C 0.12748 0.51789 0.35314 0.0
C1967 C 0.15016 0.53949 0.35985 0.0
C1968 C 0.13952 0.43179 0.36851 0.0
C1969 C 0.16703 0.50579 0.371 0.0
C1970 C 0.15102 0.34276 0.38564 0.0
C1971 C 0.10795 0.29928 0.36838 0.0
N1972 N 0.16135 0.45365 0.375 0.0
N1973 N 0.11353 0.3516 0.36482 0.0
H1974 H 0.86353 0.47143 0.34836 0.0
H1975 H 0.88677 0.75735 0.4068 0.0
H1976 H 0.92897 0.51188 0.3865 0.0
H1977 H 0.82031 0.71632 0.37038 0.0
H1978 H 0.9025 0.66753 0.39942 0.0
H1979 H 0.84709 0.56037 0.35661 0.0
C1980 C 0.87437 0.49883 0.35862 0.0
C1981 C 0.89771 0.4841 0.36671 0.0
C1982 C 0.88446 0.6781 0.39305 0.0
C1983 C 0.87911 0.58634 0.37598 0.0
C1984 C 0.87552 0.72954 0.39713 0.0
C1985 C 0.8522 0.74451 0.38914 0.0
C1986 C 0.87002 0.6412 0.38083 0.0
C1987 C 0.83828 0.70639 0.37707 0.0
C1988 C 0.86503 0.54976 0.3632 0.0
C1989 C 0.91107 0.52169 0.37961 0.0
N1990 N 0.84743 0.65656 0.37324 0.0
N1991 N 0.90159 0.57101 0.38381 0.0
H1992 H 0.81511 0.31168 0.89312 0.0
H1993 H 0.92244 0.52401 0.91474 0.0
H1994 H 0.88579 0.27036 0.92149 0.0
H1995 H 0.86274 0.55328 0.86745 0.0
H1996 H 0.90609 0.4349 0.92205 0.0
H1997 H 0.82926 0.40415 0.88814 0.0
C1998 C 0.83354 0.32218 0.89845 0.0
C1999 C 0.84933 0.28326 0.9077 0.0
C2000 C 0.89653 0.46086 0.91012 0.0
C2001 C 0.86557 0.38885 0.90212 0.0
C2002 C 0.90589 0.51181 0.90585 0.0
C2003 C 0.8942 0.54625 0.89016 0.0
C2004 C 0.87509 0.44402 0.89886 0.0
C2005 C 0.87236 0.52843 0.87975 0.0
C2006 C 0.84163 0.37483 0.89548 0.0
C2007 C 0.8731 0.29894 0.91409 0.0
N2008 N 0.86357 0.47849 0.88422 0.0
N2009 N 0.88046 0.35048 0.91125 0.0
H2010 H 0.18928 0.4861 0.88774 0.0
H2011 H 0.09637 0.72604 0.85976 0.0
H2012 H 0.12802 0.471 0.84099 0.0
H2013 H 0.16312 0.74602 0.89882 0.0
H2014 H 0.10649 0.63158 0.85424 0.0
H2015 H 0.17883 0.5801 0.89349 0.0
C2016 C 0.17366 0.50246 0.8786 0.0
C2017 C 0.15961 0.47027 0.86373 0.0
C2018 C 0.11895 0.6566 0.86399 0.0
C2019 C 0.14734 0.57834 0.87053 0.0
C2020 C 0.11313 0.71054 0.86725 0.0
C2021 C 0.12888 0.74413 0.87984 0.0
C2022 C 0.14065 0.63574 0.87349 0.0
C2023 C 0.15054 0.72185 0.88882 0.0
C2024 C 0.16765 0.55624 0.88199 0.0
C2025 C 0.13926 0.49382 0.85281 0.0
N2026 N 0.15572 0.6691 0.88556 0.0
N2027 N 0.13378 0.54633 0.85639 0.0
H2028 H 0.8074 0.72711 0.61597 0.0
H2029 H 0.91544 0.51522 0.59526 0.0
H2030 H 0.87679 0.76532 0.58444 0.0
H2031 H 0.85268 0.48157 0.63798 0.0
H2032 H 0.89879 0.60377 0.58726 0.0
H2033 H 0.82111 0.63422 0.62055 0.0
C2034 C 0.82545 0.71591 0.60989 0.0
C2035 C 0.84103 0.75417 0.59991 0.0
C2036 C 0.88856 0.57703 0.59832 0.0
C2037 C 0.8568 0.64803 0.6051 0.0
C2038 C 0.89809 0.52641 0.60293 0.0
C2039 C 0.88563 0.49105 0.6176 0.0
C2040 C 0.86629 0.59276 0.60834 0.0
C2041 C 0.8629 0.50741 0.62655 0.0
C2042 C 0.83329 0.66296 0.6126 0.0
C2043 C 0.8643 0.73745 0.59253 0.0
N2044 N 0.85404 0.55725 0.62192 0.0
N2045 N 0.87144 0.68575 0.59526 0.0
H2046 H 0.12994 0.26606 0.57959 0.0
H2047 H 0.15891 0.55061 0.63589 0.0
H2048 H 0.20154 0.30693 0.60594 0.0
H2049 H 0.0962 0.52011 0.59234 0.0
H2050 H 0.1748 0.46159 0.62633 0.0
H2051 H 0.11664 0.35826 0.58609 0.0
C2052 C 0.14286 0.29447 0.58677 0.0
C2053 C 0.16687 0.27874 0.59225 0.0
C2054 C 0.15763 0.47462 0.61879 0.0
C2055 C 0.15179 0.38459 0.59975 0.0
C2056 C 0.14861 0.52562 0.62412 0.0
C2057 C 0.12598 0.54292 0.61515 0.0
C2058 C 0.14387 0.44047 0.60452 0.0
C2059 C 0.11339 0.50825 0.60016 0.0
C2060 C 0.13531 0.34721 0.59035 0.0
C2061 C 0.18292 0.31746 0.60129 0.0
N2062 N 0.12237 0.45871 0.59551 0.0
N2063 N 0.17504 0.3685 0.60492 0.0
H2064 H 0.58446 1.00095 0.12241 0.0
H2065 H 0.69446 0.20918 0.14115 0.0
H2066 H 0.64985 0.96454 0.16136 0.0
H2067 H 0.62788 0.24666 0.10423 0.0
H2068 H 0.67891 0.11891 0.14804 0.0
H2069 H 0.60048 0.09045 0.11498 0.0
C2070 C 0.60216 1.01179 0.12949 0.0
C2071 C 0.61573 0.97507 0.14267 0.0
C2072 C 0.66768 0.14687 0.13844 0.0
C2073 C 0.63435 0.07774 0.134 0.0
C2074 C 0.6766 0.19841 0.1344 0.0
C2075 C 0.66249 0.23571 0.12205 0.0
C2076 C 0.64446 0.13225 0.13004 0.0
C2077 C 0.6393 0.21958 0.11407 0.0
C2078 C 0.61136 0.06291 0.12514 0.0
C2079 C 0.63881 0.99121 0.15095 0.0
N2080 N 0.63106 0.16912 0.11816 0.0
N2081 N 0.64734 0.04133 0.14654 0.0
H2082 H 0.41877 0.79432 0.14361 0.0
H2083 H 0.32426 0.0348 0.12171 0.0
H2084 H 0.35322 0.77832 0.10241 0.0
H2085 H 0.39262 0.05223 0.15854 0.0
H2086 H 0.33367 0.94017 0.11554 0.0
H2087 H 0.40875 0.88825 0.15016 0.0
C2088 C 0.40231 0.81057 0.13584 0.0
C2089 C 0.3869 0.77823 0.12233 0.0
C2090 C 0.34663 0.96472 0.12494 0.0
C2091 C 0.37512 0.88604 0.13 0.0
C2092 C 0.34121 0.01874 0.12857 0.0
C2093 C 0.3577 0.05169 0.14063 0.0
C2094 C 0.36866 0.94328 0.13351 0.0
C2095 C 0.37953 0.02867 0.14886 0.0
C2096 C 0.39653 0.86424 0.13968 0.0
C2097 C 0.36554 0.80145 0.11312 0.0
N2098 N 0.38433 0.97598 0.14519 0.0
N2099 N 0.36032 0.8539 0.11709 0.0
H2100 H 0.59045 0.05838 0.36441 0.0
H2101 H 0.65698 0.77802 0.37778 0.0
H2102 H 0.65378 0.01952 0.32348 0.0
H2103 H 0.57798 0.79231 0.38059 0.0
H2104 H 0.65917 0.8703 0.36396 0.0
H2105 H 0.58873 0.96487 0.37759 0.0
C2106 C 0.60405 0.03011 0.35834 0.0
C2107 C 0.62222 0.0463 0.34283 0.0
C2108 C 0.64142 0.85292 0.36765 0.0
C2109 C 0.62064 0.94008 0.358 0.0
C2110 C 0.64005 0.79996 0.3754 0.0
C2111 C 0.61722 0.77652 0.38057 0.0
C2112 C 0.6199 0.88334 0.36551 0.0
C2113 C 0.5961 0.80834 0.37752 0.0
C2114 C 0.60301 0.97692 0.36575 0.0
C2115 C 0.63944 1.0083 0.33538 0.0
N2116 N 0.59799 0.86004 0.37044 0.0
N2117 N 0.63837 0.95697 0.34318 0.0
H2118 H 0.38541 0.95871 0.37539 0.0
H2119 H 0.37418 0.2649 0.33772 0.0
H2120 H 0.39789 1.01049 0.30547 0.0
H2121 H 0.33542 0.19845 0.39563 0.0
H2122 H 0.38893 0.17473 0.32793 0.0
H2123 H 0.3725 0.04922 0.38523 0.0
C2124 C 0.38529 0.98878 0.36199 0.0
C2125 C 0.39256 0.97625 0.33942 0.0
C2126 C 0.37721 0.18001 0.34278 0.0
C2127 C 0.37842 0.08095 0.35093 0.0
C2128 C 0.36893 0.23138 0.34844 0.0
C2129 C 0.35347 0.23901 0.36744 0.0
C2130 C 0.37033 0.13622 0.35647 0.0
C2131 C 0.3471 0.19421 0.38069 0.0
C2132 C 0.37806 0.04068 0.36773 0.0
C2133 C 0.39272 0.01796 0.32313 0.0
N2134 N 0.35562 0.14482 0.37503 0.0
N2135 N 0.3858 0.06836 0.32922 0.0
H2136 H 0.4223 0.78257 0.86515 0.0
H2137 H 0.32288 0.01544 0.88137 0.0
H2138 H 0.35726 0.76377 0.90663 0.0
H2139 H 0.39482 0.04005 0.85246 0.0
H2140 H 0.33337 0.92131 0.88818 0.0
H2141 H 0.41086 0.87532 0.85794 0.0
C2142 C 0.40568 0.79793 0.87289 0.0
C2143 C 0.39085 0.76511 0.88669 0.0
C2144 C 0.34686 0.94738 0.88039 0.0
C2145 C 0.37738 0.87161 0.87811 0.0
C2146 C 0.34084 1.00101 0.87639 0.0
C2147 C 0.35805 0.03574 0.86642 0.0
C2148 C 0.37015 0.92822 0.87415 0.0
C2149 C 0.38111 0.01496 0.86048 0.0
C2150 C 0.39908 0.85095 0.86864 0.0
C2151 C 0.36917 0.78722 0.89571 0.0
N2152 N 0.38645 0.96264 0.86438 0.0
N2153 N 0.36311 0.83905 0.89128 0.0
H2154 H 0.66207 0.27249 0.91144 0.0
H2155 H 0.62295 0.99337 0.85469 0.0
H2156 H 0.59787 0.25162 0.86875 0.0
H2157 H 0.69363 0.01902 0.88636 0.0
H2158 H 0.61289 0.08729 0.86127 0.0
H2159 H 0.67369 0.17966 0.90356 0.0
C2160 C 0.65049 0.24866 0.90028 0.0
C2161 C 0.62884 0.27011 0.89087 0.0
C2162 C 0.63063 0.07251 0.86675 0.0
C2163 C 0.6419 0.16337 0.88207 0.0
C2164 C 0.63633 0.01874 0.86313 0.0
C2165 C 0.65912 0.99815 0.87009 0.0
C2166 C 0.64776 0.10618 0.87757 0.0
C2167 C 0.6759 0.03324 0.88059 0.0
C2168 C 0.65709 0.19552 0.89589 0.0
C2169 C 0.61444 0.23678 0.87679 0.0
N2170 N 0.66983 0.08546 0.88412 0.0
N2171 N 0.62118 0.18521 0.87292 0.0
H2172 H 0.392 0.97794 0.64486 0.0
H2173 H 0.33073 0.25993 0.61372 0.0
H2174 H 0.31376 0.99833 0.63747 0.0
H2175 H 0.4052 0.21838 0.59647 0.0
H2176 H 0.3249 0.16938 0.62946 0.0
H2177 H 0.39777 0.07108 0.63353 0.0
C2178 C 0.37599 1.00178 0.64078 0.0
C2179 C 0.35231 0.97976 0.64198 0.0
C2180 C 0.34254 0.18032 0.62236 0.0
C2181 C 0.35886 0.08727 0.62952 0.0
C2182 C 0.34591 0.23195 0.61356 0.0
C2183 C 0.36843 0.24633 0.60371 0.0
C2184 C 0.36197 0.14334 0.62161 0.0
C2185 C 0.3875 0.20861 0.60375 0.0
C2186 C 0.37933 0.05516 0.63446 0.0
C2187 C 0.33231 0.0135 0.63708 0.0
N2188 N 0.38385 0.15891 0.61255 0.0
N2189 N 0.33602 0.0655 0.63106 0.0
H2190 H 0.63728 0.7737 0.59193 0.0
H2191 H 0.66054 0.06085 0.64911 0.0
H2192 H 0.70367 0.81415 0.62856 0.0
H2193 H 0.59733 0.02201 0.6075 0.0
H2194 H 0.67739 0.97199 0.64105 0.0
H2195 H 0.6227 0.86515 0.5973 0.0
C2196 C 0.64877 0.80181 0.60118 0.0
C2197 C 0.67168 0.7861 0.60991 0.0
C2198 C 0.65988 0.98304 0.63361 0.0
C2199 C 0.65517 0.89132 0.61598 0.0
C2200 C 0.65032 0.03392 0.63809 0.0
C2201 C 0.62737 0.04887 0.62913 0.0
C2202 C 0.64639 0.94679 0.62011 0.0
C2203 C 0.61485 1.01195 0.61516 0.0
C2204 C 0.6405 0.85418 0.60412 0.0
C2205 C 0.68596 0.82459 0.62139 0.0
N2206 N 0.62445 0.96267 0.61119 0.0
N2207 N 0.67742 0.87534 0.6242 0.0
loop_
_geom_bond_atom_site_label_1
_geom_bond_atom_site_label_2
_geom_bond_distance
_geom_bond_site_symmetry_2
_ccdc_geom_bond_type
C0 C2 1.422 . S
C0 C4 1.415 . S
C0 N6 1.369 . S
C1 C2 1.421 . S
C1 C3 1.417 . S
C1 C13 1.422 . S
C2 C0 1.422 . S
C2 C1 1.421 . S
C2 N12 1.359 . S
C3 C1 1.417 . S
C3 C5 1.329 . S
C3 H22 0.930 . S
C4 C0 1.415 . S
C4 C5 1.437 . S
C4 C8 1.413 . S
C5 C3 1.329 . S
C5 C4 1.437 . S
C5 H27 0.929 . S
N6 C0 1.369 . S
N6 C7 1.338 . S
N6 Gd11 2.622 . S
C7 N6 1.338 . S
C7 C9 1.378 . S
C7 H19 0.929 . S
C8 C4 1.413 . S
C8 C9 1.348 . S
C8 H24 0.931 . S
C9 C7 1.378 . S
C9 C8 1.348 . S
C9 H25 0.930 . S
Gd10 N30 2.622 . S
Gd10 N37 2.570 . S
Gd10 O44 2.353 . S
Gd10 O45 2.468 . S
Gd10 O46 2.427 . S
Gd10 O48 2.388 . S
Gd10 O49 2.386 . S
Gd10 O53 2.307 . S
Gd10 C63 2.805 . S
Gd11 N6 2.622 . S
Gd11 N12 2.570 . S
Gd11 O43 2.386 . S
Gd11 O47 2.307 . S
Gd11 O50 2.353 . S
Gd11 O51 2.468 1_545 S
Gd11 O52 2.427 1_545 S
Gd11 O54 2.388 . S
Gd11 C75 2.805 1_545 S
N12 C2 1.359 . S
N12 Gd11 2.570 . S
N12 C14 1.343 . S
C13 C1 1.422 . S
C13 C15 1.321 . S
C13 H21 0.928 1_545 S
C14 N12 1.343 . S
C14 C15 1.390 . S
C14 H16 0.931 . S
C15 C13 1.321 . S
C15 C14 1.390 . S
C15 H17 0.930 . S
H16 C14 0.931 . S
H17 C15 0.930 . S
H18 C41 0.931 . S
H19 C7 0.929 . S
H20 C42 0.930 . S
H21 C13 0.928 1_565 S
H22 C3 0.930 . S
H23 C32 0.929 . S
H24 C8 0.931 . S
H25 C9 0.930 . S
H26 C64 0.930 1_655 S
H27 C5 0.929 . S
H28 C33 0.931 . S
H29 C34 0.930 . S
N30 Gd10 2.622 . S
N30 C31 1.369 . S
N30 C32 1.338 . S
C31 N30 1.369 . S
C31 C35 1.415 . S
C31 C38 1.422 . S
C32 H23 0.929 . S
C32 N30 1.338 . S
C32 C34 1.378 . S
C33 H28 0.931 . S
C33 C34 1.348 . S
C33 C35 1.413 . S
C34 H29 0.930 . S
C34 C32 1.378 . S
C34 C33 1.348 . S
C35 C31 1.415 . S
C35 C33 1.413 . S
C35 C65 1.437 . S
H36 C65 0.929 1_655 S
N37 Gd10 2.570 . S
N37 C38 1.359 . S
N37 C41 1.343 . S
C38 C31 1.422 . S
C38 N37 1.359 . S
C38 C40 1.421 . S
C39 C40 1.422 . S
C39 C42 1.321 . S
C39 H66 0.931 . S
C40 C38 1.421 . S
C40 C39 1.422 . S
C40 C64 1.417 . S
C41 H18 0.931 . S
C41 N37 1.343 . S
C41 C42 1.390 . S
C42 H20 0.930 . S
C42 C39 1.321 . S
C42 C41 1.390 . S
O43 Gd11 2.386 . S
O43 C55 1.265 . S
O44 Gd10 2.353 . S
O44 C55 1.242 . S
O45 Gd10 2.468 . S
O45 C63 1.263 . S
O46 Gd10 2.427 . S
O46 C63 1.252 . S
O47 Gd11 2.307 . S
O47 C56 1.261 . S
O48 Gd10 2.388 . S
O48 C56 1.252 . S
O49 Gd10 2.386 . S
O49 C67 1.265 . S
O50 Gd11 2.353 . S
O50 C67 1.242 . S
O51 Gd11 2.468 1_565 S
O51 C75 1.263 . S
O52 Gd11 2.427 1_565 S
O52 C75 1.252 . S
O53 Gd10 2.307 . S
O53 C68 1.261 . S
O54 Gd11 2.388 . S
O54 C68 1.252 . S
C55 O43 1.265 . S
C55 O44 1.242 . S
C56 O47 1.261 . S
C56 O48 1.252 . S
C57 C60 1.394 . S
C57 C62 1.370 . S
C57 C63 1.500 . S
C58 C61 1.383 . S
C58 C62 1.395 . S
C59 C60 1.396 . S
C59 C61 1.365 . S
C59 H76 0.929 . S
C60 C57 1.394 . S
C60 C59 1.396 . S
C60 H77 0.930 . S
C61 C58 1.383 . S
C61 C59 1.365 . S
C61 H78 0.931 . S
C62 C57 1.370 . S
C62 C58 1.395 . S
C62 H79 0.930 . S
C63 Gd10 2.805 . S
C63 O45 1.263 . S
C63 O46 1.252 . S
C63 C57 1.500 . S
C64 H26 0.930 1_455 S
C64 C40 1.417 . S
C64 C65 1.329 . S
C65 C35 1.437 . S
C65 H36 0.929 1_455 S
C65 C64 1.329 . S
H66 C39 0.931 . S
C67 O49 1.265 . S
C67 O50 1.242 . S
C68 O53 1.261 . S
C68 O54 1.252 . S
C69 C72 1.394 . S
C69 C74 1.370 . S
C69 C75 1.500 . S
C70 C73 1.383 . S
C70 C74 1.395 . S
C71 C72 1.396 . S
C71 C73 1.365 . S
C71 H80 0.929 . S
C72 C69 1.394 . S
C72 C71 1.396 . S
C72 H81 0.930 . S
C73 C70 1.383 . S
C73 C71 1.365 . S
C73 H82 0.931 . S
C74 C69 1.370 . S
C74 C70 1.395 . S
C74 H83 0.930 . S
C75 Gd11 2.805 1_565 S
C75 O51 1.263 . S
C75 O52 1.252 . S
C75 C69 1.500 . S
H76 C59 0.929 . S
H77 C60 0.930 . S
H78 C61 0.931 . S
H79 C62 0.930 . S
H80 C71 0.929 . S
H81 C72 0.930 . S
H82 C73 0.931 . S
H83 C74 0.930 . S
C84 C86 1.422 . S
C84 C88 1.415 . S
C84 N90 1.369 . S
C85 C86 1.421 . S
C85 C87 1.417 . S
C85 C97 1.422 . S
C86 C84 1.422 . S
C86 C85 1.421 . S
C86 N96 1.359 . S
C87 C85 1.417 . S
C87 C89 1.329 . S
C87 H106 0.930 . S
C88 C84 1.415 . S
C88 C89 1.437 . S
C88 C92 1.413 . S
C89 C87 1.329 . S
C89 C88 1.437 . S
C89 H111 0.929 . S
N90 C84 1.369 . S
N90 C91 1.338 . S
N90 Gd95 2.622 . S
C91 N90 1.338 . S
C91 C93 1.378 . S
C91 H103 0.929 . S
C92 C88 1.413 . S
C92 C93 1.348 . S
C92 H108 0.931 . S
C93 C91 1.378 . S
C93 C92 1.348 . S
C93 H109 0.930 . S
Gd94 N114 2.622 . S
Gd94 N121 2.570 . S
Gd94 O128 2.353 . S
Gd94 O129 2.468 . S
Gd94 O130 2.427 . S
Gd94 O132 2.388 . S
Gd94 O133 2.386 . S
Gd94 O137 2.307 . S
Gd94 C147 2.805 . S
Gd95 N90 2.622 . S
Gd95 N96 2.570 . S
Gd95 O127 2.386 . S
Gd95 O131 2.307 . S
Gd95 O134 2.353 . S
Gd95 O135 2.468 1_565 S
Gd95 O136 2.427 1_565 S
Gd95 O138 2.388 . S
Gd95 C159 2.805 1_565 S
N96 C86 1.359 . S
N96 Gd95 2.570 . S
N96 C98 1.343 . S
C97 C85 1.422 . S
C97 C99 1.321 . S
C97 H105 0.928 1_565 S
C98 N96 1.343 . S
C98 C99 1.390 . S
C98 H100 0.931 . S
C99 C97 1.321 . S
C99 C98 1.390 . S
C99 H101 0.930 . S
H100 C98 0.931 . S
H101 C99 0.930 . S
H102 C125 0.931 . S
H103 C91 0.929 . S
H104 C126 0.930 . S
H105 C97 0.928 1_545 S
H106 C87 0.930 . S
H107 C116 0.929 . S
H108 C92 0.931 . S
H109 C93 0.930 . S
H110 C148 0.930 1_455 S
H111 C89 0.929 . S
H112 C117 0.931 . S
H113 C118 0.930 . S
N114 Gd94 2.622 . S
N114 C115 1.369 . S
N114 C116 1.338 . S
C115 N114 1.369 . S
C115 C119 1.415 . S
C115 C122 1.422 . S
C116 H107 0.929 . S
C116 N114 1.338 . S
C116 C118 1.378 . S
C117 H112 0.931 . S
C117 C118 1.348 . S
C117 C119 1.413 . S
C118 H113 0.930 . S
C118 C116 1.378 . S
C118 C117 1.348 . S
C119 C115 1.415 . S
C119 C117 1.413 . S
C119 C149 1.437 . S
H120 C149 0.929 1_455 S
N121 Gd94 2.570 . S
N121 C122 1.359 . S
N121 C125 1.343 . S
C122 C115 1.422 . S
C122 N121 1.359 . S
C122 C124 1.421 . S
C123 C124 1.422 . S
C123 C126 1.321 . S
C123 H150 0.931 . S
C124 C122 1.421 . S
C124 C123 1.422 . S
C124 C148 1.417 . S
C125 H102 0.931 . S
C125 N121 1.343 . S
C125 C126 1.390 . S
C126 H104 0.930 . S
C126 C123 1.321 . S
C126 C125 1.390 . S
O127 Gd95 2.386 . S
O127 C139 1.265 . S
O128 Gd94 2.353 . S
O128 C139 1.242 . S
O129 Gd94 2.468 . S
O129 C147 1.263 . S
O130 Gd94 2.427 . S
O130 C147 1.252 . S
O131 Gd95 2.307 . S
O131 C140 1.261 . S
O132 Gd94 2.388 . S
O132 C140 1.252 . S
O133 Gd94 2.386 . S
O133 C151 1.265 . S
O134 Gd95 2.353 . S
O134 C151 1.242 . S
O135 Gd95 2.468 1_545 S
O135 C159 1.263 . S
O136 Gd95 2.427 1_545 S
O136 C159 1.252 . S
O137 Gd94 2.307 . S
O137 C152 1.261 . S
O138 Gd95 2.388 . S
O138 C152 1.252 . S
C139 O127 1.265 . S
C139 O128 1.242 . S
C140 O131 1.261 . S
C140 O132 1.252 . S
C141 C144 1.394 . S
C141 C146 1.370 . S
C141 C147 1.500 . S
C142 C145 1.383 . S
C142 C146 1.395 . S
C143 C144 1.396 . S
C143 C145 1.365 . S
C143 H160 0.929 . S
C144 C141 1.394 . S
C144 C143 1.396 . S
C144 H161 0.930 . S
C145 C142 1.383 . S
C145 C143 1.365 . S
C145 H162 0.931 . S
C146 C141 1.370 . S
C146 C142 1.395 . S
C146 H163 0.930 . S
C147 Gd94 2.805 . S
C147 O129 1.263 . S
C147 O130 1.252 . S
C147 C141 1.500 . S
C148 H110 0.930 1_655 S
C148 C124 1.417 . S
C148 C149 1.329 . S
C149 C119 1.437 . S
C149 H120 0.929 1_655 S
C149 C148 1.329 . S
H150 C123 0.931 . S
C151 O133 1.265 . S
C151 O134 1.242 . S
C152 O137 1.261 . S
C152 O138 1.252 . S
C153 C156 1.394 . S
C153 C158 1.370 . S
C153 C159 1.500 . S
C154 C157 1.383 . S
C154 C158 1.395 . S
C155 C156 1.396 . S
C155 C157 1.365 . S
C155 H164 0.929 . S
C156 C153 1.394 . S
C156 C155 1.396 . S
C156 H165 0.930 . S
C157 C154 1.383 . S
C157 C155 1.365 . S
C157 H166 0.931 . S
C158 C153 1.370 . S
C158 C154 1.395 . S
C158 H167 0.930 . S
C159 Gd95 2.805 1_545 S
C159 O135 1.263 . S
C159 O136 1.252 . S
C159 C153 1.500 . S
H160 C143 0.929 . S
H161 C144 0.930 . S
H162 C145 0.931 . S
H163 C146 0.930 . S
H164 C155 0.929 . S
H165 C156 0.930 . S
H166 C157 0.931 . S
H167 C158 0.930 . S
C168 C170 1.422 . S
C168 C172 1.415 . S
C168 N174 1.369 . S
C169 C170 1.421 . S
C169 C171 1.417 . S
C169 C181 1.422 . S
C170 C168 1.422 . S
C170 C169 1.421 . S
C170 N180 1.359 . S
C171 C169 1.417 . S
C171 C173 1.329 . S
C171 H190 0.930 . S
C172 C168 1.415 . S
C172 C173 1.437 . S
C172 C176 1.413 . S
C173 C171 1.329 . S
C173 C172 1.437 . S
C173 H195 0.929 . S
N174 C168 1.369 . S
N174 C175 1.338 . S
N174 Gd179 2.622 . S
C175 N174 1.338 . S
C175 C177 1.378 . S
C175 H187 0.929 . S
C176 C172 1.413 . S
C176 C177 1.348 . S
C176 H192 0.931 . S
C177 C175 1.378 . S
C177 C176 1.348 . S
C177 H193 0.930 . S
Gd178 N198 2.622 . S
Gd178 N205 2.570 . S
Gd178 O212 2.353 . S
Gd178 O213 2.468 . S
Gd178 O214 2.427 . S
Gd178 O216 2.388 . S
Gd178 O217 2.386 . S
Gd178 O221 2.307 . S
Gd178 C231 2.805 . S
Gd179 N174 2.622 . S
Gd179 N180 2.570 . S
Gd179 O211 2.386 . S
Gd179 O215 2.307 . S
Gd179 O218 2.353 . S
Gd179 O219 2.468 1_565 S
Gd179 O220 2.427 1_565 S
Gd179 O222 2.388 . S
Gd179 C243 2.805 1_565 S
N180 C170 1.359 . S
N180 Gd179 2.570 . S
N180 C182 1.343 . S
C181 C169 1.422 . S
C181 C183 1.321 . S
C181 H189 0.928 1_565 S
C182 N180 1.343 . S
C182 C183 1.390 . S
C182 H184 0.931 . S
C183 C181 1.321 . S
C183 C182 1.390 . S
C183 H185 0.930 . S
H184 C182 0.931 . S
H185 C183 0.930 . S
H186 C209 0.931 . S
H187 C175 0.929 . S
H188 C210 0.930 . S
H189 C181 0.928 1_545 S
H190 C171 0.930 . S
H191 C200 0.929 . S
H192 C176 0.931 . S
H193 C177 0.930 . S
H194 C232 0.930 1_655 S
H195 C173 0.929 . S
H196 C201 0.931 . S
H197 C202 0.930 . S
N198 Gd178 2.622 . S
N198 C199 1.369 . S
N198 C200 1.338 . S
C199 N198 1.369 . S
C199 C203 1.415 . S
C199 C206 1.422 . S
C200 H191 0.929 . S
C200 N198 1.338 . S
C200 C202 1.378 . S
C201 H196 0.931 . S
C201 C202 1.348 . S
C201 C203 1.413 . S
C202 H197 0.930 . S
C202 C200 1.378 . S
C202 C201 1.348 . S
C203 C199 1.415 . S
C203 C201 1.413 . S
C203 C233 1.437 . S
H204 C233 0.929 1_655 S
N205 Gd178 2.570 . S
N205 C206 1.359 . S
N205 C209 1.343 . S
C206 C199 1.422 . S
C206 N205 1.359 . S
C206 C208 1.421 . S
C207 C208 1.422 . S
C207 C210 1.321 . S
C207 H234 0.931 . S
C208 C206 1.421 . S
C208 C207 1.422 . S
C208 C232 1.417 . S
C209 H186 0.931 . S
C209 N205 1.343 . S
C209 C210 1.390 . S
C210 H188 0.930 . S
C210 C207 1.321 . S
C210 C209 1.390 . S
O211 Gd179 2.386 . S
O211 C223 1.265 . S
O212 Gd178 2.353 . S
O212 C223 1.242 . S
O213 Gd178 2.468 . S
O213 C231 1.263 . S
O214 Gd178 2.427 . S
O214 C231 1.252 . S
O215 Gd179 2.307 . S
O215 C224 1.261 . S
O216 Gd178 2.388 . S
O216 C224 1.252 . S
O217 Gd178 2.386 . S
O217 C235 1.265 . S
O218 Gd179 2.353 . S
O218 C235 1.242 . S
O219 Gd179 2.468 1_545 S
O219 C243 1.263 . S
O220 Gd179 2.427 1_545 S
O220 C243 1.252 . S
O221 Gd178 2.307 . S
O221 C236 1.261 . S
O222 Gd179 2.388 . S
O222 C236 1.252 . S
C223 O211 1.265 . S
C223 O212 1.242 . S
C224 O215 1.261 . S
C224 O216 1.252 . S
C225 C228 1.394 . S
C225 C230 1.370 . S
C225 C231 1.500 . S
C226 C229 1.383 . S
C226 C230 1.395 . S
C227 C228 1.396 . S
C227 C229 1.365 . S
C227 H244 0.929 . S
C228 C225 1.394 . S
C228 C227 1.396 . S
C228 H245 0.930 . S
C229 C226 1.383 . S
C229 C227 1.365 . S
C229 H246 0.931 . S
C230 C225 1.370 . S
C230 C226 1.395 . S
C230 H247 0.930 . S
C231 Gd178 2.805 . S
C231 O213 1.263 . S
C231 O214 1.252 . S
C231 C225 1.500 . S
C232 H194 0.930 1_455 S
C232 C208 1.417 . S
C232 C233 1.329 . S
C233 C203 1.437 . S
C233 H204 0.929 1_455 S
C233 C232 1.329 . S
H234 C207 0.931 . S
C235 O217 1.265 . S
C235 O218 1.242 . S
C236 O221 1.261 . S
C236 O222 1.252 . S
C237 C240 1.394 . S
C237 C242 1.370 . S
C237 C243 1.500 . S
C238 C241 1.383 . S
C238 C242 1.395 . S
C239 C240 1.396 . S
C239 C241 1.365 . S
C239 H248 0.929 . S
C240 C237 1.394 . S
C240 C239 1.396 . S
C240 H249 0.930 . S
C241 C238 1.383 . S
C241 C239 1.365 . S
C241 H250 0.931 . S
C242 C237 1.370 . S
C242 C238 1.395 . S
C242 H251 0.930 . S
C243 Gd179 2.805 1_545 S
C243 O219 1.263 . S
C243 O220 1.252 . S
C243 C237 1.500 . S
H244 C227 0.929 . S
H245 C228 0.930 . S
H246 C229 0.931 . S
H247 C230 0.930 . S
H248 C239 0.929 . S
H249 C240 0.930 . S
H250 C241 0.931 . S
H251 C242 0.930 . S
C252 C254 1.422 . S
C252 C256 1.415 . S
C252 N258 1.369 . S
C253 C254 1.421 . S
C253 C255 1.417 . S
C253 C265 1.422 . S
C254 C252 1.422 . S
C254 C253 1.421 . S
C254 N264 1.359 . S
C255 C253 1.417 . S
C255 C257 1.329 . S
C255 H274 0.930 . S
C256 C252 1.415 . S
C256 C257 1.437 . S
C256 C260 1.413 . S
C257 C255 1.329 . S
C257 C256 1.437 . S
C257 H279 0.929 . S
N258 C252 1.369 . S
N258 C259 1.338 . S
N258 Gd263 2.622 . S
C259 N258 1.338 . S
C259 C261 1.378 . S
C259 H271 0.929 . S
C260 C256 1.413 . S
C260 C261 1.348 . S
C260 H276 0.931 . S
C261 C259 1.378 . S
C261 C260 1.348 . S
C261 H277 0.930 . S
Gd262 N282 2.622 . S
Gd262 N289 2.570 . S
Gd262 O296 2.353 . S
Gd262 O297 2.468 . S
Gd262 O298 2.427 . S
Gd262 O300 2.388 . S
Gd262 O301 2.386 . S
Gd262 O305 2.307 . S
Gd262 C315 2.805 . S
Gd263 N258 2.622 . S
Gd263 N264 2.570 . S
Gd263 O295 2.386 . S
Gd263 O299 2.307 . S
Gd263 O302 2.353 . S
Gd263 O303 2.468 1_545 S
Gd263 O304 2.427 1_545 S
Gd263 O306 2.388 . S
Gd263 C327 2.805 1_545 S
N264 C254 1.359 . S
N264 Gd263 2.570 . S
N264 C266 1.343 . S
C265 C253 1.422 . S
C265 C267 1.321 . S
C265 H273 0.928 1_545 S
C266 N264 1.343 . S
C266 C267 1.390 . S
C266 H268 0.931 . S
C267 C265 1.321 . S
C267 C266 1.390 . S
C267 H269 0.930 . S
H268 C266 0.931 . S
H269 C267 0.930 . S
H270 C293 0.931 . S
H271 C259 0.929 . S
H272 C294 0.930 . S
H273 C265 0.928 1_565 S
H274 C255 0.930 . S
H275 C284 0.929 . S
H276 C260 0.931 . S
H277 C261 0.930 . S
H278 C316 0.930 1_455 S
H279 C257 0.929 . S
H280 C285 0.931 . S
H281 C286 0.930 . S
N282 Gd262 2.622 . S
N282 C283 1.369 . S
N282 C284 1.338 . S
C283 N282 1.369 . S
C283 C287 1.415 . S
C283 C290 1.422 . S
C284 H275 0.929 . S
C284 N282 1.338 . S
C284 C286 1.378 . S
C285 H280 0.931 . S
C285 C286 1.348 . S
C285 C287 1.413 . S
C286 H281 0.930 . S
C286 C284 1.378 . S
C286 C285 1.348 . S
C287 C283 1.415 . S
C287 C285 1.413 . S
C287 C317 1.437 . S
H288 C317 0.929 1_455 S
N289 Gd262 2.570 . S
N289 C290 1.359 . S
N289 C293 1.343 . S
C290 C283 1.422 . S
C290 N289 1.359 . S
C290 C292 1.421 . S
C291 C292 1.422 . S
C291 C294 1.321 . S
C291 H318 0.931 . S
C292 C290 1.421 . S
C292 C291 1.422 . S
C292 C316 1.417 . S
C293 H270 0.931 . S
C293 N289 1.343 . S
C293 C294 1.390 . S
C294 H272 0.930 . S
C294 C291 1.321 . S
C294 C293 1.390 . S
O295 Gd263 2.386 . S
O295 C307 1.265 . S
O296 Gd262 2.353 . S
O296 C307 1.242 . S
O297 Gd262 2.468 . S
O297 C315 1.263 . S
O298 Gd262 2.427 . S
O298 C315 1.252 . S
O299 Gd263 2.307 . S
O299 C308 1.261 . S
O300 Gd262 2.388 . S
O300 C308 1.252 . S
O301 Gd262 2.386 . S
O301 C319 1.265 . S
O302 Gd263 2.353 . S
O302 C319 1.242 . S
O303 Gd263 2.468 1_565 S
O303 C327 1.263 . S
O304 Gd263 2.427 1_565 S
O304 C327 1.252 . S
O305 Gd262 2.307 . S
O305 C320 1.261 . S
O306 Gd263 2.388 . S
O306 C320 1.252 . S
C307 O295 1.265 . S
C307 O296 1.242 . S
C308 O299 1.261 . S
C308 O300 1.252 . S
C309 C312 1.394 . S
C309 C314 1.370 . S
C309 C315 1.500 . S
C310 C313 1.383 . S
C310 C314 1.395 . S
C311 C312 1.396 . S
C311 C313 1.365 . S
C311 H328 0.929 . S
C312 C309 1.394 . S
C312 C311 1.396 . S
C312 H329 0.930 . S
C313 C310 1.383 . S
C313 C311 1.365 . S
C313 H330 0.931 . S
C314 C309 1.370 . S
C314 C310 1.395 . S
C314 H331 0.930 . S
C315 Gd262 2.805 . S
C315 O297 1.263 . S
C315 O298 1.252 . S
C315 C309 1.500 . S
C316 H278 0.930 1_655 S
C316 C292 1.417 . S
C316 C317 1.329 . S
C317 C287 1.437 . S
C317 H288 0.929 1_655 S
C317 C316 1.329 . S
H318 C291 0.931 . S
C319 O301 1.265 . S
C319 O302 1.242 . S
C320 O305 1.261 . S
C320 O306 1.252 . S
C321 C324 1.394 . S
C321 C326 1.370 . S
C321 C327 1.500 . S
C322 C325 1.383 . S
C322 C326 1.395 . S
C323 C324 1.396 . S
C323 C325 1.365 . S
C323 H332 0.929 . S
C324 C321 1.394 . S
C324 C323 1.396 . S
C324 H333 0.930 . S
C325 C322 1.383 . S
C325 C323 1.365 . S
C325 H334 0.931 . S
C326 C321 1.370 . S
C326 C322 1.395 . S
C326 H335 0.930 . S
C327 Gd263 2.805 1_565 S
C327 O303 1.263 . S
C327 O304 1.252 . S
C327 C321 1.500 . S
H328 C311 0.929 . S
H329 C312 0.930 . S
H330 C313 0.931 . S
H331 C314 0.930 . S
H332 C323 0.929 . S
H333 C324 0.930 . S
H334 C325 0.931 . S
H335 C326 0.930 . S
C336 C338 1.422 . S
C336 C340 1.415 . S
C336 N342 1.369 . S
C337 C338 1.421 . S
C337 C339 1.417 . S
C337 C349 1.422 . S
C338 C336 1.422 . S
C338 C337 1.421 . S
C338 N348 1.359 . S
C339 C337 1.417 . S
C339 C341 1.329 . S
C339 H358 0.930 1_655 S
C340 C336 1.415 . S
C340 C341 1.437 . S
C340 C344 1.413 . S
C341 C339 1.329 . S
C341 C340 1.437 . S
C341 H363 0.929 1_655 S
N342 C336 1.369 . S
N342 C343 1.338 . S
N342 Gd347 2.622 . S
C343 N342 1.338 . S
C343 C345 1.378 . S
C343 H355 0.929 . S
C344 C340 1.413 . S
C344 C345 1.348 . S
C344 H360 0.931 . S
C345 C343 1.378 . S
C345 C344 1.348 . S
C345 H361 0.930 . S
Gd346 N366 2.622 . S
Gd346 N373 2.570 . S
Gd346 O380 2.353 . S
Gd346 O381 2.468 1_565 S
Gd346 O382 2.427 1_565 S
Gd346 O384 2.388 . S
Gd346 O385 2.386 . S
Gd346 O389 2.307 . S
Gd346 C399 2.805 1_565 S
Gd347 N342 2.622 . S
Gd347 N348 2.570 . S
Gd347 O379 2.386 . S
Gd347 O383 2.307 . S
Gd347 O386 2.353 . S
Gd347 O387 2.468 . S
Gd347 O388 2.427 . S
Gd347 O390 2.388 . S
Gd347 C411 2.805 . S
N348 C338 1.359 . S
N348 Gd347 2.570 . S
N348 C350 1.343 . S
C349 C337 1.422 . S
C349 C351 1.321 . S
C349 H357 0.931 . S
C350 N348 1.343 . S
C350 C351 1.390 . S
C350 H352 0.931 . S
C351 C349 1.321 . S
C351 C350 1.390 . S
C351 H353 0.930 . S
H352 C350 0.931 . S
H353 C351 0.930 . S
H354 C377 0.931 . S
H355 C343 0.929 . S
H356 C378 0.930 . S
H357 C349 0.931 . S
H358 C339 0.930 1_455 S
H359 C368 0.929 . S
H360 C344 0.931 . S
H361 C345 0.930 . S
H362 C400 0.930 . S
H363 C341 0.929 1_455 S
H364 C369 0.931 . S
H365 C370 0.930 . S
N366 Gd346 2.622 . S
N366 C367 1.369 . S
N366 C368 1.338 . S
C367 N366 1.369 . S
C367 C371 1.415 . S
C367 C374 1.422 . S
C368 H359 0.929 . S
C368 N366 1.338 . S
C368 C370 1.378 . S
C369 H364 0.931 . S
C369 C370 1.348 . S
C369 C371 1.413 . S
C370 H365 0.930 . S
C370 C368 1.378 . S
C370 C369 1.348 . S
C371 C367 1.415 . S
C371 C369 1.413 . S
C371 C401 1.437 . S
H372 C401 0.929 . S
N373 Gd346 2.570 . S
N373 C374 1.359 . S
N373 C377 1.343 . S
C374 C367 1.422 . S
C374 N373 1.359 . S
C374 C376 1.421 . S
C375 C376 1.422 . S
C375 C378 1.321 . S
C375 H402 0.928 1_565 S
C376 C374 1.421 . S
C376 C375 1.422 . S
C376 C400 1.417 . S
C377 H354 0.931 . S
C377 N373 1.343 . S
C377 C378 1.390 . S
C378 H356 0.930 . S
C378 C375 1.321 . S
C378 C377 1.390 . S
O379 Gd347 2.386 . S
O379 C391 1.265 . S
O380 Gd346 2.353 . S
O380 C391 1.242 . S
O381 Gd346 2.468 1_545 S
O381 C399 1.263 . S
O382 Gd346 2.427 1_545 S
O382 C399 1.252 . S
O383 Gd347 2.307 . S
O383 C392 1.261 . S
O384 Gd346 2.388 . S
O384 C392 1.252 . S
O385 Gd346 2.386 . S
O385 C403 1.265 . S
O386 Gd347 2.353 . S
O386 C403 1.242 . S
O387 Gd347 2.468 . S
O387 C411 1.263 . S
O388 Gd347 2.427 . S
O388 C411 1.252 . S
O389 Gd346 2.307 . S
O389 C404 1.261 . S
O390 Gd347 2.388 . S
O390 C404 1.252 . S
C391 O379 1.265 . S
C391 O380 1.242 . S
C392 O383 1.261 . S
C392 O384 1.252 . S
C393 C396 1.394 . S
C393 C398 1.370 . S
C393 C399 1.500 . S
C394 C397 1.383 . S
C394 C398 1.395 . S
C395 C396 1.396 . S
C395 C397 1.365 . S
C395 H412 0.929 . S
C396 C393 1.394 . S
C396 C395 1.396 . S
C396 H413 0.930 . S
C397 C394 1.383 . S
C397 C395 1.365 . S
C397 H414 0.931 . S
C398 C393 1.370 . S
C398 C394 1.395 . S
C398 H415 0.930 . S
C399 Gd346 2.805 1_545 S
C399 O381 1.263 . S
C399 O382 1.252 . S
C399 C393 1.500 . S
C400 H362 0.930 . S
C400 C376 1.417 . S
C400 C401 1.329 . S
C401 C371 1.437 . S
C401 H372 0.929 . S
C401 C400 1.329 . S
H402 C375 0.928 1_545 S
C403 O385 1.265 . S
C403 O386 1.242 . S
C404 O389 1.261 . S
C404 O390 1.252 . S
C405 C408 1.394 . S
C405 C410 1.370 . S
C405 C411 1.500 . S
C406 C409 1.383 . S
C406 C410 1.395 . S
C407 C408 1.396 . S
C407 C409 1.365 . S
C407 H416 0.929 . S
C408 C405 1.394 . S
C408 C407 1.396 . S
C408 H417 0.930 . S
C409 C406 1.383 . S
C409 C407 1.365 . S
C409 H418 0.931 . S
C410 C405 1.370 . S
C410 C406 1.395 . S
C410 H419 0.930 . S
C411 Gd347 2.805 . S
C411 O387 1.263 . S
C411 O388 1.252 . S
C411 C405 1.500 . S
H412 C395 0.929 . S
H413 C396 0.930 . S
H414 C397 0.931 . S
H415 C398 0.930 . S
H416 C407 0.929 . S
H417 C408 0.930 . S
H418 C409 0.931 . S
H419 C410 0.930 . S
C420 C422 1.422 . S
C420 C424 1.415 . S
C420 N426 1.369 . S
C421 C422 1.421 . S
C421 C423 1.417 . S
C421 C433 1.422 . S
C422 C420 1.422 . S
C422 C421 1.421 . S
C422 N432 1.359 . S
C423 C421 1.417 . S
C423 C425 1.329 . S
C423 H442 0.930 1_455 S
C424 C420 1.415 . S
C424 C425 1.437 . S
C424 C428 1.413 . S
C425 C423 1.329 . S
C425 C424 1.437 . S
C425 H447 0.929 1_455 S
N426 C420 1.369 . S
N426 C427 1.338 . S
N426 Gd431 2.622 . S
C427 N426 1.338 . S
C427 C429 1.378 . S
C427 H439 0.929 . S
C428 C424 1.413 . S
C428 C429 1.348 . S
C428 H444 0.931 . S
C429 C427 1.378 . S
C429 C428 1.348 . S
C429 H445 0.930 . S
Gd430 N450 2.622 . S
Gd430 N457 2.570 . S
Gd430 O464 2.353 . S
Gd430 O465 2.468 1_545 S
Gd430 O466 2.427 1_545 S
Gd430 O468 2.388 . S
Gd430 O469 2.386 . S
Gd430 O473 2.307 . S
Gd430 C483 2.805 1_545 S
Gd431 N426 2.622 . S
Gd431 N432 2.570 . S
Gd431 O463 2.386 . S
Gd431 O467 2.307 . S
Gd431 O470 2.353 . S
Gd431 O471 2.468 . S
Gd431 O472 2.427 . S
Gd431 O474 2.388 . S
Gd431 C495 2.805 . S
N432 C422 1.359 . S
N432 Gd431 2.570 . S
N432 C434 1.343 . S
C433 C421 1.422 . S
C433 C435 1.321 . S
C433 H441 0.931 . S
C434 N432 1.343 . S
C434 C435 1.390 . S
C434 H436 0.931 . S
C435 C433 1.321 . S
C435 C434 1.390 . S
C435 H437 0.930 . S
H436 C434 0.931 . S
H437 C435 0.930 . S
H438 C461 0.931 . S
H439 C427 0.929 . S
H440 C462 0.930 . S
H441 C433 0.931 . S
H442 C423 0.930 1_655 S
H443 C452 0.929 . S
H444 C428 0.931 . S
H445 C429 0.930 . S
H446 C484 0.930 . S
H447 C425 0.929 1_655 S
H448 C453 0.931 . S
H449 C454 0.930 . S
N450 Gd430 2.622 . S
N450 C451 1.369 . S
N450 C452 1.338 . S
C451 N450 1.369 . S
C451 C455 1.415 . S
C451 C458 1.422 . S
C452 H443 0.929 . S
C452 N450 1.338 . S
C452 C454 1.378 . S
C453 H448 0.931 . S
C453 C454 1.348 . S
C453 C455 1.413 . S
C454 H449 0.930 . S
C454 C452 1.378 . S
C454 C453 1.348 . S
C455 C451 1.415 . S
C455 C453 1.413 . S
C455 C485 1.437 . S
H456 C485 0.929 . S
N457 Gd430 2.570 . S
N457 C458 1.359 . S
N457 C461 1.343 . S
C458 C451 1.422 . S
C458 N457 1.359 . S
C458 C460 1.421 . S
C459 C460 1.422 . S
C459 C462 1.321 . S
C459 H486 0.928 1_545 S
C460 C458 1.421 . S
C460 C459 1.422 . S
C460 C484 1.417 . S
C461 H438 0.931 . S
C461 N457 1.343 . S
C461 C462 1.390 . S
C462 H440 0.930 . S
C462 C459 1.321 . S
C462 C461 1.390 . S
O463 Gd431 2.386 . S
O463 C475 1.265 . S
O464 Gd430 2.353 . S
O464 C475 1.242 . S
O465 Gd430 2.468 1_565 S
O465 C483 1.263 . S
O466 Gd430 2.427 1_565 S
O466 C483 1.252 . S
O467 Gd431 2.307 . S
O467 C476 1.261 . S
O468 Gd430 2.388 . S
O468 C476 1.252 . S
O469 Gd430 2.386 . S
O469 C487 1.265 . S
O470 Gd431 2.353 . S
O470 C487 1.242 . S
O471 Gd431 2.468 . S
O471 C495 1.263 . S
O472 Gd431 2.427 . S
O472 C495 1.252 . S
O473 Gd430 2.307 . S
O473 C488 1.261 . S
O474 Gd431 2.388 . S
O474 C488 1.252 . S
C475 O463 1.265 . S
C475 O464 1.242 . S
C476 O467 1.261 . S
C476 O468 1.252 . S
C477 C480 1.394 . S
C477 C482 1.370 . S
C477 C483 1.500 . S
C478 C481 1.383 . S
C478 C482 1.395 . S
C479 C480 1.396 . S
C479 C481 1.365 . S
C479 H496 0.929 . S
C480 C477 1.394 . S
C480 C479 1.396 . S
C480 H497 0.930 . S
C481 C478 1.383 . S
C481 C479 1.365 . S
C481 H498 0.931 . S
C482 C477 1.370 . S
C482 C478 1.395 . S
C482 H499 0.930 . S
C483 Gd430 2.805 1_565 S
C483 O465 1.263 . S
C483 O466 1.252 . S
C483 C477 1.500 . S
C484 H446 0.930 . S
C484 C460 1.417 . S
C484 C485 1.329 . S
C485 C455 1.437 . S
C485 H456 0.929 . S
C485 C484 1.329 . S
H486 C459 0.928 1_565 S
C487 O469 1.265 . S
C487 O470 1.242 . S
C488 O473 1.261 . S
C488 O474 1.252 . S
C489 C492 1.394 . S
C489 C494 1.370 . S
C489 C495 1.500 . S
C490 C493 1.383 . S
C490 C494 1.395 . S
C491 C492 1.396 . S
C491 C493 1.365 . S
C491 H500 0.929 . S
C492 C489 1.394 . S
C492 C491 1.396 . S
C492 H501 0.930 . S
C493 C490 1.383 . S
C493 C491 1.365 . S
C493 H502 0.931 . S
C494 C489 1.370 . S
C494 C490 1.395 . S
C494 H503 0.930 . S
C495 Gd431 2.805 . S
C495 O471 1.263 . S
C495 O472 1.252 . S
C495 C489 1.500 . S
H496 C479 0.929 . S
H497 C480 0.930 . S
H498 C481 0.931 . S
H499 C482 0.930 . S
H500 C491 0.929 . S
H501 C492 0.930 . S
H502 C493 0.931 . S
H503 C494 0.930 . S
C504 C506 1.422 . S
C504 C508 1.415 . S
C504 N510 1.369 . S
C505 C506 1.421 . S
C505 C507 1.417 . S
C505 C517 1.422 . S
C506 C504 1.422 . S
C506 C505 1.421 . S
C506 N516 1.359 . S
C507 C505 1.417 . S
C507 C509 1.329 . S
C507 H526 0.930 1_655 S
C508 C504 1.415 . S
C508 C509 1.437 . S
C508 C512 1.413 . S
C509 C507 1.329 . S
C509 C508 1.437 . S
C509 H531 0.929 1_655 S
N510 C504 1.369 . S
N510 C511 1.338 . S
N510 Gd515 2.622 . S
C511 N510 1.338 . S
C511 C513 1.378 . S
C511 H523 0.929 . S
C512 C508 1.413 . S
C512 C513 1.348 . S
C512 H528 0.931 . S
C513 C511 1.378 . S
C513 C512 1.348 . S
C513 H529 0.930 . S
Gd514 N534 2.622 . S
Gd514 N541 2.570 . S
Gd514 O548 2.353 . S
Gd514 O549 2.468 1_545 S
Gd514 O550 2.427 1_545 S
Gd514 O552 2.388 . S
Gd514 O553 2.386 . S
Gd514 O557 2.307 . S
Gd514 C567 2.805 1_545 S
Gd515 N510 2.622 . S
Gd515 N516 2.570 . S
Gd515 O547 2.386 . S
Gd515 O551 2.307 . S
Gd515 O554 2.353 . S
Gd515 O555 2.468 . S
Gd515 O556 2.427 . S
Gd515 O558 2.388 . S
Gd515 C579 2.805 . S
N516 C506 1.359 . S
N516 Gd515 2.570 . S
N516 C518 1.343 . S
C517 C505 1.422 . S
C517 C519 1.321 . S
C517 H525 0.931 . S
C518 N516 1.343 . S
C518 C519 1.390 . S
C518 H520 0.931 . S
C519 C517 1.321 . S
C519 C518 1.390 . S
C519 H521 0.930 . S
H520 C518 0.931 . S
H521 C519 0.930 . S
H522 C545 0.931 . S
H523 C511 0.929 . S
H524 C546 0.930 . S
H525 C517 0.931 . S
H526 C507 0.930 1_455 S
H527 C536 0.929 . S
H528 C512 0.931 . S
H529 C513 0.930 . S
H530 C568 0.930 . S
H531 C509 0.929 1_455 S
H532 C537 0.931 . S
H533 C538 0.930 . S
N534 Gd514 2.622 . S
N534 C535 1.369 . S
N534 C536 1.338 . S
C535 N534 1.369 . S
C535 C539 1.415 . S
C535 C542 1.422 . S
C536 H527 0.929 . S
C536 N534 1.338 . S
C536 C538 1.378 . S
C537 H532 0.931 . S
C537 C538 1.348 . S
C537 C539 1.413 . S
C538 H533 0.930 . S
C538 C536 1.378 . S
C538 C537 1.348 . S
C539 C535 1.415 . S
C539 C537 1.413 . S
C539 C569 1.437 . S
H540 C569 0.929 . S
N541 Gd514 2.570 . S
N541 C542 1.359 . S
N541 C545 1.343 . S
C542 C535 1.422 . S
C542 N541 1.359 . S
C542 C544 1.421 . S
C543 C544 1.422 . S
C543 C546 1.321 . S
C543 H570 0.928 1_545 S
C544 C542 1.421 . S
C544 C543 1.422 . S
C544 C568 1.417 . S
C545 H522 0.931 . S
C545 N541 1.343 . S
C545 C546 1.390 . S
C546 H524 0.930 . S
C546 C543 1.321 . S
C546 C545 1.390 . S
O547 Gd515 2.386 . S
O547 C559 1.265 . S
O548 Gd514 2.353 . S
O548 C559 1.242 . S
O549 Gd514 2.468 1_565 S
O549 C567 1.263 . S
O550 Gd514 2.427 1_565 S
O550 C567 1.252 . S
O551 Gd515 2.307 . S
O551 C560 1.261 . S
O552 Gd514 2.388 . S
O552 C560 1.252 . S
O553 Gd514 2.386 . S
O553 C571 1.265 . S
O554 Gd515 2.353 . S
O554 C571 1.242 . S
O555 Gd515 2.468 . S
O555 C579 1.263 . S
O556 Gd515 2.427 . S
O556 C579 1.252 . S
O557 Gd514 2.307 . S
O557 C572 1.261 . S
O558 Gd515 2.388 . S
O558 C572 1.252 . S
C559 O547 1.265 . S
C559 O548 1.242 . S
C560 O551 1.261 . S
C560 O552 1.252 . S
C561 C564 1.394 . S
C561 C566 1.370 . S
C561 C567 1.500 . S
C562 C565 1.383 . S
C562 C566 1.395 . S
C563 C564 1.396 . S
C563 C565 1.365 . S
C563 H580 0.929 . S
C564 C561 1.394 . S
C564 C563 1.396 . S
C564 H581 0.930 . S
C565 C562 1.383 . S
C565 C563 1.365 . S
C565 H582 0.931 . S
C566 C561 1.370 . S
C566 C562 1.395 . S
C566 H583 0.930 . S
C567 Gd514 2.805 1_565 S
C567 O549 1.263 . S
C567 O550 1.252 . S
C567 C561 1.500 . S
C568 H530 0.930 . S
C568 C544 1.417 . S
C568 C569 1.329 . S
C569 C539 1.437 . S
C569 H540 0.929 . S
C569 C568 1.329 . S
H570 C543 0.928 1_565 S
C571 O553 1.265 . S
C571 O554 1.242 . S
C572 O557 1.261 . S
C572 O558 1.252 . S
C573 C576 1.394 . S
C573 C578 1.370 . S
C573 C579 1.500 . S
C574 C577 1.383 . S
C574 C578 1.395 . S
C575 C576 1.396 . S
C575 C577 1.365 . S
C575 H584 0.929 . S
C576 C573 1.394 . S
C576 C575 1.396 . S
C576 H585 0.930 . S
C577 C574 1.383 . S
C577 C575 1.365 . S
C577 H586 0.931 . S
C578 C573 1.370 . S
C578 C574 1.395 . S
C578 H587 0.930 . S
C579 Gd515 2.805 . S
C579 O555 1.263 . S
C579 O556 1.252 . S
C579 C573 1.500 . S
H580 C563 0.929 . S
H581 C564 0.930 . S
H582 C565 0.931 . S
H583 C566 0.930 . S
H584 C575 0.929 . S
H585 C576 0.930 . S
H586 C577 0.931 . S
H587 C578 0.930 . S
C588 C590 1.422 . S
C588 C592 1.415 . S
C588 N594 1.369 . S
C589 C590 1.421 . S
C589 C591 1.417 . S
C589 C601 1.422 . S
C590 C588 1.422 . S
C590 C589 1.421 . S
C590 N600 1.359 . S
C591 C589 1.417 . S
C591 C593 1.329 . S
C591 H610 0.930 1_455 S
C592 C588 1.415 . S
C592 C593 1.437 . S
C592 C596 1.413 . S
C593 C591 1.329 . S
C593 C592 1.437 . S
C593 H615 0.929 1_455 S
N594 C588 1.369 . S
N594 C595 1.338 . S
N594 Gd599 2.622 . S
C595 N594 1.338 . S
C595 C597 1.378 . S
C595 H607 0.929 . S
C596 C592 1.413 . S
C596 C597 1.348 . S
C596 H612 0.931 . S
C597 C595 1.378 . S
C597 C596 1.348 . S
C597 H613 0.930 . S
Gd598 N618 2.622 . S
Gd598 N625 2.570 . S
Gd598 O632 2.353 . S
Gd598 O633 2.468 1_565 S
Gd598 O634 2.427 1_565 S
Gd598 O636 2.388 . S
Gd598 O637 2.386 . S
Gd598 O641 2.307 . S
Gd598 C651 2.805 1_565 S
Gd599 N594 2.622 . S
Gd599 N600 2.570 . S
Gd599 O631 2.386 . S
Gd599 O635 2.307 . S
Gd599 O638 2.353 . S
Gd599 O639 2.468 . S
Gd599 O640 2.427 . S
Gd599 O642 2.388 . S
Gd599 C663 2.805 . S
N600 C590 1.359 . S
N600 Gd599 2.570 . S
N600 C602 1.343 . S
C601 C589 1.422 . S
C601 C603 1.321 . S
C601 H609 0.931 . S
C602 N600 1.343 . S
C602 C603 1.390 . S
C602 H604 0.931 . S
C603 C601 1.321 . S
C603 C602 1.390 . S
C603 H605 0.930 . S
H604 C602 0.931 . S
H605 C603 0.930 . S
H606 C629 0.931 . S
H607 C595 0.929 . S
H608 C630 0.930 . S
H609 C601 0.931 . S
H610 C591 0.930 1_655 S
H611 C620 0.929 . S
H612 C596 0.931 . S
H613 C597 0.930 . S
H614 C652 0.930 . S
H615 C593 0.929 1_655 S
H616 C621 0.931 . S
H617 C622 0.930 . S
N618 Gd598 2.622 . S
N618 C619 1.369 . S
N618 C620 1.338 . S
C619 N618 1.369 . S
C619 C623 1.415 . S
C619 C626 1.422 . S
C620 H611 0.929 . S
C620 N618 1.338 . S
C620 C622 1.378 . S
C621 H616 0.931 . S
C621 C622 1.348 . S
C621 C623 1.413 . S
C622 H617 0.930 . S
C622 C620 1.378 . S
C622 C621 1.348 . S
C623 C619 1.415 . S
C623 C621 1.413 . S
C623 C653 1.437 . S
H624 C653 0.929 . S
N625 Gd598 2.570 . S
N625 C626 1.359 . S
N625 C629 1.343 . S
C626 C619 1.422 . S
C626 N625 1.359 . S
C626 C628 1.421 . S
C627 C628 1.422 . S
C627 C630 1.321 . S
C627 H654 0.928 1_565 S
C628 C626 1.421 . S
C628 C627 1.422 . S
C628 C652 1.417 . S
C629 H606 0.931 . S
C629 N625 1.343 . S
C629 C630 1.390 . S
C630 H608 0.930 . S
C630 C627 1.321 . S
C630 C629 1.390 . S
O631 Gd599 2.386 . S
O631 C643 1.265 . S
O632 Gd598 2.353 . S
O632 C643 1.242 . S
O633 Gd598 2.468 1_545 S
O633 C651 1.263 . S
O634 Gd598 2.427 1_545 S
O634 C651 1.252 . S
O635 Gd599 2.307 . S
O635 C644 1.261 . S
O636 Gd598 2.388 . S
O636 C644 1.252 . S
O637 Gd598 2.386 . S
O637 C655 1.265 . S
O638 Gd599 2.353 . S
O638 C655 1.242 . S
O639 Gd599 2.468 . S
O639 C663 1.263 . S
O640 Gd599 2.427 . S
O640 C663 1.252 . S
O641 Gd598 2.307 . S
O641 C656 1.261 . S
O642 Gd599 2.388 . S
O642 C656 1.252 . S
C643 O631 1.265 . S
C643 O632 1.242 . S
C644 O635 1.261 . S
C644 O636 1.252 . S
C645 C648 1.394 . S
C645 C650 1.370 . S
C645 C651 1.500 . S
C646 C649 1.383 . S
C646 C650 1.395 . S
C647 C648 1.396 . S
C647 C649 1.365 . S
C647 H664 0.929 . S
C648 C645 1.394 . S
C648 C647 1.396 . S
C648 H665 0.930 . S
C649 C646 1.383 . S
C649 C647 1.365 . S
C649 H666 0.931 . S
C650 C645 1.370 . S
C650 C646 1.395 . S
C650 H667 0.930 . S
C651 Gd598 2.805 1_545 S
C651 O633 1.263 . S
C651 O634 1.252 . S
C651 C645 1.500 . S
C652 H614 0.930 . S
C652 C628 1.417 . S
C652 C653 1.329 . S
C653 C623 1.437 . S
C653 H624 0.929 . S
C653 C652 1.329 . S
H654 C627 0.928 1_545 S
C655 O637 1.265 . S
C655 O638 1.242 . S
C656 O641 1.261 . S
C656 O642 1.252 . S
C657 C660 1.394 . S
C657 C662 1.370 . S
C657 C663 1.500 . S
C658 C661 1.383 . S
C658 C662 1.395 . S
C659 C660 1.396 . S
C659 C661 1.365 . S
C659 H668 0.929 . S
C660 C657 1.394 . S
C660 C659 1.396 . S
C660 H669 0.930 . S
C661 C658 1.383 . S
C661 C659 1.365 . S
C661 H670 0.931 . S
C662 C657 1.370 . S
C662 C658 1.395 . S
C662 H671 0.930 . S
C663 Gd599 2.805 . S
C663 O639 1.263 . S
C663 O640 1.252 . S
C663 C657 1.500 . S
H664 C647 0.929 . S
H665 C648 0.930 . S
H666 C649 0.931 . S
H667 C650 0.930 . S
H668 C659 0.929 . S
H669 C660 0.930 . S
H670 C661 0.931 . S
H671 C662 0.930 . S
C672 C674 1.422 . S
C672 C676 1.415 . S
C672 N678 1.369 . S
C673 C674 1.421 . S
C673 C675 1.417 . S
C673 C685 1.422 . S
C674 C672 1.422 . S
C674 C673 1.421 . S
C674 N684 1.359 . S
C675 C673 1.417 . S
C675 C677 1.329 . S
C675 H694 0.930 . S
C676 C672 1.415 . S
C676 C677 1.437 . S
C676 C680 1.413 . S
C677 C675 1.329 . S
C677 C676 1.437 . S
C677 H699 0.929 . S
N678 C672 1.369 . S
N678 C679 1.338 . S
N678 Gd683 2.622 . S
C679 N678 1.338 . S
C679 C681 1.378 . S
C679 H691 0.929 . S
C680 C676 1.413 . S
C680 C681 1.348 . S
C680 H696 0.931 . S
C681 C679 1.378 . S
C681 C680 1.348 . S
C681 H697 0.930 . S
Gd682 N702 2.622 . S
Gd682 N709 2.570 . S
Gd682 O716 2.353 . S
Gd682 O717 2.468 . S
Gd682 O718 2.427 . S
Gd682 O720 2.388 . S
Gd682 O721 2.386 . S
Gd682 O725 2.307 . S
Gd682 C735 2.805 . S
Gd683 N678 2.622 . S
Gd683 N684 2.570 . S
Gd683 O715 2.386 . S
Gd683 O719 2.307 . S
Gd683 O722 2.353 . S
Gd683 O723 2.468 . S
Gd683 O724 2.427 . S
Gd683 O726 2.388 . S
Gd683 C747 2.805 . S
N684 C674 1.359 . S
N684 Gd683 2.570 . S
N684 C686 1.343 . S
C685 C673 1.422 . S
C685 C687 1.321 . S
C685 H693 0.931 . S
C686 N684 1.343 . S
C686 C687 1.390 . S
C686 H688 0.931 . S
C687 C685 1.321 . S
C687 C686 1.390 . S
C687 H689 0.930 . S
H688 C686 0.931 . S
H689 C687 0.930 . S
H690 C713 0.931 . S
H691 C679 0.929 . S
H692 C714 0.930 . S
H693 C685 0.931 . S
H694 C675 0.930 . S
H695 C704 0.929 . S
H696 C680 0.931 . S
H697 C681 0.930 . S
H698 C736 0.930 . S
H699 C677 0.929 . S
H700 C705 0.931 . S
H701 C706 0.930 . S
N702 Gd682 2.622 . S
N702 C703 1.369 . S
N702 C704 1.338 . S
C703 N702 1.369 . S
C703 C707 1.415 . S
C703 C710 1.422 . S
C704 H695 0.929 . S
C704 N702 1.338 . S
C704 C706 1.378 . S
C705 H700 0.931 . S
C705 C706 1.348 . S
C705 C707 1.413 . S
C706 H701 0.930 . S
C706 C704 1.378 . S
C706 C705 1.348 . S
C707 C703 1.415 . S
C707 C705 1.413 . S
C707 C737 1.437 . S
H708 C737 0.929 . S
N709 Gd682 2.570 . S
N709 C710 1.359 . S
N709 C713 1.343 . S
C710 C703 1.422 . S
C710 N709 1.359 . S
C710 C712 1.421 . S
C711 C712 1.422 . S
C711 C714 1.321 . S
C711 H738 0.931 . S
C712 C710 1.421 . S
C712 C711 1.422 . S
C712 C736 1.417 . S
C713 H690 0.931 . S
C713 N709 1.343 . S
C713 C714 1.390 . S
C714 H692 0.930 . S
C714 C711 1.321 . S
C714 C713 1.390 . S
O715 Gd683 2.386 . S
O715 C727 1.265 . S
O716 Gd682 2.353 . S
O716 C727 1.242 . S
O717 Gd682 2.468 . S
O717 C735 1.263 . S
O718 Gd682 2.427 . S
O718 C735 1.252 . S
O719 Gd683 2.307 . S
O719 C728 1.261 . S
O720 Gd682 2.388 . S
O720 C728 1.252 . S
O721 Gd682 2.386 . S
O721 C739 1.265 . S
O722 Gd683 2.353 . S
O722 C739 1.242 . S
O723 Gd683 2.468 . S
O723 C747 1.263 . S
O724 Gd683 2.427 . S
O724 C747 1.252 . S
O725 Gd682 2.307 . S
O725 C740 1.261 . S
O726 Gd683 2.388 . S
O726 C740 1.252 . S
C727 O715 1.265 . S
C727 O716 1.242 . S
C728 O719 1.261 . S
C728 O720 1.252 . S
C729 C732 1.394 . S
C729 C734 1.370 . S
C729 C735 1.500 . S
C730 C733 1.383 . S
C730 C734 1.395 . S
C731 C732 1.396 . S
C731 C733 1.365 . S
C731 H748 0.929 . S
C732 C729 1.394 . S
C732 C731 1.396 . S
C732 H749 0.930 . S
C733 C730 1.383 . S
C733 C731 1.365 . S
C733 H750 0.930 . S
C734 C729 1.370 . S
C734 C730 1.395 . S
C734 H751 0.930 . S
C735 Gd682 2.805 . S
C735 O717 1.263 . S
C735 O718 1.252 . S
C735 C729 1.500 . S
C736 H698 0.930 . S
C736 C712 1.417 . S
C736 C737 1.329 . S
C737 C707 1.437 . S
C737 H708 0.929 . S
C737 C736 1.329 . S
H738 C711 0.931 . S
C739 O721 1.265 . S
C739 O722 1.242 . S
C740 O725 1.261 . S
C740 O726 1.252 . S
C741 C744 1.394 . S
C741 C746 1.370 . S
C741 C747 1.500 . S
C742 C745 1.383 . S
C742 C746 1.395 . S
C743 C744 1.396 . S
C743 C745 1.365 . S
C743 H752 0.929 . S
C744 C741 1.394 . S
C744 C743 1.396 . S
C744 H753 0.930 . S
C745 C742 1.383 . S
C745 C743 1.365 . S
C745 H754 0.931 . S
C746 C741 1.370 . S
C746 C742 1.395 . S
C746 H755 0.930 . S
C747 Gd683 2.805 . S
C747 O723 1.263 . S
C747 O724 1.252 . S
C747 C741 1.500 . S
H748 C731 0.929 . S
H749 C732 0.930 . S
H750 C733 0.930 . S
H751 C734 0.930 . S
H752 C743 0.929 . S
H753 C744 0.930 . S
H754 C745 0.931 . S
H755 C746 0.930 . S
C756 C758 1.422 . S
C756 C760 1.415 . S
C756 N762 1.369 . S
C757 C758 1.421 . S
C757 C759 1.417 . S
C757 C769 1.422 . S
C758 C756 1.422 . S
C758 C757 1.421 . S
C758 N768 1.359 . S
C759 C757 1.417 . S
C759 C761 1.329 . S
C759 H778 0.930 . S
C760 C756 1.415 . S
C760 C761 1.437 . S
C760 C764 1.413 . S
C761 C759 1.329 . S
C761 C760 1.437 . S
C761 H783 0.929 . S
N762 C756 1.369 . S
N762 C763 1.338 . S
N762 Gd767 2.622 . S
C763 N762 1.338 . S
C763 C765 1.378 . S
C763 H775 0.929 . S
C764 C760 1.413 . S
C764 C765 1.348 . S
C764 H780 0.931 . S
C765 C763 1.378 . S
C765 C764 1.348 . S
C765 H781 0.930 . S
Gd766 N786 2.622 . S
Gd766 N793 2.570 . S
Gd766 O800 2.353 . S
Gd766 O801 2.468 . S
Gd766 O802 2.427 . S
Gd766 O804 2.388 . S
Gd766 O805 2.386 . S
Gd766 O809 2.307 . S
Gd766 C819 2.805 . S
Gd767 N762 2.622 . S
Gd767 N768 2.570 . S
Gd767 O799 2.386 . S
Gd767 O803 2.307 . S
Gd767 O806 2.353 . S
Gd767 O807 2.468 . S
Gd767 O808 2.427 . S
Gd767 O810 2.388 . S
Gd767 C831 2.805 . S
N768 C758 1.359 . S
N768 Gd767 2.570 . S
N768 C770 1.343 . S
C769 C757 1.422 . S
C769 C771 1.321 . S
C769 H777 0.931 . S
C770 N768 1.343 . S
C770 C771 1.390 . S
C770 H772 0.931 . S
C771 C769 1.321 . S
C771 C770 1.390 . S
C771 H773 0.930 . S
H772 C770 0.931 . S
H773 C771 0.930 . S
H774 C797 0.931 . S
H775 C763 0.929 . S
H776 C798 0.930 . S
H777 C769 0.931 . S
H778 C759 0.930 . S
H779 C788 0.929 . S
H780 C764 0.931 . S
H781 C765 0.930 . S
H782 C820 0.930 . S
H783 C761 0.929 . S
H784 C789 0.931 . S
H785 C790 0.930 . S
N786 Gd766 2.622 . S
N786 C787 1.369 . S
N786 C788 1.338 . S
C787 N786 1.369 . S
C787 C791 1.415 . S
C787 C794 1.422 . S
C788 H779 0.929 . S
C788 N786 1.338 . S
C788 C790 1.378 . S
C789 H784 0.931 . S
C789 C790 1.348 . S
C789 C791 1.413 . S
C790 H785 0.930 . S
C790 C788 1.378 . S
C790 C789 1.348 . S
C791 C787 1.415 . S
C791 C789 1.413 . S
C791 C821 1.437 . S
H792 C821 0.929 . S
N793 Gd766 2.570 . S
N793 C794 1.359 . S
N793 C797 1.343 . S
C794 C787 1.422 . S
C794 N793 1.359 . S
C794 C796 1.421 . S
C795 C796 1.422 . S
C795 C798 1.321 . S
C795 H822 0.931 . S
C796 C794 1.421 . S
C796 C795 1.422 . S
C796 C820 1.417 . S
C797 H774 0.931 . S
C797 N793 1.343 . S
C797 C798 1.390 . S
C798 H776 0.930 . S
C798 C795 1.321 . S
C798 C797 1.390 . S
O799 Gd767 2.386 . S
O799 C811 1.265 . S
O800 Gd766 2.353 . S
O800 C811 1.242 . S
O801 Gd766 2.468 . S
O801 C819 1.263 . S
O802 Gd766 2.427 . S
O802 C819 1.252 . S
O803 Gd767 2.307 . S
O803 C812 1.261 . S
O804 Gd766 2.388 . S
O804 C812 1.252 . S
O805 Gd766 2.386 . S
O805 C823 1.265 . S
O806 Gd767 2.353 . S
O806 C823 1.242 . S
O807 Gd767 2.468 . S
O807 C831 1.263 . S
O808 Gd767 2.427 . S
O808 C831 1.252 . S
O809 Gd766 2.307 . S
O809 C824 1.261 . S
O810 Gd767 2.388 . S
O810 C824 1.252 . S
C811 O799 1.265 . S
C811 O800 1.242 . S
C812 O803 1.261 . S
C812 O804 1.252 . S
C813 C816 1.394 . S
C813 C818 1.370 . S
C813 C819 1.500 . S
C814 C817 1.383 . S
C814 C818 1.395 . S
C815 C816 1.396 . S
C815 C817 1.365 . S
C815 H832 0.929 . S
C816 C813 1.394 . S
C816 C815 1.396 . S
C816 H833 0.930 . S
C817 C814 1.383 . S
C817 C815 1.365 . S
C817 H834 0.930 . S
C818 C813 1.370 . S
C818 C814 1.395 . S
C818 H835 0.930 . S
C819 Gd766 2.805 . S
C819 O801 1.263 . S
C819 O802 1.252 . S
C819 C813 1.500 . S
C820 H782 0.930 . S
C820 C796 1.417 . S
C820 C821 1.329 . S
C821 C791 1.437 . S
C821 H792 0.929 . S
C821 C820 1.329 . S
H822 C795 0.931 . S
C823 O805 1.265 . S
C823 O806 1.242 . S
C824 O809 1.261 . S
C824 O810 1.252 . S
C825 C828 1.394 . S
C825 C830 1.370 . S
C825 C831 1.500 . S
C826 C829 1.383 . S
C826 C830 1.395 . S
C827 C828 1.396 . S
C827 C829 1.365 . S
C827 H836 0.929 . S
C828 C825 1.394 . S
C828 C827 1.396 . S
C828 H837 0.930 . S
C829 C826 1.383 . S
C829 C827 1.365 . S
C829 H838 0.931 . S
C830 C825 1.370 . S
C830 C826 1.395 . S
C830 H839 0.930 . S
C831 Gd767 2.805 . S
C831 O807 1.263 . S
C831 O808 1.252 . S
C831 C825 1.500 . S
H832 C815 0.929 . S
H833 C816 0.930 . S
H834 C817 0.930 . S
H835 C818 0.930 . S
H836 C827 0.929 . S
H837 C828 0.930 . S
H838 C829 0.931 . S
H839 C830 0.930 . S
C840 C842 1.422 . S
C840 C844 1.415 . S
C840 N846 1.369 . S
C841 C842 1.421 . S
C841 C843 1.417 . S
C841 C853 1.422 . S
C842 C840 1.422 . S
C842 C841 1.421 . S
C842 N852 1.359 . S
C843 C841 1.417 . S
C843 C845 1.329 . S
C843 H862 0.930 . S
C844 C840 1.415 . S
C844 C845 1.437 . S
C844 C848 1.413 . S
C845 C843 1.329 . S
C845 C844 1.437 . S
C845 H867 0.929 . S
N846 C840 1.369 . S
N846 C847 1.338 . S
N846 Gd851 2.622 . S
C847 N846 1.338 . S
C847 C849 1.378 . S
C847 H859 0.929 . S
C848 C844 1.413 . S
C848 C849 1.348 . S
C848 H864 0.931 . S
C849 C847 1.378 . S
C849 C848 1.348 . S
C849 H865 0.930 . S
Gd850 N870 2.622 . S
Gd850 N877 2.570 . S
Gd850 O884 2.353 . S
Gd850 O885 2.468 . S
Gd850 O886 2.427 . S
Gd850 O888 2.388 . S
Gd850 O889 2.386 . S
Gd850 O893 2.307 . S
Gd850 C903 2.805 . S
Gd851 N846 2.622 . S
Gd851 N852 2.570 . S
Gd851 O883 2.386 . S
Gd851 O887 2.307 . S
Gd851 O890 2.353 . S
Gd851 O891 2.468 . S
Gd851 O892 2.427 . S
Gd851 O894 2.388 . S
Gd851 C915 2.805 . S
N852 C842 1.359 . S
N852 Gd851 2.570 . S
N852 C854 1.343 . S
C853 C841 1.422 . S
C853 C855 1.321 . S
C853 H861 0.931 . S
C854 N852 1.343 . S
C854 C855 1.390 . S
C854 H856 0.931 . S
C855 C853 1.321 . S
C855 C854 1.390 . S
C855 H857 0.930 . S
H856 C854 0.931 . S
H857 C855 0.930 . S
H858 C881 0.931 . S
H859 C847 0.929 . S
H860 C882 0.930 . S
H861 C853 0.931 . S
H862 C843 0.930 . S
H863 C872 0.929 . S
H864 C848 0.931 . S
H865 C849 0.930 . S
H866 C904 0.930 . S
H867 C845 0.929 . S
H868 C873 0.931 . S
H869 C874 0.930 . S
N870 Gd850 2.622 . S
N870 C871 1.369 . S
N870 C872 1.338 . S
C871 N870 1.369 . S
C871 C875 1.415 . S
C871 C878 1.422 . S
C872 H863 0.929 . S
C872 N870 1.338 . S
C872 C874 1.378 . S
C873 H868 0.931 . S
C873 C874 1.348 . S
C873 C875 1.413 . S
C874 H869 0.930 . S
C874 C872 1.378 . S
C874 C873 1.348 . S
C875 C871 1.415 . S
C875 C873 1.413 . S
C875 C905 1.437 . S
H876 C905 0.929 . S
N877 Gd850 2.570 . S
N877 C878 1.359 . S
N877 C881 1.343 . S
C878 C871 1.422 . S
C878 N877 1.359 . S
C878 C880 1.421 . S
C879 C880 1.422 . S
C879 C882 1.321 . S
C879 H906 0.931 . S
C880 C878 1.421 . S
C880 C879 1.422 . S
C880 C904 1.417 . S
C881 H858 0.931 . S
C881 N877 1.343 . S
C881 C882 1.390 . S
C882 H860 0.930 . S
C882 C879 1.321 . S
C882 C881 1.390 . S
O883 Gd851 2.386 . S
O883 C895 1.265 . S
O884 Gd850 2.353 . S
O884 C895 1.242 . S
O885 Gd850 2.468 . S
O885 C903 1.263 . S
O886 Gd850 2.427 . S
O886 C903 1.252 . S
O887 Gd851 2.307 . S
O887 C896 1.261 . S
O888 Gd850 2.388 . S
O888 C896 1.252 . S
O889 Gd850 2.386 . S
O889 C907 1.265 . S
O890 Gd851 2.353 . S
O890 C907 1.242 . S
O891 Gd851 2.468 . S
O891 C915 1.263 . S
O892 Gd851 2.427 . S
O892 C915 1.252 . S
O893 Gd850 2.307 . S
O893 C908 1.261 . S
O894 Gd851 2.388 . S
O894 C908 1.252 . S
C895 O883 1.265 . S
C895 O884 1.242 . S
C896 O887 1.261 . S
C896 O888 1.252 . S
C897 C900 1.394 . S
C897 C902 1.370 . S
C897 C903 1.500 . S
C898 C901 1.383 . S
C898 C902 1.395 . S
C899 C900 1.396 . S
C899 C901 1.365 . S
C899 H916 0.929 . S
C900 C897 1.394 . S
C900 C899 1.396 . S
C900 H917 0.930 . S
C901 C898 1.383 . S
C901 C899 1.365 . S
C901 H918 0.930 . S
C902 C897 1.370 . S
C902 C898 1.395 . S
C902 H919 0.930 . S
C903 Gd850 2.805 . S
C903 O885 1.263 . S
C903 O886 1.252 . S
C903 C897 1.500 . S
C904 H866 0.930 . S
C904 C880 1.417 . S
C904 C905 1.329 . S
C905 C875 1.437 . S
C905 H876 0.929 . S
C905 C904 1.329 . S
H906 C879 0.931 . S
C907 O889 1.265 . S
C907 O890 1.242 . S
C908 O893 1.261 . S
C908 O894 1.252 . S
C909 C912 1.394 . S
C909 C914 1.370 . S
C909 C915 1.500 . S
C910 C913 1.383 . S
C910 C914 1.395 . S
C911 C912 1.396 . S
C911 C913 1.365 . S
C911 H920 0.929 . S
C912 C909 1.394 . S
C912 C911 1.396 . S
C912 H921 0.930 . S
C913 C910 1.383 . S
C913 C911 1.365 . S
C913 H922 0.931 . S
C914 C909 1.370 . S
C914 C910 1.395 . S
C914 H923 0.930 . S
C915 Gd851 2.805 . S
C915 O891 1.263 . S
C915 O892 1.252 . S
C915 C909 1.500 . S
H916 C899 0.929 . S
H917 C900 0.930 . S
H918 C901 0.930 . S
H919 C902 0.930 . S
H920 C911 0.929 . S
H921 C912 0.930 . S
H922 C913 0.931 . S
H923 C914 0.930 . S
C924 C926 1.422 . S
C924 C928 1.415 . S
C924 N930 1.369 . S
C925 C926 1.421 . S
C925 C927 1.417 . S
C925 C937 1.422 . S
C926 C924 1.422 . S
C926 C925 1.421 . S
C926 N936 1.359 . S
C927 C925 1.417 . S
C927 C929 1.329 . S
C927 H946 0.930 . S
C928 C924 1.415 . S
C928 C929 1.437 . S
C928 C932 1.413 . S
C929 C927 1.329 . S
C929 C928 1.437 . S
C929 H951 0.929 . S
N930 C924 1.369 . S
N930 C931 1.338 . S
N930 Gd935 2.622 . S
C931 N930 1.338 . S
C931 C933 1.378 . S
C931 H943 0.929 . S
C932 C928 1.413 . S
C932 C933 1.348 . S
C932 H948 0.931 . S
C933 C931 1.378 . S
C933 C932 1.348 . S
C933 H949 0.930 . S
Gd934 N954 2.622 . S
Gd934 N961 2.570 . S
Gd934 O968 2.353 . S
Gd934 O969 2.468 . S
Gd934 O970 2.427 . S
Gd934 O972 2.388 . S
Gd934 O973 2.386 . S
Gd934 O977 2.307 . S
Gd934 C987 2.805 . S
Gd935 N930 2.622 . S
Gd935 N936 2.570 . S
Gd935 O967 2.386 . S
Gd935 O971 2.307 . S
Gd935 O974 2.353 . S
Gd935 O975 2.468 . S
Gd935 O976 2.427 . S
Gd935 O978 2.388 . S
Gd935 C999 2.805 . S
N936 C926 1.359 . S
N936 Gd935 2.570 . S
N936 C938 1.343 . S
C937 C925 1.422 . S
C937 C939 1.321 . S
C937 H945 0.931 . S
C938 N936 1.343 . S
C938 C939 1.390 . S
C938 H940 0.931 . S
C939 C937 1.321 . S
C939 C938 1.390 . S
C939 H941 0.930 . S
H940 C938 0.931 . S
H941 C939 0.930 . S
H942 C965 0.931 . S
H943 C931 0.929 . S
H944 C966 0.930 . S
H945 C937 0.931 . S
H946 C927 0.930 . S
H947 C956 0.929 . S
H948 C932 0.931 . S
H949 C933 0.930 . S
H950 C988 0.930 . S
H951 C929 0.929 . S
H952 C957 0.931 . S
H953 C958 0.930 . S
N954 Gd934 2.622 . S
N954 C955 1.369 . S
N954 C956 1.338 . S
C955 N954 1.369 . S
C955 C959 1.415 . S
C955 C962 1.422 . S
C956 H947 0.929 . S
C956 N954 1.338 . S
C956 C958 1.378 . S
C957 H952 0.931 . S
C957 C958 1.348 . S
C957 C959 1.413 . S
C958 H953 0.930 . S
C958 C956 1.378 . S
C958 C957 1.348 . S
C959 C955 1.415 . S
C959 C957 1.413 . S
C959 C989 1.437 . S
H960 C989 0.929 . S
N961 Gd934 2.570 . S
N961 C962 1.359 . S
N961 C965 1.343 . S
C962 C955 1.422 . S
C962 N961 1.359 . S
C962 C964 1.421 . S
C963 C964 1.422 . S
C963 C966 1.321 . S
C963 H990 0.931 . S
C964 C962 1.421 . S
C964 C963 1.422 . S
C964 C988 1.417 . S
C965 H942 0.931 . S
C965 N961 1.343 . S
C965 C966 1.390 . S
C966 H944 0.930 . S
C966 C963 1.321 . S
C966 C965 1.390 . S
O967 Gd935 2.386 . S
O967 C979 1.265 . S
O968 Gd934 2.353 . S
O968 C979 1.242 . S
O969 Gd934 2.468 . S
O969 C987 1.263 . S
O970 Gd934 2.427 . S
O970 C987 1.252 . S
O971 Gd935 2.307 . S
O971 C980 1.261 . S
O972 Gd934 2.388 . S
O972 C980 1.252 . S
O973 Gd934 2.386 . S
O973 C991 1.265 . S
O974 Gd935 2.353 . S
O974 C991 1.242 . S
O975 Gd935 2.468 . S
O975 C999 1.263 . S
O976 Gd935 2.427 . S
O976 C999 1.252 . S
O977 Gd934 2.307 . S
O977 C992 1.261 . S
O978 Gd935 2.388 . S
O978 C992 1.252 . S
C979 O967 1.265 . S
C979 O968 1.242 . S
C980 O971 1.261 . S
C980 O972 1.252 . S
C981 C984 1.394 . S
C981 C986 1.370 . S
C981 C987 1.500 . S
C982 C985 1.383 . S
C982 C986 1.395 . S
C983 C984 1.396 . S
C983 C985 1.365 . S
C983 H1000 0.929 . S
C984 C981 1.394 . S
C984 C983 1.396 . S
C984 H1001 0.930 . S
C985 C982 1.383 . S
C985 C983 1.365 . S
C985 H1002 0.930 . S
C986 C981 1.370 . S
C986 C982 1.395 . S
C986 H1003 0.930 . S
C987 Gd934 2.805 . S
C987 O969 1.263 . S
C987 O970 1.252 . S
C987 C981 1.500 . S
C988 H950 0.930 . S
C988 C964 1.417 . S
C988 C989 1.329 . S
C989 C959 1.437 . S
C989 H960 0.929 . S
C989 C988 1.329 . S
H990 C963 0.931 . S
C991 O973 1.265 . S
C991 O974 1.242 . S
C992 O977 1.261 . S
C992 O978 1.252 . S
C993 C996 1.394 . S
C993 C998 1.370 . S
C993 C999 1.500 . S
C994 C997 1.383 . S
C994 C998 1.395 . S
C995 C996 1.396 . S
C995 C997 1.365 . S
C995 H1004 0.929 . S
C996 C993 1.394 . S
C996 C995 1.396 . S
C996 H1005 0.930 . S
C997 C994 1.383 . S
C997 C995 1.365 . S
C997 H1006 0.931 . S
C998 C993 1.370 . S
C998 C994 1.395 . S
C998 H1007 0.930 . S
C999 Gd935 2.805 . S
C999 O975 1.263 . S
C999 O976 1.252 . S
C999 C993 1.500 . S
H1000 C983 0.929 . S
H1001 C984 0.930 . S
H1002 C985 0.930 . S
H1003 C986 0.930 . S
H1004 C995 0.929 . S
H1005 C996 0.930 . S
H1006 C997 0.931 . S
H1007 C998 0.930 . S
C1008 C1010 1.422 . S
C1008 C1012 1.415 . S
C1008 N1014 1.369 . S
C1009 C1010 1.421 . S
C1009 C1011 1.417 . S
C1009 C1021 1.422 . S
C1010 C1008 1.422 . S
C1010 C1009 1.421 . S
C1010 N1020 1.359 . S
C1011 C1009 1.417 . S
C1011 C1013 1.329 . S
C1011 H1030 0.930 . S
C1012 C1008 1.415 . S
C1012 C1013 1.437 . S
C1012 C1016 1.413 . S
C1013 C1011 1.329 . S
C1013 C1012 1.437 . S
C1013 H1035 0.929 . S
N1014 C1008 1.369 . S
N1014 C1015 1.338 . S
N1014 Gd1019 2.622 . S
C1015 N1014 1.338 . S
C1015 C1017 1.378 . S
C1015 H1027 0.929 . S
C1016 C1012 1.413 . S
C1016 C1017 1.348 . S
C1016 H1032 0.931 . S
C1017 C1015 1.378 . S
C1017 C1016 1.348 . S
C1017 H1033 0.930 . S
Gd1018 N1038 2.622 . S
Gd1018 N1045 2.570 . S
Gd1018 O1052 2.353 . S
Gd1018 O1053 2.468 . S
Gd1018 O1054 2.427 . S
Gd1018 O1056 2.388 . S
Gd1018 O1057 2.386 . S
Gd1018 O1061 2.307 . S
Gd1018 C1071 2.805 . S
Gd1019 N1014 2.622 . S
Gd1019 N1020 2.570 . S
Gd1019 O1051 2.386 . S
Gd1019 O1055 2.307 . S
Gd1019 O1058 2.353 . S
Gd1019 O1059 2.468 . S
Gd1019 O1060 2.427 . S
Gd1019 O1062 2.388 . S
Gd1019 C1083 2.805 . S
N1020 C1010 1.359 . S
N1020 Gd1019 2.570 . S
N1020 C1022 1.343 . S
C1021 C1009 1.422 . S
C1021 C1023 1.321 . S
C1021 H1029 0.931 . S
C1022 N1020 1.343 . S
C1022 C1023 1.390 . S
C1022 H1024 0.931 . S
C1023 C1021 1.321 . S
C1023 C1022 1.390 . S
C1023 H1025 0.930 . S
H1024 C1022 0.931 . S
H1025 C1023 0.930 . S
H1026 C1049 0.931 . S
H1027 C1015 0.929 . S
H1028 C1050 0.930 . S
H1029 C1021 0.931 . S
H1030 C1011 0.930 . S
H1031 C1040 0.929 . S
H1032 C1016 0.931 . S
H1033 C1017 0.930 . S
H1034 C1072 0.930 . S
H1035 C1013 0.929 . S
H1036 C1041 0.931 . S
H1037 C1042 0.930 . S
N1038 Gd1018 2.622 . S
N1038 C1039 1.369 . S
N1038 C1040 1.338 . S
C1039 N1038 1.369 . S
C1039 C1043 1.415 . S
C1039 C1046 1.422 . S
C1040 H1031 0.929 . S
C1040 N1038 1.338 . S
C1040 C1042 1.378 . S
C1041 H1036 0.931 . S
C1041 C1042 1.348 . S
C1041 C1043 1.413 . S
C1042 H1037 0.930 . S
C1042 C1040 1.378 . S
C1042 C1041 1.348 . S
C1043 C1039 1.415 . S
C1043 C1041 1.413 . S
C1043 C1073 1.437 . S
H1044 C1073 0.929 . S
N1045 Gd1018 2.570 . S
N1045 C1046 1.359 . S
N1045 C1049 1.343 . S
C1046 C1039 1.422 . S
C1046 N1045 1.359 . S
C1046 C1048 1.421 . S
C1047 C1048 1.422 . S
C1047 C1050 1.321 . S
C1047 H1074 0.931 . S
C1048 C1046 1.421 . S
C1048 C1047 1.422 . S
C1048 C1072 1.417 . S
C1049 H1026 0.931 . S
C1049 N1045 1.343 . S
C1049 C1050 1.390 . S
C1050 H1028 0.930 . S
C1050 C1047 1.321 . S
C1050 C1049 1.390 . S
O1051 Gd1019 2.386 . S
O1051 C1063 1.265 . S
O1052 Gd1018 2.353 . S
O1052 C1063 1.242 . S
O1053 Gd1018 2.468 . S
O1053 C1071 1.263 . S
O1054 Gd1018 2.427 . S
O1054 C1071 1.252 . S
O1055 Gd1019 2.307 . S
O1055 C1064 1.261 . S
O1056 Gd1018 2.388 . S
O1056 C1064 1.252 . S
O1057 Gd1018 2.386 . S
O1057 C1075 1.265 . S
O1058 Gd1019 2.353 . S
O1058 C1075 1.242 . S
O1059 Gd1019 2.468 . S
O1059 C1083 1.263 . S
O1060 Gd1019 2.427 . S
O1060 C1083 1.252 . S
O1061 Gd1018 2.307 . S
O1061 C1076 1.261 . S
O1062 Gd1019 2.388 . S
O1062 C1076 1.252 . S
C1063 O1051 1.265 . S
C1063 O1052 1.242 . S
C1064 O1055 1.261 . S
C1064 O1056 1.252 . S
C1065 C1068 1.394 . S
C1065 C1070 1.370 . S
C1065 C1071 1.500 . S
C1066 C1069 1.383 . S
C1066 C1070 1.395 . S
C1067 C1068 1.396 . S
C1067 C1069 1.365 . S
C1067 H1084 0.929 . S
C1068 C1065 1.394 . S
C1068 C1067 1.396 . S
C1068 H1085 0.930 . S
C1069 C1066 1.383 . S
C1069 C1067 1.365 . S
C1069 H1086 0.931 . S
C1070 C1065 1.370 . S
C1070 C1066 1.395 . S
C1070 H1087 0.930 . S
C1071 Gd1018 2.805 . S
C1071 O1053 1.263 . S
C1071 O1054 1.252 . S
C1071 C1065 1.500 . S
C1072 H1034 0.930 . S
C1072 C1048 1.417 . S
C1072 C1073 1.329 . S
C1073 C1043 1.437 . S
C1073 H1044 0.929 . S
C1073 C1072 1.329 . S
H1074 C1047 0.931 . S
C1075 O1057 1.265 . S
C1075 O1058 1.242 . S
C1076 O1061 1.261 . S
C1076 O1062 1.252 . S
C1077 C1080 1.394 . S
C1077 C1082 1.370 . S
C1077 C1083 1.500 . S
C1078 C1081 1.383 . S
C1078 C1082 1.395 . S
C1079 C1080 1.396 . S
C1079 C1081 1.365 . S
C1079 H1088 0.929 . S
C1080 C1077 1.394 . S
C1080 C1079 1.396 . S
C1080 H1089 0.930 . S
C1081 C1078 1.383 . S
C1081 C1079 1.365 . S
C1081 H1090 0.930 . S
C1082 C1077 1.370 . S
C1082 C1078 1.395 . S
C1082 H1091 0.930 . S
C1083 Gd1019 2.805 . S
C1083 O1059 1.263 . S
C1083 O1060 1.252 . S
C1083 C1077 1.500 . S
H1084 C1067 0.929 . S
H1085 C1068 0.930 . S
H1086 C1069 0.931 . S
H1087 C1070 0.930 . S
H1088 C1079 0.929 . S
H1089 C1080 0.930 . S
H1090 C1081 0.930 . S
H1091 C1082 0.930 . S
C1092 C1094 1.422 . S
C1092 C1096 1.415 . S
C1092 N1098 1.369 . S
C1093 C1094 1.421 . S
C1093 C1095 1.417 . S
C1093 C1105 1.422 . S
C1094 C1092 1.422 . S
C1094 C1093 1.421 . S
C1094 N1104 1.359 . S
C1095 C1093 1.417 . S
C1095 C1097 1.329 . S
C1095 H1114 0.930 . S
C1096 C1092 1.415 . S
C1096 C1097 1.437 . S
C1096 C1100 1.413 . S
C1097 C1095 1.329 . S
C1097 C1096 1.437 . S
C1097 H1119 0.929 . S
N1098 C1092 1.369 . S
N1098 C1099 1.338 . S
N1098 Gd1103 2.622 . S
C1099 N1098 1.338 . S
C1099 C1101 1.378 . S
C1099 H1111 0.929 . S
C1100 C1096 1.413 . S
C1100 C1101 1.348 . S
C1100 H1116 0.931 . S
C1101 C1099 1.378 . S
C1101 C1100 1.348 . S
C1101 H1117 0.930 . S
Gd1102 N1122 2.622 . S
Gd1102 N1129 2.570 . S
Gd1102 O1136 2.353 . S
Gd1102 O1137 2.468 . S
Gd1102 O1138 2.427 . S
Gd1102 O1140 2.388 . S
Gd1102 O1141 2.386 . S
Gd1102 O1145 2.307 . S
Gd1102 C1155 2.805 . S
Gd1103 N1098 2.622 . S
Gd1103 N1104 2.570 . S
Gd1103 O1135 2.386 . S
Gd1103 O1139 2.307 . S
Gd1103 O1142 2.353 . S
Gd1103 O1143 2.468 . S
Gd1103 O1144 2.427 . S
Gd1103 O1146 2.388 . S
Gd1103 C1167 2.805 . S
N1104 C1094 1.359 . S
N1104 Gd1103 2.570 . S
N1104 C1106 1.343 . S
C1105 C1093 1.422 . S
C1105 C1107 1.321 . S
C1105 H1113 0.931 . S
C1106 N1104 1.343 . S
C1106 C1107 1.390 . S
C1106 H1108 0.931 . S
C1107 C1105 1.321 . S
C1107 C1106 1.390 . S
C1107 H1109 0.930 . S
H1108 C1106 0.931 . S
H1109 C1107 0.930 . S
H1110 C1133 0.931 . S
H1111 C1099 0.929 . S
H1112 C1134 0.930 . S
H1113 C1105 0.931 . S
H1114 C1095 0.930 . S
H1115 C1124 0.929 . S
H1116 C1100 0.931 . S
H1117 C1101 0.930 . S
H1118 C1156 0.930 . S
H1119 C1097 0.929 . S
H1120 C1125 0.931 . S
H1121 C1126 0.930 . S
N1122 Gd1102 2.622 . S
N1122 C1123 1.369 . S
N1122 C1124 1.338 . S
C1123 N1122 1.369 . S
C1123 C1127 1.415 . S
C1123 C1130 1.422 . S
C1124 H1115 0.929 . S
C1124 N1122 1.338 . S
C1124 C1126 1.378 . S
C1125 H1120 0.931 . S
C1125 C1126 1.348 . S
C1125 C1127 1.413 . S
C1126 H1121 0.930 . S
C1126 C1124 1.378 . S
C1126 C1125 1.348 . S
C1127 C1123 1.415 . S
C1127 C1125 1.413 . S
C1127 C1157 1.437 . S
H1128 C1157 0.929 . S
N1129 Gd1102 2.570 . S
N1129 C1130 1.359 . S
N1129 C1133 1.343 . S
C1130 C1123 1.422 . S
C1130 N1129 1.359 . S
C1130 C1132 1.421 . S
C1131 C1132 1.422 . S
C1131 C1134 1.321 . S
C1131 H1158 0.931 . S
C1132 C1130 1.421 . S
C1132 C1131 1.422 . S
C1132 C1156 1.417 . S
C1133 H1110 0.931 . S
C1133 N1129 1.343 . S
C1133 C1134 1.390 . S
C1134 H1112 0.930 . S
C1134 C1131 1.321 . S
C1134 C1133 1.390 . S
O1135 Gd1103 2.386 . S
O1135 C1147 1.265 . S
O1136 Gd1102 2.353 . S
O1136 C1147 1.242 . S
O1137 Gd1102 2.468 . S
O1137 C1155 1.263 . S
O1138 Gd1102 2.427 . S
O1138 C1155 1.252 . S
O1139 Gd1103 2.307 . S
O1139 C1148 1.261 . S
O1140 Gd1102 2.388 . S
O1140 C1148 1.252 . S
O1141 Gd1102 2.386 . S
O1141 C1159 1.265 . S
O1142 Gd1103 2.353 . S
O1142 C1159 1.242 . S
O1143 Gd1103 2.468 . S
O1143 C1167 1.263 . S
O1144 Gd1103 2.427 . S
O1144 C1167 1.252 . S
O1145 Gd1102 2.307 . S
O1145 C1160 1.261 . S
O1146 Gd1103 2.388 . S
O1146 C1160 1.252 . S
C1147 O1135 1.265 . S
C1147 O1136 1.242 . S
C1148 O1139 1.261 . S
C1148 O1140 1.252 . S
C1149 C1152 1.394 . S
C1149 C1154 1.370 . S
C1149 C1155 1.500 . S
C1150 C1153 1.383 . S
C1150 C1154 1.395 . S
C1151 C1152 1.396 . S
C1151 C1153 1.365 . S
C1151 H1168 0.929 . S
C1152 C1149 1.394 . S
C1152 C1151 1.396 . S
C1152 H1169 0.930 . S
C1153 C1150 1.383 . S
C1153 C1151 1.365 . S
C1153 H1170 0.931 . S
C1154 C1149 1.370 . S
C1154 C1150 1.395 . S
C1154 H1171 0.930 . S
C1155 Gd1102 2.805 . S
C1155 O1137 1.263 . S
C1155 O1138 1.252 . S
C1155 C1149 1.500 . S
C1156 H1118 0.930 . S
C1156 C1132 1.417 . S
C1156 C1157 1.329 . S
C1157 C1127 1.437 . S
C1157 H1128 0.929 . S
C1157 C1156 1.329 . S
H1158 C1131 0.931 . S
C1159 O1141 1.265 . S
C1159 O1142 1.242 . S
C1160 O1145 1.261 . S
C1160 O1146 1.252 . S
C1161 C1164 1.394 . S
C1161 C1166 1.370 . S
C1161 C1167 1.500 . S
C1162 C1165 1.383 . S
C1162 C1166 1.395 . S
C1163 C1164 1.396 . S
C1163 C1165 1.365 . S
C1163 H1172 0.929 . S
C1164 C1161 1.394 . S
C1164 C1163 1.396 . S
C1164 H1173 0.930 . S
C1165 C1162 1.383 . S
C1165 C1163 1.365 . S
C1165 H1174 0.930 . S
C1166 C1161 1.370 . S
C1166 C1162 1.395 . S
C1166 H1175 0.930 . S
C1167 Gd1103 2.805 . S
C1167 O1143 1.263 . S
C1167 O1144 1.252 . S
C1167 C1161 1.500 . S
H1168 C1151 0.929 . S
H1169 C1152 0.930 . S
H1170 C1153 0.931 . S
H1171 C1154 0.930 . S
H1172 C1163 0.929 . S
H1173 C1164 0.930 . S
H1174 C1165 0.930 . S
H1175 C1166 0.930 . S
C1176 C1178 1.422 . S
C1176 C1180 1.415 . S
C1176 N1182 1.369 . S
C1177 C1178 1.421 . S
C1177 C1179 1.417 . S
C1177 C1189 1.422 . S
C1178 C1176 1.422 . S
C1178 C1177 1.421 . S
C1178 N1188 1.359 . S
C1179 C1177 1.417 . S
C1179 C1181 1.329 . S
C1179 H1198 0.930 . S
C1180 C1176 1.415 . S
C1180 C1181 1.437 . S
C1180 C1184 1.413 . S
C1181 C1179 1.329 . S
C1181 C1180 1.437 . S
C1181 H1203 0.929 . S
N1182 C1176 1.369 . S
N1182 C1183 1.338 . S
N1182 Gd1187 2.622 . S
C1183 N1182 1.338 . S
C1183 C1185 1.378 . S
C1183 H1195 0.929 . S
C1184 C1180 1.413 . S
C1184 C1185 1.348 . S
C1184 H1200 0.931 . S
C1185 C1183 1.378 . S
C1185 C1184 1.348 . S
C1185 H1201 0.930 . S
Gd1186 N1206 2.622 . S
Gd1186 N1213 2.570 . S
Gd1186 O1220 2.353 . S
Gd1186 O1221 2.468 . S
Gd1186 O1222 2.427 . S
Gd1186 O1224 2.388 . S
Gd1186 O1225 2.386 . S
Gd1186 O1229 2.307 . S
Gd1186 C1239 2.805 . S
Gd1187 N1182 2.622 . S
Gd1187 N1188 2.570 . S
Gd1187 O1219 2.386 . S
Gd1187 O1223 2.307 . S
Gd1187 O1226 2.353 . S
Gd1187 O1227 2.468 . S
Gd1187 O1228 2.427 . S
Gd1187 O1230 2.388 . S
Gd1187 C1251 2.805 . S
N1188 C1178 1.359 . S
N1188 Gd1187 2.570 . S
N1188 C1190 1.343 . S
C1189 C1177 1.422 . S
C1189 C1191 1.321 . S
C1189 H1197 0.931 . S
C1190 N1188 1.343 . S
C1190 C1191 1.390 . S
C1190 H1192 0.931 . S
C1191 C1189 1.321 . S
C1191 C1190 1.390 . S
C1191 H1193 0.930 . S
H1192 C1190 0.931 . S
H1193 C1191 0.930 . S
H1194 C1217 0.931 . S
H1195 C1183 0.929 . S
H1196 C1218 0.930 . S
H1197 C1189 0.931 . S
H1198 C1179 0.930 . S
H1199 C1208 0.929 . S
H1200 C1184 0.931 . S
H1201 C1185 0.930 . S
H1202 C1240 0.930 . S
H1203 C1181 0.929 . S
H1204 C1209 0.931 . S
H1205 C1210 0.930 . S
N1206 Gd1186 2.622 . S
N1206 C1207 1.369 . S
N1206 C1208 1.338 . S
C1207 N1206 1.369 . S
C1207 C1211 1.415 . S
C1207 C1214 1.422 . S
C1208 H1199 0.929 . S
C1208 N1206 1.338 . S
C1208 C1210 1.378 . S
C1209 H1204 0.931 . S
C1209 C1210 1.348 . S
C1209 C1211 1.413 . S
C1210 H1205 0.930 . S
C1210 C1208 1.378 . S
C1210 C1209 1.348 . S
C1211 C1207 1.415 . S
C1211 C1209 1.413 . S
C1211 C1241 1.437 . S
H1212 C1241 0.929 . S
N1213 Gd1186 2.570 . S
N1213 C1214 1.359 . S
N1213 C1217 1.343 . S
C1214 C1207 1.422 . S
C1214 N1213 1.359 . S
C1214 C1216 1.421 . S
C1215 C1216 1.422 . S
C1215 C1218 1.321 . S
C1215 H1242 0.931 . S
C1216 C1214 1.421 . S
C1216 C1215 1.422 . S
C1216 C1240 1.417 . S
C1217 H1194 0.931 . S
C1217 N1213 1.343 . S
C1217 C1218 1.390 . S
C1218 H1196 0.930 . S
C1218 C1215 1.321 . S
C1218 C1217 1.390 . S
O1219 Gd1187 2.386 . S
O1219 C1231 1.265 . S
O1220 Gd1186 2.353 . S
O1220 C1231 1.242 . S
O1221 Gd1186 2.468 . S
O1221 C1239 1.263 . S
O1222 Gd1186 2.427 . S
O1222 C1239 1.252 . S
O1223 Gd1187 2.307 . S
O1223 C1232 1.261 . S
O1224 Gd1186 2.388 . S
O1224 C1232 1.252 . S
O1225 Gd1186 2.386 . S
O1225 C1243 1.265 . S
O1226 Gd1187 2.353 . S
O1226 C1243 1.242 . S
O1227 Gd1187 2.468 . S
O1227 C1251 1.263 . S
O1228 Gd1187 2.427 . S
O1228 C1251 1.252 . S
O1229 Gd1186 2.307 . S
O1229 C1244 1.261 . S
O1230 Gd1187 2.388 . S
O1230 C1244 1.252 . S
C1231 O1219 1.265 . S
C1231 O1220 1.242 . S
C1232 O1223 1.261 . S
C1232 O1224 1.252 . S
C1233 C1236 1.394 . S
C1233 C1238 1.370 . S
C1233 C1239 1.500 . S
C1234 C1237 1.383 . S
C1234 C1238 1.395 . S
C1235 C1236 1.396 . S
C1235 C1237 1.365 . S
C1235 H1252 0.929 . S
C1236 C1233 1.394 . S
C1236 C1235 1.396 . S
C1236 H1253 0.930 . S
C1237 C1234 1.383 . S
C1237 C1235 1.365 . S
C1237 H1254 0.931 . S
C1238 C1233 1.370 . S
C1238 C1234 1.395 . S
C1238 H1255 0.930 . S
C1239 Gd1186 2.805 . S
C1239 O1221 1.263 . S
C1239 O1222 1.252 . S
C1239 C1233 1.500 . S
C1240 H1202 0.930 . S
C1240 C1216 1.417 . S
C1240 C1241 1.329 . S
C1241 C1211 1.437 . S
C1241 H1212 0.929 . S
C1241 C1240 1.329 . S
H1242 C1215 0.931 . S
C1243 O1225 1.265 . S
C1243 O1226 1.242 . S
C1244 O1229 1.261 . S
C1244 O1230 1.252 . S
C1245 C1248 1.394 . S
C1245 C1250 1.370 . S
C1245 C1251 1.500 . S
C1246 C1249 1.383 . S
C1246 C1250 1.395 . S
C1247 C1248 1.396 . S
C1247 C1249 1.365 . S
C1247 H1256 0.929 . S
C1248 C1245 1.394 . S
C1248 C1247 1.396 . S
C1248 H1257 0.930 . S
C1249 C1246 1.383 . S
C1249 C1247 1.365 . S
C1249 H1258 0.930 . S
C1250 C1245 1.370 . S
C1250 C1246 1.395 . S
C1250 H1259 0.930 . S
C1251 Gd1187 2.805 . S
C1251 O1227 1.263 . S
C1251 O1228 1.252 . S
C1251 C1245 1.500 . S
H1252 C1235 0.929 . S
H1253 C1236 0.930 . S
H1254 C1237 0.931 . S
H1255 C1238 0.930 . S
H1256 C1247 0.929 . S
H1257 C1248 0.930 . S
H1258 C1249 0.930 . S
H1259 C1250 0.930 . S
C1260 C1262 1.422 . S
C1260 C1264 1.415 . S
C1260 N1266 1.369 . S
C1261 C1262 1.421 . S
C1261 C1263 1.417 . S
C1261 C1273 1.422 . S
C1262 C1260 1.422 . S
C1262 C1261 1.421 . S
C1262 N1272 1.359 . S
C1263 C1261 1.417 . S
C1263 C1265 1.329 . S
C1263 H1282 0.930 . S
C1264 C1260 1.415 . S
C1264 C1265 1.437 . S
C1264 C1268 1.413 . S
C1265 C1263 1.329 . S
C1265 C1264 1.437 . S
C1265 H1287 0.929 . S
N1266 C1260 1.369 . S
N1266 C1267 1.338 . S
N1266 Gd1271 2.622 . S
C1267 N1266 1.338 . S
C1267 C1269 1.378 . S
C1267 H1279 0.929 . S
C1268 C1264 1.413 . S
C1268 C1269 1.348 . S
C1268 H1284 0.931 . S
C1269 C1267 1.378 . S
C1269 C1268 1.348 . S
C1269 H1285 0.930 . S
Gd1270 N1290 2.622 . S
Gd1270 N1297 2.570 . S
Gd1270 O1304 2.353 . S
Gd1270 O1305 2.468 . S
Gd1270 O1306 2.427 . S
Gd1270 O1308 2.388 . S
Gd1270 O1309 2.386 . S
Gd1270 O1313 2.307 . S
Gd1270 C1323 2.805 . S
Gd1271 N1266 2.622 . S
Gd1271 N1272 2.570 . S
Gd1271 O1303 2.386 . S
Gd1271 O1307 2.307 . S
Gd1271 O1310 2.353 . S
Gd1271 O1311 2.468 . S
Gd1271 O1312 2.427 . S
Gd1271 O1314 2.388 . S
Gd1271 C1335 2.805 . S
N1272 C1262 1.359 . S
N1272 Gd1271 2.570 . S
N1272 C1274 1.343 . S
C1273 C1261 1.422 . S
C1273 C1275 1.321 . S
C1273 H1281 0.931 . S
C1274 N1272 1.343 . S
C1274 C1275 1.390 . S
C1274 H1276 0.931 . S
C1275 C1273 1.321 . S
C1275 C1274 1.390 . S
C1275 H1277 0.930 . S
H1276 C1274 0.931 . S
H1277 C1275 0.930 . S
H1278 C1301 0.931 . S
H1279 C1267 0.929 . S
H1280 C1302 0.930 . S
H1281 C1273 0.931 . S
H1282 C1263 0.930 . S
H1283 C1292 0.929 . S
H1284 C1268 0.931 . S
H1285 C1269 0.930 . S
H1286 C1324 0.930 . S
H1287 C1265 0.929 . S
H1288 C1293 0.931 . S
H1289 C1294 0.930 . S
N1290 Gd1270 2.622 . S
N1290 C1291 1.369 . S
N1290 C1292 1.338 . S
C1291 N1290 1.369 . S
C1291 C1295 1.415 . S
C1291 C1298 1.422 . S
C1292 H1283 0.929 . S
C1292 N1290 1.338 . S
C1292 C1294 1.378 . S
C1293 H1288 0.931 . S
C1293 C1294 1.348 . S
C1293 C1295 1.413 . S
C1294 H1289 0.930 . S
C1294 C1292 1.378 . S
C1294 C1293 1.348 . S
C1295 C1291 1.415 . S
C1295 C1293 1.413 . S
C1295 C1325 1.437 . S
H1296 C1325 0.929 . S
N1297 Gd1270 2.570 . S
N1297 C1298 1.359 . S
N1297 C1301 1.343 . S
C1298 C1291 1.422 . S
C1298 N1297 1.359 . S
C1298 C1300 1.421 . S
C1299 C1300 1.422 . S
C1299 C1302 1.321 . S
C1299 H1326 0.931 . S
C1300 C1298 1.421 . S
C1300 C1299 1.422 . S
C1300 C1324 1.417 . S
C1301 H1278 0.931 . S
C1301 N1297 1.343 . S
C1301 C1302 1.390 . S
C1302 H1280 0.930 . S
C1302 C1299 1.321 . S
C1302 C1301 1.390 . S
O1303 Gd1271 2.386 . S
O1303 C1315 1.265 . S
O1304 Gd1270 2.353 . S
O1304 C1315 1.242 . S
O1305 Gd1270 2.468 . S
O1305 C1323 1.263 . S
O1306 Gd1270 2.427 . S
O1306 C1323 1.252 . S
O1307 Gd1271 2.307 . S
O1307 C1316 1.261 . S
O1308 Gd1270 2.388 . S
O1308 C1316 1.252 . S
O1309 Gd1270 2.386 . S
O1309 C1327 1.265 . S
O1310 Gd1271 2.353 . S
O1310 C1327 1.242 . S
O1311 Gd1271 2.468 . S
O1311 C1335 1.263 . S
O1312 Gd1271 2.427 . S
O1312 C1335 1.252 . S
O1313 Gd1270 2.307 . S
O1313 C1328 1.261 . S
O1314 Gd1271 2.388 . S
O1314 C1328 1.252 . S
C1315 O1303 1.265 . S
C1315 O1304 1.242 . S
C1316 O1307 1.261 . S
C1316 O1308 1.252 . S
C1317 C1320 1.394 . S
C1317 C1322 1.370 . S
C1317 C1323 1.500 . S
C1318 C1321 1.383 . S
C1318 C1322 1.395 . S
C1319 C1320 1.396 . S
C1319 C1321 1.365 . S
C1319 H1336 0.929 . S
C1320 C1317 1.394 . S
C1320 C1319 1.396 . S
C1320 H1337 0.930 . S
C1321 C1318 1.383 . S
C1321 C1319 1.365 . S
C1321 H1338 0.931 . S
C1322 C1317 1.370 . S
C1322 C1318 1.395 . S
C1322 H1339 0.930 . S
C1323 Gd1270 2.805 . S
C1323 O1305 1.263 . S
C1323 O1306 1.252 . S
C1323 C1317 1.500 . S
C1324 H1286 0.930 . S
C1324 C1300 1.417 . S
C1324 C1325 1.329 . S
C1325 C1295 1.437 . S
C1325 H1296 0.929 . S
C1325 C1324 1.329 . S
H1326 C1299 0.931 . S
C1327 O1309 1.265 . S
C1327 O1310 1.242 . S
C1328 O1313 1.261 . S
C1328 O1314 1.252 . S
C1329 C1332 1.394 . S
C1329 C1334 1.370 . S
C1329 C1335 1.500 . S
C1330 C1333 1.383 . S
C1330 C1334 1.395 . S
C1331 C1332 1.396 . S
C1331 C1333 1.365 . S
C1331 H1340 0.929 . S
C1332 C1329 1.394 . S
C1332 C1331 1.396 . S
C1332 H1341 0.930 . S
C1333 C1330 1.383 . S
C1333 C1331 1.365 . S
C1333 H1342 0.930 . S
C1334 C1329 1.370 . S
C1334 C1330 1.395 . S
C1334 H1343 0.930 . S
C1335 Gd1271 2.805 . S
C1335 O1311 1.263 . S
C1335 O1312 1.252 . S
C1335 C1329 1.500 . S
H1336 C1319 0.929 . S
H1337 C1320 0.930 . S
H1338 C1321 0.931 . S
H1339 C1322 0.930 . S
H1340 C1331 0.929 . S
H1341 C1332 0.930 . S
H1342 C1333 0.930 . S
H1343 C1334 0.930 . S
H1344 C1350 0.930 . S
H1345 C1354 0.930 . S
H1346 C1359 0.929 . S
H1347 C1357 0.929 . S
H1348 C1352 0.929 . S
H1349 C1358 0.929 . S
C1350 H1344 0.930 . S
C1350 C1351 1.367 . S
C1350 C1358 1.378 . S
C1351 C1350 1.367 . S
C1351 C1359 1.433 . S
C1352 H1348 0.929 . S
C1352 C1354 1.378 . S
C1352 C1356 1.350 . S
C1353 C1356 1.463 . S
C1353 C1358 1.350 . S
C1353 N1361 1.427 . S
C1354 H1345 0.930 . S
C1354 C1352 1.378 . S
C1354 C1355 1.367 . S
C1355 C1354 1.367 . S
C1355 C1357 1.433 . S
C1356 C1352 1.350 . S
C1356 C1353 1.463 . S
C1356 N1360 1.427 . S
C1357 H1347 0.929 . S
C1357 C1355 1.433 . S
C1357 N1360 1.384 . S
C1358 H1349 0.929 . S
C1358 C1350 1.378 . S
C1358 C1353 1.350 . S
C1359 H1346 0.929 . S
C1359 C1351 1.433 . S
C1359 N1361 1.384 . S
N1360 C1356 1.427 . S
N1360 C1357 1.384 . S
N1361 C1353 1.427 . S
N1361 C1359 1.384 . S
H1362 C1368 0.930 . S
H1363 C1372 0.930 . S
H1364 C1377 0.929 . S
H1365 C1375 0.929 . S
H1366 C1370 0.929 . S
H1367 C1376 0.929 . S
C1368 H1362 0.930 . S
C1368 C1369 1.367 . S
C1368 C1376 1.378 . S
C1369 C1368 1.367 . S
C1369 C1377 1.433 . S
C1370 H1366 0.929 . S
C1370 C1372 1.378 . S
C1370 C1374 1.350 . S
C1371 C1374 1.463 . S
C1371 C1376 1.350 . S
C1371 N1379 1.427 . S
C1372 H1363 0.930 . S
C1372 C1370 1.378 . S
C1372 C1373 1.367 . S
C1373 C1372 1.367 . S
C1373 C1375 1.433 . S
C1374 C1370 1.350 . S
C1374 C1371 1.463 . S
C1374 N1378 1.427 . S
C1375 H1365 0.929 . S
C1375 C1373 1.433 . S
C1375 N1378 1.384 . S
C1376 H1367 0.929 . S
C1376 C1368 1.378 . S
C1376 C1371 1.350 . S
C1377 H1364 0.929 . S
C1377 C1369 1.433 . S
C1377 N1379 1.384 . S
N1378 C1374 1.427 . S
N1378 C1375 1.384 . S
N1379 C1371 1.427 . S
N1379 C1377 1.384 . S
H1380 C1386 0.930 . S
H1381 C1390 0.930 . S
H1382 C1395 0.929 . S
H1383 C1393 0.929 . S
H1384 C1388 0.929 . S
H1385 C1394 0.929 . S
C1386 H1380 0.930 . S
C1386 C1387 1.367 . S
C1386 C1394 1.378 . S
C1387 C1386 1.367 . S
C1387 C1395 1.433 . S
C1388 H1384 0.929 . S
C1388 C1390 1.378 . S
C1388 C1392 1.350 . S
C1389 C1392 1.463 . S
C1389 C1394 1.350 . S
C1389 N1397 1.427 . S
C1390 H1381 0.930 . S
C1390 C1388 1.378 . S
C1390 C1391 1.367 . S
C1391 C1390 1.367 . S
C1391 C1393 1.433 . S
C1392 C1388 1.350 . S
C1392 C1389 1.463 . S
C1392 N1396 1.427 . S
C1393 H1383 0.929 . S
C1393 C1391 1.433 . S
C1393 N1396 1.384 . S
C1394 H1385 0.929 . S
C1394 C1386 1.378 . S
C1394 C1389 1.350 . S
C1395 H1382 0.929 . S
C1395 C1387 1.433 . S
C1395 N1397 1.384 . S
N1396 C1392 1.427 . S
N1396 C1393 1.384 . S
N1397 C1389 1.427 . S
N1397 C1395 1.384 . S
H1398 C1404 0.930 . S
H1399 C1408 0.930 . S
H1400 C1413 0.929 . S
H1401 C1411 0.929 . S
H1402 C1406 0.929 . S
H1403 C1412 0.929 . S
C1404 H1398 0.930 . S
C1404 C1405 1.367 . S
C1404 C1412 1.378 . S
C1405 C1404 1.367 . S
C1405 C1413 1.433 . S
C1406 H1402 0.929 . S
C1406 C1408 1.378 . S
C1406 C1410 1.350 . S
C1407 C1410 1.463 . S
C1407 C1412 1.350 . S
C1407 N1415 1.427 . S
C1408 H1399 0.930 . S
C1408 C1406 1.378 . S
C1408 C1409 1.367 . S
C1409 C1408 1.367 . S
C1409 C1411 1.433 . S
C1410 C1406 1.350 . S
C1410 C1407 1.463 . S
C1410 N1414 1.427 . S
C1411 H1401 0.929 . S
C1411 C1409 1.433 . S
C1411 N1414 1.384 . S
C1412 H1403 0.929 . S
C1412 C1404 1.378 . S
C1412 C1407 1.350 . S
C1413 H1400 0.929 . S
C1413 C1405 1.433 . S
C1413 N1415 1.384 . S
N1414 C1410 1.427 . S
N1414 C1411 1.384 . S
N1415 C1407 1.427 . S
N1415 C1413 1.384 . S
H1416 C1422 0.930 . S
H1417 C1426 0.930 . S
H1418 C1431 0.929 . S
H1419 C1429 0.929 . S
H1420 C1424 0.929 . S
H1421 C1430 0.929 . S
C1422 H1416 0.930 . S
C1422 C1423 1.367 . S
C1422 C1430 1.378 . S
C1423 C1422 1.367 . S
C1423 C1431 1.433 . S
C1424 H1420 0.929 . S
C1424 C1426 1.378 . S
C1424 C1428 1.350 . S
C1425 C1428 1.463 . S
C1425 C1430 1.350 . S
C1425 N1433 1.427 . S
C1426 H1417 0.930 . S
C1426 C1424 1.378 . S
C1426 C1427 1.367 . S
C1427 C1426 1.367 . S
C1427 C1429 1.433 . S
C1428 C1424 1.350 . S
C1428 C1425 1.463 . S
C1428 N1432 1.427 . S
C1429 H1419 0.929 . S
C1429 C1427 1.433 . S
C1429 N1432 1.384 . S
C1430 H1421 0.929 . S
C1430 C1422 1.378 . S
C1430 C1425 1.350 . S
C1431 H1418 0.929 . S
C1431 C1423 1.433 . S
C1431 N1433 1.384 . S
N1432 C1428 1.427 . S
N1432 C1429 1.384 . S
N1433 C1425 1.427 . S
N1433 C1431 1.384 . S
H1434 C1440 0.930 . S
H1435 C1444 0.930 . S
H1436 C1449 0.929 . S
H1437 C1447 0.929 . S
H1438 C1442 0.929 . S
H1439 C1448 0.929 . S
C1440 H1434 0.930 . S
C1440 C1441 1.367 . S
C1440 C1448 1.378 . S
C1441 C1440 1.367 . S
C1441 C1449 1.433 . S
C1442 H1438 0.929 . S
C1442 C1444 1.378 . S
C1442 C1446 1.350 . S
C1443 C1446 1.463 . S
C1443 C1448 1.350 . S
C1443 N1451 1.427 . S
C1444 H1435 0.930 . S
C1444 C1442 1.378 . S
C1444 C1445 1.367 . S
C1445 C1444 1.367 . S
C1445 C1447 1.433 . S
C1446 C1442 1.350 . S
C1446 C1443 1.463 . S
C1446 N1450 1.427 . S
C1447 H1437 0.929 . S
C1447 C1445 1.433 . S
C1447 N1450 1.384 . S
C1448 H1439 0.929 . S
C1448 C1440 1.378 . S
C1448 C1443 1.350 . S
C1449 H1436 0.929 . S
C1449 C1441 1.433 . S
C1449 N1451 1.384 . S
N1450 C1446 1.427 . S
N1450 C1447 1.384 . S
N1451 C1443 1.427 . S
N1451 C1449 1.384 . S
H1452 C1458 0.930 . S
H1453 C1462 0.930 . S
H1454 C1467 0.929 . S
H1455 C1465 0.929 . S
H1456 C1460 0.929 . S
H1457 C1466 0.929 . S
C1458 H1452 0.930 . S
C1458 C1459 1.367 . S
C1458 C1466 1.378 . S
C1459 C1458 1.367 . S
C1459 C1467 1.433 . S
C1460 H1456 0.929 . S
C1460 C1462 1.378 . S
C1460 C1464 1.350 . S
C1461 C1464 1.463 . S
C1461 C1466 1.350 . S
C1461 N1469 1.427 . S
C1462 H1453 0.930 . S
C1462 C1460 1.378 . S
C1462 C1463 1.367 . S
C1463 C1462 1.367 . S
C1463 C1465 1.433 . S
C1464 C1460 1.350 . S
C1464 C1461 1.463 . S
C1464 N1468 1.427 . S
C1465 H1455 0.929 . S
C1465 C1463 1.433 . S
C1465 N1468 1.384 . S
C1466 H1457 0.929 . S
C1466 C1458 1.378 . S
C1466 C1461 1.350 . S
C1467 H1454 0.929 . S
C1467 C1459 1.433 . S
C1467 N1469 1.384 . S
N1468 C1464 1.427 . S
N1468 C1465 1.384 . S
N1469 C1461 1.427 . S
N1469 C1467 1.384 . S
H1470 C1476 0.930 . S
H1471 C1480 0.930 . S
H1472 C1485 0.929 . S
H1473 C1483 0.929 . S
H1474 C1478 0.929 . S
H1475 C1484 0.929 . S
C1476 H1470 0.930 . S
C1476 C1477 1.367 . S
C1476 C1484 1.378 . S
C1477 C1476 1.367 . S
C1477 C1485 1.433 . S
C1478 H1474 0.929 . S
C1478 C1480 1.378 . S
C1478 C1482 1.350 . S
C1479 C1482 1.463 . S
C1479 C1484 1.350 . S
C1479 N1487 1.427 . S
C1480 H1471 0.930 . S
C1480 C1478 1.378 . S
C1480 C1481 1.367 . S
C1481 C1480 1.367 . S
C1481 C1483 1.433 . S
C1482 C1478 1.350 . S
C1482 C1479 1.463 . S
C1482 N1486 1.427 . S
C1483 H1473 0.929 . S
C1483 C1481 1.433 . S
C1483 N1486 1.384 . S
C1484 H1475 0.929 . S
C1484 C1476 1.378 . S
C1484 C1479 1.350 . S
C1485 H1472 0.929 . S
C1485 C1477 1.433 . S
C1485 N1487 1.384 . S
N1486 C1482 1.427 . S
N1486 C1483 1.384 . S
N1487 C1479 1.427 . S
N1487 C1485 1.384 . S
H1488 C1494 0.930 . S
H1489 C1498 0.930 . S
H1490 C1503 0.929 . S
H1491 C1501 0.929 . S
H1492 C1496 0.929 . S
H1493 C1502 0.929 . S
C1494 H1488 0.930 . S
C1494 C1495 1.367 . S
C1494 C1502 1.378 . S
C1495 C1494 1.367 . S
C1495 C1503 1.433 . S
C1496 H1492 0.929 . S
C1496 C1498 1.378 . S
C1496 C1500 1.350 . S
C1497 C1500 1.463 1_565 S
C1497 C1502 1.350 . S
C1497 N1505 1.427 . S
C1498 H1489 0.930 . S
C1498 C1496 1.378 . S
C1498 C1499 1.367 . S
C1499 C1498 1.367 . S
C1499 C1501 1.433 . S
C1500 C1496 1.350 . S
C1500 C1497 1.463 1_545 S
C1500 N1504 1.427 . S
C1501 H1491 0.929 . S
C1501 C1499 1.433 . S
C1501 N1504 1.384 . S
C1502 H1493 0.929 . S
C1502 C1494 1.378 . S
C1502 C1497 1.350 . S
C1503 H1490 0.929 . S
C1503 C1495 1.433 . S
C1503 N1505 1.384 . S
N1504 C1500 1.427 . S
N1504 C1501 1.384 . S
N1505 C1497 1.427 . S
N1505 C1503 1.384 . S
H1506 C1512 0.930 . S
H1507 C1516 0.930 . S
H1508 C1521 0.929 . S
H1509 C1519 0.929 . S
H1510 C1514 0.929 . S
H1511 C1520 0.929 . S
C1512 H1506 0.930 . S
C1512 C1513 1.367 . S
C1512 C1520 1.378 . S
C1513 C1512 1.367 . S
C1513 C1521 1.433 . S
C1514 H1510 0.929 . S
C1514 C1516 1.378 . S
C1514 C1518 1.350 . S
C1515 C1518 1.463 1_545 S
C1515 C1520 1.350 . S
C1515 N1523 1.427 . S
C1516 H1507 0.930 . S
C1516 C1514 1.378 . S
C1516 C1517 1.367 . S
C1517 C1516 1.367 . S
C1517 C1519 1.433 . S
C1518 C1514 1.350 . S
C1518 C1515 1.463 1_565 S
C1518 N1522 1.427 . S
C1519 H1509 0.929 . S
C1519 C1517 1.433 . S
C1519 N1522 1.384 . S
C1520 H1511 0.929 . S
C1520 C1512 1.378 . S
C1520 C1515 1.350 . S
C1521 H1508 0.929 . S
C1521 C1513 1.433 . S
C1521 N1523 1.384 . S
N1522 C1518 1.427 . S
N1522 C1519 1.384 . S
N1523 C1515 1.427 . S
N1523 C1521 1.384 . S
H1524 C1530 0.930 . S
H1525 C1534 0.930 . S
H1526 C1539 0.929 . S
H1527 C1537 0.929 . S
H1528 C1532 0.929 . S
H1529 C1538 0.929 . S
C1530 H1524 0.930 . S
C1530 C1531 1.367 . S
C1530 C1538 1.378 . S
C1531 C1530 1.367 . S
C1531 C1539 1.433 . S
C1532 H1528 0.929 . S
C1532 C1534 1.378 . S
C1532 C1536 1.350 . S
C1533 C1536 1.463 1_545 S
C1533 C1538 1.350 . S
C1533 N1541 1.427 1_545 S
C1534 H1525 0.930 . S
C1534 C1532 1.378 . S
C1534 C1535 1.367 . S
C1535 C1534 1.367 . S
C1535 C1537 1.433 . S
C1536 C1532 1.350 . S
C1536 C1533 1.463 1_565 S
C1536 N1540 1.427 1_565 S
C1537 H1527 0.929 . S
C1537 C1535 1.433 . S
C1537 N1540 1.384 1_565 S
C1538 H1529 0.929 . S
C1538 C1530 1.378 . S
C1538 C1533 1.350 . S
C1539 H1526 0.929 . S
C1539 C1531 1.433 . S
C1539 N1541 1.384 1_545 S
N1540 C1536 1.427 1_545 S
N1540 C1537 1.384 1_545 S
N1541 C1533 1.427 1_565 S
N1541 C1539 1.384 1_565 S
H1542 C1548 0.930 . S
H1543 C1552 0.930 . S
H1544 C1557 0.929 . S
H1545 C1555 0.929 . S
H1546 C1550 0.929 . S
H1547 C1556 0.929 . S
C1548 H1542 0.930 . S
C1548 C1549 1.367 . S
C1548 C1556 1.378 1_545 S
C1549 C1548 1.367 . S
C1549 C1557 1.433 . S
C1550 H1546 0.929 . S
C1550 C1552 1.378 1_545 S
C1550 C1554 1.350 1_545 S
C1551 C1554 1.463 1_545 S
C1551 C1556 1.350 1_545 S
C1551 N1559 1.427 . S
C1552 H1543 0.930 . S
C1552 C1550 1.378 1_565 S
C1552 C1553 1.367 . S
C1553 C1552 1.367 . S
C1553 C1555 1.433 . S
C1554 C1550 1.350 1_565 S
C1554 C1551 1.463 1_565 S
C1554 N1558 1.427 . S
C1555 H1545 0.929 . S
C1555 C1553 1.433 . S
C1555 N1558 1.384 . S
C1556 H1547 0.929 . S
C1556 C1548 1.378 1_565 S
C1556 C1551 1.350 1_565 S
C1557 H1544 0.929 . S
C1557 C1549 1.433 . S
C1557 N1559 1.384 . S
N1558 C1554 1.427 . S
N1558 C1555 1.384 . S
N1559 C1551 1.427 . S
N1559 C1557 1.384 . S
H1560 C1566 0.930 . S
H1561 C1570 0.930 . S
H1562 C1575 0.929 . S
H1563 C1573 0.929 . S
H1564 C1568 0.929 . S
H1565 C1574 0.929 . S
C1566 H1560 0.930 . S
C1566 C1567 1.367 . S
C1566 C1574 1.378 . S
C1567 C1566 1.367 . S
C1567 C1575 1.433 . S
C1568 H1564 0.929 . S
C1568 C1570 1.378 . S
C1568 C1572 1.350 . S
C1569 C1572 1.463 . S
C1569 C1574 1.350 . S
C1569 N1577 1.427 . S
C1570 H1561 0.930 . S
C1570 C1568 1.378 . S
C1570 C1571 1.367 . S
C1571 C1570 1.367 . S
C1571 C1573 1.433 . S
C1572 C1568 1.350 . S
C1572 C1569 1.463 . S
C1572 N1576 1.427 . S
C1573 H1563 0.929 . S
C1573 C1571 1.433 . S
C1573 N1576 1.384 . S
C1574 H1565 0.929 . S
C1574 C1566 1.378 . S
C1574 C1569 1.350 . S
C1575 H1562 0.929 . S
C1575 C1567 1.433 . S
C1575 N1577 1.384 . S
N1576 C1572 1.427 . S
N1576 C1573 1.384 . S
N1577 C1569 1.427 . S
N1577 C1575 1.384 . S
H1578 C1584 0.930 . S
H1579 C1588 0.930 . S
H1580 C1593 0.929 . S
H1581 C1591 0.929 . S
H1582 C1586 0.929 . S
H1583 C1592 0.929 . S
C1584 H1578 0.930 . S
C1584 C1585 1.367 . S
C1584 C1592 1.378 . S
C1585 C1584 1.367 . S
C1585 C1593 1.433 . S
C1586 H1582 0.929 . S
C1586 C1588 1.378 . S
C1586 C1590 1.350 . S
C1587 C1590 1.463 . S
C1587 C1592 1.350 . S
C1587 N1595 1.427 . S
C1588 H1579 0.930 . S
C1588 C1586 1.378 . S
C1588 C1589 1.367 . S
C1589 C1588 1.367 . S
C1589 C1591 1.433 . S
C1590 C1586 1.350 . S
C1590 C1587 1.463 . S
C1590 N1594 1.427 . S
C1591 H1581 0.929 . S
C1591 C1589 1.433 . S
C1591 N1594 1.384 . S
C1592 H1583 0.929 . S
C1592 C1584 1.378 . S
C1592 C1587 1.350 . S
C1593 H1580 0.929 . S
C1593 C1585 1.433 . S
C1593 N1595 1.384 . S
N1594 C1590 1.427 . S
N1594 C1591 1.384 . S
N1595 C1587 1.427 . S
N1595 C1593 1.384 . S
H1596 C1602 0.930 . S
H1597 C1606 0.930 . S
H1598 C1611 0.929 . S
H1599 C1609 0.929 . S
H1600 C1604 0.929 . S
H1601 C1610 0.929 . S
C1602 H1596 0.930 . S
C1602 C1603 1.367 . S
C1602 C1610 1.378 . S
C1603 C1602 1.367 . S
C1603 C1611 1.433 . S
C1604 H1600 0.929 . S
C1604 C1606 1.378 . S
C1604 C1608 1.350 . S
C1605 C1608 1.463 . S
C1605 C1610 1.350 . S
C1605 N1613 1.427 . S
C1606 H1597 0.930 . S
C1606 C1604 1.378 . S
C1606 C1607 1.367 . S
C1607 C1606 1.367 . S
C1607 C1609 1.433 . S
C1608 C1604 1.350 . S
C1608 C1605 1.463 . S
C1608 N1612 1.427 . S
C1609 H1599 0.929 . S
C1609 C1607 1.433 . S
C1609 N1612 1.384 . S
C1610 H1601 0.929 . S
C1610 C1602 1.378 . S
C1610 C1605 1.350 . S
C1611 H1598 0.929 . S
C1611 C1603 1.433 . S
C1611 N1613 1.384 . S
N1612 C1608 1.427 . S
N1612 C1609 1.384 . S
N1613 C1605 1.427 . S
N1613 C1611 1.384 . S
H1614 C1620 0.930 . S
H1615 C1624 0.930 . S
H1616 C1629 0.929 . S
H1617 C1627 0.929 . S
H1618 C1622 0.929 . S
H1619 C1628 0.929 . S
C1620 H1614 0.930 . S
C1620 C1621 1.367 . S
C1620 C1628 1.378 . S
C1621 C1620 1.367 . S
C1621 C1629 1.433 . S
C1622 H1618 0.929 . S
C1622 C1624 1.378 . S
C1622 C1626 1.350 . S
C1623 C1626 1.463 . S
C1623 C1628 1.350 . S
C1623 N1631 1.427 . S
C1624 H1615 0.930 . S
C1624 C1622 1.378 . S
C1624 C1625 1.367 . S
C1625 C1624 1.367 . S
C1625 C1627 1.433 . S
C1626 C1622 1.350 . S
C1626 C1623 1.463 . S
C1626 N1630 1.427 . S
C1627 H1617 0.929 . S
C1627 C1625 1.433 . S
C1627 N1630 1.384 . S
C1628 H1619 0.929 . S
C1628 C1620 1.378 . S
C1628 C1623 1.350 . S
C1629 H1616 0.929 . S
C1629 C1621 1.433 . S
C1629 N1631 1.384 . S
N1630 C1626 1.427 . S
N1630 C1627 1.384 . S
N1631 C1623 1.427 . S
N1631 C1629 1.384 . S
H1632 C1638 0.930 . S
H1633 C1642 0.930 . S
H1634 C1647 0.929 . S
H1635 C1645 0.929 . S
H1636 C1640 0.929 . S
H1637 C1646 0.929 . S
C1638 H1632 0.930 . S
C1638 C1639 1.367 . S
C1638 C1646 1.378 . S
C1639 C1638 1.367 . S
C1639 C1647 1.433 . S
C1640 H1636 0.929 . S
C1640 C1642 1.378 . S
C1640 C1644 1.350 . S
C1641 C1644 1.463 1_556 S
C1641 C1646 1.350 . S
C1641 N1649 1.427 . S
C1642 H1633 0.930 . S
C1642 C1640 1.378 . S
C1642 C1643 1.367 . S
C1643 C1642 1.367 . S
C1643 C1645 1.433 . S
C1644 C1640 1.350 . S
C1644 C1641 1.463 1_554 S
C1644 N1648 1.427 . S
C1645 H1635 0.929 . S
C1645 C1643 1.433 . S
C1645 N1648 1.384 . S
C1646 H1637 0.929 . S
C1646 C1638 1.378 . S
C1646 C1641 1.350 . S
C1647 H1634 0.929 . S
C1647 C1639 1.433 . S
C1647 N1649 1.384 . S
N1648 C1644 1.427 . S
N1648 C1645 1.384 . S
N1649 C1641 1.427 . S
N1649 C1647 1.384 . S
H1650 C1656 0.930 . S
H1651 C1660 0.930 . S
H1652 C1665 0.929 . S
H1653 C1663 0.929 . S
H1654 C1658 0.929 . S
H1655 C1664 0.929 . S
C1656 H1650 0.930 . S
C1656 C1657 1.367 . S
C1656 C1664 1.378 . S
C1657 C1656 1.367 . S
C1657 C1665 1.433 . S
C1658 H1654 0.929 . S
C1658 C1660 1.378 . S
C1658 C1662 1.350 . S
C1659 C1662 1.463 1_556 S
C1659 C1664 1.350 . S
C1659 N1667 1.427 . S
C1660 H1651 0.930 . S
C1660 C1658 1.378 . S
C1660 C1661 1.367 . S
C1661 C1660 1.367 . S
C1661 C1663 1.433 . S
C1662 C1658 1.350 . S
C1662 C1659 1.463 1_554 S
C1662 N1666 1.427 . S
C1663 H1653 0.929 . S
C1663 C1661 1.433 . S
C1663 N1666 1.384 . S
C1664 H1655 0.929 . S
C1664 C1656 1.378 . S
C1664 C1659 1.350 . S
C1665 H1652 0.929 . S
C1665 C1657 1.433 . S
C1665 N1667 1.384 . S
N1666 C1662 1.427 . S
N1666 C1663 1.384 . S
N1667 C1659 1.427 . S
N1667 C1665 1.384 . S
H1668 C1674 0.930 . S
H1669 C1678 0.930 . S
H1670 C1683 0.929 . S
H1671 C1681 0.929 . S
H1672 C1676 0.929 . S
H1673 C1682 0.929 . S
C1674 H1668 0.930 . S
C1674 C1675 1.367 . S
C1674 C1682 1.378 . S
C1675 C1674 1.367 . S
C1675 C1683 1.433 . S
C1676 H1672 0.929 . S
C1676 C1678 1.378 . S
C1676 C1680 1.350 . S
C1677 C1680 1.463 . S
C1677 C1682 1.350 . S
C1677 N1685 1.427 . S
C1678 H1669 0.930 . S
C1678 C1676 1.378 . S
C1678 C1679 1.367 . S
C1679 C1678 1.367 . S
C1679 C1681 1.433 . S
C1680 C1676 1.350 . S
C1680 C1677 1.463 . S
C1680 N1684 1.427 . S
C1681 H1671 0.929 . S
C1681 C1679 1.433 . S
C1681 N1684 1.384 . S
C1682 H1673 0.929 . S
C1682 C1674 1.378 . S
C1682 C1677 1.350 . S
C1683 H1670 0.929 . S
C1683 C1675 1.433 . S
C1683 N1685 1.384 . S
N1684 C1680 1.427 . S
N1684 C1681 1.384 . S
N1685 C1677 1.427 . S
N1685 C1683 1.384 . S
H1686 C1692 0.930 . S
H1687 C1696 0.930 . S
H1688 C1701 0.929 . S
H1689 C1699 0.929 . S
H1690 C1694 0.929 . S
H1691 C1700 0.929 . S
C1692 H1686 0.930 . S
C1692 C1693 1.367 . S
C1692 C1700 1.378 . S
C1693 C1692 1.367 . S
C1693 C1701 1.433 . S
C1694 H1690 0.929 . S
C1694 C1696 1.378 . S
C1694 C1698 1.350 . S
C1695 C1698 1.463 . S
C1695 C1700 1.350 . S
C1695 N1703 1.427 . S
C1696 H1687 0.930 . S
C1696 C1694 1.378 . S
C1696 C1697 1.367 . S
C1697 C1696 1.367 . S
C1697 C1699 1.433 . S
C1698 C1694 1.350 . S
C1698 C1695 1.463 . S
C1698 N1702 1.427 . S
C1699 H1689 0.929 . S
C1699 C1697 1.433 . S
C1699 N1702 1.384 . S
C1700 H1691 0.929 . S
C1700 C1692 1.378 . S
C1700 C1695 1.350 . S
C1701 H1688 0.929 . S
C1701 C1693 1.433 . S
C1701 N1703 1.384 . S
N1702 C1698 1.427 . S
N1702 C1699 1.384 . S
N1703 C1695 1.427 . S
N1703 C1701 1.384 . S
H1704 C1710 0.930 . S
H1705 C1714 0.930 . S
H1706 C1719 0.929 . S
H1707 C1717 0.929 . S
H1708 C1712 0.929 . S
H1709 C1718 0.929 . S
C1710 H1704 0.930 . S
C1710 C1711 1.367 . S
C1710 C1718 1.378 . S
C1711 C1710 1.367 . S
C1711 C1719 1.433 . S
C1712 H1708 0.929 . S
C1712 C1714 1.378 . S
C1712 C1716 1.350 . S
C1713 C1716 1.463 1_554 S
C1713 C1718 1.350 . S
C1713 N1721 1.427 . S
C1714 H1705 0.930 . S
C1714 C1712 1.378 . S
C1714 C1715 1.367 . S
C1715 C1714 1.367 . S
C1715 C1717 1.433 . S
C1716 C1712 1.350 . S
C1716 C1713 1.463 1_556 S
C1716 N1720 1.427 . S
C1717 H1707 0.929 . S
C1717 C1715 1.433 . S
C1717 N1720 1.384 . S
C1718 H1709 0.929 . S
C1718 C1710 1.378 . S
C1718 C1713 1.350 . S
C1719 H1706 0.929 . S
C1719 C1711 1.433 . S
C1719 N1721 1.384 . S
N1720 C1716 1.427 . S
N1720 C1717 1.384 . S
N1721 C1713 1.427 . S
N1721 C1719 1.384 . S
H1722 C1728 0.930 . S
H1723 C1732 0.930 . S
H1724 C1737 0.929 . S
H1725 C1735 0.929 . S
H1726 C1730 0.929 . S
H1727 C1736 0.929 . S
C1728 H1722 0.930 . S
C1728 C1729 1.367 . S
C1728 C1736 1.378 . S
C1729 C1728 1.367 . S
C1729 C1737 1.433 . S
C1730 H1726 0.929 . S
C1730 C1732 1.378 . S
C1730 C1734 1.350 . S
C1731 C1734 1.463 1_556 S
C1731 C1736 1.350 . S
C1731 N1739 1.427 . S
C1732 H1723 0.930 . S
C1732 C1730 1.378 . S
C1732 C1733 1.367 . S
C1733 C1732 1.367 . S
C1733 C1735 1.433 . S
C1734 C1730 1.350 . S
C1734 C1731 1.463 1_554 S
C1734 N1738 1.427 . S
C1735 H1725 0.929 . S
C1735 C1733 1.433 . S
C1735 N1738 1.384 . S
C1736 H1727 0.929 . S
C1736 C1728 1.378 . S
C1736 C1731 1.350 . S
C1737 H1724 0.929 . S
C1737 C1729 1.433 . S
C1737 N1739 1.384 . S
N1738 C1734 1.427 . S
N1738 C1735 1.384 . S
N1739 C1731 1.427 . S
N1739 C1737 1.384 . S
H1740 C1746 0.930 . S
H1741 C1750 0.930 . S
H1742 C1755 0.929 . S
H1743 C1753 0.929 . S
H1744 C1748 0.929 . S
H1745 C1754 0.929 . S
C1746 H1740 0.930 . S
C1746 C1747 1.367 . S
C1746 C1754 1.378 . S
C1747 C1746 1.367 . S
C1747 C1755 1.433 . S
C1748 H1744 0.929 . S
C1748 C1750 1.378 . S
C1748 C1752 1.350 . S
C1749 C1752 1.463 . S
C1749 C1754 1.350 . S
C1749 N1757 1.427 . S
C1750 H1741 0.930 . S
C1750 C1748 1.378 . S
C1750 C1751 1.367 . S
C1751 C1750 1.367 . S
C1751 C1753 1.433 . S
C1752 C1748 1.350 . S
C1752 C1749 1.463 . S
C1752 N1756 1.427 . S
C1753 H1743 0.929 . S
C1753 C1751 1.433 . S
C1753 N1756 1.384 . S
C1754 H1745 0.929 . S
C1754 C1746 1.378 . S
C1754 C1749 1.350 . S
C1755 H1742 0.929 . S
C1755 C1747 1.433 . S
C1755 N1757 1.384 . S
N1756 C1752 1.427 . S
N1756 C1753 1.384 . S
N1757 C1749 1.427 . S
N1757 C1755 1.384 . S
H1758 C1764 0.930 . S
H1759 C1768 0.930 . S
H1760 C1773 0.929 . S
H1761 C1771 0.929 . S
H1762 C1766 0.929 . S
H1763 C1772 0.929 . S
C1764 H1758 0.930 . S
C1764 C1765 1.367 . S
C1764 C1772 1.378 . S
C1765 C1764 1.367 . S
C1765 C1773 1.433 . S
C1766 H1762 0.929 . S
C1766 C1768 1.378 . S
C1766 C1770 1.350 . S
C1767 C1770 1.463 . S
C1767 C1772 1.350 . S
C1767 N1775 1.427 . S
C1768 H1759 0.930 . S
C1768 C1766 1.378 . S
C1768 C1769 1.367 . S
C1769 C1768 1.367 . S
C1769 C1771 1.433 . S
C1770 C1766 1.350 . S
C1770 C1767 1.463 . S
C1770 N1774 1.427 . S
C1771 H1761 0.929 . S
C1771 C1769 1.433 . S
C1771 N1774 1.384 . S
C1772 H1763 0.929 . S
C1772 C1764 1.378 . S
C1772 C1767 1.350 . S
C1773 H1760 0.929 . S
C1773 C1765 1.433 . S
C1773 N1775 1.384 . S
N1774 C1770 1.427 . S
N1774 C1771 1.384 . S
N1775 C1767 1.427 . S
N1775 C1773 1.384 . S
H1776 C1782 0.939 . S
H1777 C1786 0.939 . S
H1778 C1791 0.929 . S
H1779 C1789 0.929 . S
H1780 C1784 0.929 . S
H1781 C1790 0.929 . S
C1782 H1776 0.939 . S
C1782 C1783 1.352 1_545 S
C1782 C1790 1.384 . S
C1783 C1782 1.352 1_565 S
C1783 C1791 1.433 . S
C1784 H1780 0.929 . S
C1784 C1786 1.384 . S
C1784 C1788 1.350 1_565 S
C1785 C1788 1.463 1_665 S
C1785 C1790 1.350 1_565 S
C1785 N1793 1.427 . S
C1786 H1777 0.939 . S
C1786 C1784 1.384 . S
C1786 C1787 1.352 1_565 S
C1787 C1786 1.352 1_545 S
C1787 C1789 1.433 . S
C1788 C1784 1.350 1_545 S
C1788 C1785 1.463 1_445 S
C1788 N1792 1.427 . S
C1789 H1779 0.929 . S
C1789 C1787 1.433 . S
C1789 N1792 1.384 . S
C1790 H1781 0.929 . S
C1790 C1782 1.384 . S
C1790 C1785 1.350 1_545 S
C1791 H1778 0.929 . S
C1791 C1783 1.433 . S
C1791 N1793 1.384 . S
N1792 C1788 1.427 . S
N1792 C1789 1.384 . S
N1793 C1785 1.427 . S
N1793 C1791 1.384 . S
H1794 C1800 0.930 . S
H1795 C1804 0.930 . S
H1796 C1809 0.929 . S
H1797 C1807 0.929 . S
H1798 C1802 0.929 1_545 S
H1799 C1808 0.929 1_565 S
C1800 H1794 0.930 . S
C1800 C1801 1.367 . S
C1800 C1808 1.378 . S
C1801 C1800 1.367 . S
C1801 C1809 1.433 . S
C1802 H1798 0.929 1_565 S
C1802 C1804 1.378 . S
C1802 C1806 1.350 . S
C1803 C1806 1.463 1_645 S
C1803 C1808 1.350 . S
C1803 N1811 1.427 . S
C1804 H1795 0.930 . S
C1804 C1802 1.378 . S
C1804 C1805 1.367 . S
C1805 C1804 1.367 . S
C1805 C1807 1.433 . S
C1806 C1802 1.350 . S
C1806 C1803 1.463 1_465 S
C1806 N1810 1.427 . S
C1807 H1797 0.929 . S
C1807 C1805 1.433 . S
C1807 N1810 1.384 . S
C1808 H1799 0.929 1_545 S
C1808 C1800 1.378 . S
C1808 C1803 1.350 . S
C1809 H1796 0.929 . S
C1809 C1801 1.433 . S
C1809 N1811 1.384 . S
N1810 C1806 1.427 . S
N1810 C1807 1.384 . S
N1811 C1803 1.427 . S
N1811 C1809 1.384 . S
H1812 C1818 0.930 . S
H1813 C1822 0.930 . S
H1814 C1827 0.925 1_565 S
H1815 C1825 0.925 1_545 S
H1816 C1820 0.929 . S
H1817 C1826 0.929 . S
C1818 H1812 0.930 . S
C1818 C1819 1.367 . S
C1818 C1826 1.378 . S
C1819 C1818 1.367 . S
C1819 C1827 1.433 . S
C1820 H1816 0.929 . S
C1820 C1822 1.378 . S
C1820 C1824 1.350 . S
C1821 C1824 1.463 1_445 S
C1821 C1826 1.350 . S
C1821 N1829 1.427 1_545 S
C1822 H1813 0.930 . S
C1822 C1820 1.378 . S
C1822 C1823 1.367 . S
C1823 C1822 1.367 . S
C1823 C1825 1.433 . S
C1824 C1820 1.350 . S
C1824 C1821 1.463 1_665 S
C1824 N1828 1.427 1_565 S
C1825 H1815 0.925 1_565 S
C1825 C1823 1.433 . S
C1825 N1828 1.384 1_565 S
C1826 H1817 0.929 . S
C1826 C1818 1.378 . S
C1826 C1821 1.350 . S
C1827 H1814 0.925 1_545 S
C1827 C1819 1.433 . S
C1827 N1829 1.384 1_545 S
N1828 C1824 1.427 1_545 S
N1828 C1825 1.384 1_545 S
N1829 C1821 1.427 1_565 S
N1829 C1827 1.384 1_565 S
H1830 C1836 0.930 . S
H1831 C1840 0.930 . S
H1832 C1845 0.930 . S
H1833 C1843 0.930 . S
H1834 C1838 0.929 . S
H1835 C1844 0.929 . S
C1836 H1830 0.930 . S
C1836 C1837 1.367 . S
C1836 C1844 1.378 . S
C1837 C1836 1.367 . S
C1837 C1845 1.432 1_545 S
C1838 H1834 0.929 . S
C1838 C1840 1.378 . S
C1838 C1842 1.350 . S
C1839 C1842 1.463 1_645 S
C1839 C1844 1.350 . S
C1839 N1847 1.427 1_545 S
C1840 H1831 0.930 . S
C1840 C1838 1.378 . S
C1840 C1841 1.367 . S
C1841 C1840 1.367 . S
C1841 C1843 1.432 1_565 S
C1842 C1838 1.350 . S
C1842 C1839 1.463 1_465 S
C1842 N1846 1.427 1_565 S
C1843 H1833 0.930 . S
C1843 C1841 1.432 1_545 S
C1843 N1846 1.384 . S
C1844 H1835 0.929 . S
C1844 C1836 1.378 . S
C1844 C1839 1.350 . S
C1845 H1832 0.930 . S
C1845 C1837 1.432 1_565 S
C1845 N1847 1.384 . S
N1846 C1842 1.427 1_545 S
N1846 C1843 1.384 . S
N1847 C1839 1.427 1_565 S
N1847 C1845 1.384 . S
H1848 C1854 0.930 . S
H1849 C1858 0.930 . S
H1850 C1863 0.929 . S
H1851 C1861 0.929 . S
H1852 C1856 0.929 . S
H1853 C1862 0.929 . S
C1854 H1848 0.930 . S
C1854 C1855 1.367 . S
C1854 C1862 1.378 . S
C1855 C1854 1.367 . S
C1855 C1863 1.433 . S
C1856 H1852 0.929 . S
C1856 C1858 1.378 . S
C1856 C1860 1.350 . S
C1857 C1860 1.463 . S
C1857 C1862 1.350 . S
C1857 N1865 1.427 . S
C1858 H1849 0.930 . S
C1858 C1856 1.378 . S
C1858 C1859 1.367 . S
C1859 C1858 1.367 . S
C1859 C1861 1.433 . S
C1860 C1856 1.350 . S
C1860 C1857 1.463 . S
C1860 N1864 1.427 . S
C1861 H1851 0.929 . S
C1861 C1859 1.433 . S
C1861 N1864 1.384 . S
C1862 H1853 0.929 . S
C1862 C1854 1.378 . S
C1862 C1857 1.350 . S
C1863 H1850 0.929 . S
C1863 C1855 1.433 . S
C1863 N1865 1.384 . S
N1864 C1860 1.427 . S
N1864 C1861 1.384 . S
N1865 C1857 1.427 . S
N1865 C1863 1.384 . S
H1866 C1872 0.930 . S
H1867 C1876 0.930 . S
H1868 C1881 0.929 . S
H1869 C1879 0.929 . S
H1870 C1874 0.929 . S
H1871 C1880 0.929 . S
C1872 H1866 0.930 . S
C1872 C1873 1.367 . S
C1872 C1880 1.378 . S
C1873 C1872 1.367 . S
C1873 C1881 1.433 . S
C1874 H1870 0.929 . S
C1874 C1876 1.378 . S
C1874 C1878 1.350 . S
C1875 C1878 1.463 . S
C1875 C1880 1.350 . S
C1875 N1883 1.427 . S
C1876 H1867 0.930 . S
C1876 C1874 1.378 . S
C1876 C1877 1.367 . S
C1877 C1876 1.367 . S
C1877 C1879 1.433 . S
C1878 C1874 1.350 . S
C1878 C1875 1.463 . S
C1878 N1882 1.427 . S
C1879 H1869 0.929 . S
C1879 C1877 1.433 . S
C1879 N1882 1.384 . S
C1880 H1871 0.929 . S
C1880 C1872 1.378 . S
C1880 C1875 1.350 . S
C1881 H1868 0.929 . S
C1881 C1873 1.433 . S
C1881 N1883 1.384 . S
N1882 C1878 1.427 . S
N1882 C1879 1.384 . S
N1883 C1875 1.427 . S
N1883 C1881 1.384 . S
H1884 C1890 0.930 . S
H1885 C1894 0.930 . S
H1886 C1899 0.929 . S
H1887 C1897 0.929 . S
H1888 C1892 0.929 . S
H1889 C1898 0.929 . S
C1890 H1884 0.930 . S
C1890 C1891 1.367 . S
C1890 C1898 1.378 . S
C1891 C1890 1.367 . S
C1891 C1899 1.433 . S
C1892 H1888 0.929 . S
C1892 C1894 1.378 . S
C1892 C1896 1.350 . S
C1893 C1896 1.463 . S
C1893 C1898 1.350 . S
C1893 N1901 1.427 . S
C1894 H1885 0.930 . S
C1894 C1892 1.378 . S
C1894 C1895 1.367 . S
C1895 C1894 1.367 . S
C1895 C1897 1.433 . S
C1896 C1892 1.350 . S
C1896 C1893 1.463 . S
C1896 N1900 1.427 . S
C1897 H1887 0.929 . S
C1897 C1895 1.433 . S
C1897 N1900 1.384 . S
C1898 H1889 0.929 . S
C1898 C1890 1.378 . S
C1898 C1893 1.350 . S
C1899 H1886 0.929 . S
C1899 C1891 1.433 . S
C1899 N1901 1.384 . S
N1900 C1896 1.427 . S
N1900 C1897 1.384 . S
N1901 C1893 1.427 . S
N1901 C1899 1.384 . S
H1902 C1908 0.930 . S
H1903 C1912 0.930 . S
H1904 C1917 0.929 . S
H1905 C1915 0.929 . S
H1906 C1910 0.929 . S
H1907 C1916 0.929 . S
C1908 H1902 0.930 . S
C1908 C1909 1.367 . S
C1908 C1916 1.378 . S
C1909 C1908 1.367 . S
C1909 C1917 1.433 . S
C1910 H1906 0.929 . S
C1910 C1912 1.378 . S
C1910 C1914 1.350 . S
C1911 C1914 1.463 . S
C1911 C1916 1.350 . S
C1911 N1919 1.427 . S
C1912 H1903 0.930 . S
C1912 C1910 1.378 . S
C1912 C1913 1.367 . S
C1913 C1912 1.367 . S
C1913 C1915 1.433 . S
C1914 C1910 1.350 . S
C1914 C1911 1.463 . S
C1914 N1918 1.427 . S
C1915 H1905 0.929 . S
C1915 C1913 1.433 . S
C1915 N1918 1.384 . S
C1916 H1907 0.929 . S
C1916 C1908 1.378 . S
C1916 C1911 1.350 . S
C1917 H1904 0.929 . S
C1917 C1909 1.433 . S
C1917 N1919 1.384 . S
N1918 C1914 1.427 . S
N1918 C1915 1.384 . S
N1919 C1911 1.427 . S
N1919 C1917 1.384 . S
H1920 C1926 0.930 . S
H1921 C1930 0.930 . S
H1922 C1935 0.929 . S
H1923 C1933 0.929 . S
H1924 C1928 0.929 . S
H1925 C1934 0.929 . S
C1926 H1920 0.930 . S
C1926 C1927 1.367 . S
C1926 C1934 1.378 . S
C1927 C1926 1.367 . S
C1927 C1935 1.433 . S
C1928 H1924 0.929 . S
C1928 C1930 1.378 . S
C1928 C1932 1.350 . S
C1929 C1932 1.463 . S
C1929 C1934 1.350 . S
C1929 N1937 1.427 . S
C1930 H1921 0.930 . S
C1930 C1928 1.378 . S
C1930 C1931 1.367 . S
C1931 C1930 1.367 . S
C1931 C1933 1.433 . S
C1932 C1928 1.350 . S
C1932 C1929 1.463 . S
C1932 N1936 1.427 . S
C1933 H1923 0.929 . S
C1933 C1931 1.433 . S
C1933 N1936 1.384 . S
C1934 H1925 0.929 . S
C1934 C1926 1.378 . S
C1934 C1929 1.350 . S
C1935 H1922 0.929 . S
C1935 C1927 1.433 . S
C1935 N1937 1.384 . S
N1936 C1932 1.427 . S
N1936 C1933 1.384 . S
N1937 C1929 1.427 . S
N1937 C1935 1.384 . S
H1938 C1944 0.930 . S
H1939 C1948 0.930 . S
H1940 C1953 0.929 . S
H1941 C1951 0.929 . S
H1942 C1946 0.929 . S
H1943 C1952 0.929 . S
C1944 H1938 0.930 . S
C1944 C1945 1.367 . S
C1944 C1952 1.378 . S
C1945 C1944 1.367 . S
C1945 C1953 1.433 . S
C1946 H1942 0.929 . S
C1946 C1948 1.378 . S
C1946 C1950 1.350 . S
C1947 C1950 1.463 . S
C1947 C1952 1.350 . S
C1947 N1955 1.427 . S
C1948 H1939 0.930 . S
C1948 C1946 1.378 . S
C1948 C1949 1.367 . S
C1949 C1948 1.367 . S
C1949 C1951 1.433 . S
C1950 C1946 1.350 . S
C1950 C1947 1.463 . S
C1950 N1954 1.427 . S
C1951 H1941 0.929 . S
C1951 C1949 1.433 . S
C1951 N1954 1.384 . S
C1952 H1943 0.929 . S
C1952 C1944 1.378 . S
C1952 C1947 1.350 . S
C1953 H1940 0.929 . S
C1953 C1945 1.433 . S
C1953 N1955 1.384 . S
N1954 C1950 1.427 . S
N1954 C1951 1.384 . S
N1955 C1947 1.427 . S
N1955 C1953 1.384 . S
H1956 C1962 0.930 . S
H1957 C1966 0.930 . S
H1958 C1971 0.929 . S
H1959 C1969 0.929 . S
H1960 C1964 0.929 . S
H1961 C1970 0.929 . S
C1962 H1956 0.930 . S
C1962 C1963 1.367 . S
C1962 C1970 1.378 . S
C1963 C1962 1.367 . S
C1963 C1971 1.433 . S
C1964 H1960 0.929 . S
C1964 C1966 1.378 . S
C1964 C1968 1.350 . S
C1965 C1968 1.463 . S
C1965 C1970 1.350 . S
C1965 N1973 1.427 . S
C1966 H1957 0.930 . S
C1966 C1964 1.378 . S
C1966 C1967 1.367 . S
C1967 C1966 1.367 . S
C1967 C1969 1.433 . S
C1968 C1964 1.350 . S
C1968 C1965 1.463 . S
C1968 N1972 1.427 . S
C1969 H1959 0.929 . S
C1969 C1967 1.433 . S
C1969 N1972 1.384 . S
C1970 H1961 0.929 . S
C1970 C1962 1.378 . S
C1970 C1965 1.350 . S
C1971 H1958 0.929 . S
C1971 C1963 1.433 . S
C1971 N1973 1.384 . S
N1972 C1968 1.427 . S
N1972 C1969 1.384 . S
N1973 C1965 1.427 . S
N1973 C1971 1.384 . S
H1974 C1980 0.930 . S
H1975 C1984 0.930 . S
H1976 C1989 0.929 . S
H1977 C1987 0.929 . S
H1978 C1982 0.929 . S
H1979 C1988 0.929 . S
C1980 H1974 0.930 . S
C1980 C1981 1.367 . S
C1980 C1988 1.378 . S
C1981 C1980 1.367 . S
C1981 C1989 1.433 . S
C1982 H1978 0.929 . S
C1982 C1984 1.378 . S
C1982 C1986 1.350 . S
C1983 C1986 1.463 . S
C1983 C1988 1.350 . S
C1983 N1991 1.427 . S
C1984 H1975 0.930 . S
C1984 C1982 1.378 . S
C1984 C1985 1.367 . S
C1985 C1984 1.367 . S
C1985 C1987 1.433 . S
C1986 C1982 1.350 . S
C1986 C1983 1.463 . S
C1986 N1990 1.427 . S
C1987 H1977 0.929 . S
C1987 C1985 1.433 . S
C1987 N1990 1.384 . S
C1988 H1979 0.929 . S
C1988 C1980 1.378 . S
C1988 C1983 1.350 . S
C1989 H1976 0.929 . S
C1989 C1981 1.433 . S
C1989 N1991 1.384 . S
N1990 C1986 1.427 . S
N1990 C1987 1.384 . S
N1991 C1983 1.427 . S
N1991 C1989 1.384 . S
H1992 C1998 0.930 . S
H1993 C2002 0.930 . S
H1994 C2007 0.929 . S
H1995 C2005 0.929 . S
H1996 C2000 0.929 . S
H1997 C2006 0.929 . S
C1998 H1992 0.930 . S
C1998 C1999 1.367 . S
C1998 C2006 1.378 . S
C1999 C1998 1.367 . S
C1999 C2007 1.433 . S
C2000 H1996 0.929 . S
C2000 C2002 1.378 . S
C2000 C2004 1.350 . S
C2001 C2004 1.463 . S
C2001 C2006 1.350 . S
C2001 N2009 1.427 . S
C2002 H1993 0.930 . S
C2002 C2000 1.378 . S
C2002 C2003 1.367 . S
C2003 C2002 1.367 . S
C2003 C2005 1.433 . S
C2004 C2000 1.350 . S
C2004 C2001 1.463 . S
C2004 N2008 1.427 . S
C2005 H1995 0.929 . S
C2005 C2003 1.433 . S
C2005 N2008 1.384 . S
C2006 H1997 0.929 . S
C2006 C1998 1.378 . S
C2006 C2001 1.350 . S
C2007 H1994 0.929 . S
C2007 C1999 1.433 . S
C2007 N2009 1.384 . S
N2008 C2004 1.427 . S
N2008 C2005 1.384 . S
N2009 C2001 1.427 . S
N2009 C2007 1.384 . S
H2010 C2016 0.930 . S
H2011 C2020 0.930 . S
H2012 C2025 0.929 . S
H2013 C2023 0.929 . S
H2014 C2018 0.929 . S
H2015 C2024 0.929 . S
C2016 H2010 0.930 . S
C2016 C2017 1.367 . S
C2016 C2024 1.378 . S
C2017 C2016 1.367 . S
C2017 C2025 1.433 . S
C2018 H2014 0.929 . S
C2018 C2020 1.378 . S
C2018 C2022 1.350 . S
C2019 C2022 1.463 . S
C2019 C2024 1.350 . S
C2019 N2027 1.427 . S
C2020 H2011 0.930 . S
C2020 C2018 1.378 . S
C2020 C2021 1.367 . S
C2021 C2020 1.367 . S
C2021 C2023 1.433 . S
C2022 C2018 1.350 . S
C2022 C2019 1.463 . S
C2022 N2026 1.427 . S
C2023 H2013 0.929 . S
C2023 C2021 1.433 . S
C2023 N2026 1.384 . S
C2024 H2015 0.929 . S
C2024 C2016 1.378 . S
C2024 C2019 1.350 . S
C2025 H2012 0.929 . S
C2025 C2017 1.433 . S
C2025 N2027 1.384 . S
N2026 C2022 1.427 . S
N2026 C2023 1.384 . S
N2027 C2019 1.427 . S
N2027 C2025 1.384 . S
H2028 C2034 0.930 . S
H2029 C2038 0.930 . S
H2030 C2043 0.929 . S
H2031 C2041 0.929 . S
H2032 C2036 0.929 . S
H2033 C2042 0.929 . S
C2034 H2028 0.930 . S
C2034 C2035 1.367 . S
C2034 C2042 1.378 . S
C2035 C2034 1.367 . S
C2035 C2043 1.433 . S
C2036 H2032 0.929 . S
C2036 C2038 1.378 . S
C2036 C2040 1.350 . S
C2037 C2040 1.463 . S
C2037 C2042 1.350 . S
C2037 N2045 1.427 . S
C2038 H2029 0.930 . S
C2038 C2036 1.378 . S
C2038 C2039 1.367 . S
C2039 C2038 1.367 . S
C2039 C2041 1.433 . S
C2040 C2036 1.350 . S
C2040 C2037 1.463 . S
C2040 N2044 1.427 . S
C2041 H2031 0.929 . S
C2041 C2039 1.433 . S
C2041 N2044 1.384 . S
C2042 H2033 0.929 . S
C2042 C2034 1.378 . S
C2042 C2037 1.350 . S
C2043 H2030 0.929 . S
C2043 C2035 1.433 . S
C2043 N2045 1.384 . S
N2044 C2040 1.427 . S
N2044 C2041 1.384 . S
N2045 C2037 1.427 . S
N2045 C2043 1.384 . S
H2046 C2052 0.930 . S
H2047 C2056 0.930 . S
H2048 C2061 0.929 . S
H2049 C2059 0.929 . S
H2050 C2054 0.929 . S
H2051 C2060 0.929 . S
C2052 H2046 0.930 . S
C2052 C2053 1.367 . S
C2052 C2060 1.378 . S
C2053 C2052 1.367 . S
C2053 C2061 1.433 . S
C2054 H2050 0.929 . S
C2054 C2056 1.378 . S
C2054 C2058 1.350 . S
C2055 C2058 1.463 . S
C2055 C2060 1.350 . S
C2055 N2063 1.427 . S
C2056 H2047 0.930 . S
C2056 C2054 1.378 . S
C2056 C2057 1.367 . S
C2057 C2056 1.367 . S
C2057 C2059 1.433 . S
C2058 C2054 1.350 . S
C2058 C2055 1.463 . S
C2058 N2062 1.427 . S
C2059 H2049 0.929 . S
C2059 C2057 1.433 . S
C2059 N2062 1.384 . S
C2060 H2051 0.929 . S
C2060 C2052 1.378 . S
C2060 C2055 1.350 . S
C2061 H2048 0.929 . S
C2061 C2053 1.433 . S
C2061 N2063 1.384 . S
N2062 C2058 1.427 . S
N2062 C2059 1.384 . S
N2063 C2055 1.427 . S
N2063 C2061 1.384 . S
H2064 C2070 0.930 . S
H2065 C2074 0.930 . S
H2066 C2079 0.929 1_565 S
H2067 C2077 0.929 . S
H2068 C2072 0.929 . S
H2069 C2078 0.929 . S
C2070 H2064 0.930 . S
C2070 C2071 1.367 1_545 S
C2070 C2078 1.378 . S
C2071 C2070 1.367 1_565 S
C2071 C2079 1.433 1_565 S
C2072 H2068 0.929 . S
C2072 C2074 1.378 . S
C2072 C2076 1.350 . S
C2073 C2076 1.463 . S
C2073 C2078 1.350 . S
C2073 N2081 1.427 . S
C2074 H2065 0.930 . S
C2074 C2072 1.378 . S
C2074 C2075 1.367 . S
C2075 C2074 1.367 . S
C2075 C2077 1.433 . S
C2076 C2072 1.350 . S
C2076 C2073 1.463 . S
C2076 N2080 1.427 . S
C2077 H2067 0.929 . S
C2077 C2075 1.433 . S
C2077 N2080 1.384 . S
C2078 H2069 0.929 . S
C2078 C2070 1.378 . S
C2078 C2073 1.350 . S
C2079 H2066 0.929 1_545 S
C2079 C2071 1.433 1_545 S
C2079 N2081 1.384 . S
N2080 C2076 1.427 . S
N2080 C2077 1.384 . S
N2081 C2073 1.427 . S
N2081 C2079 1.384 . S
H2082 C2088 0.930 . S
H2083 C2092 0.930 . S
H2084 C2097 0.929 . S
H2085 C2095 0.929 1_545 S
H2086 C2090 0.929 . S
H2087 C2096 0.929 . S
C2088 H2082 0.930 . S
C2088 C2089 1.367 . S
C2088 C2096 1.378 . S
C2089 C2088 1.367 . S
C2089 C2097 1.433 . S
C2090 H2086 0.929 . S
C2090 C2092 1.378 . S
C2090 C2094 1.350 . S
C2091 C2094 1.463 . S
C2091 C2096 1.350 . S
C2091 N2099 1.427 . S
C2092 H2083 0.930 . S
C2092 C2090 1.378 . S
C2092 C2093 1.367 1_565 S
C2093 C2092 1.367 1_545 S
C2093 C2095 1.433 1_545 S
C2094 C2090 1.350 . S
C2094 C2091 1.463 . S
C2094 N2098 1.427 . S
C2095 H2085 0.929 1_565 S
C2095 C2093 1.433 1_565 S
C2095 N2098 1.384 . S
C2096 H2087 0.929 . S
C2096 C2088 1.378 . S
C2096 C2091 1.350 . S
C2097 H2084 0.929 . S
C2097 C2089 1.433 . S
C2097 N2099 1.384 . S
N2098 C2094 1.427 . S
N2098 C2095 1.384 . S
N2099 C2091 1.427 . S
N2099 C2097 1.384 . S
H2100 C2106 0.930 1_545 S
H2101 C2110 0.930 . S
H2102 C2115 0.929 . S
H2103 C2113 0.929 . S
H2104 C2108 0.929 . S
H2105 C2114 0.929 . S
C2106 H2100 0.930 1_565 S
C2106 C2107 1.367 1_565 S
C2106 C2114 1.378 . S
C2107 C2106 1.367 1_545 S
C2107 C2115 1.433 1_545 S
C2108 H2104 0.929 . S
C2108 C2110 1.378 . S
C2108 C2112 1.350 . S
C2109 C2112 1.463 . S
C2109 C2114 1.350 . S
C2109 N2117 1.427 . S
C2110 H2101 0.930 . S
C2110 C2108 1.378 . S
C2110 C2111 1.367 . S
C2111 C2110 1.367 . S
C2111 C2113 1.433 . S
C2112 C2108 1.350 . S
C2112 C2109 1.463 . S
C2112 N2116 1.427 . S
C2113 H2103 0.929 . S
C2113 C2111 1.433 . S
C2113 N2116 1.384 . S
C2114 H2105 0.929 . S
C2114 C2106 1.378 . S
C2114 C2109 1.350 . S
C2115 H2102 0.929 . S
C2115 C2107 1.433 1_565 S
C2115 N2117 1.384 . S
N2116 C2112 1.427 . S
N2116 C2113 1.384 . S
N2117 C2109 1.427 . S
N2117 C2115 1.384 . S
H2118 C2124 0.930 . S
H2119 C2128 0.930 . S
H2120 C2133 0.929 1_565 S
H2121 C2131 0.929 . S
H2122 C2126 0.929 . S
H2123 C2132 0.929 . S
C2124 H2118 0.930 . S
C2124 C2125 1.367 1_545 S
C2124 C2132 1.378 . S
C2125 C2124 1.367 1_565 S
C2125 C2133 1.433 1_565 S
C2126 H2122 0.929 . S
C2126 C2128 1.378 . S
C2126 C2130 1.350 . S
C2127 C2130 1.463 . S
C2127 C2132 1.350 . S
C2127 N2135 1.427 . S
C2128 H2119 0.930 . S
C2128 C2126 1.378 . S
C2128 C2129 1.367 . S
C2129 C2128 1.367 . S
C2129 C2131 1.433 . S
C2130 C2126 1.350 . S
C2130 C2127 1.463 . S
C2130 N2134 1.427 . S
C2131 H2121 0.929 . S
C2131 C2129 1.433 . S
C2131 N2134 1.384 . S
C2132 H2123 0.929 . S
C2132 C2124 1.378 . S
C2132 C2127 1.350 . S
C2133 H2120 0.929 1_545 S
C2133 C2125 1.433 1_545 S
C2133 N2135 1.384 . S
N2134 C2130 1.427 . S
N2134 C2131 1.384 . S
N2135 C2127 1.427 . S
N2135 C2133 1.384 . S
H2136 C2142 0.930 . S
H2137 C2146 0.930 . S
H2138 C2151 0.929 . S
H2139 C2149 0.929 1_545 S
H2140 C2144 0.929 . S
H2141 C2150 0.929 . S
C2142 H2136 0.930 . S
C2142 C2143 1.367 . S
C2142 C2150 1.378 . S
C2143 C2142 1.367 . S
C2143 C2151 1.433 . S
C2144 H2140 0.929 . S
C2144 C2146 1.378 . S
C2144 C2148 1.350 . S
C2145 C2148 1.463 . S
C2145 C2150 1.350 . S
C2145 N2153 1.427 . S
C2146 H2137 0.930 . S
C2146 C2144 1.378 . S
C2146 C2147 1.367 1_565 S
C2147 C2146 1.367 1_545 S
C2147 C2149 1.433 1_545 S
C2148 C2144 1.350 . S
C2148 C2145 1.463 . S
C2148 N2152 1.427 . S
C2149 H2139 0.929 1_565 S
C2149 C2147 1.433 1_565 S
C2149 N2152 1.384 . S
C2150 H2141 0.929 . S
C2150 C2142 1.378 . S
C2150 C2145 1.350 . S
C2151 H2138 0.929 . S
C2151 C2143 1.433 . S
C2151 N2153 1.384 . S
N2152 C2148 1.427 . S
N2152 C2149 1.384 . S
N2153 C2145 1.427 . S
N2153 C2151 1.384 . S
H2154 C2160 0.930 . S
H2155 C2164 0.930 1_565 S
H2156 C2169 0.929 . S
H2157 C2167 0.929 . S
H2158 C2162 0.929 . S
H2159 C2168 0.929 . S
C2160 H2154 0.930 . S
C2160 C2161 1.367 . S
C2160 C2168 1.378 . S
C2161 C2160 1.367 . S
C2161 C2169 1.433 . S
C2162 H2158 0.929 . S
C2162 C2164 1.378 . S
C2162 C2166 1.350 . S
C2163 C2166 1.463 . S
C2163 C2168 1.350 . S
C2163 N2171 1.427 . S
C2164 H2155 0.930 1_545 S
C2164 C2162 1.378 . S
C2164 C2165 1.367 1_545 S
C2165 C2164 1.367 1_565 S
C2165 C2167 1.433 1_565 S
C2166 C2162 1.350 . S
C2166 C2163 1.463 . S
C2166 N2170 1.427 . S
C2167 H2157 0.929 . S
C2167 C2165 1.433 1_545 S
C2167 N2170 1.384 . S
C2168 H2159 0.929 . S
C2168 C2160 1.378 . S
C2168 C2163 1.350 . S
C2169 H2156 0.929 . S
C2169 C2161 1.433 . S
C2169 N2171 1.384 . S
N2170 C2166 1.427 . S
N2170 C2167 1.384 . S
N2171 C2163 1.427 . S
N2171 C2169 1.384 . S
H2172 C2178 0.930 1_565 S
H2173 C2182 0.930 . S
H2174 C2187 0.929 . S
H2175 C2185 0.929 . S
H2176 C2180 0.929 . S
H2177 C2186 0.929 . S
C2178 H2172 0.930 1_545 S
C2178 C2179 1.367 1_545 S
C2178 C2186 1.378 . S
C2179 C2178 1.367 1_565 S
C2179 C2187 1.433 1_565 S
C2180 H2176 0.929 . S
C2180 C2182 1.378 . S
C2180 C2184 1.350 . S
C2181 C2184 1.463 . S
C2181 C2186 1.350 . S
C2181 N2189 1.427 . S
C2182 H2173 0.930 . S
C2182 C2180 1.378 . S
C2182 C2183 1.367 . S
C2183 C2182 1.367 . S
C2183 C2185 1.433 . S
C2184 C2180 1.350 . S
C2184 C2181 1.463 . S
C2184 N2188 1.427 . S
C2185 H2175 0.929 . S
C2185 C2183 1.433 . S
C2185 N2188 1.384 . S
C2186 H2177 0.929 . S
C2186 C2178 1.378 . S
C2186 C2181 1.350 . S
C2187 H2174 0.929 . S
C2187 C2179 1.433 1_545 S
C2187 N2189 1.384 . S
N2188 C2184 1.427 . S
N2188 C2185 1.384 . S
N2189 C2181 1.427 . S
N2189 C2187 1.384 . S
H2190 C2196 0.930 . S
H2191 C2200 0.930 1_545 S
H2192 C2205 0.929 . S
H2193 C2203 0.929 . S
H2194 C2198 0.929 . S
H2195 C2204 0.929 . S
C2196 H2190 0.930 . S
C2196 C2197 1.367 . S
C2196 C2204 1.378 . S
C2197 C2196 1.367 . S
C2197 C2205 1.433 . S
C2198 H2194 0.929 . S
C2198 C2200 1.378 . S
C2198 C2202 1.350 . S
C2199 C2202 1.463 . S
C2199 C2204 1.350 . S
C2199 N2207 1.427 . S
C2200 H2191 0.930 1_565 S
C2200 C2198 1.378 . S
C2200 C2201 1.367 1_565 S
C2201 C2200 1.367 1_545 S
C2201 C2203 1.433 1_545 S
C2202 C2198 1.350 . S
C2202 C2199 1.463 . S
C2202 N2206 1.427 . S
C2203 H2193 0.929 . S
C2203 C2201 1.433 1_565 S
C2203 N2206 1.384 . S
C2204 H2195 0.929 . S
C2204 C2196 1.378 . S
C2204 C2199 1.350 . S
C2205 H2192 0.929 . S
C2205 C2197 1.433 . S
C2205 N2207 1.384 . S
N2206 C2202 1.427 . S
N2206 C2203 1.384 . S
N2207 C2199 1.427 . S
N2207 C2205 1.384 . S
C1351 C55 1.500 . S
C1355 C811 1.496 . S
C1369 C139 1.501 . S
C1373 C727 1.496 . S
C1387 C979 1.495 . S
C1391 C223 1.499 . S
C1405 C307 1.499 . S
C1409 C895 1.496 . S
C1423 C1159 1.495 . S
C1427 C403 1.501 . S
C1441 C1075 1.498 . S
C1445 C487 1.499 . S
C1459 C1327 1.495 . S
C1463 C571 1.501 . S
C1477 C655 1.501 . S
C1481 C1243 1.495 . S
C1495 C224 1.659 . S
C1499 C56 1.657 . S
C1513 C308 1.659 . S
C1517 C140 1.657 . S
C1531 C572 1.657 . S
C1535 C404 1.658 . S
C1549 C488 1.660 . S
C1553 C656 1.659 . S
C1567 C896 1.657 . S
C1571 C728 1.658 . S
C1585 C980 1.658 . S
C1589 C812 1.657 . S
C1603 C1076 1.658 . S
C1607 C1244 1.660 . S
C1621 C1160 1.660 . S
C1625 C1328 1.660 . S
C1639 C476 1.679 . S
C1643 C68 1.688 . S
C1657 C392 1.690 . S
C1661 C152 1.677 . S
C1675 C236 1.678 . S
C1679 C644 1.690 . S
C1693 C560 1.677 . S
C1697 C320 1.691 . S
C1711 C740 1.681 . S
C1715 C1148 1.686 . S
C1729 C1064 1.683 . S
C1733 C824 1.685 . S
C1747 C908 1.691 . S
C1751 C1316 1.677 . S
C1765 C1232 1.679 . S
C1769 C992 1.689 . S
C1783 C151 1.501 . S
C1787 C67 1.500 . S
C1801 C319 1.503 . S
C1805 C235 1.498 . S
C1819 C475 1.503 . S
C1823 C391 1.498 . S
C1837 C559 1.500 . S
C1841 C643 1.502 . S
C1855 C823 1.503 . S
C1859 C739 1.498 . S
C1873 C991 1.503 . S
C1877 C907 1.498 . S
C1891 C1063 1.501 . S
C1895 C1147 1.500 . S
C1909 C1231 1.502 . S
C1913 C1315 1.499 . S
C1927 C70 1.389 . S
C1931 C58 1.389 . S
C1945 C154 1.389 . S
C1949 C142 1.389 . S
C1963 C238 1.390 . S
C1967 C226 1.390 . S
C1981 C310 1.392 . S
C1985 C322 1.392 . S
C1999 C394 1.409 . S
C2003 C406 1.409 . S
C2017 C490 1.416 . S
C2021 C478 1.416 . S
C2035 C562 1.411 . S
C2039 C574 1.411 . S
C2053 C646 1.393 . S
C2057 C658 1.393 . S
C2071 C730 1.411 . S
C2075 C742 1.411 . S
C2089 C826 1.416 . S
C2093 C814 1.416 . S
C2107 C898 1.400 . S
C2111 C910 1.400 . S
C2125 C982 1.406 . S
C2129 C994 1.406 . S
C2143 C1066 1.416 . S
C2147 C1078 1.416 . S
C2161 C1150 1.387 . S
C2165 C1162 1.387 . S
C2179 C1246 1.392 . S
C2183 C1234 1.392 . S
C2197 C1318 1.391 . S
C2201 C1330 1.391 . S
