# Generated by pormake.
# Topology wnd, (6)-cn, num edge types: 1
# Building blocks:
#     Node 0, Type 0, BuildingBlock: CUKXOW_clean_sbu_0, # of connection points: 6
#     Node 1, Type 0, BuildingBlock: CUKXOW_clean_sbu_0, # of connection points: 6
#     Node 2, Type 0, BuildingBlock: CUKXOW_clean_sbu_0, # of connection points: 6
#     Node 3, Type 0, BuildingBlock: CUKXOW_clean_sbu_0, # of connection points: 6
#     Node 4, Type 0, BuildingBlock: CUKXOW_clean_sbu_0, # of connection points: 6
#     Node 5, Type 0, BuildingBlock: CUKXOW_clean_sbu_0, # of connection points: 6
#     Node 6, Type 0, BuildingBlock: CUKXOW_clean_sbu_0, # of connection points: 6
#     Node 7, Type 0, BuildingBlock: CUKXOW_clean_sbu_0, # of connection points: 6
#     Node 8, Type 0, BuildingBlock: CUKXOW_clean_sbu_0, # of connection points: 6
#     Node 9, Type 0, BuildingBlock: CUKXOW_clean_sbu_0, # of connection points: 6
#     Node 10, Type 0, BuildingBlock: CUKXOW_clean_sbu_0, # of connection points: 6
#     Node 11, Type 0, BuildingBlock: CUKXOW_clean_sbu_0, # of connection points: 6
#     Node 12, Type 0, BuildingBlock: CUKXOW_clean_sbu_0, # of connection points: 6
#     Node 13, Type 0, BuildingBlock: CUKXOW_clean_sbu_0, # of connection points: 6
#     Node 14, Type 0, BuildingBlock: CUKXOW_clean_sbu_0, # of connection points: 6
#     Node 15, Type 0, BuildingBlock: CUKXOW_clean_sbu_0, # of connection points: 6
#     Node 16, Type 0, BuildingBlock: CUKXOW_clean_sbu_0, # of connection points: 6
#     Node 17, Type 0, BuildingBlock: CUKXOW_clean_sbu_0, # of connection points: 6
#     Node 18, Type 0, BuildingBlock: CUKXOW_clean_sbu_0, # of connection points: 6
#     Node 19, Type 0, BuildingBlock: CUKXOW_clean_sbu_0, # of connection points: 6
#     Node 20, Type 0, BuildingBlock: CUKXOW_clean_sbu_0, # of connection points: 6
#     Node 21, Type 0, BuildingBlock: CUKXOW_clean_sbu_0, # of connection points: 6
#     Node 22, Type 0, BuildingBlock: CUKXOW_clean_sbu_0, # of connection points: 6
#     Node 23, Type 0, BuildingBlock: CUKXOW_clean_sbu_0, # of connection points: 6
#     Node 24, Type 0, BuildingBlock: CUKXOW_clean_sbu_0, # of connection points: 6
#     Node 25, Type 0, BuildingBlock: CUKXOW_clean_sbu_0, # of connection points: 6
#     Node 26, Type 0, BuildingBlock: CUKXOW_clean_sbu_0, # of connection points: 6
#     Node 27, Type 0, BuildingBlock: CUKXOW_clean_sbu_0, # of connection points: 6
#     Node 28, Type 0, BuildingBlock: CUKXOW_clean_sbu_0, # of connection points: 6
#     Node 29, Type 0, BuildingBlock: CUKXOW_clean_sbu_0, # of connection points: 6
#     Node 30, Type 0, BuildingBlock: CUKXOW_clean_sbu_0, # of connection points: 6
#     Node 31, Type 0, BuildingBlock: CUKXOW_clean_sbu_0, # of connection points: 6
#     Node 32, Type 0, BuildingBlock: CUKXOW_clean_sbu_0, # of connection points: 6
#     Node 33, Type 0, BuildingBlock: CUKXOW_clean_sbu_0, # of connection points: 6
#     Node 34, Type 0, BuildingBlock: CUKXOW_clean_sbu_0, # of connection points: 6
#     Node 35, Type 0, BuildingBlock: CUKXOW_clean_sbu_0, # of connection points: 6
#     Edge 36, Type (0, 0), BuildingBlock: KIFKEQ_clean_linker_1, # of connection points: 2
#     Edge 37, Type (0, 0), BuildingBlock: KIFKEQ_clean_linker_1, # of connection points: 2
#     Edge 38, Type (0, 0), BuildingBlock: KIFKEQ_clean_linker_1, # of connection points: 2
#     Edge 39, Type (0, 0), BuildingBlock: KIFKEQ_clean_linker_1, # of connection points: 2
#     Edge 40, Type (0, 0), BuildingBlock: KIFKEQ_clean_linker_1, # of connection points: 2
#     Edge 41, Type (0, 0), BuildingBlock: KIFKEQ_clean_linker_1, # of connection points: 2
#     Edge 42, Type (0, 0), BuildingBlock: KIFKEQ_clean_linker_1, # of connection points: 2
#     Edge 43, Type (0, 0), BuildingBlock: KIFKEQ_clean_linker_1, # of connection points: 2
#     Edge 44, Type (0, 0), BuildingBlock: KIFKEQ_clean_linker_1, # of connection points: 2
#     Edge 45, Type (0, 0), BuildingBlock: KIFKEQ_clean_linker_1, # of connection points: 2
#     Edge 46, Type (0, 0), BuildingBlock: KIFKEQ_clean_linker_1, # of connection points: 2
#     Edge 47, Type (0, 0), BuildingBlock: KIFKEQ_clean_linker_1, # of connection points: 2
#     Edge 48, Type (0, 0), BuildingBlock: KIFKEQ_clean_linker_1, # of connection points: 2
#     Edge 49, Type (0, 0), BuildingBlock: KIFKEQ_clean_linker_1, # of connection points: 2
#     Edge 50, Type (0, 0), BuildingBlock: KIFKEQ_clean_linker_1, # of connection points: 2
#     Edge 51, Type (0, 0), BuildingBlock: KIFKEQ_clean_linker_1, # of connection points: 2
#     Edge 52, Type (0, 0), BuildingBlock: KIFKEQ_clean_linker_1, # of connection points: 2
#     Edge 53, Type (0, 0), BuildingBlock: KIFKEQ_clean_linker_1, # of connection points: 2
#     Edge 54, Type (0, 0), BuildingBlock: KIFKEQ_clean_linker_1, # of connection points: 2
#     Edge 55, Type (0, 0), BuildingBlock: KIFKEQ_clean_linker_1, # of connection points: 2
#     Edge 56, Type (0, 0), BuildingBlock: KIFKEQ_clean_linker_1, # of connection points: 2
#     Edge 57, Type (0, 0), BuildingBlock: KIFKEQ_clean_linker_1, # of connection points: 2
#     Edge 58, Type (0, 0), BuildingBlock: KIFKEQ_clean_linker_1, # of connection points: 2
#     Edge 59, Type (0, 0), BuildingBlock: KIFKEQ_clean_linker_1, # of connection points: 2
#     Edge 60, Type (0, 0), BuildingBlock: KIFKEQ_clean_linker_1, # of connection points: 2
#     Edge 61, Type (0, 0), BuildingBlock: KIFKEQ_clean_linker_1, # of connection points: 2
#     Edge 62, Type (0, 0), BuildingBlock: KIFKEQ_clean_linker_1, # of connection points: 2
#     Edge 63, Type (0, 0), BuildingBlock: KIFKEQ_clean_linker_1, # of connection points: 2
#     Edge 64, Type (0, 0), BuildingBlock: KIFKEQ_clean_linker_1, # of connection points: 2
#     Edge 65, Type (0, 0), BuildingBlock: KIFKEQ_clean_linker_1, # of connection points: 2
#     Edge 66, Type (0, 0), BuildingBlock: KIFKEQ_clean_linker_1, # of connection points: 2
#     Edge 67, Type (0, 0), BuildingBlock: KIFKEQ_clean_linker_1, # of connection points: 2
#     Edge 68, Type (0, 0), BuildingBlock: KIFKEQ_clean_linker_1, # of connection points: 2
#     Edge 69, Type (0, 0), BuildingBlock: KIFKEQ_clean_linker_1, # of connection points: 2
#     Edge 70, Type (0, 0), BuildingBlock: KIFKEQ_clean_linker_1, # of connection points: 2
#     Edge 71, Type (0, 0), BuildingBlock: KIFKEQ_clean_linker_1, # of connection points: 2
#     Edge 72, Type (0, 0), BuildingBlock: KIFKEQ_clean_linker_1, # of connection points: 2
#     Edge 73, Type (0, 0), BuildingBlock: KIFKEQ_clean_linker_1, # of connection points: 2
#     Edge 74, Type (0, 0), BuildingBlock: KIFKEQ_clean_linker_1, # of connection points: 2
#     Edge 75, Type (0, 0), BuildingBlock: KIFKEQ_clean_linker_1, # of connection points: 2
#     Edge 76, Type (0, 0), BuildingBlock: KIFKEQ_clean_linker_1, # of connection points: 2
#     Edge 77, Type (0, 0), BuildingBlock: KIFKEQ_clean_linker_1, # of connection points: 2
#     Edge 78, Type (0, 0), BuildingBlock: KIFKEQ_clean_linker_1, # of connection points: 2
#     Edge 79, Type (0, 0), BuildingBlock: KIFKEQ_clean_linker_1, # of connection points: 2
#     Edge 80, Type (0, 0), BuildingBlock: KIFKEQ_clean_linker_1, # of connection points: 2
#     Edge 81, Type (0, 0), BuildingBlock: KIFKEQ_clean_linker_1, # of connection points: 2
#     Edge 82, Type (0, 0), BuildingBlock: KIFKEQ_clean_linker_1, # of connection points: 2
#     Edge 83, Type (0, 0), BuildingBlock: KIFKEQ_clean_linker_1, # of connection points: 2
#     Edge 84, Type (0, 0), BuildingBlock: KIFKEQ_clean_linker_1, # of connection points: 2
#     Edge 85, Type (0, 0), BuildingBlock: KIFKEQ_clean_linker_1, # of connection points: 2
#     Edge 86, Type (0, 0), BuildingBlock: KIFKEQ_clean_linker_1, # of connection points: 2
#     Edge 87, Type (0, 0), BuildingBlock: KIFKEQ_clean_linker_1, # of connection points: 2
#     Edge 88, Type (0, 0), BuildingBlock: KIFKEQ_clean_linker_1, # of connection points: 2
#     Edge 89, Type (0, 0), BuildingBlock: KIFKEQ_clean_linker_1, # of connection points: 2
#     Edge 90, Type (0, 0), BuildingBlock: KIFKEQ_clean_linker_1, # of connection points: 2
#     Edge 91, Type (0, 0), BuildingBlock: KIFKEQ_clean_linker_1, # of connection points: 2
#     Edge 92, Type (0, 0), BuildingBlock: KIFKEQ_clean_linker_1, # of connection points: 2
#     Edge 93, Type (0, 0), BuildingBlock: KIFKEQ_clean_linker_1, # of connection points: 2
#     Edge 94, Type (0, 0), BuildingBlock: KIFKEQ_clean_linker_1, # of connection points: 2
#     Edge 95, Type (0, 0), BuildingBlock: KIFKEQ_clean_linker_1, # of connection points: 2
#     Edge 96, Type (0, 0), BuildingBlock: KIFKEQ_clean_linker_1, # of connection points: 2
#     Edge 97, Type (0, 0), BuildingBlock: KIFKEQ_clean_linker_1, # of connection points: 2
#     Edge 98, Type (0, 0), BuildingBlock: KIFKEQ_clean_linker_1, # of connection points: 2
#     Edge 99, Type (0, 0), BuildingBlock: KIFKEQ_clean_linker_1, # of connection points: 2
#     Edge 100, Type (0, 0), BuildingBlock: KIFKEQ_clean_linker_1, # of connection points: 2
#     Edge 101, Type (0, 0), BuildingBlock: KIFKEQ_clean_linker_1, # of connection points: 2
#     Edge 102, Type (0, 0), BuildingBlock: KIFKEQ_clean_linker_1, # of connection points: 2
#     Edge 103, Type (0, 0), BuildingBlock: KIFKEQ_clean_linker_1, # of connection points: 2
#     Edge 104, Type (0, 0), BuildingBlock: KIFKEQ_clean_linker_1, # of connection points: 2
#     Edge 105, Type (0, 0), BuildingBlock: KIFKEQ_clean_linker_1, # of connection points: 2
#     Edge 106, Type (0, 0), BuildingBlock: KIFKEQ_clean_linker_1, # of connection points: 2
#     Edge 107, Type (0, 0), BuildingBlock: KIFKEQ_clean_linker_1, # of connection points: 2
#     Edge 108, Type (0, 0), BuildingBlock: KIFKEQ_clean_linker_1, # of connection points: 2
#     Edge 109, Type (0, 0), BuildingBlock: KIFKEQ_clean_linker_1, # of connection points: 2
#     Edge 110, Type (0, 0), BuildingBlock: KIFKEQ_clean_linker_1, # of connection points: 2
#     Edge 111, Type (0, 0), BuildingBlock: KIFKEQ_clean_linker_1, # of connection points: 2
#     Edge 112, Type (0, 0), BuildingBlock: KIFKEQ_clean_linker_1, # of connection points: 2
#     Edge 113, Type (0, 0), BuildingBlock: KIFKEQ_clean_linker_1, # of connection points: 2
#     Edge 114, Type (0, 0), BuildingBlock: KIFKEQ_clean_linker_1, # of connection points: 2
#     Edge 115, Type (0, 0), BuildingBlock: KIFKEQ_clean_linker_1, # of connection points: 2
#     Edge 116, Type (0, 0), BuildingBlock: KIFKEQ_clean_linker_1, # of connection points: 2
#     Edge 117, Type (0, 0), BuildingBlock: KIFKEQ_clean_linker_1, # of connection points: 2
#     Edge 118, Type (0, 0), BuildingBlock: KIFKEQ_clean_linker_1, # of connection points: 2
#     Edge 119, Type (0, 0), BuildingBlock: KIFKEQ_clean_linker_1, # of connection points: 2
#     Edge 120, Type (0, 0), BuildingBlock: KIFKEQ_clean_linker_1, # of connection points: 2
#     Edge 121, Type (0, 0), BuildingBlock: KIFKEQ_clean_linker_1, # of connection points: 2
#     Edge 122, Type (0, 0), BuildingBlock: KIFKEQ_clean_linker_1, # of connection points: 2
#     Edge 123, Type (0, 0), BuildingBlock: KIFKEQ_clean_linker_1, # of connection points: 2
#     Edge 124, Type (0, 0), BuildingBlock: KIFKEQ_clean_linker_1, # of connection points: 2
#     Edge 125, Type (0, 0), BuildingBlock: KIFKEQ_clean_linker_1, # of connection points: 2
#     Edge 126, Type (0, 0), BuildingBlock: KIFKEQ_clean_linker_1, # of connection points: 2
#     Edge 127, Type (0, 0), BuildingBlock: KIFKEQ_clean_linker_1, # of connection points: 2
#     Edge 128, Type (0, 0), BuildingBlock: KIFKEQ_clean_linker_1, # of connection points: 2
#     Edge 129, Type (0, 0), BuildingBlock: KIFKEQ_clean_linker_1, # of connection points: 2
#     Edge 130, Type (0, 0), BuildingBlock: KIFKEQ_clean_linker_1, # of connection points: 2
#     Edge 131, Type (0, 0), BuildingBlock: KIFKEQ_clean_linker_1, # of connection points: 2
#     Edge 132, Type (0, 0), BuildingBlock: KIFKEQ_clean_linker_1, # of connection points: 2
#     Edge 133, Type (0, 0), BuildingBlock: KIFKEQ_clean_linker_1, # of connection points: 2
#     Edge 134, Type (0, 0), BuildingBlock: KIFKEQ_clean_linker_1, # of connection points: 2
#     Edge 135, Type (0, 0), BuildingBlock: KIFKEQ_clean_linker_1, # of connection points: 2
#     Edge 136, Type (0, 0), BuildingBlock: KIFKEQ_clean_linker_1, # of connection points: 2
#     Edge 137, Type (0, 0), BuildingBlock: KIFKEQ_clean_linker_1, # of connection points: 2
#     Edge 138, Type (0, 0), BuildingBlock: KIFKEQ_clean_linker_1, # of connection points: 2
#     Edge 139, Type (0, 0), BuildingBlock: KIFKEQ_clean_linker_1, # of connection points: 2
#     Edge 140, Type (0, 0), BuildingBlock: KIFKEQ_clean_linker_1, # of connection points: 2
#     Edge 141, Type (0, 0), BuildingBlock: KIFKEQ_clean_linker_1, # of connection points: 2
#     Edge 142, Type (0, 0), BuildingBlock: KIFKEQ_clean_linker_1, # of connection points: 2
#     Edge 143, Type (0, 0), BuildingBlock: KIFKEQ_clean_linker_1, # of connection points: 2
# Relax obj value: 0.049
# Max RMSD: 0.141
# Mean RMSD: 0.141
data_MOF--net-wnd--node1-CUKXOW_clean_sbu_0--edge1-KIFKEQ_clean_linker_1
_symmetry_space_group_name_H-M    P1
_symmetry_Int_Tables_number       1
_symmetry_cell_setting            triclinic
loop_
_symmetry_equiv_pos_as_xyz
'x, y, z'
_cell_length_a     32.450296
_cell_length_b     32.478534
_cell_length_c     172.73837
_cell_angle_alpha  90.084833
_cell_angle_beta   89.90689
_cell_angle_gamma 120.03936
loop_
_atom_site_label
_atom_site_type_symbol
_atom_site_fract_x
_atom_site_fract_y
_atom_site_fract_z
_atom_type_partial_charge
Tb0 Tb 0.58144 0.07971 0.05449 0.0
C1 C 0.53697 0.0421 0.03767 0.0
Tb2 Tb 0.47218 1.00211 0.05252 0.0
O3 O 0.59046 0.02732 0.06114 0.0
O4 O 0.5392 1.00536 0.05251 0.0
O5 O 0.57194 0.07616 0.04187 0.0
C6 C 0.39581 0.91542 0.05271 0.0
O7 O 0.4978 1.00632 0.04076 0.0
C8 C 0.48788 0.08981 0.05151 0.0
C9 C 0.51067 0.05766 0.06854 0.0
O10 O 0.40458 0.94801 0.04756 0.0
O11 O 0.42989 0.93181 0.0578 0.0
O12 O 0.44544 0.05263 0.05082 0.0
O13 O 0.51603 0.07461 0.05254 0.0
O14 O 0.47758 0.01859 0.06496 0.0
O15 O 0.55257 0.08788 0.06539 0.0
C16 C 0.66988 0.15369 0.05375 0.0
O17 O 0.63244 0.1558 0.05579 0.0
O18 O 0.65748 0.10996 0.05212 0.0
C19 C 0.55555 0.99076 0.05775 0.0
Tb20 Tb 1.00398 0.52464 0.05376 0.0
C21 C 0.05044 0.53244 0.03743 0.0
Tb22 Tb 0.08928 0.50808 0.05267 0.0
O23 O 0.04978 0.59973 0.05126 0.0
O24 O 0.07734 0.56243 0.05704 0.0
O25 O 1.01133 0.52395 0.04124 0.0
C26 C 0.17665 0.51886 0.05176 0.0
O27 O 0.08746 0.53331 0.04092 0.0
C28 C 1.0052 0.43114 0.05184 0.0
C29 C 0.03096 0.48142 0.06811 0.0
O30 O 0.13788 0.48295 0.04911 0.0
O31 O 0.16628 0.54896 0.05486 0.0
O32 O 0.04294 0.43105 0.05434 0.0
O33 O 1.0171 0.47186 0.04931 0.0
O34 O 0.07336 0.49522 0.06497 0.0
O35 O 0.99725 0.48591 0.0645 0.0
C36 C 0.92296 0.52674 0.05528 0.0
O37 O 0.95956 0.54777 0.05983 0.0
O38 O 0.93161 0.50363 0.04999 0.0
C39 C 0.08795 0.60168 0.05392 0.0
Tb40 Tb 0.56485 0.51273 0.05317 0.0
C41 C 0.56083 0.55743 0.03733 0.0
Tb42 Tb 0.58427 0.61574 0.05308 0.0
O43 O 0.48972 0.48529 0.05066 0.0
O44 O 0.52801 0.5486 0.05676 0.0
O45 O 0.57045 0.52682 0.04083 0.0
C46 C 0.57085 0.69038 0.05365 0.0
O47 O 0.55794 0.59143 0.04121 0.0
C48 C 0.66049 0.60716 0.05188 0.0
C49 C 0.61149 0.57888 0.0679 0.0
O50 O 0.59962 0.68593 0.04892 0.0
O51 O 0.5497 0.65286 0.05798 0.0
O52 O 0.66181 0.64544 0.0545 0.0
O53 O 0.61931 0.57956 0.04939 0.0
O54 O 0.59874 0.60918 0.0652 0.0
O55 O 0.60539 0.54126 0.06388 0.0
C56 C 0.56115 0.42882 0.05365 0.0
O57 O 0.54905 0.44719 0.05927 0.0
O58 O 0.57595 0.45796 0.04785 0.0
C59 C 0.48889 0.52178 0.05346 0.0
Tb60 Tb 0.08602 0.56944 0.46191 0.0
C61 C 0.04572 0.5295 0.47881 0.0
Tb62 Tb 1.00806 0.46498 0.46404 0.0
O63 O 0.03574 0.58641 0.45647 0.0
O64 O 1.01196 0.53219 0.46452 0.0
O65 O 0.08103 0.56268 0.47457 0.0
C66 C 0.9229 0.38592 0.46307 0.0
O67 O 1.00901 0.49117 0.4757 0.0
C68 C 0.09556 0.48446 0.4668 0.0
C69 C 0.06189 0.49813 0.44778 0.0
O70 O 0.9605 0.38898 0.4663 0.0
O71 O 0.93338 0.42726 0.46036 0.0
O72 O 0.0585 0.44775 0.46979 0.0
O73 O 0.0814 0.50301 0.46193 0.0
O74 O 0.02232 0.46684 0.45146 0.0
O75 O 0.09436 0.53806 0.45122 0.0
C76 C 0.16455 0.65538 0.4621 0.0
O77 O 0.13223 0.6394 0.45676 0.0
O78 O 0.15287 0.62284 0.46735 0.0
C79 C 0.99844 0.55165 0.45965 0.0
Tb80 Tb 0.51676 0.5553 0.46425 0.0
C81 C 0.56697 0.56001 0.48011 0.0
Tb82 Tb 0.61976 0.5765 0.46383 0.0
O83 O 0.49193 0.48123 0.46704 0.0
O84 O 0.55293 0.51894 0.46034 0.0
O85 O 0.53234 0.56305 0.47656 0.0
C86 C 0.69606 0.56581 0.46336 0.0
O87 O 0.60316 0.56105 0.47626 0.0
C88 C 0.61107 0.65238 0.46511 0.0
C89 C 0.57733 0.59534 0.44908 0.0
O90 O 0.65788 0.53958 0.46737 0.0
O91 O 0.69148 0.59818 0.45974 0.0
O92 O 0.64987 0.65415 0.4627 0.0
O93 O 0.58376 0.61131 0.46763 0.0
O94 O 0.60372 0.57735 0.45158 0.0
O95 O 0.54346 0.5949 0.45346 0.0
C96 C 0.43176 0.54933 0.46428 0.0
O97 O 0.44909 0.5366 0.45858 0.0
O98 O 0.46261 0.56624 0.46983 0.0
C99 C 0.52764 0.48041 0.46389 0.0
Tb100 Tb 0.53069 0.99658 0.46293 0.0
C101 C 0.53726 0.04528 0.47895 0.0
Tb102 Tb 0.51105 0.07959 0.46327 0.0
O103 O 0.60531 0.04448 0.46548 0.0
O104 O 0.56691 0.06907 0.45921 0.0
O105 O 0.5317 1.00658 0.47538 0.0
C106 C 0.52145 0.16677 0.46368 0.0
O107 O 0.53445 0.07984 0.47526 0.0
C108 C 0.43547 0.99479 0.46453 0.0
C109 C 0.48531 0.01804 0.44823 0.0
O110 O 0.48414 0.12784 0.46595 0.0
O111 O 0.55322 0.1567 0.46122 0.0
O112 O 0.43424 0.0312 0.46167 0.0
O113 O 0.47653 1.00842 0.46712 0.0
O114 O 0.49875 0.06117 0.451 0.0
O115 O 0.4907 0.98605 0.45221 0.0
C116 C 0.53442 0.91656 0.46173 0.0
O117 O 0.55524 0.95275 0.4571 0.0
O118 O 0.5109 0.92515 0.46695 0.0
C119 C 0.60615 0.08142 0.46251 0.0
Tb120 Tb 0.62179 0.08693 0.96398 0.0
C121 C 0.5903 0.02666 0.94871 0.0
Tb122 Tb 0.51901 1.00329 0.96292 0.0
O123 O 0.65199 0.03966 0.96272 0.0
O124 O 0.58442 0.01498 0.96735 0.0
O125 O 0.62008 0.06868 0.95182 0.0
C126 C 0.43539 0.92282 0.9617 0.0
O127 O 0.55069 0.99449 0.95225 0.0
C128 C 0.52839 0.08839 0.96288 0.0
C129 C 0.55794 0.05049 0.97915 0.0
O130 O 0.46637 0.93284 0.96715 0.0
O131 O 0.4518 0.95789 0.95681 0.0
O132 O 0.49126 0.05066 0.96545 0.0
O133 O 0.556 0.07656 0.95972 0.0
O134 O 0.52776 1.01088 0.97542 0.0
O135 O 0.59355 0.08745 0.97555 0.0
C136 C 0.69714 0.17461 0.96455 0.0
O137 O 0.68967 0.13982 0.96913 0.0
O138 O 0.66225 0.15999 0.95967 0.0
C139 C 0.61303 1.00222 0.96503 0.0
Tb140 Tb 1.01073 0.5787 0.96386 0.0
C141 C 0.06897 0.60498 0.94835 0.0
Tb142 Tb 0.09425 0.55932 0.96263 0.0
O143 O 0.05815 0.65592 0.96254 0.0
O144 O 0.08279 0.61302 0.96716 0.0
O145 O 0.02803 0.59479 0.95168 0.0
C146 C 0.17316 0.55408 0.96061 0.0
O147 O 0.10076 0.59642 0.95171 0.0
C148 C 1.00913 0.4838 0.96273 0.0
C149 C 0.04791 0.55055 0.97892 0.0
O150 O 0.1319 0.52556 0.9576 0.0
O151 O 0.17029 0.58616 0.9647 0.0
O152 O 0.04694 0.48487 0.96538 0.0
O153 O 0.02063 0.52308 0.95952 0.0
O154 O 0.08725 0.55905 0.97517 0.0
O155 O 1.01128 0.55033 0.97539 0.0
C156 C 0.92328 0.5675 0.96448 0.0
O157 O 0.95758 0.5926 0.96931 0.0
O158 O 0.93831 0.54888 0.95937 0.0
C159 C 0.09554 0.65425 0.96479 0.0
Tb160 Tb 0.51839 0.47602 0.96343 0.0
C161 C 0.4945 0.50912 0.94795 0.0
Tb162 Tb 0.53752 0.57875 0.96247 0.0
O163 O 0.44205 0.4477 0.96137 0.0
O164 O 0.48343 0.51322 0.96679 0.0
O165 O 0.50763 0.48012 0.9511 0.0
C166 C 0.53905 0.66151 0.96117 0.0
O167 O 0.49968 0.54763 0.95158 0.0
C168 C 0.61353 0.57001 0.96245 0.0
C169 C 0.54329 0.53897 0.97881 0.0
O170 O 0.56178 0.64731 0.95672 0.0
O171 O 0.51465 0.62863 0.96623 0.0
O172 O 0.61244 0.60687 0.96504 0.0
O173 O 0.57421 0.54208 0.95925 0.0
O174 O 0.53797 0.57153 0.975 0.0
O175 O 0.5412 0.50131 0.97533 0.0
C176 C 0.52726 0.39842 0.9644 0.0
O177 O 0.49039 0.40118 0.96658 0.0
O178 O 0.55929 0.4395 0.96176 0.0
C179 C 0.44289 0.48551 0.96407 0.0
Tb180 Tb 0.09632 0.62159 0.55227 0.0
C181 C 0.03527 0.59171 0.56752 0.0
Tb182 Tb 1.01169 0.51894 0.55351 0.0
O183 O 0.04937 0.65222 0.55316 0.0
O184 O 0.02463 0.58408 0.54877 0.0
O185 O 0.07686 0.6217 0.56431 0.0
C186 C 0.93152 0.4354 0.55533 0.0
O187 O 1.00383 0.55094 0.5642 0.0
C188 C 0.09664 0.52781 0.55388 0.0
C189 C 0.06022 0.5555 0.53726 0.0
O190 O 0.97212 0.44771 0.55856 0.0
O191 O 0.93578 0.47043 0.55113 0.0
O192 O 0.05899 0.49101 0.55119 0.0
O193 O 0.08492 0.55607 0.55686 0.0
O194 O 0.02057 0.52492 0.54098 0.0
O195 O 0.0966 0.5923 0.54079 0.0
C196 C 0.18475 0.69647 0.55235 0.0
O197 O 0.15211 0.68921 0.54729 0.0
O198 O 0.16754 0.66163 0.55725 0.0
C199 C 1.01197 0.61312 0.5509 0.0
Tb200 Tb 0.48535 0.51864 0.5537 0.0
C201 C 0.51643 0.48602 0.56858 0.0
Tb202 Tb 0.58822 0.53657 0.55453 0.0
O203 O 0.45458 0.44109 0.55449 0.0
O204 O 0.52236 0.48438 0.54993 0.0
O205 O 0.48713 0.49979 0.56576 0.0
C206 C 0.67137 0.53856 0.55546 0.0
O207 O 0.55563 0.49355 0.56489 0.0
C208 C 0.5795 0.61254 0.55516 0.0
C209 C 0.5505 0.54908 0.53854 0.0
O210 O 0.65574 0.55749 0.56045 0.0
O211 O 0.63977 0.51781 0.55007 0.0
O212 O 0.61662 0.61225 0.55249 0.0
O213 O 0.55151 0.57253 0.55808 0.0
O214 O 0.58096 0.53947 0.54209 0.0
O215 O 0.51409 0.54869 0.5422 0.0
C216 C 0.40974 0.53088 0.55316 0.0
O217 O 0.44439 0.5508 0.5581 0.0
O218 O 0.41772 0.50413 0.54851 0.0
C219 C 0.4933 0.44266 0.55204 0.0
Tb220 Tb 0.59045 1.00925 0.55247 0.0
C221 C 0.61012 0.06781 0.56808 0.0
Tb222 Tb 0.56378 0.09152 0.55379 0.0
O223 O 0.66605 0.06124 0.55405 0.0
O224 O 0.6195 0.08175 0.54941 0.0
O225 O 0.60066 0.02661 0.56484 0.0
C226 C 0.55695 0.16975 0.5531 0.0
O227 O 0.60123 0.09931 0.56465 0.0
C228 C 0.49205 1.0051 0.5572 0.0
C229 C 0.56061 0.04446 0.53739 0.0
O230 O 0.5912 0.16698 0.55653 0.0
O231 O 0.52749 0.12896 0.55003 0.0
O232 O 0.48909 0.04333 0.55774 0.0
O233 O 0.53388 0.01891 0.55524 0.0
O234 O 0.56476 0.08189 0.54127 0.0
O235 O 0.56481 1.00967 0.54073 0.0
C236 C 0.5809 0.92284 0.5521 0.0
O237 O 0.61445 0.96036 0.54865 0.0
O238 O 0.55274 0.93404 0.55572 0.0
C239 C 0.66125 0.09701 0.55185 0.0
Tb240 Tb 0.24357 0.40891 0.38806 0.0
C241 C 0.20249 0.37178 0.37112 0.0
Tb242 Tb 0.1384 0.33269 0.38582 0.0
O243 O 0.25479 0.35707 0.3943 0.0
O244 O 0.20484 0.33518 0.38541 0.0
O245 O 0.23503 0.40708 0.37543 0.0
C246 C 0.05883 0.24782 0.38669 0.0
O247 O 0.16458 0.33444 0.37416 0.0
C248 C 0.15926 0.42085 0.3835 0.0
C249 C 0.1746 0.38244 0.40248 0.0
O250 O 0.06182 0.28617 0.3838 0.0
O251 O 0.10053 0.2574 0.38911 0.0
O252 O 0.12269 0.38469 0.38029 0.0
O253 O 0.17737 0.40542 0.38824 0.0
O254 O 0.14097 0.34611 0.39842 0.0
O255 O 0.21671 0.41324 0.39943 0.0
C256 C 0.33168 0.48435 0.38775 0.0
O257 O 0.32094 0.44019 0.38756 0.0
O258 O 0.29269 0.48624 0.38811 0.0
C259 C 0.22187 0.32073 0.39058 0.0
Tb260 Tb 0.6693 0.85437 0.38719 0.0
C261 C 0.71672 0.85911 0.37115 0.0
Tb262 Tb 0.75326 0.83629 0.38688 0.0
O263 O 0.71634 0.92879 0.38436 0.0
O264 O 0.74219 0.8921 0.39077 0.0
O265 O 0.67737 0.85151 0.37477 0.0
C266 C 0.84059 0.84692 0.38636 0.0
O267 O 0.75305 0.85988 0.37489 0.0
C268 C 0.66884 0.7598 0.38591 0.0
C269 C 0.69175 0.81035 0.40196 0.0
O270 O 0.80203 0.81083 0.38369 0.0
O271 O 0.83008 0.87734 0.3893 0.0
O272 O 0.70584 0.75955 0.38874 0.0
O273 O 0.68174 0.80034 0.38319 0.0
O274 O 0.73493 0.82391 0.39917 0.0
O275 O 0.65953 0.81542 0.39799 0.0
C276 C 0.5887 0.85725 0.38834 0.0
O277 O 0.62451 0.87768 0.39306 0.0
O278 O 0.59798 0.83456 0.38307 0.0
C279 C 0.75381 0.93073 0.38734 0.0
Tb280 Tb 0.22927 0.84203 0.38594 0.0
C281 C 0.22898 0.88796 0.36992 0.0
Tb282 Tb 0.24974 0.94504 0.38584 0.0
O283 O 0.15488 0.8164 0.38319 0.0
O284 O 0.19318 0.87847 0.38964 0.0
O285 O 0.23399 0.85473 0.37355 0.0
C286 C 0.23865 0.02117 0.38574 0.0
O287 O 0.22952 0.92419 0.37366 0.0
C288 C 0.32518 0.9354 0.38492 0.0
C289 C 0.27226 0.90693 0.40088 0.0
O290 O 0.20527 0.97787 0.3871 0.0
O291 O 0.27816 0.02155 0.38436 0.0
O292 O 0.32637 0.97313 0.38775 0.0
O293 O 0.2845 0.90847 0.38217 0.0
O294 O 0.25811 0.93609 0.39814 0.0
O295 O 0.26832 0.87033 0.3968 0.0
C296 C 0.22452 0.75757 0.38634 0.0
O297 O 0.20731 0.77354 0.39158 0.0
O298 O 0.24519 0.78951 0.38102 0.0
C299 C 0.15422 0.85245 0.38623 0.0
Tb300 Tb 0.75905 0.90563 0.7965 0.0
C301 C 0.70982 0.86475 0.81247 0.0
Tb302 Tb 0.67472 0.8035 0.79688 0.0
O303 O 0.71218 0.93385 0.79909 0.0
O304 O 0.68617 0.87029 0.79298 0.0
O305 O 0.74968 0.8962 0.80894 0.0
C306 C 0.58672 0.72833 0.79722 0.0
O307 O 0.67377 0.82914 0.80868 0.0
C308 C 0.75893 0.8112 0.79802 0.0
C309 C 0.73704 0.83773 0.78186 0.0
O310 O 0.62129 0.73509 0.80179 0.0
O311 O 0.60172 0.7638 0.79245 0.0
O312 O 0.72186 0.77351 0.79528 0.0
O313 O 0.74603 0.83915 0.80059 0.0
O314 O 0.69411 0.8079 0.78469 0.0
O315 O 0.76903 0.87569 0.78575 0.0
C316 C 0.84039 0.98819 0.79534 0.0
O317 O 0.80471 0.97318 0.7906 0.0
O318 O 0.83054 0.95639 0.80066 0.0
C319 C 0.67453 0.89769 0.79627 0.0
Tb320 Tb 0.18367 0.88819 0.79631 0.0
C321 C 0.22837 0.89011 0.81243 0.0
Tb322 Tb 0.2869 0.90902 0.7966 0.0
O323 O 0.1598 0.81589 0.80007 0.0
O324 O 0.22032 0.85146 0.79307 0.0
O325 O 0.19547 0.8954 0.80872 0.0
C326 C 0.3647 0.90036 0.79733 0.0
O327 O 0.26423 0.88934 0.80876 0.0
C328 C 0.27621 0.98384 0.79679 0.0
C329 C 0.24836 0.92638 0.78116 0.0
O330 O 0.36233 0.93763 0.79937 0.0
O331 O 0.32307 0.86774 0.79495 0.0
O332 O 0.3135 0.98438 0.79388 0.0
O333 O 0.25007 0.94428 0.79994 0.0
O334 O 0.27922 0.91542 0.78421 0.0
O335 O 0.21055 0.92117 0.78501 0.0
C336 C 0.09839 0.881 0.7947 0.0
O337 O 0.11045 0.85115 0.79206 0.0
O338 O 0.13468 0.91559 0.7982 0.0
C339 C 0.19494 0.81393 0.79689 0.0
Tb340 Tb 0.20126 0.33204 0.79613 0.0
C341 C 0.20682 0.37808 0.81238 0.0
Tb342 Tb 0.18054 0.4145 0.79692 0.0
O343 O 0.27533 0.38025 0.79886 0.0
O344 O 0.23675 0.40506 0.79265 0.0
O345 O 0.20158 0.33984 0.80866 0.0
C346 C 0.1896 0.50099 0.79783 0.0
O347 O 0.20424 0.41313 0.80881 0.0
C348 C 0.10594 0.32911 0.79794 0.0
C349 C 0.15647 0.35626 0.78158 0.0
O350 O 0.15258 0.4615 0.79999 0.0
O351 O 0.22158 0.49178 0.79522 0.0
O352 O 0.10395 0.36539 0.79521 0.0
O353 O 0.14706 0.34308 0.80052 0.0
O354 O 0.16866 0.39849 0.7846 0.0
O355 O 0.16317 0.32422 0.78529 0.0
C356 C 0.20716 0.25347 0.79415 0.0
O357 O 0.23522 0.29462 0.79108 0.0
O358 O 0.17523 0.25627 0.79829 0.0
C359 C 0.27612 0.41727 0.79592 0.0
Tb360 Tb 0.28984 0.41863 0.29718 0.0
C361 C 0.25537 0.35776 0.2821 0.0
Tb362 Tb 0.18677 0.33582 0.29661 0.0
O363 O 0.31791 0.37001 0.29565 0.0
O364 O 0.25228 0.34729 0.30096 0.0
O365 O 0.28469 0.40089 0.28491 0.0
C366 C 0.10348 0.25498 0.29549 0.0
O367 O 0.21758 0.32554 0.28601 0.0
C368 C 0.19632 0.42073 0.29599 0.0
C369 C 0.22788 0.38486 0.3127 0.0
O370 O 0.11965 0.28975 0.29056 0.0
O371 O 0.13449 0.2655 0.30096 0.0
O372 O 0.15928 0.38356 0.29873 0.0
O373 O 0.22385 0.4083 0.29294 0.0
O374 O 0.19481 0.34631 0.30908 0.0
O375 O 0.26573 0.41927 0.30907 0.0
C376 C 0.36748 0.50506 0.29781 0.0
O377 O 0.36501 0.46579 0.30006 0.0
O378 O 0.32616 0.4957 0.29525 0.0
C379 C 0.27986 0.33363 0.29844 0.0
Tb380 Tb 0.6791 0.91047 0.29756 0.0
C381 C 0.7364 0.93535 0.28197 0.0
Tb382 Tb 0.76238 0.89044 0.29631 0.0
O383 O 0.72687 0.98737 0.29603 0.0
O384 O 0.7513 0.94452 0.30079 0.0
O385 O 0.69574 0.92567 0.28535 0.0
C386 C 0.84078 0.88411 0.29432 0.0
O387 O 0.76822 0.92667 0.2853 0.0
C388 C 0.67672 0.81593 0.29654 0.0
C389 C 0.71737 0.88347 0.31268 0.0
O390 O 0.79895 0.85481 0.29157 0.0
O391 O 0.83876 0.91761 0.29811 0.0
O392 O 0.714 0.81646 0.29931 0.0
O393 O 0.68894 0.85498 0.29323 0.0
O394 O 0.75624 0.89115 0.30886 0.0
O395 O 0.68081 0.88379 0.30921 0.0
C396 C 0.59137 0.89857 0.29823 0.0
O397 O 0.6049 0.87574 0.29368 0.0
O398 O 0.62724 0.92801 0.30246 0.0
C399 C 0.76415 0.98561 0.29833 0.0
Tb400 Tb 0.18862 0.8095 0.29616 0.0
C401 C 0.15847 0.84185 0.28118 0.0
Tb402 Tb 0.20599 0.91165 0.29551 0.0
O403 O 0.11115 0.7788 0.29496 0.0
O404 O 0.1532 0.84547 0.2999 0.0
O405 O 0.17223 0.81265 0.28401 0.0
C406 C 0.20554 0.99343 0.29452 0.0
O407 O 0.16488 0.88029 0.28496 0.0
C408 C 0.28333 0.90486 0.29505 0.0
C409 C 0.21788 0.87318 0.31145 0.0
O410 O 0.22604 0.97891 0.28965 0.0
O411 O 0.1846 0.96149 0.29987 0.0
O412 O 0.28185 0.9416 0.29759 0.0
O413 O 0.24361 0.87619 0.29204 0.0
O414 O 0.20822 0.90372 0.30794 0.0
O415 O 0.21824 0.83743 0.3077 0.0
C416 C 0.19934 0.73299 0.29664 0.0
O417 O 0.17623 0.74337 0.30169 0.0
O418 O 0.21617 0.76554 0.29134 0.0
C419 C 0.11196 0.81681 0.29755 0.0
Tb420 Tb 0.75584 0.94918 0.88596 0.0
C421 C 0.69845 0.919 0.90162 0.0
Tb422 Tb 0.67206 0.84653 0.88752 0.0
O423 O 0.70887 0.97956 0.88726 0.0
O424 O 0.68352 0.91135 0.88287 0.0
O425 O 0.73902 0.94953 0.89816 0.0
C426 C 0.59325 0.76232 0.88964 0.0
O427 O 0.66656 0.87809 0.8984 0.0
C428 C 0.75719 0.85597 0.88721 0.0
C429 C 0.71594 0.88254 0.87104 0.0
O430 O 0.63487 0.77495 0.89248 0.0
O431 O 0.59572 0.79745 0.88568 0.0
O432 O 0.71912 0.81918 0.88463 0.0
O433 O 0.74605 0.88404 0.89042 0.0
O434 O 0.67687 0.85296 0.87497 0.0
O435 O 0.75375 0.91856 0.87445 0.0
C436 C 0.84338 0.02533 0.88518 0.0
O437 O 0.80889 0.01576 0.88037 0.0
O438 O 0.82851 0.99203 0.89034 0.0
C439 C 0.67116 0.94026 0.88517 0.0
Tb440 Tb 0.14536 0.84733 0.88598 0.0
C441 C 0.17715 0.81924 0.90124 0.0
Tb442 Tb 0.24856 0.86737 0.88707 0.0
O443 O 0.11581 0.77005 0.8872 0.0
O444 O 0.18336 0.81338 0.88257 0.0
O445 O 0.14714 0.83109 0.89812 0.0
C446 C 0.33203 0.87049 0.88833 0.0
O447 O 0.2169 0.82694 0.89772 0.0
C448 C 0.23839 0.94252 0.88722 0.0
C449 C 0.21034 0.8767 0.87088 0.0
O450 O 0.31601 0.89004 0.89312 0.0
O451 O 0.30075 0.84866 0.88294 0.0
O452 O 0.27591 0.94252 0.88468 0.0
O453 O 0.21087 0.90285 0.8903 0.0
O454 O 0.24141 0.8685 0.87457 0.0
O455 O 0.17358 0.87602 0.87444 0.0
C456 C 0.06954 0.85895 0.88538 0.0
O457 O 0.07708 0.83133 0.88087 0.0
O458 O 0.10465 0.87995 0.89021 0.0
C459 C 0.15491 0.77192 0.88488 0.0
Tb460 Tb 0.24745 0.33913 0.88627 0.0
C461 C 0.27222 0.39693 0.90173 0.0
Tb462 Tb 0.2292 0.42323 0.88722 0.0
O463 O 0.32398 0.38669 0.88831 0.0
O464 O 0.28305 0.41129 0.88292 0.0
O465 O 0.259 0.35468 0.8986 0.0
C466 C 0.22804 0.5047 0.88849 0.0
O467 O 0.26705 0.43017 0.89809 0.0
C468 C 0.15271 0.33865 0.88721 0.0
C469 C 0.22314 0.37712 0.87092 0.0
O470 O 0.20563 0.46808 0.893 0.0
O471 O 0.25186 0.49575 0.88338 0.0
O472 O 0.15421 0.37666 0.88458 0.0
O473 O 0.19191 0.3499 0.89043 0.0
O474 O 0.23045 0.41586 0.87471 0.0
O475 O 0.22312 0.34065 0.87444 0.0
C476 C 0.23815 0.25253 0.88535 0.0
O477 O 0.27404 0.29164 0.88278 0.0
O478 O 0.20738 0.26217 0.88838 0.0
C479 C 0.32354 0.42387 0.88564 0.0
Tb480 Tb 0.90983 0.7526 0.71956 0.0
C481 C 0.86447 0.70329 0.70349 0.0
Tb482 Tb 0.8014 0.66881 0.71849 0.0
O483 O 0.94127 0.70668 0.72133 0.0
O484 O 0.86996 0.67832 0.71977 0.0
O485 O 0.89555 0.7431 0.70712 0.0
C486 C 0.72538 0.58261 0.72047 0.0
O487 O 0.82977 0.66597 0.70717 0.0
C488 C 0.81803 0.75528 0.71518 0.0
C489 C 0.83961 0.72935 0.73417 0.0
O490 O 0.73108 0.61163 0.71486 0.0
O491 O 0.76229 0.60229 0.72498 0.0
O492 O 0.7783 0.71687 0.71339 0.0
O493 O 0.84088 0.74276 0.71944 0.0
O494 O 0.80536 0.69049 0.73068 0.0
O495 O 0.88086 0.75955 0.73072 0.0
C496 C 0.99192 0.83429 0.71904 0.0
O497 O 0.97373 0.80834 0.72519 0.0
O498 O 0.96328 0.81483 0.71321 0.0
C499 C 0.90124 0.66704 0.72078 0.0
Tb500 Tb 0.34353 0.19938 0.72111 0.0
C501 C 0.38439 0.19688 0.70432 0.0
Tb502 Tb 0.42114 0.16776 0.71902 0.0
O503 O 0.39468 0.25913 0.72821 0.0
O504 O 0.41829 0.23175 0.71951 0.0
O505 O 0.34934 0.19614 0.70848 0.0
C506 C 0.50746 0.17784 0.72035 0.0
O507 O 0.41978 0.19277 0.7074 0.0
C508 C 0.33323 0.09671 0.71726 0.0
C509 C 0.36198 0.14596 0.73479 0.0
O510 O 0.47775 0.15558 0.71472 0.0
O511 O 0.48855 0.19445 0.72516 0.0
O512 O 0.37026 0.09119 0.71654 0.0
O513 O 0.34879 0.13968 0.71873 0.0
O514 O 0.40142 0.15238 0.73129 0.0
O515 O 0.33286 0.15923 0.73172 0.0
C516 C 0.26928 0.21331 0.72033 0.0
O517 O 0.26766 0.17452 0.72262 0.0
O518 O 0.31277 0.24435 0.71846 0.0
C519 C 0.43195 0.26145 0.72496 0.0
Tb520 Tb 0.89343 0.17956 0.72048 0.0
C521 C 0.89747 0.22503 0.70394 0.0
Tb522 Tb 0.91919 0.28497 0.7194 0.0
O523 O 0.83102 0.16486 0.72759 0.0
O524 O 0.85684 0.21777 0.71937 0.0
O525 O 0.89614 0.18934 0.70793 0.0
C526 C 0.90758 0.36059 0.71879 0.0
O527 O 0.90342 0.26473 0.70724 0.0
C528 C 0.99251 0.27193 0.71948 0.0
C529 C 0.93805 0.24596 0.7349 0.0
O530 O 0.94001 0.35609 0.71506 0.0
O531 O 0.88201 0.32264 0.7229 0.0
O532 O 0.995 0.31162 0.72161 0.0
O533 O 0.95186 0.24466 0.7167 0.0
O534 O 0.92467 0.27513 0.73186 0.0
O535 O 0.93333 0.20827 0.73111 0.0
C536 C 0.88026 0.09198 0.71876 0.0
O537 O 0.9146 0.1261 0.72267 0.0
O538 O 0.85349 0.10719 0.71586 0.0
C539 C 0.82666 0.19921 0.72466 0.0
Tb540 Tb 0.42794 0.23933 0.12976 0.0
C541 C 0.37836 0.20068 0.1458 0.0
Tb542 Tb 0.34363 0.13667 0.13057 0.0
O543 O 0.38145 0.26852 0.13183 0.0
O544 O 0.35477 0.20292 0.12634 0.0
O545 O 0.41836 0.23137 0.14223 0.0
C546 C 0.25636 0.06022 0.13105 0.0
O547 O 0.34215 0.16471 0.14211 0.0
C548 C 0.42807 0.14495 0.1319 0.0
C549 C 0.4061 0.16881 0.11555 0.0
O550 O 0.29043 0.06953 0.13592 0.0
O551 O 0.27151 0.09384 0.12594 0.0
O552 O 0.39084 0.10634 0.12946 0.0
O553 O 0.41508 0.17347 0.13417 0.0
O554 O 0.36311 0.13955 0.11841 0.0
O555 O 0.43816 0.20743 0.1193 0.0
C556 C 0.5092 0.32212 0.12857 0.0
O557 O 0.47479 0.30556 0.12356 0.0
O558 O 0.49809 0.29174 0.13416 0.0
C559 C 0.34345 0.23143 0.12932 0.0
Tb560 Tb 0.85091 0.21894 0.1292 0.0
C561 C 0.88815 0.21 0.14553 0.0
Tb562 Tb 0.95357 0.23716 0.13055 0.0
O563 O 0.82153 0.14345 0.13147 0.0
O564 O 0.88775 0.18203 0.12613 0.0
O565 O 0.85859 0.21979 0.14171 0.0
C566 C 0.02979 0.22603 0.13123 0.0
O567 O 0.92376 0.208 0.14204 0.0
C568 C 0.94516 0.31332 0.13157 0.0
C569 C 0.92345 0.26663 0.11518 0.0
O570 O 0.02047 0.25121 0.13602 0.0
O571 O 0.99623 0.20723 0.12611 0.0
O572 O 0.98431 0.31482 0.1294 0.0
O573 O 0.91626 0.27186 0.13378 0.0
O574 O 0.95294 0.25434 0.11839 0.0
O575 O 0.88356 0.25928 0.1186 0.0
C576 C 0.76809 0.21748 0.12793 0.0
O577 O 0.78401 0.19818 0.12307 0.0
O578 O 0.79918 0.23821 0.13338 0.0
C579 C 0.85885 0.14238 0.12912 0.0
Tb580 Tb 0.87171 0.66256 0.12965 0.0
C581 C 0.88111 0.71212 0.14565 0.0
Tb582 Tb 0.85259 0.74645 0.1303 0.0
O583 O 0.94715 0.70942 0.13184 0.0
O584 O 0.90829 0.73565 0.12621 0.0
O585 O 0.87246 0.67226 0.14211 0.0
C586 C 0.86242 0.83332 0.13077 0.0
O587 O 0.88122 0.74809 0.14192 0.0
C588 C 0.77676 0.66187 0.13159 0.0
C589 C 0.82415 0.68401 0.11526 0.0
O590 O 0.8372 0.79892 0.13556 0.0
O591 O 0.88197 0.81874 0.12574 0.0
O592 O 0.77518 0.69881 0.12908 0.0
O593 O 0.81817 0.67515 0.13393 0.0
O594 O 0.83697 0.72676 0.11813 0.0
O595 O 0.83073 0.6522 0.11906 0.0
C596 C 0.87428 0.58183 0.12854 0.0
O597 O 0.89279 0.61654 0.12359 0.0
O598 O 0.85368 0.5923 0.13402 0.0
C599 C 0.94797 0.74721 0.12927 0.0
Tb600 Tb 0.95703 0.74971 0.63078 0.0
C601 C 0.92503 0.70167 0.61394 0.0
Tb602 Tb 0.84944 0.66823 0.62792 0.0
O603 O 0.97164 0.69711 0.6364 0.0
O604 O 0.91801 0.67685 0.62824 0.0
O605 O 0.95815 0.73654 0.61831 0.0
C606 C 0.7681 0.58643 0.6265 0.0
O607 O 0.88169 0.6704 0.6166 0.0
C608 C 0.85951 0.7544 0.62808 0.0
C609 C 0.88684 0.70921 0.64489 0.0
O610 O 0.78148 0.62379 0.6222 0.0
O611 O 0.80102 0.59475 0.63158 0.0
O612 O 0.81935 0.71582 0.62683 0.0
O613 O 0.88978 0.74176 0.62905 0.0
O614 O 0.85624 0.67208 0.64061 0.0
O615 O 0.92464 0.74727 0.64193 0.0
C616 C 0.03637 0.83453 0.63028 0.0
O617 O 0.03308 0.796 0.63315 0.0
O618 O 0.99508 0.8252 0.62769 0.0
C619 C 0.93569 0.66119 0.63302 0.0
Tb620 Tb 0.34427 0.24344 0.63008 0.0
C621 C 0.40245 0.26387 0.61474 0.0
Tb622 Tb 0.42751 0.22414 0.62984 0.0
O623 O 0.39271 0.31916 0.62766 0.0
O624 O 0.41594 0.27899 0.6337 0.0
O625 O 0.36022 0.25234 0.61773 0.0
C626 C 0.50619 0.21803 0.62828 0.0
O627 O 0.43474 0.25846 0.61864 0.0
C628 C 0.34231 0.14916 0.63003 0.0
C629 C 0.38181 0.22207 0.6459 0.0
O630 O 0.46461 0.18829 0.6255 0.0
O631 O 0.50384 0.25196 0.63189 0.0
O632 O 0.37916 0.15112 0.63328 0.0
O633 O 0.35467 0.18715 0.62635 0.0
O634 O 0.42082 0.2287 0.64227 0.0
O635 O 0.34555 0.22157 0.64217 0.0
C636 C 0.25764 0.23437 0.6307 0.0
O637 O 0.29694 0.2711 0.63301 0.0
O638 O 0.26702 0.20242 0.6281 0.0
C639 C 0.42922 0.31886 0.63068 0.0
Tb640 Tb 0.85253 0.14121 0.63003 0.0
C641 C 0.827 0.17658 0.61495 0.0
Tb642 Tb 0.87078 0.2433 0.62973 0.0
O643 O 0.77595 0.11239 0.62812 0.0
O644 O 0.81698 0.17695 0.63383 0.0
O645 O 0.84064 0.14713 0.61775 0.0
C646 C 0.87145 0.32567 0.62945 0.0
O647 O 0.83202 0.21402 0.6189 0.0
C648 C 0.94699 0.2348 0.62936 0.0
C649 C 0.87776 0.20142 0.64565 0.0
O650 O 0.89306 0.3128 0.6245 0.0
O651 O 0.84856 0.29171 0.6344 0.0
O652 O 0.94583 0.27087 0.63231 0.0
O653 O 0.90784 0.20787 0.62608 0.0
O654 O 0.86983 0.23293 0.6421 0.0
O655 O 0.87778 0.16556 0.64191 0.0
C656 C 0.86264 0.06466 0.63082 0.0
O657 O 0.82695 0.06767 0.63354 0.0
O658 O 0.89269 0.10478 0.62761 0.0
C659 C 0.7764 0.14945 0.63109 0.0
Tb660 Tb 0.42094 0.28084 0.21976 0.0
C661 C 0.36108 0.24761 0.23502 0.0
Tb662 Tb 0.33658 0.17829 0.22056 0.0
O663 O 0.37338 0.31027 0.22144 0.0
O664 O 0.3492 0.24419 0.21625 0.0
O665 O 0.40405 0.2764 0.23208 0.0
C666 C 0.25485 0.09586 0.22194 0.0
O667 O 0.32813 0.20983 0.23121 0.0
C668 C 0.42117 0.18649 0.22084 0.0
C669 C 0.38312 0.21871 0.20431 0.0
O670 O 0.29068 0.11129 0.22665 0.0
O671 O 0.26491 0.12705 0.21652 0.0
O672 O 0.38336 0.14989 0.21815 0.0
O673 O 0.40962 0.21447 0.22398 0.0
O674 O 0.34438 0.18706 0.20808 0.0
O675 O 0.41958 0.25527 0.20787 0.0
C676 C 0.50808 0.35772 0.21911 0.0
O677 O 0.46917 0.35561 0.21671 0.0
O678 O 0.49793 0.31646 0.22179 0.0
C679 C 0.33634 0.27229 0.21878 0.0
Tb680 Tb 0.80902 0.17645 0.21935 0.0
C681 C 0.8411 0.14697 0.23447 0.0
Tb682 Tb 0.91205 0.19526 0.22023 0.0
O683 O 0.77849 0.09903 0.22045 0.0
O684 O 0.84621 0.14196 0.21584 0.0
O685 O 0.81109 0.15917 0.23145 0.0
C686 C 0.99569 0.19868 0.22153 0.0
O687 O 0.88057 0.15452 0.23087 0.0
C688 C 0.90262 0.27074 0.22049 0.0
C689 C 0.87279 0.20397 0.20409 0.0
O690 O 0.97918 0.21754 0.22636 0.0
O691 O 0.96478 0.1773 0.21607 0.0
O692 O 0.93968 0.2704 0.2178 0.0
O693 O 0.87514 0.23124 0.2236 0.0
O694 O 0.90382 0.19551 0.20774 0.0
O695 O 0.8367 0.2043 0.20773 0.0
C696 C 0.73381 0.18928 0.21896 0.0
O697 O 0.74099 0.16196 0.21432 0.0
O698 O 0.769 0.20941 0.2238 0.0
C699 C 0.8174 0.10055 0.2181 0.0
Tb700 Tb 0.91653 0.66894 0.21939 0.0
C701 C 0.9375 0.72885 0.23486 0.0
Tb702 Tb 0.89093 0.75182 0.22054 0.0
O703 O 0.99275 0.72016 0.22072 0.0
O704 O 0.94633 0.74128 0.21632 0.0
O705 O 0.92768 0.68735 0.23171 0.0
C706 C 0.88416 0.83002 0.21969 0.0
O707 O 0.92877 0.76024 0.23137 0.0
C708 C 0.81748 0.66616 0.22379 0.0
C709 C 0.88892 0.7049 0.20421 0.0
O710 O 0.9156 0.82605 0.2238 0.0
O711 O 0.85753 0.79049 0.21604 0.0
O712 O 0.81582 0.7051 0.22421 0.0
O713 O 0.85948 0.67868 0.22205 0.0
O714 O 0.89439 0.74297 0.20805 0.0
O715 O 0.89066 0.669 0.20764 0.0
C716 C 0.90768 0.58289 0.21906 0.0
O717 O 0.93897 0.61962 0.21516 0.0
O718 O 0.88152 0.59469 0.22314 0.0
C719 C 0.98825 0.75628 0.21863 0.0
H720 H 0.35022 0.10486 0.10441 0.0
H721 H 0.49689 0.19834 0.11086 0.0
H722 H 0.3763 0.07708 0.09331 0.0
H723 H 0.52291 0.16929 0.10004 0.0
H724 H 0.55649 0.14467 0.07553 0.0
H725 H 0.53074 0.17171 0.08661 0.0
H726 H 0.41008 0.03024 0.08957 0.0
H727 H 0.43497 1.00356 0.07819 0.0
C728 C 0.38802 0.11958 0.10344 0.0
C729 C 0.42142 0.15431 0.10846 0.0
C730 C 0.40304 0.10324 0.09712 0.0
C731 C 0.45184 0.12075 0.09574 0.0
C732 C 0.48511 0.15556 0.10078 0.0
C733 C 0.47014 0.17231 0.10702 0.0
C734 C 0.5248 0.11899 0.07859 0.0
C735 C 0.49794 0.07178 0.07596 0.0
C736 C 0.50998 0.13459 0.08499 0.0
C737 C 0.46814 0.10333 0.08903 0.0
C738 C 0.44198 0.05567 0.08653 0.0
C739 C 0.45654 0.04016 0.08005 0.0
H740 H 0.86861 0.28178 0.10479 0.0
H741 H 1.01364 0.31815 0.10946 0.0
H742 H 0.89543 0.33428 0.09356 0.0
H743 H 0.04089 0.37246 0.09856 0.0
H744 H 0.07247 0.43381 0.07429 0.0
H745 H 0.04575 0.38022 0.08529 0.0
H746 H 0.93423 0.41339 0.08964 0.0
H747 H 0.95964 0.46508 0.07832 0.0
C748 C 0.90623 0.30094 0.10341 0.0
C749 C 0.93886 0.29532 0.10798 0.0
C750 C 0.9218 0.3316 0.09701 0.0
C751 C 0.97056 0.35818 0.09511 0.0
C752 C 1.00302 0.35214 0.09969 0.0
C753 C 0.98736 0.32089 0.10598 0.0
C754 C 0.04263 0.43017 0.07765 0.0
C755 C 1.01835 0.45396 0.07544 0.0
C756 C 0.02722 0.39933 0.084 0.0
C757 C 0.98755 0.39199 0.08841 0.0
C758 C 0.96419 0.41705 0.08632 0.0
C759 C 0.97912 0.44727 0.07987 0.0
H760 H 0.62335 0.64553 0.07879 0.0
H761 H 0.66458 0.54121 0.07339 0.0
H762 H 0.67529 0.67055 0.09009 0.0
H763 H 0.7175 0.56713 0.08451 0.0
H764 H 0.77334 0.59403 0.10934 0.0
H765 H 0.72043 0.56745 0.09822 0.0
H766 H 0.75753 0.71266 0.09352 0.0
H767 H 0.8095 0.73915 0.10483 0.0
C768 C 0.64328 0.62774 0.08003 0.0
C769 C 0.63943 0.5911 0.07519 0.0
C770 C 0.67352 0.64245 0.08647 0.0
C771 C 0.70102 0.62117 0.08822 0.0
C772 C 0.6965 0.58398 0.08344 0.0
C773 C 0.66602 0.56905 0.07704 0.0
C774 C 0.77076 0.62048 0.10589 0.0
C775 C 0.79597 0.66885 0.10798 0.0
C776 C 0.7403 0.60516 0.09949 0.0
C777 C 0.73438 0.63778 0.09495 0.0
C778 C 0.76042 0.68633 0.09695 0.0
C779 C 0.79067 0.70164 0.10339 0.0
H780 H 0.1522 0.53125 0.44273 0.0
H781 H 1.00625 0.42814 0.43728 0.0
H782 H 0.17958 0.50009 0.43256 0.0
H783 H 0.03375 0.39856 0.42656 0.0
H784 H 0.09839 0.32758 0.41202 0.0
H785 H 0.07033 0.35494 0.42295 0.0
H786 H 0.18855 0.49757 0.4196 0.0
H787 H 0.21781 0.46975 0.40921 0.0
C788 C 0.12571 0.50271 0.43919 0.0
C789 C 0.07687 0.48261 0.44077 0.0
C790 C 0.14155 0.48473 0.43329 0.0
C791 C 0.1091 0.44683 0.42861 0.0
C792 C 0.06 0.42724 0.43009 0.0
C793 C 0.0441 0.44462 0.43616 0.0
C794 C 0.11887 0.36451 0.41378 0.0
C795 C 0.16069 0.39623 0.40979 0.0
C796 C 0.1024 0.38044 0.41997 0.0
C797 C 0.12691 0.42868 0.42221 0.0
C798 C 0.16907 0.46 0.41825 0.0
C799 C 0.18599 0.44392 0.41222 0.0
H800 H 0.5444 0.6525 0.44365 0.0
H801 H 0.64234 0.6032 0.4381 0.0
H802 H 0.57331 0.70616 0.43266 0.0
H803 H 0.67033 0.65604 0.42689 0.0
H804 H 0.74501 0.79123 0.41221 0.0
H805 H 0.71649 0.73835 0.42343 0.0
H806 H 0.57354 0.71001 0.41905 0.0
H807 H 0.60209 0.7637 0.40809 0.0
C808 C 0.57142 0.65228 0.43999 0.0
C809 C 0.59074 0.62313 0.44175 0.0
C810 C 0.58809 0.68323 0.43365 0.0
C811 C 0.62438 0.68576 0.42885 0.0
C812 C 0.64297 0.65577 0.43052 0.0
C813 C 0.62647 0.62497 0.4369 0.0
C814 C 0.70763 0.77423 0.41372 0.0
C815 C 0.67605 0.78219 0.40926 0.0
C816 C 0.69111 0.7434 0.4201 0.0
C817 C 0.64255 0.71953 0.42216 0.0
C818 C 0.61125 0.72815 0.41775 0.0
C819 C 0.62775 0.7591 0.41142 0.0
H820 H 0.32677 0.8713 0.40652 0.0
H821 H 0.28227 0.9734 0.4117 0.0
H822 H 0.37995 0.89904 0.41759 0.0
H823 H 0.33452 1.00023 0.42297 0.0
H824 H 0.46891 0.07198 0.43775 0.0
H825 H 0.4167 0.04415 0.42647 0.0
H826 H 0.38339 0.90012 0.43124 0.0
H827 H 0.43651 0.92801 0.4423 0.0
C828 C 0.32749 0.89899 0.41012 0.0
C829 C 0.29988 0.91986 0.40822 0.0
C830 C 0.35816 0.915 0.41649 0.0
C831 C 0.36189 0.95212 0.4212 0.0
C832 C 0.33338 0.97221 0.41941 0.0
C833 C 0.30292 0.95642 0.41299 0.0
C834 C 0.45092 0.03447 0.43633 0.0
C835 C 0.45732 1.0024 0.44093 0.0
C836 C 0.42049 0.01837 0.4299 0.0
C837 C 0.39541 0.96973 0.42793 0.0
C838 C 0.40249 0.93788 0.43247 0.0
C839 C 0.43308 0.95398 0.43885 0.0
H840 H 0.67951 0.06759 0.94251 0.0
H841 H 0.53568 0.95319 0.93877 0.0
H842 H 0.70666 0.04045 0.9316 0.0
H843 H 0.56237 0.92724 0.92752 0.0
H844 H 0.63006 0.86337 0.91224 0.0
H845 H 0.6041 0.88955 0.92353 0.0
H846 H 0.70871 0.03553 0.91831 0.0
H847 H 0.73603 1.00906 0.90733 0.0
C848 C 0.65338 0.0372 0.93924 0.0
C849 C 0.60528 0.0128 0.9415 0.0
C850 C 0.66901 0.02158 0.93294 0.0
C851 C 0.63689 0.98149 0.92861 0.0
C852 C 0.58849 0.95765 0.93078 0.0
C853 C 0.57297 0.97288 0.93718 0.0
C854 C 0.64795 0.90099 0.91358 0.0
C855 C 0.68548 0.93401 0.90891 0.0
C856 C 0.63266 0.91615 0.92002 0.0
C857 C 0.65398 0.96485 0.92188 0.0
C858 C 0.69185 0.9977 0.91721 0.0
C859 C 0.7076 0.98247 0.91087 0.0
H860 H 0.23228 0.80214 0.91132 0.0
H861 H 0.0877 0.76944 0.90726 0.0
H862 H 0.20576 0.7497 0.92257 0.0
H863 H 0.06081 0.71538 0.91816 0.0
H864 H 0.03094 0.65636 0.94245 0.0
H865 H 0.05843 0.70975 0.93146 0.0
H866 H 0.16486 0.6702 0.92661 0.0
H867 H 0.13869 0.61843 0.93794 0.0
C868 C 0.19487 0.78385 0.91284 0.0
C869 C 0.16227 0.79051 0.90844 0.0
C870 C 0.17948 0.75326 0.91924 0.0
C871 C 0.13096 0.72792 0.92133 0.0
C872 C 0.09854 0.73484 0.9169 0.0
C873 C 0.11402 0.76596 0.9106 0.0
C874 C 0.05982 0.6585 0.93899 0.0
C875 C 0.08236 0.63277 0.94106 0.0
C876 C 0.07566 0.68924 0.93264 0.0
C877 C 0.11401 0.69459 0.92808 0.0
C878 C 0.13586 0.66789 0.93005 0.0
C879 C 0.12048 0.63768 0.9365 0.0
H880 H 0.44538 0.41941 0.94202 0.0
H881 H 0.47662 0.56315 0.93777 0.0
H882 H 0.38949 0.39125 0.93136 0.0
H883 H 0.42264 0.53552 0.92672 0.0
H884 H 0.28946 0.46866 0.91193 0.0
H885 H 0.34355 0.4956 0.92296 0.0
H886 H 0.37818 0.38552 0.91826 0.0
H887 H 0.32216 0.35718 0.90761 0.0
C888 C 0.44132 0.4453 0.93866 0.0
C889 C 0.46588 0.49366 0.94073 0.0
C890 C 0.40909 0.42909 0.9325 0.0
C891 C 0.40104 0.46087 0.92809 0.0
C892 C 0.4268 0.50958 0.93004 0.0
C893 C 0.45839 0.52566 0.93632 0.0
C894 C 0.30804 0.44976 0.91336 0.0
C895 C 0.30091 0.41036 0.90894 0.0
C896 C 0.3397 0.46562 0.91963 0.0
C897 C 0.3659 0.44312 0.92156 0.0
C898 C 0.35824 0.4034 0.91714 0.0
C899 C 0.32592 0.38702 0.91098 0.0
H900 H 1.0157 0.73965 0.60834 0.0
H901 H 0.86951 0.6381 0.60271 0.0
H902 H 0.04242 0.7125 0.59739 0.0
H903 H 0.89623 0.61232 0.59146 0.0
H904 H 0.95969 0.53907 0.57725 0.0
H905 H 0.93275 0.56777 0.5881 0.0
H906 H 0.04918 0.7104 0.58407 0.0
H907 H 0.07715 0.68137 0.57355 0.0
C908 C 0.98907 0.71234 0.60465 0.0
C909 C 0.94035 0.69109 0.60644 0.0
C910 C 1.00449 0.69669 0.59832 0.0
C911 C 0.97164 0.65977 0.59352 0.0
C912 C 0.92274 0.64 0.59511 0.0
C913 C 0.90732 0.65527 0.60152 0.0
C914 C 0.97988 0.57642 0.57876 0.0
C915 C 0.02092 0.60771 0.57457 0.0
C916 C 0.96408 0.59309 0.58493 0.0
C917 C 0.98854 0.64162 0.58699 0.0
C918 C 0.02975 0.6727 0.5828 0.0
C919 C 0.04587 0.65595 0.57672 0.0
H920 H 0.55072 0.4293 0.57363 0.0
H921 H 0.44704 0.47121 0.57917 0.0
H922 H 0.52146 0.37261 0.58421 0.0
H923 H 0.41876 0.41551 0.59001 0.0
H924 H 0.34781 0.2801 0.60438 0.0
H925 H 0.37539 0.33335 0.59322 0.0
H926 H 0.51957 0.36573 0.5977 0.0
H927 H 0.4919 0.31142 0.60857 0.0
C928 C 0.52229 0.42719 0.57721 0.0
C929 C 0.50156 0.45525 0.57557 0.0
C930 C 0.50541 0.3945 0.5833 0.0
C931 C 0.4676 0.3892 0.58801 0.0
C932 C 0.44734 0.41786 0.58644 0.0
C933 C 0.46394 0.45028 0.58028 0.0
C934 C 0.38525 0.29794 0.60289 0.0
C935 C 0.41746 0.29104 0.60736 0.0
C936 C 0.40123 0.32901 0.59654 0.0
C937 C 0.44988 0.35432 0.59455 0.0
C938 C 0.48179 0.34648 0.59894 0.0
C939 C 0.46579 0.31513 0.60521 0.0
H940 H 0.81542 0.10955 0.60409 0.0
H941 H 0.7718 0.21192 0.60961 0.0
H942 H 0.76199 0.0829 0.59294 0.0
H943 H 0.71731 0.18417 0.59875 0.0
H944 H 0.65818 0.15688 0.57434 0.0
H945 H 0.7122 0.18381 0.58525 0.0
H946 H 0.68032 0.03958 0.5894 0.0
H947 H 0.62737 0.01279 0.5782 0.0
C948 C 0.79469 0.12657 0.6029 0.0
C949 C 0.79843 0.16327 0.60771 0.0
C950 C 0.76355 0.11089 0.59656 0.0
C951 C 0.73496 0.13115 0.59492 0.0
C952 C 0.73921 0.16818 0.5997 0.0
C953 C 0.77065 0.18418 0.60597 0.0
C954 C 0.66198 0.13062 0.57763 0.0
C955 C 0.63797 0.08248 0.5754 0.0
C956 C 0.69317 0.14617 0.58393 0.0
C957 C 0.70094 0.11402 0.58826 0.0
C958 C 0.67602 0.06561 0.58614 0.0
C959 C 0.64513 0.05009 0.57976 0.0
H960 H 0.76618 0.67537 0.74416 0.0
H961 H 0.88552 0.81721 0.74099 0.0
H962 H 0.74222 0.70202 0.75562 0.0
H963 H 0.86061 0.84431 0.75222 0.0
H964 H 0.82788 0.87074 0.77671 0.0
H965 H 0.85397 0.84324 0.76568 0.0
H966 H 0.70724 0.74719 0.75947 0.0
H967 H 0.6812 0.77341 0.77075 0.0
C968 C 0.78746 0.7122 0.74592 0.0
C969 C 0.8279 0.74402 0.74164 0.0
C970 C 0.77339 0.72769 0.75246 0.0
C971 C 0.79907 0.77557 0.75486 0.0
C972 C 0.84015 0.80707 0.75066 0.0
C973 C 0.8545 0.79146 0.74418 0.0
C974 C 0.80108 0.84418 0.77294 0.0
C975 C 0.75235 0.82455 0.77461 0.0
C976 C 0.81612 0.82832 0.76658 0.0
C977 C 0.78287 0.79276 0.76163 0.0
C978 C 0.73404 0.77389 0.76321 0.0
C979 C 0.719 0.78934 0.76964 0.0
H980 H 0.31447 0.93594 0.77026 0.0
H981 H 0.21274 0.98071 0.77563 0.0
H982 H 0.34183 0.98926 0.75911 0.0
H983 H 0.24142 0.03533 0.76483 0.0
H984 H 0.27243 0.09896 0.74084 0.0
H985 H 0.24346 0.04301 0.75149 0.0
H986 H 0.38634 0.07032 0.75568 0.0
H987 H 0.41499 0.1249 0.7447 0.0
C988 C 0.29766 0.95681 0.76903 0.0
C989 C 0.26103 0.95354 0.7738 0.0
C990 C 0.31379 0.98794 0.76269 0.0
C991 C 0.29415 0.01707 0.76104 0.0
C992 C 0.25694 0.01301 0.76577 0.0
C993 C 0.24037 0.98147 0.772 0.0
C994 C 0.29791 0.09362 0.74409 0.0
C995 C 0.34618 0.11677 0.74193 0.0
C996 C 0.28121 0.06136 0.75023 0.0
C997 C 0.3124 0.05181 0.75449 0.0
C998 C 0.36099 0.07591 0.75245 0.0
C999 C 0.3776 0.10773 0.74621 0.0
H1000 H 0.95317 0.31712 0.74519 0.0
H1001 H 0.98899 0.20764 0.74091 0.0
H1002 H 1.00655 0.34422 0.75636 0.0
H1003 H 0.04333 0.2357 0.75175 0.0
H1004 H 0.10316 0.26609 0.77599 0.0
H1005 H 0.04823 0.23909 0.7652 0.0
H1006 H 0.0884 0.38457 0.75996 0.0
H1007 H 0.14232 0.41157 0.77105 0.0
C1008 C 0.9721 0.29861 0.74666 0.0
C1009 C 0.96624 0.25984 0.74218 0.0
C1010 C 1.00322 0.31453 0.75301 0.0
C1011 C 0.02957 0.29233 0.75499 0.0
C1012 C 0.02316 0.25326 0.75054 0.0
C1013 C 0.99181 0.2371 0.74427 0.0
C1014 C 0.10095 0.29255 0.77248 0.0
C1015 C 0.12766 0.34115 0.77437 0.0
C1016 C 0.06924 0.27697 0.76626 0.0
C1017 C 0.06365 0.30951 0.76165 0.0
C1018 C 0.09106 0.3583 0.76344 0.0
C1019 C 0.12248 0.3739 0.76975 0.0
H1020 H 0.32429 0.41281 0.27145 0.0
H1021 H 0.21823 0.26732 0.27655 0.0
H1022 H 0.35029 0.38576 0.26024 0.0
H1023 H 0.24514 0.2403 0.26559 0.0
H1024 H 0.27148 0.20999 0.24099 0.0
H1025 H 0.24567 0.23768 0.252 0.0
H1026 H 0.39156 0.34492 0.25662 0.0
H1027 H 0.41738 0.31809 0.24536 0.0
C1028 C 0.30634 0.37512 0.27017 0.0
C1029 C 0.2688 0.34239 0.27487 0.0
C1030 C 0.32161 0.35951 0.26378 0.0
C1031 C 0.29999 0.31073 0.26198 0.0
C1032 C 0.26219 0.27816 0.26667 0.0
C1033 C 0.2467 0.29376 0.273 0.0
C1034 C 0.29831 0.23911 0.2444 0.0
C1035 C 0.34667 0.26155 0.24229 0.0
C1036 C 0.2834 0.25504 0.25075 0.0
C1037 C 0.31641 0.29365 0.25525 0.0
C1038 C 0.36496 0.31559 0.25323 0.0
C1039 C 0.37988 0.29986 0.24682 0.0
H1040 H 0.69745 0.98562 0.27594 0.0
H1041 H 0.8061 0.94881 0.27152 0.0
H1042 H 0.724 0.03807 0.26484 0.0
H1043 H 0.83133 0.99964 0.26007 0.0
H1044 H 0.89695 0.1305 0.24448 0.0
H1045 H 0.87132 0.0786 0.2558 0.0
H1046 H 0.72584 0.04302 0.25155 0.0
H1047 H 0.7519 0.0966 0.24058 0.0
C1048 C 0.72635 0.98779 0.27248 0.0
C1049 C 0.74939 0.96263 0.27461 0.0
C1050 C 0.74163 0.01799 0.26606 0.0
C1051 C 0.77994 0.02339 0.26147 0.0
C1052 C 0.80232 0.99729 0.26351 0.0
C1053 C 0.78748 0.9676 0.27003 0.0
C1054 C 0.85961 0.11202 0.24605 0.0
C1055 C 0.82663 0.11825 0.24168 0.0
C1056 C 0.84472 0.08173 0.25249 0.0
C1057 C 0.79632 0.05624 0.25465 0.0
C1058 C 0.76351 0.06263 0.25024 0.0
C1059 C 0.77849 0.09347 0.2439 0.0
H1060 H 0.98566 0.81828 0.24098 0.0
H1061 H 0.95503 0.67443 0.24507 0.0
H1062 H 0.04009 0.84589 0.25184 0.0
H1063 H 1.00845 0.70194 0.25621 0.0
H1064 H 0.14533 0.77353 0.27049 0.0
H1065 H 0.09049 0.74563 0.25954 0.0
H1066 H 0.04608 0.84712 0.26534 0.0
H1067 H 0.10198 0.8761 0.27602 0.0
C1068 C 0.98961 0.79222 0.24431 0.0
C1069 C 0.96556 0.74396 0.24215 0.0
C1070 C 0.021 0.80817 0.25057 0.0
C1071 C 0.02898 0.7763 0.25494 0.0
C1072 C 1.00397 0.72775 0.25291 0.0
C1073 C 0.97284 0.71182 0.24657 0.0
C1074 C 0.1243 0.79028 0.26935 0.0
C1075 C 0.12858 0.82746 0.27409 0.0
C1076 C 0.09237 0.7739 0.26312 0.0
C1077 C 0.06352 0.79391 0.26153 0.0
C1078 C 0.06818 0.83131 0.26626 0.0
C1079 C 0.10042 0.84803 0.27241 0.0
H1080 H 0.61616 0.09671 0.02874 0.0
H1081 H 0.46606 0.99375 0.02719 0.0
H1082 H 0.62132 0.10017 0.01462 0.0
H1083 H 0.47073 0.99856 0.01318 0.0
H1084 H 0.50315 0.97587 0.98866 0.0
H1085 H 0.49973 0.97502 1.00267 0.0
H1086 H 0.59978 0.12616 1.00316 0.0
H1087 H 0.60462 0.12661 0.98903 0.0
C1088 C 0.58424 0.075 0.02539 0.0
C1089 C 0.54082 0.04458 0.02911 0.0
C1090 C 0.58709 0.07725 0.01729 0.0
C1091 C 0.54649 0.04947 0.01272 0.0
C1092 C 0.50302 0.01968 0.01647 0.0
C1093 C 0.50029 0.01704 0.02454 0.0
C1094 C 0.52427 1.0091 0.99173 0.0
C1095 C 0.55407 0.05137 0.9877 0.0
C1096 C 0.52213 1.00864 0.9998 0.0
C1097 C 0.54927 0.05056 1.00409 0.0
C1098 C 0.57883 0.09305 1.00006 0.0
C1099 C 0.58133 0.09341 0.99195 0.0
H1100 H 0.98931 0.56045 0.98919 0.0
H1101 H 0.1041 0.52962 0.98798 0.0
H1102 H 0.9912 0.55816 1.00323 0.0
H1103 H 0.10463 0.52508 1.00205 0.0
H1104 H 0.1268 0.56691 0.02752 0.0
H1105 H 0.12587 0.57113 0.01342 0.0
H1106 H 0.9728 0.50853 0.01394 0.0
H1107 H 0.97415 0.50645 0.02796 0.0
C1108 C 1.01443 0.55235 0.99192 0.0
C1109 C 0.04653 0.54519 0.98745 0.0
C1110 C 1.01546 0.55088 1.0 0.0
C1111 C 0.04813 0.54148 1.00384 0.0
C1112 C 0.07961 0.53338 0.99934 0.0
C1113 C 0.07903 0.53553 0.99125 0.0
C1114 C 0.09304 0.55436 0.02461 0.0
C1115 C 0.05063 0.53659 0.02888 0.0
C1116 C 0.09239 0.55638 0.01651 0.0
C1117 C 0.04921 0.54007 0.01248 0.0
C1118 C 1.00687 0.52231 0.01679 0.0
C1119 C 1.00762 0.52092 0.02487 0.0
H1120 H 0.5271 0.60125 0.02765 0.0
H1121 H 0.58773 0.50931 0.02759 0.0
H1122 H 0.52247 0.59694 0.01351 0.0
H1123 H 0.58499 0.50657 0.0136 0.0
H1124 H 0.53054 0.46978 0.98912 0.0
H1125 H 0.53255 0.47426 1.00316 0.0
H1126 H 0.56872 0.62158 1.00196 0.0
H1127 H 0.56474 0.6164 0.98787 0.0
C1128 C 0.53961 0.58035 0.02463 0.0
C1129 C 0.55743 0.55539 0.02876 0.0
C1130 C 0.53728 0.57809 0.01652 0.0
C1131 C 0.55316 0.55119 0.01237 0.0
C1132 C 0.57138 0.52673 0.01655 0.0
C1133 C 0.57318 0.52855 0.02462 0.0
C1134 C 0.53921 0.50323 0.99184 0.0
C1135 C 0.54762 0.54275 0.98736 0.0
C1136 C 0.54051 0.5059 0.99992 0.0
C1137 C 0.55093 0.54837 1.00374 0.0
C1138 C 0.5598 0.58806 0.99924 0.0
C1139 C 0.55794 0.58521 0.99115 0.0
H1140 H 1.0069 0.47658 0.52841 0.0
H1141 H 0.11614 0.62435 0.52683 0.0
H1142 H 1.00467 0.47049 0.51436 0.0
H1143 H 0.1124 0.61914 0.51278 0.0
H1144 H 0.12412 0.585 0.48762 0.0
H1145 H 0.12978 0.59002 0.50166 0.0
H1146 H 0.97829 0.49223 0.50337 0.0
H1147 H 0.97328 0.48554 0.48932 0.0
C1148 C 0.03044 0.50782 0.52505 0.0
C1149 C 0.06172 0.55092 0.52875 0.0
C1150 C 0.02885 0.5045 0.51697 0.0
C1151 C 0.05795 0.54444 0.51236 0.0
C1152 C 0.08987 0.58737 0.51609 0.0
C1153 C 0.09198 0.59045 0.52418 0.0
C1154 C 0.09196 0.56476 0.491 0.0
C1155 C 0.04823 0.53487 0.48735 0.0
C1156 C 0.09516 0.56775 0.49907 0.0
C1157 C 0.05456 0.54145 0.50372 0.0
C1158 C 1.01061 0.51223 0.50003 0.0
C1159 C 1.00758 0.50869 0.49196 0.0
H1160 H 0.51968 0.58957 0.4895 0.0
H1161 H 0.61416 0.53194 0.4901 0.0
H1162 H 0.51816 0.59077 0.5035 0.0
H1163 H 0.61097 0.53102 0.50425 0.0
H1164 H 0.62893 0.57381 0.52961 0.0
H1165 H 0.63475 0.57848 0.51554 0.0
H1166 H 0.48686 0.5408 0.5142 0.0
H1167 H 0.48185 0.53829 0.52826 0.0
C1168 C 0.5398 0.5766 0.49263 0.0
C1169 C 0.56687 0.56037 0.48868 0.0
C1170 C 0.5387 0.57706 0.5007 0.0
C1171 C 0.56405 0.5606 0.50506 0.0
C1172 C 0.59146 0.54458 0.5011 0.0
C1173 C 0.59312 0.54479 0.49299 0.0
C1174 C 0.59781 0.56703 0.5263 0.0
C1175 C 0.55495 0.55583 0.53005 0.0
C1176 C 0.60101 0.56924 0.51822 0.0
C1177 C 0.56125 0.55974 0.51369 0.0
C1178 C 0.51854 0.54916 0.51747 0.0
C1179 C 0.51556 0.54761 0.52555 0.0
H1180 H 0.53264 0.96953 0.52737 0.0
H1181 H 0.57786 0.11923 0.52808 0.0
H1182 H 0.52667 0.97041 0.5133 0.0
H1183 H 0.57403 0.12073 0.51406 0.0
H1184 H 0.51998 0.09916 0.48924 0.0
H1185 H 0.52346 0.09789 0.50333 0.0
H1186 H 0.57272 0.99657 0.50198 0.0
H1187 H 0.56714 0.99637 0.48795 0.0
C1188 C 0.54152 1.00266 0.52452 0.0
C1189 C 0.5556 0.04422 0.52886 0.0
C1190 C 0.53847 1.00333 0.51644 0.0
C1191 C 0.55007 0.04574 0.51249 0.0
C1192 C 0.56398 0.0872 0.51686 0.0
C1193 C 0.56641 0.08637 0.52493 0.0
C1194 C 0.53183 0.07687 0.49196 0.0
C1195 C 0.54314 0.04778 0.48748 0.0
C1196 C 0.53397 0.07618 0.50006 0.0
C1197 C 0.54813 0.04689 0.50385 0.0
C1198 C 0.56055 0.01872 0.49931 0.0
C1199 C 0.55778 0.01893 0.49124 0.0
H1200 H 0.14882 0.33531 0.32167 0.0
H1201 H 0.29871 0.43896 0.32303 0.0
H1202 H 0.14339 0.33399 0.33571 0.0
H1203 H 0.29385 0.43626 0.33712 0.0
H1204 H 0.2596 0.45023 0.36236 0.0
H1205 H 0.26535 0.45598 0.3483 0.0
H1206 H 0.16487 0.30531 0.34653 0.0
H1207 H 0.15774 0.30012 0.36056 0.0
C1208 C 0.18069 0.35781 0.32497 0.0
C1209 C 0.22423 0.38713 0.32123 0.0
C1210 C 0.17769 0.35675 0.33305 0.0
C1211 C 0.2183 0.38451 0.3376 0.0
C1212 C 0.26168 0.41472 0.33383 0.0
C1213 C 0.26454 0.41621 0.32574 0.0
C1214 C 0.23888 0.4183 0.35897 0.0
C1215 C 0.20809 0.37473 0.36259 0.0
C1216 C 0.2423 0.42155 0.35089 0.0
C1217 C 0.21537 0.3812 0.34623 0.0
C1218 C 0.18533 0.33744 0.34989 0.0
C1219 C 0.18149 0.33432 0.35795 0.0
H1220 H 0.64155 0.83331 0.36149 0.0
H1221 H 0.79413 0.89314 0.36142 0.0
H1222 H 0.64157 0.83729 0.34749 0.0
H1223 H 0.79457 0.89922 0.34731 0.0
H1224 H 0.77352 0.86163 0.32158 0.0
H1225 H 0.77387 0.85543 0.33563 0.0
H1226 H 0.66131 0.88961 0.33713 0.0
H1227 H 0.65962 0.89364 0.3231 0.0
C1228 C 0.67533 0.84795 0.35848 0.0
C1229 C 0.71792 0.86308 0.36259 0.0
C1230 C 0.67536 0.85049 0.35042 0.0
C1231 C 0.71809 0.8689 0.34621 0.0
C1232 C 0.76084 0.88419 0.35032 0.0
C1233 C 0.7607 0.88103 0.35842 0.0
C1234 C 0.74864 0.86751 0.32492 0.0
C1235 C 0.71636 0.87787 0.32121 0.0
C1236 C 0.74913 0.86437 0.333 0.0
C1237 C 0.7177 0.87207 0.33758 0.0
C1238 C 0.68546 0.8825 0.33383 0.0
C1239 C 0.68456 0.88499 0.32576 0.0
H1240 H 0.20666 0.80373 0.32157 0.0
H1241 H 0.2416 0.95058 0.32056 0.0
H1242 H 0.2082 0.80737 0.33564 0.0
H1243 H 0.24538 0.95508 0.33464 0.0
H1244 H 0.19917 0.93381 0.35998 0.0
H1245 H 0.19757 0.93045 0.34585 0.0
H1246 H 0.25714 0.83751 0.34646 0.0
H1247 H 0.25657 0.83915 0.36047 0.0
C1248 C 0.21563 0.83709 0.32436 0.0
C1249 C 0.224 0.87683 0.31995 0.0
C1250 C 0.21662 0.83929 0.33245 0.0
C1251 C 0.22677 0.88153 0.33633 0.0
C1252 C 0.23641 0.92164 0.33188 0.0
C1253 C 0.23473 0.91922 0.3238 0.0
C1254 C 0.2117 0.91257 0.35708 0.0
C1255 C 0.22762 0.88651 0.36136 0.0
C1256 C 0.21116 0.91086 0.34897 0.0
C1257 C 0.22718 0.8836 0.34496 0.0
C1258 C 0.24352 0.85803 0.34929 0.0
C1259 C 0.2434 0.85918 0.35737 0.0
H1260 H 0.65148 0.79438 0.82255 0.0
H1261 H 0.76398 0.94115 0.82174 0.0
H1262 H 0.65378 0.79702 0.83665 0.0
H1263 H 0.76499 0.94458 0.83581 0.0
H1264 H 0.79107 0.92455 0.8609 0.0
H1265 H 0.78853 0.91924 0.84681 0.0
H1266 H 0.6359 0.82644 0.84775 0.0
H1267 H 0.63885 0.83013 0.86179 0.0
C1268 C 0.67613 0.82747 0.82538 0.0
C1269 C 0.70761 0.86749 0.82102 0.0
C1270 C 0.67744 0.82907 0.83349 0.0
C1271 C 0.70986 0.87095 0.83743 0.0
C1272 C 0.74036 0.91134 0.83302 0.0
C1273 C 0.73946 0.90953 0.82493 0.0
C1274 C 0.75706 0.90274 0.85809 0.0
C1275 C 0.71525 0.87772 0.86249 0.0
C1276 C 0.75547 0.89998 0.84999 0.0
C1277 C 0.71191 0.87262 0.84608 0.0
C1278 C 0.67022 0.84727 0.85052 0.0
C1279 C 0.67191 0.84956 0.8586 0.0
H1280 H 0.2882 0.89947 0.86187 0.0
H1281 H 0.14172 0.86607 0.86062 0.0
H1282 H 0.29366 0.90407 0.8478 0.0
H1283 H 0.14635 0.86851 0.84657 0.0
H1284 H 0.18022 0.91878 0.82185 0.0
H1285 H 0.17796 0.91868 0.83588 0.0
H1286 H 0.26891 0.8568 0.8365 0.0
H1287 H 0.27283 0.85896 0.82238 0.0
C1288 C 0.25713 0.89307 0.85859 0.0
C1289 C 0.21457 0.88257 0.86237 0.0
C1290 C 0.26011 0.89526 0.85051 0.0
C1291 C 0.22041 0.88643 0.846 0.0
C1292 C 0.17797 0.87635 0.84982 0.0
C1293 C 0.17522 0.87481 0.8579 0.0
C1294 C 0.19969 0.905 0.82497 0.0
C1295 C 0.2266 0.8887 0.82099 0.0
C1296 C 0.1982 0.90474 0.83304 0.0
C1297 C 0.22302 0.8875 0.83737 0.0
C1298 C 0.24992 0.87105 0.83338 0.0
C1299 C 0.25194 0.87195 0.82528 0.0
H1300 H 0.19201 0.43397 0.82256 0.0
H1301 H 0.2311 0.32499 0.82157 0.0
H1302 H 0.19379 0.43242 0.83662 0.0
H1303 H 0.23497 0.32482 0.83565 0.0
H1304 H 0.19191 0.30099 0.86105 0.0
H1305 H 0.18782 0.30148 0.84695 0.0
H1306 H 0.24393 0.4535 0.84737 0.0
H1307 H 0.24598 0.45254 0.86141 0.0
C1308 C 0.20174 0.41018 0.82534 0.0
C1309 C 0.21141 0.37961 0.82093 0.0
C1310 C 0.20292 0.40936 0.83343 0.0
C1311 C 0.21446 0.37842 0.83733 0.0
C1312 C 0.22498 0.34844 0.83289 0.0
C1313 C 0.22319 0.34884 0.8248 0.0
C1314 C 0.20308 0.33443 0.85812 0.0
C1315 C 0.21907 0.37665 0.86236 0.0
C1316 C 0.20112 0.33483 0.85002 0.0
C1317 C 0.21566 0.37758 0.84597 0.0
C1318 C 0.23157 0.41973 0.85025 0.0
C1319 C 0.23295 0.41921 0.85833 0.0
H1320 H 0.94 0.76047 0.69419 0.0
H1321 H 0.79582 0.64245 0.69337 0.0
H1322 H 0.94408 0.76038 0.68014 0.0
H1323 H 0.799 0.64361 0.67928 0.0
H1324 H 0.83525 0.63082 0.65404 0.0
H1325 H 0.83017 0.62767 0.66813 0.0
H1326 H 0.91719 0.78089 0.66909 0.0
H1327 H 0.92385 0.78363 0.65506 0.0
C1328 C 0.90904 0.73457 0.69101 0.0
C1329 C 0.86758 0.70149 0.69493 0.0
C1330 C 0.9112 0.73476 0.68292 0.0
C1331 C 0.87169 0.70234 0.67849 0.0
C1332 C 0.8304 0.66879 0.68244 0.0
C1333 C 0.82848 0.6682 0.69055 0.0
C1334 C 0.85301 0.66384 0.65727 0.0
C1335 C 0.88012 0.70745 0.65341 0.0
C1336 C 0.85001 0.66209 0.66537 0.0
C1337 C 0.87359 0.70399 0.66983 0.0
C1338 C 0.89953 0.74769 0.66592 0.0
C1339 C 0.90303 0.74935 0.65784 0.0
H1340 H 0.45643 0.2445 0.65553 0.0
H1341 H 0.3049 0.19152 0.65568 0.0
H1342 H 0.4562 0.23955 0.66952 0.0
H1343 H 0.30428 0.18477 0.66978 0.0
H1344 H 0.33003 0.2228 0.69568 0.0
H1345 H 0.32829 0.22895 0.68162 0.0
H1346 H 0.43261 0.18387 0.67958 0.0
H1347 H 0.43565 0.17953 0.69357 0.0
C1348 C 0.42284 0.23124 0.65855 0.0
C1349 C 0.3806 0.21817 0.65446 0.0
C1350 C 0.42268 0.22815 0.6666 0.0
C1351 C 0.38016 0.21131 0.67082 0.0
C1352 C 0.33781 0.19839 0.66675 0.0
C1353 C 0.33807 0.20198 0.65865 0.0
C1354 C 0.35272 0.2144 0.69223 0.0
C1355 C 0.3833 0.20109 0.69577 0.0
C1356 C 0.35146 0.21757 0.68415 0.0
C1357 C 0.38045 0.20713 0.67943 0.0
C1358 C 0.41053 0.19325 0.68301 0.0
C1359 C 0.41215 0.19056 0.69106 0.0
H1360 H 0.8588 0.25621 0.65526 0.0
H1361 H 0.90742 0.15423 0.65535 0.0
H1362 H 0.86384 0.26096 0.66922 0.0
H1363 H 0.91418 0.16036 0.66946 0.0
H1364 H 0.86965 0.14556 0.69508 0.0
H1365 H 0.86657 0.13977 0.681 0.0
H1366 H 0.91941 0.29093 0.67944 0.0
H1367 H 0.92079 0.29637 0.69348 0.0
C1368 C 0.87122 0.23518 0.65825 0.0
C1369 C 0.88287 0.20489 0.65417 0.0
C1370 C 0.87435 0.23815 0.66629 0.0
C1371 C 0.88975 0.21134 0.67049 0.0
C1372 C 0.90167 0.18112 0.66641 0.0
C1373 C 0.89808 0.17779 0.65833 0.0
C1374 C 0.8805 0.17754 0.69172 0.0
C1375 C 0.89513 0.22138 0.6954 0.0
C1376 C 0.87911 0.17427 0.68365 0.0
C1377 C 0.89268 0.21484 0.67907 0.0
C1378 C 0.90784 0.25876 0.68277 0.0
C1379 C 0.90875 0.26193 0.69083 0.0
H1380 H 0.45877 0.26279 0.19428 0.0
H1381 H 0.30662 0.16765 0.19495 0.0
H1382 H 0.45686 0.25819 0.18016 0.0
H1383 H 0.30425 0.16478 0.18094 0.0
H1384 H 0.32031 0.13122 0.15598 0.0
H1385 H 0.32272 0.13486 0.17005 0.0
H1386 H 0.43362 0.28252 0.16898 0.0
H1387 H 0.43259 0.27802 0.15491 0.0
C1388 C 0.42493 0.24106 0.19142 0.0
C1389 C 0.38297 0.2154 0.19575 0.0
C1390 C 0.42369 0.23869 0.18331 0.0
C1391 C 0.38033 0.21113 0.17935 0.0
C1392 C 0.33846 0.18561 0.18373 0.0
C1393 C 0.33981 0.18744 0.19181 0.0
C1394 C 0.34488 0.16457 0.15875 0.0
C1395 C 0.37624 0.2043 0.15432 0.0
C1396 C 0.34626 0.16676 0.16684 0.0
C1397 C 0.37855 0.20898 0.17071 0.0
C1398 C 0.40903 0.24907 0.16624 0.0
C1399 C 0.4081 0.24666 0.15816 0.0
H1400 H 0.83727 0.23621 0.15483 0.0
H1401 H 0.93064 0.17731 0.15564 0.0
H1402 H 0.83489 0.23708 0.16884 0.0
H1403 H 0.92652 0.17604 0.16976 0.0
H1404 H 0.94921 0.22445 0.19486 0.0
H1405 H 0.95249 0.22541 0.18077 0.0
H1406 H 0.80527 0.19041 0.1799 0.0
H1407 H 0.80286 0.19167 0.19396 0.0
C1408 C 0.8567 0.22261 0.158 0.0
C1409 C 0.88413 0.2066 0.15409 0.0
C1410 C 0.85516 0.22294 0.16607 0.0
C1411 C 0.88047 0.20663 0.1705 0.0
C1412 C 0.90724 0.18973 0.16658 0.0
C1413 C 0.90929 0.19001 0.15847 0.0
C1414 C 0.9177 0.21743 0.19165 0.0
C1415 C 0.87583 0.20817 0.19554 0.0
C1416 C 0.9194 0.21747 0.18356 0.0
C1417 C 0.87906 0.20762 0.17914 0.0
C1418 C 0.83734 0.19889 0.18306 0.0
C1419 C 0.83587 0.19952 0.19115 0.0
H1420 H 0.86701 0.76876 0.15578 0.0
H1421 H 0.90542 0.65932 0.15484 0.0
H1422 H 0.86687 0.76593 0.16985 0.0
H1423 H 0.90759 0.65796 0.16892 0.0
H1424 H 0.86027 0.63034 0.19405 0.0
H1425 H 0.85891 0.63306 0.17994 0.0
H1426 H 0.91355 0.78477 0.18093 0.0
H1427 H 0.91264 0.78151 0.19495 0.0
C1428 C 0.87637 0.74476 0.15858 0.0
C1429 C 0.88618 0.71425 0.15419 0.0
C1430 C 0.8764 0.74314 0.16668 0.0
C1431 C 0.88698 0.71149 0.17059 0.0
C1432 C 0.89815 0.68199 0.16615 0.0
C1433 C 0.89741 0.68311 0.15806 0.0
C1434 C 0.87165 0.66416 0.19124 0.0
C1435 C 0.88631 0.70559 0.19564 0.0
C1436 C 0.8713 0.66588 0.18314 0.0
C1437 C 0.8863 0.70923 0.17923 0.0
C1438 C 0.90087 0.75057 0.18368 0.0
C1439 C 0.90054 0.74871 0.19176 0.0
H1440 H 0.58758 0.95239 0.06857 0.0
H1441 H 0.51192 0.92146 0.04686 0.0
H1442 H 0.58714 0.87675 0.06771 0.0
H1443 H 0.51274 0.84668 0.04591 0.0
H1444 H 0.59745 0.76264 0.04327 0.0
H1445 H 0.58795 0.83269 0.04455 0.0
H1446 H 0.52182 0.78285 0.06688 0.0
H1447 H 0.53007 0.71219 0.06552 0.0
C1448 C 0.5704 0.92916 0.06368 0.0
C1449 C 0.54997 0.94278 0.05778 0.0
C1450 C 0.57016 0.88601 0.06318 0.0
C1451 C 0.5503 0.85629 0.05671 0.0
C1452 C 0.52862 0.86925 0.05092 0.0
C1453 C 0.52796 0.91186 0.0515 0.0
C1454 C 0.58063 0.76658 0.04842 0.0
C1455 C 0.5645 0.73216 0.05429 0.0
C1456 C 0.57504 0.80643 0.04914 0.0
C1457 C 0.55415 0.81299 0.05582 0.0
C1458 C 0.53813 0.7786 0.0617 0.0
C1459 C 0.54277 0.73824 0.0609 0.0
H1460 H 0.11132 0.68198 0.04607 0.0
H1461 H 0.17028 0.62091 0.06159 0.0
H1462 H 0.18654 0.75581 0.04585 0.0
H1463 H 0.24765 0.69418 0.06091 0.0
H1464 H 0.36244 0.85186 0.06464 0.0
H1465 H 0.28961 0.77432 0.06494 0.0
H1466 H 0.2632 0.79241 0.04099 0.0
H1467 H 0.33426 0.87075 0.0409 0.0
C1468 C 0.14081 0.68411 0.04934 0.0
C1469 C 0.13515 0.64533 0.05374 0.0
C1470 C 0.18431 0.72643 0.04914 0.0
C1471 C 0.22379 0.7311 0.05326 0.0
C1472 C 0.21811 0.69212 0.05768 0.0
C1473 C 0.17404 0.64976 0.05797 0.0
C1474 C 0.34088 0.83903 0.05946 0.0
C1475 C 0.35348 0.8674 0.05278 0.0
C1476 C 0.29933 0.79441 0.0596 0.0
C1477 C 0.26995 0.77699 0.05301 0.0
C1478 C 0.28398 0.80497 0.04625 0.0
C1479 C 0.32493 0.84983 0.04616 0.0
H1480 H 0.26202 0.59574 0.05591 0.0
H1481 H 0.19827 0.45125 0.04765 0.0
H1482 H 0.34029 0.60162 0.05599 0.0
H1483 H 0.27537 0.456 0.04804 0.0
H1484 H 0.42097 0.48519 0.04252 0.0
H1485 H 0.34837 0.48912 0.0417 0.0
H1486 H 0.38879 0.57598 0.06237 0.0
H1487 H 0.46315 0.57361 0.06293 0.0
C1488 C 0.26482 0.56524 0.05412 0.0
C1489 C 0.22421 0.52314 0.05172 0.0
C1490 C 0.30958 0.56844 0.05422 0.0
C1491 C 0.31454 0.52943 0.05197 0.0
C1492 C 0.27348 0.48727 0.04963 0.0
C1493 C 0.22904 0.48432 0.04945 0.0
C1494 C 0.41453 0.5055 0.04685 0.0
C1495 C 0.44742 0.52879 0.05282 0.0
C1496 C 0.37264 0.50745 0.04643 0.0
C1497 C 0.36187 0.53197 0.05207 0.0
C1498 C 0.39581 0.55689 0.0579 0.0
C1499 C 0.43839 0.55553 0.05825 0.0
H1500 H 0.91775 0.48818 0.46747 0.0
H1501 H 0.97441 0.61034 0.45239 0.0
H1502 H 0.84158 0.48595 0.46784 0.0
H1503 H 0.90072 0.61153 0.45336 0.0
H1504 H 0.75492 0.58856 0.45109 0.0
H1505 H 0.82393 0.57878 0.44968 0.0
H1506 H 0.80115 0.52097 0.47288 0.0
H1507 H 0.72935 0.5271 0.47392 0.0
C1508 C 0.91375 0.51433 0.46419 0.0
C1509 C 0.95166 0.54883 0.45978 0.0
C1510 C 0.87032 0.51369 0.46451 0.0
C1511 C 0.8644 0.5485 0.46062 0.0
C1512 C 0.90287 0.58317 0.45626 0.0
C1513 C 0.94559 0.58289 0.45576 0.0
C1514 C 0.76466 0.57347 0.45585 0.0
C1515 C 0.73731 0.55892 0.46263 0.0
C1516 C 0.80456 0.56821 0.45509 0.0
C1517 C 0.81915 0.54985 0.46121 0.0
C1518 C 0.79102 0.53466 0.46798 0.0
C1519 C 0.75008 0.53854 0.46863 0.0
H1520 H 0.6004 0.25282 0.46041 0.0
H1521 H 0.45234 0.18785 0.46685 0.0
H1522 H 0.6069 0.3314 0.46062 0.0
H1523 H 0.45798 0.26528 0.46678 0.0
H1524 H 0.48751 0.40825 0.47405 0.0
H1525 H 0.49045 0.33514 0.47419 0.0
H1526 H 0.58359 0.38309 0.45425 0.0
H1527 H 0.58212 0.45806 0.45437 0.0
C1528 C 0.56925 0.25539 0.46184 0.0
C1529 C 0.52596 0.21437 0.46368 0.0
C1530 C 0.57285 0.30032 0.46191 0.0
C1531 C 0.53313 0.30496 0.4638 0.0
C1532 C 0.48972 0.26348 0.4655 0.0
C1533 C 0.4863 0.2189 0.46549 0.0
C1534 C 0.50892 0.40339 0.46972 0.0
C1535 C 0.53404 0.43848 0.46413 0.0
C1536 C 0.51033 0.36121 0.46976 0.0
C1537 C 0.53627 0.35244 0.46412 0.0
C1538 C 0.5632 0.38855 0.45869 0.0
C1539 C 0.56227 0.43139 0.45872 0.0
H1540 H 0.83872 0.3788 0.45868 0.0
H1541 H 0.90026 0.29562 0.46667 0.0
H1542 H 0.75972 0.30745 0.45864 0.0
H1543 H 0.8222 0.22417 0.46633 0.0
H1544 H 0.67599 0.1135 0.47308 0.0
H1545 H 0.75047 0.18847 0.47325 0.0
H1546 H 0.70834 0.23232 0.45252 0.0
H1547 H 0.63211 0.15709 0.45259 0.0
C1548 C 0.83532 0.3451 0.46036 0.0
C1549 C 0.87546 0.34266 0.46273 0.0
C1550 C 0.79012 0.30418 0.4603 0.0
C1551 C 0.78425 0.25993 0.46256 0.0
C1552 C 0.82492 0.25768 0.46475 0.0
C1553 C 0.86985 0.29858 0.46489 0.0
C1554 C 0.68244 0.13934 0.46859 0.0
C1555 C 0.64855 0.12941 0.46279 0.0
C1556 C 0.72542 0.18224 0.46864 0.0
C1557 C 0.7362 0.21621 0.46279 0.0
C1558 C 0.70132 0.20707 0.45713 0.0
C1559 C 0.6577 0.16404 0.45715 0.0
H1560 H 0.60526 0.3899 0.96119 0.0
H1561 H 0.45723 0.30861 0.96772 0.0
H1562 H 0.61033 0.31715 0.96119 0.0
H1563 H 0.46137 0.23594 0.96741 0.0
H1564 H 0.48737 0.11797 0.97335 0.0
H1565 H 0.49131 0.19447 0.97416 0.0
H1566 H 0.58672 0.2442 0.95449 0.0
H1567 H 0.58415 0.16744 0.95395 0.0
C1568 C 0.5738 0.3564 0.96261 0.0
C1569 C 0.53092 0.35484 0.96451 0.0
C1570 C 0.57658 0.31465 0.96255 0.0
C1571 C 0.53638 0.27043 0.96435 0.0
C1572 C 0.49345 0.26926 0.96618 0.0
C1573 C 0.49088 0.31093 0.96631 0.0
C1574 C 0.50952 0.14541 0.96924 0.0
C1575 C 0.53516 0.13673 0.96355 0.0
C1576 C 0.51151 0.18925 0.96965 0.0
C1577 C 0.53851 0.22548 0.96429 0.0
C1578 C 0.56568 0.21733 0.95875 0.0
C1579 C 0.5642 0.17338 0.95841 0.0
H1580 H 0.92545 0.46799 0.95595 0.0
H1581 H 0.98538 0.40216 0.9702 0.0
H1582 H 0.8471 0.39642 0.95699 0.0
H1583 H 0.909 0.32983 0.97073 0.0
H1584 H 0.76183 0.21572 0.97612 0.0
H1585 H 0.83394 0.29337 0.97606 0.0
H1586 H 0.80171 0.31771 0.95279 0.0
H1587 H 0.728 0.24118 0.95313 0.0
C1588 C 0.92175 0.43847 0.95936 0.0
C1589 C 0.96127 0.44111 0.96313 0.0
C1590 C 0.87703 0.39703 0.95986 0.0
C1591 C 0.87124 0.35708 0.96401 0.0
C1592 C 0.9113 0.35997 0.96767 0.0
C1593 C 0.95547 0.40146 0.96729 0.0
C1594 C 0.7701 0.23798 0.97103 0.0
C1595 C 0.73968 0.22245 0.96461 0.0
C1596 C 0.81165 0.28241 0.97095 0.0
C1597 C 0.82441 0.3119 0.96437 0.0
C1598 C 0.79309 0.29653 0.958 0.0
C1599 C 0.75097 0.25245 0.95816 0.0
H1600 H 0.63169 0.50543 0.955 0.0
H1601 H 0.69318 0.62512 0.97062 0.0
H1602 H 0.70326 0.49876 0.9561 0.0
H1603 H 0.76577 0.62156 0.97122 0.0
H1604 H 0.88034 0.58807 0.97624 0.0
H1605 H 0.80264 0.58258 0.97609 0.0
H1606 H 0.78251 0.53343 0.95236 0.0
H1607 H 0.85883 0.53608 0.95276 0.0
C1608 C 0.66024 0.52989 0.95873 0.0
C1609 C 0.65632 0.56497 0.96287 0.0
C1610 C 0.70176 0.52677 0.95926 0.0
C1611 C 0.74066 0.55943 0.9638 0.0
C1612 C 0.73649 0.59484 0.96784 0.0
C1613 C 0.69488 0.5973 0.96742 0.0
C1614 C 0.85898 0.57574 0.97103 0.0
C1615 C 0.87561 0.56279 0.9645 0.0
C1616 C 0.81451 0.5729 0.9709 0.0
C1617 C 0.78609 0.55813 0.96417 0.0
C1618 C 0.80271 0.54434 0.95768 0.0
C1619 C 0.84675 0.54624 0.95788 0.0
H1620 H 0.37706 0.56537 0.56459 0.0
H1621 H 0.34606 0.50779 0.54145 0.0
H1622 H 0.30295 0.56759 0.56475 0.0
H1623 H 0.27368 0.51271 0.54134 0.0
H1624 H 0.12163 0.47056 0.54645 0.0
H1625 H 0.19786 0.47413 0.54628 0.0
H1626 H 0.25744 0.6006 0.56055 0.0
H1627 H 0.17911 0.5941 0.56123 0.0
C1628 C 0.35464 0.5539 0.55949 0.0
C1629 C 0.36692 0.5359 0.55304 0.0
C1630 C 0.31225 0.55549 0.55955 0.0
C1631 C 0.28159 0.53985 0.55309 0.0
C1632 C 0.29532 0.52375 0.54652 0.0
C1633 C 0.33712 0.52127 0.54654 0.0
C1634 C 0.15099 0.49921 0.54956 0.0
C1635 C 0.14453 0.53268 0.55373 0.0
C1636 C 0.19514 0.50165 0.54939 0.0
C1637 C 0.2346 0.53816 0.55329 0.0
C1638 C 0.22808 0.5718 0.55749 0.0
C1639 C 0.18336 0.56876 0.55776 0.0
H1640 H 0.61351 0.67726 0.54372 0.0
H1641 H 0.52761 0.63904 0.56441 0.0
H1642 H 0.60868 0.74912 0.54249 0.0
H1643 H 0.52485 0.71298 0.56349 0.0
H1644 H 0.50525 0.83881 0.55693 0.0
H1645 H 0.499 0.76057 0.55721 0.0
H1646 H 0.64243 0.82322 0.54822 0.0
H1647 H 0.64725 0.90022 0.54758 0.0
C1648 C 0.59361 0.68448 0.54803 0.0
C1649 C 0.57136 0.65302 0.55421 0.0
C1650 C 0.59117 0.72597 0.54737 0.0
C1651 C 0.56744 0.73786 0.55299 0.0
C1652 C 0.54336 0.70514 0.55902 0.0
C1653 C 0.54498 0.66283 0.55958 0.0
C1654 C 0.53518 0.8355 0.55496 0.0
C1655 C 0.57665 0.87541 0.55219 0.0
C1656 C 0.53178 0.79075 0.55517 0.0
C1657 C 0.57005 0.78513 0.5527 0.0
C1658 C 0.61163 0.82553 0.54998 0.0
C1659 C 0.61468 0.86994 0.54966 0.0
H1660 H 0.47878 0.9314 0.54793 0.0
H1661 H 0.41269 0.96991 0.56605 0.0
H1662 H 0.40567 0.85384 0.54661 0.0
H1663 H 0.34023 0.892 0.56488 0.0
H1664 H 0.24337 0.72465 0.5648 0.0
H1665 H 0.32071 0.7972 0.56624 0.0
H1666 H 0.31224 0.83621 0.54269 0.0
H1667 H 0.23376 0.76413 0.5413 0.0
C1668 C 0.44915 0.92266 0.55178 0.0
C1669 C 0.45142 0.95612 0.55718 0.0
C1670 C 0.40728 0.87867 0.55096 0.0
C1671 C 0.36754 0.86722 0.55564 0.0
C1672 C 0.37054 0.90004 0.56123 0.0
C1673 C 0.41189 0.94439 0.56191 0.0
C1674 C 0.2581 0.74858 0.55991 0.0
C1675 C 0.23259 0.73898 0.55294 0.0
C1676 C 0.30225 0.78999 0.56075 0.0
C1677 C 0.32228 0.82197 0.55457 0.0
C1678 C 0.29752 0.81177 0.54751 0.0
C1679 C 0.25271 0.77081 0.54673 0.0
H1680 H 0.3092 0.11356 0.38569 0.0
H1681 H 0.15645 0.02427 0.38708 0.0
H1682 H 0.30139 0.18414 0.38726 0.0
H1683 H 0.14857 0.09519 0.38856 0.0
H1684 H 0.16578 0.24453 0.38132 0.0
H1685 H 0.16676 0.16981 0.3803 0.0
H1686 H 0.27293 0.21722 0.39832 0.0
H1687 H 0.27125 0.29133 0.39947 0.0
C1688 C 0.27396 0.10911 0.38628 0.0
C1689 C 0.23344 0.06361 0.38628 0.0
C1690 C 0.26951 0.14942 0.38723 0.0
C1691 C 0.2244 0.14501 0.38808 0.0
C1692 C 0.18373 0.09951 0.3879 0.0
C1693 C 0.18824 0.05906 0.38707 0.0
C1694 C 0.18854 0.23851 0.38518 0.0
C1695 C 0.21839 0.27366 0.39049 0.0
C1696 C 0.18916 0.19585 0.38457 0.0
C1697 C 0.22024 0.18804 0.38918 0.0
C1698 C 0.24906 0.22264 0.39463 0.0
C1699 C 0.24791 0.2649 0.39532 0.0
H1700 H 0.96809 0.2262 0.38355 0.0
H1701 H 0.05148 0.16297 0.39061 0.0
H1702 H 0.89621 0.14841 0.38392 0.0
H1703 H 0.97973 0.08437 0.39069 0.0
H1704 H 0.83061 0.95671 0.397 0.0
H1705 H 0.9056 0.03306 0.39705 0.0
H1706 H 0.85861 0.07708 0.3769 0.0
H1707 H 0.78389 1.00228 0.37708 0.0
C1708 C 0.971 0.19549 0.38513 0.0
C1709 C 1.01528 0.20056 0.38702 0.0
C1710 C 0.92984 0.15073 0.3853 0.0
C1711 C 0.93201 0.10971 0.38724 0.0
C1712 C 0.97648 0.11503 0.38923 0.0
C1713 C 1.01766 0.16003 0.38914 0.0
C1714 C 0.83677 0.98273 0.39257 0.0
C1715 C 0.80138 0.97388 0.38709 0.0
C1716 C 0.87969 0.02645 0.39258 0.0
C1717 C 0.888 0.06183 0.38706 0.0
C1718 C 0.85311 0.05158 0.38139 0.0
C1719 C 0.81033 1.00843 0.38145 0.0
H1720 H 0.92621 0.92424 0.39037 0.0
H1721 H 0.86219 0.77938 0.38227 0.0
H1722 H 1.00481 0.93069 0.39011 0.0
H1723 H 0.9396 0.78481 0.3823 0.0
H1724 H 0.0843 0.81604 0.37562 0.0
H1725 H 1.0112 0.81928 0.37539 0.0
H1726 H 0.05491 0.90502 0.39618 0.0
H1727 H 0.12968 0.90322 0.39617 0.0
C1728 C 0.929 0.89377 0.38857 0.0
C1729 C 0.88824 0.85142 0.38629 0.0
C1730 C 0.97394 0.89732 0.38846 0.0
C1731 C 0.97887 0.85845 0.38611 0.0
C1732 C 0.93765 0.81596 0.38395 0.0
C1733 C 0.89306 0.81264 0.38398 0.0
C1734 C 0.07848 0.83593 0.38011 0.0
C1735 C 0.11238 0.85903 0.38595 0.0
C1736 C 0.03633 0.83751 0.38002 0.0
C1737 C 0.02638 0.86149 0.38586 0.0
C1738 C 0.0613 0.88629 0.39157 0.0
C1739 C 0.10407 0.88522 0.39159 0.0
H1740 H 0.37316 0.82215 0.79427 0.0
H1741 H 0.45481 0.97078 0.80034 0.0
H1742 H 0.44606 0.81718 0.79428 0.0
H1743 H 0.52755 0.96665 0.80006 0.0
H1744 H 0.64489 0.94005 0.80649 0.0
H1745 H 0.5686 0.93683 0.80707 0.0
H1746 H 0.51936 0.84064 0.78753 0.0
H1747 H 0.59597 0.84265 0.78718 0.0
C1748 C 0.40676 0.85376 0.79559 0.0
C1749 C 0.40837 0.89678 0.79736 0.0
C1750 C 0.44858 0.85104 0.79554 0.0
C1751 C 0.4929 0.8914 0.79722 0.0
C1752 C 0.49415 0.93448 0.79892 0.0
C1753 C 0.45243 0.93702 0.79903 0.0
C1754 C 0.61765 0.91794 0.80234 0.0
C1755 C 0.62642 0.89187 0.79675 0.0
C1756 C 0.57392 0.91635 0.80263 0.0
C1757 C 0.53786 0.88923 0.79725 0.0
C1758 C 0.54611 0.86176 0.7918 0.0
C1759 C 0.58998 0.86293 0.79157 0.0
H1760 H 0.1571 0.74495 0.80768 0.0
H1761 H 0.24592 0.78802 0.78729 0.0
H1762 H 0.15979 0.67162 0.80824 0.0
H1763 H 0.24744 0.71327 0.78766 0.0
H1764 H 0.26737 0.58671 0.79425 0.0
H1765 H 0.27335 0.66493 0.79431 0.0
H1766 H 0.12594 0.59918 0.80138 0.0
H1767 H 0.1208 0.52184 0.80157 0.0
C1768 C 0.17728 0.73861 0.80331 0.0
C1769 C 0.20102 0.77192 0.79741 0.0
C1770 C 0.17855 0.69637 0.80359 0.0
C1771 C 0.20305 0.6859 0.79791 0.0
C1772 C 0.22837 0.72017 0.79215 0.0
C1773 C 0.22748 0.76293 0.79192 0.0
C1774 C 0.23644 0.58926 0.79586 0.0
C1775 C 0.19369 0.54836 0.79795 0.0
C1776 C 0.23974 0.63398 0.79584 0.0
C1777 C 0.20024 0.6386 0.79789 0.0
C1778 C 0.15745 0.59733 0.79994 0.0
C1779 C 0.15431 0.55285 0.8 0.0
H1780 H 0.52168 0.69608 0.78552 0.0
H1781 H 0.54345 0.66594 0.80898 0.0
H1782 H 0.44475 0.62268 0.7852 0.0
H1783 H 0.46538 0.59453 0.80895 0.0
H1784 H 0.35658 0.44291 0.80387 0.0
H1785 H 0.42914 0.51889 0.80415 0.0
H1786 H 0.36537 0.57741 0.78898 0.0
H1787 H 0.2936 0.49896 0.78816 0.0
C1788 C 0.50949 0.67401 0.79065 0.0
C1789 C 0.53861 0.68614 0.79724 0.0
C1790 C 0.46518 0.63207 0.79051 0.0
C1791 C 0.44866 0.6019 0.79701 0.0
C1792 C 0.47723 0.61573 0.80372 0.0
C1793 C 0.52192 0.65693 0.80379 0.0
C1794 C 0.35792 0.47195 0.80058 0.0
C1795 C 0.31893 0.46515 0.79611 0.0
C1796 C 0.39956 0.516 0.80083 0.0
C1797 C 0.40332 0.5551 0.79672 0.0
C1798 C 0.36411 0.54829 0.79222 0.0
C1799 C 0.32251 0.50356 0.79185 0.0
H1800 H 0.26057 0.50172 0.28806 0.0
H1801 H 0.14263 0.44745 0.30405 0.0
H1802 H 0.26746 0.5803 0.28869 0.0
H1803 H 0.14668 0.52379 0.30424 0.0
H1804 H 0.1824 0.67274 0.30869 0.0
H1805 H 0.18816 0.6008 0.3088 0.0
H1806 H 0.23111 0.62375 0.28474 0.0
H1807 H 0.22801 0.69731 0.28485 0.0
C1808 C 0.23656 0.50675 0.29177 0.0
C1809 C 0.20183 0.46877 0.29614 0.0
C1810 C 0.23985 0.55154 0.29204 0.0
C1811 C 0.20788 0.5589 0.29658 0.0
C1812 C 0.17288 0.52034 0.30085 0.0
C1813 C 0.17015 0.47615 0.30067 0.0
C1814 C 0.1934 0.66247 0.30346 0.0
C1815 C 0.20438 0.69027 0.29675 0.0
C1816 C 0.19641 0.62101 0.30348 0.0
C1817 C 0.20944 0.60571 0.29674 0.0
C1818 C 0.22147 0.63439 0.29007 0.0
C1819 C 0.21931 0.6764 0.2901 0.0
H1820 H 0.45721 0.5255 0.30126 0.0
H1821 H 0.3755 0.59094 0.29438 0.0
H1822 H 0.52961 0.60267 0.30105 0.0
H1823 H 0.44801 0.66911 0.29445 0.0
H1824 H 0.59898 0.79204 0.2873 0.0
H1825 H 0.52202 0.71789 0.28777 0.0
H1826 H 0.56886 0.67439 0.308 0.0
H1827 H 0.64559 0.74697 0.30729 0.0
C1828 C 0.45476 0.55661 0.29979 0.0
C1829 C 0.41085 0.55235 0.29787 0.0
C1830 C 0.49622 0.60101 0.29971 0.0
C1831 C 0.49476 0.64243 0.29781 0.0
C1832 C 0.4506 0.63803 0.29588 0.0
C1833 C 0.40904 0.59336 0.29589 0.0
C1834 C 0.59232 0.76668 0.29187 0.0
C1835 C 0.6282 0.77479 0.2972 0.0
C1836 C 0.54829 0.72427 0.29216 0.0
C1837 C 0.53943 0.6896 0.29784 0.0
C1838 C 0.57478 0.69941 0.3034 0.0
C1839 C 0.6187 0.74121 0.30304 0.0
H1840 H 0.2979 0.83364 0.28932 0.0
H1841 H 0.36727 0.96717 0.30158 0.0
H1842 H 0.36926 0.82691 0.2907 0.0
H1843 H 0.43944 0.96294 0.30242 0.0
H1844 H 0.55326 0.93123 0.309 0.0
H1845 H 0.47656 0.92776 0.30856 0.0
H1846 H 0.44698 0.85546 0.28646 0.0
H1847 H 0.52251 0.85647 0.28723 0.0
C1848 C 0.32821 0.86131 0.29235 0.0
C1849 C 0.32647 0.90027 0.29549 0.0
C1850 C 0.36957 0.85799 0.29304 0.0
C1851 C 0.41048 0.89417 0.29676 0.0
C1852 C 0.40861 0.93356 0.29974 0.0
C1853 C 0.36718 0.93632 0.29916 0.0
C1854 C 0.53004 0.91422 0.3041 0.0
C1855 C 0.54386 0.89437 0.29813 0.0
C1856 C 0.48614 0.91255 0.30378 0.0
C1857 C 0.45539 0.89196 0.2974 0.0
C1858 C 0.46908 0.87115 0.29152 0.0
C1859 C 0.51263 0.87201 0.29192 0.0
H1860 H 0.03888 0.89562 0.89671 0.0
H1861 H 1.00397 0.83339 0.87389 0.0
H1862 H 0.96498 0.89802 0.89705 0.0
H1863 H 0.93161 0.83849 0.87394 0.0
H1864 H 0.78043 0.79723 0.87983 0.0
H1865 H 0.85671 0.80096 0.87929 0.0
H1866 H 0.91938 0.93063 0.8928 0.0
H1867 H 0.84121 0.92415 0.89385 0.0
C1868 C 1.01562 0.88317 0.89171 0.0
C1869 C 0.02672 0.86382 0.88531 0.0
C1870 C 0.97337 0.88488 0.89187 0.0
C1871 C 0.94168 0.86805 0.88555 0.0
C1872 C 0.95418 0.85055 0.87902 0.0
C1873 C 0.99589 0.84793 0.87894 0.0
C1874 C 0.81049 0.8266 0.88269 0.0
C1875 C 0.80496 0.86088 0.88679 0.0
C1876 C 0.85461 0.82912 0.8823 0.0
C1877 C 0.89487 0.8665 0.8859 0.0
C1878 C 0.88932 0.90109 0.88998 0.0
C1879 C 0.84468 0.89799 0.89048 0.0
H1880 H 0.30705 0.2321 0.8815 0.0
H1881 H 0.16099 0.16665 0.88911 0.0
H1882 H 0.30288 0.15532 0.88186 0.0
H1883 H 0.15571 0.08876 0.88913 0.0
H1884 H 0.18363 0.96644 0.89628 0.0
H1885 H 0.18051 0.04029 0.89563 0.0
H1886 H 0.27162 0.08294 0.87543 0.0
H1887 H 0.27638 1.0109 0.87638 0.0
C1888 C 0.27378 0.20102 0.88315 0.0
C1889 C 0.23435 0.20526 0.88525 0.0
C1890 C 0.27116 0.15678 0.8833 0.0
C1891 C 0.22873 0.11537 0.88545 0.0
C1892 C 0.1891 0.11974 0.88752 0.0
C1893 C 0.19197 0.16429 0.88746 0.0
C1894 C 0.20251 0.9916 0.89168 0.0
C1895 C 0.23073 0.98343 0.88644 0.0
C1896 C 0.2007 0.03387 0.89128 0.0
C1897 C 0.2266 0.0683 0.88556 0.0
C1898 C 0.25251 0.0583 0.88008 0.0
C1899 C 0.25495 0.01673 0.88057 0.0
H1900 H 0.90796 0.05894 0.89688 0.0
H1901 H 0.88585 0.08899 0.87343 0.0
H1902 H 0.98388 0.133 0.89729 0.0
H1903 H 0.96323 0.16167 0.87358 0.0
H1904 H 0.073 0.31396 0.87901 0.0
H1905 H 1.00038 0.23768 0.87842 0.0
H1906 H 0.06287 0.17784 0.89358 0.0
H1907 H 0.1343 0.25613 0.89469 0.0
C1908 C 0.91984 0.08117 0.89176 0.0
C1909 C 0.89091 0.06856 0.88514 0.0
C1910 C 0.96367 0.12356 0.89196 0.0
C1911 C 0.98007 0.15399 0.88549 0.0
C1912 C 0.95155 0.14011 0.87877 0.0
C1913 C 0.90727 0.0982 0.87863 0.0
C1914 C 0.07126 0.28451 0.88223 0.0
C1915 C 0.10979 0.29085 0.88679 0.0
C1916 C 0.02963 0.24035 0.88181 0.0
C1917 C 0.02545 0.20085 0.88585 0.0
C1918 C 0.06432 0.20726 0.89041 0.0
C1919 C 0.10581 0.25194 0.89094 0.0
H1920 H 0.96442 0.44477 0.71157 0.0
H1921 H 0.83762 0.37169 0.72559 0.0
H1922 H 0.95818 0.51661 0.71192 0.0
H1923 H 0.83133 0.44391 0.72595 0.0
H1924 H 0.82187 0.57927 0.71785 0.0
H1925 H 0.81929 0.50222 0.71713 0.0
H1926 H 0.96874 0.57208 0.72287 0.0
H1927 H 0.97112 0.64785 0.72367 0.0
C1928 C 0.93505 0.44402 0.71469 0.0
C1929 C 0.90181 0.4029 0.71862 0.0
C1930 C 0.9315 0.48514 0.7149 0.0
C1931 C 0.89447 0.48597 0.71902 0.0
C1932 C 0.8601 0.44423 0.72271 0.0
C1933 C 0.8639 0.40309 0.72254 0.0
C1934 C 0.85379 0.57777 0.71907 0.0
C1935 C 0.89662 0.61944 0.72084 0.0
C1936 C 0.85241 0.53385 0.71863 0.0
C1937 C 0.89402 0.53131 0.71984 0.0
C1938 C 0.93634 0.57299 0.72176 0.0
C1939 C 0.93758 0.61638 0.72227 0.0
H1940 H 0.46646 0.33255 0.73571 0.0
H1941 H 0.50438 0.28785 0.71462 0.0
H1942 H 0.54044 0.40939 0.73495 0.0
H1943 H 0.5777 0.36488 0.7138 0.0
H1944 H 0.65637 0.53036 0.70994 0.0
H1945 H 0.58872 0.44974 0.71151 0.0
H1946 H 0.63365 0.44562 0.73487 0.0
H1947 H 0.70198 0.52603 0.73323 0.0
C1948 C 0.49096 0.3389 0.73099 0.0
C1949 C 0.47959 0.30445 0.7252 0.0
C1950 C 0.53321 0.38278 0.73056 0.0
C1951 C 0.56439 0.39316 0.72427 0.0
C1952 C 0.55395 0.35792 0.71866 0.0
C1953 C 0.51217 0.3138 0.71916 0.0
C1954 C 0.65181 0.51217 0.71539 0.0
C1955 C 0.68424 0.53431 0.72147 0.0
C1956 C 0.61335 0.46601 0.71628 0.0
C1957 C 0.60616 0.44148 0.7233 0.0
C1958 C 0.63839 0.46383 0.7294 0.0
C1959 C 0.6774 0.50969 0.72846 0.0
H1960 H 0.56298 0.20535 0.73325 0.0
H1961 H 0.55884 0.16152 0.70952 0.0
H1962 H 0.64161 0.21305 0.73485 0.0
H1963 H 0.63789 0.17024 0.71107 0.0
H1964 H 0.80034 0.24666 0.71474 0.0
H1965 H 0.72342 0.24281 0.71395 0.0
H1966 H 0.67558 0.15332 0.73423 0.0
H1967 H 0.75268 0.15637 0.73495 0.0
C1968 C 0.579 0.19754 0.72838 0.0
C1969 C 0.55497 0.18284 0.72126 0.0
C1970 C 0.62381 0.20177 0.7293 0.0
C1971 C 0.64575 0.19235 0.72308 0.0
C1972 C 0.62183 0.17803 0.71595 0.0
C1973 C 0.57664 0.17289 0.71507 0.0
C1974 C 0.77366 0.22658 0.71909 0.0
C1975 C 0.78237 0.20158 0.72489 0.0
C1976 C 0.72957 0.22417 0.7186 0.0
C1977 C 0.69351 0.19741 0.72398 0.0
C1978 C 0.70288 0.17422 0.73001 0.0
C1979 C 0.74687 0.17595 0.73042 0.0
H1980 H 0.31982 0.29015 0.1366 0.0
H1981 H 0.25947 0.16268 0.12272 0.0
H1982 H 0.24319 0.2857 0.1372 0.0
H1983 H 0.18106 0.15578 0.12377 0.0
H1984 H 0.06145 0.19095 0.11981 0.0
H1985 H 0.1356 0.18903 0.11945 0.0
H1986 H 0.16798 0.24671 0.14267 0.0
H1987 H 0.09511 0.251 0.14279 0.0
C1988 C 0.28981 0.26057 0.13377 0.0
C1989 C 0.29556 0.22631 0.12971 0.0
C1990 C 0.24552 0.25767 0.13419 0.0
C1991 C 0.20533 0.22 0.13063 0.0
C1992 C 0.21109 0.18549 0.12656 0.0
C1993 C 0.25587 0.18888 0.12605 0.0
C1994 C 0.0845 0.20308 0.12484 0.0
C1995 C 0.07291 0.2216 0.1313 0.0
C1996 C 0.12689 0.20164 0.12466 0.0
C1997 C 0.15835 0.21808 0.131 0.0
C1998 C 0.14549 0.23488 0.13759 0.0
C1999 C 0.10351 0.23705 0.1377 0.0
H2000 H 0.79918 0.05987 0.13629 0.0
H2001 H 0.92745 0.12679 0.12257 0.0
H2002 H 0.80281 0.98725 0.13678 0.0
H2003 H 0.93352 0.0549 0.12352 0.0
H2004 H 0.89794 0.90026 0.11939 0.0
H2005 H 0.9 0.97636 0.11908 0.0
H2006 H 0.84102 0.95036 0.14222 0.0
H2007 H 0.8366 0.87323 0.14228 0.0
C2008 C 0.82875 0.0593 0.13348 0.0
C2009 C 0.86348 0.09937 0.12948 0.0
C2010 C 0.83118 0.01766 0.13383 0.0
C2011 C 0.86882 0.01498 0.13028 0.0
C2012 C 0.9038 0.05532 0.1263 0.0
C2013 C 0.9009 0.09694 0.12585 0.0
C2014 C 0.88551 0.91102 0.1244 0.0
C2015 C 0.86664 0.88074 0.13082 0.0
C2016 C 0.88704 0.95487 0.12426 0.0
C2017 C 0.87033 0.96973 0.1306 0.0
C2018 C 0.85307 0.93984 0.13714 0.0
C2019 C 0.85082 0.8957 0.13721 0.0
H2020 H 0.21514 0.99578 0.14267 0.0
H2021 H 0.19028 0.02819 0.11954 0.0
H2022 H 0.13777 0.92319 0.14258 0.0
H2023 H 0.11395 0.95423 0.11921 0.0
H2024 H 0.96319 0.83072 0.12254 0.0
H2025 H 0.03476 0.90918 0.12353 0.0
H2026 H 0.10226 0.84785 0.13717 0.0
H2027 H 0.03008 0.77123 0.13663 0.0
C2028 C 0.19309 0.98714 0.13755 0.0
C2029 C 0.20873 0.01728 0.1311 0.0
C2030 C 0.14882 0.94534 0.13746 0.0
C2031 C 0.11955 0.93218 0.13084 0.0
C2032 C 0.13501 0.9632 0.12444 0.0
C2033 C 0.17898 1.00546 0.1246 0.0
C2034 C 0.99295 0.83453 0.1259 0.0
C2035 C 0.99065 0.7951 0.12963 0.0
C2036 C 0.03434 0.87931 0.12638 0.0
C2037 C 0.0745 0.88526 0.13049 0.0
C2038 C 0.07193 0.84533 0.13413 0.0
C2039 C 0.03056 0.80106 0.13374 0.0
H2040 H 0.93271 0.83627 0.63449 0.0
H2041 H 0.79853 0.78013 0.62253 0.0
H2042 H 0.93807 0.91443 0.63529 0.0
H2043 H 0.80298 0.85696 0.62355 0.0
H2044 H 0.79621 0.97704 0.63576 0.0
H2045 H 0.79985 0.90386 0.63528 0.0
H2046 H 0.94197 0.98136 0.62582 0.0
H2047 H 0.93821 0.05506 0.62626 0.0
C2048 C 0.90512 0.84096 0.63187 0.0
C2049 C 0.86573 0.80253 0.62831 0.0
C2050 C 0.90788 0.8854 0.6324 0.0
C2051 C 0.87075 0.89151 0.62952 0.0
C2052 C 0.83181 0.85309 0.62589 0.0
C2053 C 0.82938 0.80918 0.62529 0.0
C2054 C 0.82835 0.97856 0.63363 0.0
C2055 C 0.86675 0.02149 0.63098 0.0
C2056 C 0.8304 0.93671 0.63333 0.0
C2057 C 0.87106 0.93699 0.63045 0.0
C2058 C 0.9103 0.98029 0.62808 0.0
C2059 C 0.90803 0.02225 0.6283 0.0
H2060 H 0.31014 0.07906 0.64059 0.0
H2061 H 0.26713 0.12338 0.62008 0.0
H2062 H 0.23477 1.00483 0.64073 0.0
H2063 H 0.19157 0.04766 0.62001 0.0
H2064 H 0.04441 0.91947 0.62627 0.0
H2065 H 0.11642 0.99788 0.62634 0.0
H2066 H 0.19843 0.93318 0.63364 0.0
H2067 H 0.12632 0.85556 0.63383 0.0
C2068 C 0.28436 0.07278 0.6361 0.0
C2069 C 0.29448 0.10667 0.63029 0.0
C2070 C 0.24126 0.03002 0.63614 0.0
C2071 C 0.20735 0.01965 0.63029 0.0
C2072 C 0.21678 0.05447 0.62462 0.0
C2073 C 0.25999 0.09778 0.62464 0.0
C2074 C 0.07796 0.92224 0.62789 0.0
C2075 C 0.07991 0.88163 0.63009 0.0
C2076 C 0.11923 0.96708 0.62789 0.0
C2077 C 0.16328 0.97207 0.63006 0.0
C2078 C 0.16503 0.931 0.63211 0.0
C2079 C 0.12379 0.88638 0.63218 0.0
H2080 H 0.17115 0.15708 0.62711 0.0
H2081 H 0.23791 0.30413 0.63414 0.0
H2082 H 0.0934 0.15247 0.62705 0.0
H2083 H 0.16129 0.30043 0.6338 0.0
H2084 H 1.01701 0.27351 0.63996 0.0
H2085 H 0.0894 0.26909 0.64061 0.0
H2086 H 0.045 0.17815 0.62041 0.0
H2087 H 0.97101 0.18131 0.61999 0.0
C2088 C 0.16913 0.18841 0.62862 0.0
C2089 C 0.21043 0.23088 0.63068 0.0
C2090 C 0.12468 0.1859 0.62854 0.0
C2091 C 0.12076 0.22595 0.63048 0.0
C2092 C 0.16248 0.26847 0.63246 0.0
C2093 C 0.20661 0.27078 0.6326 0.0
C2094 C 0.02256 0.25229 0.63568 0.0
C2095 C 0.98865 0.22805 0.62989 0.0
C2096 C 0.06429 0.25 0.63602 0.0
C2097 C 0.07378 0.22408 0.63047 0.0
C2098 C 0.03892 0.19833 0.6248 0.0
C2099 C 0.99659 0.20017 0.62454 0.0
H2100 H 0.44617 0.1312 0.21282 0.0
H2101 H 0.5033 0.25048 0.22852 0.0
H2102 H 0.52232 0.13474 0.21239 0.0
H2103 H 0.58172 0.25735 0.22754 0.0
H2104 H 0.70156 0.22186 0.23071 0.0
H2105 H 0.62758 0.22414 0.23119 0.0
H2106 H 0.59791 0.17379 0.20752 0.0
H2107 H 0.6701 0.16849 0.20733 0.0
C2108 C 0.47548 0.15896 0.21607 0.0
C2109 C 0.46897 0.19128 0.22057 0.0
C2110 C 0.5196 0.16144 0.21574 0.0
C2111 C 0.55901 0.19691 0.2198 0.0
C2112 C 0.55241 0.22937 0.22434 0.0
C2113 C 0.50768 0.22617 0.22479 0.0
C2114 C 0.67907 0.21139 0.22562 0.0
C2115 C 0.69113 0.19447 0.21901 0.0
C2116 C 0.63675 0.21303 0.22586 0.0
C2117 C 0.60598 0.19864 0.21942 0.0
C2118 C 0.61958 0.18376 0.21269 0.0
C2119 C 0.66126 0.18109 0.21253 0.0
H2120 H 0.97242 0.55982 0.21384 0.0
H2121 H 0.83307 0.49933 0.22421 0.0
H2122 H 0.96696 0.48247 0.21411 0.0
H2123 H 0.82592 0.42074 0.22409 0.0
H2124 H 0.85344 0.2976 0.23025 0.0
H2125 H 0.85191 0.37221 0.22979 0.0
H2126 H 0.93164 0.40871 0.20834 0.0
H2127 H 0.93553 0.33614 0.20915 0.0
C2128 C 0.94028 0.52965 0.21608 0.0
C2129 C 0.90321 0.53544 0.219 0.0
C2130 C 0.93682 0.48505 0.21618 0.0
C2131 C 0.89569 0.44481 0.21905 0.0
C2132 C 0.85838 0.45078 0.22192 0.0
C2133 C 0.86228 0.49574 0.22195 0.0
C2134 C 0.87019 0.32163 0.22543 0.0
C2135 C 0.89517 0.31171 0.2198 0.0
C2136 C 0.86925 0.36433 0.22513 0.0
C2137 C 0.89253 0.39729 0.2191 0.0
C2138 C 0.91483 0.38535 0.21323 0.0
C2139 C 0.91669 0.34346 0.21364 0.0
H2140 H 0.52963 0.44833 0.21598 0.0
H2141 H 0.59295 0.36496 0.22306 0.0
H2142 H 0.60651 0.52106 0.21745 0.0
H2143 H 0.67029 0.438 0.22447 0.0
H2144 H 0.80688 0.58469 0.21707 0.0
H2145 H 0.73332 0.5076 0.21606 0.0
H2146 H 0.65858 0.56383 0.22902 0.0
H2147 H 0.73221 0.63997 0.23024 0.0
C2148 C 0.56011 0.44559 0.21779 0.0
C2149 C 0.55538 0.40113 0.21943 0.0
C2150 C 0.60404 0.48719 0.21867 0.0
C2151 C 0.64428 0.4852 0.22114 0.0
C2152 C 0.63989 0.44056 0.22255 0.0
C2153 C 0.5957 0.39888 0.22175 0.0
C2154 C 0.77525 0.57984 0.21998 0.0
C2155 C 0.77551 0.61785 0.22391 0.0
C2156 C 0.73298 0.53598 0.21931 0.0
C2157 C 0.69016 0.52987 0.22241 0.0
C2158 C 0.69089 0.56767 0.22649 0.0
C2159 C 0.73308 0.61112 0.22723 0.0
H2160 H 0.55926 0.3787 0.04096 0.0
H2161 H 0.5451 0.36943 0.06585 0.0
H2162 H 0.54093 0.2959 0.04042 0.0
H2163 H 0.52809 0.2868 0.06531 0.0
H2164 H 0.55976 0.16269 0.05946 0.0
H2165 H 0.57862 0.24539 0.06008 0.0
H2166 H 0.46112 0.21268 0.04478 0.0
H2167 H 0.44163 0.12921 0.04428 0.0
C2168 C 0.55275 0.35906 0.04632 0.0
C2169 C 0.55358 0.38024 0.05345 0.0
C2170 C 0.542 0.31175 0.046 0.0
C2171 C 0.53297 0.28524 0.05282 0.0
C2172 C 0.53501 0.30674 0.05998 0.0
C2173 C 0.54471 0.35381 0.06029 0.0
C2174 C 0.53831 0.17316 0.05616 0.0
C2175 C 0.4997 0.13983 0.05174 0.0
C2176 C 0.5488 0.22035 0.05658 0.0
C2177 C 0.52137 0.23516 0.05246 0.0
C2178 C 0.48289 0.20195 0.04797 0.0
C2179 C 0.47174 0.15442 0.0477 0.0
H2180 H 0.92611 0.42459 0.04522 0.0
H2181 H 0.97415 0.34587 0.05896 0.0
H2182 H 0.84461 0.35774 0.04581 0.0
H2183 H 0.89268 0.2786 0.05948 0.0
H2184 H 0.75125 0.15159 0.05086 0.0
H2185 H 0.83262 0.21889 0.05043 0.0
H2186 H 0.78022 0.31474 0.05557 0.0
H2187 H 0.69879 0.24734 0.05598 0.0
C2188 C 0.91908 0.39313 0.04843 0.0
C2189 C 0.95621 0.39047 0.0521 0.0
C2190 C 0.87249 0.35485 0.04876 0.0
C2191 C 0.86223 0.31295 0.0527 0.0
C2192 C 0.89957 0.31025 0.05633 0.0
C2193 C 0.94612 0.34872 0.05605 0.0
C2194 C 0.7572 0.18707 0.05189 0.0
C2195 C 0.71887 0.19438 0.05345 0.0
C2196 C 0.80375 0.22553 0.05169 0.0
C2197 C 0.8128 0.27208 0.05298 0.0
C2198 C 0.7743 0.27933 0.05449 0.0
C2199 C 0.72777 0.24079 0.05476 0.0
H2200 H 0.89793 0.56976 0.06645 0.0
H2201 H 0.85585 0.50179 0.0441 0.0
H2202 H 0.83326 0.58768 0.06598 0.0
H2203 H 0.79301 0.52164 0.04339 0.0
H2204 H 0.65938 0.52838 0.04643 0.0
H2205 H 0.71933 0.50524 0.048 0.0
H2206 H 0.80972 0.63756 0.05996 0.0
H2207 H 0.7475 0.65873 0.05884 0.0
C2208 C 0.87467 0.55855 0.06145 0.0
C2209 C 0.88168 0.53422 0.05533 0.0
C2210 C 0.83792 0.56926 0.06113 0.0
C2211 C 0.80777 0.55642 0.05463 0.0
C2212 C 0.8147 0.53144 0.04856 0.0
C2213 C 0.85094 0.52017 0.04894 0.0
C2214 C 0.69172 0.5521 0.04949 0.0
C2215 C 0.69857 0.59506 0.05257 0.0
C2216 C 0.72657 0.53921 0.05031 0.0
C2217 C 0.7698 0.56953 0.05408 0.0
C2218 C 0.7767 0.61285 0.05713 0.0
C2219 C 0.74133 0.62535 0.05641 0.0
H2220 H 0.38591 0.55218 0.47724 0.0
H2221 H 0.36764 0.52663 0.4526 0.0
H2222 H 0.30354 0.53501 0.47833 0.0
H2223 H 0.2855 0.51051 0.45368 0.0
H2224 H 0.16991 0.55158 0.45861 0.0
H2225 H 0.2509 0.56613 0.45812 0.0
H2226 H 0.21628 0.45817 0.47548 0.0
H2227 H 0.13369 0.44227 0.47582 0.0
C2228 C 0.3643 0.54317 0.47206 0.0
C2229 C 0.38295 0.54091 0.46482 0.0
C2230 C 0.31722 0.533 0.4727 0.0
C2231 C 0.28844 0.52135 0.4661 0.0
C2232 C 0.30722 0.51951 0.45885 0.0
C2233 C 0.35403 0.52877 0.45823 0.0
C2234 C 0.17927 0.53072 0.46232 0.0
C2235 C 0.14532 0.49529 0.46719 0.0
C2236 C 0.22568 0.53909 0.46201 0.0
C2237 C 0.23944 0.51289 0.46669 0.0
C2238 C 0.2062 0.47868 0.4718 0.0
C2239 C 0.1592 0.46964 0.47201 0.0
H2240 H 0.53114 0.65065 0.47018 0.0
H2241 H 0.66464 0.74018 0.45863 0.0
H2242 H 0.50907 0.71146 0.46866 0.0
H2243 H 0.64434 0.80293 0.45753 0.0
H2244 H 0.50778 0.84901 0.47285 0.0
H2245 H 0.52646 0.78534 0.47357 0.0
H2246 H 0.59509 0.82651 0.45117 0.0
H2247 H 0.5782 0.89181 0.45069 0.0
C2248 C 0.55576 0.68347 0.46732 0.0
C2249 C 0.59931 0.69057 0.46447 0.0
C2250 C 0.54346 0.71871 0.46653 0.0
C2251 C 0.57493 0.7624 0.46299 0.0
C2252 C 0.61881 0.76953 0.46018 0.0
C2253 C 0.63077 0.73384 0.46088 0.0
C2254 C 0.52652 0.84415 0.46806 0.0
C2255 C 0.54161 0.87524 0.46172 0.0
C2256 C 0.53709 0.80748 0.46844 0.0
C2257 C 0.56243 0.80064 0.46243 0.0
C2258 C 0.57634 0.83117 0.45598 0.0
C2259 C 0.56627 0.86828 0.45565 0.0
H2260 H 0.43168 0.9177 0.47144 0.0
H2261 H 0.35044 0.95993 0.45713 0.0
H2262 H 0.36851 0.83488 0.47054 0.0
H2263 H 0.2857 0.8776 0.4566 0.0
H2264 H 0.1968 0.72155 0.45065 0.0
H2265 H 0.26338 0.80288 0.45115 0.0
H2266 H 0.29096 0.78066 0.47482 0.0
H2267 H 0.22555 0.69858 0.47414 0.0
C2268 C 0.40027 0.90913 0.46809 0.0
C2269 C 0.3962 0.94501 0.46427 0.0
C2270 C 0.36367 0.86173 0.46766 0.0
C2271 C 0.32181 0.84924 0.46347 0.0
C2272 C 0.31767 0.88555 0.45974 0.0
C2273 C 0.35454 0.93287 0.46011 0.0
C2274 C 0.2174 0.73406 0.45593 0.0
C2275 C 0.20611 0.7039 0.46236 0.0
C2276 C 0.25533 0.78083 0.45625 0.0
C2277 C 0.28252 0.79874 0.46305 0.0
C2278 C 0.27136 0.7681 0.46945 0.0
C2279 C 0.23371 0.7211 0.46909 0.0
H2280 H 0.58131 0.73044 0.95015 0.0
H2281 H 0.51314 0.70199 0.97251 0.0
H2282 H 0.59768 0.8124 0.9508 0.0
H2283 H 0.53172 0.7842 0.97344 0.0
H2284 H 0.53636 0.92379 0.97085 0.0
H2285 H 0.51464 0.84111 0.9692 0.0
H2286 H 0.6462 0.88571 0.95677 0.0
H2287 H 0.6655 0.96847 0.9579 0.0
C2288 C 0.56979 0.74182 0.9552 0.0
C2289 C 0.54579 0.70994 0.96126 0.0
C2290 C 0.57963 0.78896 0.95563 0.0
C2291 C 0.56637 0.80544 0.96219 0.0
C2292 C 0.54179 0.77297 0.96821 0.0
C2293 C 0.53127 0.72574 0.96771 0.0
C2294 C 0.56003 0.91577 0.96763 0.0
C2295 C 0.60209 0.9524 0.96439 0.0
C2296 C 0.54808 0.8683 0.96679 0.0
C2297 C 0.57859 0.85623 0.96285 0.0
C2298 C 0.62124 0.89326 0.95971 0.0
C2299 C 0.63272 0.94081 0.96044 0.0
H2300 H 0.12941 0.73882 0.95722 0.0
H2301 H 0.17341 0.65791 0.97123 0.0
H2302 H 0.21212 0.80286 0.95622 0.0
H2303 H 0.25618 0.71954 0.96974 0.0
H2304 H 0.39253 0.85953 0.97332 0.0
H2305 H 0.31049 0.79524 0.97399 0.0
H2306 H 0.28698 0.82687 0.95063 0.0
H2307 H 0.3689 0.8932 0.95018 0.0
C2308 C 0.15693 0.73461 0.96002 0.0
C2309 C 0.14525 0.69327 0.96422 0.0
C2310 C 0.20442 0.77099 0.95937 0.0
C2311 C 0.24119 0.76651 0.96287 0.0
C2312 C 0.22906 0.72479 0.96705 0.0
C2313 C 0.18163 0.68894 0.9678 0.0
C2314 C 0.36987 0.8525 0.96831 0.0
C2315 C 0.38693 0.88124 0.9617 0.0
C2316 C 0.32278 0.81539 0.96867 0.0
C2317 C 0.29177 0.80556 0.96236 0.0
C2318 C 0.30943 0.83381 0.95566 0.0
C2319 C 0.35647 0.87151 0.95535 0.0
H2320 H 0.26531 0.6176 0.96439 0.0
H2321 H 0.174 0.47454 0.95615 0.0
H2322 H 0.33271 0.60384 0.96449 0.0
H2323 H 0.23993 0.4593 0.95673 0.0
H2324 H 0.37248 0.45083 0.95328 0.0
H2325 H 0.31038 0.47135 0.95157 0.0
H2326 H 0.36486 0.56574 0.97134 0.0
H2327 H 0.42858 0.54726 0.97265 0.0
C2328 C 0.25978 0.58319 0.96261 0.0
C2329 C 0.21465 0.54716 0.96025 0.0
C2330 C 0.29824 0.57502 0.96274 0.0
C2331 C 0.29206 0.53023 0.96068 0.0
C2332 C 0.24669 0.49453 0.95822 0.0
C2333 C 0.20862 0.50309 0.95793 0.0
C2334 C 0.37097 0.47597 0.95724 0.0
C2335 C 0.40487 0.49724 0.96313 0.0
C2336 C 0.33527 0.48766 0.9563 0.0
C2337 C 0.33201 0.52005 0.96135 0.0
C2338 C 0.36642 0.54137 0.96723 0.0
C2339 C 0.40274 0.53047 0.96805 0.0
H2340 H 0.73945 0.57559 0.56675 0.0
H2341 H 0.71285 0.51832 0.54357 0.0
H2342 H 0.82154 0.59202 0.56589 0.0
H2343 H 0.79501 0.53692 0.54249 0.0
H2344 H 0.93386 0.53911 0.54445 0.0
H2345 H 0.85098 0.51694 0.54627 0.0
H2346 H 0.89534 0.64343 0.56011 0.0
H2347 H 0.97817 0.66302 0.55878 0.0
C2348 C 0.75125 0.56647 0.56148 0.0
C2349 C 0.71989 0.54554 0.55524 0.0
C2350 C 0.7984 0.57633 0.56094 0.0
C2351 C 0.81532 0.56607 0.5541 0.0
C2352 C 0.78338 0.54457 0.54791 0.0
C2353 C 0.73619 0.53408 0.5485 0.0
C2354 C 0.92568 0.5615 0.54802 0.0
C2355 C 0.9622 0.60218 0.55159 0.0
C2356 C 0.87817 0.54934 0.54896 0.0
C2357 C 0.86606 0.57834 0.55334 0.0
C2358 C 0.903 0.61966 0.55682 0.0
C2359 C 0.95056 0.63134 0.55597 0.0
H2360 H 0.61999 0.26182 0.55729 0.0
H2361 H 0.4771 0.17032 0.54889 0.0
H2362 H 0.60563 0.32936 0.5573 0.0
H2363 H 0.46265 0.2371 0.54902 0.0
H2364 H 0.44018 0.35642 0.55896 0.0
H2365 H 0.4574 0.29116 0.55955 0.0
H2366 H 0.58693 0.37538 0.5466 0.0
H2367 H 0.56874 0.4398 0.54577 0.0
C2368 C 0.58563 0.25622 0.55547 0.0
C2369 C 0.54967 0.21104 0.55308 0.0
C2370 C 0.57745 0.29471 0.55546 0.0
C2371 C 0.53292 0.28822 0.55321 0.0
C2372 C 0.49707 0.24293 0.55087 0.0
C2373 C 0.50549 0.20484 0.55075 0.0
C2374 C 0.47221 0.36084 0.55623 0.0
C2375 C 0.50343 0.40324 0.55238 0.0
C2376 C 0.48212 0.32366 0.55658 0.0
C2377 C 0.52365 0.32846 0.55316 0.0
C2378 C 0.55508 0.37109 0.54938 0.0
C2379 C 0.54478 0.40795 0.54893 0.0
H2380 H 0.83965 0.40826 0.55148 0.0
H2381 H 0.92876 0.35415 0.55974 0.0
H2382 H 0.77103 0.32769 0.55146 0.0
H2383 H 0.86187 0.27366 0.5592 0.0
H2384 H 0.73117 0.1338 0.56263 0.0
H2385 H 0.79231 0.21649 0.56441 0.0
H2386 H 0.73492 0.25615 0.54504 0.0
H2387 H 0.67153 0.17354 0.54375 0.0
C2388 C 0.84445 0.37898 0.55327 0.0
C2389 C 0.88932 0.3873 0.55564 0.0
C2390 C 0.80526 0.33265 0.5532 0.0
C2391 C 0.81041 0.29351 0.55531 0.0
C2392 C 0.85566 0.30245 0.55771 0.0
C2393 C 0.89438 0.34875 0.55797 0.0
C2394 C 0.73167 0.16041 0.55879 0.0
C2395 C 0.69722 0.14744 0.55299 0.0
C2396 C 0.76697 0.20792 0.55976 0.0
C2397 C 0.76964 0.24352 0.55477 0.0
C2398 C 0.73413 0.23028 0.54906 0.0
C2399 C 0.69795 0.18282 0.54826 0.0
H2400 H 0.21173 0.4888 0.39403 0.0
H2401 H 0.12966 0.4647 0.37315 0.0
H2402 H 0.22744 0.57018 0.39462 0.0
H2403 H 0.14611 0.54732 0.3737 0.0
H2404 H 0.23982 0.71508 0.37399 0.0
H2405 H 0.22277 0.63281 0.373 0.0
H2406 H 0.17442 0.60819 0.39673 0.0
H2407 H 0.19071 0.6903 0.39769 0.0
C2408 C 0.19728 0.50101 0.38953 0.0
C2409 C 0.16946 0.47046 0.38353 0.0
C2410 C 0.20606 0.54755 0.38991 0.0
C2411 C 0.1878 0.56485 0.38424 0.0
C2412 C 0.16067 0.53471 0.37814 0.0
C2413 C 0.15117 0.4876 0.37783 0.0
C2414 C 0.2257 0.69208 0.379 0.0
C2415 C 0.21672 0.7089 0.38594 0.0
C2416 C 0.2156 0.64502 0.3784 0.0
C2417 C 0.19715 0.61427 0.38477 0.0
C2418 C 0.18878 0.63133 0.39174 0.0
C2419 C 0.19812 0.67817 0.3923 0.0
H2420 H 0.63483 0.67821 0.39426 0.0
H2421 H 0.5913 0.75224 0.37851 0.0
H2422 H 0.55275 0.61258 0.395 0.0
H2423 H 0.50921 0.68654 0.37916 0.0
H2424 H 0.35944 0.57893 0.38804 0.0
H2425 H 0.44092 0.64653 0.38785 0.0
H2426 H 0.49526 0.54933 0.38681 0.0
H2427 H 0.41414 0.48219 0.38713 0.0
C2428 C 0.60765 0.68028 0.39094 0.0
C2429 C 0.61928 0.72018 0.38633 0.0
C2430 C 0.56067 0.6427 0.39134 0.0
C2431 C 0.52435 0.64419 0.38712 0.0
C2432 C 0.53613 0.68447 0.38257 0.0
C2433 C 0.58313 0.72206 0.38217 0.0
C2434 C 0.38891 0.5722 0.38778 0.0
C2435 C 0.38059 0.52543 0.38761 0.0
C2436 C 0.43553 0.61083 0.38764 0.0
C2437 C 0.47467 0.60337 0.38734 0.0
C2438 C 0.46605 0.55641 0.38716 0.0
C2439 C 0.41955 0.51792 0.38729 0.0
H2440 H 0.4096 0.98427 0.39264 0.0
H2441 H 0.32682 0.85993 0.37856 0.0
H2442 H 0.47211 0.96363 0.39371 0.0
H2443 H 0.38679 0.83677 0.38011 0.0
H2444 H 0.52505 0.83627 0.37674 0.0
H2445 H 0.46179 0.85547 0.376 0.0
H2446 H 0.49469 0.91228 0.39927 0.0
H2447 H 0.56 0.89539 0.39977 0.0
C2448 C 0.40462 0.95223 0.38984 0.0
C2449 C 0.36325 0.9234 0.38557 0.0
C2450 C 0.44013 0.93997 0.39053 0.0
C2451 C 0.43469 0.89831 0.38702 0.0
C2452 C 0.39285 0.86946 0.3828 0.0
C2453 C 0.35793 0.88223 0.382 0.0
C2454 C 0.51844 0.85253 0.38171 0.0
C2455 C 0.54731 0.86439 0.38831 0.0
C2456 C 0.48194 0.86337 0.38132 0.0
C2457 C 0.47285 0.88556 0.38757 0.0
C2458 C 0.5011 0.89611 0.39427 0.0
C2459 C 0.53821 0.88599 0.39461 0.0
H2460 H 1.01753 0.79976 0.79098 0.0
H2461 H 0.06944 0.94503 0.79801 0.0
H2462 H 0.93622 0.78414 0.79158 0.0
H2463 H 0.98794 0.9306 0.79816 0.0
H2464 H 0.83516 0.87503 0.80638 0.0
H2465 H 0.91759 0.89376 0.80517 0.0
H2466 H 0.87762 0.79467 0.78606 0.0
H2467 H 0.79486 0.77411 0.78767 0.0
C2468 C 1.01146 0.82865 0.79252 0.0
C2469 C 0.04967 0.87354 0.79447 0.0
C2470 C 0.96473 0.81984 0.79281 0.0
C2471 C 0.955 0.85602 0.79492 0.0
C2472 C 0.99368 0.90148 0.79666 0.0
C2473 C 0.04049 0.91 0.79651 0.0
C2474 C 0.84422 0.85724 0.80195 0.0
C2475 C 0.80878 0.82273 0.79719 0.0
C2476 C 0.89158 0.86827 0.80119 0.0
C2477 C 0.90473 0.84571 0.79553 0.0
C2478 C 0.86901 0.81198 0.79063 0.0
C2479 C 0.82151 0.80023 0.79151 0.0
H2480 H 0.30855 0.0534 0.78586 0.0
H2481 H 0.21599 0.99864 0.80572 0.0
H2482 H 0.28776 0.11546 0.78437 0.0
H2483 H 0.19728 0.06222 0.80462 0.0
H2484 H 0.14424 0.16155 0.79813 0.0
H2485 H 0.15787 0.0941 0.79803 0.0
H2486 H 0.30114 0.18629 0.78963 0.0
H2487 H 0.28601 0.25233 0.78928 0.0
C2488 C 0.28417 0.05515 0.78996 0.0
C2489 C 0.26409 0.02164 0.79593 0.0
C2490 C 0.27235 0.09083 0.78915 0.0
C2491 C 0.24101 0.09445 0.79441 0.0
C2492 C 0.22081 0.06039 0.80036 0.0
C2493 C 0.23185 0.02413 0.80106 0.0
C2494 C 0.17835 0.16697 0.79618 0.0
C2495 C 0.21406 0.21198 0.79371 0.0
C2496 C 0.18645 0.12847 0.79618 0.0
C2497 C 0.23084 0.13446 0.79387 0.0
C2498 C 0.26621 0.1797 0.79131 0.0
C2499 C 0.25772 0.21782 0.79116 0.0
H2500 H 0.02213 0.29268 0.79008 0.0
H2501 H 0.10333 0.25305 0.80491 0.0
H2502 H 0.95933 0.20956 0.78926 0.0
H2503 H 0.04303 0.16967 0.80359 0.0
H2504 H 0.90341 0.03168 0.80702 0.0
H2505 H 0.96748 0.11395 0.8076 0.0
H2506 H 0.93713 0.13509 0.78402 0.0
H2507 H 0.87107 0.05327 0.78368 0.0
C2508 C 0.0267 0.266 0.79309 0.0
C2509 C 0.06775 0.27905 0.79748 0.0
C2510 C 0.99104 0.21824 0.79254 0.0
C2511 C 0.99599 0.18248 0.79631 0.0
C2512 C 0.03741 0.19597 0.80068 0.0
C2513 C 0.07252 0.24373 0.80134 0.0
C2514 C 0.91078 0.05391 0.80195 0.0
C2515 C 0.88237 0.03632 0.79531 0.0
C2516 C 0.94772 0.10112 0.80225 0.0
C2517 C 0.95768 0.13159 0.79586 0.0
C2518 C 0.93 0.11319 0.78912 0.0
C2519 C 0.89245 0.06616 0.78888 0.0
H2520 H 0.24097 0.06027 0.2831 0.0
H2521 H 0.18386 0.03482 0.30629 0.0
H2522 H 0.25633 0.14187 0.28375 0.0
H2523 H 0.20144 0.11678 0.30716 0.0
H2524 H 0.20472 0.25619 0.30489 0.0
H2525 H 0.18185 0.17304 0.30325 0.0
H2526 H 0.30814 0.21552 0.28941 0.0
H2527 H 0.32855 0.29846 0.2906 0.0
C2528 C 0.23163 0.07222 0.28833 0.0
C2529 C 0.21119 0.04137 0.29464 0.0
C2530 C 0.24088 0.11913 0.28874 0.0
C2531 C 0.23057 0.13638 0.29553 0.0
C2532 C 0.20922 0.10486 0.30178 0.0
C2533 C 0.19931 0.05782 0.30131 0.0
C2534 C 0.22694 0.24753 0.30137 0.0
C2535 C 0.2679 0.28357 0.29778 0.0
C2536 C 0.21433 0.19987 0.30052 0.0
C2537 C 0.24307 0.18717 0.29619 0.0
C2538 C 0.28453 0.22361 0.29266 0.0
C2539 C 0.29667 0.27127 0.29342 0.0
H2540 H 0.06057 0.19172 0.30713 0.0
H2541 H 0.03759 0.22462 0.2839 0.0
H2542 H 0.97865 0.12695 0.30773 0.0
H2543 H 0.9559 0.15796 0.28429 0.0
H2544 H 0.79823 0.07012 0.29075 0.0
H2545 H 0.88092 0.13422 0.28983 0.0
H2546 H 0.92466 0.05097 0.30344 0.0
H2547 H 0.84184 0.98916 0.30483 0.0
C2548 C 0.03809 0.18442 0.30209 0.0
C2549 C 0.05525 0.21309 0.29548 0.0
C2550 C 0.9911 0.14707 0.30241 0.0
C2551 C 0.96033 0.13699 0.29606 0.0
C2552 C 0.97815 0.16512 0.28935 0.0
C2553 C 0.02507 0.20302 0.28908 0.0
C2554 C 0.82567 0.06591 0.29358 0.0
C2555 C 0.81388 0.02455 0.29778 0.0
C2556 C 0.87314 0.10233 0.29297 0.0
C2557 C 0.9098 0.09788 0.29652 0.0
C2558 C 0.89759 0.05615 0.30071 0.0
C2559 C 0.85015 0.02023 0.3014 0.0
H2560 H 0.0991 0.88056 0.30586 0.0
H2561 H 0.03859 0.77852 0.2873 0.0
H2562 H 0.03484 0.89838 0.30467 0.0
H2563 H 0.97592 0.79828 0.28568 0.0
H2564 H 0.84071 0.8032 0.29044 0.0
H2565 H 0.90663 0.78792 0.29104 0.0
H2566 H 1.00092 0.93439 0.29771 0.0
H2567 H 0.93363 0.94833 0.29759 0.0
C2568 C 0.07215 0.86234 0.30146 0.0
C2569 C 0.0733 0.82781 0.29674 0.0
C2570 C 0.03549 0.87285 0.30071 0.0
C2571 C 0.99969 0.84979 0.29508 0.0
C2572 C 1.00187 0.81599 0.29022 0.0
C2573 C 0.03792 0.80471 0.29111 0.0
C2574 C 0.87565 0.83215 0.29199 0.0
C2575 C 0.88214 0.87688 0.29399 0.0
C2576 C 0.91371 0.82355 0.29229 0.0
C2577 C 0.95956 0.85982 0.29444 0.0
C2578 C 0.96613 0.90515 0.2962 0.0
C2579 C 0.92771 0.91341 0.29606 0.0
H2580 H 0.3743 0.8486 0.87679 0.0
H2581 H 0.39894 0.90867 0.89977 0.0
H2582 H 0.45625 0.86616 0.8761 0.0
H2583 H 0.48079 0.92407 0.89931 0.0
H2584 H 0.63807 0.99227 0.89258 0.0
H2585 H 0.5555 0.97409 0.89359 0.0
H2586 H 0.51033 0.8449 0.88045 0.0
H2587 H 0.5929 0.86552 0.87893 0.0
C2588 C 0.39717 0.86479 0.88176 0.0
C2589 C 0.38042 0.87729 0.88833 0.0
C2590 C 0.4442 0.87467 0.88139 0.0
C2591 C 0.47545 0.89654 0.88765 0.0
C2592 C 0.45813 0.908 0.89432 0.0
C2593 C 0.41114 0.89876 0.89463 0.0
C2594 C 0.61033 0.96026 0.88987 0.0
C2595 C 0.62161 0.92992 0.88576 0.0
C2596 C 0.56294 0.94944 0.89053 0.0
C2597 C 0.52592 0.90782 0.88714 0.0
C2598 C 0.53767 0.87756 0.88305 0.0
C2599 C 0.58498 0.88885 0.88229 0.0
H2600 H 0.23129 0.77002 0.87889 0.0
H2601 H 0.10299 0.68605 0.89207 0.0
H2602 H 0.25304 0.70902 0.88048 0.0
H2603 H 0.12228 0.62263 0.89314 0.0
H2604 H 0.18708 0.53229 0.89962 0.0
H2605 H 0.17121 0.5982 0.89903 0.0
H2606 H 0.23539 0.63464 0.87626 0.0
H2607 H 0.25348 0.57065 0.87711 0.0
C2608 C 0.20784 0.73846 0.88216 0.0
C2609 C 0.16601 0.73316 0.88548 0.0
C2610 C 0.21979 0.70292 0.88296 0.0
C2611 C 0.18951 0.6605 0.88694 0.0
C2612 C 0.14709 0.65503 0.89017 0.0
C2613 C 0.13561 0.69109 0.88947 0.0
C2614 C 0.19832 0.55496 0.89455 0.0
C2615 C 0.22164 0.54658 0.88843 0.0
C2616 C 0.18877 0.59244 0.89416 0.0
C2617 C 0.20164 0.62188 0.88757 0.0
C2618 C 0.22561 0.61355 0.88149 0.0
C2619 C 0.23585 0.57664 0.88195 0.0
H2620 H 0.33803 0.50054 0.87724 0.0
H2621 H 0.3942 0.4589 0.89639 0.0
H2622 H 0.40175 0.58267 0.8787 0.0
H2623 H 0.45636 0.54142 0.89825 0.0
H2624 H 0.59266 0.68172 0.89387 0.0
H2625 H 0.52684 0.60047 0.89316 0.0
H2626 H 0.43368 0.65237 0.88575 0.0
H2627 H 0.50091 0.73363 0.886 0.0
C2628 C 0.36389 0.50927 0.88183 0.0
C2629 C 0.36173 0.47356 0.88665 0.0
C2630 C 0.40022 0.55646 0.88273 0.0
C2631 C 0.43466 0.56918 0.8886 0.0
C2632 C 0.43144 0.53316 0.89354 0.0
C2633 C 0.3957 0.48581 0.89251 0.0
C2634 C 0.55797 0.67566 0.89215 0.0
C2635 C 0.55181 0.7138 0.88997 0.0
C2636 C 0.51998 0.62898 0.89178 0.0
C2637 C 0.47454 0.61933 0.88937 0.0
C2638 C 0.46821 0.65801 0.88746 0.0
C2639 C 0.50657 0.7047 0.88767 0.0
H2640 H 0.90058 0.83497 0.71869 0.0
H2641 H 0.75792 0.78725 0.7107 0.0
H2642 H 0.91734 0.91652 0.71882 0.0
H2643 H 0.77302 0.86882 0.71138 0.0
H2644 H 0.82405 0.02592 0.7081 0.0
H2645 H 0.81059 0.94553 0.70644 0.0
H2646 H 0.90275 0.96741 0.72598 0.0
H2647 H 0.91828 0.04861 0.72725 0.0
C2648 C 0.87288 0.8421 0.71689 0.0
C2649 C 0.82819 0.80487 0.7146 0.0
C2650 C 0.88214 0.88892 0.7171 0.0
C2651 C 0.84642 0.89973 0.71523 0.0
C2652 C 0.80176 0.86231 0.71278 0.0
C2653 C 0.79289 0.81541 0.71241 0.0
C2654 C 0.84158 0.01342 0.712 0.0
C2655 C 0.87231 0.04338 0.71779 0.0
C2656 C 0.8336 0.96716 0.71109 0.0
C2657 C 0.85551 0.94947 0.71606 0.0
C2658 C 0.88604 0.97975 0.7219 0.0
C2659 C 0.89473 0.0263 0.72269 0.0
H2660 H 0.0433 0.87628 0.70602 0.0
H2661 H 0.0499 0.8841 0.73098 0.0
H2662 H 0.1266 0.94022 0.70529 0.0
H2663 H 0.13275 0.9483 0.73025 0.0
H2664 H 0.2601 0.0957 0.72502 0.0
H2665 H 0.1768 0.03402 0.72511 0.0
H2666 H 0.20878 0.94942 0.70959 0.0
H2667 H 0.29305 1.01216 0.70949 0.0
C2668 C 0.06243 0.8921 0.71133 0.0
C2669 C 0.04035 0.87554 0.71855 0.0
C2670 C 0.11006 0.92827 0.71091 0.0
C2671 C 0.13598 0.94892 0.71771 0.0
C2672 C 0.11343 0.93306 0.72492 0.0
C2673 C 0.06613 0.89644 0.72534 0.0
C2674 C 0.24938 0.06456 0.72151 0.0
C2675 C 0.28282 0.05913 0.71714 0.0
C2676 C 0.20173 0.0289 0.72164 0.0
C2677 C 0.1864 0.9871 0.71734 0.0
C2678 C 0.21973 0.98161 0.7129 0.0
C2679 C 0.26778 0.01723 0.71287 0.0
H2680 H 0.17697 0.14983 0.72384 0.0
H2681 H 0.26938 0.29428 0.71625 0.0
H2682 H 0.10923 0.16322 0.72372 0.0
H2683 H 0.20164 0.30762 0.71605 0.0
H2684 H 0.08111 0.32898 0.72526 0.0
H2685 H 0.14779 0.31411 0.72546 0.0
H2686 H 0.05993 0.17796 0.71444 0.0
H2687 H 0.99318 0.19295 0.71428 0.0
C2688 C 0.18268 0.18437 0.72211 0.0
C2689 C 0.22831 0.2211 0.72007 0.0
C2690 C 0.14391 0.19196 0.72201 0.0
C2691 C 0.15012 0.23651 0.7199 0.0
C2692 C 0.19584 0.27311 0.71781 0.0
C2693 C 0.23455 0.26544 0.71788 0.0
C2694 C 0.07612 0.2959 0.72289 0.0
C2695 C 0.03215 0.26212 0.71975 0.0
C2696 C 0.11431 0.28747 0.72296 0.0
C2697 C 0.1092 0.24497 0.71993 0.0
C2698 C 0.06486 0.21087 0.71688 0.0
C2699 C 0.02672 0.21945 0.71677 0.0
H2700 H 0.70061 0.17935 0.11656 0.0
H2701 H 0.72651 0.24023 0.13948 0.0
H2702 H 0.61874 0.16389 0.11714 0.0
H2703 H 0.64461 0.22272 0.14028 0.0
H2704 H 0.50657 0.22103 0.13784 0.0
H2705 H 0.58937 0.2429 0.13607 0.0
H2706 H 0.54459 0.11356 0.123 0.0
H2707 H 0.46177 0.09399 0.12431 0.0
C2708 C 0.68872 0.1895 0.12171 0.0
C2709 C 0.71979 0.2111 0.12796 0.0
C2710 C 0.64171 0.18022 0.12208 0.0
C2711 C 0.62469 0.19181 0.12877 0.0
C2712 C 0.65636 0.21404 0.13497 0.0
C2713 C 0.70339 0.22389 0.13454 0.0
C2714 C 0.5146 0.19788 0.13446 0.0
C2715 C 0.47793 0.15625 0.13114 0.0
C2716 C 0.56207 0.20993 0.13354 0.0
C2717 C 0.57403 0.17998 0.1294 0.0
C2718 C 0.53702 0.13798 0.12611 0.0
C2719 C 0.48947 0.12635 0.12695 0.0
H2720 H 0.86976 0.31611 0.13772 0.0
H2721 H 0.99727 0.39884 0.12428 0.0
H2722 H 0.84899 0.37792 0.13629 0.0
H2723 H 0.9787 0.46291 0.12331 0.0
H2724 H 0.91213 0.55282 0.11709 0.0
H2725 H 0.92791 0.48673 0.11754 0.0
H2726 H 0.87036 0.45356 0.14076 0.0
H2727 H 0.85265 0.51785 0.14011 0.0
C2728 C 0.89323 0.34757 0.13442 0.0
C2729 C 0.93462 0.3524 0.13101 0.0
C2730 C 0.88182 0.38349 0.13371 0.0
C2731 C 0.91216 0.42572 0.12969 0.0
C2732 C 0.95401 0.43066 0.12633 0.0
C2733 C 0.96504 0.39426 0.12696 0.0
C2734 C 0.90238 0.53087 0.12223 0.0
C2735 C 0.88104 0.54021 0.12855 0.0
C2736 C 0.91185 0.49331 0.12254 0.0
C2737 C 0.90064 0.46471 0.1292 0.0
C2738 C 0.87876 0.47406 0.13547 0.0
C2739 C 0.86877 0.51113 0.13513 0.0
H2740 H 0.69199 0.6273 0.12404 0.0
H2741 H 0.7745 0.58435 0.13786 0.0
H2742 H 0.62863 0.54438 0.12299 0.0
H2743 H 0.71332 0.5014 0.13638 0.0
H2744 H 0.57267 0.36516 0.14018 0.0
H2745 H 0.63725 0.44712 0.14076 0.0
H2746 H 0.60584 0.46966 0.11734 0.0
H2747 H 0.53944 0.38782 0.11695 0.0
C2748 C 0.69668 0.59998 0.12679 0.0
C2749 C 0.73821 0.61202 0.13098 0.0
C2750 C 0.6607 0.55239 0.12612 0.0
C2751 C 0.66575 0.51591 0.12958 0.0
C2752 C 0.7077 0.52835 0.13372 0.0
C2753 C 0.74322 0.57587 0.13448 0.0
C2754 C 0.57985 0.38757 0.13513 0.0
C2755 C 0.55114 0.3703 0.12852 0.0
C2756 C 0.61709 0.43459 0.13544 0.0
C2757 C 0.62696 0.4653 0.1291 0.0
C2758 C 0.59883 0.4474 0.12239 0.0
C2759 C 0.56109 0.40042 0.12212 0.0
H2760 H 0.85178 0.36434 0.64188 0.0
H2761 H 0.90638 0.39518 0.61851 0.0
H2762 H 0.86757 0.44615 0.64328 0.0
H2763 H 0.921 0.47655 0.61986 0.0
H2764 H 0.87831 0.59215 0.62303 0.0
H2765 H 0.86178 0.51049 0.6224 0.0
H2766 H 0.94884 0.53423 0.64262 0.0
H2767 H 0.96649 0.61732 0.64319 0.0
C2768 C 0.86668 0.38851 0.63703 0.0
C2769 C 0.87769 0.37363 0.63007 0.0
C2770 C 0.87605 0.43525 0.63786 0.0
C2771 C 0.89561 0.46739 0.63169 0.0
C2772 C 0.90583 0.45223 0.62469 0.0
C2773 C 0.8974 0.40583 0.62391 0.0
C2774 C 0.89385 0.5801 0.62738 0.0
C2775 C 0.9239 0.61111 0.63315 0.0
C2776 C 0.88447 0.53339 0.62698 0.0
C2777 C 0.9043 0.5164 0.63242 0.0
C2778 C 0.93316 0.54675 0.63837 0.0
C2779 C 0.9433 0.59408 0.63869 0.0
H2780 H 0.73913 0.49791 0.63236 0.0
H2781 H 0.68892 0.58089 0.62042 0.0
H2782 H 0.6581 0.43011 0.63267 0.0
H2783 H 0.60788 0.51537 0.62124 0.0
H2784 H 0.46728 0.38276 0.61896 0.0
H2785 H 0.55042 0.44291 0.6171 0.0
H2786 H 0.586 0.40028 0.63868 0.0
H2787 H 0.50339 0.3376 0.64008 0.0
C2788 C 0.71059 0.50153 0.62983 0.0
C2789 C 0.72007 0.54436 0.62635 0.0
C2790 C 0.664 0.46291 0.63006 0.0
C2791 C 0.6258 0.4669 0.62702 0.0
C2792 C 0.63596 0.51003 0.62348 0.0
C2793 C 0.68256 0.54797 0.62306 0.0
C2794 C 0.49313 0.38643 0.62327 0.0
C2795 C 0.47919 0.35611 0.62969 0.0
C2796 C 0.54086 0.42111 0.62225 0.0
C2797 C 0.57547 0.4273 0.62778 0.0
C2798 C 0.56102 0.39643 0.6342 0.0
C2799 C 0.51351 0.3608 0.63508 0.0
H2800 H 0.76263 0.21081 0.63991 0.0
H2801 H 0.70494 0.11495 0.6205 0.0
H2802 H 0.69887 0.2295 0.63884 0.0
H2803 H 0.6427 0.1355 0.61906 0.0
H2804 H 0.50668 0.13793 0.62414 0.0
H2805 H 0.57264 0.12277 0.62463 0.0
H2806 H 0.66614 0.26791 0.63202 0.0
H2807 H 0.59873 0.28183 0.63196 0.0
C2808 C 0.73643 0.19416 0.63536 0.0
C2809 C 0.73817 0.16106 0.63035 0.0
C2810 C 0.70008 0.20516 0.63468 0.0
C2811 C 0.66518 0.18396 0.62887 0.0
C2812 C 0.668 0.15169 0.62373 0.0
C2813 C 0.70377 0.13996 0.62452 0.0
C2814 C 0.54143 0.16664 0.62583 0.0
C2815 C 0.54767 0.21099 0.62803 0.0
C2816 C 0.5795 0.15811 0.62606 0.0
C2817 C 0.62511 0.19405 0.62836 0.0
C2818 C 0.63148 0.23899 0.63037 0.0
C2819 C 0.59302 0.24722 0.63027 0.0
H2820 H 0.06135 0.23521 0.23316 0.0
H2821 H 0.03961 0.17933 0.20992 0.0
H2822 H 0.14347 0.25139 0.23283 0.0
H2823 H 0.12188 0.19776 0.20936 0.0
H2824 H 0.30164 0.32193 0.22653 0.0
H2825 H 0.21871 0.3027 0.22746 0.0
H2826 H 0.17614 0.17662 0.21359 0.0
H2827 H 0.25905 0.1984 0.21218 0.0
C2828 C 0.07424 0.22639 0.22799 0.0
C2829 C 0.04425 0.20585 0.22158 0.0
C2830 C 0.12141 0.23609 0.22775 0.0
C2831 C 0.13967 0.22608 0.22105 0.0
C2832 C 0.10912 0.20513 0.21468 0.0
C2833 C 0.0619 0.19476 0.21497 0.0
C2834 C 0.27439 0.29038 0.22364 0.0
C2835 C 0.28654 0.26132 0.21935 0.0
C2836 C 0.22678 0.27894 0.22425 0.0
C2837 C 0.19036 0.23793 0.22062 0.0
C2838 C 0.20296 0.20885 0.21637 0.0
C2839 C 0.25049 0.22079 0.21567 0.0
H2840 H 0.7631 0.01349 0.22475 0.0
H2841 H 0.89421 0.09869 0.21226 0.0
H2842 H 0.78079 0.9485 0.22546 0.0
H2843 H 0.91296 0.03475 0.21328 0.0
H2844 H 0.94402 0.92094 0.22475 0.0
H2845 H 0.92861 0.98783 0.22463 0.0
H2846 H 0.79045 0.89676 0.21453 0.0
H2847 H 0.80609 0.83069 0.21447 0.0
C2848 C 0.79581 0.01841 0.22221 0.0
C2849 C 0.82765 0.06125 0.21853 0.0
C2850 C 0.80598 0.98141 0.22263 0.0
C2851 C 0.84844 0.98696 0.21948 0.0
C2852 C 0.8804 0.02996 0.21586 0.0
C2853 C 0.86979 0.06655 0.21531 0.0
C2854 C 0.91051 0.91548 0.22249 0.0
C2855 C 0.87627 0.87088 0.21961 0.0
C2856 C 0.90174 0.95356 0.22242 0.0
C2857 C 0.85822 0.94713 0.21962 0.0
C2858 C 0.82403 0.90242 0.21679 0.0
C2859 C 0.83315 0.86479 0.21672 0.0
H2860 H 0.98383 0.83433 0.21411 0.0
H2861 H 0.07585 0.79161 0.22508 0.0
H2862 H 0.04456 0.91775 0.21573 0.0
H2863 H 0.13772 0.87469 0.22634 0.0
H2864 H 0.22837 0.02828 0.23317 0.0
H2865 H 0.16095 0.94707 0.23291 0.0
H2866 H 0.11924 0.97445 0.2106 0.0
H2867 H 0.18538 0.05594 0.21106 0.0
C2868 C 1.01708 0.84289 0.21688 0.0
C2869 C 0.02512 0.80667 0.21951 0.0
C2870 C 0.05212 0.89066 0.21775 0.0
C2871 C 0.09624 0.90317 0.22117 0.0
C2872 C 0.10399 0.86661 0.22381 0.0
C2873 C 0.06875 0.81892 0.22301 0.0
C2874 C 0.20432 0.01695 0.22827 0.0
C2875 C 0.21206 0.0482 0.22213 0.0
C2876 C 0.16592 0.97033 0.22808 0.0
C2877 C 0.13475 0.95388 0.2217 0.0
C2878 C 0.14199 0.98586 0.21566 0.0
C2879 C 0.18009 0.03255 0.21589 0.0
loop_
_geom_bond_atom_site_label_1
_geom_bond_atom_site_label_2
_geom_bond_distance
_geom_bond_site_symmetry_2
_ccdc_geom_bond_type
Tb0 O3 2.453 1_545 S
Tb0 O4 2.596 1_545 S
Tb0 O5 2.374 . S
Tb0 O13 2.343 . S
Tb0 O15 2.353 . S
Tb0 O17 2.427 . S
Tb0 O18 2.513 . S
C1 O5 1.251 . S
C1 O7 1.263 . S
Tb2 O4 2.343 1_545 S
Tb2 O7 2.353 . S
Tb2 O10 2.427 1_545 S
Tb2 O11 2.513 1_545 S
Tb2 O12 2.453 . S
Tb2 O13 2.596 . S
Tb2 O14 2.374 . S
O3 Tb0 2.453 1_565 S
O3 C19 1.245 . S
O4 Tb0 2.596 1_565 S
O4 Tb2 2.343 1_565 S
O4 C19 1.259 . S
O5 Tb0 2.374 . S
O5 C1 1.251 . S
C6 O10 1.275 . S
C6 O11 1.246 . S
O7 C1 1.263 . S
O7 Tb2 2.353 . S
C8 O12 1.245 . S
C8 O13 1.259 . S
C9 O14 1.250 . S
C9 O15 1.263 . S
O10 Tb2 2.427 1_565 S
O10 C6 1.275 . S
O11 Tb2 2.513 1_565 S
O11 C6 1.246 . S
O12 Tb2 2.453 . S
O12 C8 1.245 . S
O13 Tb0 2.343 . S
O13 Tb2 2.596 . S
O13 C8 1.259 . S
O14 Tb2 2.374 . S
O14 C9 1.250 . S
O15 Tb0 2.353 . S
O15 C9 1.263 . S
C16 O17 1.275 . S
C16 O18 1.246 . S
O17 Tb0 2.427 . S
O17 C16 1.275 . S
O18 Tb0 2.513 . S
O18 C16 1.246 . S
C19 O3 1.245 . S
C19 O4 1.259 . S
Tb20 O23 2.453 1_655 S
Tb20 O24 2.596 1_655 S
Tb20 O25 2.374 1_655 S
Tb20 O33 2.343 . S
Tb20 O35 2.348 1_655 S
Tb20 O37 2.427 . S
Tb20 O38 2.513 . S
C21 O25 1.251 . S
C21 O27 1.263 . S
Tb22 O24 2.343 . S
Tb22 O27 2.353 . S
Tb22 O30 2.427 . S
Tb22 O31 2.513 . S
Tb22 O32 2.453 1_455 S
Tb22 O33 2.596 1_455 S
Tb22 O34 2.374 . S
O23 Tb20 2.453 1_455 S
O23 C39 1.245 . S
O24 Tb20 2.596 1_455 S
O24 Tb22 2.343 . S
O24 C39 1.259 . S
O25 Tb20 2.374 1_455 S
O25 C21 1.251 . S
C26 O30 1.275 . S
C26 O31 1.246 . S
O27 C21 1.263 . S
O27 Tb22 2.353 . S
C28 O32 1.245 . S
C28 O33 1.259 . S
C29 O34 1.250 . S
C29 O35 1.273 . S
O30 Tb22 2.427 . S
O30 C26 1.275 . S
O31 Tb22 2.513 . S
O31 C26 1.246 . S
O32 Tb22 2.453 1_655 S
O32 C28 1.245 . S
O33 Tb20 2.343 . S
O33 Tb22 2.596 1_655 S
O33 C28 1.259 . S
O34 Tb22 2.374 . S
O34 C29 1.250 . S
O35 Tb20 2.348 1_455 S
O35 C29 1.273 . S
C36 O37 1.275 . S
C36 O38 1.246 . S
O37 Tb20 2.427 . S
O37 C36 1.275 . S
O38 Tb20 2.513 . S
O38 C36 1.246 . S
C39 O23 1.245 . S
C39 O24 1.259 . S
Tb40 O43 2.453 . S
Tb40 O44 2.596 . S
Tb40 O45 2.374 . S
Tb40 O53 2.343 . S
Tb40 O55 2.353 . S
Tb40 O57 2.427 . S
Tb40 O58 2.513 . S
C41 O45 1.251 . S
C41 O47 1.263 . S
Tb42 O44 2.343 . S
Tb42 O47 2.353 . S
Tb42 O50 2.427 . S
Tb42 O51 2.513 . S
Tb42 O52 2.453 . S
Tb42 O53 2.596 . S
Tb42 O54 2.374 . S
O43 Tb40 2.453 . S
O43 C59 1.245 . S
O44 Tb40 2.596 . S
O44 Tb42 2.343 . S
O44 C59 1.259 . S
O45 Tb40 2.374 . S
O45 C41 1.251 . S
C46 O50 1.275 . S
C46 O51 1.246 . S
O47 C41 1.263 . S
O47 Tb42 2.353 . S
C48 O52 1.245 . S
C48 O53 1.259 . S
C49 O54 1.250 . S
C49 O55 1.263 . S
O50 Tb42 2.427 . S
O50 C46 1.275 . S
O51 Tb42 2.513 . S
O51 C46 1.246 . S
O52 Tb42 2.453 . S
O52 C48 1.245 . S
O53 Tb40 2.343 . S
O53 Tb42 2.596 . S
O53 C48 1.259 . S
O54 Tb42 2.374 . S
O54 C49 1.250 . S
O55 Tb40 2.353 . S
O55 C49 1.263 . S
C56 O57 1.275 . S
C56 O58 1.246 . S
O57 Tb40 2.427 . S
O57 C56 1.275 . S
O58 Tb40 2.513 . S
O58 C56 1.246 . S
C59 O43 1.245 . S
C59 O44 1.259 . S
Tb60 O63 2.453 1_455 S
Tb60 O64 2.596 1_455 S
Tb60 O65 2.374 . S
Tb60 O73 2.343 . S
Tb60 O75 2.353 . S
Tb60 O77 2.427 . S
Tb60 O78 2.513 . S
C61 O65 1.251 . S
C61 O67 1.263 . S
Tb62 O64 2.343 1_455 S
Tb62 O67 2.353 . S
Tb62 O70 2.427 1_455 S
Tb62 O71 2.513 1_455 S
Tb62 O72 2.453 . S
Tb62 O73 2.596 . S
Tb62 O74 2.374 . S
O63 Tb60 2.453 1_655 S
O63 C79 1.245 . S
O64 Tb60 2.596 1_655 S
O64 Tb62 2.343 1_655 S
O64 C79 1.259 . S
O65 Tb60 2.374 . S
O65 C61 1.251 . S
C66 O70 1.275 . S
C66 O71 1.246 . S
O67 C61 1.263 . S
O67 Tb62 2.353 . S
C68 O72 1.245 . S
C68 O73 1.259 . S
C69 O74 1.250 . S
C69 O75 1.263 . S
O70 Tb62 2.427 1_655 S
O70 C66 1.275 . S
O71 Tb62 2.513 1_655 S
O71 C66 1.246 . S
O72 Tb62 2.453 . S
O72 C68 1.245 . S
O73 Tb60 2.343 . S
O73 Tb62 2.596 . S
O73 C68 1.259 . S
O74 Tb62 2.374 . S
O74 C69 1.250 . S
O75 Tb60 2.353 . S
O75 C69 1.263 . S
C76 O77 1.275 . S
C76 O78 1.246 . S
O77 Tb60 2.427 . S
O77 C76 1.275 . S
O78 Tb60 2.513 . S
O78 C76 1.246 . S
C79 O63 1.245 . S
C79 O64 1.259 . S
Tb80 O83 2.453 . S
Tb80 O84 2.596 . S
Tb80 O85 2.374 . S
Tb80 O93 2.343 . S
Tb80 O95 2.353 . S
Tb80 O97 2.427 . S
Tb80 O98 2.513 . S
C81 O85 1.251 . S
C81 O87 1.263 . S
Tb82 O84 2.343 . S
Tb82 O87 2.353 . S
Tb82 O90 2.427 . S
Tb82 O91 2.513 . S
Tb82 O92 2.453 . S
Tb82 O93 2.596 . S
Tb82 O94 2.374 . S
O83 Tb80 2.453 . S
O83 C99 1.245 . S
O84 Tb80 2.596 . S
O84 Tb82 2.343 . S
O84 C99 1.259 . S
O85 Tb80 2.374 . S
O85 C81 1.251 . S
C86 O90 1.275 . S
C86 O91 1.246 . S
O87 C81 1.263 . S
O87 Tb82 2.353 . S
C88 O92 1.245 . S
C88 O93 1.259 . S
C89 O94 1.250 . S
C89 O95 1.263 . S
O90 Tb82 2.427 . S
O90 C86 1.275 . S
O91 Tb82 2.513 . S
O91 C86 1.246 . S
O92 Tb82 2.453 . S
O92 C88 1.245 . S
O93 Tb80 2.343 . S
O93 Tb82 2.596 . S
O93 C88 1.259 . S
O94 Tb82 2.374 . S
O94 C89 1.250 . S
O95 Tb80 2.353 . S
O95 C89 1.263 . S
C96 O97 1.275 . S
C96 O98 1.246 . S
O97 Tb80 2.427 . S
O97 C96 1.275 . S
O98 Tb80 2.513 . S
O98 C96 1.246 . S
C99 O83 1.245 . S
C99 O84 1.259 . S
Tb100 O103 2.453 1_565 S
Tb100 O104 2.596 1_565 S
Tb100 O105 2.374 1_565 S
Tb100 O113 2.343 . S
Tb100 O115 2.347 1_565 S
Tb100 O117 2.427 . S
Tb100 O118 2.513 . S
C101 O105 1.251 . S
C101 O107 1.263 . S
Tb102 O104 2.343 . S
Tb102 O107 2.353 . S
Tb102 O110 2.427 . S
Tb102 O111 2.513 . S
Tb102 O112 2.453 1_545 S
Tb102 O113 2.596 1_545 S
Tb102 O114 2.374 . S
O103 Tb100 2.453 1_545 S
O103 C119 1.245 . S
O104 Tb100 2.596 1_545 S
O104 Tb102 2.343 . S
O104 C119 1.259 . S
O105 Tb100 2.374 1_545 S
O105 C101 1.251 . S
C106 O110 1.275 . S
C106 O111 1.246 . S
O107 C101 1.263 . S
O107 Tb102 2.353 . S
C108 O112 1.245 . S
C108 O113 1.259 . S
C109 O114 1.250 . S
C109 O115 1.274 . S
O110 Tb102 2.427 . S
O110 C106 1.275 . S
O111 Tb102 2.513 . S
O111 C106 1.246 . S
O112 Tb102 2.453 1_565 S
O112 C108 1.245 . S
O113 Tb100 2.343 . S
O113 Tb102 2.596 1_565 S
O113 C108 1.259 . S
O114 Tb102 2.374 . S
O114 C109 1.250 . S
O115 Tb100 2.347 1_545 S
O115 C109 1.274 . S
C116 O117 1.275 . S
C116 O118 1.246 . S
O117 Tb100 2.427 . S
O117 C116 1.275 . S
O118 Tb100 2.513 . S
O118 C116 1.246 . S
C119 O103 1.245 . S
C119 O104 1.259 . S
Tb120 O123 2.453 1_545 S
Tb120 O124 2.596 1_545 S
Tb120 O125 2.374 . S
Tb120 O133 2.343 . S
Tb120 O135 2.353 . S
Tb120 O137 2.427 . S
Tb120 O138 2.513 . S
C121 O125 1.251 . S
C121 O127 1.254 . S
Tb122 O124 2.343 . S
Tb122 O127 2.357 1_565 S
Tb122 O130 2.427 . S
Tb122 O131 2.513 . S
Tb122 O132 2.453 1_565 S
Tb122 O133 2.596 1_565 S
Tb122 O134 2.374 1_565 S
O123 Tb120 2.453 1_565 S
O123 C139 1.245 . S
O124 Tb120 2.596 1_565 S
O124 Tb122 2.343 . S
O124 C139 1.259 . S
O125 Tb120 2.374 . S
O125 C121 1.251 . S
C126 O130 1.275 . S
C126 O131 1.246 . S
O127 C121 1.254 . S
O127 Tb122 2.357 1_545 S
C128 O132 1.245 . S
C128 O133 1.259 . S
C129 O134 1.250 . S
C129 O135 1.263 . S
O130 Tb122 2.427 . S
O130 C126 1.275 . S
O131 Tb122 2.513 . S
O131 C126 1.246 . S
O132 Tb122 2.453 1_545 S
O132 C128 1.245 . S
O133 Tb120 2.343 . S
O133 Tb122 2.596 1_545 S
O133 C128 1.259 . S
O134 Tb122 2.374 1_545 S
O134 C129 1.250 . S
O135 Tb120 2.353 . S
O135 C129 1.263 . S
C136 O137 1.275 . S
C136 O138 1.246 . S
O137 Tb120 2.427 . S
O137 C136 1.275 . S
O138 Tb120 2.513 . S
O138 C136 1.246 . S
C139 O123 1.245 . S
C139 O124 1.259 . S
Tb140 O143 2.453 . S
Tb140 O144 2.596 . S
Tb140 O145 2.374 . S
Tb140 O153 2.343 1_455 S
Tb140 O155 2.353 . S
Tb140 O157 2.427 1_455 S
Tb140 O158 2.513 1_455 S
C141 O145 1.251 . S
C141 O147 1.263 . S
Tb142 O144 2.343 . S
Tb142 O147 2.353 . S
Tb142 O150 2.427 . S
Tb142 O151 2.513 . S
Tb142 O152 2.453 1_455 S
Tb142 O153 2.596 1_455 S
Tb142 O154 2.374 . S
O143 Tb140 2.453 . S
O143 C159 1.245 . S
O144 Tb140 2.596 . S
O144 Tb142 2.343 . S
O144 C159 1.259 . S
O145 Tb140 2.374 . S
O145 C141 1.251 . S
C146 O150 1.275 . S
C146 O151 1.246 . S
O147 C141 1.263 . S
O147 Tb142 2.353 . S
C148 O152 1.245 . S
C148 O153 1.259 . S
C149 O154 1.250 . S
C149 O155 1.263 . S
O150 Tb142 2.427 . S
O150 C146 1.275 . S
O151 Tb142 2.513 . S
O151 C146 1.246 . S
O152 Tb142 2.453 1_655 S
O152 C148 1.245 . S
O153 Tb140 2.343 1_655 S
O153 Tb142 2.596 1_655 S
O153 C148 1.259 . S
O154 Tb142 2.374 . S
O154 C149 1.250 . S
O155 Tb140 2.353 . S
O155 C149 1.263 . S
C156 O157 1.275 . S
C156 O158 1.246 . S
O157 Tb140 2.427 1_655 S
O157 C156 1.275 . S
O158 Tb140 2.513 1_655 S
O158 C156 1.246 . S
C159 O143 1.245 . S
C159 O144 1.259 . S
Tb160 O163 2.453 . S
Tb160 O164 2.596 . S
Tb160 O165 2.374 . S
Tb160 O173 2.343 . S
Tb160 O175 2.353 . S
Tb160 O177 2.427 . S
Tb160 O178 2.513 . S
C161 O165 1.251 . S
C161 O167 1.263 . S
Tb162 O164 2.343 . S
Tb162 O167 2.353 . S
Tb162 O170 2.427 . S
Tb162 O171 2.513 . S
Tb162 O172 2.453 . S
Tb162 O173 2.596 . S
Tb162 O174 2.374 . S
O163 Tb160 2.453 . S
O163 C179 1.245 . S
O164 Tb160 2.596 . S
O164 Tb162 2.343 . S
O164 C179 1.259 . S
O165 Tb160 2.374 . S
O165 C161 1.251 . S
C166 O170 1.275 . S
C166 O171 1.246 . S
O167 C161 1.263 . S
O167 Tb162 2.353 . S
C168 O172 1.245 . S
C168 O173 1.259 . S
C169 O174 1.250 . S
C169 O175 1.263 . S
O170 Tb162 2.427 . S
O170 C166 1.275 . S
O171 Tb162 2.513 . S
O171 C166 1.246 . S
O172 Tb162 2.453 . S
O172 C168 1.245 . S
O173 Tb160 2.343 . S
O173 Tb162 2.596 . S
O173 C168 1.259 . S
O174 Tb162 2.374 . S
O174 C169 1.250 . S
O175 Tb160 2.353 . S
O175 C169 1.263 . S
C176 O177 1.275 . S
C176 O178 1.246 . S
O177 Tb160 2.427 . S
O177 C176 1.275 . S
O178 Tb160 2.513 . S
O178 C176 1.246 . S
C179 O163 1.245 . S
C179 O164 1.259 . S
Tb180 O183 2.453 1_455 S
Tb180 O184 2.596 1_455 S
Tb180 O185 2.374 . S
Tb180 O193 2.343 . S
Tb180 O195 2.353 . S
Tb180 O197 2.427 . S
Tb180 O198 2.513 . S
C181 O185 1.251 . S
C181 O187 1.254 . S
Tb182 O184 2.343 . S
Tb182 O187 2.357 1_655 S
Tb182 O190 2.427 . S
Tb182 O191 2.513 . S
Tb182 O192 2.453 1_655 S
Tb182 O193 2.596 1_655 S
Tb182 O194 2.374 1_655 S
O183 Tb180 2.453 1_655 S
O183 C199 1.245 . S
O184 Tb180 2.596 1_655 S
O184 Tb182 2.343 . S
O184 C199 1.259 . S
O185 Tb180 2.374 . S
O185 C181 1.251 . S
C186 O190 1.275 . S
C186 O191 1.246 . S
O187 C181 1.254 . S
O187 Tb182 2.357 1_455 S
C188 O192 1.245 . S
C188 O193 1.259 . S
C189 O194 1.250 . S
C189 O195 1.263 . S
O190 Tb182 2.427 . S
O190 C186 1.275 . S
O191 Tb182 2.513 . S
O191 C186 1.246 . S
O192 Tb182 2.453 1_455 S
O192 C188 1.245 . S
O193 Tb180 2.343 . S
O193 Tb182 2.596 1_455 S
O193 C188 1.259 . S
O194 Tb182 2.374 1_455 S
O194 C189 1.250 . S
O195 Tb180 2.353 . S
O195 C189 1.263 . S
C196 O197 1.275 . S
C196 O198 1.246 . S
O197 Tb180 2.427 . S
O197 C196 1.275 . S
O198 Tb180 2.513 . S
O198 C196 1.246 . S
C199 O183 1.245 . S
C199 O184 1.259 . S
Tb200 O203 2.453 . S
Tb200 O204 2.596 . S
Tb200 O205 2.374 . S
Tb200 O213 2.343 . S
Tb200 O215 2.353 . S
Tb200 O217 2.427 . S
Tb200 O218 2.513 . S
C201 O205 1.251 . S
C201 O207 1.263 . S
Tb202 O204 2.343 . S
Tb202 O207 2.353 . S
Tb202 O210 2.427 . S
Tb202 O211 2.513 . S
Tb202 O212 2.453 . S
Tb202 O213 2.596 . S
Tb202 O214 2.374 . S
O203 Tb200 2.453 . S
O203 C219 1.245 . S
O204 Tb200 2.596 . S
O204 Tb202 2.343 . S
O204 C219 1.259 . S
O205 Tb200 2.374 . S
O205 C201 1.251 . S
C206 O210 1.275 . S
C206 O211 1.246 . S
O207 C201 1.263 . S
O207 Tb202 2.353 . S
C208 O212 1.245 . S
C208 O213 1.259 . S
C209 O214 1.250 . S
C209 O215 1.263 . S
O210 Tb202 2.427 . S
O210 C206 1.275 . S
O211 Tb202 2.513 . S
O211 C206 1.246 . S
O212 Tb202 2.453 . S
O212 C208 1.245 . S
O213 Tb200 2.343 . S
O213 Tb202 2.596 . S
O213 C208 1.259 . S
O214 Tb202 2.374 . S
O214 C209 1.250 . S
O215 Tb200 2.353 . S
O215 C209 1.263 . S
C216 O217 1.275 . S
C216 O218 1.246 . S
O217 Tb200 2.427 . S
O217 C216 1.275 . S
O218 Tb200 2.513 . S
O218 C216 1.246 . S
C219 O203 1.245 . S
C219 O204 1.259 . S
Tb220 O223 2.453 . S
Tb220 O224 2.596 . S
Tb220 O225 2.374 . S
Tb220 O233 2.343 1_545 S
Tb220 O235 2.353 . S
Tb220 O237 2.427 1_545 S
Tb220 O238 2.513 1_545 S
C221 O225 1.251 . S
C221 O227 1.263 . S
Tb222 O224 2.343 . S
Tb222 O227 2.353 . S
Tb222 O230 2.427 . S
Tb222 O231 2.513 . S
Tb222 O232 2.453 1_545 S
Tb222 O233 2.596 1_545 S
Tb222 O234 2.374 . S
O223 Tb220 2.453 . S
O223 C239 1.245 . S
O224 Tb220 2.596 . S
O224 Tb222 2.343 . S
O224 C239 1.259 . S
O225 Tb220 2.374 . S
O225 C221 1.251 . S
C226 O230 1.275 . S
C226 O231 1.246 . S
O227 C221 1.263 . S
O227 Tb222 2.353 . S
C228 O232 1.245 . S
C228 O233 1.259 . S
C229 O234 1.250 . S
C229 O235 1.263 . S
O230 Tb222 2.427 . S
O230 C226 1.275 . S
O231 Tb222 2.513 . S
O231 C226 1.246 . S
O232 Tb222 2.453 1_565 S
O232 C228 1.245 . S
O233 Tb220 2.343 1_565 S
O233 Tb222 2.596 1_565 S
O233 C228 1.259 . S
O234 Tb222 2.374 . S
O234 C229 1.250 . S
O235 Tb220 2.353 . S
O235 C229 1.263 . S
C236 O237 1.275 . S
C236 O238 1.246 . S
O237 Tb220 2.427 1_565 S
O237 C236 1.275 . S
O238 Tb220 2.513 1_565 S
O238 C236 1.246 . S
C239 O223 1.245 . S
C239 O224 1.259 . S
Tb240 O243 2.453 . S
Tb240 O244 2.596 . S
Tb240 O245 2.374 . S
Tb240 O253 2.343 . S
Tb240 O255 2.353 . S
Tb240 O257 2.427 . S
Tb240 O258 2.513 . S
C241 O245 1.251 . S
C241 O247 1.263 . S
Tb242 O244 2.343 . S
Tb242 O247 2.353 . S
Tb242 O250 2.427 . S
Tb242 O251 2.513 . S
Tb242 O252 2.453 . S
Tb242 O253 2.596 . S
Tb242 O254 2.374 . S
O243 Tb240 2.453 . S
O243 C259 1.245 . S
O244 Tb240 2.596 . S
O244 Tb242 2.343 . S
O244 C259 1.259 . S
O245 Tb240 2.374 . S
O245 C241 1.251 . S
C246 O250 1.275 . S
C246 O251 1.246 . S
O247 C241 1.263 . S
O247 Tb242 2.353 . S
C248 O252 1.245 . S
C248 O253 1.259 . S
C249 O254 1.250 . S
C249 O255 1.263 . S
O250 Tb242 2.427 . S
O250 C246 1.275 . S
O251 Tb242 2.513 . S
O251 C246 1.246 . S
O252 Tb242 2.453 . S
O252 C248 1.245 . S
O253 Tb240 2.343 . S
O253 Tb242 2.596 . S
O253 C248 1.259 . S
O254 Tb242 2.374 . S
O254 C249 1.250 . S
O255 Tb240 2.353 . S
O255 C249 1.263 . S
C256 O257 1.275 . S
C256 O258 1.246 . S
O257 Tb240 2.427 . S
O257 C256 1.275 . S
O258 Tb240 2.513 . S
O258 C256 1.246 . S
C259 O243 1.245 . S
C259 O244 1.259 . S
Tb260 O263 2.453 . S
Tb260 O264 2.596 . S
Tb260 O265 2.374 . S
Tb260 O273 2.343 . S
Tb260 O275 2.353 . S
Tb260 O277 2.427 . S
Tb260 O278 2.513 . S
C261 O265 1.251 . S
C261 O267 1.263 . S
Tb262 O264 2.343 . S
Tb262 O267 2.353 . S
Tb262 O270 2.427 . S
Tb262 O271 2.513 . S
Tb262 O272 2.453 . S
Tb262 O273 2.596 . S
Tb262 O274 2.374 . S
O263 Tb260 2.453 . S
O263 C279 1.245 . S
O264 Tb260 2.596 . S
O264 Tb262 2.343 . S
O264 C279 1.259 . S
O265 Tb260 2.374 . S
O265 C261 1.251 . S
C266 O270 1.275 . S
C266 O271 1.246 . S
O267 C261 1.263 . S
O267 Tb262 2.353 . S
C268 O272 1.245 . S
C268 O273 1.259 . S
C269 O274 1.250 . S
C269 O275 1.263 . S
O270 Tb262 2.427 . S
O270 C266 1.275 . S
O271 Tb262 2.513 . S
O271 C266 1.246 . S
O272 Tb262 2.453 . S
O272 C268 1.245 . S
O273 Tb260 2.343 . S
O273 Tb262 2.596 . S
O273 C268 1.259 . S
O274 Tb262 2.374 . S
O274 C269 1.250 . S
O275 Tb260 2.353 . S
O275 C269 1.263 . S
C276 O277 1.275 . S
C276 O278 1.246 . S
O277 Tb260 2.427 . S
O277 C276 1.275 . S
O278 Tb260 2.513 . S
O278 C276 1.246 . S
C279 O263 1.245 . S
C279 O264 1.259 . S
Tb280 O283 2.453 . S
Tb280 O284 2.596 . S
Tb280 O285 2.374 . S
Tb280 O293 2.343 . S
Tb280 O295 2.353 . S
Tb280 O297 2.427 . S
Tb280 O298 2.513 . S
C281 O285 1.251 . S
C281 O287 1.263 . S
Tb282 O284 2.343 . S
Tb282 O287 2.353 . S
Tb282 O290 2.427 . S
Tb282 O291 2.513 . S
Tb282 O292 2.453 . S
Tb282 O293 2.596 . S
Tb282 O294 2.374 . S
O283 Tb280 2.453 . S
O283 C299 1.245 . S
O284 Tb280 2.596 . S
O284 Tb282 2.343 . S
O284 C299 1.259 . S
O285 Tb280 2.374 . S
O285 C281 1.251 . S
C286 O290 1.275 1_545 S
C286 O291 1.246 1_545 S
O287 C281 1.263 . S
O287 Tb282 2.353 . S
C288 O292 1.245 . S
C288 O293 1.259 . S
C289 O294 1.250 . S
C289 O295 1.263 . S
O290 Tb282 2.427 . S
O290 C286 1.275 1_565 S
O291 Tb282 2.513 . S
O291 C286 1.246 1_565 S
O292 Tb282 2.453 . S
O292 C288 1.245 . S
O293 Tb280 2.343 . S
O293 Tb282 2.596 . S
O293 C288 1.259 . S
O294 Tb282 2.374 . S
O294 C289 1.250 . S
O295 Tb280 2.353 . S
O295 C289 1.263 . S
C296 O297 1.275 . S
C296 O298 1.246 . S
O297 Tb280 2.427 . S
O297 C296 1.275 . S
O298 Tb280 2.513 . S
O298 C296 1.246 . S
C299 O283 1.245 . S
C299 O284 1.259 . S
Tb300 O303 2.453 . S
Tb300 O304 2.596 . S
Tb300 O305 2.374 . S
Tb300 O313 2.343 . S
Tb300 O315 2.353 . S
Tb300 O317 2.427 . S
Tb300 O318 2.513 . S
C301 O305 1.251 . S
C301 O307 1.263 . S
Tb302 O304 2.343 . S
Tb302 O307 2.353 . S
Tb302 O310 2.427 . S
Tb302 O311 2.513 . S
Tb302 O312 2.453 . S
Tb302 O313 2.596 . S
Tb302 O314 2.374 . S
O303 Tb300 2.453 . S
O303 C319 1.245 . S
O304 Tb300 2.596 . S
O304 Tb302 2.343 . S
O304 C319 1.259 . S
O305 Tb300 2.374 . S
O305 C301 1.251 . S
C306 O310 1.275 . S
C306 O311 1.246 . S
O307 C301 1.263 . S
O307 Tb302 2.353 . S
C308 O312 1.245 . S
C308 O313 1.259 . S
C309 O314 1.250 . S
C309 O315 1.263 . S
O310 Tb302 2.427 . S
O310 C306 1.275 . S
O311 Tb302 2.513 . S
O311 C306 1.246 . S
O312 Tb302 2.453 . S
O312 C308 1.245 . S
O313 Tb300 2.343 . S
O313 Tb302 2.596 . S
O313 C308 1.259 . S
O314 Tb302 2.374 . S
O314 C309 1.250 . S
O315 Tb300 2.353 . S
O315 C309 1.263 . S
C316 O317 1.275 . S
C316 O318 1.246 . S
O317 Tb300 2.427 . S
O317 C316 1.275 . S
O318 Tb300 2.513 . S
O318 C316 1.246 . S
C319 O303 1.245 . S
C319 O304 1.259 . S
Tb320 O323 2.453 . S
Tb320 O324 2.596 . S
Tb320 O325 2.374 . S
Tb320 O333 2.343 . S
Tb320 O335 2.353 . S
Tb320 O337 2.427 . S
Tb320 O338 2.513 . S
C321 O325 1.251 . S
C321 O327 1.263 . S
Tb322 O324 2.343 . S
Tb322 O327 2.353 . S
Tb322 O330 2.427 . S
Tb322 O331 2.513 . S
Tb322 O332 2.453 . S
Tb322 O333 2.596 . S
Tb322 O334 2.374 . S
O323 Tb320 2.453 . S
O323 C339 1.245 . S
O324 Tb320 2.596 . S
O324 Tb322 2.343 . S
O324 C339 1.259 . S
O325 Tb320 2.374 . S
O325 C321 1.251 . S
C326 O330 1.275 . S
C326 O331 1.246 . S
O327 C321 1.263 . S
O327 Tb322 2.353 . S
C328 O332 1.245 . S
C328 O333 1.259 . S
C329 O334 1.250 . S
C329 O335 1.263 . S
O330 Tb322 2.427 . S
O330 C326 1.275 . S
O331 Tb322 2.513 . S
O331 C326 1.246 . S
O332 Tb322 2.453 . S
O332 C328 1.245 . S
O333 Tb320 2.343 . S
O333 Tb322 2.596 . S
O333 C328 1.259 . S
O334 Tb322 2.374 . S
O334 C329 1.250 . S
O335 Tb320 2.353 . S
O335 C329 1.263 . S
C336 O337 1.275 . S
C336 O338 1.246 . S
O337 Tb320 2.427 . S
O337 C336 1.275 . S
O338 Tb320 2.513 . S
O338 C336 1.246 . S
C339 O323 1.245 . S
C339 O324 1.259 . S
Tb340 O343 2.453 . S
Tb340 O344 2.596 . S
Tb340 O345 2.374 . S
Tb340 O353 2.343 . S
Tb340 O355 2.353 . S
Tb340 O357 2.427 . S
Tb340 O358 2.513 . S
C341 O345 1.251 . S
C341 O347 1.263 . S
Tb342 O344 2.343 . S
Tb342 O347 2.353 . S
Tb342 O350 2.427 . S
Tb342 O351 2.513 . S
Tb342 O352 2.453 . S
Tb342 O353 2.596 . S
Tb342 O354 2.374 . S
O343 Tb340 2.453 . S
O343 C359 1.245 . S
O344 Tb340 2.596 . S
O344 Tb342 2.343 . S
O344 C359 1.259 . S
O345 Tb340 2.374 . S
O345 C341 1.251 . S
C346 O350 1.275 . S
C346 O351 1.246 . S
O347 C341 1.263 . S
O347 Tb342 2.353 . S
C348 O352 1.245 . S
C348 O353 1.259 . S
C349 O354 1.250 . S
C349 O355 1.263 . S
O350 Tb342 2.427 . S
O350 C346 1.275 . S
O351 Tb342 2.513 . S
O351 C346 1.246 . S
O352 Tb342 2.453 . S
O352 C348 1.245 . S
O353 Tb340 2.343 . S
O353 Tb342 2.596 . S
O353 C348 1.259 . S
O354 Tb342 2.374 . S
O354 C349 1.250 . S
O355 Tb340 2.353 . S
O355 C349 1.263 . S
C356 O357 1.275 . S
C356 O358 1.246 . S
O357 Tb340 2.427 . S
O357 C356 1.275 . S
O358 Tb340 2.513 . S
O358 C356 1.246 . S
C359 O343 1.245 . S
C359 O344 1.259 . S
Tb360 O363 2.453 . S
Tb360 O364 2.596 . S
Tb360 O365 2.374 . S
Tb360 O373 2.343 . S
Tb360 O375 2.353 . S
Tb360 O377 2.427 . S
Tb360 O378 2.513 . S
C361 O365 1.251 . S
C361 O367 1.263 . S
Tb362 O364 2.343 . S
Tb362 O367 2.353 . S
Tb362 O370 2.427 . S
Tb362 O371 2.513 . S
Tb362 O372 2.453 . S
Tb362 O373 2.596 . S
Tb362 O374 2.374 . S
O363 Tb360 2.453 . S
O363 C379 1.245 . S
O364 Tb360 2.596 . S
O364 Tb362 2.343 . S
O364 C379 1.259 . S
O365 Tb360 2.374 . S
O365 C361 1.251 . S
C366 O370 1.275 . S
C366 O371 1.246 . S
O367 C361 1.263 . S
O367 Tb362 2.353 . S
C368 O372 1.245 . S
C368 O373 1.259 . S
C369 O374 1.250 . S
C369 O375 1.263 . S
O370 Tb362 2.427 . S
O370 C366 1.275 . S
O371 Tb362 2.513 . S
O371 C366 1.246 . S
O372 Tb362 2.453 . S
O372 C368 1.245 . S
O373 Tb360 2.343 . S
O373 Tb362 2.596 . S
O373 C368 1.259 . S
O374 Tb362 2.374 . S
O374 C369 1.250 . S
O375 Tb360 2.353 . S
O375 C369 1.263 . S
C376 O377 1.275 . S
C376 O378 1.246 . S
O377 Tb360 2.427 . S
O377 C376 1.275 . S
O378 Tb360 2.513 . S
O378 C376 1.246 . S
C379 O363 1.245 . S
C379 O364 1.259 . S
Tb380 O383 2.453 . S
Tb380 O384 2.596 . S
Tb380 O385 2.374 . S
Tb380 O393 2.343 . S
Tb380 O395 2.353 . S
Tb380 O397 2.427 . S
Tb380 O398 2.513 . S
C381 O385 1.251 . S
C381 O387 1.263 . S
Tb382 O384 2.343 . S
Tb382 O387 2.353 . S
Tb382 O390 2.427 . S
Tb382 O391 2.513 . S
Tb382 O392 2.453 . S
Tb382 O393 2.596 . S
Tb382 O394 2.374 . S
O383 Tb380 2.453 . S
O383 C399 1.245 . S
O384 Tb380 2.596 . S
O384 Tb382 2.343 . S
O384 C399 1.259 . S
O385 Tb380 2.374 . S
O385 C381 1.251 . S
C386 O390 1.275 . S
C386 O391 1.246 . S
O387 C381 1.263 . S
O387 Tb382 2.353 . S
C388 O392 1.245 . S
C388 O393 1.259 . S
C389 O394 1.250 . S
C389 O395 1.263 . S
O390 Tb382 2.427 . S
O390 C386 1.275 . S
O391 Tb382 2.513 . S
O391 C386 1.246 . S
O392 Tb382 2.453 . S
O392 C388 1.245 . S
O393 Tb380 2.343 . S
O393 Tb382 2.596 . S
O393 C388 1.259 . S
O394 Tb382 2.374 . S
O394 C389 1.250 . S
O395 Tb380 2.353 . S
O395 C389 1.263 . S
C396 O397 1.275 . S
C396 O398 1.246 . S
O397 Tb380 2.427 . S
O397 C396 1.275 . S
O398 Tb380 2.513 . S
O398 C396 1.246 . S
C399 O383 1.245 . S
C399 O384 1.259 . S
Tb400 O403 2.453 . S
Tb400 O404 2.596 . S
Tb400 O405 2.374 . S
Tb400 O413 2.343 . S
Tb400 O415 2.353 . S
Tb400 O417 2.427 . S
Tb400 O418 2.513 . S
C401 O405 1.251 . S
C401 O407 1.263 . S
Tb402 O404 2.343 . S
Tb402 O407 2.353 . S
Tb402 O410 2.427 . S
Tb402 O411 2.513 . S
Tb402 O412 2.453 . S
Tb402 O413 2.596 . S
Tb402 O414 2.374 . S
O403 Tb400 2.453 . S
O403 C419 1.245 . S
O404 Tb400 2.596 . S
O404 Tb402 2.343 . S
O404 C419 1.259 . S
O405 Tb400 2.374 . S
O405 C401 1.251 . S
C406 O410 1.275 . S
C406 O411 1.246 . S
O407 C401 1.263 . S
O407 Tb402 2.353 . S
C408 O412 1.245 . S
C408 O413 1.259 . S
C409 O414 1.250 . S
C409 O415 1.263 . S
O410 Tb402 2.427 . S
O410 C406 1.275 . S
O411 Tb402 2.513 . S
O411 C406 1.246 . S
O412 Tb402 2.453 . S
O412 C408 1.245 . S
O413 Tb400 2.343 . S
O413 Tb402 2.596 . S
O413 C408 1.259 . S
O414 Tb402 2.374 . S
O414 C409 1.250 . S
O415 Tb400 2.353 . S
O415 C409 1.263 . S
C416 O417 1.275 . S
C416 O418 1.246 . S
O417 Tb400 2.427 . S
O417 C416 1.275 . S
O418 Tb400 2.513 . S
O418 C416 1.246 . S
C419 O403 1.245 . S
C419 O404 1.259 . S
Tb420 O423 2.453 . S
Tb420 O424 2.596 . S
Tb420 O425 2.374 . S
Tb420 O433 2.343 . S
Tb420 O435 2.353 . S
Tb420 O437 2.427 . S
Tb420 O438 2.513 . S
C421 O425 1.251 . S
C421 O427 1.263 . S
Tb422 O424 2.343 . S
Tb422 O427 2.353 . S
Tb422 O430 2.427 . S
Tb422 O431 2.513 . S
Tb422 O432 2.453 . S
Tb422 O433 2.596 . S
Tb422 O434 2.374 . S
O423 Tb420 2.453 . S
O423 C439 1.245 . S
O424 Tb420 2.596 . S
O424 Tb422 2.343 . S
O424 C439 1.259 . S
O425 Tb420 2.374 . S
O425 C421 1.251 . S
C426 O430 1.275 . S
C426 O431 1.246 . S
O427 C421 1.263 . S
O427 Tb422 2.353 . S
C428 O432 1.245 . S
C428 O433 1.259 . S
C429 O434 1.250 . S
C429 O435 1.263 . S
O430 Tb422 2.427 . S
O430 C426 1.275 . S
O431 Tb422 2.513 . S
O431 C426 1.246 . S
O432 Tb422 2.453 . S
O432 C428 1.245 . S
O433 Tb420 2.343 . S
O433 Tb422 2.596 . S
O433 C428 1.259 . S
O434 Tb422 2.374 . S
O434 C429 1.250 . S
O435 Tb420 2.353 . S
O435 C429 1.263 . S
C436 O437 1.275 1_545 S
C436 O438 1.246 1_545 S
O437 Tb420 2.427 . S
O437 C436 1.275 1_565 S
O438 Tb420 2.513 . S
O438 C436 1.246 1_565 S
C439 O423 1.245 . S
C439 O424 1.259 . S
Tb440 O443 2.453 . S
Tb440 O444 2.596 . S
Tb440 O445 2.374 . S
Tb440 O453 2.343 . S
Tb440 O455 2.353 . S
Tb440 O457 2.427 . S
Tb440 O458 2.513 . S
C441 O445 1.251 . S
C441 O447 1.263 . S
Tb442 O444 2.343 . S
Tb442 O447 2.353 . S
Tb442 O450 2.427 . S
Tb442 O451 2.513 . S
Tb442 O452 2.453 . S
Tb442 O453 2.596 . S
Tb442 O454 2.374 . S
O443 Tb440 2.453 . S
O443 C459 1.245 . S
O444 Tb440 2.596 . S
O444 Tb442 2.343 . S
O444 C459 1.259 . S
O445 Tb440 2.374 . S
O445 C441 1.251 . S
C446 O450 1.275 . S
C446 O451 1.246 . S
O447 C441 1.263 . S
O447 Tb442 2.353 . S
C448 O452 1.245 . S
C448 O453 1.259 . S
C449 O454 1.250 . S
C449 O455 1.263 . S
O450 Tb442 2.427 . S
O450 C446 1.275 . S
O451 Tb442 2.513 . S
O451 C446 1.246 . S
O452 Tb442 2.453 . S
O452 C448 1.245 . S
O453 Tb440 2.343 . S
O453 Tb442 2.596 . S
O453 C448 1.259 . S
O454 Tb442 2.374 . S
O454 C449 1.250 . S
O455 Tb440 2.353 . S
O455 C449 1.263 . S
C456 O457 1.275 . S
C456 O458 1.246 . S
O457 Tb440 2.427 . S
O457 C456 1.275 . S
O458 Tb440 2.513 . S
O458 C456 1.246 . S
C459 O443 1.245 . S
C459 O444 1.259 . S
Tb460 O463 2.453 . S
Tb460 O464 2.596 . S
Tb460 O465 2.374 . S
Tb460 O473 2.343 . S
Tb460 O475 2.353 . S
Tb460 O477 2.427 . S
Tb460 O478 2.513 . S
C461 O465 1.251 . S
C461 O467 1.263 . S
Tb462 O464 2.343 . S
Tb462 O467 2.353 . S
Tb462 O470 2.427 . S
Tb462 O471 2.513 . S
Tb462 O472 2.453 . S
Tb462 O473 2.596 . S
Tb462 O474 2.374 . S
O463 Tb460 2.453 . S
O463 C479 1.245 . S
O464 Tb460 2.596 . S
O464 Tb462 2.343 . S
O464 C479 1.259 . S
O465 Tb460 2.374 . S
O465 C461 1.251 . S
C466 O470 1.275 . S
C466 O471 1.246 . S
O467 C461 1.263 . S
O467 Tb462 2.353 . S
C468 O472 1.245 . S
C468 O473 1.259 . S
C469 O474 1.250 . S
C469 O475 1.263 . S
O470 Tb462 2.427 . S
O470 C466 1.275 . S
O471 Tb462 2.513 . S
O471 C466 1.246 . S
O472 Tb462 2.453 . S
O472 C468 1.245 . S
O473 Tb460 2.343 . S
O473 Tb462 2.596 . S
O473 C468 1.259 . S
O474 Tb462 2.374 . S
O474 C469 1.250 . S
O475 Tb460 2.353 . S
O475 C469 1.263 . S
C476 O477 1.275 . S
C476 O478 1.246 . S
O477 Tb460 2.427 . S
O477 C476 1.275 . S
O478 Tb460 2.513 . S
O478 C476 1.246 . S
C479 O463 1.245 . S
C479 O464 1.259 . S
Tb480 O483 2.453 . S
Tb480 O484 2.596 . S
Tb480 O485 2.374 . S
Tb480 O493 2.343 . S
Tb480 O495 2.353 . S
Tb480 O497 2.427 . S
Tb480 O498 2.513 . S
C481 O485 1.251 . S
C481 O487 1.263 . S
Tb482 O484 2.343 . S
Tb482 O487 2.353 . S
Tb482 O490 2.427 . S
Tb482 O491 2.513 . S
Tb482 O492 2.453 . S
Tb482 O493 2.596 . S
Tb482 O494 2.374 . S
O483 Tb480 2.453 . S
O483 C499 1.245 . S
O484 Tb480 2.596 . S
O484 Tb482 2.343 . S
O484 C499 1.259 . S
O485 Tb480 2.374 . S
O485 C481 1.251 . S
C486 O490 1.275 . S
C486 O491 1.246 . S
O487 C481 1.263 . S
O487 Tb482 2.353 . S
C488 O492 1.245 . S
C488 O493 1.259 . S
C489 O494 1.250 . S
C489 O495 1.263 . S
O490 Tb482 2.427 . S
O490 C486 1.275 . S
O491 Tb482 2.513 . S
O491 C486 1.246 . S
O492 Tb482 2.453 . S
O492 C488 1.245 . S
O493 Tb480 2.343 . S
O493 Tb482 2.596 . S
O493 C488 1.259 . S
O494 Tb482 2.374 . S
O494 C489 1.250 . S
O495 Tb480 2.353 . S
O495 C489 1.263 . S
C496 O497 1.275 . S
C496 O498 1.246 . S
O497 Tb480 2.427 . S
O497 C496 1.275 . S
O498 Tb480 2.513 . S
O498 C496 1.246 . S
C499 O483 1.245 . S
C499 O484 1.259 . S
Tb500 O503 2.453 . S
Tb500 O504 2.596 . S
Tb500 O505 2.374 . S
Tb500 O513 2.343 . S
Tb500 O515 2.353 . S
Tb500 O517 2.427 . S
Tb500 O518 2.513 . S
C501 O505 1.251 . S
C501 O507 1.263 . S
Tb502 O504 2.343 . S
Tb502 O507 2.353 . S
Tb502 O510 2.427 . S
Tb502 O511 2.513 . S
Tb502 O512 2.453 . S
Tb502 O513 2.596 . S
Tb502 O514 2.374 . S
O503 Tb500 2.453 . S
O503 C519 1.245 . S
O504 Tb500 2.596 . S
O504 Tb502 2.343 . S
O504 C519 1.259 . S
O505 Tb500 2.374 . S
O505 C501 1.251 . S
C506 O510 1.275 . S
C506 O511 1.246 . S
O507 C501 1.263 . S
O507 Tb502 2.353 . S
C508 O512 1.245 . S
C508 O513 1.259 . S
C509 O514 1.250 . S
C509 O515 1.263 . S
O510 Tb502 2.427 . S
O510 C506 1.275 . S
O511 Tb502 2.513 . S
O511 C506 1.246 . S
O512 Tb502 2.453 . S
O512 C508 1.245 . S
O513 Tb500 2.343 . S
O513 Tb502 2.596 . S
O513 C508 1.259 . S
O514 Tb502 2.374 . S
O514 C509 1.250 . S
O515 Tb500 2.353 . S
O515 C509 1.263 . S
C516 O517 1.275 . S
C516 O518 1.246 . S
O517 Tb500 2.427 . S
O517 C516 1.275 . S
O518 Tb500 2.513 . S
O518 C516 1.246 . S
C519 O503 1.245 . S
C519 O504 1.259 . S
Tb520 O523 2.453 . S
Tb520 O524 2.596 . S
Tb520 O525 2.374 . S
Tb520 O533 2.343 . S
Tb520 O535 2.353 . S
Tb520 O537 2.427 . S
Tb520 O538 2.513 . S
C521 O525 1.251 . S
C521 O527 1.263 . S
Tb522 O524 2.343 . S
Tb522 O527 2.353 . S
Tb522 O530 2.427 . S
Tb522 O531 2.513 . S
Tb522 O532 2.453 . S
Tb522 O533 2.596 . S
Tb522 O534 2.374 . S
O523 Tb520 2.453 . S
O523 C539 1.245 . S
O524 Tb520 2.596 . S
O524 Tb522 2.343 . S
O524 C539 1.259 . S
O525 Tb520 2.374 . S
O525 C521 1.251 . S
C526 O530 1.275 . S
C526 O531 1.246 . S
O527 C521 1.263 . S
O527 Tb522 2.353 . S
C528 O532 1.245 . S
C528 O533 1.259 . S
C529 O534 1.250 . S
C529 O535 1.263 . S
O530 Tb522 2.427 . S
O530 C526 1.275 . S
O531 Tb522 2.513 . S
O531 C526 1.246 . S
O532 Tb522 2.453 . S
O532 C528 1.245 . S
O533 Tb520 2.343 . S
O533 Tb522 2.596 . S
O533 C528 1.259 . S
O534 Tb522 2.374 . S
O534 C529 1.250 . S
O535 Tb520 2.353 . S
O535 C529 1.263 . S
C536 O537 1.275 . S
C536 O538 1.246 . S
O537 Tb520 2.427 . S
O537 C536 1.275 . S
O538 Tb520 2.513 . S
O538 C536 1.246 . S
C539 O523 1.245 . S
C539 O524 1.259 . S
Tb540 O543 2.453 . S
Tb540 O544 2.596 . S
Tb540 O545 2.374 . S
Tb540 O553 2.343 . S
Tb540 O555 2.353 . S
Tb540 O557 2.427 . S
Tb540 O558 2.513 . S
C541 O545 1.251 . S
C541 O547 1.263 . S
Tb542 O544 2.343 . S
Tb542 O547 2.353 . S
Tb542 O550 2.427 . S
Tb542 O551 2.513 . S
Tb542 O552 2.453 . S
Tb542 O553 2.596 . S
Tb542 O554 2.374 . S
O543 Tb540 2.453 . S
O543 C559 1.245 . S
O544 Tb540 2.596 . S
O544 Tb542 2.343 . S
O544 C559 1.259 . S
O545 Tb540 2.374 . S
O545 C541 1.251 . S
C546 O550 1.275 . S
C546 O551 1.246 . S
O547 C541 1.263 . S
O547 Tb542 2.353 . S
C548 O552 1.245 . S
C548 O553 1.259 . S
C549 O554 1.250 . S
C549 O555 1.263 . S
O550 Tb542 2.427 . S
O550 C546 1.275 . S
O551 Tb542 2.513 . S
O551 C546 1.246 . S
O552 Tb542 2.453 . S
O552 C548 1.245 . S
O553 Tb540 2.343 . S
O553 Tb542 2.596 . S
O553 C548 1.259 . S
O554 Tb542 2.374 . S
O554 C549 1.250 . S
O555 Tb540 2.353 . S
O555 C549 1.263 . S
C556 O557 1.275 . S
C556 O558 1.246 . S
O557 Tb540 2.427 . S
O557 C556 1.275 . S
O558 Tb540 2.513 . S
O558 C556 1.246 . S
C559 O543 1.245 . S
C559 O544 1.259 . S
Tb560 O563 2.453 . S
Tb560 O564 2.596 . S
Tb560 O565 2.374 . S
Tb560 O573 2.343 . S
Tb560 O575 2.353 . S
Tb560 O577 2.427 . S
Tb560 O578 2.513 . S
C561 O565 1.251 . S
C561 O567 1.263 . S
Tb562 O564 2.343 . S
Tb562 O567 2.353 . S
Tb562 O570 2.427 . S
Tb562 O571 2.513 . S
Tb562 O572 2.453 . S
Tb562 O573 2.596 . S
Tb562 O574 2.374 . S
O563 Tb560 2.453 . S
O563 C579 1.245 . S
O564 Tb560 2.596 . S
O564 Tb562 2.343 . S
O564 C579 1.259 . S
O565 Tb560 2.374 . S
O565 C561 1.251 . S
C566 O570 1.275 1_455 S
C566 O571 1.246 1_455 S
O567 C561 1.263 . S
O567 Tb562 2.353 . S
C568 O572 1.245 . S
C568 O573 1.259 . S
C569 O574 1.250 . S
C569 O575 1.263 . S
O570 Tb562 2.427 . S
O570 C566 1.275 1_655 S
O571 Tb562 2.513 . S
O571 C566 1.246 1_655 S
O572 Tb562 2.453 . S
O572 C568 1.245 . S
O573 Tb560 2.343 . S
O573 Tb562 2.596 . S
O573 C568 1.259 . S
O574 Tb562 2.374 . S
O574 C569 1.250 . S
O575 Tb560 2.353 . S
O575 C569 1.263 . S
C576 O577 1.275 . S
C576 O578 1.246 . S
O577 Tb560 2.427 . S
O577 C576 1.275 . S
O578 Tb560 2.513 . S
O578 C576 1.246 . S
C579 O563 1.245 . S
C579 O564 1.259 . S
Tb580 O583 2.453 . S
Tb580 O584 2.596 . S
Tb580 O585 2.374 . S
Tb580 O593 2.343 . S
Tb580 O595 2.353 . S
Tb580 O597 2.427 . S
Tb580 O598 2.513 . S
C581 O585 1.251 . S
C581 O587 1.263 . S
Tb582 O584 2.343 . S
Tb582 O587 2.353 . S
Tb582 O590 2.427 . S
Tb582 O591 2.513 . S
Tb582 O592 2.453 . S
Tb582 O593 2.596 . S
Tb582 O594 2.374 . S
O583 Tb580 2.453 . S
O583 C599 1.245 . S
O584 Tb580 2.596 . S
O584 Tb582 2.343 . S
O584 C599 1.259 . S
O585 Tb580 2.374 . S
O585 C581 1.251 . S
C586 O590 1.275 . S
C586 O591 1.246 . S
O587 C581 1.263 . S
O587 Tb582 2.353 . S
C588 O592 1.245 . S
C588 O593 1.259 . S
C589 O594 1.250 . S
C589 O595 1.263 . S
O590 Tb582 2.427 . S
O590 C586 1.275 . S
O591 Tb582 2.513 . S
O591 C586 1.246 . S
O592 Tb582 2.453 . S
O592 C588 1.245 . S
O593 Tb580 2.343 . S
O593 Tb582 2.596 . S
O593 C588 1.259 . S
O594 Tb582 2.374 . S
O594 C589 1.250 . S
O595 Tb580 2.353 . S
O595 C589 1.263 . S
C596 O597 1.275 . S
C596 O598 1.246 . S
O597 Tb580 2.427 . S
O597 C596 1.275 . S
O598 Tb580 2.513 . S
O598 C596 1.246 . S
C599 O583 1.245 . S
C599 O584 1.259 . S
Tb600 O603 2.453 . S
Tb600 O604 2.596 . S
Tb600 O605 2.374 . S
Tb600 O613 2.343 . S
Tb600 O615 2.353 . S
Tb600 O617 2.427 . S
Tb600 O618 2.513 . S
C601 O605 1.251 . S
C601 O607 1.263 . S
Tb602 O604 2.343 . S
Tb602 O607 2.353 . S
Tb602 O610 2.427 . S
Tb602 O611 2.513 . S
Tb602 O612 2.453 . S
Tb602 O613 2.596 . S
Tb602 O614 2.374 . S
O603 Tb600 2.453 . S
O603 C619 1.245 . S
O604 Tb600 2.596 . S
O604 Tb602 2.343 . S
O604 C619 1.259 . S
O605 Tb600 2.374 . S
O605 C601 1.251 . S
C606 O610 1.275 . S
C606 O611 1.246 . S
O607 C601 1.263 . S
O607 Tb602 2.353 . S
C608 O612 1.245 . S
C608 O613 1.259 . S
C609 O614 1.250 . S
C609 O615 1.263 . S
O610 Tb602 2.427 . S
O610 C606 1.275 . S
O611 Tb602 2.513 . S
O611 C606 1.246 . S
O612 Tb602 2.453 . S
O612 C608 1.245 . S
O613 Tb600 2.343 . S
O613 Tb602 2.596 . S
O613 C608 1.259 . S
O614 Tb602 2.374 . S
O614 C609 1.250 . S
O615 Tb600 2.353 . S
O615 C609 1.263 . S
C616 O617 1.275 1_455 S
C616 O618 1.246 1_455 S
O617 Tb600 2.427 . S
O617 C616 1.275 1_655 S
O618 Tb600 2.513 . S
O618 C616 1.246 1_655 S
C619 O603 1.245 . S
C619 O604 1.259 . S
Tb620 O623 2.453 . S
Tb620 O624 2.596 . S
Tb620 O625 2.374 . S
Tb620 O633 2.343 . S
Tb620 O635 2.353 . S
Tb620 O637 2.427 . S
Tb620 O638 2.513 . S
C621 O625 1.251 . S
C621 O627 1.263 . S
Tb622 O624 2.343 . S
Tb622 O627 2.353 . S
Tb622 O630 2.427 . S
Tb622 O631 2.513 . S
Tb622 O632 2.453 . S
Tb622 O633 2.596 . S
Tb622 O634 2.374 . S
O623 Tb620 2.453 . S
O623 C639 1.245 . S
O624 Tb620 2.596 . S
O624 Tb622 2.343 . S
O624 C639 1.259 . S
O625 Tb620 2.374 . S
O625 C621 1.251 . S
C626 O630 1.275 . S
C626 O631 1.246 . S
O627 C621 1.263 . S
O627 Tb622 2.353 . S
C628 O632 1.245 . S
C628 O633 1.259 . S
C629 O634 1.250 . S
C629 O635 1.263 . S
O630 Tb622 2.427 . S
O630 C626 1.275 . S
O631 Tb622 2.513 . S
O631 C626 1.246 . S
O632 Tb622 2.453 . S
O632 C628 1.245 . S
O633 Tb620 2.343 . S
O633 Tb622 2.596 . S
O633 C628 1.259 . S
O634 Tb622 2.374 . S
O634 C629 1.250 . S
O635 Tb620 2.353 . S
O635 C629 1.263 . S
C636 O637 1.275 . S
C636 O638 1.246 . S
O637 Tb620 2.427 . S
O637 C636 1.275 . S
O638 Tb620 2.513 . S
O638 C636 1.246 . S
C639 O623 1.245 . S
C639 O624 1.259 . S
Tb640 O643 2.453 . S
Tb640 O644 2.596 . S
Tb640 O645 2.374 . S
Tb640 O653 2.343 . S
Tb640 O655 2.353 . S
Tb640 O657 2.427 . S
Tb640 O658 2.513 . S
C641 O645 1.251 . S
C641 O647 1.263 . S
Tb642 O644 2.343 . S
Tb642 O647 2.353 . S
Tb642 O650 2.427 . S
Tb642 O651 2.513 . S
Tb642 O652 2.453 . S
Tb642 O653 2.596 . S
Tb642 O654 2.374 . S
O643 Tb640 2.453 . S
O643 C659 1.245 . S
O644 Tb640 2.596 . S
O644 Tb642 2.343 . S
O644 C659 1.259 . S
O645 Tb640 2.374 . S
O645 C641 1.251 . S
C646 O650 1.275 . S
C646 O651 1.246 . S
O647 C641 1.263 . S
O647 Tb642 2.353 . S
C648 O652 1.245 . S
C648 O653 1.259 . S
C649 O654 1.250 . S
C649 O655 1.263 . S
O650 Tb642 2.427 . S
O650 C646 1.275 . S
O651 Tb642 2.513 . S
O651 C646 1.246 . S
O652 Tb642 2.453 . S
O652 C648 1.245 . S
O653 Tb640 2.343 . S
O653 Tb642 2.596 . S
O653 C648 1.259 . S
O654 Tb642 2.374 . S
O654 C649 1.250 . S
O655 Tb640 2.353 . S
O655 C649 1.263 . S
C656 O657 1.275 . S
C656 O658 1.246 . S
O657 Tb640 2.427 . S
O657 C656 1.275 . S
O658 Tb640 2.513 . S
O658 C656 1.246 . S
C659 O643 1.245 . S
C659 O644 1.259 . S
Tb660 O663 2.453 . S
Tb660 O664 2.596 . S
Tb660 O665 2.374 . S
Tb660 O673 2.343 . S
Tb660 O675 2.353 . S
Tb660 O677 2.427 . S
Tb660 O678 2.513 . S
C661 O665 1.251 . S
C661 O667 1.263 . S
Tb662 O664 2.343 . S
Tb662 O667 2.353 . S
Tb662 O670 2.427 . S
Tb662 O671 2.513 . S
Tb662 O672 2.453 . S
Tb662 O673 2.596 . S
Tb662 O674 2.374 . S
O663 Tb660 2.453 . S
O663 C679 1.245 . S
O664 Tb660 2.596 . S
O664 Tb662 2.343 . S
O664 C679 1.259 . S
O665 Tb660 2.374 . S
O665 C661 1.251 . S
C666 O670 1.275 . S
C666 O671 1.246 . S
O667 C661 1.263 . S
O667 Tb662 2.353 . S
C668 O672 1.245 . S
C668 O673 1.259 . S
C669 O674 1.250 . S
C669 O675 1.263 . S
O670 Tb662 2.427 . S
O670 C666 1.275 . S
O671 Tb662 2.513 . S
O671 C666 1.246 . S
O672 Tb662 2.453 . S
O672 C668 1.245 . S
O673 Tb660 2.343 . S
O673 Tb662 2.596 . S
O673 C668 1.259 . S
O674 Tb662 2.374 . S
O674 C669 1.250 . S
O675 Tb660 2.353 . S
O675 C669 1.263 . S
C676 O677 1.275 . S
C676 O678 1.246 . S
O677 Tb660 2.427 . S
O677 C676 1.275 . S
O678 Tb660 2.513 . S
O678 C676 1.246 . S
C679 O663 1.245 . S
C679 O664 1.259 . S
Tb680 O683 2.453 . S
Tb680 O684 2.596 . S
Tb680 O685 2.374 . S
Tb680 O693 2.343 . S
Tb680 O695 2.353 . S
Tb680 O697 2.427 . S
Tb680 O698 2.513 . S
C681 O685 1.251 . S
C681 O687 1.263 . S
Tb682 O684 2.343 . S
Tb682 O687 2.353 . S
Tb682 O690 2.427 . S
Tb682 O691 2.513 . S
Tb682 O692 2.453 . S
Tb682 O693 2.596 . S
Tb682 O694 2.374 . S
O683 Tb680 2.453 . S
O683 C699 1.245 . S
O684 Tb680 2.596 . S
O684 Tb682 2.343 . S
O684 C699 1.259 . S
O685 Tb680 2.374 . S
O685 C681 1.251 . S
C686 O690 1.275 . S
C686 O691 1.246 . S
O687 C681 1.263 . S
O687 Tb682 2.353 . S
C688 O692 1.245 . S
C688 O693 1.259 . S
C689 O694 1.250 . S
C689 O695 1.263 . S
O690 Tb682 2.427 . S
O690 C686 1.275 . S
O691 Tb682 2.513 . S
O691 C686 1.246 . S
O692 Tb682 2.453 . S
O692 C688 1.245 . S
O693 Tb680 2.343 . S
O693 Tb682 2.596 . S
O693 C688 1.259 . S
O694 Tb682 2.374 . S
O694 C689 1.250 . S
O695 Tb680 2.353 . S
O695 C689 1.263 . S
C696 O697 1.275 . S
C696 O698 1.246 . S
O697 Tb680 2.427 . S
O697 C696 1.275 . S
O698 Tb680 2.513 . S
O698 C696 1.246 . S
C699 O683 1.245 . S
C699 O684 1.259 . S
Tb700 O703 2.453 . S
Tb700 O704 2.596 . S
Tb700 O705 2.374 . S
Tb700 O713 2.343 . S
Tb700 O715 2.353 . S
Tb700 O717 2.427 . S
Tb700 O718 2.513 . S
C701 O705 1.251 . S
C701 O707 1.263 . S
Tb702 O704 2.343 . S
Tb702 O707 2.353 . S
Tb702 O710 2.427 . S
Tb702 O711 2.513 . S
Tb702 O712 2.453 . S
Tb702 O713 2.596 . S
Tb702 O714 2.374 . S
O703 Tb700 2.453 . S
O703 C719 1.245 . S
O704 Tb700 2.596 . S
O704 Tb702 2.343 . S
O704 C719 1.259 . S
O705 Tb700 2.374 . S
O705 C701 1.251 . S
C706 O710 1.275 . S
C706 O711 1.246 . S
O707 C701 1.263 . S
O707 Tb702 2.353 . S
C708 O712 1.245 . S
C708 O713 1.259 . S
C709 O714 1.250 . S
C709 O715 1.263 . S
O710 Tb702 2.427 . S
O710 C706 1.275 . S
O711 Tb702 2.513 . S
O711 C706 1.246 . S
O712 Tb702 2.453 . S
O712 C708 1.245 . S
O713 Tb700 2.343 . S
O713 Tb702 2.596 . S
O713 C708 1.259 . S
O714 Tb702 2.374 . S
O714 C709 1.250 . S
O715 Tb700 2.353 . S
O715 C709 1.263 . S
C716 O717 1.275 . S
C716 O718 1.246 . S
O717 Tb700 2.427 . S
O717 C716 1.275 . S
O718 Tb700 2.513 . S
O718 C716 1.246 . S
C719 O703 1.245 . S
C719 O704 1.259 . S
H720 C728 0.950 . S
H721 C733 0.950 . S
H722 C730 0.950 . S
H723 C732 0.950 . S
H724 C734 0.950 . S
H725 C736 0.950 . S
H726 C738 0.950 . S
H727 C739 0.950 . S
C728 H720 0.950 . S
C728 C729 1.386 . S
C728 C730 1.391 . S
C729 C728 1.386 . S
C729 C733 1.393 . S
C730 H722 0.950 . S
C730 C728 1.391 . S
C730 C731 1.400 . S
C731 C730 1.400 . S
C731 C732 1.398 . S
C731 C737 1.491 . S
C732 H723 0.950 . S
C732 C731 1.398 . S
C732 C733 1.391 . S
C733 H721 0.950 . S
C733 C729 1.393 . S
C733 C732 1.391 . S
C734 H724 0.950 . S
C734 C735 1.386 . S
C734 C736 1.391 . S
C735 C734 1.386 . S
C735 C739 1.393 . S
C736 H725 0.950 . S
C736 C734 1.391 . S
C736 C737 1.400 . S
C737 C731 1.491 . S
C737 C736 1.400 . S
C737 C738 1.398 . S
C738 H726 0.950 . S
C738 C737 1.398 . S
C738 C739 1.391 . S
C739 H727 0.950 . S
C739 C735 1.393 . S
C739 C738 1.391 . S
H740 C748 0.950 . S
H741 C753 0.950 . S
H742 C750 0.950 . S
H743 C752 0.950 . S
H744 C754 0.962 . S
H745 C756 0.950 . S
H746 C758 0.950 . S
H747 C759 0.950 . S
C748 H740 0.950 . S
C748 C749 1.386 . S
C748 C750 1.391 . S
C749 C748 1.386 . S
C749 C753 1.393 . S
C750 H742 0.950 . S
C750 C748 1.391 . S
C750 C751 1.400 . S
C751 C750 1.400 . S
C751 C752 1.398 . S
C751 C757 1.491 . S
C752 H743 0.950 . S
C752 C751 1.398 . S
C752 C753 1.391 . S
C753 H741 0.950 . S
C753 C749 1.393 . S
C753 C752 1.391 . S
C754 H744 0.962 . S
C754 C755 1.374 1_455 S
C754 C756 1.391 1_455 S
C755 C754 1.374 1_655 S
C755 C759 1.393 . S
C756 H745 0.950 . S
C756 C754 1.391 1_655 S
C756 C757 1.400 . S
C757 C751 1.491 . S
C757 C756 1.400 . S
C757 C758 1.398 . S
C758 H746 0.950 . S
C758 C757 1.398 . S
C758 C759 1.391 . S
C759 H747 0.950 . S
C759 C755 1.393 . S
C759 C758 1.391 . S
H760 C768 0.950 . S
H761 C773 0.950 . S
H762 C770 0.950 . S
H763 C772 0.950 . S
H764 C774 0.950 . S
H765 C776 0.950 . S
H766 C778 0.950 . S
H767 C779 0.950 . S
C768 H760 0.950 . S
C768 C769 1.386 . S
C768 C770 1.391 . S
C769 C768 1.386 . S
C769 C773 1.393 . S
C770 H762 0.950 . S
C770 C768 1.391 . S
C770 C771 1.400 . S
C771 C770 1.400 . S
C771 C772 1.398 . S
C771 C777 1.491 . S
C772 H763 0.950 . S
C772 C771 1.398 . S
C772 C773 1.391 . S
C773 H761 0.950 . S
C773 C769 1.393 . S
C773 C772 1.391 . S
C774 H764 0.950 . S
C774 C775 1.386 . S
C774 C776 1.391 . S
C775 C774 1.386 . S
C775 C779 1.393 . S
C776 H765 0.950 . S
C776 C774 1.391 . S
C776 C777 1.400 . S
C777 C771 1.491 . S
C777 C776 1.400 . S
C777 C778 1.398 . S
C778 H766 0.950 . S
C778 C777 1.398 . S
C778 C779 1.391 . S
C779 H767 0.950 . S
C779 C775 1.393 . S
C779 C778 1.391 . S
H780 C788 0.950 . S
H781 C793 0.950 . S
H782 C790 0.950 . S
H783 C792 0.950 . S
H784 C794 0.950 . S
H785 C796 0.950 . S
H786 C798 0.950 . S
H787 C799 0.950 . S
C788 H780 0.950 . S
C788 C789 1.386 . S
C788 C790 1.391 . S
C789 C788 1.386 . S
C789 C793 1.393 . S
C790 H782 0.950 . S
C790 C788 1.391 . S
C790 C791 1.400 . S
C791 C790 1.400 . S
C791 C792 1.398 . S
C791 C797 1.491 . S
C792 H783 0.950 . S
C792 C791 1.398 . S
C792 C793 1.391 . S
C793 H781 0.950 . S
C793 C789 1.393 . S
C793 C792 1.391 . S
C794 H784 0.950 . S
C794 C795 1.386 . S
C794 C796 1.391 . S
C795 C794 1.386 . S
C795 C799 1.393 . S
C796 H785 0.950 . S
C796 C794 1.391 . S
C796 C797 1.400 . S
C797 C791 1.491 . S
C797 C796 1.400 . S
C797 C798 1.398 . S
C798 H786 0.950 . S
C798 C797 1.398 . S
C798 C799 1.391 . S
C799 H787 0.950 . S
C799 C795 1.393 . S
C799 C798 1.391 . S
H800 C808 0.950 . S
H801 C813 0.950 . S
H802 C810 0.950 . S
H803 C812 0.950 . S
H804 C814 0.950 . S
H805 C816 0.950 . S
H806 C818 0.950 . S
H807 C819 0.950 . S
C808 H800 0.950 . S
C808 C809 1.386 . S
C808 C810 1.391 . S
C809 C808 1.386 . S
C809 C813 1.393 . S
C810 H802 0.950 . S
C810 C808 1.391 . S
C810 C811 1.400 . S
C811 C810 1.400 . S
C811 C812 1.398 . S
C811 C817 1.491 . S
C812 H803 0.950 . S
C812 C811 1.398 . S
C812 C813 1.391 . S
C813 H801 0.950 . S
C813 C809 1.393 . S
C813 C812 1.391 . S
C814 H804 0.950 . S
C814 C815 1.386 . S
C814 C816 1.391 . S
C815 C814 1.386 . S
C815 C819 1.393 . S
C816 H805 0.950 . S
C816 C814 1.391 . S
C816 C817 1.400 . S
C817 C811 1.491 . S
C817 C816 1.400 . S
C817 C818 1.398 . S
C818 H806 0.950 . S
C818 C817 1.398 . S
C818 C819 1.391 . S
C819 H807 0.950 . S
C819 C815 1.393 . S
C819 C818 1.391 . S
H820 C828 0.950 . S
H821 C833 0.950 . S
H822 C830 0.950 . S
H823 C832 0.950 . S
H824 C834 0.947 . S
H825 C836 0.950 . S
H826 C838 0.950 . S
H827 C839 0.950 . S
C828 H820 0.950 . S
C828 C829 1.386 . S
C828 C830 1.391 . S
C829 C828 1.386 . S
C829 C833 1.393 . S
C830 H822 0.950 . S
C830 C828 1.391 . S
C830 C831 1.400 . S
C831 C830 1.400 . S
C831 C832 1.398 . S
C831 C837 1.491 . S
C832 H823 0.950 . S
C832 C831 1.398 . S
C832 C833 1.391 . S
C833 H821 0.950 . S
C833 C829 1.393 . S
C833 C832 1.391 . S
C834 H824 0.947 . S
C834 C835 1.386 . S
C834 C836 1.391 . S
C835 C834 1.386 . S
C835 C839 1.393 . S
C836 H825 0.950 . S
C836 C834 1.391 . S
C836 C837 1.400 . S
C837 C831 1.491 . S
C837 C836 1.400 . S
C837 C838 1.398 . S
C838 H826 0.950 . S
C838 C837 1.398 . S
C838 C839 1.391 . S
C839 H827 0.950 . S
C839 C835 1.393 . S
C839 C838 1.391 . S
H840 C848 0.950 . S
H841 C853 0.950 . S
H842 C850 0.950 . S
H843 C852 0.950 . S
H844 C854 0.950 . S
H845 C856 0.950 . S
H846 C858 0.950 . S
H847 C859 0.950 . S
C848 H840 0.950 . S
C848 C849 1.386 . S
C848 C850 1.391 . S
C849 C848 1.386 . S
C849 C853 1.393 . S
C850 H842 0.950 . S
C850 C848 1.391 . S
C850 C851 1.400 . S
C851 C850 1.400 . S
C851 C852 1.398 . S
C851 C857 1.491 . S
C852 H843 0.950 . S
C852 C851 1.398 . S
C852 C853 1.391 . S
C853 H841 0.950 . S
C853 C849 1.393 . S
C853 C852 1.391 . S
C854 H844 0.950 . S
C854 C855 1.386 . S
C854 C856 1.391 . S
C855 C854 1.386 . S
C855 C859 1.393 . S
C856 H845 0.950 . S
C856 C854 1.391 . S
C856 C857 1.400 . S
C857 C851 1.491 . S
C857 C856 1.400 . S
C857 C858 1.398 . S
C858 H846 0.950 . S
C858 C857 1.398 . S
C858 C859 1.391 . S
C859 H847 0.950 . S
C859 C855 1.393 . S
C859 C858 1.391 . S
H860 C868 0.950 . S
H861 C873 0.950 . S
H862 C870 0.950 . S
H863 C872 0.950 . S
H864 C874 0.950 . S
H865 C876 0.950 . S
H866 C878 0.950 . S
H867 C879 0.950 . S
C868 H860 0.950 . S
C868 C869 1.386 . S
C868 C870 1.391 . S
C869 C868 1.386 . S
C869 C873 1.393 . S
C870 H862 0.950 . S
C870 C868 1.391 . S
C870 C871 1.400 . S
C871 C870 1.400 . S
C871 C872 1.398 . S
C871 C877 1.491 . S
C872 H863 0.950 . S
C872 C871 1.398 . S
C872 C873 1.391 . S
C873 H861 0.950 . S
C873 C869 1.393 . S
C873 C872 1.391 . S
C874 H864 0.950 . S
C874 C875 1.386 . S
C874 C876 1.391 . S
C875 C874 1.386 . S
C875 C879 1.393 . S
C876 H865 0.950 . S
C876 C874 1.391 . S
C876 C877 1.400 . S
C877 C871 1.491 . S
C877 C876 1.400 . S
C877 C878 1.398 . S
C878 H866 0.950 . S
C878 C877 1.398 . S
C878 C879 1.391 . S
C879 H867 0.950 . S
C879 C875 1.393 . S
C879 C878 1.391 . S
H880 C888 0.950 . S
H881 C893 0.950 . S
H882 C890 0.950 . S
H883 C892 0.950 . S
H884 C894 0.950 . S
H885 C896 0.950 . S
H886 C898 0.950 . S
H887 C899 0.950 . S
C888 H880 0.950 . S
C888 C889 1.386 . S
C888 C890 1.391 . S
C889 C888 1.386 . S
C889 C893 1.393 . S
C890 H882 0.950 . S
C890 C888 1.391 . S
C890 C891 1.400 . S
C891 C890 1.400 . S
C891 C892 1.398 . S
C891 C897 1.491 . S
C892 H883 0.950 . S
C892 C891 1.398 . S
C892 C893 1.391 . S
C893 H881 0.950 . S
C893 C889 1.393 . S
C893 C892 1.391 . S
C894 H884 0.950 . S
C894 C895 1.386 . S
C894 C896 1.391 . S
C895 C894 1.386 . S
C895 C899 1.393 . S
C896 H885 0.950 . S
C896 C894 1.391 . S
C896 C897 1.400 . S
C897 C891 1.491 . S
C897 C896 1.400 . S
C897 C898 1.398 . S
C898 H886 0.950 . S
C898 C897 1.398 . S
C898 C899 1.391 . S
C899 H887 0.950 . S
C899 C895 1.393 . S
C899 C898 1.391 . S
H900 C908 0.950 . S
H901 C913 0.950 . S
H902 C910 0.950 . S
H903 C912 0.950 . S
H904 C914 0.950 . S
H905 C916 0.950 . S
H906 C918 0.950 1_455 S
H907 C919 0.950 . S
C908 H900 0.950 . S
C908 C909 1.386 . S
C908 C910 1.391 . S
C909 C908 1.386 . S
C909 C913 1.393 . S
C910 H902 0.950 . S
C910 C908 1.391 . S
C910 C911 1.400 . S
C911 C910 1.400 . S
C911 C912 1.398 . S
C911 C917 1.491 . S
C912 H903 0.950 . S
C912 C911 1.398 . S
C912 C913 1.391 . S
C913 H901 0.950 . S
C913 C909 1.393 . S
C913 C912 1.391 . S
C914 H904 0.950 . S
C914 C915 1.386 . S
C914 C916 1.391 . S
C915 C914 1.386 . S
C915 C919 1.393 1_655 S
C916 H905 0.950 . S
C916 C914 1.391 . S
C916 C917 1.400 . S
C917 C911 1.491 . S
C917 C916 1.400 . S
C917 C918 1.398 . S
C918 H906 0.950 1_655 S
C918 C917 1.398 . S
C918 C919 1.391 1_655 S
C919 H907 0.950 . S
C919 C915 1.393 1_455 S
C919 C918 1.391 1_455 S
H920 C928 0.950 . S
H921 C933 0.950 . S
H922 C930 0.950 . S
H923 C932 0.950 . S
H924 C934 0.950 . S
H925 C936 0.950 . S
H926 C938 0.950 . S
H927 C939 0.950 . S
C928 H920 0.950 . S
C928 C929 1.386 . S
C928 C930 1.391 . S
C929 C928 1.386 . S
C929 C933 1.393 . S
C930 H922 0.950 . S
C930 C928 1.391 . S
C930 C931 1.400 . S
C931 C930 1.400 . S
C931 C932 1.398 . S
C931 C937 1.491 . S
C932 H923 0.950 . S
C932 C931 1.398 . S
C932 C933 1.391 . S
C933 H921 0.950 . S
C933 C929 1.393 . S
C933 C932 1.391 . S
C934 H924 0.950 . S
C934 C935 1.386 . S
C934 C936 1.391 . S
C935 C934 1.386 . S
C935 C939 1.393 . S
C936 H925 0.950 . S
C936 C934 1.391 . S
C936 C937 1.400 . S
C937 C931 1.491 . S
C937 C936 1.400 . S
C937 C938 1.398 . S
C938 H926 0.950 . S
C938 C937 1.398 . S
C938 C939 1.391 . S
C939 H927 0.950 . S
C939 C935 1.393 . S
C939 C938 1.391 . S
H940 C948 0.950 . S
H941 C953 0.950 . S
H942 C950 0.950 . S
H943 C952 0.950 . S
H944 C954 0.950 . S
H945 C956 0.950 . S
H946 C958 0.950 . S
H947 C959 0.950 . S
C948 H940 0.950 . S
C948 C949 1.386 . S
C948 C950 1.391 . S
C949 C948 1.386 . S
C949 C953 1.393 . S
C950 H942 0.950 . S
C950 C948 1.391 . S
C950 C951 1.400 . S
C951 C950 1.400 . S
C951 C952 1.398 . S
C951 C957 1.491 . S
C952 H943 0.950 . S
C952 C951 1.398 . S
C952 C953 1.391 . S
C953 H941 0.950 . S
C953 C949 1.393 . S
C953 C952 1.391 . S
C954 H944 0.950 . S
C954 C955 1.386 . S
C954 C956 1.391 . S
C955 C954 1.386 . S
C955 C959 1.393 . S
C956 H945 0.950 . S
C956 C954 1.391 . S
C956 C957 1.400 . S
C957 C951 1.491 . S
C957 C956 1.400 . S
C957 C958 1.398 . S
C958 H946 0.950 . S
C958 C957 1.398 . S
C958 C959 1.391 . S
C959 H947 0.950 . S
C959 C955 1.393 . S
C959 C958 1.391 . S
H960 C968 0.950 . S
H961 C973 0.950 . S
H962 C970 0.950 . S
H963 C972 0.950 . S
H964 C974 0.950 . S
H965 C976 0.950 . S
H966 C978 0.950 . S
H967 C979 0.950 . S
C968 H960 0.950 . S
C968 C969 1.386 . S
C968 C970 1.391 . S
C969 C968 1.386 . S
C969 C973 1.393 . S
C970 H962 0.950 . S
C970 C968 1.391 . S
C970 C971 1.400 . S
C971 C970 1.400 . S
C971 C972 1.398 . S
C971 C977 1.491 . S
C972 H963 0.950 . S
C972 C971 1.398 . S
C972 C973 1.391 . S
C973 H961 0.950 . S
C973 C969 1.393 . S
C973 C972 1.391 . S
C974 H964 0.950 . S
C974 C975 1.386 . S
C974 C976 1.391 . S
C975 C974 1.386 . S
C975 C979 1.393 . S
C976 H965 0.950 . S
C976 C974 1.391 . S
C976 C977 1.400 . S
C977 C971 1.491 . S
C977 C976 1.400 . S
C977 C978 1.398 . S
C978 H966 0.950 . S
C978 C977 1.398 . S
C978 C979 1.391 . S
C979 H967 0.950 . S
C979 C975 1.393 . S
C979 C978 1.391 . S
H980 C988 0.950 1_545 S
H981 C993 0.950 . S
H982 C990 0.950 . S
H983 C992 0.950 . S
H984 C994 0.950 . S
H985 C996 0.950 . S
H986 C998 0.950 . S
H987 C999 0.950 . S
C988 H980 0.950 1_565 S
C988 C989 1.386 . S
C988 C990 1.391 1_565 S
C989 C988 1.386 . S
C989 C993 1.393 . S
C990 H982 0.950 . S
C990 C988 1.391 1_545 S
C990 C991 1.400 . S
C991 C990 1.400 . S
C991 C992 1.398 1_545 S
C991 C997 1.491 . S
C992 H983 0.950 . S
C992 C991 1.398 1_565 S
C992 C993 1.391 . S
C993 H981 0.950 . S
C993 C989 1.393 . S
C993 C992 1.391 . S
C994 H984 0.950 . S
C994 C995 1.386 . S
C994 C996 1.391 . S
C995 C994 1.386 . S
C995 C999 1.393 . S
C996 H985 0.950 . S
C996 C994 1.391 . S
C996 C997 1.400 . S
C997 C991 1.491 . S
C997 C996 1.400 . S
C997 C998 1.398 . S
C998 H986 0.950 . S
C998 C997 1.398 . S
C998 C999 1.391 . S
C999 H987 0.950 . S
C999 C995 1.393 . S
C999 C998 1.391 . S
H1000 C1008 0.950 . S
H1001 C1013 0.950 . S
H1002 C1010 0.950 . S
H1003 C1012 0.950 . S
H1004 C1014 0.950 . S
H1005 C1016 0.950 . S
H1006 C1018 0.950 . S
H1007 C1019 0.950 . S
C1008 H1000 0.950 . S
C1008 C1009 1.386 . S
C1008 C1010 1.391 . S
C1009 C1008 1.386 . S
C1009 C1013 1.393 . S
C1010 H1002 0.950 . S
C1010 C1008 1.391 . S
C1010 C1011 1.400 1_655 S
C1011 C1010 1.400 1_455 S
C1011 C1012 1.398 . S
C1011 C1017 1.491 . S
C1012 H1003 0.950 . S
C1012 C1011 1.398 . S
C1012 C1013 1.391 1_455 S
C1013 H1001 0.950 . S
C1013 C1009 1.393 . S
C1013 C1012 1.391 1_655 S
C1014 H1004 0.950 . S
C1014 C1015 1.386 . S
C1014 C1016 1.391 . S
C1015 C1014 1.386 . S
C1015 C1019 1.393 . S
C1016 H1005 0.950 . S
C1016 C1014 1.391 . S
C1016 C1017 1.400 . S
C1017 C1011 1.491 . S
C1017 C1016 1.400 . S
C1017 C1018 1.398 . S
C1018 H1006 0.950 . S
C1018 C1017 1.398 . S
C1018 C1019 1.391 . S
C1019 H1007 0.950 . S
C1019 C1015 1.393 . S
C1019 C1018 1.391 . S
H1020 C1028 0.950 . S
H1021 C1033 0.950 . S
H1022 C1030 0.950 . S
H1023 C1032 0.950 . S
H1024 C1034 0.950 . S
H1025 C1036 0.950 . S
H1026 C1038 0.950 . S
H1027 C1039 0.950 . S
C1028 H1020 0.950 . S
C1028 C1029 1.386 . S
C1028 C1030 1.391 . S
C1029 C1028 1.386 . S
C1029 C1033 1.393 . S
C1030 H1022 0.950 . S
C1030 C1028 1.391 . S
C1030 C1031 1.400 . S
C1031 C1030 1.400 . S
C1031 C1032 1.398 . S
C1031 C1037 1.491 . S
C1032 H1023 0.950 . S
C1032 C1031 1.398 . S
C1032 C1033 1.391 . S
C1033 H1021 0.950 . S
C1033 C1029 1.393 . S
C1033 C1032 1.391 . S
C1034 H1024 0.950 . S
C1034 C1035 1.386 . S
C1034 C1036 1.391 . S
C1035 C1034 1.386 . S
C1035 C1039 1.393 . S
C1036 H1025 0.950 . S
C1036 C1034 1.391 . S
C1036 C1037 1.400 . S
C1037 C1031 1.491 . S
C1037 C1036 1.400 . S
C1037 C1038 1.398 . S
C1038 H1026 0.950 . S
C1038 C1037 1.398 . S
C1038 C1039 1.391 . S
C1039 H1027 0.950 . S
C1039 C1035 1.393 . S
C1039 C1038 1.391 . S
H1040 C1048 0.950 . S
H1041 C1053 0.950 . S
H1042 C1050 0.950 . S
H1043 C1052 0.950 . S
H1044 C1054 0.950 . S
H1045 C1056 0.950 . S
H1046 C1058 0.950 . S
H1047 C1059 0.950 . S
C1048 H1040 0.950 . S
C1048 C1049 1.386 . S
C1048 C1050 1.391 . S
C1049 C1048 1.386 . S
C1049 C1053 1.393 . S
C1050 H1042 0.950 . S
C1050 C1048 1.391 . S
C1050 C1051 1.400 1_565 S
C1051 C1050 1.400 1_545 S
C1051 C1052 1.398 . S
C1051 C1057 1.491 . S
C1052 H1043 0.950 . S
C1052 C1051 1.398 . S
C1052 C1053 1.391 1_545 S
C1053 H1041 0.950 . S
C1053 C1049 1.393 . S
C1053 C1052 1.391 1_565 S
C1054 H1044 0.950 . S
C1054 C1055 1.386 . S
C1054 C1056 1.391 . S
C1055 C1054 1.386 . S
C1055 C1059 1.393 . S
C1056 H1045 0.950 . S
C1056 C1054 1.391 . S
C1056 C1057 1.400 . S
C1057 C1051 1.491 . S
C1057 C1056 1.400 . S
C1057 C1058 1.398 . S
C1058 H1046 0.950 . S
C1058 C1057 1.398 . S
C1058 C1059 1.391 . S
C1059 H1047 0.950 . S
C1059 C1055 1.393 . S
C1059 C1058 1.391 . S
H1060 C1068 0.950 . S
H1061 C1073 0.950 . S
H1062 C1070 0.950 1_455 S
H1063 C1072 0.950 1_455 S
H1064 C1074 0.950 . S
H1065 C1076 0.950 . S
H1066 C1078 0.950 . S
H1067 C1079 0.950 . S
C1068 H1060 0.950 . S
C1068 C1069 1.386 . S
C1068 C1070 1.391 . S
C1069 C1068 1.386 . S
C1069 C1073 1.393 . S
C1070 H1062 0.950 1_655 S
C1070 C1068 1.391 . S
C1070 C1071 1.400 1_655 S
C1071 C1070 1.400 1_455 S
C1071 C1072 1.398 1_455 S
C1071 C1077 1.491 . S
C1072 H1063 0.950 1_655 S
C1072 C1071 1.398 1_655 S
C1072 C1073 1.391 . S
C1073 H1061 0.950 . S
C1073 C1069 1.393 . S
C1073 C1072 1.391 . S
C1074 H1064 0.950 . S
C1074 C1075 1.386 . S
C1074 C1076 1.391 . S
C1075 C1074 1.386 . S
C1075 C1079 1.393 . S
C1076 H1065 0.950 . S
C1076 C1074 1.391 . S
C1076 C1077 1.400 . S
C1077 C1071 1.491 . S
C1077 C1076 1.400 . S
C1077 C1078 1.398 . S
C1078 H1066 0.950 . S
C1078 C1077 1.398 . S
C1078 C1079 1.391 . S
C1079 H1067 0.950 . S
C1079 C1075 1.393 . S
C1079 C1078 1.391 . S
H1080 C1088 0.950 . S
H1081 C1093 0.950 . S
H1082 C1090 0.950 . S
H1083 C1092 0.950 . S
H1084 C1094 0.942 1_565 S
H1085 C1096 0.950 . S
H1086 C1098 0.950 . S
H1087 C1099 0.950 . S
C1088 H1080 0.950 . S
C1088 C1089 1.386 . S
C1088 C1090 1.391 . S
C1089 C1088 1.386 . S
C1089 C1093 1.393 1_545 S
C1090 H1082 0.950 . S
C1090 C1088 1.391 . S
C1090 C1091 1.400 . S
C1091 C1090 1.400 . S
C1091 C1092 1.398 1_545 S
C1091 C1097 1.491 1_554 S
C1092 H1083 0.950 . S
C1092 C1091 1.398 1_565 S
C1092 C1093 1.391 . S
C1093 H1081 0.950 . S
C1093 C1089 1.393 1_565 S
C1093 C1092 1.391 . S
C1094 H1084 0.942 1_545 S
C1094 C1095 1.394 . S
C1094 C1096 1.390 1_545 S
C1095 C1094 1.394 . S
C1095 C1099 1.393 . S
C1096 H1085 0.950 . S
C1096 C1094 1.390 1_565 S
C1096 C1097 1.400 1_565 S
C1097 C1091 1.491 1_556 S
C1097 C1096 1.400 1_545 S
C1097 C1098 1.398 . S
C1098 H1086 0.950 . S
C1098 C1097 1.398 . S
C1098 C1099 1.391 . S
C1099 H1087 0.950 . S
C1099 C1095 1.393 . S
C1099 C1098 1.391 . S
H1100 C1108 0.950 . S
H1101 C1113 0.950 . S
H1102 C1110 0.950 . S
H1103 C1112 0.950 . S
H1104 C1114 0.950 . S
H1105 C1116 0.950 . S
H1106 C1118 0.950 . S
H1107 C1119 0.950 . S
C1108 H1100 0.950 . S
C1108 C1109 1.386 . S
C1108 C1110 1.391 . S
C1109 C1108 1.386 . S
C1109 C1113 1.393 . S
C1110 H1102 0.950 . S
C1110 C1108 1.391 . S
C1110 C1111 1.400 . S
C1111 C1110 1.400 . S
C1111 C1112 1.398 . S
C1111 C1117 1.491 1_556 S
C1112 H1103 0.950 . S
C1112 C1111 1.398 . S
C1112 C1113 1.391 . S
C1113 H1101 0.950 . S
C1113 C1109 1.393 . S
C1113 C1112 1.391 . S
C1114 H1104 0.950 . S
C1114 C1115 1.386 . S
C1114 C1116 1.391 . S
C1115 C1114 1.386 . S
C1115 C1119 1.393 . S
C1116 H1105 0.950 . S
C1116 C1114 1.391 . S
C1116 C1117 1.400 . S
C1117 C1111 1.491 1_554 S
C1117 C1116 1.400 . S
C1117 C1118 1.398 . S
C1118 H1106 0.950 . S
C1118 C1117 1.398 . S
C1118 C1119 1.391 . S
C1119 H1107 0.950 . S
C1119 C1115 1.393 . S
C1119 C1118 1.391 . S
H1120 C1128 0.950 . S
H1121 C1133 0.950 . S
H1122 C1130 0.950 . S
H1123 C1132 0.950 . S
H1124 C1134 0.950 . S
H1125 C1136 0.950 . S
H1126 C1138 0.950 . S
H1127 C1139 0.950 . S
C1128 H1120 0.950 . S
C1128 C1129 1.386 . S
C1128 C1130 1.391 . S
C1129 C1128 1.386 . S
C1129 C1133 1.393 . S
C1130 H1122 0.950 . S
C1130 C1128 1.391 . S
C1130 C1131 1.400 . S
C1131 C1130 1.400 . S
C1131 C1132 1.398 . S
C1131 C1137 1.491 1_554 S
C1132 H1123 0.950 . S
C1132 C1131 1.398 . S
C1132 C1133 1.391 . S
C1133 H1121 0.950 . S
C1133 C1129 1.393 . S
C1133 C1132 1.391 . S
C1134 H1124 0.950 . S
C1134 C1135 1.386 . S
C1134 C1136 1.391 . S
C1135 C1134 1.386 . S
C1135 C1139 1.393 . S
C1136 H1125 0.950 . S
C1136 C1134 1.391 . S
C1136 C1137 1.400 . S
C1137 C1131 1.491 1_556 S
C1137 C1136 1.400 . S
C1137 C1138 1.398 . S
C1138 H1126 0.950 . S
C1138 C1137 1.398 . S
C1138 C1139 1.391 . S
C1139 H1127 0.950 . S
C1139 C1135 1.393 . S
C1139 C1138 1.391 . S
H1140 C1148 0.950 . S
H1141 C1153 0.950 . S
H1142 C1150 0.950 . S
H1143 C1152 0.950 . S
H1144 C1154 0.950 . S
H1145 C1156 0.950 . S
H1146 C1158 0.950 . S
H1147 C1159 0.950 . S
C1148 H1140 0.950 . S
C1148 C1149 1.386 1_655 S
C1148 C1150 1.391 . S
C1149 C1148 1.386 1_455 S
C1149 C1153 1.393 . S
C1150 H1142 0.950 . S
C1150 C1148 1.391 . S
C1150 C1151 1.400 1_655 S
C1151 C1150 1.400 1_455 S
C1151 C1152 1.398 . S
C1151 C1157 1.491 . S
C1152 H1143 0.950 . S
C1152 C1151 1.398 . S
C1152 C1153 1.391 . S
C1153 H1141 0.950 . S
C1153 C1149 1.393 . S
C1153 C1152 1.391 . S
C1154 H1144 0.950 . S
C1154 C1155 1.386 . S
C1154 C1156 1.391 . S
C1155 C1154 1.386 . S
C1155 C1159 1.393 1_455 S
C1156 H1145 0.950 . S
C1156 C1154 1.391 . S
C1156 C1157 1.400 . S
C1157 C1151 1.491 . S
C1157 C1156 1.400 . S
C1157 C1158 1.398 1_455 S
C1158 H1146 0.950 . S
C1158 C1157 1.398 1_655 S
C1158 C1159 1.391 . S
C1159 H1147 0.950 . S
C1159 C1155 1.393 1_655 S
C1159 C1158 1.391 . S
H1160 C1168 0.950 . S
H1161 C1173 0.950 . S
H1162 C1170 0.950 . S
H1163 C1172 0.950 . S
H1164 C1174 0.950 . S
H1165 C1176 0.950 . S
H1166 C1178 0.950 . S
H1167 C1179 0.950 . S
C1168 H1160 0.950 . S
C1168 C1169 1.386 . S
C1168 C1170 1.391 . S
C1169 C1168 1.386 . S
C1169 C1173 1.393 . S
C1170 H1162 0.950 . S
C1170 C1168 1.391 . S
C1170 C1171 1.400 . S
C1171 C1170 1.400 . S
C1171 C1172 1.398 . S
C1171 C1177 1.491 . S
C1172 H1163 0.950 . S
C1172 C1171 1.398 . S
C1172 C1173 1.391 . S
C1173 H1161 0.950 . S
C1173 C1169 1.393 . S
C1173 C1172 1.391 . S
C1174 H1164 0.950 . S
C1174 C1175 1.386 . S
C1174 C1176 1.391 . S
C1175 C1174 1.386 . S
C1175 C1179 1.393 . S
C1176 H1165 0.950 . S
C1176 C1174 1.391 . S
C1176 C1177 1.400 . S
C1177 C1171 1.491 . S
C1177 C1176 1.400 . S
C1177 C1178 1.398 . S
C1178 H1166 0.950 . S
C1178 C1177 1.398 . S
C1178 C1179 1.391 . S
C1179 H1167 0.950 . S
C1179 C1175 1.393 . S
C1179 C1178 1.391 . S
H1180 C1188 0.950 . S
H1181 C1193 0.950 . S
H1182 C1190 0.950 . S
H1183 C1192 0.950 . S
H1184 C1194 0.950 . S
H1185 C1196 0.950 . S
H1186 C1198 0.950 . S
H1187 C1199 0.950 . S
C1188 H1180 0.950 . S
C1188 C1189 1.386 . S
C1188 C1190 1.391 . S
C1189 C1188 1.386 . S
C1189 C1193 1.393 . S
C1190 H1182 0.950 . S
C1190 C1188 1.391 . S
C1190 C1191 1.400 . S
C1191 C1190 1.400 . S
C1191 C1192 1.398 . S
C1191 C1197 1.491 . S
C1192 H1183 0.950 . S
C1192 C1191 1.398 . S
C1192 C1193 1.391 . S
C1193 H1181 0.950 . S
C1193 C1189 1.393 . S
C1193 C1192 1.391 . S
C1194 H1184 0.950 . S
C1194 C1195 1.386 . S
C1194 C1196 1.391 . S
C1195 C1194 1.386 . S
C1195 C1199 1.393 . S
C1196 H1185 0.950 . S
C1196 C1194 1.391 . S
C1196 C1197 1.400 . S
C1197 C1191 1.491 . S
C1197 C1196 1.400 . S
C1197 C1198 1.398 . S
C1198 H1186 0.950 . S
C1198 C1197 1.398 . S
C1198 C1199 1.391 . S
C1199 H1187 0.950 . S
C1199 C1195 1.393 . S
C1199 C1198 1.391 . S
H1200 C1208 0.950 . S
H1201 C1213 0.950 . S
H1202 C1210 0.950 . S
H1203 C1212 0.950 . S
H1204 C1214 0.950 . S
H1205 C1216 0.950 . S
H1206 C1218 0.950 . S
H1207 C1219 0.950 . S
C1208 H1200 0.950 . S
C1208 C1209 1.386 . S
C1208 C1210 1.391 . S
C1209 C1208 1.386 . S
C1209 C1213 1.393 . S
C1210 H1202 0.950 . S
C1210 C1208 1.391 . S
C1210 C1211 1.400 . S
C1211 C1210 1.400 . S
C1211 C1212 1.398 . S
C1211 C1217 1.491 . S
C1212 H1203 0.950 . S
C1212 C1211 1.398 . S
C1212 C1213 1.391 . S
C1213 H1201 0.950 . S
C1213 C1209 1.393 . S
C1213 C1212 1.391 . S
C1214 H1204 0.950 . S
C1214 C1215 1.386 . S
C1214 C1216 1.391 . S
C1215 C1214 1.386 . S
C1215 C1219 1.393 . S
C1216 H1205 0.950 . S
C1216 C1214 1.391 . S
C1216 C1217 1.400 . S
C1217 C1211 1.491 . S
C1217 C1216 1.400 . S
C1217 C1218 1.398 . S
C1218 H1206 0.950 . S
C1218 C1217 1.398 . S
C1218 C1219 1.391 . S
C1219 H1207 0.950 . S
C1219 C1215 1.393 . S
C1219 C1218 1.391 . S
H1220 C1228 0.950 . S
H1221 C1233 0.950 . S
H1222 C1230 0.950 . S
H1223 C1232 0.950 . S
H1224 C1234 0.950 . S
H1225 C1236 0.950 . S
H1226 C1238 0.950 . S
H1227 C1239 0.950 . S
C1228 H1220 0.950 . S
C1228 C1229 1.386 . S
C1228 C1230 1.391 . S
C1229 C1228 1.386 . S
C1229 C1233 1.393 . S
C1230 H1222 0.950 . S
C1230 C1228 1.391 . S
C1230 C1231 1.400 . S
C1231 C1230 1.400 . S
C1231 C1232 1.398 . S
C1231 C1237 1.491 . S
C1232 H1223 0.950 . S
C1232 C1231 1.398 . S
C1232 C1233 1.391 . S
C1233 H1221 0.950 . S
C1233 C1229 1.393 . S
C1233 C1232 1.391 . S
C1234 H1224 0.950 . S
C1234 C1235 1.386 . S
C1234 C1236 1.391 . S
C1235 C1234 1.386 . S
C1235 C1239 1.393 . S
C1236 H1225 0.950 . S
C1236 C1234 1.391 . S
C1236 C1237 1.400 . S
C1237 C1231 1.491 . S
C1237 C1236 1.400 . S
C1237 C1238 1.398 . S
C1238 H1226 0.950 . S
C1238 C1237 1.398 . S
C1238 C1239 1.391 . S
C1239 H1227 0.950 . S
C1239 C1235 1.393 . S
C1239 C1238 1.391 . S
H1240 C1248 0.950 . S
H1241 C1253 0.950 . S
H1242 C1250 0.950 . S
H1243 C1252 0.950 . S
H1244 C1254 0.950 . S
H1245 C1256 0.950 . S
H1246 C1258 0.950 . S
H1247 C1259 0.950 . S
C1248 H1240 0.950 . S
C1248 C1249 1.386 . S
C1248 C1250 1.391 . S
C1249 C1248 1.386 . S
C1249 C1253 1.393 . S
C1250 H1242 0.950 . S
C1250 C1248 1.391 . S
C1250 C1251 1.400 . S
C1251 C1250 1.400 . S
C1251 C1252 1.398 . S
C1251 C1257 1.491 . S
C1252 H1243 0.950 . S
C1252 C1251 1.398 . S
C1252 C1253 1.391 . S
C1253 H1241 0.950 . S
C1253 C1249 1.393 . S
C1253 C1252 1.391 . S
C1254 H1244 0.950 . S
C1254 C1255 1.386 . S
C1254 C1256 1.391 . S
C1255 C1254 1.386 . S
C1255 C1259 1.393 . S
C1256 H1245 0.950 . S
C1256 C1254 1.391 . S
C1256 C1257 1.400 . S
C1257 C1251 1.491 . S
C1257 C1256 1.400 . S
C1257 C1258 1.398 . S
C1258 H1246 0.950 . S
C1258 C1257 1.398 . S
C1258 C1259 1.391 . S
C1259 H1247 0.950 . S
C1259 C1255 1.393 . S
C1259 C1258 1.391 . S
H1260 C1268 0.950 . S
H1261 C1273 0.950 . S
H1262 C1270 0.950 . S
H1263 C1272 0.950 . S
H1264 C1274 0.950 . S
H1265 C1276 0.950 . S
H1266 C1278 0.950 . S
H1267 C1279 0.950 . S
C1268 H1260 0.950 . S
C1268 C1269 1.386 . S
C1268 C1270 1.391 . S
C1269 C1268 1.386 . S
C1269 C1273 1.393 . S
C1270 H1262 0.950 . S
C1270 C1268 1.391 . S
C1270 C1271 1.400 . S
C1271 C1270 1.400 . S
C1271 C1272 1.398 . S
C1271 C1277 1.491 . S
C1272 H1263 0.950 . S
C1272 C1271 1.398 . S
C1272 C1273 1.391 . S
C1273 H1261 0.950 . S
C1273 C1269 1.393 . S
C1273 C1272 1.391 . S
C1274 H1264 0.950 . S
C1274 C1275 1.386 . S
C1274 C1276 1.391 . S
C1275 C1274 1.386 . S
C1275 C1279 1.393 . S
C1276 H1265 0.950 . S
C1276 C1274 1.391 . S
C1276 C1277 1.400 . S
C1277 C1271 1.491 . S
C1277 C1276 1.400 . S
C1277 C1278 1.398 . S
C1278 H1266 0.950 . S
C1278 C1277 1.398 . S
C1278 C1279 1.391 . S
C1279 H1267 0.950 . S
C1279 C1275 1.393 . S
C1279 C1278 1.391 . S
H1280 C1288 0.950 . S
H1281 C1293 0.950 . S
H1282 C1290 0.950 . S
H1283 C1292 0.950 . S
H1284 C1294 0.950 . S
H1285 C1296 0.950 . S
H1286 C1298 0.950 . S
H1287 C1299 0.950 . S
C1288 H1280 0.950 . S
C1288 C1289 1.386 . S
C1288 C1290 1.391 . S
C1289 C1288 1.386 . S
C1289 C1293 1.393 . S
C1290 H1282 0.950 . S
C1290 C1288 1.391 . S
C1290 C1291 1.400 . S
C1291 C1290 1.400 . S
C1291 C1292 1.398 . S
C1291 C1297 1.491 . S
C1292 H1283 0.950 . S
C1292 C1291 1.398 . S
C1292 C1293 1.391 . S
C1293 H1281 0.950 . S
C1293 C1289 1.393 . S
C1293 C1292 1.391 . S
C1294 H1284 0.950 . S
C1294 C1295 1.386 . S
C1294 C1296 1.391 . S
C1295 C1294 1.386 . S
C1295 C1299 1.393 . S
C1296 H1285 0.950 . S
C1296 C1294 1.391 . S
C1296 C1297 1.400 . S
C1297 C1291 1.491 . S
C1297 C1296 1.400 . S
C1297 C1298 1.398 . S
C1298 H1286 0.950 . S
C1298 C1297 1.398 . S
C1298 C1299 1.391 . S
C1299 H1287 0.950 . S
C1299 C1295 1.393 . S
C1299 C1298 1.391 . S
H1300 C1308 0.950 . S
H1301 C1313 0.950 . S
H1302 C1310 0.950 . S
H1303 C1312 0.950 . S
H1304 C1314 0.950 . S
H1305 C1316 0.950 . S
H1306 C1318 0.950 . S
H1307 C1319 0.950 . S
C1308 H1300 0.950 . S
C1308 C1309 1.386 . S
C1308 C1310 1.391 . S
C1309 C1308 1.386 . S
C1309 C1313 1.393 . S
C1310 H1302 0.950 . S
C1310 C1308 1.391 . S
C1310 C1311 1.400 . S
C1311 C1310 1.400 . S
C1311 C1312 1.398 . S
C1311 C1317 1.491 . S
C1312 H1303 0.950 . S
C1312 C1311 1.398 . S
C1312 C1313 1.391 . S
C1313 H1301 0.950 . S
C1313 C1309 1.393 . S
C1313 C1312 1.391 . S
C1314 H1304 0.950 . S
C1314 C1315 1.386 . S
C1314 C1316 1.391 . S
C1315 C1314 1.386 . S
C1315 C1319 1.393 . S
C1316 H1305 0.950 . S
C1316 C1314 1.391 . S
C1316 C1317 1.400 . S
C1317 C1311 1.491 . S
C1317 C1316 1.400 . S
C1317 C1318 1.398 . S
C1318 H1306 0.950 . S
C1318 C1317 1.398 . S
C1318 C1319 1.391 . S
C1319 H1307 0.950 . S
C1319 C1315 1.393 . S
C1319 C1318 1.391 . S
H1320 C1328 0.950 . S
H1321 C1333 0.950 . S
H1322 C1330 0.950 . S
H1323 C1332 0.950 . S
H1324 C1334 0.950 . S
H1325 C1336 0.950 . S
H1326 C1338 0.950 . S
H1327 C1339 0.950 . S
C1328 H1320 0.950 . S
C1328 C1329 1.386 . S
C1328 C1330 1.391 . S
C1329 C1328 1.386 . S
C1329 C1333 1.393 . S
C1330 H1322 0.950 . S
C1330 C1328 1.391 . S
C1330 C1331 1.400 . S
C1331 C1330 1.400 . S
C1331 C1332 1.398 . S
C1331 C1337 1.491 . S
C1332 H1323 0.950 . S
C1332 C1331 1.398 . S
C1332 C1333 1.391 . S
C1333 H1321 0.950 . S
C1333 C1329 1.393 . S
C1333 C1332 1.391 . S
C1334 H1324 0.950 . S
C1334 C1335 1.386 . S
C1334 C1336 1.391 . S
C1335 C1334 1.386 . S
C1335 C1339 1.393 . S
C1336 H1325 0.950 . S
C1336 C1334 1.391 . S
C1336 C1337 1.400 . S
C1337 C1331 1.491 . S
C1337 C1336 1.400 . S
C1337 C1338 1.398 . S
C1338 H1326 0.950 . S
C1338 C1337 1.398 . S
C1338 C1339 1.391 . S
C1339 H1327 0.950 . S
C1339 C1335 1.393 . S
C1339 C1338 1.391 . S
H1340 C1348 0.950 . S
H1341 C1353 0.950 . S
H1342 C1350 0.950 . S
H1343 C1352 0.950 . S
H1344 C1354 0.950 . S
H1345 C1356 0.950 . S
H1346 C1358 0.950 . S
H1347 C1359 0.950 . S
C1348 H1340 0.950 . S
C1348 C1349 1.386 . S
C1348 C1350 1.391 . S
C1349 C1348 1.386 . S
C1349 C1353 1.393 . S
C1350 H1342 0.950 . S
C1350 C1348 1.391 . S
C1350 C1351 1.400 . S
C1351 C1350 1.400 . S
C1351 C1352 1.398 . S
C1351 C1357 1.491 . S
C1352 H1343 0.950 . S
C1352 C1351 1.398 . S
C1352 C1353 1.391 . S
C1353 H1341 0.950 . S
C1353 C1349 1.393 . S
C1353 C1352 1.391 . S
C1354 H1344 0.950 . S
C1354 C1355 1.386 . S
C1354 C1356 1.391 . S
C1355 C1354 1.386 . S
C1355 C1359 1.393 . S
C1356 H1345 0.950 . S
C1356 C1354 1.391 . S
C1356 C1357 1.400 . S
C1357 C1351 1.491 . S
C1357 C1356 1.400 . S
C1357 C1358 1.398 . S
C1358 H1346 0.950 . S
C1358 C1357 1.398 . S
C1358 C1359 1.391 . S
C1359 H1347 0.950 . S
C1359 C1355 1.393 . S
C1359 C1358 1.391 . S
H1360 C1368 0.950 . S
H1361 C1373 0.950 . S
H1362 C1370 0.950 . S
H1363 C1372 0.950 . S
H1364 C1374 0.950 . S
H1365 C1376 0.950 . S
H1366 C1378 0.950 . S
H1367 C1379 0.950 . S
C1368 H1360 0.950 . S
C1368 C1369 1.386 . S
C1368 C1370 1.391 . S
C1369 C1368 1.386 . S
C1369 C1373 1.393 . S
C1370 H1362 0.950 . S
C1370 C1368 1.391 . S
C1370 C1371 1.400 . S
C1371 C1370 1.400 . S
C1371 C1372 1.398 . S
C1371 C1377 1.491 . S
C1372 H1363 0.950 . S
C1372 C1371 1.398 . S
C1372 C1373 1.391 . S
C1373 H1361 0.950 . S
C1373 C1369 1.393 . S
C1373 C1372 1.391 . S
C1374 H1364 0.950 . S
C1374 C1375 1.386 . S
C1374 C1376 1.391 . S
C1375 C1374 1.386 . S
C1375 C1379 1.393 . S
C1376 H1365 0.950 . S
C1376 C1374 1.391 . S
C1376 C1377 1.400 . S
C1377 C1371 1.491 . S
C1377 C1376 1.400 . S
C1377 C1378 1.398 . S
C1378 H1366 0.950 . S
C1378 C1377 1.398 . S
C1378 C1379 1.391 . S
C1379 H1367 0.950 . S
C1379 C1375 1.393 . S
C1379 C1378 1.391 . S
H1380 C1388 0.950 . S
H1381 C1393 0.950 . S
H1382 C1390 0.950 . S
H1383 C1392 0.950 . S
H1384 C1394 0.950 . S
H1385 C1396 0.950 . S
H1386 C1398 0.950 . S
H1387 C1399 0.950 . S
C1388 H1380 0.950 . S
C1388 C1389 1.386 . S
C1388 C1390 1.391 . S
C1389 C1388 1.386 . S
C1389 C1393 1.393 . S
C1390 H1382 0.950 . S
C1390 C1388 1.391 . S
C1390 C1391 1.400 . S
C1391 C1390 1.400 . S
C1391 C1392 1.398 . S
C1391 C1397 1.491 . S
C1392 H1383 0.950 . S
C1392 C1391 1.398 . S
C1392 C1393 1.391 . S
C1393 H1381 0.950 . S
C1393 C1389 1.393 . S
C1393 C1392 1.391 . S
C1394 H1384 0.950 . S
C1394 C1395 1.386 . S
C1394 C1396 1.391 . S
C1395 C1394 1.386 . S
C1395 C1399 1.393 . S
C1396 H1385 0.950 . S
C1396 C1394 1.391 . S
C1396 C1397 1.400 . S
C1397 C1391 1.491 . S
C1397 C1396 1.400 . S
C1397 C1398 1.398 . S
C1398 H1386 0.950 . S
C1398 C1397 1.398 . S
C1398 C1399 1.391 . S
C1399 H1387 0.950 . S
C1399 C1395 1.393 . S
C1399 C1398 1.391 . S
H1400 C1408 0.950 . S
H1401 C1413 0.950 . S
H1402 C1410 0.950 . S
H1403 C1412 0.950 . S
H1404 C1414 0.950 . S
H1405 C1416 0.950 . S
H1406 C1418 0.950 . S
H1407 C1419 0.950 . S
C1408 H1400 0.950 . S
C1408 C1409 1.386 . S
C1408 C1410 1.391 . S
C1409 C1408 1.386 . S
C1409 C1413 1.393 . S
C1410 H1402 0.950 . S
C1410 C1408 1.391 . S
C1410 C1411 1.400 . S
C1411 C1410 1.400 . S
C1411 C1412 1.398 . S
C1411 C1417 1.491 . S
C1412 H1403 0.950 . S
C1412 C1411 1.398 . S
C1412 C1413 1.391 . S
C1413 H1401 0.950 . S
C1413 C1409 1.393 . S
C1413 C1412 1.391 . S
C1414 H1404 0.950 . S
C1414 C1415 1.386 . S
C1414 C1416 1.391 . S
C1415 C1414 1.386 . S
C1415 C1419 1.393 . S
C1416 H1405 0.950 . S
C1416 C1414 1.391 . S
C1416 C1417 1.400 . S
C1417 C1411 1.491 . S
C1417 C1416 1.400 . S
C1417 C1418 1.398 . S
C1418 H1406 0.950 . S
C1418 C1417 1.398 . S
C1418 C1419 1.391 . S
C1419 H1407 0.950 . S
C1419 C1415 1.393 . S
C1419 C1418 1.391 . S
H1420 C1428 0.950 . S
H1421 C1433 0.950 . S
H1422 C1430 0.950 . S
H1423 C1432 0.950 . S
H1424 C1434 0.950 . S
H1425 C1436 0.950 . S
H1426 C1438 0.950 . S
H1427 C1439 0.950 . S
C1428 H1420 0.950 . S
C1428 C1429 1.386 . S
C1428 C1430 1.391 . S
C1429 C1428 1.386 . S
C1429 C1433 1.393 . S
C1430 H1422 0.950 . S
C1430 C1428 1.391 . S
C1430 C1431 1.400 . S
C1431 C1430 1.400 . S
C1431 C1432 1.398 . S
C1431 C1437 1.491 . S
C1432 H1423 0.950 . S
C1432 C1431 1.398 . S
C1432 C1433 1.391 . S
C1433 H1421 0.950 . S
C1433 C1429 1.393 . S
C1433 C1432 1.391 . S
C1434 H1424 0.950 . S
C1434 C1435 1.386 . S
C1434 C1436 1.391 . S
C1435 C1434 1.386 . S
C1435 C1439 1.393 . S
C1436 H1425 0.950 . S
C1436 C1434 1.391 . S
C1436 C1437 1.400 . S
C1437 C1431 1.491 . S
C1437 C1436 1.400 . S
C1437 C1438 1.398 . S
C1438 H1426 0.950 . S
C1438 C1437 1.398 . S
C1438 C1439 1.391 . S
C1439 H1427 0.950 . S
C1439 C1435 1.393 . S
C1439 C1438 1.391 . S
H1440 C1448 0.950 . S
H1441 C1453 0.950 . S
H1442 C1450 0.950 . S
H1443 C1452 0.950 . S
H1444 C1454 0.950 . S
H1445 C1456 0.950 . S
H1446 C1458 0.950 . S
H1447 C1459 0.950 . S
C1448 H1440 0.950 . S
C1448 C1449 1.386 . S
C1448 C1450 1.391 . S
C1449 C1448 1.386 . S
C1449 C1453 1.393 . S
C1450 H1442 0.950 . S
C1450 C1448 1.391 . S
C1450 C1451 1.400 . S
C1451 C1450 1.400 . S
C1451 C1452 1.398 . S
C1451 C1457 1.491 . S
C1452 H1443 0.950 . S
C1452 C1451 1.398 . S
C1452 C1453 1.391 . S
C1453 H1441 0.950 . S
C1453 C1449 1.393 . S
C1453 C1452 1.391 . S
C1454 H1444 0.950 . S
C1454 C1455 1.386 . S
C1454 C1456 1.391 . S
C1455 C1454 1.386 . S
C1455 C1459 1.393 . S
C1456 H1445 0.950 . S
C1456 C1454 1.391 . S
C1456 C1457 1.400 . S
C1457 C1451 1.491 . S
C1457 C1456 1.400 . S
C1457 C1458 1.398 . S
C1458 H1446 0.950 . S
C1458 C1457 1.398 . S
C1458 C1459 1.391 . S
C1459 H1447 0.950 . S
C1459 C1455 1.393 . S
C1459 C1458 1.391 . S
H1460 C1468 0.950 . S
H1461 C1473 0.950 . S
H1462 C1470 0.950 . S
H1463 C1472 0.950 . S
H1464 C1474 0.950 . S
H1465 C1476 0.950 . S
H1466 C1478 0.950 . S
H1467 C1479 0.950 . S
C1468 H1460 0.950 . S
C1468 C1469 1.386 . S
C1468 C1470 1.391 . S
C1469 C1468 1.386 . S
C1469 C1473 1.393 . S
C1470 H1462 0.950 . S
C1470 C1468 1.391 . S
C1470 C1471 1.400 . S
C1471 C1470 1.400 . S
C1471 C1472 1.398 . S
C1471 C1477 1.491 . S
C1472 H1463 0.950 . S
C1472 C1471 1.398 . S
C1472 C1473 1.391 . S
C1473 H1461 0.950 . S
C1473 C1469 1.393 . S
C1473 C1472 1.391 . S
C1474 H1464 0.950 . S
C1474 C1475 1.386 . S
C1474 C1476 1.391 . S
C1475 C1474 1.386 . S
C1475 C1479 1.393 . S
C1476 H1465 0.950 . S
C1476 C1474 1.391 . S
C1476 C1477 1.400 . S
C1477 C1471 1.491 . S
C1477 C1476 1.400 . S
C1477 C1478 1.398 . S
C1478 H1466 0.950 . S
C1478 C1477 1.398 . S
C1478 C1479 1.391 . S
C1479 H1467 0.950 . S
C1479 C1475 1.393 . S
C1479 C1478 1.391 . S
H1480 C1488 0.950 . S
H1481 C1493 0.950 . S
H1482 C1490 0.950 . S
H1483 C1492 0.950 . S
H1484 C1494 0.950 . S
H1485 C1496 0.950 . S
H1486 C1498 0.950 . S
H1487 C1499 0.950 . S
C1488 H1480 0.950 . S
C1488 C1489 1.386 . S
C1488 C1490 1.391 . S
C1489 C1488 1.386 . S
C1489 C1493 1.393 . S
C1490 H1482 0.950 . S
C1490 C1488 1.391 . S
C1490 C1491 1.400 . S
C1491 C1490 1.400 . S
C1491 C1492 1.398 . S
C1491 C1497 1.491 . S
C1492 H1483 0.950 . S
C1492 C1491 1.398 . S
C1492 C1493 1.391 . S
C1493 H1481 0.950 . S
C1493 C1489 1.393 . S
C1493 C1492 1.391 . S
C1494 H1484 0.950 . S
C1494 C1495 1.386 . S
C1494 C1496 1.391 . S
C1495 C1494 1.386 . S
C1495 C1499 1.393 . S
C1496 H1485 0.950 . S
C1496 C1494 1.391 . S
C1496 C1497 1.400 . S
C1497 C1491 1.491 . S
C1497 C1496 1.400 . S
C1497 C1498 1.398 . S
C1498 H1486 0.950 . S
C1498 C1497 1.398 . S
C1498 C1499 1.391 . S
C1499 H1487 0.950 . S
C1499 C1495 1.393 . S
C1499 C1498 1.391 . S
H1500 C1508 0.950 . S
H1501 C1513 0.950 . S
H1502 C1510 0.950 . S
H1503 C1512 0.950 . S
H1504 C1514 0.950 . S
H1505 C1516 0.950 . S
H1506 C1518 0.950 . S
H1507 C1519 0.950 . S
C1508 H1500 0.950 . S
C1508 C1509 1.386 . S
C1508 C1510 1.391 . S
C1509 C1508 1.386 . S
C1509 C1513 1.393 . S
C1510 H1502 0.950 . S
C1510 C1508 1.391 . S
C1510 C1511 1.400 . S
C1511 C1510 1.400 . S
C1511 C1512 1.398 . S
C1511 C1517 1.491 . S
C1512 H1503 0.950 . S
C1512 C1511 1.398 . S
C1512 C1513 1.391 . S
C1513 H1501 0.950 . S
C1513 C1509 1.393 . S
C1513 C1512 1.391 . S
C1514 H1504 0.950 . S
C1514 C1515 1.386 . S
C1514 C1516 1.391 . S
C1515 C1514 1.386 . S
C1515 C1519 1.393 . S
C1516 H1505 0.950 . S
C1516 C1514 1.391 . S
C1516 C1517 1.400 . S
C1517 C1511 1.491 . S
C1517 C1516 1.400 . S
C1517 C1518 1.398 . S
C1518 H1506 0.950 . S
C1518 C1517 1.398 . S
C1518 C1519 1.391 . S
C1519 H1507 0.950 . S
C1519 C1515 1.393 . S
C1519 C1518 1.391 . S
H1520 C1528 0.950 . S
H1521 C1533 0.950 . S
H1522 C1530 0.950 . S
H1523 C1532 0.950 . S
H1524 C1534 0.950 . S
H1525 C1536 0.950 . S
H1526 C1538 0.950 . S
H1527 C1539 0.950 . S
C1528 H1520 0.950 . S
C1528 C1529 1.386 . S
C1528 C1530 1.391 . S
C1529 C1528 1.386 . S
C1529 C1533 1.393 . S
C1530 H1522 0.950 . S
C1530 C1528 1.391 . S
C1530 C1531 1.400 . S
C1531 C1530 1.400 . S
C1531 C1532 1.398 . S
C1531 C1537 1.491 . S
C1532 H1523 0.950 . S
C1532 C1531 1.398 . S
C1532 C1533 1.391 . S
C1533 H1521 0.950 . S
C1533 C1529 1.393 . S
C1533 C1532 1.391 . S
C1534 H1524 0.950 . S
C1534 C1535 1.386 . S
C1534 C1536 1.391 . S
C1535 C1534 1.386 . S
C1535 C1539 1.393 . S
C1536 H1525 0.950 . S
C1536 C1534 1.391 . S
C1536 C1537 1.400 . S
C1537 C1531 1.491 . S
C1537 C1536 1.400 . S
C1537 C1538 1.398 . S
C1538 H1526 0.950 . S
C1538 C1537 1.398 . S
C1538 C1539 1.391 . S
C1539 H1527 0.950 . S
C1539 C1535 1.393 . S
C1539 C1538 1.391 . S
H1540 C1548 0.950 . S
H1541 C1553 0.950 . S
H1542 C1550 0.950 . S
H1543 C1552 0.950 . S
H1544 C1554 0.950 . S
H1545 C1556 0.950 . S
H1546 C1558 0.950 . S
H1547 C1559 0.950 . S
C1548 H1540 0.950 . S
C1548 C1549 1.386 . S
C1548 C1550 1.391 . S
C1549 C1548 1.386 . S
C1549 C1553 1.393 . S
C1550 H1542 0.950 . S
C1550 C1548 1.391 . S
C1550 C1551 1.400 . S
C1551 C1550 1.400 . S
C1551 C1552 1.398 . S
C1551 C1557 1.491 . S
C1552 H1543 0.950 . S
C1552 C1551 1.398 . S
C1552 C1553 1.391 . S
C1553 H1541 0.950 . S
C1553 C1549 1.393 . S
C1553 C1552 1.391 . S
C1554 H1544 0.950 . S
C1554 C1555 1.386 . S
C1554 C1556 1.391 . S
C1555 C1554 1.386 . S
C1555 C1559 1.393 . S
C1556 H1545 0.950 . S
C1556 C1554 1.391 . S
C1556 C1557 1.400 . S
C1557 C1551 1.491 . S
C1557 C1556 1.400 . S
C1557 C1558 1.398 . S
C1558 H1546 0.950 . S
C1558 C1557 1.398 . S
C1558 C1559 1.391 . S
C1559 H1547 0.950 . S
C1559 C1555 1.393 . S
C1559 C1558 1.391 . S
H1560 C1568 0.950 . S
H1561 C1573 0.950 . S
H1562 C1570 0.950 . S
H1563 C1572 0.950 . S
H1564 C1574 0.950 . S
H1565 C1576 0.950 . S
H1566 C1578 0.950 . S
H1567 C1579 0.950 . S
C1568 H1560 0.950 . S
C1568 C1569 1.386 . S
C1568 C1570 1.391 . S
C1569 C1568 1.386 . S
C1569 C1573 1.393 . S
C1570 H1562 0.950 . S
C1570 C1568 1.391 . S
C1570 C1571 1.400 . S
C1571 C1570 1.400 . S
C1571 C1572 1.398 . S
C1571 C1577 1.491 . S
C1572 H1563 0.950 . S
C1572 C1571 1.398 . S
C1572 C1573 1.391 . S
C1573 H1561 0.950 . S
C1573 C1569 1.393 . S
C1573 C1572 1.391 . S
C1574 H1564 0.950 . S
C1574 C1575 1.386 . S
C1574 C1576 1.391 . S
C1575 C1574 1.386 . S
C1575 C1579 1.393 . S
C1576 H1565 0.950 . S
C1576 C1574 1.391 . S
C1576 C1577 1.400 . S
C1577 C1571 1.491 . S
C1577 C1576 1.400 . S
C1577 C1578 1.398 . S
C1578 H1566 0.950 . S
C1578 C1577 1.398 . S
C1578 C1579 1.391 . S
C1579 H1567 0.950 . S
C1579 C1575 1.393 . S
C1579 C1578 1.391 . S
H1580 C1588 0.950 . S
H1581 C1593 0.950 . S
H1582 C1590 0.950 . S
H1583 C1592 0.950 . S
H1584 C1594 0.950 . S
H1585 C1596 0.950 . S
H1586 C1598 0.950 . S
H1587 C1599 0.950 . S
C1588 H1580 0.950 . S
C1588 C1589 1.386 . S
C1588 C1590 1.391 . S
C1589 C1588 1.386 . S
C1589 C1593 1.393 . S
C1590 H1582 0.950 . S
C1590 C1588 1.391 . S
C1590 C1591 1.400 . S
C1591 C1590 1.400 . S
C1591 C1592 1.398 . S
C1591 C1597 1.491 . S
C1592 H1583 0.950 . S
C1592 C1591 1.398 . S
C1592 C1593 1.391 . S
C1593 H1581 0.950 . S
C1593 C1589 1.393 . S
C1593 C1592 1.391 . S
C1594 H1584 0.950 . S
C1594 C1595 1.386 . S
C1594 C1596 1.391 . S
C1595 C1594 1.386 . S
C1595 C1599 1.393 . S
C1596 H1585 0.950 . S
C1596 C1594 1.391 . S
C1596 C1597 1.400 . S
C1597 C1591 1.491 . S
C1597 C1596 1.400 . S
C1597 C1598 1.398 . S
C1598 H1586 0.950 . S
C1598 C1597 1.398 . S
C1598 C1599 1.391 . S
C1599 H1587 0.950 . S
C1599 C1595 1.393 . S
C1599 C1598 1.391 . S
H1600 C1608 0.950 . S
H1601 C1613 0.950 . S
H1602 C1610 0.950 . S
H1603 C1612 0.950 . S
H1604 C1614 0.950 . S
H1605 C1616 0.950 . S
H1606 C1618 0.950 . S
H1607 C1619 0.950 . S
C1608 H1600 0.950 . S
C1608 C1609 1.386 . S
C1608 C1610 1.391 . S
C1609 C1608 1.386 . S
C1609 C1613 1.393 . S
C1610 H1602 0.950 . S
C1610 C1608 1.391 . S
C1610 C1611 1.400 . S
C1611 C1610 1.400 . S
C1611 C1612 1.398 . S
C1611 C1617 1.491 . S
C1612 H1603 0.950 . S
C1612 C1611 1.398 . S
C1612 C1613 1.391 . S
C1613 H1601 0.950 . S
C1613 C1609 1.393 . S
C1613 C1612 1.391 . S
C1614 H1604 0.950 . S
C1614 C1615 1.386 . S
C1614 C1616 1.391 . S
C1615 C1614 1.386 . S
C1615 C1619 1.393 . S
C1616 H1605 0.950 . S
C1616 C1614 1.391 . S
C1616 C1617 1.400 . S
C1617 C1611 1.491 . S
C1617 C1616 1.400 . S
C1617 C1618 1.398 . S
C1618 H1606 0.950 . S
C1618 C1617 1.398 . S
C1618 C1619 1.391 . S
C1619 H1607 0.950 . S
C1619 C1615 1.393 . S
C1619 C1618 1.391 . S
H1620 C1628 0.950 . S
H1621 C1633 0.950 . S
H1622 C1630 0.950 . S
H1623 C1632 0.950 . S
H1624 C1634 0.950 . S
H1625 C1636 0.950 . S
H1626 C1638 0.950 . S
H1627 C1639 0.950 . S
C1628 H1620 0.950 . S
C1628 C1629 1.386 . S
C1628 C1630 1.391 . S
C1629 C1628 1.386 . S
C1629 C1633 1.393 . S
C1630 H1622 0.950 . S
C1630 C1628 1.391 . S
C1630 C1631 1.400 . S
C1631 C1630 1.400 . S
C1631 C1632 1.398 . S
C1631 C1637 1.491 . S
C1632 H1623 0.950 . S
C1632 C1631 1.398 . S
C1632 C1633 1.391 . S
C1633 H1621 0.950 . S
C1633 C1629 1.393 . S
C1633 C1632 1.391 . S
C1634 H1624 0.950 . S
C1634 C1635 1.386 . S
C1634 C1636 1.391 . S
C1635 C1634 1.386 . S
C1635 C1639 1.393 . S
C1636 H1625 0.950 . S
C1636 C1634 1.391 . S
C1636 C1637 1.400 . S
C1637 C1631 1.491 . S
C1637 C1636 1.400 . S
C1637 C1638 1.398 . S
C1638 H1626 0.950 . S
C1638 C1637 1.398 . S
C1638 C1639 1.391 . S
C1639 H1627 0.950 . S
C1639 C1635 1.393 . S
C1639 C1638 1.391 . S
H1640 C1648 0.950 . S
H1641 C1653 0.950 . S
H1642 C1650 0.950 . S
H1643 C1652 0.950 . S
H1644 C1654 0.950 . S
H1645 C1656 0.950 . S
H1646 C1658 0.950 . S
H1647 C1659 0.950 . S
C1648 H1640 0.950 . S
C1648 C1649 1.386 . S
C1648 C1650 1.391 . S
C1649 C1648 1.386 . S
C1649 C1653 1.393 . S
C1650 H1642 0.950 . S
C1650 C1648 1.391 . S
C1650 C1651 1.400 . S
C1651 C1650 1.400 . S
C1651 C1652 1.398 . S
C1651 C1657 1.491 . S
C1652 H1643 0.950 . S
C1652 C1651 1.398 . S
C1652 C1653 1.391 . S
C1653 H1641 0.950 . S
C1653 C1649 1.393 . S
C1653 C1652 1.391 . S
C1654 H1644 0.950 . S
C1654 C1655 1.386 . S
C1654 C1656 1.391 . S
C1655 C1654 1.386 . S
C1655 C1659 1.393 . S
C1656 H1645 0.950 . S
C1656 C1654 1.391 . S
C1656 C1657 1.400 . S
C1657 C1651 1.491 . S
C1657 C1656 1.400 . S
C1657 C1658 1.398 . S
C1658 H1646 0.950 . S
C1658 C1657 1.398 . S
C1658 C1659 1.391 . S
C1659 H1647 0.950 . S
C1659 C1655 1.393 . S
C1659 C1658 1.391 . S
H1660 C1668 0.950 . S
H1661 C1673 0.950 . S
H1662 C1670 0.950 . S
H1663 C1672 0.950 . S
H1664 C1674 0.950 . S
H1665 C1676 0.950 . S
H1666 C1678 0.950 . S
H1667 C1679 0.950 . S
C1668 H1660 0.950 . S
C1668 C1669 1.386 . S
C1668 C1670 1.391 . S
C1669 C1668 1.386 . S
C1669 C1673 1.393 . S
C1670 H1662 0.950 . S
C1670 C1668 1.391 . S
C1670 C1671 1.400 . S
C1671 C1670 1.400 . S
C1671 C1672 1.398 . S
C1671 C1677 1.491 . S
C1672 H1663 0.950 . S
C1672 C1671 1.398 . S
C1672 C1673 1.391 . S
C1673 H1661 0.950 . S
C1673 C1669 1.393 . S
C1673 C1672 1.391 . S
C1674 H1664 0.950 . S
C1674 C1675 1.386 . S
C1674 C1676 1.391 . S
C1675 C1674 1.386 . S
C1675 C1679 1.393 . S
C1676 H1665 0.950 . S
C1676 C1674 1.391 . S
C1676 C1677 1.400 . S
C1677 C1671 1.491 . S
C1677 C1676 1.400 . S
C1677 C1678 1.398 . S
C1678 H1666 0.950 . S
C1678 C1677 1.398 . S
C1678 C1679 1.391 . S
C1679 H1667 0.950 . S
C1679 C1675 1.393 . S
C1679 C1678 1.391 . S
H1680 C1688 0.950 . S
H1681 C1693 0.950 . S
H1682 C1690 0.950 . S
H1683 C1692 0.950 . S
H1684 C1694 0.950 . S
H1685 C1696 0.950 . S
H1686 C1698 0.950 . S
H1687 C1699 0.950 . S
C1688 H1680 0.950 . S
C1688 C1689 1.386 . S
C1688 C1690 1.391 . S
C1689 C1688 1.386 . S
C1689 C1693 1.393 . S
C1690 H1682 0.950 . S
C1690 C1688 1.391 . S
C1690 C1691 1.400 . S
C1691 C1690 1.400 . S
C1691 C1692 1.398 . S
C1691 C1697 1.491 . S
C1692 H1683 0.950 . S
C1692 C1691 1.398 . S
C1692 C1693 1.391 . S
C1693 H1681 0.950 . S
C1693 C1689 1.393 . S
C1693 C1692 1.391 . S
C1694 H1684 0.950 . S
C1694 C1695 1.386 . S
C1694 C1696 1.391 . S
C1695 C1694 1.386 . S
C1695 C1699 1.393 . S
C1696 H1685 0.950 . S
C1696 C1694 1.391 . S
C1696 C1697 1.400 . S
C1697 C1691 1.491 . S
C1697 C1696 1.400 . S
C1697 C1698 1.398 . S
C1698 H1686 0.950 . S
C1698 C1697 1.398 . S
C1698 C1699 1.391 . S
C1699 H1687 0.950 . S
C1699 C1695 1.393 . S
C1699 C1698 1.391 . S
H1700 C1708 0.950 . S
H1701 C1713 0.950 . S
H1702 C1710 0.950 . S
H1703 C1712 0.950 . S
H1704 C1714 0.950 . S
H1705 C1716 0.950 . S
H1706 C1718 0.950 . S
H1707 C1719 0.950 . S
C1708 H1700 0.950 . S
C1708 C1709 1.386 1_655 S
C1708 C1710 1.391 . S
C1709 C1708 1.386 1_455 S
C1709 C1713 1.393 . S
C1710 H1702 0.950 . S
C1710 C1708 1.391 . S
C1710 C1711 1.400 . S
C1711 C1710 1.400 . S
C1711 C1712 1.398 . S
C1711 C1717 1.491 . S
C1712 H1703 0.950 . S
C1712 C1711 1.398 . S
C1712 C1713 1.391 1_655 S
C1713 H1701 0.950 . S
C1713 C1709 1.393 . S
C1713 C1712 1.391 1_455 S
C1714 H1704 0.950 . S
C1714 C1715 1.386 . S
C1714 C1716 1.391 1_565 S
C1715 C1714 1.386 . S
C1715 C1719 1.393 1_565 S
C1716 H1705 0.950 . S
C1716 C1714 1.391 1_545 S
C1716 C1717 1.400 . S
C1717 C1711 1.491 . S
C1717 C1716 1.400 . S
C1717 C1718 1.398 . S
C1718 H1706 0.950 . S
C1718 C1717 1.398 . S
C1718 C1719 1.391 . S
C1719 H1707 0.950 . S
C1719 C1715 1.393 1_545 S
C1719 C1718 1.391 . S
H1720 C1728 0.950 . S
H1721 C1733 0.950 . S
H1722 C1730 0.950 . S
H1723 C1732 0.950 . S
H1724 C1734 0.950 . S
H1725 C1736 0.950 1_655 S
H1726 C1738 0.950 . S
H1727 C1739 0.950 . S
C1728 H1720 0.950 . S
C1728 C1729 1.386 . S
C1728 C1730 1.391 . S
C1729 C1728 1.386 . S
C1729 C1733 1.393 . S
C1730 H1722 0.950 . S
C1730 C1728 1.391 . S
C1730 C1731 1.400 . S
C1731 C1730 1.400 . S
C1731 C1732 1.398 . S
C1731 C1737 1.491 1_655 S
C1732 H1723 0.950 . S
C1732 C1731 1.398 . S
C1732 C1733 1.391 . S
C1733 H1721 0.950 . S
C1733 C1729 1.393 . S
C1733 C1732 1.391 . S
C1734 H1724 0.950 . S
C1734 C1735 1.386 . S
C1734 C1736 1.391 . S
C1735 C1734 1.386 . S
C1735 C1739 1.393 . S
C1736 H1725 0.950 1_455 S
C1736 C1734 1.391 . S
C1736 C1737 1.400 . S
C1737 C1731 1.491 1_455 S
C1737 C1736 1.400 . S
C1737 C1738 1.398 . S
C1738 H1726 0.950 . S
C1738 C1737 1.398 . S
C1738 C1739 1.391 . S
C1739 H1727 0.950 . S
C1739 C1735 1.393 . S
C1739 C1738 1.391 . S
H1740 C1748 0.950 . S
H1741 C1753 0.950 . S
H1742 C1750 0.950 . S
H1743 C1752 0.950 . S
H1744 C1754 0.950 . S
H1745 C1756 0.950 . S
H1746 C1758 0.950 . S
H1747 C1759 0.950 . S
C1748 H1740 0.950 . S
C1748 C1749 1.386 . S
C1748 C1750 1.391 . S
C1749 C1748 1.386 . S
C1749 C1753 1.393 . S
C1750 H1742 0.950 . S
C1750 C1748 1.391 . S
C1750 C1751 1.400 . S
C1751 C1750 1.400 . S
C1751 C1752 1.398 . S
C1751 C1757 1.491 . S
C1752 H1743 0.950 . S
C1752 C1751 1.398 . S
C1752 C1753 1.391 . S
C1753 H1741 0.950 . S
C1753 C1749 1.393 . S
C1753 C1752 1.391 . S
C1754 H1744 0.950 . S
C1754 C1755 1.386 . S
C1754 C1756 1.391 . S
C1755 C1754 1.386 . S
C1755 C1759 1.393 . S
C1756 H1745 0.950 . S
C1756 C1754 1.391 . S
C1756 C1757 1.400 . S
C1757 C1751 1.491 . S
C1757 C1756 1.400 . S
C1757 C1758 1.398 . S
C1758 H1746 0.950 . S
C1758 C1757 1.398 . S
C1758 C1759 1.391 . S
C1759 H1747 0.950 . S
C1759 C1755 1.393 . S
C1759 C1758 1.391 . S
H1760 C1768 0.950 . S
H1761 C1773 0.950 . S
H1762 C1770 0.950 . S
H1763 C1772 0.950 . S
H1764 C1774 0.950 . S
H1765 C1776 0.950 . S
H1766 C1778 0.950 . S
H1767 C1779 0.950 . S
C1768 H1760 0.950 . S
C1768 C1769 1.386 . S
C1768 C1770 1.391 . S
C1769 C1768 1.386 . S
C1769 C1773 1.393 . S
C1770 H1762 0.950 . S
C1770 C1768 1.391 . S
C1770 C1771 1.400 . S
C1771 C1770 1.400 . S
C1771 C1772 1.398 . S
C1771 C1777 1.491 . S
C1772 H1763 0.950 . S
C1772 C1771 1.398 . S
C1772 C1773 1.391 . S
C1773 H1761 0.950 . S
C1773 C1769 1.393 . S
C1773 C1772 1.391 . S
C1774 H1764 0.950 . S
C1774 C1775 1.386 . S
C1774 C1776 1.391 . S
C1775 C1774 1.386 . S
C1775 C1779 1.393 . S
C1776 H1765 0.950 . S
C1776 C1774 1.391 . S
C1776 C1777 1.400 . S
C1777 C1771 1.491 . S
C1777 C1776 1.400 . S
C1777 C1778 1.398 . S
C1778 H1766 0.950 . S
C1778 C1777 1.398 . S
C1778 C1779 1.391 . S
C1779 H1767 0.950 . S
C1779 C1775 1.393 . S
C1779 C1778 1.391 . S
H1780 C1788 0.950 . S
H1781 C1793 0.950 . S
H1782 C1790 0.950 . S
H1783 C1792 0.950 . S
H1784 C1794 0.950 . S
H1785 C1796 0.950 . S
H1786 C1798 0.950 . S
H1787 C1799 0.950 . S
C1788 H1780 0.950 . S
C1788 C1789 1.386 . S
C1788 C1790 1.391 . S
C1789 C1788 1.386 . S
C1789 C1793 1.393 . S
C1790 H1782 0.950 . S
C1790 C1788 1.391 . S
C1790 C1791 1.400 . S
C1791 C1790 1.400 . S
C1791 C1792 1.398 . S
C1791 C1797 1.491 . S
C1792 H1783 0.950 . S
C1792 C1791 1.398 . S
C1792 C1793 1.391 . S
C1793 H1781 0.950 . S
C1793 C1789 1.393 . S
C1793 C1792 1.391 . S
C1794 H1784 0.950 . S
C1794 C1795 1.386 . S
C1794 C1796 1.391 . S
C1795 C1794 1.386 . S
C1795 C1799 1.393 . S
C1796 H1785 0.950 . S
C1796 C1794 1.391 . S
C1796 C1797 1.400 . S
C1797 C1791 1.491 . S
C1797 C1796 1.400 . S
C1797 C1798 1.398 . S
C1798 H1786 0.950 . S
C1798 C1797 1.398 . S
C1798 C1799 1.391 . S
C1799 H1787 0.950 . S
C1799 C1795 1.393 . S
C1799 C1798 1.391 . S
H1800 C1808 0.950 . S
H1801 C1813 0.950 . S
H1802 C1810 0.950 . S
H1803 C1812 0.950 . S
H1804 C1814 0.950 . S
H1805 C1816 0.950 . S
H1806 C1818 0.950 . S
H1807 C1819 0.950 . S
C1808 H1800 0.950 . S
C1808 C1809 1.386 . S
C1808 C1810 1.391 . S
C1809 C1808 1.386 . S
C1809 C1813 1.393 . S
C1810 H1802 0.950 . S
C1810 C1808 1.391 . S
C1810 C1811 1.400 . S
C1811 C1810 1.400 . S
C1811 C1812 1.398 . S
C1811 C1817 1.491 . S
C1812 H1803 0.950 . S
C1812 C1811 1.398 . S
C1812 C1813 1.391 . S
C1813 H1801 0.950 . S
C1813 C1809 1.393 . S
C1813 C1812 1.391 . S
C1814 H1804 0.950 . S
C1814 C1815 1.386 . S
C1814 C1816 1.391 . S
C1815 C1814 1.386 . S
C1815 C1819 1.393 . S
C1816 H1805 0.950 . S
C1816 C1814 1.391 . S
C1816 C1817 1.400 . S
C1817 C1811 1.491 . S
C1817 C1816 1.400 . S
C1817 C1818 1.398 . S
C1818 H1806 0.950 . S
C1818 C1817 1.398 . S
C1818 C1819 1.391 . S
C1819 H1807 0.950 . S
C1819 C1815 1.393 . S
C1819 C1818 1.391 . S
H1820 C1828 0.950 . S
H1821 C1833 0.950 . S
H1822 C1830 0.950 . S
H1823 C1832 0.950 . S
H1824 C1834 0.950 . S
H1825 C1836 0.950 . S
H1826 C1838 0.950 . S
H1827 C1839 0.950 . S
C1828 H1820 0.950 . S
C1828 C1829 1.386 . S
C1828 C1830 1.391 . S
C1829 C1828 1.386 . S
C1829 C1833 1.393 . S
C1830 H1822 0.950 . S
C1830 C1828 1.391 . S
C1830 C1831 1.400 . S
C1831 C1830 1.400 . S
C1831 C1832 1.398 . S
C1831 C1837 1.491 . S
C1832 H1823 0.950 . S
C1832 C1831 1.398 . S
C1832 C1833 1.391 . S
C1833 H1821 0.950 . S
C1833 C1829 1.393 . S
C1833 C1832 1.391 . S
C1834 H1824 0.950 . S
C1834 C1835 1.386 . S
C1834 C1836 1.391 . S
C1835 C1834 1.386 . S
C1835 C1839 1.393 . S
C1836 H1825 0.950 . S
C1836 C1834 1.391 . S
C1836 C1837 1.400 . S
C1837 C1831 1.491 . S
C1837 C1836 1.400 . S
C1837 C1838 1.398 . S
C1838 H1826 0.950 . S
C1838 C1837 1.398 . S
C1838 C1839 1.391 . S
C1839 H1827 0.950 . S
C1839 C1835 1.393 . S
C1839 C1838 1.391 . S
H1840 C1848 0.950 . S
H1841 C1853 0.950 . S
H1842 C1850 0.950 . S
H1843 C1852 0.950 . S
H1844 C1854 0.950 . S
H1845 C1856 0.950 . S
H1846 C1858 0.950 . S
H1847 C1859 0.950 . S
C1848 H1840 0.950 . S
C1848 C1849 1.386 . S
C1848 C1850 1.391 . S
C1849 C1848 1.386 . S
C1849 C1853 1.393 . S
C1850 H1842 0.950 . S
C1850 C1848 1.391 . S
C1850 C1851 1.400 . S
C1851 C1850 1.400 . S
C1851 C1852 1.398 . S
C1851 C1857 1.491 . S
C1852 H1843 0.950 . S
C1852 C1851 1.398 . S
C1852 C1853 1.391 . S
C1853 H1841 0.950 . S
C1853 C1849 1.393 . S
C1853 C1852 1.391 . S
C1854 H1844 0.950 . S
C1854 C1855 1.386 . S
C1854 C1856 1.391 . S
C1855 C1854 1.386 . S
C1855 C1859 1.393 . S
C1856 H1845 0.950 . S
C1856 C1854 1.391 . S
C1856 C1857 1.400 . S
C1857 C1851 1.491 . S
C1857 C1856 1.400 . S
C1857 C1858 1.398 . S
C1858 H1846 0.950 . S
C1858 C1857 1.398 . S
C1858 C1859 1.391 . S
C1859 H1847 0.950 . S
C1859 C1855 1.393 . S
C1859 C1858 1.391 . S
H1860 C1868 0.950 . S
H1861 C1873 0.950 . S
H1862 C1870 0.950 . S
H1863 C1872 0.950 . S
H1864 C1874 0.950 . S
H1865 C1876 0.950 . S
H1866 C1878 0.950 . S
H1867 C1879 0.950 . S
C1868 H1860 0.950 . S
C1868 C1869 1.386 . S
C1868 C1870 1.391 1_455 S
C1869 C1868 1.386 . S
C1869 C1873 1.393 1_455 S
C1870 H1862 0.950 . S
C1870 C1868 1.391 1_655 S
C1870 C1871 1.400 . S
C1871 C1870 1.400 . S
C1871 C1872 1.398 . S
C1871 C1877 1.491 . S
C1872 H1863 0.950 . S
C1872 C1871 1.398 . S
C1872 C1873 1.391 . S
C1873 H1861 0.950 . S
C1873 C1869 1.393 1_655 S
C1873 C1872 1.391 . S
C1874 H1864 0.950 . S
C1874 C1875 1.386 . S
C1874 C1876 1.391 . S
C1875 C1874 1.386 . S
C1875 C1879 1.393 . S
C1876 H1865 0.950 . S
C1876 C1874 1.391 . S
C1876 C1877 1.400 . S
C1877 C1871 1.491 . S
C1877 C1876 1.400 . S
C1877 C1878 1.398 . S
C1878 H1866 0.950 . S
C1878 C1877 1.398 . S
C1878 C1879 1.391 . S
C1879 H1867 0.950 . S
C1879 C1875 1.393 . S
C1879 C1878 1.391 . S
H1880 C1888 0.950 . S
H1881 C1893 0.950 . S
H1882 C1890 0.950 . S
H1883 C1892 0.950 . S
H1884 C1894 0.950 . S
H1885 C1896 0.950 . S
H1886 C1898 0.950 . S
H1887 C1899 0.950 . S
C1888 H1880 0.950 . S
C1888 C1889 1.386 . S
C1888 C1890 1.391 . S
C1889 C1888 1.386 . S
C1889 C1893 1.393 . S
C1890 H1882 0.950 . S
C1890 C1888 1.391 . S
C1890 C1891 1.400 . S
C1891 C1890 1.400 . S
C1891 C1892 1.398 . S
C1891 C1897 1.491 . S
C1892 H1883 0.950 . S
C1892 C1891 1.398 . S
C1892 C1893 1.391 . S
C1893 H1881 0.950 . S
C1893 C1889 1.393 . S
C1893 C1892 1.391 . S
C1894 H1884 0.950 . S
C1894 C1895 1.386 . S
C1894 C1896 1.391 1_565 S
C1895 C1894 1.386 . S
C1895 C1899 1.393 1_565 S
C1896 H1885 0.950 . S
C1896 C1894 1.391 1_545 S
C1896 C1897 1.400 . S
C1897 C1891 1.491 . S
C1897 C1896 1.400 . S
C1897 C1898 1.398 . S
C1898 H1886 0.950 . S
C1898 C1897 1.398 . S
C1898 C1899 1.391 . S
C1899 H1887 0.950 . S
C1899 C1895 1.393 1_545 S
C1899 C1898 1.391 . S
H1900 C1908 0.950 . S
H1901 C1913 0.950 . S
H1902 C1910 0.950 . S
H1903 C1912 0.950 . S
H1904 C1914 0.950 . S
H1905 C1916 0.950 1_655 S
H1906 C1918 0.950 . S
H1907 C1919 0.950 . S
C1908 H1900 0.950 . S
C1908 C1909 1.386 . S
C1908 C1910 1.391 . S
C1909 C1908 1.386 . S
C1909 C1913 1.393 . S
C1910 H1902 0.950 . S
C1910 C1908 1.391 . S
C1910 C1911 1.400 . S
C1911 C1910 1.400 . S
C1911 C1912 1.398 . S
C1911 C1917 1.491 1_655 S
C1912 H1903 0.950 . S
C1912 C1911 1.398 . S
C1912 C1913 1.391 . S
C1913 H1901 0.950 . S
C1913 C1909 1.393 . S
C1913 C1912 1.391 . S
C1914 H1904 0.950 . S
C1914 C1915 1.386 . S
C1914 C1916 1.391 . S
C1915 C1914 1.386 . S
C1915 C1919 1.393 . S
C1916 H1905 0.950 1_455 S
C1916 C1914 1.391 . S
C1916 C1917 1.400 . S
C1917 C1911 1.491 1_455 S
C1917 C1916 1.400 . S
C1917 C1918 1.398 . S
C1918 H1906 0.950 . S
C1918 C1917 1.398 . S
C1918 C1919 1.391 . S
C1919 H1907 0.950 . S
C1919 C1915 1.393 . S
C1919 C1918 1.391 . S
H1920 C1928 0.950 . S
H1921 C1933 0.950 . S
H1922 C1930 0.950 . S
H1923 C1932 0.950 . S
H1924 C1934 0.950 . S
H1925 C1936 0.950 . S
H1926 C1938 0.950 . S
H1927 C1939 0.950 . S
C1928 H1920 0.950 . S
C1928 C1929 1.386 . S
C1928 C1930 1.391 . S
C1929 C1928 1.386 . S
C1929 C1933 1.393 . S
C1930 H1922 0.950 . S
C1930 C1928 1.391 . S
C1930 C1931 1.400 . S
C1931 C1930 1.400 . S
C1931 C1932 1.398 . S
C1931 C1937 1.491 . S
C1932 H1923 0.950 . S
C1932 C1931 1.398 . S
C1932 C1933 1.391 . S
C1933 H1921 0.950 . S
C1933 C1929 1.393 . S
C1933 C1932 1.391 . S
C1934 H1924 0.950 . S
C1934 C1935 1.386 . S
C1934 C1936 1.391 . S
C1935 C1934 1.386 . S
C1935 C1939 1.393 . S
C1936 H1925 0.950 . S
C1936 C1934 1.391 . S
C1936 C1937 1.400 . S
C1937 C1931 1.491 . S
C1937 C1936 1.400 . S
C1937 C1938 1.398 . S
C1938 H1926 0.950 . S
C1938 C1937 1.398 . S
C1938 C1939 1.391 . S
C1939 H1927 0.950 . S
C1939 C1935 1.393 . S
C1939 C1938 1.391 . S
H1940 C1948 0.950 . S
H1941 C1953 0.950 . S
H1942 C1950 0.950 . S
H1943 C1952 0.950 . S
H1944 C1954 0.950 . S
H1945 C1956 0.950 . S
H1946 C1958 0.950 . S
H1947 C1959 0.950 . S
C1948 H1940 0.950 . S
C1948 C1949 1.386 . S
C1948 C1950 1.391 . S
C1949 C1948 1.386 . S
C1949 C1953 1.393 . S
C1950 H1942 0.950 . S
C1950 C1948 1.391 . S
C1950 C1951 1.400 . S
C1951 C1950 1.400 . S
C1951 C1952 1.398 . S
C1951 C1957 1.491 . S
C1952 H1943 0.950 . S
C1952 C1951 1.398 . S
C1952 C1953 1.391 . S
C1953 H1941 0.950 . S
C1953 C1949 1.393 . S
C1953 C1952 1.391 . S
C1954 H1944 0.950 . S
C1954 C1955 1.386 . S
C1954 C1956 1.391 . S
C1955 C1954 1.386 . S
C1955 C1959 1.393 . S
C1956 H1945 0.950 . S
C1956 C1954 1.391 . S
C1956 C1957 1.400 . S
C1957 C1951 1.491 . S
C1957 C1956 1.400 . S
C1957 C1958 1.398 . S
C1958 H1946 0.950 . S
C1958 C1957 1.398 . S
C1958 C1959 1.391 . S
C1959 H1947 0.950 . S
C1959 C1955 1.393 . S
C1959 C1958 1.391 . S
H1960 C1968 0.950 . S
H1961 C1973 0.950 . S
H1962 C1970 0.950 . S
H1963 C1972 0.950 . S
H1964 C1974 0.950 . S
H1965 C1976 0.950 . S
H1966 C1978 0.950 . S
H1967 C1979 0.950 . S
C1968 H1960 0.950 . S
C1968 C1969 1.386 . S
C1968 C1970 1.391 . S
C1969 C1968 1.386 . S
C1969 C1973 1.393 . S
C1970 H1962 0.950 . S
C1970 C1968 1.391 . S
C1970 C1971 1.400 . S
C1971 C1970 1.400 . S
C1971 C1972 1.398 . S
C1971 C1977 1.491 . S
C1972 H1963 0.950 . S
C1972 C1971 1.398 . S
C1972 C1973 1.391 . S
C1973 H1961 0.950 . S
C1973 C1969 1.393 . S
C1973 C1972 1.391 . S
C1974 H1964 0.950 . S
C1974 C1975 1.386 . S
C1974 C1976 1.391 . S
C1975 C1974 1.386 . S
C1975 C1979 1.393 . S
C1976 H1965 0.950 . S
C1976 C1974 1.391 . S
C1976 C1977 1.400 . S
C1977 C1971 1.491 . S
C1977 C1976 1.400 . S
C1977 C1978 1.398 . S
C1978 H1966 0.950 . S
C1978 C1977 1.398 . S
C1978 C1979 1.391 . S
C1979 H1967 0.950 . S
C1979 C1975 1.393 . S
C1979 C1978 1.391 . S
H1980 C1988 0.950 . S
H1981 C1993 0.950 . S
H1982 C1990 0.950 . S
H1983 C1992 0.950 . S
H1984 C1994 0.950 . S
H1985 C1996 0.950 . S
H1986 C1998 0.950 . S
H1987 C1999 0.950 . S
C1988 H1980 0.950 . S
C1988 C1989 1.386 . S
C1988 C1990 1.391 . S
C1989 C1988 1.386 . S
C1989 C1993 1.393 . S
C1990 H1982 0.950 . S
C1990 C1988 1.391 . S
C1990 C1991 1.400 . S
C1991 C1990 1.400 . S
C1991 C1992 1.398 . S
C1991 C1997 1.491 . S
C1992 H1983 0.950 . S
C1992 C1991 1.398 . S
C1992 C1993 1.391 . S
C1993 H1981 0.950 . S
C1993 C1989 1.393 . S
C1993 C1992 1.391 . S
C1994 H1984 0.950 . S
C1994 C1995 1.386 . S
C1994 C1996 1.391 . S
C1995 C1994 1.386 . S
C1995 C1999 1.393 . S
C1996 H1985 0.950 . S
C1996 C1994 1.391 . S
C1996 C1997 1.400 . S
C1997 C1991 1.491 . S
C1997 C1996 1.400 . S
C1997 C1998 1.398 . S
C1998 H1986 0.950 . S
C1998 C1997 1.398 . S
C1998 C1999 1.391 . S
C1999 H1987 0.950 . S
C1999 C1995 1.393 . S
C1999 C1998 1.391 . S
H2000 C2008 0.950 . S
H2001 C2013 0.950 . S
H2002 C2010 0.950 1_565 S
H2003 C2012 0.950 . S
H2004 C2014 0.950 . S
H2005 C2016 0.950 . S
H2006 C2018 0.950 . S
H2007 C2019 0.950 . S
C2008 H2000 0.950 . S
C2008 C2009 1.386 . S
C2008 C2010 1.391 . S
C2009 C2008 1.386 . S
C2009 C2013 1.393 . S
C2010 H2002 0.950 1_545 S
C2010 C2008 1.391 . S
C2010 C2011 1.400 . S
C2011 C2010 1.400 . S
C2011 C2012 1.398 . S
C2011 C2017 1.491 1_545 S
C2012 H2003 0.950 . S
C2012 C2011 1.398 . S
C2012 C2013 1.391 . S
C2013 H2001 0.950 . S
C2013 C2009 1.393 . S
C2013 C2012 1.391 . S
C2014 H2004 0.950 . S
C2014 C2015 1.386 . S
C2014 C2016 1.391 . S
C2015 C2014 1.386 . S
C2015 C2019 1.393 . S
C2016 H2005 0.950 . S
C2016 C2014 1.391 . S
C2016 C2017 1.400 . S
C2017 C2011 1.491 1_565 S
C2017 C2016 1.400 . S
C2017 C2018 1.398 . S
C2018 H2006 0.950 . S
C2018 C2017 1.398 . S
C2018 C2019 1.391 . S
C2019 H2007 0.950 . S
C2019 C2015 1.393 . S
C2019 C2018 1.391 . S
H2020 C2028 0.950 . S
H2021 C2033 0.950 . S
H2022 C2030 0.950 . S
H2023 C2032 0.950 . S
H2024 C2034 0.950 . S
H2025 C2036 0.950 . S
H2026 C2038 0.950 . S
H2027 C2039 0.950 . S
C2028 H2020 0.950 . S
C2028 C2029 1.386 1_565 S
C2028 C2030 1.391 . S
C2029 C2028 1.386 1_545 S
C2029 C2033 1.393 . S
C2030 H2022 0.950 . S
C2030 C2028 1.391 . S
C2030 C2031 1.400 . S
C2031 C2030 1.400 . S
C2031 C2032 1.398 . S
C2031 C2037 1.491 . S
C2032 H2023 0.950 . S
C2032 C2031 1.398 . S
C2032 C2033 1.391 1_565 S
C2033 H2021 0.950 . S
C2033 C2029 1.393 . S
C2033 C2032 1.391 1_545 S
C2034 H2024 0.950 . S
C2034 C2035 1.386 . S
C2034 C2036 1.391 1_655 S
C2035 C2034 1.386 . S
C2035 C2039 1.393 1_655 S
C2036 H2025 0.950 . S
C2036 C2034 1.391 1_455 S
C2036 C2037 1.400 . S
C2037 C2031 1.491 . S
C2037 C2036 1.400 . S
C2037 C2038 1.398 . S
C2038 H2026 0.950 . S
C2038 C2037 1.398 . S
C2038 C2039 1.391 . S
C2039 H2027 0.950 . S
C2039 C2035 1.393 1_455 S
C2039 C2038 1.391 . S
H2040 C2048 0.950 . S
H2041 C2053 0.950 . S
H2042 C2050 0.950 . S
H2043 C2052 0.950 . S
H2044 C2054 0.950 . S
H2045 C2056 0.950 . S
H2046 C2058 0.950 . S
H2047 C2059 0.950 . S
C2048 H2040 0.950 . S
C2048 C2049 1.386 . S
C2048 C2050 1.391 . S
C2049 C2048 1.386 . S
C2049 C2053 1.393 . S
C2050 H2042 0.950 . S
C2050 C2048 1.391 . S
C2050 C2051 1.400 . S
C2051 C2050 1.400 . S
C2051 C2052 1.398 . S
C2051 C2057 1.491 . S
C2052 H2043 0.950 . S
C2052 C2051 1.398 . S
C2052 C2053 1.391 . S
C2053 H2041 0.950 . S
C2053 C2049 1.393 . S
C2053 C2052 1.391 . S
C2054 H2044 0.950 . S
C2054 C2055 1.386 1_565 S
C2054 C2056 1.391 . S
C2055 C2054 1.386 1_545 S
C2055 C2059 1.393 . S
C2056 H2045 0.950 . S
C2056 C2054 1.391 . S
C2056 C2057 1.400 . S
C2057 C2051 1.491 . S
C2057 C2056 1.400 . S
C2057 C2058 1.398 . S
C2058 H2046 0.950 . S
C2058 C2057 1.398 . S
C2058 C2059 1.391 1_565 S
C2059 H2047 0.950 . S
C2059 C2055 1.393 . S
C2059 C2058 1.391 1_545 S
H2060 C2068 0.950 . S
H2061 C2073 0.950 . S
H2062 C2070 0.950 1_565 S
H2063 C2072 0.950 . S
H2064 C2074 0.950 . S
H2065 C2076 0.950 . S
H2066 C2078 0.950 . S
H2067 C2079 0.950 . S
C2068 H2060 0.950 . S
C2068 C2069 1.386 . S
C2068 C2070 1.391 . S
C2069 C2068 1.386 . S
C2069 C2073 1.393 . S
C2070 H2062 0.950 1_545 S
C2070 C2068 1.391 . S
C2070 C2071 1.400 . S
C2071 C2070 1.400 . S
C2071 C2072 1.398 . S
C2071 C2077 1.491 1_545 S
C2072 H2063 0.950 . S
C2072 C2071 1.398 . S
C2072 C2073 1.391 . S
C2073 H2061 0.950 . S
C2073 C2069 1.393 . S
C2073 C2072 1.391 . S
C2074 H2064 0.950 . S
C2074 C2075 1.386 . S
C2074 C2076 1.391 . S
C2075 C2074 1.386 . S
C2075 C2079 1.393 . S
C2076 H2065 0.950 . S
C2076 C2074 1.391 . S
C2076 C2077 1.400 . S
C2077 C2071 1.491 1_565 S
C2077 C2076 1.400 . S
C2077 C2078 1.398 . S
C2078 H2066 0.950 . S
C2078 C2077 1.398 . S
C2078 C2079 1.391 . S
C2079 H2067 0.950 . S
C2079 C2075 1.393 . S
C2079 C2078 1.391 . S
H2080 C2088 0.950 . S
H2081 C2093 0.950 . S
H2082 C2090 0.950 . S
H2083 C2092 0.950 . S
H2084 C2094 0.950 . S
H2085 C2096 0.950 . S
H2086 C2098 0.950 . S
H2087 C2099 0.950 . S
C2088 H2080 0.950 . S
C2088 C2089 1.386 . S
C2088 C2090 1.391 . S
C2089 C2088 1.386 . S
C2089 C2093 1.393 . S
C2090 H2082 0.950 . S
C2090 C2088 1.391 . S
C2090 C2091 1.400 . S
C2091 C2090 1.400 . S
C2091 C2092 1.398 . S
C2091 C2097 1.491 . S
C2092 H2083 0.950 . S
C2092 C2091 1.398 . S
C2092 C2093 1.391 . S
C2093 H2081 0.950 . S
C2093 C2089 1.393 . S
C2093 C2092 1.391 . S
C2094 H2084 0.950 . S
C2094 C2095 1.386 1_455 S
C2094 C2096 1.391 . S
C2095 C2094 1.386 1_655 S
C2095 C2099 1.393 . S
C2096 H2085 0.950 . S
C2096 C2094 1.391 . S
C2096 C2097 1.400 . S
C2097 C2091 1.491 . S
C2097 C2096 1.400 . S
C2097 C2098 1.398 . S
C2098 H2086 0.950 . S
C2098 C2097 1.398 . S
C2098 C2099 1.391 1_455 S
C2099 H2087 0.950 . S
C2099 C2095 1.393 . S
C2099 C2098 1.391 1_655 S
H2100 C2108 0.950 . S
H2101 C2113 0.950 . S
H2102 C2110 0.950 . S
H2103 C2112 0.950 . S
H2104 C2114 0.950 . S
H2105 C2116 0.950 . S
H2106 C2118 0.950 . S
H2107 C2119 0.950 . S
C2108 H2100 0.950 . S
C2108 C2109 1.386 . S
C2108 C2110 1.391 . S
C2109 C2108 1.386 . S
C2109 C2113 1.393 . S
C2110 H2102 0.950 . S
C2110 C2108 1.391 . S
C2110 C2111 1.400 . S
C2111 C2110 1.400 . S
C2111 C2112 1.398 . S
C2111 C2117 1.491 . S
C2112 H2103 0.950 . S
C2112 C2111 1.398 . S
C2112 C2113 1.391 . S
C2113 H2101 0.950 . S
C2113 C2109 1.393 . S
C2113 C2112 1.391 . S
C2114 H2104 0.950 . S
C2114 C2115 1.386 . S
C2114 C2116 1.391 . S
C2115 C2114 1.386 . S
C2115 C2119 1.393 . S
C2116 H2105 0.950 . S
C2116 C2114 1.391 . S
C2116 C2117 1.400 . S
C2117 C2111 1.491 . S
C2117 C2116 1.400 . S
C2117 C2118 1.398 . S
C2118 H2106 0.950 . S
C2118 C2117 1.398 . S
C2118 C2119 1.391 . S
C2119 H2107 0.950 . S
C2119 C2115 1.393 . S
C2119 C2118 1.391 . S
H2120 C2128 0.950 . S
H2121 C2133 0.950 . S
H2122 C2130 0.950 . S
H2123 C2132 0.950 . S
H2124 C2134 0.950 . S
H2125 C2136 0.950 . S
H2126 C2138 0.950 . S
H2127 C2139 0.950 . S
C2128 H2120 0.950 . S
C2128 C2129 1.386 . S
C2128 C2130 1.391 . S
C2129 C2128 1.386 . S
C2129 C2133 1.393 . S
C2130 H2122 0.950 . S
C2130 C2128 1.391 . S
C2130 C2131 1.400 . S
C2131 C2130 1.400 . S
C2131 C2132 1.398 . S
C2131 C2137 1.491 . S
C2132 H2123 0.950 . S
C2132 C2131 1.398 . S
C2132 C2133 1.391 . S
C2133 H2121 0.950 . S
C2133 C2129 1.393 . S
C2133 C2132 1.391 . S
C2134 H2124 0.950 . S
C2134 C2135 1.386 . S
C2134 C2136 1.391 . S
C2135 C2134 1.386 . S
C2135 C2139 1.393 . S
C2136 H2125 0.950 . S
C2136 C2134 1.391 . S
C2136 C2137 1.400 . S
C2137 C2131 1.491 . S
C2137 C2136 1.400 . S
C2137 C2138 1.398 . S
C2138 H2126 0.950 . S
C2138 C2137 1.398 . S
C2138 C2139 1.391 . S
C2139 H2127 0.950 . S
C2139 C2135 1.393 . S
C2139 C2138 1.391 . S
H2140 C2148 0.950 . S
H2141 C2153 0.950 . S
H2142 C2150 0.950 . S
H2143 C2152 0.950 . S
H2144 C2154 0.950 . S
H2145 C2156 0.950 . S
H2146 C2158 0.950 . S
H2147 C2159 0.950 . S
C2148 H2140 0.950 . S
C2148 C2149 1.386 . S
C2148 C2150 1.391 . S
C2149 C2148 1.386 . S
C2149 C2153 1.393 . S
C2150 H2142 0.950 . S
C2150 C2148 1.391 . S
C2150 C2151 1.400 . S
C2151 C2150 1.400 . S
C2151 C2152 1.398 . S
C2151 C2157 1.491 . S
C2152 H2143 0.950 . S
C2152 C2151 1.398 . S
C2152 C2153 1.391 . S
C2153 H2141 0.950 . S
C2153 C2149 1.393 . S
C2153 C2152 1.391 . S
C2154 H2144 0.950 . S
C2154 C2155 1.386 . S
C2154 C2156 1.391 . S
C2155 C2154 1.386 . S
C2155 C2159 1.393 . S
C2156 H2145 0.950 . S
C2156 C2154 1.391 . S
C2156 C2157 1.400 . S
C2157 C2151 1.491 . S
C2157 C2156 1.400 . S
C2157 C2158 1.398 . S
C2158 H2146 0.950 . S
C2158 C2157 1.398 . S
C2158 C2159 1.391 . S
C2159 H2147 0.950 . S
C2159 C2155 1.393 . S
C2159 C2158 1.391 . S
H2160 C2168 0.950 . S
H2161 C2173 0.950 . S
H2162 C2170 0.950 . S
H2163 C2172 0.950 . S
H2164 C2174 0.950 . S
H2165 C2176 0.950 . S
H2166 C2178 0.950 . S
H2167 C2179 0.950 . S
C2168 H2160 0.950 . S
C2168 C2169 1.386 . S
C2168 C2170 1.391 . S
C2169 C2168 1.386 . S
C2169 C2173 1.393 . S
C2170 H2162 0.950 . S
C2170 C2168 1.391 . S
C2170 C2171 1.400 . S
C2171 C2170 1.400 . S
C2171 C2172 1.398 . S
C2171 C2177 1.491 . S
C2172 H2163 0.950 . S
C2172 C2171 1.398 . S
C2172 C2173 1.391 . S
C2173 H2161 0.950 . S
C2173 C2169 1.393 . S
C2173 C2172 1.391 . S
C2174 H2164 0.950 . S
C2174 C2175 1.386 . S
C2174 C2176 1.391 . S
C2175 C2174 1.386 . S
C2175 C2179 1.393 . S
C2176 H2165 0.950 . S
C2176 C2174 1.391 . S
C2176 C2177 1.400 . S
C2177 C2171 1.491 . S
C2177 C2176 1.400 . S
C2177 C2178 1.398 . S
C2178 H2166 0.950 . S
C2178 C2177 1.398 . S
C2178 C2179 1.391 . S
C2179 H2167 0.950 . S
C2179 C2175 1.393 . S
C2179 C2178 1.391 . S
H2180 C2188 0.950 . S
H2181 C2193 0.950 . S
H2182 C2190 0.950 . S
H2183 C2192 0.950 . S
H2184 C2194 0.950 . S
H2185 C2196 0.950 . S
H2186 C2198 0.950 . S
H2187 C2199 0.950 . S
C2188 H2180 0.950 . S
C2188 C2189 1.386 . S
C2188 C2190 1.391 . S
C2189 C2188 1.386 . S
C2189 C2193 1.393 . S
C2190 H2182 0.950 . S
C2190 C2188 1.391 . S
C2190 C2191 1.400 . S
C2191 C2190 1.400 . S
C2191 C2192 1.398 . S
C2191 C2197 1.491 . S
C2192 H2183 0.950 . S
C2192 C2191 1.398 . S
C2192 C2193 1.391 . S
C2193 H2181 0.950 . S
C2193 C2189 1.393 . S
C2193 C2192 1.391 . S
C2194 H2184 0.950 . S
C2194 C2195 1.386 . S
C2194 C2196 1.391 . S
C2195 C2194 1.386 . S
C2195 C2199 1.393 . S
C2196 H2185 0.950 . S
C2196 C2194 1.391 . S
C2196 C2197 1.400 . S
C2197 C2191 1.491 . S
C2197 C2196 1.400 . S
C2197 C2198 1.398 . S
C2198 H2186 0.950 . S
C2198 C2197 1.398 . S
C2198 C2199 1.391 . S
C2199 H2187 0.950 . S
C2199 C2195 1.393 . S
C2199 C2198 1.391 . S
H2200 C2208 0.950 . S
H2201 C2213 0.950 . S
H2202 C2210 0.950 . S
H2203 C2212 0.950 . S
H2204 C2214 0.950 . S
H2205 C2216 0.950 . S
H2206 C2218 0.950 . S
H2207 C2219 0.950 . S
C2208 H2200 0.950 . S
C2208 C2209 1.386 . S
C2208 C2210 1.391 . S
C2209 C2208 1.386 . S
C2209 C2213 1.393 . S
C2210 H2202 0.950 . S
C2210 C2208 1.391 . S
C2210 C2211 1.400 . S
C2211 C2210 1.400 . S
C2211 C2212 1.398 . S
C2211 C2217 1.491 . S
C2212 H2203 0.950 . S
C2212 C2211 1.398 . S
C2212 C2213 1.391 . S
C2213 H2201 0.950 . S
C2213 C2209 1.393 . S
C2213 C2212 1.391 . S
C2214 H2204 0.950 . S
C2214 C2215 1.386 . S
C2214 C2216 1.391 . S
C2215 C2214 1.386 . S
C2215 C2219 1.393 . S
C2216 H2205 0.950 . S
C2216 C2214 1.391 . S
C2216 C2217 1.400 . S
C2217 C2211 1.491 . S
C2217 C2216 1.400 . S
C2217 C2218 1.398 . S
C2218 H2206 0.950 . S
C2218 C2217 1.398 . S
C2218 C2219 1.391 . S
C2219 H2207 0.950 . S
C2219 C2215 1.393 . S
C2219 C2218 1.391 . S
H2220 C2228 0.950 . S
H2221 C2233 0.950 . S
H2222 C2230 0.950 . S
H2223 C2232 0.950 . S
H2224 C2234 0.950 . S
H2225 C2236 0.950 . S
H2226 C2238 0.950 . S
H2227 C2239 0.950 . S
C2228 H2220 0.950 . S
C2228 C2229 1.386 . S
C2228 C2230 1.391 . S
C2229 C2228 1.386 . S
C2229 C2233 1.393 . S
C2230 H2222 0.950 . S
C2230 C2228 1.391 . S
C2230 C2231 1.400 . S
C2231 C2230 1.400 . S
C2231 C2232 1.398 . S
C2231 C2237 1.491 . S
C2232 H2223 0.950 . S
C2232 C2231 1.398 . S
C2232 C2233 1.391 . S
C2233 H2221 0.950 . S
C2233 C2229 1.393 . S
C2233 C2232 1.391 . S
C2234 H2224 0.950 . S
C2234 C2235 1.386 . S
C2234 C2236 1.391 . S
C2235 C2234 1.386 . S
C2235 C2239 1.393 . S
C2236 H2225 0.950 . S
C2236 C2234 1.391 . S
C2236 C2237 1.400 . S
C2237 C2231 1.491 . S
C2237 C2236 1.400 . S
C2237 C2238 1.398 . S
C2238 H2226 0.950 . S
C2238 C2237 1.398 . S
C2238 C2239 1.391 . S
C2239 H2227 0.950 . S
C2239 C2235 1.393 . S
C2239 C2238 1.391 . S
H2240 C2248 0.950 . S
H2241 C2253 0.950 . S
H2242 C2250 0.950 . S
H2243 C2252 0.950 . S
H2244 C2254 0.950 . S
H2245 C2256 0.950 . S
H2246 C2258 0.950 . S
H2247 C2259 0.950 . S
C2248 H2240 0.950 . S
C2248 C2249 1.386 . S
C2248 C2250 1.391 . S
C2249 C2248 1.386 . S
C2249 C2253 1.393 . S
C2250 H2242 0.950 . S
C2250 C2248 1.391 . S
C2250 C2251 1.400 . S
C2251 C2250 1.400 . S
C2251 C2252 1.398 . S
C2251 C2257 1.491 . S
C2252 H2243 0.950 . S
C2252 C2251 1.398 . S
C2252 C2253 1.391 . S
C2253 H2241 0.950 . S
C2253 C2249 1.393 . S
C2253 C2252 1.391 . S
C2254 H2244 0.950 . S
C2254 C2255 1.386 . S
C2254 C2256 1.391 . S
C2255 C2254 1.386 . S
C2255 C2259 1.393 . S
C2256 H2245 0.950 . S
C2256 C2254 1.391 . S
C2256 C2257 1.400 . S
C2257 C2251 1.491 . S
C2257 C2256 1.400 . S
C2257 C2258 1.398 . S
C2258 H2246 0.950 . S
C2258 C2257 1.398 . S
C2258 C2259 1.391 . S
C2259 H2247 0.950 . S
C2259 C2255 1.393 . S
C2259 C2258 1.391 . S
H2260 C2268 0.950 . S
H2261 C2273 0.950 . S
H2262 C2270 0.950 . S
H2263 C2272 0.950 . S
H2264 C2274 0.950 . S
H2265 C2276 0.950 . S
H2266 C2278 0.950 . S
H2267 C2279 0.950 . S
C2268 H2260 0.950 . S
C2268 C2269 1.386 . S
C2268 C2270 1.391 . S
C2269 C2268 1.386 . S
C2269 C2273 1.393 . S
C2270 H2262 0.950 . S
C2270 C2268 1.391 . S
C2270 C2271 1.400 . S
C2271 C2270 1.400 . S
C2271 C2272 1.398 . S
C2271 C2277 1.491 . S
C2272 H2263 0.950 . S
C2272 C2271 1.398 . S
C2272 C2273 1.391 . S
C2273 H2261 0.950 . S
C2273 C2269 1.393 . S
C2273 C2272 1.391 . S
C2274 H2264 0.950 . S
C2274 C2275 1.386 . S
C2274 C2276 1.391 . S
C2275 C2274 1.386 . S
C2275 C2279 1.393 . S
C2276 H2265 0.950 . S
C2276 C2274 1.391 . S
C2276 C2277 1.400 . S
C2277 C2271 1.491 . S
C2277 C2276 1.400 . S
C2277 C2278 1.398 . S
C2278 H2266 0.950 . S
C2278 C2277 1.398 . S
C2278 C2279 1.391 . S
C2279 H2267 0.950 . S
C2279 C2275 1.393 . S
C2279 C2278 1.391 . S
H2280 C2288 0.950 . S
H2281 C2293 0.950 . S
H2282 C2290 0.950 . S
H2283 C2292 0.950 . S
H2284 C2294 0.950 . S
H2285 C2296 0.950 . S
H2286 C2298 0.950 . S
H2287 C2299 0.950 . S
C2288 H2280 0.950 . S
C2288 C2289 1.386 . S
C2288 C2290 1.391 . S
C2289 C2288 1.386 . S
C2289 C2293 1.393 . S
C2290 H2282 0.950 . S
C2290 C2288 1.391 . S
C2290 C2291 1.400 . S
C2291 C2290 1.400 . S
C2291 C2292 1.398 . S
C2291 C2297 1.491 . S
C2292 H2283 0.950 . S
C2292 C2291 1.398 . S
C2292 C2293 1.391 . S
C2293 H2281 0.950 . S
C2293 C2289 1.393 . S
C2293 C2292 1.391 . S
C2294 H2284 0.950 . S
C2294 C2295 1.386 . S
C2294 C2296 1.391 . S
C2295 C2294 1.386 . S
C2295 C2299 1.393 . S
C2296 H2285 0.950 . S
C2296 C2294 1.391 . S
C2296 C2297 1.400 . S
C2297 C2291 1.491 . S
C2297 C2296 1.400 . S
C2297 C2298 1.398 . S
C2298 H2286 0.950 . S
C2298 C2297 1.398 . S
C2298 C2299 1.391 . S
C2299 H2287 0.950 . S
C2299 C2295 1.393 . S
C2299 C2298 1.391 . S
H2300 C2308 0.950 . S
H2301 C2313 0.950 . S
H2302 C2310 0.950 . S
H2303 C2312 0.950 . S
H2304 C2314 0.950 . S
H2305 C2316 0.950 . S
H2306 C2318 0.950 . S
H2307 C2319 0.950 . S
C2308 H2300 0.950 . S
C2308 C2309 1.386 . S
C2308 C2310 1.391 . S
C2309 C2308 1.386 . S
C2309 C2313 1.393 . S
C2310 H2302 0.950 . S
C2310 C2308 1.391 . S
C2310 C2311 1.400 . S
C2311 C2310 1.400 . S
C2311 C2312 1.398 . S
C2311 C2317 1.491 . S
C2312 H2303 0.950 . S
C2312 C2311 1.398 . S
C2312 C2313 1.391 . S
C2313 H2301 0.950 . S
C2313 C2309 1.393 . S
C2313 C2312 1.391 . S
C2314 H2304 0.950 . S
C2314 C2315 1.386 . S
C2314 C2316 1.391 . S
C2315 C2314 1.386 . S
C2315 C2319 1.393 . S
C2316 H2305 0.950 . S
C2316 C2314 1.391 . S
C2316 C2317 1.400 . S
C2317 C2311 1.491 . S
C2317 C2316 1.400 . S
C2317 C2318 1.398 . S
C2318 H2306 0.950 . S
C2318 C2317 1.398 . S
C2318 C2319 1.391 . S
C2319 H2307 0.950 . S
C2319 C2315 1.393 . S
C2319 C2318 1.391 . S
H2320 C2328 0.950 . S
H2321 C2333 0.950 . S
H2322 C2330 0.950 . S
H2323 C2332 0.950 . S
H2324 C2334 0.950 . S
H2325 C2336 0.950 . S
H2326 C2338 0.950 . S
H2327 C2339 0.950 . S
C2328 H2320 0.950 . S
C2328 C2329 1.386 . S
C2328 C2330 1.391 . S
C2329 C2328 1.386 . S
C2329 C2333 1.393 . S
C2330 H2322 0.950 . S
C2330 C2328 1.391 . S
C2330 C2331 1.400 . S
C2331 C2330 1.400 . S
C2331 C2332 1.398 . S
C2331 C2337 1.491 . S
C2332 H2323 0.950 . S
C2332 C2331 1.398 . S
C2332 C2333 1.391 . S
C2333 H2321 0.950 . S
C2333 C2329 1.393 . S
C2333 C2332 1.391 . S
C2334 H2324 0.950 . S
C2334 C2335 1.386 . S
C2334 C2336 1.391 . S
C2335 C2334 1.386 . S
C2335 C2339 1.393 . S
C2336 H2325 0.950 . S
C2336 C2334 1.391 . S
C2336 C2337 1.400 . S
C2337 C2331 1.491 . S
C2337 C2336 1.400 . S
C2337 C2338 1.398 . S
C2338 H2326 0.950 . S
C2338 C2337 1.398 . S
C2338 C2339 1.391 . S
C2339 H2327 0.950 . S
C2339 C2335 1.393 . S
C2339 C2338 1.391 . S
H2340 C2348 0.950 . S
H2341 C2353 0.950 . S
H2342 C2350 0.950 . S
H2343 C2352 0.950 . S
H2344 C2354 0.950 . S
H2345 C2356 0.950 . S
H2346 C2358 0.950 . S
H2347 C2359 0.950 . S
C2348 H2340 0.950 . S
C2348 C2349 1.386 . S
C2348 C2350 1.391 . S
C2349 C2348 1.386 . S
C2349 C2353 1.393 . S
C2350 H2342 0.950 . S
C2350 C2348 1.391 . S
C2350 C2351 1.400 . S
C2351 C2350 1.400 . S
C2351 C2352 1.398 . S
C2351 C2357 1.491 . S
C2352 H2343 0.950 . S
C2352 C2351 1.398 . S
C2352 C2353 1.391 . S
C2353 H2341 0.950 . S
C2353 C2349 1.393 . S
C2353 C2352 1.391 . S
C2354 H2344 0.950 . S
C2354 C2355 1.386 . S
C2354 C2356 1.391 . S
C2355 C2354 1.386 . S
C2355 C2359 1.393 . S
C2356 H2345 0.950 . S
C2356 C2354 1.391 . S
C2356 C2357 1.400 . S
C2357 C2351 1.491 . S
C2357 C2356 1.400 . S
C2357 C2358 1.398 . S
C2358 H2346 0.950 . S
C2358 C2357 1.398 . S
C2358 C2359 1.391 . S
C2359 H2347 0.950 . S
C2359 C2355 1.393 . S
C2359 C2358 1.391 . S
H2360 C2368 0.950 . S
H2361 C2373 0.950 . S
H2362 C2370 0.950 . S
H2363 C2372 0.950 . S
H2364 C2374 0.950 . S
H2365 C2376 0.950 . S
H2366 C2378 0.950 . S
H2367 C2379 0.950 . S
C2368 H2360 0.950 . S
C2368 C2369 1.386 . S
C2368 C2370 1.391 . S
C2369 C2368 1.386 . S
C2369 C2373 1.393 . S
C2370 H2362 0.950 . S
C2370 C2368 1.391 . S
C2370 C2371 1.400 . S
C2371 C2370 1.400 . S
C2371 C2372 1.398 . S
C2371 C2377 1.491 . S
C2372 H2363 0.950 . S
C2372 C2371 1.398 . S
C2372 C2373 1.391 . S
C2373 H2361 0.950 . S
C2373 C2369 1.393 . S
C2373 C2372 1.391 . S
C2374 H2364 0.950 . S
C2374 C2375 1.386 . S
C2374 C2376 1.391 . S
C2375 C2374 1.386 . S
C2375 C2379 1.393 . S
C2376 H2365 0.950 . S
C2376 C2374 1.391 . S
C2376 C2377 1.400 . S
C2377 C2371 1.491 . S
C2377 C2376 1.400 . S
C2377 C2378 1.398 . S
C2378 H2366 0.950 . S
C2378 C2377 1.398 . S
C2378 C2379 1.391 . S
C2379 H2367 0.950 . S
C2379 C2375 1.393 . S
C2379 C2378 1.391 . S
H2380 C2388 0.950 . S
H2381 C2393 0.950 . S
H2382 C2390 0.950 . S
H2383 C2392 0.950 . S
H2384 C2394 0.950 . S
H2385 C2396 0.950 . S
H2386 C2398 0.950 . S
H2387 C2399 0.950 . S
C2388 H2380 0.950 . S
C2388 C2389 1.386 . S
C2388 C2390 1.391 . S
C2389 C2388 1.386 . S
C2389 C2393 1.393 . S
C2390 H2382 0.950 . S
C2390 C2388 1.391 . S
C2390 C2391 1.400 . S
C2391 C2390 1.400 . S
C2391 C2392 1.398 . S
C2391 C2397 1.491 . S
C2392 H2383 0.950 . S
C2392 C2391 1.398 . S
C2392 C2393 1.391 . S
C2393 H2381 0.950 . S
C2393 C2389 1.393 . S
C2393 C2392 1.391 . S
C2394 H2384 0.950 . S
C2394 C2395 1.386 . S
C2394 C2396 1.391 . S
C2395 C2394 1.386 . S
C2395 C2399 1.393 . S
C2396 H2385 0.950 . S
C2396 C2394 1.391 . S
C2396 C2397 1.400 . S
C2397 C2391 1.491 . S
C2397 C2396 1.400 . S
C2397 C2398 1.398 . S
C2398 H2386 0.950 . S
C2398 C2397 1.398 . S
C2398 C2399 1.391 . S
C2399 H2387 0.950 . S
C2399 C2395 1.393 . S
C2399 C2398 1.391 . S
H2400 C2408 0.950 . S
H2401 C2413 0.950 . S
H2402 C2410 0.950 . S
H2403 C2412 0.950 . S
H2404 C2414 0.950 . S
H2405 C2416 0.950 . S
H2406 C2418 0.950 . S
H2407 C2419 0.950 . S
C2408 H2400 0.950 . S
C2408 C2409 1.386 . S
C2408 C2410 1.391 . S
C2409 C2408 1.386 . S
C2409 C2413 1.393 . S
C2410 H2402 0.950 . S
C2410 C2408 1.391 . S
C2410 C2411 1.400 . S
C2411 C2410 1.400 . S
C2411 C2412 1.398 . S
C2411 C2417 1.491 . S
C2412 H2403 0.950 . S
C2412 C2411 1.398 . S
C2412 C2413 1.391 . S
C2413 H2401 0.950 . S
C2413 C2409 1.393 . S
C2413 C2412 1.391 . S
C2414 H2404 0.950 . S
C2414 C2415 1.386 . S
C2414 C2416 1.391 . S
C2415 C2414 1.386 . S
C2415 C2419 1.393 . S
C2416 H2405 0.950 . S
C2416 C2414 1.391 . S
C2416 C2417 1.400 . S
C2417 C2411 1.491 . S
C2417 C2416 1.400 . S
C2417 C2418 1.398 . S
C2418 H2406 0.950 . S
C2418 C2417 1.398 . S
C2418 C2419 1.391 . S
C2419 H2407 0.950 . S
C2419 C2415 1.393 . S
C2419 C2418 1.391 . S
H2420 C2428 0.950 . S
H2421 C2433 0.950 . S
H2422 C2430 0.950 . S
H2423 C2432 0.950 . S
H2424 C2434 0.950 . S
H2425 C2436 0.950 . S
H2426 C2438 0.950 . S
H2427 C2439 0.950 . S
C2428 H2420 0.950 . S
C2428 C2429 1.386 . S
C2428 C2430 1.391 . S
C2429 C2428 1.386 . S
C2429 C2433 1.393 . S
C2430 H2422 0.950 . S
C2430 C2428 1.391 . S
C2430 C2431 1.400 . S
C2431 C2430 1.400 . S
C2431 C2432 1.398 . S
C2431 C2437 1.491 . S
C2432 H2423 0.950 . S
C2432 C2431 1.398 . S
C2432 C2433 1.391 . S
C2433 H2421 0.950 . S
C2433 C2429 1.393 . S
C2433 C2432 1.391 . S
C2434 H2424 0.950 . S
C2434 C2435 1.386 . S
C2434 C2436 1.391 . S
C2435 C2434 1.386 . S
C2435 C2439 1.393 . S
C2436 H2425 0.950 . S
C2436 C2434 1.391 . S
C2436 C2437 1.400 . S
C2437 C2431 1.491 . S
C2437 C2436 1.400 . S
C2437 C2438 1.398 . S
C2438 H2426 0.950 . S
C2438 C2437 1.398 . S
C2438 C2439 1.391 . S
C2439 H2427 0.950 . S
C2439 C2435 1.393 . S
C2439 C2438 1.391 . S
H2440 C2448 0.950 . S
H2441 C2453 0.950 . S
H2442 C2450 0.950 . S
H2443 C2452 0.950 . S
H2444 C2454 0.950 . S
H2445 C2456 0.950 . S
H2446 C2458 0.950 . S
H2447 C2459 0.950 . S
C2448 H2440 0.950 . S
C2448 C2449 1.386 . S
C2448 C2450 1.391 . S
C2449 C2448 1.386 . S
C2449 C2453 1.393 . S
C2450 H2442 0.950 . S
C2450 C2448 1.391 . S
C2450 C2451 1.400 . S
C2451 C2450 1.400 . S
C2451 C2452 1.398 . S
C2451 C2457 1.491 . S
C2452 H2443 0.950 . S
C2452 C2451 1.398 . S
C2452 C2453 1.391 . S
C2453 H2441 0.950 . S
C2453 C2449 1.393 . S
C2453 C2452 1.391 . S
C2454 H2444 0.950 . S
C2454 C2455 1.386 . S
C2454 C2456 1.391 . S
C2455 C2454 1.386 . S
C2455 C2459 1.393 . S
C2456 H2445 0.950 . S
C2456 C2454 1.391 . S
C2456 C2457 1.400 . S
C2457 C2451 1.491 . S
C2457 C2456 1.400 . S
C2457 C2458 1.398 . S
C2458 H2446 0.950 . S
C2458 C2457 1.398 . S
C2458 C2459 1.391 . S
C2459 H2447 0.950 . S
C2459 C2455 1.393 . S
C2459 C2458 1.391 . S
H2460 C2468 0.950 . S
H2461 C2473 0.950 . S
H2462 C2470 0.950 . S
H2463 C2472 0.937 1_655 S
H2464 C2474 0.950 . S
H2465 C2476 0.950 . S
H2466 C2478 0.950 . S
H2467 C2479 0.950 . S
C2468 H2460 0.950 . S
C2468 C2469 1.386 . S
C2468 C2470 1.391 1_455 S
C2469 C2468 1.386 . S
C2469 C2473 1.393 . S
C2470 H2462 0.950 . S
C2470 C2468 1.391 1_655 S
C2470 C2471 1.400 . S
C2471 C2470 1.400 . S
C2471 C2472 1.390 1_655 S
C2471 C2477 1.491 . S
C2472 H2463 0.937 1_455 S
C2472 C2471 1.390 1_455 S
C2472 C2473 1.412 . S
C2473 H2461 0.950 . S
C2473 C2469 1.393 . S
C2473 C2472 1.412 . S
C2474 H2464 0.950 . S
C2474 C2475 1.386 . S
C2474 C2476 1.391 . S
C2475 C2474 1.386 . S
C2475 C2479 1.393 . S
C2476 H2465 0.950 . S
C2476 C2474 1.391 . S
C2476 C2477 1.400 . S
C2477 C2471 1.491 . S
C2477 C2476 1.400 . S
C2477 C2478 1.398 . S
C2478 H2466 0.950 . S
C2478 C2477 1.398 . S
C2478 C2479 1.391 . S
C2479 H2467 0.950 . S
C2479 C2475 1.393 . S
C2479 C2478 1.391 . S
H2480 C2488 0.943 1_565 S
H2481 C2493 0.958 . S
H2482 C2490 0.950 . S
H2483 C2492 0.950 . S
H2484 C2494 0.950 . S
H2485 C2496 0.950 . S
H2486 C2498 0.950 . S
H2487 C2499 0.950 . S
C2488 H2480 0.943 1_545 S
C2488 C2489 1.386 1_545 S
C2488 C2490 1.391 . S
C2489 C2488 1.386 1_565 S
C2489 C2493 1.393 1_565 S
C2490 H2482 0.950 . S
C2490 C2488 1.391 . S
C2490 C2491 1.400 . S
C2491 C2490 1.400 . S
C2491 C2492 1.398 . S
C2491 C2497 1.491 . S
C2492 H2483 0.950 . S
C2492 C2491 1.398 . S
C2492 C2493 1.391 . S
C2493 H2481 0.958 . S
C2493 C2489 1.393 1_545 S
C2493 C2492 1.391 . S
C2494 H2484 0.950 . S
C2494 C2495 1.386 . S
C2494 C2496 1.391 . S
C2495 C2494 1.386 . S
C2495 C2499 1.393 . S
C2496 H2485 0.950 . S
C2496 C2494 1.391 . S
C2496 C2497 1.400 . S
C2497 C2491 1.491 . S
C2497 C2496 1.400 . S
C2497 C2498 1.398 . S
C2498 H2486 0.950 . S
C2498 C2497 1.398 . S
C2498 C2499 1.391 . S
C2499 H2487 0.950 . S
C2499 C2495 1.393 . S
C2499 C2498 1.391 . S
H2500 C2508 0.950 . S
H2501 C2513 0.950 . S
H2502 C2510 0.950 . S
H2503 C2512 0.950 . S
H2504 C2514 0.950 1_565 S
H2505 C2516 0.950 . S
H2506 C2518 0.950 . S
H2507 C2519 0.950 . S
C2508 H2500 0.950 . S
C2508 C2509 1.386 . S
C2508 C2510 1.391 1_455 S
C2509 C2508 1.386 . S
C2509 C2513 1.393 . S
C2510 H2502 0.950 . S
C2510 C2508 1.391 1_655 S
C2510 C2511 1.400 . S
C2511 C2510 1.400 . S
C2511 C2512 1.398 1_655 S
C2511 C2517 1.491 . S
C2512 H2503 0.950 . S
C2512 C2511 1.398 1_455 S
C2512 C2513 1.391 . S
C2513 H2501 0.950 . S
C2513 C2509 1.393 . S
C2513 C2512 1.391 . S
C2514 H2504 0.950 1_545 S
C2514 C2515 1.386 . S
C2514 C2516 1.391 . S
C2515 C2514 1.386 . S
C2515 C2519 1.393 . S
C2516 H2505 0.950 . S
C2516 C2514 1.391 . S
C2516 C2517 1.400 . S
C2517 C2511 1.491 . S
C2517 C2516 1.400 . S
C2517 C2518 1.398 . S
C2518 H2506 0.950 . S
C2518 C2517 1.398 . S
C2518 C2519 1.391 . S
C2519 H2507 0.950 . S
C2519 C2515 1.393 . S
C2519 C2518 1.391 . S
H2520 C2528 0.950 . S
H2521 C2533 0.950 1_565 S
H2522 C2530 0.950 . S
H2523 C2532 0.950 . S
H2524 C2534 0.950 . S
H2525 C2536 0.950 . S
H2526 C2538 0.950 . S
H2527 C2539 0.950 . S
C2528 H2520 0.950 . S
C2528 C2529 1.386 . S
C2528 C2530 1.391 . S
C2529 C2528 1.386 . S
C2529 C2533 1.393 . S
C2530 H2522 0.950 . S
C2530 C2528 1.391 . S
C2530 C2531 1.400 . S
C2531 C2530 1.400 . S
C2531 C2532 1.398 . S
C2531 C2537 1.491 . S
C2532 H2523 0.950 . S
C2532 C2531 1.398 . S
C2532 C2533 1.391 . S
C2533 H2521 0.950 1_545 S
C2533 C2529 1.393 . S
C2533 C2532 1.391 . S
C2534 H2524 0.950 . S
C2534 C2535 1.386 . S
C2534 C2536 1.391 . S
C2535 C2534 1.386 . S
C2535 C2539 1.393 . S
C2536 H2525 0.950 . S
C2536 C2534 1.391 . S
C2536 C2537 1.400 . S
C2537 C2531 1.491 . S
C2537 C2536 1.400 . S
C2537 C2538 1.398 . S
C2538 H2526 0.950 . S
C2538 C2537 1.398 . S
C2538 C2539 1.391 . S
C2539 H2527 0.950 . S
C2539 C2535 1.393 . S
C2539 C2538 1.391 . S
H2540 C2548 0.950 . S
H2541 C2553 0.950 . S
H2542 C2550 0.950 . S
H2543 C2552 0.950 . S
H2544 C2554 0.950 . S
H2545 C2556 0.950 . S
H2546 C2558 0.950 . S
H2547 C2559 0.950 1_565 S
C2548 H2540 0.950 . S
C2548 C2549 1.386 . S
C2548 C2550 1.391 1_455 S
C2549 C2548 1.386 . S
C2549 C2553 1.393 . S
C2550 H2542 0.950 . S
C2550 C2548 1.391 1_655 S
C2550 C2551 1.400 . S
C2551 C2550 1.400 . S
C2551 C2552 1.398 . S
C2551 C2557 1.491 . S
C2552 H2543 0.950 . S
C2552 C2551 1.398 . S
C2552 C2553 1.391 1_655 S
C2553 H2541 0.950 . S
C2553 C2549 1.393 . S
C2553 C2552 1.391 1_455 S
C2554 H2544 0.950 . S
C2554 C2555 1.386 1_545 S
C2554 C2556 1.391 . S
C2555 C2554 1.386 1_565 S
C2555 C2559 1.393 1_565 S
C2556 H2545 0.950 . S
C2556 C2554 1.391 . S
C2556 C2557 1.400 . S
C2557 C2551 1.491 . S
C2557 C2556 1.400 . S
C2557 C2558 1.398 . S
C2558 H2546 0.950 . S
C2558 C2557 1.398 . S
C2558 C2559 1.391 . S
C2559 H2547 0.950 1_545 S
C2559 C2555 1.393 1_545 S
C2559 C2558 1.391 . S
H2560 C2568 0.950 . S
H2561 C2573 0.950 . S
H2562 C2570 0.950 . S
H2563 C2572 0.950 . S
H2564 C2574 0.950 . S
H2565 C2576 0.950 . S
H2566 C2578 0.950 . S
H2567 C2579 0.950 . S
C2568 H2560 0.950 . S
C2568 C2569 1.386 . S
C2568 C2570 1.391 . S
C2569 C2568 1.386 . S
C2569 C2573 1.393 . S
C2570 H2562 0.950 . S
C2570 C2568 1.391 . S
C2570 C2571 1.400 1_455 S
C2571 C2570 1.400 1_655 S
C2571 C2572 1.398 . S
C2571 C2577 1.491 . S
C2572 H2563 0.950 . S
C2572 C2571 1.398 . S
C2572 C2573 1.391 1_655 S
C2573 H2561 0.950 . S
C2573 C2569 1.393 . S
C2573 C2572 1.391 1_455 S
C2574 H2564 0.950 . S
C2574 C2575 1.386 . S
C2574 C2576 1.391 . S
C2575 C2574 1.386 . S
C2575 C2579 1.393 . S
C2576 H2565 0.950 . S
C2576 C2574 1.391 . S
C2576 C2577 1.400 . S
C2577 C2571 1.491 . S
C2577 C2576 1.400 . S
C2577 C2578 1.398 . S
C2578 H2566 0.950 . S
C2578 C2577 1.398 . S
C2578 C2579 1.391 . S
C2579 H2567 0.950 . S
C2579 C2575 1.393 . S
C2579 C2578 1.391 . S
H2580 C2588 0.950 . S
H2581 C2593 0.950 . S
H2582 C2590 0.950 . S
H2583 C2592 0.950 . S
H2584 C2594 0.950 . S
H2585 C2596 0.950 . S
H2586 C2598 0.950 . S
H2587 C2599 0.950 . S
C2588 H2580 0.950 . S
C2588 C2589 1.386 . S
C2588 C2590 1.391 . S
C2589 C2588 1.386 . S
C2589 C2593 1.393 . S
C2590 H2582 0.950 . S
C2590 C2588 1.391 . S
C2590 C2591 1.400 . S
C2591 C2590 1.400 . S
C2591 C2592 1.398 . S
C2591 C2597 1.491 . S
C2592 H2583 0.950 . S
C2592 C2591 1.398 . S
C2592 C2593 1.391 . S
C2593 H2581 0.950 . S
C2593 C2589 1.393 . S
C2593 C2592 1.391 . S
C2594 H2584 0.950 . S
C2594 C2595 1.386 . S
C2594 C2596 1.391 . S
C2595 C2594 1.386 . S
C2595 C2599 1.393 . S
C2596 H2585 0.950 . S
C2596 C2594 1.391 . S
C2596 C2597 1.400 . S
C2597 C2591 1.491 . S
C2597 C2596 1.400 . S
C2597 C2598 1.398 . S
C2598 H2586 0.950 . S
C2598 C2597 1.398 . S
C2598 C2599 1.391 . S
C2599 H2587 0.950 . S
C2599 C2595 1.393 . S
C2599 C2598 1.391 . S
H2600 C2608 0.950 . S
H2601 C2613 0.950 . S
H2602 C2610 0.950 . S
H2603 C2612 0.950 . S
H2604 C2614 0.950 . S
H2605 C2616 0.950 . S
H2606 C2618 0.950 . S
H2607 C2619 0.950 . S
C2608 H2600 0.950 . S
C2608 C2609 1.386 . S
C2608 C2610 1.391 . S
C2609 C2608 1.386 . S
C2609 C2613 1.393 . S
C2610 H2602 0.950 . S
C2610 C2608 1.391 . S
C2610 C2611 1.400 . S
C2611 C2610 1.400 . S
C2611 C2612 1.398 . S
C2611 C2617 1.491 . S
C2612 H2603 0.950 . S
C2612 C2611 1.398 . S
C2612 C2613 1.391 . S
C2613 H2601 0.950 . S
C2613 C2609 1.393 . S
C2613 C2612 1.391 . S
C2614 H2604 0.950 . S
C2614 C2615 1.386 . S
C2614 C2616 1.391 . S
C2615 C2614 1.386 . S
C2615 C2619 1.393 . S
C2616 H2605 0.950 . S
C2616 C2614 1.391 . S
C2616 C2617 1.400 . S
C2617 C2611 1.491 . S
C2617 C2616 1.400 . S
C2617 C2618 1.398 . S
C2618 H2606 0.950 . S
C2618 C2617 1.398 . S
C2618 C2619 1.391 . S
C2619 H2607 0.950 . S
C2619 C2615 1.393 . S
C2619 C2618 1.391 . S
H2620 C2628 0.950 . S
H2621 C2633 0.950 . S
H2622 C2630 0.950 . S
H2623 C2632 0.950 . S
H2624 C2634 0.950 . S
H2625 C2636 0.950 . S
H2626 C2638 0.950 . S
H2627 C2639 0.950 . S
C2628 H2620 0.950 . S
C2628 C2629 1.386 . S
C2628 C2630 1.391 . S
C2629 C2628 1.386 . S
C2629 C2633 1.393 . S
C2630 H2622 0.950 . S
C2630 C2628 1.391 . S
C2630 C2631 1.400 . S
C2631 C2630 1.400 . S
C2631 C2632 1.398 . S
C2631 C2637 1.491 . S
C2632 H2623 0.950 . S
C2632 C2631 1.398 . S
C2632 C2633 1.391 . S
C2633 H2621 0.950 . S
C2633 C2629 1.393 . S
C2633 C2632 1.391 . S
C2634 H2624 0.950 . S
C2634 C2635 1.386 . S
C2634 C2636 1.391 . S
C2635 C2634 1.386 . S
C2635 C2639 1.393 . S
C2636 H2625 0.950 . S
C2636 C2634 1.391 . S
C2636 C2637 1.400 . S
C2637 C2631 1.491 . S
C2637 C2636 1.400 . S
C2637 C2638 1.398 . S
C2638 H2626 0.950 . S
C2638 C2637 1.398 . S
C2638 C2639 1.391 . S
C2639 H2627 0.950 . S
C2639 C2635 1.393 . S
C2639 C2638 1.391 . S
H2640 C2648 0.950 . S
H2641 C2653 0.950 . S
H2642 C2650 0.950 . S
H2643 C2652 0.950 . S
H2644 C2654 0.950 . S
H2645 C2656 0.950 . S
H2646 C2658 0.950 . S
H2647 C2659 0.950 . S
C2648 H2640 0.950 . S
C2648 C2649 1.386 . S
C2648 C2650 1.391 . S
C2649 C2648 1.386 . S
C2649 C2653 1.393 . S
C2650 H2642 0.950 . S
C2650 C2648 1.391 . S
C2650 C2651 1.400 . S
C2651 C2650 1.400 . S
C2651 C2652 1.398 . S
C2651 C2657 1.491 . S
C2652 H2643 0.950 . S
C2652 C2651 1.398 . S
C2652 C2653 1.391 . S
C2653 H2641 0.950 . S
C2653 C2649 1.393 . S
C2653 C2652 1.391 . S
C2654 H2644 0.950 . S
C2654 C2655 1.386 . S
C2654 C2656 1.391 1_545 S
C2655 C2654 1.386 . S
C2655 C2659 1.393 . S
C2656 H2645 0.950 . S
C2656 C2654 1.391 1_565 S
C2656 C2657 1.400 . S
C2657 C2651 1.491 . S
C2657 C2656 1.400 . S
C2657 C2658 1.398 . S
C2658 H2646 0.950 . S
C2658 C2657 1.398 . S
C2658 C2659 1.391 1_565 S
C2659 H2647 0.950 . S
C2659 C2655 1.393 . S
C2659 C2658 1.391 1_545 S
H2660 C2668 0.950 . S
H2661 C2673 0.950 . S
H2662 C2670 0.950 . S
H2663 C2672 0.950 . S
H2664 C2674 0.950 . S
H2665 C2676 0.950 . S
H2666 C2678 0.950 1_565 S
H2667 C2679 0.950 . S
C2668 H2660 0.950 . S
C2668 C2669 1.386 . S
C2668 C2670 1.391 . S
C2669 C2668 1.386 . S
C2669 C2673 1.393 . S
C2670 H2662 0.950 . S
C2670 C2668 1.391 . S
C2670 C2671 1.400 . S
C2671 C2670 1.400 . S
C2671 C2672 1.398 . S
C2671 C2677 1.491 . S
C2672 H2663 0.950 . S
C2672 C2671 1.398 . S
C2672 C2673 1.391 . S
C2673 H2661 0.950 . S
C2673 C2669 1.393 . S
C2673 C2672 1.391 . S
C2674 H2664 0.950 . S
C2674 C2675 1.386 . S
C2674 C2676 1.391 . S
C2675 C2674 1.386 . S
C2675 C2679 1.393 . S
C2676 H2665 0.950 . S
C2676 C2674 1.391 . S
C2676 C2677 1.400 1_545 S
C2677 C2671 1.491 . S
C2677 C2676 1.400 1_565 S
C2677 C2678 1.398 1_565 S
C2678 H2666 0.950 1_545 S
C2678 C2677 1.398 1_545 S
C2678 C2679 1.391 . S
C2679 H2667 0.950 . S
C2679 C2675 1.393 . S
C2679 C2678 1.391 . S
H2680 C2688 0.950 . S
H2681 C2693 0.950 . S
H2682 C2690 0.950 . S
H2683 C2692 0.950 . S
H2684 C2694 0.950 . S
H2685 C2696 0.950 . S
H2686 C2698 0.950 . S
H2687 C2699 0.950 . S
C2688 H2680 0.950 . S
C2688 C2689 1.386 . S
C2688 C2690 1.391 . S
C2689 C2688 1.386 . S
C2689 C2693 1.393 . S
C2690 H2682 0.950 . S
C2690 C2688 1.391 . S
C2690 C2691 1.400 . S
C2691 C2690 1.400 . S
C2691 C2692 1.398 . S
C2691 C2697 1.491 . S
C2692 H2683 0.950 . S
C2692 C2691 1.398 . S
C2692 C2693 1.391 . S
C2693 H2681 0.950 . S
C2693 C2689 1.393 . S
C2693 C2692 1.391 . S
C2694 H2684 0.950 . S
C2694 C2695 1.386 1_455 S
C2694 C2696 1.391 . S
C2695 C2694 1.386 1_655 S
C2695 C2699 1.393 . S
C2696 H2685 0.950 . S
C2696 C2694 1.391 . S
C2696 C2697 1.400 . S
C2697 C2691 1.491 . S
C2697 C2696 1.400 . S
C2697 C2698 1.398 . S
C2698 H2686 0.950 . S
C2698 C2697 1.398 . S
C2698 C2699 1.391 1_455 S
C2699 H2687 0.950 . S
C2699 C2695 1.393 . S
C2699 C2698 1.391 1_655 S
H2700 C2708 0.950 . S
H2701 C2713 0.950 . S
H2702 C2710 0.950 . S
H2703 C2712 0.950 . S
H2704 C2714 0.950 . S
H2705 C2716 0.950 . S
H2706 C2718 0.950 . S
H2707 C2719 0.950 . S
C2708 H2700 0.950 . S
C2708 C2709 1.386 . S
C2708 C2710 1.391 . S
C2709 C2708 1.386 . S
C2709 C2713 1.393 . S
C2710 H2702 0.950 . S
C2710 C2708 1.391 . S
C2710 C2711 1.400 . S
C2711 C2710 1.400 . S
C2711 C2712 1.398 . S
C2711 C2717 1.491 . S
C2712 H2703 0.950 . S
C2712 C2711 1.398 . S
C2712 C2713 1.391 . S
C2713 H2701 0.950 . S
C2713 C2709 1.393 . S
C2713 C2712 1.391 . S
C2714 H2704 0.950 . S
C2714 C2715 1.386 . S
C2714 C2716 1.391 . S
C2715 C2714 1.386 . S
C2715 C2719 1.393 . S
C2716 H2705 0.950 . S
C2716 C2714 1.391 . S
C2716 C2717 1.400 . S
C2717 C2711 1.491 . S
C2717 C2716 1.400 . S
C2717 C2718 1.398 . S
C2718 H2706 0.950 . S
C2718 C2717 1.398 . S
C2718 C2719 1.391 . S
C2719 H2707 0.950 . S
C2719 C2715 1.393 . S
C2719 C2718 1.391 . S
H2720 C2728 0.950 . S
H2721 C2733 0.950 . S
H2722 C2730 0.950 . S
H2723 C2732 0.950 . S
H2724 C2734 0.950 . S
H2725 C2736 0.950 . S
H2726 C2738 0.950 . S
H2727 C2739 0.950 . S
C2728 H2720 0.950 . S
C2728 C2729 1.386 . S
C2728 C2730 1.391 . S
C2729 C2728 1.386 . S
C2729 C2733 1.393 . S
C2730 H2722 0.950 . S
C2730 C2728 1.391 . S
C2730 C2731 1.400 . S
C2731 C2730 1.400 . S
C2731 C2732 1.398 . S
C2731 C2737 1.491 . S
C2732 H2723 0.950 . S
C2732 C2731 1.398 . S
C2732 C2733 1.391 . S
C2733 H2721 0.950 . S
C2733 C2729 1.393 . S
C2733 C2732 1.391 . S
C2734 H2724 0.950 . S
C2734 C2735 1.386 . S
C2734 C2736 1.391 . S
C2735 C2734 1.386 . S
C2735 C2739 1.393 . S
C2736 H2725 0.950 . S
C2736 C2734 1.391 . S
C2736 C2737 1.400 . S
C2737 C2731 1.491 . S
C2737 C2736 1.400 . S
C2737 C2738 1.398 . S
C2738 H2726 0.950 . S
C2738 C2737 1.398 . S
C2738 C2739 1.391 . S
C2739 H2727 0.950 . S
C2739 C2735 1.393 . S
C2739 C2738 1.391 . S
H2740 C2748 0.950 . S
H2741 C2753 0.950 . S
H2742 C2750 0.950 . S
H2743 C2752 0.950 . S
H2744 C2754 0.950 . S
H2745 C2756 0.950 . S
H2746 C2758 0.950 . S
H2747 C2759 0.950 . S
C2748 H2740 0.950 . S
C2748 C2749 1.386 . S
C2748 C2750 1.391 . S
C2749 C2748 1.386 . S
C2749 C2753 1.393 . S
C2750 H2742 0.950 . S
C2750 C2748 1.391 . S
C2750 C2751 1.400 . S
C2751 C2750 1.400 . S
C2751 C2752 1.398 . S
C2751 C2757 1.491 . S
C2752 H2743 0.950 . S
C2752 C2751 1.398 . S
C2752 C2753 1.391 . S
C2753 H2741 0.950 . S
C2753 C2749 1.393 . S
C2753 C2752 1.391 . S
C2754 H2744 0.950 . S
C2754 C2755 1.386 . S
C2754 C2756 1.391 . S
C2755 C2754 1.386 . S
C2755 C2759 1.393 . S
C2756 H2745 0.950 . S
C2756 C2754 1.391 . S
C2756 C2757 1.400 . S
C2757 C2751 1.491 . S
C2757 C2756 1.400 . S
C2757 C2758 1.398 . S
C2758 H2746 0.950 . S
C2758 C2757 1.398 . S
C2758 C2759 1.391 . S
C2759 H2747 0.950 . S
C2759 C2755 1.393 . S
C2759 C2758 1.391 . S
H2760 C2768 0.950 . S
H2761 C2773 0.950 . S
H2762 C2770 0.950 . S
H2763 C2772 0.950 . S
H2764 C2774 0.950 . S
H2765 C2776 0.950 . S
H2766 C2778 0.950 . S
H2767 C2779 0.950 . S
C2768 H2760 0.950 . S
C2768 C2769 1.386 . S
C2768 C2770 1.391 . S
C2769 C2768 1.386 . S
C2769 C2773 1.393 . S
C2770 H2762 0.950 . S
C2770 C2768 1.391 . S
C2770 C2771 1.400 . S
C2771 C2770 1.400 . S
C2771 C2772 1.398 . S
C2771 C2777 1.491 . S
C2772 H2763 0.950 . S
C2772 C2771 1.398 . S
C2772 C2773 1.391 . S
C2773 H2761 0.950 . S
C2773 C2769 1.393 . S
C2773 C2772 1.391 . S
C2774 H2764 0.950 . S
C2774 C2775 1.386 . S
C2774 C2776 1.391 . S
C2775 C2774 1.386 . S
C2775 C2779 1.393 . S
C2776 H2765 0.950 . S
C2776 C2774 1.391 . S
C2776 C2777 1.400 . S
C2777 C2771 1.491 . S
C2777 C2776 1.400 . S
C2777 C2778 1.398 . S
C2778 H2766 0.950 . S
C2778 C2777 1.398 . S
C2778 C2779 1.391 . S
C2779 H2767 0.950 . S
C2779 C2775 1.393 . S
C2779 C2778 1.391 . S
H2780 C2788 0.950 . S
H2781 C2793 0.950 . S
H2782 C2790 0.950 . S
H2783 C2792 0.950 . S
H2784 C2794 0.950 . S
H2785 C2796 0.950 . S
H2786 C2798 0.950 . S
H2787 C2799 0.950 . S
C2788 H2780 0.950 . S
C2788 C2789 1.386 . S
C2788 C2790 1.391 . S
C2789 C2788 1.386 . S
C2789 C2793 1.393 . S
C2790 H2782 0.950 . S
C2790 C2788 1.391 . S
C2790 C2791 1.400 . S
C2791 C2790 1.400 . S
C2791 C2792 1.398 . S
C2791 C2797 1.491 . S
C2792 H2783 0.950 . S
C2792 C2791 1.398 . S
C2792 C2793 1.391 . S
C2793 H2781 0.950 . S
C2793 C2789 1.393 . S
C2793 C2792 1.391 . S
C2794 H2784 0.950 . S
C2794 C2795 1.386 . S
C2794 C2796 1.391 . S
C2795 C2794 1.386 . S
C2795 C2799 1.393 . S
C2796 H2785 0.950 . S
C2796 C2794 1.391 . S
C2796 C2797 1.400 . S
C2797 C2791 1.491 . S
C2797 C2796 1.400 . S
C2797 C2798 1.398 . S
C2798 H2786 0.950 . S
C2798 C2797 1.398 . S
C2798 C2799 1.391 . S
C2799 H2787 0.950 . S
C2799 C2795 1.393 . S
C2799 C2798 1.391 . S
H2800 C2808 0.950 . S
H2801 C2813 0.950 . S
H2802 C2810 0.950 . S
H2803 C2812 0.950 . S
H2804 C2814 0.950 . S
H2805 C2816 0.950 . S
H2806 C2818 0.950 . S
H2807 C2819 0.950 . S
C2808 H2800 0.950 . S
C2808 C2809 1.386 . S
C2808 C2810 1.391 . S
C2809 C2808 1.386 . S
C2809 C2813 1.393 . S
C2810 H2802 0.950 . S
C2810 C2808 1.391 . S
C2810 C2811 1.400 . S
C2811 C2810 1.400 . S
C2811 C2812 1.398 . S
C2811 C2817 1.491 . S
C2812 H2803 0.950 . S
C2812 C2811 1.398 . S
C2812 C2813 1.391 . S
C2813 H2801 0.950 . S
C2813 C2809 1.393 . S
C2813 C2812 1.391 . S
C2814 H2804 0.950 . S
C2814 C2815 1.386 . S
C2814 C2816 1.391 . S
C2815 C2814 1.386 . S
C2815 C2819 1.393 . S
C2816 H2805 0.950 . S
C2816 C2814 1.391 . S
C2816 C2817 1.400 . S
C2817 C2811 1.491 . S
C2817 C2816 1.400 . S
C2817 C2818 1.398 . S
C2818 H2806 0.950 . S
C2818 C2817 1.398 . S
C2818 C2819 1.391 . S
C2819 H2807 0.950 . S
C2819 C2815 1.393 . S
C2819 C2818 1.391 . S
H2820 C2828 0.950 . S
H2821 C2833 0.950 . S
H2822 C2830 0.950 . S
H2823 C2832 0.950 . S
H2824 C2834 0.950 . S
H2825 C2836 0.950 . S
H2826 C2838 0.950 . S
H2827 C2839 0.950 . S
C2828 H2820 0.950 . S
C2828 C2829 1.386 . S
C2828 C2830 1.391 . S
C2829 C2828 1.386 . S
C2829 C2833 1.393 . S
C2830 H2822 0.950 . S
C2830 C2828 1.391 . S
C2830 C2831 1.400 . S
C2831 C2830 1.400 . S
C2831 C2832 1.398 . S
C2831 C2837 1.491 . S
C2832 H2823 0.950 . S
C2832 C2831 1.398 . S
C2832 C2833 1.391 . S
C2833 H2821 0.950 . S
C2833 C2829 1.393 . S
C2833 C2832 1.391 . S
C2834 H2824 0.950 . S
C2834 C2835 1.386 . S
C2834 C2836 1.391 . S
C2835 C2834 1.386 . S
C2835 C2839 1.393 . S
C2836 H2825 0.950 . S
C2836 C2834 1.391 . S
C2836 C2837 1.400 . S
C2837 C2831 1.491 . S
C2837 C2836 1.400 . S
C2837 C2838 1.398 . S
C2838 H2826 0.950 . S
C2838 C2837 1.398 . S
C2838 C2839 1.391 . S
C2839 H2827 0.950 . S
C2839 C2835 1.393 . S
C2839 C2838 1.391 . S
H2840 C2848 0.950 . S
H2841 C2853 0.950 . S
H2842 C2850 0.950 . S
H2843 C2852 0.950 . S
H2844 C2854 0.950 . S
H2845 C2856 0.950 . S
H2846 C2858 0.950 . S
H2847 C2859 0.950 . S
C2848 H2840 0.950 . S
C2848 C2849 1.386 . S
C2848 C2850 1.391 1_545 S
C2849 C2848 1.386 . S
C2849 C2853 1.393 . S
C2850 H2842 0.950 . S
C2850 C2848 1.391 1_565 S
C2850 C2851 1.400 . S
C2851 C2850 1.400 . S
C2851 C2852 1.398 1_565 S
C2851 C2857 1.491 . S
C2852 H2843 0.950 . S
C2852 C2851 1.398 1_545 S
C2852 C2853 1.391 . S
C2853 H2841 0.950 . S
C2853 C2849 1.393 . S
C2853 C2852 1.391 . S
C2854 H2844 0.950 . S
C2854 C2855 1.386 . S
C2854 C2856 1.391 . S
C2855 C2854 1.386 . S
C2855 C2859 1.393 . S
C2856 H2845 0.950 . S
C2856 C2854 1.391 . S
C2856 C2857 1.400 . S
C2857 C2851 1.491 . S
C2857 C2856 1.400 . S
C2857 C2858 1.398 . S
C2858 H2846 0.950 . S
C2858 C2857 1.398 . S
C2858 C2859 1.391 . S
C2859 H2847 0.950 . S
C2859 C2855 1.393 . S
C2859 C2858 1.391 . S
H2860 C2868 0.950 1_655 S
H2861 C2873 0.950 . S
H2862 C2870 0.950 . S
H2863 C2872 0.950 . S
H2864 C2874 0.950 . S
H2865 C2876 0.950 . S
H2866 C2878 0.950 . S
H2867 C2879 0.950 . S
C2868 H2860 0.950 1_455 S
C2868 C2869 1.386 1_455 S
C2868 C2870 1.391 . S
C2869 C2868 1.386 1_655 S
C2869 C2873 1.393 1_655 S
C2870 H2862 0.950 . S
C2870 C2868 1.391 . S
C2870 C2871 1.400 . S
C2871 C2870 1.400 . S
C2871 C2872 1.398 . S
C2871 C2877 1.491 . S
C2872 H2863 0.950 . S
C2872 C2871 1.398 . S
C2872 C2873 1.391 . S
C2873 H2861 0.950 . S
C2873 C2869 1.393 1_455 S
C2873 C2872 1.391 . S
C2874 H2864 0.950 . S
C2874 C2875 1.386 . S
C2874 C2876 1.391 1_545 S
C2875 C2874 1.386 . S
C2875 C2879 1.393 . S
C2876 H2865 0.950 . S
C2876 C2874 1.391 1_565 S
C2876 C2877 1.400 . S
C2877 C2871 1.491 . S
C2877 C2876 1.400 . S
C2877 C2878 1.398 . S
C2878 H2866 0.950 . S
C2878 C2877 1.398 . S
C2878 C2879 1.391 1_565 S
C2879 H2867 0.950 . S
C2879 C2875 1.393 . S
C2879 C2878 1.391 1_545 S
C729 C549 1.792 . S
C735 C9 1.795 . S
C749 C569 1.785 . S
C755 C29 1.789 1_655 S
C769 C49 1.793 . S
C775 C589 1.796 . S
C789 C69 1.790 . S
C795 C249 1.784 . S
C809 C89 1.794 . S
C815 C269 1.785 . S
C829 C289 1.796 . S
C835 C109 1.787 1_565 S
C849 C121 1.794 1_565 S
C855 C421 1.786 . S
C869 C441 1.797 . S
C875 C141 1.790 . S
C889 C161 1.784 . S
C895 C461 1.789 . S
C909 C601 1.789 . S
C915 C181 1.784 1_655 S
C929 C201 1.795 . S
C935 C621 1.786 . S
C949 C641 1.789 . S
C955 C221 1.785 . S
C969 C489 1.788 . S
C975 C309 1.796 . S
C989 C329 1.788 . S
C995 C509 1.796 . S
C1009 C529 1.796 . S
C1015 C349 1.792 . S
C1029 C361 1.795 . S
C1035 C661 1.787 . S
C1049 C381 1.784 . S
C1055 C681 1.789 . S
C1069 C701 1.794 . S
C1075 C401 1.795 . S
C1089 C1 1.681 . S
C1095 C129 1.681 . S
C1109 C149 1.678 . S
C1115 C21 1.678 . S
C1129 C41 1.663 . S
C1135 C169 1.663 . S
C1149 C189 1.661 . S
C1155 C61 1.661 . S
C1169 C81 1.680 . S
C1175 C209 1.680 . S
C1189 C229 1.681 . S
C1195 C101 1.681 . S
C1209 C369 1.673 . S
C1215 C241 1.673 . S
C1229 C261 1.682 . S
C1235 C389 1.682 . S
C1249 C409 1.671 . S
C1255 C281 1.671 . S
C1269 C301 1.660 . S
C1275 C429 1.660 . S
C1289 C449 1.659 . S
C1295 C321 1.659 . S
C1309 C341 1.666 . S
C1315 C469 1.666 . S
C1329 C481 1.668 . S
C1335 C609 1.668 . S
C1349 C629 1.659 . S
C1355 C501 1.659 . S
C1369 C649 1.661 . S
C1375 C521 1.661 . S
C1389 C669 1.667 . S
C1395 C541 1.667 . S
C1409 C561 1.678 . S
C1415 C689 1.678 . S
C1429 C581 1.657 . S
C1435 C709 1.657 . S
C1449 C19 1.745 . S
C1455 C46 1.811 . S
C1469 C39 1.732 . S
C1475 C6 1.817 . S
C1489 C26 1.811 . S
C1495 C59 1.748 . S
C1509 C79 1.730 . S
C1515 C86 1.819 . S
C1529 C106 1.811 . S
C1535 C99 1.748 . S
C1549 C66 1.812 . S
C1555 C119 1.746 . S
C1569 C176 1.821 . S
C1575 C128 1.725 . S
C1589 C148 1.724 . S
C1595 C136 1.821 . S
C1609 C168 1.724 . S
C1615 C156 1.821 . S
C1629 C216 1.812 . S
C1635 C188 1.742 . S
C1649 C208 1.750 . S
C1655 C236 1.809 . S
C1669 C228 1.744 . S
C1675 C196 1.811 . S
C1689 C286 1.813 . S
C1695 C259 1.740 . S
C1709 C246 1.818 . S
C1715 C279 1.729 . S
C1729 C266 1.812 . S
C1735 C299 1.746 . S
C1749 C326 1.810 . S
C1755 C319 1.749 . S
C1769 C339 1.730 . S
C1775 C346 1.817 . S
C1789 C306 1.809 . S
C1795 C359 1.750 . S
C1809 C368 1.730 . S
C1815 C416 1.818 . S
C1829 C376 1.813 . S
C1835 C388 1.745 . S
C1849 C408 1.738 . S
C1855 C396 1.814 . S
C1869 C456 1.815 . S
C1875 C428 1.736 . S
C1889 C476 1.815 . S
C1895 C448 1.741 . S
C1909 C436 1.813 . S
C1915 C468 1.740 . S
C1929 C526 1.814 . S
C1935 C499 1.737 . S
C1949 C519 1.750 . S
C1955 C486 1.809 . S
C1969 C506 1.810 . S
C1975 C539 1.747 . S
C1989 C559 1.741 . S
C1995 C566 1.813 . S
C2009 C579 1.736 . S
C2015 C586 1.815 . S
C2029 C546 1.816 . S
C2035 C599 1.734 . S
C2049 C608 1.733 . S
C2055 C656 1.816 . S
C2069 C628 1.744 . S
C2075 C616 1.814 . S
C2089 C636 1.817 . S
C2095 C648 1.732 . S
C2109 C668 1.750 . S
C2115 C696 1.809 . S
C2129 C716 1.815 . S
C2135 C688 1.740 . S
C2149 C676 1.817 . S
C2155 C708 1.737 . S
C2169 C56 1.169 . S
C2175 C8 1.170 . S
C2189 C28 1.177 . S
C2195 C16 1.147 . S
C2209 C36 1.143 . S
C2215 C48 1.187 . S
C2229 C96 1.173 . S
C2235 C68 1.165 . S
C2249 C88 1.179 . S
C2255 C116 1.146 . S
C2269 C108 1.169 . S
C2275 C76 1.156 . S
C2289 C166 1.166 . S
C2295 C139 1.163 . S
C2309 C159 1.177 . S
C2315 C126 1.148 . S
C2329 C146 1.150 . S
C2335 C179 1.184 . S
C2349 C206 1.172 . S
C2355 C199 1.161 . S
C2369 C226 1.158 . S
C2375 C219 1.179 . S
C2389 C186 1.150 . S
C2395 C239 1.184 . S
C2409 C248 1.182 . S
C2415 C296 1.143 . S
C2429 C268 1.184 . S
C2435 C256 1.151 . S
C2449 C288 1.187 . S
C2455 C276 1.142 . S
C2469 C336 1.158 . S
C2475 C308 1.179 . S
C2489 C328 1.185 . S
C2495 C356 1.141 . S
C2509 C348 1.186 . S
C2515 C316 1.146 1_545 S
C2529 C406 1.171 1_545 S
C2535 C379 1.161 . S
C2549 C366 1.140 . S
C2555 C399 1.185 . S
C2569 C419 1.175 . S
C2575 C386 1.163 . S
C2589 C446 1.145 . S
C2595 C439 1.186 . S
C2609 C459 1.184 . S
C2615 C466 1.151 . S
C2629 C479 1.180 . S
C2635 C426 1.156 . S
C2649 C488 1.176 . S
C2655 C536 1.149 . S
C2669 C496 1.174 1_455 S
C2675 C508 1.162 . S
C2689 C516 1.145 . S
C2695 C528 1.179 . S
C2709 C576 1.144 . S
C2715 C548 1.187 . S
C2729 C568 1.161 . S
C2735 C596 1.174 . S
C2749 C588 1.187 . S
C2755 C556 1.143 . S
C2769 C646 1.147 . S
C2775 C619 1.177 . S
C2789 C606 1.141 . S
C2795 C639 1.186 . S
C2809 C659 1.175 . S
C2815 C626 1.164 . S
C2829 C686 1.171 1_455 S
C2835 C679 1.167 . S
C2849 C699 1.180 . S
C2855 C706 1.144 . S
C2869 C719 1.186 . S
C2875 C666 1.141 . S
