# Generated by pormake.
# Topology gsi, (4)-cn, num edge types: 1
# Building blocks:
#     Node 0, Type 0, BuildingBlock: CEKHIL_clean_sbu_0, # of connection points: 4
#     Node 1, Type 0, BuildingBlock: CEKHIL_clean_sbu_0, # of connection points: 4
#     Node 2, Type 0, BuildingBlock: CEKHIL_clean_sbu_0, # of connection points: 4
#     Node 3, Type 0, BuildingBlock: CEKHIL_clean_sbu_0, # of connection points: 4
#     Node 4, Type 0, BuildingBlock: CEKHIL_clean_sbu_0, # of connection points: 4
#     Node 5, Type 0, BuildingBlock: CEKHIL_clean_sbu_0, # of connection points: 4
#     Node 6, Type 0, BuildingBlock: CEKHIL_clean_sbu_0, # of connection points: 4
#     Node 7, Type 0, BuildingBlock: CEKHIL_clean_sbu_0, # of connection points: 4
#     Node 8, Type 0, BuildingBlock: CEKHIL_clean_sbu_0, # of connection points: 4
#     Node 9, Type 0, BuildingBlock: CEKHIL_clean_sbu_0, # of connection points: 4
#     Node 10, Type 0, BuildingBlock: CEKHIL_clean_sbu_0, # of connection points: 4
#     Node 11, Type 0, BuildingBlock: CEKHIL_clean_sbu_0, # of connection points: 4
#     Node 12, Type 0, BuildingBlock: CEKHIL_clean_sbu_0, # of connection points: 4
#     Node 13, Type 0, BuildingBlock: CEKHIL_clean_sbu_0, # of connection points: 4
#     Node 14, Type 0, BuildingBlock: CEKHIL_clean_sbu_0, # of connection points: 4
#     Node 15, Type 0, BuildingBlock: CEKHIL_clean_sbu_0, # of connection points: 4
#     Edge 16, Type (0, 0), BuildingBlock: XIVTED_clean_linker_0, # of connection points: 2
#     Edge 17, Type (0, 0), BuildingBlock: XIVTED_clean_linker_0, # of connection points: 2
#     Edge 18, Type (0, 0), BuildingBlock: XIVTED_clean_linker_0, # of connection points: 2
#     Edge 19, Type (0, 0), BuildingBlock: XIVTED_clean_linker_0, # of connection points: 2
#     Edge 20, Type (0, 0), BuildingBlock: XIVTED_clean_linker_0, # of connection points: 2
#     Edge 21, Type (0, 0), BuildingBlock: XIVTED_clean_linker_0, # of connection points: 2
#     Edge 22, Type (0, 0), BuildingBlock: XIVTED_clean_linker_0, # of connection points: 2
#     Edge 23, Type (0, 0), BuildingBlock: XIVTED_clean_linker_0, # of connection points: 2
#     Edge 24, Type (0, 0), BuildingBlock: XIVTED_clean_linker_0, # of connection points: 2
#     Edge 25, Type (0, 0), BuildingBlock: XIVTED_clean_linker_0, # of connection points: 2
#     Edge 26, Type (0, 0), BuildingBlock: XIVTED_clean_linker_0, # of connection points: 2
#     Edge 27, Type (0, 0), BuildingBlock: XIVTED_clean_linker_0, # of connection points: 2
#     Edge 28, Type (0, 0), BuildingBlock: XIVTED_clean_linker_0, # of connection points: 2
#     Edge 29, Type (0, 0), BuildingBlock: XIVTED_clean_linker_0, # of connection points: 2
#     Edge 30, Type (0, 0), BuildingBlock: XIVTED_clean_linker_0, # of connection points: 2
#     Edge 31, Type (0, 0), BuildingBlock: XIVTED_clean_linker_0, # of connection points: 2
#     Edge 32, Type (0, 0), BuildingBlock: XIVTED_clean_linker_0, # of connection points: 2
#     Edge 33, Type (0, 0), BuildingBlock: XIVTED_clean_linker_0, # of connection points: 2
#     Edge 34, Type (0, 0), BuildingBlock: XIVTED_clean_linker_0, # of connection points: 2
#     Edge 35, Type (0, 0), BuildingBlock: XIVTED_clean_linker_0, # of connection points: 2
#     Edge 36, Type (0, 0), BuildingBlock: XIVTED_clean_linker_0, # of connection points: 2
#     Edge 37, Type (0, 0), BuildingBlock: XIVTED_clean_linker_0, # of connection points: 2
#     Edge 38, Type (0, 0), BuildingBlock: XIVTED_clean_linker_0, # of connection points: 2
#     Edge 39, Type (0, 0), BuildingBlock: XIVTED_clean_linker_0, # of connection points: 2
#     Edge 40, Type (0, 0), BuildingBlock: XIVTED_clean_linker_0, # of connection points: 2
#     Edge 41, Type (0, 0), BuildingBlock: XIVTED_clean_linker_0, # of connection points: 2
#     Edge 42, Type (0, 0), BuildingBlock: XIVTED_clean_linker_0, # of connection points: 2
#     Edge 43, Type (0, 0), BuildingBlock: XIVTED_clean_linker_0, # of connection points: 2
#     Edge 44, Type (0, 0), BuildingBlock: XIVTED_clean_linker_0, # of connection points: 2
#     Edge 45, Type (0, 0), BuildingBlock: XIVTED_clean_linker_0, # of connection points: 2
#     Edge 46, Type (0, 0), BuildingBlock: XIVTED_clean_linker_0, # of connection points: 2
#     Edge 47, Type (0, 0), BuildingBlock: XIVTED_clean_linker_0, # of connection points: 2
# Relax obj value: 0.147
# Max RMSD: 0.206
# Mean RMSD: 0.126
data_MOF--net-gsi--node1-CEKHIL_clean_sbu_0--edge1-XIVTED_clean_linker_0
_symmetry_space_group_name_H-M    P1
_symmetry_Int_Tables_number       1
_symmetry_cell_setting            triclinic
loop_
_symmetry_equiv_pos_as_xyz
'x, y, z'
_cell_length_a     38.948254
_cell_length_b     43.753444
_cell_length_c     41.21731
_cell_angle_alpha  91.138857
_cell_angle_beta   93.320795
_cell_angle_gamma 97.704076
loop_
_atom_site_label
_atom_site_type_symbol
_atom_site_fract_x
_atom_site_fract_y
_atom_site_fract_z
_atom_type_partial_charge
Co0 Co 0.16133 0.14928 0.11872 0.0
O1 O 0.18756 0.11757 0.13525 0.0
O2 O 0.13501 0.12375 0.14915 0.0
C3 C 0.17412 0.14204 0.06601 0.0
O4 O 0.12467 0.17798 0.10731 0.0
Co5 Co 0.19363 0.20688 0.08386 0.0
O6 O 0.14654 0.21938 0.08017 0.0
C7 C 0.21003 0.19979 0.15385 0.0
C8 C 0.16128 0.10838 0.1523 0.0
C9 C 0.12136 0.20366 0.09325 0.0
O10 O 0.18382 0.17848 0.15488 0.0
O11 O 0.22023 0.2114 0.12722 0.0
O12 O 0.14854 0.12458 0.07818 0.0
O13 O 0.19108 0.16242 0.08596 0.0
Co14 Co 0.85886 0.35026 0.12801 0.0
O15 O 0.83295 0.38124 0.1447 0.0
O16 O 0.88706 0.37671 0.16072 0.0
C17 C 0.8414 0.35598 0.07516 0.0
O18 O 0.89526 0.32208 0.11633 0.0
Co19 Co 0.82329 0.29125 0.0907 0.0
O20 O 0.87056 0.28029 0.08679 0.0
C21 C 0.81201 0.3019 0.15982 0.0
C22 C 0.86022 0.39111 0.16354 0.0
C23 C 0.89716 0.29641 0.10078 0.0
O24 O 0.83984 0.32159 0.16234 0.0
O25 O 0.79926 0.28966 0.13253 0.0
O26 O 0.86734 0.37463 0.08879 0.0
O27 O 0.8266 0.33581 0.09395 0.0
Co28 Co 0.16599 0.87906 0.32213 0.0
O29 O 0.19404 0.91551 0.30721 0.0
O30 O 0.13697 0.9059 0.30003 0.0
C31 C 0.1941 0.87994 0.37229 0.0
O32 O 0.12728 0.84469 0.33354 0.0
Co33 Co 0.19566 0.81967 0.34484 0.0
O34 O 0.149 0.80644 0.36004 0.0
C35 C 0.18954 0.83445 0.27472 0.0
C36 C 0.16534 0.92409 0.29526 0.0
C37 C 0.12338 0.81914 0.34897 0.0
O38 O 0.172 0.85678 0.2799 0.0
O39 O 0.20282 0.81914 0.29722 0.0
O40 O 0.16975 0.89722 0.36687 0.0
O41 O 0.20116 0.8641 0.34757 0.0
Co42 Co 0.86078 0.62738 0.32745 0.0
O43 O 0.90103 0.6451 0.305 0.0
O44 O 0.89154 0.65551 0.35614 0.0
C45 C 0.86037 0.57796 0.30898 0.0
O46 O 0.82399 0.61525 0.36018 0.0
Co47 Co 0.79204 0.59501 0.2937 0.0
O48 O 0.77452 0.58925 0.33776 0.0
C49 C 0.81352 0.66179 0.28701 0.0
C50 C 0.91109 0.66074 0.33186 0.0
C51 C 0.79279 0.60156 0.36242 0.0
O52 O 0.83552 0.66188 0.31156 0.0
O53 O 0.79646 0.63699 0.27423 0.0
O54 O 0.88104 0.58871 0.33379 0.0
O55 O 0.84225 0.59744 0.29576 0.0
Co56 Co 0.35871 0.8499 0.62798 0.0
O57 O 0.33203 0.88007 0.6452 0.0
O58 O 0.38607 0.87572 0.66165 0.0
C59 C 0.34197 0.85696 0.5753 0.0
O60 O 0.39579 0.82254 0.61612 0.0
Co61 Co 0.32563 0.79171 0.58764 0.0
O62 O 0.37381 0.78526 0.57948 0.0
C63 C 0.31279 0.79911 0.65726 0.0
C64 C 0.35902 0.88982 0.66447 0.0
C65 C 0.39931 0.7998 0.59661 0.0
O66 O 0.3395 0.81996 0.66099 0.0
O67 O 0.30143 0.78713 0.62943 0.0
O68 O 0.36747 0.87556 0.58969 0.0
O69 O 0.32725 0.83593 0.59318 0.0
Co70 Co 0.86338 0.86527 0.89244 0.0
O71 O 0.87957 0.82857 0.9105 0.0
O72 O 0.90946 0.86112 0.87899 0.0
C73 C 0.84097 0.88094 0.93908 0.0
O74 O 0.85787 0.90595 0.86972 0.0
Co75 Co 0.78645 0.87746 0.88856 0.0
O76 O 0.80453 0.91916 0.87391 0.0
C77 C 0.80911 0.82923 0.84657 0.0
C78 C 0.90777 0.836 0.89541 0.0
C79 C 0.83549 0.92492 0.86508 0.0
O80 O 0.84129 0.84018 0.85298 0.0
O81 O 0.78417 0.83892 0.86092 0.0
O82 O 0.87411 0.88738 0.93517 0.0
O83 O 0.82361 0.86463 0.9159 0.0
Co84 Co 0.1463 0.6762 0.88925 0.0
O85 O 0.13 0.712 0.90879 0.0
O86 O 0.09924 0.67968 0.87293 0.0
C87 C 0.17106 0.65951 0.93599 0.0
O88 O 0.15248 0.63633 0.86433 0.0
Co89 Co 0.22467 0.66755 0.89074 0.0
O90 O 0.20702 0.62545 0.87327 0.0
C91 C 0.19781 0.71405 0.84916 0.0
C92 C 0.10108 0.70431 0.89145 0.0
C93 C 0.17598 0.61848 0.86127 0.0
O94 O 0.16617 0.70203 0.85269 0.0
O95 O 0.22393 0.70597 0.86545 0.0
O96 O 0.1377 0.6529 0.92958 0.0
O97 O 0.18699 0.67719 0.91562 0.0
Co98 Co 0.85411 0.14527 0.68404 0.0
O99 O 0.81117 0.12368 0.66418 0.0
O100 O 0.85387 0.14736 0.63711 0.0
C101 C 0.86273 0.10793 0.72049 0.0
O102 O 0.90216 0.17053 0.69532 0.0
Co103 Co 0.8611 0.16559 0.7566 0.0
O104 O 0.91044 0.17901 0.74929 0.0
C105 C 0.82472 0.20152 0.70884 0.0
C106 C 0.82263 0.13231 0.6364 0.0
C107 C 0.92106 0.18171 0.72072 0.0
O108 O 0.83196 0.18418 0.68546 0.0
O109 O 0.83265 0.19723 0.73883 0.0
O110 O 0.87267 0.10601 0.691 0.0
O111 O 0.84673 0.13124 0.72638 0.0
Co112 Co 0.1804 0.39146 0.68501 0.0
O113 O 0.21998 0.41345 0.66482 0.0
O114 O 0.17936 0.38006 0.63924 0.0
C115 C 0.16685 0.43282 0.7139 0.0
O116 O 0.13592 0.36381 0.6965 0.0
Co117 Co 0.17884 0.38633 0.7603 0.0
O118 O 0.13244 0.36211 0.75072 0.0
C119 C 0.22534 0.35271 0.72361 0.0
C120 C 0.20837 0.39847 0.63802 0.0
C121 C 0.12045 0.35394 0.72194 0.0
O122 O 0.20878 0.35746 0.69661 0.0
O123 O 0.22009 0.36559 0.75071 0.0
O124 O 0.15601 0.42856 0.68343 0.0
O125 O 0.18661 0.41354 0.72455 0.0
Co126 Co 0.64766 0.17575 0.39089 0.0
O127 O 0.63168 0.21134 0.41122 0.0
O128 O 0.60054 0.17963 0.37504 0.0
C129 C 0.67259 0.15832 0.43716 0.0
O130 O 0.65343 0.13614 0.36524 0.0
Co131 Co 0.72587 0.16666 0.39164 0.0
O132 O 0.7078 0.12476 0.3739 0.0
C133 C 0.69912 0.21401 0.35106 0.0
C134 C 0.60261 0.20397 0.39402 0.0
C135 C 0.67672 0.11811 0.36192 0.0
O136 O 0.66744 0.20213 0.35469 0.0
O137 O 0.72524 0.20542 0.3669 0.0
O138 O 0.6392 0.15189 0.43087 0.0
O139 O 0.6885 0.17622 0.41697 0.0
Co140 Co 0.66023 0.64948 0.61906 0.0
O141 O 0.68695 0.61846 0.63639 0.0
O142 O 0.63408 0.62413 0.64976 0.0
C143 C 0.67369 0.64143 0.56669 0.0
O144 O 0.62318 0.67758 0.60699 0.0
Co145 Co 0.69113 0.70658 0.58246 0.0
O146 O 0.64273 0.71494 0.5735 0.0
C147 C 0.70647 0.70224 0.6534 0.0
C148 C 0.66063 0.60915 0.65334 0.0
C149 C 0.61849 0.70078 0.58914 0.0
O150 O 0.68184 0.67952 0.6547 0.0
O151 O 0.71602 0.71402 0.62661 0.0
O152 O 0.64816 0.62398 0.57892 0.0
O153 O 0.69006 0.66244 0.5863 0.0
Co154 Co 0.66623 0.37899 0.82153 0.0
O155 O 0.6942 0.41573 0.80717 0.0
O156 O 0.63713 0.40606 0.79995 0.0
C157 C 0.69407 0.37904 0.87169 0.0
O158 O 0.62765 0.34436 0.83246 0.0
Co159 Co 0.69634 0.31933 0.8428 0.0
O160 O 0.64964 0.30555 0.8577 0.0
C161 C 0.68932 0.33497 0.77301 0.0
C162 C 0.66547 0.4244 0.79542 0.0
C163 C 0.62392 0.31843 0.84721 0.0
O164 O 0.67213 0.35739 0.77887 0.0
O165 O 0.70274 0.31922 0.79503 0.0
O166 O 0.66982 0.39646 0.8665 0.0
O167 O 0.70142 0.3637 0.84672 0.0
Co168 Co 0.3613 0.12697 0.82745 0.0
O169 O 0.40202 0.14444 0.80552 0.0
O170 O 0.3921 0.15448 0.85665 0.0
C171 C 0.3602 0.07759 0.80867 0.0
O172 O 0.32405 0.11502 0.85973 0.0
Co173 Co 0.29246 0.0958 0.79291 0.0
O174 O 0.27437 0.08994 0.83674 0.0
C175 C 0.31499 0.16254 0.7872 0.0
C176 C 0.41196 0.15974 0.83261 0.0
C177 C 0.29262 0.10177 0.86162 0.0
O178 O 0.33685 0.16202 0.81175 0.0
O179 O 0.29755 0.13806 0.77406 0.0
O180 O 0.38077 0.08795 0.83368 0.0
O181 O 0.34262 0.09743 0.79538 0.0
Co182 Co 0.36394 0.36396 0.39192 0.0
O183 O 0.3807 0.32791 0.41112 0.0
O184 O 0.41029 0.36024 0.37918 0.0
C185 C 0.34038 0.38047 0.43757 0.0
O186 O 0.35822 0.40397 0.36803 0.0
Co187 Co 0.28663 0.37472 0.38573 0.0
O188 O 0.30306 0.41411 0.36497 0.0
C189 C 0.31098 0.32518 0.34737 0.0
C190 C 0.40891 0.33539 0.396 0.0
C191 C 0.33489 0.42094 0.35924 0.0
O192 O 0.34278 0.33768 0.35288 0.0
O193 O 0.28569 0.33444 0.36151 0.0
O194 O 0.37361 0.38708 0.43416 0.0
O195 O 0.32362 0.36341 0.4146 0.0
Co196 Co 0.35437 0.64317 0.18248 0.0
O197 O 0.31093 0.62242 0.1626 0.0
O198 O 0.35268 0.64805 0.13587 0.0
C199 C 0.36463 0.60381 0.21568 0.0
O200 O 0.40263 0.66813 0.19366 0.0
Co201 Co 0.36376 0.65944 0.25594 0.0
O202 O 0.41261 0.67402 0.24776 0.0
C203 C 0.3256 0.69771 0.21219 0.0
C204 C 0.32163 0.63266 0.13508 0.0
C205 C 0.42224 0.67828 0.21902 0.0
O206 O 0.33219 0.68172 0.18748 0.0
O207 O 0.33456 0.69186 0.24156 0.0
O208 O 0.37316 0.60379 0.18562 0.0
O209 O 0.34869 0.62648 0.22415 0.0
Co210 Co 0.67903 0.89084 0.1856 0.0
O211 O 0.7186 0.91277 0.16524 0.0
O212 O 0.67784 0.87933 0.13991 0.0
C213 C 0.66553 0.93226 0.21445 0.0
O214 O 0.63458 0.86318 0.19708 0.0
Co215 Co 0.67729 0.88569 0.26083 0.0
O216 O 0.63117 0.86095 0.25126 0.0
C217 C 0.7242 0.85247 0.22427 0.0
C218 C 0.70684 0.89769 0.13852 0.0
C219 C 0.6192 0.85297 0.22244 0.0
O220 O 0.70744 0.85689 0.19728 0.0
O221 O 0.71894 0.86548 0.25129 0.0
O222 O 0.65466 0.92796 0.18399 0.0
O223 O 0.68526 0.91296 0.22513 0.0
H224 H 0.27366 0.23486 0.16044 0.0
H225 H 0.25575 0.27999 0.34555 0.0
H226 H 0.19038 0.1937 0.21686 0.0
H227 H 0.34488 0.3135 0.29255 0.0
H228 H 0.23482 0.24408 0.30062 0.0
H229 H 0.30289 0.25972 0.20974 0.0
C230 C 0.26152 0.2309 0.18325 0.0
C231 C 0.22913 0.2125 0.18437 0.0
C232 C 0.25917 0.25896 0.29887 0.0
C233 C 0.26273 0.24111 0.24113 0.0
C234 C 0.27116 0.27953 0.32452 0.0
C235 C 0.30187 0.30011 0.32255 0.0
C236 C 0.27773 0.25916 0.27071 0.0
C237 C 0.32101 0.29815 0.29499 0.0
C238 C 0.2784 0.24505 0.21146 0.0
C239 C 0.21512 0.20786 0.21476 0.0
N240 N 0.30832 0.27837 0.26987 0.0
N241 N 0.2318 0.2224 0.24188 0.0
H242 H 0.82973 0.32051 0.22355 0.0
H243 H 0.66558 0.21627 0.29094 0.0
H244 H 0.74984 0.26504 0.16282 0.0
H245 H 0.75266 0.26064 0.35171 0.0
H246 H 0.68996 0.24313 0.24407 0.0
H247 H 0.79675 0.30634 0.27105 0.0
C248 C 0.80535 0.30536 0.22016 0.0
C249 C 0.79289 0.29359 0.18915 0.0
C250 C 0.70338 0.24742 0.2678 0.0
C251 C 0.75476 0.27767 0.24331 0.0
C252 C 0.68923 0.23238 0.29458 0.0
C253 C 0.70741 0.23596 0.32505 0.0
C254 C 0.73579 0.26612 0.27174 0.0
C255 C 0.73811 0.25693 0.32845 0.0
C256 C 0.78642 0.29741 0.24726 0.0
C257 C 0.76081 0.27437 0.18625 0.0
N258 N 0.75159 0.27089 0.30205 0.0
N259 N 0.743 0.26692 0.21295 0.0
H260 H 0.34078 0.75525 0.23917 0.0
H261 H 0.15966 0.7866 0.2356 0.0
H262 H 0.26733 0.69978 0.17254 0.0
H263 H 0.24245 0.86256 0.2423 0.0
H264 H 0.19514 0.7572 0.20326 0.0
H265 H 0.30518 0.79708 0.23502 0.0
C266 C 0.31729 0.75213 0.22335 0.0
C267 C 0.30652 0.72407 0.20659 0.0
C268 C 0.20496 0.78088 0.21031 0.0
C269 C 0.26546 0.77145 0.20202 0.0
C270 C 0.18448 0.79782 0.22841 0.0
C271 C 0.19848 0.82678 0.24187 0.0
C272 C 0.23979 0.79286 0.20679 0.0
C273 C 0.23094 0.84014 0.23243 0.0
C274 C 0.29719 0.77607 0.22064 0.0
C275 C 0.27619 0.72114 0.18604 0.0
N276 N 0.25122 0.82258 0.21658 0.0
N277 N 0.25605 0.74427 0.18504 0.0
H278 H 0.77535 0.67065 0.23101 0.0
H279 H 0.77861 0.84935 0.26801 0.0
H280 H 0.83762 0.72057 0.31013 0.0
H281 H 0.72251 0.80114 0.1847 0.0
H282 H 0.80788 0.80441 0.27857 0.0
H283 H 0.76219 0.71938 0.20941 0.0
C284 C 0.78637 0.69186 0.24385 0.0
C285 C 0.80713 0.69144 0.27284 0.0
C286 C 0.78963 0.80377 0.25764 0.0
C287 C 0.79217 0.74746 0.248 0.0
C288 C 0.77294 0.82945 0.25156 0.0
C289 C 0.74762 0.82868 0.2258 0.0
C290 C 0.78056 0.77696 0.23811 0.0
C291 C 0.74168 0.80257 0.20497 0.0
C292 C 0.77899 0.71973 0.23133 0.0
C293 C 0.82113 0.71973 0.28798 0.0
N294 N 0.75753 0.77744 0.21197 0.0
N295 N 0.81305 0.74659 0.27558 0.0
H296 H 0.25251 0.75904 0.65819 0.0
H297 H 0.24829 0.76322 0.85056 0.0
H298 H 0.32681 0.81804 0.72134 0.0
H299 H 0.16789 0.71195 0.78724 0.0
H300 H 0.27335 0.78839 0.80348 0.0
H301 H 0.21873 0.74484 0.70474 0.0
C302 C 0.26188 0.76897 0.68186 0.0
C303 C 0.29291 0.78954 0.68582 0.0
C304 C 0.24984 0.77211 0.79982 0.0
C305 C 0.25385 0.77346 0.73937 0.0
C306 C 0.23538 0.75791 0.82672 0.0
C307 C 0.20615 0.73535 0.82266 0.0
C308 C 0.23531 0.76329 0.76855 0.0
C309 C 0.19039 0.7293 0.79136 0.0
C310 C 0.24232 0.76099 0.70843 0.0
C311 C 0.30332 0.80185 0.7171 0.0
N312 N 0.2056 0.74276 0.76535 0.0
N313 N 0.28394 0.79347 0.74269 0.0
H314 H 0.68726 0.69443 0.71627 0.0
H315 H 0.84442 0.81687 0.79282 0.0
H316 H 0.7675 0.7414 0.66011 0.0
H317 H 0.75112 0.78687 0.84151 0.0
H318 H 0.82258 0.78132 0.74708 0.0
H319 H 0.7163 0.72059 0.76551 0.0
C320 C 0.71106 0.71003 0.71429 0.0
C321 C 0.72462 0.71605 0.68391 0.0
C322 C 0.80712 0.78236 0.76798 0.0
C323 C 0.75809 0.74589 0.74012 0.0
C324 C 0.81966 0.80249 0.79411 0.0
C325 C 0.79932 0.80515 0.82074 0.0
C326 C 0.77425 0.76461 0.76877 0.0
C327 C 0.7674 0.78595 0.82119 0.0
C328 C 0.72762 0.72498 0.74238 0.0
C329 C 0.75573 0.73639 0.6829 0.0
N330 N 0.75578 0.76667 0.79555 0.0
N331 N 0.77129 0.75065 0.71052 0.0
H332 H 0.65922 0.28697 0.73428 0.0
H333 H 0.84205 0.26101 0.72929 0.0
H334 H 0.74058 0.3641 0.73913 0.0
H335 H 0.76457 0.20079 0.67121 0.0
H336 H 0.80572 0.3022 0.72445 0.0
H337 H 0.6937 0.25875 0.69972 0.0
C338 C 0.68346 0.29867 0.72631 0.0
C339 C 0.69744 0.32761 0.73981 0.0
C340 C 0.79693 0.2803 0.71195 0.0
C341 C 0.73779 0.29503 0.70212 0.0
C342 C 0.81755 0.25676 0.71501 0.0
C343 C 0.80583 0.22756 0.70109 0.0
C344 C 0.76374 0.27413 0.69601 0.0
C345 C 0.77417 0.22309 0.68252 0.0
C346 C 0.70341 0.28243 0.70689 0.0
C347 C 0.72913 0.34167 0.72928 0.0
N348 N 0.7536 0.2459 0.68132 0.0
N349 N 0.74898 0.32476 0.71207 0.0
H350 H 0.22503 0.3028 0.68219 0.0
H351 H 0.34168 0.22074 0.8103 0.0
H352 H 0.2781 0.34781 0.76868 0.0
H353 H 0.27564 0.17276 0.73234 0.0
H354 H 0.32871 0.26977 0.78859 0.0
H355 H 0.25462 0.25772 0.69284 0.0
C356 C 0.24353 0.3035 0.70295 0.0
C357 C 0.24859 0.32875 0.72498 0.0
C358 C 0.31731 0.24848 0.77612 0.0
C359 C 0.28205 0.27735 0.73751 0.0
C360 C 0.32461 0.22047 0.78856 0.0
C361 C 0.30919 0.19254 0.77352 0.0
C362 C 0.29448 0.24854 0.74844 0.0
C363 C 0.28766 0.19368 0.74512 0.0
C364 C 0.2602 0.2777 0.70917 0.0
C365 C 0.2729 0.3285 0.75146 0.0
N366 N 0.28071 0.22119 0.73368 0.0
N367 N 0.28836 0.30301 0.75724 0.0
H368 H 0.22109 0.96183 0.27403 0.0
H369 H 0.10735 0.07933 0.18521 0.0
H370 H 0.10925 0.95086 0.27192 0.0
H371 H 0.21551 0.07679 0.16964 0.0
H372 H 0.1082 0.03529 0.22098 0.0
H373 H 0.22023 1.00703 0.24006 0.0
C374 C 0.19633 0.969 0.26659 0.0
C375 C 0.16518 0.95243 0.27587 0.0
C376 C 0.13175 0.04436 0.20973 0.0
C377 C 0.16402 1.00435 0.23685 0.0
C378 C 0.13131 0.06957 0.18934 0.0
C379 C 0.16139 0.08179 0.17428 0.0
C380 C 0.16259 0.03138 0.21546 0.0
C381 C 0.19166 0.06812 0.18058 0.0
C382 C 0.19587 0.99478 0.24706 0.0
C383 C 0.1339 0.96285 0.26534 0.0
N384 N 0.1915 0.04377 0.2007 0.0
N385 N 0.13412 0.98812 0.24648 0.0
H386 H 0.80705 0.42406 0.17412 0.0
H387 H 0.91022 0.53834 0.31275 0.0
H388 H 0.91259 0.41705 0.2078 0.0
H389 H 0.80877 0.54719 0.26927 0.0
H390 H 0.91035 0.49086 0.27946 0.0
H391 H 0.80624 0.46647 0.21305 0.0
C392 C 0.83015 0.43145 0.18971 0.0
C393 C 0.86001 0.41701 0.18745 0.0
C394 C 0.88795 0.50309 0.27753 0.0
C395 C 0.85926 0.46593 0.23257 0.0
C396 C 0.88776 0.53001 0.29672 0.0
C397 C 0.85949 0.54682 0.29371 0.0
C398 C 0.85958 0.49292 0.25542 0.0
C399 C 0.83122 0.53515 0.27229 0.0
C400 C 0.82965 0.45573 0.21207 0.0
C401 C 0.88905 0.4276 0.20856 0.0
N402 N 0.83207 0.50915 0.25399 0.0
N403 N 0.888 0.45148 0.23018 0.0
H404 H 0.31932 0.133 0.91777 0.0
H405 H 0.15004 0.09629 0.01946 0.0
H406 H 0.22711 0.07593 0.87735 0.0
H407 H 0.23087 0.17291 0.04007 0.0
H408 H 0.17871 0.08401 0.96992 0.0
H409 H 0.28913 0.14197 0.96648 0.0
C410 C 0.29286 0.12198 0.9192 0.0
C411 C 0.27582 0.10375 0.89312 0.0
C412 C 0.18994 0.10359 0.98529 0.0
C413 C 0.24074 0.11428 0.94922 0.0
C414 C 0.17352 0.11069 0.01345 0.0
C415 C 0.18802 0.13567 0.03404 0.0
C416 C 0.22129 0.12136 0.97799 0.0
C417 C 0.21865 0.15341 0.02509 0.0
C418 C 0.27549 0.12735 0.94704 0.0
C419 C 0.24135 0.09023 0.8967 0.0
N420 N 0.23429 0.14579 0.99803 0.0
N421 N 0.22493 0.09581 0.92415 0.0
H422 H 0.8381 0.41024 0.04284 0.0
H423 H 0.71586 0.32732 0.89553 0.0
H424 H 0.80457 0.31227 0.03502 0.0
H425 H 0.71629 0.4237 0.91954 0.0
H426 H 0.75384 0.32267 0.94355 0.0
H427 H 0.8005 0.41708 0.99395 0.0
C428 C 0.82348 0.39016 0.03042 0.0
C429 C 0.8246 0.3606 0.04281 0.0
C430 C 0.74551 0.34485 0.93861 0.0
C431 C 0.7814 0.36826 0.98749 0.0
C432 C 0.72368 0.34751 0.91115 0.0
C433 C 0.71268 0.3759 0.90358 0.0
C434 C 0.75721 0.37091 0.95863 0.0
C435 C 0.72381 0.40129 0.92477 0.0
C436 C 0.80168 0.39412 1.00287 0.0
C437 C 0.80458 0.33543 0.02623 0.0
N438 N 0.74583 0.3983 0.95125 0.0
N439 N 0.78394 0.33983 0.99951 0.0
H440 H 0.31328 0.8129 0.53149 0.0
H441 H 0.21011 0.92386 0.42227 0.0
H442 H 0.33177 0.91162 0.54646 0.0
H443 H 0.22364 0.83104 0.39391 0.0
H444 H 0.24943 0.92007 0.47093 0.0
H445 H 0.2765 0.81938 0.48294 0.0
C446 C 0.31009 0.83603 0.5241 0.0
C447 C 0.32593 0.86175 0.54273 0.0
C448 C 0.24357 0.90059 0.45399 0.0
C449 C 0.28266 0.86946 0.48759 0.0
C450 C 0.22084 0.9026 0.42651 0.0
C451 C 0.21348 0.87769 0.40403 0.0
C452 C 0.25846 0.87332 0.45905 0.0
C453 C 0.22853 0.85086 0.41043 0.0
C454 C 0.28887 0.83976 0.49648 0.0
C455 C 0.3205 0.89123 0.53235 0.0
N456 N 0.25008 0.8494 0.43721 0.0
N457 N 0.29892 0.89431 0.50561 0.0
H458 H 0.65057 0.59495 0.52063 0.0
H459 H 0.81906 0.63393 0.41808 0.0
H460 H 0.73012 0.67271 0.54061 0.0
H461 H 0.72803 0.5745 0.37884 0.0
H462 H 0.78887 0.64269 0.46687 0.0
H463 H 0.67956 0.58275 0.47124 0.0
C464 C 0.67385 0.6096 0.51452 0.0
C465 C 0.68787 0.6349 0.53487 0.0
C466 C 0.77549 0.62759 0.44767 0.0
C467 C 0.7215 0.6207 0.47898 0.0
C468 C 0.79287 0.62235 0.4198 0.0
C469 C 0.77615 0.60351 0.39402 0.0
C470 C 0.74105 0.61379 0.4502 0.0
C471 C 0.74202 0.58929 0.39795 0.0
C472 C 0.69045 0.60255 0.48644 0.0
C473 C 0.71826 0.65295 0.52581 0.0
N474 N 0.72558 0.59477 0.42542 0.0
N475 N 0.73407 0.64539 0.49883 0.0
H476 H 0.96419 0.32707 0.11059 0.0
H477 H 0.05607 0.17382 0.10418 0.0
H478 H 0.90738 0.23654 0.08975 0.0
H479 H 0.11002 0.26361 0.08454 0.0
H480 H 1.00195 0.19668 0.10647 0.0
H481 H 0.01877 0.30459 0.10874 0.0
C482 C 0.96312 0.30254 0.1057 0.0
C483 C 0.93099 0.2838 0.1001 0.0
C484 C 0.02566 0.21133 0.10158 0.0
C485 C 0.99338 0.25783 0.09845 0.0
C486 C 0.0566 0.19828 0.1003 0.0
C487 C 0.08777 0.21667 0.0939 0.0
C488 C 0.02586 0.24317 0.09711 0.0
C489 C 0.08668 0.24836 0.08921 0.0
C490 C 0.99429 0.28973 0.10454 0.0
C491 C 0.93139 0.25206 0.0939 0.0
N492 N 0.05642 0.26059 0.09112 0.0
N493 N 0.96191 0.24013 0.09345 0.0
H494 H 0.94516 0.69067 0.2826 0.0
H495 H 0.09877 0.78083 0.3964 0.0
H496 H 0.9468 0.68625 0.3871 0.0
H497 H 0.06944 0.8143 0.30251 0.0
H498 H 0.04583 0.74342 0.39278 0.0
H499 H 0.99417 0.73252 0.288 0.0
C500 C 0.95599 0.69831 0.30665 0.0
C501 C 0.94196 0.68482 0.33444 0.0
C502 C 0.05071 0.75924 0.37317 0.0
C503 C 0.99798 0.73264 0.34077 0.0
C504 C 0.08084 0.78068 0.37528 0.0
C505 C 0.08843 0.8009 0.34983 0.0
C506 C 0.02836 0.75731 0.34499 0.0
C507 C 0.0644 0.79945 0.32288 0.0
C508 C 0.98372 0.72238 0.30972 0.0
C509 C 0.95681 0.69593 0.36501 0.0
N510 N 0.03573 0.77769 0.32092 0.0
N511 N 0.98413 0.71896 0.36736 0.0
H512 H 0.58655 0.72923 0.53944 0.0
H513 H 0.44914 0.79715 0.64631 0.0
H514 H 0.57453 0.70275 0.63876 0.0
H515 H 0.42675 0.77469 0.5443 0.0
H516 H 0.50196 0.77195 0.64455 0.0
H517 H 0.53396 0.75443 0.5411 0.0
C518 C 0.57272 0.72853 0.56153 0.0
C519 C 0.58483 0.71355 0.5889 0.0
C520 C 0.48553 0.77276 0.62256 0.0
C521 C 0.52524 0.74335 0.59128 0.0
C522 C 0.45562 0.78741 0.62345 0.0
C523 C 0.43349 0.78812 0.59538 0.0
C524 C 0.49389 0.75942 0.59321 0.0
C525 C 0.44299 0.77468 0.56652 0.0
C526 C 0.54276 0.74296 0.56246 0.0
C527 C 0.5659 0.71362 0.61695 0.0
N528 N 0.47251 0.76113 0.56612 0.0
N529 N 0.53734 0.7286 0.61757 0.0
H530 H 0.83653 0.10476 0.78048 0.0
H531 H 0.88709 0.93749 0.82217 0.0
H532 H 0.89221 0.05403 0.71515 0.0
H533 H 0.80486 0.97772 0.86561 0.0
H534 H 0.89775 0.98318 0.78844 0.0
H535 H 0.83369 0.06184 0.81755 0.0
C536 C 0.84851 0.08471 0.77402 0.0
C537 C 0.86446 0.08302 0.74444 0.0
C538 C 0.87756 0.98202 0.80554 0.0
C539 C 0.86123 0.03345 0.78713 0.0
C540 C 0.87159 0.95606 0.82497 0.0
C541 C 0.84493 0.95363 0.84678 0.0
C542 C 0.85713 1.00601 0.80829 0.0
C543 C 0.82554 0.97839 0.84908 0.0
C544 C 0.84673 0.0601 0.79522 0.0
C545 C 0.87955 0.05633 0.7376 0.0
N546 N 0.83204 1.00342 0.83018 0.0
N547 N 0.8775 0.03256 0.75871 0.0
H548 H 0.2037 0.5653 0.87023 0.0
H549 H 0.13748 0.48578 0.69847 0.0
H550 H 0.1307 0.60541 0.80713 0.0
H551 H 0.18049 0.43872 0.77901 0.0
H552 H 0.13413 0.53026 0.73558 0.0
H553 H 0.19577 0.51924 0.83507 0.0
C554 C 0.18571 0.56428 0.84905 0.0
C555 C 0.16783 0.58925 0.84168 0.0
C556 C 0.14384 0.50994 0.74504 0.0
C557 C 0.15898 0.53644 0.8006 0.0
C558 C 0.14569 0.48457 0.72391 0.0
C559 C 0.1596 0.45854 0.73551 0.0
C560 C 0.15625 0.50918 0.77778 0.0
C561 C 0.16993 0.45829 0.76873 0.0
C562 C 0.18113 0.5379 0.82892 0.0
C563 C 0.1448 0.58655 0.81384 0.0
N564 N 0.16836 0.48318 0.78843 0.0
N565 N 0.14136 0.56077 0.79401 0.0
H566 H 0.68406 0.87582 0.07746 0.0
H567 H 0.86905 0.9056 0.99925 0.0
H568 H 0.77457 0.92332 0.13119 0.0
H569 H 0.77162 0.87528 0.94558 0.0
H570 H 0.83671 0.9132 0.04798 0.0
H571 H 0.7172 0.87573 0.0291 0.0
C572 C 0.7109 0.88643 0.07906 0.0
C573 C 0.72646 0.89961 0.1085 0.0
C574 C 0.82253 0.90518 0.02537 0.0
C575 C 0.76509 0.89932 0.05289 0.0
C576 C 0.84098 0.90095 0.99755 0.0
C577 C 0.82312 0.88961 0.96824 0.0
C578 C 0.78609 0.89786 0.02377 0.0
C579 C 0.78669 0.88383 0.96756 0.0
C580 C 0.72991 0.8864 0.05135 0.0
C581 C 0.76145 0.913 0.10897 0.0
N582 N 0.76958 0.88779 0.99476 0.0
N583 N 0.77969 0.9123 0.08168 0.0
H584 H 0.23993 0.65552 0.94068 0.0
H585 H 0.25124 0.61372 0.12866 0.0
H586 H 0.14838 0.63746 0.99506 0.0
H587 H 0.3388 0.6458 0.07305 0.0
H588 H 0.21266 0.61476 0.07944 0.0
H589 H 0.27527 0.6437 0.98765 0.0
C590 C 0.22706 0.64878 0.96247 0.0
C591 C 0.19099 0.6478 0.96384 0.0
C592 C 0.24034 0.62127 0.07801 0.0
C593 C 0.23203 0.63454 0.01869 0.0
C594 C 0.26243 0.62056 0.10603 0.0
C595 C 0.29837 0.62978 0.10501 0.0
C596 C 0.25434 0.63104 0.04871 0.0
C597 C 0.31133 0.6386 0.07508 0.0
C598 C 0.24746 0.64208 0.98951 0.0
C599 C 0.17608 0.63854 0.99291 0.0
N600 N 0.28938 0.63908 0.04829 0.0
N601 N 0.19674 0.6326 0.01941 0.0
H602 H 0.74143 0.15405 0.44156 0.0
H603 H 0.75237 0.11317 0.62973 0.0
H604 H 0.64999 0.13597 0.49608 0.0
H605 H 0.84036 0.14384 0.57408 0.0
H606 H 0.71407 0.11365 0.58034 0.0
H607 H 0.77684 0.14197 0.48844 0.0
C608 C 0.72861 0.14724 0.46336 0.0
C609 C 0.69256 0.14634 0.46482 0.0
C610 C 0.74178 0.11994 0.57891 0.0
C611 C 0.73364 0.13279 0.51952 0.0
C612 C 0.76373 0.11954 0.60705 0.0
C613 C 0.79971 0.12859 0.60609 0.0
C614 C 0.75593 0.12927 0.54955 0.0
C615 C 0.81286 0.13679 0.57607 0.0
C616 C 0.74904 0.14038 0.49033 0.0
C617 C 0.67768 0.13699 0.49387 0.0
N618 N 0.79101 0.13704 0.54914 0.0
N619 N 0.69836 0.13091 0.52028 0.0
H620 H 0.27569 0.42523 0.6312 0.0
H621 H 0.27081 0.37528 0.44265 0.0
H622 H 0.18667 0.37598 0.57677 0.0
H623 H 0.36725 0.40524 0.49807 0.0
H624 H 0.23924 0.38309 0.49047 0.0
H625 H 0.30887 0.42494 0.5822 0.0
C626 C 0.26299 0.41462 0.6089 0.0
C627 C 0.22826 0.40057 0.60816 0.0
C628 C 0.26728 0.38816 0.49234 0.0
C629 C 0.26613 0.40025 0.55202 0.0
C630 C 0.28548 0.38381 0.46488 0.0
C631 C 0.32192 0.38939 0.46624 0.0
C632 C 0.28539 0.39819 0.52186 0.0
C633 C 0.3392 0.40062 0.49586 0.0
C634 C 0.28203 0.41437 0.581 0.0
C635 C 0.21331 0.38704 0.57862 0.0
N636 N 0.32079 0.40447 0.52261 0.0
N637 N 0.23226 0.38724 0.55189 0.0
H638 H 0.05325 0.71244 0.84218 0.0
H639 H 0.92817 0.79908 0.94407 0.0
H640 H 0.08269 0.73894 0.94226 0.0
H641 H 0.95175 0.82801 0.84756 0.0
H642 H 0.97556 0.76693 0.9438 0.0
H643 H 1.00624 0.74475 0.84333 0.0
C644 C 0.04966 0.72487 0.86445 0.0
C645 C 0.07197 0.72308 0.89215 0.0
C646 C 0.97025 0.78036 0.92274 0.0
C647 C 0.01782 0.75942 0.89379 0.0
C648 C 0.94321 0.79857 0.92281 0.0
C649 C 0.93614 0.81635 0.89585 0.0
C650 C 0.98954 0.7791 0.89509 0.0
C651 C 0.95649 0.81486 0.86894 0.0
C652 C 0.02298 0.74337 0.86502 0.0
C653 C 0.0662 0.73981 0.92033 0.0
N654 N 0.98195 0.79629 0.86907 0.0
N655 N 0.03945 0.75701 0.92056 0.0
H656 H 0.08636 0.32538 0.66583 0.0
H657 H 0.97251 0.19941 0.76769 0.0
H658 H 0.08417 0.32575 0.77047 0.0
H659 H 0.94513 0.21247 0.66644 0.0
H660 H 0.02049 0.24088 0.76584 0.0
H661 H 0.03971 0.28113 0.66274 0.0
C662 C 0.07597 0.31649 0.6881 0.0
C663 C 0.08948 0.32955 0.71848 0.0
C664 C 1.00421 0.23464 0.74388 0.0
C665 C 0.03673 0.27845 0.71505 0.0
C666 C 0.97684 0.21069 0.74484 0.0
C667 C 0.95434 0.20241 0.71725 0.0
C668 C 1.0096 0.2508 0.71511 0.0
C669 C 0.96175 0.21794 0.68832 0.0
C670 C 0.04945 0.29113 0.68628 0.0
C671 C 0.07493 0.31673 0.74644 0.0
N672 N 0.98858 0.24157 0.68804 0.0
N673 N 0.04975 0.29197 0.74401 0.0
H674 H 0.58517 0.2381 0.44563 0.0
H675 H 0.45236 0.32784 0.3478 0.0
H676 H 0.55408 0.21278 0.34558 0.0
H677 H 0.43029 0.29846 0.4445 0.0
H678 H 0.49873 0.29494 0.34758 0.0
H679 H 0.53709 0.26935 0.44705 0.0
C680 C 0.56829 0.23917 0.42397 0.0
C681 C 0.57356 0.22274 0.39546 0.0
C682 C 0.48374 0.29576 0.36883 0.0
C683 C 0.51925 0.25898 0.39674 0.0
C684 C 0.45742 0.31462 0.36908 0.0
C685 C 0.43739 0.31587 0.39622 0.0
C686 C 0.49091 0.27871 0.3963 0.0
C687 C 0.44501 0.29806 0.42305 0.0
C688 C 0.54085 0.25686 0.42487 0.0
C689 C 0.55084 0.22491 0.36811 0.0
N690 N 0.47146 0.2805 0.4226 0.0
N691 N 0.52501 0.24301 0.36927 0.0
H692 H 0.60676 0.57981 0.68612 0.0
H693 H 0.72113 0.46264 0.77477 0.0
H694 H 0.71521 0.57819 0.6712 0.0
H695 H 0.60926 0.45115 0.77235 0.0
H696 H 0.72013 0.50812 0.74125 0.0
H697 H 0.60782 0.53578 0.72188 0.0
C698 C 0.63083 0.57026 0.69041 0.0
C699 C 0.66092 0.58273 0.67552 0.0
C700 C 0.69578 0.49571 0.74809 0.0
C701 C 0.66237 0.53231 0.71665 0.0
C702 C 0.69634 0.46977 0.76737 0.0
C703 C 0.66522 0.45295 0.7764 0.0
C704 C 0.66389 0.50519 0.7379 0.0
C705 C 0.63389 0.46332 0.76595 0.0
C706 C 0.63139 0.54506 0.71079 0.0
C707 C 0.69135 0.56932 0.68202 0.0
N708 N 0.63403 0.48873 0.74732 0.0
N709 N 0.6913 0.54496 0.7021 0.0
H710 H 0.40858 0.03671 0.81383 0.0
H711 H 0.30577 0.92287 0.67464 0.0
H712 H 0.30898 0.04788 0.76769 0.0
H713 H 0.41089 0.91537 0.7093 0.0
H714 H 0.30495 0.96556 0.71331 0.0
H715 H 0.40814 0.98888 0.78104 0.0
C716 C 0.3864 0.02884 0.79729 0.0
C717 C 0.35884 0.04638 0.79341 0.0
C718 C 0.32825 0.95462 0.7126 0.0
C719 C 0.35826 0.99203 0.75574 0.0
C720 C 0.32874 0.93018 0.69042 0.0
C721 C 0.35852 0.91556 0.68849 0.0
C722 C 0.35777 0.96477 0.73323 0.0
C723 C 0.38741 0.92606 0.70981 0.0
C724 C 0.38627 1.0017 0.7784 0.0
C725 C 0.3309 0.03526 0.77139 0.0
N726 N 0.38637 0.95007 0.73123 0.0
N727 N 0.33141 1.009 0.75341 0.0
H728 H 0.44844 0.183 0.88829 0.0
H729 H 0.56889 0.31602 0.80214 0.0
H730 H 0.44546 0.19154 0.78414 0.0
H731 H 0.60026 0.27776 0.89303 0.0
H732 H 0.51615 0.278 0.7987 0.0
H733 H 0.4977 0.22437 0.89346 0.0
C734 C 0.45822 0.19352 0.86648 0.0
C735 C 0.44301 0.18359 0.8357 0.0
C736 C 0.53442 0.27824 0.81956 0.0
C737 C 0.49883 0.23153 0.84155 0.0
C738 C 0.56427 0.30017 0.82176 0.0
C739 C 0.58899 0.30012 0.84796 0.0
C740 C 0.52894 0.2565 0.84402 0.0
C741 C 0.58192 0.27863 0.87241 0.0
C742 C 0.48629 0.21715 0.86948 0.0
C743 C 0.45666 0.19821 0.80831 0.0
N744 N 0.5526 0.25774 0.86986 0.0
N745 N 0.48364 0.22159 0.81187 0.0
H746 H 0.36961 0.5439 0.19795 0.0
H747 H 0.36829 0.47836 0.37817 0.0
H748 H 0.36411 0.60273 0.28213 0.0
H749 H 0.32266 0.42459 0.29411 0.0
H750 H 0.38006 0.52349 0.34346 0.0
H751 H 0.36603 0.4991 0.23318 0.0
C752 C 0.36828 0.54748 0.2239 0.0
C753 C 0.36707 0.57712 0.2371 0.0
C754 C 0.36767 0.50173 0.33264 0.0
C755 C 0.36317 0.52594 0.27756 0.0
C756 C 0.3611 0.47606 0.35237 0.0
C757 C 0.3445 0.44787 0.33886 0.0
C758 C 0.35813 0.49894 0.29915 0.0
C759 C 0.33553 0.44599 0.30536 0.0
C760 C 0.36598 0.52187 0.24394 0.0
C761 C 0.36498 0.58028 0.27092 0.0
N762 N 0.34256 0.47109 0.28662 0.0
N763 N 0.36317 0.55506 0.28998 0.0
H764 H 0.70359 0.06453 0.3708 0.0
H765 H 0.63706 0.98564 0.19885 0.0
H766 H 0.63152 0.10563 0.30759 0.0
H767 H 0.67866 0.93798 0.27962 0.0
H768 H 0.63419 0.03027 0.23591 0.0
H769 H 0.6951 0.01851 0.33557 0.0
C770 C 0.68569 0.06374 0.34957 0.0
C771 C 0.66823 0.08898 0.3422 0.0
C772 C 0.64347 0.00979 0.24543 0.0
C773 C 0.65872 0.03619 0.30104 0.0
C774 C 0.64504 0.98433 0.22433 0.0
C775 C 0.65844 0.95809 0.23601 0.0
C776 C 0.65564 1.0089 0.27822 0.0
C777 C 0.6685 0.95772 0.26927 0.0
C778 C 0.68078 0.03738 0.32941 0.0
C779 C 0.64529 0.08656 0.3143 0.0
N780 N 0.66722 0.98269 0.28895 0.0
N781 N 0.64153 0.06078 0.29443 0.0
H782 H 0.58466 0.82552 0.16601 0.0
H783 H 0.47457 0.6951 0.26543 0.0
H784 H 0.58398 0.82307 0.27066 0.0
H785 H 0.44456 0.71127 0.16546 0.0
H786 H 0.52185 0.73727 0.26412 0.0
H787 H 0.53854 0.78085 0.16226 0.0
C788 C 0.5747 0.81592 0.18816 0.0
C789 C 0.58848 0.82833 0.21872 0.0
C790 C 0.50514 0.73156 0.24232 0.0
C791 C 0.53634 0.77673 0.21451 0.0
C792 C 0.47816 0.70721 0.24295 0.0
C793 C 0.45513 0.69958 0.2156 0.0
C794 C 0.50961 0.74875 0.21411 0.0
C795 C 0.46161 0.71621 0.18715 0.0
C796 C 0.54848 0.79033 0.18596 0.0
C797 C 0.57449 0.8146 0.2465 0.0
N798 N 0.48808 0.74018 0.18719 0.0
N799 N 0.54961 0.78961 0.24368 0.0
loop_
_geom_bond_atom_site_label_1
_geom_bond_atom_site_label_2
_geom_bond_distance
_geom_bond_site_symmetry_2
_ccdc_geom_bond_type
Co0 O1 2.216 . S
Co0 O2 2.091 . S
Co0 O4 2.004 . S
Co0 O10 2.021 . S
Co0 O12 2.137 . S
Co0 O13 2.244 . S
O1 Co0 2.216 . S
O1 C8 1.247 . S
O2 Co0 2.091 . S
O2 C8 1.261 . S
C3 O12 1.247 . S
C3 O13 1.272 . S
O4 Co0 2.004 . S
O4 C9 1.259 . S
Co5 O6 2.061 . S
Co5 O11 2.052 . S
Co5 O13 2.135 . S
O6 Co5 2.061 . S
O6 C9 1.235 . S
C7 O10 1.238 . S
C7 O11 1.241 . S
C8 O1 1.247 . S
C8 O2 1.261 . S
C9 O4 1.259 . S
C9 O6 1.235 . S
O10 Co0 2.021 . S
O10 C7 1.238 . S
O11 Co5 2.052 . S
O11 C7 1.241 . S
O12 Co0 2.137 . S
O12 C3 1.247 . S
O13 Co0 2.244 . S
O13 C3 1.272 . S
O13 Co5 2.135 . S
Co14 O15 2.216 . S
Co14 O16 2.091 . S
Co14 O18 2.004 . S
Co14 O24 2.021 . S
Co14 O26 2.137 . S
Co14 O27 2.244 . S
O15 Co14 2.216 . S
O15 C22 1.247 . S
O16 Co14 2.091 . S
O16 C22 1.261 . S
C17 O26 1.247 . S
C17 O27 1.272 . S
O18 Co14 2.004 . S
O18 C23 1.259 . S
Co19 O20 2.061 . S
Co19 O25 2.052 . S
Co19 O27 2.135 . S
O20 Co19 2.061 . S
O20 C23 1.235 . S
C21 O24 1.238 . S
C21 O25 1.241 . S
C22 O15 1.247 . S
C22 O16 1.261 . S
C23 O18 1.259 . S
C23 O20 1.235 . S
O24 Co14 2.021 . S
O24 C21 1.238 . S
O25 Co19 2.052 . S
O25 C21 1.241 . S
O26 Co14 2.137 . S
O26 C17 1.247 . S
O27 Co14 2.244 . S
O27 C17 1.272 . S
O27 Co19 2.135 . S
Co28 O29 2.216 . S
Co28 O30 2.091 . S
Co28 O32 2.004 . S
Co28 O38 2.021 . S
Co28 O40 2.137 . S
Co28 O41 2.244 . S
O29 Co28 2.216 . S
O29 C36 1.247 . S
O30 Co28 2.091 . S
O30 C36 1.261 . S
C31 O40 1.247 . S
C31 O41 1.272 . S
O32 Co28 2.004 . S
O32 C37 1.259 . S
Co33 O34 2.061 . S
Co33 O39 2.052 . S
Co33 O41 2.135 . S
O34 Co33 2.061 . S
O34 C37 1.235 . S
C35 O38 1.238 . S
C35 O39 1.241 . S
C36 O29 1.247 . S
C36 O30 1.261 . S
C37 O32 1.259 . S
C37 O34 1.235 . S
O38 Co28 2.021 . S
O38 C35 1.238 . S
O39 Co33 2.052 . S
O39 C35 1.241 . S
O40 Co28 2.137 . S
O40 C31 1.247 . S
O41 Co28 2.244 . S
O41 C31 1.272 . S
O41 Co33 2.135 . S
Co42 O43 2.216 . S
Co42 O44 2.091 . S
Co42 O46 2.004 . S
Co42 O52 2.021 . S
Co42 O54 2.137 . S
Co42 O55 2.244 . S
O43 Co42 2.216 . S
O43 C50 1.247 . S
O44 Co42 2.091 . S
O44 C50 1.261 . S
C45 O54 1.247 . S
C45 O55 1.272 . S
O46 Co42 2.004 . S
O46 C51 1.259 . S
Co47 O48 2.061 . S
Co47 O53 2.052 . S
Co47 O55 2.135 . S
O48 Co47 2.061 . S
O48 C51 1.235 . S
C49 O52 1.238 . S
C49 O53 1.241 . S
C50 O43 1.247 . S
C50 O44 1.261 . S
C51 O46 1.259 . S
C51 O48 1.235 . S
O52 Co42 2.021 . S
O52 C49 1.238 . S
O53 Co47 2.052 . S
O53 C49 1.241 . S
O54 Co42 2.137 . S
O54 C45 1.247 . S
O55 Co42 2.244 . S
O55 C45 1.272 . S
O55 Co47 2.135 . S
Co56 O57 2.216 . S
Co56 O58 2.091 . S
Co56 O60 2.004 . S
Co56 O66 2.021 . S
Co56 O68 2.137 . S
Co56 O69 2.244 . S
O57 Co56 2.216 . S
O57 C64 1.247 . S
O58 Co56 2.091 . S
O58 C64 1.261 . S
C59 O68 1.247 . S
C59 O69 1.272 . S
O60 Co56 2.004 . S
O60 C65 1.259 . S
Co61 O62 2.061 . S
Co61 O67 2.052 . S
Co61 O69 2.135 . S
O62 Co61 2.061 . S
O62 C65 1.235 . S
C63 O66 1.238 . S
C63 O67 1.241 . S
C64 O57 1.247 . S
C64 O58 1.261 . S
C65 O60 1.259 . S
C65 O62 1.235 . S
O66 Co56 2.021 . S
O66 C63 1.238 . S
O67 Co61 2.052 . S
O67 C63 1.241 . S
O68 Co56 2.137 . S
O68 C59 1.247 . S
O69 Co56 2.244 . S
O69 C59 1.272 . S
O69 Co61 2.135 . S
Co70 O71 2.216 . S
Co70 O72 2.091 . S
Co70 O74 2.004 . S
Co70 O80 2.021 . S
Co70 O82 2.137 . S
Co70 O83 2.244 . S
O71 Co70 2.216 . S
O71 C78 1.247 . S
O72 Co70 2.091 . S
O72 C78 1.261 . S
C73 O82 1.247 . S
C73 O83 1.272 . S
O74 Co70 2.004 . S
O74 C79 1.259 . S
Co75 O76 2.061 . S
Co75 O81 2.052 . S
Co75 O83 2.135 . S
O76 Co75 2.061 . S
O76 C79 1.235 . S
C77 O80 1.238 . S
C77 O81 1.241 . S
C78 O71 1.247 . S
C78 O72 1.261 . S
C79 O74 1.259 . S
C79 O76 1.235 . S
O80 Co70 2.021 . S
O80 C77 1.238 . S
O81 Co75 2.052 . S
O81 C77 1.241 . S
O82 Co70 2.137 . S
O82 C73 1.247 . S
O83 Co70 2.244 . S
O83 C73 1.272 . S
O83 Co75 2.135 . S
Co84 O85 2.216 . S
Co84 O86 2.091 . S
Co84 O88 2.004 . S
Co84 O94 2.021 . S
Co84 O96 2.137 . S
Co84 O97 2.244 . S
O85 Co84 2.216 . S
O85 C92 1.247 . S
O86 Co84 2.091 . S
O86 C92 1.261 . S
C87 O96 1.247 . S
C87 O97 1.272 . S
O88 Co84 2.004 . S
O88 C93 1.259 . S
Co89 O90 2.061 . S
Co89 O95 2.052 . S
Co89 O97 2.135 . S
O90 Co89 2.061 . S
O90 C93 1.235 . S
C91 O94 1.238 . S
C91 O95 1.241 . S
C92 O85 1.247 . S
C92 O86 1.261 . S
C93 O88 1.259 . S
C93 O90 1.235 . S
O94 Co84 2.021 . S
O94 C91 1.238 . S
O95 Co89 2.052 . S
O95 C91 1.241 . S
O96 Co84 2.137 . S
O96 C87 1.247 . S
O97 Co84 2.244 . S
O97 C87 1.272 . S
O97 Co89 2.135 . S
Co98 O99 2.216 . S
Co98 O100 2.091 . S
Co98 O102 2.004 . S
Co98 O108 2.021 . S
Co98 O110 2.137 . S
Co98 O111 2.244 . S
O99 Co98 2.216 . S
O99 C106 1.247 . S
O100 Co98 2.091 . S
O100 C106 1.261 . S
C101 O110 1.247 . S
C101 O111 1.272 . S
O102 Co98 2.004 . S
O102 C107 1.259 . S
Co103 O104 2.061 . S
Co103 O109 2.052 . S
Co103 O111 2.135 . S
O104 Co103 2.061 . S
O104 C107 1.235 . S
C105 O108 1.238 . S
C105 O109 1.241 . S
C106 O99 1.247 . S
C106 O100 1.261 . S
C107 O102 1.259 . S
C107 O104 1.235 . S
O108 Co98 2.021 . S
O108 C105 1.238 . S
O109 Co103 2.052 . S
O109 C105 1.241 . S
O110 Co98 2.137 . S
O110 C101 1.247 . S
O111 Co98 2.244 . S
O111 C101 1.272 . S
O111 Co103 2.135 . S
Co112 O113 2.216 . S
Co112 O114 2.091 . S
Co112 O116 2.004 . S
Co112 O122 2.021 . S
Co112 O124 2.137 . S
Co112 O125 2.244 . S
O113 Co112 2.216 . S
O113 C120 1.247 . S
O114 Co112 2.091 . S
O114 C120 1.261 . S
C115 O124 1.247 . S
C115 O125 1.272 . S
O116 Co112 2.004 . S
O116 C121 1.259 . S
Co117 O118 2.061 . S
Co117 O123 2.052 . S
Co117 O125 2.135 . S
O118 Co117 2.061 . S
O118 C121 1.235 . S
C119 O122 1.238 . S
C119 O123 1.241 . S
C120 O113 1.247 . S
C120 O114 1.261 . S
C121 O116 1.259 . S
C121 O118 1.235 . S
O122 Co112 2.021 . S
O122 C119 1.238 . S
O123 Co117 2.052 . S
O123 C119 1.241 . S
O124 Co112 2.137 . S
O124 C115 1.247 . S
O125 Co112 2.244 . S
O125 C115 1.272 . S
O125 Co117 2.135 . S
Co126 O127 2.216 . S
Co126 O128 2.091 . S
Co126 O130 2.004 . S
Co126 O136 2.021 . S
Co126 O138 2.137 . S
Co126 O139 2.244 . S
O127 Co126 2.216 . S
O127 C134 1.247 . S
O128 Co126 2.091 . S
O128 C134 1.261 . S
C129 O138 1.247 . S
C129 O139 1.272 . S
O130 Co126 2.004 . S
O130 C135 1.259 . S
Co131 O132 2.061 . S
Co131 O137 2.052 . S
Co131 O139 2.135 . S
O132 Co131 2.061 . S
O132 C135 1.235 . S
C133 O136 1.238 . S
C133 O137 1.241 . S
C134 O127 1.247 . S
C134 O128 1.261 . S
C135 O130 1.259 . S
C135 O132 1.235 . S
O136 Co126 2.021 . S
O136 C133 1.238 . S
O137 Co131 2.052 . S
O137 C133 1.241 . S
O138 Co126 2.137 . S
O138 C129 1.247 . S
O139 Co126 2.244 . S
O139 C129 1.272 . S
O139 Co131 2.135 . S
Co140 O141 2.216 . S
Co140 O142 2.091 . S
Co140 O144 2.004 . S
Co140 O150 2.021 . S
Co140 O152 2.137 . S
Co140 O153 2.244 . S
O141 Co140 2.216 . S
O141 C148 1.247 . S
O142 Co140 2.091 . S
O142 C148 1.261 . S
C143 O152 1.247 . S
C143 O153 1.272 . S
O144 Co140 2.004 . S
O144 C149 1.259 . S
Co145 O146 2.061 . S
Co145 O151 2.052 . S
Co145 O153 2.135 . S
O146 Co145 2.061 . S
O146 C149 1.235 . S
C147 O150 1.238 . S
C147 O151 1.241 . S
C148 O141 1.247 . S
C148 O142 1.261 . S
C149 O144 1.259 . S
C149 O146 1.235 . S
O150 Co140 2.021 . S
O150 C147 1.238 . S
O151 Co145 2.052 . S
O151 C147 1.241 . S
O152 Co140 2.137 . S
O152 C143 1.247 . S
O153 Co140 2.244 . S
O153 C143 1.272 . S
O153 Co145 2.135 . S
Co154 O155 2.216 . S
Co154 O156 2.091 . S
Co154 O158 2.004 . S
Co154 O164 2.021 . S
Co154 O166 2.137 . S
Co154 O167 2.244 . S
O155 Co154 2.216 . S
O155 C162 1.247 . S
O156 Co154 2.091 . S
O156 C162 1.261 . S
C157 O166 1.247 . S
C157 O167 1.272 . S
O158 Co154 2.004 . S
O158 C163 1.259 . S
Co159 O160 2.061 . S
Co159 O165 2.052 . S
Co159 O167 2.135 . S
O160 Co159 2.061 . S
O160 C163 1.235 . S
C161 O164 1.238 . S
C161 O165 1.241 . S
C162 O155 1.247 . S
C162 O156 1.261 . S
C163 O158 1.259 . S
C163 O160 1.235 . S
O164 Co154 2.021 . S
O164 C161 1.238 . S
O165 Co159 2.052 . S
O165 C161 1.241 . S
O166 Co154 2.137 . S
O166 C157 1.247 . S
O167 Co154 2.244 . S
O167 C157 1.272 . S
O167 Co159 2.135 . S
Co168 O169 2.216 . S
Co168 O170 2.091 . S
Co168 O172 2.004 . S
Co168 O178 2.021 . S
Co168 O180 2.137 . S
Co168 O181 2.244 . S
O169 Co168 2.216 . S
O169 C176 1.247 . S
O170 Co168 2.091 . S
O170 C176 1.261 . S
C171 O180 1.247 . S
C171 O181 1.272 . S
O172 Co168 2.004 . S
O172 C177 1.259 . S
Co173 O174 2.061 . S
Co173 O179 2.052 . S
Co173 O181 2.135 . S
O174 Co173 2.061 . S
O174 C177 1.235 . S
C175 O178 1.238 . S
C175 O179 1.241 . S
C176 O169 1.247 . S
C176 O170 1.261 . S
C177 O172 1.259 . S
C177 O174 1.235 . S
O178 Co168 2.021 . S
O178 C175 1.238 . S
O179 Co173 2.052 . S
O179 C175 1.241 . S
O180 Co168 2.137 . S
O180 C171 1.247 . S
O181 Co168 2.244 . S
O181 C171 1.272 . S
O181 Co173 2.135 . S
Co182 O183 2.216 . S
Co182 O184 2.091 . S
Co182 O186 2.004 . S
Co182 O192 2.021 . S
Co182 O194 2.137 . S
Co182 O195 2.244 . S
O183 Co182 2.216 . S
O183 C190 1.247 . S
O184 Co182 2.091 . S
O184 C190 1.261 . S
C185 O194 1.247 . S
C185 O195 1.272 . S
O186 Co182 2.004 . S
O186 C191 1.259 . S
Co187 O188 2.061 . S
Co187 O193 2.052 . S
Co187 O195 2.135 . S
O188 Co187 2.061 . S
O188 C191 1.235 . S
C189 O192 1.238 . S
C189 O193 1.241 . S
C190 O183 1.247 . S
C190 O184 1.261 . S
C191 O186 1.259 . S
C191 O188 1.235 . S
O192 Co182 2.021 . S
O192 C189 1.238 . S
O193 Co187 2.052 . S
O193 C189 1.241 . S
O194 Co182 2.137 . S
O194 C185 1.247 . S
O195 Co182 2.244 . S
O195 C185 1.272 . S
O195 Co187 2.135 . S
Co196 O197 2.216 . S
Co196 O198 2.091 . S
Co196 O200 2.004 . S
Co196 O206 2.021 . S
Co196 O208 2.137 . S
Co196 O209 2.244 . S
O197 Co196 2.216 . S
O197 C204 1.247 . S
O198 Co196 2.091 . S
O198 C204 1.261 . S
C199 O208 1.247 . S
C199 O209 1.272 . S
O200 Co196 2.004 . S
O200 C205 1.259 . S
Co201 O202 2.061 . S
Co201 O207 2.052 . S
Co201 O209 2.135 . S
O202 Co201 2.061 . S
O202 C205 1.235 . S
C203 O206 1.238 . S
C203 O207 1.241 . S
C204 O197 1.247 . S
C204 O198 1.261 . S
C205 O200 1.259 . S
C205 O202 1.235 . S
O206 Co196 2.021 . S
O206 C203 1.238 . S
O207 Co201 2.052 . S
O207 C203 1.241 . S
O208 Co196 2.137 . S
O208 C199 1.247 . S
O209 Co196 2.244 . S
O209 C199 1.272 . S
O209 Co201 2.135 . S
Co210 O211 2.216 . S
Co210 O212 2.091 . S
Co210 O214 2.004 . S
Co210 O220 2.021 . S
Co210 O222 2.137 . S
Co210 O223 2.244 . S
O211 Co210 2.216 . S
O211 C218 1.247 . S
O212 Co210 2.091 . S
O212 C218 1.261 . S
C213 O222 1.247 . S
C213 O223 1.272 . S
O214 Co210 2.004 . S
O214 C219 1.259 . S
Co215 O216 2.061 . S
Co215 O221 2.052 . S
Co215 O223 2.135 . S
O216 Co215 2.061 . S
O216 C219 1.235 . S
C217 O220 1.238 . S
C217 O221 1.241 . S
C218 O211 1.247 . S
C218 O212 1.261 . S
C219 O214 1.259 . S
C219 O216 1.235 . S
O220 Co210 2.021 . S
O220 C217 1.238 . S
O221 Co215 2.052 . S
O221 C217 1.241 . S
O222 Co210 2.137 . S
O222 C213 1.247 . S
O223 Co210 2.244 . S
O223 C213 1.272 . S
O223 Co215 2.135 . S
H224 C230 0.930 . S
H225 C234 0.930 . S
H226 C239 0.929 . S
H227 C237 0.929 . S
H228 C232 0.929 . S
H229 C238 0.929 . S
C230 H224 0.930 . S
C230 C231 1.367 . S
C230 C238 1.378 . S
C231 C230 1.367 . S
C231 C239 1.433 . S
C232 H228 0.929 . S
C232 C234 1.378 . S
C232 C236 1.350 . S
C233 C236 1.463 . S
C233 C238 1.350 . S
C233 N241 1.427 . S
C234 H225 0.930 . S
C234 C232 1.378 . S
C234 C235 1.367 . S
C235 C234 1.367 . S
C235 C237 1.433 . S
C236 C232 1.350 . S
C236 C233 1.463 . S
C236 N240 1.427 . S
C237 H227 0.929 . S
C237 C235 1.433 . S
C237 N240 1.384 . S
C238 H229 0.929 . S
C238 C230 1.378 . S
C238 C233 1.350 . S
C239 H226 0.929 . S
C239 C231 1.433 . S
C239 N241 1.384 . S
N240 C236 1.427 . S
N240 C237 1.384 . S
N241 C233 1.427 . S
N241 C239 1.384 . S
H242 C248 0.930 . S
H243 C252 0.930 . S
H244 C257 0.929 . S
H245 C255 0.929 . S
H246 C250 0.929 . S
H247 C256 0.929 . S
C248 H242 0.930 . S
C248 C249 1.367 . S
C248 C256 1.378 . S
C249 C248 1.367 . S
C249 C257 1.433 . S
C250 H246 0.929 . S
C250 C252 1.378 . S
C250 C254 1.350 . S
C251 C254 1.463 . S
C251 C256 1.350 . S
C251 N259 1.427 . S
C252 H243 0.930 . S
C252 C250 1.378 . S
C252 C253 1.367 . S
C253 C252 1.367 . S
C253 C255 1.433 . S
C254 C250 1.350 . S
C254 C251 1.463 . S
C254 N258 1.427 . S
C255 H245 0.929 . S
C255 C253 1.433 . S
C255 N258 1.384 . S
C256 H247 0.929 . S
C256 C248 1.378 . S
C256 C251 1.350 . S
C257 H244 0.929 . S
C257 C249 1.433 . S
C257 N259 1.384 . S
N258 C254 1.427 . S
N258 C255 1.384 . S
N259 C251 1.427 . S
N259 C257 1.384 . S
H260 C266 0.930 . S
H261 C270 0.930 . S
H262 C275 0.929 . S
H263 C273 0.929 . S
H264 C268 0.929 . S
H265 C274 0.929 . S
C266 H260 0.930 . S
C266 C267 1.367 . S
C266 C274 1.378 . S
C267 C266 1.367 . S
C267 C275 1.433 . S
C268 H264 0.929 . S
C268 C270 1.378 . S
C268 C272 1.350 . S
C269 C272 1.463 . S
C269 C274 1.350 . S
C269 N277 1.427 . S
C270 H261 0.930 . S
C270 C268 1.378 . S
C270 C271 1.367 . S
C271 C270 1.367 . S
C271 C273 1.433 . S
C272 C268 1.350 . S
C272 C269 1.463 . S
C272 N276 1.427 . S
C273 H263 0.929 . S
C273 C271 1.433 . S
C273 N276 1.384 . S
C274 H265 0.929 . S
C274 C266 1.378 . S
C274 C269 1.350 . S
C275 H262 0.929 . S
C275 C267 1.433 . S
C275 N277 1.384 . S
N276 C272 1.427 . S
N276 C273 1.384 . S
N277 C269 1.427 . S
N277 C275 1.384 . S
H278 C284 0.930 . S
H279 C288 0.930 . S
H280 C293 0.929 . S
H281 C291 0.929 . S
H282 C286 0.929 . S
H283 C292 0.929 . S
C284 H278 0.930 . S
C284 C285 1.367 . S
C284 C292 1.378 . S
C285 C284 1.367 . S
C285 C293 1.433 . S
C286 H282 0.929 . S
C286 C288 1.378 . S
C286 C290 1.350 . S
C287 C290 1.463 . S
C287 C292 1.350 . S
C287 N295 1.427 . S
C288 H279 0.930 . S
C288 C286 1.378 . S
C288 C289 1.367 . S
C289 C288 1.367 . S
C289 C291 1.433 . S
C290 C286 1.350 . S
C290 C287 1.463 . S
C290 N294 1.427 . S
C291 H281 0.929 . S
C291 C289 1.433 . S
C291 N294 1.384 . S
C292 H283 0.929 . S
C292 C284 1.378 . S
C292 C287 1.350 . S
C293 H280 0.929 . S
C293 C285 1.433 . S
C293 N295 1.384 . S
N294 C290 1.427 . S
N294 C291 1.384 . S
N295 C287 1.427 . S
N295 C293 1.384 . S
H296 C302 0.930 . S
H297 C306 0.930 . S
H298 C311 0.929 . S
H299 C309 0.929 . S
H300 C304 0.929 . S
H301 C310 0.929 . S
C302 H296 0.930 . S
C302 C303 1.367 . S
C302 C310 1.378 . S
C303 C302 1.367 . S
C303 C311 1.433 . S
C304 H300 0.929 . S
C304 C306 1.378 . S
C304 C308 1.350 . S
C305 C308 1.463 . S
C305 C310 1.350 . S
C305 N313 1.427 . S
C306 H297 0.930 . S
C306 C304 1.378 . S
C306 C307 1.367 . S
C307 C306 1.367 . S
C307 C309 1.433 . S
C308 C304 1.350 . S
C308 C305 1.463 . S
C308 N312 1.427 . S
C309 H299 0.929 . S
C309 C307 1.433 . S
C309 N312 1.384 . S
C310 H301 0.929 . S
C310 C302 1.378 . S
C310 C305 1.350 . S
C311 H298 0.929 . S
C311 C303 1.433 . S
C311 N313 1.384 . S
N312 C308 1.427 . S
N312 C309 1.384 . S
N313 C305 1.427 . S
N313 C311 1.384 . S
H314 C320 0.930 . S
H315 C324 0.930 . S
H316 C329 0.929 . S
H317 C327 0.929 . S
H318 C322 0.929 . S
H319 C328 0.929 . S
C320 H314 0.930 . S
C320 C321 1.367 . S
C320 C328 1.378 . S
C321 C320 1.367 . S
C321 C329 1.433 . S
C322 H318 0.929 . S
C322 C324 1.378 . S
C322 C326 1.350 . S
C323 C326 1.463 . S
C323 C328 1.350 . S
C323 N331 1.427 . S
C324 H315 0.930 . S
C324 C322 1.378 . S
C324 C325 1.367 . S
C325 C324 1.367 . S
C325 C327 1.433 . S
C326 C322 1.350 . S
C326 C323 1.463 . S
C326 N330 1.427 . S
C327 H317 0.929 . S
C327 C325 1.433 . S
C327 N330 1.384 . S
C328 H319 0.929 . S
C328 C320 1.378 . S
C328 C323 1.350 . S
C329 H316 0.929 . S
C329 C321 1.433 . S
C329 N331 1.384 . S
N330 C326 1.427 . S
N330 C327 1.384 . S
N331 C323 1.427 . S
N331 C329 1.384 . S
H332 C338 0.930 . S
H333 C342 0.930 . S
H334 C347 0.929 . S
H335 C345 0.929 . S
H336 C340 0.929 . S
H337 C346 0.929 . S
C338 H332 0.930 . S
C338 C339 1.367 . S
C338 C346 1.378 . S
C339 C338 1.367 . S
C339 C347 1.433 . S
C340 H336 0.929 . S
C340 C342 1.378 . S
C340 C344 1.350 . S
C341 C344 1.463 . S
C341 C346 1.350 . S
C341 N349 1.427 . S
C342 H333 0.930 . S
C342 C340 1.378 . S
C342 C343 1.367 . S
C343 C342 1.367 . S
C343 C345 1.433 . S
C344 C340 1.350 . S
C344 C341 1.463 . S
C344 N348 1.427 . S
C345 H335 0.929 . S
C345 C343 1.433 . S
C345 N348 1.384 . S
C346 H337 0.929 . S
C346 C338 1.378 . S
C346 C341 1.350 . S
C347 H334 0.929 . S
C347 C339 1.433 . S
C347 N349 1.384 . S
N348 C344 1.427 . S
N348 C345 1.384 . S
N349 C341 1.427 . S
N349 C347 1.384 . S
H350 C356 0.930 . S
H351 C360 0.930 . S
H352 C365 0.929 . S
H353 C363 0.929 . S
H354 C358 0.929 . S
H355 C364 0.929 . S
C356 H350 0.930 . S
C356 C357 1.367 . S
C356 C364 1.378 . S
C357 C356 1.367 . S
C357 C365 1.433 . S
C358 H354 0.929 . S
C358 C360 1.378 . S
C358 C362 1.350 . S
C359 C362 1.463 . S
C359 C364 1.350 . S
C359 N367 1.427 . S
C360 H351 0.930 . S
C360 C358 1.378 . S
C360 C361 1.367 . S
C361 C360 1.367 . S
C361 C363 1.433 . S
C362 C358 1.350 . S
C362 C359 1.463 . S
C362 N366 1.427 . S
C363 H353 0.929 . S
C363 C361 1.433 . S
C363 N366 1.384 . S
C364 H355 0.929 . S
C364 C356 1.378 . S
C364 C359 1.350 . S
C365 H352 0.929 . S
C365 C357 1.433 . S
C365 N367 1.384 . S
N366 C362 1.427 . S
N366 C363 1.384 . S
N367 C359 1.427 . S
N367 C365 1.384 . S
H368 C374 0.930 . S
H369 C378 0.930 . S
H370 C383 0.929 . S
H371 C381 0.929 . S
H372 C376 0.929 1_565 S
H373 C382 0.929 1_545 S
C374 H368 0.930 . S
C374 C375 1.367 . S
C374 C382 1.378 . S
C375 C374 1.367 . S
C375 C383 1.433 . S
C376 H372 0.929 1_545 S
C376 C378 1.378 . S
C376 C380 1.350 . S
C377 C380 1.463 1_565 S
C377 C382 1.350 . S
C377 N385 1.427 . S
C378 H369 0.930 . S
C378 C376 1.378 . S
C378 C379 1.367 . S
C379 C378 1.367 . S
C379 C381 1.433 . S
C380 C376 1.350 . S
C380 C377 1.463 1_545 S
C380 N384 1.427 . S
C381 H371 0.929 . S
C381 C379 1.433 . S
C381 N384 1.384 . S
C382 H373 0.929 1_565 S
C382 C374 1.378 . S
C382 C377 1.350 . S
C383 H370 0.929 . S
C383 C375 1.433 . S
C383 N385 1.384 . S
N384 C380 1.427 . S
N384 C381 1.384 . S
N385 C377 1.427 . S
N385 C383 1.384 . S
H386 C392 0.930 . S
H387 C396 0.930 . S
H388 C401 0.929 . S
H389 C399 0.929 . S
H390 C394 0.929 . S
H391 C400 0.929 . S
C392 H386 0.930 . S
C392 C393 1.367 . S
C392 C400 1.378 . S
C393 C392 1.367 . S
C393 C401 1.433 . S
C394 H390 0.929 . S
C394 C396 1.378 . S
C394 C398 1.350 . S
C395 C398 1.463 . S
C395 C400 1.350 . S
C395 N403 1.427 . S
C396 H387 0.930 . S
C396 C394 1.378 . S
C396 C397 1.367 . S
C397 C396 1.367 . S
C397 C399 1.433 . S
C398 C394 1.350 . S
C398 C395 1.463 . S
C398 N402 1.427 . S
C399 H389 0.929 . S
C399 C397 1.433 . S
C399 N402 1.384 . S
C400 H391 0.929 . S
C400 C392 1.378 . S
C400 C395 1.350 . S
C401 H388 0.929 . S
C401 C393 1.433 . S
C401 N403 1.384 . S
N402 C398 1.427 . S
N402 C399 1.384 . S
N403 C395 1.427 . S
N403 C401 1.384 . S
H404 C410 0.930 . S
H405 C414 0.930 . S
H406 C419 0.929 . S
H407 C417 0.929 . S
H408 C412 0.929 . S
H409 C418 0.929 . S
C410 H404 0.930 . S
C410 C411 1.367 . S
C410 C418 1.378 . S
C411 C410 1.367 . S
C411 C419 1.433 . S
C412 H408 0.929 . S
C412 C414 1.378 1_556 S
C412 C416 1.350 . S
C413 C416 1.463 . S
C413 C418 1.350 . S
C413 N421 1.427 . S
C414 H405 0.930 . S
C414 C412 1.378 1_554 S
C414 C415 1.367 . S
C415 C414 1.367 . S
C415 C417 1.433 . S
C416 C412 1.350 . S
C416 C413 1.463 . S
C416 N420 1.427 1_556 S
C417 H407 0.929 . S
C417 C415 1.433 . S
C417 N420 1.384 . S
C418 H409 0.929 . S
C418 C410 1.378 . S
C418 C413 1.350 . S
C419 H406 0.929 . S
C419 C411 1.433 . S
C419 N421 1.384 . S
N420 C416 1.427 1_554 S
N420 C417 1.384 . S
N421 C413 1.427 . S
N421 C419 1.384 . S
H422 C428 0.930 . S
H423 C432 0.930 . S
H424 C437 0.929 . S
H425 C435 0.929 . S
H426 C430 0.929 . S
H427 C436 0.929 . S
C428 H422 0.930 . S
C428 C429 1.367 . S
C428 C436 1.378 . S
C429 C428 1.367 . S
C429 C437 1.433 . S
C430 H426 0.929 . S
C430 C432 1.378 . S
C430 C434 1.350 . S
C431 C434 1.463 . S
C431 C436 1.350 1_556 S
C431 N439 1.427 1_556 S
C432 H423 0.930 . S
C432 C430 1.378 . S
C432 C433 1.367 . S
C433 C432 1.367 . S
C433 C435 1.433 . S
C434 C430 1.350 . S
C434 C431 1.463 . S
C434 N438 1.427 . S
C435 H425 0.929 . S
C435 C433 1.433 . S
C435 N438 1.384 . S
C436 H427 0.929 . S
C436 C428 1.378 . S
C436 C431 1.350 1_554 S
C437 H424 0.929 . S
C437 C429 1.433 . S
C437 N439 1.384 . S
N438 C434 1.427 . S
N438 C435 1.384 . S
N439 C431 1.427 1_554 S
N439 C437 1.384 . S
H440 C446 0.930 . S
H441 C450 0.930 . S
H442 C455 0.929 . S
H443 C453 0.929 . S
H444 C448 0.929 . S
H445 C454 0.929 . S
C446 H440 0.930 . S
C446 C447 1.367 . S
C446 C454 1.378 . S
C447 C446 1.367 . S
C447 C455 1.433 . S
C448 H444 0.929 . S
C448 C450 1.378 . S
C448 C452 1.350 . S
C449 C452 1.463 . S
C449 C454 1.350 . S
C449 N457 1.427 . S
C450 H441 0.930 . S
C450 C448 1.378 . S
C450 C451 1.367 . S
C451 C450 1.367 . S
C451 C453 1.433 . S
C452 C448 1.350 . S
C452 C449 1.463 . S
C452 N456 1.427 . S
C453 H443 0.929 . S
C453 C451 1.433 . S
C453 N456 1.384 . S
C454 H445 0.929 . S
C454 C446 1.378 . S
C454 C449 1.350 . S
C455 H442 0.929 . S
C455 C447 1.433 . S
C455 N457 1.384 . S
N456 C452 1.427 . S
N456 C453 1.384 . S
N457 C449 1.427 . S
N457 C455 1.384 . S
H458 C464 0.930 . S
H459 C468 0.930 . S
H460 C473 0.929 . S
H461 C471 0.929 . S
H462 C466 0.929 . S
H463 C472 0.929 . S
C464 H458 0.930 . S
C464 C465 1.367 . S
C464 C472 1.378 . S
C465 C464 1.367 . S
C465 C473 1.433 . S
C466 H462 0.929 . S
C466 C468 1.378 . S
C466 C470 1.350 . S
C467 C470 1.463 . S
C467 C472 1.350 . S
C467 N475 1.427 . S
C468 H459 0.930 . S
C468 C466 1.378 . S
C468 C469 1.367 . S
C469 C468 1.367 . S
C469 C471 1.433 . S
C470 C466 1.350 . S
C470 C467 1.463 . S
C470 N474 1.427 . S
C471 H461 0.929 . S
C471 C469 1.433 . S
C471 N474 1.384 . S
C472 H463 0.929 . S
C472 C464 1.378 . S
C472 C467 1.350 . S
C473 H460 0.929 . S
C473 C465 1.433 . S
C473 N475 1.384 . S
N474 C470 1.427 . S
N474 C471 1.384 . S
N475 C467 1.427 . S
N475 C473 1.384 . S
H476 C482 0.930 . S
H477 C486 0.930 . S
H478 C491 0.929 . S
H479 C489 0.929 . S
H480 C484 0.929 . S
H481 C490 0.929 . S
C482 H476 0.930 . S
C482 C483 1.367 . S
C482 C490 1.378 . S
C483 C482 1.367 . S
C483 C491 1.433 . S
C484 H480 0.929 . S
C484 C486 1.378 . S
C484 C488 1.350 . S
C485 C488 1.463 1_655 S
C485 C490 1.350 . S
C485 N493 1.427 . S
C486 H477 0.930 . S
C486 C484 1.378 . S
C486 C487 1.367 . S
C487 C486 1.367 . S
C487 C489 1.433 . S
C488 C484 1.350 . S
C488 C485 1.463 1_455 S
C488 N492 1.427 . S
C489 H479 0.929 . S
C489 C487 1.433 . S
C489 N492 1.384 . S
C490 H481 0.929 . S
C490 C482 1.378 . S
C490 C485 1.350 . S
C491 H478 0.929 . S
C491 C483 1.433 . S
C491 N493 1.384 . S
N492 C488 1.427 . S
N492 C489 1.384 . S
N493 C485 1.427 . S
N493 C491 1.384 . S
H494 C500 0.930 . S
H495 C504 0.930 . S
H496 C509 0.929 . S
H497 C507 0.929 . S
H498 C502 0.929 . S
H499 C508 0.929 . S
C500 H494 0.930 . S
C500 C501 1.367 . S
C500 C508 1.378 . S
C501 C500 1.367 . S
C501 C509 1.433 . S
C502 H498 0.929 . S
C502 C504 1.378 . S
C502 C506 1.350 . S
C503 C506 1.463 1_655 S
C503 C508 1.350 . S
C503 N511 1.427 . S
C504 H495 0.930 . S
C504 C502 1.378 . S
C504 C505 1.367 . S
C505 C504 1.367 . S
C505 C507 1.433 . S
C506 C502 1.350 . S
C506 C503 1.463 1_455 S
C506 N510 1.427 . S
C507 H497 0.929 . S
C507 C505 1.433 . S
C507 N510 1.384 . S
C508 H499 0.929 . S
C508 C500 1.378 . S
C508 C503 1.350 . S
C509 H496 0.929 . S
C509 C501 1.433 . S
C509 N511 1.384 . S
N510 C506 1.427 . S
N510 C507 1.384 . S
N511 C503 1.427 . S
N511 C509 1.384 . S
H512 C518 0.930 . S
H513 C522 0.930 . S
H514 C527 0.929 . S
H515 C525 0.929 . S
H516 C520 0.929 . S
H517 C526 0.929 . S
C518 H512 0.930 . S
C518 C519 1.367 . S
C518 C526 1.378 . S
C519 C518 1.367 . S
C519 C527 1.433 . S
C520 H516 0.929 . S
C520 C522 1.378 . S
C520 C524 1.350 . S
C521 C524 1.463 . S
C521 C526 1.350 . S
C521 N529 1.427 . S
C522 H513 0.930 . S
C522 C520 1.378 . S
C522 C523 1.367 . S
C523 C522 1.367 . S
C523 C525 1.433 . S
C524 C520 1.350 . S
C524 C521 1.463 . S
C524 N528 1.427 . S
C525 H515 0.929 . S
C525 C523 1.433 . S
C525 N528 1.384 . S
C526 H517 0.929 . S
C526 C518 1.378 . S
C526 C521 1.350 . S
C527 H514 0.929 . S
C527 C519 1.433 . S
C527 N529 1.384 . S
N528 C524 1.427 . S
N528 C525 1.384 . S
N529 C521 1.427 . S
N529 C527 1.384 . S
H530 C536 0.930 . S
H531 C540 0.930 . S
H532 C545 0.929 . S
H533 C543 0.929 . S
H534 C538 0.929 . S
H535 C544 0.929 . S
C536 H530 0.930 . S
C536 C537 1.367 . S
C536 C544 1.378 . S
C537 C536 1.367 . S
C537 C545 1.433 . S
C538 H534 0.929 . S
C538 C540 1.378 . S
C538 C542 1.350 . S
C539 C542 1.463 1_545 S
C539 C544 1.350 . S
C539 N547 1.427 . S
C540 H531 0.930 . S
C540 C538 1.378 . S
C540 C541 1.367 . S
C541 C540 1.367 . S
C541 C543 1.433 . S
C542 C538 1.350 . S
C542 C539 1.463 1_565 S
C542 N546 1.427 1_565 S
C543 H533 0.929 . S
C543 C541 1.433 . S
C543 N546 1.384 1_565 S
C544 H535 0.929 . S
C544 C536 1.378 . S
C544 C539 1.350 . S
C545 H532 0.929 . S
C545 C537 1.433 . S
C545 N547 1.384 . S
N546 C542 1.427 1_545 S
N546 C543 1.384 1_545 S
N547 C539 1.427 . S
N547 C545 1.384 . S
H548 C554 0.930 . S
H549 C558 0.930 . S
H550 C563 0.929 . S
H551 C561 0.929 . S
H552 C556 0.929 . S
H553 C562 0.929 . S
C554 H548 0.930 . S
C554 C555 1.367 . S
C554 C562 1.378 . S
C555 C554 1.367 . S
C555 C563 1.433 . S
C556 H552 0.929 . S
C556 C558 1.378 . S
C556 C560 1.350 . S
C557 C560 1.463 . S
C557 C562 1.350 . S
C557 N565 1.427 . S
C558 H549 0.930 . S
C558 C556 1.378 . S
C558 C559 1.367 . S
C559 C558 1.367 . S
C559 C561 1.433 . S
C560 C556 1.350 . S
C560 C557 1.463 . S
C560 N564 1.427 . S
C561 H551 0.929 . S
C561 C559 1.433 . S
C561 N564 1.384 . S
C562 H553 0.929 . S
C562 C554 1.378 . S
C562 C557 1.350 . S
C563 H550 0.929 . S
C563 C555 1.433 . S
C563 N565 1.384 . S
N564 C560 1.427 . S
N564 C561 1.384 . S
N565 C557 1.427 . S
N565 C563 1.384 . S
H566 C572 0.930 . S
H567 C576 0.930 . S
H568 C581 0.929 . S
H569 C579 0.929 . S
H570 C574 0.929 . S
H571 C580 0.929 . S
C572 H566 0.930 . S
C572 C573 1.367 . S
C572 C580 1.378 . S
C573 C572 1.367 . S
C573 C581 1.433 . S
C574 H570 0.929 . S
C574 C576 1.378 1_554 S
C574 C578 1.350 . S
C575 C578 1.463 . S
C575 C580 1.350 . S
C575 N583 1.427 . S
C576 H567 0.930 . S
C576 C574 1.378 1_556 S
C576 C577 1.367 . S
C577 C576 1.367 . S
C577 C579 1.433 . S
C578 C574 1.350 . S
C578 C575 1.463 . S
C578 N582 1.427 1_554 S
C579 H569 0.929 . S
C579 C577 1.433 . S
C579 N582 1.384 . S
C580 H571 0.929 . S
C580 C572 1.378 . S
C580 C575 1.350 . S
C581 H568 0.929 . S
C581 C573 1.433 . S
C581 N583 1.384 . S
N582 C578 1.427 1_556 S
N582 C579 1.384 . S
N583 C575 1.427 . S
N583 C581 1.384 . S
H584 C590 0.930 . S
H585 C594 0.930 . S
H586 C599 0.929 . S
H587 C597 0.929 . S
H588 C592 0.929 . S
H589 C598 0.929 . S
C590 H584 0.930 . S
C590 C591 1.367 . S
C590 C598 1.378 . S
C591 C590 1.367 . S
C591 C599 1.433 . S
C592 H588 0.929 . S
C592 C594 1.378 . S
C592 C596 1.350 . S
C593 C596 1.482 . S
C593 C598 1.335 1_554 S
C593 N601 1.425 1_554 S
C594 H585 0.930 . S
C594 C592 1.378 . S
C594 C595 1.367 . S
C595 C594 1.367 . S
C595 C597 1.433 . S
C596 C592 1.350 . S
C596 C593 1.482 . S
C596 N600 1.427 . S
C597 H587 0.929 . S
C597 C595 1.433 . S
C597 N600 1.384 . S
C598 H589 0.929 . S
C598 C590 1.378 . S
C598 C593 1.335 1_556 S
C599 H586 0.929 . S
C599 C591 1.433 . S
C599 N601 1.384 . S
N600 C596 1.427 . S
N600 C597 1.384 . S
N601 C593 1.425 1_556 S
N601 C599 1.384 . S
H602 C608 0.930 . S
H603 C612 0.930 . S
H604 C617 0.929 . S
H605 C615 0.929 . S
H606 C610 0.929 . S
H607 C616 0.929 . S
C608 H602 0.930 . S
C608 C609 1.367 . S
C608 C616 1.378 . S
C609 C608 1.367 . S
C609 C617 1.433 . S
C610 H606 0.929 . S
C610 C612 1.378 . S
C610 C614 1.350 . S
C611 C614 1.463 . S
C611 C616 1.350 . S
C611 N619 1.427 . S
C612 H603 0.930 . S
C612 C610 1.378 . S
C612 C613 1.367 . S
C613 C612 1.367 . S
C613 C615 1.433 . S
C614 C610 1.350 . S
C614 C611 1.463 . S
C614 N618 1.427 . S
C615 H605 0.929 . S
C615 C613 1.433 . S
C615 N618 1.384 . S
C616 H607 0.929 . S
C616 C608 1.378 . S
C616 C611 1.350 . S
C617 H604 0.929 . S
C617 C609 1.433 . S
C617 N619 1.384 . S
N618 C614 1.427 . S
N618 C615 1.384 . S
N619 C611 1.427 . S
N619 C617 1.384 . S
H620 C626 0.930 . S
H621 C630 0.930 . S
H622 C635 0.929 . S
H623 C633 0.929 . S
H624 C628 0.929 . S
H625 C634 0.929 . S
C626 H620 0.930 . S
C626 C627 1.367 . S
C626 C634 1.378 . S
C627 C626 1.367 . S
C627 C635 1.433 . S
C628 H624 0.929 . S
C628 C630 1.378 . S
C628 C632 1.350 . S
C629 C632 1.463 . S
C629 C634 1.350 . S
C629 N637 1.427 . S
C630 H621 0.930 . S
C630 C628 1.378 . S
C630 C631 1.367 . S
C631 C630 1.367 . S
C631 C633 1.433 . S
C632 C628 1.350 . S
C632 C629 1.463 . S
C632 N636 1.427 . S
C633 H623 0.929 . S
C633 C631 1.433 . S
C633 N636 1.384 . S
C634 H625 0.929 . S
C634 C626 1.378 . S
C634 C629 1.350 . S
C635 H622 0.929 . S
C635 C627 1.433 . S
C635 N637 1.384 . S
N636 C632 1.427 . S
N636 C633 1.384 . S
N637 C629 1.427 . S
N637 C635 1.384 . S
H638 C644 0.930 . S
H639 C648 0.930 . S
H640 C653 0.929 . S
H641 C651 0.929 . S
H642 C646 0.929 . S
H643 C652 0.924 1_655 S
C644 H638 0.930 . S
C644 C645 1.367 . S
C644 C652 1.378 . S
C645 C644 1.367 . S
C645 C653 1.433 . S
C646 H642 0.929 . S
C646 C648 1.378 . S
C646 C650 1.350 . S
C647 C650 1.463 1_455 S
C647 C652 1.350 . S
C647 N655 1.427 . S
C648 H639 0.930 . S
C648 C646 1.378 . S
C648 C649 1.367 . S
C649 C648 1.367 . S
C649 C651 1.433 . S
C650 C646 1.350 . S
C650 C647 1.463 1_655 S
C650 N654 1.427 . S
C651 H641 0.929 . S
C651 C649 1.433 . S
C651 N654 1.384 . S
C652 H643 0.924 1_455 S
C652 C644 1.378 . S
C652 C647 1.350 . S
C653 H640 0.929 . S
C653 C645 1.433 . S
C653 N655 1.384 . S
N654 C650 1.427 . S
N654 C651 1.384 . S
N655 C647 1.427 . S
N655 C653 1.384 . S
H656 C662 0.930 . S
H657 C666 0.930 . S
H658 C671 0.929 . S
H659 C669 0.929 . S
H660 C664 0.929 . S
H661 C670 0.929 . S
C662 H656 0.930 . S
C662 C663 1.367 . S
C662 C670 1.378 . S
C663 C662 1.367 . S
C663 C671 1.433 . S
C664 H660 0.929 . S
C664 C666 1.378 . S
C664 C668 1.350 . S
C665 C668 1.463 1_455 S
C665 C670 1.350 . S
C665 N673 1.427 . S
C666 H657 0.930 . S
C666 C664 1.378 . S
C666 C667 1.367 . S
C667 C666 1.367 . S
C667 C669 1.433 . S
C668 C664 1.350 . S
C668 C665 1.463 1_655 S
C668 N672 1.427 . S
C669 H659 0.929 . S
C669 C667 1.433 . S
C669 N672 1.384 . S
C670 H661 0.929 . S
C670 C662 1.378 . S
C670 C665 1.350 . S
C671 H658 0.929 . S
C671 C663 1.433 . S
C671 N673 1.384 . S
N672 C668 1.427 . S
N672 C669 1.384 . S
N673 C665 1.427 . S
N673 C671 1.384 . S
H674 C680 0.930 . S
H675 C684 0.930 . S
H676 C689 0.929 . S
H677 C687 0.929 . S
H678 C682 0.929 . S
H679 C688 0.929 . S
C680 H674 0.930 . S
C680 C681 1.367 . S
C680 C688 1.378 . S
C681 C680 1.367 . S
C681 C689 1.433 . S
C682 H678 0.929 . S
C682 C684 1.378 . S
C682 C686 1.350 . S
C683 C686 1.463 . S
C683 C688 1.350 . S
C683 N691 1.427 . S
C684 H675 0.930 . S
C684 C682 1.378 . S
C684 C685 1.367 . S
C685 C684 1.367 . S
C685 C687 1.433 . S
C686 C682 1.350 . S
C686 C683 1.463 . S
C686 N690 1.427 . S
C687 H677 0.929 . S
C687 C685 1.433 . S
C687 N690 1.384 . S
C688 H679 0.929 . S
C688 C680 1.378 . S
C688 C683 1.350 . S
C689 H676 0.929 . S
C689 C681 1.433 . S
C689 N691 1.384 . S
N690 C686 1.427 . S
N690 C687 1.384 . S
N691 C683 1.427 . S
N691 C689 1.384 . S
H692 C698 0.930 . S
H693 C702 0.930 . S
H694 C707 0.929 . S
H695 C705 0.929 . S
H696 C700 0.929 . S
H697 C706 0.929 . S
C698 H692 0.930 . S
C698 C699 1.367 . S
C698 C706 1.378 . S
C699 C698 1.367 . S
C699 C707 1.433 . S
C700 H696 0.929 . S
C700 C702 1.378 . S
C700 C704 1.350 . S
C701 C704 1.463 . S
C701 C706 1.350 . S
C701 N709 1.427 . S
C702 H693 0.930 . S
C702 C700 1.378 . S
C702 C703 1.367 . S
C703 C702 1.367 . S
C703 C705 1.433 . S
C704 C700 1.350 . S
C704 C701 1.463 . S
C704 N708 1.427 . S
C705 H695 0.929 . S
C705 C703 1.433 . S
C705 N708 1.384 . S
C706 H697 0.929 . S
C706 C698 1.378 . S
C706 C701 1.350 . S
C707 H694 0.929 . S
C707 C699 1.433 . S
C707 N709 1.384 . S
N708 C704 1.427 . S
N708 C705 1.384 . S
N709 C701 1.427 . S
N709 C707 1.384 . S
H710 C716 0.930 . S
H711 C720 0.930 . S
H712 C725 0.929 . S
H713 C723 0.929 . S
H714 C718 0.929 . S
H715 C724 0.929 . S
C716 H710 0.930 . S
C716 C717 1.367 . S
C716 C724 1.378 . S
C717 C716 1.367 . S
C717 C725 1.433 . S
C718 H714 0.929 . S
C718 C720 1.378 . S
C718 C722 1.350 . S
C719 C722 1.463 1_545 S
C719 C724 1.350 . S
C719 N727 1.427 . S
C720 H711 0.930 . S
C720 C718 1.378 . S
C720 C721 1.367 . S
C721 C720 1.367 . S
C721 C723 1.433 . S
C722 C718 1.350 . S
C722 C719 1.463 1_565 S
C722 N726 1.427 . S
C723 H713 0.929 . S
C723 C721 1.433 . S
C723 N726 1.384 . S
C724 H715 0.929 . S
C724 C716 1.378 . S
C724 C719 1.350 . S
C725 H712 0.929 . S
C725 C717 1.433 . S
C725 N727 1.384 . S
N726 C722 1.427 . S
N726 C723 1.384 . S
N727 C719 1.427 . S
N727 C725 1.384 . S
H728 C734 0.930 . S
H729 C738 0.930 . S
H730 C743 0.929 . S
H731 C741 0.929 . S
H732 C736 0.929 . S
H733 C742 0.929 . S
C734 H728 0.930 . S
C734 C735 1.367 . S
C734 C742 1.378 . S
C735 C734 1.367 . S
C735 C743 1.433 . S
C736 H732 0.929 . S
C736 C738 1.378 . S
C736 C740 1.350 . S
C737 C740 1.463 . S
C737 C742 1.350 . S
C737 N745 1.427 . S
C738 H729 0.930 . S
C738 C736 1.378 . S
C738 C739 1.367 . S
C739 C738 1.367 . S
C739 C741 1.433 . S
C740 C736 1.350 . S
C740 C737 1.463 . S
C740 N744 1.427 . S
C741 H731 0.929 . S
C741 C739 1.433 . S
C741 N744 1.384 . S
C742 H733 0.929 . S
C742 C734 1.378 . S
C742 C737 1.350 . S
C743 H730 0.929 . S
C743 C735 1.433 . S
C743 N745 1.384 . S
N744 C740 1.427 . S
N744 C741 1.384 . S
N745 C737 1.427 . S
N745 C743 1.384 . S
H746 C752 0.930 . S
H747 C756 0.930 . S
H748 C761 0.929 . S
H749 C759 0.929 . S
H750 C754 0.929 . S
H751 C760 0.929 . S
C752 H746 0.930 . S
C752 C753 1.367 . S
C752 C760 1.378 . S
C753 C752 1.367 . S
C753 C761 1.433 . S
C754 H750 0.929 . S
C754 C756 1.378 . S
C754 C758 1.350 . S
C755 C758 1.463 . S
C755 C760 1.350 . S
C755 N763 1.427 . S
C756 H747 0.930 . S
C756 C754 1.378 . S
C756 C757 1.367 . S
C757 C756 1.367 . S
C757 C759 1.433 . S
C758 C754 1.350 . S
C758 C755 1.463 . S
C758 N762 1.427 . S
C759 H749 0.929 . S
C759 C757 1.433 . S
C759 N762 1.384 . S
C760 H751 0.929 . S
C760 C752 1.378 . S
C760 C755 1.350 . S
C761 H748 0.929 . S
C761 C753 1.433 . S
C761 N763 1.384 . S
N762 C758 1.427 . S
N762 C759 1.384 . S
N763 C755 1.427 . S
N763 C761 1.384 . S
H764 C770 0.930 . S
H765 C774 0.930 . S
H766 C779 0.929 . S
H767 C777 0.929 . S
H768 C772 0.929 1_545 S
H769 C778 0.929 1_565 S
C770 H764 0.930 . S
C770 C771 1.367 . S
C770 C778 1.378 . S
C771 C770 1.367 . S
C771 C779 1.433 . S
C772 H768 0.929 1_565 S
C772 C774 1.378 . S
C772 C776 1.350 . S
C773 C776 1.463 1_545 S
C773 C778 1.350 . S
C773 N781 1.427 . S
C774 H765 0.930 . S
C774 C772 1.378 . S
C774 C775 1.367 . S
C775 C774 1.367 . S
C775 C777 1.433 . S
C776 C772 1.350 . S
C776 C773 1.463 1_565 S
C776 N780 1.427 . S
C777 H767 0.929 . S
C777 C775 1.433 . S
C777 N780 1.384 . S
C778 H769 0.929 1_545 S
C778 C770 1.378 . S
C778 C773 1.350 . S
C779 H766 0.929 . S
C779 C771 1.433 . S
C779 N781 1.384 . S
N780 C776 1.427 . S
N780 C777 1.384 . S
N781 C773 1.427 . S
N781 C779 1.384 . S
H782 C788 0.930 . S
H783 C792 0.930 . S
H784 C797 0.929 . S
H785 C795 0.929 . S
H786 C790 0.929 . S
H787 C796 0.929 . S
C788 H782 0.930 . S
C788 C789 1.367 . S
C788 C796 1.378 . S
C789 C788 1.367 . S
C789 C797 1.433 . S
C790 H786 0.929 . S
C790 C792 1.378 . S
C790 C794 1.350 . S
C791 C794 1.463 . S
C791 C796 1.350 . S
C791 N799 1.427 . S
C792 H783 0.930 . S
C792 C790 1.378 . S
C792 C793 1.367 . S
C793 C792 1.367 . S
C793 C795 1.433 . S
C794 C790 1.350 . S
C794 C791 1.463 . S
C794 N798 1.427 . S
C795 H785 0.929 . S
C795 C793 1.433 . S
C795 N798 1.384 . S
C796 H787 0.929 . S
C796 C788 1.378 . S
C796 C791 1.350 . S
C797 H784 0.929 . S
C797 C789 1.433 . S
C797 N799 1.384 . S
N798 C794 1.427 . S
N798 C795 1.384 . S
N799 C791 1.427 . S
N799 C797 1.384 . S
C231 C7 1.318 . S
C235 C189 1.345 . S
C249 C21 1.415 . S
C253 C133 1.420 . S
C267 C203 0.475 . S
C271 C35 0.594 . S
C285 C49 0.740 . S
C289 C217 0.736 . S
C303 C63 1.405 . S
C307 C91 1.409 . S
C321 C147 1.330 . S
C325 C77 1.339 . S
C339 C161 0.594 . S
C343 C105 0.475 . S
C357 C119 0.757 . S
C361 C175 0.746 . S
C375 C36 1.556 . S
C379 C8 1.576 . S
C393 C22 1.604 . S
C397 C45 1.599 . S
C411 C177 1.504 . S
C415 C3 1.510 . S
C429 C17 1.583 . S
C433 C157 1.573 . S
C447 C59 1.582 . S
C451 C31 1.577 . S
C465 C143 1.509 . S
C469 C51 1.502 . S
C483 C23 1.966 . S
C487 C9 1.961 . S
C501 C50 1.537 . S
C505 C37 1.535 . S
C519 C149 1.962 . S
C523 C65 1.966 . S
C537 C101 1.838 . S
C541 C79 1.819 . S
C555 C93 1.508 . S
C559 C115 1.537 . S
C573 C218 1.851 . S
C577 C73 1.860 . S
C591 C87 1.409 . S
C595 C204 1.399 . S
C609 C129 1.408 . S
C613 C106 1.401 . S
C627 C120 1.855 . S
C631 C185 1.857 . S
C645 C92 1.550 . S
C649 C78 1.548 . S
C663 C121 1.654 . S
C667 C107 1.651 . S
C681 C134 1.550 . S
C685 C190 1.543 . S
C699 C148 1.573 . S
C703 C162 1.553 . S
C717 C171 1.593 . S
C721 C64 1.600 . S
C735 C176 1.532 . S
C739 C163 1.534 . S
C753 C199 1.841 . S
C757 C191 1.826 . S
C771 C135 1.514 . S
C775 C213 1.538 . S
C789 C219 1.653 . S
C793 C205 1.651 . S
