# Generated by pormake.
# Topology sml, (6)-cn, num edge types: 1
# Building blocks:
#     Node 0, Type 0, BuildingBlock: NUHQIS_clean_sbu_0, # of connection points: 6
#     Node 1, Type 0, BuildingBlock: NUHQIS_clean_sbu_0, # of connection points: 6
#     Node 2, Type 0, BuildingBlock: NUHQIS_clean_sbu_0, # of connection points: 6
#     Node 3, Type 0, BuildingBlock: NUHQIS_clean_sbu_0, # of connection points: 6
#     Node 4, Type 0, BuildingBlock: NUHQIS_clean_sbu_0, # of connection points: 6
#     Node 5, Type 0, BuildingBlock: NUHQIS_clean_sbu_0, # of connection points: 6
#     Edge 6, Type (0, 0), BuildingBlock: XUDNAN_clean_linker_2, # of connection points: 2
#     Edge 7, Type (0, 0), BuildingBlock: XUDNAN_clean_linker_2, # of connection points: 2
#     Edge 8, Type (0, 0), BuildingBlock: XUDNAN_clean_linker_2, # of connection points: 2
#     Edge 9, Type (0, 0), BuildingBlock: XUDNAN_clean_linker_2, # of connection points: 2
#     Edge 10, Type (0, 0), BuildingBlock: XUDNAN_clean_linker_2, # of connection points: 2
#     Edge 11, Type (0, 0), BuildingBlock: XUDNAN_clean_linker_2, # of connection points: 2
#     Edge 12, Type (0, 0), BuildingBlock: XUDNAN_clean_linker_2, # of connection points: 2
#     Edge 13, Type (0, 0), BuildingBlock: XUDNAN_clean_linker_2, # of connection points: 2
#     Edge 14, Type (0, 0), BuildingBlock: XUDNAN_clean_linker_2, # of connection points: 2
#     Edge 15, Type (0, 0), BuildingBlock: XUDNAN_clean_linker_2, # of connection points: 2
#     Edge 16, Type (0, 0), BuildingBlock: XUDNAN_clean_linker_2, # of connection points: 2
#     Edge 17, Type (0, 0), BuildingBlock: XUDNAN_clean_linker_2, # of connection points: 2
#     Edge 18, Type (0, 0), BuildingBlock: XUDNAN_clean_linker_2, # of connection points: 2
#     Edge 19, Type (0, 0), BuildingBlock: XUDNAN_clean_linker_2, # of connection points: 2
#     Edge 20, Type (0, 0), BuildingBlock: XUDNAN_clean_linker_2, # of connection points: 2
#     Edge 21, Type (0, 0), BuildingBlock: XUDNAN_clean_linker_2, # of connection points: 2
#     Edge 22, Type (0, 0), BuildingBlock: XUDNAN_clean_linker_2, # of connection points: 2
#     Edge 23, Type (0, 0), BuildingBlock: XUDNAN_clean_linker_2, # of connection points: 2
# Relax obj value: 0.173
# Max RMSD: 0.220
# Mean RMSD: 0.220
data_MOF--net-sml--node1-NUHQIS_clean_sbu_0--edge1-XUDNAN_clean_linker_2
_symmetry_space_group_name_H-M    P1
_symmetry_Int_Tables_number       1
_symmetry_cell_setting            triclinic
loop_
_symmetry_equiv_pos_as_xyz
'x, y, z'
_cell_length_a     32.43807
_cell_length_b     32.383909
_cell_length_c     24.89126
_cell_angle_alpha  90.165621
_cell_angle_beta   89.956584
_cell_angle_gamma 120.11728
loop_
_atom_site_label
_atom_site_type_symbol
_atom_site_fract_x
_atom_site_fract_y
_atom_site_fract_z
_atom_type_partial_charge
Tb0 Tb 0.19875 0.39348 0.15943 0.0
Eu1 Eu 0.14333 0.40444 0.05201 0.0
C2 C 0.17486 0.32384 0.06261 0.0
C3 C 0.25553 0.44594 0.05417 0.0
C4 C 0.21321 0.38442 0.30328 0.0
C5 C 0.22564 0.39538 0.39989 0.0
C6 C 0.24271 0.39454 0.34831 0.0
C7 C 0.16623 0.37469 0.31055 0.0
C8 C 0.1491 0.37538 0.36195 0.0
C9 C 0.17866 0.38616 0.40744 0.0
C10 C 0.23189 0.38669 0.24853 0.0
O11 O 0.16875 0.43662 0.1836 0.0
O12 O 0.16781 0.47123 0.10396 0.0
O13 O 0.09057 0.37853 0.11912 0.0
O14 O 0.12292 0.33974 0.16288 0.0
C15 C 0.16782 0.47081 0.15695 0.0
O16 O 0.14105 0.4477 0.98658 0.0
O17 O 0.0844 0.37391 0.99423 0.0
O18 O 0.14222 0.33384 0.04589 0.0
O19 O 0.20604 0.34898 0.10008 0.0
O20 O 0.25539 0.4468 0.10723 0.0
O21 O 0.2163 0.42344 0.02607 0.0
C22 C 0.08814 0.34895 0.1564 0.0
O23 O 0.20574 0.35028 0.21738 0.0
O24 O 0.24642 0.42701 0.22353 0.0
C25 C 0.1055 0.40558 0.90598 0.0
C26 C 0.10968 0.39822 0.79282 0.0
C27 C 0.06694 0.38827 0.81848 0.0
C28 C 0.06496 0.39206 0.87436 0.0
C29 C 0.14791 0.41408 0.88096 0.0
C30 C 0.15001 0.41052 0.82496 0.0
C31 C 0.10324 0.41228 0.96449 0.0
H32 H 0.24977 0.4046 0.43362 0.0
H33 H 0.27922 0.40265 0.34351 0.0
H34 H 0.14288 0.36713 0.27633 0.0
H35 H 0.11261 0.36749 0.36587 0.0
H36 H 0.03493 0.37775 0.79535 0.0
H37 H 0.03185 0.38507 0.8929 0.0
H38 H 0.17968 0.42438 0.90459 0.0
H39 H 0.18364 0.41884 0.80679 0.0
Tb40 Tb 0.79068 0.19607 0.48309 0.0
Eu41 Eu 0.84642 0.26382 0.59049 0.0
C42 C 0.81415 0.15124 0.58084 0.0
C43 C 0.73405 0.1925 0.58832 0.0
C44 C 0.77469 0.17162 0.33919 0.0
C45 C 0.76108 0.17018 0.24282 0.0
C46 C 0.74456 0.15235 0.29454 0.0
C47 C 0.82181 0.20862 0.33133 0.0
C48 C 0.83835 0.22641 0.27981 0.0
C49 C 0.80813 0.20782 0.23474 0.0
C50 C 0.75647 0.15565 0.39418 0.0
O51 O 0.82311 0.26917 0.45808 0.0
O52 O 0.82483 0.30695 0.53661 0.0
O53 O 0.90025 0.28829 0.5246 0.0
O54 O 0.86621 0.21722 0.47907 0.0
C55 C 0.82564 0.30558 0.4837 0.0
O56 O 0.84855 0.31001 0.65548 0.0
O57 O 0.9049 0.29261 0.64884 0.0
O58 O 0.84656 0.19406 0.59788 0.0
O59 O 0.78358 0.14471 0.54254 0.0
O60 O 0.73415 0.1931 0.53526 0.0
O61 O 0.77331 0.21006 0.61639 0.0
C62 C 0.90214 0.26062 0.48734 0.0
O63 O 0.78249 0.14519 0.42498 0.0
O64 O 0.74273 0.18201 0.41946 0.0
C65 C 0.88291 0.3032 0.73668 0.0
C66 C 0.87735 0.29095 0.84975 0.0
C67 C 0.92039 0.32413 0.82479 0.0
C68 C 0.92305 0.33024 0.76898 0.0
C69 C 0.84019 0.26894 0.76098 0.0
C70 C 0.83741 0.26294 0.81693 0.0
C71 C 0.88596 0.3123 0.6782 0.0
H72 H 0.73648 0.15538 0.20943 0.0
H73 H 0.70794 0.12415 0.29978 0.0
H74 H 0.84569 0.22433 0.36523 0.0
H75 H 0.87491 0.25493 0.27546 0.0
H76 H 0.95213 0.34569 0.8484 0.0
H77 H 0.9564 0.35664 0.75104 0.0
H78 H 0.80872 0.24742 0.73682 0.0
H79 H 0.80356 0.23734 0.83451 0.0
Tb80 Tb 0.57038 0.79445 0.8313 0.0
Eu81 Eu 0.57106 0.7357 0.72195 0.0
C82 C 0.64995 0.84449 0.74472 0.0
C83 C 0.51902 0.79396 0.72508 0.0
C84 C 0.56555 0.82942 0.97267 0.0
C85 C 0.56746 0.85725 0.06374 0.0
C86 C 0.57109 0.86532 1.00837 0.0
C87 C 0.55698 0.78538 0.993 0.0
C88 C 0.55329 0.77721 0.04853 0.0
C89 C 0.55805 0.81296 0.08456 0.0
C90 C 0.5682 0.83832 0.91449 0.0
O91 O 0.53004 0.72107 0.85535 0.0
O92 O 0.50594 0.68582 0.77216 0.0
O93 O 0.59824 0.70807 0.78651 0.0
O94 O 0.62067 0.76954 0.84788 0.0
C95 C 0.50191 0.68461 0.82505 0.0
O96 O 0.52865 0.68989 0.65593 0.0
O97 O 0.6046 0.71593 0.65839 0.0
O98 O 0.64231 0.80341 0.72557 0.0
O99 O 0.61951 0.84817 0.77621 0.0
O100 O 0.51291 0.78459 0.7767 0.0
O101 O 0.55219 0.79082 0.69933 0.0
C102 C 0.62008 0.73063 0.83069 0.0
O103 O 0.60736 0.84641 0.89075 0.0
O104 O 0.53061 0.80919 0.88671 0.0
C105 C 0.56921 0.71135 0.57391 0.0
C106 C 0.56483 0.74012 0.46808 0.0
C107 C 0.55814 0.69438 0.47811 0.0
C108 C 0.56012 0.68006 0.53069 0.0
C109 C 0.57772 0.7576 0.56388 0.0
C110 C 0.57554 0.77184 0.51153 0.0
C111 C 0.56565 0.69475 0.62961 0.0
H112 H 0.5722 0.88586 0.0903 0.0
H113 H 0.578 0.8996 0.99339 0.0
H114 H 0.55269 0.75722 0.96593 0.0
H115 H 0.54568 0.74262 0.06313 0.0
H116 H 0.54952 0.66901 0.44562 0.0
H117 H 0.55318 0.64413 0.53776 0.0
H118 H 0.58479 0.78229 0.59676 0.0
H119 H 0.58161 0.80755 0.50517 0.0
Tb120 Tb 0.78695 0.57939 0.1426 0.0
Eu121 Eu 0.72715 0.5809 0.25134 0.0
C122 C 0.8408 0.64813 0.23645 0.0
C123 C 0.78428 0.52345 0.24938 0.0
C124 C 0.81027 0.58667 0.99872 0.0
C125 C 0.81066 0.57466 0.90229 0.0
C126 C 0.82757 0.57385 0.95388 0.0
C127 C 0.77615 0.60071 0.9913 0.0
C128 C 0.75939 0.60173 0.93989 0.0
C129 C 0.77604 0.58824 0.89466 0.0
C130 C 0.8256 0.58304 0.05344 0.0
O131 O 0.71284 0.53472 0.12196 0.0
O132 O 0.67785 0.51282 0.20522 0.0
O133 O 0.69906 0.60204 0.18106 0.0
O134 O 0.77048 0.63688 0.13882 0.0
C135 C 0.67714 0.50621 0.15281 0.0
O136 O 0.67796 0.54505 0.31716 0.0
O137 O 0.71007 0.62174 0.30858 0.0
O138 O 0.80121 0.64713 0.25091 0.0
O139 O 0.84079 0.61706 0.20266 0.0
O140 O 0.78746 0.52606 0.19634 0.0
O141 O 0.76914 0.54726 0.27802 0.0
C142 C 0.72688 0.62906 0.14266 0.0
O143 O 0.83833 0.6201 0.08444 0.0
O144 O 0.7975 0.5433 0.07845 0.0
C145 C 0.69303 0.58985 0.39699 0.0
C146 C 0.70284 0.5924 0.5101 0.0
C147 C 0.67315 0.60691 0.48536 0.0
C148 C 0.66825 0.60554 0.42943 0.0
C149 C 0.72395 0.57681 0.42118 0.0
C150 C 0.7288 0.57804 0.4772 0.0
C151 C 0.68399 0.58453 0.33859 0.0
H152 H 0.82383 0.56343 0.86857 0.0
H153 H 0.85355 0.56247 0.95884 0.0
H154 H 0.76209 0.61046 0.02543 0.0
H155 H 0.73335 0.61311 0.93567 0.0
H156 H 0.6533 0.61901 0.50927 0.0
H157 H 0.64434 0.61589 0.41154 0.0
H158 H 0.74344 0.56454 0.39684 0.0
H159 H 0.75165 0.56623 0.49474 0.0
Tb160 Tb 0.21968 0.81144 0.46754 0.0
Eu161 Eu 0.28228 0.86332 0.35731 0.0
C162 C 0.16815 0.82033 0.36728 0.0
C163 C 0.21805 0.74938 0.36574 0.0
C164 C 0.19531 0.80354 0.61225 0.0
C165 C 0.18097 0.79952 0.70841 0.0
C166 C 0.16634 0.78063 0.6567 0.0
C167 C 0.23907 0.84572 0.62004 0.0
C168 C 0.25376 0.86464 0.67167 0.0
C169 C 0.22492 0.84174 0.71658 0.0
C170 C 0.18021 0.78335 0.55794 0.0
O171 O 0.2935 0.83816 0.48686 0.0
O172 O 0.32133 0.83278 0.40421 0.0
O173 O 0.31309 0.9148 0.42614 0.0
O174 O 0.24049 0.88652 0.4627 0.0
C175 C 0.32292 0.83173 0.45704 0.0
O176 O 0.32764 0.8692 0.28963 0.0
O177 O 0.30928 0.92425 0.30288 0.0
O178 O 0.20877 0.85634 0.34984 0.0
O179 O 0.16619 0.793 0.40703 0.0
O180 O 0.21485 0.75254 0.41855 0.0
O181 O 0.23572 0.78678 0.33403 0.0
C182 C 0.28555 0.91932 0.46107 0.0
O183 O 0.17077 0.80869 0.52484 0.0
O184 O 0.20629 0.76798 0.53527 0.0
C185 C 0.32012 0.90786 0.21307 0.0
C186 C 0.30361 0.90827 0.10161 0.0
C187 C 0.34645 0.94371 0.12496 0.0
C188 C 0.35455 0.94352 0.18014 0.0
C189 C 0.27718 0.87253 0.19028 0.0
C190 C 0.269 0.87271 0.13505 0.0
C191 C 0.32966 0.90779 0.27089 0.0
H192 H 0.15761 0.7813 0.74196 0.0
H193 H 0.13241 0.74811 0.65143 0.0
H194 H 0.26203 0.86381 0.58617 0.0
H195 H 0.28804 0.89676 0.67651 0.0
H196 H 0.37417 0.97113 0.10041 0.0
H197 H 0.38793 0.97107 0.19704 0.0
H198 H 0.25005 0.84482 0.2152 0.0
H199 H 0.23537 0.84525 0.11864 0.0
Tb200 Tb 0.40363 0.19913 0.81055 0.0
Eu201 Eu 0.40373 0.13574 0.91721 0.0
C202 C 0.32437 0.16638 0.89782 0.0
C203 C 0.44718 0.24896 0.92206 0.0
C204 C 0.40075 0.23008 0.66714 0.0
C205 C 0.38838 0.24691 0.57542 0.0
C206 C 0.38799 0.25456 0.63068 0.0
C207 C 0.41266 0.19659 0.64756 0.0
C208 C 0.4132 0.18895 0.59202 0.0
C209 C 0.40183 0.21469 0.55516 0.0
C210 C 0.40143 0.24012 0.72517 0.0
O211 O 0.45055 0.17291 0.78863 0.0
O212 O 0.47294 0.1596 0.87154 0.0
O213 O 0.38452 0.08659 0.84656 0.0
O214 O 0.35288 0.12348 0.79681 0.0
C215 C 0.4794 0.16612 0.81918 0.0
O216 O 0.44305 0.12959 0.98477 0.0
O217 O 0.36821 0.07748 0.97501 0.0
O218 O 0.33246 0.13256 0.91449 0.0
O219 O 0.35369 0.20114 0.86625 0.0
O220 O 0.45259 0.25212 0.86938 0.0
O221 O 0.42147 0.20797 0.94608 0.0
C222 C 0.36071 0.08785 0.80465 0.0
O223 O 0.3636 0.2106 0.7522 0.0
O224 O 0.44046 0.25072 0.7511 0.0
C225 C 0.39726 0.10322 0.06341 0.0
C226 C 0.39481 0.13109 0.17078 0.0
C227 C 0.40974 0.09802 0.15917 0.0
C228 C 0.41124 0.08447 0.10586 0.0
C229 C 0.38015 0.13434 0.0751 0.0
C230 C 0.37885 0.14804 0.12814 0.0
C231 C 0.40517 0.09463 1.007 0.0
H232 H 0.37831 0.26655 0.54847 0.0
H233 H 0.37809 0.28004 0.64494 0.0
H234 H 0.42219 0.1769 0.67515 0.0
H235 H 0.42381 0.16398 0.57796 0.0
H236 H 0.42252 0.0845 0.19093 0.0
H237 H 0.42503 0.0608 0.09762 0.0
H238 H 0.36934 0.14941 0.04298 0.0
H239 H 0.36644 0.17297 0.13562 0.0
H240 H 0.31413 0.18793 0.9999 0.0
H241 H 0.24849 0.15766 0.84269 0.0
H242 H 0.19144 0.18205 0.87432 0.0
H243 H 0.20445 0.15947 0.08295 0.0
H244 H 0.23938 0.20956 0.12673 0.0
H245 H 0.26592 0.17782 0.09636 0.0
H246 H 0.33291 0.25715 0.05688 0.0
H247 H 0.30648 0.28911 0.08618 0.0
H248 H 0.31738 0.29258 1.01487 0.0
H249 H 0.15143 0.22228 0.91778 0.0
H250 H 0.13366 0.27741 0.96804 0.0
H251 H 0.22846 0.28521 0.09569 0.0
C252 C 0.28599 0.18412 0.97329 0.0
C253 C 0.28412 0.16943 0.91967 0.0
C254 C 0.24911 0.16753 0.88444 0.0
C255 C 0.21672 0.18132 0.90208 0.0
C256 C 0.22041 0.19743 0.95485 0.0
C257 C 0.25413 0.19876 0.99005 0.0
C258 C 0.25614 0.22486 0.04138 0.0
C259 C 0.24052 0.19088 0.08972 0.0
C260 C 0.30617 0.26849 0.05029 0.0
C261 C 0.21979 0.23971 0.02868 0.0
C262 C 0.19873 0.22262 0.97919 0.0
C263 C 0.16694 0.23507 0.95708 0.0
C264 C 0.15709 0.26646 0.98589 0.0
C265 C 0.17958 0.28559 0.03582 0.0
C266 C 0.21042 0.271 0.05779 0.0
H267 H 0.04659 0.26982 0.22231 0.0
H268 H 0.05602 0.40636 0.19257 0.0
H269 H 0.01737 0.40099 0.27922 0.0
H270 H 0.92588 0.2172 0.27975 0.0
H271 H 0.93504 0.18095 0.32763 0.0
H272 H 0.96614 0.19579 0.26434 0.0
H273 H 0.04709 0.23184 0.31391 0.0
H274 H 0.01625 0.21667 0.37739 0.0
H275 H 0.06182 0.27732 0.36417 0.0
H276 H 0.98993 0.38726 0.37347 0.0
H277 H 0.94639 0.35331 0.45747 0.0
H278 H 0.93819 0.21825 0.42021 0.0
C279 C 0.03958 0.29801 0.23377 0.0
C280 C 0.05504 0.33893 0.20138 0.0
C281 C 0.04472 0.37483 0.21697 0.0
C282 C 0.02331 0.37243 0.2664 0.0
C283 C 0.01054 0.33284 0.29859 0.0
C284 C 0.01593 0.29509 0.28199 0.0
C285 C -0.00579 0.25465 0.32242 0.0
C286 C 0.95284 0.20949 0.29705 0.0
C287 C 0.03213 0.24456 0.34583 0.0
C288 C 0.97664 0.27621 0.36448 0.0
C289 C 0.98834 0.32208 0.35061 0.0
C290 C 0.97936 0.35093 0.38431 0.0
C291 C 0.95508 0.33142 0.43225 0.0
C292 C 0.93822 0.28291 0.4448 0.0
C293 C 0.95025 0.25528 0.41118 0.0
H294 H 0.76478 0.05902 0.54586 0.0
H295 H 0.84806 0.14683 0.68031 0.0
H296 H 0.82536 0.07407 0.73309 0.0
H297 H 0.66965 0.97985 0.61764 0.0
H298 H 0.65636 0.92753 0.57881 0.0
H299 H 0.68691 0.98536 0.54799 0.0
H300 H 0.75617 0.97158 0.52044 0.0
H301 H 0.72556 0.91334 0.55105 0.0
H302 H 0.78573 0.95588 0.5709 0.0
H303 H 0.77995 0.99453 0.7768 0.0
H304 H 0.71937 0.91334 0.80605 0.0
H305 H 0.66913 0.87629 0.64232 0.0
C306 C 0.77949 0.06297 0.58583 0.0
C307 C 0.80824 0.10855 0.60899 0.0
C308 C 0.82637 0.11226 0.66157 0.0
C309 C 0.81367 0.07111 0.69184 0.0
C310 C 0.78364 0.02668 0.6685 0.0
C311 C 0.76744 0.02234 0.6163 0.0
C312 C 0.73151 0.97101 0.60245 0.0
C313 C 0.68329 0.96567 0.58579 0.0
C314 C 0.75093 0.95183 0.55861 0.0
C315 C 0.72808 0.94744 0.65589 0.0
C316 C 0.75878 0.98008 0.69338 0.0
C317 C 0.75709 0.96826 0.74747 0.0
C318 C 0.72266 0.92228 0.76375 0.0
C319 C 0.69107 0.88875 0.72593 0.0
C320 C 0.6945 0.901 0.67129 0.0
H321 H 0.6966 0.77145 0.89948 0.0
H322 H 0.5783 0.63557 0.84687 0.0
H323 H 0.59486 0.5948 0.91993 0.0
H324 H 0.77417 0.72012 0.9395 0.0
H325 H 0.79938 0.7611 0.99512 0.0
H326 H 0.7811 0.77886 0.93527 0.0
H327 H 0.72731 0.79931 0.99346 0.0
H328 H 0.74443 0.7805 0.05322 0.0
H329 H 0.68232 0.75387 0.03569 0.0
H330 H 0.61413 0.5716 1.00675 0.0
H331 H 0.64634 0.56346 0.09309 0.0
H332 H 0.75903 0.71151 0.08466 0.0
C333 C 0.67515 0.73298 0.90264 0.0
C334 C 0.63636 0.70652 0.86768 0.0
C335 C 0.60865 0.65631 0.87288 0.0
C336 C 0.61753 0.63288 0.91443 0.0
C337 C 0.65503 0.66011 0.94939 0.0
C338 C 0.68449 0.70874 0.94297 0.0
C339 C 0.72214 0.72932 0.98663 0.0
C340 C 0.77217 0.74848 0.96269 0.0
C341 C 0.71882 0.76803 0.01916 0.0
C342 C 0.70755 0.6851 0.02003 0.0
C343 C 0.66845 0.64573 0.99792 0.0
C344 C 0.64552 0.60179 0.02377 0.0
C345 C 0.66378 0.59765 0.07299 0.0
C346 C 0.7052 0.63682 0.09499 0.0
C347 C 0.72747 0.68107 0.06821 0.0
H348 H 0.09984 0.73104 0.34351 0.0
H349 H 0.13372 0.87825 0.33207 0.0
H350 H 0.0512 0.85078 0.29975 0.0
H351 H 0.02577 0.68803 0.2247 0.0
H352 H 0.986 0.63105 0.25484 0.0
H353 H 0.04763 0.6637 0.27487 0.0
H354 H 0.0214 0.65972 0.37406 0.0
H355 H 0.9597 0.62795 0.35422 0.0
H356 H 0.98284 0.68272 0.39198 0.0
H357 H 0.96108 0.80425 0.27548 0.0
H358 H 0.87789 0.745 0.24875 0.0
H359 H 0.90809 0.63052 0.27396 0.0
C360 C 0.09008 0.75759 0.33359 0.0
C361 C 0.12271 0.80665 0.34029 0.0
C362 C 0.10904 0.84046 0.32668 0.0
C363 C 0.06225 0.82511 0.30885 0.0
C364 C 0.0303 0.77604 0.30437 0.0
C365 C 0.04423 0.743 0.31541 0.0
C366 C 0.00419 0.69243 0.30715 0.0
C367 C 0.01664 0.66735 0.26273 0.0
C368 C 0.99129 0.66406 0.36 0.0
C369 C 0.96512 0.70177 0.28975 0.0
C370 C 0.98024 0.75003 0.28903 0.0
C371 C 0.94915 0.76648 0.2755 0.0
C372 C 0.90199 0.73273 0.2609 0.0
C373 C 0.88706 0.68352 0.25932 0.0
C374 C 0.91888 0.66808 0.27461 0.0
H375 H 0.29158 0.05943 0.72736 0.0
H376 H 0.41056 0.04354 0.7793 0.0
H377 H 0.40621 0.0018 0.69459 0.0
H378 H 0.2262 0.9416 0.66079 0.0
H379 H 0.20456 0.96396 0.60825 0.0
H380 H 0.21619 0.99059 0.67418 0.0
H381 H 0.27246 0.07341 0.63142 0.0
H382 H 0.26201 0.04669 0.56562 0.0
H383 H 0.32198 0.08124 0.59096 0.0
H384 H 0.39545 0.97111 0.6003 0.0
H385 H 0.36741 0.93644 0.5102 0.0
H386 H 0.25062 0.96508 0.52248 0.0
C387 C 0.31598 0.04619 0.72132 0.0
C388 C 0.35132 0.05456 0.75978 0.0
C389 C 0.3828 0.03692 0.7506 0.0
C390 C 0.381 0.0137 0.70237 0.0
C391 C 0.34696 0.0077 0.66434 0.0
C392 C 0.31402 0.02201 0.6739 0.0
C393 C 0.28032 0.01007 0.62682 0.0
C394 C 0.22877 0.97443 0.64351 0.0
C395 C 0.28446 0.05556 0.60228 0.0
C396 C 0.29985 0.98735 0.58905 0.0
C397 C 0.33896 0.98735 0.61106 0.0
C398 C 0.36451 0.97034 0.58288 0.0
C399 C 0.34862 0.95124 0.53152 0.0
C400 C 0.30694 0.94828 0.50958 0.0
C401 C 0.28263 0.96708 0.53847 0.0
H402 H 0.15919 0.36727 0.72927 0.0
H403 H 0.06726 0.42872 0.71993 0.0
H404 H 0.07265 0.42956 0.6212 0.0
H405 H 0.23745 0.43581 0.62234 0.0
H406 H 0.24504 0.3878 0.59717 0.0
H407 H 0.23233 0.38988 0.66725 0.0
H408 H 0.1588 0.30482 0.66018 0.0
H409 H 0.17133 0.30246 0.59007 0.0
H410 H 0.11371 0.29254 0.61038 0.0
H411 H 0.0903 0.42672 0.52336 0.0
H412 H 0.11876 0.42028 0.43376 0.0
H413 H 0.19887 0.35997 0.50561 0.0
C414 C 0.14028 0.38105 0.70657 0.0
C415 C 0.11252 0.39765 0.73282 0.0
C416 C 0.08803 0.41493 0.70116 0.0
C417 C 0.09112 0.41587 0.64489 0.0
C418 C 0.11885 0.39943 0.62047 0.0
C419 C 0.14296 0.38227 0.65022 0.0
C420 C 0.17091 0.36738 0.61391 0.0
C421 C 0.22461 0.397 0.62589 0.0
C422 C 0.15258 0.3136 0.61894 0.0
C423 C 0.15921 0.37945 0.5592 0.0
C424 C 0.12897 0.3977 0.56393 0.0
C425 C 0.1137 0.41211 0.51915 0.0
C426 C 0.12987 0.40795 0.46821 0.0
C427 C 0.161 0.38933 0.46205 0.0
C428 C 0.17556 0.37479 0.50855 0.0
H429 H 0.78654 0.1617 0.13588 0.0
H430 H 0.86799 0.30211 0.20911 0.0
H431 H 0.89607 0.33748 0.11974 0.0
H432 H 0.87067 0.17926 0.03064 0.0
H433 H 0.82534 0.14674 0.98084 0.0
H434 H 0.81276 0.13179 0.05087 0.0
H435 H 0.74 0.14421 0.04483 0.0
H436 H 0.75236 0.1592 0.97479 0.0
H437 H 0.74815 0.20021 0.02049 0.0
H438 H 0.91379 0.35846 0.02228 0.0
H439 H 0.91961 0.36359 0.92367 0.0
H440 H 0.82653 0.20992 0.91235 0.0
C441 C 0.81007 0.19992 0.13326 0.0
C442 C 0.8252 0.22888 0.18011 0.0
C443 C 0.8565 0.27876 0.17438 0.0
C444 C 0.87245 0.29937 0.12358 0.0
C445 C 0.85678 0.26984 0.07847 0.0
C446 C 0.82626 0.22121 0.08271 0.0
C447 C 0.81426 0.19772 0.02762 0.0
C448 C 0.83182 0.16176 0.02219 0.0
C449 C 0.7605 0.17394 1.01628 0.0
C450 C 0.84256 0.24082 0.99179 0.0
C451 C 0.86692 0.282 0.02205 0.0
C452 C 0.89511 0.32638 0.99819 0.0
C453 C 0.89846 0.32884 0.94196 0.0
C454 C 0.87387 0.28717 0.90973 0.0
C455 C 0.84556 0.24258 0.93544 0.0
H456 H 0.59626 0.72403 0.37122 0.0
H457 H 0.51772 0.78711 0.44065 0.0
H458 H 0.50647 0.81103 0.35043 0.0
H459 H 0.65687 0.81292 0.26999 0.0
H460 H 0.65307 0.77117 0.21945 0.0
H461 H 0.65444 0.75817 0.2895 0.0
H462 H 0.57554 0.67789 0.27799 0.0
H463 H 0.57391 0.6907 0.20788 0.0
H464 H 0.524 0.67772 0.25067 0.0
H465 H 0.50378 0.82846 0.25336 0.0
H466 H 0.51109 0.83977 0.15525 0.0
H467 H 0.59184 0.76609 0.14752 0.0
C468 C 0.57641 0.74257 0.36736 0.0
C469 C 0.55818 0.75401 0.41319 0.0
C470 C 0.53277 0.77871 0.40638 0.0
C471 C 0.52585 0.79212 0.35521 0.0
C472 C 0.54445 0.78054 0.31101 0.0
C473 C 0.56924 0.75637 0.31642 0.0
C474 C 0.58616 0.74911 0.2622 0.0
C475 C 0.64088 0.77436 0.26019 0.0
C476 C 0.56354 0.69568 0.24892 0.0
C477 C 0.56717 0.77318 0.22562 0.0
C478 C 0.54309 0.79087 0.2547 0.0
C479 C 0.52269 0.81491 0.23014 0.0
C480 C 0.52732 0.82142 0.17438 0.0
C481 C 0.55235 0.80419 0.14356 0.0
C482 C 0.57216 0.77937 0.16975 0.0
H483 H 0.82379 0.61397 0.79761 0.0
H484 H 0.6833 0.55929 0.86787 0.0
H485 H 0.65017 0.55668 0.77803 0.0
H486 H 0.81261 0.68735 0.69619 0.0
H487 H 0.8445 0.67435 0.64586 0.0
H488 H 0.85765 0.67335 0.71599 0.0
H489 H 0.84107 0.5867 0.70548 0.0
H490 H 0.82786 0.58742 0.63534 0.0
H491 H 0.78467 0.54144 0.67852 0.0
H492 H 0.63166 0.55792 0.68025 0.0
H493 H 0.62904 0.56282 0.58162 0.0
H494 H 0.78139 0.61642 0.57422 0.0
C495 C 0.786 0.60117 0.79416 0.0
C496 C 0.7563 0.58707 0.84014 0.0
C497 C 0.70709 0.57112 0.83363 0.0
C498 C 0.68781 0.56919 0.78262 0.0
C499 C 0.71806 0.58325 0.73829 0.0
C500 C 0.7661 0.59894 0.74349 0.0
C501 C 0.79069 0.61153 0.68921 0.0
C502 C 0.8286 0.66481 0.68668 0.0
C503 C 0.81234 0.57987 0.6764 0.0
C504 C 0.74887 0.6 0.65264 0.0
C505 C 0.70737 0.58394 0.68183 0.0
C506 C 0.66401 0.57076 0.65701 0.0
C507 C 0.66297 0.574 0.60088 0.0
C508 C 0.70503 0.59032 0.56988 0.0
C509 C 0.74851 0.60348 0.59649 0.0
H510 H 0.21617 0.7926 0.80984 0.0
H511 H 0.26959 0.93582 0.7482 0.0
H512 H 0.29585 0.96862 0.83954 0.0
H513 H 0.17086 0.80971 0.93472 0.0
H514 H 0.18783 0.77336 0.97288 0.0
H515 H 0.17387 0.76136 0.90252 0.0
H516 H 0.25628 0.76909 0.88543 0.0
H517 H 0.27045 0.78103 0.95574 0.0
H518 H 0.30959 0.82268 0.90606 0.0
H519 H 0.31502 0.98544 0.9384 0.0
H520 H 0.32712 0.98542 0.03646 0.0
H521 H 0.2615 0.83105 0.03297 0.0
C522 C 0.23298 0.83084 0.81554 0.0
C523 C 0.24071 0.8616 0.77168 0.0
C524 C 0.2637 0.91154 0.78093 0.0
C525 C 0.27851 0.93049 0.83277 0.0
C526 C 0.27014 0.89908 0.87505 0.0
C527 C 0.24801 0.85033 0.86695 0.0
C528 C 0.24351 0.8243 0.91906 0.0
C529 C 0.19089 0.79018 0.93311 0.0
C530 C 0.27165 0.79772 0.91639 0.0
C531 C 0.26627 0.86597 0.95789 0.0
C532 C 0.28144 0.9088 0.93175 0.0
C533 C 0.30352 0.95217 0.95929 0.0
C534 C 0.31045 0.95177 1.01495 0.0
C535 C 0.29539 0.90826 0.04264 0.0
C536 C 0.27292 0.86489 1.01336 0.0
H537 H 0.37601 0.13294 0.4942 0.0
H538 H 0.43797 0.28661 0.48145 0.0
H539 H 0.44258 0.28099 0.38339 0.0
H540 H 0.44832 0.12247 0.38792 0.0
H541 H 0.40066 0.0664 0.36302 0.0
H542 H 0.40225 0.08182 0.4329 0.0
H543 H 0.31737 0.06949 0.42488 0.0
H544 H 0.31545 0.05414 0.35495 0.0
H545 H 0.30514 0.10185 0.37452 0.0
H546 H 0.4391 0.2599 0.28733 0.0
H547 H 0.43 0.22446 0.19753 0.0
H548 H 0.37178 0.08397 0.26917 0.0
C549 C 0.39096 0.16543 0.4708 0.0
C550 C 0.40602 0.21023 0.49584 0.0
C551 C 0.42514 0.25177 0.46347 0.0
C552 C 0.42826 0.24903 0.40761 0.0
C553 C 0.41251 0.2045 0.38422 0.0
C554 C 0.39451 0.16338 0.41455 0.0
C555 C 0.37995 0.1201 0.37857 0.0
C556 C 0.40958 0.09631 0.39137 0.0
C557 C 0.32628 0.08429 0.38354 0.0
C558 C 0.39229 0.14349 0.32343 0.0
C559 C 0.41098 0.19221 0.32798 0.0
C560 C 0.42449 0.22179 0.28318 0.0
C561 C 0.41881 0.2012 0.2322 0.0
C562 C 0.39974 0.15134 0.22598 0.0
C563 C 0.38661 0.12219 0.2725 0.0
H564 H 0.19866 0.56651 0.13544 0.0
H565 H 0.12805 0.4556 0.25545 0.0
H566 H 0.12674 0.51329 0.31774 0.0
H567 H 0.27559 0.65383 0.22627 0.0
H568 H 0.27469 0.70359 0.1952 0.0
H569 H 0.26376 0.65261 0.15534 0.0
H570 H 0.18301 0.64231 0.1238 0.0
H571 H 0.19397 0.69361 0.16328 0.0
H572 H 0.13998 0.6373 0.17309 0.0
H573 H 0.14031 0.58279 0.37161 0.0
H574 H 0.16698 0.6615 0.41301 0.0
H575 H 0.23073 0.72983 0.26125 0.0
C576 C 0.18164 0.5543 0.17416 0.0
C577 C 0.16255 0.50617 0.18986 0.0
C578 C 0.1421 0.49193 0.24177 0.0
C579 C 0.14124 0.52453 0.27781 0.0
C580 C 0.16137 0.57177 0.26195 0.0
C581 C 0.18108 0.58689 0.21143 0.0
C582 C 0.20402 0.64077 0.20701 0.0
C583 C 0.25769 0.66405 0.19527 0.0
C584 C 0.17873 0.65428 0.16425 0.0
C585 C 0.19507 0.65315 0.26317 0.0
C586 C 0.16999 0.61267 0.29391 0.0
C587 C 0.15945 0.61486 0.34781 0.0
C588 C 0.17497 0.65976 0.37109 0.0
C589 C 0.20083 0.70193 0.34054 0.0
C590 C 0.21062 0.69831 0.2857 0.0
H591 H 0.65745 0.20674 0.57711 0.0
H592 H 0.7131 0.1344 0.67348 0.0
H593 H 0.65103 0.1156 0.74161 0.0
H594 H 0.63613 0.26262 0.6814 0.0
H595 H 0.58121 0.25669 0.65656 0.0
H596 H 0.62416 0.25746 0.61022 0.0
H597 H 0.56043 0.17602 0.57062 0.0
H598 H 0.51695 0.17557 0.61612 0.0
H599 H 0.52755 0.12601 0.61491 0.0
H600 H 0.59135 0.11542 0.80575 0.0
H601 H 0.53127 0.12577 0.85632 0.0
H602 H 0.51398 0.19761 0.71849 0.0
C603 C 0.65503 0.18508 0.61136 0.0
C604 C 0.68955 0.17144 0.61983 0.0
C605 C 0.68658 0.14474 0.66616 0.0
C606 C 0.65157 0.13401 0.70517 0.0
C607 C 0.61946 0.14999 0.69723 0.0
C608 C 0.62011 0.17408 0.651 0.0
C609 C 0.58375 0.19033 0.65455 0.0
C610 C 0.60777 0.24501 0.65045 0.0
C611 C 0.54486 0.16549 0.6115 0.0
C612 C 0.56401 0.17306 0.71042 0.0
C613 C 0.58485 0.1497 0.73435 0.0
C614 C 0.57411 0.13294 0.7871 0.0
C615 C 0.54034 0.13938 0.81575 0.0
C616 C 0.5178 0.16231 0.79146 0.0
C617 C 0.53018 0.17947 0.73818 0.0
H618 H 0.33053 0.53753 0.06759 0.0
H619 H 0.27771 0.41149 0.9671 0.0
H620 H 0.33916 0.45767 0.89935 0.0
H621 H 0.34853 0.61573 0.96666 0.0
H622 H 0.40277 0.66574 0.99191 0.0
H623 H 0.36114 0.62166 0.03771 0.0
H624 H 0.42719 0.60657 0.07427 0.0
H625 H 0.46933 0.65148 0.02929 0.0
H626 H 0.46096 0.59209 0.02811 0.0
H627 H 0.39674 0.51972 0.83602 0.0
H628 H 0.45357 0.59245 0.78617 0.0
H629 H 0.46959 0.67802 0.92766 0.0
C630 C 0.33355 0.51935 0.03252 0.0
C631 C 0.29995 0.47091 0.02276 0.0
C632 C 0.30356 0.44855 0.97541 0.0
C633 C 0.33824 0.47449 0.93662 0.0
C634 C 0.36934 0.52281 0.94586 0.0
C635 C 0.36809 0.54493 0.9931 0.0
C636 C 0.40298 0.59816 0.99077 0.0
C637 C 0.37729 0.62699 0.99712 0.0
C638 C 0.44246 0.61293 0.03312 0.0
C639 C 0.42245 0.60247 0.93439 0.0
C640 C 0.40284 0.55864 0.90919 0.0
C641 C 0.41312 0.55421 0.85567 0.0
C642 C 0.44502 0.59568 0.82747 0.0
C643 C 0.4662 0.64082 0.85297 0.0
C644 C 0.45451 0.64396 0.9071 0.0
H645 H 0.79266 0.3696 0.49619 0.0
H646 H 0.87497 0.33105 0.39115 0.0
H647 H 0.87916 0.38766 0.32369 0.0
H648 H 0.72144 0.37417 0.3957 0.0
H649 H 0.71833 0.42473 0.42106 0.0
H650 H 0.72842 0.38764 0.46659 0.0
H651 H 0.80575 0.46144 0.50098 0.0
H652 H 0.79543 0.49888 0.45601 0.0
H653 H 0.85109 0.49913 0.45355 0.0
H654 H 0.86537 0.43858 0.26187 0.0
H655 H 0.83875 0.48671 0.21174 0.0
H656 H 0.76473 0.49344 0.35411 0.0
C657 C 0.81307 0.37463 0.45991 0.0
C658 C 0.83435 0.34656 0.44961 0.0
C659 C 0.85923 0.35277 0.40062 0.0
C660 C 0.86168 0.38478 0.36169 0.0
C661 C 0.83893 0.41056 0.37188 0.0
C662 C 0.81552 0.40649 0.41988 0.0
C663 C 0.79062 0.43557 0.41795 0.0
C664 C 0.7365 0.4036 0.42578 0.0
C665 C 0.81201 0.47617 0.4596 0.0
C666 C 0.8025 0.45494 0.36105 0.0
C667 C 0.83069 0.4403 0.33542 0.0
C668 C 0.84394 0.45108 0.28169 0.0
C669 C 0.82835 0.47809 0.25338 0.0
C670 C 0.79987 0.49403 0.2789 0.0
C671 C 0.78697 0.48229 0.33354 0.0
H672 H 0.41841 0.87991 0.48313 0.0
H673 H 0.28664 0.74536 0.50062 0.0
H674 H 0.32223 0.72231 0.57375 0.0
H675 H 0.49936 0.82969 0.5141 0.0
H676 H 0.54129 0.88354 0.54871 0.0
H677 H 0.50686 0.88641 0.49355 0.0
H678 H 0.47701 0.93025 0.55609 0.0
H679 H 0.50975 0.9256 0.61187 0.0
H680 H 0.4464 0.90194 0.61742 0.0
H681 H 0.36659 0.71952 0.65384 0.0
H682 H 0.42504 0.72804 0.7232 0.0
H683 H 0.53115 0.86062 0.65025 0.0
C684 C 0.39814 0.84468 0.5006 0.0
C685 C 0.35026 0.81375 0.4856 0.0
C686 C 0.3238 0.76882 0.51086 0.0
C687 C 0.34349 0.75571 0.55282 0.0
C688 C 0.38999 0.78776 0.5686 0.0
C689 C 0.41773 0.83055 0.54215 0.0
C690 C 0.46653 0.85854 0.56818 0.0
C691 C 0.50584 0.86491 0.52878 0.0
C692 C 0.47542 0.90694 0.58965 0.0
C693 C 0.46127 0.82525 0.61384 0.0
C694 C 0.41647 0.78508 0.61386 0.0
C695 C 0.40209 0.75041 0.65378 0.0
C696 C 0.43516 0.75585 0.69344 0.0
C697 C 0.48209 0.79516 0.69216 0.0
C698 C 0.49517 0.8305 0.65221 0.0
H699 H 0.66911 0.47861 0.04761 0.0
H700 H 0.58814 0.44659 0.19589 0.0
H701 H 0.51731 0.38338 0.14842 0.0
H702 H 0.57244 0.45726 0.9558 0.0
H703 H 0.59172 0.43076 0.90512 0.0
H704 H 0.63473 0.47583 0.94956 0.0
H705 H 0.66428 0.41838 0.97863 0.0
H706 H 0.62179 0.37329 0.93408 0.0
H707 H 0.6221 0.36019 1.00437 0.0
H708 H 0.45718 0.32142 0.08632 0.0
H709 H 0.41367 0.26033 1.0172 0.0
H710 H 0.53412 0.33188 0.90894 0.0
C711 C 0.63643 0.45871 0.07027 0.0
C712 C 0.6342 0.46774 0.12567 0.0
C713 C 0.59078 0.44036 0.15359 0.0
C714 C 0.55031 0.40465 0.12681 0.0
C715 C 0.55388 0.39691 0.07217 0.0
C716 C 0.59594 0.423 0.04431 0.0
C717 C 0.59146 0.40561 0.98675 0.0
C718 C 0.59796 0.44469 0.94696 0.0
C719 C 0.627 0.38833 0.97532 0.0
C720 C 0.54047 0.3645 0.98682 0.0
C721 C 0.5193 0.36077 0.03631 0.0
C722 C 0.47329 0.32424 0.04741 0.0
C723 C 0.4489 0.28967 1.00778 0.0
C724 C 0.4705 0.29142 0.95758 0.0
C725 C 0.5164 0.33016 0.94645 0.0
loop_
_geom_bond_atom_site_label_1
_geom_bond_atom_site_label_2
_geom_bond_distance
_geom_bond_site_symmetry_2
_ccdc_geom_bond_type
Tb0 C10 2.825 . S
Tb0 O11 2.347 . S
Tb0 O14 2.366 . S
Tb0 O19 2.418 . S
Tb0 O20 2.384 . S
Tb0 O23 2.479 . S
Tb0 O24 2.471 . S
Eu1 O12 2.418 . S
Eu1 O13 2.384 . S
Eu1 O16 2.479 1_554 S
Eu1 O17 2.471 1_554 S
Eu1 O18 2.347 . S
Eu1 O21 2.366 1_554 S
Eu1 C31 2.825 1_554 S
C2 O18 1.259 . S
C2 O19 1.265 . S
C3 O20 1.255 1_556 S
C3 O21 1.265 . S
C4 C6 1.380 . S
C4 C7 1.374 . S
C4 C10 1.507 . S
C5 C6 1.384 . S
C5 C9 1.387 . S
C5 H32 0.930 . S
C6 C4 1.380 . S
C6 C5 1.384 . S
C6 H33 0.931 . S
C7 C4 1.374 . S
C7 C8 1.390 . S
C7 H34 0.930 . S
C8 C7 1.390 . S
C8 C9 1.391 . S
C8 H35 0.930 . S
C9 C5 1.387 . S
C9 C8 1.391 . S
C10 Tb0 2.825 . S
C10 C4 1.507 . S
C10 O23 1.238 . S
C10 O24 1.247 . S
O11 Tb0 2.347 . S
O11 C15 1.259 . S
O12 Eu1 2.418 . S
O12 C15 1.265 . S
O13 Eu1 2.384 . S
O13 C22 1.255 . S
O14 Tb0 2.366 . S
O14 C22 1.265 . S
C15 O11 1.259 . S
C15 O12 1.265 . S
O16 Eu1 2.479 1_556 S
O16 C31 1.238 . S
O17 Eu1 2.471 1_556 S
O17 C31 1.247 . S
O18 Eu1 2.347 . S
O18 C2 1.259 . S
O19 Tb0 2.418 . S
O19 C2 1.265 . S
O20 Tb0 2.384 . S
O20 C3 1.255 1_554 S
O21 Eu1 2.366 1_556 S
O21 C3 1.265 . S
C22 O13 1.255 . S
C22 O14 1.265 . S
O23 Tb0 2.479 . S
O23 C10 1.238 . S
O24 Tb0 2.471 . S
O24 C10 1.247 . S
C25 C28 1.380 . S
C25 C29 1.374 . S
C25 C31 1.507 . S
C26 C27 1.387 . S
C26 C30 1.391 . S
C27 C26 1.387 . S
C27 C28 1.384 . S
C27 H36 0.930 . S
C28 C25 1.380 . S
C28 C27 1.384 . S
C28 H37 0.931 . S
C29 C25 1.374 . S
C29 C30 1.390 . S
C29 H38 0.930 . S
C30 C26 1.391 . S
C30 C29 1.390 . S
C30 H39 0.930 . S
C31 Eu1 2.825 1_556 S
C31 O16 1.238 . S
C31 O17 1.247 . S
C31 C25 1.507 . S
H32 C5 0.930 . S
H33 C6 0.931 . S
H34 C7 0.930 . S
H35 C8 0.930 . S
H36 C27 0.930 . S
H37 C28 0.931 . S
H38 C29 0.930 . S
H39 C30 0.930 . S
Tb40 C50 2.825 . S
Tb40 O51 2.347 . S
Tb40 O54 2.366 . S
Tb40 O59 2.418 . S
Tb40 O60 2.384 . S
Tb40 O63 2.479 . S
Tb40 O64 2.471 . S
Eu41 O52 2.418 . S
Eu41 O53 2.384 . S
Eu41 O56 2.479 . S
Eu41 O57 2.471 . S
Eu41 O58 2.347 . S
Eu41 O61 2.366 . S
Eu41 C71 2.825 . S
C42 O58 1.259 . S
C42 O59 1.265 . S
C43 O60 1.255 . S
C43 O61 1.265 . S
C44 C46 1.380 . S
C44 C47 1.374 . S
C44 C50 1.507 . S
C45 C46 1.384 . S
C45 C49 1.387 . S
C45 H72 0.930 . S
C46 C44 1.380 . S
C46 C45 1.384 . S
C46 H73 0.931 . S
C47 C44 1.374 . S
C47 C48 1.390 . S
C47 H74 0.930 . S
C48 C47 1.390 . S
C48 C49 1.391 . S
C48 H75 0.930 . S
C49 C45 1.387 . S
C49 C48 1.391 . S
C50 Tb40 2.825 . S
C50 C44 1.507 . S
C50 O63 1.238 . S
C50 O64 1.247 . S
O51 Tb40 2.347 . S
O51 C55 1.259 . S
O52 Eu41 2.418 . S
O52 C55 1.265 . S
O53 Eu41 2.384 . S
O53 C62 1.255 . S
O54 Tb40 2.366 . S
O54 C62 1.265 . S
C55 O51 1.259 . S
C55 O52 1.265 . S
O56 Eu41 2.479 . S
O56 C71 1.238 . S
O57 Eu41 2.471 . S
O57 C71 1.247 . S
O58 Eu41 2.347 . S
O58 C42 1.259 . S
O59 Tb40 2.418 . S
O59 C42 1.265 . S
O60 Tb40 2.384 . S
O60 C43 1.255 . S
O61 Eu41 2.366 . S
O61 C43 1.265 . S
C62 O53 1.255 . S
C62 O54 1.265 . S
O63 Tb40 2.479 . S
O63 C50 1.238 . S
O64 Tb40 2.471 . S
O64 C50 1.247 . S
C65 C68 1.380 . S
C65 C69 1.374 . S
C65 C71 1.507 . S
C66 C67 1.387 . S
C66 C70 1.391 . S
C67 C66 1.387 . S
C67 C68 1.384 . S
C67 H76 0.930 . S
C68 C65 1.380 . S
C68 C67 1.384 . S
C68 H77 0.931 . S
C69 C65 1.374 . S
C69 C70 1.390 . S
C69 H78 0.930 . S
C70 C66 1.391 . S
C70 C69 1.390 . S
C70 H79 0.930 . S
C71 Eu41 2.825 . S
C71 O56 1.238 . S
C71 O57 1.247 . S
C71 C65 1.507 . S
H72 C45 0.930 . S
H73 C46 0.931 . S
H74 C47 0.930 . S
H75 C48 0.930 . S
H76 C67 0.930 . S
H77 C68 0.931 . S
H78 C69 0.930 . S
H79 C70 0.930 . S
Tb80 C90 2.825 . S
Tb80 O91 2.347 . S
Tb80 O94 2.366 . S
Tb80 O99 2.418 . S
Tb80 O100 2.384 . S
Tb80 O103 2.479 . S
Tb80 O104 2.471 . S
Eu81 O92 2.418 . S
Eu81 O93 2.384 . S
Eu81 O96 2.479 . S
Eu81 O97 2.471 . S
Eu81 O98 2.347 . S
Eu81 O101 2.366 . S
Eu81 C111 2.825 . S
C82 O98 1.259 . S
C82 O99 1.265 . S
C83 O100 1.255 . S
C83 O101 1.265 . S
C84 C86 1.380 . S
C84 C87 1.374 . S
C84 C90 1.507 . S
C85 C86 1.384 1_554 S
C85 C89 1.387 . S
C85 H112 0.930 . S
C86 C84 1.380 . S
C86 C85 1.384 1_556 S
C86 H113 0.931 . S
C87 C84 1.374 . S
C87 C88 1.390 1_556 S
C87 H114 0.930 . S
C88 C87 1.390 1_554 S
C88 C89 1.391 . S
C88 H115 0.930 . S
C89 C85 1.387 . S
C89 C88 1.391 . S
C90 Tb80 2.825 . S
C90 C84 1.507 . S
C90 O103 1.238 . S
C90 O104 1.247 . S
O91 Tb80 2.347 . S
O91 C95 1.259 . S
O92 Eu81 2.418 . S
O92 C95 1.265 . S
O93 Eu81 2.384 . S
O93 C102 1.255 . S
O94 Tb80 2.366 . S
O94 C102 1.265 . S
C95 O91 1.259 . S
C95 O92 1.265 . S
O96 Eu81 2.479 . S
O96 C111 1.238 . S
O97 Eu81 2.471 . S
O97 C111 1.247 . S
O98 Eu81 2.347 . S
O98 C82 1.259 . S
O99 Tb80 2.418 . S
O99 C82 1.265 . S
O100 Tb80 2.384 . S
O100 C83 1.255 . S
O101 Eu81 2.366 . S
O101 C83 1.265 . S
C102 O93 1.255 . S
C102 O94 1.265 . S
O103 Tb80 2.479 . S
O103 C90 1.238 . S
O104 Tb80 2.471 . S
O104 C90 1.247 . S
C105 C108 1.380 . S
C105 C109 1.374 . S
C105 C111 1.507 . S
C106 C107 1.387 . S
C106 C110 1.391 . S
C107 C106 1.387 . S
C107 C108 1.384 . S
C107 H116 0.930 . S
C108 C105 1.380 . S
C108 C107 1.384 . S
C108 H117 0.931 . S
C109 C105 1.374 . S
C109 C110 1.390 . S
C109 H118 0.930 . S
C110 C106 1.391 . S
C110 C109 1.390 . S
C110 H119 0.930 . S
C111 Eu81 2.825 . S
C111 O96 1.238 . S
C111 O97 1.247 . S
C111 C105 1.507 . S
H112 C85 0.930 . S
H113 C86 0.931 . S
H114 C87 0.930 . S
H115 C88 0.930 . S
H116 C107 0.930 . S
H117 C108 0.931 . S
H118 C109 0.930 . S
H119 C110 0.930 . S
Tb120 C130 2.825 . S
Tb120 O131 2.347 . S
Tb120 O134 2.366 . S
Tb120 O139 2.418 . S
Tb120 O140 2.384 . S
Tb120 O143 2.479 . S
Tb120 O144 2.471 . S
Eu121 O132 2.418 . S
Eu121 O133 2.384 . S
Eu121 O136 2.479 . S
Eu121 O137 2.471 . S
Eu121 O138 2.347 . S
Eu121 O141 2.366 . S
Eu121 C151 2.825 . S
C122 O138 1.259 . S
C122 O139 1.265 . S
C123 O140 1.255 . S
C123 O141 1.265 . S
C124 C126 1.380 . S
C124 C127 1.374 . S
C124 C130 1.507 1_556 S
C125 C126 1.384 . S
C125 C129 1.387 . S
C125 H152 0.930 . S
C126 C124 1.380 . S
C126 C125 1.384 . S
C126 H153 0.931 . S
C127 C124 1.374 . S
C127 C128 1.390 . S
C127 H154 0.930 . S
C128 C127 1.390 . S
C128 C129 1.391 . S
C128 H155 0.930 . S
C129 C125 1.387 . S
C129 C128 1.391 . S
C130 Tb120 2.825 . S
C130 C124 1.507 1_554 S
C130 O143 1.238 . S
C130 O144 1.247 . S
O131 Tb120 2.347 . S
O131 C135 1.259 . S
O132 Eu121 2.418 . S
O132 C135 1.265 . S
O133 Eu121 2.384 . S
O133 C142 1.255 . S
O134 Tb120 2.366 . S
O134 C142 1.265 . S
C135 O131 1.259 . S
C135 O132 1.265 . S
O136 Eu121 2.479 . S
O136 C151 1.238 . S
O137 Eu121 2.471 . S
O137 C151 1.247 . S
O138 Eu121 2.347 . S
O138 C122 1.259 . S
O139 Tb120 2.418 . S
O139 C122 1.265 . S
O140 Tb120 2.384 . S
O140 C123 1.255 . S
O141 Eu121 2.366 . S
O141 C123 1.265 . S
C142 O133 1.255 . S
C142 O134 1.265 . S
O143 Tb120 2.479 . S
O143 C130 1.238 . S
O144 Tb120 2.471 . S
O144 C130 1.247 . S
C145 C148 1.380 . S
C145 C149 1.374 . S
C145 C151 1.507 . S
C146 C147 1.387 . S
C146 C150 1.391 . S
C147 C146 1.387 . S
C147 C148 1.384 . S
C147 H156 0.930 . S
C148 C145 1.380 . S
C148 C147 1.384 . S
C148 H157 0.931 . S
C149 C145 1.374 . S
C149 C150 1.390 . S
C149 H158 0.930 . S
C150 C146 1.391 . S
C150 C149 1.390 . S
C150 H159 0.930 . S
C151 Eu121 2.825 . S
C151 O136 1.238 . S
C151 O137 1.247 . S
C151 C145 1.507 . S
H152 C125 0.930 . S
H153 C126 0.931 . S
H154 C127 0.930 . S
H155 C128 0.930 . S
H156 C147 0.930 . S
H157 C148 0.931 . S
H158 C149 0.930 . S
H159 C150 0.930 . S
Tb160 C170 2.825 . S
Tb160 O171 2.347 . S
Tb160 O174 2.366 . S
Tb160 O179 2.418 . S
Tb160 O180 2.384 . S
Tb160 O183 2.479 . S
Tb160 O184 2.471 . S
Eu161 O172 2.418 . S
Eu161 O173 2.384 . S
Eu161 O176 2.479 . S
Eu161 O177 2.471 . S
Eu161 O178 2.347 . S
Eu161 O181 2.366 . S
Eu161 C191 2.825 . S
C162 O178 1.259 . S
C162 O179 1.265 . S
C163 O180 1.255 . S
C163 O181 1.265 . S
C164 C166 1.380 . S
C164 C167 1.374 . S
C164 C170 1.507 . S
C165 C166 1.384 . S
C165 C169 1.387 . S
C165 H192 0.930 . S
C166 C164 1.380 . S
C166 C165 1.384 . S
C166 H193 0.931 . S
C167 C164 1.374 . S
C167 C168 1.390 . S
C167 H194 0.930 . S
C168 C167 1.390 . S
C168 C169 1.391 . S
C168 H195 0.930 . S
C169 C165 1.387 . S
C169 C168 1.391 . S
C170 Tb160 2.825 . S
C170 C164 1.507 . S
C170 O183 1.238 . S
C170 O184 1.247 . S
O171 Tb160 2.347 . S
O171 C175 1.259 . S
O172 Eu161 2.418 . S
O172 C175 1.265 . S
O173 Eu161 2.384 . S
O173 C182 1.255 . S
O174 Tb160 2.366 . S
O174 C182 1.265 . S
C175 O171 1.259 . S
C175 O172 1.265 . S
O176 Eu161 2.479 . S
O176 C191 1.238 . S
O177 Eu161 2.471 . S
O177 C191 1.247 . S
O178 Eu161 2.347 . S
O178 C162 1.259 . S
O179 Tb160 2.418 . S
O179 C162 1.265 . S
O180 Tb160 2.384 . S
O180 C163 1.255 . S
O181 Eu161 2.366 . S
O181 C163 1.265 . S
C182 O173 1.255 . S
C182 O174 1.265 . S
O183 Tb160 2.479 . S
O183 C170 1.238 . S
O184 Tb160 2.471 . S
O184 C170 1.247 . S
C185 C188 1.380 . S
C185 C189 1.374 . S
C185 C191 1.507 . S
C186 C187 1.387 . S
C186 C190 1.391 . S
C187 C186 1.387 . S
C187 C188 1.384 . S
C187 H196 0.930 . S
C188 C185 1.380 . S
C188 C187 1.384 . S
C188 H197 0.931 . S
C189 C185 1.374 . S
C189 C190 1.390 . S
C189 H198 0.930 . S
C190 C186 1.391 . S
C190 C189 1.390 . S
C190 H199 0.930 . S
C191 Eu161 2.825 . S
C191 O176 1.238 . S
C191 O177 1.247 . S
C191 C185 1.507 . S
H192 C165 0.930 . S
H193 C166 0.931 . S
H194 C167 0.930 . S
H195 C168 0.930 . S
H196 C187 0.930 . S
H197 C188 0.931 . S
H198 C189 0.930 . S
H199 C190 0.930 . S
Tb200 C210 2.825 . S
Tb200 O211 2.347 . S
Tb200 O214 2.366 . S
Tb200 O219 2.418 . S
Tb200 O220 2.384 . S
Tb200 O223 2.479 . S
Tb200 O224 2.471 . S
Eu201 O212 2.418 . S
Eu201 O213 2.384 . S
Eu201 O216 2.479 1_556 S
Eu201 O217 2.471 1_556 S
Eu201 O218 2.347 . S
Eu201 O221 2.366 . S
Eu201 C231 2.825 1_556 S
C202 O218 1.259 . S
C202 O219 1.265 . S
C203 O220 1.255 . S
C203 O221 1.265 . S
C204 C206 1.380 . S
C204 C207 1.374 . S
C204 C210 1.507 . S
C205 C206 1.384 . S
C205 C209 1.387 . S
C205 H232 0.930 . S
C206 C204 1.380 . S
C206 C205 1.384 . S
C206 H233 0.931 . S
C207 C204 1.374 . S
C207 C208 1.390 . S
C207 H234 0.930 . S
C208 C207 1.390 . S
C208 C209 1.391 . S
C208 H235 0.930 . S
C209 C205 1.387 . S
C209 C208 1.391 . S
C210 Tb200 2.825 . S
C210 C204 1.507 . S
C210 O223 1.238 . S
C210 O224 1.247 . S
O211 Tb200 2.347 . S
O211 C215 1.259 . S
O212 Eu201 2.418 . S
O212 C215 1.265 . S
O213 Eu201 2.384 . S
O213 C222 1.255 . S
O214 Tb200 2.366 . S
O214 C222 1.265 . S
C215 O211 1.259 . S
C215 O212 1.265 . S
O216 Eu201 2.479 1_554 S
O216 C231 1.238 . S
O217 Eu201 2.471 1_554 S
O217 C231 1.247 . S
O218 Eu201 2.347 . S
O218 C202 1.259 . S
O219 Tb200 2.418 . S
O219 C202 1.265 . S
O220 Tb200 2.384 . S
O220 C203 1.255 . S
O221 Eu201 2.366 . S
O221 C203 1.265 . S
C222 O213 1.255 . S
C222 O214 1.265 . S
O223 Tb200 2.479 . S
O223 C210 1.238 . S
O224 Tb200 2.471 . S
O224 C210 1.247 . S
C225 C228 1.380 . S
C225 C229 1.374 . S
C225 C231 1.507 . S
C226 C227 1.387 . S
C226 C230 1.391 . S
C227 C226 1.387 . S
C227 C228 1.384 . S
C227 H236 0.930 . S
C228 C225 1.380 . S
C228 C227 1.384 . S
C228 H237 0.931 . S
C229 C225 1.374 . S
C229 C230 1.390 . S
C229 H238 0.930 . S
C230 C226 1.391 . S
C230 C229 1.390 . S
C230 H239 0.930 . S
C231 Eu201 2.825 1_554 S
C231 O216 1.238 . S
C231 O217 1.247 . S
C231 C225 1.507 . S
H232 C205 0.930 . S
H233 C206 0.931 . S
H234 C207 0.930 . S
H235 C208 0.930 . S
H236 C227 0.930 . S
H237 C228 0.931 . S
H238 C229 0.930 . S
H239 C230 0.930 . S
H240 C252 0.930 . S
H241 C254 0.930 . S
H242 C255 0.930 . S
H243 C259 0.959 . S
H244 C259 0.959 . S
H245 C259 0.961 . S
H246 C260 0.960 . S
H247 C260 0.961 . S
H248 C260 0.959 1_556 S
H249 C263 0.929 . S
H250 C264 0.931 . S
H251 C266 0.930 . S
C252 H240 0.930 . S
C252 C253 1.399 . S
C252 C257 1.399 . S
C253 C252 1.399 . S
C253 C254 1.376 . S
C254 H241 0.930 . S
C254 C253 1.376 . S
C254 C255 1.388 . S
C255 H242 0.930 . S
C255 C254 1.388 . S
C255 C256 1.390 . S
C256 C255 1.390 . S
C256 C257 1.394 . S
C256 C262 1.465 . S
C257 C252 1.399 . S
C257 C256 1.394 . S
C257 C258 1.516 1_556 S
C258 C257 1.516 1_554 S
C258 C259 1.502 . S
C258 C260 1.561 . S
C258 C261 1.526 1_554 S
C259 H243 0.959 . S
C259 H244 0.959 . S
C259 H245 0.961 . S
C259 C258 1.502 . S
C260 H246 0.960 . S
C260 H247 0.961 . S
C260 H248 0.959 1_554 S
C260 C258 1.561 . S
C261 C258 1.526 1_556 S
C261 C262 1.396 . S
C261 C266 1.390 1_556 S
C262 C256 1.465 . S
C262 C261 1.396 . S
C262 C263 1.399 . S
C263 H249 0.929 . S
C263 C262 1.399 . S
C263 C264 1.385 . S
C264 H250 0.931 . S
C264 C263 1.385 . S
C264 C265 1.389 1_556 S
C265 C264 1.389 1_554 S
C265 C266 1.387 . S
C266 H251 0.930 . S
C266 C261 1.390 1_554 S
C266 C265 1.387 . S
H267 C279 0.930 . S
H268 C281 0.930 . S
H269 C282 0.930 . S
H270 C286 0.959 . S
H271 C286 0.959 . S
H272 C286 0.961 . S
H273 C287 0.960 . S
H274 C287 0.961 . S
H275 C287 0.959 . S
H276 C290 0.929 . S
H277 C291 0.931 . S
H278 C293 0.930 1_455 S
C279 H267 0.930 . S
C279 C280 1.399 . S
C279 C284 1.399 . S
C280 C279 1.399 . S
C280 C281 1.376 . S
C281 H268 0.930 . S
C281 C280 1.376 . S
C281 C282 1.388 1_455 S
C282 H269 0.930 . S
C282 C281 1.388 1_655 S
C282 C283 1.390 . S
C283 C282 1.390 . S
C283 C284 1.394 1_655 S
C283 C289 1.465 . S
C284 C279 1.399 . S
C284 C283 1.394 1_455 S
C284 C285 1.516 . S
C285 C284 1.516 . S
C285 C286 1.502 . S
C285 C287 1.561 . S
C285 C288 1.526 . S
C286 H270 0.959 . S
C286 H271 0.959 . S
C286 H272 0.961 . S
C286 C285 1.502 . S
C287 H273 0.960 . S
C287 H274 0.961 . S
C287 H275 0.959 . S
C287 C285 1.561 . S
C288 C285 1.526 . S
C288 C289 1.396 1_455 S
C288 C293 1.389 1_455 S
C289 C283 1.465 . S
C289 C288 1.396 1_655 S
C289 C290 1.399 . S
C290 H276 0.929 . S
C290 C289 1.399 . S
C290 C291 1.385 . S
C291 H277 0.931 . S
C291 C290 1.385 . S
C291 C292 1.389 . S
C292 C291 1.389 . S
C292 C293 1.387 . S
C293 H278 0.930 1_655 S
C293 C288 1.389 1_655 S
C293 C292 1.387 . S
H294 C306 0.930 . S
H295 C308 0.930 . S
H296 C309 0.930 . S
H297 C313 0.959 . S
H298 C313 0.959 . S
H299 C313 0.961 . S
H300 C314 0.960 . S
H301 C314 0.961 . S
H302 C314 0.959 . S
H303 C317 0.929 . S
H304 C318 0.931 . S
H305 C320 0.930 . S
C306 H294 0.930 . S
C306 C307 1.399 . S
C306 C311 1.399 . S
C307 C306 1.399 . S
C307 C308 1.376 . S
C308 H295 0.930 . S
C308 C307 1.376 . S
C308 C309 1.388 . S
C309 H296 0.930 . S
C309 C308 1.388 . S
C309 C310 1.390 . S
C310 C309 1.390 . S
C310 C311 1.394 . S
C310 C316 1.465 1_545 S
C311 C306 1.399 . S
C311 C310 1.394 . S
C311 C312 1.516 1_545 S
C312 C311 1.516 1_565 S
C312 C313 1.502 . S
C312 C314 1.561 . S
C312 C315 1.526 . S
C313 H297 0.959 . S
C313 H298 0.959 . S
C313 H299 0.961 . S
C313 C312 1.502 . S
C314 H300 0.960 . S
C314 H301 0.961 . S
C314 H302 0.959 . S
C314 C312 1.561 . S
C315 C312 1.526 . S
C315 C316 1.396 . S
C315 C320 1.390 . S
C316 C310 1.465 1_565 S
C316 C315 1.396 . S
C316 C317 1.399 . S
C317 H303 0.929 . S
C317 C316 1.399 . S
C317 C318 1.385 . S
C318 H304 0.931 . S
C318 C317 1.385 . S
C318 C319 1.389 . S
C319 C318 1.389 . S
C319 C320 1.387 . S
C320 H305 0.930 . S
C320 C315 1.390 . S
C320 C319 1.387 . S
H321 C333 0.930 . S
H322 C335 0.930 . S
H323 C336 0.930 . S
H324 C340 0.959 . S
H325 C340 0.959 . S
H326 C340 0.961 . S
H327 C341 0.960 1_556 S
H328 C341 0.961 . S
H329 C341 0.959 . S
H330 C344 0.929 1_556 S
H331 C345 0.931 . S
H332 C347 0.930 . S
C333 H321 0.930 . S
C333 C334 1.399 . S
C333 C338 1.399 . S
C334 C333 1.399 . S
C334 C335 1.376 . S
C335 H322 0.930 . S
C335 C334 1.376 . S
C335 C336 1.388 . S
C336 H323 0.930 . S
C336 C335 1.388 . S
C336 C337 1.390 . S
C337 C336 1.390 . S
C337 C338 1.394 . S
C337 C343 1.465 . S
C338 C333 1.399 . S
C338 C337 1.394 . S
C338 C339 1.516 . S
C339 C338 1.516 . S
C339 C340 1.502 . S
C339 C341 1.561 1_556 S
C339 C342 1.526 1_556 S
C340 H324 0.959 . S
C340 H325 0.959 . S
C340 H326 0.961 . S
C340 C339 1.502 . S
C341 H327 0.960 1_554 S
C341 H328 0.961 . S
C341 H329 0.959 . S
C341 C339 1.561 1_554 S
C342 C339 1.526 1_554 S
C342 C343 1.396 1_554 S
C342 C347 1.390 . S
C343 C337 1.465 . S
C343 C342 1.396 1_556 S
C343 C344 1.399 1_556 S
C344 H330 0.929 1_554 S
C344 C343 1.399 1_554 S
C344 C345 1.385 . S
C345 H331 0.931 . S
C345 C344 1.385 . S
C345 C346 1.389 . S
C346 C345 1.389 . S
C346 C347 1.387 . S
C347 H332 0.930 . S
C347 C342 1.390 . S
C347 C346 1.387 . S
H348 C360 0.930 . S
H349 C362 0.930 . S
H350 C363 0.930 . S
H351 C367 0.956 1_455 S
H352 C367 0.969 . S
H353 C367 0.941 1_455 S
H354 C368 0.960 . S
H355 C368 0.961 . S
H356 C368 0.959 . S
H357 C371 0.929 . S
H358 C372 0.931 . S
H359 C374 0.930 . S
C360 H348 0.930 . S
C360 C361 1.399 . S
C360 C365 1.399 . S
C361 C360 1.399 . S
C361 C362 1.376 . S
C362 H349 0.930 . S
C362 C361 1.376 . S
C362 C363 1.388 . S
C363 H350 0.930 . S
C363 C362 1.388 . S
C363 C364 1.390 . S
C364 C363 1.390 . S
C364 C365 1.394 . S
C364 C370 1.465 1_455 S
C365 C360 1.399 . S
C365 C364 1.394 . S
C365 C366 1.516 1_455 S
C366 C365 1.516 1_655 S
C366 C367 1.515 . S
C366 C368 1.561 . S
C366 C369 1.526 . S
C367 H351 0.956 1_655 S
C367 H352 0.969 . S
C367 H353 0.941 1_655 S
C367 C366 1.515 . S
C368 H354 0.960 . S
C368 H355 0.961 . S
C368 H356 0.959 . S
C368 C366 1.561 . S
C369 C366 1.526 . S
C369 C370 1.396 . S
C369 C374 1.390 . S
C370 C364 1.465 1_655 S
C370 C369 1.396 . S
C370 C371 1.399 . S
C371 H357 0.929 . S
C371 C370 1.399 . S
C371 C372 1.385 . S
C372 H358 0.931 . S
C372 C371 1.385 . S
C372 C373 1.389 . S
C373 C372 1.389 . S
C373 C374 1.387 . S
C374 H359 0.930 . S
C374 C369 1.390 . S
C374 C373 1.387 . S
H375 C387 0.930 . S
H376 C389 0.930 1_565 S
H377 C390 0.930 . S
H378 C394 0.959 . S
H379 C394 0.959 . S
H380 C394 0.961 . S
H381 C395 0.960 . S
H382 C395 0.961 . S
H383 C395 0.959 . S
H384 C398 0.929 . S
H385 C399 0.931 . S
H386 C401 0.930 1_545 S
C387 H375 0.930 . S
C387 C388 1.399 . S
C387 C392 1.399 . S
C388 C387 1.399 . S
C388 C389 1.376 . S
C389 H376 0.930 1_545 S
C389 C388 1.376 . S
C389 C390 1.388 1_545 S
C390 H377 0.930 . S
C390 C389 1.388 1_565 S
C390 C391 1.390 . S
C391 C390 1.390 . S
C391 C392 1.394 1_565 S
C391 C397 1.465 . S
C392 C387 1.399 . S
C392 C391 1.394 1_545 S
C392 C393 1.516 . S
C393 C392 1.516 . S
C393 C394 1.502 . S
C393 C395 1.561 . S
C393 C396 1.526 . S
C394 H378 0.959 . S
C394 H379 0.959 . S
C394 H380 0.961 . S
C394 C393 1.502 . S
C395 H381 0.960 . S
C395 H382 0.961 . S
C395 H383 0.959 . S
C395 C393 1.561 . S
C396 C393 1.526 . S
C396 C397 1.396 1_545 S
C396 C401 1.390 1_545 S
C397 C391 1.465 . S
C397 C396 1.396 1_565 S
C397 C398 1.399 . S
C398 H384 0.929 . S
C398 C397 1.399 . S
C398 C399 1.385 . S
C399 H385 0.931 . S
C399 C398 1.385 . S
C399 C400 1.389 . S
C400 C399 1.389 . S
C400 C401 1.387 . S
C401 H386 0.930 1_565 S
C401 C396 1.390 1_565 S
C401 C400 1.387 . S
H402 C414 0.930 . S
H403 C416 0.930 . S
H404 C417 0.930 . S
H405 C421 0.959 . S
H406 C421 0.959 . S
H407 C421 0.961 . S
H408 C422 0.960 . S
H409 C422 0.961 . S
H410 C422 0.959 . S
H411 C425 0.929 . S
H412 C426 0.931 . S
H413 C428 0.930 . S
C414 H402 0.930 . S
C414 C415 1.399 . S
C414 C419 1.399 . S
C415 C414 1.399 . S
C415 C416 1.376 . S
C416 H403 0.930 . S
C416 C415 1.376 . S
C416 C417 1.388 . S
C417 H404 0.930 . S
C417 C416 1.388 . S
C417 C418 1.390 . S
C418 C417 1.390 . S
C418 C419 1.394 . S
C418 C424 1.465 . S
C419 C414 1.399 . S
C419 C418 1.394 . S
C419 C420 1.516 . S
C420 C419 1.516 . S
C420 C421 1.502 . S
C420 C422 1.561 . S
C420 C423 1.526 . S
C421 H405 0.959 . S
C421 H406 0.959 . S
C421 H407 0.961 . S
C421 C420 1.502 . S
C422 H408 0.960 . S
C422 H409 0.961 . S
C422 H410 0.959 . S
C422 C420 1.561 . S
C423 C420 1.526 . S
C423 C424 1.396 . S
C423 C428 1.390 . S
C424 C418 1.465 . S
C424 C423 1.396 . S
C424 C425 1.399 . S
C425 H411 0.929 . S
C425 C424 1.399 . S
C425 C426 1.385 . S
C426 H412 0.931 . S
C426 C425 1.385 . S
C426 C427 1.389 . S
C427 C426 1.389 . S
C427 C428 1.387 . S
C428 H413 0.930 . S
C428 C423 1.390 . S
C428 C427 1.387 . S
H429 C441 0.930 . S
H430 C443 0.930 . S
H431 C444 0.930 . S
H432 C448 0.959 . S
H433 C448 0.959 1_556 S
H434 C448 0.961 . S
H435 C449 0.960 1_554 S
H436 C449 0.961 . S
H437 C449 0.959 . S
H438 C452 0.929 1_554 S
H439 C453 0.931 . S
H440 C455 0.930 . S
C441 H429 0.930 . S
C441 C442 1.399 . S
C441 C446 1.399 . S
C442 C441 1.399 . S
C442 C443 1.376 . S
C443 H430 0.930 . S
C443 C442 1.376 . S
C443 C444 1.388 . S
C444 H431 0.930 . S
C444 C443 1.388 . S
C444 C445 1.390 . S
C445 C444 1.390 . S
C445 C446 1.394 . S
C445 C451 1.465 . S
C446 C441 1.399 . S
C446 C445 1.394 . S
C446 C447 1.516 . S
C447 C446 1.516 . S
C447 C448 1.502 . S
C447 C449 1.561 1_554 S
C447 C450 1.526 1_554 S
C448 H432 0.959 . S
C448 H433 0.959 1_554 S
C448 H434 0.961 . S
C448 C447 1.502 . S
C449 H435 0.960 1_556 S
C449 H436 0.961 . S
C449 H437 0.959 . S
C449 C447 1.561 1_556 S
C450 C447 1.526 1_556 S
C450 C451 1.396 1_556 S
C450 C455 1.390 . S
C451 C445 1.465 . S
C451 C450 1.396 1_554 S
C451 C452 1.399 1_554 S
C452 H438 0.929 1_556 S
C452 C451 1.399 1_556 S
C452 C453 1.385 . S
C453 H439 0.931 . S
C453 C452 1.385 . S
C453 C454 1.389 . S
C454 C453 1.389 . S
C454 C455 1.387 . S
C455 H440 0.930 . S
C455 C450 1.390 . S
C455 C454 1.387 . S
H456 C468 0.930 . S
H457 C470 0.930 . S
H458 C471 0.930 . S
H459 C475 0.959 . S
H460 C475 0.959 . S
H461 C475 0.961 . S
H462 C476 0.960 . S
H463 C476 0.961 . S
H464 C476 0.959 . S
H465 C479 0.929 . S
H466 C480 0.931 . S
H467 C482 0.930 . S
C468 H456 0.930 . S
C468 C469 1.399 . S
C468 C473 1.399 . S
C469 C468 1.399 . S
C469 C470 1.376 . S
C470 H457 0.930 . S
C470 C469 1.376 . S
C470 C471 1.388 . S
C471 H458 0.930 . S
C471 C470 1.388 . S
C471 C472 1.390 . S
C472 C471 1.390 . S
C472 C473 1.394 . S
C472 C478 1.465 . S
C473 C468 1.399 . S
C473 C472 1.394 . S
C473 C474 1.516 . S
C474 C473 1.516 . S
C474 C475 1.502 . S
C474 C476 1.561 . S
C474 C477 1.526 . S
C475 H459 0.959 . S
C475 H460 0.959 . S
C475 H461 0.961 . S
C475 C474 1.502 . S
C476 H462 0.960 . S
C476 H463 0.961 . S
C476 H464 0.959 . S
C476 C474 1.561 . S
C477 C474 1.526 . S
C477 C478 1.396 . S
C477 C482 1.390 . S
C478 C472 1.465 . S
C478 C477 1.396 . S
C478 C479 1.399 . S
C479 H465 0.929 . S
C479 C478 1.399 . S
C479 C480 1.385 . S
C480 H466 0.931 . S
C480 C479 1.385 . S
C480 C481 1.389 . S
C481 C480 1.389 . S
C481 C482 1.387 . S
C482 H467 0.930 . S
C482 C477 1.390 . S
C482 C481 1.387 . S
H483 C495 0.930 . S
H484 C497 0.930 . S
H485 C498 0.930 . S
H486 C502 0.959 . S
H487 C502 0.959 . S
H488 C502 0.961 . S
H489 C503 0.960 . S
H490 C503 0.961 . S
H491 C503 0.959 . S
H492 C506 0.929 . S
H493 C507 0.931 . S
H494 C509 0.930 . S
C495 H483 0.930 . S
C495 C496 1.399 . S
C495 C500 1.399 . S
C496 C495 1.399 . S
C496 C497 1.376 . S
C497 H484 0.930 . S
C497 C496 1.376 . S
C497 C498 1.388 . S
C498 H485 0.930 . S
C498 C497 1.388 . S
C498 C499 1.390 . S
C499 C498 1.390 . S
C499 C500 1.394 . S
C499 C505 1.465 . S
C500 C495 1.399 . S
C500 C499 1.394 . S
C500 C501 1.516 . S
C501 C500 1.516 . S
C501 C502 1.502 . S
C501 C503 1.561 . S
C501 C504 1.526 . S
C502 H486 0.959 . S
C502 H487 0.959 . S
C502 H488 0.961 . S
C502 C501 1.502 . S
C503 H489 0.960 . S
C503 H490 0.961 . S
C503 H491 0.959 . S
C503 C501 1.561 . S
C504 C501 1.526 . S
C504 C505 1.396 . S
C504 C509 1.390 . S
C505 C499 1.465 . S
C505 C504 1.396 . S
C505 C506 1.399 . S
C506 H492 0.929 . S
C506 C505 1.399 . S
C506 C507 1.385 . S
C507 H493 0.931 . S
C507 C506 1.385 . S
C507 C508 1.389 . S
C508 C507 1.389 . S
C508 C509 1.387 . S
C509 H494 0.930 . S
C509 C504 1.390 . S
C509 C508 1.387 . S
H510 C522 0.930 . S
H511 C524 0.930 . S
H512 C525 0.930 . S
H513 C529 0.959 . S
H514 C529 0.959 . S
H515 C529 0.961 . S
H516 C530 0.960 . S
H517 C530 0.961 . S
H518 C530 0.959 . S
H519 C533 0.929 . S
H520 C534 0.931 . S
H521 C536 0.930 1_554 S
C522 H510 0.930 . S
C522 C523 1.399 . S
C522 C527 1.399 . S
C523 C522 1.399 . S
C523 C524 1.376 . S
C524 H511 0.930 . S
C524 C523 1.376 . S
C524 C525 1.388 . S
C525 H512 0.930 . S
C525 C524 1.388 . S
C525 C526 1.390 . S
C526 C525 1.390 . S
C526 C527 1.394 . S
C526 C532 1.465 . S
C527 C522 1.399 . S
C527 C526 1.394 . S
C527 C528 1.516 . S
C528 C527 1.516 . S
C528 C529 1.502 . S
C528 C530 1.561 . S
C528 C531 1.526 . S
C529 H513 0.959 . S
C529 H514 0.959 . S
C529 H515 0.961 . S
C529 C528 1.502 . S
C530 H516 0.960 . S
C530 H517 0.961 . S
C530 H518 0.959 . S
C530 C528 1.561 . S
C531 C528 1.526 . S
C531 C532 1.396 . S
C531 C536 1.390 . S
C532 C526 1.465 . S
C532 C531 1.396 . S
C532 C533 1.399 . S
C533 H519 0.929 . S
C533 C532 1.399 . S
C533 C534 1.385 . S
C534 H520 0.931 . S
C534 C533 1.385 . S
C534 C535 1.389 1_556 S
C535 C534 1.389 1_554 S
C535 C536 1.387 1_554 S
C536 H521 0.930 1_556 S
C536 C531 1.390 . S
C536 C535 1.387 1_556 S
H537 C549 0.930 . S
H538 C551 0.930 . S
H539 C552 0.930 . S
H540 C556 0.959 . S
H541 C556 0.959 . S
H542 C556 0.961 . S
H543 C557 0.960 . S
H544 C557 0.961 . S
H545 C557 0.959 . S
H546 C560 0.929 . S
H547 C561 0.931 . S
H548 C563 0.930 . S
C549 H537 0.930 . S
C549 C550 1.399 . S
C549 C554 1.399 . S
C550 C549 1.399 . S
C550 C551 1.376 . S
C551 H538 0.930 . S
C551 C550 1.376 . S
C551 C552 1.388 . S
C552 H539 0.930 . S
C552 C551 1.388 . S
C552 C553 1.390 . S
C553 C552 1.390 . S
C553 C554 1.394 . S
C553 C559 1.465 . S
C554 C549 1.399 . S
C554 C553 1.394 . S
C554 C555 1.516 . S
C555 C554 1.516 . S
C555 C556 1.502 . S
C555 C557 1.561 . S
C555 C558 1.526 . S
C556 H540 0.959 . S
C556 H541 0.959 . S
C556 H542 0.961 . S
C556 C555 1.502 . S
C557 H543 0.960 . S
C557 H544 0.961 . S
C557 H545 0.959 . S
C557 C555 1.561 . S
C558 C555 1.526 . S
C558 C559 1.396 . S
C558 C563 1.390 . S
C559 C553 1.465 . S
C559 C558 1.396 . S
C559 C560 1.399 . S
C560 H546 0.929 . S
C560 C559 1.399 . S
C560 C561 1.385 . S
C561 H547 0.931 . S
C561 C560 1.385 . S
C561 C562 1.389 . S
C562 C561 1.389 . S
C562 C563 1.387 . S
C563 H548 0.930 . S
C563 C558 1.390 . S
C563 C562 1.387 . S
H564 C576 0.930 . S
H565 C578 0.930 . S
H566 C579 0.930 . S
H567 C583 0.959 . S
H568 C583 0.959 . S
H569 C583 0.961 . S
H570 C584 0.960 . S
H571 C584 0.961 . S
H572 C584 0.959 . S
H573 C587 0.929 . S
H574 C588 0.931 . S
H575 C590 0.930 . S
C576 H564 0.930 . S
C576 C577 1.399 . S
C576 C581 1.399 . S
C577 C576 1.399 . S
C577 C578 1.376 . S
C578 H565 0.930 . S
C578 C577 1.376 . S
C578 C579 1.388 . S
C579 H566 0.930 . S
C579 C578 1.388 . S
C579 C580 1.390 . S
C580 C579 1.390 . S
C580 C581 1.394 . S
C580 C586 1.465 . S
C581 C576 1.399 . S
C581 C580 1.394 . S
C581 C582 1.516 . S
C582 C581 1.516 . S
C582 C583 1.502 . S
C582 C584 1.561 . S
C582 C585 1.526 . S
C583 H567 0.959 . S
C583 H568 0.959 . S
C583 H569 0.961 . S
C583 C582 1.502 . S
C584 H570 0.960 . S
C584 H571 0.961 . S
C584 H572 0.959 . S
C584 C582 1.561 . S
C585 C582 1.526 . S
C585 C586 1.396 . S
C585 C590 1.390 . S
C586 C580 1.465 . S
C586 C585 1.396 . S
C586 C587 1.399 . S
C587 H573 0.929 . S
C587 C586 1.399 . S
C587 C588 1.385 . S
C588 H574 0.931 . S
C588 C587 1.385 . S
C588 C589 1.389 . S
C589 C588 1.389 . S
C589 C590 1.387 . S
C590 H575 0.930 . S
C590 C585 1.390 . S
C590 C589 1.387 . S
H591 C603 0.930 . S
H592 C605 0.930 . S
H593 C606 0.930 . S
H594 C610 0.959 . S
H595 C610 0.959 . S
H596 C610 0.961 . S
H597 C611 0.960 . S
H598 C611 0.961 . S
H599 C611 0.959 . S
H600 C614 0.929 . S
H601 C615 0.931 . S
H602 C617 0.930 . S
C603 H591 0.930 . S
C603 C604 1.399 . S
C603 C608 1.399 . S
C604 C603 1.399 . S
C604 C605 1.376 . S
C605 H592 0.930 . S
C605 C604 1.376 . S
C605 C606 1.388 . S
C606 H593 0.930 . S
C606 C605 1.388 . S
C606 C607 1.390 . S
C607 C606 1.390 . S
C607 C608 1.394 . S
C607 C613 1.465 . S
C608 C603 1.399 . S
C608 C607 1.394 . S
C608 C609 1.516 . S
C609 C608 1.516 . S
C609 C610 1.502 . S
C609 C611 1.561 . S
C609 C612 1.526 . S
C610 H594 0.959 . S
C610 H595 0.959 . S
C610 H596 0.961 . S
C610 C609 1.502 . S
C611 H597 0.960 . S
C611 H598 0.961 . S
C611 H599 0.959 . S
C611 C609 1.561 . S
C612 C609 1.526 . S
C612 C613 1.396 . S
C612 C617 1.390 . S
C613 C607 1.465 . S
C613 C612 1.396 . S
C613 C614 1.399 . S
C614 H600 0.929 . S
C614 C613 1.399 . S
C614 C615 1.385 . S
C615 H601 0.931 . S
C615 C614 1.385 . S
C615 C616 1.389 . S
C616 C615 1.389 . S
C616 C617 1.387 . S
C617 H602 0.930 . S
C617 C612 1.390 . S
C617 C616 1.387 . S
H618 C630 0.930 . S
H619 C632 0.930 . S
H620 C633 0.930 . S
H621 C637 0.959 . S
H622 C637 0.959 . S
H623 C637 0.961 . S
H624 C638 0.960 . S
H625 C638 0.961 . S
H626 C638 0.959 . S
H627 C641 0.929 . S
H628 C642 0.931 . S
H629 C644 0.930 . S
C630 H618 0.930 . S
C630 C631 1.399 . S
C630 C635 1.399 . S
C631 C630 1.399 . S
C631 C632 1.376 . S
C632 H619 0.930 . S
C632 C631 1.376 . S
C632 C633 1.388 . S
C633 H620 0.930 . S
C633 C632 1.388 . S
C633 C634 1.390 . S
C634 C633 1.390 . S
C634 C635 1.394 . S
C634 C640 1.465 . S
C635 C630 1.399 . S
C635 C634 1.394 . S
C635 C636 1.516 . S
C636 C635 1.516 . S
C636 C637 1.502 . S
C636 C638 1.561 . S
C636 C639 1.526 . S
C637 H621 0.959 . S
C637 H622 0.959 . S
C637 H623 0.961 . S
C637 C636 1.502 . S
C638 H624 0.960 . S
C638 H625 0.961 . S
C638 H626 0.959 . S
C638 C636 1.561 . S
C639 C636 1.526 . S
C639 C640 1.396 . S
C639 C644 1.390 . S
C640 C634 1.465 . S
C640 C639 1.396 . S
C640 C641 1.399 . S
C641 H627 0.929 . S
C641 C640 1.399 . S
C641 C642 1.385 . S
C642 H628 0.931 . S
C642 C641 1.385 . S
C642 C643 1.389 . S
C643 C642 1.389 . S
C643 C644 1.387 . S
C644 H629 0.930 . S
C644 C639 1.390 . S
C644 C643 1.387 . S
H645 C657 0.930 . S
H646 C659 0.930 . S
H647 C660 0.930 . S
H648 C664 0.959 . S
H649 C664 0.959 . S
H650 C664 0.961 . S
H651 C665 0.960 . S
H652 C665 0.961 . S
H653 C665 0.959 . S
H654 C668 0.929 . S
H655 C669 0.931 . S
H656 C671 0.930 . S
C657 H645 0.930 . S
C657 C658 1.399 . S
C657 C662 1.399 . S
C658 C657 1.399 . S
C658 C659 1.376 . S
C659 H646 0.930 . S
C659 C658 1.376 . S
C659 C660 1.388 . S
C660 H647 0.930 . S
C660 C659 1.388 . S
C660 C661 1.390 . S
C661 C660 1.390 . S
C661 C662 1.394 . S
C661 C667 1.465 . S
C662 C657 1.399 . S
C662 C661 1.394 . S
C662 C663 1.516 . S
C663 C662 1.516 . S
C663 C664 1.502 . S
C663 C665 1.561 . S
C663 C666 1.526 . S
C664 H648 0.959 . S
C664 H649 0.959 . S
C664 H650 0.961 . S
C664 C663 1.502 . S
C665 H651 0.960 . S
C665 H652 0.961 . S
C665 H653 0.959 . S
C665 C663 1.561 . S
C666 C663 1.526 . S
C666 C667 1.396 . S
C666 C671 1.390 . S
C667 C661 1.465 . S
C667 C666 1.396 . S
C667 C668 1.399 . S
C668 H654 0.929 . S
C668 C667 1.399 . S
C668 C669 1.385 . S
C669 H655 0.931 . S
C669 C668 1.385 . S
C669 C670 1.389 . S
C670 C669 1.389 . S
C670 C671 1.387 . S
C671 H656 0.930 . S
C671 C666 1.390 . S
C671 C670 1.387 . S
H672 C684 0.930 . S
H673 C686 0.930 . S
H674 C687 0.930 . S
H675 C691 0.959 . S
H676 C691 0.959 . S
H677 C691 0.961 . S
H678 C692 0.960 . S
H679 C692 0.961 . S
H680 C692 0.959 . S
H681 C695 0.929 . S
H682 C696 0.931 . S
H683 C698 0.930 . S
C684 H672 0.930 . S
C684 C685 1.399 . S
C684 C689 1.399 . S
C685 C684 1.399 . S
C685 C686 1.376 . S
C686 H673 0.930 . S
C686 C685 1.376 . S
C686 C687 1.388 . S
C687 H674 0.930 . S
C687 C686 1.388 . S
C687 C688 1.390 . S
C688 C687 1.390 . S
C688 C689 1.394 . S
C688 C694 1.465 . S
C689 C684 1.399 . S
C689 C688 1.394 . S
C689 C690 1.516 . S
C690 C689 1.516 . S
C690 C691 1.502 . S
C690 C692 1.561 . S
C690 C693 1.526 . S
C691 H675 0.959 . S
C691 H676 0.959 . S
C691 H677 0.961 . S
C691 C690 1.502 . S
C692 H678 0.960 . S
C692 H679 0.961 . S
C692 H680 0.959 . S
C692 C690 1.561 . S
C693 C690 1.526 . S
C693 C694 1.396 . S
C693 C698 1.390 . S
C694 C688 1.465 . S
C694 C693 1.396 . S
C694 C695 1.399 . S
C695 H681 0.929 . S
C695 C694 1.399 . S
C695 C696 1.385 . S
C696 H682 0.931 . S
C696 C695 1.385 . S
C696 C697 1.389 . S
C697 C696 1.389 . S
C697 C698 1.387 . S
C698 H683 0.930 . S
C698 C693 1.390 . S
C698 C697 1.387 . S
H699 C711 0.930 . S
H700 C713 0.930 . S
H701 C714 0.930 . S
H702 C718 0.959 . S
H703 C718 0.959 . S
H704 C718 0.961 . S
H705 C719 0.960 . S
H706 C719 0.961 1_556 S
H707 C719 0.959 . S
H708 C722 0.929 . S
H709 C723 0.931 . S
H710 C725 0.930 . S
C711 H699 0.930 . S
C711 C712 1.399 . S
C711 C716 1.399 . S
C712 C711 1.399 . S
C712 C713 1.376 . S
C713 H700 0.930 . S
C713 C712 1.376 . S
C713 C714 1.388 . S
C714 H701 0.930 . S
C714 C713 1.388 . S
C714 C715 1.390 . S
C715 C714 1.390 . S
C715 C716 1.394 . S
C715 C721 1.465 . S
C716 C711 1.399 . S
C716 C715 1.394 . S
C716 C717 1.516 . S
C717 C716 1.516 . S
C717 C718 1.502 1_554 S
C717 C719 1.561 . S
C717 C720 1.526 . S
C718 H702 0.959 . S
C718 H703 0.959 . S
C718 H704 0.961 . S
C718 C717 1.502 1_556 S
C719 H705 0.960 . S
C719 H706 0.961 1_554 S
C719 H707 0.959 . S
C719 C717 1.561 . S
C720 C717 1.526 . S
C720 C721 1.396 . S
C720 C725 1.390 1_554 S
C721 C715 1.465 . S
C721 C720 1.396 . S
C721 C722 1.399 . S
C722 H708 0.929 . S
C722 C721 1.399 . S
C722 C723 1.385 . S
C723 H709 0.931 . S
C723 C722 1.385 . S
C723 C724 1.389 1_554 S
C724 C723 1.389 1_556 S
C724 C725 1.387 . S
C725 H710 0.930 . S
C725 C720 1.390 1_556 S
C725 C724 1.387 . S
C253 C202 1.349 . S
C265 C2 1.407 . S
C280 C22 1.673 . S
C292 C62 1.650 . S
C307 C42 1.418 . S
C319 C82 1.377 . S
C334 C102 1.660 . S
C346 C142 1.657 . S
C361 C162 1.409 . S
C373 C122 1.406 . S
C388 C222 1.684 . S
C400 C182 1.649 . S
C415 C26 1.200 . S
C427 C9 1.131 . S
C442 C49 1.134 . S
C454 C66 1.198 . S
C469 C106 1.187 . S
C481 C89 1.150 . S
C496 C129 1.163 . S
C508 C146 1.175 . S
C523 C169 1.123 . S
C535 C186 1.200 . S
C550 C209 1.196 . S
C562 C226 1.137 . S
C577 C15 1.859 . S
C589 C163 1.851 . S
C604 C43 1.852 . S
C616 C215 1.862 . S
C631 C3 1.851 . S
C643 C95 1.862 . S
C658 C55 1.854 . S
C670 C123 1.854 . S
C685 C175 1.850 . S
C697 C83 1.861 . S
C712 C135 1.859 . S
C724 C203 1.858 . S
