# Generated by pormake.
# Topology utm, (3)-cn, num edge types: 1
# Building blocks:
#     Node 0, Type 0, BuildingBlock: WUSLED_clean_sbu_0, # of connection points: 3
#     Node 1, Type 0, BuildingBlock: WUSLED_clean_sbu_0, # of connection points: 3
#     Node 2, Type 0, BuildingBlock: WUSLED_clean_sbu_0, # of connection points: 3
#     Node 3, Type 0, BuildingBlock: WUSLED_clean_sbu_0, # of connection points: 3
#     Node 4, Type 0, BuildingBlock: WUSLED_clean_sbu_0, # of connection points: 3
#     Node 5, Type 0, BuildingBlock: WUSLED_clean_sbu_0, # of connection points: 3
#     Node 6, Type 0, BuildingBlock: WUSLED_clean_sbu_0, # of connection points: 3
#     Node 7, Type 0, BuildingBlock: WUSLED_clean_sbu_0, # of connection points: 3
#     Node 8, Type 0, BuildingBlock: WUSLED_clean_sbu_0, # of connection points: 3
#     Node 9, Type 0, BuildingBlock: WUSLED_clean_sbu_0, # of connection points: 3
#     Node 10, Type 0, BuildingBlock: WUSLED_clean_sbu_0, # of connection points: 3
#     Node 11, Type 0, BuildingBlock: WUSLED_clean_sbu_0, # of connection points: 3
#     Node 12, Type 0, BuildingBlock: WUSLED_clean_sbu_0, # of connection points: 3
#     Node 13, Type 0, BuildingBlock: WUSLED_clean_sbu_0, # of connection points: 3
#     Node 14, Type 0, BuildingBlock: WUSLED_clean_sbu_0, # of connection points: 3
#     Node 15, Type 0, BuildingBlock: WUSLED_clean_sbu_0, # of connection points: 3
#     Node 16, Type 0, BuildingBlock: WUSLED_clean_sbu_0, # of connection points: 3
#     Node 17, Type 0, BuildingBlock: WUSLED_clean_sbu_0, # of connection points: 3
#     Node 18, Type 0, BuildingBlock: WUSLED_clean_sbu_0, # of connection points: 3
#     Node 19, Type 0, BuildingBlock: WUSLED_clean_sbu_0, # of connection points: 3
#     Node 20, Type 0, BuildingBlock: WUSLED_clean_sbu_0, # of connection points: 3
#     Node 21, Type 0, BuildingBlock: WUSLED_clean_sbu_0, # of connection points: 3
#     Node 22, Type 0, BuildingBlock: WUSLED_clean_sbu_0, # of connection points: 3
#     Node 23, Type 0, BuildingBlock: WUSLED_clean_sbu_0, # of connection points: 3
#     Node 24, Type 0, BuildingBlock: WUSLED_clean_sbu_0, # of connection points: 3
#     Node 25, Type 0, BuildingBlock: WUSLED_clean_sbu_0, # of connection points: 3
#     Node 26, Type 0, BuildingBlock: WUSLED_clean_sbu_0, # of connection points: 3
#     Node 27, Type 0, BuildingBlock: WUSLED_clean_sbu_0, # of connection points: 3
#     Node 28, Type 0, BuildingBlock: WUSLED_clean_sbu_0, # of connection points: 3
#     Node 29, Type 0, BuildingBlock: WUSLED_clean_sbu_0, # of connection points: 3
#     Node 30, Type 0, BuildingBlock: WUSLED_clean_sbu_0, # of connection points: 3
#     Node 31, Type 0, BuildingBlock: WUSLED_clean_sbu_0, # of connection points: 3
#     Edge 32, Type (0, 0), BuildingBlock: AJUNOK_clean_linker_0, # of connection points: 2
#     Edge 33, Type (0, 0), BuildingBlock: AJUNOK_clean_linker_0, # of connection points: 2
#     Edge 34, Type (0, 0), BuildingBlock: AJUNOK_clean_linker_0, # of connection points: 2
#     Edge 35, Type (0, 0), BuildingBlock: AJUNOK_clean_linker_0, # of connection points: 2
#     Edge 36, Type (0, 0), BuildingBlock: AJUNOK_clean_linker_0, # of connection points: 2
#     Edge 37, Type (0, 0), BuildingBlock: AJUNOK_clean_linker_0, # of connection points: 2
#     Edge 38, Type (0, 0), BuildingBlock: AJUNOK_clean_linker_0, # of connection points: 2
#     Edge 39, Type (0, 0), BuildingBlock: AJUNOK_clean_linker_0, # of connection points: 2
#     Edge 40, Type (0, 0), BuildingBlock: AJUNOK_clean_linker_0, # of connection points: 2
#     Edge 41, Type (0, 0), BuildingBlock: AJUNOK_clean_linker_0, # of connection points: 2
#     Edge 42, Type (0, 0), BuildingBlock: AJUNOK_clean_linker_0, # of connection points: 2
#     Edge 43, Type (0, 0), BuildingBlock: AJUNOK_clean_linker_0, # of connection points: 2
#     Edge 44, Type (0, 0), BuildingBlock: AJUNOK_clean_linker_0, # of connection points: 2
#     Edge 45, Type (0, 0), BuildingBlock: AJUNOK_clean_linker_0, # of connection points: 2
#     Edge 46, Type (0, 0), BuildingBlock: AJUNOK_clean_linker_0, # of connection points: 2
#     Edge 47, Type (0, 0), BuildingBlock: AJUNOK_clean_linker_0, # of connection points: 2
#     Edge 48, Type (0, 0), BuildingBlock: AJUNOK_clean_linker_0, # of connection points: 2
#     Edge 49, Type (0, 0), BuildingBlock: AJUNOK_clean_linker_0, # of connection points: 2
#     Edge 50, Type (0, 0), BuildingBlock: AJUNOK_clean_linker_0, # of connection points: 2
#     Edge 51, Type (0, 0), BuildingBlock: AJUNOK_clean_linker_0, # of connection points: 2
#     Edge 52, Type (0, 0), BuildingBlock: AJUNOK_clean_linker_0, # of connection points: 2
#     Edge 53, Type (0, 0), BuildingBlock: AJUNOK_clean_linker_0, # of connection points: 2
#     Edge 54, Type (0, 0), BuildingBlock: AJUNOK_clean_linker_0, # of connection points: 2
#     Edge 55, Type (0, 0), BuildingBlock: AJUNOK_clean_linker_0, # of connection points: 2
#     Edge 56, Type (0, 0), BuildingBlock: AJUNOK_clean_linker_0, # of connection points: 2
#     Edge 57, Type (0, 0), BuildingBlock: AJUNOK_clean_linker_0, # of connection points: 2
#     Edge 58, Type (0, 0), BuildingBlock: AJUNOK_clean_linker_0, # of connection points: 2
#     Edge 59, Type (0, 0), BuildingBlock: AJUNOK_clean_linker_0, # of connection points: 2
#     Edge 60, Type (0, 0), BuildingBlock: AJUNOK_clean_linker_0, # of connection points: 2
#     Edge 61, Type (0, 0), BuildingBlock: AJUNOK_clean_linker_0, # of connection points: 2
#     Edge 62, Type (0, 0), BuildingBlock: AJUNOK_clean_linker_0, # of connection points: 2
#     Edge 63, Type (0, 0), BuildingBlock: AJUNOK_clean_linker_0, # of connection points: 2
#     Edge 64, Type (0, 0), BuildingBlock: AJUNOK_clean_linker_0, # of connection points: 2
#     Edge 65, Type (0, 0), BuildingBlock: AJUNOK_clean_linker_0, # of connection points: 2
#     Edge 66, Type (0, 0), BuildingBlock: AJUNOK_clean_linker_0, # of connection points: 2
#     Edge 67, Type (0, 0), BuildingBlock: AJUNOK_clean_linker_0, # of connection points: 2
#     Edge 68, Type (0, 0), BuildingBlock: AJUNOK_clean_linker_0, # of connection points: 2
#     Edge 69, Type (0, 0), BuildingBlock: AJUNOK_clean_linker_0, # of connection points: 2
#     Edge 70, Type (0, 0), BuildingBlock: AJUNOK_clean_linker_0, # of connection points: 2
#     Edge 71, Type (0, 0), BuildingBlock: AJUNOK_clean_linker_0, # of connection points: 2
#     Edge 72, Type (0, 0), BuildingBlock: AJUNOK_clean_linker_0, # of connection points: 2
#     Edge 73, Type (0, 0), BuildingBlock: AJUNOK_clean_linker_0, # of connection points: 2
#     Edge 74, Type (0, 0), BuildingBlock: AJUNOK_clean_linker_0, # of connection points: 2
#     Edge 75, Type (0, 0), BuildingBlock: AJUNOK_clean_linker_0, # of connection points: 2
#     Edge 76, Type (0, 0), BuildingBlock: AJUNOK_clean_linker_0, # of connection points: 2
#     Edge 77, Type (0, 0), BuildingBlock: AJUNOK_clean_linker_0, # of connection points: 2
#     Edge 78, Type (0, 0), BuildingBlock: AJUNOK_clean_linker_0, # of connection points: 2
#     Edge 79, Type (0, 0), BuildingBlock: AJUNOK_clean_linker_0, # of connection points: 2
# Relax obj value: 0.005
# Max RMSD: 0.010
# Mean RMSD: 0.010
data_MOF--net-utm--node1-WUSLED_clean_sbu_0--edge1-AJUNOK_clean_linker_0
_symmetry_space_group_name_H-M    P1
_symmetry_Int_Tables_number       1
_symmetry_cell_setting            triclinic
loop_
_symmetry_equiv_pos_as_xyz
'x, y, z'
_cell_length_a     84.269377
_cell_length_b     84.336289
_cell_length_c     65.999348
_cell_angle_alpha  89.919202
_cell_angle_beta   89.910378
_cell_angle_gamma 90.029785
loop_
_atom_site_label
_atom_site_type_symbol
_atom_site_fract_x
_atom_site_fract_y
_atom_site_fract_z
_atom_type_partial_charge
C0 C 0.16719 0.32127 0.14504 0.0
C1 C 0.16297 0.32769 0.12616 0.0
C2 C 0.14127 0.34238 0.14209 0.0
C3 C 0.14996 0.33811 0.12467 0.0
C4 C 0.14537 0.33557 0.16075 0.0
C5 C 0.15813 0.32509 0.16216 0.0
U6 U 0.20764 0.29517 0.14376 0.0
O7 O 0.22487 0.29903 0.16846 0.0
O8 O 0.2115 0.2763 0.16654 0.0
C9 C 0.22211 0.28491 0.1761 0.0
C10 C 0.18151 0.31154 0.14826 0.0
C11 C 0.23003 0.27931 0.19459 0.0
C12 C 0.23313 0.27994 0.23112 0.0
C13 C 0.22478 0.2843 0.21368 0.0
C14 C 0.25191 0.2653 0.21061 0.0
C15 C 0.24704 0.27075 0.22976 0.0
C16 C 0.24346 0.26958 0.19317 0.0
C17 C 0.22832 0.2868 0.08921 0.0
C18 C 0.25169 0.27765 0.07111 0.0
C19 C 0.22977 0.28935 0.0527 0.0
C20 C 0.22156 0.29145 0.07083 0.0
C21 C 0.24503 0.28263 0.05257 0.0
C22 C 0.24335 0.27969 0.08934 0.0
C23 C 0.21968 0.29045 0.10791 0.0
O24 O 0.18138 0.29612 0.14536 0.0
O25 O 0.19562 0.31814 0.14748 0.0
O26 O 0.22353 0.30277 0.11903 0.0
O27 O 0.20981 0.28029 0.11629 0.0
H28 H 0.16987 0.32496 0.11276 0.0
H29 H 0.14706 0.3433 0.11012 0.0
H30 H 0.13887 0.33862 0.17437 0.0
H31 H 0.16124 0.32029 0.17687 0.0
H32 H 0.22881 0.28396 0.24569 0.0
H33 H 0.21436 0.29174 0.21509 0.0
H34 H 0.26255 0.2582 0.20905 0.0
H35 H 0.24765 0.26564 0.17849 0.0
H36 H 0.26356 0.27277 0.07168 0.0
H37 H 0.2242 0.29317 0.03875 0.0
H38 H 0.20997 0.297 0.07052 0.0
H39 H 0.24878 0.27612 0.1035 0.0
C40 C 0.95483 0.91809 0.39836 0.0
C41 C 0.95055 0.91367 0.37859 0.0
C42 C 0.9341 0.89191 0.39205 0.0
C43 C 0.94047 0.90053 0.37546 0.0
C44 C 0.93888 0.89638 0.41164 0.0
C45 C 0.94916 0.90912 0.41466 0.0
U46 U 0.9806 0.95791 0.39403 0.0
O47 O 0.97848 0.97766 0.4157 0.0
O48 O 1.00067 0.96374 0.41433 0.0
C49 C 0.99308 0.97586 0.42226 0.0
C50 C 0.9646 0.93213 0.40343 0.0
C51 C 0.99751 0.98209 0.44238 0.0
C52 C 0.99727 0.98216 0.47931 0.0
C53 C 0.99349 0.97474 0.4608 0.0
C54 C 1.00924 1.004 0.46104 0.0
C55 C 1.00504 0.99701 0.47959 0.0
C56 C 1.00554 0.99662 0.44275 0.0
C57 C 0.98773 0.97591 0.33824 0.0
C58 C 0.99498 1.00057 0.3213 0.0
C59 C 0.98813 0.9774 0.30156 0.0
C60 C 0.98579 0.9688 0.3193 0.0
C61 C 0.9921 0.99357 0.30222 0.0
C62 C 0.99272 0.9918 0.33927 0.0
C63 C 0.98321 0.96628 0.35594 0.0
O64 O 0.97986 0.93202 0.3993 0.0
O65 O 0.95806 0.94622 0.40197 0.0
O66 O 0.97159 0.97113 0.36769 0.0
O67 O 0.99385 0.95742 0.36508 0.0
H68 H 0.95492 0.92033 0.36569 0.0
H69 H 0.93782 0.89717 0.36003 0.0
H70 H 0.93429 0.8904 0.42492 0.0
H71 H 0.95235 0.91228 0.43003 0.0
H72 H 0.9937 0.97651 0.49334 0.0
H73 H 0.98722 0.96353 0.46088 0.0
H74 H 0.01539 0.01527 0.46064 0.0
H75 H 1.00877 1.00248 0.42871 0.0
H76 H 0.99829 0.01294 0.32237 0.0
H77 H 0.98662 0.97133 0.28727 0.0
H78 H 0.9821 0.95652 0.3182 0.0
H79 H 0.99439 0.9975 0.3538 0.0
C80 C 0.35902 0.70407 0.64535 0.0
C81 C 0.36261 0.69775 0.62626 0.0
C82 C 0.3848 0.68272 0.64089 0.0
C83 C 0.37558 0.68741 0.62398 0.0
C84 C 0.38129 0.6896 0.65976 0.0
C85 C 0.36866 0.70019 0.66188 0.0
U86 U 0.31868 0.72998 0.6439 0.0
O87 O 0.30112 0.72626 0.66825 0.0
O88 O 0.31447 0.74902 0.66633 0.0
C89 C 0.3037 0.74045 0.67574 0.0
C90 C 0.34482 0.71374 0.64948 0.0
C91 C 0.29604 0.74569 0.69454 0.0
C92 C 0.29295 0.74452 0.73108 0.0
C93 C 0.30111 0.74013 0.71346 0.0
C94 C 0.27465 0.76006 0.71094 0.0
C95 C 0.27951 0.7544 0.73002 0.0
C96 C 0.28292 0.75582 0.69341 0.0
C97 C 0.29833 0.73844 0.5892 0.0
C98 C 0.27504 0.74836 0.57158 0.0
C99 C 0.29628 0.7359 0.5527 0.0
C100 C 0.30472 0.73369 0.57063 0.0
C101 C 0.28134 0.74332 0.55283 0.0
C102 C 0.28344 0.74585 0.58968 0.0
C103 C 0.30731 0.73447 0.6076 0.0
O104 O 0.3449 0.72912 0.64622 0.0
O105 O 0.33074 0.70712 0.64836 0.0
O106 O 0.30329 0.72223 0.61882 0.0
O107 O 0.31689 0.74474 0.61623 0.0
H108 H 0.35537 0.70068 0.61323 0.0
H109 H 0.37828 0.68307 0.60896 0.0
H110 H 0.3879 0.68639 0.67319 0.0
H111 H 0.36606 0.70495 0.67676 0.0
H112 H 0.2971 0.74009 0.74554 0.0
H113 H 0.31125 0.73229 0.7146 0.0
H114 H 0.26415 0.76736 0.70944 0.0
H115 H 0.2788 0.76011 0.67885 0.0
H116 H 0.26358 0.75413 0.57228 0.0
H117 H 0.30131 0.73122 0.53886 0.0
H118 H 0.31612 0.72777 0.57004 0.0
H119 H 0.27827 0.74953 0.60395 0.0
C120 C 0.57044 0.10789 0.8992 0.0
C121 C 0.57721 0.11116 0.88012 0.0
C122 C 0.5916 0.13376 0.89448 0.0
C123 C 0.58766 0.12414 0.87776 0.0
C124 C 0.58427 0.1307 0.91317 0.0
C125 C 0.57386 0.11796 0.91545 0.0
U126 U 0.54534 0.06765 0.89411 0.0
O127 O 0.54756 0.04792 0.91581 0.0
O128 O 0.52509 0.06127 0.91393 0.0
C129 C 0.53283 0.04934 0.92209 0.0
C130 C 0.56079 0.09365 0.90388 0.0
C131 C 0.52857 0.04359 0.94254 0.0
C132 C 0.53139 0.04258 0.97927 0.0
C133 C 0.53492 0.04982 0.96054 0.0
C134 C 0.51501 0.02321 0.96215 0.0
C135 C 0.52158 0.02908 0.98009 0.0
C136 C 0.51846 0.03041 0.94361 0.0
C137 C 0.53929 0.04921 0.83855 0.0
C138 C 0.52514 0.02787 0.82152 0.0
C139 C 0.54453 0.04346 0.80318 0.0
C140 C 0.54725 0.05248 0.82044 0.0
C141 C 0.53352 0.03095 0.80332 0.0
C142 C 0.52812 0.03685 0.83911 0.0
C143 C 0.54341 0.05933 0.85594 0.0
O144 O 0.54557 0.09355 0.89952 0.0
O145 O 0.56757 0.07967 0.90247 0.0
O146 O 0.55517 0.05501 0.86776 0.0
O147 O 0.53234 0.06767 0.86507 0.0
H148 H 0.57478 0.10352 0.86732 0.0
H149 H 0.59315 0.12625 0.86316 0.0
H150 H 0.58688 0.13799 0.92625 0.0
H151 H 0.56879 0.11568 0.93027 0.0
H152 H 0.53652 0.0473 0.99304 0.0
H153 H 0.54278 0.05998 0.96008 0.0
H154 H 0.50743 0.01283 0.96243 0.0
H155 H 0.51351 0.02538 0.9299 0.0
H156 H 0.51614 0.01873 0.82219 0.0
H157 H 0.55145 0.04617 0.78978 0.0
H158 H 0.55587 0.062 0.81969 0.0
H159 H 0.52171 0.03422 0.85295 0.0
C160 C 0.16802 0.70505 0.38197 0.0
C161 C 0.16643 0.69678 0.40036 0.0
C162 C 0.14233 0.68372 0.38779 0.0
C163 C 0.15358 0.68634 0.40332 0.0
C164 C 0.1438 0.69253 0.36981 0.0
C165 C 0.15641 0.70306 0.36702 0.0
U166 U 0.20819 0.72996 0.38642 0.0
O167 O 0.228 0.72762 0.36481 0.0
O168 O 0.21465 0.75015 0.36661 0.0
C169 C 0.22658 0.74234 0.35854 0.0
C170 C 0.18215 0.7146 0.37649 0.0
C171 C 0.23281 0.74684 0.33845 0.0
C172 C 0.23351 0.74607 0.30156 0.0
C173 C 0.2261 0.74199 0.32 0.0
C174 C 0.25439 0.75939 0.32003 0.0
C175 C 0.24783 0.75483 0.30134 0.0
C176 C 0.24684 0.75568 0.33821 0.0
C177 C 0.22662 0.73591 0.44202 0.0
C178 C 0.24706 0.75096 0.45965 0.0
C179 C 0.23297 0.72996 0.47703 0.0
C180 C 0.22404 0.72719 0.45971 0.0
C181 C 0.24467 0.74185 0.47745 0.0
C182 C 0.23821 0.74788 0.44196 0.0
C183 C 0.21645 0.73186 0.42462 0.0
O184 O 0.18231 0.72982 0.38075 0.0
O185 O 0.19614 0.70783 0.37793 0.0
O186 O 0.22069 0.72006 0.41284 0.0
O187 O 0.2082 0.74298 0.41546 0.0
H188 H 0.17522 0.69813 0.41218 0.0
H189 H 0.15258 0.6802 0.41768 0.0
H190 H 0.13553 0.69085 0.35746 0.0
H191 H 0.15745 0.70926 0.35268 0.0
H192 H 0.22806 0.74233 0.28751 0.0
H193 H 0.2153 0.73503 0.31986 0.0
H194 H 0.26571 0.76538 0.32084 0.0
H195 H 0.25232 0.75933 0.35229 0.0
H196 H 0.25546 0.76064 0.45936 0.0
H197 H 0.23082 0.72242 0.49002 0.0
H198 H 0.21509 0.71795 0.46011 0.0
H199 H 0.24029 0.75491 0.42846 0.0
C200 C 0.57175 0.91597 0.63606 0.0
C201 C 0.58065 0.91388 0.65383 0.0
C202 C 0.59305 0.89024 0.63941 0.0
C203 C 0.59125 0.90106 0.65548 0.0
C204 C 0.58384 0.89219 0.62193 0.0
C205 C 0.57331 0.90493 0.6203 0.0
U206 U 0.54626 0.95666 0.63715 0.0
O207 O 0.55043 0.97369 0.61229 0.0
O208 O 0.52728 0.96108 0.61474 0.0
C209 C 0.53621 0.97123 0.6048 0.0
C210 C 0.56216 0.93027 0.63207 0.0
C211 C 0.53077 0.97931 0.58635 0.0
C212 C 0.53427 0.98563 0.55075 0.0
C213 C 0.53883 0.97717 0.56802 0.0
C214 C 0.51289 0.99773 0.5697 0.0
C215 C 0.52142 0.99634 0.55134 0.0
C216 C 0.51767 0.98947 0.58706 0.0
C217 C 0.53802 0.97727 0.69179 0.0
C218 C 0.52636 0.99946 0.70995 0.0
C219 C 0.54217 0.98008 0.72795 0.0
C220 C 0.54447 0.97174 0.70997 0.0
C221 C 0.53301 0.99402 0.72829 0.0
C222 C 0.52889 0.99116 0.69179 0.0
C223 C 0.54181 0.9685 0.67319 0.0
O224 O 0.54673 0.93038 0.63511 0.0
O225 O 0.56894 0.94426 0.63311 0.0
O226 O 0.55423 0.97217 0.66207 0.0
O227 O 0.53142 0.959 0.66464 0.0
H228 H 0.57976 0.92235 0.6661 0.0
H229 H 0.59836 0.89981 0.66904 0.0
H230 H 0.5852 0.88416 0.60925 0.0
H231 H 0.56674 0.90649 0.60633 0.0
H232 H 0.54125 0.9841 0.53713 0.0
H233 H 0.54887 0.96918 0.56714 0.0
H234 H 0.50236 1.00499 0.57079 0.0
H235 H 0.51117 0.9911 0.60109 0.0
H236 H 0.51925 1.01014 0.70962 0.0
H237 H 0.54809 0.97581 0.74143 0.0
H238 H 0.55169 0.96111 0.71018 0.0
H239 H 0.52388 0.99565 0.67781 0.0
C240 C 0.35924 0.32022 0.88518 0.0
C241 C 0.36203 0.32791 0.90368 0.0
C242 C 0.38531 0.34119 0.8891 0.0
C243 C 0.37508 0.3382 0.90566 0.0
C244 C 0.3823 0.33331 0.87074 0.0
C245 C 0.36961 0.32281 0.86896 0.0
U246 U 0.31862 0.29488 0.8867 0.0
O247 O 0.30113 0.29873 0.86238 0.0
O248 O 0.31402 0.27574 0.8645 0.0
C249 C 0.30349 0.28448 0.85497 0.0
C250 C 0.34495 0.31074 0.88099 0.0
C251 C 0.29551 0.27918 0.83639 0.0
C252 C 0.29123 0.281 0.80007 0.0
C253 C 0.29962 0.28549 0.81745 0.0
C254 C 0.27488 0.26349 0.82037 0.0
C255 C 0.27852 0.27016 0.80133 0.0
C256 C 0.28324 0.26804 0.83771 0.0
C257 C 0.29843 0.28682 0.94152 0.0
C258 C 0.27535 0.27621 0.95901 0.0
C259 C 0.2956 0.29032 0.9778 0.0
C260 C 0.30423 0.29249 0.96 0.0
C261 C 0.28105 0.28234 0.9774 0.0
C262 C 0.28401 0.27848 0.94103 0.0
C263 C 0.30752 0.29076 0.92323 0.0
O264 O 0.34483 0.29535 0.88415 0.0
O265 O 0.33097 0.31755 0.88213 0.0
O266 O 0.30355 0.30298 0.91197 0.0
O267 O 0.31676 0.28026 0.91443 0.0
H268 H 0.35405 0.32618 0.91636 0.0
H269 H 0.37701 0.34396 0.9201 0.0
H270 H 0.38929 0.3357 0.85732 0.0
H271 H 0.36747 0.3172 0.85445 0.0
H272 H 0.29441 0.28638 0.78573 0.0
H273 H 0.30915 0.29407 0.81614 0.0
H274 H 0.26561 0.25469 0.82192 0.0
H275 H 0.28 0.26297 0.85223 0.0
H276 H 0.26405 0.2701 0.9585 0.0
H277 H 0.30012 0.29518 0.99184 0.0
H278 H 0.31532 0.29899 0.96059 0.0
H279 H 0.27934 0.27406 0.92684 0.0
C280 C 0.95487 0.10868 0.13501 0.0
C281 C 0.94764 0.11198 0.15373 0.0
C282 C 0.93395 0.13463 0.13864 0.0
C283 C 0.93726 0.12498 0.15554 0.0
C284 C 0.94149 0.13143 0.12018 0.0
C285 C 0.9519 0.11865 0.11844 0.0
U286 U 0.98063 0.06825 0.13693 0.0
O287 O 0.9769 0.05026 0.11308 0.0
O288 O 0.99937 0.06415 0.11403 0.0
C289 C 0.99072 0.05339 0.10479 0.0
C290 C 0.96446 0.09438 0.13114 0.0
C291 C 0.99642 0.045 0.08669 0.0
C292 C 0.99982 0.04381 0.05015 0.0
C293 C 0.9955 0.0522 0.0676 0.0
C294 C 1.00589 0.02085 0.07076 0.0
C295 C 1.005 0.02794 0.05142 0.0
C296 C 1.00178 0.02935 0.0882 0.0
C297 C 0.98903 0.04819 0.19175 0.0
C298 C 0.99818 0.02432 0.20877 0.0
C299 C 0.98691 0.04585 0.22833 0.0
C300 C 0.98469 0.05453 0.21056 0.0
C301 C 0.99351 0.03064 0.22757 0.0
C302 C 0.99599 0.03309 0.19088 0.0
C303 C 0.98493 0.0574 0.17358 0.0
O304 O 0.97986 0.09442 0.13427 0.0
O305 O 0.95778 0.08035 0.13241 0.0
O306 O 0.97276 0.05324 0.16236 0.0
O307 O 0.99537 0.06666 0.16461 0.0
H308 H 0.94967 0.10435 0.16667 0.0
H309 H 0.93137 0.12718 0.16986 0.0
H310 H 0.93897 0.13858 0.10692 0.0
H311 H 0.95726 0.11621 0.10384 0.0
H312 H 0.99906 0.04978 0.03566 0.0
H313 H 0.99124 0.06426 0.06615 0.0
H314 H 1.00916 1.00854 0.07252 0.0
H315 H 1.00237 0.02354 0.10283 0.0
H316 H 1.0031 1.01247 0.20793 0.0
H317 H 0.98295 0.05079 0.24262 0.0
H318 H 0.97915 0.0661 0.21146 0.0
H319 H 0.99931 0.02796 0.17645 0.0
C320 C 0.86335 0.70919 0.88851 0.0
C321 C 0.87062 0.70539 0.90702 0.0
C322 C 0.88988 0.68868 0.88946 0.0
C323 C 0.88386 0.69524 0.90749 0.0
C324 C 0.88279 0.69286 0.87097 0.0
C325 C 0.8697 0.70305 0.87051 0.0
U326 U 0.82218 0.73477 0.8896 0.0
O327 O 0.81904 0.75295 0.86562 0.0
O328 O 0.80566 0.73026 0.86441 0.0
C329 C 0.80906 0.74384 0.8557 0.0
C330 C 0.84851 0.71846 0.88763 0.0
C331 C 0.79979 0.74963 0.83833 0.0
C332 C 0.7975 0.75243 0.80181 0.0
C333 C 0.80633 0.74825 0.81891 0.0
C334 C 0.77541 0.75967 0.82337 0.0
C335 C 0.78186 0.75807 0.80374 0.0
C336 C 0.78432 0.7555 0.84054 0.0
C337 C 0.80032 0.74338 0.94352 0.0
C338 C 0.78032 0.75745 0.96301 0.0
C339 C 0.79495 0.73583 0.9783 0.0
C340 C 0.80345 0.73379 0.96032 0.0
C341 C 0.78326 0.74772 0.97996 0.0
C342 C 0.78878 0.75528 0.94495 0.0
C343 C 0.80827 0.74017 0.92417 0.0
O344 O 0.8345 0.71168 0.88707 0.0
O345 O 0.84841 0.73395 0.88987 0.0
O346 O 0.81834 0.75029 0.91608 0.0
O347 O 0.80576 0.7271 0.91386 0.0
H348 H 0.86582 0.7099 0.92111 0.0
H349 H 0.88901 0.69204 0.92194 0.0
H350 H 0.88717 0.6879 0.8569 0.0
H351 H 0.86423 0.70579 0.85608 0.0
H352 H 0.80294 0.75116 0.78703 0.0
H353 H 0.81823 0.74366 0.81692 0.0
H354 H 0.7633 0.7636 0.82549 0.0
H355 H 0.77902 0.75652 0.85544 0.0
H356 H 0.77144 0.76671 0.96367 0.0
H357 H 0.79716 0.72763 0.99059 0.0
H358 H 0.81222 0.72442 0.95938 0.0
H359 H 0.7861 0.76269 0.93198 0.0
C360 C 0.06578 0.1133 0.63463 0.0
C361 C 0.07425 0.11629 0.65257 0.0
C362 C 0.08681 0.13971 0.63704 0.0
C363 C 0.08463 0.12941 0.65377 0.0
C364 C 0.0775 0.13702 0.61969 0.0
C365 C 0.06735 0.12395 0.61846 0.0
U366 U 0.04083 0.07256 0.64003 0.0
O367 O 0.02131 0.06615 0.61916 0.0
O368 O 0.04394 0.05288 0.61839 0.0
C369 C 0.02941 0.05427 0.61145 0.0
C370 C 0.05632 0.09873 0.63088 0.0
C371 C 0.02522 0.04755 0.59152 0.0
C372 C 0.02501 0.04719 0.55457 0.0
C373 C 0.02853 0.05499 0.57292 0.0
C374 C 0.01442 0.02493 0.57339 0.0
C375 C 0.01825 0.03186 0.55464 0.0
C376 C 0.01799 0.03261 0.59151 0.0
C377 C 0.03332 0.05304 0.69468 0.0
C378 C 0.0208 0.02952 0.70908 0.0
C379 C 0.03668 0.04667 0.73029 0.0
C380 C 0.03941 0.05662 0.71381 0.0
C381 C 0.02751 0.03285 0.72827 0.0
C382 C 0.02385 0.03945 0.69231 0.0
C383 C 0.03793 0.06382 0.67806 0.0
O384 O 0.06321 0.08484 0.63283 0.0
O385 O 0.04099 0.09853 0.63461 0.0
O386 O 0.02703 0.07214 0.66858 0.0
O387 O 0.05007 0.05985 0.66665 0.0
H388 H 0.07324 0.10827 0.66533 0.0
H389 H 0.09143 0.13111 0.6675 0.0
H390 H 0.07804 0.14498 0.60685 0.0
H391 H 0.06089 0.12197 0.6045 0.0
H392 H 0.02799 0.05295 0.54039 0.0
H393 H 0.03404 0.06659 0.57257 0.0
H394 H 1.00864 0.01348 0.57414 0.0
H395 H 0.01519 0.02674 0.60569 0.0
H396 H 0.01316 0.01935 0.70696 0.0
H397 H 0.04225 0.04967 0.74454 0.0
H398 H 0.04672 0.06705 0.71595 0.0
H399 H 0.0189 0.03651 0.67765 0.0
C400 C 0.6628 0.31642 0.38482 0.0
C401 C 0.65658 0.32009 0.40407 0.0
C402 C 0.63646 0.33726 0.38851 0.0
C403 C 0.64341 0.3304 0.40587 0.0
C404 C 0.64257 0.33323 0.36944 0.0
C405 C 0.65548 0.32292 0.36765 0.0
U406 U 0.70325 0.29087 0.39028 0.0
O407 O 0.70945 0.27121 0.36949 0.0
O408 O 0.72282 0.29374 0.36839 0.0
C409 C 0.72135 0.2792 0.36157 0.0
C410 C 0.67719 0.3066 0.38126 0.0
C411 C 0.72752 0.27521 0.34126 0.0
C412 C 0.72842 0.2776 0.30448 0.0
C413 C 0.72092 0.28086 0.32311 0.0
C414 C 0.7487 0.2627 0.32206 0.0
C415 C 0.74254 0.26855 0.30375 0.0
C416 C 0.74134 0.26605 0.34048 0.0
C417 C 0.72314 0.2837 0.44489 0.0
C418 C 0.74441 0.26854 0.46079 0.0
C419 C 0.73094 0.2891 0.47962 0.0
C420 C 0.72127 0.29209 0.46298 0.0
C421 C 0.74278 0.27737 0.47894 0.0
C422 C 0.73476 0.27178 0.44381 0.0
C423 C 0.71232 0.28813 0.42818 0.0
O424 O 0.69123 0.3133 0.38259 0.0
O425 O 0.6772 0.29137 0.38562 0.0
O426 O 0.70393 0.27719 0.4189 0.0
O427 O 0.71615 0.30025 0.41666 0.0
H428 H 0.66202 0.31527 0.4176 0.0
H429 H 0.639 0.33344 0.42079 0.0
H430 H 0.63754 0.33835 0.35583 0.0
H431 H 0.66004 0.32029 0.35267 0.0
H432 H 0.72345 0.28266 0.29083 0.0
H433 H 0.71029 0.28807 0.32337 0.0
H434 H 0.75933 0.2555 0.32224 0.0
H435 H 0.74665 0.26162 0.35432 0.0
H436 H 0.75292 0.25898 0.4597 0.0
H437 H 0.7293 0.29639 0.49294 0.0
H438 H 0.71231 0.30126 0.4642 0.0
H439 H 0.73632 0.26499 0.43004 0.0
C440 C 0.45931 0.91175 0.13649 0.0
C441 C 0.45633 0.90417 0.1551 0.0
C442 C 0.43863 0.88528 0.13827 0.0
C443 C 0.44611 0.89094 0.15595 0.0
C444 C 0.44205 0.89272 0.11974 0.0
C445 C 0.45229 0.90573 0.11888 0.0
U446 U 0.48528 0.9525 0.13932 0.0
O447 O 0.50378 0.95651 0.11599 0.0
O448 O 0.48127 0.9703 0.1153 0.0
C449 C 0.49501 0.96722 0.10679 0.0
C450 C 0.46892 0.92634 0.13454 0.0
C451 C 0.50058 0.97591 0.08879 0.0
C452 C 0.50446 0.97726 0.05229 0.0
C453 C 0.50039 0.96862 0.06969 0.0
C454 C 0.50915 1.00051 0.07294 0.0
C455 C 0.50872 0.99331 0.05377 0.0
C456 C 0.50511 0.99186 0.09033 0.0
C457 C 0.4936 0.97401 0.1932 0.0
C458 C 0.50809 0.9952 0.21001 0.0
C459 C 0.48783 0.98065 0.22821 0.0
C460 C 0.48519 0.97133 0.21115 0.0
C461 C 0.49916 0.99289 0.22796 0.0
C462 C 0.5052 0.98594 0.19266 0.0
C463 C 0.4894 0.96409 0.17566 0.0
O464 O 0.46225 0.9404 0.13496 0.0
O465 O 0.48431 0.9263 0.13777 0.0
O466 O 0.50004 0.95504 0.16678 0.0
O467 O 0.47701 0.96761 0.16448 0.0
H468 H 0.4616 0.90865 0.16891 0.0
H469 H 0.44361 0.88549 0.17048 0.0
H470 H 0.43658 0.88858 0.10588 0.0
H471 H 0.45447 0.91136 0.10437 0.0
H472 H 0.50394 0.97153 0.03762 0.0
H473 H 0.49675 0.95636 0.06819 0.0
H474 H 0.51243 0.01287 0.0744 0.0
H475 H 0.50527 0.99768 0.10495 0.0
H476 H 0.51739 1.00403 0.20931 0.0
H477 H 0.48057 0.97848 0.24147 0.0
H478 H 0.47624 0.96211 0.21187 0.0
H479 H 0.51196 0.9881 0.17896 0.0
C480 C 0.86264 0.31568 0.64543 0.0
C481 C 0.86747 0.32059 0.62603 0.0
C482 C 0.88903 0.33647 0.6409 0.0
C483 C 0.88069 0.33073 0.62379 0.0
C484 C 0.88427 0.331 0.6601 0.0
C485 C 0.87137 0.32073 0.66226 0.0
U486 U 0.82227 0.29046 0.63994 0.0
O487 O 0.8159 0.27073 0.66059 0.0
O488 O 0.8025 0.29323 0.66152 0.0
C489 C 0.80396 0.27868 0.6684 0.0
C490 C 0.84825 0.30607 0.64952 0.0
C491 C 0.79808 0.27488 0.6889 0.0
C492 C 0.79751 0.27766 0.72563 0.0
C493 C 0.80483 0.28077 0.70683 0.0
C494 C 0.77716 0.26243 0.70866 0.0
C495 C 0.78344 0.26854 0.72674 0.0
C496 C 0.78433 0.26564 0.69007 0.0
C497 C 0.80324 0.28283 0.58499 0.0
C498 C 0.77922 0.27154 0.57026 0.0
C499 C 0.79825 0.28501 0.54885 0.0
C500 C 0.80785 0.28778 0.56563 0.0
C501 C 0.78382 0.27678 0.55075 0.0
C502 C 0.78884 0.27459 0.58731 0.0
C503 C 0.81373 0.28758 0.60186 0.0
O504 O 0.83429 0.31284 0.64767 0.0
O505 O 0.8482 0.29082 0.64538 0.0
O506 O 0.82226 0.27683 0.61132 0.0
O507 O 0.80946 0.29957 0.6133 0.0
H508 H 0.86101 0.31675 0.61274 0.0
H509 H 0.88429 0.33406 0.60863 0.0
H510 H 0.89016 0.33509 0.67369 0.0
H511 H 0.86787 0.31708 0.67737 0.0
H512 H 0.80256 0.2829 0.73912 0.0
H513 H 0.81541 0.28805 0.70625 0.0
H514 H 0.76657 0.25516 0.70877 0.0
H515 H 0.77892 0.26102 0.67641 0.0
H516 H 0.76817 0.26519 0.57236 0.0
H517 H 0.80199 0.28992 0.53446 0.0
H518 H 0.81881 0.29431 0.56353 0.0
H519 H 0.78498 0.27071 0.60217 0.0
C520 C 0.45918 0.11327 0.39211 0.0
C521 C 0.4567 0.1207 0.37337 0.0
C522 C 0.43875 0.13995 0.38938 0.0
C523 C 0.44674 0.13405 0.37207 0.0
C524 C 0.44186 0.13266 0.40813 0.0
C525 C 0.45197 0.11957 0.40945 0.0
U526 U 0.48518 0.07265 0.38971 0.0
O527 O 0.50344 0.06899 0.41331 0.0
O528 O 0.48112 0.05482 0.4137 0.0
C529 C 0.49472 0.05815 0.42239 0.0
C530 C 0.46876 0.09873 0.39451 0.0
C531 C 0.50009 0.04987 0.44073 0.0
C532 C 0.50637 0.05017 0.47659 0.0
C533 C 0.50231 0.0582 0.45877 0.0
C534 C 0.50549 0.0253 0.45856 0.0
C535 C 0.50747 0.0334 0.47718 0.0
C536 C 0.50206 0.03344 0.44062 0.0
C537 C 0.49409 0.05127 0.33582 0.0
C538 C 0.50544 0.02797 0.3196 0.0
C539 C 0.49067 0.04703 0.29973 0.0
C540 C 0.48828 0.05619 0.31702 0.0
C541 C 0.49935 0.03281 0.30065 0.0
C542 C 0.50276 0.0371 0.33711 0.0
C543 C 0.48982 0.06094 0.35355 0.0
O544 O 0.46211 0.08467 0.39385 0.0
O545 O 0.48416 0.09882 0.39126 0.0
O546 O 0.50023 0.07028 0.36236 0.0
O547 O 0.47741 0.05724 0.36466 0.0
H548 H 0.46232 0.11615 0.35981 0.0
H549 H 0.44534 0.1397 0.35745 0.0
H550 H 0.43604 0.13668 0.42182 0.0
H551 H 0.45385 0.11407 0.42409 0.0
H552 H 0.50903 0.0575 0.48947 0.0
H553 H 0.50095 0.07098 0.45909 0.0
H554 H 0.50597 1.01255 0.45757 0.0
H555 H 0.50044 0.02681 0.42673 0.0
H556 H 0.51217 0.01708 0.32092 0.0
H557 H 0.48516 0.05091 0.28579 0.0
H558 H 0.48138 0.06699 0.31578 0.0
H559 H 0.50727 0.03303 0.35157 0.0
C560 C 0.66223 0.70939 0.14364 0.0
C561 C 0.65807 0.7028 0.12488 0.0
C562 C 0.63581 0.68866 0.14077 0.0
C563 C 0.6449 0.69258 0.12345 0.0
C564 C 0.64005 0.69557 0.15937 0.0
C565 C 0.65297 0.70588 0.1607 0.0
U566 U 0.70302 0.73486 0.14112 0.0
O567 O 0.70727 0.75335 0.16423 0.0
O568 O 0.72109 0.73085 0.16479 0.0
C569 C 0.71805 0.74458 0.17329 0.0
C570 C 0.67671 0.7189 0.14687 0.0
C571 C 0.72658 0.75007 0.19138 0.0
C572 C 0.72727 0.7545 0.22772 0.0
C573 C 0.71882 0.75071 0.21014 0.0
C574 C 0.75124 0.75755 0.20782 0.0
C575 C 0.74361 0.75794 0.22679 0.0
C576 C 0.74281 0.75356 0.19029 0.0
C577 C 0.72412 0.74349 0.08719 0.0
C578 C 0.74798 0.75463 0.07206 0.0
C579 C 0.72908 0.74055 0.05116 0.0
C580 C 0.71946 0.73814 0.06806 0.0
C581 C 0.74363 0.74857 0.05289 0.0
C582 C 0.73838 0.75192 0.08918 0.0
C583 C 0.71394 0.73904 0.10439 0.0
O584 O 0.69069 0.7121 0.14564 0.0
O585 O 0.6768 0.73429 0.14368 0.0
O586 O 0.70501 0.74966 0.11351 0.0
O587 O 0.71776 0.72674 0.1156 0.0
H588 H 0.66511 0.70529 0.11151 0.0
H589 H 0.64197 0.68757 0.10883 0.0
H590 H 0.63381 0.69253 0.17319 0.0
H591 H 0.65611 0.7107 0.17537 0.0
H592 H 0.72108 0.75431 0.24211 0.0
H593 H 0.70633 0.74781 0.2113 0.0
H594 H 0.76377 0.76024 0.20655 0.0
H595 H 0.749 0.75305 0.1759 0.0
H596 H 0.75878 0.76141 0.07391 0.0
H597 H 0.72531 0.73559 0.03683 0.0
H598 H 0.70848 0.7316 0.06626 0.0
H599 H 0.74214 0.75625 0.10385 0.0
C600 C 0.06681 0.91205 0.8922 0.0
C601 C 0.06962 0.90403 0.87392 0.0
C602 C 0.08727 0.88549 0.89132 0.0
C603 C 0.07977 0.8908 0.87349 0.0
C604 C 0.08398 0.89335 0.9096 0.0
C605 C 0.07388 0.90647 0.91002 0.0
U606 U 0.04093 0.95291 0.89017 0.0
O607 O 0.02266 0.95619 0.914 0.0
O608 O 0.04509 0.97016 0.91466 0.0
C609 C 0.03143 0.96683 0.92328 0.0
C610 C 0.05745 0.9268 0.89313 0.0
C611 C 0.02601 0.9753 0.94146 0.0
C612 C 0.02132 0.97559 0.97776 0.0
C613 C 0.02518 0.96734 0.96006 0.0
C614 C 0.01866 0.99982 0.95835 0.0
C615 C 0.01832 0.99201 0.97721 0.0
C616 C 0.02257 0.99154 0.94064 0.0
C617 C 0.03229 0.97452 0.83623 0.0
C618 C 0.0191 0.99599 0.81836 0.0
C619 C 0.03817 0.9795 0.80082 0.0
C620 C 0.0404 0.97064 0.81843 0.0
C621 C 0.02744 0.99228 0.80042 0.0
C622 C 0.02156 0.98721 0.83617 0.0
C623 C 0.03615 0.96564 0.85471 0.0
O624 O 0.06413 0.94085 0.89348 0.0
O625 O 0.04198 0.92674 0.89057 0.0
O626 O 0.02581 0.95601 0.8632 0.0
O627 O 0.04878 0.96892 0.86556 0.0
H628 H 0.06433 0.90823 0.85996 0.0
H629 H 0.0822 0.88511 0.85912 0.0
H630 H 0.08945 0.88948 0.9236 0.0
H631 H 0.07184 0.91249 0.92427 0.0
H632 H 0.02069 0.96908 0.99189 0.0
H633 H 0.0278 0.95478 0.96095 0.0
H634 H 0.01639 1.01243 0.95735 0.0
H635 H 0.02316 0.99788 0.92637 0.0
H636 H 1.01074 1.00573 0.81868 0.0
H637 H 0.04538 0.97662 0.78777 0.0
H638 H 0.04888 0.96099 0.8183 0.0
H639 H 0.01527 0.99044 0.84988 0.0
C640 C 0.66792 0.82024 0.64792 0.0
C641 C 0.6669 0.82931 0.63008 0.0
C642 C 0.64225 0.84149 0.64221 0.0
C643 C 0.65412 0.83984 0.62724 0.0
C644 C 0.64308 0.83191 0.65956 0.0
C645 C 0.65576 0.82146 0.66236 0.0
U646 U 0.70784 0.79512 0.64311 0.0
O647 O 0.72811 0.79727 0.66398 0.0
O648 O 0.71436 0.775 0.66296 0.0
C649 C 0.72657 0.78265 0.67057 0.0
C650 C 0.68205 0.81075 0.65353 0.0
C651 C 0.73242 0.77864 0.69101 0.0
C652 C 0.73125 0.77845 0.7279 0.0
C653 C 0.72434 0.78221 0.70905 0.0
C654 C 0.75422 0.76778 0.71065 0.0
C655 C 0.74649 0.77143 0.72895 0.0
C656 C 0.74722 0.77121 0.69205 0.0
C657 C 0.72558 0.78821 0.58749 0.0
C658 C 0.75018 0.77871 0.57238 0.0
C659 C 0.7294 0.78939 0.55103 0.0
C660 C 0.72003 0.79201 0.5681 0.0
C661 C 0.74458 0.78289 0.55301 0.0
C662 C 0.74068 0.78132 0.58963 0.0
C663 C 0.71539 0.79289 0.60463 0.0
O664 O 0.68208 0.79546 0.64964 0.0
O665 O 0.69608 0.81741 0.65164 0.0
O666 O 0.72014 0.80458 0.61627 0.0
O667 O 0.70698 0.78205 0.61412 0.0
H668 H 0.67615 0.82862 0.6187 0.0
H669 H 0.65369 0.84696 0.61358 0.0
H670 H 0.63423 0.83297 0.6714 0.0
H671 H 0.65637 0.8147 0.6763 0.0
H672 H 0.72456 0.78093 0.74153 0.0
H673 H 0.71281 0.78785 0.7086 0.0
H674 H 0.76596 0.76259 0.71057 0.0
H675 H 0.75364 0.76834 0.6783 0.0
H676 H 0.76199 0.77383 0.57415 0.0
H677 H 0.72499 0.79293 0.53629 0.0
H678 H 0.70849 0.79746 0.56617 0.0
H679 H 0.74524 0.77838 0.6045 0.0
C680 C 0.45495 0.41646 0.89591 0.0
C681 C 0.44894 0.41214 0.87685 0.0
C682 C 0.43417 0.39038 0.89251 0.0
C683 C 0.43868 0.39903 0.87515 0.0
C684 C 0.44052 0.3946 0.91133 0.0
C685 C 0.45087 0.40743 0.91296 0.0
U686 U 0.48044 0.45708 0.8939 0.0
O687 O 0.47653 0.47454 0.9183 0.0
O688 O 0.49948 0.46154 0.91627 0.0
C689 C 0.49072 0.47202 0.92587 0.0
C690 C 0.46445 0.43083 0.89946 0.0
C691 C 0.4962 0.48014 0.94428 0.0
C692 C 0.49472 0.48446 0.98063 0.0
C693 C 0.49016 0.47598 0.96335 0.0
C694 C 0.51177 0.50102 0.96 0.0
C695 C 0.50536 0.49731 0.97917 0.0
C696 C 0.50716 0.49257 0.94274 0.0
C697 C 0.48878 0.47749 0.83929 0.0
C698 C 0.49439 0.5024 0.82221 0.0
C699 C 0.49011 0.47858 0.8026 0.0
C700 C 0.48769 0.47006 0.82045 0.0
C701 C 0.49325 0.49499 0.80302 0.0
C702 C 0.49241 0.49368 0.84017 0.0
C703 C 0.48471 0.46809 0.85731 0.0
O704 O 0.47986 0.4309 0.89634 0.0
O705 O 0.45766 0.44481 0.89832 0.0
O706 O 0.47263 0.47226 0.86873 0.0
O707 O 0.4951 0.45867 0.86603 0.0
H708 H 0.45188 0.41903 0.8635 0.0
H709 H 0.43384 0.39599 0.86047 0.0
H710 H 0.43726 0.3881 0.92488 0.0
H711 H 0.45536 0.41062 0.92779 0.0
H712 H 0.48952 0.48122 0.99507 0.0
H713 H 0.48173 0.46635 0.96484 0.0
H714 H 0.52042 0.51042 0.95828 0.0
H715 H 0.51201 0.49586 0.92812 0.0
H716 H 0.49602 0.51505 0.82362 0.0
H717 H 0.48944 0.47214 0.78847 0.0
H718 H 0.48477 0.45756 0.81949 0.0
H719 H 0.49311 0.49967 0.85465 0.0
C720 C 0.8588 0.20454 0.14464 0.0
C721 C 0.86092 0.19606 0.12658 0.0
C722 C 0.88456 0.18323 0.14068 0.0
C723 C 0.87383 0.18564 0.12453 0.0
C724 C 0.88259 0.19224 0.15838 0.0
C725 C 0.8699 0.20279 0.16027 0.0
U726 U 0.81828 0.23018 0.14384 0.0
O727 O 0.80101 0.22619 0.16857 0.0
O728 O 0.81421 0.24903 0.16649 0.0
C729 C 0.80392 0.24021 0.17638 0.0
C730 C 0.84455 0.21408 0.14893 0.0
C731 C 0.79569 0.24597 0.19456 0.0
C732 C 0.7921 0.24526 0.23106 0.0
C733 C 0.80057 0.24083 0.21373 0.0
C734 C 0.77405 0.2605 0.21022 0.0
C735 C 0.77852 0.25492 0.22953 0.0
C736 C 0.78249 0.25596 0.19287 0.0
C737 C 0.79784 0.23836 0.08902 0.0
C738 C 0.77358 0.24362 0.07033 0.0
C739 C 0.79823 0.23936 0.0523 0.0
C740 C 0.80612 0.23734 0.0707 0.0
C741 C 0.78173 0.24201 0.05176 0.0
C742 C 0.78157 0.24181 0.08881 0.0
C743 C 0.80634 0.23502 0.10796 0.0
O744 O 0.84453 0.2295 0.14596 0.0
O745 O 0.83051 0.20738 0.14777 0.0
O746 O 0.80245 0.22273 0.11918 0.0
O747 O 0.81642 0.24504 0.11615 0.0
H748 H 0.8525 0.19725 0.1143 0.0
H749 H 0.87526 0.1793 0.11039 0.0
H750 H 0.8905 0.19071 0.17114 0.0
H751 H 0.86839 0.20917 0.17439 0.0
H752 H 0.79593 0.24072 0.2456 0.0
H753 H 0.81077 0.23312 0.21526 0.0
H754 H 0.76405 0.26841 0.20845 0.0
H755 H 0.7786 0.2601 0.17814 0.0
H756 H 0.76091 0.24573 0.07063 0.0
H757 H 0.80518 0.23885 0.03852 0.0
H758 H 0.81872 0.23481 0.07062 0.0
H759 H 0.775 0.24275 0.10287 0.0
C760 C 0.0717 0.60915 0.39464 0.0
C761 C 0.07896 0.61264 0.37599 0.0
C762 C 0.09286 0.63501 0.39141 0.0
C763 C 0.08944 0.62559 0.37437 0.0
C764 C 0.08534 0.6316 0.40985 0.0
C765 C 0.0748 0.61886 0.41139 0.0
U766 U 0.04573 0.56866 0.39335 0.0
O767 O 0.04974 0.55143 0.41807 0.0
O768 O 0.02693 0.56469 0.41618 0.0
C769 C 0.03573 0.55435 0.42595 0.0
C770 C 0.06199 0.59485 0.39812 0.0
C771 C 0.03002 0.54619 0.44419 0.0
C772 C 0.03059 0.54274 0.48071 0.0
C773 C 0.03498 0.55123 0.46337 0.0
C774 C 0.01573 0.5244 0.45985 0.0
C775 C 0.02118 0.529 0.47914 0.0
C776 C 0.02022 0.53285 0.44251 0.0
C777 C 0.03735 0.54803 0.33871 0.0
C778 C 0.02625 0.52562 0.32037 0.0
C779 C 0.0419 0.54533 0.30257 0.0
C780 C 0.04388 0.55372 0.3206 0.0
C781 C 0.03322 0.53115 0.30232 0.0
C782 C 0.02834 0.53402 0.33855 0.0
C783 C 0.04106 0.55657 0.35751 0.0
O784 O 0.04657 0.59491 0.39509 0.0
O785 O 0.06864 0.58079 0.39721 0.0
O786 O 0.05351 0.55293 0.36852 0.0
O787 O 0.03083 0.5663 0.36598 0.0
H788 H 0.07685 0.60519 0.36291 0.0
H789 H 0.09528 0.62794 0.36005 0.0
H790 H 0.08792 0.63858 0.42321 0.0
H791 H 0.06944 0.61627 0.42596 0.0
H792 H 0.03499 0.54664 0.49528 0.0
H793 H 0.04255 0.56155 0.46489 0.0
H794 H 1.00803 0.51422 0.4581 0.0
H795 H 0.01623 0.52885 0.42779 0.0
H796 H 0.01973 0.51455 0.32051 0.0
H797 H 0.04752 0.54969 0.28888 0.0
H798 H 0.05092 0.56447 0.32049 0.0
H799 H 0.02329 0.5294 0.35246 0.0
C800 C 0.66698 0.204 0.88444 0.0
C801 C 0.66265 0.19887 0.90389 0.0
C802 C 0.64106 0.18284 0.88948 0.0
C803 C 0.64961 0.18861 0.90642 0.0
C804 C 0.64535 0.18853 0.8702 0.0
C805 C 0.65801 0.19903 0.86779 0.0
U806 U 0.70722 0.22996 0.88635 0.0
O807 O 0.72514 0.22644 0.86235 0.0
O808 O 0.71172 0.24914 0.8641 0.0
C809 C 0.7226 0.24064 0.85484 0.0
C810 C 0.68115 0.21371 0.88013 0.0
C811 C 0.73056 0.24607 0.83626 0.0
C812 C 0.7341 0.2454 0.79974 0.0
C813 C 0.7256 0.24094 0.81711 0.0
C814 C 0.75222 0.26057 0.82052 0.0
C815 C 0.74772 0.25504 0.80124 0.0
C816 C 0.74379 0.25602 0.83783 0.0
C817 C 0.72746 0.23834 0.94095 0.0
C818 C 0.75187 0.24693 0.95724 0.0
C819 C 0.73 0.23714 0.9776 0.0
C820 C 0.7211 0.23482 0.96005 0.0
C821 C 0.74553 0.243 0.97635 0.0
C822 C 0.74286 0.24465 0.93957 0.0
C823 C 0.71788 0.23404 0.92316 0.0
O824 O 0.68106 0.22906 0.88358 0.0
O825 O 0.69523 0.20712 0.88129 0.0
O826 O 0.72214 0.222 0.91176 0.0
O827 O 0.7086 0.24445 0.91426 0.0
H828 H 0.66934 0.20268 0.91702 0.0
H829 H 0.6463 0.18524 0.92167 0.0
H830 H 0.63931 0.18446 0.85672 0.0
H831 H 0.66117 0.20289 0.85264 0.0
H832 H 0.73025 0.24091 0.78519 0.0
H833 H 0.71536 0.23327 0.81561 0.0
H834 H 0.76223 0.26848 0.8223 0.0
H835 H 0.74771 0.26016 0.85253 0.0
H836 H 0.76388 0.2514 0.956 0.0
H837 H 0.72496 0.23382 0.99211 0.0
H838 H 0.7093 0.22981 0.96138 0.0
H839 H 0.74801 0.2474 0.92493 0.0
C840 C 0.07127 0.41778 0.13201 0.0
C841 C 0.07805 0.41511 0.15113 0.0
C842 C 0.09245 0.39194 0.1379 0.0
C843 C 0.08835 0.40214 0.15413 0.0
C844 C 0.08512 0.39457 0.11907 0.0
C845 C 0.07464 0.40719 0.11627 0.0
U846 U 0.04591 0.45768 0.13688 0.0
O847 O 0.04788 0.4775 0.11531 0.0
O848 O 0.02556 0.4639 0.11724 0.0
C849 C 0.03319 0.4759 0.10902 0.0
C850 C 0.06162 0.43189 0.12683 0.0
C851 C 0.02908 0.48123 0.08837 0.0
C852 C 0.03365 0.48332 0.052 0.0
C853 C 0.03698 0.47613 0.0708 0.0
C854 C 0.01421 0.50019 0.06819 0.0
C855 C 0.02234 0.49564 0.05052 0.0
C856 C 0.0176 0.49314 0.08679 0.0
C857 C 0.0392 0.47546 0.19278 0.0
C858 C 0.02965 0.49947 0.20934 0.0
C859 C 0.041 0.47821 0.22927 0.0
C860 C 0.04336 0.46938 0.21175 0.0
C861 C 0.03459 0.49354 0.22831 0.0
C862 C 0.03202 0.49049 0.19157 0.0
C863 C 0.04363 0.46572 0.17513 0.0
O864 O 0.04637 0.43186 0.13105 0.0
O865 O 0.06827 0.44592 0.12846 0.0
O866 O 0.05525 0.47052 0.16332 0.0
O867 O 0.03285 0.45705 0.16597 0.0
H868 H 0.07556 0.42306 0.1636 0.0
H869 H 0.0931 0.40021 0.16915 0.0
H870 H 0.0879 0.38722 0.10612 0.0
H871 H 0.06955 0.40903 0.10139 0.0
H872 H 0.04044 0.47967 0.03888 0.0
H873 H 0.04602 0.46703 0.0717 0.0
H874 H 1.00527 0.5094 0.06774 0.0
H875 H 1.01143 0.49731 0.10018 0.0
H876 H 0.02458 0.51124 0.20819 0.0
H877 H 0.04453 0.47311 0.24364 0.0
H878 H 0.04882 0.45779 0.21301 0.0
H879 H 0.02867 0.4954 0.17703 0.0
C880 C 0.85904 0.82135 0.3854 0.0
C881 C 0.86304 0.82858 0.40385 0.0
C882 C 0.8852 0.84229 0.38742 0.0
C883 C 0.87613 0.83891 0.40487 0.0
C884 C 0.88138 0.83453 0.36925 0.0
C885 C 0.86845 0.82421 0.36828 0.0
U886 U 0.81855 0.79516 0.38661 0.0
O887 O 0.80151 0.79895 0.3617 0.0
O888 O 0.81534 0.7765 0.36343 0.0
C889 C 0.80492 0.78515 0.35359 0.0
C890 C 0.84467 0.81163 0.38278 0.0
C891 C 0.79665 0.77931 0.33551 0.0
C892 C 0.79526 0.77694 0.29886 0.0
C893 C 0.8036 0.78122 0.31634 0.0
C894 C 0.77305 0.76851 0.31959 0.0
C895 C 0.77981 0.7708 0.30031 0.0
C896 C 0.78142 0.77275 0.33707 0.0
C897 C 0.79764 0.78673 0.44112 0.0
C898 C 0.77387 0.77976 0.45998 0.0
C899 C 0.79765 0.78775 0.4778 0.0
C900 C 0.80554 0.78963 0.45935 0.0
C901 C 0.78156 0.78326 0.47838 0.0
C902 C 0.78185 0.78151 0.44147 0.0
C903 C 0.80583 0.79 0.42196 0.0
O904 O 0.84483 0.79619 0.38548 0.0
O905 O 0.83056 0.81822 0.38337 0.0
O906 O 0.80214 0.80241 0.41088 0.0
O907 O 0.8162 0.78015 0.41402 0.0
H908 H 0.8559 0.82652 0.41725 0.0
H909 H 0.87881 0.84471 0.41909 0.0
H910 H 0.88829 0.83662 0.35565 0.0
H911 H 0.86555 0.81872 0.35392 0.0
H912 H 0.80069 0.7789 0.28417 0.0
H913 H 0.81532 0.78638 0.31488 0.0
H914 H 0.76121 0.76366 0.32109 0.0
H915 H 0.77589 0.77121 0.35177 0.0
H916 H 0.76152 0.77622 0.45981 0.0
H917 H 0.80421 0.7899 0.49161 0.0
H918 H 0.81778 0.79358 0.4593 0.0
H919 H 0.77561 0.77915 0.42746 0.0
C920 C 0.4553 0.60782 0.63156 0.0
C921 C 0.44903 0.61135 0.65083 0.0
C922 C 0.43423 0.63371 0.6365 0.0
C923 C 0.43861 0.62433 0.65329 0.0
C924 C 0.44101 0.63037 0.61758 0.0
C925 C 0.45141 0.61765 0.61519 0.0
U926 U 0.48074 0.56789 0.63703 0.0
O927 O 0.4788 0.54788 0.61577 0.0
O928 O 0.50108 0.56157 0.61732 0.0
C929 C 0.4935 0.54944 0.60941 0.0
C930 C 0.46499 0.59362 0.62686 0.0
C931 C 0.49775 0.54365 0.58897 0.0
C932 C 0.49499 0.54255 0.55225 0.0
C933 C 0.49133 0.54973 0.57095 0.0
C934 C 0.51142 0.52331 0.56949 0.0
C935 C 0.5048 0.52895 0.55133 0.0
C936 C 0.508 0.53061 0.58795 0.0
C937 C 0.48772 0.55013 0.69266 0.0
C938 C 0.49596 0.52526 0.70818 0.0
C939 C 0.48783 0.54731 0.72926 0.0
C940 C 0.48521 0.55643 0.712 0.0
C941 C 0.49309 0.53161 0.72759 0.0
C942 C 0.49332 0.5345 0.69073 0.0
C943 C 0.48296 0.56016 0.67543 0.0
O944 O 0.48024 0.5937 0.631 0.0
O945 O 0.45834 0.57959 0.62862 0.0
O946 O 0.4714 0.55523 0.66367 0.0
O947 O 0.49369 0.56882 0.6661 0.0
H948 H 0.45182 0.60391 0.66373 0.0
H949 H 0.43349 0.62665 0.66806 0.0
H950 H 0.43795 0.63742 0.60442 0.0
H951 H 0.45609 0.61518 0.60023 0.0
H952 H 0.4901 0.54766 0.53857 0.0
H953 H 0.48342 0.55984 0.57134 0.0
H954 H 0.51889 0.51287 0.56961 0.0
H955 H 0.51305 0.52569 0.60169 0.0
H956 H 0.50002 0.51315 0.70656 0.0
H957 H 0.48525 0.55241 0.74396 0.0
H958 H 0.48073 0.56839 0.71377 0.0
H959 H 0.49527 0.52938 0.6759 0.0
C960 C 0.36313 0.21049 0.38407 0.0
C961 C 0.36694 0.20328 0.40269 0.0
C962 C 0.38943 0.18951 0.38682 0.0
C963 C 0.38006 0.19292 0.40405 0.0
C964 C 0.38596 0.19756 0.36869 0.0
C965 C 0.37295 0.20772 0.36733 0.0
U966 U 0.32248 0.23529 0.38988 0.0
O967 O 0.31588 0.25501 0.36934 0.0
O968 O 0.30275 0.23234 0.36836 0.0
C969 C 0.30403 0.24692 0.36153 0.0
C970 C 0.34857 0.21991 0.38034 0.0
C971 C 0.29793 0.25082 0.34117 0.0
C972 C 0.29663 0.24792 0.30445 0.0
C973 C 0.30404 0.24448 0.32308 0.0
C974 C 0.27712 0.26389 0.32196 0.0
C975 C 0.28304 0.25768 0.30372 0.0
C976 C 0.28455 0.26061 0.34034 0.0
C977 C 0.30347 0.2429 0.44469 0.0
C978 C 0.27905 0.25382 0.45861 0.0
C979 C 0.29798 0.24103 0.48076 0.0
C980 C 0.30795 0.23837 0.46425 0.0
C981 C 0.28323 0.2485 0.47824 0.0
C982 C 0.28901 0.25085 0.44187 0.0
C983 C 0.31416 0.2381 0.42807 0.0
O984 O 0.33469 0.21299 0.38236 0.0
O985 O 0.3484 0.23521 0.38417 0.0
O986 O 0.32253 0.24892 0.41848 0.0
O987 O 0.30991 0.22608 0.41666 0.0
H988 H 0.35956 0.20527 0.41589 0.0
H989 H 0.38247 0.18706 0.41834 0.0
H990 H 0.3932 0.19586 0.35531 0.0
H991 H 0.37032 0.21321 0.35286 0.0
H992 H 0.30149 0.24296 0.29064 0.0
H993 H 0.31432 0.23678 0.32339 0.0
H994 H 0.26644 0.27102 0.32216 0.0
H995 H 0.27952 0.26545 0.35413 0.0
H996 H 0.26807 0.26016 0.4561 0.0
H997 H 0.30166 0.23666 0.49545 0.0
H998 H 0.31907 0.23224 0.46673 0.0
H999 H 0.28536 0.25459 0.42688 0.0
C1000 C 0.56645 0.61229 0.13493 0.0
C1001 C 0.56934 0.61928 0.15393 0.0
C1002 C 0.58692 0.63895 0.13801 0.0
C1003 C 0.57952 0.63255 0.15544 0.0
C1004 C 0.58347 0.6321 0.11915 0.0
C1005 C 0.57344 0.619 0.11769 0.0
U1006 U 0.54092 0.57187 0.14048 0.0
O1007 O 0.52125 0.56592 0.11954 0.0
O1008 O 0.54373 0.55246 0.11849 0.0
C1009 C 0.52922 0.55406 0.11155 0.0
C1010 C 0.55675 0.59786 0.13169 0.0
C1011 C 0.52537 0.54814 0.09109 0.0
C1012 C 0.5289 0.54681 0.05447 0.0
C1013 C 0.532 0.55424 0.07317 0.0
C1014 C 0.51221 0.52761 0.07149 0.0
C1015 C 0.51905 0.53325 0.05341 0.0
C1016 C 0.51541 0.5349 0.08999 0.0
C1017 C 0.53288 0.55261 0.19542 0.0
C1018 C 0.52598 0.52722 0.21084 0.0
C1019 C 0.53147 0.54991 0.23201 0.0
C1020 C 0.53414 0.55912 0.2148 0.0
C1021 C 0.52812 0.5336 0.23047 0.0
C1022 C 0.52832 0.53666 0.19342 0.0
C1023 C 0.53775 0.56289 0.17836 0.0
O1024 O 0.56348 0.58386 0.13319 0.0
O1025 O 0.54147 0.59788 0.13579 0.0
O1026 O 0.52717 0.57176 0.16909 0.0
O1027 O 0.54966 0.55847 0.16683 0.0
H1028 H 0.56406 0.61433 0.16751 0.0
H1029 H 0.58202 0.63743 0.17027 0.0
H1030 H 0.5887 0.63678 0.10539 0.0
H1031 H 0.57131 0.61389 0.10288 0.0
H1032 H 0.53474 0.55135 0.04106 0.0
H1033 H 0.53986 0.5644 0.07369 0.0
H1034 H 0.50437 0.51745 0.07144 0.0
H1035 H 0.51023 0.52995 0.10364 0.0
H1036 H 0.52317 0.51479 0.20886 0.0
H1037 H 0.5321 0.55575 0.24655 0.0
H1038 H 0.53746 0.57145 0.2167 0.0
H1039 H 0.52714 0.53139 0.17854 0.0
C1040 C 0.16248 0.81537 0.88829 0.0
C1041 C 0.15844 0.82264 0.90668 0.0
C1042 C 0.13619 0.83619 0.89029 0.0
C1043 C 0.14535 0.83294 0.90767 0.0
C1044 C 0.1402 0.82859 0.87205 0.0
C1045 C 0.15316 0.81827 0.87112 0.0
U1046 U 0.20349 0.79003 0.88995 0.0
O1047 O 0.20774 0.77173 0.86663 0.0
O1048 O 0.2207 0.79476 0.86539 0.0
C1049 C 0.21815 0.78078 0.8573 0.0
C1050 C 0.17704 0.8059 0.88571 0.0
C1051 C 0.2262 0.77571 0.83872 0.0
C1052 C 0.22853 0.77611 0.8021 0.0
C1053 C 0.22018 0.78001 0.81972 0.0
C1054 C 0.2488 0.7633 0.82233 0.0
C1055 C 0.24307 0.76797 0.80325 0.0
C1056 C 0.24042 0.76719 0.83994 0.0
C1057 C 0.2249 0.78119 0.94402 0.0
C1058 C 0.24602 0.76752 0.96212 0.0
C1059 C 0.23033 0.78754 0.97914 0.0
C1060 C 0.22148 0.7898 0.96157 0.0
C1061 C 0.24288 0.77661 0.97957 0.0
C1062 C 0.23707 0.76982 0.94438 0.0
C1063 C 0.21599 0.78518 0.92556 0.0
O1064 O 0.19099 0.81278 0.88666 0.0
O1065 O 0.17718 0.79044 0.88841 0.0
O1066 O 0.20656 0.7748 0.91687 0.0
O1067 O 0.21909 0.79798 0.9149 0.0
H1068 H 0.16555 0.82063 0.92009 0.0
H1069 H 0.14253 0.83856 0.92197 0.0
H1070 H 0.1337 0.83107 0.85826 0.0
H1071 H 0.15623 0.81293 0.85671 0.0
H1072 H 0.22369 0.77957 0.78756 0.0
H1073 H 0.20917 0.78656 0.81854 0.0
H1074 H 0.25997 0.75704 0.82365 0.0
H1075 H 0.24521 0.76383 0.85456 0.0
H1076 H 0.25576 0.75914 0.96196 0.0
H1077 H 0.22756 0.79463 0.99235 0.0
H1078 H 0.21211 0.7986 0.96157 0.0
H1079 H 0.23992 0.76309 0.93089 0.0
C1080 C 0.95949 0.41215 0.63874 0.0
C1081 C 0.95452 0.40528 0.65705 0.0
C1082 C 0.93861 0.38578 0.63863 0.0
C1083 C 0.94419 0.3922 0.65701 0.0
C1084 C 0.94437 0.39229 0.62037 0.0
C1085 C 0.95453 0.40543 0.62044 0.0
U1086 U 0.98536 0.45313 0.63988 0.0
O1087 O 1.0032 0.45646 0.61564 0.0
O1088 O 0.98039 0.46978 0.61481 0.0
C1089 C 0.99404 0.46663 0.6061 0.0
C1090 C 0.96885 0.42693 0.63846 0.0
C1091 C 0.99937 0.47507 0.58788 0.0
C1092 C 0.99899 0.47751 0.55129 0.0
C1093 C 0.99528 0.46906 0.56887 0.0
C1094 C 1.0116 0.49782 0.57154 0.0
C1095 C 1.00732 0.49198 0.55229 0.0
C1096 C 1.00754 0.48949 0.5892 0.0
C1097 C 0.99496 0.47496 0.69348 0.0
C1098 C 1.00786 0.49623 0.71215 0.0
C1099 C 0.98859 0.47934 0.72883 0.0
C1100 C 0.98652 0.47079 0.71094 0.0
C1101 C 0.99888 0.49247 0.72947 0.0
C1102 C 1.0059 0.48751 0.69423 0.0
C1103 C 0.99137 0.46698 0.67427 0.0
O1104 O 0.96213 0.44097 0.63808 0.0
O1105 O 0.98441 0.42691 0.63993 0.0
O1106 O 1.00125 0.45679 0.66603 0.0
O1107 O 0.97817 0.46961 0.66425 0.0
H1108 H 0.95824 0.41032 0.67136 0.0
H1109 H 0.94009 0.38751 0.67137 0.0
H1110 H 0.94091 0.38734 0.60591 0.0
H1111 H 0.9583 0.41051 0.60613 0.0
H1112 H 0.99479 0.47287 0.53701 0.0
H1113 H 0.98875 0.45804 0.56764 0.0
H1114 H 0.01809 0.50884 0.57301 0.0
H1115 H 1.01067 0.49436 0.60383 0.0
H1116 H 0.01584 0.5063 0.7122 0.0
H1117 H 0.98176 0.47596 0.74207 0.0
H1118 H 0.97807 0.46111 0.71064 0.0
H1119 H 1.01248 0.49091 0.68079 0.0
C1120 C 0.36319 0.81522 0.14501 0.0
C1121 C 0.36664 0.82218 0.12613 0.0
C1122 C 0.38955 0.836 0.14081 0.0
C1123 C 0.37973 0.83251 0.12407 0.0
C1124 C 0.38617 0.82866 0.15943 0.0
C1125 C 0.37321 0.81843 0.16144 0.0
U1126 U 0.32259 0.79022 0.13995 0.0
O1127 O 0.3161 0.77066 0.16075 0.0
O1128 O 0.30283 0.79326 0.16152 0.0
C1129 C 0.30416 0.7787 0.16841 0.0
C1130 C 0.34872 0.80572 0.14925 0.0
C1131 C 0.29778 0.77472 0.18859 0.0
C1132 C 0.29775 0.77534 0.22544 0.0
C1133 C 0.30516 0.77891 0.20686 0.0
C1134 C 0.27574 0.76345 0.20753 0.0
C1135 C 0.28275 0.76781 0.22597 0.0
C1136 C 0.28319 0.7668 0.18915 0.0
C1137 C 0.30333 0.78277 0.0851 0.0
C1138 C 0.28035 0.76986 0.06979 0.0
C1139 C 0.29721 0.78695 0.0496 0.0
C1140 C 0.30679 0.78966 0.06635 0.0
C1141 C 0.28369 0.77731 0.05107 0.0
C1142 C 0.29013 0.7726 0.08679 0.0
C1143 C 0.31389 0.78727 0.10198 0.0
O1144 O 0.3348 0.81257 0.14736 0.0
O1145 O 0.34855 0.79043 0.14536 0.0
O1146 O 0.32221 0.7764 0.11149 0.0
O1147 O 0.30993 0.79945 0.11329 0.0
H1148 H 0.35907 0.81996 0.1132 0.0
H1149 H 0.38205 0.83797 0.1095 0.0
H1150 H 0.39322 0.83128 0.17271 0.0
H1151 H 0.37069 0.81335 0.17619 0.0
H1152 H 0.30379 0.77844 0.23935 0.0
H1153 H 0.3165 0.78497 0.20676 0.0
H1154 H 0.26421 0.75778 0.20719 0.0
H1155 H 0.27731 0.76348 0.17519 0.0
H1156 H 0.26992 0.76247 0.07147 0.0
H1157 H 0.30028 0.79268 0.03543 0.0
H1158 H 0.31694 0.79746 0.06468 0.0
H1159 H 0.28723 0.76711 0.10117 0.0
C1160 C 0.95997 0.61357 0.89276 0.0
C1161 C 0.95324 0.61787 0.87409 0.0
C1162 C 0.93905 0.63978 0.89034 0.0
C1163 C 0.94284 0.63089 0.87291 0.0
C1164 C 0.94619 0.63568 0.90878 0.0
C1165 C 0.95648 0.62269 0.90996 0.0
U1166 U 0.98533 0.57256 0.89057 0.0
O1167 O 1.00387 0.56781 0.91345 0.0
O1168 O 0.9807 0.55515 0.91496 0.0
C1169 C 0.99477 0.55754 0.92293 0.0
C1170 C 0.96947 0.59901 0.89563 0.0
C1171 C 1.00009 0.54907 0.94116 0.0
C1172 C 0.99805 0.54437 0.97737 0.0
C1173 C 0.99386 0.55307 0.96013 0.0
C1174 C 0.01535 0.52798 0.95694 0.0
C1175 C 1.00869 0.5315 0.97605 0.0
C1176 C 1.01095 0.53657 0.93965 0.0
C1177 C 0.994 0.55146 0.83639 0.0
C1178 C 1.0062 0.52892 0.81936 0.0
C1179 C 0.98928 0.54691 0.80065 0.0
C1180 C 0.98697 0.55589 0.81808 0.0
C1181 C 0.99846 0.53302 0.80117 0.0
C1182 C 1.00394 0.53809 0.83696 0.0
C1183 C 0.98986 0.56091 0.85437 0.0
O1184 O 0.96261 0.58506 0.89445 0.0
O1185 O 0.98491 0.59883 0.89274 0.0
O1186 O 1.00038 0.57007 0.86327 0.0
O1187 O 0.9773 0.55743 0.86531 0.0
H1188 H 0.95569 0.61096 0.86062 0.0
H1189 H 0.93745 0.63383 0.85849 0.0
H1190 H 0.94335 0.64216 0.92247 0.0
H1191 H 0.9614 0.61947 0.92456 0.0
H1192 H 0.99257 0.54752 0.99164 0.0
H1193 H 0.9855 0.56276 0.96157 0.0
H1194 H 0.02412 0.51872 0.95524 0.0
H1195 H 0.01596 0.53339 0.92509 0.0
H1196 H 0.01341 0.51832 0.82016 0.0
H1197 H 0.98352 0.55066 0.78679 0.0
H1198 H 0.97937 0.56624 0.81731 0.0
H1199 H 1.00955 0.53453 0.851 0.0
C1200 C 0.1636 0.20946 0.6456 0.0
C1201 C 0.15596 0.20826 0.62675 0.0
C1202 C 0.13683 0.189 0.64092 0.0
C1203 C 0.14257 0.19831 0.62452 0.0
C1204 C 0.14457 0.19067 0.65969 0.0
C1205 C 0.15756 0.20079 0.66196 0.0
U1206 U 0.20389 0.23499 0.64027 0.0
O1207 O 0.21026 0.25484 0.66068 0.0
O1208 O 0.22347 0.23226 0.66203 0.0
C1209 C 0.2221 0.24686 0.66869 0.0
C1210 C 0.17779 0.21941 0.64964 0.0
C1211 C 0.22787 0.2507 0.68922 0.0
C1212 C 0.22929 0.24676 0.72576 0.0
C1213 C 0.22189 0.24376 0.70702 0.0
C1214 C 0.24819 0.26397 0.70905 0.0
C1215 C 0.24269 0.25682 0.72699 0.0
C1216 C 0.24094 0.26088 0.6905 0.0
C1217 C 0.22343 0.24113 0.58511 0.0
C1218 C 0.24417 0.25604 0.56764 0.0
C1219 C 0.23088 0.2344 0.55068 0.0
C1220 C 0.22152 0.23191 0.56774 0.0
C1221 C 0.24215 0.24669 0.55005 0.0
C1222 C 0.2349 0.25325 0.58513 0.0
C1223 C 0.21292 0.23717 0.60232 0.0
O1224 O 0.19185 0.21273 0.64869 0.0
O1225 O 0.17784 0.23456 0.64484 0.0
O1226 O 0.20464 0.24832 0.61139 0.0
O1227 O 0.21672 0.22518 0.61405 0.0
H1228 H 0.16023 0.21501 0.61388 0.0
H1229 H 0.13668 0.1982 0.60999 0.0
H1230 H 0.14095 0.18379 0.67274 0.0
H1231 H 0.16315 0.20161 0.6767 0.0
H1232 H 0.22486 0.24068 0.73906 0.0
H1233 H 0.21189 0.23571 0.70635 0.0
H1234 H 0.25824 0.27197 0.70925 0.0
H1235 H 0.2458 0.26629 0.67694 0.0
H1236 H 0.25281 0.26554 0.56786 0.0
H1237 H 0.22948 0.22623 0.5382 0.0
H1238 H 0.21284 0.22241 0.56746 0.0
H1239 H 0.23664 0.26051 0.59846 0.0
C1240 C 0.56633 0.41276 0.39579 0.0
C1241 C 0.57288 0.409 0.37677 0.0
C1242 C 0.58722 0.38646 0.39165 0.0
C1243 C 0.58328 0.39596 0.37475 0.0
C1244 C 0.58021 0.39001 0.41038 0.0
C1245 C 0.56997 0.403 0.41239 0.0
U1246 U 0.54102 0.45325 0.3906 0.0
O1247 O 0.52133 0.45958 0.41143 0.0
O1248 O 0.5439 0.47293 0.41227 0.0
C1249 C 0.52935 0.47148 0.4192 0.0
C1250 C 0.55675 0.42722 0.39991 0.0
C1251 C 0.52517 0.47807 0.43927 0.0
C1252 C 0.52718 0.47974 0.47608 0.0
C1253 C 0.53089 0.47203 0.45772 0.0
C1254 C 0.51222 0.49947 0.45761 0.0
C1255 C 0.51778 0.49361 0.47624 0.0
C1256 C 0.51573 0.49171 0.43949 0.0
C1257 C 0.53285 0.47239 0.33578 0.0
C1258 C 0.52266 0.49719 0.32189 0.0
C1259 C 0.53381 0.47744 0.29945 0.0
C1260 C 0.53673 0.4676 0.31606 0.0
C1261 C 0.52697 0.49241 0.30218 0.0
C1262 C 0.52551 0.4872 0.33866 0.0
C1263 C 0.53786 0.46177 0.35246 0.0
O1264 O 0.56349 0.44118 0.3979 0.0
O1265 O 0.54143 0.42731 0.39613 0.0
O1266 O 0.52721 0.45321 0.36209 0.0
O1267 O 0.54989 0.46611 0.36381 0.0
H1268 H 0.57032 0.41633 0.36369 0.0
H1269 H 0.58851 0.39347 0.36009 0.0
H1270 H 0.58312 0.38309 0.42369 0.0
H1271 H 0.56519 0.4057 0.42724 0.0
H1272 H 0.53167 0.47486 0.49014 0.0
H1273 H 0.5383 0.46155 0.45792 0.0
H1274 H 0.50548 0.51037 0.45687 0.0
H1275 H 0.51136 0.4967 0.42542 0.0
H1276 H 0.51749 0.50879 0.32434 0.0
H1277 H 0.5375 0.4736 0.28451 0.0
H1278 H 0.54249 0.45629 0.31352 0.0
H1279 H 0.52244 0.4912 0.35375 0.0
C1280 C 0.2712 0.24912 0.2703 0.0
C1281 C 0.27471 0.26125 0.28425 0.0
C1282 C 0.26241 0.25222 0.25258 0.0
C1283 C 0.25676 0.26755 0.2482 0.0
H1284 H 0.27492 0.23706 0.27333 0.0
H1285 H 0.25973 0.24247 0.24249 0.0
S1286 S 0.26426 0.30375 0.27848 0.0
N1287 N 0.27288 0.28943 0.29147 0.0
N1288 N 0.25646 0.29517 0.25839 0.0
C1289 C 0.26061 0.27982 0.2617 0.0
C1290 C 0.26953 0.2767 0.27963 0.0
C1291 C 1.00516 0.02196 0.50063 0.0
C1292 C 1.00848 1.00561 0.4989 0.0
C1293 C 1.00849 0.03041 0.51849 0.0
C1294 C 0.01531 0.0229 0.53542 0.0
H1295 H 0.99973 0.02826 0.48813 0.0
H1296 H 1.00543 0.04286 0.51915 0.0
S1297 S 0.02791 0.98076 0.53794 0.0
N1298 N 0.02 0.98258 0.5152 0.0
N1299 N 0.02637 0.99837 0.54862 0.0
C1300 C 0.01902 1.00665 0.53368 0.0
C1301 C 0.01558 0.99806 0.51553 0.0
C1302 C 0.25832 0.74948 0.78069 0.0
C1303 C 0.25244 0.76476 0.78463 0.0
C1304 C 0.267 0.74626 0.76301 0.0
C1305 C 0.27029 0.75822 0.74868 0.0
H1306 H 0.25596 0.73988 0.79119 0.0
H1307 H 0.27099 0.73423 0.76044 0.0
S1308 S 0.25883 0.80054 0.75308 0.0
N1309 N 0.2513 0.79215 0.77353 0.0
N1310 N 0.26771 0.7862 0.74041 0.0
C1311 C 0.2647 0.77362 0.75269 0.0
C1312 C 0.2558 0.77686 0.77064 0.0
C1313 C 0.52893 1.00863 1.00598 0.0
C1314 C 0.51852 0.0206 0.9994 0.0
C1315 C 0.52571 0.99977 0.02359 0.0
C1316 C 0.51206 1.00273 0.03526 0.0
H1317 H 0.53951 1.00599 0.9973 0.0
H1318 H 0.53395 0.9906 0.02817 0.0
S1319 S 0.48074 0.03213 0.02388 0.0
N1320 N 0.49374 0.03441 1.00533 0.0
N1321 N 0.48789 0.01805 0.03869 0.0
C1322 C 0.50157 0.01459 0.02876 0.0
C1323 C 0.50474 0.02344 1.01074 0.0
C1324 C 0.25695 0.7475 0.26609 0.0
C1325 C 0.25636 0.75864 0.28195 0.0
C1326 C 0.26558 0.75048 0.24825 0.0
C1327 C 0.27409 0.76471 0.24542 0.0
H1328 H 0.25102 0.73617 0.26761 0.0
H1329 H 0.26578 0.74137 0.23671 0.0
S1330 S 0.27523 0.79849 0.28126 0.0
N1331 N 0.26419 0.78508 0.29279 0.0
N1332 N 0.28048 0.79048 0.2595 0.0
C1333 C 0.27337 0.77607 0.26094 0.0
C1334 C 0.26451 0.7731 0.27907 0.0
C1335 C 0.51961 0.9997 0.5134 0.0
C1336 C 0.51727 1.00598 0.53291 0.0
C1337 C 0.51681 1.00868 0.49589 0.0
C1338 C 0.51066 0.02428 0.49665 0.0
H1339 H 0.52379 0.98767 0.51144 0.0
H1340 H 0.51987 1.00311 0.4817 0.0
S1341 S 0.50176 0.04618 0.54441 0.0
N1342 N 0.50917 0.02916 0.55209 0.0
N1343 N 0.50136 0.04506 0.51952 0.0
C1344 C 0.50769 0.03049 0.51624 0.0
C1345 C 0.51149 0.02161 0.53416 0.0
C1346 C 0.27674 0.26387 0.76413 0.0
C1347 C 0.26908 0.26606 0.78287 0.0
C1348 C 0.26816 0.26068 0.7464 0.0
C1349 C 0.25144 0.2596 0.74646 0.0
H1350 H 0.28955 0.26449 0.76312 0.0
H1351 H 0.27478 0.25891 0.73253 0.0
S1352 S 0.22555 0.26496 0.79143 0.0
N1353 N 0.24369 0.26718 0.80032 0.0
N1354 N 0.22758 0.26141 0.767 0.0
C1355 C 0.24363 0.26171 0.76511 0.0
C1356 C 0.2524 0.26488 0.78325 0.0
C1357 C 1.00301 1.01245 0.99701 0.0
C1358 C 0.01517 1.00105 0.99624 0.0
C1359 C 0.99985 0.02103 1.01478 0.0
C1360 C 1.00883 0.01875 0.03258 0.0
H1361 H 0.99563 0.01456 0.98386 0.0
H1362 H 0.99004 0.02931 1.0146 0.0
S1363 S 0.0431 0.99137 0.03781 0.0
N1364 N 0.03684 0.98858 1.01443 0.0
N1365 N 0.03123 1.00489 0.0476 0.0
C1366 C 0.02128 1.00762 0.03181 0.0
C1367 C 0.02437 0.99877 1.01375 0.0
C1368 C 0.76439 0.75444 0.75064 0.0
C1369 C 0.75467 0.76799 0.7487 0.0
C1370 C 0.77303 0.75139 0.76837 0.0
C1371 C 0.7723 0.76161 0.78518 0.0
H1372 H 0.76528 0.74596 0.73841 0.0
H1373 H 0.7802 0.74074 0.76896 0.0
S1374 S 0.7492 0.79894 0.78801 0.0
N1375 N 0.74534 0.79197 0.76521 0.0
N1376 N 0.76131 0.78602 0.79861 0.0
C1377 C 0.76259 0.77511 0.78359 0.0
C1378 C 0.75386 0.77832 0.76541 0.0
C1379 C 0.76805 0.26581 0.28403 0.0
C1380 C 0.75131 0.2655 0.28434 0.0
C1381 C 0.77669 0.26253 0.26633 0.0
C1382 C 0.76902 0.25886 0.24801 0.0
H1383 H 0.77464 0.2688 0.29757 0.0
H1384 H 0.78951 0.26307 0.26701 0.0
S1385 S 0.7255 0.25562 0.24067 0.0
N1386 N 0.72748 0.26057 0.2647 0.0
N1387 N 0.74367 0.25458 0.23145 0.0
C1388 C 0.75232 0.25851 0.24804 0.0
C1389 C 0.7435 0.26178 0.26613 0.0
C1390 C 0.74949 0.26269 0.76444 0.0
C1391 C 0.75721 0.25909 0.78275 0.0
C1392 C 0.75805 0.26594 0.74668 0.0
C1393 C 0.77479 0.26569 0.74628 0.0
H1394 H 0.73666 0.26316 0.76381 0.0
H1395 H 0.7514 0.26882 0.73315 0.0
S1396 S 0.8008 0.25631 0.78995 0.0
N1397 N 0.78267 0.25516 0.79927 0.0
N1398 N 0.79872 0.2611 0.76586 0.0
C1399 C 0.78268 0.26216 0.7645 0.0
C1400 C 0.77393 0.25891 0.78267 0.0
C1401 C 0.77635 0.75731 0.26668 0.0
C1402 C 0.77048 0.76754 0.28171 0.0
C1403 C 0.76762 0.75428 0.24897 0.0
C1404 C 0.75277 0.76149 0.24556 0.0
H1405 H 0.78768 0.75147 0.26874 0.0
H1406 H 0.77246 0.74607 0.23798 0.0
S1407 S 0.73312 0.79053 0.27941 0.0
N1408 N 0.74949 0.78559 0.29157 0.0
N1409 N 0.73325 0.78021 0.25818 0.0
C1410 C 0.74701 0.77202 0.26033 0.0
C1411 C 0.75582 0.77497 0.27839 0.0
C1412 C 0.51522 0.50776 0.034 0.0
C1413 C 0.51613 0.52448 0.03396 0.0
C1414 C 0.51195 0.49916 0.01632 0.0
C1415 C 0.5095 0.50679 0.99761 0.0
H1416 H 0.51722 0.50115 0.04783 0.0
H1417 H 0.51149 0.48635 0.01733 0.0
S1418 S 0.50995 0.55029 0.98911 0.0
N1419 N 0.5138 0.54829 1.01347 0.0
N1420 N 0.50786 0.53214 0.98024 0.0
C1421 C 0.51047 0.52346 0.99725 0.0
C1422 C 0.51372 0.53226 0.01535 0.0
C1423 C 0.01333 0.52674 0.51586 0.0
C1424 C 0.0175 0.51934 0.49751 0.0
C1425 C 1.01012 0.51787 0.5334 0.0
C1426 C 1.01108 0.50118 0.53346 0.0
H1427 H 1.01228 0.53952 0.51662 0.0
H1428 H 1.00659 0.52419 0.54693 0.0
S1429 S 0.02288 0.47613 0.48972 0.0
N1430 N 0.02317 0.49437 0.48073 0.0
N1431 N 0.01756 0.47774 0.51368 0.0
C1432 C 0.01554 0.49367 0.51527 0.0
C1433 C 0.01864 0.50271 0.49736 0.0
C1434 C 0.01377 0.52949 1.01362 0.0
C1435 C 1.01267 0.52198 0.99462 0.0
C1436 C 0.01696 0.52092 0.03137 0.0
C1437 C 0.0193 0.50437 0.0311 0.0
H1438 H 1.0124 0.54221 1.01488 0.0
H1439 H 0.01784 0.52745 0.04543 0.0
S1440 S 0.01709 0.47873 0.98561 0.0
N1441 N 0.0137 0.49673 0.97687 0.0
N1442 N 0.01988 0.48074 1.0102 0.0
C1443 C 0.01829 0.49668 1.01226 0.0
C1444 C 0.01495 0.50541 0.99411 0.0
C1445 C 0.526 0.5048 0.51016 0.0
C1446 C 0.51414 0.50232 0.49551 0.0
C1447 C 0.52297 0.51357 0.52788 0.0
C1448 C 0.50792 0.52023 0.53187 0.0
H1449 H 0.53785 0.50021 0.50775 0.0
H1450 H 0.53265 0.51529 0.53843 0.0
S1451 S 0.47236 0.51597 0.49926 0.0
N1452 N 0.48646 0.50653 0.48682 0.0
N1453 N 0.48077 0.52275 0.52006 0.0
C1454 C 0.4959 0.51758 0.51749 0.0
C1455 C 0.49899 0.50871 0.49942 0.0
C1456 C 0.10314 0.36462 0.12913 0.0
C1457 C 0.10469 0.37902 0.13996 0.0
C1458 C 0.115 0.35285 0.12965 0.0
C1459 C 0.12876 0.35483 0.14134 0.0
H1460 H 0.09266 0.36235 0.12014 0.0
H1461 H 0.1133 0.34207 0.12103 0.0
S1462 S 0.1392 0.39003 0.17193 0.0
N1463 N 0.12183 0.39451 0.16199 0.0
N1464 N 0.14345 0.37205 0.16381 0.0
C1465 C 0.13042 0.36891 0.1524 0.0
C1466 C 0.11858 0.38104 0.15155 0.0
C1467 C 0.90991 0.85415 0.40267 0.0
C1468 C 0.89804 0.85449 0.38778 0.0
C1469 C 0.92181 0.86585 0.40338 0.0
C1470 C 0.92218 0.87869 0.38955 0.0
H1471 H 0.91009 0.84469 0.41378 0.0
H1472 H 0.93079 0.86475 0.415 0.0
S1473 S 0.89324 0.88507 0.34791 0.0
N1474 N 0.88733 0.86847 0.35878 0.0
N1475 N 0.90901 0.89086 0.36067 0.0
C1476 C 0.9103 0.87903 0.37453 0.0
C1477 C 0.89842 0.8669 0.37356 0.0
C1478 C 0.4115 0.67126 0.65123 0.0
C1479 C 0.39757 0.67031 0.63933 0.0
C1480 C 0.42322 0.65933 0.65066 0.0
C1481 C 0.42163 0.6461 0.63791 0.0
H1482 H 0.41348 0.68136 0.661 0.0
H1483 H 0.43371 0.66061 0.65997 0.0
S1484 S 0.38744 0.63721 0.60465 0.0
N1485 N 0.38274 0.65419 0.61543 0.0
N1486 N 0.40508 0.63248 0.61356 0.0
C1487 C 0.4079 0.64499 0.62598 0.0
C1488 C 0.39584 0.65689 0.62685 0.0
C1489 C 0.60326 0.15864 0.87898 0.0
C1490 C 0.60414 0.14626 0.8932 0.0
C1491 C 0.61493 0.17061 0.87825 0.0
C1492 C 0.62817 0.17055 0.89144 0.0
H1493 H 0.59336 0.15921 0.86857 0.0
H1494 H 0.61346 0.18003 0.86726 0.0
S1495 S 0.63631 0.13991 0.93052 0.0
N1496 N 0.61927 0.13442 0.92046 0.0
N1497 N 0.64156 0.1562 0.91841 0.0
C1498 C 0.62917 0.15801 0.9055 0.0
C1499 C 0.61713 0.14608 0.90651 0.0
C1500 C 0.10227 0.66248 0.38246 0.0
C1501 C 0.10534 0.64742 0.39065 0.0
C1502 C 0.11413 0.67425 0.38199 0.0
C1503 C 0.12954 0.67139 0.38962 0.0
H1504 H 0.09062 0.66517 0.37646 0.0
H1505 H 0.11118 0.68571 0.37562 0.0
S1506 S 0.1434 0.63345 0.41193 0.0
N1507 N 0.12459 0.63015 0.40643 0.0
N1508 N 0.14705 0.65187 0.40489 0.0
C1509 C 0.13261 0.65626 0.39777 0.0
C1510 C 0.12049 0.6444 0.39843 0.0
C1511 C 0.60161 0.86174 0.64289 0.0
C1512 C 0.60551 0.8778 0.64 0.0
C1513 C 0.6135 0.84999 0.64345 0.0
C1514 C 0.62964 0.85386 0.64062 0.0
H1515 H 0.58933 0.85829 0.64495 0.0
H1516 H 0.61004 0.83778 0.64603 0.0
S1517 S 0.64577 0.89422 0.63232 0.0
N1518 N 0.62642 0.89695 0.6342 0.0
N1519 N 0.6487 0.87498 0.63502 0.0
C1520 C 0.63354 0.86987 0.63749 0.0
C1521 C 0.6215 0.8818 0.63722 0.0
C1522 C 0.39605 0.36736 0.90142 0.0
C1523 C 0.39838 0.35321 0.89046 0.0
C1524 C 0.40773 0.37921 0.90208 0.0
C1525 C 0.42211 0.37759 0.89149 0.0
H1526 H 0.38496 0.36952 0.90922 0.0
H1527 H 0.40537 0.3899 0.91065 0.0
S1528 S 0.43511 0.34249 0.86238 0.0
N1529 N 0.41712 0.33784 0.87033 0.0
N1530 N 0.43863 0.36054 0.87091 0.0
C1531 C 0.42482 0.36352 0.88081 0.0
C1532 C 0.41307 0.35127 0.88043 0.0
C1533 C 0.92449 0.16212 0.14724 0.0
C1534 C 0.92143 0.14696 0.13942 0.0
C1535 C 0.91262 0.17388 0.14738 0.0
C1536 C 0.89728 0.17087 0.13968 0.0
H1537 H 0.93614 0.16493 0.15315 0.0
H1538 H 0.91553 0.18544 0.15344 0.0
S1539 S 0.8834 0.13263 0.11841 0.0
N1540 N 0.9022 0.12942 0.12407 0.0
N1541 N 0.87975 0.15115 0.12494 0.0
C1542 C 0.89419 0.15563 0.132 0.0
C1543 C 0.90629 0.14379 0.13172 0.0
C1544 C 0.91824 0.67997 0.8952 0.0
C1545 C 0.90249 0.67631 0.8899 0.0
C1546 C 0.93014 0.66818 0.8952 0.0
C1547 C 0.92666 0.65239 0.88977 0.0
H1548 H 0.92139 0.69201 0.89923 0.0
H1549 H 0.94213 0.67143 0.89935 0.0
S1550 S 0.88702 0.63661 0.87664 0.0
N1551 N 0.88395 0.65572 0.88032 0.0
N1552 N 0.90617 0.63368 0.88037 0.0
C1553 C 0.91092 0.64865 0.88484 0.0
C1554 C 0.89889 0.66057 0.88487 0.0
C1555 C 0.10162 0.16187 0.65493 0.0
C1556 C 0.09902 0.15283 0.63734 0.0
C1557 C 0.11331 0.17381 0.65565 0.0
C1558 C 0.12329 0.17724 0.63891 0.0
H1559 H 0.09445 0.15982 0.66831 0.0
H1560 H 0.11444 0.18043 0.6696 0.0
S1561 S 0.12136 0.15698 0.58901 0.0
N1562 N 0.10738 0.14833 0.60256 0.0
N1563 N 0.12942 0.17032 0.60404 0.0
C1564 C 0.12061 0.16842 0.62111 0.0
C1565 C 0.10857 0.15636 0.62032 0.0
C1566 C 0.59627 0.35792 0.39597 0.0
C1567 C 0.5996 0.37374 0.39038 0.0
C1568 C 0.60819 0.3461 0.39563 0.0
C1569 C 0.62388 0.34973 0.38991 0.0
H1570 H 0.58436 0.35465 0.40053 0.0
H1571 H 0.60508 0.33404 0.39969 0.0
S1572 S 0.63901 0.38944 0.37571 0.0
N1573 N 0.61995 0.39239 0.38014 0.0
N1574 N 0.64215 0.37033 0.37942 0.0
C1575 C 0.62732 0.36549 0.38461 0.0
C1576 C 0.61527 0.37743 0.38489 0.0
C1577 C 0.41126 0.87502 0.13094 0.0
C1578 C 0.4265 0.87237 0.13897 0.0
C1579 C 0.39955 0.86314 0.1312 0.0
C1580 C 0.40258 0.84804 0.13944 0.0
H1581 H 0.40828 0.8865 0.12464 0.0
H1582 H 0.3879 0.86591 0.12528 0.0
S1583 S 0.44115 0.83446 0.16019 0.0
N1584 N 0.44437 0.85316 0.15398 0.0
N1585 N 0.42242 0.8308 0.15449 0.0
C1586 C 0.41791 0.84513 0.14708 0.0
C1587 C 0.42984 0.85727 0.14683 0.0
C1588 C 0.92708 0.36006 0.6521 0.0
C1589 C 0.92629 0.3729 0.63848 0.0
C1590 C 0.91532 0.34817 0.65241 0.0
C1591 C 0.90212 0.3486 0.63922 0.0
H1592 H 0.93693 0.3591 0.66255 0.0
H1593 H 0.91665 0.33852 0.66311 0.0
S1594 S 0.89396 0.38027 0.60156 0.0
N1595 N 0.91089 0.38559 0.612 0.0
N1596 N 0.88885 0.36354 0.61275 0.0
C1597 C 0.90122 0.36144 0.62562 0.0
C1598 C 0.91323 0.37347 0.62523 0.0
C1599 C 0.425 0.16432 0.40376 0.0
C1600 C 0.42665 0.15307 0.38804 0.0
C1601 C 0.41303 0.17601 0.40338 0.0
C1602 C 0.40224 0.1771 0.38718 0.0
H1603 H 0.43305 0.16418 0.41652 0.0
H1604 H 0.41235 0.18436 0.4158 0.0
S1605 S 0.40074 0.15015 0.34277 0.0
N1606 N 0.4158 0.14354 0.35625 0.0
N1607 N 0.39371 0.16549 0.35535 0.0
C1608 C 0.40378 0.16597 0.3714 0.0
C1609 C 0.41585 0.15402 0.37185 0.0
C1610 C 0.61317 0.65077 0.12787 0.0
C1611 C 0.59897 0.65202 0.13907 0.0
C1612 C 0.62476 0.66273 0.12824 0.0
C1613 C 0.62274 0.67659 0.13979 0.0
H1614 H 0.61554 0.64027 0.11895 0.0
H1615 H 0.6356 0.66085 0.11975 0.0
S1616 S 0.58699 0.68658 0.17016 0.0
N1617 N 0.5831 0.66879 0.161 0.0
N1618 N 0.60478 0.69134 0.16162 0.0
C1619 C 0.60843 0.67819 0.15072 0.0
C1620 C 0.59661 0.66593 0.1504 0.0
C1621 C 0.12584 0.86301 0.90019 0.0
C1622 C 0.12322 0.84827 0.89082 0.0
C1623 C 0.11416 0.87486 0.90027 0.0
C1624 C 0.09933 0.87253 0.89093 0.0
H1625 H 0.13716 0.86556 0.90722 0.0
H1626 H 0.11687 0.88607 0.90746 0.0
S1627 S 0.08587 0.8356 0.86597 0.0
N1628 N 0.10424 0.83168 0.87304 0.0
N1629 N 0.08231 0.85401 0.87314 0.0
C1630 C 0.09643 0.85779 0.88178 0.0
C1631 C 0.10834 0.84567 0.88173 0.0
C1632 C 0.26223 0.29476 1.00155 0.0
C1633 C 0.27142 0.28163 0.99603 0.0
C1634 C 0.25373 0.2949 0.01979 0.0
C1635 C 0.25413 0.28189 0.03322 0.0
H1636 H 0.26178 0.3051 0.99181 0.0
H1637 H 0.24704 0.30545 0.02355 0.0
S1638 S 0.2764 0.24451 0.02513 0.0
N1639 N 0.28059 0.25535 1.00496 0.0
N1640 N 0.26431 0.2553 0.03918 0.0
C1641 C 0.26327 0.26862 0.02768 0.0
C1642 C 0.27197 0.26855 1.00908 0.0
C1643 C 1.00499 0.02321 0.26139 0.0
C1644 C 0.99365 0.02079 0.24611 0.0
C1645 C 1.0045 0.01439 0.27951 0.0
C1646 C 0.99252 1.00303 0.28304 0.0
H1647 H 0.01427 0.03195 0.25928 0.0
H1648 H 0.01363 0.01641 0.29073 0.0
S1649 S 0.95926 0.99366 0.24812 0.0
N1650 N 0.96987 1.00699 0.23579 0.0
N1651 N 0.96838 0.99091 0.26994 0.0
C1652 C 0.98092 1.00091 0.26788 0.0
C1653 C 0.98162 1.00968 0.24943 0.0
C1654 C 0.2469 0.74152 0.51558 0.0
C1655 C 0.25411 0.74419 0.49654 0.0
C1656 C 0.25565 0.74161 0.53362 0.0
C1657 C 0.27202 0.74481 0.53365 0.0
H1658 H 0.23432 0.73906 0.51668 0.0
H1659 H 0.24955 0.7387 0.54758 0.0
S1660 S 0.29641 0.75499 0.48862 0.0
N1661 N 0.27868 0.75117 0.47927 0.0
N1662 N 0.29475 0.7527 0.51334 0.0
C1663 C 0.27923 0.74854 0.51498 0.0
C1664 C 0.27039 0.74801 0.49646 0.0
C1665 C 0.53253 0.01986 0.74726 0.0
C1666 C 0.53126 1.00324 0.7475 0.0
C1667 C 0.53243 0.02867 0.76526 0.0
C1668 C 0.53139 0.02129 0.78444 0.0
H1669 H 0.5341 0.02616 0.7331 0.0
H1670 H 0.53347 0.04143 0.76406 0.0
S1671 S 0.52609 0.97813 0.79324 0.0
N1672 N 0.52705 0.97988 0.76838 0.0
N1673 N 0.52815 0.99624 0.80225 0.0
C1674 C 0.52952 1.00471 0.78483 0.0
C1675 C 0.52923 0.99576 0.76641 0.0
C1676 C 0.7572 0.75217 0.99784 0.0
C1677 C 0.77364 0.74937 0.99891 0.0
C1678 C 0.74773 0.7525 0.01536 0.0
C1679 C 0.75423 0.74986 0.03475 0.0
H1680 H 0.75143 0.75367 0.98332 0.0
H1681 H 0.73514 0.75463 1.0136 0.0
S1682 S 0.79681 0.74309 0.04598 0.0
N1683 N 0.79621 0.74536 0.02119 0.0
N1684 N 0.7783 0.7447 0.05384 0.0
C1685 C 0.77071 0.74743 0.03605 0.0
C1686 C 0.7804 0.74745 0.01825 0.0
C1687 C 0.02465 0.01881 0.78323 0.0
C1688 C 0.02573 1.00221 0.78173 0.0
C1689 C 0.02446 0.02847 0.76591 0.0
C1690 C 0.02565 0.02205 0.74622 0.0
H1691 H 0.02444 0.0245 0.79792 0.0
H1692 H 0.02365 0.04116 0.76808 0.0
S1693 S 0.02723 0.97915 0.73392 0.0
N1694 N 0.02625 0.97967 0.75886 0.0
N1695 N 0.02725 0.99781 0.72645 0.0
C1696 C 0.02622 1.00543 0.74451 0.0
C1697 C 0.02601 0.99556 0.76217 0.0
C1698 C 0.7471 0.2772 0.51688 0.0
C1699 C 0.75329 0.27503 0.49715 0.0
C1700 C 0.75688 0.27721 0.5341 0.0
C1701 C 0.77333 0.27473 0.53257 0.0
H1702 H 0.73454 0.27923 0.51912 0.0
H1703 H 0.75151 0.27972 0.54866 0.0
S1704 S 0.79541 0.26611 0.48511 0.0
N1705 N 0.77704 0.26926 0.47754 0.0
N1706 N 0.7951 0.26803 0.50997 0.0
C1707 C 0.77955 0.27149 0.51316 0.0
C1708 C 0.76965 0.27186 0.49552 0.0
C1709 C 0.49928 1.00618 0.28335 0.0
C1710 C 0.50113 0.02273 0.28211 0.0
C1711 C 0.49936 0.99665 0.26592 0.0
C1712 C 0.50104 1.00321 0.24634 0.0
H1713 H 0.49726 1.00052 0.29786 0.0
H1714 H 0.49785 0.984 0.26789 0.0
S1715 S 0.50776 0.0458 0.23492 0.0
N1716 N 0.50638 0.04508 0.25982 0.0
N1717 N 0.50529 0.02742 0.22705 0.0
C1718 C 0.50341 0.0197 0.24496 0.0
C1719 C 0.50369 0.02936 0.26277 0.0
C1720 C 0.75281 0.77043 0.52016 0.0
C1721 C 0.75495 0.78218 0.53495 0.0
C1722 C 0.76163 0.77065 0.50205 0.0
C1723 C 0.7727 0.7828 0.49798 0.0
H1724 H 0.74417 0.76109 0.52254 0.0
H1725 H 0.75972 0.76125 0.49117 0.0
S1726 S 0.78142 0.81703 0.5315 0.0
N1727 N 0.76828 0.80648 0.54428 0.0
N1728 N 0.78441 0.80741 0.51009 0.0
C1729 C 0.77467 0.79473 0.51269 0.0
C1730 C 0.76588 0.79431 0.53117 0.0
C1731 C 0.48566 0.49917 0.7663 0.0
C1732 C 0.49438 0.50416 0.78347 0.0
C1733 C 0.48595 0.50765 0.74802 0.0
C1734 C 0.49456 0.5218 0.74618 0.0
H1735 H 0.47802 0.48888 0.76698 0.0
H1736 H 0.4788 0.50347 0.7355 0.0
S1737 S 0.52046 0.53973 0.78515 0.0
N1738 N 0.51326 0.52368 0.79614 0.0
N1739 N 0.51255 0.54023 0.76232 0.0
C1740 C 0.50347 0.52692 0.76286 0.0
C1741 C 0.50366 0.51801 0.78132 0.0
C1742 C 0.76014 0.25317 0.02929 0.0
C1743 C 0.773 0.24266 0.03201 0.0
C1744 C 0.7514 0.25345 1.01116 0.0
C1745 C 0.75542 0.24352 0.99487 0.0
H1746 H 0.75675 0.26127 0.04124 0.0
H1747 H 0.74143 0.26148 1.00985 0.0
S1748 S 0.78715 0.21329 0.99413 0.0
N1749 N 0.78846 0.22135 0.01682 0.0
N1750 N 0.77257 0.22267 0.98257 0.0
C1751 C 0.76819 0.23309 0.99721 0.0
C1752 C 0.77686 0.23249 0.01577 0.0
C1753 C 0.01974 0.52006 0.27136 0.0
C1754 C 0.03325 0.52134 0.28374 0.0
C1755 C 0.02021 0.51129 0.25319 0.0
C1756 C 0.03414 0.50341 0.24703 0.0
H1757 H 1.00885 0.52599 0.27566 0.0
H1758 H 1.00957 0.51049 0.24407 0.0
S1759 S 0.07263 0.50353 0.27424 0.0
N1760 N 0.06081 0.51431 0.28862 0.0
N1761 N 0.0618 0.49792 0.25472 0.0
C1762 C 0.04766 0.50474 0.2594 0.0
C1763 C 0.04718 0.51368 0.27768 0.0
C1764 C 0.26833 0.2527 0.5328 0.0
C1765 C 0.25206 0.24904 0.53133 0.0
C1766 C 0.27814 0.25316 0.51554 0.0
C1767 C 0.27221 0.24981 0.49602 0.0
H1768 H 0.27371 0.25469 0.54746 0.0
H1769 H 0.29058 0.2559 0.51762 0.0
S1770 S 0.23026 0.24082 0.48356 0.0
N1771 N 0.23021 0.2437 0.50826 0.0
N1772 N 0.24885 0.2431 0.47634 0.0
C1773 C 0.25591 0.24659 0.49428 0.0
C1774 C 0.24583 0.24654 0.51175 0.0
C1775 C 0.51651 0.50054 0.26789 0.0
C1776 C 0.52629 0.50354 0.28471 0.0
C1777 C 0.51692 0.51039 0.25061 0.0
C1778 C 0.52745 0.52338 0.24922 0.0
H1779 H 0.50851 0.49049 0.26811 0.0
H1780 H 0.50889 0.50775 0.23828 0.0
S1781 S 0.55665 0.53499 0.28882 0.0
N1782 N 0.54706 0.51984 0.29883 0.0
N1783 N 0.54882 0.53765 0.26619 0.0
C1784 C 0.53755 0.52614 0.26596 0.0
C1785 C 0.53674 0.51639 0.28367 0.0
C1786 C 0.2594 0.79025 1.00553 0.0
C1787 C 0.25331 0.77601 0.99771 0.0
C1788 C 0.26891 0.79043 0.02286 0.0
C1789 C 0.27281 0.77637 0.03327 0.0
H1790 H 0.25685 0.80142 0.9981 0.0
H1791 H 0.27321 0.80177 0.02822 0.0
S1792 S 0.25973 0.73591 0.01911 0.0
N1793 N 0.25165 0.74746 1.00172 0.0
N1794 N 0.26976 0.74774 0.03438 0.0
C1795 C 0.26674 0.76201 0.02569 0.0
C1796 C 0.25703 0.76184 1.00786 0.0
C1797 C 1.01312 0.51676 0.7749 0.0
C1798 C 0.99877 0.52244 0.7831 0.0
C1799 C 0.01325 0.50725 0.75732 0.0
C1800 C 0.99901 0.50292 0.74763 0.0
H1801 H 0.0243 0.51986 0.78192 0.0
H1802 H 0.0245 0.50309 0.75145 0.0
S1803 S 0.95842 0.51471 0.76307 0.0
N1804 N 0.97005 0.52281 0.78025 0.0
N1805 N 0.97035 0.50542 0.74724 0.0
C1806 C 0.98469 0.50859 0.7557 0.0
C1807 C 0.98455 0.51819 0.77342 0.0
loop_
_geom_bond_atom_site_label_1
_geom_bond_atom_site_label_2
_geom_bond_distance
_geom_bond_site_symmetry_2
_ccdc_geom_bond_type
C0 C1 1.264 . S
C0 C5 1.479 . S
C0 C10 1.465 . S
C1 C0 1.264 . S
C1 C3 1.339 . S
C1 H28 0.931 . S
C2 C3 1.395 . S
C2 C4 1.320 . S
C3 C1 1.339 . S
C3 C2 1.395 . S
C3 H29 0.929 . S
C4 C2 1.320 . S
C4 C5 1.405 . S
C4 H30 0.930 . S
C5 C0 1.479 . S
C5 C4 1.405 . S
C5 H31 0.931 . S
U6 O7 2.454 . S
U6 O8 2.458 . S
U6 C9 2.984 . S
U6 C10 2.847 . S
U6 C23 2.882 . S
U6 O24 2.441 . S
U6 O25 2.420 . S
U6 O26 2.455 . S
U6 O27 2.449 . S
O7 U6 2.454 . S
O7 C9 1.353 . S
O8 U6 2.458 . S
O8 C9 1.286 . S
C9 U6 2.984 . S
C9 O7 1.353 . S
C9 O8 1.286 . S
C9 C11 1.363 . S
C10 C0 1.465 . S
C10 U6 2.847 . S
C10 O24 1.249 . S
C10 O25 1.202 . S
C11 C9 1.363 . S
C11 C13 1.408 . S
C11 C16 1.342 . S
C12 C13 1.310 . S
C12 C15 1.461 . S
C12 H32 0.932 . S
C13 C11 1.408 . S
C13 C12 1.310 . S
C13 H33 0.930 . S
C14 C15 1.474 . S
C14 C16 1.285 . S
C14 H34 0.929 . S
C15 C12 1.461 . S
C15 C14 1.474 . S
C16 C11 1.342 . S
C16 C14 1.285 . S
C16 H35 0.930 . S
C17 C20 1.424 . S
C17 C22 1.245 . S
C17 C23 1.428 . S
C18 C21 1.260 . S
C18 C22 1.477 . S
C18 H36 0.932 . S
C19 C20 1.384 . S
C19 C21 1.479 . S
C19 H37 0.929 . S
C20 C17 1.424 . S
C20 C19 1.384 . S
C20 H38 0.928 . S
C21 C18 1.260 . S
C21 C19 1.479 . S
C22 C17 1.245 . S
C22 C18 1.477 . S
C22 H39 0.932 . S
C23 U6 2.882 . S
C23 C17 1.428 . S
C23 O26 1.301 . S
C23 O27 1.282 . S
O24 U6 2.441 . S
O24 C10 1.249 . S
O25 U6 2.420 . S
O25 C10 1.202 . S
O26 U6 2.455 . S
O26 C23 1.301 . S
O27 U6 2.449 . S
O27 C23 1.282 . S
H28 C1 0.931 . S
H29 C3 0.929 . S
H30 C4 0.930 . S
H31 C5 0.931 . S
H32 C12 0.932 . S
H33 C13 0.930 . S
H34 C14 0.929 . S
H35 C16 0.930 . S
H36 C18 0.932 . S
H37 C19 0.929 . S
H38 C20 0.928 . S
H39 C22 0.932 . S
C40 C41 1.264 . S
C40 C45 1.479 . S
C40 C50 1.465 . S
C41 C40 1.264 . S
C41 C43 1.339 . S
C41 H68 0.931 . S
C42 C43 1.395 . S
C42 C44 1.320 . S
C43 C41 1.339 . S
C43 C42 1.395 . S
C43 H69 0.929 . S
C44 C42 1.320 . S
C44 C45 1.405 . S
C44 H70 0.930 . S
C45 C40 1.479 . S
C45 C44 1.405 . S
C45 H71 0.931 . S
U46 O47 2.454 . S
U46 O48 2.458 . S
U46 C49 2.984 . S
U46 C50 2.847 . S
U46 C63 2.882 . S
U46 O64 2.441 . S
U46 O65 2.420 . S
U46 O66 2.455 . S
U46 O67 2.449 . S
O47 U46 2.454 . S
O47 C49 1.353 . S
O48 U46 2.458 . S
O48 C49 1.286 . S
C49 U46 2.984 . S
C49 O47 1.353 . S
C49 O48 1.286 . S
C49 C51 1.363 . S
C50 C40 1.465 . S
C50 U46 2.847 . S
C50 O64 1.249 . S
C50 O65 1.202 . S
C51 C49 1.363 . S
C51 C53 1.408 . S
C51 C56 1.299 1_655 S
C52 C53 1.310 . S
C52 C55 1.461 1_655 S
C52 H72 0.932 . S
C53 C51 1.408 . S
C53 C52 1.310 . S
C53 H73 0.930 . S
C54 C55 1.474 . S
C54 C56 1.319 . S
C54 H74 0.929 . S
C55 C52 1.461 1_455 S
C55 C54 1.474 . S
C56 C51 1.299 1_455 S
C56 C54 1.319 . S
C56 H75 0.945 . S
C57 C60 1.424 . S
C57 C62 1.245 . S
C57 C63 1.428 . S
C58 C61 1.260 . S
C58 C62 1.477 . S
C58 H76 0.932 . S
C59 C60 1.384 . S
C59 C61 1.479 . S
C59 H77 0.929 . S
C60 C57 1.424 . S
C60 C59 1.384 . S
C60 H78 0.928 . S
C61 C58 1.260 . S
C61 C59 1.479 . S
C62 C57 1.245 . S
C62 C58 1.477 . S
C62 H79 0.932 . S
C63 U46 2.882 . S
C63 C57 1.428 . S
C63 O66 1.301 . S
C63 O67 1.282 . S
O64 U46 2.441 . S
O64 C50 1.249 . S
O65 U46 2.420 . S
O65 C50 1.202 . S
O66 U46 2.455 . S
O66 C63 1.301 . S
O67 U46 2.449 . S
O67 C63 1.282 . S
H68 C41 0.931 . S
H69 C43 0.929 . S
H70 C44 0.930 . S
H71 C45 0.931 . S
H72 C52 0.932 . S
H73 C53 0.930 . S
H74 C54 0.929 . S
H75 C56 0.945 . S
H76 C58 0.932 . S
H77 C59 0.929 . S
H78 C60 0.928 . S
H79 C62 0.932 . S
C80 C81 1.264 . S
C80 C85 1.479 . S
C80 C90 1.465 . S
C81 C80 1.264 . S
C81 C83 1.339 . S
C81 H108 0.931 . S
C82 C83 1.395 . S
C82 C84 1.320 . S
C83 C81 1.339 . S
C83 C82 1.395 . S
C83 H109 0.929 . S
C84 C82 1.320 . S
C84 C85 1.405 . S
C84 H110 0.930 . S
C85 C80 1.479 . S
C85 C84 1.405 . S
C85 H111 0.931 . S
U86 O87 2.454 . S
U86 O88 2.458 . S
U86 C89 2.984 . S
U86 C90 2.847 . S
U86 C103 2.882 . S
U86 O104 2.441 . S
U86 O105 2.420 . S
U86 O106 2.455 . S
U86 O107 2.449 . S
O87 U86 2.454 . S
O87 C89 1.353 . S
O88 U86 2.458 . S
O88 C89 1.286 . S
C89 U86 2.984 . S
C89 O87 1.353 . S
C89 O88 1.286 . S
C89 C91 1.363 . S
C90 C80 1.465 . S
C90 U86 2.847 . S
C90 O104 1.249 . S
C90 O105 1.202 . S
C91 C89 1.363 . S
C91 C93 1.408 . S
C91 C96 1.342 . S
C92 C93 1.310 . S
C92 C95 1.461 . S
C92 H112 0.932 . S
C93 C91 1.408 . S
C93 C92 1.310 . S
C93 H113 0.930 . S
C94 C95 1.474 . S
C94 C96 1.285 . S
C94 H114 0.929 . S
C95 C92 1.461 . S
C95 C94 1.474 . S
C96 C91 1.342 . S
C96 C94 1.285 . S
C96 H115 0.930 . S
C97 C100 1.424 . S
C97 C102 1.245 . S
C97 C103 1.428 . S
C98 C101 1.260 . S
C98 C102 1.477 . S
C98 H116 0.932 . S
C99 C100 1.384 . S
C99 C101 1.479 . S
C99 H117 0.929 . S
C100 C97 1.424 . S
C100 C99 1.384 . S
C100 H118 0.928 . S
C101 C98 1.260 . S
C101 C99 1.479 . S
C102 C97 1.245 . S
C102 C98 1.477 . S
C102 H119 0.932 . S
C103 U86 2.882 . S
C103 C97 1.428 . S
C103 O106 1.301 . S
C103 O107 1.282 . S
O104 U86 2.441 . S
O104 C90 1.249 . S
O105 U86 2.420 . S
O105 C90 1.202 . S
O106 U86 2.455 . S
O106 C103 1.301 . S
O107 U86 2.449 . S
O107 C103 1.282 . S
H108 C81 0.931 . S
H109 C83 0.929 . S
H110 C84 0.930 . S
H111 C85 0.931 . S
H112 C92 0.932 . S
H113 C93 0.930 . S
H114 C94 0.929 . S
H115 C96 0.930 . S
H116 C98 0.932 . S
H117 C99 0.929 . S
H118 C100 0.928 . S
H119 C102 0.932 . S
C120 C121 1.264 . S
C120 C125 1.479 . S
C120 C130 1.465 . S
C121 C120 1.264 . S
C121 C123 1.339 . S
C121 H148 0.931 . S
C122 C123 1.395 . S
C122 C124 1.320 . S
C123 C121 1.339 . S
C123 C122 1.395 . S
C123 H149 0.929 . S
C124 C122 1.320 . S
C124 C125 1.405 . S
C124 H150 0.930 . S
C125 C120 1.479 . S
C125 C124 1.405 . S
C125 H151 0.931 . S
U126 O127 2.454 . S
U126 O128 2.458 . S
U126 C129 2.984 . S
U126 C130 2.847 . S
U126 C143 2.882 . S
U126 O144 2.441 . S
U126 O145 2.420 . S
U126 O146 2.455 . S
U126 O147 2.449 . S
O127 U126 2.454 . S
O127 C129 1.353 . S
O128 U126 2.458 . S
O128 C129 1.286 . S
C129 U126 2.984 . S
C129 O127 1.353 . S
C129 O128 1.286 . S
C129 C131 1.363 . S
C130 C120 1.465 . S
C130 U126 2.847 . S
C130 O144 1.249 . S
C130 O145 1.202 . S
C131 C129 1.363 . S
C131 C133 1.408 . S
C131 C136 1.342 . S
C132 C133 1.310 . S
C132 C135 1.461 . S
C132 H152 0.932 . S
C133 C131 1.408 . S
C133 C132 1.310 . S
C133 H153 0.930 . S
C134 C135 1.474 . S
C134 C136 1.285 . S
C134 H154 0.929 . S
C135 C132 1.461 . S
C135 C134 1.474 . S
C136 C131 1.342 . S
C136 C134 1.285 . S
C136 H155 0.930 . S
C137 C140 1.424 . S
C137 C142 1.245 . S
C137 C143 1.428 . S
C138 C141 1.260 . S
C138 C142 1.477 . S
C138 H156 0.932 . S
C139 C140 1.384 . S
C139 C141 1.479 . S
C139 H157 0.929 . S
C140 C137 1.424 . S
C140 C139 1.384 . S
C140 H158 0.928 . S
C141 C138 1.260 . S
C141 C139 1.479 . S
C142 C137 1.245 . S
C142 C138 1.477 . S
C142 H159 0.932 . S
C143 U126 2.882 . S
C143 C137 1.428 . S
C143 O146 1.301 . S
C143 O147 1.282 . S
O144 U126 2.441 . S
O144 C130 1.249 . S
O145 U126 2.420 . S
O145 C130 1.202 . S
O146 U126 2.455 . S
O146 C143 1.301 . S
O147 U126 2.449 . S
O147 C143 1.282 . S
H148 C121 0.931 . S
H149 C123 0.929 . S
H150 C124 0.930 . S
H151 C125 0.931 . S
H152 C132 0.932 . S
H153 C133 0.930 . S
H154 C134 0.929 . S
H155 C136 0.930 . S
H156 C138 0.932 . S
H157 C139 0.929 . S
H158 C140 0.928 . S
H159 C142 0.932 . S
C160 C161 1.264 . S
C160 C165 1.479 . S
C160 C170 1.465 . S
C161 C160 1.264 . S
C161 C163 1.339 . S
C161 H188 0.931 . S
C162 C163 1.395 . S
C162 C164 1.320 . S
C163 C161 1.339 . S
C163 C162 1.395 . S
C163 H189 0.929 . S
C164 C162 1.320 . S
C164 C165 1.405 . S
C164 H190 0.930 . S
C165 C160 1.479 . S
C165 C164 1.405 . S
C165 H191 0.931 . S
U166 O167 2.454 . S
U166 O168 2.458 . S
U166 C169 2.984 . S
U166 C170 2.847 . S
U166 C183 2.882 . S
U166 O184 2.441 . S
U166 O185 2.420 . S
U166 O186 2.455 . S
U166 O187 2.449 . S
O167 U166 2.454 . S
O167 C169 1.353 . S
O168 U166 2.458 . S
O168 C169 1.286 . S
C169 U166 2.984 . S
C169 O167 1.353 . S
C169 O168 1.286 . S
C169 C171 1.363 . S
C170 C160 1.465 . S
C170 U166 2.847 . S
C170 O184 1.249 . S
C170 O185 1.202 . S
C171 C169 1.363 . S
C171 C173 1.408 . S
C171 C176 1.342 . S
C172 C173 1.310 . S
C172 C175 1.461 . S
C172 H192 0.932 . S
C173 C171 1.408 . S
C173 C172 1.310 . S
C173 H193 0.930 . S
C174 C175 1.474 . S
C174 C176 1.285 . S
C174 H194 0.929 . S
C175 C172 1.461 . S
C175 C174 1.474 . S
C176 C171 1.342 . S
C176 C174 1.285 . S
C176 H195 0.930 . S
C177 C180 1.424 . S
C177 C182 1.245 . S
C177 C183 1.428 . S
C178 C181 1.260 . S
C178 C182 1.477 . S
C178 H196 0.932 . S
C179 C180 1.384 . S
C179 C181 1.479 . S
C179 H197 0.929 . S
C180 C177 1.424 . S
C180 C179 1.384 . S
C180 H198 0.928 . S
C181 C178 1.260 . S
C181 C179 1.479 . S
C182 C177 1.245 . S
C182 C178 1.477 . S
C182 H199 0.932 . S
C183 U166 2.882 . S
C183 C177 1.428 . S
C183 O186 1.301 . S
C183 O187 1.282 . S
O184 U166 2.441 . S
O184 C170 1.249 . S
O185 U166 2.420 . S
O185 C170 1.202 . S
O186 U166 2.455 . S
O186 C183 1.301 . S
O187 U166 2.449 . S
O187 C183 1.282 . S
H188 C161 0.931 . S
H189 C163 0.929 . S
H190 C164 0.930 . S
H191 C165 0.931 . S
H192 C172 0.932 . S
H193 C173 0.930 . S
H194 C174 0.929 . S
H195 C176 0.930 . S
H196 C178 0.932 . S
H197 C179 0.929 . S
H198 C180 0.928 . S
H199 C182 0.932 . S
C200 C201 1.264 . S
C200 C205 1.479 . S
C200 C210 1.465 . S
C201 C200 1.264 . S
C201 C203 1.339 . S
C201 H228 0.931 . S
C202 C203 1.395 . S
C202 C204 1.320 . S
C203 C201 1.339 . S
C203 C202 1.395 . S
C203 H229 0.929 . S
C204 C202 1.320 . S
C204 C205 1.405 . S
C204 H230 0.930 . S
C205 C200 1.479 . S
C205 C204 1.405 . S
C205 H231 0.931 . S
U206 O207 2.454 . S
U206 O208 2.458 . S
U206 C209 2.984 . S
U206 C210 2.847 . S
U206 C223 2.882 . S
U206 O224 2.441 . S
U206 O225 2.420 . S
U206 O226 2.455 . S
U206 O227 2.449 . S
O207 U206 2.454 . S
O207 C209 1.353 . S
O208 U206 2.458 . S
O208 C209 1.286 . S
C209 U206 2.984 . S
C209 O207 1.353 . S
C209 O208 1.286 . S
C209 C211 1.363 . S
C210 C200 1.465 . S
C210 U206 2.847 . S
C210 O224 1.249 . S
C210 O225 1.202 . S
C211 C209 1.363 . S
C211 C213 1.408 . S
C211 C216 1.342 . S
C212 C213 1.310 . S
C212 C215 1.461 . S
C212 H232 0.932 . S
C213 C211 1.408 . S
C213 C212 1.310 . S
C213 H233 0.930 . S
C214 C215 1.474 . S
C214 C216 1.285 . S
C214 H234 0.929 . S
C215 C212 1.461 . S
C215 C214 1.474 . S
C216 C211 1.342 . S
C216 C214 1.285 . S
C216 H235 0.930 . S
C217 C220 1.424 . S
C217 C222 1.245 . S
C217 C223 1.428 . S
C218 C221 1.260 . S
C218 C222 1.477 . S
C218 H236 0.932 . S
C219 C220 1.384 . S
C219 C221 1.479 . S
C219 H237 0.929 . S
C220 C217 1.424 . S
C220 C219 1.384 . S
C220 H238 0.928 . S
C221 C218 1.260 . S
C221 C219 1.479 . S
C222 C217 1.245 . S
C222 C218 1.477 . S
C222 H239 0.932 . S
C223 U206 2.882 . S
C223 C217 1.428 . S
C223 O226 1.301 . S
C223 O227 1.282 . S
O224 U206 2.441 . S
O224 C210 1.249 . S
O225 U206 2.420 . S
O225 C210 1.202 . S
O226 U206 2.455 . S
O226 C223 1.301 . S
O227 U206 2.449 . S
O227 C223 1.282 . S
H228 C201 0.931 . S
H229 C203 0.929 . S
H230 C204 0.930 . S
H231 C205 0.931 . S
H232 C212 0.932 . S
H233 C213 0.930 . S
H234 C214 0.929 . S
H235 C216 0.930 . S
H236 C218 0.932 . S
H237 C219 0.929 . S
H238 C220 0.928 . S
H239 C222 0.932 . S
C240 C241 1.264 . S
C240 C245 1.479 . S
C240 C250 1.465 . S
C241 C240 1.264 . S
C241 C243 1.339 . S
C241 H268 0.931 . S
C242 C243 1.395 . S
C242 C244 1.320 . S
C243 C241 1.339 . S
C243 C242 1.395 . S
C243 H269 0.929 . S
C244 C242 1.320 . S
C244 C245 1.405 . S
C244 H270 0.930 . S
C245 C240 1.479 . S
C245 C244 1.405 . S
C245 H271 0.931 . S
U246 O247 2.454 . S
U246 O248 2.458 . S
U246 C249 2.984 . S
U246 C250 2.847 . S
U246 C263 2.882 . S
U246 O264 2.441 . S
U246 O265 2.420 . S
U246 O266 2.455 . S
U246 O267 2.449 . S
O247 U246 2.454 . S
O247 C249 1.353 . S
O248 U246 2.458 . S
O248 C249 1.286 . S
C249 U246 2.984 . S
C249 O247 1.353 . S
C249 O248 1.286 . S
C249 C251 1.363 . S
C250 C240 1.465 . S
C250 U246 2.847 . S
C250 O264 1.249 . S
C250 O265 1.202 . S
C251 C249 1.363 . S
C251 C253 1.408 . S
C251 C256 1.342 . S
C252 C253 1.310 . S
C252 C255 1.461 . S
C252 H272 0.932 . S
C253 C251 1.408 . S
C253 C252 1.310 . S
C253 H273 0.930 . S
C254 C255 1.474 . S
C254 C256 1.285 . S
C254 H274 0.929 . S
C255 C252 1.461 . S
C255 C254 1.474 . S
C256 C251 1.342 . S
C256 C254 1.285 . S
C256 H275 0.930 . S
C257 C260 1.424 . S
C257 C262 1.245 . S
C257 C263 1.428 . S
C258 C261 1.260 . S
C258 C262 1.477 . S
C258 H276 0.932 . S
C259 C260 1.384 . S
C259 C261 1.479 . S
C259 H277 0.929 . S
C260 C257 1.424 . S
C260 C259 1.384 . S
C260 H278 0.928 . S
C261 C258 1.260 . S
C261 C259 1.479 . S
C262 C257 1.245 . S
C262 C258 1.477 . S
C262 H279 0.932 . S
C263 U246 2.882 . S
C263 C257 1.428 . S
C263 O266 1.301 . S
C263 O267 1.282 . S
O264 U246 2.441 . S
O264 C250 1.249 . S
O265 U246 2.420 . S
O265 C250 1.202 . S
O266 U246 2.455 . S
O266 C263 1.301 . S
O267 U246 2.449 . S
O267 C263 1.282 . S
H268 C241 0.931 . S
H269 C243 0.929 . S
H270 C244 0.930 . S
H271 C245 0.931 . S
H272 C252 0.932 . S
H273 C253 0.930 . S
H274 C254 0.929 . S
H275 C256 0.930 . S
H276 C258 0.932 . S
H277 C259 0.929 . S
H278 C260 0.928 . S
H279 C262 0.932 . S
C280 C281 1.264 . S
C280 C285 1.479 . S
C280 C290 1.465 . S
C281 C280 1.264 . S
C281 C283 1.339 . S
C281 H308 0.931 . S
C282 C283 1.395 . S
C282 C284 1.320 . S
C283 C281 1.339 . S
C283 C282 1.395 . S
C283 H309 0.929 . S
C284 C282 1.320 . S
C284 C285 1.405 . S
C284 H310 0.930 . S
C285 C280 1.479 . S
C285 C284 1.405 . S
C285 H311 0.931 . S
U286 O287 2.454 . S
U286 O288 2.458 . S
U286 C289 2.984 . S
U286 C290 2.847 . S
U286 C303 2.882 . S
U286 O304 2.441 . S
U286 O305 2.420 . S
U286 O306 2.455 . S
U286 O307 2.449 . S
O287 U286 2.454 . S
O287 C289 1.353 . S
O288 U286 2.458 . S
O288 C289 1.286 . S
C289 U286 2.984 . S
C289 O287 1.353 . S
C289 O288 1.286 . S
C289 C291 1.363 . S
C290 C280 1.465 . S
C290 U286 2.847 . S
C290 O304 1.249 . S
C290 O305 1.202 . S
C291 C289 1.363 . S
C291 C293 1.408 . S
C291 C296 1.299 1_655 S
C292 C293 1.310 . S
C292 C295 1.461 1_655 S
C292 H312 0.932 . S
C293 C291 1.408 . S
C293 C292 1.310 . S
C293 H313 0.930 . S
C294 C295 1.474 . S
C294 C296 1.319 . S
C294 H314 0.929 . S
C295 C292 1.461 1_455 S
C295 C294 1.474 . S
C296 C291 1.299 1_455 S
C296 C294 1.319 . S
C296 H315 0.945 . S
C297 C300 1.424 . S
C297 C302 1.245 . S
C297 C303 1.428 . S
C298 C301 1.260 . S
C298 C302 1.477 . S
C298 H316 0.932 . S
C299 C300 1.384 . S
C299 C301 1.479 . S
C299 H317 0.929 . S
C300 C297 1.424 . S
C300 C299 1.384 . S
C300 H318 0.928 . S
C301 C298 1.260 . S
C301 C299 1.479 . S
C302 C297 1.245 . S
C302 C298 1.477 . S
C302 H319 0.932 . S
C303 U286 2.882 . S
C303 C297 1.428 . S
C303 O306 1.301 . S
C303 O307 1.282 . S
O304 U286 2.441 . S
O304 C290 1.249 . S
O305 U286 2.420 . S
O305 C290 1.202 . S
O306 U286 2.455 . S
O306 C303 1.301 . S
O307 U286 2.449 . S
O307 C303 1.282 . S
H308 C281 0.931 . S
H309 C283 0.929 . S
H310 C284 0.930 . S
H311 C285 0.931 . S
H312 C292 0.932 . S
H313 C293 0.930 . S
H314 C294 0.929 . S
H315 C296 0.945 . S
H316 C298 0.932 . S
H317 C299 0.929 . S
H318 C300 0.928 . S
H319 C302 0.932 . S
C320 C321 1.264 . S
C320 C325 1.479 . S
C320 C330 1.465 . S
C321 C320 1.264 . S
C321 C323 1.339 . S
C321 H348 0.931 . S
C322 C323 1.395 . S
C322 C324 1.320 . S
C323 C321 1.339 . S
C323 C322 1.395 . S
C323 H349 0.929 . S
C324 C322 1.320 . S
C324 C325 1.405 . S
C324 H350 0.930 . S
C325 C320 1.479 . S
C325 C324 1.405 . S
C325 H351 0.931 . S
U326 O327 2.454 . S
U326 O328 2.458 . S
U326 C329 2.984 . S
U326 C330 2.847 . S
U326 C343 2.882 . S
U326 O344 2.441 . S
U326 O345 2.420 . S
U326 O346 2.455 . S
U326 O347 2.449 . S
O327 U326 2.454 . S
O327 C329 1.353 . S
O328 U326 2.458 . S
O328 C329 1.286 . S
C329 U326 2.984 . S
C329 O327 1.353 . S
C329 O328 1.286 . S
C329 C331 1.363 . S
C330 C320 1.465 . S
C330 U326 2.847 . S
C330 O344 1.249 . S
C330 O345 1.202 . S
C331 C329 1.363 . S
C331 C333 1.408 . S
C331 C336 1.342 . S
C332 C333 1.310 . S
C332 C335 1.461 . S
C332 H352 0.932 . S
C333 C331 1.408 . S
C333 C332 1.310 . S
C333 H353 0.930 . S
C334 C335 1.474 . S
C334 C336 1.285 . S
C334 H354 0.929 . S
C335 C332 1.461 . S
C335 C334 1.474 . S
C336 C331 1.342 . S
C336 C334 1.285 . S
C336 H355 0.930 . S
C337 C340 1.424 . S
C337 C342 1.245 . S
C337 C343 1.428 . S
C338 C341 1.260 . S
C338 C342 1.477 . S
C338 H356 0.932 . S
C339 C340 1.384 . S
C339 C341 1.479 . S
C339 H357 0.929 . S
C340 C337 1.424 . S
C340 C339 1.384 . S
C340 H358 0.928 . S
C341 C338 1.260 . S
C341 C339 1.479 . S
C342 C337 1.245 . S
C342 C338 1.477 . S
C342 H359 0.932 . S
C343 U326 2.882 . S
C343 C337 1.428 . S
C343 O346 1.301 . S
C343 O347 1.282 . S
O344 U326 2.441 . S
O344 C330 1.249 . S
O345 U326 2.420 . S
O345 C330 1.202 . S
O346 U326 2.455 . S
O346 C343 1.301 . S
O347 U326 2.449 . S
O347 C343 1.282 . S
H348 C321 0.931 . S
H349 C323 0.929 . S
H350 C324 0.930 . S
H351 C325 0.931 . S
H352 C332 0.932 . S
H353 C333 0.930 . S
H354 C334 0.929 . S
H355 C336 0.930 . S
H356 C338 0.932 . S
H357 C339 0.929 . S
H358 C340 0.928 . S
H359 C342 0.932 . S
C360 C361 1.264 . S
C360 C365 1.479 . S
C360 C370 1.465 . S
C361 C360 1.264 . S
C361 C363 1.339 . S
C361 H388 0.931 . S
C362 C363 1.395 . S
C362 C364 1.320 . S
C363 C361 1.339 . S
C363 C362 1.395 . S
C363 H389 0.929 . S
C364 C362 1.320 . S
C364 C365 1.405 . S
C364 H390 0.930 . S
C365 C360 1.479 . S
C365 C364 1.405 . S
C365 H391 0.931 . S
U366 O367 2.454 . S
U366 O368 2.458 . S
U366 C369 2.984 . S
U366 C370 2.847 . S
U366 C383 2.882 . S
U366 O384 2.441 . S
U366 O385 2.420 . S
U366 O386 2.455 . S
U366 O387 2.449 . S
O367 U366 2.454 . S
O367 C369 1.353 . S
O368 U366 2.458 . S
O368 C369 1.286 . S
C369 U366 2.984 . S
C369 O367 1.353 . S
C369 O368 1.286 . S
C369 C371 1.363 . S
C370 C360 1.465 . S
C370 U366 2.847 . S
C370 O384 1.249 . S
C370 O385 1.202 . S
C371 C369 1.363 . S
C371 C373 1.408 . S
C371 C376 1.342 1_455 S
C372 C373 1.310 . S
C372 C375 1.461 1_455 S
C372 H392 0.932 . S
C373 C371 1.408 . S
C373 C372 1.310 . S
C373 H393 0.930 . S
C374 C375 1.474 . S
C374 C376 1.285 . S
C374 H394 0.929 . S
C375 C372 1.461 1_655 S
C375 C374 1.474 . S
C376 C371 1.342 1_655 S
C376 C374 1.285 . S
C376 H395 0.930 . S
C377 C380 1.424 . S
C377 C382 1.245 . S
C377 C383 1.428 . S
C378 C381 1.260 . S
C378 C382 1.477 . S
C378 H396 0.932 1_455 S
C379 C380 1.384 . S
C379 C381 1.479 . S
C379 H397 0.929 . S
C380 C377 1.424 . S
C380 C379 1.384 . S
C380 H398 0.928 . S
C381 C378 1.260 . S
C381 C379 1.479 . S
C382 C377 1.245 . S
C382 C378 1.477 . S
C382 H399 0.909 1_455 S
C383 U366 2.882 . S
C383 C377 1.428 . S
C383 O386 1.301 . S
C383 O387 1.282 . S
O384 U366 2.441 . S
O384 C370 1.249 . S
O385 U366 2.420 . S
O385 C370 1.202 . S
O386 U366 2.455 . S
O386 C383 1.301 . S
O387 U366 2.449 . S
O387 C383 1.282 . S
H388 C361 0.931 . S
H389 C363 0.929 . S
H390 C364 0.930 . S
H391 C365 0.931 . S
H392 C372 0.932 . S
H393 C373 0.930 . S
H394 C374 0.929 . S
H395 C376 0.930 . S
H396 C378 0.932 1_655 S
H397 C379 0.929 . S
H398 C380 0.928 . S
H399 C382 0.909 1_655 S
C400 C401 1.264 . S
C400 C405 1.479 . S
C400 C410 1.465 . S
C401 C400 1.264 . S
C401 C403 1.339 . S
C401 H428 0.931 . S
C402 C403 1.395 . S
C402 C404 1.320 . S
C403 C401 1.339 . S
C403 C402 1.395 . S
C403 H429 0.929 . S
C404 C402 1.320 . S
C404 C405 1.405 . S
C404 H430 0.930 . S
C405 C400 1.479 . S
C405 C404 1.405 . S
C405 H431 0.931 . S
U406 O407 2.454 . S
U406 O408 2.458 . S
U406 C409 2.984 . S
U406 C410 2.847 . S
U406 C423 2.882 . S
U406 O424 2.441 . S
U406 O425 2.420 . S
U406 O426 2.455 . S
U406 O427 2.449 . S
O407 U406 2.454 . S
O407 C409 1.353 . S
O408 U406 2.458 . S
O408 C409 1.286 . S
C409 U406 2.984 . S
C409 O407 1.353 . S
C409 O408 1.286 . S
C409 C411 1.363 . S
C410 C400 1.465 . S
C410 U406 2.847 . S
C410 O424 1.249 . S
C410 O425 1.202 . S
C411 C409 1.363 . S
C411 C413 1.408 . S
C411 C416 1.342 . S
C412 C413 1.310 . S
C412 C415 1.461 . S
C412 H432 0.932 . S
C413 C411 1.408 . S
C413 C412 1.310 . S
C413 H433 0.930 . S
C414 C415 1.474 . S
C414 C416 1.285 . S
C414 H434 0.929 . S
C415 C412 1.461 . S
C415 C414 1.474 . S
C416 C411 1.342 . S
C416 C414 1.285 . S
C416 H435 0.930 . S
C417 C420 1.424 . S
C417 C422 1.245 . S
C417 C423 1.428 . S
C418 C421 1.260 . S
C418 C422 1.477 . S
C418 H436 0.932 . S
C419 C420 1.384 . S
C419 C421 1.479 . S
C419 H437 0.929 . S
C420 C417 1.424 . S
C420 C419 1.384 . S
C420 H438 0.928 . S
C421 C418 1.260 . S
C421 C419 1.479 . S
C422 C417 1.245 . S
C422 C418 1.477 . S
C422 H439 0.932 . S
C423 U406 2.882 . S
C423 C417 1.428 . S
C423 O426 1.301 . S
C423 O427 1.282 . S
O424 U406 2.441 . S
O424 C410 1.249 . S
O425 U406 2.420 . S
O425 C410 1.202 . S
O426 U406 2.455 . S
O426 C423 1.301 . S
O427 U406 2.449 . S
O427 C423 1.282 . S
H428 C401 0.931 . S
H429 C403 0.929 . S
H430 C404 0.930 . S
H431 C405 0.931 . S
H432 C412 0.932 . S
H433 C413 0.930 . S
H434 C414 0.929 . S
H435 C416 0.930 . S
H436 C418 0.932 . S
H437 C419 0.929 . S
H438 C420 0.928 . S
H439 C422 0.932 . S
C440 C441 1.264 . S
C440 C445 1.479 . S
C440 C450 1.465 . S
C441 C440 1.264 . S
C441 C443 1.339 . S
C441 H468 0.931 . S
C442 C443 1.395 . S
C442 C444 1.320 . S
C443 C441 1.339 . S
C443 C442 1.395 . S
C443 H469 0.929 . S
C444 C442 1.320 . S
C444 C445 1.405 . S
C444 H470 0.930 . S
C445 C440 1.479 . S
C445 C444 1.405 . S
C445 H471 0.931 . S
U446 O447 2.454 . S
U446 O448 2.458 . S
U446 C449 2.984 . S
U446 C450 2.847 . S
U446 C463 2.882 . S
U446 O464 2.441 . S
U446 O465 2.420 . S
U446 O466 2.455 . S
U446 O467 2.449 . S
O447 U446 2.454 . S
O447 C449 1.353 . S
O448 U446 2.458 . S
O448 C449 1.286 . S
C449 U446 2.984 . S
C449 O447 1.353 . S
C449 O448 1.286 . S
C449 C451 1.363 . S
C450 C440 1.465 . S
C450 U446 2.847 . S
C450 O464 1.249 . S
C450 O465 1.202 . S
C451 C449 1.363 . S
C451 C453 1.408 . S
C451 C456 1.342 . S
C452 C453 1.310 . S
C452 C455 1.461 . S
C452 H472 0.932 . S
C453 C451 1.408 . S
C453 C452 1.310 . S
C453 H473 0.930 . S
C454 C455 1.474 . S
C454 C456 1.285 . S
C454 H474 0.929 . S
C455 C452 1.461 . S
C455 C454 1.474 . S
C456 C451 1.342 . S
C456 C454 1.285 . S
C456 H475 0.930 . S
C457 C460 1.424 . S
C457 C462 1.245 . S
C457 C463 1.428 . S
C458 C461 1.260 . S
C458 C462 1.477 . S
C458 H476 0.932 . S
C459 C460 1.384 . S
C459 C461 1.479 . S
C459 H477 0.929 . S
C460 C457 1.424 . S
C460 C459 1.384 . S
C460 H478 0.928 . S
C461 C458 1.260 . S
C461 C459 1.479 . S
C462 C457 1.245 . S
C462 C458 1.477 . S
C462 H479 0.932 . S
C463 U446 2.882 . S
C463 C457 1.428 . S
C463 O466 1.301 . S
C463 O467 1.282 . S
O464 U446 2.441 . S
O464 C450 1.249 . S
O465 U446 2.420 . S
O465 C450 1.202 . S
O466 U446 2.455 . S
O466 C463 1.301 . S
O467 U446 2.449 . S
O467 C463 1.282 . S
H468 C441 0.931 . S
H469 C443 0.929 . S
H470 C444 0.930 . S
H471 C445 0.931 . S
H472 C452 0.932 . S
H473 C453 0.930 . S
H474 C454 0.929 . S
H475 C456 0.930 . S
H476 C458 0.932 . S
H477 C459 0.929 . S
H478 C460 0.928 . S
H479 C462 0.932 . S
C480 C481 1.264 . S
C480 C485 1.479 . S
C480 C490 1.465 . S
C481 C480 1.264 . S
C481 C483 1.339 . S
C481 H508 0.931 . S
C482 C483 1.395 . S
C482 C484 1.320 . S
C483 C481 1.339 . S
C483 C482 1.395 . S
C483 H509 0.929 . S
C484 C482 1.320 . S
C484 C485 1.405 . S
C484 H510 0.930 . S
C485 C480 1.479 . S
C485 C484 1.405 . S
C485 H511 0.931 . S
U486 O487 2.454 . S
U486 O488 2.458 . S
U486 C489 2.984 . S
U486 C490 2.847 . S
U486 C503 2.882 . S
U486 O504 2.441 . S
U486 O505 2.420 . S
U486 O506 2.455 . S
U486 O507 2.449 . S
O487 U486 2.454 . S
O487 C489 1.353 . S
O488 U486 2.458 . S
O488 C489 1.286 . S
C489 U486 2.984 . S
C489 O487 1.353 . S
C489 O488 1.286 . S
C489 C491 1.363 . S
C490 C480 1.465 . S
C490 U486 2.847 . S
C490 O504 1.249 . S
C490 O505 1.202 . S
C491 C489 1.363 . S
C491 C493 1.408 . S
C491 C496 1.342 . S
C492 C493 1.310 . S
C492 C495 1.461 . S
C492 H512 0.932 . S
C493 C491 1.408 . S
C493 C492 1.310 . S
C493 H513 0.930 . S
C494 C495 1.474 . S
C494 C496 1.285 . S
C494 H514 0.929 . S
C495 C492 1.461 . S
C495 C494 1.474 . S
C496 C491 1.342 . S
C496 C494 1.285 . S
C496 H515 0.930 . S
C497 C500 1.424 . S
C497 C502 1.245 . S
C497 C503 1.428 . S
C498 C501 1.260 . S
C498 C502 1.477 . S
C498 H516 0.932 . S
C499 C500 1.384 . S
C499 C501 1.479 . S
C499 H517 0.929 . S
C500 C497 1.424 . S
C500 C499 1.384 . S
C500 H518 0.928 . S
C501 C498 1.260 . S
C501 C499 1.479 . S
C502 C497 1.245 . S
C502 C498 1.477 . S
C502 H519 0.932 . S
C503 U486 2.882 . S
C503 C497 1.428 . S
C503 O506 1.301 . S
C503 O507 1.282 . S
O504 U486 2.441 . S
O504 C490 1.249 . S
O505 U486 2.420 . S
O505 C490 1.202 . S
O506 U486 2.455 . S
O506 C503 1.301 . S
O507 U486 2.449 . S
O507 C503 1.282 . S
H508 C481 0.931 . S
H509 C483 0.929 . S
H510 C484 0.930 . S
H511 C485 0.931 . S
H512 C492 0.932 . S
H513 C493 0.930 . S
H514 C494 0.929 . S
H515 C496 0.930 . S
H516 C498 0.932 . S
H517 C499 0.929 . S
H518 C500 0.928 . S
H519 C502 0.932 . S
C520 C521 1.264 . S
C520 C525 1.479 . S
C520 C530 1.465 . S
C521 C520 1.264 . S
C521 C523 1.339 . S
C521 H548 0.931 . S
C522 C523 1.395 . S
C522 C524 1.320 . S
C523 C521 1.339 . S
C523 C522 1.395 . S
C523 H549 0.929 . S
C524 C522 1.320 . S
C524 C525 1.405 . S
C524 H550 0.930 . S
C525 C520 1.479 . S
C525 C524 1.405 . S
C525 H551 0.931 . S
U526 O527 2.454 . S
U526 O528 2.458 . S
U526 C529 2.984 . S
U526 C530 2.847 . S
U526 C543 2.882 . S
U526 O544 2.441 . S
U526 O545 2.420 . S
U526 O546 2.455 . S
U526 O547 2.449 . S
O527 U526 2.454 . S
O527 C529 1.353 . S
O528 U526 2.458 . S
O528 C529 1.286 . S
C529 U526 2.984 . S
C529 O527 1.353 . S
C529 O528 1.286 . S
C529 C531 1.363 . S
C530 C520 1.465 . S
C530 U526 2.847 . S
C530 O544 1.249 . S
C530 O545 1.202 . S
C531 C529 1.363 . S
C531 C533 1.408 . S
C531 C536 1.342 . S
C532 C533 1.310 . S
C532 C535 1.461 . S
C532 H552 0.932 . S
C533 C531 1.408 . S
C533 C532 1.310 . S
C533 H553 0.930 . S
C534 C535 1.474 . S
C534 C536 1.285 . S
C534 H554 0.929 . S
C535 C532 1.461 . S
C535 C534 1.474 . S
C536 C531 1.342 . S
C536 C534 1.285 . S
C536 H555 0.930 . S
C537 C540 1.424 . S
C537 C542 1.245 . S
C537 C543 1.428 . S
C538 C541 1.260 . S
C538 C542 1.477 . S
C538 H556 0.932 . S
C539 C540 1.384 . S
C539 C541 1.479 . S
C539 H557 0.929 . S
C540 C537 1.424 . S
C540 C539 1.384 . S
C540 H558 0.928 . S
C541 C538 1.260 . S
C541 C539 1.479 . S
C542 C537 1.245 . S
C542 C538 1.477 . S
C542 H559 0.932 . S
C543 U526 2.882 . S
C543 C537 1.428 . S
C543 O546 1.301 . S
C543 O547 1.282 . S
O544 U526 2.441 . S
O544 C530 1.249 . S
O545 U526 2.420 . S
O545 C530 1.202 . S
O546 U526 2.455 . S
O546 C543 1.301 . S
O547 U526 2.449 . S
O547 C543 1.282 . S
H548 C521 0.931 . S
H549 C523 0.929 . S
H550 C524 0.930 . S
H551 C525 0.931 . S
H552 C532 0.932 . S
H553 C533 0.930 . S
H554 C534 0.929 . S
H555 C536 0.930 . S
H556 C538 0.932 . S
H557 C539 0.929 . S
H558 C540 0.928 . S
H559 C542 0.932 . S
C560 C561 1.264 . S
C560 C565 1.479 . S
C560 C570 1.465 . S
C561 C560 1.264 . S
C561 C563 1.339 . S
C561 H588 0.931 . S
C562 C563 1.395 . S
C562 C564 1.320 . S
C563 C561 1.339 . S
C563 C562 1.395 . S
C563 H589 0.929 . S
C564 C562 1.320 . S
C564 C565 1.405 . S
C564 H590 0.930 . S
C565 C560 1.479 . S
C565 C564 1.405 . S
C565 H591 0.931 . S
U566 O567 2.454 . S
U566 O568 2.458 . S
U566 C569 2.984 . S
U566 C570 2.847 . S
U566 C583 2.882 . S
U566 O584 2.441 . S
U566 O585 2.420 . S
U566 O586 2.455 . S
U566 O587 2.449 . S
O567 U566 2.454 . S
O567 C569 1.353 . S
O568 U566 2.458 . S
O568 C569 1.286 . S
C569 U566 2.984 . S
C569 O567 1.353 . S
C569 O568 1.286 . S
C569 C571 1.363 . S
C570 C560 1.465 . S
C570 U566 2.847 . S
C570 O584 1.249 . S
C570 O585 1.202 . S
C571 C569 1.363 . S
C571 C573 1.408 . S
C571 C576 1.342 . S
C572 C573 1.310 . S
C572 C575 1.461 . S
C572 H592 0.932 . S
C573 C571 1.408 . S
C573 C572 1.310 . S
C573 H593 0.930 . S
C574 C575 1.474 . S
C574 C576 1.285 . S
C574 H594 0.929 . S
C575 C572 1.461 . S
C575 C574 1.474 . S
C576 C571 1.342 . S
C576 C574 1.285 . S
C576 H595 0.930 . S
C577 C580 1.424 . S
C577 C582 1.245 . S
C577 C583 1.428 . S
C578 C581 1.260 . S
C578 C582 1.477 . S
C578 H596 0.932 . S
C579 C580 1.384 . S
C579 C581 1.479 . S
C579 H597 0.929 . S
C580 C577 1.424 . S
C580 C579 1.384 . S
C580 H598 0.928 . S
C581 C578 1.260 . S
C581 C579 1.479 . S
C582 C577 1.245 . S
C582 C578 1.477 . S
C582 H599 0.932 . S
C583 U566 2.882 . S
C583 C577 1.428 . S
C583 O586 1.301 . S
C583 O587 1.282 . S
O584 U566 2.441 . S
O584 C570 1.249 . S
O585 U566 2.420 . S
O585 C570 1.202 . S
O586 U566 2.455 . S
O586 C583 1.301 . S
O587 U566 2.449 . S
O587 C583 1.282 . S
H588 C561 0.931 . S
H589 C563 0.929 . S
H590 C564 0.930 . S
H591 C565 0.931 . S
H592 C572 0.932 . S
H593 C573 0.930 . S
H594 C574 0.929 . S
H595 C576 0.930 . S
H596 C578 0.932 . S
H597 C579 0.929 . S
H598 C580 0.928 . S
H599 C582 0.932 . S
C600 C601 1.264 . S
C600 C605 1.479 . S
C600 C610 1.465 . S
C601 C600 1.264 . S
C601 C603 1.339 . S
C601 H628 0.931 . S
C602 C603 1.395 . S
C602 C604 1.320 . S
C603 C601 1.339 . S
C603 C602 1.395 . S
C603 H629 0.929 . S
C604 C602 1.320 . S
C604 C605 1.405 . S
C604 H630 0.930 . S
C605 C600 1.479 . S
C605 C604 1.405 . S
C605 H631 0.931 . S
U606 O607 2.454 . S
U606 O608 2.458 . S
U606 C609 2.984 . S
U606 C610 2.847 . S
U606 C623 2.882 . S
U606 O624 2.441 . S
U606 O625 2.420 . S
U606 O626 2.455 . S
U606 O627 2.449 . S
O607 U606 2.454 . S
O607 C609 1.353 . S
O608 U606 2.458 . S
O608 C609 1.286 . S
C609 U606 2.984 . S
C609 O607 1.353 . S
C609 O608 1.286 . S
C609 C611 1.363 . S
C610 C600 1.465 . S
C610 U606 2.847 . S
C610 O624 1.249 . S
C610 O625 1.202 . S
C611 C609 1.363 . S
C611 C613 1.408 . S
C611 C616 1.342 1_455 S
C612 C613 1.310 . S
C612 C615 1.461 1_455 S
C612 H632 0.932 . S
C613 C611 1.408 . S
C613 C612 1.310 . S
C613 H633 0.930 . S
C614 C615 1.474 . S
C614 C616 1.285 . S
C614 H634 0.929 . S
C615 C612 1.461 1_655 S
C615 C614 1.474 . S
C616 C611 1.342 1_655 S
C616 C614 1.285 . S
C616 H635 0.930 . S
C617 C620 1.424 . S
C617 C622 1.245 . S
C617 C623 1.428 . S
C618 C621 1.260 . S
C618 C622 1.477 . S
C618 H636 0.932 1_455 S
C619 C620 1.384 . S
C619 C621 1.479 . S
C619 H637 0.929 . S
C620 C617 1.424 . S
C620 C619 1.384 . S
C620 H638 0.928 . S
C621 C618 1.260 . S
C621 C619 1.479 . S
C622 C617 1.245 . S
C622 C618 1.477 . S
C622 H639 0.909 1_455 S
C623 U606 2.882 . S
C623 C617 1.428 . S
C623 O626 1.301 . S
C623 O627 1.282 . S
O624 U606 2.441 . S
O624 C610 1.249 . S
O625 U606 2.420 . S
O625 C610 1.202 . S
O626 U606 2.455 . S
O626 C623 1.301 . S
O627 U606 2.449 . S
O627 C623 1.282 . S
H628 C601 0.931 . S
H629 C603 0.929 . S
H630 C604 0.930 . S
H631 C605 0.931 . S
H632 C612 0.932 . S
H633 C613 0.930 . S
H634 C614 0.929 . S
H635 C616 0.930 . S
H636 C618 0.932 1_655 S
H637 C619 0.929 . S
H638 C620 0.928 . S
H639 C622 0.909 1_655 S
C640 C641 1.264 . S
C640 C645 1.479 . S
C640 C650 1.465 . S
C641 C640 1.264 . S
C641 C643 1.339 . S
C641 H668 0.931 . S
C642 C643 1.395 . S
C642 C644 1.320 . S
C643 C641 1.339 . S
C643 C642 1.395 . S
C643 H669 0.929 . S
C644 C642 1.320 . S
C644 C645 1.405 . S
C644 H670 0.930 . S
C645 C640 1.479 . S
C645 C644 1.405 . S
C645 H671 0.931 . S
U646 O647 2.454 . S
U646 O648 2.458 . S
U646 C649 2.984 . S
U646 C650 2.847 . S
U646 C663 2.882 . S
U646 O664 2.441 . S
U646 O665 2.420 . S
U646 O666 2.455 . S
U646 O667 2.449 . S
O647 U646 2.454 . S
O647 C649 1.353 . S
O648 U646 2.458 . S
O648 C649 1.286 . S
C649 U646 2.984 . S
C649 O647 1.353 . S
C649 O648 1.286 . S
C649 C651 1.363 . S
C650 C640 1.465 . S
C650 U646 2.847 . S
C650 O664 1.249 . S
C650 O665 1.202 . S
C651 C649 1.363 . S
C651 C653 1.408 . S
C651 C656 1.342 . S
C652 C653 1.310 . S
C652 C655 1.461 . S
C652 H672 0.932 . S
C653 C651 1.408 . S
C653 C652 1.310 . S
C653 H673 0.930 . S
C654 C655 1.474 . S
C654 C656 1.285 . S
C654 H674 0.929 . S
C655 C652 1.461 . S
C655 C654 1.474 . S
C656 C651 1.342 . S
C656 C654 1.285 . S
C656 H675 0.930 . S
C657 C660 1.424 . S
C657 C662 1.245 . S
C657 C663 1.428 . S
C658 C661 1.260 . S
C658 C662 1.477 . S
C658 H676 0.932 . S
C659 C660 1.384 . S
C659 C661 1.479 . S
C659 H677 0.929 . S
C660 C657 1.424 . S
C660 C659 1.384 . S
C660 H678 0.928 . S
C661 C658 1.260 . S
C661 C659 1.479 . S
C662 C657 1.245 . S
C662 C658 1.477 . S
C662 H679 0.932 . S
C663 U646 2.882 . S
C663 C657 1.428 . S
C663 O666 1.301 . S
C663 O667 1.282 . S
O664 U646 2.441 . S
O664 C650 1.249 . S
O665 U646 2.420 . S
O665 C650 1.202 . S
O666 U646 2.455 . S
O666 C663 1.301 . S
O667 U646 2.449 . S
O667 C663 1.282 . S
H668 C641 0.931 . S
H669 C643 0.929 . S
H670 C644 0.930 . S
H671 C645 0.931 . S
H672 C652 0.932 . S
H673 C653 0.930 . S
H674 C654 0.929 . S
H675 C656 0.930 . S
H676 C658 0.932 . S
H677 C659 0.929 . S
H678 C660 0.928 . S
H679 C662 0.932 . S
C680 C681 1.264 . S
C680 C685 1.479 . S
C680 C690 1.465 . S
C681 C680 1.264 . S
C681 C683 1.339 . S
C681 H708 0.931 . S
C682 C683 1.395 . S
C682 C684 1.320 . S
C683 C681 1.339 . S
C683 C682 1.395 . S
C683 H709 0.929 . S
C684 C682 1.320 . S
C684 C685 1.405 . S
C684 H710 0.930 . S
C685 C680 1.479 . S
C685 C684 1.405 . S
C685 H711 0.931 . S
U686 O687 2.454 . S
U686 O688 2.458 . S
U686 C689 2.984 . S
U686 C690 2.847 . S
U686 C703 2.882 . S
U686 O704 2.441 . S
U686 O705 2.420 . S
U686 O706 2.455 . S
U686 O707 2.449 . S
O687 U686 2.454 . S
O687 C689 1.353 . S
O688 U686 2.458 . S
O688 C689 1.286 . S
C689 U686 2.984 . S
C689 O687 1.353 . S
C689 O688 1.286 . S
C689 C691 1.363 . S
C690 C680 1.465 . S
C690 U686 2.847 . S
C690 O704 1.249 . S
C690 O705 1.202 . S
C691 C689 1.363 . S
C691 C693 1.408 . S
C691 C696 1.342 . S
C692 C693 1.310 . S
C692 C695 1.461 . S
C692 H712 0.932 . S
C693 C691 1.408 . S
C693 C692 1.310 . S
C693 H713 0.930 . S
C694 C695 1.474 . S
C694 C696 1.285 . S
C694 H714 0.929 . S
C695 C692 1.461 . S
C695 C694 1.474 . S
C696 C691 1.342 . S
C696 C694 1.285 . S
C696 H715 0.930 . S
C697 C700 1.424 . S
C697 C702 1.245 . S
C697 C703 1.428 . S
C698 C701 1.260 . S
C698 C702 1.477 . S
C698 H716 0.932 . S
C699 C700 1.384 . S
C699 C701 1.479 . S
C699 H717 0.929 . S
C700 C697 1.424 . S
C700 C699 1.384 . S
C700 H718 0.928 . S
C701 C698 1.260 . S
C701 C699 1.479 . S
C702 C697 1.245 . S
C702 C698 1.477 . S
C702 H719 0.932 . S
C703 U686 2.882 . S
C703 C697 1.428 . S
C703 O706 1.301 . S
C703 O707 1.282 . S
O704 U686 2.441 . S
O704 C690 1.249 . S
O705 U686 2.420 . S
O705 C690 1.202 . S
O706 U686 2.455 . S
O706 C703 1.301 . S
O707 U686 2.449 . S
O707 C703 1.282 . S
H708 C681 0.931 . S
H709 C683 0.929 . S
H710 C684 0.930 . S
H711 C685 0.931 . S
H712 C692 0.932 . S
H713 C693 0.930 . S
H714 C694 0.929 . S
H715 C696 0.930 . S
H716 C698 0.932 . S
H717 C699 0.929 . S
H718 C700 0.928 . S
H719 C702 0.932 . S
C720 C721 1.264 . S
C720 C725 1.479 . S
C720 C730 1.465 . S
C721 C720 1.264 . S
C721 C723 1.339 . S
C721 H748 0.931 . S
C722 C723 1.395 . S
C722 C724 1.320 . S
C723 C721 1.339 . S
C723 C722 1.395 . S
C723 H749 0.929 . S
C724 C722 1.320 . S
C724 C725 1.405 . S
C724 H750 0.930 . S
C725 C720 1.479 . S
C725 C724 1.405 . S
C725 H751 0.931 . S
U726 O727 2.454 . S
U726 O728 2.458 . S
U726 C729 2.984 . S
U726 C730 2.847 . S
U726 C743 2.882 . S
U726 O744 2.441 . S
U726 O745 2.420 . S
U726 O746 2.455 . S
U726 O747 2.449 . S
O727 U726 2.454 . S
O727 C729 1.353 . S
O728 U726 2.458 . S
O728 C729 1.286 . S
C729 U726 2.984 . S
C729 O727 1.353 . S
C729 O728 1.286 . S
C729 C731 1.363 . S
C730 C720 1.465 . S
C730 U726 2.847 . S
C730 O744 1.249 . S
C730 O745 1.202 . S
C731 C729 1.363 . S
C731 C733 1.408 . S
C731 C736 1.342 . S
C732 C733 1.310 . S
C732 C735 1.461 . S
C732 H752 0.932 . S
C733 C731 1.408 . S
C733 C732 1.310 . S
C733 H753 0.930 . S
C734 C735 1.474 . S
C734 C736 1.285 . S
C734 H754 0.929 . S
C735 C732 1.461 . S
C735 C734 1.474 . S
C736 C731 1.342 . S
C736 C734 1.285 . S
C736 H755 0.930 . S
C737 C740 1.424 . S
C737 C742 1.245 . S
C737 C743 1.428 . S
C738 C741 1.260 . S
C738 C742 1.477 . S
C738 H756 0.932 . S
C739 C740 1.384 . S
C739 C741 1.479 . S
C739 H757 0.929 . S
C740 C737 1.424 . S
C740 C739 1.384 . S
C740 H758 0.928 . S
C741 C738 1.260 . S
C741 C739 1.479 . S
C742 C737 1.245 . S
C742 C738 1.477 . S
C742 H759 0.932 . S
C743 U726 2.882 . S
C743 C737 1.428 . S
C743 O746 1.301 . S
C743 O747 1.282 . S
O744 U726 2.441 . S
O744 C730 1.249 . S
O745 U726 2.420 . S
O745 C730 1.202 . S
O746 U726 2.455 . S
O746 C743 1.301 . S
O747 U726 2.449 . S
O747 C743 1.282 . S
H748 C721 0.931 . S
H749 C723 0.929 . S
H750 C724 0.930 . S
H751 C725 0.931 . S
H752 C732 0.932 . S
H753 C733 0.930 . S
H754 C734 0.929 . S
H755 C736 0.930 . S
H756 C738 0.932 . S
H757 C739 0.929 . S
H758 C740 0.928 . S
H759 C742 0.932 . S
C760 C761 1.264 . S
C760 C765 1.479 . S
C760 C770 1.465 . S
C761 C760 1.264 . S
C761 C763 1.339 . S
C761 H788 0.931 . S
C762 C763 1.395 . S
C762 C764 1.320 . S
C763 C761 1.339 . S
C763 C762 1.395 . S
C763 H789 0.929 . S
C764 C762 1.320 . S
C764 C765 1.405 . S
C764 H790 0.930 . S
C765 C760 1.479 . S
C765 C764 1.405 . S
C765 H791 0.931 . S
U766 O767 2.454 . S
U766 O768 2.458 . S
U766 C769 2.984 . S
U766 C770 2.847 . S
U766 C783 2.882 . S
U766 O784 2.441 . S
U766 O785 2.420 . S
U766 O786 2.455 . S
U766 O787 2.449 . S
O767 U766 2.454 . S
O767 C769 1.353 . S
O768 U766 2.458 . S
O768 C769 1.286 . S
C769 U766 2.984 . S
C769 O767 1.353 . S
C769 O768 1.286 . S
C769 C771 1.363 . S
C770 C760 1.465 . S
C770 U766 2.847 . S
C770 O784 1.249 . S
C770 O785 1.202 . S
C771 C769 1.363 . S
C771 C773 1.408 . S
C771 C776 1.299 1_455 S
C772 C773 1.310 . S
C772 C775 1.461 1_455 S
C772 H792 0.932 . S
C773 C771 1.408 . S
C773 C772 1.310 . S
C773 H793 0.930 . S
C774 C775 1.474 . S
C774 C776 1.319 . S
C774 H794 0.929 . S
C775 C772 1.461 1_655 S
C775 C774 1.474 . S
C776 C771 1.299 1_655 S
C776 C774 1.319 . S
C776 H795 0.945 . S
C777 C780 1.424 . S
C777 C782 1.245 . S
C777 C783 1.428 . S
C778 C781 1.260 . S
C778 C782 1.477 . S
C778 H796 0.932 . S
C779 C780 1.384 . S
C779 C781 1.479 . S
C779 H797 0.929 . S
C780 C777 1.424 . S
C780 C779 1.384 . S
C780 H798 0.928 . S
C781 C778 1.260 . S
C781 C779 1.479 . S
C782 C777 1.245 . S
C782 C778 1.477 . S
C782 H799 0.932 . S
C783 U766 2.882 . S
C783 C777 1.428 . S
C783 O786 1.301 . S
C783 O787 1.282 . S
O784 U766 2.441 . S
O784 C770 1.249 . S
O785 U766 2.420 . S
O785 C770 1.202 . S
O786 U766 2.455 . S
O786 C783 1.301 . S
O787 U766 2.449 . S
O787 C783 1.282 . S
H788 C761 0.931 . S
H789 C763 0.929 . S
H790 C764 0.930 . S
H791 C765 0.931 . S
H792 C772 0.932 . S
H793 C773 0.930 . S
H794 C774 0.929 . S
H795 C776 0.945 . S
H796 C778 0.932 . S
H797 C779 0.929 . S
H798 C780 0.928 . S
H799 C782 0.932 . S
C800 C801 1.264 . S
C800 C805 1.479 . S
C800 C810 1.465 . S
C801 C800 1.264 . S
C801 C803 1.339 . S
C801 H828 0.931 . S
C802 C803 1.395 . S
C802 C804 1.320 . S
C803 C801 1.339 . S
C803 C802 1.395 . S
C803 H829 0.929 . S
C804 C802 1.320 . S
C804 C805 1.405 . S
C804 H830 0.930 . S
C805 C800 1.479 . S
C805 C804 1.405 . S
C805 H831 0.931 . S
U806 O807 2.454 . S
U806 O808 2.458 . S
U806 C809 2.984 . S
U806 C810 2.847 . S
U806 C823 2.882 . S
U806 O824 2.441 . S
U806 O825 2.420 . S
U806 O826 2.455 . S
U806 O827 2.449 . S
O807 U806 2.454 . S
O807 C809 1.353 . S
O808 U806 2.458 . S
O808 C809 1.286 . S
C809 U806 2.984 . S
C809 O807 1.353 . S
C809 O808 1.286 . S
C809 C811 1.363 . S
C810 C800 1.465 . S
C810 U806 2.847 . S
C810 O824 1.249 . S
C810 O825 1.202 . S
C811 C809 1.363 . S
C811 C813 1.408 . S
C811 C816 1.342 . S
C812 C813 1.310 . S
C812 C815 1.461 . S
C812 H832 0.932 . S
C813 C811 1.408 . S
C813 C812 1.310 . S
C813 H833 0.930 . S
C814 C815 1.474 . S
C814 C816 1.285 . S
C814 H834 0.929 . S
C815 C812 1.461 . S
C815 C814 1.474 . S
C816 C811 1.342 . S
C816 C814 1.285 . S
C816 H835 0.930 . S
C817 C820 1.424 . S
C817 C822 1.245 . S
C817 C823 1.428 . S
C818 C821 1.260 . S
C818 C822 1.477 . S
C818 H836 0.932 . S
C819 C820 1.384 . S
C819 C821 1.479 . S
C819 H837 0.929 . S
C820 C817 1.424 . S
C820 C819 1.384 . S
C820 H838 0.928 . S
C821 C818 1.260 . S
C821 C819 1.479 . S
C822 C817 1.245 . S
C822 C818 1.477 . S
C822 H839 0.932 . S
C823 U806 2.882 . S
C823 C817 1.428 . S
C823 O826 1.301 . S
C823 O827 1.282 . S
O824 U806 2.441 . S
O824 C810 1.249 . S
O825 U806 2.420 . S
O825 C810 1.202 . S
O826 U806 2.455 . S
O826 C823 1.301 . S
O827 U806 2.449 . S
O827 C823 1.282 . S
H828 C801 0.931 . S
H829 C803 0.929 . S
H830 C804 0.930 . S
H831 C805 0.931 . S
H832 C812 0.932 . S
H833 C813 0.930 . S
H834 C814 0.929 . S
H835 C816 0.930 . S
H836 C818 0.932 . S
H837 C819 0.929 . S
H838 C820 0.928 . S
H839 C822 0.932 . S
C840 C841 1.264 . S
C840 C845 1.479 . S
C840 C850 1.465 . S
C841 C840 1.264 . S
C841 C843 1.339 . S
C841 H868 0.931 . S
C842 C843 1.395 . S
C842 C844 1.320 . S
C843 C841 1.339 . S
C843 C842 1.395 . S
C843 H869 0.929 . S
C844 C842 1.320 . S
C844 C845 1.405 . S
C844 H870 0.930 . S
C845 C840 1.479 . S
C845 C844 1.405 . S
C845 H871 0.931 . S
U846 O847 2.454 . S
U846 O848 2.458 . S
U846 C849 2.984 . S
U846 C850 2.847 . S
U846 C863 2.882 . S
U846 O864 2.441 . S
U846 O865 2.420 . S
U846 O866 2.455 . S
U846 O867 2.449 . S
O847 U846 2.454 . S
O847 C849 1.353 . S
O848 U846 2.458 . S
O848 C849 1.286 . S
C849 U846 2.984 . S
C849 O847 1.353 . S
C849 O848 1.286 . S
C849 C851 1.363 . S
C850 C840 1.465 . S
C850 U846 2.847 . S
C850 O864 1.249 . S
C850 O865 1.202 . S
C851 C849 1.363 . S
C851 C853 1.408 . S
C851 C856 1.299 1_455 S
C852 C853 1.310 . S
C852 C855 1.461 1_455 S
C852 H872 0.932 . S
C853 C851 1.408 . S
C853 C852 1.310 . S
C853 H873 0.930 . S
C854 C855 1.474 . S
C854 C856 1.319 . S
C854 H874 0.929 . S
C855 C852 1.461 1_655 S
C855 C854 1.474 . S
C856 C851 1.299 1_655 S
C856 C854 1.319 . S
C856 H875 0.945 . S
C857 C860 1.424 . S
C857 C862 1.245 . S
C857 C863 1.428 . S
C858 C861 1.260 . S
C858 C862 1.477 . S
C858 H876 0.932 . S
C859 C860 1.384 . S
C859 C861 1.479 . S
C859 H877 0.929 . S
C860 C857 1.424 . S
C860 C859 1.384 . S
C860 H878 0.928 . S
C861 C858 1.260 . S
C861 C859 1.479 . S
C862 C857 1.245 . S
C862 C858 1.477 . S
C862 H879 0.932 . S
C863 U846 2.882 . S
C863 C857 1.428 . S
C863 O866 1.301 . S
C863 O867 1.282 . S
O864 U846 2.441 . S
O864 C850 1.249 . S
O865 U846 2.420 . S
O865 C850 1.202 . S
O866 U846 2.455 . S
O866 C863 1.301 . S
O867 U846 2.449 . S
O867 C863 1.282 . S
H868 C841 0.931 . S
H869 C843 0.929 . S
H870 C844 0.930 . S
H871 C845 0.931 . S
H872 C852 0.932 . S
H873 C853 0.930 . S
H874 C854 0.929 . S
H875 C856 0.945 . S
H876 C858 0.932 . S
H877 C859 0.929 . S
H878 C860 0.928 . S
H879 C862 0.932 . S
C880 C881 1.264 . S
C880 C885 1.479 . S
C880 C890 1.465 . S
C881 C880 1.264 . S
C881 C883 1.339 . S
C881 H908 0.931 . S
C882 C883 1.395 . S
C882 C884 1.320 . S
C883 C881 1.339 . S
C883 C882 1.395 . S
C883 H909 0.929 . S
C884 C882 1.320 . S
C884 C885 1.405 . S
C884 H910 0.930 . S
C885 C880 1.479 . S
C885 C884 1.405 . S
C885 H911 0.931 . S
U886 O887 2.454 . S
U886 O888 2.458 . S
U886 C889 2.984 . S
U886 C890 2.847 . S
U886 C903 2.882 . S
U886 O904 2.441 . S
U886 O905 2.420 . S
U886 O906 2.455 . S
U886 O907 2.449 . S
O887 U886 2.454 . S
O887 C889 1.353 . S
O888 U886 2.458 . S
O888 C889 1.286 . S
C889 U886 2.984 . S
C889 O887 1.353 . S
C889 O888 1.286 . S
C889 C891 1.363 . S
C890 C880 1.465 . S
C890 U886 2.847 . S
C890 O904 1.249 . S
C890 O905 1.202 . S
C891 C889 1.363 . S
C891 C893 1.408 . S
C891 C896 1.342 . S
C892 C893 1.310 . S
C892 C895 1.461 . S
C892 H912 0.932 . S
C893 C891 1.408 . S
C893 C892 1.310 . S
C893 H913 0.930 . S
C894 C895 1.474 . S
C894 C896 1.285 . S
C894 H914 0.929 . S
C895 C892 1.461 . S
C895 C894 1.474 . S
C896 C891 1.342 . S
C896 C894 1.285 . S
C896 H915 0.930 . S
C897 C900 1.424 . S
C897 C902 1.245 . S
C897 C903 1.428 . S
C898 C901 1.260 . S
C898 C902 1.477 . S
C898 H916 0.932 . S
C899 C900 1.384 . S
C899 C901 1.479 . S
C899 H917 0.929 . S
C900 C897 1.424 . S
C900 C899 1.384 . S
C900 H918 0.928 . S
C901 C898 1.260 . S
C901 C899 1.479 . S
C902 C897 1.245 . S
C902 C898 1.477 . S
C902 H919 0.932 . S
C903 U886 2.882 . S
C903 C897 1.428 . S
C903 O906 1.301 . S
C903 O907 1.282 . S
O904 U886 2.441 . S
O904 C890 1.249 . S
O905 U886 2.420 . S
O905 C890 1.202 . S
O906 U886 2.455 . S
O906 C903 1.301 . S
O907 U886 2.449 . S
O907 C903 1.282 . S
H908 C881 0.931 . S
H909 C883 0.929 . S
H910 C884 0.930 . S
H911 C885 0.931 . S
H912 C892 0.932 . S
H913 C893 0.930 . S
H914 C894 0.929 . S
H915 C896 0.930 . S
H916 C898 0.932 . S
H917 C899 0.929 . S
H918 C900 0.928 . S
H919 C902 0.932 . S
C920 C921 1.264 . S
C920 C925 1.479 . S
C920 C930 1.465 . S
C921 C920 1.264 . S
C921 C923 1.339 . S
C921 H948 0.931 . S
C922 C923 1.395 . S
C922 C924 1.320 . S
C923 C921 1.339 . S
C923 C922 1.395 . S
C923 H949 0.929 . S
C924 C922 1.320 . S
C924 C925 1.405 . S
C924 H950 0.930 . S
C925 C920 1.479 . S
C925 C924 1.405 . S
C925 H951 0.931 . S
U926 O927 2.454 . S
U926 O928 2.458 . S
U926 C929 2.984 . S
U926 C930 2.847 . S
U926 C943 2.882 . S
U926 O944 2.441 . S
U926 O945 2.420 . S
U926 O946 2.455 . S
U926 O947 2.449 . S
O927 U926 2.454 . S
O927 C929 1.353 . S
O928 U926 2.458 . S
O928 C929 1.286 . S
C929 U926 2.984 . S
C929 O927 1.353 . S
C929 O928 1.286 . S
C929 C931 1.363 . S
C930 C920 1.465 . S
C930 U926 2.847 . S
C930 O944 1.249 . S
C930 O945 1.202 . S
C931 C929 1.363 . S
C931 C933 1.408 . S
C931 C936 1.342 . S
C932 C933 1.310 . S
C932 C935 1.461 . S
C932 H952 0.932 . S
C933 C931 1.408 . S
C933 C932 1.310 . S
C933 H953 0.930 . S
C934 C935 1.474 . S
C934 C936 1.285 . S
C934 H954 0.929 . S
C935 C932 1.461 . S
C935 C934 1.474 . S
C936 C931 1.342 . S
C936 C934 1.285 . S
C936 H955 0.930 . S
C937 C940 1.424 . S
C937 C942 1.245 . S
C937 C943 1.428 . S
C938 C941 1.260 . S
C938 C942 1.477 . S
C938 H956 0.932 . S
C939 C940 1.384 . S
C939 C941 1.479 . S
C939 H957 0.929 . S
C940 C937 1.424 . S
C940 C939 1.384 . S
C940 H958 0.928 . S
C941 C938 1.260 . S
C941 C939 1.479 . S
C942 C937 1.245 . S
C942 C938 1.477 . S
C942 H959 0.932 . S
C943 U926 2.882 . S
C943 C937 1.428 . S
C943 O946 1.301 . S
C943 O947 1.282 . S
O944 U926 2.441 . S
O944 C930 1.249 . S
O945 U926 2.420 . S
O945 C930 1.202 . S
O946 U926 2.455 . S
O946 C943 1.301 . S
O947 U926 2.449 . S
O947 C943 1.282 . S
H948 C921 0.931 . S
H949 C923 0.929 . S
H950 C924 0.930 . S
H951 C925 0.931 . S
H952 C932 0.932 . S
H953 C933 0.930 . S
H954 C934 0.929 . S
H955 C936 0.930 . S
H956 C938 0.932 . S
H957 C939 0.929 . S
H958 C940 0.928 . S
H959 C942 0.932 . S
C960 C961 1.264 . S
C960 C965 1.479 . S
C960 C970 1.465 . S
C961 C960 1.264 . S
C961 C963 1.339 . S
C961 H988 0.931 . S
C962 C963 1.395 . S
C962 C964 1.320 . S
C963 C961 1.339 . S
C963 C962 1.395 . S
C963 H989 0.929 . S
C964 C962 1.320 . S
C964 C965 1.405 . S
C964 H990 0.930 . S
C965 C960 1.479 . S
C965 C964 1.405 . S
C965 H991 0.931 . S
U966 O967 2.454 . S
U966 O968 2.458 . S
U966 C969 2.984 . S
U966 C970 2.847 . S
U966 C983 2.882 . S
U966 O984 2.441 . S
U966 O985 2.420 . S
U966 O986 2.455 . S
U966 O987 2.449 . S
O967 U966 2.454 . S
O967 C969 1.353 . S
O968 U966 2.458 . S
O968 C969 1.286 . S
C969 U966 2.984 . S
C969 O967 1.353 . S
C969 O968 1.286 . S
C969 C971 1.363 . S
C970 C960 1.465 . S
C970 U966 2.847 . S
C970 O984 1.249 . S
C970 O985 1.202 . S
C971 C969 1.363 . S
C971 C973 1.408 . S
C971 C976 1.342 . S
C972 C973 1.310 . S
C972 C975 1.461 . S
C972 H992 0.932 . S
C973 C971 1.408 . S
C973 C972 1.310 . S
C973 H993 0.930 . S
C974 C975 1.474 . S
C974 C976 1.285 . S
C974 H994 0.929 . S
C975 C972 1.461 . S
C975 C974 1.474 . S
C976 C971 1.342 . S
C976 C974 1.285 . S
C976 H995 0.930 . S
C977 C980 1.424 . S
C977 C982 1.245 . S
C977 C983 1.428 . S
C978 C981 1.260 . S
C978 C982 1.477 . S
C978 H996 0.932 . S
C979 C980 1.384 . S
C979 C981 1.479 . S
C979 H997 0.929 . S
C980 C977 1.424 . S
C980 C979 1.384 . S
C980 H998 0.928 . S
C981 C978 1.260 . S
C981 C979 1.479 . S
C982 C977 1.245 . S
C982 C978 1.477 . S
C982 H999 0.932 . S
C983 U966 2.882 . S
C983 C977 1.428 . S
C983 O986 1.301 . S
C983 O987 1.282 . S
O984 U966 2.441 . S
O984 C970 1.249 . S
O985 U966 2.420 . S
O985 C970 1.202 . S
O986 U966 2.455 . S
O986 C983 1.301 . S
O987 U966 2.449 . S
O987 C983 1.282 . S
H988 C961 0.931 . S
H989 C963 0.929 . S
H990 C964 0.930 . S
H991 C965 0.931 . S
H992 C972 0.932 . S
H993 C973 0.930 . S
H994 C974 0.929 . S
H995 C976 0.930 . S
H996 C978 0.932 . S
H997 C979 0.929 . S
H998 C980 0.928 . S
H999 C982 0.932 . S
C1000 C1001 1.264 . S
C1000 C1005 1.479 . S
C1000 C1010 1.465 . S
C1001 C1000 1.264 . S
C1001 C1003 1.339 . S
C1001 H1028 0.931 . S
C1002 C1003 1.395 . S
C1002 C1004 1.320 . S
C1003 C1001 1.339 . S
C1003 C1002 1.395 . S
C1003 H1029 0.929 . S
C1004 C1002 1.320 . S
C1004 C1005 1.405 . S
C1004 H1030 0.930 . S
C1005 C1000 1.479 . S
C1005 C1004 1.405 . S
C1005 H1031 0.931 . S
U1006 O1007 2.454 . S
U1006 O1008 2.458 . S
U1006 C1009 2.984 . S
U1006 C1010 2.847 . S
U1006 C1023 2.882 . S
U1006 O1024 2.441 . S
U1006 O1025 2.420 . S
U1006 O1026 2.455 . S
U1006 O1027 2.449 . S
O1007 U1006 2.454 . S
O1007 C1009 1.353 . S
O1008 U1006 2.458 . S
O1008 C1009 1.286 . S
C1009 U1006 2.984 . S
C1009 O1007 1.353 . S
C1009 O1008 1.286 . S
C1009 C1011 1.363 . S
C1010 C1000 1.465 . S
C1010 U1006 2.847 . S
C1010 O1024 1.249 . S
C1010 O1025 1.202 . S
C1011 C1009 1.363 . S
C1011 C1013 1.408 . S
C1011 C1016 1.342 . S
C1012 C1013 1.310 . S
C1012 C1015 1.461 . S
C1012 H1032 0.932 . S
C1013 C1011 1.408 . S
C1013 C1012 1.310 . S
C1013 H1033 0.930 . S
C1014 C1015 1.474 . S
C1014 C1016 1.285 . S
C1014 H1034 0.929 . S
C1015 C1012 1.461 . S
C1015 C1014 1.474 . S
C1016 C1011 1.342 . S
C1016 C1014 1.285 . S
C1016 H1035 0.930 . S
C1017 C1020 1.424 . S
C1017 C1022 1.245 . S
C1017 C1023 1.428 . S
C1018 C1021 1.260 . S
C1018 C1022 1.477 . S
C1018 H1036 0.932 . S
C1019 C1020 1.384 . S
C1019 C1021 1.479 . S
C1019 H1037 0.929 . S
C1020 C1017 1.424 . S
C1020 C1019 1.384 . S
C1020 H1038 0.928 . S
C1021 C1018 1.260 . S
C1021 C1019 1.479 . S
C1022 C1017 1.245 . S
C1022 C1018 1.477 . S
C1022 H1039 0.932 . S
C1023 U1006 2.882 . S
C1023 C1017 1.428 . S
C1023 O1026 1.301 . S
C1023 O1027 1.282 . S
O1024 U1006 2.441 . S
O1024 C1010 1.249 . S
O1025 U1006 2.420 . S
O1025 C1010 1.202 . S
O1026 U1006 2.455 . S
O1026 C1023 1.301 . S
O1027 U1006 2.449 . S
O1027 C1023 1.282 . S
H1028 C1001 0.931 . S
H1029 C1003 0.929 . S
H1030 C1004 0.930 . S
H1031 C1005 0.931 . S
H1032 C1012 0.932 . S
H1033 C1013 0.930 . S
H1034 C1014 0.929 . S
H1035 C1016 0.930 . S
H1036 C1018 0.932 . S
H1037 C1019 0.929 . S
H1038 C1020 0.928 . S
H1039 C1022 0.932 . S
C1040 C1041 1.264 . S
C1040 C1045 1.479 . S
C1040 C1050 1.465 . S
C1041 C1040 1.264 . S
C1041 C1043 1.339 . S
C1041 H1068 0.931 . S
C1042 C1043 1.395 . S
C1042 C1044 1.320 . S
C1043 C1041 1.339 . S
C1043 C1042 1.395 . S
C1043 H1069 0.929 . S
C1044 C1042 1.320 . S
C1044 C1045 1.405 . S
C1044 H1070 0.930 . S
C1045 C1040 1.479 . S
C1045 C1044 1.405 . S
C1045 H1071 0.931 . S
U1046 O1047 2.454 . S
U1046 O1048 2.458 . S
U1046 C1049 2.984 . S
U1046 C1050 2.847 . S
U1046 C1063 2.882 . S
U1046 O1064 2.441 . S
U1046 O1065 2.420 . S
U1046 O1066 2.455 . S
U1046 O1067 2.449 . S
O1047 U1046 2.454 . S
O1047 C1049 1.353 . S
O1048 U1046 2.458 . S
O1048 C1049 1.286 . S
C1049 U1046 2.984 . S
C1049 O1047 1.353 . S
C1049 O1048 1.286 . S
C1049 C1051 1.363 . S
C1050 C1040 1.465 . S
C1050 U1046 2.847 . S
C1050 O1064 1.249 . S
C1050 O1065 1.202 . S
C1051 C1049 1.363 . S
C1051 C1053 1.408 . S
C1051 C1056 1.342 . S
C1052 C1053 1.310 . S
C1052 C1055 1.461 . S
C1052 H1072 0.932 . S
C1053 C1051 1.408 . S
C1053 C1052 1.310 . S
C1053 H1073 0.930 . S
C1054 C1055 1.474 . S
C1054 C1056 1.285 . S
C1054 H1074 0.929 . S
C1055 C1052 1.461 . S
C1055 C1054 1.474 . S
C1056 C1051 1.342 . S
C1056 C1054 1.285 . S
C1056 H1075 0.930 . S
C1057 C1060 1.424 . S
C1057 C1062 1.245 . S
C1057 C1063 1.428 . S
C1058 C1061 1.260 . S
C1058 C1062 1.477 . S
C1058 H1076 0.932 . S
C1059 C1060 1.384 . S
C1059 C1061 1.479 . S
C1059 H1077 0.929 . S
C1060 C1057 1.424 . S
C1060 C1059 1.384 . S
C1060 H1078 0.928 . S
C1061 C1058 1.260 . S
C1061 C1059 1.479 . S
C1062 C1057 1.245 . S
C1062 C1058 1.477 . S
C1062 H1079 0.932 . S
C1063 U1046 2.882 . S
C1063 C1057 1.428 . S
C1063 O1066 1.301 . S
C1063 O1067 1.282 . S
O1064 U1046 2.441 . S
O1064 C1050 1.249 . S
O1065 U1046 2.420 . S
O1065 C1050 1.202 . S
O1066 U1046 2.455 . S
O1066 C1063 1.301 . S
O1067 U1046 2.449 . S
O1067 C1063 1.282 . S
H1068 C1041 0.931 . S
H1069 C1043 0.929 . S
H1070 C1044 0.930 . S
H1071 C1045 0.931 . S
H1072 C1052 0.932 . S
H1073 C1053 0.930 . S
H1074 C1054 0.929 . S
H1075 C1056 0.930 . S
H1076 C1058 0.932 . S
H1077 C1059 0.929 . S
H1078 C1060 0.928 . S
H1079 C1062 0.932 . S
C1080 C1081 1.264 . S
C1080 C1085 1.479 . S
C1080 C1090 1.465 . S
C1081 C1080 1.264 . S
C1081 C1083 1.339 . S
C1081 H1108 0.931 . S
C1082 C1083 1.395 . S
C1082 C1084 1.320 . S
C1083 C1081 1.339 . S
C1083 C1082 1.395 . S
C1083 H1109 0.929 . S
C1084 C1082 1.320 . S
C1084 C1085 1.405 . S
C1084 H1110 0.930 . S
C1085 C1080 1.479 . S
C1085 C1084 1.405 . S
C1085 H1111 0.931 . S
U1086 O1087 2.454 . S
U1086 O1088 2.458 . S
U1086 C1089 2.984 . S
U1086 C1090 2.847 . S
U1086 C1103 2.882 . S
U1086 O1104 2.441 . S
U1086 O1105 2.420 . S
U1086 O1106 2.455 . S
U1086 O1107 2.449 . S
O1087 U1086 2.454 . S
O1087 C1089 1.353 . S
O1088 U1086 2.458 . S
O1088 C1089 1.286 . S
C1089 U1086 2.984 . S
C1089 O1087 1.353 . S
C1089 O1088 1.286 . S
C1089 C1091 1.363 . S
C1090 C1080 1.465 . S
C1090 U1086 2.847 . S
C1090 O1104 1.249 . S
C1090 O1105 1.202 . S
C1091 C1089 1.363 . S
C1091 C1093 1.408 . S
C1091 C1096 1.342 1_655 S
C1092 C1093 1.310 . S
C1092 C1095 1.461 1_655 S
C1092 H1112 0.932 . S
C1093 C1091 1.408 . S
C1093 C1092 1.310 . S
C1093 H1113 0.930 . S
C1094 C1095 1.474 . S
C1094 C1096 1.285 . S
C1094 H1114 0.929 . S
C1095 C1092 1.461 1_455 S
C1095 C1094 1.474 . S
C1096 C1091 1.342 1_455 S
C1096 C1094 1.285 . S
C1096 H1115 0.930 . S
C1097 C1100 1.424 . S
C1097 C1102 1.245 . S
C1097 C1103 1.428 . S
C1098 C1101 1.260 . S
C1098 C1102 1.477 . S
C1098 H1116 0.932 1_655 S
C1099 C1100 1.384 . S
C1099 C1101 1.479 . S
C1099 H1117 0.929 . S
C1100 C1097 1.424 . S
C1100 C1099 1.384 . S
C1100 H1118 0.928 . S
C1101 C1098 1.260 . S
C1101 C1099 1.479 . S
C1102 C1097 1.245 . S
C1102 C1098 1.477 . S
C1102 H1119 0.909 1_655 S
C1103 U1086 2.882 . S
C1103 C1097 1.428 . S
C1103 O1106 1.301 . S
C1103 O1107 1.282 . S
O1104 U1086 2.441 . S
O1104 C1090 1.249 . S
O1105 U1086 2.420 . S
O1105 C1090 1.202 . S
O1106 U1086 2.455 . S
O1106 C1103 1.301 . S
O1107 U1086 2.449 . S
O1107 C1103 1.282 . S
H1108 C1081 0.931 . S
H1109 C1083 0.929 . S
H1110 C1084 0.930 . S
H1111 C1085 0.931 . S
H1112 C1092 0.932 . S
H1113 C1093 0.930 . S
H1114 C1094 0.929 . S
H1115 C1096 0.930 . S
H1116 C1098 0.932 1_455 S
H1117 C1099 0.929 . S
H1118 C1100 0.928 . S
H1119 C1102 0.909 1_455 S
C1120 C1121 1.264 . S
C1120 C1125 1.479 . S
C1120 C1130 1.465 . S
C1121 C1120 1.264 . S
C1121 C1123 1.339 . S
C1121 H1148 0.931 . S
C1122 C1123 1.395 . S
C1122 C1124 1.320 . S
C1123 C1121 1.339 . S
C1123 C1122 1.395 . S
C1123 H1149 0.929 . S
C1124 C1122 1.320 . S
C1124 C1125 1.405 . S
C1124 H1150 0.930 . S
C1125 C1120 1.479 . S
C1125 C1124 1.405 . S
C1125 H1151 0.931 . S
U1126 O1127 2.454 . S
U1126 O1128 2.458 . S
U1126 C1129 2.984 . S
U1126 C1130 2.847 . S
U1126 C1143 2.882 . S
U1126 O1144 2.441 . S
U1126 O1145 2.420 . S
U1126 O1146 2.455 . S
U1126 O1147 2.449 . S
O1127 U1126 2.454 . S
O1127 C1129 1.353 . S
O1128 U1126 2.458 . S
O1128 C1129 1.286 . S
C1129 U1126 2.984 . S
C1129 O1127 1.353 . S
C1129 O1128 1.286 . S
C1129 C1131 1.363 . S
C1130 C1120 1.465 . S
C1130 U1126 2.847 . S
C1130 O1144 1.249 . S
C1130 O1145 1.202 . S
C1131 C1129 1.363 . S
C1131 C1133 1.408 . S
C1131 C1136 1.342 . S
C1132 C1133 1.310 . S
C1132 C1135 1.461 . S
C1132 H1152 0.932 . S
C1133 C1131 1.408 . S
C1133 C1132 1.310 . S
C1133 H1153 0.930 . S
C1134 C1135 1.474 . S
C1134 C1136 1.285 . S
C1134 H1154 0.929 . S
C1135 C1132 1.461 . S
C1135 C1134 1.474 . S
C1136 C1131 1.342 . S
C1136 C1134 1.285 . S
C1136 H1155 0.930 . S
C1137 C1140 1.424 . S
C1137 C1142 1.245 . S
C1137 C1143 1.428 . S
C1138 C1141 1.260 . S
C1138 C1142 1.477 . S
C1138 H1156 0.932 . S
C1139 C1140 1.384 . S
C1139 C1141 1.479 . S
C1139 H1157 0.929 . S
C1140 C1137 1.424 . S
C1140 C1139 1.384 . S
C1140 H1158 0.928 . S
C1141 C1138 1.260 . S
C1141 C1139 1.479 . S
C1142 C1137 1.245 . S
C1142 C1138 1.477 . S
C1142 H1159 0.932 . S
C1143 U1126 2.882 . S
C1143 C1137 1.428 . S
C1143 O1146 1.301 . S
C1143 O1147 1.282 . S
O1144 U1126 2.441 . S
O1144 C1130 1.249 . S
O1145 U1126 2.420 . S
O1145 C1130 1.202 . S
O1146 U1126 2.455 . S
O1146 C1143 1.301 . S
O1147 U1126 2.449 . S
O1147 C1143 1.282 . S
H1148 C1121 0.931 . S
H1149 C1123 0.929 . S
H1150 C1124 0.930 . S
H1151 C1125 0.931 . S
H1152 C1132 0.932 . S
H1153 C1133 0.930 . S
H1154 C1134 0.929 . S
H1155 C1136 0.930 . S
H1156 C1138 0.932 . S
H1157 C1139 0.929 . S
H1158 C1140 0.928 . S
H1159 C1142 0.932 . S
C1160 C1161 1.264 . S
C1160 C1165 1.479 . S
C1160 C1170 1.465 . S
C1161 C1160 1.264 . S
C1161 C1163 1.339 . S
C1161 H1188 0.931 . S
C1162 C1163 1.395 . S
C1162 C1164 1.320 . S
C1163 C1161 1.339 . S
C1163 C1162 1.395 . S
C1163 H1189 0.929 . S
C1164 C1162 1.320 . S
C1164 C1165 1.405 . S
C1164 H1190 0.930 . S
C1165 C1160 1.479 . S
C1165 C1164 1.405 . S
C1165 H1191 0.931 . S
U1166 O1167 2.454 . S
U1166 O1168 2.458 . S
U1166 C1169 2.984 . S
U1166 C1170 2.847 . S
U1166 C1183 2.882 . S
U1166 O1184 2.441 . S
U1166 O1185 2.420 . S
U1166 O1186 2.455 . S
U1166 O1187 2.449 . S
O1167 U1166 2.454 . S
O1167 C1169 1.353 . S
O1168 U1166 2.458 . S
O1168 C1169 1.286 . S
C1169 U1166 2.984 . S
C1169 O1167 1.353 . S
C1169 O1168 1.286 . S
C1169 C1171 1.363 . S
C1170 C1160 1.465 . S
C1170 U1166 2.847 . S
C1170 O1184 1.249 . S
C1170 O1185 1.202 . S
C1171 C1169 1.363 . S
C1171 C1173 1.408 . S
C1171 C1176 1.342 1_655 S
C1172 C1173 1.310 . S
C1172 C1175 1.461 1_655 S
C1172 H1192 0.932 . S
C1173 C1171 1.408 . S
C1173 C1172 1.310 . S
C1173 H1193 0.930 . S
C1174 C1175 1.474 . S
C1174 C1176 1.285 . S
C1174 H1194 0.929 . S
C1175 C1172 1.461 1_455 S
C1175 C1174 1.474 . S
C1176 C1171 1.342 1_455 S
C1176 C1174 1.285 . S
C1176 H1195 0.930 . S
C1177 C1180 1.424 . S
C1177 C1182 1.245 . S
C1177 C1183 1.428 . S
C1178 C1181 1.260 . S
C1178 C1182 1.477 . S
C1178 H1196 0.932 1_655 S
C1179 C1180 1.384 . S
C1179 C1181 1.479 . S
C1179 H1197 0.929 . S
C1180 C1177 1.424 . S
C1180 C1179 1.384 . S
C1180 H1198 0.928 . S
C1181 C1178 1.260 . S
C1181 C1179 1.479 . S
C1182 C1177 1.245 . S
C1182 C1178 1.477 . S
C1182 H1199 0.909 1_655 S
C1183 U1166 2.882 . S
C1183 C1177 1.428 . S
C1183 O1186 1.301 . S
C1183 O1187 1.282 . S
O1184 U1166 2.441 . S
O1184 C1170 1.249 . S
O1185 U1166 2.420 . S
O1185 C1170 1.202 . S
O1186 U1166 2.455 . S
O1186 C1183 1.301 . S
O1187 U1166 2.449 . S
O1187 C1183 1.282 . S
H1188 C1161 0.931 . S
H1189 C1163 0.929 . S
H1190 C1164 0.930 . S
H1191 C1165 0.931 . S
H1192 C1172 0.932 . S
H1193 C1173 0.930 . S
H1194 C1174 0.929 . S
H1195 C1176 0.930 . S
H1196 C1178 0.932 1_455 S
H1197 C1179 0.929 . S
H1198 C1180 0.928 . S
H1199 C1182 0.909 1_455 S
C1200 C1201 1.264 . S
C1200 C1205 1.479 . S
C1200 C1210 1.465 . S
C1201 C1200 1.264 . S
C1201 C1203 1.339 . S
C1201 H1228 0.931 . S
C1202 C1203 1.395 . S
C1202 C1204 1.320 . S
C1203 C1201 1.339 . S
C1203 C1202 1.395 . S
C1203 H1229 0.929 . S
C1204 C1202 1.320 . S
C1204 C1205 1.405 . S
C1204 H1230 0.930 . S
C1205 C1200 1.479 . S
C1205 C1204 1.405 . S
C1205 H1231 0.931 . S
U1206 O1207 2.454 . S
U1206 O1208 2.458 . S
U1206 C1209 2.984 . S
U1206 C1210 2.847 . S
U1206 C1223 2.882 . S
U1206 O1224 2.441 . S
U1206 O1225 2.420 . S
U1206 O1226 2.455 . S
U1206 O1227 2.449 . S
O1207 U1206 2.454 . S
O1207 C1209 1.353 . S
O1208 U1206 2.458 . S
O1208 C1209 1.286 . S
C1209 U1206 2.984 . S
C1209 O1207 1.353 . S
C1209 O1208 1.286 . S
C1209 C1211 1.363 . S
C1210 C1200 1.465 . S
C1210 U1206 2.847 . S
C1210 O1224 1.249 . S
C1210 O1225 1.202 . S
C1211 C1209 1.363 . S
C1211 C1213 1.408 . S
C1211 C1216 1.342 . S
C1212 C1213 1.310 . S
C1212 C1215 1.461 . S
C1212 H1232 0.932 . S
C1213 C1211 1.408 . S
C1213 C1212 1.310 . S
C1213 H1233 0.930 . S
C1214 C1215 1.474 . S
C1214 C1216 1.285 . S
C1214 H1234 0.929 . S
C1215 C1212 1.461 . S
C1215 C1214 1.474 . S
C1216 C1211 1.342 . S
C1216 C1214 1.285 . S
C1216 H1235 0.930 . S
C1217 C1220 1.424 . S
C1217 C1222 1.245 . S
C1217 C1223 1.428 . S
C1218 C1221 1.260 . S
C1218 C1222 1.477 . S
C1218 H1236 0.932 . S
C1219 C1220 1.384 . S
C1219 C1221 1.479 . S
C1219 H1237 0.929 . S
C1220 C1217 1.424 . S
C1220 C1219 1.384 . S
C1220 H1238 0.928 . S
C1221 C1218 1.260 . S
C1221 C1219 1.479 . S
C1222 C1217 1.245 . S
C1222 C1218 1.477 . S
C1222 H1239 0.932 . S
C1223 U1206 2.882 . S
C1223 C1217 1.428 . S
C1223 O1226 1.301 . S
C1223 O1227 1.282 . S
O1224 U1206 2.441 . S
O1224 C1210 1.249 . S
O1225 U1206 2.420 . S
O1225 C1210 1.202 . S
O1226 U1206 2.455 . S
O1226 C1223 1.301 . S
O1227 U1206 2.449 . S
O1227 C1223 1.282 . S
H1228 C1201 0.931 . S
H1229 C1203 0.929 . S
H1230 C1204 0.930 . S
H1231 C1205 0.931 . S
H1232 C1212 0.932 . S
H1233 C1213 0.930 . S
H1234 C1214 0.929 . S
H1235 C1216 0.930 . S
H1236 C1218 0.932 . S
H1237 C1219 0.929 . S
H1238 C1220 0.928 . S
H1239 C1222 0.932 . S
C1240 C1241 1.264 . S
C1240 C1245 1.479 . S
C1240 C1250 1.465 . S
C1241 C1240 1.264 . S
C1241 C1243 1.339 . S
C1241 H1268 0.931 . S
C1242 C1243 1.395 . S
C1242 C1244 1.320 . S
C1243 C1241 1.339 . S
C1243 C1242 1.395 . S
C1243 H1269 0.929 . S
C1244 C1242 1.320 . S
C1244 C1245 1.405 . S
C1244 H1270 0.930 . S
C1245 C1240 1.479 . S
C1245 C1244 1.405 . S
C1245 H1271 0.931 . S
U1246 O1247 2.454 . S
U1246 O1248 2.458 . S
U1246 C1249 2.984 . S
U1246 C1250 2.847 . S
U1246 C1263 2.882 . S
U1246 O1264 2.441 . S
U1246 O1265 2.420 . S
U1246 O1266 2.455 . S
U1246 O1267 2.449 . S
O1247 U1246 2.454 . S
O1247 C1249 1.353 . S
O1248 U1246 2.458 . S
O1248 C1249 1.286 . S
C1249 U1246 2.984 . S
C1249 O1247 1.353 . S
C1249 O1248 1.286 . S
C1249 C1251 1.363 . S
C1250 C1240 1.465 . S
C1250 U1246 2.847 . S
C1250 O1264 1.249 . S
C1250 O1265 1.202 . S
C1251 C1249 1.363 . S
C1251 C1253 1.408 . S
C1251 C1256 1.342 . S
C1252 C1253 1.310 . S
C1252 C1255 1.461 . S
C1252 H1272 0.932 . S
C1253 C1251 1.408 . S
C1253 C1252 1.310 . S
C1253 H1273 0.930 . S
C1254 C1255 1.474 . S
C1254 C1256 1.285 . S
C1254 H1274 0.929 . S
C1255 C1252 1.461 . S
C1255 C1254 1.474 . S
C1256 C1251 1.342 . S
C1256 C1254 1.285 . S
C1256 H1275 0.930 . S
C1257 C1260 1.424 . S
C1257 C1262 1.245 . S
C1257 C1263 1.428 . S
C1258 C1261 1.260 . S
C1258 C1262 1.477 . S
C1258 H1276 0.932 . S
C1259 C1260 1.384 . S
C1259 C1261 1.479 . S
C1259 H1277 0.929 . S
C1260 C1257 1.424 . S
C1260 C1259 1.384 . S
C1260 H1278 0.928 . S
C1261 C1258 1.260 . S
C1261 C1259 1.479 . S
C1262 C1257 1.245 . S
C1262 C1258 1.477 . S
C1262 H1279 0.932 . S
C1263 U1246 2.882 . S
C1263 C1257 1.428 . S
C1263 O1266 1.301 . S
C1263 O1267 1.282 . S
O1264 U1246 2.441 . S
O1264 C1250 1.249 . S
O1265 U1246 2.420 . S
O1265 C1250 1.202 . S
O1266 U1246 2.455 . S
O1266 C1263 1.301 . S
O1267 U1246 2.449 . S
O1267 C1263 1.282 . S
H1268 C1241 0.931 . S
H1269 C1243 0.929 . S
H1270 C1244 0.930 . S
H1271 C1245 0.931 . S
H1272 C1252 0.932 . S
H1273 C1253 0.930 . S
H1274 C1254 0.929 . S
H1275 C1256 0.930 . S
H1276 C1258 0.932 . S
H1277 C1259 0.929 . S
H1278 C1260 0.928 . S
H1279 C1262 0.932 . S
C1280 C1281 1.369 . S
C1280 C1282 1.419 . S
C1280 H1284 0.930 . S
C1281 C1280 1.369 . S
C1281 C1290 1.429 . S
C1282 C1280 1.419 . S
C1282 C1283 1.363 . S
C1282 H1285 0.929 . S
C1283 C1282 1.363 . S
C1283 C1289 1.428 . S
H1284 C1280 0.930 . S
H1285 C1282 0.929 . S
S1286 N1287 1.613 . S
S1286 N1288 1.610 . S
N1287 S1286 1.613 . S
N1287 C1290 1.350 . S
N1288 S1286 1.610 . S
N1288 C1289 1.351 . S
C1289 C1283 1.428 . S
C1289 N1288 1.351 . S
C1289 C1290 1.434 . S
C1290 C1281 1.429 . S
C1290 N1287 1.350 . S
C1290 C1289 1.434 . S
C1291 C1292 1.317 1_645 S
C1291 C1293 1.465 . S
C1291 H1295 0.940 . S
C1292 C1291 1.317 1_465 S
C1292 C1301 1.429 . S
C1293 C1291 1.465 . S
C1293 C1294 1.363 . S
C1293 H1296 0.929 . S
C1294 C1293 1.363 . S
C1294 C1300 1.428 1_645 S
H1295 C1291 0.940 . S
H1296 C1293 0.929 . S
S1297 N1298 1.613 . S
S1297 N1299 1.610 . S
N1298 S1297 1.613 . S
N1298 C1301 1.350 . S
N1299 S1297 1.610 . S
N1299 C1300 1.351 . S
C1300 C1294 1.428 1_465 S
C1300 N1299 1.351 . S
C1300 C1301 1.434 . S
C1301 C1292 1.429 . S
C1301 N1298 1.350 . S
C1301 C1300 1.434 . S
C1302 C1303 1.369 . S
C1302 C1304 1.419 . S
C1302 H1306 0.930 . S
C1303 C1302 1.369 . S
C1303 C1312 1.429 . S
C1304 C1302 1.419 . S
C1304 C1305 1.363 . S
C1304 H1307 0.929 . S
C1305 C1304 1.363 . S
C1305 C1311 1.428 . S
H1306 C1302 0.930 . S
H1307 C1304 0.929 . S
S1308 N1309 1.613 . S
S1308 N1310 1.610 . S
N1309 S1308 1.613 . S
N1309 C1312 1.350 . S
N1310 S1308 1.610 . S
N1310 C1311 1.351 . S
C1311 C1305 1.428 . S
C1311 N1310 1.351 . S
C1311 C1312 1.434 . S
C1312 C1303 1.429 . S
C1312 N1309 1.350 . S
C1312 C1311 1.434 . S
C1313 C1314 1.369 . S
C1313 C1315 1.449 1_545 S
C1313 H1317 0.930 . S
C1314 C1313 1.369 . S
C1314 C1323 1.429 1_556 S
C1315 C1313 1.449 1_565 S
C1315 C1316 1.329 1_556 S
C1315 H1318 0.934 . S
C1316 C1315 1.329 1_554 S
C1316 C1322 1.428 . S
H1317 C1313 0.930 . S
H1318 C1315 0.934 . S
S1319 N1320 1.613 . S
S1319 N1321 1.610 1_545 S
N1320 S1319 1.613 . S
N1320 C1323 1.350 . S
N1321 S1319 1.610 1_565 S
N1321 C1322 1.351 . S
C1322 C1316 1.428 . S
C1322 N1321 1.351 . S
C1322 C1323 1.434 1_565 S
C1323 C1314 1.429 1_554 S
C1323 N1320 1.350 . S
C1323 C1322 1.434 1_545 S
C1324 C1325 1.369 . S
C1324 C1326 1.419 . S
C1324 H1328 0.930 . S
C1325 C1324 1.369 . S
C1325 C1334 1.429 . S
C1326 C1324 1.419 . S
C1326 C1327 1.363 . S
C1326 H1329 0.929 . S
C1327 C1326 1.363 . S
C1327 C1333 1.428 . S
H1328 C1324 0.930 . S
H1329 C1326 0.929 . S
S1330 N1331 1.613 . S
S1330 N1332 1.610 . S
N1331 S1330 1.613 . S
N1331 C1334 1.350 . S
N1332 S1330 1.610 . S
N1332 C1333 1.351 . S
C1333 C1327 1.428 . S
C1333 N1332 1.351 . S
C1333 C1334 1.434 . S
C1334 C1325 1.429 . S
C1334 N1331 1.350 . S
C1334 C1333 1.434 . S
C1335 C1336 1.369 . S
C1335 C1337 1.419 . S
C1335 H1339 0.930 . S
C1336 C1335 1.369 . S
C1336 C1345 1.429 1_565 S
C1337 C1335 1.419 . S
C1337 C1338 1.363 1_565 S
C1337 H1340 0.929 . S
C1338 C1337 1.363 1_545 S
C1338 C1344 1.428 . S
H1339 C1335 0.930 . S
H1340 C1337 0.929 . S
S1341 N1342 1.613 . S
S1341 N1343 1.610 . S
N1342 S1341 1.613 . S
N1342 C1345 1.350 . S
N1343 S1341 1.610 . S
N1343 C1344 1.351 . S
C1344 C1338 1.428 . S
C1344 N1343 1.351 . S
C1344 C1345 1.434 . S
C1345 C1336 1.429 1_545 S
C1345 N1342 1.350 . S
C1345 C1344 1.434 . S
C1346 C1347 1.369 . S
C1346 C1348 1.419 . S
C1346 H1350 0.930 . S
C1347 C1346 1.369 . S
C1347 C1356 1.429 . S
C1348 C1346 1.419 . S
C1348 C1349 1.363 . S
C1348 H1351 0.929 . S
C1349 C1348 1.363 . S
C1349 C1355 1.428 . S
H1350 C1346 0.930 . S
H1351 C1348 0.929 . S
S1352 N1353 1.613 . S
S1352 N1354 1.610 . S
N1353 S1352 1.613 . S
N1353 C1356 1.350 . S
N1354 S1352 1.610 . S
N1354 C1355 1.351 . S
C1355 C1349 1.428 . S
C1355 N1354 1.351 . S
C1355 C1356 1.434 . S
C1356 C1347 1.429 . S
C1356 N1353 1.350 . S
C1356 C1355 1.434 . S
C1357 C1358 1.369 1_545 S
C1357 C1359 1.419 1_556 S
C1357 H1361 0.930 . S
C1358 C1357 1.369 1_565 S
C1358 C1367 1.390 1_656 S
C1359 C1357 1.419 1_554 S
C1359 C1360 1.363 1_655 S
C1359 H1362 0.928 1_554 S
C1360 C1359 1.363 1_455 S
C1360 C1366 1.428 1_545 S
H1361 C1357 0.930 . S
H1362 C1359 0.928 1_556 S
S1363 N1364 1.613 . S
S1363 N1365 1.610 . S
N1364 S1363 1.613 . S
N1364 C1367 1.359 . S
N1365 S1363 1.610 . S
N1365 C1366 1.351 . S
C1366 C1360 1.428 1_565 S
C1366 N1365 1.351 . S
C1366 C1367 1.471 . S
C1367 C1358 1.390 1_454 S
C1367 N1364 1.359 . S
C1367 C1366 1.471 . S
C1368 C1369 1.369 . S
C1368 C1370 1.419 . S
C1368 H1372 0.930 . S
C1369 C1368 1.369 . S
C1369 C1378 1.429 . S
C1370 C1368 1.419 . S
C1370 C1371 1.363 . S
C1370 H1373 0.929 . S
C1371 C1370 1.363 . S
C1371 C1377 1.428 . S
H1372 C1368 0.930 . S
H1373 C1370 0.929 . S
S1374 N1375 1.613 . S
S1374 N1376 1.610 . S
N1375 S1374 1.613 . S
N1375 C1378 1.350 . S
N1376 S1374 1.610 . S
N1376 C1377 1.351 . S
C1377 C1371 1.428 . S
C1377 N1376 1.351 . S
C1377 C1378 1.434 . S
C1378 C1369 1.429 . S
C1378 N1375 1.350 . S
C1378 C1377 1.434 . S
C1379 C1380 1.369 . S
C1379 C1381 1.419 . S
C1379 H1383 0.930 . S
C1380 C1379 1.369 . S
C1380 C1389 1.429 . S
C1381 C1379 1.419 . S
C1381 C1382 1.363 . S
C1381 H1384 0.929 . S
C1382 C1381 1.363 . S
C1382 C1388 1.428 . S
H1383 C1379 0.930 . S
H1384 C1381 0.929 . S
S1385 N1386 1.613 . S
S1385 N1387 1.610 . S
N1386 S1385 1.613 . S
N1386 C1389 1.350 . S
N1387 S1385 1.610 . S
N1387 C1388 1.351 . S
C1388 C1382 1.428 . S
C1388 N1387 1.351 . S
C1388 C1389 1.434 . S
C1389 C1380 1.429 . S
C1389 N1386 1.350 . S
C1389 C1388 1.434 . S
C1390 C1391 1.369 . S
C1390 C1392 1.419 . S
C1390 H1394 0.930 . S
C1391 C1390 1.369 . S
C1391 C1400 1.429 . S
C1392 C1390 1.419 . S
C1392 C1393 1.363 . S
C1392 H1395 0.929 . S
C1393 C1392 1.363 . S
C1393 C1399 1.428 . S
H1394 C1390 0.930 . S
H1395 C1392 0.929 . S
S1396 N1397 1.613 . S
S1396 N1398 1.610 . S
N1397 S1396 1.613 . S
N1397 C1400 1.350 . S
N1398 S1396 1.610 . S
N1398 C1399 1.351 . S
C1399 C1393 1.428 . S
C1399 N1398 1.351 . S
C1399 C1400 1.434 . S
C1400 C1391 1.429 . S
C1400 N1397 1.350 . S
C1400 C1399 1.434 . S
C1401 C1402 1.369 . S
C1401 C1403 1.419 . S
C1401 H1405 0.930 . S
C1402 C1401 1.369 . S
C1402 C1411 1.429 . S
C1403 C1401 1.419 . S
C1403 C1404 1.363 . S
C1403 H1406 0.929 . S
C1404 C1403 1.363 . S
C1404 C1410 1.428 . S
H1405 C1401 0.930 . S
H1406 C1403 0.929 . S
S1407 N1408 1.613 . S
S1407 N1409 1.610 . S
N1408 S1407 1.613 . S
N1408 C1411 1.350 . S
N1409 S1407 1.610 . S
N1409 C1410 1.351 . S
C1410 C1404 1.428 . S
C1410 N1409 1.351 . S
C1410 C1411 1.434 . S
C1411 C1402 1.429 . S
C1411 N1408 1.350 . S
C1411 C1410 1.434 . S
C1412 C1413 1.369 . S
C1412 C1414 1.419 . S
C1412 H1416 0.930 . S
C1413 C1412 1.369 . S
C1413 C1422 1.429 1_554 S
C1414 C1412 1.419 . S
C1414 C1415 1.363 1_554 S
C1414 H1417 0.929 . S
C1415 C1414 1.363 1_556 S
C1415 C1421 1.428 . S
H1416 C1412 0.930 . S
H1417 C1414 0.929 . S
S1418 N1419 1.613 . S
S1418 N1420 1.610 . S
N1419 S1418 1.613 . S
N1419 C1422 1.350 . S
N1420 S1418 1.610 . S
N1420 C1421 1.351 . S
C1421 C1415 1.428 . S
C1421 N1420 1.351 . S
C1421 C1422 1.434 . S
C1422 C1413 1.429 1_556 S
C1422 N1419 1.350 . S
C1422 C1421 1.434 . S
C1423 C1424 1.369 . S
C1423 C1425 1.411 1_655 S
C1423 H1427 0.930 . S
C1424 C1423 1.369 . S
C1424 C1433 1.442 . S
C1425 C1423 1.411 1_455 S
C1425 C1426 1.371 . S
C1425 H1428 0.929 . S
C1426 C1425 1.371 . S
C1426 C1432 1.428 . S
H1427 C1423 0.930 . S
H1428 C1425 0.929 . S
S1429 N1430 1.613 1_455 S
S1429 N1431 1.610 . S
N1430 S1429 1.613 1_655 S
N1430 C1433 1.354 . S
N1431 S1429 1.610 . S
N1431 C1432 1.351 . S
C1432 C1426 1.428 . S
C1432 N1431 1.351 . S
C1432 C1433 1.420 1_455 S
C1433 C1424 1.442 . S
C1433 N1430 1.354 . S
C1433 C1432 1.420 1_655 S
C1434 C1435 1.369 1_654 S
C1434 C1436 1.419 . S
C1434 H1438 0.930 . S
C1435 C1434 1.369 1_456 S
C1435 C1444 1.429 . S
C1436 C1434 1.419 . S
C1436 C1437 1.363 . S
C1436 H1439 0.929 . S
C1437 C1436 1.363 . S
C1437 C1443 1.428 1_654 S
H1438 C1434 0.930 . S
H1439 C1436 0.929 . S
S1440 N1441 1.613 . S
S1440 N1442 1.610 . S
N1441 S1440 1.613 . S
N1441 C1444 1.350 . S
N1442 S1440 1.610 . S
N1442 C1443 1.351 . S
C1443 C1437 1.428 1_456 S
C1443 N1442 1.351 . S
C1443 C1444 1.434 . S
C1444 C1435 1.429 . S
C1444 N1441 1.350 . S
C1444 C1443 1.434 . S
C1445 C1446 1.369 . S
C1445 C1447 1.419 . S
C1445 H1449 0.930 . S
C1446 C1445 1.369 . S
C1446 C1455 1.429 . S
C1447 C1445 1.419 . S
C1447 C1448 1.363 . S
C1447 H1450 0.929 . S
C1448 C1447 1.363 . S
C1448 C1454 1.428 . S
H1449 C1445 0.930 . S
H1450 C1447 0.929 . S
S1451 N1452 1.613 . S
S1451 N1453 1.610 . S
N1452 S1451 1.613 . S
N1452 C1455 1.350 . S
N1453 S1451 1.610 . S
N1453 C1454 1.351 . S
C1454 C1448 1.428 . S
C1454 N1453 1.351 . S
C1454 C1455 1.434 . S
C1455 C1446 1.429 . S
C1455 N1452 1.350 . S
C1455 C1454 1.434 . S
C1456 C1457 1.369 . S
C1456 C1458 1.419 . S
C1456 H1460 0.930 . S
C1457 C1456 1.369 . S
C1457 C1466 1.429 . S
C1458 C1456 1.419 . S
C1458 C1459 1.363 . S
C1458 H1461 0.929 . S
C1459 C1458 1.363 . S
C1459 C1465 1.428 . S
H1460 C1456 0.930 . S
H1461 C1458 0.929 . S
S1462 N1463 1.613 . S
S1462 N1464 1.610 . S
N1463 S1462 1.613 . S
N1463 C1466 1.350 . S
N1464 S1462 1.610 . S
N1464 C1465 1.351 . S
C1465 C1459 1.428 . S
C1465 N1464 1.351 . S
C1465 C1466 1.434 . S
C1466 C1457 1.429 . S
C1466 N1463 1.350 . S
C1466 C1465 1.434 . S
C1467 C1468 1.369 . S
C1467 C1469 1.419 . S
C1467 H1471 0.930 . S
C1468 C1467 1.369 . S
C1468 C1477 1.429 . S
C1469 C1467 1.419 . S
C1469 C1470 1.363 . S
C1469 H1472 0.929 . S
C1470 C1469 1.363 . S
C1470 C1476 1.428 . S
H1471 C1467 0.930 . S
H1472 C1469 0.929 . S
S1473 N1474 1.613 . S
S1473 N1475 1.610 . S
N1474 S1473 1.613 . S
N1474 C1477 1.350 . S
N1475 S1473 1.610 . S
N1475 C1476 1.351 . S
C1476 C1470 1.428 . S
C1476 N1475 1.351 . S
C1476 C1477 1.434 . S
C1477 C1468 1.429 . S
C1477 N1474 1.350 . S
C1477 C1476 1.434 . S
C1478 C1479 1.369 . S
C1478 C1480 1.419 . S
C1478 H1482 0.930 . S
C1479 C1478 1.369 . S
C1479 C1488 1.429 . S
C1480 C1478 1.419 . S
C1480 C1481 1.363 . S
C1480 H1483 0.929 . S
C1481 C1480 1.363 . S
C1481 C1487 1.428 . S
H1482 C1478 0.930 . S
H1483 C1480 0.929 . S
S1484 N1485 1.613 . S
S1484 N1486 1.610 . S
N1485 S1484 1.613 . S
N1485 C1488 1.350 . S
N1486 S1484 1.610 . S
N1486 C1487 1.351 . S
C1487 C1481 1.428 . S
C1487 N1486 1.351 . S
C1487 C1488 1.434 . S
C1488 C1479 1.429 . S
C1488 N1485 1.350 . S
C1488 C1487 1.434 . S
C1489 C1490 1.369 . S
C1489 C1491 1.419 . S
C1489 H1493 0.930 . S
C1490 C1489 1.369 . S
C1490 C1499 1.429 . S
C1491 C1489 1.419 . S
C1491 C1492 1.363 . S
C1491 H1494 0.929 . S
C1492 C1491 1.363 . S
C1492 C1498 1.428 . S
H1493 C1489 0.930 . S
H1494 C1491 0.929 . S
S1495 N1496 1.613 . S
S1495 N1497 1.610 . S
N1496 S1495 1.613 . S
N1496 C1499 1.350 . S
N1497 S1495 1.610 . S
N1497 C1498 1.351 . S
C1498 C1492 1.428 . S
C1498 N1497 1.351 . S
C1498 C1499 1.434 . S
C1499 C1490 1.429 . S
C1499 N1496 1.350 . S
C1499 C1498 1.434 . S
C1500 C1501 1.369 . S
C1500 C1502 1.419 . S
C1500 H1504 0.930 . S
C1501 C1500 1.369 . S
C1501 C1510 1.429 . S
C1502 C1500 1.419 . S
C1502 C1503 1.363 . S
C1502 H1505 0.929 . S
C1503 C1502 1.363 . S
C1503 C1509 1.428 . S
H1504 C1500 0.930 . S
H1505 C1502 0.929 . S
S1506 N1507 1.613 . S
S1506 N1508 1.610 . S
N1507 S1506 1.613 . S
N1507 C1510 1.350 . S
N1508 S1506 1.610 . S
N1508 C1509 1.351 . S
C1509 C1503 1.428 . S
C1509 N1508 1.351 . S
C1509 C1510 1.434 . S
C1510 C1501 1.429 . S
C1510 N1507 1.350 . S
C1510 C1509 1.434 . S
C1511 C1512 1.369 . S
C1511 C1513 1.419 . S
C1511 H1515 0.930 . S
C1512 C1511 1.369 . S
C1512 C1521 1.429 . S
C1513 C1511 1.419 . S
C1513 C1514 1.363 . S
C1513 H1516 0.929 . S
C1514 C1513 1.363 . S
C1514 C1520 1.428 . S
H1515 C1511 0.930 . S
H1516 C1513 0.929 . S
S1517 N1518 1.613 . S
S1517 N1519 1.610 . S
N1518 S1517 1.613 . S
N1518 C1521 1.350 . S
N1519 S1517 1.610 . S
N1519 C1520 1.351 . S
C1520 C1514 1.428 . S
C1520 N1519 1.351 . S
C1520 C1521 1.434 . S
C1521 C1512 1.429 . S
C1521 N1518 1.350 . S
C1521 C1520 1.434 . S
C1522 C1523 1.369 . S
C1522 C1524 1.419 . S
C1522 H1526 0.930 . S
C1523 C1522 1.369 . S
C1523 C1532 1.429 . S
C1524 C1522 1.419 . S
C1524 C1525 1.363 . S
C1524 H1527 0.929 . S
C1525 C1524 1.363 . S
C1525 C1531 1.428 . S
H1526 C1522 0.930 . S
H1527 C1524 0.929 . S
S1528 N1529 1.613 . S
S1528 N1530 1.610 . S
N1529 S1528 1.613 . S
N1529 C1532 1.350 . S
N1530 S1528 1.610 . S
N1530 C1531 1.351 . S
C1531 C1525 1.428 . S
C1531 N1530 1.351 . S
C1531 C1532 1.434 . S
C1532 C1523 1.429 . S
C1532 N1529 1.350 . S
C1532 C1531 1.434 . S
C1533 C1534 1.369 . S
C1533 C1535 1.419 . S
C1533 H1537 0.930 . S
C1534 C1533 1.369 . S
C1534 C1543 1.429 . S
C1535 C1533 1.419 . S
C1535 C1536 1.363 . S
C1535 H1538 0.929 . S
C1536 C1535 1.363 . S
C1536 C1542 1.428 . S
H1537 C1533 0.930 . S
H1538 C1535 0.929 . S
S1539 N1540 1.613 . S
S1539 N1541 1.610 . S
N1540 S1539 1.613 . S
N1540 C1543 1.350 . S
N1541 S1539 1.610 . S
N1541 C1542 1.351 . S
C1542 C1536 1.428 . S
C1542 N1541 1.351 . S
C1542 C1543 1.434 . S
C1543 C1534 1.429 . S
C1543 N1540 1.350 . S
C1543 C1542 1.434 . S
C1544 C1545 1.369 . S
C1544 C1546 1.419 . S
C1544 H1548 0.930 . S
C1545 C1544 1.369 . S
C1545 C1554 1.429 . S
C1546 C1544 1.419 . S
C1546 C1547 1.363 . S
C1546 H1549 0.929 . S
C1547 C1546 1.363 . S
C1547 C1553 1.428 . S
H1548 C1544 0.930 . S
H1549 C1546 0.929 . S
S1550 N1551 1.613 . S
S1550 N1552 1.610 . S
N1551 S1550 1.613 . S
N1551 C1554 1.350 . S
N1552 S1550 1.610 . S
N1552 C1553 1.351 . S
C1553 C1547 1.428 . S
C1553 N1552 1.351 . S
C1553 C1554 1.434 . S
C1554 C1545 1.429 . S
C1554 N1551 1.350 . S
C1554 C1553 1.434 . S
C1555 C1556 1.369 . S
C1555 C1557 1.419 . S
C1555 H1559 0.930 . S
C1556 C1555 1.369 . S
C1556 C1565 1.429 . S
C1557 C1555 1.419 . S
C1557 C1558 1.363 . S
C1557 H1560 0.929 . S
C1558 C1557 1.363 . S
C1558 C1564 1.428 . S
H1559 C1555 0.930 . S
H1560 C1557 0.929 . S
S1561 N1562 1.613 . S
S1561 N1563 1.610 . S
N1562 S1561 1.613 . S
N1562 C1565 1.350 . S
N1563 S1561 1.610 . S
N1563 C1564 1.351 . S
C1564 C1558 1.428 . S
C1564 N1563 1.351 . S
C1564 C1565 1.434 . S
C1565 C1556 1.429 . S
C1565 N1562 1.350 . S
C1565 C1564 1.434 . S
C1566 C1567 1.369 . S
C1566 C1568 1.419 . S
C1566 H1570 0.930 . S
C1567 C1566 1.369 . S
C1567 C1576 1.429 . S
C1568 C1566 1.419 . S
C1568 C1569 1.363 . S
C1568 H1571 0.929 . S
C1569 C1568 1.363 . S
C1569 C1575 1.428 . S
H1570 C1566 0.930 . S
H1571 C1568 0.929 . S
S1572 N1573 1.613 . S
S1572 N1574 1.610 . S
N1573 S1572 1.613 . S
N1573 C1576 1.350 . S
N1574 S1572 1.610 . S
N1574 C1575 1.351 . S
C1575 C1569 1.428 . S
C1575 N1574 1.351 . S
C1575 C1576 1.434 . S
C1576 C1567 1.429 . S
C1576 N1573 1.350 . S
C1576 C1575 1.434 . S
C1577 C1578 1.369 . S
C1577 C1579 1.419 . S
C1577 H1581 0.930 . S
C1578 C1577 1.369 . S
C1578 C1587 1.429 . S
C1579 C1577 1.419 . S
C1579 C1580 1.363 . S
C1579 H1582 0.929 . S
C1580 C1579 1.363 . S
C1580 C1586 1.428 . S
H1581 C1577 0.930 . S
H1582 C1579 0.929 . S
S1583 N1584 1.613 . S
S1583 N1585 1.610 . S
N1584 S1583 1.613 . S
N1584 C1587 1.350 . S
N1585 S1583 1.610 . S
N1585 C1586 1.351 . S
C1586 C1580 1.428 . S
C1586 N1585 1.351 . S
C1586 C1587 1.434 . S
C1587 C1578 1.429 . S
C1587 N1584 1.350 . S
C1587 C1586 1.434 . S
C1588 C1589 1.369 . S
C1588 C1590 1.419 . S
C1588 H1592 0.930 . S
C1589 C1588 1.369 . S
C1589 C1598 1.429 . S
C1590 C1588 1.419 . S
C1590 C1591 1.363 . S
C1590 H1593 0.929 . S
C1591 C1590 1.363 . S
C1591 C1597 1.428 . S
H1592 C1588 0.930 . S
H1593 C1590 0.929 . S
S1594 N1595 1.613 . S
S1594 N1596 1.610 . S
N1595 S1594 1.613 . S
N1595 C1598 1.350 . S
N1596 S1594 1.610 . S
N1596 C1597 1.351 . S
C1597 C1591 1.428 . S
C1597 N1596 1.351 . S
C1597 C1598 1.434 . S
C1598 C1589 1.429 . S
C1598 N1595 1.350 . S
C1598 C1597 1.434 . S
C1599 C1600 1.369 . S
C1599 C1601 1.419 . S
C1599 H1603 0.930 . S
C1600 C1599 1.369 . S
C1600 C1609 1.429 . S
C1601 C1599 1.419 . S
C1601 C1602 1.363 . S
C1601 H1604 0.929 . S
C1602 C1601 1.363 . S
C1602 C1608 1.428 . S
H1603 C1599 0.930 . S
H1604 C1601 0.929 . S
S1605 N1606 1.613 . S
S1605 N1607 1.610 . S
N1606 S1605 1.613 . S
N1606 C1609 1.350 . S
N1607 S1605 1.610 . S
N1607 C1608 1.351 . S
C1608 C1602 1.428 . S
C1608 N1607 1.351 . S
C1608 C1609 1.434 . S
C1609 C1600 1.429 . S
C1609 N1606 1.350 . S
C1609 C1608 1.434 . S
C1610 C1611 1.369 . S
C1610 C1612 1.419 . S
C1610 H1614 0.930 . S
C1611 C1610 1.369 . S
C1611 C1620 1.429 . S
C1612 C1610 1.419 . S
C1612 C1613 1.363 . S
C1612 H1615 0.929 . S
C1613 C1612 1.363 . S
C1613 C1619 1.428 . S
H1614 C1610 0.930 . S
H1615 C1612 0.929 . S
S1616 N1617 1.613 . S
S1616 N1618 1.610 . S
N1617 S1616 1.613 . S
N1617 C1620 1.350 . S
N1618 S1616 1.610 . S
N1618 C1619 1.351 . S
C1619 C1613 1.428 . S
C1619 N1618 1.351 . S
C1619 C1620 1.434 . S
C1620 C1611 1.429 . S
C1620 N1617 1.350 . S
C1620 C1619 1.434 . S
C1621 C1622 1.369 . S
C1621 C1623 1.419 . S
C1621 H1625 0.930 . S
C1622 C1621 1.369 . S
C1622 C1631 1.429 . S
C1623 C1621 1.419 . S
C1623 C1624 1.363 . S
C1623 H1626 0.929 . S
C1624 C1623 1.363 . S
C1624 C1630 1.428 . S
H1625 C1621 0.930 . S
H1626 C1623 0.929 . S
S1627 N1628 1.613 . S
S1627 N1629 1.610 . S
N1628 S1627 1.613 . S
N1628 C1631 1.350 . S
N1629 S1627 1.610 . S
N1629 C1630 1.351 . S
C1630 C1624 1.428 . S
C1630 N1629 1.351 . S
C1630 C1631 1.434 . S
C1631 C1622 1.429 . S
C1631 N1628 1.350 . S
C1631 C1630 1.434 . S
C1632 C1633 1.369 . S
C1632 C1634 1.419 1_556 S
C1632 H1636 0.930 . S
C1633 C1632 1.369 . S
C1633 C1642 1.463 . S
C1634 C1632 1.419 1_554 S
C1634 C1635 1.363 . S
C1634 H1637 0.929 . S
C1635 C1634 1.363 . S
C1635 C1641 1.428 . S
H1636 C1632 0.930 . S
H1637 C1634 0.929 . S
S1638 N1639 1.597 1_554 S
S1638 N1640 1.610 . S
N1639 S1638 1.597 1_556 S
N1639 C1642 1.349 . S
N1640 S1638 1.610 . S
N1640 C1641 1.351 . S
C1641 C1635 1.428 . S
C1641 N1640 1.351 . S
C1641 C1642 1.399 1_554 S
C1642 C1633 1.463 . S
C1642 N1639 1.349 . S
C1642 C1641 1.399 1_556 S
C1643 C1644 1.336 1_455 S
C1643 C1645 1.367 1_545 S
C1643 H1647 0.966 . S
C1644 C1643 1.336 1_655 S
C1644 C1653 1.467 . S
C1645 C1643 1.367 1_565 S
C1645 C1646 1.389 1_455 S
C1645 H1648 0.959 . S
C1646 C1645 1.389 1_655 S
C1646 C1652 1.428 . S
H1647 C1643 0.966 . S
H1648 C1645 0.959 . S
S1649 N1650 1.608 1_565 S
S1649 N1651 1.610 . S
N1650 S1649 1.608 1_545 S
N1650 C1653 1.349 . S
N1651 S1649 1.610 . S
N1651 C1652 1.351 . S
C1652 C1646 1.428 . S
C1652 N1651 1.351 . S
C1652 C1653 1.394 1_565 S
C1653 C1644 1.467 . S
C1653 N1650 1.349 . S
C1653 C1652 1.394 1_545 S
C1654 C1655 1.369 . S
C1654 C1656 1.419 . S
C1654 H1658 0.930 . S
C1655 C1654 1.369 . S
C1655 C1664 1.429 . S
C1656 C1654 1.419 . S
C1656 C1657 1.363 . S
C1656 H1659 0.929 . S
C1657 C1656 1.363 . S
C1657 C1663 1.428 . S
H1658 C1654 0.930 . S
H1659 C1656 0.929 . S
S1660 N1661 1.613 . S
S1660 N1662 1.610 . S
N1661 S1660 1.613 . S
N1661 C1664 1.350 . S
N1662 S1660 1.610 . S
N1662 C1663 1.351 . S
C1663 C1657 1.428 . S
C1663 N1662 1.351 . S
C1663 C1664 1.434 . S
C1664 C1655 1.429 . S
C1664 N1661 1.350 . S
C1664 C1663 1.434 . S
C1665 C1666 1.369 1_545 S
C1665 C1667 1.419 . S
C1665 H1669 0.930 . S
C1666 C1665 1.369 1_565 S
C1666 C1675 1.429 . S
C1667 C1665 1.419 . S
C1667 C1668 1.363 . S
C1667 H1670 0.929 . S
C1668 C1667 1.363 . S
C1668 C1674 1.428 1_545 S
H1669 C1665 0.930 . S
H1670 C1667 0.929 . S
S1671 N1672 1.613 . S
S1671 N1673 1.610 . S
N1672 S1671 1.613 . S
N1672 C1675 1.350 . S
N1673 S1671 1.610 . S
N1673 C1674 1.351 . S
C1674 C1668 1.428 1_565 S
C1674 N1673 1.351 . S
C1674 C1675 1.434 . S
C1675 C1666 1.429 . S
C1675 N1672 1.350 . S
C1675 C1674 1.434 . S
C1676 C1677 1.369 . S
C1676 C1678 1.419 . S
C1676 H1680 0.930 . S
C1677 C1676 1.369 . S
C1677 C1686 1.429 1_556 S
C1678 C1676 1.419 . S
C1678 C1679 1.363 1_556 S
C1678 H1681 0.929 . S
C1679 C1678 1.363 1_554 S
C1679 C1685 1.428 . S
H1680 C1676 0.930 . S
H1681 C1678 0.929 . S
S1682 N1683 1.613 . S
S1682 N1684 1.610 . S
N1683 S1682 1.613 . S
N1683 C1686 1.350 . S
N1684 S1682 1.610 . S
N1684 C1685 1.351 . S
C1685 C1679 1.428 . S
C1685 N1684 1.351 . S
C1685 C1686 1.434 . S
C1686 C1677 1.429 1_554 S
C1686 N1683 1.350 . S
C1686 C1685 1.434 . S
C1687 C1688 1.369 1_545 S
C1687 C1689 1.419 . S
C1687 H1691 0.930 . S
C1688 C1687 1.369 1_565 S
C1688 C1697 1.429 . S
C1689 C1687 1.419 . S
C1689 C1690 1.363 . S
C1689 H1692 0.929 . S
C1690 C1689 1.363 . S
C1690 C1696 1.428 1_545 S
H1691 C1687 0.930 . S
H1692 C1689 0.929 . S
S1693 N1694 1.613 . S
S1693 N1695 1.610 . S
N1694 S1693 1.613 . S
N1694 C1697 1.350 . S
N1695 S1693 1.610 . S
N1695 C1696 1.351 . S
C1696 C1690 1.428 1_565 S
C1696 N1695 1.351 . S
C1696 C1697 1.434 . S
C1697 C1688 1.429 . S
C1697 N1694 1.350 . S
C1697 C1696 1.434 . S
C1698 C1699 1.369 . S
C1698 C1700 1.419 . S
C1698 H1702 0.930 . S
C1699 C1698 1.369 . S
C1699 C1708 1.429 . S
C1700 C1698 1.419 . S
C1700 C1701 1.363 . S
C1700 H1703 0.929 . S
C1701 C1700 1.363 . S
C1701 C1707 1.428 . S
H1702 C1698 0.930 . S
H1703 C1700 0.929 . S
S1704 N1705 1.613 . S
S1704 N1706 1.610 . S
N1705 S1704 1.613 . S
N1705 C1708 1.350 . S
N1706 S1704 1.610 . S
N1706 C1707 1.351 . S
C1707 C1701 1.428 . S
C1707 N1706 1.351 . S
C1707 C1708 1.434 . S
C1708 C1699 1.429 . S
C1708 N1705 1.350 . S
C1708 C1707 1.434 . S
C1709 C1710 1.369 1_565 S
C1709 C1711 1.419 . S
C1709 H1713 0.930 . S
C1710 C1709 1.369 1_545 S
C1710 C1719 1.429 . S
C1711 C1709 1.419 . S
C1711 C1712 1.363 . S
C1711 H1714 0.929 . S
C1712 C1711 1.363 . S
C1712 C1718 1.428 1_565 S
H1713 C1709 0.930 . S
H1714 C1711 0.929 . S
S1715 N1716 1.613 . S
S1715 N1717 1.610 . S
N1716 S1715 1.613 . S
N1716 C1719 1.350 . S
N1717 S1715 1.610 . S
N1717 C1718 1.351 . S
C1718 C1712 1.428 1_545 S
C1718 N1717 1.351 . S
C1718 C1719 1.434 . S
C1719 C1710 1.429 . S
C1719 N1716 1.350 . S
C1719 C1718 1.434 . S
C1720 C1721 1.369 . S
C1720 C1722 1.419 . S
C1720 H1724 0.930 . S
C1721 C1720 1.369 . S
C1721 C1730 1.429 . S
C1722 C1720 1.419 . S
C1722 C1723 1.363 . S
C1722 H1725 0.929 . S
C1723 C1722 1.363 . S
C1723 C1729 1.428 . S
H1724 C1720 0.930 . S
H1725 C1722 0.929 . S
S1726 N1727 1.613 . S
S1726 N1728 1.610 . S
N1727 S1726 1.613 . S
N1727 C1730 1.350 . S
N1728 S1726 1.610 . S
N1728 C1729 1.351 . S
C1729 C1723 1.428 . S
C1729 N1728 1.351 . S
C1729 C1730 1.434 . S
C1730 C1721 1.429 . S
C1730 N1727 1.350 . S
C1730 C1729 1.434 . S
C1731 C1732 1.369 . S
C1731 C1733 1.419 . S
C1731 H1735 0.930 . S
C1732 C1731 1.369 . S
C1732 C1741 1.429 . S
C1733 C1731 1.419 . S
C1733 C1734 1.363 . S
C1733 H1736 0.929 . S
C1734 C1733 1.363 . S
C1734 C1740 1.428 . S
H1735 C1731 0.930 . S
H1736 C1733 0.929 . S
S1737 N1738 1.613 . S
S1737 N1739 1.610 . S
N1738 S1737 1.613 . S
N1738 C1741 1.350 . S
N1739 S1737 1.610 . S
N1739 C1740 1.351 . S
C1740 C1734 1.428 . S
C1740 N1739 1.351 . S
C1740 C1741 1.434 . S
C1741 C1732 1.429 . S
C1741 N1738 1.350 . S
C1741 C1740 1.434 . S
C1742 C1743 1.369 . S
C1742 C1744 1.419 . S
C1742 H1746 0.930 . S
C1743 C1742 1.369 . S
C1743 C1752 1.429 1_554 S
C1744 C1742 1.419 . S
C1744 C1745 1.363 1_554 S
C1744 H1747 0.929 . S
C1745 C1744 1.363 1_556 S
C1745 C1751 1.428 . S
H1746 C1742 0.930 . S
H1747 C1744 0.929 . S
S1748 N1749 1.613 . S
S1748 N1750 1.610 . S
N1749 S1748 1.613 . S
N1749 C1752 1.350 . S
N1750 S1748 1.610 . S
N1750 C1751 1.351 . S
C1751 C1745 1.428 . S
C1751 N1750 1.351 . S
C1751 C1752 1.434 . S
C1752 C1743 1.429 1_556 S
C1752 N1749 1.350 . S
C1752 C1751 1.434 . S
C1753 C1754 1.369 1_655 S
C1753 C1755 1.419 . S
C1753 H1757 0.930 . S
C1754 C1753 1.369 1_455 S
C1754 C1763 1.429 . S
C1755 C1753 1.419 . S
C1755 C1756 1.363 1_655 S
C1755 H1758 0.929 . S
C1756 C1755 1.363 1_455 S
C1756 C1762 1.428 . S
H1757 C1753 0.930 . S
H1758 C1755 0.929 . S
S1759 N1760 1.613 . S
S1759 N1761 1.610 . S
N1760 S1759 1.613 . S
N1760 C1763 1.350 . S
N1761 S1759 1.610 . S
N1761 C1762 1.351 . S
C1762 C1756 1.428 . S
C1762 N1761 1.351 . S
C1762 C1763 1.434 . S
C1763 C1754 1.429 . S
C1763 N1760 1.350 . S
C1763 C1762 1.434 . S
C1764 C1765 1.369 . S
C1764 C1766 1.419 . S
C1764 H1768 0.930 . S
C1765 C1764 1.369 . S
C1765 C1774 1.429 . S
C1766 C1764 1.419 . S
C1766 C1767 1.363 . S
C1766 H1769 0.929 . S
C1767 C1766 1.363 . S
C1767 C1773 1.428 . S
H1768 C1764 0.930 . S
H1769 C1766 0.929 . S
S1770 N1771 1.613 . S
S1770 N1772 1.610 . S
N1771 S1770 1.613 . S
N1771 C1774 1.350 . S
N1772 S1770 1.610 . S
N1772 C1773 1.351 . S
C1773 C1767 1.428 . S
C1773 N1772 1.351 . S
C1773 C1774 1.434 . S
C1774 C1765 1.429 . S
C1774 N1771 1.350 . S
C1774 C1773 1.434 . S
C1775 C1776 1.369 . S
C1775 C1777 1.419 . S
C1775 H1779 0.930 . S
C1776 C1775 1.369 . S
C1776 C1785 1.429 . S
C1777 C1775 1.419 . S
C1777 C1778 1.363 . S
C1777 H1780 0.929 . S
C1778 C1777 1.363 . S
C1778 C1784 1.428 . S
H1779 C1775 0.930 . S
H1780 C1777 0.929 . S
S1781 N1782 1.613 . S
S1781 N1783 1.610 . S
N1782 S1781 1.613 . S
N1782 C1785 1.350 . S
N1783 S1781 1.610 . S
N1783 C1784 1.351 . S
C1784 C1778 1.428 . S
C1784 N1783 1.351 . S
C1784 C1785 1.434 . S
C1785 C1776 1.429 . S
C1785 N1782 1.350 . S
C1785 C1784 1.434 . S
C1786 C1787 1.369 . S
C1786 C1788 1.419 1_556 S
C1786 H1790 0.930 . S
C1787 C1786 1.369 . S
C1787 C1796 1.429 . S
C1788 C1786 1.419 1_554 S
C1788 C1789 1.363 . S
C1788 H1791 0.929 . S
C1789 C1788 1.363 . S
C1789 C1795 1.428 . S
H1790 C1786 0.930 . S
H1791 C1788 0.929 . S
S1792 N1793 1.613 1_554 S
S1792 N1794 1.610 . S
N1793 S1792 1.613 1_556 S
N1793 C1796 1.350 . S
N1794 S1792 1.610 . S
N1794 C1795 1.351 . S
C1795 C1789 1.428 . S
C1795 N1794 1.351 . S
C1795 C1796 1.434 1_554 S
C1796 C1787 1.429 . S
C1796 N1793 1.350 . S
C1796 C1795 1.434 1_556 S
C1797 C1798 1.369 1_455 S
C1797 C1799 1.419 . S
C1797 H1801 0.930 . S
C1798 C1797 1.369 1_655 S
C1798 C1807 1.429 . S
C1799 C1797 1.419 . S
C1799 C1800 1.363 1_455 S
C1799 H1802 0.929 . S
C1800 C1799 1.363 1_655 S
C1800 C1806 1.428 . S
H1801 C1797 0.930 . S
H1802 C1799 0.929 . S
S1803 N1804 1.613 . S
S1803 N1805 1.610 . S
N1804 S1803 1.613 . S
N1804 C1807 1.350 . S
N1805 S1803 1.610 . S
N1805 C1806 1.351 . S
C1806 C1800 1.428 . S
C1806 N1805 1.351 . S
C1806 C1807 1.434 . S
C1807 C1798 1.429 . S
C1807 N1804 1.350 . S
C1807 C1806 1.434 . S
C1281 C975 2.101 . S
C1283 C15 2.081 . S
C1292 C55 2.086 . S
C1294 C375 2.097 . S
C1303 C1055 2.096 . S
C1305 C95 2.086 . S
C1314 C135 2.088 . S
C1316 C455 2.096 . S
C1325 C175 2.087 . S
C1327 C1135 2.096 . S
C1336 C215 2.085 . S
C1338 C535 2.098 . S
C1347 C255 2.084 . S
C1349 C1215 2.099 . S
C1358 C615 2.100 . S
C1360 C295 2.084 . S
C1369 C655 2.080 . S
C1371 C335 2.101 . S
C1380 C415 2.102 . S
C1382 C735 2.081 . S
C1391 C815 2.083 . S
C1393 C495 2.099 . S
C1402 C895 2.080 . S
C1404 C575 2.101 . S
C1413 C1015 2.101 . S
C1415 C695 2.082 . S
C1424 C775 2.083 . S
C1426 C1095 2.100 . S
C1435 C1175 2.097 . S
C1437 C855 2.086 . S
C1446 C1255 2.101 . S
C1448 C935 2.082 . S
C1457 C842 1.709 . S
C1459 C2 1.709 . S
C1468 C882 1.710 . S
C1470 C42 1.712 . S
C1479 C82 1.709 . S
C1481 C922 1.710 . S
C1490 C122 1.710 . S
C1492 C802 1.712 . S
C1501 C762 1.709 . S
C1503 C162 1.710 . S
C1512 C202 1.709 . S
C1514 C642 1.710 . S
C1523 C242 1.715 . S
C1525 C682 1.714 . S
C1534 C282 1.709 . S
C1536 C722 1.711 . S
C1545 C322 1.750 . S
C1547 C1162 1.749 . S
C1556 C362 1.749 . S
C1558 C1202 1.750 . S
C1567 C1242 1.750 . S
C1569 C402 1.750 . S
C1578 C442 1.749 . S
C1580 C1122 1.749 . S
C1589 C1082 1.749 . S
C1591 C482 1.750 . S
C1600 C522 1.750 . S
C1602 C962 1.749 . S
C1611 C1002 1.749 . S
C1613 C562 1.749 . S
C1622 C1042 1.749 . S
C1624 C602 1.750 . S
C1633 C261 1.690 . S
C1635 C21 1.689 . S
C1644 C301 1.683 . S
C1646 C61 1.686 . S
C1655 C181 1.683 . S
C1657 C101 1.690 . S
C1666 C221 1.692 . S
C1668 C141 1.686 . S
C1677 C341 1.761 . S
C1679 C581 1.759 . S
C1688 C621 1.762 . S
C1690 C381 1.759 . S
C1699 C421 1.759 . S
C1701 C501 1.761 . S
C1710 C541 1.762 . S
C1712 C461 1.759 . S
C1721 C661 1.683 . S
C1723 C901 1.685 . S
C1732 C701 1.684 . S
C1734 C941 1.690 . S
C1743 C741 1.689 . S
C1745 C821 1.683 . S
C1754 C781 1.684 . S
C1756 C861 1.685 . S
C1765 C1221 1.761 . S
C1767 C981 1.759 . S
C1776 C1261 1.759 . S
C1778 C1021 1.761 . S
C1787 C1061 1.761 . S
C1789 C1141 1.759 . S
C1798 C1181 1.760 . S
C1800 C1101 1.761 . S
