# Generated by pormake.
# Topology pbz, (3)-cn, num edge types: 1
# Building blocks:
#     Node 0, Type 0, BuildingBlock: WUSLED_clean_sbu_0, # of connection points: 3
#     Node 1, Type 0, BuildingBlock: WUSLED_clean_sbu_0, # of connection points: 3
#     Node 2, Type 0, BuildingBlock: WUSLED_clean_sbu_0, # of connection points: 3
#     Node 3, Type 0, BuildingBlock: WUSLED_clean_sbu_0, # of connection points: 3
#     Node 4, Type 0, BuildingBlock: WUSLED_clean_sbu_0, # of connection points: 3
#     Node 5, Type 0, BuildingBlock: WUSLED_clean_sbu_0, # of connection points: 3
#     Node 6, Type 0, BuildingBlock: WUSLED_clean_sbu_0, # of connection points: 3
#     Node 7, Type 0, BuildingBlock: WUSLED_clean_sbu_0, # of connection points: 3
#     Node 8, Type 0, BuildingBlock: WUSLED_clean_sbu_0, # of connection points: 3
#     Node 9, Type 0, BuildingBlock: WUSLED_clean_sbu_0, # of connection points: 3
#     Node 10, Type 0, BuildingBlock: WUSLED_clean_sbu_0, # of connection points: 3
#     Node 11, Type 0, BuildingBlock: WUSLED_clean_sbu_0, # of connection points: 3
#     Node 12, Type 0, BuildingBlock: WUSLED_clean_sbu_0, # of connection points: 3
#     Node 13, Type 0, BuildingBlock: WUSLED_clean_sbu_0, # of connection points: 3
#     Node 14, Type 0, BuildingBlock: WUSLED_clean_sbu_0, # of connection points: 3
#     Node 15, Type 0, BuildingBlock: WUSLED_clean_sbu_0, # of connection points: 3
#     Node 16, Type 0, BuildingBlock: WUSLED_clean_sbu_0, # of connection points: 3
#     Node 17, Type 0, BuildingBlock: WUSLED_clean_sbu_0, # of connection points: 3
#     Node 18, Type 0, BuildingBlock: WUSLED_clean_sbu_0, # of connection points: 3
#     Node 19, Type 0, BuildingBlock: WUSLED_clean_sbu_0, # of connection points: 3
#     Node 20, Type 0, BuildingBlock: WUSLED_clean_sbu_0, # of connection points: 3
#     Node 21, Type 0, BuildingBlock: WUSLED_clean_sbu_0, # of connection points: 3
#     Node 22, Type 0, BuildingBlock: WUSLED_clean_sbu_0, # of connection points: 3
#     Node 23, Type 0, BuildingBlock: WUSLED_clean_sbu_0, # of connection points: 3
#     Edge 24, Type (0, 0), BuildingBlock: XIVTED_clean_linker_0, # of connection points: 2
#     Edge 25, Type (0, 0), BuildingBlock: XIVTED_clean_linker_0, # of connection points: 2
#     Edge 26, Type (0, 0), BuildingBlock: XIVTED_clean_linker_0, # of connection points: 2
#     Edge 27, Type (0, 0), BuildingBlock: XIVTED_clean_linker_0, # of connection points: 2
#     Edge 28, Type (0, 0), BuildingBlock: XIVTED_clean_linker_0, # of connection points: 2
#     Edge 29, Type (0, 0), BuildingBlock: XIVTED_clean_linker_0, # of connection points: 2
#     Edge 30, Type (0, 0), BuildingBlock: XIVTED_clean_linker_0, # of connection points: 2
#     Edge 31, Type (0, 0), BuildingBlock: XIVTED_clean_linker_0, # of connection points: 2
#     Edge 32, Type (0, 0), BuildingBlock: XIVTED_clean_linker_0, # of connection points: 2
#     Edge 33, Type (0, 0), BuildingBlock: XIVTED_clean_linker_0, # of connection points: 2
#     Edge 34, Type (0, 0), BuildingBlock: XIVTED_clean_linker_0, # of connection points: 2
#     Edge 35, Type (0, 0), BuildingBlock: XIVTED_clean_linker_0, # of connection points: 2
#     Edge 36, Type (0, 0), BuildingBlock: XIVTED_clean_linker_0, # of connection points: 2
#     Edge 37, Type (0, 0), BuildingBlock: XIVTED_clean_linker_0, # of connection points: 2
#     Edge 38, Type (0, 0), BuildingBlock: XIVTED_clean_linker_0, # of connection points: 2
#     Edge 39, Type (0, 0), BuildingBlock: XIVTED_clean_linker_0, # of connection points: 2
#     Edge 40, Type (0, 0), BuildingBlock: XIVTED_clean_linker_0, # of connection points: 2
#     Edge 41, Type (0, 0), BuildingBlock: XIVTED_clean_linker_0, # of connection points: 2
#     Edge 42, Type (0, 0), BuildingBlock: XIVTED_clean_linker_0, # of connection points: 2
#     Edge 43, Type (0, 0), BuildingBlock: XIVTED_clean_linker_0, # of connection points: 2
#     Edge 44, Type (0, 0), BuildingBlock: XIVTED_clean_linker_0, # of connection points: 2
#     Edge 45, Type (0, 0), BuildingBlock: XIVTED_clean_linker_0, # of connection points: 2
#     Edge 46, Type (0, 0), BuildingBlock: XIVTED_clean_linker_0, # of connection points: 2
#     Edge 47, Type (0, 0), BuildingBlock: XIVTED_clean_linker_0, # of connection points: 2
#     Edge 48, Type (0, 0), BuildingBlock: XIVTED_clean_linker_0, # of connection points: 2
#     Edge 49, Type (0, 0), BuildingBlock: XIVTED_clean_linker_0, # of connection points: 2
#     Edge 50, Type (0, 0), BuildingBlock: XIVTED_clean_linker_0, # of connection points: 2
#     Edge 51, Type (0, 0), BuildingBlock: XIVTED_clean_linker_0, # of connection points: 2
#     Edge 52, Type (0, 0), BuildingBlock: XIVTED_clean_linker_0, # of connection points: 2
#     Edge 53, Type (0, 0), BuildingBlock: XIVTED_clean_linker_0, # of connection points: 2
#     Edge 54, Type (0, 0), BuildingBlock: XIVTED_clean_linker_0, # of connection points: 2
#     Edge 55, Type (0, 0), BuildingBlock: XIVTED_clean_linker_0, # of connection points: 2
#     Edge 56, Type (0, 0), BuildingBlock: XIVTED_clean_linker_0, # of connection points: 2
#     Edge 57, Type (0, 0), BuildingBlock: XIVTED_clean_linker_0, # of connection points: 2
#     Edge 58, Type (0, 0), BuildingBlock: XIVTED_clean_linker_0, # of connection points: 2
#     Edge 59, Type (0, 0), BuildingBlock: XIVTED_clean_linker_0, # of connection points: 2
# Relax obj value: 0.000
# Max RMSD: 0.013
# Mean RMSD: 0.009
data_MOF--net-pbz--node1-WUSLED_clean_sbu_0--edge1-XIVTED_clean_linker_0
_symmetry_space_group_name_H-M    P1
_symmetry_Int_Tables_number       1
_symmetry_cell_setting            triclinic
loop_
_symmetry_equiv_pos_as_xyz
'x, y, z'
_cell_length_a     99.475244
_cell_length_b     99.744414
_cell_length_c     99.819886
_cell_angle_alpha  89.478163
_cell_angle_beta   90.055502
_cell_angle_gamma 89.969825
loop_
_atom_site_label
_atom_site_type_symbol
_atom_site_fract_x
_atom_site_fract_y
_atom_site_fract_z
_atom_type_partial_charge
C0 C 1.0023 0.21137 0.7093 0.0
C1 C 0.01168 0.22192 0.70852 0.0
C2 C 1.00524 0.22983 0.73077 0.0
C3 C 0.01315 0.23099 0.71911 0.0
C4 C 0.99607 0.21911 0.73164 0.0
C5 C 0.99459 0.21006 0.72105 0.0
U6 U 1.0079 0.18151 0.68453 0.0
O7 O 0.99254 0.16847 0.67544 0.0
O8 O 1.00507 0.18129 0.66263 0.0
C9 C 0.99485 0.17294 0.66323 0.0
C10 C 0.99927 0.20282 0.69746 0.0
C11 C 0.98292 0.17585 0.65459 0.0
C12 C 0.97253 0.18751 0.63557 0.0
C13 C 0.98313 0.18608 0.64477 0.0
C14 C 0.96111 0.1687 0.64588 0.0
C15 C 0.96143 0.17872 0.63586 0.0
C16 C 0.97171 0.16725 0.65506 0.0
C17 C 0.03806 0.15666 0.69005 0.0
C18 C 0.05843 0.14718 0.68018 0.0
C19 C 0.04524 0.13383 0.69561 0.0
C20 C 0.03611 0.14446 0.69696 0.0
C21 C 0.05667 0.1351 0.68738 0.0
C22 C 0.04929 0.15783 0.68154 0.0
C23 C 0.02944 0.16853 0.69307 0.0
O24 O 1.00755 0.20344 0.68719 0.0
O25 O 0.99486 0.19061 0.69984 0.0
O26 O 0.01724 0.16618 0.69759 0.0
O27 O 0.02991 0.17881 0.68473 0.0
H28 H 0.0177 0.22339 0.69959 0.0
H29 H 0.02044 0.23899 0.71809 0.0
H30 H 0.98963 0.21795 0.74031 0.0
H31 H 0.98706 0.20225 0.72193 0.0
H32 H 0.97308 0.19547 0.62814 0.0
H33 H 0.99163 0.19281 0.64398 0.0
H34 H 0.95289 0.1616 0.64636 0.0
H35 H 0.97132 0.1591 0.6623 0.0
H36 H 0.06716 0.14865 0.67387 0.0
H37 H 0.04339 0.12464 0.70117 0.0
H38 H 0.0277 0.14321 0.70374 0.0
H39 H 0.05129 0.16713 0.67623 0.0
C40 C 0.81526 0.5079 0.21024 0.0
C41 C 0.80593 0.51853 0.21048 0.0
C42 C 0.79715 0.51085 0.23213 0.0
C43 C 0.79702 0.51998 0.22128 0.0
C44 C 0.80669 0.5004 0.23199 0.0
C45 C 0.81556 0.49893 0.22119 0.0
U46 U 0.84458 0.5142 0.18472 0.0
O47 O 0.8575 0.4993 0.17485 0.0
O48 O 0.84417 0.51204 0.16272 0.0
C49 C 0.85261 0.50189 0.16284 0.0
C50 C 0.82361 0.50509 0.19816 0.0
C51 C 0.84934 0.49029 0.15408 0.0
C52 C 0.85025 0.46634 0.14911 0.0
C53 C 0.85181 0.47695 0.15814 0.0
C54 C 0.84342 0.48206 0.13185 0.0
C55 C 0.84621 0.46874 0.13576 0.0
C56 C 0.84501 0.49266 0.14085 0.0
C57 C 0.86865 0.54493 0.18995 0.0
C58 C 0.89258 0.54947 0.1868 0.0
C59 C 0.87688 0.56792 0.18804 0.0
C60 C 0.86627 0.55881 0.18964 0.0
C61 C 0.89024 0.56343 0.18673 0.0
C62 C 0.88193 0.54034 0.1884 0.0
C63 C 0.85727 0.53575 0.19317 0.0
O64 O 0.82268 0.51347 0.18795 0.0
O65 O 0.83595 0.50081 0.20021 0.0
O66 O 0.86019 0.52351 0.19724 0.0
O67 O 0.84676 0.53623 0.1852 0.0
H68 H 0.80529 0.52558 0.2022 0.0
H69 H 0.78997 0.52825 0.22108 0.0
H70 H 0.80701 0.49303 0.24002 0.0
H71 H 0.82243 0.4905 0.22123 0.0
H72 H 0.85232 0.45623 0.15259 0.0
H73 H 0.85525 0.47471 0.16821 0.0
H74 H 0.84048 0.4844 0.12164 0.0
H75 H 0.84323 0.50281 0.13732 0.0
H76 H 0.90267 0.54558 0.18564 0.0
H77 H 0.87461 0.57854 0.18826 0.0
H78 H 0.85618 0.56266 0.191 0.0
H79 H 0.88413 0.5297 0.18863 0.0
C80 C 0.48113 0.37714 0.67608 0.0
C81 C 0.48034 0.38503 0.68768 0.0
C82 C 0.45971 0.39576 0.6795 0.0
C83 C 0.46977 0.39421 0.68936 0.0
C84 C 0.46039 0.38762 0.66807 0.0
C85 C 0.47096 0.37849 0.66638 0.0
U86 U 0.5059 0.34708 0.68207 0.0
O87 O 0.5151 0.33396 0.66692 0.0
O88 O 0.52789 0.34663 0.67945 0.0
C89 C 0.52734 0.3383 0.66932 0.0
C90 C 0.49301 0.36851 0.67319 0.0
C91 C 0.53605 0.34118 0.65748 0.0
C92 C 0.55377 0.3541 0.64637 0.0
C93 C 0.54445 0.35252 0.65684 0.0
C94 C 0.54632 0.33321 0.6368 0.0
C95 C 0.55497 0.34437 0.63628 0.0
C96 C 0.53704 0.33162 0.64726 0.0
C97 C 0.50024 0.32228 0.71225 0.0
C98 C 0.51141 0.31221 0.73174 0.0
C99 C 0.49397 0.29992 0.7203 0.0
C100 C 0.49239 0.3106 0.7112 0.0
C101 C 0.50338 0.30062 0.73082 0.0
C102 C 0.50984 0.3229 0.72261 0.0
C103 C 0.49721 0.33419 0.70358 0.0
O104 O 0.50327 0.36902 0.68149 0.0
O105 O 0.49058 0.35633 0.66889 0.0
O106 O 0.49274 0.33186 0.69141 0.0
O107 O 0.50554 0.34441 0.70403 0.0
H108 H 0.48802 0.38433 0.69535 0.0
H109 H 0.46952 0.40014 0.69839 0.0
H110 H 0.45299 0.38861 0.66016 0.0
H111 H 0.47138 0.37271 0.65725 0.0
H112 H 0.5601 0.36292 0.64624 0.0
H113 H 0.54405 0.36006 0.66456 0.0
H114 H 0.54702 0.3254 0.62937 0.0
H115 H 0.53088 0.32267 0.64757 0.0
H116 H 0.51887 0.31309 0.73958 0.0
H117 H 0.48745 0.2913 0.71935 0.0
H118 H 0.48471 0.30986 0.70354 0.0
H119 H 0.51597 0.33177 0.72388 0.0
C120 C 0.67087 0.03934 0.15281 0.0
C121 C 0.68173 0.03973 0.14378 0.0
C122 C 0.67382 0.06107 0.13431 0.0
C123 C 0.68319 0.05046 0.13467 0.0
C124 C 0.66312 0.06075 0.14353 0.0
C125 C 0.66165 0.05003 0.1526 0.0
U126 U 0.67705 0.01483 0.18311 0.0
O127 O 0.66189 1.00544 0.19633 0.0
O128 O 0.67484 0.99285 0.1839 0.0
C129 C 0.66454 0.99326 0.19215 0.0
C130 C 0.66814 0.02737 0.16147 0.0
C131 C 0.6528 0.98445 0.18926 0.0
C132 C 0.6419 0.96682 0.17631 0.0
C133 C 0.65238 0.9761 0.17797 0.0
C134 C 0.63188 0.97418 0.19703 0.0
C135 C 0.63156 0.96561 0.1859 0.0
C136 C 0.64236 0.98342 0.19869 0.0
C137 C 0.7069 0.02213 0.20781 0.0
C138 C 0.72283 0.00874 0.22096 0.0
C139 C 0.71899 0.03195 0.2266 0.0
C140 C 0.70965 0.03306 0.21614 0.0
C141 C 0.72591 0.01985 0.22903 0.0
C142 C 0.71347 0.00987 0.21042 0.0
C143 C 0.69817 0.02434 0.19588 0.0
O144 O 0.67676 0.01737 0.16114 0.0
O145 O 0.66353 0.02964 0.17358 0.0
O146 O 0.68581 0.02842 0.19811 0.0
O147 O 0.699 0.01571 0.18602 0.0
H148 H 0.68898 0.03164 0.14354 0.0
H149 H 0.69166 0.0504 0.12787 0.0
H150 H 0.65557 0.06857 0.14347 0.0
H151 H 0.65304 0.04994 0.15923 0.0
H152 H 0.64194 0.96055 0.16751 0.0
H153 H 0.66028 0.97654 0.17051 0.0
H154 H 0.62426 0.97346 0.20474 0.0
H155 H 0.64248 0.98954 0.2076 0.0
H156 H 0.72799 0.99928 0.22246 0.0
H157 H 0.72086 0.04065 0.23272 0.0
H158 H 0.70479 0.04264 0.21434 0.0
H159 H 0.71162 1.00126 0.20415 0.0
C160 C 1.00224 0.31681 0.82668 0.0
C161 C 0.99689 0.31958 0.81388 0.0
C162 C 1.00519 0.29817 0.80537 0.0
C163 C 0.99839 0.31043 0.80337 0.0
C164 C 0.0108 0.29557 0.81809 0.0
C165 C 1.00931 0.30471 0.82859 0.0
U166 U 1.00738 0.34726 0.85081 0.0
O167 O 0.99193 0.35983 0.86032 0.0
O168 O 1.00537 0.34758 0.87284 0.0
C169 C 0.99489 0.35562 0.8725 0.0
C170 C 0.99908 0.32553 0.83837 0.0
C171 C 0.98356 0.35237 0.88174 0.0
C172 C 0.95956 0.35082 0.88679 0.0
C173 C 0.97006 0.3524 0.87749 0.0
C174 C 0.97581 0.34893 0.90472 0.0
C175 C 0.96227 0.3492 0.90058 0.0
C176 C 0.98627 0.35051 0.89545 0.0
C177 C 0.03695 0.3725 0.84449 0.0
C178 C 0.05411 0.38392 0.8577 0.0
C179 C 0.04727 0.39324 0.83632 0.0
C180 C 0.03815 0.38266 0.83471 0.0
C181 C 0.05554 0.39395 0.84775 0.0
C182 C 0.04495 0.37334 0.85609 0.0
C183 C 0.02842 0.36057 0.84166 0.0
O184 O 1.00753 0.32528 0.84851 0.0
O185 O 0.99429 0.33759 0.83588 0.0
O186 O 0.01606 0.36283 0.83751 0.0
O187 O 0.02929 0.35027 0.84994 0.0
H188 H 0.99117 0.32866 0.81205 0.0
H189 H 0.99376 0.31276 0.79381 0.0
H190 H 0.01628 0.28636 0.82002 0.0
H191 H 0.01341 0.30212 0.83832 0.0
H192 H 0.9493 0.35091 0.88315 0.0
H193 H 0.96757 0.35388 0.86701 0.0
H194 H 0.97837 0.34793 0.91523 0.0
H195 H 0.99653 0.35066 0.89908 0.0
H196 H 0.06014 0.38419 0.86673 0.0
H197 H 0.04815 0.40062 0.82835 0.0
H198 H 0.03228 0.3822 0.82557 0.0
H199 H 0.04436 0.36568 0.86383 0.0
C200 C 0.67129 0.48896 0.38105 0.0
C201 C 0.68134 0.48906 0.391 0.0
C202 C 0.67385 0.46727 0.39968 0.0
C203 C 0.68263 0.47835 0.40015 0.0
C204 C 0.66403 0.46706 0.38951 0.0
C205 C 0.66275 0.47776 0.38038 0.0
U206 U 0.67773 0.51422 0.35135 0.0
O207 O 0.6627 0.52366 0.33796 0.0
O208 O 0.67505 0.53615 0.35111 0.0
C209 C 0.66501 0.53577 0.34253 0.0
C210 C 0.66853 0.50096 0.37242 0.0
C211 C 0.65306 0.54434 0.34527 0.0
C212 C 0.641 0.56061 0.35893 0.0
C213 C 0.65161 0.55146 0.35729 0.0
C214 C 0.63291 0.55552 0.33671 0.0
C215 C 0.63158 0.5629 0.34859 0.0
C216 C 0.64351 0.54641 0.33507 0.0
C217 C 0.70858 0.5091 0.32745 0.0
C218 C 0.71441 0.50724 0.30373 0.0
C219 C 0.73084 0.51568 0.31937 0.0
C220 C 0.72154 0.51419 0.32984 0.0
C221 C 0.7275 0.51202 0.30618 0.0
C222 C 0.7051 0.50576 0.31421 0.0
C223 C 0.69957 0.50584 0.33898 0.0
O224 O 0.67682 0.51119 0.37324 0.0
O225 O 0.66442 0.49877 0.36011 0.0
O226 O 0.68741 0.50144 0.33626 0.0
O227 O 0.69983 0.51396 0.34928 0.0
H228 H 0.68799 0.49759 0.39199 0.0
H229 H 0.69022 0.479 0.4079 0.0
H230 H 0.65722 0.45865 0.38864 0.0
H231 H 0.6548 0.47739 0.37296 0.0
H232 H 0.64023 0.56594 0.3683 0.0
H233 H 0.65879 0.55016 0.36536 0.0
H234 H 0.62602 0.55709 0.32844 0.0
H235 H 0.64446 0.54122 0.32563 0.0
H236 H 0.71147 0.50415 0.29378 0.0
H237 H 0.74072 0.51959 0.32167 0.0
H238 H 0.72465 0.51672 0.33991 0.0
H239 H 0.6953 0.50161 0.31197 0.0
C240 C 0.48296 0.1508 0.85675 0.0
C241 C 0.48181 0.14325 0.84495 0.0
C242 C 0.46149 0.13222 0.85344 0.0
C243 C 0.47121 0.1341 0.84333 0.0
C244 C 0.46252 0.14003 0.86509 0.0
C245 C 0.47312 0.14914 0.86672 0.0
U246 U 0.50776 0.18068 0.85037 0.0
O247 O 0.51755 0.19364 0.86523 0.0
O248 O 0.52988 0.18084 0.85238 0.0
C249 C 0.52969 0.18923 0.86246 0.0
C250 C 0.49491 0.15936 0.85952 0.0
C251 C 0.53884 0.18624 0.8739 0.0
C252 C 0.54324 0.18321 0.89782 0.0
C253 C 0.53414 0.18462 0.88711 0.0
C254 C 0.56185 0.18471 0.88232 0.0
C255 C 0.55725 0.18338 0.8956 0.0
C256 C 0.55277 0.18614 0.87165 0.0
C257 C 0.50185 0.20521 0.81999 0.0
C258 C 0.49825 0.22866 0.81355 0.0
C259 C 0.50988 0.21386 0.79843 0.0
C260 C 0.50848 0.20329 0.8077 0.0
C261 C 0.50461 0.22666 0.80112 0.0
C262 C 0.49684 0.21808 0.82282 0.0
C263 C 0.49877 0.19351 0.82892 0.0
O264 O 0.50504 0.15877 0.85109 0.0
O265 O 0.49261 0.17157 0.86382 0.0
O266 O 0.49464 0.19604 0.84116 0.0
O267 O 0.5069 0.18313 0.8284 0.0
H268 H 0.48922 0.14421 0.83707 0.0
H269 H 0.47068 0.12844 0.83414 0.0
H270 H 0.45538 0.13879 0.87319 0.0
H271 H 0.47382 0.15466 0.87599 0.0
H272 H 0.53928 0.18202 0.90786 0.0
H273 H 0.52347 0.18467 0.88921 0.0
H274 H 0.5725 0.1851 0.88015 0.0
H275 H 0.55668 0.18753 0.8616 0.0
H276 H 0.49389 0.23829 0.81595 0.0
H277 H 0.51501 0.21193 0.78909 0.0
H278 H 0.5123 0.19349 0.80506 0.0
H279 H 0.49146 0.21993 0.83204 0.0
C280 C 0.81423 0.01996 0.32463 0.0
C281 C 0.81786 0.02415 0.31161 0.0
C282 C 0.79598 0.0173 0.30277 0.0
C283 C 0.80889 0.0228 0.30085 0.0
C284 C 0.79251 0.01276 0.31571 0.0
C285 C 0.80148 0.01413 0.32648 0.0
U286 U 0.84431 0.01469 0.34958 0.0
O287 O 0.85724 0.0301 0.35874 0.0
O288 O 0.84452 0.01737 0.37147 0.0
C289 C 0.85275 0.02768 0.37091 0.0
C290 C 0.82283 0.02313 0.33646 0.0
C291 C 0.8496 0.03951 0.37942 0.0
C292 C 0.83724 0.04979 0.39785 0.0
C293 C 0.83895 0.0393 0.38871 0.0
C294 C 0.85659 0.06111 0.38848 0.0
C295 C 0.84616 0.06077 0.39801 0.0
C296 C 0.8583 0.05062 0.37937 0.0
C297 C 0.86901 0.98443 0.34444 0.0
C298 C 0.89316 0.97982 0.34418 0.0
C299 C 0.87755 0.96189 0.34915 0.0
C300 C 0.86679 0.97088 0.34774 0.0
C301 C 0.89091 0.96617 0.34721 0.0
C302 C 0.88236 0.98883 0.3428 0.0
C303 C 0.85729 0.99324 0.34128 0.0
O304 O 0.82229 0.01487 0.34679 0.0
O305 O 0.83504 0.02765 0.33414 0.0
O306 O 0.85973 1.00543 0.33679 0.0
O307 O 0.847 0.99272 0.34953 0.0
H308 H 0.82752 0.02881 0.30977 0.0
H309 H 0.81203 0.02625 0.29102 0.0
H310 H 0.78264 0.00862 0.31767 0.0
H311 H 0.79822 0.01102 0.33639 0.0
H312 H 0.82898 0.04922 0.40488 0.0
H313 H 0.83208 0.03088 0.38916 0.0
H314 H 0.86379 0.06925 0.38837 0.0
H315 H 0.86675 0.05101 0.37254 0.0
H316 H 0.90328 0.98357 0.34279 0.0
H317 H 0.87534 0.95147 0.35129 0.0
H318 H 0.85663 0.96711 0.34885 0.0
H319 H 0.88449 0.99916 0.34015 0.0
C320 C 0.17163 0.64828 0.99363 0.0
C321 C 0.1701 0.65263 0.98026 0.0
C322 C 0.17438 0.62994 0.97208 0.0
C323 C 0.17146 0.64358 0.96963 0.0
C324 C 0.1762 0.62571 0.98546 0.0
C325 C 0.1748 0.63474 0.99606 0.0
U326 U 0.17712 0.67904 0.01721 0.0
O327 O 0.16181 0.69196 0.02646 0.0
O328 O 0.17502 0.67972 0.03922 0.0
C329 C 0.16458 0.68781 0.03871 0.0
C330 C 0.16862 0.65717 1.00519 0.0
C331 C 0.15306 0.68468 0.04778 0.0
C332 C 0.12905 0.68531 0.05297 0.0
C333 C 0.13963 0.68664 0.04374 0.0
C334 C 0.14501 0.67972 0.07042 0.0
C335 C 0.13159 0.68201 0.0665 0.0
C336 C 0.15557 0.68108 0.0612 0.0
C337 C 0.20673 0.70406 0.01004 0.0
C338 C 0.22232 0.71701 0.02374 0.0
C339 C 0.21866 0.72331 1.00058 0.0
C340 C 0.2095 0.71274 0.99924 0.0
C341 C 0.2254 0.7255 0.01278 0.0
C342 C 0.21313 0.7064 0.02238 0.0
C343 C 0.19816 0.69208 1.00768 0.0
O344 O 0.17719 0.657 0.01523 0.0
O345 O 0.1639 0.66923 1.00255 0.0
O346 O 0.1858 0.69426 1.00352 0.0
O347 O 0.19904 0.68207 0.01631 0.0
H348 H 0.16758 0.66297 0.97798 0.0
H349 H 0.17017 0.64729 0.95948 0.0
H350 H 0.17826 0.6153 0.98782 0.0
H351 H 0.17584 0.63102 1.00624 0.0
H352 H 0.11886 0.68698 0.0495 0.0
H353 H 0.13727 0.68952 0.03352 0.0
H354 H 0.14745 0.67735 0.08074 0.0
H355 H 0.1658 0.67971 0.06471 0.0
H356 H 0.22735 0.71828 0.03327 0.0
H357 H 0.22052 0.72974 0.99198 0.0
H358 H 0.20478 0.71116 0.98959 0.0
H359 H 0.21128 0.69986 0.0309 0.0
C360 C 0.14719 0.85626 0.4909 0.0
C361 C 0.139 0.84478 0.49011 0.0
C362 C 0.12894 0.85293 0.46916 0.0
C363 C 0.13003 0.84313 0.47937 0.0
C364 C 0.13739 0.86424 0.46984 0.0
C365 C 0.14633 0.86589 0.48056 0.0
U366 U 0.17665 0.85014 0.51634 0.0
O367 O 0.18954 0.86514 0.5261 0.0
O368 O 0.17638 0.85236 0.53833 0.0
C369 C 0.18478 0.86254 0.53814 0.0
C370 C 0.15557 0.85913 0.50294 0.0
C371 C 0.18152 0.87412 0.54692 0.0
C372 C 0.18198 0.89811 0.55175 0.0
C373 C 0.18358 0.88749 0.54274 0.0
C374 C 0.17601 0.88231 0.56925 0.0
C375 C 0.17832 0.89568 0.5652 0.0
C376 C 0.17763 0.87171 0.56026 0.0
C377 C 0.2011 0.81966 0.51132 0.0
C378 C 0.22476 0.81351 0.50877 0.0
C379 C 0.20924 0.79765 0.51866 0.0
C380 C 0.19877 0.80697 0.51715 0.0
C381 C 0.22236 0.80067 0.51429 0.0
C382 C 0.21428 0.82284 0.50726 0.0
C383 C 0.18953 0.82864 0.50799 0.0
O384 O 0.15474 0.85076 0.51317 0.0
O385 O 0.16788 0.86346 0.50083 0.0
O386 O 0.19223 0.84087 0.50375 0.0
O387 O 0.179 0.82815 0.51594 0.0
H388 H 0.13926 0.83721 0.49795 0.0
H389 H 0.12363 0.83436 0.47933 0.0
H390 H 0.13706 0.87191 0.46209 0.0
H391 H 0.1524 0.87489 0.48092 0.0
H392 H 0.18368 0.90825 0.54818 0.0
H393 H 0.18668 0.88975 0.53258 0.0
H394 H 0.17338 0.87996 0.57953 0.0
H395 H 0.17619 0.86154 0.56388 0.0
H396 H 0.23466 0.81619 0.50512 0.0
H397 H 0.20699 0.78798 0.52313 0.0
H398 H 0.18874 0.80408 0.52023 0.0
H399 H 0.21646 0.8324 0.50252 0.0
C400 C 0.31742 0.71172 0.50999 0.0
C401 C 0.3177 0.72141 0.52016 0.0
C402 C 0.29583 0.73025 0.51304 0.0
C403 C 0.30704 0.73052 0.52168 0.0
C404 C 0.29548 0.72039 0.50304 0.0
C405 C 0.30613 0.71131 0.50151 0.0
U406 U 0.34205 0.68151 0.51584 0.0
O407 O 0.35127 0.66845 0.50067 0.0
O408 O 0.36407 0.68098 0.51332 0.0
C409 C 0.36352 0.67274 0.50311 0.0
C410 C 0.32932 0.70309 0.50708 0.0
C411 C 0.37226 0.67569 0.49129 0.0
C412 C 0.39107 0.68763 0.48089 0.0
C413 C 0.38182 0.68609 0.49142 0.0
C414 C 0.3813 0.66857 0.46973 0.0
C415 C 0.39106 0.67879 0.46995 0.0
C416 C 0.37208 0.66702 0.48026 0.0
C417 C 0.33583 0.65657 0.54583 0.0
C418 C 0.3485 0.64532 0.56367 0.0
C419 C 0.32773 0.6356 0.55578 0.0
C420 C 0.32627 0.64621 0.54657 0.0
C421 C 0.33877 0.63508 0.56461 0.0
C422 C 0.34705 0.65593 0.55443 0.0
C423 C 0.33307 0.66852 0.53716 0.0
O424 O 0.33953 0.70348 0.51546 0.0
O425 O 0.32692 0.69096 0.50263 0.0
O426 O 0.32873 0.66626 0.52494 0.0
O427 O 0.3415 0.67865 0.53776 0.0
H428 H 0.32627 0.72216 0.52681 0.0
H429 H 0.30764 0.73784 0.5296 0.0
H430 H 0.28717 0.71995 0.49604 0.0
H431 H 0.30568 0.70418 0.4934 0.0
H432 H 0.39829 0.69573 0.48137 0.0
H433 H 0.38238 0.6929 0.49979 0.0
H434 H 0.38105 0.66142 0.46163 0.0
H435 H 0.36504 0.65875 0.47994 0.0
H436 H 0.35724 0.64519 0.57015 0.0
H437 H 0.31992 0.62806 0.55627 0.0
H438 H 0.3174 0.64651 0.54026 0.0
H439 H 0.35458 0.66376 0.55423 0.0
C440 C 0.31897 0.8157 0.02205 0.0
C441 C 0.30605 0.81829 0.02718 0.0
C442 C 0.29765 0.79691 0.01872 0.0
C443 C 0.29555 0.80905 0.02551 0.0
C444 C 0.31051 0.79445 0.01337 0.0
C445 C 0.32101 0.80367 0.01507 0.0
U446 U 0.34321 0.84638 0.01703 0.0
O447 O 0.35212 0.85933 0.03249 0.0
O448 O 0.36519 0.84707 0.01987 0.0
C449 C 0.36445 0.85519 0.03016 0.0
C450 C 0.33061 0.82456 0.02534 0.0
C451 C 0.37315 0.8522 0.04202 0.0
C452 C 0.39306 0.84158 0.05187 0.0
C453 C 0.38383 0.84296 0.04129 0.0
C454 C 0.38108 0.85847 0.0643 0.0
C455 C 0.39196 0.84948 0.06345 0.0
C456 C 0.37186 0.85984 0.05373 0.0
C457 C 0.33739 0.87151 0.9871 0.0
C458 C 0.34907 0.88217 0.96827 0.0
C459 C 0.33028 0.89345 0.97856 0.0
C460 C 0.32881 0.88271 0.98761 0.0
C461 C 0.34032 0.89327 0.96861 0.0
C462 C 0.34762 0.87143 0.97735 0.0
C463 C 0.33451 0.85948 0.99563 0.0
O464 O 0.34099 0.82437 0.01719 0.0
O465 O 0.32795 0.83663 0.02983 0.0
O466 O 0.32993 0.8616 1.00778 0.0
O467 O 0.343 0.84937 0.99513 0.0
H468 H 0.3041 0.82733 0.03279 0.0
H469 H 0.28577 0.81141 0.02963 0.0
H470 H 0.31263 0.78516 1.00826 0.0
H471 H 0.33087 0.80117 0.01122 0.0
H472 H 0.40137 0.83466 0.05072 0.0
H473 H 0.38533 0.83705 0.03236 0.0
H474 H 0.37973 0.86459 0.0731 0.0
H475 H 0.36389 0.86719 0.0546 0.0
H476 H 0.35703 0.88171 0.96089 0.0
H477 H 0.32321 0.90168 0.97907 0.0
H478 H 0.32067 0.88301 0.9948 0.0
H479 H 0.35434 0.86294 0.97652 0.0
C480 C 1.0042 0.82284 0.31924 0.0
C481 C 0.01691 0.81924 0.31423 0.0
C482 C 1.00697 0.80079 0.30152 0.0
C483 C 0.01827 0.80834 0.30547 0.0
C484 C 0.99433 0.80439 0.30673 0.0
C485 C 0.99299 0.81524 0.31544 0.0
U486 U 0.01132 0.84782 0.34858 0.0
O487 O 0.00938 0.8699 0.34825 0.0
O488 O 0.99648 0.85782 0.36143 0.0
C489 C 0.9992 0.86985 0.35666 0.0
C490 C 1.002 0.83495 0.32755 0.0
C491 C 0.98764 0.87885 0.35348 0.0
C492 C 0.96354 0.88368 0.35336 0.0
C493 C 0.97421 0.87455 0.35475 0.0
C494 C 0.9794 0.90156 0.34907 0.0
C495 C 0.96597 0.89737 0.35069 0.0
C496 C 0.99006 0.89244 0.3505 0.0
C497 C 0.04104 0.84154 0.37363 0.0
C498 C 0.05841 0.8547 0.3848 0.0
C499 C 0.05103 0.83376 0.39467 0.0
C500 C 0.04196 0.83204 0.38407 0.0
C501 C 0.05955 0.84502 0.39512 0.0
C502 C 0.04931 0.85298 0.37418 0.0
C503 C 0.03241 0.8386 0.36179 0.0
O504 O 0.99752 0.83295 0.33979 0.0
O505 O 0.01093 0.84464 0.32675 0.0
O506 O 0.03328 0.84668 0.35134 0.0
O507 O 0.02004 0.83465 0.36423 0.0
H508 H 0.02576 0.82493 0.31694 0.0
H509 H 0.0282 0.80583 0.30182 0.0
H510 H 0.98533 0.79906 0.30379 0.0
H511 H 0.98305 0.81788 0.319 0.0
H512 H 0.95336 0.88001 0.35448 0.0
H513 H 0.97193 0.86418 0.3571 0.0
H514 H 0.98174 0.912 0.34719 0.0
H515 H 1.00027 0.89612 0.34966 0.0
H516 H 0.06487 0.86344 0.38468 0.0
H517 H 0.05139 0.82618 0.40251 0.0
H518 H 0.03581 0.82307 0.3839 0.0
H519 H 0.04899 0.86046 0.36626 0.0
C520 C 0.1443 0.48883 0.85718 0.0
C521 C 0.13622 0.4881 0.84562 0.0
C522 C 0.12563 0.46746 0.85387 0.0
C523 C 0.12703 0.47755 0.84398 0.0
C524 C 0.13395 0.46807 0.86526 0.0
C525 C 0.14311 0.47862 0.8669 0.0
U526 U 0.17435 0.51361 0.85122 0.0
O527 O 0.17453 0.53563 0.85337 0.0
O528 O 0.18731 0.52312 0.8663 0.0
C529 C 0.18284 0.53527 0.86363 0.0
C530 C 0.15291 0.50072 0.86003 0.0
C531 C 0.17969 0.54414 0.87517 0.0
C532 C 0.17978 0.54883 0.89917 0.0
C533 C 0.18121 0.53979 0.88854 0.0
C534 C 0.17502 0.56669 0.88334 0.0
C535 C 0.17683 0.56246 0.89672 0.0
C536 C 0.17648 0.55767 0.87274 0.0
C537 C 0.19912 0.50775 0.82128 0.0
C538 C 0.21046 0.5214 0.80427 0.0
C539 C 0.21942 0.49962 0.81023 0.0
C540 C 0.20901 0.49785 0.81955 0.0
C541 C 0.2202 0.51133 0.80228 0.0
C542 C 0.20006 0.51964 0.81363 0.0
C543 C 0.18732 0.50478 0.83001 0.0
O544 O 0.16512 0.49837 0.86452 0.0
O545 O 0.15237 0.5109 0.85157 0.0
O546 O 0.17699 0.51299 0.82932 0.0
O547 O 0.18983 0.50057 0.84227 0.0
H548 H 0.13679 0.49581 0.83793 0.0
H549 H 0.12095 0.47736 0.83498 0.0
H550 H 0.13309 0.46065 0.87319 0.0
H551 H 0.14902 0.47899 0.87601 0.0
H552 H 0.18107 0.54513 0.90932 0.0
H553 H 0.18377 0.52947 0.89083 0.0
H554 H 0.17294 0.5771 0.88098 0.0
H555 H 0.17546 0.5614 0.86256 0.0
H556 H 0.21081 0.53064 0.7985 0.0
H557 H 0.22657 0.49155 0.80892 0.0
H558 H 0.20847 0.48852 0.82515 0.0
H559 H 0.1926 0.52748 0.81465 0.0
C560 C 0.53649 0.65149 0.35825 0.0
C561 C 0.53795 0.64438 0.34623 0.0
C562 C 0.55799 0.63295 0.35495 0.0
C563 C 0.54857 0.63523 0.3446 0.0
C564 C 0.55664 0.64034 0.36683 0.0
C565 C 0.54603 0.64944 0.36845 0.0
U566 U 0.51136 0.68112 0.35165 0.0
O567 O 0.48936 0.68126 0.35427 0.0
O568 O 0.50193 0.6944 0.36651 0.0
C569 C 0.48977 0.68978 0.36425 0.0
C570 C 0.52455 0.66006 0.36098 0.0
C571 C 0.48113 0.68693 0.37616 0.0
C572 C 0.4624 0.67503 0.38675 0.0
C573 C 0.47161 0.67648 0.37618 0.0
C574 C 0.47213 0.69425 0.39767 0.0
C575 C 0.4624 0.684 0.39758 0.0
C576 C 0.4813 0.69572 0.3871 0.0
C577 C 0.51653 0.70514 0.3207 0.0
C578 C 0.51968 0.72857 0.31398 0.0
C579 C 0.50861 0.7133 0.29891 0.0
C580 C 0.51011 0.7029 0.30835 0.0
C581 C 0.51357 0.72625 0.30148 0.0
C582 C 0.52119 0.71816 0.32343 0.0
C583 C 0.51979 0.6936 0.32979 0.0
O584 O 0.52688 0.67238 0.36496 0.0
O585 O 0.51428 0.65924 0.35272 0.0
O586 O 0.51164 0.68322 0.32962 0.0
O587 O 0.5242 0.69634 0.34189 0.0
H588 H 0.53077 0.64567 0.33816 0.0
H589 H 0.54935 0.6299 0.33523 0.0
H590 H 0.56353 0.63878 0.3751 0.0
H591 H 0.54508 0.65464 0.37789 0.0
H592 H 0.4552 0.6669 0.38638 0.0
H593 H 0.47104 0.66958 0.36789 0.0
H594 H 0.47237 0.70149 0.40569 0.0
H595 H 0.48831 0.70403 0.3873 0.0
H596 H 0.52379 0.73833 0.3163 0.0
H597 H 0.50367 0.71112 0.28951 0.0
H598 H 0.50656 0.69298 0.3058 0.0
H599 H 0.52639 0.72026 0.33271 0.0
C600 C 0.31213 1.00587 0.82497 0.0
C601 C 0.30835 0.01868 0.82028 0.0
C602 C 0.29302 0.00869 0.80393 0.0
C603 C 0.29893 0.02007 0.80982 0.0
C604 C 0.29716 0.99594 0.80846 0.0
C605 C 0.30657 0.99457 0.81881 0.0
U606 U 0.34226 0.01327 0.84933 0.0
O607 O 0.3426 0.01082 0.87131 0.0
O608 O 0.35571 0.99841 0.85889 0.0
C609 C 0.35114 1.00074 0.871 0.0
C610 C 0.32103 1.00377 0.83675 0.0
C611 C 0.34831 0.98883 0.87972 0.0
C612 C 0.33668 0.97835 0.89869 0.0
C613 C 0.33815 0.98904 0.88954 0.0
C614 C 0.35532 0.96689 0.88834 0.0
C615 C 0.34534 0.96717 0.89833 0.0
C616 C 0.35681 0.97756 0.87922 0.0
C617 C 0.36663 0.04351 0.8431 0.0
C618 C 0.37805 0.06038 0.85659 0.0
C619 C 0.38714 0.05434 0.83503 0.0
C620 C 0.37663 0.04516 0.83328 0.0
C621 C 0.38795 0.06222 0.84664 0.0
C622 C 0.36753 0.05116 0.85485 0.0
C623 C 0.35485 0.03476 0.84022 0.0
O624 O 0.33336 0.9997 0.83438 0.0
O625 O 0.3203 0.01251 0.84651 0.0
O626 O 0.34457 0.03524 0.84848 0.0
O627 O 0.35745 0.02256 0.83606 0.0
H628 H 0.31246 0.02758 0.82487 0.0
H629 H 0.29595 0.03005 0.80663 0.0
H630 H 0.29307 0.98694 0.80403 0.0
H631 H 0.30932 0.98459 0.82222 0.0
H632 H 0.32876 0.9789 0.9061 0.0
H633 H 0.33149 0.99758 0.89036 0.0
H634 H 0.36233 0.9586 0.88782 0.0
H635 H 0.3649 0.97716 0.87198 0.0
H636 H 0.3784 0.06611 0.86575 0.0
H637 H 0.39441 0.05555 0.82704 0.0
H638 H 0.37612 0.03957 0.82404 0.0
H639 H 0.35999 0.05021 0.86262 0.0
C640 C 1.00338 0.70569 0.21391 0.0
C641 C 0.01615 0.70989 0.21825 0.0
C642 C 1.0059 0.72674 0.23277 0.0
C643 C 0.0174 0.72037 0.22754 0.0
C644 C 0.99321 0.72271 0.22806 0.0
C645 C 0.99198 0.71234 0.21878 0.0
U646 U 0.01116 0.68095 0.18443 0.0
O647 O 1.00845 0.65901 0.18443 0.0
O648 O 0.99646 0.67159 0.17083 0.0
C649 C 0.99864 0.65945 0.17559 0.0
C650 C 1.00134 0.69388 0.20518 0.0
C651 C 0.98659 0.65091 0.17809 0.0
C652 C 0.97405 0.63454 0.1915 0.0
C653 C 0.98482 0.64357 0.19007 0.0
C654 C 0.96649 0.64015 0.16912 0.0
C655 C 0.96478 0.6326 0.18099 0.0
C656 C 0.97724 0.64912 0.1677 0.0
C657 C 0.04206 0.68614 0.1607 0.0
C658 C 0.04708 0.68629 0.13672 0.0
C659 C 0.06458 0.68069 0.15262 0.0
C660 C 0.05547 0.68239 0.16318 0.0
C661 C 0.06059 0.6828 0.13922 0.0
C662 C 0.03795 0.68795 0.1473 0.0
C663 C 0.03308 0.68946 0.17218 0.0
O664 O 0.99754 0.69624 0.19277 0.0
O665 O 0.00998 0.68394 0.20625 0.0
O666 O 0.03329 0.68126 0.18257 0.0
O667 O 0.02095 0.69392 0.16937 0.0
H668 H 0.02513 0.70492 0.21468 0.0
H669 H 0.02733 0.72317 0.23096 0.0
H670 H 0.98414 0.72751 0.23162 0.0
H671 H 0.98203 0.70931 0.2156 0.0
H672 H 0.973 0.62906 0.20086 0.0
H673 H 0.99185 0.64462 0.19828 0.0
H674 H 0.95976 0.63883 0.1607 0.0
H675 H 0.97844 0.65447 0.15827 0.0
H676 H 0.04354 0.68782 0.12655 0.0
H677 H 0.07491 0.67819 0.15501 0.0
H678 H 0.05904 0.68113 0.17338 0.0
H679 H 0.02773 0.69092 0.14496 0.0
C680 C 0.30914 0.51961 0.70743 0.0
C681 C 0.31325 0.52115 0.72083 0.0
C682 C 0.29042 0.51658 0.72884 0.0
C683 C 0.30402 0.51961 0.73139 0.0
C684 C 0.28645 0.5147 0.71544 0.0
C685 C 0.29566 0.51624 0.70491 0.0
U686 U 0.33997 0.51454 0.6835 0.0
O687 O 0.34081 0.51753 0.66162 0.0
O688 O 0.35322 0.53003 0.67468 0.0
C689 C 0.34909 0.52777 0.66239 0.0
C690 C 0.31817 0.52291 0.69594 0.0
C691 C 0.34629 0.53972 0.65373 0.0
C692 C 0.33356 0.55097 0.63593 0.0
C693 C 0.33505 0.54036 0.64517 0.0
C694 C 0.35434 0.5607 0.64378 0.0
C695 C 0.34328 0.56122 0.63497 0.0
C696 C 0.35583 0.55009 0.65298 0.0
C697 C 0.36464 0.48437 0.68933 0.0
C698 C 0.37606 0.46734 0.67605 0.0
C699 C 0.38536 0.47387 0.6974 0.0
C700 C 0.37478 0.483 0.69907 0.0
C701 C 0.38608 0.46576 0.68595 0.0
C702 C 0.36548 0.47651 0.67772 0.0
C703 C 0.35272 0.49295 0.69221 0.0
O704 O 0.33034 0.52726 0.69867 0.0
O705 O 0.31788 0.51481 0.68561 0.0
O706 O 0.3426 0.4926 0.68372 0.0
O707 O 0.35507 0.50505 0.69678 0.0
H708 H 0.32351 0.5239 0.72318 0.0
H709 H 0.30747 0.52127 0.74153 0.0
H710 H 0.27616 0.51213 0.71303 0.0
H711 H 0.29212 0.5151 0.69471 0.0
H712 H 0.32481 0.55109 0.62947 0.0
H713 H 0.32752 0.53252 0.64538 0.0
H714 H 0.36214 0.56825 0.64327 0.0
H715 H 0.36471 0.5498 0.65926 0.0
H716 H 0.37634 0.46143 0.66701 0.0
H717 H 0.39273 0.47286 0.70533 0.0
H718 H 0.37432 0.48875 0.70822 0.0
H719 H 0.35783 0.47722 0.67002 0.0
C720 C 0.53678 0.87671 0.17648 0.0
C721 C 0.53731 0.88502 0.1878 0.0
C722 C 0.55816 0.8954 0.17981 0.0
C723 C 0.54786 0.89422 0.18945 0.0
C724 C 0.55776 0.88685 0.16867 0.0
C725 C 0.54721 0.87769 0.16702 0.0
U726 U 0.51193 0.84673 0.18244 0.0
O727 O 0.48993 0.84639 0.17971 0.0
O728 O 0.50271 0.83362 0.16731 0.0
C729 C 0.49048 0.83805 0.16959 0.0
C730 C 0.52491 0.86809 0.17356 0.0
C731 C 0.4818 0.84097 0.15769 0.0
C732 C 0.46189 0.85154 0.14778 0.0
C733 C 0.4711 0.85019 0.15838 0.0
C734 C 0.47394 0.83465 0.1354 0.0
C735 C 0.46304 0.84363 0.13621 0.0
C736 C 0.48313 0.83331 0.14599 0.0
C737 C 0.51748 0.82203 0.21276 0.0
C738 C 0.50591 0.81195 0.23197 0.0
C739 C 0.5241 0.79997 0.22139 0.0
C740 C 0.52569 0.81056 0.21218 0.0
C741 C 0.51431 0.80057 0.23155 0.0
C742 C 0.50749 0.82253 0.22273 0.0
C743 C 0.52053 0.83387 0.20402 0.0
O744 O 0.52733 0.85588 0.16932 0.0
O745 O 0.51462 0.86866 0.1818 0.0
O746 O 0.51223 0.84413 0.2044 0.0
O747 O 0.52501 0.83147 0.19189 0.0
H748 H 0.52943 0.88462 0.19528 0.0
H749 H 0.54789 0.90047 0.19826 0.0
H750 H 0.56535 0.88754 0.16093 0.0
H751 H 0.547 0.8716 0.15809 0.0
H752 H 0.45358 0.85844 0.14889 0.0
H753 H 0.46957 0.8561 0.1673 0.0
H754 H 0.47532 0.82853 0.12661 0.0
H755 H 0.49111 0.82597 0.14515 0.0
H756 H 0.49815 0.81274 0.23952 0.0
H757 H 0.5309 0.79152 0.22082 0.0
H758 H 0.53366 0.80992 0.20483 0.0
H759 H 0.50107 0.83125 0.22362 0.0
C760 C 0.17107 0.99189 0.65166 0.0
C761 C 0.16934 0.97846 0.65576 0.0
C762 C 0.17429 0.97057 0.63313 0.0
C763 C 0.17094 0.96795 0.64662 0.0
C764 C 0.17632 0.984 0.62915 0.0
C765 C 0.17468 0.9945 0.63828 0.0
U766 U 0.17592 0.01527 0.68266 0.0
O767 O 0.17291 0.03715 0.68381 0.0
O768 O 0.16033 0.02365 0.69586 0.0
C769 C 0.16256 0.03608 0.69194 0.0
C770 C 0.16775 1.00331 0.66063 0.0
C771 C 0.15056 0.04469 0.68916 0.0
C772 C 0.14076 0.06529 0.67989 0.0
C773 C 0.15152 0.05621 0.68094 0.0
C774 C 0.12771 0.05148 0.69503 0.0
C775 C 0.12878 0.0632 0.68713 0.0
C776 C 0.13844 0.04241 0.69608 0.0
C777 C 0.20562 1.0082 0.70766 0.0
C778 C 0.21998 0.02204 0.72183 0.0
C779 C 0.21784 0.99831 0.72651 0.0
C780 C 0.20903 0.99705 0.71564 0.0
C781 C 0.22355 0.01079 0.72975 0.0
C782 C 0.21112 0.02076 0.71091 0.0
C783 C 0.19722 1.00605 0.69553 0.0
O784 O 0.16308 1.00043 0.67264 0.0
O785 O 0.17604 0.01358 0.6606 0.0
O786 O 0.19785 0.01507 0.68586 0.0
O787 O 0.18501 1.00142 0.69748 0.0
H788 H 0.16647 0.97603 0.66596 0.0
H789 H 0.16948 0.95775 0.65013 0.0
H790 H 0.17872 0.98649 0.61885 0.0
H791 H 0.17587 1.00473 0.63473 0.0
H792 H 0.14206 0.07425 0.67382 0.0
H793 H 0.16075 0.05846 0.67564 0.0
H794 H 0.1186 0.04936 0.7006 0.0
H795 H 0.13736 0.03377 0.70264 0.0
H796 H 0.22402 0.03184 0.72406 0.0
H797 H 0.22047 0.98936 0.73214 0.0
H798 H 0.2051 0.98723 0.71328 0.0
H799 H 0.20872 0.02956 0.70493 0.0
C800 C 0.8115 0.32439 0.02499 0.0
C801 C 0.8052 0.32218 0.01257 0.0
C802 C 0.79271 0.30311 0.02191 0.0
C803 C 0.79595 0.31165 0.01105 0.0
C804 C 0.79933 0.30517 0.0342 0.0
C805 C 0.80855 0.31567 0.03571 0.0
U806 U 0.84175 0.34877 0.01844 0.0
O807 O 0.84221 0.3708 0.02046 0.0
O808 O 0.8549 0.35822 0.03341 0.0
C809 C 0.85051 0.3704 0.03073 0.0
C810 C 0.82019 0.33626 0.02749 0.0
C811 C 0.84743 0.37928 0.04229 0.0
C812 C 0.84863 0.38434 0.06619 0.0
C813 C 0.84999 0.37525 0.05561 0.0
C814 C 0.84183 0.40163 0.05048 0.0
C815 C 0.84471 0.39773 0.06378 0.0
C816 C 0.84323 0.39256 0.03991 0.0
C817 C 0.86651 0.34175 0.9887 0.0
C818 C 0.87964 0.35561 0.97321 0.0
C819 C 0.88557 0.33232 0.9766 0.0
C820 C 0.87498 0.33091 0.98575 0.0
C821 C 0.88801 0.34465 0.97008 0.0
C822 C 0.86902 0.35418 0.9824 0.0
C823 C 0.85461 0.33936 0.99742 0.0
O824 O 0.83238 0.33389 0.03203 0.0
O825 O 0.81975 0.34621 0.01876 0.0
O826 O 0.84456 0.34791 0.99657 0.0
O827 O 0.85697 0.33527 0.00975 0.0
H828 H 0.80718 0.32876 1.00411 0.0
H829 H 0.79101 0.31048 1.00146 0.0
H830 H 0.79735 0.2987 0.04274 0.0
H831 H 0.81319 0.31715 0.04541 0.0
H832 H 0.85076 0.38088 0.07629 0.0
H833 H 0.85335 0.36516 0.05787 0.0
H834 H 0.83897 0.41186 0.04813 0.0
H835 H 0.84139 0.39608 0.02977 0.0
H836 H 0.88128 0.36532 0.96855 0.0
H837 H 0.89158 0.32358 0.97436 0.0
H838 H 0.87319 0.32117 0.99031 0.0
H839 H 0.86266 0.36275 0.98442 0.0
C840 C 0.81152 0.20448 0.51118 0.0
C841 C 0.81435 0.21758 0.50661 0.0
C842 C 0.7927 0.2257 0.51489 0.0
C843 C 0.80509 0.22803 0.50847 0.0
C844 C 0.78999 0.21264 0.51967 0.0
C845 C 0.79923 0.20219 0.51779 0.0
U846 U 0.84233 0.18034 0.51591 0.0
O847 O 0.84317 0.15849 0.51295 0.0
O848 O 0.85545 0.17177 0.50035 0.0
C849 C 0.85135 0.15943 0.50263 0.0
C850 C 0.82044 0.19297 0.50773 0.0
C851 C 0.84843 0.15096 0.49072 0.0
C852 C 0.83662 0.13229 0.48022 0.0
C853 C 0.83806 0.14134 0.49082 0.0
C854 C 0.85566 0.14238 0.46902 0.0
C855 C 0.84551 0.13254 0.46923 0.0
C856 C 0.85712 0.15141 0.47961 0.0
C857 C 0.86719 0.1859 0.54597 0.0
C858 C 0.87765 0.17424 0.56496 0.0
C859 C 0.88897 0.19312 0.55468 0.0
C860 C 0.87835 0.19454 0.54551 0.0
C861 C 0.8887 0.18308 0.56468 0.0
C862 C 0.86704 0.17564 0.55576 0.0
C863 C 0.85521 0.18876 0.53737 0.0
O864 O 0.83256 0.19573 0.50323 0.0
O865 O 0.82025 0.18246 0.51579 0.0
O866 O 0.84515 0.18022 0.53782 0.0
O867 O 0.85745 0.1935 0.52524 0.0
H868 H 0.82361 0.21973 0.50131 0.0
H869 H 0.80764 0.23795 0.50479 0.0
H870 H 0.7805 0.21035 0.52447 0.0
H871 H 0.79655 0.19221 0.52119 0.0
H872 H 0.82856 0.125 0.4807 0.0
H873 H 0.83123 0.14058 0.49923 0.0
H874 H 0.86284 0.14282 0.46088 0.0
H875 H 0.86536 0.1585 0.4793 0.0
H876 H 0.87713 0.16627 0.57237 0.0
H877 H 0.89716 0.20025 0.55421 0.0
H878 H 0.8787 0.20271 0.53829 0.0
H879 H 0.85856 0.16887 0.55656 0.0
C880 C 0.6452 0.35299 0.54268 0.0
C881 C 0.63674 0.34168 0.54321 0.0
C882 C 0.62613 0.34976 0.56375 0.0
C883 C 0.62735 0.34009 0.55361 0.0
C884 C 0.63482 0.3609 0.56333 0.0
C885 C 0.64417 0.3625 0.55294 0.0
U886 U 0.67572 0.34696 0.51863 0.0
O887 O 0.6766 0.3497 0.4967 0.0
O888 O 0.68921 0.36211 0.50965 0.0
C889 C 0.68501 0.35985 0.49738 0.0
C890 C 0.65408 0.35585 0.53097 0.0
C891 C 0.68232 0.37181 0.48868 0.0
C892 C 0.67102 0.38239 0.46954 0.0
C893 C 0.67229 0.3717 0.47872 0.0
C894 C 0.68962 0.39368 0.48017 0.0
C895 C 0.6798 0.39346 0.47 0.0
C896 C 0.69088 0.38301 0.48932 0.0
C897 C 0.70011 0.31673 0.52535 0.0
C898 C 0.71319 0.30165 0.51127 0.0
C899 C 0.71902 0.30412 0.53464 0.0
C900 C 0.70852 0.31334 0.53617 0.0
C901 C 0.72141 0.29796 0.52223 0.0
C902 C 0.70264 0.3109 0.51282 0.0
C903 C 0.68824 0.32545 0.52784 0.0
O904 O 0.66629 0.36015 0.53357 0.0
O905 O 0.65368 0.34752 0.52083 0.0
O906 O 0.67826 0.32501 0.51919 0.0
O907 O 0.69065 0.33761 0.53218 0.0
H908 H 0.63717 0.33417 0.53545 0.0
H909 H 0.62099 0.33128 0.55366 0.0
H910 H 0.6341 0.36868 0.5708 0.0
H911 H 0.65037 0.37143 0.55272 0.0
H912 H 0.66343 0.38173 0.46179 0.0
H913 H 0.66562 0.36318 0.47775 0.0
H914 H 0.69644 0.40208 0.48102 0.0
H915 H 0.69883 0.38338 0.49674 0.0
H916 H 0.71462 0.29707 0.50159 0.0
H917 H 0.72525 0.30178 0.54325 0.0
H918 H 0.70678 0.31764 0.54595 0.0
H919 H 0.69631 0.31325 0.50428 0.0
C920 C 0.6441 0.1769 0.99262 0.0
C921 C 0.64873 0.17865 0.9794 0.0
C922 C 0.6256 0.17989 0.971 0.0
C923 C 0.63959 0.18013 0.96874 0.0
C924 C 0.62105 0.17846 0.9843 0.0
C925 C 0.63017 0.17696 0.99492 0.0
U926 U 0.67497 0.18244 0.01644 0.0
O927 O 0.67589 0.17919 0.03828 0.0
O928 O 0.68853 0.1671 0.02508 0.0
C929 C 0.68434 0.16909 0.0374 0.0
C930 C 0.65331 0.17374 1.00398 0.0
C931 C 0.68168 0.15697 0.04585 0.0
C932 C 0.66935 0.14548 0.06375 0.0
C933 C 0.6707 0.15629 0.05473 0.0
C934 C 0.68973 0.13564 0.05507 0.0
C935 C 0.67893 0.13507 0.06418 0.0
C936 C 0.6911 0.14645 0.04609 0.0
C937 C 0.69888 0.21332 0.01143 0.0
C938 C 0.72233 0.21991 1.00804 0.0
C939 C 0.70738 0.23449 0.02022 0.0
C940 C 0.69686 0.22532 0.01845 0.0
C941 C 0.72025 0.23202 0.01491 0.0
C942 C 0.7118 0.21072 1.00629 0.0
C943 C 0.68722 0.20448 1.00818 0.0
O944 O 0.66557 0.16978 1.00108 0.0
O945 O 0.65286 0.18173 0.01438 0.0
O946 O 0.67704 0.20445 0.01658 0.0
O947 O 0.68982 0.19251 1.0034 0.0
H948 H 0.6594 0.17863 0.97725 0.0
H949 H 0.64352 0.1814 0.95869 0.0
H950 H 0.6104 0.17803 0.98649 0.0
H951 H 0.6263 0.17547 1.00497 0.0
H952 H 0.6608 0.14534 0.07045 0.0
H953 H 0.66328 0.16423 0.05492 0.0
H954 H 0.69742 0.12796 0.05518 0.0
H955 H 0.69979 0.14676 0.03955 0.0
H956 H 0.73211 0.21754 1.00393 0.0
H957 H 0.70528 0.24376 0.02537 0.0
H958 H 0.687 0.22783 0.0223 0.0
H959 H 0.71374 0.20169 1.00066 0.0
H960 H 1.00331 0.27066 0.80756 0.0
H961 H 1.0088 0.25721 0.72854 0.0
H962 H 1.00862 0.30217 0.77812 0.0
H963 H 1.00361 0.22584 0.75814 0.0
H964 H 0.00947 0.2737 0.74651 0.0
H965 H 1.00407 0.25415 0.78967 0.0
C966 C 1.00477 0.27415 0.79736 0.0
C967 C 1.00593 0.28793 0.79445 0.0
C968 C 1.00821 0.2632 0.74908 0.0
C969 C 1.00661 0.2689 0.77372 0.0
C970 C 1.00793 0.25373 0.7388 0.0
C971 C 1.00614 0.24001 0.74173 0.0
C972 C 1.00671 0.25903 0.76249 0.0
C973 C 1.00482 0.23626 0.7553 0.0
C974 C 1.0051 0.26467 0.7871 0.0
C975 C 1.00751 0.29172 0.78092 0.0
N976 N 1.00512 0.24568 0.76511 0.0
N977 N 1.00781 0.28229 0.7711 0.0
H978 H 0.72397 0.51912 0.27956 0.0
H979 H 0.80099 0.5061 0.25915 0.0
H980 H 0.7546 0.50632 0.30754 0.0
H981 H 0.77033 0.51788 0.23078 0.0
H982 H 0.78427 0.50682 0.27705 0.0
H983 H 0.74083 0.51936 0.26171 0.0
C984 C 0.73421 0.51633 0.28199 0.0
C985 C 0.73778 0.51269 0.29518 0.0
C986 C 0.78119 0.50929 0.26692 0.0
C987 C 0.75728 0.51305 0.27466 0.0
C988 C 0.79075 0.50881 0.25664 0.0
C989 C 0.78714 0.51188 0.24333 0.0
C990 C 0.76782 0.51284 0.26397 0.0
C991 C 0.77369 0.51557 0.24085 0.0
C992 C 0.74388 0.51654 0.27177 0.0
C993 C 0.75133 0.50938 0.29763 0.0
N994 N 0.76456 0.51589 0.25102 0.0
N995 N 0.76052 0.50961 0.28752 0.0
H996 H 0.5016 0.27332 0.72693 0.0
H997 H 0.50878 0.25377 0.8049 0.0
H998 H 0.50751 0.30244 0.7581 0.0
H999 H 0.50182 0.2249 0.7737 0.0
H1000 H 0.509 0.27163 0.78793 0.0
H1001 H 0.50235 0.25546 0.74385 0.0
C1002 C 0.50303 0.276 0.73732 0.0
C1003 C 0.50445 0.2895 0.74101 0.0
C1004 C 0.50746 0.26138 0.78479 0.0
C1005 C 0.50543 0.26893 0.76056 0.0
C1006 C 0.50727 0.25115 0.79451 0.0
C1007 C 0.50527 0.23771 0.79082 0.0
C1008 C 0.50562 0.25825 0.7712 0.0
C1009 C 0.50359 0.23502 0.77709 0.0
C1010 C 0.50352 0.26575 0.747 0.0
C1011 C 0.50652 0.29222 0.75468 0.0
N1012 N 0.50377 0.24516 0.76785 0.0
N1013 N 0.5069 0.28207 0.76392 0.0
H1014 H 0.77743 0.99758 0.29676 0.0
H1015 H 0.74484 0.03881 0.23533 0.0
H1016 H 0.79148 0.03627 0.28309 0.0
H1017 H 0.73158 0.99919 0.24689 0.0
H1018 H 0.76189 0.03787 0.25287 0.0
H1019 H 0.76062 0.99779 0.27877 0.0
C1020 C 0.77701 1.00613 0.29001 0.0
C1021 C 0.78598 0.01692 0.29152 0.0
C1022 C 0.75528 0.02935 0.25161 0.0
C1023 C 0.76669 0.01719 0.27078 0.0
C1024 C 0.74543 0.02992 0.24161 0.0
C1025 C 0.7366 0.01911 0.23963 0.0
C1026 C 0.75641 0.0179 0.25983 0.0
C1027 C 0.73817 1.00775 0.24796 0.0
C1028 C 0.76742 1.00621 0.27968 0.0
C1029 C 0.78498 0.02763 0.28229 0.0
N1030 N 0.74781 1.00746 0.2577 0.0
N1031 N 0.77553 0.0275 0.27241 0.0
H1032 H 0.23067 0.74228 0.03407 0.0
H1033 H 0.29166 0.78058 0.99736 0.0
H1034 H 0.24414 0.73343 0.99403 0.0
H1035 H 0.27847 0.7897 0.03743 0.0
H1036 H 0.27419 0.76343 0.99597 0.0
H1037 H 0.24795 0.7597 0.03553 0.0
C1038 C 0.23726 0.74393 0.02559 0.0
C1039 C 0.23583 0.73631 0.01389 0.0
C1040 C 0.27508 0.7692 1.00507 0.0
C1041 C 0.25568 0.75643 0.01547 0.0
C1042 C 0.28514 0.77898 1.0059 0.0
C1043 C 0.28665 0.78668 0.01754 0.0
C1044 C 0.26639 0.76697 0.01597 0.0
C1045 C 0.27766 0.7842 0.02817 0.0
C1046 C 0.2471 0.75396 0.02641 0.0
C1047 C 0.24464 0.73913 1.00319 0.0
N1048 N 0.26799 0.77458 0.02714 0.0
N1049 N 0.25414 0.74889 1.00425 0.0
H1050 H 0.26855 0.72663 0.50963 0.0
H1051 H 0.24932 0.80411 0.52009 0.0
H1052 H 0.29773 0.7572 0.51885 0.0
H1053 H 0.22054 0.77349 0.50987 0.0
H1054 H 0.26706 0.78708 0.52033 0.0
H1055 H 0.25081 0.74357 0.51038 0.0
C1056 C 0.27127 0.7369 0.51179 0.0
C1057 C 0.28476 0.74042 0.51413 0.0
C1058 C 0.25686 0.78408 0.51808 0.0
C1059 C 0.26431 0.75998 0.51511 0.0
C1060 C 0.2467 0.79384 0.51787 0.0
C1061 C 0.23332 0.79032 0.51496 0.0
C1062 C 0.2537 0.77064 0.51532 0.0
C1063 C 0.23061 0.77674 0.51237 0.0
C1064 C 0.26109 0.74658 0.51228 0.0
C1065 C 0.28752 0.75391 0.51712 0.0
N1066 N 0.24067 0.76746 0.51257 0.0
N1067 N 0.27743 0.76317 0.51747 0.0
H1068 H 0.02346 0.79856 0.2793 0.0
H1069 H 0.99017 0.72965 0.25509 0.0
H1070 H 0.99315 0.77685 0.30152 0.0
H1071 H 0.024 0.74774 0.23488 0.0
H1072 H 0.99119 0.74713 0.27196 0.0
H1073 H 0.02412 0.7803 0.26302 0.0
C1074 C 0.01703 0.78993 0.28087 0.0
C1075 C 1.00815 0.78939 0.29184 0.0
C1076 C 0.99843 0.74731 0.26387 0.0
C1077 C 1.00874 0.76845 0.27301 0.0
C1078 C 0.9978 0.73734 0.25414 0.0
C1079 C 1.00693 0.73723 0.2434 0.0
C1080 C 1.00823 0.75742 0.26295 0.0
C1081 C 0.01677 0.74736 0.24297 0.0
C1082 C 0.01737 0.77953 0.27149 0.0
C1083 C 0.99997 0.77795 0.29314 0.0
N1084 N 0.0171 0.75707 0.25253 0.0
N1085 N 1.00042 0.76804 0.28386 0.0
H1086 H 0.29353 0.50621 0.75446 0.0
H1087 H 0.21775 0.52246 0.77703 0.0
H1088 H 0.26415 0.52537 0.72883 0.0
H1089 H 0.24681 0.5033 0.80301 0.0
H1090 H 0.23482 0.524 0.75951 0.0
H1091 H 0.27682 0.50536 0.77246 0.0
C1092 C 0.28361 0.51029 0.75259 0.0
C1093 C 0.28032 0.51583 0.73999 0.0
C1094 C 0.23749 0.51948 0.76905 0.0
C1095 C 0.26101 0.51479 0.76067 0.0
C1096 C 0.22774 0.51869 0.77914 0.0
C1097 C 0.23076 0.51275 0.79162 0.0
C1098 C 0.25045 0.51432 0.77135 0.0
C1099 C 0.2439 0.50782 0.79355 0.0
C1100 C 0.27403 0.50974 0.76289 0.0
C1101 C 0.26717 0.52079 0.73823 0.0
N1102 N 0.25321 0.50871 0.78356 0.0
N1103 N 0.25807 0.52016 0.7484 0.0
H1104 H 0.5092 0.80279 0.25861 0.0
H1105 H 0.51689 0.72402 0.27418 0.0
H1106 H 0.51707 0.77324 0.22829 0.0
H1107 H 0.50884 0.75338 0.30465 0.0
H1108 H 0.51628 0.74182 0.25724 0.0
H1109 H 0.50829 0.78486 0.27545 0.0
C1110 C 0.51061 0.79254 0.25543 0.0
C1111 C 0.51323 0.78962 0.24191 0.0
C1112 C 0.51461 0.74439 0.26762 0.0
C1113 C 0.51238 0.76892 0.26134 0.0
C1114 C 0.51485 0.73418 0.27734 0.0
C1115 C 0.51288 0.7371 0.29096 0.0
C1116 C 0.51238 0.75773 0.27145 0.0
C1117 C 0.51058 0.75058 0.29434 0.0
C1118 C 0.51019 0.78228 0.26511 0.0
C1119 C 0.51521 0.77608 0.23855 0.0
N1120 N 0.5104 0.76035 0.28469 0.0
N1121 N 0.51476 0.76629 0.24816 0.0
H1122 H 0.26984 0.99403 0.80166 0.0
H1123 H 0.24649 0.0264 0.73153 0.0
H1124 H 0.29155 0.0262 0.78227 0.0
H1125 H 0.22314 0.9976 0.75412 0.0
H1126 H 0.26296 0.02684 0.74981 0.0
H1127 H 0.25279 0.99533 0.78413 0.0
C1128 C 0.27107 1.00135 0.79368 0.0
C1129 C 0.28229 0.00993 0.79344 0.0
C1130 C 0.2542 0.02047 0.75078 0.0
C1131 C 0.26255 0.01156 0.7732 0.0
C1132 C 0.24471 0.02026 0.74036 0.0
C1133 C 0.23336 0.01186 0.74114 0.0
C1134 C 0.2524 0.0122 0.76212 0.0
C1135 C 0.23181 1.00403 0.75284 0.0
C1136 C 0.26125 1.00215 0.78368 0.0
C1137 C 0.28309 0.01941 0.78293 0.0
N1138 N 0.24119 1.00436 0.76276 0.0
N1139 N 0.27343 0.0199 0.7732 0.0
H1140 H 0.72619 0.24812 0.03644 0.0
H1141 H 0.78757 0.2865 1.00046 0.0
H1142 H 0.73958 0.23929 0.99636 0.0
H1143 H 0.77375 0.29514 0.04043 0.0
H1144 H 0.77024 0.26915 0.99872 0.0
H1145 H 0.74371 0.2652 0.03806 0.0
C1146 C 0.73277 0.24977 0.02794 0.0
C1147 C 0.73129 0.24218 0.01622 0.0
C1148 C 0.77102 0.27482 1.00789 0.0
C1149 C 0.7516 0.26181 0.01808 0.0
C1150 C 0.78089 0.28482 0.00886 0.0
C1151 C 0.78224 0.29235 0.02063 0.0
C1152 C 0.76234 0.27231 0.01873 0.0
C1153 C 0.77332 0.2895 0.03123 0.0
C1154 C 0.74285 0.25951 0.02891 0.0
C1155 C 0.74036 0.24472 1.00567 0.0
N1156 N 0.7638 0.27977 0.03001 0.0
N1157 N 0.75005 0.2543 1.00683 0.0
H1158 H 0.73871 0.29355 0.50103 0.0
H1159 H 0.77577 0.23075 0.53612 0.0
H1160 H 0.72871 0.27829 0.54037 0.0
H1161 H 0.78613 0.24576 0.49679 0.0
H1162 H 0.75863 0.24821 0.53783 0.0
H1163 H 0.7561 0.27626 0.49923 0.0
C1164 C 0.7401 0.28656 0.50928 0.0
C1165 C 0.73217 0.2875 0.5209 0.0
C1166 C 0.76466 0.24772 0.52882 0.0
C1167 C 0.75226 0.26763 0.51892 0.0
C1168 C 0.77444 0.23767 0.52781 0.0
C1169 C 0.78248 0.23667 0.51627 0.0
C1170 C 0.76278 0.25691 0.51822 0.0
C1171 C 0.78035 0.24616 0.50595 0.0
C1172 C 0.75012 0.27672 0.50827 0.0
C1173 C 0.73466 0.27819 0.5313 0.0
N1174 N 0.77072 0.25582 0.50715 0.0
N1175 N 0.74441 0.26869 0.53005 0.0
H1176 H 0.11279 0.07127 0.70805 0.0
H1177 H 0.07149 0.12642 0.66566 0.0
H1178 H 0.11952 0.07878 0.66594 0.0
H1179 H 0.06566 0.11871 0.70787 0.0
H1180 H 0.08876 0.10889 0.66531 0.0
H1181 H 0.0951 0.0882 0.70784 0.0
C1182 C 0.11048 0.07636 0.6987 0.0
C1183 C 0.11771 0.07345 0.68697 0.0
C1184 C 0.08367 0.11101 0.67464 0.0
C1185 C 0.0974 0.0932 0.68673 0.0
C1186 C 0.07382 0.12109 0.67487 0.0
C1187 C 0.06699 0.12412 0.68681 0.0
C1188 C 0.08681 0.10387 0.68645 0.0
C1189 C 0.07042 0.11666 0.69836 0.0
C1190 C 0.1004 0.08614 0.69862 0.0
C1191 C 0.11436 0.08071 0.67527 0.0
N1192 N 0.08005 0.10697 0.69788 0.0
N1193 N 0.10448 0.09021 0.67545 0.0
H1194 H 0.93883 0.63454 0.17141 0.0
H1195 H 0.9157 0.56178 0.19774 0.0
H1196 H 0.96503 0.60763 0.19324 0.0
H1197 H 0.89082 0.58778 0.17338 0.0
H1198 H 0.93375 0.57841 0.19649 0.0
H1199 H 0.92104 0.6177 0.17253 0.0
C1200 C 0.9409 0.62508 0.1764 0.0
C1201 C 0.95357 0.62257 0.18218 0.0
C1202 C 0.92435 0.58047 0.19141 0.0
C1203 C 0.93301 0.60313 0.18363 0.0
C1204 C 0.91403 0.57091 0.19202 0.0
C1205 C 0.9016 0.5733 0.18567 0.0
C1206 C 0.92232 0.59259 0.18439 0.0
C1207 C 0.90008 0.5855 0.17863 0.0
C1208 C 0.93067 0.61546 0.17709 0.0
C1209 C 0.95544 0.61015 0.18876 0.0
N1210 N 0.91025 0.59463 0.1782 0.0
N1211 N 0.94532 0.60093 0.18927 0.0
H1212 H 0.46155 0.4213 0.68973 0.0
H1213 H 0.38425 0.44024 0.67568 0.0
H1214 H 0.43296 0.39399 0.67228 0.0
H1215 H 0.41281 0.4675 0.69324 0.0
H1216 H 0.40196 0.42332 0.67414 0.0
H1217 H 0.44383 0.43821 0.69128 0.0
C1218 C 0.45153 0.41877 0.68633 0.0
C1219 C 0.44883 0.4061 0.68087 0.0
C1220 C 0.40437 0.43301 0.67832 0.0
C1221 C 0.4284 0.42565 0.68245 0.0
C1222 C 0.39426 0.44275 0.67911 0.0
C1223 C 0.39696 0.45542 0.68459 0.0
C1224 C 0.41738 0.43586 0.68302 0.0
C1225 C 0.41014 0.45788 0.68909 0.0
C1226 C 0.44142 0.42852 0.68712 0.0
C1227 C 0.43564 0.40363 0.6764 0.0
N1228 N 0.41981 0.44823 0.68821 0.0
N1229 N 0.42597 0.41327 0.67729 0.0
H1230 H 0.63372 0.9397 0.17668 0.0
H1231 H 0.55606 0.92129 0.18904 0.0
H1232 H 0.60461 0.96763 0.1922 0.0
H1233 H 0.5851 0.89336 0.17339 0.0
H1234 H 0.57372 0.93825 0.19047 0.0
H1235 H 0.61607 0.92273 0.17521 0.0
C1236 C 0.62361 0.94235 0.17967 0.0
C1237 C 0.62074 0.95522 0.18457 0.0
C1238 C 0.57625 0.92841 0.18674 0.0
C1239 C 0.60038 0.9356 0.18308 0.0
C1240 C 0.56616 0.91864 0.18601 0.0
C1241 C 0.56901 0.90577 0.1811 0.0
C1242 C 0.58938 0.92537 0.18254 0.0
C1243 C 0.58231 0.90314 0.17709 0.0
C1244 C 0.61353 0.93257 0.17892 0.0
C1245 C 0.60742 0.95785 0.18853 0.0
N1246 N 0.59195 0.91281 0.1779 0.0
N1247 N 0.59779 0.94817 0.18769 0.0
H1248 H 0.08125 0.39213 0.85798 0.0
H1249 H 0.09988 0.46933 0.84371 0.0
H1250 H 0.05363 0.42064 0.84034 0.0
H1251 H 0.12754 0.44073 0.86114 0.0
H1252 H 0.08294 0.45165 0.84223 0.0
H1253 H 0.09818 0.40981 0.85943 0.0
C1254 C 0.07866 0.40212 0.85451 0.0
C1255 C 0.06589 0.40481 0.84904 0.0
C1256 C 0.09272 0.44922 0.84636 0.0
C1257 C 0.08546 0.42521 0.85051 0.0
C1258 C 0.10248 0.45932 0.84712 0.0
C1259 C 0.11526 0.45661 0.85255 0.0
C1260 C 0.09568 0.43622 0.85105 0.0
C1261 C 0.11783 0.44342 0.85703 0.0
C1262 C 0.08841 0.41222 0.85525 0.0
C1263 C 0.06334 0.41797 0.84449 0.0
N1264 N 0.10817 0.43378 0.85618 0.0
N1265 N 0.07299 0.42763 0.84533 0.0
H1266 H 0.5567 0.60816 0.34298 0.0
H1267 H 0.63289 0.58769 0.36057 0.0
H1268 H 0.58425 0.63402 0.36391 0.0
H1269 H 0.60532 0.56183 0.33965 0.0
H1270 H 0.61519 0.60463 0.36209 0.0
H1271 H 0.5744 0.59123 0.34148 0.0
C1272 C 0.56649 0.61037 0.34717 0.0
C1273 C 0.56889 0.62264 0.35358 0.0
C1274 C 0.61299 0.59524 0.35718 0.0
C1275 C 0.58929 0.60305 0.35205 0.0
C1276 C 0.62309 0.58548 0.35639 0.0
C1277 C 0.62068 0.57322 0.34997 0.0
C1278 C 0.60028 0.5928 0.35152 0.0
C1279 C 0.60778 0.57115 0.34454 0.0
C1280 C 0.57659 0.60061 0.34639 0.0
C1281 C 0.58179 0.6247 0.35902 0.0
N1282 N 0.59812 0.58081 0.34544 0.0
N1283 N 0.59145 0.61505 0.35813 0.0
H1284 H 0.46313 0.107 0.84248 0.0
H1285 H 0.38621 0.08749 0.85754 0.0
H1286 H 0.43495 0.13368 0.86146 0.0
H1287 H 0.41458 0.0607 0.839 0.0
H1288 H 0.4039 0.10441 0.85922 0.0
H1289 H 0.44544 0.09008 0.84091 0.0
C1290 C 0.45321 0.10939 0.84622 0.0
C1291 C 0.45061 0.12189 0.8521 0.0
C1292 C 0.40627 0.09482 0.8548 0.0
C1293 C 0.43022 0.10233 0.85048 0.0
C1294 C 0.39617 0.08508 0.85392 0.0
C1295 C 0.39882 0.07255 0.84811 0.0
C1296 C 0.41921 0.09211 0.84985 0.0
C1297 C 0.41194 0.07022 0.84339 0.0
C1298 C 0.44311 0.09964 0.8454 0.0
C1299 C 0.43755 0.12418 0.85699 0.0
N1300 N 0.42159 0.07986 0.84436 0.0
N1301 N 0.42789 0.11454 0.85606 0.0
H1302 H 0.91365 0.96512 0.33144 0.0
H1303 H 0.94311 0.89833 0.36624 0.0
H1304 H 0.89429 0.94455 0.36438 0.0
H1305 H 0.96293 0.91929 0.33383 0.0
H1306 H 0.92505 0.91495 0.36548 0.0
H1307 H 0.93179 0.94858 0.33224 0.0
C1308 C 0.91323 0.95722 0.33894 0.0
C1309 C 0.90233 0.95633 0.34787 0.0
C1310 C 0.93334 0.91592 0.35852 0.0
C1311 C 0.92313 0.93709 0.34869 0.0
C1312 C 0.94364 0.90634 0.35887 0.0
C1313 C 0.95464 0.90731 0.35007 0.0
C1314 C 0.93392 0.92663 0.34928 0.0
C1315 C 0.95479 0.91815 0.34093 0.0
C1316 C 0.92359 0.94768 0.33931 0.0
C1317 C 0.90233 0.94562 0.35717 0.0
N1318 N 0.94463 0.92733 0.34078 0.0
N1319 N 0.91252 0.93647 0.35732 0.0
H1320 H 0.6684 0.088 0.13744 0.0
H1321 H 0.68484 0.10823 0.06109 0.0
H1322 H 0.68167 0.05966 0.10783 0.0
H1323 H 0.67093 0.13638 0.09058 0.0
H1324 H 0.68393 0.0904 0.07805 0.0
H1325 H 0.66939 0.1058 0.12048 0.0
C1326 C 0.67148 0.08547 0.12738 0.0
C1327 C 0.67492 0.0722 0.12414 0.0
C1328 C 0.68106 0.10047 0.08082 0.0
C1329 C 0.67619 0.09273 0.10456 0.0
C1330 C 0.68163 0.1107 0.07113 0.0
C1331 C 0.67796 0.12392 0.07433 0.0
C1332 C 0.67682 0.10338 0.09391 0.0
C1333 C 0.67368 0.12637 0.08752 0.0
C1334 C 0.67211 0.09569 0.11768 0.0
C1335 C 0.67908 0.0697 0.11092 0.0
N1336 N 0.67327 0.11625 0.09678 0.0
N1337 N 0.67956 0.07982 0.10165 0.0
H1338 H 0.93413 0.1749 0.6391 0.0
H1339 H 0.91599 0.187 0.56144 0.0
H1340 H 0.96365 0.18461 0.60888 0.0
H1341 H 0.8865 0.17716 0.59165 0.0
H1342 H 0.93352 0.18624 0.57864 0.0
H1343 H 0.91661 0.17567 0.6219 0.0
C1344 C 0.93698 0.17716 0.62886 0.0
C1345 C 0.95049 0.17968 0.62552 0.0
C1346 C 0.92321 0.18422 0.58151 0.0
C1347 C 0.9303 0.18068 0.60566 0.0
C1348 C 0.91316 0.18472 0.57168 0.0
C1349 C 0.89965 0.18215 0.57501 0.0
C1350 C 0.91984 0.18117 0.59487 0.0
C1351 C 0.89674 0.17903 0.58849 0.0
C1352 C 0.92692 0.17766 0.61903 0.0
C1353 C 0.95341 0.18277 0.61204 0.0
N1354 N 0.9067 0.17866 0.59787 0.0
N1355 N 0.94345 0.18315 0.60266 0.0
H1356 H 0.86294 0.44685 0.13324 0.0
H1357 H 0.82643 0.41821 0.06761 0.0
H1358 H 0.82779 0.46504 0.11537 0.0
H1359 H 0.86169 0.40023 0.08549 0.0
H1360 H 0.82635 0.435 0.08533 0.0
H1361 H 0.86205 0.42922 0.11642 0.0
C1362 C 0.85494 0.4471 0.12589 0.0
C1363 C 0.84543 0.45755 0.12582 0.0
C1364 C 0.83408 0.42735 0.08541 0.0
C1365 C 0.84448 0.43733 0.10624 0.0
C1366 C 0.83418 0.41777 0.07523 0.0
C1367 C 0.84411 0.40771 0.07494 0.0
C1368 C 0.844 0.427 0.09546 0.0
C1369 C 0.85373 0.40762 0.0853 0.0
C1370 C 0.8545 0.43704 0.11619 0.0
C1371 C 0.83546 0.45735 0.11579 0.0
N1372 N 0.85345 0.4171 0.09505 0.0
N1373 N 0.83527 0.44746 0.10644 0.0
H1374 H 0.58098 0.35366 0.63847 0.0
H1375 H 0.6001 0.3405 0.5615 0.0
H1376 H 0.55314 0.33768 0.60954 0.0
H1377 H 0.62796 0.35631 0.59052 0.0
H1378 H 0.58289 0.33921 0.57895 0.0
H1379 H 0.59817 0.35492 0.62102 0.0
C1380 C 0.5784 0.35052 0.62843 0.0
C1381 C 0.56549 0.34557 0.62556 0.0
C1382 C 0.59278 0.34294 0.58151 0.0
C1383 C 0.58535 0.34681 0.60543 0.0
C1384 C 0.60268 0.3436 0.57155 0.0
C1385 C 0.6156 0.34852 0.57446 0.0
C1386 C 0.59572 0.34723 0.59457 0.0
C1387 C 0.61814 0.35261 0.58769 0.0
C1388 C 0.5883 0.35115 0.61847 0.0
C1389 C 0.56294 0.34142 0.61235 0.0
N1390 N 0.60834 0.35187 0.5972 0.0
N1391 N 0.57274 0.34214 0.60283 0.0
H1392 H 0.65305 0.45339 0.41163 0.0
H1393 H 0.70061 0.40734 0.45804 0.0
H1394 H 0.69636 0.45592 0.41147 0.0
H1395 H 0.65729 0.40481 0.4582 0.0
H1396 H 0.69923 0.42518 0.44116 0.0
H1397 H 0.65443 0.43554 0.4285 0.0
C1398 C 0.66288 0.45015 0.41503 0.0
C1399 C 0.67461 0.45623 0.40998 0.0
C1400 C 0.69002 0.42074 0.44489 0.0
C1401 C 0.67624 0.43577 0.42961 0.0
C1402 C 0.69078 0.41058 0.45464 0.0
C1403 C 0.67904 0.40449 0.45969 0.0
C1404 C 0.67742 0.42496 0.44006 0.0
C1405 C 0.66664 0.40903 0.45457 0.0
C1406 C 0.66364 0.43998 0.42477 0.0
C1407 C 0.68702 0.4517 0.4151 0.0
N1408 N 0.66616 0.41895 0.44509 0.0
N1409 N 0.68749 0.44178 0.42457 0.0
H1410 H 0.5553 0.19472 0.92065 0.0
H1411 H 0.62754 0.16864 0.94593 0.0
H1412 H 0.58174 0.17037 0.89674 0.0
H1413 H 0.60104 0.19281 0.96996 0.0
H1414 H 0.61104 0.1694 0.92777 0.0
H1415 H 0.57178 0.19396 0.93884 0.0
C1416 C 0.5645 0.1891 0.91922 0.0
C1417 C 0.56705 0.1826 0.90703 0.0
C1418 C 0.60883 0.17456 0.93701 0.0
C1419 C 0.58618 0.18186 0.92792 0.0
C1420 C 0.61832 0.17422 0.94739 0.0
C1421 C 0.61577 0.18067 0.9596 0.0
C1422 C 0.59661 0.18141 0.93874 0.0
C1423 C 0.60345 0.18752 0.96086 0.0
C1424 C 0.57398 0.18876 0.92962 0.0
C1425 C 0.57934 0.1757 0.90582 0.0
N1426 N 0.59438 0.18771 0.95061 0.0
N1427 N 0.58839 0.17552 0.91607 0.0
H1428 H 0.84971 0.13589 0.44205 0.0
H1429 H 0.83931 0.05808 0.42466 0.0
H1430 H 0.83935 0.10564 0.47145 0.0
H1431 H 0.85045 0.08804 0.39526 0.0
H1432 H 0.83828 0.07553 0.44165 0.0
H1433 H 0.84926 0.11874 0.42468 0.0
C1434 C 0.84736 0.12565 0.4449 0.0
C1435 C 0.8446 0.12229 0.45834 0.0
C1436 C 0.84091 0.07831 0.43147 0.0
C1437 C 0.84398 0.10249 0.43833 0.0
C1438 C 0.84141 0.06833 0.4217 0.0
C1439 C 0.84498 0.0715 0.40841 0.0
C1440 C 0.84399 0.09166 0.42803 0.0
C1441 C 0.84782 0.08502 0.40536 0.0
C1442 C 0.84704 0.11585 0.43492 0.0
C1443 C 0.84139 0.10883 0.46126 0.0
N1444 N 0.84728 0.09454 0.41506 0.0
N1445 N 0.84122 0.09947 0.45139 0.0
H1446 H 0.96114 0.33361 0.92353 0.0
H1447 H 0.88813 0.35917 0.94635 0.0
H1448 H 0.93784 0.36245 0.90087 0.0
H1449 H 0.91314 0.33288 0.97026 0.0
H1450 H 0.90594 0.36032 0.92947 0.0
H1451 H 0.94338 0.33284 0.94039 0.0
C1452 C 0.95233 0.33984 0.92208 0.0
C1453 C 0.95112 0.34816 0.91068 0.0
C1454 C 0.90753 0.35431 0.93842 0.0
C1455 C 0.9305 0.34721 0.93007 0.0
C1456 C 0.89738 0.35372 0.94815 0.0
C1457 C 0.89902 0.34589 0.95984 0.0
C1458 C 0.91949 0.34701 0.9403 0.0
C1459 C 0.91123 0.33889 0.96138 0.0
C1460 C 0.94213 0.33934 0.93173 0.0
C1461 C 0.93924 0.35576 0.90934 0.0
N1462 N 0.92092 0.3396 0.95176 0.0
N1463 N 0.92946 0.35512 0.9189 0.0
H1464 H 0.10935 0.69842 0.06831 0.0
H1465 H 0.08144 0.66478 0.13623 0.0
H1466 H 0.12828 0.66462 0.08796 0.0
H1467 H 0.06273 0.69868 0.11655 0.0
H1468 H 0.09825 0.66413 0.11836 0.0
H1469 H 0.09174 0.69805 0.08536 0.0
C1470 C 0.10977 0.69081 0.07611 0.0
C1471 C 0.12042 0.68153 0.07661 0.0
C1472 C 0.09044 0.67169 0.11792 0.0
C1473 C 0.10021 0.68119 0.09643 0.0
C1474 C 0.08085 0.67212 0.12818 0.0
C1475 C 0.07059 0.68183 0.12801 0.0
C1476 C 0.08988 0.68106 0.10733 0.0
C1477 C 0.07029 0.6909 0.11712 0.0
C1478 C 0.09972 0.69068 0.08593 0.0
C1479 C 0.12043 0.6721 0.08719 0.0
N1480 N 0.07979 0.69032 0.1073 0.0
N1481 N 0.11054 0.67219 0.09664 0.0
H1482 H 0.06775 0.86797 0.40812 0.0
H1483 H 0.12096 0.83007 0.4559 0.0
H1484 H 0.07489 0.8253 0.40724 0.0
H1485 H 0.11364 0.8727 0.45705 0.0
H1486 H 0.10415 0.82815 0.43812 0.0
H1487 H 0.08464 0.86994 0.42583 0.0
C1488 C 0.07288 0.859 0.41158 0.0
C1489 C 0.06977 0.84643 0.4061 0.0
C1490 C 0.10623 0.83793 0.44225 0.0
C1491 C 0.08918 0.84863 0.4266 0.0
C1492 C 0.11581 0.83904 0.45248 0.0
C1493 C 0.11883 0.85158 0.45807 0.0
C1494 C 0.09951 0.84944 0.43748 0.0
C1495 C 0.11188 0.86284 0.45298 0.0
C1496 C 0.0825 0.86014 0.42178 0.0
C1497 C 0.07671 0.83518 0.41123 0.0
N1498 N 0.10258 0.86149 0.44304 0.0
N1499 N 0.08604 0.83655 0.42112 0.0
H1500 H 0.19166 0.6085 0.96913 0.0
H1501 H 0.15954 0.58389 0.89967 0.0
H1502 H 0.15872 0.62869 0.94928 0.0
H1503 H 0.19249 0.56373 0.91952 0.0
H1504 H 0.15911 0.60035 0.91768 0.0
H1505 H 0.19207 0.59205 0.95113 0.0
C1506 C 0.18447 0.60948 0.96103 0.0
C1507 C 0.17512 0.62008 0.96083 0.0
C1508 C 0.16642 0.59232 0.91811 0.0
C1509 C 0.17562 0.60117 0.93998 0.0
C1510 C 0.16672 0.58291 0.90777 0.0
C1511 C 0.17608 0.57233 0.90797 0.0
C1512 C 0.17556 0.59123 0.92882 0.0
C1513 C 0.18496 0.57156 0.91894 0.0
C1514 C 0.18476 0.60008 0.95069 0.0
C1515 C 0.16624 0.62086 0.94986 0.0
N1516 N 0.1845 0.58086 0.92886 0.0
N1517 N 0.16669 0.61155 0.93994 0.0
H1518 H 0.38794 0.67477 0.4428 0.0
H1519 H 0.4655 0.68828 0.4247 0.0
H1520 H 0.41795 0.68522 0.47215 0.0
H1521 H 0.43552 0.67753 0.39543 0.0
H1522 H 0.44826 0.68733 0.44214 0.0
H1523 H 0.40518 0.67578 0.42537 0.0
C1524 C 0.39815 0.67724 0.44563 0.0
C1525 C 0.40141 0.67989 0.45906 0.0
C1526 C 0.44545 0.68516 0.43191 0.0
C1527 C 0.42132 0.68116 0.43898 0.0
C1528 C 0.4553 0.68575 0.4219 0.0
C1529 C 0.45205 0.68299 0.40848 0.0
C1530 C 0.43214 0.6818 0.42857 0.0
C1531 C 0.43863 0.67957 0.40561 0.0
C1532 C 0.40801 0.67787 0.43562 0.0
C1533 C 0.41484 0.68326 0.46196 0.0
N1534 N 0.42921 0.6791 0.41552 0.0
N1535 N 0.42426 0.68377 0.45205 0.0
H1536 H 0.34878 0.93997 0.8948 0.0
H1537 H 0.33666 0.92046 0.97215 0.0
H1538 H 0.33958 0.96893 0.92531 0.0
H1539 H 0.34614 0.89156 0.94166 0.0
H1540 H 0.33758 0.93828 0.95517 0.0
H1541 H 0.34783 0.92217 0.91178 0.0
C1542 C 0.3466 0.94263 0.90506 0.0
C1543 C 0.34428 0.95607 0.90854 0.0
C1544 C 0.33948 0.92804 0.95219 0.0
C1545 C 0.34307 0.93556 0.92815 0.0
C1546 C 0.3389 0.91782 0.96189 0.0
C1547 C 0.34132 0.90439 0.95842 0.0
C1548 C 0.34247 0.92491 0.93881 0.0
C1549 C 0.34438 0.90172 0.94493 0.0
C1550 C 0.346 0.93241 0.91477 0.0
C1551 C 0.34128 0.95876 0.92204 0.0
N1552 N 0.34483 0.91184 0.93567 0.0
N1553 N 0.34079 0.94864 0.9313 0.0
H1554 H 0.4526 0.82307 0.12113 0.0
H1555 H 0.40245 0.87003 0.0785 0.0
H1556 H 0.44962 0.86589 0.12627 0.0
H1557 H 0.40541 0.82721 0.07334 0.0
H1558 H 0.41953 0.86866 0.09606 0.0
H1559 H 0.43554 0.82443 0.10354 0.0
C1560 C 0.44847 0.8328 0.11851 0.0
C1561 C 0.45269 0.84439 0.12526 0.0
C1562 C 0.41645 0.85955 0.0911 0.0
C1563 C 0.43284 0.84597 0.1051 0.0
C1564 C 0.40658 0.8603 0.0811 0.0
C1565 C 0.40235 0.84871 0.07436 0.0
C1566 C 0.42223 0.84712 0.09449 0.0
C1567 C 0.40839 0.83646 0.07809 0.0
C1568 C 0.43862 0.83354 0.1085 0.0
C1569 C 0.44665 0.85664 0.12152 0.0
N1570 N 0.41797 0.836 0.08787 0.0
N1571 N 0.43709 0.8571 0.11173 0.0
H1572 H 0.19222 0.96768 0.61225 0.0
H1573 H 0.1601 0.8989 0.58577 0.0
H1574 H 0.15843 0.948 0.63104 0.0
H1575 H 0.19435 0.91815 0.56735 0.0
H1576 H 0.15927 0.91683 0.60229 0.0
H1577 H 0.19303 0.94981 0.59565 0.0
C1578 C 0.18493 0.95964 0.61289 0.0
C1579 C 0.17523 0.95944 0.62314 0.0
C1580 C 0.16696 0.91715 0.59463 0.0
C1581 C 0.17617 0.93876 0.60407 0.0
C1582 C 0.16749 0.90685 0.58519 0.0
C1583 C 0.17733 0.90691 0.57507 0.0
C1584 C 0.17635 0.92767 0.59405 0.0
C1585 C 0.18646 0.91769 0.5748 0.0
C1586 C 0.18545 0.94938 0.60341 0.0
C1587 C 0.16621 0.94857 0.62349 0.0
N1588 N 0.18576 0.92757 0.58412 0.0
N1589 N 0.16689 0.93873 0.61412 0.0
H1590 H 0.33435 0.55939 0.60888 0.0
H1591 H 0.34764 0.63691 0.59072 0.0
H1592 H 0.34982 0.58803 0.63713 0.0
H1593 H 0.33221 0.60827 0.56244 0.0
H1594 H 0.34869 0.61914 0.60772 0.0
H1595 H 0.33327 0.57716 0.59187 0.0
C1596 C 0.33741 0.56943 0.61159 0.0
C1597 C 0.34218 0.57213 0.62456 0.0
C1598 C 0.34509 0.61673 0.5978 0.0
C1599 C 0.34114 0.59262 0.60492 0.0
C1600 C 0.34458 0.62687 0.58801 0.0
C1601 C 0.33984 0.62417 0.57503 0.0
C1602 C 0.34084 0.60368 0.59467 0.0
C1603 C 0.33578 0.61095 0.57231 0.0
C1604 C 0.33689 0.57957 0.6018 0.0
C1605 C 0.34624 0.58535 0.62728 0.0
N1606 N 0.33638 0.60125 0.582 0.0
N1607 N 0.34562 0.59505 0.61758 0.0
loop_
_geom_bond_atom_site_label_1
_geom_bond_atom_site_label_2
_geom_bond_distance
_geom_bond_site_symmetry_2
_ccdc_geom_bond_type
C0 C1 1.248 1_655 S
C0 C5 1.493 . S
C0 C10 1.469 . S
C1 C0 1.248 1_455 S
C1 C3 1.339 . S
C1 H28 0.931 . S
C2 C3 1.395 . S
C2 C4 1.320 1_455 S
C3 C1 1.339 . S
C3 C2 1.395 . S
C3 H29 0.929 . S
C4 C2 1.320 1_655 S
C4 C5 1.405 . S
C4 H30 0.930 . S
C5 C0 1.493 . S
C5 C4 1.405 . S
C5 H31 0.931 . S
U6 O7 2.454 . S
U6 O8 2.458 . S
U6 C9 2.984 . S
U6 C10 2.847 . S
U6 C23 2.882 1_655 S
U6 O24 2.441 . S
U6 O25 2.420 1_655 S
U6 O26 2.455 1_655 S
U6 O27 2.449 1_655 S
O7 U6 2.454 . S
O7 C9 1.353 . S
O8 U6 2.458 . S
O8 C9 1.286 . S
C9 U6 2.984 . S
C9 O7 1.353 . S
C9 O8 1.286 . S
C9 C11 1.363 . S
C10 C0 1.469 . S
C10 U6 2.847 . S
C10 O24 1.249 . S
C10 O25 1.202 1_655 S
C11 C9 1.363 . S
C11 C13 1.408 . S
C11 C16 1.342 . S
C12 C13 1.310 . S
C12 C15 1.461 . S
C12 H32 0.932 . S
C13 C11 1.408 . S
C13 C12 1.310 . S
C13 H33 0.930 . S
C14 C15 1.474 . S
C14 C16 1.285 . S
C14 H34 0.929 . S
C15 C12 1.461 . S
C15 C14 1.474 . S
C16 C11 1.342 . S
C16 C14 1.285 . S
C16 H35 0.930 . S
C17 C20 1.424 . S
C17 C22 1.245 . S
C17 C23 1.428 . S
C18 C21 1.260 . S
C18 C22 1.477 . S
C18 H36 0.932 . S
C19 C20 1.384 . S
C19 C21 1.479 . S
C19 H37 0.929 . S
C20 C17 1.424 . S
C20 C19 1.384 . S
C20 H38 0.928 . S
C21 C18 1.260 . S
C21 C19 1.479 . S
C22 C17 1.245 . S
C22 C18 1.477 . S
C22 H39 0.932 . S
C23 U6 2.882 1_455 S
C23 C17 1.428 . S
C23 O26 1.301 . S
C23 O27 1.282 . S
O24 U6 2.441 . S
O24 C10 1.249 . S
O25 U6 2.420 1_455 S
O25 C10 1.202 1_455 S
O26 U6 2.455 1_455 S
O26 C23 1.301 . S
O27 U6 2.449 1_455 S
O27 C23 1.282 . S
H28 C1 0.931 . S
H29 C3 0.929 . S
H30 C4 0.930 . S
H31 C5 0.931 . S
H32 C12 0.932 . S
H33 C13 0.930 . S
H34 C14 0.929 . S
H35 C16 0.930 . S
H36 C18 0.932 . S
H37 C19 0.929 . S
H38 C20 0.928 . S
H39 C22 0.932 . S
C40 C41 1.264 . S
C40 C45 1.479 . S
C40 C50 1.465 . S
C41 C40 1.264 . S
C41 C43 1.339 . S
C41 H68 0.931 . S
C42 C43 1.395 . S
C42 C44 1.320 . S
C43 C41 1.339 . S
C43 C42 1.395 . S
C43 H69 0.929 . S
C44 C42 1.320 . S
C44 C45 1.405 . S
C44 H70 0.930 . S
C45 C40 1.479 . S
C45 C44 1.405 . S
C45 H71 0.931 . S
U46 O47 2.454 . S
U46 O48 2.458 . S
U46 C49 2.984 . S
U46 C50 2.847 . S
U46 C63 2.882 . S
U46 O64 2.441 . S
U46 O65 2.420 . S
U46 O66 2.455 . S
U46 O67 2.449 . S
O47 U46 2.454 . S
O47 C49 1.353 . S
O48 U46 2.458 . S
O48 C49 1.286 . S
C49 U46 2.984 . S
C49 O47 1.353 . S
C49 O48 1.286 . S
C49 C51 1.363 . S
C50 C40 1.465 . S
C50 U46 2.847 . S
C50 O64 1.249 . S
C50 O65 1.202 . S
C51 C49 1.363 . S
C51 C53 1.408 . S
C51 C56 1.342 . S
C52 C53 1.310 . S
C52 C55 1.461 . S
C52 H72 0.932 . S
C53 C51 1.408 . S
C53 C52 1.310 . S
C53 H73 0.930 . S
C54 C55 1.474 . S
C54 C56 1.285 . S
C54 H74 0.929 . S
C55 C52 1.461 . S
C55 C54 1.474 . S
C56 C51 1.342 . S
C56 C54 1.285 . S
C56 H75 0.930 . S
C57 C60 1.424 . S
C57 C62 1.245 . S
C57 C63 1.428 . S
C58 C61 1.260 . S
C58 C62 1.477 . S
C58 H76 0.932 . S
C59 C60 1.384 . S
C59 C61 1.479 . S
C59 H77 0.929 . S
C60 C57 1.424 . S
C60 C59 1.384 . S
C60 H78 0.928 . S
C61 C58 1.260 . S
C61 C59 1.479 . S
C62 C57 1.245 . S
C62 C58 1.477 . S
C62 H79 0.932 . S
C63 U46 2.882 . S
C63 C57 1.428 . S
C63 O66 1.301 . S
C63 O67 1.282 . S
O64 U46 2.441 . S
O64 C50 1.249 . S
O65 U46 2.420 . S
O65 C50 1.202 . S
O66 U46 2.455 . S
O66 C63 1.301 . S
O67 U46 2.449 . S
O67 C63 1.282 . S
H68 C41 0.931 . S
H69 C43 0.929 . S
H70 C44 0.930 . S
H71 C45 0.931 . S
H72 C52 0.932 . S
H73 C53 0.930 . S
H74 C54 0.929 . S
H75 C56 0.930 . S
H76 C58 0.932 . S
H77 C59 0.929 . S
H78 C60 0.928 . S
H79 C62 0.932 . S
C80 C81 1.264 . S
C80 C85 1.479 . S
C80 C90 1.465 . S
C81 C80 1.264 . S
C81 C83 1.339 . S
C81 H108 0.931 . S
C82 C83 1.395 . S
C82 C84 1.320 . S
C83 C81 1.339 . S
C83 C82 1.395 . S
C83 H109 0.929 . S
C84 C82 1.320 . S
C84 C85 1.405 . S
C84 H110 0.930 . S
C85 C80 1.479 . S
C85 C84 1.405 . S
C85 H111 0.931 . S
U86 O87 2.454 . S
U86 O88 2.458 . S
U86 C89 2.984 . S
U86 C90 2.847 . S
U86 C103 2.882 . S
U86 O104 2.441 . S
U86 O105 2.420 . S
U86 O106 2.455 . S
U86 O107 2.449 . S
O87 U86 2.454 . S
O87 C89 1.353 . S
O88 U86 2.458 . S
O88 C89 1.286 . S
C89 U86 2.984 . S
C89 O87 1.353 . S
C89 O88 1.286 . S
C89 C91 1.363 . S
C90 C80 1.465 . S
C90 U86 2.847 . S
C90 O104 1.249 . S
C90 O105 1.202 . S
C91 C89 1.363 . S
C91 C93 1.408 . S
C91 C96 1.342 . S
C92 C93 1.310 . S
C92 C95 1.461 . S
C92 H112 0.932 . S
C93 C91 1.408 . S
C93 C92 1.310 . S
C93 H113 0.930 . S
C94 C95 1.474 . S
C94 C96 1.285 . S
C94 H114 0.929 . S
C95 C92 1.461 . S
C95 C94 1.474 . S
C96 C91 1.342 . S
C96 C94 1.285 . S
C96 H115 0.930 . S
C97 C100 1.424 . S
C97 C102 1.245 . S
C97 C103 1.428 . S
C98 C101 1.260 . S
C98 C102 1.477 . S
C98 H116 0.932 . S
C99 C100 1.384 . S
C99 C101 1.479 . S
C99 H117 0.929 . S
C100 C97 1.424 . S
C100 C99 1.384 . S
C100 H118 0.928 . S
C101 C98 1.260 . S
C101 C99 1.479 . S
C102 C97 1.245 . S
C102 C98 1.477 . S
C102 H119 0.932 . S
C103 U86 2.882 . S
C103 C97 1.428 . S
C103 O106 1.301 . S
C103 O107 1.282 . S
O104 U86 2.441 . S
O104 C90 1.249 . S
O105 U86 2.420 . S
O105 C90 1.202 . S
O106 U86 2.455 . S
O106 C103 1.301 . S
O107 U86 2.449 . S
O107 C103 1.282 . S
H108 C81 0.931 . S
H109 C83 0.929 . S
H110 C84 0.930 . S
H111 C85 0.931 . S
H112 C92 0.932 . S
H113 C93 0.930 . S
H114 C94 0.929 . S
H115 C96 0.930 . S
H116 C98 0.932 . S
H117 C99 0.929 . S
H118 C100 0.928 . S
H119 C102 0.932 . S
C120 C121 1.264 . S
C120 C125 1.479 . S
C120 C130 1.465 . S
C121 C120 1.264 . S
C121 C123 1.339 . S
C121 H148 0.931 . S
C122 C123 1.395 . S
C122 C124 1.320 . S
C123 C121 1.339 . S
C123 C122 1.395 . S
C123 H149 0.929 . S
C124 C122 1.320 . S
C124 C125 1.405 . S
C124 H150 0.930 . S
C125 C120 1.479 . S
C125 C124 1.405 . S
C125 H151 0.931 . S
U126 O127 2.454 1_545 S
U126 O128 2.458 1_545 S
U126 C129 2.984 1_545 S
U126 C130 2.847 . S
U126 C143 2.882 . S
U126 O144 2.441 . S
U126 O145 2.420 . S
U126 O146 2.455 1_545 S
U126 O147 2.449 . S
O127 U126 2.454 1_565 S
O127 C129 1.353 . S
O128 U126 2.458 1_565 S
O128 C129 1.286 . S
C129 U126 2.984 1_565 S
C129 O127 1.353 . S
C129 O128 1.286 . S
C129 C131 1.363 . S
C130 C120 1.465 . S
C130 U126 2.847 . S
C130 O144 1.249 . S
C130 O145 1.202 . S
C131 C129 1.363 . S
C131 C133 1.408 . S
C131 C136 1.342 . S
C132 C133 1.310 . S
C132 C135 1.461 . S
C132 H152 0.932 . S
C133 C131 1.408 . S
C133 C132 1.310 . S
C133 H153 0.930 . S
C134 C135 1.474 . S
C134 C136 1.285 . S
C134 H154 0.929 . S
C135 C132 1.461 . S
C135 C134 1.474 . S
C136 C131 1.342 . S
C136 C134 1.285 . S
C136 H155 0.930 . S
C137 C140 1.424 . S
C137 C142 1.245 1_545 S
C137 C143 1.428 . S
C138 C141 1.260 1_565 S
C138 C142 1.477 . S
C138 H156 0.932 . S
C139 C140 1.384 . S
C139 C141 1.479 . S
C139 H157 0.929 . S
C140 C137 1.424 . S
C140 C139 1.384 . S
C140 H158 0.928 . S
C141 C138 1.260 1_545 S
C141 C139 1.479 . S
C142 C137 1.245 1_565 S
C142 C138 1.477 . S
C142 H159 0.932 . S
C143 U126 2.882 . S
C143 C137 1.428 . S
C143 O146 1.301 1_545 S
C143 O147 1.282 . S
O144 U126 2.441 . S
O144 C130 1.249 . S
O145 U126 2.420 . S
O145 C130 1.202 . S
O146 U126 2.455 1_565 S
O146 C143 1.301 1_565 S
O147 U126 2.449 . S
O147 C143 1.282 . S
H148 C121 0.931 . S
H149 C123 0.929 . S
H150 C124 0.930 . S
H151 C125 0.931 . S
H152 C132 0.932 . S
H153 C133 0.930 . S
H154 C134 0.929 . S
H155 C136 0.930 . S
H156 C138 0.932 . S
H157 C139 0.929 . S
H158 C140 0.928 . S
H159 C142 0.932 . S
C160 C161 1.257 1_655 S
C160 C165 1.485 . S
C160 C170 1.466 . S
C161 C160 1.257 1_455 S
C161 C163 1.339 . S
C161 H188 0.931 . S
C162 C163 1.395 . S
C162 C164 1.320 1_455 S
C163 C161 1.339 . S
C163 C162 1.395 . S
C163 H189 0.929 . S
C164 C162 1.320 1_655 S
C164 C165 1.405 . S
C164 H190 0.930 . S
C165 C160 1.485 . S
C165 C164 1.405 . S
C165 H191 0.931 . S
U166 O167 2.454 . S
U166 O168 2.458 . S
U166 C169 2.984 . S
U166 C170 2.847 . S
U166 C183 2.882 1_655 S
U166 O184 2.441 . S
U166 O185 2.420 1_655 S
U166 O186 2.455 1_655 S
U166 O187 2.449 1_655 S
O167 U166 2.454 . S
O167 C169 1.353 . S
O168 U166 2.458 . S
O168 C169 1.286 . S
C169 U166 2.984 . S
C169 O167 1.353 . S
C169 O168 1.286 . S
C169 C171 1.363 . S
C170 C160 1.466 . S
C170 U166 2.847 . S
C170 O184 1.249 . S
C170 O185 1.202 1_655 S
C171 C169 1.363 . S
C171 C173 1.408 . S
C171 C176 1.342 . S
C172 C173 1.310 . S
C172 C175 1.461 . S
C172 H192 0.932 . S
C173 C171 1.408 . S
C173 C172 1.310 . S
C173 H193 0.930 . S
C174 C175 1.474 . S
C174 C176 1.285 . S
C174 H194 0.929 . S
C175 C172 1.461 . S
C175 C174 1.474 . S
C176 C171 1.342 . S
C176 C174 1.285 . S
C176 H195 0.930 . S
C177 C180 1.424 . S
C177 C182 1.245 . S
C177 C183 1.428 . S
C178 C181 1.260 . S
C178 C182 1.477 . S
C178 H196 0.932 . S
C179 C180 1.384 . S
C179 C181 1.479 . S
C179 H197 0.929 . S
C180 C177 1.424 . S
C180 C179 1.384 . S
C180 H198 0.928 . S
C181 C178 1.260 . S
C181 C179 1.479 . S
C182 C177 1.245 . S
C182 C178 1.477 . S
C182 H199 0.932 . S
C183 U166 2.882 1_455 S
C183 C177 1.428 . S
C183 O186 1.301 . S
C183 O187 1.282 . S
O184 U166 2.441 . S
O184 C170 1.249 . S
O185 U166 2.420 1_455 S
O185 C170 1.202 1_455 S
O186 U166 2.455 1_455 S
O186 C183 1.301 . S
O187 U166 2.449 1_455 S
O187 C183 1.282 . S
H188 C161 0.931 . S
H189 C163 0.929 . S
H190 C164 0.930 . S
H191 C165 0.931 . S
H192 C172 0.932 . S
H193 C173 0.930 . S
H194 C174 0.929 . S
H195 C176 0.930 . S
H196 C178 0.932 . S
H197 C179 0.929 . S
H198 C180 0.928 . S
H199 C182 0.932 . S
C200 C201 1.264 . S
C200 C205 1.479 . S
C200 C210 1.465 . S
C201 C200 1.264 . S
C201 C203 1.339 . S
C201 H228 0.931 . S
C202 C203 1.395 . S
C202 C204 1.320 . S
C203 C201 1.339 . S
C203 C202 1.395 . S
C203 H229 0.929 . S
C204 C202 1.320 . S
C204 C205 1.405 . S
C204 H230 0.930 . S
C205 C200 1.479 . S
C205 C204 1.405 . S
C205 H231 0.931 . S
U206 O207 2.454 . S
U206 O208 2.458 . S
U206 C209 2.984 . S
U206 C210 2.847 . S
U206 C223 2.882 . S
U206 O224 2.441 . S
U206 O225 2.420 . S
U206 O226 2.455 . S
U206 O227 2.449 . S
O207 U206 2.454 . S
O207 C209 1.353 . S
O208 U206 2.458 . S
O208 C209 1.286 . S
C209 U206 2.984 . S
C209 O207 1.353 . S
C209 O208 1.286 . S
C209 C211 1.363 . S
C210 C200 1.465 . S
C210 U206 2.847 . S
C210 O224 1.249 . S
C210 O225 1.202 . S
C211 C209 1.363 . S
C211 C213 1.408 . S
C211 C216 1.342 . S
C212 C213 1.310 . S
C212 C215 1.461 . S
C212 H232 0.932 . S
C213 C211 1.408 . S
C213 C212 1.310 . S
C213 H233 0.930 . S
C214 C215 1.474 . S
C214 C216 1.285 . S
C214 H234 0.929 . S
C215 C212 1.461 . S
C215 C214 1.474 . S
C216 C211 1.342 . S
C216 C214 1.285 . S
C216 H235 0.930 . S
C217 C220 1.424 . S
C217 C222 1.245 . S
C217 C223 1.428 . S
C218 C221 1.260 . S
C218 C222 1.477 . S
C218 H236 0.932 . S
C219 C220 1.384 . S
C219 C221 1.479 . S
C219 H237 0.929 . S
C220 C217 1.424 . S
C220 C219 1.384 . S
C220 H238 0.928 . S
C221 C218 1.260 . S
C221 C219 1.479 . S
C222 C217 1.245 . S
C222 C218 1.477 . S
C222 H239 0.932 . S
C223 U206 2.882 . S
C223 C217 1.428 . S
C223 O226 1.301 . S
C223 O227 1.282 . S
O224 U206 2.441 . S
O224 C210 1.249 . S
O225 U206 2.420 . S
O225 C210 1.202 . S
O226 U206 2.455 . S
O226 C223 1.301 . S
O227 U206 2.449 . S
O227 C223 1.282 . S
H228 C201 0.931 . S
H229 C203 0.929 . S
H230 C204 0.930 . S
H231 C205 0.931 . S
H232 C212 0.932 . S
H233 C213 0.930 . S
H234 C214 0.929 . S
H235 C216 0.930 . S
H236 C218 0.932 . S
H237 C219 0.929 . S
H238 C220 0.928 . S
H239 C222 0.932 . S
C240 C241 1.264 . S
C240 C245 1.479 . S
C240 C250 1.465 . S
C241 C240 1.264 . S
C241 C243 1.339 . S
C241 H268 0.931 . S
C242 C243 1.395 . S
C242 C244 1.320 . S
C243 C241 1.339 . S
C243 C242 1.395 . S
C243 H269 0.929 . S
C244 C242 1.320 . S
C244 C245 1.405 . S
C244 H270 0.930 . S
C245 C240 1.479 . S
C245 C244 1.405 . S
C245 H271 0.931 . S
U246 O247 2.454 . S
U246 O248 2.458 . S
U246 C249 2.984 . S
U246 C250 2.847 . S
U246 C263 2.882 . S
U246 O264 2.441 . S
U246 O265 2.420 . S
U246 O266 2.455 . S
U246 O267 2.449 . S
O247 U246 2.454 . S
O247 C249 1.353 . S
O248 U246 2.458 . S
O248 C249 1.286 . S
C249 U246 2.984 . S
C249 O247 1.353 . S
C249 O248 1.286 . S
C249 C251 1.363 . S
C250 C240 1.465 . S
C250 U246 2.847 . S
C250 O264 1.249 . S
C250 O265 1.202 . S
C251 C249 1.363 . S
C251 C253 1.408 . S
C251 C256 1.342 . S
C252 C253 1.310 . S
C252 C255 1.461 . S
C252 H272 0.932 . S
C253 C251 1.408 . S
C253 C252 1.310 . S
C253 H273 0.930 . S
C254 C255 1.474 . S
C254 C256 1.285 . S
C254 H274 0.929 . S
C255 C252 1.461 . S
C255 C254 1.474 . S
C256 C251 1.342 . S
C256 C254 1.285 . S
C256 H275 0.930 . S
C257 C260 1.424 . S
C257 C262 1.245 . S
C257 C263 1.428 . S
C258 C261 1.260 . S
C258 C262 1.477 . S
C258 H276 0.932 . S
C259 C260 1.384 . S
C259 C261 1.479 . S
C259 H277 0.929 . S
C260 C257 1.424 . S
C260 C259 1.384 . S
C260 H278 0.928 . S
C261 C258 1.260 . S
C261 C259 1.479 . S
C262 C257 1.245 . S
C262 C258 1.477 . S
C262 H279 0.932 . S
C263 U246 2.882 . S
C263 C257 1.428 . S
C263 O266 1.301 . S
C263 O267 1.282 . S
O264 U246 2.441 . S
O264 C250 1.249 . S
O265 U246 2.420 . S
O265 C250 1.202 . S
O266 U246 2.455 . S
O266 C263 1.301 . S
O267 U246 2.449 . S
O267 C263 1.282 . S
H268 C241 0.931 . S
H269 C243 0.929 . S
H270 C244 0.930 . S
H271 C245 0.931 . S
H272 C252 0.932 . S
H273 C253 0.930 . S
H274 C254 0.929 . S
H275 C256 0.930 . S
H276 C258 0.932 . S
H277 C259 0.929 . S
H278 C260 0.928 . S
H279 C262 0.932 . S
C280 C281 1.264 . S
C280 C285 1.479 . S
C280 C290 1.465 . S
C281 C280 1.264 . S
C281 C283 1.339 . S
C281 H308 0.911 1_545 S
C282 C283 1.395 . S
C282 C284 1.320 . S
C283 C281 1.339 . S
C283 C282 1.395 . S
C283 H309 0.929 1_545 S
C284 C282 1.320 . S
C284 C285 1.405 . S
C284 H310 0.930 . S
C285 C280 1.479 . S
C285 C284 1.405 . S
C285 H311 0.931 . S
U286 O287 2.454 . S
U286 O288 2.458 . S
U286 C289 2.984 . S
U286 C290 2.847 . S
U286 C303 2.882 1_545 S
U286 O304 2.441 . S
U286 O305 2.420 . S
U286 O306 2.455 . S
U286 O307 2.449 1_545 S
O287 U286 2.454 . S
O287 C289 1.353 . S
O288 U286 2.458 . S
O288 C289 1.286 . S
C289 U286 2.984 . S
C289 O287 1.353 . S
C289 O288 1.286 . S
C289 C291 1.363 . S
C290 C280 1.465 . S
C290 U286 2.847 . S
C290 O304 1.249 . S
C290 O305 1.202 . S
C291 C289 1.363 . S
C291 C293 1.408 . S
C291 C296 1.342 . S
C292 C293 1.310 . S
C292 C295 1.461 . S
C292 H312 0.932 . S
C293 C291 1.408 . S
C293 C292 1.310 . S
C293 H313 0.930 . S
C294 C295 1.474 . S
C294 C296 1.285 . S
C294 H314 0.929 . S
C295 C292 1.461 . S
C295 C294 1.474 . S
C296 C291 1.342 . S
C296 C294 1.285 . S
C296 H315 0.930 . S
C297 C300 1.424 . S
C297 C302 1.245 . S
C297 C303 1.428 . S
C298 C301 1.260 . S
C298 C302 1.477 . S
C298 H316 0.932 . S
C299 C300 1.384 . S
C299 C301 1.479 . S
C299 H317 0.929 . S
C300 C297 1.424 . S
C300 C299 1.384 . S
C300 H318 0.928 . S
C301 C298 1.260 . S
C301 C299 1.479 . S
C302 C297 1.245 . S
C302 C298 1.477 . S
C302 H319 0.932 . S
C303 U286 2.882 1_565 S
C303 C297 1.428 . S
C303 O306 1.301 1_565 S
C303 O307 1.282 . S
O304 U286 2.441 . S
O304 C290 1.249 . S
O305 U286 2.420 . S
O305 C290 1.202 . S
O306 U286 2.455 . S
O306 C303 1.301 1_545 S
O307 U286 2.449 1_565 S
O307 C303 1.282 . S
H308 C281 0.911 1_565 S
H309 C283 0.929 1_565 S
H310 C284 0.930 . S
H311 C285 0.931 . S
H312 C292 0.932 . S
H313 C293 0.930 . S
H314 C294 0.929 . S
H315 C296 0.930 . S
H316 C298 0.932 . S
H317 C299 0.929 . S
H318 C300 0.928 . S
H319 C302 0.932 . S
C320 C321 1.264 . S
C320 C325 1.479 . S
C320 C330 1.465 . S
C321 C320 1.264 . S
C321 C323 1.339 . S
C321 H348 0.931 . S
C322 C323 1.395 . S
C322 C324 1.320 . S
C323 C321 1.339 . S
C323 C322 1.395 . S
C323 H349 0.929 . S
C324 C322 1.320 . S
C324 C325 1.405 . S
C324 H350 0.930 . S
C325 C320 1.479 . S
C325 C324 1.405 . S
C325 H351 0.931 . S
U326 O327 2.494 . S
U326 O328 2.519 . S
U326 C329 3.040 . S
U326 C330 2.799 1_554 S
U326 C343 2.880 1_554 S
U326 O344 2.412 1_554 S
U326 O345 2.360 1_554 S
U326 O346 2.478 . S
U326 O347 2.419 1_554 S
O327 U326 2.494 . S
O327 C329 1.353 . S
O328 U326 2.519 . S
O328 C329 1.286 . S
C329 U326 3.040 . S
C329 O327 1.353 . S
C329 O328 1.286 . S
C329 C331 1.363 . S
C330 C320 1.465 . S
C330 U326 2.799 1_556 S
C330 O344 1.249 . S
C330 O345 1.202 . S
C331 C329 1.363 . S
C331 C333 1.408 . S
C331 C336 1.342 . S
C332 C333 1.310 . S
C332 C335 1.461 . S
C332 H352 0.932 . S
C333 C331 1.408 . S
C333 C332 1.310 . S
C333 H353 0.930 . S
C334 C335 1.474 . S
C334 C336 1.285 . S
C334 H354 0.929 . S
C335 C332 1.461 . S
C335 C334 1.474 . S
C336 C331 1.342 . S
C336 C334 1.285 . S
C336 H355 0.930 . S
C337 C340 1.417 1_554 S
C337 C342 1.253 . S
C337 C343 1.425 1_554 S
C338 C341 1.260 . S
C338 C342 1.477 . S
C338 H356 0.932 . S
C339 C340 1.384 . S
C339 C341 1.479 1_556 S
C339 H357 0.929 . S
C340 C337 1.417 1_556 S
C340 C339 1.384 . S
C340 H358 0.928 . S
C341 C338 1.260 . S
C341 C339 1.479 1_554 S
C342 C337 1.253 . S
C342 C338 1.477 . S
C342 H359 0.932 . S
C343 U326 2.880 1_556 S
C343 C337 1.425 1_556 S
C343 O346 1.262 1_556 S
C343 O347 1.325 . S
O344 U326 2.412 1_556 S
O344 C330 1.249 . S
O345 U326 2.360 1_556 S
O345 C330 1.202 . S
O346 U326 2.478 . S
O346 C343 1.262 1_554 S
O347 U326 2.419 1_556 S
O347 C343 1.325 . S
H348 C321 0.931 . S
H349 C323 0.929 . S
H350 C324 0.930 . S
H351 C325 0.931 . S
H352 C332 0.932 . S
H353 C333 0.930 . S
H354 C334 0.929 . S
H355 C336 0.930 . S
H356 C338 0.932 . S
H357 C339 0.929 . S
H358 C340 0.928 . S
H359 C342 0.932 . S
C360 C361 1.264 . S
C360 C365 1.479 . S
C360 C370 1.465 . S
C361 C360 1.264 . S
C361 C363 1.339 . S
C361 H388 0.931 . S
C362 C363 1.395 . S
C362 C364 1.320 . S
C363 C361 1.339 . S
C363 C362 1.395 . S
C363 H389 0.929 . S
C364 C362 1.320 . S
C364 C365 1.405 . S
C364 H390 0.930 . S
C365 C360 1.479 . S
C365 C364 1.405 . S
C365 H391 0.931 . S
U366 O367 2.454 . S
U366 O368 2.458 . S
U366 C369 2.984 . S
U366 C370 2.847 . S
U366 C383 2.882 . S
U366 O384 2.441 . S
U366 O385 2.420 . S
U366 O386 2.455 . S
U366 O387 2.449 . S
O367 U366 2.454 . S
O367 C369 1.353 . S
O368 U366 2.458 . S
O368 C369 1.286 . S
C369 U366 2.984 . S
C369 O367 1.353 . S
C369 O368 1.286 . S
C369 C371 1.363 . S
C370 C360 1.465 . S
C370 U366 2.847 . S
C370 O384 1.249 . S
C370 O385 1.202 . S
C371 C369 1.363 . S
C371 C373 1.408 . S
C371 C376 1.342 . S
C372 C373 1.310 . S
C372 C375 1.461 . S
C372 H392 0.932 . S
C373 C371 1.408 . S
C373 C372 1.310 . S
C373 H393 0.930 . S
C374 C375 1.474 . S
C374 C376 1.285 . S
C374 H394 0.929 . S
C375 C372 1.461 . S
C375 C374 1.474 . S
C376 C371 1.342 . S
C376 C374 1.285 . S
C376 H395 0.930 . S
C377 C380 1.424 . S
C377 C382 1.245 . S
C377 C383 1.428 . S
C378 C381 1.260 . S
C378 C382 1.477 . S
C378 H396 0.932 . S
C379 C380 1.384 . S
C379 C381 1.479 . S
C379 H397 0.929 . S
C380 C377 1.424 . S
C380 C379 1.384 . S
C380 H398 0.928 . S
C381 C378 1.260 . S
C381 C379 1.479 . S
C382 C377 1.245 . S
C382 C378 1.477 . S
C382 H399 0.932 . S
C383 U366 2.882 . S
C383 C377 1.428 . S
C383 O386 1.301 . S
C383 O387 1.282 . S
O384 U366 2.441 . S
O384 C370 1.249 . S
O385 U366 2.420 . S
O385 C370 1.202 . S
O386 U366 2.455 . S
O386 C383 1.301 . S
O387 U366 2.449 . S
O387 C383 1.282 . S
H388 C361 0.931 . S
H389 C363 0.929 . S
H390 C364 0.930 . S
H391 C365 0.931 . S
H392 C372 0.932 . S
H393 C373 0.930 . S
H394 C374 0.929 . S
H395 C376 0.930 . S
H396 C378 0.932 . S
H397 C379 0.929 . S
H398 C380 0.928 . S
H399 C382 0.932 . S
C400 C401 1.264 . S
C400 C405 1.479 . S
C400 C410 1.465 . S
C401 C400 1.264 . S
C401 C403 1.339 . S
C401 H428 0.931 . S
C402 C403 1.395 . S
C402 C404 1.320 . S
C403 C401 1.339 . S
C403 C402 1.395 . S
C403 H429 0.929 . S
C404 C402 1.320 . S
C404 C405 1.405 . S
C404 H430 0.930 . S
C405 C400 1.479 . S
C405 C404 1.405 . S
C405 H431 0.931 . S
U406 O407 2.454 . S
U406 O408 2.458 . S
U406 C409 2.984 . S
U406 C410 2.847 . S
U406 C423 2.882 . S
U406 O424 2.441 . S
U406 O425 2.420 . S
U406 O426 2.455 . S
U406 O427 2.449 . S
O407 U406 2.454 . S
O407 C409 1.353 . S
O408 U406 2.458 . S
O408 C409 1.286 . S
C409 U406 2.984 . S
C409 O407 1.353 . S
C409 O408 1.286 . S
C409 C411 1.363 . S
C410 C400 1.465 . S
C410 U406 2.847 . S
C410 O424 1.249 . S
C410 O425 1.202 . S
C411 C409 1.363 . S
C411 C413 1.408 . S
C411 C416 1.342 . S
C412 C413 1.310 . S
C412 C415 1.461 . S
C412 H432 0.932 . S
C413 C411 1.408 . S
C413 C412 1.310 . S
C413 H433 0.930 . S
C414 C415 1.474 . S
C414 C416 1.285 . S
C414 H434 0.929 . S
C415 C412 1.461 . S
C415 C414 1.474 . S
C416 C411 1.342 . S
C416 C414 1.285 . S
C416 H435 0.930 . S
C417 C420 1.424 . S
C417 C422 1.245 . S
C417 C423 1.428 . S
C418 C421 1.260 . S
C418 C422 1.477 . S
C418 H436 0.932 . S
C419 C420 1.384 . S
C419 C421 1.479 . S
C419 H437 0.929 . S
C420 C417 1.424 . S
C420 C419 1.384 . S
C420 H438 0.928 . S
C421 C418 1.260 . S
C421 C419 1.479 . S
C422 C417 1.245 . S
C422 C418 1.477 . S
C422 H439 0.932 . S
C423 U406 2.882 . S
C423 C417 1.428 . S
C423 O426 1.301 . S
C423 O427 1.282 . S
O424 U406 2.441 . S
O424 C410 1.249 . S
O425 U406 2.420 . S
O425 C410 1.202 . S
O426 U406 2.455 . S
O426 C423 1.301 . S
O427 U406 2.449 . S
O427 C423 1.282 . S
H428 C401 0.931 . S
H429 C403 0.929 . S
H430 C404 0.930 . S
H431 C405 0.931 . S
H432 C412 0.932 . S
H433 C413 0.930 . S
H434 C414 0.929 . S
H435 C416 0.930 . S
H436 C418 0.932 . S
H437 C419 0.929 . S
H438 C420 0.928 . S
H439 C422 0.932 . S
C440 C441 1.246 1_554 S
C440 C445 1.479 . S
C440 C450 1.465 . S
C441 C440 1.246 1_556 S
C441 C443 1.342 . S
C441 H468 0.946 . S
C442 C443 1.395 1_554 S
C442 C444 1.320 . S
C443 C441 1.342 . S
C443 C442 1.395 1_556 S
C443 H469 0.929 . S
C444 C442 1.320 . S
C444 C445 1.405 . S
C444 H470 0.930 . S
C445 C440 1.479 . S
C445 C444 1.405 . S
C445 H471 0.931 . S
U446 O447 2.454 . S
U446 O448 2.458 . S
U446 C449 2.984 . S
U446 C450 2.847 . S
U446 C463 2.882 1_554 S
U446 O464 2.441 . S
U446 O465 2.420 . S
U446 O466 2.458 1_554 S
U446 O467 2.449 1_554 S
O447 U446 2.454 . S
O447 C449 1.353 . S
O448 U446 2.458 . S
O448 C449 1.286 . S
C449 U446 2.984 . S
C449 O447 1.353 . S
C449 O448 1.286 . S
C449 C451 1.363 . S
C450 C440 1.465 . S
C450 U446 2.847 . S
C450 O464 1.249 . S
C450 O465 1.202 . S
C451 C449 1.363 . S
C451 C453 1.408 . S
C451 C456 1.342 . S
C452 C453 1.310 . S
C452 C455 1.461 . S
C452 H472 0.932 . S
C453 C451 1.408 . S
C453 C452 1.310 . S
C453 H473 0.930 . S
C454 C455 1.474 . S
C454 C456 1.285 . S
C454 H474 0.929 . S
C455 C452 1.461 . S
C455 C454 1.474 . S
C456 C451 1.342 . S
C456 C454 1.285 . S
C456 H475 0.930 . S
C457 C460 1.424 . S
C457 C462 1.245 . S
C457 C463 1.428 . S
C458 C461 1.260 . S
C458 C462 1.477 . S
C458 H476 0.932 . S
C459 C460 1.384 . S
C459 C461 1.479 . S
C459 H477 0.929 . S
C460 C457 1.424 . S
C460 C459 1.384 . S
C460 H478 0.928 . S
C461 C458 1.260 . S
C461 C459 1.479 . S
C462 C457 1.245 . S
C462 C458 1.477 . S
C462 H479 0.932 . S
C463 U446 2.882 1_556 S
C463 C457 1.428 . S
C463 O466 1.296 . S
C463 O467 1.282 . S
O464 U446 2.441 . S
O464 C450 1.249 . S
O465 U446 2.420 . S
O465 C450 1.202 . S
O466 U446 2.458 1_556 S
O466 C463 1.296 . S
O467 U446 2.449 1_556 S
O467 C463 1.282 . S
H468 C441 0.946 . S
H469 C443 0.929 . S
H470 C444 0.930 . S
H471 C445 0.931 . S
H472 C452 0.932 . S
H473 C453 0.930 . S
H474 C454 0.929 . S
H475 C456 0.930 . S
H476 C458 0.932 . S
H477 C459 0.929 . S
H478 C460 0.928 . S
H479 C462 0.932 . S
C480 C481 1.264 . S
C480 C485 1.531 . S
C480 C490 1.465 . S
C481 C480 1.264 . S
C481 C483 1.339 . S
C481 H508 0.931 . S
C482 C483 1.395 . S
C482 C484 1.343 . S
C483 C481 1.339 . S
C483 C482 1.395 . S
C483 H509 0.929 . S
C484 C482 1.343 . S
C484 C485 1.404 . S
C484 H510 0.907 1_455 S
C485 C480 1.531 . S
C485 C484 1.404 . S
C485 H511 0.886 1_455 S
U486 O487 2.454 1_455 S
U486 O488 2.458 1_455 S
U486 C489 2.984 1_455 S
U486 C490 2.847 . S
U486 C503 2.882 . S
U486 O504 2.441 . S
U486 O505 2.420 . S
U486 O506 2.455 . S
U486 O507 2.449 . S
O487 U486 2.454 1_655 S
O487 C489 1.353 . S
O488 U486 2.458 1_655 S
O488 C489 1.286 . S
C489 U486 2.984 1_655 S
C489 O487 1.353 . S
C489 O488 1.286 . S
C489 C491 1.363 . S
C490 C480 1.465 . S
C490 U486 2.847 . S
C490 O504 1.249 . S
C490 O505 1.202 . S
C491 C489 1.363 . S
C491 C493 1.408 . S
C491 C496 1.342 . S
C492 C493 1.310 . S
C492 C495 1.461 . S
C492 H512 0.932 . S
C493 C491 1.408 . S
C493 C492 1.310 . S
C493 H513 0.930 . S
C494 C495 1.474 . S
C494 C496 1.285 . S
C494 H514 0.929 . S
C495 C492 1.461 . S
C495 C494 1.474 . S
C496 C491 1.342 . S
C496 C494 1.285 . S
C496 H515 0.930 . S
C497 C500 1.424 . S
C497 C502 1.245 . S
C497 C503 1.428 . S
C498 C501 1.260 . S
C498 C502 1.477 . S
C498 H516 0.932 . S
C499 C500 1.384 . S
C499 C501 1.479 . S
C499 H517 0.929 . S
C500 C497 1.424 . S
C500 C499 1.384 . S
C500 H518 0.928 . S
C501 C498 1.260 . S
C501 C499 1.479 . S
C502 C497 1.245 . S
C502 C498 1.477 . S
C502 H519 0.932 . S
C503 U486 2.882 . S
C503 C497 1.428 . S
C503 O506 1.301 . S
C503 O507 1.282 . S
O504 U486 2.441 . S
O504 C490 1.249 . S
O505 U486 2.420 . S
O505 C490 1.202 . S
O506 U486 2.455 . S
O506 C503 1.301 . S
O507 U486 2.449 . S
O507 C503 1.282 . S
H508 C481 0.931 . S
H509 C483 0.929 . S
H510 C484 0.907 1_655 S
H511 C485 0.886 1_655 S
H512 C492 0.932 . S
H513 C493 0.930 . S
H514 C494 0.929 . S
H515 C496 0.930 . S
H516 C498 0.932 . S
H517 C499 0.929 . S
H518 C500 0.928 . S
H519 C502 0.932 . S
C520 C521 1.264 . S
C520 C525 1.479 . S
C520 C530 1.465 . S
C521 C520 1.264 . S
C521 C523 1.339 . S
C521 H548 0.931 . S
C522 C523 1.395 . S
C522 C524 1.320 . S
C523 C521 1.339 . S
C523 C522 1.395 . S
C523 H549 0.929 . S
C524 C522 1.320 . S
C524 C525 1.405 . S
C524 H550 0.930 . S
C525 C520 1.479 . S
C525 C524 1.405 . S
C525 H551 0.931 . S
U526 O527 2.454 . S
U526 O528 2.458 . S
U526 C529 2.984 . S
U526 C530 2.847 . S
U526 C543 2.882 . S
U526 O544 2.441 . S
U526 O545 2.420 . S
U526 O546 2.455 . S
U526 O547 2.449 . S
O527 U526 2.454 . S
O527 C529 1.353 . S
O528 U526 2.458 . S
O528 C529 1.286 . S
C529 U526 2.984 . S
C529 O527 1.353 . S
C529 O528 1.286 . S
C529 C531 1.363 . S
C530 C520 1.465 . S
C530 U526 2.847 . S
C530 O544 1.249 . S
C530 O545 1.202 . S
C531 C529 1.363 . S
C531 C533 1.408 . S
C531 C536 1.342 . S
C532 C533 1.310 . S
C532 C535 1.461 . S
C532 H552 0.932 . S
C533 C531 1.408 . S
C533 C532 1.310 . S
C533 H553 0.930 . S
C534 C535 1.474 . S
C534 C536 1.285 . S
C534 H554 0.929 . S
C535 C532 1.461 . S
C535 C534 1.474 . S
C536 C531 1.342 . S
C536 C534 1.285 . S
C536 H555 0.930 . S
C537 C540 1.424 . S
C537 C542 1.245 . S
C537 C543 1.428 . S
C538 C541 1.260 . S
C538 C542 1.477 . S
C538 H556 0.932 . S
C539 C540 1.384 . S
C539 C541 1.479 . S
C539 H557 0.929 . S
C540 C537 1.424 . S
C540 C539 1.384 . S
C540 H558 0.928 . S
C541 C538 1.260 . S
C541 C539 1.479 . S
C542 C537 1.245 . S
C542 C538 1.477 . S
C542 H559 0.932 . S
C543 U526 2.882 . S
C543 C537 1.428 . S
C543 O546 1.301 . S
C543 O547 1.282 . S
O544 U526 2.441 . S
O544 C530 1.249 . S
O545 U526 2.420 . S
O545 C530 1.202 . S
O546 U526 2.455 . S
O546 C543 1.301 . S
O547 U526 2.449 . S
O547 C543 1.282 . S
H548 C521 0.931 . S
H549 C523 0.929 . S
H550 C524 0.930 . S
H551 C525 0.931 . S
H552 C532 0.932 . S
H553 C533 0.930 . S
H554 C534 0.929 . S
H555 C536 0.930 . S
H556 C538 0.932 . S
H557 C539 0.929 . S
H558 C540 0.928 . S
H559 C542 0.932 . S
C560 C561 1.264 . S
C560 C565 1.479 . S
C560 C570 1.465 . S
C561 C560 1.264 . S
C561 C563 1.339 . S
C561 H588 0.931 . S
C562 C563 1.395 . S
C562 C564 1.320 . S
C563 C561 1.339 . S
C563 C562 1.395 . S
C563 H589 0.929 . S
C564 C562 1.320 . S
C564 C565 1.405 . S
C564 H590 0.930 . S
C565 C560 1.479 . S
C565 C564 1.405 . S
C565 H591 0.931 . S
U566 O567 2.454 . S
U566 O568 2.458 . S
U566 C569 2.984 . S
U566 C570 2.847 . S
U566 C583 2.882 . S
U566 O584 2.441 . S
U566 O585 2.420 . S
U566 O586 2.455 . S
U566 O587 2.449 . S
O567 U566 2.454 . S
O567 C569 1.353 . S
O568 U566 2.458 . S
O568 C569 1.286 . S
C569 U566 2.984 . S
C569 O567 1.353 . S
C569 O568 1.286 . S
C569 C571 1.363 . S
C570 C560 1.465 . S
C570 U566 2.847 . S
C570 O584 1.249 . S
C570 O585 1.202 . S
C571 C569 1.363 . S
C571 C573 1.408 . S
C571 C576 1.342 . S
C572 C573 1.310 . S
C572 C575 1.461 . S
C572 H592 0.932 . S
C573 C571 1.408 . S
C573 C572 1.310 . S
C573 H593 0.930 . S
C574 C575 1.474 . S
C574 C576 1.285 . S
C574 H594 0.929 . S
C575 C572 1.461 . S
C575 C574 1.474 . S
C576 C571 1.342 . S
C576 C574 1.285 . S
C576 H595 0.930 . S
C577 C580 1.424 . S
C577 C582 1.245 . S
C577 C583 1.428 . S
C578 C581 1.260 . S
C578 C582 1.477 . S
C578 H596 0.932 . S
C579 C580 1.384 . S
C579 C581 1.479 . S
C579 H597 0.929 . S
C580 C577 1.424 . S
C580 C579 1.384 . S
C580 H598 0.928 . S
C581 C578 1.260 . S
C581 C579 1.479 . S
C582 C577 1.245 . S
C582 C578 1.477 . S
C582 H599 0.932 . S
C583 U566 2.882 . S
C583 C577 1.428 . S
C583 O586 1.301 . S
C583 O587 1.282 . S
O584 U566 2.441 . S
O584 C570 1.249 . S
O585 U566 2.420 . S
O585 C570 1.202 . S
O586 U566 2.455 . S
O586 C583 1.301 . S
O587 U566 2.449 . S
O587 C583 1.282 . S
H588 C561 0.931 . S
H589 C563 0.929 . S
H590 C564 0.930 . S
H591 C565 0.931 . S
H592 C572 0.932 . S
H593 C573 0.930 . S
H594 C574 0.929 . S
H595 C576 0.930 . S
H596 C578 0.932 . S
H597 C579 0.929 . S
H598 C580 0.928 . S
H599 C582 0.932 . S
C600 C601 1.264 . S
C600 C605 1.479 1_545 S
C600 C610 1.465 . S
C601 C600 1.264 . S
C601 C603 1.339 . S
C601 H628 0.931 . S
C602 C603 1.395 . S
C602 C604 1.320 1_545 S
C603 C601 1.339 . S
C603 C602 1.395 . S
C603 H629 0.929 . S
C604 C602 1.320 1_565 S
C604 C605 1.405 . S
C604 H630 0.930 . S
C605 C600 1.479 1_565 S
C605 C604 1.405 . S
C605 H631 0.931 . S
U606 O607 2.454 1_545 S
U606 O608 2.458 1_545 S
U606 C609 2.984 1_545 S
U606 C610 2.847 . S
U606 C623 2.882 . S
U606 O624 2.441 1_545 S
U606 O625 2.420 . S
U606 O626 2.455 . S
U606 O627 2.449 . S
O607 U606 2.454 1_565 S
O607 C609 1.353 . S
O608 U606 2.458 1_565 S
O608 C609 1.286 . S
C609 U606 2.984 1_565 S
C609 O607 1.353 . S
C609 O608 1.286 . S
C609 C611 1.363 . S
C610 C600 1.465 . S
C610 U606 2.847 . S
C610 O624 1.249 1_545 S
C610 O625 1.202 . S
C611 C609 1.363 . S
C611 C613 1.408 . S
C611 C616 1.342 . S
C612 C613 1.310 . S
C612 C615 1.461 . S
C612 H632 0.932 . S
C613 C611 1.408 . S
C613 C612 1.310 . S
C613 H633 0.930 . S
C614 C615 1.474 . S
C614 C616 1.285 . S
C614 H634 0.929 . S
C615 C612 1.461 . S
C615 C614 1.474 . S
C616 C611 1.342 . S
C616 C614 1.285 . S
C616 H635 0.930 . S
C617 C620 1.424 . S
C617 C622 1.245 . S
C617 C623 1.428 . S
C618 C621 1.260 . S
C618 C622 1.477 . S
C618 H636 0.932 . S
C619 C620 1.384 . S
C619 C621 1.479 . S
C619 H637 0.929 . S
C620 C617 1.424 . S
C620 C619 1.384 . S
C620 H638 0.928 . S
C621 C618 1.260 . S
C621 C619 1.479 . S
C622 C617 1.245 . S
C622 C618 1.477 . S
C622 H639 0.932 . S
C623 U606 2.882 . S
C623 C617 1.428 . S
C623 O626 1.301 . S
C623 O627 1.282 . S
O624 U606 2.441 1_565 S
O624 C610 1.249 1_565 S
O625 U606 2.420 . S
O625 C610 1.202 . S
O626 U606 2.455 . S
O626 C623 1.301 . S
O627 U606 2.449 . S
O627 C623 1.282 . S
H628 C601 0.931 . S
H629 C603 0.929 . S
H630 C604 0.930 . S
H631 C605 0.931 . S
H632 C612 0.932 . S
H633 C613 0.930 . S
H634 C614 0.929 . S
H635 C616 0.930 . S
H636 C618 0.932 . S
H637 C619 0.929 . S
H638 C620 0.928 . S
H639 C622 0.932 . S
C640 C641 1.264 . S
C640 C645 1.523 . S
C640 C650 1.465 . S
C641 C640 1.264 . S
C641 C643 1.339 . S
C641 H668 0.931 . S
C642 C643 1.395 . S
C642 C644 1.336 . S
C643 C641 1.339 . S
C643 C642 1.395 . S
C643 H669 0.929 . S
C644 C642 1.336 . S
C644 C645 1.404 . S
C644 H670 0.913 1_455 S
C645 C640 1.523 . S
C645 C644 1.404 . S
C645 H671 0.893 1_455 S
U646 O647 2.454 1_455 S
U646 O648 2.458 1_455 S
U646 C649 2.984 1_455 S
U646 C650 2.847 . S
U646 C663 2.882 . S
U646 O664 2.441 . S
U646 O665 2.420 . S
U646 O666 2.455 . S
U646 O667 2.449 . S
O647 U646 2.454 1_655 S
O647 C649 1.353 . S
O648 U646 2.458 1_655 S
O648 C649 1.286 . S
C649 U646 2.984 1_655 S
C649 O647 1.353 . S
C649 O648 1.286 . S
C649 C651 1.363 . S
C650 C640 1.465 . S
C650 U646 2.847 . S
C650 O664 1.249 . S
C650 O665 1.202 . S
C651 C649 1.363 . S
C651 C653 1.408 . S
C651 C656 1.342 . S
C652 C653 1.310 . S
C652 C655 1.461 . S
C652 H672 0.932 . S
C653 C651 1.408 . S
C653 C652 1.310 . S
C653 H673 0.930 . S
C654 C655 1.474 . S
C654 C656 1.285 . S
C654 H674 0.929 . S
C655 C652 1.461 . S
C655 C654 1.474 . S
C656 C651 1.342 . S
C656 C654 1.285 . S
C656 H675 0.930 . S
C657 C660 1.424 . S
C657 C662 1.245 . S
C657 C663 1.428 . S
C658 C661 1.260 . S
C658 C662 1.477 . S
C658 H676 0.932 . S
C659 C660 1.384 . S
C659 C661 1.479 . S
C659 H677 0.929 . S
C660 C657 1.424 . S
C660 C659 1.384 . S
C660 H678 0.928 . S
C661 C658 1.260 . S
C661 C659 1.479 . S
C662 C657 1.245 . S
C662 C658 1.477 . S
C662 H679 0.932 . S
C663 U646 2.882 . S
C663 C657 1.428 . S
C663 O666 1.301 . S
C663 O667 1.282 . S
O664 U646 2.441 . S
O664 C650 1.249 . S
O665 U646 2.420 . S
O665 C650 1.202 . S
O666 U646 2.455 . S
O666 C663 1.301 . S
O667 U646 2.449 . S
O667 C663 1.282 . S
H668 C641 0.931 . S
H669 C643 0.929 . S
H670 C644 0.913 1_655 S
H671 C645 0.893 1_655 S
H672 C652 0.932 . S
H673 C653 0.930 . S
H674 C654 0.929 . S
H675 C656 0.930 . S
H676 C658 0.932 . S
H677 C659 0.929 . S
H678 C660 0.928 . S
H679 C662 0.932 . S
C680 C681 1.264 . S
C680 C685 1.479 . S
C680 C690 1.465 . S
C681 C680 1.264 . S
C681 C683 1.339 . S
C681 H708 0.931 . S
C682 C683 1.395 . S
C682 C684 1.320 . S
C683 C681 1.339 . S
C683 C682 1.395 . S
C683 H709 0.929 . S
C684 C682 1.320 . S
C684 C685 1.405 . S
C684 H710 0.930 . S
C685 C680 1.479 . S
C685 C684 1.405 . S
C685 H711 0.931 . S
U686 O687 2.454 . S
U686 O688 2.458 . S
U686 C689 2.984 . S
U686 C690 2.847 . S
U686 C703 2.882 . S
U686 O704 2.441 . S
U686 O705 2.420 . S
U686 O706 2.455 . S
U686 O707 2.449 . S
O687 U686 2.454 . S
O687 C689 1.353 . S
O688 U686 2.458 . S
O688 C689 1.286 . S
C689 U686 2.984 . S
C689 O687 1.353 . S
C689 O688 1.286 . S
C689 C691 1.363 . S
C690 C680 1.465 . S
C690 U686 2.847 . S
C690 O704 1.249 . S
C690 O705 1.202 . S
C691 C689 1.363 . S
C691 C693 1.408 . S
C691 C696 1.342 . S
C692 C693 1.310 . S
C692 C695 1.461 . S
C692 H712 0.932 . S
C693 C691 1.408 . S
C693 C692 1.310 . S
C693 H713 0.930 . S
C694 C695 1.474 . S
C694 C696 1.285 . S
C694 H714 0.929 . S
C695 C692 1.461 . S
C695 C694 1.474 . S
C696 C691 1.342 . S
C696 C694 1.285 . S
C696 H715 0.930 . S
C697 C700 1.424 . S
C697 C702 1.245 . S
C697 C703 1.428 . S
C698 C701 1.260 . S
C698 C702 1.477 . S
C698 H716 0.932 . S
C699 C700 1.384 . S
C699 C701 1.479 . S
C699 H717 0.929 . S
C700 C697 1.424 . S
C700 C699 1.384 . S
C700 H718 0.928 . S
C701 C698 1.260 . S
C701 C699 1.479 . S
C702 C697 1.245 . S
C702 C698 1.477 . S
C702 H719 0.932 . S
C703 U686 2.882 . S
C703 C697 1.428 . S
C703 O706 1.301 . S
C703 O707 1.282 . S
O704 U686 2.441 . S
O704 C690 1.249 . S
O705 U686 2.420 . S
O705 C690 1.202 . S
O706 U686 2.455 . S
O706 C703 1.301 . S
O707 U686 2.449 . S
O707 C703 1.282 . S
H708 C681 0.931 . S
H709 C683 0.929 . S
H710 C684 0.930 . S
H711 C685 0.931 . S
H712 C692 0.932 . S
H713 C693 0.930 . S
H714 C694 0.929 . S
H715 C696 0.930 . S
H716 C698 0.932 . S
H717 C699 0.929 . S
H718 C700 0.928 . S
H719 C702 0.932 . S
C720 C721 1.264 . S
C720 C725 1.479 . S
C720 C730 1.465 . S
C721 C720 1.264 . S
C721 C723 1.339 . S
C721 H748 0.931 . S
C722 C723 1.395 . S
C722 C724 1.320 . S
C723 C721 1.339 . S
C723 C722 1.395 . S
C723 H749 0.929 . S
C724 C722 1.320 . S
C724 C725 1.405 . S
C724 H750 0.930 . S
C725 C720 1.479 . S
C725 C724 1.405 . S
C725 H751 0.931 . S
U726 O727 2.454 . S
U726 O728 2.458 . S
U726 C729 2.984 . S
U726 C730 2.847 . S
U726 C743 2.882 . S
U726 O744 2.441 . S
U726 O745 2.420 . S
U726 O746 2.455 . S
U726 O747 2.449 . S
O727 U726 2.454 . S
O727 C729 1.353 . S
O728 U726 2.458 . S
O728 C729 1.286 . S
C729 U726 2.984 . S
C729 O727 1.353 . S
C729 O728 1.286 . S
C729 C731 1.363 . S
C730 C720 1.465 . S
C730 U726 2.847 . S
C730 O744 1.249 . S
C730 O745 1.202 . S
C731 C729 1.363 . S
C731 C733 1.408 . S
C731 C736 1.342 . S
C732 C733 1.310 . S
C732 C735 1.461 . S
C732 H752 0.932 . S
C733 C731 1.408 . S
C733 C732 1.310 . S
C733 H753 0.930 . S
C734 C735 1.474 . S
C734 C736 1.285 . S
C734 H754 0.929 . S
C735 C732 1.461 . S
C735 C734 1.474 . S
C736 C731 1.342 . S
C736 C734 1.285 . S
C736 H755 0.930 . S
C737 C740 1.424 . S
C737 C742 1.245 . S
C737 C743 1.428 . S
C738 C741 1.260 . S
C738 C742 1.477 . S
C738 H756 0.932 . S
C739 C740 1.384 . S
C739 C741 1.479 . S
C739 H757 0.929 . S
C740 C737 1.424 . S
C740 C739 1.384 . S
C740 H758 0.928 . S
C741 C738 1.260 . S
C741 C739 1.479 . S
C742 C737 1.245 . S
C742 C738 1.477 . S
C742 H759 0.932 . S
C743 U726 2.882 . S
C743 C737 1.428 . S
C743 O746 1.301 . S
C743 O747 1.282 . S
O744 U726 2.441 . S
O744 C730 1.249 . S
O745 U726 2.420 . S
O745 C730 1.202 . S
O746 U726 2.455 . S
O746 C743 1.301 . S
O747 U726 2.449 . S
O747 C743 1.282 . S
H748 C721 0.931 . S
H749 C723 0.929 . S
H750 C724 0.930 . S
H751 C725 0.931 . S
H752 C732 0.932 . S
H753 C733 0.930 . S
H754 C734 0.929 . S
H755 C736 0.930 . S
H756 C738 0.932 . S
H757 C739 0.929 . S
H758 C740 0.928 . S
H759 C742 0.932 . S
C760 C761 1.264 . S
C760 C765 1.479 . S
C760 C770 1.465 . S
C761 C760 1.264 . S
C761 C763 1.339 . S
C761 H788 0.931 . S
C762 C763 1.395 . S
C762 C764 1.320 . S
C763 C761 1.339 . S
C763 C762 1.395 . S
C763 H789 0.929 . S
C764 C762 1.320 . S
C764 C765 1.405 . S
C764 H790 0.930 . S
C765 C760 1.479 . S
C765 C764 1.405 . S
C765 H791 0.931 . S
U766 O767 2.454 . S
U766 O768 2.458 . S
U766 C769 2.984 . S
U766 C770 2.847 1_545 S
U766 C783 2.882 . S
U766 O784 2.441 . S
U766 O785 2.420 1_545 S
U766 O786 2.455 . S
U766 O787 2.449 . S
O767 U766 2.454 . S
O767 C769 1.353 . S
O768 U766 2.458 . S
O768 C769 1.286 . S
C769 U766 2.984 . S
C769 O767 1.353 . S
C769 O768 1.286 . S
C769 C771 1.363 . S
C770 C760 1.465 . S
C770 U766 2.847 1_565 S
C770 O784 1.249 1_565 S
C770 O785 1.202 . S
C771 C769 1.363 . S
C771 C773 1.408 . S
C771 C776 1.342 . S
C772 C773 1.310 . S
C772 C775 1.461 . S
C772 H792 0.932 . S
C773 C771 1.408 . S
C773 C772 1.310 . S
C773 H793 0.930 . S
C774 C775 1.474 . S
C774 C776 1.285 . S
C774 H794 0.929 . S
C775 C772 1.461 . S
C775 C774 1.474 . S
C776 C771 1.342 . S
C776 C774 1.285 . S
C776 H795 0.930 . S
C777 C780 1.424 . S
C777 C782 1.245 . S
C777 C783 1.428 . S
C778 C781 1.260 . S
C778 C782 1.477 . S
C778 H796 0.932 . S
C779 C780 1.384 . S
C779 C781 1.479 . S
C779 H797 0.929 1_545 S
C780 C777 1.424 . S
C780 C779 1.384 . S
C780 H798 0.928 1_545 S
C781 C778 1.260 . S
C781 C779 1.479 . S
C782 C777 1.245 . S
C782 C778 1.477 . S
C782 H799 0.932 . S
C783 U766 2.882 . S
C783 C777 1.428 . S
C783 O786 1.301 . S
C783 O787 1.282 . S
O784 U766 2.441 . S
O784 C770 1.249 1_545 S
O785 U766 2.420 1_565 S
O785 C770 1.202 . S
O786 U766 2.455 . S
O786 C783 1.301 . S
O787 U766 2.449 . S
O787 C783 1.282 . S
H788 C761 0.931 . S
H789 C763 0.929 . S
H790 C764 0.930 . S
H791 C765 0.931 . S
H792 C772 0.932 . S
H793 C773 0.930 . S
H794 C774 0.929 . S
H795 C776 0.930 . S
H796 C778 0.932 . S
H797 C779 0.929 1_565 S
H798 C780 0.928 1_565 S
H799 C782 0.932 . S
C800 C801 1.290 . S
C800 C805 1.453 1_556 S
C800 C810 1.464 . S
C801 C800 1.290 . S
C801 C803 1.339 . S
C801 H828 0.931 . S
C802 C803 1.395 1_554 S
C802 C804 1.320 . S
C803 C801 1.339 . S
C803 C802 1.395 1_556 S
C803 H829 0.929 . S
C804 C802 1.320 . S
C804 C805 1.405 . S
C804 H830 0.930 . S
C805 C800 1.453 1_554 S
C805 C804 1.405 . S
C805 H831 0.931 . S
U806 O807 2.490 . S
U806 O808 2.480 . S
U806 C809 3.016 . S
U806 C810 2.846 1_554 S
U806 C823 2.853 1_554 S
U806 O824 2.456 . S
U806 O825 2.404 1_554 S
U806 O826 2.437 1_554 S
U806 O827 2.413 1_554 S
O807 U806 2.490 . S
O807 C809 1.353 . S
O808 U806 2.480 . S
O808 C809 1.286 . S
C809 U806 3.016 . S
C809 O807 1.353 . S
C809 O808 1.286 . S
C809 C811 1.363 . S
C810 C800 1.464 . S
C810 U806 2.846 1_556 S
C810 O824 1.256 1_556 S
C810 O825 1.195 . S
C811 C809 1.363 . S
C811 C813 1.408 . S
C811 C816 1.342 . S
C812 C813 1.310 . S
C812 C815 1.461 . S
C812 H832 0.932 . S
C813 C811 1.408 . S
C813 C812 1.310 . S
C813 H833 0.930 . S
C814 C815 1.474 . S
C814 C816 1.285 . S
C814 H834 0.929 . S
C815 C812 1.461 . S
C815 C814 1.474 . S
C816 C811 1.342 . S
C816 C814 1.285 . S
C816 H835 0.930 . S
C817 C820 1.424 . S
C817 C822 1.245 . S
C817 C823 1.428 . S
C818 C821 1.260 . S
C818 C822 1.477 . S
C818 H836 0.932 . S
C819 C820 1.384 . S
C819 C821 1.479 . S
C819 H837 0.929 . S
C820 C817 1.424 . S
C820 C819 1.384 . S
C820 H838 0.928 . S
C821 C818 1.260 . S
C821 C819 1.479 . S
C822 C817 1.245 . S
C822 C818 1.477 . S
C822 H839 0.932 . S
C823 U806 2.853 1_556 S
C823 C817 1.428 . S
C823 O826 1.301 . S
C823 O827 1.282 . S
O824 U806 2.456 . S
O824 C810 1.256 1_554 S
O825 U806 2.404 1_556 S
O825 C810 1.195 . S
O826 U806 2.437 1_556 S
O826 C823 1.301 . S
O827 U806 2.413 1_556 S
O827 C823 1.282 . S
H828 C801 0.931 . S
H829 C803 0.929 . S
H830 C804 0.930 . S
H831 C805 0.931 . S
H832 C812 0.932 . S
H833 C813 0.930 . S
H834 C814 0.929 . S
H835 C816 0.930 . S
H836 C818 0.932 . S
H837 C819 0.929 . S
H838 C820 0.928 . S
H839 C822 0.932 . S
C840 C841 1.264 . S
C840 C845 1.479 . S
C840 C850 1.465 . S
C841 C840 1.264 . S
C841 C843 1.339 . S
C841 H868 0.931 . S
C842 C843 1.395 . S
C842 C844 1.320 . S
C843 C841 1.339 . S
C843 C842 1.395 . S
C843 H869 0.929 . S
C844 C842 1.320 . S
C844 C845 1.405 . S
C844 H870 0.930 . S
C845 C840 1.479 . S
C845 C844 1.405 . S
C845 H871 0.931 . S
U846 O847 2.454 . S
U846 O848 2.458 . S
U846 C849 2.984 . S
U846 C850 2.847 . S
U846 C863 2.882 . S
U846 O864 2.441 . S
U846 O865 2.420 . S
U846 O866 2.455 . S
U846 O867 2.449 . S
O847 U846 2.454 . S
O847 C849 1.353 . S
O848 U846 2.458 . S
O848 C849 1.286 . S
C849 U846 2.984 . S
C849 O847 1.353 . S
C849 O848 1.286 . S
C849 C851 1.363 . S
C850 C840 1.465 . S
C850 U846 2.847 . S
C850 O864 1.249 . S
C850 O865 1.202 . S
C851 C849 1.363 . S
C851 C853 1.408 . S
C851 C856 1.342 . S
C852 C853 1.310 . S
C852 C855 1.461 . S
C852 H872 0.932 . S
C853 C851 1.408 . S
C853 C852 1.310 . S
C853 H873 0.930 . S
C854 C855 1.474 . S
C854 C856 1.285 . S
C854 H874 0.929 . S
C855 C852 1.461 . S
C855 C854 1.474 . S
C856 C851 1.342 . S
C856 C854 1.285 . S
C856 H875 0.930 . S
C857 C860 1.424 . S
C857 C862 1.245 . S
C857 C863 1.428 . S
C858 C861 1.260 . S
C858 C862 1.477 . S
C858 H876 0.932 . S
C859 C860 1.384 . S
C859 C861 1.479 . S
C859 H877 0.929 . S
C860 C857 1.424 . S
C860 C859 1.384 . S
C860 H878 0.928 . S
C861 C858 1.260 . S
C861 C859 1.479 . S
C862 C857 1.245 . S
C862 C858 1.477 . S
C862 H879 0.932 . S
C863 U846 2.882 . S
C863 C857 1.428 . S
C863 O866 1.301 . S
C863 O867 1.282 . S
O864 U846 2.441 . S
O864 C850 1.249 . S
O865 U846 2.420 . S
O865 C850 1.202 . S
O866 U846 2.455 . S
O866 C863 1.301 . S
O867 U846 2.449 . S
O867 C863 1.282 . S
H868 C841 0.931 . S
H869 C843 0.929 . S
H870 C844 0.930 . S
H871 C845 0.931 . S
H872 C852 0.932 . S
H873 C853 0.930 . S
H874 C854 0.929 . S
H875 C856 0.930 . S
H876 C858 0.932 . S
H877 C859 0.929 . S
H878 C860 0.928 . S
H879 C862 0.932 . S
C880 C881 1.264 . S
C880 C885 1.479 . S
C880 C890 1.465 . S
C881 C880 1.264 . S
C881 C883 1.339 . S
C881 H908 0.931 . S
C882 C883 1.395 . S
C882 C884 1.320 . S
C883 C881 1.339 . S
C883 C882 1.395 . S
C883 H909 0.929 . S
C884 C882 1.320 . S
C884 C885 1.405 . S
C884 H910 0.930 . S
C885 C880 1.479 . S
C885 C884 1.405 . S
C885 H911 0.931 . S
U886 O887 2.454 . S
U886 O888 2.458 . S
U886 C889 2.984 . S
U886 C890 2.847 . S
U886 C903 2.882 . S
U886 O904 2.441 . S
U886 O905 2.420 . S
U886 O906 2.455 . S
U886 O907 2.449 . S
O887 U886 2.454 . S
O887 C889 1.353 . S
O888 U886 2.458 . S
O888 C889 1.286 . S
C889 U886 2.984 . S
C889 O887 1.353 . S
C889 O888 1.286 . S
C889 C891 1.363 . S
C890 C880 1.465 . S
C890 U886 2.847 . S
C890 O904 1.249 . S
C890 O905 1.202 . S
C891 C889 1.363 . S
C891 C893 1.408 . S
C891 C896 1.342 . S
C892 C893 1.310 . S
C892 C895 1.461 . S
C892 H912 0.932 . S
C893 C891 1.408 . S
C893 C892 1.310 . S
C893 H913 0.930 . S
C894 C895 1.474 . S
C894 C896 1.285 . S
C894 H914 0.929 . S
C895 C892 1.461 . S
C895 C894 1.474 . S
C896 C891 1.342 . S
C896 C894 1.285 . S
C896 H915 0.930 . S
C897 C900 1.424 . S
C897 C902 1.245 . S
C897 C903 1.428 . S
C898 C901 1.260 . S
C898 C902 1.477 . S
C898 H916 0.932 . S
C899 C900 1.384 . S
C899 C901 1.479 . S
C899 H917 0.929 . S
C900 C897 1.424 . S
C900 C899 1.384 . S
C900 H918 0.928 . S
C901 C898 1.260 . S
C901 C899 1.479 . S
C902 C897 1.245 . S
C902 C898 1.477 . S
C902 H919 0.932 . S
C903 U886 2.882 . S
C903 C897 1.428 . S
C903 O906 1.301 . S
C903 O907 1.282 . S
O904 U886 2.441 . S
O904 C890 1.249 . S
O905 U886 2.420 . S
O905 C890 1.202 . S
O906 U886 2.455 . S
O906 C903 1.301 . S
O907 U886 2.449 . S
O907 C903 1.282 . S
H908 C881 0.931 . S
H909 C883 0.929 . S
H910 C884 0.930 . S
H911 C885 0.931 . S
H912 C892 0.932 . S
H913 C893 0.930 . S
H914 C894 0.929 . S
H915 C896 0.930 . S
H916 C898 0.932 . S
H917 C899 0.929 . S
H918 C900 0.928 . S
H919 C902 0.932 . S
C920 C921 1.264 . S
C920 C925 1.479 . S
C920 C930 1.465 . S
C921 C920 1.264 . S
C921 C923 1.339 . S
C921 H948 0.931 . S
C922 C923 1.395 . S
C922 C924 1.320 . S
C923 C921 1.339 . S
C923 C922 1.395 . S
C923 H949 0.929 . S
C924 C922 1.320 . S
C924 C925 1.405 . S
C924 H950 0.930 . S
C925 C920 1.479 . S
C925 C924 1.405 . S
C925 H951 0.931 . S
U926 O927 2.454 . S
U926 O928 2.458 . S
U926 C929 2.984 . S
U926 C930 2.847 1_554 S
U926 C943 2.882 . S
U926 O944 2.441 1_554 S
U926 O945 2.420 1_554 S
U926 O946 2.455 . S
U926 O947 2.449 . S
O927 U926 2.454 . S
O927 C929 1.353 . S
O928 U926 2.458 . S
O928 C929 1.286 . S
C929 U926 2.984 . S
C929 O927 1.353 . S
C929 O928 1.286 . S
C929 C931 1.363 . S
C930 C920 1.465 . S
C930 U926 2.847 1_556 S
C930 O944 1.249 . S
C930 O945 1.202 . S
C931 C929 1.363 . S
C931 C933 1.408 . S
C931 C936 1.342 . S
C932 C933 1.310 . S
C932 C935 1.461 . S
C932 H952 0.932 . S
C933 C931 1.408 . S
C933 C932 1.310 . S
C933 H953 0.930 . S
C934 C935 1.474 . S
C934 C936 1.285 . S
C934 H954 0.929 . S
C935 C932 1.461 . S
C935 C934 1.474 . S
C936 C931 1.342 . S
C936 C934 1.285 . S
C936 H955 0.930 . S
C937 C940 1.424 1_554 S
C937 C942 1.245 . S
C937 C943 1.428 . S
C938 C941 1.260 . S
C938 C942 1.477 . S
C938 H956 0.932 . S
C939 C940 1.384 . S
C939 C941 1.479 1_556 S
C939 H957 0.929 . S
C940 C937 1.424 1_556 S
C940 C939 1.384 . S
C940 H958 0.928 . S
C941 C938 1.260 . S
C941 C939 1.479 1_554 S
C942 C937 1.245 . S
C942 C938 1.477 . S
C942 H959 0.932 . S
C943 U926 2.882 . S
C943 C937 1.428 . S
C943 O946 1.301 . S
C943 O947 1.282 . S
O944 U926 2.441 1_556 S
O944 C930 1.249 . S
O945 U926 2.420 1_556 S
O945 C930 1.202 . S
O946 U926 2.455 . S
O946 C943 1.301 . S
O947 U926 2.449 . S
O947 C943 1.282 . S
H948 C921 0.931 . S
H949 C923 0.929 . S
H950 C924 0.930 . S
H951 C925 0.931 . S
H952 C932 0.932 . S
H953 C933 0.930 . S
H954 C934 0.929 . S
H955 C936 0.930 . S
H956 C938 0.932 . S
H957 C939 0.929 . S
H958 C940 0.928 . S
H959 C942 0.932 . S
H960 C966 0.930 . S
H961 C970 0.930 . S
H962 C975 0.929 . S
H963 C973 0.929 . S
H964 C968 0.929 . S
H965 C974 0.929 . S
C966 H960 0.930 . S
C966 C967 1.367 1_655 S
C966 C974 1.378 . S
C967 C966 1.367 1_455 S
C967 C975 1.433 . S
C968 H964 0.929 . S
C968 C970 1.378 . S
C968 C972 1.350 . S
C969 C972 1.463 . S
C969 C974 1.350 1_455 S
C969 N977 1.427 . S
C970 H961 0.930 . S
C970 C968 1.378 . S
C970 C971 1.367 . S
C971 C970 1.367 . S
C971 C973 1.433 1_455 S
C972 C968 1.350 . S
C972 C969 1.463 . S
C972 N976 1.427 1_455 S
C973 H963 0.929 . S
C973 C971 1.433 1_655 S
C973 N976 1.384 . S
C974 H965 0.929 . S
C974 C966 1.378 . S
C974 C969 1.350 1_655 S
C975 H962 0.929 . S
C975 C967 1.433 . S
C975 N977 1.384 . S
N976 C972 1.427 1_655 S
N976 C973 1.384 . S
N977 C969 1.427 . S
N977 C975 1.384 . S
H978 C984 0.930 . S
H979 C988 0.930 . S
H980 C993 0.929 . S
H981 C991 0.929 . S
H982 C986 0.929 . S
H983 C992 0.929 . S
C984 H978 0.930 . S
C984 C985 1.367 . S
C984 C992 1.378 . S
C985 C984 1.367 . S
C985 C993 1.433 . S
C986 H982 0.929 . S
C986 C988 1.378 . S
C986 C990 1.350 . S
C987 C990 1.463 . S
C987 C992 1.350 . S
C987 N995 1.427 . S
C988 H979 0.930 . S
C988 C986 1.378 . S
C988 C989 1.367 . S
C989 C988 1.367 . S
C989 C991 1.433 . S
C990 C986 1.350 . S
C990 C987 1.463 . S
C990 N994 1.427 . S
C991 H981 0.929 . S
C991 C989 1.433 . S
C991 N994 1.384 . S
C992 H983 0.929 . S
C992 C984 1.378 . S
C992 C987 1.350 . S
C993 H980 0.929 . S
C993 C985 1.433 . S
C993 N995 1.384 . S
N994 C990 1.427 . S
N994 C991 1.384 . S
N995 C987 1.427 . S
N995 C993 1.384 . S
H996 C1002 0.930 . S
H997 C1006 0.930 . S
H998 C1011 0.929 . S
H999 C1009 0.929 . S
H1000 C1004 0.929 . S
H1001 C1010 0.929 . S
C1002 H996 0.930 . S
C1002 C1003 1.367 . S
C1002 C1010 1.378 . S
C1003 C1002 1.367 . S
C1003 C1011 1.433 . S
C1004 H1000 0.929 . S
C1004 C1006 1.378 . S
C1004 C1008 1.350 . S
C1005 C1008 1.463 . S
C1005 C1010 1.350 . S
C1005 N1013 1.427 . S
C1006 H997 0.930 . S
C1006 C1004 1.378 . S
C1006 C1007 1.367 . S
C1007 C1006 1.367 . S
C1007 C1009 1.433 . S
C1008 C1004 1.350 . S
C1008 C1005 1.463 . S
C1008 N1012 1.427 . S
C1009 H999 0.929 . S
C1009 C1007 1.433 . S
C1009 N1012 1.384 . S
C1010 H1001 0.929 . S
C1010 C1002 1.378 . S
C1010 C1005 1.350 . S
C1011 H998 0.929 . S
C1011 C1003 1.433 . S
C1011 N1013 1.384 . S
N1012 C1008 1.427 . S
N1012 C1009 1.384 . S
N1013 C1005 1.427 . S
N1013 C1011 1.384 . S
H1014 C1020 0.951 . S
H1015 C1024 0.930 . S
H1016 C1029 0.929 . S
H1017 C1027 0.929 . S
H1018 C1022 0.929 . S
H1019 C1028 0.929 . S
C1020 H1014 0.951 . S
C1020 C1021 1.344 1_565 S
C1020 C1028 1.381 . S
C1021 C1020 1.344 1_545 S
C1021 C1029 1.433 . S
C1022 H1018 0.929 . S
C1022 C1024 1.378 . S
C1022 C1026 1.350 . S
C1023 C1026 1.463 . S
C1023 C1028 1.350 1_545 S
C1023 N1031 1.427 . S
C1024 H1015 0.930 . S
C1024 C1022 1.378 . S
C1024 C1025 1.367 . S
C1025 C1024 1.367 . S
C1025 C1027 1.433 1_545 S
C1026 C1022 1.350 . S
C1026 C1023 1.463 . S
C1026 N1030 1.427 1_545 S
C1027 H1017 0.929 . S
C1027 C1025 1.433 1_565 S
C1027 N1030 1.384 . S
C1028 H1019 0.929 . S
C1028 C1020 1.381 . S
C1028 C1023 1.350 1_565 S
C1029 H1016 0.929 . S
C1029 C1021 1.433 . S
C1029 N1031 1.384 . S
N1030 C1026 1.427 1_565 S
N1030 C1027 1.384 . S
N1031 C1023 1.427 . S
N1031 C1029 1.384 . S
H1032 C1038 0.930 . S
H1033 C1042 0.930 . S
H1034 C1047 0.934 . S
H1035 C1045 0.929 . S
H1036 C1040 0.929 . S
H1037 C1046 0.929 . S
C1038 H1032 0.930 . S
C1038 C1039 1.367 . S
C1038 C1046 1.378 . S
C1039 C1038 1.367 . S
C1039 C1047 1.433 . S
C1040 H1036 0.929 . S
C1040 C1042 1.378 . S
C1040 C1044 1.350 . S
C1041 C1044 1.463 . S
C1041 C1046 1.350 . S
C1041 N1049 1.427 . S
C1042 H1033 0.930 . S
C1042 C1040 1.378 . S
C1042 C1043 1.367 . S
C1043 C1042 1.367 . S
C1043 C1045 1.433 . S
C1044 C1040 1.350 . S
C1044 C1041 1.463 . S
C1044 N1048 1.427 . S
C1045 H1035 0.929 . S
C1045 C1043 1.433 . S
C1045 N1048 1.384 . S
C1046 H1037 0.929 . S
C1046 C1038 1.378 . S
C1046 C1041 1.350 . S
C1047 H1034 0.934 . S
C1047 C1039 1.433 . S
C1047 N1049 1.384 . S
N1048 C1044 1.427 . S
N1048 C1045 1.384 . S
N1049 C1041 1.427 . S
N1049 C1047 1.384 . S
H1050 C1056 0.930 . S
H1051 C1060 0.930 . S
H1052 C1065 0.929 . S
H1053 C1063 0.929 . S
H1054 C1058 0.929 . S
H1055 C1064 0.929 . S
C1056 H1050 0.930 . S
C1056 C1057 1.367 . S
C1056 C1064 1.378 . S
C1057 C1056 1.367 . S
C1057 C1065 1.433 . S
C1058 H1054 0.929 . S
C1058 C1060 1.378 . S
C1058 C1062 1.350 . S
C1059 C1062 1.463 . S
C1059 C1064 1.350 . S
C1059 N1067 1.427 . S
C1060 H1051 0.930 . S
C1060 C1058 1.378 . S
C1060 C1061 1.367 . S
C1061 C1060 1.367 . S
C1061 C1063 1.433 . S
C1062 C1058 1.350 . S
C1062 C1059 1.463 . S
C1062 N1066 1.427 . S
C1063 H1053 0.929 . S
C1063 C1061 1.433 . S
C1063 N1066 1.384 . S
C1064 H1055 0.929 . S
C1064 C1056 1.378 . S
C1064 C1059 1.350 . S
C1065 H1052 0.929 . S
C1065 C1057 1.433 . S
C1065 N1067 1.384 . S
N1066 C1062 1.427 . S
N1066 C1063 1.384 . S
N1067 C1059 1.427 . S
N1067 C1065 1.384 . S
H1068 C1074 0.930 . S
H1069 C1078 0.925 1_655 S
H1070 C1083 0.933 1_655 S
H1071 C1081 0.929 . S
H1072 C1076 0.922 1_655 S
H1073 C1082 0.929 . S
C1074 H1068 0.930 . S
C1074 C1075 1.367 . S
C1074 C1082 1.378 . S
C1075 C1074 1.367 . S
C1075 C1083 1.429 . S
C1076 H1072 0.922 1_455 S
C1076 C1078 1.378 . S
C1076 C1080 1.356 . S
C1077 C1080 1.463 . S
C1077 C1082 1.350 . S
C1077 N1085 1.433 . S
C1078 H1069 0.925 1_455 S
C1078 C1076 1.378 . S
C1078 C1079 1.373 . S
C1079 C1078 1.373 . S
C1079 C1081 1.433 . S
C1080 C1076 1.356 . S
C1080 C1077 1.463 . S
C1080 N1084 1.427 . S
C1081 H1071 0.929 . S
C1081 C1079 1.433 . S
C1081 N1084 1.384 . S
C1082 H1073 0.929 . S
C1082 C1074 1.378 . S
C1082 C1077 1.350 . S
C1083 H1070 0.933 1_455 S
C1083 C1075 1.429 . S
C1083 N1085 1.384 . S
N1084 C1080 1.427 . S
N1084 C1081 1.384 . S
N1085 C1077 1.433 . S
N1085 C1083 1.384 . S
H1086 C1092 0.930 . S
H1087 C1096 0.930 . S
H1088 C1101 0.929 . S
H1089 C1099 0.929 . S
H1090 C1094 0.929 . S
H1091 C1100 0.929 . S
C1092 H1086 0.930 . S
C1092 C1093 1.367 . S
C1092 C1100 1.378 . S
C1093 C1092 1.367 . S
C1093 C1101 1.433 . S
C1094 H1090 0.929 . S
C1094 C1096 1.378 . S
C1094 C1098 1.350 . S
C1095 C1098 1.463 . S
C1095 C1100 1.350 . S
C1095 N1103 1.427 . S
C1096 H1087 0.930 . S
C1096 C1094 1.378 . S
C1096 C1097 1.367 . S
C1097 C1096 1.367 . S
C1097 C1099 1.433 . S
C1098 C1094 1.350 . S
C1098 C1095 1.463 . S
C1098 N1102 1.427 . S
C1099 H1089 0.929 . S
C1099 C1097 1.433 . S
C1099 N1102 1.384 . S
C1100 H1091 0.929 . S
C1100 C1092 1.378 . S
C1100 C1095 1.350 . S
C1101 H1088 0.929 . S
C1101 C1093 1.433 . S
C1101 N1103 1.384 . S
N1102 C1098 1.427 . S
N1102 C1099 1.384 . S
N1103 C1095 1.427 . S
N1103 C1101 1.384 . S
H1104 C1110 0.930 . S
H1105 C1114 0.930 . S
H1106 C1119 0.929 . S
H1107 C1117 0.929 . S
H1108 C1112 0.929 . S
H1109 C1118 0.929 . S
C1110 H1104 0.930 . S
C1110 C1111 1.367 . S
C1110 C1118 1.378 . S
C1111 C1110 1.367 . S
C1111 C1119 1.433 . S
C1112 H1108 0.929 . S
C1112 C1114 1.378 . S
C1112 C1116 1.350 . S
C1113 C1116 1.463 . S
C1113 C1118 1.350 . S
C1113 N1121 1.427 . S
C1114 H1105 0.930 . S
C1114 C1112 1.378 . S
C1114 C1115 1.367 . S
C1115 C1114 1.367 . S
C1115 C1117 1.433 . S
C1116 C1112 1.350 . S
C1116 C1113 1.463 . S
C1116 N1120 1.427 . S
C1117 H1107 0.929 . S
C1117 C1115 1.433 . S
C1117 N1120 1.384 . S
C1118 H1109 0.929 . S
C1118 C1110 1.378 . S
C1118 C1113 1.350 . S
C1119 H1106 0.929 . S
C1119 C1111 1.433 . S
C1119 N1121 1.384 . S
N1120 C1116 1.427 . S
N1120 C1117 1.384 . S
N1121 C1113 1.427 . S
N1121 C1119 1.384 . S
H1122 C1128 0.930 . S
H1123 C1132 0.930 . S
H1124 C1137 0.929 . S
H1125 C1135 0.929 1_565 S
H1126 C1130 0.929 . S
H1127 C1136 0.973 . S
C1128 H1122 0.930 . S
C1128 C1129 1.367 1_565 S
C1128 C1136 1.383 . S
C1129 C1128 1.367 1_545 S
C1129 C1137 1.433 . S
C1130 H1126 0.929 . S
C1130 C1132 1.378 . S
C1130 C1134 1.350 . S
C1131 C1134 1.463 . S
C1131 C1136 1.305 1_545 S
C1131 N1139 1.427 . S
C1132 H1123 0.930 . S
C1132 C1130 1.378 . S
C1132 C1133 1.367 . S
C1133 C1132 1.367 . S
C1133 C1135 1.433 . S
C1134 C1130 1.350 . S
C1134 C1131 1.463 . S
C1134 N1138 1.451 . S
C1135 H1125 0.929 1_545 S
C1135 C1133 1.433 . S
C1135 N1138 1.386 . S
C1136 H1127 0.973 . S
C1136 C1128 1.383 . S
C1136 C1131 1.305 1_565 S
C1137 H1124 0.929 . S
C1137 C1129 1.433 . S
C1137 N1139 1.384 . S
N1138 C1134 1.451 . S
N1138 C1135 1.386 . S
N1139 C1131 1.427 . S
N1139 C1137 1.384 . S
H1140 C1146 0.930 . S
H1141 C1150 0.930 . S
H1142 C1155 0.929 . S
H1143 C1153 0.929 . S
H1144 C1148 0.929 . S
H1145 C1154 0.929 . S
C1146 H1140 0.930 . S
C1146 C1147 1.367 . S
C1146 C1154 1.378 . S
C1147 C1146 1.367 . S
C1147 C1155 1.433 1_554 S
C1148 H1144 0.929 . S
C1148 C1150 1.378 . S
C1148 C1152 1.350 1_556 S
C1149 C1152 1.463 . S
C1149 C1154 1.350 . S
C1149 N1157 1.427 1_554 S
C1150 H1141 0.930 . S
C1150 C1148 1.378 . S
C1150 C1151 1.367 1_556 S
C1151 C1150 1.367 1_554 S
C1151 C1153 1.433 . S
C1152 C1148 1.350 1_554 S
C1152 C1149 1.463 . S
C1152 N1156 1.427 . S
C1153 H1143 0.929 . S
C1153 C1151 1.433 . S
C1153 N1156 1.384 . S
C1154 H1145 0.929 . S
C1154 C1146 1.378 . S
C1154 C1149 1.350 . S
C1155 H1142 0.929 . S
C1155 C1147 1.433 1_556 S
C1155 N1157 1.384 . S
N1156 C1152 1.427 . S
N1156 C1153 1.384 . S
N1157 C1149 1.427 1_556 S
N1157 C1155 1.384 . S
H1158 C1164 0.930 . S
H1159 C1168 0.930 . S
H1160 C1173 0.929 . S
H1161 C1171 0.929 . S
H1162 C1166 0.929 . S
H1163 C1172 0.929 . S
C1164 H1158 0.930 . S
C1164 C1165 1.367 . S
C1164 C1172 1.378 . S
C1165 C1164 1.367 . S
C1165 C1173 1.433 . S
C1166 H1162 0.929 . S
C1166 C1168 1.378 . S
C1166 C1170 1.350 . S
C1167 C1170 1.463 . S
C1167 C1172 1.350 . S
C1167 N1175 1.427 . S
C1168 H1159 0.930 . S
C1168 C1166 1.378 . S
C1168 C1169 1.367 . S
C1169 C1168 1.367 . S
C1169 C1171 1.433 . S
C1170 C1166 1.350 . S
C1170 C1167 1.463 . S
C1170 N1174 1.427 . S
C1171 H1161 0.929 . S
C1171 C1169 1.433 . S
C1171 N1174 1.384 . S
C1172 H1163 0.929 . S
C1172 C1164 1.378 . S
C1172 C1167 1.350 . S
C1173 H1160 0.929 . S
C1173 C1165 1.433 . S
C1173 N1175 1.384 . S
N1174 C1170 1.427 . S
N1174 C1171 1.384 . S
N1175 C1167 1.427 . S
N1175 C1173 1.384 . S
H1176 C1182 0.930 . S
H1177 C1186 0.930 . S
H1178 C1191 0.929 . S
H1179 C1189 0.929 . S
H1180 C1184 0.929 . S
H1181 C1190 0.929 . S
C1182 H1176 0.930 . S
C1182 C1183 1.367 . S
C1182 C1190 1.378 . S
C1183 C1182 1.367 . S
C1183 C1191 1.433 . S
C1184 H1180 0.929 . S
C1184 C1186 1.378 . S
C1184 C1188 1.350 . S
C1185 C1188 1.463 . S
C1185 C1190 1.350 . S
C1185 N1193 1.427 . S
C1186 H1177 0.930 . S
C1186 C1184 1.378 . S
C1186 C1187 1.367 . S
C1187 C1186 1.367 . S
C1187 C1189 1.433 . S
C1188 C1184 1.350 . S
C1188 C1185 1.463 . S
C1188 N1192 1.427 . S
C1189 H1179 0.929 . S
C1189 C1187 1.433 . S
C1189 N1192 1.384 . S
C1190 H1181 0.929 . S
C1190 C1182 1.378 . S
C1190 C1185 1.350 . S
C1191 H1178 0.929 . S
C1191 C1183 1.433 . S
C1191 N1193 1.384 . S
N1192 C1188 1.427 . S
N1192 C1189 1.384 . S
N1193 C1185 1.427 . S
N1193 C1191 1.384 . S
H1194 C1200 0.930 . S
H1195 C1204 0.930 . S
H1196 C1209 0.929 . S
H1197 C1207 0.929 . S
H1198 C1202 0.929 . S
H1199 C1208 0.929 . S
C1200 H1194 0.930 . S
C1200 C1201 1.367 . S
C1200 C1208 1.378 . S
C1201 C1200 1.367 . S
C1201 C1209 1.433 . S
C1202 H1198 0.929 . S
C1202 C1204 1.378 . S
C1202 C1206 1.350 . S
C1203 C1206 1.463 . S
C1203 C1208 1.350 . S
C1203 N1211 1.427 . S
C1204 H1195 0.930 . S
C1204 C1202 1.378 . S
C1204 C1205 1.367 . S
C1205 C1204 1.367 . S
C1205 C1207 1.433 . S
C1206 C1202 1.350 . S
C1206 C1203 1.463 . S
C1206 N1210 1.427 . S
C1207 H1197 0.929 . S
C1207 C1205 1.433 . S
C1207 N1210 1.384 . S
C1208 H1199 0.929 . S
C1208 C1200 1.378 . S
C1208 C1203 1.350 . S
C1209 H1196 0.929 . S
C1209 C1201 1.433 . S
C1209 N1211 1.384 . S
N1210 C1206 1.427 . S
N1210 C1207 1.384 . S
N1211 C1203 1.427 . S
N1211 C1209 1.384 . S
H1212 C1218 0.930 . S
H1213 C1222 0.930 . S
H1214 C1227 0.929 . S
H1215 C1225 0.929 . S
H1216 C1220 0.929 . S
H1217 C1226 0.929 . S
C1218 H1212 0.930 . S
C1218 C1219 1.367 . S
C1218 C1226 1.378 . S
C1219 C1218 1.367 . S
C1219 C1227 1.433 . S
C1220 H1216 0.929 . S
C1220 C1222 1.378 . S
C1220 C1224 1.350 . S
C1221 C1224 1.463 . S
C1221 C1226 1.350 . S
C1221 N1229 1.427 . S
C1222 H1213 0.930 . S
C1222 C1220 1.378 . S
C1222 C1223 1.367 . S
C1223 C1222 1.367 . S
C1223 C1225 1.433 . S
C1224 C1220 1.350 . S
C1224 C1221 1.463 . S
C1224 N1228 1.427 . S
C1225 H1215 0.929 . S
C1225 C1223 1.433 . S
C1225 N1228 1.384 . S
C1226 H1217 0.929 . S
C1226 C1218 1.378 . S
C1226 C1221 1.350 . S
C1227 H1214 0.929 . S
C1227 C1219 1.433 . S
C1227 N1229 1.384 . S
N1228 C1224 1.427 . S
N1228 C1225 1.384 . S
N1229 C1221 1.427 . S
N1229 C1227 1.384 . S
H1230 C1236 0.930 . S
H1231 C1240 0.930 . S
H1232 C1245 0.929 . S
H1233 C1243 0.929 . S
H1234 C1238 0.929 . S
H1235 C1244 0.929 . S
C1236 H1230 0.930 . S
C1236 C1237 1.367 . S
C1236 C1244 1.378 . S
C1237 C1236 1.367 . S
C1237 C1245 1.433 . S
C1238 H1234 0.929 . S
C1238 C1240 1.378 . S
C1238 C1242 1.350 . S
C1239 C1242 1.463 . S
C1239 C1244 1.350 . S
C1239 N1247 1.427 . S
C1240 H1231 0.930 . S
C1240 C1238 1.378 . S
C1240 C1241 1.367 . S
C1241 C1240 1.367 . S
C1241 C1243 1.433 . S
C1242 C1238 1.350 . S
C1242 C1239 1.463 . S
C1242 N1246 1.427 . S
C1243 H1233 0.929 . S
C1243 C1241 1.433 . S
C1243 N1246 1.384 . S
C1244 H1235 0.929 . S
C1244 C1236 1.378 . S
C1244 C1239 1.350 . S
C1245 H1232 0.929 . S
C1245 C1237 1.433 . S
C1245 N1247 1.384 . S
N1246 C1242 1.427 . S
N1246 C1243 1.384 . S
N1247 C1239 1.427 . S
N1247 C1245 1.384 . S
H1248 C1254 0.930 . S
H1249 C1258 0.930 . S
H1250 C1263 0.929 . S
H1251 C1261 0.929 . S
H1252 C1256 0.929 . S
H1253 C1262 0.929 . S
C1254 H1248 0.930 . S
C1254 C1255 1.367 . S
C1254 C1262 1.378 . S
C1255 C1254 1.367 . S
C1255 C1263 1.433 . S
C1256 H1252 0.929 . S
C1256 C1258 1.378 . S
C1256 C1260 1.350 . S
C1257 C1260 1.463 . S
C1257 C1262 1.350 . S
C1257 N1265 1.427 . S
C1258 H1249 0.930 . S
C1258 C1256 1.378 . S
C1258 C1259 1.367 . S
C1259 C1258 1.367 . S
C1259 C1261 1.433 . S
C1260 C1256 1.350 . S
C1260 C1257 1.463 . S
C1260 N1264 1.427 . S
C1261 H1251 0.929 . S
C1261 C1259 1.433 . S
C1261 N1264 1.384 . S
C1262 H1253 0.929 . S
C1262 C1254 1.378 . S
C1262 C1257 1.350 . S
C1263 H1250 0.929 . S
C1263 C1255 1.433 . S
C1263 N1265 1.384 . S
N1264 C1260 1.427 . S
N1264 C1261 1.384 . S
N1265 C1257 1.427 . S
N1265 C1263 1.384 . S
H1266 C1272 0.930 . S
H1267 C1276 0.930 . S
H1268 C1281 0.929 . S
H1269 C1279 0.929 . S
H1270 C1274 0.929 . S
H1271 C1280 0.929 . S
C1272 H1266 0.930 . S
C1272 C1273 1.367 . S
C1272 C1280 1.378 . S
C1273 C1272 1.367 . S
C1273 C1281 1.433 . S
C1274 H1270 0.929 . S
C1274 C1276 1.378 . S
C1274 C1278 1.350 . S
C1275 C1278 1.463 . S
C1275 C1280 1.350 . S
C1275 N1283 1.427 . S
C1276 H1267 0.930 . S
C1276 C1274 1.378 . S
C1276 C1277 1.367 . S
C1277 C1276 1.367 . S
C1277 C1279 1.433 . S
C1278 C1274 1.350 . S
C1278 C1275 1.463 . S
C1278 N1282 1.427 . S
C1279 H1269 0.929 . S
C1279 C1277 1.433 . S
C1279 N1282 1.384 . S
C1280 H1271 0.929 . S
C1280 C1272 1.378 . S
C1280 C1275 1.350 . S
C1281 H1268 0.929 . S
C1281 C1273 1.433 . S
C1281 N1283 1.384 . S
N1282 C1278 1.427 . S
N1282 C1279 1.384 . S
N1283 C1275 1.427 . S
N1283 C1281 1.384 . S
H1284 C1290 0.930 . S
H1285 C1294 0.930 . S
H1286 C1299 0.929 . S
H1287 C1297 0.929 . S
H1288 C1292 0.929 . S
H1289 C1298 0.929 . S
C1290 H1284 0.930 . S
C1290 C1291 1.367 . S
C1290 C1298 1.378 . S
C1291 C1290 1.367 . S
C1291 C1299 1.433 . S
C1292 H1288 0.929 . S
C1292 C1294 1.378 . S
C1292 C1296 1.350 . S
C1293 C1296 1.463 . S
C1293 C1298 1.350 . S
C1293 N1301 1.427 . S
C1294 H1285 0.930 . S
C1294 C1292 1.378 . S
C1294 C1295 1.367 . S
C1295 C1294 1.367 . S
C1295 C1297 1.433 . S
C1296 C1292 1.350 . S
C1296 C1293 1.463 . S
C1296 N1300 1.427 . S
C1297 H1287 0.929 . S
C1297 C1295 1.433 . S
C1297 N1300 1.384 . S
C1298 H1289 0.929 . S
C1298 C1290 1.378 . S
C1298 C1293 1.350 . S
C1299 H1286 0.929 . S
C1299 C1291 1.433 . S
C1299 N1301 1.384 . S
N1300 C1296 1.427 . S
N1300 C1297 1.384 . S
N1301 C1293 1.427 . S
N1301 C1299 1.384 . S
H1302 C1308 0.930 . S
H1303 C1312 0.930 . S
H1304 C1317 0.929 . S
H1305 C1315 0.929 . S
H1306 C1310 0.929 . S
H1307 C1316 0.929 . S
C1308 H1302 0.930 . S
C1308 C1309 1.367 . S
C1308 C1316 1.378 . S
C1309 C1308 1.367 . S
C1309 C1317 1.433 . S
C1310 H1306 0.929 . S
C1310 C1312 1.378 . S
C1310 C1314 1.350 . S
C1311 C1314 1.463 . S
C1311 C1316 1.350 . S
C1311 N1319 1.427 . S
C1312 H1303 0.930 . S
C1312 C1310 1.378 . S
C1312 C1313 1.367 . S
C1313 C1312 1.367 . S
C1313 C1315 1.433 . S
C1314 C1310 1.350 . S
C1314 C1311 1.463 . S
C1314 N1318 1.427 . S
C1315 H1305 0.929 . S
C1315 C1313 1.433 . S
C1315 N1318 1.384 . S
C1316 H1307 0.929 . S
C1316 C1308 1.378 . S
C1316 C1311 1.350 . S
C1317 H1304 0.929 . S
C1317 C1309 1.433 . S
C1317 N1319 1.384 . S
N1318 C1314 1.427 . S
N1318 C1315 1.384 . S
N1319 C1311 1.427 . S
N1319 C1317 1.384 . S
H1320 C1326 0.930 . S
H1321 C1330 0.930 . S
H1322 C1335 0.929 . S
H1323 C1333 0.929 . S
H1324 C1328 0.929 . S
H1325 C1334 0.929 . S
C1326 H1320 0.930 . S
C1326 C1327 1.367 . S
C1326 C1334 1.378 . S
C1327 C1326 1.367 . S
C1327 C1335 1.433 . S
C1328 H1324 0.929 . S
C1328 C1330 1.378 . S
C1328 C1332 1.350 . S
C1329 C1332 1.463 . S
C1329 C1334 1.350 . S
C1329 N1337 1.427 . S
C1330 H1321 0.930 . S
C1330 C1328 1.378 . S
C1330 C1331 1.367 . S
C1331 C1330 1.367 . S
C1331 C1333 1.433 . S
C1332 C1328 1.350 . S
C1332 C1329 1.463 . S
C1332 N1336 1.427 . S
C1333 H1323 0.929 . S
C1333 C1331 1.433 . S
C1333 N1336 1.384 . S
C1334 H1325 0.929 . S
C1334 C1326 1.378 . S
C1334 C1329 1.350 . S
C1335 H1322 0.929 . S
C1335 C1327 1.433 . S
C1335 N1337 1.384 . S
N1336 C1332 1.427 . S
N1336 C1333 1.384 . S
N1337 C1329 1.427 . S
N1337 C1335 1.384 . S
H1338 C1344 0.930 . S
H1339 C1348 0.930 . S
H1340 C1353 0.929 . S
H1341 C1351 0.929 . S
H1342 C1346 0.929 . S
H1343 C1352 0.929 . S
C1344 H1338 0.930 . S
C1344 C1345 1.367 . S
C1344 C1352 1.378 . S
C1345 C1344 1.367 . S
C1345 C1353 1.433 . S
C1346 H1342 0.929 . S
C1346 C1348 1.378 . S
C1346 C1350 1.350 . S
C1347 C1350 1.463 . S
C1347 C1352 1.350 . S
C1347 N1355 1.427 . S
C1348 H1339 0.930 . S
C1348 C1346 1.378 . S
C1348 C1349 1.367 . S
C1349 C1348 1.367 . S
C1349 C1351 1.433 . S
C1350 C1346 1.350 . S
C1350 C1347 1.463 . S
C1350 N1354 1.427 . S
C1351 H1341 0.929 . S
C1351 C1349 1.433 . S
C1351 N1354 1.384 . S
C1352 H1343 0.929 . S
C1352 C1344 1.378 . S
C1352 C1347 1.350 . S
C1353 H1340 0.929 . S
C1353 C1345 1.433 . S
C1353 N1355 1.384 . S
N1354 C1350 1.427 . S
N1354 C1351 1.384 . S
N1355 C1347 1.427 . S
N1355 C1353 1.384 . S
H1356 C1362 0.930 . S
H1357 C1366 0.930 . S
H1358 C1371 0.929 . S
H1359 C1369 0.929 . S
H1360 C1364 0.929 . S
H1361 C1370 0.929 . S
C1362 H1356 0.930 . S
C1362 C1363 1.367 . S
C1362 C1370 1.378 . S
C1363 C1362 1.367 . S
C1363 C1371 1.433 . S
C1364 H1360 0.929 . S
C1364 C1366 1.378 . S
C1364 C1368 1.350 . S
C1365 C1368 1.463 . S
C1365 C1370 1.350 . S
C1365 N1373 1.427 . S
C1366 H1357 0.930 . S
C1366 C1364 1.378 . S
C1366 C1367 1.367 . S
C1367 C1366 1.367 . S
C1367 C1369 1.433 . S
C1368 C1364 1.350 . S
C1368 C1365 1.463 . S
C1368 N1372 1.427 . S
C1369 H1359 0.929 . S
C1369 C1367 1.433 . S
C1369 N1372 1.384 . S
C1370 H1361 0.929 . S
C1370 C1362 1.378 . S
C1370 C1365 1.350 . S
C1371 H1358 0.929 . S
C1371 C1363 1.433 . S
C1371 N1373 1.384 . S
N1372 C1368 1.427 . S
N1372 C1369 1.384 . S
N1373 C1365 1.427 . S
N1373 C1371 1.384 . S
H1374 C1380 0.930 . S
H1375 C1384 0.930 . S
H1376 C1389 0.929 . S
H1377 C1387 0.929 . S
H1378 C1382 0.929 . S
H1379 C1388 0.929 . S
C1380 H1374 0.930 . S
C1380 C1381 1.367 . S
C1380 C1388 1.378 . S
C1381 C1380 1.367 . S
C1381 C1389 1.433 . S
C1382 H1378 0.929 . S
C1382 C1384 1.378 . S
C1382 C1386 1.350 . S
C1383 C1386 1.463 . S
C1383 C1388 1.350 . S
C1383 N1391 1.427 . S
C1384 H1375 0.930 . S
C1384 C1382 1.378 . S
C1384 C1385 1.367 . S
C1385 C1384 1.367 . S
C1385 C1387 1.433 . S
C1386 C1382 1.350 . S
C1386 C1383 1.463 . S
C1386 N1390 1.427 . S
C1387 H1377 0.929 . S
C1387 C1385 1.433 . S
C1387 N1390 1.384 . S
C1388 H1379 0.929 . S
C1388 C1380 1.378 . S
C1388 C1383 1.350 . S
C1389 H1376 0.929 . S
C1389 C1381 1.433 . S
C1389 N1391 1.384 . S
N1390 C1386 1.427 . S
N1390 C1387 1.384 . S
N1391 C1383 1.427 . S
N1391 C1389 1.384 . S
H1392 C1398 0.930 . S
H1393 C1402 0.930 . S
H1394 C1407 0.929 . S
H1395 C1405 0.929 . S
H1396 C1400 0.929 . S
H1397 C1406 0.929 . S
C1398 H1392 0.930 . S
C1398 C1399 1.367 . S
C1398 C1406 1.378 . S
C1399 C1398 1.367 . S
C1399 C1407 1.433 . S
C1400 H1396 0.929 . S
C1400 C1402 1.378 . S
C1400 C1404 1.350 . S
C1401 C1404 1.463 . S
C1401 C1406 1.350 . S
C1401 N1409 1.427 . S
C1402 H1393 0.930 . S
C1402 C1400 1.378 . S
C1402 C1403 1.367 . S
C1403 C1402 1.367 . S
C1403 C1405 1.433 . S
C1404 C1400 1.350 . S
C1404 C1401 1.463 . S
C1404 N1408 1.427 . S
C1405 H1395 0.929 . S
C1405 C1403 1.433 . S
C1405 N1408 1.384 . S
C1406 H1397 0.929 . S
C1406 C1398 1.378 . S
C1406 C1401 1.350 . S
C1407 H1394 0.929 . S
C1407 C1399 1.433 . S
C1407 N1409 1.384 . S
N1408 C1404 1.427 . S
N1408 C1405 1.384 . S
N1409 C1401 1.427 . S
N1409 C1407 1.384 . S
H1410 C1416 0.930 . S
H1411 C1420 0.930 . S
H1412 C1425 0.929 . S
H1413 C1423 0.929 . S
H1414 C1418 0.929 . S
H1415 C1424 0.929 . S
C1416 H1410 0.930 . S
C1416 C1417 1.367 . S
C1416 C1424 1.378 . S
C1417 C1416 1.367 . S
C1417 C1425 1.433 . S
C1418 H1414 0.929 . S
C1418 C1420 1.378 . S
C1418 C1422 1.350 . S
C1419 C1422 1.463 . S
C1419 C1424 1.350 . S
C1419 N1427 1.427 . S
C1420 H1411 0.930 . S
C1420 C1418 1.378 . S
C1420 C1421 1.367 . S
C1421 C1420 1.367 . S
C1421 C1423 1.433 . S
C1422 C1418 1.350 . S
C1422 C1419 1.463 . S
C1422 N1426 1.427 . S
C1423 H1413 0.929 . S
C1423 C1421 1.433 . S
C1423 N1426 1.384 . S
C1424 H1415 0.929 . S
C1424 C1416 1.378 . S
C1424 C1419 1.350 . S
C1425 H1412 0.929 . S
C1425 C1417 1.433 . S
C1425 N1427 1.384 . S
N1426 C1422 1.427 . S
N1426 C1423 1.384 . S
N1427 C1419 1.427 . S
N1427 C1425 1.384 . S
H1428 C1434 0.930 . S
H1429 C1438 0.930 . S
H1430 C1443 0.929 . S
H1431 C1441 0.929 . S
H1432 C1436 0.929 . S
H1433 C1442 0.929 . S
C1434 H1428 0.930 . S
C1434 C1435 1.367 . S
C1434 C1442 1.378 . S
C1435 C1434 1.367 . S
C1435 C1443 1.433 . S
C1436 H1432 0.929 . S
C1436 C1438 1.378 . S
C1436 C1440 1.350 . S
C1437 C1440 1.463 . S
C1437 C1442 1.350 . S
C1437 N1445 1.427 . S
C1438 H1429 0.930 . S
C1438 C1436 1.378 . S
C1438 C1439 1.367 . S
C1439 C1438 1.367 . S
C1439 C1441 1.433 . S
C1440 C1436 1.350 . S
C1440 C1437 1.463 . S
C1440 N1444 1.427 . S
C1441 H1431 0.929 . S
C1441 C1439 1.433 . S
C1441 N1444 1.384 . S
C1442 H1433 0.929 . S
C1442 C1434 1.378 . S
C1442 C1437 1.350 . S
C1443 H1430 0.929 . S
C1443 C1435 1.433 . S
C1443 N1445 1.384 . S
N1444 C1440 1.427 . S
N1444 C1441 1.384 . S
N1445 C1437 1.427 . S
N1445 C1443 1.384 . S
H1446 C1452 0.930 . S
H1447 C1456 0.930 . S
H1448 C1461 0.929 . S
H1449 C1459 0.929 . S
H1450 C1454 0.929 . S
H1451 C1460 0.929 . S
C1452 H1446 0.930 . S
C1452 C1453 1.367 . S
C1452 C1460 1.378 . S
C1453 C1452 1.367 . S
C1453 C1461 1.433 . S
C1454 H1450 0.929 . S
C1454 C1456 1.378 . S
C1454 C1458 1.350 . S
C1455 C1458 1.463 . S
C1455 C1460 1.350 . S
C1455 N1463 1.427 . S
C1456 H1447 0.930 . S
C1456 C1454 1.378 . S
C1456 C1457 1.367 . S
C1457 C1456 1.367 . S
C1457 C1459 1.433 . S
C1458 C1454 1.350 . S
C1458 C1455 1.463 . S
C1458 N1462 1.427 . S
C1459 H1449 0.929 . S
C1459 C1457 1.433 . S
C1459 N1462 1.384 . S
C1460 H1451 0.929 . S
C1460 C1452 1.378 . S
C1460 C1455 1.350 . S
C1461 H1448 0.929 . S
C1461 C1453 1.433 . S
C1461 N1463 1.384 . S
N1462 C1458 1.427 . S
N1462 C1459 1.384 . S
N1463 C1455 1.427 . S
N1463 C1461 1.384 . S
H1464 C1470 0.930 . S
H1465 C1474 0.930 . S
H1466 C1479 0.929 . S
H1467 C1477 0.929 . S
H1468 C1472 0.929 . S
H1469 C1478 0.929 . S
C1470 H1464 0.930 . S
C1470 C1471 1.367 . S
C1470 C1478 1.378 . S
C1471 C1470 1.367 . S
C1471 C1479 1.433 . S
C1472 H1468 0.929 . S
C1472 C1474 1.378 . S
C1472 C1476 1.350 . S
C1473 C1476 1.463 . S
C1473 C1478 1.350 . S
C1473 N1481 1.427 . S
C1474 H1465 0.930 . S
C1474 C1472 1.378 . S
C1474 C1475 1.367 . S
C1475 C1474 1.367 . S
C1475 C1477 1.433 . S
C1476 C1472 1.350 . S
C1476 C1473 1.463 . S
C1476 N1480 1.427 . S
C1477 H1467 0.929 . S
C1477 C1475 1.433 . S
C1477 N1480 1.384 . S
C1478 H1469 0.929 . S
C1478 C1470 1.378 . S
C1478 C1473 1.350 . S
C1479 H1466 0.929 . S
C1479 C1471 1.433 . S
C1479 N1481 1.384 . S
N1480 C1476 1.427 . S
N1480 C1477 1.384 . S
N1481 C1473 1.427 . S
N1481 C1479 1.384 . S
H1482 C1488 0.930 . S
H1483 C1492 0.930 . S
H1484 C1497 0.929 . S
H1485 C1495 0.929 . S
H1486 C1490 0.929 . S
H1487 C1496 0.929 . S
C1488 H1482 0.930 . S
C1488 C1489 1.367 . S
C1488 C1496 1.378 . S
C1489 C1488 1.367 . S
C1489 C1497 1.433 . S
C1490 H1486 0.929 . S
C1490 C1492 1.378 . S
C1490 C1494 1.350 . S
C1491 C1494 1.463 . S
C1491 C1496 1.350 . S
C1491 N1499 1.427 . S
C1492 H1483 0.930 . S
C1492 C1490 1.378 . S
C1492 C1493 1.367 . S
C1493 C1492 1.367 . S
C1493 C1495 1.433 . S
C1494 C1490 1.350 . S
C1494 C1491 1.463 . S
C1494 N1498 1.427 . S
C1495 H1485 0.929 . S
C1495 C1493 1.433 . S
C1495 N1498 1.384 . S
C1496 H1487 0.929 . S
C1496 C1488 1.378 . S
C1496 C1491 1.350 . S
C1497 H1484 0.929 . S
C1497 C1489 1.433 . S
C1497 N1499 1.384 . S
N1498 C1494 1.427 . S
N1498 C1495 1.384 . S
N1499 C1491 1.427 . S
N1499 C1497 1.384 . S
H1500 C1506 0.930 . S
H1501 C1510 0.930 . S
H1502 C1515 0.929 . S
H1503 C1513 0.929 . S
H1504 C1508 0.929 . S
H1505 C1514 0.929 . S
C1506 H1500 0.930 . S
C1506 C1507 1.367 . S
C1506 C1514 1.378 . S
C1507 C1506 1.367 . S
C1507 C1515 1.433 . S
C1508 H1504 0.929 . S
C1508 C1510 1.378 . S
C1508 C1512 1.350 . S
C1509 C1512 1.463 . S
C1509 C1514 1.350 . S
C1509 N1517 1.427 . S
C1510 H1501 0.930 . S
C1510 C1508 1.378 . S
C1510 C1511 1.367 . S
C1511 C1510 1.367 . S
C1511 C1513 1.433 . S
C1512 C1508 1.350 . S
C1512 C1509 1.463 . S
C1512 N1516 1.427 . S
C1513 H1503 0.929 . S
C1513 C1511 1.433 . S
C1513 N1516 1.384 . S
C1514 H1505 0.929 . S
C1514 C1506 1.378 . S
C1514 C1509 1.350 . S
C1515 H1502 0.929 . S
C1515 C1507 1.433 . S
C1515 N1517 1.384 . S
N1516 C1512 1.427 . S
N1516 C1513 1.384 . S
N1517 C1509 1.427 . S
N1517 C1515 1.384 . S
H1518 C1524 0.930 . S
H1519 C1528 0.930 . S
H1520 C1533 0.929 . S
H1521 C1531 0.929 . S
H1522 C1526 0.929 . S
H1523 C1532 0.929 . S
C1524 H1518 0.930 . S
C1524 C1525 1.367 . S
C1524 C1532 1.378 . S
C1525 C1524 1.367 . S
C1525 C1533 1.433 . S
C1526 H1522 0.929 . S
C1526 C1528 1.378 . S
C1526 C1530 1.350 . S
C1527 C1530 1.463 . S
C1527 C1532 1.350 . S
C1527 N1535 1.427 . S
C1528 H1519 0.930 . S
C1528 C1526 1.378 . S
C1528 C1529 1.367 . S
C1529 C1528 1.367 . S
C1529 C1531 1.433 . S
C1530 C1526 1.350 . S
C1530 C1527 1.463 . S
C1530 N1534 1.427 . S
C1531 H1521 0.929 . S
C1531 C1529 1.433 . S
C1531 N1534 1.384 . S
C1532 H1523 0.929 . S
C1532 C1524 1.378 . S
C1532 C1527 1.350 . S
C1533 H1520 0.929 . S
C1533 C1525 1.433 . S
C1533 N1535 1.384 . S
N1534 C1530 1.427 . S
N1534 C1531 1.384 . S
N1535 C1527 1.427 . S
N1535 C1533 1.384 . S
H1536 C1542 0.930 . S
H1537 C1546 0.930 . S
H1538 C1551 0.929 . S
H1539 C1549 0.929 . S
H1540 C1544 0.929 . S
H1541 C1550 0.929 . S
C1542 H1536 0.930 . S
C1542 C1543 1.367 . S
C1542 C1550 1.378 . S
C1543 C1542 1.367 . S
C1543 C1551 1.433 . S
C1544 H1540 0.929 . S
C1544 C1546 1.378 . S
C1544 C1548 1.350 . S
C1545 C1548 1.463 . S
C1545 C1550 1.350 . S
C1545 N1553 1.427 . S
C1546 H1537 0.930 . S
C1546 C1544 1.378 . S
C1546 C1547 1.367 . S
C1547 C1546 1.367 . S
C1547 C1549 1.433 . S
C1548 C1544 1.350 . S
C1548 C1545 1.463 . S
C1548 N1552 1.427 . S
C1549 H1539 0.929 . S
C1549 C1547 1.433 . S
C1549 N1552 1.384 . S
C1550 H1541 0.929 . S
C1550 C1542 1.378 . S
C1550 C1545 1.350 . S
C1551 H1538 0.929 . S
C1551 C1543 1.433 . S
C1551 N1553 1.384 . S
N1552 C1548 1.427 . S
N1552 C1549 1.384 . S
N1553 C1545 1.427 . S
N1553 C1551 1.384 . S
H1554 C1560 0.930 . S
H1555 C1564 0.930 . S
H1556 C1569 0.929 . S
H1557 C1567 0.929 . S
H1558 C1562 0.929 . S
H1559 C1568 0.929 . S
C1560 H1554 0.930 . S
C1560 C1561 1.367 . S
C1560 C1568 1.378 . S
C1561 C1560 1.367 . S
C1561 C1569 1.433 . S
C1562 H1558 0.929 . S
C1562 C1564 1.378 . S
C1562 C1566 1.350 . S
C1563 C1566 1.463 . S
C1563 C1568 1.350 . S
C1563 N1571 1.427 . S
C1564 H1555 0.930 . S
C1564 C1562 1.378 . S
C1564 C1565 1.367 . S
C1565 C1564 1.367 . S
C1565 C1567 1.433 . S
C1566 C1562 1.350 . S
C1566 C1563 1.463 . S
C1566 N1570 1.427 . S
C1567 H1557 0.929 . S
C1567 C1565 1.433 . S
C1567 N1570 1.384 . S
C1568 H1559 0.929 . S
C1568 C1560 1.378 . S
C1568 C1563 1.350 . S
C1569 H1556 0.929 . S
C1569 C1561 1.433 . S
C1569 N1571 1.384 . S
N1570 C1566 1.427 . S
N1570 C1567 1.384 . S
N1571 C1563 1.427 . S
N1571 C1569 1.384 . S
H1572 C1578 0.930 . S
H1573 C1582 0.930 . S
H1574 C1587 0.929 . S
H1575 C1585 0.929 . S
H1576 C1580 0.929 . S
H1577 C1586 0.929 . S
C1578 H1572 0.930 . S
C1578 C1579 1.367 . S
C1578 C1586 1.378 . S
C1579 C1578 1.367 . S
C1579 C1587 1.433 . S
C1580 H1576 0.929 . S
C1580 C1582 1.378 . S
C1580 C1584 1.350 . S
C1581 C1584 1.463 . S
C1581 C1586 1.350 . S
C1581 N1589 1.427 . S
C1582 H1573 0.930 . S
C1582 C1580 1.378 . S
C1582 C1583 1.367 . S
C1583 C1582 1.367 . S
C1583 C1585 1.433 . S
C1584 C1580 1.350 . S
C1584 C1581 1.463 . S
C1584 N1588 1.427 . S
C1585 H1575 0.929 . S
C1585 C1583 1.433 . S
C1585 N1588 1.384 . S
C1586 H1577 0.929 . S
C1586 C1578 1.378 . S
C1586 C1581 1.350 . S
C1587 H1574 0.929 . S
C1587 C1579 1.433 . S
C1587 N1589 1.384 . S
N1588 C1584 1.427 . S
N1588 C1585 1.384 . S
N1589 C1581 1.427 . S
N1589 C1587 1.384 . S
H1590 C1596 0.930 . S
H1591 C1600 0.930 . S
H1592 C1605 0.929 . S
H1593 C1603 0.929 . S
H1594 C1598 0.929 . S
H1595 C1604 0.929 . S
C1596 H1590 0.930 . S
C1596 C1597 1.367 . S
C1596 C1604 1.378 . S
C1597 C1596 1.367 . S
C1597 C1605 1.433 . S
C1598 H1594 0.929 . S
C1598 C1600 1.378 . S
C1598 C1602 1.350 . S
C1599 C1602 1.463 . S
C1599 C1604 1.350 . S
C1599 N1607 1.427 . S
C1600 H1591 0.930 . S
C1600 C1598 1.378 . S
C1600 C1601 1.367 . S
C1601 C1600 1.367 . S
C1601 C1603 1.433 . S
C1602 C1598 1.350 . S
C1602 C1599 1.463 . S
C1602 N1606 1.427 . S
C1603 H1593 0.929 . S
C1603 C1601 1.433 . S
C1603 N1606 1.384 . S
C1604 H1595 0.929 . S
C1604 C1596 1.378 . S
C1604 C1599 1.350 . S
C1605 H1592 0.929 . S
C1605 C1597 1.433 . S
C1605 N1607 1.384 . S
N1606 C1602 1.427 . S
N1606 C1603 1.384 . S
N1607 C1599 1.427 . S
N1607 C1605 1.384 . S
C967 C162 1.483 . S
C971 C2 1.490 . S
C985 C221 1.465 . S
C989 C42 1.467 . S
C1003 C101 1.492 . S
C1007 C261 1.497 . S
C1021 C282 1.474 . S
C1025 C141 1.465 . S
C1039 C341 1.496 . S
C1043 C442 1.487 . S
C1057 C402 1.481 . S
C1061 C381 1.477 . S
C1075 C482 1.509 . S
C1079 C642 1.509 . S
C1093 C682 1.486 . S
C1097 C541 1.473 . S
C1111 C741 1.451 . S
C1115 C581 1.453 . S
C1129 C602 1.474 . S
C1133 C781 1.479 . S
C1147 C941 1.482 . S
C1151 C802 1.503 . S
C1165 C901 1.489 . S
C1169 C842 1.497 . S
C1183 C775 1.505 . S
C1187 C21 1.488 . S
C1201 C655 1.522 . S
C1205 C61 1.507 . S
C1219 C82 1.535 . S
C1223 C701 1.528 . S
C1237 C135 1.499 . S
C1241 C722 1.486 . S
C1255 C181 1.498 . S
C1259 C522 1.491 . S
C1273 C562 1.484 . S
C1277 C215 1.498 . S
C1291 C242 1.545 . S
C1295 C621 1.528 . S
C1309 C301 1.512 . S
C1313 C495 1.526 . S
C1327 C122 1.473 . S
C1331 C935 1.495 . S
C1345 C15 1.544 . S
C1349 C861 1.549 . S
C1363 C55 1.550 . S
C1367 C815 1.549 . S
C1381 C95 1.518 . S
C1385 C882 1.496 . S
C1399 C202 1.473 . S
C1403 C895 1.492 . S
C1417 C255 1.527 . S
C1421 C922 1.509 . S
C1435 C855 1.546 . S
C1439 C295 1.548 . S
C1453 C175 1.552 . S
C1457 C821 1.552 . S
C1471 C335 1.531 . S
C1475 C661 1.529 . S
C1489 C501 1.533 . S
C1493 C362 1.507 . S
C1507 C322 1.513 . S
C1511 C535 1.515 . S
C1525 C415 1.519 . S
C1529 C575 1.519 . S
C1543 C615 1.540 . S
C1547 C461 1.521 . S
C1561 C735 1.520 . S
C1565 C455 1.519 . S
C1579 C762 1.505 . S
C1583 C375 1.513 . S
C1597 C695 1.541 . S
C1601 C421 1.531 . S
