# Generated by pormake.
# Topology uot, (4)-cn, num edge types: 1
# Building blocks:
#     Node 0, Type 0, BuildingBlock: QUQFOY_clean_sbu_3, # of connection points: 4
#     Node 1, Type 0, BuildingBlock: QUQFOY_clean_sbu_3, # of connection points: 4
#     Node 2, Type 0, BuildingBlock: QUQFOY_clean_sbu_3, # of connection points: 4
#     Node 3, Type 0, BuildingBlock: QUQFOY_clean_sbu_3, # of connection points: 4
#     Node 4, Type 0, BuildingBlock: QUQFOY_clean_sbu_3, # of connection points: 4
#     Node 5, Type 0, BuildingBlock: QUQFOY_clean_sbu_3, # of connection points: 4
#     Node 6, Type 0, BuildingBlock: QUQFOY_clean_sbu_3, # of connection points: 4
#     Node 7, Type 0, BuildingBlock: QUQFOY_clean_sbu_3, # of connection points: 4
#     Node 8, Type 0, BuildingBlock: QUQFOY_clean_sbu_3, # of connection points: 4
#     Node 9, Type 0, BuildingBlock: QUQFOY_clean_sbu_3, # of connection points: 4
#     Node 10, Type 0, BuildingBlock: QUQFOY_clean_sbu_3, # of connection points: 4
#     Node 11, Type 0, BuildingBlock: QUQFOY_clean_sbu_3, # of connection points: 4
#     Node 12, Type 0, BuildingBlock: QUQFOY_clean_sbu_3, # of connection points: 4
#     Node 13, Type 0, BuildingBlock: QUQFOY_clean_sbu_3, # of connection points: 4
#     Node 14, Type 0, BuildingBlock: QUQFOY_clean_sbu_3, # of connection points: 4
#     Node 15, Type 0, BuildingBlock: QUQFOY_clean_sbu_3, # of connection points: 4
#     Edge 16, Type (0, 0), BuildingBlock: UVAHIK_clean_linker_0, # of connection points: 2
#     Edge 17, Type (0, 0), BuildingBlock: UVAHIK_clean_linker_0, # of connection points: 2
#     Edge 18, Type (0, 0), BuildingBlock: UVAHIK_clean_linker_0, # of connection points: 2
#     Edge 19, Type (0, 0), BuildingBlock: UVAHIK_clean_linker_0, # of connection points: 2
#     Edge 20, Type (0, 0), BuildingBlock: UVAHIK_clean_linker_0, # of connection points: 2
#     Edge 21, Type (0, 0), BuildingBlock: UVAHIK_clean_linker_0, # of connection points: 2
#     Edge 22, Type (0, 0), BuildingBlock: UVAHIK_clean_linker_0, # of connection points: 2
#     Edge 23, Type (0, 0), BuildingBlock: UVAHIK_clean_linker_0, # of connection points: 2
#     Edge 24, Type (0, 0), BuildingBlock: UVAHIK_clean_linker_0, # of connection points: 2
#     Edge 25, Type (0, 0), BuildingBlock: UVAHIK_clean_linker_0, # of connection points: 2
#     Edge 26, Type (0, 0), BuildingBlock: UVAHIK_clean_linker_0, # of connection points: 2
#     Edge 27, Type (0, 0), BuildingBlock: UVAHIK_clean_linker_0, # of connection points: 2
#     Edge 28, Type (0, 0), BuildingBlock: UVAHIK_clean_linker_0, # of connection points: 2
#     Edge 29, Type (0, 0), BuildingBlock: UVAHIK_clean_linker_0, # of connection points: 2
#     Edge 30, Type (0, 0), BuildingBlock: UVAHIK_clean_linker_0, # of connection points: 2
#     Edge 31, Type (0, 0), BuildingBlock: UVAHIK_clean_linker_0, # of connection points: 2
#     Edge 32, Type (0, 0), BuildingBlock: UVAHIK_clean_linker_0, # of connection points: 2
#     Edge 33, Type (0, 0), BuildingBlock: UVAHIK_clean_linker_0, # of connection points: 2
#     Edge 34, Type (0, 0), BuildingBlock: UVAHIK_clean_linker_0, # of connection points: 2
#     Edge 35, Type (0, 0), BuildingBlock: UVAHIK_clean_linker_0, # of connection points: 2
#     Edge 36, Type (0, 0), BuildingBlock: UVAHIK_clean_linker_0, # of connection points: 2
#     Edge 37, Type (0, 0), BuildingBlock: UVAHIK_clean_linker_0, # of connection points: 2
#     Edge 38, Type (0, 0), BuildingBlock: UVAHIK_clean_linker_0, # of connection points: 2
#     Edge 39, Type (0, 0), BuildingBlock: UVAHIK_clean_linker_0, # of connection points: 2
#     Edge 40, Type (0, 0), BuildingBlock: UVAHIK_clean_linker_0, # of connection points: 2
#     Edge 41, Type (0, 0), BuildingBlock: UVAHIK_clean_linker_0, # of connection points: 2
#     Edge 42, Type (0, 0), BuildingBlock: UVAHIK_clean_linker_0, # of connection points: 2
#     Edge 43, Type (0, 0), BuildingBlock: UVAHIK_clean_linker_0, # of connection points: 2
#     Edge 44, Type (0, 0), BuildingBlock: UVAHIK_clean_linker_0, # of connection points: 2
#     Edge 45, Type (0, 0), BuildingBlock: UVAHIK_clean_linker_0, # of connection points: 2
#     Edge 46, Type (0, 0), BuildingBlock: UVAHIK_clean_linker_0, # of connection points: 2
#     Edge 47, Type (0, 0), BuildingBlock: UVAHIK_clean_linker_0, # of connection points: 2
# Relax obj value: 0.066
# Max RMSD: 0.085
# Mean RMSD: 0.085
data_MOF--net-uot--node1-QUQFOY_clean_sbu_3--edge1-UVAHIK_clean_linker_0
_symmetry_space_group_name_H-M    P1
_symmetry_Int_Tables_number       1
_symmetry_cell_setting            triclinic
loop_
_symmetry_equiv_pos_as_xyz
'x, y, z'
_cell_length_a     61.46778
_cell_length_b     61.373448
_cell_length_c     53.763043
_cell_angle_alpha  89.962802
_cell_angle_beta   89.934035
_cell_angle_gamma 89.93084
loop_
_atom_site_label
_atom_site_type_symbol
_atom_site_fract_x
_atom_site_fract_y
_atom_site_fract_z
_atom_type_partial_charge
C0 C 0.11315 0.37943 0.32043 0.0
O1 O 0.10745 0.39218 0.33786 0.0
Cd2 Cd 0.13133 0.41941 0.35466 0.0
O3 O 0.13267 0.37944 0.31242 0.0
Cd4 Cd 0.16846 0.39662 0.32139 0.0
C5 C 0.14806 0.44397 0.29972 0.0
O6 O 0.16421 0.40164 0.36611 0.0
O7 O 0.19047 0.41949 0.34905 0.0
O8 O 0.18243 0.35976 0.32109 0.0
C9 C 0.18041 0.4142 0.36874 0.0
O10 O 0.13806 0.44491 0.32047 0.0
C11 C 0.19868 0.36339 0.30713 0.0
O12 O 0.15944 0.42733 0.29389 0.0
O13 O 0.20088 0.38276 0.29904 0.0
C14 C 0.37893 0.82926 0.65296 0.0
O15 O 0.39241 0.83512 0.63632 0.0
Cd16 Cd 0.41716 0.81151 0.61462 0.0
O17 O 0.37736 0.80927 0.65929 0.0
Cd18 Cd 0.39393 0.77335 0.64839 0.0
C19 C 0.44397 0.79131 0.66606 0.0
O20 O 0.39656 0.78028 0.60418 0.0
O21 O 0.41224 0.75082 0.61631 0.0
O22 O 0.35757 0.75826 0.65299 0.0
C23 C 0.40735 0.76343 0.59848 0.0
O24 O 0.44439 0.80185 0.64564 0.0
C25 C 0.36314 0.74212 0.66633 0.0
O26 O 0.42705 0.78083 0.67285 0.0
O27 O 0.38317 0.74066 0.67196 0.0
C28 C 0.82659 0.56655 0.32344 0.0
O29 O 0.83211 0.55464 0.34171 0.0
Cd30 Cd 0.80851 0.52773 0.35977 0.0
O31 O 0.80725 0.56588 0.31495 0.0
Cd32 Cd 0.77174 0.54812 0.3241 0.0
C33 C 0.79375 0.50032 0.30605 0.0
O34 O 0.77485 0.54501 0.36919 0.0
O35 O 0.74974 0.52555 0.35236 0.0
O36 O 0.75578 0.58419 0.32094 0.0
C37 C 0.75912 0.5319 0.37206 0.0
O38 O 0.8031 0.50044 0.32721 0.0
C39 C 0.74035 0.57899 0.30646 0.0
O40 O 0.78235 0.5165 0.29879 0.0
O41 O 0.73958 0.55919 0.29952 0.0
C42 C 0.56334 0.11451 0.6535 0.0
O43 O 0.54965 0.10866 0.63712 0.0
Cd44 Cd 0.52457 0.13242 0.61621 0.0
O45 O 0.5649 0.13448 0.65989 0.0
Cd46 Cd 0.54818 0.17043 0.64958 0.0
C47 C 0.49849 0.15235 0.66838 0.0
O48 O 0.54499 0.16372 0.60542 0.0
O49 O 0.52927 0.19301 0.61798 0.0
O50 O 0.58474 0.18514 0.65309 0.0
C51 C 0.53406 0.18054 0.6 0.0
O52 O 0.49782 0.14191 0.64792 0.0
C53 C 0.57966 0.2013 0.66665 0.0
O54 O 0.51548 0.16284 0.67487 0.0
O55 O 0.55977 0.20297 0.67291 0.0
C56 C 0.11693 0.56828 0.64612 0.0
O57 O 0.11124 0.55777 0.62687 0.0
Cd58 Cd 0.13349 0.52931 0.60999 0.0
O59 O 0.13587 0.5657 0.65535 0.0
Cd60 Cd 0.17099 0.54667 0.64666 0.0
C61 C 0.14503 0.50099 0.66464 0.0
O62 O 0.16844 0.54411 0.60156 0.0
O63 O 0.19246 0.52345 0.6188 0.0
O64 O 0.18698 0.58251 0.6502 0.0
C65 C 0.18362 0.53027 0.59897 0.0
O66 O 0.13531 0.50265 0.64378 0.0
C67 C 0.20228 0.5772 0.66482 0.0
O68 O 0.15877 0.51534 0.67151 0.0
O69 O 0.20307 0.55734 0.67159 0.0
C70 C 0.56434 0.82773 0.32118 0.0
O71 O 0.55239 0.83397 0.33912 0.0
Cd72 Cd 0.52368 0.81247 0.35657 0.0
O73 O 0.56307 0.80829 0.31286 0.0
Cd74 Cd 0.54457 0.77276 0.32165 0.0
C75 C 0.49841 0.79718 0.30106 0.0
O76 O 0.53995 0.77848 0.36569 0.0
O77 O 0.52324 0.75043 0.35132 0.0
O78 O 0.58076 0.7571 0.31939 0.0
C79 C 0.52763 0.76237 0.36987 0.0
O80 O 0.49911 0.80812 0.32121 0.0
C81 C 0.57587 0.7414 0.3051 0.0
O82 O 0.51319 0.78327 0.29582 0.0
O83 O 0.55619 0.74031 0.29791 0.0
C84 C 0.82819 0.37799 0.64888 0.0
O85 O 0.83395 0.39062 0.63136 0.0
Cd86 Cd 0.81058 0.41845 0.61473 0.0
O87 O 0.80878 0.37853 0.65727 0.0
Cd88 Cd 0.7734 0.39696 0.64908 0.0
C89 C 0.79569 0.44384 0.66974 0.0
O90 O 0.77702 0.40155 0.60421 0.0
O91 O 0.75152 0.42026 0.62161 0.0
O92 O 0.75762 0.3608 0.65083 0.0
C93 C 0.76115 0.41459 0.60177 0.0
O94 O 0.80533 0.44447 0.64874 0.0
C95 C 0.74219 0.36554 0.66557 0.0
O96 O 0.78398 0.42756 0.67589 0.0
O97 O 0.74128 0.38513 0.6732 0.0
C98 C 0.38415 0.11112 0.32159 0.0
O99 O 0.39883 0.10617 0.33726 0.0
Cd100 Cd 0.42399 0.13091 0.35624 0.0
O101 O 0.38124 0.1309 0.315 0.0
Cd102 Cd 0.39648 0.16779 0.32421 0.0
C103 C 0.4458 0.15159 0.30183 0.0
O104 O 0.40269 0.1613 0.36793 0.0
O105 O 0.41583 0.19146 0.35436 0.0
O106 O 0.35918 0.18095 0.32309 0.0
C107 C 0.41299 0.17865 0.37257 0.0
O108 O 0.44813 0.14116 0.32216 0.0
C109 C 0.3629 0.19734 0.30931 0.0
O110 O 0.42809 0.16154 0.29681 0.0
O111 O 0.38235 0.1998 0.30175 0.0
C112 C 0.61391 0.87423 0.81797 0.0
O113 O 0.60716 0.88526 0.8364 0.0
Cd114 Cd 0.62906 0.91271 0.85578 0.0
O115 O 0.63355 0.87599 0.81056 0.0
Cd116 Cd 0.66835 0.89423 0.82213 0.0
C117 C 0.64552 0.94133 0.80309 0.0
O118 O 0.66282 0.89656 0.86693 0.0
O119 O 0.68865 0.91638 0.85209 0.0
O120 O 0.68373 0.85807 0.8198 0.0
C121 C 0.67823 0.90977 0.87103 0.0
O122 O 0.63454 0.93992 0.82316 0.0
C123 C 0.70017 0.86302 0.80668 0.0
O124 O 0.65879 0.92628 0.79684 0.0
O125 O 0.70184 0.88284 0.79999 0.0
C126 C 0.88101 0.32935 0.15559 0.0
O127 O 0.89396 0.33594 0.13876 0.0
Cd128 Cd 0.92028 0.31287 0.11872 0.0
O129 O 0.88037 0.30926 0.16165 0.0
Cd130 Cd 0.89672 0.27365 0.1495 0.0
C131 C 0.94504 0.29194 0.17144 0.0
O132 O 0.90098 0.2815 0.10556 0.0
O133 O 0.91699 0.25229 0.11808 0.0
O134 O 0.85982 0.25979 0.15084 0.0
C135 C 0.91233 0.26493 0.10019 0.0
O136 O 0.946 0.30333 0.15163 0.0
C137 C 0.86404 0.24283 0.16347 0.0
O138 O 0.9283 0.28047 0.17647 0.0
O139 O 0.88368 0.24025 0.17032 0.0
C140 C 0.32783 0.06937 0.8202 0.0
O141 O 0.33412 0.05821 0.83874 0.0
Cd142 Cd 0.31175 0.03054 0.8573 0.0
O143 O 0.30838 0.06766 0.81221 0.0
Cd144 Cd 0.27332 0.04936 0.82226 0.0
C145 C 0.29694 0.00236 0.80376 0.0
O146 O 0.2774 0.04623 0.86727 0.0
O147 O 0.25197 0.02686 0.85075 0.0
O148 O 0.25736 0.08538 0.81994 0.0
C149 C 0.26177 0.03299 0.87027 0.0
O150 O 0.30736 0.0036 0.8242 0.0
C151 C 0.24185 0.08043 0.80547 0.0
O152 O 0.2838 0.01744 0.79724 0.0
O153 O 0.24096 0.06073 0.79819 0.0
C154 C 0.061 0.61531 0.15247 0.0
O155 O 0.04816 0.60972 0.13513 0.0
Cd156 Cd 0.0213 0.63375 0.11797 0.0
O157 O 0.06126 0.63491 0.16035 0.0
Cd158 Cd 0.04425 0.6709 0.15078 0.0
C159 C -0.00321 0.65106 0.17266 0.0
O160 O 0.03972 0.66614 0.10609 0.0
O161 O 0.02155 0.6926 0.12232 0.0
O162 O 0.081 0.68511 0.15148 0.0
C163 C 0.02724 0.68235 0.1029 0.0
O164 O -0.00424 0.64091 0.15202 0.0
C165 C 0.07704 0.70157 0.16503 0.0
O166 O 0.01348 0.66235 0.17831 0.0
O167 O 0.05758 0.70373 0.17274 0.0
C168 C 0.6123 0.06354 0.15123 0.0
O169 O 0.60629 0.05053 0.13422 0.0
Cd170 Cd 0.62969 0.02326 0.11675 0.0
O171 O 0.63197 0.06361 0.15876 0.0
Cd172 Cd 0.66748 0.04584 0.14893 0.0
C173 C 0.6476 -0.00171 0.17083 0.0
O174 O 0.6621 0.04132 0.10445 0.0
O175 O 0.68882 0.02315 0.11985 0.0
O176 O 0.68214 0.08244 0.14962 0.0
C177 C 0.67807 0.02867 0.10074 0.0
O178 O 0.63712 -0.00254 0.15041 0.0
C179 C 0.69857 0.07822 0.16306 0.0
O180 O 0.65905 0.01491 0.17638 0.0
O181 O 0.70053 0.05868 0.17066 0.0
C182 C 0.05795 0.33035 0.8168 0.0
O183 O 0.04349 0.33553 0.83266 0.0
Cd184 Cd 0.01833 0.3113 0.85252 0.0
O185 O 0.06063 0.3105 0.81036 0.0
Cd186 Cd 0.04499 0.27386 0.82024 0.0
C187 C -0.00452 0.29068 0.7988 0.0
O188 O 0.03971 0.2809 0.86396 0.0
O189 O 0.02601 0.25069 0.85141 0.0
O190 O 0.08196 0.25969 0.81789 0.0
C191 C 0.02936 0.26373 0.86927 0.0
O192 O -0.0065 0.30125 0.81908 0.0
C193 C 0.07744 0.24352 0.8041 0.0
O194 O 0.01301 0.28047 0.7936 0.0
O195 O 0.05775 0.24165 0.79724 0.0
C196 C 0.32971 0.87745 0.14422 0.0
O197 O 0.33475 0.88966 0.12604 0.0
Cd198 Cd 0.3112 0.91734 0.11025 0.0
O199 O 0.31061 0.87817 0.15354 0.0
Cd200 Cd 0.27478 0.89654 0.14614 0.0
C201 C 0.29876 0.94259 0.16644 0.0
O202 O 0.27716 0.90091 0.10125 0.0
O203 O 0.25267 0.9204 0.11925 0.0
O204 O 0.2596 0.86021 0.14775 0.0
C205 C 0.26164 0.91437 0.09914 0.0
O206 O 0.30823 0.94236 0.14533 0.0
C207 C 0.24385 0.86461 0.16218 0.0
O208 O 0.28586 0.92727 0.17274 0.0
O209 O 0.24255 0.88413 0.16999 0.0
C210 C 0.88384 0.61401 0.81859 0.0
O211 O 0.89657 0.60831 0.83601 0.0
Cd212 Cd 0.9231 0.63242 0.85366 0.0
O213 O 0.88348 0.63369 0.81097 0.0
Cd214 Cd 0.9001 0.66964 0.82118 0.0
C215 C 0.94786 0.65041 0.79946 0.0
O216 O 0.9044 0.66465 0.86593 0.0
O217 O 0.92229 0.69137 0.8499 0.0
O218 O 0.86331 0.68381 0.81991 0.0
C219 C 0.91664 0.681 0.86925 0.0
O220 O 0.94887 0.64 0.81995 0.0
C221 C 0.86744 0.7003 0.80646 0.0
O222 O 0.9311 0.66167 0.7939 0.0
O223 O 0.887 0.7025 0.79915 0.0
C224 C 0.21043 0.32454 0.3096 0.0
C225 C 0.21475 0.34598 0.30193 0.0
C226 C 0.2262 0.30832 0.3072 0.0
C227 C 0.27815 0.29348 0.27671 0.0
H228 H 0.28424 0.25633 0.33467 0.0
C229 C 0.35048 0.23342 0.29228 0.0
C230 C 0.34559 0.21342 0.30377 0.0
C231 C 0.33438 0.24942 0.28951 0.0
C232 C 0.28259 0.26633 0.31817 0.0
H233 H 0.23874 0.36705 0.28474 0.0
H234 H 0.26654 0.33861 0.28077 0.0
H235 H 0.25655 0.28454 0.33427 0.0
H236 H 0.31975 0.19409 0.32014 0.0
H237 H 0.29173 0.22173 0.31497 0.0
H238 H 0.30446 0.27517 0.26075 0.0
C239 C 0.25082 0.33437 0.28849 0.0
C240 C 0.26669 0.28254 0.31795 0.0
C241 C 0.23494 0.35066 0.29083 0.0
C242 C 0.32411 0.2094 0.31144 0.0
C243 C 0.30807 0.22531 0.30861 0.0
C244 C 0.29414 0.27716 0.27692 0.0
C245 C 0.24677 0.31313 0.29719 0.0
C246 C 0.26411 0.2962 0.29716 0.0
C247 C 0.31309 0.24571 0.29816 0.0
C248 C 0.29639 0.26328 0.29761 0.0
H249 H 0.19495 0.32031 0.31797 0.0
H250 H 0.22236 0.29202 0.31356 0.0
H251 H 0.27651 0.30368 0.26037 0.0
H252 H 0.36688 0.237 0.28618 0.0
H253 H 0.33881 0.26499 0.28148 0.0
C254 C 0.35383 0.70575 0.68504 0.0
C255 C 0.34712 0.72532 0.67379 0.0
C256 C 0.33876 0.68922 0.69005 0.0
C257 C 0.27949 0.67837 0.69572 0.0
H258 H 0.29461 0.62019 0.6735 0.0
C259 C 0.21545 0.61558 0.66711 0.0
C260 C 0.21872 0.59343 0.67259 0.0
C261 C 0.23142 0.63095 0.67259 0.0
C262 C 0.29025 0.63622 0.68027 0.0
H263 H 0.31923 0.74316 0.65974 0.0
H264 H 0.29307 0.71445 0.66837 0.0
H265 H 0.32226 0.64869 0.67362 0.0
H266 H 0.24116 0.5701 0.68871 0.0
H267 H 0.26929 0.59712 0.69823 0.0
H268 H 0.24731 0.6661 0.70159 0.0
C269 C 0.30991 0.71186 0.67353 0.0
C270 C 0.3061 0.65258 0.68033 0.0
C271 C 0.32495 0.72829 0.66841 0.0
C272 C 0.23817 0.58706 0.68427 0.0
C273 C 0.2543 0.60249 0.6896 0.0
C274 C 0.26367 0.66205 0.69564 0.0
C275 C 0.31665 0.69201 0.6841 0.0
C276 C 0.30074 0.67399 0.6874 0.0
C277 C 0.25116 0.62459 0.68359 0.0
C278 C 0.2687 0.64095 0.68725 0.0
H279 H 0.37081 0.70298 0.68942 0.0
H280 H 0.34442 0.67418 0.69839 0.0
H281 H 0.27495 0.69459 0.70175 0.0
H282 H 0.20064 0.62105 0.65813 0.0
H283 H 0.22858 0.64777 0.66738 0.0
C284 C 0.5863 0.70542 0.28609 0.0
C285 C 0.59231 0.72482 0.29814 0.0
C286 C 0.60183 0.68919 0.28133 0.0
C287 C 0.66141 0.67958 0.27755 0.0
H288 H 0.64714 0.62057 0.29748 0.0
C289 C 0.72644 0.61722 0.30537 0.0
C290 C 0.72368 0.59519 0.29907 0.0
C291 C 0.71019 0.63246 0.30021 0.0
C292 C 0.65129 0.63686 0.29136 0.0
H293 H 0.61941 0.74268 0.31395 0.0
H294 H 0.6463 0.71455 0.30572 0.0
H295 H 0.61883 0.6485 0.29732 0.0
H296 H 0.70188 0.57194 0.28183 0.0
H297 H 0.67333 0.59869 0.27282 0.0
H298 H 0.694 0.66814 0.27231 0.0
C299 C 0.6297 0.71183 0.29976 0.0
C300 C 0.63505 0.65288 0.29127 0.0
C301 C 0.61422 0.72792 0.30465 0.0
C302 C 0.70448 0.58881 0.28691 0.0
C303 C 0.68809 0.60409 0.28188 0.0
C304 C 0.67761 0.6636 0.27764 0.0
C305 C 0.62368 0.69217 0.28831 0.0
C306 C 0.64008 0.67455 0.28502 0.0
C307 C 0.69071 0.62606 0.28869 0.0
C308 C 0.67289 0.64219 0.2852 0.0
H309 H 0.56954 0.70255 0.28084 0.0
H310 H 0.59671 0.67427 0.27232 0.0
H311 H 0.66571 0.69603 0.27216 0.0
H312 H 0.74104 0.62269 0.31475 0.0
H313 H 0.71263 0.64917 0.30605 0.0
C314 C 0.58994 0.23728 0.68559 0.0
C315 C 0.59607 0.21783 0.67366 0.0
C316 C 0.60536 0.25355 0.69029 0.0
C317 C 0.66493 0.26358 0.69355 0.0
H318 H 0.64967 0.32253 0.67427 0.0
C319 C 0.72878 0.32715 0.66577 0.0
C320 C 0.72574 0.34903 0.67261 0.0
C321 C 0.7128 0.31162 0.67079 0.0
C322 C 0.6541 0.30625 0.68019 0.0
H323 H 0.62329 0.19996 0.65801 0.0
H324 H 0.65002 0.22822 0.66604 0.0
H325 H 0.62178 0.29427 0.67447 0.0
H326 H 0.70371 0.37171 0.6906 0.0
H327 H 0.67562 0.34445 0.69932 0.0
H328 H 0.69738 0.2754 0.69851 0.0
C329 C 0.63339 0.23091 0.67201 0.0
C330 C 0.6381 0.29004 0.68031 0.0
C331 C 0.61801 0.21474 0.66724 0.0
C332 C 0.70652 0.35496 0.6851 0.0
C333 C 0.6904 0.3394 0.68998 0.0
C334 C 0.6809 0.27976 0.6934 0.0
C335 C 0.62723 0.25063 0.6833 0.0
C336 C 0.64346 0.26839 0.68638 0.0
C337 C 0.69331 0.31757 0.68268 0.0
C338 C 0.67579 0.30116 0.6861 0.0
H339 H 0.57315 0.24014 0.6908 0.0
H340 H 0.60013 0.26848 0.69922 0.0
H341 H 0.6695 0.24716 0.69881 0.0
H342 H 0.7434 0.32202 0.65613 0.0
H343 H 0.71545 0.29503 0.6646 0.0
C344 C 0.73738 0.85245 0.79114 0.0
C345 C 0.71701 0.8465 0.80095 0.0
C346 C 0.75393 0.83687 0.78851 0.0
C347 C 0.77067 0.78454 0.81582 0.0
H348 H 0.81012 0.78005 0.75972 0.0
C349 C 0.82867 0.7123 0.80751 0.0
C350 C 0.85036 0.71663 0.80098 0.0
C351 C 0.8127 0.72828 0.80487 0.0
C352 C 0.79934 0.78126 0.7756 0.0
H353 H 0.69763 0.81936 0.81428 0.0
H354 H 0.72621 0.79234 0.8094 0.0
H355 H 0.78156 0.80801 0.7597 0.0
H356 H 0.87217 0.74089 0.78555 0.0
H357 H 0.84417 0.76906 0.78121 0.0
H358 H 0.7883 0.75809 0.83191 0.0
C359 C 0.72964 0.80906 0.80428 0.0
C360 C 0.783 0.79724 0.77558 0.0
C361 C 0.71321 0.82456 0.80695 0.0
C362 C 0.85558 0.73707 0.79076 0.0
C363 C 0.83954 0.75318 0.78821 0.0
C364 C 0.78691 0.76868 0.81586 0.0
C365 C 0.75037 0.8151 0.79566 0.0
C366 C 0.76831 0.79883 0.79558 0.0
C367 C 0.81801 0.7491 0.7958 0.0
C368 C 0.80126 0.76662 0.79564 0.0
H369 H 0.74077 0.86925 0.78635 0.0
H370 H 0.76974 0.84202 0.78185 0.0
H371 H 0.76001 0.78569 0.83183 0.0
H372 H 0.82404 0.69664 0.81517 0.0
H373 H 0.79618 0.72442 0.81034 0.0
C374 C 0.73531 0.08984 0.1788 0.0
C375 C 0.71507 0.09517 0.16826 0.0
C376 C 0.75154 0.10573 0.18123 0.0
C377 C 0.76794 0.15793 0.153 0.0
H378 H 0.80648 0.16331 0.20971 0.0
C379 C 0.82534 0.23065 0.16168 0.0
C380 C 0.84697 0.2264 0.16856 0.0
C381 C 0.80943 0.21461 0.16408 0.0
C382 C 0.79595 0.16187 0.19367 0.0
H383 H 0.69557 0.12157 0.15327 0.0
H384 H 0.72356 0.14917 0.15786 0.0
H385 H 0.77821 0.13518 0.20965 0.0
H386 H 0.8687 0.20221 0.18433 0.0
H387 H 0.84079 0.17398 0.18833 0.0
H388 H 0.78553 0.1844 0.1369 0.0
C389 C 0.72718 0.13267 0.1637 0.0
C390 C 0.77977 0.14577 0.19363 0.0
C391 C 0.71107 0.11685 0.16121 0.0
C392 C 0.85216 0.20597 0.17884 0.0
C393 C 0.83617 0.18983 0.18122 0.0
C394 C 0.784 0.17394 0.15305 0.0
C395 C 0.74779 0.12723 0.17317 0.0
C396 C 0.76543 0.1438 0.17338 0.0
C397 C 0.81472 0.19384 0.17333 0.0
C398 C 0.79806 0.17629 0.17346 0.0
H399 H 0.73888 0.07326 0.18441 0.0
H400 H 0.76727 0.101 0.18853 0.0
H401 H 0.75757 0.15652 0.13681 0.0
H402 H 0.82073 0.24629 0.15393 0.0
H403 H 0.79296 0.21839 0.15835 0.0
C404 C 0.11597 0.23038 0.80443 0.0
C405 C 0.0942 0.22716 0.79744 0.0
C406 C 0.13161 0.21436 0.79984 0.0
C407 C 0.13714 0.15535 0.79099 0.0
H408 H 0.19639 0.17056 0.77329 0.0
C409 C 0.20608 0.09083 0.78604 0.0
C410 C 0.22528 0.09685 0.79843 0.0
C411 C 0.18985 0.10634 0.78124 0.0
C412 C 0.17992 0.16604 0.77828 0.0
H413 H 0.07187 0.2048 0.77954 0.0
H414 H 0.09929 0.17674 0.77149 0.0
H415 H 0.16826 0.19862 0.77324 0.0
H416 H 0.24279 0.12394 0.81481 0.0
H417 H 0.21465 0.15079 0.80656 0.0
H418 H 0.14895 0.12289 0.79672 0.0
C419 C 0.10418 0.19164 0.7807 0.0
C420 C 0.16381 0.18212 0.77826 0.0
C421 C 0.08851 0.20775 0.78519 0.0
C422 C 0.22819 0.11875 0.80524 0.0
C423 C 0.2121 0.13421 0.80034 0.0
C424 C 0.15328 0.13925 0.79102 0.0
C425 C 0.12588 0.19468 0.7882 0.0
C426 C 0.14234 0.17709 0.78521 0.0
C427 C 0.19262 0.12818 0.78855 0.0
C428 C 0.17497 0.14453 0.78527 0.0
H429 H 0.1209 0.24513 0.81392 0.0
H430 H 0.1481 0.21712 0.80619 0.0
H431 H 0.12081 0.15096 0.79665 0.0
H432 H 0.20337 0.07408 0.78056 0.0
H433 H 0.17509 0.10122 0.77196 0.0
C434 C 0.20733 0.8535 0.17924 0.0
C435 C 0.22728 0.84789 0.16812 0.0
C436 C 0.19089 0.83785 0.18206 0.0
C437 C 0.17317 0.78623 0.15368 0.0
H438 H 0.13554 0.78055 0.21125 0.0
C439 C 0.11571 0.71372 0.16276 0.0
C440 C 0.09418 0.7179 0.17017 0.0
C441 C 0.13167 0.72971 0.16508 0.0
C442 C 0.14582 0.7821 0.19498 0.0
H443 H 0.24609 0.82121 0.15262 0.0
H444 H 0.21776 0.79405 0.15789 0.0
H445 H 0.16411 0.80843 0.21087 0.0
H446 H 0.07272 0.74187 0.18681 0.0
H447 H 0.10074 0.77005 0.19066 0.0
H448 H 0.15505 0.76015 0.13765 0.0
C449 C 0.21451 0.81059 0.16387 0.0
C450 C 0.16216 0.79804 0.19476 0.0
C451 C 0.23082 0.82616 0.16099 0.0
C452 C 0.08917 0.73818 0.18092 0.0
C453 C 0.10522 0.75429 0.18319 0.0
C454 C 0.15695 0.7704 0.1539 0.0
C455 C 0.19415 0.81633 0.17382 0.0
C456 C 0.17621 0.80007 0.17421 0.0
C457 C 0.12654 0.75037 0.17474 0.0
C458 C 0.14325 0.7679 0.17465 0.0
H459 H 0.20412 0.87012 0.18493 0.0
H460 H 0.17536 0.8428 0.18976 0.0
H461 H 0.1833 0.78773 0.13726 0.0
H462 H 0.12019 0.69819 0.15466 0.0
H463 H 0.14805 0.72598 0.15892 0.0
C464 C 0.13965 0.48299 0.29077 0.0
C465 C 0.14541 0.4622 0.28197 0.0
C466 C 0.13509 0.49988 0.27418 0.0
C467 C 0.11248 0.50899 0.21323 0.0
H468 H 0.13308 0.5682 0.22183 0.0
C469 C 0.0791 0.57869 0.15238 0.0
C470 C 0.07506 0.59867 0.1643 0.0
C471 C 0.09116 0.5624 0.16423 0.0
C472 C 0.12698 0.55181 0.21929 0.0
H473 H 0.15148 0.44296 0.24888 0.0
H474 H 0.14291 0.47251 0.21973 0.0
H475 H 0.14824 0.53899 0.24733 0.0
H476 H 0.08086 0.61736 0.19783 0.0
H477 H 0.10112 0.58875 0.2189 0.0
H478 H 0.09035 0.52172 0.18632 0.0
C479 C 0.14215 0.47566 0.23954 0.0
C480 C 0.13581 0.53508 0.23379 0.0
C481 C 0.14714 0.45882 0.25619 0.0
C482 C 0.08378 0.60219 0.18809 0.0
C483 C 0.09556 0.58577 0.20011 0.0
C484 C 0.1034 0.52575 0.199 0.0
C485 C 0.13584 0.49627 0.24841 0.0
C486 C 0.12842 0.51357 0.23114 0.0
C487 C 0.0992 0.56554 0.18847 0.0
C488 C 0.11028 0.54746 0.20209 0.0
H489 H 0.13829 0.48612 0.31054 0.0
H490 H 0.13008 0.51554 0.28153 0.0
H491 H 0.10628 0.49259 0.21105 0.0
H492 H 0.0728 0.57557 0.13392 0.0
H493 H 0.09402 0.54727 0.15441 0.0
C494 C 0.48383 0.79612 0.67226 0.0
C495 C 0.46312 0.7927 0.68256 0.0
C496 C 0.50163 0.80045 0.68753 0.0
C497 C 0.52035 0.80214 0.75374 0.0
H498 H 0.55862 0.84691 0.72772 0.0
C499 C 0.5776 0.85594 0.81366 0.0
C500 C 0.59852 0.86014 0.80416 0.0
C501 C 0.56243 0.84426 0.79962 0.0
C502 C 0.54828 0.83418 0.73513 0.0
H503 H 0.44491 0.79021 0.71694 0.0
H504 H 0.47583 0.79868 0.74371 0.0
H505 H 0.52963 0.83278 0.7018 0.0
H506 H 0.62014 0.85464 0.77284 0.0
H507 H 0.59354 0.83452 0.74827 0.0
H508 H 0.53868 0.80453 0.7876 0.0
C509 C 0.47851 0.79749 0.72386 0.0
C510 C 0.53165 0.82596 0.72023 0.0
C511 C 0.46073 0.7927 0.70853 0.0
C512 C 0.60416 0.85176 0.78069 0.0
C513 C 0.58892 0.8403 0.76657 0.0
C514 C 0.53687 0.81062 0.7688 0.0
C515 C 0.49909 0.80201 0.71348 0.0
C516 C 0.5174 0.80985 0.72929 0.0
C517 C 0.56779 0.83676 0.77571 0.0
C518 C 0.55096 0.82677 0.75963 0.0
H519 H 0.48619 0.79589 0.65229 0.0
H520 H 0.51732 0.80312 0.67887 0.0
H521 H 0.5099 0.78957 0.76127 0.0
H522 H 0.57275 0.86207 0.83172 0.0
H523 H 0.54621 0.84189 0.80706 0.0
C524 C 0.86452 0.36658 0.15986 0.0
C525 C 0.86742 0.34535 0.16918 0.0
C526 C 0.8531 0.38218 0.17365 0.0
C527 C 0.84178 0.39677 0.23755 0.0
H528 H 0.79749 0.43513 0.21064 0.0
C529 C 0.80157 0.46084 0.29989 0.0
C530 C 0.79723 0.48139 0.28955 0.0
C531 C 0.80707 0.44326 0.28468 0.0
C532 C 0.81001 0.42474 0.21839 0.0
H533 H 0.86008 0.32371 0.19999 0.0
H534 H 0.84053 0.35111 0.22424 0.0
H535 H 0.81292 0.40632 0.18459 0.0
H536 H 0.79461 0.49958 0.25516 0.0
H537 H 0.80518 0.46913 0.22854 0.0
H538 H 0.83991 0.41552 0.27082 0.0
C539 C 0.84703 0.35559 0.20621 0.0
C540 C 0.81873 0.40818 0.20348 0.0
C541 C 0.85815 0.3399 0.19227 0.0
C542 C 0.79779 0.48386 0.2636 0.0
C543 C 0.80377 0.46634 0.24835 0.0
C544 C 0.83336 0.41348 0.25229 0.0
C545 C 0.84464 0.37694 0.19717 0.0
C546 C 0.83468 0.39404 0.21297 0.0
C547 C 0.80892 0.44589 0.25876 0.0
C548 C 0.81732 0.42772 0.24298 0.0
H549 H 0.87137 0.37127 0.14208 0.0
H550 H 0.85159 0.39856 0.16633 0.0
H551 H 0.85434 0.38634 0.24518 0.0
H552 H 0.80095 0.45839 0.31984 0.0
H553 H 0.81021 0.42766 0.29338 0.0
C554 C 0.45869 0.14772 0.67522 0.0
C555 C 0.47954 0.15085 0.68521 0.0
C556 C 0.44104 0.14325 0.69071 0.0
C557 C 0.42294 0.14063 0.75714 0.0
H558 H 0.38396 0.09675 0.7307 0.0
C559 C 0.3645 0.08711 0.81643 0.0
C560 C 0.34355 0.08344 0.80679 0.0
C561 C 0.37998 0.09866 0.80262 0.0
C562 C 0.39451 0.10922 0.73825 0.0
H563 H 0.49816 0.15266 0.71931 0.0
H564 H 0.46747 0.14395 0.74646 0.0
H565 H 0.41303 0.11084 0.70479 0.0
H566 H 0.32221 0.08982 0.77547 0.0
H567 H 0.34931 0.10971 0.75134 0.0
H568 H 0.40469 0.13803 0.79111 0.0
C569 C 0.46458 0.14547 0.72668 0.0
C570 C 0.41118 0.11743 0.72335 0.0
C571 C 0.48222 0.15041 0.71114 0.0
C572 C 0.3382 0.09226 0.78344 0.0
C573 C 0.35373 0.10359 0.76955 0.0
C574 C 0.40635 0.13217 0.7722 0.0
C575 C 0.44386 0.14124 0.71658 0.0
C576 C 0.42565 0.13327 0.73252 0.0
C577 C 0.37489 0.10656 0.7788 0.0
C578 C 0.39199 0.11638 0.76286 0.0
H579 H 0.45611 0.14829 0.65529 0.0
H580 H 0.42524 0.14082 0.68227 0.0
H581 H 0.43358 0.15297 0.76479 0.0
H582 H 0.36914 0.08062 0.8344 0.0
H583 H 0.39621 0.1006 0.81014 0.0
C584 C 0.15066 0.47868 0.70355 0.0
C585 C 0.13921 0.48264 0.68134 0.0
C586 C 0.14416 0.46189 0.71962 0.0
C587 C 0.0956 0.43149 0.73735 0.0
H588 H 0.13472 0.38796 0.76458 0.0
C589 C 0.06633 0.36983 0.81001 0.0
C590 C 0.07081 0.34784 0.80467 0.0
C591 C 0.07682 0.38646 0.79701 0.0
C592 C 0.12366 0.40004 0.7571 0.0
H593 H 0.11226 0.47169 0.65843 0.0
H594 H 0.10094 0.44281 0.68647 0.0
H595 H 0.14909 0.41671 0.73732 0.0
H596 H 0.0907 0.32617 0.78226 0.0
H597 H 0.1091 0.35539 0.75953 0.0
H598 H 0.07016 0.41493 0.75677 0.0
C599 C 0.11486 0.45268 0.69149 0.0
C600 C 0.13188 0.41653 0.74169 0.0
C601 C 0.12144 0.46921 0.67538 0.0
C602 C 0.08679 0.34292 0.78676 0.0
C603 C 0.09742 0.35964 0.77384 0.0
C604 C 0.08746 0.41525 0.75292 0.0
C605 C 0.12596 0.449 0.71389 0.0
C606 C 0.11784 0.43223 0.73143 0.0
C607 C 0.09215 0.38156 0.77845 0.0
C608 C 0.10134 0.39925 0.76282 0.0
H609 H 0.16446 0.48868 0.70864 0.0
H610 H 0.15297 0.45938 0.73683 0.0
H611 H 0.08444 0.44348 0.72985 0.0
H612 H 0.05424 0.37426 0.82378 0.0
H613 H 0.07265 0.40323 0.80118 0.0
C614 C 0.342 0.85055 0.17664 0.0
C615 C 0.34674 0.86367 0.15586 0.0
C616 C 0.3587 0.83975 0.18937 0.0
C617 C 0.41601 0.84711 0.20321 0.0
H618 H 0.41346 0.78878 0.23094 0.0
C619 C 0.46819 0.82088 0.28589 0.0
C620 C 0.4807 0.80183 0.28314 0.0
C621 C 0.45215 0.8262 0.26862 0.0
C622 C 0.41442 0.80502 0.22311 0.0
H623 H 0.37263 0.87464 0.13135 0.0
H624 H 0.4016 0.85595 0.15366 0.0
H625 H 0.38456 0.80137 0.20279 0.0
H626 H 0.48568 0.77308 0.26037 0.0
H627 H 0.45707 0.7823 0.23023 0.0
H628 H 0.44539 0.85108 0.22401 0.0
C629 C 0.38501 0.85418 0.16019 0.0
C630 C 0.39787 0.81225 0.20718 0.0
C631 C 0.36837 0.86483 0.14738 0.0
C632 C 0.47638 0.78791 0.26295 0.0
C633 C 0.45999 0.7931 0.24579 0.0
C634 C 0.4323 0.84001 0.21933 0.0
C635 C 0.38044 0.84198 0.18167 0.0
C636 C 0.39846 0.83344 0.19722 0.0
C637 C 0.448 0.81248 0.24832 0.0
C638 C 0.43154 0.81902 0.22966 0.0
H639 H 0.32552 0.84922 0.18361 0.0
H640 H 0.35472 0.83054 0.20596 0.0
H641 H 0.4168 0.8636 0.19606 0.0
H642 H 0.47104 0.83201 0.30117 0.0
H643 H 0.44298 0.84112 0.27111 0.0
C644 C 0.79732 0.45872 0.7132 0.0
C645 C 0.7991 0.462 0.68739 0.0
C646 C 0.80274 0.47544 0.72978 0.0
C647 C 0.80996 0.53463 0.73542 0.0
H648 H 0.85495 0.52062 0.78331 0.0
C649 C 0.86158 0.60117 0.78246 0.0
C650 C 0.87003 0.59743 0.80635 0.0
C651 C 0.85001 0.58487 0.77007 0.0
C652 C 0.84203 0.52483 0.7705 0.0
H653 H 0.80689 0.48563 0.65872 0.0
H654 H 0.81584 0.51488 0.68764 0.0
H655 H 0.839 0.49175 0.75827 0.0
H656 H 0.87205 0.57403 0.83648 0.0
H657 H 0.85114 0.54592 0.81535 0.0
H658 H 0.81278 0.56765 0.74761 0.0
C659 C 0.81046 0.49937 0.69504 0.0
C660 C 0.83295 0.50823 0.75609 0.0
C661 C 0.80546 0.48257 0.67851 0.0
C662 C 0.86595 0.57733 0.81796 0.0
C663 C 0.85407 0.56115 0.80574 0.0
C664 C 0.81878 0.55121 0.75011 0.0
C665 C 0.80956 0.49585 0.72082 0.0
C666 C 0.81716 0.51304 0.73807 0.0
C667 C 0.84627 0.56453 0.78143 0.0
C668 C 0.8353 0.54662 0.76748 0.0
H669 H 0.79252 0.44302 0.72058 0.0
H670 H 0.80187 0.47237 0.7496 0.0
H671 H 0.79765 0.53872 0.72179 0.0
H672 H 0.86455 0.61645 0.77294 0.0
H673 H 0.84464 0.58805 0.75124 0.0
C674 C 0.57599 0.08216 0.1514 0.0
C675 C 0.5961 0.07819 0.16295 0.0
C676 C 0.56016 0.09488 0.16316 0.0
C677 C 0.55114 0.13264 0.21689 0.0
H678 H 0.49182 0.11165 0.21187 0.0
C679 C 0.48492 0.14609 0.29109 0.0
C680 C 0.46356 0.15053 0.28329 0.0
C681 C 0.50132 0.14207 0.27372 0.0
C682 C 0.50823 0.11798 0.21311 0.0
H683 H 0.61554 0.08483 0.19569 0.0
H684 H 0.58773 0.10627 0.21662 0.0
H685 H 0.52013 0.09499 0.18661 0.0
H686 H 0.44279 0.15515 0.25115 0.0
H687 H 0.47152 0.14762 0.22065 0.0
H688 H 0.53919 0.15478 0.24459 0.0
C689 C 0.58429 0.10011 0.19818 0.0
C690 C 0.52452 0.10845 0.19858 0.0
C691 C 0.60024 0.08765 0.18625 0.0
C692 C 0.45913 0.15182 0.25769 0.0
C693 C 0.4755 0.14741 0.24027 0.0
C694 C 0.53487 0.14196 0.23167 0.0
C695 C 0.56391 0.10368 0.18693 0.0
C696 C 0.54628 0.11537 0.20059 0.0
C697 C 0.49665 0.14208 0.24816 0.0
C698 C 0.51333 0.13446 0.23022 0.0
H699 H 0.57239 0.07531 0.1333 0.0
H700 H 0.54488 0.09764 0.15365 0.0
H701 H 0.56758 0.13876 0.21857 0.0
H702 H 0.48885 0.14509 0.3107 0.0
H703 H 0.51742 0.13784 0.28034 0.0
C704 C 0.62723 -0.02317 0.79392 0.0
C705 C 0.64207 0.96054 0.78676 0.0
C706 C 0.62299 -0.00545 0.77842 0.0
C707 C 0.62493 0.01151 0.71286 0.0
H708 H 0.61159 0.06794 0.74151 0.0
C709 C 0.57301 0.07551 0.66188 0.0
C710 C 0.57693 0.09779 0.66599 0.0
C711 C 0.5847 0.05966 0.67488 0.0
C712 C 0.6156 0.05244 0.73304 0.0
H713 H 0.66446 0.95041 0.75776 0.0
H714 H 0.65716 -0.01836 0.73065 0.0
H715 H 0.62606 0.03918 0.76781 0.0
H716 H 0.59693 0.12082 0.68624 0.0
H717 H 0.61765 0.09313 0.70858 0.0
H718 H 0.61457 0.02485 0.67803 0.0
C719 C 0.64864 -0.01953 0.74824 0.0
C720 C 0.62363 0.03582 0.74823 0.0
C721 C 0.65289 0.96264 0.76382 0.0
C722 C 0.59336 0.10381 0.68279 0.0
C723 C 0.60518 0.08792 0.69568 0.0
C724 C 0.617 0.02819 0.6976 0.0
C725 C 0.63353 -0.00342 0.75533 0.0
C726 C 0.62783 0.01497 0.73849 0.0
C727 C 0.60075 0.06564 0.69219 0.0
C728 C 0.61171 0.04871 0.70763 0.0
H729 H 0.61853 -0.0242 0.81141 0.0
H730 H 0.61095 0.00637 0.78431 0.0
H731 H 0.62791 -0.00436 0.70473 0.0
H732 H 0.56045 0.07026 0.64911 0.0
H733 H 0.58057 0.0427 0.67196 0.0
C734 C 0.07683 0.36084 0.3205 0.0
C735 C 0.09677 0.36508 0.30866 0.0
C736 C 0.06089 0.34834 0.30869 0.0
C737 C 0.05151 0.31177 0.25391 0.0
H738 H -0.00806 0.33168 0.26115 0.0
C739 C -0.01596 0.29932 0.18107 0.0
C740 C 0.96316 0.29349 0.18939 0.0
C741 C 0.00068 0.30349 0.19805 0.0
C742 C 0.00845 0.32568 0.25926 0.0
H743 H 0.11576 0.35926 0.27531 0.0
H744 H 0.08777 0.33829 0.25433 0.0
H745 H 0.02041 0.34811 0.28629 0.0
H746 H 0.94351 0.28673 0.222 0.0
H747 H -0.02739 0.29463 0.25183 0.0
H748 H 0.03947 0.29026 0.22568 0.0
C749 C 0.08455 0.34399 0.27302 0.0
C750 C 0.02482 0.33506 0.27373 0.0
C751 C 0.1006 0.35619 0.28499 0.0
C752 C 0.95947 0.29112 0.21506 0.0
C753 C -0.02396 0.29572 0.2321 0.0
C754 C 0.03516 0.30265 0.23917 0.0
C755 C 0.06436 0.34007 0.28458 0.0
C756 C 0.04666 0.32852 0.27095 0.0
C757 C -0.00331 0.30229 0.22372 0.0
C758 C 0.01354 0.30977 0.24144 0.0
H759 H 0.07347 0.36727 0.33886 0.0
H760 H 0.04576 0.34531 0.31843 0.0
H761 H 0.06801 0.30591 0.25163 0.0
H762 H -0.01262 0.30119 0.16139 0.0
H763 H 0.01639 0.30869 0.19109 0.0
C764 C 0.29004 -0.01896 0.76445 0.0
C765 C 0.30083 -0.0167 0.78736 0.0
C766 C 0.29454 0.96327 0.74889 0.0
C767 C 0.32022 0.90823 0.74895 0.0
H768 H 0.32823 0.91893 0.67849 0.0
C769 C 0.34954 0.84003 0.68314 0.0
C770 C 0.36562 0.84601 0.66582 0.0
C771 C 0.338 0.85595 0.69632 0.0
C772 C 0.32611 0.91566 0.69814 0.0
H773 H 0.32467 0.96844 0.8119 0.0
H774 H 0.33269 0.93798 0.7848 0.0
H775 H 0.31507 0.94817 0.70523 0.0
H776 H 0.38179 0.8735 0.6484 0.0
H777 H 0.36215 0.90111 0.67171 0.0
H778 H 0.33236 0.87614 0.7422 0.0
C779 C 0.32046 0.94961 0.77895 0.0
C780 C 0.31828 0.93237 0.71343 0.0
C781 C 0.31596 0.96726 0.79445 0.0
C782 C 0.36949 0.86827 0.66155 0.0
C783 C 0.35807 0.88416 0.67482 0.0
C784 C 0.32815 0.89158 0.73372 0.0
C785 C 0.30989 0.94739 0.75593 0.0
C786 C 0.31571 0.929 0.73913 0.0
C787 C 0.34236 0.87823 0.6926 0.0
C788 C 0.33164 0.89521 0.7082 0.0
H789 H 0.27825 -0.00694 0.75844 0.0
H790 H 0.28597 0.96196 0.73137 0.0
H791 H 0.31806 0.90493 0.76859 0.0
H792 H 0.34602 0.82303 0.68675 0.0
H793 H 0.32578 0.85078 0.70958 0.0
C794 C 0.83957 0.58842 0.28697 0.0
C795 C 0.84309 0.58048 0.31115 0.0
C796 C 0.85586 0.59998 0.27451 0.0
C797 C 0.91567 0.60835 0.27534 0.0
H798 H 0.90201 0.6517 0.22521 0.0
C799 C -0.01793 0.65091 0.21627 0.0
C800 C -0.02136 0.64863 0.19055 0.0
C801 C 0.96534 0.64618 0.23314 0.0
C802 C 0.90605 0.63968 0.23924 0.0
H803 H 0.86607 0.57939 0.34169 0.0
H804 H 0.89417 0.60022 0.32036 0.0
H805 H 0.87301 0.63709 0.25137 0.0
H806 H 0.95474 0.64075 0.16231 0.0
H807 H 0.92552 0.63298 0.19169 0.0
H808 H 0.94875 0.61107 0.2631 0.0
C809 C 0.87912 0.59693 0.31064 0.0
C810 C 0.88943 0.63117 0.25413 0.0
C811 C 0.86294 0.58509 0.32296 0.0
C812 C 0.95791 0.64254 0.18202 0.0
C813 C 0.94113 0.63823 0.19882 0.0
C814 C 0.93231 0.61711 0.26069 0.0
C815 C 0.87598 0.60419 0.28605 0.0
C816 C 0.89393 0.615 0.272 0.0
C817 C 0.94479 0.63956 0.22455 0.0
C818 C 0.92759 0.6325 0.24214 0.0
H819 H 0.8245 0.58505 0.27729 0.0
H820 H 0.85289 0.60493 0.25549 0.0
H821 H 0.91982 0.59571 0.28856 0.0
H822 H -0.00211 0.65551 0.22338 0.0
H823 H 0.96853 0.6474 0.2529 0.0
C824 C 0.63906 0.95931 0.17984 0.0
C825 C 0.64551 -0.02008 0.1885 0.0
C826 C 0.63517 0.94229 0.19648 0.0
C827 C 0.61599 0.93281 0.25904 0.0
H828 H 0.63469 0.87329 0.24761 0.0
C829 C 0.58449 0.86319 0.32101 0.0
C830 C 0.57891 0.84368 0.30894 0.0
C831 C 0.59654 0.87918 0.30865 0.0
C832 C 0.62915 0.88978 0.25098 0.0
H833 H 0.65352 -0.00131 0.22138 0.0
H834 H 0.64617 0.96891 0.25065 0.0
H835 H 0.64887 0.90255 0.22145 0.0
H836 H 0.58212 0.8254 0.27464 0.0
H837 H 0.60238 0.85353 0.25276 0.0
H838 H 0.59535 0.92018 0.28753 0.0
C839 C 0.64432 0.966 0.2309 0.0
C840 C 0.63741 0.90653 0.23608 0.0
C841 C 0.6486 -0.01703 0.21416 0.0
C842 C 0.58624 0.84022 0.2845 0.0
C843 C 0.59801 0.85635 0.27199 0.0
C844 C 0.60748 0.91605 0.2737 0.0
C845 C 0.63733 0.94558 0.2222 0.0
C846 C 0.63066 0.92817 0.23974 0.0
C847 C 0.60302 0.87622 0.28375 0.0
C848 C 0.61368 0.89423 0.26963 0.0
H849 H 0.63666 0.9564 0.16016 0.0
H850 H 0.62962 0.92679 0.18928 0.0
H851 H 0.61027 0.94931 0.26205 0.0
H852 H 0.5793 0.86625 0.33995 0.0
H853 H 0.60051 0.894 0.31855 0.0
C854 C 0.8405 0.35411 0.68397 0.0
C855 C 0.84441 0.36327 0.66043 0.0
C856 C 0.85651 0.34173 0.69584 0.0
C857 C 0.91624 0.33315 0.69554 0.0
H858 H 0.90173 0.2877 0.74285 0.0
C859 C -0.01821 0.29016 0.75485 0.0
C860 C -0.02241 0.29187 0.78048 0.0
C861 C 0.96534 0.29454 0.73755 0.0
C862 C 0.90601 0.30027 0.72957 0.0
H863 H 0.86781 0.36567 0.63034 0.0
H864 H 0.89546 0.34346 0.65064 0.0
H865 H 0.87322 0.30335 0.71676 0.0
H866 H 0.95261 0.29812 0.8081 0.0
H867 H 0.92389 0.3053 0.77796 0.0
H868 H 0.94902 0.33006 0.70852 0.0
C869 C 0.88029 0.34639 0.66033 0.0
C870 C 0.88967 0.30938 0.71474 0.0
C871 C 0.86438 0.35904 0.6486 0.0
C872 C 0.95636 0.29678 0.78846 0.0
C873 C 0.93988 0.30076 0.77122 0.0
C874 C 0.93259 0.32383 0.71011 0.0
C875 C 0.87675 0.33792 0.68434 0.0
C876 C 0.89446 0.32635 0.69798 0.0
C877 C 0.94433 0.30027 0.74561 0.0
C878 C 0.92755 0.30768 0.7277 0.0
H879 H 0.82533 0.35714 0.69365 0.0
H880 H 0.85324 0.33584 0.71446 0.0
H881 H 0.92059 0.34639 0.68318 0.0
H882 H -0.00199 0.28648 0.74815 0.0
H883 H 0.96915 0.29397 0.71788 0.0
C884 C 0.35499 0.0982 0.29227 0.0
C885 C 0.37129 0.09347 0.30983 0.0
C886 C 0.34436 0.08137 0.2796 0.0
C887 C 0.35488 0.02605 0.25828 0.0
H888 H 0.29323 0.02414 0.24298 0.0
C889 C 0.3214 -0.0254 0.17861 0.0
C890 C 0.30412 0.96037 0.18408 0.0
C891 C 0.3277 -0.00944 0.19554 0.0
C892 C 0.31043 0.02443 0.2473 0.0
H893 H 0.38842 0.06724 0.32862 0.0
H894 H 0.37002 0.03806 0.30644 0.0
H895 H 0.30734 0.0526 0.27076 0.0
H896 H 0.2794 0.95234 0.21142 0.0
H897 H 0.29035 -0.01926 0.24105 0.0
H898 H 0.35816 -0.00168 0.2345 0.0
C899 C 0.36559 0.05477 0.30235 0.0
C900 C 0.31851 0.04075 0.263 0.0
C901 C 0.37608 0.07153 0.31511 0.0
C902 C 0.29283 0.96298 0.20668 0.0
C903 C 0.29901 -0.02076 0.22358 0.0
C904 C 0.34688 0.01 0.24241 0.0
C905 C 0.34994 0.0595 0.28411 0.0
C906 C 0.34086 0.04176 0.26853 0.0
C907 C 0.31677 -0.0071 0.21829 0.0
C908 C 0.32464 0.00914 0.23655 0.0
H909 H 0.35082 0.1149 0.28782 0.0
H910 H 0.33245 0.08549 0.26552 0.0
H911 H 0.37219 0.02654 0.26196 0.0
H912 H 0.33047 -0.02683 0.1614 0.0
H913 H 0.34127 0.00105 0.19087 0.0
C914 C 0.10437 0.58919 0.68347 0.0
C915 C 0.10098 0.58262 0.65876 0.0
C916 C 0.08837 0.60088 0.69628 0.0
C917 C 0.029 0.61133 0.69488 0.0
H918 H 0.04312 0.65146 0.74814 0.0
C919 C 0.96288 0.65189 0.75603 0.0
C920 C 0.96609 0.64838 0.78161 0.0
C921 C -0.02033 0.64772 0.73906 0.0
C922 C 0.03896 0.64035 0.73324 0.0
H923 H 0.07859 0.58419 0.62766 0.0
H924 H 0.051 0.6052 0.64967 0.0
H925 H 0.07207 0.63748 0.72141 0.0
H926 H -0.01031 0.63882 0.80955 0.0
H927 H 0.019 0.63194 0.78001 0.0
H928 H -0.00413 0.61423 0.70686 0.0
C929 C 0.06573 0.60075 0.65948 0.0
C930 C 0.05553 0.63222 0.718 0.0
C931 C 0.08162 0.58881 0.64678 0.0
C932 C -0.01333 0.64157 0.78995 0.0
C933 C 0.00351 0.63777 0.77306 0.0
C934 C 0.01241 0.61969 0.7099 0.0
C935 C 0.06867 0.60654 0.68458 0.0
C936 C 0.05084 0.61718 0.69899 0.0
C937 C 7e-05 0.64038 0.74742 0.0
C938 C 0.01729 0.63389 0.72957 0.0
H939 H 0.11906 0.58461 0.69329 0.0
H940 H 0.09116 0.6047 0.71566 0.0
H941 H 0.02472 0.59954 0.68074 0.0
H942 H 0.94719 0.65709 0.74905 0.0
H943 H -0.02336 0.64994 0.71938 0.0
C944 C 0.17686 0.52669 0.55325 0.0
C945 C 0.18806 0.51988 0.57466 0.0
C946 C 0.17956 0.51563 0.53073 0.0
C947 C 0.19553 0.49509 0.48254 0.0
H948 H 0.19299 0.432 0.48582 0.0
C949 C 0.2008 0.44137 0.39451 0.0
C950 C 0.18507 0.42483 0.39283 0.0
C951 C 0.20399 0.45255 0.41687 0.0
C952 C 0.19373 0.4496 0.48461 0.0
H953 H 0.21152 0.49662 0.58903 0.0
H954 H 0.21626 0.47737 0.54966 0.0
H955 H 0.19345 0.45319 0.52419 0.0
H956 H 0.16083 0.40659 0.41347 0.0
H957 H 0.16637 0.42608 0.45243 0.0
H958 H 0.19509 0.49151 0.44294 0.0
C959 C 0.2052 0.49111 0.55037 0.0
C960 C 0.19423 0.46174 0.50658 0.0
C961 C 0.20256 0.50222 0.57288 0.0
C962 C 0.17307 0.41925 0.41416 0.0
C963 C 0.17634 0.43035 0.43652 0.0
C964 C 0.19513 0.48294 0.46056 0.0
C965 C 0.19348 0.49749 0.52915 0.0
C966 C 0.1948 0.48463 0.50579 0.0
C967 C 0.19162 0.44731 0.43804 0.0
C968 C 0.19388 0.46008 0.46136 0.0
H969 H 0.16558 0.54022 0.55399 0.0
H970 H 0.17012 0.52084 0.51479 0.0
H971 H 0.19618 0.51269 0.48133 0.0
H972 H 0.21036 0.44601 0.37842 0.0
H973 H 0.21607 0.46537 0.41754 0.0
C974 C 0.50598 0.74022 0.40024 0.0
C975 C 0.51583 0.76008 0.39366 0.0
C976 C 0.49374 0.73856 0.42214 0.0
C977 C 0.45832 0.76895 0.46147 0.0
H978 H 0.47517 0.73225 0.51692 0.0
C979 C 0.419 0.77899 0.55771 0.0
C980 C 0.4173 0.76093 0.57362 0.0
C981 C 0.42991 0.77726 0.53502 0.0
C982 C 0.46989 0.74224 0.50147 0.0
H983 H 0.5207 0.79368 0.40482 0.0
H984 H 0.49873 0.79088 0.44263 0.0
H985 H 0.49662 0.73174 0.47864 0.0
H986 H 0.42497 0.72669 0.57792 0.0
H987 H 0.44315 0.7233 0.53771 0.0
H988 H 0.4313 0.7791 0.48356 0.0
C989 C 0.50077 0.77661 0.43099 0.0
C990 C 0.48231 0.74202 0.47964 0.0
C991 C 0.51339 0.77815 0.40946 0.0
C992 C 0.42616 0.74091 0.56605 0.0
C993 C 0.43674 0.73905 0.54308 0.0
C994 C 0.44563 0.76885 0.48302 0.0
C995 C 0.49078 0.75685 0.43741 0.0
C996 C 0.47682 0.75568 0.45971 0.0
C997 C 0.43903 0.75729 0.52738 0.0
C998 C 0.45148 0.75586 0.50357 0.0
H999 H 0.50763 0.72604 0.38839 0.0
H1000 H 0.48613 0.72318 0.42681 0.0
H1001 H 0.45371 0.77944 0.44613 0.0
H1002 H 0.41252 0.79471 0.56314 0.0
H1003 H 0.43169 0.79183 0.52385 0.0
C1004 C 0.76642 0.52774 0.41761 0.0
C1005 C 0.75473 0.52147 0.39636 0.0
C1006 C 0.76368 0.51661 0.44008 0.0
C1007 C 0.74761 0.49633 0.48838 0.0
H1008 H 0.74809 0.43322 0.48476 0.0
C1009 C 0.74134 0.44246 0.57626 0.0
C1010 C 0.75654 0.42538 0.57772 0.0
C1011 C 0.73831 0.45381 0.55396 0.0
C1012 C 0.74793 0.45082 0.48607 0.0
H1013 H 0.7304 0.49911 0.38224 0.0
H1014 H 0.72558 0.47972 0.4215 0.0
H1015 H 0.74793 0.45461 0.4465 0.0
H1016 H 0.77998 0.40635 0.55675 0.0
H1017 H 0.77472 0.42614 0.5179 0.0
H1018 H 0.74829 0.49254 0.52795 0.0
C1019 C 0.73704 0.49309 0.42069 0.0
C1020 C 0.74761 0.46309 0.46416 0.0
C1021 C 0.73972 0.50428 0.39824 0.0
C1022 C 0.76814 0.41943 0.55624 0.0
C1023 C 0.76504 0.4307 0.53393 0.0
C1024 C 0.74782 0.48407 0.51029 0.0
C1025 C 0.74923 0.49893 0.44177 0.0
C1026 C 0.74776 0.48598 0.46506 0.0
C1027 C 0.75033 0.44822 0.53262 0.0
C1028 C 0.74831 0.46117 0.50938 0.0
H1029 H 0.77812 0.54093 0.41676 0.0
H1030 H 0.77346 0.52138 0.4559 0.0
H1031 H 0.74752 0.51394 0.48968 0.0
H1032 H 0.73209 0.44739 0.59247 0.0
H1033 H 0.72667 0.46706 0.55346 0.0
C1034 C 0.42922 0.16335 0.41135 0.0
C1035 C 0.42486 0.18151 0.39621 0.0
C1036 C 0.44195 0.16553 0.43267 0.0
C1037 C 0.45813 0.20083 0.4819 0.0
H1038 H 0.51114 0.1666 0.4847 0.0
C1039 C 0.51435 0.20298 0.56818 0.0
C1040 C 0.52398 0.18316 0.57524 0.0
C1041 C 0.50371 0.20488 0.54526 0.0
C1042 C 0.49627 0.17606 0.48445 0.0
H1043 H 0.42972 0.21629 0.39194 0.0
H1044 H 0.45145 0.2202 0.43003 0.0
H1045 H 0.48867 0.16567 0.44741 0.0
H1046 H 0.53009 0.14982 0.5639 0.0
H1047 H 0.51091 0.15277 0.52468 0.0
H1048 H 0.46487 0.21032 0.51935 0.0
C1049 C 0.44524 0.20429 0.42498 0.0
C1050 C 0.48353 0.17564 0.46298 0.0
C1051 C 0.43288 0.20204 0.40327 0.0
C1052 C 0.523 0.16539 0.55888 0.0
C1053 C 0.51209 0.16715 0.53623 0.0
C1054 C 0.47064 0.20093 0.50363 0.0
C1055 C 0.45015 0.18597 0.43957 0.0
C1056 C 0.46426 0.18781 0.46165 0.0
C1057 C 0.50219 0.18689 0.5291 0.0
C1058 C 0.48974 0.18828 0.50533 0.0
H1059 H 0.42334 0.14731 0.40634 0.0
H1060 H 0.44547 0.15122 0.44378 0.0
H1061 H 0.44323 0.21027 0.48124 0.0
H1062 H 0.51496 0.21699 0.58039 0.0
H1063 H 0.49665 0.22045 0.54029 0.0
C1064 C 0.69697 0.00131 0.07362 0.0
C1065 C 0.68121 0.01774 0.0765 0.0
C1066 C 0.69846 -0.0104 0.05136 0.0
C1067 C 0.66486 -0.02617 -0.00222 0.0
H1068 H 0.71974 0.95685 0.96783 0.0
C1069 C 0.66794 0.91395 0.91579 0.0
C1070 C 0.68137 0.91984 0.89574 0.0
C1071 C 0.66944 0.92489 0.9385 0.0
C1072 C 0.70429 0.96154 0.97594 0.0
H1073 H 0.65532 0.03542 0.05794 0.0
H1074 H 0.65808 0.0152 0.0191 0.0
H1075 H 0.71965 -0.02076 0.00545 0.0
H1076 H 0.70754 0.94124 0.88409 0.0
H1077 H 0.71004 0.96046 0.92368 0.0
H1078 H 0.64945 0.95654 0.96816 0.0
C1079 C 0.66901 0.01107 0.03418 0.0
C1080 C 0.70425 -0.0258 -0.00242 0.0
C1081 C 0.66753 0.02276 0.05638 0.0
C1082 C 0.69692 0.93634 0.89917 0.0
C1083 C 0.69843 0.94729 0.92191 0.0
C1084 C 0.66491 0.96115 0.97625 0.0
C1085 C 0.68421 -0.00591 0.03157 0.0
C1086 C 0.68451 -0.01941 0.00865 0.0
C1087 C 0.68442 0.94196 0.94167 0.0
C1088 C 0.68461 0.95488 0.96504 0.0
H1089 H 0.70776 -0.00293 0.08879 0.0
H1090 H 0.71027 -0.02346 0.04998 0.0
H1091 H 0.64938 -0.0218 0.00604 0.0
H1092 H 0.65588 0.9012 0.9138 0.0
H1093 H 0.65866 0.92015 0.9535 0.0
C1094 C 0.00976 0.24109 0.90105 0.0
C1095 C 0.01797 0.26137 0.89333 0.0
C1096 C -0.00209 0.23934 0.92323 0.0
C1097 C 0.96128 0.26939 0.96224 0.0
H1098 H -0.01974 0.23422 0.01808 0.0
C1099 C 0.92362 0.28027 0.05918 0.0
C1100 C 0.92242 0.2624 0.07541 0.0
C1101 C 0.93431 0.27843 0.03635 0.0
C1102 C -0.02559 0.24378 0.00254 0.0
H1103 H 0.02034 0.29566 0.90279 0.0
H1104 H -0.00089 0.29264 0.94104 0.0
H1105 H 0.00097 0.2336 0.97926 0.0
H1106 H 0.93087 0.22838 0.08022 0.0
H1107 H 0.94872 0.22482 0.03984 0.0
H1108 H 0.93447 0.27925 0.98484 0.0
C1109 C 0.00208 0.27812 0.93008 0.0
C1110 C -0.01361 0.24348 0.98038 0.0
C1111 C 0.0143 0.27979 0.90828 0.0
C1112 C 0.93167 0.24247 0.0681 0.0
C1113 C 0.94205 0.2405 0.04502 0.0
C1114 C 0.94906 0.26937 0.98414 0.0
C1115 C -0.00631 0.25794 0.93765 0.0
C1116 C -0.01987 0.25663 0.96029 0.0
C1117 C 0.94372 0.25854 0.02892 0.0
C1118 C 0.9557 0.25695 0.00483 0.0
H1119 H 0.01239 0.22664 0.88989 0.0
H1120 H -0.00845 0.22362 0.92879 0.0
H1121 H 0.95605 0.27947 0.9468 0.0
H1122 H 0.91685 0.29592 0.0644 0.0
H1123 H 0.93564 0.29286 0.02486 0.0
C1124 C 0.24175 0.00605 0.89673 0.0
C1125 C 0.25747 0.02257 0.8946 0.0
C1126 C 0.23894 -0.00511 0.91917 0.0
C1127 C 0.25067 -0.00271 -0.01337 0.0
H1128 H 0.24777 0.93426 0.98256 0.0
C1129 C 0.24272 0.94323 0.07419 0.0
C1130 C 0.25709 0.92542 0.07525 0.0
C1131 C 0.23996 0.95486 0.05204 0.0
C1132 C 0.24856 0.95185 0.984 0.0
H1133 H 0.28204 0.04085 0.91457 0.0
H1134 H 0.27719 0.02132 0.95372 0.0
H1135 H 0.24829 0.95586 0.94447 0.0
H1136 H 0.27926 0.90538 0.05371 0.0
H1137 H 0.27445 0.92565 0.01512 0.0
H1138 H 0.25163 -0.00678 0.02616 0.0
C1139 C 0.26694 0.01708 0.93808 0.0
C1140 C 0.24864 0.96424 0.96219 0.0
C1141 C 0.2698 0.0282 0.91562 0.0
C1142 C 0.26807 0.91904 0.05351 0.0
C1143 C 0.26523 0.93058 0.03135 0.0
C1144 C 0.2505 -0.0151 0.00845 0.0
C1145 C 0.25172 7e-05 0.94 0.0
C1146 C 0.25 -0.01291 0.96324 0.0
C1147 C 0.2514 0.94883 0.03045 0.0
C1148 C 0.24976 0.96202 0.00736 0.0
H1149 H 0.23191 0.00139 0.8809 0.0
H1150 H 0.22688 -0.01793 0.92015 0.0
H1151 H 0.25152 0.01487 -0.01195 0.0
H1152 H 0.23397 0.94852 0.09062 0.0
H1153 H 0.22899 0.96869 0.05184 0.0
C1154 C 0.92026 0.67348 0.91482 0.0
C1155 C 0.92655 0.68552 0.89378 0.0
C1156 C 0.93067 0.67659 0.93762 0.0
C1157 C 0.94879 0.69375 -0.01349 0.0
H1158 H 0.01188 0.69494 -0.01471 0.0
C1159 C -0.00011 0.70173 0.07625 0.0
C1160 C 0.01705 0.68669 0.07847 0.0
C1161 C -0.01084 0.70448 0.05353 0.0
C1162 C -0.00573 0.69466 -0.01408 0.0
H1163 H 0.94828 0.71075 0.88032 0.0
H1164 H 0.96651 0.71616 0.92019 0.0
H1165 H -0.00831 0.69439 0.94622 0.0
H1166 H 0.03688 0.66329 0.05843 0.0
H1167 H 0.01821 0.66812 0.01884 0.0
H1168 H 0.9514 0.69336 0.02622 0.0
C1169 C 0.95362 0.70419 0.91896 0.0
C1170 C -0.0173 0.69455 0.96356 0.0
C1171 C 0.9431 0.70116 0.89618 0.0
C1172 C 0.0237 0.67499 0.05733 0.0
C1173 C 0.01308 0.67785 0.03461 0.0
C1174 C 0.96036 0.69398 0.00888 0.0
C1175 C 0.94769 0.69175 0.93986 0.0
C1176 C 0.95984 0.69375 0.96361 0.0
C1177 C -0.00451 0.69239 0.03253 0.0
C1178 C -0.01677 0.69409 0.00882 0.0
H1179 H 0.90755 0.66131 0.91358 0.0
H1180 H 0.92588 0.6666 0.95331 0.0
H1181 H 0.93119 0.69333 -0.01286 0.0
H1182 H -0.00559 0.71103 0.09219 0.0
H1183 H -0.0242 0.71597 0.05243 0.0
loop_
_geom_bond_atom_site_label_1
_geom_bond_atom_site_label_2
_geom_bond_distance
_geom_bond_site_symmetry_2
_ccdc_geom_bond_type
C0 O1 1.306 . S
C0 O3 1.160 . S
O1 C0 1.306 . S
O1 Cd2 2.228 . S
Cd2 O1 2.228 . S
Cd2 O6 2.273 . S
Cd2 O10 2.277 . S
O3 C0 1.160 . S
O3 Cd4 2.203 . S
Cd4 O3 2.203 . S
Cd4 O6 2.411 . S
Cd4 O7 2.333 . S
Cd4 O8 2.352 . S
Cd4 O12 2.277 . S
Cd4 O13 2.356 . S
C5 O10 1.209 . S
C5 O12 1.226 . S
O6 Cd2 2.273 . S
O6 Cd4 2.411 . S
O6 C9 1.320 . S
O7 Cd4 2.333 . S
O7 C9 1.214 . S
O8 Cd4 2.352 . S
O8 C11 1.258 . S
C9 O6 1.320 . S
C9 O7 1.214 . S
O10 Cd2 2.277 . S
O10 C5 1.209 . S
C11 O8 1.258 . S
C11 O13 1.282 . S
O12 Cd4 2.277 . S
O12 C5 1.226 . S
O13 Cd4 2.356 . S
O13 C11 1.282 . S
C14 O15 1.306 . S
C14 O17 1.160 . S
O15 C14 1.306 . S
O15 Cd16 2.228 . S
Cd16 O15 2.228 . S
Cd16 O20 2.273 . S
Cd16 O24 2.277 . S
O17 C14 1.160 . S
O17 Cd18 2.203 . S
Cd18 O17 2.203 . S
Cd18 O20 2.411 . S
Cd18 O21 2.333 . S
Cd18 O22 2.352 . S
Cd18 O26 2.277 . S
Cd18 O27 2.356 . S
C19 O24 1.209 . S
C19 O26 1.226 . S
O20 Cd16 2.273 . S
O20 Cd18 2.411 . S
O20 C23 1.320 . S
O21 Cd18 2.333 . S
O21 C23 1.214 . S
O22 Cd18 2.352 . S
O22 C25 1.258 . S
C23 O20 1.320 . S
C23 O21 1.214 . S
O24 Cd16 2.277 . S
O24 C19 1.209 . S
C25 O22 1.258 . S
C25 O27 1.282 . S
O26 Cd18 2.277 . S
O26 C19 1.226 . S
O27 Cd18 2.356 . S
O27 C25 1.282 . S
C28 O29 1.306 . S
C28 O31 1.160 . S
O29 C28 1.306 . S
O29 Cd30 2.228 . S
Cd30 O29 2.228 . S
Cd30 O34 2.273 . S
Cd30 O38 2.277 . S
O31 C28 1.160 . S
O31 Cd32 2.203 . S
Cd32 O31 2.203 . S
Cd32 O34 2.411 . S
Cd32 O35 2.333 . S
Cd32 O36 2.352 . S
Cd32 O40 2.277 . S
Cd32 O41 2.356 . S
C33 O38 1.209 . S
C33 O40 1.226 . S
O34 Cd30 2.273 . S
O34 Cd32 2.411 . S
O34 C37 1.320 . S
O35 Cd32 2.333 . S
O35 C37 1.214 . S
O36 Cd32 2.352 . S
O36 C39 1.258 . S
C37 O34 1.320 . S
C37 O35 1.214 . S
O38 Cd30 2.277 . S
O38 C33 1.209 . S
C39 O36 1.258 . S
C39 O41 1.282 . S
O40 Cd32 2.277 . S
O40 C33 1.226 . S
O41 Cd32 2.356 . S
O41 C39 1.282 . S
C42 O43 1.306 . S
C42 O45 1.160 . S
O43 C42 1.306 . S
O43 Cd44 2.228 . S
Cd44 O43 2.228 . S
Cd44 O48 2.273 . S
Cd44 O52 2.277 . S
O45 C42 1.160 . S
O45 Cd46 2.203 . S
Cd46 O45 2.203 . S
Cd46 O48 2.411 . S
Cd46 O49 2.333 . S
Cd46 O50 2.352 . S
Cd46 O54 2.277 . S
Cd46 O55 2.356 . S
C47 O52 1.209 . S
C47 O54 1.226 . S
O48 Cd44 2.273 . S
O48 Cd46 2.411 . S
O48 C51 1.320 . S
O49 Cd46 2.333 . S
O49 C51 1.214 . S
O50 Cd46 2.352 . S
O50 C53 1.258 . S
C51 O48 1.320 . S
C51 O49 1.214 . S
O52 Cd44 2.277 . S
O52 C47 1.209 . S
C53 O50 1.258 . S
C53 O55 1.282 . S
O54 Cd46 2.277 . S
O54 C47 1.226 . S
O55 Cd46 2.356 . S
O55 C53 1.282 . S
C56 O57 1.306 . S
C56 O59 1.160 . S
O57 C56 1.306 . S
O57 Cd58 2.228 . S
Cd58 O57 2.228 . S
Cd58 O62 2.273 . S
Cd58 O66 2.277 . S
O59 C56 1.160 . S
O59 Cd60 2.203 . S
Cd60 O59 2.203 . S
Cd60 O62 2.411 . S
Cd60 O63 2.333 . S
Cd60 O64 2.352 . S
Cd60 O68 2.277 . S
Cd60 O69 2.356 . S
C61 O66 1.209 . S
C61 O68 1.226 . S
O62 Cd58 2.273 . S
O62 Cd60 2.411 . S
O62 C65 1.320 . S
O63 Cd60 2.333 . S
O63 C65 1.214 . S
O64 Cd60 2.352 . S
O64 C67 1.258 . S
C65 O62 1.320 . S
C65 O63 1.214 . S
O66 Cd58 2.277 . S
O66 C61 1.209 . S
C67 O64 1.258 . S
C67 O69 1.282 . S
O68 Cd60 2.277 . S
O68 C61 1.226 . S
O69 Cd60 2.356 . S
O69 C67 1.282 . S
C70 O71 1.306 . S
C70 O73 1.160 . S
O71 C70 1.306 . S
O71 Cd72 2.228 . S
Cd72 O71 2.228 . S
Cd72 O76 2.273 . S
Cd72 O80 2.277 . S
O73 C70 1.160 . S
O73 Cd74 2.203 . S
Cd74 O73 2.203 . S
Cd74 O76 2.411 . S
Cd74 O77 2.333 . S
Cd74 O78 2.352 . S
Cd74 O82 2.277 . S
Cd74 O83 2.356 . S
C75 O80 1.209 . S
C75 O82 1.226 . S
O76 Cd72 2.273 . S
O76 Cd74 2.411 . S
O76 C79 1.320 . S
O77 Cd74 2.333 . S
O77 C79 1.214 . S
O78 Cd74 2.352 . S
O78 C81 1.258 . S
C79 O76 1.320 . S
C79 O77 1.214 . S
O80 Cd72 2.277 . S
O80 C75 1.209 . S
C81 O78 1.258 . S
C81 O83 1.282 . S
O82 Cd74 2.277 . S
O82 C75 1.226 . S
O83 Cd74 2.356 . S
O83 C81 1.282 . S
C84 O85 1.306 . S
C84 O87 1.160 . S
O85 C84 1.306 . S
O85 Cd86 2.228 . S
Cd86 O85 2.228 . S
Cd86 O90 2.273 . S
Cd86 O94 2.277 . S
O87 C84 1.160 . S
O87 Cd88 2.203 . S
Cd88 O87 2.203 . S
Cd88 O90 2.411 . S
Cd88 O91 2.333 . S
Cd88 O92 2.352 . S
Cd88 O96 2.277 . S
Cd88 O97 2.356 . S
C89 O94 1.209 . S
C89 O96 1.226 . S
O90 Cd86 2.273 . S
O90 Cd88 2.411 . S
O90 C93 1.320 . S
O91 Cd88 2.333 . S
O91 C93 1.214 . S
O92 Cd88 2.352 . S
O92 C95 1.258 . S
C93 O90 1.320 . S
C93 O91 1.214 . S
O94 Cd86 2.277 . S
O94 C89 1.209 . S
C95 O92 1.258 . S
C95 O97 1.282 . S
O96 Cd88 2.277 . S
O96 C89 1.226 . S
O97 Cd88 2.356 . S
O97 C95 1.282 . S
C98 O99 1.306 . S
C98 O101 1.160 . S
O99 C98 1.306 . S
O99 Cd100 2.228 . S
Cd100 O99 2.228 . S
Cd100 O104 2.273 . S
Cd100 O108 2.277 . S
O101 C98 1.160 . S
O101 Cd102 2.203 . S
Cd102 O101 2.203 . S
Cd102 O104 2.411 . S
Cd102 O105 2.333 . S
Cd102 O106 2.352 . S
Cd102 O110 2.277 . S
Cd102 O111 2.356 . S
C103 O108 1.209 . S
C103 O110 1.226 . S
O104 Cd100 2.273 . S
O104 Cd102 2.411 . S
O104 C107 1.320 . S
O105 Cd102 2.333 . S
O105 C107 1.214 . S
O106 Cd102 2.352 . S
O106 C109 1.258 . S
C107 O104 1.320 . S
C107 O105 1.214 . S
O108 Cd100 2.277 . S
O108 C103 1.209 . S
C109 O106 1.258 . S
C109 O111 1.282 . S
O110 Cd102 2.277 . S
O110 C103 1.226 . S
O111 Cd102 2.356 . S
O111 C109 1.282 . S
C112 O113 1.306 . S
C112 O115 1.160 . S
O113 C112 1.306 . S
O113 Cd114 2.228 . S
Cd114 O113 2.228 . S
Cd114 O118 2.273 . S
Cd114 O122 2.277 . S
O115 C112 1.160 . S
O115 Cd116 2.203 . S
Cd116 O115 2.203 . S
Cd116 O118 2.411 . S
Cd116 O119 2.333 . S
Cd116 O120 2.352 . S
Cd116 O124 2.277 . S
Cd116 O125 2.356 . S
C117 O122 1.209 . S
C117 O124 1.226 . S
O118 Cd114 2.273 . S
O118 Cd116 2.411 . S
O118 C121 1.320 . S
O119 Cd116 2.333 . S
O119 C121 1.214 . S
O120 Cd116 2.352 . S
O120 C123 1.258 . S
C121 O118 1.320 . S
C121 O119 1.214 . S
O122 Cd114 2.277 . S
O122 C117 1.209 . S
C123 O120 1.258 . S
C123 O125 1.282 . S
O124 Cd116 2.277 . S
O124 C117 1.226 . S
O125 Cd116 2.356 . S
O125 C123 1.282 . S
C126 O127 1.306 . S
C126 O129 1.160 . S
O127 C126 1.306 . S
O127 Cd128 2.228 . S
Cd128 O127 2.228 . S
Cd128 O132 2.273 . S
Cd128 O136 2.277 . S
O129 C126 1.160 . S
O129 Cd130 2.203 . S
Cd130 O129 2.203 . S
Cd130 O132 2.411 . S
Cd130 O133 2.333 . S
Cd130 O134 2.352 . S
Cd130 O138 2.277 . S
Cd130 O139 2.356 . S
C131 O136 1.209 . S
C131 O138 1.226 . S
O132 Cd128 2.273 . S
O132 Cd130 2.411 . S
O132 C135 1.320 . S
O133 Cd130 2.333 . S
O133 C135 1.214 . S
O134 Cd130 2.352 . S
O134 C137 1.258 . S
C135 O132 1.320 . S
C135 O133 1.214 . S
O136 Cd128 2.277 . S
O136 C131 1.209 . S
C137 O134 1.258 . S
C137 O139 1.282 . S
O138 Cd130 2.277 . S
O138 C131 1.226 . S
O139 Cd130 2.356 . S
O139 C137 1.282 . S
C140 O141 1.306 . S
C140 O143 1.160 . S
O141 C140 1.306 . S
O141 Cd142 2.228 . S
Cd142 O141 2.228 . S
Cd142 O146 2.273 . S
Cd142 O150 2.277 . S
O143 C140 1.160 . S
O143 Cd144 2.203 . S
Cd144 O143 2.203 . S
Cd144 O146 2.411 . S
Cd144 O147 2.333 . S
Cd144 O148 2.352 . S
Cd144 O152 2.277 . S
Cd144 O153 2.356 . S
C145 O150 1.209 . S
C145 O152 1.226 . S
O146 Cd142 2.273 . S
O146 Cd144 2.411 . S
O146 C149 1.320 . S
O147 Cd144 2.333 . S
O147 C149 1.214 . S
O148 Cd144 2.352 . S
O148 C151 1.258 . S
C149 O146 1.320 . S
C149 O147 1.214 . S
O150 Cd142 2.277 . S
O150 C145 1.209 . S
C151 O148 1.258 . S
C151 O153 1.282 . S
O152 Cd144 2.277 . S
O152 C145 1.226 . S
O153 Cd144 2.356 . S
O153 C151 1.282 . S
C154 O155 1.306 . S
C154 O157 1.160 . S
O155 C154 1.306 . S
O155 Cd156 2.228 . S
Cd156 O155 2.228 . S
Cd156 O160 2.273 . S
Cd156 O164 2.277 . S
O157 C154 1.160 . S
O157 Cd158 2.203 . S
Cd158 O157 2.203 . S
Cd158 O160 2.411 . S
Cd158 O161 2.333 . S
Cd158 O162 2.352 . S
Cd158 O166 2.277 . S
Cd158 O167 2.356 . S
C159 O164 1.209 . S
C159 O166 1.226 . S
O160 Cd156 2.273 . S
O160 Cd158 2.411 . S
O160 C163 1.320 . S
O161 Cd158 2.333 . S
O161 C163 1.214 . S
O162 Cd158 2.352 . S
O162 C165 1.258 . S
C163 O160 1.320 . S
C163 O161 1.214 . S
O164 Cd156 2.277 . S
O164 C159 1.209 . S
C165 O162 1.258 . S
C165 O167 1.282 . S
O166 Cd158 2.277 . S
O166 C159 1.226 . S
O167 Cd158 2.356 . S
O167 C165 1.282 . S
C168 O169 1.306 . S
C168 O171 1.160 . S
O169 C168 1.306 . S
O169 Cd170 2.228 . S
Cd170 O169 2.228 . S
Cd170 O174 2.273 . S
Cd170 O178 2.277 . S
O171 C168 1.160 . S
O171 Cd172 2.203 . S
Cd172 O171 2.203 . S
Cd172 O174 2.411 . S
Cd172 O175 2.333 . S
Cd172 O176 2.352 . S
Cd172 O180 2.277 . S
Cd172 O181 2.356 . S
C173 O178 1.209 . S
C173 O180 1.226 . S
O174 Cd170 2.273 . S
O174 Cd172 2.411 . S
O174 C177 1.320 . S
O175 Cd172 2.333 . S
O175 C177 1.214 . S
O176 Cd172 2.352 . S
O176 C179 1.258 . S
C177 O174 1.320 . S
C177 O175 1.214 . S
O178 Cd170 2.277 . S
O178 C173 1.209 . S
C179 O176 1.258 . S
C179 O181 1.282 . S
O180 Cd172 2.277 . S
O180 C173 1.226 . S
O181 Cd172 2.356 . S
O181 C179 1.282 . S
C182 O183 1.306 . S
C182 O185 1.160 . S
O183 C182 1.306 . S
O183 Cd184 2.228 . S
Cd184 O183 2.228 . S
Cd184 O188 2.273 . S
Cd184 O192 2.277 . S
O185 C182 1.160 . S
O185 Cd186 2.203 . S
Cd186 O185 2.203 . S
Cd186 O188 2.411 . S
Cd186 O189 2.333 . S
Cd186 O190 2.352 . S
Cd186 O194 2.277 . S
Cd186 O195 2.356 . S
C187 O192 1.209 . S
C187 O194 1.226 . S
O188 Cd184 2.273 . S
O188 Cd186 2.411 . S
O188 C191 1.320 . S
O189 Cd186 2.333 . S
O189 C191 1.214 . S
O190 Cd186 2.352 . S
O190 C193 1.258 . S
C191 O188 1.320 . S
C191 O189 1.214 . S
O192 Cd184 2.277 . S
O192 C187 1.209 . S
C193 O190 1.258 . S
C193 O195 1.282 . S
O194 Cd186 2.277 . S
O194 C187 1.226 . S
O195 Cd186 2.356 . S
O195 C193 1.282 . S
C196 O197 1.306 . S
C196 O199 1.160 . S
O197 C196 1.306 . S
O197 Cd198 2.228 . S
Cd198 O197 2.228 . S
Cd198 O202 2.273 . S
Cd198 O206 2.277 . S
O199 C196 1.160 . S
O199 Cd200 2.203 . S
Cd200 O199 2.203 . S
Cd200 O202 2.411 . S
Cd200 O203 2.333 . S
Cd200 O204 2.352 . S
Cd200 O208 2.277 . S
Cd200 O209 2.356 . S
C201 O206 1.209 . S
C201 O208 1.226 . S
O202 Cd198 2.273 . S
O202 Cd200 2.411 . S
O202 C205 1.320 . S
O203 Cd200 2.333 . S
O203 C205 1.214 . S
O204 Cd200 2.352 . S
O204 C207 1.258 . S
C205 O202 1.320 . S
C205 O203 1.214 . S
O206 Cd198 2.277 . S
O206 C201 1.209 . S
C207 O204 1.258 . S
C207 O209 1.282 . S
O208 Cd200 2.277 . S
O208 C201 1.226 . S
O209 Cd200 2.356 . S
O209 C207 1.282 . S
C210 O211 1.306 . S
C210 O213 1.160 . S
O211 C210 1.306 . S
O211 Cd212 2.228 . S
Cd212 O211 2.228 . S
Cd212 O216 2.273 . S
Cd212 O220 2.277 . S
O213 C210 1.160 . S
O213 Cd214 2.203 . S
Cd214 O213 2.203 . S
Cd214 O216 2.411 . S
Cd214 O217 2.333 . S
Cd214 O218 2.352 . S
Cd214 O222 2.277 . S
Cd214 O223 2.356 . S
C215 O220 1.209 . S
C215 O222 1.226 . S
O216 Cd212 2.273 . S
O216 Cd214 2.411 . S
O216 C219 1.320 . S
O217 Cd214 2.333 . S
O217 C219 1.214 . S
O218 Cd214 2.352 . S
O218 C221 1.258 . S
C219 O216 1.320 . S
C219 O217 1.214 . S
O220 Cd212 2.277 . S
O220 C215 1.209 . S
C221 O218 1.258 . S
C221 O223 1.282 . S
O222 Cd214 2.277 . S
O222 C215 1.226 . S
O223 Cd214 2.356 . S
O223 C221 1.282 . S
C224 C225 1.349 . S
C224 C226 1.327 . S
C224 H249 0.950 . S
C225 C224 1.349 . S
C225 C241 1.349 . S
C226 C224 1.327 . S
C226 C245 1.429 . S
C226 H250 0.950 . S
C227 C244 1.574 . S
C227 C246 1.368 . S
C227 H251 0.949 . S
H228 C232 0.949 . S
C229 C230 1.349 . S
C229 C231 1.327 . S
C229 H252 0.950 . S
C230 C229 1.349 . S
C230 C242 1.349 . S
C231 C229 1.327 . S
C231 C247 1.429 . S
C231 H253 0.950 . S
C232 H228 0.949 . S
C232 C240 1.574 . S
C232 C248 1.368 . S
H233 C241 0.950 . S
H234 C239 0.950 . S
H235 C240 0.949 . S
H236 C242 0.950 . S
H237 C243 0.950 . S
H238 C244 0.949 . S
C239 H234 0.950 . S
C239 C241 1.327 . S
C239 C245 1.429 . S
C240 C232 1.574 . S
C240 H235 0.949 . S
C240 C246 1.368 . S
C241 C225 1.349 . S
C241 H233 0.950 . S
C241 C239 1.327 . S
C242 C230 1.349 . S
C242 H236 0.950 . S
C242 C243 1.327 . S
C243 H237 0.950 . S
C243 C242 1.327 . S
C243 C247 1.429 . S
C244 C227 1.574 . S
C244 H238 0.949 . S
C244 C248 1.368 . S
C245 C226 1.429 . S
C245 C239 1.429 . S
C245 C246 1.523 . S
C246 C227 1.368 . S
C246 C240 1.368 . S
C246 C245 1.523 . S
C247 C231 1.429 . S
C247 C243 1.429 . S
C247 C248 1.523 . S
C248 C232 1.368 . S
C248 C244 1.368 . S
C248 C247 1.523 . S
H249 C224 0.950 . S
H250 C226 0.950 . S
H251 C227 0.949 . S
H252 C229 0.950 . S
H253 C231 0.950 . S
C254 C255 1.349 . S
C254 C256 1.327 . S
C254 H279 0.950 . S
C255 C254 1.349 . S
C255 C271 1.349 . S
C256 C254 1.327 . S
C256 C275 1.429 . S
C256 H280 0.950 . S
C257 C274 1.574 . S
C257 C276 1.368 . S
C257 H281 0.949 . S
H258 C262 0.949 . S
C259 C260 1.349 . S
C259 C261 1.327 . S
C259 H282 0.950 . S
C260 C259 1.349 . S
C260 C272 1.349 . S
C261 C259 1.327 . S
C261 C277 1.429 . S
C261 H283 0.950 . S
C262 H258 0.949 . S
C262 C270 1.574 . S
C262 C278 1.368 . S
H263 C271 0.950 . S
H264 C269 0.950 . S
H265 C270 0.949 . S
H266 C272 0.950 . S
H267 C273 0.950 . S
H268 C274 0.949 . S
C269 H264 0.950 . S
C269 C271 1.327 . S
C269 C275 1.429 . S
C270 C262 1.574 . S
C270 H265 0.949 . S
C270 C276 1.368 . S
C271 C255 1.349 . S
C271 H263 0.950 . S
C271 C269 1.327 . S
C272 C260 1.349 . S
C272 H266 0.950 . S
C272 C273 1.327 . S
C273 H267 0.950 . S
C273 C272 1.327 . S
C273 C277 1.429 . S
C274 C257 1.574 . S
C274 H268 0.949 . S
C274 C278 1.368 . S
C275 C256 1.429 . S
C275 C269 1.429 . S
C275 C276 1.523 . S
C276 C257 1.368 . S
C276 C270 1.368 . S
C276 C275 1.523 . S
C277 C261 1.429 . S
C277 C273 1.429 . S
C277 C278 1.523 . S
C278 C262 1.368 . S
C278 C274 1.368 . S
C278 C277 1.523 . S
H279 C254 0.950 . S
H280 C256 0.950 . S
H281 C257 0.949 . S
H282 C259 0.950 . S
H283 C261 0.950 . S
C284 C285 1.349 . S
C284 C286 1.327 . S
C284 H309 0.950 . S
C285 C284 1.349 . S
C285 C301 1.349 . S
C286 C284 1.327 . S
C286 C305 1.429 . S
C286 H310 0.950 . S
C287 C304 1.574 . S
C287 C306 1.368 . S
C287 H311 0.949 . S
H288 C292 0.949 . S
C289 C290 1.349 . S
C289 C291 1.327 . S
C289 H312 0.950 . S
C290 C289 1.349 . S
C290 C302 1.349 . S
C291 C289 1.327 . S
C291 C307 1.429 . S
C291 H313 0.950 . S
C292 H288 0.949 . S
C292 C300 1.574 . S
C292 C308 1.368 . S
H293 C301 0.950 . S
H294 C299 0.950 . S
H295 C300 0.949 . S
H296 C302 0.950 . S
H297 C303 0.950 . S
H298 C304 0.949 . S
C299 H294 0.950 . S
C299 C301 1.327 . S
C299 C305 1.429 . S
C300 C292 1.574 . S
C300 H295 0.949 . S
C300 C306 1.368 . S
C301 C285 1.349 . S
C301 H293 0.950 . S
C301 C299 1.327 . S
C302 C290 1.349 . S
C302 H296 0.950 . S
C302 C303 1.327 . S
C303 H297 0.950 . S
C303 C302 1.327 . S
C303 C307 1.429 . S
C304 C287 1.574 . S
C304 H298 0.949 . S
C304 C308 1.368 . S
C305 C286 1.429 . S
C305 C299 1.429 . S
C305 C306 1.523 . S
C306 C287 1.368 . S
C306 C300 1.368 . S
C306 C305 1.523 . S
C307 C291 1.429 . S
C307 C303 1.429 . S
C307 C308 1.523 . S
C308 C292 1.368 . S
C308 C304 1.368 . S
C308 C307 1.523 . S
H309 C284 0.950 . S
H310 C286 0.950 . S
H311 C287 0.949 . S
H312 C289 0.950 . S
H313 C291 0.950 . S
C314 C315 1.349 . S
C314 C316 1.327 . S
C314 H339 0.950 . S
C315 C314 1.349 . S
C315 C331 1.349 . S
C316 C314 1.327 . S
C316 C335 1.429 . S
C316 H340 0.950 . S
C317 C334 1.574 . S
C317 C336 1.368 . S
C317 H341 0.949 . S
H318 C322 0.949 . S
C319 C320 1.349 . S
C319 C321 1.327 . S
C319 H342 0.950 . S
C320 C319 1.349 . S
C320 C332 1.349 . S
C321 C319 1.327 . S
C321 C337 1.429 . S
C321 H343 0.950 . S
C322 H318 0.949 . S
C322 C330 1.574 . S
C322 C338 1.368 . S
H323 C331 0.950 . S
H324 C329 0.950 . S
H325 C330 0.949 . S
H326 C332 0.950 . S
H327 C333 0.950 . S
H328 C334 0.949 . S
C329 H324 0.950 . S
C329 C331 1.327 . S
C329 C335 1.429 . S
C330 C322 1.574 . S
C330 H325 0.949 . S
C330 C336 1.368 . S
C331 C315 1.349 . S
C331 H323 0.950 . S
C331 C329 1.327 . S
C332 C320 1.349 . S
C332 H326 0.950 . S
C332 C333 1.327 . S
C333 H327 0.950 . S
C333 C332 1.327 . S
C333 C337 1.429 . S
C334 C317 1.574 . S
C334 H328 0.949 . S
C334 C338 1.368 . S
C335 C316 1.429 . S
C335 C329 1.429 . S
C335 C336 1.523 . S
C336 C317 1.368 . S
C336 C330 1.368 . S
C336 C335 1.523 . S
C337 C321 1.429 . S
C337 C333 1.429 . S
C337 C338 1.523 . S
C338 C322 1.368 . S
C338 C334 1.368 . S
C338 C337 1.523 . S
H339 C314 0.950 . S
H340 C316 0.950 . S
H341 C317 0.949 . S
H342 C319 0.950 . S
H343 C321 0.950 . S
C344 C345 1.349 . S
C344 C346 1.327 . S
C344 H369 0.950 . S
C345 C344 1.349 . S
C345 C361 1.349 . S
C346 C344 1.327 . S
C346 C365 1.429 . S
C346 H370 0.950 . S
C347 C364 1.574 . S
C347 C366 1.368 . S
C347 H371 0.949 . S
H348 C352 0.949 . S
C349 C350 1.349 . S
C349 C351 1.327 . S
C349 H372 0.950 . S
C350 C349 1.349 . S
C350 C362 1.349 . S
C351 C349 1.327 . S
C351 C367 1.429 . S
C351 H373 0.950 . S
C352 H348 0.949 . S
C352 C360 1.574 . S
C352 C368 1.368 . S
H353 C361 0.950 . S
H354 C359 0.950 . S
H355 C360 0.949 . S
H356 C362 0.950 . S
H357 C363 0.950 . S
H358 C364 0.949 . S
C359 H354 0.950 . S
C359 C361 1.327 . S
C359 C365 1.429 . S
C360 C352 1.574 . S
C360 H355 0.949 . S
C360 C366 1.368 . S
C361 C345 1.349 . S
C361 H353 0.950 . S
C361 C359 1.327 . S
C362 C350 1.349 . S
C362 H356 0.950 . S
C362 C363 1.327 . S
C363 H357 0.950 . S
C363 C362 1.327 . S
C363 C367 1.429 . S
C364 C347 1.574 . S
C364 H358 0.949 . S
C364 C368 1.368 . S
C365 C346 1.429 . S
C365 C359 1.429 . S
C365 C366 1.523 . S
C366 C347 1.368 . S
C366 C360 1.368 . S
C366 C365 1.523 . S
C367 C351 1.429 . S
C367 C363 1.429 . S
C367 C368 1.523 . S
C368 C352 1.368 . S
C368 C364 1.368 . S
C368 C367 1.523 . S
H369 C344 0.950 . S
H370 C346 0.950 . S
H371 C347 0.949 . S
H372 C349 0.950 . S
H373 C351 0.950 . S
C374 C375 1.349 . S
C374 C376 1.327 . S
C374 H399 0.950 . S
C375 C374 1.349 . S
C375 C391 1.349 . S
C376 C374 1.327 . S
C376 C395 1.429 . S
C376 H400 0.950 . S
C377 C394 1.574 . S
C377 C396 1.368 . S
C377 H401 0.949 . S
H378 C382 0.949 . S
C379 C380 1.349 . S
C379 C381 1.327 . S
C379 H402 0.950 . S
C380 C379 1.349 . S
C380 C392 1.349 . S
C381 C379 1.327 . S
C381 C397 1.429 . S
C381 H403 0.950 . S
C382 H378 0.949 . S
C382 C390 1.574 . S
C382 C398 1.368 . S
H383 C391 0.950 . S
H384 C389 0.950 . S
H385 C390 0.949 . S
H386 C392 0.950 . S
H387 C393 0.950 . S
H388 C394 0.949 . S
C389 H384 0.950 . S
C389 C391 1.327 . S
C389 C395 1.429 . S
C390 C382 1.574 . S
C390 H385 0.949 . S
C390 C396 1.368 . S
C391 C375 1.349 . S
C391 H383 0.950 . S
C391 C389 1.327 . S
C392 C380 1.349 . S
C392 H386 0.950 . S
C392 C393 1.327 . S
C393 H387 0.950 . S
C393 C392 1.327 . S
C393 C397 1.429 . S
C394 C377 1.574 . S
C394 H388 0.949 . S
C394 C398 1.368 . S
C395 C376 1.429 . S
C395 C389 1.429 . S
C395 C396 1.523 . S
C396 C377 1.368 . S
C396 C390 1.368 . S
C396 C395 1.523 . S
C397 C381 1.429 . S
C397 C393 1.429 . S
C397 C398 1.523 . S
C398 C382 1.368 . S
C398 C394 1.368 . S
C398 C397 1.523 . S
H399 C374 0.950 . S
H400 C376 0.950 . S
H401 C377 0.949 . S
H402 C379 0.950 . S
H403 C381 0.950 . S
C404 C405 1.349 . S
C404 C406 1.327 . S
C404 H429 0.950 . S
C405 C404 1.349 . S
C405 C421 1.349 . S
C406 C404 1.327 . S
C406 C425 1.429 . S
C406 H430 0.950 . S
C407 C424 1.574 . S
C407 C426 1.368 . S
C407 H431 0.949 . S
H408 C412 0.949 . S
C409 C410 1.349 . S
C409 C411 1.327 . S
C409 H432 0.950 . S
C410 C409 1.349 . S
C410 C422 1.349 . S
C411 C409 1.327 . S
C411 C427 1.429 . S
C411 H433 0.950 . S
C412 H408 0.949 . S
C412 C420 1.574 . S
C412 C428 1.368 . S
H413 C421 0.950 . S
H414 C419 0.950 . S
H415 C420 0.949 . S
H416 C422 0.950 . S
H417 C423 0.950 . S
H418 C424 0.949 . S
C419 H414 0.950 . S
C419 C421 1.327 . S
C419 C425 1.429 . S
C420 C412 1.574 . S
C420 H415 0.949 . S
C420 C426 1.368 . S
C421 C405 1.349 . S
C421 H413 0.950 . S
C421 C419 1.327 . S
C422 C410 1.349 . S
C422 H416 0.950 . S
C422 C423 1.327 . S
C423 H417 0.950 . S
C423 C422 1.327 . S
C423 C427 1.429 . S
C424 C407 1.574 . S
C424 H418 0.949 . S
C424 C428 1.368 . S
C425 C406 1.429 . S
C425 C419 1.429 . S
C425 C426 1.523 . S
C426 C407 1.368 . S
C426 C420 1.368 . S
C426 C425 1.523 . S
C427 C411 1.429 . S
C427 C423 1.429 . S
C427 C428 1.523 . S
C428 C412 1.368 . S
C428 C424 1.368 . S
C428 C427 1.523 . S
H429 C404 0.950 . S
H430 C406 0.950 . S
H431 C407 0.949 . S
H432 C409 0.950 . S
H433 C411 0.950 . S
C434 C435 1.349 . S
C434 C436 1.327 . S
C434 H459 0.950 . S
C435 C434 1.349 . S
C435 C451 1.349 . S
C436 C434 1.327 . S
C436 C455 1.429 . S
C436 H460 0.950 . S
C437 C454 1.574 . S
C437 C456 1.368 . S
C437 H461 0.949 . S
H438 C442 0.949 . S
C439 C440 1.349 . S
C439 C441 1.327 . S
C439 H462 0.950 . S
C440 C439 1.349 . S
C440 C452 1.349 . S
C441 C439 1.327 . S
C441 C457 1.429 . S
C441 H463 0.950 . S
C442 H438 0.949 . S
C442 C450 1.574 . S
C442 C458 1.368 . S
H443 C451 0.950 . S
H444 C449 0.950 . S
H445 C450 0.949 . S
H446 C452 0.950 . S
H447 C453 0.950 . S
H448 C454 0.949 . S
C449 H444 0.950 . S
C449 C451 1.327 . S
C449 C455 1.429 . S
C450 C442 1.574 . S
C450 H445 0.949 . S
C450 C456 1.368 . S
C451 C435 1.349 . S
C451 H443 0.950 . S
C451 C449 1.327 . S
C452 C440 1.349 . S
C452 H446 0.950 . S
C452 C453 1.327 . S
C453 H447 0.950 . S
C453 C452 1.327 . S
C453 C457 1.429 . S
C454 C437 1.574 . S
C454 H448 0.949 . S
C454 C458 1.368 . S
C455 C436 1.429 . S
C455 C449 1.429 . S
C455 C456 1.523 . S
C456 C437 1.368 . S
C456 C450 1.368 . S
C456 C455 1.523 . S
C457 C441 1.429 . S
C457 C453 1.429 . S
C457 C458 1.523 . S
C458 C442 1.368 . S
C458 C454 1.368 . S
C458 C457 1.523 . S
H459 C434 0.950 . S
H460 C436 0.950 . S
H461 C437 0.949 . S
H462 C439 0.950 . S
H463 C441 0.950 . S
C464 C465 1.349 . S
C464 C466 1.327 . S
C464 H489 0.950 . S
C465 C464 1.349 . S
C465 C481 1.349 . S
C466 C464 1.327 . S
C466 C485 1.429 . S
C466 H490 0.950 . S
C467 C484 1.574 . S
C467 C486 1.368 . S
C467 H491 0.949 . S
H468 C472 0.949 . S
C469 C470 1.349 . S
C469 C471 1.327 . S
C469 H492 0.950 . S
C470 C469 1.349 . S
C470 C482 1.349 . S
C471 C469 1.327 . S
C471 C487 1.429 . S
C471 H493 0.950 . S
C472 H468 0.949 . S
C472 C480 1.574 . S
C472 C488 1.368 . S
H473 C481 0.950 . S
H474 C479 0.950 . S
H475 C480 0.949 . S
H476 C482 0.950 . S
H477 C483 0.950 . S
H478 C484 0.949 . S
C479 H474 0.950 . S
C479 C481 1.327 . S
C479 C485 1.429 . S
C480 C472 1.574 . S
C480 H475 0.949 . S
C480 C486 1.368 . S
C481 C465 1.349 . S
C481 H473 0.950 . S
C481 C479 1.327 . S
C482 C470 1.349 . S
C482 H476 0.950 . S
C482 C483 1.327 . S
C483 H477 0.950 . S
C483 C482 1.327 . S
C483 C487 1.429 . S
C484 C467 1.574 . S
C484 H478 0.949 . S
C484 C488 1.368 . S
C485 C466 1.429 . S
C485 C479 1.429 . S
C485 C486 1.523 . S
C486 C467 1.368 . S
C486 C480 1.368 . S
C486 C485 1.523 . S
C487 C471 1.429 . S
C487 C483 1.429 . S
C487 C488 1.523 . S
C488 C472 1.368 . S
C488 C484 1.368 . S
C488 C487 1.523 . S
H489 C464 0.950 . S
H490 C466 0.950 . S
H491 C467 0.949 . S
H492 C469 0.950 . S
H493 C471 0.950 . S
C494 C495 1.349 . S
C494 C496 1.327 . S
C494 H519 0.950 . S
C495 C494 1.349 . S
C495 C511 1.349 . S
C496 C494 1.327 . S
C496 C515 1.429 . S
C496 H520 0.950 . S
C497 C514 1.574 . S
C497 C516 1.368 . S
C497 H521 0.949 . S
H498 C502 0.949 . S
C499 C500 1.349 . S
C499 C501 1.327 . S
C499 H522 0.950 . S
C500 C499 1.349 . S
C500 C512 1.349 . S
C501 C499 1.327 . S
C501 C517 1.429 . S
C501 H523 0.950 . S
C502 H498 0.949 . S
C502 C510 1.574 . S
C502 C518 1.368 . S
H503 C511 0.950 . S
H504 C509 0.950 . S
H505 C510 0.949 . S
H506 C512 0.950 . S
H507 C513 0.950 . S
H508 C514 0.949 . S
C509 H504 0.950 . S
C509 C511 1.327 . S
C509 C515 1.429 . S
C510 C502 1.574 . S
C510 H505 0.949 . S
C510 C516 1.368 . S
C511 C495 1.349 . S
C511 H503 0.950 . S
C511 C509 1.327 . S
C512 C500 1.349 . S
C512 H506 0.950 . S
C512 C513 1.327 . S
C513 H507 0.950 . S
C513 C512 1.327 . S
C513 C517 1.429 . S
C514 C497 1.574 . S
C514 H508 0.949 . S
C514 C518 1.368 . S
C515 C496 1.429 . S
C515 C509 1.429 . S
C515 C516 1.523 . S
C516 C497 1.368 . S
C516 C510 1.368 . S
C516 C515 1.523 . S
C517 C501 1.429 . S
C517 C513 1.429 . S
C517 C518 1.523 . S
C518 C502 1.368 . S
C518 C514 1.368 . S
C518 C517 1.523 . S
H519 C494 0.950 . S
H520 C496 0.950 . S
H521 C497 0.949 . S
H522 C499 0.950 . S
H523 C501 0.950 . S
C524 C525 1.349 . S
C524 C526 1.327 . S
C524 H549 0.950 . S
C525 C524 1.349 . S
C525 C541 1.349 . S
C526 C524 1.327 . S
C526 C545 1.429 . S
C526 H550 0.950 . S
C527 C544 1.574 . S
C527 C546 1.368 . S
C527 H551 0.949 . S
H528 C532 0.949 . S
C529 C530 1.349 . S
C529 C531 1.327 . S
C529 H552 0.950 . S
C530 C529 1.349 . S
C530 C542 1.349 . S
C531 C529 1.327 . S
C531 C547 1.429 . S
C531 H553 0.950 . S
C532 H528 0.949 . S
C532 C540 1.574 . S
C532 C548 1.368 . S
H533 C541 0.950 . S
H534 C539 0.950 . S
H535 C540 0.949 . S
H536 C542 0.950 . S
H537 C543 0.950 . S
H538 C544 0.949 . S
C539 H534 0.950 . S
C539 C541 1.327 . S
C539 C545 1.429 . S
C540 C532 1.574 . S
C540 H535 0.949 . S
C540 C546 1.368 . S
C541 C525 1.349 . S
C541 H533 0.950 . S
C541 C539 1.327 . S
C542 C530 1.349 . S
C542 H536 0.950 . S
C542 C543 1.327 . S
C543 H537 0.950 . S
C543 C542 1.327 . S
C543 C547 1.429 . S
C544 C527 1.574 . S
C544 H538 0.949 . S
C544 C548 1.368 . S
C545 C526 1.429 . S
C545 C539 1.429 . S
C545 C546 1.523 . S
C546 C527 1.368 . S
C546 C540 1.368 . S
C546 C545 1.523 . S
C547 C531 1.429 . S
C547 C543 1.429 . S
C547 C548 1.523 . S
C548 C532 1.368 . S
C548 C544 1.368 . S
C548 C547 1.523 . S
H549 C524 0.950 . S
H550 C526 0.950 . S
H551 C527 0.949 . S
H552 C529 0.950 . S
H553 C531 0.950 . S
C554 C555 1.349 . S
C554 C556 1.327 . S
C554 H579 0.950 . S
C555 C554 1.349 . S
C555 C571 1.349 . S
C556 C554 1.327 . S
C556 C575 1.429 . S
C556 H580 0.950 . S
C557 C574 1.574 . S
C557 C576 1.368 . S
C557 H581 0.949 . S
H558 C562 0.949 . S
C559 C560 1.349 . S
C559 C561 1.327 . S
C559 H582 0.950 . S
C560 C559 1.349 . S
C560 C572 1.349 . S
C561 C559 1.327 . S
C561 C577 1.429 . S
C561 H583 0.950 . S
C562 H558 0.949 . S
C562 C570 1.574 . S
C562 C578 1.368 . S
H563 C571 0.950 . S
H564 C569 0.950 . S
H565 C570 0.949 . S
H566 C572 0.950 . S
H567 C573 0.950 . S
H568 C574 0.949 . S
C569 H564 0.950 . S
C569 C571 1.327 . S
C569 C575 1.429 . S
C570 C562 1.574 . S
C570 H565 0.949 . S
C570 C576 1.368 . S
C571 C555 1.349 . S
C571 H563 0.950 . S
C571 C569 1.327 . S
C572 C560 1.349 . S
C572 H566 0.950 . S
C572 C573 1.327 . S
C573 H567 0.950 . S
C573 C572 1.327 . S
C573 C577 1.429 . S
C574 C557 1.574 . S
C574 H568 0.949 . S
C574 C578 1.368 . S
C575 C556 1.429 . S
C575 C569 1.429 . S
C575 C576 1.523 . S
C576 C557 1.368 . S
C576 C570 1.368 . S
C576 C575 1.523 . S
C577 C561 1.429 . S
C577 C573 1.429 . S
C577 C578 1.523 . S
C578 C562 1.368 . S
C578 C574 1.368 . S
C578 C577 1.523 . S
H579 C554 0.950 . S
H580 C556 0.950 . S
H581 C557 0.949 . S
H582 C559 0.950 . S
H583 C561 0.950 . S
C584 C585 1.349 . S
C584 C586 1.327 . S
C584 H609 0.950 . S
C585 C584 1.349 . S
C585 C601 1.349 . S
C586 C584 1.327 . S
C586 C605 1.429 . S
C586 H610 0.950 . S
C587 C604 1.574 . S
C587 C606 1.368 . S
C587 H611 0.949 . S
H588 C592 0.949 . S
C589 C590 1.349 . S
C589 C591 1.327 . S
C589 H612 0.950 . S
C590 C589 1.349 . S
C590 C602 1.349 . S
C591 C589 1.327 . S
C591 C607 1.429 . S
C591 H613 0.950 . S
C592 H588 0.949 . S
C592 C600 1.574 . S
C592 C608 1.368 . S
H593 C601 0.950 . S
H594 C599 0.950 . S
H595 C600 0.949 . S
H596 C602 0.950 . S
H597 C603 0.950 . S
H598 C604 0.949 . S
C599 H594 0.950 . S
C599 C601 1.327 . S
C599 C605 1.429 . S
C600 C592 1.574 . S
C600 H595 0.949 . S
C600 C606 1.368 . S
C601 C585 1.349 . S
C601 H593 0.950 . S
C601 C599 1.327 . S
C602 C590 1.349 . S
C602 H596 0.950 . S
C602 C603 1.327 . S
C603 H597 0.950 . S
C603 C602 1.327 . S
C603 C607 1.429 . S
C604 C587 1.574 . S
C604 H598 0.949 . S
C604 C608 1.368 . S
C605 C586 1.429 . S
C605 C599 1.429 . S
C605 C606 1.523 . S
C606 C587 1.368 . S
C606 C600 1.368 . S
C606 C605 1.523 . S
C607 C591 1.429 . S
C607 C603 1.429 . S
C607 C608 1.523 . S
C608 C592 1.368 . S
C608 C604 1.368 . S
C608 C607 1.523 . S
H609 C584 0.950 . S
H610 C586 0.950 . S
H611 C587 0.949 . S
H612 C589 0.950 . S
H613 C591 0.950 . S
C614 C615 1.349 . S
C614 C616 1.327 . S
C614 H639 0.950 . S
C615 C614 1.349 . S
C615 C631 1.349 . S
C616 C614 1.327 . S
C616 C635 1.429 . S
C616 H640 0.950 . S
C617 C634 1.574 . S
C617 C636 1.368 . S
C617 H641 0.949 . S
H618 C622 0.949 . S
C619 C620 1.349 . S
C619 C621 1.327 . S
C619 H642 0.950 . S
C620 C619 1.349 . S
C620 C632 1.349 . S
C621 C619 1.327 . S
C621 C637 1.429 . S
C621 H643 0.950 . S
C622 H618 0.949 . S
C622 C630 1.574 . S
C622 C638 1.368 . S
H623 C631 0.950 . S
H624 C629 0.950 . S
H625 C630 0.949 . S
H626 C632 0.950 . S
H627 C633 0.950 . S
H628 C634 0.949 . S
C629 H624 0.950 . S
C629 C631 1.327 . S
C629 C635 1.429 . S
C630 C622 1.574 . S
C630 H625 0.949 . S
C630 C636 1.368 . S
C631 C615 1.349 . S
C631 H623 0.950 . S
C631 C629 1.327 . S
C632 C620 1.349 . S
C632 H626 0.950 . S
C632 C633 1.327 . S
C633 H627 0.950 . S
C633 C632 1.327 . S
C633 C637 1.429 . S
C634 C617 1.574 . S
C634 H628 0.949 . S
C634 C638 1.368 . S
C635 C616 1.429 . S
C635 C629 1.429 . S
C635 C636 1.523 . S
C636 C617 1.368 . S
C636 C630 1.368 . S
C636 C635 1.523 . S
C637 C621 1.429 . S
C637 C633 1.429 . S
C637 C638 1.523 . S
C638 C622 1.368 . S
C638 C634 1.368 . S
C638 C637 1.523 . S
H639 C614 0.950 . S
H640 C616 0.950 . S
H641 C617 0.949 . S
H642 C619 0.950 . S
H643 C621 0.950 . S
C644 C645 1.349 . S
C644 C646 1.327 . S
C644 H669 0.950 . S
C645 C644 1.349 . S
C645 C661 1.349 . S
C646 C644 1.327 . S
C646 C665 1.429 . S
C646 H670 0.950 . S
C647 C664 1.574 . S
C647 C666 1.368 . S
C647 H671 0.949 . S
H648 C652 0.949 . S
C649 C650 1.349 . S
C649 C651 1.327 . S
C649 H672 0.950 . S
C650 C649 1.349 . S
C650 C662 1.349 . S
C651 C649 1.327 . S
C651 C667 1.429 . S
C651 H673 0.950 . S
C652 H648 0.949 . S
C652 C660 1.574 . S
C652 C668 1.368 . S
H653 C661 0.950 . S
H654 C659 0.950 . S
H655 C660 0.949 . S
H656 C662 0.950 . S
H657 C663 0.950 . S
H658 C664 0.949 . S
C659 H654 0.950 . S
C659 C661 1.327 . S
C659 C665 1.429 . S
C660 C652 1.574 . S
C660 H655 0.949 . S
C660 C666 1.368 . S
C661 C645 1.349 . S
C661 H653 0.950 . S
C661 C659 1.327 . S
C662 C650 1.349 . S
C662 H656 0.950 . S
C662 C663 1.327 . S
C663 H657 0.950 . S
C663 C662 1.327 . S
C663 C667 1.429 . S
C664 C647 1.574 . S
C664 H658 0.949 . S
C664 C668 1.368 . S
C665 C646 1.429 . S
C665 C659 1.429 . S
C665 C666 1.523 . S
C666 C647 1.368 . S
C666 C660 1.368 . S
C666 C665 1.523 . S
C667 C651 1.429 . S
C667 C663 1.429 . S
C667 C668 1.523 . S
C668 C652 1.368 . S
C668 C664 1.368 . S
C668 C667 1.523 . S
H669 C644 0.950 . S
H670 C646 0.950 . S
H671 C647 0.949 . S
H672 C649 0.950 . S
H673 C651 0.950 . S
C674 C675 1.349 . S
C674 C676 1.327 . S
C674 H699 0.950 . S
C675 C674 1.349 . S
C675 C691 1.349 . S
C676 C674 1.327 . S
C676 C695 1.429 . S
C676 H700 0.950 . S
C677 C694 1.574 . S
C677 C696 1.368 . S
C677 H701 0.949 . S
H678 C682 0.949 . S
C679 C680 1.349 . S
C679 C681 1.327 . S
C679 H702 0.950 . S
C680 C679 1.349 . S
C680 C692 1.349 . S
C681 C679 1.327 . S
C681 C697 1.429 . S
C681 H703 0.950 . S
C682 H678 0.949 . S
C682 C690 1.574 . S
C682 C698 1.368 . S
H683 C691 0.950 . S
H684 C689 0.950 . S
H685 C690 0.949 . S
H686 C692 0.950 . S
H687 C693 0.950 . S
H688 C694 0.949 . S
C689 H684 0.950 . S
C689 C691 1.327 . S
C689 C695 1.429 . S
C690 C682 1.574 . S
C690 H685 0.949 . S
C690 C696 1.368 . S
C691 C675 1.349 . S
C691 H683 0.950 . S
C691 C689 1.327 . S
C692 C680 1.349 . S
C692 H686 0.950 . S
C692 C693 1.327 . S
C693 H687 0.950 . S
C693 C692 1.327 . S
C693 C697 1.429 . S
C694 C677 1.574 . S
C694 H688 0.949 . S
C694 C698 1.368 . S
C695 C676 1.429 . S
C695 C689 1.429 . S
C695 C696 1.523 . S
C696 C677 1.368 . S
C696 C690 1.368 . S
C696 C695 1.523 . S
C697 C681 1.429 . S
C697 C693 1.429 . S
C697 C698 1.523 . S
C698 C682 1.368 . S
C698 C694 1.368 . S
C698 C697 1.523 . S
H699 C674 0.950 . S
H700 C676 0.950 . S
H701 C677 0.949 . S
H702 C679 0.950 . S
H703 C681 0.950 . S
C704 C705 1.349 . S
C704 C706 1.327 . S
C704 H729 0.950 . S
C705 C704 1.349 . S
C705 C721 1.349 . S
C706 C704 1.327 . S
C706 C725 1.429 . S
C706 H730 0.950 . S
C707 C724 1.574 . S
C707 C726 1.368 . S
C707 H731 0.949 . S
H708 C712 0.949 . S
C709 C710 1.349 . S
C709 C711 1.327 . S
C709 H732 0.950 . S
C710 C709 1.349 . S
C710 C722 1.349 . S
C711 C709 1.327 . S
C711 C727 1.429 . S
C711 H733 0.950 . S
C712 H708 0.949 . S
C712 C720 1.574 . S
C712 C728 1.368 . S
H713 C721 0.950 1_565 S
H714 C719 0.950 . S
H715 C720 0.949 . S
H716 C722 0.950 . S
H717 C723 0.950 . S
H718 C724 0.949 . S
C719 H714 0.950 . S
C719 C721 1.327 . S
C719 C725 1.429 . S
C720 C712 1.574 . S
C720 H715 0.949 . S
C720 C726 1.368 . S
C721 C705 1.349 . S
C721 H713 0.950 1_545 S
C721 C719 1.327 . S
C722 C710 1.349 . S
C722 H716 0.950 . S
C722 C723 1.327 . S
C723 H717 0.950 . S
C723 C722 1.327 . S
C723 C727 1.429 . S
C724 C707 1.574 . S
C724 H718 0.949 . S
C724 C728 1.368 . S
C725 C706 1.429 . S
C725 C719 1.429 . S
C725 C726 1.523 . S
C726 C707 1.368 . S
C726 C720 1.368 . S
C726 C725 1.523 . S
C727 C711 1.429 . S
C727 C723 1.429 . S
C727 C728 1.523 . S
C728 C712 1.368 . S
C728 C724 1.368 . S
C728 C727 1.523 . S
H729 C704 0.950 . S
H730 C706 0.950 . S
H731 C707 0.949 . S
H732 C709 0.950 . S
H733 C711 0.950 . S
C734 C735 1.349 . S
C734 C736 1.327 . S
C734 H759 0.950 . S
C735 C734 1.349 . S
C735 C751 1.349 . S
C736 C734 1.327 . S
C736 C755 1.429 . S
C736 H760 0.950 . S
C737 C754 1.574 . S
C737 C756 1.368 . S
C737 H761 0.949 . S
H738 C742 0.949 . S
C739 C740 1.349 . S
C739 C741 1.327 . S
C739 H762 0.950 . S
C740 C739 1.349 . S
C740 C752 1.349 . S
C741 C739 1.327 . S
C741 C757 1.429 . S
C741 H763 0.950 . S
C742 H738 0.949 . S
C742 C750 1.574 . S
C742 C758 1.368 . S
H743 C751 0.950 . S
H744 C749 0.950 . S
H745 C750 0.949 . S
H746 C752 0.950 1_655 S
H747 C753 0.950 . S
H748 C754 0.949 . S
C749 H744 0.950 . S
C749 C751 1.327 . S
C749 C755 1.429 . S
C750 C742 1.574 . S
C750 H745 0.949 . S
C750 C756 1.368 . S
C751 C735 1.349 . S
C751 H743 0.950 . S
C751 C749 1.327 . S
C752 C740 1.349 . S
C752 H746 0.950 1_455 S
C752 C753 1.327 . S
C753 H747 0.950 . S
C753 C752 1.327 . S
C753 C757 1.429 . S
C754 C737 1.574 . S
C754 H748 0.949 . S
C754 C758 1.368 . S
C755 C736 1.429 . S
C755 C749 1.429 . S
C755 C756 1.523 . S
C756 C737 1.368 . S
C756 C750 1.368 . S
C756 C755 1.523 . S
C757 C741 1.429 . S
C757 C753 1.429 . S
C757 C758 1.523 . S
C758 C742 1.368 . S
C758 C754 1.368 . S
C758 C757 1.523 . S
H759 C734 0.950 . S
H760 C736 0.950 . S
H761 C737 0.949 . S
H762 C739 0.950 . S
H763 C741 0.950 . S
C764 C765 1.349 . S
C764 C766 1.327 . S
C764 H789 0.950 1_565 S
C765 C764 1.349 . S
C765 C781 1.349 . S
C766 C764 1.327 . S
C766 C785 1.429 . S
C766 H790 0.950 . S
C767 C784 1.574 . S
C767 C786 1.368 . S
C767 H791 0.949 . S
H768 C772 0.949 . S
C769 C770 1.349 . S
C769 C771 1.327 . S
C769 H792 0.950 . S
C770 C769 1.349 . S
C770 C782 1.349 . S
C771 C769 1.327 . S
C771 C787 1.429 . S
C771 H793 0.950 . S
C772 H768 0.949 . S
C772 C780 1.574 . S
C772 C788 1.368 . S
H773 C781 0.950 . S
H774 C779 0.950 . S
H775 C780 0.949 . S
H776 C782 0.950 . S
H777 C783 0.950 . S
H778 C784 0.949 . S
C779 H774 0.950 . S
C779 C781 1.327 . S
C779 C785 1.429 . S
C780 C772 1.574 . S
C780 H775 0.949 . S
C780 C786 1.368 . S
C781 C765 1.349 . S
C781 H773 0.950 . S
C781 C779 1.327 . S
C782 C770 1.349 . S
C782 H776 0.950 . S
C782 C783 1.327 . S
C783 H777 0.950 . S
C783 C782 1.327 . S
C783 C787 1.429 . S
C784 C767 1.574 . S
C784 H778 0.949 . S
C784 C788 1.368 . S
C785 C766 1.429 . S
C785 C779 1.429 . S
C785 C786 1.523 . S
C786 C767 1.368 . S
C786 C780 1.368 . S
C786 C785 1.523 . S
C787 C771 1.429 . S
C787 C783 1.429 . S
C787 C788 1.523 . S
C788 C772 1.368 . S
C788 C784 1.368 . S
C788 C787 1.523 . S
H789 C764 0.950 1_545 S
H790 C766 0.950 . S
H791 C767 0.949 . S
H792 C769 0.950 . S
H793 C771 0.950 . S
C794 C795 1.349 . S
C794 C796 1.327 . S
C794 H819 0.950 . S
C795 C794 1.349 . S
C795 C811 1.349 . S
C796 C794 1.327 . S
C796 C815 1.429 . S
C796 H820 0.950 . S
C797 C814 1.574 . S
C797 C816 1.368 . S
C797 H821 0.949 . S
H798 C802 0.949 . S
C799 C800 1.349 . S
C799 C801 1.327 . S
C799 H822 0.950 1_655 S
C800 C799 1.349 . S
C800 C812 1.349 . S
C801 C799 1.327 . S
C801 C817 1.429 . S
C801 H823 0.950 . S
C802 H798 0.949 . S
C802 C810 1.574 . S
C802 C818 1.368 . S
H803 C811 0.950 . S
H804 C809 0.950 . S
H805 C810 0.949 . S
H806 C812 0.950 . S
H807 C813 0.950 . S
H808 C814 0.949 . S
C809 H804 0.950 . S
C809 C811 1.327 . S
C809 C815 1.429 . S
C810 C802 1.574 . S
C810 H805 0.949 . S
C810 C816 1.368 . S
C811 C795 1.349 . S
C811 H803 0.950 . S
C811 C809 1.327 . S
C812 C800 1.349 . S
C812 H806 0.950 . S
C812 C813 1.327 . S
C813 H807 0.950 . S
C813 C812 1.327 . S
C813 C817 1.429 . S
C814 C797 1.574 . S
C814 H808 0.949 . S
C814 C818 1.368 . S
C815 C796 1.429 . S
C815 C809 1.429 . S
C815 C816 1.523 . S
C816 C797 1.368 . S
C816 C810 1.368 . S
C816 C815 1.523 . S
C817 C801 1.429 . S
C817 C813 1.429 . S
C817 C818 1.523 . S
C818 C802 1.368 . S
C818 C814 1.368 . S
C818 C817 1.523 . S
H819 C794 0.950 . S
H820 C796 0.950 . S
H821 C797 0.949 . S
H822 C799 0.950 1_455 S
H823 C801 0.950 . S
C824 C825 1.349 . S
C824 C826 1.327 . S
C824 H849 0.950 . S
C825 C824 1.349 . S
C825 C841 1.349 . S
C826 C824 1.327 . S
C826 C845 1.429 . S
C826 H850 0.950 . S
C827 C844 1.574 . S
C827 C846 1.368 . S
C827 H851 0.949 . S
H828 C832 0.949 . S
C829 C830 1.349 . S
C829 C831 1.327 . S
C829 H852 0.950 . S
C830 C829 1.349 . S
C830 C842 1.349 . S
C831 C829 1.327 . S
C831 C847 1.429 . S
C831 H853 0.950 . S
C832 H828 0.949 . S
C832 C840 1.574 . S
C832 C848 1.368 . S
H833 C841 0.950 1_545 S
H834 C839 0.950 . S
H835 C840 0.949 . S
H836 C842 0.950 . S
H837 C843 0.950 . S
H838 C844 0.949 . S
C839 H834 0.950 . S
C839 C841 1.327 . S
C839 C845 1.429 . S
C840 C832 1.574 . S
C840 H835 0.949 . S
C840 C846 1.368 . S
C841 C825 1.349 . S
C841 H833 0.950 1_565 S
C841 C839 1.327 . S
C842 C830 1.349 . S
C842 H836 0.950 . S
C842 C843 1.327 . S
C843 H837 0.950 . S
C843 C842 1.327 . S
C843 C847 1.429 . S
C844 C827 1.574 . S
C844 H838 0.949 . S
C844 C848 1.368 . S
C845 C826 1.429 . S
C845 C839 1.429 . S
C845 C846 1.523 . S
C846 C827 1.368 . S
C846 C840 1.368 . S
C846 C845 1.523 . S
C847 C831 1.429 . S
C847 C843 1.429 . S
C847 C848 1.523 . S
C848 C832 1.368 . S
C848 C844 1.368 . S
C848 C847 1.523 . S
H849 C824 0.950 . S
H850 C826 0.950 . S
H851 C827 0.949 . S
H852 C829 0.950 . S
H853 C831 0.950 . S
C854 C855 1.349 . S
C854 C856 1.327 . S
C854 H879 0.950 . S
C855 C854 1.349 . S
C855 C871 1.349 . S
C856 C854 1.327 . S
C856 C875 1.429 . S
C856 H880 0.950 . S
C857 C874 1.574 . S
C857 C876 1.368 . S
C857 H881 0.949 . S
H858 C862 0.949 . S
C859 C860 1.349 . S
C859 C861 1.327 . S
C859 H882 0.950 1_655 S
C860 C859 1.349 . S
C860 C872 1.349 . S
C861 C859 1.327 . S
C861 C877 1.429 . S
C861 H883 0.950 . S
C862 H858 0.949 . S
C862 C870 1.574 . S
C862 C878 1.368 . S
H863 C871 0.950 . S
H864 C869 0.950 . S
H865 C870 0.949 . S
H866 C872 0.950 . S
H867 C873 0.950 . S
H868 C874 0.949 . S
C869 H864 0.950 . S
C869 C871 1.327 . S
C869 C875 1.429 . S
C870 C862 1.574 . S
C870 H865 0.949 . S
C870 C876 1.368 . S
C871 C855 1.349 . S
C871 H863 0.950 . S
C871 C869 1.327 . S
C872 C860 1.349 . S
C872 H866 0.950 . S
C872 C873 1.327 . S
C873 H867 0.950 . S
C873 C872 1.327 . S
C873 C877 1.429 . S
C874 C857 1.574 . S
C874 H868 0.949 . S
C874 C878 1.368 . S
C875 C856 1.429 . S
C875 C869 1.429 . S
C875 C876 1.523 . S
C876 C857 1.368 . S
C876 C870 1.368 . S
C876 C875 1.523 . S
C877 C861 1.429 . S
C877 C873 1.429 . S
C877 C878 1.523 . S
C878 C862 1.368 . S
C878 C874 1.368 . S
C878 C877 1.523 . S
H879 C854 0.950 . S
H880 C856 0.950 . S
H881 C857 0.949 . S
H882 C859 0.950 1_455 S
H883 C861 0.950 . S
C884 C885 1.349 . S
C884 C886 1.327 . S
C884 H909 0.950 . S
C885 C884 1.349 . S
C885 C901 1.349 . S
C886 C884 1.327 . S
C886 C905 1.429 . S
C886 H910 0.950 . S
C887 C904 1.574 . S
C887 C906 1.368 . S
C887 H911 0.949 . S
H888 C892 0.949 . S
C889 C890 1.349 . S
C889 C891 1.327 . S
C889 H912 0.950 . S
C890 C889 1.349 . S
C890 C902 1.349 . S
C891 C889 1.327 . S
C891 C907 1.429 . S
C891 H913 0.950 . S
C892 H888 0.949 . S
C892 C900 1.574 . S
C892 C908 1.368 . S
H893 C901 0.950 . S
H894 C899 0.950 . S
H895 C900 0.949 . S
H896 C902 0.950 . S
H897 C903 0.950 . S
H898 C904 0.949 . S
C899 H894 0.950 . S
C899 C901 1.327 . S
C899 C905 1.429 . S
C900 C892 1.574 . S
C900 H895 0.949 . S
C900 C906 1.368 . S
C901 C885 1.349 . S
C901 H893 0.950 . S
C901 C899 1.327 . S
C902 C890 1.349 . S
C902 H896 0.950 . S
C902 C903 1.327 . S
C903 H897 0.950 . S
C903 C902 1.327 . S
C903 C907 1.429 . S
C904 C887 1.574 . S
C904 H898 0.949 . S
C904 C908 1.368 . S
C905 C886 1.429 . S
C905 C899 1.429 . S
C905 C906 1.523 . S
C906 C887 1.368 . S
C906 C900 1.368 . S
C906 C905 1.523 . S
C907 C891 1.429 . S
C907 C903 1.429 . S
C907 C908 1.523 . S
C908 C892 1.368 . S
C908 C904 1.368 . S
C908 C907 1.523 . S
H909 C884 0.950 . S
H910 C886 0.950 . S
H911 C887 0.949 . S
H912 C889 0.950 . S
H913 C891 0.950 . S
C914 C915 1.349 . S
C914 C916 1.327 . S
C914 H939 0.950 . S
C915 C914 1.349 . S
C915 C931 1.349 . S
C916 C914 1.327 . S
C916 C935 1.429 . S
C916 H940 0.950 . S
C917 C934 1.574 . S
C917 C936 1.368 . S
C917 H941 0.949 . S
H918 C922 0.949 . S
C919 C920 1.349 . S
C919 C921 1.327 . S
C919 H942 0.950 1_455 S
C920 C919 1.349 . S
C920 C932 1.349 . S
C921 C919 1.327 . S
C921 C937 1.429 . S
C921 H943 0.950 . S
C922 H918 0.949 . S
C922 C930 1.574 . S
C922 C938 1.368 . S
H923 C931 0.950 . S
H924 C929 0.950 . S
H925 C930 0.949 . S
H926 C932 0.950 . S
H927 C933 0.950 . S
H928 C934 0.949 . S
C929 H924 0.950 . S
C929 C931 1.327 . S
C929 C935 1.429 . S
C930 C922 1.574 . S
C930 H925 0.949 . S
C930 C936 1.368 . S
C931 C915 1.349 . S
C931 H923 0.950 . S
C931 C929 1.327 . S
C932 C920 1.349 . S
C932 H926 0.950 . S
C932 C933 1.327 . S
C933 H927 0.950 . S
C933 C932 1.327 . S
C933 C937 1.429 . S
C934 C917 1.574 . S
C934 H928 0.949 . S
C934 C938 1.368 . S
C935 C916 1.429 . S
C935 C929 1.429 . S
C935 C936 1.523 . S
C936 C917 1.368 . S
C936 C930 1.368 . S
C936 C935 1.523 . S
C937 C921 1.429 . S
C937 C933 1.429 . S
C937 C938 1.523 . S
C938 C922 1.368 . S
C938 C934 1.368 . S
C938 C937 1.523 . S
H939 C914 0.950 . S
H940 C916 0.950 . S
H941 C917 0.949 . S
H942 C919 0.950 1_655 S
H943 C921 0.950 . S
C944 C945 1.349 . S
C944 C946 1.327 . S
C944 H969 0.950 . S
C945 C944 1.349 . S
C945 C961 1.349 . S
C946 C944 1.327 . S
C946 C965 1.429 . S
C946 H970 0.950 . S
C947 C964 1.574 . S
C947 C966 1.368 . S
C947 H971 0.949 . S
H948 C952 0.949 . S
C949 C950 1.349 . S
C949 C951 1.327 . S
C949 H972 0.950 . S
C950 C949 1.349 . S
C950 C962 1.349 . S
C951 C949 1.327 . S
C951 C967 1.429 . S
C951 H973 0.950 . S
C952 H948 0.949 . S
C952 C960 1.574 . S
C952 C968 1.368 . S
H953 C961 0.950 . S
H954 C959 0.950 . S
H955 C960 0.949 . S
H956 C962 0.950 . S
H957 C963 0.950 . S
H958 C964 0.949 . S
C959 H954 0.950 . S
C959 C961 1.327 . S
C959 C965 1.429 . S
C960 C952 1.574 . S
C960 H955 0.949 . S
C960 C966 1.368 . S
C961 C945 1.349 . S
C961 H953 0.950 . S
C961 C959 1.327 . S
C962 C950 1.349 . S
C962 H956 0.950 . S
C962 C963 1.327 . S
C963 H957 0.950 . S
C963 C962 1.327 . S
C963 C967 1.429 . S
C964 C947 1.574 . S
C964 H958 0.949 . S
C964 C968 1.368 . S
C965 C946 1.429 . S
C965 C959 1.429 . S
C965 C966 1.523 . S
C966 C947 1.368 . S
C966 C960 1.368 . S
C966 C965 1.523 . S
C967 C951 1.429 . S
C967 C963 1.429 . S
C967 C968 1.523 . S
C968 C952 1.368 . S
C968 C964 1.368 . S
C968 C967 1.523 . S
H969 C944 0.950 . S
H970 C946 0.950 . S
H971 C947 0.949 . S
H972 C949 0.950 . S
H973 C951 0.950 . S
C974 C975 1.349 . S
C974 C976 1.327 . S
C974 H999 0.950 . S
C975 C974 1.349 . S
C975 C991 1.349 . S
C976 C974 1.327 . S
C976 C995 1.429 . S
C976 H1000 0.950 . S
C977 C994 1.574 . S
C977 C996 1.368 . S
C977 H1001 0.949 . S
H978 C982 0.949 . S
C979 C980 1.349 . S
C979 C981 1.327 . S
C979 H1002 0.950 . S
C980 C979 1.349 . S
C980 C992 1.349 . S
C981 C979 1.327 . S
C981 C997 1.429 . S
C981 H1003 0.950 . S
C982 H978 0.949 . S
C982 C990 1.574 . S
C982 C998 1.368 . S
H983 C991 0.950 . S
H984 C989 0.950 . S
H985 C990 0.949 . S
H986 C992 0.950 . S
H987 C993 0.950 . S
H988 C994 0.949 . S
C989 H984 0.950 . S
C989 C991 1.327 . S
C989 C995 1.429 . S
C990 C982 1.574 . S
C990 H985 0.949 . S
C990 C996 1.368 . S
C991 C975 1.349 . S
C991 H983 0.950 . S
C991 C989 1.327 . S
C992 C980 1.349 . S
C992 H986 0.950 . S
C992 C993 1.327 . S
C993 H987 0.950 . S
C993 C992 1.327 . S
C993 C997 1.429 . S
C994 C977 1.574 . S
C994 H988 0.949 . S
C994 C998 1.368 . S
C995 C976 1.429 . S
C995 C989 1.429 . S
C995 C996 1.523 . S
C996 C977 1.368 . S
C996 C990 1.368 . S
C996 C995 1.523 . S
C997 C981 1.429 . S
C997 C993 1.429 . S
C997 C998 1.523 . S
C998 C982 1.368 . S
C998 C994 1.368 . S
C998 C997 1.523 . S
H999 C974 0.950 . S
H1000 C976 0.950 . S
H1001 C977 0.949 . S
H1002 C979 0.950 . S
H1003 C981 0.950 . S
C1004 C1005 1.349 . S
C1004 C1006 1.327 . S
C1004 H1029 0.950 . S
C1005 C1004 1.349 . S
C1005 C1021 1.349 . S
C1006 C1004 1.327 . S
C1006 C1025 1.429 . S
C1006 H1030 0.950 . S
C1007 C1024 1.574 . S
C1007 C1026 1.368 . S
C1007 H1031 0.949 . S
H1008 C1012 0.949 . S
C1009 C1010 1.349 . S
C1009 C1011 1.327 . S
C1009 H1032 0.950 . S
C1010 C1009 1.349 . S
C1010 C1022 1.349 . S
C1011 C1009 1.327 . S
C1011 C1027 1.429 . S
C1011 H1033 0.950 . S
C1012 H1008 0.949 . S
C1012 C1020 1.574 . S
C1012 C1028 1.368 . S
H1013 C1021 0.950 . S
H1014 C1019 0.950 . S
H1015 C1020 0.949 . S
H1016 C1022 0.950 . S
H1017 C1023 0.950 . S
H1018 C1024 0.949 . S
C1019 H1014 0.950 . S
C1019 C1021 1.327 . S
C1019 C1025 1.429 . S
C1020 C1012 1.574 . S
C1020 H1015 0.949 . S
C1020 C1026 1.368 . S
C1021 C1005 1.349 . S
C1021 H1013 0.950 . S
C1021 C1019 1.327 . S
C1022 C1010 1.349 . S
C1022 H1016 0.950 . S
C1022 C1023 1.327 . S
C1023 H1017 0.950 . S
C1023 C1022 1.327 . S
C1023 C1027 1.429 . S
C1024 C1007 1.574 . S
C1024 H1018 0.949 . S
C1024 C1028 1.368 . S
C1025 C1006 1.429 . S
C1025 C1019 1.429 . S
C1025 C1026 1.523 . S
C1026 C1007 1.368 . S
C1026 C1020 1.368 . S
C1026 C1025 1.523 . S
C1027 C1011 1.429 . S
C1027 C1023 1.429 . S
C1027 C1028 1.523 . S
C1028 C1012 1.368 . S
C1028 C1024 1.368 . S
C1028 C1027 1.523 . S
H1029 C1004 0.950 . S
H1030 C1006 0.950 . S
H1031 C1007 0.949 . S
H1032 C1009 0.950 . S
H1033 C1011 0.950 . S
C1034 C1035 1.349 . S
C1034 C1036 1.327 . S
C1034 H1059 0.950 . S
C1035 C1034 1.349 . S
C1035 C1051 1.349 . S
C1036 C1034 1.327 . S
C1036 C1055 1.429 . S
C1036 H1060 0.950 . S
C1037 C1054 1.574 . S
C1037 C1056 1.368 . S
C1037 H1061 0.949 . S
H1038 C1042 0.949 . S
C1039 C1040 1.349 . S
C1039 C1041 1.327 . S
C1039 H1062 0.950 . S
C1040 C1039 1.349 . S
C1040 C1052 1.349 . S
C1041 C1039 1.327 . S
C1041 C1057 1.429 . S
C1041 H1063 0.950 . S
C1042 H1038 0.949 . S
C1042 C1050 1.574 . S
C1042 C1058 1.368 . S
H1043 C1051 0.950 . S
H1044 C1049 0.950 . S
H1045 C1050 0.949 . S
H1046 C1052 0.950 . S
H1047 C1053 0.950 . S
H1048 C1054 0.949 . S
C1049 H1044 0.950 . S
C1049 C1051 1.327 . S
C1049 C1055 1.429 . S
C1050 C1042 1.574 . S
C1050 H1045 0.949 . S
C1050 C1056 1.368 . S
C1051 C1035 1.349 . S
C1051 H1043 0.950 . S
C1051 C1049 1.327 . S
C1052 C1040 1.349 . S
C1052 H1046 0.950 . S
C1052 C1053 1.327 . S
C1053 H1047 0.950 . S
C1053 C1052 1.327 . S
C1053 C1057 1.429 . S
C1054 C1037 1.574 . S
C1054 H1048 0.949 . S
C1054 C1058 1.368 . S
C1055 C1036 1.429 . S
C1055 C1049 1.429 . S
C1055 C1056 1.523 . S
C1056 C1037 1.368 . S
C1056 C1050 1.368 . S
C1056 C1055 1.523 . S
C1057 C1041 1.429 . S
C1057 C1053 1.429 . S
C1057 C1058 1.523 . S
C1058 C1042 1.368 . S
C1058 C1054 1.368 . S
C1058 C1057 1.523 . S
H1059 C1034 0.950 . S
H1060 C1036 0.950 . S
H1061 C1037 0.949 . S
H1062 C1039 0.950 . S
H1063 C1041 0.950 . S
C1064 C1065 1.349 . S
C1064 C1066 1.327 . S
C1064 H1089 0.950 . S
C1065 C1064 1.349 . S
C1065 C1081 1.349 . S
C1066 C1064 1.327 . S
C1066 C1085 1.429 . S
C1066 H1090 0.950 . S
C1067 C1084 1.564 1_544 S
C1067 C1086 1.377 . S
C1067 H1091 0.951 . S
H1068 C1072 0.951 . S
C1069 C1070 1.349 . S
C1069 C1071 1.327 . S
C1069 H1092 0.950 . S
C1070 C1069 1.349 . S
C1070 C1082 1.349 . S
C1071 C1069 1.327 . S
C1071 C1087 1.429 . S
C1071 H1093 0.950 . S
C1072 H1068 0.951 . S
C1072 C1080 1.564 1_566 S
C1072 C1088 1.377 . S
H1073 C1081 0.950 . S
H1074 C1079 0.950 . S
H1075 C1080 0.949 . S
H1076 C1082 0.950 . S
H1077 C1083 0.950 . S
H1078 C1084 0.949 . S
C1079 H1074 0.950 . S
C1079 C1081 1.327 . S
C1079 C1085 1.429 . S
C1080 C1072 1.564 1_544 S
C1080 H1075 0.949 . S
C1080 C1086 1.368 . S
C1081 C1065 1.349 . S
C1081 H1073 0.950 . S
C1081 C1079 1.327 . S
C1082 C1070 1.349 . S
C1082 H1076 0.950 . S
C1082 C1083 1.327 . S
C1083 H1077 0.950 . S
C1083 C1082 1.327 . S
C1083 C1087 1.429 . S
C1084 C1067 1.564 1_566 S
C1084 H1078 0.949 . S
C1084 C1088 1.368 . S
C1085 C1066 1.429 . S
C1085 C1079 1.429 . S
C1085 C1086 1.523 . S
C1086 C1067 1.377 . S
C1086 C1080 1.368 . S
C1086 C1085 1.523 . S
C1087 C1071 1.429 . S
C1087 C1083 1.429 . S
C1087 C1088 1.523 . S
C1088 C1072 1.377 . S
C1088 C1084 1.368 . S
C1088 C1087 1.523 . S
H1089 C1064 0.950 . S
H1090 C1066 0.950 . S
H1091 C1067 0.951 . S
H1092 C1069 0.950 . S
H1093 C1071 0.950 . S
C1094 C1095 1.349 . S
C1094 C1096 1.327 . S
C1094 H1119 0.950 . S
C1095 C1094 1.349 . S
C1095 C1111 1.349 . S
C1096 C1094 1.327 . S
C1096 C1115 1.429 . S
C1096 H1120 0.950 . S
C1097 C1114 1.574 1_556 S
C1097 C1116 1.368 1_655 S
C1097 H1121 0.949 . S
H1098 C1102 0.949 . S
C1099 C1100 1.349 . S
C1099 C1101 1.327 . S
C1099 H1122 0.950 . S
C1100 C1099 1.349 . S
C1100 C1112 1.349 . S
C1101 C1099 1.327 . S
C1101 C1117 1.429 . S
C1101 H1123 0.950 . S
C1102 H1098 0.949 . S
C1102 C1110 1.574 1_554 S
C1102 C1118 1.368 1_455 S
H1103 C1111 0.950 . S
H1104 C1109 0.950 1_655 S
H1105 C1110 0.949 . S
H1106 C1112 0.950 . S
H1107 C1113 0.950 1_455 S
H1108 C1114 0.949 . S
C1109 H1104 0.950 1_455 S
C1109 C1111 1.327 . S
C1109 C1115 1.429 . S
C1110 C1102 1.574 1_556 S
C1110 H1105 0.949 . S
C1110 C1116 1.368 . S
C1111 C1095 1.349 . S
C1111 H1103 0.950 . S
C1111 C1109 1.327 . S
C1112 C1100 1.349 . S
C1112 H1106 0.950 . S
C1112 C1113 1.327 . S
C1113 H1107 0.950 1_655 S
C1113 C1112 1.327 . S
C1113 C1117 1.429 . S
C1114 C1097 1.574 1_554 S
C1114 H1108 0.949 . S
C1114 C1118 1.368 . S
C1115 C1096 1.429 . S
C1115 C1109 1.429 . S
C1115 C1116 1.523 . S
C1116 C1097 1.368 1_455 S
C1116 C1110 1.368 . S
C1116 C1115 1.523 . S
C1117 C1101 1.429 . S
C1117 C1113 1.429 . S
C1117 C1118 1.523 . S
C1118 C1102 1.368 1_655 S
C1118 C1114 1.368 . S
C1118 C1117 1.523 . S
H1119 C1094 0.950 . S
H1120 C1096 0.950 . S
H1121 C1097 0.949 . S
H1122 C1099 0.950 . S
H1123 C1101 0.950 . S
C1124 C1125 1.349 . S
C1124 C1126 1.337 . S
C1124 H1149 0.950 1_545 S
C1125 C1124 1.349 . S
C1125 C1141 1.349 . S
C1126 C1124 1.337 . S
C1126 C1145 1.447 . S
C1126 H1150 0.921 1_545 S
C1127 C1144 1.574 1_556 S
C1127 C1146 1.368 . S
C1127 H1151 0.949 . S
H1128 C1132 0.949 . S
C1129 C1130 1.349 . S
C1129 C1131 1.337 . S
C1129 H1152 0.950 1_565 S
C1130 C1129 1.349 . S
C1130 C1142 1.349 . S
C1131 C1129 1.337 . S
C1131 C1147 1.447 . S
C1131 H1153 0.921 1_565 S
C1132 H1128 0.949 . S
C1132 C1140 1.574 1_554 S
C1132 C1148 1.368 . S
H1133 C1141 0.950 . S
H1134 C1139 0.950 . S
H1135 C1140 0.949 . S
H1136 C1142 0.950 . S
H1137 C1143 0.950 . S
H1138 C1144 0.949 . S
C1139 H1134 0.950 . S
C1139 C1141 1.327 . S
C1139 C1145 1.429 . S
C1140 C1132 1.574 1_556 S
C1140 H1135 0.949 . S
C1140 C1146 1.368 1_565 S
C1141 C1125 1.349 . S
C1141 H1133 0.950 . S
C1141 C1139 1.327 . S
C1142 C1130 1.349 . S
C1142 H1136 0.950 . S
C1142 C1143 1.327 . S
C1143 H1137 0.950 . S
C1143 C1142 1.327 . S
C1143 C1147 1.429 . S
C1144 C1127 1.574 1_554 S
C1144 H1138 0.949 . S
C1144 C1148 1.368 1_545 S
C1145 C1126 1.447 . S
C1145 C1139 1.429 . S
C1145 C1146 1.523 . S
C1146 C1127 1.368 . S
C1146 C1140 1.368 1_545 S
C1146 C1145 1.523 . S
C1147 C1131 1.447 . S
C1147 C1143 1.429 . S
C1147 C1148 1.523 . S
C1148 C1132 1.368 . S
C1148 C1144 1.368 1_565 S
C1148 C1147 1.523 . S
H1149 C1124 0.950 1_565 S
H1150 C1126 0.921 1_565 S
H1151 C1127 0.949 . S
H1152 C1129 0.950 1_545 S
H1153 C1131 0.921 1_545 S
C1154 C1155 1.349 . S
C1154 C1156 1.327 . S
C1154 H1179 0.950 . S
C1155 C1154 1.349 . S
C1155 C1171 1.349 . S
C1156 C1154 1.327 . S
C1156 C1175 1.429 . S
C1156 H1180 0.950 1_655 S
C1157 C1174 1.574 1_556 S
C1157 C1176 1.368 . S
C1157 H1181 0.949 . S
H1158 C1162 0.949 . S
C1159 C1160 1.349 . S
C1159 C1161 1.327 . S
C1159 H1182 0.950 . S
C1160 C1159 1.349 . S
C1160 C1172 1.349 . S
C1161 C1159 1.327 . S
C1161 C1177 1.429 . S
C1161 H1183 0.950 1_455 S
C1162 H1158 0.949 . S
C1162 C1170 1.574 1_554 S
C1162 C1178 1.368 . S
H1163 C1171 0.950 . S
H1164 C1169 0.950 . S
H1165 C1170 0.949 . S
H1166 C1172 0.950 . S
H1167 C1173 0.950 . S
H1168 C1174 0.949 . S
C1169 H1164 0.950 . S
C1169 C1171 1.327 . S
C1169 C1175 1.429 . S
C1170 C1162 1.574 1_556 S
C1170 H1165 0.949 . S
C1170 C1176 1.368 1_455 S
C1171 C1155 1.349 . S
C1171 H1163 0.950 . S
C1171 C1169 1.327 . S
C1172 C1160 1.349 . S
C1172 H1166 0.950 . S
C1172 C1173 1.327 . S
C1173 H1167 0.950 . S
C1173 C1172 1.327 . S
C1173 C1177 1.429 . S
C1174 C1157 1.574 1_554 S
C1174 H1168 0.949 . S
C1174 C1178 1.368 1_655 S
C1175 C1156 1.429 . S
C1175 C1169 1.429 . S
C1175 C1176 1.523 . S
C1176 C1157 1.368 . S
C1176 C1170 1.368 1_655 S
C1176 C1175 1.523 . S
C1177 C1161 1.429 . S
C1177 C1173 1.429 . S
C1177 C1178 1.523 . S
C1178 C1162 1.368 . S
C1178 C1174 1.368 1_455 S
C1178 C1177 1.523 . S
H1179 C1154 0.950 . S
H1180 C1156 0.950 1_455 S
H1181 C1157 0.949 . S
H1182 C1159 0.950 . S
H1183 C1161 0.950 1_655 S
C225 C11 1.168 . S
C230 C109 1.168 . S
C255 C25 1.168 . S
C260 C67 1.168 . S
C285 C81 1.168 . S
C290 C39 1.168 . S
C315 C53 1.168 . S
C320 C95 1.168 . S
C345 C123 1.168 . S
C350 C221 1.168 . S
C375 C179 1.168 . S
C380 C137 1.168 . S
C405 C193 1.168 . S
C410 C151 1.168 . S
C435 C207 1.168 . S
C440 C165 1.168 . S
C465 C5 1.328 . S
C470 C154 1.336 . S
C495 C19 1.328 . S
C500 C112 1.336 . S
C525 C126 1.336 . S
C530 C33 1.328 . S
C555 C47 1.328 . S
C560 C140 1.336 . S
C585 C61 1.328 . S
C590 C182 1.336 . S
C615 C196 1.336 . S
C620 C75 1.328 . S
C645 C89 1.328 . S
C650 C210 1.336 . S
C675 C168 1.336 . S
C680 C103 1.328 . S
C705 C117 1.328 1_545 S
C710 C42 1.336 . S
C735 C0 1.336 . S
C740 C131 1.328 1_455 S
C765 C145 1.328 1_565 S
C770 C14 1.336 . S
C795 C28 1.336 . S
C800 C159 1.328 1_655 S
C825 C173 1.328 1_565 S
C830 C70 1.336 . S
C855 C84 1.336 . S
C860 C187 1.328 1_655 S
C885 C98 1.336 . S
C890 C201 1.328 1_545 S
C915 C56 1.336 . S
C920 C215 1.328 1_455 S
C945 C65 1.658 . S
C950 C9 1.658 . S
C975 C79 1.658 . S
C980 C23 1.658 . S
C1005 C37 1.658 . S
C1010 C93 1.658 . S
C1035 C107 1.658 . S
C1040 C51 1.658 . S
C1065 C177 1.658 . S
C1070 C121 1.658 . S
C1095 C191 1.658 . S
C1100 C135 1.658 . S
C1125 C149 1.658 . S
C1130 C205 1.658 . S
C1155 C219 1.658 . S
C1160 C163 1.658 . S
