# Generated by pormake.
# Topology mmt, (4)-cn, num edge types: 1
# Building blocks:
#     Node 0, Type 0, BuildingBlock: GALJAG_clean_sbu_0, # of connection points: 4
#     Node 1, Type 0, BuildingBlock: GALJAG_clean_sbu_0, # of connection points: 4
#     Node 2, Type 0, BuildingBlock: GALJAG_clean_sbu_0, # of connection points: 4
#     Node 3, Type 0, BuildingBlock: GALJAG_clean_sbu_0, # of connection points: 4
#     Node 4, Type 0, BuildingBlock: GALJAG_clean_sbu_0, # of connection points: 4
#     Node 5, Type 0, BuildingBlock: GALJAG_clean_sbu_0, # of connection points: 4
#     Node 6, Type 0, BuildingBlock: GALJAG_clean_sbu_0, # of connection points: 4
#     Node 7, Type 0, BuildingBlock: GALJAG_clean_sbu_0, # of connection points: 4
#     Edge 8, Type (0, 0), BuildingBlock: XIVTED_clean_linker_0, # of connection points: 2
#     Edge 9, Type (0, 0), BuildingBlock: XIVTED_clean_linker_0, # of connection points: 2
#     Edge 10, Type (0, 0), BuildingBlock: XIVTED_clean_linker_0, # of connection points: 2
#     Edge 11, Type (0, 0), BuildingBlock: XIVTED_clean_linker_0, # of connection points: 2
#     Edge 12, Type (0, 0), BuildingBlock: XIVTED_clean_linker_0, # of connection points: 2
#     Edge 13, Type (0, 0), BuildingBlock: XIVTED_clean_linker_0, # of connection points: 2
#     Edge 14, Type (0, 0), BuildingBlock: XIVTED_clean_linker_0, # of connection points: 2
#     Edge 15, Type (0, 0), BuildingBlock: XIVTED_clean_linker_0, # of connection points: 2
#     Edge 16, Type (0, 0), BuildingBlock: XIVTED_clean_linker_0, # of connection points: 2
#     Edge 17, Type (0, 0), BuildingBlock: XIVTED_clean_linker_0, # of connection points: 2
#     Edge 18, Type (0, 0), BuildingBlock: XIVTED_clean_linker_0, # of connection points: 2
#     Edge 19, Type (0, 0), BuildingBlock: XIVTED_clean_linker_0, # of connection points: 2
#     Edge 20, Type (0, 0), BuildingBlock: XIVTED_clean_linker_0, # of connection points: 2
#     Edge 21, Type (0, 0), BuildingBlock: XIVTED_clean_linker_0, # of connection points: 2
#     Edge 22, Type (0, 0), BuildingBlock: XIVTED_clean_linker_0, # of connection points: 2
#     Edge 23, Type (0, 0), BuildingBlock: XIVTED_clean_linker_0, # of connection points: 2
# Relax obj value: 0.016
# Max RMSD: 0.061
# Mean RMSD: 0.061
data_MOF--net-mmt--node1-GALJAG_clean_sbu_0--edge1-XIVTED_clean_linker_0
_symmetry_space_group_name_H-M    P1
_symmetry_Int_Tables_number       1
_symmetry_cell_setting            triclinic
loop_
_symmetry_equiv_pos_as_xyz
'x, y, z'
_cell_length_a     25.107863
_cell_length_b     37.302036
_cell_length_c     41.591213
_cell_angle_alpha  90.370133
_cell_angle_beta   89.935196
_cell_angle_gamma 89.732052
loop_
_atom_site_label
_atom_site_type_symbol
_atom_site_fract_x
_atom_site_fract_y
_atom_site_fract_z
_atom_type_partial_charge
In0 In 0.12042 0.56232 0.33754 0.0
O1 O 0.19686 0.52798 0.3389 0.0
O2 O 0.17059 0.54853 0.29405 0.0
C3 C 0.0837 0.53797 0.3943 0.0
C4 C 0.16207 0.6288 0.34088 0.0
C5 C 0.03084 0.5525 0.30278 0.0
O6 O 0.1068 0.51769 0.37416 0.0
O7 O 0.08039 0.57036 0.38605 0.0
O8 O 0.0369 0.57908 0.32129 0.0
O9 O 0.06974 0.53106 0.30181 0.0
C10 C 0.20518 0.53065 0.30902 0.0
O11 O 0.13301 0.61851 0.31795 0.0
O12 O 0.16934 0.60583 0.36257 0.0
In13 In 0.37457 0.936 0.33396 0.0
O14 O 0.30137 0.97321 0.33247 0.0
O15 O 0.31832 0.94083 0.29155 0.0
C16 C 0.41261 0.95452 0.39222 0.0
C17 C 0.3402 0.86805 0.34061 0.0
C18 C 0.45886 0.95705 0.29858 0.0
O19 O 0.37323 0.97023 0.37959 0.0
O20 O 0.43188 0.92901 0.37577 0.0
O21 O 0.44842 0.92447 0.30335 0.0
O22 O 0.42642 0.97888 0.31121 0.0
C23 C 0.2878 0.96357 0.30453 0.0
O24 O 0.36894 0.87788 0.31743 0.0
O25 O 0.32977 0.89229 0.36099 0.0
In26 In 0.62479 0.44256 0.15613 0.0
O27 O 0.61918 0.38107 0.15873 0.0
O28 O 0.69367 0.40415 0.1469 0.0
C29 C 0.53738 0.45799 0.19154 0.0
C30 C 0.70397 0.48001 0.18418 0.0
C31 C 0.59068 0.45946 0.09654 0.0
O32 O 0.56658 0.43117 0.19762 0.0
O33 O 0.55287 0.47675 0.16828 0.0
O34 O 0.61785 0.48062 0.11361 0.0
O35 O 0.58203 0.42937 0.10914 0.0
C36 C 0.66758 0.37597 0.1517 0.0
O37 O 0.70121 0.47507 0.1542 0.0
O38 O 0.66609 0.46678 0.20007 0.0
In39 In 0.87378 0.06502 0.15478 0.0
O40 O 0.80507 0.02533 0.15905 0.0
O41 O 0.8184 0.06153 0.1979 0.0
C42 C 0.91149 0.04567 0.0963 0.0
C43 C 0.83497 0.13172 0.14537 0.0
C44 C 0.95611 0.04502 0.19251 0.0
O45 O 0.8731 0.02986 0.10963 0.0
O46 O 0.92969 0.07193 0.112 0.0
O47 O 0.93982 0.07705 0.19136 0.0
O48 O 0.9304 0.02336 0.17519 0.0
C49 C 0.79042 0.03658 0.18637 0.0
O50 O 0.87874 0.12598 0.15939 0.0
O51 O 0.81177 0.10395 0.13523 0.0
In52 In 0.87513 0.42739 0.65384 0.0
O53 O 0.86546 0.37009 0.67134 0.0
O54 O 0.82593 0.3846 0.62813 0.0
C55 C 0.96395 0.43927 0.68889 0.0
C56 C 0.7893 0.45658 0.68323 0.0
C57 C 0.91045 0.45157 0.59671 0.0
O58 O 0.95926 0.41256 0.67042 0.0
O59 O 0.92399 0.45979 0.6898 0.0
O60 O 0.88644 0.4717 0.61659 0.0
O61 O 0.91537 0.41942 0.60542 0.0
C62 C 0.83521 0.36063 0.64866 0.0
O63 O 0.80042 0.46343 0.65425 0.0
O64 O 0.82167 0.43579 0.69695 0.0
In65 In 0.62088 0.05382 0.65631 0.0
O66 O 0.6943 0.01678 0.65731 0.0
O67 O 0.6758 0.04722 0.69915 0.0
C68 C 0.58329 0.03558 0.59788 0.0
C69 C 0.65644 0.12164 0.65071 0.0
C70 C 0.53551 0.03365 0.69114 0.0
O71 O 0.62186 0.01934 0.61085 0.0
O72 O 0.56461 0.06149 0.61407 0.0
O73 O 0.5467 0.0661 0.68635 0.0
O74 O 0.5677 0.01146 0.67877 0.0
C75 C 0.70694 0.0252 0.68572 0.0
O76 O 0.62791 0.11147 0.67385 0.0
O77 O 0.66607 0.09783 0.6298 0.0
In78 In 0.37142 0.55197 0.83445 0.0
O79 O 0.29448 0.51993 0.8362 0.0
O80 O 0.32775 0.53059 0.79023 0.0
C81 C 0.4088 0.53473 0.89327 0.0
C82 C 0.3292 0.61855 0.84028 0.0
C83 C 0.45683 0.53483 0.79795 0.0
O84 O 0.37917 0.51419 0.87714 0.0
O85 O 0.41835 0.56441 0.88015 0.0
O86 O 0.43177 0.56401 0.79433 0.0
O87 O 0.43824 0.51465 0.81938 0.0
C88 C 0.29042 0.51664 0.8061 0.0
O89 O 0.37627 0.61335 0.8305 0.0
O90 O 0.3042 0.59045 0.84718 0.0
In91 In 0.1216 0.92895 0.83773 0.0
O92 O 0.19037 0.96848 0.83269 0.0
O93 O 0.17551 0.93236 0.79398 0.0
C94 C 0.08485 0.9485 0.89636 0.0
C95 C 0.16116 0.86248 0.84729 0.0
C96 C 0.03853 0.94871 0.80051 0.0
O97 O 0.12272 0.96449 0.88267 0.0
O98 O 0.06677 0.92199 0.88096 0.0
O99 O 0.0552 0.91675 0.80141 0.0
O100 O 0.06419 0.97039 0.81784 0.0
C101 C 0.20404 0.95721 0.80518 0.0
O102 O 0.11664 0.86789 0.83403 0.0
O103 O 0.18472 0.89046 0.85661 0.0
H104 H 0.28743 0.4906 0.33444 0.0
H105 H 0.46112 0.50587 0.17458 0.0
H106 H 0.23145 0.53766 0.2461 0.0
H107 H 0.50144 0.43025 0.24887 0.0
H108 H 0.37964 0.52096 0.20335 0.0
H109 H 0.36854 0.47045 0.30617 0.0
C110 C 0.29203 0.49647 0.30912 0.0
C111 C 0.25281 0.51597 0.29261 0.0
C112 C 0.40609 0.50097 0.21342 0.0
C113 C 0.34513 0.49344 0.26043 0.0
C114 C 0.45282 0.49245 0.19705 0.0
C115 C 0.4881 0.46679 0.20939 0.0
C116 C 0.39453 0.48405 0.24264 0.0
C117 C 0.47515 0.45016 0.23855 0.0
C118 C 0.33819 0.48496 0.29304 0.0
C119 C 0.26068 0.52284 0.25984 0.0
N120 N 0.42939 0.45923 0.25437 0.0
N121 N 0.30598 0.51183 0.24496 0.0
H122 H 0.01282 0.08397 0.23698 0.0
H123 H 0.24251 0.93672 0.25026 0.0
H124 H 0.00681 0.98049 0.19017 0.0
H125 H 0.2221 0.01949 0.32225 0.0
H126 H 0.16082 0.95676 0.22422 0.0
H127 H 0.09367 0.06475 0.26548 0.0
C128 C 0.02838 0.05721 0.23282 0.0
C129 C 0.0032 0.03377 0.21118 0.0
C130 C 0.17409 0.97055 0.24573 0.0
C131 C 0.09551 0.01192 0.24322 0.0
C132 C 0.22088 0.95924 0.26053 0.0
C133 C 0.23904 0.97648 0.28846 0.0
C134 C 0.14541 -0.00037 0.25869 0.0
C135 C 0.20932 0.00545 0.30077 0.0
C136 C 0.07436 0.04628 0.24908 0.0
C137 C 0.02491 -0.00059 0.20665 0.0
N138 N 0.16395 0.01628 0.28569 0.0
N139 N 0.06998 0.98963 0.22234 0.0
H140 H 0.8019 0.49126 0.15799 0.0
H141 H 0.93109 0.57948 0.31431 0.0
H142 H 0.71201 0.5063 0.24557 0.0
H143 H 0.0197 0.51179 0.24871 0.0
H144 H 0.84946 0.56625 0.28393 0.0
H145 H 0.88162 0.513 0.18567 0.0
C146 C 0.79879 0.49964 0.18291 0.0
C147 C 0.75049 0.4968 0.19964 0.0
C148 C 0.88693 0.55453 0.27619 0.0
C149 C 0.84115 0.52182 0.2312 0.0
C150 C 0.93337 0.56213 0.29336 0.0
C151 C 0.98194 0.54649 0.28402 0.0
C152 C 0.88957 0.53188 0.24916 0.0
C153 C 0.98289 0.52414 0.2568 0.0
C154 C 0.84427 0.51182 0.19868 0.0
C155 C 0.74866 0.50789 0.23193 0.0
N156 N 0.93738 0.5176 0.24022 0.0
N157 N 0.79345 0.51997 0.24673 0.0
H158 H 0.73271 0.9763 0.17242 0.0
H159 H 0.50031 0.02434 0.29623 0.0
H160 H 0.73894 0.06671 0.23754 0.0
H161 H 0.52595 0.91656 0.26101 0.0
H162 H 0.58155 0.04314 0.26876 0.0
H163 H 0.651 0.95626 0.19921 0.0
C164 C 0.71695 0.99183 0.1924 0.0
C165 C 0.74256 0.02313 0.20287 0.0
C166 C 0.56938 0.01538 0.26704 0.0
C167 C 0.64917 0.00077 0.23313 0.0
C168 C 0.52291 0.00468 0.28255 0.0
C169 C 0.50654 0.96884 0.28091 0.0
C170 C 0.59931 0.99017 0.24941 0.0
C171 C 0.53737 0.94444 0.26294 0.0
C172 C 0.67049 0.98038 0.20766 0.0
C173 C 0.72055 0.04232 0.22882 0.0
N174 N 0.58228 0.95558 0.24774 0.0
N175 N 0.67491 0.03098 0.24291 0.0
H176 H 0.50092 0.56879 0.74568 0.0
H177 H 0.75484 0.43893 0.74287 0.0
H178 H 0.52287 0.4784 0.80863 0.0
H179 H 0.71452 0.50521 0.6617 0.0
H180 H 0.67435 0.45922 0.77009 0.0
H181 H 0.58282 0.55131 0.71683 0.0
C182 C 0.52289 0.54531 0.75338 0.0
C183 C 0.50514 0.52498 0.77955 0.0
C184 C 0.68293 0.4694 0.74632 0.0
C185 C 0.5985 0.5052 0.74707 0.0
C186 C 0.72908 0.45791 0.73078 0.0
C187 C 0.7413 0.4703 0.69991 0.0
C188 C 0.64861 0.49372 0.73107 0.0
C189 C 0.70639 0.49493 0.68548 0.0
C190 C 0.56944 0.53535 0.73691 0.0
C191 C 0.53498 0.49483 0.78856 0.0
N192 N 0.66148 0.50591 0.70121 0.0
N193 N 0.5802 0.48599 0.77247 0.0
H194 H 0.77401 0.97057 0.66667 0.0
H195 H 0.98696 0.01286 0.8037 0.0
H196 H 0.7507 0.05024 0.74112 0.0
H197 H 0.98242 0.91014 0.75546 0.0
H198 H 0.90655 0.03071 0.77504 0.0
H199 H 0.85623 0.95108 0.69368 0.0
C200 C 0.78613 0.98387 0.68869 0.0
C201 C 0.75556 0.012 0.70174 0.0
C202 C 0.9231 0.00426 0.77068 0.0
C203 C 0.84933 0.99031 0.73229 0.0
C204 C 0.96915 0.9941 0.78692 0.0
C205 C 0.99124 0.95992 0.78201 0.0
C206 C 0.89913 0.98024 0.74906 0.0
C207 C 0.96646 0.9367 0.76 0.0
C208 C 0.83287 0.97273 0.70406 0.0
C209 C 0.77296 0.02836 0.73028 0.0
N210 N 0.92165 0.94732 0.74421 0.0
N211 N 0.81881 0.01744 0.74446 0.0
H212 H 0.19269 0.50515 0.83255 0.0
H213 H 0.06472 0.41438 0.67719 0.0
H214 H 0.28159 0.49153 0.74443 0.0
H215 H 0.97379 0.48086 0.74261 0.0
H216 H 0.14602 0.42968 0.70703 0.0
H217 H 0.11295 0.48291 0.80512 0.0
C218 C 0.19555 0.49703 0.80754 0.0
C219 C 0.24359 0.5003 0.79062 0.0
C220 C 0.10813 0.44069 0.71485 0.0
C221 C 0.15301 0.47466 0.75938 0.0
C222 C 0.06187 0.4319 0.69799 0.0
C223 C 0.01271 0.44656 0.70744 0.0
C224 C 0.10479 0.46358 0.74169 0.0
C225 C 0.01105 0.46921 0.73446 0.0
C226 C 0.15007 0.48457 0.79193 0.0
C227 C 0.24514 0.48958 0.75823 0.0
N228 N 0.05646 0.47693 0.75077 0.0
N229 N 0.20042 0.47713 0.74361 0.0
H230 H 0.26303 0.01708 0.81858 0.0
H231 H 0.49218 0.96687 0.69334 0.0
H232 H 0.25348 0.92687 0.75339 0.0
H233 H 0.46949 0.07488 0.72871 0.0
H234 H 0.41065 0.94897 0.72102 0.0
H235 H 0.34442 0.03648 0.79106 0.0
C236 C 0.27798 0.00147 0.79843 0.0
C237 C 0.25156 0.97039 0.78817 0.0
C238 C 0.42352 0.97659 0.72271 0.0
C239 C 0.34458 0.99201 0.75708 0.0
C240 C 0.47014 0.98677 0.70708 0.0
C241 C 0.48745 0.02241 0.70874 0.0
C242 C 0.3944 0.00211 0.74049 0.0
C243 C 0.45733 0.04715 0.72678 0.0
C244 C 0.32426 0.01255 0.78275 0.0
C245 C 0.27253 0.95109 0.76198 0.0
N246 N 0.41228 0.0365 0.74211 0.0
N247 N 0.31804 0.96206 0.74749 0.0
H248 H 0.08239 0.46921 0.41702 0.0
H249 H 0.90997 0.52012 0.57341 0.0
H250 H 0.03031 0.57678 0.43999 0.0
H251 H 0.96415 0.41284 0.55113 0.0
H252 H 0.95268 0.54135 0.52418 0.0
H253 H 0.03911 0.44795 0.46604 0.0
C254 C 0.06205 0.48836 0.43246 0.0
C255 C 0.05996 0.5248 0.42447 0.0
C256 C 0.95512 0.51315 0.53002 0.0
C257 C 0.01007 0.50071 0.48044 0.0
C258 C 0.93062 0.50103 0.55807 0.0
C259 C 0.93354 0.46469 0.56634 0.0
C260 C 0.98275 0.48874 0.51013 0.0
C261 C 0.96092 0.4411 0.54565 0.0
C262 C 0.03723 0.47622 0.4604 0.0
C263 C 0.03295 0.54845 0.44527 0.0
N264 N 0.98452 0.45354 0.51855 0.0
N265 N 0.009 0.53599 0.47226 0.0
H266 H 0.38043 0.00982 0.43126 0.0
H267 H 0.61499 0.97997 0.55906 0.0
H268 H 0.49846 0.92577 0.42322 0.0
H269 H 0.49817 0.06485 0.5665 0.0
H270 H 0.57303 0.95979 0.50913 0.0
H271 H 0.42249 0.03009 0.48114 0.0
C272 C 0.41506 0.99554 0.44009 0.0
C273 C 0.436 0.96607 0.42312 0.0
C274 C 0.55663 0.98288 0.52163 0.0
C275 C 0.48453 0.9892 0.48004 0.0
C276 C 0.58065 0.99445 0.55009 0.0
C277 C 0.56002 0.02413 0.56691 0.0
C278 C 0.51158 0.00108 0.50994 0.0
C279 C 0.51539 0.04186 0.55426 0.0
C280 C 0.43915 0.00717 0.46851 0.0
C281 C 0.481 0.9486 0.43558 0.0
N282 N 0.49261 0.03003 0.52656 0.0
N283 N 0.5038 0.96046 0.46326 0.0
H284 H 0.60099 0.52349 0.06561 0.0
H285 H 0.39815 0.47096 0.92454 0.0
H286 H 0.52595 0.42002 0.05725 0.0
H287 H 0.47639 0.57348 0.93136 0.0
H288 H 0.44384 0.45205 0.9735 0.0
H289 H 0.55621 0.54222 0.01628 0.0
C290 C 0.57538 0.50462 0.05324 0.0
C291 C 0.56714 0.47015 0.06551 0.0
C292 C 0.45094 0.47872 0.96435 0.0
C293 C 0.51537 0.49148 0.00923 0.0
C294 C 0.42471 0.48957 0.93648 0.0
C295 C 0.43348 0.52385 0.92392 0.0
C296 C 0.48624 0.50231 0.9798 0.0
C297 C 0.46844 0.54682 0.94027 0.0
C298 C 0.54968 0.51536 0.02514 0.0
C299 C 0.53344 0.44683 0.04859 0.0
N300 N 0.49361 0.53562 0.96734 0.0
N301 N 0.50865 0.45796 0.02137 0.0
H302 H 0.00082 0.91989 0.929 0.0
H303 H 0.99637 0.07399 0.06417 0.0
H304 H 0.11358 0.00676 0.93261 0.0
H305 H 0.88257 0.98777 0.05972 0.0
H306 H 0.03969 0.04997 0.0159 0.0
H307 H 0.95774 0.94391 0.97731 0.0
C308 C 0.01674 0.9439 0.9401 0.0
C309 C 0.06086 0.96135 0.9268 0.0
C310 C 0.00515 0.03635 0.0254 0.0
C311 C 0.01147 0.9892 0.98196 0.0
C312 C 0.98029 0.05013 0.0529 0.0
C313 C 0.93578 0.03285 0.06594 0.0
C314 C 0.98543 0.00502 0.01086 0.0
C315 C 0.91674 0.00197 0.05043 0.0
C316 C 0.992 0.95768 0.96762 0.0
C317 C 0.0797 0.99243 0.94211 0.0
N318 N 0.94175 0.98899 0.02375 0.0
N319 N 0.05482 0.00541 0.96883 0.0
H320 H 0.17627 0.67411 0.29058 0.0
H321 H 0.29463 0.83547 0.39257 0.0
H322 H 0.20649 0.66383 0.39222 0.0
H323 H 0.33288 0.81859 0.29242 0.0
H324 H 0.25163 0.77646 0.3935 0.0
H325 H 0.22202 0.73188 0.29119 0.0
C326 C 0.19226 0.68416 0.31307 0.0
C327 C 0.18768 0.66427 0.3414 0.0
C328 C 0.2698 0.78568 0.37144 0.0
C329 C 0.23966 0.73024 0.34227 0.0
C330 C 0.2942 0.81926 0.37087 0.0
C331 C 0.31732 0.8318 0.34238 0.0
C332 C 0.26758 0.76502 0.34315 0.0
C333 C 0.3157 0.80983 0.31491 0.0
C334 C 0.21862 0.71695 0.31334 0.0
C335 C 0.20936 0.67838 0.36985 0.0
N336 N 0.29074 0.77764 0.31588 0.0
N337 N 0.23418 0.71071 0.36964 0.0
H338 H 0.73319 0.14893 0.12794 0.0
H339 H 0.77335 0.36012 0.14788 0.0
H340 H 0.88136 0.19641 0.15834 0.0
H341 H 0.61863 0.31033 0.15027 0.0
H342 H 0.81474 0.30081 0.14436 0.0
H343 H 0.69185 0.20853 0.12829 0.0
C344 C 0.75715 0.17195 0.1344 0.0
C345 C 0.81077 0.16778 0.14316 0.0
C346 C 0.77174 0.30285 0.14566 0.0
C347 C 0.76376 0.23588 0.1436 0.0
C348 C 0.74806 0.33667 0.14759 0.0
C349 C 0.69247 0.34009 0.14945 0.0
C350 C 0.73961 0.27218 0.14517 0.0
C351 C 0.66165 0.30883 0.14902 0.0
C352 C 0.73344 0.20588 0.13478 0.0
C353 C 0.83988 0.19846 0.15148 0.0
N354 N 0.68565 0.27611 0.1468 0.0
N355 N 0.81602 0.23124 0.15145 0.0
H356 H 0.66533 0.16973 0.69986 0.0
H357 H 0.7887 0.32754 0.59697 0.0
H358 H 0.70119 0.15546 0.59908 0.0
H359 H 0.82391 0.31316 0.6976 0.0
H360 H 0.74365 0.26919 0.59646 0.0
H361 H 0.70938 0.22806 0.69868 0.0
C362 C 0.68207 0.17905 0.67741 0.0
C363 C 0.67978 0.1578 0.64952 0.0
C364 C 0.7615 0.27885 0.61855 0.0
C365 C 0.72987 0.2244 0.64802 0.0
C366 C 0.78705 0.31205 0.61889 0.0
C367 C 0.81012 0.32501 0.64736 0.0
C368 C 0.75804 0.25906 0.64705 0.0
C369 C 0.8069 0.304 0.67511 0.0
C370 C 0.70746 0.21217 0.67683 0.0
C371 C 0.70233 0.17105 0.62111 0.0
N372 N 0.78088 0.27218 0.67435 0.0
N373 N 0.72631 0.20368 0.62102 0.0
H374 H 0.22423 0.63424 0.84935 0.0
H375 H 0.26443 0.84597 0.86172 0.0
H376 H 0.37754 0.68431 0.83753 0.0
H377 H 0.11403 0.79737 0.83741 0.0
H378 H 0.30607 0.78645 0.86141 0.0
H379 H 0.18285 0.69356 0.85318 0.0
C380 C 0.24922 0.65776 0.84766 0.0
C381 C 0.30439 0.65441 0.84302 0.0
C382 C 0.26393 0.78885 0.85626 0.0
C383 C 0.25729 0.7223 0.84765 0.0
C384 C 0.24007 0.82273 0.85662 0.0
C385 C 0.1857 0.82654 0.84954 0.0
C386 C 0.23304 0.75856 0.84919 0.0
C387 C 0.15608 0.79559 0.84293 0.0
C388 C 0.22553 0.69157 0.84976 0.0
C389 C 0.33483 0.68575 0.84097 0.0
N390 N 0.18012 0.76286 0.84298 0.0
N391 N 0.31088 0.71846 0.84342 0.0
loop_
_geom_bond_atom_site_label_1
_geom_bond_atom_site_label_2
_geom_bond_distance
_geom_bond_site_symmetry_2
_ccdc_geom_bond_type
In0 O1 2.294 . S
In0 O2 2.326 . S
In0 O6 2.266 . S
In0 O7 2.326 . S
In0 O8 2.266 . S
In0 O9 2.326 . S
In0 O11 2.294 . S
In0 O12 2.326 . S
O1 In0 2.294 . S
O1 C10 1.240 . S
O2 In0 2.326 . S
O2 C10 1.252 . S
C3 O6 1.252 . S
C3 O7 1.260 . S
C4 O11 1.240 . S
C4 O12 1.252 . S
C5 O8 1.252 . S
C5 O9 1.260 . S
O6 In0 2.266 . S
O6 C3 1.252 . S
O7 In0 2.326 . S
O7 C3 1.260 . S
O8 In0 2.266 . S
O8 C5 1.252 . S
O9 In0 2.326 . S
O9 C5 1.260 . S
C10 O1 1.240 . S
C10 O2 1.252 . S
O11 In0 2.294 . S
O11 C4 1.240 . S
O12 In0 2.326 . S
O12 C4 1.252 . S
In13 O14 2.294 . S
In13 O15 2.326 . S
In13 O19 2.266 . S
In13 O20 2.326 . S
In13 O21 2.266 . S
In13 O22 2.326 . S
In13 O24 2.294 . S
In13 O25 2.326 . S
O14 In13 2.294 . S
O14 C23 1.240 . S
O15 In13 2.326 . S
O15 C23 1.252 . S
C16 O19 1.252 . S
C16 O20 1.260 . S
C17 O24 1.240 . S
C17 O25 1.252 . S
C18 O21 1.252 . S
C18 O22 1.260 . S
O19 In13 2.266 . S
O19 C16 1.252 . S
O20 In13 2.326 . S
O20 C16 1.260 . S
O21 In13 2.266 . S
O21 C18 1.252 . S
O22 In13 2.326 . S
O22 C18 1.260 . S
C23 O14 1.240 . S
C23 O15 1.252 . S
O24 In13 2.294 . S
O24 C17 1.240 . S
O25 In13 2.326 . S
O25 C17 1.252 . S
In26 O27 2.294 . S
In26 O28 2.326 . S
In26 O32 2.266 . S
In26 O33 2.326 . S
In26 O34 2.266 . S
In26 O35 2.326 . S
In26 O37 2.294 . S
In26 O38 2.326 . S
O27 In26 2.294 . S
O27 C36 1.240 . S
O28 In26 2.326 . S
O28 C36 1.252 . S
C29 O32 1.252 . S
C29 O33 1.260 . S
C30 O37 1.240 . S
C30 O38 1.252 . S
C31 O34 1.252 . S
C31 O35 1.260 . S
O32 In26 2.266 . S
O32 C29 1.252 . S
O33 In26 2.326 . S
O33 C29 1.260 . S
O34 In26 2.266 . S
O34 C31 1.252 . S
O35 In26 2.326 . S
O35 C31 1.260 . S
C36 O27 1.240 . S
C36 O28 1.252 . S
O37 In26 2.294 . S
O37 C30 1.240 . S
O38 In26 2.326 . S
O38 C30 1.252 . S
In39 O40 2.294 . S
In39 O41 2.326 . S
In39 O45 2.266 . S
In39 O46 2.326 . S
In39 O47 2.266 . S
In39 O48 2.326 . S
In39 O50 2.294 . S
In39 O51 2.326 . S
O40 In39 2.294 . S
O40 C49 1.240 . S
O41 In39 2.326 . S
O41 C49 1.252 . S
C42 O45 1.252 . S
C42 O46 1.260 . S
C43 O50 1.240 . S
C43 O51 1.252 . S
C44 O47 1.252 . S
C44 O48 1.260 . S
O45 In39 2.266 . S
O45 C42 1.252 . S
O46 In39 2.326 . S
O46 C42 1.260 . S
O47 In39 2.266 . S
O47 C44 1.252 . S
O48 In39 2.326 . S
O48 C44 1.260 . S
C49 O40 1.240 . S
C49 O41 1.252 . S
O50 In39 2.294 . S
O50 C43 1.240 . S
O51 In39 2.326 . S
O51 C43 1.252 . S
In52 O53 2.294 . S
In52 O54 2.326 . S
In52 O58 2.266 . S
In52 O59 2.326 . S
In52 O60 2.266 . S
In52 O61 2.326 . S
In52 O63 2.294 . S
In52 O64 2.326 . S
O53 In52 2.294 . S
O53 C62 1.240 . S
O54 In52 2.326 . S
O54 C62 1.252 . S
C55 O58 1.252 . S
C55 O59 1.260 . S
C56 O63 1.240 . S
C56 O64 1.252 . S
C57 O60 1.252 . S
C57 O61 1.260 . S
O58 In52 2.266 . S
O58 C55 1.252 . S
O59 In52 2.326 . S
O59 C55 1.260 . S
O60 In52 2.266 . S
O60 C57 1.252 . S
O61 In52 2.326 . S
O61 C57 1.260 . S
C62 O53 1.240 . S
C62 O54 1.252 . S
O63 In52 2.294 . S
O63 C56 1.240 . S
O64 In52 2.326 . S
O64 C56 1.252 . S
In65 O66 2.294 . S
In65 O67 2.326 . S
In65 O71 2.266 . S
In65 O72 2.326 . S
In65 O73 2.266 . S
In65 O74 2.326 . S
In65 O76 2.294 . S
In65 O77 2.326 . S
O66 In65 2.294 . S
O66 C75 1.240 . S
O67 In65 2.326 . S
O67 C75 1.252 . S
C68 O71 1.252 . S
C68 O72 1.260 . S
C69 O76 1.240 . S
C69 O77 1.252 . S
C70 O73 1.252 . S
C70 O74 1.260 . S
O71 In65 2.266 . S
O71 C68 1.252 . S
O72 In65 2.326 . S
O72 C68 1.260 . S
O73 In65 2.266 . S
O73 C70 1.252 . S
O74 In65 2.326 . S
O74 C70 1.260 . S
C75 O66 1.240 . S
C75 O67 1.252 . S
O76 In65 2.294 . S
O76 C69 1.240 . S
O77 In65 2.326 . S
O77 C69 1.252 . S
In78 O79 2.294 . S
In78 O80 2.326 . S
In78 O84 2.266 . S
In78 O85 2.326 . S
In78 O86 2.266 . S
In78 O87 2.326 . S
In78 O89 2.294 . S
In78 O90 2.326 . S
O79 In78 2.294 . S
O79 C88 1.240 . S
O80 In78 2.326 . S
O80 C88 1.252 . S
C81 O84 1.252 . S
C81 O85 1.260 . S
C82 O89 1.240 . S
C82 O90 1.252 . S
C83 O86 1.252 . S
C83 O87 1.260 . S
O84 In78 2.266 . S
O84 C81 1.252 . S
O85 In78 2.326 . S
O85 C81 1.260 . S
O86 In78 2.266 . S
O86 C83 1.252 . S
O87 In78 2.326 . S
O87 C83 1.260 . S
C88 O79 1.240 . S
C88 O80 1.252 . S
O89 In78 2.294 . S
O89 C82 1.240 . S
O90 In78 2.326 . S
O90 C82 1.252 . S
In91 O92 2.294 . S
In91 O93 2.326 . S
In91 O97 2.266 . S
In91 O98 2.326 . S
In91 O99 2.266 . S
In91 O100 2.326 . S
In91 O102 2.294 . S
In91 O103 2.326 . S
O92 In91 2.294 . S
O92 C101 1.240 . S
O93 In91 2.326 . S
O93 C101 1.252 . S
C94 O97 1.252 . S
C94 O98 1.260 . S
C95 O102 1.240 . S
C95 O103 1.252 . S
C96 O99 1.252 . S
C96 O100 1.260 . S
O97 In91 2.266 . S
O97 C94 1.252 . S
O98 In91 2.326 . S
O98 C94 1.260 . S
O99 In91 2.266 . S
O99 C96 1.252 . S
O100 In91 2.326 . S
O100 C96 1.260 . S
C101 O92 1.240 . S
C101 O93 1.252 . S
O102 In91 2.294 . S
O102 C95 1.240 . S
O103 In91 2.326 . S
O103 C95 1.252 . S
H104 C110 0.930 . S
H105 C114 0.930 . S
H106 C119 0.929 . S
H107 C117 0.929 . S
H108 C112 0.929 . S
H109 C118 0.929 . S
C110 H104 0.930 . S
C110 C111 1.367 . S
C110 C118 1.378 . S
C111 C110 1.367 . S
C111 C119 1.433 . S
C112 H108 0.929 . S
C112 C114 1.378 . S
C112 C116 1.350 . S
C113 C116 1.463 . S
C113 C118 1.350 . S
C113 N121 1.427 . S
C114 H105 0.930 . S
C114 C112 1.378 . S
C114 C115 1.367 . S
C115 C114 1.367 . S
C115 C117 1.433 . S
C116 C112 1.350 . S
C116 C113 1.463 . S
C116 N120 1.427 . S
C117 H107 0.929 . S
C117 C115 1.433 . S
C117 N120 1.384 . S
C118 H109 0.929 . S
C118 C110 1.378 . S
C118 C113 1.350 . S
C119 H106 0.929 . S
C119 C111 1.433 . S
C119 N121 1.384 . S
N120 C116 1.427 . S
N120 C117 1.384 . S
N121 C113 1.427 . S
N121 C119 1.384 . S
H122 C128 0.930 . S
H123 C132 0.930 . S
H124 C137 0.929 . S
H125 C135 0.929 . S
H126 C130 0.929 . S
H127 C136 0.929 . S
C128 H122 0.930 . S
C128 C129 1.367 . S
C128 C136 1.378 . S
C129 C128 1.367 . S
C129 C137 1.433 1_545 S
C130 H126 0.929 . S
C130 C132 1.378 . S
C130 C134 1.350 . S
C131 C134 1.463 1_545 S
C131 C136 1.350 . S
C131 N139 1.427 1_545 S
C132 H123 0.930 . S
C132 C130 1.378 . S
C132 C133 1.367 . S
C133 C132 1.367 . S
C133 C135 1.433 1_565 S
C134 C130 1.350 . S
C134 C131 1.463 1_565 S
C134 N138 1.427 1_565 S
C135 H125 0.929 . S
C135 C133 1.433 1_545 S
C135 N138 1.384 . S
C136 H127 0.929 . S
C136 C128 1.378 . S
C136 C131 1.350 . S
C137 H124 0.929 . S
C137 C129 1.433 1_565 S
C137 N139 1.384 . S
N138 C134 1.427 1_545 S
N138 C135 1.384 . S
N139 C131 1.427 1_565 S
N139 C137 1.384 . S
H140 C146 0.930 . S
H141 C150 0.930 . S
H142 C155 0.929 . S
H143 C153 0.929 1_455 S
H144 C148 0.929 . S
H145 C154 0.929 . S
C146 H140 0.930 . S
C146 C147 1.367 . S
C146 C154 1.378 . S
C147 C146 1.367 . S
C147 C155 1.433 . S
C148 H144 0.929 . S
C148 C150 1.378 . S
C148 C152 1.350 . S
C149 C152 1.463 . S
C149 C154 1.350 . S
C149 N157 1.427 . S
C150 H141 0.930 . S
C150 C148 1.378 . S
C150 C151 1.367 . S
C151 C150 1.367 . S
C151 C153 1.433 . S
C152 C148 1.350 . S
C152 C149 1.463 . S
C152 N156 1.427 . S
C153 H143 0.929 1_655 S
C153 C151 1.433 . S
C153 N156 1.384 . S
C154 H145 0.929 . S
C154 C146 1.378 . S
C154 C149 1.350 . S
C155 H142 0.929 . S
C155 C147 1.433 . S
C155 N157 1.384 . S
N156 C152 1.427 . S
N156 C153 1.384 . S
N157 C149 1.427 . S
N157 C155 1.384 . S
H158 C164 0.930 . S
H159 C168 0.930 . S
H160 C173 0.929 . S
H161 C171 0.929 . S
H162 C166 0.929 . S
H163 C172 0.929 . S
C164 H158 0.930 . S
C164 C165 1.367 1_565 S
C164 C172 1.378 . S
C165 C164 1.367 1_545 S
C165 C173 1.433 . S
C166 H162 0.929 . S
C166 C168 1.378 . S
C166 C170 1.350 1_545 S
C167 C170 1.463 1_545 S
C167 C172 1.350 1_545 S
C167 N175 1.427 . S
C168 H159 0.930 . S
C168 C166 1.378 . S
C168 C169 1.367 1_545 S
C169 C168 1.367 1_565 S
C169 C171 1.433 . S
C170 C166 1.350 1_565 S
C170 C167 1.463 1_565 S
C170 N174 1.427 . S
C171 H161 0.929 . S
C171 C169 1.433 . S
C171 N174 1.384 . S
C172 H163 0.929 . S
C172 C164 1.378 . S
C172 C167 1.350 1_565 S
C173 H160 0.929 . S
C173 C165 1.433 . S
C173 N175 1.384 . S
N174 C170 1.427 . S
N174 C171 1.384 . S
N175 C167 1.427 . S
N175 C173 1.384 . S
H176 C182 0.930 . S
H177 C186 0.930 . S
H178 C191 0.929 . S
H179 C189 0.929 . S
H180 C184 0.929 . S
H181 C190 0.929 . S
C182 H176 0.930 . S
C182 C183 1.367 . S
C182 C190 1.378 . S
C183 C182 1.367 . S
C183 C191 1.433 . S
C184 H180 0.929 . S
C184 C186 1.378 . S
C184 C188 1.350 . S
C185 C188 1.463 . S
C185 C190 1.350 . S
C185 N193 1.427 . S
C186 H177 0.930 . S
C186 C184 1.378 . S
C186 C187 1.367 . S
C187 C186 1.367 . S
C187 C189 1.433 . S
C188 C184 1.350 . S
C188 C185 1.463 . S
C188 N192 1.427 . S
C189 H179 0.929 . S
C189 C187 1.433 . S
C189 N192 1.384 . S
C190 H181 0.929 . S
C190 C182 1.378 . S
C190 C185 1.350 . S
C191 H178 0.929 . S
C191 C183 1.433 . S
C191 N193 1.384 . S
N192 C188 1.427 . S
N192 C189 1.384 . S
N193 C185 1.427 . S
N193 C191 1.384 . S
H194 C200 0.930 . S
H195 C204 0.930 . S
H196 C209 0.929 . S
H197 C207 0.929 . S
H198 C202 0.929 . S
H199 C208 0.929 . S
C200 H194 0.930 . S
C200 C201 1.367 1_565 S
C200 C208 1.378 . S
C201 C200 1.367 1_545 S
C201 C209 1.433 . S
C202 H198 0.929 . S
C202 C204 1.378 . S
C202 C206 1.350 1_545 S
C203 C206 1.463 1_545 S
C203 C208 1.350 1_545 S
C203 N211 1.427 . S
C204 H195 0.930 . S
C204 C202 1.378 . S
C204 C205 1.367 1_545 S
C205 C204 1.367 1_565 S
C205 C207 1.433 . S
C206 C202 1.350 1_565 S
C206 C203 1.463 1_565 S
C206 N210 1.427 . S
C207 H197 0.929 . S
C207 C205 1.433 . S
C207 N210 1.384 . S
C208 H199 0.929 . S
C208 C200 1.378 . S
C208 C203 1.350 1_565 S
C209 H196 0.929 . S
C209 C201 1.433 . S
C209 N211 1.384 . S
N210 C206 1.427 . S
N210 C207 1.384 . S
N211 C203 1.427 . S
N211 C209 1.384 . S
H212 C218 0.930 . S
H213 C222 0.930 . S
H214 C227 0.929 . S
H215 C225 0.929 1_655 S
H216 C220 0.929 . S
H217 C226 0.929 . S
C218 H212 0.930 . S
C218 C219 1.367 . S
C218 C226 1.378 . S
C219 C218 1.367 . S
C219 C227 1.433 . S
C220 H216 0.929 . S
C220 C222 1.378 . S
C220 C224 1.350 . S
C221 C224 1.463 . S
C221 C226 1.350 . S
C221 N229 1.427 . S
C222 H213 0.930 . S
C222 C220 1.378 . S
C222 C223 1.367 . S
C223 C222 1.367 . S
C223 C225 1.433 . S
C224 C220 1.350 . S
C224 C221 1.463 . S
C224 N228 1.427 . S
C225 H215 0.929 1_455 S
C225 C223 1.433 . S
C225 N228 1.384 . S
C226 H217 0.929 . S
C226 C218 1.378 . S
C226 C221 1.350 . S
C227 H214 0.929 . S
C227 C219 1.433 . S
C227 N229 1.384 . S
N228 C224 1.427 . S
N228 C225 1.384 . S
N229 C221 1.427 . S
N229 C227 1.384 . S
H230 C236 0.930 . S
H231 C240 0.930 . S
H232 C245 0.929 . S
H233 C243 0.929 . S
H234 C238 0.929 . S
H235 C244 0.929 . S
C236 H230 0.930 . S
C236 C237 1.367 1_545 S
C236 C244 1.378 . S
C237 C236 1.367 1_565 S
C237 C245 1.433 . S
C238 H234 0.929 . S
C238 C240 1.378 . S
C238 C242 1.350 1_565 S
C239 C242 1.463 1_565 S
C239 C244 1.350 1_565 S
C239 N247 1.427 . S
C240 H231 0.930 . S
C240 C238 1.378 . S
C240 C241 1.367 1_565 S
C241 C240 1.367 1_545 S
C241 C243 1.433 . S
C242 C238 1.350 1_545 S
C242 C239 1.463 1_545 S
C242 N246 1.427 . S
C243 H233 0.929 . S
C243 C241 1.433 . S
C243 N246 1.384 . S
C244 H235 0.929 . S
C244 C236 1.378 . S
C244 C239 1.350 1_545 S
C245 H232 0.929 . S
C245 C237 1.433 . S
C245 N247 1.384 . S
N246 C242 1.427 . S
N246 C243 1.384 . S
N247 C239 1.427 . S
N247 C245 1.384 . S
H248 C254 0.930 . S
H249 C258 0.930 . S
H250 C263 0.929 . S
H251 C261 0.929 . S
H252 C256 0.929 . S
H253 C262 0.929 . S
C254 H248 0.930 . S
C254 C255 1.367 . S
C254 C262 1.378 . S
C255 C254 1.367 . S
C255 C263 1.433 . S
C256 H252 0.929 . S
C256 C258 1.378 . S
C256 C260 1.350 . S
C257 C260 1.463 1_455 S
C257 C262 1.350 . S
C257 N265 1.427 . S
C258 H249 0.930 . S
C258 C256 1.378 . S
C258 C259 1.367 . S
C259 C258 1.367 . S
C259 C261 1.433 . S
C260 C256 1.350 . S
C260 C257 1.463 1_655 S
C260 N264 1.427 . S
C261 H251 0.929 . S
C261 C259 1.433 . S
C261 N264 1.384 . S
C262 H253 0.929 . S
C262 C254 1.378 . S
C262 C257 1.350 . S
C263 H250 0.929 . S
C263 C255 1.433 . S
C263 N265 1.384 . S
N264 C260 1.427 . S
N264 C261 1.384 . S
N265 C257 1.427 . S
N265 C263 1.384 . S
H266 C272 0.930 . S
H267 C276 0.930 . S
H268 C281 0.929 . S
H269 C279 0.929 . S
H270 C274 0.929 . S
H271 C280 0.929 . S
C272 H266 0.930 . S
C272 C273 1.367 1_545 S
C272 C280 1.378 . S
C273 C272 1.367 1_565 S
C273 C281 1.433 . S
C274 H270 0.929 . S
C274 C276 1.378 . S
C274 C278 1.350 1_565 S
C275 C278 1.463 1_565 S
C275 C280 1.350 1_565 S
C275 N283 1.427 . S
C276 H267 0.930 . S
C276 C274 1.378 . S
C276 C277 1.367 1_565 S
C277 C276 1.367 1_545 S
C277 C279 1.433 . S
C278 C274 1.350 1_545 S
C278 C275 1.463 1_545 S
C278 N282 1.427 . S
C279 H269 0.929 . S
C279 C277 1.433 . S
C279 N282 1.384 . S
C280 H271 0.929 . S
C280 C272 1.378 . S
C280 C275 1.350 1_545 S
C281 H268 0.929 . S
C281 C273 1.433 . S
C281 N283 1.384 . S
N282 C278 1.427 . S
N282 C279 1.384 . S
N283 C275 1.427 . S
N283 C281 1.384 . S
H284 C290 0.930 . S
H285 C294 0.930 . S
H286 C299 0.929 . S
H287 C297 0.929 . S
H288 C292 0.929 . S
H289 C298 0.929 . S
C290 H284 0.930 . S
C290 C291 1.367 . S
C290 C298 1.378 . S
C291 C290 1.367 . S
C291 C299 1.433 . S
C292 H288 0.929 . S
C292 C294 1.378 . S
C292 C296 1.350 . S
C293 C296 1.463 1_554 S
C293 C298 1.350 . S
C293 N301 1.427 . S
C294 H285 0.930 . S
C294 C292 1.378 . S
C294 C295 1.367 . S
C295 C294 1.367 . S
C295 C297 1.433 . S
C296 C292 1.350 . S
C296 C293 1.463 1_556 S
C296 N300 1.427 . S
C297 H287 0.929 . S
C297 C295 1.433 . S
C297 N300 1.384 . S
C298 H289 0.929 . S
C298 C290 1.378 . S
C298 C293 1.350 . S
C299 H286 0.929 . S
C299 C291 1.433 . S
C299 N301 1.384 . S
N300 C296 1.427 . S
N300 C297 1.384 . S
N301 C293 1.427 . S
N301 C299 1.384 . S
H302 C308 0.930 1_655 S
H303 C312 0.930 1_455 S
H304 C317 0.929 . S
H305 C315 0.929 . S
H306 C310 0.929 . S
H307 C316 0.929 . S
C308 H302 0.930 1_455 S
C308 C309 1.367 . S
C308 C316 1.378 1_465 S
C309 C308 1.367 . S
C309 C317 1.433 . S
C310 H306 0.929 . S
C310 C312 1.378 1_465 S
C310 C314 1.350 1_465 S
C311 C314 1.463 1_466 S
C311 C316 1.350 1_465 S
C311 N319 1.427 . S
C312 H303 0.930 1_655 S
C312 C310 1.378 1_645 S
C312 C313 1.367 . S
C313 C312 1.367 . S
C313 C315 1.433 . S
C314 C310 1.350 1_645 S
C314 C311 1.463 1_644 S
C314 N318 1.427 . S
C315 H305 0.929 . S
C315 C313 1.433 . S
C315 N318 1.384 . S
C316 H307 0.929 . S
C316 C308 1.378 1_645 S
C316 C311 1.350 1_645 S
C317 H304 0.929 . S
C317 C309 1.433 . S
C317 N319 1.384 . S
N318 C314 1.427 . S
N318 C315 1.384 . S
N319 C311 1.427 . S
N319 C317 1.384 . S
H320 C326 0.930 . S
H321 C330 0.930 . S
H322 C335 0.929 . S
H323 C333 0.929 . S
H324 C328 0.929 . S
H325 C334 0.929 . S
C326 H320 0.930 . S
C326 C327 1.367 . S
C326 C334 1.378 . S
C327 C326 1.367 . S
C327 C335 1.433 . S
C328 H324 0.929 . S
C328 C330 1.378 . S
C328 C332 1.350 . S
C329 C332 1.463 . S
C329 C334 1.350 . S
C329 N337 1.427 . S
C330 H321 0.930 . S
C330 C328 1.378 . S
C330 C331 1.367 . S
C331 C330 1.367 . S
C331 C333 1.433 . S
C332 C328 1.350 . S
C332 C329 1.463 . S
C332 N336 1.427 . S
C333 H323 0.929 . S
C333 C331 1.433 . S
C333 N336 1.384 . S
C334 H325 0.929 . S
C334 C326 1.378 . S
C334 C329 1.350 . S
C335 H322 0.929 . S
C335 C327 1.433 . S
C335 N337 1.384 . S
N336 C332 1.427 . S
N336 C333 1.384 . S
N337 C329 1.427 . S
N337 C335 1.384 . S
H338 C344 0.930 . S
H339 C348 0.930 . S
H340 C353 0.929 . S
H341 C351 0.929 . S
H342 C346 0.929 . S
H343 C352 0.929 . S
C344 H338 0.930 . S
C344 C345 1.367 . S
C344 C352 1.378 . S
C345 C344 1.367 . S
C345 C353 1.433 . S
C346 H342 0.929 . S
C346 C348 1.378 . S
C346 C350 1.350 . S
C347 C350 1.463 . S
C347 C352 1.350 . S
C347 N355 1.427 . S
C348 H339 0.930 . S
C348 C346 1.378 . S
C348 C349 1.367 . S
C349 C348 1.367 . S
C349 C351 1.433 . S
C350 C346 1.350 . S
C350 C347 1.463 . S
C350 N354 1.427 . S
C351 H341 0.929 . S
C351 C349 1.433 . S
C351 N354 1.384 . S
C352 H343 0.929 . S
C352 C344 1.378 . S
C352 C347 1.350 . S
C353 H340 0.929 . S
C353 C345 1.433 . S
C353 N355 1.384 . S
N354 C350 1.427 . S
N354 C351 1.384 . S
N355 C347 1.427 . S
N355 C353 1.384 . S
H356 C362 0.930 . S
H357 C366 0.930 . S
H358 C371 0.929 . S
H359 C369 0.929 . S
H360 C364 0.929 . S
H361 C370 0.929 . S
C362 H356 0.930 . S
C362 C363 1.367 . S
C362 C370 1.378 . S
C363 C362 1.367 . S
C363 C371 1.433 . S
C364 H360 0.929 . S
C364 C366 1.378 . S
C364 C368 1.350 . S
C365 C368 1.463 . S
C365 C370 1.350 . S
C365 N373 1.427 . S
C366 H357 0.930 . S
C366 C364 1.378 . S
C366 C367 1.367 . S
C367 C366 1.367 . S
C367 C369 1.433 . S
C368 C364 1.350 . S
C368 C365 1.463 . S
C368 N372 1.427 . S
C369 H359 0.929 . S
C369 C367 1.433 . S
C369 N372 1.384 . S
C370 H361 0.929 . S
C370 C362 1.378 . S
C370 C365 1.350 . S
C371 H358 0.929 . S
C371 C363 1.433 . S
C371 N373 1.384 . S
N372 C368 1.427 . S
N372 C369 1.384 . S
N373 C365 1.427 . S
N373 C371 1.384 . S
H374 C380 0.930 . S
H375 C384 0.930 . S
H376 C389 0.929 . S
H377 C387 0.929 . S
H378 C382 0.929 . S
H379 C388 0.929 . S
C380 H374 0.930 . S
C380 C381 1.367 . S
C380 C388 1.378 . S
C381 C380 1.367 . S
C381 C389 1.433 . S
C382 H378 0.929 . S
C382 C384 1.378 . S
C382 C386 1.350 . S
C383 C386 1.463 . S
C383 C388 1.350 . S
C383 N391 1.427 . S
C384 H375 0.930 . S
C384 C382 1.378 . S
C384 C385 1.367 . S
C385 C384 1.367 . S
C385 C387 1.433 . S
C386 C382 1.350 . S
C386 C383 1.463 . S
C386 N390 1.427 . S
C387 H377 0.929 . S
C387 C385 1.433 . S
C387 N390 1.384 . S
C388 H379 0.929 . S
C388 C380 1.378 . S
C388 C383 1.350 . S
C389 H376 0.929 . S
C389 C381 1.433 . S
C389 N391 1.384 . S
N390 C386 1.427 . S
N390 C387 1.384 . S
N391 C383 1.427 . S
N391 C389 1.384 . S
C111 C10 1.556 . S
C115 C29 1.557 . S
C129 C44 1.556 1_455 S
C133 C23 1.555 . S
C147 C30 1.555 . S
C151 C5 1.557 1_655 S
C165 C49 1.557 . S
C169 C18 1.558 . S
C183 C83 1.556 . S
C187 C56 1.555 . S
C201 C75 1.557 . S
C205 C96 1.558 1_655 S
C219 C88 1.555 . S
C223 C55 1.556 1_455 S
C237 C101 1.557 . S
C241 C70 1.558 . S
C255 C3 1.516 . S
C259 C57 1.516 . S
C273 C16 1.516 . S
C277 C68 1.516 . S
C291 C31 1.516 . S
C295 C81 1.516 . S
C309 C94 1.516 . S
C313 C42 1.516 . S
C327 C4 1.519 . S
C331 C17 1.523 . S
C345 C43 1.522 . S
C349 C36 1.520 . S
C363 C69 1.519 . S
C367 C62 1.523 . S
C381 C82 1.520 . S
C385 C95 1.522 . S
