# Generated by pormake.
# Topology reo, (8)-cn, num edge types: 1
# Building blocks:
#     Node 0, Type 0, BuildingBlock: TAGTUT_clean_sbu_1, # of connection points: 8
#     Node 1, Type 0, BuildingBlock: TAGTUT_clean_sbu_1, # of connection points: 8
#     Node 2, Type 0, BuildingBlock: TAGTUT_clean_sbu_1, # of connection points: 8
#     Edge 3, Type (0, 0), BuildingBlock: XUDNAN_clean_linker_2, # of connection points: 2
#     Edge 4, Type (0, 0), BuildingBlock: XUDNAN_clean_linker_2, # of connection points: 2
#     Edge 5, Type (0, 0), BuildingBlock: XUDNAN_clean_linker_2, # of connection points: 2
#     Edge 6, Type (0, 0), BuildingBlock: XUDNAN_clean_linker_2, # of connection points: 2
#     Edge 7, Type (0, 0), BuildingBlock: XUDNAN_clean_linker_2, # of connection points: 2
#     Edge 8, Type (0, 0), BuildingBlock: XUDNAN_clean_linker_2, # of connection points: 2
#     Edge 9, Type (0, 0), BuildingBlock: XUDNAN_clean_linker_2, # of connection points: 2
#     Edge 10, Type (0, 0), BuildingBlock: XUDNAN_clean_linker_2, # of connection points: 2
#     Edge 11, Type (0, 0), BuildingBlock: XUDNAN_clean_linker_2, # of connection points: 2
#     Edge 12, Type (0, 0), BuildingBlock: XUDNAN_clean_linker_2, # of connection points: 2
#     Edge 13, Type (0, 0), BuildingBlock: XUDNAN_clean_linker_2, # of connection points: 2
#     Edge 14, Type (0, 0), BuildingBlock: XUDNAN_clean_linker_2, # of connection points: 2
# Relax obj value: 0.196
# Max RMSD: 0.232
# Mean RMSD: 0.180
data_MOF--net-reo--node1-TAGTUT_clean_sbu_1--edge1-XUDNAN_clean_linker_2
_symmetry_space_group_name_H-M    P1
_symmetry_Int_Tables_number       1
_symmetry_cell_setting            triclinic
loop_
_symmetry_equiv_pos_as_xyz
'x, y, z'
_cell_length_a     20.765243
_cell_length_b     23.398277
_cell_length_c     26.441495
_cell_angle_alpha  90.301599
_cell_angle_beta   89.72843
_cell_angle_gamma 92.942448
loop_
_atom_site_label
_atom_site_type_symbol
_atom_site_fract_x
_atom_site_fract_y
_atom_site_fract_z
_atom_type_partial_charge
C0 C 0.06575 0.80072 0.53064 0.0
C1 C 0.93253 0.84908 0.41544 0.0
C2 C 0.08217 0.02962 0.38004 0.0
Mg3 Mg 0.95316 0.88239 0.52433 0.0
O4 O 0.02315 0.93211 0.50728 0.0
Mg5 Mg 0.0782 0.91047 0.44885 0.0
Mg6 Mg 1.00149 0.00979 0.48587 0.0
O7 O 0.9788 0.08722 0.46467 0.0
Mg8 Mg 0.04633 0.13794 0.44502 0.0
Mg9 Mg 0.92553 0.10831 0.52474 0.0
C10 C 0.92158 0.98956 0.59167 0.0
C11 C 0.84796 0.00906 0.4592 0.0
O12 O 0.09832 0.82887 0.49655 0.0
O13 O 0.00977 0.81405 0.54549 0.0
O14 O 0.99243 0.86305 0.4091 0.0
O15 O 0.90336 0.85745 0.4571 0.0
O16 O 0.91451 0.93552 0.58321 0.0
O17 O 0.95308 0.02352 0.56153 0.0
C18 C 0.15441 0.00963 0.51504 0.0
O19 O 0.10234 0.03697 0.51712 0.0
O20 O 0.15711 0.96181 0.49146 0.0
O21 O 0.90275 0.19024 0.47815 0.0
O22 O 0.98762 0.2049 0.4253 0.0
O23 O 0.01314 0.15461 0.56348 0.0
C24 C 0.93286 0.21829 0.44272 0.0
O25 O 0.09765 0.16376 0.51093 0.0
O26 O 0.08649 0.08404 0.38723 0.0
C27 C 0.07238 0.16915 0.55452 0.0
O28 O 0.0516 0.99587 0.41103 0.0
O29 O 0.90061 0.98294 0.45434 0.0
O30 O 0.84548 0.05592 0.48439 0.0
C31 C 0.55403 0.96469 0.18198 0.0
C32 C 0.37333 0.98094 0.11035 0.0
C33 C 0.46109 0.87208 0.95576 0.0
Mg34 Mg 0.50225 0.0476 0.10198 0.0
O35 O 0.53725 0.99258 0.05924 0.0
Mg36 Mg 0.50178 0.91135 0.06957 0.0
Mg37 Mg 0.51106 0.00185 -0.01255 0.0
O38 O 0.48429 0.01165 0.91589 0.0
Mg39 Mg 0.5151 0.95759 0.87052 0.0
Mg40 Mg 0.51761 0.0935 0.90528 0.0
C41 C 0.56079 0.13199 0.0179 0.0
C42 C 0.39785 0.09678 0.98467 0.0
O43 O 0.54546 0.92176 0.15147 0.0
O44 O 0.54094 0.01591 0.17041 0.0
O45 O 0.40463 0.9366 0.10114 0.0
O46 O 0.40011 0.03108 0.10766 0.0
O47 O 0.54024 0.12485 0.06351 0.0
O48 O 0.56086 0.09059 0.9858 0.0
C49 C 0.62412 0.90682 -0.00738 0.0
O50 O 0.60373 0.95037 0.96875 0.0
O51 O 0.59539 0.88665 0.03222 0.0
O52 O 0.46897 0.0846 0.82558 0.0
O53 O 0.4682 0.99074 0.8056 0.0
O54 O 0.61318 0.06959 0.86989 0.0
C55 C 0.45489 0.04237 0.79539 0.0
O56 O 0.61707 0.97482 0.86274 0.0
O57 O 0.47967 0.88001 0.90974 0.0
C58 C 0.64362 0.02503 0.85982 0.0
O59 O 0.46161 0.91319 -0.01179 0.0
O60 O 0.41845 0.05257 0.00716 0.0
O61 O 0.42578 0.11765 0.94508 0.0
C62 C 0.12468 0.40148 0.83046 0.0
C63 C 0.06511 0.57338 0.82895 0.0
C64 C 0.13914 0.57509 0.02842 0.0
Mg65 Mg 0.99948 0.45791 0.8635 0.0
O66 O 0.04602 0.46697 0.9226 0.0
Mg67 Mg 0.13636 0.5015 0.92158 0.0
Mg68 Mg 0.0115 0.50123 0.98468 0.0
O69 O 0.97724 0.53532 0.04684 0.0
Mg70 Mg 0.02483 0.54136 0.10568 0.0
Mg71 Mg 0.88708 0.50031 0.04783 0.0
C72 C 0.88444 0.42623 0.9408 0.0
C73 C 0.90009 0.5932 0.95732 0.0
O74 O 0.15903 0.43783 0.85669 0.0
O75 O 0.06294 0.39983 0.83 0.0
O76 O 0.10993 0.56714 0.86129 0.0
O77 O 0.01586 0.53836 0.82577 0.0
O78 O 0.90654 0.42629 0.89527 0.0
O79 O 0.91779 0.44682 0.97812 0.0
C80 C 0.12293 0.40984 0.01327 0.0
O81 O 0.06574 0.42568 0.02396 0.0
O82 O 0.15702 0.43438 0.97855 0.0
O83 O 0.86559 0.56272 0.11392 0.0
O84 O 0.96238 0.59849 0.14139 0.0
O85 O 0.91308 0.43401 0.1071 0.0
C86 C 0.90067 0.59749 0.14118 0.0
O87 O 1.008 0.46033 0.14237 0.0
O88 O 0.11758 0.57365 0.0741 0.0
C89 C 0.95773 0.42653 0.13924 0.0
O90 O 0.10534 0.55555 -0.00906 0.0
O91 O 0.95709 0.57718 0.94607 0.0
O92 O 0.86603 0.56827 -0.00817 0.0
H93 H 0.01695 0.42621 0.23096 0.0
H94 H 0.86153 0.34137 0.14524 0.0
H95 H 0.822 0.2927 0.22308 0.0
H96 H 0.04922 0.31039 0.31109 0.0
H97 H 0.06666 0.3566 0.3646 0.0
H98 H 0.07956 0.38314 0.3016 0.0
H99 H 1.00578 0.46645 0.32325 0.0
H100 H 0.99008 0.4379 0.38554 0.0
H101 H 0.92397 0.45038 0.34376 0.0
H102 H 0.80272 0.2506 0.31005 0.0
H103 H 0.81944 0.20482 0.39263 0.0
H104 H 0.98164 0.32357 0.42157 0.0
C105 C 0.97522 0.39668 0.22809 0.0
C106 C 0.94259 0.38743 0.18184 0.0
C107 C 0.88763 0.34889 0.18021 0.0
C108 C 0.8642 0.32179 0.22437 0.0
C109 C 0.89569 0.33442 0.26983 0.0
C110 C 0.9506 0.37029 0.27168 0.0
C111 C 0.97774 0.3749 0.32445 0.0
C112 C 0.04735 0.35502 0.32549 0.0
C113 C 0.97415 0.43605 0.34547 0.0
C114 C 0.93121 0.33394 0.35185 0.0
C115 C 0.88316 0.31196 0.3201 0.0
C116 C 0.83925 0.26829 0.33556 0.0
C117 C 0.84823 0.24319 0.38297 0.0
C118 C 0.90121 0.26153 0.4134 0.0
C119 C 0.93966 0.31025 0.39944 0.0
H120 H 0.84143 0.94339 0.37269 0.0
H121 H 0.72332 0.03162 0.4807 0.0
H122 H 0.62875 0.01438 0.42579 0.0
H123 H 0.78327 1.00102 0.26753 0.0
H124 H 0.78238 0.93849 0.22735 0.0
H125 H 0.83745 0.94479 0.27946 0.0
H126 H 0.79077 0.84985 0.3172 0.0
H127 H 0.73931 0.8412 0.26283 0.0
H128 H 0.70552 0.83747 0.3259 0.0
H129 H 0.55308 0.00383 0.35377 0.0
H130 H 0.50142 0.99917 0.26978 0.0
H131 H 0.66638 0.91658 0.20769 0.0
C132 C 0.79508 0.95698 0.38569 0.0
C133 C 0.78964 0.9885 0.43116 0.0
C134 C 0.72858 0.00722 0.44613 0.0
C135 C 0.67447 0.99742 0.41527 0.0
C136 C 0.68196 0.96847 0.36964 0.0
C137 C 0.74048 0.94785 0.35506 0.0
C138 C 0.737 0.92396 0.3016 0.0
C139 C 0.78801 0.95391 0.26697 0.0
C140 C 0.74331 0.85911 0.30177 0.0
C141 C 0.66928 0.93797 0.28728 0.0
C142 C 0.63773 0.96228 0.32757 0.0
C143 C 0.57662 0.98338 0.32243 0.0
C144 C 0.54768 0.98054 0.2747 0.0
C145 C 0.57958 0.95641 0.23294 0.0
C146 C 0.64035 0.93351 0.23956 0.0
H147 H 0.95846 0.85726 0.31538 0.0
H148 H 0.83245 0.76908 0.42402 0.0
H149 H 0.78977 0.70467 0.35626 0.0
H150 H 0.84414 0.8376 0.20316 0.0
H151 H 0.91154 0.82897 0.16109 0.0
H152 H 0.92014 0.87566 0.21541 0.0
H153 H 0.01778 0.81995 0.24557 0.0
H154 H 0.00953 0.77366 0.19159 0.0
H155 H 1.00798 0.74358 0.25426 0.0
H156 H 0.77813 0.63895 0.28178 0.0
H157 H 0.80335 0.57608 0.20942 0.0
H158 H 0.93442 0.70896 0.14959 0.0
C159 C 0.92048 0.82546 0.32449 0.0
C160 C 0.89841 0.81803 0.37451 0.0
C161 C 0.8492 0.77578 0.38555 0.0
C162 C 0.8247 0.73909 0.34735 0.0
C163 C 0.84891 0.74642 0.29839 0.0
C164 C 0.8952 0.78914 0.28685 0.0
C165 C 0.91898 0.78432 0.23316 0.0
C166 C 0.89739 0.83462 0.20132 0.0
C167 C 0.99287 0.78005 0.23109 0.0
C168 C 0.88358 0.72903 0.21775 0.0
C169 C 0.84129 0.70891 0.25498 0.0
C170 C 0.80955 0.65493 0.2517 0.0
C171 C 0.82391 0.61956 0.21057 0.0
C172 C 0.87037 0.6384 0.17441 0.0
C173 C 0.89797 0.69447 0.17674 0.0
H174 H 0.29206 0.06431 0.13562 0.0
H175 H 0.30983 0.88049 0.13816 0.0
H176 H 0.21868 0.87066 0.1976 0.0
H177 H 0.27985 0.0819 0.25625 0.0
H178 H 0.22176 0.13655 0.25797 0.0
H179 H 0.27126 0.1287 0.20296 0.0
H180 H 0.17052 0.11556 0.14616 0.0
H181 H 0.11989 0.12496 0.20086 0.0
H182 H 0.10816 0.06201 0.16173 0.0
H183 H 0.14769 0.88316 0.27291 0.0
H184 H 0.09714 0.91702 0.35178 0.0
H185 H 0.12895 0.09242 0.30101 0.0
C186 C 0.27483 0.02177 0.14684 0.0
C187 C 0.30825 0.97334 0.1326 0.0
C188 C 0.28478 0.91831 0.14843 0.0
C189 C 0.23287 0.91224 0.18227 0.0
C190 C 0.20443 0.96149 0.19915 0.0
C191 C 0.22356 0.01518 0.18091 0.0
C192 C 0.19323 0.06206 0.2107 0.0
C193 C 0.2446 0.1047 0.2333 0.0
C194 C 0.14506 0.09294 0.17791 0.0
C195 C 0.15901 0.02671 0.25121 0.0
C196 C 0.16412 0.96875 0.24326 0.0
C197 C 0.14193 0.9284 0.27889 0.0
C198 C 0.11399 0.94798 0.32384 0.0
C199 C 0.10989 0.00734 0.33289 0.0
C200 C 0.13163 0.04671 0.2955 0.0
H201 H 0.01145 0.69849 0.55632 0.0
H202 H 0.18168 0.81016 0.5784 0.0
H203 H 0.2046 0.75986 0.65791 0.0
H204 H 0.95727 0.70581 0.67299 0.0
H205 H 0.92553 0.6331 0.67987 0.0
H206 H 0.93202 0.66453 0.61812 0.0
H207 H 1.00252 0.58362 0.58589 0.0
H208 H 0.99348 0.54988 0.6468 0.0
H209 H 0.07286 0.56604 0.62114 0.0
H210 H 0.19474 0.71085 0.74328 0.0
H211 H 0.16391 0.65604 0.82017 0.0
H212 H 0.9958 0.58186 0.74211 0.0
C213 C 0.05578 0.70975 0.5763 0.0
C214 C 0.0955 0.7572 0.56112 0.0
C215 C 0.15185 0.77267 0.58884 0.0
C216 C 0.16457 0.7449 0.63444 0.0
C217 C 0.12081 0.70155 0.65091 0.0
C218 C 0.06855 0.68293 0.62181 0.0
C219 C 0.02433 0.64075 0.65007 0.0
C220 C 0.95579 0.6624 0.65556 0.0
C221 C 0.02328 0.58156 0.62447 0.0
C222 C 0.05813 0.64035 0.7004 0.0
C223 C 0.114 0.67505 0.70023 0.0
C224 C 0.15171 0.68272 0.74346 0.0
C225 C 0.13331 0.65201 0.78716 0.0
C226 C 0.07729 0.61463 0.78735 0.0
C227 C 0.03869 0.61016 0.74358 0.0
H228 H 0.41246 0.96205 0.72625 0.0
H229 H 0.41478 0.1445 0.75788 0.0
H230 H 0.34781 0.15791 0.68209 0.0
H231 H 0.41434 0.97118 0.58739 0.0
H232 H 0.36034 0.9088 0.58084 0.0
H233 H 0.41476 0.91494 0.63372 0.0
H234 H 0.31818 0.9004 0.69572 0.0
H235 H 0.26373 0.89404 0.64313 0.0
H236 H 0.25178 0.94685 0.69169 0.0
H237 H 0.27374 0.14966 0.60618 0.0
H238 H 0.19503 0.11968 0.54015 0.0
H239 H 0.23904 0.94282 0.56194 0.0
C240 C 0.40013 0.00514 0.71695 0.0
C241 C 0.41931 0.0523 0.74802 0.0
C242 C 0.40106 0.10773 0.73457 0.0
C243 C 0.36321 0.11578 0.69149 0.0
C244 C 0.34445 0.06805 0.66221 0.0
C245 C 0.3624 0.01383 0.67447 0.0
C246 C 0.33184 0.96882 0.63961 0.0
C247 C 0.38341 0.93921 0.60854 0.0
C248 C 0.28883 0.92499 0.66931 0.0
C249 C 0.29229 0.00592 0.60655 0.0
C250 C 0.30086 0.06312 0.61957 0.0
C251 C 0.26674 0.10499 0.59577 0.0
C252 C 0.22143 0.08763 0.55883 0.0
C253 C 0.2098 0.02911 0.54674 0.0
C254 C 0.24728 0.98806 0.56991 0.0
H255 H 0.0909 0.28998 0.82359 0.0
H256 H 0.22437 0.4208 0.76389 0.0
H257 H 0.24979 0.35705 0.69245 0.0
H258 H 0.17821 0.15755 0.76525 0.0
H259 H 0.10006 0.12264 0.75436 0.0
H260 H 0.11359 0.16674 0.80985 0.0
H261 H 0.01653 0.22572 0.78483 0.0
H262 H 1.00367 0.18307 0.72922 0.0
H263 H 0.01636 0.25961 0.72369 0.0
H264 H 0.23283 0.29598 0.617 0.0
H265 H 0.17868 0.24275 0.54704 0.0
H266 H 0.05435 0.15158 0.65478 0.0
C267 C 0.12813 0.30357 0.79677 0.0
C268 C 0.15592 0.3596 0.79867 0.0
C269 C 0.20351 0.37741 0.76308 0.0
C270 C 0.21817 0.34137 0.72252 0.0
C271 C 0.18573 0.28765 0.71916 0.0
C272 C 0.14285 0.26812 0.75633 0.0
C273 C 0.10446 0.21469 0.73966 0.0
C274 C 0.12537 0.1623 0.76902 0.0
C275 C 0.03102 0.2213 0.74458 0.0
C276 C 0.12586 0.21177 0.68517 0.0
C277 C 0.17504 0.25224 0.6746 0.0
C278 C 0.19595 0.26292 0.62517 0.0
C279 C 0.16458 0.23288 0.58563 0.0
C280 C 0.11209 0.19367 0.59588 0.0
C281 C 0.09444 0.18146 0.64622 0.0
H282 H 0.6843 0.10202 0.78949 0.0
H283 H 0.74574 0.96082 0.87891 0.0
H284 H 0.84735 0.9607 0.83081 0.0
H285 H 0.71584 0.04557 0.6822 0.0
H286 H 0.74445 0.10792 0.64731 0.0
H287 H 0.69207 0.11584 0.70058 0.0
H288 H 0.77589 0.1865 0.74283 0.0
H289 H 0.82849 0.17948 0.68885 0.0
H290 H 0.85749 0.16577 0.75153 0.0
H291 H 0.92276 0.95632 0.76265 0.0
H292 H 0.96131 0.9407 0.67616 0.0
H293 H 0.84929 0.07894 0.62231 0.0
C294 C 0.72107 0.07334 0.80039 0.0
C295 C 0.70867 0.03227 0.83851 0.0
C296 C 0.75555 0.99322 0.85058 0.0
C297 C 0.81349 0.9933 0.82358 0.0
C298 C 0.82305 0.03206 0.78396 0.0
C299 C 0.77807 0.07155 0.77221 0.0
C300 C 0.79167 0.09804 0.72071 0.0
C301 C 0.73253 0.09134 0.68569 0.0
C302 C 0.81477 0.1612 0.72633 0.0
C303 C 0.84617 0.06223 0.70287 0.0
C304 C 0.8659 0.02709 0.7413 0.0
C305 C 0.90901 0.98454 0.73273 0.0
C306 C 0.93004 0.97556 0.68341 0.0
C307 C 0.90754 0.00854 0.64316 0.0
C308 C 0.86759 0.05411 0.65302 0.0
H309 H 0.24877 0.39374 0.02953 0.0
H310 H 0.06012 0.30721 0.04132 0.0
H311 H 0.11185 0.21425 0.04986 0.0
H312 H 0.30908 0.30135 0.94795 0.0
H313 H 0.39056 0.30513 0.97143 0.0
H314 H 0.34037 0.36445 0.98084 0.0
H315 H 0.35822 0.36026 0.07766 0.0
H316 H 0.40963 0.30124 0.06849 0.0
H317 H 0.34138 0.29397 0.11077 0.0
H318 H 0.18725 0.12796 0.04164 0.0
H319 H 0.27358 0.06305 0.01637 0.0
H320 H 0.40872 0.20939 0.00417 0.0
C321 C 0.21824 0.35557 0.03625 0.0
C322 C 0.15036 0.35797 0.03546 0.0
C323 C 0.11218 0.30677 0.04306 0.0
C324 C 0.14136 0.25364 0.04747 0.0
C325 C 0.20872 0.25252 0.0446 0.0
C326 C 0.24645 0.30274 0.03984 0.0
C327 C 0.31646 0.29104 0.03023 0.0
C328 C 0.34044 0.317 0.97963 0.0
C329 C 0.35892 0.31292 0.07443 0.0
C330 C 0.31242 0.22643 0.02803 0.0
C331 C 0.25054 0.20431 0.03766 0.0
C332 C 0.23581 0.1452 0.03466 0.0
C333 C 0.28502 0.10853 0.02034 0.0
C334 C 0.34754 0.1314 0.00808 0.0
C335 C 0.36122 0.19081 0.0133 0.0
H336 H 0.19063 0.66874 0.07698 0.0
H337 H 0.23014 0.5476 0.95764 0.0
H338 H 0.33016 0.60386 0.93605 0.0
H339 H 0.23112 0.78754 0.00918 0.0
H340 H 0.26721 0.82975 0.05971 0.0
H341 H 0.20679 0.77442 0.07382 0.0
H342 H 0.28429 0.72669 0.13454 0.0
H343 H 0.34628 0.7815 0.12148 0.0
H344 H 0.36245 0.70726 0.11229 0.0
H345 H 0.41651 0.67936 0.91996 0.0
H346 H 0.47813 0.77091 0.90659 0.0
H347 H 0.38146 0.84424 0.03557 0.0
C348 C 0.22153 0.65305 0.04743 0.0
C349 C 0.20286 0.6038 0.01897 0.0
C350 C 0.24322 0.58549 0.97952 0.0
C351 C 0.30057 0.61681 0.96747 0.0
C352 C 0.31674 0.6662 -0.00465 0.0
C353 C 0.27837 0.68423 0.03458 0.0
C354 C 0.30144 0.74272 0.05398 0.0
C355 C 0.24852 0.78613 0.04884 0.0
C356 C 0.32501 0.73932 0.10883 0.0
C357 C 0.35705 0.75593 0.01804 0.0
C358 C 0.3661 0.71065 0.98536 0.0
C359 C 0.41064 0.71471 0.94584 0.0
C360 C 0.44521 0.767 0.93844 0.0
C361 C 0.43452 0.81467 0.97009 0.0
C362 C 0.39155 0.80827 0.0114 0.0
H363 H 0.64098 0.15776 0.93811 0.0
H364 H 0.54521 0.23416 0.06604 0.0
H365 H 0.60725 0.32517 0.051 0.0
H366 H 0.78984 0.21249 0.96354 0.0
H367 H 0.81589 0.22562 0.89932 0.0
H368 H 0.75433 0.17089 0.91222 0.0
H369 H 0.67673 0.21809 0.85089 0.0
H370 H 0.73837 0.27291 0.837 0.0
H371 H 0.66014 0.2925 0.85894 0.0
H372 H 0.69317 0.40023 0.0331 0.0
H373 H 0.79326 0.45576 0.01053 0.0
H374 H 0.83267 0.33155 0.89367 0.0
C375 C 0.63116 0.19428 0.96169 0.0
C376 C 0.58829 0.18894 0.00318 0.0
C377 C 0.57801 0.23728 0.03408 0.0
C378 C 0.61276 0.28926 0.02566 0.0
C379 C 0.657 0.29234 0.98589 0.0
C380 C 0.66563 0.24639 0.95387 0.0
C381 C 0.72146 0.25848 0.9178 0.0
C382 C 0.77342 0.21427 0.92364 0.0
C383 C 0.69773 0.26066 0.8629 0.0
C384 C 0.74503 0.31715 0.93642 0.0
C385 C 0.70663 0.33629 0.97518 0.0
C386 C 0.72281 0.38638 0.00205 0.0
C387 C 0.78018 0.41731 -0.01056 0.0
C388 C 0.82058 0.39791 0.95045 0.0
C389 C 0.80183 0.348 0.9229 0.0
H390 H 0.77485 0.61073 0.93845 0.0
H391 H 0.96419 0.69707 0.937 0.0
H392 H 0.91337 0.79079 0.93384 0.0
H393 H 0.68796 0.71778 0.86033 0.0
H394 H 0.61694 0.70769 0.8994 0.0
H395 H 0.66853 0.6491 0.88869 0.0
H396 H 0.67972 0.63716 0.98554 0.0
H397 H 0.62946 0.69619 -0.00342 0.0
H398 H 0.70923 0.69726 0.02328 0.0
H399 H 0.83906 0.87596 0.94776 0.0
H400 H 0.7518 0.93977 0.97287 0.0
H401 H 0.61351 0.79524 0.9673 0.0
C402 C 0.80575 0.64925 0.93491 0.0
C403 C 0.87359 0.64641 0.93705 0.0
C404 C 0.91225 0.69794 0.93395 0.0
C405 C 0.88358 0.75148 0.93274 0.0
C406 C 0.81619 0.75273 0.93406 0.0
C407 C 0.77795 0.70252 0.93408 0.0
C408 C 0.70743 0.71413 0.94168 0.0
C409 C 0.66789 0.69612 0.89472 0.0
C410 C 0.67992 0.68445 -0.01039 0.0
C411 C 0.71168 0.77849 0.94794 0.0
C412 C 0.77443 0.80058 0.9427 0.0
C413 C 0.78975 0.85895 0.95076 0.0
C414 C 0.73999 0.89502 0.96488 0.0
C415 C 0.67592 0.87253 0.97105 0.0
C416 C 0.66199 0.81371 0.96194 0.0
loop_
_geom_bond_atom_site_label_1
_geom_bond_atom_site_label_2
_geom_bond_distance
_geom_bond_site_symmetry_2
_ccdc_geom_bond_type
C0 O12 1.241 . S
C0 O13 1.280 1_455 S
C1 O14 1.277 1_655 S
C1 O15 1.245 . S
C2 O26 1.247 . S
C2 O28 1.289 1_545 S
Mg3 O4 1.926 . S
Mg3 O13 1.984 . S
Mg3 O15 1.988 . S
Mg3 O16 2.061 . S
O4 Mg3 1.926 . S
O4 Mg5 1.986 1_655 S
O4 Mg6 1.917 1_665 S
Mg5 O4 1.986 1_455 S
Mg5 O12 2.042 . S
Mg5 O14 2.041 . S
Mg5 O20 2.038 . S
Mg5 O28 2.238 . S
Mg6 O4 1.917 1_445 S
Mg6 O7 1.917 . S
Mg6 O17 2.106 1_455 S
Mg6 O19 2.079 . S
Mg6 O28 2.106 1_545 S
Mg6 O29 2.079 1_445 S
O7 Mg6 1.917 . S
O7 Mg8 1.926 . S
O7 Mg9 1.986 1_455 S
Mg8 O7 1.926 . S
Mg8 O22 1.984 . S
Mg8 O25 1.988 . S
Mg8 O26 2.061 . S
Mg9 O7 1.986 1_655 S
Mg9 O17 2.238 . S
Mg9 O21 2.042 . S
Mg9 O23 2.041 . S
Mg9 O30 2.038 . S
C10 O16 1.247 . S
C10 O17 1.289 1_565 S
C11 O29 1.245 1_545 S
C11 O30 1.274 . S
O12 C0 1.241 . S
O12 Mg5 2.042 . S
O13 C0 1.280 1_655 S
O13 Mg3 1.984 . S
O14 C1 1.277 1_455 S
O14 Mg5 2.041 . S
O15 C1 1.245 . S
O15 Mg3 1.988 . S
O16 Mg3 2.061 . S
O16 C10 1.247 . S
O17 Mg6 2.106 1_655 S
O17 Mg9 2.238 . S
O17 C10 1.289 1_545 S
C18 O19 1.245 1_565 S
C18 O20 1.274 . S
O19 Mg6 2.079 . S
O19 C18 1.245 1_545 S
O20 Mg5 2.038 . S
O20 C18 1.274 . S
O21 Mg9 2.042 . S
O21 C24 1.241 . S
O22 Mg8 1.984 . S
O22 C24 1.280 1_455 S
O23 Mg9 2.041 . S
O23 C27 1.277 1_655 S
C24 O21 1.241 . S
C24 O22 1.280 1_655 S
O25 Mg8 1.988 . S
O25 C27 1.245 . S
O26 C2 1.247 . S
O26 Mg8 2.061 . S
C27 O23 1.277 1_455 S
C27 O25 1.245 . S
O28 C2 1.289 1_565 S
O28 Mg5 2.238 . S
O28 Mg6 2.106 1_565 S
O29 Mg6 2.079 1_665 S
O29 C11 1.245 1_565 S
O30 Mg9 2.038 . S
O30 C11 1.274 . S
C31 O43 1.241 . S
C31 O44 1.280 1_565 S
C32 O45 1.277 1_545 S
C32 O46 1.245 . S
C33 O57 1.247 . S
C33 O59 1.289 1_556 S
Mg34 O35 1.926 . S
Mg34 O44 1.984 . S
Mg34 O46 1.988 . S
Mg34 O47 2.061 . S
O35 Mg34 1.926 . S
O35 Mg36 1.986 1_545 S
O35 Mg37 1.917 . S
Mg36 O35 1.986 1_565 S
Mg36 O43 2.042 . S
Mg36 O45 2.041 . S
Mg36 O51 2.038 . S
Mg36 O59 2.238 . S
Mg37 O35 1.917 . S
Mg37 O38 1.917 1_544 S
Mg37 O48 2.106 1_554 S
Mg37 O50 2.079 1_544 S
Mg37 O59 2.106 1_545 S
Mg37 O60 2.079 . S
O38 Mg37 1.917 1_566 S
O38 Mg39 1.926 . S
O38 Mg40 1.986 1_565 S
Mg39 O38 1.926 . S
Mg39 O53 1.984 . S
Mg39 O56 1.988 . S
Mg39 O57 2.061 . S
Mg40 O38 1.986 1_545 S
Mg40 O48 2.238 . S
Mg40 O52 2.042 . S
Mg40 O54 2.041 . S
Mg40 O61 2.038 . S
C41 O47 1.247 . S
C41 O48 1.289 1_554 S
C42 O60 1.245 1_556 S
C42 O61 1.274 . S
O43 C31 1.241 . S
O43 Mg36 2.042 . S
O44 C31 1.280 1_545 S
O44 Mg34 1.984 . S
O45 C32 1.277 1_565 S
O45 Mg36 2.041 . S
O46 C32 1.245 . S
O46 Mg34 1.988 . S
O47 Mg34 2.061 . S
O47 C41 1.247 . S
O48 Mg37 2.106 1_556 S
O48 Mg40 2.238 . S
O48 C41 1.289 1_556 S
C49 O50 1.245 1_554 S
C49 O51 1.274 . S
O50 Mg37 2.079 1_566 S
O50 C49 1.245 1_556 S
O51 Mg36 2.038 . S
O51 C49 1.274 . S
O52 Mg40 2.042 . S
O52 C55 1.241 . S
O53 Mg39 1.984 . S
O53 C55 1.280 1_565 S
O54 Mg40 2.041 . S
O54 C58 1.277 1_545 S
C55 O52 1.241 . S
C55 O53 1.280 1_545 S
O56 Mg39 1.988 . S
O56 C58 1.245 . S
O57 C33 1.247 . S
O57 Mg39 2.061 . S
C58 O54 1.277 1_565 S
C58 O56 1.245 . S
O59 C33 1.289 1_554 S
O59 Mg36 2.238 . S
O59 Mg37 2.106 1_565 S
O60 Mg37 2.079 . S
O60 C42 1.245 1_554 S
O61 Mg40 2.038 . S
O61 C42 1.274 . S
C62 O74 1.241 . S
C62 O75 1.280 1_455 S
C63 O76 1.277 1_655 S
C63 O77 1.245 . S
C64 O88 1.247 . S
C64 O90 1.289 1_554 S
Mg65 O66 1.926 . S
Mg65 O75 1.984 . S
Mg65 O77 1.988 . S
Mg65 O78 2.061 . S
O66 Mg65 1.926 . S
O66 Mg67 1.986 1_655 S
O66 Mg68 1.917 1_656 S
Mg67 O66 1.986 1_455 S
Mg67 O74 2.042 . S
Mg67 O76 2.041 . S
Mg67 O82 2.038 . S
Mg67 O90 2.238 . S
Mg68 O66 1.917 1_454 S
Mg68 O69 1.917 . S
Mg68 O79 2.106 1_455 S
Mg68 O81 2.079 . S
Mg68 O90 2.106 1_554 S
Mg68 O91 2.079 1_454 S
O69 Mg68 1.917 . S
O69 Mg70 1.926 . S
O69 Mg71 1.986 1_455 S
Mg70 O69 1.926 . S
Mg70 O84 1.984 . S
Mg70 O87 1.988 . S
Mg70 O88 2.061 . S
Mg71 O69 1.986 1_655 S
Mg71 O79 2.238 . S
Mg71 O83 2.042 . S
Mg71 O85 2.041 . S
Mg71 O92 2.038 . S
C72 O78 1.247 . S
C72 O79 1.289 1_556 S
C73 O91 1.245 1_554 S
C73 O92 1.274 . S
O74 C62 1.241 . S
O74 Mg67 2.042 . S
O75 C62 1.280 1_655 S
O75 Mg65 1.984 . S
O76 C63 1.277 1_455 S
O76 Mg67 2.041 . S
O77 C63 1.245 . S
O77 Mg65 1.988 . S
O78 Mg65 2.061 . S
O78 C72 1.247 . S
O79 Mg68 2.106 1_655 S
O79 Mg71 2.238 . S
O79 C72 1.289 1_554 S
C80 O81 1.245 1_556 S
C80 O82 1.274 . S
O81 Mg68 2.079 . S
O81 C80 1.245 1_554 S
O82 Mg67 2.038 . S
O82 C80 1.274 . S
O83 Mg71 2.042 . S
O83 C86 1.241 . S
O84 Mg70 1.984 . S
O84 C86 1.280 1_455 S
O85 Mg71 2.041 . S
O85 C89 1.277 1_655 S
C86 O83 1.241 . S
C86 O84 1.280 1_655 S
O87 Mg70 1.988 . S
O87 C89 1.245 . S
O88 C64 1.247 . S
O88 Mg70 2.061 . S
C89 O85 1.277 1_455 S
C89 O87 1.245 . S
O90 C64 1.289 1_556 S
O90 Mg67 2.238 . S
O90 Mg68 2.106 1_556 S
O91 Mg68 2.079 1_656 S
O91 C73 1.245 1_556 S
O92 Mg71 2.038 . S
O92 C73 1.274 . S
H93 C105 0.930 . S
H94 C107 0.930 . S
H95 C108 0.930 . S
H96 C112 0.959 . S
H97 C112 0.959 . S
H98 C112 0.961 . S
H99 C113 0.960 . S
H100 C113 0.961 . S
H101 C113 0.959 . S
H102 C116 0.929 . S
H103 C117 0.931 . S
H104 C119 0.930 . S
C105 H93 0.930 . S
C105 C106 1.399 . S
C105 C110 1.399 1_455 S
C106 C105 1.399 . S
C106 C107 1.376 1_455 S
C107 H94 0.930 . S
C107 C106 1.376 1_655 S
C107 C108 1.388 . S
C108 H95 0.930 . S
C108 C107 1.388 . S
C108 C109 1.390 . S
C109 C108 1.390 . S
C109 C110 1.394 . S
C109 C115 1.465 . S
C110 C105 1.399 1_655 S
C110 C109 1.394 . S
C110 C111 1.516 . S
C111 C110 1.516 . S
C111 C112 1.502 1_655 S
C111 C113 1.561 . S
C111 C114 1.526 . S
C112 H96 0.959 . S
C112 H97 0.959 . S
C112 H98 0.961 . S
C112 C111 1.502 1_455 S
C113 H99 0.960 . S
C113 H100 0.961 . S
C113 H101 0.959 . S
C113 C111 1.561 . S
C114 C111 1.526 . S
C114 C115 1.396 . S
C114 C119 1.390 . S
C115 C109 1.465 . S
C115 C114 1.396 . S
C115 C116 1.399 . S
C116 H102 0.929 . S
C116 C115 1.399 . S
C116 C117 1.385 . S
C117 H103 0.931 . S
C117 C116 1.385 . S
C117 C118 1.389 . S
C118 C117 1.389 . S
C118 C119 1.387 . S
C119 H104 0.930 . S
C119 C114 1.390 . S
C119 C118 1.387 . S
H120 C132 0.930 . S
H121 C134 0.930 . S
H122 C135 0.930 . S
H123 C139 0.959 . S
H124 C139 0.959 . S
H125 C139 0.961 . S
H126 C140 0.960 . S
H127 C140 0.961 . S
H128 C140 0.959 . S
H129 C143 0.929 . S
H130 C144 0.931 . S
H131 C146 0.930 . S
C132 H120 0.930 . S
C132 C133 1.399 1_565 S
C132 C137 1.399 . S
C133 C132 1.399 1_545 S
C133 C134 1.376 . S
C134 H121 0.930 . S
C134 C133 1.376 . S
C134 C135 1.388 . S
C135 H122 0.930 . S
C135 C134 1.388 . S
C135 C136 1.390 . S
C136 C135 1.390 . S
C136 C137 1.394 1_545 S
C136 C142 1.465 . S
C137 C132 1.399 . S
C137 C136 1.394 1_565 S
C137 C138 1.516 . S
C138 C137 1.516 . S
C138 C139 1.502 . S
C138 C140 1.561 . S
C138 C141 1.526 . S
C139 H123 0.959 . S
C139 H124 0.959 . S
C139 H125 0.961 . S
C139 C138 1.502 . S
C140 H126 0.960 . S
C140 H127 0.961 . S
C140 H128 0.959 . S
C140 C138 1.561 . S
C141 C138 1.526 . S
C141 C142 1.396 1_565 S
C141 C146 1.390 . S
C142 C136 1.465 . S
C142 C141 1.396 1_545 S
C142 C143 1.399 . S
C143 H129 0.929 . S
C143 C142 1.399 . S
C143 C144 1.385 . S
C144 H130 0.931 . S
C144 C143 1.385 . S
C144 C145 1.389 1_545 S
C145 C144 1.389 1_565 S
C145 C146 1.387 . S
C146 H131 0.930 . S
C146 C141 1.390 . S
C146 C145 1.387 . S
H147 C159 0.930 . S
H148 C161 0.930 . S
H149 C162 0.930 . S
H150 C166 0.959 . S
H151 C166 0.959 . S
H152 C166 0.961 . S
H153 C167 0.960 . S
H154 C167 0.961 1_655 S
H155 C167 0.959 . S
H156 C170 0.929 . S
H157 C171 0.931 1_455 S
H158 C173 0.930 . S
C159 H147 0.930 . S
C159 C160 1.399 . S
C159 C164 1.399 . S
C160 C159 1.399 . S
C160 C161 1.376 1_655 S
C161 H148 0.930 . S
C161 C160 1.376 1_455 S
C161 C162 1.388 . S
C162 H149 0.930 . S
C162 C161 1.388 . S
C162 C163 1.390 1_455 S
C163 C162 1.390 1_655 S
C163 C164 1.394 . S
C163 C169 1.465 . S
C164 C159 1.399 . S
C164 C163 1.394 . S
C164 C165 1.516 . S
C165 C164 1.516 . S
C165 C166 1.502 . S
C165 C167 1.561 1_655 S
C165 C168 1.526 . S
C166 H150 0.959 . S
C166 H151 0.959 . S
C166 H152 0.961 . S
C166 C165 1.502 . S
C167 H153 0.960 . S
C167 H154 0.961 1_455 S
C167 H155 0.959 . S
C167 C165 1.561 1_455 S
C168 C165 1.526 . S
C168 C169 1.396 . S
C168 C173 1.390 . S
C169 C163 1.465 . S
C169 C168 1.396 . S
C169 C170 1.399 1_655 S
C170 H156 0.929 . S
C170 C169 1.399 1_455 S
C170 C171 1.385 1_455 S
C171 H157 0.931 1_655 S
C171 C170 1.385 1_655 S
C171 C172 1.389 . S
C172 C171 1.389 . S
C172 C173 1.387 . S
C173 H158 0.930 . S
C173 C168 1.390 . S
C173 C172 1.387 . S
H174 C186 0.930 . S
H175 C188 0.930 . S
H176 C189 0.930 . S
H177 C193 0.959 . S
H178 C193 0.959 . S
H179 C193 0.961 . S
H180 C194 0.960 . S
H181 C194 0.961 . S
H182 C194 0.959 . S
H183 C197 0.929 . S
H184 C198 0.931 . S
H185 C200 0.930 . S
C186 H174 0.930 . S
C186 C187 1.399 . S
C186 C191 1.399 . S
C187 C186 1.399 . S
C187 C188 1.376 1_545 S
C188 H175 0.930 . S
C188 C187 1.376 1_565 S
C188 C189 1.388 . S
C189 H176 0.930 . S
C189 C188 1.388 . S
C189 C190 1.390 . S
C190 C189 1.390 . S
C190 C191 1.394 1_565 S
C190 C196 1.465 . S
C191 C186 1.399 . S
C191 C190 1.394 1_545 S
C191 C192 1.516 . S
C192 C191 1.516 . S
C192 C193 1.502 . S
C192 C194 1.561 . S
C192 C195 1.526 . S
C193 H177 0.959 . S
C193 H178 0.959 . S
C193 H179 0.961 . S
C193 C192 1.502 . S
C194 H180 0.960 . S
C194 H181 0.961 . S
C194 H182 0.959 . S
C194 C192 1.561 . S
C195 C192 1.526 . S
C195 C196 1.396 1_545 S
C195 C200 1.390 . S
C196 C190 1.465 . S
C196 C195 1.396 1_565 S
C196 C197 1.399 . S
C197 H183 0.929 . S
C197 C196 1.399 . S
C197 C198 1.385 . S
C198 H184 0.931 . S
C198 C197 1.385 . S
C198 C199 1.389 . S
C199 C198 1.389 . S
C199 C200 1.387 1_565 S
C200 H185 0.930 . S
C200 C195 1.390 . S
C200 C199 1.387 1_545 S
H201 C213 0.930 . S
H202 C215 0.930 . S
H203 C216 0.930 . S
H204 C220 0.959 . S
H205 C220 0.959 . S
H206 C220 0.961 . S
H207 C221 0.960 . S
H208 C221 0.961 . S
H209 C221 0.959 1_455 S
H210 C224 0.929 . S
H211 C225 0.931 . S
H212 C227 0.930 . S
C213 H201 0.930 . S
C213 C214 1.399 1_655 S
C213 C218 1.399 . S
C214 C213 1.399 1_455 S
C214 C215 1.376 . S
C215 H202 0.930 . S
C215 C214 1.376 . S
C215 C216 1.388 . S
C216 H203 0.930 . S
C216 C215 1.388 . S
C216 C217 1.390 . S
C217 C216 1.390 . S
C217 C218 1.394 1_455 S
C217 C223 1.465 . S
C218 C213 1.399 . S
C218 C217 1.394 1_655 S
C218 C219 1.516 . S
C219 C218 1.516 . S
C219 C220 1.502 . S
C219 C221 1.561 . S
C219 C222 1.526 . S
C220 H204 0.959 . S
C220 H205 0.959 . S
C220 H206 0.961 . S
C220 C219 1.502 . S
C221 H207 0.960 . S
C221 H208 0.961 . S
C221 H209 0.959 1_655 S
C221 C219 1.561 . S
C222 C219 1.526 . S
C222 C223 1.396 1_655 S
C222 C227 1.390 . S
C223 C217 1.465 . S
C223 C222 1.396 1_455 S
C223 C224 1.399 . S
C224 H210 0.929 . S
C224 C223 1.399 . S
C224 C225 1.385 . S
C225 H211 0.931 . S
C225 C224 1.385 . S
C225 C226 1.383 1_455 S
C226 C225 1.383 1_655 S
C226 C227 1.392 . S
C227 H212 0.930 . S
C227 C222 1.390 . S
C227 C226 1.392 . S
H228 C240 0.930 . S
H229 C242 0.930 . S
H230 C243 0.930 . S
H231 C247 0.959 . S
H232 C247 0.959 . S
H233 C247 0.961 . S
H234 C248 0.960 . S
H235 C248 0.961 . S
H236 C248 0.959 . S
H237 C251 0.929 . S
H238 C252 0.931 . S
H239 C254 0.930 . S
C240 H228 0.930 . S
C240 C241 1.399 . S
C240 C245 1.399 . S
C241 C240 1.399 . S
C241 C242 1.376 1_545 S
C242 H229 0.930 . S
C242 C241 1.376 1_565 S
C242 C243 1.388 . S
C243 H230 0.930 . S
C243 C242 1.388 . S
C243 C244 1.390 . S
C244 C243 1.390 . S
C244 C245 1.394 1_565 S
C244 C250 1.465 . S
C245 C240 1.399 . S
C245 C244 1.394 1_545 S
C245 C246 1.516 . S
C246 C245 1.516 . S
C246 C247 1.502 . S
C246 C248 1.561 . S
C246 C249 1.526 . S
C247 H231 0.959 . S
C247 H232 0.959 . S
C247 H233 0.961 . S
C247 C246 1.502 . S
C248 H234 0.960 . S
C248 H235 0.961 . S
C248 H236 0.959 . S
C248 C246 1.561 . S
C249 C246 1.526 . S
C249 C250 1.396 1_545 S
C249 C254 1.390 . S
C250 C244 1.465 . S
C250 C249 1.396 1_565 S
C250 C251 1.399 . S
C251 H237 0.929 . S
C251 C250 1.399 . S
C251 C252 1.385 . S
C252 H238 0.931 . S
C252 C251 1.385 . S
C252 C253 1.389 . S
C253 C252 1.389 . S
C253 C254 1.387 1_565 S
C254 H239 0.930 . S
C254 C249 1.390 . S
C254 C253 1.387 1_545 S
H255 C267 0.930 . S
H256 C269 0.930 1_655 S
H257 C270 0.930 . S
H258 C274 0.959 . S
H259 C274 0.959 . S
H260 C274 0.961 . S
H261 C275 0.960 . S
H262 C275 0.961 . S
H263 C275 0.959 . S
H264 C278 0.929 . S
H265 C279 0.932 . S
H266 C281 0.930 . S
C267 H255 0.930 . S
C267 C268 1.399 . S
C267 C272 1.399 . S
C268 C267 1.399 . S
C268 C269 1.376 . S
C269 H256 0.930 1_455 S
C269 C268 1.376 . S
C269 C270 1.388 1_455 S
C270 H257 0.930 . S
C270 C269 1.388 1_655 S
C270 C271 1.390 1_655 S
C271 C270 1.390 1_455 S
C271 C272 1.394 . S
C271 C277 1.465 . S
C272 C267 1.399 . S
C272 C271 1.394 . S
C272 C273 1.516 . S
C273 C272 1.516 . S
C273 C274 1.502 . S
C273 C275 1.561 1_455 S
C273 C276 1.526 . S
C274 H258 0.959 . S
C274 H259 0.959 . S
C274 H260 0.961 . S
C274 C273 1.502 . S
C275 H261 0.960 . S
C275 H262 0.961 . S
C275 H263 0.959 . S
C275 C273 1.561 1_655 S
C276 C273 1.526 . S
C276 C277 1.396 . S
C276 C281 1.390 . S
C277 C271 1.465 . S
C277 C276 1.396 . S
C277 C278 1.399 1_455 S
C278 H264 0.929 . S
C278 C277 1.399 1_655 S
C278 C279 1.386 . S
C279 H265 0.932 . S
C279 C278 1.386 . S
C279 C280 1.388 1_655 S
C280 C279 1.388 1_455 S
C280 C281 1.387 . S
C281 H266 0.930 . S
C281 C276 1.390 . S
C281 C280 1.387 . S
H282 C294 0.930 . S
H283 C296 0.930 . S
H284 C297 0.930 . S
H285 C301 0.959 . S
H286 C301 0.959 . S
H287 C301 0.961 . S
H288 C302 0.960 . S
H289 C302 0.961 . S
H290 C302 0.959 . S
H291 C305 0.929 . S
H292 C306 0.931 . S
H293 C308 0.930 . S
C294 H282 0.930 . S
C294 C295 1.399 1_545 S
C294 C299 1.399 . S
C295 C294 1.399 1_565 S
C295 C296 1.376 . S
C296 H283 0.930 . S
C296 C295 1.376 . S
C296 C297 1.388 . S
C297 H284 0.930 . S
C297 C296 1.388 . S
C297 C298 1.390 . S
C298 C297 1.390 . S
C298 C299 1.394 1_565 S
C298 C304 1.465 . S
C299 C294 1.399 . S
C299 C298 1.394 1_545 S
C299 C300 1.516 . S
C300 C299 1.516 . S
C300 C301 1.502 . S
C300 C302 1.561 . S
C300 C303 1.526 . S
C301 H285 0.959 . S
C301 H286 0.959 . S
C301 H287 0.961 . S
C301 C300 1.502 . S
C302 H288 0.960 . S
C302 H289 0.961 . S
C302 H290 0.959 . S
C302 C300 1.561 . S
C303 C300 1.526 . S
C303 C304 1.396 1_545 S
C303 C308 1.390 . S
C304 C298 1.465 . S
C304 C303 1.396 1_565 S
C304 C305 1.399 . S
C305 H291 0.929 . S
C305 C304 1.399 . S
C305 C306 1.385 . S
C306 H292 0.931 . S
C306 C305 1.385 . S
C306 C307 1.389 . S
C307 C306 1.389 . S
C307 C308 1.387 1_565 S
C308 H293 0.930 . S
C308 C303 1.390 . S
C308 C307 1.387 1_545 S
H309 C321 0.930 . S
H310 C323 0.930 . S
H311 C324 0.930 . S
H312 C328 0.959 . S
H313 C328 0.959 . S
H314 C328 0.961 . S
H315 C329 0.960 . S
H316 C329 0.961 . S
H317 C329 0.959 . S
H318 C332 0.929 . S
H319 C333 0.931 . S
H320 C335 0.930 . S
C321 H309 0.930 . S
C321 C322 1.399 . S
C321 C326 1.399 . S
C322 C321 1.399 . S
C322 C323 1.376 1_556 S
C323 H310 0.930 . S
C323 C322 1.376 1_554 S
C323 C324 1.388 . S
C324 H311 0.930 . S
C324 C323 1.388 . S
C324 C325 1.390 . S
C325 C324 1.390 . S
C325 C326 1.394 1_554 S
C325 C331 1.465 . S
C326 C321 1.399 . S
C326 C325 1.394 1_556 S
C326 C327 1.516 . S
C327 C326 1.516 . S
C327 C328 1.502 . S
C327 C329 1.561 1_556 S
C327 C330 1.526 . S
C328 H312 0.959 . S
C328 H313 0.959 . S
C328 H314 0.961 . S
C328 C327 1.502 . S
C329 H315 0.960 . S
C329 H316 0.961 . S
C329 H317 0.959 . S
C329 C327 1.561 1_554 S
C330 C327 1.526 . S
C330 C331 1.396 1_556 S
C330 C335 1.390 . S
C331 C325 1.465 . S
C331 C330 1.396 1_554 S
C331 C332 1.399 . S
C332 H318 0.929 . S
C332 C331 1.399 . S
C332 C333 1.385 . S
C333 H319 0.931 . S
C333 C332 1.385 . S
C333 C334 1.389 1_554 S
C334 C333 1.389 1_556 S
C334 C335 1.387 . S
C335 H320 0.930 . S
C335 C330 1.390 . S
C335 C334 1.387 . S
H336 C348 0.930 . S
H337 C350 0.930 . S
H338 C351 0.930 . S
H339 C355 0.959 . S
H340 C355 0.959 . S
H341 C355 0.961 . S
H342 C356 0.960 . S
H343 C356 0.961 . S
H344 C356 0.959 . S
H345 C359 0.929 . S
H346 C360 0.931 . S
H347 C362 0.930 . S
C348 H336 0.930 . S
C348 C349 1.399 1_554 S
C348 C353 1.399 . S
C349 C348 1.399 1_556 S
C349 C350 1.376 . S
C350 H337 0.930 . S
C350 C349 1.376 . S
C350 C351 1.388 . S
C351 H338 0.930 . S
C351 C350 1.388 . S
C351 C352 1.390 . S
C352 C351 1.390 . S
C352 C353 1.394 1_556 S
C352 C358 1.465 . S
C353 C348 1.399 . S
C353 C352 1.394 1_554 S
C353 C354 1.516 . S
C354 C353 1.516 . S
C354 C355 1.502 . S
C354 C356 1.561 . S
C354 C357 1.526 . S
C355 H339 0.959 . S
C355 H340 0.959 . S
C355 H341 0.961 . S
C355 C354 1.502 . S
C356 H342 0.960 . S
C356 H343 0.961 . S
C356 H344 0.959 . S
C356 C354 1.561 . S
C357 C354 1.526 . S
C357 C358 1.396 1_554 S
C357 C362 1.390 . S
C358 C352 1.465 . S
C358 C357 1.396 1_556 S
C358 C359 1.399 . S
C359 H345 0.929 . S
C359 C358 1.399 . S
C359 C360 1.385 . S
C360 H346 0.931 . S
C360 C359 1.385 . S
C360 C361 1.401 . S
C361 C360 1.401 . S
C361 C362 1.378 1_556 S
C362 H347 0.930 . S
C362 C357 1.390 . S
C362 C361 1.378 1_554 S
H363 C375 0.930 . S
H364 C377 0.930 . S
H365 C378 0.930 . S
H366 C382 0.959 . S
H367 C382 0.959 . S
H368 C382 0.961 . S
H369 C383 0.960 . S
H370 C383 0.961 . S
H371 C383 0.959 . S
H372 C386 0.929 . S
H373 C387 0.931 . S
H374 C389 0.930 . S
C375 H363 0.930 . S
C375 C376 1.397 1_556 S
C375 C380 1.399 . S
C376 C375 1.397 1_554 S
C376 C377 1.379 . S
C377 H364 0.930 . S
C377 C376 1.379 . S
C377 C378 1.388 . S
C378 H365 0.930 . S
C378 C377 1.388 . S
C378 C379 1.390 . S
C379 C378 1.390 . S
C379 C380 1.394 1_554 S
C379 C385 1.465 . S
C380 C375 1.399 . S
C380 C379 1.394 1_556 S
C380 C381 1.516 . S
C381 C380 1.516 . S
C381 C382 1.502 . S
C381 C383 1.561 . S
C381 C384 1.526 . S
C382 H366 0.959 . S
C382 H367 0.959 . S
C382 H368 0.961 . S
C382 C381 1.502 . S
C383 H369 0.960 . S
C383 H370 0.961 . S
C383 H371 0.959 . S
C383 C381 1.561 . S
C384 C381 1.526 . S
C384 C385 1.396 1_556 S
C384 C389 1.390 . S
C385 C379 1.465 . S
C385 C384 1.396 1_554 S
C385 C386 1.399 . S
C386 H372 0.929 . S
C386 C385 1.399 . S
C386 C387 1.385 . S
C387 H373 0.931 . S
C387 C386 1.385 . S
C387 C388 1.389 . S
C388 C387 1.389 . S
C388 C389 1.387 1_554 S
C389 H374 0.930 . S
C389 C384 1.390 . S
C389 C388 1.387 1_556 S
H390 C402 0.930 . S
H391 C404 0.930 . S
H392 C405 0.930 . S
H393 C409 0.959 . S
H394 C409 0.959 . S
H395 C409 0.961 . S
H396 C410 0.960 . S
H397 C410 0.961 . S
H398 C410 0.959 . S
H399 C413 0.929 . S
H400 C414 0.931 . S
H401 C416 0.930 . S
C402 H390 0.930 . S
C402 C403 1.399 1_556 S
C402 C407 1.399 . S
C403 C402 1.399 1_554 S
C403 C404 1.376 . S
C404 H391 0.930 . S
C404 C403 1.376 . S
C404 C405 1.388 . S
C405 H392 0.930 . S
C405 C404 1.388 . S
C405 C406 1.390 . S
C406 C405 1.390 . S
C406 C407 1.394 1_554 S
C406 C412 1.465 . S
C407 C402 1.399 . S
C407 C406 1.394 1_556 S
C407 C408 1.516 . S
C408 C407 1.516 . S
C408 C409 1.502 . S
C408 C410 1.561 . S
C408 C411 1.526 . S
C409 H393 0.959 . S
C409 H394 0.959 . S
C409 H395 0.961 . S
C409 C408 1.502 . S
C410 H396 0.960 . S
C410 H397 0.961 . S
C410 H398 0.959 . S
C410 C408 1.561 . S
C411 C408 1.526 . S
C411 C412 1.396 1_556 S
C411 C416 1.390 . S
C412 C406 1.465 . S
C412 C411 1.396 1_554 S
C412 C413 1.399 . S
C413 H399 0.929 . S
C413 C412 1.399 . S
C413 C414 1.385 . S
C414 H400 0.931 . S
C414 C413 1.385 . S
C414 C415 1.389 . S
C415 C414 1.389 . S
C415 C416 1.387 1_554 S
C416 H401 0.930 . S
C416 C411 1.390 . S
C416 C415 1.387 1_556 S
C106 C89 1.102 . S
C118 C24 1.098 . S
C133 C11 1.203 . S
C145 C31 1.223 . S
C160 C1 0.908 . S
C172 C86 0.862 . S
C187 C32 1.230 . S
C199 C2 1.243 1_565 S
C214 C0 1.109 . S
C226 C63 1.091 . S
C241 C55 1.224 . S
C253 C18 1.221 . S
C268 C62 0.862 . S
C280 C27 0.904 . S
C295 C58 1.237 . S
C307 C10 1.184 . S
C322 C80 1.906 . S
C334 C42 1.873 . S
C349 C64 1.224 1_556 S
C361 C33 1.141 . S
C376 C41 1.135 . S
C388 C72 1.234 1_554 S
C403 C73 1.864 . S
C415 C49 1.823 . S
