# Generated by pormake.
# Topology uoc, (4)-cn, num edge types: 1
# Building blocks:
#     Node 0, Type 0, BuildingBlock: GALJAG_clean_sbu_0, # of connection points: 4
#     Node 1, Type 0, BuildingBlock: GALJAG_clean_sbu_0, # of connection points: 4
#     Node 2, Type 0, BuildingBlock: GALJAG_clean_sbu_0, # of connection points: 4
#     Node 3, Type 0, BuildingBlock: GALJAG_clean_sbu_0, # of connection points: 4
#     Node 4, Type 0, BuildingBlock: GALJAG_clean_sbu_0, # of connection points: 4
#     Node 5, Type 0, BuildingBlock: GALJAG_clean_sbu_0, # of connection points: 4
#     Node 6, Type 0, BuildingBlock: GALJAG_clean_sbu_0, # of connection points: 4
#     Node 7, Type 0, BuildingBlock: GALJAG_clean_sbu_0, # of connection points: 4
#     Edge 8, Type (0, 0), BuildingBlock: ZUJKAS_clean_linker_0, # of connection points: 2
#     Edge 9, Type (0, 0), BuildingBlock: ZUJKAS_clean_linker_0, # of connection points: 2
#     Edge 10, Type (0, 0), BuildingBlock: ZUJKAS_clean_linker_0, # of connection points: 2
#     Edge 11, Type (0, 0), BuildingBlock: ZUJKAS_clean_linker_0, # of connection points: 2
#     Edge 12, Type (0, 0), BuildingBlock: ZUJKAS_clean_linker_0, # of connection points: 2
#     Edge 13, Type (0, 0), BuildingBlock: ZUJKAS_clean_linker_0, # of connection points: 2
#     Edge 14, Type (0, 0), BuildingBlock: ZUJKAS_clean_linker_0, # of connection points: 2
#     Edge 15, Type (0, 0), BuildingBlock: ZUJKAS_clean_linker_0, # of connection points: 2
#     Edge 16, Type (0, 0), BuildingBlock: ZUJKAS_clean_linker_0, # of connection points: 2
#     Edge 17, Type (0, 0), BuildingBlock: ZUJKAS_clean_linker_0, # of connection points: 2
#     Edge 18, Type (0, 0), BuildingBlock: ZUJKAS_clean_linker_0, # of connection points: 2
#     Edge 19, Type (0, 0), BuildingBlock: ZUJKAS_clean_linker_0, # of connection points: 2
#     Edge 20, Type (0, 0), BuildingBlock: ZUJKAS_clean_linker_0, # of connection points: 2
#     Edge 21, Type (0, 0), BuildingBlock: ZUJKAS_clean_linker_0, # of connection points: 2
#     Edge 22, Type (0, 0), BuildingBlock: ZUJKAS_clean_linker_0, # of connection points: 2
#     Edge 23, Type (0, 0), BuildingBlock: ZUJKAS_clean_linker_0, # of connection points: 2
# Relax obj value: 0.017
# Max RMSD: 0.050
# Mean RMSD: 0.050
data_MOF--net-uoc--node1-GALJAG_clean_sbu_0--edge1-ZUJKAS_clean_linker_0
_symmetry_space_group_name_H-M    P1
_symmetry_Int_Tables_number       1
_symmetry_cell_setting            triclinic
loop_
_symmetry_equiv_pos_as_xyz
'x, y, z'
_cell_length_a     36.053657
_cell_length_b     36.030178
_cell_length_c     71.879867
_cell_angle_alpha  89.998908
_cell_angle_beta   90.014069
_cell_angle_gamma 90.371106
loop_
_atom_site_label
_atom_site_type_symbol
_atom_site_fract_x
_atom_site_fract_y
_atom_site_fract_z
_atom_type_partial_charge
In0 In 0.11251 0.25444 0.12025 0.0
O1 O 0.06147 0.29169 0.12241 0.0
O2 O 0.11468 0.31737 0.12118 0.0
C3 C 0.07979 0.18705 0.11894 0.0
C4 C 0.14664 0.2533 0.15357 0.0
C5 C 0.14287 0.25448 0.08604 0.0
O6 O 0.06125 0.21667 0.11975 0.0
O7 O 0.11451 0.19162 0.11877 0.0
O8 O 0.1616 0.24751 0.10046 0.0
O9 O 0.1092 0.2617 0.08898 0.0
C10 C 0.08006 0.32154 0.12227 0.0
O11 O 0.16326 0.26316 0.1389 0.0
O12 O 0.11317 0.24401 0.15135 0.0
In13 In 0.74913 0.61247 0.37055 0.0
O14 O 0.75608 0.66386 0.35221 0.0
O15 O 0.74797 0.61158 0.33903 0.0
C16 C 0.74558 0.64327 0.40461 0.0
C17 C 0.81651 0.58036 0.37069 0.0
C18 C 0.6813 0.58053 0.36964 0.0
O19 O 0.74328 0.66236 0.38992 0.0
O20 O 0.74994 0.60895 0.40204 0.0
O21 O 0.71064 0.56175 0.37108 0.0
O22 O 0.68633 0.61514 0.36858 0.0
C23 C 0.75321 0.64602 0.33715 0.0
O24 O 0.78689 0.56174 0.36897 0.0
O25 O 0.81197 0.61486 0.37244 0.0
In26 In 0.38587 0.24764 0.62004 0.0
O27 O 0.43682 0.2101 0.62062 0.0
O28 O 0.38338 0.18475 0.62118 0.0
C29 C 0.41753 0.31555 0.61871 0.0
C30 C 0.35499 0.24773 0.65412 0.0
C31 C 0.35348 0.24712 0.58631 0.0
O32 O 0.43652 0.28619 0.61905 0.0
O33 O 0.38288 0.31047 0.61901 0.0
O34 O 0.33532 0.25298 0.60104 0.0
O35 O 0.38759 0.24126 0.58871 0.0
C36 C 0.41806 0.18037 0.62122 0.0
O37 O 0.33626 0.24114 0.63962 0.0
O38 O 0.38888 0.2545 0.65132 0.0
In39 In 0.74781 0.88146 0.87336 0.0
O40 O 0.74467 0.83187 0.85351 0.0
O41 O 0.74989 0.88604 0.84198 0.0
C42 C 0.74803 0.84871 0.90701 0.0
C43 C 0.68088 0.91455 0.87384 0.0
C44 C 0.81629 0.91173 0.87342 0.0
O45 O 0.74577 0.83016 0.89212 0.0
O46 O 0.75008 0.88339 0.90481 0.0
O47 O 0.78728 0.93123 0.87348 0.0
O48 O 0.81064 0.87712 0.87335 0.0
C49 C 0.74698 0.85165 0.83904 0.0
O50 O 0.71085 0.93289 0.8742 0.0
O51 O 0.68484 0.87984 0.87329 0.0
In52 In 0.61051 0.74905 0.62153 0.0
O53 O 0.55964 0.7866 0.62245 0.0
O54 O 0.6131 0.81197 0.6225 0.0
C55 C 0.57843 0.68134 0.62007 0.0
C56 C 0.64245 0.74906 0.65538 0.0
C57 C 0.64193 0.74989 0.58757 0.0
O58 O 0.55964 0.7108 0.62067 0.0
O59 O 0.6131 0.68619 0.62026 0.0
O60 O 0.66041 0.74321 0.60212 0.0
O61 O 0.60803 0.75636 0.59027 0.0
C62 C 0.57842 0.81635 0.62277 0.0
O63 O 0.66078 0.75523 0.64071 0.0
O64 O 0.6084 0.74261 0.65286 0.0
In65 In 0.24917 0.10561 0.87082 0.0
O66 O 0.25457 0.15581 0.85157 0.0
O67 O 0.2486 0.10238 0.83931 0.0
C68 C 0.24492 0.13863 0.90433 0.0
C69 C 0.31704 0.07472 0.87211 0.0
C70 C 0.18195 0.0724 0.87022 0.0
O71 O 0.24287 0.15674 0.88932 0.0
O72 O 0.24937 0.10416 0.90235 0.0
O73 O 0.21169 0.05414 0.87114 0.0
O74 O 0.18627 0.10713 0.8695 0.0
C75 C 0.25256 0.13683 0.83683 0.0
O76 O 0.2877 0.05544 0.87124 0.0
O77 O 0.31202 0.10932 0.87236 0.0
In78 In 0.88783 0.75316 0.12062 0.0
O79 O 0.8388 0.75148 0.14077 0.0
O80 O 0.89302 0.75905 0.15189 0.0
C81 C 0.8539 0.75057 0.08729 0.0
C82 C 0.92 0.68574 0.12168 0.0
C83 C 0.91858 0.82138 0.11871 0.0
O84 O 0.83591 0.75062 0.10236 0.0
O85 O 0.88868 0.75175 0.08912 0.0
O86 O 0.93789 0.79222 0.1192 0.0
O87 O 0.88397 0.81597 0.11915 0.0
C88 C 0.85876 0.75582 0.15506 0.0
O89 O 0.93874 0.71537 0.12034 0.0
O90 O 0.88541 0.69029 0.12242 0.0
In91 In 0.2477 0.38759 0.37028 0.0
O92 O 0.24244 0.33659 0.35159 0.0
O93 O 0.25348 0.38879 0.33885 0.0
C94 C 0.24786 0.35587 0.4042 0.0
C95 C 0.18018 0.41937 0.3695 0.0
C96 C 0.3153 0.42008 0.37074 0.0
O97 O 0.25251 0.33733 0.38949 0.0
O98 O 0.24286 0.39013 0.40172 0.0
O99 O 0.2858 0.43862 0.36931 0.0
O100 O 0.31054 0.38545 0.37192 0.0
C101 C 0.24793 0.35446 0.33671 0.0
O102 O 0.20972 0.43825 0.3708 0.0
O103 O 0.18485 0.38477 0.36858 0.0
H104 H 0.21127 0.22965 0.0756 0.0
H105 H 0.2331 0.21829 0.04385 0.0
H106 H 0.13084 0.26202 0.02203 0.0
H107 H 0.10862 0.27283 0.05365 0.0
H108 H 0.14647 0.19269 0.00909 0.0
H109 H 0.2694 0.28482 0.00138 0.0
H110 H 0.27042 0.25628 0.02186 0.0
H111 H 0.23526 0.29111 0.01949 0.0
C112 C 0.19377 0.23746 0.06401 0.0
C113 C 0.15817 0.2519 0.06707 0.0
C114 C 0.20637 0.2312 0.04589 0.0
C115 C 0.18372 0.23967 0.0306 0.0
C116 C 0.14878 0.25545 0.03365 0.0
H117 H 0.23124 0.21151 0.91235 0.0
H118 H 0.21814 0.2383 0.94304 0.0
C119 C 0.13612 0.26155 0.05172 0.0
C120 C 0.19448 0.22826 0.0116 0.0
H121 H 0.26161 0.23741 0.97836 0.0
C122 C 0.17149 0.20273 0.00231 0.0
C123 C 0.227 0.24158 0.00277 0.0
C124 C 0.25181 0.27023 0.0118 0.0
C125 C 0.18054 0.18947 0.9846 0.0
C126 C 0.21376 0.20165 0.97608 0.0
C127 C 0.23635 0.22791 0.98508 0.0
C128 C 0.22543 0.18667 0.95791 0.0
C129 C 0.15448 0.16249 0.97512 0.0
C130 C 0.23474 0.1491 0.9563 0.0
C131 C 0.24212 0.13377 0.93889 0.0
C132 C 0.24041 0.15583 0.9228 0.0
C133 C 0.2326 0.19385 0.92452 0.0
C134 C 0.22522 0.20919 0.942 0.0
H135 H 0.12646 0.1626 0.98155 0.0
H136 H 0.15173 0.16914 0.9601 0.0
H137 H 0.16579 0.13402 0.97633 0.0
H138 H 0.23539 0.13143 0.9685 0.0
H139 H 0.24831 0.10445 0.93801 0.0
H140 H 0.74627 0.61279 0.30336 0.0
H141 H 0.76007 0.63959 0.2729 0.0
H142 H 0.78496 0.74492 0.29866 0.0
H143 H 0.77088 0.71834 0.32932 0.0
H144 H 0.74175 0.7476 0.26359 0.0
H145 H 0.87047 0.66405 0.25952 0.0
H146 H 0.82916 0.63776 0.26458 0.0
H147 H 0.84584 0.67147 0.28105 0.0
C148 C 0.75429 0.64177 0.30255 0.0
C149 C 0.7579 0.6634 0.31872 0.0
C150 C 0.76218 0.65699 0.28515 0.0
C151 C 0.77397 0.69401 0.28364 0.0
C152 C 0.77596 0.71624 0.29962 0.0
H153 H 0.89571 0.77116 0.18715 0.0
H154 H 0.8735 0.76244 0.21895 0.0
C155 C 0.76802 0.70101 0.31709 0.0
C156 C 0.78651 0.70852 0.26548 0.0
H157 H 0.85211 0.69529 0.23205 0.0
C158 C 0.766 0.73645 0.25669 0.0
C159 C 0.81848 0.69422 0.25673 0.0
C160 C 0.84252 0.66545 0.26599 0.0
C161 C 0.77608 0.74968 0.23899 0.0
C162 C 0.80715 0.73418 0.22992 0.0
C163 C 0.82817 0.70701 0.239 0.0
C164 C 0.81832 0.74485 0.21083 0.0
C165 C 0.75358 0.78018 0.23023 0.0
C166 C 0.79442 0.73847 0.19573 0.0
C167 C 0.80701 0.74361 0.1775 0.0
C168 C 0.84383 0.75474 0.17415 0.0
C169 C 0.86724 0.76239 0.18931 0.0
C170 C 0.85459 0.75749 0.20748 0.0
H171 H 0.73788 0.79609 0.24084 0.0
H172 H 0.77159 0.7997 0.22232 0.0
H173 H 0.73325 0.76774 0.22041 0.0
H174 H 0.76658 0.72794 0.19798 0.0
H175 H 0.78843 0.73738 0.16606 0.0
H176 H 0.2833 0.26873 0.57694 0.0
H177 H 0.25921 0.27971 0.54554 0.0
H178 H 0.36239 0.24178 0.52213 0.0
H179 H 0.38678 0.23127 0.55337 0.0
H180 H 0.34202 0.3116 0.51032 0.0
H181 H 0.22503 0.21169 0.5027 0.0
H182 H 0.22392 0.23923 0.52354 0.0
H183 H 0.26071 0.20653 0.52016 0.0
C184 C 0.30055 0.2621 0.56507 0.0
C185 C 0.33698 0.2494 0.56757 0.0
C186 C 0.28667 0.26815 0.54716 0.0
C187 C 0.30894 0.26125 0.53154 0.0
C188 C 0.34476 0.24714 0.53403 0.0
H189 H 0.26445 0.28419 0.41335 0.0
H190 H 0.27611 0.25945 0.4446 0.0
C191 C 0.35865 0.24122 0.55188 0.0
C192 C 0.29676 0.2726 0.51275 0.0
H193 H 0.23058 0.25857 0.47942 0.0
C194 C 0.31776 0.29987 0.50354 0.0
C195 C 0.2652 0.25709 0.50394 0.0
C196 C 0.24252 0.22677 0.51298 0.0
C197 C 0.30785 0.31241 0.48581 0.0
C198 C 0.27575 0.29769 0.47719 0.0
C199 C 0.25497 0.26998 0.48622 0.0
C200 C 0.26385 0.31094 0.45871 0.0
C201 C 0.33199 0.34115 0.47635 0.0
C202 C 0.25209 0.34767 0.45648 0.0
C203 C 0.24559 0.36187 0.43874 0.0
C204 C 0.25062 0.33948 0.42295 0.0
C205 C 0.26052 0.3021 0.42528 0.0
C206 C 0.26707 0.28791 0.44308 0.0
H207 H 0.35969 0.34361 0.48304 0.0
H208 H 0.33589 0.33425 0.46143 0.0
H209 H 0.3183 0.3686 0.47718 0.0
H210 H 0.24914 0.3657 0.46845 0.0
H211 H 0.23769 0.3907 0.43738 0.0
H212 H 0.73113 0.78015 0.82868 0.0
H213 H 0.72038 0.75713 0.79702 0.0
H214 H 0.74637 0.86561 0.77503 0.0
H215 H 0.75656 0.88888 0.80652 0.0
H216 H 0.67876 0.83824 0.76347 0.0
H217 H 0.78943 0.73373 0.75302 0.0
H218 H 0.76285 0.72806 0.774 0.0
H219 H 0.79162 0.76854 0.77109 0.0
C220 C 0.73513 0.79887 0.81706 0.0
C221 C 0.74445 0.83634 0.82004 0.0
C222 C 0.72923 0.78564 0.79899 0.0
C223 C 0.73292 0.80961 0.7837 0.0
C224 C 0.74351 0.84666 0.78666 0.0
H225 H 0.71272 0.77103 0.66491 0.0
H226 H 0.73649 0.78263 0.69639 0.0
C227 C 0.74925 0.85991 0.80465 0.0
C228 C 0.72207 0.79744 0.7648 0.0
H229 H 0.74179 0.73593 0.73007 0.0
C230 C 0.69263 0.81595 0.75615 0.0
C231 C 0.74039 0.76851 0.75528 0.0
C232 C 0.77306 0.7487 0.76372 0.0
C233 C 0.68076 0.80617 0.73826 0.0
C234 C 0.69839 0.77662 0.72892 0.0
C235 C 0.72817 0.75833 0.73742 0.0
C236 C 0.68611 0.7649 0.71021 0.0
C237 C 0.64969 0.82785 0.72942 0.0
C238 C 0.65043 0.75005 0.7077 0.0
C239 C 0.63677 0.74362 0.68983 0.0
C240 C 0.65869 0.75173 0.67417 0.0
C241 C 0.6952 0.76467 0.67674 0.0
C242 C 0.70882 0.77121 0.69467 0.0
H243 H 0.64499 0.85472 0.73659 0.0
H244 H 0.65566 0.83344 0.71452 0.0
H245 H 0.62363 0.81135 0.73022 0.0
H246 H 0.63271 0.74459 0.71958 0.0
H247 H 0.60865 0.73331 0.68828 0.0
H248 H 0.26273 0.38697 0.30333 0.0
H249 H 0.25254 0.36062 0.27235 0.0
H250 H 0.21748 0.25717 0.29702 0.0
H251 H 0.22775 0.28321 0.32817 0.0
H252 H 0.27761 0.27291 0.25761 0.0
H253 H 0.13029 0.31848 0.26255 0.0
H254 H 0.16677 0.34493 0.27367 0.0
H255 H 0.15405 0.30026 0.28265 0.0
C256 C 0.2534 0.35842 0.30218 0.0
C257 C 0.24574 0.3372 0.31814 0.0
C258 C 0.24779 0.34342 0.2845 0.0
C259 C 0.23439 0.30707 0.28254 0.0
C260 C 0.2281 0.28524 0.29838 0.0
H261 H 0.12124 0.22107 0.1853 0.0
H262 H 0.14609 0.22828 0.21672 0.0
C263 C 0.23385 0.30018 0.3161 0.0
C264 C 0.22323 0.29355 0.26402 0.0
H265 H 0.14967 0.29263 0.23432 0.0
C266 C 0.24962 0.27684 0.25248 0.0
C267 C 0.18669 0.29873 0.25757 0.0
C268 C 0.15759 0.31656 0.26966 0.0
C269 C 0.2403 0.26536 0.23437 0.0
C270 C 0.20393 0.27162 0.22767 0.0
C271 C 0.17751 0.28778 0.23946 0.0
C272 C 0.19251 0.26285 0.20836 0.0
C273 C 0.26933 0.24642 0.2227 0.0
C274 C 0.21074 0.27934 0.19316 0.0
C275 C 0.1968 0.27488 0.17514 0.0
C276 C 0.16402 0.25448 0.17212 0.0
C277 C 0.14646 0.23712 0.18725 0.0
C278 C 0.16065 0.24116 0.2052 0.0
H279 H 0.29089 0.23328 0.23152 0.0
H280 H 0.25677 0.22486 0.21359 0.0
H281 H 0.2833 0.26737 0.21376 0.0
H282 H 0.2348 0.29696 0.1953 0.0
H283 H 0.21072 0.28875 0.16371 0.0
H284 H 0.71075 0.7256 0.57741 0.0
H285 H 0.73346 0.7153 0.54571 0.0
H286 H 0.63163 0.75939 0.52357 0.0
H287 H 0.60854 0.76912 0.55511 0.0
H288 H 0.64781 0.69046 0.51023 0.0
H289 H 0.77054 0.78337 0.50396 0.0
H290 H 0.77105 0.75409 0.52418 0.0
H291 H 0.73593 0.78897 0.52189 0.0
C292 C 0.69353 0.73372 0.56576 0.0
C293 C 0.65781 0.74793 0.56869 0.0
C294 C 0.70663 0.72805 0.54768 0.0
C295 C 0.68434 0.73692 0.53231 0.0
C296 C 0.64929 0.75249 0.53525 0.0
H297 H 0.73193 0.71556 0.41389 0.0
H298 H 0.71922 0.74028 0.44504 0.0
C299 C 0.63613 0.75797 0.55327 0.0
C300 C 0.69559 0.72617 0.51327 0.0
H301 H 0.76291 0.73734 0.48028 0.0
C302 C 0.67284 0.70093 0.50364 0.0
C303 C 0.72813 0.74006 0.50469 0.0
C304 C 0.75269 0.76839 0.51412 0.0
C305 C 0.68208 0.68863 0.48578 0.0
C306 C 0.71526 0.70146 0.47746 0.0
C307 C 0.73768 0.72734 0.48685 0.0
C308 C 0.72693 0.68775 0.45903 0.0
C309 C 0.65621 0.66204 0.47591 0.0
C310 C 0.73636 0.65034 0.45678 0.0
C311 C 0.74351 0.63618 0.43909 0.0
C312 C 0.74144 0.65926 0.42338 0.0
C313 C 0.73356 0.69713 0.42576 0.0
C314 C 0.72641 0.7113 0.4435 0.0
H315 H 0.62819 0.66152 0.48235 0.0
H316 H 0.65337 0.66958 0.461 0.0
H317 H 0.66774 0.63359 0.47667 0.0
H318 H 0.73724 0.63189 0.46867 0.0
H319 H 0.74976 0.60695 0.4377 0.0
H320 H 0.28595 0.22338 0.66439 0.0
H321 H 0.26356 0.21228 0.6961 0.0
H322 H 0.36645 0.25544 0.71814 0.0
H323 H 0.38919 0.26599 0.68657 0.0
H324 H 0.34929 0.18607 0.73102 0.0
H325 H 0.22836 0.27941 0.7385 0.0
H326 H 0.22706 0.25081 0.71804 0.0
H327 H 0.26284 0.28543 0.7205 0.0
C328 C 0.30348 0.23112 0.67602 0.0
C329 C 0.33938 0.24531 0.67304 0.0
C330 C 0.29057 0.225 0.69411 0.0
C331 C 0.31324 0.23337 0.70945 0.0
C332 C 0.3485 0.24892 0.70648 0.0
H333 H 0.26636 0.20938 0.82781 0.0
H334 H 0.27897 0.2347 0.79673 0.0
C335 C 0.36145 0.25487 0.68844 0.0
C336 C 0.30212 0.22212 0.72845 0.0
H337 H 0.23556 0.23267 0.7618 0.0
C338 C 0.32455 0.19647 0.73779 0.0
C339 C 0.26998 0.23592 0.73727 0.0
C340 C 0.24581 0.26468 0.72816 0.0
C341 C 0.31539 0.1837 0.7556 0.0
C342 C 0.28258 0.19644 0.76416 0.0
C343 C 0.26049 0.22272 0.75505 0.0
C344 C 0.27099 0.18231 0.78255 0.0
C345 C 0.34101 0.15674 0.76516 0.0
C346 C 0.2614 0.14478 0.78467 0.0
C347 C 0.25434 0.13028 0.80232 0.0
C348 C 0.2566 0.15313 0.81812 0.0
C349 C 0.26458 0.19112 0.81587 0.0
C350 C 0.27168 0.20562 0.79817 0.0
H351 H 0.36897 0.15651 0.75867 0.0
H352 H 0.34405 0.16368 0.78014 0.0
H353 H 0.32913 0.12832 0.76413 0.0
H354 H 0.26032 0.12651 0.77271 0.0
H355 H 0.24798 0.10097 0.80361 0.0
H356 H 0.78039 0.73979 0.07915 0.0
H357 H 0.751 0.74243 0.04839 0.0
H358 H 0.85752 0.76572 0.02345 0.0
H359 H 0.88698 0.76174 0.05383 0.0
H360 H 0.74566 0.79876 0.02595 0.0
H361 H 0.81998 0.68963 0.98798 0.0
H362 H 0.8222 0.69356 0.013 0.0
H363 H 0.8532 0.72031 -0.00155 0.0
C364 C 0.79752 0.74489 0.06703 0.0
C365 C 0.83596 0.75043 0.06884 0.0
C366 C 0.78074 0.74634 0.04948 0.0
C367 C 0.80215 0.75342 0.03353 0.0
C368 C 0.84056 0.75888 0.03541 0.0
H369 H 0.76405 0.88274 0.93971 0.0
H370 H 0.76953 0.85457 0.97034 0.0
C371 C 0.85734 0.75701 0.05285 0.0
C372 C 0.7844 0.75884 0.01512 0.0
H373 H 0.79746 0.74128 0.96898 0.0
C374 C 0.75638 0.78552 0.01353 0.0
C375 C 0.79742 0.74086 -0.0011 0.0
C376 C 0.82454 0.70919 -0.00027 0.0
C377 C 0.74344 0.79699 0.99607 0.0
C378 C 0.75988 0.7823 0.9798 0.0
C379 C 0.78545 0.75326 0.98142 0.0
C380 C 0.75405 0.79926 0.96124 0.0
C381 C 0.7129 0.82539 0.99529 0.0
C382 C 0.74477 0.77736 0.94573 0.0
C383 C 0.74241 0.79337 0.92802 0.0
C384 C 0.74926 0.83151 0.92561 0.0
C385 C 0.75824 0.85334 0.94117 0.0
C386 C 0.761 0.83731 0.95875 0.0
H387 H 0.69395 0.82239 0.0074 0.0
H388 H 0.72527 0.85364 0.99594 0.0
H389 H 0.69636 0.82289 0.98231 0.0
H390 H 0.7397 0.74786 0.9473 0.0
H391 H 0.73547 0.77591 0.91625 0.0
H392 H 0.00581 0.16946 0.1187 0.0
H393 H 0.9778 0.10719 0.11846 0.0
H394 H 0.08676 0.05854 0.11766 0.0
H395 H 0.1149 0.12042 0.11803 0.0
H396 H 0.98749 0.04919 0.09172 0.0
H397 H 0.03508 0.00773 0.16217 0.0
H398 H 0.03492 0.05543 0.15446 0.0
H399 H 0.07117 0.02471 0.14712 0.0
C400 C 0.02375 0.14546 0.11851 0.0
C401 C 0.06253 0.14977 0.11849 0.0
C402 C 0.00774 0.10998 0.11835 0.0
C403 C 0.03025 0.07835 0.11833 0.0
C404 C 0.06893 0.08262 0.11803 0.0
H405 H 0.9921 0.84041 0.11841 0.0
H406 H 0.01895 0.90307 0.11754 0.0
C407 C 0.08494 0.11799 0.11815 0.0
C408 C 0.01342 0.04078 0.11835 0.0
H409 H 0.00817 0.96048 0.14345 0.0
C410 C 0.99179 0.02982 0.10306 0.0
C411 C 0.01925 0.01563 0.13316 0.0
C412 C 0.04109 0.02646 0.15025 0.0
C413 C 0.97638 0.99399 0.102 0.0
C414 C 0.9823 0.9688 0.11679 0.0
C415 C 0.00384 0.97983 0.13211 0.0
C416 C 0.966 0.93098 0.11679 0.0
C417 C 0.95464 0.98312 0.08489 0.0
C418 C 0.92738 0.926 0.11682 0.0
C419 C 0.91202 0.89033 0.11731 0.0
C420 C 0.93502 0.859 0.11789 0.0
C421 C 0.9737 0.86403 0.11792 0.0
C422 C 0.98906 0.89976 0.11744 0.0
H423 H 0.96077 0.0018 0.07296 0.0
H424 H 0.96078 0.95412 0.08071 0.0
H425 H 0.92455 0.98495 0.08796 0.0
H426 H 0.90911 0.94975 0.11671 0.0
H427 H 0.8821 0.88734 0.11737 0.0
H428 H 0.16235 0.49273 0.37306 0.0
H429 H 0.10012 0.51983 0.37335 0.0
H430 H 0.05195 0.41111 0.36539 0.0
H431 H 0.11382 0.38381 0.36536 0.0
H432 H 0.04507 0.51732 0.34583 0.0
H433 H 0.99656 0.4499 0.41096 0.0
H434 H 0.04483 0.45149 0.40432 0.0
H435 H 0.01393 0.41815 0.39385 0.0
C436 C 0.13846 0.47463 0.37142 0.0
C437 C 0.1429 0.43614 0.36931 0.0
C438 C 0.10299 0.49013 0.37158 0.0
C439 C 0.07145 0.46738 0.36972 0.0
C440 C 0.07588 0.42904 0.36728 0.0
H441 H 0.83393 0.50708 0.36632 0.0
H442 H 0.89601 0.47969 0.36553 0.0
C443 C 0.11127 0.41354 0.36716 0.0
C444 C 0.03388 0.48376 0.36999 0.0
H445 H 0.95126 0.48175 0.39321 0.0
C446 C 0.02459 0.50972 0.35624 0.0
C447 C 0.00723 0.47364 0.38356 0.0
C448 C 0.01614 0.44702 0.39912 0.0
C449 C 0.9891 0.52542 0.35549 0.0
C450 C 0.96246 0.51531 0.36906 0.0
C451 C 0.97173 0.48933 0.3828 0.0
C452 C 0.925 0.53189 0.36944 0.0
C453 C 0.98018 0.55213 0.33997 0.0
C454 C 0.92081 0.57018 0.37217 0.0
C455 C 0.8855 0.58584 0.37261 0.0
C456 C 0.85371 0.56345 0.37046 0.0
C457 C 0.85793 0.52502 0.36798 0.0
C458 C 0.89332 0.50936 0.36752 0.0
H459 H -0.00022 0.54936 0.32813 0.0
H460 H 0.9515 0.54768 0.33476 0.0
H461 H 0.98234 0.58098 0.34529 0.0
H462 H 0.94487 0.58793 0.37408 0.0
H463 H 0.88313 0.61551 0.37466 0.0
H464 H 0.49123 0.33419 0.61841 0.0
H465 H 0.51835 0.39682 0.61834 0.0
H466 H 0.40871 0.44394 0.6176 0.0
H467 H 0.38145 0.38167 0.61787 0.0
H468 H 0.5085 0.45473 0.59195 0.0
H469 H 0.45892 0.49521 0.66219 0.0
H470 H 0.45944 0.4476 0.65436 0.0
H471 H 0.42328 0.47828 0.64686 0.0
C472 C 0.47294 0.35792 0.61827 0.0
C473 C 0.43424 0.35307 0.61826 0.0
C474 C 0.48845 0.39362 0.61821 0.0
C475 C 0.4655 0.42494 0.61826 0.0
C476 C 0.42688 0.42012 0.61794 0.0
H477 H 0.50461 0.66328 0.61958 0.0
H478 H 0.47699 0.60094 0.61833 0.0
C479 C 0.41137 0.38452 0.61799 0.0
C480 C 0.48186 0.46271 0.61844 0.0
H481 H 0.48628 0.54269 0.64383 0.0
C482 C 0.50383 0.47395 0.60332 0.0
C483 C 0.47552 0.48769 0.63327 0.0
C484 C 0.45328 0.47659 0.65018 0.0
C485 C 0.5192 0.5098 0.60249 0.0
C486 C 0.51292 0.53475 0.61734 0.0
C487 C 0.49091 0.52352 0.63244 0.0
C488 C 0.52961 0.5724 0.61769 0.0
C489 C 0.54141 0.5209 0.58557 0.0
C490 C 0.56827 0.57689 0.61796 0.0
C491 C 0.58406 0.61234 0.61867 0.0
C492 C 0.56144 0.64396 0.61924 0.0
C493 C 0.5227 0.63942 0.61911 0.0
C494 C 0.50692 0.60388 0.6184 0.0
H495 H 0.53529 0.50263 0.57349 0.0
H496 H 0.53573 0.55008 0.58156 0.0
H497 H 0.57142 0.51857 0.58878 0.0
H498 H 0.58625 0.55293 0.61783 0.0
H499 H 0.614 0.61495 0.61886 0.0
H500 H 0.61362 0.87986 0.87285 0.0
H501 H 0.55232 0.90844 0.87269 0.0
H502 H 0.60311 0.01703 0.87523 0.0
H503 H 0.66472 0.98861 0.87516 0.0
H504 H 0.52082 0.95529 0.89942 0.0
H505 H 0.53229 0.02484 0.83063 0.0
H506 H 0.56373 0.98888 0.83796 0.0
H507 H 0.56916 0.03537 0.84664 0.0
C508 C 0.61177 0.90984 0.87332 0.0
C509 C 0.64396 0.93204 0.87393 0.0
C510 C 0.57674 0.9261 0.87325 0.0
C511 C 0.57322 0.96482 0.87369 0.0
C512 C 0.60528 0.9871 0.87452 0.0
H513 H 0.38331 0.11131 0.8739 0.0
H514 H 0.44538 0.08439 0.87488 0.0
C515 C 0.64041 0.97084 0.87458 0.0
C516 C 0.53589 0.98168 0.87361 0.0
H517 H 0.47882 0.03796 0.84851 0.0
C518 C 0.51156 0.97331 0.88828 0.0
C519 C 0.52399 0.00516 0.85905 0.0
C520 C 0.54847 0.01392 0.84258 0.0
C521 C 0.47571 0.98818 0.88891 0.0
C522 C 0.46374 0.01151 0.87431 0.0
C523 C 0.48813 0.02004 0.85968 0.0
C524 C 0.42602 0.02747 0.87394 0.0
C525 C 0.45119 0.97935 0.90536 0.0
C526 C 0.39461 0.00433 0.87291 0.0
C527 C 0.35907 0.01962 0.87237 0.0
C528 C 0.35445 0.05831 0.87275 0.0
C529 C 0.38599 0.08139 0.87364 0.0
C530 C 0.42146 0.06608 0.87418 0.0
H531 H 0.46747 0.96905 0.91741 0.0
H532 H 0.43537 0.00418 0.90978 0.0
H533 H 0.431 0.95738 0.90137 0.0
H534 H 0.39759 0.97446 0.87235 0.0
H535 H 0.33528 0.00118 0.87158 0.0
H536 H 0.88433 0.61925 0.12487 0.0
H537 H 0.91181 0.55744 0.12589 0.0
H538 H 0.02096 0.606 0.12068 0.0
H539 H 0.99366 0.66813 0.11986 0.0
H540 H 0.9559 0.52359 0.09884 0.0
H541 H 0.031 0.53733 0.166 0.0
H542 H 0.9951 0.56909 0.15895 0.0
H543 H 0.04098 0.57327 0.14938 0.0
C544 C 0.91421 0.61681 0.12402 0.0
C545 C 0.93688 0.64853 0.12234 0.0
C546 C 0.92983 0.58148 0.1246 0.0
C547 C 0.96841 0.5772 0.12361 0.0
C548 C 0.99116 0.60878 0.12182 0.0
H549 H 0.11515 0.38861 0.12096 0.0
H550 H 0.08706 0.45017 0.12128 0.0
C551 C 0.97553 0.6442 0.12125 0.0
C552 C 0.98459 0.53954 0.12389 0.0
H553 H 0.04273 0.48312 0.14829 0.0
C554 C 0.97476 0.51463 0.10968 0.0
C555 C 0.00916 0.52803 0.13807 0.0
C556 C 0.0195 0.55316 0.15407 0.0
C557 C 0.98944 0.47868 0.10906 0.0
C558 C 0.01405 0.46717 0.12322 0.0
C559 C 0.02381 0.49205 0.13746 0.0
C560 C 0.03067 0.42968 0.12329 0.0
C561 C 0.9792 0.45367 0.09299 0.0
C562 C 0.00826 0.39776 0.12458 0.0
C563 C 0.02424 0.36248 0.12434 0.0
C564 C 0.0629 0.35863 0.12295 0.0
C565 C 0.08527 0.39068 0.122 0.0
C566 C 0.06929 0.42587 0.1222 0.0
H567 H 0.96768 0.46957 0.08109 0.0
H568 H 0.00365 0.43786 0.08807 0.0
H569 H 0.95776 0.43346 0.09762 0.0
H570 H 0.97844 0.40014 0.12582 0.0
H571 H 0.00635 0.33828 0.12521 0.0
H572 H 0.38164 0.38514 0.3744 0.0
H573 H 0.44358 0.41315 0.37448 0.0
H574 H 0.3955 0.52147 0.36713 0.0
H575 H 0.33327 0.49366 0.36729 0.0
H576 H 0.47733 0.45498 0.34644 0.0
H577 H 0.46479 0.53622 0.41179 0.0
H578 H 0.43266 0.49957 0.40566 0.0
H579 H 0.4288 0.54454 0.39505 0.0
C580 C 0.38422 0.41496 0.37289 0.0
C581 C 0.35261 0.43725 0.37091 0.0
C582 C 0.41962 0.43089 0.37292 0.0
C583 C 0.42408 0.4694 0.37105 0.0
C584 C 0.3926 0.49176 0.36895 0.0
H585 H 0.61518 0.61594 0.36599 0.0
H586 H 0.55305 0.5883 0.36584 0.0
C587 C 0.35711 0.47583 0.36894 0.0
C588 C 0.46181 0.48591 0.37082 0.0
H589 H 0.51887 0.54652 0.39373 0.0
C590 C 0.4865 0.4749 0.3568 0.0
C591 C 0.47361 0.51188 0.38437 0.0
C592 C 0.44875 0.52357 0.40018 0.0
C593 C 0.52257 0.48965 0.35578 0.0
C594 C 0.53439 0.51559 0.36934 0.0
C595 C 0.50969 0.52662 0.38335 0.0
C596 C 0.5722 0.53191 0.36917 0.0
C597 C 0.54742 0.47794 0.33997 0.0
C598 C 0.60355 0.50935 0.37124 0.0
C599 C 0.63912 0.52506 0.37128 0.0
C600 C 0.64387 0.56361 0.36938 0.0
C601 C 0.61241 0.58612 0.36744 0.0
C602 C 0.5769 0.57041 0.36737 0.0
H603 H 0.53134 0.4655 0.32832 0.0
H604 H 0.56368 0.50189 0.33456 0.0
H605 H 0.5672 0.45679 0.34507 0.0
H606 H 0.60047 0.47964 0.37302 0.0
H607 H 0.66285 0.50706 0.37292 0.0
H608 H 0.38248 0.11353 0.62231 0.0
H609 H 0.41021 0.05183 0.62332 0.0
H610 H 0.51947 0.10122 0.62228 0.0
H611 H 0.4919 0.16323 0.62146 0.0
H612 H 0.45834 0.01988 0.59717 0.0
H613 H 0.52369 0.03005 0.66701 0.0
H614 H 0.48844 0.06185 0.65922 0.0
H615 H 0.53544 0.06708 0.6513 0.0
C616 C 0.41242 0.1113 0.62238 0.0
C617 C 0.43505 0.1432 0.62187 0.0
C618 C 0.42819 0.07603 0.62294 0.0
C619 C 0.46685 0.07201 0.62312 0.0
C620 C 0.48956 0.10379 0.6225 0.0
H621 H 0.61394 0.88328 0.62315 0.0
H622 H 0.58611 0.94498 0.6231 0.0
C623 C 0.47379 0.13914 0.62193 0.0
C624 C 0.48323 0.03445 0.62342 0.0
H625 H 0.53795 0.97682 0.64907 0.0
C626 C 0.47563 0.01036 0.60854 0.0
C627 C 0.50576 0.02222 0.63828 0.0
C628 C 0.51364 0.04646 0.65496 0.0
C629 C 0.49052 0.9745 0.60795 0.0
C630 C 0.51304 0.96224 0.62282 0.0
C631 C 0.52063 0.98633 0.6377 0.0
C632 C 0.52951 0.9247 0.62304 0.0
C633 C 0.48275 0.95036 0.59122 0.0
C634 C 0.50685 0.89287 0.62328 0.0
C635 C 0.52267 0.85753 0.62327 0.0
C636 C 0.56141 0.85352 0.62314 0.0
C637 C 0.58399 0.88548 0.6232 0.0
C638 C 0.56817 0.92074 0.62319 0.0
H639 H 0.47291 0.96688 0.57915 0.0
H640 H 0.50792 0.93489 0.587 0.0
H641 H 0.46079 0.92985 0.59478 0.0
H642 H 0.47693 0.89536 0.62353 0.0
H643 H 0.5046 0.83339 0.62333 0.0
H644 H 0.8821 0.87492 0.87401 0.0
H645 H 0.94463 0.90172 0.87392 0.0
H646 H 0.89831 0.01174 0.87223 0.0
H647 H 0.83563 0.98516 0.87258 0.0
H648 H 0.97739 0.94752 0.84727 0.0
H649 H 0.97087 0.01777 0.91592 0.0
H650 H 0.93758 0.98289 0.90884 0.0
H651 H 0.93377 0.02969 0.9004 0.0
C652 C 0.88523 0.90484 0.8737 0.0
C653 C 0.854 0.92798 0.87339 0.0
C654 C 0.92095 0.92008 0.87364 0.0
C655 C 0.92607 0.95869 0.87334 0.0
C656 C 0.89494 0.98188 0.87285 0.0
H657 H 0.115 0.10681 0.86871 0.0
H658 H 0.05341 0.07801 0.86908 0.0
C659 C 0.85918 0.96666 0.87295 0.0
C660 C 0.96403 0.97464 0.87309 0.0
H661 H 0.02302 0.03183 0.89694 0.0
C662 C 0.98749 0.96579 0.85817 0.0
C663 C 0.97706 0.99841 0.88735 0.0
C664 C 0.95367 0.00754 0.90413 0.0
C665 C 0.02343 0.98078 0.85692 0.0
C666 C 0.03634 0.00478 0.87111 0.0
C667 C 0.01296 0.01345 0.88608 0.0
C668 C 0.07381 0.02175 0.87056 0.0
C669 C 0.04696 0.97157 0.8402 0.0
C670 C 0.10567 -0.00039 0.87139 0.0
C671 C 0.14094 0.01599 0.87117 0.0
C672 C 0.14485 0.05478 0.87019 0.0
C673 C 0.11287 0.07684 0.86943 0.0
C674 C 0.07768 0.06046 0.86966 0.0
H675 H 0.03009 0.95998 0.82861 0.0
H676 H 0.062 0.99658 0.83512 0.0
H677 H 0.06784 0.95054 0.8442 0.0
H678 H 0.10323 0.96971 0.87242 0.0
H679 H 0.1651 0.99833 0.87187 0.0
loop_
_geom_bond_atom_site_label_1
_geom_bond_atom_site_label_2
_geom_bond_distance
_geom_bond_site_symmetry_2
_ccdc_geom_bond_type
In0 O1 2.294 . S
In0 O2 2.326 . S
In0 O6 2.266 . S
In0 O7 2.326 . S
In0 O8 2.266 . S
In0 O9 2.326 . S
In0 O11 2.294 . S
In0 O12 2.326 . S
O1 In0 2.294 . S
O1 C10 1.240 . S
O2 In0 2.326 . S
O2 C10 1.252 . S
C3 O6 1.252 . S
C3 O7 1.260 . S
C4 O11 1.240 . S
C4 O12 1.252 . S
C5 O8 1.252 . S
C5 O9 1.260 . S
O6 In0 2.266 . S
O6 C3 1.252 . S
O7 In0 2.326 . S
O7 C3 1.260 . S
O8 In0 2.266 . S
O8 C5 1.252 . S
O9 In0 2.326 . S
O9 C5 1.260 . S
C10 O1 1.240 . S
C10 O2 1.252 . S
O11 In0 2.294 . S
O11 C4 1.240 . S
O12 In0 2.326 . S
O12 C4 1.252 . S
In13 O14 2.294 . S
In13 O15 2.326 . S
In13 O19 2.266 . S
In13 O20 2.326 . S
In13 O21 2.266 . S
In13 O22 2.326 . S
In13 O24 2.294 . S
In13 O25 2.326 . S
O14 In13 2.294 . S
O14 C23 1.240 . S
O15 In13 2.326 . S
O15 C23 1.252 . S
C16 O19 1.252 . S
C16 O20 1.260 . S
C17 O24 1.240 . S
C17 O25 1.252 . S
C18 O21 1.252 . S
C18 O22 1.260 . S
O19 In13 2.266 . S
O19 C16 1.252 . S
O20 In13 2.326 . S
O20 C16 1.260 . S
O21 In13 2.266 . S
O21 C18 1.252 . S
O22 In13 2.326 . S
O22 C18 1.260 . S
C23 O14 1.240 . S
C23 O15 1.252 . S
O24 In13 2.294 . S
O24 C17 1.240 . S
O25 In13 2.326 . S
O25 C17 1.252 . S
In26 O27 2.294 . S
In26 O28 2.326 . S
In26 O32 2.266 . S
In26 O33 2.326 . S
In26 O34 2.266 . S
In26 O35 2.326 . S
In26 O37 2.294 . S
In26 O38 2.326 . S
O27 In26 2.294 . S
O27 C36 1.240 . S
O28 In26 2.326 . S
O28 C36 1.252 . S
C29 O32 1.252 . S
C29 O33 1.260 . S
C30 O37 1.240 . S
C30 O38 1.252 . S
C31 O34 1.252 . S
C31 O35 1.260 . S
O32 In26 2.266 . S
O32 C29 1.252 . S
O33 In26 2.326 . S
O33 C29 1.260 . S
O34 In26 2.266 . S
O34 C31 1.252 . S
O35 In26 2.326 . S
O35 C31 1.260 . S
C36 O27 1.240 . S
C36 O28 1.252 . S
O37 In26 2.294 . S
O37 C30 1.240 . S
O38 In26 2.326 . S
O38 C30 1.252 . S
In39 O40 2.294 . S
In39 O41 2.326 . S
In39 O45 2.266 . S
In39 O46 2.326 . S
In39 O47 2.266 . S
In39 O48 2.326 . S
In39 O50 2.294 . S
In39 O51 2.326 . S
O40 In39 2.294 . S
O40 C49 1.240 . S
O41 In39 2.326 . S
O41 C49 1.252 . S
C42 O45 1.252 . S
C42 O46 1.260 . S
C43 O50 1.240 . S
C43 O51 1.252 . S
C44 O47 1.252 . S
C44 O48 1.260 . S
O45 In39 2.266 . S
O45 C42 1.252 . S
O46 In39 2.326 . S
O46 C42 1.260 . S
O47 In39 2.266 . S
O47 C44 1.252 . S
O48 In39 2.326 . S
O48 C44 1.260 . S
C49 O40 1.240 . S
C49 O41 1.252 . S
O50 In39 2.294 . S
O50 C43 1.240 . S
O51 In39 2.326 . S
O51 C43 1.252 . S
In52 O53 2.294 . S
In52 O54 2.326 . S
In52 O58 2.266 . S
In52 O59 2.326 . S
In52 O60 2.266 . S
In52 O61 2.326 . S
In52 O63 2.294 . S
In52 O64 2.326 . S
O53 In52 2.294 . S
O53 C62 1.240 . S
O54 In52 2.326 . S
O54 C62 1.252 . S
C55 O58 1.252 . S
C55 O59 1.260 . S
C56 O63 1.240 . S
C56 O64 1.252 . S
C57 O60 1.252 . S
C57 O61 1.260 . S
O58 In52 2.266 . S
O58 C55 1.252 . S
O59 In52 2.326 . S
O59 C55 1.260 . S
O60 In52 2.266 . S
O60 C57 1.252 . S
O61 In52 2.326 . S
O61 C57 1.260 . S
C62 O53 1.240 . S
C62 O54 1.252 . S
O63 In52 2.294 . S
O63 C56 1.240 . S
O64 In52 2.326 . S
O64 C56 1.252 . S
In65 O66 2.294 . S
In65 O67 2.326 . S
In65 O71 2.266 . S
In65 O72 2.326 . S
In65 O73 2.266 . S
In65 O74 2.326 . S
In65 O76 2.294 . S
In65 O77 2.326 . S
O66 In65 2.294 . S
O66 C75 1.240 . S
O67 In65 2.326 . S
O67 C75 1.252 . S
C68 O71 1.252 . S
C68 O72 1.260 . S
C69 O76 1.240 . S
C69 O77 1.252 . S
C70 O73 1.252 . S
C70 O74 1.260 . S
O71 In65 2.266 . S
O71 C68 1.252 . S
O72 In65 2.326 . S
O72 C68 1.260 . S
O73 In65 2.266 . S
O73 C70 1.252 . S
O74 In65 2.326 . S
O74 C70 1.260 . S
C75 O66 1.240 . S
C75 O67 1.252 . S
O76 In65 2.294 . S
O76 C69 1.240 . S
O77 In65 2.326 . S
O77 C69 1.252 . S
In78 O79 2.294 . S
In78 O80 2.326 . S
In78 O84 2.266 . S
In78 O85 2.326 . S
In78 O86 2.266 . S
In78 O87 2.326 . S
In78 O89 2.294 . S
In78 O90 2.326 . S
O79 In78 2.294 . S
O79 C88 1.240 . S
O80 In78 2.326 . S
O80 C88 1.252 . S
C81 O84 1.252 . S
C81 O85 1.260 . S
C82 O89 1.240 . S
C82 O90 1.252 . S
C83 O86 1.252 . S
C83 O87 1.260 . S
O84 In78 2.266 . S
O84 C81 1.252 . S
O85 In78 2.326 . S
O85 C81 1.260 . S
O86 In78 2.266 . S
O86 C83 1.252 . S
O87 In78 2.326 . S
O87 C83 1.260 . S
C88 O79 1.240 . S
C88 O80 1.252 . S
O89 In78 2.294 . S
O89 C82 1.240 . S
O90 In78 2.326 . S
O90 C82 1.252 . S
In91 O92 2.294 . S
In91 O93 2.326 . S
In91 O97 2.266 . S
In91 O98 2.326 . S
In91 O99 2.266 . S
In91 O100 2.326 . S
In91 O102 2.294 . S
In91 O103 2.326 . S
O92 In91 2.294 . S
O92 C101 1.240 . S
O93 In91 2.326 . S
O93 C101 1.252 . S
C94 O97 1.252 . S
C94 O98 1.260 . S
C95 O102 1.240 . S
C95 O103 1.252 . S
C96 O99 1.252 . S
C96 O100 1.260 . S
O97 In91 2.266 . S
O97 C94 1.252 . S
O98 In91 2.326 . S
O98 C94 1.260 . S
O99 In91 2.266 . S
O99 C96 1.252 . S
O100 In91 2.326 . S
O100 C96 1.260 . S
C101 O92 1.240 . S
C101 O93 1.252 . S
O102 In91 2.294 . S
O102 C95 1.240 . S
O103 In91 2.326 . S
O103 C95 1.252 . S
H104 C112 0.929 . S
H105 C114 0.930 . S
H106 C116 0.930 . S
H107 C119 0.929 . S
H108 C122 0.930 . S
H109 C124 0.960 . S
H110 C124 0.960 . S
H111 C124 0.960 . S
C112 H104 0.929 . S
C112 C113 1.377 . S
C112 C114 1.384 . S
C113 C112 1.377 . S
C113 C119 1.390 . S
C114 H105 0.930 . S
C114 C112 1.384 . S
C114 C115 1.372 . S
C115 C114 1.372 . S
C115 C116 1.400 . S
C115 C120 1.490 . S
C116 H106 0.930 . S
C116 C115 1.400 . S
C116 C119 1.386 . S
H117 C133 0.930 . S
H118 C134 0.931 . S
C119 H107 0.929 . S
C119 C113 1.390 . S
C119 C116 1.386 . S
C120 C115 1.490 . S
C120 C122 1.395 . S
C120 C123 1.403 . S
H121 C127 0.930 . S
C122 H108 0.930 . S
C122 C120 1.395 . S
C122 C125 1.403 1_554 S
C123 C120 1.403 . S
C123 C124 1.524 . S
C123 C127 1.400 1_554 S
C124 H109 0.960 . S
C124 H110 0.960 . S
C124 H111 0.960 . S
C124 C123 1.524 . S
C125 C122 1.403 1_556 S
C125 C126 1.392 . S
C125 C129 1.495 . S
C126 C125 1.392 . S
C126 C127 1.385 . S
C126 C128 1.478 . S
C127 H121 0.930 . S
C127 C123 1.400 1_556 S
C127 C126 1.385 . S
C128 C126 1.478 . S
C128 C130 1.381 . S
C128 C134 1.383 . S
C129 C125 1.495 . S
C129 H135 0.959 . S
C129 H136 0.961 . S
C129 H137 0.960 . S
C130 C128 1.381 . S
C130 C131 1.394 . S
C130 H138 0.930 . S
C131 C130 1.394 . S
C131 C132 1.383 . S
C131 H139 0.929 . S
C132 C131 1.383 . S
C132 C133 1.377 . S
C133 H117 0.930 . S
C133 C132 1.377 . S
C133 C134 1.379 . S
C134 H118 0.931 . S
C134 C128 1.383 . S
C134 C133 1.379 . S
H135 C129 0.959 . S
H136 C129 0.961 . S
H137 C129 0.960 . S
H138 C130 0.930 . S
H139 C131 0.929 . S
H140 C148 0.929 . S
H141 C150 0.930 . S
H142 C152 0.930 . S
H143 C155 0.929 . S
H144 C158 0.930 . S
H145 C160 0.960 . S
H146 C160 0.960 . S
H147 C160 0.960 . S
C148 H140 0.929 . S
C148 C149 1.377 . S
C148 C150 1.384 . S
C149 C148 1.377 . S
C149 C155 1.390 . S
C150 H141 0.930 . S
C150 C148 1.384 . S
C150 C151 1.372 . S
C151 C150 1.372 . S
C151 C152 1.400 . S
C151 C156 1.490 . S
C152 H142 0.930 . S
C152 C151 1.400 . S
C152 C155 1.386 . S
H153 C169 0.930 . S
H154 C170 0.931 . S
C155 H143 0.929 . S
C155 C149 1.390 . S
C155 C152 1.386 . S
C156 C151 1.490 . S
C156 C158 1.395 . S
C156 C159 1.403 . S
H157 C163 0.930 . S
C158 H144 0.930 . S
C158 C156 1.395 . S
C158 C161 1.403 . S
C159 C156 1.403 . S
C159 C160 1.524 . S
C159 C163 1.400 . S
C160 H145 0.960 . S
C160 H146 0.960 . S
C160 H147 0.960 . S
C160 C159 1.524 . S
C161 C158 1.403 . S
C161 C162 1.392 . S
C161 C165 1.495 . S
C162 C161 1.392 . S
C162 C163 1.385 . S
C162 C164 1.478 . S
C163 H157 0.930 . S
C163 C159 1.400 . S
C163 C162 1.385 . S
C164 C162 1.478 . S
C164 C166 1.381 . S
C164 C170 1.383 . S
C165 C161 1.495 . S
C165 H171 0.959 . S
C165 H172 0.961 . S
C165 H173 0.960 . S
C166 C164 1.381 . S
C166 C167 1.394 . S
C166 H174 0.930 . S
C167 C166 1.394 . S
C167 C168 1.383 . S
C167 H175 0.929 . S
C168 C167 1.383 . S
C168 C169 1.377 . S
C169 H153 0.930 . S
C169 C168 1.377 . S
C169 C170 1.379 . S
C170 H154 0.931 . S
C170 C164 1.383 . S
C170 C169 1.379 . S
H171 C165 0.959 . S
H172 C165 0.961 . S
H173 C165 0.960 . S
H174 C166 0.930 . S
H175 C167 0.929 . S
H176 C184 0.929 . S
H177 C186 0.930 . S
H178 C188 0.930 . S
H179 C191 0.929 . S
H180 C194 0.930 . S
H181 C196 0.960 . S
H182 C196 0.960 . S
H183 C196 0.960 . S
C184 H176 0.929 . S
C184 C185 1.377 . S
C184 C186 1.384 . S
C185 C184 1.377 . S
C185 C191 1.390 . S
C186 H177 0.930 . S
C186 C184 1.384 . S
C186 C187 1.372 . S
C187 C186 1.372 . S
C187 C188 1.400 . S
C187 C192 1.490 . S
C188 H178 0.930 . S
C188 C187 1.400 . S
C188 C191 1.386 . S
H189 C205 0.930 . S
H190 C206 0.931 . S
C191 H179 0.929 . S
C191 C185 1.390 . S
C191 C188 1.386 . S
C192 C187 1.490 . S
C192 C194 1.395 . S
C192 C195 1.403 . S
H193 C199 0.930 . S
C194 H180 0.930 . S
C194 C192 1.395 . S
C194 C197 1.403 . S
C195 C192 1.403 . S
C195 C196 1.524 . S
C195 C199 1.400 . S
C196 H181 0.960 . S
C196 H182 0.960 . S
C196 H183 0.960 . S
C196 C195 1.524 . S
C197 C194 1.403 . S
C197 C198 1.392 . S
C197 C201 1.495 . S
C198 C197 1.392 . S
C198 C199 1.385 . S
C198 C200 1.478 . S
C199 H193 0.930 . S
C199 C195 1.400 . S
C199 C198 1.385 . S
C200 C198 1.478 . S
C200 C202 1.381 . S
C200 C206 1.383 . S
C201 C197 1.495 . S
C201 H207 0.959 . S
C201 H208 0.961 . S
C201 H209 0.960 . S
C202 C200 1.381 . S
C202 C203 1.394 . S
C202 H210 0.930 . S
C203 C202 1.394 . S
C203 C204 1.383 . S
C203 H211 0.929 . S
C204 C203 1.383 . S
C204 C205 1.377 . S
C205 H189 0.930 . S
C205 C204 1.377 . S
C205 C206 1.379 . S
C206 H190 0.931 . S
C206 C200 1.383 . S
C206 C205 1.379 . S
H207 C201 0.959 . S
H208 C201 0.961 . S
H209 C201 0.960 . S
H210 C202 0.930 . S
H211 C203 0.929 . S
H212 C220 0.929 . S
H213 C222 0.930 . S
H214 C224 0.930 . S
H215 C227 0.929 . S
H216 C230 0.930 . S
H217 C232 0.960 . S
H218 C232 0.960 . S
H219 C232 0.960 . S
C220 H212 0.929 . S
C220 C221 1.377 . S
C220 C222 1.384 . S
C221 C220 1.377 . S
C221 C227 1.390 . S
C222 H213 0.930 . S
C222 C220 1.384 . S
C222 C223 1.372 . S
C223 C222 1.372 . S
C223 C224 1.400 . S
C223 C228 1.490 . S
C224 H214 0.930 . S
C224 C223 1.400 . S
C224 C227 1.386 . S
H225 C241 0.930 . S
H226 C242 0.931 . S
C227 H215 0.929 . S
C227 C221 1.390 . S
C227 C224 1.386 . S
C228 C223 1.490 . S
C228 C230 1.395 . S
C228 C231 1.403 . S
H229 C235 0.930 . S
C230 H216 0.930 . S
C230 C228 1.395 . S
C230 C233 1.403 . S
C231 C228 1.403 . S
C231 C232 1.524 . S
C231 C235 1.400 . S
C232 H217 0.960 . S
C232 H218 0.960 . S
C232 H219 0.960 . S
C232 C231 1.524 . S
C233 C230 1.403 . S
C233 C234 1.392 . S
C233 C237 1.495 . S
C234 C233 1.392 . S
C234 C235 1.385 . S
C234 C236 1.478 . S
C235 H229 0.930 . S
C235 C231 1.400 . S
C235 C234 1.385 . S
C236 C234 1.478 . S
C236 C238 1.381 . S
C236 C242 1.383 . S
C237 C233 1.495 . S
C237 H243 0.959 . S
C237 H244 0.961 . S
C237 H245 0.960 . S
C238 C236 1.381 . S
C238 C239 1.394 . S
C238 H246 0.930 . S
C239 C238 1.394 . S
C239 C240 1.383 . S
C239 H247 0.929 . S
C240 C239 1.383 . S
C240 C241 1.377 . S
C241 H225 0.930 . S
C241 C240 1.377 . S
C241 C242 1.379 . S
C242 H226 0.931 . S
C242 C236 1.383 . S
C242 C241 1.379 . S
H243 C237 0.959 . S
H244 C237 0.961 . S
H245 C237 0.960 . S
H246 C238 0.930 . S
H247 C239 0.929 . S
H248 C256 0.929 . S
H249 C258 0.930 . S
H250 C260 0.930 . S
H251 C263 0.929 . S
H252 C266 0.930 . S
H253 C268 0.960 . S
H254 C268 0.960 . S
H255 C268 0.960 . S
C256 H248 0.929 . S
C256 C257 1.377 . S
C256 C258 1.384 . S
C257 C256 1.377 . S
C257 C263 1.390 . S
C258 H249 0.930 . S
C258 C256 1.384 . S
C258 C259 1.372 . S
C259 C258 1.372 . S
C259 C260 1.400 . S
C259 C264 1.490 . S
C260 H250 0.930 . S
C260 C259 1.400 . S
C260 C263 1.386 . S
H261 C277 0.930 . S
H262 C278 0.931 . S
C263 H251 0.929 . S
C263 C257 1.390 . S
C263 C260 1.386 . S
C264 C259 1.490 . S
C264 C266 1.395 . S
C264 C267 1.403 . S
H265 C271 0.930 . S
C266 H252 0.930 . S
C266 C264 1.395 . S
C266 C269 1.403 . S
C267 C264 1.403 . S
C267 C268 1.524 . S
C267 C271 1.400 . S
C268 H253 0.960 . S
C268 H254 0.960 . S
C268 H255 0.960 . S
C268 C267 1.524 . S
C269 C266 1.403 . S
C269 C270 1.392 . S
C269 C273 1.495 . S
C270 C269 1.392 . S
C270 C271 1.385 . S
C270 C272 1.478 . S
C271 H265 0.930 . S
C271 C267 1.400 . S
C271 C270 1.385 . S
C272 C270 1.478 . S
C272 C274 1.381 . S
C272 C278 1.383 . S
C273 C269 1.495 . S
C273 H279 0.959 . S
C273 H280 0.961 . S
C273 H281 0.960 . S
C274 C272 1.381 . S
C274 C275 1.394 . S
C274 H282 0.930 . S
C275 C274 1.394 . S
C275 C276 1.383 . S
C275 H283 0.929 . S
C276 C275 1.383 . S
C276 C277 1.377 . S
C277 H261 0.930 . S
C277 C276 1.377 . S
C277 C278 1.379 . S
C278 H262 0.931 . S
C278 C272 1.383 . S
C278 C277 1.379 . S
H279 C273 0.959 . S
H280 C273 0.961 . S
H281 C273 0.960 . S
H282 C274 0.930 . S
H283 C275 0.929 . S
H284 C292 0.929 . S
H285 C294 0.930 . S
H286 C296 0.930 . S
H287 C299 0.929 . S
H288 C302 0.930 . S
H289 C304 0.960 . S
H290 C304 0.960 . S
H291 C304 0.960 . S
C292 H284 0.929 . S
C292 C293 1.377 . S
C292 C294 1.384 . S
C293 C292 1.377 . S
C293 C299 1.390 . S
C294 H285 0.930 . S
C294 C292 1.384 . S
C294 C295 1.372 . S
C295 C294 1.372 . S
C295 C296 1.400 . S
C295 C300 1.490 . S
C296 H286 0.930 . S
C296 C295 1.400 . S
C296 C299 1.386 . S
H297 C313 0.930 . S
H298 C314 0.931 . S
C299 H287 0.929 . S
C299 C293 1.390 . S
C299 C296 1.386 . S
C300 C295 1.490 . S
C300 C302 1.395 . S
C300 C303 1.403 . S
H301 C307 0.930 . S
C302 H288 0.930 . S
C302 C300 1.395 . S
C302 C305 1.403 . S
C303 C300 1.403 . S
C303 C304 1.524 . S
C303 C307 1.400 . S
C304 H289 0.960 . S
C304 H290 0.960 . S
C304 H291 0.960 . S
C304 C303 1.524 . S
C305 C302 1.403 . S
C305 C306 1.392 . S
C305 C309 1.495 . S
C306 C305 1.392 . S
C306 C307 1.385 . S
C306 C308 1.478 . S
C307 H301 0.930 . S
C307 C303 1.400 . S
C307 C306 1.385 . S
C308 C306 1.478 . S
C308 C310 1.381 . S
C308 C314 1.383 . S
C309 C305 1.495 . S
C309 H315 0.959 . S
C309 H316 0.961 . S
C309 H317 0.960 . S
C310 C308 1.381 . S
C310 C311 1.394 . S
C310 H318 0.930 . S
C311 C310 1.394 . S
C311 C312 1.383 . S
C311 H319 0.929 . S
C312 C311 1.383 . S
C312 C313 1.377 . S
C313 H297 0.930 . S
C313 C312 1.377 . S
C313 C314 1.379 . S
C314 H298 0.931 . S
C314 C308 1.383 . S
C314 C313 1.379 . S
H315 C309 0.959 . S
H316 C309 0.961 . S
H317 C309 0.960 . S
H318 C310 0.930 . S
H319 C311 0.929 . S
H320 C328 0.929 . S
H321 C330 0.930 . S
H322 C332 0.930 . S
H323 C335 0.929 . S
H324 C338 0.930 . S
H325 C340 0.960 . S
H326 C340 0.960 . S
H327 C340 0.960 . S
C328 H320 0.929 . S
C328 C329 1.377 . S
C328 C330 1.384 . S
C329 C328 1.377 . S
C329 C335 1.390 . S
C330 H321 0.930 . S
C330 C328 1.384 . S
C330 C331 1.372 . S
C331 C330 1.372 . S
C331 C332 1.400 . S
C331 C336 1.490 . S
C332 H322 0.930 . S
C332 C331 1.400 . S
C332 C335 1.386 . S
H333 C349 0.930 . S
H334 C350 0.931 . S
C335 H323 0.929 . S
C335 C329 1.390 . S
C335 C332 1.386 . S
C336 C331 1.490 . S
C336 C338 1.395 . S
C336 C339 1.403 . S
H337 C343 0.930 . S
C338 H324 0.930 . S
C338 C336 1.395 . S
C338 C341 1.403 . S
C339 C336 1.403 . S
C339 C340 1.524 . S
C339 C343 1.400 . S
C340 H325 0.960 . S
C340 H326 0.960 . S
C340 H327 0.960 . S
C340 C339 1.524 . S
C341 C338 1.403 . S
C341 C342 1.392 . S
C341 C345 1.495 . S
C342 C341 1.392 . S
C342 C343 1.385 . S
C342 C344 1.478 . S
C343 H337 0.930 . S
C343 C339 1.400 . S
C343 C342 1.385 . S
C344 C342 1.478 . S
C344 C346 1.381 . S
C344 C350 1.383 . S
C345 C341 1.495 . S
C345 H351 0.959 . S
C345 H352 0.961 . S
C345 H353 0.960 . S
C346 C344 1.381 . S
C346 C347 1.394 . S
C346 H354 0.930 . S
C347 C346 1.394 . S
C347 C348 1.383 . S
C347 H355 0.929 . S
C348 C347 1.383 . S
C348 C349 1.377 . S
C349 H333 0.930 . S
C349 C348 1.377 . S
C349 C350 1.379 . S
C350 H334 0.931 . S
C350 C344 1.383 . S
C350 C349 1.379 . S
H351 C345 0.959 . S
H352 C345 0.961 . S
H353 C345 0.960 . S
H354 C346 0.930 . S
H355 C347 0.929 . S
H356 C364 0.929 . S
H357 C366 0.930 . S
H358 C368 0.930 . S
H359 C371 0.929 . S
H360 C374 0.930 . S
H361 C376 0.960 1_556 S
H362 C376 0.960 . S
H363 C376 0.960 . S
C364 H356 0.929 . S
C364 C365 1.377 . S
C364 C366 1.384 . S
C365 C364 1.377 . S
C365 C371 1.390 . S
C366 H357 0.930 . S
C366 C364 1.384 . S
C366 C367 1.372 . S
C367 C366 1.372 . S
C367 C368 1.400 . S
C367 C372 1.490 . S
C368 H358 0.930 . S
C368 C367 1.400 . S
C368 C371 1.386 . S
H369 C385 0.930 . S
H370 C386 0.931 . S
C371 H359 0.929 . S
C371 C365 1.390 . S
C371 C368 1.386 . S
C372 C367 1.490 . S
C372 C374 1.395 . S
C372 C375 1.403 . S
H373 C379 0.930 . S
C374 H360 0.930 . S
C374 C372 1.395 . S
C374 C377 1.403 1_554 S
C375 C372 1.403 . S
C375 C376 1.524 . S
C375 C379 1.400 1_554 S
C376 H361 0.960 1_554 S
C376 H362 0.960 . S
C376 H363 0.960 . S
C376 C375 1.524 . S
C377 C374 1.403 1_556 S
C377 C378 1.392 . S
C377 C381 1.495 . S
C378 C377 1.392 . S
C378 C379 1.385 . S
C378 C380 1.478 . S
C379 H373 0.930 . S
C379 C375 1.400 1_556 S
C379 C378 1.385 . S
C380 C378 1.478 . S
C380 C382 1.381 . S
C380 C386 1.383 . S
C381 C377 1.495 . S
C381 H387 0.959 1_556 S
C381 H388 0.961 . S
C381 H389 0.960 . S
C382 C380 1.381 . S
C382 C383 1.394 . S
C382 H390 0.930 . S
C383 C382 1.394 . S
C383 C384 1.383 . S
C383 H391 0.929 . S
C384 C383 1.383 . S
C384 C385 1.377 . S
C385 H369 0.930 . S
C385 C384 1.377 . S
C385 C386 1.379 . S
C386 H370 0.931 . S
C386 C380 1.383 . S
C386 C385 1.379 . S
H387 C381 0.959 1_554 S
H388 C381 0.961 . S
H389 C381 0.960 . S
H390 C382 0.930 . S
H391 C383 0.929 . S
H392 C400 0.929 . S
H393 C402 0.930 1_655 S
H394 C404 0.930 . S
H395 C407 0.929 . S
H396 C410 0.930 . S
H397 C412 0.968 . S
H398 C412 0.970 . S
H399 C412 0.944 1_455 S
C400 H392 0.929 . S
C400 C401 1.377 . S
C400 C402 1.384 . S
C401 C400 1.377 . S
C401 C407 1.390 . S
C402 H393 0.930 1_455 S
C402 C400 1.384 . S
C402 C403 1.372 . S
C403 C402 1.372 . S
C403 C404 1.400 . S
C403 C408 1.490 . S
C404 H394 0.930 . S
C404 C403 1.400 . S
C404 C407 1.386 . S
H405 C421 0.930 . S
H406 C422 0.931 1_455 S
C407 H395 0.929 . S
C407 C401 1.390 . S
C407 C404 1.386 . S
C408 C403 1.490 . S
C408 C410 1.395 . S
C408 C411 1.406 . S
H409 C415 0.930 . S
C410 H396 0.930 . S
C410 C408 1.395 . S
C410 C413 1.403 1_445 S
C411 C408 1.406 . S
C411 C412 1.523 1_455 S
C411 C415 1.397 1_445 S
C412 H397 0.968 . S
C412 H398 0.970 . S
C412 H399 0.944 1_655 S
C412 C411 1.523 1_655 S
C413 C410 1.403 1_665 S
C413 C414 1.392 . S
C413 C417 1.495 . S
C414 C413 1.392 . S
C414 C415 1.385 . S
C414 C416 1.478 . S
C415 H409 0.930 . S
C415 C411 1.397 1_665 S
C415 C414 1.385 . S
C416 C414 1.478 . S
C416 C418 1.381 . S
C416 C422 1.383 . S
C417 C413 1.495 . S
C417 H423 0.959 1_655 S
C417 H424 0.961 1_655 S
C417 H425 0.960 . S
C418 C416 1.381 . S
C418 C419 1.394 . S
C418 H426 0.930 . S
C419 C418 1.394 . S
C419 C420 1.383 . S
C419 H427 0.929 . S
C420 C419 1.383 . S
C420 C421 1.377 . S
C421 H405 0.930 . S
C421 C420 1.377 . S
C421 C422 1.379 . S
C422 H406 0.931 1_655 S
C422 C416 1.383 . S
C422 C421 1.379 . S
H423 C417 0.959 1_455 S
H424 C417 0.961 1_455 S
H425 C417 0.960 . S
H426 C418 0.930 . S
H427 C419 0.929 . S
H428 C436 0.929 . S
H429 C438 0.930 . S
H430 C440 0.930 . S
H431 C443 0.929 . S
H432 C446 0.930 . S
H433 C448 0.960 1_655 S
H434 C448 0.960 . S
H435 C448 0.960 . S
C436 H428 0.929 . S
C436 C437 1.377 . S
C436 C438 1.384 . S
C437 C436 1.377 . S
C437 C443 1.390 . S
C438 H429 0.930 . S
C438 C436 1.384 . S
C438 C439 1.372 . S
C439 C438 1.372 . S
C439 C440 1.400 . S
C439 C444 1.490 . S
C440 H430 0.930 . S
C440 C439 1.400 . S
C440 C443 1.386 . S
H441 C457 0.930 . S
H442 C458 0.931 . S
C443 H431 0.929 . S
C443 C437 1.390 . S
C443 C440 1.386 . S
C444 C439 1.490 . S
C444 C446 1.395 . S
C444 C447 1.403 . S
H445 C451 0.930 . S
C446 H432 0.930 . S
C446 C444 1.395 . S
C446 C449 1.407 . S
C447 C444 1.403 . S
C447 C448 1.524 . S
C447 C451 1.400 1_455 S
C448 H433 0.960 1_455 S
C448 H434 0.960 . S
C448 H435 0.960 . S
C448 C447 1.524 . S
C449 C446 1.407 . S
C449 C450 1.389 1_455 S
C449 C453 1.495 . S
C450 C449 1.389 1_655 S
C450 C451 1.385 . S
C450 C452 1.478 . S
C451 H445 0.930 . S
C451 C447 1.400 1_655 S
C451 C450 1.385 . S
C452 C450 1.478 . S
C452 C454 1.381 . S
C452 C458 1.383 . S
C453 C449 1.495 . S
C453 H459 0.975 . S
C453 H460 0.955 1_455 S
C453 H461 0.950 1_455 S
C454 C452 1.381 . S
C454 C455 1.394 . S
C454 H462 0.930 . S
C455 C454 1.394 . S
C455 C456 1.383 . S
C455 H463 0.929 . S
C456 C455 1.383 . S
C456 C457 1.377 . S
C457 H441 0.930 . S
C457 C456 1.377 . S
C457 C458 1.379 . S
C458 H442 0.931 . S
C458 C452 1.383 . S
C458 C457 1.379 . S
H459 C453 0.975 . S
H460 C453 0.955 1_655 S
H461 C453 0.950 1_655 S
H462 C454 0.930 . S
H463 C455 0.929 . S
H464 C472 0.929 . S
H465 C474 0.930 . S
H466 C476 0.930 . S
H467 C479 0.929 . S
H468 C482 0.930 . S
H469 C484 0.960 . S
H470 C484 0.960 . S
H471 C484 0.960 . S
C472 H464 0.929 . S
C472 C473 1.377 . S
C472 C474 1.384 . S
C473 C472 1.377 . S
C473 C479 1.390 . S
C474 H465 0.930 . S
C474 C472 1.384 . S
C474 C475 1.372 . S
C475 C474 1.372 . S
C475 C476 1.400 . S
C475 C480 1.490 . S
C476 H466 0.930 . S
C476 C475 1.400 . S
C476 C479 1.386 . S
H477 C493 0.930 . S
H478 C494 0.931 . S
C479 H467 0.929 . S
C479 C473 1.390 . S
C479 C476 1.386 . S
C480 C475 1.490 . S
C480 C482 1.395 . S
C480 C483 1.403 . S
H481 C487 0.930 . S
C482 H468 0.930 . S
C482 C480 1.395 . S
C482 C485 1.403 . S
C483 C480 1.403 . S
C483 C484 1.524 . S
C483 C487 1.400 . S
C484 H469 0.960 . S
C484 H470 0.960 . S
C484 H471 0.960 . S
C484 C483 1.524 . S
C485 C482 1.403 . S
C485 C486 1.392 . S
C485 C489 1.495 . S
C486 C485 1.392 . S
C486 C487 1.385 . S
C486 C488 1.478 . S
C487 H481 0.930 . S
C487 C483 1.400 . S
C487 C486 1.385 . S
C488 C486 1.478 . S
C488 C490 1.381 . S
C488 C494 1.383 . S
C489 C485 1.495 . S
C489 H495 0.959 . S
C489 H496 0.961 . S
C489 H497 0.960 . S
C490 C488 1.381 . S
C490 C491 1.394 . S
C490 H498 0.930 . S
C491 C490 1.394 . S
C491 C492 1.383 . S
C491 H499 0.929 . S
C492 C491 1.383 . S
C492 C493 1.377 . S
C493 H477 0.930 . S
C493 C492 1.377 . S
C493 C494 1.379 . S
C494 H478 0.931 . S
C494 C488 1.383 . S
C494 C493 1.379 . S
H495 C489 0.959 . S
H496 C489 0.961 . S
H497 C489 0.960 . S
H498 C490 0.930 . S
H499 C491 0.929 . S
H500 C508 0.929 . S
H501 C510 0.930 . S
H502 C512 0.930 1_545 S
H503 C515 0.929 . S
H504 C518 0.930 . S
H505 C520 0.956 1_545 S
H506 C520 0.967 . S
H507 C520 0.957 1_545 S
C508 H500 0.929 . S
C508 C509 1.377 . S
C508 C510 1.384 . S
C509 C508 1.377 . S
C509 C515 1.390 . S
C510 H501 0.930 . S
C510 C508 1.384 . S
C510 C511 1.372 . S
C511 C510 1.372 . S
C511 C512 1.400 . S
C511 C516 1.490 . S
C512 H502 0.930 1_565 S
C512 C511 1.400 . S
C512 C515 1.386 . S
H513 C529 0.930 . S
H514 C530 0.931 . S
C515 H503 0.929 . S
C515 C509 1.390 . S
C515 C512 1.386 . S
C516 C511 1.490 . S
C516 C518 1.395 . S
C516 C519 1.403 . S
H517 C523 0.930 . S
C518 H504 0.930 . S
C518 C516 1.395 . S
C518 C521 1.403 . S
C519 C516 1.403 . S
C519 C520 1.524 . S
C519 C523 1.400 1_565 S
C520 H505 0.956 1_565 S
C520 H506 0.967 . S
C520 H507 0.957 1_565 S
C520 C519 1.524 . S
C521 C518 1.403 . S
C521 C522 1.392 1_565 S
C521 C525 1.495 . S
C522 C521 1.392 1_545 S
C522 C523 1.385 . S
C522 C524 1.478 . S
C523 H517 0.930 . S
C523 C519 1.400 1_545 S
C523 C522 1.385 . S
C524 C522 1.478 . S
C524 C526 1.381 . S
C524 C530 1.383 . S
C525 C521 1.495 . S
C525 H531 0.959 . S
C525 H532 0.961 1_565 S
C525 H533 0.960 . S
C526 C524 1.381 . S
C526 C527 1.394 . S
C526 H534 0.930 1_545 S
C527 C526 1.394 . S
C527 C528 1.383 . S
C527 H535 0.929 . S
C528 C527 1.383 . S
C528 C529 1.377 . S
C529 H513 0.930 . S
C529 C528 1.377 . S
C529 C530 1.379 . S
C530 H514 0.931 . S
C530 C524 1.383 . S
C530 C529 1.379 . S
H531 C525 0.959 . S
H532 C525 0.961 1_545 S
H533 C525 0.960 . S
H534 C526 0.930 1_565 S
H535 C527 0.929 . S
H536 C544 0.929 . S
H537 C546 0.930 . S
H538 C548 0.930 1_455 S
H539 C551 0.929 . S
H540 C554 0.930 . S
H541 C556 0.960 . S
H542 C556 0.960 . S
H543 C556 0.960 . S
C544 H536 0.929 . S
C544 C545 1.377 . S
C544 C546 1.384 . S
C545 C544 1.377 . S
C545 C551 1.390 . S
C546 H537 0.930 . S
C546 C544 1.384 . S
C546 C547 1.372 . S
C547 C546 1.372 . S
C547 C548 1.400 . S
C547 C552 1.490 . S
C548 H538 0.930 1_655 S
C548 C547 1.400 . S
C548 C551 1.386 . S
H549 C565 0.930 . S
H550 C566 0.931 . S
C551 H539 0.929 . S
C551 C545 1.390 . S
C551 C548 1.386 . S
C552 C547 1.490 . S
C552 C554 1.395 . S
C552 C555 1.403 1_655 S
H553 C559 0.930 . S
C554 H540 0.930 . S
C554 C552 1.395 . S
C554 C557 1.403 . S
C555 C552 1.403 1_455 S
C555 C556 1.524 . S
C555 C559 1.400 . S
C556 H541 0.960 . S
C556 H542 0.960 . S
C556 H543 0.960 . S
C556 C555 1.524 . S
C557 C554 1.403 . S
C557 C558 1.392 1_655 S
C557 C561 1.495 . S
C558 C557 1.392 1_455 S
C558 C559 1.385 . S
C558 C560 1.478 . S
C559 H553 0.930 . S
C559 C555 1.400 . S
C559 C558 1.385 . S
C560 C558 1.478 . S
C560 C562 1.381 . S
C560 C566 1.383 . S
C561 C557 1.495 . S
C561 H567 0.959 . S
C561 H568 0.961 . S
C561 H569 0.960 . S
C562 C560 1.381 . S
C562 C563 1.394 . S
C562 H570 0.930 1_455 S
C563 C562 1.394 . S
C563 C564 1.383 . S
C563 H571 0.929 . S
C564 C563 1.383 . S
C564 C565 1.377 . S
C565 H549 0.930 . S
C565 C564 1.377 . S
C565 C566 1.379 . S
C566 H550 0.931 . S
C566 C560 1.383 . S
C566 C565 1.379 . S
H567 C561 0.959 . S
H568 C561 0.961 . S
H569 C561 0.960 . S
H570 C562 0.930 1_655 S
H571 C563 0.929 . S
H572 C580 0.929 . S
H573 C582 0.930 . S
H574 C584 0.930 . S
H575 C587 0.929 . S
H576 C590 0.930 . S
H577 C592 0.960 . S
H578 C592 0.960 . S
H579 C592 0.960 . S
C580 H572 0.929 . S
C580 C581 1.377 . S
C580 C582 1.384 . S
C581 C580 1.377 . S
C581 C587 1.390 . S
C582 H573 0.930 . S
C582 C580 1.384 . S
C582 C583 1.372 . S
C583 C582 1.372 . S
C583 C584 1.400 . S
C583 C588 1.490 . S
C584 H574 0.930 . S
C584 C583 1.400 . S
C584 C587 1.386 . S
H585 C601 0.930 . S
H586 C602 0.931 . S
C587 H575 0.929 . S
C587 C581 1.390 . S
C587 C584 1.386 . S
C588 C583 1.490 . S
C588 C590 1.395 . S
C588 C591 1.403 . S
H589 C595 0.930 . S
C590 H576 0.930 . S
C590 C588 1.395 . S
C590 C593 1.403 . S
C591 C588 1.403 . S
C591 C592 1.524 . S
C591 C595 1.400 . S
C592 H577 0.960 . S
C592 H578 0.960 . S
C592 H579 0.960 . S
C592 C591 1.524 . S
C593 C590 1.403 . S
C593 C594 1.392 . S
C593 C597 1.495 . S
C594 C593 1.392 . S
C594 C595 1.385 . S
C594 C596 1.478 . S
C595 H589 0.930 . S
C595 C591 1.400 . S
C595 C594 1.385 . S
C596 C594 1.478 . S
C596 C598 1.381 . S
C596 C602 1.383 . S
C597 C593 1.495 . S
C597 H603 0.959 . S
C597 H604 0.961 . S
C597 H605 0.960 . S
C598 C596 1.381 . S
C598 C599 1.394 . S
C598 H606 0.930 . S
C599 C598 1.394 . S
C599 C600 1.383 . S
C599 H607 0.929 . S
C600 C599 1.383 . S
C600 C601 1.377 . S
C601 H585 0.930 . S
C601 C600 1.377 . S
C601 C602 1.379 . S
C602 H586 0.931 . S
C602 C596 1.383 . S
C602 C601 1.379 . S
H603 C597 0.959 . S
H604 C597 0.961 . S
H605 C597 0.960 . S
H606 C598 0.930 . S
H607 C599 0.929 . S
H608 C616 0.929 . S
H609 C618 0.930 . S
H610 C620 0.930 . S
H611 C623 0.929 . S
H612 C626 0.930 . S
H613 C628 0.960 . S
H614 C628 0.960 . S
H615 C628 0.960 . S
C616 H608 0.929 . S
C616 C617 1.377 . S
C616 C618 1.384 . S
C617 C616 1.377 . S
C617 C623 1.390 . S
C618 H609 0.930 . S
C618 C616 1.384 . S
C618 C619 1.372 . S
C619 C618 1.372 . S
C619 C620 1.400 . S
C619 C624 1.490 . S
C620 H610 0.930 . S
C620 C619 1.400 . S
C620 C623 1.386 . S
H621 C637 0.930 . S
H622 C638 0.931 . S
C623 H611 0.929 . S
C623 C617 1.390 . S
C623 C620 1.386 . S
C624 C619 1.490 . S
C624 C626 1.395 . S
C624 C627 1.403 . S
H625 C631 0.930 . S
C626 H612 0.930 . S
C626 C624 1.395 . S
C626 C629 1.403 1_545 S
C627 C624 1.403 . S
C627 C628 1.524 . S
C627 C631 1.400 1_545 S
C628 H613 0.960 . S
C628 H614 0.960 . S
C628 H615 0.960 . S
C628 C627 1.524 . S
C629 C626 1.403 1_565 S
C629 C630 1.392 . S
C629 C633 1.495 . S
C630 C629 1.392 . S
C630 C631 1.385 . S
C630 C632 1.478 . S
C631 H625 0.930 . S
C631 C627 1.400 1_565 S
C631 C630 1.385 . S
C632 C630 1.478 . S
C632 C634 1.381 . S
C632 C638 1.383 . S
C633 C629 1.495 . S
C633 H639 0.959 . S
C633 H640 0.961 . S
C633 H641 0.960 . S
C634 C632 1.381 . S
C634 C635 1.394 . S
C634 H642 0.930 . S
C635 C634 1.394 . S
C635 C636 1.383 . S
C635 H643 0.929 . S
C636 C635 1.383 . S
C636 C637 1.377 . S
C637 H621 0.930 . S
C637 C636 1.377 . S
C637 C638 1.379 . S
C638 H622 0.931 . S
C638 C632 1.383 . S
C638 C637 1.379 . S
H639 C633 0.959 . S
H640 C633 0.961 . S
H641 C633 0.960 . S
H642 C634 0.930 . S
H643 C635 0.929 . S
H644 C652 0.929 . S
H645 C654 0.930 . S
H646 C656 0.931 . S
H647 C659 0.929 . S
H648 C662 0.930 . S
H649 C664 0.960 . S
H650 C664 0.960 . S
H651 C664 0.960 . S
C652 H644 0.929 . S
C652 C653 1.377 . S
C652 C654 1.384 . S
C653 C652 1.377 . S
C653 C659 1.390 . S
C654 H645 0.930 . S
C654 C652 1.384 . S
C654 C655 1.372 . S
C655 C654 1.372 . S
C655 C656 1.400 . S
C655 C660 1.490 . S
C656 H646 0.931 . S
C656 C655 1.400 . S
C656 C659 1.386 . S
H657 C673 0.930 . S
H658 C674 0.931 . S
C659 H647 0.929 . S
C659 C653 1.390 . S
C659 C656 1.386 . S
C660 C655 1.490 . S
C660 C662 1.395 . S
C660 C663 1.403 1_565 S
H661 C667 0.930 . S
C662 H648 0.930 . S
C662 C660 1.395 . S
C662 C665 1.403 1_655 S
C663 C660 1.403 1_545 S
C663 C664 1.524 . S
C663 C667 1.400 1_655 S
C664 H649 0.960 . S
C664 H650 0.960 . S
C664 H651 0.960 . S
C664 C663 1.524 . S
C665 C662 1.403 1_455 S
C665 C666 1.392 1_565 S
C665 C669 1.495 . S
C666 C665 1.392 1_545 S
C666 C667 1.385 . S
C666 C668 1.478 . S
C667 H661 0.930 . S
C667 C663 1.400 1_455 S
C667 C666 1.385 . S
C668 C666 1.478 . S
C668 C670 1.381 . S
C668 C674 1.383 . S
C669 C665 1.495 . S
C669 H675 0.959 . S
C669 H676 0.961 . S
C669 H677 0.960 . S
C670 C668 1.381 . S
C670 C671 1.394 . S
C670 H678 0.930 1_545 S
C671 C670 1.394 . S
C671 C672 1.383 . S
C671 H679 0.929 . S
C672 C671 1.383 . S
C672 C673 1.377 . S
C673 H657 0.930 . S
C673 C672 1.377 . S
C673 C674 1.379 . S
C674 H658 0.931 . S
C674 C668 1.383 . S
C674 C673 1.379 . S
H675 C669 0.959 . S
H676 C669 0.961 . S
H677 C669 0.960 . S
H678 C670 0.930 1_565 S
H679 C671 0.929 . S
C113 C5 1.271 . S
C132 C68 1.261 . S
C149 C23 1.273 . S
C168 C88 1.279 . S
C185 C31 1.271 . S
C204 C94 1.258 . S
C221 C49 1.276 . S
C240 C56 1.261 . S
C257 C101 1.272 . S
C276 C4 1.280 . S
C293 C57 1.271 . S
C312 C16 1.260 . S
C329 C30 1.276 . S
C348 C75 1.261 . S
C365 C81 1.270 . S
C384 C42 1.259 . S
C401 C3 1.540 . S
C420 C83 1.534 . S
C437 C95 1.535 . S
C456 C17 1.533 . S
C473 C29 1.540 . S
C492 C55 1.536 . S
C509 C43 1.534 . S
C528 C69 1.534 . S
C545 C82 1.533 . S
C564 C10 1.531 . S
C581 C96 1.539 . S
C600 C18 1.537 . S
C617 C36 1.534 . S
C636 C62 1.535 . S
C653 C44 1.539 . S
C672 C70 1.536 . S
