# Generated by pormake.
# Topology wiu, (6)-cn, num edge types: 1
# Building blocks:
#     Node 0, Type 0, BuildingBlock: IZENUY_clean_sbu_0, # of connection points: 6
#     Node 1, Type 0, BuildingBlock: IZENUY_clean_sbu_0, # of connection points: 6
#     Node 2, Type 0, BuildingBlock: IZENUY_clean_sbu_0, # of connection points: 6
#     Node 3, Type 0, BuildingBlock: IZENUY_clean_sbu_0, # of connection points: 6
#     Node 4, Type 0, BuildingBlock: IZENUY_clean_sbu_0, # of connection points: 6
#     Node 5, Type 0, BuildingBlock: IZENUY_clean_sbu_0, # of connection points: 6
#     Node 6, Type 0, BuildingBlock: IZENUY_clean_sbu_0, # of connection points: 6
#     Node 7, Type 0, BuildingBlock: IZENUY_clean_sbu_0, # of connection points: 6
#     Node 8, Type 0, BuildingBlock: IZENUY_clean_sbu_0, # of connection points: 6
#     Node 9, Type 0, BuildingBlock: IZENUY_clean_sbu_0, # of connection points: 6
#     Node 10, Type 0, BuildingBlock: IZENUY_clean_sbu_0, # of connection points: 6
#     Node 11, Type 0, BuildingBlock: IZENUY_clean_sbu_0, # of connection points: 6
#     Node 12, Type 0, BuildingBlock: IZENUY_clean_sbu_0, # of connection points: 6
#     Node 13, Type 0, BuildingBlock: IZENUY_clean_sbu_0, # of connection points: 6
#     Node 14, Type 0, BuildingBlock: IZENUY_clean_sbu_0, # of connection points: 6
#     Node 15, Type 0, BuildingBlock: IZENUY_clean_sbu_0, # of connection points: 6
#     Edge 16, Type (0, 0), BuildingBlock: UVAHIK_clean_linker_0, # of connection points: 2
#     Edge 17, Type (0, 0), BuildingBlock: UVAHIK_clean_linker_0, # of connection points: 2
#     Edge 18, Type (0, 0), BuildingBlock: UVAHIK_clean_linker_0, # of connection points: 2
#     Edge 19, Type (0, 0), BuildingBlock: UVAHIK_clean_linker_0, # of connection points: 2
#     Edge 20, Type (0, 0), BuildingBlock: UVAHIK_clean_linker_0, # of connection points: 2
#     Edge 21, Type (0, 0), BuildingBlock: UVAHIK_clean_linker_0, # of connection points: 2
#     Edge 22, Type (0, 0), BuildingBlock: UVAHIK_clean_linker_0, # of connection points: 2
#     Edge 23, Type (0, 0), BuildingBlock: UVAHIK_clean_linker_0, # of connection points: 2
#     Edge 24, Type (0, 0), BuildingBlock: UVAHIK_clean_linker_0, # of connection points: 2
#     Edge 25, Type (0, 0), BuildingBlock: UVAHIK_clean_linker_0, # of connection points: 2
#     Edge 26, Type (0, 0), BuildingBlock: UVAHIK_clean_linker_0, # of connection points: 2
#     Edge 27, Type (0, 0), BuildingBlock: UVAHIK_clean_linker_0, # of connection points: 2
#     Edge 28, Type (0, 0), BuildingBlock: UVAHIK_clean_linker_0, # of connection points: 2
#     Edge 29, Type (0, 0), BuildingBlock: UVAHIK_clean_linker_0, # of connection points: 2
#     Edge 30, Type (0, 0), BuildingBlock: UVAHIK_clean_linker_0, # of connection points: 2
#     Edge 31, Type (0, 0), BuildingBlock: UVAHIK_clean_linker_0, # of connection points: 2
#     Edge 32, Type (0, 0), BuildingBlock: UVAHIK_clean_linker_0, # of connection points: 2
#     Edge 33, Type (0, 0), BuildingBlock: UVAHIK_clean_linker_0, # of connection points: 2
#     Edge 34, Type (0, 0), BuildingBlock: UVAHIK_clean_linker_0, # of connection points: 2
#     Edge 35, Type (0, 0), BuildingBlock: UVAHIK_clean_linker_0, # of connection points: 2
#     Edge 36, Type (0, 0), BuildingBlock: UVAHIK_clean_linker_0, # of connection points: 2
#     Edge 37, Type (0, 0), BuildingBlock: UVAHIK_clean_linker_0, # of connection points: 2
#     Edge 38, Type (0, 0), BuildingBlock: UVAHIK_clean_linker_0, # of connection points: 2
#     Edge 39, Type (0, 0), BuildingBlock: UVAHIK_clean_linker_0, # of connection points: 2
#     Edge 40, Type (0, 0), BuildingBlock: UVAHIK_clean_linker_0, # of connection points: 2
#     Edge 41, Type (0, 0), BuildingBlock: UVAHIK_clean_linker_0, # of connection points: 2
#     Edge 42, Type (0, 0), BuildingBlock: UVAHIK_clean_linker_0, # of connection points: 2
#     Edge 43, Type (0, 0), BuildingBlock: UVAHIK_clean_linker_0, # of connection points: 2
#     Edge 44, Type (0, 0), BuildingBlock: UVAHIK_clean_linker_0, # of connection points: 2
#     Edge 45, Type (0, 0), BuildingBlock: UVAHIK_clean_linker_0, # of connection points: 2
#     Edge 46, Type (0, 0), BuildingBlock: UVAHIK_clean_linker_0, # of connection points: 2
#     Edge 47, Type (0, 0), BuildingBlock: UVAHIK_clean_linker_0, # of connection points: 2
#     Edge 48, Type (0, 0), BuildingBlock: UVAHIK_clean_linker_0, # of connection points: 2
#     Edge 49, Type (0, 0), BuildingBlock: UVAHIK_clean_linker_0, # of connection points: 2
#     Edge 50, Type (0, 0), BuildingBlock: UVAHIK_clean_linker_0, # of connection points: 2
#     Edge 51, Type (0, 0), BuildingBlock: UVAHIK_clean_linker_0, # of connection points: 2
#     Edge 52, Type (0, 0), BuildingBlock: UVAHIK_clean_linker_0, # of connection points: 2
#     Edge 53, Type (0, 0), BuildingBlock: UVAHIK_clean_linker_0, # of connection points: 2
#     Edge 54, Type (0, 0), BuildingBlock: UVAHIK_clean_linker_0, # of connection points: 2
#     Edge 55, Type (0, 0), BuildingBlock: UVAHIK_clean_linker_0, # of connection points: 2
#     Edge 56, Type (0, 0), BuildingBlock: UVAHIK_clean_linker_0, # of connection points: 2
#     Edge 57, Type (0, 0), BuildingBlock: UVAHIK_clean_linker_0, # of connection points: 2
#     Edge 58, Type (0, 0), BuildingBlock: UVAHIK_clean_linker_0, # of connection points: 2
#     Edge 59, Type (0, 0), BuildingBlock: UVAHIK_clean_linker_0, # of connection points: 2
#     Edge 60, Type (0, 0), BuildingBlock: UVAHIK_clean_linker_0, # of connection points: 2
#     Edge 61, Type (0, 0), BuildingBlock: UVAHIK_clean_linker_0, # of connection points: 2
#     Edge 62, Type (0, 0), BuildingBlock: UVAHIK_clean_linker_0, # of connection points: 2
#     Edge 63, Type (0, 0), BuildingBlock: UVAHIK_clean_linker_0, # of connection points: 2
# Relax obj value: 0.193
# Max RMSD: 0.208
# Mean RMSD: 0.207
data_MOF--net-wiu--node1-IZENUY_clean_sbu_0--edge1-UVAHIK_clean_linker_0
_symmetry_space_group_name_H-M    P1
_symmetry_Int_Tables_number       1
_symmetry_cell_setting            triclinic
loop_
_symmetry_equiv_pos_as_xyz
'x, y, z'
_cell_length_a     40.292659
_cell_length_b     40.303356
_cell_length_c     67.703369
_cell_angle_alpha  90.045262
_cell_angle_beta   89.984137
_cell_angle_gamma 90.008728
loop_
_atom_site_label
_atom_site_type_symbol
_atom_site_fract_x
_atom_site_fract_y
_atom_site_fract_z
_atom_type_partial_charge
Fe0 Fe 0.32793 0.10089 0.06012 0.0
Fe1 Fe 0.36724 0.16541 0.06483 0.0
O2 O 0.34268 0.13359 0.07535 0.0
Fe3 Fe 0.33294 0.13417 0.10089 0.0
O4 O 0.33409 0.0889 0.1034 0.0
O5 O 0.35084 0.07053 0.07435 0.0
O6 O 0.36346 0.10146 0.04299 0.0
C7 C 0.39313 0.11088 0.04565 0.0
C8 C 0.27378 0.11122 0.0867 0.0
O9 O 0.39898 0.13548 0.05681 0.0
C10 C 0.32692 0.20193 0.08961 0.0
O11 O 0.30459 0.12985 0.04497 0.0
O12 O 0.34652 0.16405 0.04094 0.0
O13 O 0.28855 0.13394 0.09603 0.0
O14 O 0.28958 0.09346 0.07441 0.0
C15 C 0.39747 0.15519 0.10194 0.0
O16 O 0.33737 0.19733 0.07216 0.0
O17 O 0.33021 0.17958 0.10263 0.0
C18 C 0.31783 0.15417 0.03621 0.0
O19 O 0.39205 0.17269 0.08686 0.0
O20 O 0.37652 0.1344 0.10806 0.0
C21 C 0.34791 0.06706 0.09274 0.0
Fe22 Fe 0.7013 0.5775 0.30862 0.0
Fe23 Fe 0.65438 0.57648 0.34433 0.0
O24 O 0.66245 0.58753 0.31951 0.0
Fe25 Fe 0.63186 0.60945 0.30616 0.0
O26 O 0.62993 0.57757 0.28764 0.0
O27 O 0.68382 0.57095 0.28385 0.0
O28 O 0.69581 0.53318 0.31339 0.0
C29 C 0.69134 0.52128 0.33045 0.0
C30 C 0.69238 0.64037 0.29335 0.0
O31 O 0.68107 0.53966 0.34431 0.0
C32 C 0.62479 0.63943 0.34179 0.0
O33 O 0.72508 0.58361 0.33156 0.0
O34 O 0.68762 0.60297 0.35231 0.0
O35 O 0.66154 0.63453 0.29132 0.0
O36 O 0.71042 0.6207 0.30307 0.0
C37 C 0.5947 0.56115 0.32841 0.0
O38 O 0.6262 0.61106 0.34958 0.0
O39 O 0.63206 0.64319 0.32387 0.0
C40 C 0.71702 0.60184 0.34604 0.0
O41 O 0.62009 0.55006 0.33716 0.0
O42 O 0.59641 0.58807 0.31851 0.0
C43 C 0.65434 0.56846 0.27739 0.0
Fe44 Fe 0.21945 0.90838 0.59924 0.0
Fe45 Fe 0.22481 0.95348 0.56283 0.0
O46 O 0.21157 0.91583 0.57392 0.0
Fe47 Fe 0.18953 0.88571 0.5602 0.0
O48 O 0.15411 0.88894 0.57644 0.0
O49 O 0.18267 0.88232 0.60352 0.0
O50 O 0.19422 0.94343 0.60583 0.0
C51 C 0.19793 0.97257 0.59944 0.0
C52 C 0.2335 0.8474 0.58457 0.0
O53 O 0.21715 0.97874 0.58505 0.0
C54 C 0.23597 0.90413 0.53324 0.0
O55 O 0.25768 0.93309 0.60036 0.0
O56 O 0.26816 0.94625 0.56961 0.0
O57 O 0.20745 0.84987 0.57395 0.0
O58 O 0.24477 0.87249 0.59354 0.0
C59 C 0.16313 0.94674 0.54525 0.0
O60 O 0.23384 0.93417 0.53879 0.0
O61 O 0.22316 0.88095 0.54306 0.0
C62 C 0.27795 0.9422 0.58717 0.0
O63 O 0.18284 0.9644 0.55522 0.0
O64 O 0.16782 0.91565 0.54385 0.0
C65 C 0.1552 0.88229 0.59455 0.0
Fe66 Fe 0.85251 0.46884 0.80836 0.0
Fe67 Fe 0.92006 0.43457 0.81256 0.0
O68 O 0.88764 0.45859 0.82297 0.0
Fe69 Fe 0.88974 0.47199 0.84789 0.0
O70 O 0.84496 0.4679 0.85214 0.0
O71 O 0.82541 0.44589 0.82467 0.0
O72 O 0.85405 0.43132 0.79287 0.0
C73 C 0.86598 0.40283 0.79625 0.0
C74 C 0.86093 0.52702 0.83208 0.0
O75 O 0.89151 0.39998 0.80708 0.0
C76 C 0.95615 0.48029 0.83406 0.0
O77 O 0.87812 0.49169 0.791 0.0
O78 O 0.91502 0.45179 0.78785 0.0
O79 O 0.88581 0.5153 0.84091 0.0
O80 O 0.8434 0.50844 0.82113 0.0
C81 C 0.91617 0.40993 0.85165 0.0
O82 O 0.95093 0.4669 0.81739 0.0
O83 O 0.93485 0.47837 0.8478 0.0
C84 C 0.90147 0.47804 0.78149 0.0
O85 O 0.93105 0.41367 0.83542 0.0
O86 O 0.89393 0.4298 0.85718 0.0
C87 C 0.82336 0.45105 0.84296 0.0
Fe88 Fe 0.71966 0.94273 0.92584 0.0
Fe89 Fe 0.68151 0.87736 0.92171 0.0
O90 O 0.70585 0.90917 0.91094 0.0
Fe91 Fe 0.71625 0.90769 0.88552 0.0
O92 O 0.7138 0.9527 0.88225 0.0
O93 O 0.69673 0.97228 0.91099 0.0
O94 O 0.68367 0.94215 0.9426 0.0
C95 C 0.6542 0.93222 0.93977 0.0
C96 C 0.77446 0.93286 0.89969 0.0
O97 O 0.64898 0.90718 0.92883 0.0
C98 C 0.72374 0.84065 0.89811 0.0
O99 O 0.74305 0.9147 0.94161 0.0
O100 O 0.70132 0.88033 0.94578 0.0
O101 O 0.7604 0.90942 0.89065 0.0
O102 O 0.75825 0.95044 0.91185 0.0
C103 C 0.65287 0.884 0.88376 0.0
O104 O 0.71212 0.84556 0.91527 0.0
O105 O 0.72059 0.86236 0.88468 0.0
C106 C 0.72983 0.89058 0.9506 0.0
O107 O 0.65787 0.86819 0.89953 0.0
O108 O 0.67293 0.9058 0.87788 0.0
C109 C 0.69982 0.97492 0.89254 0.0
Fe110 Fe 0.41293 0.43645 0.67251 0.0
Fe111 Fe 0.38911 0.46735 0.63404 0.0
O112 O 0.38265 0.45926 0.65944 0.0
Fe113 Fe 0.34577 0.47294 0.67125 0.0
O114 O 0.3345 0.43114 0.6788 0.0
O115 O 0.38339 0.41529 0.68944 0.0
O116 O 0.40794 0.40131 0.65623 0.0
C117 C 0.41367 0.40246 0.63801 0.0
C118 C 0.397 0.48324 0.69976 0.0
O119 O 0.41425 0.43006 0.62918 0.0
C120 C 0.35671 0.52619 0.64705 0.0
O121 O 0.44848 0.45374 0.65816 0.0
O122 O 0.42569 0.49187 0.63927 0.0
O123 O 0.36655 0.48147 0.69495 0.0
O124 O 0.41933 0.46982 0.68954 0.0
C125 C 0.32464 0.44666 0.63497 0.0
O126 O 0.36509 0.50614 0.63354 0.0
O127 O 0.35336 0.51611 0.66458 0.0
C128 C 0.45097 0.47999 0.64774 0.0
O129 O 0.35336 0.44286 0.62796 0.0
O130 O 0.31928 0.46595 0.64943 0.0
C131 C 0.35217 0.41115 0.68851 0.0
Fe132 Fe 0.83501 0.14355 0.38296 0.0
Fe133 Fe 0.83135 0.10023 0.42004 0.0
O134 O 0.84377 0.1377 0.40834 0.0
Fe135 Fe 0.86567 0.16903 0.42128 0.0
O136 O 0.90042 0.16752 0.40417 0.0
O137 O 0.8698 0.17139 0.37778 0.0
O138 O 0.86192 0.10929 0.37692 0.0
C139 C 0.85917 0.08051 0.38406 0.0
C140 C 0.81874 0.20443 0.397 0.0
O141 O 0.83934 0.07443 0.39814 0.0
C142 C 0.82073 0.14994 0.44938 0.0
O143 O 0.79803 0.11702 0.38237 0.0
O144 O 0.78763 0.10629 0.41337 0.0
O145 O 0.84494 0.20349 0.40764 0.0
O146 O 0.80832 0.17855 0.38838 0.0
C147 C 0.89389 0.10882 0.43665 0.0
O148 O 0.82231 0.11995 0.44383 0.0
O149 O 0.83332 0.17307 0.43942 0.0
C150 C 0.77776 0.10871 0.39571 0.0
O151 O 0.87353 0.09041 0.42765 0.0
O152 O 0.88965 0.14009 0.43717 0.0
C153 C 0.8975 0.17454 0.38617 0.0
Fe154 Fe 0.1966 0.57127 0.17465 0.0
Fe155 Fe 0.13041 0.6098 0.17374 0.0
O156 O 0.16098 0.58556 0.16178 0.0
Fe157 Fe 0.15626 0.57667 0.13631 0.0
O158 O 0.19298 0.60043 0.1309 0.0
O159 O 0.22474 0.57687 0.15345 0.0
O160 O 0.20855 0.61304 0.18203 0.0
C161 C 0.19084 0.63452 0.19055 0.0
C162 C 0.18675 0.51774 0.15056 0.0
O163 O 0.15944 0.6315 0.19076 0.0
C164 C 0.0932 0.56555 0.14873 0.0
O165 O 0.17408 0.56419 0.19792 0.0
O166 O 0.1221 0.57775 0.19148 0.0
O167 O 0.17979 0.53775 0.13681 0.0
O168 O 0.18833 0.52798 0.16818 0.0
C169 C 0.133 0.64189 0.13855 0.0
O170 O 0.09547 0.59217 0.15892 0.0
O171 O 0.11882 0.55294 0.14093 0.0
C172 C 0.14342 0.564 0.20231 0.0
O173 O 0.13714 0.64393 0.15689 0.0
O174 O 0.13206 0.61389 0.13028 0.0
C175 C 0.22098 0.59603 0.13877 0.0
Fe176 Fe 0.83119 0.63638 0.59685 0.0
Fe177 Fe 0.82527 0.59295 0.55975 0.0
O178 O 0.8388 0.63001 0.57139 0.0
Fe179 Fe 0.8609 0.66051 0.55807 0.0
O180 O 0.89649 0.65634 0.5741 0.0
O181 O 0.86822 0.66195 0.60141 0.0
O182 O 0.85629 0.60093 0.60272 0.0
C183 C 0.85249 0.57215 0.59579 0.0
C184 C 0.81753 0.69813 0.58328 0.0
O185 O 0.83275 0.56667 0.58157 0.0
C186 C 0.81421 0.64361 0.53101 0.0
O187 O 0.79273 0.61186 0.59763 0.0
O188 O 0.78212 0.60034 0.56664 0.0
O189 O 0.8434 0.69588 0.57247 0.0
O190 O 0.80614 0.67273 0.59187 0.0
C191 C 0.8867 0.59987 0.54212 0.0
O192 O 0.81639 0.61331 0.53599 0.0
O193 O 0.82705 0.66626 0.54125 0.0
C194 C 0.7724 0.60346 0.58428 0.0
O195 O 0.8671 0.58205 0.55202 0.0
O196 O 0.88216 0.63104 0.54111 0.0
C197 C 0.89561 0.66218 0.59233 0.0
Fe198 Fe 0.14447 0.08586 0.85118 0.0
Fe199 Fe 0.12451 0.11611 0.81173 0.0
O200 O 0.15483 0.0968 0.82666 0.0
Fe201 Fe 0.19551 0.08895 0.81771 0.0
O202 O 0.19218 0.04448 0.8229 0.0
O203 O 0.174 0.05137 0.85304 0.0
O204 O 0.11365 0.05657 0.84274 0.0
C205 C 0.08857 0.06541 0.83283 0.0
C206 C 0.2044 0.11608 0.85534 0.0
O207 O 0.08934 0.09214 0.82268 0.0
C208 C 0.18458 0.15043 0.80096 0.0
O209 O 0.1129 0.118 0.85469 0.0
O210 O 0.11959 0.15019 0.82908 0.0
O211 O 0.21563 0.09775 0.84163 0.0
O212 O 0.17426 0.11522 0.86024 0.0
C213 C 0.15363 0.07603 0.7845 0.0
O214 O 0.15427 0.14301 0.79803 0.0
O215 O 0.20254 0.13233 0.81178 0.0
C216 C 0.10999 0.146 0.84659 0.0
O217 O 0.12739 0.08389 0.79344 0.0
O218 O 0.18193 0.08027 0.79232 0.0
C219 C 0.18667 0.03296 0.83994 0.0
Fe220 Fe 0.71664 0.40304 0.09396 0.0
Fe221 Fe 0.71921 0.45106 0.0589 0.0
O222 O 0.70822 0.41187 0.06887 0.0
Fe223 Fe 0.68813 0.38172 0.05413 0.0
O224 O 0.65254 0.38057 0.07041 0.0
O225 O 0.68125 0.37473 0.09756 0.0
O226 O 0.68959 0.43623 0.10151 0.0
C227 C 0.69192 0.46594 0.09588 0.0
C228 C 0.7338 0.3439 0.07781 0.0
O229 O 0.71124 0.47392 0.0819 0.0
C230 C 0.73218 0.40567 0.02742 0.0
O231 O 0.75383 0.42956 0.09553 0.0
O232 O 0.763 0.44527 0.065 0.0
O233 O 0.70829 0.34592 0.06672 0.0
O234 O 0.74367 0.36892 0.08741 0.0
C235 C 0.65789 0.4427 0.04154 0.0
O236 O 0.72802 0.43479 0.0341 0.0
O237 O 0.72213 0.38079 0.03688 0.0
C238 C 0.77341 0.44049 0.08239 0.0
O239 O 0.67656 0.46029 0.05221 0.0
O240 O 0.66435 0.41208 0.0389 0.0
C241 C 0.65418 0.37197 0.08824 0.0
Fe242 Fe 0.39933 0.97233 0.34286 0.0
Fe243 Fe 0.35003 0.97084 0.30827 0.0
O244 O 0.38969 0.96135 0.31821 0.0
Fe245 Fe 0.41965 0.93985 0.30403 0.0
O246 O 0.42041 0.90581 0.32148 0.0
O247 O 0.42779 0.93763 0.34729 0.0
O248 O 0.36677 0.94576 0.35164 0.0
C249 C 0.33696 0.94647 0.34612 0.0
C250 C 0.45817 0.98767 0.32606 0.0
O251 O 0.32772 0.96421 0.3317 0.0
C252 C 0.39506 0.98139 0.27613 0.0
O253 O 0.37257 1.00912 0.34356 0.0
O254 O 0.35497 1.01517 0.31312 0.0
O255 O 0.45584 0.961 0.31593 0.0
O256 O 0.43304 0.99891 0.335 0.0
C257 C 0.35874 0.90835 0.29235 0.0
O258 O 0.36603 0.97797 0.28319 0.0
O259 O 0.42028 0.97222 0.28569 0.0
C260 C 0.36057 0.02715 0.33006 0.0
O261 O 0.3412 0.92755 0.30273 0.0
O262 O 0.3893 0.9148 0.28954 0.0
C263 C 0.42788 0.90929 0.33939 0.0
Fe264 Fe 0.21891 0.40808 0.38099 0.0
Fe265 Fe 0.21864 0.447 0.42006 0.0
O266 O 0.20755 0.41116 0.40625 0.0
Fe267 Fe 0.18465 0.37901 0.41775 0.0
O268 O 0.16218 0.36678 0.39566 0.0
O269 O 0.17601 0.40312 0.37294 0.0
O270 O 0.21426 0.45261 0.37617 0.0
C271 C 0.19765 0.47422 0.38545 0.0
C272 C 0.22908 0.34254 0.39559 0.0
O273 O 0.19423 0.47306 0.4039 0.0
C274 C 0.23016 0.39925 0.44739 0.0
O275 O 0.26264 0.41254 0.38669 0.0
O276 O 0.2574 0.45556 0.40622 0.0
O277 O 0.21695 0.34829 0.41253 0.0
O278 O 0.22563 0.3631 0.38158 0.0
C279 C 0.15356 0.43358 0.43398 0.0
O280 O 0.24287 0.42244 0.43732 0.0
O281 O 0.20359 0.3853 0.44188 0.0
C282 C 0.27515 0.43746 0.3951 0.0
O283 O 0.18216 0.44598 0.43643 0.0
O284 O 0.15023 0.40744 0.42372 0.0
C285 C 0.15693 0.38082 0.37933 0.0
Fe286 Fe 0.84543 0.9698 0.16754 0.0
Fe287 Fe 0.91548 0.94097 0.17307 0.0
O288 O 0.88532 0.96006 0.15803 0.0
Fe289 Fe 0.89496 0.96857 0.13306 0.0
O290 O 0.86311 0.94038 0.12527 0.0
O291 O 0.82357 0.96054 0.14427 0.0
O292 O 0.83733 0.92699 0.17441 0.0
C293 C 0.8552 0.90925 0.18546 0.0
C294 C 0.8555 1.02402 0.144 0.0
O295 O 0.88546 0.91688 0.18832 0.0
C296 C 0.95298 0.98744 0.14986 0.0
O297 O 0.86083 0.97956 0.19246 0.0
O298 O 0.91513 0.97539 0.18992 0.0
O299 O 0.86734 1.00468 0.13104 0.0
O300 O 0.8501 1.01361 0.1613 0.0
C301 C 0.92553 0.90669 0.13911 0.0
O302 O 0.95122 0.9616 0.16068 0.0
O303 O 0.92805 0.99673 0.13998 0.0
C304 C 0.88977 0.98495 0.19915 0.0
O305 O 0.91737 0.90522 0.15702 0.0
O306 O 0.92421 0.93398 0.12997 0.0
C307 C 0.83329 0.94108 0.13076 0.0
Fe308 Fe 0.32927 0.60338 0.9195 0.0
Fe309 Fe 0.35732 0.67387 0.9258 0.0
O310 O 0.3372 0.64417 0.91074 0.0
Fe311 Fe 0.32583 0.65517 0.88637 0.0
O312 O 0.35414 0.62471 0.87682 0.0
O313 O 0.33688 0.58346 0.89549 0.0
O314 O 0.37281 0.59591 0.92486 0.0
C315 C 0.3912 0.61333 0.93579 0.0
C316 C 0.27263 0.61318 0.89798 0.0
O317 O 0.3838 0.64348 0.93929 0.0
C318 C 0.3077 0.71172 0.90489 0.0
O319 O 0.32142 0.61676 0.94499 0.0
O320 O 0.32508 0.6713 0.94418 0.0
O321 O 0.29031 0.6267 0.8848 0.0
O322 O 0.28478 0.60697 0.91478 0.0
C323 C 0.38706 0.68821 0.89086 0.0
O324 O 0.33429 0.70976 0.91509 0.0
O325 O 0.29763 0.68692 0.89513 0.0
C326 C 0.31676 0.64495 0.95288 0.0
O327 O 0.39129 0.67836 0.90833 0.0
O328 O 0.35896 0.68574 0.88277 0.0
C329 C 0.35483 0.59456 0.88164 0.0
Fe330 Fe 0.70794 0.07286 0.67354 0.0
Fe331 Fe 0.63833 0.10219 0.67986 0.0
O332 O 0.66805 0.08321 0.66438 0.0
Fe333 Fe 0.65802 0.07545 0.63939 0.0
O334 O 0.69034 0.10313 0.63158 0.0
O335 O 0.7297 0.08183 0.65016 0.0
O336 O 0.71654 0.11561 0.68043 0.0
C337 C 0.69917 0.13309 0.69193 0.0
C338 C 0.69685 1.01907 0.64981 0.0
O339 O 0.66902 0.1254 0.69521 0.0
C340 C 0.59962 0.05745 0.65597 0.0
O341 O 0.69286 0.06314 0.69856 0.0
O342 O 0.63856 0.06721 0.69639 0.0
O343 O 0.6849 0.03869 0.63703 0.0
O344 O 0.70258 0.02921 0.66716 0.0
C345 C 0.62848 0.13775 0.64632 0.0
O346 O 0.60202 0.0826 0.66735 0.0
O347 O 0.62449 0.04781 0.64616 0.0
C348 C 0.66408 0.05789 0.70557 0.0
O349 O 0.63664 0.13847 0.66425 0.0
O350 O 0.6295 0.11079 0.63676 0.0
C351 C 0.72033 0.10136 0.63661 0.0
C352 C 0.45746 0.15067 0.10836 0.0
C353 C 0.42662 0.1639 0.11371 0.0
C354 C 0.48658 0.16811 0.11262 0.0
C355 C 0.52924 0.22622 0.10182 0.0
H356 H 0.5489 0.28875 0.14381 0.0
C357 C 0.59814 0.34578 0.08543 0.0
C358 C 0.62692 0.35171 0.09661 0.0
C359 C 0.57516 0.322 0.09146 0.0
C360 C 0.5438 0.27122 0.13206 0.0
H361 H 0.40165 0.20376 0.12908 0.0
H362 H 0.45232 0.23435 0.13653 0.0
H363 H 0.50904 0.24362 0.14964 0.0
H364 H 0.65268 0.33918 0.12378 0.0
H365 H 0.61208 0.29764 0.13436 0.0
H366 H 0.56292 0.25418 0.08404 0.0
C367 C 0.45442 0.21038 0.1294 0.0
C368 C 0.52107 0.24546 0.13537 0.0
C369 C 0.42536 0.19282 0.12521 0.0
C370 C 0.63087 0.33508 0.11475 0.0
C371 C 0.60766 0.31132 0.12085 0.0
C372 C 0.55154 0.25198 0.09849 0.0
C373 C 0.48507 0.1993 0.12197 0.0
C374 C 0.51314 0.22301 0.12014 0.0
C375 C 0.58028 0.30375 0.10886 0.0
C376 C 0.55847 0.27518 0.11338 0.0
H377 H 0.45884 0.12868 0.09916 0.0
H378 H 0.50992 0.15869 0.107 0.0
H379 H 0.52334 0.20985 0.08962 0.0
H380 H 0.59405 0.3584 0.07152 0.0
H381 H 0.55386 0.31705 0.08215 0.0
C382 C 0.61411 0.69957 0.34736 0.0
C383 C 0.60759 0.66637 0.35221 0.0
C384 C 0.59423 0.72482 0.35502 0.0
C385 C 0.51135 0.73933 0.36084 0.0
H386 H 0.53313 0.82026 0.38893 0.0
C387 C 0.42726 0.85154 0.35198 0.0
C388 C 0.44385 0.88176 0.34963 0.0
C389 C 0.44384 0.82434 0.36004 0.0
C390 C 0.52663 0.79792 0.38093 0.0
H391 H 0.57652 0.63347 0.36961 0.0
H392 H 0.54076 0.67775 0.38222 0.0
H393 H 0.57227 0.77392 0.389 0.0
H394 H 0.48982 0.90831 0.35424 0.0
H395 H 0.51974 0.86052 0.36678 0.0
H396 H 0.46785 0.76367 0.35076 0.0
C397 C 0.56176 0.68412 0.37297 0.0
C398 C 0.5489 0.77135 0.38124 0.0
C399 C 0.58213 0.65893 0.36571 0.0
C400 C 0.47669 0.88503 0.35604 0.0
C401 C 0.49364 0.85761 0.36346 0.0
C402 C 0.48959 0.7661 0.36002 0.0
C403 C 0.56724 0.71706 0.36727 0.0
C404 C 0.54167 0.7423 0.37075 0.0
C405 C 0.47772 0.82659 0.3651 0.0
C406 C 0.49745 0.79624 0.36948 0.0
H407 H 0.63372 0.70585 0.33707 0.0
H408 H 0.59847 0.75014 0.35026 0.0
H409 H 0.50561 0.71714 0.35245 0.0
H410 H 0.40166 0.84889 0.34732 0.0
H411 H 0.43033 0.80128 0.36164 0.0
C412 C 0.12954 0.84277 0.61854 0.0
C413 C 0.12588 0.86673 0.60361 0.0
C414 C 0.10296 0.82207 0.62348 0.0
C415 C 0.03702 0.78397 0.6319 0.0
H416 H 1.00654 0.74918 0.58163 0.0
C417 C 0.92183 0.69999 0.6171 0.0
C418 C 0.92515 0.677 0.60159 0.0
C419 C 0.94863 0.72012 0.62244 0.0
C420 C 1.01503 0.75835 0.5958 0.0
H421 H 0.09081 0.89096 0.5841 0.0
H422 H 0.0444 0.85514 0.5929 0.0
H423 H 0.04543 0.79494 0.58214 0.0
H424 H 0.95984 0.65379 0.58138 0.0
H425 H 1.00664 0.6886 0.59088 0.0
H426 H 1.00601 0.74692 0.64542 0.0
C427 C 0.0679 0.85179 0.60042 0.0
C428 C 0.03687 0.78494 0.5961 0.0
C429 C 0.09442 0.87223 0.59538 0.0
C430 C 0.95649 0.6718 0.5931 0.0
C431 C 0.98323 0.69166 0.59855 0.0
C432 C 1.01462 0.75735 0.6316 0.0
C433 C 0.0725 0.82534 0.61362 0.0
C434 C 0.048 0.79813 0.61409 0.0
C435 C 0.97898 0.71726 0.61241 0.0
C436 C 1.00371 0.74422 0.61349 0.0
H437 H 0.15354 0.83814 0.6252 0.0
H438 H 0.10707 0.80182 0.63371 0.0
H439 H 0.04551 0.79366 0.64595 0.0
H440 H 0.89794 0.70435 0.62397 0.0
H441 H 0.94476 0.7397 0.63317 0.0
C442 C 0.06476 0.16244 0.86974 0.0
C443 C 0.08992 0.1717 0.85642 0.0
C444 C 0.0439 0.18637 0.87799 0.0
C445 C 0.03507 0.273 0.89072 0.0
H446 H 0.94569 0.26874 0.86968 0.0
C447 C 0.96474 0.38658 0.86844 0.0
C448 C 0.93037 0.38584 0.86544 0.0
C449 C 0.98093 0.35956 0.87674 0.0
C450 C 0.97004 0.27001 0.87639 0.0
H451 H 0.11404 0.21312 0.84197 0.0
H452 H 0.07799 0.25524 0.85693 0.0
H453 H 0.98261 0.22146 0.86587 0.0
H454 H 0.88519 0.35811 0.87037 0.0
H455 H 0.91353 0.31035 0.88533 0.0
H456 H 1.02296 0.32167 0.90098 0.0
C457 C 0.07438 0.2294 0.86077 0.0
C458 C 0.99128 0.24294 0.87401 0.0
C459 C 0.09475 0.2054 0.85212 0.0
C460 C 0.9118 0.35905 0.87262 0.0
C461 C 0.9281 0.33171 0.88098 0.0
C462 C 1.0136 0.29979 0.89355 0.0
C463 C 0.04847 0.21996 0.87348 0.0
C464 C 0.02439 0.24499 0.88025 0.0
C465 C 0.96307 0.331 0.88217 0.0
C466 C 0.9815 0.29944 0.88529 0.0
H467 H 0.06038 0.13657 0.87322 0.0
H468 H 1.02388 0.17865 0.88764 0.0
H469 H 0.06046 0.2748 0.89587 0.0
H470 H 0.97946 0.40718 0.86302 0.0
H471 H 1.00778 0.36011 0.87713 0.0
C472 C 0.59943 0.8891 0.86526 0.0
C473 C 0.62752 0.87063 0.87046 0.0
C474 C 0.57136 0.87289 0.8577 0.0
C475 C 0.53939 0.78772 0.84408 0.0
H476 H 0.46334 0.8159 0.8749 0.0
C477 C 0.44651 0.70359 0.88538 0.0
C478 C 0.41276 0.70856 0.88123 0.0
C479 C 0.47044 0.72448 0.8771 0.0
C480 C 0.4842 0.80803 0.86594 0.0
H481 H 0.65014 0.82197 0.87023 0.0
H482 H 0.60182 0.79373 0.85759 0.0
H483 H 0.51012 0.85338 0.87083 0.0
H484 H 0.3775 0.73892 0.86507 0.0
H485 H 0.41944 0.77624 0.85131 0.0
H486 H 0.51434 0.74097 0.84108 0.0
C487 C 0.60076 0.82048 0.85885 0.0
C488 C 0.51096 0.8296 0.8634 0.0
C489 C 0.62856 0.83661 0.86628 0.0
C490 C 0.4034 0.73438 0.86841 0.0
C491 C 0.42725 0.75572 0.86054 0.0
C492 C 0.51296 0.76586 0.84707 0.0
C493 C 0.57116 0.83805 0.85544 0.0
C494 C 0.53958 0.81919 0.85319 0.0
C495 C 0.46087 0.75103 0.86494 0.0
C496 C 0.48575 0.77555 0.85858 0.0
H497 H 0.59823 0.91542 0.86846 0.0
H498 H 0.54921 0.88731 0.85484 0.0
H499 H 0.56056 0.77915 0.83564 0.0
H500 H 0.45431 0.68382 0.89518 0.0
H501 H 0.49633 0.72075 0.88082 0.0
C502 C 0.59119 0.1638 0.62109 0.0
C503 C 0.61163 0.16692 0.63784 0.0
C504 C 0.57046 0.18994 0.61544 0.0
C505 C 0.52456 0.25322 0.64048 0.0
H506 H 0.50393 0.29104 0.58926 0.0
C507 C 0.45441 0.37534 0.61543 0.0
C508 C 0.42765 0.3727 0.62864 0.0
C509 C 0.4736 0.3474 0.61099 0.0
C510 C 0.5094 0.28043 0.60358 0.0
H511 H 0.62926 0.20093 0.66038 0.0
H512 H 0.59312 0.24637 0.6505 0.0
H513 H 0.5489 0.24988 0.59228 0.0
H514 H 0.397 0.33866 0.64536 0.0
H515 H 0.42992 0.28979 0.63721 0.0
H516 H 0.48589 0.28348 0.65202 0.0
C517 C 0.59267 0.22357 0.64201 0.0
C518 C 0.535 0.25704 0.6053 0.0
C519 C 0.61326 0.19755 0.64768 0.0
C520 C 0.4179 0.34131 0.6354 0.0
C521 C 0.43672 0.31343 0.63076 0.0
C522 C 0.49898 0.27606 0.63876 0.0
C523 C 0.57004 0.21944 0.62644 0.0
C524 C 0.54304 0.24374 0.62387 0.0
C525 C 0.46594 0.31662 0.61959 0.0
C526 C 0.49119 0.29006 0.62035 0.0
H527 H 0.58963 0.14053 0.61312 0.0
H528 H 0.55317 0.18624 0.60338 0.0
H529 H 0.52992 0.24291 0.65491 0.0
H530 H 0.46235 0.39935 0.61002 0.0
H531 H 0.49601 0.35052 0.60234 0.0
C532 C 0.10426 0.38119 0.35975 0.0
C533 C 0.13289 0.36476 0.36621 0.0
C534 C 0.07749 0.36279 0.35226 0.0
C535 C 0.05084 0.2749 0.34084 0.0
H536 H 0.97079 0.30208 0.36819 0.0
C537 C 0.95708 0.19076 0.38185 0.0
C538 C 0.9237 0.1939 0.37624 0.0
C539 C 0.98113 0.21167 0.37368 0.0
C540 C 0.99282 0.29444 0.3602 0.0
H541 H 0.15778 0.31734 0.36835 0.0
H542 H 0.11171 0.28543 0.35585 0.0
H543 H 1.01617 0.34137 0.3644 0.0
H544 H 0.88933 0.22093 0.35749 0.0
H545 H 0.93134 0.25824 0.34387 0.0
H546 H 0.02821 0.22681 0.33856 0.0
C547 C 0.10928 0.31217 0.35606 0.0
C548 C 1.01878 0.31703 0.35782 0.0
C549 C 0.13578 0.33044 0.36342 0.0
C550 C 0.91494 0.21773 0.36197 0.0
C551 C 0.93884 0.23911 0.35419 0.0
C552 C 0.02517 0.25209 0.34369 0.0
C553 C 0.07913 0.32782 0.35131 0.0
C554 C 0.04874 0.30714 0.34887 0.0
C555 C 0.97199 0.23643 0.36013 0.0
C556 C 0.99649 0.26148 0.35395 0.0
H557 H 0.10163 0.40771 0.36187 0.0
H558 H 0.05489 0.37574 0.34837 0.0
H559 H 0.07311 0.26664 0.33336 0.0
H560 H 0.96444 0.17263 0.39282 0.0
H561 H 1.00663 0.20951 0.37859 0.0
C562 C 0.13426 0.70271 0.13334 0.0
C563 C 0.1218 0.67154 0.12795 0.0
C564 C 0.11852 0.73146 0.12687 0.0
C565 C 0.04713 0.76481 0.09781 0.0
H566 H 0.03091 0.81215 0.14679 0.0
C567 C 0.94263 0.84745 0.13995 0.0
C568 C 0.94314 0.87826 0.13031 0.0
C569 C 0.96436 0.82244 0.13421 0.0
C570 C 0.03534 0.79925 0.13298 0.0
H571 H 0.0856 0.64558 0.11002 0.0
H572 H 0.05692 0.69584 0.09949 0.0
H573 H 0.0745 0.77099 0.14546 0.0
H574 H 0.96416 0.90587 0.10577 0.0
H575 H 1.00261 0.86179 0.09588 0.0
H576 H 1.00645 0.79295 0.0858 0.0
C577 C 0.07924 0.69827 0.10828 0.0
C578 C 0.06066 0.77602 0.13208 0.0
C579 C 0.0955 0.66947 0.11442 0.0
C580 C 0.96348 0.88245 0.11359 0.0
C581 C 0.98533 0.85728 0.10784 0.0
C582 C 1.02172 0.78851 0.0987 0.0
C583 C 0.08947 0.7294 0.11542 0.0
C584 C 0.06645 0.75797 0.11466 0.0
C585 C 0.9869 0.82779 0.11875 0.0
C586 C 1.01517 0.80507 0.11651 0.0
H587 H 0.15496 0.70478 0.14348 0.0
H588 H 0.12747 0.75521 0.13216 0.0
H589 H 0.0511 0.75126 0.0842 0.0
H590 H 0.92676 0.84326 0.15263 0.0
H591 H 0.96503 0.79962 0.14266 0.0
C592 C 0.45406 0.10218 0.03693 0.0
C593 C 0.42042 0.09358 0.03456 0.0
C594 C 0.47919 0.08488 0.02669 0.0
C595 C 0.49525 1.00495 -0.00038 0.0
H596 H 0.57198 0.05157 0.97924 0.0
C597 C 0.59299 0.9405 0.94815 0.0
C598 C 0.62654 0.94942 0.95061 0.0
C599 C 0.56761 0.95775 0.95822 0.0
C600 C 0.55095 0.03793 0.985 0.0
H601 H 0.38726 0.05979 0.01923 0.0
H602 H 0.43049 0.03034 0.00144 0.0
H603 H 0.52942 0.08209 -0.00276 0.0
H604 H 0.65923 0.98367 0.96595 0.0
H605 H 0.61565 1.01293 0.98344 0.0
H606 H 0.51681 0.96077 0.98739 0.0
C607 C 0.43776 0.05005 0.01141 0.0
C608 C 0.52641 0.05558 -0.0046 0.0
C609 C 0.41277 0.06728 0.02158 0.0
C610 C 0.63382 0.97594 0.96351 0.0
C611 C 0.60861 0.99307 0.97351 0.0
C612 C 0.51981 0.98729 0.98922 0.0
C613 C 0.47145 0.05838 0.01381 0.0
C614 C 0.49809 0.03942 0.00291 0.0
C615 C 0.57501 0.98449 0.97101 0.0
C616 C 0.54817 1.00344 0.98175 0.0
H617 H 0.46106 0.1221 0.04684 0.0
H618 H 0.50478 0.09195 0.02916 0.0
H619 H 0.47421 0.99133 0.00537 0.0
H620 H 0.58628 0.92039 0.93831 0.0
H621 H 0.5421 0.95045 0.95569 0.0
C622 C 0.69053 0.68937 0.26972 0.0
C623 C 0.70845 0.66904 0.28285 0.0
C624 C 0.70629 0.71528 0.25936 0.0
C625 C 0.78309 0.76823 0.25927 0.0
H626 H 0.75842 0.78545 0.20495 0.0
C627 C 0.85735 0.86125 0.20984 0.0
C628 C 0.83937 0.88088 0.19636 0.0
C629 C 0.84183 0.8353 0.2203 0.0
C630 C 0.76547 0.78139 0.22018 0.0
H631 H 0.75734 0.66075 0.29535 0.0
H632 H 0.78457 0.70535 0.27737 0.0
H633 H 0.73025 0.74182 0.22333 0.0
H634 H 0.79059 0.88797 0.18345 0.0
H635 H 0.76376 0.84353 0.20167 0.0
H636 H 0.81825 0.80787 0.25615 0.0
C637 C 0.75822 0.70163 0.27516 0.0
C638 C 0.74917 0.7562 0.23079 0.0
C639 C 0.74252 0.67575 0.28544 0.0
C640 C 0.80547 0.87352 0.19361 0.0
C641 C 0.79 0.84768 0.20404 0.0
C642 C 0.79936 0.79348 0.24867 0.0
C643 C 0.74047 0.7218 0.26185 0.0
C644 C 0.75766 0.74914 0.25054 0.0
C645 C 0.80782 0.82808 0.21761 0.0
C646 C 0.79083 0.80058 0.22892 0.0
H647 H 0.66431 0.68512 0.26729 0.0
H648 H 0.69153 0.73039 0.2495 0.0
H649 H 0.79015 0.76409 0.2745 0.0
H650 H 0.88346 0.86599 0.21239 0.0
H651 H 0.85667 0.82065 0.23037 0.0
C652 C 0.11335 0.9448 0.52215 0.0
C653 C 0.13524 0.96318 0.53416 0.0
C654 C 0.08752 0.9605 0.51169 0.0
C655 C 0.05951 0.04404 0.49337 0.0
H656 H 0.9746 1.00015 0.48728 0.0
C657 C 0.94423 0.11159 0.45937 0.0
C658 C 0.92225 0.0929 0.44759 0.0
C659 C 0.97021 0.09613 0.46986 0.0
C660 C 0.99823 1.01275 0.48857 0.0
H661 H 0.14636 1.0129 0.54451 0.0
H662 H 0.10154 0.03998 0.52658 0.0
H663 H 1.0191 0.97265 0.50529 0.0
H664 H 0.91124 0.04292 0.4376 0.0
H665 H 0.95628 1.01635 0.45549 0.0
H666 H 0.03864 0.08413 0.47663 0.0
C667 C 0.10454 1.01343 0.52493 0.0
C668 C 1.02394 0.99684 0.49897 0.0
C669 C 0.13029 0.99775 0.53539 0.0
C670 C 0.92734 0.05832 0.44655 0.0
C671 C 0.95323 0.04292 0.457 0.0
C672 C 0.0338 0.05995 0.48295 0.0
C673 C 0.08268 0.99515 0.51284 0.0
C674 C 0.05509 1.01216 0.50158 0.0
C675 C 0.9751 0.06145 0.46894 0.0
C676 C 1.00266 0.0446 0.48032 0.0
H677 H 0.11624 0.91819 0.52072 0.0
H678 H 0.07164 0.94543 0.50242 0.0
H679 H 0.08315 0.05662 0.49468 0.0
H680 H 0.94122 0.1382 0.46065 0.0
H681 H 0.98612 0.11141 0.47899 0.0
C682 C 0.856 0.34066 0.79208 0.0
C683 C 0.85085 0.37359 0.78583 0.0
C684 C 0.83999 0.31396 0.78246 0.0
C685 C 0.79962 0.29112 0.73475 0.0
H686 H 0.75751 0.22041 0.76436 0.0
C687 C 0.74641 0.17354 0.69639 0.0
C688 C 0.71559 0.16108 0.70286 0.0
C689 C 0.76275 0.19894 0.70674 0.0
C690 C 0.769 0.24003 0.75585 0.0
H691 H 0.82494 0.40378 0.76423 0.0
H692 H 0.79787 0.35779 0.74755 0.0
H693 H 0.78712 0.26471 0.78191 0.0
H694 H 0.67804 0.16596 0.72559 0.0
H695 H 0.70674 0.21019 0.74378 0.0
H696 H 0.78158 0.26671 0.70873 0.0
C697 C 0.81416 0.35237 0.75985 0.0
C698 C 0.78633 0.26529 0.76593 0.0
C699 C 0.82966 0.3789 0.76956 0.0
C700 C 0.70162 0.17493 0.72008 0.0
C701 C 0.71825 0.20015 0.73061 0.0
C702 C 0.78271 0.26573 0.7247 0.0
C703 C 0.81889 0.31945 0.76613 0.0
C704 C 0.80172 0.29139 0.75553 0.0
C705 C 0.74909 0.21261 0.72408 0.0
C706 C 0.76698 0.23981 0.73505 0.0
H707 H 0.87195 0.33555 0.80458 0.0
H708 H 0.84443 0.28896 0.78768 0.0
H709 H 0.81129 0.31055 0.72617 0.0
H710 H 0.75806 0.16362 0.68323 0.0
H711 H 0.78653 0.2075 0.70129 0.0
C712 C 0.30109 0.37818 0.69783 0.0
C713 C 0.33544 0.38383 0.69989 0.0
C714 C 0.2849 0.35326 0.70867 0.0
C715 C 0.30026 0.27623 0.73853 0.0
H716 H 0.21018 0.29151 0.75653 0.0
C717 C 0.23458 0.18589 0.79293 0.0
C718 C 0.20064 0.17876 0.79011 0.0
C719 C 0.25056 0.21092 0.78208 0.0
C720 C 0.23519 0.28655 0.75146 0.0
H721 H 0.37952 0.36695 0.71519 0.0
H722 H 0.35136 0.32387 0.7343 0.0
H723 H 0.23896 0.33433 0.73776 0.0
H724 H 0.15705 0.19331 0.77353 0.0
H725 H 0.18481 0.23702 0.75462 0.0
H726 H 0.29651 0.22853 0.75238 0.0
C727 C 0.33687 0.33849 0.72403 0.0
C728 C 0.25182 0.31125 0.7406 0.0
C729 C 0.35314 0.36343 0.7131 0.0
C730 C 0.18307 0.19802 0.77624 0.0
C731 C 0.1991 0.22324 0.7654 0.0
C732 C 0.28366 0.25159 0.74945 0.0
C733 C 0.30239 0.33303 0.72208 0.0
C734 C 0.28468 0.30657 0.7339 0.0
C735 C 0.23322 0.22992 0.76801 0.0
C736 C 0.25082 0.2563 0.75613 0.0
H737 H 0.28648 0.39308 0.68773 0.0
H738 H 0.25858 0.34967 0.70632 0.0
H739 H 0.32521 0.27115 0.73343 0.0
H740 H 0.24914 0.17184 0.80349 0.0
H741 H 0.2766 0.21552 0.78487 0.0
C742 C 0.36014 0.85732 0.27007 0.0
C743 C 0.34226 0.87946 0.28217 0.0
C744 C 0.34409 0.83084 0.26031 0.0
C745 C 0.26452 0.78117 0.26031 0.0
H746 H 0.29411 0.75383 0.20835 0.0
C747 C 0.18957 0.68611 0.21236 0.0
C748 C 0.20761 0.66289 0.20108 0.0
C749 C 0.20575 0.71242 0.2222 0.0
C750 C 0.28561 0.76079 0.22295 0.0
H751 H 0.29295 0.89052 0.29327 0.0
H752 H 0.26523 0.84532 0.27621 0.0
H753 H 0.32276 0.79872 0.22542 0.0
H754 H 0.25727 0.64987 0.19138 0.0
H755 H 0.28517 0.69514 0.20843 0.0
H756 H 0.22723 0.74336 0.25774 0.0
C757 C 0.29181 0.84779 0.27445 0.0
C758 C 0.30222 0.7867 0.23283 0.0
C759 C 0.30783 0.8741 0.28421 0.0
C760 C 0.24232 0.66705 0.19988 0.0
C761 C 0.25843 0.69335 0.20961 0.0
C762 C 0.24785 0.75536 0.25039 0.0
C763 C 0.30956 0.8256 0.26229 0.0
C764 C 0.29202 0.79744 0.25172 0.0
C765 C 0.24052 0.71654 0.22098 0.0
C766 C 0.25809 0.74462 0.23153 0.0
H767 H 0.38664 0.86042 0.2681 0.0
H768 H 0.35895 0.81425 0.25138 0.0
H769 H 0.25604 0.78798 0.27493 0.0
H770 H 0.16286 0.68397 0.21365 0.0
H771 H 0.19087 0.72982 0.23056 0.0
C772 C 0.1306 0.47445 0.45863 0.0
C773 C 0.12477 0.4492 0.44463 0.0
C774 C 0.10436 0.49029 0.46844 0.0
C775 C 1.01377 0.483 0.48054 0.0
H776 H 0.02435 0.5757 0.49449 0.0
C777 C 0.92106 0.54946 0.53338 0.0
C778 C 0.91396 0.58337 0.53057 0.0
C779 C 0.94598 0.53345 0.52242 0.0
C780 C 1.02059 0.54993 0.49059 0.0
H781 H 0.08602 0.42097 0.43017 0.0
H782 H 0.04001 0.449 0.44706 0.0
H783 H 0.06761 0.54761 0.47592 0.0
H784 H 0.92804 0.62684 0.51373 0.0
H785 H 0.97096 0.59893 0.49437 0.0
H786 H 0.96626 0.48564 0.49472 0.0
C787 C 0.06515 0.45624 0.45068 0.0
C788 C 0.04586 0.53351 0.4801 0.0
C789 C 0.0916 0.44014 0.44088 0.0
C790 C 0.93278 0.60079 0.51644 0.0
C791 C 0.95764 0.58469 0.50535 0.0
C792 C 0.9884 0.49949 0.49096 0.0
C793 C 0.07109 0.4818 0.46456 0.0
C794 C 0.04313 0.49962 0.47505 0.0
C795 C 0.96467 0.55065 0.50811 0.0
C796 C 0.99143 0.53321 0.49635 0.0
H797 H 0.15568 0.48209 0.46215 0.0
H798 H 0.11037 0.50909 0.47929 0.0
H799 H 1.01053 0.45695 0.47714 0.0
H800 H 0.90741 0.53511 0.54419 0.0
H801 H 0.95083 0.50752 0.52543 0.0
C802 C 0.62242 0.493 0.03438 0.0
C803 C 0.62969 0.45928 0.03084 0.0
C804 C 0.59693 0.50933 0.02412 0.0
C805 C 0.52078 0.49467 -0.00651 0.0
H806 H 0.53325 0.58685 0.97893 0.0
C807 C 0.42753 0.5633 0.94216 0.0
C808 C 0.41991 0.59683 0.94605 0.0
C809 C 0.4531 0.54688 0.95231 0.0
C810 C 0.52904 0.56124 0.98305 0.0
H811 H 0.61501 0.41646 0.01356 0.0
H812 H 0.57073 0.44496 -0.00447 0.0
H813 H 0.57701 0.55749 -0.00345 0.0
H814 H 0.43411 0.63925 0.96383 0.0
H815 H 0.47865 0.61066 0.98157 0.0
H816 H 0.47282 0.49843 0.97994 0.0
C817 C 0.58463 0.45876 0.00647 0.0
C818 C 0.5543 0.54426 -0.00677 0.0
C819 C 0.61023 0.44235 0.01679 0.0
C820 C 0.43918 0.61353 0.9603 0.0
C821 C 0.4649 0.59706 0.97047 0.0
C822 C 0.49553 0.51164 0.98329 0.0
C823 C 0.57766 0.49265 0.00987 0.0
C824 C 0.55065 0.51066 -0.00132 0.0
C825 C 0.47214 0.56333 0.96676 0.0
C826 C 0.49918 0.54526 0.97787 0.0
H827 H 0.63652 0.50702 0.04514 0.0
H828 H 0.59215 0.53512 0.02757 0.0
H829 H 0.51654 0.46907 -0.00237 0.0
H830 H 0.41353 0.54944 0.93127 0.0
H831 H 0.45809 0.5212 0.94866 0.0
C832 C 0.30691 0.24154 0.1157 0.0
C833 C 0.3124 0.23451 0.09559 0.0
C834 C 0.29289 0.27171 0.12165 0.0
C835 C 0.2753 0.35785 0.10433 0.0
H836 H 0.21625 0.35918 0.14959 0.0
C837 C 0.19928 0.47422 0.12509 0.0
C838 C 0.19812 0.48365 0.14512 0.0
C839 C 0.21243 0.44357 0.11937 0.0
C840 C 0.23294 0.35931 0.13705 0.0
H841 H 0.30717 0.25406 0.06595 0.0
H842 H 0.28202 0.3065 0.07627 0.0
H843 H 0.24016 0.30676 0.13854 0.0
H844 H 0.20919 0.46732 0.1749 0.0
H845 H 0.23194 0.41342 0.16488 0.0
H846 H 0.26759 0.41038 0.1027 0.0
C847 C 0.28918 0.28885 0.08753 0.0
C848 C 0.24677 0.3292 0.13068 0.0
C849 C 0.30349 0.25865 0.08157 0.0
C850 C 0.20963 0.46097 0.15936 0.0
C851 C 0.22263 0.43003 0.1536 0.0
C852 C 0.26126 0.38789 0.1106 0.0
C853 C 0.28358 0.29582 0.10769 0.0
C854 C 0.26827 0.32797 0.11425 0.0
C855 C 0.22467 0.42118 0.13349 0.0
C856 C 0.23989 0.38907 0.12705 0.0
H857 H 0.31365 0.22376 0.127 0.0
H858 H 0.28975 0.27621 0.13731 0.0
H859 H 0.29215 0.35821 0.09187 0.0
H860 H 0.19053 0.4908 0.11364 0.0
H861 H 0.21299 0.43742 0.1038 0.0
C862 C 0.53198 0.56074 0.32658 0.0
C863 C 0.56174 0.546 0.33302 0.0
C864 C 0.50108 0.54819 0.33265 0.0
C865 C 0.4607 0.47377 0.35547 0.0
H866 H 0.39068 0.5361 0.36827 0.0
C867 C 0.32753 0.43023 0.3752 0.0
C868 C 0.30929 0.44828 0.38933 0.0
C869 C 0.35834 0.44166 0.36843 0.0
C870 C 0.41002 0.51829 0.36497 0.0
H871 H 0.58193 0.50576 0.35059 0.0
H872 H 0.52854 0.48432 0.36127 0.0
H873 H 0.44364 0.55654 0.35586 0.0
H874 H 0.30999 0.49231 0.40774 0.0
H875 H 0.36402 0.51187 0.39627 0.0
H876 H 0.42751 0.43559 0.36511 0.0
C877 C 0.52886 0.50535 0.35133 0.0
C878 C 0.44034 0.53003 0.35753 0.0
C879 C 0.55966 0.51783 0.34525 0.0
C880 C 0.3232 0.47774 0.39684 0.0
C881 C 0.35414 0.48914 0.39009 0.0
C882 C 0.43044 0.46204 0.36295 0.0
C883 C 0.49905 0.52053 0.34534 0.0
C884 C 0.46622 0.50796 0.3527 0.0
C885 C 0.37205 0.47145 0.37562 0.0
C886 C 0.40459 0.4841 0.36784 0.0
H887 H 0.5325 0.58244 0.31715 0.0
H888 H 0.47876 0.56028 0.32742 0.0
H889 H 0.47974 0.45587 0.35174 0.0
H890 H 0.31768 0.4075 0.36897 0.0
H891 H 0.37099 0.42747 0.35712 0.0
C892 C 0.27902 0.81154 0.59841 0.0
C893 C 0.24775 0.81415 0.58926 0.0
C894 C 0.29159 0.78062 0.60422 0.0
C895 C 0.26516 0.69613 0.61821 0.0
H896 H 0.35764 0.67351 0.60984 0.0
C897 C 0.32691 0.58017 0.65404 0.0
C898 C 0.34674 0.56059 0.64149 0.0
C899 C 0.31542 0.61142 0.64789 0.0
C900 C 0.33173 0.67938 0.61227 0.0
H901 H 0.20539 0.78588 0.5789 0.0
H902 H 0.22726 0.73193 0.58918 0.0
H903 H 0.33625 0.72653 0.59783 0.0
H904 H 0.37076 0.55922 0.61282 0.0
H905 H 0.3512 0.61365 0.6023 0.0
H906 H 0.26067 0.64895 0.63265 0.0
C907 C 0.24202 0.75393 0.59188 0.0
C908 C 0.3195 0.7099 0.60549 0.0
C909 C 0.2296 0.78486 0.58582 0.0
C910 C 0.3555 0.57351 0.62289 0.0
C911 C 0.34439 0.60485 0.61686 0.0
C912 C 0.27749 0.66576 0.6252 0.0
C913 C 0.2731 0.75142 0.60127 0.0
C914 C 0.28602 0.71867 0.6083 0.0
C915 C 0.32386 0.62409 0.62917 0.0
C916 C 0.31092 0.65691 0.62226 0.0
H917 H 0.29373 0.83351 0.6013 0.0
H918 H 0.31548 0.77971 0.61153 0.0
H919 H 0.23933 0.70217 0.62081 0.0
H920 H 0.31958 0.57104 0.66843 0.0
H921 H 0.29994 0.62571 0.65783 0.0
C922 C 0.99059 0.52043 0.85355 0.0
C923 C 0.98869 0.49611 0.83866 0.0
C924 C 1.02117 0.53384 0.85927 0.0
C925 C 0.11003 0.51502 0.86199 0.0
H926 H 0.12049 0.60991 0.86931 0.0
C927 C 0.22369 0.57446 0.90235 0.0
C928 C 0.23884 0.60118 0.89247 0.0
C929 C 0.19313 0.56167 0.89578 0.0
C930 C 0.11801 0.58335 0.86734 0.0
H931 H 1.01771 0.46693 0.81806 0.0
H932 H 0.07147 0.48999 0.82838 0.0
H933 H 0.06794 0.58781 0.85687 0.0
H934 H 0.2331 0.63595 0.86828 0.0
H935 H 0.1797 0.61428 0.85723 0.0
H936 H 0.16002 0.51058 0.87274 0.0
C937 C 0.04906 0.49878 0.83549 0.0
C938 C 0.08784 0.57067 0.86027 0.0
C939 C 1.01826 0.48578 0.82947 0.0
C940 C 0.22222 0.61533 0.87624 0.0
C941 C 0.19151 0.60297 0.86992 0.0
C942 C 0.14006 0.52767 0.86939 0.0
C943 C 0.05087 0.5229 0.85054 0.0
C944 C 0.08346 0.53635 0.85746 0.0
C945 C 0.17672 0.57573 0.87943 0.0
C946 C 0.14447 0.56202 0.8721 0.0
H947 H 0.96832 0.52899 0.86094 0.0
H948 H 1.02164 0.5522 0.87096 0.0
H949 H 0.10739 0.48845 0.86016 0.0
H950 H 0.23585 0.56284 0.91482 0.0
H951 H 0.18228 0.54083 0.90353 0.0
C952 C 0.81616 0.57073 0.83303 0.0
C953 C 0.84878 0.56079 0.83757 0.0
C954 C 0.8035 0.60094 0.84007 0.0
C955 C 0.82826 0.68335 0.85936 0.0
H956 H 0.73901 0.68531 0.88084 0.0
C957 C 0.75844 0.80584 0.87535 0.0
C958 C 0.73958 0.80838 0.8928 0.0
C959 C 0.77266 0.77566 0.86963 0.0
C960 C 0.76406 0.68515 0.87504 0.0
H961 H 0.89387 0.57561 0.8527 0.0
H962 H 0.87194 0.6284 0.86469 0.0
H963 H 0.76196 0.63313 0.86838 0.0
H964 H 0.72118 0.78078 0.91799 0.0
H965 H 0.74583 0.72773 0.90784 0.0
H966 H 0.83034 0.73536 0.86592 0.0
C967 C 0.8561 0.61276 0.85572 0.0
C968 C 0.7771 0.6553 0.86768 0.0
C969 C 0.86868 0.5824 0.84885 0.0
C970 C 0.73556 0.77979 0.90448 0.0
C971 C 0.74952 0.74934 0.8986 0.0
C972 C 0.8151 0.71324 0.86652 0.0
C973 C 0.82318 0.62224 0.85167 0.0
C974 C 0.80934 0.65401 0.85966 0.0
C975 C 0.76825 0.74691 0.88106 0.0
C976 C 0.78277 0.71461 0.87438 0.0
H977 H 0.80002 0.55476 0.82447 0.0
H978 H 0.7782 0.60762 0.83642 0.0
H979 H 0.85308 0.68338 0.85322 0.0
H980 H 0.76223 0.82728 0.86598 0.0
H981 H 0.78658 0.77472 0.85595 0.0
C982 C 0.48677 0.52335 0.63157 0.0
C983 C 0.48424 0.49395 0.64269 0.0
C984 C 0.51771 0.53546 0.6255 0.0
C985 C 0.60853 0.5293 0.63518 0.0
H986 H 0.6154 0.56815 0.58295 0.0
C987 C 0.72739 0.59746 0.60975 0.0
C988 C 0.73824 0.59301 0.59016 0.0
C989 C 0.69636 0.58575 0.61591 0.0
C990 C 0.61408 0.55716 0.59752 0.0
H991 H 0.51278 0.45464 0.65643 0.0
H992 H 0.56677 0.4756 0.64571 0.0
H993 H 0.5623 0.54642 0.59432 0.0
H994 H 0.72426 0.57311 0.56159 0.0
H995 H 0.67017 0.55242 0.57237 0.0
H996 H 0.66047 0.53935 0.63821 0.0
C997 C 0.54473 0.48952 0.64183 0.0
C998 C 0.58342 0.54504 0.60417 0.0
C999 C 0.5137 0.4774 0.64795 0.0
C1000 C 0.71676 0.57711 0.57677 0.0
C1001 C 0.68564 0.5653 0.58296 0.0
C1002 C 0.63919 0.54142 0.62853 0.0
C1003 C 0.54717 0.51855 0.63031 0.0
C1004 C 0.58011 0.53105 0.62314 0.0
C1005 C 0.67513 0.56913 0.60271 0.0
C1006 C 0.64242 0.55568 0.60963 0.0
H1007 H 0.46472 0.53699 0.62734 0.0
H1008 H 0.51849 0.55824 0.61704 0.0
H1009 H 0.60704 0.51899 0.64992 0.0
H1010 H 0.74305 0.6098 0.62049 0.0
H1011 H 0.68898 0.58988 0.6311 0.0
C1012 C 0.82062 0.26696 0.39501 0.0
C1013 C 0.80368 0.23697 0.39155 0.0
C1014 C 0.80784 0.29718 0.38806 0.0
C1015 C 0.73025 0.33765 0.37096 0.0
H1016 H 0.78987 0.40088 0.34636 0.0
C1017 C 0.69102 0.47229 0.35319 0.0
C1018 C 0.70188 0.48683 0.33542 0.0
C1019 C 0.70257 0.44113 0.35909 0.0
C1020 C 0.77283 0.38338 0.35302 0.0
H1021 H 0.75942 0.21561 0.37845 0.0
H1022 H 0.7371 0.26813 0.36656 0.0
H1023 H 0.81174 0.34853 0.35916 0.0
H1024 H 0.73315 0.47939 0.30975 0.0
H1025 H 0.7535 0.42471 0.32013 0.0
H1026 H 0.69136 0.37237 0.36481 0.0
C1027 C 0.76029 0.26836 0.37465 0.0
C1028 C 0.78544 0.35352 0.3606 0.0
C1029 C 0.77318 0.23816 0.38143 0.0
C1030 C 0.72418 0.46893 0.32348 0.0
C1031 C 0.73606 0.43773 0.32952 0.0
C1032 C 0.71771 0.36757 0.36353 0.0
C1033 C 0.77762 0.29825 0.37764 0.0
C1034 C 0.76432 0.33026 0.3697 0.0
C1035 C 0.72554 0.42353 0.34749 0.0
C1036 C 0.73882 0.39092 0.35451 0.0
H1037 H 0.84423 0.26704 0.40266 0.0
H1038 H 0.82166 0.31974 0.39086 0.0
H1039 H 0.71326 0.32048 0.37797 0.0
H1040 H 0.6738 0.48524 0.36276 0.0
H1041 H 0.69415 0.43123 0.37309 0.0
C1042 C 0.8204 0.4423 0.10689 0.0
C1043 C 0.80742 0.45152 0.08837 0.0
C1044 C 0.85141 0.45394 0.11326 0.0
C1045 C 0.91193 0.52206 0.10583 0.0
H1046 H 0.97242 0.46342 0.13345 0.0
C1047 C 0.03068 0.57027 0.14602 0.0
C1048 C 0.05996 0.55174 0.14329 0.0
C1049 C 0.99986 0.55799 0.13954 0.0
C1050 C 0.95591 0.48016 0.12572 0.0
H1051 H 0.81752 0.48019 0.06197 0.0
H1052 H 0.87163 0.50064 0.07313 0.0
H1053 H 0.91978 0.44188 0.121 0.0
H1054 H 0.0793 0.50527 0.13193 0.0
H1055 H 0.02581 0.48386 0.12092 0.0
H1056 H 0.94817 0.56032 0.11054 0.0
C1057 C 0.8576 0.48443 0.08277 0.0
C1058 C 0.92554 0.46784 0.11869 0.0
C1059 C 0.82665 0.47247 0.07629 0.0
C1060 C 0.05738 0.52031 0.13431 0.0
C1061 C 0.02659 0.50791 0.12804 0.0
C1062 C 0.94219 0.53447 0.11305 0.0
C1063 C 0.87038 0.47543 0.10139 0.0
C1064 C 0.90309 0.48857 0.1086 0.0
C1065 C 0.99739 0.52668 0.13037 0.0
C1066 C 0.96469 0.51368 0.12305 0.0
H1067 H 0.80642 0.42621 0.11664 0.0
H1068 H 0.86018 0.44666 0.12774 0.0
H1069 H 0.8952 0.53887 0.09832 0.0
H1070 H 0.03162 0.59459 0.1528 0.0
H1071 H 0.9779 0.57302 0.14179 0.0
C1072 C 0.81949 0.76086 0.58266 0.0
C1073 C 0.80368 0.73135 0.5886 0.0
C1074 C 0.80769 0.79189 0.58901 0.0
C1075 C 0.75561 0.8308 0.62829 0.0
H1076 H 0.75742 0.90732 0.5937 0.0
C1077 C 0.72552 0.96423 0.65624 0.0
C1078 C 0.7078 0.98529 0.64346 0.0
C1079 C 0.7371 0.93322 0.64969 0.0
C1080 C 0.75646 0.88619 0.60356 0.0
H1081 H 0.76228 0.71175 0.60546 0.0
H1082 H 0.74157 0.76553 0.61618 0.0
H1083 H 0.7769 0.85382 0.58156 0.0
H1084 H 0.68777 0.98955 0.61381 0.0
H1085 H 0.70742 0.93571 0.60259 0.0
H1086 H 0.73453 0.86302 0.65015 0.0
C1087 C 0.76353 0.76478 0.60697 0.0
C1088 C 0.76807 0.85549 0.59664 0.0
C1089 C 0.77531 0.73383 0.60066 0.0
C1090 C 0.70151 0.97422 0.62408 0.0
C1091 C 0.71304 0.94331 0.61756 0.0
C1092 C 0.74404 0.86151 0.63522 0.0
C1093 C 0.77974 0.79429 0.60146 0.0
C1094 C 0.7677 0.82726 0.60887 0.0
C1095 C 0.73126 0.92242 0.63018 0.0
C1096 C 0.74415 0.88967 0.62293 0.0
H1097 H 0.84145 0.76 0.57346 0.0
H1098 H 0.82106 0.81396 0.58456 0.0
H1099 H 0.75533 0.80984 0.63829 0.0
H1100 H 0.73094 0.97187 0.67123 0.0
H1101 H 0.75128 0.91804 0.65982 0.0
C1102 C 0.82334 0.92965 0.87654 0.0
C1103 C 0.80838 0.9434 0.89347 0.0
C1104 C 0.85366 0.94188 0.86947 0.0
C1105 C 0.92846 0.98873 0.8842 0.0
H1106 H 0.93841 1.00483 0.82801 0.0
C1107 C 0.0553 1.02122 0.84993 0.0
C1108 C 0.05642 0.04827 0.83679 0.0
C1109 C 0.025 1.00764 0.85594 0.0
C1110 C 0.93598 1.00058 0.84374 0.0
H1111 H 0.81435 0.98034 0.9165 0.0
H1112 H 0.86745 1.00129 0.90435 0.0
H1113 H 0.88603 0.98276 0.84082 0.0
H1114 H 0.0261 0.08113 0.819 0.0
H1115 H 0.97304 0.057 0.8293 0.0
H1116 H 0.9783 1.00655 0.88717 0.0
C1117 C 0.8556 0.98107 0.8965 0.0
C1118 C 0.90608 0.98766 0.85107 0.0
C1119 C 0.82509 0.96908 0.90347 0.0
C1120 C 0.02627 0.06034 0.8291 0.0
C1121 C 0.99584 0.04649 0.83502 0.0
C1122 C 0.95844 1.00128 0.87686 0.0
C1123 C 0.87006 0.96795 0.87926 0.0
C1124 C 0.90193 0.98158 0.87141 0.0
C1125 C 0.99484 1.02047 0.84887 0.0
C1126 C 0.96264 1.00733 0.85653 0.0
H1127 H 0.81124 0.9099 0.8684 0.0
H1128 H 0.86429 0.9309 0.85631 0.0
H1129 H 0.92622 0.9842 0.89991 0.0
H1130 H 0.07791 1.011 0.85612 0.0
H1131 H 0.02519 0.98722 0.86633 0.0
C1132 C 0.82608 0.07845 0.15055 0.0
C1133 C 0.84448 0.05781 0.13784 0.0
C1134 C 0.81442 0.10944 0.14405 0.0
C1135 C 0.7962 0.15652 0.09789 0.0
H1136 H 0.79569 0.23291 0.13265 0.0
C1137 C 0.73311 0.28128 0.07641 0.0
C1138 C 0.74846 0.31088 0.0826 0.0
C1139 C 0.74501 0.25035 0.0828 0.0
C1140 C 0.79588 0.21192 0.12266 0.0
H1141 H 0.86579 0.05432 0.10846 0.0
H1142 H 0.84605 0.10808 0.09736 0.0
H1143 H 0.81634 0.17984 0.14476 0.0
H1144 H 0.78927 0.33082 0.09985 0.0
H1145 H 0.81023 0.27717 0.11059 0.0
H1146 H 0.77643 0.18873 0.07565 0.0
C1147 C 0.83989 0.10016 0.11219 0.0
C1148 C 0.80736 0.1813 0.12971 0.0
C1149 C 0.85146 0.0693 0.11865 0.0
C1150 C 0.77662 0.30863 0.09484 0.0
C1151 C 0.78852 0.27778 0.10118 0.0
C1152 C 0.78471 0.18712 0.09083 0.0
C1153 C 0.8209 0.12058 0.12469 0.0
C1154 C 0.80787 0.15317 0.1174 0.0
C1155 C 0.77261 0.24818 0.09551 0.0
C1156 C 0.78453 0.21535 0.10308 0.0
H1157 H 0.82016 0.07046 0.1654 0.0
H1158 H 0.79969 0.12433 0.15407 0.0
H1159 H 0.79572 0.13537 0.08801 0.0
H1160 H 0.71127 0.28198 0.06711 0.0
H1161 H 0.7319 0.22819 0.07822 0.0
C1162 C 0.73349 0.10211 0.3699 0.0
C1163 C 0.74373 0.09779 0.38963 0.0
C1164 C 0.70277 0.09028 0.36332 0.0
C1165 C 0.61948 0.06193 0.38007 0.0
H1166 H 0.61545 1.02427 0.32738 0.0
C1167 C 0.49383 0.03108 0.34247 0.0
C1168 C 0.49145 1.0018 0.33117 0.0
C1169 C 0.52458 0.04251 0.3494 0.0
C1170 C 0.61604 0.03444 0.34218 0.0
H1171 H 0.72874 0.07801 0.41801 0.0
H1172 H 0.67489 0.05715 0.40649 0.0
H1173 H 0.66832 0.04358 0.34048 0.0
H1174 H 0.52022 0.96208 0.31802 0.0
H1175 H 0.57381 0.98196 0.33008 0.0
H1176 H 0.56724 0.05225 0.38187 0.0
C1177 C 0.69081 0.06995 0.39611 0.0
C1178 C 0.64643 0.04594 0.34966 0.0
C1179 C 0.72177 0.08186 0.40274 0.0
C1180 C 0.52098 0.98484 0.32652 0.0
C1181 C 0.55182 0.99629 0.33348 0.0
C1182 C 0.58903 0.05047 0.37257 0.0
C1183 C 0.68105 0.07361 0.3762 0.0
C1184 C 0.64863 0.06013 0.36866 0.0
C1185 C 0.55405 0.02506 0.34529 0.0
C1186 C 0.58676 0.03673 0.35345 0.0
H1187 H 0.74941 0.11451 0.35933 0.0
H1188 H 0.696 0.09438 0.34804 0.0
H1189 H 0.62 0.07282 0.39469 0.0
H1190 H 0.47175 0.04499 0.34633 0.0
H1191 H 0.52518 0.06511 0.35805 0.0
C1192 C 0.23541 0.28062 0.40031 0.0
C1193 C 0.24521 0.31023 0.391 0.0
C1194 C 0.24846 0.24994 0.39413 0.0
C1195 C 0.31973 0.21175 0.36847 0.0
H1196 H 0.25949 0.13964 0.35603 0.0
C1197 C 0.36391 0.07769 0.35154 0.0
C1198 C 0.34935 0.06122 0.33537 0.0
C1199 C 0.35184 0.10841 0.35799 0.0
C1200 C 0.2766 0.1596 0.35936 0.0
H1201 H 0.27725 0.33089 0.36841 0.0
H1202 H 0.3006 0.2778 0.35811 0.0
H1203 H 0.23754 0.19194 0.3692 0.0
H1204 H 0.3107 0.06447 0.31322 0.0
H1205 H 0.28919 0.11814 0.32473 0.0
H1206 H 0.35881 0.17943 0.35881 0.0
C1207 C 0.28261 0.27812 0.37001 0.0
C1208 C 0.26407 0.18941 0.36711 0.0
C1209 C 0.26913 0.30856 0.37589 0.0
C1210 C 0.32263 0.07657 0.32562 0.0
C1211 C 0.31012 0.10714 0.33233 0.0
C1212 C 0.3323 0.1818 0.36105 0.0
C1213 C 0.27212 0.24836 0.37882 0.0
C1214 C 0.28548 0.21594 0.37163 0.0
C1215 C 0.32449 0.12333 0.34867 0.0
C1216 C 0.3109 0.15539 0.35629 0.0
H1217 H 0.21685 0.28104 0.41189 0.0
H1218 H 0.24004 0.22745 0.40129 0.0
H1219 H 0.3369 0.23165 0.37185 0.0
H1220 H 0.38453 0.0666 0.3594 0.0
H1221 H 0.36337 0.12007 0.37067 0.0
C1222 C 0.98801 0.03147 0.13362 0.0
C1223 C 0.9858 1.00329 0.14584 0.0
C1224 C 1.01892 0.04462 0.12823 0.0
C1225 C 0.10744 1.02085 0.12308 0.0
H1226 H 0.12111 0.11557 0.11722 0.0
C1227 C 0.22394 0.07366 0.08409 0.0
C1228 C 0.2393 0.10168 0.0925 0.0
C1229 C 0.19286 0.06277 0.09077 0.0
C1230 C 0.11785 0.08905 0.11889 0.0
H1231 H 1.01481 0.96757 0.16243 0.0
H1232 H 0.06865 0.99068 0.15319 0.0
H1233 H 0.06819 0.09489 0.12973 0.0
H1234 H 0.23319 0.14066 0.11432 0.0
H1235 H 0.1791 0.12167 0.12595 0.0
H1236 H 0.15719 1.01499 0.11247 0.0
C1237 C 0.0464 1.00234 0.14752 0.0
C1238 C 0.08731 0.07714 0.1259 0.0
C1239 C 1.01544 0.98924 0.15298 0.0
C1240 C 0.2222 0.11903 0.10743 0.0
C1241 C 0.19104 0.10817 0.11408 0.0
C1242 C 0.13791 0.03275 0.11601 0.0
C1243 C 0.04861 0.02998 0.13486 0.0
C1244 C 0.0816 0.04285 0.12804 0.0
C1245 C 0.17611 0.07959 0.10603 0.0
C1246 C 0.14356 0.06702 0.11373 0.0
H1247 H 0.96581 0.04303 0.1278 0.0
H1248 H 1.01951 0.06569 0.11832 0.0
H1249 H 0.10395 0.99429 0.1243 0.0
H1250 H 0.2362 0.05965 0.07254 0.0
H1251 H 0.18195 0.04104 0.08394 0.0
C1252 C 0.21668 0.97878 0.8329 0.0
C1253 C 0.19824 0.99912 0.84576 0.0
C1254 C 0.22843 0.94763 0.83918 0.0
C1255 C 0.2469 0.89988 0.88513 0.0
H1256 H 0.24604 0.82338 0.85046 0.0
C1257 C 0.30845 0.77433 0.90663 0.0
C1258 C 0.29276 0.74484 0.90053 0.0
C1259 C 0.29683 0.80537 0.90025 0.0
C1260 C 0.24623 0.84441 0.86042 0.0
H1261 H 0.17704 1.00185 0.87522 0.0
H1262 H 0.19701 0.94807 0.88593 0.0
H1263 H 0.22613 0.87681 0.83832 0.0
H1264 H 0.25156 0.72533 0.88345 0.0
H1265 H 0.23106 0.77922 0.87271 0.0
H1266 H 0.26635 0.86745 0.90735 0.0
C1267 C 0.2031 0.95626 0.87113 0.0
C1268 C 0.23519 0.87523 0.85335 0.0
C1269 C 0.1914 0.98719 0.86489 0.0
C1270 C 0.26443 0.74739 0.88843 0.0
C1271 C 0.25283 0.77839 0.88208 0.0
C1272 C 0.25799 0.86912 0.89219 0.0
C1273 C 0.22208 0.9361 0.85849 0.0
C1274 C 0.23511 0.90338 0.86565 0.0
C1275 C 0.26916 0.80784 0.88761 0.0
C1276 C 0.25764 0.84084 0.87999 0.0
H1277 H 0.22244 0.98709 0.81808 0.0
H1278 H 0.24309 0.9329 0.82904 0.0
H1279 H 0.2477 0.92102 0.895 0.0
H1280 H 0.33046 0.77344 0.9158 0.0
H1281 H 0.31026 0.82739 0.90474 0.0
C1282 C 0.53687 0.05908 0.65693 0.0
C1283 C 0.56638 0.04332 0.65092 0.0
C1284 C 0.50585 0.04782 0.65019 0.0
C1285 C 0.46736 0.99757 0.60979 0.0
H1286 H 0.38978 0.99985 0.64356 0.0
C1287 C 0.3338 0.9692 0.5806 0.0
C1288 C 0.31222 0.95197 0.59333 0.0
C1289 C 0.36499 0.98021 0.58728 0.0
C1290 C 0.41119 0.99876 0.63392 0.0
H1291 H 0.58594 1.00242 0.63361 0.0
H1292 H 0.53218 0.98252 0.6223 0.0
H1293 H 0.44314 1.01816 0.65643 0.0
H1294 H 0.30739 0.93189 0.62294 0.0
H1295 H 0.36141 0.9504 0.63432 0.0
H1296 H 0.4355 0.97744 0.58742 0.0
C1297 C 0.53292 1.0041 0.63183 0.0
C1298 C 0.44185 1.00971 0.64127 0.0
C1299 C 0.56386 1.01537 0.6385 0.0
C1300 C 0.32307 0.94535 0.6127 0.0
C1301 C 0.35411 0.95624 0.61933 0.0
C1302 C 0.43668 0.98661 0.60243 0.0
C1303 C 0.50343 1.02043 0.6373 0.0
C1304 C 0.47049 1.00913 0.62937 0.0
C1305 C 0.37543 0.97424 0.60685 0.0
C1306 C 0.40814 0.98681 0.61442 0.0
H1307 H 0.53774 0.08079 0.66634 0.0
H1308 H 0.48383 0.06128 0.65465 0.0
H1309 H 0.48864 0.99719 0.60002 0.0
H1310 H 0.32632 0.97485 0.56561 0.0
H1311 H 0.38056 0.99414 0.57723 0.0
C1312 C 0.27532 0.1524 0.00926 0.0
C1313 C 0.30319 0.16739 0.0179 0.0
C1314 C 0.26534 0.16162 0.99031 0.0
C1315 C 0.30348 0.18716 0.9451 0.0
H1316 H 0.21269 0.18969 0.92639 0.0
C1317 C 0.21502 0.16898 0.87222 0.0
C1318 C 0.22628 0.13722 0.86703 0.0
C1319 C 0.23024 0.18637 0.88746 0.0
C1320 C 0.23828 0.18992 0.93128 0.0
H1321 H 0.3404 0.20606 0.01435 0.0
H1322 H 0.32316 0.22155 0.98119 0.0
H1323 H 0.22385 0.19563 0.96151 0.0
H1324 H 0.26416 0.10007 0.87173 0.0
H1325 H 0.29044 0.13003 0.899 0.0
H1326 H 0.31773 0.17919 0.91496 0.0
C1327 C 0.30937 0.20254 0.98898 0.0
C1328 C 0.24454 0.19301 0.9514 0.0
C1329 C 0.31919 0.19354 0.00793 0.0
C1330 C 0.25518 0.12455 0.87564 0.0
C1331 C 0.27023 0.14181 0.89114 0.0
C1332 C 0.2972 0.18376 0.92494 0.0
C1333 C 0.28312 0.18588 0.97978 0.0
C1334 C 0.27704 0.19033 0.95852 0.0
C1335 C 0.25652 0.1719 0.89792 0.0
C1336 C 0.26443 0.18382 0.91798 0.0
H1337 H 0.26234 0.13239 0.01664 0.0
H1338 H 0.24507 0.14827 0.98342 0.0
H1339 H 0.3288 0.18483 0.9503 0.0
H1340 H 0.19296 0.17931 0.86543 0.0
H1341 H 0.21964 0.20978 0.89218 0.0
C1342 C 0.68397 0.52509 0.10632 0.0
C1343 C 0.67445 0.49161 0.10727 0.0
C1344 C 0.6706 0.54799 0.11964 0.0
C1345 C 0.66946 0.57214 0.16153 0.0
H1346 H 0.58954 0.55315 0.19133 0.0
C1347 C 0.67539 0.55354 0.24394 0.0
C1348 C 0.64906 0.56366 0.25606 0.0
C1349 C 0.67243 0.55527 0.22347 0.0
C1350 C 0.61174 0.55954 0.18316 0.0
H1351 H 0.64035 0.45668 0.12078 0.0
H1352 H 0.61814 0.49571 0.14422 0.0
H1353 H 0.59043 0.54335 0.15592 0.0
H1354 H 0.5984 0.58231 0.25621 0.0
H1355 H 0.5935 0.5856 0.22052 0.0
H1356 H 0.69096 0.58782 0.18878 0.0
C1357 C 0.63561 0.50487 0.13336 0.0
C1358 C 0.61229 0.55379 0.16286 0.0
C1359 C 0.64889 0.48216 0.12014 0.0
C1360 C 0.61915 0.57411 0.24729 0.0
C1361 C 0.61635 0.57621 0.22681 0.0
C1362 C 0.6687 0.5785 0.18173 0.0
C1363 C 0.64763 0.5376 0.13403 0.0
C1364 C 0.64207 0.55726 0.15221 0.0
C1365 C 0.64322 0.56752 0.2147 0.0
C1366 C 0.64073 0.56975 0.19295 0.0
H1367 H 0.70312 0.53316 0.09618 0.0
H1368 H 0.67989 0.5732 0.11956 0.0
H1369 H 0.69277 0.57553 0.15383 0.0
H1370 H 0.69865 0.54523 0.25025 0.0
H1371 H 0.69319 0.54717 0.21452 0.0
C1372 C 0.2345 0.86879 0.50313 0.0
C1373 C 0.24735 0.89664 0.51311 0.0
C1374 C 0.24085 0.86417 0.4831 0.0
C1375 C 0.29711 0.88099 0.44368 0.0
H1376 H 0.22152 0.89458 0.40899 0.0
C1377 C 0.28611 0.94382 0.36685 0.0
C1378 C 0.31309 0.92787 0.35793 0.0
C1379 C 0.27037 0.92895 0.38298 0.0
C1380 C 0.24264 0.89008 0.41852 0.0
H1381 H 0.2783 0.94037 0.51035 0.0
H1382 H 0.29048 0.93146 0.47529 0.0
H1383 H 0.21294 0.8898 0.44482 0.0
H1384 H 0.34197 0.88262 0.35646 0.0
H1385 H 0.31418 0.85647 0.38439 0.0
H1386 H 0.32709 0.88256 0.41778 0.0
C1387 C 0.27508 0.91368 0.48304 0.0
C1388 C 0.23779 0.88734 0.43887 0.0
C1389 C 0.26813 0.91876 0.50299 0.0
C1390 C 0.32135 0.89537 0.36342 0.0
C1391 C 0.30549 0.88044 0.37932 0.0
C1392 C 0.30191 0.8831 0.42339 0.0
C1393 C 0.26078 0.88683 0.47294 0.0
C1394 C 0.26517 0.88388 0.45153 0.0
C1395 C 0.2816 0.89812 0.39008 0.0
C1396 C 0.27485 0.8887 0.4107 0.0
H1397 H 0.21816 0.85143 0.51052 0.0
H1398 H 0.22971 0.84332 0.47546 0.0
H1399 H 0.31844 0.87837 0.4533 0.0
H1400 H 0.27953 0.96895 0.36275 0.0
H1401 H 0.25203 0.94309 0.39111 0.0
C1402 C 0.85171 0.51483 0.6098 0.0
C1403 C 0.86835 0.54483 0.60644 0.0
C1404 C 0.86304 0.49336 0.62454 0.0
C1405 C 0.92738 0.4864 0.66458 0.0
H1406 H 0.84917 0.48027 0.69771 0.0
C1407 C 0.93105 0.46917 0.74967 0.0
C1408 C 0.90649 0.48615 0.76048 0.0
C1409 C 0.9307 0.46947 0.72911 0.0
C1410 C 0.87127 0.48199 0.68865 0.0
H1411 H 0.91234 0.57364 0.61312 0.0
H1412 H 0.93162 0.5371 0.63887 0.0
H1413 H 0.84271 0.48529 0.66233 0.0
H1414 H 0.86454 0.51967 0.75825 0.0
H1415 H 0.86473 0.52126 0.7223 0.0
H1416 H 0.95571 0.48597 0.69129 0.0
C1417 C 0.90999 0.52961 0.63049 0.0
C1418 C 0.86763 0.48401 0.66826 0.0
C1419 C 0.8987 0.55092 0.61588 0.0
C1420 C 0.88357 0.50606 0.75037 0.0
C1421 C 0.88337 0.50652 0.72977 0.0
C1422 C 0.93099 0.48475 0.68505 0.0
C1423 C 0.89097 0.50189 0.636 0.0
C1424 C 0.89557 0.48805 0.65606 0.0
C1425 C 0.90599 0.48704 0.71898 0.0
C1426 C 0.90285 0.48418 0.69729 0.0
H1427 H 0.82848 0.50947 0.6024 0.0
H1428 H 0.84832 0.47171 0.62816 0.0
H1429 H 0.94941 0.48884 0.65553 0.0
H1430 H 0.94934 0.45389 0.75706 0.0
H1431 H 0.94863 0.45447 0.72121 0.0
C1432 C 0.81956 0.88645 0.1171 0.0
C1433 C 0.81016 0.91953 0.12028 0.0
C1434 C 0.80451 0.86798 0.10226 0.0
C1435 C 0.80132 0.86147 0.05825 0.0
H1436 H 0.71293 0.8665 0.03596 0.0
C1437 C 0.77064 0.8945 0.97842 0.0
C1438 C 0.74385 0.87836 0.96932 0.0
C1439 C 0.77935 0.88648 -0.00221 0.0
C1440 C 0.73764 0.86421 0.04212 0.0
H1441 H 0.77544 0.95827 0.11255 0.0
H1442 H 0.74929 0.92615 0.0861 0.0
H1443 H 0.72067 0.87501 0.07144 0.0
H1444 H 0.70755 0.83872 0.97251 0.0
H1445 H 0.72242 0.8255 0.0064 0.0
H1446 H 0.81858 0.85332 0.02873 0.0
C1447 C 0.76792 0.91427 0.09519 0.0
C1448 C 0.74201 0.86918 0.06233 0.0
C1449 C 0.78287 0.93273 0.11024 0.0
C1450 C 0.72789 0.85215 0.97927 0.0
C1451 C 0.73637 0.84441 -0.00137 0.0
C1452 C 0.797 0.85697 0.03804 0.0
C1453 C 0.78025 0.88262 0.09028 0.0
C1454 C 0.77402 0.86904 0.07042 0.0
C1455 C 0.76131 0.86234 0.00824 0.0
C1456 C 0.7653 0.85954 0.02975 0.0
H1457 H 0.84045 0.87585 0.12497 0.0
H1458 H 0.81405 0.84347 0.09891 0.0
H1459 H 0.82638 0.86168 0.06405 0.0
H1460 H 0.78357 0.91457 0.97106 0.0
H1461 H 0.79864 0.90073 0.00502 0.0
C1462 C 0.40777 0.58366 0.86484 0.0
C1463 C 0.37605 0.57249 0.87015 0.0
C1464 C 0.42544 0.56754 0.85006 0.0
C1465 C 0.4265 0.55856 0.80642 0.0
H1466 H 0.42362 0.46759 0.78791 0.0
C1467 C 0.38527 0.5173 0.72973 0.0
C1468 C 0.4063 0.49574 0.71936 0.0
C1469 C 0.39276 0.52614 0.74912 0.0
C1470 C 0.42519 0.49302 0.79303 0.0
H1471 H 0.3394 0.53379 0.86639 0.0
H1472 H 0.3697 0.50611 0.83974 0.0
H1473 H 0.41976 0.4791 0.82343 0.0
H1474 H 0.45196 0.46702 0.72091 0.0
H1475 H 0.46426 0.48187 0.75507 0.0
H1476 H 0.42915 0.57259 0.776 0.0
C1477 C 0.38127 0.5269 0.8472 0.0
C1478 C 0.42295 0.49955 0.81323 0.0
C1479 C 0.36377 0.54282 0.86228 0.0
C1480 C 0.43537 0.48389 0.72851 0.0
C1481 C 0.44243 0.49218 0.74801 0.0
C1482 C 0.42822 0.55205 0.78631 0.0
C1483 C 0.41118 0.54053 0.84014 0.0
C1484 C 0.42237 0.53246 0.82 0.0
C1485 C 0.42098 0.51303 0.75845 0.0
C1486 C 0.42635 0.51936 0.7795 0.0
H1487 H 0.41789 0.60622 0.87117 0.0
H1488 H 0.44872 0.5781 0.84509 0.0
H1489 H 0.42561 0.58423 0.81116 0.0
H1490 H 0.36279 0.52675 0.72299 0.0
H1491 H 0.37582 0.54215 0.75712 0.0
C1492 C 0.77066 0.10412 0.61538 0.0
C1493 C 0.74411 0.1201 0.62475 0.0
C1494 C 0.78613 0.11928 0.59924 0.0
C1495 C 0.81416 0.15925 0.56421 0.0
H1496 H 0.73865 0.17473 0.52975 0.0
C1497 C 0.82376 0.18398 0.48 0.0
C1498 C 0.80947 0.15738 0.46955 0.0
C1499 C 0.81745 0.18804 0.5001 0.0
C1500 C 0.75992 0.17108 0.53929 0.0
H1501 H 0.71576 0.16561 0.6269 0.0
H1502 H 0.74309 0.19224 0.59897 0.0
H1503 H 0.7299 0.16846 0.56516 0.0
H1504 H 0.77606 0.11538 0.4715 0.0
H1505 H 0.76398 0.12333 0.50663 0.0
H1506 H 0.84388 0.16057 0.53792 0.0
C1507 C 0.75161 0.16801 0.60369 0.0
C1508 C 0.75507 0.16774 0.55952 0.0
C1509 C 0.73604 0.15282 0.61962 0.0
C1510 C 0.78733 0.13604 0.47924 0.0
C1511 C 0.78043 0.1406 0.49924 0.0
C1512 C 0.81908 0.1632 0.54392 0.0
C1513 C 0.77511 0.15045 0.59256 0.0
C1514 C 0.78199 0.16077 0.57208 0.0
C1515 C 0.79612 0.16609 0.50985 0.0
C1516 C 0.79181 0.16804 0.53134 0.0
H1517 H 0.77709 0.07881 0.61916 0.0
H1518 H 0.80417 0.10521 0.59083 0.0
H1519 H 0.8352 0.15376 0.57361 0.0
H1520 H 0.84119 0.20063 0.47292 0.0
H1521 H 0.8297 0.20783 0.50812 0.0
C1522 C 0.14457 0.49785 0.37405 0.0
C1523 C 0.17938 0.4987 0.37392 0.0
C1524 C 0.12678 0.5126 0.35869 0.0
C1525 C 0.11575 0.50775 0.31359 0.0
H1526 H 0.12941 0.59239 0.28763 0.0
C1527 C 0.1525 0.53108 0.23306 0.0
C1528 C 0.13304 0.55335 0.22216 0.0
C1529 C 0.14531 0.52516 0.25291 0.0
C1530 C 0.12466 0.56889 0.29486 0.0
H1531 H 0.223 0.51788 0.35924 0.0
H1532 H 0.1919 0.54509 0.33287 0.0
H1533 H 0.14011 0.58726 0.32314 0.0
H1534 H 0.09001 0.58586 0.22317 0.0
H1535 H 0.07849 0.57636 0.25814 0.0
H1536 H 0.1041 0.48849 0.28488 0.0
C1537 C 0.17832 0.53293 0.34464 0.0
C1538 C 0.13069 0.56602 0.31508 0.0
C1539 C 0.19611 0.51736 0.35963 0.0
C1540 C 0.10535 0.56839 0.23119 0.0
C1541 C 0.09869 0.56307 0.25114 0.0
C1542 C 0.11049 0.51045 0.2933 0.0
C1543 C 0.14374 0.52904 0.34347 0.0
C1544 C 0.12751 0.53512 0.32438 0.0
C1545 C 0.11902 0.54194 0.26217 0.0
C1546 C 0.11614 0.54073 0.28376 0.0
H1547 H 0.13138 0.48301 0.38485 0.0
H1548 H 0.10016 0.50906 0.35788 0.0
H1549 H 0.11368 0.48355 0.32044 0.0
H1550 H 0.1739 0.51917 0.22645 0.0
H1551 H 0.16146 0.509 0.26134 0.0
C1552 C 0.76824 0.60493 0.36629 0.0
C1553 C 0.7418 0.62088 0.35686 0.0
C1554 C 0.78443 0.62077 0.38191 0.0
C1555 C 0.81203 0.66077 0.4169 0.0
H1556 H 0.73492 0.67521 0.45031 0.0
C1557 C 0.81563 0.68096 0.5018 0.0
C1558 C 0.80314 0.65218 0.51098 0.0
C1559 C 0.81 0.68661 0.48181 0.0
C1560 C 0.75664 0.67195 0.44106 0.0
H1561 H 0.71448 0.66684 0.35382 0.0
H1562 H 0.74305 0.69468 0.38091 0.0
H1563 H 0.72795 0.6711 0.41466 0.0
H1564 H 0.77336 0.60794 0.50682 0.0
H1565 H 0.76243 0.61865 0.47179 0.0
H1566 H 0.84032 0.6601 0.44373 0.0
C1567 C 0.75104 0.67005 0.37659 0.0
C1568 C 0.75282 0.66987 0.4207 0.0
C1569 C 0.73471 0.65415 0.36119 0.0
C1570 C 0.78325 0.63023 0.5001 0.0
C1571 C 0.77702 0.63633 0.48017 0.0
C1572 C 0.81592 0.66349 0.43733 0.0
C1573 C 0.77415 0.65255 0.38802 0.0
C1574 C 0.78029 0.66305 0.40852 0.0
C1575 C 0.79113 0.66407 0.47088 0.0
C1576 C 0.78802 0.66784 0.44947 0.0
H1577 H 0.77389 0.5792 0.36308 0.0
H1578 H 0.80216 0.60675 0.39057 0.0
H1579 H 0.83345 0.65531 0.40778 0.0
H1580 H 0.83125 0.69825 0.50978 0.0
H1581 H 0.82099 0.70811 0.47477 0.0
C1582 C 0.19737 0.03105 0.61197 0.0
C1583 C 0.18265 0.99956 0.6108 0.0
C1584 C 0.18659 0.05367 0.62628 0.0
C1585 C 0.12588 0.06241 0.66816 0.0
H1586 H 0.20563 0.0839 0.69745 0.0
C1587 C 0.12417 0.08285 0.75249 0.0
C1588 C 0.15161 0.07056 0.76304 0.0
C1589 C 0.12462 0.08389 0.73194 0.0
C1590 C 0.1831 0.07785 0.68951 0.0
H1591 H 0.14235 0.96865 0.62135 0.0
H1592 H 0.12431 1.00704 0.64639 0.0
H1593 H 0.20939 0.07277 0.66241 0.0
H1594 H 0.20024 0.04813 0.76038 0.0
H1595 H 0.20019 0.04776 0.72441 0.0
H1596 H 0.10022 0.06381 0.69568 0.0
C1597 C 0.14397 1.0149 0.63655 0.0
C1598 C 0.1851 0.07229 0.66924 0.0
C1599 C 0.15468 0.9925 0.62236 0.0
C1600 C 0.1788 0.05777 0.75262 0.0
C1601 C 0.17896 0.05817 0.73202 0.0
C1602 C 0.12401 0.0672 0.68852 0.0
C1603 C 0.16104 0.04493 0.63949 0.0
C1604 C 0.15682 0.06248 0.65857 0.0
C1605 C 0.15224 0.07204 0.72145 0.0
C1606 C 0.15295 0.0732 0.69956 0.0
H1607 H 0.21867 0.03723 0.60293 0.0
H1608 H 0.19976 0.07693 0.62791 0.0
H1609 H 0.10346 0.05586 0.66024 0.0
H1610 H 0.10298 0.09336 0.76009 0.0
H1611 H 0.10372 0.09494 0.72435 0.0
C1612 C 0.77925 0.45756 0.86783 0.0
C1613 C 0.79573 0.43731 0.85422 0.0
C1614 C 0.75938 0.44343 0.88234 0.0
C1615 C 0.71784 0.40838 0.91245 0.0
H1616 H 0.7823 0.35626 0.94161 0.0
C1617 C 0.74333 0.36902 -0.00171 0.0
C1618 C 0.74031 0.40112 0.00635 0.0
C1619 C 0.74366 0.3644 0.97784 0.0
C1620 C 0.7636 0.37003 0.93355 0.0
H1621 H 0.80281 0.38702 0.84378 0.0
H1622 H 0.7687 0.3619 0.86985 0.0
H1623 H 0.7883 0.36265 0.90597 0.0
H1624 H 0.73754 0.45359 -0.00074 0.0
H1625 H 0.73838 0.44545 0.96371 0.0
H1626 H 0.69489 0.41811 0.94034 0.0
C1627 C 0.7706 0.38867 0.86902 0.0
C1628 C 0.76683 0.37349 0.91313 0.0
C1629 C 0.78996 0.40298 0.85415 0.0
C1630 C 0.73976 0.42855 -0.00641 0.0
C1631 C 0.73973 0.42389 0.97323 0.0
C1632 C 0.71471 0.40503 0.93284 0.0
C1633 C 0.75639 0.40875 0.88373 0.0
C1634 C 0.74523 0.39451 0.90267 0.0
C1635 C 0.74062 0.39177 0.96521 0.0
C1636 C 0.73878 0.38756 0.94363 0.0
H1637 H 0.78355 0.48411 0.86806 0.0
H1638 H 0.74911 0.45954 0.89361 0.0
H1639 H 0.70067 0.42436 0.90464 0.0
H1640 H 0.74397 0.34737 0.00776 0.0
H1641 H 0.74492 0.33946 0.97191 0.0
C1642 C 0.43082 0.98949 0.24623 0.0
C1643 C 0.39898 0.98754 0.25476 0.0
C1644 C 0.4347 0.98822 0.22573 0.0
C1645 C 0.42842 1.00545 0.18127 0.0
H1646 H 0.37168 0.94285 0.15372 0.0
C1647 C 0.34035 1.02044 0.1157 0.0
C1648 C 0.36088 0.03757 0.10254 0.0
C1649 C 0.35419 0.99995 0.13001 0.0
C1650 C 0.38826 0.95996 0.16115 0.0
H1651 H 0.34623 0.98477 0.24837 0.0
H1652 H 0.35309 0.98289 0.21274 0.0
H1653 H 0.37825 0.93873 0.18948 0.0
H1654 H 0.41131 0.04477 0.09242 0.0
H1655 H 0.43591 1.00929 0.11795 0.0
H1656 H 0.43619 0.02851 0.15328 0.0
C1657 C 0.37502 0.98462 0.22194 0.0
C1658 C 0.39181 0.95777 0.18158 0.0
C1659 C 0.3711 0.98623 0.24235 0.0
C1660 C 0.39513 0.03141 0.10243 0.0
C1661 C 0.40915 1.01131 0.11704 0.0
C1662 C 0.42472 1.00777 0.16082 0.0
C1663 C 0.40685 0.98465 0.2135 0.0
C1664 C 0.41029 0.98173 0.19188 0.0
C1665 C 0.38887 0.99697 0.13163 0.0
C1666 C 0.40287 0.98635 0.15079 0.0
H1667 H 0.45282 0.99061 0.2554 0.0
H1668 H 0.45945 0.98879 0.21949 0.0
H1669 H 0.44298 1.02406 0.18891 0.0
H1670 H 0.31386 0.02512 0.11599 0.0
H1671 H 0.33786 0.98955 0.1411 0.0
C1672 C 0.30295 0.40074 0.6149 0.0
C1673 C 0.29728 0.4314 0.62405 0.0
C1674 C 0.28258 0.3902 0.59961 0.0
C1675 C 0.24124 0.43405 0.56046 0.0
H1676 H 0.24184 0.34592 0.53749 0.0
C1677 C 0.25999 0.418 0.47781 0.0
C1678 C 0.23993 0.3946 0.46818 0.0
C1679 C 0.26174 0.41833 0.4984 0.0
C1680 C 0.24104 0.3707 0.54366 0.0
H1681 H 0.26331 0.47272 0.62689 0.0
H1682 H 0.227 0.45408 0.60007 0.0
H1683 H 0.24342 0.35221 0.57321 0.0
H1684 H 0.2089 0.35104 0.47237 0.0
H1685 H 0.21133 0.35221 0.50808 0.0
H1686 H 0.23856 0.45257 0.53101 0.0
C1687 C 0.24772 0.43857 0.60436 0.0
C1688 C 0.24201 0.3743 0.56415 0.0
C1689 C 0.2683 0.44917 0.61976 0.0
C1690 C 0.22423 0.36974 0.47938 0.0
C1691 C 0.22566 0.37032 0.49991 0.0
C1692 C 0.23972 0.43044 0.54004 0.0
C1693 C 0.25622 0.41029 0.59319 0.0
C1694 C 0.24392 0.40604 0.57272 0.0
C1695 C 0.2433 0.39545 0.50965 0.0
C1696 C 0.24124 0.3988 0.53139 0.0
H1697 H 0.32492 0.38632 0.61835 0.0
H1698 H 0.29001 0.36826 0.59151 0.0
H1699 H 0.24284 0.45893 0.56641 0.0
H1700 H 0.27265 0.43727 0.46959 0.0
H1701 H 0.27657 0.4373 0.50551 0.0
C1702 C 0.90925 0.05613 0.36914 0.0
C1703 C 0.87541 0.05346 0.37358 0.0
C1704 C 0.92314 0.03618 0.35453 0.0
C1705 C 0.90039 0.9752 0.31492 0.0
H1706 H 0.93826 0.04378 0.28161 0.0
C1707 C 0.8683 0.98812 0.23353 0.0
C1708 C 0.89417 0.99373 0.22005 0.0
C1709 C 0.87449 0.98903 0.25376 0.0
C1710 C 0.92837 1.02405 0.29074 0.0
H1711 H 0.83023 0.02592 0.3684 0.0
H1712 H 0.85365 0.99236 0.34202 0.0
H1713 H 0.93764 0.05129 0.317 0.0
H1714 H 0.94625 1.00668 0.21709 0.0
H1715 H 0.95673 1.00916 0.25257 0.0
H1716 H 0.88877 0.94942 0.28813 0.0
C1717 C 0.87005 1.00887 0.35001 0.0
C1718 C 0.92825 0.02812 0.31114 0.0
C1719 C 0.85642 0.02825 0.36502 0.0
C1720 C 0.92584 1.00224 0.22717 0.0
C1721 C 0.93193 1.00342 0.24742 0.0
C1722 C 0.90022 0.97132 0.29445 0.0
C1723 C 0.90291 1.0144 0.34366 0.0
C1724 C 0.91264 1.00458 0.32339 0.0
C1725 C 0.90652 0.99589 0.26083 0.0
C1726 C 0.91276 0.99652 0.28224 0.0
H1727 H 0.92432 0.07526 0.37596 0.0
H1728 H 0.94881 0.04022 0.35042 0.0
H1729 H 0.88886 0.9563 0.32399 0.0
H1730 H 0.8437 0.98131 0.22851 0.0
H1731 H 0.85427 0.98405 0.26389 0.0
C1732 C 0.27127 0.58922 0.11834 0.0
C1733 C 0.24959 0.61007 0.12863 0.0
C1734 C 0.29077 0.60217 0.10315 0.0
C1735 C 0.32679 0.63329 0.06896 0.0
H1736 H 0.26287 0.68398 0.03851 0.0
C1737 C 0.30423 0.67769 0.98337 0.0
C1738 C 0.30933 0.64679 0.97417 0.0
C1739 C 0.30327 0.68007 0.00393 0.0
C1740 C 0.28135 0.67045 0.04689 0.0
H1741 H 0.23398 0.66077 0.13347 0.0
H1742 H 0.26926 0.6838 0.10758 0.0
H1743 H 0.25518 0.67791 0.07379 0.0
H1744 H 0.31601 0.59401 0.97931 0.0
H1745 H 0.31389 0.59823 0.01512 0.0
H1746 H 0.35141 0.62391 0.04148 0.0
C1747 C 0.27058 0.65745 0.11062 0.0
C1748 C 0.27716 0.66713 0.0672 0.0
C1749 C 0.25061 0.64439 0.12549 0.0
C1750 C 0.31199 0.61818 0.9859 0.0
C1751 C 0.31134 0.62063 0.00641 0.0
C1752 C 0.33078 0.63638 0.04857 0.0
C1753 C 0.28883 0.63612 0.09829 0.0
C1754 C 0.29898 0.64724 0.07833 0.0
C1755 C 0.30768 0.65165 0.01558 0.0
C1756 C 0.30725 0.65377 0.03731 0.0
H1757 H 0.27049 0.5626 0.12055 0.0
H1758 H 0.30444 0.58494 0.09396 0.0
H1759 H 0.34434 0.61835 0.07717 0.0
H1760 H 0.30208 0.70019 0.97472 0.0
H1761 H 0.30005 0.7042 0.01071 0.0
C1762 C 0.65311 1.0089 0.88039 0.0
C1763 C 0.68743 1.00413 0.88223 0.0
C1764 C 0.64067 0.0279 0.86479 0.0
C1765 C 0.63097 0.02891 0.82052 0.0
H1766 H 0.67841 0.09811 0.79255 0.0
C1767 C 0.68801 0.05288 0.73937 0.0
C1768 C 0.66043 0.05031 0.72679 0.0
C1769 C 0.68369 0.0537 0.75978 0.0
C1770 C 0.66473 0.07889 0.80022 0.0
H1771 H 0.73582 1.01802 0.87123 0.0
H1772 H 0.7145 0.05158 0.84436 0.0
H1773 H 0.68169 0.09538 0.82852 0.0
H1774 H 0.6069 0.04402 0.72581 0.0
H1775 H 0.59959 0.04463 0.76163 0.0
H1776 H 0.61562 1.0113 0.79211 0.0
C1777 C 0.69691 0.04101 0.85469 0.0
C1778 C 0.66637 0.07751 0.82077 0.0
C1779 C 0.70924 1.02171 0.87004 0.0
C1780 C 0.62866 0.04615 0.73511 0.0
C1781 C 0.62439 0.0467 0.75558 0.0
C1782 C 0.62917 0.03042 0.79996 0.0
C1783 C 0.66256 0.04236 0.85108 0.0
C1784 C 0.65114 0.05133 0.83101 0.0
C1785 C 0.65177 0.05163 0.76803 0.0
C1786 C 0.64758 0.0543 0.78963 0.0
H1787 H 0.63598 0.99514 0.88961 0.0
H1788 H 0.6141 0.02878 0.86241 0.0
H1789 H 0.61914 1.00825 0.82794 0.0
H1790 H 0.71281 0.05609 0.73349 0.0
H1791 H 0.70533 0.05654 0.76913 0.0
loop_
_geom_bond_atom_site_label_1
_geom_bond_atom_site_label_2
_geom_bond_distance
_geom_bond_site_symmetry_2
_ccdc_geom_bond_type
Fe0 O2 1.918 . S
Fe0 O5 1.997 . S
Fe0 O6 2.002 . S
Fe0 O11 1.976 . S
Fe0 O14 1.996 . S
Fe1 O2 1.918 . S
Fe1 O9 1.997 . S
Fe1 O12 1.996 . S
Fe1 O16 1.976 . S
Fe1 O19 2.002 . S
O2 Fe0 1.918 . S
O2 Fe1 1.918 . S
O2 Fe3 1.918 . S
Fe3 O2 1.918 . S
Fe3 O4 2.002 . S
Fe3 O13 1.976 . S
Fe3 O17 1.996 . S
Fe3 O20 1.997 . S
O4 Fe3 2.002 . S
O4 C21 1.295 . S
O5 Fe0 1.997 . S
O5 C21 1.235 . S
O6 Fe0 2.002 . S
O6 C7 1.295 . S
C7 O6 1.295 . S
C7 O9 1.235 . S
C8 O13 1.287 . S
C8 O14 1.255 . S
O9 Fe1 1.997 . S
O9 C7 1.235 . S
C10 O16 1.287 . S
C10 O17 1.255 . S
O11 Fe0 1.976 . S
O11 C18 1.287 . S
O12 Fe1 1.996 . S
O12 C18 1.255 . S
O13 Fe3 1.976 . S
O13 C8 1.287 . S
O14 Fe0 1.996 . S
O14 C8 1.255 . S
C15 O19 1.295 . S
C15 O20 1.235 . S
O16 Fe1 1.976 . S
O16 C10 1.287 . S
O17 Fe3 1.996 . S
O17 C10 1.255 . S
C18 O11 1.287 . S
C18 O12 1.255 . S
O19 Fe1 2.002 . S
O19 C15 1.295 . S
O20 Fe3 1.997 . S
O20 C15 1.235 . S
C21 O4 1.295 . S
C21 O5 1.235 . S
Fe22 O24 1.918 . S
Fe22 O27 1.997 . S
Fe22 O28 2.002 . S
Fe22 O33 1.976 . S
Fe22 O36 1.996 . S
Fe23 O24 1.918 . S
Fe23 O31 1.997 . S
Fe23 O34 1.996 . S
Fe23 O38 1.976 . S
Fe23 O41 2.002 . S
O24 Fe22 1.918 . S
O24 Fe23 1.918 . S
O24 Fe25 1.918 . S
Fe25 O24 1.918 . S
Fe25 O26 2.002 . S
Fe25 O35 1.976 . S
Fe25 O39 1.996 . S
Fe25 O42 1.997 . S
O26 Fe25 2.002 . S
O26 C43 1.295 . S
O27 Fe22 1.997 . S
O27 C43 1.235 . S
O28 Fe22 2.002 . S
O28 C29 1.295 . S
C29 O28 1.295 . S
C29 O31 1.235 . S
C30 O35 1.287 . S
C30 O36 1.255 . S
O31 Fe23 1.997 . S
O31 C29 1.235 . S
C32 O38 1.287 . S
C32 O39 1.255 . S
O33 Fe22 1.976 . S
O33 C40 1.287 . S
O34 Fe23 1.996 . S
O34 C40 1.255 . S
O35 Fe25 1.976 . S
O35 C30 1.287 . S
O36 Fe22 1.996 . S
O36 C30 1.255 . S
C37 O41 1.295 . S
C37 O42 1.235 . S
O38 Fe23 1.976 . S
O38 C32 1.287 . S
O39 Fe25 1.996 . S
O39 C32 1.255 . S
C40 O33 1.287 . S
C40 O34 1.255 . S
O41 Fe23 2.002 . S
O41 C37 1.295 . S
O42 Fe25 1.997 . S
O42 C37 1.235 . S
C43 O26 1.295 . S
C43 O27 1.235 . S
Fe44 O46 1.918 . S
Fe44 O49 1.997 . S
Fe44 O50 2.002 . S
Fe44 O55 1.976 . S
Fe44 O58 1.996 . S
Fe45 O46 1.918 . S
Fe45 O53 1.997 . S
Fe45 O56 1.996 . S
Fe45 O60 1.976 . S
Fe45 O63 2.002 . S
O46 Fe44 1.918 . S
O46 Fe45 1.918 . S
O46 Fe47 1.918 . S
Fe47 O46 1.918 . S
Fe47 O48 2.002 . S
Fe47 O57 1.976 . S
Fe47 O61 1.996 . S
Fe47 O64 1.997 . S
O48 Fe47 2.002 . S
O48 C65 1.295 . S
O49 Fe44 1.997 . S
O49 C65 1.235 . S
O50 Fe44 2.002 . S
O50 C51 1.295 . S
C51 O50 1.295 . S
C51 O53 1.235 . S
C52 O57 1.287 . S
C52 O58 1.255 . S
O53 Fe45 1.997 . S
O53 C51 1.235 . S
C54 O60 1.287 . S
C54 O61 1.255 . S
O55 Fe44 1.976 . S
O55 C62 1.287 . S
O56 Fe45 1.996 . S
O56 C62 1.255 . S
O57 Fe47 1.976 . S
O57 C52 1.287 . S
O58 Fe44 1.996 . S
O58 C52 1.255 . S
C59 O63 1.295 . S
C59 O64 1.235 . S
O60 Fe45 1.976 . S
O60 C54 1.287 . S
O61 Fe47 1.996 . S
O61 C54 1.255 . S
C62 O55 1.287 . S
C62 O56 1.255 . S
O63 Fe45 2.002 . S
O63 C59 1.295 . S
O64 Fe47 1.997 . S
O64 C59 1.235 . S
C65 O48 1.295 . S
C65 O49 1.235 . S
Fe66 O68 1.918 . S
Fe66 O71 1.997 . S
Fe66 O72 2.002 . S
Fe66 O77 1.976 . S
Fe66 O80 1.996 . S
Fe67 O68 1.918 . S
Fe67 O75 1.997 . S
Fe67 O78 1.996 . S
Fe67 O82 1.976 . S
Fe67 O85 2.002 . S
O68 Fe66 1.918 . S
O68 Fe67 1.918 . S
O68 Fe69 1.918 . S
Fe69 O68 1.918 . S
Fe69 O70 2.002 . S
Fe69 O79 1.976 . S
Fe69 O83 1.996 . S
Fe69 O86 1.997 . S
O70 Fe69 2.002 . S
O70 C87 1.295 . S
O71 Fe66 1.997 . S
O71 C87 1.235 . S
O72 Fe66 2.002 . S
O72 C73 1.295 . S
C73 O72 1.295 . S
C73 O75 1.235 . S
C74 O79 1.287 . S
C74 O80 1.255 . S
O75 Fe67 1.997 . S
O75 C73 1.235 . S
C76 O82 1.287 . S
C76 O83 1.255 . S
O77 Fe66 1.976 . S
O77 C84 1.287 . S
O78 Fe67 1.996 . S
O78 C84 1.255 . S
O79 Fe69 1.976 . S
O79 C74 1.287 . S
O80 Fe66 1.996 . S
O80 C74 1.255 . S
C81 O85 1.295 . S
C81 O86 1.235 . S
O82 Fe67 1.976 . S
O82 C76 1.287 . S
O83 Fe69 1.996 . S
O83 C76 1.255 . S
C84 O77 1.287 . S
C84 O78 1.255 . S
O85 Fe67 2.002 . S
O85 C81 1.295 . S
O86 Fe69 1.997 . S
O86 C81 1.235 . S
C87 O70 1.295 . S
C87 O71 1.235 . S
Fe88 O90 1.918 . S
Fe88 O93 1.997 . S
Fe88 O94 2.002 . S
Fe88 O99 1.976 . S
Fe88 O102 1.996 . S
Fe89 O90 1.918 . S
Fe89 O97 1.997 . S
Fe89 O100 1.996 . S
Fe89 O104 1.976 . S
Fe89 O107 2.002 . S
O90 Fe88 1.918 . S
O90 Fe89 1.918 . S
O90 Fe91 1.918 . S
Fe91 O90 1.918 . S
Fe91 O92 2.002 . S
Fe91 O101 1.976 . S
Fe91 O105 1.996 . S
Fe91 O108 1.997 . S
O92 Fe91 2.002 . S
O92 C109 1.295 . S
O93 Fe88 1.997 . S
O93 C109 1.235 . S
O94 Fe88 2.002 . S
O94 C95 1.295 . S
C95 O94 1.295 . S
C95 O97 1.235 . S
C96 O101 1.287 . S
C96 O102 1.255 . S
O97 Fe89 1.997 . S
O97 C95 1.235 . S
C98 O104 1.287 . S
C98 O105 1.255 . S
O99 Fe88 1.976 . S
O99 C106 1.287 . S
O100 Fe89 1.996 . S
O100 C106 1.255 . S
O101 Fe91 1.976 . S
O101 C96 1.287 . S
O102 Fe88 1.996 . S
O102 C96 1.255 . S
C103 O107 1.295 . S
C103 O108 1.235 . S
O104 Fe89 1.976 . S
O104 C98 1.287 . S
O105 Fe91 1.996 . S
O105 C98 1.255 . S
C106 O99 1.287 . S
C106 O100 1.255 . S
O107 Fe89 2.002 . S
O107 C103 1.295 . S
O108 Fe91 1.997 . S
O108 C103 1.235 . S
C109 O92 1.295 . S
C109 O93 1.235 . S
Fe110 O112 1.918 . S
Fe110 O115 1.997 . S
Fe110 O116 2.002 . S
Fe110 O121 1.976 . S
Fe110 O124 1.996 . S
Fe111 O112 1.918 . S
Fe111 O119 1.997 . S
Fe111 O122 1.996 . S
Fe111 O126 1.976 . S
Fe111 O129 2.002 . S
O112 Fe110 1.918 . S
O112 Fe111 1.918 . S
O112 Fe113 1.918 . S
Fe113 O112 1.918 . S
Fe113 O114 2.002 . S
Fe113 O123 1.976 . S
Fe113 O127 1.996 . S
Fe113 O130 1.997 . S
O114 Fe113 2.002 . S
O114 C131 1.295 . S
O115 Fe110 1.997 . S
O115 C131 1.235 . S
O116 Fe110 2.002 . S
O116 C117 1.295 . S
C117 O116 1.295 . S
C117 O119 1.235 . S
C118 O123 1.287 . S
C118 O124 1.255 . S
O119 Fe111 1.997 . S
O119 C117 1.235 . S
C120 O126 1.287 . S
C120 O127 1.255 . S
O121 Fe110 1.976 . S
O121 C128 1.287 . S
O122 Fe111 1.996 . S
O122 C128 1.255 . S
O123 Fe113 1.976 . S
O123 C118 1.287 . S
O124 Fe110 1.996 . S
O124 C118 1.255 . S
C125 O129 1.295 . S
C125 O130 1.235 . S
O126 Fe111 1.976 . S
O126 C120 1.287 . S
O127 Fe113 1.996 . S
O127 C120 1.255 . S
C128 O121 1.287 . S
C128 O122 1.255 . S
O129 Fe111 2.002 . S
O129 C125 1.295 . S
O130 Fe113 1.997 . S
O130 C125 1.235 . S
C131 O114 1.295 . S
C131 O115 1.235 . S
Fe132 O134 1.918 . S
Fe132 O137 1.997 . S
Fe132 O138 2.002 . S
Fe132 O143 1.976 . S
Fe132 O146 1.996 . S
Fe133 O134 1.918 . S
Fe133 O141 1.997 . S
Fe133 O144 1.996 . S
Fe133 O148 1.976 . S
Fe133 O151 2.002 . S
O134 Fe132 1.918 . S
O134 Fe133 1.918 . S
O134 Fe135 1.918 . S
Fe135 O134 1.918 . S
Fe135 O136 2.002 . S
Fe135 O145 1.976 . S
Fe135 O149 1.996 . S
Fe135 O152 1.997 . S
O136 Fe135 2.002 . S
O136 C153 1.295 . S
O137 Fe132 1.997 . S
O137 C153 1.235 . S
O138 Fe132 2.002 . S
O138 C139 1.295 . S
C139 O138 1.295 . S
C139 O141 1.235 . S
C140 O145 1.287 . S
C140 O146 1.255 . S
O141 Fe133 1.997 . S
O141 C139 1.235 . S
C142 O148 1.287 . S
C142 O149 1.255 . S
O143 Fe132 1.976 . S
O143 C150 1.287 . S
O144 Fe133 1.996 . S
O144 C150 1.255 . S
O145 Fe135 1.976 . S
O145 C140 1.287 . S
O146 Fe132 1.996 . S
O146 C140 1.255 . S
C147 O151 1.295 . S
C147 O152 1.235 . S
O148 Fe133 1.976 . S
O148 C142 1.287 . S
O149 Fe135 1.996 . S
O149 C142 1.255 . S
C150 O143 1.287 . S
C150 O144 1.255 . S
O151 Fe133 2.002 . S
O151 C147 1.295 . S
O152 Fe135 1.997 . S
O152 C147 1.235 . S
C153 O136 1.295 . S
C153 O137 1.235 . S
Fe154 O156 1.918 . S
Fe154 O159 1.997 . S
Fe154 O160 2.002 . S
Fe154 O165 1.976 . S
Fe154 O168 1.996 . S
Fe155 O156 1.918 . S
Fe155 O163 1.997 . S
Fe155 O166 1.996 . S
Fe155 O170 1.976 . S
Fe155 O173 2.002 . S
O156 Fe154 1.918 . S
O156 Fe155 1.918 . S
O156 Fe157 1.918 . S
Fe157 O156 1.918 . S
Fe157 O158 2.002 . S
Fe157 O167 1.976 . S
Fe157 O171 1.996 . S
Fe157 O174 1.997 . S
O158 Fe157 2.002 . S
O158 C175 1.295 . S
O159 Fe154 1.997 . S
O159 C175 1.235 . S
O160 Fe154 2.002 . S
O160 C161 1.295 . S
C161 O160 1.295 . S
C161 O163 1.235 . S
C162 O167 1.287 . S
C162 O168 1.255 . S
O163 Fe155 1.997 . S
O163 C161 1.235 . S
C164 O170 1.287 . S
C164 O171 1.255 . S
O165 Fe154 1.976 . S
O165 C172 1.287 . S
O166 Fe155 1.996 . S
O166 C172 1.255 . S
O167 Fe157 1.976 . S
O167 C162 1.287 . S
O168 Fe154 1.996 . S
O168 C162 1.255 . S
C169 O173 1.295 . S
C169 O174 1.235 . S
O170 Fe155 1.976 . S
O170 C164 1.287 . S
O171 Fe157 1.996 . S
O171 C164 1.255 . S
C172 O165 1.287 . S
C172 O166 1.255 . S
O173 Fe155 2.002 . S
O173 C169 1.295 . S
O174 Fe157 1.997 . S
O174 C169 1.235 . S
C175 O158 1.295 . S
C175 O159 1.235 . S
Fe176 O178 1.918 . S
Fe176 O181 1.997 . S
Fe176 O182 2.002 . S
Fe176 O187 1.976 . S
Fe176 O190 1.996 . S
Fe177 O178 1.918 . S
Fe177 O185 1.997 . S
Fe177 O188 1.996 . S
Fe177 O192 1.976 . S
Fe177 O195 2.002 . S
O178 Fe176 1.918 . S
O178 Fe177 1.918 . S
O178 Fe179 1.918 . S
Fe179 O178 1.918 . S
Fe179 O180 2.002 . S
Fe179 O189 1.976 . S
Fe179 O193 1.996 . S
Fe179 O196 1.997 . S
O180 Fe179 2.002 . S
O180 C197 1.295 . S
O181 Fe176 1.997 . S
O181 C197 1.235 . S
O182 Fe176 2.002 . S
O182 C183 1.295 . S
C183 O182 1.295 . S
C183 O185 1.235 . S
C184 O189 1.287 . S
C184 O190 1.255 . S
O185 Fe177 1.997 . S
O185 C183 1.235 . S
C186 O192 1.287 . S
C186 O193 1.255 . S
O187 Fe176 1.976 . S
O187 C194 1.287 . S
O188 Fe177 1.996 . S
O188 C194 1.255 . S
O189 Fe179 1.976 . S
O189 C184 1.287 . S
O190 Fe176 1.996 . S
O190 C184 1.255 . S
C191 O195 1.295 . S
C191 O196 1.235 . S
O192 Fe177 1.976 . S
O192 C186 1.287 . S
O193 Fe179 1.996 . S
O193 C186 1.255 . S
C194 O187 1.287 . S
C194 O188 1.255 . S
O195 Fe177 2.002 . S
O195 C191 1.295 . S
O196 Fe179 1.997 . S
O196 C191 1.235 . S
C197 O180 1.295 . S
C197 O181 1.235 . S
Fe198 O200 1.918 . S
Fe198 O203 1.997 . S
Fe198 O204 2.002 . S
Fe198 O209 1.976 . S
Fe198 O212 1.996 . S
Fe199 O200 1.918 . S
Fe199 O207 1.997 . S
Fe199 O210 1.996 . S
Fe199 O214 1.976 . S
Fe199 O217 2.002 . S
O200 Fe198 1.918 . S
O200 Fe199 1.918 . S
O200 Fe201 1.918 . S
Fe201 O200 1.918 . S
Fe201 O202 2.002 . S
Fe201 O211 1.976 . S
Fe201 O215 1.996 . S
Fe201 O218 1.997 . S
O202 Fe201 2.002 . S
O202 C219 1.295 . S
O203 Fe198 1.997 . S
O203 C219 1.235 . S
O204 Fe198 2.002 . S
O204 C205 1.295 . S
C205 O204 1.295 . S
C205 O207 1.235 . S
C206 O211 1.287 . S
C206 O212 1.255 . S
O207 Fe199 1.997 . S
O207 C205 1.235 . S
C208 O214 1.287 . S
C208 O215 1.255 . S
O209 Fe198 1.976 . S
O209 C216 1.287 . S
O210 Fe199 1.996 . S
O210 C216 1.255 . S
O211 Fe201 1.976 . S
O211 C206 1.287 . S
O212 Fe198 1.996 . S
O212 C206 1.255 . S
C213 O217 1.295 . S
C213 O218 1.235 . S
O214 Fe199 1.976 . S
O214 C208 1.287 . S
O215 Fe201 1.996 . S
O215 C208 1.255 . S
C216 O209 1.287 . S
C216 O210 1.255 . S
O217 Fe199 2.002 . S
O217 C213 1.295 . S
O218 Fe201 1.997 . S
O218 C213 1.235 . S
C219 O202 1.295 . S
C219 O203 1.235 . S
Fe220 O222 1.918 . S
Fe220 O225 1.997 . S
Fe220 O226 2.002 . S
Fe220 O231 1.976 . S
Fe220 O234 1.996 . S
Fe221 O222 1.918 . S
Fe221 O229 1.997 . S
Fe221 O232 1.996 . S
Fe221 O236 1.976 . S
Fe221 O239 2.002 . S
O222 Fe220 1.918 . S
O222 Fe221 1.918 . S
O222 Fe223 1.918 . S
Fe223 O222 1.918 . S
Fe223 O224 2.002 . S
Fe223 O233 1.976 . S
Fe223 O237 1.996 . S
Fe223 O240 1.997 . S
O224 Fe223 2.002 . S
O224 C241 1.295 . S
O225 Fe220 1.997 . S
O225 C241 1.235 . S
O226 Fe220 2.002 . S
O226 C227 1.295 . S
C227 O226 1.295 . S
C227 O229 1.235 . S
C228 O233 1.287 . S
C228 O234 1.255 . S
O229 Fe221 1.997 . S
O229 C227 1.235 . S
C230 O236 1.287 . S
C230 O237 1.255 . S
O231 Fe220 1.976 . S
O231 C238 1.287 . S
O232 Fe221 1.996 . S
O232 C238 1.255 . S
O233 Fe223 1.976 . S
O233 C228 1.287 . S
O234 Fe220 1.996 . S
O234 C228 1.255 . S
C235 O239 1.295 . S
C235 O240 1.235 . S
O236 Fe221 1.976 . S
O236 C230 1.287 . S
O237 Fe223 1.996 . S
O237 C230 1.255 . S
C238 O231 1.287 . S
C238 O232 1.255 . S
O239 Fe221 2.002 . S
O239 C235 1.295 . S
O240 Fe223 1.997 . S
O240 C235 1.235 . S
C241 O224 1.295 . S
C241 O225 1.235 . S
Fe242 O244 1.918 . S
Fe242 O247 1.997 . S
Fe242 O248 2.002 . S
Fe242 O253 1.976 . S
Fe242 O256 1.996 . S
Fe243 O244 1.918 . S
Fe243 O251 1.997 . S
Fe243 O254 1.996 . S
Fe243 O258 1.976 . S
Fe243 O261 2.002 . S
O244 Fe242 1.918 . S
O244 Fe243 1.918 . S
O244 Fe245 1.918 . S
Fe245 O244 1.918 . S
Fe245 O246 2.002 . S
Fe245 O255 1.976 . S
Fe245 O259 1.996 . S
Fe245 O262 1.997 . S
O246 Fe245 2.002 . S
O246 C263 1.295 . S
O247 Fe242 1.997 . S
O247 C263 1.235 . S
O248 Fe242 2.002 . S
O248 C249 1.295 . S
C249 O248 1.295 . S
C249 O251 1.235 . S
C250 O255 1.287 . S
C250 O256 1.255 . S
O251 Fe243 1.997 . S
O251 C249 1.235 . S
C252 O258 1.287 . S
C252 O259 1.255 . S
O253 Fe242 1.976 . S
O253 C260 1.287 . S
O254 Fe243 1.996 . S
O254 C260 1.255 . S
O255 Fe245 1.976 . S
O255 C250 1.287 . S
O256 Fe242 1.996 . S
O256 C250 1.255 . S
C257 O261 1.295 . S
C257 O262 1.235 . S
O258 Fe243 1.976 . S
O258 C252 1.287 . S
O259 Fe245 1.996 . S
O259 C252 1.255 . S
C260 O253 1.287 . S
C260 O254 1.255 . S
O261 Fe243 2.002 . S
O261 C257 1.295 . S
O262 Fe245 1.997 . S
O262 C257 1.235 . S
C263 O246 1.295 . S
C263 O247 1.235 . S
Fe264 O266 1.918 . S
Fe264 O269 1.997 . S
Fe264 O270 2.002 . S
Fe264 O275 1.976 . S
Fe264 O278 1.996 . S
Fe265 O266 1.918 . S
Fe265 O273 1.997 . S
Fe265 O276 1.996 . S
Fe265 O280 1.976 . S
Fe265 O283 2.002 . S
O266 Fe264 1.918 . S
O266 Fe265 1.918 . S
O266 Fe267 1.918 . S
Fe267 O266 1.918 . S
Fe267 O268 2.002 . S
Fe267 O277 1.976 . S
Fe267 O281 1.996 . S
Fe267 O284 1.997 . S
O268 Fe267 2.002 . S
O268 C285 1.295 . S
O269 Fe264 1.997 . S
O269 C285 1.235 . S
O270 Fe264 2.002 . S
O270 C271 1.295 . S
C271 O270 1.295 . S
C271 O273 1.235 . S
C272 O277 1.287 . S
C272 O278 1.255 . S
O273 Fe265 1.997 . S
O273 C271 1.235 . S
C274 O280 1.287 . S
C274 O281 1.255 . S
O275 Fe264 1.976 . S
O275 C282 1.287 . S
O276 Fe265 1.996 . S
O276 C282 1.255 . S
O277 Fe267 1.976 . S
O277 C272 1.287 . S
O278 Fe264 1.996 . S
O278 C272 1.255 . S
C279 O283 1.295 . S
C279 O284 1.235 . S
O280 Fe265 1.976 . S
O280 C274 1.287 . S
O281 Fe267 1.996 . S
O281 C274 1.255 . S
C282 O275 1.287 . S
C282 O276 1.255 . S
O283 Fe265 2.002 . S
O283 C279 1.295 . S
O284 Fe267 1.997 . S
O284 C279 1.235 . S
C285 O268 1.295 . S
C285 O269 1.235 . S
Fe286 O288 1.918 . S
Fe286 O291 1.997 . S
Fe286 O292 2.002 . S
Fe286 O297 1.976 . S
Fe286 O300 1.996 . S
Fe287 O288 1.918 . S
Fe287 O295 1.997 . S
Fe287 O298 1.996 . S
Fe287 O302 1.976 . S
Fe287 O305 2.002 . S
O288 Fe286 1.918 . S
O288 Fe287 1.918 . S
O288 Fe289 1.918 . S
Fe289 O288 1.918 . S
Fe289 O290 2.002 . S
Fe289 O299 1.976 . S
Fe289 O303 1.996 . S
Fe289 O306 1.997 . S
O290 Fe289 2.002 . S
O290 C307 1.295 . S
O291 Fe286 1.997 . S
O291 C307 1.235 . S
O292 Fe286 2.002 . S
O292 C293 1.295 . S
C293 O292 1.295 . S
C293 O295 1.235 . S
C294 O299 1.287 . S
C294 O300 1.255 . S
O295 Fe287 1.997 . S
O295 C293 1.235 . S
C296 O302 1.287 . S
C296 O303 1.255 . S
O297 Fe286 1.976 . S
O297 C304 1.287 . S
O298 Fe287 1.996 . S
O298 C304 1.255 . S
O299 Fe289 1.976 . S
O299 C294 1.287 . S
O300 Fe286 1.996 . S
O300 C294 1.255 . S
C301 O305 1.295 . S
C301 O306 1.235 . S
O302 Fe287 1.976 . S
O302 C296 1.287 . S
O303 Fe289 1.996 . S
O303 C296 1.255 . S
C304 O297 1.287 . S
C304 O298 1.255 . S
O305 Fe287 2.002 . S
O305 C301 1.295 . S
O306 Fe289 1.997 . S
O306 C301 1.235 . S
C307 O290 1.295 . S
C307 O291 1.235 . S
Fe308 O310 1.918 . S
Fe308 O313 1.997 . S
Fe308 O314 2.002 . S
Fe308 O319 1.976 . S
Fe308 O322 1.996 . S
Fe309 O310 1.918 . S
Fe309 O317 1.997 . S
Fe309 O320 1.996 . S
Fe309 O324 1.976 . S
Fe309 O327 2.002 . S
O310 Fe308 1.918 . S
O310 Fe309 1.918 . S
O310 Fe311 1.918 . S
Fe311 O310 1.918 . S
Fe311 O312 2.002 . S
Fe311 O321 1.976 . S
Fe311 O325 1.996 . S
Fe311 O328 1.997 . S
O312 Fe311 2.002 . S
O312 C329 1.295 . S
O313 Fe308 1.997 . S
O313 C329 1.235 . S
O314 Fe308 2.002 . S
O314 C315 1.295 . S
C315 O314 1.295 . S
C315 O317 1.235 . S
C316 O321 1.287 . S
C316 O322 1.255 . S
O317 Fe309 1.997 . S
O317 C315 1.235 . S
C318 O324 1.287 . S
C318 O325 1.255 . S
O319 Fe308 1.976 . S
O319 C326 1.287 . S
O320 Fe309 1.996 . S
O320 C326 1.255 . S
O321 Fe311 1.976 . S
O321 C316 1.287 . S
O322 Fe308 1.996 . S
O322 C316 1.255 . S
C323 O327 1.295 . S
C323 O328 1.235 . S
O324 Fe309 1.976 . S
O324 C318 1.287 . S
O325 Fe311 1.996 . S
O325 C318 1.255 . S
C326 O319 1.287 . S
C326 O320 1.255 . S
O327 Fe309 2.002 . S
O327 C323 1.295 . S
O328 Fe311 1.997 . S
O328 C323 1.235 . S
C329 O312 1.295 . S
C329 O313 1.235 . S
Fe330 O332 1.918 . S
Fe330 O335 1.997 . S
Fe330 O336 2.002 . S
Fe330 O341 1.976 . S
Fe330 O344 1.996 . S
Fe331 O332 1.918 . S
Fe331 O339 1.997 . S
Fe331 O342 1.996 . S
Fe331 O346 1.976 . S
Fe331 O349 2.002 . S
O332 Fe330 1.918 . S
O332 Fe331 1.918 . S
O332 Fe333 1.918 . S
Fe333 O332 1.918 . S
Fe333 O334 2.002 . S
Fe333 O343 1.976 . S
Fe333 O347 1.996 . S
Fe333 O350 1.997 . S
O334 Fe333 2.002 . S
O334 C351 1.295 . S
O335 Fe330 1.997 . S
O335 C351 1.235 . S
O336 Fe330 2.002 . S
O336 C337 1.295 . S
C337 O336 1.295 . S
C337 O339 1.235 . S
C338 O343 1.287 . S
C338 O344 1.255 . S
O339 Fe331 1.997 . S
O339 C337 1.235 . S
C340 O346 1.287 . S
C340 O347 1.255 . S
O341 Fe330 1.976 . S
O341 C348 1.287 . S
O342 Fe331 1.996 . S
O342 C348 1.255 . S
O343 Fe333 1.976 . S
O343 C338 1.287 . S
O344 Fe330 1.996 . S
O344 C338 1.255 . S
C345 O349 1.295 . S
C345 O350 1.235 . S
O346 Fe331 1.976 . S
O346 C340 1.287 . S
O347 Fe333 1.996 . S
O347 C340 1.255 . S
C348 O341 1.287 . S
C348 O342 1.255 . S
O349 Fe331 2.002 . S
O349 C345 1.295 . S
O350 Fe333 1.997 . S
O350 C345 1.235 . S
C351 O334 1.295 . S
C351 O335 1.235 . S
C352 C353 1.349 . S
C352 C354 1.327 . S
C352 H377 0.950 . S
C353 C352 1.349 . S
C353 C369 1.349 . S
C354 C352 1.327 . S
C354 C373 1.429 . S
C354 H378 0.950 . S
C355 C372 1.574 . S
C355 C374 1.368 . S
C355 H379 0.949 . S
H356 C360 0.949 . S
C357 C358 1.349 . S
C357 C359 1.327 . S
C357 H380 0.950 . S
C358 C357 1.349 . S
C358 C370 1.349 . S
C359 C357 1.327 . S
C359 C375 1.429 . S
C359 H381 0.950 . S
C360 H356 0.949 . S
C360 C368 1.574 . S
C360 C376 1.368 . S
H361 C369 0.950 . S
H362 C367 0.950 . S
H363 C368 0.949 . S
H364 C370 0.950 . S
H365 C371 0.950 . S
H366 C372 0.949 . S
C367 H362 0.950 . S
C367 C369 1.327 . S
C367 C373 1.429 . S
C368 C360 1.574 . S
C368 H363 0.949 . S
C368 C374 1.368 . S
C369 C353 1.349 . S
C369 H361 0.950 . S
C369 C367 1.327 . S
C370 C358 1.349 . S
C370 H364 0.950 . S
C370 C371 1.327 . S
C371 H365 0.950 . S
C371 C370 1.327 . S
C371 C375 1.429 . S
C372 C355 1.574 . S
C372 H366 0.949 . S
C372 C376 1.368 . S
C373 C354 1.429 . S
C373 C367 1.429 . S
C373 C374 1.523 . S
C374 C355 1.368 . S
C374 C368 1.368 . S
C374 C373 1.523 . S
C375 C359 1.429 . S
C375 C371 1.429 . S
C375 C376 1.523 . S
C376 C360 1.368 . S
C376 C372 1.368 . S
C376 C375 1.523 . S
H377 C352 0.950 . S
H378 C354 0.950 . S
H379 C355 0.949 . S
H380 C357 0.950 . S
H381 C359 0.950 . S
C382 C383 1.349 . S
C382 C384 1.327 . S
C382 H407 0.950 . S
C383 C382 1.349 . S
C383 C399 1.349 . S
C384 C382 1.327 . S
C384 C403 1.429 . S
C384 H408 0.950 . S
C385 C402 1.574 . S
C385 C404 1.368 . S
C385 H409 0.949 . S
H386 C390 0.949 . S
C387 C388 1.349 . S
C387 C389 1.327 . S
C387 H410 0.950 . S
C388 C387 1.349 . S
C388 C400 1.349 . S
C389 C387 1.327 . S
C389 C405 1.429 . S
C389 H411 0.950 . S
C390 H386 0.949 . S
C390 C398 1.574 . S
C390 C406 1.368 . S
H391 C399 0.950 . S
H392 C397 0.950 . S
H393 C398 0.949 . S
H394 C400 0.950 . S
H395 C401 0.950 . S
H396 C402 0.949 . S
C397 H392 0.950 . S
C397 C399 1.327 . S
C397 C403 1.429 . S
C398 C390 1.574 . S
C398 H393 0.949 . S
C398 C404 1.368 . S
C399 C383 1.349 . S
C399 H391 0.950 . S
C399 C397 1.327 . S
C400 C388 1.349 . S
C400 H394 0.950 . S
C400 C401 1.327 . S
C401 H395 0.950 . S
C401 C400 1.327 . S
C401 C405 1.429 . S
C402 C385 1.574 . S
C402 H396 0.949 . S
C402 C406 1.368 . S
C403 C384 1.429 . S
C403 C397 1.429 . S
C403 C404 1.523 . S
C404 C385 1.368 . S
C404 C398 1.368 . S
C404 C403 1.523 . S
C405 C389 1.429 . S
C405 C401 1.429 . S
C405 C406 1.523 . S
C406 C390 1.368 . S
C406 C402 1.368 . S
C406 C405 1.523 . S
H407 C382 0.950 . S
H408 C384 0.950 . S
H409 C385 0.949 . S
H410 C387 0.950 . S
H411 C389 0.950 . S
C412 C413 1.349 . S
C412 C414 1.327 . S
C412 H437 0.950 . S
C413 C412 1.349 . S
C413 C429 1.349 . S
C414 C412 1.327 . S
C414 C433 1.429 . S
C414 H438 0.950 . S
C415 C432 1.574 1_455 S
C415 C434 1.368 . S
C415 H439 0.949 . S
H416 C420 0.949 . S
C417 C418 1.349 . S
C417 C419 1.327 . S
C417 H440 0.950 . S
C418 C417 1.349 . S
C418 C430 1.349 . S
C419 C417 1.327 . S
C419 C435 1.429 . S
C419 H441 0.950 . S
C420 H416 0.949 . S
C420 C428 1.574 1_655 S
C420 C436 1.368 . S
H421 C429 0.950 . S
H422 C427 0.950 . S
H423 C428 0.949 . S
H424 C430 0.950 . S
H425 C431 0.950 . S
H426 C432 0.949 . S
C427 H422 0.950 . S
C427 C429 1.327 . S
C427 C433 1.429 . S
C428 C420 1.574 1_455 S
C428 H423 0.949 . S
C428 C434 1.368 . S
C429 C413 1.349 . S
C429 H421 0.950 . S
C429 C427 1.327 . S
C430 C418 1.349 . S
C430 H424 0.950 . S
C430 C431 1.327 . S
C431 H425 0.950 . S
C431 C430 1.327 . S
C431 C435 1.429 . S
C432 C415 1.574 1_655 S
C432 H426 0.949 . S
C432 C436 1.368 . S
C433 C414 1.429 . S
C433 C427 1.429 . S
C433 C434 1.523 . S
C434 C415 1.368 . S
C434 C428 1.368 . S
C434 C433 1.523 . S
C435 C419 1.429 . S
C435 C431 1.429 . S
C435 C436 1.523 . S
C436 C420 1.368 . S
C436 C432 1.368 . S
C436 C435 1.523 . S
H437 C412 0.950 . S
H438 C414 0.950 . S
H439 C415 0.949 . S
H440 C417 0.950 . S
H441 C419 0.950 . S
C442 C443 1.349 . S
C442 C444 1.327 . S
C442 H467 0.950 . S
C443 C442 1.349 . S
C443 C459 1.349 . S
C444 C442 1.327 . S
C444 C463 1.429 . S
C444 H468 0.950 . S
C445 C462 1.574 . S
C445 C464 1.368 . S
C445 H469 0.949 . S
H446 C450 0.949 . S
C447 C448 1.349 . S
C447 C449 1.327 . S
C447 H470 0.950 . S
C448 C447 1.349 . S
C448 C460 1.349 . S
C449 C447 1.327 . S
C449 C465 1.429 . S
C449 H471 0.950 . S
C450 H446 0.949 . S
C450 C458 1.574 . S
C450 C466 1.368 . S
H451 C459 0.950 . S
H452 C457 0.950 . S
H453 C458 0.949 . S
H454 C460 0.950 . S
H455 C461 0.950 . S
H456 C462 0.949 . S
C457 H452 0.950 . S
C457 C459 1.327 . S
C457 C463 1.429 . S
C458 C450 1.574 . S
C458 H453 0.949 . S
C458 C464 1.368 1_655 S
C459 C443 1.349 . S
C459 H451 0.950 . S
C459 C457 1.327 . S
C460 C448 1.349 . S
C460 H454 0.950 . S
C460 C461 1.327 . S
C461 H455 0.950 . S
C461 C460 1.327 . S
C461 C465 1.429 . S
C462 C445 1.574 . S
C462 H456 0.949 . S
C462 C466 1.368 1_455 S
C463 C444 1.429 . S
C463 C457 1.429 . S
C463 C464 1.523 . S
C464 C445 1.368 . S
C464 C458 1.368 1_455 S
C464 C463 1.523 . S
C465 C449 1.429 . S
C465 C461 1.429 . S
C465 C466 1.523 . S
C466 C450 1.368 . S
C466 C462 1.368 1_655 S
C466 C465 1.523 . S
H467 C442 0.950 . S
H468 C444 0.950 . S
H469 C445 0.949 . S
H470 C447 0.950 . S
H471 C449 0.950 . S
C472 C473 1.349 . S
C472 C474 1.327 . S
C472 H497 0.950 . S
C473 C472 1.349 . S
C473 C489 1.349 . S
C474 C472 1.327 . S
C474 C493 1.429 . S
C474 H498 0.950 . S
C475 C492 1.574 . S
C475 C494 1.368 . S
C475 H499 0.949 . S
H476 C480 0.949 . S
C477 C478 1.349 . S
C477 C479 1.327 . S
C477 H500 0.950 . S
C478 C477 1.349 . S
C478 C490 1.349 . S
C479 C477 1.327 . S
C479 C495 1.429 . S
C479 H501 0.950 . S
C480 H476 0.949 . S
C480 C488 1.574 . S
C480 C496 1.368 . S
H481 C489 0.950 . S
H482 C487 0.950 . S
H483 C488 0.949 . S
H484 C490 0.950 . S
H485 C491 0.950 . S
H486 C492 0.949 . S
C487 H482 0.950 . S
C487 C489 1.327 . S
C487 C493 1.429 . S
C488 C480 1.574 . S
C488 H483 0.949 . S
C488 C494 1.368 . S
C489 C473 1.349 . S
C489 H481 0.950 . S
C489 C487 1.327 . S
C490 C478 1.349 . S
C490 H484 0.950 . S
C490 C491 1.327 . S
C491 H485 0.950 . S
C491 C490 1.327 . S
C491 C495 1.429 . S
C492 C475 1.574 . S
C492 H486 0.949 . S
C492 C496 1.368 . S
C493 C474 1.429 . S
C493 C487 1.429 . S
C493 C494 1.523 . S
C494 C475 1.368 . S
C494 C488 1.368 . S
C494 C493 1.523 . S
C495 C479 1.429 . S
C495 C491 1.429 . S
C495 C496 1.523 . S
C496 C480 1.368 . S
C496 C492 1.368 . S
C496 C495 1.523 . S
H497 C472 0.950 . S
H498 C474 0.950 . S
H499 C475 0.949 . S
H500 C477 0.950 . S
H501 C479 0.950 . S
C502 C503 1.349 . S
C502 C504 1.327 . S
C502 H527 0.950 . S
C503 C502 1.349 . S
C503 C519 1.349 . S
C504 C502 1.327 . S
C504 C523 1.429 . S
C504 H528 0.950 . S
C505 C522 1.574 . S
C505 C524 1.368 . S
C505 H529 0.949 . S
H506 C510 0.949 . S
C507 C508 1.349 . S
C507 C509 1.327 . S
C507 H530 0.950 . S
C508 C507 1.349 . S
C508 C520 1.349 . S
C509 C507 1.327 . S
C509 C525 1.429 . S
C509 H531 0.950 . S
C510 H506 0.949 . S
C510 C518 1.574 . S
C510 C526 1.368 . S
H511 C519 0.950 . S
H512 C517 0.950 . S
H513 C518 0.949 . S
H514 C520 0.950 . S
H515 C521 0.950 . S
H516 C522 0.949 . S
C517 H512 0.950 . S
C517 C519 1.327 . S
C517 C523 1.429 . S
C518 C510 1.574 . S
C518 H513 0.949 . S
C518 C524 1.368 . S
C519 C503 1.349 . S
C519 H511 0.950 . S
C519 C517 1.327 . S
C520 C508 1.349 . S
C520 H514 0.950 . S
C520 C521 1.327 . S
C521 H515 0.950 . S
C521 C520 1.327 . S
C521 C525 1.429 . S
C522 C505 1.574 . S
C522 H516 0.949 . S
C522 C526 1.368 . S
C523 C504 1.429 . S
C523 C517 1.429 . S
C523 C524 1.523 . S
C524 C505 1.368 . S
C524 C518 1.368 . S
C524 C523 1.523 . S
C525 C509 1.429 . S
C525 C521 1.429 . S
C525 C526 1.523 . S
C526 C510 1.368 . S
C526 C522 1.368 . S
C526 C525 1.523 . S
H527 C502 0.950 . S
H528 C504 0.950 . S
H529 C505 0.949 . S
H530 C507 0.950 . S
H531 C509 0.950 . S
C532 C533 1.349 . S
C532 C534 1.327 . S
C532 H557 0.950 . S
C533 C532 1.349 . S
C533 C549 1.349 . S
C534 C532 1.327 . S
C534 C553 1.429 . S
C534 H558 0.950 . S
C535 C552 1.574 1_455 S
C535 C554 1.368 . S
C535 H559 0.949 . S
H536 C540 0.949 . S
C537 C538 1.349 . S
C537 C539 1.327 . S
C537 H560 0.950 . S
C538 C537 1.349 . S
C538 C550 1.349 . S
C539 C537 1.327 . S
C539 C555 1.429 . S
C539 H561 0.950 . S
C540 H536 0.949 . S
C540 C548 1.574 1_655 S
C540 C556 1.368 . S
H541 C549 0.950 . S
H542 C547 0.950 . S
H543 C548 0.949 . S
H544 C550 0.950 . S
H545 C551 0.950 . S
H546 C552 0.949 . S
C547 H542 0.950 . S
C547 C549 1.327 . S
C547 C553 1.429 . S
C548 C540 1.574 1_455 S
C548 H543 0.949 . S
C548 C554 1.368 . S
C549 C533 1.349 . S
C549 H541 0.950 . S
C549 C547 1.327 . S
C550 C538 1.349 . S
C550 H544 0.950 . S
C550 C551 1.327 . S
C551 H545 0.950 . S
C551 C550 1.327 . S
C551 C555 1.429 . S
C552 C535 1.574 1_655 S
C552 H546 0.949 . S
C552 C556 1.368 . S
C553 C534 1.429 . S
C553 C547 1.429 . S
C553 C554 1.523 . S
C554 C535 1.368 . S
C554 C548 1.368 . S
C554 C553 1.523 . S
C555 C539 1.429 . S
C555 C551 1.429 . S
C555 C556 1.523 . S
C556 C540 1.368 . S
C556 C552 1.368 . S
C556 C555 1.523 . S
H557 C532 0.950 . S
H558 C534 0.950 . S
H559 C535 0.949 . S
H560 C537 0.950 . S
H561 C539 0.950 . S
C562 C563 1.349 . S
C562 C564 1.327 . S
C562 H587 0.950 . S
C563 C562 1.349 . S
C563 C579 1.349 . S
C564 C562 1.327 . S
C564 C583 1.429 . S
C564 H588 0.950 . S
C565 C582 1.574 . S
C565 C584 1.368 1_655 S
C565 H589 0.949 . S
H566 C570 0.949 . S
C567 C568 1.349 . S
C567 C569 1.327 . S
C567 H590 0.950 . S
C568 C567 1.349 . S
C568 C580 1.349 . S
C569 C567 1.327 . S
C569 C585 1.429 . S
C569 H591 0.950 . S
C570 H566 0.949 . S
C570 C578 1.574 . S
C570 C586 1.368 1_455 S
H571 C579 0.950 . S
H572 C577 0.950 . S
H573 C578 0.949 . S
H574 C580 0.950 . S
H575 C581 0.950 . S
H576 C582 0.949 . S
C577 H572 0.950 . S
C577 C579 1.327 . S
C577 C583 1.429 . S
C578 C570 1.574 . S
C578 H573 0.949 . S
C578 C584 1.368 . S
C579 C563 1.349 . S
C579 H571 0.950 . S
C579 C577 1.327 . S
C580 C568 1.349 . S
C580 H574 0.950 . S
C580 C581 1.327 . S
C581 H575 0.950 . S
C581 C580 1.327 . S
C581 C585 1.429 . S
C582 C565 1.574 . S
C582 H576 0.949 . S
C582 C586 1.368 . S
C583 C564 1.429 . S
C583 C577 1.429 . S
C583 C584 1.523 . S
C584 C565 1.368 1_455 S
C584 C578 1.368 . S
C584 C583 1.523 . S
C585 C569 1.429 . S
C585 C581 1.429 . S
C585 C586 1.523 . S
C586 C570 1.368 1_655 S
C586 C582 1.368 . S
C586 C585 1.523 . S
H587 C562 0.950 . S
H588 C564 0.950 . S
H589 C565 0.949 . S
H590 C567 0.950 . S
H591 C569 0.950 . S
C592 C593 1.349 . S
C592 C594 1.327 . S
C592 H617 0.950 . S
C593 C592 1.349 . S
C593 C609 1.349 . S
C594 C592 1.327 . S
C594 C613 1.429 . S
C594 H618 0.950 . S
C595 C612 1.574 1_554 S
C595 C614 1.368 1_565 S
C595 H619 0.949 . S
H596 C600 0.949 . S
C597 C598 1.349 . S
C597 C599 1.327 . S
C597 H620 0.950 . S
C598 C597 1.349 . S
C598 C610 1.349 . S
C599 C597 1.327 . S
C599 C615 1.429 . S
C599 H621 0.950 . S
C600 H596 0.949 . S
C600 C608 1.574 1_556 S
C600 C616 1.368 1_545 S
H601 C609 0.950 . S
H602 C607 0.950 1_565 S
H603 C608 0.949 . S
H604 C610 0.950 . S
H605 C611 0.950 1_545 S
H606 C612 0.949 . S
C607 H602 0.950 1_545 S
C607 C609 1.327 . S
C607 C613 1.429 . S
C608 C600 1.574 1_554 S
C608 H603 0.949 . S
C608 C614 1.368 . S
C609 C593 1.349 . S
C609 H601 0.950 . S
C609 C607 1.327 . S
C610 C598 1.349 . S
C610 H604 0.950 . S
C610 C611 1.327 . S
C611 H605 0.950 1_565 S
C611 C610 1.327 . S
C611 C615 1.429 . S
C612 C595 1.574 1_556 S
C612 H606 0.949 . S
C612 C616 1.368 . S
C613 C594 1.429 . S
C613 C607 1.429 . S
C613 C614 1.523 . S
C614 C595 1.368 1_545 S
C614 C608 1.368 . S
C614 C613 1.523 . S
C615 C599 1.429 . S
C615 C611 1.429 . S
C615 C616 1.523 . S
C616 C600 1.368 1_565 S
C616 C612 1.368 . S
C616 C615 1.523 . S
H617 C592 0.950 . S
H618 C594 0.950 . S
H619 C595 0.949 . S
H620 C597 0.950 . S
H621 C599 0.950 . S
C622 C623 1.349 . S
C622 C624 1.327 . S
C622 H647 0.950 . S
C623 C622 1.349 . S
C623 C639 1.349 . S
C624 C622 1.327 . S
C624 C643 1.429 . S
C624 H648 0.950 . S
C625 C642 1.574 . S
C625 C644 1.368 . S
C625 H649 0.949 . S
H626 C630 0.949 . S
C627 C628 1.349 . S
C627 C629 1.327 . S
C627 H650 0.950 . S
C628 C627 1.349 . S
C628 C640 1.349 . S
C629 C627 1.327 . S
C629 C645 1.429 . S
C629 H651 0.950 . S
C630 H626 0.949 . S
C630 C638 1.574 . S
C630 C646 1.368 . S
H631 C639 0.950 . S
H632 C637 0.950 . S
H633 C638 0.949 . S
H634 C640 0.950 . S
H635 C641 0.950 . S
H636 C642 0.949 . S
C637 H632 0.950 . S
C637 C639 1.327 . S
C637 C643 1.429 . S
C638 C630 1.574 . S
C638 H633 0.949 . S
C638 C644 1.368 . S
C639 C623 1.349 . S
C639 H631 0.950 . S
C639 C637 1.327 . S
C640 C628 1.349 . S
C640 H634 0.950 . S
C640 C641 1.327 . S
C641 H635 0.950 . S
C641 C640 1.327 . S
C641 C645 1.429 . S
C642 C625 1.574 . S
C642 H636 0.949 . S
C642 C646 1.368 . S
C643 C624 1.429 . S
C643 C637 1.429 . S
C643 C644 1.523 . S
C644 C625 1.368 . S
C644 C638 1.368 . S
C644 C643 1.523 . S
C645 C629 1.429 . S
C645 C641 1.429 . S
C645 C646 1.523 . S
C646 C630 1.368 . S
C646 C642 1.368 . S
C646 C645 1.523 . S
H647 C622 0.950 . S
H648 C624 0.950 . S
H649 C625 0.949 . S
H650 C627 0.950 . S
H651 C629 0.950 . S
C652 C653 1.349 . S
C652 C654 1.327 . S
C652 H677 0.950 . S
C653 C652 1.349 . S
C653 C669 1.349 . S
C654 C652 1.327 . S
C654 C673 1.429 . S
C654 H678 0.950 . S
C655 C672 1.574 . S
C655 C674 1.368 1_545 S
C655 H679 0.949 . S
H656 C660 0.949 . S
C657 C658 1.349 . S
C657 C659 1.327 . S
C657 H680 0.950 . S
C658 C657 1.349 . S
C658 C670 1.349 . S
C659 C657 1.327 . S
C659 C675 1.429 . S
C659 H681 0.950 . S
C660 H656 0.949 . S
C660 C668 1.574 . S
C660 C676 1.368 1_565 S
H661 C669 0.950 . S
H662 C667 0.950 1_545 S
H663 C668 0.949 . S
H664 C670 0.950 . S
H665 C671 0.950 1_565 S
H666 C672 0.949 . S
C667 H662 0.950 1_565 S
C667 C669 1.327 . S
C667 C673 1.429 . S
C668 C660 1.574 . S
C668 H663 0.949 . S
C668 C674 1.368 1_655 S
C669 C653 1.349 . S
C669 H661 0.950 . S
C669 C667 1.327 . S
C670 C658 1.349 . S
C670 H664 0.950 . S
C670 C671 1.327 . S
C671 H665 0.950 1_545 S
C671 C670 1.327 . S
C671 C675 1.429 . S
C672 C655 1.574 . S
C672 H666 0.949 . S
C672 C676 1.368 1_455 S
C673 C654 1.429 . S
C673 C667 1.429 . S
C673 C674 1.523 . S
C674 C655 1.368 1_565 S
C674 C668 1.368 1_455 S
C674 C673 1.523 . S
C675 C659 1.429 . S
C675 C671 1.429 . S
C675 C676 1.523 . S
C676 C660 1.368 1_545 S
C676 C672 1.368 1_655 S
C676 C675 1.523 . S
H677 C652 0.950 . S
H678 C654 0.950 . S
H679 C655 0.949 . S
H680 C657 0.950 . S
H681 C659 0.950 . S
C682 C683 1.349 . S
C682 C684 1.327 . S
C682 H707 0.950 . S
C683 C682 1.349 . S
C683 C699 1.349 . S
C684 C682 1.327 . S
C684 C703 1.429 . S
C684 H708 0.950 . S
C685 C702 1.574 . S
C685 C704 1.368 . S
C685 H709 0.949 . S
H686 C690 0.949 . S
C687 C688 1.349 . S
C687 C689 1.327 . S
C687 H710 0.950 . S
C688 C687 1.349 . S
C688 C700 1.349 . S
C689 C687 1.327 . S
C689 C705 1.429 . S
C689 H711 0.950 . S
C690 H686 0.949 . S
C690 C698 1.574 . S
C690 C706 1.368 . S
H691 C699 0.950 . S
H692 C697 0.950 . S
H693 C698 0.949 . S
H694 C700 0.950 . S
H695 C701 0.950 . S
H696 C702 0.949 . S
C697 H692 0.950 . S
C697 C699 1.327 . S
C697 C703 1.429 . S
C698 C690 1.574 . S
C698 H693 0.949 . S
C698 C704 1.368 . S
C699 C683 1.349 . S
C699 H691 0.950 . S
C699 C697 1.327 . S
C700 C688 1.349 . S
C700 H694 0.950 . S
C700 C701 1.327 . S
C701 H695 0.950 . S
C701 C700 1.327 . S
C701 C705 1.429 . S
C702 C685 1.574 . S
C702 H696 0.949 . S
C702 C706 1.368 . S
C703 C684 1.429 . S
C703 C697 1.429 . S
C703 C704 1.523 . S
C704 C685 1.368 . S
C704 C698 1.368 . S
C704 C703 1.523 . S
C705 C689 1.429 . S
C705 C701 1.429 . S
C705 C706 1.523 . S
C706 C690 1.368 . S
C706 C702 1.368 . S
C706 C705 1.523 . S
H707 C682 0.950 . S
H708 C684 0.950 . S
H709 C685 0.949 . S
H710 C687 0.950 . S
H711 C689 0.950 . S
C712 C713 1.349 . S
C712 C714 1.327 . S
C712 H737 0.950 . S
C713 C712 1.349 . S
C713 C729 1.349 . S
C714 C712 1.327 . S
C714 C733 1.429 . S
C714 H738 0.950 . S
C715 C732 1.574 . S
C715 C734 1.368 . S
C715 H739 0.949 . S
H716 C720 0.949 . S
C717 C718 1.349 . S
C717 C719 1.327 . S
C717 H740 0.950 . S
C718 C717 1.349 . S
C718 C730 1.349 . S
C719 C717 1.327 . S
C719 C735 1.429 . S
C719 H741 0.950 . S
C720 H716 0.949 . S
C720 C728 1.574 . S
C720 C736 1.368 . S
H721 C729 0.950 . S
H722 C727 0.950 . S
H723 C728 0.949 . S
H724 C730 0.950 . S
H725 C731 0.950 . S
H726 C732 0.949 . S
C727 H722 0.950 . S
C727 C729 1.327 . S
C727 C733 1.429 . S
C728 C720 1.574 . S
C728 H723 0.949 . S
C728 C734 1.368 . S
C729 C713 1.349 . S
C729 H721 0.950 . S
C729 C727 1.327 . S
C730 C718 1.349 . S
C730 H724 0.950 . S
C730 C731 1.327 . S
C731 H725 0.950 . S
C731 C730 1.327 . S
C731 C735 1.429 . S
C732 C715 1.574 . S
C732 H726 0.949 . S
C732 C736 1.368 . S
C733 C714 1.429 . S
C733 C727 1.429 . S
C733 C734 1.523 . S
C734 C715 1.368 . S
C734 C728 1.368 . S
C734 C733 1.523 . S
C735 C719 1.429 . S
C735 C731 1.429 . S
C735 C736 1.523 . S
C736 C720 1.368 . S
C736 C732 1.368 . S
C736 C735 1.523 . S
H737 C712 0.950 . S
H738 C714 0.950 . S
H739 C715 0.949 . S
H740 C717 0.950 . S
H741 C719 0.950 . S
C742 C743 1.349 . S
C742 C744 1.327 . S
C742 H767 0.950 . S
C743 C742 1.349 . S
C743 C759 1.349 . S
C744 C742 1.327 . S
C744 C763 1.429 . S
C744 H768 0.950 . S
C745 C762 1.574 . S
C745 C764 1.368 . S
C745 H769 0.949 . S
H746 C750 0.949 . S
C747 C748 1.349 . S
C747 C749 1.327 . S
C747 H770 0.950 . S
C748 C747 1.349 . S
C748 C760 1.349 . S
C749 C747 1.327 . S
C749 C765 1.429 . S
C749 H771 0.950 . S
C750 H746 0.949 . S
C750 C758 1.574 . S
C750 C766 1.368 . S
H751 C759 0.950 . S
H752 C757 0.950 . S
H753 C758 0.949 . S
H754 C760 0.950 . S
H755 C761 0.950 . S
H756 C762 0.949 . S
C757 H752 0.950 . S
C757 C759 1.327 . S
C757 C763 1.429 . S
C758 C750 1.574 . S
C758 H753 0.949 . S
C758 C764 1.368 . S
C759 C743 1.349 . S
C759 H751 0.950 . S
C759 C757 1.327 . S
C760 C748 1.349 . S
C760 H754 0.950 . S
C760 C761 1.327 . S
C761 H755 0.950 . S
C761 C760 1.327 . S
C761 C765 1.429 . S
C762 C745 1.574 . S
C762 H756 0.949 . S
C762 C766 1.368 . S
C763 C744 1.429 . S
C763 C757 1.429 . S
C763 C764 1.523 . S
C764 C745 1.368 . S
C764 C758 1.368 . S
C764 C763 1.523 . S
C765 C749 1.429 . S
C765 C761 1.429 . S
C765 C766 1.523 . S
C766 C750 1.368 . S
C766 C762 1.368 . S
C766 C765 1.523 . S
H767 C742 0.950 . S
H768 C744 0.950 . S
H769 C745 0.949 . S
H770 C747 0.950 . S
H771 C749 0.950 . S
C772 C773 1.349 . S
C772 C774 1.327 . S
C772 H797 0.950 . S
C773 C772 1.349 . S
C773 C789 1.349 . S
C774 C772 1.327 . S
C774 C793 1.429 . S
C774 H798 0.950 . S
C775 C792 1.574 1_455 S
C775 C794 1.368 . S
C775 H799 0.949 . S
H776 C780 0.949 . S
C777 C778 1.349 . S
C777 C779 1.327 . S
C777 H800 0.950 . S
C778 C777 1.349 . S
C778 C790 1.349 . S
C779 C777 1.327 . S
C779 C795 1.429 . S
C779 H801 0.950 . S
C780 H776 0.949 . S
C780 C788 1.574 1_655 S
C780 C796 1.368 . S
H781 C789 0.950 . S
H782 C787 0.950 . S
H783 C788 0.949 . S
H784 C790 0.950 . S
H785 C791 0.950 . S
H786 C792 0.949 . S
C787 H782 0.950 . S
C787 C789 1.327 . S
C787 C793 1.429 . S
C788 C780 1.574 1_455 S
C788 H783 0.949 . S
C788 C794 1.368 . S
C789 C773 1.349 . S
C789 H781 0.950 . S
C789 C787 1.327 . S
C790 C778 1.349 . S
C790 H784 0.950 . S
C790 C791 1.327 . S
C791 H785 0.950 . S
C791 C790 1.327 . S
C791 C795 1.429 . S
C792 C775 1.574 1_655 S
C792 H786 0.949 . S
C792 C796 1.368 . S
C793 C774 1.429 . S
C793 C787 1.429 . S
C793 C794 1.523 . S
C794 C775 1.368 . S
C794 C788 1.368 . S
C794 C793 1.523 . S
C795 C779 1.429 . S
C795 C791 1.429 . S
C795 C796 1.523 . S
C796 C780 1.368 . S
C796 C792 1.368 . S
C796 C795 1.523 . S
H797 C772 0.950 . S
H798 C774 0.950 . S
H799 C775 0.949 . S
H800 C777 0.950 . S
H801 C779 0.950 . S
C802 C803 1.349 . S
C802 C804 1.327 . S
C802 H827 0.950 . S
C803 C802 1.349 . S
C803 C819 1.349 . S
C804 C802 1.327 . S
C804 C823 1.429 . S
C804 H828 0.950 . S
C805 C822 1.574 . S
C805 C824 1.368 1_556 S
C805 H829 0.949 . S
H806 C810 0.949 . S
C807 C808 1.349 . S
C807 C809 1.327 . S
C807 H830 0.950 . S
C808 C807 1.349 . S
C808 C820 1.349 . S
C809 C807 1.327 . S
C809 C825 1.429 . S
C809 H831 0.950 . S
C810 H806 0.949 . S
C810 C818 1.574 . S
C810 C826 1.368 1_554 S
H811 C819 0.950 . S
H812 C817 0.950 . S
H813 C818 0.949 . S
H814 C820 0.950 . S
H815 C821 0.950 . S
H816 C822 0.949 . S
C817 H812 0.950 . S
C817 C819 1.327 . S
C817 C823 1.429 . S
C818 C810 1.574 . S
C818 H813 0.949 . S
C818 C824 1.368 . S
C819 C803 1.349 . S
C819 H811 0.950 . S
C819 C817 1.327 . S
C820 C808 1.349 . S
C820 H814 0.950 . S
C820 C821 1.327 . S
C821 H815 0.950 . S
C821 C820 1.327 . S
C821 C825 1.429 . S
C822 C805 1.574 . S
C822 H816 0.949 . S
C822 C826 1.368 . S
C823 C804 1.429 . S
C823 C817 1.429 . S
C823 C824 1.523 . S
C824 C805 1.368 1_554 S
C824 C818 1.368 . S
C824 C823 1.523 . S
C825 C809 1.429 . S
C825 C821 1.429 . S
C825 C826 1.523 . S
C826 C810 1.368 1_556 S
C826 C822 1.368 . S
C826 C825 1.523 . S
H827 C802 0.950 . S
H828 C804 0.950 . S
H829 C805 0.949 . S
H830 C807 0.950 . S
H831 C809 0.950 . S
C832 C833 1.349 . S
C832 C834 1.327 . S
C832 H857 0.950 . S
C833 C832 1.349 . S
C833 C849 1.349 . S
C834 C832 1.327 . S
C834 C853 1.429 . S
C834 H858 0.950 . S
C835 C852 1.574 . S
C835 C854 1.368 . S
C835 H859 0.949 . S
H836 C840 0.949 . S
C837 C838 1.349 . S
C837 C839 1.327 . S
C837 H860 0.950 . S
C838 C837 1.349 . S
C838 C850 1.349 . S
C839 C837 1.327 . S
C839 C855 1.429 . S
C839 H861 0.950 . S
C840 H836 0.949 . S
C840 C848 1.574 . S
C840 C856 1.368 . S
H841 C849 0.950 . S
H842 C847 0.950 . S
H843 C848 0.949 . S
H844 C850 0.950 . S
H845 C851 0.950 . S
H846 C852 0.949 . S
C847 H842 0.950 . S
C847 C849 1.327 . S
C847 C853 1.429 . S
C848 C840 1.574 . S
C848 H843 0.949 . S
C848 C854 1.368 . S
C849 C833 1.349 . S
C849 H841 0.950 . S
C849 C847 1.327 . S
C850 C838 1.349 . S
C850 H844 0.950 . S
C850 C851 1.327 . S
C851 H845 0.950 . S
C851 C850 1.327 . S
C851 C855 1.429 . S
C852 C835 1.574 . S
C852 H846 0.949 . S
C852 C856 1.368 . S
C853 C834 1.429 . S
C853 C847 1.429 . S
C853 C854 1.523 . S
C854 C835 1.368 . S
C854 C848 1.368 . S
C854 C853 1.523 . S
C855 C839 1.429 . S
C855 C851 1.429 . S
C855 C856 1.523 . S
C856 C840 1.368 . S
C856 C852 1.368 . S
C856 C855 1.523 . S
H857 C832 0.950 . S
H858 C834 0.950 . S
H859 C835 0.949 . S
H860 C837 0.950 . S
H861 C839 0.950 . S
C862 C863 1.349 . S
C862 C864 1.327 . S
C862 H887 0.950 . S
C863 C862 1.349 . S
C863 C879 1.349 . S
C864 C862 1.327 . S
C864 C883 1.429 . S
C864 H888 0.950 . S
C865 C882 1.574 . S
C865 C884 1.368 . S
C865 H889 0.949 . S
H866 C870 0.949 . S
C867 C868 1.349 . S
C867 C869 1.327 . S
C867 H890 0.950 . S
C868 C867 1.349 . S
C868 C880 1.349 . S
C869 C867 1.327 . S
C869 C885 1.429 . S
C869 H891 0.950 . S
C870 H866 0.949 . S
C870 C878 1.574 . S
C870 C886 1.368 . S
H871 C879 0.950 . S
H872 C877 0.950 . S
H873 C878 0.949 . S
H874 C880 0.950 . S
H875 C881 0.950 . S
H876 C882 0.949 . S
C877 H872 0.950 . S
C877 C879 1.327 . S
C877 C883 1.429 . S
C878 C870 1.574 . S
C878 H873 0.949 . S
C878 C884 1.368 . S
C879 C863 1.349 . S
C879 H871 0.950 . S
C879 C877 1.327 . S
C880 C868 1.349 . S
C880 H874 0.950 . S
C880 C881 1.327 . S
C881 H875 0.950 . S
C881 C880 1.327 . S
C881 C885 1.429 . S
C882 C865 1.574 . S
C882 H876 0.949 . S
C882 C886 1.368 . S
C883 C864 1.429 . S
C883 C877 1.429 . S
C883 C884 1.523 . S
C884 C865 1.368 . S
C884 C878 1.368 . S
C884 C883 1.523 . S
C885 C869 1.429 . S
C885 C881 1.429 . S
C885 C886 1.523 . S
C886 C870 1.368 . S
C886 C882 1.368 . S
C886 C885 1.523 . S
H887 C862 0.950 . S
H888 C864 0.950 . S
H889 C865 0.949 . S
H890 C867 0.950 . S
H891 C869 0.950 . S
C892 C893 1.349 . S
C892 C894 1.327 . S
C892 H917 0.950 . S
C893 C892 1.349 . S
C893 C909 1.349 . S
C894 C892 1.327 . S
C894 C913 1.429 . S
C894 H918 0.950 . S
C895 C912 1.574 . S
C895 C914 1.368 . S
C895 H919 0.949 . S
H896 C900 0.949 . S
C897 C898 1.349 . S
C897 C899 1.327 . S
C897 H920 0.950 . S
C898 C897 1.349 . S
C898 C910 1.349 . S
C899 C897 1.327 . S
C899 C915 1.429 . S
C899 H921 0.950 . S
C900 H896 0.949 . S
C900 C908 1.574 . S
C900 C916 1.368 . S
H901 C909 0.950 . S
H902 C907 0.950 . S
H903 C908 0.949 . S
H904 C910 0.950 . S
H905 C911 0.950 . S
H906 C912 0.949 . S
C907 H902 0.950 . S
C907 C909 1.327 . S
C907 C913 1.429 . S
C908 C900 1.574 . S
C908 H903 0.949 . S
C908 C914 1.368 . S
C909 C893 1.349 . S
C909 H901 0.950 . S
C909 C907 1.327 . S
C910 C898 1.349 . S
C910 H904 0.950 . S
C910 C911 1.327 . S
C911 H905 0.950 . S
C911 C910 1.327 . S
C911 C915 1.429 . S
C912 C895 1.574 . S
C912 H906 0.949 . S
C912 C916 1.368 . S
C913 C894 1.429 . S
C913 C907 1.429 . S
C913 C914 1.523 . S
C914 C895 1.368 . S
C914 C908 1.368 . S
C914 C913 1.523 . S
C915 C899 1.429 . S
C915 C911 1.429 . S
C915 C916 1.523 . S
C916 C900 1.368 . S
C916 C912 1.368 . S
C916 C915 1.523 . S
H917 C892 0.950 . S
H918 C894 0.950 . S
H919 C895 0.949 . S
H920 C897 0.950 . S
H921 C899 0.950 . S
C922 C923 1.349 . S
C922 C924 1.327 1_655 S
C922 H947 0.950 . S
C923 C922 1.349 . S
C923 C939 1.349 1_655 S
C924 C922 1.327 1_455 S
C924 C943 1.429 . S
C924 H948 0.950 . S
C925 C942 1.574 . S
C925 C944 1.368 . S
C925 H949 0.949 . S
H926 C930 0.949 . S
C927 C928 1.349 . S
C927 C929 1.327 . S
C927 H950 0.950 . S
C928 C927 1.349 . S
C928 C940 1.349 . S
C929 C927 1.327 . S
C929 C945 1.429 . S
C929 H951 0.950 . S
C930 H926 0.949 . S
C930 C938 1.574 . S
C930 C946 1.368 . S
H931 C939 0.950 . S
H932 C937 0.950 . S
H933 C938 0.949 . S
H934 C940 0.950 . S
H935 C941 0.950 . S
H936 C942 0.949 . S
C937 H932 0.950 . S
C937 C939 1.327 . S
C937 C943 1.429 . S
C938 C930 1.574 . S
C938 H933 0.949 . S
C938 C944 1.368 . S
C939 C923 1.349 1_455 S
C939 H931 0.950 . S
C939 C937 1.327 . S
C940 C928 1.349 . S
C940 H934 0.950 . S
C940 C941 1.327 . S
C941 H935 0.950 . S
C941 C940 1.327 . S
C941 C945 1.429 . S
C942 C925 1.574 . S
C942 H936 0.949 . S
C942 C946 1.368 . S
C943 C924 1.429 . S
C943 C937 1.429 . S
C943 C944 1.523 . S
C944 C925 1.368 . S
C944 C938 1.368 . S
C944 C943 1.523 . S
C945 C929 1.429 . S
C945 C941 1.429 . S
C945 C946 1.523 . S
C946 C930 1.368 . S
C946 C942 1.368 . S
C946 C945 1.523 . S
H947 C922 0.950 . S
H948 C924 0.950 . S
H949 C925 0.949 . S
H950 C927 0.950 . S
H951 C929 0.950 . S
C952 C953 1.349 . S
C952 C954 1.327 . S
C952 H977 0.950 . S
C953 C952 1.349 . S
C953 C969 1.349 . S
C954 C952 1.327 . S
C954 C973 1.429 . S
C954 H978 0.950 . S
C955 C972 1.574 . S
C955 C974 1.368 . S
C955 H979 0.949 . S
H956 C960 0.949 . S
C957 C958 1.349 . S
C957 C959 1.327 . S
C957 H980 0.950 . S
C958 C957 1.349 . S
C958 C970 1.349 . S
C959 C957 1.327 . S
C959 C975 1.429 . S
C959 H981 0.950 . S
C960 H956 0.949 . S
C960 C968 1.574 . S
C960 C976 1.368 . S
H961 C969 0.950 . S
H962 C967 0.950 . S
H963 C968 0.949 . S
H964 C970 0.950 . S
H965 C971 0.950 . S
H966 C972 0.949 . S
C967 H962 0.950 . S
C967 C969 1.327 . S
C967 C973 1.429 . S
C968 C960 1.574 . S
C968 H963 0.949 . S
C968 C974 1.368 . S
C969 C953 1.349 . S
C969 H961 0.950 . S
C969 C967 1.327 . S
C970 C958 1.349 . S
C970 H964 0.950 . S
C970 C971 1.327 . S
C971 H965 0.950 . S
C971 C970 1.327 . S
C971 C975 1.429 . S
C972 C955 1.574 . S
C972 H966 0.949 . S
C972 C976 1.368 . S
C973 C954 1.429 . S
C973 C967 1.429 . S
C973 C974 1.523 . S
C974 C955 1.368 . S
C974 C968 1.368 . S
C974 C973 1.523 . S
C975 C959 1.429 . S
C975 C971 1.429 . S
C975 C976 1.523 . S
C976 C960 1.368 . S
C976 C972 1.368 . S
C976 C975 1.523 . S
H977 C952 0.950 . S
H978 C954 0.950 . S
H979 C955 0.949 . S
H980 C957 0.950 . S
H981 C959 0.950 . S
C982 C983 1.349 . S
C982 C984 1.327 . S
C982 H1007 0.950 . S
C983 C982 1.349 . S
C983 C999 1.349 . S
C984 C982 1.327 . S
C984 C1003 1.429 . S
C984 H1008 0.950 . S
C985 C1002 1.574 . S
C985 C1004 1.368 . S
C985 H1009 0.949 . S
H986 C990 0.949 . S
C987 C988 1.349 . S
C987 C989 1.327 . S
C987 H1010 0.950 . S
C988 C987 1.349 . S
C988 C1000 1.349 . S
C989 C987 1.327 . S
C989 C1005 1.429 . S
C989 H1011 0.950 . S
C990 H986 0.949 . S
C990 C998 1.574 . S
C990 C1006 1.368 . S
H991 C999 0.950 . S
H992 C997 0.950 . S
H993 C998 0.949 . S
H994 C1000 0.950 . S
H995 C1001 0.950 . S
H996 C1002 0.949 . S
C997 H992 0.950 . S
C997 C999 1.327 . S
C997 C1003 1.429 . S
C998 C990 1.574 . S
C998 H993 0.949 . S
C998 C1004 1.368 . S
C999 C983 1.349 . S
C999 H991 0.950 . S
C999 C997 1.327 . S
C1000 C988 1.349 . S
C1000 H994 0.950 . S
C1000 C1001 1.327 . S
C1001 H995 0.950 . S
C1001 C1000 1.327 . S
C1001 C1005 1.429 . S
C1002 C985 1.574 . S
C1002 H996 0.949 . S
C1002 C1006 1.368 . S
C1003 C984 1.429 . S
C1003 C997 1.429 . S
C1003 C1004 1.523 . S
C1004 C985 1.368 . S
C1004 C998 1.368 . S
C1004 C1003 1.523 . S
C1005 C989 1.429 . S
C1005 C1001 1.429 . S
C1005 C1006 1.523 . S
C1006 C990 1.368 . S
C1006 C1002 1.368 . S
C1006 C1005 1.523 . S
H1007 C982 0.950 . S
H1008 C984 0.950 . S
H1009 C985 0.949 . S
H1010 C987 0.950 . S
H1011 C989 0.950 . S
C1012 C1013 1.349 . S
C1012 C1014 1.327 . S
C1012 H1037 0.950 . S
C1013 C1012 1.349 . S
C1013 C1029 1.349 . S
C1014 C1012 1.327 . S
C1014 C1033 1.429 . S
C1014 H1038 0.950 . S
C1015 C1032 1.574 . S
C1015 C1034 1.368 . S
C1015 H1039 0.949 . S
H1016 C1020 0.949 . S
C1017 C1018 1.349 . S
C1017 C1019 1.327 . S
C1017 H1040 0.950 . S
C1018 C1017 1.349 . S
C1018 C1030 1.349 . S
C1019 C1017 1.327 . S
C1019 C1035 1.429 . S
C1019 H1041 0.950 . S
C1020 H1016 0.949 . S
C1020 C1028 1.574 . S
C1020 C1036 1.368 . S
H1021 C1029 0.950 . S
H1022 C1027 0.950 . S
H1023 C1028 0.949 . S
H1024 C1030 0.950 . S
H1025 C1031 0.950 . S
H1026 C1032 0.949 . S
C1027 H1022 0.950 . S
C1027 C1029 1.327 . S
C1027 C1033 1.429 . S
C1028 C1020 1.574 . S
C1028 H1023 0.949 . S
C1028 C1034 1.368 . S
C1029 C1013 1.349 . S
C1029 H1021 0.950 . S
C1029 C1027 1.327 . S
C1030 C1018 1.349 . S
C1030 H1024 0.950 . S
C1030 C1031 1.327 . S
C1031 H1025 0.950 . S
C1031 C1030 1.327 . S
C1031 C1035 1.429 . S
C1032 C1015 1.574 . S
C1032 H1026 0.949 . S
C1032 C1036 1.368 . S
C1033 C1014 1.429 . S
C1033 C1027 1.429 . S
C1033 C1034 1.523 . S
C1034 C1015 1.368 . S
C1034 C1028 1.368 . S
C1034 C1033 1.523 . S
C1035 C1019 1.429 . S
C1035 C1031 1.429 . S
C1035 C1036 1.523 . S
C1036 C1020 1.368 . S
C1036 C1032 1.368 . S
C1036 C1035 1.523 . S
H1037 C1012 0.950 . S
H1038 C1014 0.950 . S
H1039 C1015 0.949 . S
H1040 C1017 0.950 . S
H1041 C1019 0.950 . S
C1042 C1043 1.349 . S
C1042 C1044 1.327 . S
C1042 H1067 0.950 . S
C1043 C1042 1.349 . S
C1043 C1059 1.349 . S
C1044 C1042 1.327 . S
C1044 C1063 1.429 . S
C1044 H1068 0.950 . S
C1045 C1062 1.574 . S
C1045 C1064 1.368 . S
C1045 H1069 0.949 . S
H1046 C1050 0.949 . S
C1047 C1048 1.349 1_655 S
C1047 C1049 1.327 . S
C1047 H1070 0.950 . S
C1048 C1047 1.349 1_455 S
C1048 C1060 1.349 . S
C1049 C1047 1.327 . S
C1049 C1065 1.429 . S
C1049 H1071 0.950 . S
C1050 H1046 0.949 . S
C1050 C1058 1.574 . S
C1050 C1066 1.368 . S
H1051 C1059 0.950 . S
H1052 C1057 0.950 . S
H1053 C1058 0.949 . S
H1054 C1060 0.949 . S
H1055 C1061 0.950 . S
H1056 C1062 0.949 . S
C1057 H1052 0.950 . S
C1057 C1059 1.327 . S
C1057 C1063 1.429 . S
C1058 C1050 1.574 . S
C1058 H1053 0.949 . S
C1058 C1064 1.368 . S
C1059 C1043 1.349 . S
C1059 H1051 0.950 . S
C1059 C1057 1.327 . S
C1060 C1048 1.349 . S
C1060 H1054 0.949 . S
C1060 C1061 1.328 1_455 S
C1061 H1055 0.950 . S
C1061 C1060 1.328 1_655 S
C1061 C1065 1.429 . S
C1062 C1045 1.574 . S
C1062 H1056 0.949 . S
C1062 C1066 1.368 . S
C1063 C1044 1.429 . S
C1063 C1057 1.429 . S
C1063 C1064 1.523 . S
C1064 C1045 1.368 . S
C1064 C1058 1.368 . S
C1064 C1063 1.523 . S
C1065 C1049 1.429 . S
C1065 C1061 1.429 . S
C1065 C1066 1.523 . S
C1066 C1050 1.368 . S
C1066 C1062 1.368 . S
C1066 C1065 1.523 . S
H1067 C1042 0.950 . S
H1068 C1044 0.950 . S
H1069 C1045 0.949 . S
H1070 C1047 0.950 . S
H1071 C1049 0.950 . S
C1072 C1073 1.349 . S
C1072 C1074 1.327 . S
C1072 H1097 0.950 . S
C1073 C1072 1.349 . S
C1073 C1089 1.349 . S
C1074 C1072 1.327 . S
C1074 C1093 1.429 . S
C1074 H1098 0.950 . S
C1075 C1092 1.574 . S
C1075 C1094 1.368 . S
C1075 H1099 0.949 . S
H1076 C1080 0.949 . S
C1077 C1078 1.349 . S
C1077 C1079 1.327 . S
C1077 H1100 0.950 . S
C1078 C1077 1.349 . S
C1078 C1090 1.349 . S
C1079 C1077 1.327 . S
C1079 C1095 1.429 . S
C1079 H1101 0.950 . S
C1080 H1076 0.949 . S
C1080 C1088 1.574 . S
C1080 C1096 1.368 . S
H1081 C1089 0.950 . S
H1082 C1087 0.950 . S
H1083 C1088 0.949 . S
H1084 C1090 0.950 . S
H1085 C1091 0.950 . S
H1086 C1092 0.949 . S
C1087 H1082 0.950 . S
C1087 C1089 1.327 . S
C1087 C1093 1.429 . S
C1088 C1080 1.574 . S
C1088 H1083 0.949 . S
C1088 C1094 1.368 . S
C1089 C1073 1.349 . S
C1089 H1081 0.950 . S
C1089 C1087 1.327 . S
C1090 C1078 1.349 . S
C1090 H1084 0.950 . S
C1090 C1091 1.327 . S
C1091 H1085 0.950 . S
C1091 C1090 1.327 . S
C1091 C1095 1.429 . S
C1092 C1075 1.574 . S
C1092 H1086 0.949 . S
C1092 C1096 1.368 . S
C1093 C1074 1.429 . S
C1093 C1087 1.429 . S
C1093 C1094 1.523 . S
C1094 C1075 1.368 . S
C1094 C1088 1.368 . S
C1094 C1093 1.523 . S
C1095 C1079 1.429 . S
C1095 C1091 1.429 . S
C1095 C1096 1.523 . S
C1096 C1080 1.368 . S
C1096 C1092 1.368 . S
C1096 C1095 1.523 . S
H1097 C1072 0.950 . S
H1098 C1074 0.950 . S
H1099 C1075 0.949 . S
H1100 C1077 0.950 . S
H1101 C1079 0.950 . S
C1102 C1103 1.349 . S
C1102 C1104 1.327 . S
C1102 H1127 0.950 . S
C1103 C1102 1.349 . S
C1103 C1119 1.349 . S
C1104 C1102 1.327 . S
C1104 C1123 1.429 . S
C1104 H1128 0.950 . S
C1105 C1122 1.574 . S
C1105 C1124 1.368 . S
C1105 H1129 0.949 . S
H1106 C1110 0.949 . S
C1107 C1108 1.349 1_655 S
C1107 C1109 1.327 . S
C1107 H1130 0.950 1_655 S
C1108 C1107 1.349 1_455 S
C1108 C1120 1.349 1_455 S
C1109 C1107 1.327 . S
C1109 C1125 1.429 1_545 S
C1109 H1131 0.950 . S
C1110 H1106 0.949 . S
C1110 C1118 1.574 . S
C1110 C1126 1.368 . S
H1111 C1119 0.950 . S
H1112 C1117 0.950 . S
H1113 C1118 0.949 . S
H1114 C1120 0.950 1_455 S
H1115 C1121 0.950 . S
H1116 C1122 0.966 . S
C1117 H1112 0.950 . S
C1117 C1119 1.327 . S
C1117 C1123 1.429 . S
C1118 C1110 1.574 . S
C1118 H1113 0.949 . S
C1118 C1124 1.368 . S
C1119 C1103 1.349 . S
C1119 H1111 0.950 . S
C1119 C1117 1.327 . S
C1120 C1108 1.349 1_655 S
C1120 H1114 0.950 1_655 S
C1120 C1121 1.327 1_545 S
C1121 H1115 0.950 . S
C1121 C1120 1.327 1_565 S
C1121 C1125 1.429 . S
C1122 C1105 1.574 . S
C1122 H1116 0.966 . S
C1122 C1126 1.368 . S
C1123 C1104 1.429 . S
C1123 C1117 1.429 . S
C1123 C1124 1.523 . S
C1124 C1105 1.368 . S
C1124 C1118 1.368 . S
C1124 C1123 1.523 . S
C1125 C1109 1.429 1_565 S
C1125 C1121 1.429 . S
C1125 C1126 1.523 . S
C1126 C1110 1.368 . S
C1126 C1122 1.368 . S
C1126 C1125 1.523 . S
H1127 C1102 0.950 . S
H1128 C1104 0.950 . S
H1129 C1105 0.949 . S
H1130 C1107 0.950 1_455 S
H1131 C1109 0.950 . S
C1132 C1133 1.349 . S
C1132 C1134 1.327 . S
C1132 H1157 0.950 . S
C1133 C1132 1.349 . S
C1133 C1149 1.349 . S
C1134 C1132 1.327 . S
C1134 C1153 1.429 . S
C1134 H1158 0.950 . S
C1135 C1152 1.574 . S
C1135 C1154 1.368 . S
C1135 H1159 0.949 . S
H1136 C1140 0.949 . S
C1137 C1138 1.349 . S
C1137 C1139 1.327 . S
C1137 H1160 0.950 . S
C1138 C1137 1.349 . S
C1138 C1150 1.349 . S
C1139 C1137 1.327 . S
C1139 C1155 1.429 . S
C1139 H1161 0.950 . S
C1140 H1136 0.949 . S
C1140 C1148 1.574 . S
C1140 C1156 1.368 . S
H1141 C1149 0.950 . S
H1142 C1147 0.950 . S
H1143 C1148 0.949 . S
H1144 C1150 0.950 . S
H1145 C1151 0.950 . S
H1146 C1152 0.949 . S
C1147 H1142 0.950 . S
C1147 C1149 1.327 . S
C1147 C1153 1.429 . S
C1148 C1140 1.574 . S
C1148 H1143 0.949 . S
C1148 C1154 1.368 . S
C1149 C1133 1.349 . S
C1149 H1141 0.950 . S
C1149 C1147 1.327 . S
C1150 C1138 1.349 . S
C1150 H1144 0.950 . S
C1150 C1151 1.327 . S
C1151 H1145 0.950 . S
C1151 C1150 1.327 . S
C1151 C1155 1.429 . S
C1152 C1135 1.574 . S
C1152 H1146 0.949 . S
C1152 C1156 1.368 . S
C1153 C1134 1.429 . S
C1153 C1147 1.429 . S
C1153 C1154 1.523 . S
C1154 C1135 1.368 . S
C1154 C1148 1.368 . S
C1154 C1153 1.523 . S
C1155 C1139 1.429 . S
C1155 C1151 1.429 . S
C1155 C1156 1.523 . S
C1156 C1140 1.368 . S
C1156 C1152 1.368 . S
C1156 C1155 1.523 . S
H1157 C1132 0.950 . S
H1158 C1134 0.950 . S
H1159 C1135 0.949 . S
H1160 C1137 0.950 . S
H1161 C1139 0.950 . S
C1162 C1163 1.349 . S
C1162 C1164 1.327 . S
C1162 H1187 0.950 . S
C1163 C1162 1.349 . S
C1163 C1179 1.349 . S
C1164 C1162 1.327 . S
C1164 C1183 1.429 . S
C1164 H1188 0.950 . S
C1165 C1182 1.574 . S
C1165 C1184 1.368 . S
C1165 H1189 0.949 . S
H1166 C1170 0.949 . S
C1167 C1168 1.349 . S
C1167 C1169 1.327 . S
C1167 H1190 0.950 . S
C1168 C1167 1.349 . S
C1168 C1180 1.349 . S
C1169 C1167 1.327 . S
C1169 C1185 1.429 1_565 S
C1169 H1191 0.949 1_565 S
C1170 H1166 0.949 . S
C1170 C1178 1.574 . S
C1170 C1186 1.368 . S
H1171 C1179 0.950 . S
H1172 C1177 0.950 . S
H1173 C1178 0.949 . S
H1174 C1180 0.950 . S
H1175 C1181 0.950 . S
H1176 C1182 0.949 . S
C1177 H1172 0.950 . S
C1177 C1179 1.327 . S
C1177 C1183 1.429 . S
C1178 C1170 1.574 . S
C1178 H1173 0.949 . S
C1178 C1184 1.368 . S
C1179 C1163 1.349 . S
C1179 H1171 0.950 . S
C1179 C1177 1.327 . S
C1180 C1168 1.349 . S
C1180 H1174 0.950 . S
C1180 C1181 1.327 . S
C1181 H1175 0.950 . S
C1181 C1180 1.327 . S
C1181 C1185 1.429 1_565 S
C1182 C1165 1.574 . S
C1182 H1176 0.949 . S
C1182 C1186 1.368 . S
C1183 C1164 1.429 . S
C1183 C1177 1.429 . S
C1183 C1184 1.523 . S
C1184 C1165 1.368 . S
C1184 C1178 1.368 . S
C1184 C1183 1.523 . S
C1185 C1169 1.429 1_545 S
C1185 C1181 1.429 1_545 S
C1185 C1186 1.523 . S
C1186 C1170 1.368 . S
C1186 C1182 1.368 . S
C1186 C1185 1.523 . S
H1187 C1162 0.950 . S
H1188 C1164 0.950 . S
H1189 C1165 0.949 . S
H1190 C1167 0.950 . S
H1191 C1169 0.949 1_545 S
C1192 C1193 1.349 . S
C1192 C1194 1.327 . S
C1192 H1217 0.950 . S
C1193 C1192 1.349 . S
C1193 C1209 1.349 . S
C1194 C1192 1.327 . S
C1194 C1213 1.429 . S
C1194 H1218 0.950 . S
C1195 C1212 1.574 . S
C1195 C1214 1.368 . S
C1195 H1219 0.949 . S
H1196 C1200 0.949 . S
C1197 C1198 1.349 . S
C1197 C1199 1.327 . S
C1197 H1220 0.950 . S
C1198 C1197 1.349 . S
C1198 C1210 1.349 . S
C1199 C1197 1.327 . S
C1199 C1215 1.429 . S
C1199 H1221 0.950 . S
C1200 H1196 0.949 . S
C1200 C1208 1.574 . S
C1200 C1216 1.368 . S
H1201 C1209 0.950 . S
H1202 C1207 0.950 . S
H1203 C1208 0.949 . S
H1204 C1210 0.950 . S
H1205 C1211 0.950 . S
H1206 C1212 0.949 . S
C1207 H1202 0.950 . S
C1207 C1209 1.327 . S
C1207 C1213 1.429 . S
C1208 C1200 1.574 . S
C1208 H1203 0.949 . S
C1208 C1214 1.368 . S
C1209 C1193 1.349 . S
C1209 H1201 0.950 . S
C1209 C1207 1.327 . S
C1210 C1198 1.349 . S
C1210 H1204 0.950 . S
C1210 C1211 1.327 . S
C1211 H1205 0.950 . S
C1211 C1210 1.327 . S
C1211 C1215 1.429 . S
C1212 C1195 1.574 . S
C1212 H1206 0.949 . S
C1212 C1216 1.368 . S
C1213 C1194 1.429 . S
C1213 C1207 1.429 . S
C1213 C1214 1.523 . S
C1214 C1195 1.368 . S
C1214 C1208 1.368 . S
C1214 C1213 1.523 . S
C1215 C1199 1.429 . S
C1215 C1211 1.429 . S
C1215 C1216 1.523 . S
C1216 C1200 1.368 . S
C1216 C1212 1.368 . S
C1216 C1215 1.523 . S
H1217 C1192 0.950 . S
H1218 C1194 0.950 . S
H1219 C1195 0.949 . S
H1220 C1197 0.950 . S
H1221 C1199 0.950 . S
C1222 C1223 1.360 . S
C1222 C1224 1.321 1_665 S
C1222 H1247 0.945 1_565 S
C1223 C1222 1.360 . S
C1223 C1239 1.349 1_655 S
C1224 C1222 1.321 1_445 S
C1224 C1243 1.429 . S
C1224 H1248 0.950 . S
C1225 C1242 1.574 . S
C1225 C1244 1.368 . S
C1225 H1249 0.949 1_545 S
H1226 C1230 0.949 . S
C1227 C1228 1.349 . S
C1227 C1229 1.327 . S
C1227 H1250 0.950 . S
C1228 C1227 1.349 . S
C1228 C1240 1.349 . S
C1229 C1227 1.327 . S
C1229 C1245 1.429 . S
C1229 H1251 0.950 . S
C1230 H1226 0.949 . S
C1230 C1238 1.574 . S
C1230 C1246 1.368 . S
H1231 C1239 0.950 . S
H1232 C1237 0.950 . S
H1233 C1238 0.949 . S
H1234 C1240 0.950 . S
H1235 C1241 0.950 . S
H1236 C1242 0.949 . S
C1237 H1232 0.950 . S
C1237 C1239 1.327 . S
C1237 C1243 1.429 1_565 S
C1238 C1230 1.574 . S
C1238 H1233 0.949 . S
C1238 C1244 1.368 . S
C1239 C1223 1.349 1_455 S
C1239 H1231 0.950 . S
C1239 C1237 1.327 . S
C1240 C1228 1.349 . S
C1240 H1234 0.950 . S
C1240 C1241 1.327 . S
C1241 H1235 0.950 . S
C1241 C1240 1.327 . S
C1241 C1245 1.429 . S
C1242 C1225 1.574 . S
C1242 H1236 0.949 . S
C1242 C1246 1.368 . S
C1243 C1224 1.429 . S
C1243 C1237 1.429 1_545 S
C1243 C1244 1.523 . S
C1244 C1225 1.368 . S
C1244 C1238 1.368 . S
C1244 C1243 1.523 . S
C1245 C1229 1.429 . S
C1245 C1241 1.429 . S
C1245 C1246 1.523 . S
C1246 C1230 1.368 . S
C1246 C1242 1.368 . S
C1246 C1245 1.523 . S
H1247 C1222 0.945 1_545 S
H1248 C1224 0.950 . S
H1249 C1225 0.949 1_565 S
H1250 C1227 0.950 . S
H1251 C1229 0.950 . S
C1252 C1253 1.349 . S
C1252 C1254 1.327 . S
C1252 H1277 0.950 . S
C1253 C1252 1.349 . S
C1253 C1269 1.349 . S
C1254 C1252 1.327 . S
C1254 C1273 1.429 . S
C1254 H1278 0.950 . S
C1255 C1272 1.574 . S
C1255 C1274 1.368 . S
C1255 H1279 0.949 . S
H1256 C1260 0.949 . S
C1257 C1258 1.349 . S
C1257 C1259 1.327 . S
C1257 H1280 0.950 . S
C1258 C1257 1.349 . S
C1258 C1270 1.349 . S
C1259 C1257 1.327 . S
C1259 C1275 1.429 . S
C1259 H1281 0.950 . S
C1260 H1256 0.949 . S
C1260 C1268 1.574 . S
C1260 C1276 1.368 . S
H1261 C1269 0.950 . S
H1262 C1267 0.950 . S
H1263 C1268 0.949 . S
H1264 C1270 0.950 . S
H1265 C1271 0.950 . S
H1266 C1272 0.949 . S
C1267 H1262 0.950 . S
C1267 C1269 1.327 . S
C1267 C1273 1.429 . S
C1268 C1260 1.574 . S
C1268 H1263 0.949 . S
C1268 C1274 1.368 . S
C1269 C1253 1.349 . S
C1269 H1261 0.950 . S
C1269 C1267 1.327 . S
C1270 C1258 1.349 . S
C1270 H1264 0.950 . S
C1270 C1271 1.327 . S
C1271 H1265 0.950 . S
C1271 C1270 1.327 . S
C1271 C1275 1.429 . S
C1272 C1255 1.574 . S
C1272 H1266 0.949 . S
C1272 C1276 1.368 . S
C1273 C1254 1.429 . S
C1273 C1267 1.429 . S
C1273 C1274 1.523 . S
C1274 C1255 1.368 . S
C1274 C1268 1.368 . S
C1274 C1273 1.523 . S
C1275 C1259 1.429 . S
C1275 C1271 1.429 . S
C1275 C1276 1.523 . S
C1276 C1260 1.368 . S
C1276 C1272 1.368 . S
C1276 C1275 1.523 . S
H1277 C1252 0.950 . S
H1278 C1254 0.950 . S
H1279 C1255 0.949 . S
H1280 C1257 0.950 . S
H1281 C1259 0.950 . S
C1282 C1283 1.349 . S
C1282 C1284 1.327 . S
C1282 H1307 0.950 . S
C1283 C1282 1.349 . S
C1283 C1299 1.349 . S
C1284 C1282 1.327 . S
C1284 C1303 1.429 1_545 S
C1284 H1308 0.950 . S
C1285 C1302 1.574 . S
C1285 C1304 1.368 . S
C1285 H1309 0.949 . S
H1286 C1290 0.949 . S
C1287 C1288 1.349 . S
C1287 C1289 1.327 . S
C1287 H1310 0.950 . S
C1288 C1287 1.349 . S
C1288 C1300 1.349 . S
C1289 C1287 1.327 . S
C1289 C1305 1.429 . S
C1289 H1311 0.950 . S
C1290 H1286 0.949 . S
C1290 C1298 1.574 . S
C1290 C1306 1.368 . S
H1291 C1299 0.950 . S
H1292 C1297 0.950 1_565 S
H1293 C1298 0.949 . S
H1294 C1300 0.950 . S
H1295 C1301 0.950 . S
H1296 C1302 0.949 . S
C1297 H1292 0.950 1_545 S
C1297 C1299 1.327 . S
C1297 C1303 1.429 1_545 S
C1298 C1290 1.574 . S
C1298 H1293 0.949 . S
C1298 C1304 1.368 . S
C1299 C1283 1.349 . S
C1299 H1291 0.950 . S
C1299 C1297 1.327 . S
C1300 C1288 1.349 . S
C1300 H1294 0.950 . S
C1300 C1301 1.327 . S
C1301 H1295 0.950 . S
C1301 C1300 1.327 . S
C1301 C1305 1.429 . S
C1302 C1285 1.574 . S
C1302 H1296 0.949 . S
C1302 C1306 1.368 . S
C1303 C1284 1.429 1_565 S
C1303 C1297 1.429 1_565 S
C1303 C1304 1.523 . S
C1304 C1285 1.368 . S
C1304 C1298 1.368 . S
C1304 C1303 1.523 . S
C1305 C1289 1.429 . S
C1305 C1301 1.429 . S
C1305 C1306 1.523 . S
C1306 C1290 1.368 . S
C1306 C1302 1.368 . S
C1306 C1305 1.523 . S
H1307 C1282 0.950 . S
H1308 C1284 0.950 . S
H1309 C1285 0.949 . S
H1310 C1287 0.950 . S
H1311 C1289 0.950 . S
C1312 C1313 1.349 . S
C1312 C1314 1.327 . S
C1312 H1337 0.950 . S
C1313 C1312 1.349 . S
C1313 C1329 1.349 . S
C1314 C1312 1.327 . S
C1314 C1333 1.429 . S
C1314 H1338 0.950 . S
C1315 C1332 1.574 . S
C1315 C1334 1.368 . S
C1315 H1339 0.949 . S
H1316 C1320 0.949 . S
C1317 C1318 1.349 . S
C1317 C1319 1.327 . S
C1317 H1340 0.950 . S
C1318 C1317 1.349 . S
C1318 C1330 1.349 . S
C1319 C1317 1.327 . S
C1319 C1335 1.429 . S
C1319 H1341 0.950 . S
C1320 H1316 0.949 . S
C1320 C1328 1.574 . S
C1320 C1336 1.368 . S
H1321 C1329 0.950 . S
H1322 C1327 0.950 1_556 S
H1323 C1328 0.949 . S
H1324 C1330 0.950 . S
H1325 C1331 0.950 . S
H1326 C1332 0.949 . S
C1327 H1322 0.950 1_554 S
C1327 C1329 1.327 . S
C1327 C1333 1.429 . S
C1328 C1320 1.574 . S
C1328 H1323 0.949 . S
C1328 C1334 1.368 . S
C1329 C1313 1.349 . S
C1329 H1321 0.950 . S
C1329 C1327 1.327 . S
C1330 C1318 1.349 . S
C1330 H1324 0.950 . S
C1330 C1331 1.327 . S
C1331 H1325 0.950 . S
C1331 C1330 1.327 . S
C1331 C1335 1.429 . S
C1332 C1315 1.574 . S
C1332 H1326 0.949 . S
C1332 C1336 1.368 . S
C1333 C1314 1.429 . S
C1333 C1327 1.429 . S
C1333 C1334 1.523 1_554 S
C1334 C1315 1.368 . S
C1334 C1328 1.368 . S
C1334 C1333 1.523 1_556 S
C1335 C1319 1.429 . S
C1335 C1331 1.429 . S
C1335 C1336 1.523 . S
C1336 C1320 1.368 . S
C1336 C1332 1.368 . S
C1336 C1335 1.523 . S
H1337 C1312 0.950 . S
H1338 C1314 0.950 . S
H1339 C1315 0.949 . S
H1340 C1317 0.950 . S
H1341 C1319 0.950 . S
C1342 C1343 1.349 . S
C1342 C1344 1.327 . S
C1342 H1367 0.950 . S
C1343 C1342 1.349 . S
C1343 C1359 1.349 . S
C1344 C1342 1.327 . S
C1344 C1363 1.429 . S
C1344 H1368 0.950 . S
C1345 C1362 1.574 . S
C1345 C1364 1.368 . S
C1345 H1369 0.949 . S
H1346 C1350 0.949 . S
C1347 C1348 1.349 . S
C1347 C1349 1.327 . S
C1347 H1370 0.950 . S
C1348 C1347 1.349 . S
C1348 C1360 1.349 . S
C1349 C1347 1.327 . S
C1349 C1365 1.429 . S
C1349 H1371 0.950 . S
C1350 H1346 0.949 . S
C1350 C1358 1.574 . S
C1350 C1366 1.368 . S
H1351 C1359 0.950 . S
H1352 C1357 0.950 . S
H1353 C1358 0.949 . S
H1354 C1360 0.950 . S
H1355 C1361 0.950 . S
H1356 C1362 0.949 . S
C1357 H1352 0.950 . S
C1357 C1359 1.327 . S
C1357 C1363 1.429 . S
C1358 C1350 1.574 . S
C1358 H1353 0.949 . S
C1358 C1364 1.368 . S
C1359 C1343 1.349 . S
C1359 H1351 0.950 . S
C1359 C1357 1.327 . S
C1360 C1348 1.349 . S
C1360 H1354 0.950 . S
C1360 C1361 1.327 . S
C1361 H1355 0.950 . S
C1361 C1360 1.327 . S
C1361 C1365 1.429 . S
C1362 C1345 1.574 . S
C1362 H1356 0.949 . S
C1362 C1366 1.368 . S
C1363 C1344 1.429 . S
C1363 C1357 1.429 . S
C1363 C1364 1.523 . S
C1364 C1345 1.368 . S
C1364 C1358 1.368 . S
C1364 C1363 1.523 . S
C1365 C1349 1.429 . S
C1365 C1361 1.429 . S
C1365 C1366 1.523 . S
C1366 C1350 1.368 . S
C1366 C1362 1.368 . S
C1366 C1365 1.523 . S
H1367 C1342 0.950 . S
H1368 C1344 0.950 . S
H1369 C1345 0.949 . S
H1370 C1347 0.950 . S
H1371 C1349 0.950 . S
C1372 C1373 1.349 . S
C1372 C1374 1.327 . S
C1372 H1397 0.950 . S
C1373 C1372 1.349 . S
C1373 C1389 1.349 . S
C1374 C1372 1.327 . S
C1374 C1393 1.429 . S
C1374 H1398 0.950 . S
C1375 C1392 1.574 . S
C1375 C1394 1.368 . S
C1375 H1399 0.949 . S
H1376 C1380 0.949 . S
C1377 C1378 1.349 . S
C1377 C1379 1.327 . S
C1377 H1400 0.950 . S
C1378 C1377 1.349 . S
C1378 C1390 1.349 . S
C1379 C1377 1.327 . S
C1379 C1395 1.429 . S
C1379 H1401 0.950 . S
C1380 H1376 0.949 . S
C1380 C1388 1.574 . S
C1380 C1396 1.368 . S
H1381 C1389 0.950 . S
H1382 C1387 0.950 . S
H1383 C1388 0.949 . S
H1384 C1390 0.950 . S
H1385 C1391 0.950 . S
H1386 C1392 0.949 . S
C1387 H1382 0.950 . S
C1387 C1389 1.327 . S
C1387 C1393 1.429 . S
C1388 C1380 1.574 . S
C1388 H1383 0.949 . S
C1388 C1394 1.368 . S
C1389 C1373 1.349 . S
C1389 H1381 0.950 . S
C1389 C1387 1.327 . S
C1390 C1378 1.349 . S
C1390 H1384 0.950 . S
C1390 C1391 1.327 . S
C1391 H1385 0.950 . S
C1391 C1390 1.327 . S
C1391 C1395 1.429 . S
C1392 C1375 1.574 . S
C1392 H1386 0.949 . S
C1392 C1396 1.368 . S
C1393 C1374 1.429 . S
C1393 C1387 1.429 . S
C1393 C1394 1.523 . S
C1394 C1375 1.368 . S
C1394 C1388 1.368 . S
C1394 C1393 1.523 . S
C1395 C1379 1.429 . S
C1395 C1391 1.429 . S
C1395 C1396 1.523 . S
C1396 C1380 1.368 . S
C1396 C1392 1.368 . S
C1396 C1395 1.523 . S
H1397 C1372 0.950 . S
H1398 C1374 0.950 . S
H1399 C1375 0.949 . S
H1400 C1377 0.950 . S
H1401 C1379 0.950 . S
C1402 C1403 1.349 . S
C1402 C1404 1.327 . S
C1402 H1427 0.950 . S
C1403 C1402 1.349 . S
C1403 C1419 1.349 . S
C1404 C1402 1.327 . S
C1404 C1423 1.429 . S
C1404 H1428 0.950 . S
C1405 C1422 1.574 . S
C1405 C1424 1.368 . S
C1405 H1429 0.949 . S
H1406 C1410 0.949 . S
C1407 C1408 1.349 . S
C1407 C1409 1.327 . S
C1407 H1430 0.950 . S
C1408 C1407 1.349 . S
C1408 C1420 1.349 . S
C1409 C1407 1.327 . S
C1409 C1425 1.429 . S
C1409 H1431 0.950 . S
C1410 H1406 0.949 . S
C1410 C1418 1.574 . S
C1410 C1426 1.368 . S
H1411 C1419 0.950 . S
H1412 C1417 0.950 . S
H1413 C1418 0.949 . S
H1414 C1420 0.950 . S
H1415 C1421 0.950 . S
H1416 C1422 0.949 . S
C1417 H1412 0.950 . S
C1417 C1419 1.327 . S
C1417 C1423 1.429 . S
C1418 C1410 1.574 . S
C1418 H1413 0.949 . S
C1418 C1424 1.368 . S
C1419 C1403 1.349 . S
C1419 H1411 0.950 . S
C1419 C1417 1.327 . S
C1420 C1408 1.349 . S
C1420 H1414 0.950 . S
C1420 C1421 1.327 . S
C1421 H1415 0.950 . S
C1421 C1420 1.327 . S
C1421 C1425 1.429 . S
C1422 C1405 1.574 . S
C1422 H1416 0.949 . S
C1422 C1426 1.368 . S
C1423 C1404 1.429 . S
C1423 C1417 1.429 . S
C1423 C1424 1.523 . S
C1424 C1405 1.368 . S
C1424 C1418 1.368 . S
C1424 C1423 1.523 . S
C1425 C1409 1.429 . S
C1425 C1421 1.429 . S
C1425 C1426 1.523 . S
C1426 C1410 1.368 . S
C1426 C1422 1.368 . S
C1426 C1425 1.523 . S
H1427 C1402 0.950 . S
H1428 C1404 0.950 . S
H1429 C1405 0.949 . S
H1430 C1407 0.950 . S
H1431 C1409 0.950 . S
C1432 C1433 1.349 . S
C1432 C1434 1.327 . S
C1432 H1457 0.950 . S
C1433 C1432 1.349 . S
C1433 C1449 1.349 . S
C1434 C1432 1.327 . S
C1434 C1453 1.429 . S
C1434 H1458 0.950 . S
C1435 C1452 1.574 . S
C1435 C1454 1.368 . S
C1435 H1459 0.949 . S
H1436 C1440 0.949 . S
C1437 C1438 1.349 . S
C1437 C1439 1.327 . S
C1437 H1460 0.950 . S
C1438 C1437 1.349 . S
C1438 C1450 1.349 . S
C1439 C1437 1.327 . S
C1439 C1455 1.458 . S
C1439 H1461 0.950 . S
C1440 H1436 0.949 . S
C1440 C1448 1.574 . S
C1440 C1456 1.368 . S
H1441 C1449 0.950 . S
H1442 C1447 0.950 . S
H1443 C1448 0.949 . S
H1444 C1450 0.950 . S
H1445 C1451 0.950 1_554 S
H1446 C1452 0.949 . S
C1447 H1442 0.950 . S
C1447 C1449 1.327 . S
C1447 C1453 1.429 . S
C1448 C1440 1.574 . S
C1448 H1443 0.949 . S
C1448 C1454 1.368 . S
C1449 C1433 1.349 . S
C1449 H1441 0.950 . S
C1449 C1447 1.327 . S
C1450 C1438 1.349 . S
C1450 H1444 0.950 . S
C1450 C1451 1.327 . S
C1451 H1445 0.950 1_556 S
C1451 C1450 1.327 . S
C1451 C1455 1.439 . S
C1452 C1435 1.574 . S
C1452 H1446 0.949 . S
C1452 C1456 1.368 . S
C1453 C1434 1.429 . S
C1453 C1447 1.429 . S
C1453 C1454 1.523 . S
C1454 C1435 1.368 . S
C1454 C1448 1.368 . S
C1454 C1453 1.523 . S
C1455 C1439 1.458 . S
C1455 C1451 1.439 . S
C1455 C1456 1.486 1_556 S
C1456 C1440 1.368 . S
C1456 C1452 1.368 . S
C1456 C1455 1.486 1_554 S
H1457 C1432 0.950 . S
H1458 C1434 0.950 . S
H1459 C1435 0.949 . S
H1460 C1437 0.950 . S
H1461 C1439 0.950 . S
C1462 C1463 1.349 . S
C1462 C1464 1.327 . S
C1462 H1487 0.950 . S
C1463 C1462 1.349 . S
C1463 C1479 1.349 . S
C1464 C1462 1.327 . S
C1464 C1483 1.429 . S
C1464 H1488 0.950 . S
C1465 C1482 1.574 . S
C1465 C1484 1.368 . S
C1465 H1489 0.949 . S
H1466 C1470 0.949 . S
C1467 C1468 1.349 . S
C1467 C1469 1.327 . S
C1467 H1490 0.950 . S
C1468 C1467 1.349 . S
C1468 C1480 1.349 . S
C1469 C1467 1.327 . S
C1469 C1485 1.429 . S
C1469 H1491 0.950 . S
C1470 H1466 0.949 . S
C1470 C1478 1.574 . S
C1470 C1486 1.368 . S
H1471 C1479 0.950 . S
H1472 C1477 0.950 . S
H1473 C1478 0.949 . S
H1474 C1480 0.950 . S
H1475 C1481 0.950 . S
H1476 C1482 0.949 . S
C1477 H1472 0.950 . S
C1477 C1479 1.327 . S
C1477 C1483 1.429 . S
C1478 C1470 1.574 . S
C1478 H1473 0.949 . S
C1478 C1484 1.368 . S
C1479 C1463 1.349 . S
C1479 H1471 0.950 . S
C1479 C1477 1.327 . S
C1480 C1468 1.349 . S
C1480 H1474 0.950 . S
C1480 C1481 1.327 . S
C1481 H1475 0.950 . S
C1481 C1480 1.327 . S
C1481 C1485 1.429 . S
C1482 C1465 1.574 . S
C1482 H1476 0.949 . S
C1482 C1486 1.368 . S
C1483 C1464 1.429 . S
C1483 C1477 1.429 . S
C1483 C1484 1.523 . S
C1484 C1465 1.368 . S
C1484 C1478 1.368 . S
C1484 C1483 1.523 . S
C1485 C1469 1.429 . S
C1485 C1481 1.429 . S
C1485 C1486 1.523 . S
C1486 C1470 1.368 . S
C1486 C1482 1.368 . S
C1486 C1485 1.523 . S
H1487 C1462 0.950 . S
H1488 C1464 0.950 . S
H1489 C1465 0.949 . S
H1490 C1467 0.950 . S
H1491 C1469 0.950 . S
C1492 C1493 1.349 . S
C1492 C1494 1.327 . S
C1492 H1517 0.950 . S
C1493 C1492 1.349 . S
C1493 C1509 1.349 . S
C1494 C1492 1.327 . S
C1494 C1513 1.429 . S
C1494 H1518 0.950 . S
C1495 C1512 1.574 . S
C1495 C1514 1.368 . S
C1495 H1519 0.949 . S
H1496 C1500 0.949 . S
C1497 C1498 1.349 . S
C1497 C1499 1.327 . S
C1497 H1520 0.950 . S
C1498 C1497 1.349 . S
C1498 C1510 1.349 . S
C1499 C1497 1.327 . S
C1499 C1515 1.429 . S
C1499 H1521 0.950 . S
C1500 H1496 0.949 . S
C1500 C1508 1.574 . S
C1500 C1516 1.368 . S
H1501 C1509 0.950 . S
H1502 C1507 0.950 . S
H1503 C1508 0.949 . S
H1504 C1510 0.950 . S
H1505 C1511 0.950 . S
H1506 C1512 0.949 . S
C1507 H1502 0.950 . S
C1507 C1509 1.327 . S
C1507 C1513 1.429 . S
C1508 C1500 1.574 . S
C1508 H1503 0.949 . S
C1508 C1514 1.368 . S
C1509 C1493 1.349 . S
C1509 H1501 0.950 . S
C1509 C1507 1.327 . S
C1510 C1498 1.349 . S
C1510 H1504 0.950 . S
C1510 C1511 1.327 . S
C1511 H1505 0.950 . S
C1511 C1510 1.327 . S
C1511 C1515 1.429 . S
C1512 C1495 1.574 . S
C1512 H1506 0.949 . S
C1512 C1516 1.368 . S
C1513 C1494 1.429 . S
C1513 C1507 1.429 . S
C1513 C1514 1.523 . S
C1514 C1495 1.368 . S
C1514 C1508 1.368 . S
C1514 C1513 1.523 . S
C1515 C1499 1.429 . S
C1515 C1511 1.429 . S
C1515 C1516 1.523 . S
C1516 C1500 1.368 . S
C1516 C1512 1.368 . S
C1516 C1515 1.523 . S
H1517 C1492 0.950 . S
H1518 C1494 0.950 . S
H1519 C1495 0.949 . S
H1520 C1497 0.950 . S
H1521 C1499 0.950 . S
C1522 C1523 1.349 . S
C1522 C1524 1.327 . S
C1522 H1547 0.950 . S
C1523 C1522 1.349 . S
C1523 C1539 1.349 . S
C1524 C1522 1.327 . S
C1524 C1543 1.429 . S
C1524 H1548 0.950 . S
C1525 C1542 1.574 . S
C1525 C1544 1.368 . S
C1525 H1549 0.949 . S
H1526 C1530 0.949 . S
C1527 C1528 1.349 . S
C1527 C1529 1.327 . S
C1527 H1550 0.950 . S
C1528 C1527 1.349 . S
C1528 C1540 1.349 . S
C1529 C1527 1.327 . S
C1529 C1545 1.429 . S
C1529 H1551 0.950 . S
C1530 H1526 0.949 . S
C1530 C1538 1.574 . S
C1530 C1546 1.368 . S
H1531 C1539 0.950 . S
H1532 C1537 0.950 . S
H1533 C1538 0.949 . S
H1534 C1540 0.950 . S
H1535 C1541 0.950 . S
H1536 C1542 0.949 . S
C1537 H1532 0.950 . S
C1537 C1539 1.327 . S
C1537 C1543 1.429 . S
C1538 C1530 1.574 . S
C1538 H1533 0.949 . S
C1538 C1544 1.368 . S
C1539 C1523 1.349 . S
C1539 H1531 0.950 . S
C1539 C1537 1.327 . S
C1540 C1528 1.349 . S
C1540 H1534 0.950 . S
C1540 C1541 1.327 . S
C1541 H1535 0.950 . S
C1541 C1540 1.327 . S
C1541 C1545 1.429 . S
C1542 C1525 1.574 . S
C1542 H1536 0.949 . S
C1542 C1546 1.368 . S
C1543 C1524 1.429 . S
C1543 C1537 1.429 . S
C1543 C1544 1.523 . S
C1544 C1525 1.368 . S
C1544 C1538 1.368 . S
C1544 C1543 1.523 . S
C1545 C1529 1.429 . S
C1545 C1541 1.429 . S
C1545 C1546 1.523 . S
C1546 C1530 1.368 . S
C1546 C1542 1.368 . S
C1546 C1545 1.523 . S
H1547 C1522 0.950 . S
H1548 C1524 0.950 . S
H1549 C1525 0.949 . S
H1550 C1527 0.950 . S
H1551 C1529 0.950 . S
C1552 C1553 1.349 . S
C1552 C1554 1.327 . S
C1552 H1577 0.950 . S
C1553 C1552 1.349 . S
C1553 C1569 1.349 . S
C1554 C1552 1.327 . S
C1554 C1573 1.429 . S
C1554 H1578 0.950 . S
C1555 C1572 1.574 . S
C1555 C1574 1.368 . S
C1555 H1579 0.949 . S
H1556 C1560 0.949 . S
C1557 C1558 1.349 . S
C1557 C1559 1.327 . S
C1557 H1580 0.950 . S
C1558 C1557 1.349 . S
C1558 C1570 1.349 . S
C1559 C1557 1.327 . S
C1559 C1575 1.429 . S
C1559 H1581 0.950 . S
C1560 H1556 0.949 . S
C1560 C1568 1.574 . S
C1560 C1576 1.368 . S
H1561 C1569 0.950 . S
H1562 C1567 0.950 . S
H1563 C1568 0.949 . S
H1564 C1570 0.950 . S
H1565 C1571 0.950 . S
H1566 C1572 0.949 . S
C1567 H1562 0.950 . S
C1567 C1569 1.327 . S
C1567 C1573 1.429 . S
C1568 C1560 1.574 . S
C1568 H1563 0.949 . S
C1568 C1574 1.368 . S
C1569 C1553 1.349 . S
C1569 H1561 0.950 . S
C1569 C1567 1.327 . S
C1570 C1558 1.349 . S
C1570 H1564 0.950 . S
C1570 C1571 1.327 . S
C1571 H1565 0.950 . S
C1571 C1570 1.327 . S
C1571 C1575 1.429 . S
C1572 C1555 1.574 . S
C1572 H1566 0.949 . S
C1572 C1576 1.368 . S
C1573 C1554 1.429 . S
C1573 C1567 1.429 . S
C1573 C1574 1.523 . S
C1574 C1555 1.368 . S
C1574 C1568 1.368 . S
C1574 C1573 1.523 . S
C1575 C1559 1.429 . S
C1575 C1571 1.429 . S
C1575 C1576 1.523 . S
C1576 C1560 1.368 . S
C1576 C1572 1.368 . S
C1576 C1575 1.523 . S
H1577 C1552 0.950 . S
H1578 C1554 0.950 . S
H1579 C1555 0.949 . S
H1580 C1557 0.950 . S
H1581 C1559 0.950 . S
C1582 C1583 1.349 . S
C1582 C1584 1.327 . S
C1582 H1607 0.950 . S
C1583 C1582 1.349 . S
C1583 C1599 1.349 . S
C1584 C1582 1.327 . S
C1584 C1603 1.429 . S
C1584 H1608 0.950 . S
C1585 C1602 1.574 1_565 S
C1585 C1604 1.368 . S
C1585 H1609 0.949 1_565 S
H1586 C1590 0.949 . S
C1587 C1588 1.349 . S
C1587 C1589 1.327 . S
C1587 H1610 0.950 . S
C1588 C1587 1.349 . S
C1588 C1600 1.349 . S
C1589 C1587 1.327 . S
C1589 C1605 1.429 . S
C1589 H1611 0.950 . S
C1590 H1586 0.949 . S
C1590 C1598 1.574 . S
C1590 C1606 1.368 . S
H1591 C1599 0.950 . S
H1592 C1597 0.950 . S
H1593 C1598 0.949 . S
H1594 C1600 0.950 1_565 S
H1595 C1601 0.950 . S
H1596 C1602 0.949 . S
C1597 H1592 0.950 . S
C1597 C1599 1.327 . S
C1597 C1603 1.429 . S
C1598 C1590 1.574 . S
C1598 H1593 0.949 . S
C1598 C1604 1.368 . S
C1599 C1583 1.349 . S
C1599 H1591 0.950 . S
C1599 C1597 1.327 . S
C1600 C1588 1.349 . S
C1600 H1594 0.950 1_545 S
C1600 C1601 1.327 1_545 S
C1601 H1595 0.950 . S
C1601 C1600 1.327 1_565 S
C1601 C1605 1.429 1_565 S
C1602 C1585 1.574 1_545 S
C1602 H1596 0.949 . S
C1602 C1606 1.368 1_545 S
C1603 C1584 1.429 . S
C1603 C1597 1.429 . S
C1603 C1604 1.523 . S
C1604 C1585 1.368 . S
C1604 C1598 1.368 . S
C1604 C1603 1.523 . S
C1605 C1589 1.429 . S
C1605 C1601 1.429 1_545 S
C1605 C1606 1.523 1_545 S
C1606 C1590 1.368 . S
C1606 C1602 1.368 1_565 S
C1606 C1605 1.523 1_565 S
H1607 C1582 0.950 . S
H1608 C1584 0.950 . S
H1609 C1585 0.949 1_545 S
H1610 C1587 0.950 . S
H1611 C1589 0.950 . S
C1612 C1613 1.349 . S
C1612 C1614 1.327 . S
C1612 H1637 0.950 . S
C1613 C1612 1.349 . S
C1613 C1629 1.349 . S
C1614 C1612 1.327 . S
C1614 C1633 1.429 . S
C1614 H1638 0.950 . S
C1615 C1632 1.574 . S
C1615 C1634 1.368 . S
C1615 H1639 0.949 . S
H1616 C1620 0.949 . S
C1617 C1618 1.349 . S
C1617 C1619 1.327 . S
C1617 H1640 0.950 . S
C1618 C1617 1.349 . S
C1618 C1630 1.349 . S
C1619 C1617 1.327 . S
C1619 C1635 1.448 . S
C1619 H1641 0.950 . S
C1620 H1616 0.949 . S
C1620 C1628 1.574 . S
C1620 C1636 1.368 . S
H1621 C1629 0.950 . S
H1622 C1627 0.950 . S
H1623 C1628 0.949 . S
H1624 C1630 0.950 . S
H1625 C1631 0.925 1_556 S
H1626 C1632 0.949 . S
C1627 H1622 0.950 . S
C1627 C1629 1.327 . S
C1627 C1633 1.429 . S
C1628 C1620 1.574 . S
C1628 H1623 0.949 . S
C1628 C1634 1.368 . S
C1629 C1613 1.349 . S
C1629 H1621 0.950 . S
C1629 C1627 1.327 . S
C1630 C1618 1.349 . S
C1630 H1624 0.950 . S
C1630 C1631 1.327 . S
C1631 H1625 0.925 1_554 S
C1631 C1630 1.327 . S
C1631 C1635 1.438 . S
C1632 C1615 1.574 . S
C1632 H1626 0.949 . S
C1632 C1636 1.368 . S
C1633 C1614 1.429 . S
C1633 C1627 1.429 . S
C1633 C1634 1.523 . S
C1634 C1615 1.368 . S
C1634 C1628 1.368 . S
C1634 C1633 1.523 . S
C1635 C1619 1.448 . S
C1635 C1631 1.438 . S
C1635 C1636 1.497 1_554 S
C1636 C1620 1.368 . S
C1636 C1632 1.368 . S
C1636 C1635 1.497 1_556 S
H1637 C1612 0.950 . S
H1638 C1614 0.950 . S
H1639 C1615 0.949 . S
H1640 C1617 0.950 . S
H1641 C1619 0.950 . S
C1642 C1643 1.349 . S
C1642 C1644 1.327 . S
C1642 H1667 0.950 . S
C1643 C1642 1.349 . S
C1643 C1659 1.349 . S
C1644 C1642 1.327 . S
C1644 C1663 1.429 . S
C1644 H1668 0.950 1_565 S
C1645 C1662 1.574 . S
C1645 C1664 1.368 . S
C1645 H1669 0.949 1_545 S
H1646 C1650 0.949 . S
C1647 C1648 1.349 . S
C1647 C1649 1.327 . S
C1647 H1670 0.950 . S
C1648 C1647 1.349 . S
C1648 C1660 1.349 . S
C1649 C1647 1.327 . S
C1649 C1665 1.429 . S
C1649 H1671 0.950 . S
C1650 H1646 0.949 . S
C1650 C1658 1.574 . S
C1650 C1666 1.368 . S
H1651 C1659 0.950 . S
H1652 C1657 0.950 . S
H1653 C1658 0.949 . S
H1654 C1660 0.950 . S
H1655 C1661 0.950 . S
H1656 C1662 0.949 . S
C1657 H1652 0.950 . S
C1657 C1659 1.327 . S
C1657 C1663 1.429 . S
C1658 C1650 1.574 . S
C1658 H1653 0.949 . S
C1658 C1664 1.368 . S
C1659 C1643 1.349 . S
C1659 H1651 0.950 . S
C1659 C1657 1.327 . S
C1660 C1648 1.349 . S
C1660 H1654 0.950 . S
C1660 C1661 1.327 . S
C1661 H1655 0.950 . S
C1661 C1660 1.327 . S
C1661 C1665 1.429 . S
C1662 C1645 1.574 . S
C1662 H1656 0.949 . S
C1662 C1666 1.368 . S
C1663 C1644 1.429 . S
C1663 C1657 1.429 . S
C1663 C1664 1.523 1_565 S
C1664 C1645 1.368 . S
C1664 C1658 1.368 . S
C1664 C1663 1.523 1_545 S
C1665 C1649 1.429 . S
C1665 C1661 1.429 . S
C1665 C1666 1.523 . S
C1666 C1650 1.368 . S
C1666 C1662 1.368 . S
C1666 C1665 1.523 . S
H1667 C1642 0.950 . S
H1668 C1644 0.950 1_545 S
H1669 C1645 0.949 1_565 S
H1670 C1647 0.950 . S
H1671 C1649 0.950 . S
C1672 C1673 1.349 . S
C1672 C1674 1.327 . S
C1672 H1697 0.950 . S
C1673 C1672 1.349 . S
C1673 C1689 1.349 . S
C1674 C1672 1.327 . S
C1674 C1693 1.429 . S
C1674 H1698 0.950 . S
C1675 C1692 1.574 . S
C1675 C1694 1.368 . S
C1675 H1699 0.949 . S
H1676 C1680 0.949 . S
C1677 C1678 1.349 . S
C1677 C1679 1.327 . S
C1677 H1700 0.950 . S
C1678 C1677 1.349 . S
C1678 C1690 1.349 . S
C1679 C1677 1.327 . S
C1679 C1695 1.429 . S
C1679 H1701 0.950 . S
C1680 H1676 0.949 . S
C1680 C1688 1.574 . S
C1680 C1696 1.368 . S
H1681 C1689 0.950 . S
H1682 C1687 0.950 . S
H1683 C1688 0.949 . S
H1684 C1690 0.950 . S
H1685 C1691 0.950 . S
H1686 C1692 0.949 . S
C1687 H1682 0.950 . S
C1687 C1689 1.327 . S
C1687 C1693 1.429 . S
C1688 C1680 1.574 . S
C1688 H1683 0.949 . S
C1688 C1694 1.368 . S
C1689 C1673 1.349 . S
C1689 H1681 0.950 . S
C1689 C1687 1.327 . S
C1690 C1678 1.349 . S
C1690 H1684 0.950 . S
C1690 C1691 1.327 . S
C1691 H1685 0.950 . S
C1691 C1690 1.327 . S
C1691 C1695 1.429 . S
C1692 C1675 1.574 . S
C1692 H1686 0.949 . S
C1692 C1696 1.368 . S
C1693 C1674 1.429 . S
C1693 C1687 1.429 . S
C1693 C1694 1.523 . S
C1694 C1675 1.368 . S
C1694 C1688 1.368 . S
C1694 C1693 1.523 . S
C1695 C1679 1.429 . S
C1695 C1691 1.429 . S
C1695 C1696 1.523 . S
C1696 C1680 1.368 . S
C1696 C1692 1.368 . S
C1696 C1695 1.523 . S
H1697 C1672 0.950 . S
H1698 C1674 0.950 . S
H1699 C1675 0.949 . S
H1700 C1677 0.950 . S
H1701 C1679 0.950 . S
C1702 C1703 1.349 . S
C1702 C1704 1.327 . S
C1702 H1727 0.950 . S
C1703 C1702 1.349 . S
C1703 C1719 1.349 . S
C1704 C1702 1.327 . S
C1704 C1723 1.429 . S
C1704 H1728 0.950 . S
C1705 C1722 1.574 1_545 S
C1705 C1724 1.368 . S
C1705 H1729 0.949 1_545 S
H1706 C1710 0.949 . S
C1707 C1708 1.349 . S
C1707 C1709 1.327 . S
C1707 H1730 0.950 . S
C1708 C1707 1.349 . S
C1708 C1720 1.349 . S
C1709 C1707 1.327 . S
C1709 C1725 1.429 . S
C1709 H1731 0.950 . S
C1710 H1706 0.949 . S
C1710 C1718 1.574 . S
C1710 C1726 1.368 . S
H1711 C1719 0.950 . S
H1712 C1717 0.950 . S
H1713 C1718 0.949 . S
H1714 C1720 0.950 1_545 S
H1715 C1721 0.950 . S
H1716 C1722 0.949 . S
C1717 H1712 0.950 . S
C1717 C1719 1.327 . S
C1717 C1723 1.429 . S
C1718 C1710 1.574 . S
C1718 H1713 0.949 . S
C1718 C1724 1.368 . S
C1719 C1703 1.349 . S
C1719 H1711 0.950 . S
C1719 C1717 1.327 . S
C1720 C1708 1.349 . S
C1720 H1714 0.950 1_565 S
C1720 C1721 1.327 1_565 S
C1721 H1715 0.950 . S
C1721 C1720 1.327 1_545 S
C1721 C1725 1.429 1_545 S
C1722 C1705 1.574 1_565 S
C1722 H1716 0.949 . S
C1722 C1726 1.368 1_565 S
C1723 C1704 1.429 . S
C1723 C1717 1.429 . S
C1723 C1724 1.523 . S
C1724 C1705 1.368 . S
C1724 C1718 1.368 . S
C1724 C1723 1.523 . S
C1725 C1709 1.429 . S
C1725 C1721 1.429 1_565 S
C1725 C1726 1.523 1_565 S
C1726 C1710 1.368 . S
C1726 C1722 1.368 1_545 S
C1726 C1725 1.523 1_545 S
H1727 C1702 0.950 . S
H1728 C1704 0.950 . S
H1729 C1705 0.949 1_565 S
H1730 C1707 0.950 . S
H1731 C1709 0.950 . S
C1732 C1733 1.349 . S
C1732 C1734 1.327 . S
C1732 H1757 0.950 . S
C1733 C1732 1.349 . S
C1733 C1749 1.349 . S
C1734 C1732 1.327 . S
C1734 C1753 1.429 . S
C1734 H1758 0.950 . S
C1735 C1752 1.574 . S
C1735 C1754 1.368 . S
C1735 H1759 0.949 . S
H1736 C1740 0.949 . S
C1737 C1738 1.349 . S
C1737 C1739 1.327 . S
C1737 H1760 0.950 . S
C1738 C1737 1.349 . S
C1738 C1750 1.349 . S
C1739 C1737 1.327 . S
C1739 C1755 1.435 . S
C1739 H1761 0.950 1_556 S
C1740 H1736 0.949 . S
C1740 C1748 1.574 . S
C1740 C1756 1.368 . S
H1741 C1749 0.950 . S
H1742 C1747 0.950 . S
H1743 C1748 0.949 . S
H1744 C1750 0.950 . S
H1745 C1751 0.950 . S
H1746 C1752 0.949 . S
C1747 H1742 0.950 . S
C1747 C1749 1.327 . S
C1747 C1753 1.429 . S
C1748 C1740 1.574 . S
C1748 H1743 0.949 . S
C1748 C1754 1.368 . S
C1749 C1733 1.349 . S
C1749 H1741 0.950 . S
C1749 C1747 1.327 . S
C1750 C1738 1.349 . S
C1750 H1744 0.950 . S
C1750 C1751 1.327 . S
C1751 H1745 0.950 . S
C1751 C1750 1.327 . S
C1751 C1755 1.447 . S
C1752 C1735 1.574 . S
C1752 H1746 0.949 . S
C1752 C1756 1.368 . S
C1753 C1734 1.429 . S
C1753 C1747 1.429 . S
C1753 C1754 1.523 . S
C1754 C1735 1.368 . S
C1754 C1748 1.368 . S
C1754 C1753 1.523 . S
C1755 C1739 1.435 . S
C1755 C1751 1.447 . S
C1755 C1756 1.500 1_556 S
C1756 C1740 1.368 . S
C1756 C1752 1.368 . S
C1756 C1755 1.500 1_554 S
H1757 C1732 0.950 . S
H1758 C1734 0.950 . S
H1759 C1735 0.949 . S
H1760 C1737 0.950 . S
H1761 C1739 0.950 1_554 S
C1762 C1763 1.349 . S
C1762 C1764 1.327 . S
C1762 H1787 0.950 . S
C1763 C1762 1.349 . S
C1763 C1779 1.349 . S
C1764 C1762 1.327 . S
C1764 C1783 1.429 . S
C1764 H1788 0.950 . S
C1765 C1782 1.574 1_565 S
C1765 C1784 1.368 . S
C1765 H1789 0.949 1_565 S
H1766 C1770 0.949 . S
C1767 C1768 1.349 . S
C1767 C1769 1.327 . S
C1767 H1790 0.950 . S
C1768 C1767 1.349 . S
C1768 C1780 1.349 . S
C1769 C1767 1.327 . S
C1769 C1785 1.429 . S
C1769 H1791 0.950 . S
C1770 H1766 0.949 . S
C1770 C1778 1.574 . S
C1770 C1786 1.368 . S
H1771 C1779 0.950 . S
H1772 C1777 0.950 . S
H1773 C1778 0.949 . S
H1774 C1780 0.950 1_565 S
H1775 C1781 0.950 . S
H1776 C1782 0.949 . S
C1777 H1772 0.950 . S
C1777 C1779 1.327 . S
C1777 C1783 1.429 . S
C1778 C1770 1.574 . S
C1778 H1773 0.949 . S
C1778 C1784 1.368 . S
C1779 C1763 1.349 . S
C1779 H1771 0.950 . S
C1779 C1777 1.327 . S
C1780 C1768 1.349 . S
C1780 H1774 0.950 1_545 S
C1780 C1781 1.327 1_545 S
C1781 H1775 0.950 . S
C1781 C1780 1.327 1_565 S
C1781 C1785 1.429 1_565 S
C1782 C1765 1.574 1_545 S
C1782 H1776 0.949 . S
C1782 C1786 1.368 1_545 S
C1783 C1764 1.429 . S
C1783 C1777 1.429 . S
C1783 C1784 1.523 . S
C1784 C1765 1.368 . S
C1784 C1778 1.368 . S
C1784 C1783 1.523 . S
C1785 C1769 1.429 . S
C1785 C1781 1.429 1_545 S
C1785 C1786 1.523 1_545 S
C1786 C1770 1.368 . S
C1786 C1782 1.368 1_565 S
C1786 C1785 1.523 1_565 S
H1787 C1762 0.950 . S
H1788 C1764 0.950 . S
H1789 C1765 0.949 1_545 S
H1790 C1767 0.950 . S
H1791 C1769 0.950 . S
C353 C15 0.414 . S
C358 C241 0.414 . S
C383 C32 0.374 . S
C388 C263 0.382 . S
C413 C65 0.414 . S
C418 C197 0.414 . S
C443 C216 0.374 . S
C448 C81 0.382 . S
C473 C103 0.437 . S
C478 C323 0.437 . S
C503 C345 0.418 . S
C508 C117 0.420 . S
C533 C285 0.437 . S
C538 C153 0.437 . S
C563 C169 0.418 . S
C568 C301 0.420 . S
C593 C7 2.270 . S
C598 C95 2.270 . S
C623 C30 2.225 . S
C628 C293 2.211 . S
C653 C59 2.285 . S
C658 C147 2.285 . S
C683 C73 2.259 . S
C688 C337 2.259 . S
C713 C131 2.211 . S
C718 C208 2.225 . S
C743 C257 2.259 . S
C748 C161 2.259 . S
C773 C279 2.270 . S
C778 C191 2.270 . S
C803 C235 2.285 . S
C808 C315 2.285 . S
C833 C10 1.821 . S
C838 C162 1.821 . S
C863 C37 1.858 . S
C868 C282 1.870 . S
C893 C52 1.819 . S
C898 C120 1.818 . S
C923 C76 1.821 . S
C928 C316 1.821 . S
C953 C74 1.792 . S
C958 C98 1.791 . S
C983 C128 1.803 . S
C988 C194 1.803 . S
C1013 C140 1.870 . S
C1018 C29 1.863 . S
C1043 C238 1.818 . S
C1048 C164 1.818 . S
C1073 C184 1.821 . S
C1078 C338 1.821 1_565 S
C1103 C96 1.870 . S
C1108 C205 1.858 . S
C1133 C294 1.818 1_545 S
C1138 C228 1.819 . S
C1163 C150 1.821 . S
C1168 C250 1.821 . S
C1193 C272 1.791 . S
C1198 C260 1.792 1_545 S
C1223 C296 1.803 . S
C1228 C8 1.803 . S
C1253 C219 1.863 1_565 S
C1258 C318 1.870 . S
C1283 C340 1.818 . S
C1288 C62 1.818 . S
C1313 C18 0.664 . S
C1318 C206 0.672 . S
C1343 C227 0.765 . S
C1348 C43 0.767 . S
C1373 C54 0.725 . S
C1378 C249 0.729 . S
C1403 C183 0.707 . S
C1408 C84 0.699 . S
C1433 C307 0.716 . S
C1438 C106 0.711 . S
C1463 C329 0.726 . S
C1468 C118 0.723 . S
C1493 C351 0.723 . S
C1498 C142 0.719 . S
C1523 C271 0.718 . S
C1528 C172 0.713 . S
C1553 C40 0.672 . S
C1558 C186 0.664 . S
C1583 C51 0.765 . S
C1588 C213 0.767 . S
C1613 C87 0.729 . S
C1618 C230 0.725 . S
C1643 C252 0.699 . S
C1648 C21 0.707 . S
C1673 C125 0.716 . S
C1678 C274 0.711 . S
C1703 C139 0.726 . S
C1708 C304 0.723 . S
C1733 C175 0.723 . S
C1738 C326 0.719 . S
C1763 C109 0.718 . S
C1768 C348 0.713 . S
