# Generated by pormake.
# Topology uop, (4)-cn, num edge types: 1
# Building blocks:
#     Node 0, Type 0, BuildingBlock: QUQFOY_clean_sbu_1, # of connection points: 4
#     Node 1, Type 0, BuildingBlock: QUQFOY_clean_sbu_1, # of connection points: 4
#     Node 2, Type 0, BuildingBlock: QUQFOY_clean_sbu_1, # of connection points: 4
#     Node 3, Type 0, BuildingBlock: QUQFOY_clean_sbu_1, # of connection points: 4
#     Node 4, Type 0, BuildingBlock: QUQFOY_clean_sbu_1, # of connection points: 4
#     Node 5, Type 0, BuildingBlock: QUQFOY_clean_sbu_1, # of connection points: 4
#     Node 6, Type 0, BuildingBlock: QUQFOY_clean_sbu_1, # of connection points: 4
#     Node 7, Type 0, BuildingBlock: QUQFOY_clean_sbu_1, # of connection points: 4
#     Node 8, Type 0, BuildingBlock: QUQFOY_clean_sbu_1, # of connection points: 4
#     Node 9, Type 0, BuildingBlock: QUQFOY_clean_sbu_1, # of connection points: 4
#     Node 10, Type 0, BuildingBlock: QUQFOY_clean_sbu_1, # of connection points: 4
#     Node 11, Type 0, BuildingBlock: QUQFOY_clean_sbu_1, # of connection points: 4
#     Edge 12, Type (0, 0), BuildingBlock: ZUJKAS_clean_linker_0, # of connection points: 2
#     Edge 13, Type (0, 0), BuildingBlock: ZUJKAS_clean_linker_0, # of connection points: 2
#     Edge 14, Type (0, 0), BuildingBlock: ZUJKAS_clean_linker_0, # of connection points: 2
#     Edge 15, Type (0, 0), BuildingBlock: ZUJKAS_clean_linker_0, # of connection points: 2
#     Edge 16, Type (0, 0), BuildingBlock: ZUJKAS_clean_linker_0, # of connection points: 2
#     Edge 17, Type (0, 0), BuildingBlock: ZUJKAS_clean_linker_0, # of connection points: 2
#     Edge 18, Type (0, 0), BuildingBlock: ZUJKAS_clean_linker_0, # of connection points: 2
#     Edge 19, Type (0, 0), BuildingBlock: ZUJKAS_clean_linker_0, # of connection points: 2
#     Edge 20, Type (0, 0), BuildingBlock: ZUJKAS_clean_linker_0, # of connection points: 2
#     Edge 21, Type (0, 0), BuildingBlock: ZUJKAS_clean_linker_0, # of connection points: 2
#     Edge 22, Type (0, 0), BuildingBlock: ZUJKAS_clean_linker_0, # of connection points: 2
#     Edge 23, Type (0, 0), BuildingBlock: ZUJKAS_clean_linker_0, # of connection points: 2
#     Edge 24, Type (0, 0), BuildingBlock: ZUJKAS_clean_linker_0, # of connection points: 2
#     Edge 25, Type (0, 0), BuildingBlock: ZUJKAS_clean_linker_0, # of connection points: 2
#     Edge 26, Type (0, 0), BuildingBlock: ZUJKAS_clean_linker_0, # of connection points: 2
#     Edge 27, Type (0, 0), BuildingBlock: ZUJKAS_clean_linker_0, # of connection points: 2
#     Edge 28, Type (0, 0), BuildingBlock: ZUJKAS_clean_linker_0, # of connection points: 2
#     Edge 29, Type (0, 0), BuildingBlock: ZUJKAS_clean_linker_0, # of connection points: 2
#     Edge 30, Type (0, 0), BuildingBlock: ZUJKAS_clean_linker_0, # of connection points: 2
#     Edge 31, Type (0, 0), BuildingBlock: ZUJKAS_clean_linker_0, # of connection points: 2
#     Edge 32, Type (0, 0), BuildingBlock: ZUJKAS_clean_linker_0, # of connection points: 2
#     Edge 33, Type (0, 0), BuildingBlock: ZUJKAS_clean_linker_0, # of connection points: 2
#     Edge 34, Type (0, 0), BuildingBlock: ZUJKAS_clean_linker_0, # of connection points: 2
#     Edge 35, Type (0, 0), BuildingBlock: ZUJKAS_clean_linker_0, # of connection points: 2
# Relax obj value: 0.097
# Max RMSD: 0.124
# Mean RMSD: 0.124
data_MOF--net-uop--node1-QUQFOY_clean_sbu_1--edge1-ZUJKAS_clean_linker_0
_symmetry_space_group_name_H-M    P1
_symmetry_Int_Tables_number       1
_symmetry_cell_setting            triclinic
loop_
_symmetry_equiv_pos_as_xyz
'x, y, z'
_cell_length_a     42.240403
_cell_length_b     42.265346
_cell_length_c     68.520534
_cell_angle_alpha  89.945132
_cell_angle_beta   90.042906
_cell_angle_gamma 119.88335
loop_
_atom_site_label
_atom_site_type_symbol
_atom_site_fract_x
_atom_site_fract_y
_atom_site_fract_z
_atom_type_partial_charge
O0 O 0.22339 0.42979 0.21208 0.0
Cd1 Cd 0.23309 0.3868 0.21477 0.0
Cd2 Cd 0.26176 0.42047 0.24856 0.0
O3 O 0.23782 0.45203 0.24193 0.0
O4 O 0.19916 0.34962 0.19588 0.0
O5 O 0.19502 0.34101 0.22785 0.0
C6 C 0.18198 0.32929 0.21062 0.0
C7 C 0.25898 0.39138 0.27823 0.0
C8 C 0.22582 0.45259 0.22492 0.0
C9 C 0.31284 0.42076 0.21765 0.0
O10 O 0.30879 0.43418 0.2334 0.0
O11 O 0.28514 0.39772 0.20807 0.0
O12 O 0.27729 0.42646 0.27659 0.0
O13 O 0.23961 0.37289 0.26342 0.0
O14 O 0.78777 0.22608 0.54938 0.0
Cd15 Cd 0.84127 0.23827 0.55151 0.0
Cd16 Cd 0.83549 0.26555 0.58535 0.0
O17 O 0.77958 0.2383 0.57963 0.0
O18 O 0.84555 0.20613 0.53174 0.0
O19 O 0.85141 0.20082 0.56348 0.0
C20 C 0.84983 0.18866 0.546 0.0
C21 C 0.86519 0.26236 0.61358 0.0
C22 C 0.76695 0.22656 0.56262 0.0
C23 C 0.88259 0.31842 0.55435 0.0
O24 O 0.865 0.3135 0.57017 0.0
O25 O 0.88012 0.29131 0.545 0.0
O26 O 0.84601 0.27846 0.61369 0.0
O27 O 0.86518 0.2456 0.59781 0.0
O28 O 0.56584 0.78169 0.88655 0.0
Cd29 Cd 0.60592 0.83526 0.89104 0.0
Cd30 Cd 0.57192 0.82118 0.9246 0.0
O31 O 0.54837 0.76646 0.91707 0.0
O32 O 0.64224 0.84528 0.86997 0.0
O33 O 0.6542 0.84393 0.9013 0.0
C34 C 0.66451 0.84684 0.88332 0.0
C35 C 0.6066 0.85243 0.95194 0.0
C36 C 0.54682 0.75756 0.89918 0.0
C37 C 0.56192 0.87037 0.89759 0.0
O38 O 0.54786 0.84736 0.91136 0.0
O39 O 0.59006 0.87422 0.88873 0.0
O40 O 0.57189 0.83005 0.95334 0.0
O41 O 0.62208 0.85449 0.93534 0.0
O42 O 0.77664 0.56631 0.21226 0.0
Cd43 Cd 0.76475 0.60782 0.21463 0.0
Cd44 Cd 0.7373 0.57431 0.24851 0.0
O45 O 0.76343 0.54466 0.24227 0.0
O46 O 0.79753 0.64511 0.19541 0.0
O47 O 0.80189 0.65456 0.2273 0.0
C48 C 0.81453 0.66604 0.20999 0.0
C49 C 0.74013 0.60519 0.27747 0.0
C50 C 0.77549 0.5443 0.22527 0.0
C51 C 0.68472 0.57045 0.21755 0.0
O52 O 0.6896 0.55782 0.2334 0.0
O53 O 0.7119 0.59437 0.20797 0.0
O54 O 0.72301 0.56999 0.27671 0.0
O55 O 0.75823 0.62289 0.26218 0.0
O56 O 0.21238 0.77611 0.551 0.0
Cd57 Cd 0.15975 0.76707 0.55265 0.0
Cd58 Cd 0.16223 0.7366 0.58649 0.0
O59 O 0.21759 0.75845 0.5806 0.0
O60 O 0.15835 0.80134 0.5332 0.0
O61 O 0.15148 0.80555 0.56492 0.0
C62 C 0.15424 0.81865 0.54756 0.0
C63 C 0.13499 0.73996 0.61564 0.0
C64 C 0.23136 0.77165 0.56397 0.0
C65 C 0.11279 0.68711 0.55486 0.0
O66 O 0.12906 0.69033 0.57095 0.0
O67 O 0.1186 0.7153 0.54532 0.0
O68 O 0.15096 0.72076 0.61439 0.0
O69 O 0.13725 0.75987 0.60078 0.0
O70 O 0.43359 0.21248 0.88597 0.0
Cd71 Cd 0.39101 0.16005 0.89053 0.0
Cd72 Cd 0.425 0.17178 0.92426 0.0
O73 O 0.45264 0.22657 0.91637 0.0
O74 O 0.35493 0.15228 0.8697 0.0
O75 O 0.34425 0.15481 0.9011 0.0
C76 C 0.33366 0.15227 0.88319 0.0
C77 C 0.39173 0.14388 0.95255 0.0
C78 C 0.45424 0.23583 0.89853 0.0
C79 C 0.42884 0.11854 0.89741 0.0
O80 O 0.44421 0.14106 0.91124 0.0
O81 O 0.40249 0.11801 0.88815 0.0
O82 O 0.42692 0.16354 0.95291 0.0
O83 O 0.37524 0.14305 0.93648 0.0
O84 O 0.56804 0.77498 0.49667 0.0
Cd85 Cd 0.61232 0.76713 0.4963 0.0
Cd86 Cd 0.57994 0.7327 0.46184 0.0
O87 O 0.54337 0.75107 0.4681 0.0
O88 O 0.64511 0.80067 0.51682 0.0
O89 O 0.65992 0.80726 0.48554 0.0
C90 C 0.66804 0.81913 0.50324 0.0
C91 C 0.60763 0.73605 0.43163 0.0
C92 C 0.54331 0.76692 0.48392 0.0
C93 C 0.58516 0.68743 0.49456 0.0
O94 O 0.57316 0.68861 0.47774 0.0
O95 O 0.60308 0.71627 0.50458 0.0
O96 O 0.57305 0.71482 0.43426 0.0
O97 O 0.62607 0.75788 0.44571 0.0
O98 O 0.78924 0.56772 0.83144 0.0
Cd99 Cd 0.84243 0.6096 0.82884 0.0
Cd100 Cd 0.83549 0.57634 0.79487 0.0
O101 O 0.77991 0.5469 0.80125 0.0
O102 O 0.84669 0.64592 0.84867 0.0
O103 O 0.8511 0.65672 0.8169 0.0
C104 C 0.84999 0.66735 0.83444 0.0
C105 C 0.86366 0.60776 0.76608 0.0
C106 C 0.768 0.54614 0.81843 0.0
C107 C 0.88531 0.57243 0.82498 0.0
O108 O 0.86668 0.55925 0.80952 0.0
O109 O 0.88271 0.59674 0.83459 0.0
O110 O 0.84535 0.57255 0.76663 0.0
O111 O 0.86325 0.62522 0.78148 0.0
O112 O 0.22327 0.78923 0.1632 0.0
Cd113 Cd 0.23322 0.84204 0.16076 0.0
Cd114 Cd 0.26009 0.83634 0.12678 0.0
O115 O 0.23474 0.78068 0.13285 0.0
O116 O 0.20226 0.84625 0.1813 0.0
O117 O 0.19329 0.84954 0.14972 0.0
C118 C 0.18297 0.849 0.16752 0.0
C119 C 0.25606 0.86524 0.09845 0.0
C120 C 0.22403 0.76842 0.15003 0.0
C121 C 0.3131 0.88579 0.15697 0.0
O122 O 0.30817 0.8674 0.14149 0.0
O123 O 0.28591 0.88282 0.16645 0.0
O124 O 0.27345 0.84731 0.09856 0.0
O125 O 0.23816 0.864 0.11401 0.0
O126 O 0.42996 0.22598 0.49984 0.0
Cd127 Cd 0.38797 0.2372 0.49743 0.0
Cd128 Cd 0.42064 0.2634 0.46307 0.0
O129 O 0.45073 0.23784 0.46963 0.0
O130 O 0.35288 0.20666 0.51806 0.0
O131 O 0.34019 0.1979 0.48652 0.0
C132 C 0.33063 0.18756 0.50435 0.0
C133 C 0.39015 0.26007 0.43386 0.0
C134 C 0.45166 0.22664 0.4868 0.0
C135 C 0.42479 0.31707 0.49337 0.0
O136 O 0.43715 0.31163 0.47759 0.0
O137 O 0.40125 0.29025 0.5033 0.0
O138 O 0.42535 0.27722 0.43482 0.0
O139 O 0.37218 0.2421 0.44913 0.0
O140 O 0.2122 0.43131 0.82966 0.0
Cd141 Cd 0.15844 0.39106 0.82684 0.0
Cd142 Cd 0.1667 0.42535 0.79307 0.0
O143 O 0.22234 0.4524 0.79951 0.0
O144 O 0.15235 0.35424 0.84684 0.0
O145 O 0.14826 0.34333 0.81511 0.0
C146 C 0.14864 0.33252 0.83271 0.0
C147 C 0.13718 0.39322 0.76471 0.0
C148 C 0.23398 0.45244 0.81668 0.0
C149 C 0.11846 0.43148 0.82313 0.0
O150 O 0.13732 0.44459 0.80773 0.0
O151 O 0.11979 0.40617 0.83248 0.0
O152 O 0.15729 0.42835 0.76463 0.0
O153 O 0.13636 0.3761 0.78053 0.0
O154 O 0.77719 0.2093 0.16257 0.0
Cd155 Cd 0.76513 0.15587 0.16018 0.0
Cd156 Cd 0.73933 0.1627 0.12613 0.0
O157 O 0.76682 0.21846 0.13212 0.0
O158 O 0.79479 0.15027 0.18104 0.0
O159 O 0.8042 0.14667 0.14957 0.0
C160 C 0.81398 0.14688 0.16746 0.0
C161 C 0.74318 0.13258 0.09833 0.0
C162 C 0.77761 0.23055 0.14931 0.0
C163 C 0.685 0.11497 0.15617 0.0
O164 O 0.69063 0.13342 0.14062 0.0
O165 O 0.71169 0.11675 0.16567 0.0
O166 O 0.7276 0.15223 0.09771 0.0
O167 O 0.75933 0.13257 0.11438 0.0
H168 H 0.24079 0.72204 0.13025 0.0
H169 H 0.23492 0.66464 0.14233 0.0
H170 H 0.18422 0.67392 0.19493 0.0
H171 H 0.18973 0.73084 0.18302 0.0
H172 H 0.26744 0.65861 0.17728 0.0
H173 H 0.11724 0.56707 0.17875 0.0
H174 H 0.13899 0.6087 0.16462 0.0
H175 H 0.13263 0.61032 0.19046 0.0
C176 C 0.22764 0.71142 0.14418 0.0
C177 C 0.21574 0.73109 0.15565 0.0
C178 C 0.22449 0.67872 0.15112 0.0
C179 C 0.2089 0.66484 0.16948 0.0
C180 C 0.19582 0.68374 0.18061 0.0
H181 H 0.24521 0.51736 0.24363 0.0
H182 H 0.23958 0.56871 0.23097 0.0
C183 C 0.19916 0.71644 0.17378 0.0
C184 C 0.20877 0.63224 0.17776 0.0
H185 H 0.15287 0.54659 0.19583 0.0
C186 C 0.24239 0.63404 0.18124 0.0
C187 C 0.17607 0.60018 0.1829 0.0
C188 C 0.13914 0.59617 0.17885 0.0
C189 C 0.24422 0.60488 0.18997 0.0
C190 C 0.21157 0.5732 0.19559 0.0
C191 C 0.1779 0.57112 0.1918 0.0
C192 C 0.21187 0.54118 0.20439 0.0
C193 C 0.28109 0.60797 0.19284 0.0
C194 C 0.19684 0.50822 0.19406 0.0
C195 C 0.19992 0.47892 0.20125 0.0
C196 C 0.21787 0.48179 0.21905 0.0
C197 C 0.23121 0.5142 0.22991 0.0
C198 C 0.22829 0.54367 0.22261 0.0
H199 H 0.30269 0.63066 0.18415 0.0
H200 H 0.28881 0.61325 0.20847 0.0
H201 H 0.28022 0.58216 0.18868 0.0
H202 H 0.18386 0.50561 0.18004 0.0
H203 H 0.18913 0.45433 0.19254 0.0
H204 H 0.72024 0.24331 0.58205 0.0
H205 H 0.66235 0.23611 0.56984 0.0
H206 H 0.67128 0.18259 0.51832 0.0
H207 H 0.72868 0.1894 0.53038 0.0
H208 H 0.65648 0.26688 0.53437 0.0
H209 H 0.56433 0.11684 0.53462 0.0
H210 H 0.606 0.13901 0.54871 0.0
H211 H 0.60756 0.13151 0.523 0.0
C212 C 0.7094 0.22919 0.56836 0.0
C213 C 0.72915 0.21697 0.5572 0.0
C214 C 0.67643 0.22527 0.56135 0.0
C215 C 0.66236 0.2086 0.54322 0.0
C216 C 0.68125 0.19502 0.53248 0.0
H217 H 0.51552 0.24357 0.46771 0.0
H218 H 0.5664 0.23715 0.48044 0.0
C219 C 0.71422 0.19911 0.53938 0.0
C220 C 0.62983 0.20822 0.53465 0.0
H221 H 0.54409 0.15192 0.51677 0.0
C222 C 0.63183 0.24175 0.53062 0.0
C223 C 0.59768 0.17541 0.52977 0.0
C224 C 0.59348 0.13861 0.53439 0.0
C225 C 0.60278 0.24337 0.52161 0.0
C226 C 0.57099 0.21059 0.51626 0.0
C227 C 0.56871 0.17703 0.52058 0.0
C228 C 0.53902 0.21076 0.50731 0.0
C229 C 0.60608 0.28018 0.51817 0.0
C230 C 0.50625 0.19663 0.51778 0.0
C231 C 0.47723 0.20017 0.51055 0.0
C232 C 0.4802 0.21769 0.49259 0.0
C233 C 0.51231 0.22993 0.48157 0.0
C234 C 0.54151 0.22655 0.4889 0.0
H235 H 0.6289 0.30209 0.52665 0.0
H236 H 0.61129 0.28718 0.50245 0.0
H237 H 0.58036 0.27966 0.52219 0.0
H238 H 0.50364 0.18415 0.53194 0.0
H239 H 0.45284 0.1902 0.51938 0.0
H240 H 0.48592 0.70506 0.91818 0.0
H241 H 0.43651 0.64849 0.90417 0.0
H242 H 0.49685 0.67008 0.85043 0.0
H243 H 0.54616 0.72643 0.86422 0.0
H244 H 0.39825 0.64898 0.8695 0.0
H245 H 0.45981 0.56033 0.86107 0.0
H246 H 0.47771 0.59845 0.87777 0.0
H247 H 0.48712 0.60617 0.85212 0.0
C248 C 0.48909 0.69729 0.90357 0.0
C249 C 0.51998 0.72032 0.89232 0.0
C250 C 0.46075 0.66505 0.89554 0.0
C251 C 0.46308 0.65498 0.87629 0.0
C252 C 0.49465 0.67702 0.86539 0.0
H253 H 0.28209 0.51689 0.79862 0.0
H254 H 0.33987 0.56575 0.81196 0.0
C255 C 0.52277 0.70934 0.8733 0.0
C256 C 0.43126 0.62352 0.8669 0.0
H257 H 0.40305 0.54096 0.84508 0.0
C258 C 0.39925 0.6253 0.86422 0.0
C259 C 0.43266 0.59269 0.86001 0.0
C260 C 0.46603 0.58896 0.86299 0.0
C261 C 0.36872 0.59729 0.85466 0.0
C262 C 0.37031 0.56676 0.84745 0.0
C263 C 0.40212 0.56466 0.85036 0.0
C264 C 0.33822 0.53583 0.83794 0.0
C265 C 0.33471 0.60024 0.85259 0.0
C266 C 0.31899 0.50239 0.84774 0.0
C267 C 0.28607 0.47457 0.84021 0.0
C268 C 0.27183 0.47947 0.8226 0.0
C269 C 0.29233 0.51219 0.81217 0.0
C270 C 0.3252 0.54021 0.81984 0.0
H271 H 0.33572 0.6223 0.86184 0.0
H272 H 0.33171 0.60626 0.83715 0.0
H273 H 0.31011 0.57405 0.85659 0.0
H274 H 0.32862 0.4984 0.86168 0.0
H275 H 0.2711 0.44965 0.84857 0.0
H276 H 0.81329 0.544 0.1931 0.0
H277 H 0.81972 0.49349 0.18052 0.0
H278 H 0.76464 0.42945 0.23133 0.0
H279 H 0.75783 0.48002 0.24408 0.0
H280 H 0.85119 0.45243 0.19595 0.0
H281 H 0.70132 0.36839 0.18432 0.0
H282 H 0.72374 0.41679 0.1891 0.0
H283 H 0.71531 0.38533 0.20871 0.0
C284 C 0.80296 0.51939 0.20179 0.0
C285 C 0.78473 0.51596 0.21955 0.0
C286 C 0.80671 0.49053 0.19455 0.0
C287 C 0.7921 0.4575 0.2048 0.0
C288 C 0.77562 0.45456 0.22304 0.0
H289 H 0.81335 0.26791 0.18205 0.0
H290 H 0.81991 0.32513 0.19415 0.0
C291 C 0.77202 0.48358 0.23039 0.0
C292 C 0.79249 0.42572 0.19579 0.0
H293 H 0.73664 0.34076 0.17702 0.0
C294 C 0.82617 0.42796 0.19185 0.0
C295 C 0.75984 0.39415 0.19006 0.0
C296 C 0.72295 0.39092 0.19308 0.0
C297 C 0.82802 0.39915 0.18269 0.0
C298 C 0.79532 0.3672 0.17743 0.0
C299 C 0.76169 0.36525 0.18107 0.0
C300 C 0.79514 0.33478 0.16889 0.0
C301 C 0.86494 0.40328 0.17849 0.0
C302 C 0.77926 0.3212 0.15055 0.0
C303 C 0.77552 0.28835 0.1435 0.0
C304 C 0.78709 0.26824 0.15485 0.0
C305 C 0.80415 0.28268 0.17291 0.0
C306 C 0.80809 0.31554 0.17984 0.0
H307 H 0.88682 0.43239 0.17853 0.0
H308 H 0.8715 0.38885 0.18993 0.0
H309 H 0.86504 0.39111 0.16415 0.0
H310 H 0.76892 0.33556 0.1419 0.0
H311 H 0.76201 0.27789 0.12963 0.0
H312 H 0.54599 0.82212 0.50556 0.0
H313 H 0.49459 0.82683 0.51847 0.0
H314 H 0.41957 0.7283 0.48794 0.0
H315 H 0.47122 0.72469 0.4741 0.0
H316 H 0.39413 0.77284 0.48748 0.0
H317 H 0.43569 0.76804 0.56344 0.0
H318 H 0.47054 0.80666 0.55061 0.0
H319 H 0.45794 0.76115 0.54279 0.0
C320 C 0.51853 0.80183 0.50132 0.0
C321 C 0.5126 0.77295 0.48889 0.0
C322 C 0.48911 0.80426 0.50894 0.0
C323 C 0.45304 0.77716 0.50484 0.0
C324 C 0.4471 0.74935 0.49155 0.0
H325 H 0.26561 0.73512 0.5769 0.0
H326 H 0.31974 0.73701 0.56269 0.0
C327 C 0.47662 0.74739 0.48354 0.0
C328 C 0.42165 0.77744 0.51468 0.0
H329 H 0.38872 0.7831 0.55936 0.0
C330 C 0.39292 0.77493 0.50321 0.0
C331 C 0.41942 0.77926 0.53528 0.0
C332 C 0.44734 0.7785 0.54874 0.0
C333 C 0.3625 0.77478 0.51165 0.0
C334 C 0.36136 0.77882 0.53216 0.0
C335 C 0.38978 0.78071 0.54365 0.0
C336 C 0.33043 0.78001 0.54199 0.0
C337 C 0.33144 0.76908 0.49847 0.0
C338 C 0.31924 0.80462 0.5358 0.0
C339 C 0.28799 0.80313 0.54369 0.0
C340 C 0.2679 0.7778 0.55841 0.0
C341 C 0.28066 0.75509 0.56568 0.0
C342 C 0.31152 0.75604 0.55746 0.0
H343 H 0.33114 0.75485 0.48478 0.0
H344 H 0.30463 0.75285 0.50581 0.0
H345 H 0.33484 0.79599 0.49435 0.0
H346 H 0.33411 0.82441 0.52448 0.0
H347 H 0.27898 0.8212 0.53791 0.0
H348 H 0.51617 0.28666 0.91756 0.0
H349 H 0.56625 0.34326 0.90393 0.0
H350 H 0.50634 0.32418 0.85018 0.0
H351 H 0.45637 0.26785 0.86359 0.0
H352 H 0.60507 0.34487 0.86903 0.0
H353 H 0.5427 0.43315 0.86254 0.0
H354 H 0.5248 0.39408 0.87862 0.0
H355 H 0.51571 0.38782 0.85288 0.0
C356 C 0.51332 0.29492 0.903 0.0
C357 C 0.48224 0.27267 0.89168 0.0
C358 C 0.54203 0.32717 0.8952 0.0
C359 C 0.53992 0.33805 0.87608 0.0
C360 C 0.50837 0.31662 0.86504 0.0
H361 H 0.72141 0.48167 0.79991 0.0
H362 H 0.66416 0.43132 0.81285 0.0
C363 C 0.47986 0.2843 0.87274 0.0
C364 C 0.57173 0.37008 0.86704 0.0
H365 H 0.59962 0.45371 0.84657 0.0
C366 C 0.60393 0.36872 0.86417 0.0
C367 C 0.57017 0.40115 0.86072 0.0
C368 C 0.53663 0.40447 0.86395 0.0
C369 C 0.63448 0.39742 0.85497 0.0
C370 C 0.63272 0.4282 0.84831 0.0
C371 C 0.60071 0.42984 0.85142 0.0
C372 C 0.66475 0.45983 0.83918 0.0
C373 C 0.6687 0.3949 0.8527 0.0
C374 C 0.68322 0.49295 0.84932 0.0
C375 C 0.71583 0.52162 0.84201 0.0
C376 C 0.73053 0.51793 0.82428 0.0
C377 C 0.71083 0.48545 0.81356 0.0
C378 C 0.67826 0.45658 0.821 0.0
H379 H 0.66782 0.37254 0.86164 0.0
H380 H 0.67186 0.38959 0.83717 0.0
H381 H 0.69314 0.42102 0.85695 0.0
H382 H 0.67319 0.4961 0.86332 0.0
H383 H 0.73016 0.54632 0.8506 0.0
H384 H 0.66257 0.5833 0.18206 0.0
H385 H 0.5996 0.55654 0.16996 0.0
H386 H 0.55957 0.49814 0.22421 0.0
H387 H 0.62167 0.52404 0.23624 0.0
H388 H 0.52782 0.45512 0.18988 0.0
H389 H 0.52504 0.58578 0.19004 0.0
H390 H 0.56037 0.58321 0.17666 0.0
H391 H 0.56016 0.58162 0.20282 0.0
C392 C 0.64028 0.56484 0.1914 0.0
C393 C 0.64712 0.5559 0.21014 0.0
C394 C 0.60441 0.54957 0.18445 0.0
C395 C 0.57506 0.52538 0.19621 0.0
C396 C 0.58192 0.51651 0.21485 0.0
H397 H 0.37646 0.46417 0.23663 0.0
H398 H 0.4383 0.48808 0.22461 0.0
C399 C 0.61749 0.53156 0.22175 0.0
C400 C 0.53669 0.50988 0.18995 0.0
H401 H 0.46898 0.53144 0.18933 0.0
C402 C 0.51487 0.47173 0.1891 0.0
C403 C 0.52015 0.53179 0.18885 0.0
C404 C 0.54242 0.57289 0.18968 0.0
C405 C 0.47666 0.4548 0.18923 0.0
C406 C 0.46016 0.47674 0.19002 0.0
C407 C 0.48194 0.51483 0.18878 0.0
C408 C 0.42197 0.46156 0.19647 0.0
C409 C 0.45429 0.41375 0.19042 0.0
C410 C 0.39226 0.4383 0.18465 0.0
C411 C 0.35651 0.42425 0.19158 0.0
C412 C 0.3502 0.43348 0.21035 0.0
C413 C 0.38023 0.45656 0.22209 0.0
C414 C 0.41565 0.47041 0.21522 0.0
H415 H 0.47155 0.40073 0.19033 0.0
H416 H 0.43764 0.40553 0.20397 0.0
H417 H 0.43524 0.40314 0.17785 0.0
H418 H 0.39671 0.43131 0.1701 0.0
H419 H 0.33391 0.40666 0.18216 0.0
H420 H 0.09683 0.62272 0.57176 0.0
H421 H 0.05818 0.56156 0.55929 0.0
H422 H 0.03425 0.60525 0.50805 0.0
H423 H 0.07329 0.66749 0.52057 0.0
H424 H 0.97243 0.54778 0.52587 0.0
H425 H 0.07775 0.50892 0.51496 0.0
H426 H 0.08304 0.5296 0.53845 0.0
H427 H 0.08865 0.55597 0.51672 0.0
C428 C 0.0836 0.61961 0.55778 0.0
C429 C 0.08829 0.65009 0.54713 0.0
C430 C 0.06177 0.58453 0.55057 0.0
C431 C 0.04422 0.57897 0.53251 0.0
C432 C 0.04814 0.60913 0.52189 0.0
H433 H 0.92226 0.34044 0.52029 0.0
H434 H 0.95844 0.40307 0.50791 0.0
C435 C 0.07026 0.64456 0.5291 0.0
C436 C 0.0198 0.54114 0.52592 0.0
H437 H 0.01729 0.45934 0.52484 0.0
C438 C 0.98221 0.52847 0.52497 0.0
C439 C 0.0326 0.51607 0.52418 0.0
C440 C 0.0728 0.52846 0.5234 0.0
C441 C 0.95697 0.49097 0.52475 0.0
C442 C 0.96984 0.46586 0.52593 0.0
C443 C 0.00739 0.47859 0.52439 0.0
C444 C 0.94577 0.42764 0.53215 0.0
C445 C 0.91677 0.47864 0.52441 0.0
C446 C 0.92739 0.42088 0.55004 0.0
C447 C 0.90703 0.38545 0.55716 0.0
C448 C 0.90484 0.3559 0.54665 0.0
C449 C 0.92342 0.36264 0.52873 0.0
C450 C 0.9439 0.39832 0.52159 0.0
H451 H 0.91159 0.49803 0.51593 0.0
H452 H 0.90055 0.45097 0.51797 0.0
H453 H 0.90716 0.47802 0.53955 0.0
H454 H 0.92948 0.44319 0.55878 0.0
H455 H 0.89325 0.38136 0.57104 0.0
H456 H 0.39578 0.0579 0.87387 0.0
H457 H 0.41497 0.01234 0.86886 0.0
H458 H 0.50973 0.07557 0.90487 0.0
H459 H 0.49083 0.12071 0.91013 0.0
H460 H 0.4848 0.01883 0.85506 0.0
H461 H 0.45041 0.97411 0.93209 0.0
H462 H 0.43404 0.00102 0.91982 0.0
H463 H 0.47983 0.02245 0.92925 0.0
C464 C 0.42087 0.06222 0.88055 0.0
C465 C 0.44148 0.09257 0.89265 0.0
C466 C 0.43181 0.03628 0.87763 0.0
C467 C 0.46343 0.04051 0.88674 0.0
C468 C 0.48495 0.07168 0.89796 0.0
H469 H 0.59395 0.93691 0.87934 0.0
H470 H 0.56685 0.97569 0.8738 0.0
C471 C 0.47403 0.09738 0.90097 0.0
C472 C 0.47304 0.01145 0.88583 0.0
H473 H 0.48617 0.95395 0.91516 0.0
C474 C 0.48474 0.00421 0.8681 0.0
C475 C 0.47234 0.99219 0.90283 0.0
C476 C 0.45815 0.99751 0.92205 0.0
C477 C 0.49719 0.97899 0.86711 0.0
C478 C 0.49842 0.96126 0.88439 0.0
C479 C 0.48546 0.96771 0.90193 0.0
C480 C 0.51355 0.93633 0.88502 0.0
C481 C 0.50875 0.97155 0.84763 0.0
C482 C 0.49271 0.9015 0.89323 0.0
C483 C 0.50835 0.87984 0.89685 0.0
C484 C 0.54509 0.89241 0.89214 0.0
C485 C 0.56554 0.92656 0.88305 0.0
C486 C 0.54998 0.94856 0.87972 0.0
H487 H 0.49563 0.97796 0.83538 0.0
H488 H 0.53875 0.9891 0.84605 0.0
H489 H 0.50185 0.94261 0.84641 0.0
H490 H 0.46457 0.89154 0.89745 0.0
H491 H 0.49179 0.85344 0.90366 0.0
H492 H 0.57317 0.66501 0.53272 0.0
H493 H 0.55012 0.60231 0.54474 0.0
H494 H 0.55487 0.56729 0.48626 0.0
H495 H 0.57687 0.62909 0.47418 0.0
H496 H 0.48089 0.53875 0.52528 0.0
H497 H 0.60375 0.52344 0.5249 0.0
H498 H 0.60583 0.56681 0.52871 0.0
H499 H 0.60076 0.5486 0.50448 0.0
C500 C 0.56994 0.64398 0.52257 0.0
C501 C 0.57661 0.65168 0.50253 0.0
C502 C 0.55676 0.60833 0.52943 0.0
C503 C 0.55115 0.58048 0.51637 0.0
C504 C 0.55943 0.58861 0.49656 0.0
H505 H 0.46789 0.3795 0.47333 0.0
H506 H 0.49723 0.44183 0.48539 0.0
C507 C 0.57183 0.62383 0.48967 0.0
C508 C 0.53313 0.54194 0.52245 0.0
H509 H 0.54595 0.46878 0.51895 0.0
C510 C 0.49506 0.52329 0.52469 0.0
C511 C 0.5519 0.52218 0.52168 0.0
C512 C 0.5929 0.54127 0.51998 0.0
C513 C 0.47484 0.48503 0.52393 0.0
C514 C 0.49346 0.46538 0.5211 0.0
C515 C 0.53178 0.48402 0.52099 0.0
C516 C 0.47414 0.42711 0.51438 0.0
C517 C 0.4337 0.46608 0.52422 0.0
C518 C 0.45088 0.39822 0.52666 0.0
C519 C 0.43371 0.36225 0.51973 0.0
C520 C 0.43985 0.35488 0.50049 0.0
C521 C 0.46266 0.38413 0.48824 0.0
C522 C 0.47959 0.4198 0.49512 0.0
H523 H 0.42344 0.48561 0.52559 0.0
H524 H 0.42246 0.44998 0.51064 0.0
H525 H 0.42316 0.44682 0.53671 0.0
H526 H 0.44654 0.4034 0.54161 0.0
H527 H 0.41644 0.34025 0.52954 0.0
H528 H 0.89648 0.52128 0.80729 0.0
H529 H 0.93549 0.49763 0.8179 0.0
H530 H 0.96763 0.5673 0.86858 0.0
H531 H 0.92853 0.5918 0.85787 0.0
H532 H 0.02588 0.5702 0.84941 0.0
H533 H 0.92159 0.42636 0.8611 0.0
H534 H 0.91501 0.44131 0.83774 0.0
H535 H 0.91026 0.46227 0.85962 0.0
C536 C 0.91156 0.53154 0.82078 0.0
C537 C 0.90929 0.55842 0.83176 0.0
C538 C 0.93359 0.51763 0.82694 0.0
C539 C 0.95366 0.52995 0.8443 0.0
C540 C 0.95186 0.55704 0.85529 0.0
H541 H 0.07752 0.41423 0.85673 0.0
H542 H 0.04024 0.44032 0.86801 0.0
C543 C 0.92966 0.57107 0.84911 0.0
C544 C 0.97861 0.51629 0.8497 0.0
H545 H 0.98166 0.43722 0.85046 0.0
C546 C 0.01622 0.54116 0.85023 0.0
C547 C 0.96605 0.47849 0.85133 0.0
C548 C 0.92596 0.45066 0.85265 0.0
C549 C 0.04162 0.52899 0.85019 0.0
C550 C 0.02892 0.49109 0.84914 0.0
C551 C 0.99141 0.4663 0.85081 0.0
C552 C 0.05329 0.4769 0.84341 0.0
C553 C 0.08178 0.55688 0.85036 0.0
C554 C 0.07232 0.48831 0.8257 0.0
C555 C 0.09341 0.47352 0.81922 0.0
C556 C 0.09565 0.44661 0.83021 0.0
C557 C 0.07636 0.43493 0.84793 0.0
C558 C 0.05521 0.44989 0.85444 0.0
H559 H 0.08694 0.58161 0.85863 0.0
H560 H 0.09819 0.54568 0.85692 0.0
H561 H 0.09121 0.56548 0.83515 0.0
H562 H 0.07025 0.50819 0.81661 0.0
H563 H 0.10768 0.48302 0.80545 0.0
H564 H 0.37599 0.89721 0.1399 0.0
H565 H 0.43812 0.93559 0.15131 0.0
H566 H 0.39856 0.96682 0.20155 0.0
H567 H 0.33553 0.92834 0.19006 0.0
H568 H 0.45487 0.02534 0.18285 0.0
H569 H 0.49311 0.92005 0.19544 0.0
H570 H 0.47224 0.91369 0.17191 0.0
H571 H 0.44607 0.90924 0.19356 0.0
C572 C 0.38026 0.91198 0.15345 0.0
C573 C 0.35073 0.90962 0.16409 0.0
C574 C 0.41587 0.93363 0.16007 0.0
C575 C 0.42285 0.95321 0.17755 0.0
C576 C 0.3936 0.95139 0.18818 0.0
H577 H 0.66182 0.07514 0.19013 0.0
H578 H 0.59874 0.03878 0.20184 0.0
C579 C 0.35771 0.92956 0.18155 0.0
C580 C 0.46115 0.97777 0.18342 0.0
H581 H 0.54279 0.97984 0.18476 0.0
C582 C 0.47406 0.01542 0.18388 0.0
C583 C 0.4861 0.96484 0.18536 0.0
C584 C 0.47354 0.92468 0.18677 0.0
C585 C 0.51162 0.04049 0.18394 0.0
C586 C 0.53657 0.02739 0.18308 0.0
C587 C 0.52364 0.98987 0.18496 0.0
C588 C 0.57496 0.05124 0.1771 0.0
C589 C 0.52415 0.08072 0.18391 0.0
C590 C 0.5823 0.06956 0.15916 0.0
C591 C 0.618 0.09008 0.15243 0.0
C592 C 0.64723 0.09246 0.1634 0.0
C593 C 0.63988 0.07383 0.18134 0.0
C594 C 0.60395 0.05323 0.1881 0.0
H595 H 0.50474 0.08626 0.19211 0.0
H596 H 0.55176 0.09697 0.19044 0.0
H597 H 0.52505 0.08998 0.16865 0.0
H598 H 0.56026 0.06737 0.1501 0.0
H599 H 0.62259 0.10386 0.13851 0.0
H600 H 0.30067 0.4234 0.3106 0.0
H601 H 0.31575 0.39402 0.33684 0.0
H602 H 0.2433 0.28852 0.31186 0.0
H603 H 0.22855 0.31783 0.28524 0.0
H604 H 0.27611 0.3435 0.36487 0.0
H605 H 0.3394 0.28826 0.31431 0.0
H606 H 0.32692 0.32148 0.30673 0.0
H607 H 0.29257 0.27422 0.30905 0.0
C608 C 0.28754 0.3939 0.31076 0.0
C609 C 0.26356 0.37303 0.29569 0.0
C610 C 0.29626 0.37711 0.32581 0.0
C611 C 0.28131 0.33908 0.32615 0.0
C612 C 0.25589 0.31797 0.31168 0.0
H613 H 0.31658 0.23286 0.42834 0.0
H614 H 0.28708 0.24779 0.40189 0.0
C615 C 0.2472 0.33477 0.29656 0.0
C616 C 0.29342 0.322 0.34133 0.0
H617 H 0.33779 0.27357 0.34764 0.0
C618 C 0.28935 0.32797 0.36111 0.0
C619 C 0.31121 0.30216 0.33644 0.0
C620 C 0.31816 0.29635 0.3155 0.0
C621 C 0.30282 0.31502 0.37607 0.0
C622 C 0.32029 0.29488 0.37118 0.0
C623 C 0.32405 0.28862 0.35141 0.0
C624 C 0.33722 0.28248 0.38629 0.0
C625 C 0.29951 0.32434 0.39695 0.0
C626 C 0.37496 0.29545 0.38586 0.0
C627 C 0.39182 0.28663 0.40082 0.0
C628 C 0.37132 0.2645 0.41657 0.0
C629 C 0.33323 0.25004 0.41648 0.0
C630 C 0.31635 0.25885 0.40145 0.0
H631 H 0.29319 0.34686 0.39791 0.0
H632 H 0.27706 0.30001 0.40419 0.0
H633 H 0.32512 0.33244 0.40514 0.0
H634 H 0.39166 0.31353 0.37428 0.0
H635 H 0.42118 0.29826 0.40037 0.0
H636 H 0.92437 0.25227 0.61386 0.0
H637 H 0.96986 0.26884 0.63969 0.0
H638 H 0.90663 0.29856 0.67702 0.0
H639 H 0.86195 0.2836 0.65088 0.0
H640 H 0.9735 0.35017 0.6775 0.0
H641 H 0.97576 0.22179 0.68858 0.0
H642 H 0.98465 0.23645 0.66364 0.0
H643 H 0.9409 0.22373 0.67428 0.0
C644 C 0.91974 0.2616 0.62772 0.0
C645 C 0.88943 0.26652 0.63031 0.0
C646 C 0.94578 0.27093 0.64257 0.0
C647 C 0.94167 0.28457 0.66054 0.0
C648 C 0.9106 0.28812 0.66336 0.0
H649 H 0.077 0.32479 0.76433 0.0
H650 H 0.03053 0.29776 0.73875 0.0
C651 C 0.88491 0.2794 0.64841 0.0
C652 C 0.97105 0.2981 0.67572 0.0
H653 H 0.02601 0.27577 0.70209 0.0
C654 C 0.98471 0.33369 0.68294 0.0
C655 C 0.98565 0.27669 0.68311 0.0
C656 C 0.9707 0.23743 0.67715 0.0
C657 C 0.01252 0.34851 0.69708 0.0
C658 C 0.02841 0.32779 0.70375 0.0
C659 C 0.01442 0.29199 0.69677 0.0
C660 C 0.05864 0.3425 0.71842 0.0
C661 C 0.02379 0.38594 0.70507 0.0
C662 C 0.09082 0.37596 0.7153 0.0
C663 C 0.11722 0.39171 0.73001 0.0
C664 C 0.1125 0.37392 0.74803 0.0
C665 C 0.08156 0.33921 0.75062 0.0
C666 C 0.05487 0.32374 0.736 0.0
H667 H 0.00194 0.39303 0.70308 0.0
H668 H 0.03045 0.38779 0.72085 0.0
H669 H 0.04831 0.40661 0.69712 0.0
H670 H 0.09511 0.39046 0.70164 0.0
H671 H 0.14088 0.4183 0.72746 0.0
H672 H 0.58478 0.84971 0.98986 0.0
H673 H 0.61378 0.89699 1.01482 0.0
H674 H 0.70216 0.96182 0.97528 0.0
H675 H 0.67397 0.91403 0.95049 0.0
H676 H 0.72753 0.96819 1.01175 0.0
H677 H 0.6079 0.98873 1.01276 0.0
H678 H 0.59614 0.94298 1.01907 0.0
H679 H 0.61288 0.96015 0.99496 0.0
C680 C 0.6107 0.87375 0.98657 0.0
C681 C 0.62688 0.87815 0.9681 0.0
C682 C 0.6271 0.90099 1.00082 0.0
C683 C 0.65964 0.9336 0.99678 0.0
C684 C 0.6769 0.93713 0.97874 0.0
H685 H 0.72049 0.13366 0.06105 0.0
H686 H 0.70457 0.0875 0.03568 0.0
C687 C 0.66076 0.90968 0.96456 0.0
C688 C 0.67484 0.96454 1.01099 0.0
H689 H 0.65289 0.01984 0.03706 0.0
C690 C 0.71124 0.97957 1.01724 0.0
C691 C 0.65397 0.98008 1.01787 0.0
C692 C 0.61571 0.96744 1.01067 0.0
C693 C 0.72703 0.0091 0.0304 0.0
C694 C 0.7056 0.02352 0.03796 0.0
C695 C 0.66939 0.00878 0.03146 0.0
C696 C 0.71976 0.05379 0.05259 0.0
C697 C 0.76678 0.02503 0.03567 0.0
C698 C 0.73443 0.05091 0.0705 0.0
C699 C 0.74421 0.07773 0.08493 0.0
C700 C 0.73883 0.10767 0.08194 0.0
C701 C 0.72508 0.11103 0.06383 0.0
C702 C 0.7158 0.0845 0.04933 0.0
H703 H 0.78189 0.01943 1.02418 0.0
H704 H 0.78022 0.05499 0.03789 0.0
H705 H 0.76895 0.0123 0.0494 0.0
H706 H 0.73694 0.02717 0.07369 0.0
H707 H 0.75424 0.074 0.0988 0.0
H708 H 0.68112 0.76871 0.42394 0.0
H709 H 0.71071 0.75496 0.39709 0.0
H710 H 0.60516 0.67943 0.3731 0.0
H711 H 0.57551 0.69327 0.39964 0.0
H712 H 0.70352 0.68789 0.38914 0.0
H713 H 0.66001 0.73604 0.32486 0.0
H714 H 0.65657 0.74927 0.34947 0.0
H715 H 0.62234 0.70579 0.34003 0.0
C716 C 0.66422 0.74981 0.4127 0.0
C717 C 0.62589 0.73223 0.41394 0.0
C718 C 0.68119 0.74182 0.3974 0.0
C719 C 0.66024 0.71639 0.38292 0.0
C720 C 0.62202 0.69967 0.38383 0.0
H721 H 0.7035 0.57512 0.31151 0.0
H722 H 0.68873 0.60515 0.33748 0.0
C723 C 0.60506 0.70756 0.39911 0.0
C724 C 0.67795 0.70517 0.36771 0.0
H725 H 0.68206 0.6946 0.31847 0.0
C726 C 0.69918 0.68978 0.37368 0.0
C727 C 0.67273 0.70795 0.3475 0.0
C728 C 0.65198 0.72599 0.34005 0.0
C729 C 0.71404 0.67581 0.36008 0.0
C730 C 0.70711 0.67676 0.33993 0.0
C731 C 0.68714 0.69351 0.33391 0.0
C732 C 0.7189 0.65922 0.32491 0.0
C733 C 0.737 0.66011 0.36745 0.0
C734 C 0.74076 0.67947 0.30907 0.0
C735 C 0.74926 0.66228 0.29411 0.0
C736 C 0.73576 0.62438 0.29458 0.0
C737 C 0.71464 0.60437 0.31071 0.0
C738 C 0.70624 0.62156 0.32566 0.0
H739 H 0.74893 0.67135 0.382 0.0
H740 H 0.71956 0.6301 0.36898 0.0
H741 H 0.75949 0.66574 0.35715 0.0
H742 H 0.75073 0.70851 0.3081 0.0
H743 H 0.76535 0.67852 0.28186 0.0
H744 H 0.12282 0.69772 0.64809 0.0
H745 H 0.07701 0.68309 0.67346 0.0
H746 H 0.04726 0.75749 0.64737 0.0
H747 H 0.0927 0.7718 0.62161 0.0
H748 H 0.06501 0.72279 0.70102 0.0
H749 H 0.95016 0.66237 0.64808 0.0
H750 H 0.9961 0.67422 0.64149 0.0
H751 H 0.98375 0.70911 0.64339 0.0
C752 C 0.1069 0.71138 0.64783 0.0
C753 C 0.11133 0.73576 0.63268 0.0
C754 C 0.08062 0.70292 0.66238 0.0
C755 C 0.05804 0.71854 0.66214 0.0
C756 C 0.0637 0.74439 0.64763 0.0
H757 H 0.91023 0.68142 0.76146 0.0
H758 H 0.95623 0.71168 0.73587 0.0
C759 C 0.08998 0.75283 0.63301 0.0
C760 C 0.02794 0.70657 0.6767 0.0
H761 H 0.93492 0.66302 0.6811 0.0
C762 C 0.03658 0.70999 0.69667 0.0
C763 C 0.99074 0.68937 0.67104 0.0
C764 C 0.97945 0.68318 0.64985 0.0
C765 C 0.00919 0.69635 0.71108 0.0
C766 C 0.972 0.67937 0.70542 0.0
C767 C 0.96338 0.67635 0.68546 0.0
C768 C 0.94168 0.66209 0.71991 0.0
C769 C 0.02033 0.6989 0.73221 0.0
C770 C 0.91688 0.62445 0.71896 0.0
C771 C 0.89029 0.60716 0.73343 0.0
C772 C 0.88778 0.62713 0.74919 0.0
C773 C 0.91142 0.66516 0.74958 0.0
C774 C 0.93801 0.68247 0.73505 0.0
H775 H 0.04899 0.70494 0.73377 0.0
H776 H 0.01807 0.72123 0.73936 0.0
H777 H 0.0022 0.6731 0.74007 0.0
H778 H 0.91894 0.60813 0.70739 0.0
H779 H 0.87258 0.57786 0.73261 0.0
H780 H 0.22669 0.91011 0.09448 0.0
H781 H 0.24073 0.95647 0.06928 0.0
H782 H 0.31071 0.92398 0.04041 0.0
H783 H 0.29622 0.87725 0.06518 0.0
H784 H 0.30607 0.01462 0.06127 0.0
H785 H 0.25494 0.93062 0.99459 0.0
H786 H 0.24295 0.91111 1.01874 0.0
H787 H 0.28569 0.92088 1.00785 0.0
C788 C 0.2444 0.91226 0.08251 0.0
C789 C 0.26014 0.88974 0.08183 0.0
C790 C 0.25256 0.93894 0.06815 0.0
C791 C 0.27649 0.94359 0.05275 0.0
C792 C 0.29149 0.9205 0.05181 0.0
H793 H 0.41987 0.13541 0.98685 0.0
H794 H 0.38872 0.08851 1.01166 0.0
C795 C 0.28327 0.89378 0.0661 0.0
C796 C 0.288 0.97417 0.03851 0.0
H797 H 0.29852 0.99417 0.98976 0.0
C798 C 0.30396 0.01007 0.04563 0.0
C799 C 0.28485 0.96845 1.01806 0.0
C800 C 0.26582 0.93064 1.00936 0.0
C801 C 0.31816 0.0403 0.03295 0.0
C802 C 0.31714 0.03465 1.01253 0.0
C803 C 0.29977 0.9987 1.00539 0.0
C804 C 0.33526 0.06546 0.99835 0.0
C805 C 0.33408 0.07799 0.04162 0.0
C806 C 0.31581 0.0683 0.98242 0.0
C807 C 0.33371 0.09508 0.96804 0.0
C808 C 0.37154 0.11952 0.96923 0.0
C809 C 0.39068 0.11735 0.98553 0.0
C810 C 0.37281 0.09054 0.99983 0.0
H811 H 0.32197 0.07715 0.05613 0.0
H812 H 0.3639 0.08962 0.04368 0.0
H813 H 0.32962 0.09648 0.03193 0.0
H814 H 0.28687 0.04924 0.98087 0.0
H815 H 0.31813 0.09575 0.95565 0.0
H816 H 0.83527 0.13495 0.20299 0.0
H817 H 0.89689 0.14973 0.2126 0.0
H818 H 0.93298 0.17762 0.15301 0.0
H819 H 0.87112 0.16192 0.14317 0.0
H820 H 0.96806 0.14498 0.17346 0.0
H821 H 0.97022 0.25915 0.21495 0.0
H822 H 0.93467 0.21442 0.22184 0.0
H823 H 0.93442 0.23174 0.1979 0.0
C824 C 0.85611 0.14336 0.19184 0.0
C825 C 0.84853 0.14785 0.17237 0.0
C826 C 0.89132 0.1519 0.19737 0.0
C827 C 0.91965 0.16567 0.1836 0.0
C828 C 0.91151 0.16724 0.16388 0.0
H829 H 0.14907 0.29765 0.17618 0.0
H830 H 0.08573 0.25033 0.17134 0.0
C831 C 0.87614 0.15827 0.15828 0.0
C832 C 0.95821 0.18252 0.19 0.0
H833 H 0.02342 0.25503 0.21558 0.0
C834 C 0.98016 0.16883 0.18282 0.0
C835 C 0.97394 0.21375 0.20216 0.0
C836 C 0.95228 0.23091 0.20955 0.0
C837 C 0.01758 0.18584 0.18733 0.0
C838 C 0.03339 0.21754 0.1991 0.0
C839 C 0.01117 0.2305 0.20673 0.0
C840 C 0.07334 0.24023 0.20213 0.0
C841 C 0.03988 0.16992 0.17935 0.0
C842 C 0.08771 0.25003 0.22107 0.0
C843 C 0.12399 0.27739 0.22391 0.0
C844 C 0.14637 0.29565 0.20783 0.0
C845 C 0.13255 0.28416 0.18889 0.0
C846 C 0.09635 0.25682 0.18608 0.0
H847 H 0.02256 0.14025 0.17639 0.0
H848 H 0.05253 0.1836 0.16535 0.0
H849 H 0.06202 0.17409 0.18959 0.0
H850 H 0.07033 0.23774 0.23367 0.0
H851 H 0.1338 0.2856 0.23868 0.0
H852 H 0.84408 0.15553 0.51098 0.0
H853 H 0.82751 0.09203 0.50563 0.0
H854 H 0.835 0.07795 0.56746 0.0
H855 H 0.85104 0.14146 0.57304 0.0
H856 H 0.85584 0.04458 0.51547 0.0
H857 H 0.72633 0.00962 0.5539 0.0
H858 H 0.75828 0.05547 0.54616 0.0
H859 H 0.76752 0.03676 0.56754 0.0
C860 C 0.84303 0.13923 0.52343 0.0
C861 C 0.84821 0.15334 0.54249 0.0
C862 C 0.83366 0.10294 0.52032 0.0
C863 C 0.82935 0.08017 0.53618 0.0
C864 C 0.83765 0.09501 0.55506 0.0
H865 H 0.69835 0.84405 0.53899 0.0
H866 H 0.74456 0.90624 0.54762 0.0
C867 C 0.84693 0.13133 0.55821 0.0
C868 C 0.81168 0.04025 0.53311 0.0
H869 H 0.73171 0.96124 0.54118 0.0
C870 C 0.82887 0.02619 0.52124 0.0
C871 C 0.77636 0.01646 0.54053 0.0
C872 C 0.75579 0.03021 0.55261 0.0
C873 C 0.81151 0.98885 0.51656 0.0
C874 C 0.77588 0.96525 0.52367 0.0
C875 C 0.75914 0.9793 0.53586 0.0
C876 C 0.7541 0.92631 0.51792 0.0
C877 C 0.83145 0.97504 0.50407 0.0
C878 C 0.74492 0.91658 0.49826 0.0
C879 C 0.71864 0.88086 0.49325 0.0
C880 C 0.70072 0.8545 0.50787 0.0
C881 C 0.71151 0.86382 0.5274 0.0
C882 C 0.73797 0.89934 0.53237 0.0
H883 H 0.86151 0.99317 0.50508 0.0
H884 H 0.82451 0.94697 0.50836 0.0
H885 H 0.82342 0.97449 0.4886 0.0
H886 H 0.75637 0.93706 0.48688 0.0
H887 H 0.71073 0.87454 0.47809 0.0
H888 H 0.84377 0.69399 0.86959 0.0
H889 H 0.8273 0.74092 0.87527 0.0
H890 H 0.83521 0.76376 0.81357 0.0
H891 H 0.85098 0.71611 0.80765 0.0
H892 H 0.85573 0.81586 0.86669 0.0
H893 H 0.72737 0.72617 0.82611 0.0
H894 H 0.75862 0.71099 0.83345 0.0
H895 H 0.76897 0.74076 0.81277 0.0
C896 C 0.84275 0.70945 0.85723 0.0
C897 C 0.84801 0.70084 0.83812 0.0
C898 C 0.83344 0.73639 0.86053 0.0
C899 C 0.82928 0.75526 0.84481 0.0
C900 C 0.83761 0.74898 0.82587 0.0
H901 H 0.69621 0.85936 0.84734 0.0
H902 H 0.74407 0.84664 0.83699 0.0
C903 C 0.84676 0.72185 0.82253 0.0
C904 C 0.81205 0.77795 0.84815 0.0
H905 H 0.73266 0.7787 0.84038 0.0
C906 C 0.82903 0.8081 0.86075 0.0
C907 C 0.77711 0.7676 0.84047 0.0
C908 C 0.7567 0.73448 0.82758 0.0
C909 C 0.81167 0.82785 0.86611 0.0
C910 C 0.77626 0.81673 0.8589 0.0
C911 C 0.75992 0.78737 0.84579 0.0
C912 C 0.75391 0.83263 0.86587 0.0
C913 C 0.83128 0.86018 0.87953 0.0
C914 C 0.74441 0.83025 0.88568 0.0
C915 C 0.71718 0.83775 0.89167 0.0
C916 C 0.6986 0.84721 0.8779 0.0
C917 C 0.70987 0.85194 0.8583 0.0
C918 C 0.73726 0.84471 0.85235 0.0
H919 H 0.86137 0.87246 0.87835 0.0
H920 H 0.82395 0.88148 0.87629 0.0
H921 H 0.82345 0.85103 0.89484 0.0
H922 H 0.75625 0.82023 0.89633 0.0
H923 H 0.70901 0.8337 0.90687 0.0
H924 H 0.86244 0.71105 0.23775 0.0
H925 H 0.92579 0.75894 0.2325 0.0
H926 H 0.9102 0.74442 0.17025 0.0
H927 H 0.84695 0.69704 0.17533 0.0
H928 H 0.97231 0.74058 0.21485 0.0
H929 H 0.97392 0.85467 0.17434 0.0
H930 H 0.93442 0.82142 0.18775 0.0
H931 H 0.94371 0.81102 0.16369 0.0
C932 C 0.87216 0.71886 0.22293 0.0
C933 C 0.84978 0.7 0.20696 0.0
C934 C 0.90837 0.74625 0.21996 0.0
C935 C 0.92268 0.75545 0.20098 0.0
C936 C 0.89962 0.73837 0.185 0.0
H937 H 0.12598 0.83282 0.14284 0.0
H938 H 0.06379 0.81678 0.1522 0.0
C939 C 0.86347 0.711 0.18795 0.0
C940 C 0.96265 0.77786 0.19791 0.0
H941 H 0.02831 0.8497 0.17197 0.0
C942 C 0.9847 0.76491 0.20582 0.0
C943 C 0.97862 0.80926 0.1859 0.0
C944 C 0.95647 0.82512 0.17758 0.0
C945 C 0.02193 0.78141 0.20134 0.0
C946 C 0.03785 0.8124 0.18899 0.0
C947 C 0.01606 0.82604 0.18148 0.0
C948 C 0.07653 0.82915 0.18282 0.0
C949 C 0.04342 0.76427 0.20907 0.0
C950 C 0.10459 0.84316 0.19675 0.0
C951 C 0.13997 0.85188 0.1915 0.0
C952 C 0.14799 0.84733 0.17214 0.0
C953 C 0.1206 0.83653 0.15787 0.0
C954 C 0.08506 0.82737 0.1632 0.0
H955 H 0.02535 0.7361 0.21454 0.0
H956 H 0.06144 0.76327 0.19759 0.0
H957 H 0.06084 0.78087 0.22138 0.0
H958 H 0.09871 0.84548 0.2119 0.0
H959 H 0.16063 0.8606 0.20277 0.0
H960 H 0.16177 0.85317 0.51279 0.0
H961 H 0.17729 0.91645 0.50776 0.0
H962 H 0.16746 0.92856 0.56957 0.0
H963 H 0.15252 0.86524 0.57484 0.0
H964 H 0.1461 0.9608 0.517 0.0
H965 H 0.27514 0.00137 0.55745 0.0
H966 H 0.24516 0.95513 0.54957 0.0
H967 H 0.23371 0.97279 0.57059 0.0
C968 C 0.16224 0.86902 0.52531 0.0
C969 C 0.15653 0.85436 0.54427 0.0
C970 C 0.17099 0.90519 0.52238 0.0
C971 C 0.17419 0.92735 0.53832 0.0
C972 C 0.16573 0.91202 0.55711 0.0
H973 H 0.29861 0.16422 0.53996 0.0
H974 H 0.25282 0.10209 0.54903 0.0
C975 C 0.15707 0.87581 0.56008 0.0
C976 C 0.1903 0.96718 0.53537 0.0
H977 H 0.26783 0.04819 0.54407 0.0
C978 C 0.17252 0.98005 0.52309 0.0
C979 C 0.22488 0.99216 0.54324 0.0
C980 C 0.24609 0.97981 0.55582 0.0
C981 C 0.18865 0.01728 0.5183 0.0
C982 C 0.22366 0.04204 0.52576 0.0
C983 C 0.24087 0.02923 0.53847 0.0
C984 C 0.2446 0.08085 0.51961 0.0
C985 C 0.16814 0.02968 0.50526 0.0
C986 C 0.25425 0.08991 0.49994 0.0
C987 C 0.28027 0.12558 0.49467 0.0
C988 C 0.29748 0.15257 0.50905 0.0
C989 C 0.286 0.14397 0.52855 0.0
C990 C 0.2598 0.10846 0.53377 0.0
H991 H 0.1382 0.01081 0.50615 0.0
H992 H 0.17407 0.05762 0.50913 0.0
H993 H 0.1766 0.02997 0.48991 0.0
H994 H 0.24354 0.06897 0.4888 0.0
H995 H 0.28871 0.13131 0.47955 0.0
H996 H 0.15146 0.28561 0.80614 0.0
H997 H 0.16668 0.23785 0.81284 0.0
H998 H 0.16516 0.25623 0.87465 0.0
H999 H 0.14943 0.3034 0.86813 0.0
H1000 H 0.23099 0.25655 0.83066 0.0
H1001 H 0.11901 0.14613 0.87301 0.0
H1002 H 0.11281 0.1787 0.85881 0.0
H1003 H 0.13269 0.19046 0.88282 0.0
C1004 C 0.15318 0.27865 0.82117 0.0
C1005 C 0.14958 0.29854 0.8366 0.0
C1006 C 0.16189 0.25134 0.82497 0.0
C1007 C 0.16684 0.24327 0.84425 0.0
C1008 C 0.16075 0.26137 0.85968 0.0
H1009 H 0.29331 0.17128 0.90654 0.0
H1010 H 0.24715 0.18647 0.89588 0.0
C1011 C 0.15204 0.28863 0.8559 0.0
C1012 C 0.18432 0.22093 0.84816 0.0
H1013 H 0.17845 0.15137 0.87628 0.0
C1014 C 0.21915 0.23304 0.84029 0.0
C1015 C 0.16903 0.19058 0.86093 0.0
C1016 C 0.13116 0.17548 0.86923 0.0
C1017 C 0.23989 0.21684 0.84554 0.0
C1018 C 0.22503 0.18703 0.8587 0.0
C1019 C 0.18973 0.17414 0.86616 0.0
C1020 C 0.24707 0.17092 0.86579 0.0
C1021 C 0.27833 0.23311 0.83775 0.0
C1022 C 0.26092 0.15544 0.85263 0.0
C1023 C 0.28757 0.14713 0.85862 0.0
C1024 C 0.3004 0.15365 0.87796 0.0
C1025 C 0.28407 0.16605 0.89153 0.0
C1026 C 0.25766 0.17472 0.88547 0.0
H1027 H 0.28828 0.26066 0.83137 0.0
H1028 H 0.29752 0.2353 0.84945 0.0
H1029 H 0.27898 0.21522 0.82611 0.0
H1030 H 0.25252 0.15158 0.83747 0.0
H1031 H 0.2993 0.13719 0.84787 0.0
loop_
_geom_bond_atom_site_label_1
_geom_bond_atom_site_label_2
_geom_bond_distance
_geom_bond_site_symmetry_2
_ccdc_geom_bond_type
O0 Cd1 2.223 . S
O0 C8 1.315 . S
Cd1 O0 2.223 . S
Cd1 O4 2.297 . S
Cd1 O5 2.439 . S
Cd1 O11 2.240 . S
Cd2 O3 2.240 . S
Cd2 O10 2.223 . S
Cd2 O12 2.297 . S
Cd2 O13 2.439 . S
O3 Cd2 2.240 . S
O3 C8 1.279 . S
O4 Cd1 2.297 . S
O4 C6 1.247 . S
O5 Cd1 2.439 . S
O5 C6 1.208 . S
C6 O4 1.247 . S
C6 O5 1.208 . S
C7 O12 1.247 . S
C7 O13 1.208 . S
C8 O0 1.315 . S
C8 O3 1.279 . S
C9 O10 1.315 . S
C9 O11 1.279 . S
O10 Cd2 2.223 . S
O10 C9 1.315 . S
O11 Cd1 2.240 . S
O11 C9 1.279 . S
O12 Cd2 2.297 . S
O12 C7 1.247 . S
O13 Cd2 2.439 . S
O13 C7 1.208 . S
O14 Cd15 2.223 . S
O14 C22 1.315 . S
Cd15 O14 2.223 . S
Cd15 O18 2.297 . S
Cd15 O19 2.439 . S
Cd15 O25 2.240 . S
Cd16 O17 2.240 . S
Cd16 O24 2.223 . S
Cd16 O26 2.297 . S
Cd16 O27 2.439 . S
O17 Cd16 2.240 . S
O17 C22 1.279 . S
O18 Cd15 2.297 . S
O18 C20 1.247 . S
O19 Cd15 2.439 . S
O19 C20 1.208 . S
C20 O18 1.247 . S
C20 O19 1.208 . S
C21 O26 1.247 . S
C21 O27 1.208 . S
C22 O14 1.315 . S
C22 O17 1.279 . S
C23 O24 1.315 . S
C23 O25 1.279 . S
O24 Cd16 2.223 . S
O24 C23 1.315 . S
O25 Cd15 2.240 . S
O25 C23 1.279 . S
O26 Cd16 2.297 . S
O26 C21 1.247 . S
O27 Cd16 2.439 . S
O27 C21 1.208 . S
O28 Cd29 2.223 . S
O28 C36 1.315 . S
Cd29 O28 2.223 . S
Cd29 O32 2.297 . S
Cd29 O33 2.439 . S
Cd29 O39 2.240 . S
Cd30 O31 2.240 . S
Cd30 O38 2.223 . S
Cd30 O40 2.297 . S
Cd30 O41 2.439 . S
O31 Cd30 2.240 . S
O31 C36 1.279 . S
O32 Cd29 2.297 . S
O32 C34 1.247 . S
O33 Cd29 2.439 . S
O33 C34 1.208 . S
C34 O32 1.247 . S
C34 O33 1.208 . S
C35 O40 1.247 . S
C35 O41 1.208 . S
C36 O28 1.315 . S
C36 O31 1.279 . S
C37 O38 1.315 . S
C37 O39 1.279 . S
O38 Cd30 2.223 . S
O38 C37 1.315 . S
O39 Cd29 2.240 . S
O39 C37 1.279 . S
O40 Cd30 2.297 . S
O40 C35 1.247 . S
O41 Cd30 2.439 . S
O41 C35 1.208 . S
O42 Cd43 2.223 . S
O42 C50 1.315 . S
Cd43 O42 2.223 . S
Cd43 O46 2.297 . S
Cd43 O47 2.439 . S
Cd43 O53 2.240 . S
Cd44 O45 2.240 . S
Cd44 O52 2.223 . S
Cd44 O54 2.297 . S
Cd44 O55 2.439 . S
O45 Cd44 2.240 . S
O45 C50 1.279 . S
O46 Cd43 2.297 . S
O46 C48 1.247 . S
O47 Cd43 2.439 . S
O47 C48 1.208 . S
C48 O46 1.247 . S
C48 O47 1.208 . S
C49 O54 1.247 . S
C49 O55 1.208 . S
C50 O42 1.315 . S
C50 O45 1.279 . S
C51 O52 1.315 . S
C51 O53 1.279 . S
O52 Cd44 2.223 . S
O52 C51 1.315 . S
O53 Cd43 2.240 . S
O53 C51 1.279 . S
O54 Cd44 2.297 . S
O54 C49 1.247 . S
O55 Cd44 2.439 . S
O55 C49 1.208 . S
O56 Cd57 2.223 . S
O56 C64 1.315 . S
Cd57 O56 2.223 . S
Cd57 O60 2.297 . S
Cd57 O61 2.439 . S
Cd57 O67 2.240 . S
Cd58 O59 2.240 . S
Cd58 O66 2.223 . S
Cd58 O68 2.297 . S
Cd58 O69 2.439 . S
O59 Cd58 2.240 . S
O59 C64 1.279 . S
O60 Cd57 2.297 . S
O60 C62 1.247 . S
O61 Cd57 2.439 . S
O61 C62 1.208 . S
C62 O60 1.247 . S
C62 O61 1.208 . S
C63 O68 1.247 . S
C63 O69 1.208 . S
C64 O56 1.315 . S
C64 O59 1.279 . S
C65 O66 1.315 . S
C65 O67 1.279 . S
O66 Cd58 2.223 . S
O66 C65 1.315 . S
O67 Cd57 2.240 . S
O67 C65 1.279 . S
O68 Cd58 2.297 . S
O68 C63 1.247 . S
O69 Cd58 2.439 . S
O69 C63 1.208 . S
O70 Cd71 2.223 . S
O70 C78 1.315 . S
Cd71 O70 2.223 . S
Cd71 O74 2.297 . S
Cd71 O75 2.439 . S
Cd71 O81 2.240 . S
Cd72 O73 2.240 . S
Cd72 O80 2.223 . S
Cd72 O82 2.297 . S
Cd72 O83 2.439 . S
O73 Cd72 2.240 . S
O73 C78 1.279 . S
O74 Cd71 2.297 . S
O74 C76 1.247 . S
O75 Cd71 2.439 . S
O75 C76 1.208 . S
C76 O74 1.247 . S
C76 O75 1.208 . S
C77 O82 1.247 . S
C77 O83 1.208 . S
C78 O70 1.315 . S
C78 O73 1.279 . S
C79 O80 1.315 . S
C79 O81 1.279 . S
O80 Cd72 2.223 . S
O80 C79 1.315 . S
O81 Cd71 2.240 . S
O81 C79 1.279 . S
O82 Cd72 2.297 . S
O82 C77 1.247 . S
O83 Cd72 2.439 . S
O83 C77 1.208 . S
O84 Cd85 2.223 . S
O84 C92 1.315 . S
Cd85 O84 2.223 . S
Cd85 O88 2.297 . S
Cd85 O89 2.439 . S
Cd85 O95 2.240 . S
Cd86 O87 2.240 . S
Cd86 O94 2.223 . S
Cd86 O96 2.297 . S
Cd86 O97 2.439 . S
O87 Cd86 2.240 . S
O87 C92 1.279 . S
O88 Cd85 2.297 . S
O88 C90 1.247 . S
O89 Cd85 2.439 . S
O89 C90 1.208 . S
C90 O88 1.247 . S
C90 O89 1.208 . S
C91 O96 1.247 . S
C91 O97 1.208 . S
C92 O84 1.315 . S
C92 O87 1.279 . S
C93 O94 1.315 . S
C93 O95 1.279 . S
O94 Cd86 2.223 . S
O94 C93 1.315 . S
O95 Cd85 2.240 . S
O95 C93 1.279 . S
O96 Cd86 2.297 . S
O96 C91 1.247 . S
O97 Cd86 2.439 . S
O97 C91 1.208 . S
O98 Cd99 2.223 . S
O98 C106 1.315 . S
Cd99 O98 2.223 . S
Cd99 O102 2.297 . S
Cd99 O103 2.439 . S
Cd99 O109 2.240 . S
Cd100 O101 2.240 . S
Cd100 O108 2.223 . S
Cd100 O110 2.297 . S
Cd100 O111 2.439 . S
O101 Cd100 2.240 . S
O101 C106 1.279 . S
O102 Cd99 2.297 . S
O102 C104 1.247 . S
O103 Cd99 2.439 . S
O103 C104 1.208 . S
C104 O102 1.247 . S
C104 O103 1.208 . S
C105 O110 1.247 . S
C105 O111 1.208 . S
C106 O98 1.315 . S
C106 O101 1.279 . S
C107 O108 1.315 . S
C107 O109 1.279 . S
O108 Cd100 2.223 . S
O108 C107 1.315 . S
O109 Cd99 2.240 . S
O109 C107 1.279 . S
O110 Cd100 2.297 . S
O110 C105 1.247 . S
O111 Cd100 2.439 . S
O111 C105 1.208 . S
O112 Cd113 2.223 . S
O112 C120 1.315 . S
Cd113 O112 2.223 . S
Cd113 O116 2.297 . S
Cd113 O117 2.439 . S
Cd113 O123 2.240 . S
Cd114 O115 2.240 . S
Cd114 O122 2.223 . S
Cd114 O124 2.297 . S
Cd114 O125 2.439 . S
O115 Cd114 2.240 . S
O115 C120 1.279 . S
O116 Cd113 2.297 . S
O116 C118 1.247 . S
O117 Cd113 2.439 . S
O117 C118 1.208 . S
C118 O116 1.247 . S
C118 O117 1.208 . S
C119 O124 1.247 . S
C119 O125 1.208 . S
C120 O112 1.315 . S
C120 O115 1.279 . S
C121 O122 1.315 . S
C121 O123 1.279 . S
O122 Cd114 2.223 . S
O122 C121 1.315 . S
O123 Cd113 2.240 . S
O123 C121 1.279 . S
O124 Cd114 2.297 . S
O124 C119 1.247 . S
O125 Cd114 2.439 . S
O125 C119 1.208 . S
O126 Cd127 2.223 . S
O126 C134 1.315 . S
Cd127 O126 2.223 . S
Cd127 O130 2.297 . S
Cd127 O131 2.439 . S
Cd127 O137 2.240 . S
Cd128 O129 2.240 . S
Cd128 O136 2.223 . S
Cd128 O138 2.297 . S
Cd128 O139 2.439 . S
O129 Cd128 2.240 . S
O129 C134 1.279 . S
O130 Cd127 2.297 . S
O130 C132 1.247 . S
O131 Cd127 2.439 . S
O131 C132 1.208 . S
C132 O130 1.247 . S
C132 O131 1.208 . S
C133 O138 1.247 . S
C133 O139 1.208 . S
C134 O126 1.315 . S
C134 O129 1.279 . S
C135 O136 1.315 . S
C135 O137 1.279 . S
O136 Cd128 2.223 . S
O136 C135 1.315 . S
O137 Cd127 2.240 . S
O137 C135 1.279 . S
O138 Cd128 2.297 . S
O138 C133 1.247 . S
O139 Cd128 2.439 . S
O139 C133 1.208 . S
O140 Cd141 2.223 . S
O140 C148 1.315 . S
Cd141 O140 2.223 . S
Cd141 O144 2.297 . S
Cd141 O145 2.439 . S
Cd141 O151 2.240 . S
Cd142 O143 2.240 . S
Cd142 O150 2.223 . S
Cd142 O152 2.297 . S
Cd142 O153 2.439 . S
O143 Cd142 2.240 . S
O143 C148 1.279 . S
O144 Cd141 2.297 . S
O144 C146 1.247 . S
O145 Cd141 2.439 . S
O145 C146 1.208 . S
C146 O144 1.247 . S
C146 O145 1.208 . S
C147 O152 1.247 . S
C147 O153 1.208 . S
C148 O140 1.315 . S
C148 O143 1.279 . S
C149 O150 1.315 . S
C149 O151 1.279 . S
O150 Cd142 2.223 . S
O150 C149 1.315 . S
O151 Cd141 2.240 . S
O151 C149 1.279 . S
O152 Cd142 2.297 . S
O152 C147 1.247 . S
O153 Cd142 2.439 . S
O153 C147 1.208 . S
O154 Cd155 2.223 . S
O154 C162 1.315 . S
Cd155 O154 2.223 . S
Cd155 O158 2.297 . S
Cd155 O159 2.439 . S
Cd155 O165 2.240 . S
Cd156 O157 2.240 . S
Cd156 O164 2.223 . S
Cd156 O166 2.297 . S
Cd156 O167 2.439 . S
O157 Cd156 2.240 . S
O157 C162 1.279 . S
O158 Cd155 2.297 . S
O158 C160 1.247 . S
O159 Cd155 2.439 . S
O159 C160 1.208 . S
C160 O158 1.247 . S
C160 O159 1.208 . S
C161 O166 1.247 . S
C161 O167 1.208 . S
C162 O154 1.315 . S
C162 O157 1.279 . S
C163 O164 1.315 . S
C163 O165 1.279 . S
O164 Cd156 2.223 . S
O164 C163 1.315 . S
O165 Cd155 2.240 . S
O165 C163 1.279 . S
O166 Cd156 2.297 . S
O166 C161 1.247 . S
O167 Cd156 2.439 . S
O167 C161 1.208 . S
H168 C176 0.929 . S
H169 C178 0.930 . S
H170 C180 0.930 . S
H171 C183 0.929 . S
H172 C186 0.930 . S
H173 C188 0.960 . S
H174 C188 0.960 . S
H175 C188 0.960 . S
C176 H168 0.929 . S
C176 C177 1.377 . S
C176 C178 1.384 . S
C177 C176 1.377 . S
C177 C183 1.390 . S
C178 H169 0.930 . S
C178 C176 1.384 . S
C178 C179 1.372 . S
C179 C178 1.372 . S
C179 C180 1.400 . S
C179 C184 1.490 . S
C180 H170 0.930 . S
C180 C179 1.400 . S
C180 C183 1.386 . S
H181 C197 0.930 . S
H182 C198 0.931 . S
C183 H171 0.929 . S
C183 C177 1.390 . S
C183 C180 1.386 . S
C184 C179 1.490 . S
C184 C186 1.395 . S
C184 C187 1.403 . S
H185 C191 0.930 . S
C186 H172 0.930 . S
C186 C184 1.395 . S
C186 C189 1.403 . S
C187 C184 1.403 . S
C187 C188 1.524 . S
C187 C191 1.400 . S
C188 H173 0.960 . S
C188 H174 0.960 . S
C188 H175 0.960 . S
C188 C187 1.524 . S
C189 C186 1.403 . S
C189 C190 1.392 . S
C189 C193 1.495 . S
C190 C189 1.392 . S
C190 C191 1.385 . S
C190 C192 1.478 . S
C191 H185 0.930 . S
C191 C187 1.400 . S
C191 C190 1.385 . S
C192 C190 1.478 . S
C192 C194 1.381 . S
C192 C198 1.383 . S
C193 C189 1.495 . S
C193 H199 0.959 . S
C193 H200 0.961 . S
C193 H201 0.960 . S
C194 C192 1.381 . S
C194 C195 1.394 . S
C194 H202 0.930 . S
C195 C194 1.394 . S
C195 C196 1.383 . S
C195 H203 0.929 . S
C196 C195 1.383 . S
C196 C197 1.377 . S
C197 H181 0.930 . S
C197 C196 1.377 . S
C197 C198 1.379 . S
C198 H182 0.931 . S
C198 C192 1.383 . S
C198 C197 1.379 . S
H199 C193 0.959 . S
H200 C193 0.961 . S
H201 C193 0.960 . S
H202 C194 0.930 . S
H203 C195 0.929 . S
H204 C212 0.929 . S
H205 C214 0.930 . S
H206 C216 0.930 . S
H207 C219 0.929 . S
H208 C222 0.930 . S
H209 C224 0.960 . S
H210 C224 0.960 . S
H211 C224 0.960 . S
C212 H204 0.929 . S
C212 C213 1.377 . S
C212 C214 1.384 . S
C213 C212 1.377 . S
C213 C219 1.390 . S
C214 H205 0.930 . S
C214 C212 1.384 . S
C214 C215 1.372 . S
C215 C214 1.372 . S
C215 C216 1.400 . S
C215 C220 1.490 . S
C216 H206 0.930 . S
C216 C215 1.400 . S
C216 C219 1.386 . S
H217 C233 0.930 . S
H218 C234 0.931 . S
C219 H207 0.929 . S
C219 C213 1.390 . S
C219 C216 1.386 . S
C220 C215 1.490 . S
C220 C222 1.395 . S
C220 C223 1.403 . S
H221 C227 0.930 . S
C222 H208 0.930 . S
C222 C220 1.395 . S
C222 C225 1.403 . S
C223 C220 1.403 . S
C223 C224 1.524 . S
C223 C227 1.400 . S
C224 H209 0.960 . S
C224 H210 0.960 . S
C224 H211 0.960 . S
C224 C223 1.524 . S
C225 C222 1.403 . S
C225 C226 1.392 . S
C225 C229 1.495 . S
C226 C225 1.392 . S
C226 C227 1.385 . S
C226 C228 1.478 . S
C227 H221 0.930 . S
C227 C223 1.400 . S
C227 C226 1.385 . S
C228 C226 1.478 . S
C228 C230 1.381 . S
C228 C234 1.383 . S
C229 C225 1.495 . S
C229 H235 0.959 . S
C229 H236 0.961 . S
C229 H237 0.960 . S
C230 C228 1.381 . S
C230 C231 1.394 . S
C230 H238 0.930 . S
C231 C230 1.394 . S
C231 C232 1.383 . S
C231 H239 0.929 . S
C232 C231 1.383 . S
C232 C233 1.377 . S
C233 H217 0.930 . S
C233 C232 1.377 . S
C233 C234 1.379 . S
C234 H218 0.931 . S
C234 C228 1.383 . S
C234 C233 1.379 . S
H235 C229 0.959 . S
H236 C229 0.961 . S
H237 C229 0.960 . S
H238 C230 0.930 . S
H239 C231 0.929 . S
H240 C248 0.929 . S
H241 C250 0.930 . S
H242 C252 0.930 . S
H243 C255 0.929 . S
H244 C258 0.930 . S
H245 C260 0.960 . S
H246 C260 0.960 . S
H247 C260 0.960 . S
C248 H240 0.929 . S
C248 C249 1.377 . S
C248 C250 1.384 . S
C249 C248 1.377 . S
C249 C255 1.390 . S
C250 H241 0.930 . S
C250 C248 1.384 . S
C250 C251 1.372 . S
C251 C250 1.372 . S
C251 C252 1.400 . S
C251 C256 1.490 . S
C252 H242 0.930 . S
C252 C251 1.400 . S
C252 C255 1.386 . S
H253 C269 0.930 . S
H254 C270 0.931 . S
C255 H243 0.929 . S
C255 C249 1.390 . S
C255 C252 1.386 . S
C256 C251 1.490 . S
C256 C258 1.395 . S
C256 C259 1.403 . S
H257 C263 0.930 . S
C258 H244 0.930 . S
C258 C256 1.395 . S
C258 C261 1.403 . S
C259 C256 1.403 . S
C259 C260 1.524 . S
C259 C263 1.400 . S
C260 H245 0.960 . S
C260 H246 0.960 . S
C260 H247 0.960 . S
C260 C259 1.524 . S
C261 C258 1.403 . S
C261 C262 1.392 . S
C261 C265 1.495 . S
C262 C261 1.392 . S
C262 C263 1.385 . S
C262 C264 1.478 . S
C263 H257 0.930 . S
C263 C259 1.400 . S
C263 C262 1.385 . S
C264 C262 1.478 . S
C264 C266 1.381 . S
C264 C270 1.383 . S
C265 C261 1.495 . S
C265 H271 0.959 . S
C265 H272 0.961 . S
C265 H273 0.960 . S
C266 C264 1.381 . S
C266 C267 1.394 . S
C266 H274 0.930 . S
C267 C266 1.394 . S
C267 C268 1.383 . S
C267 H275 0.929 . S
C268 C267 1.383 . S
C268 C269 1.377 . S
C269 H253 0.930 . S
C269 C268 1.377 . S
C269 C270 1.379 . S
C270 H254 0.931 . S
C270 C264 1.383 . S
C270 C269 1.379 . S
H271 C265 0.959 . S
H272 C265 0.961 . S
H273 C265 0.960 . S
H274 C266 0.930 . S
H275 C267 0.929 . S
H276 C284 0.929 . S
H277 C286 0.930 . S
H278 C288 0.930 . S
H279 C291 0.929 . S
H280 C294 0.930 . S
H281 C296 0.960 . S
H282 C296 0.960 . S
H283 C296 0.960 . S
C284 H276 0.929 . S
C284 C285 1.377 . S
C284 C286 1.384 . S
C285 C284 1.377 . S
C285 C291 1.390 . S
C286 H277 0.930 . S
C286 C284 1.384 . S
C286 C287 1.372 . S
C287 C286 1.372 . S
C287 C288 1.400 . S
C287 C292 1.490 . S
C288 H278 0.930 . S
C288 C287 1.400 . S
C288 C291 1.386 . S
H289 C305 0.930 . S
H290 C306 0.931 . S
C291 H279 0.929 . S
C291 C285 1.390 . S
C291 C288 1.386 . S
C292 C287 1.490 . S
C292 C294 1.395 . S
C292 C295 1.403 . S
H293 C299 0.930 . S
C294 H280 0.930 . S
C294 C292 1.395 . S
C294 C297 1.403 . S
C295 C292 1.403 . S
C295 C296 1.524 . S
C295 C299 1.400 . S
C296 H281 0.960 . S
C296 H282 0.960 . S
C296 H283 0.960 . S
C296 C295 1.524 . S
C297 C294 1.403 . S
C297 C298 1.392 . S
C297 C301 1.495 . S
C298 C297 1.392 . S
C298 C299 1.385 . S
C298 C300 1.478 . S
C299 H293 0.930 . S
C299 C295 1.400 . S
C299 C298 1.385 . S
C300 C298 1.478 . S
C300 C302 1.381 . S
C300 C306 1.383 . S
C301 C297 1.495 . S
C301 H307 0.959 . S
C301 H308 0.961 . S
C301 H309 0.960 . S
C302 C300 1.381 . S
C302 C303 1.394 . S
C302 H310 0.930 . S
C303 C302 1.394 . S
C303 C304 1.383 . S
C303 H311 0.929 . S
C304 C303 1.383 . S
C304 C305 1.377 . S
C305 H289 0.930 . S
C305 C304 1.377 . S
C305 C306 1.379 . S
C306 H290 0.931 . S
C306 C300 1.383 . S
C306 C305 1.379 . S
H307 C301 0.959 . S
H308 C301 0.961 . S
H309 C301 0.960 . S
H310 C302 0.930 . S
H311 C303 0.929 . S
H312 C320 0.929 . S
H313 C322 0.930 . S
H314 C324 0.930 . S
H315 C327 0.929 . S
H316 C330 0.930 . S
H317 C332 0.960 . S
H318 C332 0.960 . S
H319 C332 0.960 . S
C320 H312 0.929 . S
C320 C321 1.377 . S
C320 C322 1.384 . S
C321 C320 1.377 . S
C321 C327 1.390 . S
C322 H313 0.930 . S
C322 C320 1.384 . S
C322 C323 1.372 . S
C323 C322 1.372 . S
C323 C324 1.400 . S
C323 C328 1.490 . S
C324 H314 0.930 . S
C324 C323 1.400 . S
C324 C327 1.386 . S
H325 C341 0.930 . S
H326 C342 0.931 . S
C327 H315 0.929 . S
C327 C321 1.390 . S
C327 C324 1.386 . S
C328 C323 1.490 . S
C328 C330 1.395 . S
C328 C331 1.403 . S
H329 C335 0.930 . S
C330 H316 0.930 . S
C330 C328 1.395 . S
C330 C333 1.403 . S
C331 C328 1.403 . S
C331 C332 1.524 . S
C331 C335 1.400 . S
C332 H317 0.960 . S
C332 H318 0.960 . S
C332 H319 0.960 . S
C332 C331 1.524 . S
C333 C330 1.403 . S
C333 C334 1.392 . S
C333 C337 1.495 . S
C334 C333 1.392 . S
C334 C335 1.385 . S
C334 C336 1.478 . S
C335 H329 0.930 . S
C335 C331 1.400 . S
C335 C334 1.385 . S
C336 C334 1.478 . S
C336 C338 1.381 . S
C336 C342 1.383 . S
C337 C333 1.495 . S
C337 H343 0.959 . S
C337 H344 0.961 . S
C337 H345 0.960 . S
C338 C336 1.381 . S
C338 C339 1.394 . S
C338 H346 0.930 . S
C339 C338 1.394 . S
C339 C340 1.383 . S
C339 H347 0.929 . S
C340 C339 1.383 . S
C340 C341 1.377 . S
C341 H325 0.930 . S
C341 C340 1.377 . S
C341 C342 1.379 . S
C342 H326 0.931 . S
C342 C336 1.383 . S
C342 C341 1.379 . S
H343 C337 0.959 . S
H344 C337 0.961 . S
H345 C337 0.960 . S
H346 C338 0.930 . S
H347 C339 0.929 . S
H348 C356 0.929 . S
H349 C358 0.930 . S
H350 C360 0.930 . S
H351 C363 0.929 . S
H352 C366 0.930 . S
H353 C368 0.960 . S
H354 C368 0.960 . S
H355 C368 0.960 . S
C356 H348 0.929 . S
C356 C357 1.377 . S
C356 C358 1.384 . S
C357 C356 1.377 . S
C357 C363 1.390 . S
C358 H349 0.930 . S
C358 C356 1.384 . S
C358 C359 1.372 . S
C359 C358 1.372 . S
C359 C360 1.400 . S
C359 C364 1.490 . S
C360 H350 0.930 . S
C360 C359 1.400 . S
C360 C363 1.386 . S
H361 C377 0.930 . S
H362 C378 0.931 . S
C363 H351 0.929 . S
C363 C357 1.390 . S
C363 C360 1.386 . S
C364 C359 1.490 . S
C364 C366 1.395 . S
C364 C367 1.403 . S
H365 C371 0.930 . S
C366 H352 0.930 . S
C366 C364 1.395 . S
C366 C369 1.403 . S
C367 C364 1.403 . S
C367 C368 1.524 . S
C367 C371 1.400 . S
C368 H353 0.960 . S
C368 H354 0.960 . S
C368 H355 0.960 . S
C368 C367 1.524 . S
C369 C366 1.403 . S
C369 C370 1.392 . S
C369 C373 1.495 . S
C370 C369 1.392 . S
C370 C371 1.385 . S
C370 C372 1.478 . S
C371 H365 0.930 . S
C371 C367 1.400 . S
C371 C370 1.385 . S
C372 C370 1.478 . S
C372 C374 1.381 . S
C372 C378 1.383 . S
C373 C369 1.495 . S
C373 H379 0.959 . S
C373 H380 0.961 . S
C373 H381 0.960 . S
C374 C372 1.381 . S
C374 C375 1.394 . S
C374 H382 0.930 . S
C375 C374 1.394 . S
C375 C376 1.383 . S
C375 H383 0.929 . S
C376 C375 1.383 . S
C376 C377 1.377 . S
C377 H361 0.930 . S
C377 C376 1.377 . S
C377 C378 1.379 . S
C378 H362 0.931 . S
C378 C372 1.383 . S
C378 C377 1.379 . S
H379 C373 0.959 . S
H380 C373 0.961 . S
H381 C373 0.960 . S
H382 C374 0.930 . S
H383 C375 0.929 . S
H384 C392 0.929 . S
H385 C394 0.930 . S
H386 C396 0.930 . S
H387 C399 0.929 . S
H388 C402 0.930 . S
H389 C404 0.960 . S
H390 C404 0.960 . S
H391 C404 0.960 . S
C392 H384 0.929 . S
C392 C393 1.377 . S
C392 C394 1.384 . S
C393 C392 1.377 . S
C393 C399 1.390 . S
C394 H385 0.930 . S
C394 C392 1.384 . S
C394 C395 1.372 . S
C395 C394 1.372 . S
C395 C396 1.400 . S
C395 C400 1.490 . S
C396 H386 0.930 . S
C396 C395 1.400 . S
C396 C399 1.386 . S
H397 C413 0.930 . S
H398 C414 0.931 . S
C399 H387 0.929 . S
C399 C393 1.390 . S
C399 C396 1.386 . S
C400 C395 1.490 . S
C400 C402 1.395 . S
C400 C403 1.403 . S
H401 C407 0.930 . S
C402 H388 0.930 . S
C402 C400 1.395 . S
C402 C405 1.403 . S
C403 C400 1.403 . S
C403 C404 1.524 . S
C403 C407 1.400 . S
C404 H389 0.960 . S
C404 H390 0.960 . S
C404 H391 0.960 . S
C404 C403 1.524 . S
C405 C402 1.403 . S
C405 C406 1.392 . S
C405 C409 1.495 . S
C406 C405 1.392 . S
C406 C407 1.385 . S
C406 C408 1.478 . S
C407 H401 0.930 . S
C407 C403 1.400 . S
C407 C406 1.385 . S
C408 C406 1.478 . S
C408 C410 1.381 . S
C408 C414 1.383 . S
C409 C405 1.495 . S
C409 H415 0.959 . S
C409 H416 0.961 . S
C409 H417 0.960 . S
C410 C408 1.381 . S
C410 C411 1.394 . S
C410 H418 0.930 . S
C411 C410 1.394 . S
C411 C412 1.383 . S
C411 H419 0.929 . S
C412 C411 1.383 . S
C412 C413 1.377 . S
C413 H397 0.930 . S
C413 C412 1.377 . S
C413 C414 1.379 . S
C414 H398 0.931 . S
C414 C408 1.383 . S
C414 C413 1.379 . S
H415 C409 0.959 . S
H416 C409 0.961 . S
H417 C409 0.960 . S
H418 C410 0.930 . S
H419 C411 0.929 . S
H420 C428 0.929 . S
H421 C430 0.930 . S
H422 C432 0.930 . S
H423 C435 0.929 . S
H424 C438 0.930 . S
H425 C440 0.960 . S
H426 C440 0.960 . S
H427 C440 0.960 . S
C428 H420 0.929 . S
C428 C429 1.377 . S
C428 C430 1.384 . S
C429 C428 1.377 . S
C429 C435 1.390 . S
C430 H421 0.930 . S
C430 C428 1.384 . S
C430 C431 1.372 . S
C431 C430 1.372 . S
C431 C432 1.400 . S
C431 C436 1.490 . S
C432 H422 0.930 . S
C432 C431 1.400 . S
C432 C435 1.386 . S
H433 C449 0.930 . S
H434 C450 0.931 . S
C435 H423 0.929 . S
C435 C429 1.390 . S
C435 C432 1.386 . S
C436 C431 1.490 . S
C436 C438 1.395 1_455 S
C436 C439 1.403 . S
H437 C443 0.930 . S
C438 H424 0.930 . S
C438 C436 1.395 1_655 S
C438 C441 1.403 . S
C439 C436 1.403 . S
C439 C440 1.524 . S
C439 C443 1.400 . S
C440 H425 0.960 . S
C440 H426 0.960 . S
C440 H427 0.960 . S
C440 C439 1.524 . S
C441 C438 1.403 . S
C441 C442 1.392 . S
C441 C445 1.495 . S
C442 C441 1.392 . S
C442 C443 1.385 1_655 S
C442 C444 1.478 . S
C443 H437 0.930 . S
C443 C439 1.400 . S
C443 C442 1.385 1_455 S
C444 C442 1.478 . S
C444 C446 1.381 . S
C444 C450 1.383 . S
C445 C441 1.495 . S
C445 H451 0.959 . S
C445 H452 0.961 . S
C445 H453 0.960 . S
C446 C444 1.381 . S
C446 C447 1.394 . S
C446 H454 0.930 . S
C447 C446 1.394 . S
C447 C448 1.383 . S
C447 H455 0.929 . S
C448 C447 1.383 . S
C448 C449 1.377 . S
C449 H433 0.930 . S
C449 C448 1.377 . S
C449 C450 1.379 . S
C450 H434 0.931 . S
C450 C444 1.383 . S
C450 C449 1.379 . S
H451 C445 0.959 . S
H452 C445 0.961 . S
H453 C445 0.960 . S
H454 C446 0.930 . S
H455 C447 0.929 . S
H456 C464 0.929 . S
H457 C466 0.930 1_565 S
H458 C468 0.930 . S
H459 C471 0.929 . S
H460 C474 0.930 . S
H461 C476 0.960 . S
H462 C476 0.960 . S
H463 C476 0.960 . S
C464 H456 0.929 . S
C464 C465 1.377 . S
C464 C466 1.384 . S
C465 C464 1.377 . S
C465 C471 1.390 . S
C466 H457 0.930 1_545 S
C466 C464 1.384 . S
C466 C467 1.372 . S
C467 C466 1.372 . S
C467 C468 1.400 . S
C467 C472 1.490 . S
C468 H458 0.930 . S
C468 C467 1.400 . S
C468 C471 1.386 . S
H469 C485 0.930 . S
H470 C486 0.931 1_545 S
C471 H459 0.929 . S
C471 C465 1.390 . S
C471 C468 1.386 . S
C472 C467 1.490 . S
C472 C474 1.395 . S
C472 C475 1.403 . S
H473 C479 0.930 . S
C474 H460 0.930 . S
C474 C472 1.395 . S
C474 C477 1.403 1_545 S
C475 C472 1.403 . S
C475 C476 1.524 . S
C475 C479 1.400 1_545 S
C476 H461 0.960 . S
C476 H462 0.960 . S
C476 H463 0.960 . S
C476 C475 1.524 . S
C477 C474 1.403 1_565 S
C477 C478 1.392 . S
C477 C481 1.495 . S
C478 C477 1.392 . S
C478 C479 1.385 . S
C478 C480 1.478 . S
C479 H473 0.930 . S
C479 C475 1.400 1_565 S
C479 C478 1.385 . S
C480 C478 1.478 . S
C480 C482 1.381 . S
C480 C486 1.383 . S
C481 C477 1.495 . S
C481 H487 0.959 . S
C481 H488 0.961 . S
C481 H489 0.960 . S
C482 C480 1.381 . S
C482 C483 1.394 . S
C482 H490 0.930 . S
C483 C482 1.394 . S
C483 C484 1.383 . S
C483 H491 0.929 . S
C484 C483 1.383 . S
C484 C485 1.377 . S
C485 H469 0.930 . S
C485 C484 1.377 . S
C485 C486 1.379 . S
C486 H470 0.931 1_565 S
C486 C480 1.383 . S
C486 C485 1.379 . S
H487 C481 0.959 . S
H488 C481 0.961 . S
H489 C481 0.960 . S
H490 C482 0.930 . S
H491 C483 0.929 . S
H492 C500 0.929 . S
H493 C502 0.930 . S
H494 C504 0.930 . S
H495 C507 0.929 . S
H496 C510 0.930 . S
H497 C512 0.960 . S
H498 C512 0.960 . S
H499 C512 0.960 . S
C500 H492 0.929 . S
C500 C501 1.377 . S
C500 C502 1.384 . S
C501 C500 1.377 . S
C501 C507 1.390 . S
C502 H493 0.930 . S
C502 C500 1.384 . S
C502 C503 1.372 . S
C503 C502 1.372 . S
C503 C504 1.400 . S
C503 C508 1.490 . S
C504 H494 0.930 . S
C504 C503 1.400 . S
C504 C507 1.386 . S
H505 C521 0.930 . S
H506 C522 0.931 . S
C507 H495 0.929 . S
C507 C501 1.390 . S
C507 C504 1.386 . S
C508 C503 1.490 . S
C508 C510 1.395 . S
C508 C511 1.403 . S
H509 C515 0.930 . S
C510 H496 0.930 . S
C510 C508 1.395 . S
C510 C513 1.403 . S
C511 C508 1.403 . S
C511 C512 1.524 . S
C511 C515 1.400 . S
C512 H497 0.960 . S
C512 H498 0.960 . S
C512 H499 0.960 . S
C512 C511 1.524 . S
C513 C510 1.403 . S
C513 C514 1.392 . S
C513 C517 1.495 . S
C514 C513 1.392 . S
C514 C515 1.385 . S
C514 C516 1.478 . S
C515 H509 0.930 . S
C515 C511 1.400 . S
C515 C514 1.385 . S
C516 C514 1.478 . S
C516 C518 1.381 . S
C516 C522 1.383 . S
C517 C513 1.495 . S
C517 H523 0.959 . S
C517 H524 0.961 . S
C517 H525 0.960 . S
C518 C516 1.381 . S
C518 C519 1.394 . S
C518 H526 0.930 . S
C519 C518 1.394 . S
C519 C520 1.383 . S
C519 H527 0.929 . S
C520 C519 1.383 . S
C520 C521 1.377 . S
C521 H505 0.930 . S
C521 C520 1.377 . S
C521 C522 1.379 . S
C522 H506 0.931 . S
C522 C516 1.383 . S
C522 C521 1.379 . S
H523 C517 0.959 . S
H524 C517 0.961 . S
H525 C517 0.960 . S
H526 C518 0.930 . S
H527 C519 0.929 . S
H528 C536 0.929 . S
H529 C538 0.930 . S
H530 C540 0.930 . S
H531 C543 0.929 . S
H532 C546 0.930 . S
H533 C548 0.960 . S
H534 C548 0.960 . S
H535 C548 0.960 . S
C536 H528 0.929 . S
C536 C537 1.377 . S
C536 C538 1.384 . S
C537 C536 1.377 . S
C537 C543 1.390 . S
C538 H529 0.930 . S
C538 C536 1.384 . S
C538 C539 1.372 . S
C539 C538 1.372 . S
C539 C540 1.400 . S
C539 C544 1.490 . S
C540 H530 0.930 . S
C540 C539 1.400 . S
C540 C543 1.386 . S
H541 C557 0.930 . S
H542 C558 0.931 . S
C543 H531 0.929 . S
C543 C537 1.390 . S
C543 C540 1.386 . S
C544 C539 1.490 . S
C544 C546 1.395 1_655 S
C544 C547 1.403 . S
H545 C551 0.930 . S
C546 H532 0.930 . S
C546 C544 1.395 1_455 S
C546 C549 1.403 . S
C547 C544 1.403 . S
C547 C548 1.524 . S
C547 C551 1.400 . S
C548 H533 0.960 . S
C548 H534 0.960 . S
C548 H535 0.960 . S
C548 C547 1.524 . S
C549 C546 1.403 . S
C549 C550 1.392 . S
C549 C553 1.495 . S
C550 C549 1.392 . S
C550 C551 1.385 1_455 S
C550 C552 1.478 . S
C551 H545 0.930 . S
C551 C547 1.400 . S
C551 C550 1.385 1_655 S
C552 C550 1.478 . S
C552 C554 1.381 . S
C552 C558 1.383 . S
C553 C549 1.495 . S
C553 H559 0.959 . S
C553 H560 0.961 . S
C553 H561 0.960 . S
C554 C552 1.381 . S
C554 C555 1.394 . S
C554 H562 0.930 . S
C555 C554 1.394 . S
C555 C556 1.383 . S
C555 H563 0.929 . S
C556 C555 1.383 . S
C556 C557 1.377 . S
C557 H541 0.930 . S
C557 C556 1.377 . S
C557 C558 1.379 . S
C558 H542 0.931 . S
C558 C552 1.383 . S
C558 C557 1.379 . S
H559 C553 0.959 . S
H560 C553 0.961 . S
H561 C553 0.960 . S
H562 C554 0.930 . S
H563 C555 0.929 . S
H564 C572 0.929 . S
H565 C574 0.930 . S
H566 C576 0.930 . S
H567 C579 0.929 . S
H568 C582 0.930 . S
H569 C584 0.960 . S
H570 C584 0.960 . S
H571 C584 0.960 . S
C572 H564 0.929 . S
C572 C573 1.377 . S
C572 C574 1.384 . S
C573 C572 1.377 . S
C573 C579 1.390 . S
C574 H565 0.930 . S
C574 C572 1.384 . S
C574 C575 1.372 . S
C575 C574 1.372 . S
C575 C576 1.400 . S
C575 C580 1.490 . S
C576 H566 0.930 . S
C576 C575 1.400 . S
C576 C579 1.386 . S
H577 C593 0.930 . S
H578 C594 0.931 . S
C579 H567 0.929 . S
C579 C573 1.390 . S
C579 C576 1.386 . S
C580 C575 1.490 . S
C580 C582 1.395 1_565 S
C580 C583 1.403 . S
H581 C587 0.930 . S
C582 H568 0.930 . S
C582 C580 1.395 1_545 S
C582 C585 1.403 . S
C583 C580 1.403 . S
C583 C584 1.524 . S
C583 C587 1.400 . S
C584 H569 0.960 . S
C584 H570 0.960 . S
C584 H571 0.960 . S
C584 C583 1.524 . S
C585 C582 1.403 . S
C585 C586 1.392 . S
C585 C589 1.495 . S
C586 C585 1.392 . S
C586 C587 1.385 1_545 S
C586 C588 1.478 . S
C587 H581 0.930 . S
C587 C583 1.400 . S
C587 C586 1.385 1_565 S
C588 C586 1.478 . S
C588 C590 1.381 . S
C588 C594 1.383 . S
C589 C585 1.495 . S
C589 H595 0.959 . S
C589 H596 0.961 . S
C589 H597 0.960 . S
C590 C588 1.381 . S
C590 C591 1.394 . S
C590 H598 0.930 . S
C591 C590 1.394 . S
C591 C592 1.383 . S
C591 H599 0.929 . S
C592 C591 1.383 . S
C592 C593 1.377 . S
C593 H577 0.930 . S
C593 C592 1.377 . S
C593 C594 1.379 . S
C594 H578 0.931 . S
C594 C588 1.383 . S
C594 C593 1.379 . S
H595 C589 0.959 . S
H596 C589 0.961 . S
H597 C589 0.960 . S
H598 C590 0.930 . S
H599 C591 0.929 . S
H600 C608 0.929 . S
H601 C610 0.930 . S
H602 C612 0.930 . S
H603 C615 0.929 . S
H604 C618 0.930 . S
H605 C620 0.960 . S
H606 C620 0.960 . S
H607 C620 0.960 . S
C608 H600 0.929 . S
C608 C609 1.377 . S
C608 C610 1.384 . S
C609 C608 1.377 . S
C609 C615 1.390 . S
C610 H601 0.930 . S
C610 C608 1.384 . S
C610 C611 1.372 . S
C611 C610 1.372 . S
C611 C612 1.400 . S
C611 C616 1.490 . S
C612 H602 0.930 . S
C612 C611 1.400 . S
C612 C615 1.386 . S
H613 C629 0.930 . S
H614 C630 0.931 . S
C615 H603 0.929 . S
C615 C609 1.390 . S
C615 C612 1.386 . S
C616 C611 1.490 . S
C616 C618 1.395 . S
C616 C619 1.403 . S
H617 C623 0.930 . S
C618 H604 0.930 . S
C618 C616 1.395 . S
C618 C621 1.403 . S
C619 C616 1.403 . S
C619 C620 1.524 . S
C619 C623 1.400 . S
C620 H605 0.960 . S
C620 H606 0.960 . S
C620 H607 0.960 . S
C620 C619 1.524 . S
C621 C618 1.403 . S
C621 C622 1.392 . S
C621 C625 1.495 . S
C622 C621 1.392 . S
C622 C623 1.385 . S
C622 C624 1.478 . S
C623 H617 0.930 . S
C623 C619 1.400 . S
C623 C622 1.385 . S
C624 C622 1.478 . S
C624 C626 1.381 . S
C624 C630 1.383 . S
C625 C621 1.495 . S
C625 H631 0.959 . S
C625 H632 0.961 . S
C625 H633 0.960 . S
C626 C624 1.381 . S
C626 C627 1.394 . S
C626 H634 0.930 . S
C627 C626 1.394 . S
C627 C628 1.383 . S
C627 H635 0.929 . S
C628 C627 1.383 . S
C628 C629 1.377 . S
C629 H613 0.930 . S
C629 C628 1.377 . S
C629 C630 1.379 . S
C630 H614 0.931 . S
C630 C624 1.383 . S
C630 C629 1.379 . S
H631 C625 0.959 . S
H632 C625 0.961 . S
H633 C625 0.960 . S
H634 C626 0.930 . S
H635 C627 0.929 . S
H636 C644 0.929 . S
H637 C646 0.930 1_455 S
H638 C648 0.930 . S
H639 C651 0.929 . S
H640 C654 0.930 . S
H641 C656 0.960 . S
H642 C656 0.960 . S
H643 C656 0.960 . S
C644 H636 0.929 . S
C644 C645 1.377 . S
C644 C646 1.384 . S
C645 C644 1.377 . S
C645 C651 1.390 . S
C646 H637 0.930 1_655 S
C646 C644 1.384 . S
C646 C647 1.372 . S
C647 C646 1.372 . S
C647 C648 1.400 . S
C647 C652 1.490 . S
C648 H638 0.930 . S
C648 C647 1.400 . S
C648 C651 1.386 . S
H649 C665 0.930 . S
H650 C666 0.931 1_655 S
C651 H639 0.929 . S
C651 C645 1.390 . S
C651 C648 1.386 . S
C652 C647 1.490 . S
C652 C654 1.395 1_655 S
C652 C655 1.403 . S
H653 C659 0.925 . S
C654 H640 0.930 . S
C654 C652 1.395 1_455 S
C654 C657 1.403 . S
C655 C652 1.403 . S
C655 C656 1.524 . S
C655 C659 1.400 1_655 S
C656 H641 0.960 . S
C656 H642 0.960 . S
C656 H643 0.960 . S
C656 C655 1.524 . S
C657 C654 1.403 . S
C657 C658 1.392 . S
C657 C661 1.495 . S
C658 C657 1.392 . S
C658 C659 1.385 . S
C658 C660 1.478 . S
C659 H653 0.925 . S
C659 C655 1.400 1_455 S
C659 C658 1.385 . S
C660 C658 1.478 . S
C660 C662 1.381 . S
C660 C666 1.383 . S
C661 C657 1.495 . S
C661 H667 0.959 . S
C661 H668 0.961 . S
C661 H669 0.960 . S
C662 C660 1.381 . S
C662 C663 1.394 . S
C662 H670 0.930 . S
C663 C662 1.394 . S
C663 C664 1.383 . S
C663 H671 0.929 . S
C664 C663 1.383 . S
C664 C665 1.377 . S
C665 H649 0.930 . S
C665 C664 1.377 . S
C665 C666 1.379 . S
C666 H650 0.931 1_455 S
C666 C660 1.383 . S
C666 C665 1.379 . S
H667 C661 0.959 . S
H668 C661 0.961 . S
H669 C661 0.960 . S
H670 C662 0.930 . S
H671 C663 0.929 . S
H672 C680 0.929 . S
H673 C682 0.930 . S
H674 C684 0.930 1_545 S
H675 C687 0.929 . S
H676 C690 0.930 . S
H677 C692 0.960 . S
H678 C692 0.967 . S
H679 C692 0.960 . S
C680 H672 0.929 . S
C680 C681 1.377 . S
C680 C682 1.384 . S
C681 C680 1.377 . S
C681 C687 1.390 . S
C682 H673 0.930 . S
C682 C680 1.384 . S
C682 C683 1.372 . S
C683 C682 1.372 . S
C683 C684 1.400 . S
C683 C688 1.490 . S
C684 H674 0.930 1_565 S
C684 C683 1.400 . S
C684 C687 1.386 . S
H685 C701 0.930 . S
H686 C702 0.931 . S
C687 H675 0.929 . S
C687 C681 1.390 . S
C687 C684 1.386 . S
C688 C683 1.490 . S
C688 C690 1.395 . S
C688 C691 1.403 1_565 S
H689 C695 0.930 . S
C690 H676 0.930 . S
C690 C688 1.395 . S
C690 C693 1.403 1_556 S
C691 C688 1.403 1_545 S
C691 C692 1.524 . S
C691 C695 1.400 1_556 S
C692 H677 0.960 . S
C692 H678 0.967 . S
C692 H679 0.960 . S
C692 C691 1.524 . S
C693 C690 1.403 1_554 S
C693 C694 1.392 1_565 S
C693 C697 1.495 . S
C694 C693 1.392 1_545 S
C694 C695 1.385 . S
C694 C696 1.478 . S
C695 H689 0.930 . S
C695 C691 1.400 1_554 S
C695 C694 1.385 . S
C696 C694 1.478 . S
C696 C698 1.381 . S
C696 C702 1.383 . S
C697 C693 1.495 . S
C697 H703 0.959 . S
C697 H704 0.961 . S
C697 H705 0.960 . S
C698 C696 1.381 . S
C698 C699 1.394 . S
C698 H706 0.930 1_545 S
C699 C698 1.394 . S
C699 C700 1.383 . S
C699 H707 0.929 . S
C700 C699 1.383 . S
C700 C701 1.377 . S
C701 H685 0.930 . S
C701 C700 1.377 . S
C701 C702 1.379 . S
C702 H686 0.931 . S
C702 C696 1.383 . S
C702 C701 1.379 . S
H703 C697 0.959 . S
H704 C697 0.961 . S
H705 C697 0.960 . S
H706 C698 0.930 1_565 S
H707 C699 0.929 . S
H708 C716 0.929 . S
H709 C718 0.930 . S
H710 C720 0.930 . S
H711 C723 0.929 . S
H712 C726 0.930 . S
H713 C728 0.960 . S
H714 C728 0.960 . S
H715 C728 0.960 . S
C716 H708 0.929 . S
C716 C717 1.377 . S
C716 C718 1.384 . S
C717 C716 1.377 . S
C717 C723 1.390 . S
C718 H709 0.930 . S
C718 C716 1.384 . S
C718 C719 1.372 . S
C719 C718 1.372 . S
C719 C720 1.400 . S
C719 C724 1.490 . S
C720 H710 0.930 . S
C720 C719 1.400 . S
C720 C723 1.386 . S
H721 C737 0.930 . S
H722 C738 0.931 . S
C723 H711 0.929 . S
C723 C717 1.390 . S
C723 C720 1.386 . S
C724 C719 1.490 . S
C724 C726 1.395 . S
C724 C727 1.403 . S
H725 C731 0.930 . S
C726 H712 0.930 . S
C726 C724 1.395 . S
C726 C729 1.403 . S
C727 C724 1.403 . S
C727 C728 1.524 . S
C727 C731 1.400 . S
C728 H713 0.960 . S
C728 H714 0.960 . S
C728 H715 0.960 . S
C728 C727 1.524 . S
C729 C726 1.403 . S
C729 C730 1.392 . S
C729 C733 1.495 . S
C730 C729 1.392 . S
C730 C731 1.385 . S
C730 C732 1.478 . S
C731 H725 0.930 . S
C731 C727 1.400 . S
C731 C730 1.385 . S
C732 C730 1.478 . S
C732 C734 1.381 . S
C732 C738 1.383 . S
C733 C729 1.495 . S
C733 H739 0.959 . S
C733 H740 0.961 . S
C733 H741 0.960 . S
C734 C732 1.381 . S
C734 C735 1.394 . S
C734 H742 0.930 . S
C735 C734 1.394 . S
C735 C736 1.383 . S
C735 H743 0.929 . S
C736 C735 1.383 . S
C736 C737 1.377 . S
C737 H721 0.930 . S
C737 C736 1.377 . S
C737 C738 1.379 . S
C738 H722 0.931 . S
C738 C732 1.383 . S
C738 C737 1.379 . S
H739 C733 0.959 . S
H740 C733 0.961 . S
H741 C733 0.960 . S
H742 C734 0.930 . S
H743 C735 0.929 . S
H744 C752 0.929 . S
H745 C754 0.930 . S
H746 C756 0.930 1_655 S
H747 C759 0.929 . S
H748 C762 0.930 . S
H749 C764 0.960 . S
H750 C764 0.960 . S
H751 C764 0.960 . S
C752 H744 0.929 . S
C752 C753 1.377 . S
C752 C754 1.384 . S
C753 C752 1.377 . S
C753 C759 1.390 . S
C754 H745 0.930 . S
C754 C752 1.384 . S
C754 C755 1.372 . S
C755 C754 1.372 . S
C755 C756 1.400 . S
C755 C760 1.490 . S
C756 H746 0.930 1_455 S
C756 C755 1.400 . S
C756 C759 1.386 . S
H757 C773 0.930 . S
H758 C774 0.931 . S
C759 H747 0.929 . S
C759 C753 1.390 . S
C759 C756 1.386 . S
C760 C755 1.490 . S
C760 C762 1.395 . S
C760 C763 1.403 1_455 S
H761 C767 0.930 . S
C762 H748 0.930 . S
C762 C760 1.395 . S
C762 C765 1.403 . S
C763 C760 1.403 1_655 S
C763 C764 1.524 . S
C763 C767 1.400 . S
C764 H749 0.960 . S
C764 H750 0.960 . S
C764 H751 0.960 . S
C764 C763 1.524 . S
C765 C762 1.403 . S
C765 C766 1.392 1_455 S
C765 C769 1.495 . S
C766 C765 1.392 1_655 S
C766 C767 1.385 . S
C766 C768 1.478 . S
C767 H761 0.930 . S
C767 C763 1.400 . S
C767 C766 1.385 . S
C768 C766 1.478 . S
C768 C770 1.381 . S
C768 C774 1.383 . S
C769 C765 1.495 . S
C769 H775 0.959 . S
C769 H776 0.961 . S
C769 H777 0.960 . S
C770 C768 1.381 . S
C770 C771 1.394 . S
C770 H778 0.930 1_655 S
C771 C770 1.394 . S
C771 C772 1.383 . S
C771 H779 0.929 . S
C772 C771 1.383 . S
C772 C773 1.377 . S
C773 H757 0.930 . S
C773 C772 1.377 . S
C773 C774 1.379 . S
C774 H758 0.931 . S
C774 C768 1.383 . S
C774 C773 1.379 . S
H775 C769 0.959 . S
H776 C769 0.961 . S
H777 C769 0.960 . S
H778 C770 0.930 1_455 S
H779 C771 0.929 . S
H780 C788 0.929 . S
H781 C790 0.930 . S
H782 C792 0.930 . S
H783 C795 0.929 . S
H784 C798 0.930 . S
H785 C800 0.960 1_556 S
H786 C800 0.960 . S
H787 C800 0.960 . S
C788 H780 0.929 . S
C788 C789 1.377 . S
C788 C790 1.384 . S
C789 C788 1.377 . S
C789 C795 1.390 . S
C790 H781 0.930 . S
C790 C788 1.384 . S
C790 C791 1.372 . S
C791 C790 1.372 . S
C791 C792 1.400 . S
C791 C796 1.490 . S
C792 H782 0.930 . S
C792 C791 1.400 . S
C792 C795 1.386 . S
H793 C809 0.930 . S
H794 C810 0.931 . S
C795 H783 0.929 . S
C795 C789 1.390 . S
C795 C792 1.386 . S
C796 C791 1.490 . S
C796 C798 1.395 1_565 S
C796 C799 1.403 . S
H797 C803 0.930 . S
C798 H784 0.930 . S
C798 C796 1.395 1_545 S
C798 C801 1.403 1_554 S
C799 C796 1.403 . S
C799 C800 1.524 . S
C799 C803 1.400 1_554 S
C800 H785 0.960 1_554 S
C800 H786 0.960 . S
C800 H787 0.960 . S
C800 C799 1.524 . S
C801 C798 1.403 1_556 S
C801 C802 1.392 . S
C801 C805 1.495 . S
C802 C801 1.392 . S
C802 C803 1.385 1_545 S
C802 C804 1.478 . S
C803 H797 0.930 . S
C803 C799 1.400 1_556 S
C803 C802 1.385 1_565 S
C804 C802 1.478 . S
C804 C806 1.381 . S
C804 C810 1.383 . S
C805 C801 1.495 . S
C805 H811 0.915 1_556 S
C805 H812 0.961 . S
C805 H813 0.960 . S
C806 C804 1.381 . S
C806 C807 1.394 . S
C806 H814 0.930 . S
C807 C806 1.394 . S
C807 C808 1.383 . S
C807 H815 0.929 . S
C808 C807 1.383 . S
C808 C809 1.377 . S
C809 H793 0.930 . S
C809 C808 1.377 . S
C809 C810 1.379 . S
C810 H794 0.931 . S
C810 C804 1.383 . S
C810 C809 1.379 . S
H811 C805 0.915 1_554 S
H812 C805 0.961 . S
H813 C805 0.960 . S
H814 C806 0.930 . S
H815 C807 0.929 . S
H816 C824 0.929 . S
H817 C826 0.930 . S
H818 C828 0.930 . S
H819 C831 0.929 . S
H820 C834 0.930 . S
H821 C836 0.960 . S
H822 C836 0.960 . S
H823 C836 0.960 . S
C824 H816 0.929 . S
C824 C825 1.377 . S
C824 C826 1.384 . S
C825 C824 1.377 . S
C825 C831 1.390 . S
C826 H817 0.930 . S
C826 C824 1.384 . S
C826 C827 1.372 . S
C827 C826 1.372 . S
C827 C828 1.400 . S
C827 C832 1.490 . S
C828 H818 0.930 . S
C828 C827 1.400 . S
C828 C831 1.386 . S
H829 C845 0.930 . S
H830 C846 0.931 . S
C831 H819 0.929 . S
C831 C825 1.390 . S
C831 C828 1.386 . S
C832 C827 1.490 . S
C832 C834 1.395 . S
C832 C835 1.403 . S
H833 C839 0.930 . S
C834 H820 0.930 . S
C834 C832 1.395 . S
C834 C837 1.403 1_655 S
C835 C832 1.403 . S
C835 C836 1.524 . S
C835 C839 1.400 1_655 S
C836 H821 0.960 . S
C836 H822 0.960 . S
C836 H823 0.960 . S
C836 C835 1.524 . S
C837 C834 1.403 1_455 S
C837 C838 1.392 . S
C837 C841 1.495 . S
C838 C837 1.392 . S
C838 C839 1.385 . S
C838 C840 1.478 . S
C839 H833 0.930 . S
C839 C835 1.400 1_455 S
C839 C838 1.385 . S
C840 C838 1.478 . S
C840 C842 1.381 . S
C840 C846 1.383 . S
C841 C837 1.495 . S
C841 H847 0.959 . S
C841 H848 0.961 . S
C841 H849 0.960 . S
C842 C840 1.381 . S
C842 C843 1.394 . S
C842 H850 0.930 . S
C843 C842 1.394 . S
C843 C844 1.383 . S
C843 H851 0.929 . S
C844 C843 1.383 . S
C844 C845 1.377 . S
C845 H829 0.930 . S
C845 C844 1.377 . S
C845 C846 1.379 . S
C846 H830 0.931 . S
C846 C840 1.383 . S
C846 C845 1.379 . S
H847 C841 0.959 . S
H848 C841 0.961 . S
H849 C841 0.960 . S
H850 C842 0.930 . S
H851 C843 0.929 . S
H852 C860 0.929 . S
H853 C862 0.930 . S
H854 C864 0.930 . S
H855 C867 0.929 . S
H856 C870 0.930 . S
H857 C872 0.960 . S
H858 C872 0.960 . S
H859 C872 0.960 . S
C860 H852 0.929 . S
C860 C861 1.377 . S
C860 C862 1.384 . S
C861 C860 1.377 . S
C861 C867 1.390 . S
C862 H853 0.930 . S
C862 C860 1.384 . S
C862 C863 1.372 . S
C863 C862 1.372 . S
C863 C864 1.400 . S
C863 C868 1.490 . S
C864 H854 0.930 . S
C864 C863 1.400 . S
C864 C867 1.386 . S
H865 C881 0.930 . S
H866 C882 0.931 . S
C867 H855 0.929 . S
C867 C861 1.390 . S
C867 C864 1.386 . S
C868 C863 1.490 . S
C868 C870 1.395 . S
C868 C871 1.403 . S
H869 C875 0.930 . S
C870 H856 0.930 . S
C870 C868 1.395 . S
C870 C873 1.403 1_545 S
C871 C868 1.403 . S
C871 C872 1.524 . S
C871 C875 1.400 1_545 S
C872 H857 0.960 . S
C872 H858 0.960 . S
C872 H859 0.960 . S
C872 C871 1.524 . S
C873 C870 1.403 1_565 S
C873 C874 1.392 . S
C873 C877 1.495 . S
C874 C873 1.392 . S
C874 C875 1.385 . S
C874 C876 1.478 . S
C875 H869 0.930 . S
C875 C871 1.400 1_565 S
C875 C874 1.385 . S
C876 C874 1.478 . S
C876 C878 1.381 . S
C876 C882 1.383 . S
C877 C873 1.495 . S
C877 H883 0.959 . S
C877 H884 0.961 . S
C877 H885 0.960 . S
C878 C876 1.381 . S
C878 C879 1.394 . S
C878 H886 0.930 . S
C879 C878 1.394 . S
C879 C880 1.383 . S
C879 H887 0.929 . S
C880 C879 1.383 . S
C880 C881 1.377 . S
C881 H865 0.930 . S
C881 C880 1.377 . S
C881 C882 1.379 . S
C882 H866 0.931 . S
C882 C876 1.383 . S
C882 C881 1.379 . S
H883 C877 0.959 . S
H884 C877 0.961 . S
H885 C877 0.960 . S
H886 C878 0.930 . S
H887 C879 0.929 . S
H888 C896 0.929 . S
H889 C898 0.930 . S
H890 C900 0.930 . S
H891 C903 0.929 . S
H892 C906 0.930 . S
H893 C908 0.960 . S
H894 C908 0.960 . S
H895 C908 0.960 . S
C896 H888 0.929 . S
C896 C897 1.377 . S
C896 C898 1.384 . S
C897 C896 1.377 . S
C897 C903 1.390 . S
C898 H889 0.930 . S
C898 C896 1.384 . S
C898 C899 1.372 . S
C899 C898 1.372 . S
C899 C900 1.400 . S
C899 C904 1.490 . S
C900 H890 0.930 . S
C900 C899 1.400 . S
C900 C903 1.386 . S
H901 C917 0.930 . S
H902 C918 0.931 . S
C903 H891 0.929 . S
C903 C897 1.390 . S
C903 C900 1.386 . S
C904 C899 1.490 . S
C904 C906 1.395 . S
C904 C907 1.403 . S
H905 C911 0.930 . S
C906 H892 0.930 . S
C906 C904 1.395 . S
C906 C909 1.403 . S
C907 C904 1.403 . S
C907 C908 1.524 . S
C907 C911 1.400 . S
C908 H893 0.960 . S
C908 H894 0.960 . S
C908 H895 0.960 . S
C908 C907 1.524 . S
C909 C906 1.403 . S
C909 C910 1.392 . S
C909 C913 1.495 . S
C910 C909 1.392 . S
C910 C911 1.385 . S
C910 C912 1.478 . S
C911 H905 0.930 . S
C911 C907 1.400 . S
C911 C910 1.385 . S
C912 C910 1.478 . S
C912 C914 1.381 . S
C912 C918 1.383 . S
C913 C909 1.495 . S
C913 H919 0.959 . S
C913 H920 0.961 . S
C913 H921 0.960 . S
C914 C912 1.381 . S
C914 C915 1.394 . S
C914 H922 0.930 . S
C915 C914 1.394 . S
C915 C916 1.383 . S
C915 H923 0.929 . S
C916 C915 1.383 . S
C916 C917 1.377 . S
C917 H901 0.930 . S
C917 C916 1.377 . S
C917 C918 1.379 . S
C918 H902 0.931 . S
C918 C912 1.383 . S
C918 C917 1.379 . S
H919 C913 0.959 . S
H920 C913 0.961 . S
H921 C913 0.960 . S
H922 C914 0.930 . S
H923 C915 0.929 . S
H924 C932 0.929 . S
H925 C934 0.930 . S
H926 C936 0.930 . S
H927 C939 0.929 . S
H928 C942 0.930 . S
H929 C944 0.960 . S
H930 C944 0.960 . S
H931 C944 0.960 . S
C932 H924 0.929 . S
C932 C933 1.377 . S
C932 C934 1.384 . S
C933 C932 1.377 . S
C933 C939 1.390 . S
C934 H925 0.930 . S
C934 C932 1.384 . S
C934 C935 1.372 . S
C935 C934 1.372 . S
C935 C936 1.400 . S
C935 C940 1.490 . S
C936 H926 0.930 . S
C936 C935 1.400 . S
C936 C939 1.386 . S
H937 C953 0.930 . S
H938 C954 0.931 . S
C939 H927 0.929 . S
C939 C933 1.390 . S
C939 C936 1.386 . S
C940 C935 1.490 . S
C940 C942 1.395 . S
C940 C943 1.403 . S
H941 C947 0.930 . S
C942 H928 0.930 . S
C942 C940 1.395 . S
C942 C945 1.403 1_655 S
C943 C940 1.403 . S
C943 C944 1.524 . S
C943 C947 1.400 1_655 S
C944 H929 0.960 . S
C944 H930 0.960 . S
C944 H931 0.960 . S
C944 C943 1.524 . S
C945 C942 1.403 1_455 S
C945 C946 1.392 . S
C945 C949 1.495 . S
C946 C945 1.392 . S
C946 C947 1.385 . S
C946 C948 1.478 . S
C947 H941 0.930 . S
C947 C943 1.400 1_455 S
C947 C946 1.385 . S
C948 C946 1.478 . S
C948 C950 1.381 . S
C948 C954 1.383 . S
C949 C945 1.495 . S
C949 H955 0.959 . S
C949 H956 0.961 . S
C949 H957 0.960 . S
C950 C948 1.381 . S
C950 C951 1.394 . S
C950 H958 0.930 . S
C951 C950 1.394 . S
C951 C952 1.383 . S
C951 H959 0.929 . S
C952 C951 1.383 . S
C952 C953 1.377 . S
C953 H937 0.930 . S
C953 C952 1.377 . S
C953 C954 1.379 . S
C954 H938 0.931 . S
C954 C948 1.383 . S
C954 C953 1.379 . S
H955 C949 0.959 . S
H956 C949 0.961 . S
H957 C949 0.960 . S
H958 C950 0.930 . S
H959 C951 0.929 . S
H960 C968 0.929 . S
H961 C970 0.930 . S
H962 C972 0.930 . S
H963 C975 0.929 . S
H964 C978 0.930 . S
H965 C980 0.960 . S
H966 C980 0.960 . S
H967 C980 0.960 . S
C968 H960 0.929 . S
C968 C969 1.377 . S
C968 C970 1.384 . S
C969 C968 1.377 . S
C969 C975 1.390 . S
C970 H961 0.930 . S
C970 C968 1.384 . S
C970 C971 1.372 . S
C971 C970 1.372 . S
C971 C972 1.400 . S
C971 C976 1.490 . S
C972 H962 0.930 . S
C972 C971 1.400 . S
C972 C975 1.386 . S
H973 C989 0.930 . S
H974 C990 0.931 . S
C975 H963 0.929 . S
C975 C969 1.390 . S
C975 C972 1.386 . S
C976 C971 1.490 . S
C976 C978 1.395 . S
C976 C979 1.403 . S
H977 C983 0.930 . S
C978 H964 0.930 . S
C978 C976 1.395 . S
C978 C981 1.403 1_565 S
C979 C976 1.403 . S
C979 C980 1.524 . S
C979 C983 1.400 1_565 S
C980 H965 0.960 . S
C980 H966 0.960 . S
C980 H967 0.960 . S
C980 C979 1.524 . S
C981 C978 1.403 1_545 S
C981 C982 1.392 . S
C981 C985 1.495 . S
C982 C981 1.392 . S
C982 C983 1.385 . S
C982 C984 1.478 . S
C983 H977 0.930 . S
C983 C979 1.400 1_545 S
C983 C982 1.385 . S
C984 C982 1.478 . S
C984 C986 1.381 . S
C984 C990 1.383 . S
C985 C981 1.495 . S
C985 H991 0.959 . S
C985 H992 0.961 . S
C985 H993 0.960 . S
C986 C984 1.381 . S
C986 C987 1.394 . S
C986 H994 0.930 . S
C987 C986 1.394 . S
C987 C988 1.383 . S
C987 H995 0.929 . S
C988 C987 1.383 . S
C988 C989 1.377 . S
C989 H973 0.930 . S
C989 C988 1.377 . S
C989 C990 1.379 . S
C990 H974 0.931 . S
C990 C984 1.383 . S
C990 C989 1.379 . S
H991 C985 0.959 . S
H992 C985 0.961 . S
H993 C985 0.960 . S
H994 C986 0.930 . S
H995 C987 0.929 . S
H996 C1004 0.929 . S
H997 C1006 0.930 . S
H998 C1008 0.930 . S
H999 C1011 0.929 . S
H1000 C1014 0.930 . S
H1001 C1016 0.960 . S
H1002 C1016 0.960 . S
H1003 C1016 0.960 . S
C1004 H996 0.929 . S
C1004 C1005 1.377 . S
C1004 C1006 1.384 . S
C1005 C1004 1.377 . S
C1005 C1011 1.390 . S
C1006 H997 0.930 . S
C1006 C1004 1.384 . S
C1006 C1007 1.372 . S
C1007 C1006 1.372 . S
C1007 C1008 1.400 . S
C1007 C1012 1.490 . S
C1008 H998 0.930 . S
C1008 C1007 1.400 . S
C1008 C1011 1.386 . S
H1009 C1025 0.930 . S
H1010 C1026 0.931 . S
C1011 H999 0.929 . S
C1011 C1005 1.390 . S
C1011 C1008 1.386 . S
C1012 C1007 1.490 . S
C1012 C1014 1.395 . S
C1012 C1015 1.403 . S
H1013 C1019 0.930 . S
C1014 H1000 0.930 . S
C1014 C1012 1.395 . S
C1014 C1017 1.403 . S
C1015 C1012 1.403 . S
C1015 C1016 1.524 . S
C1015 C1019 1.400 . S
C1016 H1001 0.960 . S
C1016 H1002 0.960 . S
C1016 H1003 0.960 . S
C1016 C1015 1.524 . S
C1017 C1014 1.403 . S
C1017 C1018 1.392 . S
C1017 C1021 1.495 . S
C1018 C1017 1.392 . S
C1018 C1019 1.385 . S
C1018 C1020 1.478 . S
C1019 H1013 0.930 . S
C1019 C1015 1.400 . S
C1019 C1018 1.385 . S
C1020 C1018 1.478 . S
C1020 C1022 1.381 . S
C1020 C1026 1.383 . S
C1021 C1017 1.495 . S
C1021 H1027 0.959 . S
C1021 H1028 0.961 . S
C1021 H1029 0.960 . S
C1022 C1020 1.381 . S
C1022 C1023 1.394 . S
C1022 H1030 0.930 . S
C1023 C1022 1.394 . S
C1023 C1024 1.383 . S
C1023 H1031 0.929 . S
C1024 C1023 1.383 . S
C1024 C1025 1.377 . S
C1025 H1009 0.930 . S
C1025 C1024 1.377 . S
C1025 C1026 1.379 . S
C1026 H1010 0.931 . S
C1026 C1020 1.383 . S
C1026 C1025 1.379 . S
H1027 C1021 0.959 . S
H1028 C1021 0.961 . S
H1029 C1021 0.960 . S
H1030 C1022 0.930 . S
H1031 C1023 0.929 . S
C177 C120 2.275 . S
C196 C8 2.277 . S
C213 C22 2.274 . S
C232 C134 2.270 . S
C249 C36 2.275 . S
C268 C148 2.276 . S
C285 C50 2.275 . S
C304 C162 2.265 . S
C321 C92 2.273 . S
C340 C64 2.263 . S
C357 C78 2.273 . S
C376 C106 2.268 . S
C393 C51 0.639 . S
C412 C9 0.639 . S
C429 C65 0.608 . S
C448 C23 0.589 . S
C465 C79 0.619 . S
C484 C37 0.693 . S
C501 C93 0.634 . S
C520 C135 0.577 . S
C537 C107 0.607 . S
C556 C149 0.609 . S
C573 C121 0.608 . S
C592 C163 0.637 . S
C609 C7 1.527 . S
C628 C133 1.551 . S
C645 C21 1.536 . S
C664 C147 1.504 . S
C681 C35 1.526 . S
C700 C161 1.553 . S
C717 C91 1.530 . S
C736 C49 1.536 . S
C753 C63 1.526 . S
C772 C105 1.551 . S
C789 C119 1.529 . S
C808 C77 1.540 . S
C825 C160 1.061 . S
C844 C6 1.057 . S
C861 C20 1.059 . S
C880 C90 1.068 . S
C897 C104 1.059 . S
C916 C34 1.069 . S
C933 C48 1.064 . S
C952 C118 1.048 . S
C969 C62 1.059 . S
C988 C132 1.068 . S
C1005 C146 1.064 . S
C1024 C76 1.047 . S
