# Generated by pormake.
# Topology ukj, (4)-cn, num edge types: 1
# Building blocks:
#     Node 0, Type 0, BuildingBlock: MUDLON_clean_sbu_0, # of connection points: 4
#     Node 1, Type 0, BuildingBlock: MUDLON_clean_sbu_0, # of connection points: 4
#     Node 2, Type 0, BuildingBlock: MUDLON_clean_sbu_0, # of connection points: 4
#     Node 3, Type 0, BuildingBlock: MUDLON_clean_sbu_0, # of connection points: 4
#     Node 4, Type 0, BuildingBlock: MUDLON_clean_sbu_0, # of connection points: 4
#     Node 5, Type 0, BuildingBlock: MUDLON_clean_sbu_0, # of connection points: 4
#     Node 6, Type 0, BuildingBlock: MUDLON_clean_sbu_0, # of connection points: 4
#     Node 7, Type 0, BuildingBlock: MUDLON_clean_sbu_0, # of connection points: 4
#     Node 8, Type 0, BuildingBlock: MUDLON_clean_sbu_0, # of connection points: 4
#     Node 9, Type 0, BuildingBlock: MUDLON_clean_sbu_0, # of connection points: 4
#     Node 10, Type 0, BuildingBlock: MUDLON_clean_sbu_0, # of connection points: 4
#     Node 11, Type 0, BuildingBlock: MUDLON_clean_sbu_0, # of connection points: 4
#     Node 12, Type 0, BuildingBlock: MUDLON_clean_sbu_0, # of connection points: 4
#     Node 13, Type 0, BuildingBlock: MUDLON_clean_sbu_0, # of connection points: 4
#     Node 14, Type 0, BuildingBlock: MUDLON_clean_sbu_0, # of connection points: 4
#     Node 15, Type 0, BuildingBlock: MUDLON_clean_sbu_0, # of connection points: 4
#     Node 16, Type 0, BuildingBlock: MUDLON_clean_sbu_0, # of connection points: 4
#     Node 17, Type 0, BuildingBlock: MUDLON_clean_sbu_0, # of connection points: 4
#     Node 18, Type 0, BuildingBlock: MUDLON_clean_sbu_0, # of connection points: 4
#     Node 19, Type 0, BuildingBlock: MUDLON_clean_sbu_0, # of connection points: 4
#     Node 20, Type 0, BuildingBlock: MUDLON_clean_sbu_0, # of connection points: 4
#     Node 21, Type 0, BuildingBlock: MUDLON_clean_sbu_0, # of connection points: 4
#     Node 22, Type 0, BuildingBlock: MUDLON_clean_sbu_0, # of connection points: 4
#     Node 23, Type 0, BuildingBlock: MUDLON_clean_sbu_0, # of connection points: 4
#     Node 24, Type 0, BuildingBlock: MUDLON_clean_sbu_0, # of connection points: 4
#     Node 25, Type 0, BuildingBlock: MUDLON_clean_sbu_0, # of connection points: 4
#     Node 26, Type 0, BuildingBlock: MUDLON_clean_sbu_0, # of connection points: 4
#     Node 27, Type 0, BuildingBlock: MUDLON_clean_sbu_0, # of connection points: 4
#     Node 28, Type 0, BuildingBlock: MUDLON_clean_sbu_0, # of connection points: 4
#     Node 29, Type 0, BuildingBlock: MUDLON_clean_sbu_0, # of connection points: 4
#     Node 30, Type 0, BuildingBlock: MUDLON_clean_sbu_0, # of connection points: 4
#     Node 31, Type 0, BuildingBlock: MUDLON_clean_sbu_0, # of connection points: 4
#     Edge 32, Type (0, 0), BuildingBlock: TEMPAE_clean_linker_10, # of connection points: 2
#     Edge 33, Type (0, 0), BuildingBlock: TEMPAE_clean_linker_10, # of connection points: 2
#     Edge 34, Type (0, 0), BuildingBlock: TEMPAE_clean_linker_10, # of connection points: 2
#     Edge 35, Type (0, 0), BuildingBlock: TEMPAE_clean_linker_10, # of connection points: 2
#     Edge 36, Type (0, 0), BuildingBlock: TEMPAE_clean_linker_10, # of connection points: 2
#     Edge 37, Type (0, 0), BuildingBlock: TEMPAE_clean_linker_10, # of connection points: 2
#     Edge 38, Type (0, 0), BuildingBlock: TEMPAE_clean_linker_10, # of connection points: 2
#     Edge 39, Type (0, 0), BuildingBlock: TEMPAE_clean_linker_10, # of connection points: 2
#     Edge 40, Type (0, 0), BuildingBlock: TEMPAE_clean_linker_10, # of connection points: 2
#     Edge 41, Type (0, 0), BuildingBlock: TEMPAE_clean_linker_10, # of connection points: 2
#     Edge 42, Type (0, 0), BuildingBlock: TEMPAE_clean_linker_10, # of connection points: 2
#     Edge 43, Type (0, 0), BuildingBlock: TEMPAE_clean_linker_10, # of connection points: 2
#     Edge 44, Type (0, 0), BuildingBlock: TEMPAE_clean_linker_10, # of connection points: 2
#     Edge 45, Type (0, 0), BuildingBlock: TEMPAE_clean_linker_10, # of connection points: 2
#     Edge 46, Type (0, 0), BuildingBlock: TEMPAE_clean_linker_10, # of connection points: 2
#     Edge 47, Type (0, 0), BuildingBlock: TEMPAE_clean_linker_10, # of connection points: 2
#     Edge 48, Type (0, 0), BuildingBlock: TEMPAE_clean_linker_10, # of connection points: 2
#     Edge 49, Type (0, 0), BuildingBlock: TEMPAE_clean_linker_10, # of connection points: 2
#     Edge 50, Type (0, 0), BuildingBlock: TEMPAE_clean_linker_10, # of connection points: 2
#     Edge 51, Type (0, 0), BuildingBlock: TEMPAE_clean_linker_10, # of connection points: 2
#     Edge 52, Type (0, 0), BuildingBlock: TEMPAE_clean_linker_10, # of connection points: 2
#     Edge 53, Type (0, 0), BuildingBlock: TEMPAE_clean_linker_10, # of connection points: 2
#     Edge 54, Type (0, 0), BuildingBlock: TEMPAE_clean_linker_10, # of connection points: 2
#     Edge 55, Type (0, 0), BuildingBlock: TEMPAE_clean_linker_10, # of connection points: 2
#     Edge 56, Type (0, 0), BuildingBlock: TEMPAE_clean_linker_10, # of connection points: 2
#     Edge 57, Type (0, 0), BuildingBlock: TEMPAE_clean_linker_10, # of connection points: 2
#     Edge 58, Type (0, 0), BuildingBlock: TEMPAE_clean_linker_10, # of connection points: 2
#     Edge 59, Type (0, 0), BuildingBlock: TEMPAE_clean_linker_10, # of connection points: 2
#     Edge 60, Type (0, 0), BuildingBlock: TEMPAE_clean_linker_10, # of connection points: 2
#     Edge 61, Type (0, 0), BuildingBlock: TEMPAE_clean_linker_10, # of connection points: 2
#     Edge 62, Type (0, 0), BuildingBlock: TEMPAE_clean_linker_10, # of connection points: 2
#     Edge 63, Type (0, 0), BuildingBlock: TEMPAE_clean_linker_10, # of connection points: 2
#     Edge 64, Type (0, 0), BuildingBlock: TEMPAE_clean_linker_10, # of connection points: 2
#     Edge 65, Type (0, 0), BuildingBlock: TEMPAE_clean_linker_10, # of connection points: 2
#     Edge 66, Type (0, 0), BuildingBlock: TEMPAE_clean_linker_10, # of connection points: 2
#     Edge 67, Type (0, 0), BuildingBlock: TEMPAE_clean_linker_10, # of connection points: 2
#     Edge 68, Type (0, 0), BuildingBlock: TEMPAE_clean_linker_10, # of connection points: 2
#     Edge 69, Type (0, 0), BuildingBlock: TEMPAE_clean_linker_10, # of connection points: 2
#     Edge 70, Type (0, 0), BuildingBlock: TEMPAE_clean_linker_10, # of connection points: 2
#     Edge 71, Type (0, 0), BuildingBlock: TEMPAE_clean_linker_10, # of connection points: 2
#     Edge 72, Type (0, 0), BuildingBlock: TEMPAE_clean_linker_10, # of connection points: 2
#     Edge 73, Type (0, 0), BuildingBlock: TEMPAE_clean_linker_10, # of connection points: 2
#     Edge 74, Type (0, 0), BuildingBlock: TEMPAE_clean_linker_10, # of connection points: 2
#     Edge 75, Type (0, 0), BuildingBlock: TEMPAE_clean_linker_10, # of connection points: 2
#     Edge 76, Type (0, 0), BuildingBlock: TEMPAE_clean_linker_10, # of connection points: 2
#     Edge 77, Type (0, 0), BuildingBlock: TEMPAE_clean_linker_10, # of connection points: 2
#     Edge 78, Type (0, 0), BuildingBlock: TEMPAE_clean_linker_10, # of connection points: 2
#     Edge 79, Type (0, 0), BuildingBlock: TEMPAE_clean_linker_10, # of connection points: 2
#     Edge 80, Type (0, 0), BuildingBlock: TEMPAE_clean_linker_10, # of connection points: 2
#     Edge 81, Type (0, 0), BuildingBlock: TEMPAE_clean_linker_10, # of connection points: 2
#     Edge 82, Type (0, 0), BuildingBlock: TEMPAE_clean_linker_10, # of connection points: 2
#     Edge 83, Type (0, 0), BuildingBlock: TEMPAE_clean_linker_10, # of connection points: 2
#     Edge 84, Type (0, 0), BuildingBlock: TEMPAE_clean_linker_10, # of connection points: 2
#     Edge 85, Type (0, 0), BuildingBlock: TEMPAE_clean_linker_10, # of connection points: 2
#     Edge 86, Type (0, 0), BuildingBlock: TEMPAE_clean_linker_10, # of connection points: 2
#     Edge 87, Type (0, 0), BuildingBlock: TEMPAE_clean_linker_10, # of connection points: 2
#     Edge 88, Type (0, 0), BuildingBlock: TEMPAE_clean_linker_10, # of connection points: 2
#     Edge 89, Type (0, 0), BuildingBlock: TEMPAE_clean_linker_10, # of connection points: 2
#     Edge 90, Type (0, 0), BuildingBlock: TEMPAE_clean_linker_10, # of connection points: 2
#     Edge 91, Type (0, 0), BuildingBlock: TEMPAE_clean_linker_10, # of connection points: 2
#     Edge 92, Type (0, 0), BuildingBlock: TEMPAE_clean_linker_10, # of connection points: 2
#     Edge 93, Type (0, 0), BuildingBlock: TEMPAE_clean_linker_10, # of connection points: 2
#     Edge 94, Type (0, 0), BuildingBlock: TEMPAE_clean_linker_10, # of connection points: 2
#     Edge 95, Type (0, 0), BuildingBlock: TEMPAE_clean_linker_10, # of connection points: 2
# Relax obj value: 0.028
# Max RMSD: 0.217
# Mean RMSD: 0.215
data_MOF--net-ukj--node1-MUDLON_clean_sbu_0--edge1-TEMPAE_clean_linker_10
_symmetry_space_group_name_H-M    P1
_symmetry_Int_Tables_number       1
_symmetry_cell_setting            triclinic
loop_
_symmetry_equiv_pos_as_xyz
'x, y, z'
_cell_length_a     35.173481
_cell_length_b     58.988574
_cell_length_c     60.734733
_cell_angle_alpha  89.962521
_cell_angle_beta   90.044006
_cell_angle_gamma 90.016821
loop_
_atom_site_label
_atom_site_type_symbol
_atom_site_fract_x
_atom_site_fract_y
_atom_site_fract_z
_atom_type_partial_charge
Mg0 Mg 0.16598 0.34455 0.2704 0.0
C1 C 0.17653 0.35483 0.2237 0.0
O2 O 0.20386 0.34048 0.22853 0.0
C3 C 0.12233 0.3516 0.31269 0.0
O4 O 0.10741 0.33225 0.30638 0.0
C5 C 0.10604 0.31126 0.25788 0.0
O6 O 0.09538 0.32955 0.24717 0.0
O7 O 0.1369 0.31182 0.26887 0.0
O8 O 0.15463 0.36137 0.23912 0.0
O9 O 0.2279 0.34303 0.27308 0.0
C10 C 0.24428 0.35889 0.28369 0.0
O11 O 0.22323 0.37413 0.29367 0.0
O12 O 0.14567 0.36163 0.29997 0.0
Mg13 Mg 0.10372 0.90079 0.26778 0.0
C14 C 0.09967 0.89517 0.22039 0.0
O15 O 0.078 0.91269 0.225 0.0
C16 C 0.14886 0.89013 0.30899 0.0
O17 O 0.16815 0.90786 0.30217 0.0
C18 C 0.16514 0.93381 0.25679 0.0
O19 O 0.17541 0.91578 0.24559 0.0
O20 O 0.13417 0.93318 0.26766 0.0
O21 O 0.11566 0.88478 0.23626 0.0
O22 O 0.04167 0.90302 0.26918 0.0
C23 C 0.02354 0.89345 0.28477 0.0
O24 O 0.04276 0.8843 0.30105 0.0
O25 O 0.12231 0.88234 0.29693 0.0
Mg26 Mg 0.16763 0.90218 1.01587 0.0
C27 C 0.17491 0.89078 0.06231 0.0
O28 O 0.20274 0.90502 0.05818 0.0
C29 C 0.16247 0.89909 0.96889 0.0
O30 O 0.18237 0.91737 0.9734 0.0
C31 C 0.10542 0.93426 0.0259 0.0
O32 O 0.0935 0.91521 0.03476 0.0
O33 O 0.13814 0.93468 0.01694 0.0
O34 O 0.15374 0.88461 0.04639 0.0
O35 O 0.22969 0.90316 1.01419 0.0
C36 C 0.24495 0.88539 1.0062 0.0
O37 O 0.22276 0.86897 0.99924 0.0
O38 O 0.14974 0.88734 0.98485 0.0
Mg39 Mg 0.10496 0.34438 0.01762 0.0
C40 C 0.10565 0.34916 0.06484 0.0
O41 O 0.08469 0.3313 0.06033 0.0
C42 C 0.10691 0.35038 0.9709 0.0
O43 O 0.08638 0.3322 0.97486 0.0
C44 C 0.16892 0.31302 0.02497 0.0
O45 O 0.18098 0.33226 0.03331 0.0
O46 O 0.13542 0.31215 0.01701 0.0
O47 O 0.11979 0.36025 0.04884 0.0
O48 O 0.04288 0.34303 0.01676 0.0
C49 C 0.02646 0.36076 0.02402 0.0
O50 O 0.04754 0.37732 0.03179 0.0
O51 O 0.12097 0.36105 0.98719 0.0
Mg52 Mg 0.8611 0.65202 0.76485 0.0
C53 C 0.86071 0.61883 0.80365 0.0
O54 O 0.8278 0.61289 0.79519 0.0
C55 C 0.89524 0.62742 0.72238 0.0
O56 O 0.91836 0.61556 0.73487 0.0
C57 C 0.92549 0.68275 0.75992 0.0
O58 O 0.93782 0.66292 0.75318 0.0
O59 O 0.89133 0.68429 0.76673 0.0
O60 O 0.88181 0.63247 0.79295 0.0
O61 O 0.79916 0.65344 0.76623 0.0
C62 C 0.77859 0.65537 0.78335 0.0
O63 O 0.79486 0.65914 0.80248 0.0
O64 O 0.8717 0.64103 0.73116 0.0
Mg65 Mg 0.91968 0.09976 0.76955 0.0
C66 C 0.92114 0.12903 0.81135 0.0
O67 O 0.95631 0.13279 0.80509 0.0
C68 C 0.90857 0.09696 0.72167 0.0
O69 O 0.91595 0.07611 0.72799 0.0
C70 C 0.85401 0.06983 0.76578 0.0
O71 O 0.84162 0.09012 0.76045 0.0
O72 O 0.88883 0.06762 0.77119 0.0
O73 O 0.89907 0.11793 0.79866 0.0
O74 O 0.98173 0.09826 0.77165 0.0
C75 C 0.99882 0.11464 0.76219 0.0
O76 O 0.97832 0.13002 0.75199 0.0
O77 O 0.90724 0.11248 0.73627 0.0
Mg78 Mg 0.85977 0.09789 1.01394 0.0
C79 C 0.86299 0.12875 0.97336 0.0
O80 O 0.82792 0.13333 0.97928 0.0
C81 C 0.893 0.12126 0.05748 0.0
O82 O 0.91785 0.13239 0.04549 0.0
C83 C 0.92307 0.0666 0.01944 0.0
O84 O 0.93581 0.08644 0.02592 0.0
O85 O 0.8889 0.06523 1.01259 0.0
O86 O 0.88358 0.11662 0.98599 0.0
O87 O 0.79789 0.09731 1.01016 0.0
C88 C 0.78093 0.1139 0.01932 0.0
O89 O 0.8015 0.12899 0.02987 0.0
O90 O 0.86887 0.10839 0.04815 0.0
Mg91 Mg 0.91448 0.64735 1.01132 0.0
C92 C 0.88882 0.6429 0.96518 0.0
O93 O 0.8874 0.6648 0.96896 0.0
C94 C 0.9157 0.64335 0.05856 0.0
O95 O 0.9345 0.66188 0.05346 0.0
C96 C 0.84932 0.67741 0.02042 0.0
O97 O 0.83767 0.65743 0.02722 0.0
O98 O 0.88274 0.67917 1.01254 0.0
O99 O 0.89846 0.62978 0.98089 0.0
O100 O 0.97635 0.65042 1.01189 0.0
C101 C 0.99714 0.64421 0.99585 0.0
O102 O 0.98097 0.63812 0.97727 0.0
O103 O 0.90187 0.63149 0.04296 0.0
Mg104 Mg 0.17112 0.84668 0.76387 0.0
C105 C 0.17375 0.85415 0.71708 0.0
O106 O 0.19668 0.83711 0.72135 0.0
C107 C 0.16287 0.84893 0.81078 0.0
O108 O 0.1807 0.82989 0.80634 0.0
C109 C 0.10846 0.81481 0.75428 0.0
O110 O 0.09626 0.83402 0.7459 0.0
O111 O 0.14152 0.8142 0.76283 0.0
O112 O 0.15727 0.86383 0.73317 0.0
O113 O 0.23318 0.84537 0.76517 0.0
C114 C 0.24932 0.86199 0.77476 0.0
O115 O 0.228 0.87775 0.78374 0.0
O116 O 0.15293 0.86157 0.79479 0.0
Mg117 Mg 0.10986 0.40695 0.76655 0.0
C118 C 0.1121 0.40128 0.71948 0.0
O119 O 0.09168 0.41949 0.72342 0.0
C120 C 0.1135 0.40311 0.81343 0.0
O121 O 0.09577 0.42217 0.8089 0.0
C122 C 0.17437 0.43792 0.75933 0.0
O123 O 0.18666 0.41835 0.75186 0.0
O124 O 0.14049 0.43915 0.76664 0.0
O125 O 0.12533 0.39033 0.73584 0.0
O126 O 0.04776 0.40827 0.76695 0.0
C127 C 0.03155 0.39046 0.75969 0.0
O128 O 0.05285 0.37388 0.75219 0.0
O129 O 0.12516 0.391 0.79747 0.0
Mg130 Mg 0.17293 0.40057 0.51446 0.0
C131 C 0.18421 0.39019 0.56117 0.0
O132 O 0.2126 0.40369 0.55608 0.0
C133 C 0.12645 0.39311 0.47317 0.0
O134 O 0.11066 0.41197 0.48008 0.0
C135 C 0.11575 0.43536 0.52775 0.0
O136 O 0.10572 0.41787 0.53982 0.0
O137 O 0.14524 0.43374 0.51567 0.0
O138 O 0.16147 0.3842 0.54593 0.0
O139 O 0.23477 0.40102 0.51115 0.0
C140 C 0.24966 0.38341 0.50264 0.0
O141 O 0.22717 0.36724 0.49545 0.0
O142 O 0.15136 0.3835 0.48519 0.0
Mg143 Mg 0.10853 0.84387 0.51318 0.0
C144 C 0.09759 0.85607 0.5593 0.0
O145 O 0.07099 0.84104 0.55508 0.0
C146 C 0.14662 0.84686 0.46913 0.0
O147 O 0.1541 0.82577 0.47453 0.0
C148 C 0.17097 0.81317 0.5268 0.0
O149 O 0.1815 0.8329 0.53476 0.0
O150 O 0.139 0.81175 0.517 0.0
O151 O 0.11899 0.86242 0.54357 0.0
O152 O 0.04663 0.84218 0.50992 0.0
C153 C 0.03118 0.85886 0.50002 0.0
O154 O 0.05319 0.87461 0.49156 0.0
O155 O 0.12945 0.85944 0.48294 0.0
Mg156 Mg 0.86011 0.14761 0.26804 0.0
C157 C 0.86237 0.11695 0.3087 0.0
O158 O 0.82723 0.11272 0.30266 0.0
C159 C 0.89421 0.12473 0.22444 0.0
O160 O 0.91943 0.11378 0.23636 0.0
C161 C 0.92377 0.17873 0.26391 0.0
O162 O 0.93685 0.1587 0.25826 0.0
O163 O 0.88906 0.18032 0.26971 0.0
O164 O 0.88345 0.1288 0.2961 0.0
O165 O 0.79813 0.14778 0.27126 0.0
C166 C 0.78192 0.1309 0.26212 0.0
O167 O 0.80324 0.1159 0.25197 0.0
O168 O 0.86978 0.13731 0.23385 0.0
Mg169 Mg 0.91077 0.59988 0.26706 0.0
C170 C 0.91412 0.63148 0.30736 0.0
O171 O 0.94521 0.63898 0.29785 0.0
C172 C 0.91057 0.60191 0.21976 0.0
O173 O 0.92838 0.58322 0.22548 0.0
C174 C 0.84631 0.56911 0.25964 0.0
O175 O 0.83424 0.58886 0.25248 0.0
O176 O 0.87999 0.56773 0.26727 0.0
O177 O 0.89326 0.61736 0.29709 0.0
O178 O 0.97272 0.59765 0.26655 0.0
C179 C 0.99431 0.59633 0.28331 0.0
O180 O 0.97913 0.5936 0.30289 0.0
O181 O 0.8976 0.6146 0.23498 0.0
Mg182 Mg 0.86536 0.59639 0.51337 0.0
C183 C 0.89419 0.60328 0.46841 0.0
O184 O 0.89285 0.58116 0.47082 0.0
C185 C 0.89879 0.62082 0.55586 0.0
O186 O 0.92657 0.62911 0.54386 0.0
C187 C 0.93189 0.5668 0.51823 0.0
O188 O 0.94484 0.58736 0.52175 0.0
O189 O 0.89675 0.56435 0.51372 0.0
O190 O 0.88557 0.6157 0.48482 0.0
O191 O 0.80359 0.59421 0.51002 0.0
C192 C 0.78738 0.61106 0.50083 0.0
O193 O 0.80865 0.62732 0.49266 0.0
O194 O 0.87267 0.60923 0.54675 0.0
Mg195 Mg 0.91708 0.14402 0.51369 0.0
C196 C 0.91684 0.11608 0.47133 0.0
O197 O 0.9508 0.1104 0.47847 0.0
C198 C 0.92781 0.11781 0.55714 0.0
O199 O 0.96098 0.11289 0.54845 0.0
C200 C 0.85509 0.17591 0.52345 0.0
O201 O 0.84288 0.1564 0.53115 0.0
O202 O 0.888 0.17672 0.51473 0.0
O203 O 0.89554 0.12811 0.48361 0.0
O204 O 0.97883 0.14536 0.50997 0.0
C205 C 1.00203 0.15156 0.52487 0.0
O206 O 0.98868 0.15979 0.54341 0.0
O207 O 0.90343 0.12838 0.54553 0.0
Mg208 Mg 0.67072 0.34483 0.76911 0.0
C209 C 0.67471 0.35008 0.7215 0.0
O210 O 0.69917 0.334 0.72641 0.0
C211 C 0.62461 0.35503 0.8098 0.0
O212 O 0.60581 0.33731 0.80252 0.0
C213 C 0.61707 0.30685 0.75726 0.0
O214 O 0.6087 0.32166 0.74186 0.0
O215 O 0.64395 0.31128 0.77067 0.0
O216 O 0.65658 0.35948 0.73716 0.0
O217 O 0.73281 0.34558 0.77082 0.0
C218 C 0.74754 0.36401 0.76393 0.0
O219 O 0.72489 0.3801 0.75674 0.0
O220 O 0.65134 0.36316 0.79809 0.0
Mg221 Mg 0.61117 0.90405 0.76505 0.0
C222 C 0.60752 0.89653 0.7181 0.0
O223 O 0.58334 0.9129 0.72246 0.0
C224 C 0.61456 0.89896 0.81203 0.0
O225 O 0.59382 0.91703 0.80803 0.0
C226 C 0.67201 0.93752 0.75512 0.0
O227 O 0.6837 0.91939 0.74455 0.0
O228 O 0.64018 0.93679 0.76509 0.0
O229 O 0.6253 0.88746 0.7341 0.0
O230 O 0.54909 0.9048 0.76616 0.0
C231 C 0.53386 0.88654 0.77307 0.0
O232 O 0.55611 0.8698 0.77921 0.0
O233 O 0.62844 0.88818 0.79576 0.0
Mg234 Mg 0.67054 0.90343 0.51266 0.0
C235 C 0.68022 0.89421 0.55943 0.0
O236 O 0.70587 0.90964 0.55461 0.0
C237 C 0.62669 0.89778 0.47027 0.0
O238 O 0.61436 0.91782 0.47637 0.0
C239 C 0.61166 0.93693 0.52615 0.0
O240 O 0.60105 0.91852 0.53667 0.0
O241 O 0.64222 0.9364 0.5149 0.0
O242 O 0.65967 0.88647 0.5439 0.0
O243 O 0.73244 0.904 0.50932 0.0
C244 C 0.74721 0.88644 0.50062 0.0
O245 O 0.72457 0.87035 0.4934 0.0
O246 O 0.64872 0.88686 0.48311 0.0
Mg247 Mg 0.61076 0.34035 0.51614 0.0
C248 C 0.60263 0.35054 0.56261 0.0
O249 O 0.57647 0.33531 0.55814 0.0
C250 C 0.62135 0.34266 0.46931 0.0
O251 O 0.60461 0.32321 0.47348 0.0
C252 C 0.67316 0.30863 0.52675 0.0
O253 O 0.68507 0.32797 0.53497 0.0
O254 O 0.64037 0.30789 0.51786 0.0
O255 O 0.62316 0.35783 0.54688 0.0
O256 O 0.54878 0.33917 0.51359 0.0
C257 C 0.53352 0.35626 0.50429 0.0
O258 O 0.55568 0.37225 0.49641 0.0
O259 O 0.62999 0.3554 0.48547 0.0
Mg260 Mg 0.34998 0.65257 0.26888 0.0
C261 C 0.34477 0.64108 0.31533 0.0
O262 O 0.31621 0.65484 0.31141 0.0
C263 C 0.34995 0.64793 0.2218 0.0
O264 O 0.32997 0.66614 0.22644 0.0
C265 C 0.41645 0.68152 0.26446 0.0
O266 O 0.42829 0.66074 0.26074 0.0
O267 O 0.38136 0.68454 0.26878 0.0
O268 O 0.3662 0.63552 0.29933 0.0
O269 O 0.2878 0.65295 0.26906 0.0
C270 C 0.27436 0.63291 0.26802 0.0
O271 O 0.29839 0.61594 0.26633 0.0
O272 O 0.36436 0.63673 0.23767 0.0
Mg273 Mg 0.41741 0.09409 0.26769 0.0
C274 C 0.42241 0.1222 0.3093 0.0
O275 O 0.45823 0.12241 0.30325 0.0
C276 C 0.38285 0.1184 0.22495 0.0
O277 O 0.35848 0.12946 0.2373 0.0
C278 C 0.35111 0.06448 0.26431 0.0
O279 O 0.33891 0.08475 0.25882 0.0
O280 O 0.38593 0.0622 0.26969 0.0
O281 O 0.39788 0.11375 0.2962 0.0
O282 O 0.47948 0.09181 0.26974 0.0
C283 C 0.49689 0.1079 0.26001 0.0
O284 O 0.47666 0.12327 0.2496 0.0
O285 O 0.40697 0.10521 0.23387 0.0
Mg286 Mg 0.35918 0.09722 0.517 0.0
C287 C 0.37483 0.10033 0.46996 0.0
O288 O 0.36629 0.07899 0.47373 0.0
C289 C 0.3759 0.09893 0.56439 0.0
O290 O 0.36929 0.07741 0.56035 0.0
C291 C 0.42568 0.06762 0.52101 0.0
O292 O 0.43843 0.08815 0.52501 0.0
O293 O 0.39046 0.06511 0.5167 0.0
O294 O 0.37519 0.11402 0.48619 0.0
O295 O 0.2971 0.09638 0.51682 0.0
C296 C 0.28274 0.11573 0.51256 0.0
O297 O 0.30596 0.13265 0.50837 0.0
O298 O 0.37419 0.11301 0.54848 0.0
Mg299 Mg 0.42722 0.65502 0.51954 0.0
C300 C 0.41952 0.65058 0.47289 0.0
O301 O 0.43926 0.66908 0.47678 0.0
C302 C 0.43161 0.64894 0.56656 0.0
O303 O 0.45236 0.66685 0.5619 0.0
C304 C 0.36291 0.6854 0.52877 0.0
O305 O 0.35179 0.66554 0.53617 0.0
O306 O 0.39618 0.68712 0.52063 0.0
O307 O 0.40828 0.63892 0.48927 0.0
O308 O 0.48923 0.65617 0.51698 0.0
C309 C 0.50379 0.63808 0.50922 0.0
O310 O 0.48097 0.62151 0.50336 0.0
O311 O 0.41555 0.63846 0.55078 0.0
Mg312 Mg 0.66469 0.84464 0.26871 0.0
C313 C 0.67379 0.85259 0.22162 0.0
O314 O 0.69906 0.837 0.22659 0.0
C315 C 0.62015 0.85385 0.31036 0.0
O316 O 0.60307 0.83514 0.30409 0.0
C317 C 0.60679 0.80993 0.2557 0.0
O318 O 0.59825 0.82688 0.24257 0.0
O319 O 0.63555 0.81179 0.26835 0.0
O320 O 0.65365 0.86079 0.23708 0.0
O321 O 0.72653 0.84424 0.27195 0.0
C322 C 0.74047 0.86392 0.27503 0.0
O323 O 0.71701 0.88121 0.27626 0.0
O324 O 0.64497 0.86272 0.29778 0.0
Mg325 Mg 0.60443 0.40312 0.26611 0.0
C326 C 0.59557 0.39269 0.21955 0.0
O327 O 0.56825 0.40711 0.22415 0.0
C328 C 0.61093 0.39813 0.31304 0.0
O329 O 0.5892 0.4159 0.30956 0.0
C330 C 0.66521 0.43595 0.25525 0.0
O331 O 0.67704 0.41716 0.24591 0.0
O332 O 0.63312 0.43591 0.26495 0.0
O333 O 0.61705 0.38609 0.23516 0.0
O334 O 0.54248 0.40359 0.26888 0.0
C335 C 0.52809 0.3852 0.27607 0.0
O336 O 0.55105 0.36853 0.28147 0.0
O337 O 0.62423 0.38761 0.29646 0.0
Mg338 Mg 0.66438 0.40271 1.01358 0.0
C339 C 0.66676 0.39695 0.06077 0.0
O340 O 0.68852 0.41443 0.05615 0.0
C341 C 0.62337 0.39669 0.97043 0.0
O342 O 0.61003 0.4165 0.97651 0.0
C343 C 0.60372 0.43547 0.02475 0.0
O344 O 0.59157 0.41635 0.03332 0.0
O345 O 0.63599 0.43571 1.01522 0.0
O346 O 0.65099 0.38648 0.04488 0.0
O347 O 0.7265 0.40297 1.01212 0.0
C348 C 0.7419 0.38469 0.01888 0.0
O349 O 0.71982 0.36817 0.02574 0.0
O350 O 0.64513 0.38592 0.98355 0.0
Mg351 Mg 0.60645 0.84271 1.01612 0.0
C352 C 0.60134 0.85135 0.06282 0.0
O353 O 0.57655 0.8353 0.05845 0.0
C354 C 0.61565 0.84516 0.96914 0.0
O355 O 0.59775 0.82608 0.97334 0.0
C356 C 0.66732 0.80988 0.02695 0.0
O357 O 0.67954 0.82875 0.03601 0.0
O358 O 0.635 0.80991 0.01748 0.0
O359 O 0.61998 0.85986 0.04688 0.0
O360 O 0.54443 0.84199 1.01433 0.0
C361 C 0.52905 0.85921 1.00533 0.0
O362 O 0.5511 0.87512 0.99719 0.0
O363 O 0.62537 0.85763 0.9853 0.0
Mg364 Mg 0.3642 0.14808 0.77109 0.0
C365 C 0.36017 0.11874 0.81304 0.0
O366 O 0.32599 0.11389 0.80569 0.0
C367 C 0.39791 0.14125 0.7249 0.0
O368 O 0.41642 0.15984 0.72999 0.0
C369 C 0.43146 0.17723 0.77505 0.0
O370 O 0.44434 0.1565 0.77777 0.0
O371 O 0.39589 0.18 0.77202 0.0
O372 O 0.3823 0.13066 0.80114 0.0
O373 O 0.30208 0.15042 0.77229 0.0
C374 C 0.28475 0.13383 0.76333 0.0
O375 O 0.30506 0.11772 0.75415 0.0
O376 O 0.37664 0.13193 0.73928 0.0
Mg377 Mg 0.42047 0.60133 0.7739 0.0
C378 C 0.4158 0.63302 0.8138 0.0
O379 O 0.44917 0.6398 0.80672 0.0
C380 C 0.42293 0.60298 0.72633 0.0
O381 O 0.44115 0.58445 0.7321 0.0
C382 C 0.35852 0.56951 0.76509 0.0
O383 O 0.34651 0.58909 0.75746 0.0
O384 O 0.39159 0.56852 0.77363 0.0
O385 O 0.3969 0.61889 0.80234 0.0
O386 O 0.48248 0.60162 0.77718 0.0
C387 C 0.49793 0.61975 0.77006 0.0
O388 O 0.47603 0.63528 0.76112 0.0
O389 O 0.40904 0.61542 0.74143 0.0
Mg390 Mg 0.35675 0.59854 1.01473 0.0
C391 C 0.36021 0.63086 0.97505 0.0
O392 O 0.32707 0.63763 0.98247 0.0
C393 C 0.35432 0.60078 0.06238 0.0
O394 O 0.33568 0.58229 0.05695 0.0
C395 C 0.42025 0.56748 0.02263 0.0
O396 O 0.4321 0.58719 0.03 0.0
O397 O 0.38674 0.56613 1.01475 0.0
O398 O 0.37923 0.61648 0.98615 0.0
O399 O 0.29476 0.59765 1.01161 0.0
C400 C 0.27819 0.61567 0.01806 0.0
O401 O 0.29895 0.63198 0.0266 0.0
O402 O 0.36825 0.61292 0.04704 0.0
Mg403 Mg 0.41624 0.15011 1.01515 0.0
C404 C 0.41303 0.1183 0.9754 0.0
O405 O 0.44794 0.11365 0.9816 0.0
C406 C 0.38315 0.12637 0.05827 0.0
O407 O 0.35874 0.11525 0.04596 0.0
C408 C 0.35244 0.18121 0.02018 0.0
O409 O 0.33995 0.16144 0.02704 0.0
O410 O 0.38661 0.1826 1.01335 0.0
O411 O 0.39251 0.13085 0.98763 0.0
O412 O 0.47808 0.15089 1.01119 0.0
C413 C 0.49544 0.13458 0.0206 0.0
O414 O 0.47529 0.11962 0.0316 0.0
O415 O 0.4072 0.13953 0.04927 0.0
C416 C 0.19192 0.3512 0.1838 0.0
C417 C 0.16875 0.36044 0.20032 0.0
C418 C 0.18221 0.35313 0.16151 0.0
C419 C 0.14869 0.36485 0.15546 0.0
C420 C 0.12667 0.37569 0.1719 0.0
C421 C 0.13683 0.37324 0.1942 0.0
C422 C 0.20642 0.34117 0.14457 0.0
C423 C 0.09115 0.38872 0.16607 0.0
C424 C 0.13638 0.37375 0.09373 0.0
C425 C 0.11416 0.35486 0.0881 0.0
C426 C 0.14637 0.378 0.11581 0.0
C427 C 0.13425 0.36283 0.13249 0.0
C428 C 0.11078 0.34421 0.12693 0.0
C429 C 0.10089 0.34055 0.10488 0.0
C430 C 0.17087 0.39826 0.12118 0.0
C431 C 0.09746 0.32748 0.14414 0.0
H432 H 0.21689 0.34148 0.18831 0.0
H433 H 0.11894 0.38062 0.20683 0.0
H434 H 0.19036 0.32663 0.13763 0.0
H435 H 0.2133 0.35274 0.13075 0.0
H436 H 0.23342 0.33467 0.15167 0.0
H437 H 0.08099 0.39927 0.18002 0.0
H438 H 0.09625 0.39985 0.15163 0.0
H439 H 0.06824 0.37666 0.16153 0.0
H440 H 0.1465 0.38499 0.08088 0.0
H441 H 0.08354 0.32597 0.10077 0.0
H442 H 0.19968 0.39246 0.12603 0.0
H443 H 0.15886 0.40773 0.13534 0.0
H444 H 0.17369 0.40998 0.10695 0.0
H445 H 0.12234 0.31865 0.15142 0.0
H446 H 0.07787 0.31451 0.13725 0.0
H447 H 0.08267 0.33646 0.15768 0.0
C448 C 0.18844 0.89376 0.10247 0.0
C449 C 0.16584 0.88492 0.08547 0.0
C450 C 0.17765 0.89164 0.12457 0.0
C451 C 0.14362 0.88011 0.12992 0.0
C452 C 0.12209 0.86966 0.113 0.0
C453 C 0.13333 0.87232 0.0909 0.0
C454 C 0.20136 0.90319 0.14204 0.0
C455 C 0.08609 0.85679 0.1181 0.0
C456 C 0.12979 0.87051 0.1914 0.0
C457 C 0.10785 0.88949 0.19709 0.0
C458 C 0.13991 0.86638 0.16934 0.0
C459 C 0.12837 0.8818 0.15273 0.0
C460 C 0.10508 0.90048 0.15834 0.0
C461 C 0.09491 0.90398 0.18036 0.0
C462 C 0.16409 0.84601 0.16392 0.0
C463 C 0.09246 0.91752 0.14123 0.0
H464 H 0.21386 0.90332 0.09851 0.0
H465 H 0.11587 0.86525 0.07789 0.0
H466 H 0.18516 0.91761 0.14908 0.0
H467 H 0.20769 0.8913 0.1557 0.0
H468 H 0.22865 0.90978 0.13541 0.0
H469 H 0.07634 0.84651 0.10386 0.0
H470 H 0.09034 0.84543 0.13246 0.0
H471 H 0.06322 0.86894 0.12245 0.0
H472 H 0.13963 0.85913 0.2042 0.0
H473 H 0.07782 0.91865 0.18453 0.0
H474 H 0.19325 0.85163 0.15963 0.0
H475 H 0.15243 0.83694 0.14941 0.0
H476 H 0.16599 0.83398 0.17796 0.0
H477 H 0.11767 0.92638 0.13438 0.0
H478 H 0.07277 0.93043 0.14809 0.0
H479 H 0.07803 0.90881 0.12737 0.0
C480 C 0.90228 0.6227 0.83702 0.0
C481 C 0.86867 0.61457 0.82736 0.0
C482 C 0.90668 0.62331 0.86002 0.0
C483 C 0.87673 0.61566 0.87374 0.0
C484 C 0.8441 0.60571 0.86407 0.0
C485 C 0.84049 0.60524 0.84101 0.0
C486 C 0.94216 0.63382 0.86959 0.0
C487 C 0.81159 0.59724 0.87804 0.0
C488 C 0.89536 0.61304 0.93571 0.0
C489 C 0.88251 0.63447 0.94243 0.0
C490 C 0.89292 0.60632 0.91347 0.0
C491 C 0.8771 0.62134 0.8977 0.0
C492 C 0.86281 0.6426 0.90463 0.0
C493 C 0.86576 0.64889 0.92682 0.0
C494 C 0.90842 0.58351 0.90673 0.0
C495 C 0.84535 0.6591 0.88848 0.0
H496 H 0.92442 0.62974 0.82666 0.0
H497 H 0.81448 0.59878 0.83378 0.0
H498 H 0.93519 0.65075 0.87646 0.0
H499 H 0.95338 0.6233 0.88327 0.0
H500 H 0.96484 0.63596 0.85704 0.0
H501 H 0.79135 0.58672 0.8684 0.0
H502 H 0.82229 0.58711 0.89213 0.0
H503 H 0.79586 0.61193 0.8849 0.0
H504 H 0.90848 0.60184 0.94765 0.0
H505 H 0.85546 0.6654 0.93187 0.0
H506 H 0.9339 0.58593 0.89623 0.0
H507 H 0.88712 0.57414 0.89679 0.0
H508 H 0.91652 0.57298 0.92116 0.0
H509 H 0.86697 0.66439 0.87622 0.0
H510 H 0.83407 0.67452 0.89669 0.0
H511 H 0.8218 0.65084 0.87934 0.0
C512 C 0.90412 0.12059 0.94061 0.0
C513 C 0.87534 0.13359 0.95041 0.0
C514 C 0.9117 0.12219 0.91793 0.0
C515 C 0.89057 0.13751 0.90474 0.0
C516 C 0.86307 0.15165 0.91479 0.0
C517 C 0.85549 0.14935 0.93744 0.0
C518 C 0.94095 0.10657 0.90789 0.0
C519 C 0.84062 0.16863 0.90148 0.0
C520 C 0.93134 0.14861 0.84757 0.0
C521 C 0.90985 0.13373 0.83449 0.0
C522 C 0.92425 0.15085 0.87028 0.0
C523 C 0.89555 0.13751 0.88028 0.0
C524 C 0.87293 0.12305 0.86701 0.0
C525 C 0.88007 0.12153 0.84429 0.0
C526 C 0.94834 0.16691 0.88368 0.0
C527 C 0.84235 0.1083 0.877 0.0
H528 H 0.91945 0.10826 0.95043 0.0
H529 H 0.83331 0.15953 0.94488 0.0
H530 H 0.92682 0.09483 0.89619 0.0
H531 H 0.96217 0.11648 0.89842 0.0
H532 H 0.95615 0.09636 0.9205 0.0
H533 H 0.8236 0.18012 0.91208 0.0
H534 H 0.85995 0.179 0.89114 0.0
H535 H 0.82098 0.15956 0.89022 0.0
H536 H 0.9543 0.15818 0.84014 0.0
H537 H 0.86347 0.10987 0.83439 0.0
H538 H 0.96699 0.1571 0.89493 0.0
H539 H 0.93005 0.17789 0.89405 0.0
H540 H 0.96652 0.17785 0.87315 0.0
H541 H 0.8554 0.09611 0.8887 0.0
H542 H 0.82633 0.0986 0.86436 0.0
H543 H 0.82198 0.11882 0.88646 0.0
C544 C 0.14049 0.87793 0.68845 0.0
C545 C 0.16478 0.8599 0.69387 0.0
C546 C 0.12958 0.88186 0.66646 0.0
C547 C 0.14276 0.86717 0.64966 0.0
C548 C 0.16842 0.84953 0.655 0.0
C549 C 0.1793 0.84625 0.67694 0.0
C550 C 0.10288 0.90117 0.66132 0.0
C551 C 0.1829 0.83328 0.63769 0.0
C552 C 0.08408 0.85274 0.59945 0.0
C553 C 0.1056 0.86249 0.58245 0.0
C554 C 0.09454 0.85538 0.62156 0.0
C555 C 0.12704 0.8684 0.62692 0.0
C556 C 0.14716 0.87978 0.61 0.0
C557 C 0.13638 0.87656 0.5879 0.0
C558 C 0.07241 0.84276 0.63902 0.0
C559 C 0.18142 0.89426 0.6151 0.0
H560 H 0.12939 0.88868 0.70141 0.0
H561 H 0.19824 0.83233 0.68089 0.0
H562 H 0.11299 0.91078 0.64675 0.0
H563 H 0.07435 0.89433 0.65726 0.0
H564 H 0.09994 0.91302 0.67542 0.0
H565 H 0.20415 0.82116 0.64437 0.0
H566 H 0.15876 0.82345 0.63079 0.0
H567 H 0.19612 0.84275 0.6239 0.0
H568 H 0.06 0.84203 0.59547 0.0
H569 H 0.15295 0.88435 0.57489 0.0
H570 H 0.06484 0.85427 0.65276 0.0
H571 H 0.09033 0.82901 0.64595 0.0
H572 H 0.0459 0.8351 0.63241 0.0
H573 H 0.17588 0.90524 0.62958 0.0
H574 H 0.18956 0.90511 0.60091 0.0
H575 H 0.20589 0.88319 0.61925 0.0
C576 C 0.20003 0.39412 0.601 0.0
C577 C 0.17615 0.38518 0.58464 0.0
C578 C 0.19014 0.39298 0.62332 0.0
C579 C 0.15569 0.38237 0.62953 0.0
C580 C 0.13288 0.37176 0.61329 0.0
C581 C 0.14326 0.37341 0.59097 0.0
C582 C 0.2152 0.40466 0.64004 0.0
C583 C 0.09633 0.35989 0.61932 0.0
C584 C 0.14183 0.37536 0.69138 0.0
C585 C 0.12093 0.39494 0.69643 0.0
C586 C 0.1519 0.37033 0.66948 0.0
C587 C 0.14126 0.3854 0.65238 0.0
C588 C 0.1192 0.40479 0.65737 0.0
C589 C 0.10917 0.40922 0.67925 0.0
C590 C 0.17486 0.3493 0.66473 0.0
C591 C 0.10748 0.42145 0.6397 0.0
H592 H 0.22574 0.40304 0.59634 0.0
H593 H 0.1248 0.36627 0.57847 0.0
H594 H 0.20036 0.41985 0.64652 0.0
H595 H 0.22096 0.39328 0.6542 0.0
H596 H 0.24279 0.41012 0.63289 0.0
H597 H 0.08545 0.34925 0.6056 0.0
H598 H 0.10043 0.34903 0.63405 0.0
H599 H 0.07437 0.37269 0.62345 0.0
H600 H 0.15077 0.36414 0.70455 0.0
H601 H 0.09287 0.42434 0.68291 0.0
H602 H 0.20409 0.35417 0.65977 0.0
H603 H 0.16215 0.33975 0.65082 0.0
H604 H 0.17677 0.33793 0.67928 0.0
H605 H 0.13314 0.4293 0.6323 0.0
H606 H 0.08898 0.43517 0.64618 0.0
H607 H 0.09202 0.41257 0.62632 0.0
C608 C 0.85336 0.09687 0.34476 0.0
C609 C 0.8743 0.11206 0.33172 0.0
C610 C 0.8605 0.09467 0.36746 0.0
C611 C 0.88876 0.1083 0.3775 0.0
C612 C 0.91103 0.12298 0.36426 0.0
C613 C 0.90379 0.12452 0.34153 0.0
C614 C 0.83673 0.0784 0.38084 0.0
C615 C 0.94119 0.138 0.37429 0.0
C616 C 0.878 0.12495 0.43776 0.0
C617 C 0.90639 0.11192 0.44794 0.0
C618 C 0.87148 0.12357 0.41496 0.0
C619 C 0.89336 0.10846 0.40199 0.0
C620 C 0.92075 0.09443 0.41233 0.0
C621 C 0.9272 0.09649 0.43512 0.0
C622 C 0.84226 0.13902 0.40461 0.0
C623 C 0.94405 0.07773 0.39923 0.0
H624 H 0.83064 0.0871 0.33731 0.0
H625 H 0.91999 0.1364 0.33167 0.0
H626 H 0.85521 0.06768 0.39137 0.0
H627 H 0.81764 0.08807 0.39192 0.0
H628 H 0.81903 0.06722 0.37028 0.0
H629 H 0.95736 0.1476 0.36165 0.0
H630 H 0.92769 0.15029 0.3857 0.0
H631 H 0.96147 0.12773 0.38409 0.0
H632 H 0.86191 0.13702 0.44746 0.0
H633 H 0.94909 0.08628 0.44284 0.0
H634 H 0.82125 0.12895 0.39513 0.0
H635 H 0.85643 0.15069 0.39285 0.0
H636 H 0.82681 0.14931 0.41703 0.0
H637 H 0.92521 0.06699 0.38892 0.0
H638 H 0.96151 0.06657 0.40995 0.0
H639 H 0.96331 0.08701 0.38792 0.0
C640 C 0.87583 0.62607 0.34177 0.0
C641 C 0.90815 0.63501 0.33136 0.0
C642 C 0.87331 0.62505 0.36484 0.0
C643 C 0.90387 0.6331 0.37788 0.0
C644 C 0.93519 0.64378 0.36752 0.0
C645 C 0.93693 0.64464 0.3444 0.0
C646 C 0.83917 0.61375 0.37516 0.0
C647 C 0.96826 0.65272 0.38077 0.0
C648 C 0.88774 0.63428 0.44008 0.0
C649 C 0.90132 0.6128 0.44618 0.0
C650 C 0.88955 0.64162 0.418 0.0
C651 C 0.90548 0.62719 0.40178 0.0
C652 C 0.92101 0.60604 0.40817 0.0
C653 C 0.91864 0.59912 0.4302 0.0
C654 C 0.8728 0.66431 0.41187 0.0
C655 C 0.9387 0.59018 0.39154 0.0
H656 H 0.85324 0.61879 0.33189 0.0
H657 H 0.96197 0.6517 0.33658 0.0
H658 H 0.84764 0.597 0.3819 0.0
H659 H 0.82822 0.62404 0.38906 0.0
H660 H 0.81581 0.6111 0.36311 0.0
H661 H 0.98712 0.66378 0.37077 0.0
H662 H 0.95809 0.66243 0.39525 0.0
H663 H 0.98533 0.63827 0.38704 0.0
H664 H 0.87415 0.64489 0.45232 0.0
H665 H 0.92951 0.58259 0.43482 0.0
H666 H 0.8463 0.66167 0.40229 0.0
H667 H 0.89272 0.67395 0.40125 0.0
H668 H 0.86594 0.67468 0.42661 0.0
H669 H 0.91672 0.58443 0.37968 0.0
H670 H 0.95159 0.575 0.39939 0.0
H671 H 0.96103 0.59913 0.38201 0.0
C672 C 0.64076 0.37093 0.5916 0.0
C673 C 0.61065 0.35648 0.58589 0.0
C674 C 0.65111 0.3741 0.61379 0.0
C675 C 0.63121 0.36228 0.63052 0.0
C676 C 0.59954 0.34867 0.62487 0.0
C677 C 0.58952 0.34609 0.60269 0.0
C678 C 0.68453 0.38914 0.61921 0.0
C679 C 0.57768 0.33559 0.64213 0.0
C680 C 0.68234 0.34164 0.68157 0.0
C681 C 0.66631 0.35521 0.6981 0.0
C682 C 0.67235 0.34449 0.65941 0.0
C683 C 0.64602 0.36158 0.65349 0.0
C684 C 0.63124 0.37617 0.66991 0.0
C685 C 0.64132 0.37269 0.6921 0.0
C686 C 0.68851 0.32837 0.6425 0.0
C687 C 0.60372 0.39487 0.66416 0.0
H688 H 0.65704 0.37919 0.57875 0.0
H689 H 0.56597 0.33504 0.59851 0.0
H690 H 0.67787 0.4002 0.63346 0.0
H691 H 0.70925 0.37849 0.62388 0.0
H692 H 0.69287 0.39994 0.60502 0.0
H693 H 0.552 0.32722 0.63524 0.0
H694 H 0.5963 0.32236 0.64938 0.0
H695 H 0.56876 0.34698 0.65568 0.0
H696 H 0.70182 0.32814 0.68598 0.0
H697 H 0.62908 0.38338 0.70475 0.0
H698 H 0.70161 0.33796 0.62875 0.0
H699 H 0.66528 0.3179 0.63545 0.0
H700 H 0.71027 0.31684 0.64961 0.0
H701 H 0.61416 0.40466 0.64977 0.0
H702 H 0.59917 0.4067 0.67814 0.0
H703 H 0.57589 0.38742 0.65952 0.0
C704 C 0.59917 0.90349 0.67792 0.0
C705 C 0.61615 0.89082 0.69484 0.0
C706 C 0.60951 0.90036 0.65587 0.0
C707 C 0.63721 0.88391 0.65044 0.0
C708 C 0.65296 0.87013 0.66726 0.0
C709 C 0.64246 0.87387 0.68934 0.0
C710 C 0.59221 0.9156 0.63853 0.0
C711 C 0.68198 0.85209 0.66204 0.0
C712 C 0.64359 0.87341 0.58879 0.0
C713 C 0.67256 0.88858 0.58283 0.0
C714 C 0.63342 0.8704 0.61101 0.0
C715 C 0.65227 0.88311 0.62753 0.0
C716 C 0.68285 0.89748 0.62166 0.0
C717 C 0.69276 0.8999 0.59945 0.0
C718 C 0.60122 0.85453 0.61668 0.0
C719 C 0.70352 0.91153 0.63869 0.0
H720 H 0.57862 0.91653 0.68194 0.0
H721 H 0.65549 0.86388 0.70229 0.0
H722 H 0.61464 0.92655 0.6313 0.0
H723 H 0.58002 0.90533 0.62497 0.0
H724 H 0.56949 0.92666 0.64529 0.0
H725 H 0.68717 0.84068 0.67629 0.0
H726 H 0.67256 0.84177 0.64778 0.0
H727 H 0.70929 0.86022 0.65745 0.0
H728 H 0.62806 0.86444 0.57607 0.0
H729 H 0.71541 0.91152 0.59508 0.0
H730 H 0.57562 0.86454 0.62103 0.0
H731 H 0.60866 0.84399 0.63119 0.0
H732 H 0.59388 0.84319 0.60271 0.0
H733 H 0.68384 0.92439 0.64559 0.0
H734 H 0.72857 0.92046 0.63169 0.0
H735 H 0.71323 0.9007 0.65252 0.0
C736 C 0.32888 0.64155 0.35525 0.0
C737 C 0.35391 0.63501 0.33843 0.0
C738 C 0.33926 0.63987 0.37745 0.0
C739 C 0.37547 0.63118 0.38306 0.0
C740 C 0.39959 0.6227 0.36629 0.0
C741 C 0.38859 0.62482 0.34409 0.0
C742 C 0.31267 0.6492 0.39474 0.0
C743 C 0.43808 0.61286 0.37166 0.0
C744 C 0.41861 0.65972 0.4329 0.0
C745 C 0.41012 0.6444 0.44987 0.0
C746 C 0.40866 0.65515 0.41105 0.0
C747 C 0.39007 0.63456 0.40584 0.0
C748 C 0.38268 0.61855 0.42271 0.0
C749 C 0.39254 0.62374 0.44462 0.0
C750 C 0.41675 0.67285 0.39365 0.0
C751 C 0.3635 0.59626 0.4177 0.0
H752 H 0.30172 0.64911 0.35108 0.0
H753 H 0.40794 0.6195 0.3312 0.0
H754 H 0.30961 0.6371 0.4086 0.0
H755 H 0.32469 0.66514 0.40153 0.0
H756 H 0.28398 0.65293 0.38798 0.0
H757 H 0.45008 0.60323 0.35757 0.0
H758 H 0.45803 0.62678 0.37584 0.0
H759 H 0.43632 0.60149 0.38618 0.0
H760 H 0.4323 0.67571 0.43674 0.0
H761 H 0.38622 0.61172 0.45762 0.0
H762 H 0.38959 0.67911 0.38659 0.0
H763 H 0.4334 0.66533 0.37999 0.0
H764 H 0.43276 0.68758 0.40029 0.0
H765 H 0.33338 0.59931 0.41315 0.0
H766 H 0.36421 0.58451 0.432 0.0
H767 H 0.37735 0.58792 0.40344 0.0
C768 C 0.3783 0.13035 0.4404 0.0
C769 C 0.38267 0.10771 0.44704 0.0
C770 C 0.38305 0.13665 0.41815 0.0
C771 C 0.39296 0.11998 0.40235 0.0
C772 C 0.39824 0.09724 0.40917 0.0
C773 C 0.39279 0.0914 0.43131 0.0
C774 C 0.37675 0.161 0.41147 0.0
C775 C 0.40946 0.07894 0.39303 0.0
C776 C 0.37567 0.12299 0.34067 0.0
C777 C 0.41263 0.1267 0.33274 0.0
C778 C 0.36811 0.12266 0.36343 0.0
C779 C 0.39826 0.12589 0.37862 0.0
C780 C 0.43494 0.13139 0.37066 0.0
C781 C 0.44161 0.13186 0.34787 0.0
C782 C 0.32842 0.11717 0.37119 0.0
C783 C 0.46799 0.13486 0.38619 0.0
H784 H 0.37019 0.143 0.45245 0.0
H785 H 0.39648 0.0739 0.43632 0.0
H786 H 0.40238 0.16774 0.40309 0.0
H787 H 0.35292 0.162 0.39953 0.0
H788 H 0.37007 0.17203 0.42578 0.0
H789 H 0.41334 0.06219 0.40109 0.0
H790 H 0.38734 0.07723 0.38011 0.0
H791 H 0.43641 0.08362 0.38469 0.0
H792 H 0.35298 0.11918 0.32916 0.0
H793 H 0.47023 0.13497 0.34199 0.0
H794 H 0.32007 0.12846 0.38496 0.0
H795 H 0.32759 0.09949 0.37741 0.0
H796 H 0.30716 0.11883 0.35774 0.0
H797 H 0.4599 0.14622 0.39995 0.0
H798 H 0.49316 0.14214 0.37769 0.0
H799 H 0.47626 0.11831 0.39345 0.0
C800 C 0.68502 0.84589 0.18163 0.0
C801 C 0.66617 0.85807 0.19818 0.0
C802 C 0.67519 0.84847 0.15941 0.0
C803 C 0.6461 0.86388 0.15347 0.0
C804 C 0.62864 0.87734 0.16992 0.0
C805 C 0.63866 0.87414 0.19215 0.0
C806 C 0.69431 0.8336 0.14247 0.0
C807 C 0.5981 0.8943 0.16417 0.0
C808 C 0.63771 0.87318 0.09162 0.0
C809 C 0.60986 0.85713 0.08608 0.0
C810 C 0.64831 0.87669 0.11372 0.0
C811 C 0.63105 0.86358 0.13054 0.0
C812 C 0.60175 0.84814 0.12507 0.0
C813 C 0.59137 0.84524 0.10299 0.0
C814 C 0.6791 0.89367 0.11897 0.0
C815 C 0.58279 0.83364 0.14242 0.0
H816 H 0.70651 0.83354 0.18606 0.0
H817 H 0.6242 0.88378 0.20482 0.0
H818 H 0.67327 0.82153 0.13553 0.0
H819 H 0.70525 0.844 0.12864 0.0
H820 H 0.7183 0.82372 0.14953 0.0
H821 H 0.59181 0.90588 0.17811 0.0
H822 H 0.60668 0.90456 0.14968 0.0
H823 H 0.57158 0.8852 0.15972 0.0
H824 H 0.65193 0.88257 0.07867 0.0
H825 H 0.56961 0.83291 0.09895 0.0
H826 H 0.70555 0.88458 0.12357 0.0
H827 H 0.67076 0.90431 0.13323 0.0
H828 H 0.68541 0.90488 0.10473 0.0
H829 H 0.60395 0.82185 0.14969 0.0
H830 H 0.55891 0.82348 0.13564 0.0
H831 H 0.57173 0.84438 0.15595 0.0
C832 C 0.6357 0.37274 0.08985 0.0
C833 C 0.65876 0.39122 0.08409 0.0
C834 C 0.62588 0.36865 0.11198 0.0
C835 C 0.63898 0.38362 0.12858 0.0
C836 C 0.66343 0.40175 0.1229 0.0
C837 C 0.67318 0.40522 0.10081 0.0
C838 C 0.60039 0.34888 0.11748 0.0
C839 C 0.67779 0.41827 0.14001 0.0
C840 C 0.58132 0.39662 0.17953 0.0
C841 C 0.6037 0.387 0.19623 0.0
C842 C 0.59131 0.39446 0.15731 0.0
C843 C 0.62428 0.38209 0.15153 0.0
C844 C 0.64551 0.37094 0.16816 0.0
C845 C 0.63512 0.37365 0.19038 0.0
C846 C 0.56799 0.4068 0.14017 0.0
C847 C 0.68038 0.35721 0.1626 0.0
H848 H 0.62471 0.36173 0.07706 0.0
H849 H 0.6912 0.41948 0.09659 0.0
H850 H 0.61179 0.33936 0.1318 0.0
H851 H 0.57181 0.35521 0.12211 0.0
H852 H 0.59718 0.33705 0.10337 0.0
H853 H 0.69822 0.43072 0.13306 0.0
H854 H 0.65347 0.42771 0.14717 0.0
H855 H 0.69195 0.40905 0.15366 0.0
H856 H 0.55675 0.40678 0.18382 0.0
H857 H 0.65238 0.36599 0.20316 0.0
H858 H 0.5604 0.39522 0.12647 0.0
H859 H 0.58504 0.42085 0.13308 0.0
H860 H 0.54142 0.41401 0.14711 0.0
H861 H 0.67486 0.34609 0.14821 0.0
H862 H 0.6898 0.34656 0.17668 0.0
H863 H 0.70398 0.36879 0.15809 0.0
C864 C 0.34847 0.09866 0.84888 0.0
C865 C 0.37016 0.11393 0.83636 0.0
C866 C 0.35463 0.09612 0.87165 0.0
C867 C 0.38258 0.10953 0.88226 0.0
C868 C 0.40539 0.12441 0.86956 0.0
C869 C 0.39918 0.12625 0.84677 0.0
C870 C 0.33037 0.07965 0.88447 0.0
C871 C 0.43522 0.13924 0.8802 0.0
C872 C 0.37195 0.12592 0.9425 0.0
C873 C 0.40094 0.1132 0.95248 0.0
C874 C 0.36478 0.12428 0.91979 0.0
C875 C 0.38659 0.1092 0.90675 0.0
C876 C 0.41417 0.09523 0.91698 0.0
C877 C 0.4213 0.09756 0.93967 0.0
C878 C 0.33538 0.13969 0.90955 0.0
C879 C 0.43735 0.07853 0.90381 0.0
H880 H 0.32612 0.08898 0.84096 0.0
H881 H 0.41598 0.13817 0.8373 0.0
H882 H 0.34849 0.06866 0.89496 0.0
H883 H 0.31104 0.08912 0.89557 0.0
H884 H 0.3129 0.06874 0.87353 0.0
H885 H 0.45145 0.14933 0.86795 0.0
H886 H 0.42144 0.15107 0.89194 0.0
H887 H 0.45551 0.12871 0.88974 0.0
H888 H 0.35617 0.13813 0.9522 0.0
H889 H 0.44361 0.08757 0.94726 0.0
H890 H 0.3149 0.12969 0.89962 0.0
H891 H 0.34957 0.15181 0.89823 0.0
H892 H 0.31933 0.14949 0.92208 0.0
H893 H 0.4186 0.06823 0.89304 0.0
H894 H 0.45404 0.06695 0.91453 0.0
H895 H 0.45738 0.08783 0.89297 0.0
C896 C 0.42443 0.65383 0.84942 0.0
C897 C 0.40394 0.63817 0.83669 0.0
C898 C 0.41744 0.65621 0.87209 0.0
C899 C 0.38967 0.64238 0.88229 0.0
C900 C 0.36756 0.6274 0.86931 0.0
C901 C 0.37477 0.6256 0.84666 0.0
C902 C 0.44104 0.67272 0.88527 0.0
C903 C 0.33776 0.61227 0.87955 0.0
C904 C 0.40078 0.62418 0.94187 0.0
C905 C 0.37177 0.63652 0.95222 0.0
C906 C 0.40786 0.62661 0.91925 0.0
C907 C 0.38578 0.642 0.90671 0.0
C908 C 0.35812 0.65556 0.91731 0.0
C909 C 0.35126 0.65256 0.93992 0.0
C910 C 0.43754 0.61174 0.90857 0.0
C911 C 0.33455 0.67248 0.9046 0.0
H912 H 0.44683 0.66374 0.84184 0.0
H913 H 0.35874 0.61347 0.83698 0.0
H914 H 0.42261 0.68307 0.89616 0.0
H915 H 0.46103 0.66323 0.896 0.0
H916 H 0.4578 0.68426 0.87456 0.0
H917 H 0.32139 0.60263 0.86702 0.0
H918 H 0.35162 0.60001 0.89086 0.0
H919 H 0.31759 0.62247 0.88948 0.0
H920 H 0.41681 0.61176 0.9512 0.0
H921 H 0.32898 0.66229 0.94781 0.0
H922 H 0.4578 0.62221 0.89896 0.0
H923 H 0.42358 0.59989 0.8969 0.0
H924 H 0.45382 0.60164 0.92081 0.0
H925 H 0.35301 0.68316 0.89402 0.0
H926 H 0.3178 0.68368 0.91563 0.0
H927 H 0.31455 0.66334 0.8936 0.0
C928 C 0.98411 0.19703 0.25171 0.0
C929 C 0.94959 0.19862 0.2632 0.0
C930 C 1.0097 0.21524 0.25096 0.0
C931 C 1.00092 0.23555 0.26222 0.0
C932 C 0.96616 0.23731 0.27392 0.0
C933 C 0.94072 0.21886 0.27413 0.0
C934 C 0.04609 0.21276 0.23797 0.0
C935 C 0.95599 0.25863 0.28631 0.0
C936 C 0.08398 0.27487 0.27518 0.0
C937 C 0.08038 0.29132 0.25862 0.0
C938 C 0.05794 0.25684 0.2768 0.0
C939 C 0.02794 0.25503 0.2613 0.0
C940 C 0.02453 0.27142 0.24438 0.0
C941 C 0.05061 0.28941 0.24334 0.0
C942 C 0.06235 0.2398 0.29518 0.0
C943 C 0.99342 0.26991 0.22729 0.0
H944 H 0.99112 0.18151 0.24308 0.0
H945 H 0.91421 0.22016 0.28313 0.0
H946 H 0.04753 0.22602 0.22503 0.0
H947 H 0.07097 0.21523 0.24894 0.0
H948 H 0.04854 0.19589 0.22999 0.0
H949 H 0.92831 0.25715 0.29499 0.0
H950 H 0.97843 0.26255 0.29858 0.0
H951 H 0.95452 0.27318 0.27477 0.0
H952 H 0.10668 0.27636 0.28718 0.0
H953 H 0.04766 0.30202 0.23046 0.0
H954 H 0.067 0.22264 0.28822 0.0
H955 H 0.03589 0.23908 0.3051 0.0
H956 H 0.08651 0.24394 0.30627 0.0
H957 H 0.99565 0.25362 0.21824 0.0
H958 H 0.99467 0.28403 0.2152 0.0
H959 H 0.96519 0.27017 0.23541 0.0
C960 C 0.22069 0.95576 0.2426 0.0
C961 C 0.19118 0.95356 0.25799 0.0
C962 C 0.24707 0.97357 0.24397 0.0
C963 C 0.24428 0.98946 0.26134 0.0
C964 C 0.21455 0.98736 0.27696 0.0
C965 C 0.18816 0.96952 0.27501 0.0
C966 C 0.27786 0.97542 0.22673 0.0
C967 C 0.21081 0.00385 0.29583 0.0
C968 C 0.33283 0.02446 0.27423 0.0
C969 C 0.32433 0.04503 0.26375 0.0
C970 C 0.30676 0.00632 0.27395 0.0
C971 C 0.27171 0.00873 0.26262 0.0
C972 C 0.2632 0.02941 0.2519 0.0
C973 C 0.28943 0.0473 0.25273 0.0
C974 C 0.31668 0.9846 0.28577 0.0
C975 C 0.22651 0.03258 0.23932 0.0
H976 H 0.22317 0.94354 0.22936 0.0
H977 H 0.16567 0.9678 0.28708 0.0
H978 H 0.27574 0.99199 0.21817 0.0
H979 H 0.30625 0.97471 0.23466 0.0
H980 H 0.27609 0.96169 0.21426 0.0
H981 H 0.18678 -0.00047 0.30692 0.0
H982 H 0.23747 0.00409 0.30561 0.0
H983 H 0.20637 0.02125 0.28937 0.0
H984 H 0.35964 0.02262 0.28286 0.0
H985 H 0.28266 0.06309 0.24446 0.0
H986 H 0.31784 0.97038 0.27384 0.0
H987 H 0.29427 0.98044 0.29798 0.0
H988 H 0.34445 0.98568 0.29443 0.0
H989 H 0.2245 0.01982 0.22596 0.0
H990 H 0.22415 0.04975 0.23192 0.0
H991 H 0.20187 0.02987 0.2504 0.0
C992 C 0.04789 0.95494 0.03915 0.0
C993 C 0.07962 0.95412 0.02518 0.0
C994 C 0.02182 0.97291 0.03808 0.0
C995 C 0.02722 0.99039 0.02241 0.0
C996 C 0.05918 0.98968 1.00823 0.0
C997 C 0.0852 0.97164 1.0099 0.0
C998 C 0.98859 0.97325 0.05382 0.0
C999 C 0.06572 0.00789 0.99117 0.0
C1000 C 0.94143 0.0271 1.00795 0.0
C1001 C 0.94871 0.04667 0.02034 0.0
C1002 C 0.96698 0.00871 1.00822 0.0
C1003 C 1.00013 0.00982 0.02148 0.0
C1004 C 1.00721 0.02941 0.03426 0.0
C1005 C 0.98162 0.04761 0.0334 0.0
C1006 C 0.95869 0.98819 0.99418 0.0
C1007 C 0.04177 0.03113 0.04896 0.0
H1008 H 0.04344 0.9415 0.05106 0.0
H1009 H 0.10945 0.97101 0.99892 0.0
H1010 H 0.98944 0.98893 0.06389 0.0
H1011 H 0.96148 0.97343 0.04448 0.0
H1012 H 0.9885 0.95839 0.06506 0.0
H1013 H 0.09127 0.00451 0.98094 0.0
H1014 H 0.04059 0.00921 0.98019 0.0
H1015 H 0.06927 0.02456 0.99935 0.0
H1016 H 0.91618 0.02632 0.99774 0.0
H1017 H 0.98734 0.06261 0.04316 0.0
H1018 H 0.95604 0.97292 1.00473 0.0
H1019 H 0.98265 0.98515 0.98268 0.0
H1020 H 0.93213 0.99014 0.98446 0.0
H1021 H 0.04178 0.01703 0.06106 0.0
H1022 H 0.04288 0.04744 0.05808 0.0
H1023 H 0.06803 0.02951 0.03899 0.0
C1024 C 0.29375 0.20028 0.03373 0.0
C1025 C 0.32653 0.20103 0.02059 0.0
C1026 C 0.26795 0.21839 0.03418 0.0
C1027 C 0.27467 0.23768 0.02089 0.0
C1028 C 0.30765 0.23855 1.00748 0.0
C1029 C 0.33343 0.22028 1.00765 0.0
C1030 C 0.23362 0.21694 0.04905 0.0
C1031 C 0.31554 0.25872 0.99289 0.0
C1032 C 0.18911 0.27551 1.00923 0.0
C1033 C 0.19502 0.29331 0.02414 0.0
C1034 C 0.21523 0.25751 1.00764 0.0
C1035 C 0.24759 0.25712 0.02157 0.0
C1036 C 0.25335 0.27491 0.03684 0.0
C1037 C 0.22721 0.29284 0.0378 0.0
C1038 C 0.20833 0.23898 0.99098 0.0
C1039 C 0.28699 0.27491 0.05232 0.0
H1040 H 0.28832 0.18552 0.0439 0.0
H1041 H 0.35857 0.22089 0.99735 0.0
H1042 H 0.2338 0.23127 0.06088 0.0
H1043 H 0.20719 0.21836 0.03918 0.0
H1044 H 0.23267 0.20081 0.05849 0.0
H1045 H 0.34183 0.25653 0.98298 0.0
H1046 H 0.29126 0.26151 0.98152 0.0
H1047 H 0.31852 0.27424 1.00305 0.0
H1048 H 0.16448 0.27589 0.99849 0.0
H1049 H 0.2319 0.30649 0.04943 0.0
H1050 H 0.20486 0.22248 0.99951 0.0
H1051 H 0.23327 0.2374 0.97991 0.0
H1052 H 0.18261 0.24219 0.98082 0.0
H1053 H 0.28636 0.25947 0.06276 0.0
H1054 H 0.28739 0.29003 0.06322 0.0
H1055 H 0.31387 0.27449 0.04279 0.0
C1056 C 0.98426 0.70162 0.74616 0.0
C1057 C 0.95146 0.70254 0.75928 0.0
C1058 C 1.01001 0.71976 0.74543 0.0
C1059 C 1.00321 0.73923 0.75841 0.0
C1060 C 0.97021 0.74029 0.77178 0.0
C1061 C 0.94449 0.72198 0.7719 0.0
C1062 C 0.04438 0.71811 0.73062 0.0
C1063 C 0.96224 0.76067 0.78605 0.0
C1064 C 0.0885 0.77727 0.76999 0.0
C1065 C 0.08269 0.79494 0.75492 0.0
C1066 C 0.0625 0.75921 0.77161 0.0
C1067 C 0.03033 0.75864 0.75754 0.0
C1068 C 0.02472 0.77628 0.74206 0.0
C1069 C 0.05076 0.79427 0.74107 0.0
C1070 C 0.06925 0.74084 0.78848 0.0
C1071 C 0.99127 0.77608 0.72644 0.0
H1072 H 0.98974 0.68671 0.73623 0.0
H1073 H 0.91932 0.72273 0.78216 0.0
H1074 H 0.04428 0.73229 0.7186 0.0
H1075 H 0.07078 0.71965 0.74051 0.0
H1076 H 0.04534 0.70186 0.72139 0.0
H1077 H 0.93587 0.75864 0.79591 0.0
H1078 H 0.98643 0.76362 0.79743 0.0
H1079 H 0.95938 0.77604 0.77564 0.0
H1080 H 0.11291 0.7778 0.78089 0.0
H1081 H 0.04615 0.80784 0.72931 0.0
H1082 H 0.07261 0.72424 0.78014 0.0
H1083 H 0.04428 0.73945 0.79955 0.0
H1084 H 0.09497 0.7441 0.79862 0.0
H1085 H 0.99192 0.76048 0.71626 0.0
H1086 H 0.99108 0.79103 0.7153 0.0
H1087 H 0.96428 0.77586 0.73588 0.0
C1088 C 0.72732 0.96011 0.74161 0.0
C1089 C 0.69723 0.95761 0.75657 0.0
C1090 C 0.75303 0.97823 0.74331 0.0
C1091 C 0.74899 0.9941 0.76063 0.0
C1092 C 0.71862 0.9917 0.77579 0.0
C1093 C 0.69288 0.97359 0.77346 0.0
C1094 C 0.78449 0.98041 0.72653 0.0
C1095 C 0.71359 0.00814 0.7946 0.0
C1096 C 0.83613 0.02963 0.7751 0.0
C1097 C 0.82766 0.05022 0.76465 0.0
C1098 C 0.81049 0.01131 0.77428 0.0
C1099 C 0.77594 0.01354 0.76241 0.0
C1100 C 0.76749 0.03424 0.7517 0.0
C1101 C 0.79326 0.05233 0.75309 0.0
C1102 C 0.82029 0.98959 0.78614 0.0
C1103 C 0.73138 0.03721 0.73853 0.0
H1104 H 0.73078 0.94787 0.72845 0.0
H1105 H 0.66991 0.97164 0.7852 0.0
H1106 H 0.78246 0.99705 0.71806 0.0
H1107 H 0.81255 0.97981 0.73485 0.0
H1108 H 0.78347 0.96678 0.71392 0.0
H1109 H 0.68908 0.00364 0.80527 0.0
H1110 H 0.73972 0.00852 0.80484 0.0
H1111 H 0.70917 0.02552 0.7881 0.0
H1112 H 0.86256 0.02793 0.78414 0.0
H1113 H 0.78657 0.06812 0.74483 0.0
H1114 H 0.8223 0.97545 0.77416 0.0
H1115 H 0.7974 0.9852 0.79797 0.0
H1116 H 0.84762 0.99081 0.79523 0.0
H1117 H 0.73026 0.02448 0.7251 0.0
H1118 H 0.72906 0.05439 0.73115 0.0
H1119 H 0.70626 0.03429 0.74919 0.0
C1120 C 0.72383 0.78858 0.04079 0.0
C1121 C 0.69242 0.7897 0.02657 0.0
C1122 C 0.74946 0.77038 0.03992 0.0
C1123 C 0.74392 0.75296 0.02423 0.0
C1124 C 0.71213 0.75389 1.00989 0.0
C1125 C 0.68657 0.77217 1.01134 0.0
C1126 C 0.78256 0.76983 0.05577 0.0
C1127 C 0.70544 0.73573 0.99282 0.0
C1128 C 0.82994 0.71681 1.00931 0.0
C1129 C 0.82317 0.69709 0.0216 0.0
C1130 C 0.80415 0.73504 1.00977 0.0
C1131 C 0.77115 0.73362 0.0231 0.0
C1132 C 0.76448 0.71386 0.03573 0.0
C1133 C 0.79039 0.69581 0.03471 0.0
C1134 C 0.81206 0.75575 0.99591 0.0
C1135 C 0.73003 0.71181 0.05044 0.0
H1136 H 0.72846 0.80201 0.05267 0.0
H1137 H 0.66254 0.77302 1.00019 0.0
H1138 H 0.78181 0.75397 0.06558 0.0
H1139 H 0.80974 0.76992 0.04651 0.0
H1140 H 0.78245 0.78449 0.06725 0.0
H1141 H 0.67962 0.73904 0.98277 0.0
H1142 H 0.73034 0.73462 0.98167 0.0
H1143 H 0.70233 0.71899 1.00094 0.0
H1144 H 0.85507 0.71785 0.99903 0.0
H1145 H 0.78502 0.68068 0.04436 0.0
H1146 H 0.81472 0.7709 1.00661 0.0
H1147 H 0.78794 0.75886 0.98451 0.0
H1148 H 0.83853 0.75402 0.98608 0.0
H1149 H 0.72998 0.72572 0.06272 0.0
H1150 H 0.72911 0.69536 0.05934 0.0
H1151 H 0.70369 0.71351 0.04052 0.0
C1152 C 0.33838 0.53073 0.77785 0.0
C1153 C 0.33296 0.54954 0.76408 0.0
C1154 C 0.31252 0.5125 0.7777 0.0
C1155 C 0.28093 0.51295 0.76318 0.0
C1156 C 0.27582 0.53172 0.74897 0.0
C1157 C 0.30168 0.54981 0.74972 0.0
C1158 C 0.31871 0.49287 0.79325 0.0
C1159 C 0.24302 0.5327 0.73292 0.0
C1160 C 0.2339 0.45731 0.74722 0.0
C1161 C 0.20065 0.45758 0.75999 0.0
C1162 C 0.26022 0.47517 0.74814 0.0
C1163 C 0.2535 0.49367 0.76244 0.0
C1164 C 0.22002 0.49405 0.77543 0.0
C1165 C 0.19381 0.47608 0.77391 0.0
C1166 C 0.29511 0.47429 0.73369 0.0
C1167 C 0.21204 0.51338 0.79103 0.0
H1168 H 0.36234 0.53049 0.78909 0.0
H1169 H 0.2974 0.56422 0.73891 0.0
H1170 H 0.29351 0.49079 0.80405 0.0
H1171 H 0.32198 0.47691 0.78379 0.0
H1172 H 0.34427 0.49523 0.80376 0.0
H1173 H 0.24341 0.54836 0.72275 0.0
H1174 H 0.24392 0.51781 0.72178 0.0
H1175 H 0.21566 0.53197 0.74196 0.0
H1176 H 0.23933 0.44311 0.73635 0.0
H1177 H 0.16834 0.47631 0.78395 0.0
H1178 H 0.32115 0.47495 0.74397 0.0
H1179 H 0.29571 0.48927 0.72263 0.0
H1180 H 0.2961 0.45871 0.72343 0.0
H1181 H 0.23595 0.51529 0.80281 0.0
H1182 H 0.18535 0.51082 0.80048 0.0
H1183 H 0.20977 0.5295 0.7817 0.0
C1184 C 0.94895 0.52613 0.51054 0.0
C1185 C 0.95834 0.54727 0.51959 0.0
C1186 C 0.97481 0.50793 0.51134 0.0
C1187 C 1.01059 0.51087 0.52174 0.0
C1188 C 0.01997 0.5321 0.53109 0.0
C1189 C 0.99389 0.55004 0.52977 0.0
C1190 C 0.96395 0.4856 0.50098 0.0
C1191 C 0.05749 0.53586 0.54266 0.0
C1192 C 0.06253 0.45866 0.54284 0.0
C1193 C 0.09052 0.45547 0.52668 0.0
C1194 C 0.03647 0.47662 0.54145 0.0
C1195 C 0.03804 0.49166 0.5233 0.0
C1196 C 0.06638 0.48863 0.50697 0.0
C1197 C 0.09246 0.47066 0.50894 0.0
C1198 C 1.00718 0.47948 0.55941 0.0
C1199 C 0.06881 0.50421 0.48729 0.0
H1200 H 0.92163 0.52392 0.50255 0.0
H1201 H 1.00133 0.56627 0.53694 0.0
H1202 H 0.98531 0.48078 0.48839 0.0
H1203 H 0.96383 0.47205 0.51366 0.0
H1204 H 0.93548 0.48621 0.49308 0.0
H1205 H 0.06034 0.55337 0.54918 0.0
H1206 H 0.06044 0.52375 0.55654 0.0
H1207 H 0.08133 0.53259 0.53115 0.0
H1208 H 0.06089 0.44703 0.55663 0.0
H1209 H 0.11377 0.46817 0.49628 0.0
H1210 H 0.97816 0.47831 0.55233 0.0
H1211 H 1.00993 0.49652 0.56697 0.0
H1212 H 1.01004 0.46649 0.57256 0.0
H1213 H 0.04152 0.50393 0.47811 0.0
H1214 H 0.0921 0.49937 0.47588 0.0
H1215 H 0.07357 0.5219 0.49282 0.0
C1216 C 0.30306 0.7035 0.54212 0.0
C1217 C 0.33592 0.70475 0.52907 0.0
C1218 C 0.27588 0.72092 0.54198 0.0
C1219 C 0.28134 0.74002 0.52823 0.0
C1220 C 0.31456 0.74147 0.51507 0.0
C1221 C 0.34161 0.72388 0.51577 0.0
C1222 C 0.24125 0.71885 0.55654 0.0
C1223 C 0.32127 0.76148 0.50007 0.0
C1224 C 0.19388 0.77518 0.51356 0.0
C1225 C 0.19773 0.79375 0.52779 0.0
C1226 C 0.22106 0.75766 0.51336 0.0
C1227 C 0.25251 0.75859 0.52795 0.0
C1228 C 0.25607 0.77709 0.54264 0.0
C1229 C 0.22883 0.79447 0.54228 0.0
C1230 C 0.2164 0.7383 0.49734 0.0
C1231 C 0.28875 0.77856 0.55872 0.0
H1232 H 0.29849 0.68883 0.55255 0.0
H1233 H 0.36678 0.72489 0.50553 0.0
H1234 H 0.23965 0.73357 0.56786 0.0
H1235 H 0.21509 0.71903 0.54634 0.0
H1236 H 0.24149 0.70306 0.56651 0.0
H1237 H 0.34826 0.75996 0.4907 0.0
H1238 H 0.2974 0.76308 0.48821 0.0
H1239 H 0.32213 0.77736 0.50984 0.0
H1240 H 0.17013 0.7746 0.50219 0.0
H1241 H 0.23196 0.80872 0.5534 0.0
H1242 H 0.21439 0.72202 0.50642 0.0
H1243 H 0.24171 0.73722 0.4865 0.0
H1244 H 0.19066 0.74021 0.48688 0.0
H1245 H 0.28901 0.76337 0.56951 0.0
H1246 H 0.28714 0.79392 0.56926 0.0
H1247 H 0.31613 0.77883 0.54968 0.0
C1248 C 0.8279 0.52969 0.27137 0.0
C1249 C 0.82042 0.54926 0.25898 0.0
C1250 C 0.80237 0.51131 0.27132 0.0
C1251 C 0.76892 0.51241 0.25831 0.0
C1252 C 0.76154 0.53201 0.24558 0.0
C1253 C 0.7872 0.55021 0.24618 0.0
C1254 C 0.81105 0.49076 0.28527 0.0
C1255 C 0.7266 0.53373 0.2312 0.0
C1256 C 0.72159 0.45722 0.24118 0.0
C1257 C 0.69045 0.4561 0.25558 0.0
C1258 C 0.74722 0.47544 0.24188 0.0
C1259 C 0.74196 0.49289 0.25756 0.0
C1260 C 0.71052 0.49193 0.27212 0.0
C1261 C 0.68494 0.47362 0.27084 0.0
C1262 C 0.77994 0.47602 0.22579 0.0
C1263 C 0.70413 0.51012 0.28919 0.0
H1264 H 0.85339 0.52889 0.28138 0.0
H1265 H 0.78127 0.56521 0.23645 0.0
H1266 H 0.78732 0.4876 0.2969 0.0
H1267 H 0.81364 0.47554 0.27466 0.0
H1268 H 0.83777 0.49275 0.29484 0.0
H1269 H 0.72511 0.55011 0.22219 0.0
H1270 H 0.7264 0.51973 0.21901 0.0
H1271 H 0.7006 0.53194 0.24138 0.0
H1272 H 0.72598 0.4438 0.22927 0.0
H1273 H 0.66113 0.47277 0.28213 0.0
H1274 H 0.80734 0.47622 0.23485 0.0
H1275 H 0.77866 0.49177 0.21582 0.0
H1276 H 0.77982 0.46124 0.21447 0.0
H1277 H 0.72941 0.51146 0.30005 0.0
H1278 H 0.67875 0.50668 0.29955 0.0
H1279 H 0.70041 0.5268 0.28103 0.0
C1280 C 0.69264 0.27035 0.51256 0.0
C1281 C 0.69893 0.28873 0.52674 0.0
C1282 C 0.71852 0.25219 0.51156 0.0
C1283 C 0.75113 0.25226 0.5253 0.0
C1284 C 0.75724 0.27061 0.53988 0.0
C1285 C 0.73125 0.28865 0.54032 0.0
C1286 C 0.71116 0.23301 0.49567 0.0
C1287 C 0.79124 0.27117 0.55509 0.0
C1288 C 0.79787 0.19573 0.53822 0.0
C1289 C 0.82978 0.196 0.52435 0.0
C1290 C 0.77228 0.21396 0.53877 0.0
C1291 C 0.77836 0.23288 0.52489 0.0
C1292 C 0.81062 0.23336 0.51091 0.0
C1293 C 0.83614 0.21497 0.51092 0.0
C1294 C 0.73867 0.21293 0.55421 0.0
C1295 C 0.8179 0.25317 0.49574 0.0
H1296 H 0.66791 0.27038 0.5019 0.0
H1297 H 0.73626 0.30274 0.55139 0.0
H1298 H 0.73563 0.23116 0.48429 0.0
H1299 H 0.70833 0.21682 0.50481 0.0
H1300 H 0.68497 0.23572 0.48578 0.0
H1301 H 0.79176 0.2866 0.56555 0.0
H1302 H 0.79105 0.25604 0.56595 0.0
H1303 H 0.81788 0.27056 0.54534 0.0
H1304 H 0.79284 0.1812 0.54876 0.0
H1305 H 0.86059 0.21523 0.50007 0.0
H1306 H 0.7118 0.21387 0.54469 0.0
H1307 H 0.73916 0.22769 0.56552 0.0
H1308 H 0.73836 0.19716 0.56422 0.0
H1309 H 0.79336 0.25547 0.48447 0.0
H1310 H 0.84402 0.25086 0.48572 0.0
H1311 H 0.82078 0.26899 0.50546 0.0
C1312 C 0.49729 0.19185 0.76928 0.0
C1313 C 0.45876 0.19635 0.77345 0.0
C1314 C 0.52382 0.20946 0.76702 0.0
C1315 C 0.5118 0.23221 0.76942 0.0
C1316 C 0.47306 0.23689 0.77403 0.0
C1317 C 0.44689 0.2189 0.77575 0.0
C1318 C 0.56461 0.20372 0.76162 0.0
C1319 C 0.45926 0.26091 0.77706 0.0
C1320 C 0.58821 0.27653 0.78095 0.0
C1321 C 0.5924 0.28671 0.76022 0.0
C1322 C 0.56176 0.25895 0.78427 0.0
C1323 C 0.53962 0.25105 0.76633 0.0
C1324 C 0.54454 0.26089 0.74525 0.0
C1325 C 0.57055 0.27873 0.74252 0.0
C1326 C 0.55698 0.24913 0.80706 0.0
C1327 C 0.5222 0.25264 0.72558 0.0
H1328 H 0.5067 0.17448 0.76729 0.0
H1329 H 0.41721 0.22248 0.77907 0.0
H1330 H 0.57271 0.21166 0.74573 0.0
H1331 H 0.58386 0.21066 0.77442 0.0
H1332 H 0.56942 0.18515 0.76039 0.0
H1333 H 0.42873 0.26166 0.78167 0.0
H1334 H 0.4762 0.26948 0.79004 0.0
H1335 H 0.46336 0.27063 0.7616 0.0
H1336 H 0.60467 0.28282 0.79475 0.0
H1337 H 0.57372 0.28651 0.72644 0.0
H1338 H 0.56311 0.23069 0.80683 0.0
H1339 H 0.52708 0.25119 0.81253 0.0
H1340 H 0.57595 0.25734 0.81932 0.0
H1341 H 0.52702 0.23422 0.72316 0.0
H1342 H 0.53012 0.26168 0.71019 0.0
H1343 H 0.49134 0.25506 0.72849 0.0
C1344 C 0.44387 0.02755 0.51152 0.0
C1345 C 0.45233 0.04816 0.52191 0.0
C1346 C 0.47009 0.00951 0.51173 0.0
C1347 C 0.50524 0.01203 0.52293 0.0
C1348 C 0.51358 0.0327 0.53371 0.0
C1349 C 0.48722 0.05052 0.53291 0.0
C1350 C 0.46034 0.98782 0.49983 0.0
C1351 C 0.55032 0.03596 0.54622 0.0
C1352 C 0.55716 0.95885 0.54165 0.0
C1353 C 0.58611 0.95693 0.52587 0.0
C1354 C 0.53082 0.97671 0.54092 0.0
C1355 C 0.53308 0.99296 0.52381 0.0
C1356 C 0.56238 0.99122 0.50789 0.0
C1357 C 0.58875 0.97332 0.5092 0.0
C1358 C 0.50051 0.97816 0.55847 0.0
C1359 C 0.56555 0.0081 0.48929 0.0
H1360 H 0.41707 0.02567 0.50288 0.0
H1361 H 0.49388 0.06634 0.54113 0.0
H1362 H 0.48246 0.98401 0.48735 0.0
H1363 H 0.45992 0.97346 0.51163 0.0
H1364 H 0.43228 0.98872 0.49147 0.0
H1365 H 0.55232 0.053 0.55391 0.0
H1366 H 0.55283 0.02295 0.55934 0.0
H1367 H 0.57489 0.03371 0.53499 0.0
H1368 H 0.55499 0.94629 0.55463 0.0
H1369 H 0.6108 0.97183 0.49683 0.0
H1370 H 0.47192 0.97721 0.5508 0.0
H1371 H 0.50239 0.9947 0.56709 0.0
H1372 H 0.503 0.96437 0.57086 0.0
H1373 H 0.5388 0.00825 0.47959 0.0
H1374 H 0.58958 0.00421 0.47805 0.0
H1375 H 0.56959 0.02542 0.496 0.0
C1376 C 0.57981 0.77633 0.27579 0.0
C1377 C 0.5808 0.79016 0.25701 0.0
C1378 C 0.5528 0.75883 0.2778 0.0
C1379 C 0.52659 0.75486 0.26048 0.0
C1380 C 0.52804 0.76849 0.24131 0.0
C1381 C 0.55489 0.78605 0.23989 0.0
C1382 C 0.55196 0.74479 0.29858 0.0
C1383 C 0.50117 0.76457 0.22228 0.0
C1384 C 0.4809 0.69669 0.25546 0.0
C1385 C 0.44409 0.70056 0.26358 0.0
C1386 C 0.50797 0.71414 0.25451 0.0
C1387 C 0.49826 0.73607 0.26205 0.0
C1388 C 0.46124 0.74011 0.27043 0.0
C1389 C 0.4345 0.72233 0.27098 0.0
C1390 C 0.54689 0.70914 0.2452 0.0
C1391 C 0.44991 0.76323 0.27878 0.0
H1392 H 0.59947 0.77956 0.28918 0.0
H1393 H 0.55554 0.79662 0.22529 0.0
H1394 H 0.52356 0.74607 0.30643 0.0
H1395 H 0.5567 0.72666 0.29457 0.0
H1396 H 0.57386 0.75023 0.31066 0.0
H1397 H 0.50626 0.77651 0.20844 0.0
H1398 H 0.50433 0.74698 0.21607 0.0
H1399 H 0.47134 0.76652 0.22787 0.0
H1400 H 0.48864 0.67996 0.24962 0.0
H1401 H 0.40622 0.72545 0.27737 0.0
H1402 H 0.56911 0.71313 0.25757 0.0
H1403 H 0.55225 0.72005 0.23064 0.0
H1404 H 0.55005 0.69113 0.24018 0.0
H1405 H 0.4698 0.76877 0.29191 0.0
H1406 H 0.42051 0.76345 0.28544 0.0
H1407 H 0.45185 0.77583 0.26525 0.0
C1408 C 0.58371 0.47347 1.00998 0.0
C1409 C 0.57839 0.45557 0.02486 0.0
C1410 C 0.55784 0.49165 1.00904 0.0
C1411 C 0.52626 0.49207 0.02354 0.0
C1412 C 0.52124 0.47424 0.03886 0.0
C1413 C 0.54719 0.45618 0.03924 0.0
C1414 C 0.56401 0.51028 0.99237 0.0
C1415 C 0.4884 0.47421 0.05488 0.0
C1416 C 0.4795 0.54868 0.03601 0.0
C1417 C 0.44641 0.54775 0.0231 0.0
C1418 C 0.50563 0.53072 0.03628 0.0
C1419 C 0.49886 0.51137 0.0231 0.0
C1420 C 0.46552 0.51028 1.01 0.0
C1421 C 0.43952 0.52842 1.01027 0.0
C1422 C 0.54043 0.53242 0.05079 0.0
C1423 C 0.45746 0.48999 0.99559 0.0
H1424 H 0.60757 0.47301 0.9987 0.0
H1425 H 0.54295 0.44246 0.05086 0.0
H1426 H 0.53884 0.51163 0.98142 0.0
H1427 H 0.56718 0.52681 1.00088 0.0
H1428 H 0.58962 0.50732 0.98208 0.0
H1429 H 0.48878 0.4592 0.06593 0.0
H1430 H 0.48923 0.48976 0.06514 0.0
H1431 H 0.46107 0.47436 0.04575 0.0
H1432 H 0.48499 0.5635 0.04607 0.0
H1433 H 0.41415 0.52764 1.00016 0.0
H1434 H 0.56653 0.53109 0.04064 0.0
H1435 H 0.54088 0.51815 0.06269 0.0
H1436 H 0.54145 0.5486 0.06013 0.0
H1437 H 0.48134 0.48733 0.98395 0.0
H1438 H 0.43076 0.49195 0.986 0.0
H1439 H 0.45519 0.4745 1.00587 0.0
C1440 C 0.14236 0.36815 0.4411 0.0
C1441 C 0.11984 0.38535 0.45026 0.0
C1442 C 0.1398 0.36273 0.41864 0.0
C1443 C 0.11398 0.37471 0.40503 0.0
C1444 C 0.09006 0.39143 0.41434 0.0
C1445 C 0.09331 0.39656 0.43684 0.0
C1446 C 0.16574 0.34474 0.40932 0.0
C1447 C 0.06195 0.40443 0.40041 0.0
C1448 C 0.13911 0.37709 0.34423 0.0
C1449 C 0.11676 0.35949 0.33563 0.0
C1450 C 0.13771 0.38262 0.3667 0.0
C1451 C 0.11323 0.37035 0.38089 0.0
C1452 C 0.08938 0.35327 0.37213 0.0
C1453 C 0.09147 0.34802 0.34962 0.0
C1454 C 0.16353 0.40101 0.37541 0.0
C1455 C 0.06267 0.33995 0.38668 0.0
H1456 H 0.16296 0.35941 0.45132 0.0
H1457 H 0.07569 0.40983 0.44377 0.0
H1458 H 0.14885 0.33168 0.40054 0.0
H1459 H 0.18533 0.35249 0.39714 0.0
H1460 H 0.18298 0.33628 0.42227 0.0
H1461 H 0.04362 0.41576 0.41042 0.0
H1462 H 0.07745 0.41489 0.38816 0.0
H1463 H 0.04353 0.39254 0.3911 0.0
H1464 H 0.15876 0.38603 0.33357 0.0
H1465 H 0.07396 0.33446 0.34312 0.0
H1466 H 0.18431 0.39357 0.38712 0.0
H1467 H 0.14675 0.41381 0.3846 0.0
H1468 H 0.17943 0.40973 0.36207 0.0
H1469 H 0.07933 0.32969 0.39858 0.0
H1470 H 0.04405 0.32838 0.37708 0.0
H1471 H 0.04451 0.35162 0.39639 0.0
C1472 C 0.12727 0.86693 0.34119 0.0
C1473 C 0.15384 0.88185 0.33187 0.0
C1474 C 0.12883 0.86127 0.36362 0.0
C1475 C 0.15784 0.87059 0.37704 0.0
C1476 C 0.18564 0.88493 0.36755 0.0
C1477 C 0.18323 0.89044 0.3451 0.0
C1478 C 0.09864 0.84591 0.37313 0.0
C1479 C 0.21726 0.89497 0.38126 0.0
C1480 C 0.13582 0.87426 0.43819 0.0
C1481 C 0.1533 0.85455 0.44623 0.0
C1482 C 0.13794 0.88002 0.41578 0.0
C1483 C 0.15828 0.86583 0.40111 0.0
C1484 C 0.17739 0.84648 0.40931 0.0
C1485 C 0.17457 0.84104 0.43175 0.0
C1486 C 0.11713 0.90079 0.40764 0.0
C1487 C 0.19971 0.83108 0.39426 0.0
H1488 H 0.10439 0.86025 0.33113 0.0
H1489 H 0.20397 0.90193 0.33803 0.0
H1490 H 0.11204 0.83121 0.38148 0.0
H1491 H 0.08199 0.85524 0.38571 0.0
H1492 H 0.07874 0.83949 0.36036 0.0
H1493 H 0.23797 0.90464 0.37113 0.0
H1494 H 0.20512 0.90653 0.39382 0.0
H1495 H 0.23268 0.88137 0.39019 0.0
H1496 H 0.11925 0.88475 0.44925 0.0
H1497 H 0.18836 0.82585 0.43784 0.0
H1498 H 0.09418 0.89563 0.39614 0.0
H1499 H 0.13681 0.91197 0.39837 0.0
H1500 H 0.10429 0.91068 0.4213 0.0
H1501 H 0.18013 0.82274 0.38244 0.0
H1502 H 0.21532 0.81772 0.40347 0.0
H1503 H 0.22043 0.84106 0.38448 0.0
C1504 C 0.13352 0.87395 0.83964 0.0
C1505 C 0.15726 0.85578 0.834 0.0
C1506 C 0.12964 0.88082 0.86171 0.0
C1507 C 0.15056 0.8695 0.87836 0.0
C1508 C 0.17393 0.85087 0.87276 0.0
C1509 C 0.17674 0.84414 0.85072 0.0
C1510 C 0.10396 0.90052 0.86714 0.0
C1511 C 0.19729 0.83859 0.88993 0.0
C1512 C 0.18089 0.90156 0.92942 0.0
C1513 C 0.15751 0.89203 0.94568 0.0
C1514 C 0.17821 0.89475 0.9074 0.0
C1515 C 0.15098 0.87824 0.90134 0.0
C1516 C 0.12642 0.86901 0.91753 0.0
C1517 C 0.13025 0.87586 0.93961 0.0
C1518 C 0.20548 0.90467 0.89076 0.0
C1519 C 0.09663 0.85165 0.91157 0.0
H1520 H 0.11815 0.88288 0.82682 0.0
H1521 H 0.19521 0.83009 0.84653 0.0
H1522 H 0.08453 0.89595 0.88082 0.0
H1523 H 0.12131 0.91513 0.87275 0.0
H1524 H 0.08671 0.90597 0.85275 0.0
H1525 H 0.21265 0.82377 0.88302 0.0
H1526 H 0.21847 0.8504 0.89714 0.0
H1527 H 0.17881 0.83264 0.90354 0.0
H1528 H 0.20215 0.91402 0.93398 0.0
H1529 H 0.11191 0.86858 0.95209 0.0
H1530 H 0.18956 0.91226 0.87683 0.0
H1531 H 0.22369 0.89103 0.88391 0.0
H1532 H 0.22416 0.91789 0.89803 0.0
H1533 H 0.07912 0.85785 0.89761 0.0
H1534 H 0.07759 0.84766 0.92564 0.0
H1535 H 0.1106 0.83576 0.90614 0.0
C1536 C 0.09757 0.4074 0.85315 0.0
C1537 C 0.11765 0.39585 0.83666 0.0
C1538 C 0.09921 0.4004 0.87517 0.0
C1539 C 0.12193 0.38154 0.88097 0.0
C1540 C 0.14337 0.37025 0.86455 0.0
C1541 C 0.14075 0.37743 0.84251 0.0
C1542 C 0.07539 0.41268 0.89208 0.0
C1543 C 0.16832 0.35026 0.8702 0.0
C1544 C 0.14002 0.37414 0.94237 0.0
C1545 C 0.11221 0.35809 0.94791 0.0
C1546 C 0.14461 0.38135 0.92044 0.0
C1547 C 0.12037 0.37258 0.90385 0.0
C1548 C 0.09252 0.35624 0.90939 0.0
C1549 C 0.08899 0.3491 0.93128 0.0
C1550 C 0.17496 0.39857 0.91506 0.0
C1551 C 0.06562 0.34676 0.8923 0.0
H1552 H 0.07963 0.42165 0.84881 0.0
H1553 H 0.15657 0.36855 0.82986 0.0
H1554 H 0.05362 0.40098 0.89884 0.0
H1555 H 0.0934 0.41832 0.90604 0.0
H1556 H 0.06069 0.42771 0.88507 0.0
H1557 H 0.18595 0.34475 0.85601 0.0
H1558 H 0.18737 0.35455 0.88416 0.0
H1559 H 0.15038 0.33578 0.87551 0.0
H1560 H 0.15825 0.381 0.95513 0.0
H1561 H 0.06735 0.33673 0.93542 0.0
H1562 H 0.16154 0.41456 0.90941 0.0
H1563 H 0.19306 0.39231 0.90139 0.0
H1564 H 0.19337 0.40239 0.92946 0.0
H1565 H 0.04806 0.36064 0.88531 0.0
H1566 H 0.04631 0.33366 0.89919 0.0
H1567 H 0.08188 0.33915 0.87852 0.0
C1568 C 0.87751 0.64224 0.68516 0.0
C1569 C 0.89772 0.62646 0.69796 0.0
C1570 C 0.8794 0.64198 0.6621 0.0
C1571 C 0.9018 0.62541 0.6514 0.0
C1572 C 0.92253 0.6095 0.66416 0.0
C1573 C 0.92039 0.61028 0.6873 0.0
C1574 C 0.857 0.65933 0.64917 0.0
C1575 C 0.94646 0.59144 0.65333 0.0
C1576 C 0.87264 0.61071 0.5929 0.0
C1577 C 0.89942 0.62269 0.58027 0.0
C1578 C 0.87358 0.61117 0.61598 0.0
C1579 C 0.90177 0.6241 0.62687 0.0
C1580 C 0.92879 0.63636 0.6143 0.0
C1581 C 0.92739 0.63544 0.59114 0.0
C1582 C 0.84429 0.5978 0.62873 0.0
C1583 C 0.95902 0.65055 0.62532 0.0
H1584 H 0.86013 0.65496 0.69317 0.0
H1585 H 0.93616 0.59806 0.69702 0.0
H1586 H 0.87609 0.66868 0.63781 0.0
H1587 H 0.83526 0.65068 0.63893 0.0
H1588 H 0.84242 0.67176 0.65998 0.0
H1589 H 0.96188 0.58083 0.66553 0.0
H1590 H 0.92811 0.58027 0.64317 0.0
H1591 H 0.96751 0.59936 0.64211 0.0
H1592 H 0.851 0.60068 0.58475 0.0
H1593 H 0.94824 0.64471 0.58157 0.0
H1594 H 0.82686 0.60943 0.63892 0.0
H1595 H 0.85861 0.58582 0.64013 0.0
H1596 H 0.82499 0.58802 0.6178 0.0
H1597 H 0.94549 0.66387 0.63556 0.0
H1598 H 0.97824 0.65884 0.61325 0.0
H1599 H 0.97632 0.63983 0.63651 0.0
C1600 C 0.89479 0.08403 0.68344 0.0
C1601 C 0.90445 0.10176 0.6978 0.0
C1602 C 0.89506 0.08705 0.66052 0.0
C1603 C 0.90578 0.10827 0.6516 0.0
C1604 C 0.91413 0.12654 0.66601 0.0
C1605 C 0.9131 0.12311 0.68898 0.0
C1606 C 0.88535 0.0672 0.64585 0.0
C1607 C 0.92591 0.14939 0.65717 0.0
C1608 C 0.95098 0.1068 0.59468 0.0
C1609 C 0.92115 0.11416 0.58108 0.0
C1610 C 0.94641 0.10511 0.61761 0.0
C1611 C 0.91099 0.11069 0.62729 0.0
C1612 C 0.88055 0.11781 0.61365 0.0
C1613 C 0.88602 0.11955 0.59074 0.0
C1614 C 0.97968 0.0975 0.63151 0.0
C1615 C 0.84222 0.12363 0.62328 0.0
H1616 H 0.88768 0.06752 0.69014 0.0
H1617 H 0.92076 0.13684 0.69998 0.0
H1618 H 0.86379 0.07223 0.63344 0.0
H1619 H 0.9111 0.06171 0.63676 0.0
H1620 H 0.87426 0.0525 0.65532 0.0
H1621 H 0.92856 0.1623 0.67039 0.0
H1622 H 0.95373 0.14785 0.64869 0.0
H1623 H 0.90502 0.15548 0.64482 0.0
H1624 H 0.97832 0.10275 0.58748 0.0
H1625 H 0.86281 0.12533 0.58042 0.0
H1626 H 0.97227 0.08168 0.64042 0.0
H1627 H 0.98634 0.11055 0.64408 0.0
H1628 H 1.0056 0.09434 0.62153 0.0
H1629 H 0.83057 0.10877 0.63223 0.0
H1630 H 0.82144 0.12888 0.61047 0.0
H1631 H 0.84524 0.13757 0.6354 0.0
C1632 C 0.92059 0.10957 0.18877 0.0
C1633 C 0.89522 0.12387 0.19994 0.0
C1634 C 0.92184 0.10911 0.16558 0.0
C1635 C 0.89735 0.12339 0.15326 0.0
C1636 C 0.87191 0.13795 0.16445 0.0
C1637 C 0.87106 0.13795 0.18757 0.0
C1638 C 0.94914 0.0932 0.15426 0.0
C1639 C 0.84538 0.1535 0.152 0.0
C1640 C 0.91941 0.1367 0.09305 0.0
C1641 C 0.89429 0.12214 0.08198 0.0
C1642 C 0.92103 0.13716 0.11623 0.0
C1643 C 0.89717 0.1226 0.12866 0.0
C1644 C 0.87198 0.10778 0.11756 0.0
C1645 C 0.87074 0.10779 0.09445 0.0
C1646 C 0.94804 0.15335 0.12745 0.0
C1647 C 0.84613 0.09193 0.13012 0.0
H1648 H 0.9394 0.09866 0.19813 0.0
H1649 H 0.85144 0.14917 0.19595 0.0
H1650 H 0.93311 0.08104 0.14386 0.0
H1651 H 0.96827 0.10288 0.1432 0.0
H1652 H 0.96677 0.08347 0.16615 0.0
H1653 H 0.82815 0.16431 0.16315 0.0
H1654 H 0.86189 0.16464 0.14081 0.0
H1655 H 0.82578 0.14334 0.14162 0.0
H1656 H 0.93775 0.14782 0.08362 0.0
H1657 H 0.85133 0.09636 0.08614 0.0
H1658 H 0.96762 0.14387 0.13842 0.0
H1659 H 0.93182 0.16533 0.13793 0.0
H1660 H 0.96519 0.16327 0.11548 0.0
H1661 H 0.86315 0.08097 0.14123 0.0
H1662 H 0.82905 0.08093 0.11904 0.0
H1663 H 0.82639 0.10185 0.14059 0.0
C1664 C 0.93424 0.64762 0.09794 0.0
C1665 C 0.91141 0.63696 0.08206 0.0
C1666 C 0.93122 0.64215 0.12033 0.0
C1667 C 0.90431 0.62577 0.12718 0.0
C1668 C 0.88061 0.6152 0.11131 0.0
C1669 C 0.88464 0.62079 0.08888 0.0
C1670 C 0.95756 0.65353 0.1366 0.0
C1671 C 0.8513 0.59785 0.11803 0.0
C1672 C 0.92834 0.59553 0.18052 0.0
C1673 C 0.90716 0.60779 0.19607 0.0
C1674 C 0.92682 0.60085 0.15805 0.0
C1675 C 0.90315 0.61873 0.15076 0.0
C1676 C 0.88085 0.63082 0.16625 0.0
C1677 C 0.88333 0.62531 0.18879 0.0
C1678 C 0.95157 0.58777 0.14219 0.0
C1679 C 0.85494 0.64982 0.15906 0.0
H1680 H 0.9551 0.66009 0.09285 0.0
H1681 H 0.86669 0.61264 0.07672 0.0
H1682 H 0.94085 0.66195 0.14973 0.0
H1683 H 0.97583 0.64062 0.14466 0.0
H1684 H 0.97617 0.66637 0.12867 0.0
H1685 H 0.83336 0.59233 0.10396 0.0
H1686 H 0.86564 0.58274 0.12507 0.0
H1687 H 0.83262 0.6049 0.13106 0.0
H1688 H 0.9469 0.58197 0.18595 0.0
H1689 H 0.86666 0.63473 0.20067 0.0
H1690 H 0.97259 0.59936 0.13452 0.0
H1691 H 0.93404 0.58055 0.12873 0.0
H1692 H 0.96721 0.57373 0.15038 0.0
H1693 H 0.87213 0.66405 0.15247 0.0
H1694 H 0.83716 0.65628 0.1728 0.0
H1695 H 0.836 0.64396 0.14559 0.0
C1696 C 0.63817 0.37044 0.9391 0.0
C1697 C 0.61763 0.3889 0.94745 0.0
C1698 C 0.63653 0.36483 0.91663 0.0
C1699 C 0.61371 0.37794 0.90221 0.0
C1700 C 0.59168 0.39598 0.91071 0.0
C1701 C 0.59392 0.40125 0.93321 0.0
C1702 C 0.66034 0.3454 0.90819 0.0
C1703 C 0.56679 0.41024 0.89591 0.0
C1704 C 0.64349 0.37899 0.84207 0.0
C1705 C 0.61897 0.36285 0.83278 0.0
C1706 C 0.64155 0.38438 0.86456 0.0
C1707 C 0.61433 0.37344 0.87808 0.0
C1708 C 0.58855 0.3578 0.86865 0.0
C1709 C 0.59119 0.35268 0.84612 0.0
C1710 C 0.66945 0.40124 0.874 0.0
C1711 C 0.55894 0.34593 0.88248 0.0
H1712 H 0.65656 0.36082 0.94995 0.0
H1713 H 0.57779 0.41548 0.93951 0.0
H1714 H 0.64232 0.33327 0.89891 0.0
H1715 H 0.68217 0.35193 0.89662 0.0
H1716 H 0.67493 0.33612 0.92169 0.0
H1717 H 0.54943 0.42263 0.90532 0.0
H1718 H 0.58477 0.4197 0.88404 0.0
H1719 H 0.54744 0.39927 0.88619 0.0
H1720 H 0.66505 0.38694 0.83193 0.0
H1721 H 0.57205 0.34022 0.8391 0.0
H1722 H 0.68786 0.39274 0.88634 0.0
H1723 H 0.65403 0.41502 0.88263 0.0
H1724 H 0.68787 0.40891 0.86114 0.0
H1725 H 0.57312 0.33501 0.89488 0.0
H1726 H 0.5396 0.33523 0.87242 0.0
H1727 H 0.54166 0.35854 0.8916 0.0
C1728 C 0.60284 0.84051 0.92905 0.0
C1729 C 0.62137 0.85233 0.946 0.0
C1730 C 0.6054 0.84765 0.9071 0.0
C1731 C 0.62753 0.86692 0.90183 0.0
C1732 C 0.64762 0.87842 0.9187 0.0
C1733 C 0.64403 0.87111 0.94066 0.0
C1734 C 0.58298 0.83512 0.8897 0.0
C1735 C 0.67197 0.89883 0.91364 0.0
C1736 C 0.6477 0.8754 0.84076 0.0
C1737 C 0.61948 0.89112 0.83502 0.0
C1738 C 0.65175 0.86798 0.86267 0.0
C1739 C 0.6265 0.87614 0.87902 0.0
C1740 C 0.59819 0.89213 0.87328 0.0
C1741 C 0.59526 0.89954 0.85143 0.0
C1742 C 0.68265 0.85119 0.86827 0.0
C1743 C 0.57017 0.90092 0.89008 0.0
H1744 H 0.58523 0.82598 0.93299 0.0
H1745 H 0.65866 0.88021 0.95365 0.0
H1746 H 0.56087 0.84649 0.88275 0.0
H1747 H 0.60185 0.83002 0.87595 0.0
H1748 H 0.56883 0.81973 0.89632 0.0
H1749 H 0.68893 0.90435 0.92811 0.0
H1750 H 0.69162 0.89504 0.89984 0.0
H1751 H 0.65365 0.91314 0.90835 0.0
H1752 H 0.66667 0.86898 0.82817 0.0
H1753 H 0.57326 0.91162 0.84713 0.0
H1754 H 0.66974 0.8349 0.87351 0.0
H1755 H 0.69987 0.85754 0.88229 0.0
H1756 H 0.70182 0.84789 0.85411 0.0
H1757 H 0.55304 0.88666 0.89668 0.0
H1758 H 0.5505 0.91376 0.88305 0.0
H1759 H 0.58551 0.90866 0.90416 0.0
C1760 C 0.59524 0.90209 0.43355 0.0
C1761 C 0.61958 0.88981 0.44748 0.0
C1762 C 0.59171 0.89657 0.41117 0.0
C1763 C 0.61312 0.87837 0.40245 0.0
C1764 C 0.63662 0.86536 0.41659 0.0
C1765 C 0.63949 0.87119 0.43895 0.0
C1766 C 0.5661 0.91072 0.39668 0.0
C1767 C 0.65988 0.84579 0.40792 0.0
C1768 C 0.58811 0.8522 0.34712 0.0
C1769 C 0.61526 0.86217 0.33323 0.0
C1770 C 0.58633 0.85777 0.36958 0.0
C1771 C 0.61247 0.8736 0.37838 0.0
C1772 C 0.63903 0.88434 0.36429 0.0
C1773 C 0.64001 0.87856 0.34187 0.0
C1774 C 0.55731 0.84617 0.38402 0.0
C1775 C 0.66738 0.90133 0.37304 0.0
H1776 H 0.5796 0.91645 0.44001 0.0
H1777 H 0.6584 0.86163 0.44956 0.0
H1778 H 0.58348 0.92006 0.38443 0.0
H1779 H 0.54625 0.89968 0.38738 0.0
H1780 H 0.54925 0.9232 0.40628 0.0
H1781 H 0.67523 0.83666 0.42123 0.0
H1782 H 0.6413 0.83357 0.39914 0.0
H1783 H 0.68104 0.85215 0.39585 0.0
H1784 H 0.56877 0.83957 0.34059 0.0
H1785 H 0.66114 0.88633 0.33129 0.0
H1786 H 0.54065 0.85893 0.39333 0.0
H1787 H 0.572 0.83529 0.39627 0.0
H1788 H 0.53735 0.83546 0.37439 0.0
H1789 H 0.6524 0.91521 0.38178 0.0
H1790 H 0.68512 0.90884 0.35978 0.0
H1791 H 0.68642 0.89298 0.38515 0.0
C1792 C 0.64732 0.36954 0.44088 0.0
C1793 C 0.62636 0.35007 0.44618 0.0
C1794 C 0.64975 0.3772 0.41898 0.0
C1795 C 0.63019 0.36533 0.40215 0.0
C1796 C 0.60994 0.34532 0.40737 0.0
C1797 C 0.60854 0.33785 0.42925 0.0
C1798 C 0.67219 0.39839 0.41396 0.0
C1799 C 0.58811 0.33236 0.39001 0.0
C1800 C 0.59326 0.39766 0.35268 0.0
C1801 C 0.61747 0.39019 0.33585 0.0
C1802 C 0.59768 0.39004 0.37437 0.0
C1803 C 0.62753 0.37486 0.37951 0.0
C1804 C 0.65281 0.36771 0.36273 0.0
C1805 C 0.64722 0.37528 0.34099 0.0
C1806 C 0.56958 0.3977 0.39165 0.0
C1807 C 0.68535 0.35185 0.36771 0.0
H1808 H 0.6614 0.37896 0.45386 0.0
H1809 H 0.59227 0.32278 0.43315 0.0
H1810 H 0.69151 0.39545 0.39982 0.0
H1811 H 0.65248 0.41225 0.40923 0.0
H1812 H 0.6893 0.40412 0.4283 0.0
H1813 H 0.57562 0.31641 0.39654 0.0
H1814 H 0.56475 0.34309 0.3835 0.0
H1815 H 0.60692 0.3281 0.37597 0.0
H1816 H 0.57008 0.4091 0.34883 0.0
H1817 H 0.66619 0.36961 0.32806 0.0
H1818 H 0.58474 0.40571 0.40564 0.0
H1819 H 0.55397 0.38282 0.39825 0.0
H1820 H 0.54854 0.41 0.38505 0.0
H1821 H 0.70247 0.3585 0.38163 0.0
H1822 H 0.70429 0.34941 0.35327 0.0
H1823 H 0.6741 0.33508 0.3728 0.0
C1824 C 0.38071 0.62417 0.19239 0.0
C1825 C 0.35435 0.64082 0.19855 0.0
C1826 C 0.38447 0.61756 0.17022 0.0
C1827 C 0.36093 0.62764 0.15399 0.0
C1828 C 0.33451 0.64455 0.16015 0.0
C1829 C 0.33172 0.65101 0.18227 0.0
C1830 C 0.41327 0.59965 0.16421 0.0
C1831 C 0.30845 0.65548 0.14343 0.0
C1832 C 0.38217 0.62473 0.0926 0.0
C1833 C 0.35781 0.60722 0.08587 0.0
C1834 C 0.38472 0.63099 0.1149 0.0
C1835 C 0.36199 0.61968 0.13073 0.0
C1836 C 0.33785 0.60177 0.12404 0.0
C1837 C 0.33623 0.59569 0.10176 0.0
C1838 C 0.41112 0.65 0.12147 0.0
C1839 C 0.31271 0.5895 0.14032 0.0
H1840 H 0.39846 0.61635 0.20486 0.0
H1841 H 0.31119 0.66386 0.18686 0.0
H1842 H 0.39848 0.58441 0.1578 0.0
H1843 H 0.43211 0.60596 0.1509 0.0
H1844 H 0.43108 0.59456 0.17849 0.0
H1845 H 0.29016 0.6688 0.15083 0.0
H1846 H 0.32536 0.66321 0.12998 0.0
H1847 H 0.28986 0.64241 0.13589 0.0
H1848 H 0.39915 0.63358 0.08044 0.0
H1849 H 0.31731 0.58214 0.09674 0.0
H1850 H 0.42979 0.64449 0.1352 0.0
H1851 H 0.39427 0.66464 0.12747 0.0
H1852 H 0.42919 0.65576 0.10756 0.0
H1853 H 0.32999 0.58269 0.1541 0.0
H1854 H 0.29684 0.57527 0.13263 0.0
H1855 H 0.29189 0.60154 0.14748 0.0
C1856 C 0.4052 0.10612 0.18767 0.0
C1857 C 0.38139 0.11994 0.2005 0.0
C1858 C 0.40405 0.10681 0.16458 0.0
C1859 C 0.37864 0.1218 0.15389 0.0
C1860 C 0.35446 0.1358 0.16666 0.0
C1861 C 0.35604 0.13466 0.18982 0.0
C1862 C 0.43029 0.09156 0.15163 0.0
C1863 C 0.32718 0.15214 0.15586 0.0
C1864 C 0.40519 0.13898 0.09554 0.0
C1865 C 0.38161 0.12498 0.08273 0.0
C1866 C 0.40391 0.13841 0.11863 0.0
C1867 C 0.37862 0.12336 0.12934 0.0
C1868 C 0.35464 0.1092 0.11657 0.0
C1869 C 0.35634 0.11022 0.09341 0.0
C1870 C 0.42993 0.15383 0.13159 0.0
C1871 C 0.3275 0.09279 0.12737 0.0
H1872 H 0.42483 0.09458 0.19567 0.0
H1873 H 0.33749 0.14538 0.19954 0.0
H1874 H 0.41355 0.08084 0.14016 0.0
H1875 H 0.4499 0.10196 0.1415 0.0
H1876 H 0.44751 0.08033 0.16242 0.0
H1877 H 0.3097 0.1615 0.16807 0.0
H1878 H 0.34321 0.1646 0.1458 0.0
H1879 H 0.30791 0.14286 0.14455 0.0
H1880 H 0.42472 0.15056 0.08753 0.0
H1881 H 0.33796 0.09938 0.0837 0.0
H1882 H 0.44972 0.14354 0.14172 0.0
H1883 H 0.41305 0.16445 0.14304 0.0
H1884 H 0.44695 0.16515 0.12079 0.0
H1885 H 0.34365 0.08038 0.13743 0.0
H1886 H 0.31005 0.08338 0.11516 0.0
H1887 H 0.30819 0.10201 0.13868 0.0
C1888 C 0.42803 0.13885 0.68768 0.0
C1889 C 0.39774 0.13336 0.70173 0.0
C1890 C 0.42681 0.13342 0.66516 0.0
C1891 C 0.39409 0.12279 0.65634 0.0
C1892 C 0.36353 0.11705 0.67049 0.0
C1893 C 0.36593 0.12214 0.69307 0.0
C1894 C 0.46044 0.13923 0.65078 0.0
C1895 C 0.32787 0.10602 0.6617 0.0
C1896 C 0.37385 0.12781 0.59478 0.0
C1897 C 0.38363 0.1061 0.58734 0.0
C1898 C 0.37741 0.13359 0.61719 0.0
C1899 C 0.39188 0.11743 0.63235 0.0
C1900 C 0.40324 0.09583 0.62468 0.0
C1901 C 0.39859 0.09036 0.60235 0.0
C1902 C 0.36447 0.15669 0.62477 0.0
C1903 C 0.41965 0.07829 0.64012 0.0
H1904 H 0.45271 0.14749 0.69432 0.0
H1905 H 0.34222 0.11813 0.70378 0.0
H1906 H 0.47074 0.12381 0.64221 0.0
H1907 H 0.45177 0.15155 0.63792 0.0
H1908 H 0.48435 0.14663 0.66035 0.0
H1909 H 0.30642 0.10299 0.67479 0.0
H1910 H 0.31496 0.11694 0.64882 0.0
H1911 H 0.33492 0.08957 0.65387 0.0
H1912 H 0.36203 0.13996 0.58326 0.0
H1913 H 0.4065 0.0736 0.59665 0.0
H1914 H 0.38795 0.16553 0.63342 0.0
H1915 H 0.34079 0.1548 0.6367 0.0
H1916 H 0.35467 0.16749 0.61089 0.0
H1917 H 0.44398 0.08556 0.64938 0.0
H1918 H 0.4295 0.06289 0.6313 0.0
H1919 H 0.3979 0.07318 0.65237 0.0
C1920 C 0.44073 0.59678 0.68706 0.0
C1921 C 0.42004 0.60915 0.70273 0.0
C1922 C 0.43991 0.60264 0.6647 0.0
C1923 C 0.41752 0.62122 0.65772 0.0
C1924 C 0.39563 0.6334 0.67332 0.0
C1925 C 0.39732 0.6273 0.6957 0.0
C1926 C 0.46405 0.58939 0.64866 0.0
C1927 C 0.37112 0.65317 0.66643 0.0
C1928 C 0.45088 0.65116 0.60597 0.0
C1929 C 0.42723 0.64172 0.58978 0.0
C1930 C 0.44754 0.64487 0.62813 0.0
C1931 C 0.41956 0.62888 0.63439 0.0
C1932 C 0.39516 0.61949 0.6182 0.0
C1933 C 0.39945 0.62591 0.59602 0.0
C1934 C 0.4745 0.65504 0.64481 0.0
C1935 C 0.36477 0.60256 0.62431 0.0
H1936 H 0.45837 0.58271 0.6923 0.0
H1937 H 0.38104 0.63683 0.70768 0.0
H1938 H 0.44634 0.58306 0.63486 0.0
H1939 H 0.4861 0.60064 0.6415 0.0
H1940 H 0.47841 0.57472 0.65657 0.0
H1941 H 0.35343 0.65966 0.6802 0.0
H1942 H 0.38937 0.66718 0.66035 0.0
H1943 H 0.35213 0.64814 0.65268 0.0
H1944 H 0.47249 0.66335 0.60131 0.0
H1945 H 0.38089 0.6187 0.58361 0.0
H1946 H 0.49169 0.64144 0.65257 0.0
H1947 H 0.45826 0.66351 0.65811 0.0
H1948 H 0.49415 0.66762 0.63732 0.0
H1949 H 0.3781 0.58701 0.63109 0.0
H1950 H 0.34682 0.59775 0.61 0.0
H1951 H 0.34622 0.60966 0.63737 0.0
C1952 C 0.30834 0.35077 0.26729 0.0
C1953 C 0.2862 0.36157 0.28336 0.0
C1954 C 0.3477 0.35475 0.26586 0.0
C1955 C 0.36541 0.36961 0.28108 0.0
C1956 C 0.3433 0.38015 0.29762 0.0
C1957 C 0.30398 0.37614 0.29846 0.0
C1958 C 0.37025 0.34334 0.24787 0.0
C1959 C 0.36116 0.39577 0.3144 0.0
C1960 C 0.4719 0.36371 0.29007 0.0
C1961 C 0.48638 0.38195 0.27781 0.0
C1962 C 0.43267 0.35962 0.29138 0.0
C1963 C 0.40715 0.37392 0.2799 0.0
C1964 C 0.42153 0.39242 0.26753 0.0
C1965 C 0.46099 0.39632 0.26675 0.0
C1966 C 0.41853 0.33994 0.30504 0.0
C1967 C 0.39524 0.40793 0.2549 0.0
H1968 H 0.29476 0.33965 0.25546 0.0
H1969 H 0.28709 0.38449 0.31098 0.0
H1970 H 0.38423 0.35633 0.23742 0.0
H1971 H 0.39307 0.33276 0.25517 0.0
H1972 H 0.35221 0.33243 0.23722 0.0
H1973 H 0.34013 0.40227 0.32649 0.0
H1974 H 0.38395 0.38671 0.32347 0.0
H1975 H 0.37456 0.41042 0.30597 0.0
H1976 H 0.49131 0.35259 0.29877 0.0
H1977 H 0.47198 0.41035 0.25714 0.0
H1978 H 0.40263 0.32788 0.29448 0.0
H1979 H 0.39855 0.34612 0.31783 0.0
H1980 H 0.44205 0.33065 0.31327 0.0
H1981 H 0.37834 0.39795 0.2429 0.0
H1982 H 0.4109 0.42139 0.24587 0.0
H1983 H 0.37485 0.4161 0.26634 0.0
C1984 C 0.80832 0.85059 0.27217 0.0
C1985 C 0.78209 0.86785 0.27678 0.0
C1986 C 0.84772 0.8547 0.27323 0.0
C1987 C 0.86117 0.87651 0.27921 0.0
C1988 C 0.8348 0.8939 0.28404 0.0
C1989 C 0.79569 0.88939 0.2827 0.0
C1990 C 0.87498 0.83574 0.26784 0.0
C1991 C 0.84787 0.91732 0.29067 0.0
C1992 C 0.96164 0.88211 0.30188 0.0
C1993 C 0.98167 0.89039 0.28358 0.0
C1994 C 0.92248 0.87758 0.30069 0.0
C1995 C 0.90281 0.88118 0.28064 0.0
C1996 C 0.92277 0.8897 0.26214 0.0
C1997 C 0.9619 0.89432 0.26386 0.0
C1998 C 0.90217 0.86884 0.32089 0.0
C1999 C 0.90287 0.89368 0.24045 0.0
H2000 H 0.79808 0.83394 0.2675 0.0
H2001 H 0.77571 0.90285 0.28637 0.0
H2002 H 0.89366 0.84086 0.25399 0.0
H2003 H 0.89361 0.83228 0.2822 0.0
H2004 H 0.86003 0.81983 0.26328 0.0
H2005 H 0.82372 0.92894 0.29404 0.0
H2006 H 0.86586 0.91627 0.30565 0.0
H2007 H 0.86559 0.92481 0.27743 0.0
H2008 H 0.97663 0.87905 0.31719 0.0
H2009 H 0.97717 0.90054 0.24959 0.0
H2010 H 0.88932 0.85205 0.31737 0.0
H2011 H 0.87865 0.88049 0.32536 0.0
H2012 H 0.92148 0.86713 0.33527 0.0
H2013 H 0.8899 0.87765 0.23455 0.0
H2014 H 0.92249 0.90015 0.22756 0.0
H2015 H 0.87948 0.90608 0.24263 0.0
C2016 C 0.30263 0.86548 0.99214 0.0
C2017 C 0.28679 0.88242 1.0055 0.0
C2018 C 0.34196 0.86149 0.99185 0.0
C2019 C 0.36612 0.87454 1.00551 0.0
C2020 C 0.35037 0.89175 0.019 0.0
C2021 C 0.31088 0.89561 0.0187 0.0
C2022 C 0.35763 0.84328 0.97693 0.0
C2023 C 0.37517 0.90588 0.03394 0.0
C2024 C 0.46356 0.84995 0.01915 0.0
C2025 C 0.4872 0.86225 1.0049 0.0
C2026 C 0.42413 0.85394 0.0197 0.0
C2027 C 0.40793 0.87033 1.00541 0.0
C2028 C 0.43163 0.88246 0.99073 0.0
C2029 C 0.47095 0.87839 0.99077 0.0
C2030 C 0.39984 0.8408 0.03574 0.0
C2031 C 0.41546 0.89976 0.97495 0.0
H2032 H 0.28423 0.85529 0.98179 0.0
H2033 H 0.2988 0.90862 0.02918 0.0
H2034 H 0.37893 0.85069 0.96554 0.0
H2035 H 0.37241 0.83017 0.98685 0.0
H2036 H 0.33508 0.83491 0.96703 0.0
H2037 H 0.35851 0.91839 0.04361 0.0
H2038 H 0.3908 0.8947 0.04553 0.0
H2039 H 0.39671 0.91513 0.02408 0.0
H2040 H 0.47597 0.83758 0.03023 0.0
H2041 H 0.48901 0.88789 0.97963 0.0
H2042 H 0.37798 0.83095 0.02669 0.0
H2043 H 0.3846 0.8527 0.04679 0.0
H2044 H 0.41683 0.82892 0.04598 0.0
H2045 H 0.39379 0.8917 0.96422 0.0
H2046 H 0.43768 0.90751 0.96434 0.0
H2047 H 0.40102 0.91345 0.98425 0.0
C2048 C 0.96693 0.37967 0.03667 0.0
C2049 C 0.98459 0.36348 0.0232 0.0
C2050 C 0.92754 0.38332 0.03572 0.0
C2051 C 0.90522 0.37079 0.02063 0.0
C2052 C 0.92287 0.35446 1.0069 0.0
C2053 C 0.96234 0.35083 1.0085 0.0
C2054 C 0.9098 0.40051 0.051 0.0
C2055 C 0.90011 0.34097 0.9904 0.0
C2056 C 0.7997 0.36466 0.0326 0.0
C2057 C 0.78375 0.38164 0.0193 0.0
C2058 C 0.83909 0.36098 0.03316 0.0
C2059 C 0.86324 0.37433 0.01978 0.0
C2060 C 0.84734 0.39142 1.00617 0.0
C2061 C 0.80777 0.39503 1.00625 0.0
C2062 C 0.85488 0.34293 0.04828 0.0
C2063 C 0.87213 0.40579 0.99145 0.0
H2064 H 0.98393 0.38943 0.04815 0.0
H2065 H 0.97588 0.33845 0.99791 0.0
H2066 H 0.8952 0.41387 0.04131 0.0
H2067 H 0.88797 0.39219 0.06143 0.0
H2068 H 0.93109 0.40872 0.06191 0.0
H2069 H 0.91823 0.32944 0.98046 0.0
H2070 H 0.87831 0.33069 0.99903 0.0
H2071 H 0.88484 0.35263 0.9791 0.0
H2072 H 0.78135 0.35432 0.04285 0.0
H2073 H 0.79559 0.40807 0.99583 0.0
H2074 H 0.87515 0.35066 0.0601 0.0
H2075 H 0.87087 0.33017 0.0386 0.0
H2076 H 0.83226 0.33409 0.05772 0.0
H2077 H 0.89259 0.41562 1.00156 0.0
H2078 H 0.85529 0.41782 0.98129 0.0
H2079 H 0.88899 0.39478 0.98033 0.0
C2080 C 0.71358 0.65303 0.80042 0.0
C2081 C 0.73714 0.65064 0.78192 0.0
C2082 C 0.67468 0.64753 0.79939 0.0
C2083 C 0.65901 0.63925 0.77946 0.0
C2084 C 0.68266 0.63674 0.76077 0.0
C2085 C 0.72129 0.64256 0.76219 0.0
C2086 C 0.6503 0.65071 0.8196 0.0
C2087 C 0.66714 0.6279 0.73922 0.0
C2088 C 0.5644 0.60752 0.78009 0.0
C2089 C 0.53919 0.62435 0.7728 0.0
C2090 C 0.60348 0.61213 0.78252 0.0
C2091 C 0.61755 0.63413 0.77776 0.0
C2092 C 0.59211 0.65121 0.77068 0.0
C2093 C 0.5534 0.6461 0.76819 0.0
C2094 C 0.6298 0.59341 0.78993 0.0
C2095 C 0.6058 0.67492 0.76558 0.0
H2096 H 0.72553 0.65919 0.81574 0.0
H2097 H 0.73921 0.64047 0.74783 0.0
H2098 H 0.62717 0.66296 0.81602 0.0
H2099 H 0.63666 0.63442 0.82418 0.0
H2100 H 0.66688 0.65701 0.83392 0.0
H2101 H 0.68954 0.62621 0.72644 0.0
H2102 H 0.65368 0.61109 0.74177 0.0
H2103 H 0.6448 0.6395 0.73294 0.0
H2104 H 0.55367 0.5907 0.78369 0.0
H2105 H 0.53419 0.6593 0.76269 0.0
H2106 H 0.64522 0.59863 0.80504 0.0
H2107 H 0.65148 0.59017 0.77704 0.0
H2108 H 0.61438 0.57736 0.79334 0.0
H2109 H 0.62075 0.68212 0.78007 0.0
H2110 H 0.58216 0.68648 0.76097 0.0
H2111 H 0.62649 0.67444 0.75181 0.0
C2112 C 0.06298 0.10429 0.77763 0.0
C2113 C 0.0408 0.1172 0.76308 0.0
C2114 C 0.10265 0.10733 0.7788 0.0
C2115 C 0.12056 0.12345 0.76493 0.0
C2116 C 0.09826 0.13646 0.7502 0.0
C2117 C 0.05875 0.13325 0.74953 0.0
C2118 C 0.12543 0.09325 0.79483 0.0
C2119 C 0.11621 0.15359 0.73489 0.0
C2120 C 0.22036 0.14527 0.77766 0.0
C2121 C 0.24268 0.13176 0.76375 0.0
C2122 C 0.1806 0.14251 0.77853 0.0
C2123 C 0.16277 0.12606 0.76499 0.0
C2124 C 0.1852 0.11253 0.75082 0.0
C2125 C 0.22477 0.11547 0.75046 0.0
C2126 C 0.15766 0.15716 0.79396 0.0
C2127 C 0.16736 0.09504 0.73587 0.0
H2128 H 0.04932 0.09198 0.78825 0.0
H2129 H 0.04191 0.14328 0.73819 0.0
H2130 H 0.14595 0.08249 0.78574 0.0
H2131 H 0.14217 0.10446 0.80584 0.0
H2132 H 0.10713 0.08212 0.8051 0.0
H2133 H 0.09481 0.16262 0.72468 0.0
H2134 H 0.13249 0.16629 0.74451 0.0
H2135 H 0.1366 0.14497 0.72376 0.0
H2136 H 0.23399 0.15778 0.78808 0.0
H2137 H 0.24172 0.10499 0.73958 0.0
H2138 H 0.1409 0.14633 0.80531 0.0
H2139 H 0.13714 0.16754 0.78442 0.0
H2140 H 0.17585 0.16869 0.80388 0.0
H2141 H 0.15106 0.08256 0.74575 0.0
H2142 H 0.18882 0.08577 0.72594 0.0
H2143 H 0.147 0.10337 0.72449 0.0
C2144 C 0.55912 0.14472 1.00436 0.0
C2145 C 0.53733 0.1318 0.01908 0.0
C2146 C 0.59876 0.14168 1.00283 0.0
C2147 C 0.61703 0.12553 0.01653 0.0
C2148 C 0.5951 0.11243 0.03135 0.0
C2149 C 0.55563 0.11565 0.03237 0.0
C2150 C 0.62114 0.15585 0.98671 0.0
C2151 C 0.61343 0.09525 0.04646 0.0
C2152 C 0.71668 0.10353 1.00393 0.0
C2153 C 0.73902 0.11676 0.01812 0.0
C2154 C 0.67701 0.10657 1.00278 0.0
C2155 C 0.65926 0.12304 1.01631 0.0
C2156 C 0.68174 0.13647 0.03057 0.0
C2157 C 0.72123 0.13324 0.03122 0.0
C2158 C 0.65403 0.09205 0.98724 0.0
C2159 C 0.66399 0.15401 0.04549 0.0
H2160 H 0.5452 0.15712 0.99393 0.0
H2161 H 0.53911 0.10559 0.04384 0.0
H2162 H 0.64161 0.16674 0.99572 0.0
H2163 H 0.63791 0.14472 0.97566 0.0
H2164 H 0.60255 0.16686 0.97648 0.0
H2165 H 0.59226 0.08605 0.05668 0.0
H2166 H 0.62971 0.08268 0.0367 0.0
H2167 H 0.63388 0.10386 0.05758 0.0
H2168 H 0.7302 0.09087 0.99365 0.0
H2169 H 0.73817 0.14354 0.04228 0.0
H2170 H 0.6368 0.10294 0.97617 0.0
H2171 H 0.63393 0.08135 0.99674 0.0
H2172 H 0.67223 0.08082 0.97703 0.0
H2173 H 0.64731 0.16633 0.03563 0.0
H2174 H 0.68553 0.16345 0.05522 0.0
H2175 H 0.64399 0.14566 0.05706 0.0
C2176 C 0.21182 0.60123 1.01148 0.0
C2177 C 0.23694 0.61942 1.01453 0.0
C2178 C 0.17262 0.60502 1.00846 0.0
C2179 C 0.15845 0.62753 1.00798 0.0
C2180 C 0.18386 0.64591 1.01069 0.0
C2181 C 0.22263 0.64162 1.01415 0.0
C2182 C 0.14632 0.58496 1.00602 0.0
C2183 C 0.17013 0.67016 1.00985 0.0
C2184 C 0.06271 0.6386 0.98066 0.0
C2185 C 0.03869 0.64115 0.99892 0.0
C2186 C 0.10174 0.63427 0.98335 0.0
C2187 C 0.11703 0.63197 1.00483 0.0
C2188 C 0.09291 0.63452 0.02333 0.0
C2189 C 0.05415 0.6393 0.02016 0.0
C2190 C 0.12665 0.6322 0.96322 0.0
C2191 C 0.10796 0.63191 0.04648 0.0
H2192 H 0.2227 0.58405 1.01182 0.0
H2193 H 0.24191 0.6558 1.01627 0.0
H2194 H 0.12432 0.5854 0.0191 0.0
H2195 H 0.13131 0.58582 0.98998 0.0
H2196 H 0.16169 0.56854 1.00705 0.0
H2197 H 0.19374 0.68255 1.01157 0.0
H2198 H 0.15533 0.67339 0.99401 0.0
H2199 H 0.1493 0.67322 0.02322 0.0
H2200 H 0.05098 0.64003 0.96421 0.0
H2201 H 0.03573 0.641 0.03436 0.0
H2202 H 0.14005 0.61519 0.96275 0.0
H2203 H 0.14994 0.64487 0.96397 0.0
H2204 H 0.1105 0.63479 0.94769 0.0
H2205 H 0.12137 0.61501 0.04845 0.0
H2206 H 0.08529 0.63377 0.05908 0.0
H2207 H 0.13025 0.6448 0.0497 0.0
C2208 C 0.47627 0.86566 0.78595 0.0
C2209 C 0.49202 0.8835 0.77367 0.0
C2210 C 0.4369 0.86179 0.78626 0.0
C2211 C 0.41259 0.87592 0.77375 0.0
C2212 C 0.42827 0.89398 0.7613 0.0
C2213 C 0.4678 0.89768 0.76155 0.0
C2214 C 0.42133 0.84262 0.80007 0.0
C2215 C 0.40329 0.90927 0.74757 0.0
C2216 C 0.3141 0.85309 0.75969 0.0
C2217 C 0.29125 0.86456 0.77495 0.0
C2218 C 0.35361 0.85678 0.75894 0.0
C2219 C 0.37069 0.872 0.77407 0.0
C2220 C 0.3478 0.88325 0.78978 0.0
C2221 C 0.30838 0.87954 0.78992 0.0
C2222 C 0.37702 0.84463 0.7418 0.0
C2223 C 0.36493 0.89925 0.80648 0.0
H2224 H 0.49476 0.85469 0.79546 0.0
H2225 H 0.4798 0.9114 0.75191 0.0
H2226 H 0.40067 0.84931 0.81224 0.0
H2227 H 0.40584 0.83041 0.78947 0.0
H2228 H 0.44403 0.83334 0.80907 0.0
H2229 H 0.41993 0.92226 0.73847 0.0
H2230 H 0.38694 0.89902 0.73552 0.0
H2231 H 0.38238 0.91803 0.75825 0.0
H2232 H 0.301 0.84163 0.74798 0.0
H2233 H 0.29093 0.88838 0.80184 0.0
H2234 H 0.399 0.83403 0.74991 0.0
H2235 H 0.3921 0.85717 0.73134 0.0
H2236 H 0.3594 0.8336 0.73104 0.0
H2237 H 0.38681 0.89028 0.81636 0.0
H2238 H 0.34328 0.90635 0.81785 0.0
H2239 H 0.37933 0.91348 0.79794 0.0
C2240 C 0.80474 0.38479 0.75039 0.0
C2241 C 0.78927 0.36765 0.76369 0.0
C2242 C 0.84401 0.38894 0.74993 0.0
C2243 C 0.86852 0.37591 0.7634 0.0
C2244 C 0.85309 0.35869 0.77704 0.0
C2245 C 0.81365 0.3546 0.77686 0.0
C2246 C 0.85932 0.4071 0.73479 0.0
C2247 C 0.87825 0.34464 0.79186 0.0
C2248 C 0.97238 0.3713 0.74677 0.0
C2249 C 0.98969 0.38761 0.76027 0.0
C2250 C 0.93305 0.36741 0.74759 0.0
C2251 C 0.91041 0.37984 0.76258 0.0
C2252 C 0.92769 0.39634 0.7763 0.0
C2253 C 0.96711 0.4002 0.77483 0.0
C2254 C 0.91571 0.35004 0.73231 0.0
C2255 C 0.90458 0.40972 0.7927 0.0
H2256 H 0.78613 0.39486 0.74005 0.0
H2257 H 0.80184 0.34145 0.78728 0.0
H2258 H 0.87503 0.42002 0.74445 0.0
H2259 H 0.87973 0.39954 0.72297 0.0
H2260 H 0.83645 0.41573 0.72534 0.0
H2261 H 0.86172 0.33254 0.8021 0.0
H2262 H 0.89892 0.33492 0.78182 0.0
H2263 H 0.89488 0.35588 0.80291 0.0
H2264 H 0.98963 0.36159 0.73539 0.0
H2265 H 0.98038 0.41267 0.78545 0.0
H2266 H 0.89363 0.35814 0.72189 0.0
H2267 H 0.90151 0.33655 0.74202 0.0
H2268 H 0.93719 0.34204 0.72141 0.0
H2269 H 0.88246 0.4197 0.784 0.0
H2270 H 0.92239 0.42151 0.80255 0.0
H2271 H 0.88968 0.39799 0.80409 0.0
C2272 C 0.31563 0.39328 0.5153 0.0
C2273 C 0.29147 0.38015 0.50207 0.0
C2274 C 0.35501 0.38914 0.51586 0.0
C2275 C 0.37065 0.37167 0.50265 0.0
C2276 C 0.34645 0.35866 0.48898 0.0
C2277 C 0.30719 0.36295 0.48896 0.0
C2278 C 0.37984 0.40326 0.5308 0.0
C2279 C 0.36201 0.34016 0.47436 0.0
C2280 C 0.47585 0.37504 0.48873 0.0
C2281 C 0.49167 0.35913 0.50327 0.0
C2282 C 0.43655 0.37911 0.48822 0.0
C2283 C 0.4124 0.36721 0.50284 0.0
C2284 C 0.42813 0.35099 0.51748 0.0
C2285 C 0.46758 0.347 0.5174 0.0
C2286 C 0.4209 0.39623 0.47209 0.0
C2287 C 0.40334 0.33811 0.53345 0.0
H2288 H 0.30367 0.40648 0.52559 0.0
H2289 H 0.28875 0.35278 0.47863 0.0
H2290 H 0.39508 0.39211 0.54259 0.0
H2291 H 0.4017 0.41227 0.52096 0.0
H2292 H 0.36326 0.41598 0.54025 0.0
H2293 H 0.33946 0.33181 0.46444 0.0
H2294 H 0.38362 0.34728 0.46299 0.0
H2295 H 0.3764 0.32709 0.48452 0.0
H2296 H 0.49426 0.3844 0.47767 0.0
H2297 H 0.47965 0.33481 0.52879 0.0
H2298 H 0.40661 0.41017 0.48111 0.0
H2299 H 0.39921 0.38814 0.4614 0.0
H2300 H 0.4434 0.40365 0.46146 0.0
H2301 H 0.38821 0.35018 0.54437 0.0
H2302 H 0.41995 0.32617 0.54384 0.0
H2303 H 0.3814 0.32837 0.52436 0.0
C2304 C 0.96545 0.84976 0.51368 0.0
C2305 C 0.98927 0.86174 0.49927 0.0
C2306 C 0.92602 0.85384 0.51409 0.0
C2307 C 0.90999 0.87004 0.49954 0.0
C2308 C 0.93385 0.88181 0.48466 0.0
C2309 C 0.97314 0.87763 0.4848 0.0
C2310 C 0.90158 0.84107 0.53033 0.0
C2311 C 0.91789 0.89893 0.46862 0.0
C2312 C 0.8044 0.86591 0.48655 0.0
C2313 C 0.78903 0.88315 0.49975 0.0
C2314 C 0.84365 0.86157 0.48625 0.0
C2315 C 0.86824 0.87458 0.49969 0.0
C2316 C 0.85296 0.89209 0.51299 0.0
C2317 C 0.81356 0.89628 0.51275 0.0
C2318 C 0.85878 0.843 0.47156 0.0
C2319 C 0.87821 0.90623 0.52768 0.0
H2320 H 0.97773 0.8376 0.52503 0.0
H2321 H 0.9913 0.8869 0.47354 0.0
H2322 H 0.88682 0.85322 0.54134 0.0
H2323 H 0.87934 0.83136 0.52146 0.0
H2324 H 0.91839 0.82913 0.5406 0.0
H2325 H 0.94015 0.90629 0.4578 0.0
H2326 H 0.8959 0.89085 0.45813 0.0
H2327 H 0.90388 0.91291 0.47773 0.0
H2328 H 0.78569 0.85573 0.47638 0.0
H2329 H 0.80189 0.90951 0.52311 0.0
H2330 H 0.87338 0.82994 0.48163 0.0
H2331 H 0.88012 0.85006 0.45999 0.0
H2332 H 0.83596 0.83465 0.46185 0.0
H2333 H 0.89366 0.8951 0.53939 0.0
H2334 H 0.86191 0.91902 0.53721 0.0
H2335 H 0.89988 0.91516 0.51764 0.0
C2336 C 0.56072 0.09801 0.27622 0.0
C2337 C 0.53885 0.11044 0.26112 0.0
C2338 C 0.6003 0.10129 0.27776 0.0
C2339 C 0.61843 0.11716 0.26371 0.0
C2340 C 0.59646 0.12962 0.24838 0.0
C2341 C 0.55704 0.12618 0.24735 0.0
C2342 C 0.62275 0.08779 0.2944 0.0
C2343 C 0.61465 0.14647 0.23288 0.0
C2344 C 0.71693 0.14082 0.27664 0.0
C2345 C 0.7401 0.12751 0.26301 0.0
C2346 C 0.67735 0.13727 0.2775 0.0
C2347 C 0.66055 0.12019 0.26426 0.0
C2348 C 0.68387 0.10667 0.25058 0.0
C2349 C 0.72325 0.11043 0.25019 0.0
C2350 C 0.65344 0.15193 0.29241 0.0
C2351 C 0.66715 0.08847 0.236 0.0
H2352 H 0.54685 0.08595 0.28702 0.0
H2353 H 0.54044 0.13583 0.23558 0.0
H2354 H 0.64405 0.07709 0.28585 0.0
H2355 H 0.6386 0.09942 0.30545 0.0
H2356 H 0.60431 0.07666 0.3046 0.0
H2357 H 0.5935 0.155 0.2221 0.0
H2358 H 0.63011 0.15962 0.24239 0.0
H2359 H 0.6358 0.13776 0.22231 0.0
H2360 H 0.72971 0.15394 0.2867 0.0
H2361 H 0.74084 0.10005 0.23957 0.0
H2362 H 0.63628 0.14115 0.30361 0.0
H2363 H 0.63326 0.1621 0.28242 0.0
H2364 H 0.67097 0.16368 0.30249 0.0
H2365 H 0.65058 0.07625 0.24602 0.0
H2366 H 0.68929 0.079 0.22677 0.0
H2367 H 0.64724 0.09622 0.22398 0.0
C2368 C 0.05941 0.60176 0.29951 0.0
C2369 C 0.03571 0.6008 0.28093 0.0
C2370 C 0.09807 0.60752 0.29757 0.0
C2371 C 0.11347 0.61246 0.27655 0.0
C2372 C 0.08978 0.61134 0.25773 0.0
C2373 C 0.05128 0.60551 0.26013 0.0
C2374 C 0.12244 0.60838 0.31803 0.0
C2375 C 0.1051 0.61639 0.23502 0.0
C2376 C 0.2065 0.64561 0.27306 0.0
C2377 C 0.23297 0.62817 0.26969 0.0
C2378 C 0.16746 0.64079 0.2753 0.0
C2379 C 0.15466 0.61802 0.27415 0.0
C2380 C 0.18125 0.60041 0.27061 0.0
C2381 C 0.21994 0.6057 0.26841 0.0
C2382 C 0.13992 0.66002 0.279 0.0
C2383 C 0.16886 0.57593 0.26924 0.0
H2384 H 0.04769 0.59826 0.31565 0.0
H2385 H 0.03326 0.6049 0.24566 0.0
H2386 H 0.14628 0.59616 0.31656 0.0
H2387 H 0.13511 0.6255 0.31986 0.0
H2388 H 0.10609 0.60433 0.33317 0.0
H2389 H 0.08285 0.6151 0.22209 0.0
H2390 H 0.11733 0.63372 0.23459 0.0
H2391 H 0.12836 0.6044 0.23098 0.0
H2392 H 0.21628 0.663 0.2741 0.0
H2393 H 0.24008 0.59206 0.2658 0.0
H2394 H 0.12472 0.65753 0.29482 0.0
H2395 H 0.11817 0.66019 0.26576 0.0
H2396 H 0.15432 0.67678 0.27936 0.0
H2397 H 0.15444 0.57089 0.28473 0.0
H2398 H 0.19311 0.56423 0.26638 0.0
H2399 H 0.14804 0.57375 0.25568 0.0
C2400 C 0.72819 0.62978 0.48713 0.0
C2401 C 0.74544 0.61377 0.50102 0.0
C2402 C 0.68894 0.63399 0.4881 0.0
C2403 C 0.66633 0.62215 0.50358 0.0
C2404 C 0.68348 0.6058 0.51753 0.0
C2405 C 0.72279 0.60167 0.51596 0.0
C2406 C 0.67171 0.65122 0.47263 0.0
C2407 C 0.66039 0.59296 0.53436 0.0
C2408 C 0.57096 0.64818 0.51954 0.0
C2409 C 0.5455 0.63496 0.50727 0.0
C2410 C 0.61037 0.6441 0.51866 0.0
C2411 C 0.62464 0.62666 0.50488 0.0
C2412 C 0.59905 0.61361 0.49213 0.0
C2413 C 0.55987 0.61779 0.49361 0.0
C2414 C 0.63672 0.65823 0.53268 0.0
C2415 C 0.61305 0.59516 0.47692 0.0
H2416 H 0.74546 0.63915 0.47548 0.0
H2417 H 0.73596 0.58942 0.52688 0.0
H2418 H 0.64882 0.64322 0.46273 0.0
H2419 H 0.65855 0.66517 0.48219 0.0
H2420 H 0.69306 0.6586 0.46122 0.0
H2421 H 0.67801 0.58097 0.54411 0.0
H2422 H 0.64653 0.60505 0.54581 0.0
H2423 H 0.63745 0.58328 0.52607 0.0
H2424 H 0.56002 0.66136 0.53024 0.0
H2425 H 0.5404 0.60758 0.48396 0.0
H2426 H 0.65752 0.66723 0.52209 0.0
H2427 H 0.65315 0.64709 0.54392 0.0
H2428 H 0.62116 0.67096 0.54268 0.0
H2429 H 0.63346 0.60232 0.46485 0.0
H2430 H 0.58951 0.58686 0.46777 0.0
H2431 H 0.62844 0.58204 0.48651 0.0
C2432 C 0.0573 0.13699 0.5029 0.0
C2433 C 0.04332 0.14681 0.52234 0.0
C2434 C 0.09585 0.13112 0.50076 0.0
C2435 C 0.12116 0.13513 0.51848 0.0
C2436 C 0.10731 0.14516 0.53809 0.0
C2437 C 0.06862 0.1509 0.53977 0.0
C2438 C 0.1095 0.12061 0.47953 0.0
C2439 C 0.13338 0.14978 0.55734 0.0
C2440 C 0.21565 0.10339 0.52093 0.0
C2441 C 0.24108 0.11989 0.51319 0.0
C2442 C 0.17646 0.10801 0.52257 0.0
C2443 C 0.16239 0.12958 0.51625 0.0
C2444 C 0.18787 0.14612 0.50806 0.0
C2445 C 0.22677 0.14109 0.50666 0.0
C2446 C 0.15017 0.08994 0.53139 0.0
C2447 C 0.17411 0.16927 0.50101 0.0
H2448 H 0.03802 0.13368 0.48935 0.0
H2449 H 0.05815 0.15836 0.5549 0.0
H2450 H 0.13178 0.13143 0.47201 0.0
H2451 H 0.12255 0.10384 0.48289 0.0
H2452 H 0.08614 0.11833 0.46741 0.0
H2453 H 0.11809 0.15731 0.57156 0.0
H2454 H 0.14712 0.1338 0.56278 0.0
H2455 H 0.15636 0.16155 0.55226 0.0
H2456 H 0.22643 0.087 0.52604 0.0
H2457 H 0.24609 0.15396 0.50056 0.0
H2458 H 0.12732 0.08637 0.51927 0.0
H2459 H 0.13624 0.09604 0.54666 0.0
H2460 H 0.16535 0.07387 0.53511 0.0
H2461 H 0.15193 0.16758 0.48812 0.0
H2462 H 0.19744 0.18004 0.49448 0.0
H2463 H 0.16092 0.17811 0.5152 0.0
loop_
_geom_bond_atom_site_label_1
_geom_bond_atom_site_label_2
_geom_bond_distance
_geom_bond_site_symmetry_2
_ccdc_geom_bond_type
Mg0 O7 2.141 . S
Mg0 O8 2.048 . S
Mg0 O9 2.048 . S
Mg0 O12 2.141 . S
C1 O2 1.313 . S
C1 O8 1.195 . S
O2 C1 1.313 . S
C3 O4 1.245 . S
C3 O12 1.289 . S
O4 C3 1.245 . S
C5 O6 1.245 . S
C5 O7 1.289 . S
O6 C5 1.245 . S
O7 Mg0 2.141 . S
O7 C5 1.289 . S
O8 Mg0 2.048 . S
O8 C1 1.195 . S
O9 Mg0 2.048 . S
O9 C10 1.195 . S
C10 O9 1.195 . S
C10 O11 1.313 . S
O11 C10 1.313 . S
O12 Mg0 2.141 . S
O12 C3 1.289 . S
Mg13 O20 2.141 . S
Mg13 O21 2.048 . S
Mg13 O22 2.048 . S
Mg13 O25 2.141 . S
C14 O15 1.313 . S
C14 O21 1.195 . S
O15 C14 1.313 . S
C16 O17 1.245 . S
C16 O25 1.289 . S
O17 C16 1.245 . S
C18 O19 1.245 . S
C18 O20 1.289 . S
O19 C18 1.245 . S
O20 Mg13 2.141 . S
O20 C18 1.289 . S
O21 Mg13 2.048 . S
O21 C14 1.195 . S
O22 Mg13 2.048 . S
O22 C23 1.195 . S
C23 O22 1.195 . S
C23 O24 1.313 . S
O24 C23 1.313 . S
O25 Mg13 2.141 . S
O25 C16 1.289 . S
Mg26 O33 2.141 1_554 S
Mg26 O34 2.049 . S
Mg26 O35 2.047 . S
Mg26 O38 2.140 1_554 S
C27 O28 1.313 . S
C27 O34 1.195 . S
O28 C27 1.313 . S
C29 O30 1.245 . S
C29 O38 1.289 . S
O30 C29 1.245 . S
C31 O32 1.245 . S
C31 O33 1.289 . S
O32 C31 1.245 . S
O33 Mg26 2.141 1_556 S
O33 C31 1.289 . S
O34 Mg26 2.049 . S
O34 C27 1.195 . S
O35 Mg26 2.047 . S
O35 C36 1.201 . S
C36 O35 1.201 . S
C36 O37 1.313 . S
O37 C36 1.313 . S
O38 Mg26 2.140 1_556 S
O38 C29 1.289 . S
Mg39 O46 2.141 1_554 S
Mg39 O47 2.049 . S
Mg39 O48 2.047 . S
Mg39 O51 2.140 1_554 S
C40 O41 1.313 . S
C40 O47 1.195 . S
O41 C40 1.313 . S
C42 O43 1.245 . S
C42 O51 1.289 . S
O43 C42 1.245 . S
C44 O45 1.245 . S
C44 O46 1.289 . S
O45 C44 1.245 . S
O46 Mg39 2.141 1_556 S
O46 C44 1.289 . S
O47 Mg39 2.049 . S
O47 C40 1.195 . S
O48 Mg39 2.047 . S
O48 C49 1.201 . S
C49 O48 1.201 . S
C49 O50 1.313 . S
O50 C49 1.313 . S
O51 Mg39 2.140 1_556 S
O51 C42 1.289 . S
Mg52 O59 2.141 . S
Mg52 O60 2.048 . S
Mg52 O61 2.048 . S
Mg52 O64 2.141 . S
C53 O54 1.313 . S
C53 O60 1.195 . S
O54 C53 1.313 . S
C55 O56 1.245 . S
C55 O64 1.289 . S
O56 C55 1.245 . S
C57 O58 1.245 . S
C57 O59 1.289 . S
O58 C57 1.245 . S
O59 Mg52 2.141 . S
O59 C57 1.289 . S
O60 Mg52 2.048 . S
O60 C53 1.195 . S
O61 Mg52 2.048 . S
O61 C62 1.195 . S
C62 O61 1.195 . S
C62 O63 1.313 . S
O63 C62 1.313 . S
O64 Mg52 2.141 . S
O64 C55 1.289 . S
Mg65 O72 2.141 . S
Mg65 O73 2.048 . S
Mg65 O74 2.048 . S
Mg65 O77 2.141 . S
C66 O67 1.313 . S
C66 O73 1.195 . S
O67 C66 1.313 . S
C68 O69 1.245 . S
C68 O77 1.289 . S
O69 C68 1.245 . S
C70 O71 1.245 . S
C70 O72 1.289 . S
O71 C70 1.245 . S
O72 Mg65 2.141 . S
O72 C70 1.289 . S
O73 Mg65 2.048 . S
O73 C66 1.195 . S
O74 Mg65 2.048 . S
O74 C75 1.195 . S
C75 O74 1.195 . S
C75 O76 1.313 . S
O76 C75 1.313 . S
O77 Mg65 2.141 . S
O77 C68 1.289 . S
Mg78 O85 2.141 . S
Mg78 O86 2.048 1_554 S
Mg78 O87 2.048 . S
Mg78 O90 2.141 . S
C79 O80 1.313 . S
C79 O86 1.195 . S
O80 C79 1.313 . S
C81 O82 1.245 . S
C81 O90 1.289 . S
O82 C81 1.245 . S
C83 O84 1.245 1_554 S
C83 O85 1.289 . S
O84 C83 1.245 1_556 S
O85 Mg78 2.141 . S
O85 C83 1.289 . S
O86 Mg78 2.048 1_556 S
O86 C79 1.195 . S
O87 Mg78 2.048 . S
O87 C88 1.190 1_554 S
C88 O87 1.190 1_556 S
C88 O89 1.313 . S
O89 C88 1.313 . S
O90 Mg78 2.141 . S
O90 C81 1.289 . S
Mg91 O98 2.141 . S
Mg91 O99 2.048 1_554 S
Mg91 O100 2.048 . S
Mg91 O103 2.141 . S
C92 O93 1.313 . S
C92 O99 1.195 . S
O93 C92 1.313 . S
C94 O95 1.245 . S
C94 O103 1.289 . S
O95 C94 1.245 . S
C96 O97 1.245 1_554 S
C96 O98 1.289 . S
O97 C96 1.245 1_556 S
O98 Mg91 2.141 . S
O98 C96 1.289 . S
O99 Mg91 2.048 1_556 S
O99 C92 1.195 . S
O100 Mg91 2.048 . S
O100 C101 1.190 1_554 S
C101 O100 1.190 1_556 S
C101 O102 1.313 . S
O102 C101 1.313 . S
O103 Mg91 2.141 . S
O103 C94 1.289 . S
Mg104 O111 2.141 . S
Mg104 O112 2.048 . S
Mg104 O113 2.048 . S
Mg104 O116 2.141 . S
C105 O106 1.313 . S
C105 O112 1.195 . S
O106 C105 1.313 . S
C107 O108 1.245 . S
C107 O116 1.289 . S
O108 C107 1.245 . S
C109 O110 1.245 . S
C109 O111 1.289 . S
O110 C109 1.245 . S
O111 Mg104 2.141 . S
O111 C109 1.289 . S
O112 Mg104 2.048 . S
O112 C105 1.195 . S
O113 Mg104 2.048 . S
O113 C114 1.195 . S
C114 O113 1.195 . S
C114 O115 1.313 . S
O115 C114 1.313 . S
O116 Mg104 2.141 . S
O116 C107 1.289 . S
Mg117 O124 2.141 . S
Mg117 O125 2.048 . S
Mg117 O126 2.048 . S
Mg117 O129 2.141 . S
C118 O119 1.313 . S
C118 O125 1.195 . S
O119 C118 1.313 . S
C120 O121 1.245 . S
C120 O129 1.289 . S
O121 C120 1.245 . S
C122 O123 1.245 . S
C122 O124 1.289 . S
O123 C122 1.245 . S
O124 Mg117 2.141 . S
O124 C122 1.289 . S
O125 Mg117 2.048 . S
O125 C118 1.195 . S
O126 Mg117 2.048 . S
O126 C127 1.195 . S
C127 O126 1.195 . S
C127 O128 1.313 . S
O128 C127 1.313 . S
O129 Mg117 2.141 . S
O129 C120 1.289 . S
Mg130 O137 2.141 . S
Mg130 O138 2.048 . S
Mg130 O139 2.048 . S
Mg130 O142 2.141 . S
C131 O132 1.313 . S
C131 O138 1.195 . S
O132 C131 1.313 . S
C133 O134 1.245 . S
C133 O142 1.289 . S
O134 C133 1.245 . S
C135 O136 1.245 . S
C135 O137 1.289 . S
O136 C135 1.245 . S
O137 Mg130 2.141 . S
O137 C135 1.289 . S
O138 Mg130 2.048 . S
O138 C131 1.195 . S
O139 Mg130 2.048 . S
O139 C140 1.195 . S
C140 O139 1.195 . S
C140 O141 1.313 . S
O141 C140 1.313 . S
O142 Mg130 2.141 . S
O142 C133 1.289 . S
Mg143 O150 2.141 . S
Mg143 O151 2.048 . S
Mg143 O152 2.048 . S
Mg143 O155 2.141 . S
C144 O145 1.313 . S
C144 O151 1.195 . S
O145 C144 1.313 . S
C146 O147 1.245 . S
C146 O155 1.289 . S
O147 C146 1.245 . S
C148 O149 1.245 . S
C148 O150 1.289 . S
O149 C148 1.245 . S
O150 Mg143 2.141 . S
O150 C148 1.289 . S
O151 Mg143 2.048 . S
O151 C144 1.195 . S
O152 Mg143 2.048 . S
O152 C153 1.195 . S
C153 O152 1.195 . S
C153 O154 1.313 . S
O154 C153 1.313 . S
O155 Mg143 2.141 . S
O155 C146 1.289 . S
Mg156 O163 2.141 . S
Mg156 O164 2.048 . S
Mg156 O165 2.048 . S
Mg156 O168 2.141 . S
C157 O158 1.313 . S
C157 O164 1.195 . S
O158 C157 1.313 . S
C159 O160 1.245 . S
C159 O168 1.289 . S
O160 C159 1.245 . S
C161 O162 1.245 . S
C161 O163 1.289 . S
O162 C161 1.245 . S
O163 Mg156 2.141 . S
O163 C161 1.289 . S
O164 Mg156 2.048 . S
O164 C157 1.195 . S
O165 Mg156 2.048 . S
O165 C166 1.195 . S
C166 O165 1.195 . S
C166 O167 1.313 . S
O167 C166 1.313 . S
O168 Mg156 2.141 . S
O168 C159 1.289 . S
Mg169 O176 2.141 . S
Mg169 O177 2.048 . S
Mg169 O178 2.048 . S
Mg169 O181 2.141 . S
C170 O171 1.313 . S
C170 O177 1.195 . S
O171 C170 1.313 . S
C172 O173 1.245 . S
C172 O181 1.289 . S
O173 C172 1.245 . S
C174 O175 1.245 . S
C174 O176 1.289 . S
O175 C174 1.245 . S
O176 Mg169 2.141 . S
O176 C174 1.289 . S
O177 Mg169 2.048 . S
O177 C170 1.195 . S
O178 Mg169 2.048 . S
O178 C179 1.195 . S
C179 O178 1.195 . S
C179 O180 1.313 . S
O180 C179 1.313 . S
O181 Mg169 2.141 . S
O181 C172 1.289 . S
Mg182 O189 2.141 . S
Mg182 O190 2.048 . S
Mg182 O191 2.048 . S
Mg182 O194 2.141 . S
C183 O184 1.313 . S
C183 O190 1.195 . S
O184 C183 1.313 . S
C185 O186 1.245 . S
C185 O194 1.289 . S
O186 C185 1.245 . S
C187 O188 1.245 . S
C187 O189 1.289 . S
O188 C187 1.245 . S
O189 Mg182 2.141 . S
O189 C187 1.289 . S
O190 Mg182 2.048 . S
O190 C183 1.195 . S
O191 Mg182 2.048 . S
O191 C192 1.195 . S
C192 O191 1.195 . S
C192 O193 1.313 . S
O193 C192 1.313 . S
O194 Mg182 2.141 . S
O194 C185 1.289 . S
Mg195 O202 2.141 . S
Mg195 O203 2.048 . S
Mg195 O204 2.048 . S
Mg195 O207 2.141 . S
C196 O197 1.313 . S
C196 O203 1.195 . S
O197 C196 1.313 . S
C198 O199 1.245 . S
C198 O207 1.289 . S
O199 C198 1.245 . S
C200 O201 1.245 . S
C200 O202 1.289 . S
O201 C200 1.245 . S
O202 Mg195 2.141 . S
O202 C200 1.289 . S
O203 Mg195 2.048 . S
O203 C196 1.195 . S
O204 Mg195 2.048 . S
O204 C205 1.195 . S
C205 O204 1.195 . S
C205 O206 1.313 . S
O206 C205 1.313 . S
O207 Mg195 2.141 . S
O207 C198 1.289 . S
Mg208 O215 2.141 . S
Mg208 O216 2.048 . S
Mg208 O217 2.048 . S
Mg208 O220 2.141 . S
C209 O210 1.313 . S
C209 O216 1.195 . S
O210 C209 1.313 . S
C211 O212 1.245 . S
C211 O220 1.289 . S
O212 C211 1.245 . S
C213 O214 1.245 . S
C213 O215 1.289 . S
O214 C213 1.245 . S
O215 Mg208 2.141 . S
O215 C213 1.289 . S
O216 Mg208 2.048 . S
O216 C209 1.195 . S
O217 Mg208 2.048 . S
O217 C218 1.195 . S
C218 O217 1.195 . S
C218 O219 1.313 . S
O219 C218 1.313 . S
O220 Mg208 2.141 . S
O220 C211 1.289 . S
Mg221 O228 2.141 . S
Mg221 O229 2.048 . S
Mg221 O230 2.048 . S
Mg221 O233 2.141 . S
C222 O223 1.313 . S
C222 O229 1.195 . S
O223 C222 1.313 . S
C224 O225 1.245 . S
C224 O233 1.289 . S
O225 C224 1.245 . S
C226 O227 1.245 . S
C226 O228 1.289 . S
O227 C226 1.245 . S
O228 Mg221 2.141 . S
O228 C226 1.289 . S
O229 Mg221 2.048 . S
O229 C222 1.195 . S
O230 Mg221 2.048 . S
O230 C231 1.195 . S
C231 O230 1.195 . S
C231 O232 1.313 . S
O232 C231 1.313 . S
O233 Mg221 2.141 . S
O233 C224 1.289 . S
Mg234 O241 2.141 . S
Mg234 O242 2.048 . S
Mg234 O243 2.048 . S
Mg234 O246 2.141 . S
C235 O236 1.313 . S
C235 O242 1.195 . S
O236 C235 1.313 . S
C237 O238 1.245 . S
C237 O246 1.289 . S
O238 C237 1.245 . S
C239 O240 1.245 . S
C239 O241 1.289 . S
O240 C239 1.245 . S
O241 Mg234 2.141 . S
O241 C239 1.289 . S
O242 Mg234 2.048 . S
O242 C235 1.195 . S
O243 Mg234 2.048 . S
O243 C244 1.195 . S
C244 O243 1.195 . S
C244 O245 1.313 . S
O245 C244 1.313 . S
O246 Mg234 2.141 . S
O246 C237 1.289 . S
Mg247 O254 2.141 . S
Mg247 O255 2.048 . S
Mg247 O256 2.048 . S
Mg247 O259 2.141 . S
C248 O249 1.313 . S
C248 O255 1.195 . S
O249 C248 1.313 . S
C250 O251 1.245 . S
C250 O259 1.289 . S
O251 C250 1.245 . S
C252 O253 1.245 . S
C252 O254 1.289 . S
O253 C252 1.245 . S
O254 Mg247 2.141 . S
O254 C252 1.289 . S
O255 Mg247 2.048 . S
O255 C248 1.195 . S
O256 Mg247 2.048 . S
O256 C257 1.195 . S
C257 O256 1.195 . S
C257 O258 1.313 . S
O258 C257 1.313 . S
O259 Mg247 2.141 . S
O259 C250 1.289 . S
Mg260 O267 2.141 . S
Mg260 O268 2.048 . S
Mg260 O269 2.048 . S
Mg260 O272 2.141 . S
C261 O262 1.313 . S
C261 O268 1.195 . S
O262 C261 1.313 . S
C263 O264 1.245 . S
C263 O272 1.289 . S
O264 C263 1.245 . S
C265 O266 1.245 . S
C265 O267 1.289 . S
O266 C265 1.245 . S
O267 Mg260 2.141 . S
O267 C265 1.289 . S
O268 Mg260 2.048 . S
O268 C261 1.195 . S
O269 Mg260 2.048 . S
O269 C270 1.195 . S
C270 O269 1.195 . S
C270 O271 1.313 . S
O271 C270 1.313 . S
O272 Mg260 2.141 . S
O272 C263 1.289 . S
Mg273 O280 2.141 . S
Mg273 O281 2.048 . S
Mg273 O282 2.048 . S
Mg273 O285 2.141 . S
C274 O275 1.313 . S
C274 O281 1.195 . S
O275 C274 1.313 . S
C276 O277 1.245 . S
C276 O285 1.289 . S
O277 C276 1.245 . S
C278 O279 1.245 . S
C278 O280 1.289 . S
O279 C278 1.245 . S
O280 Mg273 2.141 . S
O280 C278 1.289 . S
O281 Mg273 2.048 . S
O281 C274 1.195 . S
O282 Mg273 2.048 . S
O282 C283 1.195 . S
C283 O282 1.195 . S
C283 O284 1.313 . S
O284 C283 1.313 . S
O285 Mg273 2.141 . S
O285 C276 1.289 . S
Mg286 O293 2.141 . S
Mg286 O294 2.048 . S
Mg286 O295 2.048 . S
Mg286 O298 2.141 . S
C287 O288 1.313 . S
C287 O294 1.195 . S
O288 C287 1.313 . S
C289 O290 1.245 . S
C289 O298 1.289 . S
O290 C289 1.245 . S
C291 O292 1.245 . S
C291 O293 1.289 . S
O292 C291 1.245 . S
O293 Mg286 2.141 . S
O293 C291 1.289 . S
O294 Mg286 2.048 . S
O294 C287 1.195 . S
O295 Mg286 2.048 . S
O295 C296 1.195 . S
C296 O295 1.195 . S
C296 O297 1.313 . S
O297 C296 1.313 . S
O298 Mg286 2.141 . S
O298 C289 1.289 . S
Mg299 O306 2.141 . S
Mg299 O307 2.048 . S
Mg299 O308 2.048 . S
Mg299 O311 2.141 . S
C300 O301 1.313 . S
C300 O307 1.195 . S
O301 C300 1.313 . S
C302 O303 1.245 . S
C302 O311 1.289 . S
O303 C302 1.245 . S
C304 O305 1.245 . S
C304 O306 1.289 . S
O305 C304 1.245 . S
O306 Mg299 2.141 . S
O306 C304 1.289 . S
O307 Mg299 2.048 . S
O307 C300 1.195 . S
O308 Mg299 2.048 . S
O308 C309 1.195 . S
C309 O308 1.195 . S
C309 O310 1.313 . S
O310 C309 1.313 . S
O311 Mg299 2.141 . S
O311 C302 1.289 . S
Mg312 O319 2.141 . S
Mg312 O320 2.048 . S
Mg312 O321 2.048 . S
Mg312 O324 2.141 . S
C313 O314 1.313 . S
C313 O320 1.195 . S
O314 C313 1.313 . S
C315 O316 1.245 . S
C315 O324 1.289 . S
O316 C315 1.245 . S
C317 O318 1.245 . S
C317 O319 1.289 . S
O318 C317 1.245 . S
O319 Mg312 2.141 . S
O319 C317 1.289 . S
O320 Mg312 2.048 . S
O320 C313 1.195 . S
O321 Mg312 2.048 . S
O321 C322 1.195 . S
C322 O321 1.195 . S
C322 O323 1.313 . S
O323 C322 1.313 . S
O324 Mg312 2.141 . S
O324 C315 1.289 . S
Mg325 O332 2.141 . S
Mg325 O333 2.048 . S
Mg325 O334 2.048 . S
Mg325 O337 2.141 . S
C326 O327 1.313 . S
C326 O333 1.195 . S
O327 C326 1.313 . S
C328 O329 1.245 . S
C328 O337 1.289 . S
O329 C328 1.245 . S
C330 O331 1.245 . S
C330 O332 1.289 . S
O331 C330 1.245 . S
O332 Mg325 2.141 . S
O332 C330 1.289 . S
O333 Mg325 2.048 . S
O333 C326 1.195 . S
O334 Mg325 2.048 . S
O334 C335 1.195 . S
C335 O334 1.195 . S
C335 O336 1.313 . S
O336 C335 1.313 . S
O337 Mg325 2.141 . S
O337 C328 1.289 . S
Mg338 O345 2.141 1_554 S
Mg338 O346 2.049 . S
Mg338 O347 2.047 . S
Mg338 O350 2.140 1_554 S
C339 O340 1.313 . S
C339 O346 1.195 . S
O340 C339 1.313 . S
C341 O342 1.245 . S
C341 O350 1.289 . S
O342 C341 1.245 . S
C343 O344 1.245 . S
C343 O345 1.289 . S
O344 C343 1.245 . S
O345 Mg338 2.141 1_556 S
O345 C343 1.289 . S
O346 Mg338 2.049 . S
O346 C339 1.195 . S
O347 Mg338 2.047 . S
O347 C348 1.201 . S
C348 O347 1.201 . S
C348 O349 1.313 . S
O349 C348 1.313 . S
O350 Mg338 2.140 1_556 S
O350 C341 1.289 . S
Mg351 O358 2.141 1_554 S
Mg351 O359 2.049 . S
Mg351 O360 2.047 . S
Mg351 O363 2.140 1_554 S
C352 O353 1.313 . S
C352 O359 1.195 . S
O353 C352 1.313 . S
C354 O355 1.245 . S
C354 O363 1.289 . S
O355 C354 1.245 . S
C356 O357 1.245 . S
C356 O358 1.289 . S
O357 C356 1.245 . S
O358 Mg351 2.141 1_556 S
O358 C356 1.289 . S
O359 Mg351 2.049 . S
O359 C352 1.195 . S
O360 Mg351 2.047 . S
O360 C361 1.201 . S
C361 O360 1.201 . S
C361 O362 1.313 . S
O362 C361 1.313 . S
O363 Mg351 2.140 1_556 S
O363 C354 1.289 . S
Mg364 O371 2.141 . S
Mg364 O372 2.048 . S
Mg364 O373 2.048 . S
Mg364 O376 2.141 . S
C365 O366 1.313 . S
C365 O372 1.195 . S
O366 C365 1.313 . S
C367 O368 1.245 . S
C367 O376 1.289 . S
O368 C367 1.245 . S
C369 O370 1.245 . S
C369 O371 1.289 . S
O370 C369 1.245 . S
O371 Mg364 2.141 . S
O371 C369 1.289 . S
O372 Mg364 2.048 . S
O372 C365 1.195 . S
O373 Mg364 2.048 . S
O373 C374 1.195 . S
C374 O373 1.195 . S
C374 O375 1.313 . S
O375 C374 1.313 . S
O376 Mg364 2.141 . S
O376 C367 1.289 . S
Mg377 O384 2.141 . S
Mg377 O385 2.048 . S
Mg377 O386 2.048 . S
Mg377 O389 2.141 . S
C378 O379 1.313 . S
C378 O385 1.195 . S
O379 C378 1.313 . S
C380 O381 1.245 . S
C380 O389 1.289 . S
O381 C380 1.245 . S
C382 O383 1.245 . S
C382 O384 1.289 . S
O383 C382 1.245 . S
O384 Mg377 2.141 . S
O384 C382 1.289 . S
O385 Mg377 2.048 . S
O385 C378 1.195 . S
O386 Mg377 2.048 . S
O386 C387 1.195 . S
C387 O386 1.195 . S
C387 O388 1.313 . S
O388 C387 1.313 . S
O389 Mg377 2.141 . S
O389 C380 1.289 . S
Mg390 O397 2.141 . S
Mg390 O398 2.048 1_554 S
Mg390 O399 2.048 . S
Mg390 O402 2.141 . S
C391 O392 1.313 . S
C391 O398 1.195 . S
O392 C391 1.313 . S
C393 O394 1.245 . S
C393 O402 1.289 . S
O394 C393 1.245 . S
C395 O396 1.245 1_554 S
C395 O397 1.289 . S
O396 C395 1.245 1_556 S
O397 Mg390 2.141 . S
O397 C395 1.289 . S
O398 Mg390 2.048 1_556 S
O398 C391 1.195 . S
O399 Mg390 2.048 . S
O399 C400 1.190 1_554 S
C400 O399 1.190 1_556 S
C400 O401 1.313 . S
O401 C400 1.313 . S
O402 Mg390 2.141 . S
O402 C393 1.289 . S
Mg403 O410 2.141 . S
Mg403 O411 2.048 1_554 S
Mg403 O412 2.048 . S
Mg403 O415 2.141 . S
C404 O405 1.313 . S
C404 O411 1.195 . S
O405 C404 1.313 . S
C406 O407 1.245 . S
C406 O415 1.289 . S
O407 C406 1.245 . S
C408 O409 1.245 1_554 S
C408 O410 1.289 . S
O409 C408 1.245 1_556 S
O410 Mg403 2.141 . S
O410 C408 1.289 . S
O411 Mg403 2.048 1_556 S
O411 C404 1.195 . S
O412 Mg403 2.048 . S
O412 C413 1.190 1_554 S
C413 O412 1.190 1_556 S
C413 O414 1.313 . S
O414 C413 1.313 . S
O415 Mg403 2.141 . S
O415 C406 1.289 . S
C416 C417 1.391 . S
C416 C418 1.394 . S
C416 H432 0.931 . S
C417 C416 1.391 . S
C417 C421 1.376 . S
C418 C416 1.394 . S
C418 C419 1.369 . S
C418 C422 1.531 . S
C419 C418 1.369 . S
C419 C420 1.410 . S
C419 C427 1.503 . S
C420 C419 1.410 . S
C420 C421 1.392 . S
C420 C423 1.511 . S
C421 C417 1.376 . S
C421 C420 1.392 . S
C421 H433 0.929 . S
C422 C418 1.531 . S
C422 H434 0.960 . S
C422 H435 0.962 . S
C422 H436 0.960 . S
C423 C420 1.511 . S
C423 H437 0.961 . S
C423 H438 0.961 . S
C423 H439 0.961 . S
C424 C425 1.370 . S
C424 C426 1.363 . S
C424 H440 0.931 . S
C425 C424 1.370 . S
C425 C429 1.408 . S
C426 C424 1.363 . S
C426 C427 1.370 . S
C426 C430 1.524 . S
C427 C419 1.503 . S
C427 C426 1.370 . S
C427 C428 1.403 . S
C428 C427 1.403 . S
C428 C429 1.404 . S
C428 C431 1.539 . S
C429 C425 1.408 . S
C429 C428 1.404 . S
C429 H441 0.930 . S
C430 C426 1.524 . S
C430 H442 0.956 . S
C430 H443 0.961 . S
C430 H444 0.961 . S
C431 C428 1.539 . S
C431 H445 0.958 . S
C431 H446 0.961 . S
C431 H447 0.960 . S
H432 C416 0.931 . S
H433 C421 0.929 . S
H434 C422 0.960 . S
H435 C422 0.962 . S
H436 C422 0.960 . S
H437 C423 0.961 . S
H438 C423 0.961 . S
H439 C423 0.961 . S
H440 C424 0.931 . S
H441 C429 0.930 . S
H442 C430 0.956 . S
H443 C430 0.961 . S
H444 C430 0.961 . S
H445 C431 0.958 . S
H446 C431 0.961 . S
H447 C431 0.960 . S
C448 C449 1.391 . S
C448 C450 1.394 . S
C448 H464 0.931 . S
C449 C448 1.391 . S
C449 C453 1.376 . S
C450 C448 1.394 . S
C450 C451 1.369 . S
C450 C454 1.531 . S
C451 C450 1.369 . S
C451 C452 1.410 . S
C451 C459 1.503 . S
C452 C451 1.410 . S
C452 C453 1.392 . S
C452 C455 1.511 . S
C453 C449 1.376 . S
C453 C452 1.392 . S
C453 H465 0.929 . S
C454 C450 1.531 . S
C454 H466 0.960 . S
C454 H467 0.962 . S
C454 H468 0.960 . S
C455 C452 1.511 . S
C455 H469 0.961 . S
C455 H470 0.961 . S
C455 H471 0.961 . S
C456 C457 1.370 . S
C456 C458 1.363 . S
C456 H472 0.931 . S
C457 C456 1.370 . S
C457 C461 1.408 . S
C458 C456 1.363 . S
C458 C459 1.370 . S
C458 C462 1.524 . S
C459 C451 1.503 . S
C459 C458 1.370 . S
C459 C460 1.403 . S
C460 C459 1.403 . S
C460 C461 1.404 . S
C460 C463 1.539 . S
C461 C457 1.408 . S
C461 C460 1.404 . S
C461 H473 0.930 . S
C462 C458 1.524 . S
C462 H474 0.956 . S
C462 H475 0.961 . S
C462 H476 0.961 . S
C463 C460 1.539 . S
C463 H477 0.958 . S
C463 H478 0.961 . S
C463 H479 0.960 . S
H464 C448 0.931 . S
H465 C453 0.929 . S
H466 C454 0.960 . S
H467 C454 0.962 . S
H468 C454 0.960 . S
H469 C455 0.961 . S
H470 C455 0.961 . S
H471 C455 0.961 . S
H472 C456 0.931 . S
H473 C461 0.930 . S
H474 C462 0.956 . S
H475 C462 0.961 . S
H476 C462 0.961 . S
H477 C463 0.958 . S
H478 C463 0.961 . S
H479 C463 0.960 . S
C480 C481 1.391 . S
C480 C482 1.394 . S
C480 H496 0.931 . S
C481 C480 1.391 . S
C481 C485 1.376 . S
C482 C480 1.394 . S
C482 C483 1.369 . S
C482 C486 1.531 . S
C483 C482 1.369 . S
C483 C484 1.410 . S
C483 C491 1.503 . S
C484 C483 1.410 . S
C484 C485 1.392 . S
C484 C487 1.511 . S
C485 C481 1.376 . S
C485 C484 1.392 . S
C485 H497 0.929 . S
C486 C482 1.531 . S
C486 H498 0.960 . S
C486 H499 0.962 . S
C486 H500 0.960 . S
C487 C484 1.511 . S
C487 H501 0.961 . S
C487 H502 0.961 . S
C487 H503 0.961 . S
C488 C489 1.370 . S
C488 C490 1.363 . S
C488 H504 0.931 . S
C489 C488 1.370 . S
C489 C493 1.408 . S
C490 C488 1.363 . S
C490 C491 1.370 . S
C490 C494 1.524 . S
C491 C483 1.503 . S
C491 C490 1.370 . S
C491 C492 1.403 . S
C492 C491 1.403 . S
C492 C493 1.404 . S
C492 C495 1.539 . S
C493 C489 1.408 . S
C493 C492 1.404 . S
C493 H505 0.930 . S
C494 C490 1.524 . S
C494 H506 0.956 . S
C494 H507 0.961 . S
C494 H508 0.961 . S
C495 C492 1.539 . S
C495 H509 0.958 . S
C495 H510 0.961 . S
C495 H511 0.960 . S
H496 C480 0.931 . S
H497 C485 0.929 . S
H498 C486 0.960 . S
H499 C486 0.962 . S
H500 C486 0.960 . S
H501 C487 0.961 . S
H502 C487 0.961 . S
H503 C487 0.961 . S
H504 C488 0.931 . S
H505 C493 0.930 . S
H506 C494 0.956 . S
H507 C494 0.961 . S
H508 C494 0.961 . S
H509 C495 0.958 . S
H510 C495 0.961 . S
H511 C495 0.960 . S
C512 C513 1.391 . S
C512 C514 1.394 . S
C512 H528 0.931 . S
C513 C512 1.391 . S
C513 C517 1.376 . S
C514 C512 1.394 . S
C514 C515 1.369 . S
C514 C518 1.531 . S
C515 C514 1.369 . S
C515 C516 1.410 . S
C515 C523 1.503 . S
C516 C515 1.410 . S
C516 C517 1.392 . S
C516 C519 1.511 . S
C517 C513 1.376 . S
C517 C516 1.392 . S
C517 H529 0.929 . S
C518 C514 1.531 . S
C518 H530 0.960 . S
C518 H531 0.962 . S
C518 H532 0.960 . S
C519 C516 1.511 . S
C519 H533 0.961 . S
C519 H534 0.961 . S
C519 H535 0.961 . S
C520 C521 1.370 . S
C520 C522 1.363 . S
C520 H536 0.931 . S
C521 C520 1.370 . S
C521 C525 1.408 . S
C522 C520 1.363 . S
C522 C523 1.370 . S
C522 C526 1.524 . S
C523 C515 1.503 . S
C523 C522 1.370 . S
C523 C524 1.403 . S
C524 C523 1.403 . S
C524 C525 1.404 . S
C524 C527 1.539 . S
C525 C521 1.408 . S
C525 C524 1.404 . S
C525 H537 0.930 . S
C526 C522 1.524 . S
C526 H538 0.956 . S
C526 H539 0.961 . S
C526 H540 0.961 . S
C527 C524 1.539 . S
C527 H541 0.958 . S
C527 H542 0.961 . S
C527 H543 0.960 . S
H528 C512 0.931 . S
H529 C517 0.929 . S
H530 C518 0.960 . S
H531 C518 0.962 . S
H532 C518 0.960 . S
H533 C519 0.961 . S
H534 C519 0.961 . S
H535 C519 0.961 . S
H536 C520 0.931 . S
H537 C525 0.930 . S
H538 C526 0.956 . S
H539 C526 0.961 . S
H540 C526 0.961 . S
H541 C527 0.958 . S
H542 C527 0.961 . S
H543 C527 0.960 . S
C544 C545 1.391 . S
C544 C546 1.394 . S
C544 H560 0.931 . S
C545 C544 1.391 . S
C545 C549 1.376 . S
C546 C544 1.394 . S
C546 C547 1.369 . S
C546 C550 1.531 . S
C547 C546 1.369 . S
C547 C548 1.410 . S
C547 C555 1.503 . S
C548 C547 1.410 . S
C548 C549 1.392 . S
C548 C551 1.511 . S
C549 C545 1.376 . S
C549 C548 1.392 . S
C549 H561 0.929 . S
C550 C546 1.531 . S
C550 H562 0.960 . S
C550 H563 0.962 . S
C550 H564 0.960 . S
C551 C548 1.511 . S
C551 H565 0.961 . S
C551 H566 0.961 . S
C551 H567 0.961 . S
C552 C553 1.370 . S
C552 C554 1.363 . S
C552 H568 0.931 . S
C553 C552 1.370 . S
C553 C557 1.408 . S
C554 C552 1.363 . S
C554 C555 1.370 . S
C554 C558 1.524 . S
C555 C547 1.503 . S
C555 C554 1.370 . S
C555 C556 1.403 . S
C556 C555 1.403 . S
C556 C557 1.404 . S
C556 C559 1.539 . S
C557 C553 1.408 . S
C557 C556 1.404 . S
C557 H569 0.930 . S
C558 C554 1.524 . S
C558 H570 0.956 . S
C558 H571 0.961 . S
C558 H572 0.961 . S
C559 C556 1.539 . S
C559 H573 0.958 . S
C559 H574 0.961 . S
C559 H575 0.960 . S
H560 C544 0.931 . S
H561 C549 0.929 . S
H562 C550 0.960 . S
H563 C550 0.962 . S
H564 C550 0.960 . S
H565 C551 0.961 . S
H566 C551 0.961 . S
H567 C551 0.961 . S
H568 C552 0.931 . S
H569 C557 0.930 . S
H570 C558 0.956 . S
H571 C558 0.961 . S
H572 C558 0.961 . S
H573 C559 0.958 . S
H574 C559 0.961 . S
H575 C559 0.960 . S
C576 C577 1.391 . S
C576 C578 1.394 . S
C576 H592 0.931 . S
C577 C576 1.391 . S
C577 C581 1.376 . S
C578 C576 1.394 . S
C578 C579 1.369 . S
C578 C582 1.531 . S
C579 C578 1.369 . S
C579 C580 1.410 . S
C579 C587 1.503 . S
C580 C579 1.410 . S
C580 C581 1.392 . S
C580 C583 1.511 . S
C581 C577 1.376 . S
C581 C580 1.392 . S
C581 H593 0.929 . S
C582 C578 1.531 . S
C582 H594 0.960 . S
C582 H595 0.962 . S
C582 H596 0.960 . S
C583 C580 1.511 . S
C583 H597 0.961 . S
C583 H598 0.961 . S
C583 H599 0.961 . S
C584 C585 1.370 . S
C584 C586 1.363 . S
C584 H600 0.931 . S
C585 C584 1.370 . S
C585 C589 1.408 . S
C586 C584 1.363 . S
C586 C587 1.370 . S
C586 C590 1.524 . S
C587 C579 1.503 . S
C587 C586 1.370 . S
C587 C588 1.403 . S
C588 C587 1.403 . S
C588 C589 1.404 . S
C588 C591 1.539 . S
C589 C585 1.408 . S
C589 C588 1.404 . S
C589 H601 0.930 . S
C590 C586 1.524 . S
C590 H602 0.956 . S
C590 H603 0.961 . S
C590 H604 0.961 . S
C591 C588 1.539 . S
C591 H605 0.958 . S
C591 H606 0.961 . S
C591 H607 0.960 . S
H592 C576 0.931 . S
H593 C581 0.929 . S
H594 C582 0.960 . S
H595 C582 0.962 . S
H596 C582 0.960 . S
H597 C583 0.961 . S
H598 C583 0.961 . S
H599 C583 0.961 . S
H600 C584 0.931 . S
H601 C589 0.930 . S
H602 C590 0.956 . S
H603 C590 0.961 . S
H604 C590 0.961 . S
H605 C591 0.958 . S
H606 C591 0.961 . S
H607 C591 0.960 . S
C608 C609 1.391 . S
C608 C610 1.394 . S
C608 H624 0.931 . S
C609 C608 1.391 . S
C609 C613 1.376 . S
C610 C608 1.394 . S
C610 C611 1.369 . S
C610 C614 1.531 . S
C611 C610 1.369 . S
C611 C612 1.410 . S
C611 C619 1.503 . S
C612 C611 1.410 . S
C612 C613 1.392 . S
C612 C615 1.511 . S
C613 C609 1.376 . S
C613 C612 1.392 . S
C613 H625 0.929 . S
C614 C610 1.531 . S
C614 H626 0.960 . S
C614 H627 0.962 . S
C614 H628 0.960 . S
C615 C612 1.511 . S
C615 H629 0.961 . S
C615 H630 0.961 . S
C615 H631 0.961 . S
C616 C617 1.370 . S
C616 C618 1.363 . S
C616 H632 0.931 . S
C617 C616 1.370 . S
C617 C621 1.408 . S
C618 C616 1.363 . S
C618 C619 1.370 . S
C618 C622 1.524 . S
C619 C611 1.503 . S
C619 C618 1.370 . S
C619 C620 1.403 . S
C620 C619 1.403 . S
C620 C621 1.404 . S
C620 C623 1.539 . S
C621 C617 1.408 . S
C621 C620 1.404 . S
C621 H633 0.930 . S
C622 C618 1.524 . S
C622 H634 0.956 . S
C622 H635 0.961 . S
C622 H636 0.961 . S
C623 C620 1.539 . S
C623 H637 0.958 . S
C623 H638 0.961 . S
C623 H639 0.960 . S
H624 C608 0.931 . S
H625 C613 0.929 . S
H626 C614 0.960 . S
H627 C614 0.962 . S
H628 C614 0.960 . S
H629 C615 0.961 . S
H630 C615 0.961 . S
H631 C615 0.961 . S
H632 C616 0.931 . S
H633 C621 0.930 . S
H634 C622 0.956 . S
H635 C622 0.961 . S
H636 C622 0.961 . S
H637 C623 0.958 . S
H638 C623 0.961 . S
H639 C623 0.960 . S
C640 C641 1.391 . S
C640 C642 1.394 . S
C640 H656 0.931 . S
C641 C640 1.391 . S
C641 C645 1.376 . S
C642 C640 1.394 . S
C642 C643 1.369 . S
C642 C646 1.531 . S
C643 C642 1.369 . S
C643 C644 1.410 . S
C643 C651 1.503 . S
C644 C643 1.410 . S
C644 C645 1.392 . S
C644 C647 1.511 . S
C645 C641 1.376 . S
C645 C644 1.392 . S
C645 H657 0.929 . S
C646 C642 1.531 . S
C646 H658 0.960 . S
C646 H659 0.962 . S
C646 H660 0.960 . S
C647 C644 1.511 . S
C647 H661 0.961 . S
C647 H662 0.961 . S
C647 H663 0.961 . S
C648 C649 1.370 . S
C648 C650 1.363 . S
C648 H664 0.931 . S
C649 C648 1.370 . S
C649 C653 1.408 . S
C650 C648 1.363 . S
C650 C651 1.370 . S
C650 C654 1.524 . S
C651 C643 1.503 . S
C651 C650 1.370 . S
C651 C652 1.403 . S
C652 C651 1.403 . S
C652 C653 1.404 . S
C652 C655 1.539 . S
C653 C649 1.408 . S
C653 C652 1.404 . S
C653 H665 0.930 . S
C654 C650 1.524 . S
C654 H666 0.956 . S
C654 H667 0.961 . S
C654 H668 0.961 . S
C655 C652 1.539 . S
C655 H669 0.958 . S
C655 H670 0.961 . S
C655 H671 0.960 . S
H656 C640 0.931 . S
H657 C645 0.929 . S
H658 C646 0.960 . S
H659 C646 0.962 . S
H660 C646 0.960 . S
H661 C647 0.961 . S
H662 C647 0.961 . S
H663 C647 0.961 . S
H664 C648 0.931 . S
H665 C653 0.930 . S
H666 C654 0.956 . S
H667 C654 0.961 . S
H668 C654 0.961 . S
H669 C655 0.958 . S
H670 C655 0.961 . S
H671 C655 0.960 . S
C672 C673 1.391 . S
C672 C674 1.394 . S
C672 H688 0.931 . S
C673 C672 1.391 . S
C673 C677 1.376 . S
C674 C672 1.394 . S
C674 C675 1.369 . S
C674 C678 1.531 . S
C675 C674 1.369 . S
C675 C676 1.410 . S
C675 C683 1.503 . S
C676 C675 1.410 . S
C676 C677 1.392 . S
C676 C679 1.511 . S
C677 C673 1.376 . S
C677 C676 1.392 . S
C677 H689 0.929 . S
C678 C674 1.531 . S
C678 H690 0.960 . S
C678 H691 0.962 . S
C678 H692 0.960 . S
C679 C676 1.511 . S
C679 H693 0.961 . S
C679 H694 0.961 . S
C679 H695 0.961 . S
C680 C681 1.370 . S
C680 C682 1.363 . S
C680 H696 0.931 . S
C681 C680 1.370 . S
C681 C685 1.408 . S
C682 C680 1.363 . S
C682 C683 1.370 . S
C682 C686 1.524 . S
C683 C675 1.503 . S
C683 C682 1.370 . S
C683 C684 1.403 . S
C684 C683 1.403 . S
C684 C685 1.404 . S
C684 C687 1.539 . S
C685 C681 1.408 . S
C685 C684 1.404 . S
C685 H697 0.930 . S
C686 C682 1.524 . S
C686 H698 0.956 . S
C686 H699 0.961 . S
C686 H700 0.961 . S
C687 C684 1.539 . S
C687 H701 0.958 . S
C687 H702 0.961 . S
C687 H703 0.960 . S
H688 C672 0.931 . S
H689 C677 0.929 . S
H690 C678 0.960 . S
H691 C678 0.962 . S
H692 C678 0.960 . S
H693 C679 0.961 . S
H694 C679 0.961 . S
H695 C679 0.961 . S
H696 C680 0.931 . S
H697 C685 0.930 . S
H698 C686 0.956 . S
H699 C686 0.961 . S
H700 C686 0.961 . S
H701 C687 0.958 . S
H702 C687 0.961 . S
H703 C687 0.960 . S
C704 C705 1.391 . S
C704 C706 1.394 . S
C704 H720 0.931 . S
C705 C704 1.391 . S
C705 C709 1.376 . S
C706 C704 1.394 . S
C706 C707 1.369 . S
C706 C710 1.531 . S
C707 C706 1.369 . S
C707 C708 1.410 . S
C707 C715 1.503 . S
C708 C707 1.410 . S
C708 C709 1.392 . S
C708 C711 1.511 . S
C709 C705 1.376 . S
C709 C708 1.392 . S
C709 H721 0.929 . S
C710 C706 1.531 . S
C710 H722 0.960 . S
C710 H723 0.962 . S
C710 H724 0.960 . S
C711 C708 1.511 . S
C711 H725 0.961 . S
C711 H726 0.961 . S
C711 H727 0.961 . S
C712 C713 1.370 . S
C712 C714 1.363 . S
C712 H728 0.931 . S
C713 C712 1.370 . S
C713 C717 1.408 . S
C714 C712 1.363 . S
C714 C715 1.370 . S
C714 C718 1.524 . S
C715 C707 1.503 . S
C715 C714 1.370 . S
C715 C716 1.403 . S
C716 C715 1.403 . S
C716 C717 1.404 . S
C716 C719 1.539 . S
C717 C713 1.408 . S
C717 C716 1.404 . S
C717 H729 0.930 . S
C718 C714 1.524 . S
C718 H730 0.956 . S
C718 H731 0.961 . S
C718 H732 0.961 . S
C719 C716 1.539 . S
C719 H733 0.958 . S
C719 H734 0.961 . S
C719 H735 0.960 . S
H720 C704 0.931 . S
H721 C709 0.929 . S
H722 C710 0.960 . S
H723 C710 0.962 . S
H724 C710 0.960 . S
H725 C711 0.961 . S
H726 C711 0.961 . S
H727 C711 0.961 . S
H728 C712 0.931 . S
H729 C717 0.930 . S
H730 C718 0.956 . S
H731 C718 0.961 . S
H732 C718 0.961 . S
H733 C719 0.958 . S
H734 C719 0.961 . S
H735 C719 0.960 . S
C736 C737 1.391 . S
C736 C738 1.394 . S
C736 H752 0.931 . S
C737 C736 1.391 . S
C737 C741 1.376 . S
C738 C736 1.394 . S
C738 C739 1.369 . S
C738 C742 1.531 . S
C739 C738 1.369 . S
C739 C740 1.410 . S
C739 C747 1.503 . S
C740 C739 1.410 . S
C740 C741 1.392 . S
C740 C743 1.511 . S
C741 C737 1.376 . S
C741 C740 1.392 . S
C741 H753 0.929 . S
C742 C738 1.531 . S
C742 H754 0.960 . S
C742 H755 0.962 . S
C742 H756 0.960 . S
C743 C740 1.511 . S
C743 H757 0.961 . S
C743 H758 0.961 . S
C743 H759 0.961 . S
C744 C745 1.370 . S
C744 C746 1.363 . S
C744 H760 0.931 . S
C745 C744 1.370 . S
C745 C749 1.408 . S
C746 C744 1.363 . S
C746 C747 1.370 . S
C746 C750 1.524 . S
C747 C739 1.503 . S
C747 C746 1.370 . S
C747 C748 1.403 . S
C748 C747 1.403 . S
C748 C749 1.404 . S
C748 C751 1.539 . S
C749 C745 1.408 . S
C749 C748 1.404 . S
C749 H761 0.930 . S
C750 C746 1.524 . S
C750 H762 0.956 . S
C750 H763 0.961 . S
C750 H764 0.961 . S
C751 C748 1.539 . S
C751 H765 0.958 . S
C751 H766 0.961 . S
C751 H767 0.960 . S
H752 C736 0.931 . S
H753 C741 0.929 . S
H754 C742 0.960 . S
H755 C742 0.962 . S
H756 C742 0.960 . S
H757 C743 0.961 . S
H758 C743 0.961 . S
H759 C743 0.961 . S
H760 C744 0.931 . S
H761 C749 0.930 . S
H762 C750 0.956 . S
H763 C750 0.961 . S
H764 C750 0.961 . S
H765 C751 0.958 . S
H766 C751 0.961 . S
H767 C751 0.960 . S
C768 C769 1.391 . S
C768 C770 1.394 . S
C768 H784 0.931 . S
C769 C768 1.391 . S
C769 C773 1.376 . S
C770 C768 1.394 . S
C770 C771 1.369 . S
C770 C774 1.531 . S
C771 C770 1.369 . S
C771 C772 1.410 . S
C771 C779 1.503 . S
C772 C771 1.410 . S
C772 C773 1.392 . S
C772 C775 1.511 . S
C773 C769 1.376 . S
C773 C772 1.392 . S
C773 H785 0.929 . S
C774 C770 1.531 . S
C774 H786 0.960 . S
C774 H787 0.962 . S
C774 H788 0.960 . S
C775 C772 1.511 . S
C775 H789 0.961 . S
C775 H790 0.961 . S
C775 H791 0.961 . S
C776 C777 1.370 . S
C776 C778 1.363 . S
C776 H792 0.931 . S
C777 C776 1.370 . S
C777 C781 1.408 . S
C778 C776 1.363 . S
C778 C779 1.370 . S
C778 C782 1.524 . S
C779 C771 1.503 . S
C779 C778 1.370 . S
C779 C780 1.403 . S
C780 C779 1.403 . S
C780 C781 1.404 . S
C780 C783 1.539 . S
C781 C777 1.408 . S
C781 C780 1.404 . S
C781 H793 0.930 . S
C782 C778 1.524 . S
C782 H794 0.956 . S
C782 H795 0.961 . S
C782 H796 0.961 . S
C783 C780 1.539 . S
C783 H797 0.958 . S
C783 H798 0.961 . S
C783 H799 0.960 . S
H784 C768 0.931 . S
H785 C773 0.929 . S
H786 C774 0.960 . S
H787 C774 0.962 . S
H788 C774 0.960 . S
H789 C775 0.961 . S
H790 C775 0.961 . S
H791 C775 0.961 . S
H792 C776 0.931 . S
H793 C781 0.930 . S
H794 C782 0.956 . S
H795 C782 0.961 . S
H796 C782 0.961 . S
H797 C783 0.958 . S
H798 C783 0.961 . S
H799 C783 0.960 . S
C800 C801 1.391 . S
C800 C802 1.394 . S
C800 H816 0.931 . S
C801 C800 1.391 . S
C801 C805 1.376 . S
C802 C800 1.394 . S
C802 C803 1.369 . S
C802 C806 1.531 . S
C803 C802 1.369 . S
C803 C804 1.410 . S
C803 C811 1.503 . S
C804 C803 1.410 . S
C804 C805 1.392 . S
C804 C807 1.511 . S
C805 C801 1.376 . S
C805 C804 1.392 . S
C805 H817 0.929 . S
C806 C802 1.531 . S
C806 H818 0.960 . S
C806 H819 0.962 . S
C806 H820 0.960 . S
C807 C804 1.511 . S
C807 H821 0.961 . S
C807 H822 0.961 . S
C807 H823 0.961 . S
C808 C809 1.370 . S
C808 C810 1.363 . S
C808 H824 0.931 . S
C809 C808 1.370 . S
C809 C813 1.408 . S
C810 C808 1.363 . S
C810 C811 1.370 . S
C810 C814 1.524 . S
C811 C803 1.503 . S
C811 C810 1.370 . S
C811 C812 1.403 . S
C812 C811 1.403 . S
C812 C813 1.404 . S
C812 C815 1.539 . S
C813 C809 1.408 . S
C813 C812 1.404 . S
C813 H825 0.930 . S
C814 C810 1.524 . S
C814 H826 0.956 . S
C814 H827 0.961 . S
C814 H828 0.961 . S
C815 C812 1.539 . S
C815 H829 0.958 . S
C815 H830 0.961 . S
C815 H831 0.960 . S
H816 C800 0.931 . S
H817 C805 0.929 . S
H818 C806 0.960 . S
H819 C806 0.962 . S
H820 C806 0.960 . S
H821 C807 0.961 . S
H822 C807 0.961 . S
H823 C807 0.961 . S
H824 C808 0.931 . S
H825 C813 0.930 . S
H826 C814 0.956 . S
H827 C814 0.961 . S
H828 C814 0.961 . S
H829 C815 0.958 . S
H830 C815 0.961 . S
H831 C815 0.960 . S
C832 C833 1.391 . S
C832 C834 1.394 . S
C832 H848 0.931 . S
C833 C832 1.391 . S
C833 C837 1.376 . S
C834 C832 1.394 . S
C834 C835 1.369 . S
C834 C838 1.531 . S
C835 C834 1.369 . S
C835 C836 1.410 . S
C835 C843 1.503 . S
C836 C835 1.410 . S
C836 C837 1.392 . S
C836 C839 1.511 . S
C837 C833 1.376 . S
C837 C836 1.392 . S
C837 H849 0.929 . S
C838 C834 1.531 . S
C838 H850 0.960 . S
C838 H851 0.962 . S
C838 H852 0.960 . S
C839 C836 1.511 . S
C839 H853 0.961 . S
C839 H854 0.961 . S
C839 H855 0.961 . S
C840 C841 1.370 . S
C840 C842 1.363 . S
C840 H856 0.931 . S
C841 C840 1.370 . S
C841 C845 1.408 . S
C842 C840 1.363 . S
C842 C843 1.370 . S
C842 C846 1.524 . S
C843 C835 1.503 . S
C843 C842 1.370 . S
C843 C844 1.403 . S
C844 C843 1.403 . S
C844 C845 1.404 . S
C844 C847 1.539 . S
C845 C841 1.408 . S
C845 C844 1.404 . S
C845 H857 0.930 . S
C846 C842 1.524 . S
C846 H858 0.956 . S
C846 H859 0.961 . S
C846 H860 0.961 . S
C847 C844 1.539 . S
C847 H861 0.958 . S
C847 H862 0.961 . S
C847 H863 0.960 . S
H848 C832 0.931 . S
H849 C837 0.929 . S
H850 C838 0.960 . S
H851 C838 0.962 . S
H852 C838 0.960 . S
H853 C839 0.961 . S
H854 C839 0.961 . S
H855 C839 0.961 . S
H856 C840 0.931 . S
H857 C845 0.930 . S
H858 C846 0.956 . S
H859 C846 0.961 . S
H860 C846 0.961 . S
H861 C847 0.958 . S
H862 C847 0.961 . S
H863 C847 0.960 . S
C864 C865 1.391 . S
C864 C866 1.394 . S
C864 H880 0.931 . S
C865 C864 1.391 . S
C865 C869 1.376 . S
C866 C864 1.394 . S
C866 C867 1.369 . S
C866 C870 1.531 . S
C867 C866 1.369 . S
C867 C868 1.410 . S
C867 C875 1.503 . S
C868 C867 1.410 . S
C868 C869 1.392 . S
C868 C871 1.511 . S
C869 C865 1.376 . S
C869 C868 1.392 . S
C869 H881 0.929 . S
C870 C866 1.531 . S
C870 H882 0.960 . S
C870 H883 0.962 . S
C870 H884 0.960 . S
C871 C868 1.511 . S
C871 H885 0.961 . S
C871 H886 0.961 . S
C871 H887 0.961 . S
C872 C873 1.370 . S
C872 C874 1.363 . S
C872 H888 0.931 . S
C873 C872 1.370 . S
C873 C877 1.408 . S
C874 C872 1.363 . S
C874 C875 1.370 . S
C874 C878 1.524 . S
C875 C867 1.503 . S
C875 C874 1.370 . S
C875 C876 1.403 . S
C876 C875 1.403 . S
C876 C877 1.404 . S
C876 C879 1.539 . S
C877 C873 1.408 . S
C877 C876 1.404 . S
C877 H889 0.930 . S
C878 C874 1.524 . S
C878 H890 0.956 . S
C878 H891 0.961 . S
C878 H892 0.961 . S
C879 C876 1.539 . S
C879 H893 0.958 . S
C879 H894 0.961 . S
C879 H895 0.960 . S
H880 C864 0.931 . S
H881 C869 0.929 . S
H882 C870 0.960 . S
H883 C870 0.962 . S
H884 C870 0.960 . S
H885 C871 0.961 . S
H886 C871 0.961 . S
H887 C871 0.961 . S
H888 C872 0.931 . S
H889 C877 0.930 . S
H890 C878 0.956 . S
H891 C878 0.961 . S
H892 C878 0.961 . S
H893 C879 0.958 . S
H894 C879 0.961 . S
H895 C879 0.960 . S
C896 C897 1.391 . S
C896 C898 1.394 . S
C896 H912 0.931 . S
C897 C896 1.391 . S
C897 C901 1.376 . S
C898 C896 1.394 . S
C898 C899 1.369 . S
C898 C902 1.531 . S
C899 C898 1.369 . S
C899 C900 1.410 . S
C899 C907 1.503 . S
C900 C899 1.410 . S
C900 C901 1.392 . S
C900 C903 1.511 . S
C901 C897 1.376 . S
C901 C900 1.392 . S
C901 H913 0.929 . S
C902 C898 1.531 . S
C902 H914 0.960 . S
C902 H915 0.962 . S
C902 H916 0.960 . S
C903 C900 1.511 . S
C903 H917 0.961 . S
C903 H918 0.961 . S
C903 H919 0.961 . S
C904 C905 1.370 . S
C904 C906 1.363 . S
C904 H920 0.931 . S
C905 C904 1.370 . S
C905 C909 1.408 . S
C906 C904 1.363 . S
C906 C907 1.370 . S
C906 C910 1.524 . S
C907 C899 1.503 . S
C907 C906 1.370 . S
C907 C908 1.403 . S
C908 C907 1.403 . S
C908 C909 1.404 . S
C908 C911 1.539 . S
C909 C905 1.408 . S
C909 C908 1.404 . S
C909 H921 0.930 . S
C910 C906 1.524 . S
C910 H922 0.956 . S
C910 H923 0.961 . S
C910 H924 0.961 . S
C911 C908 1.539 . S
C911 H925 0.958 . S
C911 H926 0.961 . S
C911 H927 0.960 . S
H912 C896 0.931 . S
H913 C901 0.929 . S
H914 C902 0.960 . S
H915 C902 0.962 . S
H916 C902 0.960 . S
H917 C903 0.961 . S
H918 C903 0.961 . S
H919 C903 0.961 . S
H920 C904 0.931 . S
H921 C909 0.930 . S
H922 C910 0.956 . S
H923 C910 0.961 . S
H924 C910 0.961 . S
H925 C911 0.958 . S
H926 C911 0.961 . S
H927 C911 0.960 . S
C928 C929 1.391 . S
C928 C930 1.394 . S
C928 H944 0.931 . S
C929 C928 1.391 . S
C929 C933 1.376 . S
C930 C928 1.394 . S
C930 C931 1.369 . S
C930 C934 1.531 1_655 S
C931 C930 1.369 . S
C931 C932 1.410 . S
C931 C939 1.503 1_655 S
C932 C931 1.410 . S
C932 C933 1.392 . S
C932 C935 1.511 . S
C933 C929 1.376 . S
C933 C932 1.392 . S
C933 H945 0.929 . S
C934 C930 1.531 1_455 S
C934 H946 0.960 . S
C934 H947 0.962 . S
C934 H948 0.960 . S
C935 C932 1.511 . S
C935 H949 0.961 . S
C935 H950 0.961 . S
C935 H951 0.961 . S
C936 C937 1.370 . S
C936 C938 1.363 . S
C936 H952 0.931 . S
C937 C936 1.370 . S
C937 C941 1.408 . S
C938 C936 1.363 . S
C938 C939 1.370 . S
C938 C942 1.524 . S
C939 C931 1.503 1_455 S
C939 C938 1.370 . S
C939 C940 1.403 1_455 S
C940 C939 1.403 1_655 S
C940 C941 1.404 1_655 S
C940 C943 1.539 . S
C941 C937 1.408 . S
C941 C940 1.404 1_455 S
C941 H953 0.930 . S
C942 C938 1.524 . S
C942 H954 0.956 . S
C942 H955 0.961 . S
C942 H956 0.961 . S
C943 C940 1.539 . S
C943 H957 0.958 . S
C943 H958 0.961 . S
C943 H959 0.960 . S
H944 C928 0.931 . S
H945 C933 0.929 . S
H946 C934 0.960 . S
H947 C934 0.962 . S
H948 C934 0.960 . S
H949 C935 0.961 . S
H950 C935 0.961 . S
H951 C935 0.961 . S
H952 C936 0.931 . S
H953 C941 0.930 . S
H954 C942 0.956 . S
H955 C942 0.961 . S
H956 C942 0.961 . S
H957 C943 0.958 . S
H958 C943 0.961 . S
H959 C943 0.960 . S
C960 C961 1.391 . S
C960 C962 1.394 . S
C960 H976 0.931 . S
C961 C960 1.391 . S
C961 C965 1.376 . S
C962 C960 1.394 . S
C962 C963 1.369 . S
C962 C966 1.531 . S
C963 C962 1.369 . S
C963 C964 1.410 . S
C963 C971 1.503 1_565 S
C964 C963 1.410 . S
C964 C965 1.392 . S
C964 C967 1.511 1_565 S
C965 C961 1.376 . S
C965 C964 1.392 . S
C965 H977 0.929 . S
C966 C962 1.531 . S
C966 H978 0.960 . S
C966 H979 0.962 . S
C966 H980 0.960 . S
C967 C964 1.511 1_545 S
C967 H981 0.961 . S
C967 H982 0.961 . S
C967 H983 0.961 . S
C968 C969 1.370 . S
C968 C970 1.363 . S
C968 H984 0.931 . S
C969 C968 1.370 . S
C969 C973 1.408 . S
C970 C968 1.363 . S
C970 C971 1.370 . S
C970 C974 1.524 1_545 S
C971 C963 1.503 1_545 S
C971 C970 1.370 . S
C971 C972 1.403 . S
C972 C971 1.403 . S
C972 C973 1.404 . S
C972 C975 1.539 . S
C973 C969 1.408 . S
C973 C972 1.404 . S
C973 H985 0.930 . S
C974 C970 1.524 1_565 S
C974 H986 0.956 . S
C974 H987 0.961 . S
C974 H988 0.961 1_565 S
C975 C972 1.539 . S
C975 H989 0.958 . S
C975 H990 0.961 . S
C975 H991 0.960 . S
H976 C960 0.931 . S
H977 C965 0.929 . S
H978 C966 0.960 . S
H979 C966 0.962 . S
H980 C966 0.960 . S
H981 C967 0.961 . S
H982 C967 0.961 . S
H983 C967 0.961 . S
H984 C968 0.931 . S
H985 C973 0.930 . S
H986 C974 0.956 . S
H987 C974 0.961 . S
H988 C974 0.961 1_545 S
H989 C975 0.958 . S
H990 C975 0.961 . S
H991 C975 0.960 . S
C992 C993 1.397 . S
C992 C994 1.394 . S
C992 H1008 0.931 . S
C993 C992 1.397 . S
C993 C997 1.371 1_554 S
C994 C992 1.394 . S
C994 C995 1.369 . S
C994 C998 1.531 1_455 S
C995 C994 1.369 . S
C995 C996 1.410 1_554 S
C995 C1003 1.503 1_465 S
C996 C995 1.410 1_556 S
C996 C997 1.392 . S
C996 C999 1.511 1_565 S
C997 C993 1.371 1_556 S
C997 C996 1.392 . S
C997 H1009 0.929 . S
C998 C994 1.531 1_655 S
C998 H1010 0.960 . S
C998 H1011 0.962 . S
C998 H1012 0.960 . S
C999 C996 1.511 1_545 S
C999 H1013 0.961 . S
C999 H1014 0.961 . S
C999 H1015 0.961 . S
C1000 C1001 1.370 1_556 S
C1000 C1002 1.363 . S
C1000 H1016 0.931 . S
C1001 C1000 1.370 1_554 S
C1001 C1005 1.408 . S
C1002 C1000 1.363 . S
C1002 C1003 1.370 1_556 S
C1002 C1006 1.524 1_545 S
C1003 C995 1.503 1_645 S
C1003 C1002 1.370 1_554 S
C1003 C1004 1.403 . S
C1004 C1003 1.403 . S
C1004 C1005 1.404 . S
C1004 C1007 1.539 1_655 S
C1005 C1001 1.408 . S
C1005 C1004 1.404 . S
C1005 H1017 0.930 . S
C1006 C1002 1.524 1_565 S
C1006 H1018 0.956 . S
C1006 H1019 0.961 . S
C1006 H1020 0.961 1_565 S
C1007 C1004 1.539 1_455 S
C1007 H1021 0.958 . S
C1007 H1022 0.961 . S
C1007 H1023 0.960 . S
H1008 C992 0.931 . S
H1009 C997 0.929 . S
H1010 C998 0.960 . S
H1011 C998 0.962 . S
H1012 C998 0.960 . S
H1013 C999 0.961 . S
H1014 C999 0.961 . S
H1015 C999 0.961 . S
H1016 C1000 0.931 . S
H1017 C1005 0.930 . S
H1018 C1006 0.956 . S
H1019 C1006 0.961 . S
H1020 C1006 0.961 1_545 S
H1021 C1007 0.958 . S
H1022 C1007 0.961 . S
H1023 C1007 0.960 . S
C1024 C1025 1.391 . S
C1024 C1026 1.394 . S
C1024 H1040 0.930 1_554 S
C1025 C1024 1.391 . S
C1025 C1029 1.376 . S
C1026 C1024 1.394 . S
C1026 C1027 1.369 . S
C1026 C1030 1.533 . S
C1027 C1026 1.369 . S
C1027 C1028 1.410 . S
C1027 C1035 1.503 . S
C1028 C1027 1.410 . S
C1028 C1029 1.392 . S
C1028 C1031 1.511 . S
C1029 C1025 1.376 . S
C1029 C1028 1.392 . S
C1029 H1041 0.929 . S
C1030 C1026 1.533 . S
C1030 H1042 0.971 . S
C1030 H1043 0.941 1_554 S
C1030 H1044 0.968 . S
C1031 C1028 1.511 . S
C1031 H1045 0.961 . S
C1031 H1046 0.961 . S
C1031 H1047 0.961 . S
C1032 C1033 1.378 . S
C1032 C1034 1.363 . S
C1032 H1048 0.931 . S
C1033 C1032 1.378 . S
C1033 C1037 1.400 1_556 S
C1034 C1032 1.363 . S
C1034 C1035 1.370 1_556 S
C1034 C1038 1.524 . S
C1035 C1027 1.503 . S
C1035 C1034 1.370 1_554 S
C1035 C1036 1.403 . S
C1036 C1035 1.403 . S
C1036 C1037 1.404 . S
C1036 C1039 1.539 . S
C1037 C1033 1.400 1_554 S
C1037 C1036 1.404 . S
C1037 H1049 0.930 . S
C1038 C1034 1.524 . S
C1038 H1050 0.956 . S
C1038 H1051 0.961 . S
C1038 H1052 0.961 . S
C1039 C1036 1.539 . S
C1039 H1053 0.958 . S
C1039 H1054 0.961 . S
C1039 H1055 0.960 . S
H1040 C1024 0.930 1_556 S
H1041 C1029 0.929 . S
H1042 C1030 0.971 . S
H1043 C1030 0.941 1_556 S
H1044 C1030 0.968 . S
H1045 C1031 0.961 . S
H1046 C1031 0.961 . S
H1047 C1031 0.961 . S
H1048 C1032 0.931 . S
H1049 C1037 0.930 . S
H1050 C1038 0.956 . S
H1051 C1038 0.961 . S
H1052 C1038 0.961 . S
H1053 C1039 0.958 . S
H1054 C1039 0.961 . S
H1055 C1039 0.960 . S
C1056 C1057 1.391 . S
C1056 C1058 1.394 . S
C1056 H1072 0.931 . S
C1057 C1056 1.391 . S
C1057 C1061 1.376 . S
C1058 C1056 1.394 . S
C1058 C1059 1.369 . S
C1058 C1062 1.531 1_655 S
C1059 C1058 1.369 . S
C1059 C1060 1.410 . S
C1059 C1067 1.503 1_655 S
C1060 C1059 1.410 . S
C1060 C1061 1.392 . S
C1060 C1063 1.511 . S
C1061 C1057 1.376 . S
C1061 C1060 1.392 . S
C1061 H1073 0.929 . S
C1062 C1058 1.531 1_455 S
C1062 H1074 0.960 . S
C1062 H1075 0.962 . S
C1062 H1076 0.960 . S
C1063 C1060 1.511 . S
C1063 H1077 0.961 . S
C1063 H1078 0.961 . S
C1063 H1079 0.961 . S
C1064 C1065 1.370 . S
C1064 C1066 1.363 . S
C1064 H1080 0.931 . S
C1065 C1064 1.370 . S
C1065 C1069 1.408 . S
C1066 C1064 1.363 . S
C1066 C1067 1.370 . S
C1066 C1070 1.524 . S
C1067 C1059 1.503 1_455 S
C1067 C1066 1.370 . S
C1067 C1068 1.400 1_455 S
C1068 C1067 1.400 1_655 S
C1068 C1069 1.398 1_655 S
C1068 C1071 1.548 . S
C1069 C1065 1.408 . S
C1069 C1068 1.398 1_455 S
C1069 H1081 0.930 . S
C1070 C1066 1.524 . S
C1070 H1082 0.956 . S
C1070 H1083 0.961 . S
C1070 H1084 0.961 . S
C1071 C1068 1.548 . S
C1071 H1085 0.958 . S
C1071 H1086 0.961 . S
C1071 H1087 0.960 . S
H1072 C1056 0.931 . S
H1073 C1061 0.929 . S
H1074 C1062 0.960 . S
H1075 C1062 0.962 . S
H1076 C1062 0.960 . S
H1077 C1063 0.961 . S
H1078 C1063 0.961 . S
H1079 C1063 0.961 . S
H1080 C1064 0.931 . S
H1081 C1069 0.930 . S
H1082 C1070 0.956 . S
H1083 C1070 0.961 . S
H1084 C1070 0.961 . S
H1085 C1071 0.958 . S
H1086 C1071 0.961 . S
H1087 C1071 0.960 . S
C1088 C1089 1.391 . S
C1088 C1090 1.394 . S
C1088 H1104 0.931 . S
C1089 C1088 1.391 . S
C1089 C1093 1.376 . S
C1090 C1088 1.394 . S
C1090 C1091 1.369 . S
C1090 C1094 1.531 1_565 S
C1091 C1090 1.369 . S
C1091 C1092 1.410 . S
C1091 C1099 1.503 1_565 S
C1092 C1091 1.410 . S
C1092 C1093 1.392 . S
C1092 C1095 1.511 . S
C1093 C1089 1.376 . S
C1093 C1092 1.392 . S
C1093 H1105 0.929 . S
C1094 C1090 1.531 1_545 S
C1094 H1106 0.960 . S
C1094 H1107 0.962 . S
C1094 H1108 0.960 . S
C1095 C1092 1.511 . S
C1095 H1109 0.961 . S
C1095 H1110 0.961 . S
C1095 H1111 0.961 . S
C1096 C1097 1.370 . S
C1096 C1098 1.363 . S
C1096 H1112 0.931 . S
C1097 C1096 1.370 . S
C1097 C1101 1.408 . S
C1098 C1096 1.363 . S
C1098 C1099 1.370 . S
C1098 C1102 1.524 . S
C1099 C1091 1.503 1_545 S
C1099 C1098 1.370 . S
C1099 C1100 1.403 . S
C1100 C1099 1.403 . S
C1100 C1101 1.404 . S
C1100 C1103 1.539 . S
C1101 C1097 1.408 . S
C1101 C1100 1.404 . S
C1101 H1113 0.930 . S
C1102 C1098 1.524 . S
C1102 H1114 0.956 . S
C1102 H1115 0.961 1_545 S
C1102 H1116 0.961 . S
C1103 C1100 1.539 . S
C1103 H1117 0.958 . S
C1103 H1118 0.961 . S
C1103 H1119 0.960 . S
H1104 C1088 0.931 . S
H1105 C1093 0.929 . S
H1106 C1094 0.960 . S
H1107 C1094 0.962 . S
H1108 C1094 0.960 . S
H1109 C1095 0.961 . S
H1110 C1095 0.961 . S
H1111 C1095 0.961 . S
H1112 C1096 0.931 . S
H1113 C1101 0.930 . S
H1114 C1102 0.956 . S
H1115 C1102 0.961 1_565 S
H1116 C1102 0.961 . S
H1117 C1103 0.958 . S
H1118 C1103 0.961 . S
H1119 C1103 0.960 . S
C1120 C1121 1.395 . S
C1120 C1122 1.394 . S
C1120 H1136 0.931 . S
C1121 C1120 1.395 . S
C1121 C1125 1.373 1_554 S
C1122 C1120 1.394 . S
C1122 C1123 1.369 . S
C1122 C1126 1.531 . S
C1123 C1122 1.369 . S
C1123 C1124 1.410 1_554 S
C1123 C1131 1.503 . S
C1124 C1123 1.410 1_556 S
C1124 C1125 1.392 . S
C1124 C1127 1.511 . S
C1125 C1121 1.373 1_556 S
C1125 C1124 1.392 . S
C1125 H1137 0.929 . S
C1126 C1122 1.531 . S
C1126 H1138 0.960 . S
C1126 H1139 0.962 . S
C1126 H1140 0.960 . S
C1127 C1124 1.511 . S
C1127 H1141 0.961 . S
C1127 H1142 0.961 . S
C1127 H1143 0.961 . S
C1128 C1129 1.370 1_556 S
C1128 C1130 1.363 . S
C1128 H1144 0.931 . S
C1129 C1128 1.370 1_554 S
C1129 C1133 1.408 . S
C1130 C1128 1.363 . S
C1130 C1131 1.370 1_556 S
C1130 C1134 1.524 . S
C1131 C1123 1.503 . S
C1131 C1130 1.370 1_554 S
C1131 C1132 1.403 . S
C1132 C1131 1.403 . S
C1132 C1133 1.404 . S
C1132 C1135 1.539 . S
C1133 C1129 1.408 . S
C1133 C1132 1.404 . S
C1133 H1145 0.930 . S
C1134 C1130 1.524 . S
C1134 H1146 0.956 . S
C1134 H1147 0.961 . S
C1134 H1148 0.961 . S
C1135 C1132 1.539 . S
C1135 H1149 0.958 . S
C1135 H1150 0.961 . S
C1135 H1151 0.960 . S
H1136 C1120 0.931 . S
H1137 C1125 0.929 . S
H1138 C1126 0.960 . S
H1139 C1126 0.962 . S
H1140 C1126 0.960 . S
H1141 C1127 0.961 . S
H1142 C1127 0.961 . S
H1143 C1127 0.961 . S
H1144 C1128 0.931 . S
H1145 C1133 0.930 . S
H1146 C1134 0.956 . S
H1147 C1134 0.961 . S
H1148 C1134 0.961 . S
H1149 C1135 0.958 . S
H1150 C1135 0.961 . S
H1151 C1135 0.960 . S
C1152 C1153 1.391 . S
C1152 C1154 1.394 . S
C1152 H1168 0.931 . S
C1153 C1152 1.391 . S
C1153 C1157 1.376 . S
C1154 C1152 1.394 . S
C1154 C1155 1.369 . S
C1154 C1158 1.531 . S
C1155 C1154 1.369 . S
C1155 C1156 1.410 . S
C1155 C1163 1.503 . S
C1156 C1155 1.410 . S
C1156 C1157 1.392 . S
C1156 C1159 1.511 . S
C1157 C1153 1.376 . S
C1157 C1156 1.392 . S
C1157 H1169 0.929 . S
C1158 C1154 1.531 . S
C1158 H1170 0.960 . S
C1158 H1171 0.962 . S
C1158 H1172 0.960 . S
C1159 C1156 1.511 . S
C1159 H1173 0.961 . S
C1159 H1174 0.961 . S
C1159 H1175 0.961 . S
C1160 C1161 1.370 . S
C1160 C1162 1.363 . S
C1160 H1176 0.931 . S
C1161 C1160 1.370 . S
C1161 C1165 1.408 . S
C1162 C1160 1.363 . S
C1162 C1163 1.370 . S
C1162 C1166 1.524 . S
C1163 C1155 1.503 . S
C1163 C1162 1.370 . S
C1163 C1164 1.403 . S
C1164 C1163 1.403 . S
C1164 C1165 1.404 . S
C1164 C1167 1.539 . S
C1165 C1161 1.408 . S
C1165 C1164 1.404 . S
C1165 H1177 0.930 . S
C1166 C1162 1.524 . S
C1166 H1178 0.956 . S
C1166 H1179 0.961 . S
C1166 H1180 0.961 . S
C1167 C1164 1.539 . S
C1167 H1181 0.958 . S
C1167 H1182 0.961 . S
C1167 H1183 0.960 . S
H1168 C1152 0.931 . S
H1169 C1157 0.929 . S
H1170 C1158 0.960 . S
H1171 C1158 0.962 . S
H1172 C1158 0.960 . S
H1173 C1159 0.961 . S
H1174 C1159 0.961 . S
H1175 C1159 0.961 . S
H1176 C1160 0.931 . S
H1177 C1165 0.930 . S
H1178 C1166 0.956 . S
H1179 C1166 0.961 . S
H1180 C1166 0.961 . S
H1181 C1167 0.958 . S
H1182 C1167 0.961 . S
H1183 C1167 0.960 . S
C1184 C1185 1.391 . S
C1184 C1186 1.394 . S
C1184 H1200 0.931 . S
C1185 C1184 1.391 . S
C1185 C1189 1.376 . S
C1186 C1184 1.394 . S
C1186 C1187 1.369 . S
C1186 C1190 1.531 . S
C1187 C1186 1.369 . S
C1187 C1188 1.410 1_655 S
C1187 C1195 1.503 1_655 S
C1188 C1187 1.410 1_455 S
C1188 C1189 1.392 1_455 S
C1188 C1191 1.511 . S
C1189 C1185 1.376 . S
C1189 C1188 1.392 1_655 S
C1189 H1201 0.929 . S
C1190 C1186 1.531 . S
C1190 H1202 0.960 . S
C1190 H1203 0.962 . S
C1190 H1204 0.960 . S
C1191 C1188 1.511 . S
C1191 H1205 0.961 . S
C1191 H1206 0.961 . S
C1191 H1207 0.961 . S
C1192 C1193 1.370 . S
C1192 C1194 1.363 . S
C1192 H1208 0.931 . S
C1193 C1192 1.370 . S
C1193 C1197 1.408 . S
C1194 C1192 1.363 . S
C1194 C1195 1.370 . S
C1194 C1198 1.524 1_455 S
C1195 C1187 1.503 1_455 S
C1195 C1194 1.370 . S
C1195 C1196 1.403 . S
C1196 C1195 1.403 . S
C1196 C1197 1.404 . S
C1196 C1199 1.539 . S
C1197 C1193 1.408 . S
C1197 C1196 1.404 . S
C1197 H1209 0.930 . S
C1198 C1194 1.524 1_655 S
C1198 H1210 0.956 . S
C1198 H1211 0.961 . S
C1198 H1212 0.961 . S
C1199 C1196 1.539 . S
C1199 H1213 0.958 . S
C1199 H1214 0.961 . S
C1199 H1215 0.960 . S
H1200 C1184 0.931 . S
H1201 C1189 0.929 . S
H1202 C1190 0.960 . S
H1203 C1190 0.962 . S
H1204 C1190 0.960 . S
H1205 C1191 0.961 . S
H1206 C1191 0.961 . S
H1207 C1191 0.961 . S
H1208 C1192 0.931 . S
H1209 C1197 0.930 . S
H1210 C1198 0.956 . S
H1211 C1198 0.961 . S
H1212 C1198 0.961 . S
H1213 C1199 0.958 . S
H1214 C1199 0.961 . S
H1215 C1199 0.960 . S
C1216 C1217 1.391 . S
C1216 C1218 1.394 . S
C1216 H1232 0.931 . S
C1217 C1216 1.391 . S
C1217 C1221 1.376 . S
C1218 C1216 1.394 . S
C1218 C1219 1.369 . S
C1218 C1222 1.531 . S
C1219 C1218 1.369 . S
C1219 C1220 1.410 . S
C1219 C1227 1.503 . S
C1220 C1219 1.410 . S
C1220 C1221 1.392 . S
C1220 C1223 1.511 . S
C1221 C1217 1.376 . S
C1221 C1220 1.392 . S
C1221 H1233 0.929 . S
C1222 C1218 1.531 . S
C1222 H1234 0.960 . S
C1222 H1235 0.962 . S
C1222 H1236 0.960 . S
C1223 C1220 1.511 . S
C1223 H1237 0.961 . S
C1223 H1238 0.961 . S
C1223 H1239 0.961 . S
C1224 C1225 1.370 . S
C1224 C1226 1.363 . S
C1224 H1240 0.931 . S
C1225 C1224 1.370 . S
C1225 C1229 1.408 . S
C1226 C1224 1.363 . S
C1226 C1227 1.370 . S
C1226 C1230 1.524 . S
C1227 C1219 1.503 . S
C1227 C1226 1.370 . S
C1227 C1228 1.403 . S
C1228 C1227 1.403 . S
C1228 C1229 1.404 . S
C1228 C1231 1.539 . S
C1229 C1225 1.408 . S
C1229 C1228 1.404 . S
C1229 H1241 0.930 . S
C1230 C1226 1.524 . S
C1230 H1242 0.956 . S
C1230 H1243 0.961 . S
C1230 H1244 0.961 . S
C1231 C1228 1.539 . S
C1231 H1245 0.958 . S
C1231 H1246 0.961 . S
C1231 H1247 0.960 . S
H1232 C1216 0.931 . S
H1233 C1221 0.929 . S
H1234 C1222 0.960 . S
H1235 C1222 0.962 . S
H1236 C1222 0.960 . S
H1237 C1223 0.961 . S
H1238 C1223 0.961 . S
H1239 C1223 0.961 . S
H1240 C1224 0.931 . S
H1241 C1229 0.930 . S
H1242 C1230 0.956 . S
H1243 C1230 0.961 . S
H1244 C1230 0.961 . S
H1245 C1231 0.958 . S
H1246 C1231 0.961 . S
H1247 C1231 0.960 . S
C1248 C1249 1.391 . S
C1248 C1250 1.394 . S
C1248 H1264 0.931 . S
C1249 C1248 1.391 . S
C1249 C1253 1.376 . S
C1250 C1248 1.394 . S
C1250 C1251 1.369 . S
C1250 C1254 1.531 . S
C1251 C1250 1.369 . S
C1251 C1252 1.410 . S
C1251 C1259 1.503 . S
C1252 C1251 1.410 . S
C1252 C1253 1.392 . S
C1252 C1255 1.511 . S
C1253 C1249 1.376 . S
C1253 C1252 1.392 . S
C1253 H1265 0.929 . S
C1254 C1250 1.531 . S
C1254 H1266 0.960 . S
C1254 H1267 0.962 . S
C1254 H1268 0.960 . S
C1255 C1252 1.511 . S
C1255 H1269 0.961 . S
C1255 H1270 0.961 . S
C1255 H1271 0.961 . S
C1256 C1257 1.370 . S
C1256 C1258 1.363 . S
C1256 H1272 0.931 . S
C1257 C1256 1.370 . S
C1257 C1261 1.408 . S
C1258 C1256 1.363 . S
C1258 C1259 1.370 . S
C1258 C1262 1.524 . S
C1259 C1251 1.503 . S
C1259 C1258 1.370 . S
C1259 C1260 1.403 . S
C1260 C1259 1.403 . S
C1260 C1261 1.404 . S
C1260 C1263 1.539 . S
C1261 C1257 1.408 . S
C1261 C1260 1.404 . S
C1261 H1273 0.930 . S
C1262 C1258 1.524 . S
C1262 H1274 0.956 . S
C1262 H1275 0.961 . S
C1262 H1276 0.961 . S
C1263 C1260 1.539 . S
C1263 H1277 0.958 . S
C1263 H1278 0.961 . S
C1263 H1279 0.960 . S
H1264 C1248 0.931 . S
H1265 C1253 0.929 . S
H1266 C1254 0.960 . S
H1267 C1254 0.962 . S
H1268 C1254 0.960 . S
H1269 C1255 0.961 . S
H1270 C1255 0.961 . S
H1271 C1255 0.961 . S
H1272 C1256 0.931 . S
H1273 C1261 0.930 . S
H1274 C1262 0.956 . S
H1275 C1262 0.961 . S
H1276 C1262 0.961 . S
H1277 C1263 0.958 . S
H1278 C1263 0.961 . S
H1279 C1263 0.960 . S
C1280 C1281 1.391 . S
C1280 C1282 1.394 . S
C1280 H1296 0.931 . S
C1281 C1280 1.391 . S
C1281 C1285 1.376 . S
C1282 C1280 1.394 . S
C1282 C1283 1.369 . S
C1282 C1286 1.531 . S
C1283 C1282 1.369 . S
C1283 C1284 1.410 . S
C1283 C1291 1.503 . S
C1284 C1283 1.410 . S
C1284 C1285 1.392 . S
C1284 C1287 1.511 . S
C1285 C1281 1.376 . S
C1285 C1284 1.392 . S
C1285 H1297 0.929 . S
C1286 C1282 1.531 . S
C1286 H1298 0.960 . S
C1286 H1299 0.962 . S
C1286 H1300 0.960 . S
C1287 C1284 1.511 . S
C1287 H1301 0.961 . S
C1287 H1302 0.961 . S
C1287 H1303 0.961 . S
C1288 C1289 1.370 . S
C1288 C1290 1.363 . S
C1288 H1304 0.931 . S
C1289 C1288 1.370 . S
C1289 C1293 1.408 . S
C1290 C1288 1.363 . S
C1290 C1291 1.370 . S
C1290 C1294 1.524 . S
C1291 C1283 1.503 . S
C1291 C1290 1.370 . S
C1291 C1292 1.403 . S
C1292 C1291 1.403 . S
C1292 C1293 1.404 . S
C1292 C1295 1.539 . S
C1293 C1289 1.408 . S
C1293 C1292 1.404 . S
C1293 H1305 0.930 . S
C1294 C1290 1.524 . S
C1294 H1306 0.956 . S
C1294 H1307 0.961 . S
C1294 H1308 0.961 . S
C1295 C1292 1.539 . S
C1295 H1309 0.958 . S
C1295 H1310 0.961 . S
C1295 H1311 0.960 . S
H1296 C1280 0.931 . S
H1297 C1285 0.929 . S
H1298 C1286 0.960 . S
H1299 C1286 0.962 . S
H1300 C1286 0.960 . S
H1301 C1287 0.961 . S
H1302 C1287 0.961 . S
H1303 C1287 0.961 . S
H1304 C1288 0.931 . S
H1305 C1293 0.930 . S
H1306 C1294 0.956 . S
H1307 C1294 0.961 . S
H1308 C1294 0.961 . S
H1309 C1295 0.958 . S
H1310 C1295 0.961 . S
H1311 C1295 0.960 . S
C1312 C1313 1.391 . S
C1312 C1314 1.394 . S
C1312 H1328 0.931 . S
C1313 C1312 1.391 . S
C1313 C1317 1.376 . S
C1314 C1312 1.394 . S
C1314 C1315 1.369 . S
C1314 C1318 1.531 . S
C1315 C1314 1.369 . S
C1315 C1316 1.410 . S
C1315 C1323 1.503 . S
C1316 C1315 1.410 . S
C1316 C1317 1.392 . S
C1316 C1319 1.511 . S
C1317 C1313 1.376 . S
C1317 C1316 1.392 . S
C1317 H1329 0.929 . S
C1318 C1314 1.531 . S
C1318 H1330 0.960 . S
C1318 H1331 0.962 . S
C1318 H1332 0.960 . S
C1319 C1316 1.511 . S
C1319 H1333 0.961 . S
C1319 H1334 0.961 . S
C1319 H1335 0.961 . S
C1320 C1321 1.370 . S
C1320 C1322 1.363 . S
C1320 H1336 0.931 . S
C1321 C1320 1.370 . S
C1321 C1325 1.408 . S
C1322 C1320 1.363 . S
C1322 C1323 1.370 . S
C1322 C1326 1.524 . S
C1323 C1315 1.503 . S
C1323 C1322 1.370 . S
C1323 C1324 1.403 . S
C1324 C1323 1.403 . S
C1324 C1325 1.404 . S
C1324 C1327 1.539 . S
C1325 C1321 1.408 . S
C1325 C1324 1.404 . S
C1325 H1337 0.930 . S
C1326 C1322 1.524 . S
C1326 H1338 0.956 . S
C1326 H1339 0.961 . S
C1326 H1340 0.961 . S
C1327 C1324 1.539 . S
C1327 H1341 0.958 . S
C1327 H1342 0.961 . S
C1327 H1343 0.960 . S
H1328 C1312 0.931 . S
H1329 C1317 0.929 . S
H1330 C1318 0.960 . S
H1331 C1318 0.962 . S
H1332 C1318 0.960 . S
H1333 C1319 0.961 . S
H1334 C1319 0.961 . S
H1335 C1319 0.961 . S
H1336 C1320 0.931 . S
H1337 C1325 0.930 . S
H1338 C1326 0.956 . S
H1339 C1326 0.961 . S
H1340 C1326 0.961 . S
H1341 C1327 0.958 . S
H1342 C1327 0.961 . S
H1343 C1327 0.960 . S
C1344 C1345 1.391 . S
C1344 C1346 1.394 . S
C1344 H1360 0.931 . S
C1345 C1344 1.391 . S
C1345 C1349 1.376 . S
C1346 C1344 1.394 . S
C1346 C1347 1.369 . S
C1346 C1350 1.531 1_545 S
C1347 C1346 1.369 . S
C1347 C1348 1.410 . S
C1347 C1355 1.503 1_545 S
C1348 C1347 1.410 . S
C1348 C1349 1.392 . S
C1348 C1351 1.511 . S
C1349 C1345 1.376 . S
C1349 C1348 1.392 . S
C1349 H1361 0.929 . S
C1350 C1346 1.531 1_565 S
C1350 H1362 0.960 . S
C1350 H1363 0.962 . S
C1350 H1364 0.960 1_565 S
C1351 C1348 1.511 . S
C1351 H1365 0.961 . S
C1351 H1366 0.961 . S
C1351 H1367 0.961 . S
C1352 C1353 1.370 . S
C1352 C1354 1.363 . S
C1352 H1368 0.931 . S
C1353 C1352 1.370 . S
C1353 C1357 1.408 . S
C1354 C1352 1.363 . S
C1354 C1355 1.370 . S
C1354 C1358 1.524 . S
C1355 C1347 1.503 1_565 S
C1355 C1354 1.370 . S
C1355 C1356 1.403 . S
C1356 C1355 1.403 . S
C1356 C1357 1.404 . S
C1356 C1359 1.539 1_565 S
C1357 C1353 1.408 . S
C1357 C1356 1.404 . S
C1357 H1369 0.930 . S
C1358 C1354 1.524 . S
C1358 H1370 0.956 . S
C1358 H1371 0.961 . S
C1358 H1372 0.961 . S
C1359 C1356 1.539 1_545 S
C1359 H1373 0.958 . S
C1359 H1374 0.961 . S
C1359 H1375 0.960 . S
H1360 C1344 0.931 . S
H1361 C1349 0.929 . S
H1362 C1350 0.960 . S
H1363 C1350 0.962 . S
H1364 C1350 0.960 1_545 S
H1365 C1351 0.961 . S
H1366 C1351 0.961 . S
H1367 C1351 0.961 . S
H1368 C1352 0.931 . S
H1369 C1357 0.930 . S
H1370 C1358 0.956 . S
H1371 C1358 0.961 . S
H1372 C1358 0.961 . S
H1373 C1359 0.958 . S
H1374 C1359 0.961 . S
H1375 C1359 0.960 . S
C1376 C1377 1.391 . S
C1376 C1378 1.394 . S
C1376 H1392 0.931 . S
C1377 C1376 1.391 . S
C1377 C1381 1.376 . S
C1378 C1376 1.394 . S
C1378 C1379 1.369 . S
C1378 C1382 1.531 . S
C1379 C1378 1.369 . S
C1379 C1380 1.410 . S
C1379 C1387 1.503 . S
C1380 C1379 1.410 . S
C1380 C1381 1.392 . S
C1380 C1383 1.511 . S
C1381 C1377 1.376 . S
C1381 C1380 1.392 . S
C1381 H1393 0.929 . S
C1382 C1378 1.531 . S
C1382 H1394 0.960 . S
C1382 H1395 0.962 . S
C1382 H1396 0.960 . S
C1383 C1380 1.511 . S
C1383 H1397 0.961 . S
C1383 H1398 0.961 . S
C1383 H1399 0.961 . S
C1384 C1385 1.370 . S
C1384 C1386 1.363 . S
C1384 H1400 0.931 . S
C1385 C1384 1.370 . S
C1385 C1389 1.408 . S
C1386 C1384 1.363 . S
C1386 C1387 1.370 . S
C1386 C1390 1.524 . S
C1387 C1379 1.503 . S
C1387 C1386 1.370 . S
C1387 C1388 1.403 . S
C1388 C1387 1.403 . S
C1388 C1389 1.404 . S
C1388 C1391 1.539 . S
C1389 C1385 1.408 . S
C1389 C1388 1.404 . S
C1389 H1401 0.930 . S
C1390 C1386 1.524 . S
C1390 H1402 0.956 . S
C1390 H1403 0.961 . S
C1390 H1404 0.961 . S
C1391 C1388 1.539 . S
C1391 H1405 0.958 . S
C1391 H1406 0.961 . S
C1391 H1407 0.960 . S
H1392 C1376 0.931 . S
H1393 C1381 0.929 . S
H1394 C1382 0.960 . S
H1395 C1382 0.962 . S
H1396 C1382 0.960 . S
H1397 C1383 0.961 . S
H1398 C1383 0.961 . S
H1399 C1383 0.961 . S
H1400 C1384 0.931 . S
H1401 C1389 0.930 . S
H1402 C1390 0.956 . S
H1403 C1390 0.961 . S
H1404 C1390 0.961 . S
H1405 C1391 0.958 . S
H1406 C1391 0.961 . S
H1407 C1391 0.960 . S
C1408 C1409 1.391 . S
C1408 C1410 1.394 . S
C1408 H1424 0.931 . S
C1409 C1408 1.391 . S
C1409 C1413 1.376 1_556 S
C1410 C1408 1.394 . S
C1410 C1411 1.369 . S
C1410 C1414 1.531 . S
C1411 C1410 1.369 . S
C1411 C1412 1.410 1_556 S
C1411 C1419 1.503 . S
C1412 C1411 1.410 1_554 S
C1412 C1413 1.392 . S
C1412 C1415 1.511 . S
C1413 C1409 1.376 1_554 S
C1413 C1412 1.392 . S
C1413 H1425 0.929 . S
C1414 C1410 1.531 . S
C1414 H1426 0.960 . S
C1414 H1427 0.962 . S
C1414 H1428 0.960 . S
C1415 C1412 1.511 . S
C1415 H1429 0.961 . S
C1415 H1430 0.961 . S
C1415 H1431 0.961 . S
C1416 C1417 1.386 . S
C1416 C1418 1.363 . S
C1416 H1432 0.931 . S
C1417 C1416 1.386 . S
C1417 C1421 1.390 1_554 S
C1418 C1416 1.363 . S
C1418 C1419 1.370 1_554 S
C1418 C1422 1.524 . S
C1419 C1411 1.503 . S
C1419 C1418 1.370 1_556 S
C1419 C1420 1.403 . S
C1420 C1419 1.403 . S
C1420 C1421 1.404 . S
C1420 C1423 1.539 . S
C1421 C1417 1.390 1_556 S
C1421 C1420 1.404 . S
C1421 H1433 0.930 . S
C1422 C1418 1.524 . S
C1422 H1434 0.956 . S
C1422 H1435 0.961 . S
C1422 H1436 0.961 . S
C1423 C1420 1.539 . S
C1423 H1437 0.958 . S
C1423 H1438 0.961 . S
C1423 H1439 0.960 . S
H1424 C1408 0.931 . S
H1425 C1413 0.929 . S
H1426 C1414 0.960 . S
H1427 C1414 0.962 . S
H1428 C1414 0.960 . S
H1429 C1415 0.961 . S
H1430 C1415 0.961 . S
H1431 C1415 0.961 . S
H1432 C1416 0.931 . S
H1433 C1421 0.930 . S
H1434 C1422 0.956 . S
H1435 C1422 0.961 . S
H1436 C1422 0.961 . S
H1437 C1423 0.958 . S
H1438 C1423 0.961 . S
H1439 C1423 0.960 . S
C1440 C1441 1.391 . S
C1440 C1442 1.394 . S
C1440 H1456 0.931 . S
C1441 C1440 1.391 . S
C1441 C1445 1.376 . S
C1442 C1440 1.394 . S
C1442 C1443 1.369 . S
C1442 C1446 1.531 . S
C1443 C1442 1.369 . S
C1443 C1444 1.410 . S
C1443 C1451 1.503 . S
C1444 C1443 1.410 . S
C1444 C1445 1.392 . S
C1444 C1447 1.511 . S
C1445 C1441 1.376 . S
C1445 C1444 1.392 . S
C1445 H1457 0.929 . S
C1446 C1442 1.531 . S
C1446 H1458 0.960 . S
C1446 H1459 0.962 . S
C1446 H1460 0.960 . S
C1447 C1444 1.511 . S
C1447 H1461 0.961 . S
C1447 H1462 0.961 . S
C1447 H1463 0.961 . S
C1448 C1449 1.370 . S
C1448 C1450 1.363 . S
C1448 H1464 0.931 . S
C1449 C1448 1.370 . S
C1449 C1453 1.408 . S
C1450 C1448 1.363 . S
C1450 C1451 1.370 . S
C1450 C1454 1.524 . S
C1451 C1443 1.503 . S
C1451 C1450 1.370 . S
C1451 C1452 1.403 . S
C1452 C1451 1.403 . S
C1452 C1453 1.404 . S
C1452 C1455 1.539 . S
C1453 C1449 1.408 . S
C1453 C1452 1.404 . S
C1453 H1465 0.930 . S
C1454 C1450 1.524 . S
C1454 H1466 0.956 . S
C1454 H1467 0.961 . S
C1454 H1468 0.961 . S
C1455 C1452 1.539 . S
C1455 H1469 0.958 . S
C1455 H1470 0.961 . S
C1455 H1471 0.960 . S
H1456 C1440 0.931 . S
H1457 C1445 0.929 . S
H1458 C1446 0.960 . S
H1459 C1446 0.962 . S
H1460 C1446 0.960 . S
H1461 C1447 0.961 . S
H1462 C1447 0.961 . S
H1463 C1447 0.961 . S
H1464 C1448 0.931 . S
H1465 C1453 0.930 . S
H1466 C1454 0.956 . S
H1467 C1454 0.961 . S
H1468 C1454 0.961 . S
H1469 C1455 0.958 . S
H1470 C1455 0.961 . S
H1471 C1455 0.960 . S
C1472 C1473 1.391 . S
C1472 C1474 1.394 . S
C1472 H1488 0.931 . S
C1473 C1472 1.391 . S
C1473 C1477 1.376 . S
C1474 C1472 1.394 . S
C1474 C1475 1.369 . S
C1474 C1478 1.531 . S
C1475 C1474 1.369 . S
C1475 C1476 1.410 . S
C1475 C1483 1.503 . S
C1476 C1475 1.410 . S
C1476 C1477 1.392 . S
C1476 C1479 1.511 . S
C1477 C1473 1.376 . S
C1477 C1476 1.392 . S
C1477 H1489 0.929 . S
C1478 C1474 1.531 . S
C1478 H1490 0.960 . S
C1478 H1491 0.962 . S
C1478 H1492 0.960 . S
C1479 C1476 1.511 . S
C1479 H1493 0.961 . S
C1479 H1494 0.961 . S
C1479 H1495 0.961 . S
C1480 C1481 1.370 . S
C1480 C1482 1.363 . S
C1480 H1496 0.931 . S
C1481 C1480 1.370 . S
C1481 C1485 1.408 . S
C1482 C1480 1.363 . S
C1482 C1483 1.370 . S
C1482 C1486 1.524 . S
C1483 C1475 1.503 . S
C1483 C1482 1.370 . S
C1483 C1484 1.403 . S
C1484 C1483 1.403 . S
C1484 C1485 1.404 . S
C1484 C1487 1.539 . S
C1485 C1481 1.408 . S
C1485 C1484 1.404 . S
C1485 H1497 0.930 . S
C1486 C1482 1.524 . S
C1486 H1498 0.956 . S
C1486 H1499 0.961 . S
C1486 H1500 0.961 . S
C1487 C1484 1.539 . S
C1487 H1501 0.958 . S
C1487 H1502 0.961 . S
C1487 H1503 0.960 . S
H1488 C1472 0.931 . S
H1489 C1477 0.929 . S
H1490 C1478 0.960 . S
H1491 C1478 0.962 . S
H1492 C1478 0.960 . S
H1493 C1479 0.961 . S
H1494 C1479 0.961 . S
H1495 C1479 0.961 . S
H1496 C1480 0.931 . S
H1497 C1485 0.930 . S
H1498 C1486 0.956 . S
H1499 C1486 0.961 . S
H1500 C1486 0.961 . S
H1501 C1487 0.958 . S
H1502 C1487 0.961 . S
H1503 C1487 0.960 . S
C1504 C1505 1.391 . S
C1504 C1506 1.394 . S
C1504 H1520 0.931 . S
C1505 C1504 1.391 . S
C1505 C1509 1.376 . S
C1506 C1504 1.394 . S
C1506 C1507 1.369 . S
C1506 C1510 1.531 . S
C1507 C1506 1.369 . S
C1507 C1508 1.410 . S
C1507 C1515 1.503 . S
C1508 C1507 1.410 . S
C1508 C1509 1.392 . S
C1508 C1511 1.511 . S
C1509 C1505 1.376 . S
C1509 C1508 1.392 . S
C1509 H1521 0.929 . S
C1510 C1506 1.531 . S
C1510 H1522 0.960 . S
C1510 H1523 0.962 . S
C1510 H1524 0.960 . S
C1511 C1508 1.511 . S
C1511 H1525 0.961 . S
C1511 H1526 0.961 . S
C1511 H1527 0.961 . S
C1512 C1513 1.370 . S
C1512 C1514 1.363 . S
C1512 H1528 0.931 . S
C1513 C1512 1.370 . S
C1513 C1517 1.408 . S
C1514 C1512 1.363 . S
C1514 C1515 1.370 . S
C1514 C1518 1.524 . S
C1515 C1507 1.503 . S
C1515 C1514 1.370 . S
C1515 C1516 1.403 . S
C1516 C1515 1.403 . S
C1516 C1517 1.404 . S
C1516 C1519 1.539 . S
C1517 C1513 1.408 . S
C1517 C1516 1.404 . S
C1517 H1529 0.930 . S
C1518 C1514 1.524 . S
C1518 H1530 0.956 . S
C1518 H1531 0.961 . S
C1518 H1532 0.961 . S
C1519 C1516 1.539 . S
C1519 H1533 0.958 . S
C1519 H1534 0.961 . S
C1519 H1535 0.960 . S
H1520 C1504 0.931 . S
H1521 C1509 0.929 . S
H1522 C1510 0.960 . S
H1523 C1510 0.962 . S
H1524 C1510 0.960 . S
H1525 C1511 0.961 . S
H1526 C1511 0.961 . S
H1527 C1511 0.961 . S
H1528 C1512 0.931 . S
H1529 C1517 0.930 . S
H1530 C1518 0.956 . S
H1531 C1518 0.961 . S
H1532 C1518 0.961 . S
H1533 C1519 0.958 . S
H1534 C1519 0.961 . S
H1535 C1519 0.960 . S
C1536 C1537 1.391 . S
C1536 C1538 1.394 . S
C1536 H1552 0.931 . S
C1537 C1536 1.391 . S
C1537 C1541 1.376 . S
C1538 C1536 1.394 . S
C1538 C1539 1.369 . S
C1538 C1542 1.531 . S
C1539 C1538 1.369 . S
C1539 C1540 1.410 . S
C1539 C1547 1.503 . S
C1540 C1539 1.410 . S
C1540 C1541 1.392 . S
C1540 C1543 1.511 . S
C1541 C1537 1.376 . S
C1541 C1540 1.392 . S
C1541 H1553 0.929 . S
C1542 C1538 1.531 . S
C1542 H1554 0.960 . S
C1542 H1555 0.962 . S
C1542 H1556 0.960 . S
C1543 C1540 1.511 . S
C1543 H1557 0.961 . S
C1543 H1558 0.961 . S
C1543 H1559 0.961 . S
C1544 C1545 1.370 . S
C1544 C1546 1.363 . S
C1544 H1560 0.931 . S
C1545 C1544 1.370 . S
C1545 C1549 1.408 . S
C1546 C1544 1.363 . S
C1546 C1547 1.370 . S
C1546 C1550 1.524 . S
C1547 C1539 1.503 . S
C1547 C1546 1.370 . S
C1547 C1548 1.403 . S
C1548 C1547 1.403 . S
C1548 C1549 1.404 . S
C1548 C1551 1.539 . S
C1549 C1545 1.408 . S
C1549 C1548 1.404 . S
C1549 H1561 0.930 . S
C1550 C1546 1.524 . S
C1550 H1562 0.956 . S
C1550 H1563 0.961 . S
C1550 H1564 0.961 . S
C1551 C1548 1.539 . S
C1551 H1565 0.958 . S
C1551 H1566 0.961 1_455 S
C1551 H1567 0.960 . S
H1552 C1536 0.931 . S
H1553 C1541 0.929 . S
H1554 C1542 0.960 . S
H1555 C1542 0.962 . S
H1556 C1542 0.960 . S
H1557 C1543 0.961 . S
H1558 C1543 0.961 . S
H1559 C1543 0.961 . S
H1560 C1544 0.931 . S
H1561 C1549 0.930 . S
H1562 C1550 0.956 . S
H1563 C1550 0.961 . S
H1564 C1550 0.961 . S
H1565 C1551 0.958 . S
H1566 C1551 0.961 1_655 S
H1567 C1551 0.960 . S
C1568 C1569 1.391 . S
C1568 C1570 1.394 . S
C1568 H1584 0.931 . S
C1569 C1568 1.391 . S
C1569 C1573 1.376 . S
C1570 C1568 1.394 . S
C1570 C1571 1.369 . S
C1570 C1574 1.531 . S
C1571 C1570 1.369 . S
C1571 C1572 1.410 . S
C1571 C1579 1.503 . S
C1572 C1571 1.410 . S
C1572 C1573 1.392 . S
C1572 C1575 1.511 . S
C1573 C1569 1.376 . S
C1573 C1572 1.392 . S
C1573 H1585 0.929 . S
C1574 C1570 1.531 . S
C1574 H1586 0.960 . S
C1574 H1587 0.962 . S
C1574 H1588 0.960 . S
C1575 C1572 1.511 . S
C1575 H1589 0.961 . S
C1575 H1590 0.961 . S
C1575 H1591 0.961 . S
C1576 C1577 1.370 . S
C1576 C1578 1.363 . S
C1576 H1592 0.931 . S
C1577 C1576 1.370 . S
C1577 C1581 1.408 . S
C1578 C1576 1.363 . S
C1578 C1579 1.370 . S
C1578 C1582 1.524 . S
C1579 C1571 1.503 . S
C1579 C1578 1.370 . S
C1579 C1580 1.403 . S
C1580 C1579 1.403 . S
C1580 C1581 1.404 . S
C1580 C1583 1.539 . S
C1581 C1577 1.408 . S
C1581 C1580 1.404 . S
C1581 H1593 0.930 . S
C1582 C1578 1.524 . S
C1582 H1594 0.956 . S
C1582 H1595 0.961 . S
C1582 H1596 0.961 . S
C1583 C1580 1.539 . S
C1583 H1597 0.958 . S
C1583 H1598 0.961 . S
C1583 H1599 0.960 . S
H1584 C1568 0.931 . S
H1585 C1573 0.929 . S
H1586 C1574 0.960 . S
H1587 C1574 0.962 . S
H1588 C1574 0.960 . S
H1589 C1575 0.961 . S
H1590 C1575 0.961 . S
H1591 C1575 0.961 . S
H1592 C1576 0.931 . S
H1593 C1581 0.930 . S
H1594 C1582 0.956 . S
H1595 C1582 0.961 . S
H1596 C1582 0.961 . S
H1597 C1583 0.958 . S
H1598 C1583 0.961 . S
H1599 C1583 0.960 . S
C1600 C1601 1.391 . S
C1600 C1602 1.394 . S
C1600 H1616 0.931 . S
C1601 C1600 1.391 . S
C1601 C1605 1.376 . S
C1602 C1600 1.394 . S
C1602 C1603 1.369 . S
C1602 C1606 1.531 . S
C1603 C1602 1.369 . S
C1603 C1604 1.410 . S
C1603 C1611 1.503 . S
C1604 C1603 1.410 . S
C1604 C1605 1.392 . S
C1604 C1607 1.511 . S
C1605 C1601 1.376 . S
C1605 C1604 1.392 . S
C1605 H1617 0.929 . S
C1606 C1602 1.531 . S
C1606 H1618 0.960 . S
C1606 H1619 0.962 . S
C1606 H1620 0.960 . S
C1607 C1604 1.511 . S
C1607 H1621 0.961 . S
C1607 H1622 0.961 . S
C1607 H1623 0.961 . S
C1608 C1609 1.370 . S
C1608 C1610 1.363 . S
C1608 H1624 0.931 . S
C1609 C1608 1.370 . S
C1609 C1613 1.408 . S
C1610 C1608 1.363 . S
C1610 C1611 1.370 . S
C1610 C1614 1.524 . S
C1611 C1603 1.503 . S
C1611 C1610 1.370 . S
C1611 C1612 1.403 . S
C1612 C1611 1.403 . S
C1612 C1613 1.404 . S
C1612 C1615 1.539 . S
C1613 C1609 1.408 . S
C1613 C1612 1.404 . S
C1613 H1625 0.930 . S
C1614 C1610 1.524 . S
C1614 H1626 0.956 . S
C1614 H1627 0.961 . S
C1614 H1628 0.961 . S
C1615 C1612 1.539 . S
C1615 H1629 0.958 . S
C1615 H1630 0.961 . S
C1615 H1631 0.960 . S
H1616 C1600 0.931 . S
H1617 C1605 0.929 . S
H1618 C1606 0.960 . S
H1619 C1606 0.962 . S
H1620 C1606 0.960 . S
H1621 C1607 0.961 . S
H1622 C1607 0.961 . S
H1623 C1607 0.961 . S
H1624 C1608 0.931 . S
H1625 C1613 0.930 . S
H1626 C1614 0.956 . S
H1627 C1614 0.961 . S
H1628 C1614 0.961 . S
H1629 C1615 0.958 . S
H1630 C1615 0.961 . S
H1631 C1615 0.960 . S
C1632 C1633 1.391 . S
C1632 C1634 1.394 . S
C1632 H1648 0.931 . S
C1633 C1632 1.391 . S
C1633 C1637 1.376 . S
C1634 C1632 1.394 . S
C1634 C1635 1.369 . S
C1634 C1638 1.531 . S
C1635 C1634 1.369 . S
C1635 C1636 1.410 . S
C1635 C1643 1.503 . S
C1636 C1635 1.410 . S
C1636 C1637 1.392 . S
C1636 C1639 1.511 . S
C1637 C1633 1.376 . S
C1637 C1636 1.392 . S
C1637 H1649 0.929 . S
C1638 C1634 1.531 . S
C1638 H1650 0.960 . S
C1638 H1651 0.962 . S
C1638 H1652 0.960 . S
C1639 C1636 1.511 . S
C1639 H1653 0.961 . S
C1639 H1654 0.961 . S
C1639 H1655 0.961 . S
C1640 C1641 1.370 . S
C1640 C1642 1.363 . S
C1640 H1656 0.931 . S
C1641 C1640 1.370 . S
C1641 C1645 1.408 . S
C1642 C1640 1.363 . S
C1642 C1643 1.370 . S
C1642 C1646 1.524 . S
C1643 C1635 1.503 . S
C1643 C1642 1.370 . S
C1643 C1644 1.403 . S
C1644 C1643 1.403 . S
C1644 C1645 1.404 . S
C1644 C1647 1.539 . S
C1645 C1641 1.408 . S
C1645 C1644 1.404 . S
C1645 H1657 0.930 . S
C1646 C1642 1.524 . S
C1646 H1658 0.956 . S
C1646 H1659 0.961 . S
C1646 H1660 0.961 . S
C1647 C1644 1.539 . S
C1647 H1661 0.958 . S
C1647 H1662 0.961 . S
C1647 H1663 0.960 . S
H1648 C1632 0.931 . S
H1649 C1637 0.929 . S
H1650 C1638 0.960 . S
H1651 C1638 0.962 . S
H1652 C1638 0.960 . S
H1653 C1639 0.961 . S
H1654 C1639 0.961 . S
H1655 C1639 0.961 . S
H1656 C1640 0.931 . S
H1657 C1645 0.930 . S
H1658 C1646 0.956 . S
H1659 C1646 0.961 . S
H1660 C1646 0.961 . S
H1661 C1647 0.958 . S
H1662 C1647 0.961 . S
H1663 C1647 0.960 . S
C1664 C1665 1.391 . S
C1664 C1666 1.394 . S
C1664 H1680 0.931 . S
C1665 C1664 1.391 . S
C1665 C1669 1.376 . S
C1666 C1664 1.394 . S
C1666 C1667 1.369 . S
C1666 C1670 1.531 . S
C1667 C1666 1.369 . S
C1667 C1668 1.410 . S
C1667 C1675 1.503 . S
C1668 C1667 1.410 . S
C1668 C1669 1.392 . S
C1668 C1671 1.511 . S
C1669 C1665 1.376 . S
C1669 C1668 1.392 . S
C1669 H1681 0.929 . S
C1670 C1666 1.531 . S
C1670 H1682 0.960 . S
C1670 H1683 0.962 . S
C1670 H1684 0.960 . S
C1671 C1668 1.511 . S
C1671 H1685 0.961 . S
C1671 H1686 0.961 . S
C1671 H1687 0.961 . S
C1672 C1673 1.370 . S
C1672 C1674 1.363 . S
C1672 H1688 0.931 . S
C1673 C1672 1.370 . S
C1673 C1677 1.408 . S
C1674 C1672 1.363 . S
C1674 C1675 1.370 . S
C1674 C1678 1.524 . S
C1675 C1667 1.503 . S
C1675 C1674 1.370 . S
C1675 C1676 1.403 . S
C1676 C1675 1.403 . S
C1676 C1677 1.404 . S
C1676 C1679 1.539 . S
C1677 C1673 1.408 . S
C1677 C1676 1.404 . S
C1677 H1689 0.930 . S
C1678 C1674 1.524 . S
C1678 H1690 0.956 . S
C1678 H1691 0.961 . S
C1678 H1692 0.961 . S
C1679 C1676 1.539 . S
C1679 H1693 0.958 . S
C1679 H1694 0.961 1_655 S
C1679 H1695 0.960 . S
H1680 C1664 0.931 . S
H1681 C1669 0.929 . S
H1682 C1670 0.960 . S
H1683 C1670 0.962 . S
H1684 C1670 0.960 . S
H1685 C1671 0.961 . S
H1686 C1671 0.961 . S
H1687 C1671 0.961 . S
H1688 C1672 0.931 . S
H1689 C1677 0.930 . S
H1690 C1678 0.956 . S
H1691 C1678 0.961 . S
H1692 C1678 0.961 . S
H1693 C1679 0.958 . S
H1694 C1679 0.961 1_455 S
H1695 C1679 0.960 . S
C1696 C1697 1.391 . S
C1696 C1698 1.394 . S
C1696 H1712 0.931 . S
C1697 C1696 1.391 . S
C1697 C1701 1.376 . S
C1698 C1696 1.394 . S
C1698 C1699 1.369 . S
C1698 C1702 1.531 . S
C1699 C1698 1.369 . S
C1699 C1700 1.410 . S
C1699 C1707 1.503 . S
C1700 C1699 1.410 . S
C1700 C1701 1.392 . S
C1700 C1703 1.511 . S
C1701 C1697 1.376 . S
C1701 C1700 1.392 . S
C1701 H1713 0.929 . S
C1702 C1698 1.531 . S
C1702 H1714 0.960 . S
C1702 H1715 0.962 . S
C1702 H1716 0.960 . S
C1703 C1700 1.511 . S
C1703 H1717 0.961 . S
C1703 H1718 0.961 . S
C1703 H1719 0.961 . S
C1704 C1705 1.370 . S
C1704 C1706 1.363 . S
C1704 H1720 0.931 . S
C1705 C1704 1.370 . S
C1705 C1709 1.408 . S
C1706 C1704 1.363 . S
C1706 C1707 1.370 . S
C1706 C1710 1.524 . S
C1707 C1699 1.503 . S
C1707 C1706 1.370 . S
C1707 C1708 1.403 . S
C1708 C1707 1.403 . S
C1708 C1709 1.404 . S
C1708 C1711 1.539 . S
C1709 C1705 1.408 . S
C1709 C1708 1.404 . S
C1709 H1721 0.930 . S
C1710 C1706 1.524 . S
C1710 H1722 0.956 . S
C1710 H1723 0.961 . S
C1710 H1724 0.961 . S
C1711 C1708 1.539 . S
C1711 H1725 0.958 . S
C1711 H1726 0.961 . S
C1711 H1727 0.960 . S
H1712 C1696 0.931 . S
H1713 C1701 0.929 . S
H1714 C1702 0.960 . S
H1715 C1702 0.962 . S
H1716 C1702 0.960 . S
H1717 C1703 0.961 . S
H1718 C1703 0.961 . S
H1719 C1703 0.961 . S
H1720 C1704 0.931 . S
H1721 C1709 0.930 . S
H1722 C1710 0.956 . S
H1723 C1710 0.961 . S
H1724 C1710 0.961 . S
H1725 C1711 0.958 . S
H1726 C1711 0.961 . S
H1727 C1711 0.960 . S
C1728 C1729 1.391 . S
C1728 C1730 1.394 . S
C1728 H1744 0.931 . S
C1729 C1728 1.391 . S
C1729 C1733 1.376 . S
C1730 C1728 1.394 . S
C1730 C1731 1.369 . S
C1730 C1734 1.531 . S
C1731 C1730 1.369 . S
C1731 C1732 1.410 . S
C1731 C1739 1.503 . S
C1732 C1731 1.410 . S
C1732 C1733 1.392 . S
C1732 C1735 1.511 . S
C1733 C1729 1.376 . S
C1733 C1732 1.392 . S
C1733 H1745 0.929 . S
C1734 C1730 1.531 . S
C1734 H1746 0.960 . S
C1734 H1747 0.962 . S
C1734 H1748 0.960 . S
C1735 C1732 1.511 . S
C1735 H1749 0.961 . S
C1735 H1750 0.961 . S
C1735 H1751 0.961 . S
C1736 C1737 1.370 . S
C1736 C1738 1.363 . S
C1736 H1752 0.931 . S
C1737 C1736 1.370 . S
C1737 C1741 1.408 . S
C1738 C1736 1.363 . S
C1738 C1739 1.370 . S
C1738 C1742 1.524 . S
C1739 C1731 1.503 . S
C1739 C1738 1.370 . S
C1739 C1740 1.403 . S
C1740 C1739 1.403 . S
C1740 C1741 1.404 . S
C1740 C1743 1.539 . S
C1741 C1737 1.408 . S
C1741 C1740 1.404 . S
C1741 H1753 0.930 . S
C1742 C1738 1.524 . S
C1742 H1754 0.956 . S
C1742 H1755 0.961 . S
C1742 H1756 0.961 . S
C1743 C1740 1.539 . S
C1743 H1757 0.958 . S
C1743 H1758 0.961 . S
C1743 H1759 0.960 . S
H1744 C1728 0.931 . S
H1745 C1733 0.929 . S
H1746 C1734 0.960 . S
H1747 C1734 0.962 . S
H1748 C1734 0.960 . S
H1749 C1735 0.961 . S
H1750 C1735 0.961 . S
H1751 C1735 0.961 . S
H1752 C1736 0.931 . S
H1753 C1741 0.930 . S
H1754 C1742 0.956 . S
H1755 C1742 0.961 . S
H1756 C1742 0.961 . S
H1757 C1743 0.958 . S
H1758 C1743 0.961 . S
H1759 C1743 0.960 . S
C1760 C1761 1.391 . S
C1760 C1762 1.394 . S
C1760 H1776 0.931 . S
C1761 C1760 1.391 . S
C1761 C1765 1.376 . S
C1762 C1760 1.394 . S
C1762 C1763 1.369 . S
C1762 C1766 1.531 . S
C1763 C1762 1.369 . S
C1763 C1764 1.410 . S
C1763 C1771 1.503 . S
C1764 C1763 1.410 . S
C1764 C1765 1.392 . S
C1764 C1767 1.511 . S
C1765 C1761 1.376 . S
C1765 C1764 1.392 . S
C1765 H1777 0.929 . S
C1766 C1762 1.531 . S
C1766 H1778 0.960 . S
C1766 H1779 0.962 . S
C1766 H1780 0.960 . S
C1767 C1764 1.511 . S
C1767 H1781 0.961 . S
C1767 H1782 0.961 . S
C1767 H1783 0.961 . S
C1768 C1769 1.370 . S
C1768 C1770 1.363 . S
C1768 H1784 0.931 . S
C1769 C1768 1.370 . S
C1769 C1773 1.408 . S
C1770 C1768 1.363 . S
C1770 C1771 1.370 . S
C1770 C1774 1.524 . S
C1771 C1763 1.503 . S
C1771 C1770 1.370 . S
C1771 C1772 1.403 . S
C1772 C1771 1.403 . S
C1772 C1773 1.404 . S
C1772 C1775 1.539 . S
C1773 C1769 1.408 . S
C1773 C1772 1.404 . S
C1773 H1785 0.930 . S
C1774 C1770 1.524 . S
C1774 H1786 0.956 . S
C1774 H1787 0.961 . S
C1774 H1788 0.961 . S
C1775 C1772 1.539 . S
C1775 H1789 0.958 . S
C1775 H1790 0.961 . S
C1775 H1791 0.960 . S
H1776 C1760 0.931 . S
H1777 C1765 0.929 . S
H1778 C1766 0.960 . S
H1779 C1766 0.962 . S
H1780 C1766 0.960 . S
H1781 C1767 0.961 . S
H1782 C1767 0.961 . S
H1783 C1767 0.961 . S
H1784 C1768 0.931 . S
H1785 C1773 0.930 . S
H1786 C1774 0.956 . S
H1787 C1774 0.961 . S
H1788 C1774 0.961 . S
H1789 C1775 0.958 . S
H1790 C1775 0.961 . S
H1791 C1775 0.960 . S
C1792 C1793 1.391 . S
C1792 C1794 1.394 . S
C1792 H1808 0.931 . S
C1793 C1792 1.391 . S
C1793 C1797 1.376 . S
C1794 C1792 1.394 . S
C1794 C1795 1.369 . S
C1794 C1798 1.531 . S
C1795 C1794 1.369 . S
C1795 C1796 1.410 . S
C1795 C1803 1.503 . S
C1796 C1795 1.410 . S
C1796 C1797 1.392 . S
C1796 C1799 1.511 . S
C1797 C1793 1.376 . S
C1797 C1796 1.392 . S
C1797 H1809 0.929 . S
C1798 C1794 1.531 . S
C1798 H1810 0.960 . S
C1798 H1811 0.962 . S
C1798 H1812 0.960 . S
C1799 C1796 1.511 . S
C1799 H1813 0.961 . S
C1799 H1814 0.961 . S
C1799 H1815 0.961 . S
C1800 C1801 1.370 . S
C1800 C1802 1.363 . S
C1800 H1816 0.931 . S
C1801 C1800 1.370 . S
C1801 C1805 1.408 . S
C1802 C1800 1.363 . S
C1802 C1803 1.370 . S
C1802 C1806 1.524 . S
C1803 C1795 1.503 . S
C1803 C1802 1.370 . S
C1803 C1804 1.403 . S
C1804 C1803 1.403 . S
C1804 C1805 1.404 . S
C1804 C1807 1.539 . S
C1805 C1801 1.408 . S
C1805 C1804 1.404 . S
C1805 H1817 0.930 . S
C1806 C1802 1.524 . S
C1806 H1818 0.956 . S
C1806 H1819 0.961 . S
C1806 H1820 0.961 . S
C1807 C1804 1.539 . S
C1807 H1821 0.958 . S
C1807 H1822 0.961 . S
C1807 H1823 0.960 . S
H1808 C1792 0.931 . S
H1809 C1797 0.929 . S
H1810 C1798 0.960 . S
H1811 C1798 0.962 . S
H1812 C1798 0.960 . S
H1813 C1799 0.961 . S
H1814 C1799 0.961 . S
H1815 C1799 0.961 . S
H1816 C1800 0.931 . S
H1817 C1805 0.930 . S
H1818 C1806 0.956 . S
H1819 C1806 0.961 . S
H1820 C1806 0.961 . S
H1821 C1807 0.958 . S
H1822 C1807 0.961 . S
H1823 C1807 0.960 . S
C1824 C1825 1.391 . S
C1824 C1826 1.394 . S
C1824 H1840 0.931 . S
C1825 C1824 1.391 . S
C1825 C1829 1.376 . S
C1826 C1824 1.394 . S
C1826 C1827 1.369 . S
C1826 C1830 1.531 . S
C1827 C1826 1.369 . S
C1827 C1828 1.410 . S
C1827 C1835 1.503 . S
C1828 C1827 1.410 . S
C1828 C1829 1.392 . S
C1828 C1831 1.511 . S
C1829 C1825 1.376 . S
C1829 C1828 1.392 . S
C1829 H1841 0.929 . S
C1830 C1826 1.531 . S
C1830 H1842 0.960 . S
C1830 H1843 0.962 . S
C1830 H1844 0.960 . S
C1831 C1828 1.511 . S
C1831 H1845 0.961 . S
C1831 H1846 0.961 . S
C1831 H1847 0.961 . S
C1832 C1833 1.370 . S
C1832 C1834 1.363 . S
C1832 H1848 0.931 . S
C1833 C1832 1.370 . S
C1833 C1837 1.408 . S
C1834 C1832 1.363 . S
C1834 C1835 1.370 . S
C1834 C1838 1.524 . S
C1835 C1827 1.503 . S
C1835 C1834 1.370 . S
C1835 C1836 1.403 . S
C1836 C1835 1.403 . S
C1836 C1837 1.404 . S
C1836 C1839 1.539 . S
C1837 C1833 1.408 . S
C1837 C1836 1.404 . S
C1837 H1849 0.930 . S
C1838 C1834 1.524 . S
C1838 H1850 0.956 . S
C1838 H1851 0.961 . S
C1838 H1852 0.961 . S
C1839 C1836 1.539 . S
C1839 H1853 0.958 . S
C1839 H1854 0.961 . S
C1839 H1855 0.960 . S
H1840 C1824 0.931 . S
H1841 C1829 0.929 . S
H1842 C1830 0.960 . S
H1843 C1830 0.962 . S
H1844 C1830 0.960 . S
H1845 C1831 0.961 . S
H1846 C1831 0.961 . S
H1847 C1831 0.961 . S
H1848 C1832 0.931 . S
H1849 C1837 0.930 . S
H1850 C1838 0.956 . S
H1851 C1838 0.961 . S
H1852 C1838 0.961 . S
H1853 C1839 0.958 . S
H1854 C1839 0.961 . S
H1855 C1839 0.960 . S
C1856 C1857 1.391 . S
C1856 C1858 1.394 . S
C1856 H1872 0.931 . S
C1857 C1856 1.391 . S
C1857 C1861 1.376 . S
C1858 C1856 1.394 . S
C1858 C1859 1.369 . S
C1858 C1862 1.531 . S
C1859 C1858 1.369 . S
C1859 C1860 1.410 . S
C1859 C1867 1.503 . S
C1860 C1859 1.410 . S
C1860 C1861 1.392 . S
C1860 C1863 1.511 . S
C1861 C1857 1.376 . S
C1861 C1860 1.392 . S
C1861 H1873 0.929 . S
C1862 C1858 1.531 . S
C1862 H1874 0.960 . S
C1862 H1875 0.962 . S
C1862 H1876 0.960 . S
C1863 C1860 1.511 . S
C1863 H1877 0.961 . S
C1863 H1878 0.961 . S
C1863 H1879 0.961 . S
C1864 C1865 1.370 . S
C1864 C1866 1.363 . S
C1864 H1880 0.931 . S
C1865 C1864 1.370 . S
C1865 C1869 1.408 . S
C1866 C1864 1.363 . S
C1866 C1867 1.370 . S
C1866 C1870 1.524 . S
C1867 C1859 1.503 . S
C1867 C1866 1.370 . S
C1867 C1868 1.403 . S
C1868 C1867 1.403 . S
C1868 C1869 1.404 . S
C1868 C1871 1.539 . S
C1869 C1865 1.408 . S
C1869 C1868 1.404 . S
C1869 H1881 0.930 . S
C1870 C1866 1.524 . S
C1870 H1882 0.956 . S
C1870 H1883 0.961 . S
C1870 H1884 0.961 . S
C1871 C1868 1.539 . S
C1871 H1885 0.958 . S
C1871 H1886 0.961 . S
C1871 H1887 0.960 . S
H1872 C1856 0.931 . S
H1873 C1861 0.929 . S
H1874 C1862 0.960 . S
H1875 C1862 0.962 . S
H1876 C1862 0.960 . S
H1877 C1863 0.961 . S
H1878 C1863 0.961 . S
H1879 C1863 0.961 . S
H1880 C1864 0.931 . S
H1881 C1869 0.930 . S
H1882 C1870 0.956 . S
H1883 C1870 0.961 . S
H1884 C1870 0.961 . S
H1885 C1871 0.958 . S
H1886 C1871 0.961 . S
H1887 C1871 0.960 . S
C1888 C1889 1.391 . S
C1888 C1890 1.394 . S
C1888 H1904 0.931 . S
C1889 C1888 1.391 . S
C1889 C1893 1.376 . S
C1890 C1888 1.394 . S
C1890 C1891 1.369 . S
C1890 C1894 1.531 . S
C1891 C1890 1.369 . S
C1891 C1892 1.410 . S
C1891 C1899 1.503 . S
C1892 C1891 1.410 . S
C1892 C1893 1.392 . S
C1892 C1895 1.511 . S
C1893 C1889 1.376 . S
C1893 C1892 1.392 . S
C1893 H1905 0.929 . S
C1894 C1890 1.531 . S
C1894 H1906 0.960 . S
C1894 H1907 0.962 . S
C1894 H1908 0.960 . S
C1895 C1892 1.511 . S
C1895 H1909 0.961 . S
C1895 H1910 0.961 . S
C1895 H1911 0.961 . S
C1896 C1897 1.370 . S
C1896 C1898 1.363 . S
C1896 H1912 0.931 . S
C1897 C1896 1.370 . S
C1897 C1901 1.408 . S
C1898 C1896 1.363 . S
C1898 C1899 1.370 . S
C1898 C1902 1.524 . S
C1899 C1891 1.503 . S
C1899 C1898 1.370 . S
C1899 C1900 1.403 . S
C1900 C1899 1.403 . S
C1900 C1901 1.404 . S
C1900 C1903 1.539 . S
C1901 C1897 1.408 . S
C1901 C1900 1.404 . S
C1901 H1913 0.930 . S
C1902 C1898 1.524 . S
C1902 H1914 0.956 . S
C1902 H1915 0.961 . S
C1902 H1916 0.961 . S
C1903 C1900 1.539 . S
C1903 H1917 0.958 . S
C1903 H1918 0.961 . S
C1903 H1919 0.960 . S
H1904 C1888 0.931 . S
H1905 C1893 0.929 . S
H1906 C1894 0.960 . S
H1907 C1894 0.962 . S
H1908 C1894 0.960 . S
H1909 C1895 0.961 . S
H1910 C1895 0.961 . S
H1911 C1895 0.961 . S
H1912 C1896 0.931 . S
H1913 C1901 0.930 . S
H1914 C1902 0.956 . S
H1915 C1902 0.961 . S
H1916 C1902 0.961 . S
H1917 C1903 0.958 . S
H1918 C1903 0.961 . S
H1919 C1903 0.960 . S
C1920 C1921 1.391 . S
C1920 C1922 1.394 . S
C1920 H1936 0.931 . S
C1921 C1920 1.391 . S
C1921 C1925 1.376 . S
C1922 C1920 1.394 . S
C1922 C1923 1.369 . S
C1922 C1926 1.531 . S
C1923 C1922 1.369 . S
C1923 C1924 1.410 . S
C1923 C1931 1.503 . S
C1924 C1923 1.410 . S
C1924 C1925 1.392 . S
C1924 C1927 1.511 . S
C1925 C1921 1.376 . S
C1925 C1924 1.392 . S
C1925 H1937 0.929 . S
C1926 C1922 1.531 . S
C1926 H1938 0.960 . S
C1926 H1939 0.962 . S
C1926 H1940 0.960 . S
C1927 C1924 1.511 . S
C1927 H1941 0.961 . S
C1927 H1942 0.961 . S
C1927 H1943 0.961 . S
C1928 C1929 1.370 . S
C1928 C1930 1.363 . S
C1928 H1944 0.931 . S
C1929 C1928 1.370 . S
C1929 C1933 1.408 . S
C1930 C1928 1.363 . S
C1930 C1931 1.370 . S
C1930 C1934 1.524 . S
C1931 C1923 1.503 . S
C1931 C1930 1.370 . S
C1931 C1932 1.403 . S
C1932 C1931 1.403 . S
C1932 C1933 1.404 . S
C1932 C1935 1.539 . S
C1933 C1929 1.408 . S
C1933 C1932 1.404 . S
C1933 H1945 0.930 . S
C1934 C1930 1.524 . S
C1934 H1946 0.956 . S
C1934 H1947 0.961 . S
C1934 H1948 0.961 . S
C1935 C1932 1.539 . S
C1935 H1949 0.958 . S
C1935 H1950 0.961 . S
C1935 H1951 0.960 . S
H1936 C1920 0.931 . S
H1937 C1925 0.929 . S
H1938 C1926 0.960 . S
H1939 C1926 0.962 . S
H1940 C1926 0.960 . S
H1941 C1927 0.961 . S
H1942 C1927 0.961 . S
H1943 C1927 0.961 . S
H1944 C1928 0.931 . S
H1945 C1933 0.930 . S
H1946 C1934 0.956 . S
H1947 C1934 0.961 . S
H1948 C1934 0.961 . S
H1949 C1935 0.958 . S
H1950 C1935 0.961 . S
H1951 C1935 0.960 . S
C1952 C1953 1.391 . S
C1952 C1954 1.394 . S
C1952 H1968 0.931 . S
C1953 C1952 1.391 . S
C1953 C1957 1.376 . S
C1954 C1952 1.394 . S
C1954 C1955 1.369 . S
C1954 C1958 1.531 . S
C1955 C1954 1.369 . S
C1955 C1956 1.410 . S
C1955 C1963 1.503 . S
C1956 C1955 1.410 . S
C1956 C1957 1.392 . S
C1956 C1959 1.511 . S
C1957 C1953 1.376 . S
C1957 C1956 1.392 . S
C1957 H1969 0.929 . S
C1958 C1954 1.531 . S
C1958 H1970 0.960 . S
C1958 H1971 0.962 . S
C1958 H1972 0.960 . S
C1959 C1956 1.511 . S
C1959 H1973 0.961 . S
C1959 H1974 0.961 . S
C1959 H1975 0.961 . S
C1960 C1961 1.370 . S
C1960 C1962 1.363 . S
C1960 H1976 0.931 . S
C1961 C1960 1.370 . S
C1961 C1965 1.408 . S
C1962 C1960 1.363 . S
C1962 C1963 1.370 . S
C1962 C1966 1.524 . S
C1963 C1955 1.503 . S
C1963 C1962 1.370 . S
C1963 C1964 1.403 . S
C1964 C1963 1.403 . S
C1964 C1965 1.404 . S
C1964 C1967 1.539 . S
C1965 C1961 1.408 . S
C1965 C1964 1.404 . S
C1965 H1977 0.930 . S
C1966 C1962 1.524 . S
C1966 H1978 0.956 . S
C1966 H1979 0.961 . S
C1966 H1980 0.961 . S
C1967 C1964 1.539 . S
C1967 H1981 0.958 . S
C1967 H1982 0.961 . S
C1967 H1983 0.960 . S
H1968 C1952 0.931 . S
H1969 C1957 0.929 . S
H1970 C1958 0.960 . S
H1971 C1958 0.962 . S
H1972 C1958 0.960 . S
H1973 C1959 0.961 . S
H1974 C1959 0.961 . S
H1975 C1959 0.961 . S
H1976 C1960 0.931 . S
H1977 C1965 0.930 . S
H1978 C1966 0.956 . S
H1979 C1966 0.961 . S
H1980 C1966 0.961 . S
H1981 C1967 0.958 . S
H1982 C1967 0.961 . S
H1983 C1967 0.960 . S
C1984 C1985 1.391 . S
C1984 C1986 1.394 . S
C1984 H2000 0.931 . S
C1985 C1984 1.391 . S
C1985 C1989 1.376 . S
C1986 C1984 1.394 . S
C1986 C1987 1.369 . S
C1986 C1990 1.531 . S
C1987 C1986 1.369 . S
C1987 C1988 1.410 . S
C1987 C1995 1.503 . S
C1988 C1987 1.410 . S
C1988 C1989 1.392 . S
C1988 C1991 1.511 . S
C1989 C1985 1.376 . S
C1989 C1988 1.392 . S
C1989 H2001 0.929 . S
C1990 C1986 1.531 . S
C1990 H2002 0.960 . S
C1990 H2003 0.962 . S
C1990 H2004 0.960 . S
C1991 C1988 1.511 . S
C1991 H2005 0.961 . S
C1991 H2006 0.961 . S
C1991 H2007 0.961 . S
C1992 C1993 1.370 . S
C1992 C1994 1.363 . S
C1992 H2008 0.931 . S
C1993 C1992 1.370 . S
C1993 C1997 1.408 . S
C1994 C1992 1.363 . S
C1994 C1995 1.370 . S
C1994 C1998 1.524 . S
C1995 C1987 1.503 . S
C1995 C1994 1.370 . S
C1995 C1996 1.403 . S
C1996 C1995 1.403 . S
C1996 C1997 1.404 . S
C1996 C1999 1.539 . S
C1997 C1993 1.408 . S
C1997 C1996 1.404 . S
C1997 H2009 0.930 . S
C1998 C1994 1.524 . S
C1998 H2010 0.956 . S
C1998 H2011 0.961 . S
C1998 H2012 0.961 . S
C1999 C1996 1.539 . S
C1999 H2013 0.958 . S
C1999 H2014 0.961 . S
C1999 H2015 0.960 . S
H2000 C1984 0.931 . S
H2001 C1989 0.929 . S
H2002 C1990 0.960 . S
H2003 C1990 0.962 . S
H2004 C1990 0.960 . S
H2005 C1991 0.961 . S
H2006 C1991 0.961 . S
H2007 C1991 0.961 . S
H2008 C1992 0.931 . S
H2009 C1997 0.930 . S
H2010 C1998 0.956 . S
H2011 C1998 0.961 . S
H2012 C1998 0.961 . S
H2013 C1999 0.958 . S
H2014 C1999 0.961 . S
H2015 C1999 0.960 . S
C2016 C2017 1.391 . S
C2016 C2018 1.394 . S
C2016 H2032 0.931 . S
C2017 C2016 1.391 . S
C2017 C2021 1.376 . S
C2018 C2016 1.394 . S
C2018 C2019 1.369 . S
C2018 C2022 1.531 . S
C2019 C2018 1.369 . S
C2019 C2020 1.410 . S
C2019 C2027 1.503 . S
C2020 C2019 1.410 . S
C2020 C2021 1.392 . S
C2020 C2023 1.506 1_554 S
C2021 C2017 1.376 . S
C2021 C2020 1.392 . S
C2021 H2033 0.929 1_554 S
C2022 C2018 1.531 . S
C2022 H2034 0.960 . S
C2022 H2035 0.962 . S
C2022 H2036 0.960 . S
C2023 C2020 1.506 1_556 S
C2023 H2037 0.984 . S
C2023 H2038 0.977 . S
C2023 H2039 0.929 1_556 S
C2024 C2025 1.370 1_556 S
C2024 C2026 1.363 . S
C2024 H2040 0.931 . S
C2025 C2024 1.370 1_554 S
C2025 C2029 1.408 . S
C2026 C2024 1.363 . S
C2026 C2027 1.370 1_556 S
C2026 C2030 1.524 . S
C2027 C2019 1.503 . S
C2027 C2026 1.370 1_554 S
C2027 C2028 1.403 . S
C2028 C2027 1.403 . S
C2028 C2029 1.404 . S
C2028 C2031 1.539 . S
C2029 C2025 1.408 . S
C2029 C2028 1.404 . S
C2029 H2041 0.930 . S
C2030 C2026 1.524 . S
C2030 H2042 0.956 . S
C2030 H2043 0.961 . S
C2030 H2044 0.961 . S
C2031 C2028 1.539 . S
C2031 H2045 0.958 . S
C2031 H2046 0.961 . S
C2031 H2047 0.960 . S
H2032 C2016 0.931 . S
H2033 C2021 0.929 1_556 S
H2034 C2022 0.960 . S
H2035 C2022 0.962 . S
H2036 C2022 0.960 . S
H2037 C2023 0.984 . S
H2038 C2023 0.977 . S
H2039 C2023 0.929 1_554 S
H2040 C2024 0.931 . S
H2041 C2029 0.930 . S
H2042 C2030 0.956 . S
H2043 C2030 0.961 . S
H2044 C2030 0.961 . S
H2045 C2031 0.958 . S
H2046 C2031 0.961 . S
H2047 C2031 0.960 . S
C2048 C2049 1.391 . S
C2048 C2050 1.394 1_554 S
C2048 H2064 0.931 . S
C2049 C2048 1.391 . S
C2049 C2053 1.377 . S
C2050 C2048 1.394 1_556 S
C2050 C2051 1.369 . S
C2050 C2054 1.531 . S
C2051 C2050 1.369 . S
C2051 C2052 1.410 . S
C2051 C2059 1.504 . S
C2052 C2051 1.410 . S
C2052 C2053 1.391 1_556 S
C2052 C2055 1.511 . S
C2053 C2049 1.377 . S
C2053 C2052 1.391 1_554 S
C2053 H2065 0.930 . S
C2054 C2050 1.531 . S
C2054 H2066 0.960 . S
C2054 H2067 0.962 1_556 S
C2054 H2068 0.960 . S
C2055 C2052 1.511 . S
C2055 H2069 0.961 1_556 S
C2055 H2070 0.961 1_556 S
C2055 H2071 0.961 . S
C2056 C2057 1.370 . S
C2056 C2058 1.363 . S
C2056 H2072 0.931 . S
C2057 C2056 1.370 . S
C2057 C2061 1.408 1_554 S
C2058 C2056 1.363 . S
C2058 C2059 1.358 1_554 S
C2058 C2062 1.524 . S
C2059 C2051 1.504 . S
C2059 C2058 1.358 1_556 S
C2059 C2060 1.414 . S
C2060 C2059 1.414 . S
C2060 C2061 1.404 . S
C2060 C2063 1.539 . S
C2061 C2057 1.408 1_556 S
C2061 C2060 1.404 . S
C2061 H2073 0.930 . S
C2062 C2058 1.524 . S
C2062 H2074 0.956 . S
C2062 H2075 0.961 . S
C2062 H2076 0.961 . S
C2063 C2060 1.539 . S
C2063 H2077 0.958 . S
C2063 H2078 0.961 . S
C2063 H2079 0.960 . S
H2064 C2048 0.931 . S
H2065 C2053 0.930 . S
H2066 C2054 0.960 . S
H2067 C2054 0.962 1_554 S
H2068 C2054 0.960 . S
H2069 C2055 0.961 1_554 S
H2070 C2055 0.961 1_554 S
H2071 C2055 0.961 . S
H2072 C2056 0.931 . S
H2073 C2061 0.930 . S
H2074 C2062 0.956 . S
H2075 C2062 0.961 . S
H2076 C2062 0.961 . S
H2077 C2063 0.958 . S
H2078 C2063 0.961 . S
H2079 C2063 0.960 . S
C2080 C2081 1.391 . S
C2080 C2082 1.394 . S
C2080 H2096 0.931 . S
C2081 C2080 1.391 . S
C2081 C2085 1.376 . S
C2082 C2080 1.394 . S
C2082 C2083 1.369 . S
C2082 C2086 1.531 . S
C2083 C2082 1.369 . S
C2083 C2084 1.410 . S
C2083 C2091 1.503 . S
C2084 C2083 1.410 . S
C2084 C2085 1.392 . S
C2084 C2087 1.511 . S
C2085 C2081 1.376 . S
C2085 C2084 1.392 . S
C2085 H2097 0.929 . S
C2086 C2082 1.531 . S
C2086 H2098 0.960 . S
C2086 H2099 0.962 . S
C2086 H2100 0.960 . S
C2087 C2084 1.511 . S
C2087 H2101 0.961 . S
C2087 H2102 0.961 . S
C2087 H2103 0.961 . S
C2088 C2089 1.370 . S
C2088 C2090 1.363 . S
C2088 H2104 0.931 . S
C2089 C2088 1.370 . S
C2089 C2093 1.408 . S
C2090 C2088 1.363 . S
C2090 C2091 1.370 . S
C2090 C2094 1.524 . S
C2091 C2083 1.503 . S
C2091 C2090 1.370 . S
C2091 C2092 1.403 . S
C2092 C2091 1.403 . S
C2092 C2093 1.404 . S
C2092 C2095 1.539 . S
C2093 C2089 1.408 . S
C2093 C2092 1.404 . S
C2093 H2105 0.930 . S
C2094 C2090 1.524 . S
C2094 H2106 0.956 . S
C2094 H2107 0.961 . S
C2094 H2108 0.961 . S
C2095 C2092 1.539 . S
C2095 H2109 0.958 . S
C2095 H2110 0.961 . S
C2095 H2111 0.960 . S
H2096 C2080 0.931 . S
H2097 C2085 0.929 . S
H2098 C2086 0.960 . S
H2099 C2086 0.962 . S
H2100 C2086 0.960 . S
H2101 C2087 0.961 . S
H2102 C2087 0.961 . S
H2103 C2087 0.961 . S
H2104 C2088 0.931 . S
H2105 C2093 0.930 . S
H2106 C2094 0.956 . S
H2107 C2094 0.961 . S
H2108 C2094 0.961 . S
H2109 C2095 0.958 . S
H2110 C2095 0.961 . S
H2111 C2095 0.960 . S
C2112 C2113 1.391 . S
C2112 C2114 1.394 . S
C2112 H2128 0.931 . S
C2113 C2112 1.391 . S
C2113 C2117 1.376 . S
C2114 C2112 1.394 . S
C2114 C2115 1.369 . S
C2114 C2118 1.531 . S
C2115 C2114 1.369 . S
C2115 C2116 1.410 . S
C2115 C2123 1.503 . S
C2116 C2115 1.410 . S
C2116 C2117 1.392 . S
C2116 C2119 1.511 . S
C2117 C2113 1.376 . S
C2117 C2116 1.392 . S
C2117 H2129 0.929 . S
C2118 C2114 1.531 . S
C2118 H2130 0.960 . S
C2118 H2131 0.962 . S
C2118 H2132 0.960 . S
C2119 C2116 1.511 . S
C2119 H2133 0.961 . S
C2119 H2134 0.961 . S
C2119 H2135 0.961 . S
C2120 C2121 1.370 . S
C2120 C2122 1.363 . S
C2120 H2136 0.931 . S
C2121 C2120 1.370 . S
C2121 C2125 1.408 . S
C2122 C2120 1.363 . S
C2122 C2123 1.370 . S
C2122 C2126 1.524 . S
C2123 C2115 1.503 . S
C2123 C2122 1.370 . S
C2123 C2124 1.403 . S
C2124 C2123 1.403 . S
C2124 C2125 1.404 . S
C2124 C2127 1.539 . S
C2125 C2121 1.408 . S
C2125 C2124 1.404 . S
C2125 H2137 0.930 . S
C2126 C2122 1.524 . S
C2126 H2138 0.956 . S
C2126 H2139 0.961 . S
C2126 H2140 0.961 . S
C2127 C2124 1.539 . S
C2127 H2141 0.958 . S
C2127 H2142 0.961 . S
C2127 H2143 0.960 . S
H2128 C2112 0.931 . S
H2129 C2117 0.929 . S
H2130 C2118 0.960 . S
H2131 C2118 0.962 . S
H2132 C2118 0.960 . S
H2133 C2119 0.961 . S
H2134 C2119 0.961 . S
H2135 C2119 0.961 . S
H2136 C2120 0.931 . S
H2137 C2125 0.930 . S
H2138 C2126 0.956 . S
H2139 C2126 0.961 . S
H2140 C2126 0.961 . S
H2141 C2127 0.958 . S
H2142 C2127 0.961 . S
H2143 C2127 0.960 . S
C2144 C2145 1.391 . S
C2144 C2146 1.394 . S
C2144 H2160 0.931 . S
C2145 C2144 1.391 . S
C2145 C2149 1.376 1_556 S
C2146 C2144 1.394 . S
C2146 C2147 1.411 . S
C2146 C2150 1.531 . S
C2147 C2146 1.411 . S
C2147 C2148 1.369 1_556 S
C2147 C2155 1.506 . S
C2148 C2147 1.369 1_554 S
C2148 C2149 1.392 . S
C2148 C2151 1.511 . S
C2149 C2145 1.376 1_554 S
C2149 C2148 1.392 . S
C2149 H2161 0.929 . S
C2150 C2146 1.531 . S
C2150 H2162 0.960 . S
C2150 H2163 0.962 . S
C2150 H2164 0.960 . S
C2151 C2148 1.511 . S
C2151 H2165 0.961 . S
C2151 H2166 0.961 . S
C2151 H2167 0.961 . S
C2152 C2153 1.370 . S
C2152 C2154 1.363 . S
C2152 H2168 0.931 . S
C2153 C2152 1.370 . S
C2153 C2157 1.408 1_556 S
C2154 C2152 1.363 . S
C2154 C2155 1.370 . S
C2154 C2158 1.524 . S
C2155 C2147 1.506 . S
C2155 C2154 1.370 . S
C2155 C2156 1.403 1_556 S
C2156 C2155 1.403 1_554 S
C2156 C2157 1.404 . S
C2156 C2159 1.539 . S
C2157 C2153 1.408 1_554 S
C2157 C2156 1.404 . S
C2157 H2169 0.930 . S
C2158 C2154 1.524 . S
C2158 H2170 0.956 . S
C2158 H2171 0.961 . S
C2158 H2172 0.961 . S
C2159 C2156 1.539 . S
C2159 H2173 0.958 . S
C2159 H2174 0.961 . S
C2159 H2175 0.960 . S
H2160 C2144 0.931 . S
H2161 C2149 0.929 . S
H2162 C2150 0.960 . S
H2163 C2150 0.962 . S
H2164 C2150 0.960 . S
H2165 C2151 0.961 . S
H2166 C2151 0.961 . S
H2167 C2151 0.961 . S
H2168 C2152 0.931 . S
H2169 C2157 0.930 . S
H2170 C2158 0.956 . S
H2171 C2158 0.961 . S
H2172 C2158 0.961 . S
H2173 C2159 0.958 . S
H2174 C2159 0.961 . S
H2175 C2159 0.960 . S
C2176 C2177 1.391 1_554 S
C2176 C2178 1.394 . S
C2176 H2192 0.931 . S
C2177 C2176 1.391 1_556 S
C2177 C2181 1.376 . S
C2178 C2176 1.394 . S
C2178 C2179 1.369 . S
C2178 C2182 1.531 . S
C2179 C2178 1.369 . S
C2179 C2180 1.410 1_554 S
C2179 C2187 1.504 . S
C2180 C2179 1.410 1_556 S
C2180 C2181 1.392 . S
C2180 C2183 1.511 . S
C2181 C2177 1.376 . S
C2181 C2180 1.392 . S
C2181 H2193 0.929 . S
C2182 C2178 1.531 . S
C2182 H2194 0.960 . S
C2182 H2195 0.943 1_554 S
C2182 H2196 0.960 . S
C2183 C2180 1.511 . S
C2183 H2197 0.961 . S
C2183 H2198 0.961 . S
C2183 H2199 0.961 1_556 S
C2184 C2185 1.370 . S
C2184 C2186 1.363 . S
C2184 H2200 0.931 . S
C2185 C2184 1.370 . S
C2185 C2189 1.408 1_556 S
C2186 C2184 1.363 . S
C2186 C2187 1.363 1_556 S
C2186 C2190 1.524 . S
C2187 C2179 1.504 . S
C2187 C2186 1.363 1_554 S
C2187 C2188 1.409 . S
C2188 C2187 1.409 . S
C2188 C2189 1.404 . S
C2188 C2191 1.539 . S
C2189 C2185 1.408 1_554 S
C2189 C2188 1.404 . S
C2189 H2201 0.930 . S
C2190 C2186 1.524 . S
C2190 H2202 0.956 . S
C2190 H2203 0.961 . S
C2190 H2204 0.961 . S
C2191 C2188 1.539 . S
C2191 H2205 0.958 . S
C2191 H2206 0.961 . S
C2191 H2207 0.960 . S
H2192 C2176 0.931 . S
H2193 C2181 0.929 . S
H2194 C2182 0.960 . S
H2195 C2182 0.943 1_556 S
H2196 C2182 0.960 . S
H2197 C2183 0.961 . S
H2198 C2183 0.961 . S
H2199 C2183 0.961 1_554 S
H2200 C2184 0.931 . S
H2201 C2189 0.930 . S
H2202 C2190 0.956 . S
H2203 C2190 0.961 . S
H2204 C2190 0.961 . S
H2205 C2191 0.958 . S
H2206 C2191 0.961 . S
H2207 C2191 0.960 . S
C2208 C2209 1.391 . S
C2208 C2210 1.394 . S
C2208 H2224 0.931 . S
C2209 C2208 1.391 . S
C2209 C2213 1.376 . S
C2210 C2208 1.394 . S
C2210 C2211 1.369 . S
C2210 C2214 1.531 . S
C2211 C2210 1.369 . S
C2211 C2212 1.410 . S
C2211 C2219 1.503 . S
C2212 C2211 1.410 . S
C2212 C2213 1.392 . S
C2212 C2215 1.511 . S
C2213 C2209 1.376 . S
C2213 C2212 1.392 . S
C2213 H2225 0.929 . S
C2214 C2210 1.531 . S
C2214 H2226 0.960 . S
C2214 H2227 0.962 . S
C2214 H2228 0.960 . S
C2215 C2212 1.511 . S
C2215 H2229 0.961 . S
C2215 H2230 0.961 . S
C2215 H2231 0.961 . S
C2216 C2217 1.370 . S
C2216 C2218 1.363 . S
C2216 H2232 0.931 . S
C2217 C2216 1.370 . S
C2217 C2221 1.408 . S
C2218 C2216 1.363 . S
C2218 C2219 1.370 . S
C2218 C2222 1.524 . S
C2219 C2211 1.503 . S
C2219 C2218 1.370 . S
C2219 C2220 1.403 . S
C2220 C2219 1.403 . S
C2220 C2221 1.404 . S
C2220 C2223 1.539 . S
C2221 C2217 1.408 . S
C2221 C2220 1.404 . S
C2221 H2233 0.930 . S
C2222 C2218 1.524 . S
C2222 H2234 0.956 . S
C2222 H2235 0.961 . S
C2222 H2236 0.961 . S
C2223 C2220 1.539 . S
C2223 H2237 0.958 . S
C2223 H2238 0.961 . S
C2223 H2239 0.960 . S
H2224 C2208 0.931 . S
H2225 C2213 0.929 . S
H2226 C2214 0.960 . S
H2227 C2214 0.962 . S
H2228 C2214 0.960 . S
H2229 C2215 0.961 . S
H2230 C2215 0.961 . S
H2231 C2215 0.961 . S
H2232 C2216 0.931 . S
H2233 C2221 0.930 . S
H2234 C2222 0.956 . S
H2235 C2222 0.961 . S
H2236 C2222 0.961 . S
H2237 C2223 0.958 . S
H2238 C2223 0.961 . S
H2239 C2223 0.960 . S
C2240 C2241 1.391 . S
C2240 C2242 1.394 . S
C2240 H2256 0.931 . S
C2241 C2240 1.391 . S
C2241 C2245 1.376 . S
C2242 C2240 1.394 . S
C2242 C2243 1.369 . S
C2242 C2246 1.531 . S
C2243 C2242 1.369 . S
C2243 C2244 1.410 . S
C2243 C2251 1.503 . S
C2244 C2243 1.410 . S
C2244 C2245 1.392 . S
C2244 C2247 1.511 . S
C2245 C2241 1.376 . S
C2245 C2244 1.392 . S
C2245 H2257 0.929 . S
C2246 C2242 1.531 . S
C2246 H2258 0.960 . S
C2246 H2259 0.962 . S
C2246 H2260 0.960 . S
C2247 C2244 1.511 . S
C2247 H2261 0.961 . S
C2247 H2262 0.961 . S
C2247 H2263 0.961 . S
C2248 C2249 1.370 . S
C2248 C2250 1.363 . S
C2248 H2264 0.931 . S
C2249 C2248 1.370 . S
C2249 C2253 1.408 . S
C2250 C2248 1.363 . S
C2250 C2251 1.370 . S
C2250 C2254 1.524 . S
C2251 C2243 1.503 . S
C2251 C2250 1.370 . S
C2251 C2252 1.403 . S
C2252 C2251 1.403 . S
C2252 C2253 1.404 . S
C2252 C2255 1.539 . S
C2253 C2249 1.408 . S
C2253 C2252 1.404 . S
C2253 H2265 0.930 . S
C2254 C2250 1.524 . S
C2254 H2266 0.956 . S
C2254 H2267 0.961 . S
C2254 H2268 0.961 . S
C2255 C2252 1.539 . S
C2255 H2269 0.958 . S
C2255 H2270 0.961 . S
C2255 H2271 0.960 . S
H2256 C2240 0.931 . S
H2257 C2245 0.929 . S
H2258 C2246 0.960 . S
H2259 C2246 0.962 . S
H2260 C2246 0.960 . S
H2261 C2247 0.961 . S
H2262 C2247 0.961 . S
H2263 C2247 0.961 . S
H2264 C2248 0.931 . S
H2265 C2253 0.930 . S
H2266 C2254 0.956 . S
H2267 C2254 0.961 . S
H2268 C2254 0.961 . S
H2269 C2255 0.958 . S
H2270 C2255 0.961 . S
H2271 C2255 0.960 . S
C2272 C2273 1.391 . S
C2272 C2274 1.394 . S
C2272 H2288 0.931 . S
C2273 C2272 1.391 . S
C2273 C2277 1.376 . S
C2274 C2272 1.394 . S
C2274 C2275 1.369 . S
C2274 C2278 1.531 . S
C2275 C2274 1.369 . S
C2275 C2276 1.410 . S
C2275 C2283 1.503 . S
C2276 C2275 1.410 . S
C2276 C2277 1.392 . S
C2276 C2279 1.511 . S
C2277 C2273 1.376 . S
C2277 C2276 1.392 . S
C2277 H2289 0.929 . S
C2278 C2274 1.531 . S
C2278 H2290 0.960 . S
C2278 H2291 0.962 . S
C2278 H2292 0.960 . S
C2279 C2276 1.511 . S
C2279 H2293 0.961 . S
C2279 H2294 0.961 . S
C2279 H2295 0.961 . S
C2280 C2281 1.370 . S
C2280 C2282 1.363 . S
C2280 H2296 0.931 . S
C2281 C2280 1.370 . S
C2281 C2285 1.408 . S
C2282 C2280 1.363 . S
C2282 C2283 1.370 . S
C2282 C2286 1.524 . S
C2283 C2275 1.503 . S
C2283 C2282 1.370 . S
C2283 C2284 1.403 . S
C2284 C2283 1.403 . S
C2284 C2285 1.404 . S
C2284 C2287 1.539 . S
C2285 C2281 1.408 . S
C2285 C2284 1.404 . S
C2285 H2297 0.930 . S
C2286 C2282 1.524 . S
C2286 H2298 0.956 . S
C2286 H2299 0.961 . S
C2286 H2300 0.961 . S
C2287 C2284 1.539 . S
C2287 H2301 0.958 . S
C2287 H2302 0.961 . S
C2287 H2303 0.960 . S
H2288 C2272 0.931 . S
H2289 C2277 0.929 . S
H2290 C2278 0.960 . S
H2291 C2278 0.962 . S
H2292 C2278 0.960 . S
H2293 C2279 0.961 . S
H2294 C2279 0.961 . S
H2295 C2279 0.961 . S
H2296 C2280 0.931 . S
H2297 C2285 0.930 . S
H2298 C2286 0.956 . S
H2299 C2286 0.961 . S
H2300 C2286 0.961 . S
H2301 C2287 0.958 . S
H2302 C2287 0.961 . S
H2303 C2287 0.960 . S
C2304 C2305 1.391 . S
C2304 C2306 1.394 . S
C2304 H2320 0.931 . S
C2305 C2304 1.391 . S
C2305 C2309 1.376 . S
C2306 C2304 1.394 . S
C2306 C2307 1.369 . S
C2306 C2310 1.531 . S
C2307 C2306 1.369 . S
C2307 C2308 1.410 . S
C2307 C2315 1.503 . S
C2308 C2307 1.410 . S
C2308 C2309 1.392 . S
C2308 C2311 1.511 . S
C2309 C2305 1.376 . S
C2309 C2308 1.392 . S
C2309 H2321 0.929 . S
C2310 C2306 1.531 . S
C2310 H2322 0.960 . S
C2310 H2323 0.962 . S
C2310 H2324 0.960 . S
C2311 C2308 1.511 . S
C2311 H2325 0.961 . S
C2311 H2326 0.961 . S
C2311 H2327 0.961 . S
C2312 C2313 1.370 . S
C2312 C2314 1.363 . S
C2312 H2328 0.931 . S
C2313 C2312 1.370 . S
C2313 C2317 1.408 . S
C2314 C2312 1.363 . S
C2314 C2315 1.370 . S
C2314 C2318 1.524 . S
C2315 C2307 1.503 . S
C2315 C2314 1.370 . S
C2315 C2316 1.403 . S
C2316 C2315 1.403 . S
C2316 C2317 1.404 . S
C2316 C2319 1.539 . S
C2317 C2313 1.408 . S
C2317 C2316 1.404 . S
C2317 H2329 0.930 . S
C2318 C2314 1.524 . S
C2318 H2330 0.956 . S
C2318 H2331 0.961 . S
C2318 H2332 0.961 . S
C2319 C2316 1.539 . S
C2319 H2333 0.958 . S
C2319 H2334 0.961 . S
C2319 H2335 0.960 . S
H2320 C2304 0.931 . S
H2321 C2309 0.929 . S
H2322 C2310 0.960 . S
H2323 C2310 0.962 . S
H2324 C2310 0.960 . S
H2325 C2311 0.961 . S
H2326 C2311 0.961 . S
H2327 C2311 0.961 . S
H2328 C2312 0.931 . S
H2329 C2317 0.930 . S
H2330 C2318 0.956 . S
H2331 C2318 0.961 . S
H2332 C2318 0.961 . S
H2333 C2319 0.958 . S
H2334 C2319 0.961 . S
H2335 C2319 0.960 . S
C2336 C2337 1.391 . S
C2336 C2338 1.394 . S
C2336 H2352 0.931 . S
C2337 C2336 1.391 . S
C2337 C2341 1.376 . S
C2338 C2336 1.394 . S
C2338 C2339 1.369 . S
C2338 C2342 1.531 . S
C2339 C2338 1.369 . S
C2339 C2340 1.410 . S
C2339 C2347 1.503 . S
C2340 C2339 1.410 . S
C2340 C2341 1.392 . S
C2340 C2343 1.511 . S
C2341 C2337 1.376 . S
C2341 C2340 1.392 . S
C2341 H2353 0.929 . S
C2342 C2338 1.531 . S
C2342 H2354 0.960 . S
C2342 H2355 0.962 . S
C2342 H2356 0.960 . S
C2343 C2340 1.511 . S
C2343 H2357 0.961 . S
C2343 H2358 0.961 . S
C2343 H2359 0.961 . S
C2344 C2345 1.370 . S
C2344 C2346 1.363 . S
C2344 H2360 0.931 . S
C2345 C2344 1.370 . S
C2345 C2349 1.408 . S
C2346 C2344 1.363 . S
C2346 C2347 1.370 . S
C2346 C2350 1.524 . S
C2347 C2339 1.503 . S
C2347 C2346 1.370 . S
C2347 C2348 1.403 . S
C2348 C2347 1.403 . S
C2348 C2349 1.404 . S
C2348 C2351 1.539 . S
C2349 C2345 1.408 . S
C2349 C2348 1.404 . S
C2349 H2361 0.930 . S
C2350 C2346 1.524 . S
C2350 H2362 0.956 . S
C2350 H2363 0.961 . S
C2350 H2364 0.961 . S
C2351 C2348 1.539 . S
C2351 H2365 0.958 . S
C2351 H2366 0.961 . S
C2351 H2367 0.960 . S
H2352 C2336 0.931 . S
H2353 C2341 0.929 . S
H2354 C2342 0.960 . S
H2355 C2342 0.962 . S
H2356 C2342 0.960 . S
H2357 C2343 0.961 . S
H2358 C2343 0.961 . S
H2359 C2343 0.961 . S
H2360 C2344 0.931 . S
H2361 C2349 0.930 . S
H2362 C2350 0.956 . S
H2363 C2350 0.961 . S
H2364 C2350 0.961 . S
H2365 C2351 0.958 . S
H2366 C2351 0.961 . S
H2367 C2351 0.960 . S
C2368 C2369 1.391 . S
C2368 C2370 1.394 . S
C2368 H2384 0.931 . S
C2369 C2368 1.391 . S
C2369 C2373 1.376 . S
C2370 C2368 1.394 . S
C2370 C2371 1.369 . S
C2370 C2374 1.531 . S
C2371 C2370 1.369 . S
C2371 C2372 1.410 . S
C2371 C2379 1.503 . S
C2372 C2371 1.410 . S
C2372 C2373 1.392 . S
C2372 C2375 1.511 . S
C2373 C2369 1.376 . S
C2373 C2372 1.392 . S
C2373 H2385 0.929 . S
C2374 C2370 1.531 . S
C2374 H2386 0.960 . S
C2374 H2387 0.962 . S
C2374 H2388 0.960 . S
C2375 C2372 1.511 . S
C2375 H2389 0.961 . S
C2375 H2390 0.961 . S
C2375 H2391 0.961 . S
C2376 C2377 1.370 . S
C2376 C2378 1.363 . S
C2376 H2392 0.931 . S
C2377 C2376 1.370 . S
C2377 C2381 1.408 . S
C2378 C2376 1.363 . S
C2378 C2379 1.370 . S
C2378 C2382 1.524 . S
C2379 C2371 1.503 . S
C2379 C2378 1.370 . S
C2379 C2380 1.403 . S
C2380 C2379 1.403 . S
C2380 C2381 1.404 . S
C2380 C2383 1.539 . S
C2381 C2377 1.408 . S
C2381 C2380 1.404 . S
C2381 H2393 0.930 . S
C2382 C2378 1.524 . S
C2382 H2394 0.956 . S
C2382 H2395 0.961 . S
C2382 H2396 0.961 . S
C2383 C2380 1.539 . S
C2383 H2397 0.958 . S
C2383 H2398 0.961 . S
C2383 H2399 0.960 . S
H2384 C2368 0.931 . S
H2385 C2373 0.929 . S
H2386 C2374 0.960 . S
H2387 C2374 0.962 . S
H2388 C2374 0.960 . S
H2389 C2375 0.961 . S
H2390 C2375 0.961 . S
H2391 C2375 0.961 . S
H2392 C2376 0.931 . S
H2393 C2381 0.930 . S
H2394 C2382 0.956 . S
H2395 C2382 0.961 . S
H2396 C2382 0.961 . S
H2397 C2383 0.958 . S
H2398 C2383 0.961 . S
H2399 C2383 0.960 . S
C2400 C2401 1.391 . S
C2400 C2402 1.394 . S
C2400 H2416 0.931 . S
C2401 C2400 1.391 . S
C2401 C2405 1.376 . S
C2402 C2400 1.394 . S
C2402 C2403 1.369 . S
C2402 C2406 1.531 . S
C2403 C2402 1.369 . S
C2403 C2404 1.410 . S
C2403 C2411 1.503 . S
C2404 C2403 1.410 . S
C2404 C2405 1.392 . S
C2404 C2407 1.511 . S
C2405 C2401 1.376 . S
C2405 C2404 1.392 . S
C2405 H2417 0.929 . S
C2406 C2402 1.531 . S
C2406 H2418 0.960 . S
C2406 H2419 0.962 . S
C2406 H2420 0.960 . S
C2407 C2404 1.511 . S
C2407 H2421 0.961 . S
C2407 H2422 0.961 . S
C2407 H2423 0.961 . S
C2408 C2409 1.370 . S
C2408 C2410 1.363 . S
C2408 H2424 0.931 . S
C2409 C2408 1.370 . S
C2409 C2413 1.408 . S
C2410 C2408 1.363 . S
C2410 C2411 1.370 . S
C2410 C2414 1.524 . S
C2411 C2403 1.503 . S
C2411 C2410 1.370 . S
C2411 C2412 1.403 . S
C2412 C2411 1.403 . S
C2412 C2413 1.404 . S
C2412 C2415 1.539 . S
C2413 C2409 1.408 . S
C2413 C2412 1.404 . S
C2413 H2425 0.930 . S
C2414 C2410 1.524 . S
C2414 H2426 0.956 . S
C2414 H2427 0.961 . S
C2414 H2428 0.961 . S
C2415 C2412 1.539 . S
C2415 H2429 0.958 . S
C2415 H2430 0.961 . S
C2415 H2431 0.960 . S
H2416 C2400 0.931 . S
H2417 C2405 0.929 . S
H2418 C2406 0.960 . S
H2419 C2406 0.962 . S
H2420 C2406 0.960 . S
H2421 C2407 0.961 . S
H2422 C2407 0.961 . S
H2423 C2407 0.961 . S
H2424 C2408 0.931 . S
H2425 C2413 0.930 . S
H2426 C2414 0.956 . S
H2427 C2414 0.961 . S
H2428 C2414 0.961 . S
H2429 C2415 0.958 . S
H2430 C2415 0.961 . S
H2431 C2415 0.960 . S
C2432 C2433 1.391 . S
C2432 C2434 1.394 . S
C2432 H2448 0.931 . S
C2433 C2432 1.391 . S
C2433 C2437 1.376 . S
C2434 C2432 1.394 . S
C2434 C2435 1.369 . S
C2434 C2438 1.531 . S
C2435 C2434 1.369 . S
C2435 C2436 1.410 . S
C2435 C2443 1.503 . S
C2436 C2435 1.410 . S
C2436 C2437 1.392 . S
C2436 C2439 1.511 . S
C2437 C2433 1.376 . S
C2437 C2436 1.392 . S
C2437 H2449 0.929 . S
C2438 C2434 1.531 . S
C2438 H2450 0.960 . S
C2438 H2451 0.962 . S
C2438 H2452 0.960 . S
C2439 C2436 1.511 . S
C2439 H2453 0.961 . S
C2439 H2454 0.961 . S
C2439 H2455 0.961 . S
C2440 C2441 1.370 . S
C2440 C2442 1.363 . S
C2440 H2456 0.931 . S
C2441 C2440 1.370 . S
C2441 C2445 1.408 . S
C2442 C2440 1.363 . S
C2442 C2443 1.370 . S
C2442 C2446 1.524 . S
C2443 C2435 1.503 . S
C2443 C2442 1.370 . S
C2443 C2444 1.403 . S
C2444 C2443 1.403 . S
C2444 C2445 1.404 . S
C2444 C2447 1.539 . S
C2445 C2441 1.408 . S
C2445 C2444 1.404 . S
C2445 H2457 0.930 . S
C2446 C2442 1.524 . S
C2446 H2458 0.956 . S
C2446 H2459 0.961 . S
C2446 H2460 0.961 . S
C2447 C2444 1.539 . S
C2447 H2461 0.958 . S
C2447 H2462 0.961 . S
C2447 H2463 0.960 . S
H2448 C2432 0.931 . S
H2449 C2437 0.929 . S
H2450 C2438 0.960 . S
H2451 C2438 0.962 . S
H2452 C2438 0.960 . S
H2453 C2439 0.961 . S
H2454 C2439 0.961 . S
H2455 C2439 0.961 . S
H2456 C2440 0.931 . S
H2457 C2445 0.930 . S
H2458 C2446 0.956 . S
H2459 C2446 0.961 . S
H2460 C2446 0.961 . S
H2461 C2447 0.958 . S
H2462 C2447 0.961 . S
H2463 C2447 0.960 . S
C417 C1 1.492 . S
C425 C40 1.508 . S
C449 C27 1.496 . S
C457 C14 1.505 . S
C481 C53 1.484 . S
C489 C92 1.476 . S
C513 C79 1.495 . S
C521 C66 1.484 . S
C545 C105 1.462 . S
C553 C144 1.460 . S
C577 C131 1.453 . S
C585 C118 1.462 . S
C609 C157 1.415 . S
C617 C196 1.438 . S
C641 C170 1.437 . S
C649 C183 1.430 . S
C673 C248 1.461 . S
C681 C209 1.462 . S
C705 C222 1.455 . S
C713 C235 1.461 . S
C737 C261 1.415 . S
C745 C300 1.439 . S
C769 C287 1.421 . S
C777 C274 1.434 . S
C801 C313 1.492 . S
C809 C352 1.508 . S
C833 C339 1.501 . S
C841 C326 1.507 . S
C865 C365 1.454 . S
C873 C404 1.485 . S
C897 C378 1.455 . S
C905 C391 1.486 . S
C929 C161 1.824 . S
C937 C5 1.739 . S
C961 C18 1.705 . S
C969 C278 1.844 . S
C993 C31 1.657 1_554 S
C1001 C83 1.798 . S
C1025 C408 1.792 . S
C1033 C44 1.686 . S
C1057 C57 1.826 . S
C1065 C109 1.738 . S
C1089 C226 1.711 . S
C1097 C70 1.841 . S
C1121 C356 1.656 1_554 S
C1129 C96 1.798 . S
C1153 C382 1.842 . S
C1161 C122 1.717 . S
C1185 C187 1.802 . S
C1193 C135 1.679 . S
C1217 C304 1.789 . S
C1225 C148 1.698 . S
C1249 C174 1.846 . S
C1257 C330 1.713 . S
C1281 C252 1.719 . S
C1289 C200 1.793 . S
C1313 C369 1.821 . S
C1321 C213 1.741 . S
C1345 C291 1.804 . S
C1353 C239 1.677 . S
C1377 C317 1.730 . S
C1385 C265 1.840 . S
C1409 C343 1.702 . S
C1417 C395 1.790 . S
C1441 C133 1.703 . S
C1449 C3 1.705 . S
C1473 C16 1.703 . S
C1481 C146 1.705 . S
C1505 C107 1.664 . S
C1513 C29 1.664 . S
C1537 C120 1.664 . S
C1545 C42 1.663 . S
C1569 C55 1.673 . S
C1577 C185 1.657 . S
C1601 C68 1.654 . S
C1609 C198 1.675 . S
C1633 C159 1.619 . S
C1641 C81 1.634 . S
C1665 C94 1.628 . S
C1673 C172 1.633 . S
C1697 C341 1.668 . S
C1705 C211 1.664 . S
C1729 C354 1.664 . S
C1737 C224 1.663 . S
C1761 C237 1.698 . S
C1769 C315 1.705 . S
C1793 C250 1.701 . S
C1801 C328 1.706 . S
C1825 C263 1.618 . S
C1833 C393 1.622 . S
C1857 C276 1.641 . S
C1865 C406 1.616 . S
C1889 C367 1.674 . S
C1897 C289 1.668 . S
C1921 C380 1.644 . S
C1929 C302 1.675 . S
C1953 C10 1.954 . S
C1961 C335 1.978 . S
C1985 C322 1.941 . S
C1993 C23 1.982 1_655 S
C2017 C36 1.933 . S
C2025 C361 1.925 . S
C2049 C49 1.926 1_655 S
C2057 C348 1.933 . S
C2081 C62 2.042 . S
C2089 C387 2.068 . S
C2113 C75 2.051 1_455 S
C2121 C374 2.064 . S
C2145 C413 2.000 . S
C2153 C88 2.022 . S
C2177 C400 2.017 . S
C2185 C101 2.015 1_455 S
C2209 C231 1.990 . S
C2217 C114 1.954 . S
C2241 C218 1.973 . S
C2249 C127 1.963 1_655 S
C2273 C140 1.913 . S
C2281 C257 1.940 . S
C2305 C153 1.917 1_655 S
C2313 C244 1.938 . S
C2337 C283 2.045 . S
C2345 C166 2.059 . S
C2369 C179 2.039 1_455 S
C2377 C270 2.062 . S
C2401 C192 2.009 . S
C2409 C309 2.021 . S
C2433 C205 2.000 1_455 S
C2441 C296 2.025 . S
