# Generated by pormake.
# Topology gme, (4)-cn, num edge types: 1
# Building blocks:
#     Node 0, Type 0, BuildingBlock: AZAVOO_clean_sbu_0, # of connection points: 4
#     Node 1, Type 0, BuildingBlock: AZAVOO_clean_sbu_0, # of connection points: 4
#     Node 2, Type 0, BuildingBlock: AZAVOO_clean_sbu_0, # of connection points: 4
#     Node 3, Type 0, BuildingBlock: AZAVOO_clean_sbu_0, # of connection points: 4
#     Node 4, Type 0, BuildingBlock: AZAVOO_clean_sbu_0, # of connection points: 4
#     Node 5, Type 0, BuildingBlock: AZAVOO_clean_sbu_0, # of connection points: 4
#     Node 6, Type 0, BuildingBlock: AZAVOO_clean_sbu_0, # of connection points: 4
#     Node 7, Type 0, BuildingBlock: AZAVOO_clean_sbu_0, # of connection points: 4
#     Node 8, Type 0, BuildingBlock: AZAVOO_clean_sbu_0, # of connection points: 4
#     Node 9, Type 0, BuildingBlock: AZAVOO_clean_sbu_0, # of connection points: 4
#     Node 10, Type 0, BuildingBlock: AZAVOO_clean_sbu_0, # of connection points: 4
#     Node 11, Type 0, BuildingBlock: AZAVOO_clean_sbu_0, # of connection points: 4
#     Node 12, Type 0, BuildingBlock: AZAVOO_clean_sbu_0, # of connection points: 4
#     Node 13, Type 0, BuildingBlock: AZAVOO_clean_sbu_0, # of connection points: 4
#     Node 14, Type 0, BuildingBlock: AZAVOO_clean_sbu_0, # of connection points: 4
#     Node 15, Type 0, BuildingBlock: AZAVOO_clean_sbu_0, # of connection points: 4
#     Node 16, Type 0, BuildingBlock: AZAVOO_clean_sbu_0, # of connection points: 4
#     Node 17, Type 0, BuildingBlock: AZAVOO_clean_sbu_0, # of connection points: 4
#     Node 18, Type 0, BuildingBlock: AZAVOO_clean_sbu_0, # of connection points: 4
#     Node 19, Type 0, BuildingBlock: AZAVOO_clean_sbu_0, # of connection points: 4
#     Node 20, Type 0, BuildingBlock: AZAVOO_clean_sbu_0, # of connection points: 4
#     Node 21, Type 0, BuildingBlock: AZAVOO_clean_sbu_0, # of connection points: 4
#     Node 22, Type 0, BuildingBlock: AZAVOO_clean_sbu_0, # of connection points: 4
#     Node 23, Type 0, BuildingBlock: AZAVOO_clean_sbu_0, # of connection points: 4
#     Edge 24, Type (0, 0), BuildingBlock: ZUJKAS_clean_linker_0, # of connection points: 2
#     Edge 25, Type (0, 0), BuildingBlock: ZUJKAS_clean_linker_0, # of connection points: 2
#     Edge 26, Type (0, 0), BuildingBlock: ZUJKAS_clean_linker_0, # of connection points: 2
#     Edge 27, Type (0, 0), BuildingBlock: ZUJKAS_clean_linker_0, # of connection points: 2
#     Edge 28, Type (0, 0), BuildingBlock: ZUJKAS_clean_linker_0, # of connection points: 2
#     Edge 29, Type (0, 0), BuildingBlock: ZUJKAS_clean_linker_0, # of connection points: 2
#     Edge 30, Type (0, 0), BuildingBlock: ZUJKAS_clean_linker_0, # of connection points: 2
#     Edge 31, Type (0, 0), BuildingBlock: ZUJKAS_clean_linker_0, # of connection points: 2
#     Edge 32, Type (0, 0), BuildingBlock: ZUJKAS_clean_linker_0, # of connection points: 2
#     Edge 33, Type (0, 0), BuildingBlock: ZUJKAS_clean_linker_0, # of connection points: 2
#     Edge 34, Type (0, 0), BuildingBlock: ZUJKAS_clean_linker_0, # of connection points: 2
#     Edge 35, Type (0, 0), BuildingBlock: ZUJKAS_clean_linker_0, # of connection points: 2
#     Edge 36, Type (0, 0), BuildingBlock: ZUJKAS_clean_linker_0, # of connection points: 2
#     Edge 37, Type (0, 0), BuildingBlock: ZUJKAS_clean_linker_0, # of connection points: 2
#     Edge 38, Type (0, 0), BuildingBlock: ZUJKAS_clean_linker_0, # of connection points: 2
#     Edge 39, Type (0, 0), BuildingBlock: ZUJKAS_clean_linker_0, # of connection points: 2
#     Edge 40, Type (0, 0), BuildingBlock: ZUJKAS_clean_linker_0, # of connection points: 2
#     Edge 41, Type (0, 0), BuildingBlock: ZUJKAS_clean_linker_0, # of connection points: 2
#     Edge 42, Type (0, 0), BuildingBlock: ZUJKAS_clean_linker_0, # of connection points: 2
#     Edge 43, Type (0, 0), BuildingBlock: ZUJKAS_clean_linker_0, # of connection points: 2
#     Edge 44, Type (0, 0), BuildingBlock: ZUJKAS_clean_linker_0, # of connection points: 2
#     Edge 45, Type (0, 0), BuildingBlock: ZUJKAS_clean_linker_0, # of connection points: 2
#     Edge 46, Type (0, 0), BuildingBlock: ZUJKAS_clean_linker_0, # of connection points: 2
#     Edge 47, Type (0, 0), BuildingBlock: ZUJKAS_clean_linker_0, # of connection points: 2
#     Edge 48, Type (0, 0), BuildingBlock: ZUJKAS_clean_linker_0, # of connection points: 2
#     Edge 49, Type (0, 0), BuildingBlock: ZUJKAS_clean_linker_0, # of connection points: 2
#     Edge 50, Type (0, 0), BuildingBlock: ZUJKAS_clean_linker_0, # of connection points: 2
#     Edge 51, Type (0, 0), BuildingBlock: ZUJKAS_clean_linker_0, # of connection points: 2
#     Edge 52, Type (0, 0), BuildingBlock: ZUJKAS_clean_linker_0, # of connection points: 2
#     Edge 53, Type (0, 0), BuildingBlock: ZUJKAS_clean_linker_0, # of connection points: 2
#     Edge 54, Type (0, 0), BuildingBlock: ZUJKAS_clean_linker_0, # of connection points: 2
#     Edge 55, Type (0, 0), BuildingBlock: ZUJKAS_clean_linker_0, # of connection points: 2
#     Edge 56, Type (0, 0), BuildingBlock: ZUJKAS_clean_linker_0, # of connection points: 2
#     Edge 57, Type (0, 0), BuildingBlock: ZUJKAS_clean_linker_0, # of connection points: 2
#     Edge 58, Type (0, 0), BuildingBlock: ZUJKAS_clean_linker_0, # of connection points: 2
#     Edge 59, Type (0, 0), BuildingBlock: ZUJKAS_clean_linker_0, # of connection points: 2
#     Edge 60, Type (0, 0), BuildingBlock: ZUJKAS_clean_linker_0, # of connection points: 2
#     Edge 61, Type (0, 0), BuildingBlock: ZUJKAS_clean_linker_0, # of connection points: 2
#     Edge 62, Type (0, 0), BuildingBlock: ZUJKAS_clean_linker_0, # of connection points: 2
#     Edge 63, Type (0, 0), BuildingBlock: ZUJKAS_clean_linker_0, # of connection points: 2
#     Edge 64, Type (0, 0), BuildingBlock: ZUJKAS_clean_linker_0, # of connection points: 2
#     Edge 65, Type (0, 0), BuildingBlock: ZUJKAS_clean_linker_0, # of connection points: 2
#     Edge 66, Type (0, 0), BuildingBlock: ZUJKAS_clean_linker_0, # of connection points: 2
#     Edge 67, Type (0, 0), BuildingBlock: ZUJKAS_clean_linker_0, # of connection points: 2
#     Edge 68, Type (0, 0), BuildingBlock: ZUJKAS_clean_linker_0, # of connection points: 2
#     Edge 69, Type (0, 0), BuildingBlock: ZUJKAS_clean_linker_0, # of connection points: 2
#     Edge 70, Type (0, 0), BuildingBlock: ZUJKAS_clean_linker_0, # of connection points: 2
#     Edge 71, Type (0, 0), BuildingBlock: ZUJKAS_clean_linker_0, # of connection points: 2
# Relax obj value: 0.171
# Max RMSD: 0.158
# Mean RMSD: 0.158
data_MOF--net-gme--node1-AZAVOO_clean_sbu_0--edge1-ZUJKAS_clean_linker_0
_symmetry_space_group_name_H-M    P1
_symmetry_Int_Tables_number       1
_symmetry_cell_setting            triclinic
loop_
_symmetry_equiv_pos_as_xyz
'x, y, z'
_cell_length_a     83.533233
_cell_length_b     83.521597
_cell_length_c     61.795542
_cell_angle_alpha  90.030419
_cell_angle_beta   89.976253
_cell_angle_gamma 119.98666
loop_
_atom_site_label
_atom_site_type_symbol
_atom_site_fract_x
_atom_site_fract_y
_atom_site_fract_z
_atom_type_partial_charge
Mg0 Mg 0.43007 0.10853 0.0926 0.0
O1 O 0.45888 0.11124 0.09248 0.0
O2 O 0.47693 0.13511 0.11391 0.0
Mg3 Mg 0.46014 0.14753 0.12734 0.0
C4 C 0.47448 0.12193 0.10135 0.0
C5 C 0.40508 0.08291 0.05712 0.0
O6 O 0.3953 0.08998 0.06487 0.0
O7 O 0.44034 0.1333 0.07009 0.0
O8 O 0.4578 0.15637 0.09278 0.0
O9 O 0.42228 0.09027 0.12142 0.0
O10 O 0.43496 0.12066 0.12306 0.0
C11 C 0.45084 0.15047 0.07404 0.0
C12 C 0.42914 0.10517 0.133 0.0
O13 O 0.42117 0.08851 0.0646 0.0
Mg14 Mg 0.31958 0.43523 0.58803 0.0
O15 O 0.34556 0.46403 0.58801 0.0
O16 O 0.33933 0.4824 0.60829 0.0
Mg17 Mg 0.30984 0.46572 0.62095 0.0
C18 C 0.3503 0.47977 0.59641 0.0
C19 C 0.32317 0.40881 0.55752 0.0
O20 O 0.30787 0.39809 0.5682 0.0
O21 O 0.30548 0.44506 0.56426 0.0
O22 O 0.29919 0.46258 0.58603 0.0
O23 O 0.32939 0.42789 0.61779 0.0
O24 O 0.31157 0.44047 0.61785 0.0
C25 C 0.29852 0.45541 0.56752 0.0
C26 C 0.321 0.43481 0.6286 0.0
O27 O 0.33156 0.42608 0.56117 0.0
Mg28 Mg 0.88445 0.31759 0.09096 0.0
O29 O 0.88312 0.34444 0.09064 0.0
O30 O 0.86042 0.34033 0.11317 0.0
Mg31 Mg 0.84647 0.31093 0.12624 0.0
C32 C 0.8735 0.35037 0.10014 0.0
C33 C 0.91838 0.32594 0.06522 0.0
O34 O 0.91976 0.31811 0.08302 0.0
O35 O 0.8594 0.30381 0.06883 0.0
O36 O 0.83696 0.29975 0.09173 0.0
O37 O 0.903 0.32775 0.11959 0.0
O38 O 0.87256 0.31104 0.12164 0.0
C39 C 0.84241 0.29806 0.07296 0.0
C40 C 0.88821 0.32036 0.13136 0.0
O41 O 0.9043 0.32778 0.06266 0.0
Mg42 Mg 0.56029 0.88207 0.58827 0.0
O43 O 0.53191 0.88006 0.58552 0.0
O44 O 0.51195 0.85537 0.60463 0.0
Mg45 Mg 0.52722 0.8417 0.61915 0.0
C46 C 0.51564 0.86927 0.5927 0.0
C47 C 0.58881 0.91222 0.55927 0.0
O48 O 0.5989 0.90759 0.57117 0.0
O49 O 0.55149 0.85844 0.56438 0.0
O50 O 0.53219 0.83437 0.58479 0.0
O51 O 0.56609 0.89895 0.61796 0.0
O52 O 0.55295 0.86847 0.61795 0.0
C53 C 0.54063 0.84112 0.56694 0.0
C54 C 0.55818 0.88355 0.62862 0.0
O55 O 0.57138 0.90341 0.56165 0.0
Mg56 Mg 0.67459 0.559 0.0868 0.0
O57 O 0.6485 0.53022 0.08544 0.0
O58 O 0.65458 0.51115 0.10456 0.0
Mg59 Mg 0.68388 0.52725 0.11781 0.0
C60 C 0.64371 0.51421 0.09303 0.0
C61 C 0.66463 0.58497 0.06533 0.0
O62 O 0.67282 0.59311 0.08351 0.0
O63 O 0.68911 0.55017 0.06237 0.0
O64 O 0.69492 0.53166 0.08296 0.0
O65 O 0.66417 0.56504 0.11689 0.0
O66 O 0.68206 0.55254 0.11633 0.0
C67 C 0.6959 0.53959 0.06491 0.0
C68 C 0.67231 0.55769 0.12733 0.0
O69 O 0.66318 0.56948 0.06066 0.0
Mg70 Mg 0.10629 0.67323 0.59611 0.0
O71 O 0.10797 0.64651 0.59667 0.0
O72 O 0.1313 0.65157 0.6186 0.0
Mg73 Mg 0.145 0.68115 0.63083 0.0
C74 C 0.11804 0.64106 0.60603 0.0
C75 C 0.08027 0.67259 0.56121 0.0
O76 O 0.08724 0.68934 0.56923 0.0
O77 O 0.13093 0.68661 0.57327 0.0
O78 O 0.15372 0.69084 0.59578 0.0
O79 O 0.0883 0.66393 0.62526 0.0
O80 O 0.11878 0.68079 0.62631 0.0
C81 C 0.1479 0.69203 0.57706 0.0
C82 C 0.10335 0.67184 0.63657 0.0
O83 O 0.08603 0.66213 0.56837 0.0
Mg84 Mg 0.88682 0.56458 0.40144 0.0
O85 O 0.88445 0.53605 0.40426 0.0
O86 O 0.85958 0.51614 0.38533 0.0
Mg87 Mg 0.8464 0.53172 0.37043 0.0
C88 C 0.87345 0.51976 0.39727 0.0
C89 C 0.91558 0.5925 0.43272 0.0
O90 O 0.91013 0.60271 0.42243 0.0
O91 O 0.86309 0.55595 0.4252 0.0
O92 O 0.83904 0.5367 0.40472 0.0
O93 O 0.9038 0.57022 0.37184 0.0
O94 O 0.87335 0.55729 0.37169 0.0
C95 C 0.84578 0.54513 0.42259 0.0
C96 C 0.88844 0.56238 0.3611 0.0
O97 O 0.90794 0.57539 0.42833 0.0
Mg98 Mg 0.32013 0.88785 0.90116 0.0
O99 O 0.34826 0.88899 0.90071 0.0
O100 O 0.34605 0.86753 0.87734 0.0
Mg101 Mg 0.31648 0.85147 0.86509 0.0
C102 C 0.35534 0.88067 0.89061 0.0
C103 C 0.32053 0.91575 0.9331 0.0
O104 O 0.30562 0.91117 0.92159 0.0
O105 O 0.30831 0.86263 0.92309 0.0
O106 O 0.30679 0.84134 0.89986 0.0
O107 O 0.32868 0.90658 0.87273 0.0
O108 O 0.31397 0.87608 0.87042 0.0
C109 C 0.30454 0.84617 0.91874 0.0
C110 C 0.32222 0.89188 0.86083 0.0
O111 O 0.32966 0.90762 0.92945 0.0
Mg112 Mg 0.4317 0.32218 0.40269 0.0
O113 O 0.46087 0.34753 0.4003 0.0
O114 O 0.47696 0.34034 0.3773 0.0
Mg115 Mg 0.45862 0.31075 0.36565 0.0
C116 C 0.47573 0.35173 0.39003 0.0
C117 C 0.40992 0.3249 0.4407 0.0
O118 O 0.39965 0.30758 0.43466 0.0
O119 O 0.44246 0.30766 0.42445 0.0
O120 O 0.45783 0.30047 0.40037 0.0
O121 O 0.42278 0.33223 0.37439 0.0
O122 O 0.4343 0.31354 0.37199 0.0
C123 C 0.45213 0.30022 0.41964 0.0
C124 C 0.42843 0.32331 0.3624 0.0
O125 O 0.42523 0.33492 0.43119 0.0
Mg126 Mg 0.1092 0.43256 0.89861 0.0
O127 O 0.11047 0.46068 0.90017 0.0
O128 O 0.13506 0.4806 0.8809 0.0
Mg129 Mg 0.14957 0.46572 0.86763 0.0
C130 C 0.12098 0.47684 0.89254 0.0
C131 C 0.073 0.40618 0.92004 0.0
O132 O 0.07246 0.39838 0.90137 0.0
O133 O 0.1327 0.44235 0.92306 0.0
O134 O 0.1566 0.46152 0.90234 0.0
O135 O 0.09281 0.42591 0.86822 0.0
O136 O 0.12328 0.4396 0.86919 0.0
C137 C 0.14997 0.45344 0.92041 0.0
C138 C 0.10841 0.4338 0.85796 0.0
O139 O 0.08733 0.42138 0.92484 0.0
Mg140 Mg 0.6711 0.10731 0.40612 0.0
O141 O 0.64418 0.10855 0.40441 0.0
O142 O 0.64914 0.13119 0.38137 0.0
Mg143 Mg 0.67878 0.1448 0.3694 0.0
C144 C 0.63865 0.11825 0.3943 0.0
C145 C 0.67069 0.08297 0.44314 0.0
O146 O 0.68789 0.09074 0.43641 0.0
O147 O 0.68404 0.13263 0.42805 0.0
O148 O 0.68808 0.15456 0.40427 0.0
O149 O 0.66217 0.08849 0.37767 0.0
O150 O 0.67875 0.11895 0.3755 0.0
C151 C 0.68923 0.14941 0.42339 0.0
C152 C 0.66999 0.10322 0.3658 0.0
O153 O 0.65992 0.08774 0.43449 0.0
Mg154 Mg 0.55829 0.6729 0.90391 0.0
O155 O 0.52936 0.64722 0.90664 0.0
O156 O 0.51033 0.65279 0.88668 0.0
Mg157 Mg 0.52678 0.6812 0.87108 0.0
C158 C 0.51331 0.64237 0.89916 0.0
C159 C 0.58431 0.66422 0.92764 0.0
O160 O 0.59259 0.67163 0.90924 0.0
O161 O 0.54999 0.68899 0.92664 0.0
O162 O 0.53185 0.69437 0.90487 0.0
O163 O 0.56391 0.66073 0.87501 0.0
O164 O 0.55177 0.67892 0.87359 0.0
C165 C 0.53983 0.69611 0.92308 0.0
C166 C 0.55668 0.6685 0.86363 0.0
O167 O 0.5687 0.66276 0.9315 0.0
Mg168 Mg 0.56183 0.88445 0.8998 0.0
O169 O 0.53405 0.88355 0.90366 0.0
O170 O 0.51281 0.85862 0.8859 0.0
Mg171 Mg 0.52677 0.84387 0.87074 0.0
C172 C 0.51743 0.87297 0.89743 0.0
C173 C 0.58862 0.92133 0.9205 0.0
O174 O 0.59533 0.92283 0.90089 0.0
O175 O 0.55308 0.86118 0.92429 0.0
O176 O 0.5325 0.83701 0.9049 0.0
O177 O 0.56703 0.90065 0.86961 0.0
O178 O 0.55309 0.87015 0.87056 0.0
C179 C 0.54163 0.84392 0.92234 0.0
C180 C 0.5584 0.88503 0.85947 0.0
O181 O 0.57429 0.90635 0.92591 0.0
Mg182 Mg 0.67865 0.56375 0.39909 0.0
O183 O 0.65305 0.53459 0.39944 0.0
O184 O 0.65979 0.51668 0.37898 0.0
Mg185 Mg 0.68934 0.53363 0.36671 0.0
C186 C 0.64859 0.51899 0.39083 0.0
C187 C 0.66693 0.58807 0.42168 0.0
O188 O 0.67451 0.59666 0.40348 0.0
O189 O 0.69337 0.55484 0.42309 0.0
O190 O 0.69994 0.53732 0.40171 0.0
O191 O 0.66815 0.57008 0.3692 0.0
O192 O 0.68676 0.55841 0.36928 0.0
C193 C 0.70056 0.54467 0.42007 0.0
C194 C 0.67671 0.5633 0.3585 0.0
O195 O 0.66647 0.57295 0.42579 0.0
Mg196 Mg 0.11006 0.67723 0.90871 0.0
O197 O 0.10985 0.64955 0.90654 0.0
O198 O 0.13203 0.65367 0.88318 0.0
Mg199 Mg 0.14726 0.68361 0.87223 0.0
C200 C 0.11882 0.64342 0.89594 0.0
C201 C 0.08271 0.67599 0.9418 0.0
O202 O 0.08834 0.69187 0.93196 0.0
O203 O 0.13517 0.68917 0.93088 0.0
O204 O 0.15694 0.69247 0.90726 0.0
O205 O 0.09151 0.66923 0.88013 0.0
O206 O 0.12202 0.68484 0.87815 0.0
C207 C 0.15183 0.69378 0.92635 0.0
C208 C 0.10631 0.67658 0.86836 0.0
O209 O 0.09004 0.66637 0.93672 0.0
Mg210 Mg 0.42851 0.11108 0.40457 0.0
O211 O 0.45673 0.11252 0.40453 0.0
O212 O 0.47532 0.13577 0.38268 0.0
Mg213 Mg 0.45948 0.14924 0.36938 0.0
C214 C 0.47236 0.12253 0.3954 0.0
C215 C 0.40293 0.08526 0.43967 0.0
O216 O 0.39288 0.09174 0.43119 0.0
O217 O 0.43976 0.13611 0.42679 0.0
O218 O 0.4578 0.15869 0.40388 0.0
O219 O 0.41999 0.0925 0.37604 0.0
O220 O 0.43366 0.12296 0.37394 0.0
C221 C 0.4508 0.15314 0.42268 0.0
C222 C 0.42738 0.10728 0.36424 0.0
O223 O 0.41929 0.09133 0.43281 0.0
Mg224 Mg 0.31394 0.4294 0.90091 0.0
O225 O 0.3401 0.45806 0.90099 0.0
O226 O 0.33478 0.47669 0.88003 0.0
Mg227 Mg 0.30501 0.46052 0.86814 0.0
C228 C 0.34539 0.47375 0.89218 0.0
C229 C 0.32468 0.40468 0.92518 0.0
O230 O 0.31566 0.3947 0.90826 0.0
O231 O 0.3001 0.43945 0.92471 0.0
O232 O 0.29476 0.45784 0.90329 0.0
O233 O 0.32372 0.42209 0.8711 0.0
O234 O 0.30604 0.43484 0.87106 0.0
C235 C 0.29379 0.45039 0.92168 0.0
C236 C 0.31551 0.4292 0.86031 0.0
O237 O 0.32609 0.42042 0.92775 0.0
Mg238 Mg 0.88324 0.31889 0.40288 0.0
O239 O 0.88332 0.34648 0.40238 0.0
O240 O 0.86154 0.3436 0.37914 0.0
Mg241 Mg 0.84624 0.31395 0.36703 0.0
C242 C 0.87462 0.35318 0.39236 0.0
C243 C 0.91635 0.32612 0.43006 0.0
O244 O 0.91701 0.31638 0.41372 0.0
O245 O 0.85808 0.30632 0.42488 0.0
O246 O 0.83639 0.30412 0.40185 0.0
O247 O 0.90189 0.32797 0.37436 0.0
O248 O 0.87139 0.3123 0.37218 0.0
C249 C 0.84148 0.30208 0.42067 0.0
C250 C 0.88715 0.32099 0.36252 0.0
O251 O 0.90299 0.32926 0.43118 0.0
Mg252 Mg 0.11246 0.43218 0.5858 0.0
O253 O 0.115 0.46089 0.58646 0.0
O254 O 0.1395 0.47942 0.60673 0.0
Mg255 Mg 0.15283 0.46295 0.61842 0.0
C256 C 0.12573 0.47659 0.59505 0.0
C257 C 0.0772 0.42514 0.56234 0.0
O258 O 0.07629 0.43305 0.58032 0.0
O259 O 0.13622 0.44249 0.56173 0.0
O260 O 0.16013 0.46047 0.58314 0.0
O261 O 0.09553 0.42447 0.61571 0.0
O262 O 0.12597 0.43744 0.61551 0.0
C263 C 0.1535 0.45328 0.56469 0.0
C264 C 0.11091 0.43163 0.62639 0.0
O265 O 0.09116 0.42322 0.55905 0.0
Mg266 Mg 0.67425 0.10808 0.0938 0.0
O267 O 0.64798 0.11048 0.09371 0.0
O268 O 0.65335 0.13379 0.11588 0.0
Mg269 Mg 0.68241 0.1462 0.12973 0.0
C270 C 0.64284 0.12086 0.10293 0.0
C271 C 0.6667 0.07507 0.06723 0.0
O272 O 0.67564 0.07441 0.08438 0.0
O273 O 0.68881 0.13336 0.07199 0.0
O274 O 0.69407 0.1558 0.09552 0.0
O275 O 0.66363 0.08924 0.1222 0.0
O276 O 0.68107 0.1196 0.12458 0.0
C277 C 0.69541 0.15043 0.07656 0.0
C278 C 0.67147 0.10392 0.13415 0.0
O279 O 0.66371 0.08849 0.06529 0.0
Mg280 Mg 0.56627 0.67636 0.59271 0.0
O281 O 0.53687 0.65123 0.59086 0.0
O282 O 0.51883 0.6577 0.61148 0.0
Mg283 Mg 0.53613 0.68645 0.62591 0.0
C284 C 0.52112 0.64685 0.59894 0.0
C285 C 0.59071 0.66545 0.56867 0.0
O286 O 0.59939 0.67245 0.587 0.0
O287 O 0.55805 0.69232 0.56969 0.0
O288 O 0.54043 0.6984 0.59155 0.0
O289 O 0.57181 0.66436 0.6219 0.0
O290 O 0.56058 0.68335 0.62294 0.0
C291 C 0.54798 0.69957 0.57318 0.0
C292 C 0.56506 0.67271 0.63312 0.0
O293 O 0.57554 0.66506 0.56514 0.0
Mg294 Mg 0.88414 0.56148 0.08976 0.0
O295 O 0.88155 0.53284 0.08742 0.0
O296 O 0.85699 0.51341 0.10712 0.0
Mg297 Mg 0.84434 0.52946 0.12222 0.0
C298 C 0.8706 0.5167 0.09484 0.0
C299 C 0.91107 0.58841 0.05631 0.0
O300 O 0.90442 0.59818 0.06519 0.0
O301 O 0.85992 0.55254 0.06669 0.0
O302 O 0.83629 0.53405 0.08815 0.0
O303 O 0.90174 0.56763 0.11891 0.0
O304 O 0.87133 0.55488 0.11991 0.0
C305 C 0.84264 0.54204 0.06997 0.0
C306 C 0.88661 0.56013 0.1301 0.0
O307 O 0.90475 0.57179 0.06231 0.0
Mg308 Mg 0.31956 0.88827 0.58958 0.0
O309 O 0.34604 0.88618 0.58805 0.0
O310 O 0.34162 0.86303 0.60997 0.0
Mg311 Mg 0.31292 0.85021 0.62467 0.0
C312 C 0.35162 0.87596 0.59675 0.0
C313 C 0.31937 0.915 0.55659 0.0
O314 O 0.3037 0.90923 0.56699 0.0
O315 O 0.30467 0.86311 0.56766 0.0
O316 O 0.30128 0.84076 0.59042 0.0
O317 O 0.33069 0.90702 0.61791 0.0
O318 O 0.31361 0.87661 0.62031 0.0
C319 C 0.29923 0.8462 0.57184 0.0
C320 C 0.32332 0.89231 0.62983 0.0
O321 O 0.32935 0.90799 0.56129 0.0
Mg322 Mg 0.42755 0.31766 0.09037 0.0
O323 O 0.45652 0.34331 0.09191 0.0
O324 O 0.47347 0.33763 0.11527 0.0
Mg325 Mg 0.45581 0.3081 0.12756 0.0
C326 C 0.47161 0.34833 0.10206 0.0
C327 C 0.42283 0.34588 0.06339 0.0
O328 O 0.43007 0.35518 0.08132 0.0
O329 O 0.43855 0.30314 0.06893 0.0
O330 O 0.45488 0.29729 0.09307 0.0
O331 O 0.4187 0.32792 0.11862 0.0
O332 O 0.43086 0.30982 0.12125 0.0
C333 C 0.44877 0.29634 0.07386 0.0
C334 C 0.42481 0.3195 0.13071 0.0
O335 O 0.42053 0.32971 0.06151 0.0
H336 H 0.41865 0.07664 0.33997 0.0
H337 H 0.42107 0.07491 0.30065 0.0
H338 H 0.44238 0.13365 0.29581 0.0
H339 H 0.44009 0.13554 0.33501 0.0
H340 H 0.40326 0.08491 0.26971 0.0
H341 H 0.47939 0.12597 0.26006 0.0
H342 H 0.46841 0.11664 0.2858 0.0
H343 H 0.46992 0.13749 0.27553 0.0
C344 C 0.424 0.08921 0.33055 0.0
C345 C 0.42931 0.10626 0.34061 0.0
C346 C 0.42539 0.08819 0.30812 0.0
C347 C 0.4322 0.1042 0.29542 0.0
C348 C 0.43751 0.12121 0.3054 0.0
H349 H 0.4405 0.13367 0.16173 0.0
H350 H 0.44171 0.13223 0.20113 0.0
C351 C 0.43613 0.12225 0.32781 0.0
C352 C 0.43272 0.10299 0.2716 0.0
H353 H 0.4614 0.12009 0.22792 0.0
C354 C 0.41598 0.0924 0.26054 0.0
C355 C 0.44935 0.11281 0.25977 0.0
C356 C 0.46782 0.12374 0.27088 0.0
C357 C 0.41533 0.09193 0.23787 0.0
C358 C 0.43192 0.10208 0.22603 0.0
C359 C 0.44871 0.11235 0.23709 0.0
C360 C 0.43199 0.10289 0.20215 0.0
C361 C 0.39684 0.08114 0.22676 0.0
C362 C 0.42643 0.08691 0.18973 0.0
C363 C 0.42573 0.08768 0.16719 0.0
C364 C 0.4307 0.10448 0.15674 0.0
C365 C 0.43667 0.12054 0.16925 0.0
C366 C 0.43736 0.11974 0.19177 0.0
H367 H 0.38515 0.07737 0.23809 0.0
H368 H 0.39571 0.08921 0.21316 0.0
H369 H 0.39544 0.06819 0.22003 0.0
H370 H 0.42252 0.07382 0.19748 0.0
H371 H 0.42116 0.07509 0.15798 0.0
H372 H 0.30303 0.44639 0.65576 0.0
H373 H 0.30423 0.44759 0.69525 0.0
H374 H 0.34283 0.42754 0.69488 0.0
H375 H 0.34198 0.42659 0.65531 0.0
H376 H 0.29429 0.417 0.72211 0.0
H377 H 0.36699 0.47203 0.7363 0.0
H378 H 0.35558 0.46888 0.71053 0.0
H379 H 0.36422 0.45389 0.71835 0.0
C380 C 0.31202 0.44253 0.66403 0.0
C381 C 0.32249 0.43649 0.6524 0.0
C382 C 0.31263 0.44317 0.68659 0.0
C383 C 0.32378 0.43787 0.69792 0.0
C384 C 0.33442 0.43203 0.68639 0.0
H385 H 0.33694 0.42142 0.83383 0.0
H386 H 0.33915 0.42384 0.79434 0.0
C387 C 0.33381 0.43138 0.6638 0.0
C388 C 0.32328 0.43729 0.72183 0.0
H389 H 0.34988 0.45502 0.76705 0.0
C390 C 0.30641 0.42538 0.73196 0.0
C391 C 0.33917 0.44816 0.73454 0.0
C392 C 0.3575 0.46159 0.72444 0.0
C393 C 0.30501 0.42387 0.75455 0.0
C394 C 0.32086 0.43483 0.76729 0.0
C395 C 0.33777 0.44668 0.75717 0.0
C396 C 0.32008 0.43412 0.79118 0.0
C397 C 0.28667 0.41029 0.76456 0.0
C398 C 0.30888 0.43941 0.80241 0.0
C399 C 0.30753 0.43799 0.82492 0.0
C400 C 0.31749 0.43139 0.83658 0.0
C401 C 0.32905 0.4265 0.8253 0.0
C402 C 0.33037 0.42791 0.80277 0.0
H403 H 0.27732 0.39978 0.75268 0.0
H404 H 0.28862 0.40307 0.77852 0.0
H405 H 0.27976 0.41785 0.77051 0.0
H406 H 0.30106 0.44451 0.79375 0.0
H407 H 0.29847 0.44182 0.8331 0.0
H408 H 0.91879 0.34221 0.15576 0.0
H409 H 0.9205 0.34576 0.19516 0.0
H410 H 0.86179 0.30817 0.19982 0.0
H411 H 0.85991 0.30458 0.16052 0.0
H412 H 0.87521 0.34087 0.2255 0.0
H413 H 0.91577 0.30518 0.23722 0.0
H414 H 0.92533 0.32419 0.21849 0.0
H415 H 0.90386 0.3037 0.21227 0.0
C416 C 0.90623 0.33473 0.16517 0.0
C417 C 0.88921 0.32309 0.15503 0.0
C418 C 0.90725 0.33674 0.18765 0.0
C419 C 0.89131 0.32705 0.20034 0.0
C420 C 0.87425 0.31574 0.19026 0.0
H421 H 0.85887 0.306 0.3333 0.0
H422 H 0.86089 0.30964 0.29406 0.0
C423 C 0.87321 0.31372 0.1678 0.0
C424 C 0.89234 0.32836 0.22418 0.0
H425 H 0.90895 0.3169 0.26839 0.0
C426 C 0.88265 0.33571 0.23491 0.0
C427 C 0.9021 0.32166 0.23632 0.0
C428 C 0.91226 0.31309 0.22557 0.0
C429 C 0.88236 0.33643 0.25758 0.0
C430 C 0.89174 0.32931 0.26972 0.0
C431 C 0.9018 0.32237 0.25898 0.0
C432 C 0.89052 0.32799 0.29357 0.0
C433 C 0.87205 0.34482 0.26832 0.0
C434 C 0.90657 0.33683 0.30625 0.0
C435 C 0.90547 0.33473 0.32872 0.0
C436 C 0.8883 0.32366 0.33884 0.0
C437 C 0.87227 0.31483 0.32606 0.0
C438 C 0.87338 0.31695 0.30362 0.0
H439 H 0.87029 0.35428 0.2572 0.0
H440 H 0.85809 0.33362 0.27308 0.0
H441 H 0.87933 0.3526 0.28312 0.0
H442 H 0.91994 0.34529 0.29873 0.0
H443 H 0.91808 0.34168 0.33813 0.0
H444 H 0.56453 0.91267 0.6544 0.0
H445 H 0.56142 0.91274 0.69374 0.0
H446 H 0.54189 0.85421 0.69547 0.0
H447 H 0.5448 0.85395 0.65608 0.0
H448 H 0.52193 0.86605 0.72283 0.0
H449 H 0.59805 0.90773 0.7341 0.0
H450 H 0.5885 0.91767 0.71611 0.0
H451 H 0.58762 0.8964 0.70889 0.0
C452 C 0.55946 0.89978 0.66312 0.0
C453 C 0.55503 0.88332 0.65216 0.0
C454 C 0.55773 0.89986 0.68558 0.0
C455 C 0.5517 0.88354 0.69746 0.0
C456 C 0.54662 0.86696 0.68653 0.0
H457 H 0.54336 0.85475 0.83294 0.0
H458 H 0.53987 0.85428 0.79363 0.0
C459 C 0.5483 0.86684 0.66404 0.0
C460 C 0.55144 0.88391 0.72135 0.0
H461 H 0.5796 0.9015 0.76534 0.0
C462 C 0.53451 0.87378 0.73218 0.0
C463 C 0.56792 0.89398 0.7334 0.0
C464 C 0.58659 0.90445 0.7226 0.0
C465 C 0.53359 0.87368 0.75487 0.0
C466 C 0.55007 0.88375 0.7669 0.0
C467 C 0.56698 0.8939 0.75603 0.0
C468 C 0.55033 0.88369 0.79082 0.0
C469 C 0.51499 0.86305 0.76578 0.0
C470 C 0.55747 0.9004 0.80221 0.0
C471 C 0.55959 0.90074 0.82463 0.0
C472 C 0.55468 0.88437 0.83604 0.0
C473 C 0.54712 0.86757 0.82465 0.0
C474 C 0.54503 0.86725 0.80219 0.0
H475 H 0.50352 0.86023 0.7545 0.0
H476 H 0.51299 0.84958 0.77149 0.0
H477 H 0.51414 0.8707 0.78002 0.0
H478 H 0.56174 0.91324 0.79367 0.0
H479 H 0.56543 0.9139 0.83295 0.0
H480 H 0.69489 0.55203 0.33115 0.0
H481 H 0.69184 0.54876 0.2918 0.0
H482 H 0.65028 0.56499 0.2931 0.0
H483 H 0.65328 0.56839 0.33243 0.0
H484 H 0.65998 0.52661 0.26547 0.0
H485 H 0.69006 0.60198 0.25114 0.0
H486 H 0.69215 0.59275 0.27672 0.0
H487 H 0.6709 0.59194 0.26962 0.0
C488 C 0.685 0.55477 0.3231 0.0
C489 C 0.67437 0.56054 0.33488 0.0
C490 C 0.68329 0.5529 0.30064 0.0
C491 C 0.67101 0.55686 0.28961 0.0
C492 C 0.66004 0.56216 0.30135 0.0
H493 H 0.65018 0.56431 0.15385 0.0
H494 H 0.64837 0.56223 0.19331 0.0
C495 C 0.66175 0.56405 0.3238 0.0
C496 C 0.67003 0.5559 0.26576 0.0
H497 H 0.67827 0.58242 0.22066 0.0
C498 C 0.66398 0.53878 0.25562 0.0
C499 C 0.6753 0.57185 0.25306 0.0
C500 C 0.68263 0.59071 0.26312 0.0
C501 C 0.66281 0.53715 0.233 0.0
C502 C 0.66812 0.55311 0.22032 0.0
C503 C 0.67412 0.5702 0.23048 0.0
C504 C 0.66797 0.55261 0.19642 0.0
C505 C 0.65565 0.51834 0.22287 0.0
C506 C 0.67955 0.5478 0.18515 0.0
C507 C 0.68061 0.54897 0.16259 0.0
C508 C 0.67021 0.55509 0.15099 0.0
C509 C 0.65837 0.55956 0.16233 0.0
C510 C 0.65731 0.55837 0.18485 0.0
H511 H 0.6477 0.50705 0.23465 0.0
H512 H 0.64668 0.51651 0.20875 0.0
H513 H 0.66751 0.517 0.21713 0.0
H514 H 0.68819 0.54371 0.19382 0.0
H515 H 0.68998 0.54559 0.15434 0.0
H516 H 0.13238 0.68898 0.6645 0.0
H517 H 0.13155 0.68762 0.70395 0.0
H518 H 0.07259 0.65068 0.70215 0.0
H519 H 0.07332 0.65168 0.66254 0.0
H520 H 0.11118 0.69838 0.73034 0.0
H521 H 0.091 0.62483 0.74386 0.0
H522 H 0.1 0.6364 0.71833 0.0
H523 H 0.07643 0.62862 0.72567 0.0
C524 C 0.11927 0.68032 0.67243 0.0
C525 C 0.10293 0.67033 0.66039 0.0
C526 C 0.11882 0.67962 0.69499 0.0
C527 C 0.10206 0.66889 0.70591 0.0
C528 C 0.08572 0.65877 0.69398 0.0
H529 H 0.07556 0.65648 0.84345 0.0
H530 H 0.07392 0.65436 0.80389 0.0
C531 C 0.08615 0.65946 0.67137 0.0
C532 C 0.10164 0.66919 0.7298 0.0
H533 H 0.09255 0.64231 0.77479 0.0
C534 C 0.10713 0.68614 0.74008 0.0
C535 C 0.09623 0.65315 0.74236 0.0
C536 C 0.09071 0.63472 0.73207 0.0
C537 C 0.10737 0.68749 0.76268 0.0
C538 C 0.10226 0.67153 0.77527 0.0
C539 C 0.09648 0.65451 0.76502 0.0
C540 C 0.10329 0.67238 0.79913 0.0
C541 C 0.1129 0.70596 0.7729 0.0
C542 C 0.12038 0.68297 0.80945 0.0
C543 C 0.12137 0.68424 0.83196 0.0
C544 C 0.10527 0.67482 0.84456 0.0
C545 C 0.08819 0.66394 0.83418 0.0
C546 C 0.08723 0.66268 0.81162 0.0
H547 H 0.11172 0.71549 0.76131 0.0
H548 H 0.10423 0.70428 0.78729 0.0
H549 H 0.12751 0.71252 0.77826 0.0
H550 H 0.13297 0.69033 0.80005 0.0
H551 H 0.13472 0.69279 0.83944 0.0
H552 H 0.85772 0.54778 0.15847 0.0
H553 H 0.85879 0.54557 0.19784 0.0
H554 H 0.91706 0.56414 0.19448 0.0
H555 H 0.91619 0.56657 0.1551 0.0
H556 H 0.87034 0.52558 0.22488 0.0
H557 H 0.91406 0.6017 0.23497 0.0
H558 H 0.90228 0.59122 0.20998 0.0
H559 H 0.92323 0.59136 0.21699 0.0
C560 C 0.87073 0.55123 0.16606 0.0
C561 C 0.8869 0.55747 0.15369 0.0
C562 C 0.87131 0.54996 0.18855 0.0
C563 C 0.88805 0.55496 0.19903 0.0
C564 C 0.90408 0.56054 0.18668 0.0
H565 H 0.9177 0.56909 0.33534 0.0
H566 H 0.91771 0.56544 0.29607 0.0
C567 C 0.90353 0.56186 0.1642 0.0
C568 C 0.88884 0.55497 0.22292 0.0
H569 H 0.9072 0.58354 0.2665 0.0
C570 C 0.87841 0.53822 0.23403 0.0
C571 C 0.89939 0.57152 0.23472 0.0
C572 C 0.91027 0.59001 0.22362 0.0
C573 C 0.87832 0.53757 0.25673 0.0
C574 C 0.88872 0.55415 0.26851 0.0
C575 C 0.89931 0.57085 0.25738 0.0
C576 C 0.88833 0.55473 0.29241 0.0
C577 C 0.86727 0.51916 0.2679 0.0
C578 C 0.87179 0.5499 0.30331 0.0
C579 C 0.87173 0.55199 0.32573 0.0
C580 C 0.88824 0.55904 0.3376 0.0
C581 C 0.90474 0.56361 0.32666 0.0
C582 C 0.90478 0.56151 0.30424 0.0
H583 H 0.86438 0.50748 0.25691 0.0
H584 H 0.87464 0.51831 0.28242 0.0
H585 H 0.85383 0.5175 0.27321 0.0
H586 H 0.85902 0.54504 0.2944 0.0
H587 H 0.85883 0.54853 0.33364 0.0
H588 H 0.30797 0.86369 0.83149 0.0
H589 H 0.31215 0.86584 0.79232 0.0
H590 H 0.34682 0.92501 0.79729 0.0
H591 H 0.34266 0.92301 0.83663 0.0
H592 H 0.31907 0.9137 0.76625 0.0
H593 H 0.35753 0.87597 0.75664 0.0
H594 H 0.33663 0.86343 0.77203 0.0
H595 H 0.35519 0.88482 0.7824 0.0
C596 C 0.3167 0.87714 0.82433 0.0
C597 C 0.32511 0.89317 0.83718 0.0
C598 C 0.31913 0.87833 0.80194 0.0
C599 C 0.33008 0.89554 0.79199 0.0
C600 C 0.33846 0.91158 0.80473 0.0
H601 H 0.34534 0.92306 0.6539 0.0
H602 H 0.34888 0.92511 0.6933 0.0
C603 C 0.33604 0.91041 0.82717 0.0
C604 C 0.33178 0.89679 0.76817 0.0
H605 H 0.3442 0.88038 0.72451 0.0
C606 C 0.3248 0.90665 0.75709 0.0
C607 C 0.33926 0.88755 0.75635 0.0
C608 C 0.34775 0.87749 0.76746 0.0
C609 C 0.32438 0.90687 0.73441 0.0
C610 C 0.33138 0.8972 0.7226 0.0
C611 C 0.33881 0.88774 0.73367 0.0
C612 C 0.33022 0.89595 0.69876 0.0
C613 C 0.31575 0.9168 0.72328 0.0
C614 C 0.31897 0.8788 0.68885 0.0
C615 C 0.31695 0.87756 0.66639 0.0
C616 C 0.32626 0.89347 0.65347 0.0
C617 C 0.33792 0.91058 0.66343 0.0
C618 C 0.33992 0.91179 0.68592 0.0
H619 H 0.30774 0.92039 0.7347 0.0
H620 H 0.32681 0.92981 0.71605 0.0
H621 H 0.30643 0.9082 0.71003 0.0
H622 H 0.3114 0.86642 0.69854 0.0
H623 H 0.3078 0.8642 0.65925 0.0
H624 H 0.43696 0.3042 0.33323 0.0
H625 H 0.43656 0.30585 0.29382 0.0
H626 H 0.41951 0.3467 0.29811 0.0
H627 H 0.42018 0.34539 0.33767 0.0
H628 H 0.40534 0.2982 0.26846 0.0
H629 H 0.46354 0.36977 0.25546 0.0
H630 H 0.46034 0.35746 0.28056 0.0
H631 H 0.4461 0.36734 0.27438 0.0
C632 C 0.43338 0.31374 0.32584 0.0
C633 C 0.42874 0.32477 0.33858 0.0
C634 C 0.43309 0.3146 0.30332 0.0
C635 C 0.42822 0.32655 0.29311 0.0
C636 C 0.42363 0.33764 0.30572 0.0
H637 H 0.41686 0.34199 0.15514 0.0
H638 H 0.41703 0.34417 0.19472 0.0
C639 C 0.42391 0.33679 0.3283 0.0
C640 C 0.42713 0.32664 0.26926 0.0
H641 H 0.44682 0.35328 0.22449 0.0
C642 C 0.41438 0.31024 0.25883 0.0
C643 C 0.43887 0.34244 0.25683 0.0
C644 C 0.45311 0.36024 0.26729 0.0
C645 C 0.41313 0.30915 0.23622 0.0
C646 C 0.42518 0.32478 0.22377 0.0
C647 C 0.43764 0.34133 0.23416 0.0
C648 C 0.42555 0.32391 0.19991 0.0
C649 C 0.39888 0.29128 0.22586 0.0
C650 C 0.4306 0.31204 0.18985 0.0
C651 C 0.43051 0.31075 0.16735 0.0
C652 C 0.42548 0.3214 0.15449 0.0
C653 C 0.42075 0.33356 0.16462 0.0
C654 C 0.42086 0.33485 0.18718 0.0
H655 H 0.38763 0.28252 0.23734 0.0
H656 H 0.39269 0.29396 0.21139 0.0
H657 H 0.40562 0.28336 0.22061 0.0
H658 H 0.43455 0.3037 0.19943 0.0
H659 H 0.43415 0.3012 0.16008 0.0
H660 H 0.1407 0.44459 0.65348 0.0
H661 H 0.14087 0.44721 0.69286 0.0
H662 H 0.08196 0.42564 0.69251 0.0
H663 H 0.08169 0.42333 0.65303 0.0
H664 H 0.10173 0.45659 0.71986 0.0
H665 H 0.12092 0.40261 0.73376 0.0
H666 H 0.13632 0.42101 0.71616 0.0
H667 H 0.11284 0.40579 0.70793 0.0
C668 C 0.1278 0.44054 0.66173 0.0
C669 C 0.11117 0.43373 0.65013 0.0
C670 C 0.12791 0.44192 0.68425 0.0
C671 C 0.11139 0.43636 0.69556 0.0
C672 C 0.09484 0.42993 0.68403 0.0
H673 H 0.07968 0.42554 0.83049 0.0
H674 H 0.0807 0.4276 0.79098 0.0
C675 C 0.09471 0.42858 0.6615 0.0
C676 C 0.11132 0.43698 0.71945 0.0
H677 H 0.12026 0.41917 0.76449 0.0
C678 C 0.10574 0.4484 0.72966 0.0
C679 C 0.11653 0.42622 0.73211 0.0
C680 C 0.12184 0.41308 0.72199 0.0
C681 C 0.1055 0.44957 0.75231 0.0
C682 C 0.11075 0.43884 0.76493 0.0
C683 C 0.11634 0.42745 0.75471 0.0
C684 C 0.11029 0.43893 0.78883 0.0
C685 C 0.09994 0.46247 0.76254 0.0
C686 C 0.12656 0.44446 0.80063 0.0
C687 C 0.12601 0.44321 0.82316 0.0
C688 C 0.10915 0.43629 0.83427 0.0
C689 C 0.09289 0.431 0.8224 0.0
C690 C 0.09346 0.43227 0.79985 0.0
H691 H 0.10079 0.47298 0.75085 0.0
H692 H 0.08544 0.45435 0.76826 0.0
H693 H 0.10882 0.46969 0.7767 0.0
H694 H 0.13965 0.4495 0.79236 0.0
H695 H 0.13875 0.44725 0.8318 0.0
H696 H 0.64934 0.07258 0.34083 0.0
H697 H 0.64793 0.07089 0.30121 0.0
H698 H 0.68556 0.12964 0.2975 0.0
H699 H 0.68731 0.13145 0.3369 0.0
H700 H 0.6376 0.0905 0.27105 0.0
H701 H 0.71016 0.10666 0.26046 0.0
H702 H 0.69819 0.09942 0.28604 0.0
H703 H 0.70768 0.12292 0.2771 0.0
C704 C 0.6573 0.08514 0.33156 0.0
C705 C 0.66846 0.10215 0.34198 0.0
C706 C 0.65644 0.08414 0.30897 0.0
C707 C 0.66683 0.1001 0.29652 0.0
C708 C 0.67766 0.11713 0.30688 0.0
H709 H 0.68828 0.13196 0.16343 0.0
H710 H 0.68555 0.1299 0.20278 0.0
C711 C 0.67853 0.11815 0.3294 0.0
C712 C 0.66653 0.09907 0.27266 0.0
H713 H 0.69448 0.10766 0.22882 0.0
C714 C 0.64996 0.09407 0.26176 0.0
C715 C 0.6827 0.10368 0.26071 0.0
C716 C 0.70066 0.10831 0.27164 0.0
C717 C 0.64931 0.09426 0.23906 0.0
C718 C 0.6656 0.09933 0.22714 0.0
C719 C 0.68205 0.1039 0.23807 0.0
C720 C 0.66613 0.10051 0.20328 0.0
C721 C 0.63139 0.08965 0.22803 0.0
C722 C 0.65606 0.08463 0.19057 0.0
C723 C 0.65753 0.08577 0.16802 0.0
C724 C 0.66915 0.1028 0.15789 0.0
C725 C 0.67907 0.11868 0.1707 0.0
C726 C 0.67759 0.11752 0.1932 0.0
H727 H 0.62126 0.08986 0.23951 0.0
H728 H 0.63386 0.09952 0.21469 0.0
H729 H 0.62517 0.07558 0.22094 0.0
H730 H 0.6474 0.07131 0.1981 0.0
H731 H 0.64978 0.07327 0.15858 0.0
H732 H 0.5538 0.69027 0.66136 0.0
H733 H 0.54979 0.68586 0.70048 0.0
H734 H 0.56518 0.64373 0.69722 0.0
H735 H 0.56931 0.64808 0.65803 0.0
H736 H 0.52675 0.65322 0.72514 0.0
H737 H 0.60172 0.68171 0.74115 0.0
H738 H 0.59315 0.68486 0.71563 0.0
H739 H 0.59154 0.66311 0.72191 0.0
C740 C 0.55618 0.67995 0.6689 0.0
C741 C 0.56191 0.66955 0.65661 0.0
C742 C 0.55389 0.67747 0.69125 0.0
C743 C 0.55739 0.66463 0.70169 0.0
C744 C 0.56268 0.6539 0.68944 0.0
H745 H 0.56322 0.64524 0.83902 0.0
H746 H 0.56131 0.64199 0.79963 0.0
C747 C 0.56499 0.65638 0.66708 0.0
C748 C 0.55596 0.66289 0.72549 0.0
H749 H 0.58171 0.67061 0.77117 0.0
C750 C 0.53872 0.65695 0.73525 0.0
C751 C 0.57164 0.66777 0.73852 0.0
C752 C 0.59061 0.67487 0.72886 0.0
C753 C 0.53675 0.65576 0.75784 0.0
C754 C 0.5525 0.66095 0.77088 0.0
C755 C 0.56966 0.66658 0.76108 0.0
C756 C 0.55178 0.66151 0.79475 0.0
C757 C 0.51784 0.64886 0.76753 0.0
C758 C 0.54698 0.67351 0.805 0.0
C759 C 0.54804 0.6754 0.82748 0.0
C760 C 0.55407 0.66541 0.84006 0.0
C761 C 0.55852 0.65312 0.82977 0.0
C762 C 0.55743 0.65123 0.80729 0.0
H763 H 0.5067 0.64054 0.75571 0.0
H764 H 0.51584 0.64031 0.78213 0.0
H765 H 0.51639 0.66086 0.77239 0.0
H766 H 0.543 0.68189 0.79556 0.0
H767 H 0.5447 0.68511 0.8349 0.0
H768 H 0.43035 0.14582 0.0374 0.0
H769 H 0.43149 0.17043 0.01472 0.0
H770 H 0.47884 0.21083 0.05067 0.0
H771 H 0.47797 0.18652 0.07291 0.0
H772 H 0.42469 0.1946 0.03321 0.0
H773 H 0.49141 0.23491 0.99263 0.0
H774 H 0.48308 0.21139 0.00142 0.0
H775 H 0.4959 0.23054 0.01966 0.0
C776 C 0.44141 0.15989 0.0399 0.0
C777 C 0.45387 0.16429 0.05721 0.0
C778 C 0.44207 0.17393 0.02687 0.0
C779 C 0.45535 0.19251 0.03079 0.0
C780 C 0.46874 0.19663 0.04686 0.0
H781 H 0.47404 0.28494 0.07639 0.0
H782 H 0.47508 0.26128 0.05462 0.0
C783 C 0.46804 0.18269 0.05988 0.0
C784 C 0.45291 0.20775 0.02226 0.0
H785 H 0.47935 0.25369 0.01103 0.0
C786 C 0.43635 0.20735 0.02739 0.0
C787 C 0.46798 0.2243 0.01429 0.0
C788 C 0.48549 0.22518 0.00647 0.0
C789 C 0.43545 0.22366 0.0282 0.0
C790 C 0.4515 0.2407 0.02335 0.0
C791 C 0.46715 0.24067 0.0151 0.0
C792 C 0.45379 0.25821 0.03222 0.0
C793 C 0.41809 0.22273 0.03683 0.0
C794 C 0.44217 0.26509 0.02618 0.0
C795 C 0.44139 0.2786 0.03887 0.0
C796 C 0.45227 0.28538 0.05767 0.0
C797 C 0.4652 0.27976 0.06228 0.0
C798 C 0.46594 0.26632 0.04969 0.0
H799 H 0.40726 0.2084 0.04103 0.0
H800 H 0.42128 0.23145 0.05154 0.0
H801 H 0.41231 0.22806 0.02448 0.0
H802 H 0.43292 0.25924 0.01251 0.0
H803 H 0.43143 0.28281 0.03473 0.0
H804 H 0.18902 0.48123 0.56109 0.0
H805 H 0.21284 0.48188 0.53812 0.0
H806 H 0.17204 0.43261 0.50535 0.0
H807 H 0.14794 0.43173 0.52877 0.0
H808 H 0.1969 0.4271 0.52395 0.0
H809 H 0.23567 0.49198 0.47947 0.0
H810 H 0.23174 0.4977 0.50611 0.0
H811 H 0.21228 0.48379 0.48867 0.0
C812 C 0.18497 0.47085 0.54854 0.0
C813 C 0.16667 0.45621 0.54705 0.0
C814 C 0.19862 0.4714 0.5351 0.0
C815 C 0.19428 0.45738 0.51979 0.0
C816 C 0.1757 0.44367 0.5169 0.0
H817 H 0.28571 0.436 0.52937 0.0
H818 H 0.26216 0.43583 0.5055 0.0
C819 C 0.16195 0.44316 0.53035 0.0
C820 C 0.20949 0.45481 0.51137 0.0
H821 H 0.25523 0.48143 0.49929 0.0
C822 C 0.20948 0.43865 0.51759 0.0
C823 C 0.22581 0.46967 0.50265 0.0
C824 C 0.22624 0.48665 0.49363 0.0
C825 C 0.22599 0.43817 0.51888 0.0
C826 C 0.24284 0.45421 0.51338 0.0
C827 C 0.24237 0.46926 0.5039 0.0
C828 C 0.26048 0.45743 0.52292 0.0
C829 C 0.22547 0.42138 0.52876 0.0
C830 C 0.26829 0.47054 0.53956 0.0
C831 C 0.28174 0.47077 0.55304 0.0
C832 C 0.28766 0.45785 0.55021 0.0
C833 C 0.28124 0.44597 0.53216 0.0
C834 C 0.26774 0.4458 0.51854 0.0
H835 H 0.21124 0.41049 0.53318 0.0
H836 H 0.23107 0.41533 0.51706 0.0
H837 H 0.23417 0.42535 0.54355 0.0
H838 H 0.26297 0.47971 0.54321 0.0
H839 H 0.28664 0.48036 0.56651 0.0
H840 H 0.84606 0.28174 0.03612 0.0
H841 H 0.82084 0.25813 0.01426 0.0
H842 H 0.78157 0.26612 0.05127 0.0
H843 H 0.80649 0.28973 0.07271 0.0
H844 H 0.79711 0.22764 0.03387 0.0
H845 H 0.75603 0.25355 0.99406 0.0
H846 H 0.77975 0.26882 0.00207 0.0
H847 H 0.76104 0.26284 0.0209 0.0
C848 C 0.8321 0.27894 0.03903 0.0
C849 C 0.82821 0.28733 0.05643 0.0
C850 C 0.81771 0.26548 0.02646 0.0
C851 C 0.79928 0.26039 0.03095 0.0
C852 C 0.79564 0.27003 0.04705 0.0
H853 H 0.707 0.18717 0.07863 0.0
H854 H 0.73052 0.21159 0.0565 0.0
C855 C 0.80994 0.28338 0.05959 0.0
C856 C 0.78378 0.24259 0.02307 0.0
H857 H 0.73765 0.22297 0.01299 0.0
C858 C 0.78425 0.22649 0.02836 0.0
C859 C 0.76709 0.24102 0.01551 0.0
C860 C 0.76607 0.25755 0.0076 0.0
C861 C 0.76797 0.20931 0.02966 0.0
C862 C 0.75084 0.20826 0.02514 0.0
C863 C 0.75074 0.22384 0.01679 0.0
C864 C 0.73347 0.19313 0.03436 0.0
C865 C 0.76906 0.19301 0.03843 0.0
C866 C 0.72658 0.17455 0.02862 0.0
C867 C 0.71316 0.1604 0.04153 0.0
C868 C 0.70647 0.16473 0.06026 0.0
C869 C 0.71211 0.18333 0.06459 0.0
C870 C 0.72547 0.19735 0.05179 0.0
H871 H 0.78343 0.19659 0.04246 0.0
H872 H 0.76048 0.18761 0.05326 0.0
H873 H 0.76364 0.18177 0.02622 0.0
H874 H 0.73233 0.17099 0.01496 0.0
H875 H 0.70891 0.14619 0.03759 0.0
H876 H 0.56857 0.71397 0.53607 0.0
H877 H 0.56829 0.73735 0.51223 0.0
H878 H 0.52262 0.73411 0.54849 0.0
H879 H 0.52251 0.71071 0.57182 0.0
H880 H 0.52125 0.74101 0.50373 0.0
H881 H 0.59039 0.78842 0.54009 0.0
H882 H 0.58709 0.76881 0.52451 0.0
H883 H 0.57628 0.76537 0.55055 0.0
C884 C 0.55818 0.71793 0.53857 0.0
C885 C 0.54586 0.71085 0.55618 0.0
C886 C 0.55807 0.7313 0.52497 0.0
C887 C 0.54567 0.73772 0.52887 0.0
C888 C 0.53234 0.7294 0.54519 0.0
H889 H 0.51443 0.80486 0.56294 0.0
H890 H 0.51635 0.78182 0.54103 0.0
C891 C 0.53243 0.71613 0.55869 0.0
C892 C 0.54803 0.75491 0.51898 0.0
H893 H 0.57235 0.80103 0.5298 0.0
C894 C 0.53274 0.75426 0.50864 0.0
C895 C 0.56321 0.77226 0.5249 0.0
C896 C 0.58021 0.77393 0.53564 0.0
C897 C 0.53115 0.77016 0.50687 0.0
C898 C 0.54503 0.78691 0.51599 0.0
C899 C 0.56154 0.7881 0.52315 0.0
C900 C 0.54102 0.80138 0.52368 0.0
C901 C 0.51394 0.76851 0.49686 0.0
C902 C 0.55397 0.82023 0.52096 0.0
C903 C 0.55301 0.83354 0.53383 0.0
C904 C 0.53922 0.82812 0.54976 0.0
C905 C 0.52535 0.80947 0.551 0.0
C906 C 0.52628 0.79625 0.53815 0.0
H907 H 0.50959 0.75908 0.48267 0.0
H908 H 0.5025 0.7624 0.50882 0.0
H909 H 0.51605 0.78215 0.49163 0.0
H910 H 0.56555 0.82451 0.51003 0.0
H911 H 0.56387 0.84783 0.53241 0.0
H912 H 0.71296 0.56305 0.03074 0.0
H913 H 0.73758 0.56405 0.00819 0.0
H914 H 0.72899 0.51361 0.03796 0.0
H915 H 0.70442 0.51239 0.06 0.0
H916 H 0.76733 0.56943 0.02803 0.0
H917 H 0.74492 0.50703 0.97958 0.0
H918 H 0.72879 0.51408 0.9887 0.0
H919 H 0.73423 0.49976 0.00555 0.0
C920 C 0.71584 0.55179 0.03179 0.0
C921 C 0.70703 0.53783 0.04744 0.0
C922 C 0.72989 0.55236 0.01884 0.0
C923 C 0.73513 0.53886 0.02121 0.0
C924 C 0.72502 0.52398 0.03534 0.0
H925 H 0.80583 0.51706 0.06866 0.0
H926 H 0.78272 0.51799 0.04573 0.0
C927 C 0.7111 0.52344 0.04827 0.0
C928 C 0.75345 0.54232 0.01362 0.0
H929 H 0.7743 0.51738 0.00097 0.0
C930 C 0.76903 0.55842 0.02116 0.0
C931 C 0.75579 0.52818 0.00428 0.0
C932 C 0.73998 0.51141 0.99387 0.0
C933 C 0.78623 0.55941 0.02298 0.0
C934 C 0.78784 0.54396 0.01673 0.0
C935 C 0.77297 0.52908 0.00613 0.0
C936 C 0.80241 0.541 0.02626 0.0
C937 C 0.80183 0.57599 0.03408 0.0
C938 C 0.82127 0.55306 0.02227 0.0
C939 C 0.83464 0.55269 0.03562 0.0
C940 C 0.82925 0.54022 0.05308 0.0
C941 C 0.81045 0.52707 0.05564 0.0
C942 C 0.79719 0.52747 0.04238 0.0
H943 H 0.79789 0.58637 0.03893 0.0
H944 H 0.80623 0.57157 0.04879 0.0
H945 H 0.81387 0.58281 0.02302 0.0
H946 H 0.82559 0.56343 0.00968 0.0
H947 H 0.84904 0.56288 0.03307 0.0
H948 H 0.26848 0.84086 0.55077 0.0
H949 H 0.24491 0.8114 0.5353 0.0
H950 H 0.28208 0.78985 0.54124 0.0
H951 H 0.30525 0.81892 0.55785 0.0
H952 H 0.23802 0.78266 0.50423 0.0
H953 H 0.24384 0.76433 0.58942 0.0
H954 H 0.25573 0.78783 0.5799 0.0
H955 H 0.26444 0.77256 0.57353 0.0
C956 C 0.27186 0.83008 0.5479 0.0
C957 C 0.28843 0.83188 0.55576 0.0
C958 C 0.25842 0.81329 0.53901 0.0
C959 C 0.26163 0.79834 0.53765 0.0
C960 C 0.27926 0.80115 0.54252 0.0
H961 H 0.17707 0.68778 0.56671 0.0
H962 H 0.20503 0.71045 0.54791 0.0
C963 C 0.29247 0.81771 0.55198 0.0
C964 C 0.24567 0.77933 0.5365 0.0
H965 H 0.22029 0.74188 0.56861 0.0
C966 C 0.23424 0.77355 0.51812 0.0
C967 C 0.24066 0.76759 0.55479 0.0
C968 C 0.25167 0.77338 0.57561 0.0
C969 C 0.21773 0.75636 0.51773 0.0
C970 C 0.21257 0.7449 0.53626 0.0
C971 C 0.22438 0.7505 0.55425 0.0
C972 C 0.19412 0.72823 0.53907 0.0
C973 C 0.2059 0.75078 0.49767 0.0
C974 C 0.17823 0.72997 0.5389 0.0
C975 C 0.16208 0.71676 0.54923 0.0
C976 C 0.16186 0.70196 0.56025 0.0
C977 C 0.17702 0.69918 0.55841 0.0
C978 C 0.19295 0.71209 0.5476 0.0
H979 H 0.21444 0.75705 0.48297 0.0
H980 H 0.19802 0.73552 0.4957 0.0
H981 H 0.19593 0.75584 0.49891 0.0
H982 H 0.17884 0.74243 0.53285 0.0
H983 H 0.15055 0.71922 0.5506 0.0
H984 H 0.85197 0.56863 0.45668 0.0
H985 H 0.82835 0.56923 0.47967 0.0
H986 H 0.78667 0.51876 0.44979 0.0
H987 H 0.81 0.51796 0.42725 0.0
H988 H 0.80309 0.57406 0.46061 0.0
H989 H 0.76537 0.51133 0.50922 0.0
H990 H 0.78853 0.5191 0.49949 0.0
H991 H 0.76869 0.50447 0.48293 0.0
C992 C 0.83786 0.55731 0.45563 0.0
C993 C 0.83277 0.54343 0.43987 0.0
C994 C 0.8244 0.55764 0.46883 0.0
C995 C 0.80572 0.54396 0.46666 0.0
C996 C 0.80098 0.52925 0.45226 0.0
H997 H 0.7122 0.51958 0.42217 0.0
H998 H 0.73646 0.52104 0.44511 0.0
C999 C 0.81435 0.52896 0.43905 0.0
C1000 C 0.79078 0.54699 0.47497 0.0
H1001 H 0.74542 0.52117 0.48913 0.0
C1002 C 0.79068 0.56287 0.46778 0.0
C1003 C 0.7747 0.53261 0.48474 0.0
C1004 C 0.77446 0.51604 0.49474 0.0
C1005 C 0.77419 0.5634 0.46669 0.0
C1006 C 0.75748 0.5477 0.47334 0.0
C1007 C 0.75816 0.53307 0.48367 0.0
C1008 C 0.73959 0.54416 0.46426 0.0
C1009 C 0.77447 0.57975 0.45585 0.0
C1010 C 0.73251 0.556 0.46818 0.0
C1011 C 0.71865 0.55534 0.45479 0.0
C1012 C 0.71172 0.54277 0.43741 0.0
C1013 C 0.71749 0.52968 0.43512 0.0
C1014 C 0.73128 0.53038 0.44839 0.0
H1015 H 0.78858 0.59037 0.45065 0.0
H1016 H 0.76535 0.57513 0.4414 0.0
H1017 H 0.76925 0.58636 0.46724 0.0
H1018 H 0.73851 0.56651 0.48063 0.0
H1019 H 0.71433 0.56547 0.45713 0.0
H1020 H 0.15748 0.7231 0.95079 0.0
H1021 H 0.18745 0.74633 0.96534 0.0
H1022 H 0.20925 0.71007 0.95274 0.0
H1023 H 0.1796 0.68728 0.93698 0.0
H1024 H 0.21787 0.75311 0.99305 0.0
H1025 H 0.23179 0.74956 0.9055 0.0
H1026 H 0.20887 0.73707 0.91671 0.0
H1027 H 0.22475 0.72866 0.9204 0.0
C1028 C 0.16843 0.71977 0.95204 0.0
C1029 C 0.16647 0.70365 0.94245 0.0
C1030 C 0.18555 0.73304 0.96039 0.0
C1031 C 0.20067 0.73009 0.95952 0.0
C1032 C 0.19781 0.71272 0.95314 0.0
H1033 H 0.30936 0.8168 0.92588 0.0
H1034 H 0.28764 0.78817 0.94426 0.0
C1035 C 0.18089 0.69971 0.94419 0.0
C1036 C 0.21962 0.74625 0.95984 0.0
H1037 H 0.2551 0.77287 0.92568 0.0
C1038 C 0.22622 0.75733 0.97847 0.0
C1039 C 0.23034 0.75186 0.94067 0.0
C1040 C 0.22358 0.74131 0.91962 0.0
C1041 C 0.24322 0.77405 0.97829 0.0
C1042 C 0.25365 0.77978 0.95894 0.0
C1043 C 0.24727 0.76834 0.94064 0.0
C1044 C 0.26998 0.79843 0.95583 0.0
C1045 C 0.24968 0.7855 -0.00137 0.0
C1046 C 0.26799 0.81413 0.95754 0.0
C1047 C 0.28063 0.83065 0.94738 0.0
C1048 C 0.29512 0.83147 0.93498 0.0
C1049 C 0.29818 0.81641 0.9352 0.0
C1050 C 0.28582 0.80009 0.94578 0.0
H1051 H 0.24423 0.77667 0.01327 0.0
H1052 H 0.265 0.79353 -0.00044 0.0
H1053 H 0.24442 0.79535 -0.00124 0.0
H1054 H 0.25573 0.81315 0.9648 0.0
H1055 H 0.27795 0.84207 0.94734 0.0
H1056 H 0.47856 0.18896 0.4232 0.0
H1057 H 0.48023 0.21382 0.44509 0.0
H1058 H 0.43284 0.17457 0.48193 0.0
H1059 H 0.43088 0.14941 0.45959 0.0
H1060 H 0.42643 0.1988 0.46311 0.0
H1061 H 0.49369 0.23883 0.50256 0.0
H1062 H 0.49781 0.23391 0.47561 0.0
H1063 H 0.4849 0.21511 0.49426 0.0
C1064 C 0.4688 0.18549 0.43636 0.0
C1065 C 0.45436 0.16726 0.43936 0.0
C1066 C 0.46995 0.19975 0.44917 0.0
C1067 C 0.45677 0.19612 0.46538 0.0
C1068 C 0.44326 0.17769 0.46965 0.0
H1069 H 0.43511 0.28783 0.45916 0.0
H1070 H 0.43625 0.26444 0.48208 0.0
C1071 C 0.44213 0.16334 0.45682 0.0
C1072 C 0.45476 0.2117 0.47364 0.0
H1073 H 0.48199 0.25775 0.48371 0.0
C1074 C 0.43831 0.21155 0.46859 0.0
C1075 C 0.47009 0.22825 0.48119 0.0
C1076 C 0.48752 0.22891 0.48893 0.0
C1077 C 0.43775 0.22802 0.46741 0.0
C1078 C 0.45404 0.245 0.47178 0.0
C1079 C 0.46961 0.24478 0.48 0.0
C1080 C 0.45661 0.26244 0.46239 0.0
C1081 C 0.42045 0.22729 0.45888 0.0
C1082 C 0.46858 0.26994 0.44466 0.0
C1083 C 0.46804 0.28326 0.43167 0.0
C1084 C 0.45547 0.28938 0.43613 0.0
C1085 C 0.44478 0.28322 0.45514 0.0
C1086 C 0.44537 0.26982 0.46823 0.0
H1087 H 0.40937 0.21296 0.45515 0.0
H1088 H 0.41504 0.23312 0.47109 0.0
H1089 H 0.42362 0.23569 0.44391 0.0
H1090 H 0.47742 0.26449 0.43987 0.0
H1091 H 0.47672 0.28795 0.41739 0.0
H1092 H 0.28614 0.47832 0.92531 0.0
H1093 H 0.26262 0.47875 0.94791 0.0
H1094 H 0.2535 0.429 0.97999 0.0
H1095 H 0.2771 0.42838 0.95703 0.0
H1096 H 0.22341 0.42412 0.96041 0.0
H1097 H 0.24958 0.48809 0.00712 0.0
H1098 H 0.2595 0.49404 0.98062 0.0
H1099 H 0.26461 0.4797 -0.00216 0.0
C1100 C 0.27958 0.46778 0.93764 0.0
C1101 C 0.28322 0.45312 0.93908 0.0
C1102 C 0.26628 0.4682 0.95085 0.0
C1103 C 0.25634 0.45399 0.96585 0.0
C1104 C 0.26111 0.4402 0.96868 0.0
H1105 H 0.14342 0.43266 0.95744 0.0
H1106 H 0.1669 0.43193 0.98058 0.0
C1107 C 0.27456 0.43984 0.95549 0.0
C1108 C 0.23853 0.45143 0.97409 0.0
H1109 H 0.21949 0.47782 0.98787 0.0
C1110 C 0.22238 0.43552 0.96732 0.0
C1111 C 0.23713 0.46612 0.98347 0.0
C1112 C 0.25369 0.48284 0.99288 0.0
C1113 C 0.20543 0.43513 0.96633 0.0
C1114 C 0.20463 0.45101 0.97276 0.0
C1115 C 0.22017 0.46577 0.9826 0.0
C1116 C 0.19007 0.45444 0.96406 0.0
C1117 C 0.1892 0.41868 0.95587 0.0
C1118 C 0.19524 0.46828 0.94835 0.0
C1119 C 0.18195 0.46886 0.93534 0.0
C1120 C 0.16317 0.45555 0.93769 0.0
C1121 C 0.15781 0.44294 0.95499 0.0
C1122 C 0.17121 0.44244 0.96818 0.0
H1123 H 0.19265 0.40808 0.95043 0.0
H1124 H 0.17764 0.41206 0.9676 0.0
H1125 H 0.18433 0.42315 0.94162 0.0
H1126 H 0.2097 0.47777 0.94494 0.0
H1127 H 0.18656 0.47902 0.92248 0.0
H1128 H 0.71701 0.15407 0.4502 0.0
H1129 H 0.73971 0.18344 0.46645 0.0
H1130 H 0.70577 0.20702 0.44933 0.0
H1131 H 0.68358 0.17795 0.43211 0.0
H1132 H 0.73701 0.22186 0.42752 0.0
H1133 H 0.75397 0.22159 0.51386 0.0
H1134 H 0.75285 0.2024 0.49947 0.0
H1135 H 0.73234 0.20419 0.50221 0.0
C1136 C 0.71401 0.16527 0.45086 0.0
C1137 C 0.69879 0.16397 0.43968 0.0
C1138 C 0.72693 0.18204 0.46032 0.0
C1139 C 0.72449 0.1975 0.45907 0.0
C1140 C 0.70794 0.1953 0.45048 0.0
H1141 H 0.81339 0.30809 0.43146 0.0
H1142 H 0.78444 0.28571 0.44899 0.0
C1143 C 0.6953 0.17873 0.44058 0.0
C1144 C 0.7408 0.21633 0.4606 0.0
H1145 H 0.77871 0.24448 0.49114 0.0
C1146 C 0.74583 0.22703 0.44168 0.0
C1147 C 0.75251 0.22288 0.47889 0.0
C1148 C 0.74754 0.21221 0.49982 0.0
C1149 C 0.76265 0.24353 0.44002 0.0
C1150 C 0.77465 0.24995 0.45812 0.0
C1151 C 0.76939 0.23964 0.4774 0.0
C1152 C 0.7935 0.26609 0.45597 0.0
C1153 C 0.76792 0.25316 0.4183 0.0
C1154 C 0.80873 0.26329 0.45624 0.0
C1155 C 0.82546 0.27634 0.44688 0.0
C1156 C 0.82694 0.2921 0.43685 0.0
C1157 C 0.81244 0.29591 0.43893 0.0
C1158 C 0.79593 0.28314 0.4489 0.0
H1159 H 0.75885 0.24425 0.40504 0.0
H1160 H 0.76661 0.26574 0.41894 0.0
H1161 H 0.78243 0.25739 0.4141 0.0
H1162 H 0.80716 0.25026 0.46172 0.0
H1163 H 0.83649 0.27314 0.44543 0.0
H1164 H 0.51517 0.70835 0.92415 0.0
H1165 H 0.51718 0.7336 0.9457 0.0
H1166 H 0.56315 0.73681 0.98121 0.0
H1167 H 0.56151 0.71158 0.95917 0.0
H1168 H 0.51804 0.74383 0.98965 0.0
H1169 H 0.58627 0.78589 0.94866 0.0
H1170 H 0.57079 0.76238 0.94047 0.0
H1171 H 0.58273 0.76707 0.96589 0.0
C1172 C 0.52551 0.71413 0.9368 0.0
C1173 C 0.53851 0.7083 0.93953 0.0
C1174 C 0.52654 0.72849 0.94928 0.0
C1175 C 0.54055 0.73734 0.96476 0.0
C1176 C 0.55243 0.73036 0.96907 0.0
H1177 H 0.56588 0.8501 0.95559 0.0
H1178 H 0.5666 0.82649 0.9784 0.0
C1179 C 0.55143 0.71592 0.9565 0.0
C1180 C 0.54421 0.75548 0.9731 0.0
H1181 H 0.57045 0.80081 0.95907 0.0
C1182 C 0.52983 0.75643 0.9837 0.0
C1183 C 0.55977 0.77199 0.96576 0.0
C1184 C 0.57581 0.77195 0.95452 0.0
C1185 C 0.52951 0.77306 0.98461 0.0
C1186 C 0.54375 0.78894 0.97435 0.0
C1187 C 0.55938 0.78857 0.96667 0.0
C1188 C 0.5408 0.804 0.96631 0.0
C1189 C 0.51325 0.77311 0.99511 0.0
C1190 C 0.52573 0.79936 0.95253 0.0
C1191 C 0.52534 0.81274 0.93945 0.0
C1192 C 0.54007 0.83105 0.93974 0.0
C1193 C 0.55435 0.83608 0.95494 0.0
C1194 C 0.55476 0.82261 0.96804 0.0
H1195 H 0.50883 0.76424 0.00978 0.0
H1196 H 0.51653 0.78729 -0.00029 0.0
H1197 H 0.50141 0.76723 0.9837 0.0
H1198 H 0.51501 0.7851 0.9504 0.0
H1199 H 0.51405 0.80844 0.92809 0.0
H1200 H 0.30459 0.93627 0.94425 0.0
H1201 H 0.3185 0.96495 0.96528 0.0
H1202 H 0.367 0.96031 0.97613 0.0
H1203 H 0.35329 0.93166 0.95512 0.0
H1204 H 0.3334 0.97222 0.00951 0.0
H1205 H 0.38577 0.01169 0.94612 0.0
H1206 H 0.36514 0.98987 0.94072 0.0
H1207 H 0.38431 0.99038 0.9545 0.0
C1208 C 0.31814 0.94124 0.95129 0.0
C1209 C 0.32792 0.93179 0.94787 0.0
C1210 C 0.32604 0.95761 0.96327 0.0
C1211 C 0.34386 0.96482 0.97186 0.0
C1212 C 0.35334 0.95505 0.96927 0.0
H1213 H 0.42015 0.06269 0.04169 0.0
H1214 H 0.40475 0.03432 0.02029 0.0
C1215 C 0.34544 0.93865 0.95738 0.0
C1216 C 0.35274 0.98281 0.98309 0.0
H1217 H 0.38866 0.02707 0.97931 0.0
C1218 C 0.34542 0.98427 0.00292 0.0
C1219 C 0.36838 -0.00159 0.97431 0.0
C1220 C 0.37633 0.99766 0.95266 0.0
C1221 C 0.35369 0.00091 0.01457 0.0
C1222 C 0.3694 0.01652 0.00584 0.0
C1223 C 0.37659 0.01507 0.9859 0.0
C1224 C 0.37894 0.03433 0.01752 0.0
C1225 C 0.34587 0.00147 0.0364 0.0
C1226 C 0.36968 0.044 0.02242 0.0
C1227 C 0.37841 0.06019 0.03469 0.0
C1228 C 0.39659 0.06703 0.04211 0.0
C1229 C 0.40611 0.05775 0.0363 0.0
C1230 C 0.39734 0.04153 0.02409 0.0
H1231 H 0.33678 0.98738 0.043 0.0
H1232 H 0.3571 0.00947 0.04821 0.0
H1233 H 0.33749 0.00835 0.03476 0.0
H1234 H 0.3556 0.03886 0.01703 0.0
H1235 H 0.37076 0.0671 0.03875 0.0
H1236 H 0.42612 0.36106 0.45333 0.0
H1237 H 0.41212 0.37553 0.47467 0.0
H1238 H 0.36298 0.32244 0.4832 0.0
H1239 H 0.37687 0.30779 0.46205 0.0
H1240 H 0.37879 0.37422 0.46259 0.0
H1241 H 0.37392 0.34479 0.54451 0.0
H1242 H 0.38909 0.34461 0.52379 0.0
H1243 H 0.3648 0.32801 0.5231 0.0
C1244 C 0.41246 0.3524 0.46007 0.0
C1245 C 0.40257 0.33328 0.45593 0.0
C1246 C 0.40449 0.3607 0.47221 0.0
C1247 C 0.38659 0.35002 0.48058 0.0
C1248 C 0.37693 0.33086 0.47715 0.0
H1249 H 0.30893 0.37247 0.54692 0.0
H1250 H 0.32421 0.3586 0.52693 0.0
C1251 C 0.38487 0.32254 0.46498 0.0
C1252 C 0.37745 0.35909 0.4914 0.0
H1253 H 0.35747 0.36082 0.53879 0.0
C1254 C 0.37424 0.37142 0.4793 0.0
C1255 C 0.37146 0.35526 0.51312 0.0
C1256 C 0.3751 0.34257 0.52699 0.0
C1257 C 0.36482 0.3798 0.48826 0.0
C1258 C 0.35878 0.37595 0.50998 0.0
C1259 C 0.36208 0.36368 0.5221 0.0
C1260 C 0.34911 0.38459 0.52057 0.0
C1261 C 0.36101 0.39232 0.47426 0.0
C1262 C 0.35802 0.40381 0.5234 0.0
C1263 C 0.3493 0.4118 0.53472 0.0
C1264 C 0.3316 0.40065 0.54358 0.0
C1265 C 0.32257 0.38143 0.5403 0.0
C1266 C 0.33128 0.37347 0.52894 0.0
H1267 H 0.36216 0.39 0.45676 0.0
H1268 H 0.347 0.39021 0.47745 0.0
H1269 H 0.37126 0.40693 0.47799 0.0
H1270 H 0.37192 0.41259 0.51738 0.0
H1271 H 0.35667 0.42664 0.53707 0.0
H1272 H 0.03919 0.37628 0.91188 0.0
H1273 H 0.01216 0.36258 0.93549 0.0
H1274 H 0.04328 0.40265 0.98498 0.0
H1275 H 0.07034 0.41677 0.96122 0.0
H1276 H 0.00754 0.3467 0.97479 0.0
H1277 H -0.00268 0.40727 0.98026 0.0
H1278 H 0.0126 0.40583 0.9607 0.0
H1279 H 0.02004 0.41233 0.98822 0.0
C1280 C 0.0403 0.38223 0.92776 0.0
C1281 C 0.05687 0.39768 0.93465 0.0
C1282 C 0.02483 0.37438 0.94122 0.0
C1283 C 0.02563 0.38179 0.96182 0.0
C1284 C 0.04225 0.397 0.96893 0.0
H1285 H 0.95167 0.32756 0.06853 0.0
H1286 H 0.97704 0.34055 0.04257 0.0
C1287 C 0.05772 0.40497 0.9554 0.0
C1288 C 0.00917 0.37325 0.97599 0.0
H1289 H 0.97965 0.38239 0.00449 0.0
C1290 C 0.00137 0.35447 0.9812 0.0
C1291 C 0.00097 0.38335 0.98399 0.0
C1292 C 0.00803 0.40326 0.97785 0.0
C1293 C 0.98581 0.34557 0.99462 0.0
C1294 C 0.97814 0.35589 0.00344 0.0
C1295 C 0.98567 0.37457 -0.00216 0.0
C1296 C 0.96255 0.34767 0.01889 0.0
C1297 C 0.97761 0.32518 -0.001 0.0
C1298 C 0.94614 0.3478 0.01441 0.0
C1299 C 0.93165 0.34057 0.02935 0.0
C1300 C 0.93337 0.33313 0.04903 0.0
C1301 C 0.94983 0.33303 0.05344 0.0
C1302 C 0.96433 0.34035 0.03857 0.0
H1303 H 0.98138 0.31834 0.98615 0.0
H1304 H 0.98306 0.3233 0.01458 0.0
H1305 H 0.96231 0.31813 0.00015 0.0
H1306 H 0.94457 0.3535 -0.00066 0.0
H1307 H 0.91915 0.34087 0.02553 0.0
H1308 H 0.63493 0.06134 0.4564 0.0
H1309 H 0.62208 0.03265 0.47715 0.0
H1310 H 0.67655 0.03954 0.4839 0.0
H1311 H 0.6896 0.06832 0.46322 0.0
H1312 H 0.62624 0.00179 0.46331 0.0
H1313 H 0.65404 0.02668 0.54594 0.0
H1314 H 0.65251 0.04149 0.52575 0.0
H1315 H 0.6705 0.03573 0.52415 0.0
C1316 C 0.64424 0.05695 0.4626 0.0
C1317 C 0.66328 0.06706 0.45808 0.0
C1318 C 0.63686 0.04054 0.4744 0.0
C1319 C 0.6484 0.03408 0.48207 0.0
C1320 C 0.66748 0.04446 0.47831 0.0
H1321 H 0.62567 0.93433 0.55114 0.0
H1322 H 0.64053 0.96332 0.53079 0.0
C1323 C 0.67488 0.06086 0.46644 0.0
C1324 C 0.64026 0.01581 0.49255 0.0
H1325 H 0.63808 0.99435 0.54028 0.0
C1326 C 0.62877 0.00012 0.48015 0.0
C1327 C 0.6438 0.01378 0.51442 0.0
C1328 C 0.65577 0.03029 0.52847 0.0
C1329 C 0.62071 0.98234 0.48906 0.0
C1330 C 0.62396 0.9803 0.51106 0.0
C1331 C 0.63564 0.996 0.5234 0.0
C1332 C 0.6149 0.96208 0.52185 0.0
C1333 C 0.60902 0.9659 0.47477 0.0
C1334 C 0.59557 0.95176 0.52338 0.0
C1335 C 0.58703 0.93517 0.53488 0.0
C1336 C 0.59771 0.92872 0.54525 0.0
C1337 C 0.61706 0.93892 0.54332 0.0
C1338 C 0.62558 0.95549 0.53176 0.0
H1339 H 0.61232 0.96932 0.45737 0.0
H1340 H 0.61099 0.95405 0.47884 0.0
H1341 H 0.59423 0.96154 0.47717 0.0
H1342 H 0.5871 0.95681 0.51621 0.0
H1343 H 0.5721 0.9277 0.53617 0.0
H1344 H 0.66178 0.61543 0.07386 0.0
H1345 H 0.64754 0.62891 0.05142 0.0
H1346 H 0.63539 0.58752 0.00248 0.0
H1347 H 0.64923 0.5736 0.02513 0.0
H1348 H 0.65673 0.64382 0.01149 0.0
H1349 H 0.58547 0.58373 0.01121 0.0
H1350 H 0.60313 0.58537 0.02938 0.0
H1351 H 0.60249 0.57824 0.00177 0.0
C1352 C 0.65605 0.60914 0.05834 0.0
C1353 C 0.65654 0.59338 0.0513 0.0
C1354 C 0.64792 0.61687 0.04555 0.0
C1355 C 0.64014 0.60903 0.02548 0.0
C1356 C 0.64091 0.59351 0.01817 0.0
H1357 H 0.61536 0.66189 0.92155 0.0
H1358 H 0.62883 0.64902 0.94612 0.0
C1359 C 0.64894 0.58566 0.03105 0.0
C1360 C 0.63161 0.61742 0.01206 0.0
H1361 H 0.59157 0.60823 0.98686 0.0
C1362 C 0.64246 0.63607 0.00618 0.0
C1363 C 0.6129 0.60736 0.00551 0.0
C1364 C 0.60025 0.58762 0.01246 0.0
C1365 C 0.6352 0.64486 0.99353 0.0
C1366 C 0.61674 0.63457 0.98615 0.0
C1367 C 0.60577 0.61603 0.9924 0.0
C1368 C 0.60867 0.64265 0.97151 0.0
C1369 C 0.64731 0.66514 0.98844 0.0
C1370 C 0.59257 0.6429 0.97742 0.0
C1371 C 0.58467 0.65007 0.96328 0.0
C1372 C 0.59276 0.65706 0.94298 0.0
C1373 C 0.60888 0.65676 0.93714 0.0
C1374 C 0.61668 0.64951 0.95122 0.0
H1375 H 0.65865 0.67212 0.00045 0.0
H1376 H 0.65372 0.66663 0.97229 0.0
H1377 H 0.63917 0.67234 0.98813 0.0
H1378 H 0.58613 0.63756 0.99299 0.0
H1379 H 0.57223 0.65007 0.9682 0.0
H1380 H 0.06409 0.69105 0.54366 0.0
H1381 H 0.03597 0.67806 0.52171 0.0
H1382 H 0.0326 0.62484 0.52273 0.0
H1383 H 0.06063 0.63762 0.54475 0.0
H1384 H 0.0276 0.65854 0.48057 0.0
H1385 H 0.98237 0.61571 0.54796 0.0
H1386 H 0.00547 0.63479 0.55231 0.0
H1387 H 0.00206 0.61303 0.54258 0.0
C1388 C 0.05746 0.67662 0.53908 0.0
C1389 C 0.06448 0.66532 0.5461 0.0
C1390 C 0.04141 0.66924 0.52655 0.0
C1391 C 0.03211 0.65046 0.521 0.0
C1392 C 0.03946 0.63931 0.52723 0.0
H1393 H 0.93228 0.57583 0.45339 0.0
H1394 H 0.96046 0.59065 0.47514 0.0
C1395 C 0.05552 0.64667 0.5397 0.0
C1396 C 0.0145 0.64241 0.50902 0.0
H1397 H 0.96852 0.61099 0.51336 0.0
C1398 C 0.01464 0.64822 0.48771 0.0
C1399 C -0.0023 0.629 0.51852 0.0
C1400 C 0.99676 0.62283 0.54166 0.0
C1401 C -0.00161 0.64053 0.47535 0.0
C1402 C 0.98158 0.62701 0.4848 0.0
C1403 C 0.98145 0.62137 0.50621 0.0
C1404 C 0.96407 0.6181 0.47252 0.0
C1405 C -0.00055 0.64655 0.45212 0.0
C1406 C 0.95655 0.62859 0.46436 0.0
C1407 C 0.94048 0.62018 0.45187 0.0
C1408 C 0.93161 0.60112 0.44749 0.0
C1409 C 0.93881 0.59055 0.4564 0.0
C1410 C 0.95491 0.59899 0.46882 0.0
H1411 H 0.01386 0.65356 0.4459 0.0
H1412 H 0.99074 0.63455 0.44153 0.0
H1413 H 0.99427 0.65643 0.45097 0.0
H1414 H 0.96322 0.6433 0.46748 0.0
H1415 H 0.93519 0.62867 0.44537 0.0
H1416 H 0.61659 0.95626 0.912 0.0
H1417 H 0.63033 0.98263 0.93662 0.0
H1418 H 0.59426 0.94855 0.98779 0.0
H1419 H 0.58009 0.92212 0.96309 0.0
H1420 H 0.59547 0.98179 0.98442 0.0
H1421 H 0.66644 0.99216 0.9855 0.0
H1422 H 0.65809 0.99225 0.95877 0.0
H1423 H 0.64693 0.97151 0.9748 0.0
C1424 C 0.61164 0.95432 0.92853 0.0
C1425 C 0.5973 0.93708 0.93564 0.0
C1426 C 0.61959 0.96939 0.9426 0.0
C1427 C 0.61352 0.96745 0.9641 0.0
C1428 C 0.59918 0.95028 0.97126 0.0
H1429 H 0.66784 0.04311 0.06948 0.0
H1430 H 0.65473 0.01734 0.04403 0.0
C1431 C 0.59113 0.93521 0.95715 0.0
C1432 C 0.62173 0.98347 0.97894 0.0
H1433 H 0.66246 0.01585 0.00149 0.0
C1434 C 0.6101 0.98922 0.98824 0.0
C1435 C 0.64079 0.99298 0.984 0.0
C1436 C 0.65377 0.98683 0.97543 0.0
C1437 C 0.61706 0.00436 0.00238 0.0
C1438 C 0.63622 0.01422 0.00691 0.0
C1439 C 0.64782 0.00838 -0.00225 0.0
C1440 C 0.64441 0.03015 0.02191 0.0
C1441 C 0.60378 0.00937 0.01272 0.0
C1442 C 0.6432 0.04602 0.01769 0.0
C1443 C 0.65059 0.06077 0.03231 0.0
C1444 C 0.65947 0.05992 0.05123 0.0
C1445 C 0.66106 0.04419 0.05508 0.0
C1446 C 0.65359 0.02944 0.04055 0.0
H1447 H 0.58929 0.99775 0.01195 0.0
H1448 H 0.60743 0.01338 0.02992 0.0
H1449 H 0.60445 0.0213 0.004 0.0
H1450 H 0.63653 0.04699 0.00312 0.0
H1451 H 0.64928 0.07277 0.02883 0.0
H1452 H 0.65274 0.57571 0.46217 0.0
H1453 H 0.63919 0.58879 0.48667 0.0
H1454 H 0.64872 0.63057 0.43931 0.0
H1455 H 0.66261 0.61791 0.41498 0.0
H1456 H 0.65972 0.64496 0.47952 0.0
H1457 H 0.58864 0.58455 0.48209 0.0
H1458 H 0.6062 0.57917 0.48949 0.0
H1459 H 0.60555 0.58668 0.46239 0.0
C1460 C 0.6519 0.58765 0.45697 0.0
C1461 C 0.65871 0.59576 0.43664 0.0
C1462 C 0.64404 0.59502 0.47091 0.0
C1463 C 0.64268 0.61045 0.46462 0.0
C1464 C 0.64957 0.6186 0.44441 0.0
H1465 H 0.57741 0.65158 0.52833 0.0
H1466 H 0.59024 0.63876 0.50242 0.0
C1467 C 0.65751 0.61134 0.43054 0.0
C1468 C 0.63463 0.61853 0.47932 0.0
H1469 H 0.5955 0.60881 0.50714 0.0
C1470 C 0.64565 0.63708 0.4855 0.0
C1471 C 0.61619 0.60829 0.4868 0.0
C1472 C 0.60338 0.58863 0.47971 0.0
C1473 C 0.63884 0.64562 0.49928 0.0
C1474 C 0.62065 0.63517 0.50745 0.0
C1475 C 0.6095 0.61671 0.50097 0.0
C1476 C 0.61302 0.64308 0.52298 0.0
C1477 C 0.65109 0.66581 0.50471 0.0
C1478 C 0.6215 0.64955 0.54315 0.0
C1479 C 0.6143 0.65695 0.55789 0.0
C1480 C 0.59835 0.65782 0.55282 0.0
C1481 C 0.58974 0.65114 0.53268 0.0
C1482 C 0.59702 0.6438 0.51789 0.0
H1483 H 0.66221 0.67297 0.4925 0.0
H1484 H 0.64297 0.67302 0.50574 0.0
H1485 H 0.65776 0.66704 0.52062 0.0
H1486 H 0.63362 0.64873 0.54758 0.0
H1487 H 0.62117 0.66184 0.57334 0.0
H1488 H 0.9287 0.62399 0.04145 0.0
H1489 H 0.95744 0.63952 0.02066 0.0
H1490 H 0.9591 0.58875 0.01829 0.0
H1491 H 0.93026 0.57304 0.0387 0.0
H1492 H 0.99081 0.64363 0.03402 0.0
H1493 H 0.96958 0.60619 0.9558 0.0
H1494 H 0.95308 0.60507 0.9755 0.0
H1495 H 0.96375 0.59109 0.97872 0.0
C1496 C 0.93501 0.61604 0.03618 0.0
C1497 C 0.92722 0.59729 0.04174 0.0
C1498 C 0.95144 0.62495 0.02436 0.0
C1499 C 0.96028 0.61523 0.01779 0.0
C1500 C 0.9523 0.59641 0.02284 0.0
H1501 H 0.06463 0.64167 0.96026 0.0
H1502 H 0.03538 0.62773 0.98007 0.0
C1503 C 0.93586 0.58747 0.0346 0.0
C1504 C 0.97852 0.62505 0.00706 0.0
H1505 H 0.00203 0.62467 0.96211 0.0
C1506 C 0.99325 0.63962 0.01821 0.0
C1507 C 0.98161 0.61973 0.98647 0.0
C1508 C 0.96613 0.60478 0.97332 0.0
C1509 C 0.01115 0.64871 0.00952 0.0
C1510 C 0.01428 0.64316 0.98911 0.0
C1511 C -0.00046 0.62875 0.97785 0.0
C1512 C 0.03275 0.6522 0.97898 0.0
C1513 C 0.02666 0.66387 0.02241 0.0
C1514 C 0.041 0.67063 0.97212 0.0
C1515 C 0.0577 0.67864 0.9608 0.0
C1516 C 0.06636 0.6683 0.9561 0.0
C1517 C 0.05833 0.65001 0.96365 0.0
C1518 C 0.04161 0.64201 0.9749 0.0
H1519 H 0.02277 0.66376 0.03962 0.0
H1520 H 0.03923 0.66253 0.02172 0.0
H1521 H 0.03019 0.67747 0.01537 0.0
H1522 H 0.03422 0.67862 0.9749 0.0
H1523 H 0.0635 0.69275 0.95518 0.0
H1524 H 0.30197 0.93386 0.5443 0.0
H1525 H 0.31531 0.96298 0.52431 0.0
H1526 H 0.36619 0.96213 0.51655 0.0
H1527 H 0.35305 0.93306 0.53662 0.0
H1528 H 0.36959 0.99548 0.53495 0.0
H1529 H 0.3282 0.97408 0.45909 0.0
H1530 H 0.31525 0.96677 0.4839 0.0
H1531 H 0.33006 0.95779 0.47663 0.0
C1532 C 0.3159 0.93969 0.53805 0.0
C1533 C 0.32648 0.93119 0.54211 0.0
C1534 C 0.32346 0.9563 0.52658 0.0
C1535 C 0.34167 0.96459 0.51893 0.0
C1536 C 0.35208 0.95587 0.52235 0.0
H1537 H 0.41884 0.06636 0.45666 0.0
H1538 H 0.40375 0.03785 0.47769 0.0
C1539 C 0.34453 0.93925 0.53375 0.0
C1540 C 0.35032 0.98299 0.50867 0.0
H1541 H 0.34846 0.00609 0.46416 0.0
C1542 C 0.36502 0.99784 0.51945 0.0
C1543 C 0.34414 0.98595 0.4886 0.0
C1544 C 0.32864 0.97031 0.47623 0.0
C1545 C 0.37376 0.0157 0.51066 0.0
C1546 C 0.36782 0.01861 0.49038 0.0
C1547 C 0.35294 0.00378 0.47974 0.0
C1548 C 0.37733 0.03674 0.47939 0.0
C1549 C 0.38908 0.03129 0.52329 0.0
C1550 C 0.36745 0.04553 0.47332 0.0
C1551 C 0.376 0.06178 0.46114 0.0
C1552 C 0.39455 0.06942 0.45473 0.0
C1553 C 0.40456 0.06087 0.46141 0.0
C1554 C 0.39598 0.04462 0.47353 0.0
H1555 H 0.38816 0.02801 0.54082 0.0
H1556 H 0.4026 0.03361 0.5173 0.0
H1557 H 0.38874 0.04434 0.52125 0.0
H1558 H 0.35301 0.0396 0.47765 0.0
H1559 H 0.36791 0.06803 0.45625 0.0
H1560 H 0.40422 0.32889 0.0263 0.0
H1561 H 0.38896 0.33969 0.00127 0.0
H1562 H 0.40892 0.38985 0.03838 0.0
H1563 H 0.42437 0.3793 0.06336 0.0
H1564 H 0.36138 0.34767 0.01425 0.0
H1565 H 0.42057 0.40848 0.97563 0.0
H1566 H 0.42307 0.39093 0.98976 0.0
H1567 H 0.42131 0.40846 0.00469 0.0
C1568 C 0.40563 0.34236 0.02893 0.0
C1569 C 0.41544 0.35322 0.04686 0.0
C1570 C 0.39689 0.34848 0.01464 0.0
C1571 C 0.39795 0.3656 0.01792 0.0
C1572 C 0.40821 0.37673 0.03538 0.0
H1573 H 0.34595 0.42266 0.96042 0.0
H1574 H 0.36317 0.41267 0.98343 0.0
C1575 C 0.41694 0.37062 0.0497 0.0
C1576 C 0.3871 0.37115 0.00417 0.0
H1577 H 0.39074 0.40474 0.96977 0.0
C1578 C 0.36778 0.36007 0.00439 0.0
C1579 C 0.39554 0.3874 0.9915 0.0
C1580 C 0.41627 0.39945 0.99017 0.0
C1581 C 0.3566 0.36498 0.99251 0.0
C1582 C 0.36503 0.38124 0.97984 0.0
C1583 C 0.38436 0.39231 0.97959 0.0
C1584 C 0.35404 0.38687 0.96646 0.0
C1585 C 0.33586 0.35297 0.994 0.0
C1586 C 0.34325 0.37564 0.94936 0.0
C1587 C 0.33336 0.38125 0.93625 0.0
C1588 C 0.33421 0.39827 0.93994 0.0
C1589 C 0.34495 0.40945 0.95721 0.0
C1590 C 0.35484 0.4038 0.97032 0.0
H1591 H 0.33162 0.34391 0.00851 0.0
H1592 H 0.3291 0.36152 0.99458 0.0
H1593 H 0.33071 0.34398 0.97948 0.0
H1594 H 0.34273 0.36267 0.94591 0.0
H1595 H 0.3253 0.37237 0.92301 0.0
H1596 H 0.0729 0.40442 0.52625 0.0
H1597 H 0.04528 0.38817 0.50366 0.0
H1598 H 0.01786 0.41034 0.54225 0.0
H1599 H 0.0454 0.42674 0.56485 0.0
H1600 H 0.00968 0.36151 0.52015 0.0
H1601 H 0.00878 0.42026 0.47905 0.0
H1602 H 0.02928 0.42246 0.4917 0.0
H1603 H 0.01132 0.42217 0.50797 0.0
C1604 C 0.0611 0.40606 0.52975 0.0
C1605 C 0.06131 0.41683 0.54737 0.0
C1606 C 0.04534 0.39674 0.51687 0.0
C1607 C 0.02964 0.39818 0.52126 0.0
C1608 C 0.02996 0.40928 0.53845 0.0
H1609 H 0.92006 0.34827 0.46455 0.0
H1610 H 0.94704 0.36481 0.48807 0.0
C1611 C 0.04568 0.41857 0.55139 0.0
C1612 C 0.01254 0.38716 0.50869 0.0
H1613 H 0.98245 0.3906 0.47438 0.0
C1614 C 0.00373 0.36783 0.51006 0.0
C1615 C 0.00483 0.39553 0.49575 0.0
C1616 C 0.01407 0.41624 0.49332 0.0
C1617 C 0.98722 0.35657 0.49892 0.0
C1618 C 0.97958 0.36493 0.48579 0.0
C1619 C 0.98835 0.38427 0.48453 0.0
C1620 C 0.96282 0.35387 0.47265 0.0
C1621 C 0.97794 0.33587 0.5016 0.0
C1622 C 0.96278 0.3422 0.45631 0.0
C1623 C 0.9474 0.33269 0.44292 0.0
C1624 C 0.93186 0.33484 0.44552 0.0
C1625 C 0.93181 0.3463 0.46216 0.0
C1626 C 0.94721 0.35579 0.47558 0.0
H1627 H 0.98252 0.33203 0.51663 0.0
H1628 H 0.96267 0.32951 0.50202 0.0
H1629 H 0.98162 0.32994 0.48768 0.0
H1630 H 0.97484 0.34083 0.45352 0.0
H1631 H 0.94791 0.32404 0.43018 0.0
H1632 H 0.5104 0.14443 0.11319 0.0
H1633 H 0.53668 0.14011 0.10641 0.0
H1634 H 0.50135 0.08908 0.0729 0.0
H1635 H 0.47467 0.09323 0.07965 0.0
H1636 H 0.52583 0.08757 0.10519 0.0
H1637 H 0.56301 0.14549 0.04776 0.0
H1638 H 0.55553 0.15212 0.07167 0.0
H1639 H 0.53862 0.13545 0.05343 0.0
C1640 C 0.50812 0.13229 0.1043 0.0
C1641 C 0.49039 0.1192 0.09692 0.0
C1642 C 0.52322 0.12992 0.10032 0.0
C1643 C 0.52098 0.11445 0.08886 0.0
C1644 C 0.50334 0.10121 0.0816 0.0
H1645 H 0.61481 0.09333 0.07893 0.0
H1646 H 0.584 0.08915 0.07202 0.0
C1647 C 0.48815 0.10362 0.08547 0.0
C1648 C 0.53718 0.11205 0.08544 0.0
H1649 H 0.58149 0.13519 0.06666 0.0
C1650 C 0.53788 0.09766 0.09631 0.0
C1651 C 0.55278 0.1252 0.07374 0.0
C1652 C 0.55243 0.14034 0.0608 0.0
C1653 C 0.55433 0.09697 0.0972 0.0
C1654 C 0.57029 0.11094 0.0868 0.0
C1655 C 0.56921 0.12457 0.07472 0.0
C1656 C 0.58874 0.1131 0.09057 0.0
C1657 C 0.55493 0.08211 0.11043 0.0
C1658 C 0.60154 0.12801 0.10308 0.0
C1659 C 0.61903 0.13044 0.10708 0.0
C1660 C 0.62416 0.11804 0.09851 0.0
C1661 C 0.6113 0.10312 0.0858 0.0
C1662 C 0.59369 0.10067 0.08188 0.0
H1663 H 0.54166 0.07314 0.11892 0.0
H1664 H 0.55797 0.07331 0.09967 0.0
H1665 H 0.56617 0.08846 0.12261 0.0
H1666 H 0.59793 0.13775 0.10991 0.0
H1667 H 0.62854 0.14211 0.11687 0.0
H1668 H 0.52034 0.61743 0.57787 0.0
H1669 H 0.49315 0.58715 0.57035 0.0
H1670 H 0.45821 0.60487 0.60093 0.0
H1671 H 0.48502 0.63495 0.60844 0.0
H1672 H 0.46753 0.56202 0.60191 0.0
H1673 H 0.43291 0.58382 0.54209 0.0
H1674 H 0.45719 0.59772 0.54855 0.0
H1675 H 0.44004 0.59803 0.5659 0.0
C1676 C 0.50684 0.61492 0.58284 0.0
C1677 C 0.50487 0.62864 0.59374 0.0
C1678 C 0.49136 0.59763 0.57853 0.0
C1679 C 0.47368 0.59393 0.58478 0.0
C1680 C 0.4717 0.60759 0.59559 0.0
H1681 H 0.36424 0.51561 0.60908 0.0
H1682 H 0.39515 0.54164 0.60288 0.0
C1683 C 0.48709 0.62476 0.60001 0.0
C1684 C 0.45721 0.57556 0.58123 0.0
H1685 H 0.41339 0.5553 0.56103 0.0
C1686 C 0.45581 0.56035 0.59254 0.0
C1687 C 0.44204 0.57349 0.5689 0.0
C1688 C 0.44315 0.5891 0.55549 0.0
C1689 C 0.43908 0.54347 0.59321 0.0
C1690 C 0.42355 0.54184 0.58209 0.0
C1691 C 0.42532 0.55668 0.56965 0.0
C1692 C 0.40485 0.52576 0.58525 0.0
C1693 C 0.43776 0.5279 0.60691 0.0
C1694 C 0.40007 0.50821 0.57723 0.0
C1695 C 0.38231 0.49319 0.58074 0.0
C1696 C 0.3691 0.49554 0.59234 0.0
C1697 C 0.37402 0.51324 0.60016 0.0
C1698 C 0.39168 0.52817 0.59659 0.0
H1699 H 0.45057 0.53211 0.61636 0.0
H1700 H 0.42593 0.52294 0.61829 0.0
H1701 H 0.43525 0.51614 0.59632 0.0
H1702 H 0.41003 0.50615 0.56825 0.0
H1703 H 0.37897 0.47977 0.57445 0.0
H1704 H 0.89317 0.37343 0.06656 0.0
H1705 H 0.89859 0.40473 0.05964 0.0
H1706 H 0.86851 0.4017 0.11764 0.0
H1707 H 0.86287 0.37057 0.12458 0.0
H1708 H 0.86741 0.41384 0.05709 0.0
H1709 H 0.9202 0.45215 0.12026 0.0
H1710 H 0.91639 0.43058 0.10883 0.0
H1711 H 0.9009 0.43057 0.12901 0.0
C1712 C 0.88784 0.3795 0.07791 0.0
C1713 C 0.87754 0.3695 0.0961 0.0
C1714 C 0.89093 0.39734 0.07391 0.0
C1715 C 0.88409 0.4055 0.08827 0.0
C1716 C 0.87406 0.39566 0.10653 0.0
H1717 H 0.84636 0.47979 0.09878 0.0
H1718 H 0.85222 0.45435 0.09246 0.0
C1719 C 0.87077 0.37783 0.11039 0.0
C1720 C 0.88638 0.4239 0.08392 0.0
H1721 H 0.90353 0.46654 0.1068 0.0
C1722 C 0.87564 0.42554 0.06759 0.0
C1723 C 0.89725 0.43912 0.09754 0.0
C1724 C 0.90949 0.43816 0.11481 0.0
C1725 C 0.87445 0.44165 0.06557 0.0
C1726 C 0.88418 0.45632 0.08033 0.0
C1727 C 0.89601 0.4552 0.09559 0.0
C1728 C 0.88049 0.47183 0.08202 0.0
C1729 C 0.86222 0.44258 0.04827 0.0
C1730 C 0.89452 0.4901 0.07833 0.0
C1731 C 0.8912 0.50475 0.08185 0.0
C1732 C 0.87389 0.50131 0.08954 0.0
C1733 C 0.85985 0.48293 0.09295 0.0
C1734 C 0.86312 0.46835 0.08918 0.0
H1735 H 0.85999 0.43289 0.03476 0.0
H1736 H 0.84855 0.43866 0.05539 0.0
H1737 H 0.86827 0.45681 0.04168 0.0
H1738 H 0.90808 0.49302 0.07301 0.0
H1739 H 0.90232 0.51876 0.07916 0.0
H1740 H 0.38008 0.90512 0.57507 0.0
H1741 H 0.41054 0.90902 0.56619 0.0
H1742 H 0.39501 0.85684 0.59666 0.0
H1743 H 0.36488 0.85282 0.60565 0.0
H1744 H 0.43692 0.90801 0.59806 0.0
H1745 H 0.41427 0.85398 0.53484 0.0
H1746 H 0.40099 0.86485 0.54222 0.0
H1747 H 0.39994 0.84654 0.55858 0.0
C1748 C 0.38315 0.89446 0.57979 0.0
C1749 C 0.37003 0.87866 0.59108 0.0
C1750 C 0.40052 0.89672 0.5747 0.0
C1751 C 0.40483 0.88308 0.58051 0.0
C1752 C 0.39179 0.86737 0.59174 0.0
H1753 H 0.479 0.84775 0.6021 0.0
H1754 H 0.45418 0.85428 0.59494 0.0
C1755 C 0.37461 0.86518 0.59699 0.0
C1756 C 0.42316 0.88522 0.57593 0.0
H1757 H 0.44264 0.86171 0.55342 0.0
C1758 C 0.43842 0.89829 0.58782 0.0
C1759 C 0.42498 0.87253 0.56249 0.0
C1760 C 0.40921 0.85878 0.54863 0.0
C1761 C 0.45505 0.89792 0.58809 0.0
C1762 C 0.45635 0.88424 0.57596 0.0
C1763 C 0.44154 0.87212 0.56278 0.0
C1764 C 0.4717 0.8805 0.57921 0.0
C1765 C 0.4706 0.91118 0.60257 0.0
C1766 C 0.48977 0.89303 0.5725 0.0
C1767 C 0.50411 0.88934 0.57658 0.0
C1768 C 0.50054 0.87306 0.58747 0.0
C1769 C 0.48231 0.86045 0.59379 0.0
C1770 C 0.46806 0.86413 0.58965 0.0
H1771 H 0.4667 0.91982 0.61246 0.0
H1772 H 0.47483 0.90346 0.61359 0.0
H1773 H 0.48275 0.92048 0.59252 0.0
H1774 H 0.49278 0.90566 0.56422 0.0
H1775 H 0.51798 0.89932 0.57145 0.0
H1776 H 0.61354 0.51573 0.07797 0.0
H1777 H 0.58176 0.48988 0.07423 0.0
H1778 H 0.59942 0.45196 0.09532 0.0
H1779 H 0.63101 0.47749 0.09917 0.0
H1780 H 0.57416 0.44134 0.05624 0.0
H1781 H 0.55029 0.46143 0.13042 0.0
H1782 H 0.56305 0.47872 0.11017 0.0
H1783 H 0.57445 0.46927 0.12576 0.0
C1784 C 0.61068 0.50186 0.08159 0.0
C1785 C 0.62478 0.49869 0.08903 0.0
C1786 C 0.59254 0.48715 0.07949 0.0
C1787 C 0.58832 0.4691 0.08463 0.0
C1788 C 0.60245 0.46583 0.0913 0.0
H1789 H 0.50411 0.36556 0.12447 0.0
H1790 H 0.53072 0.39612 0.1179 0.0
C1791 C 0.62049 0.48046 0.09357 0.0
C1792 C 0.56912 0.45353 0.08422 0.0
H1793 H 0.5299 0.43264 0.11486 0.0
C1794 C 0.56428 0.43957 0.06873 0.0
C1795 C 0.55643 0.45131 0.10069 0.0
C1796 C 0.56119 0.46589 0.11782 0.0
C1797 C 0.54727 0.42303 0.06981 0.0
C1798 C 0.53492 0.4205 0.08683 0.0
C1799 C 0.53944 0.43476 0.10179 0.0
C1800 C 0.51835 0.40235 0.09085 0.0
C1801 C 0.54296 0.40795 0.05354 0.0
C1802 C 0.50255 0.39589 0.07787 0.0
C1803 C 0.48721 0.37839 0.08161 0.0
C1804 C 0.48754 0.36709 0.09833 0.0
C1805 C 0.50339 0.37381 0.1114 0.0
C1806 C 0.51861 0.3913 0.10773 0.0
H1807 H 0.55446 0.41178 0.04191 0.0
H1808 H 0.54007 0.39505 0.06202 0.0
H1809 H 0.53035 0.40494 0.04432 0.0
H1810 H 0.50214 0.40432 0.06481 0.0
H1811 H 0.47522 0.37365 0.07126 0.0
H1812 H 0.09554 0.47555 0.57582 0.0
H1813 H 0.08969 0.50135 0.57103 0.0
H1814 H 0.14171 0.53814 0.60178 0.0
H1815 H 0.14773 0.5127 0.60658 0.0
H1816 H 0.08814 0.52446 0.60465 0.0
H1817 H 0.14319 0.56489 0.54497 0.0
H1818 H 0.13466 0.54062 0.54993 0.0
H1819 H 0.15149 0.55784 0.56778 0.0
C1820 C 0.10579 0.48917 0.58141 0.0
C1821 C 0.12213 0.49206 0.59155 0.0
C1822 C 0.10241 0.50386 0.57867 0.0
C1823 C 0.11541 0.52166 0.58574 0.0
C1824 C 0.13167 0.52456 0.59582 0.0
H1825 H 0.13725 0.62537 0.62252 0.0
H1826 H 0.13325 0.59507 0.61443 0.0
C1827 C 0.13502 0.50994 0.59868 0.0
C1828 C 0.11189 0.53727 0.58369 0.0
H1829 H 0.1324 0.58194 0.5662 0.0
C1830 C 0.09747 0.53688 0.59578 0.0
C1831 C 0.12404 0.55338 0.57198 0.0
C1832 C 0.1391 0.55418 0.55775 0.0
C1833 C 0.09582 0.55275 0.59782 0.0
C1834 C 0.10887 0.56922 0.58746 0.0
C1835 C 0.12248 0.56924 0.57419 0.0
C1836 C 0.11028 0.58713 0.5926 0.0
C1837 C 0.08098 0.55226 0.61217 0.0
C1838 C 0.09855 0.59258 0.58303 0.0
C1839 C 0.1008 0.61003 0.58758 0.0
C1840 C 0.11483 0.62221 0.60177 0.0
C1841 C 0.12632 0.61643 0.61151 0.0
C1842 C 0.12409 0.59911 0.60691 0.0
H1843 H 0.07169 0.53825 0.61885 0.0
H1844 H 0.08746 0.56209 0.62581 0.0
H1845 H 0.07256 0.55675 0.60285 0.0
H1846 H 0.08786 0.58346 0.57187 0.0
H1847 H 0.09172 0.61404 0.5798 0.0
H1848 H 0.84939 0.48276 0.39411 0.0
H1849 H 0.85556 0.45757 0.40068 0.0
H1850 H 0.91157 0.49681 0.419 0.0
H1851 H 0.90551 0.5223 0.41255 0.0
H1852 H 0.90713 0.47017 0.38593 0.0
H1853 H 0.86391 0.43673 0.45816 0.0
H1854 H 0.8521 0.44203 0.43757 0.0
H1855 H 0.8718 0.46051 0.45094 0.0
C1856 C 0.86298 0.48608 0.39975 0.0
C1857 C 0.87698 0.50455 0.40274 0.0
C1858 C 0.86643 0.47165 0.40367 0.0
C1859 C 0.88393 0.47535 0.41059 0.0
C1860 C 0.89792 0.49371 0.41387 0.0
H1861 H 0.89396 0.37556 0.42654 0.0
H1862 H 0.90039 0.40721 0.4335 0.0
C1863 C 0.89442 0.50822 0.41018 0.0
C1864 C 0.88777 0.45995 0.4124 0.0
H1865 H 0.87095 0.41745 0.43555 0.0
C1866 C 0.89961 0.45883 0.39713 0.0
C1867 C 0.87807 0.44529 0.42717 0.0
C1868 C 0.86589 0.44623 0.44455 0.0
C1869 C 0.90082 0.44274 0.39512 0.0
C1870 C 0.88988 0.42749 0.40866 0.0
C1871 C 0.87921 0.42916 0.42508 0.0
C1872 C 0.88734 0.409 0.4041 0.0
C1873 C 0.91311 0.44183 0.37787 0.0
C1874 C 0.87781 0.39963 0.38537 0.0
C1875 C 0.87394 0.38161 0.38148 0.0
C1876 C 0.8796 0.37261 0.39623 0.0
C1877 C 0.88949 0.38216 0.41483 0.0
C1878 C 0.89316 0.4002 0.41885 0.0
H1879 H 0.92416 0.45585 0.37298 0.0
H1880 H 0.91958 0.43376 0.38354 0.0
H1881 H 0.90466 0.43484 0.36335 0.0
H1882 H 0.87299 0.40614 0.37397 0.0
H1883 H 0.86637 0.37469 0.36696 0.0
H1884 H 0.52217 0.90619 0.91174 0.0
H1885 H 0.49803 0.91421 0.91822 0.0
H1886 H 0.45624 0.85845 0.90228 0.0
H1887 H 0.48008 0.85034 0.89573 0.0
H1888 H 0.47184 0.91081 0.88584 0.0
H1889 H 0.43707 0.86973 0.95887 0.0
H1890 H 0.46041 0.87592 0.95147 0.0
H1891 H 0.44102 0.85658 0.93873 0.0
C1892 C 0.50782 0.89558 0.90994 0.0
C1893 C 0.50304 0.87764 0.90314 0.0
C1894 C 0.49408 0.90019 0.91365 0.0
C1895 C 0.47538 0.88685 0.91102 0.0
C1896 C 0.47059 0.86885 0.9048 0.0
H1897 H 0.37752 0.87352 0.865 0.0
H1898 H 0.40881 0.87998 0.87256 0.0
C1899 C 0.48426 0.86428 0.90088 0.0
C1900 C 0.46076 0.89184 0.91263 0.0
H1901 H 0.4185 0.87721 0.93543 0.0
C1902 C 0.46039 0.90386 0.89705 0.0
C1903 C 0.44598 0.88296 0.92744 0.0
C1904 C 0.44619 0.87072 0.94523 0.0
C1905 C 0.44483 0.90595 0.8947 0.0
C1906 C 0.42933 0.89567 0.90818 0.0
C1907 C 0.43036 0.88495 0.92498 0.0
C1908 C 0.41113 0.89367 0.90309 0.0
C1909 C 0.44474 0.91844 0.87714 0.0
C1910 C 0.40203 0.89917 0.91785 0.0
C1911 C 0.38406 0.89554 0.91353 0.0
C1912 C 0.37485 0.88601 0.8946 0.0
C1913 C 0.38418 0.8808 0.87977 0.0
C1914 C 0.40213 0.88462 0.88396 0.0
H1915 H 0.459 0.92936 0.87289 0.0
H1916 H 0.43825 0.91011 0.86239 0.0
H1917 H 0.43666 0.92509 0.88215 0.0
H1918 H 0.40873 0.906 0.93281 0.0
H1919 H 0.37719 0.89965 0.9253 0.0
H1920 H 0.50922 0.36569 0.37003 0.0
H1921 H 0.53615 0.39639 0.37397 0.0
H1922 H 0.5066 0.41106 0.41968 0.0
H1923 H 0.4794 0.38014 0.41601 0.0
H1924 H 0.53728 0.43085 0.36574 0.0
H1925 H 0.55631 0.42463 0.45054 0.0
H1926 H 0.54132 0.40462 0.4344 0.0
H1927 H 0.53282 0.41887 0.4453 0.0
C1928 C 0.50837 0.37535 0.38102 0.0
C1929 C 0.49211 0.37039 0.39273 0.0
C1930 C 0.52381 0.39291 0.38322 0.0
C1931 C 0.52339 0.4059 0.39723 0.0
C1932 C 0.50725 0.40111 0.40899 0.0
H1933 H 0.62044 0.51731 0.41575 0.0
H1934 H 0.58871 0.49127 0.41888 0.0
C1935 C 0.49171 0.38348 0.40679 0.0
C1936 C 0.53989 0.42452 0.39888 0.0
H1937 H 0.5765 0.45178 0.43159 0.0
C1938 C 0.54573 0.43556 0.38023 0.0
C1939 C 0.55077 0.43063 0.41786 0.0
C1940 C 0.54514 0.4191 0.4382 0.0
C1941 C 0.56258 0.45223 0.37978 0.0
C1942 C 0.57395 0.45784 0.39836 0.0
C1943 C 0.5677 0.44735 0.41739 0.0
C1944 C 0.59315 0.47341 0.39742 0.0
C1945 C 0.56838 0.46347 0.35922 0.0
C1946 C 0.60611 0.47173 0.3847 0.0
C1947 C 0.62415 0.48643 0.38293 0.0
C1948 C 0.62963 0.50316 0.39386 0.0
C1949 C 0.61667 0.50466 0.40704 0.0
C1950 C 0.59856 0.48982 0.40888 0.0
H1951 H 0.55636 0.45999 0.34857 0.0
H1952 H 0.5756 0.4785 0.36286 0.0
H1953 H 0.57809 0.4605 0.35018 0.0
H1954 H 0.60221 0.45904 0.37596 0.0
H1955 H 0.63372 0.4847 0.3727 0.0
H1956 H 0.14028 0.51272 0.87903 0.0
H1957 H 0.13282 0.5371 0.8849 0.0
H1958 H 0.08453 0.49955 0.92146 0.0
H1959 H 0.09183 0.47478 0.91571 0.0
H1960 H 0.08969 0.52877 0.87544 0.0
H1961 H 0.12323 0.55411 0.95581 0.0
H1962 H 0.13311 0.54495 0.93691 0.0
H1963 H 0.1111 0.52981 0.94895 0.0
C1964 C 0.12809 0.50955 0.88841 0.0
C1965 C 0.11664 0.49173 0.89685 0.0
C1966 C 0.12388 0.52353 0.89174 0.0
C1967 C 0.10818 0.52004 0.9036 0.0
C1968 C 0.09674 0.50242 0.91229 0.0
H1969 H 0.09601 0.61799 0.92618 0.0
H1970 H 0.08892 0.58579 0.93 0.0
C1971 C 0.10095 0.48833 0.90897 0.0
C1972 C 0.1038 0.53499 0.90607 0.0
H1973 H 0.11593 0.5738 0.93583 0.0
C1974 C 0.09497 0.5384 0.88889 0.0
C1975 C 0.11063 0.54737 0.92371 0.0
C1976 C 0.12003 0.54398 0.94252 0.0
C1977 C 0.09388 0.5546 0.88822 0.0
C1978 C 0.10211 0.56777 0.90499 0.0
C1979 C 0.10968 0.56368 0.92298 0.0
C1980 C 0.10544 0.5868 0.90252 0.0
C1981 C 0.08468 0.55789 0.8691 0.0
C1982 C 0.11722 0.59798 0.88601 0.0
C1983 C 0.12139 0.61626 0.88388 0.0
C1984 C 0.11387 0.62382 0.89826 0.0
C1985 C 0.10196 0.61256 0.91479 0.0
C1986 C 0.0979 0.5942 0.91701 0.0
H1987 H 0.07424 0.54465 0.86159 0.0
H1988 H 0.07784 0.56584 0.8739 0.0
H1989 H 0.09528 0.56596 0.85668 0.0
H1990 H 0.12347 0.59262 0.87492 0.0
H1991 H 0.1306 0.62448 0.87095 0.0
H1992 H 0.62382 0.13858 0.37896 0.0
H1993 H 0.5933 0.13432 0.38607 0.0
H1994 H 0.57977 0.08651 0.42523 0.0
H1995 H 0.61061 0.09066 0.41829 0.0
H1996 H 0.55195 0.08393 0.39101 0.0
H1997 H 0.57625 0.14314 0.44759 0.0
H1998 H 0.58994 0.14807 0.42345 0.0
H1999 H 0.58912 0.1314 0.44248 0.0
C2000 C 0.61444 0.1271 0.38906 0.0
C2001 C 0.61974 0.11501 0.39813 0.0
C2002 C 0.597 0.12475 0.39316 0.0
C2003 C 0.58445 0.11026 0.40637 0.0
C2004 C 0.5894 0.09785 0.41511 0.0
H2005 H 0.47155 0.0942 0.41906 0.0
H2006 H 0.49723 0.08841 0.42544 0.0
C2007 C 0.60699 0.10026 0.41112 0.0
C2008 C 0.56621 0.10839 0.41063 0.0
H2009 H 0.54702 0.13313 0.43028 0.0
C2010 C 0.55065 0.09434 0.40008 0.0
C2011 C 0.56467 0.122 0.42253 0.0
C2012 C 0.58084 0.13693 0.43484 0.0
C2013 C 0.53387 0.09444 0.39971 0.0
C2014 C 0.53277 0.10887 0.4103 0.0
C2015 C 0.54797 0.12214 0.42211 0.0
C2016 C 0.51704 0.11198 0.40685 0.0
C2017 C 0.51787 0.07994 0.38677 0.0
C2018 C 0.51981 0.12722 0.39451 0.0
C2019 C 0.50529 0.13057 0.39084 0.0
C2020 C 0.48766 0.11879 0.39955 0.0
C2021 C 0.48494 0.10354 0.41209 0.0
C2022 C 0.49955 0.10016 0.4157 0.0
H2023 H 0.52146 0.0705 0.37812 0.0
H2024 H 0.50607 0.07158 0.39774 0.0
H2025 H 0.51324 0.08665 0.37474 0.0
H2026 H 0.53324 0.13649 0.38757 0.0
H2027 H 0.50795 0.14246 0.38116 0.0
H2028 H 0.4766 0.63088 0.89623 0.0
H2029 H 0.45061 0.59976 0.90182 0.0
H2030 H 0.48822 0.58061 0.919 0.0
H2031 H 0.51451 0.61193 0.91361 0.0
H2032 H 0.46122 0.56039 0.88435 0.0
H2033 H 0.42894 0.56884 0.95871 0.0
H2034 H 0.43526 0.58689 0.93906 0.0
H2035 H 0.45298 0.58407 0.95193 0.0
C2036 C 0.47939 0.62013 0.90146 0.0
C2037 C 0.49762 0.62386 0.90441 0.0
C2038 C 0.4645 0.60239 0.90479 0.0
C2039 C 0.46753 0.58799 0.91103 0.0
C2040 C 0.48566 0.59163 0.91437 0.0
H2041 H 0.36973 0.47639 0.92374 0.0
H2042 H 0.40096 0.50242 0.9304 0.0
C2043 C 0.50062 0.6095 0.91131 0.0
C2044 C 0.4517 0.56893 0.91206 0.0
H2045 H 0.40944 0.5431 0.93576 0.0
C2046 C 0.45007 0.55641 0.89589 0.0
C2047 C 0.43725 0.5638 0.9272 0.0
C2048 C 0.4387 0.57653 0.94535 0.0
C2049 C 0.43377 0.53934 0.89357 0.0
C2050 C 0.41885 0.53478 0.90777 0.0
C2051 C 0.42093 0.54674 0.92484 0.0
C2052 C 0.40036 0.51875 0.90361 0.0
C2053 C 0.43225 0.5266 0.87539 0.0
C2054 C 0.38978 0.5195 0.88647 0.0
C2055 C 0.37197 0.50484 0.88276 0.0
C2056 C 0.36443 0.48908 0.89607 0.0
C2057 C 0.37517 0.4883 0.91316 0.0
C2058 C 0.39297 0.50313 0.91701 0.0
H2059 H 0.44602 0.53017 0.86883 0.0
H2060 H 0.42508 0.512 0.88098 0.0
H2061 H 0.42394 0.52772 0.86208 0.0
H2062 H 0.39526 0.53155 0.8761 0.0
H2063 H 0.36413 0.50588 0.86942 0.0
loop_
_geom_bond_atom_site_label_1
_geom_bond_atom_site_label_2
_geom_bond_distance
_geom_bond_site_symmetry_2
_ccdc_geom_bond_type
Mg0 O1 2.028 . S
Mg0 O7 1.986 . S
Mg0 O9 2.114 . S
Mg0 O10 2.251 . S
Mg0 O13 2.010 . S
O1 Mg0 2.028 . S
O1 C4 1.250 . S
O2 Mg3 2.028 . S
O2 C4 1.248 . S
Mg3 O2 2.028 . S
Mg3 O8 2.032 . S
Mg3 O10 2.079 . S
C4 O1 1.250 . S
C4 O2 1.248 . S
C5 O6 1.264 . S
C5 O13 1.249 . S
O6 C5 1.264 . S
O7 Mg0 1.986 . S
O7 C11 1.246 . S
O8 Mg3 2.032 . S
O8 C11 1.259 . S
O9 Mg0 2.114 . S
O9 C12 1.252 . S
O10 Mg0 2.251 . S
O10 Mg3 2.079 . S
O10 C12 1.273 . S
C11 O7 1.246 . S
C11 O8 1.259 . S
C12 O9 1.252 . S
C12 O10 1.273 . S
O13 Mg0 2.010 . S
O13 C5 1.249 . S
Mg14 O15 2.028 . S
Mg14 O21 1.986 . S
Mg14 O23 2.114 . S
Mg14 O24 2.251 . S
Mg14 O27 2.010 . S
O15 Mg14 2.028 . S
O15 C18 1.250 . S
O16 Mg17 2.028 . S
O16 C18 1.248 . S
Mg17 O16 2.028 . S
Mg17 O22 2.032 . S
Mg17 O24 2.079 . S
C18 O15 1.250 . S
C18 O16 1.248 . S
C19 O20 1.264 . S
C19 O27 1.249 . S
O20 C19 1.264 . S
O21 Mg14 1.986 . S
O21 C25 1.246 . S
O22 Mg17 2.032 . S
O22 C25 1.259 . S
O23 Mg14 2.114 . S
O23 C26 1.252 . S
O24 Mg14 2.251 . S
O24 Mg17 2.079 . S
O24 C26 1.273 . S
C25 O21 1.246 . S
C25 O22 1.259 . S
C26 O23 1.252 . S
C26 O24 1.273 . S
O27 Mg14 2.010 . S
O27 C19 1.249 . S
Mg28 O29 2.028 . S
Mg28 O35 1.986 . S
Mg28 O37 2.114 . S
Mg28 O38 2.251 . S
Mg28 O41 2.010 . S
O29 Mg28 2.028 . S
O29 C32 1.250 . S
O30 Mg31 2.028 . S
O30 C32 1.248 . S
Mg31 O30 2.028 . S
Mg31 O36 2.032 . S
Mg31 O38 2.079 . S
C32 O29 1.250 . S
C32 O30 1.248 . S
C33 O34 1.264 . S
C33 O41 1.249 . S
O34 C33 1.264 . S
O35 Mg28 1.986 . S
O35 C39 1.246 . S
O36 Mg31 2.032 . S
O36 C39 1.259 . S
O37 Mg28 2.114 . S
O37 C40 1.252 . S
O38 Mg28 2.251 . S
O38 Mg31 2.079 . S
O38 C40 1.273 . S
C39 O35 1.246 . S
C39 O36 1.259 . S
C40 O37 1.252 . S
C40 O38 1.273 . S
O41 Mg28 2.010 . S
O41 C33 1.249 . S
Mg42 O43 2.028 . S
Mg42 O49 1.986 . S
Mg42 O51 2.114 . S
Mg42 O52 2.251 . S
Mg42 O55 2.010 . S
O43 Mg42 2.028 . S
O43 C46 1.250 . S
O44 Mg45 2.028 . S
O44 C46 1.248 . S
Mg45 O44 2.028 . S
Mg45 O50 2.032 . S
Mg45 O52 2.079 . S
C46 O43 1.250 . S
C46 O44 1.248 . S
C47 O48 1.264 . S
C47 O55 1.249 . S
O48 C47 1.264 . S
O49 Mg42 1.986 . S
O49 C53 1.246 . S
O50 Mg45 2.032 . S
O50 C53 1.259 . S
O51 Mg42 2.114 . S
O51 C54 1.252 . S
O52 Mg42 2.251 . S
O52 Mg45 2.079 . S
O52 C54 1.273 . S
C53 O49 1.246 . S
C53 O50 1.259 . S
C54 O51 1.252 . S
C54 O52 1.273 . S
O55 Mg42 2.010 . S
O55 C47 1.249 . S
Mg56 O57 2.028 . S
Mg56 O63 1.986 . S
Mg56 O65 2.114 . S
Mg56 O66 2.251 . S
Mg56 O69 2.010 . S
O57 Mg56 2.028 . S
O57 C60 1.250 . S
O58 Mg59 2.028 . S
O58 C60 1.248 . S
Mg59 O58 2.028 . S
Mg59 O64 2.032 . S
Mg59 O66 2.079 . S
C60 O57 1.250 . S
C60 O58 1.248 . S
C61 O62 1.264 . S
C61 O69 1.249 . S
O62 C61 1.264 . S
O63 Mg56 1.986 . S
O63 C67 1.246 . S
O64 Mg59 2.032 . S
O64 C67 1.259 . S
O65 Mg56 2.114 . S
O65 C68 1.252 . S
O66 Mg56 2.251 . S
O66 Mg59 2.079 . S
O66 C68 1.273 . S
C67 O63 1.246 . S
C67 O64 1.259 . S
C68 O65 1.252 . S
C68 O66 1.273 . S
O69 Mg56 2.010 . S
O69 C61 1.249 . S
Mg70 O71 2.028 . S
Mg70 O77 1.986 . S
Mg70 O79 2.114 . S
Mg70 O80 2.251 . S
Mg70 O83 2.010 . S
O71 Mg70 2.028 . S
O71 C74 1.250 . S
O72 Mg73 2.028 . S
O72 C74 1.248 . S
Mg73 O72 2.028 . S
Mg73 O78 2.032 . S
Mg73 O80 2.079 . S
C74 O71 1.250 . S
C74 O72 1.248 . S
C75 O76 1.264 . S
C75 O83 1.249 . S
O76 C75 1.264 . S
O77 Mg70 1.986 . S
O77 C81 1.246 . S
O78 Mg73 2.032 . S
O78 C81 1.259 . S
O79 Mg70 2.114 . S
O79 C82 1.252 . S
O80 Mg70 2.251 . S
O80 Mg73 2.079 . S
O80 C82 1.273 . S
C81 O77 1.246 . S
C81 O78 1.259 . S
C82 O79 1.252 . S
C82 O80 1.273 . S
O83 Mg70 2.010 . S
O83 C75 1.249 . S
Mg84 O85 2.028 . S
Mg84 O91 1.986 . S
Mg84 O93 2.114 . S
Mg84 O94 2.251 . S
Mg84 O97 2.010 . S
O85 Mg84 2.028 . S
O85 C88 1.250 . S
O86 Mg87 2.028 . S
O86 C88 1.248 . S
Mg87 O86 2.028 . S
Mg87 O92 2.032 . S
Mg87 O94 2.079 . S
C88 O85 1.250 . S
C88 O86 1.248 . S
C89 O90 1.264 . S
C89 O97 1.249 . S
O90 C89 1.264 . S
O91 Mg84 1.986 . S
O91 C95 1.246 . S
O92 Mg87 2.032 . S
O92 C95 1.259 . S
O93 Mg84 2.114 . S
O93 C96 1.252 . S
O94 Mg84 2.251 . S
O94 Mg87 2.079 . S
O94 C96 1.273 . S
C95 O91 1.246 . S
C95 O92 1.259 . S
C96 O93 1.252 . S
C96 O94 1.273 . S
O97 Mg84 2.010 . S
O97 C89 1.249 . S
Mg98 O99 2.028 . S
Mg98 O105 1.986 . S
Mg98 O107 2.114 . S
Mg98 O108 2.251 . S
Mg98 O111 2.010 . S
O99 Mg98 2.028 . S
O99 C102 1.250 . S
O100 Mg101 2.028 . S
O100 C102 1.248 . S
Mg101 O100 2.028 . S
Mg101 O106 2.032 . S
Mg101 O108 2.079 . S
C102 O99 1.250 . S
C102 O100 1.248 . S
C103 O104 1.264 . S
C103 O111 1.249 . S
O104 C103 1.264 . S
O105 Mg98 1.986 . S
O105 C109 1.246 . S
O106 Mg101 2.032 . S
O106 C109 1.259 . S
O107 Mg98 2.114 . S
O107 C110 1.252 . S
O108 Mg98 2.251 . S
O108 Mg101 2.079 . S
O108 C110 1.273 . S
C109 O105 1.246 . S
C109 O106 1.259 . S
C110 O107 1.252 . S
C110 O108 1.273 . S
O111 Mg98 2.010 . S
O111 C103 1.249 . S
Mg112 O113 2.028 . S
Mg112 O119 1.986 . S
Mg112 O121 2.114 . S
Mg112 O122 2.251 . S
Mg112 O125 2.010 . S
O113 Mg112 2.028 . S
O113 C116 1.250 . S
O114 Mg115 2.028 . S
O114 C116 1.248 . S
Mg115 O114 2.028 . S
Mg115 O120 2.032 . S
Mg115 O122 2.079 . S
C116 O113 1.250 . S
C116 O114 1.248 . S
C117 O118 1.264 . S
C117 O125 1.249 . S
O118 C117 1.264 . S
O119 Mg112 1.986 . S
O119 C123 1.246 . S
O120 Mg115 2.032 . S
O120 C123 1.259 . S
O121 Mg112 2.114 . S
O121 C124 1.252 . S
O122 Mg112 2.251 . S
O122 Mg115 2.079 . S
O122 C124 1.273 . S
C123 O119 1.246 . S
C123 O120 1.259 . S
C124 O121 1.252 . S
C124 O122 1.273 . S
O125 Mg112 2.010 . S
O125 C117 1.249 . S
Mg126 O127 2.028 . S
Mg126 O133 1.986 . S
Mg126 O135 2.114 . S
Mg126 O136 2.251 . S
Mg126 O139 2.010 . S
O127 Mg126 2.028 . S
O127 C130 1.250 . S
O128 Mg129 2.028 . S
O128 C130 1.248 . S
Mg129 O128 2.028 . S
Mg129 O134 2.032 . S
Mg129 O136 2.079 . S
C130 O127 1.250 . S
C130 O128 1.248 . S
C131 O132 1.264 . S
C131 O139 1.249 . S
O132 C131 1.264 . S
O133 Mg126 1.986 . S
O133 C137 1.246 . S
O134 Mg129 2.032 . S
O134 C137 1.259 . S
O135 Mg126 2.114 . S
O135 C138 1.252 . S
O136 Mg126 2.251 . S
O136 Mg129 2.079 . S
O136 C138 1.273 . S
C137 O133 1.246 . S
C137 O134 1.259 . S
C138 O135 1.252 . S
C138 O136 1.273 . S
O139 Mg126 2.010 . S
O139 C131 1.249 . S
Mg140 O141 2.028 . S
Mg140 O147 1.986 . S
Mg140 O149 2.114 . S
Mg140 O150 2.251 . S
Mg140 O153 2.010 . S
O141 Mg140 2.028 . S
O141 C144 1.250 . S
O142 Mg143 2.028 . S
O142 C144 1.248 . S
Mg143 O142 2.028 . S
Mg143 O148 2.032 . S
Mg143 O150 2.079 . S
C144 O141 1.250 . S
C144 O142 1.248 . S
C145 O146 1.264 . S
C145 O153 1.249 . S
O146 C145 1.264 . S
O147 Mg140 1.986 . S
O147 C151 1.246 . S
O148 Mg143 2.032 . S
O148 C151 1.259 . S
O149 Mg140 2.114 . S
O149 C152 1.252 . S
O150 Mg140 2.251 . S
O150 Mg143 2.079 . S
O150 C152 1.273 . S
C151 O147 1.246 . S
C151 O148 1.259 . S
C152 O149 1.252 . S
C152 O150 1.273 . S
O153 Mg140 2.010 . S
O153 C145 1.249 . S
Mg154 O155 2.028 . S
Mg154 O161 1.986 . S
Mg154 O163 2.114 . S
Mg154 O164 2.251 . S
Mg154 O167 2.010 . S
O155 Mg154 2.028 . S
O155 C158 1.250 . S
O156 Mg157 2.028 . S
O156 C158 1.248 . S
Mg157 O156 2.028 . S
Mg157 O162 2.032 . S
Mg157 O164 2.079 . S
C158 O155 1.250 . S
C158 O156 1.248 . S
C159 O160 1.264 . S
C159 O167 1.249 . S
O160 C159 1.264 . S
O161 Mg154 1.986 . S
O161 C165 1.246 . S
O162 Mg157 2.032 . S
O162 C165 1.259 . S
O163 Mg154 2.114 . S
O163 C166 1.252 . S
O164 Mg154 2.251 . S
O164 Mg157 2.079 . S
O164 C166 1.273 . S
C165 O161 1.246 . S
C165 O162 1.259 . S
C166 O163 1.252 . S
C166 O164 1.273 . S
O167 Mg154 2.010 . S
O167 C159 1.249 . S
Mg168 O169 2.028 . S
Mg168 O175 1.986 . S
Mg168 O177 2.114 . S
Mg168 O178 2.251 . S
Mg168 O181 2.010 . S
O169 Mg168 2.028 . S
O169 C172 1.250 . S
O170 Mg171 2.028 . S
O170 C172 1.248 . S
Mg171 O170 2.028 . S
Mg171 O176 2.032 . S
Mg171 O178 2.079 . S
C172 O169 1.250 . S
C172 O170 1.248 . S
C173 O174 1.264 . S
C173 O181 1.249 . S
O174 C173 1.264 . S
O175 Mg168 1.986 . S
O175 C179 1.246 . S
O176 Mg171 2.032 . S
O176 C179 1.259 . S
O177 Mg168 2.114 . S
O177 C180 1.252 . S
O178 Mg168 2.251 . S
O178 Mg171 2.079 . S
O178 C180 1.273 . S
C179 O175 1.246 . S
C179 O176 1.259 . S
C180 O177 1.252 . S
C180 O178 1.273 . S
O181 Mg168 2.010 . S
O181 C173 1.249 . S
Mg182 O183 2.028 . S
Mg182 O189 1.986 . S
Mg182 O191 2.114 . S
Mg182 O192 2.251 . S
Mg182 O195 2.010 . S
O183 Mg182 2.028 . S
O183 C186 1.250 . S
O184 Mg185 2.028 . S
O184 C186 1.248 . S
Mg185 O184 2.028 . S
Mg185 O190 2.032 . S
Mg185 O192 2.079 . S
C186 O183 1.250 . S
C186 O184 1.248 . S
C187 O188 1.264 . S
C187 O195 1.249 . S
O188 C187 1.264 . S
O189 Mg182 1.986 . S
O189 C193 1.246 . S
O190 Mg185 2.032 . S
O190 C193 1.259 . S
O191 Mg182 2.114 . S
O191 C194 1.252 . S
O192 Mg182 2.251 . S
O192 Mg185 2.079 . S
O192 C194 1.273 . S
C193 O189 1.246 . S
C193 O190 1.259 . S
C194 O191 1.252 . S
C194 O192 1.273 . S
O195 Mg182 2.010 . S
O195 C187 1.249 . S
Mg196 O197 2.028 . S
Mg196 O203 1.986 . S
Mg196 O205 2.114 . S
Mg196 O206 2.251 . S
Mg196 O209 2.010 . S
O197 Mg196 2.028 . S
O197 C200 1.250 . S
O198 Mg199 2.028 . S
O198 C200 1.248 . S
Mg199 O198 2.028 . S
Mg199 O204 2.032 . S
Mg199 O206 2.079 . S
C200 O197 1.250 . S
C200 O198 1.248 . S
C201 O202 1.264 . S
C201 O209 1.249 . S
O202 C201 1.264 . S
O203 Mg196 1.986 . S
O203 C207 1.246 . S
O204 Mg199 2.032 . S
O204 C207 1.259 . S
O205 Mg196 2.114 . S
O205 C208 1.252 . S
O206 Mg196 2.251 . S
O206 Mg199 2.079 . S
O206 C208 1.273 . S
C207 O203 1.246 . S
C207 O204 1.259 . S
C208 O205 1.252 . S
C208 O206 1.273 . S
O209 Mg196 2.010 . S
O209 C201 1.249 . S
Mg210 O211 2.028 . S
Mg210 O217 1.986 . S
Mg210 O219 2.114 . S
Mg210 O220 2.251 . S
Mg210 O223 2.010 . S
O211 Mg210 2.028 . S
O211 C214 1.250 . S
O212 Mg213 2.028 . S
O212 C214 1.248 . S
Mg213 O212 2.028 . S
Mg213 O218 2.032 . S
Mg213 O220 2.079 . S
C214 O211 1.250 . S
C214 O212 1.248 . S
C215 O216 1.264 . S
C215 O223 1.249 . S
O216 C215 1.264 . S
O217 Mg210 1.986 . S
O217 C221 1.246 . S
O218 Mg213 2.032 . S
O218 C221 1.259 . S
O219 Mg210 2.114 . S
O219 C222 1.252 . S
O220 Mg210 2.251 . S
O220 Mg213 2.079 . S
O220 C222 1.273 . S
C221 O217 1.246 . S
C221 O218 1.259 . S
C222 O219 1.252 . S
C222 O220 1.273 . S
O223 Mg210 2.010 . S
O223 C215 1.249 . S
Mg224 O225 2.028 . S
Mg224 O231 1.986 . S
Mg224 O233 2.114 . S
Mg224 O234 2.251 . S
Mg224 O237 2.010 . S
O225 Mg224 2.028 . S
O225 C228 1.250 . S
O226 Mg227 2.028 . S
O226 C228 1.248 . S
Mg227 O226 2.028 . S
Mg227 O232 2.032 . S
Mg227 O234 2.079 . S
C228 O225 1.250 . S
C228 O226 1.248 . S
C229 O230 1.264 . S
C229 O237 1.249 . S
O230 C229 1.264 . S
O231 Mg224 1.986 . S
O231 C235 1.246 . S
O232 Mg227 2.032 . S
O232 C235 1.259 . S
O233 Mg224 2.114 . S
O233 C236 1.252 . S
O234 Mg224 2.251 . S
O234 Mg227 2.079 . S
O234 C236 1.273 . S
C235 O231 1.246 . S
C235 O232 1.259 . S
C236 O233 1.252 . S
C236 O234 1.273 . S
O237 Mg224 2.010 . S
O237 C229 1.249 . S
Mg238 O239 2.028 . S
Mg238 O245 1.986 . S
Mg238 O247 2.114 . S
Mg238 O248 2.251 . S
Mg238 O251 2.010 . S
O239 Mg238 2.028 . S
O239 C242 1.250 . S
O240 Mg241 2.028 . S
O240 C242 1.248 . S
Mg241 O240 2.028 . S
Mg241 O246 2.032 . S
Mg241 O248 2.079 . S
C242 O239 1.250 . S
C242 O240 1.248 . S
C243 O244 1.264 . S
C243 O251 1.249 . S
O244 C243 1.264 . S
O245 Mg238 1.986 . S
O245 C249 1.246 . S
O246 Mg241 2.032 . S
O246 C249 1.259 . S
O247 Mg238 2.114 . S
O247 C250 1.252 . S
O248 Mg238 2.251 . S
O248 Mg241 2.079 . S
O248 C250 1.273 . S
C249 O245 1.246 . S
C249 O246 1.259 . S
C250 O247 1.252 . S
C250 O248 1.273 . S
O251 Mg238 2.010 . S
O251 C243 1.249 . S
Mg252 O253 2.028 . S
Mg252 O259 1.986 . S
Mg252 O261 2.114 . S
Mg252 O262 2.251 . S
Mg252 O265 2.010 . S
O253 Mg252 2.028 . S
O253 C256 1.250 . S
O254 Mg255 2.028 . S
O254 C256 1.248 . S
Mg255 O254 2.028 . S
Mg255 O260 2.032 . S
Mg255 O262 2.079 . S
C256 O253 1.250 . S
C256 O254 1.248 . S
C257 O258 1.264 . S
C257 O265 1.249 . S
O258 C257 1.264 . S
O259 Mg252 1.986 . S
O259 C263 1.246 . S
O260 Mg255 2.032 . S
O260 C263 1.259 . S
O261 Mg252 2.114 . S
O261 C264 1.252 . S
O262 Mg252 2.251 . S
O262 Mg255 2.079 . S
O262 C264 1.273 . S
C263 O259 1.246 . S
C263 O260 1.259 . S
C264 O261 1.252 . S
C264 O262 1.273 . S
O265 Mg252 2.010 . S
O265 C257 1.249 . S
Mg266 O267 2.028 . S
Mg266 O273 1.986 . S
Mg266 O275 2.114 . S
Mg266 O276 2.251 . S
Mg266 O279 2.010 . S
O267 Mg266 2.028 . S
O267 C270 1.250 . S
O268 Mg269 2.028 . S
O268 C270 1.248 . S
Mg269 O268 2.028 . S
Mg269 O274 2.032 . S
Mg269 O276 2.079 . S
C270 O267 1.250 . S
C270 O268 1.248 . S
C271 O272 1.264 . S
C271 O279 1.249 . S
O272 C271 1.264 . S
O273 Mg266 1.986 . S
O273 C277 1.246 . S
O274 Mg269 2.032 . S
O274 C277 1.259 . S
O275 Mg266 2.114 . S
O275 C278 1.252 . S
O276 Mg266 2.251 . S
O276 Mg269 2.079 . S
O276 C278 1.273 . S
C277 O273 1.246 . S
C277 O274 1.259 . S
C278 O275 1.252 . S
C278 O276 1.273 . S
O279 Mg266 2.010 . S
O279 C271 1.249 . S
Mg280 O281 2.028 . S
Mg280 O287 1.986 . S
Mg280 O289 2.114 . S
Mg280 O290 2.251 . S
Mg280 O293 2.010 . S
O281 Mg280 2.028 . S
O281 C284 1.250 . S
O282 Mg283 2.028 . S
O282 C284 1.248 . S
Mg283 O282 2.028 . S
Mg283 O288 2.032 . S
Mg283 O290 2.079 . S
C284 O281 1.250 . S
C284 O282 1.248 . S
C285 O286 1.264 . S
C285 O293 1.249 . S
O286 C285 1.264 . S
O287 Mg280 1.986 . S
O287 C291 1.246 . S
O288 Mg283 2.032 . S
O288 C291 1.259 . S
O289 Mg280 2.114 . S
O289 C292 1.252 . S
O290 Mg280 2.251 . S
O290 Mg283 2.079 . S
O290 C292 1.273 . S
C291 O287 1.246 . S
C291 O288 1.259 . S
C292 O289 1.252 . S
C292 O290 1.273 . S
O293 Mg280 2.010 . S
O293 C285 1.249 . S
Mg294 O295 2.028 . S
Mg294 O301 1.986 . S
Mg294 O303 2.114 . S
Mg294 O304 2.251 . S
Mg294 O307 2.010 . S
O295 Mg294 2.028 . S
O295 C298 1.250 . S
O296 Mg297 2.028 . S
O296 C298 1.248 . S
Mg297 O296 2.028 . S
Mg297 O302 2.032 . S
Mg297 O304 2.079 . S
C298 O295 1.250 . S
C298 O296 1.248 . S
C299 O300 1.264 . S
C299 O307 1.249 . S
O300 C299 1.264 . S
O301 Mg294 1.986 . S
O301 C305 1.246 . S
O302 Mg297 2.032 . S
O302 C305 1.259 . S
O303 Mg294 2.114 . S
O303 C306 1.252 . S
O304 Mg294 2.251 . S
O304 Mg297 2.079 . S
O304 C306 1.273 . S
C305 O301 1.246 . S
C305 O302 1.259 . S
C306 O303 1.252 . S
C306 O304 1.273 . S
O307 Mg294 2.010 . S
O307 C299 1.249 . S
Mg308 O309 2.028 . S
Mg308 O315 1.986 . S
Mg308 O317 2.114 . S
Mg308 O318 2.251 . S
Mg308 O321 2.010 . S
O309 Mg308 2.028 . S
O309 C312 1.250 . S
O310 Mg311 2.028 . S
O310 C312 1.248 . S
Mg311 O310 2.028 . S
Mg311 O316 2.032 . S
Mg311 O318 2.079 . S
C312 O309 1.250 . S
C312 O310 1.248 . S
C313 O314 1.264 . S
C313 O321 1.249 . S
O314 C313 1.264 . S
O315 Mg308 1.986 . S
O315 C319 1.246 . S
O316 Mg311 2.032 . S
O316 C319 1.259 . S
O317 Mg308 2.114 . S
O317 C320 1.252 . S
O318 Mg308 2.251 . S
O318 Mg311 2.079 . S
O318 C320 1.273 . S
C319 O315 1.246 . S
C319 O316 1.259 . S
C320 O317 1.252 . S
C320 O318 1.273 . S
O321 Mg308 2.010 . S
O321 C313 1.249 . S
Mg322 O323 2.028 . S
Mg322 O329 1.986 . S
Mg322 O331 2.114 . S
Mg322 O332 2.251 . S
Mg322 O335 2.010 . S
O323 Mg322 2.028 . S
O323 C326 1.250 . S
O324 Mg325 2.028 . S
O324 C326 1.248 . S
Mg325 O324 2.028 . S
Mg325 O330 2.032 . S
Mg325 O332 2.079 . S
C326 O323 1.250 . S
C326 O324 1.248 . S
C327 O328 1.264 . S
C327 O335 1.249 . S
O328 C327 1.264 . S
O329 Mg322 1.986 . S
O329 C333 1.246 . S
O330 Mg325 2.032 . S
O330 C333 1.259 . S
O331 Mg322 2.114 . S
O331 C334 1.252 . S
O332 Mg322 2.251 . S
O332 Mg325 2.079 . S
O332 C334 1.273 . S
C333 O329 1.246 . S
C333 O330 1.259 . S
C334 O331 1.252 . S
C334 O332 1.273 . S
O335 Mg322 2.010 . S
O335 C327 1.249 . S
H336 C344 0.929 . S
H337 C346 0.930 . S
H338 C348 0.930 . S
H339 C351 0.929 . S
H340 C354 0.930 . S
H341 C356 0.960 . S
H342 C356 0.960 . S
H343 C356 0.960 . S
C344 H336 0.929 . S
C344 C345 1.377 . S
C344 C346 1.384 . S
C345 C344 1.377 . S
C345 C351 1.390 . S
C346 H337 0.930 . S
C346 C344 1.384 . S
C346 C347 1.372 . S
C347 C346 1.372 . S
C347 C348 1.400 . S
C347 C352 1.490 . S
C348 H338 0.930 . S
C348 C347 1.400 . S
C348 C351 1.386 . S
H349 C365 0.930 . S
H350 C366 0.931 . S
C351 H339 0.929 . S
C351 C345 1.390 . S
C351 C348 1.386 . S
C352 C347 1.490 . S
C352 C354 1.395 . S
C352 C355 1.403 . S
H353 C359 0.930 . S
C354 H340 0.930 . S
C354 C352 1.395 . S
C354 C357 1.403 . S
C355 C352 1.403 . S
C355 C356 1.524 . S
C355 C359 1.400 . S
C356 H341 0.960 . S
C356 H342 0.960 . S
C356 H343 0.960 . S
C356 C355 1.524 . S
C357 C354 1.403 . S
C357 C358 1.392 . S
C357 C361 1.495 . S
C358 C357 1.392 . S
C358 C359 1.385 . S
C358 C360 1.478 . S
C359 H353 0.930 . S
C359 C355 1.400 . S
C359 C358 1.385 . S
C360 C358 1.478 . S
C360 C362 1.381 . S
C360 C366 1.383 . S
C361 C357 1.495 . S
C361 H367 0.959 . S
C361 H368 0.961 . S
C361 H369 0.960 . S
C362 C360 1.381 . S
C362 C363 1.394 . S
C362 H370 0.930 . S
C363 C362 1.394 . S
C363 C364 1.383 . S
C363 H371 0.929 . S
C364 C363 1.383 . S
C364 C365 1.377 . S
C365 H349 0.930 . S
C365 C364 1.377 . S
C365 C366 1.379 . S
C366 H350 0.931 . S
C366 C360 1.383 . S
C366 C365 1.379 . S
H367 C361 0.959 . S
H368 C361 0.961 . S
H369 C361 0.960 . S
H370 C362 0.930 . S
H371 C363 0.929 . S
H372 C380 0.929 . S
H373 C382 0.930 . S
H374 C384 0.930 . S
H375 C387 0.929 . S
H376 C390 0.930 . S
H377 C392 0.960 . S
H378 C392 0.960 . S
H379 C392 0.960 . S
C380 H372 0.929 . S
C380 C381 1.377 . S
C380 C382 1.384 . S
C381 C380 1.377 . S
C381 C387 1.390 . S
C382 H373 0.930 . S
C382 C380 1.384 . S
C382 C383 1.372 . S
C383 C382 1.372 . S
C383 C384 1.400 . S
C383 C388 1.490 . S
C384 H374 0.930 . S
C384 C383 1.400 . S
C384 C387 1.386 . S
H385 C401 0.930 . S
H386 C402 0.931 . S
C387 H375 0.929 . S
C387 C381 1.390 . S
C387 C384 1.386 . S
C388 C383 1.490 . S
C388 C390 1.395 . S
C388 C391 1.403 . S
H389 C395 0.930 . S
C390 H376 0.930 . S
C390 C388 1.395 . S
C390 C393 1.403 . S
C391 C388 1.403 . S
C391 C392 1.524 . S
C391 C395 1.400 . S
C392 H377 0.960 . S
C392 H378 0.960 . S
C392 H379 0.960 . S
C392 C391 1.524 . S
C393 C390 1.403 . S
C393 C394 1.392 . S
C393 C397 1.495 . S
C394 C393 1.392 . S
C394 C395 1.385 . S
C394 C396 1.478 . S
C395 H389 0.930 . S
C395 C391 1.400 . S
C395 C394 1.385 . S
C396 C394 1.478 . S
C396 C398 1.381 . S
C396 C402 1.383 . S
C397 C393 1.495 . S
C397 H403 0.959 . S
C397 H404 0.961 . S
C397 H405 0.960 . S
C398 C396 1.381 . S
C398 C399 1.394 . S
C398 H406 0.930 . S
C399 C398 1.394 . S
C399 C400 1.383 . S
C399 H407 0.929 . S
C400 C399 1.383 . S
C400 C401 1.377 . S
C401 H385 0.930 . S
C401 C400 1.377 . S
C401 C402 1.379 . S
C402 H386 0.931 . S
C402 C396 1.383 . S
C402 C401 1.379 . S
H403 C397 0.959 . S
H404 C397 0.961 . S
H405 C397 0.960 . S
H406 C398 0.930 . S
H407 C399 0.929 . S
H408 C416 0.929 . S
H409 C418 0.930 . S
H410 C420 0.930 . S
H411 C423 0.929 . S
H412 C426 0.930 . S
H413 C428 0.960 . S
H414 C428 0.960 . S
H415 C428 0.960 . S
C416 H408 0.929 . S
C416 C417 1.377 . S
C416 C418 1.384 . S
C417 C416 1.377 . S
C417 C423 1.390 . S
C418 H409 0.930 . S
C418 C416 1.384 . S
C418 C419 1.372 . S
C419 C418 1.372 . S
C419 C420 1.400 . S
C419 C424 1.490 . S
C420 H410 0.930 . S
C420 C419 1.400 . S
C420 C423 1.386 . S
H421 C437 0.930 . S
H422 C438 0.931 . S
C423 H411 0.929 . S
C423 C417 1.390 . S
C423 C420 1.386 . S
C424 C419 1.490 . S
C424 C426 1.395 . S
C424 C427 1.403 . S
H425 C431 0.930 . S
C426 H412 0.930 . S
C426 C424 1.395 . S
C426 C429 1.403 . S
C427 C424 1.403 . S
C427 C428 1.524 . S
C427 C431 1.400 . S
C428 H413 0.960 . S
C428 H414 0.960 . S
C428 H415 0.960 . S
C428 C427 1.524 . S
C429 C426 1.403 . S
C429 C430 1.392 . S
C429 C433 1.495 . S
C430 C429 1.392 . S
C430 C431 1.385 . S
C430 C432 1.478 . S
C431 H425 0.930 . S
C431 C427 1.400 . S
C431 C430 1.385 . S
C432 C430 1.478 . S
C432 C434 1.381 . S
C432 C438 1.383 . S
C433 C429 1.495 . S
C433 H439 0.959 . S
C433 H440 0.961 . S
C433 H441 0.960 . S
C434 C432 1.381 . S
C434 C435 1.394 . S
C434 H442 0.930 . S
C435 C434 1.394 . S
C435 C436 1.383 . S
C435 H443 0.929 . S
C436 C435 1.383 . S
C436 C437 1.377 . S
C437 H421 0.930 . S
C437 C436 1.377 . S
C437 C438 1.379 . S
C438 H422 0.931 . S
C438 C432 1.383 . S
C438 C437 1.379 . S
H439 C433 0.959 . S
H440 C433 0.961 . S
H441 C433 0.960 . S
H442 C434 0.930 . S
H443 C435 0.929 . S
H444 C452 0.929 . S
H445 C454 0.930 . S
H446 C456 0.930 . S
H447 C459 0.929 . S
H448 C462 0.930 . S
H449 C464 0.960 . S
H450 C464 0.960 . S
H451 C464 0.960 . S
C452 H444 0.929 . S
C452 C453 1.377 . S
C452 C454 1.384 . S
C453 C452 1.377 . S
C453 C459 1.390 . S
C454 H445 0.930 . S
C454 C452 1.384 . S
C454 C455 1.372 . S
C455 C454 1.372 . S
C455 C456 1.400 . S
C455 C460 1.490 . S
C456 H446 0.930 . S
C456 C455 1.400 . S
C456 C459 1.386 . S
H457 C473 0.930 . S
H458 C474 0.931 . S
C459 H447 0.929 . S
C459 C453 1.390 . S
C459 C456 1.386 . S
C460 C455 1.490 . S
C460 C462 1.395 . S
C460 C463 1.403 . S
H461 C467 0.930 . S
C462 H448 0.930 . S
C462 C460 1.395 . S
C462 C465 1.403 . S
C463 C460 1.403 . S
C463 C464 1.524 . S
C463 C467 1.400 . S
C464 H449 0.960 . S
C464 H450 0.960 . S
C464 H451 0.960 . S
C464 C463 1.524 . S
C465 C462 1.403 . S
C465 C466 1.392 . S
C465 C469 1.495 . S
C466 C465 1.392 . S
C466 C467 1.385 . S
C466 C468 1.478 . S
C467 H461 0.930 . S
C467 C463 1.400 . S
C467 C466 1.385 . S
C468 C466 1.478 . S
C468 C470 1.381 . S
C468 C474 1.383 . S
C469 C465 1.495 . S
C469 H475 0.959 . S
C469 H476 0.961 . S
C469 H477 0.960 . S
C470 C468 1.381 . S
C470 C471 1.394 . S
C470 H478 0.930 . S
C471 C470 1.394 . S
C471 C472 1.383 . S
C471 H479 0.929 . S
C472 C471 1.383 . S
C472 C473 1.377 . S
C473 H457 0.930 . S
C473 C472 1.377 . S
C473 C474 1.379 . S
C474 H458 0.931 . S
C474 C468 1.383 . S
C474 C473 1.379 . S
H475 C469 0.959 . S
H476 C469 0.961 . S
H477 C469 0.960 . S
H478 C470 0.930 . S
H479 C471 0.929 . S
H480 C488 0.929 . S
H481 C490 0.930 . S
H482 C492 0.930 . S
H483 C495 0.929 . S
H484 C498 0.930 . S
H485 C500 0.960 . S
H486 C500 0.960 . S
H487 C500 0.960 . S
C488 H480 0.929 . S
C488 C489 1.377 . S
C488 C490 1.384 . S
C489 C488 1.377 . S
C489 C495 1.390 . S
C490 H481 0.930 . S
C490 C488 1.384 . S
C490 C491 1.372 . S
C491 C490 1.372 . S
C491 C492 1.400 . S
C491 C496 1.490 . S
C492 H482 0.930 . S
C492 C491 1.400 . S
C492 C495 1.386 . S
H493 C509 0.930 . S
H494 C510 0.931 . S
C495 H483 0.929 . S
C495 C489 1.390 . S
C495 C492 1.386 . S
C496 C491 1.490 . S
C496 C498 1.395 . S
C496 C499 1.403 . S
H497 C503 0.930 . S
C498 H484 0.930 . S
C498 C496 1.395 . S
C498 C501 1.403 . S
C499 C496 1.403 . S
C499 C500 1.524 . S
C499 C503 1.400 . S
C500 H485 0.960 . S
C500 H486 0.960 . S
C500 H487 0.960 . S
C500 C499 1.524 . S
C501 C498 1.403 . S
C501 C502 1.392 . S
C501 C505 1.495 . S
C502 C501 1.392 . S
C502 C503 1.385 . S
C502 C504 1.478 . S
C503 H497 0.930 . S
C503 C499 1.400 . S
C503 C502 1.385 . S
C504 C502 1.478 . S
C504 C506 1.381 . S
C504 C510 1.383 . S
C505 C501 1.495 . S
C505 H511 0.959 . S
C505 H512 0.961 . S
C505 H513 0.960 . S
C506 C504 1.381 . S
C506 C507 1.394 . S
C506 H514 0.930 . S
C507 C506 1.394 . S
C507 C508 1.383 . S
C507 H515 0.929 . S
C508 C507 1.383 . S
C508 C509 1.377 . S
C509 H493 0.930 . S
C509 C508 1.377 . S
C509 C510 1.379 . S
C510 H494 0.931 . S
C510 C504 1.383 . S
C510 C509 1.379 . S
H511 C505 0.959 . S
H512 C505 0.961 . S
H513 C505 0.960 . S
H514 C506 0.930 . S
H515 C507 0.929 . S
H516 C524 0.929 . S
H517 C526 0.930 . S
H518 C528 0.930 . S
H519 C531 0.929 . S
H520 C534 0.930 . S
H521 C536 0.960 . S
H522 C536 0.960 . S
H523 C536 0.960 . S
C524 H516 0.929 . S
C524 C525 1.377 . S
C524 C526 1.384 . S
C525 C524 1.377 . S
C525 C531 1.390 . S
C526 H517 0.930 . S
C526 C524 1.384 . S
C526 C527 1.372 . S
C527 C526 1.372 . S
C527 C528 1.400 . S
C527 C532 1.490 . S
C528 H518 0.930 . S
C528 C527 1.400 . S
C528 C531 1.386 . S
H529 C545 0.930 . S
H530 C546 0.931 . S
C531 H519 0.929 . S
C531 C525 1.390 . S
C531 C528 1.386 . S
C532 C527 1.490 . S
C532 C534 1.395 . S
C532 C535 1.403 . S
H533 C539 0.930 . S
C534 H520 0.930 . S
C534 C532 1.395 . S
C534 C537 1.403 . S
C535 C532 1.403 . S
C535 C536 1.524 . S
C535 C539 1.400 . S
C536 H521 0.960 . S
C536 H522 0.960 . S
C536 H523 0.960 . S
C536 C535 1.524 . S
C537 C534 1.403 . S
C537 C538 1.392 . S
C537 C541 1.495 . S
C538 C537 1.392 . S
C538 C539 1.385 . S
C538 C540 1.478 . S
C539 H533 0.930 . S
C539 C535 1.400 . S
C539 C538 1.385 . S
C540 C538 1.478 . S
C540 C542 1.381 . S
C540 C546 1.383 . S
C541 C537 1.495 . S
C541 H547 0.959 . S
C541 H548 0.961 . S
C541 H549 0.960 . S
C542 C540 1.381 . S
C542 C543 1.394 . S
C542 H550 0.930 . S
C543 C542 1.394 . S
C543 C544 1.383 . S
C543 H551 0.929 . S
C544 C543 1.383 . S
C544 C545 1.377 . S
C545 H529 0.930 . S
C545 C544 1.377 . S
C545 C546 1.379 . S
C546 H530 0.931 . S
C546 C540 1.383 . S
C546 C545 1.379 . S
H547 C541 0.959 . S
H548 C541 0.961 . S
H549 C541 0.960 . S
H550 C542 0.930 . S
H551 C543 0.929 . S
H552 C560 0.929 . S
H553 C562 0.930 . S
H554 C564 0.930 . S
H555 C567 0.929 . S
H556 C570 0.930 . S
H557 C572 0.960 . S
H558 C572 0.960 . S
H559 C572 0.960 . S
C560 H552 0.929 . S
C560 C561 1.377 . S
C560 C562 1.384 . S
C561 C560 1.377 . S
C561 C567 1.390 . S
C562 H553 0.930 . S
C562 C560 1.384 . S
C562 C563 1.372 . S
C563 C562 1.372 . S
C563 C564 1.400 . S
C563 C568 1.490 . S
C564 H554 0.930 . S
C564 C563 1.400 . S
C564 C567 1.386 . S
H565 C581 0.930 . S
H566 C582 0.931 . S
C567 H555 0.929 . S
C567 C561 1.390 . S
C567 C564 1.386 . S
C568 C563 1.490 . S
C568 C570 1.395 . S
C568 C571 1.403 . S
H569 C575 0.930 . S
C570 H556 0.930 . S
C570 C568 1.395 . S
C570 C573 1.403 . S
C571 C568 1.403 . S
C571 C572 1.524 . S
C571 C575 1.400 . S
C572 H557 0.960 . S
C572 H558 0.960 . S
C572 H559 0.960 . S
C572 C571 1.524 . S
C573 C570 1.403 . S
C573 C574 1.392 . S
C573 C577 1.495 . S
C574 C573 1.392 . S
C574 C575 1.385 . S
C574 C576 1.478 . S
C575 H569 0.930 . S
C575 C571 1.400 . S
C575 C574 1.385 . S
C576 C574 1.478 . S
C576 C578 1.381 . S
C576 C582 1.383 . S
C577 C573 1.495 . S
C577 H583 0.959 . S
C577 H584 0.961 . S
C577 H585 0.960 . S
C578 C576 1.381 . S
C578 C579 1.394 . S
C578 H586 0.930 . S
C579 C578 1.394 . S
C579 C580 1.383 . S
C579 H587 0.929 . S
C580 C579 1.383 . S
C580 C581 1.377 . S
C581 H565 0.930 . S
C581 C580 1.377 . S
C581 C582 1.379 . S
C582 H566 0.931 . S
C582 C576 1.383 . S
C582 C581 1.379 . S
H583 C577 0.959 . S
H584 C577 0.961 . S
H585 C577 0.960 . S
H586 C578 0.930 . S
H587 C579 0.929 . S
H588 C596 0.929 . S
H589 C598 0.930 . S
H590 C600 0.930 . S
H591 C603 0.929 . S
H592 C606 0.930 . S
H593 C608 0.960 . S
H594 C608 0.960 . S
H595 C608 0.960 . S
C596 H588 0.929 . S
C596 C597 1.377 . S
C596 C598 1.384 . S
C597 C596 1.377 . S
C597 C603 1.390 . S
C598 H589 0.930 . S
C598 C596 1.384 . S
C598 C599 1.372 . S
C599 C598 1.372 . S
C599 C600 1.400 . S
C599 C604 1.490 . S
C600 H590 0.930 . S
C600 C599 1.400 . S
C600 C603 1.386 . S
H601 C617 0.930 . S
H602 C618 0.931 . S
C603 H591 0.929 . S
C603 C597 1.390 . S
C603 C600 1.386 . S
C604 C599 1.490 . S
C604 C606 1.395 . S
C604 C607 1.403 . S
H605 C611 0.930 . S
C606 H592 0.930 . S
C606 C604 1.395 . S
C606 C609 1.403 . S
C607 C604 1.403 . S
C607 C608 1.524 . S
C607 C611 1.400 . S
C608 H593 0.960 . S
C608 H594 0.960 . S
C608 H595 0.960 . S
C608 C607 1.524 . S
C609 C606 1.403 . S
C609 C610 1.392 . S
C609 C613 1.495 . S
C610 C609 1.392 . S
C610 C611 1.385 . S
C610 C612 1.478 . S
C611 H605 0.930 . S
C611 C607 1.400 . S
C611 C610 1.385 . S
C612 C610 1.478 . S
C612 C614 1.381 . S
C612 C618 1.383 . S
C613 C609 1.495 . S
C613 H619 0.959 . S
C613 H620 0.961 . S
C613 H621 0.960 . S
C614 C612 1.381 . S
C614 C615 1.394 . S
C614 H622 0.930 . S
C615 C614 1.394 . S
C615 C616 1.383 . S
C615 H623 0.929 . S
C616 C615 1.383 . S
C616 C617 1.377 . S
C617 H601 0.930 . S
C617 C616 1.377 . S
C617 C618 1.379 . S
C618 H602 0.931 . S
C618 C612 1.383 . S
C618 C617 1.379 . S
H619 C613 0.959 . S
H620 C613 0.961 . S
H621 C613 0.960 . S
H622 C614 0.930 . S
H623 C615 0.929 . S
H624 C632 0.929 . S
H625 C634 0.930 . S
H626 C636 0.930 . S
H627 C639 0.929 . S
H628 C642 0.930 . S
H629 C644 0.960 . S
H630 C644 0.960 . S
H631 C644 0.960 . S
C632 H624 0.929 . S
C632 C633 1.377 . S
C632 C634 1.384 . S
C633 C632 1.377 . S
C633 C639 1.390 . S
C634 H625 0.930 . S
C634 C632 1.384 . S
C634 C635 1.372 . S
C635 C634 1.372 . S
C635 C636 1.400 . S
C635 C640 1.490 . S
C636 H626 0.930 . S
C636 C635 1.400 . S
C636 C639 1.386 . S
H637 C653 0.930 . S
H638 C654 0.931 . S
C639 H627 0.929 . S
C639 C633 1.390 . S
C639 C636 1.386 . S
C640 C635 1.490 . S
C640 C642 1.395 . S
C640 C643 1.403 . S
H641 C647 0.930 . S
C642 H628 0.930 . S
C642 C640 1.395 . S
C642 C645 1.403 . S
C643 C640 1.403 . S
C643 C644 1.524 . S
C643 C647 1.400 . S
C644 H629 0.960 . S
C644 H630 0.960 . S
C644 H631 0.960 . S
C644 C643 1.524 . S
C645 C642 1.403 . S
C645 C646 1.392 . S
C645 C649 1.495 . S
C646 C645 1.392 . S
C646 C647 1.385 . S
C646 C648 1.478 . S
C647 H641 0.930 . S
C647 C643 1.400 . S
C647 C646 1.385 . S
C648 C646 1.478 . S
C648 C650 1.381 . S
C648 C654 1.383 . S
C649 C645 1.495 . S
C649 H655 0.959 . S
C649 H656 0.961 . S
C649 H657 0.960 . S
C650 C648 1.381 . S
C650 C651 1.394 . S
C650 H658 0.930 . S
C651 C650 1.394 . S
C651 C652 1.383 . S
C651 H659 0.929 . S
C652 C651 1.383 . S
C652 C653 1.377 . S
C653 H637 0.930 . S
C653 C652 1.377 . S
C653 C654 1.379 . S
C654 H638 0.931 . S
C654 C648 1.383 . S
C654 C653 1.379 . S
H655 C649 0.959 . S
H656 C649 0.961 . S
H657 C649 0.960 . S
H658 C650 0.930 . S
H659 C651 0.929 . S
H660 C668 0.929 . S
H661 C670 0.930 . S
H662 C672 0.930 . S
H663 C675 0.929 . S
H664 C678 0.930 . S
H665 C680 0.960 . S
H666 C680 0.960 . S
H667 C680 0.960 . S
C668 H660 0.929 . S
C668 C669 1.377 . S
C668 C670 1.384 . S
C669 C668 1.377 . S
C669 C675 1.390 . S
C670 H661 0.930 . S
C670 C668 1.384 . S
C670 C671 1.372 . S
C671 C670 1.372 . S
C671 C672 1.400 . S
C671 C676 1.490 . S
C672 H662 0.930 . S
C672 C671 1.400 . S
C672 C675 1.386 . S
H673 C689 0.930 . S
H674 C690 0.931 . S
C675 H663 0.929 . S
C675 C669 1.390 . S
C675 C672 1.386 . S
C676 C671 1.490 . S
C676 C678 1.395 . S
C676 C679 1.403 . S
H677 C683 0.930 . S
C678 H664 0.930 . S
C678 C676 1.395 . S
C678 C681 1.403 . S
C679 C676 1.403 . S
C679 C680 1.524 . S
C679 C683 1.400 . S
C680 H665 0.960 . S
C680 H666 0.960 . S
C680 H667 0.960 . S
C680 C679 1.524 . S
C681 C678 1.403 . S
C681 C682 1.392 . S
C681 C685 1.495 . S
C682 C681 1.392 . S
C682 C683 1.385 . S
C682 C684 1.478 . S
C683 H677 0.930 . S
C683 C679 1.400 . S
C683 C682 1.385 . S
C684 C682 1.478 . S
C684 C686 1.381 . S
C684 C690 1.383 . S
C685 C681 1.495 . S
C685 H691 0.959 . S
C685 H692 0.961 . S
C685 H693 0.960 . S
C686 C684 1.381 . S
C686 C687 1.394 . S
C686 H694 0.930 . S
C687 C686 1.394 . S
C687 C688 1.383 . S
C687 H695 0.929 . S
C688 C687 1.383 . S
C688 C689 1.377 . S
C689 H673 0.930 . S
C689 C688 1.377 . S
C689 C690 1.379 . S
C690 H674 0.931 . S
C690 C684 1.383 . S
C690 C689 1.379 . S
H691 C685 0.959 . S
H692 C685 0.961 . S
H693 C685 0.960 . S
H694 C686 0.930 . S
H695 C687 0.929 . S
H696 C704 0.929 . S
H697 C706 0.930 . S
H698 C708 0.930 . S
H699 C711 0.929 . S
H700 C714 0.930 . S
H701 C716 0.960 . S
H702 C716 0.960 . S
H703 C716 0.960 . S
C704 H696 0.929 . S
C704 C705 1.377 . S
C704 C706 1.384 . S
C705 C704 1.377 . S
C705 C711 1.390 . S
C706 H697 0.930 . S
C706 C704 1.384 . S
C706 C707 1.372 . S
C707 C706 1.372 . S
C707 C708 1.400 . S
C707 C712 1.490 . S
C708 H698 0.930 . S
C708 C707 1.400 . S
C708 C711 1.386 . S
H709 C725 0.930 . S
H710 C726 0.931 . S
C711 H699 0.929 . S
C711 C705 1.390 . S
C711 C708 1.386 . S
C712 C707 1.490 . S
C712 C714 1.395 . S
C712 C715 1.403 . S
H713 C719 0.930 . S
C714 H700 0.930 . S
C714 C712 1.395 . S
C714 C717 1.403 . S
C715 C712 1.403 . S
C715 C716 1.524 . S
C715 C719 1.400 . S
C716 H701 0.960 . S
C716 H702 0.960 . S
C716 H703 0.960 . S
C716 C715 1.524 . S
C717 C714 1.403 . S
C717 C718 1.392 . S
C717 C721 1.495 . S
C718 C717 1.392 . S
C718 C719 1.385 . S
C718 C720 1.478 . S
C719 H713 0.930 . S
C719 C715 1.400 . S
C719 C718 1.385 . S
C720 C718 1.478 . S
C720 C722 1.381 . S
C720 C726 1.383 . S
C721 C717 1.495 . S
C721 H727 0.959 . S
C721 H728 0.961 . S
C721 H729 0.960 . S
C722 C720 1.381 . S
C722 C723 1.394 . S
C722 H730 0.930 . S
C723 C722 1.394 . S
C723 C724 1.383 . S
C723 H731 0.929 . S
C724 C723 1.383 . S
C724 C725 1.377 . S
C725 H709 0.930 . S
C725 C724 1.377 . S
C725 C726 1.379 . S
C726 H710 0.931 . S
C726 C720 1.383 . S
C726 C725 1.379 . S
H727 C721 0.959 . S
H728 C721 0.961 . S
H729 C721 0.960 . S
H730 C722 0.930 . S
H731 C723 0.929 . S
H732 C740 0.929 . S
H733 C742 0.930 . S
H734 C744 0.930 . S
H735 C747 0.929 . S
H736 C750 0.930 . S
H737 C752 0.960 . S
H738 C752 0.960 . S
H739 C752 0.960 . S
C740 H732 0.929 . S
C740 C741 1.377 . S
C740 C742 1.384 . S
C741 C740 1.377 . S
C741 C747 1.390 . S
C742 H733 0.930 . S
C742 C740 1.384 . S
C742 C743 1.372 . S
C743 C742 1.372 . S
C743 C744 1.400 . S
C743 C748 1.490 . S
C744 H734 0.930 . S
C744 C743 1.400 . S
C744 C747 1.386 . S
H745 C761 0.930 . S
H746 C762 0.931 . S
C747 H735 0.929 . S
C747 C741 1.390 . S
C747 C744 1.386 . S
C748 C743 1.490 . S
C748 C750 1.395 . S
C748 C751 1.403 . S
H749 C755 0.930 . S
C750 H736 0.930 . S
C750 C748 1.395 . S
C750 C753 1.403 . S
C751 C748 1.403 . S
C751 C752 1.524 . S
C751 C755 1.400 . S
C752 H737 0.960 . S
C752 H738 0.960 . S
C752 H739 0.960 . S
C752 C751 1.524 . S
C753 C750 1.403 . S
C753 C754 1.392 . S
C753 C757 1.495 . S
C754 C753 1.392 . S
C754 C755 1.385 . S
C754 C756 1.478 . S
C755 H749 0.930 . S
C755 C751 1.400 . S
C755 C754 1.385 . S
C756 C754 1.478 . S
C756 C758 1.381 . S
C756 C762 1.383 . S
C757 C753 1.495 . S
C757 H763 0.959 . S
C757 H764 0.961 . S
C757 H765 0.960 . S
C758 C756 1.381 . S
C758 C759 1.394 . S
C758 H766 0.930 . S
C759 C758 1.394 . S
C759 C760 1.383 . S
C759 H767 0.929 . S
C760 C759 1.383 . S
C760 C761 1.377 . S
C761 H745 0.930 . S
C761 C760 1.377 . S
C761 C762 1.379 . S
C762 H746 0.931 . S
C762 C756 1.383 . S
C762 C761 1.379 . S
H763 C757 0.959 . S
H764 C757 0.961 . S
H765 C757 0.960 . S
H766 C758 0.930 . S
H767 C759 0.929 . S
H768 C776 0.929 . S
H769 C778 0.930 . S
H770 C780 0.930 . S
H771 C783 0.929 . S
H772 C786 0.930 . S
H773 C788 0.960 . S
H774 C788 0.960 . S
H775 C788 0.960 . S
C776 H768 0.929 . S
C776 C777 1.377 . S
C776 C778 1.384 . S
C777 C776 1.377 . S
C777 C783 1.390 . S
C778 H769 0.930 . S
C778 C776 1.384 . S
C778 C779 1.372 . S
C779 C778 1.372 . S
C779 C780 1.400 . S
C779 C784 1.490 . S
C780 H770 0.930 . S
C780 C779 1.400 . S
C780 C783 1.386 . S
H781 C797 0.930 . S
H782 C798 0.931 . S
C783 H771 0.929 . S
C783 C777 1.390 . S
C783 C780 1.386 . S
C784 C779 1.490 . S
C784 C786 1.395 . S
C784 C787 1.403 . S
H785 C791 0.930 . S
C786 H772 0.930 . S
C786 C784 1.395 . S
C786 C789 1.403 . S
C787 C784 1.403 . S
C787 C788 1.524 . S
C787 C791 1.400 . S
C788 H773 0.960 . S
C788 H774 0.960 . S
C788 H775 0.960 . S
C788 C787 1.524 . S
C789 C786 1.403 . S
C789 C790 1.392 . S
C789 C793 1.495 . S
C790 C789 1.392 . S
C790 C791 1.385 . S
C790 C792 1.478 . S
C791 H785 0.930 . S
C791 C787 1.400 . S
C791 C790 1.385 . S
C792 C790 1.478 . S
C792 C794 1.381 . S
C792 C798 1.383 . S
C793 C789 1.495 . S
C793 H799 0.959 . S
C793 H800 0.961 . S
C793 H801 0.960 . S
C794 C792 1.381 . S
C794 C795 1.394 . S
C794 H802 0.930 . S
C795 C794 1.394 . S
C795 C796 1.383 . S
C795 H803 0.929 . S
C796 C795 1.383 . S
C796 C797 1.377 . S
C797 H781 0.930 . S
C797 C796 1.377 . S
C797 C798 1.379 . S
C798 H782 0.931 . S
C798 C792 1.383 . S
C798 C797 1.379 . S
H799 C793 0.959 . S
H800 C793 0.961 . S
H801 C793 0.960 . S
H802 C794 0.930 . S
H803 C795 0.929 . S
H804 C812 0.929 . S
H805 C814 0.930 . S
H806 C816 0.930 . S
H807 C819 0.929 . S
H808 C822 0.930 . S
H809 C824 0.960 . S
H810 C824 0.960 . S
H811 C824 0.960 . S
C812 H804 0.929 . S
C812 C813 1.377 . S
C812 C814 1.384 . S
C813 C812 1.377 . S
C813 C819 1.390 . S
C814 H805 0.930 . S
C814 C812 1.384 . S
C814 C815 1.372 . S
C815 C814 1.372 . S
C815 C816 1.400 . S
C815 C820 1.490 . S
C816 H806 0.930 . S
C816 C815 1.400 . S
C816 C819 1.386 . S
H817 C833 0.930 . S
H818 C834 0.931 . S
C819 H807 0.929 . S
C819 C813 1.390 . S
C819 C816 1.386 . S
C820 C815 1.490 . S
C820 C822 1.395 . S
C820 C823 1.403 . S
H821 C827 0.930 . S
C822 H808 0.930 . S
C822 C820 1.395 . S
C822 C825 1.403 . S
C823 C820 1.403 . S
C823 C824 1.524 . S
C823 C827 1.400 . S
C824 H809 0.960 . S
C824 H810 0.960 . S
C824 H811 0.960 . S
C824 C823 1.524 . S
C825 C822 1.403 . S
C825 C826 1.392 . S
C825 C829 1.495 . S
C826 C825 1.392 . S
C826 C827 1.385 . S
C826 C828 1.478 . S
C827 H821 0.930 . S
C827 C823 1.400 . S
C827 C826 1.385 . S
C828 C826 1.478 . S
C828 C830 1.381 . S
C828 C834 1.383 . S
C829 C825 1.495 . S
C829 H835 0.959 . S
C829 H836 0.961 . S
C829 H837 0.960 . S
C830 C828 1.381 . S
C830 C831 1.394 . S
C830 H838 0.930 . S
C831 C830 1.394 . S
C831 C832 1.383 . S
C831 H839 0.929 . S
C832 C831 1.383 . S
C832 C833 1.377 . S
C833 H817 0.930 . S
C833 C832 1.377 . S
C833 C834 1.379 . S
C834 H818 0.931 . S
C834 C828 1.383 . S
C834 C833 1.379 . S
H835 C829 0.959 . S
H836 C829 0.961 . S
H837 C829 0.960 . S
H838 C830 0.930 . S
H839 C831 0.929 . S
H840 C848 0.929 . S
H841 C850 0.930 . S
H842 C852 0.930 . S
H843 C855 0.929 . S
H844 C858 0.930 . S
H845 C860 0.960 . S
H846 C860 0.960 . S
H847 C860 0.960 . S
C848 H840 0.929 . S
C848 C849 1.377 . S
C848 C850 1.384 . S
C849 C848 1.377 . S
C849 C855 1.390 . S
C850 H841 0.930 . S
C850 C848 1.384 . S
C850 C851 1.372 . S
C851 C850 1.372 . S
C851 C852 1.400 . S
C851 C856 1.490 . S
C852 H842 0.930 . S
C852 C851 1.400 . S
C852 C855 1.386 . S
H853 C869 0.930 . S
H854 C870 0.931 . S
C855 H843 0.929 . S
C855 C849 1.390 . S
C855 C852 1.386 . S
C856 C851 1.490 . S
C856 C858 1.395 . S
C856 C859 1.403 . S
H857 C863 0.930 . S
C858 H844 0.930 . S
C858 C856 1.395 . S
C858 C861 1.403 . S
C859 C856 1.403 . S
C859 C860 1.524 . S
C859 C863 1.400 . S
C860 H845 0.960 . S
C860 H846 0.960 . S
C860 H847 0.960 . S
C860 C859 1.524 . S
C861 C858 1.403 . S
C861 C862 1.392 . S
C861 C865 1.495 . S
C862 C861 1.392 . S
C862 C863 1.385 . S
C862 C864 1.478 . S
C863 H857 0.930 . S
C863 C859 1.400 . S
C863 C862 1.385 . S
C864 C862 1.478 . S
C864 C866 1.381 . S
C864 C870 1.383 . S
C865 C861 1.495 . S
C865 H871 0.959 . S
C865 H872 0.961 . S
C865 H873 0.960 . S
C866 C864 1.381 . S
C866 C867 1.394 . S
C866 H874 0.930 . S
C867 C866 1.394 . S
C867 C868 1.383 . S
C867 H875 0.929 . S
C868 C867 1.383 . S
C868 C869 1.377 . S
C869 H853 0.930 . S
C869 C868 1.377 . S
C869 C870 1.379 . S
C870 H854 0.931 . S
C870 C864 1.383 . S
C870 C869 1.379 . S
H871 C865 0.959 . S
H872 C865 0.961 . S
H873 C865 0.960 . S
H874 C866 0.930 . S
H875 C867 0.929 . S
H876 C884 0.929 . S
H877 C886 0.930 . S
H878 C888 0.930 . S
H879 C891 0.929 . S
H880 C894 0.930 . S
H881 C896 0.960 . S
H882 C896 0.960 . S
H883 C896 0.960 . S
C884 H876 0.929 . S
C884 C885 1.377 . S
C884 C886 1.384 . S
C885 C884 1.377 . S
C885 C891 1.390 . S
C886 H877 0.930 . S
C886 C884 1.384 . S
C886 C887 1.372 . S
C887 C886 1.372 . S
C887 C888 1.400 . S
C887 C892 1.490 . S
C888 H878 0.930 . S
C888 C887 1.400 . S
C888 C891 1.386 . S
H889 C905 0.930 . S
H890 C906 0.931 . S
C891 H879 0.929 . S
C891 C885 1.390 . S
C891 C888 1.386 . S
C892 C887 1.490 . S
C892 C894 1.395 . S
C892 C895 1.403 . S
H893 C899 0.930 . S
C894 H880 0.930 . S
C894 C892 1.395 . S
C894 C897 1.403 . S
C895 C892 1.403 . S
C895 C896 1.524 . S
C895 C899 1.400 . S
C896 H881 0.960 . S
C896 H882 0.960 . S
C896 H883 0.960 . S
C896 C895 1.524 . S
C897 C894 1.403 . S
C897 C898 1.392 . S
C897 C901 1.495 . S
C898 C897 1.392 . S
C898 C899 1.385 . S
C898 C900 1.478 . S
C899 H893 0.930 . S
C899 C895 1.400 . S
C899 C898 1.385 . S
C900 C898 1.478 . S
C900 C902 1.381 . S
C900 C906 1.383 . S
C901 C897 1.495 . S
C901 H907 0.959 . S
C901 H908 0.961 . S
C901 H909 0.960 . S
C902 C900 1.381 . S
C902 C903 1.394 . S
C902 H910 0.930 . S
C903 C902 1.394 . S
C903 C904 1.383 . S
C903 H911 0.929 . S
C904 C903 1.383 . S
C904 C905 1.377 . S
C905 H889 0.930 . S
C905 C904 1.377 . S
C905 C906 1.379 . S
C906 H890 0.931 . S
C906 C900 1.383 . S
C906 C905 1.379 . S
H907 C901 0.959 . S
H908 C901 0.961 . S
H909 C901 0.960 . S
H910 C902 0.930 . S
H911 C903 0.929 . S
H912 C920 0.929 . S
H913 C922 0.930 . S
H914 C924 0.930 . S
H915 C927 0.929 . S
H916 C930 0.930 . S
H917 C932 0.960 . S
H918 C932 0.960 . S
H919 C932 0.960 . S
C920 H912 0.929 . S
C920 C921 1.377 . S
C920 C922 1.384 . S
C921 C920 1.377 . S
C921 C927 1.390 . S
C922 H913 0.930 . S
C922 C920 1.384 . S
C922 C923 1.372 . S
C923 C922 1.372 . S
C923 C924 1.400 . S
C923 C928 1.490 . S
C924 H914 0.930 . S
C924 C923 1.400 . S
C924 C927 1.386 . S
H925 C941 0.930 . S
H926 C942 0.931 . S
C927 H915 0.929 . S
C927 C921 1.390 . S
C927 C924 1.386 . S
C928 C923 1.490 . S
C928 C930 1.395 . S
C928 C931 1.403 . S
H929 C935 0.930 . S
C930 H916 0.930 . S
C930 C928 1.395 . S
C930 C933 1.403 . S
C931 C928 1.403 . S
C931 C932 1.524 . S
C931 C935 1.400 . S
C932 H917 0.960 . S
C932 H918 0.960 . S
C932 H919 0.960 . S
C932 C931 1.524 . S
C933 C930 1.403 . S
C933 C934 1.392 . S
C933 C937 1.495 . S
C934 C933 1.392 . S
C934 C935 1.385 . S
C934 C936 1.478 . S
C935 H929 0.930 . S
C935 C931 1.400 . S
C935 C934 1.385 . S
C936 C934 1.478 . S
C936 C938 1.381 . S
C936 C942 1.383 . S
C937 C933 1.495 . S
C937 H943 0.959 . S
C937 H944 0.961 . S
C937 H945 0.960 . S
C938 C936 1.381 . S
C938 C939 1.394 . S
C938 H946 0.930 . S
C939 C938 1.394 . S
C939 C940 1.383 . S
C939 H947 0.929 . S
C940 C939 1.383 . S
C940 C941 1.377 . S
C941 H925 0.930 . S
C941 C940 1.377 . S
C941 C942 1.379 . S
C942 H926 0.931 . S
C942 C936 1.383 . S
C942 C941 1.379 . S
H943 C937 0.959 . S
H944 C937 0.961 . S
H945 C937 0.960 . S
H946 C938 0.930 . S
H947 C939 0.929 . S
H948 C956 0.929 . S
H949 C958 0.930 . S
H950 C960 0.930 . S
H951 C963 0.929 . S
H952 C966 0.930 . S
H953 C968 0.960 . S
H954 C968 0.960 . S
H955 C968 0.960 . S
C956 H948 0.929 . S
C956 C957 1.377 . S
C956 C958 1.384 . S
C957 C956 1.377 . S
C957 C963 1.390 . S
C958 H949 0.930 . S
C958 C956 1.384 . S
C958 C959 1.372 . S
C959 C958 1.372 . S
C959 C960 1.400 . S
C959 C964 1.490 . S
C960 H950 0.930 . S
C960 C959 1.400 . S
C960 C963 1.386 . S
H961 C977 0.930 . S
H962 C978 0.931 . S
C963 H951 0.929 . S
C963 C957 1.390 . S
C963 C960 1.386 . S
C964 C959 1.490 . S
C964 C966 1.395 . S
C964 C967 1.403 . S
H965 C971 0.930 . S
C966 H952 0.930 . S
C966 C964 1.395 . S
C966 C969 1.403 . S
C967 C964 1.403 . S
C967 C968 1.524 . S
C967 C971 1.400 . S
C968 H953 0.960 . S
C968 H954 0.960 . S
C968 H955 0.960 . S
C968 C967 1.524 . S
C969 C966 1.403 . S
C969 C970 1.392 . S
C969 C973 1.495 . S
C970 C969 1.392 . S
C970 C971 1.385 . S
C970 C972 1.478 . S
C971 H965 0.930 . S
C971 C967 1.400 . S
C971 C970 1.385 . S
C972 C970 1.478 . S
C972 C974 1.381 . S
C972 C978 1.383 . S
C973 C969 1.495 . S
C973 H979 0.959 . S
C973 H980 0.961 . S
C973 H981 0.960 . S
C974 C972 1.381 . S
C974 C975 1.394 . S
C974 H982 0.930 . S
C975 C974 1.394 . S
C975 C976 1.383 . S
C975 H983 0.929 . S
C976 C975 1.383 . S
C976 C977 1.377 . S
C977 H961 0.930 . S
C977 C976 1.377 . S
C977 C978 1.379 . S
C978 H962 0.931 . S
C978 C972 1.383 . S
C978 C977 1.379 . S
H979 C973 0.959 . S
H980 C973 0.961 . S
H981 C973 0.960 . S
H982 C974 0.930 . S
H983 C975 0.929 . S
H984 C992 0.929 . S
H985 C994 0.930 . S
H986 C996 0.930 . S
H987 C999 0.929 . S
H988 C1002 0.930 . S
H989 C1004 0.960 . S
H990 C1004 0.960 . S
H991 C1004 0.960 . S
C992 H984 0.929 . S
C992 C993 1.377 . S
C992 C994 1.384 . S
C993 C992 1.377 . S
C993 C999 1.390 . S
C994 H985 0.930 . S
C994 C992 1.384 . S
C994 C995 1.372 . S
C995 C994 1.372 . S
C995 C996 1.400 . S
C995 C1000 1.490 . S
C996 H986 0.930 . S
C996 C995 1.400 . S
C996 C999 1.386 . S
H997 C1013 0.930 . S
H998 C1014 0.931 . S
C999 H987 0.929 . S
C999 C993 1.390 . S
C999 C996 1.386 . S
C1000 C995 1.490 . S
C1000 C1002 1.395 . S
C1000 C1003 1.403 . S
H1001 C1007 0.930 . S
C1002 H988 0.930 . S
C1002 C1000 1.395 . S
C1002 C1005 1.403 . S
C1003 C1000 1.403 . S
C1003 C1004 1.524 . S
C1003 C1007 1.400 . S
C1004 H989 0.960 . S
C1004 H990 0.960 . S
C1004 H991 0.960 . S
C1004 C1003 1.524 . S
C1005 C1002 1.403 . S
C1005 C1006 1.392 . S
C1005 C1009 1.495 . S
C1006 C1005 1.392 . S
C1006 C1007 1.385 . S
C1006 C1008 1.478 . S
C1007 H1001 0.930 . S
C1007 C1003 1.400 . S
C1007 C1006 1.385 . S
C1008 C1006 1.478 . S
C1008 C1010 1.381 . S
C1008 C1014 1.383 . S
C1009 C1005 1.495 . S
C1009 H1015 0.959 . S
C1009 H1016 0.961 . S
C1009 H1017 0.960 . S
C1010 C1008 1.381 . S
C1010 C1011 1.394 . S
C1010 H1018 0.930 . S
C1011 C1010 1.394 . S
C1011 C1012 1.383 . S
C1011 H1019 0.929 . S
C1012 C1011 1.383 . S
C1012 C1013 1.377 . S
C1013 H997 0.930 . S
C1013 C1012 1.377 . S
C1013 C1014 1.379 . S
C1014 H998 0.931 . S
C1014 C1008 1.383 . S
C1014 C1013 1.379 . S
H1015 C1009 0.959 . S
H1016 C1009 0.961 . S
H1017 C1009 0.960 . S
H1018 C1010 0.930 . S
H1019 C1011 0.929 . S
H1020 C1028 0.929 . S
H1021 C1030 0.930 . S
H1022 C1032 0.930 . S
H1023 C1035 0.929 . S
H1024 C1038 0.930 . S
H1025 C1040 0.960 . S
H1026 C1040 0.960 . S
H1027 C1040 0.960 . S
C1028 H1020 0.929 . S
C1028 C1029 1.377 . S
C1028 C1030 1.384 . S
C1029 C1028 1.377 . S
C1029 C1035 1.390 . S
C1030 H1021 0.930 . S
C1030 C1028 1.384 . S
C1030 C1031 1.372 . S
C1031 C1030 1.372 . S
C1031 C1032 1.400 . S
C1031 C1036 1.490 . S
C1032 H1022 0.930 . S
C1032 C1031 1.400 . S
C1032 C1035 1.386 . S
H1033 C1049 0.930 . S
H1034 C1050 0.931 . S
C1035 H1023 0.929 . S
C1035 C1029 1.390 . S
C1035 C1032 1.386 . S
C1036 C1031 1.490 . S
C1036 C1038 1.395 . S
C1036 C1039 1.403 . S
H1037 C1043 0.930 . S
C1038 H1024 0.930 . S
C1038 C1036 1.395 . S
C1038 C1041 1.403 . S
C1039 C1036 1.403 . S
C1039 C1040 1.524 . S
C1039 C1043 1.400 . S
C1040 H1025 0.960 . S
C1040 H1026 0.960 . S
C1040 H1027 0.960 . S
C1040 C1039 1.524 . S
C1041 C1038 1.403 . S
C1041 C1042 1.392 . S
C1041 C1045 1.495 . S
C1042 C1041 1.392 . S
C1042 C1043 1.385 . S
C1042 C1044 1.478 . S
C1043 H1037 0.930 . S
C1043 C1039 1.400 . S
C1043 C1042 1.385 . S
C1044 C1042 1.478 . S
C1044 C1046 1.381 . S
C1044 C1050 1.383 . S
C1045 C1041 1.495 . S
C1045 H1051 0.959 . S
C1045 H1052 0.961 . S
C1045 H1053 0.960 . S
C1046 C1044 1.381 . S
C1046 C1047 1.394 . S
C1046 H1054 0.930 . S
C1047 C1046 1.394 . S
C1047 C1048 1.383 . S
C1047 H1055 0.929 . S
C1048 C1047 1.383 . S
C1048 C1049 1.377 . S
C1049 H1033 0.930 . S
C1049 C1048 1.377 . S
C1049 C1050 1.379 . S
C1050 H1034 0.931 . S
C1050 C1044 1.383 . S
C1050 C1049 1.379 . S
H1051 C1045 0.959 . S
H1052 C1045 0.961 . S
H1053 C1045 0.960 . S
H1054 C1046 0.930 . S
H1055 C1047 0.929 . S
H1056 C1064 0.929 . S
H1057 C1066 0.930 . S
H1058 C1068 0.930 . S
H1059 C1071 0.929 . S
H1060 C1074 0.930 . S
H1061 C1076 0.960 . S
H1062 C1076 0.960 . S
H1063 C1076 0.960 . S
C1064 H1056 0.929 . S
C1064 C1065 1.377 . S
C1064 C1066 1.384 . S
C1065 C1064 1.377 . S
C1065 C1071 1.390 . S
C1066 H1057 0.930 . S
C1066 C1064 1.384 . S
C1066 C1067 1.372 . S
C1067 C1066 1.372 . S
C1067 C1068 1.400 . S
C1067 C1072 1.490 . S
C1068 H1058 0.930 . S
C1068 C1067 1.400 . S
C1068 C1071 1.386 . S
H1069 C1085 0.930 . S
H1070 C1086 0.931 . S
C1071 H1059 0.929 . S
C1071 C1065 1.390 . S
C1071 C1068 1.386 . S
C1072 C1067 1.490 . S
C1072 C1074 1.395 . S
C1072 C1075 1.403 . S
H1073 C1079 0.930 . S
C1074 H1060 0.930 . S
C1074 C1072 1.395 . S
C1074 C1077 1.403 . S
C1075 C1072 1.403 . S
C1075 C1076 1.524 . S
C1075 C1079 1.400 . S
C1076 H1061 0.960 . S
C1076 H1062 0.960 . S
C1076 H1063 0.960 . S
C1076 C1075 1.524 . S
C1077 C1074 1.403 . S
C1077 C1078 1.392 . S
C1077 C1081 1.495 . S
C1078 C1077 1.392 . S
C1078 C1079 1.385 . S
C1078 C1080 1.478 . S
C1079 H1073 0.930 . S
C1079 C1075 1.400 . S
C1079 C1078 1.385 . S
C1080 C1078 1.478 . S
C1080 C1082 1.381 . S
C1080 C1086 1.383 . S
C1081 C1077 1.495 . S
C1081 H1087 0.959 . S
C1081 H1088 0.961 . S
C1081 H1089 0.960 . S
C1082 C1080 1.381 . S
C1082 C1083 1.394 . S
C1082 H1090 0.930 . S
C1083 C1082 1.394 . S
C1083 C1084 1.383 . S
C1083 H1091 0.929 . S
C1084 C1083 1.383 . S
C1084 C1085 1.377 . S
C1085 H1069 0.930 . S
C1085 C1084 1.377 . S
C1085 C1086 1.379 . S
C1086 H1070 0.931 . S
C1086 C1080 1.383 . S
C1086 C1085 1.379 . S
H1087 C1081 0.959 . S
H1088 C1081 0.961 . S
H1089 C1081 0.960 . S
H1090 C1082 0.930 . S
H1091 C1083 0.929 . S
H1092 C1100 0.929 . S
H1093 C1102 0.930 . S
H1094 C1104 0.930 . S
H1095 C1107 0.929 . S
H1096 C1110 0.930 . S
H1097 C1112 0.960 . S
H1098 C1112 0.960 . S
H1099 C1112 0.960 . S
C1100 H1092 0.929 . S
C1100 C1101 1.377 . S
C1100 C1102 1.384 . S
C1101 C1100 1.377 . S
C1101 C1107 1.390 . S
C1102 H1093 0.930 . S
C1102 C1100 1.384 . S
C1102 C1103 1.372 . S
C1103 C1102 1.372 . S
C1103 C1104 1.400 . S
C1103 C1108 1.490 . S
C1104 H1094 0.930 . S
C1104 C1103 1.400 . S
C1104 C1107 1.386 . S
H1105 C1121 0.930 . S
H1106 C1122 0.931 . S
C1107 H1095 0.929 . S
C1107 C1101 1.390 . S
C1107 C1104 1.386 . S
C1108 C1103 1.490 . S
C1108 C1110 1.395 . S
C1108 C1111 1.403 . S
H1109 C1115 0.930 . S
C1110 H1096 0.930 . S
C1110 C1108 1.395 . S
C1110 C1113 1.403 . S
C1111 C1108 1.403 . S
C1111 C1112 1.524 . S
C1111 C1115 1.400 . S
C1112 H1097 0.960 . S
C1112 H1098 0.960 . S
C1112 H1099 0.960 . S
C1112 C1111 1.524 . S
C1113 C1110 1.403 . S
C1113 C1114 1.392 . S
C1113 C1117 1.495 . S
C1114 C1113 1.392 . S
C1114 C1115 1.385 . S
C1114 C1116 1.478 . S
C1115 H1109 0.930 . S
C1115 C1111 1.400 . S
C1115 C1114 1.385 . S
C1116 C1114 1.478 . S
C1116 C1118 1.381 . S
C1116 C1122 1.383 . S
C1117 C1113 1.495 . S
C1117 H1123 0.959 . S
C1117 H1124 0.961 . S
C1117 H1125 0.960 . S
C1118 C1116 1.381 . S
C1118 C1119 1.394 . S
C1118 H1126 0.930 . S
C1119 C1118 1.394 . S
C1119 C1120 1.383 . S
C1119 H1127 0.929 . S
C1120 C1119 1.383 . S
C1120 C1121 1.377 . S
C1121 H1105 0.930 . S
C1121 C1120 1.377 . S
C1121 C1122 1.379 . S
C1122 H1106 0.931 . S
C1122 C1116 1.383 . S
C1122 C1121 1.379 . S
H1123 C1117 0.959 . S
H1124 C1117 0.961 . S
H1125 C1117 0.960 . S
H1126 C1118 0.930 . S
H1127 C1119 0.929 . S
H1128 C1136 0.929 . S
H1129 C1138 0.930 . S
H1130 C1140 0.930 . S
H1131 C1143 0.929 . S
H1132 C1146 0.930 . S
H1133 C1148 0.960 . S
H1134 C1148 0.960 . S
H1135 C1148 0.960 . S
C1136 H1128 0.929 . S
C1136 C1137 1.377 . S
C1136 C1138 1.384 . S
C1137 C1136 1.377 . S
C1137 C1143 1.390 . S
C1138 H1129 0.930 . S
C1138 C1136 1.384 . S
C1138 C1139 1.372 . S
C1139 C1138 1.372 . S
C1139 C1140 1.400 . S
C1139 C1144 1.490 . S
C1140 H1130 0.930 . S
C1140 C1139 1.400 . S
C1140 C1143 1.386 . S
H1141 C1157 0.930 . S
H1142 C1158 0.931 . S
C1143 H1131 0.929 . S
C1143 C1137 1.390 . S
C1143 C1140 1.386 . S
C1144 C1139 1.490 . S
C1144 C1146 1.395 . S
C1144 C1147 1.403 . S
H1145 C1151 0.930 . S
C1146 H1132 0.930 . S
C1146 C1144 1.395 . S
C1146 C1149 1.403 . S
C1147 C1144 1.403 . S
C1147 C1148 1.524 . S
C1147 C1151 1.400 . S
C1148 H1133 0.960 . S
C1148 H1134 0.960 . S
C1148 H1135 0.960 . S
C1148 C1147 1.524 . S
C1149 C1146 1.403 . S
C1149 C1150 1.392 . S
C1149 C1153 1.495 . S
C1150 C1149 1.392 . S
C1150 C1151 1.385 . S
C1150 C1152 1.478 . S
C1151 H1145 0.930 . S
C1151 C1147 1.400 . S
C1151 C1150 1.385 . S
C1152 C1150 1.478 . S
C1152 C1154 1.381 . S
C1152 C1158 1.383 . S
C1153 C1149 1.495 . S
C1153 H1159 0.959 . S
C1153 H1160 0.961 . S
C1153 H1161 0.960 . S
C1154 C1152 1.381 . S
C1154 C1155 1.394 . S
C1154 H1162 0.930 . S
C1155 C1154 1.394 . S
C1155 C1156 1.383 . S
C1155 H1163 0.929 . S
C1156 C1155 1.383 . S
C1156 C1157 1.377 . S
C1157 H1141 0.930 . S
C1157 C1156 1.377 . S
C1157 C1158 1.379 . S
C1158 H1142 0.931 . S
C1158 C1152 1.383 . S
C1158 C1157 1.379 . S
H1159 C1153 0.959 . S
H1160 C1153 0.961 . S
H1161 C1153 0.960 . S
H1162 C1154 0.930 . S
H1163 C1155 0.929 . S
H1164 C1172 0.929 . S
H1165 C1174 0.930 . S
H1166 C1176 0.930 . S
H1167 C1179 0.929 . S
H1168 C1182 0.930 . S
H1169 C1184 0.960 . S
H1170 C1184 0.960 . S
H1171 C1184 0.960 . S
C1172 H1164 0.929 . S
C1172 C1173 1.377 . S
C1172 C1174 1.384 . S
C1173 C1172 1.377 . S
C1173 C1179 1.390 . S
C1174 H1165 0.930 . S
C1174 C1172 1.384 . S
C1174 C1175 1.372 . S
C1175 C1174 1.372 . S
C1175 C1176 1.400 . S
C1175 C1180 1.490 . S
C1176 H1166 0.930 . S
C1176 C1175 1.400 . S
C1176 C1179 1.386 . S
H1177 C1193 0.930 . S
H1178 C1194 0.931 . S
C1179 H1167 0.929 . S
C1179 C1173 1.390 . S
C1179 C1176 1.386 . S
C1180 C1175 1.490 . S
C1180 C1182 1.395 . S
C1180 C1183 1.403 . S
H1181 C1187 0.930 . S
C1182 H1168 0.930 . S
C1182 C1180 1.395 . S
C1182 C1185 1.403 . S
C1183 C1180 1.403 . S
C1183 C1184 1.524 . S
C1183 C1187 1.400 . S
C1184 H1169 0.960 . S
C1184 H1170 0.960 . S
C1184 H1171 0.960 . S
C1184 C1183 1.524 . S
C1185 C1182 1.403 . S
C1185 C1186 1.392 . S
C1185 C1189 1.495 . S
C1186 C1185 1.392 . S
C1186 C1187 1.385 . S
C1186 C1188 1.478 . S
C1187 H1181 0.930 . S
C1187 C1183 1.400 . S
C1187 C1186 1.385 . S
C1188 C1186 1.478 . S
C1188 C1190 1.381 . S
C1188 C1194 1.383 . S
C1189 C1185 1.495 . S
C1189 H1195 0.959 . S
C1189 H1196 0.961 . S
C1189 H1197 0.960 . S
C1190 C1188 1.381 . S
C1190 C1191 1.394 . S
C1190 H1198 0.930 . S
C1191 C1190 1.394 . S
C1191 C1192 1.383 . S
C1191 H1199 0.929 . S
C1192 C1191 1.383 . S
C1192 C1193 1.377 . S
C1193 H1177 0.930 . S
C1193 C1192 1.377 . S
C1193 C1194 1.379 . S
C1194 H1178 0.931 . S
C1194 C1188 1.383 . S
C1194 C1193 1.379 . S
H1195 C1189 0.959 . S
H1196 C1189 0.961 . S
H1197 C1189 0.960 . S
H1198 C1190 0.930 . S
H1199 C1191 0.929 . S
H1200 C1208 0.929 . S
H1201 C1210 0.930 . S
H1202 C1212 0.930 . S
H1203 C1215 0.929 . S
H1204 C1218 0.930 . S
H1205 C1220 0.960 . S
H1206 C1220 0.960 . S
H1207 C1220 0.960 1_565 S
C1208 H1200 0.929 . S
C1208 C1209 1.377 . S
C1208 C1210 1.384 . S
C1209 C1208 1.377 . S
C1209 C1215 1.390 . S
C1210 H1201 0.930 . S
C1210 C1208 1.384 . S
C1210 C1211 1.372 . S
C1211 C1210 1.372 . S
C1211 C1212 1.400 . S
C1211 C1216 1.490 . S
C1212 H1202 0.930 . S
C1212 C1211 1.400 . S
C1212 C1215 1.386 . S
H1213 C1229 0.930 . S
H1214 C1230 0.931 . S
C1215 H1203 0.929 . S
C1215 C1209 1.390 . S
C1215 C1212 1.386 . S
C1216 C1211 1.490 . S
C1216 C1218 1.395 1_556 S
C1216 C1219 1.403 1_565 S
H1217 C1223 0.930 . S
C1218 H1204 0.930 . S
C1218 C1216 1.395 1_554 S
C1218 C1221 1.403 . S
C1219 C1216 1.403 1_545 S
C1219 C1220 1.524 . S
C1219 C1223 1.400 . S
C1220 H1205 0.960 . S
C1220 H1206 0.960 . S
C1220 H1207 0.960 1_545 S
C1220 C1219 1.524 . S
C1221 C1218 1.403 . S
C1221 C1222 1.392 1_565 S
C1221 C1225 1.495 . S
C1222 C1221 1.392 1_545 S
C1222 C1223 1.385 1_554 S
C1222 C1224 1.478 . S
C1223 H1217 0.930 . S
C1223 C1219 1.400 . S
C1223 C1222 1.385 1_556 S
C1224 C1222 1.478 . S
C1224 C1226 1.381 . S
C1224 C1230 1.383 . S
C1225 C1221 1.495 . S
C1225 H1231 0.959 . S
C1225 H1232 0.961 . S
C1225 H1233 0.960 1_565 S
C1226 C1224 1.381 . S
C1226 C1227 1.394 . S
C1226 H1234 0.930 . S
C1227 C1226 1.394 . S
C1227 C1228 1.383 . S
C1227 H1235 0.929 . S
C1228 C1227 1.383 . S
C1228 C1229 1.377 . S
C1229 H1213 0.930 . S
C1229 C1228 1.377 . S
C1229 C1230 1.379 . S
C1230 H1214 0.931 . S
C1230 C1224 1.383 . S
C1230 C1229 1.379 . S
H1231 C1225 0.959 . S
H1232 C1225 0.961 . S
H1233 C1225 0.960 1_545 S
H1234 C1226 0.930 . S
H1235 C1227 0.929 . S
H1236 C1244 0.929 . S
H1237 C1246 0.930 . S
H1238 C1248 0.930 . S
H1239 C1251 0.929 . S
H1240 C1254 0.930 . S
H1241 C1256 0.960 . S
H1242 C1256 0.960 . S
H1243 C1256 0.960 . S
C1244 H1236 0.929 . S
C1244 C1245 1.377 . S
C1244 C1246 1.384 . S
C1245 C1244 1.377 . S
C1245 C1251 1.390 . S
C1246 H1237 0.930 . S
C1246 C1244 1.384 . S
C1246 C1247 1.372 . S
C1247 C1246 1.372 . S
C1247 C1248 1.400 . S
C1247 C1252 1.490 . S
C1248 H1238 0.930 . S
C1248 C1247 1.400 . S
C1248 C1251 1.386 . S
H1249 C1265 0.930 . S
H1250 C1266 0.931 . S
C1251 H1239 0.929 . S
C1251 C1245 1.390 . S
C1251 C1248 1.386 . S
C1252 C1247 1.490 . S
C1252 C1254 1.395 . S
C1252 C1255 1.403 . S
H1253 C1259 0.930 . S
C1254 H1240 0.930 . S
C1254 C1252 1.395 . S
C1254 C1257 1.403 . S
C1255 C1252 1.403 . S
C1255 C1256 1.524 . S
C1255 C1259 1.400 . S
C1256 H1241 0.960 . S
C1256 H1242 0.960 . S
C1256 H1243 0.960 . S
C1256 C1255 1.524 . S
C1257 C1254 1.403 . S
C1257 C1258 1.392 . S
C1257 C1261 1.495 . S
C1258 C1257 1.392 . S
C1258 C1259 1.385 . S
C1258 C1260 1.478 . S
C1259 H1253 0.930 . S
C1259 C1255 1.400 . S
C1259 C1258 1.385 . S
C1260 C1258 1.478 . S
C1260 C1262 1.381 . S
C1260 C1266 1.383 . S
C1261 C1257 1.495 . S
C1261 H1267 0.959 . S
C1261 H1268 0.961 . S
C1261 H1269 0.960 . S
C1262 C1260 1.381 . S
C1262 C1263 1.394 . S
C1262 H1270 0.930 . S
C1263 C1262 1.394 . S
C1263 C1264 1.383 . S
C1263 H1271 0.929 . S
C1264 C1263 1.383 . S
C1264 C1265 1.377 . S
C1265 H1249 0.930 . S
C1265 C1264 1.377 . S
C1265 C1266 1.379 . S
C1266 H1250 0.931 . S
C1266 C1260 1.383 . S
C1266 C1265 1.379 . S
H1267 C1261 0.959 . S
H1268 C1261 0.961 . S
H1269 C1261 0.960 . S
H1270 C1262 0.930 . S
H1271 C1263 0.929 . S
H1272 C1280 0.929 . S
H1273 C1282 0.930 . S
H1274 C1284 0.930 . S
H1275 C1287 0.929 . S
H1276 C1290 0.930 . S
H1277 C1292 0.960 1_655 S
H1278 C1292 0.960 . S
H1279 C1292 0.960 . S
C1280 H1272 0.929 . S
C1280 C1281 1.377 . S
C1280 C1282 1.384 . S
C1281 C1280 1.377 . S
C1281 C1287 1.390 . S
C1282 H1273 0.930 . S
C1282 C1280 1.384 . S
C1282 C1283 1.372 . S
C1283 C1282 1.372 . S
C1283 C1284 1.400 . S
C1283 C1288 1.490 . S
C1284 H1274 0.930 . S
C1284 C1283 1.400 . S
C1284 C1287 1.386 . S
H1285 C1301 0.930 . S
H1286 C1302 0.931 . S
C1287 H1275 0.929 . S
C1287 C1281 1.390 . S
C1287 C1284 1.386 . S
C1288 C1283 1.490 . S
C1288 C1290 1.395 . S
C1288 C1291 1.403 . S
H1289 C1295 0.930 . S
C1290 H1276 0.930 . S
C1290 C1288 1.395 . S
C1290 C1293 1.403 1_456 S
C1291 C1288 1.403 . S
C1291 C1292 1.524 . S
C1291 C1295 1.400 1_456 S
C1292 H1277 0.960 1_455 S
C1292 H1278 0.960 . S
C1292 H1279 0.960 . S
C1292 C1291 1.524 . S
C1293 C1290 1.403 1_654 S
C1293 C1294 1.392 . S
C1293 C1297 1.495 . S
C1294 C1293 1.392 . S
C1294 C1295 1.385 . S
C1294 C1296 1.478 . S
C1295 H1289 0.930 . S
C1295 C1291 1.400 1_654 S
C1295 C1294 1.385 . S
C1296 C1294 1.478 . S
C1296 C1298 1.381 . S
C1296 C1302 1.383 . S
C1297 C1293 1.495 . S
C1297 H1303 0.963 1_655 S
C1297 H1304 0.961 . S
C1297 H1305 0.960 . S
C1298 C1296 1.381 . S
C1298 C1299 1.394 . S
C1298 H1306 0.930 . S
C1299 C1298 1.394 . S
C1299 C1300 1.383 . S
C1299 H1307 0.929 . S
C1300 C1299 1.383 . S
C1300 C1301 1.377 . S
C1301 H1285 0.930 . S
C1301 C1300 1.377 . S
C1301 C1302 1.379 . S
C1302 H1286 0.931 . S
C1302 C1296 1.383 . S
C1302 C1301 1.379 . S
H1303 C1297 0.963 1_455 S
H1304 C1297 0.961 . S
H1305 C1297 0.960 . S
H1306 C1298 0.930 . S
H1307 C1299 0.929 . S
H1308 C1316 0.929 . S
H1309 C1318 0.930 . S
H1310 C1320 0.930 . S
H1311 C1323 0.929 . S
H1312 C1326 0.930 . S
H1313 C1328 0.960 . S
H1314 C1328 0.960 . S
H1315 C1328 0.960 . S
C1316 H1308 0.929 . S
C1316 C1317 1.377 . S
C1316 C1318 1.384 . S
C1317 C1316 1.377 . S
C1317 C1323 1.390 . S
C1318 H1309 0.930 . S
C1318 C1316 1.384 . S
C1318 C1319 1.372 . S
C1319 C1318 1.372 . S
C1319 C1320 1.400 . S
C1319 C1324 1.490 . S
C1320 H1310 0.930 . S
C1320 C1319 1.400 . S
C1320 C1323 1.386 . S
H1321 C1337 0.930 . S
H1322 C1338 0.931 . S
C1323 H1311 0.929 . S
C1323 C1317 1.390 . S
C1323 C1320 1.386 . S
C1324 C1319 1.490 . S
C1324 C1326 1.395 1_545 S
C1324 C1327 1.403 . S
H1325 C1331 0.935 . S
C1326 H1312 0.930 . S
C1326 C1324 1.395 1_565 S
C1326 C1329 1.403 . S
C1327 C1324 1.403 . S
C1327 C1328 1.524 . S
C1327 C1331 1.400 1_545 S
C1328 H1313 0.960 . S
C1328 H1314 0.960 . S
C1328 H1315 0.960 . S
C1328 C1327 1.524 . S
C1329 C1326 1.403 . S
C1329 C1330 1.392 . S
C1329 C1333 1.495 . S
C1330 C1329 1.392 . S
C1330 C1331 1.385 . S
C1330 C1332 1.478 . S
C1331 H1325 0.935 . S
C1331 C1327 1.400 1_565 S
C1331 C1330 1.385 . S
C1332 C1330 1.478 . S
C1332 C1334 1.381 . S
C1332 C1338 1.383 . S
C1333 C1329 1.495 . S
C1333 H1339 0.959 . S
C1333 H1340 0.961 . S
C1333 H1341 0.960 . S
C1334 C1332 1.381 . S
C1334 C1335 1.394 . S
C1334 H1342 0.930 . S
C1335 C1334 1.394 . S
C1335 C1336 1.383 . S
C1335 H1343 0.929 . S
C1336 C1335 1.383 . S
C1336 C1337 1.377 . S
C1337 H1321 0.930 . S
C1337 C1336 1.377 . S
C1337 C1338 1.379 . S
C1338 H1322 0.931 . S
C1338 C1332 1.383 . S
C1338 C1337 1.379 . S
H1339 C1333 0.959 . S
H1340 C1333 0.961 . S
H1341 C1333 0.960 . S
H1342 C1334 0.930 . S
H1343 C1335 0.929 . S
H1344 C1352 0.929 . S
H1345 C1354 0.930 . S
H1346 C1356 0.930 . S
H1347 C1359 0.929 . S
H1348 C1362 0.930 . S
H1349 C1364 0.960 . S
H1350 C1364 0.960 . S
H1351 C1364 0.960 . S
C1352 H1344 0.929 . S
C1352 C1353 1.377 . S
C1352 C1354 1.384 . S
C1353 C1352 1.377 . S
C1353 C1359 1.390 . S
C1354 H1345 0.930 . S
C1354 C1352 1.384 . S
C1354 C1355 1.372 . S
C1355 C1354 1.372 . S
C1355 C1356 1.400 . S
C1355 C1360 1.490 . S
C1356 H1346 0.930 . S
C1356 C1355 1.400 . S
C1356 C1359 1.386 . S
H1357 C1373 0.930 . S
H1358 C1374 0.931 . S
C1359 H1347 0.929 . S
C1359 C1353 1.390 . S
C1359 C1356 1.386 . S
C1360 C1355 1.490 . S
C1360 C1362 1.395 . S
C1360 C1363 1.403 . S
H1361 C1367 0.930 . S
C1362 H1348 0.930 . S
C1362 C1360 1.395 . S
C1362 C1365 1.403 1_554 S
C1363 C1360 1.403 . S
C1363 C1364 1.524 . S
C1363 C1367 1.400 1_554 S
C1364 H1349 0.960 . S
C1364 H1350 0.960 . S
C1364 H1351 0.960 . S
C1364 C1363 1.524 . S
C1365 C1362 1.403 1_556 S
C1365 C1366 1.392 . S
C1365 C1369 1.495 . S
C1366 C1365 1.392 . S
C1366 C1367 1.385 . S
C1366 C1368 1.478 . S
C1367 H1361 0.930 . S
C1367 C1363 1.400 1_556 S
C1367 C1366 1.385 . S
C1368 C1366 1.478 . S
C1368 C1370 1.381 . S
C1368 C1374 1.383 . S
C1369 C1365 1.495 . S
C1369 H1375 0.959 . S
C1369 H1376 0.961 . S
C1369 H1377 0.960 . S
C1370 C1368 1.381 . S
C1370 C1371 1.394 . S
C1370 H1378 0.930 . S
C1371 C1370 1.394 . S
C1371 C1372 1.383 . S
C1371 H1379 0.929 . S
C1372 C1371 1.383 . S
C1372 C1373 1.377 . S
C1373 H1357 0.930 . S
C1373 C1372 1.377 . S
C1373 C1374 1.379 . S
C1374 H1358 0.931 . S
C1374 C1368 1.383 . S
C1374 C1373 1.379 . S
H1375 C1369 0.959 . S
H1376 C1369 0.961 . S
H1377 C1369 0.960 . S
H1378 C1370 0.930 . S
H1379 C1371 0.929 . S
H1380 C1388 0.929 . S
H1381 C1390 0.930 . S
H1382 C1392 0.930 . S
H1383 C1395 0.929 . S
H1384 C1398 0.930 . S
H1385 C1400 0.960 . S
H1386 C1400 0.960 . S
H1387 C1400 0.960 1_455 S
C1388 H1380 0.929 . S
C1388 C1389 1.377 . S
C1388 C1390 1.384 . S
C1389 C1388 1.377 . S
C1389 C1395 1.390 . S
C1390 H1381 0.930 . S
C1390 C1388 1.384 . S
C1390 C1391 1.372 . S
C1391 C1390 1.372 . S
C1391 C1392 1.400 . S
C1391 C1396 1.490 . S
C1392 H1382 0.930 . S
C1392 C1391 1.400 . S
C1392 C1395 1.386 . S
H1393 C1409 0.930 . S
H1394 C1410 0.931 . S
C1395 H1383 0.929 . S
C1395 C1389 1.390 . S
C1395 C1392 1.386 . S
C1396 C1391 1.490 . S
C1396 C1398 1.395 . S
C1396 C1399 1.370 1_455 S
H1397 C1403 0.930 . S
C1398 H1384 0.930 . S
C1398 C1396 1.395 . S
C1398 C1401 1.403 . S
C1399 C1396 1.370 1_655 S
C1399 C1400 1.518 . S
C1399 C1403 1.445 . S
C1400 H1385 0.960 . S
C1400 H1386 0.960 . S
C1400 H1387 0.960 1_655 S
C1400 C1399 1.518 . S
C1401 C1398 1.403 . S
C1401 C1402 1.392 1_455 S
C1401 C1405 1.495 . S
C1402 C1401 1.392 1_655 S
C1402 C1403 1.385 . S
C1402 C1404 1.478 . S
C1403 H1397 0.930 . S
C1403 C1399 1.445 . S
C1403 C1402 1.385 . S
C1404 C1402 1.478 . S
C1404 C1406 1.381 . S
C1404 C1410 1.383 . S
C1405 C1401 1.495 . S
C1405 H1411 0.959 . S
C1405 H1412 0.961 . S
C1405 H1413 0.960 1_455 S
C1406 C1404 1.381 . S
C1406 C1407 1.394 . S
C1406 H1414 0.930 . S
C1407 C1406 1.394 . S
C1407 C1408 1.383 . S
C1407 H1415 0.929 . S
C1408 C1407 1.383 . S
C1408 C1409 1.377 . S
C1409 H1393 0.930 . S
C1409 C1408 1.377 . S
C1409 C1410 1.379 . S
C1410 H1394 0.931 . S
C1410 C1404 1.383 . S
C1410 C1409 1.379 . S
H1411 C1405 0.959 . S
H1412 C1405 0.961 . S
H1413 C1405 0.960 1_655 S
H1414 C1406 0.930 . S
H1415 C1407 0.929 . S
H1416 C1424 0.929 . S
H1417 C1426 0.930 . S
H1418 C1428 0.930 . S
H1419 C1431 0.929 . S
H1420 C1434 0.929 . S
H1421 C1436 0.960 1_545 S
H1422 C1436 0.960 . S
H1423 C1436 0.960 . S
C1424 H1416 0.929 . S
C1424 C1425 1.377 . S
C1424 C1426 1.384 . S
C1425 C1424 1.377 . S
C1425 C1431 1.390 . S
C1426 H1417 0.930 . S
C1426 C1424 1.384 . S
C1426 C1427 1.372 . S
C1427 C1426 1.372 . S
C1427 C1428 1.400 . S
C1427 C1432 1.490 . S
C1428 H1418 0.930 . S
C1428 C1427 1.400 . S
C1428 C1431 1.386 . S
H1429 C1445 0.930 . S
H1430 C1446 0.931 . S
C1431 H1419 0.929 . S
C1431 C1425 1.390 . S
C1431 C1428 1.386 . S
C1432 C1427 1.490 . S
C1432 C1434 1.399 . S
C1432 C1435 1.403 . S
H1433 C1439 0.930 . S
C1434 H1420 0.929 . S
C1434 C1432 1.399 . S
C1434 C1437 1.399 1_566 S
C1435 C1432 1.403 . S
C1435 C1436 1.524 . S
C1435 C1439 1.400 1_566 S
C1436 H1421 0.960 1_565 S
C1436 H1422 0.960 . S
C1436 H1423 0.960 . S
C1436 C1435 1.524 . S
C1437 C1434 1.399 1_544 S
C1437 C1438 1.392 . S
C1437 C1441 1.495 . S
C1438 C1437 1.392 . S
C1438 C1439 1.385 . S
C1438 C1440 1.478 . S
C1439 H1433 0.930 . S
C1439 C1435 1.400 1_544 S
C1439 C1438 1.385 . S
C1440 C1438 1.478 . S
C1440 C1442 1.381 . S
C1440 C1446 1.383 . S
C1441 C1437 1.495 . S
C1441 H1447 0.959 1_545 S
C1441 H1448 0.961 . S
C1441 H1449 0.960 . S
C1442 C1440 1.381 . S
C1442 C1443 1.394 . S
C1442 H1450 0.930 . S
C1443 C1442 1.394 . S
C1443 C1444 1.383 . S
C1443 H1451 0.929 . S
C1444 C1443 1.383 . S
C1444 C1445 1.377 . S
C1445 H1429 0.930 . S
C1445 C1444 1.377 . S
C1445 C1446 1.379 . S
C1446 H1430 0.931 . S
C1446 C1440 1.383 . S
C1446 C1445 1.379 . S
H1447 C1441 0.959 1_565 S
H1448 C1441 0.961 . S
H1449 C1441 0.960 . S
H1450 C1442 0.930 . S
H1451 C1443 0.929 . S
H1452 C1460 0.929 . S
H1453 C1462 0.930 . S
H1454 C1464 0.930 . S
H1455 C1467 0.929 . S
H1456 C1470 0.930 . S
H1457 C1472 0.960 . S
H1458 C1472 0.960 . S
H1459 C1472 0.960 . S
C1460 H1452 0.929 . S
C1460 C1461 1.377 . S
C1460 C1462 1.384 . S
C1461 C1460 1.377 . S
C1461 C1467 1.390 . S
C1462 H1453 0.930 . S
C1462 C1460 1.384 . S
C1462 C1463 1.372 . S
C1463 C1462 1.372 . S
C1463 C1464 1.400 . S
C1463 C1468 1.490 . S
C1464 H1454 0.930 . S
C1464 C1463 1.400 . S
C1464 C1467 1.386 . S
H1465 C1481 0.930 . S
H1466 C1482 0.931 . S
C1467 H1455 0.929 . S
C1467 C1461 1.390 . S
C1467 C1464 1.386 . S
C1468 C1463 1.490 . S
C1468 C1470 1.395 . S
C1468 C1471 1.403 . S
H1469 C1475 0.930 . S
C1470 H1456 0.930 . S
C1470 C1468 1.395 . S
C1470 C1473 1.403 . S
C1471 C1468 1.403 . S
C1471 C1472 1.524 . S
C1471 C1475 1.400 . S
C1472 H1457 0.960 . S
C1472 H1458 0.960 . S
C1472 H1459 0.960 . S
C1472 C1471 1.524 . S
C1473 C1470 1.403 . S
C1473 C1474 1.392 . S
C1473 C1477 1.495 . S
C1474 C1473 1.392 . S
C1474 C1475 1.385 . S
C1474 C1476 1.478 . S
C1475 H1469 0.930 . S
C1475 C1471 1.400 . S
C1475 C1474 1.385 . S
C1476 C1474 1.478 . S
C1476 C1478 1.381 . S
C1476 C1482 1.383 . S
C1477 C1473 1.495 . S
C1477 H1483 0.959 . S
C1477 H1484 0.961 . S
C1477 H1485 0.960 . S
C1478 C1476 1.381 . S
C1478 C1479 1.394 . S
C1478 H1486 0.930 . S
C1479 C1478 1.394 . S
C1479 C1480 1.383 . S
C1479 H1487 0.929 . S
C1480 C1479 1.383 . S
C1480 C1481 1.377 . S
C1481 H1465 0.930 . S
C1481 C1480 1.377 . S
C1481 C1482 1.379 . S
C1482 H1466 0.931 . S
C1482 C1476 1.383 . S
C1482 C1481 1.379 . S
H1483 C1477 0.959 . S
H1484 C1477 0.961 . S
H1485 C1477 0.960 . S
H1486 C1478 0.930 . S
H1487 C1479 0.929 . S
H1488 C1496 0.929 . S
H1489 C1498 0.930 . S
H1490 C1500 0.930 . S
H1491 C1503 0.929 . S
H1492 C1506 0.918 1_655 S
H1493 C1508 0.960 . S
H1494 C1508 0.960 . S
H1495 C1508 0.960 . S
C1496 H1488 0.929 . S
C1496 C1497 1.377 . S
C1496 C1498 1.384 . S
C1497 C1496 1.377 . S
C1497 C1503 1.390 . S
C1498 H1489 0.930 . S
C1498 C1496 1.384 . S
C1498 C1499 1.372 . S
C1499 C1498 1.372 . S
C1499 C1500 1.400 . S
C1499 C1504 1.490 . S
C1500 H1490 0.930 . S
C1500 C1499 1.400 . S
C1500 C1503 1.386 . S
H1501 C1517 0.930 . S
H1502 C1518 0.931 . S
C1503 H1491 0.929 . S
C1503 C1497 1.390 . S
C1503 C1500 1.386 . S
C1504 C1499 1.490 . S
C1504 C1506 1.395 1_655 S
C1504 C1507 1.403 1_554 S
H1505 C1511 0.930 . S
C1506 H1492 0.918 1_455 S
C1506 C1504 1.395 1_455 S
C1506 C1509 1.403 . S
C1507 C1504 1.403 1_556 S
C1507 C1508 1.524 . S
C1507 C1511 1.400 1_655 S
C1508 H1493 0.960 . S
C1508 H1494 0.960 . S
C1508 H1495 0.960 . S
C1508 C1507 1.524 . S
C1509 C1506 1.403 . S
C1509 C1510 1.392 1_554 S
C1509 C1513 1.495 . S
C1510 C1509 1.392 1_556 S
C1510 C1511 1.385 . S
C1510 C1512 1.478 . S
C1511 H1505 0.930 . S
C1511 C1507 1.400 1_455 S
C1511 C1510 1.385 . S
C1512 C1510 1.478 . S
C1512 C1514 1.381 . S
C1512 C1518 1.383 . S
C1513 C1509 1.495 . S
C1513 H1519 0.959 . S
C1513 H1520 0.961 . S
C1513 H1521 0.960 . S
C1514 C1512 1.381 . S
C1514 C1515 1.394 . S
C1514 H1522 0.930 . S
C1515 C1514 1.394 . S
C1515 C1516 1.383 . S
C1515 H1523 0.929 . S
C1516 C1515 1.383 . S
C1516 C1517 1.377 . S
C1517 H1501 0.930 . S
C1517 C1516 1.377 . S
C1517 C1518 1.379 . S
C1518 H1502 0.931 . S
C1518 C1512 1.383 . S
C1518 C1517 1.379 . S
H1519 C1513 0.959 . S
H1520 C1513 0.961 . S
H1521 C1513 0.960 . S
H1522 C1514 0.930 . S
H1523 C1515 0.929 . S
H1524 C1532 0.929 . S
H1525 C1534 0.930 . S
H1526 C1536 0.930 . S
H1527 C1539 0.929 . S
H1528 C1542 0.930 . S
H1529 C1544 0.960 . S
H1530 C1544 0.960 . S
H1531 C1544 0.960 . S
C1532 H1524 0.929 . S
C1532 C1533 1.377 . S
C1532 C1534 1.384 . S
C1533 C1532 1.377 . S
C1533 C1539 1.390 . S
C1534 H1525 0.930 . S
C1534 C1532 1.384 . S
C1534 C1535 1.372 . S
C1535 C1534 1.372 . S
C1535 C1536 1.400 . S
C1535 C1540 1.490 . S
C1536 H1526 0.930 . S
C1536 C1535 1.400 . S
C1536 C1539 1.386 . S
H1537 C1553 0.930 . S
H1538 C1554 0.931 . S
C1539 H1527 0.929 . S
C1539 C1533 1.390 . S
C1539 C1536 1.386 . S
C1540 C1535 1.490 . S
C1540 C1542 1.395 1_565 S
C1540 C1543 1.403 . S
H1541 C1547 0.931 . S
C1542 H1528 0.930 . S
C1542 C1540 1.395 1_545 S
C1542 C1545 1.403 . S
C1543 C1540 1.403 . S
C1543 C1544 1.524 . S
C1543 C1547 1.400 1_565 S
C1544 H1529 0.960 . S
C1544 H1530 0.960 . S
C1544 H1531 0.960 . S
C1544 C1543 1.524 . S
C1545 C1542 1.403 . S
C1545 C1546 1.392 . S
C1545 C1549 1.495 . S
C1546 C1545 1.392 . S
C1546 C1547 1.385 . S
C1546 C1548 1.478 . S
C1547 H1541 0.931 . S
C1547 C1543 1.400 1_545 S
C1547 C1546 1.385 . S
C1548 C1546 1.478 . S
C1548 C1550 1.381 . S
C1548 C1554 1.383 . S
C1549 C1545 1.495 . S
C1549 H1555 0.959 . S
C1549 H1556 0.961 . S
C1549 H1557 0.960 . S
C1550 C1548 1.381 . S
C1550 C1551 1.394 . S
C1550 H1558 0.930 . S
C1551 C1550 1.394 . S
C1551 C1552 1.383 . S
C1551 H1559 0.929 . S
C1552 C1551 1.383 . S
C1552 C1553 1.377 . S
C1553 H1537 0.930 . S
C1553 C1552 1.377 . S
C1553 C1554 1.379 . S
C1554 H1538 0.931 . S
C1554 C1548 1.383 . S
C1554 C1553 1.379 . S
H1555 C1549 0.959 . S
H1556 C1549 0.961 . S
H1557 C1549 0.960 . S
H1558 C1550 0.930 . S
H1559 C1551 0.929 . S
H1560 C1568 0.929 . S
H1561 C1570 0.930 . S
H1562 C1572 0.930 . S
H1563 C1575 0.929 . S
H1564 C1578 0.928 1_554 S
H1565 C1580 0.960 . S
H1566 C1580 0.960 . S
H1567 C1580 0.960 . S
C1568 H1560 0.929 . S
C1568 C1569 1.377 . S
C1568 C1570 1.384 . S
C1569 C1568 1.377 . S
C1569 C1575 1.390 . S
C1570 H1561 0.930 . S
C1570 C1568 1.384 . S
C1570 C1571 1.372 . S
C1571 C1570 1.372 . S
C1571 C1572 1.400 . S
C1571 C1576 1.490 . S
C1572 H1562 0.930 . S
C1572 C1571 1.400 . S
C1572 C1575 1.386 . S
H1573 C1589 0.930 . S
H1574 C1590 0.931 . S
C1575 H1563 0.929 . S
C1575 C1569 1.390 . S
C1575 C1572 1.386 . S
C1576 C1571 1.490 . S
C1576 C1578 1.390 1_554 S
C1576 C1579 1.403 . S
H1577 C1583 0.930 . S
C1578 H1564 0.928 1_556 S
C1578 C1576 1.390 1_556 S
C1578 C1581 1.408 . S
C1579 C1576 1.403 . S
C1579 C1580 1.524 . S
C1579 C1583 1.400 1_554 S
C1580 H1565 0.960 . S
C1580 H1566 0.960 . S
C1580 H1567 0.960 . S
C1580 C1579 1.524 . S
C1581 C1578 1.408 . S
C1581 C1582 1.392 . S
C1581 C1585 1.495 . S
C1582 C1581 1.392 . S
C1582 C1583 1.385 . S
C1582 C1584 1.478 . S
C1583 H1577 0.930 . S
C1583 C1579 1.400 1_556 S
C1583 C1582 1.385 . S
C1584 C1582 1.478 . S
C1584 C1586 1.381 . S
C1584 C1590 1.383 . S
C1585 C1581 1.495 . S
C1585 H1591 0.959 . S
C1585 H1592 0.961 . S
C1585 H1593 0.960 . S
C1586 C1584 1.381 . S
C1586 C1587 1.394 . S
C1586 H1594 0.930 . S
C1587 C1586 1.394 . S
C1587 C1588 1.383 . S
C1587 H1595 0.929 . S
C1588 C1587 1.383 . S
C1588 C1589 1.377 . S
C1589 H1573 0.930 . S
C1589 C1588 1.377 . S
C1589 C1590 1.379 . S
C1590 H1574 0.931 . S
C1590 C1584 1.383 . S
C1590 C1589 1.379 . S
H1591 C1585 0.959 . S
H1592 C1585 0.961 . S
H1593 C1585 0.960 . S
H1594 C1586 0.930 . S
H1595 C1587 0.929 . S
H1596 C1604 0.929 . S
H1597 C1606 0.930 . S
H1598 C1608 0.930 . S
H1599 C1611 0.929 . S
H1600 C1614 0.930 . S
H1601 C1616 0.960 . S
H1602 C1616 0.960 . S
H1603 C1616 0.960 . S
C1604 H1596 0.929 . S
C1604 C1605 1.377 . S
C1604 C1606 1.384 . S
C1605 C1604 1.377 . S
C1605 C1611 1.390 . S
C1606 H1597 0.930 . S
C1606 C1604 1.384 . S
C1606 C1607 1.372 . S
C1607 C1606 1.372 . S
C1607 C1608 1.400 . S
C1607 C1612 1.490 . S
C1608 H1598 0.930 . S
C1608 C1607 1.400 . S
C1608 C1611 1.386 . S
H1609 C1625 0.930 . S
H1610 C1626 0.931 . S
C1611 H1599 0.929 . S
C1611 C1605 1.390 . S
C1611 C1608 1.386 . S
C1612 C1607 1.490 . S
C1612 C1614 1.395 . S
C1612 C1615 1.403 . S
H1613 C1619 0.930 . S
C1614 H1600 0.930 . S
C1614 C1612 1.395 . S
C1614 C1617 1.403 1_455 S
C1615 C1612 1.403 . S
C1615 C1616 1.524 . S
C1615 C1619 1.400 1_455 S
C1616 H1601 0.960 . S
C1616 H1602 0.960 . S
C1616 H1603 0.960 . S
C1616 C1615 1.524 . S
C1617 C1614 1.403 1_655 S
C1617 C1618 1.392 . S
C1617 C1621 1.495 . S
C1618 C1617 1.392 . S
C1618 C1619 1.385 . S
C1618 C1620 1.478 . S
C1619 H1613 0.930 . S
C1619 C1615 1.400 1_655 S
C1619 C1618 1.385 . S
C1620 C1618 1.478 . S
C1620 C1622 1.381 . S
C1620 C1626 1.383 . S
C1621 C1617 1.495 . S
C1621 H1627 0.959 . S
C1621 H1628 0.961 . S
C1621 H1629 0.960 . S
C1622 C1620 1.381 . S
C1622 C1623 1.394 . S
C1622 H1630 0.930 . S
C1623 C1622 1.394 . S
C1623 C1624 1.383 . S
C1623 H1631 0.929 . S
C1624 C1623 1.383 . S
C1624 C1625 1.377 . S
C1625 H1609 0.930 . S
C1625 C1624 1.377 . S
C1625 C1626 1.379 . S
C1626 H1610 0.931 . S
C1626 C1620 1.383 . S
C1626 C1625 1.379 . S
H1627 C1621 0.959 . S
H1628 C1621 0.961 . S
H1629 C1621 0.960 . S
H1630 C1622 0.930 . S
H1631 C1623 0.929 . S
H1632 C1640 0.929 . S
H1633 C1642 0.930 . S
H1634 C1644 0.930 . S
H1635 C1647 0.929 . S
H1636 C1650 0.930 . S
H1637 C1652 0.960 . S
H1638 C1652 0.960 . S
H1639 C1652 0.960 . S
C1640 H1632 0.929 . S
C1640 C1641 1.377 . S
C1640 C1642 1.384 . S
C1641 C1640 1.377 . S
C1641 C1647 1.390 . S
C1642 H1633 0.930 . S
C1642 C1640 1.384 . S
C1642 C1643 1.372 . S
C1643 C1642 1.372 . S
C1643 C1644 1.400 . S
C1643 C1648 1.490 . S
C1644 H1634 0.930 . S
C1644 C1643 1.400 . S
C1644 C1647 1.386 . S
H1645 C1661 0.930 . S
H1646 C1662 0.931 . S
C1647 H1635 0.929 . S
C1647 C1641 1.390 . S
C1647 C1644 1.386 . S
C1648 C1643 1.490 . S
C1648 C1650 1.395 . S
C1648 C1651 1.403 . S
H1649 C1655 0.930 . S
C1650 H1636 0.930 . S
C1650 C1648 1.395 . S
C1650 C1653 1.403 . S
C1651 C1648 1.403 . S
C1651 C1652 1.524 . S
C1651 C1655 1.400 . S
C1652 H1637 0.960 . S
C1652 H1638 0.960 . S
C1652 H1639 0.960 . S
C1652 C1651 1.524 . S
C1653 C1650 1.403 . S
C1653 C1654 1.392 . S
C1653 C1657 1.495 . S
C1654 C1653 1.392 . S
C1654 C1655 1.385 . S
C1654 C1656 1.478 . S
C1655 H1649 0.930 . S
C1655 C1651 1.400 . S
C1655 C1654 1.385 . S
C1656 C1654 1.478 . S
C1656 C1658 1.381 . S
C1656 C1662 1.383 . S
C1657 C1653 1.495 . S
C1657 H1663 0.959 . S
C1657 H1664 0.961 . S
C1657 H1665 0.960 . S
C1658 C1656 1.381 . S
C1658 C1659 1.394 . S
C1658 H1666 0.930 . S
C1659 C1658 1.394 . S
C1659 C1660 1.383 . S
C1659 H1667 0.929 . S
C1660 C1659 1.383 . S
C1660 C1661 1.377 . S
C1661 H1645 0.930 . S
C1661 C1660 1.377 . S
C1661 C1662 1.379 . S
C1662 H1646 0.931 . S
C1662 C1656 1.383 . S
C1662 C1661 1.379 . S
H1663 C1657 0.959 . S
H1664 C1657 0.961 . S
H1665 C1657 0.960 . S
H1666 C1658 0.930 . S
H1667 C1659 0.929 . S
H1668 C1676 0.929 . S
H1669 C1678 0.930 . S
H1670 C1680 0.930 . S
H1671 C1683 0.929 . S
H1672 C1686 0.930 . S
H1673 C1688 0.960 . S
H1674 C1688 0.960 . S
H1675 C1688 0.960 . S
C1676 H1668 0.929 . S
C1676 C1677 1.377 . S
C1676 C1678 1.384 . S
C1677 C1676 1.377 . S
C1677 C1683 1.390 . S
C1678 H1669 0.930 . S
C1678 C1676 1.384 . S
C1678 C1679 1.372 . S
C1679 C1678 1.372 . S
C1679 C1680 1.400 . S
C1679 C1684 1.490 . S
C1680 H1670 0.930 . S
C1680 C1679 1.400 . S
C1680 C1683 1.386 . S
H1681 C1697 0.930 . S
H1682 C1698 0.931 . S
C1683 H1671 0.929 . S
C1683 C1677 1.390 . S
C1683 C1680 1.386 . S
C1684 C1679 1.490 . S
C1684 C1686 1.395 . S
C1684 C1687 1.403 . S
H1685 C1691 0.930 . S
C1686 H1672 0.930 . S
C1686 C1684 1.395 . S
C1686 C1689 1.403 . S
C1687 C1684 1.403 . S
C1687 C1688 1.524 . S
C1687 C1691 1.400 . S
C1688 H1673 0.960 . S
C1688 H1674 0.960 . S
C1688 H1675 0.960 . S
C1688 C1687 1.524 . S
C1689 C1686 1.403 . S
C1689 C1690 1.392 . S
C1689 C1693 1.495 . S
C1690 C1689 1.392 . S
C1690 C1691 1.385 . S
C1690 C1692 1.478 . S
C1691 H1685 0.930 . S
C1691 C1687 1.400 . S
C1691 C1690 1.385 . S
C1692 C1690 1.478 . S
C1692 C1694 1.381 . S
C1692 C1698 1.383 . S
C1693 C1689 1.495 . S
C1693 H1699 0.959 . S
C1693 H1700 0.961 . S
C1693 H1701 0.960 . S
C1694 C1692 1.381 . S
C1694 C1695 1.394 . S
C1694 H1702 0.930 . S
C1695 C1694 1.394 . S
C1695 C1696 1.383 . S
C1695 H1703 0.929 . S
C1696 C1695 1.383 . S
C1696 C1697 1.377 . S
C1697 H1681 0.930 . S
C1697 C1696 1.377 . S
C1697 C1698 1.379 . S
C1698 H1682 0.931 . S
C1698 C1692 1.383 . S
C1698 C1697 1.379 . S
H1699 C1693 0.959 . S
H1700 C1693 0.961 . S
H1701 C1693 0.960 . S
H1702 C1694 0.930 . S
H1703 C1695 0.929 . S
H1704 C1712 0.929 . S
H1705 C1714 0.930 . S
H1706 C1716 0.930 . S
H1707 C1719 0.929 . S
H1708 C1722 0.930 . S
H1709 C1724 0.960 . S
H1710 C1724 0.960 . S
H1711 C1724 0.960 . S
C1712 H1704 0.929 . S
C1712 C1713 1.377 . S
C1712 C1714 1.384 . S
C1713 C1712 1.377 . S
C1713 C1719 1.390 . S
C1714 H1705 0.930 . S
C1714 C1712 1.384 . S
C1714 C1715 1.372 . S
C1715 C1714 1.372 . S
C1715 C1716 1.400 . S
C1715 C1720 1.490 . S
C1716 H1706 0.930 . S
C1716 C1715 1.400 . S
C1716 C1719 1.386 . S
H1717 C1733 0.930 . S
H1718 C1734 0.931 . S
C1719 H1707 0.929 . S
C1719 C1713 1.390 . S
C1719 C1716 1.386 . S
C1720 C1715 1.490 . S
C1720 C1722 1.395 . S
C1720 C1723 1.403 . S
H1721 C1727 0.930 . S
C1722 H1708 0.930 . S
C1722 C1720 1.395 . S
C1722 C1725 1.403 . S
C1723 C1720 1.403 . S
C1723 C1724 1.524 . S
C1723 C1727 1.400 . S
C1724 H1709 0.960 . S
C1724 H1710 0.960 . S
C1724 H1711 0.960 . S
C1724 C1723 1.524 . S
C1725 C1722 1.403 . S
C1725 C1726 1.392 . S
C1725 C1729 1.495 . S
C1726 C1725 1.392 . S
C1726 C1727 1.385 . S
C1726 C1728 1.478 . S
C1727 H1721 0.930 . S
C1727 C1723 1.400 . S
C1727 C1726 1.385 . S
C1728 C1726 1.478 . S
C1728 C1730 1.381 . S
C1728 C1734 1.383 . S
C1729 C1725 1.495 . S
C1729 H1735 0.959 . S
C1729 H1736 0.961 . S
C1729 H1737 0.960 . S
C1730 C1728 1.381 . S
C1730 C1731 1.394 . S
C1730 H1738 0.930 . S
C1731 C1730 1.394 . S
C1731 C1732 1.383 . S
C1731 H1739 0.929 . S
C1732 C1731 1.383 . S
C1732 C1733 1.377 . S
C1733 H1717 0.930 . S
C1733 C1732 1.377 . S
C1733 C1734 1.379 . S
C1734 H1718 0.931 . S
C1734 C1728 1.383 . S
C1734 C1733 1.379 . S
H1735 C1729 0.959 . S
H1736 C1729 0.961 . S
H1737 C1729 0.960 . S
H1738 C1730 0.930 . S
H1739 C1731 0.929 . S
H1740 C1748 0.929 . S
H1741 C1750 0.930 . S
H1742 C1752 0.930 . S
H1743 C1755 0.929 . S
H1744 C1758 0.930 . S
H1745 C1760 0.960 . S
H1746 C1760 0.960 . S
H1747 C1760 0.960 . S
C1748 H1740 0.929 . S
C1748 C1749 1.377 . S
C1748 C1750 1.384 . S
C1749 C1748 1.377 . S
C1749 C1755 1.390 . S
C1750 H1741 0.930 . S
C1750 C1748 1.384 . S
C1750 C1751 1.372 . S
C1751 C1750 1.372 . S
C1751 C1752 1.400 . S
C1751 C1756 1.490 . S
C1752 H1742 0.930 . S
C1752 C1751 1.400 . S
C1752 C1755 1.386 . S
H1753 C1769 0.930 . S
H1754 C1770 0.931 . S
C1755 H1743 0.929 . S
C1755 C1749 1.390 . S
C1755 C1752 1.386 . S
C1756 C1751 1.490 . S
C1756 C1758 1.395 . S
C1756 C1759 1.403 . S
H1757 C1763 0.930 . S
C1758 H1744 0.930 . S
C1758 C1756 1.395 . S
C1758 C1761 1.403 . S
C1759 C1756 1.403 . S
C1759 C1760 1.524 . S
C1759 C1763 1.400 . S
C1760 H1745 0.960 . S
C1760 H1746 0.960 . S
C1760 H1747 0.960 . S
C1760 C1759 1.524 . S
C1761 C1758 1.403 . S
C1761 C1762 1.392 . S
C1761 C1765 1.495 . S
C1762 C1761 1.392 . S
C1762 C1763 1.385 . S
C1762 C1764 1.478 . S
C1763 H1757 0.930 . S
C1763 C1759 1.400 . S
C1763 C1762 1.385 . S
C1764 C1762 1.478 . S
C1764 C1766 1.381 . S
C1764 C1770 1.383 . S
C1765 C1761 1.495 . S
C1765 H1771 0.959 . S
C1765 H1772 0.961 . S
C1765 H1773 0.960 . S
C1766 C1764 1.381 . S
C1766 C1767 1.394 . S
C1766 H1774 0.930 . S
C1767 C1766 1.394 . S
C1767 C1768 1.383 . S
C1767 H1775 0.929 . S
C1768 C1767 1.383 . S
C1768 C1769 1.377 . S
C1769 H1753 0.930 . S
C1769 C1768 1.377 . S
C1769 C1770 1.379 . S
C1770 H1754 0.931 . S
C1770 C1764 1.383 . S
C1770 C1769 1.379 . S
H1771 C1765 0.959 . S
H1772 C1765 0.961 . S
H1773 C1765 0.960 . S
H1774 C1766 0.930 . S
H1775 C1767 0.929 . S
H1776 C1784 0.929 . S
H1777 C1786 0.930 . S
H1778 C1788 0.930 . S
H1779 C1791 0.929 . S
H1780 C1794 0.930 . S
H1781 C1796 0.960 . S
H1782 C1796 0.960 . S
H1783 C1796 0.960 . S
C1784 H1776 0.929 . S
C1784 C1785 1.377 . S
C1784 C1786 1.384 . S
C1785 C1784 1.377 . S
C1785 C1791 1.390 . S
C1786 H1777 0.930 . S
C1786 C1784 1.384 . S
C1786 C1787 1.372 . S
C1787 C1786 1.372 . S
C1787 C1788 1.400 . S
C1787 C1792 1.490 . S
C1788 H1778 0.930 . S
C1788 C1787 1.400 . S
C1788 C1791 1.386 . S
H1789 C1805 0.930 . S
H1790 C1806 0.931 . S
C1791 H1779 0.929 . S
C1791 C1785 1.390 . S
C1791 C1788 1.386 . S
C1792 C1787 1.490 . S
C1792 C1794 1.395 . S
C1792 C1795 1.403 . S
H1793 C1799 0.930 . S
C1794 H1780 0.930 . S
C1794 C1792 1.395 . S
C1794 C1797 1.403 . S
C1795 C1792 1.403 . S
C1795 C1796 1.524 . S
C1795 C1799 1.400 . S
C1796 H1781 0.960 . S
C1796 H1782 0.960 . S
C1796 H1783 0.960 . S
C1796 C1795 1.524 . S
C1797 C1794 1.403 . S
C1797 C1798 1.392 . S
C1797 C1801 1.495 . S
C1798 C1797 1.392 . S
C1798 C1799 1.385 . S
C1798 C1800 1.478 . S
C1799 H1793 0.930 . S
C1799 C1795 1.400 . S
C1799 C1798 1.385 . S
C1800 C1798 1.478 . S
C1800 C1802 1.381 . S
C1800 C1806 1.383 . S
C1801 C1797 1.495 . S
C1801 H1807 0.959 . S
C1801 H1808 0.961 . S
C1801 H1809 0.960 . S
C1802 C1800 1.381 . S
C1802 C1803 1.394 . S
C1802 H1810 0.930 . S
C1803 C1802 1.394 . S
C1803 C1804 1.383 . S
C1803 H1811 0.929 . S
C1804 C1803 1.383 . S
C1804 C1805 1.377 . S
C1805 H1789 0.930 . S
C1805 C1804 1.377 . S
C1805 C1806 1.379 . S
C1806 H1790 0.931 . S
C1806 C1800 1.383 . S
C1806 C1805 1.379 . S
H1807 C1801 0.959 . S
H1808 C1801 0.961 . S
H1809 C1801 0.960 . S
H1810 C1802 0.930 . S
H1811 C1803 0.929 . S
H1812 C1820 0.929 . S
H1813 C1822 0.930 . S
H1814 C1824 0.930 . S
H1815 C1827 0.929 . S
H1816 C1830 0.930 . S
H1817 C1832 0.960 . S
H1818 C1832 0.960 . S
H1819 C1832 0.960 . S
C1820 H1812 0.929 . S
C1820 C1821 1.377 . S
C1820 C1822 1.384 . S
C1821 C1820 1.377 . S
C1821 C1827 1.390 . S
C1822 H1813 0.930 . S
C1822 C1820 1.384 . S
C1822 C1823 1.372 . S
C1823 C1822 1.372 . S
C1823 C1824 1.400 . S
C1823 C1828 1.490 . S
C1824 H1814 0.930 . S
C1824 C1823 1.400 . S
C1824 C1827 1.386 . S
H1825 C1841 0.930 . S
H1826 C1842 0.931 . S
C1827 H1815 0.929 . S
C1827 C1821 1.390 . S
C1827 C1824 1.386 . S
C1828 C1823 1.490 . S
C1828 C1830 1.395 . S
C1828 C1831 1.403 . S
H1829 C1835 0.930 . S
C1830 H1816 0.930 . S
C1830 C1828 1.395 . S
C1830 C1833 1.403 . S
C1831 C1828 1.403 . S
C1831 C1832 1.524 . S
C1831 C1835 1.400 . S
C1832 H1817 0.960 . S
C1832 H1818 0.960 . S
C1832 H1819 0.960 . S
C1832 C1831 1.524 . S
C1833 C1830 1.403 . S
C1833 C1834 1.392 . S
C1833 C1837 1.495 . S
C1834 C1833 1.392 . S
C1834 C1835 1.385 . S
C1834 C1836 1.478 . S
C1835 H1829 0.930 . S
C1835 C1831 1.400 . S
C1835 C1834 1.385 . S
C1836 C1834 1.478 . S
C1836 C1838 1.381 . S
C1836 C1842 1.383 . S
C1837 C1833 1.495 . S
C1837 H1843 0.959 . S
C1837 H1844 0.961 . S
C1837 H1845 0.960 . S
C1838 C1836 1.381 . S
C1838 C1839 1.394 . S
C1838 H1846 0.930 . S
C1839 C1838 1.394 . S
C1839 C1840 1.383 . S
C1839 H1847 0.929 . S
C1840 C1839 1.383 . S
C1840 C1841 1.377 . S
C1841 H1825 0.930 . S
C1841 C1840 1.377 . S
C1841 C1842 1.379 . S
C1842 H1826 0.931 . S
C1842 C1836 1.383 . S
C1842 C1841 1.379 . S
H1843 C1837 0.959 . S
H1844 C1837 0.961 . S
H1845 C1837 0.960 . S
H1846 C1838 0.930 . S
H1847 C1839 0.929 . S
H1848 C1856 0.929 . S
H1849 C1858 0.930 . S
H1850 C1860 0.930 . S
H1851 C1863 0.929 . S
H1852 C1866 0.930 . S
H1853 C1868 0.960 . S
H1854 C1868 0.960 . S
H1855 C1868 0.960 . S
C1856 H1848 0.929 . S
C1856 C1857 1.377 . S
C1856 C1858 1.384 . S
C1857 C1856 1.377 . S
C1857 C1863 1.390 . S
C1858 H1849 0.930 . S
C1858 C1856 1.384 . S
C1858 C1859 1.372 . S
C1859 C1858 1.372 . S
C1859 C1860 1.400 . S
C1859 C1864 1.490 . S
C1860 H1850 0.930 . S
C1860 C1859 1.400 . S
C1860 C1863 1.386 . S
H1861 C1877 0.930 . S
H1862 C1878 0.931 . S
C1863 H1851 0.929 . S
C1863 C1857 1.390 . S
C1863 C1860 1.386 . S
C1864 C1859 1.490 . S
C1864 C1866 1.395 . S
C1864 C1867 1.403 . S
H1865 C1871 0.930 . S
C1866 H1852 0.930 . S
C1866 C1864 1.395 . S
C1866 C1869 1.403 . S
C1867 C1864 1.403 . S
C1867 C1868 1.524 . S
C1867 C1871 1.400 . S
C1868 H1853 0.960 . S
C1868 H1854 0.960 . S
C1868 H1855 0.960 . S
C1868 C1867 1.524 . S
C1869 C1866 1.403 . S
C1869 C1870 1.392 . S
C1869 C1873 1.495 . S
C1870 C1869 1.392 . S
C1870 C1871 1.385 . S
C1870 C1872 1.478 . S
C1871 H1865 0.930 . S
C1871 C1867 1.400 . S
C1871 C1870 1.385 . S
C1872 C1870 1.478 . S
C1872 C1874 1.381 . S
C1872 C1878 1.383 . S
C1873 C1869 1.495 . S
C1873 H1879 0.959 . S
C1873 H1880 0.961 . S
C1873 H1881 0.960 . S
C1874 C1872 1.381 . S
C1874 C1875 1.394 . S
C1874 H1882 0.930 . S
C1875 C1874 1.394 . S
C1875 C1876 1.383 . S
C1875 H1883 0.929 . S
C1876 C1875 1.383 . S
C1876 C1877 1.377 . S
C1877 H1861 0.930 . S
C1877 C1876 1.377 . S
C1877 C1878 1.379 . S
C1878 H1862 0.931 . S
C1878 C1872 1.383 . S
C1878 C1877 1.379 . S
H1879 C1873 0.959 . S
H1880 C1873 0.961 . S
H1881 C1873 0.960 . S
H1882 C1874 0.930 . S
H1883 C1875 0.929 . S
H1884 C1892 0.929 . S
H1885 C1894 0.930 . S
H1886 C1896 0.930 . S
H1887 C1899 0.929 . S
H1888 C1902 0.930 . S
H1889 C1904 0.960 . S
H1890 C1904 0.960 . S
H1891 C1904 0.960 . S
C1892 H1884 0.929 . S
C1892 C1893 1.377 . S
C1892 C1894 1.384 . S
C1893 C1892 1.377 . S
C1893 C1899 1.390 . S
C1894 H1885 0.930 . S
C1894 C1892 1.384 . S
C1894 C1895 1.372 . S
C1895 C1894 1.372 . S
C1895 C1896 1.400 . S
C1895 C1900 1.490 . S
C1896 H1886 0.930 . S
C1896 C1895 1.400 . S
C1896 C1899 1.386 . S
H1897 C1913 0.930 . S
H1898 C1914 0.931 . S
C1899 H1887 0.929 . S
C1899 C1893 1.390 . S
C1899 C1896 1.386 . S
C1900 C1895 1.490 . S
C1900 C1902 1.395 . S
C1900 C1903 1.403 . S
H1901 C1907 0.930 . S
C1902 H1888 0.930 . S
C1902 C1900 1.395 . S
C1902 C1905 1.403 . S
C1903 C1900 1.403 . S
C1903 C1904 1.524 . S
C1903 C1907 1.400 . S
C1904 H1889 0.960 . S
C1904 H1890 0.960 . S
C1904 H1891 0.960 . S
C1904 C1903 1.524 . S
C1905 C1902 1.403 . S
C1905 C1906 1.392 . S
C1905 C1909 1.495 . S
C1906 C1905 1.392 . S
C1906 C1907 1.385 . S
C1906 C1908 1.478 . S
C1907 H1901 0.930 . S
C1907 C1903 1.400 . S
C1907 C1906 1.385 . S
C1908 C1906 1.478 . S
C1908 C1910 1.381 . S
C1908 C1914 1.383 . S
C1909 C1905 1.495 . S
C1909 H1915 0.959 . S
C1909 H1916 0.961 . S
C1909 H1917 0.960 . S
C1910 C1908 1.381 . S
C1910 C1911 1.394 . S
C1910 H1918 0.930 . S
C1911 C1910 1.394 . S
C1911 C1912 1.383 . S
C1911 H1919 0.929 . S
C1912 C1911 1.383 . S
C1912 C1913 1.377 . S
C1913 H1897 0.930 . S
C1913 C1912 1.377 . S
C1913 C1914 1.379 . S
C1914 H1898 0.931 . S
C1914 C1908 1.383 . S
C1914 C1913 1.379 . S
H1915 C1909 0.959 . S
H1916 C1909 0.961 . S
H1917 C1909 0.960 . S
H1918 C1910 0.930 . S
H1919 C1911 0.929 . S
H1920 C1928 0.929 . S
H1921 C1930 0.930 . S
H1922 C1932 0.930 . S
H1923 C1935 0.929 . S
H1924 C1938 0.930 . S
H1925 C1940 0.960 . S
H1926 C1940 0.960 . S
H1927 C1940 0.960 . S
C1928 H1920 0.929 . S
C1928 C1929 1.377 . S
C1928 C1930 1.384 . S
C1929 C1928 1.377 . S
C1929 C1935 1.390 . S
C1930 H1921 0.930 . S
C1930 C1928 1.384 . S
C1930 C1931 1.372 . S
C1931 C1930 1.372 . S
C1931 C1932 1.400 . S
C1931 C1936 1.490 . S
C1932 H1922 0.930 . S
C1932 C1931 1.400 . S
C1932 C1935 1.386 . S
H1933 C1949 0.930 . S
H1934 C1950 0.931 . S
C1935 H1923 0.929 . S
C1935 C1929 1.390 . S
C1935 C1932 1.386 . S
C1936 C1931 1.490 . S
C1936 C1938 1.395 . S
C1936 C1939 1.403 . S
H1937 C1943 0.930 . S
C1938 H1924 0.930 . S
C1938 C1936 1.395 . S
C1938 C1941 1.403 . S
C1939 C1936 1.403 . S
C1939 C1940 1.524 . S
C1939 C1943 1.400 . S
C1940 H1925 0.960 . S
C1940 H1926 0.960 . S
C1940 H1927 0.960 . S
C1940 C1939 1.524 . S
C1941 C1938 1.403 . S
C1941 C1942 1.392 . S
C1941 C1945 1.495 . S
C1942 C1941 1.392 . S
C1942 C1943 1.385 . S
C1942 C1944 1.478 . S
C1943 H1937 0.930 . S
C1943 C1939 1.400 . S
C1943 C1942 1.385 . S
C1944 C1942 1.478 . S
C1944 C1946 1.381 . S
C1944 C1950 1.383 . S
C1945 C1941 1.495 . S
C1945 H1951 0.959 . S
C1945 H1952 0.961 . S
C1945 H1953 0.960 . S
C1946 C1944 1.381 . S
C1946 C1947 1.394 . S
C1946 H1954 0.930 . S
C1947 C1946 1.394 . S
C1947 C1948 1.383 . S
C1947 H1955 0.929 . S
C1948 C1947 1.383 . S
C1948 C1949 1.377 . S
C1949 H1933 0.930 . S
C1949 C1948 1.377 . S
C1949 C1950 1.379 . S
C1950 H1934 0.931 . S
C1950 C1944 1.383 . S
C1950 C1949 1.379 . S
H1951 C1945 0.959 . S
H1952 C1945 0.961 . S
H1953 C1945 0.960 . S
H1954 C1946 0.930 . S
H1955 C1947 0.929 . S
H1956 C1964 0.929 . S
H1957 C1966 0.930 . S
H1958 C1968 0.930 . S
H1959 C1971 0.929 . S
H1960 C1974 0.930 . S
H1961 C1976 0.960 . S
H1962 C1976 0.960 . S
H1963 C1976 0.960 . S
C1964 H1956 0.929 . S
C1964 C1965 1.377 . S
C1964 C1966 1.384 . S
C1965 C1964 1.377 . S
C1965 C1971 1.390 . S
C1966 H1957 0.930 . S
C1966 C1964 1.384 . S
C1966 C1967 1.372 . S
C1967 C1966 1.372 . S
C1967 C1968 1.400 . S
C1967 C1972 1.490 . S
C1968 H1958 0.930 . S
C1968 C1967 1.400 . S
C1968 C1971 1.386 . S
H1969 C1985 0.930 . S
H1970 C1986 0.931 . S
C1971 H1959 0.929 . S
C1971 C1965 1.390 . S
C1971 C1968 1.386 . S
C1972 C1967 1.490 . S
C1972 C1974 1.395 . S
C1972 C1975 1.403 . S
H1973 C1979 0.930 . S
C1974 H1960 0.930 . S
C1974 C1972 1.395 . S
C1974 C1977 1.403 . S
C1975 C1972 1.403 . S
C1975 C1976 1.524 . S
C1975 C1979 1.400 . S
C1976 H1961 0.960 . S
C1976 H1962 0.960 . S
C1976 H1963 0.960 . S
C1976 C1975 1.524 . S
C1977 C1974 1.403 . S
C1977 C1978 1.392 . S
C1977 C1981 1.495 . S
C1978 C1977 1.392 . S
C1978 C1979 1.385 . S
C1978 C1980 1.478 . S
C1979 H1973 0.930 . S
C1979 C1975 1.400 . S
C1979 C1978 1.385 . S
C1980 C1978 1.478 . S
C1980 C1982 1.381 . S
C1980 C1986 1.383 . S
C1981 C1977 1.495 . S
C1981 H1987 0.959 . S
C1981 H1988 0.961 . S
C1981 H1989 0.960 . S
C1982 C1980 1.381 . S
C1982 C1983 1.394 . S
C1982 H1990 0.930 . S
C1983 C1982 1.394 . S
C1983 C1984 1.383 . S
C1983 H1991 0.929 . S
C1984 C1983 1.383 . S
C1984 C1985 1.377 . S
C1985 H1969 0.930 . S
C1985 C1984 1.377 . S
C1985 C1986 1.379 . S
C1986 H1970 0.931 . S
C1986 C1980 1.383 . S
C1986 C1985 1.379 . S
H1987 C1981 0.959 . S
H1988 C1981 0.961 . S
H1989 C1981 0.960 . S
H1990 C1982 0.930 . S
H1991 C1983 0.929 . S
H1992 C2000 0.929 . S
H1993 C2002 0.930 . S
H1994 C2004 0.930 . S
H1995 C2007 0.929 . S
H1996 C2010 0.930 . S
H1997 C2012 0.960 . S
H1998 C2012 0.960 . S
H1999 C2012 0.960 . S
C2000 H1992 0.929 . S
C2000 C2001 1.377 . S
C2000 C2002 1.384 . S
C2001 C2000 1.377 . S
C2001 C2007 1.390 . S
C2002 H1993 0.930 . S
C2002 C2000 1.384 . S
C2002 C2003 1.372 . S
C2003 C2002 1.372 . S
C2003 C2004 1.400 . S
C2003 C2008 1.490 . S
C2004 H1994 0.930 . S
C2004 C2003 1.400 . S
C2004 C2007 1.386 . S
H2005 C2021 0.930 . S
H2006 C2022 0.931 . S
C2007 H1995 0.929 . S
C2007 C2001 1.390 . S
C2007 C2004 1.386 . S
C2008 C2003 1.490 . S
C2008 C2010 1.395 . S
C2008 C2011 1.403 . S
H2009 C2015 0.930 . S
C2010 H1996 0.930 . S
C2010 C2008 1.395 . S
C2010 C2013 1.403 . S
C2011 C2008 1.403 . S
C2011 C2012 1.524 . S
C2011 C2015 1.400 . S
C2012 H1997 0.960 . S
C2012 H1998 0.960 . S
C2012 H1999 0.960 . S
C2012 C2011 1.524 . S
C2013 C2010 1.403 . S
C2013 C2014 1.392 . S
C2013 C2017 1.495 . S
C2014 C2013 1.392 . S
C2014 C2015 1.385 . S
C2014 C2016 1.478 . S
C2015 H2009 0.930 . S
C2015 C2011 1.400 . S
C2015 C2014 1.385 . S
C2016 C2014 1.478 . S
C2016 C2018 1.381 . S
C2016 C2022 1.383 . S
C2017 C2013 1.495 . S
C2017 H2023 0.959 . S
C2017 H2024 0.961 . S
C2017 H2025 0.960 . S
C2018 C2016 1.381 . S
C2018 C2019 1.394 . S
C2018 H2026 0.930 . S
C2019 C2018 1.394 . S
C2019 C2020 1.383 . S
C2019 H2027 0.929 . S
C2020 C2019 1.383 . S
C2020 C2021 1.377 . S
C2021 H2005 0.930 . S
C2021 C2020 1.377 . S
C2021 C2022 1.379 . S
C2022 H2006 0.931 . S
C2022 C2016 1.383 . S
C2022 C2021 1.379 . S
H2023 C2017 0.959 . S
H2024 C2017 0.961 . S
H2025 C2017 0.960 . S
H2026 C2018 0.930 . S
H2027 C2019 0.929 . S
H2028 C2036 0.929 . S
H2029 C2038 0.930 . S
H2030 C2040 0.930 . S
H2031 C2043 0.929 . S
H2032 C2046 0.930 . S
H2033 C2048 0.960 . S
H2034 C2048 0.960 . S
H2035 C2048 0.960 . S
C2036 H2028 0.929 . S
C2036 C2037 1.377 . S
C2036 C2038 1.384 . S
C2037 C2036 1.377 . S
C2037 C2043 1.390 . S
C2038 H2029 0.930 . S
C2038 C2036 1.384 . S
C2038 C2039 1.372 . S
C2039 C2038 1.372 . S
C2039 C2040 1.400 . S
C2039 C2044 1.490 . S
C2040 H2030 0.930 . S
C2040 C2039 1.400 . S
C2040 C2043 1.386 . S
H2041 C2057 0.930 . S
H2042 C2058 0.931 . S
C2043 H2031 0.929 . S
C2043 C2037 1.390 . S
C2043 C2040 1.386 . S
C2044 C2039 1.490 . S
C2044 C2046 1.395 . S
C2044 C2047 1.403 . S
H2045 C2051 0.930 . S
C2046 H2032 0.930 . S
C2046 C2044 1.395 . S
C2046 C2049 1.403 . S
C2047 C2044 1.403 . S
C2047 C2048 1.524 . S
C2047 C2051 1.400 . S
C2048 H2033 0.960 . S
C2048 H2034 0.960 . S
C2048 H2035 0.960 . S
C2048 C2047 1.524 . S
C2049 C2046 1.403 . S
C2049 C2050 1.392 . S
C2049 C2053 1.495 . S
C2050 C2049 1.392 . S
C2050 C2051 1.385 . S
C2050 C2052 1.478 . S
C2051 H2045 0.930 . S
C2051 C2047 1.400 . S
C2051 C2050 1.385 . S
C2052 C2050 1.478 . S
C2052 C2054 1.381 . S
C2052 C2058 1.383 . S
C2053 C2049 1.495 . S
C2053 H2059 0.959 . S
C2053 H2060 0.961 . S
C2053 H2061 0.960 . S
C2054 C2052 1.381 . S
C2054 C2055 1.394 . S
C2054 H2062 0.930 . S
C2055 C2054 1.394 . S
C2055 C2056 1.383 . S
C2055 H2063 0.929 . S
C2056 C2055 1.383 . S
C2056 C2057 1.377 . S
C2057 H2041 0.930 . S
C2057 C2056 1.377 . S
C2057 C2058 1.379 . S
C2058 H2042 0.931 . S
C2058 C2052 1.383 . S
C2058 C2057 1.379 . S
H2059 C2053 0.959 . S
H2060 C2053 0.961 . S
H2061 C2053 0.960 . S
H2062 C2054 0.930 . S
H2063 C2055 0.929 . S
C345 C222 1.373 . S
C364 C12 1.368 . S
C381 C26 1.369 . S
C400 C236 1.369 . S
C417 C40 1.373 . S
C436 C250 1.366 . S
C453 C54 1.373 . S
C472 C180 1.363 . S
C489 C194 1.370 . S
C508 C68 1.362 . S
C525 C82 1.370 . S
C544 C208 1.364 . S
C561 C306 1.371 . S
C580 C96 1.360 . S
C597 C110 1.369 . S
C616 C320 1.375 . S
C633 C124 1.370 . S
C652 C334 1.364 . S
C669 C264 1.369 . S
C688 C138 1.368 . S
C705 C152 1.371 . S
C724 C278 1.377 . S
C741 C292 1.371 . S
C760 C166 1.360 . S
C777 C11 1.017 . S
C796 C333 1.010 . S
C813 C263 1.003 . S
C832 C25 1.010 . S
C849 C39 1.015 . S
C868 C277 1.026 . S
C885 C291 1.012 . S
C904 C53 1.040 . S
C921 C67 1.018 . S
C940 C305 0.990 . S
C957 C319 1.004 . S
C976 C81 1.047 . S
C993 C95 1.019 . S
C1012 C193 0.995 . S
C1029 C207 1.004 . S
C1048 C109 1.046 . S
C1065 C221 1.002 . S
C1084 C123 1.032 . S
C1101 C235 1.011 . S
C1120 C137 0.971 . S
C1137 C151 1.013 . S
C1156 C249 0.969 . S
C1173 C165 1.003 . S
C1192 C179 1.037 . S
C1209 C103 0.942 . S
C1228 C5 0.915 . S
C1245 C117 0.966 . S
C1264 C19 0.974 . S
C1281 C131 0.951 . S
C1300 C33 0.887 . S
C1317 C145 0.966 . S
C1336 C47 0.960 . S
C1353 C61 0.952 . S
C1372 C159 0.887 . S
C1389 C75 0.943 . S
C1408 C89 0.907 . S
C1425 C173 0.950 . S
C1444 C271 0.994 . S
C1461 C187 0.957 . S
C1480 C285 0.908 . S
C1497 C299 0.950 . S
C1516 C201 0.941 . S
C1533 C313 0.942 . S
C1552 C215 0.984 . S
C1569 C327 0.965 . S
C1588 C229 0.888 . S
C1605 C257 0.962 . S
C1624 C243 0.892 . S
C1641 C4 1.313 . S
C1660 C270 1.320 . S
C1677 C284 1.320 . S
C1696 C18 1.331 . S
C1713 C32 1.322 . S
C1732 C298 1.322 . S
C1749 C312 1.323 . S
C1768 C46 1.301 . S
C1785 C60 1.318 . S
C1804 C326 1.339 . S
C1821 C256 1.321 . S
C1840 C74 1.329 . S
C1857 C88 1.316 . S
C1876 C242 1.302 . S
C1893 C172 1.322 . S
C1912 C102 1.291 . S
C1929 C116 1.322 . S
C1948 C186 1.290 . S
C1965 C130 1.323 . S
C1984 C200 1.297 . S
C2001 C144 1.313 . S
C2020 C214 1.330 . S
C2037 C158 1.321 . S
C2056 C228 1.290 . S
