# Generated by pormake.
# Topology ukp, (4)-cn, num edge types: 1
# Building blocks:
#     Node 0, Type 0, BuildingBlock: MUDLON_clean_sbu_0, # of connection points: 4
#     Node 1, Type 0, BuildingBlock: MUDLON_clean_sbu_0, # of connection points: 4
#     Node 2, Type 0, BuildingBlock: MUDLON_clean_sbu_0, # of connection points: 4
#     Node 3, Type 0, BuildingBlock: MUDLON_clean_sbu_0, # of connection points: 4
#     Node 4, Type 0, BuildingBlock: MUDLON_clean_sbu_0, # of connection points: 4
#     Node 5, Type 0, BuildingBlock: MUDLON_clean_sbu_0, # of connection points: 4
#     Node 6, Type 0, BuildingBlock: MUDLON_clean_sbu_0, # of connection points: 4
#     Node 7, Type 0, BuildingBlock: MUDLON_clean_sbu_0, # of connection points: 4
#     Node 8, Type 0, BuildingBlock: MUDLON_clean_sbu_0, # of connection points: 4
#     Node 9, Type 0, BuildingBlock: MUDLON_clean_sbu_0, # of connection points: 4
#     Node 10, Type 0, BuildingBlock: MUDLON_clean_sbu_0, # of connection points: 4
#     Node 11, Type 0, BuildingBlock: MUDLON_clean_sbu_0, # of connection points: 4
#     Node 12, Type 0, BuildingBlock: MUDLON_clean_sbu_0, # of connection points: 4
#     Node 13, Type 0, BuildingBlock: MUDLON_clean_sbu_0, # of connection points: 4
#     Node 14, Type 0, BuildingBlock: MUDLON_clean_sbu_0, # of connection points: 4
#     Node 15, Type 0, BuildingBlock: MUDLON_clean_sbu_0, # of connection points: 4
#     Node 16, Type 0, BuildingBlock: MUDLON_clean_sbu_0, # of connection points: 4
#     Node 17, Type 0, BuildingBlock: MUDLON_clean_sbu_0, # of connection points: 4
#     Node 18, Type 0, BuildingBlock: MUDLON_clean_sbu_0, # of connection points: 4
#     Node 19, Type 0, BuildingBlock: MUDLON_clean_sbu_0, # of connection points: 4
#     Node 20, Type 0, BuildingBlock: MUDLON_clean_sbu_0, # of connection points: 4
#     Node 21, Type 0, BuildingBlock: MUDLON_clean_sbu_0, # of connection points: 4
#     Node 22, Type 0, BuildingBlock: MUDLON_clean_sbu_0, # of connection points: 4
#     Node 23, Type 0, BuildingBlock: MUDLON_clean_sbu_0, # of connection points: 4
#     Node 24, Type 0, BuildingBlock: MUDLON_clean_sbu_0, # of connection points: 4
#     Node 25, Type 0, BuildingBlock: MUDLON_clean_sbu_0, # of connection points: 4
#     Node 26, Type 0, BuildingBlock: MUDLON_clean_sbu_0, # of connection points: 4
#     Node 27, Type 0, BuildingBlock: MUDLON_clean_sbu_0, # of connection points: 4
#     Node 28, Type 0, BuildingBlock: MUDLON_clean_sbu_0, # of connection points: 4
#     Node 29, Type 0, BuildingBlock: MUDLON_clean_sbu_0, # of connection points: 4
#     Node 30, Type 0, BuildingBlock: MUDLON_clean_sbu_0, # of connection points: 4
#     Node 31, Type 0, BuildingBlock: MUDLON_clean_sbu_0, # of connection points: 4
#     Node 32, Type 0, BuildingBlock: MUDLON_clean_sbu_0, # of connection points: 4
#     Node 33, Type 0, BuildingBlock: MUDLON_clean_sbu_0, # of connection points: 4
#     Node 34, Type 0, BuildingBlock: MUDLON_clean_sbu_0, # of connection points: 4
#     Node 35, Type 0, BuildingBlock: MUDLON_clean_sbu_0, # of connection points: 4
#     Node 36, Type 0, BuildingBlock: MUDLON_clean_sbu_0, # of connection points: 4
#     Node 37, Type 0, BuildingBlock: MUDLON_clean_sbu_0, # of connection points: 4
#     Node 38, Type 0, BuildingBlock: MUDLON_clean_sbu_0, # of connection points: 4
#     Node 39, Type 0, BuildingBlock: MUDLON_clean_sbu_0, # of connection points: 4
#     Node 40, Type 0, BuildingBlock: MUDLON_clean_sbu_0, # of connection points: 4
#     Node 41, Type 0, BuildingBlock: MUDLON_clean_sbu_0, # of connection points: 4
#     Node 42, Type 0, BuildingBlock: MUDLON_clean_sbu_0, # of connection points: 4
#     Node 43, Type 0, BuildingBlock: MUDLON_clean_sbu_0, # of connection points: 4
#     Node 44, Type 0, BuildingBlock: MUDLON_clean_sbu_0, # of connection points: 4
#     Node 45, Type 0, BuildingBlock: MUDLON_clean_sbu_0, # of connection points: 4
#     Node 46, Type 0, BuildingBlock: MUDLON_clean_sbu_0, # of connection points: 4
#     Node 47, Type 0, BuildingBlock: MUDLON_clean_sbu_0, # of connection points: 4
#     Edge 48, Type (0, 0), None
#     Edge 49, Type (0, 0), None
#     Edge 50, Type (0, 0), None
#     Edge 51, Type (0, 0), None
#     Edge 52, Type (0, 0), None
#     Edge 53, Type (0, 0), None
#     Edge 54, Type (0, 0), None
#     Edge 55, Type (0, 0), None
#     Edge 56, Type (0, 0), None
#     Edge 57, Type (0, 0), None
#     Edge 58, Type (0, 0), None
#     Edge 59, Type (0, 0), None
#     Edge 60, Type (0, 0), None
#     Edge 61, Type (0, 0), None
#     Edge 62, Type (0, 0), None
#     Edge 63, Type (0, 0), None
#     Edge 64, Type (0, 0), None
#     Edge 65, Type (0, 0), None
#     Edge 66, Type (0, 0), None
#     Edge 67, Type (0, 0), None
#     Edge 68, Type (0, 0), None
#     Edge 69, Type (0, 0), None
#     Edge 70, Type (0, 0), None
#     Edge 71, Type (0, 0), None
#     Edge 72, Type (0, 0), None
#     Edge 73, Type (0, 0), None
#     Edge 74, Type (0, 0), None
#     Edge 75, Type (0, 0), None
#     Edge 76, Type (0, 0), None
#     Edge 77, Type (0, 0), None
#     Edge 78, Type (0, 0), None
#     Edge 79, Type (0, 0), None
#     Edge 80, Type (0, 0), None
#     Edge 81, Type (0, 0), None
#     Edge 82, Type (0, 0), None
#     Edge 83, Type (0, 0), None
#     Edge 84, Type (0, 0), None
#     Edge 85, Type (0, 0), None
#     Edge 86, Type (0, 0), None
#     Edge 87, Type (0, 0), None
#     Edge 88, Type (0, 0), None
#     Edge 89, Type (0, 0), None
#     Edge 90, Type (0, 0), None
#     Edge 91, Type (0, 0), None
#     Edge 92, Type (0, 0), None
#     Edge 93, Type (0, 0), None
#     Edge 94, Type (0, 0), None
#     Edge 95, Type (0, 0), None
#     Edge 96, Type (0, 0), None
#     Edge 97, Type (0, 0), None
#     Edge 98, Type (0, 0), None
#     Edge 99, Type (0, 0), None
#     Edge 100, Type (0, 0), None
#     Edge 101, Type (0, 0), None
#     Edge 102, Type (0, 0), None
#     Edge 103, Type (0, 0), None
#     Edge 104, Type (0, 0), None
#     Edge 105, Type (0, 0), None
#     Edge 106, Type (0, 0), None
#     Edge 107, Type (0, 0), None
#     Edge 108, Type (0, 0), None
#     Edge 109, Type (0, 0), None
#     Edge 110, Type (0, 0), None
#     Edge 111, Type (0, 0), None
#     Edge 112, Type (0, 0), None
#     Edge 113, Type (0, 0), None
#     Edge 114, Type (0, 0), None
#     Edge 115, Type (0, 0), None
#     Edge 116, Type (0, 0), None
#     Edge 117, Type (0, 0), None
#     Edge 118, Type (0, 0), None
#     Edge 119, Type (0, 0), None
#     Edge 120, Type (0, 0), None
#     Edge 121, Type (0, 0), None
#     Edge 122, Type (0, 0), None
#     Edge 123, Type (0, 0), None
#     Edge 124, Type (0, 0), None
#     Edge 125, Type (0, 0), None
#     Edge 126, Type (0, 0), None
#     Edge 127, Type (0, 0), None
#     Edge 128, Type (0, 0), None
#     Edge 129, Type (0, 0), None
#     Edge 130, Type (0, 0), None
#     Edge 131, Type (0, 0), None
#     Edge 132, Type (0, 0), None
#     Edge 133, Type (0, 0), None
#     Edge 134, Type (0, 0), None
#     Edge 135, Type (0, 0), None
#     Edge 136, Type (0, 0), None
#     Edge 137, Type (0, 0), None
#     Edge 138, Type (0, 0), None
#     Edge 139, Type (0, 0), None
#     Edge 140, Type (0, 0), None
#     Edge 141, Type (0, 0), None
#     Edge 142, Type (0, 0), None
#     Edge 143, Type (0, 0), None
# Relax obj value: 0.214
# Max RMSD: 0.216
# Mean RMSD: 0.216
data_MOF--net-ukp--node1-MUDLON_clean_sbu_0--edge1-none
_symmetry_space_group_name_H-M    P1
_symmetry_Int_Tables_number       1
_symmetry_cell_setting            triclinic
loop_
_symmetry_equiv_pos_as_xyz
'x, y, z'
_cell_length_a     29.254084
_cell_length_b     29.253149
_cell_length_c     29.249919
_cell_angle_alpha  89.990427
_cell_angle_beta   89.995211
_cell_angle_gamma 89.995359
loop_
_atom_site_label
_atom_site_type_symbol
_atom_site_fract_x
_atom_site_fract_y
_atom_site_fract_z
_atom_type_partial_charge
Mg0 Mg 0.23308 0.30405 0.4152 0.0
C1 C 0.23687 0.37778 0.48685 0.0
O2 O 0.20094 0.35619 0.50294 0.0
C3 C 0.27679 0.22486 0.36365 0.0
O4 O 0.23497 0.21852 0.34869 0.0
C5 C 0.1737 0.24253 0.47317 0.0
O6 O 0.21403 0.22871 0.48723 0.0
O7 O 0.17105 0.27365 0.44291 0.0
O8 O 0.26164 0.35787 0.45737 0.0
O9 O 0.2238 0.34614 0.35508 0.0
C10 C 0.20825 0.33612 0.31589 0.0
O11 O 0.18851 0.29641 0.30911 0.0
O12 O 0.2843 0.25467 0.39447 0.0
Mg13 Mg 1.00134 0.9829 0.66517 0.0
C14 C 0.92783 0.98682 0.73701 0.0
O15 O 0.94942 0.95086 0.75304 0.0
C16 C 0.08051 1.02635 0.61341 0.0
O17 O 0.08669 0.9845 0.59845 0.0
C18 C 0.06267 0.92354 0.72328 0.0
O19 O 0.07628 0.96389 0.73749 0.0
O20 O 0.03172 0.92085 0.69286 0.0
O21 O 0.94771 1.01159 0.7075 0.0
O22 O 0.95907 0.97372 0.60517 0.0
C23 C 0.96895 0.95811 0.56597 0.0
O24 O 1.00859 0.93824 0.55911 0.0
O25 O 0.05079 0.03398 0.64429 0.0
Mg26 Mg 0.32252 0.75172 0.91531 0.0
C27 C 0.3186 0.67809 0.98705 0.0
O28 O 0.35459 0.69962 1.00308 0.0
C29 C 0.27893 0.83087 0.8636 0.0
O30 O 0.32075 0.83707 0.84858 0.0
C31 C 0.38202 0.81296 0.97343 0.0
O32 O 0.34173 0.8266 0.98777 0.0
O33 O 0.3846 0.78205 0.94296 0.0
O34 O 0.29385 0.69801 0.95757 0.0
O35 O 0.3317 0.70955 0.85524 0.0
C36 C 0.3474 0.71944 0.81607 0.0
O37 O 0.36733 0.75906 0.80927 0.0
O38 O 0.27137 0.80116 0.89452 0.0
Mg39 Mg 0.55429 0.07259 0.16526 0.0
C40 C 0.62798 0.06875 0.23693 0.0
O41 O 0.60639 0.10468 0.25302 0.0
C42 C 0.47511 0.02895 0.11369 0.0
O43 O 0.4688 0.07078 0.09873 0.0
C44 C 0.49296 0.13198 0.22341 0.0
O45 O 0.47935 0.09165 0.23768 0.0
O46 O 0.52389 0.13463 0.19296 0.0
O47 O 0.60808 0.04398 0.20745 0.0
O48 O 0.59642 0.08182 0.10515 0.0
C49 C 0.58644 0.09743 0.06597 0.0
O50 O 0.54677 0.11725 0.05918 0.0
O51 O 0.5049 1.0214 0.14451 0.0
Mg52 Mg 0.23334 0.75173 0.14079 0.0
C53 C 0.23701 0.67798 0.06916 0.0
O54 O 0.20109 0.69962 0.0531 0.0
C55 C 0.2771 0.83092 0.19225 0.0
O56 O 0.23528 0.83733 0.20718 0.0
C57 C 0.17401 0.81303 0.08254 0.0
O58 O 0.21435 0.8265 0.06816 0.0
O59 O 0.17134 0.7822 0.1131 0.0
O60 O 0.26183 0.69785 0.09862 0.0
O61 O 0.22406 0.70967 0.20093 0.0
C62 C 0.20852 0.71973 0.24012 0.0
O63 O 0.18881 0.75946 0.24688 0.0
O64 O 0.28461 0.80106 0.16148 0.0
Mg65 Mg 0.55399 0.9833 0.39104 0.0
C66 C 0.62753 0.98722 0.3192 0.0
O67 O 0.60592 0.95129 0.30313 0.0
C68 C 0.4749 1.02696 0.44276 0.0
O69 O 0.46867 0.98515 0.45781 0.0
C70 C 0.4929 0.92385 0.33274 0.0
O71 O 0.47948 0.96415 0.31822 0.0
O72 O 0.52363 0.92124 0.3634 0.0
O73 O 0.60769 1.01195 0.34875 0.0
O74 O 0.59619 0.9741 0.45109 0.0
C75 C 0.58629 0.95846 0.49028 0.0
O76 O 0.54665 0.9386 0.49712 0.0
O77 O 0.50459 0.03448 0.41182 0.0
Mg78 Mg 0.32282 0.30475 0.64068 0.0
C79 C 0.31886 0.37827 0.56884 0.0
O80 O 0.35479 0.35666 0.55276 0.0
C81 C 0.27942 0.22543 0.69225 0.0
O82 O 0.32126 0.21933 0.70727 0.0
C83 C 0.38228 0.24337 0.58276 0.0
O84 O 0.34195 0.22957 0.5687 0.0
O85 O 0.38493 0.27447 0.61304 0.0
O86 O 0.29412 0.3584 0.59837 0.0
O87 O 0.33184 0.34692 0.70076 0.0
C88 C 0.34745 0.337 0.73996 0.0
O89 O 0.36741 0.29739 0.74676 0.0
O90 O 0.27178 0.25517 0.66138 0.0
Mg91 Mg 1.00182 0.07251 0.89031 0.0
C92 C 0.92799 0.06873 0.81879 0.0
O93 O 0.94958 0.10464 0.80265 0.0
C94 C 0.0811 0.02892 0.94177 0.0
O95 O 0.08744 0.07077 0.95662 0.0
C96 C 0.06324 0.13188 0.83222 0.0
O97 O 0.07704 0.09155 0.81813 0.0
O98 O 0.03218 0.13453 0.86253 0.0
O99 O 0.94792 0.04395 0.84824 0.0
O100 O 0.95984 0.08185 0.9505 0.0
C101 C 0.96988 0.09759 0.9896 0.0
O102 O 1.00956 0.11745 0.99625 0.0
O103 O 0.05123 1.02132 0.91102 0.0
Mg104 Mg 0.41494 0.23311 0.30438 0.0
C105 C 0.48675 0.23705 0.37795 0.0
O106 O 0.50281 0.20109 0.35638 0.0
C107 C 0.36327 0.27668 0.2252 0.0
O108 O 0.34829 0.23485 0.21899 0.0
C109 C 0.47318 0.17369 0.24319 0.0
O110 O 0.48756 0.21402 0.22968 0.0
O111 O 0.44262 0.17105 0.27401 0.0
O112 O 0.4572 0.26176 0.35808 0.0
O113 O 0.35488 0.22393 0.34657 0.0
C114 C 0.31571 0.20828 0.33666 0.0
O115 O 0.30889 0.18839 0.29702 0.0
O116 O 0.39415 0.28425 0.25494 0.0
Mg117 Mg 0.07257 0.16449 0.55412 0.0
C118 C 0.06882 0.23643 0.62757 0.0
O119 O 0.10468 0.2525 0.60582 0.0
C120 C 0.02876 0.11291 0.47502 0.0
O121 O 0.07054 0.09783 0.46869 0.0
C122 C 0.13199 0.22278 0.49298 0.0
O123 O 0.09167 0.23737 0.47969 0.0
O124 O 0.13463 0.19206 0.52365 0.0
O125 O 0.04406 0.20684 0.60784 0.0
O126 O 0.08172 0.10444 0.59633 0.0
C127 C 0.09717 0.0652 0.58636 0.0
O128 O 0.11688 0.05829 0.54664 0.0
O129 O 1.02132 0.1438 0.50478 0.0
Mg130 Mg 0.14082 0.82256 0.80433 0.0
C131 C 0.06904 0.81864 0.8779 0.0
O132 O 0.05295 0.85457 0.85629 0.0
C133 C 0.19254 0.77896 0.72519 0.0
O134 O 0.2075 0.82079 0.71891 0.0
C135 C 0.08249 0.88186 0.7431 0.0
O136 O 0.06812 0.84151 0.72966 0.0
O137 O 0.11307 0.88456 0.77389 0.0
O138 O 0.09855 0.79389 0.85803 0.0
O139 O 0.20084 0.83186 0.84655 0.0
C140 C 0.24003 0.84744 0.83658 0.0
O141 O 0.24687 0.86719 0.79687 0.0
O142 O 0.16167 0.77141 0.75494 0.0
Mg143 Mg 0.48332 0.89084 0.05432 0.0
C144 C 0.48731 0.81898 0.12786 0.0
O145 O 0.45137 0.8029 0.10627 0.0
C146 C 0.52687 0.94259 0.97517 0.0
O147 O 0.48506 0.95765 0.96902 0.0
C148 C 0.42378 0.83269 0.99316 0.0
O149 O 0.46408 0.81828 0.97959 0.0
O150 O 0.42121 0.86322 1.02401 0.0
O151 O 0.51201 0.84853 0.10798 0.0
O152 O 0.47418 0.95088 0.09655 0.0
C153 C 0.45851 0.99006 0.08668 0.0
O154 O 0.43858 0.99692 0.04707 0.0
O155 O 0.53443 0.91165 1.00485 0.0
Mg156 Mg 0.4152 0.8226 0.25165 0.0
C157 C 0.48706 0.81865 0.17814 0.0
O158 O 0.50316 0.85458 0.19972 0.0
C159 C 0.36346 0.77913 0.33082 0.0
O160 O 0.34845 0.82096 0.33693 0.0
C161 C 0.47316 0.8821 0.313 0.0
O162 O 0.48735 0.84179 0.32676 0.0
O163 O 0.44282 0.8847 0.28196 0.0
O164 O 0.45752 0.79392 0.19799 0.0
O165 O 0.35517 0.83173 0.20941 0.0
C166 C 0.31602 0.84749 0.21925 0.0
O167 O 0.30919 0.8675 0.25882 0.0
O168 O 0.39439 0.77151 0.30114 0.0
Mg169 Mg 0.48331 0.16513 0.50188 0.0
C170 C 0.48714 0.23685 0.42823 0.0
O171 O 0.45125 0.25299 0.44985 0.0
C172 C 0.52694 0.11347 0.58105 0.0
O173 O 0.4851 0.09854 0.58736 0.0
C174 C 0.42399 0.2236 0.56296 0.0
O175 O 0.46432 0.23814 0.57626 0.0
O176 O 0.42132 0.19286 0.53232 0.0
O177 O 0.51191 0.20733 0.44809 0.0
O178 O 0.47398 0.10506 0.45975 0.0
C179 C 0.45837 0.06589 0.46976 0.0
O180 O 0.43862 0.05909 0.50948 0.0
O181 O 0.5345 0.14431 0.55126 0.0
Mg182 Mg 0.1412 0.23306 0.75129 0.0
C183 C 0.06923 0.23685 0.67784 0.0
O184 O 0.05311 0.201 0.69957 0.0
C185 C 0.19259 0.27682 0.83056 0.0
O186 O 0.20764 0.23503 0.8369 0.0
C187 C 0.08297 0.1736 0.8124 0.0
O188 O 0.06841 0.21391 0.82572 0.0
O189 O 0.11366 0.17096 0.7817 0.0
O190 O 0.09888 0.26157 0.69755 0.0
O191 O 0.20131 0.22401 0.70915 0.0
C192 C 0.24056 0.20866 0.71921 0.0
O193 O 0.24744 0.189 0.75895 0.0
O194 O 0.16178 0.28428 0.80071 0.0
Mg195 Mg 0.07289 0.89096 1.00151 0.0
C196 C 0.06878 0.81896 0.92818 0.0
O197 O 0.10475 0.80289 0.94974 0.0
C198 C 0.02952 0.94292 0.08059 0.0
O199 O 0.07136 0.95795 0.08661 0.0
C200 C 0.13231 0.83284 0.06277 0.0
O201 O 0.09198 0.81859 0.07639 0.0
O202 O 0.13497 0.86329 0.03184 0.0
O203 O 0.04408 0.84854 0.94802 0.0
O204 O 0.08202 0.95088 0.95909 0.0
C205 C 0.09774 0.99007 0.96883 0.0
O206 O 0.11774 0.997 1.00839 0.0
O207 O 1.02187 0.91192 0.051 0.0
Mg208 Mg 0.30397 0.41481 0.23335 0.0
C209 C 0.3775 0.48664 0.2373 0.0
O210 O 0.35591 0.50273 0.20136 0.0
C211 C 0.2248 0.36312 0.27696 0.0
O212 O 0.21857 0.34808 0.23515 0.0
C213 C 0.24276 0.47301 0.17392 0.0
O214 O 0.22921 0.48734 0.21426 0.0
O215 O 0.27361 0.44249 0.17128 0.0
O216 O 0.35763 0.45709 0.26203 0.0
O217 O 0.34619 0.35477 0.22415 0.0
C218 C 0.33625 0.31557 0.20859 0.0
O219 O 0.29657 0.30871 0.1888 0.0
O220 O 0.25453 0.39401 0.28449 0.0
Mg221 Mg 0.80419 0.14095 0.82271 0.0
C222 C 0.87771 0.06907 0.81864 0.0
O223 O 0.85621 0.05298 0.85463 0.0
C224 C 0.72506 0.19272 0.77914 0.0
O225 O 0.71888 0.20777 0.82096 0.0
C226 C 0.743 0.08276 0.88219 0.0
O227 O 0.72943 0.06842 0.84187 0.0
O228 O 0.77387 0.11327 0.8848 0.0
O229 O 0.85783 0.09865 0.79396 0.0
O230 O 0.84645 0.20097 0.83186 0.0
C231 C 0.83654 0.24018 0.84742 0.0
O232 O 0.79689 0.24705 0.86726 0.0
O233 O 0.75474 0.16178 0.77159 0.0
Mg234 Mg 0.16485 0.55414 0.07282 0.0
C235 C 0.23667 0.62771 0.06891 0.0
O236 O 0.25276 0.60613 0.10486 0.0
C237 C 0.11316 0.47503 0.02917 0.0
O238 O 0.09821 0.46871 0.071 0.0
C239 C 0.22299 0.49281 0.13221 0.0
O240 O 0.23729 0.47924 0.09187 0.0
O241 O 0.19252 0.52371 0.13486 0.0
O242 O 0.2071 0.60787 0.0442 0.0
O243 O 0.10482 0.59634 0.0821 0.0
C244 C 0.06562 0.58638 0.09767 0.0
O245 O 0.05878 0.54669 0.11743 0.0
O246 O 0.14402 0.50479 1.02163 0.0
Mg247 Mg 0.75135 0.91511 0.32269 0.0
C248 C 0.6778 0.98694 0.31884 0.0
O249 O 0.69942 1.00305 0.35475 0.0
C250 C 0.83065 0.86366 0.27915 0.0
O251 O 0.83679 0.84858 0.32097 0.0
C252 C 0.81252 0.97313 0.38226 0.0
O253 O 0.82614 0.98747 0.34195 0.0
O254 O 0.78161 0.94266 0.38485 0.0
O255 O 0.69763 0.9574 0.29409 0.0
O256 O 0.70924 0.85498 0.33169 0.0
C257 C 0.71918 0.8158 0.34733 0.0
O258 O 0.75877 0.80902 0.3673 0.0
O259 O 0.80089 0.89452 0.27158 0.0
Mg260 Mg 0.89136 1.0021 0.07259 0.0
C261 C 0.81948 0.92855 0.06878 0.0
O262 O 0.8034 0.95021 0.10468 0.0
C263 C 0.94296 0.08117 0.02864 0.0
O264 O 0.95804 0.0876 0.07041 0.0
C265 C 0.83304 0.06322 0.13204 0.0
O266 O 0.81845 0.07657 0.09173 0.0
O267 O 0.86375 0.03255 0.13465 0.0
O268 O 0.84908 0.94834 0.04406 0.0
O269 O 0.95142 0.95993 0.08184 0.0
C270 C 0.99067 0.96998 0.09721 0.0
O271 O 0.99756 1.00977 0.11676 0.0
O272 O 0.91207 0.0514 1.02127 0.0
Mg273 Mg 0.25177 0.64081 0.73343 0.0
C274 C 0.17815 0.56905 0.7372 0.0
O275 O 0.19976 0.55304 0.70124 0.0
C276 C 0.33089 0.69243 0.77714 0.0
O277 O 0.33723 0.70743 0.73533 0.0
C278 C 0.31312 0.58281 0.67392 0.0
O279 O 0.32677 0.56847 0.71422 0.0
O280 O 0.28217 0.61324 0.67134 0.0
O281 O 0.19801 0.59854 0.76199 0.0
O282 O 0.2096 0.70087 0.72421 0.0
C283 C 0.21956 0.74006 0.70863 0.0
O284 O 0.25925 0.7469 0.68885 0.0
O285 O 0.30112 0.66158 0.78466 0.0
Mg286 Mg 0.16486 0.50174 0.4832 0.0
C287 C 0.2366 0.42805 0.48711 0.0
O288 O 0.25275 0.44962 0.45118 0.0
C289 C 0.11331 0.58093 0.52697 0.0
O290 O 0.09833 0.58732 0.48516 0.0
C291 C 0.22309 0.56304 0.42384 0.0
O292 O 0.23739 0.5766 0.46418 0.0
O293 O 0.1926 0.53216 0.42118 0.0
O294 O 0.20704 0.44792 0.51181 0.0
O295 O 0.10477 0.45963 0.47392 0.0
C296 C 0.06556 0.4697 0.45847 0.0
O297 O 0.05874 0.50946 0.43883 0.0
O298 O 0.14413 0.5511 0.53444 0.0
Mg299 Mg 0.3904 0.55405 0.98346 0.0
C300 C 0.31878 0.62781 0.98736 0.0
O301 O 0.30259 0.60626 0.95146 0.0
C302 C 0.44184 0.47475 1.02703 0.0
O303 O 0.45684 0.46853 0.98519 0.0
C304 C 0.33223 0.49292 0.92391 0.0
O305 O 0.31791 0.47924 0.9642 0.0
O306 O 0.36272 0.52382 0.92134 0.0
O307 O 0.34831 0.6079 1.01208 0.0
O308 O 0.45059 0.59602 0.97426 0.0
C309 C 0.48969 0.58605 0.95846 0.0
O310 O 0.49636 0.54644 0.93846 0.0
O311 O 0.41102 0.50454 0.0346 0.0
Mg312 Mg 0.73326 0.80404 0.91537 0.0
C313 C 0.73708 0.87778 0.98703 0.0
O314 O 0.70115 0.8562 1.00313 0.0
C315 C 0.77697 0.72481 0.86388 0.0
O316 O 0.73515 0.71844 0.84895 0.0
C317 C 0.67381 0.7425 0.97328 0.0
O318 O 0.71411 0.7286 0.98733 0.0
O319 O 0.6712 0.77367 0.94306 0.0
O320 O 0.76182 0.85788 0.95752 0.0
O321 O 0.72399 0.84609 0.85522 0.0
C322 C 0.70842 0.83604 0.81605 0.0
O323 O 0.68867 0.79632 0.80932 0.0
O324 O 0.78449 0.75465 0.89467 0.0
Mg325 Mg 0.50122 0.48287 0.16511 0.0
C326 C 0.42777 0.48693 0.23703 0.0
O327 O 0.44935 0.451 0.25316 0.0
C328 C 0.58039 0.52627 0.1133 0.0
O329 O 0.58652 0.48442 0.09834 0.0
C330 C 0.56255 0.4235 0.22322 0.0
O331 O 0.57622 0.46384 0.23738 0.0
O332 O 0.53157 0.42082 0.19283 0.0
O333 O 0.44762 0.51163 0.20744 0.0
O334 O 0.45893 0.47368 0.10512 0.0
C335 C 0.46883 0.45808 0.06591 0.0
O336 O 0.50846 0.43821 0.05904 0.0
O337 O 0.5507 0.53392 0.14421 0.0
Mg338 Mg 0.82247 0.2517 0.41519 0.0
C339 C 0.81861 0.17803 0.48693 0.0
O340 O 0.85456 0.1996 0.503 0.0
C341 C 0.77879 0.33084 0.36356 0.0
O342 O 0.82061 0.33712 0.34856 0.0
C343 C 0.88191 0.31299 0.47334 0.0
O344 O 0.8416 0.32659 0.48767 0.0
O345 O 0.88452 0.28208 0.44286 0.0
O346 O 0.79387 0.19791 0.45741 0.0
O347 O 0.83172 0.2096 0.35509 0.0
C348 C 0.8474 0.21955 0.31593 0.0
O349 O 0.86726 0.25921 0.30916 0.0
O350 O 0.77126 0.30109 0.39444 0.0
Mg351 Mg 0.05423 0.57257 0.66521 0.0
C352 C 0.12788 0.56871 0.73695 0.0
O353 O 0.10627 0.6046 0.75311 0.0
C354 C 0.97503 0.52898 0.61365 0.0
O355 O 0.96876 0.57082 0.59871 0.0
C356 C 0.99302 0.63197 0.72347 0.0
O357 O 0.97951 0.59164 0.73784 0.0
O358 O 1.02385 0.63461 0.69291 0.0
O359 O 0.10804 0.54398 0.7074 0.0
O360 O 0.09632 0.5818 0.60508 0.0
C361 C 0.08636 0.59748 0.56592 0.0
O362 O 0.04671 0.61736 0.55915 0.0
O363 O 1.00482 0.5214 0.64448 0.0
Mg364 Mg 0.73323 0.2517 0.64087 0.0
C365 C 0.73705 0.17797 0.56921 0.0
O366 O 0.70112 0.19955 0.55311 0.0
C367 C 0.77702 0.3309 0.69235 0.0
O368 O 0.73521 0.33732 0.70731 0.0
C369 C 0.67385 0.31297 0.58262 0.0
O370 O 0.71418 0.3265 0.56826 0.0
O371 O 0.67121 0.28212 0.61316 0.0
O372 O 0.76179 0.19786 0.59872 0.0
O373 O 0.72394 0.20962 0.70101 0.0
C374 C 0.70847 0.21971 0.74021 0.0
O375 O 0.68884 0.25947 0.74702 0.0
O376 O 0.78449 0.30104 0.66156 0.0
Mg377 Mg 0.05387 0.48333 0.89102 0.0
C378 C 0.12743 0.48718 0.81918 0.0
O379 O 0.10581 0.45125 0.80313 0.0
C380 C 0.97477 0.527 0.9427 0.0
O381 O 0.96853 0.48519 0.95774 0.0
C382 C 0.99284 0.42384 0.83267 0.0
O383 O 0.97948 0.46414 0.81807 0.0
O384 O 1.0235 0.42125 0.8634 0.0
O385 O 0.1076 0.51193 0.84873 0.0
O386 O 0.09605 0.47414 0.95108 0.0
C387 C 0.08614 0.45848 0.99026 0.0
O388 O 0.0465 0.43861 0.9971 0.0
O389 O 1.00448 0.53452 0.91178 0.0
Mg390 Mg 0.82278 0.8047 0.14089 0.0
C391 C 0.81903 0.87828 0.06906 0.0
O392 O 0.85489 0.85659 0.05293 0.0
C393 C 0.77916 0.72541 0.19234 0.0
O394 O 0.82098 0.71913 0.20733 0.0
C395 C 0.88217 0.74334 0.08286 0.0
O396 O 0.84183 0.72973 0.06863 0.0
O397 O 0.88484 0.7743 0.11327 0.0
O398 O 0.79427 0.8585 0.09863 0.0
O399 O 0.8319 0.84679 0.20102 0.0
C400 C 0.84737 0.83674 0.24024 0.0
O401 O 0.86712 0.79704 0.24706 0.0
O402 O 0.7716 0.75525 0.16155 0.0
Mg403 Mg 0.50174 0.57271 0.39067 0.0
C404 C 0.42799 0.56886 0.31903 0.0
O405 O 0.4496 0.60477 0.30289 0.0
C406 C 0.58094 0.52901 0.44221 0.0
O407 O 0.5873 0.57084 0.45714 0.0
C408 C 0.56307 0.63205 0.33244 0.0
O409 O 0.5767 0.59171 0.31821 0.0
O410 O 0.53214 0.63471 0.36289 0.0
O411 O 0.44789 0.54412 0.34855 0.0
O412 O 0.4597 0.58206 0.45081 0.0
C413 C 0.46976 0.59764 0.48998 0.0
O414 O 0.50949 0.61737 0.49671 0.0
O415 O 0.55112 0.52149 0.41141 0.0
Mg416 Mg 0.91508 0.73312 0.80448 0.0
C417 C 0.98687 0.7371 0.87804 0.0
O418 O 1.00292 0.70112 0.85649 0.0
C419 C 0.86334 0.77659 0.72531 0.0
O420 O 0.84835 0.73475 0.71917 0.0
C421 C 0.97324 0.67369 0.74324 0.0
O422 O 0.98751 0.71401 0.72962 0.0
O423 O 0.94277 0.67104 0.77415 0.0
O424 O 0.95737 0.76184 0.85813 0.0
O425 O 0.85505 0.72395 0.84673 0.0
C426 C 0.81589 0.70823 0.83688 0.0
O427 O 0.80905 0.68827 0.79728 0.0
O428 O 0.89425 0.7842 0.755 0.0
Mg429 Mg 0.57257 0.66445 0.0541 0.0
C430 C 0.56875 0.73639 0.12758 0.0
O431 O 0.60463 0.75247 0.10588 0.0
C432 C 0.52871 0.61295 0.97494 0.0
O433 O 0.57048 0.59787 0.96853 0.0
C434 C 0.63206 0.72278 0.99305 0.0
O435 O 0.59176 0.73744 0.97978 0.0
O436 O 0.63466 0.69201 1.02368 0.0
O437 O 0.54404 0.70677 0.10783 0.0
O438 O 0.5817 0.60437 0.09629 0.0
C439 C 0.59706 0.56512 0.08626 0.0
O440 O 0.61668 0.55821 0.0465 0.0
O441 O 0.52131 0.64379 1.00475 0.0
Mg442 Mg 0.64069 0.32249 0.30425 0.0
C443 C 0.56892 0.31864 0.37783 0.0
O444 O 0.55285 0.35456 0.35619 0.0
C445 C 0.69244 0.27896 0.22512 0.0
O446 O 0.70737 0.32081 0.21888 0.0
C447 C 0.58235 0.38181 0.24305 0.0
O448 O 0.56793 0.34146 0.22965 0.0
O449 O 0.61297 0.3845 0.2738 0.0
O450 O 0.59841 0.29385 0.35795 0.0
O451 O 0.70071 0.33176 0.34647 0.0
C452 C 0.73988 0.3474 0.33654 0.0
O453 O 0.74672 0.36724 0.29687 0.0
O454 O 0.66156 0.27136 0.25485 0.0
Mg455 Mg 0.98316 0.3909 0.55422 0.0
C456 C 0.98723 0.31898 0.6277 0.0
O457 O 0.95129 0.3029 0.60613 0.0
C458 C 1.02665 0.44269 0.47505 0.0
O459 O 0.98484 0.45776 0.46892 0.0
C460 C 0.92365 0.33274 0.49307 0.0
O461 O 0.96396 0.31837 0.47949 0.0
O462 O 0.92105 0.36327 0.52393 0.0
O463 O 1.01192 0.34856 0.60783 0.0
O464 O 0.97404 0.45091 0.5965 0.0
C465 C 0.9584 0.4901 0.58663 0.0
O466 O 0.9385 0.49699 0.54702 0.0
O467 O 0.03423 0.41174 0.50472 0.0
Mg468 Mg 0.9152 0.32256 0.75156 0.0
C469 C 0.98701 0.31862 0.67798 0.0
O470 O 1.00316 0.35452 0.69958 0.0
C471 C 0.86357 0.27905 0.83079 0.0
O472 O 0.84857 0.32088 0.83697 0.0
C473 C 0.9731 0.38209 0.81295 0.0
O474 O 0.98723 0.34179 0.82679 0.0
O475 O 0.94282 0.38467 0.78185 0.0
O476 O 0.95746 0.2939 0.69784 0.0
O477 O 0.85511 0.3317 0.70941 0.0
C478 C 0.81597 0.34745 0.7193 0.0
O479 O 0.80919 0.36745 0.75889 0.0
O480 O 0.89444 0.27145 0.80105 0.0
Mg481 Mg 0.98317 0.66513 1.00193 0.0
C482 C 0.98718 0.7369 0.92832 0.0
O483 O 0.95125 0.75305 0.94988 0.0
C484 C 1.02673 0.61343 0.08111 0.0
O485 O 0.9849 0.59845 0.08738 0.0
C486 C 0.92386 0.7235 0.06309 0.0
O487 O 0.9642 0.73786 0.07656 0.0
O488 O 0.92117 0.69291 0.03231 0.0
O489 O 1.01188 0.70735 0.94821 0.0
O490 O 0.97386 0.6051 0.95974 0.0
C491 C 0.95824 0.56592 0.96972 0.0
O492 O 0.93846 0.5591 1.00941 0.0
O493 O 0.0343 0.64429 0.05135 0.0
Mg494 Mg 0.6409 0.73321 0.25137 0.0
C495 C 0.56905 0.73688 0.17785 0.0
O496 O 0.55296 0.70103 0.19958 0.0
C497 C 0.69226 0.77688 0.33067 0.0
O498 O 0.70728 0.73507 0.33698 0.0
C499 C 0.58281 0.67376 0.31262 0.0
O500 O 0.56841 0.71408 0.32609 0.0
O501 O 0.61336 0.67111 0.28178 0.0
O502 O 0.59861 0.76168 0.19759 0.0
O503 O 0.70104 0.72419 0.20926 0.0
C504 C 0.74025 0.7087 0.21928 0.0
O505 O 0.74708 0.6889 0.25896 0.0
O506 O 0.66148 0.78441 0.30082 0.0
Mg507 Mg 0.5727 0.3909 0.50157 0.0
C508 C 0.56869 0.31899 0.4281 0.0
O509 O 0.60463 0.30288 0.44967 0.0
C510 C 0.52918 0.44262 0.58075 0.0
O511 O 0.57102 0.45758 0.58696 0.0
C512 C 0.63214 0.33275 0.56284 0.0
O513 O 0.59181 0.31845 0.57645 0.0
O514 O 0.63477 0.36323 0.53193 0.0
O515 O 0.544 0.34859 0.44794 0.0
O516 O 0.58189 0.45092 0.45932 0.0
C517 C 0.59753 0.4901 0.46922 0.0
O518 O 0.61741 0.49694 0.50886 0.0
O519 O 0.52159 0.41174 0.55102 0.0
Mg520 Mg 0.80404 0.9147 0.73337 0.0
C521 C 0.87756 0.98655 0.73731 0.0
O522 O 0.85598 1.00268 0.70138 0.0
C523 C 0.72493 0.86301 0.77708 0.0
O524 O 0.71866 0.84793 0.73529 0.0
C525 C 0.74286 0.97296 0.67394 0.0
O526 O 0.72937 0.98736 0.71427 0.0
O527 O 0.77366 0.94238 0.67131 0.0
O528 O 0.85771 0.95699 0.76202 0.0
O529 O 0.84626 0.85467 0.72417 0.0
C530 C 0.8363 0.81545 0.70867 0.0
O531 O 0.7966 0.80856 0.68894 0.0
O532 O 0.75465 0.89392 0.78457 0.0
Mg533 Mg 0.30417 0.64102 0.32274 0.0
C534 C 0.37772 0.56917 0.31879 0.0
O535 O 0.35616 0.55307 0.35474 0.0
C536 C 0.22505 0.69274 0.27907 0.0
O537 O 0.21876 0.70778 0.32088 0.0
C538 C 0.24289 0.58283 0.38213 0.0
O539 O 0.22934 0.56852 0.34179 0.0
O540 O 0.27376 0.61333 0.38479 0.0
O541 O 0.35786 0.59873 0.29408 0.0
O542 O 0.3464 0.70104 0.33198 0.0
C543 C 0.33642 0.74026 0.34746 0.0
O544 O 0.2967 0.74716 0.36715 0.0
O545 O 0.25479 0.66184 0.27156 0.0
Mg546 Mg 0.66503 0.05412 0.57279 0.0
C547 C 0.73681 0.12769 0.56892 0.0
O548 O 0.75287 0.10612 0.60489 0.0
C549 C 0.61333 0.975 0.52918 0.0
O550 O 0.59835 0.96871 0.57101 0.0
C551 C 0.7231 0.99274 0.63222 0.0
O552 O 0.73735 0.9791 0.59189 0.0
O553 O 0.69268 1.02371 0.63485 0.0
O554 O 0.70731 0.10782 0.54416 0.0
O555 O 0.60501 0.09635 0.58202 0.0
C556 C 0.56582 0.08643 0.59763 0.0
O557 O 0.55895 0.04675 0.61743 0.0
O558 O 0.6442 1.00474 0.52162 0.0
Mg559 Mg 0.25138 0.41518 0.82252 0.0
C560 C 0.1777 0.48691 0.8188 0.0
O561 O 0.19935 0.50304 0.85468 0.0
C562 C 0.33074 0.36391 0.77888 0.0
O563 O 0.33701 0.34886 0.82069 0.0
C564 C 0.31249 0.47324 0.88213 0.0
O565 O 0.32607 0.48768 0.84184 0.0
O566 O 0.28165 0.44271 0.88468 0.0
O567 O 0.19752 0.45736 0.79404 0.0
O568 O 0.20942 0.35495 0.83155 0.0
C569 C 0.21944 0.3158 0.84719 0.0
O570 O 0.25907 0.30908 0.86713 0.0
O571 O 0.30089 0.39468 0.77134 0.0
Mg572 Mg 0.39108 0.50201 0.5726 0.0
C573 C 0.31916 0.42855 0.56856 0.0
O574 O 0.30302 0.45012 0.60448 0.0
C575 C 0.4428 0.58114 0.52895 0.0
O576 O 0.45791 0.58734 0.57074 0.0
C577 C 0.33289 0.56312 0.63215 0.0
O578 O 0.31847 0.57668 0.59185 0.0
O579 O 0.36345 0.5323 0.63472 0.0
O580 O 0.34878 0.44838 0.54389 0.0
O581 O 0.45111 0.45977 0.58176 0.0
C582 C 0.49031 0.46966 0.59735 0.0
O583 O 0.49719 0.50931 0.61718 0.0
O584 O 0.41185 0.55146 0.52146 0.0
Mg585 Mg 0.7518 0.14087 0.23327 0.0
C586 C 0.67826 0.06904 0.23718 0.0
O587 O 0.69981 0.05297 0.2012 0.0
C588 C 0.83091 0.19256 0.27697 0.0
O589 O 0.83723 0.2076 0.23517 0.0
C590 C 0.8133 0.08298 0.17379 0.0
O591 O 0.82712 0.06886 0.2141 0.0
O592 O 0.78219 0.11325 0.17118 0.0
O593 O 0.69812 0.09857 0.26191 0.0
O594 O 0.70956 0.20088 0.22405 0.0
C595 C 0.7195 0.2401 0.20852 0.0
O596 O 0.75921 0.247 0.18879 0.0
O597 O 0.80116 0.16167 0.28447 0.0
Mg598 Mg 0.66505 1.00171 0.98336 0.0
C599 C 0.73682 0.92806 0.98731 0.0
O600 O 0.75297 0.94963 0.95138 0.0
C601 C 0.61344 0.08089 1.02704 0.0
O602 O 0.59844 0.08723 0.98522 0.0
C603 C 0.72325 0.06298 0.92393 0.0
O604 O 0.73757 0.07657 0.96425 0.0
O605 O 0.69276 0.0321 0.9213 0.0
O606 O 0.70726 0.94793 1.012 0.0
O607 O 0.60498 0.95957 0.9741 0.0
C608 C 0.56578 0.9696 0.95858 0.0
O609 O 0.55894 1.00933 0.93888 0.0
O610 O 0.64428 0.0511 0.03455 0.0
Mg611 Mg 0.89047 0.05402 0.48347 0.0
C612 C 0.81883 0.12775 0.48729 0.0
O613 O 0.80267 0.10615 0.45139 0.0
C614 C 0.94194 0.97474 0.52708 0.0
O615 O 0.9569 0.96845 0.48525 0.0
C616 C 0.83226 0.99285 0.42401 0.0
O617 O 0.81788 0.97928 0.46432 0.0
O618 O 0.86279 1.0237 0.4214 0.0
O619 O 0.84835 0.10788 0.51204 0.0
O620 O 0.95064 0.09601 0.47422 0.0
C621 C 0.98977 0.08599 0.45851 0.0
O622 O 0.99648 0.04632 0.43865 0.0
O623 O 0.91114 1.00456 0.53465 0.0
loop_
_geom_bond_atom_site_label_1
_geom_bond_atom_site_label_2
_geom_bond_distance
_geom_bond_site_symmetry_2
_ccdc_geom_bond_type
Mg0 O7 2.141 . S
Mg0 O8 2.048 . S
Mg0 O9 2.048 . S
Mg0 O12 2.141 . S
C1 O2 1.313 . S
C1 O8 1.195 . S
O2 C1 1.313 . S
C3 O4 1.245 . S
C3 O12 1.289 . S
O4 C3 1.245 . S
C5 O6 1.245 . S
C5 O7 1.289 . S
O6 C5 1.245 . S
O7 Mg0 2.141 . S
O7 C5 1.289 . S
O8 Mg0 2.048 . S
O8 C1 1.195 . S
O9 Mg0 2.048 . S
O9 C10 1.195 . S
C10 O9 1.195 . S
C10 O11 1.313 . S
O11 C10 1.313 . S
O12 Mg0 2.141 . S
O12 C3 1.289 . S
Mg13 O20 2.141 1_655 S
Mg13 O21 2.048 . S
Mg13 O22 2.048 . S
Mg13 O25 2.141 1_655 S
C14 O15 1.313 . S
C14 O21 1.195 . S
O15 C14 1.313 . S
C16 O17 1.245 . S
C16 O25 1.289 . S
O17 C16 1.245 . S
C18 O19 1.245 . S
C18 O20 1.289 . S
O19 C18 1.245 . S
O20 Mg13 2.141 1_455 S
O20 C18 1.289 . S
O21 Mg13 2.048 . S
O21 C14 1.195 . S
O22 Mg13 2.048 . S
O22 C23 1.195 . S
C23 O22 1.195 . S
C23 O24 1.313 . S
O24 C23 1.313 . S
O25 Mg13 2.141 1_455 S
O25 C16 1.289 . S
Mg26 O33 2.141 . S
Mg26 O34 2.048 . S
Mg26 O35 2.048 . S
Mg26 O38 2.141 . S
C27 O28 1.313 . S
C27 O34 1.195 . S
O28 C27 1.313 . S
C29 O30 1.245 . S
C29 O38 1.289 . S
O30 C29 1.245 . S
C31 O32 1.245 . S
C31 O33 1.289 . S
O32 C31 1.245 . S
O33 Mg26 2.141 . S
O33 C31 1.289 . S
O34 Mg26 2.048 . S
O34 C27 1.195 . S
O35 Mg26 2.048 . S
O35 C36 1.195 . S
C36 O35 1.195 . S
C36 O37 1.313 . S
O37 C36 1.313 . S
O38 Mg26 2.141 . S
O38 C29 1.289 . S
Mg39 O46 2.141 . S
Mg39 O47 2.048 . S
Mg39 O48 2.048 . S
Mg39 O51 2.141 . S
C40 O41 1.313 . S
C40 O47 1.195 . S
O41 C40 1.313 . S
C42 O43 1.245 . S
C42 O51 1.289 . S
O43 C42 1.245 . S
C44 O45 1.245 . S
C44 O46 1.289 . S
O45 C44 1.245 . S
O46 Mg39 2.141 . S
O46 C44 1.289 . S
O47 Mg39 2.048 . S
O47 C40 1.195 . S
O48 Mg39 2.048 . S
O48 C49 1.195 . S
C49 O48 1.195 . S
C49 O50 1.313 . S
O50 C49 1.313 . S
O51 Mg39 2.141 . S
O51 C42 1.289 . S
Mg52 O59 2.141 . S
Mg52 O60 2.048 . S
Mg52 O61 2.048 . S
Mg52 O64 2.141 . S
C53 O54 1.313 . S
C53 O60 1.195 . S
O54 C53 1.313 . S
C55 O56 1.245 . S
C55 O64 1.289 . S
O56 C55 1.245 . S
C57 O58 1.245 . S
C57 O59 1.289 . S
O58 C57 1.245 . S
O59 Mg52 2.141 . S
O59 C57 1.289 . S
O60 Mg52 2.048 . S
O60 C53 1.195 . S
O61 Mg52 2.048 . S
O61 C62 1.195 . S
C62 O61 1.195 . S
C62 O63 1.313 . S
O63 C62 1.313 . S
O64 Mg52 2.141 . S
O64 C55 1.289 . S
Mg65 O72 2.141 . S
Mg65 O73 2.048 . S
Mg65 O74 2.048 . S
Mg65 O77 2.141 . S
C66 O67 1.313 . S
C66 O73 1.195 . S
O67 C66 1.313 . S
C68 O69 1.245 . S
C68 O77 1.289 . S
O69 C68 1.245 . S
C70 O71 1.245 . S
C70 O72 1.289 . S
O71 C70 1.245 . S
O72 Mg65 2.141 . S
O72 C70 1.289 . S
O73 Mg65 2.048 . S
O73 C66 1.195 . S
O74 Mg65 2.048 . S
O74 C75 1.195 . S
C75 O74 1.195 . S
C75 O76 1.313 . S
O76 C75 1.313 . S
O77 Mg65 2.141 . S
O77 C68 1.289 . S
Mg78 O85 2.141 . S
Mg78 O86 2.048 . S
Mg78 O87 2.048 . S
Mg78 O90 2.141 . S
C79 O80 1.313 . S
C79 O86 1.195 . S
O80 C79 1.313 . S
C81 O82 1.245 . S
C81 O90 1.289 . S
O82 C81 1.245 . S
C83 O84 1.245 . S
C83 O85 1.289 . S
O84 C83 1.245 . S
O85 Mg78 2.141 . S
O85 C83 1.289 . S
O86 Mg78 2.048 . S
O86 C79 1.195 . S
O87 Mg78 2.048 . S
O87 C88 1.195 . S
C88 O87 1.195 . S
C88 O89 1.313 . S
O89 C88 1.313 . S
O90 Mg78 2.141 . S
O90 C81 1.289 . S
Mg91 O98 2.141 1_655 S
Mg91 O99 2.048 . S
Mg91 O100 2.048 . S
Mg91 O103 2.141 1_655 S
C92 O93 1.313 . S
C92 O99 1.195 . S
O93 C92 1.313 . S
C94 O95 1.245 . S
C94 O103 1.289 . S
O95 C94 1.245 . S
C96 O97 1.245 . S
C96 O98 1.289 . S
O97 C96 1.245 . S
O98 Mg91 2.141 1_455 S
O98 C96 1.289 . S
O99 Mg91 2.048 . S
O99 C92 1.195 . S
O100 Mg91 2.048 . S
O100 C101 1.195 . S
C101 O100 1.195 . S
C101 O102 1.313 . S
O102 C101 1.313 . S
O103 Mg91 2.141 1_455 S
O103 C94 1.289 . S
Mg104 O111 2.141 . S
Mg104 O112 2.048 . S
Mg104 O113 2.048 . S
Mg104 O116 2.141 . S
C105 O106 1.313 . S
C105 O112 1.195 . S
O106 C105 1.313 . S
C107 O108 1.245 . S
C107 O116 1.289 . S
O108 C107 1.245 . S
C109 O110 1.245 . S
C109 O111 1.289 . S
O110 C109 1.245 . S
O111 Mg104 2.141 . S
O111 C109 1.289 . S
O112 Mg104 2.048 . S
O112 C105 1.195 . S
O113 Mg104 2.048 . S
O113 C114 1.195 . S
C114 O113 1.195 . S
C114 O115 1.313 . S
O115 C114 1.313 . S
O116 Mg104 2.141 . S
O116 C107 1.289 . S
Mg117 O124 2.141 . S
Mg117 O125 2.048 . S
Mg117 O126 2.048 . S
Mg117 O129 2.141 . S
C118 O119 1.313 . S
C118 O125 1.195 . S
O119 C118 1.313 . S
C120 O121 1.245 . S
C120 O129 1.289 . S
O121 C120 1.245 . S
C122 O123 1.245 . S
C122 O124 1.289 . S
O123 C122 1.245 . S
O124 Mg117 2.141 . S
O124 C122 1.289 . S
O125 Mg117 2.048 . S
O125 C118 1.195 . S
O126 Mg117 2.048 . S
O126 C127 1.195 . S
C127 O126 1.195 . S
C127 O128 1.313 . S
O128 C127 1.313 . S
O129 Mg117 2.141 . S
O129 C120 1.289 . S
Mg130 O137 2.141 . S
Mg130 O138 2.048 . S
Mg130 O139 2.048 . S
Mg130 O142 2.141 . S
C131 O132 1.313 . S
C131 O138 1.195 . S
O132 C131 1.313 . S
C133 O134 1.245 . S
C133 O142 1.289 . S
O134 C133 1.245 . S
C135 O136 1.245 . S
C135 O137 1.289 . S
O136 C135 1.245 . S
O137 Mg130 2.141 . S
O137 C135 1.289 . S
O138 Mg130 2.048 . S
O138 C131 1.195 . S
O139 Mg130 2.048 . S
O139 C140 1.195 . S
C140 O139 1.195 . S
C140 O141 1.313 . S
O141 C140 1.313 . S
O142 Mg130 2.141 . S
O142 C133 1.289 . S
Mg143 O150 2.141 1_554 S
Mg143 O151 2.048 . S
Mg143 O152 2.048 . S
Mg143 O155 2.141 1_554 S
C144 O145 1.313 . S
C144 O151 1.195 . S
O145 C144 1.313 . S
C146 O147 1.245 . S
C146 O155 1.289 . S
O147 C146 1.245 . S
C148 O149 1.245 . S
C148 O150 1.289 . S
O149 C148 1.245 . S
O150 Mg143 2.141 1_556 S
O150 C148 1.289 . S
O151 Mg143 2.048 . S
O151 C144 1.195 . S
O152 Mg143 2.048 . S
O152 C153 1.195 . S
C153 O152 1.195 . S
C153 O154 1.313 . S
O154 C153 1.313 . S
O155 Mg143 2.141 1_556 S
O155 C146 1.289 . S
Mg156 O163 2.141 . S
Mg156 O164 2.048 . S
Mg156 O165 2.048 . S
Mg156 O168 2.141 . S
C157 O158 1.313 . S
C157 O164 1.195 . S
O158 C157 1.313 . S
C159 O160 1.245 . S
C159 O168 1.289 . S
O160 C159 1.245 . S
C161 O162 1.245 . S
C161 O163 1.289 . S
O162 C161 1.245 . S
O163 Mg156 2.141 . S
O163 C161 1.289 . S
O164 Mg156 2.048 . S
O164 C157 1.195 . S
O165 Mg156 2.048 . S
O165 C166 1.195 . S
C166 O165 1.195 . S
C166 O167 1.313 . S
O167 C166 1.313 . S
O168 Mg156 2.141 . S
O168 C159 1.289 . S
Mg169 O176 2.141 . S
Mg169 O177 2.048 . S
Mg169 O178 2.048 . S
Mg169 O181 2.141 . S
C170 O171 1.313 . S
C170 O177 1.195 . S
O171 C170 1.313 . S
C172 O173 1.245 . S
C172 O181 1.289 . S
O173 C172 1.245 . S
C174 O175 1.245 . S
C174 O176 1.289 . S
O175 C174 1.245 . S
O176 Mg169 2.141 . S
O176 C174 1.289 . S
O177 Mg169 2.048 . S
O177 C170 1.195 . S
O178 Mg169 2.048 . S
O178 C179 1.195 . S
C179 O178 1.195 . S
C179 O180 1.313 . S
O180 C179 1.313 . S
O181 Mg169 2.141 . S
O181 C172 1.289 . S
Mg182 O189 2.141 . S
Mg182 O190 2.048 . S
Mg182 O191 2.048 . S
Mg182 O194 2.141 . S
C183 O184 1.313 . S
C183 O190 1.195 . S
O184 C183 1.313 . S
C185 O186 1.245 . S
C185 O194 1.289 . S
O186 C185 1.245 . S
C187 O188 1.245 . S
C187 O189 1.289 . S
O188 C187 1.245 . S
O189 Mg182 2.141 . S
O189 C187 1.289 . S
O190 Mg182 2.048 . S
O190 C183 1.195 . S
O191 Mg182 2.048 . S
O191 C192 1.195 . S
C192 O191 1.195 . S
C192 O193 1.313 . S
O193 C192 1.313 . S
O194 Mg182 2.141 . S
O194 C185 1.289 . S
Mg195 O202 2.141 1_556 S
Mg195 O203 2.048 . S
Mg195 O204 2.048 . S
Mg195 O207 2.141 1_556 S
C196 O197 1.313 . S
C196 O203 1.195 . S
O197 C196 1.313 . S
C198 O199 1.245 . S
C198 O207 1.289 . S
O199 C198 1.245 . S
C200 O201 1.245 . S
C200 O202 1.289 . S
O201 C200 1.245 . S
O202 Mg195 2.141 1_554 S
O202 C200 1.289 . S
O203 Mg195 2.048 . S
O203 C196 1.195 . S
O204 Mg195 2.048 . S
O204 C205 1.195 . S
C205 O204 1.195 . S
C205 O206 1.313 . S
O206 C205 1.313 . S
O207 Mg195 2.141 1_554 S
O207 C198 1.289 . S
Mg208 O215 2.141 . S
Mg208 O216 2.048 . S
Mg208 O217 2.048 . S
Mg208 O220 2.141 . S
C209 O210 1.313 . S
C209 O216 1.195 . S
O210 C209 1.313 . S
C211 O212 1.245 . S
C211 O220 1.289 . S
O212 C211 1.245 . S
C213 O214 1.245 . S
C213 O215 1.289 . S
O214 C213 1.245 . S
O215 Mg208 2.141 . S
O215 C213 1.289 . S
O216 Mg208 2.048 . S
O216 C209 1.195 . S
O217 Mg208 2.048 . S
O217 C218 1.195 . S
C218 O217 1.195 . S
C218 O219 1.313 . S
O219 C218 1.313 . S
O220 Mg208 2.141 . S
O220 C211 1.289 . S
Mg221 O228 2.141 . S
Mg221 O229 2.048 . S
Mg221 O230 2.048 . S
Mg221 O233 2.141 . S
C222 O223 1.313 . S
C222 O229 1.195 . S
O223 C222 1.313 . S
C224 O225 1.245 . S
C224 O233 1.289 . S
O225 C224 1.245 . S
C226 O227 1.245 . S
C226 O228 1.289 . S
O227 C226 1.245 . S
O228 Mg221 2.141 . S
O228 C226 1.289 . S
O229 Mg221 2.048 . S
O229 C222 1.195 . S
O230 Mg221 2.048 . S
O230 C231 1.195 . S
C231 O230 1.195 . S
C231 O232 1.313 . S
O232 C231 1.313 . S
O233 Mg221 2.141 . S
O233 C224 1.289 . S
Mg234 O241 2.141 . S
Mg234 O242 2.048 . S
Mg234 O243 2.048 . S
Mg234 O246 2.141 . S
C235 O236 1.313 . S
C235 O242 1.195 . S
O236 C235 1.313 . S
C237 O238 1.245 . S
C237 O246 1.289 . S
O238 C237 1.245 . S
C239 O240 1.245 . S
C239 O241 1.289 . S
O240 C239 1.245 . S
O241 Mg234 2.141 . S
O241 C239 1.289 . S
O242 Mg234 2.048 . S
O242 C235 1.195 . S
O243 Mg234 2.048 . S
O243 C244 1.195 . S
C244 O243 1.195 . S
C244 O245 1.313 . S
O245 C244 1.313 . S
O246 Mg234 2.141 . S
O246 C237 1.289 . S
Mg247 O254 2.141 . S
Mg247 O255 2.048 . S
Mg247 O256 2.048 . S
Mg247 O259 2.141 . S
C248 O249 1.313 . S
C248 O255 1.195 . S
O249 C248 1.313 . S
C250 O251 1.245 . S
C250 O259 1.289 . S
O251 C250 1.245 . S
C252 O253 1.245 . S
C252 O254 1.289 . S
O253 C252 1.245 . S
O254 Mg247 2.141 . S
O254 C252 1.289 . S
O255 Mg247 2.048 . S
O255 C248 1.195 . S
O256 Mg247 2.048 . S
O256 C257 1.195 . S
C257 O256 1.195 . S
C257 O258 1.313 . S
O258 C257 1.313 . S
O259 Mg247 2.141 . S
O259 C250 1.289 . S
Mg260 O267 2.141 1_565 S
Mg260 O268 2.048 . S
Mg260 O269 2.048 . S
Mg260 O272 2.141 1_565 S
C261 O262 1.313 . S
C261 O268 1.195 . S
O262 C261 1.313 . S
C263 O264 1.245 . S
C263 O272 1.289 . S
O264 C263 1.245 . S
C265 O266 1.245 . S
C265 O267 1.289 . S
O266 C265 1.245 . S
O267 Mg260 2.141 1_545 S
O267 C265 1.289 . S
O268 Mg260 2.048 . S
O268 C261 1.195 . S
O269 Mg260 2.048 . S
O269 C270 1.195 . S
C270 O269 1.195 . S
C270 O271 1.313 . S
O271 C270 1.313 . S
O272 Mg260 2.141 1_545 S
O272 C263 1.289 . S
Mg273 O280 2.141 . S
Mg273 O281 2.048 . S
Mg273 O282 2.048 . S
Mg273 O285 2.141 . S
C274 O275 1.313 . S
C274 O281 1.195 . S
O275 C274 1.313 . S
C276 O277 1.245 . S
C276 O285 1.289 . S
O277 C276 1.245 . S
C278 O279 1.245 . S
C278 O280 1.289 . S
O279 C278 1.245 . S
O280 Mg273 2.141 . S
O280 C278 1.289 . S
O281 Mg273 2.048 . S
O281 C274 1.195 . S
O282 Mg273 2.048 . S
O282 C283 1.195 . S
C283 O282 1.195 . S
C283 O284 1.313 . S
O284 C283 1.313 . S
O285 Mg273 2.141 . S
O285 C276 1.289 . S
Mg286 O293 2.141 . S
Mg286 O294 2.048 . S
Mg286 O295 2.048 . S
Mg286 O298 2.141 . S
C287 O288 1.313 . S
C287 O294 1.195 . S
O288 C287 1.313 . S
C289 O290 1.245 . S
C289 O298 1.289 . S
O290 C289 1.245 . S
C291 O292 1.245 . S
C291 O293 1.289 . S
O292 C291 1.245 . S
O293 Mg286 2.141 . S
O293 C291 1.289 . S
O294 Mg286 2.048 . S
O294 C287 1.195 . S
O295 Mg286 2.048 . S
O295 C296 1.195 . S
C296 O295 1.195 . S
C296 O297 1.313 . S
O297 C296 1.313 . S
O298 Mg286 2.141 . S
O298 C289 1.289 . S
Mg299 O306 2.141 . S
Mg299 O307 2.048 . S
Mg299 O308 2.048 . S
Mg299 O311 2.141 . S
C300 O301 1.313 . S
C300 O307 1.195 . S
O301 C300 1.313 . S
C302 O303 1.245 . S
C302 O311 1.289 . S
O303 C302 1.245 . S
C304 O305 1.245 . S
C304 O306 1.289 . S
O305 C304 1.245 . S
O306 Mg299 2.141 . S
O306 C304 1.289 . S
O307 Mg299 2.048 . S
O307 C300 1.195 . S
O308 Mg299 2.048 . S
O308 C309 1.195 . S
C309 O308 1.195 . S
C309 O310 1.313 . S
O310 C309 1.313 . S
O311 Mg299 2.141 . S
O311 C302 1.289 . S
Mg312 O319 2.141 . S
Mg312 O320 2.048 . S
Mg312 O321 2.048 . S
Mg312 O324 2.141 . S
C313 O314 1.313 . S
C313 O320 1.195 . S
O314 C313 1.313 . S
C315 O316 1.245 . S
C315 O324 1.289 . S
O316 C315 1.245 . S
C317 O318 1.245 . S
C317 O319 1.289 . S
O318 C317 1.245 . S
O319 Mg312 2.141 . S
O319 C317 1.289 . S
O320 Mg312 2.048 . S
O320 C313 1.195 . S
O321 Mg312 2.048 . S
O321 C322 1.195 . S
C322 O321 1.195 . S
C322 O323 1.313 . S
O323 C322 1.313 . S
O324 Mg312 2.141 . S
O324 C315 1.289 . S
Mg325 O332 2.141 . S
Mg325 O333 2.048 . S
Mg325 O334 2.048 . S
Mg325 O337 2.141 . S
C326 O327 1.313 . S
C326 O333 1.195 . S
O327 C326 1.313 . S
C328 O329 1.245 . S
C328 O337 1.289 . S
O329 C328 1.245 . S
C330 O331 1.245 . S
C330 O332 1.289 . S
O331 C330 1.245 . S
O332 Mg325 2.141 . S
O332 C330 1.289 . S
O333 Mg325 2.048 . S
O333 C326 1.195 . S
O334 Mg325 2.048 . S
O334 C335 1.195 . S
C335 O334 1.195 . S
C335 O336 1.313 . S
O336 C335 1.313 . S
O337 Mg325 2.141 . S
O337 C328 1.289 . S
Mg338 O345 2.141 . S
Mg338 O346 2.048 . S
Mg338 O347 2.048 . S
Mg338 O350 2.141 . S
C339 O340 1.313 . S
C339 O346 1.195 . S
O340 C339 1.313 . S
C341 O342 1.245 . S
C341 O350 1.289 . S
O342 C341 1.245 . S
C343 O344 1.245 . S
C343 O345 1.289 . S
O344 C343 1.245 . S
O345 Mg338 2.141 . S
O345 C343 1.289 . S
O346 Mg338 2.048 . S
O346 C339 1.195 . S
O347 Mg338 2.048 . S
O347 C348 1.195 . S
C348 O347 1.195 . S
C348 O349 1.313 . S
O349 C348 1.313 . S
O350 Mg338 2.141 . S
O350 C341 1.289 . S
Mg351 O358 2.141 1_455 S
Mg351 O359 2.048 . S
Mg351 O360 2.048 . S
Mg351 O363 2.141 1_455 S
C352 O353 1.313 . S
C352 O359 1.195 . S
O353 C352 1.313 . S
C354 O355 1.245 . S
C354 O363 1.289 . S
O355 C354 1.245 . S
C356 O357 1.245 . S
C356 O358 1.289 . S
O357 C356 1.245 . S
O358 Mg351 2.141 1_655 S
O358 C356 1.289 . S
O359 Mg351 2.048 . S
O359 C352 1.195 . S
O360 Mg351 2.048 . S
O360 C361 1.195 . S
C361 O360 1.195 . S
C361 O362 1.313 . S
O362 C361 1.313 . S
O363 Mg351 2.141 1_655 S
O363 C354 1.289 . S
Mg364 O371 2.141 . S
Mg364 O372 2.048 . S
Mg364 O373 2.048 . S
Mg364 O376 2.141 . S
C365 O366 1.313 . S
C365 O372 1.195 . S
O366 C365 1.313 . S
C367 O368 1.245 . S
C367 O376 1.289 . S
O368 C367 1.245 . S
C369 O370 1.245 . S
C369 O371 1.289 . S
O370 C369 1.245 . S
O371 Mg364 2.141 . S
O371 C369 1.289 . S
O372 Mg364 2.048 . S
O372 C365 1.195 . S
O373 Mg364 2.048 . S
O373 C374 1.195 . S
C374 O373 1.195 . S
C374 O375 1.313 . S
O375 C374 1.313 . S
O376 Mg364 2.141 . S
O376 C367 1.289 . S
Mg377 O384 2.141 1_455 S
Mg377 O385 2.048 . S
Mg377 O386 2.048 . S
Mg377 O389 2.141 1_455 S
C378 O379 1.313 . S
C378 O385 1.195 . S
O379 C378 1.313 . S
C380 O381 1.245 . S
C380 O389 1.289 . S
O381 C380 1.245 . S
C382 O383 1.245 . S
C382 O384 1.289 . S
O383 C382 1.245 . S
O384 Mg377 2.141 1_655 S
O384 C382 1.289 . S
O385 Mg377 2.048 . S
O385 C378 1.195 . S
O386 Mg377 2.048 . S
O386 C387 1.195 . S
C387 O386 1.195 . S
C387 O388 1.313 . S
O388 C387 1.313 . S
O389 Mg377 2.141 1_655 S
O389 C380 1.289 . S
Mg390 O397 2.141 . S
Mg390 O398 2.048 . S
Mg390 O399 2.048 . S
Mg390 O402 2.141 . S
C391 O392 1.313 . S
C391 O398 1.195 . S
O392 C391 1.313 . S
C393 O394 1.245 . S
C393 O402 1.289 . S
O394 C393 1.245 . S
C395 O396 1.245 . S
C395 O397 1.289 . S
O396 C395 1.245 . S
O397 Mg390 2.141 . S
O397 C395 1.289 . S
O398 Mg390 2.048 . S
O398 C391 1.195 . S
O399 Mg390 2.048 . S
O399 C400 1.195 . S
C400 O399 1.195 . S
C400 O401 1.313 . S
O401 C400 1.313 . S
O402 Mg390 2.141 . S
O402 C393 1.289 . S
Mg403 O410 2.141 . S
Mg403 O411 2.048 . S
Mg403 O412 2.048 . S
Mg403 O415 2.141 . S
C404 O405 1.313 . S
C404 O411 1.195 . S
O405 C404 1.313 . S
C406 O407 1.245 . S
C406 O415 1.289 . S
O407 C406 1.245 . S
C408 O409 1.245 . S
C408 O410 1.289 . S
O409 C408 1.245 . S
O410 Mg403 2.141 . S
O410 C408 1.289 . S
O411 Mg403 2.048 . S
O411 C404 1.195 . S
O412 Mg403 2.048 . S
O412 C413 1.195 . S
C413 O412 1.195 . S
C413 O414 1.313 . S
O414 C413 1.313 . S
O415 Mg403 2.141 . S
O415 C406 1.289 . S
Mg416 O423 2.141 . S
Mg416 O424 2.048 . S
Mg416 O425 2.048 . S
Mg416 O428 2.141 . S
C417 O418 1.313 . S
C417 O424 1.195 . S
O418 C417 1.313 . S
C419 O420 1.245 . S
C419 O428 1.289 . S
O420 C419 1.245 . S
C421 O422 1.245 . S
C421 O423 1.289 . S
O422 C421 1.245 . S
O423 Mg416 2.141 . S
O423 C421 1.289 . S
O424 Mg416 2.048 . S
O424 C417 1.195 . S
O425 Mg416 2.048 . S
O425 C426 1.195 . S
C426 O425 1.195 . S
C426 O427 1.313 . S
O427 C426 1.313 . S
O428 Mg416 2.141 . S
O428 C419 1.289 . S
Mg429 O436 2.141 1_554 S
Mg429 O437 2.048 . S
Mg429 O438 2.048 . S
Mg429 O441 2.141 1_554 S
C430 O431 1.313 . S
C430 O437 1.195 . S
O431 C430 1.313 . S
C432 O433 1.245 . S
C432 O441 1.289 . S
O433 C432 1.245 . S
C434 O435 1.245 . S
C434 O436 1.289 . S
O435 C434 1.245 . S
O436 Mg429 2.141 1_556 S
O436 C434 1.289 . S
O437 Mg429 2.048 . S
O437 C430 1.195 . S
O438 Mg429 2.048 . S
O438 C439 1.195 . S
C439 O438 1.195 . S
C439 O440 1.313 . S
O440 C439 1.313 . S
O441 Mg429 2.141 1_556 S
O441 C432 1.289 . S
Mg442 O449 2.141 . S
Mg442 O450 2.048 . S
Mg442 O451 2.048 . S
Mg442 O454 2.141 . S
C443 O444 1.313 . S
C443 O450 1.195 . S
O444 C443 1.313 . S
C445 O446 1.245 . S
C445 O454 1.289 . S
O446 C445 1.245 . S
C447 O448 1.245 . S
C447 O449 1.289 . S
O448 C447 1.245 . S
O449 Mg442 2.141 . S
O449 C447 1.289 . S
O450 Mg442 2.048 . S
O450 C443 1.195 . S
O451 Mg442 2.048 . S
O451 C452 1.195 . S
C452 O451 1.195 . S
C452 O453 1.313 . S
O453 C452 1.313 . S
O454 Mg442 2.141 . S
O454 C445 1.289 . S
Mg455 O462 2.141 . S
Mg455 O463 2.048 . S
Mg455 O464 2.048 . S
Mg455 O467 2.141 . S
C456 O457 1.313 . S
C456 O463 1.195 . S
O457 C456 1.313 . S
C458 O459 1.245 . S
C458 O467 1.289 . S
O459 C458 1.245 . S
C460 O461 1.245 . S
C460 O462 1.289 . S
O461 C460 1.245 . S
O462 Mg455 2.141 . S
O462 C460 1.289 . S
O463 Mg455 2.048 . S
O463 C456 1.195 . S
O464 Mg455 2.048 . S
O464 C465 1.195 . S
C465 O464 1.195 . S
C465 O466 1.313 . S
O466 C465 1.313 . S
O467 Mg455 2.141 . S
O467 C458 1.289 . S
Mg468 O475 2.141 . S
Mg468 O476 2.048 . S
Mg468 O477 2.048 . S
Mg468 O480 2.141 . S
C469 O470 1.313 . S
C469 O476 1.195 . S
O470 C469 1.313 . S
C471 O472 1.245 . S
C471 O480 1.289 . S
O472 C471 1.245 . S
C473 O474 1.245 . S
C473 O475 1.289 . S
O474 C473 1.245 . S
O475 Mg468 2.141 . S
O475 C473 1.289 . S
O476 Mg468 2.048 . S
O476 C469 1.195 . S
O477 Mg468 2.048 . S
O477 C478 1.195 . S
C478 O477 1.195 . S
C478 O479 1.313 . S
O479 C478 1.313 . S
O480 Mg468 2.141 . S
O480 C471 1.289 . S
Mg481 O488 2.141 1_556 S
Mg481 O489 2.048 . S
Mg481 O490 2.048 . S
Mg481 O493 2.141 1_556 S
C482 O483 1.313 . S
C482 O489 1.195 . S
O483 C482 1.313 . S
C484 O485 1.245 . S
C484 O493 1.289 . S
O485 C484 1.245 . S
C486 O487 1.245 . S
C486 O488 1.289 . S
O487 C486 1.245 . S
O488 Mg481 2.141 1_554 S
O488 C486 1.289 . S
O489 Mg481 2.048 . S
O489 C482 1.195 . S
O490 Mg481 2.048 . S
O490 C491 1.195 . S
C491 O490 1.195 . S
C491 O492 1.313 . S
O492 C491 1.313 . S
O493 Mg481 2.141 1_554 S
O493 C484 1.289 . S
Mg494 O501 2.141 . S
Mg494 O502 2.048 . S
Mg494 O503 2.048 . S
Mg494 O506 2.141 . S
C495 O496 1.313 . S
C495 O502 1.195 . S
O496 C495 1.313 . S
C497 O498 1.245 . S
C497 O506 1.289 . S
O498 C497 1.245 . S
C499 O500 1.245 . S
C499 O501 1.289 . S
O500 C499 1.245 . S
O501 Mg494 2.141 . S
O501 C499 1.289 . S
O502 Mg494 2.048 . S
O502 C495 1.195 . S
O503 Mg494 2.048 . S
O503 C504 1.195 . S
C504 O503 1.195 . S
C504 O505 1.313 . S
O505 C504 1.313 . S
O506 Mg494 2.141 . S
O506 C497 1.289 . S
Mg507 O514 2.141 . S
Mg507 O515 2.048 . S
Mg507 O516 2.048 . S
Mg507 O519 2.141 . S
C508 O509 1.313 . S
C508 O515 1.195 . S
O509 C508 1.313 . S
C510 O511 1.245 . S
C510 O519 1.289 . S
O511 C510 1.245 . S
C512 O513 1.245 . S
C512 O514 1.289 . S
O513 C512 1.245 . S
O514 Mg507 2.141 . S
O514 C512 1.289 . S
O515 Mg507 2.048 . S
O515 C508 1.195 . S
O516 Mg507 2.048 . S
O516 C517 1.195 . S
C517 O516 1.195 . S
C517 O518 1.313 . S
O518 C517 1.313 . S
O519 Mg507 2.141 . S
O519 C510 1.289 . S
Mg520 O527 2.141 . S
Mg520 O528 2.048 . S
Mg520 O529 2.048 . S
Mg520 O532 2.141 . S
C521 O522 1.313 . S
C521 O528 1.195 . S
O522 C521 1.313 . S
C523 O524 1.245 . S
C523 O532 1.289 . S
O524 C523 1.245 . S
C525 O526 1.245 . S
C525 O527 1.289 . S
O526 C525 1.245 . S
O527 Mg520 2.141 . S
O527 C525 1.289 . S
O528 Mg520 2.048 . S
O528 C521 1.195 . S
O529 Mg520 2.048 . S
O529 C530 1.195 . S
C530 O529 1.195 . S
C530 O531 1.313 . S
O531 C530 1.313 . S
O532 Mg520 2.141 . S
O532 C523 1.289 . S
Mg533 O540 2.141 . S
Mg533 O541 2.048 . S
Mg533 O542 2.048 . S
Mg533 O545 2.141 . S
C534 O535 1.313 . S
C534 O541 1.195 . S
O535 C534 1.313 . S
C536 O537 1.245 . S
C536 O545 1.289 . S
O537 C536 1.245 . S
C538 O539 1.245 . S
C538 O540 1.289 . S
O539 C538 1.245 . S
O540 Mg533 2.141 . S
O540 C538 1.289 . S
O541 Mg533 2.048 . S
O541 C534 1.195 . S
O542 Mg533 2.048 . S
O542 C543 1.195 . S
C543 O542 1.195 . S
C543 O544 1.313 . S
O544 C543 1.313 . S
O545 Mg533 2.141 . S
O545 C536 1.289 . S
Mg546 O553 2.141 1_545 S
Mg546 O554 2.048 . S
Mg546 O555 2.048 . S
Mg546 O558 2.141 1_545 S
C547 O548 1.313 . S
C547 O554 1.195 . S
O548 C547 1.313 . S
C549 O550 1.245 . S
C549 O558 1.289 . S
O550 C549 1.245 . S
C551 O552 1.245 . S
C551 O553 1.289 . S
O552 C551 1.245 . S
O553 Mg546 2.141 1_565 S
O553 C551 1.289 . S
O554 Mg546 2.048 . S
O554 C547 1.195 . S
O555 Mg546 2.048 . S
O555 C556 1.195 . S
C556 O555 1.195 . S
C556 O557 1.313 . S
O557 C556 1.313 . S
O558 Mg546 2.141 1_565 S
O558 C549 1.289 . S
Mg559 O566 2.141 . S
Mg559 O567 2.048 . S
Mg559 O568 2.048 . S
Mg559 O571 2.141 . S
C560 O561 1.313 . S
C560 O567 1.195 . S
O561 C560 1.313 . S
C562 O563 1.245 . S
C562 O571 1.289 . S
O563 C562 1.245 . S
C564 O565 1.245 . S
C564 O566 1.289 . S
O565 C564 1.245 . S
O566 Mg559 2.141 . S
O566 C564 1.289 . S
O567 Mg559 2.048 . S
O567 C560 1.195 . S
O568 Mg559 2.048 . S
O568 C569 1.195 . S
C569 O568 1.195 . S
C569 O570 1.313 . S
O570 C569 1.313 . S
O571 Mg559 2.141 . S
O571 C562 1.289 . S
Mg572 O579 2.141 . S
Mg572 O580 2.048 . S
Mg572 O581 2.048 . S
Mg572 O584 2.141 . S
C573 O574 1.313 . S
C573 O580 1.195 . S
O574 C573 1.313 . S
C575 O576 1.245 . S
C575 O584 1.289 . S
O576 C575 1.245 . S
C577 O578 1.245 . S
C577 O579 1.289 . S
O578 C577 1.245 . S
O579 Mg572 2.141 . S
O579 C577 1.289 . S
O580 Mg572 2.048 . S
O580 C573 1.195 . S
O581 Mg572 2.048 . S
O581 C582 1.195 . S
C582 O581 1.195 . S
C582 O583 1.313 . S
O583 C582 1.313 . S
O584 Mg572 2.141 . S
O584 C575 1.289 . S
Mg585 O592 2.141 . S
Mg585 O593 2.048 . S
Mg585 O594 2.048 . S
Mg585 O597 2.141 . S
C586 O587 1.313 . S
C586 O593 1.195 . S
O587 C586 1.313 . S
C588 O589 1.245 . S
C588 O597 1.289 . S
O589 C588 1.245 . S
C590 O591 1.245 . S
C590 O592 1.289 . S
O591 C590 1.245 . S
O592 Mg585 2.141 . S
O592 C590 1.289 . S
O593 Mg585 2.048 . S
O593 C586 1.195 . S
O594 Mg585 2.048 . S
O594 C595 1.195 . S
C595 O594 1.195 . S
C595 O596 1.313 . S
O596 C595 1.313 . S
O597 Mg585 2.141 . S
O597 C588 1.289 . S
Mg598 O605 2.141 1_565 S
Mg598 O606 2.048 . S
Mg598 O607 2.048 . S
Mg598 O610 2.141 1_565 S
C599 O600 1.313 . S
C599 O606 1.195 . S
O600 C599 1.313 . S
C601 O602 1.245 . S
C601 O610 1.289 . S
O602 C601 1.245 . S
C603 O604 1.245 . S
C603 O605 1.289 . S
O604 C603 1.245 . S
O605 Mg598 2.141 1_545 S
O605 C603 1.289 . S
O606 Mg598 2.048 . S
O606 C599 1.195 . S
O607 Mg598 2.048 . S
O607 C608 1.195 . S
C608 O607 1.195 . S
C608 O609 1.313 . S
O609 C608 1.313 . S
O610 Mg598 2.141 1_545 S
O610 C601 1.289 . S
Mg611 O618 2.141 1_545 S
Mg611 O619 2.048 . S
Mg611 O620 2.048 . S
Mg611 O623 2.141 1_545 S
C612 O613 1.313 . S
C612 O619 1.195 . S
O613 C612 1.313 . S
C614 O615 1.245 . S
C614 O623 1.289 . S
O615 C614 1.245 . S
C616 O617 1.245 . S
C616 O618 1.289 . S
O617 C616 1.245 . S
O618 Mg611 2.141 1_565 S
O618 C616 1.289 . S
O619 Mg611 2.048 . S
O619 C612 1.195 . S
O620 Mg611 2.048 . S
O620 C621 1.195 . S
C621 O620 1.195 . S
C621 O622 1.313 . S
O622 C621 1.313 . S
O623 Mg611 2.141 1_565 S
O623 C614 1.289 . S
C122 C5 1.986 . S
C135 C18 1.985 . S
C148 C31 1.986 . S
C109 C44 1.986 . S
C57 C200 1.986 . S
C70 C161 1.986 . S
C83 C174 1.985 . S
C187 C96 1.986 . S
C213 C239 1.986 . S
C226 C603 1.985 . S
C252 C616 1.986 . S
C265 C590 1.986 . S
C278 C577 1.986 . S
C538 C291 1.985 . S
C304 C564 1.986 . S
C434 C317 1.986 . S
C447 C330 1.985 . S
C460 C343 1.986 . S
C421 C356 1.986 . S
C512 C369 1.986 . S
C473 C382 1.986 . S
C395 C486 1.985 . S
C408 C499 1.986 . S
C525 C551 1.986 . S
C211 C10 1.807 . S
C614 C23 1.807 . S
C36 C276 1.807 . S
C601 C49 1.807 1_556 S
C62 C536 1.807 . S
C549 C75 1.807 . S
C88 C562 1.807 . S
C263 C101 1.808 1_554 S
C114 C3 1.807 . S
C16 C127 1.807 1_565 S
C140 C29 1.808 . S
C42 C153 1.807 1_545 S
C166 C55 1.807 . S
C68 C179 1.808 1_565 S
C192 C81 1.807 . S
C205 C94 1.808 1_565 S
C218 C107 1.807 . S
C231 C471 1.808 . S
C484 C244 1.807 1_655 S
C497 C257 1.807 . S
C198 C270 1.808 1_455 S
C283 C133 1.807 . S
C458 C296 1.808 1_655 S
C309 C432 1.807 . S
C322 C523 1.807 . S
C335 C302 1.808 1_554 S
C348 C588 1.807 . S
C361 C289 1.807 . S
C374 C224 1.807 . S
C387 C237 1.807 1_556 S
C250 C400 1.808 . S
C575 C413 1.807 . S
C315 C426 1.807 . S
C328 C439 1.807 . S
C452 C341 1.807 . S
C354 C465 1.807 . S
C478 C367 1.807 . S
C491 C380 1.807 . S
C504 C393 1.807 . S
C406 C517 1.807 . S
C530 C419 1.807 . S
C543 C159 1.807 . S
C172 C556 1.807 . S
C569 C185 1.807 . S
C582 C510 1.807 . S
C445 C595 1.807 . S
C146 C608 1.807 . S
C120 C621 1.807 1_455 S
C287 C1 2.220 . S
C14 C521 2.220 . S
C27 C300 2.220 . S
C586 C40 2.220 . S
C53 C235 2.220 . S
C248 C66 2.220 . S
C573 C79 2.220 . S
C92 C222 2.220 . S
C170 C105 2.220 . S
C118 C183 2.220 . S
C196 C131 2.220 . S
C144 C157 2.220 . S
C326 C209 2.220 . S
C261 C391 2.220 . S
C274 C352 2.219 . S
C599 C313 2.220 . S
C339 C612 2.220 . S
C365 C547 2.219 . S
C378 C560 2.220 . S
C534 C404 2.220 . S
C482 C417 2.220 . S
C430 C495 2.219 . S
C443 C508 2.220 . S
C469 C456 2.220 . S
