# Generated by pormake.
# Topology mon, (4)-cn, num edge types: 1
# Building blocks:
#     Node 0, Type 0, BuildingBlock: NAHDIM_clean_sbu_0, # of connection points: 4
#     Node 1, Type 0, BuildingBlock: NAHDIM_clean_sbu_0, # of connection points: 4
#     Node 2, Type 0, BuildingBlock: NAHDIM_clean_sbu_0, # of connection points: 4
#     Node 3, Type 0, BuildingBlock: NAHDIM_clean_sbu_0, # of connection points: 4
#     Node 4, Type 0, BuildingBlock: NAHDIM_clean_sbu_0, # of connection points: 4
#     Node 5, Type 0, BuildingBlock: NAHDIM_clean_sbu_0, # of connection points: 4
#     Node 6, Type 0, BuildingBlock: NAHDIM_clean_sbu_0, # of connection points: 4
#     Node 7, Type 0, BuildingBlock: NAHDIM_clean_sbu_0, # of connection points: 4
#     Node 8, Type 0, BuildingBlock: NAHDIM_clean_sbu_0, # of connection points: 4
#     Node 9, Type 0, BuildingBlock: NAHDIM_clean_sbu_0, # of connection points: 4
#     Node 10, Type 0, BuildingBlock: NAHDIM_clean_sbu_0, # of connection points: 4
#     Node 11, Type 0, BuildingBlock: NAHDIM_clean_sbu_0, # of connection points: 4
#     Node 12, Type 0, BuildingBlock: NAHDIM_clean_sbu_0, # of connection points: 4
#     Node 13, Type 0, BuildingBlock: NAHDIM_clean_sbu_0, # of connection points: 4
#     Node 14, Type 0, BuildingBlock: NAHDIM_clean_sbu_0, # of connection points: 4
#     Node 15, Type 0, BuildingBlock: NAHDIM_clean_sbu_0, # of connection points: 4
#     Edge 16, Type (0, 0), BuildingBlock: AJUNOK_clean_linker_0, # of connection points: 2
#     Edge 17, Type (0, 0), BuildingBlock: AJUNOK_clean_linker_0, # of connection points: 2
#     Edge 18, Type (0, 0), BuildingBlock: AJUNOK_clean_linker_0, # of connection points: 2
#     Edge 19, Type (0, 0), BuildingBlock: AJUNOK_clean_linker_0, # of connection points: 2
#     Edge 20, Type (0, 0), BuildingBlock: AJUNOK_clean_linker_0, # of connection points: 2
#     Edge 21, Type (0, 0), BuildingBlock: AJUNOK_clean_linker_0, # of connection points: 2
#     Edge 22, Type (0, 0), BuildingBlock: AJUNOK_clean_linker_0, # of connection points: 2
#     Edge 23, Type (0, 0), BuildingBlock: AJUNOK_clean_linker_0, # of connection points: 2
#     Edge 24, Type (0, 0), BuildingBlock: AJUNOK_clean_linker_0, # of connection points: 2
#     Edge 25, Type (0, 0), BuildingBlock: AJUNOK_clean_linker_0, # of connection points: 2
#     Edge 26, Type (0, 0), BuildingBlock: AJUNOK_clean_linker_0, # of connection points: 2
#     Edge 27, Type (0, 0), BuildingBlock: AJUNOK_clean_linker_0, # of connection points: 2
#     Edge 28, Type (0, 0), BuildingBlock: AJUNOK_clean_linker_0, # of connection points: 2
#     Edge 29, Type (0, 0), BuildingBlock: AJUNOK_clean_linker_0, # of connection points: 2
#     Edge 30, Type (0, 0), BuildingBlock: AJUNOK_clean_linker_0, # of connection points: 2
#     Edge 31, Type (0, 0), BuildingBlock: AJUNOK_clean_linker_0, # of connection points: 2
#     Edge 32, Type (0, 0), BuildingBlock: AJUNOK_clean_linker_0, # of connection points: 2
#     Edge 33, Type (0, 0), BuildingBlock: AJUNOK_clean_linker_0, # of connection points: 2
#     Edge 34, Type (0, 0), BuildingBlock: AJUNOK_clean_linker_0, # of connection points: 2
#     Edge 35, Type (0, 0), BuildingBlock: AJUNOK_clean_linker_0, # of connection points: 2
#     Edge 36, Type (0, 0), BuildingBlock: AJUNOK_clean_linker_0, # of connection points: 2
#     Edge 37, Type (0, 0), BuildingBlock: AJUNOK_clean_linker_0, # of connection points: 2
#     Edge 38, Type (0, 0), BuildingBlock: AJUNOK_clean_linker_0, # of connection points: 2
#     Edge 39, Type (0, 0), BuildingBlock: AJUNOK_clean_linker_0, # of connection points: 2
#     Edge 40, Type (0, 0), BuildingBlock: AJUNOK_clean_linker_0, # of connection points: 2
#     Edge 41, Type (0, 0), BuildingBlock: AJUNOK_clean_linker_0, # of connection points: 2
#     Edge 42, Type (0, 0), BuildingBlock: AJUNOK_clean_linker_0, # of connection points: 2
#     Edge 43, Type (0, 0), BuildingBlock: AJUNOK_clean_linker_0, # of connection points: 2
#     Edge 44, Type (0, 0), BuildingBlock: AJUNOK_clean_linker_0, # of connection points: 2
#     Edge 45, Type (0, 0), BuildingBlock: AJUNOK_clean_linker_0, # of connection points: 2
#     Edge 46, Type (0, 0), BuildingBlock: AJUNOK_clean_linker_0, # of connection points: 2
#     Edge 47, Type (0, 0), BuildingBlock: AJUNOK_clean_linker_0, # of connection points: 2
# Relax obj value: 0.124
# Max RMSD: 0.121
# Mean RMSD: 0.121
data_MOF--net-mon--node1-NAHDIM_clean_sbu_0--edge1-AJUNOK_clean_linker_0
_symmetry_space_group_name_H-M    P1
_symmetry_Int_Tables_number       1
_symmetry_cell_setting            triclinic
loop_
_symmetry_equiv_pos_as_xyz
'x, y, z'
_cell_length_a     25.822608
_cell_length_b     25.798652
_cell_length_c     59.402306
_cell_angle_alpha  90.009067
_cell_angle_beta   89.901239
_cell_angle_gamma 89.864201
loop_
_atom_site_label
_atom_site_type_symbol
_atom_site_fract_x
_atom_site_fract_y
_atom_site_fract_z
_atom_type_partial_charge
C0 C 0.00492 0.13447 0.60549 0.0
O1 O 0.96596 0.11424 0.61665 0.0
O2 O 0.95137 0.00912 0.60336 0.0
Zn3 Zn 0.01779 0.02999 0.58824 0.0
O4 O 0.01528 0.01593 0.55494 0.0
C5 C 0.06707 0.93756 0.60058 0.0
O6 O 0.02457 0.92042 0.591 0.0
O7 O 0.03235 0.10543 0.59294 0.0
C8 C 0.05782 0.01661 0.54417 0.0
O9 O 0.10059 0.02695 0.55522 0.0
C10 C 0.91308 0.98985 0.59295 0.0
O11 O 0.91535 0.98513 0.57096 0.0
O12 O 0.07431 0.98618 0.60161 0.0
C13 C 0.12329 0.71435 0.8526 0.0
O14 O 0.13816 0.6683 0.84564 0.0
O15 O 0.25789 0.67313 0.8575 0.0
Zn16 Zn 0.22787 0.73571 0.84192 0.0
O17 O 0.22397 0.72546 0.80844 0.0
C18 C 0.29229 0.8061 0.86705 0.0
O19 O 0.2778 0.77687 0.88404 0.0
O20 O 0.15636 0.75064 0.8532 0.0
C21 C 0.26551 0.72521 0.79697 0.0
O22 O 0.30993 0.7299 0.80752 0.0
C23 C 0.26639 0.62991 0.84789 0.0
O24 O 0.2533 0.62389 0.8267 0.0
O25 O 0.27457 0.7964 0.84759 0.0
C26 C 0.5273 0.85081 0.10537 0.0
O27 O 0.57312 0.8645 0.0978 0.0
O28 O 0.57377 0.98098 0.11388 0.0
Zn29 Zn 0.5102 0.95701 0.0975 0.0
O30 O 0.52092 0.95468 0.06389 0.0
C31 C 0.46258 0.0529 0.10943 0.0
O32 O 0.51092 0.06817 0.10771 0.0
O33 O 0.49248 0.8853 0.1074 0.0
C34 C 0.52867 0.99407 0.05152 0.0
O35 O 0.53074 0.04014 0.06089 0.0
C36 C 0.61785 0.989 0.10507 0.0
O37 O 0.62497 0.9789 0.08361 0.0
O38 O 0.45183 0.00576 0.1054 0.0
C39 C 0.41854 0.26854 0.34897 0.0
O40 O 0.40407 0.31543 0.34301 0.0
O41 O 0.29061 0.31728 0.36021 0.0
Zn42 Zn 0.31124 0.25254 0.34353 0.0
O43 O 0.30822 0.26173 0.3099 0.0
C44 C 0.21743 0.20671 0.35937 0.0
O45 O 0.20292 0.25554 0.35902 0.0
O46 O 0.38422 0.23375 0.35112 0.0
C47 C 0.26657 0.26169 0.29857 0.0
O48 O 0.22216 0.25709 0.30918 0.0
C49 C 0.27834 0.35994 0.35098 0.0
O50 O 0.28192 0.36438 0.329 0.0
O51 O 0.26313 0.19515 0.35312 0.0
C52 C 0.00293 0.85479 0.39087 0.0
O53 O 0.9575 0.87209 0.38434 0.0
O54 O 0.95457 0.98305 0.38746 0.0
Zn55 Zn 0.01952 0.96178 0.40361 0.0
O56 O 0.01515 0.97586 0.43689 0.0
C57 C 0.06947 0.05437 0.3924 0.0
O58 O 0.02649 0.07147 0.40171 0.0
O59 O 0.03541 0.88648 0.39907 0.0
C60 C 0.05754 0.97412 0.44771 0.0
O61 O 0.1002 0.96262 0.43669 0.0
C62 C 0.91471 0.00113 0.39726 0.0
O63 O 0.91396 0.0036 0.41935 0.0
O64 O 0.07663 0.00575 0.39105 0.0
C65 C 0.40915 0.72773 0.66001 0.0
O66 O 0.39189 0.6952 0.67525 0.0
O67 O 0.27945 0.67163 0.63732 0.0
Zn68 Zn 0.30213 0.73621 0.65342 0.0
O69 O 0.29532 0.72908 0.68714 0.0
C70 C 0.21068 0.78507 0.63732 0.0
O71 O 0.19406 0.73726 0.63958 0.0
O72 O 0.37725 0.75019 0.64698 0.0
C73 C 0.25437 0.72876 0.699 0.0
O74 O 0.2092 0.73348 0.68907 0.0
C75 C 0.26706 0.62974 0.64715 0.0
O76 O 0.27332 0.62601 0.66902 0.0
O77 O 0.25731 0.79527 0.64253 0.0
C78 C 0.54041 0.12523 0.89663 0.0
O79 O 0.58919 0.1121 0.8994 0.0
O80 O 0.58678 0.99339 0.89129 0.0
Zn81 Zn 0.52482 0.01902 0.90874 0.0
O82 O 0.53738 0.01983 0.94216 0.0
C83 C 0.45082 0.96271 0.88245 0.0
O84 O 0.4749 0.9864 0.86591 0.0
O85 O 0.50573 0.09097 0.89925 0.0
C86 C 0.53413 0.97841 0.95365 0.0
O87 O 0.52497 0.93458 0.94315 0.0
C88 C 0.62983 0.98133 0.90021 0.0
O89 O 0.63574 0.98678 0.92204 0.0
O90 O 0.46527 0.9713 0.90253 0.0
C91 C 0.11151 0.26715 0.14385 0.0
O92 O 0.12757 0.31499 0.14108 0.0
O93 O 0.23821 0.31616 0.14037 0.0
Zn94 Zn 0.21761 0.25085 0.1566 0.0
O95 O 0.2237 0.25879 0.19024 0.0
C96 C 0.31026 0.20533 0.13908 0.0
O97 O 0.32432 0.25422 0.13927 0.0
O98 O 0.14384 0.23268 0.14987 0.0
C99 C 0.2669 0.26164 0.20038 0.0
O100 O 0.30978 0.26059 0.18848 0.0
C101 C 0.24848 0.35908 0.14982 0.0
O102 O 0.2418 0.36368 0.17164 0.0
O103 O 0.26517 0.19352 0.146 0.0
C104 C 0.89185 0.22059 0.14886 0.0
O105 O 0.87716 0.17535 0.15674 0.0
O106 O 0.76209 0.17299 0.14066 0.0
Zn107 Zn 0.78441 0.24082 0.15405 0.0
O108 O 0.777 0.24023 0.18778 0.0
C109 C 0.68945 0.28876 0.14327 0.0
O110 O 0.673 0.24644 0.15329 0.0
O111 O 0.85799 0.25567 0.14597 0.0
C112 C 0.77568 0.28314 0.19826 0.0
O113 O 0.77996 0.3263 0.18668 0.0
C114 C 0.74667 0.13507 0.15252 0.0
O115 O 0.74823 0.13883 0.17456 0.0
O116 O 0.7379 0.29596 0.14145 0.0
C117 C 0.62735 0.7771 0.6592 0.0
O118 O 0.64686 0.81121 0.67322 0.0
O119 O 0.76049 0.82046 0.63591 0.0
Zn120 Zn 0.73339 0.75958 0.65321 0.0
O121 O 0.74194 0.77057 0.68674 0.0
C122 C 0.82285 0.69862 0.64711 0.0
O123 O 0.84219 0.7393 0.65739 0.0
O124 O 0.65769 0.74986 0.64719 0.0
C125 C 0.75262 0.73382 0.7002 0.0
O126 O 0.76114 0.68713 0.69219 0.0
C127 C 0.77195 0.86362 0.64487 0.0
O128 O 0.76317 0.87045 0.66645 0.0
O129 O 0.77446 0.69726 0.64332 0.0
C130 C 0.63873 0.22165 0.34812 0.0
O131 O 0.6555 0.17402 0.3452 0.0
O132 O 0.76691 0.17652 0.35526 0.0
Zn133 Zn 0.74514 0.24272 0.34015 0.0
O134 O 0.75419 0.23949 0.30653 0.0
C135 C 0.84007 0.28849 0.34997 0.0
O136 O 0.85408 0.24552 0.33974 0.0
O137 O 0.67095 0.2587 0.34707 0.0
C138 C 0.74978 0.28196 0.29586 0.0
O139 O 0.73931 0.32432 0.30729 0.0
C140 C 0.78342 0.13668 0.34492 0.0
O141 O 0.78354 0.13661 0.32281 0.0
O142 O 0.79204 0.29809 0.35215 0.0
C143 C 0.9032 0.75944 0.85708 0.0
O144 O 0.88597 0.80692 0.85991 0.0
O145 O 0.77395 0.80629 0.85744 0.0
Zn146 Zn 0.79817 0.74043 0.8424 0.0
O147 O 0.79339 0.74315 0.80851 0.0
C148 C 0.70457 0.69386 0.85687 0.0
O149 O 0.6885 0.74137 0.85303 0.0
O150 O 0.87205 0.72471 0.85034 0.0
C151 C 0.75468 0.75966 0.79741 0.0
O152 O 0.71416 0.77789 0.80822 0.0
C153 C 0.76776 0.85056 0.84847 0.0
O154 O 0.78115 0.85774 0.82737 0.0
O155 O 0.75196 0.68295 0.85345 0.0
C156 C 0.4754 0.63225 0.10763 0.0
O157 O 0.42743 0.61676 0.11049 0.0
O158 O 0.42417 0.50644 0.1076 0.0
Zn159 Zn 0.49004 0.52749 0.09198 0.0
O160 O 0.48295 0.52606 0.05823 0.0
C161 C 0.53584 0.43324 0.10811 0.0
O162 O 0.48737 0.41803 0.10727 0.0
O163 O 0.50889 0.60009 0.10045 0.0
C164 C 0.49102 0.48606 0.04625 0.0
O165 O 0.50316 0.44224 0.0562 0.0
C166 C 0.38403 0.49001 0.09759 0.0
O167 O 0.38357 0.48832 0.07549 0.0
O168 O 0.54691 0.4791 0.10197 0.0
C169 C 0.04005 0.3563 0.5986 0.0
O170 O 0.08184 0.37252 0.58811 0.0
O171 O 0.08521 0.4861 0.6073 0.0
Zn172 Zn 0.01885 0.46153 0.59326 0.0
O173 O 0.02416 0.45951 0.5595 0.0
C174 C 0.96523 0.53365 0.62142 0.0
O175 O 0.00586 0.52493 0.63415 0.0
O176 O 0.00513 0.38912 0.60353 0.0
C177 C 0.02038 0.49926 0.54702 0.0
O178 O 0.01358 0.54488 0.55643 0.0
C179 C 0.12541 0.50114 0.59688 0.0
O180 O 0.12607 0.50018 0.57477 0.0
O181 O 0.96121 0.50963 0.60282 0.0
C182 C 0.48632 0.34376 0.89396 0.0
O183 O 0.43832 0.35894 0.89728 0.0
O184 O 0.43984 0.47365 0.88741 0.0
Zn185 Zn 0.50494 0.45041 0.90332 0.0
O186 O 0.49728 0.45303 0.93711 0.0
C187 C 0.55191 0.544 0.88795 0.0
O188 O 0.50339 0.55925 0.88889 0.0
O189 O 0.52229 0.37714 0.89505 0.0
C190 C 0.49489 0.49511 0.9482 0.0
O191 O 0.49669 0.53935 0.93731 0.0
C192 C 0.39891 0.48893 0.89732 0.0
O193 O 0.39611 0.48611 0.91936 0.0
O194 O 0.56297 0.49777 0.89361 0.0
C195 C 0.04837 0.63467 0.39856 0.0
O196 O 0.09192 0.62056 0.40823 0.0
O197 O 0.10043 0.50734 0.39026 0.0
Zn198 Zn 0.03175 0.5278 0.40373 0.0
O199 O 0.03308 0.52639 0.43769 0.0
C200 C 0.99177 0.43256 0.38655 0.0
O201 O 0.04043 0.4192 0.38932 0.0
O202 O 0.01481 0.60021 0.39428 0.0
C203 C 0.02866 0.4849 0.44905 0.0
O204 O 0.02395 0.44064 0.43835 0.0
C205 C 0.13938 0.49179 0.40144 0.0
O206 O 0.13723 0.49238 0.42352 0.0
O207 O 0.97775 0.47821 0.39196 0.0
C208 C 0.05814 0.21097 0.59442 0.0
C209 C 0.01485 0.19105 0.60593 0.0
C210 C 0.06663 0.26432 0.5928 0.0
C211 C 0.03211 0.30017 0.60252 0.0
H212 H 0.08539 0.18522 0.58616 0.0
H213 H 0.09996 0.27742 0.58329 0.0
S214 S 0.91503 0.26837 0.63614 0.0
N215 N 0.93864 0.21151 0.62848 0.0
N216 N 0.9546 0.31199 0.62535 0.0
C217 C 0.98964 0.28091 0.61481 0.0
C218 C 0.98104 0.22636 0.61655 0.0
C219 C 0.97756 0.69814 0.85254 0.0
C220 C 0.95926 0.74744 0.85895 0.0
C221 C 0.0306 0.68724 0.85148 0.0
C222 C 0.06767 0.72517 0.85678 0.0
H223 H 0.95082 0.66798 0.84753 0.0
H224 H 0.04247 0.64921 0.84569 0.0
S225 S 0.0402 0.8583 0.87751 0.0
N226 N 0.98253 0.83305 0.87286 0.0
N227 N 0.08232 0.81255 0.87086 0.0
C228 C 0.04999 0.77375 0.86447 0.0
C229 C -0.00419 0.78487 0.86556 0.0
C230 C 0.53844 0.70462 0.10276 0.0
C231 C 0.48934 0.68769 0.10996 0.0
C232 C 0.55094 0.75731 0.1022 0.0
C233 C 0.51491 0.79534 0.10882 0.0
H234 H 0.5671 0.67716 0.09675 0.0
H235 H 0.58867 0.76821 0.09579 0.0
S236 S 0.38338 0.77123 0.13192 0.0
N237 N 0.40617 0.713 0.12594 0.0
N238 N 0.4297 0.81216 0.1249 0.0
C239 C 0.46665 0.7789 0.11724 0.0
C240 C 0.45387 0.72508 0.11781 0.0
C241 C 0.56446 0.28387 0.34838 0.0
C242 C 0.58264 0.23265 0.35052 0.0
C243 C 0.51143 0.29512 0.34857 0.0
C244 C 0.47432 0.25568 0.35102 0.0
H245 H 0.59128 0.31559 0.34589 0.0
H246 H 0.49957 0.33507 0.34629 0.0
S247 S 0.50175 0.11553 0.35936 0.0
N248 N 0.55938 0.14238 0.35671 0.0
N249 N 0.45967 0.1635 0.35714 0.0
C250 C 0.49197 0.20447 0.35413 0.0
C251 C 0.54609 0.19297 0.35385 0.0
C252 C 0.06142 0.78082 0.40042 0.0
C253 C 0.01497 0.79855 0.39069 0.0
C254 C 0.07233 0.72789 0.40228 0.0
C255 C 0.03729 0.6903 0.39451 0.0
H256 H 0.08931 0.80796 0.40718 0.0
H257 H 0.10813 0.71652 0.41039 0.0
S258 S 0.91224 0.71611 0.36573 0.0
N259 N 0.93512 0.77416 0.37175 0.0
N260 N 0.95564 0.67453 0.37527 0.0
C261 C 0.99153 0.70737 0.38394 0.0
C262 C 0.98039 0.76147 0.38203 0.0
C263 C 0.49194 0.74391 0.63943 0.0
C264 C 0.46423 0.74178 0.65978 0.0
C265 C 0.5451 0.7552 0.63928 0.0
C266 C 0.57143 0.76642 0.6594 0.0
H267 H 0.47272 0.73559 0.62364 0.0
H268 H 0.56561 0.75555 0.62336 0.0
S269 S 0.51543 0.76779 0.71693 0.0
N270 N 0.46648 0.75234 0.70041 0.0
N271 N 0.56576 0.7754 0.70008 0.0
C272 C 0.54372 0.76557 0.67976 0.0
C273 C 0.49018 0.75273 0.67996 0.0
C274 C 0.55113 0.27159 0.8934 0.0
C275 C 0.49919 0.28791 0.8918 0.0
C276 C 0.56416 0.21891 0.89406 0.0
C277 C 0.52584 0.18031 0.89313 0.0
H278 H 0.58205 0.29966 0.89493 0.0
H279 H 0.60458 0.20858 0.89606 0.0
S280 S 0.38458 0.20233 0.88589 0.0
N281 N 0.40956 0.26108 0.88714 0.0
N282 N 0.43401 0.16207 0.88834 0.0
C283 C 0.47396 0.196 0.89028 0.0
C284 C 0.46067 0.24974 0.88963 0.0
C285 C 0.03789 0.20667 0.15099 0.0
C286 C 0.05562 0.25451 0.14264 0.0
C287 C 0.98496 0.19554 0.15228 0.0
C288 C 0.94753 0.23174 0.14525 0.0
H289 H 0.06495 0.17798 0.15726 0.0
H290 H 0.97344 0.15872 0.15945 0.0
S291 S 0.97375 0.36031 0.11952 0.0
N292 N 0.03162 0.33668 0.1254 0.0
N293 N 0.93208 0.31577 0.12779 0.0
C294 C 0.96474 0.2788 0.13586 0.0
C295 C 0.01875 0.29017 0.13457 0.0
C296 C 0.01229 0.99046 0.4844 0.0
C297 C 0.05884 0.98498 0.47226 0.0
C298 C 0.01237 0.00051 0.50759 0.0
C299 C 0.05901 0.00586 0.51961 0.0
H300 H 0.97531 0.98674 0.47597 0.0
H301 H 0.97544 0.00429 0.51612 0.0
S302 S 0.19172 -0.00457 0.49572 0.0
N303 N 0.15303 0.98592 0.47405 0.0
N304 N 0.15318 0.00491 0.51753 0.0
C305 C 0.1059 0.00063 0.50767 0.0
C306 C 0.10582 0.99016 0.48406 0.0
C307 C 0.21597 0.72993 0.76081 0.0
C308 C 0.26346 0.72283 0.77203 0.0
C309 C 0.2133 0.73098 0.73725 0.0
C310 C 0.25797 0.72484 0.72391 0.0
H311 H 0.18055 0.73582 0.77027 0.0
H312 H 0.17592 0.7375 0.72948 0.0
S313 S 0.39134 0.70051 0.74502 0.0
N314 N 0.3558 0.70642 0.76798 0.0
N315 N 0.35093 0.70824 0.7238 0.0
C316 C 0.30555 0.71613 0.73493 0.0
C317 C 0.30825 0.71517 0.75893 0.0
C318 C 0.53779 0.03274 0.01308 0.0
C319 C 0.53335 0.98837 0.02671 0.0
C320 C 0.53936 0.02894 0.98956 0.0
C321 C 0.53649 0.9806 0.97862 0.0
H322 H 0.5392 0.071 0.02056 0.0
H323 H 0.5418 0.06447 0.97991 0.0
S324 S 0.52848 0.85203 0.00657 0.0
N325 N 0.52899 0.89407 0.02751 0.0
N326 N 0.53186 0.887 0.98335 0.0
C327 C 0.53365 0.93571 0.99205 0.0
C328 C 0.53209 0.93957 0.01604 0.0
C329 C 0.22175 0.26335 0.2377 0.0
C330 C 0.26836 0.26423 0.22536 0.0
C331 C 0.22164 0.2634 0.26128 0.0
C332 C 0.26813 0.26439 0.27359 0.0
H333 H 0.18479 0.26197 0.22913 0.0
H334 H 0.18465 0.26205 0.26988 0.0
S335 S 0.40095 0.26916 0.24945 0.0
N336 N 0.36245 0.26777 0.22732 0.0
N337 N 0.3623 0.26793 0.27159 0.0
C338 C 0.31511 0.26637 0.26149 0.0
C339 C 0.31521 0.26627 0.23743 0.0
C340 C 0.76999 0.23761 0.23543 0.0
C341 C 0.76915 0.28423 0.22311 0.0
C342 C 0.76385 0.23732 0.25888 0.0
C343 C 0.75635 0.28361 0.27102 0.0
H344 H 0.77559 0.20085 0.22694 0.0
H345 H 0.76486 0.20034 0.26751 0.0
S346 S 0.75071 0.41632 0.24679 0.0
N347 N 0.76005 0.37808 0.22488 0.0
N348 N 0.74842 0.37755 0.26885 0.0
C349 C 0.75534 0.33056 0.25892 0.0
C350 C 0.76178 0.33087 0.23502 0.0
C351 C 0.7858 0.71214 0.73847 0.0
C352 C 0.75381 0.74291 0.72477 0.0
C353 C 0.7866 0.71871 0.76188 0.0
C354 C 0.75456 0.75553 0.77254 0.0
H355 H 0.8106 0.68279 0.73105 0.0
H356 H 0.81178 0.69389 0.77172 0.0
S357 S 0.66339 0.84568 0.74419 0.0
N358 N 0.68958 0.81194 0.72346 0.0
N359 N 0.6902 0.82356 0.76752 0.0
C360 C 0.72238 0.78664 0.75902 0.0
C361 C 0.72228 0.78057 0.73512 0.0
C362 C 0.50092 0.44715 0.98471 0.0
C363 C 0.49146 0.49383 0.97313 0.0
C364 C 0.49996 0.44497 0.00827 0.0
C365 C 0.48924 0.4893 0.02129 0.0
H366 H 0.51004 0.41199 0.97554 0.0
H367 H 0.5083 0.40818 0.01628 0.0
S368 S 0.45847 0.62058 0.99917 0.0
N369 N 0.46875 0.58509 0.97647 0.0
N370 N 0.46673 0.58106 0.02071 0.0
C371 C 0.47847 0.53606 0.00992 0.0
C372 C 0.47967 0.53831 0.98589 0.0
C373 C 0.0242 0.53888 0.50857 0.0
C374 C 0.02343 0.49418 0.52214 0.0
C375 C 0.02641 0.53539 0.48505 0.0
C376 C 0.02768 0.48705 0.47404 0.0
H377 H 0.02304 0.57707 0.51614 0.0
H378 H 0.02668 0.57108 0.47545 0.0
S379 S 0.02718 0.35796 0.50176 0.0
N380 N 0.02474 0.39976 0.52276 0.0
N381 N 0.02874 0.39329 0.47861 0.0
C382 C 0.02726 0.44195 0.48738 0.0
C383 C 0.0252 0.44549 0.51138 0.0
C384 C 0.12628 0.81097 0.62031 0.0
C385 C 0.17539 0.82551 0.62832 0.0
C386 C 0.0919 0.84751 0.6114 0.0
C387 C 0.10491 0.90035 0.61019 0.0
H388 H 0.11409 0.77084 0.62076 0.0
H389 H 0.05466 0.83397 0.60548 0.0
S390 S 0.22864 0.95912 0.62905 0.0
N391 N 0.23534 0.89674 0.63457 0.0
N392 N 0.17051 0.9656 0.61786 0.0
C393 C 0.15382 0.91569 0.61823 0.0
C394 C 0.18908 0.87827 0.62726 0.0
C395 C 0.34839 0.85961 0.89224 0.0
C396 C 0.33091 0.84797 0.8704 0.0
C397 C 0.38648 0.89721 0.89592 0.0
C398 C 0.40891 0.92476 0.87793 0.0
H399 H 0.33292 0.83923 0.90669 0.0
H400 H 0.39881 0.90418 0.91308 0.0
S401 S 0.3759 0.91003 0.81741 0.0
N402 N 0.3383 0.86796 0.83045 0.0
N403 N 0.40986 0.93852 0.83738 0.0
C404 C 0.39128 0.91412 0.85599 0.0
C405 C 0.35232 0.87583 0.85223 0.0
C406 C 0.43469 0.14315 0.11843 0.0
C407 C 0.42201 0.09035 0.11649 0.0
C408 C 0.39817 0.1797 0.12559 0.0
C409 C 0.34731 0.16512 0.13125 0.0
H410 H 0.47331 0.15667 0.11442 0.0
H411 H 0.4103 0.21976 0.12683 0.0
S412 S 0.29386 0.03169 0.12888 0.0
N413 N 0.35461 0.02519 0.12062 0.0
N414 N 0.28584 0.09402 0.13418 0.0
C415 C 0.33381 0.11245 0.12928 0.0
C416 C 0.37113 0.07509 0.12186 0.0
C417 C 0.09673 0.14495 0.38381 0.0
C418 C 0.10825 0.09162 0.38364 0.0
C419 C 0.13221 0.18148 0.37584 0.0
C420 C 0.18087 0.1664 0.36736 0.0
H421 H 0.05989 0.1589 0.39015 0.0
H422 H 0.12129 0.22201 0.3765 0.0
S423 S 0.23027 0.0314 0.36307 0.0
N424 N 0.17196 0.02536 0.37418 0.0
N425 N 0.23875 0.09416 0.35916 0.0
C426 C 0.19301 0.11315 0.367 0.0
C427 C 0.15671 0.07578 0.37513 0.0
C428 C 0.84189 0.06454 0.39428 0.0
C429 C 0.87448 0.02801 0.38384 0.0
C430 C 0.81031 0.0975 0.38156 0.0
C431 C 0.80981 0.09514 0.35786 0.0
H432 H 0.84269 0.06979 0.41237 0.0
H433 H 0.78781 0.12658 0.39041 0.0
S434 S 0.88116 -0.00018 0.32259 0.0
N435 N 0.89933 0.98664 0.3486 0.0
N436 N 0.83986 0.04853 0.32465 0.0
C437 C 0.83905 0.05591 0.3473 0.0
C438 C 0.87143 0.02242 0.36029 0.0
C439 C 0.6932 0.04929 0.10638 0.0
C440 C 0.65699 0.01849 0.1179 0.0
C441 C 0.72405 0.08506 0.11791 0.0
C442 C 0.72029 0.091 0.14143 0.0
H443 H 0.69578 0.04797 0.08818 0.0
H444 H 0.74962 0.10963 0.10817 0.0
S445 S 0.63702 0.01365 0.17976 0.0
N446 N 0.62315 0.99193 0.15434 0.0
N447 N 0.68142 0.05881 0.17608 0.0
C448 C 0.68704 0.05759 0.15333 0.0
C449 C 0.65528 0.02147 0.14154 0.0
C450 C 0.73891 0.88968 0.88475 0.0
C451 C 0.73859 0.89057 0.86107 0.0
C452 C 0.70559 0.92142 0.8973 0.0
C453 C 0.66997 0.95459 0.88664 0.0
H454 H 0.76403 0.86304 0.89369 0.0
H455 H 0.70607 0.91793 0.91547 0.0
S456 S 0.65681 0.97485 0.82503 0.0
N457 N 0.7025 0.93031 0.82743 0.0
N458 N 0.63924 0.9895 0.85101 0.0
C459 C 0.671 0.95775 0.86298 0.0
C460 C 0.70553 0.92591 0.85019 0.0
C461 C 0.80695 0.89534 0.60818 0.0
C462 C 0.80142 0.90228 0.63158 0.0
C463 C 0.84085 0.92606 0.59555 0.0
C464 C 0.87092 0.9647 0.60584 0.0
H465 H 0.78638 0.86461 0.59959 0.0
H466 H 0.84534 0.91754 0.5778 0.0
S467 S 0.86539 0.00385 0.66595 0.0
N468 N 0.8247 0.95479 0.66407 0.0
N469 N 0.88866 0.01236 0.64032 0.0
C470 C 0.86324 0.97449 0.62892 0.0
C471 C 0.82839 0.94337 0.64179 0.0
C472 C 0.59869 0.31441 0.134 0.0
C473 C 0.65175 0.32665 0.13406 0.0
C474 C 0.56185 0.34897 0.12543 0.0
C475 C 0.57638 0.39745 0.11663 0.0
H476 H 0.58523 0.27766 0.14058 0.0
H477 H 0.52154 0.33748 0.12588 0.0
S478 S 0.7105 0.44851 0.11278 0.0
N479 N 0.71713 0.39084 0.12446 0.0
N480 N 0.64782 0.45592 0.10838 0.0
C481 C 0.62936 0.41031 0.11652 0.0
C482 C 0.66702 0.37492 0.12521 0.0
C483 C 0.86473 0.37387 0.36688 0.0
C484 C 0.87951 0.32445 0.35912 0.0
C485 C 0.90121 0.40851 0.37568 0.0
C486 C 0.95396 0.39505 0.3772 0.0
H487 H 0.82463 0.38614 0.36608 0.0
H488 H 0.88779 0.44611 0.38136 0.0
S489 S 0.01278 0.26976 0.35956 0.0
N490 N 0.95064 0.26353 0.35378 0.0
N491 N 0.01906 0.32837 0.3703 0.0
C492 C 0.96928 0.34559 0.36959 0.0
C493 C 0.93214 0.31041 0.36055 0.0
C494 C 0.94065 0.61097 0.6443 0.0
C495 C 0.92701 0.57382 0.62803 0.0
C496 C 0.90661 0.65092 0.65032 0.0
C497 C 0.85718 0.65504 0.64056 0.0
H498 H 0.97839 0.60989 0.65222 0.0
H499 H 0.91928 0.67877 0.66279 0.0
S500 S 0.80177 0.56664 0.59761 0.0
N501 N 0.86018 0.54307 0.60251 0.0
N502 N 0.7958 0.6179 0.61406 0.0
C503 C 0.84255 0.61764 0.62455 0.0
C504 C 0.87756 0.57717 0.6182 0.0
C505 C 0.61506 0.6681 0.86786 0.0
C506 C 0.66738 0.65426 0.86498 0.0
C507 C 0.57846 0.63218 0.87534 0.0
C508 C 0.59244 0.58071 0.88031 0.0
H509 H 0.6019 0.70713 0.86427 0.0
H510 H 0.53876 0.64515 0.87719 0.0
S511 S 0.72456 0.52438 0.87576 0.0
N512 N 0.73156 0.58528 0.86781 0.0
N513 N 0.66259 0.51759 0.88192 0.0
C514 C 0.6447 0.56617 0.87762 0.0
C515 C 0.68216 0.60293 0.86994 0.0
C516 C 0.32887 0.55565 0.89576 0.0
C517 C 0.35962 0.51868 0.88455 0.0
C518 C 0.29748 0.59027 0.88377 0.0
C519 C 0.29498 0.5888 0.86011 0.0
H520 H 0.33084 0.55966 0.91389 0.0
H521 H 0.27599 0.61928 0.89312 0.0
S522 S 0.36366 0.49552 0.8229 0.0
N523 N 0.38263 0.47994 0.84855 0.0
N524 N 0.32309 0.54458 0.826 0.0
C525 C 0.32321 0.55004 0.84876 0.0
C526 C 0.35569 0.51513 0.86098 0.0
C527 C 0.19984 0.56261 0.59863 0.0
C528 C 0.16752 0.52675 0.60955 0.0
C529 C 0.23407 0.59377 0.61086 0.0
C530 C 0.2377 0.58997 0.63446 0.0
H531 H 0.19685 0.5687 0.58063 0.0
H532 H 0.25637 0.62249 0.60176 0.0
S533 S 0.16713 0.49621 0.67062 0.0
N534 N 0.14538 0.48494 0.64498 0.0
N535 N 0.20996 0.54322 0.66797 0.0
C536 C 0.20837 0.55151 0.64539 0.0
C537 C 0.17317 0.52004 0.63293 0.0
C538 C 0.18485 0.46778 0.36577 0.0
C539 C 0.18222 0.46509 0.38942 0.0
C540 C 0.21869 0.43604 0.3535 0.0
C541 C 0.25097 0.39999 0.36438 0.0
H542 H 0.15899 0.49308 0.35651 0.0
H543 H 0.21732 0.43786 0.33529 0.0
S544 S 0.26489 0.38305 0.42615 0.0
N545 N 0.21938 0.42763 0.42339 0.0
N546 N 0.28279 0.36777 0.4003 0.0
C547 C 0.25153 0.39951 0.38808 0.0
C548 C 0.21726 0.43214 0.40061 0.0
C549 C 0.31093 0.42724 0.10036 0.0
C550 C 0.34273 0.46428 0.11077 0.0
C551 C 0.27824 0.3954 0.11307 0.0
C552 C 0.2757 0.39962 0.13669 0.0
H553 H 0.31328 0.42068 0.08237 0.0
H554 H 0.25641 0.36577 0.10435 0.0
S555 S 0.34496 0.49644 0.17168 0.0
N556 N 0.36515 0.50774 0.14577 0.0
N557 N 0.30347 0.44808 0.16969 0.0
C558 C 0.30424 0.43931 0.14713 0.0
C559 C 0.33786 0.47153 0.13417 0.0
loop_
_geom_bond_atom_site_label_1
_geom_bond_atom_site_label_2
_geom_bond_distance
_geom_bond_site_symmetry_2
_ccdc_geom_bond_type
C0 O1 1.160 1_455 S
C0 O7 1.185 . S
O1 C0 1.160 1_655 S
O2 Zn3 1.899 1_655 S
O2 C10 1.284 1_545 S
Zn3 O2 1.899 1_455 S
Zn3 O4 2.032 . S
Zn3 O7 2.086 . S
Zn3 O12 1.977 . S
O4 Zn3 2.032 . S
O4 C8 1.278 . S
C5 O6 1.203 . S
C5 O12 1.267 1_565 S
O6 C5 1.203 . S
O7 C0 1.185 . S
O7 Zn3 2.086 . S
C8 O4 1.278 . S
C8 O9 1.211 1_545 S
O9 C8 1.211 1_565 S
C10 O2 1.284 1_565 S
C10 O11 1.273 . S
O11 C10 1.273 . S
O12 Zn3 1.977 . S
O12 C5 1.267 1_545 S
C13 O14 1.160 . S
C13 O20 1.185 . S
O14 C13 1.160 . S
O15 Zn16 1.899 . S
O15 C23 1.284 . S
Zn16 O15 1.899 . S
Zn16 O17 2.032 . S
Zn16 O20 2.086 . S
Zn16 O25 1.977 . S
O17 Zn16 2.032 . S
O17 C21 1.278 . S
C18 O19 1.203 . S
C18 O25 1.267 . S
O19 C18 1.203 . S
O20 C13 1.185 . S
O20 Zn16 2.086 . S
C21 O17 1.278 . S
C21 O22 1.211 . S
O22 C21 1.211 . S
C23 O15 1.284 . S
C23 O24 1.273 . S
O24 C23 1.273 . S
O25 Zn16 1.977 . S
O25 C18 1.267 . S
C26 O27 1.160 . S
C26 O33 1.185 . S
O27 C26 1.160 . S
O28 Zn29 1.899 . S
O28 C36 1.284 1_565 S
Zn29 O28 1.899 . S
Zn29 O30 2.032 . S
Zn29 O33 2.086 . S
Zn29 O38 1.977 . S
O30 Zn29 2.032 . S
O30 C34 1.278 . S
C31 O32 1.203 . S
C31 O38 1.267 1_545 S
O32 C31 1.203 . S
O33 C26 1.185 . S
O33 Zn29 2.086 . S
C34 O30 1.278 . S
C34 O35 1.211 1_565 S
O35 C34 1.211 1_545 S
C36 O28 1.284 1_545 S
C36 O37 1.273 . S
O37 C36 1.273 . S
O38 Zn29 1.977 . S
O38 C31 1.267 1_565 S
C39 O40 1.160 . S
C39 O46 1.185 . S
O40 C39 1.160 . S
O41 Zn42 1.899 . S
O41 C49 1.284 . S
Zn42 O41 1.899 . S
Zn42 O43 2.032 . S
Zn42 O46 2.086 . S
Zn42 O51 1.977 . S
O43 Zn42 2.032 . S
O43 C47 1.278 . S
C44 O45 1.203 . S
C44 O51 1.267 . S
O45 C44 1.203 . S
O46 C39 1.185 . S
O46 Zn42 2.086 . S
C47 O43 1.278 . S
C47 O48 1.211 . S
O48 C47 1.211 . S
C49 O41 1.284 . S
C49 O50 1.273 . S
O50 C49 1.273 . S
O51 Zn42 1.977 . S
O51 C44 1.267 . S
C52 O53 1.160 1_455 S
C52 O59 1.185 . S
O53 C52 1.160 1_655 S
O54 Zn55 1.899 1_655 S
O54 C62 1.284 1_565 S
Zn55 O54 1.899 1_455 S
Zn55 O56 2.032 . S
Zn55 O59 2.086 . S
Zn55 O64 1.977 . S
O56 Zn55 2.032 . S
O56 C60 1.278 . S
C57 O58 1.203 . S
C57 O64 1.267 1_545 S
O58 C57 1.203 . S
O59 C52 1.185 . S
O59 Zn55 2.086 . S
C60 O56 1.278 . S
C60 O61 1.211 1_565 S
O61 C60 1.211 1_545 S
C62 O54 1.284 1_545 S
C62 O63 1.273 . S
O63 C62 1.273 . S
O64 Zn55 1.977 . S
O64 C57 1.267 1_565 S
C65 O66 1.160 . S
C65 O72 1.185 . S
O66 C65 1.160 . S
O67 Zn68 1.899 . S
O67 C75 1.284 . S
Zn68 O67 1.899 . S
Zn68 O69 2.032 . S
Zn68 O72 2.086 . S
Zn68 O77 1.977 . S
O69 Zn68 2.032 . S
O69 C73 1.278 . S
C70 O71 1.203 . S
C70 O77 1.267 . S
O71 C70 1.203 . S
O72 C65 1.185 . S
O72 Zn68 2.086 . S
C73 O69 1.278 . S
C73 O74 1.211 . S
O74 C73 1.211 . S
C75 O67 1.284 . S
C75 O76 1.273 . S
O76 C75 1.273 . S
O77 Zn68 1.977 . S
O77 C70 1.267 . S
C78 O79 1.160 . S
C78 O85 1.185 . S
O79 C78 1.160 . S
O80 Zn81 1.899 . S
O80 C88 1.284 1_545 S
Zn81 O80 1.899 . S
Zn81 O82 2.032 . S
Zn81 O85 2.086 . S
Zn81 O90 1.977 . S
O82 Zn81 2.032 . S
O82 C86 1.278 . S
C83 O84 1.203 . S
C83 O90 1.267 1_565 S
O84 C83 1.203 . S
O85 C78 1.185 . S
O85 Zn81 2.086 . S
C86 O82 1.278 . S
C86 O87 1.211 1_545 S
O87 C86 1.211 1_565 S
C88 O80 1.284 1_565 S
C88 O89 1.273 . S
O89 C88 1.273 . S
O90 Zn81 1.977 . S
O90 C83 1.267 1_545 S
C91 O92 1.160 . S
C91 O98 1.185 . S
O92 C91 1.160 . S
O93 Zn94 1.899 . S
O93 C101 1.284 . S
Zn94 O93 1.899 . S
Zn94 O95 2.032 . S
Zn94 O98 2.086 . S
Zn94 O103 1.977 . S
O95 Zn94 2.032 . S
O95 C99 1.278 . S
C96 O97 1.203 . S
C96 O103 1.267 . S
O97 C96 1.203 . S
O98 C91 1.185 . S
O98 Zn94 2.086 . S
C99 O95 1.278 . S
C99 O100 1.211 . S
O100 C99 1.211 . S
C101 O93 1.284 . S
C101 O102 1.273 . S
O102 C101 1.273 . S
O103 Zn94 1.977 . S
O103 C96 1.267 . S
C104 O105 1.160 . S
C104 O111 1.185 . S
O105 C104 1.160 . S
O106 Zn107 1.899 . S
O106 C114 1.284 . S
Zn107 O106 1.899 . S
Zn107 O108 2.032 . S
Zn107 O111 2.086 . S
Zn107 O116 1.977 . S
O108 Zn107 2.032 . S
O108 C112 1.278 . S
C109 O110 1.203 . S
C109 O116 1.267 . S
O110 C109 1.203 . S
O111 C104 1.185 . S
O111 Zn107 2.086 . S
C112 O108 1.278 . S
C112 O113 1.211 . S
O113 C112 1.211 . S
C114 O106 1.284 . S
C114 O115 1.273 . S
O115 C114 1.273 . S
O116 Zn107 1.977 . S
O116 C109 1.267 . S
C117 O118 1.160 . S
C117 O124 1.185 . S
O118 C117 1.160 . S
O119 Zn120 1.899 . S
O119 C127 1.284 . S
Zn120 O119 1.899 . S
Zn120 O121 2.032 . S
Zn120 O124 2.086 . S
Zn120 O129 1.977 . S
O121 Zn120 2.032 . S
O121 C125 1.278 . S
C122 O123 1.203 . S
C122 O129 1.267 . S
O123 C122 1.203 . S
O124 C117 1.185 . S
O124 Zn120 2.086 . S
C125 O121 1.278 . S
C125 O126 1.211 . S
O126 C125 1.211 . S
C127 O119 1.284 . S
C127 O128 1.273 . S
O128 C127 1.273 . S
O129 Zn120 1.977 . S
O129 C122 1.267 . S
C130 O131 1.160 . S
C130 O137 1.185 . S
O131 C130 1.160 . S
O132 Zn133 1.899 . S
O132 C140 1.284 . S
Zn133 O132 1.899 . S
Zn133 O134 2.032 . S
Zn133 O137 2.086 . S
Zn133 O142 1.977 . S
O134 Zn133 2.032 . S
O134 C138 1.278 . S
C135 O136 1.203 . S
C135 O142 1.267 . S
O136 C135 1.203 . S
O137 C130 1.185 . S
O137 Zn133 2.086 . S
C138 O134 1.278 . S
C138 O139 1.211 . S
O139 C138 1.211 . S
C140 O132 1.284 . S
C140 O141 1.273 . S
O141 C140 1.273 . S
O142 Zn133 1.977 . S
O142 C135 1.267 . S
C143 O144 1.160 . S
C143 O150 1.185 . S
O144 C143 1.160 . S
O145 Zn146 1.899 . S
O145 C153 1.284 . S
Zn146 O145 1.899 . S
Zn146 O147 2.032 . S
Zn146 O150 2.086 . S
Zn146 O155 1.977 . S
O147 Zn146 2.032 . S
O147 C151 1.278 . S
C148 O149 1.203 . S
C148 O155 1.267 . S
O149 C148 1.203 . S
O150 C143 1.185 . S
O150 Zn146 2.086 . S
C151 O147 1.278 . S
C151 O152 1.211 . S
O152 C151 1.211 . S
C153 O145 1.284 . S
C153 O154 1.273 . S
O154 C153 1.273 . S
O155 Zn146 1.977 . S
O155 C148 1.267 . S
C156 O157 1.160 . S
C156 O163 1.185 . S
O157 C156 1.160 . S
O158 Zn159 1.899 . S
O158 C166 1.284 . S
Zn159 O158 1.899 . S
Zn159 O160 2.032 . S
Zn159 O163 2.086 . S
Zn159 O168 1.977 . S
O160 Zn159 2.032 . S
O160 C164 1.278 . S
C161 O162 1.203 . S
C161 O168 1.267 . S
O162 C161 1.203 . S
O163 C156 1.185 . S
O163 Zn159 2.086 . S
C164 O160 1.278 . S
C164 O165 1.211 . S
O165 C164 1.211 . S
C166 O158 1.284 . S
C166 O167 1.273 . S
O167 C166 1.273 . S
O168 Zn159 1.977 . S
O168 C161 1.267 . S
C169 O170 1.160 . S
C169 O176 1.185 . S
O170 C169 1.160 . S
O171 Zn172 1.899 . S
O171 C179 1.284 . S
Zn172 O171 1.899 . S
Zn172 O173 2.032 . S
Zn172 O176 2.086 . S
Zn172 O181 1.977 1_455 S
O173 Zn172 2.032 . S
O173 C177 1.278 . S
C174 O175 1.203 . S
C174 O181 1.267 . S
O175 C174 1.203 . S
O176 C169 1.185 . S
O176 Zn172 2.086 . S
C177 O173 1.278 . S
C177 O178 1.211 . S
O178 C177 1.211 . S
C179 O171 1.284 . S
C179 O180 1.273 . S
O180 C179 1.273 . S
O181 Zn172 1.977 1_655 S
O181 C174 1.267 . S
C182 O183 1.160 . S
C182 O189 1.185 . S
O183 C182 1.160 . S
O184 Zn185 1.899 . S
O184 C192 1.284 . S
Zn185 O184 1.899 . S
Zn185 O186 2.032 . S
Zn185 O189 2.086 . S
Zn185 O194 1.977 . S
O186 Zn185 2.032 . S
O186 C190 1.278 . S
C187 O188 1.203 . S
C187 O194 1.267 . S
O188 C187 1.203 . S
O189 C182 1.185 . S
O189 Zn185 2.086 . S
C190 O186 1.278 . S
C190 O191 1.211 . S
O191 C190 1.211 . S
C192 O184 1.284 . S
C192 O193 1.273 . S
O193 C192 1.273 . S
O194 Zn185 1.977 . S
O194 C187 1.267 . S
C195 O196 1.160 . S
C195 O202 1.185 . S
O196 C195 1.160 . S
O197 Zn198 1.899 . S
O197 C205 1.284 . S
Zn198 O197 1.899 . S
Zn198 O199 2.032 . S
Zn198 O202 2.086 . S
Zn198 O207 1.977 1_455 S
O199 Zn198 2.032 . S
O199 C203 1.278 . S
C200 O201 1.203 . S
C200 O207 1.267 . S
O201 C200 1.203 . S
O202 C195 1.185 . S
O202 Zn198 2.086 . S
C203 O199 1.278 . S
C203 O204 1.211 . S
O204 C203 1.211 . S
C205 O197 1.284 . S
C205 O206 1.273 . S
O206 C205 1.273 . S
O207 Zn198 1.977 1_655 S
O207 C200 1.267 . S
C208 C209 1.369 . S
C208 C210 1.419 . S
C208 H212 0.930 . S
C209 C208 1.369 . S
C209 C218 1.429 . S
C210 C208 1.419 . S
C210 C211 1.363 . S
C210 H213 0.929 . S
C211 C210 1.363 . S
C211 C217 1.428 . S
H212 C208 0.930 . S
H213 C210 0.929 . S
S214 N215 1.613 . S
S214 N216 1.610 1_655 S
N215 S214 1.613 . S
N215 C218 1.350 1_655 S
N216 S214 1.610 1_455 S
N216 C217 1.351 . S
C217 C211 1.428 . S
C217 N216 1.351 . S
C217 C218 1.434 . S
C218 C209 1.429 . S
C218 N215 1.350 1_455 S
C218 C217 1.434 . S
C219 C220 1.369 . S
C219 C221 1.419 1_655 S
C219 H223 0.930 . S
C220 C219 1.369 . S
C220 C229 1.429 . S
C221 C219 1.419 1_455 S
C221 C222 1.363 . S
C221 H224 0.929 . S
C222 C221 1.363 . S
C222 C228 1.428 . S
H223 C219 0.930 . S
H224 C221 0.929 . S
S225 N226 1.613 1_455 S
S225 N227 1.610 . S
N226 S225 1.613 1_655 S
N226 C229 1.350 . S
N227 S225 1.610 . S
N227 C228 1.351 . S
C228 C222 1.428 . S
C228 N227 1.351 . S
C228 C229 1.434 1_455 S
C229 C220 1.429 . S
C229 N226 1.350 . S
C229 C228 1.434 1_655 S
C230 C231 1.369 . S
C230 C232 1.419 . S
C230 H234 0.930 . S
C231 C230 1.369 . S
C231 C240 1.429 . S
C232 C230 1.419 . S
C232 C233 1.363 . S
C232 H235 0.929 . S
C233 C232 1.363 . S
C233 C239 1.428 . S
H234 C230 0.930 . S
H235 C232 0.929 . S
S236 N237 1.613 . S
S236 N238 1.610 . S
N237 S236 1.613 . S
N237 C240 1.350 . S
N238 S236 1.610 . S
N238 C239 1.351 . S
C239 C233 1.428 . S
C239 N238 1.351 . S
C239 C240 1.434 . S
C240 C231 1.429 . S
C240 N237 1.350 . S
C240 C239 1.434 . S
C241 C242 1.369 . S
C241 C243 1.419 . S
C241 H245 0.930 . S
C242 C241 1.369 . S
C242 C251 1.429 . S
C243 C241 1.419 . S
C243 C244 1.363 . S
C243 H246 0.929 . S
C244 C243 1.363 . S
C244 C250 1.428 . S
H245 C241 0.930 . S
H246 C243 0.929 . S
S247 N248 1.613 . S
S247 N249 1.610 . S
N248 S247 1.613 . S
N248 C251 1.350 . S
N249 S247 1.610 . S
N249 C250 1.351 . S
C250 C244 1.428 . S
C250 N249 1.351 . S
C250 C251 1.434 . S
C251 C242 1.429 . S
C251 N248 1.350 . S
C251 C250 1.434 . S
C252 C253 1.369 . S
C252 C254 1.419 . S
C252 H256 0.930 . S
C253 C252 1.369 . S
C253 C262 1.429 1_455 S
C254 C252 1.419 . S
C254 C255 1.363 . S
C254 H257 0.929 . S
C255 C254 1.363 . S
C255 C261 1.428 1_455 S
H256 C252 0.930 . S
H257 C254 0.929 . S
S258 N259 1.613 . S
S258 N260 1.610 . S
N259 S258 1.613 . S
N259 C262 1.350 . S
N260 S258 1.610 . S
N260 C261 1.351 . S
C261 C255 1.428 1_655 S
C261 N260 1.351 . S
C261 C262 1.434 . S
C262 C253 1.429 1_655 S
C262 N259 1.350 . S
C262 C261 1.434 . S
C263 C264 1.369 . S
C263 C265 1.419 . S
C263 H267 0.930 . S
C264 C263 1.369 . S
C264 C273 1.429 . S
C265 C263 1.419 . S
C265 C266 1.363 . S
C265 H268 0.929 . S
C266 C265 1.363 . S
C266 C272 1.428 . S
H267 C263 0.930 . S
H268 C265 0.929 . S
S269 N270 1.613 . S
S269 N271 1.610 . S
N270 S269 1.613 . S
N270 C273 1.350 . S
N271 S269 1.610 . S
N271 C272 1.351 . S
C272 C266 1.428 . S
C272 N271 1.351 . S
C272 C273 1.434 . S
C273 C264 1.429 . S
C273 N270 1.350 . S
C273 C272 1.434 . S
C274 C275 1.369 . S
C274 C276 1.419 . S
C274 H278 0.930 . S
C275 C274 1.369 . S
C275 C284 1.429 . S
C276 C274 1.419 . S
C276 C277 1.363 . S
C276 H279 0.929 . S
C277 C276 1.363 . S
C277 C283 1.428 . S
H278 C274 0.930 . S
H279 C276 0.929 . S
S280 N281 1.613 . S
S280 N282 1.610 . S
N281 S280 1.613 . S
N281 C284 1.350 . S
N282 S280 1.610 . S
N282 C283 1.351 . S
C283 C277 1.428 . S
C283 N282 1.351 . S
C283 C284 1.434 . S
C284 C275 1.429 . S
C284 N281 1.350 . S
C284 C283 1.434 . S
C285 C286 1.369 . S
C285 C287 1.419 1_455 S
C285 H289 0.930 . S
C286 C285 1.369 . S
C286 C295 1.429 . S
C287 C285 1.419 1_655 S
C287 C288 1.363 . S
C287 H290 0.929 . S
C288 C287 1.363 . S
C288 C294 1.428 . S
H289 C285 0.930 . S
H290 C287 0.929 . S
S291 N292 1.613 . S
S291 N293 1.610 1_455 S
N292 S291 1.613 . S
N292 C295 1.350 . S
N293 S291 1.610 1_655 S
N293 C294 1.351 . S
C294 C288 1.428 . S
C294 N293 1.351 . S
C294 C295 1.434 1_655 S
C295 C286 1.429 . S
C295 N292 1.350 . S
C295 C294 1.434 1_455 S
C296 C297 1.369 1_655 S
C296 C298 1.416 1_565 S
C296 H300 0.930 . S
C297 C296 1.369 1_455 S
C297 C306 1.429 . S
C298 C296 1.416 1_545 S
C298 C299 1.366 1_655 S
C298 H301 0.929 . S
C299 C298 1.366 1_455 S
C299 C305 1.428 . S
H300 C296 0.930 . S
H301 C298 0.929 . S
S302 N303 1.613 1_545 S
S302 N304 1.610 . S
N303 S302 1.613 1_565 S
N303 C306 1.350 . S
N304 S302 1.610 . S
N304 C305 1.351 . S
C305 C299 1.428 . S
C305 N304 1.351 . S
C305 C306 1.434 1_545 S
C306 C297 1.429 . S
C306 N303 1.350 . S
C306 C305 1.434 1_565 S
C307 C308 1.369 . S
C307 C309 1.419 . S
C307 H311 0.930 . S
C308 C307 1.369 . S
C308 C317 1.429 . S
C309 C307 1.419 . S
C309 C310 1.363 . S
C309 H312 0.929 . S
C310 C309 1.363 . S
C310 C316 1.428 . S
H311 C307 0.930 . S
H312 C309 0.929 . S
S313 N314 1.613 . S
S313 N315 1.610 . S
N314 S313 1.613 . S
N314 C317 1.350 . S
N315 S313 1.610 . S
N315 C316 1.351 . S
C316 C310 1.428 . S
C316 N315 1.351 . S
C316 C317 1.434 . S
C317 C308 1.429 . S
C317 N314 1.350 . S
C317 C316 1.434 . S
C318 C319 1.369 1_545 S
C318 C320 1.419 1_554 S
C318 H322 0.930 . S
C319 C318 1.369 1_565 S
C319 C328 1.429 . S
C320 C318 1.419 1_556 S
C320 C321 1.363 . S
C320 H323 0.929 . S
C321 C320 1.363 . S
C321 C327 1.428 1_545 S
H322 C318 0.930 . S
H323 C320 0.929 . S
S324 N325 1.613 1_556 S
S324 N326 1.610 . S
N325 S324 1.613 1_554 S
N325 C328 1.350 . S
N326 S324 1.610 . S
N326 C327 1.351 . S
C327 C321 1.428 1_565 S
C327 N326 1.351 . S
C327 C328 1.434 1_556 S
C328 C319 1.429 . S
C328 N325 1.350 . S
C328 C327 1.434 1_554 S
C329 C330 1.369 . S
C329 C331 1.419 . S
C329 H333 0.930 . S
C330 C329 1.369 . S
C330 C339 1.429 . S
C331 C329 1.419 . S
C331 C332 1.363 . S
C331 H334 0.929 . S
C332 C331 1.363 . S
C332 C338 1.428 . S
H333 C329 0.930 . S
H334 C331 0.929 . S
S335 N336 1.613 . S
S335 N337 1.610 . S
N336 S335 1.613 . S
N336 C339 1.350 . S
N337 S335 1.610 . S
N337 C338 1.351 . S
C338 C332 1.428 . S
C338 N337 1.351 . S
C338 C339 1.434 . S
C339 C330 1.429 . S
C339 N336 1.350 . S
C339 C338 1.434 . S
C340 C341 1.369 . S
C340 C342 1.419 . S
C340 H344 0.930 . S
C341 C340 1.369 . S
C341 C350 1.429 . S
C342 C340 1.419 . S
C342 C343 1.363 . S
C342 H345 0.929 . S
C343 C342 1.363 . S
C343 C349 1.428 . S
H344 C340 0.930 . S
H345 C342 0.929 . S
S346 N347 1.613 . S
S346 N348 1.610 . S
N347 S346 1.613 . S
N347 C350 1.350 . S
N348 S346 1.610 . S
N348 C349 1.351 . S
C349 C343 1.428 . S
C349 N348 1.351 . S
C349 C350 1.434 . S
C350 C341 1.429 . S
C350 N347 1.350 . S
C350 C349 1.434 . S
C351 C352 1.369 . S
C351 C353 1.419 . S
C351 H355 0.930 . S
C352 C351 1.369 . S
C352 C361 1.429 . S
C353 C351 1.419 . S
C353 C354 1.363 . S
C353 H356 0.929 . S
C354 C353 1.363 . S
C354 C360 1.428 . S
H355 C351 0.930 . S
H356 C353 0.929 . S
S357 N358 1.613 . S
S357 N359 1.610 . S
N358 S357 1.613 . S
N358 C361 1.350 . S
N359 S357 1.610 . S
N359 C360 1.351 . S
C360 C354 1.428 . S
C360 N359 1.351 . S
C360 C361 1.434 . S
C361 C352 1.429 . S
C361 N358 1.350 . S
C361 C360 1.434 . S
C362 C363 1.369 . S
C362 C364 1.419 1_556 S
C362 H366 0.930 . S
C363 C362 1.369 . S
C363 C372 1.429 . S
C364 C362 1.419 1_554 S
C364 C365 1.363 . S
C364 H367 0.929 . S
C365 C364 1.363 . S
C365 C371 1.428 . S
H366 C362 0.930 . S
H367 C364 0.929 . S
S368 N369 1.613 . S
S368 N370 1.610 1_556 S
N369 S368 1.613 . S
N369 C372 1.350 . S
N370 S368 1.610 1_554 S
N370 C371 1.351 . S
C371 C365 1.428 . S
C371 N370 1.351 . S
C371 C372 1.434 1_554 S
C372 C363 1.429 . S
C372 N369 1.350 . S
C372 C371 1.434 1_556 S
C373 C374 1.369 . S
C373 C375 1.419 . S
C373 H377 0.930 . S
C374 C373 1.369 . S
C374 C383 1.429 1_455 S
C375 C373 1.419 . S
C375 C376 1.363 . S
C375 H378 0.929 . S
C376 C375 1.363 . S
C376 C382 1.428 1_455 S
H377 C373 0.930 . S
H378 C375 0.929 . S
S379 N380 1.613 . S
S379 N381 1.610 . S
N380 S379 1.613 . S
N380 C383 1.350 . S
N381 S379 1.610 . S
N381 C382 1.351 . S
C382 C376 1.428 1_655 S
C382 N381 1.351 . S
C382 C383 1.434 . S
C383 C374 1.429 1_655 S
C383 N380 1.350 . S
C383 C382 1.434 . S
C384 C385 1.369 . S
C384 C386 1.419 . S
C384 H388 0.930 . S
C385 C384 1.369 . S
C385 C394 1.429 . S
C386 C384 1.419 . S
C386 C387 1.363 . S
C386 H389 0.929 . S
C387 C386 1.363 . S
C387 C393 1.428 . S
H388 C384 0.930 . S
H389 C386 0.929 . S
S390 N391 1.613 . S
S390 N392 1.610 1_565 S
N391 S390 1.613 . S
N391 C394 1.350 . S
N392 S390 1.610 1_545 S
N392 C393 1.351 1_545 S
C393 C387 1.428 . S
C393 N392 1.351 1_565 S
C393 C394 1.434 . S
C394 C385 1.429 . S
C394 N391 1.350 . S
C394 C393 1.434 . S
C395 C396 1.369 . S
C395 C397 1.419 . S
C395 H399 0.930 . S
C396 C395 1.369 . S
C396 C405 1.429 . S
C397 C395 1.419 . S
C397 C398 1.363 . S
C397 H400 0.929 . S
C398 C397 1.363 . S
C398 C404 1.428 . S
H399 C395 0.930 . S
H400 C397 0.929 . S
S401 N402 1.613 . S
S401 N403 1.610 . S
N402 S401 1.613 . S
N402 C405 1.350 . S
N403 S401 1.610 . S
N403 C404 1.351 . S
C404 C398 1.428 . S
C404 N403 1.351 . S
C404 C405 1.434 . S
C405 C396 1.429 . S
C405 N402 1.350 . S
C405 C404 1.434 . S
C406 C407 1.369 . S
C406 C408 1.419 . S
C406 H410 0.930 . S
C407 C406 1.369 . S
C407 C416 1.429 . S
C408 C406 1.419 . S
C408 C409 1.363 . S
C408 H411 0.929 . S
C409 C408 1.363 . S
C409 C415 1.428 . S
H410 C406 0.930 . S
H411 C408 0.929 . S
S412 N413 1.612 1_545 S
S412 N414 1.610 . S
N413 S412 1.612 1_565 S
N413 C416 1.342 1_565 S
N414 S412 1.610 . S
N414 C415 1.351 . S
C415 C409 1.428 . S
C415 N414 1.351 . S
C415 C416 1.434 . S
C416 C407 1.429 . S
C416 N413 1.342 1_545 S
C416 C415 1.434 . S
C417 C418 1.369 . S
C417 C419 1.419 . S
C417 H421 0.930 . S
C418 C417 1.369 . S
C418 C427 1.429 . S
C419 C417 1.419 . S
C419 C420 1.363 . S
C419 H422 0.929 . S
C420 C419 1.363 . S
C420 C426 1.428 . S
H421 C417 0.930 . S
H422 C419 0.929 . S
S423 N424 1.613 . S
S423 N425 1.610 . S
N424 S423 1.613 . S
N424 C427 1.350 . S
N425 S423 1.610 . S
N425 C426 1.351 . S
C426 C420 1.428 . S
C426 N425 1.351 . S
C426 C427 1.434 . S
C427 C418 1.429 . S
C427 N424 1.350 . S
C427 C426 1.434 . S
C428 C429 1.369 . S
C428 C430 1.419 . S
C428 H432 0.930 . S
C429 C428 1.369 . S
C429 C438 1.429 . S
C430 C428 1.419 . S
C430 C431 1.363 . S
C430 H433 0.929 . S
C431 C430 1.363 . S
C431 C437 1.428 . S
H432 C428 0.930 . S
H433 C430 0.929 . S
S434 N435 1.613 . S
S434 N436 1.610 . S
N435 S434 1.613 . S
N435 C438 1.350 . S
N436 S434 1.610 . S
N436 C437 1.351 . S
C437 C431 1.428 . S
C437 N436 1.351 . S
C437 C438 1.434 . S
C438 C429 1.429 . S
C438 N435 1.350 . S
C438 C437 1.434 . S
C439 C440 1.369 . S
C439 C441 1.419 . S
C439 H443 0.930 . S
C440 C439 1.369 . S
C440 C449 1.429 . S
C441 C439 1.419 . S
C441 C442 1.363 . S
C441 H444 0.929 . S
C442 C441 1.363 . S
C442 C448 1.428 . S
H443 C439 0.930 . S
H444 C441 0.929 . S
S445 N446 1.613 . S
S445 N447 1.610 . S
N446 S445 1.613 . S
N446 C449 1.350 . S
N447 S445 1.610 . S
N447 C448 1.351 . S
C448 C442 1.428 . S
C448 N447 1.351 . S
C448 C449 1.434 . S
C449 C440 1.429 . S
C449 N446 1.350 . S
C449 C448 1.434 . S
C450 C451 1.369 . S
C450 C452 1.419 . S
C450 H454 0.930 . S
C451 C450 1.369 . S
C451 C460 1.429 . S
C452 C450 1.419 . S
C452 C453 1.363 . S
C452 H455 0.929 . S
C453 C452 1.363 . S
C453 C459 1.428 . S
H454 C450 0.930 . S
H455 C452 0.929 . S
S456 N457 1.613 . S
S456 N458 1.610 . S
N457 S456 1.613 . S
N457 C460 1.350 . S
N458 S456 1.610 . S
N458 C459 1.351 . S
C459 C453 1.428 . S
C459 N458 1.351 . S
C459 C460 1.434 . S
C460 C451 1.429 . S
C460 N457 1.350 . S
C460 C459 1.434 . S
C461 C462 1.369 . S
C461 C463 1.419 . S
C461 H465 0.930 . S
C462 C461 1.369 . S
C462 C471 1.429 . S
C463 C461 1.419 . S
C463 C464 1.363 . S
C463 H466 0.929 . S
C464 C463 1.363 . S
C464 C470 1.428 . S
H465 C461 0.930 . S
H466 C463 0.929 . S
S467 N468 1.613 . S
S467 N469 1.610 . S
N468 S467 1.613 . S
N468 C471 1.350 . S
N469 S467 1.610 . S
N469 C470 1.351 . S
C470 C464 1.428 . S
C470 N469 1.351 . S
C470 C471 1.434 . S
C471 C462 1.429 . S
C471 N468 1.350 . S
C471 C470 1.434 . S
C472 C473 1.369 . S
C472 C474 1.419 . S
C472 H476 0.930 . S
C473 C472 1.369 . S
C473 C482 1.429 . S
C474 C472 1.419 . S
C474 C475 1.363 . S
C474 H477 0.929 . S
C475 C474 1.363 . S
C475 C481 1.428 . S
H476 C472 0.930 . S
H477 C474 0.929 . S
S478 N479 1.613 . S
S478 N480 1.610 . S
N479 S478 1.613 . S
N479 C482 1.350 . S
N480 S478 1.610 . S
N480 C481 1.351 . S
C481 C475 1.428 . S
C481 N480 1.351 . S
C481 C482 1.434 . S
C482 C473 1.429 . S
C482 N479 1.350 . S
C482 C481 1.434 . S
C483 C484 1.369 . S
C483 C485 1.419 . S
C483 H487 0.930 . S
C484 C483 1.369 . S
C484 C493 1.429 . S
C485 C483 1.419 . S
C485 C486 1.363 . S
C485 H488 0.929 . S
C486 C485 1.363 . S
C486 C492 1.428 . S
H487 C483 0.930 . S
H488 C485 0.929 . S
S489 N490 1.613 . S
S489 N491 1.610 . S
N490 S489 1.613 . S
N490 C493 1.350 . S
N491 S489 1.610 . S
N491 C492 1.351 . S
C492 C486 1.428 . S
C492 N491 1.351 . S
C492 C493 1.434 . S
C493 C484 1.429 . S
C493 N490 1.350 . S
C493 C492 1.434 . S
C494 C495 1.369 . S
C494 C496 1.419 . S
C494 H498 0.930 . S
C495 C494 1.369 . S
C495 C504 1.429 . S
C496 C494 1.419 . S
C496 C497 1.363 . S
C496 H499 0.929 . S
C497 C496 1.363 . S
C497 C503 1.428 . S
H498 C494 0.930 . S
H499 C496 0.929 . S
S500 N501 1.613 . S
S500 N502 1.610 . S
N501 S500 1.613 . S
N501 C504 1.350 . S
N502 S500 1.610 . S
N502 C503 1.351 . S
C503 C497 1.428 . S
C503 N502 1.351 . S
C503 C504 1.434 . S
C504 C495 1.429 . S
C504 N501 1.350 . S
C504 C503 1.434 . S
C505 C506 1.369 . S
C505 C507 1.419 . S
C505 H509 0.930 . S
C506 C505 1.369 . S
C506 C515 1.429 . S
C507 C505 1.419 . S
C507 C508 1.363 . S
C507 H510 0.929 . S
C508 C507 1.363 . S
C508 C514 1.428 . S
H509 C505 0.930 . S
H510 C507 0.929 . S
S511 N512 1.613 . S
S511 N513 1.610 . S
N512 S511 1.613 . S
N512 C515 1.350 . S
N513 S511 1.610 . S
N513 C514 1.351 . S
C514 C508 1.428 . S
C514 N513 1.351 . S
C514 C515 1.434 . S
C515 C506 1.429 . S
C515 N512 1.350 . S
C515 C514 1.434 . S
C516 C517 1.369 . S
C516 C518 1.419 . S
C516 H520 0.930 . S
C517 C516 1.369 . S
C517 C526 1.429 . S
C518 C516 1.419 . S
C518 C519 1.363 . S
C518 H521 0.929 . S
C519 C518 1.363 . S
C519 C525 1.428 . S
H520 C516 0.930 . S
H521 C518 0.929 . S
S522 N523 1.613 . S
S522 N524 1.610 . S
N523 S522 1.613 . S
N523 C526 1.350 . S
N524 S522 1.610 . S
N524 C525 1.351 . S
C525 C519 1.428 . S
C525 N524 1.351 . S
C525 C526 1.434 . S
C526 C517 1.429 . S
C526 N523 1.350 . S
C526 C525 1.434 . S
C527 C528 1.369 . S
C527 C529 1.419 . S
C527 H531 0.930 . S
C528 C527 1.369 . S
C528 C537 1.429 . S
C529 C527 1.419 . S
C529 C530 1.363 . S
C529 H532 0.929 . S
C530 C529 1.363 . S
C530 C536 1.428 . S
H531 C527 0.930 . S
H532 C529 0.929 . S
S533 N534 1.613 . S
S533 N535 1.610 . S
N534 S533 1.613 . S
N534 C537 1.350 . S
N535 S533 1.610 . S
N535 C536 1.351 . S
C536 C530 1.428 . S
C536 N535 1.351 . S
C536 C537 1.434 . S
C537 C528 1.429 . S
C537 N534 1.350 . S
C537 C536 1.434 . S
C538 C539 1.369 . S
C538 C540 1.419 . S
C538 H542 0.930 . S
C539 C538 1.369 . S
C539 C548 1.429 . S
C540 C538 1.419 . S
C540 C541 1.363 . S
C540 H543 0.929 . S
C541 C540 1.363 . S
C541 C547 1.428 . S
H542 C538 0.930 . S
H543 C540 0.929 . S
S544 N545 1.613 . S
S544 N546 1.610 . S
N545 S544 1.613 . S
N545 C548 1.350 . S
N546 S544 1.610 . S
N546 C547 1.351 . S
C547 C541 1.428 . S
C547 N546 1.351 . S
C547 C548 1.434 . S
C548 C539 1.429 . S
C548 N545 1.350 . S
C548 C547 1.434 . S
C549 C550 1.369 . S
C549 C551 1.419 . S
C549 H553 0.930 . S
C550 C549 1.369 . S
C550 C559 1.429 . S
C551 C549 1.419 . S
C551 C552 1.363 . S
C551 H554 0.929 . S
C552 C551 1.363 . S
C552 C558 1.428 . S
H553 C549 0.930 . S
H554 C551 0.929 . S
S555 N556 1.613 . S
S555 N557 1.610 . S
N556 S555 1.613 . S
N556 C559 1.350 . S
N557 S555 1.610 . S
N557 C558 1.351 . S
C558 C552 1.428 . S
C558 N557 1.351 . S
C558 C559 1.434 . S
C559 C550 1.429 . S
C559 N556 1.350 . S
C559 C558 1.434 . S
C209 C0 1.234 . S
C211 C169 1.235 . S
C220 C143 1.233 . S
C222 C13 1.236 . S
C231 C156 1.233 . S
C233 C26 1.236 . S
C242 C130 1.235 . S
C244 C39 1.236 . S
C253 C52 1.233 . S
C255 C195 1.236 . S
C264 C65 1.236 . S
C266 C117 1.235 . S
C275 C182 1.234 . S
C277 C78 1.237 . S
C286 C91 1.233 . S
C288 C104 1.236 . S
C297 C60 1.538 . S
C299 C8 1.537 . S
C308 C21 1.536 . S
C310 C73 1.541 . S
C319 C34 1.542 . S
C321 C86 1.537 . S
C330 C99 1.537 . S
C332 C47 1.538 . S
C341 C112 1.538 . S
C343 C138 1.537 . S
C352 C125 1.542 . S
C354 C151 1.540 . S
C363 C190 1.539 . S
C365 C164 1.542 . S
C374 C177 1.540 . S
C376 C203 1.537 . S
C385 C70 1.312 . S
C387 C5 1.312 . S
C396 C18 1.307 . S
C398 C83 1.309 . S
C407 C31 1.314 . S
C409 C96 1.313 . S
C418 C57 1.314 . S
C420 C44 1.312 . S
C429 C62 1.354 . S
C431 C140 1.352 . S
C440 C36 1.351 . S
C442 C114 1.353 . S
C451 C153 1.350 . S
C453 C88 1.356 . S
C462 C127 1.350 . S
C464 C10 1.356 . S
C473 C109 1.315 . S
C475 C161 1.313 . S
C484 C135 1.304 . S
C486 C200 1.306 . S
C495 C174 1.310 . S
C497 C122 1.311 . S
C506 C148 1.314 . S
C508 C187 1.313 . S
C517 C192 1.355 . S
C519 C23 1.351 . S
C528 C179 1.359 . S
C530 C75 1.353 . S
C539 C205 1.350 . S
C541 C49 1.356 . S
C550 C166 1.359 . S
C552 C101 1.353 . S
