# Generated by pormake.
# Topology lcy-e, (6)-cn, num edge types: 1
# Building blocks:
#     Node 0, Type 0, BuildingBlock: KUMBUR_clean_sbu_0, # of connection points: 6
#     Node 1, Type 0, BuildingBlock: KUMBUR_clean_sbu_0, # of connection points: 6
#     Node 2, Type 0, BuildingBlock: KUMBUR_clean_sbu_0, # of connection points: 6
#     Node 3, Type 0, BuildingBlock: KUMBUR_clean_sbu_0, # of connection points: 6
#     Node 4, Type 0, BuildingBlock: KUMBUR_clean_sbu_0, # of connection points: 6
#     Node 5, Type 0, BuildingBlock: KUMBUR_clean_sbu_0, # of connection points: 6
#     Node 6, Type 0, BuildingBlock: KUMBUR_clean_sbu_0, # of connection points: 6
#     Node 7, Type 0, BuildingBlock: KUMBUR_clean_sbu_0, # of connection points: 6
#     Node 8, Type 0, BuildingBlock: KUMBUR_clean_sbu_0, # of connection points: 6
#     Node 9, Type 0, BuildingBlock: KUMBUR_clean_sbu_0, # of connection points: 6
#     Node 10, Type 0, BuildingBlock: KUMBUR_clean_sbu_0, # of connection points: 6
#     Node 11, Type 0, BuildingBlock: KUMBUR_clean_sbu_0, # of connection points: 6
#     Edge 12, Type (0, 0), BuildingBlock: XUDNAN_clean_linker_2, # of connection points: 2
#     Edge 13, Type (0, 0), BuildingBlock: XUDNAN_clean_linker_2, # of connection points: 2
#     Edge 14, Type (0, 0), BuildingBlock: XUDNAN_clean_linker_2, # of connection points: 2
#     Edge 15, Type (0, 0), BuildingBlock: XUDNAN_clean_linker_2, # of connection points: 2
#     Edge 16, Type (0, 0), BuildingBlock: XUDNAN_clean_linker_2, # of connection points: 2
#     Edge 17, Type (0, 0), BuildingBlock: XUDNAN_clean_linker_2, # of connection points: 2
#     Edge 18, Type (0, 0), BuildingBlock: XUDNAN_clean_linker_2, # of connection points: 2
#     Edge 19, Type (0, 0), BuildingBlock: XUDNAN_clean_linker_2, # of connection points: 2
#     Edge 20, Type (0, 0), BuildingBlock: XUDNAN_clean_linker_2, # of connection points: 2
#     Edge 21, Type (0, 0), BuildingBlock: XUDNAN_clean_linker_2, # of connection points: 2
#     Edge 22, Type (0, 0), BuildingBlock: XUDNAN_clean_linker_2, # of connection points: 2
#     Edge 23, Type (0, 0), BuildingBlock: XUDNAN_clean_linker_2, # of connection points: 2
#     Edge 24, Type (0, 0), BuildingBlock: XUDNAN_clean_linker_2, # of connection points: 2
#     Edge 25, Type (0, 0), BuildingBlock: XUDNAN_clean_linker_2, # of connection points: 2
#     Edge 26, Type (0, 0), BuildingBlock: XUDNAN_clean_linker_2, # of connection points: 2
#     Edge 27, Type (0, 0), BuildingBlock: XUDNAN_clean_linker_2, # of connection points: 2
#     Edge 28, Type (0, 0), BuildingBlock: XUDNAN_clean_linker_2, # of connection points: 2
#     Edge 29, Type (0, 0), BuildingBlock: XUDNAN_clean_linker_2, # of connection points: 2
#     Edge 30, Type (0, 0), BuildingBlock: XUDNAN_clean_linker_2, # of connection points: 2
#     Edge 31, Type (0, 0), BuildingBlock: XUDNAN_clean_linker_2, # of connection points: 2
#     Edge 32, Type (0, 0), BuildingBlock: XUDNAN_clean_linker_2, # of connection points: 2
#     Edge 33, Type (0, 0), BuildingBlock: XUDNAN_clean_linker_2, # of connection points: 2
#     Edge 34, Type (0, 0), BuildingBlock: XUDNAN_clean_linker_2, # of connection points: 2
#     Edge 35, Type (0, 0), BuildingBlock: XUDNAN_clean_linker_2, # of connection points: 2
#     Edge 36, Type (0, 0), BuildingBlock: XUDNAN_clean_linker_2, # of connection points: 2
#     Edge 37, Type (0, 0), BuildingBlock: XUDNAN_clean_linker_2, # of connection points: 2
#     Edge 38, Type (0, 0), BuildingBlock: XUDNAN_clean_linker_2, # of connection points: 2
#     Edge 39, Type (0, 0), BuildingBlock: XUDNAN_clean_linker_2, # of connection points: 2
#     Edge 40, Type (0, 0), BuildingBlock: XUDNAN_clean_linker_2, # of connection points: 2
#     Edge 41, Type (0, 0), BuildingBlock: XUDNAN_clean_linker_2, # of connection points: 2
#     Edge 42, Type (0, 0), BuildingBlock: XUDNAN_clean_linker_2, # of connection points: 2
#     Edge 43, Type (0, 0), BuildingBlock: XUDNAN_clean_linker_2, # of connection points: 2
#     Edge 44, Type (0, 0), BuildingBlock: XUDNAN_clean_linker_2, # of connection points: 2
#     Edge 45, Type (0, 0), BuildingBlock: XUDNAN_clean_linker_2, # of connection points: 2
#     Edge 46, Type (0, 0), BuildingBlock: XUDNAN_clean_linker_2, # of connection points: 2
#     Edge 47, Type (0, 0), BuildingBlock: XUDNAN_clean_linker_2, # of connection points: 2
# Relax obj value: 0.109
# Max RMSD: 0.286
# Mean RMSD: 0.284
data_MOF--net-lcy-e--node1-KUMBUR_clean_sbu_0--edge1-XUDNAN_clean_linker_2
_symmetry_space_group_name_H-M    P1
_symmetry_Int_Tables_number       1
_symmetry_cell_setting            triclinic
loop_
_symmetry_equiv_pos_as_xyz
'x, y, z'
_cell_length_a     43.342727
_cell_length_b     43.270824
_cell_length_c     43.474815
_cell_angle_alpha  89.989039
_cell_angle_beta   90.024287
_cell_angle_gamma 90.662166
loop_
_atom_site_label
_atom_site_type_symbol
_atom_site_fract_x
_atom_site_fract_y
_atom_site_fract_z
_atom_type_partial_charge
Tb0 Tb 0.15253 0.20948 0.52564 0.0
C1 C 0.06048 0.28041 0.45531 0.0
C2 C 0.04923 0.24751 0.41151 0.0
C3 C 1.00996 0.28193 0.43084 0.0
C4 C 0.06968 0.2579 0.43473 0.0
C5 C 0.03067 0.29313 0.45309 0.0
C6 C 0.01932 0.25936 0.40995 0.0
C7 C 0.04566 0.33121 0.49083 0.0
N8 N 0.08157 0.292 0.47541 0.0
C9 C 0.07515 0.31864 0.49137 0.0
C10 C 0.02311 0.31804 0.472 0.0
Tb11 Tb 0.12932 0.26915 0.47426 0.0
N12 N 0.09932 0.24811 0.43573 0.0
C13 C 0.11033 0.2297 0.41254 0.0
C14 C 0.05984 0.22668 0.38951 0.0
C15 C 0.09068 0.21819 0.38972 0.0
H16 H 0.09258 0.32967 0.50559 0.0
H17 H 0.09945 0.20288 0.37218 0.0
H18 H 1.00336 0.25156 0.39231 0.0
H19 H 0.04052 0.35136 0.50457 0.0
H20 H 0.13403 0.22293 0.41128 0.0
H21 H 0.18597 0.2841 0.61942 0.0
H22 H 0.04475 0.21798 0.37154 0.0
H23 H 0.18729 0.14954 0.49363 0.0
H24 H 0.14938 0.25942 0.58308 0.0
H25 H 0.23939 0.12685 0.49396 0.0
H26 H 0.98697 0.29131 0.42893 0.0
H27 H 0.24096 0.26911 0.61913 0.0
H28 H 0.28238 0.23434 0.59823 0.0
H29 H 1.00041 0.32823 0.47108 0.0
H30 H 0.29686 0.19125 0.56427 0.0
N31 N 0.18349 0.2318 0.5619 0.0
C32 C 0.17326 0.25275 0.5829 0.0
C33 C 0.22499 0.25831 0.60313 0.0
C34 C 0.23484 0.23535 0.58279 0.0
C35 C 0.19395 0.26676 0.60345 0.0
C36 C 0.21319 0.22235 0.56226 0.0
H37 H 0.28073 0.15047 0.52583 0.0
N38 N 0.19961 0.18635 0.52395 0.0
C39 C 0.2347 0.14715 0.50764 0.0
C40 C 0.22149 0.19848 0.54294 0.0
C41 C 0.20527 0.16002 0.50749 0.0
C42 C 0.25799 0.16058 0.52564 0.0
C43 C 0.25144 0.18638 0.54386 0.0
O44 O 0.13581 0.16394 0.53226 0.0
O45 O 0.11941 0.22321 0.49118 0.0
O46 O 0.10453 0.27565 0.51925 0.0
O47 O 0.11005 0.22813 0.54292 0.0
O48 O 0.13797 0.18008 0.48725 0.0
O49 O 0.14161 0.19429 0.57061 0.0
O50 O 0.13776 0.31674 0.47225 0.0
O51 O 0.15236 0.25971 0.5177 0.0
O52 O 0.18948 0.21719 0.49266 0.0
O53 O 0.16298 0.23869 0.45172 0.0
O54 O 0.17585 0.28463 0.48632 0.0
O55 O 0.14274 0.28842 0.4309 0.0
C56 C 0.11764 0.19839 0.47604 0.0
C57 C 0.14465 0.14029 0.58051 0.0
C58 C 0.1347 0.09413 0.6123 0.0
C59 C 0.12375 0.12021 0.59602 0.0
C60 C 0.16664 0.08881 0.61289 0.0
C61 C 0.17632 0.13445 0.58217 0.0
C62 C 0.18717 0.10885 0.59809 0.0
C63 C 0.09813 0.25583 0.54198 0.0
C64 C 0.13339 0.16662 0.56193 0.0
C65 C 0.27353 0.19994 0.56347 0.0
C66 C 0.26527 0.22448 0.58281 0.0
C67 C 0.17601 0.27713 0.51478 0.0
C68 C 0.15468 0.34444 0.42651 0.0
C69 C 0.15851 0.34569 0.39408 0.0
C70 C 0.17036 0.37291 0.37995 0.0
C71 C 0.17772 0.39855 0.39848 0.0
C72 C 0.16219 0.37072 0.44409 0.0
C73 C 0.17354 0.39745 0.43017 0.0
C74 C 0.18704 0.22432 0.46342 0.0
C75 C 0.14501 0.31589 0.44315 0.0
H76 H 0.09919 0.12455 0.59502 0.0
H77 H 0.17587 0.06932 0.62539 0.0
H78 H 0.1928 0.14961 0.57119 0.0
H79 H 0.21171 0.10457 0.59905 0.0
H80 H 0.15296 0.32564 0.3801 0.0
H81 H 0.18643 0.41978 0.38831 0.0
H82 H 0.15981 0.37054 0.4689 0.0
H83 H 0.1793 0.41744 0.44408 0.0
Tb84 Tb 0.99896 0.88126 0.74067 0.0
C85 C 0.0851 0.96398 0.78436 0.0
C86 C 0.12729 0.96084 0.74802 0.0
C87 C 0.1118 1.01083 0.76742 0.0
C88 C 0.10391 0.94636 0.76576 0.0
C89 C 0.08935 0.99639 0.78584 0.0
C90 C 0.13073 0.99309 0.74856 0.0
C91 C 0.05084 0.99801 0.8256 0.0
N92 N 0.06322 0.94946 0.80158 0.0
C93 C 0.04763 0.96597 0.82356 0.0
C94 C 0.0713 0.01341 0.80617 0.0
Tb95 Tb 0.05835 0.89679 0.79431 0.0
N96 N 0.09943 0.91519 0.765 0.0
C97 C 0.12011 0.89724 0.74921 0.0
C98 C 0.14672 0.94254 0.73031 0.0
C99 C 0.14329 0.91061 0.73118 0.0
H100 H 0.03308 0.95487 0.8405 0.0
H101 H 0.15892 0.89614 0.71836 0.0
H102 H 0.14826 1.00452 0.73476 0.0
H103 H 0.03784 1.01073 0.84256 0.0
H104 H 0.12019 0.87244 0.7505 0.0
H105 H 0.90297 0.84761 0.81175 0.0
H106 H 0.16502 0.95275 0.7166 0.0
H107 H 0.02392 0.85254 0.67424 0.0
H108 H 0.94585 0.8811 0.79488 0.0
H109 H 0.01698 0.80462 0.64419 0.0
H110 H 0.11505 0.03568 0.76799 0.0
H111 H 0.89458 0.79661 0.78699 0.0
H112 H 0.91082 0.7578 0.74745 0.0
H113 H 0.07385 0.03828 0.80788 0.0
H114 H 0.9424 0.74579 0.70202 0.0
N115 N 0.96218 0.84955 0.76141 0.0
C116 C 0.94287 0.85886 0.7843 0.0
C117 C 0.9138 0.81114 0.77988 0.0
C118 C 0.9335 0.80181 0.75628 0.0
C119 C 0.91835 0.83994 0.79377 0.0
C120 C 0.95745 0.82204 0.74709 0.0
H121 H 0.9819 0.76329 0.66309 0.0
N122 N 0.99485 0.83753 0.71106 0.0
C123 C 1.00499 0.80739 0.66583 0.0
C124 C 0.97441 0.81573 0.72099 0.0
C125 C 1.00886 0.8345 0.68293 0.0
C126 C 0.98526 0.78407 0.67664 0.0
C127 C 0.96905 0.78842 0.70412 0.0
O128 O 0.98937 0.90094 0.69718 0.0
O129 O 0.03594 0.91305 0.75316 0.0
O130 O 1.01331 0.9142 0.81301 0.0
O131 O 0.98348 0.91993 0.76918 0.0
O132 O 0.03518 0.89706 0.70916 0.0
O133 O 0.95475 0.89912 0.73218 0.0
O134 O 0.06766 0.90666 0.84054 0.0
O135 O 1.01346 0.87467 0.78882 0.0
O136 O 0.02901 0.84108 0.7396 0.0
O137 O 0.07305 0.85825 0.76511 0.0
O138 O 0.04618 0.84969 0.80871 0.0
O139 O 0.09828 0.87676 0.81501 0.0
C140 C 0.04836 0.91666 0.72712 0.0
C141 C 0.9378 0.89479 0.68047 0.0
C142 C 0.90937 0.90197 0.63215 0.0
C143 C 0.93141 0.91249 0.65393 0.0
C144 C 0.89479 0.87313 0.63703 0.0
C145 C 0.92202 0.86668 0.68493 0.0
C146 C 0.901 0.8558 0.66322 0.0
C147 C 0.98897 0.92613 0.7984 0.0
C148 C 0.96057 0.90572 0.70355 0.0
C149 C 0.94679 0.76704 0.71453 0.0
C150 C 0.92886 0.77384 0.74045 0.0
C151 C 0.01684 0.84976 0.80415 0.0
C152 C 0.11007 0.88544 0.87003 0.0
C153 C 0.14013 0.87265 0.87055 0.0
C154 C 0.15538 0.86768 0.89903 0.0
C155 C 0.14031 0.87609 0.92638 0.0
C156 C 0.09595 0.89335 0.89795 0.0
C157 C 0.11098 0.88875 0.92578 0.0
C158 C 0.0582 0.83843 0.7472 0.0
C159 C 0.09188 0.88932 0.84134 0.0
H160 H 0.94309 0.93452 0.65065 0.0
H161 H 0.87857 0.8637 0.62046 0.0
H162 H 0.92563 0.85315 0.70534 0.0
H163 H 0.88931 0.83385 0.6668 0.0
H164 H 0.15125 0.86616 0.84923 0.0
H165 H 0.15144 0.87317 0.9485 0.0
H166 H 0.07292 0.90281 0.89839 0.0
H167 H 0.09975 0.89496 0.94709 0.0
Tb168 Tb 0.39886 0.74564 0.97995 0.0
C169 C 0.31602 0.83256 0.04126 0.0
C170 C 0.31236 0.8708 1.00079 0.0
C171 C 0.2693 0.86257 0.03569 0.0
C172 C 0.3288 0.84752 0.01621 0.0
C173 C 0.28641 0.84047 0.05181 0.0
C174 C 0.28222 0.87765 1.01015 0.0
C175 C 0.29464 0.80753 0.09583 0.0
N176 N 0.33354 0.81195 0.05665 0.0
C177 C 0.32407 0.80093 0.08471 0.0
C178 C 0.27547 0.82697 0.07901 0.0
Tb179 Tb 0.38125 0.80266 0.03625 0.0
N180 N 0.35793 0.84022 1.00783 0.0
C181 C 0.37286 0.85701 0.98559 0.0
C182 C 0.32708 0.88715 0.97712 0.0
C183 C 0.35767 0.88057 0.96986 0.0
H184 H 0.33903 0.78615 0.09798 0.0
H185 H 0.36952 0.89349 0.95201 0.0
H186 H 0.26903 0.89515 0.99833 0.0
H187 H 0.2869 0.79786 0.11748 0.0
H188 H 0.39649 0.85249 0.97989 0.0
H189 H 0.39382 0.62883 0.02745 0.0
H190 H 0.31529 0.90528 0.96477 0.0
H191 H 0.45728 0.76609 0.93254 0.0
H192 H 0.37317 0.67384 1.00105 0.0
H193 H 0.51378 0.76346 0.93302 0.0
H194 H 0.24637 0.86873 0.04326 0.0
H195 H 0.44928 0.62628 0.03972 0.0
H196 H 0.50212 0.6508 0.0365 0.0
H197 H 0.25279 0.83237 0.08782 0.0
H198 H 0.53558 0.68967 1.01157 0.0
N199 N 0.41572 0.69983 1.00196 0.0
C200 C 0.3972 0.67443 1.00773 0.0
C201 C 0.44016 0.64703 0.02939 0.0
C202 C 0.45957 0.67162 0.02103 0.0
C203 C 0.40889 0.64827 0.02228 0.0
C204 C 0.44653 0.69762 1.00657 0.0
H205 H 0.54022 0.7315 0.9717 0.0
N206 N 0.45137 0.73964 0.97363 0.0
C207 C 0.50052 0.75159 0.95051 0.0
C208 C 0.4652 0.71899 0.99228 0.0
C209 C 0.46836 0.75347 0.95076 0.0
C210 C 0.51533 0.73351 0.97238 0.0
C211 C 0.49755 0.71556 0.99254 0.0
O212 O 0.4016 0.74896 0.93132 0.0
O213 O 0.37398 0.78847 0.98892 0.0
O214 O 0.34655 0.7652 0.04302 0.0
O215 O 0.36626 0.72573 1.01252 0.0
O216 O 0.35013 0.7517 0.97004 0.0
O217 O 0.37991 0.71 0.95266 0.0
O218 O 0.39876 0.81252 0.08028 0.0
O219 O 0.41252 0.76487 0.02522 0.0
O220 O 0.42194 0.78985 0.96758 0.0
O221 O 0.42615 0.812 0.0156 0.0
O222 O 0.39136 0.76588 0.06781 0.0
O223 O 0.39792 0.84799 0.04638 0.0
C224 C 0.34786 0.77991 0.97833 0.0
C225 C 0.39771 0.70205 0.90207 0.0
C226 C 0.38638 0.66915 0.85691 0.0
C227 C 0.37654 0.68991 0.88012 0.0
C228 C 0.41785 0.66136 0.85615 0.0
C229 C 0.42859 0.69313 0.90089 0.0
C230 C 0.43856 0.67308 0.87796 0.0
C231 C 0.34684 0.73618 0.03318 0.0
C232 C 0.38692 0.72295 0.92671 0.0
C233 C 0.51076 0.69224 1.01051 0.0
C234 C 0.49172 0.67007 0.02462 0.0
C235 C 0.41149 0.75133 0.05158 0.0
C236 C 0.39622 0.86394 0.09906 0.0
C237 C 0.41229 0.89253 0.10188 0.0
C238 C 0.40699 0.91196 0.12749 0.0
C239 C 0.38515 0.9029 0.1496 0.0
C240 C 0.3744 0.85577 0.12161 0.0
C241 C 0.36881 0.87518 0.1465 0.0
C242 C 0.4356 0.80922 0.98701 0.0
C243 C 0.40455 0.84143 0.07468 0.0
H244 H 0.35248 0.69626 0.88151 0.0
H245 H 0.42679 0.64643 0.83837 0.0
H246 H 0.44501 0.7016 0.91773 0.0
H247 H 0.46258 0.66659 0.87701 0.0
H248 H 0.42933 0.89919 0.08481 0.0
H249 H 0.38042 0.91757 0.1692 0.0
H250 H 0.3622 0.83393 0.12064 0.0
H251 H 0.35199 0.86849 0.16372 0.0
Tb252 Tb 0.53364 0.14295 0.22583 0.0
C253 C 0.4451 0.05696 0.28263 0.0
C254 C 0.40181 0.05948 0.24733 0.0
C255 C 0.40917 0.01347 0.27812 0.0
C256 C 0.42808 0.07332 0.26112 0.0
C257 C 0.43546 0.02695 0.29155 0.0
C258 C 0.39257 0.02957 0.25588 0.0
C259 C 0.47613 0.02671 0.32925 0.0
N260 N 0.46984 0.07093 0.29616 0.0
C261 C 0.48413 0.05676 0.32056 0.0
C262 C 0.45188 1.01158 0.31446 0.0
Tb263 Tb 0.47818 0.12158 0.28229 0.0
N264 N 0.43666 0.10287 0.25427 0.0
C265 C 0.41934 0.11965 0.23378 0.0
C266 C 0.385 0.07629 0.2258 0.0
C267 C 0.3938 0.10649 0.21905 0.0
H268 H 0.50156 0.06859 0.33409 0.0
H269 H 0.38089 0.11977 0.20244 0.0
H270 H 0.37239 0.01875 0.24561 0.0
H271 H 0.48814 0.0156 0.348 0.0
H272 H 0.42517 0.14285 0.22714 0.0
H273 H 0.62535 0.16857 0.30601 0.0
H274 H 0.36495 0.06628 0.21452 0.0
H275 H 0.51142 0.18052 0.16312 0.0
H276 H 0.5886 0.13479 0.27808 0.0
H277 H 0.51629 0.23357 0.14217 0.0
H278 H 0.40151 0.99049 0.28474 0.0
H279 H 0.62853 0.22435 0.29366 0.0
H280 H 0.61193 0.26837 0.25961 0.0
H281 H 0.44527 0.98847 0.32169 0.0
H282 H 0.58213 0.28617 0.21481 0.0
N283 N 0.57034 0.17129 0.25113 0.0
C284 C 0.58981 0.15904 0.27251 0.0
C285 C 0.61228 0.20964 0.28143 0.0
C286 C 0.59369 0.22155 0.258 0.0
C287 C 0.61067 0.17812 0.28837 0.0
C288 C 0.57274 0.20147 0.24309 0.0
H289 H 0.54658 0.27322 0.17052 0.0
N290 N 0.5371 0.19087 0.20372 0.0
C291 C 0.52725 0.22777 0.16375 0.0
C292 C 0.55568 0.21162 0.21831 0.0
C293 C 0.52456 0.19782 0.1756 0.0
C294 C 0.54431 0.2501 0.17988 0.0
C295 C 0.55944 0.24194 0.20713 0.0
O296 O 0.54036 0.12464 0.18131 0.0
O297 O 0.49744 0.10983 0.2378 0.0
O298 O 0.52126 0.0956 0.29191 0.0
O299 O 0.54985 0.10089 0.24696 0.0
O300 O 0.49581 0.1307 0.19525 0.0
O301 O 0.57866 0.13152 0.21133 0.0
O302 O 0.47759 0.12177 0.33073 0.0
O303 O 0.52269 0.14397 0.27519 0.0
O304 O 0.4999 0.17998 0.22696 0.0
O305 O 0.46066 0.16262 0.25971 0.0
O306 O 0.49077 0.16754 0.29905 0.0
O307 O 0.43622 0.13277 0.30399 0.0
C308 C 0.48358 0.10944 0.21216 0.0
C309 C 0.58818 0.135 0.15757 0.0
C310 C 0.61424 0.12669 0.10821 0.0
C311 C 0.5986 0.11482 0.13428 0.0
C312 C 0.61907 0.15874 0.10575 0.0
C313 C 0.59448 0.16673 0.15493 0.0
C314 C 0.60945 0.17852 0.12905 0.0
C315 C 0.54456 0.08776 0.27374 0.0
C316 C 0.57006 0.12301 0.18395 0.0
C317 C 0.57915 0.2626 0.22279 0.0
C318 C 0.59616 0.25245 0.24828 0.0
C319 C 0.51945 0.16795 0.29196 0.0
C320 C 0.4313 0.13484 0.35993 0.0
C321 C 0.40099 0.1467 0.35987 0.0
C322 C 0.38552 0.15236 0.38791 0.0
C323 C 0.40068 0.14538 0.41567 0.0
C324 C 0.44577 0.12858 0.38806 0.0
C325 C 0.4305 0.13375 0.41566 0.0
C326 C 0.47266 0.18251 0.24 0.0
C327 C 0.44867 0.12993 0.33113 0.0
H328 H 0.59438 0.09016 0.13628 0.0
H329 H 0.63116 0.16843 0.08612 0.0
H330 H 0.58799 0.18251 0.17289 0.0
H331 H 0.61388 0.20312 0.12717 0.0
H332 H 0.38981 0.15211 0.33825 0.0
H333 H 0.38937 0.14856 0.43762 0.0
H334 H 0.46902 0.11967 0.38878 0.0
H335 H 0.44184 0.12868 0.43724 0.0
Tb336 Tb 0.63626 0.25223 0.54706 0.0
C337 C 0.71986 0.33377 0.48227 0.0
C338 C 0.71752 0.37894 0.51488 0.0
C339 C 0.76511 0.36695 0.48821 0.0
C340 C 0.70382 0.35189 0.50262 0.0
C341 C 0.75043 0.34157 0.47408 0.0
C342 C 0.74859 0.38575 0.50846 0.0
C343 C 0.74775 0.30224 0.43476 0.0
N344 N 0.70448 0.31032 0.46824 0.0
C345 C 0.71722 0.29602 0.44322 0.0
C346 C 0.76468 0.32473 0.45069 0.0
Tb347 Tb 0.65497 0.30101 0.48448 0.0
N348 N 0.674 0.3443 0.50854 0.0
C349 C 0.6557 0.36455 0.52417 0.0
C350 C 0.69925 0.39889 0.53223 0.0
C351 C 0.66803 0.39192 0.53639 0.0
H352 H 0.70399 0.27906 0.43033 0.0
H353 H 0.65344 0.40754 0.54908 0.0
H354 H 0.75971 0.40607 0.51817 0.0
H355 H 0.75805 0.28999 0.41574 0.0
H356 H 0.63147 0.36009 0.52711 0.0
H357 H 0.62231 0.13109 0.51526 0.0
H358 H 0.70882 0.42001 0.54185 0.0
H359 H 0.58652 0.28469 0.59773 0.0
H360 H 0.65099 0.17652 0.53335 0.0
H361 H 0.53047 0.28642 0.60473 0.0
H362 H 0.78872 0.3731 0.48252 0.0
H363 H 0.56608 0.1339 0.50624 0.0
H364 H 0.51709 0.16356 0.51303 0.0
H365 H 0.78818 0.32992 0.44378 0.0
H366 H 0.49137 0.20732 0.53792 0.0
N367 N 0.61196 0.20663 0.53255 0.0
C368 C 0.62662 0.17887 0.52887 0.0
C369 C 0.57866 0.15429 0.51384 0.0
C370 C 0.56326 0.18152 0.52116 0.0
C371 C 0.61034 0.15257 0.51904 0.0
C372 C 0.58074 0.20725 0.53139 0.0
H373 H 0.49622 0.25281 0.57354 0.0
N374 N 0.58459 0.25218 0.56059 0.0
C375 C 0.54016 0.27115 0.58766 0.0
C376 C 0.56639 0.23139 0.5458 0.0
C377 C 0.57208 0.27007 0.58343 0.0
C378 C 0.52093 0.25232 0.56988 0.0
C379 C 0.53406 0.23103 0.54972 0.0
O380 O 0.63963 0.2616 0.59468 0.0
O381 O 0.66261 0.29379 0.53354 0.0
O382 O 0.68846 0.26109 0.48306 0.0
O383 O 0.66609 0.22593 0.51736 0.0
O384 O 0.68556 0.25838 0.55468 0.0
O385 O 0.65264 0.21756 0.57683 0.0
O386 O 0.64893 0.30998 0.43718 0.0
O387 O 0.62407 0.26349 0.49859 0.0
O388 O 0.61536 0.29822 0.55196 0.0
O389 O 0.60763 0.3081 0.50106 0.0
O390 O 0.64592 0.26167 0.45592 0.0
O391 O 0.62879 0.33977 0.47029 0.0
C392 C 0.68862 0.28614 0.54495 0.0
C393 C 0.64053 0.2191 0.62998 0.0
C394 C 0.65349 0.18994 0.67666 0.0
C395 C 0.6622 0.20291 0.64806 0.0
C396 C 0.62284 0.19307 0.68658 0.0
C397 C 0.61001 0.22118 0.64025 0.0
C398 C 0.6013 0.20833 0.66839 0.0
C399 C 0.68666 0.23314 0.49623 0.0
C400 C 0.65063 0.23452 0.60127 0.0
C401 C 0.51627 0.20765 0.53573 0.0
C402 C 0.53091 0.18275 0.52153 0.0
C403 C 0.6263 0.24767 0.47352 0.0
C404 C 0.64152 0.36263 0.42171 0.0
C405 C 0.62095 0.38788 0.41824 0.0
C406 C 0.62725 0.41173 0.39652 0.0
C407 C 0.65428 0.41008 0.37892 0.0
C408 C 0.66873 0.3625 0.40417 0.0
C409 C 0.67491 0.38593 0.38298 0.0
C410 C 0.59912 0.31117 0.52991 0.0
C411 C 0.63351 0.33525 0.44128 0.0
H412 H 0.68583 0.20095 0.64018 0.0
H413 H 0.61533 0.18309 0.70821 0.0
H414 H 0.59289 0.23288 0.62673 0.0
H415 H 0.57769 0.21023 0.67619 0.0
H416 H 0.60003 0.38868 0.43185 0.0
H417 H 0.65986 0.42806 0.3624 0.0
H418 H 0.68508 0.34391 0.40632 0.0
H419 H 0.69585 0.38529 0.36945 0.0
Tb420 Tb 0.97459 0.40249 0.7492 0.0
C421 C 0.03102 0.3148 0.82923 0.0
C422 C 0.9943 0.31269 0.87139 0.0
C423 C 0.02268 0.26679 0.85741 0.0
C424 C 1.00924 0.32929 0.8476 0.0
C425 C 0.03857 0.28362 0.83471 0.0
C426 C 1.00056 0.28126 0.87564 0.0
C427 C 0.08069 0.28923 0.79887 0.0
N428 N 0.04642 0.33171 0.80768 0.0
C429 C 0.0728 0.32013 0.79472 0.0
C430 C 0.06299 0.27064 0.81837 0.0
Tb431 Tb 0.0315 0.3823 0.80409 0.0
N432 N 1.00296 0.35963 0.84251 0.0
C433 C 0.98309 0.37492 0.86158 0.0
C434 C 0.97374 0.32821 0.89056 0.0
C435 C 0.96836 0.35951 0.88579 0.0
H436 H 0.08718 0.3345 0.78006 0.0
H437 H 0.95249 0.37174 0.9005 0.0
H438 H 0.98892 0.26809 0.89347 0.0
H439 H 0.10061 0.27988 0.78728 0.0
H440 H 0.97775 0.39882 0.85839 0.0
H441 H 0.04467 0.45337 0.65833 0.0
H442 H 0.96194 0.31626 0.90911 0.0
H443 H 0.9113 0.42759 0.78418 0.0
H444 H 0.0257 0.41161 0.6906 0.0
H445 H 0.87718 0.47276 0.77999 0.0
H446 H 0.02799 0.24277 0.86167 0.0
H447 H 0.02127 0.50502 0.6618 0.0
H448 H 0.9798 0.53838 0.68329 0.0
H449 H 0.06934 0.24675 0.82185 0.0
H450 H 0.93326 0.54322 0.71514 0.0
N451 N 0.99324 0.43869 0.7151 0.0
C452 C 0.01548 0.43364 0.69344 0.0
C453 C 1.01317 0.48664 0.67677 0.0
C454 C 0.9887 0.49122 0.69712 0.0
C455 C 0.02633 0.45755 0.67466 0.0
C456 C 0.97925 0.4666 0.71642 0.0
H457 H 0.89369 0.51805 0.74909 0.0
N458 N 0.94528 0.44591 0.75385 0.0
C459 C 0.89871 0.4723 0.76742 0.0
C460 C 0.95384 0.46993 0.73547 0.0
C461 C 0.91761 0.44648 0.76917 0.0
C462 C 0.9082 0.49786 0.75009 0.0
C463 C 0.93615 0.49704 0.73412 0.0
O464 O 0.93233 0.37934 0.74867 0.0
O465 O 0.98301 0.37757 0.79287 0.0
O466 O 0.03635 0.35239 0.76143 0.0
O467 O 1.00586 0.37445 0.72306 0.0
O468 O 0.96471 0.35382 0.75596 0.0
O469 O 0.94823 0.39996 0.70686 0.0
O470 O 0.08001 0.38589 0.80888 0.0
O471 O 0.02448 0.40407 0.7594 0.0
O472 O 0.97194 0.4351 0.7885 0.0
O473 O 1.01061 0.42308 0.82353 0.0
O474 O 0.04916 0.42774 0.7906 0.0
O475 O 0.05051 0.38734 0.84851 0.0
C476 C 0.97254 0.35136 0.78413 0.0
C477 C 0.89243 0.38709 0.71266 0.0
C478 C 0.84608 0.37759 0.68029 0.0
C479 C 0.87891 0.37899 0.68363 0.0
C480 C 0.8276 0.38387 0.70602 0.0
C481 C 0.87228 0.3928 0.73746 0.0
C482 C 0.84054 0.39163 0.73406 0.0
C483 C 0.02534 0.3532 0.73255 0.0
C484 C 0.92628 0.38348 0.7198 0.0
C485 C 0.94622 0.52197 0.71592 0.0
C486 C 0.97268 0.5192 0.69777 0.0
C487 C 0.04212 0.42761 0.76202 0.0
C488 C 0.09816 0.4144 0.85304 0.0
C489 C 0.11025 0.4112 0.88335 0.0
C490 C 0.12922 0.43483 0.89626 0.0
C491 C 0.13493 0.4617 0.87906 0.0
C492 C 0.1052 0.44143 0.83645 0.0
C493 C 0.12297 0.46496 0.84958 0.0
C494 C 0.9877 0.44041 0.81412 0.0
C495 C 0.0788 0.38951 0.83875 0.0
H496 H 0.89356 0.37348 0.66427 0.0
H497 H 0.80265 0.38274 0.70443 0.0
H498 H 0.88067 0.39626 0.76047 0.0
H499 H 0.82579 0.39595 0.75365 0.0
H500 H 0.10571 0.39026 0.89633 0.0
H501 H 0.14936 0.4801 0.88831 0.0
H502 H 0.09741 0.44447 0.81313 0.0
H503 H 0.12796 0.48576 0.83666 0.0
Tb504 Tb 0.9002 0.78174 0.06112 0.0
C505 C 0.80545 0.69931 0.98895 0.0
C506 C 0.79902 0.65276 0.01907 0.0
C507 C 0.76269 0.66414 0.97815 0.0
C508 C 0.81518 0.6804 1.01233 0.0
C509 C 0.77895 0.6916 0.97164 0.0
C510 C 0.7729 0.64456 1.00162 0.0
C511 C 0.78854 0.73692 0.94058 0.0
N512 N 0.82293 0.72446 0.9821 0.0
C513 C 0.81523 0.7429 0.95768 0.0
C514 C 0.7703 0.7111 0.94755 0.0
Tb515 Tb 0.8692 0.72893 1.00714 0.0
N516 N 0.84096 0.68877 0.02799 0.0
C517 C 0.85142 0.67035 0.05137 0.0
C518 C 0.80947 0.63424 0.04315 0.0
C519 C 0.83561 0.6433 0.0596 0.0
H520 H 0.82967 0.76229 0.95114 0.0
H521 H 0.84396 0.62918 0.07833 0.0
H522 H 0.76023 0.62337 1.00638 0.0
H523 H 0.78248 0.75182 0.92157 0.0
H524 H 0.87188 0.6761 0.06423 0.0
H525 H 0.94618 0.88129 1.00092 0.0
H526 H 0.7975 0.61301 0.04927 0.0
H527 H 0.92868 0.73997 0.11943 0.0
H528 H 0.90816 0.84073 1.01234 0.0
H529 H 0.9768 0.7373 0.14862 0.0
H530 H 0.74244 0.65764 0.96494 0.0
H531 H 0.99717 0.88074 0.02648 0.0
H532 H 0.03286 0.85569 0.06433 0.0
H533 H 0.75004 0.70605 0.93378 0.0
H534 H 0.04133 0.81624 0.10416 0.0
N535 N 0.93548 0.8184 0.046 0.0
C536 C 0.92924 0.84104 0.02504 0.0
C537 C 0.98005 0.86323 0.03218 0.0
C538 C 0.98636 0.84014 0.05374 0.0
C539 C 0.95124 0.86378 0.01792 0.0
C540 C 0.96326 0.81792 0.06036 0.0
H541 H 0.02024 0.77267 0.13631 0.0
N542 N 0.94453 0.77596 0.08938 0.0
C543 C 0.97465 0.75387 0.13011 0.0
C544 C 0.96805 0.79583 0.0827 0.0
C545 C 0.94722 0.75557 0.11336 0.0
C546 C 0.99915 0.77378 0.12301 0.0
C547 C 0.99601 0.79521 0.09918 0.0
O548 O 0.88278 0.78929 0.10568 0.0
O549 O 0.86185 0.74993 0.05104 0.0
O550 O 0.83601 0.7681 1.01087 0.0
O551 O 0.86931 0.80586 0.03043 0.0
O552 O 0.88261 0.74602 0.09225 0.0
O553 O 0.88617 0.82674 0.07359 0.0
O554 O 0.88278 0.71984 0.96154 0.0
O555 O 0.9058 0.76323 1.01417 0.0
O556 O 0.93682 0.7495 0.05107 0.0
O557 O 0.90504 0.70864 0.03758 0.0
O558 O 0.88011 0.76491 0.97488 0.0
O559 O 0.89231 0.68723 0.99711 0.0
C560 C 0.85962 0.73604 0.07647 0.0
C561 C 0.88983 0.83869 0.12705 0.0
C562 C 0.8798 0.86779 0.17427 0.0
C563 C 0.8688 0.85123 0.1484 0.0
C564 C 0.91172 0.87161 0.17845 0.0
C565 C 0.92151 0.8436 0.13153 0.0
C566 C 0.93238 0.85977 0.15709 0.0
C567 C 0.84344 0.79767 0.01655 0.0
C568 C 0.87886 0.81871 0.10159 0.0
C569 C 0.01955 0.81653 0.09194 0.0
C570 C 0.01472 0.83899 0.06927 0.0
C571 C 0.90401 0.77671 0.98795 0.0
C572 C 0.88471 0.66724 0.94675 0.0
C573 C 0.90586 0.64392 0.9386 0.0
C574 C 0.89742 0.62074 0.91706 0.0
C575 C 0.86733 0.62083 0.90485 0.0
C576 C 0.85524 0.66688 0.93342 0.0
C577 C 0.84655 0.6437 0.91295 0.0
C578 C 0.93193 0.71968 0.04741 0.0
C579 C 0.89381 0.69276 0.96777 0.0
H580 H 0.84421 0.84767 0.14527 0.0
H581 H 0.92066 0.88425 0.19811 0.0
H582 H 0.93795 0.8348 0.11547 0.0
H583 H 0.95695 0.86311 0.16037 0.0
H584 H 0.92891 0.64434 0.94829 0.0
H585 H 0.85967 0.60304 0.88898 0.0
H586 H 0.83898 0.68481 0.9383 0.0
H587 H 0.82364 0.64364 0.90304 0.0
Tb588 Tb 0.4955 0.6458 0.30088 0.0
C589 C 0.57962 0.55372 0.23026 0.0
C590 C 0.62203 0.54397 0.26489 0.0
C591 C 0.61136 0.50833 0.22297 0.0
C592 C 0.59686 0.56208 0.25553 0.0
C593 C 0.58662 0.52675 0.21358 0.0
C594 C 0.62924 0.5171 0.24841 0.0
C595 C 0.54635 0.53987 0.17773 0.0
N596 N 0.55697 0.57291 0.22106 0.0
C597 C 0.54085 0.56674 0.19457 0.0
C598 C 0.56928 0.51969 0.18734 0.0
Tb599 Tb 0.55217 0.61826 0.24777 0.0
N600 N 0.58986 0.58876 0.27007 0.0
C601 C 0.6081 0.59906 0.29382 0.0
C602 C 0.63951 0.55361 0.29022 0.0
C603 C 0.6325 0.58133 0.30473 0.0
H604 H 0.52353 0.58238 0.18628 0.0
H605 H 0.64614 0.58933 0.32407 0.0
H606 H 0.64848 0.50289 0.25525 0.0
H607 H 0.53322 0.53501 0.15708 0.0
H608 H 0.60376 0.62065 0.30519 0.0
H609 H 0.40469 0.68571 0.22572 0.0
H610 H 0.65874 0.54011 0.29841 0.0
H611 H 0.52558 0.67641 0.3643 0.0
H612 H 0.43899 0.64721 0.24811 0.0
H613 H 0.52435 0.72636 0.39148 0.0
H614 H 0.61716 0.48757 0.21043 0.0
H615 H 0.4054 0.73943 0.24522 0.0
H616 H 0.42541 0.77786 0.28404 0.0
H617 H 0.5739 0.49915 0.17394 0.0
H618 H 0.45748 0.78878 0.32963 0.0
N619 N 0.46074 0.67883 0.27928 0.0
C620 C 0.44002 0.67046 0.25694 0.0
C621 C 0.42086 0.7226 0.25507 0.0
C622 C 0.44054 0.73052 0.27941 0.0
C623 C 0.42031 0.69231 0.24409 0.0
C624 C 0.46038 0.70781 0.29119 0.0
H625 H 0.49351 0.76929 0.37057 0.0
N626 N 0.49671 0.69129 0.32757 0.0
C627 C 0.51155 0.72328 0.3703 0.0
C628 C 0.47864 0.71416 0.3165 0.0
C629 C 0.51223 0.69501 0.35479 0.0
C630 C 0.49415 0.74747 0.35839 0.0
C631 C 0.4773 0.74307 0.33123 0.0
O632 O 0.48695 0.62588 0.34448 0.0
O633 O 0.52925 0.6099 0.29097 0.0
O634 O 0.51333 0.58354 0.24762 0.0
O635 O 0.47375 0.61217 0.27037 0.0
O636 O 0.53017 0.62925 0.33349 0.0
O637 O 0.4496 0.63377 0.31372 0.0
O638 O 0.56399 0.63662 0.20428 0.0
O639 O 0.51598 0.65214 0.25495 0.0
O640 O 0.52925 0.68323 0.29613 0.0
O641 O 0.57062 0.65421 0.27964 0.0
O642 O 0.51922 0.63045 0.21303 0.0
O643 O 0.59619 0.63933 0.24133 0.0
C644 C 0.54185 0.60763 0.31709 0.0
C645 C 0.43868 0.63421 0.36795 0.0
C646 C 0.41027 0.62295 0.41605 0.0
C647 C 0.42538 0.6126 0.38897 0.0
C648 C 0.40879 0.65487 0.42156 0.0
C649 C 0.43583 0.66584 0.37406 0.0
C650 C 0.42124 0.67603 0.40068 0.0
C651 C 0.48362 0.58816 0.25465 0.0
C652 C 0.45729 0.62398 0.34101 0.0
C653 C 0.45855 0.76623 0.31889 0.0
C654 C 0.44029 0.76001 0.29292 0.0
C655 C 0.50397 0.65073 0.22797 0.0
C656 C 0.61719 0.63722 0.19057 0.0
C657 C 0.64221 0.65806 0.18508 0.0
C658 C 0.66456 0.65155 0.16213 0.0
C659 C 0.66177 0.62387 0.14547 0.0
C660 C 0.61568 0.6096 0.17371 0.0
C661 C 0.63776 0.60303 0.15144 0.0
C662 C 0.55903 0.67983 0.29149 0.0
C663 C 0.59178 0.64492 0.21231 0.0
H664 H 0.42726 0.58804 0.3846 0.0
H665 H 0.39734 0.66355 0.44191 0.0
H666 H 0.44503 0.68281 0.35836 0.0
H667 H 0.41953 0.70056 0.40515 0.0
H668 H 0.64393 0.67938 0.19809 0.0
H669 H 0.67869 0.61798 0.12816 0.0
H670 H 0.5971 0.5932 0.1773 0.0
H671 H 0.63616 0.58165 0.13859 0.0
Tb672 Tb 0.22183 0.52513 0.1476 0.0
C673 C 0.28918 0.43304 0.065 0.0
C674 C 0.24915 0.3938 0.06077 0.0
C675 C 0.28897 0.39767 0.0216 0.0
C676 C 0.26312 0.41866 0.07667 0.0
C677 C 0.30244 0.42276 0.03731 0.0
C678 C 0.26232 0.38327 0.03327 0.0
C679 C 0.34133 0.46283 0.04269 0.0
N680 N 0.30102 0.45765 0.08044 0.0
C681 C 0.32738 0.47213 0.07009 0.0
C682 C 0.32877 0.43806 0.02618 0.0
Tb683 Tb 0.2785 0.46819 0.1269 0.0
N684 N 0.2507 0.42997 0.1029 0.0
C685 C 0.22473 0.41657 0.11507 0.0
C686 C 0.22216 0.38054 0.07278 0.0
C687 C 0.2099 0.39201 0.10008 0.0
H688 H 0.33812 0.49039 0.08345 0.0
H689 H 0.18907 0.3819 0.10966 0.0
H690 H 0.25197 0.36414 0.02076 0.0
H691 H 0.36206 0.47443 0.03464 0.0
H692 H 0.21486 0.42483 0.13601 0.0
H693 H 0.29341 0.62877 0.15823 0.0
H694 H 0.21062 0.36151 0.06118 0.0
H695 H 0.16927 0.50077 0.20048 0.0
H696 H 0.25932 0.59296 0.13105 0.0
H697 H 0.16637 0.49818 0.25682 0.0
H698 H 0.29884 0.38937 1.0003 0.0
H699 H 0.30103 0.6238 0.21438 0.0
H700 H 0.28579 0.59781 0.26389 0.0
H701 H 0.33971 0.43077 1.00503 0.0
H702 H 0.25116 0.56149 0.29103 0.0
N703 N 0.2493 0.56489 0.17064 0.0
C704 C 0.26295 0.58915 0.15526 0.0
C705 C 0.28622 0.60743 0.20242 0.0
C706 C 0.26996 0.58447 0.21846 0.0
C707 C 0.282 0.61028 0.17076 0.0
C708 C 0.2511 0.56366 0.20174 0.0
H709 H 0.20597 0.52459 0.28863 0.0
N710 N 0.21201 0.52605 0.19982 0.0
C711 C 0.18525 0.51059 0.24594 0.0
C712 C 0.23194 0.54318 0.21689 0.0
C713 C 0.1872 0.51198 0.21389 0.0
C714 C 0.20767 0.52542 0.26379 0.0
C715 C 0.23072 0.543 0.24931 0.0
O716 O 0.17567 0.53836 0.15453 0.0
O717 O 0.23446 0.48768 0.1179 0.0
O718 O 0.28395 0.50606 0.09324 0.0
O719 O 0.25092 0.54442 0.11153 0.0
O720 O 0.19171 0.50443 0.11202 0.0
O721 O 0.20471 0.56195 0.12154 0.0
O722 O 0.32342 0.45934 0.14263 0.0
O723 O 0.2676 0.50551 0.15888 0.0
O724 O 0.20765 0.48042 0.16623 0.0
O725 O 0.25503 0.45686 0.17082 0.0
O726 O 0.31043 0.50475 0.13732 0.0
O727 O 0.28781 0.42488 0.14733 0.0
C728 C 0.21115 0.48576 0.10035 0.0
C729 C 0.1617 0.58923 0.14012 0.0
C730 C 0.1186 0.62369 0.12968 0.0
C731 C 0.13298 0.59489 0.12616 0.0
C732 C 0.13329 0.64654 0.14765 0.0
C733 C 0.17577 0.61217 0.15818 0.0
C734 C 0.16155 0.6407 0.16191 0.0
C735 C 0.2725 0.5344 0.09278 0.0
C736 C 0.1773 0.56 0.13375 0.0
C737 C 0.25132 0.56174 0.26611 0.0
C738 C 0.27097 0.58248 0.25067 0.0
C739 C 0.29411 0.51907 0.15747 0.0
C740 C 0.33916 0.40718 0.14162 0.0
C741 C 0.34609 0.38241 0.16143 0.0
C742 C 0.36858 0.36058 0.15298 0.0
C743 C 0.38379 0.36396 0.12456 0.0
C744 C 0.35492 0.40971 0.11357 0.0
C745 C 0.37678 0.3882 0.10498 0.0
C746 C 0.2261 0.46054 0.17963 0.0
C747 C 0.317 0.43116 0.15104 0.0
H748 H 0.12225 0.5772 0.11194 0.0
H749 H 0.1227 0.66884 0.15102 0.0
H750 H 0.19784 0.60815 0.16906 0.0
H751 H 0.17253 0.65845 0.17577 0.0
H752 H 0.33424 0.38033 0.1833 0.0
H753 H 0.40185 0.34833 0.11766 0.0
H754 H 0.35122 0.42874 0.09853 0.0
H755 H 0.38888 0.39075 0.08333 0.0
Tb756 Tb 0.72676 1.00597 0.8768 0.0
C757 C 0.77569 0.08742 0.97812 0.0
C758 C 0.73703 0.12721 0.9803 0.0
C759 C 0.76459 0.11274 0.02668 0.0
C760 C 0.75344 0.10476 0.96373 0.0
C761 C 0.78199 0.09158 1.00965 0.0
C762 C 0.74224 0.13065 1.01198 0.0
C763 C 0.82433 0.05613 1.00439 0.0
N764 N 0.79221 0.06754 0.96087 0.0
C765 C 0.81744 0.05318 0.97314 0.0
C766 C 0.80622 0.0751 0.02286 0.0
Tb767 Tb 0.7789 0.06392 0.91008 0.0
N768 N 0.74853 0.10025 0.93327 0.0
C769 C 0.72822 0.11862 0.91769 0.0
C770 C 0.71643 0.14601 0.96441 0.0
C771 C 0.71191 0.1416 0.933 0.0
H772 H 0.83168 0.03871 0.95878 0.0
H773 H 0.69588 0.15593 0.92051 0.0
H774 H 0.72948 0.14744 0.0252 0.0
H775 H 0.84369 0.04396 1.01415 0.0
H776 H 0.72387 0.11581 0.89353 0.0
H777 H 0.79352 0.9149 0.82581 0.0
H778 H 0.7043 0.16433 0.97606 0.0
H779 H 0.66796 0.04714 0.84989 0.0
H780 H 0.77395 0.94672 0.86816 0.0
H781 H 0.64065 0.05357 0.80078 0.0
H782 H 0.76882 0.11605 0.05101 0.0
H783 H 0.77253 0.92136 0.77326 0.0
H784 H 0.7341 0.94705 0.73838 0.0
H785 H 0.81174 0.07759 0.04704 0.0
H786 H 0.69191 0.98416 0.73174 0.0
N787 N 0.74462 0.97348 0.83961 0.0
C788 C 0.76558 0.95084 0.8452 0.0
C789 C 0.76439 0.93596 0.79172 0.0
C790 C 0.74128 0.95768 0.78657 0.0
C791 C 0.77633 0.93227 0.82129 0.0
C792 C 0.73173 0.97623 0.81133 0.0
H793 H 0.65673 0.0239 0.75497 0.0
N794 N 0.69965 0.01419 0.83227 0.0
C795 C 0.65962 0.03761 0.80238 0.0
C796 C 0.70801 0.99693 0.80757 0.0
C797 C 0.67515 0.03378 0.8303 0.0
C798 C 0.66878 0.02082 0.77657 0.0
C799 C 0.69313 1.00001 0.77901 0.0
O800 O 0.68362 0.99473 0.89623 0.0
O801 O 0.73572 0.04007 0.91207 0.0
O802 O 0.77726 0.02178 0.94056 0.0
O803 O 0.75843 0.98332 0.90735 0.0
O804 O 0.69189 0.0365 0.89825 0.0
O805 O 0.71601 0.95911 0.88648 0.0
O806 O 0.8229 0.08399 0.91553 0.0
O807 O 0.77385 0.0247 0.87994 0.0
O808 O 0.73818 0.03843 0.84075 0.0
O809 O 0.75484 0.08156 0.86834 0.0
O810 O 0.81747 0.03763 0.89274 0.0
O811 O 0.78998 0.10413 0.88445 0.0
C812 C 0.70941 0.05011 0.91796 0.0
C813 C 0.6624 0.9466 0.8834 0.0
C814 C 0.61311 0.91876 0.89141 0.0
C815 C 0.64036 0.93297 0.90324 0.0
C816 C 0.60889 0.91911 0.85915 0.0
C817 C 0.65789 0.94501 0.85162 0.0
C818 C 0.63129 0.93149 0.83962 0.0
C819 C 0.76968 0.99237 0.93406 0.0
C820 C 0.68824 0.96518 0.896 0.0
C821 C 0.70295 0.98209 0.75399 0.0
C822 C 0.72701 0.961 0.75776 0.0
C823 C 0.80234 0.0185 0.87586 0.0
C824 C 0.84335 0.11466 0.87488 0.0
C825 C 0.85105 0.14616 0.8699 0.0
C826 C 0.87796 0.15483 0.85317 0.0
C827 C 0.89668 0.1308 0.84189 0.0
C828 C 0.86184 0.09177 0.86189 0.0
C829 C 0.88829 0.09987 0.84563 0.0
C830 C 0.74455 0.06808 0.84282 0.0
C831 C 0.81775 0.10615 0.8959 0.0
H832 H 0.64476 0.93383 0.9277 0.0
H833 H 0.58809 0.91039 0.84841 0.0
H834 H 0.67459 0.95479 0.83603 0.0
H835 H 0.6277 0.93114 0.81498 0.0
H836 H 0.83611 0.16357 0.87944 0.0
H837 H 0.91841 0.13538 0.83056 0.0
H838 H 0.85657 0.06755 0.86499 0.0
H839 H 0.90292 0.08199 0.83647 0.0
Tb840 Tb 0.75354 0.97263 0.403 0.0
C841 C 0.84081 0.02808 0.31608 0.0
C842 C 0.87895 0.98764 0.3134 0.0
C843 C 0.86851 0.01875 0.26829 0.0
C844 C 0.85684 1.00443 0.33028 0.0
C845 C 0.84716 0.03595 0.28515 0.0
C846 C 0.88431 0.99463 0.28236 0.0
C847 C 0.81315 0.07926 0.29029 0.0
N848 N 0.81977 0.04402 0.33265 0.0
C849 C 0.80772 0.07076 0.32076 0.0
C850 C 0.83248 0.06141 0.27218 0.0
Tb851 Tb 0.81258 0.02773 0.38247 0.0
N852 N 0.85066 0.99763 0.36027 0.0
C853 C 0.86669 0.97431 0.37448 0.0
C854 C 0.89509 0.96416 0.32807 0.0
C855 C 0.88887 0.95745 0.35867 0.0
H856 H 0.79334 0.08561 0.33454 0.0
H857 H 0.90099 0.93899 0.37013 0.0
H858 H 0.90092 0.98169 0.2691 0.0
H859 H 0.80263 0.09978 0.28091 0.0
H860 H 0.86254 0.96709 0.39769 0.0
H861 H 0.66893 0.04938 0.45077 0.0
H862 H 0.91243 0.95107 0.31597 0.0
H863 H 0.77917 0.90511 0.42662 0.0
H864 H 0.70303 0.02906 0.4107 0.0
H865 H 0.77445 0.87204 0.47274 0.0
H866 H 0.87334 0.02427 0.24445 0.0
H867 H 0.6661 0.02362 0.50157 0.0
H868 H 0.68188 0.9791 0.53533 0.0
H869 H 0.8368 0.06814 0.24855 0.0
H870 H 0.71024 0.93038 0.54113 0.0
N871 N 0.72069 0.99294 0.43856 0.0
C872 C 0.70223 0.01761 0.43262 0.0
C873 C 0.68136 0.01474 0.48403 0.0
C874 C 0.69888 0.98829 0.48931 0.0
C875 C 0.68279 0.02925 0.45538 0.0
C876 C 0.7185 0.97788 0.46578 0.0
H877 H 0.74401 0.88973 0.51746 0.0
N878 N 0.75249 0.94154 0.44549 0.0
C879 C 0.76325 0.89425 0.4721 0.0
C880 C 0.73458 0.95086 0.4692 0.0
C881 C 0.7659 0.91304 0.44605 0.0
C882 C 0.74608 0.90434 0.49731 0.0
C883 C 0.73133 0.9329 0.496 0.0
O884 O 0.74209 0.92956 0.38238 0.0
O885 O 0.78744 0.98683 0.36931 0.0
O886 O 0.77012 0.04068 0.35689 0.0
O887 O 0.73226 1.00421 0.37082 0.0
O888 O 0.78645 0.94137 0.38107 0.0
O889 O 0.70823 0.96476 0.38729 0.0
O890 O 0.81434 0.07594 0.38706 0.0
O891 O 0.76922 0.02083 0.40675 0.0
O892 O 0.78843 0.97083 0.43961 0.0
O893 O 0.83015 0.99956 0.42018 0.0
O894 O 0.80384 0.0428 0.42936 0.0
O895 O 0.85623 0.04828 0.39177 0.0
C896 C 0.79848 0.96103 0.36242 0.0
C897 C 0.69007 0.91272 0.38819 0.0
C898 C 0.66016 0.86539 0.37717 0.0
C899 C 0.6844 0.88627 0.36972 0.0
C900 C 0.64216 0.8711 0.40335 0.0
C901 C 0.67211 0.91726 0.41465 0.0
C902 C 0.64833 0.89662 0.42206 0.0
C903 C 0.74187 0.02848 0.35505 0.0
C904 C 0.71326 0.93641 0.37887 0.0
C905 C 0.71278 0.94365 0.52014 0.0
C906 C 0.69666 0.97139 0.51684 0.0
C907 C 0.77516 0.03561 0.43131 0.0
C908 C 0.86179 0.10444 0.39853 0.0
C909 C 0.89334 0.10409 0.40696 0.0
C910 C 0.909 0.13197 0.41443 0.0
C911 C 0.8928 0.15991 0.41275 0.0
C912 C 0.84642 0.13277 0.39722 0.0
C913 C 0.86185 0.16023 0.40422 0.0
C914 C 0.81747 0.98065 0.44069 0.0
C915 C 0.84395 0.0757 0.39264 0.0
H916 H 0.69822 0.88236 0.34934 0.0
H917 H 0.62352 0.85544 0.40963 0.0
H918 H 0.67605 0.93712 0.42934 0.0
H919 H 0.63443 0.90054 0.44233 0.0
H920 H 0.9054 0.08233 0.40837 0.0
H921 H 0.90422 0.18177 0.4176 0.0
H922 H 0.82226 0.13378 0.39095 0.0
H923 H 0.84973 0.18192 0.40306 0.0
Tb924 Tb 0.3018 0.49193 0.64513 0.0
C925 C 0.24209 0.57688 0.55543 0.0
C926 C 0.28217 0.61609 0.55203 0.0
C927 C 0.24949 0.60546 0.50781 0.0
C928 C 0.26603 0.59318 0.56881 0.0
C929 C 0.23292 0.5834 0.52503 0.0
C930 C 0.27412 0.62175 0.52129 0.0
C931 C 0.18968 0.5485 0.53214 0.0
N932 N 0.22659 0.55593 0.57284 0.0
C933 C 0.19955 0.5431 0.56222 0.0
C934 C 0.20674 0.56837 0.51325 0.0
Tb935 Tb 0.24431 0.54876 0.62196 0.0
N936 N 0.27329 0.5868 0.59842 0.0
C937 C 0.29594 0.60363 0.61304 0.0
C938 C 0.30567 0.63283 0.56672 0.0
C939 C 0.31253 0.6266 0.59739 0.0
H940 H 0.18568 0.52833 0.57696 0.0
H941 H 0.3307 0.63939 0.60901 0.0
H942 H 0.28645 0.63904 0.50792 0.0
H943 H 0.16874 0.53759 0.52367 0.0
H944 H 0.30222 0.5992 0.63652 0.0
H945 H 0.23875 0.3963 0.6955 0.0
H946 H 0.3184 0.6508 0.55471 0.0
H947 H 0.37039 0.51946 0.66486 0.0
H948 H 0.25805 0.429 0.65327 0.0
H949 H 0.40434 0.51917 0.71046 0.0
H950 H 0.243 0.61059 0.48431 0.0
H951 H 0.25935 0.40361 0.74813 0.0
H952 H 0.29992 0.42829 0.78197 0.0
H953 H 0.1989 0.57278 0.49001 0.0
H954 H 0.34667 0.46103 0.78574 0.0
N955 N 0.28519 0.45808 0.68224 0.0
C956 C 0.26563 0.43385 0.67636 0.0
C957 C 0.2669 0.41889 0.72982 0.0
C958 C 0.29022 0.44095 0.73474 0.0
C959 C 0.25525 0.41467 0.70018 0.0
C960 C 0.29904 0.46028 0.7101 0.0
H961 H 0.38686 0.49368 0.75849 0.0
N962 N 0.33384 0.49475 0.68699 0.0
C963 C 0.38189 0.50803 0.71143 0.0
C964 C 0.32495 0.47875 0.71239 0.0
C965 C 0.36258 0.50818 0.68565 0.0
C966 C 0.37191 0.49366 0.73852 0.0
C967 C 0.34328 0.47835 0.7391 0.0
O968 O 0.34345 0.48317 0.6214 0.0
O969 O 0.28658 0.52509 0.6108 0.0
O970 O 0.23474 0.50612 0.59466 0.0
O971 O 0.26772 0.46882 0.61578 0.0
O972 O 0.33224 0.52527 0.62148 0.0
O973 O 0.3123 0.44622 0.63172 0.0
O974 O 0.19836 0.56319 0.62669 0.0
O975 O 0.25499 0.51006 0.6515 0.0
O976 O 0.30395 0.52793 0.68067 0.0
O977 O 0.26984 0.56523 0.66276 0.0
O978 O 0.20936 0.52166 0.64505 0.0
O979 O 0.23543 0.58942 0.64721 0.0
C980 C 0.31225 0.5368 0.60308 0.0
C981 C 0.36599 0.43475 0.63091 0.0
C982 C 0.41493 0.40818 0.62026 0.0
C983 C 0.38887 0.42486 0.60985 0.0
C984 C 0.41743 0.40174 0.6519 0.0
C985 C 0.36929 0.42745 0.66214 0.0
C986 C 0.39486 0.4113 0.67252 0.0
C987 C 0.24537 0.47736 0.59691 0.0
C988 C 0.33932 0.45349 0.62068 0.0
C989 C 0.33324 0.46122 0.76473 0.0
C990 C 0.30658 0.44263 0.7626 0.0
C991 C 0.2271 0.50313 0.65953 0.0
C992 C 0.19077 0.61718 0.63236 0.0
C993 C 0.17904 0.63816 0.65439 0.0
C994 C 0.16265 0.66484 0.645 0.0
C995 C 0.15833 0.66956 0.61318 0.0
C996 C 0.18667 0.62342 0.60103 0.0
C997 C 0.17057 0.64935 0.59159 0.0
C998 C 0.29052 0.55514 0.68274 0.0
C999 C 0.20583 0.58811 0.64201 0.0
H1000 H 0.38656 0.43041 0.58566 0.0
H1001 H 0.43658 0.38857 0.66077 0.0
H1002 H 0.352 0.43408 0.6786 0.0
H1003 H 0.39708 0.4059 0.69673 0.0
H1004 H 0.18268 0.63355 0.6786 0.0
H1005 H 0.14485 0.6886 0.60461 0.0
H1006 H 0.19522 0.60789 0.58373 0.0
H1007 H 0.16705 0.65352 0.56729 0.0
H1008 H 0.23091 0.3078 0.52401 0.0
H1009 H 0.13452 0.30983 0.55015 0.0
H1010 H 0.14101 0.36256 0.56935 0.0
H1011 H 0.25754 0.35102 0.59313 0.0
H1012 H 0.28796 0.37055 0.57224 0.0
H1013 H 0.27535 0.33246 0.56066 0.0
H1014 H 0.26496 0.35318 0.50568 0.0
H1015 H 0.27678 0.3915 0.51727 0.0
H1016 H 0.23916 0.38516 0.50058 0.0
H1017 H 0.15654 0.41861 0.57903 0.0
H1018 H 0.18308 0.46783 0.59246 0.0
H1019 H 0.27083 0.42754 0.5681 0.0
C1020 C 0.21143 0.31897 0.53472 0.0
C1021 C 0.1821 0.30426 0.53523 0.0
C1022 C 0.15715 0.32006 0.54906 0.0
C1023 C 0.16058 0.35043 0.55999 0.0
C1024 C 0.1894 0.36472 0.55778 0.0
C1025 C 0.21471 0.34908 0.5467 0.0
C1026 C 0.24348 0.36935 0.5483 0.0
C1027 C 0.26751 0.35501 0.56987 0.0
C1028 C 0.25688 0.37512 0.51603 0.0
C1029 C 0.23029 0.39884 0.56165 0.0
C1030 C 0.19885 0.39601 0.56607 0.0
C1031 C 0.18126 0.42091 0.57615 0.0
C1032 C 0.19642 0.44897 0.58321 0.0
C1033 C 0.22893 0.45153 0.58127 0.0
C1034 C 0.24591 0.42624 0.56979 0.0
H1035 H 0.82792 0.01327 0.81891 0.0
H1036 H 0.82005 0.96776 0.90707 0.0
H1037 H 0.86771 0.93959 0.89717 0.0
H1038 H 0.86428 0.9453 0.77717 0.0
H1039 H 0.88866 0.97088 0.75493 0.0
H1040 H 0.85096 0.98326 0.76696 0.0
H1041 H 0.87603 0.03152 0.79276 0.0
H1042 H 0.91378 0.01883 0.78145 0.0
H1043 H 0.9056 0.02617 0.8214 0.0
H1044 H 0.92165 0.9241 0.88226 0.0
H1045 H 0.97179 0.91299 0.85779 0.0
H1046 H 0.94462 0.96606 0.77783 0.0
C1047 C 0.83504 0.99571 0.8351 0.0
C1048 C 0.81899 0.99171 0.86322 0.0
C1049 C 0.83063 0.97019 0.88479 0.0
C1050 C 0.85827 0.95446 0.8796 0.0
C1051 C 0.87438 0.96031 0.85252 0.0
C1052 C 0.86271 0.97961 0.8301 0.0
C1053 C 0.88548 0.98303 0.80371 0.0
C1054 C 0.87153 0.96983 0.77391 0.0
C1055 C 0.8958 0.01691 0.79959 0.0
C1056 C 0.91197 0.96337 0.81521 0.0
C1057 C 0.90525 0.95078 0.84362 0.0
C1058 C 0.92689 0.93337 0.85972 0.0
C1059 C 0.95559 0.92754 0.84584 0.0
C1060 C 0.96234 0.93868 0.81593 0.0
C1061 C 0.94026 0.95726 0.80076 0.0
H1062 H 0.29446 0.70231 0.01951 0.0
H1063 H 0.36866 0.71252 0.08575 0.0
H1064 H 0.36009 0.65879 0.10273 0.0
H1065 H 0.24634 0.65433 0.07523 0.0
H1066 H 0.22917 0.63206 0.04449 0.0
H1067 H 0.24048 0.67175 0.03803 0.0
H1068 H 0.27395 0.6542 0.99184 0.0
H1069 H 0.2637 0.61434 0.99888 0.0
H1070 H 0.30372 0.6261 0.99803 0.0
H1071 H 0.35428 0.60119 0.10058 0.0
H1072 H 0.33216 0.54851 0.10376 0.0
H1073 H 0.25283 0.57806 0.05111 0.0
C1074 C 0.30796 0.69362 0.03854 0.0
C1075 C 0.33219 0.71157 0.05136 0.0
C1076 C 0.3499 0.69929 0.07571 0.0
C1077 C 0.34588 0.66856 0.08495 0.0
C1078 C 0.32351 0.65075 0.07023 0.0
C1079 C 0.30332 0.66328 0.04925 0.0
C1080 C 0.27901 0.63957 0.03982 0.0
C1081 C 0.24683 0.65003 0.05 0.0
C1082 C 0.28017 0.63321 1.00507 0.0
C1083 C 0.28956 0.61161 0.05796 0.0
C1084 C 0.31619 0.61839 0.07408 0.0
C1085 C 0.33263 0.59572 0.08942 0.0
C1086 C 0.32008 0.5658 0.09064 0.0
C1087 C 0.29054 0.55937 0.07821 0.0
C1088 C 0.27553 0.58233 0.06074 0.0
H1089 H 0.5724 0.08741 0.33104 0.0
H1090 H 0.57634 0.04668 0.24007 0.0
H1091 H 0.62968 0.03032 0.24996 0.0
H1092 H 0.64776 0.12004 0.3281 0.0
H1093 H 0.65341 0.11455 0.36874 0.0
H1094 H 0.61525 0.11896 0.35392 0.0
H1095 H 0.6013 0.06663 0.38136 0.0
H1096 H 0.64065 0.06249 0.3939 0.0
H1097 H 0.62245 0.0324 0.3714 0.0
H1098 H 0.68389 0.02323 0.26713 0.0
H1099 H 0.73335 0.01747 0.29481 0.0
H1100 H 0.69571 0.06648 0.37286 0.0
C1101 C 0.58396 0.07427 0.31357 0.0
C1102 C 0.57012 0.06843 0.28472 0.0
C1103 C 0.58641 0.0511 0.26249 0.0
C1104 C 0.61687 0.04211 0.26771 0.0
C1105 C 0.63073 0.05061 0.29531 0.0
C1106 C 0.61468 0.06566 0.3182 0.0
C1107 C 0.63561 0.07369 0.345 0.0
C1108 C 0.63817 0.1089 0.34912 0.0
C1109 C 0.62433 0.05784 0.37467 0.0
C1110 C 0.6658 0.06037 0.33373 0.0
C1111 C 0.66248 0.0475 0.30483 0.0
C1112 C 0.68689 0.03333 0.28971 0.0
C1113 C 0.71504 0.03067 0.30528 0.0
C1114 C 0.71841 0.04225 0.33544 0.0
C1115 C 0.69384 0.05812 0.34946 0.0
H1116 H 0.70163 0.20623 0.43903 0.0
H1117 H 0.71595 0.19883 0.53753 0.0
H1118 H 0.73471 0.146 0.53115 0.0
H1119 H 0.67821 0.12937 0.42318 0.0
H1120 H 0.70092 0.12489 0.38867 0.0
H1121 H 0.68846 0.16273 0.40027 0.0
H1122 H 0.74554 0.18137 0.39878 0.0
H1123 H 0.75718 0.14326 0.38713 0.0
H1124 H 0.77403 0.16091 0.42081 0.0
H1125 H 0.74635 0.09243 0.51609 0.0
H1126 H 0.76344 0.04424 0.49127 0.0
H1127 H 0.74732 0.08486 0.40167 0.0
C1128 C 0.71005 0.19395 0.45899 0.0
C1129 C 0.70752 0.207 0.48887 0.0
C1130 C 0.71797 0.18963 0.51443 0.0
C1131 C 0.7283 0.15933 0.51113 0.0
C1132 C 0.72911 0.14652 0.48186 0.0
C1133 C 0.7216 0.1635 0.45601 0.0
C1134 C 0.7266 0.14396 0.42724 0.0
C1135 C 0.69667 0.14005 0.40879 0.0
C1136 C 0.75237 0.15822 0.40731 0.0
C1137 C 0.73656 0.11321 0.44124 0.0
C1138 C 0.73748 0.11538 0.47287 0.0
C1139 C 0.74589 0.09044 0.49129 0.0
C1140 C 0.75515 0.06296 0.47705 0.0
C1141 C 0.75585 0.06035 0.4447 0.0
C1142 C 0.74591 0.08574 0.42651 0.0
H1143 H 0.08204 0.4773 0.76379 0.0
H1144 H 0.06736 0.39062 0.71625 0.0
H1145 H 0.11582 0.39759 0.68855 0.0
H1146 H 0.12102 0.51798 0.70084 0.0
H1147 H 0.14798 0.53739 0.72607 0.0
H1148 H 0.11024 0.52652 0.73993 0.0
H1149 H 0.13558 0.49692 0.78425 0.0
H1150 H 0.17373 0.50604 0.77034 0.0
H1151 H 0.16225 0.46626 0.77618 0.0
H1152 H 0.16509 0.41648 0.66284 0.0
H1153 H 0.21038 0.44452 0.64332 0.0
H1154 H 0.20042 0.51335 0.71418 0.0
C1155 C 0.08864 0.46015 0.74698 0.0
C1156 C 0.06934 0.43401 0.74129 0.0
C1157 C 0.08006 0.41153 0.72019 0.0
C1158 C 0.10821 0.41512 0.70452 0.0
C1159 C 0.12662 0.44086 0.71098 0.0
C1160 C 0.11737 0.46292 0.73185 0.0
C1161 C 0.14213 0.48786 0.73535 0.0
C1162 C 0.12962 0.5193 0.72492 0.0
C1163 C 0.15416 0.48932 0.76853 0.0
C1164 C 0.16686 0.47618 0.71349 0.0
C1165 C 0.1571 0.44931 0.69924 0.0
C1166 C 0.17372 0.43662 0.67501 0.0
C1167 C 0.20026 0.45232 0.66448 0.0
C1168 C 0.2117 0.47943 0.67909 0.0
C1169 C 0.19455 0.49102 0.70439 0.0
H1170 H 0.82181 0.97321 0.96558 0.0
H1171 H 0.72519 0.95209 0.94971 0.0
H1172 H 0.73247 0.89911 0.96874 0.0
H1173 H 0.85129 0.90307 0.94269 0.0
H1174 H 0.88036 0.9002 0.97217 0.0
H1175 H 0.86713 0.93757 0.96015 0.0
H1176 H 0.85243 0.95091 0.01644 0.0
H1177 H 0.86629 0.91374 0.02856 0.0
H1178 H 0.82744 0.92503 0.03765 0.0
H1179 H 0.75249 0.8452 0.98135 0.0
H1180 H 0.78194 0.79867 0.99727 0.0
H1181 H 0.86265 0.8575 1.00998 0.0
C1182 C 0.80196 0.95793 0.96762 0.0
C1183 C 0.77292 0.96677 0.95625 0.0
C1184 C 0.74765 0.94572 0.9584 0.0
C1185 C 0.75157 0.91545 0.96891 0.0
C1186 C 0.78083 0.90663 0.9781 0.0
C1187 C 0.80537 0.92755 0.97864 0.0
C1188 C 0.83445 0.91196 0.98944 0.0
C1189 C 0.85978 0.91329 0.96462 0.0
C1190 C 0.84582 0.92625 0.01984 0.0
C1191 C 0.82246 0.8792 0.99404 0.0
C1192 C 0.79167 0.87624 0.98701 0.0
C1193 C 0.77657 0.84737 0.98765 0.0
C1194 C 0.79341 0.82103 0.99652 0.0
C1195 C 0.82476 0.824 1.00508 0.0
C1196 C 0.83901 0.85368 1.00363 0.0
H1197 H 0.45015 0.59869 0.20364 0.0
H1198 H 0.45681 0.53694 0.28108 0.0
H1199 H 0.40466 0.51553 0.26887 0.0
H1200 H 0.36806 0.61618 0.21292 0.0
H1201 H 0.3651 0.62038 0.17181 0.0
H1202 H 0.40128 0.62792 0.19127 0.0
H1203 H 0.42535 0.5846 0.15168 0.0
H1204 H 0.38704 0.57977 0.1363 0.0
H1205 H 0.40719 0.54712 0.15164 0.0
H1206 H 0.34915 0.50234 0.24725 0.0
H1207 H 0.30189 0.4947 0.21552 0.0
H1208 H 0.33247 0.56811 0.15497 0.0
C1209 C 0.4412 0.57987 0.21723 0.0
C1210 C 0.4583 0.56843 0.24228 0.0
C1211 C 0.44485 0.54493 0.26076 0.0
C1212 C 0.41492 0.53314 0.25433 0.0
C1213 C 0.39835 0.54568 0.22976 0.0
C1214 C 0.41135 0.56845 0.21146 0.0
C1215 C 0.38924 0.57867 0.18666 0.0
C1216 C 0.38045 0.6128 0.1908 0.0
C1217 C 0.40298 0.57224 0.15468 0.0
C1218 C 0.3618 0.55784 0.19325 0.0
C1219 C 0.36702 0.53913 0.21842 0.0
C1220 C 0.34486 0.51726 0.22778 0.0
C1221 C 0.31768 0.51348 0.21002 0.0
C1222 C 0.31284 0.53155 0.18328 0.0
C1223 C 0.33488 0.55461 0.17572 0.0
H1224 H 0.53693 0.22489 0.31591 0.0
H1225 H 0.542 0.12683 0.33256 0.0
H1226 H 0.56669 0.13604 0.38238 0.0
H1227 H 0.61023 0.24542 0.35675 0.0
H1228 H 0.59475 0.28069 0.37208 0.0
H1229 H 0.58103 0.26585 0.33575 0.0
H1230 H 0.52506 0.26648 0.35669 0.0
H1231 H 0.53868 0.2806 0.39331 0.0
H1232 H 0.51585 0.24554 0.39144 0.0
H1233 H 0.59442 0.15618 0.42901 0.0
H1234 H 0.62065 0.18601 0.46938 0.0
H1235 H 0.58686 0.2708 0.43118 0.0
C1236 C 0.54431 0.20545 0.32965 0.0
C1237 C 0.53962 0.17477 0.31902 0.0
C1238 C 0.54795 0.15012 0.33859 0.0
C1239 C 0.56125 0.1553 0.36752 0.0
C1240 C 0.56558 0.18559 0.37732 0.0
C1241 C 0.5574 0.21035 0.35907 0.0
C1242 C 0.56361 0.24057 0.37598 0.0
C1243 C 0.5889 0.25926 0.35916 0.0
C1244 C 0.53401 0.2594 0.37956 0.0
C1245 C 0.57509 0.22876 0.40698 0.0
C1246 C 0.57686 0.19696 0.40676 0.0
C1247 C 0.59125 0.18091 0.43046 0.0
C1248 C 0.60485 0.19785 0.45455 0.0
C1249 C 0.602 0.23024 0.45661 0.0
C1250 C 0.5866 0.24578 0.43224 0.0
H1251 H 0.07058 0.31221 0.55876 0.0
H1252 H 0.09311 0.22087 0.59382 0.0
H1253 H 0.08127 0.2372 0.6456 0.0
H1254 H 0.09477 0.35782 0.62263 0.0
H1255 H 0.06155 0.38247 0.62334 0.0
H1256 H 0.07363 0.36516 0.5877 0.0
H1257 H 0.0192 0.34063 0.58047 0.0
H1258 H 1.00694 0.35835 0.61585 0.0
H1259 H 1.00292 0.31717 0.6108 0.0
H1260 H 0.07163 0.26353 0.6951 0.0
H1261 H 0.05237 0.29605 0.73772 0.0
H1262 H 0.02696 0.3659 0.67091 0.0
C1263 C 0.07254 0.29553 0.57716 0.0
C1264 C 0.08381 0.26548 0.57163 0.0
C1265 C 0.08541 0.24435 0.59677 0.0
C1266 C 0.07881 0.2533 0.62673 0.0
C1267 C 0.06899 0.28311 0.63158 0.0
C1268 C 0.06448 0.30359 0.60752 0.0
C1269 C 0.05038 0.33315 0.6194 0.0
C1270 C 0.07135 0.3613 0.61287 0.0
C1271 C 0.01794 0.33758 0.60583 0.0
C1272 C 0.04888 0.32601 0.6536 0.0
C1273 C 0.06031 0.2973 0.66021 0.0
C1274 C 0.06224 0.28609 0.69032 0.0
C1275 C 0.05153 0.30472 0.71442 0.0
C1276 C 0.03861 0.33379 0.70802 0.0
C1277 C 0.03719 0.34422 0.67708 0.0
H1278 H 0.9699 0.80627 0.81787 0.0
H1279 H 0.02578 0.87879 0.85886 0.0
H1280 H 1.00982 0.86285 0.91006 0.0
H1281 H 0.90561 0.82282 0.86994 0.0
H1282 H 0.89226 0.7835 0.87499 0.0
H1283 H 0.91 0.79472 0.83965 0.0
H1284 H 0.95177 0.75411 0.84248 0.0
H1285 H 0.93372 0.73942 0.87694 0.0
H1286 H 0.97405 0.75007 0.87725 0.0
H1287 H 0.99484 0.83053 0.9585 0.0
H1288 H 0.96453 0.80187 0.99792 0.0
H1289 H 0.90507 0.76608 0.92609 0.0
C1290 C 0.97783 0.8196 0.83741 0.0
C1291 C 0.99959 0.84396 0.83364 0.0
C1292 C 1.00979 0.8599 0.86046 0.0
C1293 C 1.00088 0.85085 0.89005 0.0
C1294 C 0.98027 0.82639 0.89302 0.0
C1295 C 0.9673 0.81226 0.8674 0.0
C1296 C 0.94252 0.78932 0.87737 0.0
C1297 C 0.91073 0.79824 0.86478 0.0
C1298 C 0.95103 0.75626 0.86794 0.0
C1299 C 0.94382 0.79314 0.91206 0.0
C1300 C 0.96686 0.81324 0.92084 0.0
C1301 C 0.97497 0.81669 0.95186 0.0
C1302 C 0.95705 0.8012 0.97438 0.0
C1303 C 0.92951 0.78557 0.96603 0.0
C1304 C 0.92438 0.77994 0.93411 0.0
H1305 H 0.46879 0.63845 0.17951 0.0
H1306 H 0.50863 0.71599 0.22862 0.0
H1307 H 0.49486 0.75025 0.18442 0.0
H1308 H 0.49827 0.66068 0.10784 0.0
H1309 H 0.46611 0.64428 0.08724 0.0
H1310 H 0.477 0.62828 0.12362 0.0
H1311 H 0.42192 0.63695 0.14424 0.0
H1312 H 0.4115 0.65113 0.10723 0.0
H1313 H 0.40446 0.67443 0.14114 0.0
H1314 H 0.47967 0.77422 0.12952 0.0
H1315 H 0.45567 0.78685 0.07941 0.0
H1316 H 0.42251 0.69279 0.07141 0.0
C1317 C 0.47303 0.66289 0.18213 0.0
C1318 C 0.48857 0.67451 0.2084 0.0
C1319 C 0.49579 0.70654 0.20936 0.0
C1320 C 0.48848 0.72601 0.184 0.0
C1321 C 0.47428 0.71302 0.1578 0.0
C1322 C 0.4661 0.68216 0.15738 0.0
C1323 C 0.45285 0.6725 0.1266 0.0
C1324 C 0.47489 0.65014 0.11039 0.0
C1325 C 0.42063 0.65805 0.13008 0.0
C1326 C 0.45198 0.70317 0.11007 0.0
C1327 C 0.46587 0.72615 0.12761 0.0
C1328 C 0.46866 0.75618 0.11605 0.0
C1329 C 0.45534 0.76305 0.08713 0.0
C1330 C 0.43806 0.7405 0.07041 0.0
C1331 C 0.43707 0.71009 0.08215 0.0
H1332 H 0.22289 0.39086 0.34972 0.0
H1333 H 0.12733 0.36483 0.33422 0.0
H1334 H 0.1319 0.38208 0.27995 0.0
H1335 H 0.22275 0.45892 0.30631 0.0
H1336 H 0.2612 0.45475 0.29124 0.0
H1337 H 0.25117 0.43767 0.32769 0.0
H1338 H 0.2683 0.38396 0.30783 0.0
H1339 H 0.27859 0.40103 0.27137 0.0
H1340 H 0.25188 0.36882 0.27275 0.0
H1341 H 0.14528 0.40888 0.22955 0.0
H1342 H 0.16786 0.43701 0.18526 0.0
H1343 H 0.25558 0.44334 0.23282 0.0
C1344 C 0.20318 0.38796 0.33462 0.0
C1345 C 0.17479 0.3762 0.34608 0.0
C1346 C 0.1494 0.3732 0.32579 0.0
C1347 C 0.15175 0.38324 0.29503 0.0
C1348 C 0.17979 0.3958 0.28482 0.0
C1349 C 0.20524 0.39761 0.30388 0.0
C1350 C 0.23245 0.41289 0.28768 0.0
C1351 C 0.24247 0.44282 0.30422 0.0
C1352 C 0.25941 0.39033 0.28473 0.0
C1353 C 0.21831 0.41981 0.25658 0.0
C1354 C 0.18781 0.41003 0.25548 0.0
C1355 C 0.1693 0.41594 0.22996 0.0
C1356 C 0.1823 0.43197 0.20493 0.0
C1357 C 0.2136 0.4417 0.20535 0.0
C1358 C 0.23184 0.43533 0.2315 0.0
H1359 H 0.85224 0.90802 0.60568 0.0
H1360 H 0.94785 0.93698 0.59475 0.0
H1361 H 0.93451 0.96178 0.54522 0.0
H1362 H 0.84189 0.88653 0.52816 0.0
H1363 H 0.80233 0.89836 0.52646 0.0
H1364 H 0.81848 0.88619 0.56246 0.0
H1365 H 0.80321 0.93816 0.58759 0.0
H1366 H 0.78645 0.95037 0.55173 0.0
H1367 H 0.81563 0.97398 0.5701 0.0
H1368 H 0.91082 0.98052 0.49501 0.0
H1369 H 0.87908 0.9931 0.44978 0.0
H1370 H 0.79959 0.94966 0.4934 0.0
C1371 C 0.87051 0.91962 0.59303 0.0
C1372 C 0.90123 0.92025 0.60417 0.0
C1373 C 0.92412 0.93631 0.58697 0.0
C1374 C 0.91678 0.95029 0.55868 0.0
C1375 C 0.88647 0.94808 0.54794 0.0
C1376 C 0.8637 0.93332 0.56477 0.0
C1377 C 0.83332 0.93246 0.54757 0.0
C1378 C 0.82344 0.8989 0.54077 0.0
C1379 C 0.80817 0.94978 0.56531 0.0
C1380 C 0.84233 0.94937 0.51842 0.0
C1381 C 0.87309 0.95817 0.51901 0.0
C1382 C 0.88671 0.9738 0.49442 0.0
C1383 C 0.86839 0.98079 0.46875 0.0
C1384 C 0.83671 0.97212 0.46768 0.0
C1385 C 0.82369 0.95623 0.49305 0.0
H1386 H 0.33344 0.54603 0.72912 0.0
H1387 H 0.26687 0.61247 0.69656 0.0
H1388 H 0.28141 0.64752 0.73899 0.0
H1389 H 0.32398 0.55924 0.81035 0.0
H1390 H 0.3645 0.55522 0.81863 0.0
H1391 H 0.34754 0.53504 0.78647 0.0
H1392 H 0.38821 0.56061 0.75027 0.0
H1393 H 0.4049 0.58092 0.78238 0.0
H1394 H 0.39184 0.60206 0.74919 0.0
H1395 H 0.30483 0.67647 0.78538 0.0
H1396 H 0.33635 0.69682 0.82851 0.0
H1397 H 0.38726 0.61102 0.83035 0.0
C1398 C 0.32195 0.56786 0.73065 0.0
C1399 C 0.29904 0.57614 0.70902 0.0
C1400 C 0.28449 0.6052 0.71254 0.0
C1401 C 0.29261 0.62541 0.73672 0.0
C1402 C 0.31548 0.61652 0.7574 0.0
C1403 C 0.33003 0.58843 0.75444 0.0
C1404 C 0.35463 0.58468 0.77896 0.0
C1405 C 0.34722 0.5569 0.79984 0.0
C1406 C 0.38679 0.58191 0.76432 0.0
C1407 C 0.35166 0.61495 0.79625 0.0
C1408 C 0.32892 0.63306 0.7836 0.0
C1409 C 0.32267 0.66237 0.79542 0.0
C1410 C 0.34061 0.67369 0.82018 0.0
C1411 C 0.36476 0.65587 0.83297 0.0
C1412 C 0.36956 0.62576 0.82101 0.0
H1413 H 0.60291 0.12862 0.04631 0.0
H1414 H 0.6564 0.08073 0.11527 0.0
H1415 H 0.68623 0.05509 0.07402 0.0
H1416 H 0.60146 0.06315 0.98939 0.0
H1417 H 0.60343 0.08963 0.9574 0.0
H1418 H 0.58457 0.10089 0.99254 0.0
H1419 H 0.61884 0.14876 0.99321 0.0
H1420 H 0.64232 0.13767 0.96096 0.0
H1421 H 0.65971 0.14524 0.99806 0.0
H1422 H 0.71301 0.03845 0.02508 0.0
H1423 H 0.73153 0.02795 0.97283 0.0
H1424 H 0.66052 0.08646 0.93498 0.0
C1425 C 0.62029 0.11199 0.05265 0.0
C1426 C 0.62726 0.10642 0.08395 0.0
C1427 C 0.65043 0.08492 0.09145 0.0
C1428 C 0.6676 0.07047 0.06816 0.0
C1429 C 0.66086 0.07732 0.03749 0.0
C1430 C 0.63717 0.09692 0.02971 0.0
C1431 C 0.63503 0.10101 0.9951 0.0
C1432 C 0.60429 0.08788 0.98289 0.0
C1433 C 0.63927 0.13517 0.98622 0.0
C1434 C 0.66192 0.08154 0.98453 0.0
C1435 C 0.67638 0.06795 1.00939 0.0
C1436 C 0.70176 0.04893 1.00552 0.0
C1437 C 0.7124 0.04335 0.97557 0.0
C1438 C 0.69816 0.05709 0.94965 0.0
C1439 C 0.67221 0.07603 0.95432 0.0
H1440 H 0.66474 0.19672 0.73848 0.0
H1441 H 0.69072 0.14225 0.65914 0.0
H1442 H 0.72036 0.10742 0.69305 0.0
H1443 H 0.73918 0.18802 0.78036 0.0
H1444 H 0.72033 0.18646 0.81728 0.0
H1445 H 0.7037 0.2085 0.78634 0.0
H1446 H 0.65244 0.17758 0.79222 0.0
H1447 H 0.66897 0.1554 0.82299 0.0
H1448 H 0.65292 0.13598 0.78986 0.0
H1449 H 0.74096 0.07487 0.73619 0.0
H1450 H 0.75575 0.04951 0.78465 0.0
H1451 H 0.71886 0.12625 0.83656 0.0
C1452 C 0.67719 0.17779 0.7282 0.0
C1453 C 0.67543 0.17218 0.69613 0.0
C1454 C 0.692 0.14718 0.68353 0.0
C1455 C 0.70874 0.12719 0.70267 0.0
C1456 C 0.7092 0.13287 0.7343 0.0
C1457 C 0.69436 0.15791 0.74692 0.0
C1458 C 0.69784 0.15839 0.78171 0.0
C1459 C 0.71636 0.18705 0.79204 0.0
C1460 C 0.66616 0.15673 0.79762 0.0
C1461 C 0.71604 0.12908 0.78689 0.0
C1462 C 0.72233 0.11477 0.75915 0.0
C1463 C 0.73686 0.08628 0.75793 0.0
C1464 C 0.74517 0.07206 0.78563 0.0
C1465 C 0.7392 0.08624 0.81438 0.0
C1466 C 0.72469 0.11535 0.81496 0.0
H1467 H 0.15668 0.46662 0.07584 0.0
H1468 H 0.25234 0.481 0.05194 0.0
H1469 H 0.24248 0.45998 1.00008 0.0
H1470 H 0.13545 0.40125 0.02835 0.0
H1471 H 0.09958 0.41775 0.01573 0.0
H1472 H 0.11536 0.42803 0.05276 0.0
H1473 H 0.11419 0.486 0.03811 0.0
H1474 H 0.09809 0.47605 1.00119 0.0
H1475 H 0.1331 0.49882 1.0034 0.0
H1476 H 0.22141 0.43765 0.95036 0.0
H1477 H 0.19057 0.42829 0.90342 0.0
H1478 H 0.10635 0.43811 0.95595 0.0
C1479 C 0.17577 0.46422 0.05999 0.0
C1480 C 0.20628 0.47188 0.06926 0.0
C1481 C 0.22981 0.4717 0.04678 0.0
C1482 C 0.2241 0.46045 0.01691 0.0
C1483 C 0.19402 0.4517 1.009 0.0
C1484 C 0.17 0.45483 0.02954 0.0
C1485 C 0.13908 0.44959 1.0137 0.0
C1486 C 0.12132 0.42253 0.02852 0.0
C1487 C 0.11999 0.47937 1.01412 0.0
C1488 C 0.14942 0.44174 0.98122 0.0
C1489 C 0.18129 0.44268 0.97926 0.0
C1490 C 0.19648 0.43691 0.95166 0.0
C1491 C 0.17876 0.43131 0.92516 0.0
C1492 C 0.14609 0.43185 0.92606 0.0
C1493 C 0.13123 0.4366 0.95468 0.0
H1494 H 0.82987 0.90966 0.34508 0.0
H1495 H 0.78433 0.99019 0.30821 0.0
H1496 H 0.79703 0.97333 0.25533 0.0
H1497 H 0.89245 0.90614 0.28998 0.0
H1498 H 0.89155 0.86459 0.28982 0.0
H1499 H 0.87915 0.88525 0.32348 0.0
H1500 H 0.82697 0.85415 0.31971 0.0
H1501 H 0.83955 0.83564 0.28483 0.0
H1502 H 0.80417 0.85711 0.28516 0.0
H1503 H 0.8153 0.9471 0.20602 0.0
H1504 H 0.84084 0.91612 0.16546 0.0
H1505 H 0.874 0.85293 0.23489 0.0
C1506 C 0.8227 0.92375 0.32582 0.0
C1507 C 0.80684 0.95161 0.3307 0.0
C1508 C 0.79719 0.96915 0.30497 0.0
C1509 C 0.8041 0.95961 0.27486 0.0
C1510 C 0.82007 0.93209 0.27082 0.0
C1511 C 0.8293 0.91448 0.29565 0.0
C1512 C 0.84617 0.88588 0.28522 0.0
C1513 C 0.87928 0.88547 0.29792 0.0
C1514 C 0.82814 0.85646 0.29428 0.0
C1515 C 0.84588 0.89053 0.2507 0.0
C1516 C 0.83025 0.91703 0.24272 0.0
C1517 C 0.82742 0.92623 0.21205 0.0
C1518 C 0.84172 0.90841 0.18915 0.0
C1519 C 0.85892 0.882 0.19711 0.0
C1520 C 0.86052 0.87276 0.22821 0.0
H1521 H 0.36301 0.57077 0.58642 0.0
H1522 H 0.28371 0.52303 0.54772 0.0
H1523 H 0.30144 0.53709 0.49519 0.0
H1524 H 0.36638 0.63443 0.53168 0.0
H1525 H 0.40787 0.63531 0.5324 0.0
H1526 H 0.38675 0.62183 0.56555 0.0
H1527 H 0.41855 0.57088 0.56257 0.0
H1528 H 0.43786 0.58434 0.52831 0.0
H1529 H 0.417 0.54808 0.52789 0.0
H1530 H 0.32965 0.55624 0.44586 0.0
H1531 H 0.36206 0.58231 0.40623 0.0
H1532 H 0.42228 0.61768 0.4778 0.0
C1533 C 0.34926 0.56346 0.56686 0.0
C1534 C 0.32153 0.54646 0.57128 0.0
C1535 C 0.30459 0.53674 0.54502 0.0
C1536 C 0.31467 0.54444 0.51505 0.0
C1537 C 0.3421 0.56143 0.51154 0.0
C1538 C 0.359 0.57095 0.53688 0.0
C1539 C 0.38762 0.58899 0.52718 0.0
C1540 C 0.3871 0.62209 0.54 0.0
C1541 C 0.417 0.57206 0.53709 0.0
C1542 C 0.38409 0.58874 0.49244 0.0
C1543 C 0.35797 0.57233 0.4837 0.0
C1544 C 0.35013 0.56907 0.45262 0.0
C1545 C 0.36885 0.58368 0.43017 0.0
C1546 C 0.39493 0.60173 0.43879 0.0
C1547 C 0.40273 0.60373 0.4704 0.0
H1548 H 0.24776 0.23334 0.47503 0.0
H1549 H 0.1845 0.19455 0.40788 0.0
H1550 H 0.22885 0.17458 0.37795 0.0
H1551 H 0.30672 0.25709 0.41808 0.0
H1552 H 0.33802 0.24917 0.44411 0.0
H1553 H 0.30128 0.26131 0.45896 0.0
H1554 H 0.29821 0.21225 0.49343 0.0
H1555 H 0.3351 0.2005 0.47894 0.0
H1556 H 0.30233 0.17474 0.47582 0.0
H1557 H 0.28114 0.15462 0.35849 0.0
H1558 H 0.33529 0.13844 0.35075 0.0
H1559 H 0.36333 0.19504 0.42847 0.0
C1560 C 0.24334 0.22112 0.45369 0.0
C1561 C 0.21292 0.21566 0.44343 0.0
C1562 C 0.20779 0.1994 0.41566 0.0
C1563 C 0.23281 0.18787 0.39869 0.0
C1564 C 0.2627 0.1935 0.40954 0.0
C1565 C 0.26795 0.21024 0.43618 0.0
C1566 C 0.30201 0.21328 0.44312 0.0
C1567 C 0.31263 0.24723 0.44094 0.0
C1568 C 0.30983 0.19936 0.47471 0.0
C1569 C 0.31519 0.19434 0.41715 0.0
C1570 C 0.29234 0.18322 0.3978 0.0
C1571 C 0.29922 0.16361 0.37327 0.0
C1572 C 0.3301 0.15467 0.36893 0.0
C1573 C 0.35367 0.16522 0.38913 0.0
C1574 C 0.34593 0.18612 0.41284 0.0
H1575 H 0.13408 0.0309 0.60982 0.0
H1576 H 0.08939 0.10785 0.65452 0.0
H1577 H 0.06185 0.07113 0.68915 0.0
H1578 H 0.06794 0.97694 0.61434 0.0
H1579 H 0.09242 0.94415 0.62065 0.0
H1580 H 0.10633 0.97658 0.59842 0.0
H1581 H 0.15331 0.98115 0.63454 0.0
H1582 H 0.13941 0.94981 0.6582 0.0
H1583 H 0.14744 0.98716 0.67507 0.0
H1584 H 0.04183 0.02483 0.72142 0.0
H1585 H 0.02858 0.9742 0.745 0.0
H1586 H 0.08692 0.92822 0.67882 0.0
C1587 C 0.1181 0.04004 0.62657 0.0
C1588 C 0.1139 0.07231 0.62944 0.0
C1589 C 0.09274 0.08326 0.65164 0.0
C1590 C 0.0772 0.06254 0.67158 0.0
C1591 C 0.08275 0.03088 0.66877 0.0
C1592 C 0.10232 0.01974 0.64638 0.0
C1593 C 0.10479 0.98487 0.64809 0.0
C1594 C 0.09211 0.96974 0.61862 0.0
C1595 C 0.13822 0.97516 0.65436 0.0
C1596 C 0.08412 0.97793 0.67536 0.0
C1597 C 0.07148 1.0047 0.68702 0.0
C1598 C 0.05162 1.00384 0.7123 0.0
C1599 C 0.04438 0.97498 0.72571 0.0
C1600 C 0.05735 0.94735 0.71419 0.0
C1601 C 0.07711 0.949 0.68842 0.0
H1602 H 0.17417 0.82187 0.93784 0.0
H1603 H 0.2084 0.88441 0.86753 0.0
H1604 H 0.2621 0.86952 0.88037 0.0
H1605 H 0.22774 0.83876 0.9922 0.0
H1606 H 0.2338 0.80054 1.00756 0.0
H1607 H 0.1973 0.81028 0.99049 0.0
H1608 H 0.19942 0.7669 0.95062 0.0
H1609 H 0.23443 0.75381 0.9685 0.0
H1610 H 0.23373 0.76193 0.92784 0.0
H1611 H 0.31276 0.84832 0.90313 0.0
H1612 H 0.35444 0.82205 0.9319 0.0
H1613 H 0.28629 0.77705 0.98967 0.0
C1614 C 0.19292 0.83204 0.92469 0.0
C1615 C 0.18702 0.85438 0.90165 0.0
C1616 C 0.21226 0.86703 0.885 0.0
C1617 C 0.24285 0.85888 0.89237 0.0
C1618 C 0.24781 0.83786 0.91629 0.0
C1619 C 0.22338 0.82427 0.93179 0.0
C1620 C 0.23452 0.80314 0.95721 0.0
C1621 C 0.22268 0.81379 0.98876 0.0
C1622 C 0.22496 0.76944 0.95065 0.0
C1623 C 0.26911 0.80756 0.95438 0.0
C1624 C 0.27646 0.82727 0.93034 0.0
C1625 C 0.30713 0.83333 0.9223 0.0
C1626 C 0.33069 0.81871 0.93902 0.0
C1627 C 0.3236 0.79913 0.96419 0.0
C1628 C 0.29236 0.79318 0.97153 0.0
H1629 H 0.48776 0.04639 0.22722 0.0
H1630 H 0.4483 0.11033 0.16158 0.0
H1631 H 0.42892 0.06665 0.1306 0.0
H1632 H 0.51138 0.99002 0.17049 0.0
H1633 H 0.50216 0.95656 0.19355 0.0
H1634 H 0.51306 0.99243 0.21188 0.0
H1635 H 0.46188 0.9923 0.24305 0.0
H1636 H 0.45288 0.95551 0.22586 0.0
H1637 H 0.42581 0.9864 0.22256 0.0
H1638 H 0.41475 0.01683 0.10545 0.0
H1639 H 0.40016 0.96305 0.09183 0.0
H1640 H 0.44655 0.93013 0.17357 0.0
C1641 C 0.47449 0.05107 0.20666 0.0
C1642 C 0.46918 0.08192 0.19697 0.0
C1643 C 0.45244 0.087 0.16952 0.0
C1644 C 0.44144 0.06232 0.15167 0.0
C1645 C 0.44741 0.03233 0.16133 0.0
C1646 C 0.46309 0.02641 0.1884 0.0
C1647 C 0.46619 0.99164 0.19303 0.0
C1648 C 0.50023 0.98212 0.19218 0.0
C1649 C 0.45075 0.98091 0.22298 0.0
C1650 C 0.44883 0.97933 0.16509 0.0
C1651 C 0.43893 1.00326 0.14672 0.0
C1652 C 0.42231 0.99786 0.11969 0.0
C1653 C 0.41436 0.96726 0.11194 0.0
C1654 C 0.42251 0.94252 0.13142 0.0
C1655 C 0.44049 0.94865 0.15802 0.0
H1656 H 0.84217 0.32378 0.64383 0.0
H1657 H 0.80805 0.41721 0.65241 0.0
H1658 H 0.76425 0.40404 0.61875 0.0
H1659 H 0.81956 0.31709 0.5591 0.0
H1660 H 0.80976 0.27664 0.5626 0.0
H1661 H 0.83974 0.29328 0.58639 0.0
H1662 H 0.81111 0.2734 0.6349 0.0
H1663 H 0.78084 0.25723 0.61128 0.0
H1664 H 0.77162 0.28438 0.64122 0.0
H1665 H 0.71686 0.3759 0.5991 0.0
H1666 H 0.67873 0.34151 0.57381 0.0
H1667 H 0.74823 0.27235 0.56122 0.0
C1668 C 0.82641 0.34187 0.63729 0.0
C1669 C 0.82873 0.37171 0.65093 0.0
C1670 C 0.80699 0.39437 0.64221 0.0
C1671 C 0.78171 0.38698 0.62342 0.0
C1672 C 0.77898 0.35711 0.61193 0.0
C1673 C 0.80152 0.33531 0.61696 0.0
C1674 C 0.7929 0.30531 0.60033 0.0
C1675 C 0.81693 0.29763 0.57563 0.0
C1676 C 0.78889 0.27851 0.62331 0.0
C1677 C 0.76203 0.31379 0.58581 0.0
C1678 C 0.75392 0.34333 0.59417 0.0
C1679 C 0.72401 0.35398 0.58966 0.0
C1680 C 0.7026 0.33481 0.57429 0.0
C1681 C 0.71165 0.3066 0.56094 0.0
C1682 C 0.74153 0.29534 0.56818 0.0
H1683 H 0.95355 0.49219 0.79947 0.0
H1684 H 1.00311 0.44944 0.87465 0.0
H1685 H 0.9891 0.49273 0.90851 0.0
H1686 H 0.97303 0.57042 0.81698 0.0
H1687 H 0.9357 0.58551 0.8072 0.0
H1688 H 0.94941 0.55111 0.78857 0.0
H1689 H 0.90007 0.5215 0.80633 0.0
H1690 H 0.88626 0.55568 0.82458 0.0
H1691 H 0.89012 0.52043 0.84635 0.0
H1692 H 0.96691 0.5402 0.93542 0.0
H1693 H 0.93791 0.58639 0.95208 0.0
H1694 H 0.90525 0.5987 0.85864 0.0
C1695 C 0.96095 0.4915 0.82311 0.0
C1696 C 0.97894 0.46684 0.8343 0.0
C1697 C 0.98915 0.46781 0.86533 0.0
C1698 C 0.98132 0.49239 0.88486 0.0
C1699 C 0.96339 0.51616 0.87312 0.0
C1700 C 0.95326 0.51585 0.84295 0.0
C1701 C 0.93401 0.54406 0.83608 0.0
C1702 C 0.94894 0.56395 0.8107 0.0
C1703 C 0.90066 0.53486 0.82788 0.0
C1704 C 0.93499 0.56025 0.8669 0.0
C1705 C 0.95182 0.54382 0.88815 0.0
C1706 C 0.95389 0.55336 0.91881 0.0
C1707 C 0.93748 0.57975 0.92807 0.0
C1708 C 0.9191 0.59617 0.90677 0.0
C1709 C 0.91885 0.58662 0.87563 0.0
H1710 H 0.79778 0.72661 0.05497 0.0
H1711 H 0.85562 0.72202 0.13648 0.0
H1712 H 0.81085 0.70712 0.16746 0.0
H1713 H 0.72677 0.75211 0.0933 0.0
H1714 H 0.70147 0.72745 0.07102 0.0
H1715 H 0.73722 0.74138 0.05464 0.0
H1716 H 0.75123 0.68632 0.04294 0.0
H1717 H 0.7173 0.67035 0.0607 0.0
H1718 H 0.75475 0.6579 0.07336 0.0
H1719 H 0.76034 0.69251 0.19096 0.0
H1720 H 0.70896 0.67002 0.20303 0.0
H1721 H 0.68354 0.67689 0.10689 0.0
C1722 C 0.80111 0.72202 0.07919 0.0
C1723 C 0.83078 0.72544 0.09297 0.0
C1724 C 0.83353 0.7197 0.12502 0.0
C1725 C 0.80806 0.71128 0.14307 0.0
C1726 C 0.77946 0.70783 0.12901 0.0
C1727 C 0.77576 0.71231 0.0977 0.0
C1728 C 0.74255 0.70442 0.08855 0.0
C1729 C 0.72603 0.73306 0.07615 0.0
C1730 C 0.74145 0.67806 0.06503 0.0
C1731 C 0.7289 0.69419 0.11928 0.0
C1732 C 0.75038 0.69739 0.14247 0.0
C1733 C 0.74332 0.68974 0.17293 0.0
C1734 C 0.71396 0.67723 0.17968 0.0
C1735 C 0.69216 0.67177 0.15603 0.0
C1736 C 0.69966 0.68102 0.12552 0.0
H1737 H 0.59165 0.42909 0.34666 0.0
H1738 H 0.62192 0.4594 0.43678 0.0
H1739 H 0.60256 0.51184 0.42576 0.0
H1740 H 0.61039 0.49272 0.30574 0.0
H1741 H 0.5766 0.49505 0.28124 0.0
H1742 H 0.58824 0.4585 0.29682 0.0
H1743 H 0.53541 0.45002 0.32186 0.0
H1744 H 0.52258 0.48586 0.30528 0.0
H1745 H 0.51948 0.47957 0.34617 0.0
H1746 H 0.58685 0.56204 0.40268 0.0
H1747 H 0.56844 0.60618 0.37264 0.0
H1748 H 0.54388 0.54476 0.29736 0.0
C1749 C 0.593 0.44651 0.36451 0.0
C1750 C 0.60788 0.43997 0.3929 0.0
C1751 C 0.61005 0.46361 0.41528 0.0
C1752 C 0.59936 0.49357 0.40903 0.0
C1753 C 0.58583 0.49955 0.38048 0.0
C1754 C 0.58153 0.47647 0.35897 0.0
C1755 C 0.56646 0.48944 0.33 0.0
C1756 C 0.58667 0.48363 0.30172 0.0
C1757 C 0.53405 0.47538 0.32557 0.0
C1758 C 0.56472 0.52384 0.33782 0.0
C1759 C 0.57591 0.52881 0.36725 0.0
C1760 C 0.57761 0.55832 0.37984 0.0
C1761 C 0.5671 0.58337 0.36244 0.0
C1762 C 0.5547 0.57934 0.33251 0.0
C1763 C 0.55347 0.54889 0.32 0.0
H1764 H 0.38245 0.30148 0.13646 0.0
H1765 H 0.37653 0.36176 0.21599 0.0
H1766 H 0.39998 0.32105 0.24817 0.0
H1767 H 0.37014 0.22792 0.17617 0.0
H1768 H 0.39777 0.20834 0.15236 0.0
H1769 H 0.37641 0.24036 0.13707 0.0
H1770 H 0.42789 0.26814 0.12269 0.0
H1771 H 0.4493 0.2363 0.13811 0.0
H1772 H 0.45649 0.2749 0.15215 0.0
H1773 H 0.42744 0.27445 0.27065 0.0
H1774 H 0.45681 0.22663 0.28112 0.0
H1775 H 0.44921 0.20056 0.18525 0.0
C1776 C 0.38582 0.30617 0.1607 0.0
C1777 C 0.37774 0.33491 0.17365 0.0
C1778 C 0.38212 0.33979 0.2056 0.0
C1779 C 0.39566 0.3169 0.22399 0.0
C1780 C 0.40467 0.2894 0.21001 0.0
C1781 C 0.39983 0.28402 0.17907 0.0
C1782 C 0.41342 0.25368 0.1689 0.0
C1783 C 0.38792 0.23125 0.15798 0.0
C1784 C 0.43824 0.25858 0.144 0.0
C1785 C 0.42743 0.24304 0.19876 0.0
C1786 C 0.42165 0.26358 0.22242 0.0
C1787 C 0.43205 0.25826 0.25229 0.0
C1788 C 0.44865 0.23121 0.25802 0.0
C1789 C 0.45516 0.21046 0.23384 0.0
C1790 C 0.44458 0.21644 0.20393 0.0
H1791 H 0.97757 0.29027 0.77452 0.0
H1792 H 0.92949 0.35678 0.8304 0.0
H1793 H 0.90094 0.31406 0.85646 0.0
H1794 H 0.90981 0.24522 0.76085 0.0
H1795 H 0.92988 0.20902 0.75903 0.0
H1796 H 0.9495 0.24434 0.74847 0.0
H1797 H 0.99273 0.23401 0.78933 0.0
H1798 H 0.97329 0.19797 0.79784 0.0
H1799 H 0.9813 0.22502 0.82825 0.0
H1800 H 0.87881 0.26176 0.87721 0.0
H1801 H 0.86128 0.20813 0.88593 0.0
H1802 H 0.91644 0.17908 0.80762 0.0
C1803 C 0.96171 0.29569 0.79297 0.0
C1804 C 0.95757 0.32654 0.80242 0.0
C1805 C 0.9348 0.33307 0.82473 0.0
C1806 C 0.91816 0.30896 0.83924 0.0
C1807 C 0.92348 0.27855 0.82999 0.0
C1808 C 0.94426 0.27208 0.80679 0.0
C1809 C 0.94314 0.23824 0.79813 0.0
C1810 C 0.93244 0.23397 0.76464 0.0
C1811 C 0.9745 0.22294 0.8037 0.0
C1812 C 0.91908 0.22639 0.82053 0.0
C1813 C 0.90827 0.24968 0.83912 0.0
C1814 C 0.88693 0.24346 0.86242 0.0
C1815 C 0.87681 0.21265 0.86698 0.0
C1816 C 0.88739 0.18824 0.84785 0.0
C1817 C 0.90829 0.19602 0.82383 0.0
H1818 H 0.10271 0.67502 0.09674 0.0
H1819 H 0.06619 0.58736 0.12957 0.0
H1820 H 0.01458 0.60089 0.10937 0.0
H1821 H 0.04066 0.7209 0.11541 0.0
H1822 H 0.04247 0.74467 0.08125 0.0
H1823 H 0.07675 0.72664 0.09555 0.0
H1824 H 0.085 0.70051 0.04266 0.0
H1825 H 0.05066 0.71862 0.0282 0.0
H1826 H 0.05445 0.67724 0.02619 0.0
H1827 H 0.96607 0.62586 0.08792 0.0
H1828 H 0.92536 0.65979 0.06742 0.0
H1829 H 0.99394 0.73154 0.05035 0.0
C1830 C 0.0839 0.65856 0.09947 0.0
C1831 C 0.08839 0.63022 0.11489 0.0
C1832 C 0.0633 0.60912 0.11766 0.0
C1833 C 0.03391 0.61666 0.10634 0.0
C1834 C 0.03013 0.64517 0.09188 0.0
C1835 C 0.05459 0.66559 0.08809 0.0
C1836 C 0.04448 0.69499 0.07235 0.0
C1837 C 0.05147 0.72349 0.09236 0.0
C1838 C 0.05955 0.69802 0.04046 0.0
C1839 C 1.01017 0.68879 0.06948 0.0
C1840 C 1.00239 0.65962 0.08012 0.0
C1841 C 0.97199 0.64867 0.0794 0.0
C1842 C 0.949 0.66807 0.06763 0.0
C1843 C 0.95645 0.69829 0.05732 0.0
C1844 C 0.98751 0.70858 0.05816 0.0
H1845 H 0.60628 0.85042 0.34764 0.0
H1846 H 0.69766 0.81597 0.36693 0.0
H1847 H 0.68248 0.76496 0.34522 0.0
H1848 H 0.56246 0.78462 0.36615 0.0
H1849 H 0.53589 0.78968 0.33457 0.0
H1850 H 0.55594 0.82253 0.35029 0.0
H1851 H 0.57516 0.83449 0.29454 0.0
H1852 H 0.55597 0.80016 0.28034 0.0
H1853 H 0.59676 0.80567 0.2741 0.0
H1854 H 0.65557 0.7164 0.32493 0.0
H1855 H 0.62041 0.67529 0.306 0.0
H1856 H 0.54614 0.74146 0.30052 0.0
C1857 C 0.62327 0.8323 0.34656 0.0
C1858 C 0.65324 0.83714 0.35871 0.0
C1859 C 0.6748 0.81287 0.35725 0.0
C1860 C 0.66627 0.78379 0.34516 0.0
C1861 C 0.63622 0.7795 0.33415 0.0
C1862 C 0.61525 0.80332 0.33421 0.0
C1863 C 0.58435 0.7927 0.32132 0.0
C1864 C 0.55815 0.79764 0.34455 0.0
C1865 C 0.57767 0.80924 0.29076 0.0
C1866 C 0.59044 0.75865 0.316 0.0
C1867 C 0.62073 0.75165 0.32282 0.0
C1868 C 0.63189 0.72174 0.31936 0.0
C1869 C 0.61169 0.69848 0.30856 0.0
C1870 C 0.58043 0.70497 0.30184 0.0
C1871 C 0.56982 0.73559 0.30565 0.0
H1872 H 0.58456 0.34864 0.57913 0.0
H1873 H 0.54591 0.30688 0.49692 0.0
H1874 H 0.49498 0.32899 0.50926 0.0
H1875 H 0.51957 0.3386 0.62837 0.0
H1876 H 0.52417 0.37556 0.64696 0.0
H1877 H 0.55725 0.35651 0.63106 0.0
H1878 H 0.56931 0.40545 0.59829 0.0
H1879 H 0.53586 0.42421 0.61392 0.0
H1880 H 0.54011 0.42025 0.57288 0.0
H1881 H 0.44718 0.35463 0.53202 0.0
H1882 H 0.40741 0.38062 0.56341 0.0
H1883 H 0.47791 0.40775 0.62923 0.0
C1884 C 0.56538 0.3444 0.56366 0.0
C1885 C 0.5692 0.32616 0.53697 0.0
C1886 C 0.54359 0.32111 0.51727 0.0
C1887 C 0.51452 0.33348 0.52417 0.0
C1888 C 0.51144 0.35143 0.55062 0.0
C1889 C 0.53628 0.35709 0.56991 0.0
C1890 C 0.52692 0.37741 0.59669 0.0
C1891 C 0.5323 0.36103 0.62759 0.0
C1892 C 0.54408 0.40868 0.59537 0.0
C1893 C 0.49277 0.38131 0.59015 0.0
C1894 C 0.48426 0.36646 0.56331 0.0
C1895 C 0.45371 0.36651 0.55298 0.0
C1896 C 0.43125 0.38158 0.57084 0.0
C1897 C 0.43931 0.39626 0.59892 0.0
C1898 C 0.47075 0.39654 0.60811 0.0
H1899 H 0.15318 0.72761 0.63707 0.0
H1900 H 0.14069 0.65422 0.70437 0.0
H1901 H 0.11468 0.69108 0.73885 0.0
H1902 H 0.16429 0.79101 0.6885 0.0
H1903 H 0.14214 0.8174 0.66549 0.0
H1904 H 0.16201 0.78591 0.64739 0.0
H1905 H 0.11056 0.76684 0.62291 0.0
H1906 H 0.09062 0.79836 0.64086 0.0
H1907 H 0.07776 0.75917 0.64736 0.0
H1908 H 0.08759 0.73657 0.76537 0.0
H1909 H 0.06232 0.78552 0.78054 0.0
H1910 H 0.0891 0.82689 0.69381 0.0
C1911 C 0.14477 0.71879 0.65882 0.0
C1912 C 0.14903 0.68747 0.66751 0.0
C1913 C 0.13831 0.67793 0.69694 0.0
C1914 C 0.12316 0.69873 0.71668 0.0
C1915 C 0.11855 0.72904 0.70672 0.0
C1916 C 0.12899 0.73891 0.67836 0.0
C1917 C 0.12006 0.77213 0.67219 0.0
C1918 C 0.14884 0.79283 0.66816 0.0
C1919 C 0.09848 0.77423 0.64416 0.0
C1920 C 0.10312 0.7797 0.7016 0.0
C1921 C 0.10254 0.75462 0.72138 0.0
C1922 C 0.08801 0.75624 0.74999 0.0
C1923 C 0.07376 0.78406 0.75845 0.0
C1924 C 0.07403 0.80977 0.73835 0.0
C1925 C 0.08881 0.80752 0.70959 0.0
H1926 H 0.46072 0.81838 0.92867 0.0
H1927 H 0.47235 0.84419 0.0246 0.0
H1928 H 0.51835 0.87492 1.01112 0.0
H1929 H 0.54277 0.80836 0.91354 0.0
H1930 H 0.54 0.82314 0.87494 0.0
H1931 H 0.5072 0.80406 0.8922 0.0
H1932 H 0.47427 0.85256 0.88119 0.0
H1933 H 0.50729 0.87185 0.86449 0.0
H1934 H 0.48686 0.88959 0.89584 0.0
H1935 H 0.56266 0.9045 0.98687 0.0
H1936 H 0.60262 0.92814 0.9544 0.0
H1937 H 0.56705 0.87556 0.87621 0.0
C1938 C 0.47322 0.82987 0.94698 0.0
C1939 C 0.46293 0.82823 0.97779 0.0
C1940 C 0.47955 0.84485 1.00076 0.0
C1941 C 0.50589 0.8624 0.9934 0.0
C1942 C 0.51576 0.86295 0.963 0.0
C1943 C 0.50016 0.84686 0.94021 0.0
C1944 C 0.51609 0.85086 0.90945 0.0
C1945 C 0.52716 0.81973 0.89681 0.0
C1946 C 0.49486 0.86719 0.88638 0.0
C1947 C 0.54306 0.87148 0.91862 0.0
C1948 C 0.54219 0.87867 0.94944 0.0
C1949 C 0.56385 0.89864 0.96269 0.0
C1950 C 0.5869 0.91176 0.94385 0.0
C1951 C 0.58884 0.90429 0.91201 0.0
C1952 C 0.56657 0.8832 0.89982 0.0
H1953 H 0.93605 0.16594 0.46058 0.0
H1954 H 0.95733 0.10126 0.38759 0.0
H1955 H 1.0131 0.11059 0.39647 0.0
H1956 H 0.98663 0.21924 0.44268 0.0
H1957 H 1.00216 0.23142 0.47946 0.0
H1958 H 0.96349 0.216 0.4766 0.0
H1959 H 0.97067 0.17123 0.51288 0.0
H1960 H 1.00808 0.18737 0.52206 0.0
H1961 H 1.0045 0.14757 0.51014 0.0
H1962 H 0.06634 0.12907 0.41162 0.0
H1963 H 0.11337 0.15466 0.43206 0.0
H1964 H 0.05718 0.21086 0.49203 0.0
C1965 C 0.95243 0.1533 0.44678 0.0
C1966 C 0.94227 0.13297 0.42323 0.0
C1967 C 0.96449 0.11673 0.40589 0.0
C1968 C 0.99622 0.12204 0.41068 0.0
C1969 C 1.00533 0.14338 0.4331 0.0
C1970 C 0.98407 0.15829 0.45128 0.0
C1971 C 0.99969 0.18125 0.47278 0.0
C1972 C 0.98738 0.21399 0.4676 0.0
C1973 C 0.9955 0.17125 0.50646 0.0
C1974 C 0.03308 0.17815 0.46274 0.0
C1975 C 0.03583 0.1555 0.44045 0.0
C1976 C 0.06445 0.14697 0.42886 0.0
C1977 C 0.09099 0.16161 0.44054 0.0
C1978 C 0.08881 0.18523 0.46286 0.0
C1979 C 0.05942 0.19355 0.47419 0.0
loop_
_geom_bond_atom_site_label_1
_geom_bond_atom_site_label_2
_geom_bond_distance
_geom_bond_site_symmetry_2
_ccdc_geom_bond_type
Tb0 N31 2.660 . S
Tb0 N38 2.600 . S
Tb0 O44 2.546 . S
Tb0 O45 2.610 . S
Tb0 O47 2.320 . S
Tb0 O48 2.552 . S
Tb0 O49 2.413 . S
Tb0 O51 2.362 . S
Tb0 O52 2.421 . S
Tb0 C64 2.833 . S
C1 C4 1.432 . S
C1 C5 1.414 . S
C1 N8 1.359 . S
C2 C4 1.417 . S
C2 C6 1.432 . S
C2 C14 1.410 . S
C3 C5 1.444 1_655 S
C3 C6 1.317 1_655 S
C3 H26 0.929 . S
C4 C1 1.432 . S
C4 C2 1.417 . S
C4 N12 1.360 . S
C5 C1 1.414 . S
C5 C3 1.444 1_455 S
C5 C10 1.385 1_455 S
C6 C2 1.432 . S
C6 C3 1.317 1_455 S
C6 H18 0.931 . S
C7 C9 1.392 . S
C7 C10 1.370 1_455 S
C7 H19 0.931 . S
N8 C1 1.359 . S
N8 C9 1.327 . S
N8 Tb11 2.600 . S
C9 C7 1.392 . S
C9 N8 1.327 . S
C9 H16 0.930 . S
C10 C5 1.385 1_655 S
C10 C7 1.370 1_655 S
C10 H29 0.930 . S
Tb11 N8 2.600 . S
Tb11 N12 2.660 . S
Tb11 O45 2.362 . S
Tb11 O46 2.421 . S
Tb11 O50 2.546 . S
Tb11 O51 2.610 . S
Tb11 O53 2.320 . S
Tb11 O54 2.552 . S
Tb11 O55 2.413 . S
Tb11 C75 2.833 . S
N12 C4 1.360 . S
N12 Tb11 2.660 . S
N12 C13 1.305 . S
C13 N12 1.305 . S
C13 C15 1.407 . S
C13 H20 0.930 . S
C14 C2 1.410 . S
C14 C15 1.345 . S
C14 H22 0.930 . S
C15 C13 1.407 . S
C15 C14 1.345 . S
C15 H17 0.930 . S
H16 C9 0.930 . S
H17 C15 0.930 . S
H18 C6 0.931 . S
H19 C7 0.931 . S
H20 C13 0.930 . S
H21 C35 0.930 . S
H22 C14 0.930 . S
H23 C41 0.930 . S
H24 C32 0.930 . S
H25 C39 0.931 . S
H26 C3 0.929 . S
H27 C33 0.930 . S
H28 C66 0.930 . S
H29 C10 0.930 . S
H30 C65 0.929 . S
N31 Tb0 2.660 . S
N31 C32 1.305 . S
N31 C36 1.360 . S
C32 H24 0.930 . S
C32 N31 1.305 . S
C32 C35 1.407 . S
C33 H27 0.930 . S
C33 C34 1.410 . S
C33 C35 1.345 . S
C34 C33 1.410 . S
C34 C36 1.417 . S
C34 C66 1.432 . S
C35 H21 0.930 . S
C35 C32 1.407 . S
C35 C33 1.345 . S
C36 N31 1.360 . S
C36 C34 1.417 . S
C36 C40 1.432 . S
H37 C42 0.930 . S
N38 Tb0 2.600 . S
N38 C40 1.359 . S
N38 C41 1.327 . S
C39 H25 0.931 . S
C39 C41 1.392 . S
C39 C42 1.370 . S
C40 C36 1.432 . S
C40 N38 1.359 . S
C40 C43 1.414 . S
C41 H23 0.930 . S
C41 N38 1.327 . S
C41 C39 1.392 . S
C42 H37 0.930 . S
C42 C39 1.370 . S
C42 C43 1.385 . S
C43 C40 1.414 . S
C43 C42 1.385 . S
C43 C65 1.444 . S
O44 Tb0 2.546 . S
O44 C64 1.251 . S
O45 Tb0 2.610 . S
O45 Tb11 2.362 . S
O45 C56 1.283 . S
O46 Tb11 2.421 . S
O46 C63 1.262 . S
O47 Tb0 2.320 . S
O47 C63 1.260 . S
O48 Tb0 2.552 . S
O48 C56 1.243 . S
O49 Tb0 2.413 . S
O49 C64 1.256 . S
O50 Tb11 2.546 . S
O50 C75 1.251 . S
O51 Tb0 2.362 . S
O51 Tb11 2.610 . S
O51 C67 1.283 . S
O52 Tb0 2.421 . S
O52 C74 1.262 . S
O53 Tb11 2.320 . S
O53 C74 1.260 . S
O54 Tb11 2.552 . S
O54 C67 1.243 . S
O55 Tb11 2.413 . S
O55 C75 1.256 . S
C56 O45 1.283 . S
C56 O48 1.243 . S
C57 C59 1.382 . S
C57 C61 1.393 . S
C57 C64 1.500 . S
C58 C59 1.400 . S
C58 C60 1.384 . S
C59 C57 1.382 . S
C59 C58 1.400 . S
C59 H76 0.930 . S
C60 C58 1.384 . S
C60 C62 1.392 . S
C60 H77 0.931 . S
C61 C57 1.393 . S
C61 C62 1.401 . S
C61 H78 0.930 . S
C62 C60 1.392 . S
C62 C61 1.401 . S
C62 H79 0.930 . S
C63 O46 1.262 . S
C63 O47 1.260 . S
C64 Tb0 2.833 . S
C64 O44 1.251 . S
C64 O49 1.256 . S
C64 C57 1.500 . S
C65 H30 0.929 . S
C65 C43 1.444 . S
C65 C66 1.317 . S
C66 H28 0.930 . S
C66 C34 1.432 . S
C66 C65 1.317 . S
C67 O51 1.283 . S
C67 O54 1.243 . S
C68 C69 1.382 . S
C68 C72 1.393 . S
C68 C75 1.500 . S
C69 C68 1.382 . S
C69 C70 1.400 . S
C69 H80 0.930 . S
C70 C69 1.400 . S
C70 C71 1.384 . S
C71 C70 1.384 . S
C71 C73 1.392 . S
C71 H81 0.931 . S
C72 C68 1.393 . S
C72 C73 1.401 . S
C72 H82 0.930 . S
C73 C71 1.392 . S
C73 C72 1.401 . S
C73 H83 0.930 . S
C74 O52 1.262 . S
C74 O53 1.260 . S
C75 Tb11 2.833 . S
C75 O50 1.251 . S
C75 O55 1.256 . S
C75 C68 1.500 . S
H76 C59 0.930 . S
H77 C60 0.931 . S
H78 C61 0.930 . S
H79 C62 0.930 . S
H80 C69 0.930 . S
H81 C71 0.931 . S
H82 C72 0.930 . S
H83 C73 0.930 . S
Tb84 N115 2.660 . S
Tb84 N122 2.600 . S
Tb84 O128 2.546 . S
Tb84 O129 2.610 1_655 S
Tb84 O131 2.320 . S
Tb84 O132 2.552 1_655 S
Tb84 O133 2.413 . S
Tb84 O135 2.362 1_655 S
Tb84 O136 2.421 1_655 S
Tb84 C148 2.833 . S
C85 C88 1.432 . S
C85 C89 1.414 . S
C85 N92 1.359 . S
C86 C88 1.417 . S
C86 C90 1.432 . S
C86 C98 1.410 . S
C87 C89 1.444 1_545 S
C87 C90 1.317 1_545 S
C87 H110 0.929 . S
C88 C85 1.432 . S
C88 C86 1.417 . S
C88 N96 1.360 . S
C89 C85 1.414 . S
C89 C87 1.444 1_565 S
C89 C94 1.385 1_565 S
C90 C86 1.432 . S
C90 C87 1.317 1_565 S
C90 H102 0.930 . S
C91 C93 1.392 . S
C91 C94 1.370 1_565 S
C91 H103 0.931 . S
N92 C85 1.359 . S
N92 C93 1.327 . S
N92 Tb95 2.600 . S
C93 C91 1.392 . S
C93 N92 1.327 . S
C93 H100 0.930 . S
C94 C89 1.385 1_545 S
C94 C91 1.370 1_545 S
C94 H113 0.930 . S
Tb95 N92 2.600 . S
Tb95 N96 2.660 . S
Tb95 O129 2.362 . S
Tb95 O130 2.421 1_455 S
Tb95 O134 2.546 . S
Tb95 O135 2.610 . S
Tb95 O137 2.320 . S
Tb95 O138 2.552 . S
Tb95 O139 2.413 . S
Tb95 C159 2.833 . S
N96 C88 1.360 . S
N96 Tb95 2.660 . S
N96 C97 1.305 . S
C97 N96 1.305 . S
C97 C99 1.407 . S
C97 H104 0.930 . S
C98 C86 1.410 . S
C98 C99 1.345 . S
C98 H106 0.930 . S
C99 C97 1.407 . S
C99 C98 1.345 . S
C99 H101 0.930 . S
H100 C93 0.930 . S
H101 C99 0.930 . S
H102 C90 0.930 . S
H103 C91 0.931 . S
H104 C97 0.930 . S
H105 C119 0.930 . S
H106 C98 0.930 . S
H107 C125 0.940 . S
H108 C116 0.930 . S
H109 C123 0.931 . S
H110 C87 0.929 . S
H111 C117 0.930 . S
H112 C150 0.930 . S
H113 C94 0.930 . S
H114 C149 0.929 . S
N115 Tb84 2.660 . S
N115 C116 1.305 . S
N115 C120 1.360 . S
C116 H108 0.930 . S
C116 N115 1.305 . S
C116 C119 1.407 . S
C117 H111 0.930 . S
C117 C118 1.410 . S
C117 C119 1.345 . S
C118 C117 1.410 . S
C118 C120 1.417 . S
C118 C150 1.432 . S
C119 H105 0.930 . S
C119 C116 1.407 . S
C119 C117 1.345 . S
C120 N115 1.360 . S
C120 C118 1.417 . S
C120 C124 1.432 . S
H121 C126 0.930 . S
N122 Tb84 2.600 . S
N122 C124 1.359 . S
N122 C125 1.327 . S
C123 H109 0.931 . S
C123 C125 1.392 . S
C123 C126 1.370 . S
C124 C120 1.432 . S
C124 N122 1.359 . S
C124 C127 1.414 . S
C125 H107 0.940 . S
C125 N122 1.327 . S
C125 C123 1.392 . S
C126 H121 0.930 . S
C126 C123 1.370 . S
C126 C127 1.385 . S
C127 C124 1.414 . S
C127 C126 1.385 . S
C127 C149 1.444 . S
O128 Tb84 2.546 . S
O128 C148 1.251 . S
O129 Tb84 2.610 1_455 S
O129 Tb95 2.362 . S
O129 C140 1.283 . S
O130 Tb95 2.421 1_655 S
O130 C147 1.262 . S
O131 Tb84 2.320 . S
O131 C147 1.260 . S
O132 Tb84 2.552 1_455 S
O132 C140 1.243 . S
O133 Tb84 2.413 . S
O133 C148 1.256 . S
O134 Tb95 2.546 . S
O134 C159 1.251 . S
O135 Tb84 2.362 1_455 S
O135 Tb95 2.610 . S
O135 C151 1.283 . S
O136 Tb84 2.421 1_455 S
O136 C158 1.262 . S
O137 Tb95 2.320 . S
O137 C158 1.260 . S
O138 Tb95 2.552 . S
O138 C151 1.243 . S
O139 Tb95 2.413 . S
O139 C159 1.256 . S
C140 O129 1.283 . S
C140 O132 1.243 . S
C141 C143 1.382 . S
C141 C145 1.393 . S
C141 C148 1.500 . S
C142 C143 1.400 . S
C142 C144 1.384 . S
C143 C141 1.382 . S
C143 C142 1.400 . S
C143 H160 0.930 . S
C144 C142 1.384 . S
C144 C146 1.392 . S
C144 H161 0.931 . S
C145 C141 1.393 . S
C145 C146 1.401 . S
C145 H162 0.930 . S
C146 C144 1.392 . S
C146 C145 1.401 . S
C146 H163 0.930 . S
C147 O130 1.262 . S
C147 O131 1.260 . S
C148 Tb84 2.833 . S
C148 O128 1.251 . S
C148 O133 1.256 . S
C148 C141 1.500 . S
C149 H114 0.929 . S
C149 C127 1.444 . S
C149 C150 1.317 . S
C150 H112 0.930 . S
C150 C118 1.432 . S
C150 C149 1.317 . S
C151 O135 1.283 . S
C151 O138 1.243 . S
C152 C153 1.382 . S
C152 C156 1.393 . S
C152 C159 1.500 . S
C153 C152 1.382 . S
C153 C154 1.400 . S
C153 H164 0.930 . S
C154 C153 1.400 . S
C154 C155 1.384 . S
C155 C154 1.384 . S
C155 C157 1.392 . S
C155 H165 0.931 . S
C156 C152 1.393 . S
C156 C157 1.401 . S
C156 H166 0.930 . S
C157 C155 1.392 . S
C157 C156 1.401 . S
C157 H167 0.930 . S
C158 O136 1.262 . S
C158 O137 1.260 . S
C159 Tb95 2.833 . S
C159 O134 1.251 . S
C159 O139 1.256 . S
C159 C152 1.500 . S
H160 C143 0.930 . S
H161 C144 0.931 . S
H162 C145 0.930 . S
H163 C146 0.930 . S
H164 C153 0.930 . S
H165 C155 0.931 . S
H166 C156 0.930 . S
H167 C157 0.930 . S
Tb168 N199 2.660 . S
Tb168 N206 2.600 . S
Tb168 O212 2.546 . S
Tb168 O213 2.610 . S
Tb168 O215 2.320 . S
Tb168 O216 2.552 . S
Tb168 O217 2.413 . S
Tb168 O219 2.362 1_556 S
Tb168 O220 2.421 . S
Tb168 C232 2.833 . S
C169 C172 1.432 1_554 S
C169 C173 1.414 . S
C169 N176 1.359 . S
C170 C172 1.417 . S
C170 C174 1.432 . S
C170 C182 1.410 . S
C171 C173 1.444 . S
C171 C174 1.317 1_554 S
C171 H194 0.929 . S
C172 C169 1.432 1_556 S
C172 C170 1.417 . S
C172 N180 1.360 . S
C173 C169 1.414 . S
C173 C171 1.444 . S
C173 C178 1.385 . S
C174 C170 1.432 . S
C174 C171 1.317 1_556 S
C174 H186 0.930 . S
C175 C177 1.392 . S
C175 C178 1.370 . S
C175 H187 0.931 . S
N176 C169 1.359 . S
N176 C177 1.327 . S
N176 Tb179 2.600 . S
C177 C175 1.392 . S
C177 N176 1.327 . S
C177 H184 0.930 . S
C178 C173 1.385 . S
C178 C175 1.370 . S
C178 H197 0.930 . S
Tb179 N176 2.600 . S
Tb179 N180 2.660 1_554 S
Tb179 O213 2.362 1_554 S
Tb179 O214 2.421 . S
Tb179 O218 2.546 . S
Tb179 O219 2.610 . S
Tb179 O221 2.320 1_554 S
Tb179 O222 2.552 . S
Tb179 O223 2.413 . S
Tb179 C243 2.833 . S
N180 C172 1.360 . S
N180 Tb179 2.660 1_556 S
N180 C181 1.305 . S
C181 N180 1.305 . S
C181 C183 1.407 . S
C181 H188 0.930 . S
C182 C170 1.410 . S
C182 C183 1.345 . S
C182 H190 0.930 . S
C183 C181 1.407 . S
C183 C182 1.345 . S
C183 H185 0.930 . S
H184 C177 0.930 . S
H185 C183 0.930 . S
H186 C174 0.930 . S
H187 C175 0.931 . S
H188 C181 0.930 . S
H189 C203 0.930 . S
H190 C182 0.930 . S
H191 C209 0.930 . S
H192 C200 0.930 . S
H193 C207 0.931 . S
H194 C171 0.929 . S
H195 C201 0.930 . S
H196 C234 0.930 1_554 S
H197 C178 0.930 . S
H198 C233 0.929 . S
N199 Tb168 2.660 . S
N199 C200 1.305 1_556 S
N199 C204 1.360 . S
C200 H192 0.930 . S
C200 N199 1.305 1_554 S
C200 C203 1.407 . S
C201 H195 0.930 . S
C201 C202 1.420 . S
C201 C203 1.345 . S
C202 C201 1.420 . S
C202 C204 1.410 1_554 S
C202 C234 1.428 1_554 S
C203 H189 0.930 . S
C203 C200 1.407 . S
C203 C201 1.345 . S
C204 N199 1.360 . S
C204 C202 1.410 1_556 S
C204 C208 1.432 . S
H205 C210 0.930 . S
N206 Tb168 2.600 . S
N206 C208 1.359 . S
N206 C209 1.327 . S
C207 H193 0.931 . S
C207 C209 1.392 . S
C207 C210 1.370 . S
C208 C204 1.432 . S
C208 N206 1.359 . S
C208 C211 1.414 . S
C209 H191 0.930 . S
C209 N206 1.327 . S
C209 C207 1.392 . S
C210 H205 0.930 . S
C210 C207 1.370 . S
C210 C211 1.385 . S
C211 C208 1.414 . S
C211 C210 1.385 . S
C211 C233 1.444 . S
O212 Tb168 2.546 . S
O212 C232 1.251 . S
O213 Tb168 2.610 . S
O213 Tb179 2.362 1_556 S
O213 C224 1.283 . S
O214 Tb179 2.421 . S
O214 C231 1.262 . S
O215 Tb168 2.320 . S
O215 C231 1.260 1_556 S
O216 Tb168 2.552 . S
O216 C224 1.243 . S
O217 Tb168 2.413 . S
O217 C232 1.256 . S
O218 Tb179 2.546 . S
O218 C243 1.251 . S
O219 Tb168 2.362 1_554 S
O219 Tb179 2.610 . S
O219 C235 1.283 . S
O220 Tb168 2.421 . S
O220 C242 1.262 . S
O221 Tb179 2.320 1_556 S
O221 C242 1.260 . S
O222 Tb179 2.552 . S
O222 C235 1.243 . S
O223 Tb179 2.413 . S
O223 C243 1.256 . S
C224 O213 1.283 . S
C224 O216 1.243 . S
C225 C227 1.382 . S
C225 C229 1.393 . S
C225 C232 1.500 . S
C226 C227 1.400 . S
C226 C228 1.384 . S
C227 C225 1.382 . S
C227 C226 1.400 . S
C227 H244 0.930 . S
C228 C226 1.384 . S
C228 C230 1.392 . S
C228 H245 0.931 . S
C229 C225 1.393 . S
C229 C230 1.401 . S
C229 H246 0.930 . S
C230 C228 1.392 . S
C230 C229 1.401 . S
C230 H247 0.930 . S
C231 O214 1.262 . S
C231 O215 1.260 1_554 S
C232 Tb168 2.833 . S
C232 O212 1.251 . S
C232 O217 1.256 . S
C232 C225 1.500 . S
C233 H198 0.929 . S
C233 C211 1.444 . S
C233 C234 1.317 . S
C234 H196 0.930 1_556 S
C234 C202 1.428 1_556 S
C234 C233 1.317 . S
C235 O219 1.283 . S
C235 O222 1.243 . S
C236 C237 1.382 . S
C236 C240 1.393 . S
C236 C243 1.500 . S
C237 C236 1.382 . S
C237 C238 1.400 . S
C237 H248 0.930 . S
C238 C237 1.400 . S
C238 C239 1.384 . S
C239 C238 1.384 . S
C239 C241 1.392 . S
C239 H249 0.931 . S
C240 C236 1.393 . S
C240 C241 1.401 . S
C240 H250 0.930 . S
C241 C239 1.392 . S
C241 C240 1.401 . S
C241 H251 0.930 . S
C242 O220 1.262 . S
C242 O221 1.260 . S
C243 Tb179 2.833 . S
C243 O218 1.251 . S
C243 O223 1.256 . S
C243 C236 1.500 . S
H244 C227 0.930 . S
H245 C228 0.931 . S
H246 C229 0.930 . S
H247 C230 0.930 . S
H248 C237 0.930 . S
H249 C239 0.931 . S
H250 C240 0.930 . S
H251 C241 0.930 . S
Tb252 N283 2.660 . S
Tb252 N290 2.600 . S
Tb252 O296 2.546 . S
Tb252 O297 2.610 . S
Tb252 O299 2.320 . S
Tb252 O300 2.552 . S
Tb252 O301 2.413 . S
Tb252 O303 2.362 . S
Tb252 O304 2.421 . S
Tb252 C316 2.833 . S
C253 C256 1.432 . S
C253 C257 1.414 . S
C253 N260 1.359 . S
C254 C256 1.417 . S
C254 C258 1.432 . S
C254 C266 1.410 . S
C255 C257 1.444 1_565 S
C255 C258 1.317 1_565 S
C255 H278 0.929 . S
C256 C253 1.432 . S
C256 C254 1.417 . S
C256 N264 1.360 . S
C257 C253 1.414 . S
C257 C255 1.444 1_545 S
C257 C262 1.385 1_545 S
C258 C254 1.432 . S
C258 C255 1.317 1_545 S
C258 H270 0.936 . S
C259 C261 1.392 . S
C259 C262 1.370 1_545 S
C259 H271 0.931 . S
N260 C253 1.359 . S
N260 C261 1.327 . S
N260 Tb263 2.600 . S
C261 C259 1.392 . S
C261 N260 1.327 . S
C261 H268 0.930 . S
C262 C257 1.385 1_565 S
C262 C259 1.370 1_565 S
C262 H281 0.930 . S
Tb263 N260 2.600 . S
Tb263 N264 2.660 . S
Tb263 O297 2.362 . S
Tb263 O298 2.421 . S
Tb263 O302 2.546 . S
Tb263 O303 2.610 . S
Tb263 O305 2.320 . S
Tb263 O306 2.552 . S
Tb263 O307 2.413 . S
Tb263 C327 2.833 . S
N264 C256 1.360 . S
N264 Tb263 2.660 . S
N264 C265 1.305 . S
C265 N264 1.305 . S
C265 C267 1.407 . S
C265 H272 0.930 . S
C266 C254 1.410 . S
C266 C267 1.345 . S
C266 H274 0.930 . S
C267 C265 1.407 . S
C267 C266 1.345 . S
C267 H269 0.930 . S
H268 C261 0.930 . S
H269 C267 0.930 . S
H270 C258 0.936 . S
H271 C259 0.931 . S
H272 C265 0.930 . S
H273 C287 0.930 . S
H274 C266 0.930 . S
H275 C293 0.930 . S
H276 C284 0.930 . S
H277 C291 0.931 . S
H278 C255 0.929 . S
H279 C285 0.930 . S
H280 C318 0.930 . S
H281 C262 0.930 . S
H282 C317 0.929 . S
N283 Tb252 2.660 . S
N283 C284 1.305 . S
N283 C288 1.360 . S
C284 H276 0.930 . S
C284 N283 1.305 . S
C284 C287 1.407 . S
C285 H279 0.930 . S
C285 C286 1.410 . S
C285 C287 1.345 . S
C286 C285 1.410 . S
C286 C288 1.417 . S
C286 C318 1.432 . S
C287 H273 0.930 . S
C287 C284 1.407 . S
C287 C285 1.345 . S
C288 N283 1.360 . S
C288 C286 1.417 . S
C288 C292 1.432 . S
H289 C294 0.930 . S
N290 Tb252 2.600 . S
N290 C292 1.359 . S
N290 C293 1.327 . S
C291 H277 0.931 . S
C291 C293 1.392 . S
C291 C294 1.370 . S
C292 C288 1.432 . S
C292 N290 1.359 . S
C292 C295 1.414 . S
C293 H275 0.930 . S
C293 N290 1.327 . S
C293 C291 1.392 . S
C294 H289 0.930 . S
C294 C291 1.370 . S
C294 C295 1.385 . S
C295 C292 1.414 . S
C295 C294 1.385 . S
C295 C317 1.444 . S
O296 Tb252 2.546 . S
O296 C316 1.251 . S
O297 Tb252 2.610 . S
O297 Tb263 2.362 . S
O297 C308 1.283 . S
O298 Tb263 2.421 . S
O298 C315 1.262 . S
O299 Tb252 2.320 . S
O299 C315 1.260 . S
O300 Tb252 2.552 . S
O300 C308 1.243 . S
O301 Tb252 2.413 . S
O301 C316 1.256 . S
O302 Tb263 2.546 . S
O302 C327 1.251 . S
O303 Tb252 2.362 . S
O303 Tb263 2.610 . S
O303 C319 1.283 . S
O304 Tb252 2.421 . S
O304 C326 1.262 . S
O305 Tb263 2.320 . S
O305 C326 1.260 . S
O306 Tb263 2.552 . S
O306 C319 1.243 . S
O307 Tb263 2.413 . S
O307 C327 1.256 . S
C308 O297 1.283 . S
C308 O300 1.243 . S
C309 C311 1.382 . S
C309 C313 1.393 . S
C309 C316 1.500 . S
C310 C311 1.400 . S
C310 C312 1.384 . S
C311 C309 1.382 . S
C311 C310 1.400 . S
C311 H328 0.930 . S
C312 C310 1.384 . S
C312 C314 1.392 . S
C312 H329 0.931 . S
C313 C309 1.393 . S
C313 C314 1.401 . S
C313 H330 0.930 . S
C314 C312 1.392 . S
C314 C313 1.401 . S
C314 H331 0.930 . S
C315 O298 1.262 . S
C315 O299 1.260 . S
C316 Tb252 2.833 . S
C316 O296 1.251 . S
C316 O301 1.256 . S
C316 C309 1.500 . S
C317 H282 0.929 . S
C317 C295 1.444 . S
C317 C318 1.317 . S
C318 H280 0.930 . S
C318 C286 1.432 . S
C318 C317 1.317 . S
C319 O303 1.283 . S
C319 O306 1.243 . S
C320 C321 1.382 . S
C320 C324 1.393 . S
C320 C327 1.500 . S
C321 C320 1.382 . S
C321 C322 1.400 . S
C321 H332 0.930 . S
C322 C321 1.400 . S
C322 C323 1.384 . S
C323 C322 1.384 . S
C323 C325 1.392 . S
C323 H333 0.931 . S
C324 C320 1.393 . S
C324 C325 1.401 . S
C324 H334 0.930 . S
C325 C323 1.392 . S
C325 C324 1.401 . S
C325 H335 0.930 . S
C326 O304 1.262 . S
C326 O305 1.260 . S
C327 Tb263 2.833 . S
C327 O302 1.251 . S
C327 O307 1.256 . S
C327 C320 1.500 . S
H328 C311 0.930 . S
H329 C312 0.931 . S
H330 C313 0.930 . S
H331 C314 0.930 . S
H332 C321 0.930 . S
H333 C323 0.931 . S
H334 C324 0.930 . S
H335 C325 0.930 . S
Tb336 N367 2.660 . S
Tb336 N374 2.600 . S
Tb336 O380 2.546 . S
Tb336 O381 2.610 . S
Tb336 O383 2.320 . S
Tb336 O384 2.552 . S
Tb336 O385 2.413 . S
Tb336 O387 2.362 . S
Tb336 O388 2.421 . S
Tb336 C400 2.833 . S
C337 C340 1.432 . S
C337 C341 1.414 . S
C337 N344 1.359 . S
C338 C340 1.417 . S
C338 C342 1.432 . S
C338 C350 1.410 . S
C339 C341 1.444 . S
C339 C342 1.317 . S
C339 H362 0.929 . S
C340 C337 1.432 . S
C340 C338 1.417 . S
C340 N348 1.360 . S
C341 C337 1.414 . S
C341 C339 1.444 . S
C341 C346 1.385 . S
C342 C338 1.432 . S
C342 C339 1.317 . S
C342 H354 0.930 . S
C343 C345 1.392 . S
C343 C346 1.370 . S
C343 H355 0.931 . S
N344 C337 1.359 . S
N344 C345 1.327 . S
N344 Tb347 2.600 . S
C345 C343 1.392 . S
C345 N344 1.327 . S
C345 H352 0.930 . S
C346 C341 1.385 . S
C346 C343 1.370 . S
C346 H365 0.930 . S
Tb347 N344 2.600 . S
Tb347 N348 2.660 . S
Tb347 O381 2.362 . S
Tb347 O382 2.421 . S
Tb347 O386 2.546 . S
Tb347 O387 2.610 . S
Tb347 O389 2.320 . S
Tb347 O390 2.552 . S
Tb347 O391 2.413 . S
Tb347 C411 2.833 . S
N348 C340 1.360 . S
N348 Tb347 2.660 . S
N348 C349 1.305 . S
C349 N348 1.305 . S
C349 C351 1.407 . S
C349 H356 0.930 . S
C350 C338 1.410 . S
C350 C351 1.345 . S
C350 H358 0.930 . S
C351 C349 1.407 . S
C351 C350 1.345 . S
C351 H353 0.930 . S
H352 C345 0.930 . S
H353 C351 0.930 . S
H354 C342 0.930 . S
H355 C343 0.931 . S
H356 C349 0.930 . S
H357 C371 0.930 . S
H358 C350 0.930 . S
H359 C377 0.930 . S
H360 C368 0.930 . S
H361 C375 0.931 . S
H362 C339 0.929 . S
H363 C369 0.930 . S
H364 C402 0.930 . S
H365 C346 0.930 . S
H366 C401 0.929 . S
N367 Tb336 2.660 . S
N367 C368 1.305 . S
N367 C372 1.360 . S
C368 H360 0.930 . S
C368 N367 1.305 . S
C368 C371 1.407 . S
C369 H363 0.930 . S
C369 C370 1.410 . S
C369 C371 1.345 . S
C370 C369 1.410 . S
C370 C372 1.417 . S
C370 C402 1.432 . S
C371 H357 0.930 . S
C371 C368 1.407 . S
C371 C369 1.345 . S
C372 N367 1.360 . S
C372 C370 1.417 . S
C372 C376 1.432 . S
H373 C378 0.930 . S
N374 Tb336 2.600 . S
N374 C376 1.359 . S
N374 C377 1.327 . S
C375 H361 0.931 . S
C375 C377 1.392 . S
C375 C378 1.370 . S
C376 C372 1.432 . S
C376 N374 1.359 . S
C376 C379 1.414 . S
C377 H359 0.930 . S
C377 N374 1.327 . S
C377 C375 1.392 . S
C378 H373 0.930 . S
C378 C375 1.370 . S
C378 C379 1.385 . S
C379 C376 1.414 . S
C379 C378 1.385 . S
C379 C401 1.444 . S
O380 Tb336 2.546 . S
O380 C400 1.251 . S
O381 Tb336 2.610 . S
O381 Tb347 2.362 . S
O381 C392 1.283 . S
O382 Tb347 2.421 . S
O382 C399 1.262 . S
O383 Tb336 2.320 . S
O383 C399 1.260 . S
O384 Tb336 2.552 . S
O384 C392 1.243 . S
O385 Tb336 2.413 . S
O385 C400 1.256 . S
O386 Tb347 2.546 . S
O386 C411 1.251 . S
O387 Tb336 2.362 . S
O387 Tb347 2.610 . S
O387 C403 1.283 . S
O388 Tb336 2.421 . S
O388 C410 1.262 . S
O389 Tb347 2.320 . S
O389 C410 1.260 . S
O390 Tb347 2.552 . S
O390 C403 1.243 . S
O391 Tb347 2.413 . S
O391 C411 1.256 . S
C392 O381 1.283 . S
C392 O384 1.243 . S
C393 C395 1.382 . S
C393 C397 1.393 . S
C393 C400 1.500 . S
C394 C395 1.400 . S
C394 C396 1.384 . S
C395 C393 1.382 . S
C395 C394 1.400 . S
C395 H412 0.930 . S
C396 C394 1.384 . S
C396 C398 1.392 . S
C396 H413 0.931 . S
C397 C393 1.393 . S
C397 C398 1.401 . S
C397 H414 0.930 . S
C398 C396 1.392 . S
C398 C397 1.401 . S
C398 H415 0.930 . S
C399 O382 1.262 . S
C399 O383 1.260 . S
C400 Tb336 2.833 . S
C400 O380 1.251 . S
C400 O385 1.256 . S
C400 C393 1.500 . S
C401 H366 0.929 . S
C401 C379 1.444 . S
C401 C402 1.317 . S
C402 H364 0.930 . S
C402 C370 1.432 . S
C402 C401 1.317 . S
C403 O387 1.283 . S
C403 O390 1.243 . S
C404 C405 1.382 . S
C404 C408 1.393 . S
C404 C411 1.500 . S
C405 C404 1.382 . S
C405 C406 1.400 . S
C405 H416 0.930 . S
C406 C405 1.400 . S
C406 C407 1.384 . S
C407 C406 1.384 . S
C407 C409 1.392 . S
C407 H417 0.931 . S
C408 C404 1.393 . S
C408 C409 1.401 . S
C408 H418 0.930 . S
C409 C407 1.392 . S
C409 C408 1.401 . S
C409 H419 0.930 . S
C410 O388 1.262 . S
C410 O389 1.260 . S
C411 Tb347 2.833 . S
C411 O386 1.251 . S
C411 O391 1.256 . S
C411 C404 1.500 . S
H412 C395 0.930 . S
H413 C396 0.931 . S
H414 C397 0.930 . S
H415 C398 0.930 . S
H416 C405 0.930 . S
H417 C407 0.931 . S
H418 C408 0.930 . S
H419 C409 0.930 . S
Tb420 N451 2.660 . S
Tb420 N458 2.600 . S
Tb420 O464 2.546 . S
Tb420 O465 2.610 . S
Tb420 O467 2.320 . S
Tb420 O468 2.552 . S
Tb420 O469 2.413 . S
Tb420 O471 2.362 1_655 S
Tb420 O472 2.421 . S
Tb420 C484 2.833 . S
C421 C424 1.432 1_455 S
C421 C425 1.414 . S
C421 N428 1.359 . S
C422 C424 1.417 . S
C422 C426 1.432 . S
C422 C434 1.410 . S
C423 C425 1.444 . S
C423 C426 1.317 1_455 S
C423 H446 0.929 . S
C424 C421 1.432 1_655 S
C424 C422 1.417 . S
C424 N432 1.360 . S
C425 C421 1.414 . S
C425 C423 1.444 . S
C425 C430 1.385 . S
C426 C422 1.432 . S
C426 C423 1.317 1_655 S
C426 H438 0.930 . S
C427 C429 1.392 . S
C427 C430 1.370 . S
C427 H439 0.931 . S
N428 C421 1.359 . S
N428 C429 1.327 . S
N428 Tb431 2.600 . S
C429 C427 1.392 . S
C429 N428 1.327 . S
C429 H436 0.930 . S
C430 C425 1.385 . S
C430 C427 1.370 . S
C430 H449 0.930 . S
Tb431 N428 2.600 . S
Tb431 N432 2.660 1_455 S
Tb431 O465 2.362 1_455 S
Tb431 O466 2.421 . S
Tb431 O470 2.546 . S
Tb431 O471 2.610 . S
Tb431 O473 2.320 1_455 S
Tb431 O474 2.552 . S
Tb431 O475 2.413 . S
Tb431 C495 2.833 . S
N432 C424 1.360 . S
N432 Tb431 2.660 1_655 S
N432 C433 1.305 . S
C433 N432 1.305 . S
C433 C435 1.407 . S
C433 H440 0.930 . S
C434 C422 1.410 . S
C434 C435 1.345 . S
C434 H442 0.930 . S
C435 C433 1.407 . S
C435 C434 1.345 . S
C435 H437 0.930 . S
H436 C429 0.930 . S
H437 C435 0.930 . S
H438 C426 0.930 . S
H439 C427 0.931 . S
H440 C433 0.930 . S
H441 C455 0.930 . S
H442 C434 0.930 . S
H443 C461 0.930 . S
H444 C452 0.930 . S
H445 C459 0.931 . S
H446 C423 0.929 . S
H447 C453 0.930 . S
H448 C486 0.930 1_455 S
H449 C430 0.930 . S
H450 C485 0.929 . S
N451 Tb420 2.660 . S
N451 C452 1.305 1_655 S
N451 C456 1.360 . S
C452 H444 0.930 . S
C452 N451 1.305 1_455 S
C452 C455 1.407 . S
C453 H447 0.930 . S
C453 C454 1.410 . S
C453 C455 1.345 . S
C454 C453 1.410 . S
C454 C456 1.417 1_455 S
C454 C486 1.432 1_455 S
C455 H441 0.930 . S
C455 C452 1.407 . S
C455 C453 1.345 . S
C456 N451 1.360 . S
C456 C454 1.417 1_655 S
C456 C460 1.432 . S
H457 C462 0.930 . S
N458 Tb420 2.600 . S
N458 C460 1.359 . S
N458 C461 1.327 . S
C459 H445 0.931 . S
C459 C461 1.392 . S
C459 C462 1.370 . S
C460 C456 1.432 . S
C460 N458 1.359 . S
C460 C463 1.414 . S
C461 H443 0.930 . S
C461 N458 1.327 . S
C461 C459 1.392 . S
C462 H457 0.930 . S
C462 C459 1.370 . S
C462 C463 1.385 . S
C463 C460 1.414 . S
C463 C462 1.385 . S
C463 C485 1.444 . S
O464 Tb420 2.546 . S
O464 C484 1.251 . S
O465 Tb420 2.610 . S
O465 Tb431 2.362 1_655 S
O465 C476 1.283 . S
O466 Tb431 2.421 . S
O466 C483 1.262 . S
O467 Tb420 2.320 . S
O467 C483 1.260 1_655 S
O468 Tb420 2.552 . S
O468 C476 1.243 . S
O469 Tb420 2.413 . S
O469 C484 1.256 . S
O470 Tb431 2.546 . S
O470 C495 1.251 . S
O471 Tb420 2.362 1_455 S
O471 Tb431 2.610 . S
O471 C487 1.283 . S
O472 Tb420 2.421 . S
O472 C494 1.262 . S
O473 Tb431 2.320 1_655 S
O473 C494 1.260 . S
O474 Tb431 2.552 . S
O474 C487 1.243 . S
O475 Tb431 2.413 . S
O475 C495 1.256 . S
C476 O465 1.283 . S
C476 O468 1.243 . S
C477 C479 1.382 . S
C477 C481 1.393 . S
C477 C484 1.500 . S
C478 C479 1.400 . S
C478 C480 1.384 . S
C479 C477 1.382 . S
C479 C478 1.400 . S
C479 H496 0.930 . S
C480 C478 1.384 . S
C480 C482 1.392 . S
C480 H497 0.931 . S
C481 C477 1.393 . S
C481 C482 1.401 . S
C481 H498 0.930 . S
C482 C480 1.392 . S
C482 C481 1.401 . S
C482 H499 0.930 . S
C483 O466 1.262 . S
C483 O467 1.260 1_455 S
C484 Tb420 2.833 . S
C484 O464 1.251 . S
C484 O469 1.256 . S
C484 C477 1.500 . S
C485 H450 0.929 . S
C485 C463 1.444 . S
C485 C486 1.317 . S
C486 H448 0.930 1_655 S
C486 C454 1.432 1_655 S
C486 C485 1.317 . S
C487 O471 1.283 . S
C487 O474 1.243 . S
C488 C489 1.382 . S
C488 C492 1.393 . S
C488 C495 1.500 . S
C489 C488 1.382 . S
C489 C490 1.400 . S
C489 H500 0.930 . S
C490 C489 1.400 . S
C490 C491 1.384 . S
C491 C490 1.384 . S
C491 C493 1.392 . S
C491 H501 0.931 . S
C492 C488 1.393 . S
C492 C493 1.401 . S
C492 H502 0.930 . S
C493 C491 1.392 . S
C493 C492 1.401 . S
C493 H503 0.930 . S
C494 O472 1.262 . S
C494 O473 1.260 . S
C495 Tb431 2.833 . S
C495 O470 1.251 . S
C495 O475 1.256 . S
C495 C488 1.500 . S
H496 C479 0.930 . S
H497 C480 0.931 . S
H498 C481 0.930 . S
H499 C482 0.930 . S
H500 C489 0.930 . S
H501 C491 0.931 . S
H502 C492 0.930 . S
H503 C493 0.930 . S
Tb504 N535 2.660 . S
Tb504 N542 2.600 . S
Tb504 O548 2.546 . S
Tb504 O549 2.610 . S
Tb504 O551 2.320 . S
Tb504 O552 2.552 . S
Tb504 O553 2.413 . S
Tb504 O555 2.362 1_554 S
Tb504 O556 2.421 . S
Tb504 C568 2.833 . S
C505 C508 1.432 1_556 S
C505 C509 1.414 . S
C505 N512 1.359 . S
C506 C508 1.417 . S
C506 C510 1.432 . S
C506 C518 1.410 . S
C507 C509 1.444 . S
C507 C510 1.317 1_556 S
C507 H530 0.929 . S
C508 C505 1.432 1_554 S
C508 C506 1.417 . S
C508 N516 1.360 . S
C509 C505 1.414 . S
C509 C507 1.444 . S
C509 C514 1.385 . S
C510 C506 1.432 . S
C510 C507 1.317 1_554 S
C510 H522 0.930 . S
C511 C513 1.392 . S
C511 C514 1.370 . S
C511 H523 0.931 . S
N512 C505 1.359 . S
N512 C513 1.327 . S
N512 Tb515 2.600 . S
C513 C511 1.392 . S
C513 N512 1.327 . S
C513 H520 0.930 . S
C514 C509 1.385 . S
C514 C511 1.370 . S
C514 H533 0.930 . S
Tb515 N512 2.600 . S
Tb515 N516 2.660 1_556 S
Tb515 O549 2.362 1_556 S
Tb515 O550 2.421 . S
Tb515 O554 2.546 . S
Tb515 O555 2.610 . S
Tb515 O557 2.320 1_556 S
Tb515 O558 2.552 . S
Tb515 O559 2.413 . S
Tb515 C579 2.833 . S
N516 C508 1.360 . S
N516 Tb515 2.660 1_554 S
N516 C517 1.305 . S
C517 N516 1.305 . S
C517 C519 1.407 . S
C517 H524 0.930 . S
C518 C506 1.410 . S
C518 C519 1.345 . S
C518 H526 0.930 . S
C519 C517 1.407 . S
C519 C518 1.345 . S
C519 H521 0.930 . S
H520 C513 0.930 . S
H521 C519 0.930 . S
H522 C510 0.930 . S
H523 C511 0.931 . S
H524 C517 0.930 . S
H525 C539 0.930 . S
H526 C518 0.930 . S
H527 C545 0.930 . S
H528 C536 0.930 . S
H529 C543 0.931 . S
H530 C507 0.929 . S
H531 C537 0.930 . S
H532 C570 0.930 1_556 S
H533 C514 0.930 . S
H534 C569 0.929 . S
N535 Tb504 2.660 . S
N535 C536 1.305 1_554 S
N535 C540 1.360 . S
C536 H528 0.930 . S
C536 N535 1.305 1_556 S
C536 C539 1.407 . S
C537 H531 0.930 . S
C537 C538 1.389 1_556 S
C537 C539 1.345 . S
C538 C537 1.389 1_554 S
C538 C540 1.431 . S
C538 C570 1.439 . S
C539 H525 0.930 . S
C539 C536 1.407 . S
C539 C537 1.345 . S
C540 N535 1.360 . S
C540 C538 1.431 . S
C540 C544 1.432 . S
H541 C546 0.930 . S
N542 Tb504 2.600 . S
N542 C544 1.359 . S
N542 C545 1.327 . S
C543 H529 0.931 . S
C543 C545 1.392 . S
C543 C546 1.370 1_655 S
C544 C540 1.432 . S
C544 N542 1.359 . S
C544 C547 1.414 . S
C545 H527 0.930 . S
C545 N542 1.327 . S
C545 C543 1.392 . S
C546 H541 0.930 . S
C546 C543 1.370 1_455 S
C546 C547 1.385 1_455 S
C547 C544 1.414 . S
C547 C546 1.385 1_655 S
C547 C569 1.444 1_655 S
O548 Tb504 2.546 . S
O548 C568 1.251 . S
O549 Tb504 2.610 . S
O549 Tb515 2.362 1_554 S
O549 C560 1.283 . S
O550 Tb515 2.421 . S
O550 C567 1.262 . S
O551 Tb504 2.320 . S
O551 C567 1.260 1_554 S
O552 Tb504 2.552 . S
O552 C560 1.243 . S
O553 Tb504 2.413 . S
O553 C568 1.256 . S
O554 Tb515 2.546 . S
O554 C579 1.251 . S
O555 Tb504 2.362 1_556 S
O555 Tb515 2.610 . S
O555 C571 1.283 . S
O556 Tb504 2.421 . S
O556 C578 1.262 . S
O557 Tb515 2.320 1_554 S
O557 C578 1.260 . S
O558 Tb515 2.552 . S
O558 C571 1.243 . S
O559 Tb515 2.413 . S
O559 C579 1.256 . S
C560 O549 1.283 . S
C560 O552 1.243 . S
C561 C563 1.382 . S
C561 C565 1.393 . S
C561 C568 1.500 . S
C562 C563 1.400 . S
C562 C564 1.384 . S
C563 C561 1.382 . S
C563 C562 1.400 . S
C563 H580 0.930 . S
C564 C562 1.384 . S
C564 C566 1.392 . S
C564 H581 0.931 . S
C565 C561 1.393 . S
C565 C566 1.401 . S
C565 H582 0.930 . S
C566 C564 1.392 . S
C566 C565 1.401 . S
C566 H583 0.930 . S
C567 O550 1.262 . S
C567 O551 1.260 1_556 S
C568 Tb504 2.833 . S
C568 O548 1.251 . S
C568 O553 1.256 . S
C568 C561 1.500 . S
C569 H534 0.929 . S
C569 C547 1.444 1_455 S
C569 C570 1.317 1_455 S
C570 H532 0.930 1_554 S
C570 C538 1.439 . S
C570 C569 1.317 1_655 S
C571 O555 1.283 . S
C571 O558 1.243 . S
C572 C573 1.382 . S
C572 C576 1.393 . S
C572 C579 1.500 . S
C573 C572 1.382 . S
C573 C574 1.400 . S
C573 H584 0.930 . S
C574 C573 1.400 . S
C574 C575 1.384 . S
C575 C574 1.384 . S
C575 C577 1.392 . S
C575 H585 0.931 . S
C576 C572 1.393 . S
C576 C577 1.401 . S
C576 H586 0.930 . S
C577 C575 1.392 . S
C577 C576 1.401 . S
C577 H587 0.930 . S
C578 O556 1.262 . S
C578 O557 1.260 . S
C579 Tb515 2.833 . S
C579 O554 1.251 . S
C579 O559 1.256 . S
C579 C572 1.500 . S
H580 C563 0.930 . S
H581 C564 0.931 . S
H582 C565 0.930 . S
H583 C566 0.930 . S
H584 C573 0.930 . S
H585 C575 0.931 . S
H586 C576 0.930 . S
H587 C577 0.930 . S
Tb588 N619 2.660 . S
Tb588 N626 2.600 . S
Tb588 O632 2.546 . S
Tb588 O633 2.610 . S
Tb588 O635 2.320 . S
Tb588 O636 2.552 . S
Tb588 O637 2.413 . S
Tb588 O639 2.362 . S
Tb588 O640 2.421 . S
Tb588 C652 2.833 . S
C589 C592 1.432 . S
C589 C593 1.414 . S
C589 N596 1.359 . S
C590 C592 1.417 . S
C590 C594 1.432 . S
C590 C602 1.410 . S
C591 C593 1.444 . S
C591 C594 1.317 . S
C591 H614 0.929 . S
C592 C589 1.432 . S
C592 C590 1.417 . S
C592 N600 1.360 . S
C593 C589 1.414 . S
C593 C591 1.444 . S
C593 C598 1.385 . S
C594 C590 1.432 . S
C594 C591 1.317 . S
C594 H606 0.930 . S
C595 C597 1.392 . S
C595 C598 1.370 . S
C595 H607 0.931 . S
N596 C589 1.359 . S
N596 C597 1.327 . S
N596 Tb599 2.600 . S
C597 C595 1.392 . S
C597 N596 1.327 . S
C597 H604 0.930 . S
C598 C593 1.385 . S
C598 C595 1.370 . S
C598 H617 0.930 . S
Tb599 N596 2.600 . S
Tb599 N600 2.660 . S
Tb599 O633 2.362 . S
Tb599 O634 2.421 . S
Tb599 O638 2.546 . S
Tb599 O639 2.610 . S
Tb599 O641 2.320 . S
Tb599 O642 2.552 . S
Tb599 O643 2.413 . S
Tb599 C663 2.833 . S
N600 C592 1.360 . S
N600 Tb599 2.660 . S
N600 C601 1.305 . S
C601 N600 1.305 . S
C601 C603 1.407 . S
C601 H608 0.930 . S
C602 C590 1.410 . S
C602 C603 1.345 . S
C602 H610 0.930 . S
C603 C601 1.407 . S
C603 C602 1.345 . S
C603 H605 0.930 . S
H604 C597 0.930 . S
H605 C603 0.930 . S
H606 C594 0.930 . S
H607 C595 0.931 . S
H608 C601 0.930 . S
H609 C623 0.930 . S
H610 C602 0.930 . S
H611 C629 0.930 . S
H612 C620 0.930 . S
H613 C627 0.931 . S
H614 C591 0.929 . S
H615 C621 0.930 . S
H616 C654 0.930 . S
H617 C598 0.930 . S
H618 C653 0.929 . S
N619 Tb588 2.660 . S
N619 C620 1.305 . S
N619 C624 1.360 . S
C620 H612 0.930 . S
C620 N619 1.305 . S
C620 C623 1.407 . S
C621 H615 0.930 . S
C621 C622 1.410 . S
C621 C623 1.345 . S
C622 C621 1.410 . S
C622 C624 1.417 . S
C622 C654 1.432 . S
C623 H609 0.930 . S
C623 C620 1.407 . S
C623 C621 1.345 . S
C624 N619 1.360 . S
C624 C622 1.417 . S
C624 C628 1.432 . S
H625 C630 0.930 . S
N626 Tb588 2.600 . S
N626 C628 1.359 . S
N626 C629 1.327 . S
C627 H613 0.931 . S
C627 C629 1.392 . S
C627 C630 1.370 . S
C628 C624 1.432 . S
C628 N626 1.359 . S
C628 C631 1.414 . S
C629 H611 0.930 . S
C629 N626 1.327 . S
C629 C627 1.392 . S
C630 H625 0.930 . S
C630 C627 1.370 . S
C630 C631 1.385 . S
C631 C628 1.414 . S
C631 C630 1.385 . S
C631 C653 1.444 . S
O632 Tb588 2.546 . S
O632 C652 1.251 . S
O633 Tb588 2.610 . S
O633 Tb599 2.362 . S
O633 C644 1.283 . S
O634 Tb599 2.421 . S
O634 C651 1.262 . S
O635 Tb588 2.320 . S
O635 C651 1.260 . S
O636 Tb588 2.552 . S
O636 C644 1.243 . S
O637 Tb588 2.413 . S
O637 C652 1.256 . S
O638 Tb599 2.546 . S
O638 C663 1.251 . S
O639 Tb588 2.362 . S
O639 Tb599 2.610 . S
O639 C655 1.283 . S
O640 Tb588 2.421 . S
O640 C662 1.262 . S
O641 Tb599 2.320 . S
O641 C662 1.260 . S
O642 Tb599 2.552 . S
O642 C655 1.243 . S
O643 Tb599 2.413 . S
O643 C663 1.256 . S
C644 O633 1.283 . S
C644 O636 1.243 . S
C645 C647 1.382 . S
C645 C649 1.393 . S
C645 C652 1.500 . S
C646 C647 1.400 . S
C646 C648 1.384 . S
C647 C645 1.382 . S
C647 C646 1.400 . S
C647 H664 0.930 . S
C648 C646 1.384 . S
C648 C650 1.392 . S
C648 H665 0.931 . S
C649 C645 1.393 . S
C649 C650 1.401 . S
C649 H666 0.930 . S
C650 C648 1.392 . S
C650 C649 1.401 . S
C650 H667 0.930 . S
C651 O634 1.262 . S
C651 O635 1.260 . S
C652 Tb588 2.833 . S
C652 O632 1.251 . S
C652 O637 1.256 . S
C652 C645 1.500 . S
C653 H618 0.929 . S
C653 C631 1.444 . S
C653 C654 1.317 . S
C654 H616 0.930 . S
C654 C622 1.432 . S
C654 C653 1.317 . S
C655 O639 1.283 . S
C655 O642 1.243 . S
C656 C657 1.382 . S
C656 C660 1.393 . S
C656 C663 1.500 . S
C657 C656 1.382 . S
C657 C658 1.400 . S
C657 H668 0.930 . S
C658 C657 1.400 . S
C658 C659 1.384 . S
C659 C658 1.384 . S
C659 C661 1.392 . S
C659 H669 0.931 . S
C660 C656 1.393 . S
C660 C661 1.401 . S
C660 H670 0.930 . S
C661 C659 1.392 . S
C661 C660 1.401 . S
C661 H671 0.930 . S
C662 O640 1.262 . S
C662 O641 1.260 . S
C663 Tb599 2.833 . S
C663 O638 1.251 . S
C663 O643 1.256 . S
C663 C656 1.500 . S
H664 C647 0.930 . S
H665 C648 0.931 . S
H666 C649 0.930 . S
H667 C650 0.930 . S
H668 C657 0.930 . S
H669 C659 0.931 . S
H670 C660 0.930 . S
H671 C661 0.930 . S
Tb672 N703 2.660 . S
Tb672 N710 2.600 . S
Tb672 O716 2.546 . S
Tb672 O717 2.610 . S
Tb672 O719 2.320 . S
Tb672 O720 2.552 . S
Tb672 O721 2.413 . S
Tb672 O723 2.362 . S
Tb672 O724 2.421 . S
Tb672 C736 2.833 . S
C673 C676 1.432 . S
C673 C677 1.414 . S
C673 N680 1.359 . S
C674 C676 1.417 . S
C674 C678 1.432 . S
C674 C686 1.410 . S
C675 C677 1.444 1_556 S
C675 C678 1.317 1_556 S
C675 H698 0.929 . S
C676 C673 1.432 . S
C676 C674 1.417 . S
C676 N684 1.360 . S
C677 C673 1.414 . S
C677 C675 1.444 1_554 S
C677 C682 1.385 1_554 S
C678 C674 1.432 . S
C678 C675 1.317 1_554 S
C678 H690 0.930 . S
C679 C681 1.392 . S
C679 C682 1.370 1_554 S
C679 H691 0.931 . S
N680 C673 1.359 . S
N680 C681 1.327 . S
N680 Tb683 2.600 . S
C681 C679 1.392 . S
C681 N680 1.327 . S
C681 H688 0.930 . S
C682 C677 1.385 1_556 S
C682 C679 1.370 1_556 S
C682 H701 0.930 . S
Tb683 N680 2.600 . S
Tb683 N684 2.660 . S
Tb683 O717 2.362 . S
Tb683 O718 2.421 . S
Tb683 O722 2.546 . S
Tb683 O723 2.610 . S
Tb683 O725 2.320 . S
Tb683 O726 2.552 . S
Tb683 O727 2.413 . S
Tb683 C747 2.833 . S
N684 C676 1.360 . S
N684 Tb683 2.660 . S
N684 C685 1.305 . S
C685 N684 1.305 . S
C685 C687 1.407 . S
C685 H692 0.930 . S
C686 C674 1.410 . S
C686 C687 1.345 . S
C686 H694 0.930 . S
C687 C685 1.407 . S
C687 C686 1.345 . S
C687 H689 0.930 . S
H688 C681 0.930 . S
H689 C687 0.930 . S
H690 C678 0.930 . S
H691 C679 0.931 . S
H692 C685 0.930 . S
H693 C707 0.930 . S
H694 C686 0.930 . S
H695 C713 0.930 . S
H696 C704 0.930 . S
H697 C711 0.931 . S
H698 C675 0.929 . S
H699 C705 0.930 . S
H700 C738 0.930 . S
H701 C682 0.930 . S
H702 C737 0.929 . S
N703 Tb672 2.660 . S
N703 C704 1.305 . S
N703 C708 1.360 . S
C704 H696 0.930 . S
C704 N703 1.305 . S
C704 C707 1.407 . S
C705 H699 0.930 . S
C705 C706 1.410 . S
C705 C707 1.345 . S
C706 C705 1.410 . S
C706 C708 1.417 . S
C706 C738 1.432 . S
C707 H693 0.930 . S
C707 C704 1.407 . S
C707 C705 1.345 . S
C708 N703 1.360 . S
C708 C706 1.417 . S
C708 C712 1.432 . S
H709 C714 0.930 . S
N710 Tb672 2.600 . S
N710 C712 1.359 . S
N710 C713 1.327 . S
C711 H697 0.931 . S
C711 C713 1.392 . S
C711 C714 1.370 . S
C712 C708 1.432 . S
C712 N710 1.359 . S
C712 C715 1.414 . S
C713 H695 0.930 . S
C713 N710 1.327 . S
C713 C711 1.392 . S
C714 H709 0.930 . S
C714 C711 1.370 . S
C714 C715 1.385 . S
C715 C712 1.414 . S
C715 C714 1.385 . S
C715 C737 1.444 . S
O716 Tb672 2.546 . S
O716 C736 1.251 . S
O717 Tb672 2.610 . S
O717 Tb683 2.362 . S
O717 C728 1.283 . S
O718 Tb683 2.421 . S
O718 C735 1.262 . S
O719 Tb672 2.320 . S
O719 C735 1.260 . S
O720 Tb672 2.552 . S
O720 C728 1.243 . S
O721 Tb672 2.413 . S
O721 C736 1.256 . S
O722 Tb683 2.546 . S
O722 C747 1.251 . S
O723 Tb672 2.362 . S
O723 Tb683 2.610 . S
O723 C739 1.283 . S
O724 Tb672 2.421 . S
O724 C746 1.262 . S
O725 Tb683 2.320 . S
O725 C746 1.260 . S
O726 Tb683 2.552 . S
O726 C739 1.243 . S
O727 Tb683 2.413 . S
O727 C747 1.256 . S
C728 O717 1.283 . S
C728 O720 1.243 . S
C729 C731 1.382 . S
C729 C733 1.393 . S
C729 C736 1.500 . S
C730 C731 1.400 . S
C730 C732 1.384 . S
C731 C729 1.382 . S
C731 C730 1.400 . S
C731 H748 0.930 . S
C732 C730 1.384 . S
C732 C734 1.392 . S
C732 H749 0.931 . S
C733 C729 1.393 . S
C733 C734 1.401 . S
C733 H750 0.930 . S
C734 C732 1.392 . S
C734 C733 1.401 . S
C734 H751 0.930 . S
C735 O718 1.262 . S
C735 O719 1.260 . S
C736 Tb672 2.833 . S
C736 O716 1.251 . S
C736 O721 1.256 . S
C736 C729 1.500 . S
C737 H702 0.929 . S
C737 C715 1.444 . S
C737 C738 1.317 . S
C738 H700 0.930 . S
C738 C706 1.432 . S
C738 C737 1.317 . S
C739 O723 1.283 . S
C739 O726 1.243 . S
C740 C741 1.382 . S
C740 C744 1.393 . S
C740 C747 1.500 . S
C741 C740 1.382 . S
C741 C742 1.400 . S
C741 H752 0.930 . S
C742 C741 1.400 . S
C742 C743 1.384 . S
C743 C742 1.384 . S
C743 C745 1.392 . S
C743 H753 0.931 . S
C744 C740 1.393 . S
C744 C745 1.401 . S
C744 H754 0.930 . S
C745 C743 1.392 . S
C745 C744 1.401 . S
C745 H755 0.930 . S
C746 O724 1.262 . S
C746 O725 1.260 . S
C747 Tb683 2.833 . S
C747 O722 1.251 . S
C747 O727 1.256 . S
C747 C740 1.500 . S
H748 C731 0.930 . S
H749 C732 0.931 . S
H750 C733 0.930 . S
H751 C734 0.930 . S
H752 C741 0.930 . S
H753 C743 0.931 . S
H754 C744 0.930 . S
H755 C745 0.930 . S
Tb756 N787 2.660 . S
Tb756 N794 2.600 . S
Tb756 O800 2.546 . S
Tb756 O801 2.610 1_565 S
Tb756 O803 2.320 . S
Tb756 O804 2.552 1_565 S
Tb756 O805 2.413 . S
Tb756 O807 2.362 1_565 S
Tb756 O808 2.421 1_565 S
Tb756 C820 2.833 . S
C757 C760 1.432 . S
C757 C761 1.414 . S
C757 N764 1.359 . S
C758 C760 1.417 . S
C758 C762 1.432 . S
C758 C770 1.410 . S
C759 C761 1.444 1_554 S
C759 C762 1.317 1_554 S
C759 H782 0.929 . S
C760 C757 1.432 . S
C760 C758 1.417 . S
C760 N768 1.360 . S
C761 C757 1.414 . S
C761 C759 1.444 1_556 S
C761 C766 1.385 1_556 S
C762 C758 1.432 . S
C762 C759 1.317 1_556 S
C762 H774 0.930 . S
C763 C765 1.392 . S
C763 C766 1.370 1_556 S
C763 H775 0.931 . S
N764 C757 1.359 . S
N764 C765 1.327 . S
N764 Tb767 2.600 . S
C765 C763 1.392 . S
C765 N764 1.327 . S
C765 H772 0.930 . S
C766 C761 1.385 1_554 S
C766 C763 1.370 1_554 S
C766 H785 0.930 . S
Tb767 N764 2.600 . S
Tb767 N768 2.660 . S
Tb767 O801 2.362 . S
Tb767 O802 2.421 1_545 S
Tb767 O806 2.546 . S
Tb767 O807 2.610 . S
Tb767 O809 2.320 . S
Tb767 O810 2.552 . S
Tb767 O811 2.413 . S
Tb767 C831 2.833 . S
N768 C760 1.360 . S
N768 Tb767 2.660 . S
N768 C769 1.305 . S
C769 N768 1.305 . S
C769 C771 1.407 . S
C769 H776 0.930 . S
C770 C758 1.410 . S
C770 C771 1.345 . S
C770 H778 0.930 . S
C771 C769 1.407 . S
C771 C770 1.345 . S
C771 H773 0.930 . S
H772 C765 0.930 . S
H773 C771 0.930 . S
H774 C762 0.930 . S
H775 C763 0.931 . S
H776 C769 0.930 . S
H777 C791 0.930 . S
H778 C770 0.930 . S
H779 C797 0.930 1_545 S
H780 C788 0.930 . S
H781 C795 0.931 . S
H782 C759 0.929 . S
H783 C789 0.930 . S
H784 C822 0.930 . S
H785 C766 0.930 . S
H786 C821 0.929 . S
N787 Tb756 2.660 . S
N787 C788 1.305 . S
N787 C792 1.360 . S
C788 H780 0.930 . S
C788 N787 1.305 . S
C788 C791 1.407 . S
C789 H783 0.930 . S
C789 C790 1.410 . S
C789 C791 1.345 . S
C790 C789 1.410 . S
C790 C792 1.417 . S
C790 C822 1.432 . S
C791 H777 0.930 . S
C791 C788 1.407 . S
C791 C789 1.345 . S
C792 N787 1.360 . S
C792 C790 1.417 . S
C792 C796 1.432 . S
H793 C798 0.930 . S
N794 Tb756 2.600 . S
N794 C796 1.359 . S
N794 C797 1.327 . S
C795 H781 0.931 . S
C795 C797 1.392 . S
C795 C798 1.370 . S
C796 C792 1.432 . S
C796 N794 1.359 . S
C796 C799 1.414 . S
C797 H779 0.930 1_565 S
C797 N794 1.327 . S
C797 C795 1.392 . S
C798 H793 0.930 . S
C798 C795 1.370 . S
C798 C799 1.385 . S
C799 C796 1.414 . S
C799 C798 1.385 . S
C799 C821 1.444 . S
O800 Tb756 2.546 . S
O800 C820 1.251 . S
O801 Tb756 2.610 1_545 S
O801 Tb767 2.362 . S
O801 C812 1.283 . S
O802 Tb767 2.421 1_565 S
O802 C819 1.262 . S
O803 Tb756 2.320 . S
O803 C819 1.260 . S
O804 Tb756 2.552 1_545 S
O804 C812 1.243 . S
O805 Tb756 2.413 . S
O805 C820 1.256 . S
O806 Tb767 2.546 . S
O806 C831 1.251 . S
O807 Tb756 2.362 1_545 S
O807 Tb767 2.610 . S
O807 C823 1.283 . S
O808 Tb756 2.421 1_545 S
O808 C830 1.262 . S
O809 Tb767 2.320 . S
O809 C830 1.260 . S
O810 Tb767 2.552 . S
O810 C823 1.243 . S
O811 Tb767 2.413 . S
O811 C831 1.256 . S
C812 O801 1.283 . S
C812 O804 1.243 . S
C813 C815 1.382 . S
C813 C817 1.393 . S
C813 C820 1.500 . S
C814 C815 1.400 . S
C814 C816 1.384 . S
C815 C813 1.382 . S
C815 C814 1.400 . S
C815 H832 0.930 . S
C816 C814 1.384 . S
C816 C818 1.392 . S
C816 H833 0.931 . S
C817 C813 1.393 . S
C817 C818 1.401 . S
C817 H834 0.930 . S
C818 C816 1.392 . S
C818 C817 1.401 . S
C818 H835 0.930 . S
C819 O802 1.262 . S
C819 O803 1.260 . S
C820 Tb756 2.833 . S
C820 O800 1.251 . S
C820 O805 1.256 . S
C820 C813 1.500 . S
C821 H786 0.929 . S
C821 C799 1.444 . S
C821 C822 1.317 . S
C822 H784 0.930 . S
C822 C790 1.432 . S
C822 C821 1.317 . S
C823 O807 1.283 . S
C823 O810 1.243 . S
C824 C825 1.382 . S
C824 C828 1.393 . S
C824 C831 1.500 . S
C825 C824 1.382 . S
C825 C826 1.400 . S
C825 H836 0.930 . S
C826 C825 1.400 . S
C826 C827 1.384 . S
C827 C826 1.384 . S
C827 C829 1.392 . S
C827 H837 0.931 . S
C828 C824 1.393 . S
C828 C829 1.401 . S
C828 H838 0.930 . S
C829 C827 1.392 . S
C829 C828 1.401 . S
C829 H839 0.930 . S
C830 O808 1.262 . S
C830 O809 1.260 . S
C831 Tb767 2.833 . S
C831 O806 1.251 . S
C831 O811 1.256 . S
C831 C824 1.500 . S
H832 C815 0.930 . S
H833 C816 0.931 . S
H834 C817 0.930 . S
H835 C818 0.930 . S
H836 C825 0.930 . S
H837 C827 0.931 . S
H838 C828 0.930 . S
H839 C829 0.930 . S
Tb840 N871 2.660 . S
Tb840 N878 2.600 . S
Tb840 O884 2.546 . S
Tb840 O885 2.610 . S
Tb840 O887 2.320 . S
Tb840 O888 2.552 . S
Tb840 O889 2.413 . S
Tb840 O891 2.362 1_565 S
Tb840 O892 2.421 . S
Tb840 C904 2.833 . S
C841 C844 1.432 1_545 S
C841 C845 1.414 . S
C841 N848 1.359 . S
C842 C844 1.417 . S
C842 C846 1.432 . S
C842 C854 1.410 . S
C843 C845 1.444 . S
C843 C846 1.317 1_545 S
C843 H866 0.929 . S
C844 C841 1.432 1_565 S
C844 C842 1.417 . S
C844 N852 1.360 . S
C845 C841 1.414 . S
C845 C843 1.444 . S
C845 C850 1.385 . S
C846 C842 1.432 . S
C846 C843 1.317 1_565 S
C846 H858 0.930 . S
C847 C849 1.392 . S
C847 C850 1.370 . S
C847 H859 0.931 . S
N848 C841 1.359 . S
N848 C849 1.327 . S
N848 Tb851 2.600 . S
C849 C847 1.392 . S
C849 N848 1.327 . S
C849 H856 0.930 . S
C850 C845 1.385 . S
C850 C847 1.370 . S
C850 H869 0.930 . S
Tb851 N848 2.600 . S
Tb851 N852 2.660 1_545 S
Tb851 O885 2.362 1_545 S
Tb851 O886 2.421 . S
Tb851 O890 2.546 . S
Tb851 O891 2.610 . S
Tb851 O893 2.320 1_545 S
Tb851 O894 2.552 . S
Tb851 O895 2.413 . S
Tb851 C915 2.833 . S
N852 C844 1.360 . S
N852 Tb851 2.660 1_565 S
N852 C853 1.305 . S
C853 N852 1.305 . S
C853 C855 1.407 . S
C853 H860 0.930 . S
C854 C842 1.410 . S
C854 C855 1.345 . S
C854 H862 0.930 . S
C855 C853 1.407 . S
C855 C854 1.345 . S
C855 H857 0.930 . S
H856 C849 0.930 . S
H857 C855 0.930 . S
H858 C846 0.930 . S
H859 C847 0.931 . S
H860 C853 0.930 . S
H861 C875 0.930 . S
H862 C854 0.930 . S
H863 C881 0.930 . S
H864 C872 0.930 . S
H865 C879 0.931 . S
H866 C843 0.929 . S
H867 C873 0.930 . S
H868 C906 0.936 . S
H869 C850 0.930 . S
H870 C905 0.929 . S
N871 Tb840 2.660 . S
N871 C872 1.305 1_565 S
N871 C876 1.360 . S
C872 H864 0.930 . S
C872 N871 1.305 1_545 S
C872 C875 1.407 . S
C873 H867 0.930 . S
C873 C874 1.410 1_545 S
C873 C875 1.345 . S
C874 C873 1.410 1_565 S
C874 C876 1.417 . S
C874 C906 1.432 . S
C875 H861 0.930 . S
C875 C872 1.407 . S
C875 C873 1.345 . S
C876 N871 1.360 . S
C876 C874 1.417 . S
C876 C880 1.432 . S
H877 C882 0.930 . S
N878 Tb840 2.600 . S
N878 C880 1.359 . S
N878 C881 1.327 . S
C879 H865 0.931 . S
C879 C881 1.392 . S
C879 C882 1.370 . S
C880 C876 1.432 . S
C880 N878 1.359 . S
C880 C883 1.414 . S
C881 H863 0.930 . S
C881 N878 1.327 . S
C881 C879 1.392 . S
C882 H877 0.930 . S
C882 C879 1.370 . S
C882 C883 1.385 . S
C883 C880 1.414 . S
C883 C882 1.385 . S
C883 C905 1.444 . S
O884 Tb840 2.546 . S
O884 C904 1.251 . S
O885 Tb840 2.610 . S
O885 Tb851 2.362 1_565 S
O885 C896 1.283 . S
O886 Tb851 2.421 . S
O886 C903 1.262 . S
O887 Tb840 2.320 . S
O887 C903 1.260 1_565 S
O888 Tb840 2.552 . S
O888 C896 1.243 . S
O889 Tb840 2.413 . S
O889 C904 1.256 . S
O890 Tb851 2.546 . S
O890 C915 1.251 . S
O891 Tb840 2.362 1_545 S
O891 Tb851 2.610 . S
O891 C907 1.283 . S
O892 Tb840 2.421 . S
O892 C914 1.262 . S
O893 Tb851 2.320 1_565 S
O893 C914 1.260 . S
O894 Tb851 2.552 . S
O894 C907 1.243 . S
O895 Tb851 2.413 . S
O895 C915 1.256 . S
C896 O885 1.283 . S
C896 O888 1.243 . S
C897 C899 1.382 . S
C897 C901 1.393 . S
C897 C904 1.500 . S
C898 C899 1.400 . S
C898 C900 1.384 . S
C899 C897 1.382 . S
C899 C898 1.400 . S
C899 H916 0.930 . S
C900 C898 1.384 . S
C900 C902 1.392 . S
C900 H917 0.931 . S
C901 C897 1.393 . S
C901 C902 1.401 . S
C901 H918 0.930 . S
C902 C900 1.392 . S
C902 C901 1.401 . S
C902 H919 0.930 . S
C903 O886 1.262 . S
C903 O887 1.260 1_545 S
C904 Tb840 2.833 . S
C904 O884 1.251 . S
C904 O889 1.256 . S
C904 C897 1.500 . S
C905 H870 0.929 . S
C905 C883 1.444 . S
C905 C906 1.317 . S
C906 H868 0.936 . S
C906 C874 1.432 . S
C906 C905 1.317 . S
C907 O891 1.283 . S
C907 O894 1.243 . S
C908 C909 1.382 . S
C908 C912 1.393 . S
C908 C915 1.500 . S
C909 C908 1.382 . S
C909 C910 1.400 . S
C909 H920 0.930 . S
C910 C909 1.400 . S
C910 C911 1.384 . S
C911 C910 1.384 . S
C911 C913 1.392 . S
C911 H921 0.931 . S
C912 C908 1.393 . S
C912 C913 1.401 . S
C912 H922 0.930 . S
C913 C911 1.392 . S
C913 C912 1.401 . S
C913 H923 0.930 . S
C914 O892 1.262 . S
C914 O893 1.260 . S
C915 Tb851 2.833 . S
C915 O890 1.251 . S
C915 O895 1.256 . S
C915 C908 1.500 . S
H916 C899 0.930 . S
H917 C900 0.931 . S
H918 C901 0.930 . S
H919 C902 0.930 . S
H920 C909 0.930 . S
H921 C911 0.931 . S
H922 C912 0.930 . S
H923 C913 0.930 . S
Tb924 N955 2.660 . S
Tb924 N962 2.600 . S
Tb924 O968 2.546 . S
Tb924 O969 2.610 . S
Tb924 O971 2.320 . S
Tb924 O972 2.552 . S
Tb924 O973 2.413 . S
Tb924 O975 2.362 . S
Tb924 O976 2.421 . S
Tb924 C988 2.833 . S
C925 C928 1.432 . S
C925 C929 1.414 . S
C925 N932 1.359 . S
C926 C928 1.417 . S
C926 C930 1.432 . S
C926 C938 1.410 . S
C927 C929 1.444 . S
C927 C930 1.317 . S
C927 H950 0.929 . S
C928 C925 1.432 . S
C928 C926 1.417 . S
C928 N936 1.360 . S
C929 C925 1.414 . S
C929 C927 1.444 . S
C929 C934 1.385 . S
C930 C926 1.432 . S
C930 C927 1.317 . S
C930 H942 0.930 . S
C931 C933 1.392 . S
C931 C934 1.370 . S
C931 H943 0.931 . S
N932 C925 1.359 . S
N932 C933 1.327 . S
N932 Tb935 2.600 . S
C933 C931 1.392 . S
C933 N932 1.327 . S
C933 H940 0.930 . S
C934 C929 1.385 . S
C934 C931 1.370 . S
C934 H953 0.930 . S
Tb935 N932 2.600 . S
Tb935 N936 2.660 . S
Tb935 O969 2.362 . S
Tb935 O970 2.421 . S
Tb935 O974 2.546 . S
Tb935 O975 2.610 . S
Tb935 O977 2.320 . S
Tb935 O978 2.552 . S
Tb935 O979 2.413 . S
Tb935 C999 2.833 . S
N936 C928 1.360 . S
N936 Tb935 2.660 . S
N936 C937 1.305 . S
C937 N936 1.305 . S
C937 C939 1.407 . S
C937 H944 0.930 . S
C938 C926 1.410 . S
C938 C939 1.345 . S
C938 H946 0.930 . S
C939 C937 1.407 . S
C939 C938 1.345 . S
C939 H941 0.930 . S
H940 C933 0.930 . S
H941 C939 0.930 . S
H942 C930 0.930 . S
H943 C931 0.931 . S
H944 C937 0.930 . S
H945 C959 0.930 . S
H946 C938 0.930 . S
H947 C965 0.930 . S
H948 C956 0.930 . S
H949 C963 0.931 . S
H950 C927 0.929 . S
H951 C957 0.930 . S
H952 C990 0.930 . S
H953 C934 0.930 . S
H954 C989 0.929 . S
N955 Tb924 2.660 . S
N955 C956 1.305 . S
N955 C960 1.360 . S
C956 H948 0.930 . S
C956 N955 1.305 . S
C956 C959 1.407 . S
C957 H951 0.930 . S
C957 C958 1.410 . S
C957 C959 1.345 . S
C958 C957 1.410 . S
C958 C960 1.417 . S
C958 C990 1.432 . S
C959 H945 0.930 . S
C959 C956 1.407 . S
C959 C957 1.345 . S
C960 N955 1.360 . S
C960 C958 1.417 . S
C960 C964 1.432 . S
H961 C966 0.930 . S
N962 Tb924 2.600 . S
N962 C964 1.359 . S
N962 C965 1.327 . S
C963 H949 0.931 . S
C963 C965 1.392 . S
C963 C966 1.370 . S
C964 C960 1.432 . S
C964 N962 1.359 . S
C964 C967 1.414 . S
C965 H947 0.930 . S
C965 N962 1.327 . S
C965 C963 1.392 . S
C966 H961 0.930 . S
C966 C963 1.370 . S
C966 C967 1.385 . S
C967 C964 1.414 . S
C967 C966 1.385 . S
C967 C989 1.444 . S
O968 Tb924 2.546 . S
O968 C988 1.251 . S
O969 Tb924 2.610 . S
O969 Tb935 2.362 . S
O969 C980 1.283 . S
O970 Tb935 2.421 . S
O970 C987 1.262 . S
O971 Tb924 2.320 . S
O971 C987 1.260 . S
O972 Tb924 2.552 . S
O972 C980 1.243 . S
O973 Tb924 2.413 . S
O973 C988 1.256 . S
O974 Tb935 2.546 . S
O974 C999 1.251 . S
O975 Tb924 2.362 . S
O975 Tb935 2.610 . S
O975 C991 1.283 . S
O976 Tb924 2.421 . S
O976 C998 1.262 . S
O977 Tb935 2.320 . S
O977 C998 1.260 . S
O978 Tb935 2.552 . S
O978 C991 1.243 . S
O979 Tb935 2.413 . S
O979 C999 1.256 . S
C980 O969 1.283 . S
C980 O972 1.243 . S
C981 C983 1.382 . S
C981 C985 1.393 . S
C981 C988 1.500 . S
C982 C983 1.400 . S
C982 C984 1.384 . S
C983 C981 1.382 . S
C983 C982 1.400 . S
C983 H1000 0.930 . S
C984 C982 1.384 . S
C984 C986 1.392 . S
C984 H1001 0.931 . S
C985 C981 1.393 . S
C985 C986 1.401 . S
C985 H1002 0.930 . S
C986 C984 1.392 . S
C986 C985 1.401 . S
C986 H1003 0.930 . S
C987 O970 1.262 . S
C987 O971 1.260 . S
C988 Tb924 2.833 . S
C988 O968 1.251 . S
C988 O973 1.256 . S
C988 C981 1.500 . S
C989 H954 0.929 . S
C989 C967 1.444 . S
C989 C990 1.317 . S
C990 H952 0.930 . S
C990 C958 1.432 . S
C990 C989 1.317 . S
C991 O975 1.283 . S
C991 O978 1.243 . S
C992 C993 1.382 . S
C992 C996 1.393 . S
C992 C999 1.500 . S
C993 C992 1.382 . S
C993 C994 1.400 . S
C993 H1004 0.930 . S
C994 C993 1.400 . S
C994 C995 1.384 . S
C995 C994 1.384 . S
C995 C997 1.392 . S
C995 H1005 0.931 . S
C996 C992 1.393 . S
C996 C997 1.401 . S
C996 H1006 0.930 . S
C997 C995 1.392 . S
C997 C996 1.401 . S
C997 H1007 0.930 . S
C998 O976 1.262 . S
C998 O977 1.260 . S
C999 Tb935 2.833 . S
C999 O974 1.251 . S
C999 O979 1.256 . S
C999 C992 1.500 . S
H1000 C983 0.930 . S
H1001 C984 0.931 . S
H1002 C985 0.930 . S
H1003 C986 0.930 . S
H1004 C993 0.930 . S
H1005 C995 0.931 . S
H1006 C996 0.930 . S
H1007 C997 0.930 . S
H1008 C1020 0.930 . S
H1009 C1022 0.930 . S
H1010 C1023 0.930 . S
H1011 C1027 0.959 . S
H1012 C1027 0.959 . S
H1013 C1027 0.961 . S
H1014 C1028 0.960 . S
H1015 C1028 0.961 . S
H1016 C1028 0.959 . S
H1017 C1031 0.929 . S
H1018 C1032 0.931 . S
H1019 C1034 0.930 . S
C1020 H1008 0.930 . S
C1020 C1021 1.399 . S
C1020 C1025 1.399 . S
C1021 C1020 1.399 . S
C1021 C1022 1.376 . S
C1022 H1009 0.930 . S
C1022 C1021 1.376 . S
C1022 C1023 1.388 . S
C1023 H1010 0.930 . S
C1023 C1022 1.388 . S
C1023 C1024 1.390 . S
C1024 C1023 1.390 . S
C1024 C1025 1.394 . S
C1024 C1030 1.465 . S
C1025 C1020 1.399 . S
C1025 C1024 1.394 . S
C1025 C1026 1.516 . S
C1026 C1025 1.516 . S
C1026 C1027 1.502 . S
C1026 C1028 1.561 . S
C1026 C1029 1.526 . S
C1027 H1011 0.959 . S
C1027 H1012 0.959 . S
C1027 H1013 0.961 . S
C1027 C1026 1.502 . S
C1028 H1014 0.960 . S
C1028 H1015 0.961 . S
C1028 H1016 0.959 . S
C1028 C1026 1.561 . S
C1029 C1026 1.526 . S
C1029 C1030 1.396 . S
C1029 C1034 1.390 . S
C1030 C1024 1.465 . S
C1030 C1029 1.396 . S
C1030 C1031 1.399 . S
C1031 H1017 0.929 . S
C1031 C1030 1.399 . S
C1031 C1032 1.385 . S
C1032 H1018 0.931 . S
C1032 C1031 1.385 . S
C1032 C1033 1.389 . S
C1033 C1032 1.389 . S
C1033 C1034 1.387 . S
C1034 H1019 0.930 . S
C1034 C1029 1.390 . S
C1034 C1033 1.387 . S
H1035 C1047 0.930 . S
H1036 C1049 0.930 . S
H1037 C1050 0.930 . S
H1038 C1054 0.959 1_565 S
H1039 C1054 0.959 . S
H1040 C1054 0.961 . S
H1041 C1055 0.960 . S
H1042 C1055 0.961 . S
H1043 C1055 0.959 . S
H1044 C1058 0.929 . S
H1045 C1059 0.931 . S
H1046 C1061 0.930 . S
C1047 H1035 0.930 . S
C1047 C1048 1.399 1_545 S
C1047 C1052 1.399 1_545 S
C1048 C1047 1.399 1_565 S
C1048 C1049 1.376 . S
C1049 H1036 0.930 . S
C1049 C1048 1.376 . S
C1049 C1050 1.388 . S
C1050 H1037 0.930 . S
C1050 C1049 1.388 . S
C1050 C1051 1.390 . S
C1051 C1050 1.390 . S
C1051 C1052 1.394 . S
C1051 C1057 1.465 . S
C1052 C1047 1.399 1_565 S
C1052 C1051 1.394 . S
C1052 C1053 1.516 . S
C1053 C1052 1.516 . S
C1053 C1054 1.502 1_565 S
C1053 C1055 1.561 1_565 S
C1053 C1056 1.526 . S
C1054 H1038 0.959 1_545 S
C1054 H1039 0.959 . S
C1054 H1040 0.961 . S
C1054 C1053 1.502 1_545 S
C1055 H1041 0.960 . S
C1055 H1042 0.961 . S
C1055 H1043 0.959 . S
C1055 C1053 1.561 1_545 S
C1056 C1053 1.526 . S
C1056 C1057 1.396 . S
C1056 C1061 1.390 . S
C1057 C1051 1.465 . S
C1057 C1056 1.396 . S
C1057 C1058 1.399 . S
C1058 H1044 0.929 . S
C1058 C1057 1.399 . S
C1058 C1059 1.385 . S
C1059 H1045 0.931 . S
C1059 C1058 1.385 . S
C1059 C1060 1.389 . S
C1060 C1059 1.389 . S
C1060 C1061 1.387 . S
C1061 H1046 0.930 . S
C1061 C1056 1.390 . S
C1061 C1060 1.387 . S
H1062 C1074 0.930 1_556 S
H1063 C1076 0.930 . S
H1064 C1077 0.930 . S
H1065 C1081 0.959 . S
H1066 C1081 0.959 1_556 S
H1067 C1081 0.961 1_556 S
H1068 C1082 0.960 . S
H1069 C1082 0.961 . S
H1070 C1082 0.959 . S
H1071 C1085 0.929 . S
H1072 C1086 0.931 . S
H1073 C1088 0.930 . S
C1074 H1062 0.930 1_554 S
C1074 C1075 1.399 . S
C1074 C1079 1.399 . S
C1075 C1074 1.399 . S
C1075 C1076 1.376 . S
C1076 H1063 0.930 . S
C1076 C1075 1.376 . S
C1076 C1077 1.388 . S
C1077 H1064 0.930 . S
C1077 C1076 1.388 . S
C1077 C1078 1.390 . S
C1078 C1077 1.390 . S
C1078 C1079 1.394 . S
C1078 C1084 1.465 . S
C1079 C1074 1.399 . S
C1079 C1078 1.394 . S
C1079 C1080 1.516 . S
C1080 C1079 1.516 . S
C1080 C1081 1.502 . S
C1080 C1082 1.561 1_554 S
C1080 C1083 1.526 . S
C1081 H1065 0.959 . S
C1081 H1066 0.959 1_554 S
C1081 H1067 0.961 1_554 S
C1081 C1080 1.502 . S
C1082 H1068 0.960 . S
C1082 H1069 0.961 . S
C1082 H1070 0.959 . S
C1082 C1080 1.561 1_556 S
C1083 C1080 1.526 . S
C1083 C1084 1.396 . S
C1083 C1088 1.390 . S
C1084 C1078 1.465 . S
C1084 C1083 1.396 . S
C1084 C1085 1.399 . S
C1085 H1071 0.929 . S
C1085 C1084 1.399 . S
C1085 C1086 1.385 . S
C1086 H1072 0.931 . S
C1086 C1085 1.385 . S
C1086 C1087 1.389 . S
C1087 C1086 1.389 . S
C1087 C1088 1.387 . S
C1088 H1073 0.930 . S
C1088 C1083 1.390 . S
C1088 C1087 1.387 . S
H1089 C1101 0.930 . S
H1090 C1103 0.930 . S
H1091 C1104 0.930 . S
H1092 C1108 0.959 . S
H1093 C1108 0.959 . S
H1094 C1108 0.961 . S
H1095 C1109 0.960 . S
H1096 C1109 0.961 . S
H1097 C1109 0.959 1_565 S
H1098 C1112 0.929 . S
H1099 C1113 0.931 . S
H1100 C1115 0.930 . S
C1101 H1089 0.930 . S
C1101 C1102 1.399 . S
C1101 C1106 1.399 . S
C1102 C1101 1.399 . S
C1102 C1103 1.376 . S
C1103 H1090 0.930 . S
C1103 C1102 1.376 . S
C1103 C1104 1.388 . S
C1104 H1091 0.930 . S
C1104 C1103 1.388 . S
C1104 C1105 1.390 . S
C1105 C1104 1.390 . S
C1105 C1106 1.394 . S
C1105 C1111 1.465 . S
C1106 C1101 1.399 . S
C1106 C1105 1.394 . S
C1106 C1107 1.516 . S
C1107 C1106 1.516 . S
C1107 C1108 1.502 . S
C1107 C1109 1.561 . S
C1107 C1110 1.526 . S
C1108 H1092 0.959 . S
C1108 H1093 0.959 . S
C1108 H1094 0.961 . S
C1108 C1107 1.502 . S
C1109 H1095 0.960 . S
C1109 H1096 0.961 . S
C1109 H1097 0.959 1_545 S
C1109 C1107 1.561 . S
C1110 C1107 1.526 . S
C1110 C1111 1.396 . S
C1110 C1115 1.390 . S
C1111 C1105 1.465 . S
C1111 C1110 1.396 . S
C1111 C1112 1.399 . S
C1112 H1098 0.929 . S
C1112 C1111 1.399 . S
C1112 C1113 1.385 . S
C1113 H1099 0.931 . S
C1113 C1112 1.385 . S
C1113 C1114 1.389 . S
C1114 C1113 1.389 . S
C1114 C1115 1.387 . S
C1115 H1100 0.930 . S
C1115 C1110 1.390 . S
C1115 C1114 1.387 . S
H1116 C1128 0.930 . S
H1117 C1130 0.930 . S
H1118 C1131 0.930 . S
H1119 C1135 0.959 . S
H1120 C1135 0.959 . S
H1121 C1135 0.961 . S
H1122 C1136 0.960 . S
H1123 C1136 0.961 . S
H1124 C1136 0.959 . S
H1125 C1139 0.929 . S
H1126 C1140 0.931 . S
H1127 C1142 0.930 . S
C1128 H1116 0.930 . S
C1128 C1129 1.399 . S
C1128 C1133 1.399 . S
C1129 C1128 1.399 . S
C1129 C1130 1.376 . S
C1130 H1117 0.930 . S
C1130 C1129 1.376 . S
C1130 C1131 1.388 . S
C1131 H1118 0.930 . S
C1131 C1130 1.388 . S
C1131 C1132 1.390 . S
C1132 C1131 1.390 . S
C1132 C1133 1.394 . S
C1132 C1138 1.465 . S
C1133 C1128 1.399 . S
C1133 C1132 1.394 . S
C1133 C1134 1.516 . S
C1134 C1133 1.516 . S
C1134 C1135 1.502 . S
C1134 C1136 1.561 . S
C1134 C1137 1.526 . S
C1135 H1119 0.959 . S
C1135 H1120 0.959 . S
C1135 H1121 0.961 . S
C1135 C1134 1.502 . S
C1136 H1122 0.960 . S
C1136 H1123 0.961 . S
C1136 H1124 0.959 . S
C1136 C1134 1.561 . S
C1137 C1134 1.526 . S
C1137 C1138 1.396 . S
C1137 C1142 1.390 . S
C1138 C1132 1.465 . S
C1138 C1137 1.396 . S
C1138 C1139 1.399 . S
C1139 H1125 0.929 . S
C1139 C1138 1.399 . S
C1139 C1140 1.385 . S
C1140 H1126 0.931 . S
C1140 C1139 1.385 . S
C1140 C1141 1.389 . S
C1141 C1140 1.389 . S
C1141 C1142 1.387 . S
C1142 H1127 0.930 . S
C1142 C1137 1.390 . S
C1142 C1141 1.387 . S
H1143 C1155 0.930 . S
H1144 C1157 0.930 . S
H1145 C1158 0.930 . S
H1146 C1162 0.959 . S
H1147 C1162 0.959 . S
H1148 C1162 0.961 . S
H1149 C1163 0.960 . S
H1150 C1163 0.961 . S
H1151 C1163 0.959 . S
H1152 C1166 0.929 . S
H1153 C1167 0.931 . S
H1154 C1169 0.930 . S
C1155 H1143 0.930 . S
C1155 C1156 1.399 . S
C1155 C1160 1.399 . S
C1156 C1155 1.399 . S
C1156 C1157 1.376 . S
C1157 H1144 0.930 . S
C1157 C1156 1.376 . S
C1157 C1158 1.388 . S
C1158 H1145 0.930 . S
C1158 C1157 1.388 . S
C1158 C1159 1.390 . S
C1159 C1158 1.390 . S
C1159 C1160 1.394 . S
C1159 C1165 1.465 . S
C1160 C1155 1.399 . S
C1160 C1159 1.394 . S
C1160 C1161 1.516 . S
C1161 C1160 1.516 . S
C1161 C1162 1.502 . S
C1161 C1163 1.561 . S
C1161 C1164 1.526 . S
C1162 H1146 0.959 . S
C1162 H1147 0.959 . S
C1162 H1148 0.961 . S
C1162 C1161 1.502 . S
C1163 H1149 0.960 . S
C1163 H1150 0.961 . S
C1163 H1151 0.959 . S
C1163 C1161 1.561 . S
C1164 C1161 1.526 . S
C1164 C1165 1.396 . S
C1164 C1169 1.390 . S
C1165 C1159 1.465 . S
C1165 C1164 1.396 . S
C1165 C1166 1.399 . S
C1166 H1152 0.929 . S
C1166 C1165 1.399 . S
C1166 C1167 1.385 . S
C1167 H1153 0.931 . S
C1167 C1166 1.385 . S
C1167 C1168 1.389 . S
C1168 C1167 1.389 . S
C1168 C1169 1.387 . S
C1169 H1154 0.930 . S
C1169 C1164 1.390 . S
C1169 C1168 1.387 . S
H1170 C1182 0.930 . S
H1171 C1184 0.930 . S
H1172 C1185 0.930 . S
H1173 C1189 0.959 . S
H1174 C1189 0.959 . S
H1175 C1189 0.961 . S
H1176 C1190 0.960 . S
H1177 C1190 0.961 . S
H1178 C1190 0.959 . S
H1179 C1193 0.929 . S
H1180 C1194 0.931 . S
H1181 C1196 0.930 1_554 S
C1182 H1170 0.930 . S
C1182 C1183 1.399 . S
C1182 C1187 1.399 . S
C1183 C1182 1.399 . S
C1183 C1184 1.376 . S
C1184 H1171 0.930 . S
C1184 C1183 1.376 . S
C1184 C1185 1.388 . S
C1185 H1172 0.930 . S
C1185 C1184 1.388 . S
C1185 C1186 1.390 . S
C1186 C1185 1.390 . S
C1186 C1187 1.394 . S
C1186 C1192 1.465 . S
C1187 C1182 1.399 . S
C1187 C1186 1.394 . S
C1187 C1188 1.516 . S
C1188 C1187 1.516 . S
C1188 C1189 1.502 . S
C1188 C1190 1.561 1_556 S
C1188 C1191 1.526 . S
C1189 H1173 0.959 . S
C1189 H1174 0.959 . S
C1189 H1175 0.961 . S
C1189 C1188 1.502 . S
C1190 H1176 0.960 . S
C1190 H1177 0.961 . S
C1190 H1178 0.959 . S
C1190 C1188 1.561 1_554 S
C1191 C1188 1.526 . S
C1191 C1192 1.396 . S
C1191 C1196 1.390 . S
C1192 C1186 1.465 . S
C1192 C1191 1.396 . S
C1192 C1193 1.399 . S
C1193 H1179 0.929 . S
C1193 C1192 1.399 . S
C1193 C1194 1.385 . S
C1194 H1180 0.931 . S
C1194 C1193 1.385 . S
C1194 C1195 1.389 . S
C1195 C1194 1.389 . S
C1195 C1196 1.387 . S
C1196 H1181 0.930 1_556 S
C1196 C1191 1.390 . S
C1196 C1195 1.387 . S
H1197 C1209 0.930 . S
H1198 C1211 0.930 . S
H1199 C1212 0.930 . S
H1200 C1216 0.959 . S
H1201 C1216 0.959 . S
H1202 C1216 0.961 . S
H1203 C1217 0.960 . S
H1204 C1217 0.961 . S
H1205 C1217 0.959 . S
H1206 C1220 0.929 . S
H1207 C1221 0.931 . S
H1208 C1223 0.930 . S
C1209 H1197 0.930 . S
C1209 C1210 1.399 . S
C1209 C1214 1.399 . S
C1210 C1209 1.399 . S
C1210 C1211 1.376 . S
C1211 H1198 0.930 . S
C1211 C1210 1.376 . S
C1211 C1212 1.388 . S
C1212 H1199 0.930 . S
C1212 C1211 1.388 . S
C1212 C1213 1.390 . S
C1213 C1212 1.390 . S
C1213 C1214 1.394 . S
C1213 C1219 1.465 . S
C1214 C1209 1.399 . S
C1214 C1213 1.394 . S
C1214 C1215 1.516 . S
C1215 C1214 1.516 . S
C1215 C1216 1.502 . S
C1215 C1217 1.561 . S
C1215 C1218 1.526 . S
C1216 H1200 0.959 . S
C1216 H1201 0.959 . S
C1216 H1202 0.961 . S
C1216 C1215 1.502 . S
C1217 H1203 0.960 . S
C1217 H1204 0.961 . S
C1217 H1205 0.959 . S
C1217 C1215 1.561 . S
C1218 C1215 1.526 . S
C1218 C1219 1.396 . S
C1218 C1223 1.390 . S
C1219 C1213 1.465 . S
C1219 C1218 1.396 . S
C1219 C1220 1.399 . S
C1220 H1206 0.929 . S
C1220 C1219 1.399 . S
C1220 C1221 1.385 . S
C1221 H1207 0.931 . S
C1221 C1220 1.385 . S
C1221 C1222 1.389 . S
C1222 C1221 1.389 . S
C1222 C1223 1.387 . S
C1223 H1208 0.930 . S
C1223 C1218 1.390 . S
C1223 C1222 1.387 . S
H1224 C1236 0.930 . S
H1225 C1238 0.930 . S
H1226 C1239 0.930 . S
H1227 C1243 0.959 . S
H1228 C1243 0.959 . S
H1229 C1243 0.961 . S
H1230 C1244 0.960 . S
H1231 C1244 0.961 . S
H1232 C1244 0.959 . S
H1233 C1247 0.929 . S
H1234 C1248 0.931 . S
H1235 C1250 0.930 . S
C1236 H1224 0.930 . S
C1236 C1237 1.399 . S
C1236 C1241 1.399 . S
C1237 C1236 1.399 . S
C1237 C1238 1.376 . S
C1238 H1225 0.930 . S
C1238 C1237 1.376 . S
C1238 C1239 1.388 . S
C1239 H1226 0.930 . S
C1239 C1238 1.388 . S
C1239 C1240 1.390 . S
C1240 C1239 1.390 . S
C1240 C1241 1.394 . S
C1240 C1246 1.465 . S
C1241 C1236 1.399 . S
C1241 C1240 1.394 . S
C1241 C1242 1.516 . S
C1242 C1241 1.516 . S
C1242 C1243 1.502 . S
C1242 C1244 1.561 . S
C1242 C1245 1.526 . S
C1243 H1227 0.959 . S
C1243 H1228 0.959 . S
C1243 H1229 0.961 . S
C1243 C1242 1.502 . S
C1244 H1230 0.960 . S
C1244 H1231 0.961 . S
C1244 H1232 0.959 . S
C1244 C1242 1.561 . S
C1245 C1242 1.526 . S
C1245 C1246 1.396 . S
C1245 C1250 1.390 . S
C1246 C1240 1.465 . S
C1246 C1245 1.396 . S
C1246 C1247 1.399 . S
C1247 H1233 0.929 . S
C1247 C1246 1.399 . S
C1247 C1248 1.385 . S
C1248 H1234 0.931 . S
C1248 C1247 1.385 . S
C1248 C1249 1.389 . S
C1249 C1248 1.389 . S
C1249 C1250 1.387 . S
C1250 H1235 0.930 . S
C1250 C1245 1.390 . S
C1250 C1249 1.387 . S
H1251 C1263 0.930 . S
H1252 C1265 0.930 . S
H1253 C1266 0.930 . S
H1254 C1270 0.959 1_455 S
H1255 C1270 0.959 . S
H1256 C1270 0.961 . S
H1257 C1271 0.960 . S
H1258 C1271 0.961 . S
H1259 C1271 0.959 . S
H1260 C1274 0.929 . S
H1261 C1275 0.931 . S
H1262 C1277 0.930 1_655 S
C1263 H1251 0.930 . S
C1263 C1264 1.399 . S
C1263 C1268 1.399 . S
C1264 C1263 1.399 . S
C1264 C1265 1.376 . S
C1265 H1252 0.930 . S
C1265 C1264 1.376 . S
C1265 C1266 1.388 . S
C1266 H1253 0.930 . S
C1266 C1265 1.388 . S
C1266 C1267 1.390 . S
C1267 C1266 1.390 . S
C1267 C1268 1.394 . S
C1267 C1273 1.465 . S
C1268 C1263 1.399 . S
C1268 C1267 1.394 . S
C1268 C1269 1.516 . S
C1269 C1268 1.516 . S
C1269 C1270 1.502 1_455 S
C1269 C1271 1.561 1_455 S
C1269 C1272 1.526 . S
C1270 H1254 0.959 1_655 S
C1270 H1255 0.959 . S
C1270 H1256 0.961 . S
C1270 C1269 1.502 1_655 S
C1271 H1257 0.960 . S
C1271 H1258 0.961 . S
C1271 H1259 0.959 . S
C1271 C1269 1.561 1_655 S
C1272 C1269 1.526 . S
C1272 C1273 1.396 . S
C1272 C1277 1.390 . S
C1273 C1267 1.465 . S
C1273 C1272 1.396 . S
C1273 C1274 1.399 . S
C1274 H1260 0.929 . S
C1274 C1273 1.399 . S
C1274 C1275 1.385 . S
C1275 H1261 0.931 . S
C1275 C1274 1.385 . S
C1275 C1276 1.389 . S
C1276 C1275 1.389 . S
C1276 C1277 1.387 . S
C1277 H1262 0.930 1_455 S
C1277 C1272 1.390 . S
C1277 C1276 1.387 . S
H1278 C1290 0.930 . S
H1279 C1292 0.930 1_455 S
H1280 C1293 0.930 . S
H1281 C1297 0.959 . S
H1282 C1297 0.959 . S
H1283 C1297 0.961 . S
H1284 C1298 0.960 . S
H1285 C1298 0.961 . S
H1286 C1298 0.990 . S
H1287 C1301 0.929 . S
H1288 C1302 0.931 . S
H1289 C1304 0.930 . S
C1290 H1278 0.930 . S
C1290 C1291 1.399 . S
C1290 C1295 1.399 . S
C1291 C1290 1.399 . S
C1291 C1292 1.376 . S
C1292 H1279 0.930 1_655 S
C1292 C1291 1.376 . S
C1292 C1293 1.388 . S
C1293 H1280 0.930 . S
C1293 C1292 1.388 . S
C1293 C1294 1.390 . S
C1294 C1293 1.390 . S
C1294 C1295 1.394 . S
C1294 C1300 1.465 . S
C1295 C1290 1.399 . S
C1295 C1294 1.394 . S
C1295 C1296 1.516 . S
C1296 C1295 1.516 . S
C1296 C1297 1.502 . S
C1296 C1298 1.561 . S
C1296 C1299 1.526 . S
C1297 H1281 0.959 . S
C1297 H1282 0.959 . S
C1297 H1283 0.961 . S
C1297 C1296 1.502 . S
C1298 H1284 0.960 . S
C1298 H1285 0.961 . S
C1298 H1286 0.990 . S
C1298 C1296 1.561 . S
C1299 C1296 1.526 . S
C1299 C1300 1.396 . S
C1299 C1304 1.390 . S
C1300 C1294 1.465 . S
C1300 C1299 1.396 . S
C1300 C1301 1.399 . S
C1301 H1287 0.929 . S
C1301 C1300 1.399 . S
C1301 C1302 1.385 . S
C1302 H1288 0.931 . S
C1302 C1301 1.385 . S
C1302 C1303 1.389 . S
C1303 C1302 1.389 . S
C1303 C1304 1.387 . S
C1304 H1289 0.930 . S
C1304 C1299 1.390 . S
C1304 C1303 1.387 . S
H1305 C1317 0.930 . S
H1306 C1319 0.930 . S
H1307 C1320 0.930 . S
H1308 C1324 0.959 . S
H1309 C1324 0.959 . S
H1310 C1324 0.961 . S
H1311 C1325 0.960 . S
H1312 C1325 0.961 . S
H1313 C1325 0.959 . S
H1314 C1328 0.929 . S
H1315 C1329 0.931 . S
H1316 C1331 0.930 . S
C1317 H1305 0.930 . S
C1317 C1318 1.399 . S
C1317 C1322 1.399 . S
C1318 C1317 1.399 . S
C1318 C1319 1.376 . S
C1319 H1306 0.930 . S
C1319 C1318 1.376 . S
C1319 C1320 1.388 . S
C1320 H1307 0.930 . S
C1320 C1319 1.388 . S
C1320 C1321 1.390 . S
C1321 C1320 1.390 . S
C1321 C1322 1.394 . S
C1321 C1327 1.465 . S
C1322 C1317 1.399 . S
C1322 C1321 1.394 . S
C1322 C1323 1.516 . S
C1323 C1322 1.516 . S
C1323 C1324 1.502 . S
C1323 C1325 1.561 . S
C1323 C1326 1.526 . S
C1324 H1308 0.959 . S
C1324 H1309 0.959 . S
C1324 H1310 0.961 . S
C1324 C1323 1.502 . S
C1325 H1311 0.960 . S
C1325 H1312 0.961 . S
C1325 H1313 0.959 . S
C1325 C1323 1.561 . S
C1326 C1323 1.526 . S
C1326 C1327 1.396 . S
C1326 C1331 1.390 . S
C1327 C1321 1.465 . S
C1327 C1326 1.396 . S
C1327 C1328 1.399 . S
C1328 H1314 0.929 . S
C1328 C1327 1.399 . S
C1328 C1329 1.385 . S
C1329 H1315 0.931 . S
C1329 C1328 1.385 . S
C1329 C1330 1.389 . S
C1330 C1329 1.389 . S
C1330 C1331 1.387 . S
C1331 H1316 0.930 . S
C1331 C1326 1.390 . S
C1331 C1330 1.387 . S
H1332 C1344 0.930 . S
H1333 C1346 0.930 . S
H1334 C1347 0.930 . S
H1335 C1351 0.959 . S
H1336 C1351 0.959 . S
H1337 C1351 0.961 . S
H1338 C1352 0.960 . S
H1339 C1352 0.961 . S
H1340 C1352 0.959 . S
H1341 C1355 0.929 . S
H1342 C1356 0.931 . S
H1343 C1358 0.930 . S
C1344 H1332 0.930 . S
C1344 C1345 1.399 . S
C1344 C1349 1.399 . S
C1345 C1344 1.399 . S
C1345 C1346 1.376 . S
C1346 H1333 0.930 . S
C1346 C1345 1.376 . S
C1346 C1347 1.388 . S
C1347 H1334 0.930 . S
C1347 C1346 1.388 . S
C1347 C1348 1.390 . S
C1348 C1347 1.390 . S
C1348 C1349 1.394 . S
C1348 C1354 1.465 . S
C1349 C1344 1.399 . S
C1349 C1348 1.394 . S
C1349 C1350 1.516 . S
C1350 C1349 1.516 . S
C1350 C1351 1.502 . S
C1350 C1352 1.561 . S
C1350 C1353 1.526 . S
C1351 H1335 0.959 . S
C1351 H1336 0.959 . S
C1351 H1337 0.961 . S
C1351 C1350 1.502 . S
C1352 H1338 0.960 . S
C1352 H1339 0.961 . S
C1352 H1340 0.959 . S
C1352 C1350 1.561 . S
C1353 C1350 1.526 . S
C1353 C1354 1.396 . S
C1353 C1358 1.390 . S
C1354 C1348 1.465 . S
C1354 C1353 1.396 . S
C1354 C1355 1.399 . S
C1355 H1341 0.929 . S
C1355 C1354 1.399 . S
C1355 C1356 1.385 . S
C1356 H1342 0.931 . S
C1356 C1355 1.385 . S
C1356 C1357 1.389 . S
C1357 C1356 1.389 . S
C1357 C1358 1.387 . S
C1358 H1343 0.930 . S
C1358 C1353 1.390 . S
C1358 C1357 1.387 . S
H1359 C1371 0.930 . S
H1360 C1373 0.930 . S
H1361 C1374 0.930 . S
H1362 C1378 0.959 . S
H1363 C1378 0.959 . S
H1364 C1378 0.961 . S
H1365 C1379 0.960 . S
H1366 C1379 0.961 . S
H1367 C1379 0.959 . S
H1368 C1382 0.929 . S
H1369 C1383 0.931 . S
H1370 C1385 0.930 . S
C1371 H1359 0.930 . S
C1371 C1372 1.399 . S
C1371 C1376 1.399 . S
C1372 C1371 1.399 . S
C1372 C1373 1.376 . S
C1373 H1360 0.930 . S
C1373 C1372 1.376 . S
C1373 C1374 1.388 . S
C1374 H1361 0.930 . S
C1374 C1373 1.388 . S
C1374 C1375 1.390 . S
C1375 C1374 1.390 . S
C1375 C1376 1.394 . S
C1375 C1381 1.465 . S
C1376 C1371 1.399 . S
C1376 C1375 1.394 . S
C1376 C1377 1.516 . S
C1377 C1376 1.516 . S
C1377 C1378 1.502 . S
C1377 C1379 1.561 . S
C1377 C1380 1.526 . S
C1378 H1362 0.959 . S
C1378 H1363 0.959 . S
C1378 H1364 0.961 . S
C1378 C1377 1.502 . S
C1379 H1365 0.960 . S
C1379 H1366 0.961 . S
C1379 H1367 0.959 . S
C1379 C1377 1.561 . S
C1380 C1377 1.526 . S
C1380 C1381 1.396 . S
C1380 C1385 1.390 . S
C1381 C1375 1.465 . S
C1381 C1380 1.396 . S
C1381 C1382 1.399 . S
C1382 H1368 0.929 . S
C1382 C1381 1.399 . S
C1382 C1383 1.385 . S
C1383 H1369 0.931 . S
C1383 C1382 1.385 . S
C1383 C1384 1.389 . S
C1384 C1383 1.389 . S
C1384 C1385 1.387 . S
C1385 H1370 0.930 . S
C1385 C1380 1.390 . S
C1385 C1384 1.387 . S
H1386 C1398 0.930 . S
H1387 C1400 0.930 . S
H1388 C1401 0.930 . S
H1389 C1405 0.959 . S
H1390 C1405 0.959 . S
H1391 C1405 0.961 . S
H1392 C1406 0.960 . S
H1393 C1406 0.961 . S
H1394 C1406 0.959 . S
H1395 C1409 0.929 . S
H1396 C1410 0.931 . S
H1397 C1412 0.930 . S
C1398 H1386 0.930 . S
C1398 C1399 1.399 . S
C1398 C1403 1.399 . S
C1399 C1398 1.399 . S
C1399 C1400 1.376 . S
C1400 H1387 0.930 . S
C1400 C1399 1.376 . S
C1400 C1401 1.388 . S
C1401 H1388 0.930 . S
C1401 C1400 1.388 . S
C1401 C1402 1.390 . S
C1402 C1401 1.390 . S
C1402 C1403 1.394 . S
C1402 C1408 1.465 . S
C1403 C1398 1.399 . S
C1403 C1402 1.394 . S
C1403 C1404 1.516 . S
C1404 C1403 1.516 . S
C1404 C1405 1.502 . S
C1404 C1406 1.561 . S
C1404 C1407 1.526 . S
C1405 H1389 0.959 . S
C1405 H1390 0.959 . S
C1405 H1391 0.961 . S
C1405 C1404 1.502 . S
C1406 H1392 0.960 . S
C1406 H1393 0.961 . S
C1406 H1394 0.959 . S
C1406 C1404 1.561 . S
C1407 C1404 1.526 . S
C1407 C1408 1.396 . S
C1407 C1412 1.390 . S
C1408 C1402 1.465 . S
C1408 C1407 1.396 . S
C1408 C1409 1.399 . S
C1409 H1395 0.929 . S
C1409 C1408 1.399 . S
C1409 C1410 1.385 . S
C1410 H1396 0.931 . S
C1410 C1409 1.385 . S
C1410 C1411 1.389 . S
C1411 C1410 1.389 . S
C1411 C1412 1.387 . S
C1412 H1397 0.930 . S
C1412 C1407 1.390 . S
C1412 C1411 1.387 . S
H1413 C1425 0.930 . S
H1414 C1427 0.930 . S
H1415 C1428 0.930 . S
H1416 C1432 0.959 . S
H1417 C1432 0.959 . S
H1418 C1432 0.961 1_554 S
H1419 C1433 0.960 1_554 S
H1420 C1433 0.961 . S
H1421 C1433 0.959 1_554 S
H1422 C1436 0.929 . S
H1423 C1437 0.931 . S
H1424 C1439 0.930 . S
C1425 H1413 0.930 . S
C1425 C1426 1.399 . S
C1425 C1430 1.399 . S
C1426 C1425 1.399 . S
C1426 C1427 1.376 . S
C1427 H1414 0.930 . S
C1427 C1426 1.376 . S
C1427 C1428 1.388 . S
C1428 H1415 0.930 . S
C1428 C1427 1.388 . S
C1428 C1429 1.390 . S
C1429 C1428 1.390 . S
C1429 C1430 1.394 . S
C1429 C1435 1.465 . S
C1430 C1425 1.399 . S
C1430 C1429 1.394 . S
C1430 C1431 1.516 . S
C1431 C1430 1.516 . S
C1431 C1432 1.502 1_554 S
C1431 C1433 1.561 1_554 S
C1431 C1434 1.526 1_554 S
C1432 H1416 0.959 . S
C1432 H1417 0.959 . S
C1432 H1418 0.961 1_556 S
C1432 C1431 1.502 1_556 S
C1433 H1419 0.960 1_556 S
C1433 H1420 0.961 . S
C1433 H1421 0.959 1_556 S
C1433 C1431 1.561 1_556 S
C1434 C1431 1.526 1_556 S
C1434 C1435 1.396 1_556 S
C1434 C1439 1.390 . S
C1435 C1429 1.465 . S
C1435 C1434 1.396 1_554 S
C1435 C1436 1.399 . S
C1436 H1422 0.929 . S
C1436 C1435 1.399 . S
C1436 C1437 1.385 1_554 S
C1437 H1423 0.931 . S
C1437 C1436 1.385 1_556 S
C1437 C1438 1.389 . S
C1438 C1437 1.389 . S
C1438 C1439 1.387 . S
C1439 H1424 0.930 . S
C1439 C1434 1.390 . S
C1439 C1438 1.387 . S
H1440 C1452 0.930 . S
H1441 C1454 0.930 . S
H1442 C1455 0.930 . S
H1443 C1459 0.959 . S
H1444 C1459 0.959 . S
H1445 C1459 0.961 . S
H1446 C1460 0.960 . S
H1447 C1460 0.961 . S
H1448 C1460 0.959 . S
H1449 C1463 0.929 . S
H1450 C1464 0.931 . S
H1451 C1466 0.930 . S
C1452 H1440 0.930 . S
C1452 C1453 1.399 . S
C1452 C1457 1.399 . S
C1453 C1452 1.399 . S
C1453 C1454 1.376 . S
C1454 H1441 0.930 . S
C1454 C1453 1.376 . S
C1454 C1455 1.388 . S
C1455 H1442 0.930 . S
C1455 C1454 1.388 . S
C1455 C1456 1.390 . S
C1456 C1455 1.390 . S
C1456 C1457 1.394 . S
C1456 C1462 1.465 . S
C1457 C1452 1.399 . S
C1457 C1456 1.394 . S
C1457 C1458 1.516 . S
C1458 C1457 1.516 . S
C1458 C1459 1.502 . S
C1458 C1460 1.561 . S
C1458 C1461 1.526 . S
C1459 H1443 0.959 . S
C1459 H1444 0.959 . S
C1459 H1445 0.961 . S
C1459 C1458 1.502 . S
C1460 H1446 0.960 . S
C1460 H1447 0.961 . S
C1460 H1448 0.959 . S
C1460 C1458 1.561 . S
C1461 C1458 1.526 . S
C1461 C1462 1.396 . S
C1461 C1466 1.390 . S
C1462 C1456 1.465 . S
C1462 C1461 1.396 . S
C1462 C1463 1.399 . S
C1463 H1449 0.929 . S
C1463 C1462 1.399 . S
C1463 C1464 1.385 . S
C1464 H1450 0.931 . S
C1464 C1463 1.385 . S
C1464 C1465 1.389 . S
C1465 C1464 1.389 . S
C1465 C1466 1.387 . S
C1466 H1451 0.930 . S
C1466 C1461 1.390 . S
C1466 C1465 1.387 . S
H1467 C1479 0.930 . S
H1468 C1481 0.930 . S
H1469 C1482 0.930 . S
H1470 C1486 0.959 . S
H1471 C1486 0.959 . S
H1472 C1486 0.961 1_554 S
H1473 C1487 0.960 . S
H1474 C1487 0.961 . S
H1475 C1487 0.959 . S
H1476 C1490 0.929 . S
H1477 C1491 0.931 . S
H1478 C1493 0.930 . S
C1479 H1467 0.930 . S
C1479 C1480 1.399 . S
C1479 C1484 1.399 . S
C1480 C1479 1.399 . S
C1480 C1481 1.376 . S
C1481 H1468 0.930 . S
C1481 C1480 1.376 . S
C1481 C1482 1.388 . S
C1482 H1469 0.930 . S
C1482 C1481 1.388 . S
C1482 C1483 1.390 1_554 S
C1483 C1482 1.390 1_556 S
C1483 C1484 1.394 1_556 S
C1483 C1489 1.465 . S
C1484 C1479 1.399 . S
C1484 C1483 1.394 1_554 S
C1484 C1485 1.516 1_554 S
C1485 C1484 1.516 1_556 S
C1485 C1486 1.502 . S
C1485 C1487 1.561 . S
C1485 C1488 1.526 . S
C1486 H1470 0.959 . S
C1486 H1471 0.959 . S
C1486 H1472 0.961 1_556 S
C1486 C1485 1.502 . S
C1487 H1473 0.960 . S
C1487 H1474 0.961 . S
C1487 H1475 0.959 . S
C1487 C1485 1.561 . S
C1488 C1485 1.526 . S
C1488 C1489 1.396 . S
C1488 C1493 1.390 . S
C1489 C1483 1.465 . S
C1489 C1488 1.396 . S
C1489 C1490 1.399 . S
C1490 H1476 0.929 . S
C1490 C1489 1.399 . S
C1490 C1491 1.385 . S
C1491 H1477 0.931 . S
C1491 C1490 1.385 . S
C1491 C1492 1.389 . S
C1492 C1491 1.389 . S
C1492 C1493 1.387 . S
C1493 H1478 0.930 . S
C1493 C1488 1.390 . S
C1493 C1492 1.387 . S
H1494 C1506 0.930 . S
H1495 C1508 0.930 . S
H1496 C1509 0.930 . S
H1497 C1513 0.959 . S
H1498 C1513 0.959 . S
H1499 C1513 0.961 . S
H1500 C1514 0.960 . S
H1501 C1514 0.961 . S
H1502 C1514 0.959 . S
H1503 C1517 0.929 . S
H1504 C1518 0.931 . S
H1505 C1520 0.930 . S
C1506 H1494 0.930 . S
C1506 C1507 1.399 . S
C1506 C1511 1.399 . S
C1507 C1506 1.399 . S
C1507 C1508 1.376 . S
C1508 H1495 0.930 . S
C1508 C1507 1.376 . S
C1508 C1509 1.388 . S
C1509 H1496 0.930 . S
C1509 C1508 1.388 . S
C1509 C1510 1.390 . S
C1510 C1509 1.390 . S
C1510 C1511 1.394 . S
C1510 C1516 1.465 . S
C1511 C1506 1.399 . S
C1511 C1510 1.394 . S
C1511 C1512 1.516 . S
C1512 C1511 1.516 . S
C1512 C1513 1.502 . S
C1512 C1514 1.561 . S
C1512 C1515 1.526 . S
C1513 H1497 0.959 . S
C1513 H1498 0.959 . S
C1513 H1499 0.961 . S
C1513 C1512 1.502 . S
C1514 H1500 0.960 . S
C1514 H1501 0.961 . S
C1514 H1502 0.959 . S
C1514 C1512 1.561 . S
C1515 C1512 1.526 . S
C1515 C1516 1.396 . S
C1515 C1520 1.390 . S
C1516 C1510 1.465 . S
C1516 C1515 1.396 . S
C1516 C1517 1.399 . S
C1517 H1503 0.929 . S
C1517 C1516 1.399 . S
C1517 C1518 1.385 . S
C1518 H1504 0.931 . S
C1518 C1517 1.385 . S
C1518 C1519 1.389 . S
C1519 C1518 1.389 . S
C1519 C1520 1.387 . S
C1520 H1505 0.930 . S
C1520 C1515 1.390 . S
C1520 C1519 1.387 . S
H1521 C1533 0.930 . S
H1522 C1535 0.930 . S
H1523 C1536 0.930 . S
H1524 C1540 0.959 . S
H1525 C1540 0.959 . S
H1526 C1540 0.961 . S
H1527 C1541 0.960 . S
H1528 C1541 0.961 . S
H1529 C1541 0.959 . S
H1530 C1544 0.929 . S
H1531 C1545 0.931 . S
H1532 C1547 0.930 . S
C1533 H1521 0.930 . S
C1533 C1534 1.399 . S
C1533 C1538 1.399 . S
C1534 C1533 1.399 . S
C1534 C1535 1.376 . S
C1535 H1522 0.930 . S
C1535 C1534 1.376 . S
C1535 C1536 1.388 . S
C1536 H1523 0.930 . S
C1536 C1535 1.388 . S
C1536 C1537 1.390 . S
C1537 C1536 1.390 . S
C1537 C1538 1.394 . S
C1537 C1543 1.465 . S
C1538 C1533 1.399 . S
C1538 C1537 1.394 . S
C1538 C1539 1.516 . S
C1539 C1538 1.516 . S
C1539 C1540 1.502 . S
C1539 C1541 1.561 . S
C1539 C1542 1.526 . S
C1540 H1524 0.959 . S
C1540 H1525 0.959 . S
C1540 H1526 0.961 . S
C1540 C1539 1.502 . S
C1541 H1527 0.960 . S
C1541 H1528 0.961 . S
C1541 H1529 0.959 . S
C1541 C1539 1.561 . S
C1542 C1539 1.526 . S
C1542 C1543 1.396 . S
C1542 C1547 1.390 . S
C1543 C1537 1.465 . S
C1543 C1542 1.396 . S
C1543 C1544 1.399 . S
C1544 H1530 0.929 . S
C1544 C1543 1.399 . S
C1544 C1545 1.385 . S
C1545 H1531 0.931 . S
C1545 C1544 1.385 . S
C1545 C1546 1.389 . S
C1546 C1545 1.389 . S
C1546 C1547 1.387 . S
C1547 H1532 0.930 . S
C1547 C1542 1.390 . S
C1547 C1546 1.387 . S
H1548 C1560 0.930 . S
H1549 C1562 0.930 . S
H1550 C1563 0.930 . S
H1551 C1567 0.959 . S
H1552 C1567 0.959 . S
H1553 C1567 0.961 . S
H1554 C1568 0.960 . S
H1555 C1568 0.961 . S
H1556 C1568 0.959 . S
H1557 C1571 0.929 . S
H1558 C1572 0.931 . S
H1559 C1574 0.930 . S
C1560 H1548 0.930 . S
C1560 C1561 1.399 . S
C1560 C1565 1.399 . S
C1561 C1560 1.399 . S
C1561 C1562 1.376 . S
C1562 H1549 0.930 . S
C1562 C1561 1.376 . S
C1562 C1563 1.388 . S
C1563 H1550 0.930 . S
C1563 C1562 1.388 . S
C1563 C1564 1.390 . S
C1564 C1563 1.390 . S
C1564 C1565 1.394 . S
C1564 C1570 1.465 . S
C1565 C1560 1.399 . S
C1565 C1564 1.394 . S
C1565 C1566 1.516 . S
C1566 C1565 1.516 . S
C1566 C1567 1.502 . S
C1566 C1568 1.561 . S
C1566 C1569 1.526 . S
C1567 H1551 0.959 . S
C1567 H1552 0.959 . S
C1567 H1553 0.961 . S
C1567 C1566 1.502 . S
C1568 H1554 0.960 . S
C1568 H1555 0.961 . S
C1568 H1556 0.959 . S
C1568 C1566 1.561 . S
C1569 C1566 1.526 . S
C1569 C1570 1.396 . S
C1569 C1574 1.390 . S
C1570 C1564 1.465 . S
C1570 C1569 1.396 . S
C1570 C1571 1.399 . S
C1571 H1557 0.929 . S
C1571 C1570 1.399 . S
C1571 C1572 1.385 . S
C1572 H1558 0.931 . S
C1572 C1571 1.385 . S
C1572 C1573 1.389 . S
C1573 C1572 1.389 . S
C1573 C1574 1.387 . S
C1574 H1559 0.930 . S
C1574 C1569 1.390 . S
C1574 C1573 1.387 . S
H1575 C1587 0.930 . S
H1576 C1589 0.930 . S
H1577 C1590 0.930 . S
H1578 C1594 0.959 . S
H1579 C1594 0.959 . S
H1580 C1594 0.949 1_545 S
H1581 C1595 0.960 1_545 S
H1582 C1595 0.961 . S
H1583 C1595 0.959 . S
H1584 C1598 0.929 . S
H1585 C1599 0.931 . S
H1586 C1601 0.930 . S
C1587 H1575 0.930 . S
C1587 C1588 1.399 . S
C1587 C1592 1.399 . S
C1588 C1587 1.399 . S
C1588 C1589 1.376 . S
C1589 H1576 0.930 . S
C1589 C1588 1.376 . S
C1589 C1590 1.388 . S
C1590 H1577 0.930 . S
C1590 C1589 1.388 . S
C1590 C1591 1.390 . S
C1591 C1590 1.390 . S
C1591 C1592 1.394 . S
C1591 C1597 1.465 . S
C1592 C1587 1.399 . S
C1592 C1591 1.394 . S
C1592 C1593 1.515 . S
C1593 C1592 1.515 . S
C1593 C1594 1.502 1_545 S
C1593 C1595 1.562 1_545 S
C1593 C1596 1.526 1_545 S
C1594 H1578 0.959 . S
C1594 H1579 0.959 . S
C1594 H1580 0.949 1_565 S
C1594 C1593 1.502 1_565 S
C1595 H1581 0.960 1_565 S
C1595 H1582 0.961 . S
C1595 H1583 0.959 . S
C1595 C1593 1.562 1_565 S
C1596 C1593 1.526 1_565 S
C1596 C1597 1.396 1_565 S
C1596 C1601 1.390 . S
C1597 C1591 1.465 . S
C1597 C1596 1.396 1_545 S
C1597 C1598 1.399 . S
C1598 H1584 0.929 . S
C1598 C1597 1.399 . S
C1598 C1599 1.385 1_545 S
C1599 H1585 0.931 . S
C1599 C1598 1.385 1_565 S
C1599 C1600 1.389 . S
C1600 C1599 1.389 . S
C1600 C1601 1.387 . S
C1601 H1586 0.930 . S
C1601 C1596 1.390 . S
C1601 C1600 1.387 . S
H1602 C1614 0.930 . S
H1603 C1616 0.930 . S
H1604 C1617 0.930 . S
H1605 C1621 0.959 . S
H1606 C1621 0.959 . S
H1607 C1621 0.961 . S
H1608 C1622 0.960 . S
H1609 C1622 0.961 . S
H1610 C1622 0.959 . S
H1611 C1625 0.929 . S
H1612 C1626 0.931 . S
H1613 C1628 0.930 . S
C1614 H1602 0.930 . S
C1614 C1615 1.399 . S
C1614 C1619 1.399 . S
C1615 C1614 1.399 . S
C1615 C1616 1.376 . S
C1616 H1603 0.930 . S
C1616 C1615 1.376 . S
C1616 C1617 1.388 . S
C1617 H1604 0.930 . S
C1617 C1616 1.388 . S
C1617 C1618 1.390 . S
C1618 C1617 1.390 . S
C1618 C1619 1.394 . S
C1618 C1624 1.465 . S
C1619 C1614 1.399 . S
C1619 C1618 1.394 . S
C1619 C1620 1.516 . S
C1620 C1619 1.516 . S
C1620 C1621 1.502 . S
C1620 C1622 1.561 . S
C1620 C1623 1.526 . S
C1621 H1605 0.959 . S
C1621 H1606 0.959 . S
C1621 H1607 0.961 . S
C1621 C1620 1.502 . S
C1622 H1608 0.960 . S
C1622 H1609 0.961 . S
C1622 H1610 0.959 . S
C1622 C1620 1.561 . S
C1623 C1620 1.526 . S
C1623 C1624 1.396 . S
C1623 C1628 1.390 . S
C1624 C1618 1.465 . S
C1624 C1623 1.396 . S
C1624 C1625 1.399 . S
C1625 H1611 0.929 . S
C1625 C1624 1.399 . S
C1625 C1626 1.385 . S
C1626 H1612 0.931 . S
C1626 C1625 1.385 . S
C1626 C1627 1.389 . S
C1627 C1626 1.389 . S
C1627 C1628 1.387 . S
C1628 H1613 0.930 . S
C1628 C1623 1.390 . S
C1628 C1627 1.387 . S
H1629 C1641 0.930 . S
H1630 C1643 0.930 . S
H1631 C1644 0.930 . S
H1632 C1648 0.959 . S
H1633 C1648 0.959 . S
H1634 C1648 0.961 . S
H1635 C1649 0.960 . S
H1636 C1649 0.961 . S
H1637 C1649 0.959 . S
H1638 C1652 0.929 . S
H1639 C1653 0.931 . S
H1640 C1655 0.930 . S
C1641 H1629 0.930 . S
C1641 C1642 1.399 . S
C1641 C1646 1.399 1_545 S
C1642 C1641 1.399 . S
C1642 C1643 1.376 . S
C1643 H1630 0.930 . S
C1643 C1642 1.376 . S
C1643 C1644 1.388 . S
C1644 H1631 0.930 . S
C1644 C1643 1.388 . S
C1644 C1645 1.390 . S
C1645 C1644 1.390 . S
C1645 C1646 1.394 1_545 S
C1645 C1651 1.465 1_545 S
C1646 C1641 1.399 1_565 S
C1646 C1645 1.394 1_565 S
C1646 C1647 1.516 . S
C1647 C1646 1.516 . S
C1647 C1648 1.502 . S
C1647 C1649 1.561 . S
C1647 C1650 1.526 . S
C1648 H1632 0.959 . S
C1648 H1633 0.959 . S
C1648 H1634 0.961 . S
C1648 C1647 1.502 . S
C1649 H1635 0.960 . S
C1649 H1636 0.961 . S
C1649 H1637 0.959 . S
C1649 C1647 1.561 . S
C1650 C1647 1.526 . S
C1650 C1651 1.396 . S
C1650 C1655 1.390 . S
C1651 C1645 1.465 1_565 S
C1651 C1650 1.396 . S
C1651 C1652 1.399 . S
C1652 H1638 0.929 . S
C1652 C1651 1.399 . S
C1652 C1653 1.385 . S
C1653 H1639 0.931 . S
C1653 C1652 1.385 . S
C1653 C1654 1.389 . S
C1654 C1653 1.389 . S
C1654 C1655 1.387 . S
C1655 H1640 0.930 . S
C1655 C1650 1.390 . S
C1655 C1654 1.387 . S
H1656 C1668 0.930 . S
H1657 C1670 0.930 . S
H1658 C1671 0.930 . S
H1659 C1675 0.959 . S
H1660 C1675 0.959 . S
H1661 C1675 0.961 . S
H1662 C1676 0.960 . S
H1663 C1676 0.961 . S
H1664 C1676 0.959 . S
H1665 C1679 0.929 . S
H1666 C1680 0.931 . S
H1667 C1682 0.930 . S
C1668 H1656 0.930 . S
C1668 C1669 1.399 . S
C1668 C1673 1.399 . S
C1669 C1668 1.399 . S
C1669 C1670 1.376 . S
C1670 H1657 0.930 . S
C1670 C1669 1.376 . S
C1670 C1671 1.388 . S
C1671 H1658 0.930 . S
C1671 C1670 1.388 . S
C1671 C1672 1.390 . S
C1672 C1671 1.390 . S
C1672 C1673 1.394 . S
C1672 C1678 1.465 . S
C1673 C1668 1.399 . S
C1673 C1672 1.394 . S
C1673 C1674 1.516 . S
C1674 C1673 1.516 . S
C1674 C1675 1.502 . S
C1674 C1676 1.561 . S
C1674 C1677 1.526 . S
C1675 H1659 0.959 . S
C1675 H1660 0.959 . S
C1675 H1661 0.961 . S
C1675 C1674 1.502 . S
C1676 H1662 0.960 . S
C1676 H1663 0.961 . S
C1676 H1664 0.959 . S
C1676 C1674 1.561 . S
C1677 C1674 1.526 . S
C1677 C1678 1.396 . S
C1677 C1682 1.390 . S
C1678 C1672 1.465 . S
C1678 C1677 1.396 . S
C1678 C1679 1.399 . S
C1679 H1665 0.929 . S
C1679 C1678 1.399 . S
C1679 C1680 1.385 . S
C1680 H1666 0.931 . S
C1680 C1679 1.385 . S
C1680 C1681 1.389 . S
C1681 C1680 1.389 . S
C1681 C1682 1.387 . S
C1682 H1667 0.930 . S
C1682 C1677 1.390 . S
C1682 C1681 1.387 . S
H1683 C1695 0.930 . S
H1684 C1697 0.930 . S
H1685 C1698 0.930 . S
H1686 C1702 0.959 . S
H1687 C1702 0.959 . S
H1688 C1702 0.961 . S
H1689 C1703 0.960 . S
H1690 C1703 0.961 . S
H1691 C1703 0.959 . S
H1692 C1706 0.929 . S
H1693 C1707 0.931 . S
H1694 C1709 0.930 . S
C1695 H1683 0.930 . S
C1695 C1696 1.399 . S
C1695 C1700 1.399 . S
C1696 C1695 1.399 . S
C1696 C1697 1.376 . S
C1697 H1684 0.930 . S
C1697 C1696 1.376 . S
C1697 C1698 1.388 . S
C1698 H1685 0.930 . S
C1698 C1697 1.388 . S
C1698 C1699 1.390 . S
C1699 C1698 1.390 . S
C1699 C1700 1.394 . S
C1699 C1705 1.465 . S
C1700 C1695 1.399 . S
C1700 C1699 1.394 . S
C1700 C1701 1.516 . S
C1701 C1700 1.516 . S
C1701 C1702 1.502 . S
C1701 C1703 1.561 . S
C1701 C1704 1.526 . S
C1702 H1686 0.959 . S
C1702 H1687 0.959 . S
C1702 H1688 0.961 . S
C1702 C1701 1.502 . S
C1703 H1689 0.960 . S
C1703 H1690 0.961 . S
C1703 H1691 0.959 . S
C1703 C1701 1.561 . S
C1704 C1701 1.526 . S
C1704 C1705 1.396 . S
C1704 C1709 1.390 . S
C1705 C1699 1.465 . S
C1705 C1704 1.396 . S
C1705 C1706 1.399 . S
C1706 H1692 0.929 . S
C1706 C1705 1.399 . S
C1706 C1707 1.385 . S
C1707 H1693 0.931 . S
C1707 C1706 1.385 . S
C1707 C1708 1.389 . S
C1708 C1707 1.389 . S
C1708 C1709 1.387 . S
C1709 H1694 0.930 . S
C1709 C1704 1.390 . S
C1709 C1708 1.387 . S
H1710 C1722 0.930 . S
H1711 C1724 0.930 . S
H1712 C1725 0.930 . S
H1713 C1729 0.959 . S
H1714 C1729 0.959 . S
H1715 C1729 0.961 . S
H1716 C1730 0.960 . S
H1717 C1730 0.961 . S
H1718 C1730 0.959 . S
H1719 C1733 0.929 . S
H1720 C1734 0.931 . S
H1721 C1736 0.930 . S
C1722 H1710 0.930 . S
C1722 C1723 1.399 . S
C1722 C1727 1.399 . S
C1723 C1722 1.399 . S
C1723 C1724 1.376 . S
C1724 H1711 0.930 . S
C1724 C1723 1.376 . S
C1724 C1725 1.388 . S
C1725 H1712 0.930 . S
C1725 C1724 1.388 . S
C1725 C1726 1.390 . S
C1726 C1725 1.390 . S
C1726 C1727 1.394 . S
C1726 C1732 1.465 . S
C1727 C1722 1.399 . S
C1727 C1726 1.394 . S
C1727 C1728 1.516 . S
C1728 C1727 1.516 . S
C1728 C1729 1.502 . S
C1728 C1730 1.561 . S
C1728 C1731 1.526 . S
C1729 H1713 0.959 . S
C1729 H1714 0.959 . S
C1729 H1715 0.961 . S
C1729 C1728 1.502 . S
C1730 H1716 0.960 . S
C1730 H1717 0.961 . S
C1730 H1718 0.959 . S
C1730 C1728 1.561 . S
C1731 C1728 1.526 . S
C1731 C1732 1.396 . S
C1731 C1736 1.390 . S
C1732 C1726 1.465 . S
C1732 C1731 1.396 . S
C1732 C1733 1.399 . S
C1733 H1719 0.929 . S
C1733 C1732 1.399 . S
C1733 C1734 1.385 . S
C1734 H1720 0.931 . S
C1734 C1733 1.385 . S
C1734 C1735 1.389 . S
C1735 C1734 1.389 . S
C1735 C1736 1.387 . S
C1736 H1721 0.930 . S
C1736 C1731 1.390 . S
C1736 C1735 1.387 . S
H1737 C1749 0.930 . S
H1738 C1751 0.930 . S
H1739 C1752 0.930 . S
H1740 C1756 0.959 . S
H1741 C1756 0.959 . S
H1742 C1756 0.961 . S
H1743 C1757 0.960 . S
H1744 C1757 0.961 . S
H1745 C1757 0.959 . S
H1746 C1760 0.929 . S
H1747 C1761 0.931 . S
H1748 C1763 0.930 . S
C1749 H1737 0.930 . S
C1749 C1750 1.399 . S
C1749 C1754 1.399 . S
C1750 C1749 1.399 . S
C1750 C1751 1.376 . S
C1751 H1738 0.930 . S
C1751 C1750 1.376 . S
C1751 C1752 1.388 . S
C1752 H1739 0.930 . S
C1752 C1751 1.388 . S
C1752 C1753 1.390 . S
C1753 C1752 1.390 . S
C1753 C1754 1.394 . S
C1753 C1759 1.465 . S
C1754 C1749 1.399 . S
C1754 C1753 1.394 . S
C1754 C1755 1.516 . S
C1755 C1754 1.516 . S
C1755 C1756 1.502 . S
C1755 C1757 1.561 . S
C1755 C1758 1.526 . S
C1756 H1740 0.959 . S
C1756 H1741 0.959 . S
C1756 H1742 0.961 . S
C1756 C1755 1.502 . S
C1757 H1743 0.960 . S
C1757 H1744 0.961 . S
C1757 H1745 0.959 . S
C1757 C1755 1.561 . S
C1758 C1755 1.526 . S
C1758 C1759 1.396 . S
C1758 C1763 1.390 . S
C1759 C1753 1.465 . S
C1759 C1758 1.396 . S
C1759 C1760 1.399 . S
C1760 H1746 0.929 . S
C1760 C1759 1.399 . S
C1760 C1761 1.385 . S
C1761 H1747 0.931 . S
C1761 C1760 1.385 . S
C1761 C1762 1.389 . S
C1762 C1761 1.389 . S
C1762 C1763 1.387 . S
C1763 H1748 0.930 . S
C1763 C1758 1.390 . S
C1763 C1762 1.387 . S
H1764 C1776 0.930 . S
H1765 C1778 0.930 . S
H1766 C1779 0.930 . S
H1767 C1783 0.959 . S
H1768 C1783 0.959 . S
H1769 C1783 0.961 . S
H1770 C1784 0.960 . S
H1771 C1784 0.961 . S
H1772 C1784 0.959 . S
H1773 C1787 0.929 . S
H1774 C1788 0.931 . S
H1775 C1790 0.930 . S
C1776 H1764 0.930 . S
C1776 C1777 1.399 . S
C1776 C1781 1.399 . S
C1777 C1776 1.399 . S
C1777 C1778 1.376 . S
C1778 H1765 0.930 . S
C1778 C1777 1.376 . S
C1778 C1779 1.388 . S
C1779 H1766 0.930 . S
C1779 C1778 1.388 . S
C1779 C1780 1.390 . S
C1780 C1779 1.390 . S
C1780 C1781 1.394 . S
C1780 C1786 1.465 . S
C1781 C1776 1.399 . S
C1781 C1780 1.394 . S
C1781 C1782 1.516 . S
C1782 C1781 1.516 . S
C1782 C1783 1.502 . S
C1782 C1784 1.561 . S
C1782 C1785 1.526 . S
C1783 H1767 0.959 . S
C1783 H1768 0.959 . S
C1783 H1769 0.961 . S
C1783 C1782 1.502 . S
C1784 H1770 0.960 . S
C1784 H1771 0.961 . S
C1784 H1772 0.959 . S
C1784 C1782 1.561 . S
C1785 C1782 1.526 . S
C1785 C1786 1.396 . S
C1785 C1790 1.390 . S
C1786 C1780 1.465 . S
C1786 C1785 1.396 . S
C1786 C1787 1.399 . S
C1787 H1773 0.929 . S
C1787 C1786 1.399 . S
C1787 C1788 1.385 . S
C1788 H1774 0.931 . S
C1788 C1787 1.385 . S
C1788 C1789 1.389 . S
C1789 C1788 1.389 . S
C1789 C1790 1.387 . S
C1790 H1775 0.930 . S
C1790 C1785 1.390 . S
C1790 C1789 1.387 . S
H1791 C1803 0.930 . S
H1792 C1805 0.930 . S
H1793 C1806 0.930 . S
H1794 C1810 0.959 . S
H1795 C1810 0.959 . S
H1796 C1810 0.961 . S
H1797 C1811 0.960 . S
H1798 C1811 0.961 . S
H1799 C1811 0.959 . S
H1800 C1814 0.929 . S
H1801 C1815 0.931 . S
H1802 C1817 0.930 . S
C1803 H1791 0.930 . S
C1803 C1804 1.399 . S
C1803 C1808 1.399 . S
C1804 C1803 1.399 . S
C1804 C1805 1.376 . S
C1805 H1792 0.930 . S
C1805 C1804 1.376 . S
C1805 C1806 1.388 . S
C1806 H1793 0.930 . S
C1806 C1805 1.388 . S
C1806 C1807 1.390 . S
C1807 C1806 1.390 . S
C1807 C1808 1.394 . S
C1807 C1813 1.465 . S
C1808 C1803 1.399 . S
C1808 C1807 1.394 . S
C1808 C1809 1.516 . S
C1809 C1808 1.516 . S
C1809 C1810 1.502 . S
C1809 C1811 1.561 . S
C1809 C1812 1.526 . S
C1810 H1794 0.959 . S
C1810 H1795 0.959 . S
C1810 H1796 0.961 . S
C1810 C1809 1.502 . S
C1811 H1797 0.960 . S
C1811 H1798 0.961 . S
C1811 H1799 0.959 . S
C1811 C1809 1.561 . S
C1812 C1809 1.526 . S
C1812 C1813 1.396 . S
C1812 C1817 1.390 . S
C1813 C1807 1.465 . S
C1813 C1812 1.396 . S
C1813 C1814 1.399 . S
C1814 H1800 0.929 . S
C1814 C1813 1.399 . S
C1814 C1815 1.385 . S
C1815 H1801 0.931 . S
C1815 C1814 1.385 . S
C1815 C1816 1.389 . S
C1816 C1815 1.389 . S
C1816 C1817 1.387 . S
C1817 H1802 0.930 . S
C1817 C1812 1.390 . S
C1817 C1816 1.387 . S
H1818 C1830 0.930 . S
H1819 C1832 0.930 . S
H1820 C1833 0.930 . S
H1821 C1837 0.959 . S
H1822 C1837 0.959 1_556 S
H1823 C1837 0.961 1_556 S
H1824 C1838 0.960 . S
H1825 C1838 0.961 . S
H1826 C1838 0.959 1_554 S
H1827 C1841 0.929 . S
H1828 C1842 0.931 . S
H1829 C1844 0.918 1_556 S
C1830 H1818 0.930 . S
C1830 C1831 1.399 . S
C1830 C1835 1.399 . S
C1831 C1830 1.399 . S
C1831 C1832 1.376 . S
C1832 H1819 0.930 . S
C1832 C1831 1.376 . S
C1832 C1833 1.388 . S
C1833 H1820 0.930 . S
C1833 C1832 1.388 . S
C1833 C1834 1.390 . S
C1834 C1833 1.390 . S
C1834 C1835 1.394 . S
C1834 C1840 1.433 1_455 S
C1835 C1830 1.399 . S
C1835 C1834 1.394 . S
C1835 C1836 1.516 . S
C1836 C1835 1.516 . S
C1836 C1837 1.502 . S
C1836 C1838 1.561 1_554 S
C1836 C1839 1.527 . S
C1837 H1821 0.959 . S
C1837 H1822 0.959 1_554 S
C1837 H1823 0.961 1_554 S
C1837 C1836 1.502 . S
C1838 H1824 0.960 . S
C1838 H1825 0.961 . S
C1838 H1826 0.959 1_556 S
C1838 C1836 1.561 1_556 S
C1839 C1836 1.527 . S
C1839 C1840 1.395 1_455 S
C1839 C1844 1.388 1_455 S
C1840 C1834 1.433 1_655 S
C1840 C1839 1.395 1_655 S
C1840 C1841 1.429 . S
C1841 H1827 0.929 . S
C1841 C1840 1.429 . S
C1841 C1842 1.385 . S
C1842 H1828 0.931 . S
C1842 C1841 1.385 . S
C1842 C1843 1.389 . S
C1843 C1842 1.389 . S
C1843 C1844 1.387 . S
C1844 H1829 0.918 1_554 S
C1844 C1839 1.388 1_655 S
C1844 C1843 1.387 . S
H1845 C1857 0.930 . S
H1846 C1859 0.930 . S
H1847 C1860 0.930 . S
H1848 C1864 0.959 . S
H1849 C1864 0.959 . S
H1850 C1864 0.961 . S
H1851 C1865 0.960 . S
H1852 C1865 0.961 . S
H1853 C1865 0.959 . S
H1854 C1868 0.929 . S
H1855 C1869 0.931 . S
H1856 C1871 0.930 . S
C1857 H1845 0.930 . S
C1857 C1858 1.399 . S
C1857 C1862 1.399 . S
C1858 C1857 1.399 . S
C1858 C1859 1.376 . S
C1859 H1846 0.930 . S
C1859 C1858 1.376 . S
C1859 C1860 1.388 . S
C1860 H1847 0.930 . S
C1860 C1859 1.388 . S
C1860 C1861 1.390 . S
C1861 C1860 1.390 . S
C1861 C1862 1.394 . S
C1861 C1867 1.465 . S
C1862 C1857 1.399 . S
C1862 C1861 1.394 . S
C1862 C1863 1.516 . S
C1863 C1862 1.516 . S
C1863 C1864 1.502 . S
C1863 C1865 1.561 . S
C1863 C1866 1.526 . S
C1864 H1848 0.959 . S
C1864 H1849 0.959 . S
C1864 H1850 0.961 . S
C1864 C1863 1.502 . S
C1865 H1851 0.960 . S
C1865 H1852 0.961 . S
C1865 H1853 0.959 . S
C1865 C1863 1.561 . S
C1866 C1863 1.526 . S
C1866 C1867 1.396 . S
C1866 C1871 1.390 . S
C1867 C1861 1.465 . S
C1867 C1866 1.396 . S
C1867 C1868 1.399 . S
C1868 H1854 0.929 . S
C1868 C1867 1.399 . S
C1868 C1869 1.385 . S
C1869 H1855 0.931 . S
C1869 C1868 1.385 . S
C1869 C1870 1.389 . S
C1870 C1869 1.389 . S
C1870 C1871 1.387 . S
C1871 H1856 0.930 . S
C1871 C1866 1.390 . S
C1871 C1870 1.387 . S
H1872 C1884 0.930 . S
H1873 C1886 0.930 . S
H1874 C1887 0.930 . S
H1875 C1891 0.959 . S
H1876 C1891 0.959 . S
H1877 C1891 0.961 . S
H1878 C1892 0.960 . S
H1879 C1892 0.961 . S
H1880 C1892 0.959 . S
H1881 C1895 0.929 . S
H1882 C1896 0.931 . S
H1883 C1898 0.930 . S
C1884 H1872 0.930 . S
C1884 C1885 1.399 . S
C1884 C1889 1.399 . S
C1885 C1884 1.399 . S
C1885 C1886 1.376 . S
C1886 H1873 0.930 . S
C1886 C1885 1.376 . S
C1886 C1887 1.388 . S
C1887 H1874 0.930 . S
C1887 C1886 1.388 . S
C1887 C1888 1.390 . S
C1888 C1887 1.390 . S
C1888 C1889 1.394 . S
C1888 C1894 1.465 . S
C1889 C1884 1.399 . S
C1889 C1888 1.394 . S
C1889 C1890 1.516 . S
C1890 C1889 1.516 . S
C1890 C1891 1.502 . S
C1890 C1892 1.561 . S
C1890 C1893 1.526 . S
C1891 H1875 0.959 . S
C1891 H1876 0.959 . S
C1891 H1877 0.961 . S
C1891 C1890 1.502 . S
C1892 H1878 0.960 . S
C1892 H1879 0.961 . S
C1892 H1880 0.959 . S
C1892 C1890 1.561 . S
C1893 C1890 1.526 . S
C1893 C1894 1.396 . S
C1893 C1898 1.390 . S
C1894 C1888 1.465 . S
C1894 C1893 1.396 . S
C1894 C1895 1.399 . S
C1895 H1881 0.929 . S
C1895 C1894 1.399 . S
C1895 C1896 1.385 . S
C1896 H1882 0.931 . S
C1896 C1895 1.385 . S
C1896 C1897 1.389 . S
C1897 C1896 1.389 . S
C1897 C1898 1.387 . S
C1898 H1883 0.930 . S
C1898 C1893 1.390 . S
C1898 C1897 1.387 . S
H1899 C1911 0.930 . S
H1900 C1913 0.930 . S
H1901 C1914 0.930 . S
H1902 C1918 0.959 . S
H1903 C1918 0.959 . S
H1904 C1918 0.961 . S
H1905 C1919 0.960 . S
H1906 C1919 0.961 . S
H1907 C1919 0.959 . S
H1908 C1922 0.929 . S
H1909 C1923 0.931 . S
H1910 C1925 0.930 . S
C1911 H1899 0.930 . S
C1911 C1912 1.399 . S
C1911 C1916 1.399 . S
C1912 C1911 1.399 . S
C1912 C1913 1.376 . S
C1913 H1900 0.930 . S
C1913 C1912 1.376 . S
C1913 C1914 1.388 . S
C1914 H1901 0.930 . S
C1914 C1913 1.388 . S
C1914 C1915 1.390 . S
C1915 C1914 1.390 . S
C1915 C1916 1.394 . S
C1915 C1921 1.465 . S
C1916 C1911 1.399 . S
C1916 C1915 1.394 . S
C1916 C1917 1.516 . S
C1917 C1916 1.516 . S
C1917 C1918 1.502 . S
C1917 C1919 1.561 . S
C1917 C1920 1.526 . S
C1918 H1902 0.959 . S
C1918 H1903 0.959 . S
C1918 H1904 0.961 . S
C1918 C1917 1.502 . S
C1919 H1905 0.960 . S
C1919 H1906 0.961 . S
C1919 H1907 0.959 . S
C1919 C1917 1.561 . S
C1920 C1917 1.526 . S
C1920 C1921 1.396 . S
C1920 C1925 1.390 . S
C1921 C1915 1.465 . S
C1921 C1920 1.396 . S
C1921 C1922 1.399 . S
C1922 H1908 0.929 . S
C1922 C1921 1.399 . S
C1922 C1923 1.385 . S
C1923 H1909 0.931 . S
C1923 C1922 1.385 . S
C1923 C1924 1.389 . S
C1924 C1923 1.389 . S
C1924 C1925 1.387 . S
C1925 H1910 0.930 . S
C1925 C1920 1.390 . S
C1925 C1924 1.387 . S
H1926 C1938 0.930 . S
H1927 C1940 0.930 1_554 S
H1928 C1941 0.930 1_554 S
H1929 C1945 0.959 . S
H1930 C1945 0.959 . S
H1931 C1945 0.961 . S
H1932 C1946 0.960 . S
H1933 C1946 0.961 . S
H1934 C1946 0.959 . S
H1935 C1949 0.929 . S
H1936 C1950 0.931 . S
H1937 C1952 0.930 . S
C1938 H1926 0.930 . S
C1938 C1939 1.399 . S
C1938 C1943 1.399 . S
C1939 C1938 1.399 . S
C1939 C1940 1.376 . S
C1940 H1927 0.930 1_556 S
C1940 C1939 1.376 . S
C1940 C1941 1.388 . S
C1941 H1928 0.930 1_556 S
C1941 C1940 1.388 . S
C1941 C1942 1.390 . S
C1942 C1941 1.390 . S
C1942 C1943 1.394 . S
C1942 C1948 1.465 . S
C1943 C1938 1.399 . S
C1943 C1942 1.394 . S
C1943 C1944 1.516 . S
C1944 C1943 1.516 . S
C1944 C1945 1.502 . S
C1944 C1946 1.561 . S
C1944 C1947 1.526 . S
C1945 H1929 0.959 . S
C1945 H1930 0.959 . S
C1945 H1931 0.961 . S
C1945 C1944 1.502 . S
C1946 H1932 0.960 . S
C1946 H1933 0.961 . S
C1946 H1934 0.959 . S
C1946 C1944 1.561 . S
C1947 C1944 1.526 . S
C1947 C1948 1.396 . S
C1947 C1952 1.390 . S
C1948 C1942 1.465 . S
C1948 C1947 1.396 . S
C1948 C1949 1.399 . S
C1949 H1935 0.929 . S
C1949 C1948 1.399 . S
C1949 C1950 1.385 . S
C1950 H1936 0.931 . S
C1950 C1949 1.385 . S
C1950 C1951 1.389 . S
C1951 C1950 1.389 . S
C1951 C1952 1.387 . S
C1952 H1937 0.930 . S
C1952 C1947 1.390 . S
C1952 C1951 1.387 . S
H1953 C1965 0.930 . S
H1954 C1967 0.930 . S
H1955 C1968 0.930 . S
H1956 C1972 0.959 . S
H1957 C1972 0.959 . S
H1958 C1972 0.961 . S
H1959 C1973 0.960 . S
H1960 C1973 0.961 . S
H1961 C1973 0.959 . S
H1962 C1976 0.929 . S
H1963 C1977 0.931 . S
H1964 C1979 0.930 . S
C1965 H1953 0.930 . S
C1965 C1966 1.399 . S
C1965 C1970 1.399 . S
C1966 C1965 1.399 . S
C1966 C1967 1.376 . S
C1967 H1954 0.930 . S
C1967 C1966 1.376 . S
C1967 C1968 1.388 . S
C1968 H1955 0.930 . S
C1968 C1967 1.388 . S
C1968 C1969 1.390 . S
C1969 C1968 1.390 . S
C1969 C1970 1.394 . S
C1969 C1975 1.465 1_655 S
C1970 C1965 1.399 . S
C1970 C1969 1.394 . S
C1970 C1971 1.516 . S
C1971 C1970 1.516 . S
C1971 C1972 1.502 . S
C1971 C1973 1.561 . S
C1971 C1974 1.526 . S
C1972 H1956 0.959 . S
C1972 H1957 0.959 . S
C1972 H1958 0.961 . S
C1972 C1971 1.502 . S
C1973 H1959 0.960 . S
C1973 H1960 0.961 . S
C1973 H1961 0.959 . S
C1973 C1971 1.561 . S
C1974 C1971 1.526 . S
C1974 C1975 1.396 1_655 S
C1974 C1979 1.390 1_655 S
C1975 C1969 1.465 1_455 S
C1975 C1974 1.396 1_455 S
C1975 C1976 1.399 . S
C1976 H1962 0.929 . S
C1976 C1975 1.399 . S
C1976 C1977 1.385 . S
C1977 H1963 0.931 . S
C1977 C1976 1.385 . S
C1977 C1978 1.389 . S
C1978 C1977 1.389 . S
C1978 C1979 1.387 . S
C1979 H1964 0.930 . S
C1979 C1974 1.390 1_455 S
C1979 C1978 1.387 . S
C1021 C67 1.498 . S
C1033 C987 1.552 . S
C1048 C823 1.552 1_565 S
C1060 C147 1.597 . S
C1075 C231 1.444 . S
C1087 C735 1.449 . S
C1102 C315 1.587 . S
C1114 C903 1.596 . S
C1129 C399 1.677 . S
C1141 C907 1.638 . S
C1156 C487 1.580 . S
C1168 C991 1.649 . S
C1183 C819 1.560 . S
C1195 C567 1.578 . S
C1210 C651 1.637 . S
C1222 C739 1.535 . S
C1237 C319 1.595 . S
C1249 C403 1.687 . S
C1264 C63 1.505 . S
C1276 C483 1.537 . S
C1291 C151 1.585 1_655 S
C1303 C571 1.684 . S
C1318 C655 1.720 . S
C1330 C235 1.624 . S
C1345 C70 1.589 . S
C1357 C746 1.742 . S
C1372 C142 1.435 . S
C1384 C914 1.640 . S
C1399 C998 1.691 . S
C1411 C226 1.480 . S
C1426 C310 1.599 . S
C1438 C812 1.800 . S
C1453 C394 1.385 . S
C1465 C830 1.599 . S
C1480 C728 1.875 . S
C1492 C490 1.672 . S
C1507 C896 1.804 . S
C1519 C562 1.544 . S
C1534 C980 1.777 . S
C1546 C646 1.524 . S
C1561 C74 1.756 . S
C1573 C322 1.603 . S
C1588 C58 1.564 . S
C1600 C140 1.778 . S
C1615 C154 1.672 . S
C1627 C224 1.884 . S
C1642 C308 1.774 . S
C1654 C238 1.629 . S
C1669 C478 1.471 . S
C1681 C392 1.770 . S
C1696 C494 1.659 . S
C1708 C574 1.545 . S
C1723 C560 1.752 . S
C1735 C658 1.664 . S
C1750 C406 1.649 . S
C1762 C644 1.734 . S
C1777 C742 1.615 . S
C1789 C326 1.730 . S
C1804 C476 1.814 . S
C1816 C826 1.606 . S
C1831 C730 1.399 . S
C1843 C578 1.666 . S
C1858 C898 1.345 . S
C1870 C662 1.594 . S
C1885 C410 1.613 . S
C1897 C982 1.443 . S
C1912 C994 1.533 . S
C1924 C158 1.645 . S
C1939 C242 1.611 . S
C1951 C814 1.436 . S
C1966 C910 1.620 . S
C1978 C56 1.764 . S
