# Generated by pormake.
# Topology fnc, (5)-cn, num edge types: 1
# Building blocks:
#     Node 0, Type 0, BuildingBlock: BEQFEK_clean_sbu_0, # of connection points: 5
#     Node 1, Type 0, BuildingBlock: BEQFEK_clean_sbu_0, # of connection points: 5
#     Node 2, Type 0, BuildingBlock: BEQFEK_clean_sbu_0, # of connection points: 5
#     Node 3, Type 0, BuildingBlock: BEQFEK_clean_sbu_0, # of connection points: 5
#     Node 4, Type 0, BuildingBlock: BEQFEK_clean_sbu_0, # of connection points: 5
#     Node 5, Type 0, BuildingBlock: BEQFEK_clean_sbu_0, # of connection points: 5
#     Node 6, Type 0, BuildingBlock: BEQFEK_clean_sbu_0, # of connection points: 5
#     Node 7, Type 0, BuildingBlock: BEQFEK_clean_sbu_0, # of connection points: 5
#     Node 8, Type 0, BuildingBlock: BEQFEK_clean_sbu_0, # of connection points: 5
#     Node 9, Type 0, BuildingBlock: BEQFEK_clean_sbu_0, # of connection points: 5
#     Node 10, Type 0, BuildingBlock: BEQFEK_clean_sbu_0, # of connection points: 5
#     Node 11, Type 0, BuildingBlock: BEQFEK_clean_sbu_0, # of connection points: 5
#     Node 12, Type 0, BuildingBlock: BEQFEK_clean_sbu_0, # of connection points: 5
#     Node 13, Type 0, BuildingBlock: BEQFEK_clean_sbu_0, # of connection points: 5
#     Node 14, Type 0, BuildingBlock: BEQFEK_clean_sbu_0, # of connection points: 5
#     Node 15, Type 0, BuildingBlock: BEQFEK_clean_sbu_0, # of connection points: 5
#     Node 16, Type 0, BuildingBlock: BEQFEK_clean_sbu_0, # of connection points: 5
#     Node 17, Type 0, BuildingBlock: BEQFEK_clean_sbu_0, # of connection points: 5
#     Edge 18, Type (0, 0), BuildingBlock: UVAHIK_clean_linker_0, # of connection points: 2
#     Edge 19, Type (0, 0), BuildingBlock: UVAHIK_clean_linker_0, # of connection points: 2
#     Edge 20, Type (0, 0), BuildingBlock: UVAHIK_clean_linker_0, # of connection points: 2
#     Edge 21, Type (0, 0), BuildingBlock: UVAHIK_clean_linker_0, # of connection points: 2
#     Edge 22, Type (0, 0), BuildingBlock: UVAHIK_clean_linker_0, # of connection points: 2
#     Edge 23, Type (0, 0), BuildingBlock: UVAHIK_clean_linker_0, # of connection points: 2
#     Edge 24, Type (0, 0), BuildingBlock: UVAHIK_clean_linker_0, # of connection points: 2
#     Edge 25, Type (0, 0), BuildingBlock: UVAHIK_clean_linker_0, # of connection points: 2
#     Edge 26, Type (0, 0), BuildingBlock: UVAHIK_clean_linker_0, # of connection points: 2
#     Edge 27, Type (0, 0), BuildingBlock: UVAHIK_clean_linker_0, # of connection points: 2
#     Edge 28, Type (0, 0), BuildingBlock: UVAHIK_clean_linker_0, # of connection points: 2
#     Edge 29, Type (0, 0), BuildingBlock: UVAHIK_clean_linker_0, # of connection points: 2
#     Edge 30, Type (0, 0), BuildingBlock: UVAHIK_clean_linker_0, # of connection points: 2
#     Edge 31, Type (0, 0), BuildingBlock: UVAHIK_clean_linker_0, # of connection points: 2
#     Edge 32, Type (0, 0), BuildingBlock: UVAHIK_clean_linker_0, # of connection points: 2
#     Edge 33, Type (0, 0), BuildingBlock: UVAHIK_clean_linker_0, # of connection points: 2
#     Edge 34, Type (0, 0), BuildingBlock: UVAHIK_clean_linker_0, # of connection points: 2
#     Edge 35, Type (0, 0), BuildingBlock: UVAHIK_clean_linker_0, # of connection points: 2
#     Edge 36, Type (0, 0), BuildingBlock: UVAHIK_clean_linker_0, # of connection points: 2
#     Edge 37, Type (0, 0), BuildingBlock: UVAHIK_clean_linker_0, # of connection points: 2
#     Edge 38, Type (0, 0), BuildingBlock: UVAHIK_clean_linker_0, # of connection points: 2
#     Edge 39, Type (0, 0), BuildingBlock: UVAHIK_clean_linker_0, # of connection points: 2
#     Edge 40, Type (0, 0), BuildingBlock: UVAHIK_clean_linker_0, # of connection points: 2
#     Edge 41, Type (0, 0), BuildingBlock: UVAHIK_clean_linker_0, # of connection points: 2
#     Edge 42, Type (0, 0), BuildingBlock: UVAHIK_clean_linker_0, # of connection points: 2
#     Edge 43, Type (0, 0), BuildingBlock: UVAHIK_clean_linker_0, # of connection points: 2
#     Edge 44, Type (0, 0), BuildingBlock: UVAHIK_clean_linker_0, # of connection points: 2
#     Edge 45, Type (0, 0), BuildingBlock: UVAHIK_clean_linker_0, # of connection points: 2
#     Edge 46, Type (0, 0), BuildingBlock: UVAHIK_clean_linker_0, # of connection points: 2
#     Edge 47, Type (0, 0), BuildingBlock: UVAHIK_clean_linker_0, # of connection points: 2
#     Edge 48, Type (0, 0), BuildingBlock: UVAHIK_clean_linker_0, # of connection points: 2
#     Edge 49, Type (0, 0), BuildingBlock: UVAHIK_clean_linker_0, # of connection points: 2
#     Edge 50, Type (0, 0), BuildingBlock: UVAHIK_clean_linker_0, # of connection points: 2
#     Edge 51, Type (0, 0), BuildingBlock: UVAHIK_clean_linker_0, # of connection points: 2
#     Edge 52, Type (0, 0), BuildingBlock: UVAHIK_clean_linker_0, # of connection points: 2
#     Edge 53, Type (0, 0), BuildingBlock: UVAHIK_clean_linker_0, # of connection points: 2
#     Edge 54, Type (0, 0), BuildingBlock: UVAHIK_clean_linker_0, # of connection points: 2
#     Edge 55, Type (0, 0), BuildingBlock: UVAHIK_clean_linker_0, # of connection points: 2
#     Edge 56, Type (0, 0), BuildingBlock: UVAHIK_clean_linker_0, # of connection points: 2
#     Edge 57, Type (0, 0), BuildingBlock: UVAHIK_clean_linker_0, # of connection points: 2
#     Edge 58, Type (0, 0), BuildingBlock: UVAHIK_clean_linker_0, # of connection points: 2
#     Edge 59, Type (0, 0), BuildingBlock: UVAHIK_clean_linker_0, # of connection points: 2
#     Edge 60, Type (0, 0), BuildingBlock: UVAHIK_clean_linker_0, # of connection points: 2
#     Edge 61, Type (0, 0), BuildingBlock: UVAHIK_clean_linker_0, # of connection points: 2
#     Edge 62, Type (0, 0), BuildingBlock: UVAHIK_clean_linker_0, # of connection points: 2
# Relax obj value: 0.254
# Max RMSD: 0.282
# Mean RMSD: 0.255
data_MOF--net-fnc--node1-BEQFEK_clean_sbu_0--edge1-UVAHIK_clean_linker_0
_symmetry_space_group_name_H-M    P1
_symmetry_Int_Tables_number       1
_symmetry_cell_setting            triclinic
loop_
_symmetry_equiv_pos_as_xyz
'x, y, z'
_cell_length_a     119.17812
_cell_length_b     130.01652
_cell_length_c     22.766479
_cell_angle_alpha  89.024404
_cell_angle_beta   92.182879
_cell_angle_gamma 128.17308
loop_
_atom_site_label
_atom_site_type_symbol
_atom_site_fract_x
_atom_site_fract_y
_atom_site_fract_z
_atom_type_partial_charge
Co0 Co 0.0791 0.49311 0.02362 0.0
Co1 Co 0.06661 0.49118 0.14446 0.0
C2 C 0.08903 0.48749 0.1314 0.0
O3 O 0.09037 0.48995 0.07663 0.0
O4 O 0.08006 0.48741 0.1603 0.0
C5 C 0.09772 0.50406 0.92087 0.0
O6 O 0.10858 0.51328 0.95416 0.0
C7 C 0.0697 0.49933 0.26594 0.0
C8 C 0.04729 0.48773 0.29221 0.0
C9 C 0.06129 0.49637 0.31364 0.0
N10 N 0.06107 0.49276 0.21874 0.0
N11 N 0.04768 0.486 0.23443 0.0
C12 C 0.08562 0.50735 0.26598 0.0
H13 H 0.08932 0.50387 0.30071 0.0
H14 H 0.08924 0.50696 0.22257 0.0
H15 H 0.09059 0.51772 0.27554 0.0
C16 C 0.08216 0.51769 0.01964 0.0
N17 N 0.07986 0.50743 0.04854 0.0
N18 N 0.07499 0.50669 0.10064 0.0
C19 C 0.07437 0.51659 0.10708 0.0
C20 C 0.07898 0.52394 0.05621 0.0
C21 C 0.08504 0.52022 0.95549 0.0
H22 H 0.07834 0.51086 0.9305 0.0
H23 H 0.09642 0.52486 0.94892 0.0
H24 H 0.0829 0.5269 0.93802 0.0
O25 O 0.05879 0.47732 0.01737 0.0
O26 O 0.04939 0.4762 0.10179 0.0
H27 H 0.05627 0.50836 0.16058 0.0
H28 H 0.06663 0.52581 0.14997 0.0
C29 C 0.06722 0.51768 0.15656 0.0
H30 H 0.07331 0.51945 0.1982 0.0
H31 H 0.03883 0.47975 0.20634 0.0
O32 O 0.08567 0.4956 0.9431 0.0
C33 C 0.04812 0.47184 0.05032 0.0
Co34 Co 0.58216 0.63851 0.05371 0.0
Co35 Co 0.59268 0.6365 0.17721 0.0
C36 C 0.58938 0.65741 0.14517 0.0
O37 O 0.5844 0.65313 0.09329 0.0
O38 O 0.59289 0.65188 0.17908 0.0
C39 C 0.57243 0.6434 0.94533 0.0
O40 O 0.57613 0.65419 0.97015 0.0
C41 C 0.58806 0.63385 0.30019 0.0
C42 C 0.60309 0.63081 0.33862 0.0
C43 C 0.59293 0.63227 0.35283 0.0
N44 N 0.59508 0.63353 0.25663 0.0
N45 N 0.60403 0.63165 0.27957 0.0
C46 C 0.57617 0.63473 0.29079 0.0
H47 H 0.57162 0.63177 0.24523 0.0
H48 H 0.56766 0.62843 0.32259 0.0
H49 H 0.58032 0.64494 0.29811 0.0
C50 C 0.55895 0.61058 0.07672 0.0
N51 N 0.57056 0.62253 0.0945 0.0
N52 N 0.57525 0.62155 0.14578 0.0
C53 C 0.56687 0.60894 0.16225 0.0
C54 C 0.55626 0.60155 0.11902 0.0
C55 C 0.55201 0.60769 0.01668 0.0
H56 H 0.55972 0.60969 0.98358 0.0
H57 H 0.54919 0.61427 0.00769 0.0
H58 H 0.54228 0.59738 0.0119 0.0
O59 O 0.60135 0.64331 0.0439 0.0
O60 O 0.6087 0.64081 0.13029 0.0
H61 H 0.58068 0.6073 0.21718 0.0
H62 H 0.56197 0.59318 0.2195 0.0
C63 C 0.56958 0.604 0.21653 0.0
H64 H 0.56844 0.60818 0.25572 0.0
H65 H 0.6109 0.63112 0.2551 0.0
O66 O 0.57402 0.63589 0.97391 0.0
C67 C 0.6106 0.64366 0.0759 0.0
Co68 Co 0.45174 0.05841 0.13356 0.0
Co69 Co 0.43838 0.0447 0.01242 0.0
C70 C 0.45282 0.07353 0.03454 0.0
O71 O 0.45684 0.0736 0.08715 0.0
O72 O 0.44544 0.06305 0.00389 0.0
C73 C 0.47009 0.0723 0.24325 0.0
O74 O 0.48202 0.0802 0.21525 0.0
C75 C 0.44231 0.04397 0.88907 0.0
C76 C 0.42264 0.02483 0.85892 0.0
C77 C 0.43549 0.036 0.83994 0.0
N78 N 0.434 0.03773 0.93517 0.0
N79 N 0.42226 0.02627 0.91714 0.0
C80 C 0.45586 0.05777 0.89218 0.0
H81 H 0.45323 0.06453 0.88423 0.0
H82 H 0.46105 0.0599 0.93657 0.0
H83 H 0.46344 0.05973 0.85874 0.0
C84 C 0.46764 0.04777 0.11793 0.0
N85 N 0.4583 0.04984 0.0997 0.0
N86 N 0.45246 0.04392 0.04865 0.0
C87 C 0.45784 0.03785 0.03293 0.0
C88 C 0.46767 0.04015 0.07617 0.0
C89 C 0.47571 0.05227 0.17577 0.0
H90 H 0.46854 0.05047 0.211 0.0
H91 H 0.48457 0.06292 0.17377 0.0
H92 H 0.48026 0.04713 0.18664 0.0
O93 O 0.43078 0.04577 0.14148 0.0
O94 O 0.42085 0.03453 0.05828 0.0
H95 H 0.44216 0.02331 0.97076 0.0
H96 H 0.45835 0.02493 0.97566 0.0
C97 C 0.45394 0.03032 0.97677 0.0
H98 H 0.45829 0.03723 0.93951 0.0
H99 H 0.41394 0.01953 0.94434 0.0
O100 O 0.45845 0.06376 0.21549 0.0
C101 C 0.41983 0.03677 0.1112 0.0
Co102 Co 0.01372 0.6157 0.11307 0.0
Co103 Co 0.02503 0.6279 0.99027 0.0
C104 C 0.99428 0.61424 0.02505 0.0
O105 O 0.99592 0.61121 0.07637 0.0
O106 O 0.00463 0.62065 0.99031 0.0
C107 C 0.00139 0.59921 0.22148 0.0
O108 O 0.98963 0.58944 0.19412 0.0
C109 C 0.02426 0.62295 0.86638 0.0
C110 C 0.04428 0.64122 0.83579 0.0
C111 C 0.03275 0.62866 0.81788 0.0
N112 N 0.0307 0.63157 0.91122 0.0
N113 N 0.04258 0.64253 0.89262 0.0
C114 C 0.01022 0.60954 0.87055 0.0
H115 H 0.00373 0.60921 0.90492 0.0
H116 H 0.01211 0.60241 0.88267 0.0
H117 H 0.00411 0.60651 0.82794 0.0
C118 C 0.02402 0.60094 0.08041 0.0
N119 N 0.02156 0.6096 0.0687 0.0
N120 N 0.02753 0.61559 0.01919 0.0
C121 C 0.03444 0.61124 -0.00111 0.0
C122 C 0.03223 0.60172 0.03655 0.0
C123 C 0.01944 0.59277 0.13457 0.0
H124 H 0.02447 0.59927 0.17382 0.0
H125 H 0.00769 0.58676 0.13759 0.0
H126 H 0.0225 0.58626 0.13447 0.0
O127 O 0.02816 0.63486 0.12443 0.0
O128 O 0.03665 0.64419 0.03786 0.0
H129 H 0.04903 0.62705 0.94155 0.0
H130 H 0.05157 0.61476 0.94887 0.0
C131 C 0.0435 0.61642 0.94599 0.0
H132 H 0.03665 0.61127 0.90612 0.0
H133 H 0.04973 0.65074 0.91917 0.0
O134 O 0.01093 0.60934 0.19353 0.0
C135 C 0.03643 0.64496 0.09338 0.0
Co136 Co 0.4332 0.42544 0.14448 0.0
Co137 Co 0.42096 0.42661 0.02305 0.0
C138 C 0.42442 0.40583 0.05305 0.0
O139 O 0.42951 0.4101 0.10486 0.0
O140 O 0.42085 0.41133 0.01915 0.0
C141 C 0.43762 0.41924 0.25862 0.0
O142 O 0.4273 0.40717 0.24147 0.0
C143 C 0.4224 0.42891 0.89701 0.0
C144 C 0.41045 0.43636 0.87331 0.0
C145 C 0.41863 0.43326 0.85018 0.0
N146 N 0.41705 0.42972 0.94587 0.0
N147 N 0.40978 0.43405 0.93155 0.0
C148 C 0.43023 0.42333 0.89596 0.0
H149 H 0.42253 0.41272 0.905 0.0
H150 H 0.4387 0.42791 0.93132 0.0
H151 H 0.43489 0.4244 0.85305 0.0
C152 C 0.45668 0.45281 0.11422 0.0
N153 N 0.44443 0.44093 0.10019 0.0
N154 N 0.43914 0.44163 0.04991 0.0
C155 C 0.44789 0.45401 0.0302 0.0
C156 C 0.45926 0.46151 0.07035 0.0
C157 C 0.46454 0.45606 0.17232 0.0
H158 H 0.45753 0.45463 0.20758 0.0
H159 H 0.4671 0.44927 0.18053 0.0
H160 H 0.47452 0.46628 0.17437 0.0
O161 O 0.41486 0.42172 0.16107 0.0
O162 O 0.40585 0.42263 0.07575 0.0
H163 H 0.43468 0.45674 0.97743 0.0
H164 H 0.45363 0.4693 0.96807 0.0
C165 C 0.44513 0.45871 0.97518 0.0
H166 H 0.44472 0.45332 0.93698 0.0
H167 H 0.40467 0.43573 0.96169 0.0
O168 O 0.44248 0.42844 0.22203 0.0
C169 C 0.40511 0.42094 0.13117 0.0
Co170 Co 0.58022 0.98912 0.04229 0.0
Co171 Co 0.58897 0.00365 0.16282 0.0
C172 C 0.584 0.97795 0.14701 0.0
O173 O 0.58011 0.97644 0.09295 0.0
O174 O 0.58783 0.98803 0.17552 0.0
C175 C 0.5645 0.97271 0.93345 0.0
O176 O 0.5532 0.96343 0.96199 0.0
C177 C 0.58252 0.00333 0.28458 0.0
C178 C 0.60011 0.02337 0.31544 0.0
C179 C 0.58818 0.01133 0.33405 0.0
N180 N 0.59064 0.01033 0.23888 0.0
N181 N 0.60106 0.02235 0.25736 0.0
C182 C 0.57029 0.98899 0.28142 0.0
H183 H 0.57187 0.98371 0.31532 0.0
H184 H 0.5691 0.98493 0.23723 0.0
H185 H 0.56021 0.98735 0.29018 0.0
C186 C 0.55805 0.99312 0.04578 0.0
N187 N 0.56867 0.99335 0.07061 0.0
N188 N 0.57259 -0.00044 0.12147 0.0
C189 C 0.56462 0.00343 0.1307 0.0
C190 C 0.55514 -0.00055 0.08321 0.0
C191 C 0.55218 0.98859 0.98433 0.0
H192 H 0.56104 0.99244 0.95413 0.0
H193 H 0.54514 0.97776 0.98275 0.0
H194 H 0.54586 0.99184 0.9692 0.0
O195 O 0.59999 0.0056 0.03561 0.0
O196 O 0.60628 0.01675 0.11909 0.0
H197 H 0.57807 0.0202 0.18714 0.0
H198 H 0.55991 0.01463 0.17859 0.0
C199 C 0.56668 0.01148 0.18241 0.0
H200 H 0.56376 0.00557 0.22277 0.0
H201 H 0.60912 0.02971 0.23084 0.0
O202 O 0.57509 0.98277 0.96054 0.0
C203 C 0.60899 0.01574 0.06691 0.0
Co204 Co 0.71262 0.80485 0.38274 0.0
Co205 Co 0.6978 0.79561 0.50253 0.0
C206 C 0.7234 0.79684 0.47636 0.0
O207 O 0.72468 0.80126 0.42468 0.0
O208 O 0.71348 0.79422 0.50881 0.0
C209 C 0.7284 0.81162 0.27651 0.0
O210 O 0.73247 0.80489 0.2976 0.0
C211 C 0.69993 0.79907 0.62714 0.0
C212 C 0.67759 0.7874 0.65457 0.0
C213 C 0.69165 0.79546 0.67554 0.0
N214 N 0.69125 0.79335 0.57948 0.0
N215 N 0.67788 0.78634 0.59586 0.0
C216 C 0.71587 0.80869 0.6254 0.0
H217 H 0.71923 0.81299 0.58098 0.0
H218 H 0.72011 0.81661 0.65839 0.0
H219 H 0.72047 0.80363 0.6363 0.0
C220 C 0.71528 0.82825 0.41303 0.0
N221 N 0.71149 0.81637 0.42591 0.0
N222 N 0.70464 0.81231 0.47528 0.0
C223 C 0.70365 0.82142 0.49514 0.0
C224 C 0.7104 0.83183 0.45632 0.0
C225 C 0.72329 0.83591 0.35988 0.0
H226 H 0.71592 0.83158 0.32067 0.0
H227 H 0.73208 0.83537 0.35324 0.0
H228 H 0.72782 0.84633 0.36424 0.0
O229 O 0.69308 0.78841 0.36509 0.0
O230 O 0.68217 0.78174 0.45015 0.0
H231 H 0.68511 0.80938 0.54717 0.0
H232 H 0.69245 0.82636 0.54525 0.0
C233 C 0.69514 0.81958 0.54663 0.0
H234 H 0.70143 0.82142 0.58778 0.0
H235 H 0.66899 0.78096 0.56703 0.0
O236 O 0.72044 0.81275 0.30638 0.0
C237 C 0.68208 0.78032 0.3949 0.0
Co238 Co 0.26594 0.97913 0.40393 0.0
Co239 Co 0.27596 0.9737 0.5207 0.0
C240 C 0.27848 0.99834 0.49956 0.0
O241 O 0.27234 0.99492 0.44876 0.0
O242 O 0.28043 0.9911 0.52883 0.0
C243 C 0.26555 0.98795 0.291 0.0
O244 O 0.27769 0.9987 0.31101 0.0
C245 C 0.27391 0.9712 0.64605 0.0
C246 C 0.28477 0.96282 0.67197 0.0
C247 C 0.27786 0.96735 0.69405 0.0
N248 N 0.27833 0.9692 0.59743 0.0
N249 N 0.2848 0.96414 0.61297 0.0
C250 C 0.26508 0.97579 0.64617 0.0
H251 H 0.26033 0.9748 0.60176 0.0
H252 H 0.25646 0.97006 0.67815 0.0
H253 H 0.27188 0.98617 0.66032 0.0
C254 C 0.23927 0.95293 0.42911 0.0
N255 N 0.25263 0.96349 0.44426 0.0
N256 N 0.25694 0.96096 0.49243 0.0
C257 C 0.24647 0.94867 0.5095 0.0
C258 C 0.23492 0.94316 0.46991 0.0
C259 C 0.23169 0.95177 0.37264 0.0
H260 H 0.23763 0.95208 0.33539 0.0
H261 H 0.23161 0.96024 0.36838 0.0
H262 H 0.22059 0.94255 0.36976 0.0
O263 O 0.28281 0.98032 0.38663 0.0
O264 O 0.28971 0.97536 0.4668 0.0
H265 H 0.25736 0.94283 0.55845 0.0
H266 H 0.23816 0.9319 0.56605 0.0
C267 C 0.24772 0.94225 0.56178 0.0
H268 H 0.249 0.94757 0.60216 0.0
H269 H 0.28932 0.96169 0.58345 0.0
O270 O 0.25791 0.9785 0.32592 0.0
C271 C 0.29111 0.97852 0.41275 0.0
Co272 Co 0.08661 0.37152 0.39623 0.0
Co273 Co 0.10105 0.38589 0.51589 0.0
C274 C 0.06883 0.36499 0.49639 0.0
O275 O 0.06938 0.36209 0.44402 0.0
O276 O 0.0801 0.37402 0.52503 0.0
C277 C 0.07512 0.3545 0.28669 0.0
O278 O 0.06989 0.34362 0.31535 0.0
C279 C 0.10531 0.38354 0.63997 0.0
C280 C 0.12019 0.40409 0.67034 0.0
C281 C 0.11216 0.39127 0.68984 0.0
N282 N 0.10916 0.39139 0.59329 0.0
N283 N 0.11819 0.40367 0.61152 0.0
C284 C 0.09429 0.36895 0.637 0.0
H285 H 0.0898 0.36559 0.5917 0.0
H286 H 0.09922 0.36429 0.65052 0.0
H287 H 0.08563 0.3657 0.66756 0.0
C288 C 0.10791 0.36651 0.41012 0.0
N289 N 0.10112 0.37101 0.42962 0.0
N290 N 0.10728 0.3773 0.47972 0.0
C291 C 0.1182 0.37706 0.49354 0.0
C292 C 0.1189 0.37017 0.45005 0.0
C293 C 0.10489 0.35999 0.35178 0.0
H294 H 0.104 0.36555 0.31708 0.0
H295 H 0.0946 0.34997 0.3531 0.0
H296 H 0.1134 0.35932 0.34053 0.0
O297 O 0.09443 0.39002 0.38748 0.0
O298 O 0.10647 0.40118 0.46886 0.0
H299 H 0.13161 0.39365 0.55103 0.0
H300 H 0.13712 0.38347 0.54647 0.0
C301 C 0.12782 0.38345 0.54712 0.0
H302 H 0.12172 0.37803 0.58654 0.0
H303 H 0.12254 0.41176 0.58419 0.0
O304 O 0.08162 0.3653 0.31414 0.0
C305 C 0.10219 0.40075 0.41621 0.0
Co306 Co 0.70098 0.96629 0.39421 0.0
Co307 Co 0.68752 0.95659 0.51667 0.0
C308 C 0.71254 0.98496 0.49211 0.0
O309 O 0.71351 0.98271 0.43917 0.0
O310 O 0.70284 0.97587 0.52443 0.0
C311 C 0.71969 0.97601 0.29291 0.0
O312 O 0.73095 0.98165 0.32878 0.0
C313 C 0.6913 0.95354 0.63994 0.0
C314 C 0.66966 0.94318 0.67367 0.0
C315 C 0.68371 0.94901 0.69106 0.0
N316 N 0.68219 0.95051 0.59457 0.0
N317 N 0.66922 0.94414 0.61475 0.0
C318 C 0.70716 0.96187 0.63463 0.0
H319 H 0.71024 0.96483 0.5885 0.0
H320 H 0.71097 0.9563 0.64923 0.0
H321 H 0.7125 0.97067 0.66327 0.0
C322 C 0.70445 0.94568 0.41248 0.0
N323 N 0.70042 0.95277 0.42999 0.0
N324 N 0.69435 0.94842 0.48107 0.0
C325 C 0.69414 0.9383 0.49738 0.0
C326 C 0.70065 0.93631 0.45479 0.0
C327 C 0.71221 0.94819 0.35732 0.0
H328 H 0.70558 0.94717 0.31884 0.0
H329 H 0.72227 0.95836 0.35848 0.0
H330 H 0.7149 0.94149 0.35214 0.0
O331 O 0.68141 0.96087 0.38592 0.0
O332 O 0.67083 0.95271 0.47083 0.0
H333 H 0.67697 0.92893 0.55741 0.0
H334 H 0.68379 0.92009 0.54435 0.0
C335 C 0.68675 0.92996 0.55 0.0
H336 H 0.69402 0.93465 0.5893 0.0
H337 H 0.6602 0.94099 0.58869 0.0
O338 O 0.70724 0.96937 0.31296 0.0
C339 C 0.67048 0.95547 0.41722 0.0
Co340 Co 0.07362 0.77297 0.40095 0.0
Co341 Co 0.08439 0.77143 0.52535 0.0
C342 C 0.05434 0.76242 0.50041 0.0
O343 O 0.05631 0.76556 0.4464 0.0
O344 O 0.06421 0.76411 0.5335 0.0
C345 C 0.06583 0.78087 0.29154 0.0
O346 O 0.063 0.78762 0.3206 0.0
C347 C 0.09051 0.77891 0.6487 0.0
C348 C 0.10131 0.77077 0.68014 0.0
C349 C 0.09634 0.77737 0.69864 0.0
N350 N 0.09205 0.77356 0.60286 0.0
N351 N 0.09865 0.76884 0.62172 0.0
C352 C 0.08254 0.78439 0.64513 0.0
H353 H 0.07383 0.77936 0.67698 0.0
H354 H 0.07812 0.78343 0.60012 0.0
H355 H 0.08986 0.79495 0.65659 0.0
C356 C 0.09944 0.80092 0.41449 0.0
N357 N 0.09016 0.78862 0.43469 0.0
N358 N 0.09495 0.7878 0.48627 0.0
C359 C 0.10745 0.79952 0.50027 0.0
C360 C 0.11062 0.8082 0.45548 0.0
C361 C 0.09831 0.80532 0.35496 0.0
H362 H 0.09566 0.79799 0.32136 0.0
H363 H 0.08966 0.80623 0.35442 0.0
H364 H 0.10842 0.81493 0.34358 0.0
O365 O 0.07722 0.76011 0.39479 0.0
O366 O 0.08488 0.75856 0.48249 0.0
H367 H 0.1171 0.7944 0.5631 0.0
H368 H 0.127 0.81183 0.55398 0.0
C369 C 0.11618 0.8023 0.55548 0.0
H370 H 0.11076 0.8026 0.59308 0.0
H371 H 0.10092 0.76391 0.59508 0.0
O372 O 0.07009 0.77517 0.31858 0.0
C373 C 0.08161 0.75529 0.42854 0.0
Co374 Co 0.24361 0.33525 0.40893 0.0
Co375 Co 0.25674 0.34944 0.52943 0.0
C376 C 0.24634 0.32177 0.5062 0.0
O377 O 0.24196 0.32128 0.45372 0.0
O378 O 0.2523 0.33202 0.53778 0.0
C379 C 0.236 0.32201 0.29835 0.0
O380 O 0.24323 0.3181 0.31904 0.0
C381 C 0.2545 0.34965 0.65411 0.0
C382 C 0.27146 0.37017 0.68122 0.0
C383 C 0.26074 0.35786 0.7024 0.0
N384 N 0.26124 0.35664 0.60619 0.0
N385 N 0.27138 0.36893 0.62239 0.0
C386 C 0.24161 0.33554 0.65303 0.0
H387 H 0.23608 0.33274 0.60913 0.0
H388 H 0.23411 0.33364 0.68705 0.0
H389 H 0.24496 0.32941 0.66298 0.0
C390 C 0.22384 0.34102 0.43185 0.0
N391 N 0.23503 0.34133 0.44759 0.0
N392 N 0.24075 0.34772 0.49763 0.0
C393 C 0.23344 0.35184 0.51524 0.0
C394 C 0.22245 0.34766 0.47422 0.0
C395 C 0.21547 0.33539 0.37495 0.0
H396 H 0.22275 0.34073 0.33807 0.0
H397 H 0.21099 0.32498 0.37147 0.0
H398 H 0.20671 0.33615 0.37061 0.0
O399 O 0.26391 0.34993 0.39474 0.0
O400 O 0.27346 0.36067 0.4795 0.0
H401 H 0.24828 0.36796 0.57299 0.0
H402 H 0.23026 0.36279 0.57377 0.0
C403 C 0.23678 0.35941 0.57069 0.0
H404 H 0.23456 0.35309 0.60892 0.0
H405 H 0.27825 0.37644 0.59344 0.0
O406 O 0.23441 0.32881 0.33094 0.0
C407 C 0.27452 0.35931 0.4252 0.0
Co408 Co 0.40289 0.15193 0.72988 0.0
Co409 Co 0.38894 0.14359 0.85167 0.0
C410 C 0.41695 0.14888 0.83052 0.0
O411 O 0.41742 0.15231 0.77746 0.0
O412 O 0.40647 0.14518 0.8619 0.0
C413 C 0.4204 0.16786 0.62798 0.0
O414 O 0.42947 0.17815 0.6615 0.0
C415 C 0.38955 0.14926 0.97486 0.0
C416 C 0.36792 0.13275 0.00226 0.0
C417 C 0.38088 0.14401 0.02287 0.0
N418 N 0.38201 0.14157 0.92791 0.0
N419 N 0.36906 0.13176 0.94437 0.0
C420 C 0.405 0.16096 0.97394 0.0
H421 H 0.411 0.16062 0.0114 0.0
H422 H 0.40974 0.16154 0.93196 0.0
H423 H 0.40603 0.16999 0.97843 0.0
C424 C 0.39627 0.17047 0.73888 0.0
N425 N 0.39798 0.16192 0.76278 0.0
N426 N 0.39218 0.15837 0.81464 0.0
C427 C 0.38675 0.16462 0.82565 0.0
C428 C 0.38916 0.17248 0.77811 0.0
C429 C 0.39886 0.17461 0.67592 0.0
H430 H 0.39513 0.16616 0.64731 0.0
H431 H 0.41047 0.18227 0.67049 0.0
H432 H 0.39331 0.17867 0.66167 0.0
O433 O 0.38512 0.13376 0.71911 0.0
O434 O 0.37455 0.12764 0.80488 0.0
H435 H 0.36893 0.15137 0.87959 0.0
H436 H 0.37379 0.16759 0.87591 0.0
C437 C 0.37797 0.16198 0.87753 0.0
H438 H 0.38467 0.16486 0.91826 0.0
H439 H 0.36111 0.12423 0.91641 0.0
O440 O 0.40972 0.15736 0.64993 0.0
C441 C 0.37477 0.12532 0.751 0.0
Co442 Co 0.91843 0.33519 0.69525 0.0
Co443 Co 0.92124 0.32549 0.81692 0.0
C444 C 0.92957 0.35263 0.79778 0.0
O445 O 0.92555 0.35078 0.7438 0.0
O446 O 0.92853 0.34377 0.82799 0.0
C447 C 0.90868 0.34109 0.58469 0.0
O448 O 0.90076 0.34312 0.61261 0.0
C449 C 0.91289 0.3194 0.938 0.0
C450 C 0.92422 0.31192 0.97168 0.0
C451 C 0.9156 0.31507 0.98861 0.0
N452 N 0.91956 0.31882 0.89353 0.0
N453 N 0.92617 0.31418 0.91364 0.0
C454 C 0.90512 0.32505 0.93244 0.0
H455 H 0.90668 0.32963 0.88896 0.0
H456 H 0.89351 0.31712 0.93659 0.0
H457 H 0.90877 0.33234 0.96798 0.0
C458 C 0.8891 0.30957 0.69989 0.0
N459 N 0.90195 0.31923 0.7247 0.0
N460 N 0.90337 0.31521 0.77583 0.0
C461 C 0.89157 0.30292 0.78524 0.0
C462 C 0.88206 0.29896 0.73771 0.0
C463 C 0.88413 0.31014 0.63948 0.0
H464 H 0.89194 0.31205 0.60709 0.0
H465 H 0.88356 0.31832 0.6377 0.0
H466 H 0.87342 0.30096 0.6275 0.0
O467 O 0.93403 0.33384 0.6908 0.0
O468 O 0.93548 0.32562 0.77422 0.0
H469 H 0.9008 0.29622 0.84061 0.0
H470 H 0.88203 0.2839 0.82428 0.0
C471 C 0.89048 0.29445 0.83383 0.0
H472 H 0.88799 0.29698 0.87507 0.0
H473 H 0.93246 0.31304 0.88825 0.0
O474 O 0.91554 0.33793 0.61268 0.0
C475 C 0.93964 0.32984 0.72248 0.0
Co476 Co 0.77494 0.71883 0.812 0.0
Co477 Co 0.75915 0.70572 0.69209 0.0
C478 C 0.77487 0.73459 0.71878 0.0
O479 O 0.77908 0.73428 0.77048 0.0
O480 O 0.76723 0.72438 0.68651 0.0
C481 C 0.78484 0.73156 0.92323 0.0
O482 O 0.77976 0.73753 0.90314 0.0
C483 C 0.76 0.705 0.56671 0.0
C484 C 0.74016 0.68565 0.54015 0.0
C485 C 0.75229 0.6971 0.5185 0.0
N486 N 0.75278 0.69869 0.615 0.0
N487 N 0.74089 0.6871 0.5991 0.0
C488 C 0.7745 0.71804 0.56729 0.0
H489 H 0.78001 0.72004 0.61085 0.0
H490 H 0.78106 0.71842 0.53267 0.0
H491 H 0.77332 0.72572 0.55783 0.0
C492 C 0.78919 0.7074 0.78235 0.0
N493 N 0.78017 0.71011 0.76912 0.0
N494 N 0.77326 0.70429 0.71926 0.0
C495 C 0.77762 0.69763 0.69912 0.0
C496 C 0.78788 0.69942 0.73839 0.0
C497 C 0.79862 0.71215 0.83672 0.0
H498 H 0.80386 0.72267 0.84402 0.0
H499 H 0.80691 0.71081 0.83354 0.0
H500 H 0.79198 0.70665 0.87507 0.0
O501 O 0.75432 0.70667 0.82869 0.0
O502 O 0.74283 0.69637 0.74489 0.0
H503 H 0.7592 0.68272 0.64735 0.0
H504 H 0.77381 0.68199 0.64596 0.0
C505 C 0.77097 0.68866 0.64678 0.0
H506 H 0.7747 0.69458 0.60614 0.0
H507 H 0.73333 0.68018 0.6284 0.0
O508 O 0.78466 0.72378 0.88959 0.0
C509 C 0.74279 0.69826 0.79957 0.0
Co510 Co 0.3101 0.25273 0.81656 0.0
Co511 Co 0.32136 0.26354 0.69176 0.0
C512 C 0.29314 0.25572 0.73062 0.0
O513 O 0.29441 0.2525 0.782 0.0
O514 O 0.30274 0.26006 0.6932 0.0
C515 C 0.29238 0.23822 0.91538 0.0
O516 O 0.28187 0.23651 0.88394 0.0
C517 C 0.31789 0.2607 0.5665 0.0
C518 C 0.33951 0.27582 0.53411 0.0
C519 C 0.32552 0.26589 0.51582 0.0
N520 N 0.32685 0.26728 0.61267 0.0
N521 N 0.33976 0.27638 0.5933 0.0
C522 C 0.30267 0.24879 0.57177 0.0
H523 H 0.301 0.24425 0.61554 0.0
H524 H 0.2996 0.24151 0.53695 0.0
H525 H 0.29567 0.25168 0.56657 0.0
C526 C 0.3159 0.23463 0.78173 0.0
N527 N 0.31461 0.24402 0.76899 0.0
N528 N 0.31969 0.24878 0.71681 0.0
C529 C 0.32443 0.24261 0.69459 0.0
C530 C 0.32222 0.23346 0.735 0.0
C531 C 0.31313 0.22841 0.84084 0.0
H532 H 0.32011 0.23612 0.87452 0.0
H533 H 0.30188 0.22353 0.85187 0.0
H534 H 0.31515 0.22116 0.84238 0.0
O535 O 0.32743 0.27106 0.83057 0.0
O536 O 0.33577 0.27884 0.74186 0.0
H537 H 0.34125 0.25657 0.63816 0.0
H538 H 0.33527 0.24004 0.62883 0.0
C539 C 0.33183 0.24606 0.63758 0.0
H540 H 0.32444 0.24441 0.60116 0.0
H541 H 0.34876 0.28282 0.62043 0.0
O542 O 0.30469 0.24453 0.89413 0.0
C543 C 0.3367 0.2803 0.79748 0.0
Co544 Co 0.77303 0.12542 0.80587 0.0
Co545 Co 0.75841 0.12156 0.68303 0.0
C546 C 0.77181 0.10854 0.71736 0.0
O547 O 0.77583 0.11351 0.76877 0.0
O548 O 0.76519 0.11096 0.68208 0.0
C549 C 0.78537 0.12458 0.91478 0.0
O550 O 0.78319 0.11425 0.8918 0.0
C551 C 0.76055 0.12343 0.55816 0.0
C552 C 0.74106 0.12043 0.52507 0.0
C553 C 0.75329 0.12248 0.50732 0.0
N554 N 0.75298 0.12184 0.60417 0.0
N555 N 0.74131 0.12008 0.5844 0.0
C556 C 0.77491 0.12652 0.56321 0.0
H557 H 0.77358 0.11738 0.55739 0.0
H558 H 0.78005 0.13079 0.60704 0.0
H559 H 0.78189 0.13343 0.5283 0.0
C560 C 0.78938 0.1532 0.77231 0.0
N561 N 0.77967 0.14034 0.76023 0.0
N562 N 0.77318 0.1388 0.70938 0.0
C563 C 0.77852 0.15066 0.68741 0.0
C564 C 0.78897 0.16018 0.7266 0.0
C565 C 0.79868 0.15862 0.82708 0.0
H566 H 0.80296 0.15322 0.83677 0.0
H567 H 0.80769 0.16919 0.8228 0.0
H568 H 0.79216 0.15721 0.8645 0.0
O569 O 0.75248 0.11557 0.82024 0.0
O570 O 0.74167 0.11282 0.73369 0.0
H571 H 0.76095 0.1457 0.63119 0.0
H572 H 0.77615 0.16285 0.63096 0.0
C573 C 0.77277 0.15276 0.63286 0.0
H574 H 0.77674 0.15105 0.59386 0.0
H575 H 0.73351 0.11855 0.61126 0.0
O576 O 0.7824 0.13091 0.88422 0.0
C577 C 0.74122 0.11119 0.78915 0.0
Co578 Co 0.89075 0.64084 0.69545 0.0
Co579 Co 0.89634 0.65285 0.82012 0.0
C580 C 0.89676 0.63025 0.79634 0.0
O581 O 0.89361 0.62955 0.74175 0.0
O582 O 0.89815 0.63877 0.8295 0.0
C583 C 0.87737 0.62422 0.5875 0.0
O584 O 0.86844 0.61366 0.61822 0.0
C585 C 0.88787 0.6505 0.94044 0.0
C586 C 0.90268 0.67088 0.97325 0.0
C587 C 0.8916 0.65822 0.98996 0.0
N588 N 0.89626 0.65825 0.89672 0.0
N589 N 0.90503 0.67043 0.91637 0.0
C590 C 0.87708 0.63592 0.93496 0.0
H591 H 0.87802 0.63114 0.97359 0.0
H592 H 0.87837 0.63233 0.89406 0.0
H593 H 0.86619 0.63311 0.93305 0.0
C594 C 0.86492 0.63957 0.70151 0.0
N595 N 0.87667 0.64163 0.72589 0.0
N596 N 0.87935 0.64706 0.77803 0.0
C597 C 0.86952 0.64873 0.78839 0.0
C598 C 0.85994 0.64389 0.74061 0.0
C599 C 0.8591 0.6343 0.64073 0.0
H600 H 0.85596 0.62433 0.63769 0.0
H601 H 0.84959 0.63372 0.62939 0.0
H602 H 0.8675 0.64058 0.60857 0.0
O603 O 0.90911 0.65879 0.69204 0.0
O604 O 0.91321 0.6678 0.77999 0.0
H605 H 0.88199 0.6653 0.84681 0.0
H606 H 0.86448 0.66039 0.82881 0.0
C607 C 0.87067 0.65676 0.83825 0.0
H608 H 0.86654 0.65069 0.87836 0.0
H609 H 0.91277 0.67839 0.89124 0.0
O610 O 0.8863 0.6352 0.61306 0.0
C611 C 0.9168 0.66848 0.72728 0.0
C612 C 0.08817 0.49315 0.82368 0.0
C613 C 0.09826 0.5046 0.85631 0.0
C614 C 0.08608 0.49379 0.76366 0.0
C615 C 0.09976 0.51284 0.62971 0.0
H616 H 0.05954 0.49497 0.59287 0.0
C617 C 0.07801 0.51164 0.39524 0.0
C618 C 0.06586 0.49924 0.37628 0.0
C619 C 0.08279 0.5138 0.4541 0.0
C620 C 0.07079 0.49993 0.60229 0.0
H621 H 0.1149 0.52556 0.85119 0.0
H622 H 0.11125 0.52665 0.74497 0.0
H623 H 0.06746 0.49575 0.69388 0.0
H624 H 0.04888 0.47952 0.40403 0.0
H625 H 0.05716 0.48324 0.50632 0.0
H626 H 0.103 0.51669 0.53745 0.0
C627 C 0.10497 0.51722 0.76636 0.0
C628 C 0.07532 0.50039 0.66008 0.0
C629 C 0.10708 0.51659 0.82691 0.0
C630 C 0.05825 0.4892 0.41748 0.0
C631 C 0.063 0.49134 0.47611 0.0
C632 C 0.0952 0.5123 0.57145 0.0
C633 C 0.09402 0.50588 0.73497 0.0
C634 C 0.08977 0.50656 0.67413 0.0
C635 C 0.07539 0.50363 0.49502 0.0
C636 C 0.0806 0.50557 0.55707 0.0
H637 H 0.08134 0.48376 0.84515 0.0
H638 H 0.07779 0.48486 0.74006 0.0
H639 H 0.11097 0.51769 0.63966 0.0
H640 H 0.08379 0.51969 0.36486 0.0
H641 H 0.09221 0.52344 0.46764 0.0
C642 C 0.57076 0.65062 0.84486 0.0
C643 C 0.56872 0.64089 0.88191 0.0
C644 C 0.56997 0.6491 0.78384 0.0
C645 C 0.56068 0.6254 0.6642 0.0
H646 H 0.59398 0.65617 0.59284 0.0
C647 C 0.58531 0.62369 0.45437 0.0
C648 C 0.58902 0.63315 0.41191 0.0
C649 C 0.58094 0.62433 0.5094 0.0
C650 C 0.58453 0.64755 0.6119 0.0
H651 H 0.56281 0.62139 0.88435 0.0
H652 H 0.56176 0.61889 0.7788 0.0
H653 H 0.58818 0.65764 0.69195 0.0
H654 H 0.59185 0.65104 0.39394 0.0
H655 H 0.58421 0.65216 0.48974 0.0
H656 H 0.55749 0.61523 0.58451 0.0
C657 C 0.5639 0.62767 0.79624 0.0
C658 C 0.58112 0.6484 0.66855 0.0
C659 C 0.56465 0.62916 0.85698 0.0
C660 C 0.5887 0.64345 0.42558 0.0
C661 C 0.58446 0.64416 0.4805 0.0
C662 C 0.56417 0.62453 0.60762 0.0
C663 C 0.56713 0.63783 0.759 0.0
C664 C 0.56931 0.63729 0.69579 0.0
C665 C 0.58047 0.63458 0.52282 0.0
C666 C 0.57626 0.63556 0.58139 0.0
H667 H 0.57376 0.6597 0.86281 0.0
H668 H 0.5722 0.65699 0.75617 0.0
H669 H 0.5514 0.61671 0.68368 0.0
H670 H 0.58555 0.6157 0.44461 0.0
H671 H 0.57811 0.61693 0.54169 0.0
C672 C 0.43086 0.03782 0.73452 0.0
C673 C 0.44011 0.03909 0.77892 0.0
C674 C 0.43548 0.04157 0.67722 0.0
C675 C 0.46792 0.06297 0.59301 0.0
H676 H 0.44191 0.04261 0.46134 0.0
C677 C 0.48091 0.07402 0.34288 0.0
C678 C 0.46983 0.07215 0.30775 0.0
C679 C 0.47891 0.07092 0.40281 0.0
C680 C 0.44927 0.04843 0.49773 0.0
H681 H 0.46095 0.04418 0.79809 0.0
H682 H 0.46917 0.05094 0.69766 0.0
H683 H 0.43492 0.03432 0.56063 0.0
H684 H 0.44864 0.06684 0.30791 0.0
H685 H 0.4453 0.06173 0.41191 0.0
H686 H 0.48221 0.07716 0.52936 0.0
C687 C 0.4585 0.0474 0.70746 0.0
C688 C 0.44527 0.04368 0.5545 0.0
C689 C 0.45383 0.0436 0.7648 0.0
C690 C 0.45727 0.06819 0.33398 0.0
C691 C 0.45532 0.06519 0.39336 0.0
C692 C 0.47196 0.06773 0.53587 0.0
C693 C 0.4494 0.04654 0.66325 0.0
C694 C 0.45439 0.05103 0.60285 0.0
C695 C 0.46584 0.06597 0.42778 0.0
C696 C 0.46249 0.06064 0.48795 0.0
H697 H 0.42021 0.0343 0.74452 0.0
H698 H 0.42827 0.0409 0.64417 0.0
H699 H 0.47515 0.06887 0.62957 0.0
H700 H 0.49066 0.07701 0.3234 0.0
H701 H 0.48721 0.07166 0.42866 0.0
C702 C 0.0353 0.63078 0.70939 0.0
C703 C 0.03057 0.62283 0.75936 0.0
C704 C 0.03276 0.62531 0.65363 0.0
C705 C 0.00726 0.59705 0.56909 0.0
H706 H 0.03731 0.6115 0.45747 0.0
C707 C 0.9958 0.58717 0.31736 0.0
C708 C 0.00416 0.59876 0.28478 0.0
C709 C -0.00086 0.58717 0.37712 0.0
C710 C 0.02879 0.6073 0.48819 0.0
H711 H 0.0209 0.60315 0.7903 0.0
H712 H 0.01558 0.5935 0.6924 0.0
H713 H 0.04355 0.61759 0.56116 0.0
H714 H 0.02236 0.61945 0.28952 0.0
H715 H 0.02786 0.61947 0.39225 0.0
H716 H 0.99248 0.58765 0.4955 0.0
C717 C 0.02108 0.6039 0.69678 0.0
C718 C 0.03239 0.61076 0.54734 0.0
C719 C 0.0239 0.60942 0.75266 0.0
C720 C 0.01577 0.61028 0.31294 0.0
C721 C 0.01904 0.61028 0.37198 0.0
C722 C 0.00364 0.59376 0.50956 0.0
C723 C 0.02539 0.61181 0.64699 0.0
C724 C 0.02165 0.60605 0.58769 0.0
C725 C 0.01089 0.59875 0.40474 0.0
C726 C 0.01441 0.59937 0.46826 0.0
H727 H 0.04064 0.64116 0.71324 0.0
H728 H 0.03615 0.63156 0.6155 0.0
H729 H -0.00116 0.59334 0.59984 0.0
H730 H 0.98681 0.57814 0.2967 0.0
H731 H 0.99263 0.57815 0.40156 0.0
C732 C 0.44877 0.43556 0.34071 0.0
C733 C 0.44103 0.42249 0.32184 0.0
C734 C 0.44926 0.43847 0.39982 0.0
C735 C 0.4438 0.42671 0.55032 0.0
H736 H 0.42674 0.44393 0.5706 0.0
C737 C 0.43732 0.44103 0.77703 0.0
C738 C 0.42301 0.43498 0.789 0.0
C739 C 0.44122 0.44119 0.71992 0.0
C740 C 0.4316 0.4392 0.56543 0.0
H741 H 0.42901 0.40238 0.35081 0.0
H742 H 0.43018 0.40757 0.4547 0.0
H743 H 0.4318 0.44096 0.47176 0.0
H744 H 0.40183 0.42563 0.75067 0.0
H745 H 0.40877 0.42626 0.64969 0.0
H746 H 0.4435 0.42488 0.64408 0.0
C747 C 0.43564 0.41548 0.42335 0.0
C748 C 0.43458 0.43758 0.5092 0.0
C749 C 0.43495 0.41252 0.36398 0.0
C750 C 0.41289 0.43016 0.74238 0.0
C751 C 0.41684 0.43052 0.68492 0.0
C752 C 0.44108 0.42856 0.60669 0.0
C753 C 0.44229 0.42841 0.4412 0.0
C754 C 0.44052 0.43117 0.5012 0.0
C755 C 0.43095 0.43568 0.67368 0.0
C756 C 0.43476 0.43464 0.6145 0.0
H757 H 0.45368 0.44349 0.30948 0.0
H758 H 0.45458 0.44852 0.41289 0.0
H759 H 0.44835 0.42171 0.545 0.0
H760 H 0.44542 0.44533 0.81215 0.0
H761 H 0.45222 0.44546 0.71194 0.0
C762 C 0.57782 0.97995 0.84171 0.0
C763 C 0.56462 0.97283 0.86882 0.0
C764 C 0.57875 0.98277 0.78213 0.0
C765 C 0.55958 0.97528 0.64062 0.0
H766 H 0.58956 0.01225 0.61404 0.0
C767 C 0.56979 0.99905 0.41104 0.0
C768 C 0.58417 0.00742 0.39559 0.0
C769 C 0.56615 0.99459 0.46868 0.0
C770 C 0.58121 0.00189 0.6206 0.0
H771 H 0.54185 0.96224 0.85436 0.0
H772 H 0.54349 0.96723 0.74891 0.0
H773 H 0.58524 0.00375 0.71348 0.0
H774 H 0.60604 0.01812 0.42837 0.0
H775 H 0.59976 0.01036 0.52882 0.0
H776 H 0.55577 0.97343 0.54719 0.0
C777 C 0.55309 0.97059 0.77421 0.0
C778 C 0.57873 0.99703 0.67752 0.0
C779 C 0.55215 0.9677 0.8343 0.0
C780 C 0.59487 0.01169 0.43916 0.0
C781 C 0.59126 0.00724 0.49667 0.0
C782 C 0.56211 0.98016 0.58331 0.0
C783 C 0.5665 0.97861 0.74835 0.0
C784 C 0.56812 0.98364 0.68799 0.0
C785 C 0.57686 0.99853 0.51195 0.0
C786 C 0.57316 0.99348 0.57272 0.0
H787 H 0.58758 0.98388 0.86723 0.0
H788 H 0.58917 0.98869 0.76293 0.0
H789 H 0.55132 0.96493 0.64765 0.0
H790 H 0.56135 0.99601 0.37884 0.0
H791 H 0.55499 0.98811 0.47945 0.0
C792 C 0.70694 0.79799 0.76007 0.0
C793 C 0.69682 0.79929 0.73679 0.0
C794 C 0.71253 0.80223 0.81708 0.0
C795 C 0.70507 0.81017 0.95776 0.0
H796 H 0.74412 0.82401 -0.00334 0.0
C797 C 0.72634 0.82319 0.19379 0.0
C798 C 0.73063 0.81582 0.21467 0.0
C799 C 0.72525 0.8247 0.13368 0.0
C800 C 0.73324 0.82024 0.98619 0.0
H801 H 0.68447 0.8059 0.75382 0.0
H802 H 0.69451 0.8137 0.85359 0.0
H803 H 0.73555 0.81956 0.89401 0.0
H804 H 0.73865 0.80549 0.18935 0.0
H805 H 0.73675 0.80816 0.08385 0.0
H806 H 0.70276 0.8108 0.04989 0.0
C807 C 0.69797 0.80919 0.8283 0.0
C808 C 0.72828 0.8176 0.92763 0.0
C809 C 0.69221 0.80475 0.77137 0.0
C810 C 0.7352 0.81113 0.17453 0.0
C811 C 0.73416 0.81269 0.11418 0.0
C812 C 0.71009 0.81299 0.01606 0.0
C813 C 0.70822 0.808 0.85177 0.0
C814 C 0.71402 0.81222 0.91293 0.0
C815 C 0.72853 0.81896 0.09339 0.0
C816 C 0.72411 0.81779 0.0309 0.0
H817 H 0.71044 0.79358 0.73428 0.0
H818 H 0.72007 0.80079 0.83419 0.0
H819 H 0.69398 0.80586 0.94831 0.0
H820 H 0.72299 0.82714 0.2237 0.0
H821 H 0.7211 0.82975 0.11859 0.0
C822 C 0.26834 0.95793 0.79283 0.0
C823 C 0.276 0.96881 0.75595 0.0
C824 C 0.26534 0.95928 0.84976 0.0
C825 C 0.26425 0.98215 0.94135 0.0
H826 H 0.26446 0.96253 0.07083 0.0
C827 C 0.27116 0.99588 0.18746 0.0
C828 C 0.26262 0.98564 0.227 0.0
C829 C 0.27036 0.99324 0.12758 0.0
C830 C 0.26417 0.96793 0.03486 0.0
H831 H 0.28724 0.98966 0.74946 0.0
H832 H 0.28263 0.9922 0.84926 0.0
H833 H 0.26867 0.95903 0.97189 0.0
H834 H 0.24582 0.96469 0.23418 0.0
H835 H 0.24466 0.96012 0.12977 0.0
H836 H 0.26044 0.99149 0.00539 0.0
C837 C 0.27834 0.98252 0.83411 0.0
C838 C 0.26656 0.96592 0.97813 0.0
C839 C 0.28112 0.98111 0.77715 0.0
C840 C 0.2526 0.97281 0.20495 0.0
C841 C 0.25196 0.97016 0.14527 0.0
C842 C 0.26209 0.9843 -0.00176 0.0
C843 C 0.27018 0.97158 0.87083 0.0
C844 C 0.26681 0.97313 0.93073 0.0
C845 C 0.26114 0.98029 0.10645 0.0
C846 C 0.26215 0.97728 0.0455 0.0
H847 H 0.26423 0.94834 0.77689 0.0
H848 H 0.25893 0.95063 0.87659 0.0
H849 H 0.26401 0.98765 0.90574 0.0
H850 H 0.27893 0.00586 0.20309 0.0
H851 H 0.27757 0.00122 0.09842 0.0
C852 C 0.10754 0.39382 0.79211 0.0
C853 C 0.10949 0.38707 0.75173 0.0
C854 C 0.10386 0.38936 0.8496 0.0
C855 C 0.08723 0.35978 0.93939 0.0
H856 H 0.10335 0.38481 0.06802 0.0
C857 C 0.07689 0.34684 0.18948 0.0
C858 C 0.07538 0.35498 0.22205 0.0
C859 C 0.08024 0.34943 0.12997 0.0
C860 C 0.09866 0.3777 0.03248 0.0
H861 H 0.11028 0.37099 0.74103 0.0
H862 H 0.10363 0.36306 0.84147 0.0
H863 H 0.11193 0.39242 0.96945 0.0
H864 H 0.07484 0.37134 0.21733 0.0
H865 H 0.08035 0.37563 0.11396 0.0
H866 H 0.0739 0.34506 0.00314 0.0
C867 C 0.10455 0.37158 0.82811 0.0
C868 C 0.10359 0.38206 0.97605 0.0
C869 C 0.10827 0.37607 0.77052 0.0
C870 C 0.07615 0.36503 0.19337 0.0
C871 C 0.07939 0.36754 0.13432 0.0
C872 C 0.0823 0.35539 -0.00382 0.0
C873 C 0.10217 0.37811 0.86806 0.0
C874 C 0.09774 0.3732 0.92866 0.0
C875 C 0.08207 0.36014 0.10265 0.0
C876 C 0.08777 0.36437 0.04297 0.0
H877 H 0.1084 0.40231 0.77874 0.0
H878 H 0.10196 0.39454 0.87915 0.0
H879 H 0.08247 0.35273 0.90361 0.0
H880 H 0.07641 0.33907 0.21077 0.0
H881 H 0.08221 0.34354 0.10639 0.0
C882 C 0.73116 0.97676 0.20122 0.0
C883 C 0.7211 0.97714 0.22888 0.0
C884 C 0.73091 0.97605 0.13977 0.0
C885 C 0.71723 0.98135 0.00434 0.0
H886 H 0.7103 0.9501 0.94388 0.0
C887 C 0.68488 0.9569 0.79138 0.0
C888 C 0.68961 0.95227 0.75193 0.0
C889 C 0.69134 0.96129 0.84723 0.0
C890 C 0.71249 0.959 0.9598 0.0
H891 H 0.7035 0.97786 0.21498 0.0
H892 H 0.70328 0.97694 0.1084 0.0
H893 H 0.71852 0.95678 0.04616 0.0
H894 H 0.70399 0.94758 0.74133 0.0
H895 H 0.71551 0.95548 0.83889 0.0
H896 H 0.71075 0.98337 0.91892 0.0
C897 C 0.71128 0.97709 0.1336 0.0
C898 C 0.71724 0.96284 0.01821 0.0
C899 C 0.71134 0.97752 0.19456 0.0
C900 C 0.70048 0.95153 0.77021 0.0
C901 C 0.70695 0.9559 0.82626 0.0
C902 C 0.71253 0.97755 0.94607 0.0
C903 C 0.72083 0.97606 0.10562 0.0
C904 C 0.71913 0.97378 0.04146 0.0
C905 C 0.70261 0.96106 0.86489 0.0
C906 C 0.70959 0.96606 0.92386 0.0
H907 H 0.73872 0.97638 0.22703 0.0
H908 H 0.73836 0.97523 0.11901 0.0
H909 H 0.71877 0.9899 0.02117 0.0
H910 H 0.67646 0.95751 0.77845 0.0
H911 H 0.6875 0.96489 0.87661 0.0
C912 C 0.09752 0.79145 0.77664 0.0
C913 C 0.0952 0.77988 0.76019 0.0
C914 C 0.0951 0.79312 0.83401 0.0
C915 C 0.0913 0.78072 0.98458 0.0
H916 H 0.06819 0.79192 0.00754 0.0
C917 C 0.06366 0.77035 0.19802 0.0
C918 C 0.06605 0.78101 0.22702 0.0
C919 C 0.0669 0.77125 0.13928 0.0
C920 C 0.07478 0.78893 0.00169 0.0
H921 H 0.08923 0.76131 0.79112 0.0
H922 H 0.08504 0.76421 0.89117 0.0
H923 H 0.0758 0.7921 0.90867 0.0
H924 H 0.07267 0.80063 0.21664 0.0
H925 H 0.0784 0.80223 0.11257 0.0
H926 H 0.09006 0.77727 0.07696 0.0
C927 C 0.08872 0.77199 0.85994 0.0
C928 C 0.07917 0.78907 0.94532 0.0
C929 C 0.0911 0.77031 0.80267 0.0
C930 C 0.07068 0.79227 0.195 0.0
C931 C 0.074 0.79319 0.13575 0.0
C932 C 0.0869 0.78055 0.04055 0.0
C933 C 0.0905 0.78333 0.87602 0.0
C934 C 0.08719 0.78466 0.93613 0.0
C935 C 0.07268 0.78286 0.10831 0.0
C936 C 0.0783 0.78433 0.04943 0.0
H937 H 0.10128 0.79923 0.74545 0.0
H938 H 0.09686 0.80208 0.84554 0.0
H939 H 0.09774 0.77756 0.97907 0.0
H940 H 0.05993 0.7615 0.22162 0.0
H941 H 0.06543 0.76302 0.11868 0.0
C942 C 0.25665 0.34361 0.78592 0.0
C943 C 0.25711 0.35399 0.76383 0.0
C944 C 0.25199 0.33898 0.84235 0.0
C945 C 0.24576 0.34783 0.98402 0.0
H946 H 0.22466 0.31071 0.01325 0.0
C947 C 0.22653 0.32705 0.2126 0.0
C948 C 0.23252 0.32118 0.23486 0.0
C949 C 0.22625 0.32906 0.15246 0.0
C950 C 0.23047 0.32107 0.00548 0.0
H951 H 0.25337 0.36787 0.78251 0.0
H952 H 0.2448 0.35957 0.88133 0.0
H953 H 0.23113 0.31894 0.91314 0.0
H954 H 0.24144 0.31154 0.21111 0.0
H955 H 0.24077 0.31496 0.1056 0.0
H956 H 0.24502 0.34991 0.07644 0.0
C957 C 0.24827 0.35513 0.85559 0.0
C958 C 0.23429 0.32583 0.94839 0.0
C959 C 0.25316 0.3599 0.79922 0.0
C960 C 0.23688 0.31619 0.19534 0.0
C961 C 0.23647 0.31811 0.13497 0.0
C962 C 0.24174 0.34305 0.04086 0.0
C963 C 0.2475 0.34452 0.87756 0.0
C964 C 0.24227 0.33931 0.93722 0.0
C965 C 0.23175 0.32508 0.11347 0.0
C966 C 0.23431 0.32968 0.0522 0.0
H967 H 0.25985 0.33905 0.75934 0.0
H968 H 0.25197 0.33108 0.85836 0.0
H969 H 0.25206 0.35828 0.97729 0.0
H970 H 0.22287 0.33082 0.24179 0.0
H971 H 0.22237 0.3343 0.13666 0.0
C972 C 0.4255 0.17994 0.53333 0.0
C973 C 0.42103 0.16854 0.56359 0.0
C974 C 0.42272 0.17939 0.47259 0.0
C975 C 0.39542 0.15582 0.36815 0.0
H976 H 0.42108 0.17664 0.24261 0.0
C977 C 0.38052 0.139 0.12882 0.0
C978 C 0.38493 0.14832 0.08472 0.0
C979 C 0.38509 0.14295 0.18705 0.0
C980 C 0.41375 0.17092 0.27737 0.0
H981 H 0.41155 0.14804 0.55413 0.0
H982 H 0.40684 0.14714 0.44877 0.0
H983 H 0.43024 0.1815 0.34497 0.0
H984 H 0.39662 0.16899 0.06731 0.0
H985 H 0.40475 0.17594 0.16931 0.0
H986 H 0.37895 0.14516 0.30157 0.0
C987 C 0.41218 0.15639 0.47173 0.0
C988 C 0.41901 0.17368 0.33569 0.0
C989 C 0.41492 0.15693 0.53186 0.0
C990 C 0.39351 0.16164 0.10014 0.0
C991 C 0.3981 0.16561 0.15853 0.0
C992 C 0.39016 0.15313 0.31027 0.0
C993 C 0.41547 0.16744 0.44209 0.0
C994 C 0.40994 0.16588 0.3812 0.0
C995 C 0.39404 0.15631 0.20247 0.0
C996 C 0.39934 0.16037 0.2641 0.0
H997 H 0.43017 0.18898 0.55704 0.0
H998 H 0.42538 0.18803 0.4503 0.0
H999 H 0.38817 0.14984 0.40282 0.0
H1000 H 0.3739 0.12867 0.11802 0.0
H1001 H 0.38193 0.13554 0.21977 0.0
C1002 C 0.92053 0.34347 0.4931 0.0
C1003 C 0.90861 0.34081 0.5201 0.0
C1004 C 0.91983 0.34067 0.43385 0.0
C1005 C 0.90065 0.33312 0.29248 0.0
H1006 H 0.91489 0.31359 0.26831 0.0
C1007 C 0.89962 0.31328 0.06411 0.0
C1008 C 0.91257 0.31599 0.04978 0.0
C1009 C 0.89748 0.3153 0.1214 0.0
C1010 C 0.91093 0.31908 0.27425 0.0
H1011 H 0.88691 0.33401 0.50576 0.0
H1012 H 0.88565 0.32902 0.40083 0.0
H1013 H 0.91455 0.32013 0.36725 0.0
H1014 H 0.93318 0.32239 0.08448 0.0
H1015 H 0.92946 0.32586 0.18421 0.0
H1016 H 0.89733 0.33227 0.19887 0.0
C1017 C 0.89553 0.33331 0.42597 0.0
C1018 C 0.91074 0.32282 0.33084 0.0
C1019 C 0.89626 0.33619 0.48574 0.0
C1020 C 0.92308 0.3202 0.09424 0.0
C1021 C 0.92094 0.32218 0.15138 0.0
C1022 C 0.90088 0.32938 0.23548 0.0
C1023 C 0.90714 0.33505 0.40031 0.0
C1024 C 0.90595 0.33016 0.3404 0.0
C1025 C 0.90819 0.31989 0.16545 0.0
C1026 C 0.90635 0.32259 0.22581 0.0
H1027 H 0.93025 0.3472 0.51848 0.0
H1028 H 0.92906 0.34243 0.41474 0.0
H1029 H 0.89687 0.33874 0.29881 0.0
H1030 H 0.8911 0.30955 0.03133 0.0
H1031 H 0.88744 0.31321 0.1313 0.0
C1032 C 0.78985 0.72265 0.00931 0.0
C1033 C 0.78753 0.73137 0.98693 0.0
C1034 C 0.78908 0.72014 0.06938 0.0
C1035 C 0.7882 0.73081 0.21621 0.0
H1036 H 0.75878 0.69376 0.24321 0.0
C1037 C 0.7599 0.71224 0.43468 0.0
C1038 C 0.75623 0.70044 0.45691 0.0
C1039 C 0.76504 0.71621 0.37826 0.0
C1040 C 0.76721 0.70409 0.2368 0.0
H1041 H 0.78409 0.74531 0.01051 0.0
H1042 H 0.78293 0.741 0.11577 0.0
H1043 H 0.76733 0.70138 0.14453 0.0
H1044 H 0.75469 0.68334 0.43832 0.0
H1045 H 0.76404 0.69039 0.33954 0.0
H1046 H 0.78814 0.73357 0.3084 0.0
C1047 C 0.78518 0.73603 0.08662 0.0
C1048 C 0.7721 0.70846 0.18023 0.0
C1049 C 0.7858 0.73846 0.02637 0.0
C1050 C 0.75739 0.69245 0.42155 0.0
C1051 C 0.76274 0.69651 0.36518 0.0
C1052 C 0.78345 0.72643 0.27301 0.0
C1053 C 0.78619 0.72643 0.10819 0.0
C1054 C 0.78244 0.72186 0.16929 0.0
C1055 C 0.76679 0.70853 0.34317 0.0
C1056 C 0.77268 0.71305 0.28375 0.0
H1057 H 0.79137 0.71713 0.98018 0.0
H1058 H 0.7901 0.71283 0.08521 0.0
H1059 H 0.79625 0.74118 0.20881 0.0
H1060 H 0.75888 0.71844 0.46117 0.0
H1061 H 0.76762 0.72531 0.36219 0.0
C1062 C 0.27962 0.23271 0.00938 0.0
C1063 C 0.29079 0.2348 0.97812 0.0
C1064 C 0.27992 0.23228 0.07075 0.0
C1065 C 0.29916 0.23148 0.20132 0.0
H1066 H 0.29561 0.25681 0.26484 0.0
C1067 C 0.32785 0.25978 0.41648 0.0
C1068 C 0.32009 0.2613 0.45518 0.0
C1069 C 0.32216 0.25446 0.36047 0.0
C1070 C 0.29642 0.24955 0.24809 0.0
H1071 H 0.31018 0.23667 0.98571 0.0
H1072 H 0.31078 0.23604 0.09224 0.0
H1073 H 0.28789 0.24937 0.16361 0.0
H1074 H 0.3008 0.25928 0.46499 0.0
H1075 H 0.29076 0.24985 0.36749 0.0
H1076 H 0.30823 0.23211 0.28545 0.0
C1077 C 0.3018 0.23475 0.06988 0.0
C1078 C 0.29192 0.24522 0.19017 0.0
C1079 C 0.30152 0.23523 0.00876 0.0
C1080 C 0.30682 0.25789 0.43641 0.0
C1081 C 0.30114 0.25261 0.38046 0.0
C1082 C 0.3037 0.23585 0.25928 0.0
C1083 C 0.29134 0.23384 0.10159 0.0
C1084 C 0.29358 0.23639 0.16571 0.0
C1085 C 0.30868 0.25071 0.34217 0.0
C1086 C 0.3027 0.24517 0.2827 0.0
H1087 H 0.27114 0.23225 0.98682 0.0
H1088 H 0.2716 0.23136 0.09416 0.0
H1089 H 0.30041 0.22456 0.18382 0.0
H1090 H 0.33815 0.26241 0.43004 0.0
H1091 H 0.32833 0.25335 0.33134 0.0
C1092 C 0.76129 0.11499 0.43164 0.0
C1093 C 0.75739 0.12277 0.44693 0.0
C1094 C 0.76629 0.11591 0.37602 0.0
C1095 C 0.78361 0.1381 0.25244 0.0
H1096 H 0.76822 0.10651 0.16335 0.0
C1097 C 0.78857 0.13722 0.00352 0.0
C1098 C 0.78816 0.12717 0.97861 0.0
C1099 C 0.78789 0.13792 0.06412 0.0
C1100 C 0.77292 0.11544 0.1881 0.0
H1101 H 0.75517 0.13731 0.41645 0.0
H1102 H 0.76401 0.13897 0.31822 0.0
H1103 H 0.75983 0.10485 0.26134 0.0
H1104 H 0.78837 0.1109 -0.00198 0.0
H1105 H 0.78755 0.11234 0.10424 0.0
H1106 H 0.79667 0.14871 0.17912 0.0
C1107 C 0.76333 0.13227 0.34966 0.0
C1108 C 0.768 0.11446 0.24405 0.0
C1109 C 0.75816 0.13124 0.40533 0.0
C1110 C 0.78848 0.11863 0.01586 0.0
C1111 C 0.78791 0.1194 0.07666 0.0
C1112 C 0.78864 0.13908 0.1966 0.0
C1113 C 0.76753 0.12467 0.33478 0.0
C1114 C 0.77313 0.12578 0.27632 0.0
C1115 C 0.78693 0.12867 0.10115 0.0
C1116 C 0.78317 0.12776 0.16339 0.0
H1117 H 0.76053 0.10822 0.46286 0.0
H1118 H 0.76946 0.10994 0.36566 0.0
H1119 H 0.78791 0.14697 0.27698 0.0
H1120 H 0.78848 0.14406 0.97605 0.0
H1121 H 0.78711 0.14517 0.08132 0.0
C1122 C 0.86304 0.61554 0.49231 0.0
C1123 C 0.87621 0.62418 0.52296 0.0
C1124 C 0.86173 0.61753 0.43249 0.0
C1125 C 0.87797 0.64473 0.33128 0.0
H1126 H 0.86425 0.62 0.20282 0.0
C1127 C 0.89643 0.66072 0.09796 0.0
C1128 C 0.88664 0.65404 0.05047 0.0
C1129 C 0.89233 0.65636 0.15518 0.0
C1130 C 0.86782 0.62692 0.23842 0.0
H1131 H 0.89853 0.64083 0.51465 0.0
H1132 H 0.89627 0.64418 0.41103 0.0
H1133 H 0.86218 0.61261 0.30462 0.0
H1134 H 0.86447 0.63828 0.02646 0.0
H1135 H 0.85746 0.63035 0.12662 0.0
H1136 H 0.88411 0.65915 0.26579 0.0
C1137 C 0.88691 0.63612 0.4331 0.0
C1138 C 0.86665 0.6227 0.29642 0.0
C1139 C 0.88821 0.63416 0.49226 0.0
C1140 C 0.87246 0.64327 0.06168 0.0
C1141 C 0.86838 0.63881 0.11906 0.0
C1142 C 0.87912 0.64893 0.27368 0.0
C1143 C 0.87358 0.62817 0.40328 0.0
C1144 C 0.87225 0.63172 0.34302 0.0
C1145 C 0.87834 0.64524 0.16619 0.0
C1146 C 0.87457 0.64019 0.22667 0.0
H1147 H 0.85364 0.6078 0.51518 0.0
H1148 H 0.85138 0.61123 0.41 0.0
H1149 H 0.8821 0.6518 0.36673 0.0
H1150 H 0.90742 0.66908 0.09081 0.0
H1151 H 0.90028 0.66145 0.19069 0.0
C1152 C 0.02792 0.58077 0.01827 0.0
C1153 C 0.03751 0.59415 0.03147 0.0
C1154 C 0.03283 0.57347 0.01393 0.0
C1155 C 0.06581 0.57666 -0.0019 0.0
H1156 H 0.04238 0.54157 0.06152 0.0
C1157 C 0.08522 0.54608 0.05423 0.0
C1158 C 0.0758 0.53282 0.0384 0.0
C1159 C 0.08111 0.55402 0.04551 0.0
C1160 C 0.04895 0.5513 0.04299 0.0
H1161 H 0.05958 0.61054 0.05106 0.0
H1162 H 0.06824 0.59775 0.04524 0.0
H1163 H 0.03403 0.55453 0.06351 0.0
H1164 H 0.05501 0.51735 0.00023 0.0
H1165 H 0.04772 0.53118 0.98514 0.0
H1166 H 0.08096 0.57345 0.97963 0.0
C1167 C 0.05699 0.59289 0.03664 0.0
C1168 C 0.04417 0.55873 0.04396 0.0
C1169 C 0.05207 0.6002 0.04039 0.0
C1170 C 0.06244 0.52763 0.0121 0.0
C1171 C 0.05827 0.53549 0.00393 0.0
C1172 C 0.07068 0.56926 -0.00224 0.0
C1173 C 0.04742 0.57941 0.02354 0.0
C1174 C 0.05252 0.5715 0.0215 0.0
C1175 C 0.06743 0.54868 0.02176 0.0
C1176 C 0.06227 0.5565 0.02011 0.0
H1177 H 0.01664 0.57599 0.01108 0.0
H1178 H 0.02519 0.56317 0.00279 0.0
H1179 H 0.07243 0.5864 0.97969 0.0
H1180 H 0.0955 0.55016 0.07529 0.0
H1181 H 0.08831 0.56413 0.06004 0.0
C1182 C 0.4649 0.48339 0.07225 0.0
C1183 C 0.46971 0.47589 0.0727 0.0
C1184 C 0.47466 0.497 0.07481 0.0
C1185 C 0.51149 0.52408 0.12156 0.0
H1186 H 0.50491 0.54479 0.02422 0.0
C1187 C 0.55213 0.58035 0.11184 0.0
C1188 C 0.54656 0.5872 0.11272 0.0
C1189 C 0.54302 0.56677 0.10522 0.0
C1190 C 0.50681 0.53914 0.05208 0.0
H1191 H 0.48828 0.47652 0.07644 0.0
H1192 H 0.50551 0.50048 0.08095 0.0
H1193 H 0.48864 0.52101 0.01507 0.0
H1194 H 0.52732 0.5855 0.10694 0.0
H1195 H 0.51124 0.56163 0.09571 0.0
H1196 H 0.5296 0.54221 0.1589 0.0
C1197 C 0.4942 0.49583 0.07887 0.0
C1198 C 0.49752 0.52553 0.04679 0.0
C1199 C 0.4844 0.48217 0.07614 0.0
C1200 C 0.53178 0.58034 0.10637 0.0
C1201 C 0.52264 0.56674 0.09965 0.0
C1202 C 0.52079 0.5377 0.12687 0.0
C1203 C 0.48941 0.50338 0.07814 0.0
C1204 C 0.49969 0.51785 0.08181 0.0
C1205 C 0.52817 0.55981 0.09911 0.0
C1206 C 0.51849 0.54537 0.09248 0.0
H1207 H 0.45358 0.47869 0.07045 0.0
H1208 H 0.47063 0.50253 0.07524 0.0
H1209 H 0.51333 0.51842 0.14968 0.0
H1210 H 0.56355 0.58554 0.1158 0.0
H1211 H 0.54762 0.56174 0.10406 0.0
C1212 C 0.5521 0.01656 0.0678 0.0
C1213 C 0.54597 0.00327 0.07106 0.0
C1214 C 0.54344 0.02037 0.06362 0.0
C1215 C 0.5069 0.00896 0.02924 0.0
H1216 H 0.51777 0.03677 0.13715 0.0
C1217 C 0.46996 0.02235 0.07359 0.0
C1218 C 0.47644 0.03572 0.07688 0.0
C1219 C 0.47831 0.01822 0.07176 0.0
C1220 C 0.51468 0.02911 0.10627 0.0
H1221 H 0.52622 0.98348 0.06889 0.0
H1222 H 0.5109 0.99012 0.06168 0.0
H1223 H 0.53262 0.02989 0.13205 0.0
H1224 H 0.49652 0.05529 0.08198 0.0
H1225 H 0.51124 0.04813 0.07836 0.0
H1226 H 0.48894 0.0082 0.00346 0.0
C1227 C 0.52239 0.99759 0.06241 0.0
C1228 C 0.52319 0.02517 0.10331 0.0
C1229 C 0.53109 0.99378 0.06664 0.0
C1230 C 0.49136 0.04491 0.07957 0.0
C1231 C 0.49973 0.0408 0.07765 0.0
C1232 C 0.49839 0.01293 0.03208 0.0
C1233 C 0.5285 0.01094 0.06244 0.0
C1234 C 0.51942 0.01509 0.06466 0.0
C1235 C 0.4933 0.02741 0.07338 0.0
C1236 C 0.50221 0.02307 0.07058 0.0
H1237 H 0.5636 0.024 0.07029 0.0
H1238 H 0.54845 0.03071 0.06243 0.0
H1239 H 0.5038 0.00123 -0.00125 0.0
H1240 H 0.45843 0.01512 0.07231 0.0
H1241 H 0.47305 0.00783 0.06954 0.0
C1242 C 0.70558 0.84603 0.40705 0.0
C1243 C 0.7106 0.84327 0.45667 0.0
C1244 C 0.70543 0.85667 0.40745 0.0
C1245 C 0.70533 0.87845 0.50799 0.0
H1246 H 0.71537 0.89976 0.36876 0.0
C1247 C 0.70914 0.92489 0.50388 0.0
C1248 C 0.70275 0.92628 0.4547 0.0
C1249 C 0.71084 0.91519 0.50469 0.0
C1250 C 0.71244 0.89383 0.40779 0.0
H1251 H 0.71947 0.8493 0.54539 0.0
H1252 H 0.71938 0.86808 0.5462 0.0
H1253 H 0.71725 0.88212 0.36947 0.0
H1254 H 0.69283 0.91861 0.3684 0.0
H1255 H 0.69589 0.90165 0.36938 0.0
H1256 H 0.70049 0.89016 0.5462 0.0
C1257 C 0.7154 0.86196 0.5072 0.0
C1258 C 0.71351 0.88373 0.40821 0.0
C1259 C 0.71551 0.85128 0.50675 0.0
C1260 C 0.69805 0.91784 0.40631 0.0
C1261 C 0.69979 0.90817 0.40695 0.0
C1262 C 0.70431 0.88858 0.50763 0.0
C1263 C 0.71033 0.86475 0.45754 0.0
C1264 C 0.70984 0.87586 0.45813 0.0
C1265 C 0.70618 0.90673 0.45622 0.0
C1266 C 0.70774 0.8963 0.45735 0.0
H1267 H 0.70152 0.83982 0.36829 0.0
H1268 H 0.70121 0.85841 0.36893 0.0
H1269 H 0.70223 0.87244 0.54681 0.0
H1270 H 0.71288 0.93135 0.5416 0.0
H1271 H 0.71592 0.91438 0.543 0.0
C1272 C 0.12164 0.83182 0.44773 0.0
C1273 C 0.12326 0.82203 0.45152 0.0
C1274 C 0.13364 0.84499 0.44686 0.0
C1275 C 0.17203 0.86667 0.48895 0.0
H1276 H 0.173 0.89197 0.39162 0.0
C1277 C 0.22331 0.91941 0.46294 0.0
C1278 C 0.22201 0.92939 0.46618 0.0
C1279 C 0.21115 0.90634 0.45962 0.0
C1280 C 0.17281 0.88502 0.41943 0.0
H1281 H 0.13839 0.81803 0.45429 0.0
H1282 H 0.15945 0.84104 0.45208 0.0
H1283 H 0.15194 0.86896 0.387 0.0
H1284 H 0.20721 0.93375 0.46778 0.0
H1285 H 0.18579 0.91079 0.46184 0.0
H1286 H 0.19289 0.8827 0.52118 0.0
C1287 C 0.14898 0.83864 0.45136 0.0
C1288 C 0.16077 0.87186 0.41681 0.0
C1289 C 0.13697 0.8255 0.45243 0.0
C1290 C 0.20839 0.92616 0.46523 0.0
C1291 C 0.1962 0.91307 0.46162 0.0
C1292 C 0.18407 0.8798 0.49138 0.0
C1293 C 0.14746 0.84855 0.44938 0.0
C1294 C 0.16025 0.86253 0.45151 0.0
C1295 C 0.19747 0.90302 0.45912 0.0
C1296 C 0.1846 0.88911 0.45661 0.0
H1297 H 0.11109 0.82928 0.44683 0.0
H1298 H 0.13211 0.85237 0.44581 0.0
H1299 H 0.17186 0.85979 0.51715 0.0
H1300 H 0.23375 0.92174 0.4627 0.0
H1301 H 0.21246 0.89883 0.45681 0.0
C1302 C 0.2165 0.36297 0.47293 0.0
C1303 C 0.21195 0.35012 0.47376 0.0
C1304 C 0.2065 0.36527 0.46899 0.0
C1305 C 0.16927 0.34957 0.421 0.0
H1306 H 0.17423 0.37673 0.51551 0.0
C1307 C 0.1252 0.35521 0.44374 0.0
C1308 C 0.12955 0.36797 0.44555 0.0
C1309 C 0.13537 0.35311 0.44376 0.0
C1310 C 0.1728 0.36922 0.48824 0.0
H1311 H 0.19364 0.32962 0.4722 0.0
H1312 H 0.17606 0.33357 0.46587 0.0
H1313 H 0.19182 0.37289 0.52435 0.0
H1314 H 0.14763 0.38856 0.44526 0.0
H1315 H 0.1655 0.38497 0.44502 0.0
H1316 H 0.1502 0.34586 0.38512 0.0
C1317 C 0.18731 0.34188 0.4674 0.0
C1318 C 0.18286 0.36702 0.49338 0.0
C1319 C 0.19731 0.3396 0.47139 0.0
C1320 C 0.14412 0.37863 0.44494 0.0
C1321 C 0.15429 0.37656 0.44498 0.0
C1322 C 0.1592 0.35177 0.41587 0.0
C1323 C 0.1918 0.35474 0.46571 0.0
C1324 C 0.18118 0.35714 0.45995 0.0
C1325 C 0.15003 0.36378 0.44536 0.0
C1326 C 0.16085 0.36161 0.44953 0.0
H1327 H 0.22778 0.3712 0.47403 0.0
H1328 H 0.21028 0.37527 0.46711 0.0
H1329 H 0.16782 0.34202 0.39395 0.0
H1330 H 0.11397 0.34687 0.44403 0.0
H1331 H 0.13177 0.34316 0.44441 0.0
C1332 C 0.31989 0.21303 0.73933 0.0
C1333 C 0.32852 0.22667 0.7349 0.0
C1334 C 0.32602 0.2067 0.73938 0.0
C1335 C 0.3587 0.21144 0.69913 0.0
H1336 H 0.34617 0.18383 0.81161 0.0
C1337 C 0.39011 0.19185 0.7558 0.0
C1338 C 0.38206 0.17837 0.76515 0.0
C1339 C 0.38325 0.19745 0.74712 0.0
C1340 C 0.34966 0.1914 0.77938 0.0
H1341 H 0.35018 0.24452 0.72836 0.0
H1342 H 0.36096 0.23353 0.72875 0.0
H1343 H 0.33457 0.19402 0.80625 0.0
H1344 H 0.36073 0.15999 0.76929 0.0
H1345 H 0.3487 0.16971 0.75391 0.0
H1346 H 0.37392 0.2089 0.67283 0.0
C1347 C 0.34946 0.22765 0.73093 0.0
C1348 C 0.343 0.19723 0.7763 0.0
C1349 C 0.34333 0.23394 0.73094 0.0
C1350 C 0.36711 0.17046 0.76326 0.0
C1351 C 0.36026 0.17603 0.75464 0.0
C1352 C 0.36537 0.20561 0.70224 0.0
C1353 C 0.34088 0.21396 0.73512 0.0
C1354 C 0.34751 0.20737 0.73643 0.0
C1355 C 0.36826 0.18961 0.74746 0.0
C1356 C 0.36096 0.19557 0.74262 0.0
H1357 H 0.30842 0.20729 0.74242 0.0
H1358 H 0.31912 0.19613 0.74222 0.0
H1359 H 0.36227 0.21911 0.66735 0.0
H1360 H 0.40167 0.19805 0.75673 0.0
H1361 H 0.38969 0.20795 0.74198 0.0
C1362 C 0.85836 0.27895 0.76691 0.0
C1363 C 0.8691 0.28545 0.7256 0.0
C1364 C 0.84753 0.26547 0.76222 0.0
C1365 C 0.83033 0.23646 0.66497 0.0
H1366 H 0.82645 0.21881 0.81075 0.0
C1367 C 0.80467 0.18149 0.67442 0.0
C1368 C 0.7967 0.17442 0.72357 0.0
C1369 C 0.81215 0.19502 0.67214 0.0
C1370 C 0.82716 0.22353 0.76985 0.0
H1371 H 0.87672 0.28325 0.64567 0.0
H1372 H 0.85769 0.25966 0.63692 0.0
H1373 H 0.84111 0.24251 0.80962 0.0
H1374 H 0.78975 0.17566 0.80773 0.0
H1375 H 0.80258 0.19924 0.80363 0.0
H1376 H 0.81642 0.21742 0.62513 0.0
C1377 C 0.85753 0.26496 0.67264 0.0
C1378 C 0.83558 0.23714 0.76924 0.0
C1379 C 0.8684 0.27845 0.6775 0.0
C1380 C 0.79605 0.18099 0.76984 0.0
C1381 C 0.80342 0.19448 0.76743 0.0
C1382 C 0.82179 0.22279 0.66565 0.0
C1383 C 0.84728 0.25827 0.71609 0.0
C1384 C 0.83736 0.24377 0.71677 0.0
C1385 C 0.81169 0.2017 0.71885 0.0
C1386 C 0.82021 0.21617 0.71806 0.0
H1387 H 0.85876 0.28421 0.8044 0.0
H1388 H 0.83966 0.2606 0.7959 0.0
H1389 H 0.83145 0.24132 0.62396 0.0
H1390 H 0.8053 0.17656 0.63829 0.0
H1391 H 0.81857 0.20028 0.63443 0.0
C1392 C 0.80174 0.69389 0.68773 0.0
C1393 C 0.79445 0.69285 0.73716 0.0
C1394 C 0.80745 0.68722 0.68552 0.0
C1395 C 0.81832 0.67126 0.78131 0.0
H1396 H 0.81757 0.65609 0.63448 0.0
C1397 C 0.83868 0.64142 0.77259 0.0
C1398 C 0.84896 0.64568 0.73033 0.0
C1399 C 0.83009 0.64533 0.76967 0.0
C1400 C 0.81785 0.66029 0.67572 0.0
H1401 H 0.78711 0.68399 0.82254 0.0
H1402 H 0.79687 0.67213 0.81865 0.0
H1403 H 0.80667 0.66697 0.63801 0.0
H1404 H 0.85799 0.65682 0.65057 0.0
H1405 H 0.84279 0.66352 0.64476 0.0
H1406 H 0.82948 0.6646 0.81897 0.0
C1407 C 0.79851 0.67831 0.78205 0.0
C1408 C 0.81169 0.66658 0.67774 0.0
C1409 C 0.79291 0.68506 0.78437 0.0
C1410 C 0.84995 0.65324 0.68308 0.0
C1411 C 0.8413 0.6571 0.67992 0.0
C1412 C 0.82435 0.66488 0.77937 0.0
C1413 C 0.80585 0.6793 0.73258 0.0
C1414 C 0.81197 0.67224 0.7305 0.0
C1415 C 0.83163 0.65354 0.72431 0.0
C1416 C 0.82426 0.65942 0.72652 0.0
H1417 H 0.80304 0.69989 0.6509 0.0
H1418 H 0.81325 0.6884 0.64721 0.0
H1419 H 0.81897 0.6757 0.8224 0.0
H1420 H 0.8378 0.6356 0.80944 0.0
H1421 H 0.8226 0.64231 0.80404 0.0
C1422 C 0.11646 0.42524 0.41193 0.0
C1423 C 0.10616 0.41278 0.38687 0.0
C1424 C 0.11992 0.43646 0.38336 0.0
C1425 C 0.11486 0.44765 0.23905 0.0
H1426 H 0.11722 0.47328 0.335 0.0
C1427 C 0.10678 0.48299 0.13237 0.0
C1428 C 0.09725 0.48382 0.16219 0.0
C1429 C 0.11308 0.47795 0.16063 0.0
C1430 C 0.11658 0.46621 0.30745 0.0
H1431 H 0.09148 0.40236 0.31207 0.0
H1432 H 0.09708 0.42164 0.26392 0.0
H1433 H 0.11784 0.45671 0.38198 0.0
H1434 H 0.08765 0.48084 0.24631 0.0
H1435 H 0.09803 0.47169 0.29418 0.0
H1436 H 0.11224 0.45632 0.16495 0.0
C1437 C 0.10288 0.42292 0.30449 0.0
C1438 C 0.11715 0.4568 0.33445 0.0
C1439 C 0.09952 0.4118 0.33261 0.0
C1440 C 0.09483 0.48024 0.22167 0.0
C1441 C 0.10098 0.47512 0.24957 0.0
C1442 C 0.11403 0.45689 0.21216 0.0
C1443 C 0.11309 0.43542 0.32939 0.0
C1444 C 0.11563 0.44703 0.30069 0.0
C1445 C 0.10989 0.47356 0.21908 0.0
C1446 C 0.11421 0.46592 0.24621 0.0
H1447 H 0.12183 0.42633 0.45351 0.0
H1448 H 0.12792 0.44593 0.40363 0.0
H1449 H 0.11413 0.44053 0.21152 0.0
H1450 H 0.10901 0.48581 0.08673 0.0
H1451 H 0.12011 0.47714 0.13607 0.0
C1452 C 0.6586 0.75783 0.3964 0.0
C1453 C 0.66908 0.76893 0.36461 0.0
C1454 C 0.64687 0.7467 0.36718 0.0
C1455 C 0.63642 0.73075 0.22109 0.0
H1456 H 0.60031 0.70571 0.29552 0.0
C1457 C 0.59533 0.67926 0.12424 0.0
C1458 C 0.59266 0.6698 0.16505 0.0
C1459 C 0.60131 0.69194 0.14315 0.0
C1460 C 0.61028 0.71268 0.2739 0.0
H1461 H 0.67504 0.77738 0.2776 0.0
H1462 H 0.65436 0.75815 0.22679 0.0
H1463 H 0.61762 0.72748 0.33892 0.0
H1464 H 0.59302 0.6659 0.2578 0.0
H1465 H 0.60309 0.68781 0.29066 0.0
H1466 H 0.62919 0.71584 0.1569 0.0
C1467 C 0.6554 0.75784 0.27411 0.0
C1468 C 0.62025 0.72511 0.29896 0.0
C1469 C 0.66725 0.76889 0.30326 0.0
C1470 C 0.59496 0.67295 0.22527 0.0
C1471 C 0.60067 0.6855 0.24417 0.0
C1472 C 0.62638 0.7184 0.1957 0.0
C1473 C 0.64523 0.74648 0.30551 0.0
C1474 C 0.63367 0.73413 0.27404 0.0
C1475 C 0.60443 0.69526 0.2032 0.0
C1476 C 0.61344 0.70909 0.22297 0.0
H1477 H 0.65972 0.75755 0.44373 0.0
H1478 H 0.63941 0.7381 0.3929 0.0
H1479 H 0.64666 0.73731 0.2009 0.0
H1480 H 0.5937 0.67713 0.07752 0.0
H1481 H 0.60408 0.6993 0.11072 0.0
C1482 C 0.40421 0.03284 0.1927 0.0
C1483 C 0.40584 0.02866 0.13947 0.0
C1484 C 0.39129 0.02513 0.22115 0.0
C1485 C 0.36579 0.0047 0.29013 0.0
H1486 H 0.33014 0.98682 0.19943 0.0
C1487 C 0.31222 0.97865 0.40472 0.0
C1488 C 0.30295 0.98088 0.37956 0.0
C1489 C 0.32396 0.98186 0.37401 0.0
C1490 C 0.34 0.99178 0.22549 0.0
H1491 H 0.39517 0.01305 0.07437 0.0
H1492 H 0.37258 -0.00061 0.12484 0.0
H1493 H 0.35246 0.99804 0.1488 0.0
H1494 H 0.29854 0.9879 0.30158 0.0
H1495 H 0.31904 0.99382 0.24947 0.0
H1496 H 0.35347 0.99922 0.36667 0.0
C1497 C 0.38126 0.00877 0.14406 0.0
C1498 C 0.35281 0.99808 0.19639 0.0
C1499 C 0.39421 0.01658 0.11515 0.0
C1500 C 0.30543 0.98602 0.32247 0.0
C1501 C 0.31717 0.98931 0.29214 0.0
C1502 C 0.35301 0.99854 0.31919 0.0
C1503 C 0.37967 0.01294 0.19759 0.0
C1504 C 0.36591 0.00492 0.22832 0.0
C1505 C 0.32671 0.98746 0.31771 0.0
C1506 C 0.33998 0.9923 0.28721 0.0
H1507 H 0.41291 0.04215 0.21244 0.0
H1508 H 0.39038 0.02886 0.26136 0.0
H1509 H 0.37564 0.00958 0.31624 0.0
H1510 H 0.31055 0.97462 0.44843 0.0
H1511 H 0.33096 0.98012 0.39472 0.0
C1512 C 0.46498 0.09764 0.03949 0.0
C1513 C 0.45599 0.08561 0.00925 0.0
C1514 C 0.46679 0.1087 0.01781 0.0
C1515 C 0.45811 0.12096 0.88718 0.0
H1516 H 0.45471 0.13984 0.00574 0.0
C1517 C 0.43896 0.15055 0.82022 0.0
C1518 C 0.42792 0.14785 0.85488 0.0
C1519 C 0.44778 0.14744 0.84044 0.0
C1520 C 0.45568 0.13469 0.97196 0.0
H1521 H 0.44238 0.07593 0.93114 0.0
H1522 H 0.44505 0.09488 0.8948 0.0
H1523 H 0.45987 0.12512 0.03567 0.0
H1524 H 0.41826 0.14079 0.93988 0.0
H1525 H 0.4331 0.135 0.97391 0.0
H1526 H 0.45253 0.12952 0.82383 0.0
C1527 C 0.45104 0.096 0.93441 0.0
C1528 C 0.45886 0.12636 0.98912 0.0
C1529 C 0.44937 0.08502 0.95567 0.0
C1530 C 0.42657 0.14289 0.91169 0.0
C1531 C 0.43525 0.13969 0.93159 0.0
C1532 C 0.45467 0.1291 0.87009 0.0
C1533 C 0.45953 0.10793 0.96574 0.0
C1534 C 0.45946 0.11892 0.94706 0.0
C1535 C 0.44566 0.1415 0.89551 0.0
C1536 C 0.45274 0.13559 0.91247 0.0
H1537 H 0.47038 0.09845 0.08057 0.0
H1538 H 0.4736 0.11776 0.04261 0.0
H1539 H 0.45893 0.11571 0.85343 0.0
H1540 H 0.44041 0.15453 0.77651 0.0
H1541 H 0.45589 0.14924 0.81196 0.0
C1542 C 0.03156 0.45747 0.96698 0.0
C1543 C 0.03397 0.46032 0.02757 0.0
C1544 C 0.01828 0.44658 0.94514 0.0
C1545 C 0.98768 0.41407 0.98656 0.0
H1546 H 0.96932 0.41568 0.84625 0.0
C1547 C 0.93758 0.36693 0.88626 0.0
C1548 C 0.93725 0.3657 0.82494 0.0
C1549 C 0.94713 0.37913 0.91365 0.0
C1550 C 0.97433 0.41503 0.88523 0.0
H1551 H 0.02428 0.45401 0.11268 0.0
H1552 H 0.00113 0.43477 0.0744 0.0
H1553 H 0.99078 0.43581 0.88909 0.0
H1554 H 0.94604 0.37635 0.74384 0.0
H1555 H 0.96309 0.39758 0.79149 0.0
H1556 H 0.97188 0.39334 0.98146 0.0
C1557 C 0.00953 0.44106 0.04397 0.0
C1558 C 0.98659 0.42657 0.90984 0.0
C1559 C 0.02277 0.45208 0.0658 0.0
C1560 C 0.946 0.37702 0.79118 0.0
C1561 C 0.95577 0.38922 0.81867 0.0
C1562 C 0.97556 0.40253 0.96159 0.0
C1563 C 0.00718 0.43821 0.98343 0.0
C1564 C 0.99348 0.42617 0.96028 0.0
C1565 C 0.95682 0.39035 0.88044 0.0
C1566 C 0.96881 0.40281 0.9101 0.0
H1567 H 0.03993 0.46366 0.93627 0.0
H1568 H 0.01682 0.44453 0.89836 0.0
H1569 H 0.99288 0.41346 0.02503 0.0
H1570 H 0.93082 0.35836 0.91331 0.0
H1571 H 0.9473 0.37966 0.96112 0.0
C1572 C 0.72834 0.69531 0.88435 0.0
C1573 C 0.7291 0.69085 0.82994 0.0
C1574 C 0.71536 0.68873 0.91217 0.0
C1575 C 0.68804 0.67044 0.97668 0.0
H1576 H 0.65401 0.65623 0.87893 0.0
C1577 C 0.63276 0.64532 0.07668 0.0
C1578 C 0.62387 0.64773 0.04889 0.0
C1579 C 0.64527 0.64922 0.05043 0.0
C1580 C 0.66342 0.66024 0.907 0.0
H1581 H 0.71691 0.67574 0.76302 0.0
H1582 H 0.69432 0.66396 0.81253 0.0
H1583 H 0.67651 0.66577 0.83311 0.0
H1584 H 0.62125 0.65632 0.97228 0.0
H1585 H 0.64317 0.66352 0.92788 0.0
H1586 H 0.67509 0.66563 0.05053 0.0
C1587 C 0.70367 0.67277 0.83295 0.0
C1588 C 0.67633 0.66553 0.88063 0.0
C1589 C 0.71665 0.67948 0.80465 0.0
C1590 C 0.62778 0.65418 0.99461 0.0
C1591 C 0.64034 0.65823 0.96885 0.0
C1592 C 0.67516 0.66531 0.00307 0.0
C1593 C 0.70282 0.67741 0.88675 0.0
C1594 C 0.68886 0.67086 0.91507 0.0
C1595 C 0.64924 0.65576 -0.00381 0.0
C1596 C 0.66272 0.66032 0.96853 0.0
H1597 H 0.73773 0.70409 0.90488 0.0
H1598 H 0.71513 0.69277 0.95286 0.0
H1599 H 0.6974 0.67421 0.00473 0.0
H1600 H 0.62999 0.6403 0.1184 0.0
H1601 H 0.65176 0.64701 0.07245 0.0
C1602 C 0.97742 0.61119 0.9454 0.0
C1603 C 0.98028 0.61063 0.00537 0.0
C1604 C 0.96473 0.60886 0.92683 0.0
C1605 C 0.93423 0.59872 0.89744 0.0
H1606 H 0.92846 0.62112 0.97732 0.0
C1607 C 0.89953 0.61967 0.88196 0.0
C1608 C 0.90043 0.62207 0.82129 0.0
C1609 C 0.90552 0.61419 0.90777 0.0
C1610 C 0.92956 0.61449 0.95521 0.0
H1611 H 0.97182 0.60669 0.09263 0.0
H1612 H 0.94971 0.60289 0.06005 0.0
H1613 H 0.94586 0.61871 0.01728 0.0
H1614 H 0.90745 0.61985 0.73944 0.0
H1615 H 0.91843 0.61079 0.78449 0.0
H1616 H 0.91809 0.59467 0.83469 0.0
C1617 C 0.95731 0.60507 0.02759 0.0
C1618 C 0.93962 0.61316 0.97819 0.0
C1619 C 0.96994 0.60723 0.04615 0.0
C1620 C 0.90656 0.61807 0.78632 0.0
C1621 C 0.91282 0.61281 0.81229 0.0
C1622 C 0.92401 0.59991 0.87476 0.0
C1623 C 0.9547 0.60608 0.96784 0.0
C1624 C 0.94236 0.60559 0.94862 0.0
C1625 C 0.91284 0.61126 0.87368 0.0
C1626 C 0.92186 0.60814 0.90239 0.0
H1627 H 0.98512 0.61369 0.91279 0.0
H1628 H 0.96309 0.60985 0.88059 0.0
H1629 H 0.93605 0.5927 0.87413 0.0
H1630 H 0.89466 0.6225 0.90986 0.0
H1631 H 0.90494 0.61276 0.95488 0.0
C1632 C 0.41361 0.38238 0.06763 0.0
C1633 C 0.42126 0.3936 0.03257 0.0
C1634 C 0.40758 0.3701 0.04308 0.0
C1635 C 0.39409 0.35422 0.89823 0.0
H1636 H 0.38637 0.32411 0.97944 0.0
C1637 C 0.35924 0.30333 0.78923 0.0
C1638 C 0.34868 0.29301 0.82435 0.0
C1639 C 0.37021 0.31547 0.81442 0.0
C1640 C 0.38842 0.33244 0.9563 0.0
H1641 H 0.43013 0.40114 0.94708 0.0
H1642 H 0.41996 0.37982 0.90445 0.0
H1643 H 0.40268 0.34582 0.02506 0.0
H1644 H 0.34164 0.28728 0.91384 0.0
H1645 H 0.36062 0.3085 0.95745 0.0
H1646 H 0.37961 0.34092 0.83033 0.0
C1647 C 0.41809 0.38035 0.9501 0.0
C1648 C 0.39776 0.34486 0.98239 0.0
C1649 C 0.42394 0.39256 0.97442 0.0
C1650 C 0.34956 0.29502 0.88542 0.0
C1651 C 0.36053 0.30716 0.91056 0.0
C1652 C 0.38481 0.34186 0.87222 0.0
C1653 C 0.40926 0.36892 0.98328 0.0
C1654 C 0.40056 0.35587 0.95391 0.0
C1655 C 0.37087 0.31757 0.87525 0.0
C1656 C 0.38171 0.3308 0.90123 0.0
H1657 H 0.41138 0.38297 0.11261 0.0
H1658 H 0.40082 0.3615 0.06988 0.0
H1659 H 0.39571 0.36242 0.87556 0.0
H1660 H 0.35897 0.3021 0.74213 0.0
H1661 H 0.37813 0.32325 0.78612 0.0
C1662 C 0.72698 0.10388 0.87979 0.0
C1663 C 0.72736 0.10345 0.8183 0.0
C1664 C 0.71408 0.09569 0.90828 0.0
C1665 C 0.67458 0.07339 0.88299 0.0
H1666 H 0.6754 0.05747 0.02712 0.0
C1667 C 0.62432 0.02678 0.98 0.0
C1668 C 0.6226 0.02661 0.04089 0.0
C1669 C 0.63701 0.03704 0.95472 0.0
C1670 C 0.67504 0.06196 0.98734 0.0
H1671 H 0.71442 0.09431 0.73832 0.0
H1672 H 0.69192 0.07974 0.78806 0.0
H1673 H 0.69762 0.07386 0.97884 0.0
H1674 H 0.63293 0.03711 0.12298 0.0
H1675 H 0.65528 0.05501 0.07861 0.0
H1676 H 0.65187 0.06107 0.89076 0.0
C1677 C 0.70156 0.0866 0.81432 0.0
C1678 C 0.68777 0.07139 0.95966 0.0
C1679 C 0.71448 0.09493 0.78573 0.0
C1680 C 0.63392 0.03695 0.07597 0.0
C1681 C 0.64671 0.04716 0.05065 0.0
C1682 C 0.66183 0.06385 0.9104 0.0
C1683 C 0.70124 0.08673 0.87606 0.0
C1684 C 0.68771 0.07717 0.90689 0.0
C1685 C 0.64835 0.04732 0.98974 0.0
C1686 C 0.66193 0.05798 0.96259 0.0
H1687 H 0.73671 0.11045 0.90615 0.0
H1688 H 0.71421 0.09629 0.95571 0.0
H1689 H 0.67414 0.07778 0.84304 0.0
H1690 H 0.61581 0.019 0.9516 0.0
H1691 H 0.63804 0.03683 0.90776 0.0
C1692 C 0.6578 0.9578 0.335 0.0
C1693 C 0.65726 0.95243 0.38983 0.0
C1694 C 0.64556 0.95523 0.30864 0.0
C1695 C 0.61031 0.94545 0.34425 0.0
H1696 H 0.6083 0.94813 0.17495 0.0
C1697 C 0.58951 0.97043 0.23699 0.0
C1698 C 0.58532 0.96853 0.17713 0.0
C1699 C 0.59331 0.96325 0.26398 0.0
C1700 C 0.60832 0.94699 0.22215 0.0
H1701 H 0.6433 0.93982 0.45937 0.0
H1702 H 0.62172 0.93509 0.41255 0.0
H1703 H 0.62463 0.94481 0.2189 0.0
H1704 H 0.58036 0.9566 0.10026 0.0
H1705 H 0.58662 0.94371 0.148 0.0
H1706 H 0.59384 0.94744 0.34742 0.0
C1707 C 0.63172 0.94149 0.39045 0.0
C1708 C 0.61795 0.94533 0.24755 0.0
C1709 C 0.64408 0.94419 0.41729 0.0
C1710 C 0.58376 0.95844 0.14622 0.0
C1711 C 0.58744 0.9511 0.17356 0.0
C1712 C 0.60045 0.94682 0.31875 0.0
C1713 C 0.63234 0.94706 0.33589 0.0
C1714 C 0.6197 0.94538 0.30903 0.0
C1715 C 0.59285 0.95381 0.23214 0.0
C1716 C 0.59997 0.94845 0.25762 0.0
H1717 H 0.66777 0.96425 0.3127 0.0
H1718 H 0.64662 0.96004 0.26755 0.0
H1719 H 0.61122 0.94539 0.39172 0.0
H1720 H 0.59064 0.978 0.26254 0.0
H1721 H 0.59754 0.96581 0.3088 0.0
C1722 C 0.04662 0.6684 0.10211 0.0
C1723 C 0.04569 0.65774 0.12346 0.0
C1724 C 0.05372 0.67989 0.13564 0.0
C1725 C 0.06619 0.69151 0.29087 0.0
H1726 H 0.08028 0.72465 0.22052 0.0
C1727 C 0.07306 0.7324 0.42373 0.0
C1728 C 0.0822 0.7453 0.40389 0.0
C1729 C 0.07138 0.72236 0.39225 0.0
C1730 C 0.07673 0.7156 0.2414 0.0
H1731 H 0.05222 0.65089 0.19389 0.0
H1732 H 0.06552 0.67118 0.25031 0.0
H1733 H 0.07328 0.70659 0.1582 0.0
H1734 H 0.09749 0.75816 0.33871 0.0
H1735 H 0.09551 0.74089 0.28627 0.0
H1736 H 0.07037 0.70072 0.37422 0.0
C1737 C 0.06016 0.67058 0.20954 0.0
C1738 C 0.07238 0.70507 0.2052 0.0
C1739 C 0.05269 0.65898 0.17693 0.0
C1740 C 0.09036 0.74821 0.3546 0.0
C1741 C 0.08903 0.73826 0.32414 0.0
C1742 C 0.07091 0.70214 0.32714 0.0
C1743 C 0.06038 0.68107 0.19048 0.0
C1744 C 0.06665 0.69274 0.22923 0.0
C1745 C 0.07908 0.7251 0.34103 0.0
C1746 C 0.07586 0.71425 0.30296 0.0
H1747 H 0.04118 0.66758 0.06114 0.0
H1748 H 0.05338 0.68757 0.1195 0.0
H1749 H 0.06171 0.68221 0.31157 0.0
H1750 H 0.06651 0.72997 0.46122 0.0
H1751 H 0.06343 0.71241 0.40651 0.0
C1752 C 0.37967 0.41261 0.1309 0.0
C1753 C 0.39254 0.4176 0.16191 0.0
C1754 C 0.3675 0.4084 0.16107 0.0
C1755 C 0.3524 0.39704 0.30854 0.0
H1756 H 0.32345 0.39928 0.24327 0.0
C1757 C 0.3011 0.37688 0.43086 0.0
C1758 C 0.28841 0.36846 0.3969 0.0
C1759 C 0.31429 0.38471 0.40399 0.0
C1760 C 0.33146 0.3986 0.26198 0.0
H1761 H 0.40295 0.42281 0.24854 0.0
H1762 H 0.38193 0.41589 0.30078 0.0
H1763 H 0.34582 0.40984 0.19277 0.0
H1764 H 0.27959 0.3621 0.3079 0.0
H1765 H 0.30257 0.37579 0.26127 0.0
H1766 H 0.33801 0.38575 0.37753 0.0
C1767 C 0.38106 0.41479 0.25341 0.0
C1768 C 0.34425 0.40459 0.23297 0.0
C1769 C 0.39315 0.41883 0.22338 0.0
C1770 C 0.28916 0.36842 0.33541 0.0
C1771 C 0.30232 0.37634 0.30858 0.0
C1772 C 0.3397 0.39116 0.33775 0.0
C1773 C 0.36799 0.40925 0.22282 0.0
C1774 C 0.3548 0.40372 0.25547 0.0
C1775 C 0.31503 0.38439 0.34264 0.0
C1776 C 0.32901 0.39171 0.31435 0.0
H1777 H 0.37886 0.41151 0.08352 0.0
H1778 H 0.3576 0.40405 0.13605 0.0
H1779 H 0.36013 0.39593 0.32668 0.0
H1780 H 0.30089 0.37716 0.4783 0.0
H1781 H 0.32394 0.39091 0.43124 0.0
C1782 C 0.7431 0.79524 0.46255 0.0
C1783 C 0.73351 0.79461 0.49954 0.0
C1784 C 0.75206 0.79242 0.48438 0.0
C1785 C 0.76729 0.78903 0.62088 0.0
H1786 H 0.76348 0.76138 0.53611 0.0
C1787 C 0.7743 0.75322 0.73158 0.0
C1788 C 0.7775 0.74659 0.69695 0.0
C1789 C 0.77333 0.76253 0.70622 0.0
C1790 C 0.76507 0.76936 0.55983 0.0
H1791 H 0.72615 0.79091 0.58884 0.0
H1792 H 0.74184 0.78617 0.62671 0.0
H1793 H 0.75358 0.7715 0.49284 0.0
H1794 H 0.78383 0.74542 0.61115 0.0
H1795 H 0.78281 0.76207 0.56726 0.0
H1796 H 0.77855 0.78674 0.68847 0.0
C1797 C 0.74248 0.78889 0.58101 0.0
C1798 C 0.75932 0.77513 0.53492 0.0
C1799 C 0.73341 0.79152 0.55911 0.0
C1800 C 0.78105 0.75025 0.63825 0.0
C1801 C 0.78038 0.75973 0.61318 0.0
C1802 C 0.77322 0.78337 0.64558 0.0
C1803 C 0.75174 0.78912 0.54372 0.0
C1804 C 0.75998 0.78472 0.56595 0.0
C1805 C 0.77578 0.7655 0.646 0.0
C1806 C 0.77179 0.77317 0.61616 0.0
H1807 H 0.74346 0.7976 0.41647 0.0
H1808 H 0.75912 0.79267 0.45474 0.0
H1809 H 0.76808 0.79653 0.64542 0.0
H1810 H 0.77144 0.75048 0.77695 0.0
H1811 H 0.76966 0.76667 0.73295 0.0
C1812 C 0.28836 0.014 0.58412 0.0
C1813 C 0.28443 0.01133 0.52406 0.0
C1814 C 0.29558 0.02661 0.60662 0.0
C1815 C 0.32139 0.06 0.56309 0.0
H1816 H 0.31371 0.06846 0.71132 0.0
C1817 C 0.36022 0.1117 0.66285 0.0
C1818 C 0.3627 0.11272 0.72406 0.0
C1819 C 0.34904 0.0998 0.63669 0.0
C1820 C 0.3161 0.06625 0.67016 0.0
H1821 H 0.2846 0.01977 0.44075 0.0
H1822 H 0.29763 0.04201 0.48009 0.0
H1823 H 0.29647 0.04663 0.66841 0.0
H1824 H 0.35533 0.10212 0.80601 0.0
H1825 H 0.3362 0.08116 0.76028 0.0
H1826 H 0.34133 0.07921 0.56596 0.0
C1827 C 0.29492 0.03422 0.50966 0.0
C1828 C 0.30615 0.05379 0.64541 0.0
C1829 C 0.28743 0.0215 0.48728 0.0
C1830 C 0.35365 0.10162 0.75872 0.0
C1831 C 0.3426 0.08963 0.73242 0.0
C1832 C 0.33143 0.07238 0.58819 0.0
C1833 C 0.29926 0.0369 0.56935 0.0
C1834 C 0.3088 0.05051 0.59202 0.0
C1835 C 0.34022 0.08854 0.67096 0.0
C1836 C 0.32902 0.07563 0.64247 0.0
H1837 H 0.28629 0.00643 0.61359 0.0
H1838 H 0.29893 0.02844 0.65266 0.0
H1839 H 0.3238 0.05765 0.52237 0.0
H1840 H 0.36689 0.12014 0.63501 0.0
H1841 H 0.34736 0.09945 0.58947 0.0
C1842 C 0.04196 0.34877 0.49398 0.0
C1843 C 0.0549 0.35835 0.52429 0.0
C1844 C 0.02889 0.34362 0.51892 0.0
C1845 C 0.00294 0.33106 0.60064 0.0
H1846 H 0.00109 0.35854 0.64733 0.0
C1847 C 0.95694 0.32479 0.72727 0.0
C1848 C 0.95169 0.33083 0.69904 0.0
C1849 C 0.96889 0.32652 0.70616 0.0
C1850 C 0.00149 0.35078 0.63467 0.0
H1851 H 0.0642 0.36941 0.60611 0.0
H1852 H 0.04148 0.36058 0.64861 0.0
H1853 H 0.02338 0.36429 0.61188 0.0
H1854 H 0.95466 0.34313 0.62568 0.0
H1855 H 0.97561 0.34634 0.59021 0.0
H1856 H 0.98093 0.31756 0.62396 0.0
C1857 C 0.04146 0.35713 0.60559 0.0
C1858 C 0.01422 0.35405 0.6147 0.0
C1859 C 0.05447 0.36217 0.58109 0.0
C1860 C 0.95841 0.33835 0.64863 0.0
C1861 C 0.97042 0.34022 0.62825 0.0
C1862 C 0.9902 0.32776 0.62174 0.0
C1863 C 0.02858 0.34804 0.57424 0.0
C1864 C 0.01505 0.34425 0.59711 0.0
C1865 C 0.97587 0.33448 0.6572 0.0
C1866 C 0.98937 0.33763 0.6382 0.0
H1867 H 0.04192 0.34556 0.45033 0.0
H1868 H 0.01906 0.33664 0.49385 0.0
H1869 H 0.00337 0.32335 0.58738 0.0
H1870 H 0.95194 0.31889 0.76601 0.0
H1871 H 0.97299 0.32205 0.72921 0.0
C1872 C 0.27431 0.25099 0.65852 0.0
C1873 C 0.28093 0.25547 0.71445 0.0
C1874 C 0.26493 0.25333 0.63754 0.0
C1875 C 0.24729 0.26807 0.67741 0.0
H1876 H 0.25701 0.2813 0.51844 0.0
C1877 C 0.24931 0.31073 0.58942 0.0
C1878 C 0.24498 0.31044 0.53075 0.0
C1879 C 0.24906 0.30054 0.61174 0.0
C1880 C 0.25389 0.27739 0.56236 0.0
H1881 H 0.28229 0.26504 0.79422 0.0
H1882 H 0.26644 0.26973 0.75695 0.0
H1883 H 0.26469 0.26915 0.55887 0.0
H1884 H 0.23648 0.29893 0.45011 0.0
H1885 H 0.23636 0.28122 0.48903 0.0
H1886 H 0.23736 0.27727 0.68156 0.0
C1887 C 0.26809 0.26409 0.72949 0.0
C1888 C 0.25826 0.27035 0.5857 0.0
C1889 C 0.27724 0.26146 0.75094 0.0
C1890 C 0.23994 0.29949 0.49544 0.0
C1891 C 0.23986 0.28935 0.51765 0.0
C1892 C 0.24306 0.27527 0.65417 0.0
C1893 C 0.26231 0.26054 0.67152 0.0
C1894 C 0.25539 0.26592 0.64412 0.0
C1895 C 0.24464 0.28989 0.57574 0.0
C1896 C 0.24668 0.28031 0.59698 0.0
H1897 H 0.27683 0.24612 0.63015 0.0
H1898 H 0.26032 0.25006 0.59349 0.0
H1899 H 0.24464 0.26459 0.7221 0.0
H1900 H 0.25333 0.31901 0.61781 0.0
H1901 H 0.25304 0.30133 0.65638 0.0
C1902 C 0.77642 0.09811 0.64182 0.0
C1903 C 0.77315 0.09852 0.69979 0.0
C1904 C 0.77432 0.08703 0.62042 0.0
C1905 C 0.7635 0.05405 0.66176 0.0
H1906 H 0.74398 0.04453 0.50877 0.0
C1907 C 0.72277 0.00087 0.5764 0.0
C1908 C 0.72274 0.99839 0.51647 0.0
C1909 C 0.73189 0.01363 0.59876 0.0
C1910 C 0.74963 0.04711 0.55103 0.0
H1911 H 0.76616 0.0882 0.78237 0.0
H1912 H 0.76195 0.06858 0.74471 0.0
H1913 H 0.75539 0.06621 0.54838 0.0
H1914 H 0.73271 0.00734 0.43359 0.0
H1915 H 0.74855 0.02961 0.47269 0.0
H1916 H 0.75695 0.03454 0.66503 0.0
C1917 C 0.76644 0.07688 0.71581 0.0
C1918 C 0.75626 0.0596 0.5738 0.0
C1919 C 0.76883 0.08811 0.73751 0.0
C1920 C 0.73237 0.00891 0.47986 0.0
C1921 C 0.74143 0.02167 0.50218 0.0
C1922 C 0.75673 0.04147 0.63907 0.0
C1923 C 0.76856 0.07599 0.65622 0.0
C1924 C 0.76311 0.0632 0.62983 0.0
C1925 C 0.74113 0.02419 0.56165 0.0
C1926 C 0.74955 0.03783 0.58381 0.0
H1927 H 0.78004 0.10615 0.61233 0.0
H1928 H 0.77654 0.08687 0.57489 0.0
H1929 H 0.76882 0.05653 0.70469 0.0
H1930 H 0.71556 0.99298 0.60594 0.0
H1931 H 0.73132 0.01528 0.64466 0.0
C1932 C 0.94085 0.6901 0.74676 0.0
C1933 C 0.93033 0.68055 0.70658 0.0
C1934 C 0.95405 0.70097 0.72713 0.0
C1935 C 0.97296 0.7206 0.59619 0.0
H1936 H 0.006 0.72636 0.67339 0.0
C1937 C 0.02777 0.74928 0.48874 0.0
C1938 C 0.04017 0.75602 0.5252 0.0
C1939 C 0.01428 0.74188 0.51318 0.0
C1940 C 0.99697 0.72514 0.65196 0.0
H1941 H 0.92519 0.67524 0.61409 0.0
H1942 H 0.94816 0.69423 0.58004 0.0
H1943 H 0.98249 0.71035 0.71269 0.0
H1944 H 0.04823 0.76107 0.61559 0.0
H1945 H 0.02481 0.74861 0.65806 0.0
H1946 H 0.98741 0.73534 0.53519 0.0
C1947 C 0.94621 0.6933 0.62664 0.0
C1948 C 0.98347 0.71591 0.67452 0.0
C1949 C 0.93309 0.68237 0.64625 0.0
C1950 C 0.03885 0.75582 0.58636 0.0
C1951 C 0.02541 0.7486 0.61072 0.0
C1952 C 0.9865 0.72995 0.57391 0.0
C1953 C 0.95691 0.70259 0.66693 0.0
C1954 C 0.97131 0.71338 0.64631 0.0
C1955 C 0.01293 0.74122 0.57459 0.0
C1956 C -0.00134 0.73218 0.60094 0.0
H1957 H 0.93905 0.689 0.7935 0.0
H1958 H 0.96209 0.70804 0.75908 0.0
H1959 H 0.96376 0.71892 0.57392 0.0
H1960 H 0.02845 0.74922 0.44145 0.0
H1961 H 0.00494 0.73623 0.48393 0.0
loop_
_geom_bond_atom_site_label_1
_geom_bond_atom_site_label_2
_geom_bond_distance
_geom_bond_site_symmetry_2
_ccdc_geom_bond_type
Co0 O3 1.970 . S
Co0 N17 1.989 . S
Co0 O25 1.967 . S
Co0 O32 1.920 1_554 S
Co1 O4 1.966 . S
Co1 N10 2.022 . S
Co1 N18 1.993 . S
Co1 O26 1.941 . S
C2 O3 1.258 . S
C2 O4 1.263 . S
O3 Co0 1.970 . S
O3 C2 1.258 . S
O4 Co1 1.966 . S
O4 C2 1.263 . S
C5 O6 1.235 . S
C5 O32 1.289 . S
O6 C5 1.235 . S
C7 C9 1.400 . S
C7 N10 1.351 . S
C7 C12 1.501 . S
C8 C9 1.387 . S
C8 N11 1.341 . S
C9 C7 1.400 . S
C9 C8 1.387 . S
N10 Co1 2.022 . S
N10 C7 1.351 . S
N10 N11 1.365 . S
N11 C8 1.341 . S
N11 N10 1.365 . S
N11 H31 0.862 . S
C12 C7 1.501 . S
C12 H13 0.961 . S
C12 H14 0.961 . S
C12 H15 0.960 . S
H13 C12 0.961 . S
H14 C12 0.961 . S
H15 C12 0.960 . S
C16 N17 1.342 . S
C16 C20 1.401 . S
C16 C21 1.499 1_554 S
N17 Co0 1.989 . S
N17 C16 1.342 . S
N17 N18 1.388 . S
N18 Co1 1.993 . S
N18 N17 1.388 . S
N18 C19 1.346 . S
C19 N18 1.346 . S
C19 C20 1.396 . S
C19 C29 1.510 . S
C20 C16 1.401 . S
C20 C19 1.396 . S
C21 C16 1.499 1_556 S
C21 H22 0.959 . S
C21 H23 0.960 . S
C21 H24 0.961 . S
H22 C21 0.959 . S
H23 C21 0.960 . S
H24 C21 0.961 . S
O25 Co0 1.967 . S
O25 C33 1.258 . S
O26 Co1 1.941 . S
O26 C33 1.266 . S
H27 C29 0.959 . S
H28 C29 0.961 . S
C29 C19 1.510 . S
C29 H27 0.959 . S
C29 H28 0.961 . S
C29 H30 0.960 . S
H30 C29 0.960 . S
H31 N11 0.862 . S
O32 Co0 1.920 1_556 S
O32 C5 1.289 . S
C33 O25 1.258 . S
C33 O26 1.266 . S
Co34 O37 1.970 . S
Co34 N51 1.989 . S
Co34 O59 1.967 . S
Co34 O66 1.920 1_554 S
Co35 O38 1.966 . S
Co35 N44 2.022 . S
Co35 N52 1.993 . S
Co35 O60 1.941 . S
C36 O37 1.258 . S
C36 O38 1.263 . S
O37 Co34 1.970 . S
O37 C36 1.258 . S
O38 Co35 1.966 . S
O38 C36 1.263 . S
C39 O40 1.235 . S
C39 O66 1.289 . S
O40 C39 1.235 . S
C41 C43 1.400 . S
C41 N44 1.351 . S
C41 C46 1.501 . S
C42 C43 1.387 . S
C42 N45 1.341 . S
C43 C41 1.400 . S
C43 C42 1.387 . S
N44 Co35 2.022 . S
N44 C41 1.351 . S
N44 N45 1.365 . S
N45 C42 1.341 . S
N45 N44 1.365 . S
N45 H65 0.862 . S
C46 C41 1.501 . S
C46 H47 0.961 . S
C46 H48 0.961 . S
C46 H49 0.960 . S
H47 C46 0.961 . S
H48 C46 0.961 . S
H49 C46 0.960 . S
C50 N51 1.342 . S
C50 C54 1.401 . S
C50 C55 1.499 1_554 S
N51 Co34 1.989 . S
N51 C50 1.342 . S
N51 N52 1.388 . S
N52 Co35 1.993 . S
N52 N51 1.388 . S
N52 C53 1.346 . S
C53 N52 1.346 . S
C53 C54 1.396 . S
C53 C63 1.510 . S
C54 C50 1.401 . S
C54 C53 1.396 . S
C55 C50 1.499 1_556 S
C55 H56 0.959 . S
C55 H57 0.960 . S
C55 H58 0.961 . S
H56 C55 0.959 . S
H57 C55 0.960 . S
H58 C55 0.961 . S
O59 Co34 1.967 . S
O59 C67 1.258 . S
O60 Co35 1.941 . S
O60 C67 1.266 . S
H61 C63 0.959 . S
H62 C63 0.961 . S
C63 C53 1.510 . S
C63 H61 0.959 . S
C63 H62 0.961 . S
C63 H64 0.960 . S
H64 C63 0.960 . S
H65 N45 0.862 . S
O66 Co34 1.920 1_556 S
O66 C39 1.289 . S
C67 O59 1.258 . S
C67 O60 1.266 . S
Co68 O71 1.970 . S
Co68 N85 1.989 . S
Co68 O93 1.967 . S
Co68 O100 1.920 . S
Co69 O72 1.966 . S
Co69 N78 2.022 1_554 S
Co69 N86 1.993 . S
Co69 O94 1.941 . S
C70 O71 1.258 . S
C70 O72 1.263 . S
O71 Co68 1.970 . S
O71 C70 1.258 . S
O72 Co69 1.966 . S
O72 C70 1.263 . S
C73 O74 1.235 . S
C73 O100 1.289 . S
O74 C73 1.235 . S
C75 C77 1.400 . S
C75 N78 1.351 . S
C75 C80 1.501 . S
C76 C77 1.387 . S
C76 N79 1.341 . S
C77 C75 1.400 . S
C77 C76 1.387 . S
N78 Co69 2.022 1_556 S
N78 C75 1.351 . S
N78 N79 1.365 . S
N79 C76 1.341 . S
N79 N78 1.365 . S
N79 H99 0.862 . S
C80 C75 1.501 . S
C80 H81 0.961 . S
C80 H82 0.961 . S
C80 H83 0.960 . S
H81 C80 0.961 . S
H82 C80 0.961 . S
H83 C80 0.960 . S
C84 N85 1.342 . S
C84 C88 1.401 . S
C84 C89 1.499 . S
N85 Co68 1.989 . S
N85 C84 1.342 . S
N85 N86 1.388 . S
N86 Co69 1.993 . S
N86 N85 1.388 . S
N86 C87 1.346 . S
C87 N86 1.346 . S
C87 C88 1.396 . S
C87 C97 1.510 1_554 S
C88 C84 1.401 . S
C88 C87 1.396 . S
C89 C84 1.499 . S
C89 H90 0.959 . S
C89 H91 0.960 . S
C89 H92 0.961 . S
H90 C89 0.959 . S
H91 C89 0.960 . S
H92 C89 0.961 . S
O93 Co68 1.967 . S
O93 C101 1.258 . S
O94 Co69 1.941 . S
O94 C101 1.266 . S
H95 C97 0.959 . S
H96 C97 0.961 . S
C97 C87 1.510 1_556 S
C97 H95 0.959 . S
C97 H96 0.961 . S
C97 H98 0.960 . S
H98 C97 0.960 . S
H99 N79 0.862 . S
O100 Co68 1.920 . S
O100 C73 1.289 . S
C101 O93 1.258 . S
C101 O94 1.266 . S
Co102 O105 1.970 1_455 S
Co102 N119 1.989 . S
Co102 O127 1.967 . S
Co102 O134 1.920 . S
Co103 O106 1.966 . S
Co103 N112 2.022 . S
Co103 N120 1.993 1_556 S
Co103 O128 1.941 1_556 S
C104 O105 1.258 . S
C104 O106 1.263 1_654 S
O105 Co102 1.970 1_655 S
O105 C104 1.258 . S
O106 Co103 1.966 . S
O106 C104 1.263 1_456 S
C107 O108 1.235 1_455 S
C107 O134 1.289 . S
O108 C107 1.235 1_655 S
C109 C111 1.400 . S
C109 N112 1.351 . S
C109 C114 1.501 . S
C110 C111 1.387 . S
C110 N113 1.341 . S
C111 C109 1.400 . S
C111 C110 1.387 . S
N112 Co103 2.022 . S
N112 C109 1.351 . S
N112 N113 1.365 . S
N113 C110 1.341 . S
N113 N112 1.365 . S
N113 H133 0.862 . S
C114 C109 1.501 . S
C114 H115 0.961 . S
C114 H116 0.960 . S
C114 H117 0.960 . S
H115 C114 0.961 . S
H116 C114 0.960 . S
H117 C114 0.960 . S
C118 N119 1.342 . S
C118 C122 1.401 . S
C118 C123 1.499 . S
N119 Co102 1.989 . S
N119 C118 1.342 . S
N119 N120 1.388 . S
N120 Co103 1.993 1_554 S
N120 N119 1.388 . S
N120 C121 1.346 . S
C121 N120 1.346 . S
C121 C122 1.396 . S
C121 C131 1.510 1_554 S
C122 C118 1.401 . S
C122 C121 1.396 . S
C123 C118 1.499 . S
C123 H124 0.959 . S
C123 H125 0.960 . S
C123 H126 0.961 . S
H124 C123 0.959 . S
H125 C123 0.960 . S
H126 C123 0.961 . S
O127 Co102 1.967 . S
O127 C135 1.258 . S
O128 Co103 1.941 1_554 S
O128 C135 1.266 . S
H129 C131 0.959 . S
H130 C131 0.961 . S
C131 C121 1.510 1_556 S
C131 H129 0.959 . S
C131 H130 0.961 . S
C131 H132 0.960 . S
H132 C131 0.960 . S
H133 N113 0.862 . S
O134 Co102 1.920 . S
O134 C107 1.289 . S
C135 O127 1.258 . S
C135 O128 1.266 . S
Co136 O139 1.970 . S
Co136 N153 1.989 . S
Co136 O161 1.967 . S
Co136 O168 1.920 . S
Co137 O140 1.966 . S
Co137 N146 2.022 1_554 S
Co137 N154 1.993 . S
Co137 O162 1.941 . S
C138 O139 1.258 . S
C138 O140 1.263 . S
O139 Co136 1.970 . S
O139 C138 1.258 . S
O140 Co137 1.966 . S
O140 C138 1.263 . S
C141 O142 1.235 . S
C141 O168 1.289 . S
O142 C141 1.235 . S
C143 C145 1.400 . S
C143 N146 1.351 . S
C143 C148 1.501 . S
C144 C145 1.387 . S
C144 N147 1.341 . S
C145 C143 1.400 . S
C145 C144 1.387 . S
N146 Co137 2.022 1_556 S
N146 C143 1.351 . S
N146 N147 1.365 . S
N147 C144 1.341 . S
N147 N146 1.365 . S
N147 H167 0.862 . S
C148 C143 1.501 . S
C148 H149 0.961 . S
C148 H150 0.961 . S
C148 H151 0.960 . S
H149 C148 0.961 . S
H150 C148 0.961 . S
H151 C148 0.960 . S
C152 N153 1.342 . S
C152 C156 1.401 . S
C152 C157 1.499 . S
N153 Co136 1.989 . S
N153 C152 1.342 . S
N153 N154 1.388 . S
N154 Co137 1.993 . S
N154 N153 1.388 . S
N154 C155 1.346 . S
C155 N154 1.346 . S
C155 C156 1.396 . S
C155 C165 1.504 1_554 S
C156 C152 1.401 . S
C156 C155 1.396 . S
C157 C152 1.499 . S
C157 H158 0.959 . S
C157 H159 0.960 . S
C157 H160 0.961 . S
H158 C157 0.959 . S
H159 C157 0.960 . S
H160 C157 0.961 . S
O161 Co136 1.967 . S
O161 C169 1.258 . S
O162 Co137 1.941 . S
O162 C169 1.266 . S
H163 C165 0.960 . S
H164 C165 0.963 . S
C165 C155 1.504 1_556 S
C165 H163 0.960 . S
C165 H164 0.963 . S
C165 H166 0.963 . S
H166 C165 0.963 . S
H167 N147 0.862 . S
O168 Co136 1.920 . S
O168 C141 1.289 . S
C169 O161 1.258 . S
C169 O162 1.266 . S
Co170 O173 1.970 . S
Co170 N187 1.929 1_565 S
Co170 O195 1.967 1_565 S
Co170 O202 1.920 1_554 S
Co171 O174 1.966 1_545 S
Co171 N180 2.022 . S
Co171 N188 1.993 . S
Co171 O196 1.941 . S
C172 O173 1.258 . S
C172 O174 1.263 . S
O173 Co170 1.970 . S
O173 C172 1.258 . S
O174 Co171 1.966 1_565 S
O174 C172 1.263 . S
C175 O176 1.235 . S
C175 O202 1.289 . S
O176 C175 1.235 . S
C177 C179 1.400 . S
C177 N180 1.351 . S
C177 C182 1.501 1_545 S
C178 C179 1.387 . S
C178 N181 1.341 . S
C179 C177 1.400 . S
C179 C178 1.387 . S
N180 Co171 2.022 . S
N180 C177 1.351 . S
N180 N181 1.365 . S
N181 C178 1.341 . S
N181 N180 1.365 . S
N181 H201 0.862 . S
C182 C177 1.501 1_565 S
C182 H183 0.961 . S
C182 H184 0.961 . S
C182 H185 0.960 . S
H183 C182 0.961 . S
H184 C182 0.961 . S
H185 C182 0.960 . S
C186 N187 1.340 . S
C186 C190 1.455 . S
C186 C191 1.503 1_544 S
N187 Co170 1.929 1_545 S
N187 C186 1.340 . S
N187 N188 1.407 . S
N188 Co171 1.993 . S
N188 N187 1.407 . S
N188 C189 1.346 . S
C189 N188 1.346 . S
C189 C190 1.396 . S
C189 C199 1.510 . S
C190 C186 1.455 . S
C190 C189 1.396 . S
C191 C186 1.503 1_566 S
C191 H192 0.959 . S
C191 H193 0.960 . S
C191 H194 0.961 1_565 S
H192 C191 0.959 . S
H193 C191 0.960 . S
H194 C191 0.961 1_545 S
O195 Co170 1.967 1_545 S
O195 C203 1.258 . S
O196 Co171 1.941 . S
O196 C203 1.266 . S
H197 C199 0.959 . S
H198 C199 0.992 . S
C199 C189 1.510 . S
C199 H197 0.959 . S
C199 H198 0.992 . S
C199 H200 0.960 . S
H200 C199 0.960 . S
H201 N181 0.862 . S
O202 Co170 1.920 1_556 S
O202 C175 1.289 . S
C203 O195 1.258 . S
C203 O196 1.266 . S
Co204 O207 1.970 . S
Co204 N221 1.989 . S
Co204 O229 1.967 . S
Co204 O236 1.920 . S
Co205 O208 1.966 . S
Co205 N214 2.022 . S
Co205 N222 1.993 . S
Co205 O230 1.941 . S
C206 O207 1.258 . S
C206 O208 1.263 . S
O207 Co204 1.970 . S
O207 C206 1.258 . S
O208 Co205 1.966 . S
O208 C206 1.263 . S
C209 O210 1.235 . S
C209 O236 1.289 . S
O210 C209 1.235 . S
C211 C213 1.400 . S
C211 N214 1.351 . S
C211 C216 1.501 . S
C212 C213 1.387 . S
C212 N215 1.341 . S
C213 C211 1.400 . S
C213 C212 1.387 . S
N214 Co205 2.022 . S
N214 C211 1.351 . S
N214 N215 1.365 . S
N215 C212 1.341 . S
N215 N214 1.365 . S
N215 H235 0.862 . S
C216 C211 1.501 . S
C216 H217 0.961 . S
C216 H218 0.961 . S
C216 H219 0.960 . S
H217 C216 0.961 . S
H218 C216 0.961 . S
H219 C216 0.960 . S
C220 N221 1.342 . S
C220 C224 1.401 . S
C220 C225 1.499 . S
N221 Co204 1.989 . S
N221 C220 1.342 . S
N221 N222 1.388 . S
N222 Co205 1.993 . S
N222 N221 1.388 . S
N222 C223 1.346 . S
C223 N222 1.346 . S
C223 C224 1.396 . S
C223 C233 1.510 . S
C224 C220 1.401 . S
C224 C223 1.396 . S
C225 C220 1.499 . S
C225 H226 0.959 . S
C225 H227 0.960 . S
C225 H228 0.961 . S
H226 C225 0.959 . S
H227 C225 0.960 . S
H228 C225 0.961 . S
O229 Co204 1.967 . S
O229 C237 1.258 . S
O230 Co205 1.941 . S
O230 C237 1.266 . S
H231 C233 0.959 . S
H232 C233 0.961 . S
C233 C223 1.510 . S
C233 H231 0.959 . S
C233 H232 0.961 . S
C233 H234 0.960 . S
H234 C233 0.960 . S
H235 N215 0.862 . S
O236 Co204 1.920 . S
O236 C209 1.289 . S
C237 O229 1.258 . S
C237 O230 1.266 . S
Co238 O241 1.970 . S
Co238 N255 1.989 . S
Co238 O263 1.967 . S
Co238 O270 1.920 . S
Co239 O242 1.966 . S
Co239 N248 2.022 . S
Co239 N256 1.993 . S
Co239 O264 1.941 . S
C240 O241 1.258 . S
C240 O242 1.263 . S
O241 Co238 1.970 . S
O241 C240 1.258 . S
O242 Co239 1.966 . S
O242 C240 1.263 . S
C243 O244 1.235 . S
C243 O270 1.289 . S
O244 C243 1.235 . S
C245 C247 1.400 . S
C245 N248 1.351 . S
C245 C250 1.501 . S
C246 C247 1.387 . S
C246 N249 1.341 . S
C247 C245 1.400 . S
C247 C246 1.387 . S
N248 Co239 2.022 . S
N248 C245 1.351 . S
N248 N249 1.365 . S
N249 C246 1.341 . S
N249 N248 1.365 . S
N249 H269 0.862 . S
C250 C245 1.501 . S
C250 H251 0.961 . S
C250 H252 0.961 . S
C250 H253 0.960 . S
H251 C250 0.961 . S
H252 C250 0.961 . S
H253 C250 0.960 . S
C254 N255 1.342 . S
C254 C258 1.401 . S
C254 C259 1.499 . S
N255 Co238 1.989 . S
N255 C254 1.342 . S
N255 N256 1.388 . S
N256 Co239 1.993 . S
N256 N255 1.388 . S
N256 C257 1.346 . S
C257 N256 1.346 . S
C257 C258 1.396 . S
C257 C267 1.510 . S
C258 C254 1.401 . S
C258 C257 1.396 . S
C259 C254 1.499 . S
C259 H260 0.959 . S
C259 H261 0.960 . S
C259 H262 0.961 . S
H260 C259 0.959 . S
H261 C259 0.960 . S
H262 C259 0.961 . S
O263 Co238 1.967 . S
O263 C271 1.258 . S
O264 Co239 1.941 . S
O264 C271 1.266 . S
H265 C267 0.959 . S
H266 C267 0.961 . S
C267 C257 1.510 . S
C267 H265 0.959 . S
C267 H266 0.961 . S
C267 H268 0.960 . S
H268 C267 0.960 . S
H269 N249 0.862 . S
O270 Co238 1.920 . S
O270 C243 1.289 . S
C271 O263 1.258 . S
C271 O264 1.266 . S
Co272 O275 1.970 . S
Co272 N289 1.989 . S
Co272 O297 1.967 . S
Co272 O304 1.920 . S
Co273 O276 1.966 . S
Co273 N282 2.022 . S
Co273 N290 1.993 . S
Co273 O298 1.941 . S
C274 O275 1.258 . S
C274 O276 1.263 . S
O275 Co272 1.970 . S
O275 C274 1.258 . S
O276 Co273 1.966 . S
O276 C274 1.263 . S
C277 O278 1.235 . S
C277 O304 1.289 . S
O278 C277 1.235 . S
C279 C281 1.400 . S
C279 N282 1.351 . S
C279 C284 1.501 . S
C280 C281 1.387 . S
C280 N283 1.341 . S
C281 C279 1.400 . S
C281 C280 1.387 . S
N282 Co273 2.022 . S
N282 C279 1.351 . S
N282 N283 1.365 . S
N283 C280 1.341 . S
N283 N282 1.365 . S
N283 H303 0.862 . S
C284 C279 1.501 . S
C284 H285 0.961 . S
C284 H286 0.961 . S
C284 H287 0.960 . S
H285 C284 0.961 . S
H286 C284 0.961 . S
H287 C284 0.960 . S
C288 N289 1.342 . S
C288 C292 1.401 . S
C288 C293 1.499 . S
N289 Co272 1.989 . S
N289 C288 1.342 . S
N289 N290 1.388 . S
N290 Co273 1.993 . S
N290 N289 1.388 . S
N290 C291 1.346 . S
C291 N290 1.346 . S
C291 C292 1.396 . S
C291 C301 1.510 . S
C292 C288 1.401 . S
C292 C291 1.396 . S
C293 C288 1.499 . S
C293 H294 0.959 . S
C293 H295 0.960 . S
C293 H296 0.961 . S
H294 C293 0.959 . S
H295 C293 0.960 . S
H296 C293 0.961 . S
O297 Co272 1.967 . S
O297 C305 1.258 . S
O298 Co273 1.941 . S
O298 C305 1.266 . S
H299 C301 0.959 . S
H300 C301 0.961 . S
C301 C291 1.510 . S
C301 H299 0.959 . S
C301 H300 0.961 . S
C301 H302 0.960 . S
H302 C301 0.960 . S
H303 N283 0.862 . S
O304 Co272 1.920 . S
O304 C277 1.289 . S
C305 O297 1.258 . S
C305 O298 1.266 . S
Co306 O309 1.970 . S
Co306 N323 1.989 . S
Co306 O331 1.967 . S
Co306 O338 1.920 . S
Co307 O310 1.966 . S
Co307 N316 2.022 . S
Co307 N324 1.993 . S
Co307 O332 1.941 . S
C308 O309 1.258 . S
C308 O310 1.263 . S
O309 Co306 1.970 . S
O309 C308 1.258 . S
O310 Co307 1.966 . S
O310 C308 1.263 . S
C311 O312 1.235 . S
C311 O338 1.289 . S
O312 C311 1.235 . S
C313 C315 1.400 . S
C313 N316 1.351 . S
C313 C318 1.501 . S
C314 C315 1.387 . S
C314 N317 1.341 . S
C315 C313 1.400 . S
C315 C314 1.387 . S
N316 Co307 2.022 . S
N316 C313 1.351 . S
N316 N317 1.365 . S
N317 C314 1.341 . S
N317 N316 1.365 . S
N317 H337 0.862 . S
C318 C313 1.501 . S
C318 H319 0.961 . S
C318 H320 0.961 . S
C318 H321 0.960 . S
H319 C318 0.961 . S
H320 C318 0.961 . S
H321 C318 0.960 . S
C322 N323 1.342 . S
C322 C326 1.401 . S
C322 C327 1.499 . S
N323 Co306 1.989 . S
N323 C322 1.342 . S
N323 N324 1.388 . S
N324 Co307 1.993 . S
N324 N323 1.388 . S
N324 C325 1.346 . S
C325 N324 1.346 . S
C325 C326 1.396 . S
C325 C335 1.510 . S
C326 C322 1.401 . S
C326 C325 1.396 . S
C327 C322 1.499 . S
C327 H328 0.959 . S
C327 H329 0.960 . S
C327 H330 0.961 . S
H328 C327 0.959 . S
H329 C327 0.960 . S
H330 C327 0.961 . S
O331 Co306 1.967 . S
O331 C339 1.258 . S
O332 Co307 1.941 . S
O332 C339 1.266 . S
H333 C335 0.959 . S
H334 C335 0.961 . S
C335 C325 1.510 . S
C335 H333 0.959 . S
C335 H334 0.961 . S
C335 H336 0.960 . S
H336 C335 0.960 . S
H337 N317 0.862 . S
O338 Co306 1.920 . S
O338 C311 1.289 . S
C339 O331 1.258 . S
C339 O332 1.266 . S
Co340 O343 1.970 . S
Co340 N357 1.989 . S
Co340 O365 1.967 . S
Co340 O372 1.920 . S
Co341 O344 1.966 . S
Co341 N350 2.022 . S
Co341 N358 1.993 . S
Co341 O366 1.941 . S
C342 O343 1.258 . S
C342 O344 1.263 . S
O343 Co340 1.970 . S
O343 C342 1.258 . S
O344 Co341 1.966 . S
O344 C342 1.263 . S
C345 O346 1.235 . S
C345 O372 1.289 . S
O346 C345 1.235 . S
C347 C349 1.400 . S
C347 N350 1.351 . S
C347 C352 1.501 . S
C348 C349 1.387 . S
C348 N351 1.341 . S
C349 C347 1.400 . S
C349 C348 1.387 . S
N350 Co341 2.022 . S
N350 C347 1.351 . S
N350 N351 1.365 . S
N351 C348 1.341 . S
N351 N350 1.365 . S
N351 H371 0.862 . S
C352 C347 1.501 . S
C352 H353 0.961 . S
C352 H354 0.961 . S
C352 H355 0.960 . S
H353 C352 0.961 . S
H354 C352 0.961 . S
H355 C352 0.960 . S
C356 N357 1.342 . S
C356 C360 1.401 . S
C356 C361 1.499 . S
N357 Co340 1.989 . S
N357 C356 1.342 . S
N357 N358 1.388 . S
N358 Co341 1.993 . S
N358 N357 1.388 . S
N358 C359 1.346 . S
C359 N358 1.346 . S
C359 C360 1.396 . S
C359 C369 1.510 . S
C360 C356 1.401 . S
C360 C359 1.396 . S
C361 C356 1.499 . S
C361 H362 0.959 . S
C361 H363 0.960 . S
C361 H364 0.961 . S
H362 C361 0.959 . S
H363 C361 0.960 . S
H364 C361 0.961 . S
O365 Co340 1.967 . S
O365 C373 1.258 . S
O366 Co341 1.941 . S
O366 C373 1.266 . S
H367 C369 0.959 . S
H368 C369 0.961 . S
C369 C359 1.510 . S
C369 H367 0.959 . S
C369 H368 0.961 . S
C369 H370 0.960 . S
H370 C369 0.960 . S
H371 N351 0.862 . S
O372 Co340 1.920 . S
O372 C345 1.289 . S
C373 O365 1.258 . S
C373 O366 1.266 . S
Co374 O377 1.970 . S
Co374 N391 1.989 . S
Co374 O399 1.967 . S
Co374 O406 1.920 . S
Co375 O378 1.966 . S
Co375 N384 2.022 . S
Co375 N392 1.993 . S
Co375 O400 1.941 . S
C376 O377 1.258 . S
C376 O378 1.263 . S
O377 Co374 1.970 . S
O377 C376 1.258 . S
O378 Co375 1.966 . S
O378 C376 1.263 . S
C379 O380 1.235 . S
C379 O406 1.289 . S
O380 C379 1.235 . S
C381 C383 1.400 . S
C381 N384 1.351 . S
C381 C386 1.501 . S
C382 C383 1.387 . S
C382 N385 1.341 . S
C383 C381 1.400 . S
C383 C382 1.387 . S
N384 Co375 2.022 . S
N384 C381 1.351 . S
N384 N385 1.365 . S
N385 C382 1.341 . S
N385 N384 1.365 . S
N385 H405 0.862 . S
C386 C381 1.501 . S
C386 H387 0.961 . S
C386 H388 0.961 . S
C386 H389 0.960 . S
H387 C386 0.961 . S
H388 C386 0.961 . S
H389 C386 0.960 . S
C390 N391 1.342 . S
C390 C394 1.401 . S
C390 C395 1.499 . S
N391 Co374 1.989 . S
N391 C390 1.342 . S
N391 N392 1.388 . S
N392 Co375 1.993 . S
N392 N391 1.388 . S
N392 C393 1.346 . S
C393 N392 1.346 . S
C393 C394 1.396 . S
C393 C403 1.510 . S
C394 C390 1.401 . S
C394 C393 1.396 . S
C395 C390 1.499 . S
C395 H396 0.959 . S
C395 H397 0.960 . S
C395 H398 0.961 . S
H396 C395 0.959 . S
H397 C395 0.960 . S
H398 C395 0.961 . S
O399 Co374 1.967 . S
O399 C407 1.258 . S
O400 Co375 1.941 . S
O400 C407 1.266 . S
H401 C403 0.959 . S
H402 C403 0.961 . S
C403 C393 1.510 . S
C403 H401 0.959 . S
C403 H402 0.961 . S
C403 H404 0.960 . S
H404 C403 0.960 . S
H405 N385 0.862 . S
O406 Co374 1.920 . S
O406 C379 1.289 . S
C407 O399 1.258 . S
C407 O400 1.266 . S
Co408 O411 1.970 . S
Co408 N425 1.989 . S
Co408 O433 1.967 . S
Co408 O440 1.920 . S
Co409 O412 1.966 . S
Co409 N418 2.022 . S
Co409 N426 1.993 . S
Co409 O434 1.941 . S
C410 O411 1.258 . S
C410 O412 1.263 . S
O411 Co408 1.970 . S
O411 C410 1.258 . S
O412 Co409 1.966 . S
O412 C410 1.263 . S
C413 O414 1.235 . S
C413 O440 1.289 . S
O414 C413 1.235 . S
C415 C417 1.400 1_556 S
C415 N418 1.351 . S
C415 C420 1.501 . S
C416 C417 1.387 . S
C416 N419 1.341 1_554 S
C417 C415 1.400 1_554 S
C417 C416 1.387 . S
N418 Co409 2.022 . S
N418 C415 1.351 . S
N418 N419 1.365 . S
N419 C416 1.341 1_556 S
N419 N418 1.365 . S
N419 H439 0.862 . S
C420 C415 1.501 . S
C420 H421 0.961 . S
C420 H422 0.961 . S
C420 H423 0.960 1_556 S
H421 C420 0.961 . S
H422 C420 0.961 . S
H423 C420 0.960 1_554 S
C424 N425 1.342 . S
C424 C428 1.401 . S
C424 C429 1.499 . S
N425 Co408 1.989 . S
N425 C424 1.342 . S
N425 N426 1.388 . S
N426 Co409 1.993 . S
N426 N425 1.388 . S
N426 C427 1.346 . S
C427 N426 1.346 . S
C427 C428 1.396 . S
C427 C437 1.510 . S
C428 C424 1.401 . S
C428 C427 1.396 . S
C429 C424 1.499 . S
C429 H430 0.959 . S
C429 H431 0.960 . S
C429 H432 0.961 . S
H430 C429 0.959 . S
H431 C429 0.960 . S
H432 C429 0.961 . S
O433 Co408 1.967 . S
O433 C441 1.258 . S
O434 Co409 1.941 . S
O434 C441 1.266 . S
H435 C437 0.959 . S
H436 C437 0.961 . S
C437 C427 1.510 . S
C437 H435 0.959 . S
C437 H436 0.961 . S
C437 H438 0.960 . S
H438 C437 0.960 . S
H439 N419 0.862 . S
O440 Co408 1.920 . S
O440 C413 1.289 . S
C441 O433 1.258 . S
C441 O434 1.266 . S
Co442 O445 1.970 . S
Co442 N459 1.989 . S
Co442 O467 1.967 . S
Co442 O474 1.920 . S
Co443 O446 1.966 . S
Co443 N452 2.022 . S
Co443 N460 1.993 . S
Co443 O468 1.941 . S
C444 O445 1.258 . S
C444 O446 1.263 . S
O445 Co442 1.970 . S
O445 C444 1.258 . S
O446 Co443 1.966 . S
O446 C444 1.263 . S
C447 O448 1.235 . S
C447 O474 1.289 . S
O448 C447 1.235 . S
C449 C451 1.400 . S
C449 N452 1.351 . S
C449 C454 1.501 . S
C450 C451 1.387 . S
C450 N453 1.341 . S
C451 C449 1.400 . S
C451 C450 1.387 . S
N452 Co443 2.022 . S
N452 C449 1.351 . S
N452 N453 1.365 . S
N453 C450 1.341 . S
N453 N452 1.365 . S
N453 H473 0.862 . S
C454 C449 1.501 . S
C454 H455 0.961 . S
C454 H456 0.961 . S
C454 H457 0.960 . S
H455 C454 0.961 . S
H456 C454 0.961 . S
H457 C454 0.960 . S
C458 N459 1.342 . S
C458 C462 1.401 . S
C458 C463 1.499 . S
N459 Co442 1.989 . S
N459 C458 1.342 . S
N459 N460 1.388 . S
N460 Co443 1.993 . S
N460 N459 1.388 . S
N460 C461 1.346 . S
C461 N460 1.346 . S
C461 C462 1.396 . S
C461 C471 1.510 . S
C462 C458 1.401 . S
C462 C461 1.396 . S
C463 C458 1.499 . S
C463 H464 0.959 . S
C463 H465 0.960 . S
C463 H466 0.961 . S
H464 C463 0.959 . S
H465 C463 0.960 . S
H466 C463 0.961 . S
O467 Co442 1.967 . S
O467 C475 1.258 . S
O468 Co443 1.941 . S
O468 C475 1.266 . S
H469 C471 0.959 . S
H470 C471 0.961 . S
C471 C461 1.510 . S
C471 H469 0.959 . S
C471 H470 0.961 . S
C471 H472 0.960 . S
H472 C471 0.960 . S
H473 N453 0.862 . S
O474 Co442 1.920 . S
O474 C447 1.289 . S
C475 O467 1.258 . S
C475 O468 1.266 . S
Co476 O479 1.970 . S
Co476 N493 1.989 . S
Co476 O501 1.967 . S
Co476 O508 1.920 . S
Co477 O480 1.966 . S
Co477 N486 2.022 . S
Co477 N494 1.993 . S
Co477 O502 1.941 . S
C478 O479 1.258 . S
C478 O480 1.263 . S
O479 Co476 1.970 . S
O479 C478 1.258 . S
O480 Co477 1.966 . S
O480 C478 1.263 . S
C481 O482 1.235 . S
C481 O508 1.289 . S
O482 C481 1.235 . S
C483 C485 1.400 . S
C483 N486 1.351 . S
C483 C488 1.501 . S
C484 C485 1.387 . S
C484 N487 1.341 . S
C485 C483 1.400 . S
C485 C484 1.387 . S
N486 Co477 2.022 . S
N486 C483 1.351 . S
N486 N487 1.365 . S
N487 C484 1.341 . S
N487 N486 1.365 . S
N487 H507 0.862 . S
C488 C483 1.501 . S
C488 H489 0.961 . S
C488 H490 0.961 . S
C488 H491 0.960 . S
H489 C488 0.961 . S
H490 C488 0.961 . S
H491 C488 0.960 . S
C492 N493 1.342 . S
C492 C496 1.401 . S
C492 C497 1.499 . S
N493 Co476 1.989 . S
N493 C492 1.342 . S
N493 N494 1.388 . S
N494 Co477 1.993 . S
N494 N493 1.388 . S
N494 C495 1.346 . S
C495 N494 1.346 . S
C495 C496 1.396 . S
C495 C505 1.510 . S
C496 C492 1.401 . S
C496 C495 1.396 . S
C497 C492 1.499 . S
C497 H498 0.959 . S
C497 H499 0.960 . S
C497 H500 0.961 . S
H498 C497 0.959 . S
H499 C497 0.960 . S
H500 C497 0.961 . S
O501 Co476 1.967 . S
O501 C509 1.258 . S
O502 Co477 1.941 . S
O502 C509 1.266 . S
H503 C505 0.959 . S
H504 C505 0.961 . S
C505 C495 1.510 . S
C505 H503 0.959 . S
C505 H504 0.961 . S
C505 H506 0.960 . S
H506 C505 0.960 . S
H507 N487 0.862 . S
O508 Co476 1.920 . S
O508 C481 1.289 . S
C509 O501 1.258 . S
C509 O502 1.266 . S
Co510 O513 1.970 . S
Co510 N527 1.989 . S
Co510 O535 1.967 . S
Co510 O542 1.920 . S
Co511 O514 1.966 . S
Co511 N520 2.022 . S
Co511 N528 1.993 . S
Co511 O536 1.941 . S
C512 O513 1.258 . S
C512 O514 1.263 . S
O513 Co510 1.970 . S
O513 C512 1.258 . S
O514 Co511 1.966 . S
O514 C512 1.263 . S
C515 O516 1.235 . S
C515 O542 1.289 . S
O516 C515 1.235 . S
C517 C519 1.400 . S
C517 N520 1.351 . S
C517 C522 1.501 . S
C518 C519 1.387 . S
C518 N521 1.341 . S
C519 C517 1.400 . S
C519 C518 1.387 . S
N520 Co511 2.022 . S
N520 C517 1.351 . S
N520 N521 1.365 . S
N521 C518 1.341 . S
N521 N520 1.365 . S
N521 H541 0.862 . S
C522 C517 1.501 . S
C522 H523 0.961 . S
C522 H524 0.961 . S
C522 H525 0.960 . S
H523 C522 0.961 . S
H524 C522 0.961 . S
H525 C522 0.960 . S
C526 N527 1.342 . S
C526 C530 1.401 . S
C526 C531 1.499 . S
N527 Co510 1.989 . S
N527 C526 1.342 . S
N527 N528 1.388 . S
N528 Co511 1.993 . S
N528 N527 1.388 . S
N528 C529 1.346 . S
C529 N528 1.346 . S
C529 C530 1.396 . S
C529 C539 1.510 . S
C530 C526 1.401 . S
C530 C529 1.396 . S
C531 C526 1.499 . S
C531 H532 0.959 . S
C531 H533 0.960 . S
C531 H534 0.961 . S
H532 C531 0.959 . S
H533 C531 0.960 . S
H534 C531 0.961 . S
O535 Co510 1.967 . S
O535 C543 1.258 . S
O536 Co511 1.941 . S
O536 C543 1.266 . S
H537 C539 0.959 . S
H538 C539 0.961 . S
C539 C529 1.510 . S
C539 H537 0.959 . S
C539 H538 0.961 . S
C539 H540 0.960 . S
H540 C539 0.960 . S
H541 N521 0.862 . S
O542 Co510 1.920 . S
O542 C515 1.289 . S
C543 O535 1.258 . S
C543 O536 1.266 . S
Co544 O547 1.970 . S
Co544 N561 1.989 . S
Co544 O569 1.967 . S
Co544 O576 1.920 . S
Co545 O548 1.966 . S
Co545 N554 2.022 . S
Co545 N562 1.993 . S
Co545 O570 1.941 . S
C546 O547 1.258 . S
C546 O548 1.263 . S
O547 Co544 1.970 . S
O547 C546 1.258 . S
O548 Co545 1.966 . S
O548 C546 1.263 . S
C549 O550 1.235 . S
C549 O576 1.289 . S
O550 C549 1.235 . S
C551 C553 1.400 . S
C551 N554 1.351 . S
C551 C556 1.501 . S
C552 C553 1.387 . S
C552 N555 1.341 . S
C553 C551 1.400 . S
C553 C552 1.387 . S
N554 Co545 2.022 . S
N554 C551 1.351 . S
N554 N555 1.365 . S
N555 C552 1.341 . S
N555 N554 1.365 . S
N555 H575 0.862 . S
C556 C551 1.501 . S
C556 H557 0.961 . S
C556 H558 0.961 . S
C556 H559 0.960 . S
H557 C556 0.961 . S
H558 C556 0.961 . S
H559 C556 0.960 . S
C560 N561 1.342 . S
C560 C564 1.401 . S
C560 C565 1.499 . S
N561 Co544 1.989 . S
N561 C560 1.342 . S
N561 N562 1.388 . S
N562 Co545 1.993 . S
N562 N561 1.388 . S
N562 C563 1.346 . S
C563 N562 1.346 . S
C563 C564 1.396 . S
C563 C573 1.510 . S
C564 C560 1.401 . S
C564 C563 1.396 . S
C565 C560 1.499 . S
C565 H566 0.959 . S
C565 H567 0.960 . S
C565 H568 0.961 . S
H566 C565 0.959 . S
H567 C565 0.960 . S
H568 C565 0.961 . S
O569 Co544 1.967 . S
O569 C577 1.258 . S
O570 Co545 1.941 . S
O570 C577 1.266 . S
H571 C573 0.959 . S
H572 C573 0.961 . S
C573 C563 1.510 . S
C573 H571 0.959 . S
C573 H572 0.961 . S
C573 H574 0.960 . S
H574 C573 0.960 . S
H575 N555 0.862 . S
O576 Co544 1.920 . S
O576 C549 1.289 . S
C577 O569 1.258 . S
C577 O570 1.266 . S
Co578 O581 1.970 . S
Co578 N595 1.989 . S
Co578 O603 1.967 . S
Co578 O610 1.920 . S
Co579 O582 1.966 . S
Co579 N588 2.022 . S
Co579 N596 1.993 . S
Co579 O604 1.941 . S
C580 O581 1.258 . S
C580 O582 1.263 . S
O581 Co578 1.970 . S
O581 C580 1.258 . S
O582 Co579 1.966 . S
O582 C580 1.263 . S
C583 O584 1.235 . S
C583 O610 1.289 . S
O584 C583 1.235 . S
C585 C587 1.400 1_556 S
C585 N588 1.351 . S
C585 C590 1.501 . S
C586 C587 1.387 1_556 S
C586 N589 1.341 . S
C587 C585 1.400 1_554 S
C587 C586 1.387 1_554 S
N588 Co579 2.022 . S
N588 C585 1.351 . S
N588 N589 1.365 . S
N589 C586 1.341 . S
N589 N588 1.365 . S
N589 H609 0.862 . S
C590 C585 1.501 . S
C590 H591 0.961 . S
C590 H592 0.961 . S
C590 H593 0.960 . S
H591 C590 0.961 . S
H592 C590 0.961 . S
H593 C590 0.960 . S
C594 N595 1.342 . S
C594 C598 1.401 . S
C594 C599 1.499 . S
N595 Co578 1.989 . S
N595 C594 1.342 . S
N595 N596 1.388 . S
N596 Co579 1.993 . S
N596 N595 1.388 . S
N596 C597 1.346 . S
C597 N596 1.346 . S
C597 C598 1.396 . S
C597 C607 1.510 . S
C598 C594 1.401 . S
C598 C597 1.396 . S
C599 C594 1.499 . S
C599 H600 0.959 . S
C599 H601 0.960 . S
C599 H602 0.961 . S
H600 C599 0.959 . S
H601 C599 0.960 . S
H602 C599 0.961 . S
O603 Co578 1.967 . S
O603 C611 1.258 . S
O604 Co579 1.941 . S
O604 C611 1.266 . S
H605 C607 0.959 . S
H606 C607 0.961 . S
C607 C597 1.510 . S
C607 H605 0.959 . S
C607 H606 0.961 . S
C607 H608 0.960 . S
H608 C607 0.960 . S
H609 N589 0.862 . S
O610 Co578 1.920 . S
O610 C583 1.289 . S
C611 O603 1.258 . S
C611 O604 1.266 . S
C612 C613 1.349 . S
C612 C614 1.327 . S
C612 H637 0.950 . S
C613 C612 1.349 . S
C613 C629 1.349 . S
C614 C612 1.327 . S
C614 C633 1.429 . S
C614 H638 0.950 . S
C615 C632 1.574 . S
C615 C634 1.368 . S
C615 H639 0.949 . S
H616 C620 0.949 . S
C617 C618 1.349 . S
C617 C619 1.327 . S
C617 H640 0.950 . S
C618 C617 1.349 . S
C618 C630 1.349 . S
C619 C617 1.327 . S
C619 C635 1.429 . S
C619 H641 0.950 . S
C620 H616 0.949 . S
C620 C628 1.574 . S
C620 C636 1.368 . S
H621 C629 0.950 . S
H622 C627 0.950 . S
H623 C628 0.949 . S
H624 C630 0.950 . S
H625 C631 0.950 . S
H626 C632 0.949 . S
C627 H622 0.950 . S
C627 C629 1.327 . S
C627 C633 1.429 . S
C628 C620 1.574 . S
C628 H623 0.949 . S
C628 C634 1.368 . S
C629 C613 1.349 . S
C629 H621 0.950 . S
C629 C627 1.327 . S
C630 C618 1.349 . S
C630 H624 0.950 . S
C630 C631 1.327 . S
C631 H625 0.950 . S
C631 C630 1.327 . S
C631 C635 1.429 . S
C632 C615 1.574 . S
C632 H626 0.949 . S
C632 C636 1.368 . S
C633 C614 1.429 . S
C633 C627 1.429 . S
C633 C634 1.523 . S
C634 C615 1.368 . S
C634 C628 1.368 . S
C634 C633 1.523 . S
C635 C619 1.429 . S
C635 C631 1.429 . S
C635 C636 1.523 . S
C636 C620 1.368 . S
C636 C632 1.368 . S
C636 C635 1.523 . S
H637 C612 0.950 . S
H638 C614 0.950 . S
H639 C615 0.949 . S
H640 C617 0.950 . S
H641 C619 0.950 . S
C642 C643 1.349 . S
C642 C644 1.327 . S
C642 H667 0.950 . S
C643 C642 1.349 . S
C643 C659 1.349 . S
C644 C642 1.327 . S
C644 C663 1.429 . S
C644 H668 0.950 . S
C645 C662 1.574 . S
C645 C664 1.368 . S
C645 H669 0.949 . S
H646 C650 0.949 . S
C647 C648 1.349 . S
C647 C649 1.327 . S
C647 H670 0.950 . S
C648 C647 1.349 . S
C648 C660 1.349 . S
C649 C647 1.327 . S
C649 C665 1.429 . S
C649 H671 0.950 . S
C650 H646 0.949 . S
C650 C658 1.574 . S
C650 C666 1.368 . S
H651 C659 0.950 . S
H652 C657 0.950 . S
H653 C658 0.949 . S
H654 C660 0.950 . S
H655 C661 0.950 . S
H656 C662 0.949 . S
C657 H652 0.950 . S
C657 C659 1.327 . S
C657 C663 1.429 . S
C658 C650 1.574 . S
C658 H653 0.949 . S
C658 C664 1.368 . S
C659 C643 1.349 . S
C659 H651 0.950 . S
C659 C657 1.327 . S
C660 C648 1.349 . S
C660 H654 0.950 . S
C660 C661 1.327 . S
C661 H655 0.950 . S
C661 C660 1.327 . S
C661 C665 1.429 . S
C662 C645 1.574 . S
C662 H656 0.949 . S
C662 C666 1.368 . S
C663 C644 1.429 . S
C663 C657 1.429 . S
C663 C664 1.523 . S
C664 C645 1.368 . S
C664 C658 1.368 . S
C664 C663 1.523 . S
C665 C649 1.429 . S
C665 C661 1.429 . S
C665 C666 1.523 . S
C666 C650 1.368 . S
C666 C662 1.368 . S
C666 C665 1.523 . S
H667 C642 0.950 . S
H668 C644 0.950 . S
H669 C645 0.949 . S
H670 C647 0.950 . S
H671 C649 0.950 . S
C672 C673 1.349 . S
C672 C674 1.327 . S
C672 H697 0.950 . S
C673 C672 1.349 . S
C673 C689 1.349 . S
C674 C672 1.327 . S
C674 C693 1.429 . S
C674 H698 0.950 . S
C675 C692 1.574 . S
C675 C694 1.368 . S
C675 H699 0.949 . S
H676 C680 0.949 . S
C677 C678 1.349 . S
C677 C679 1.327 . S
C677 H700 0.950 . S
C678 C677 1.349 . S
C678 C690 1.349 . S
C679 C677 1.327 . S
C679 C695 1.429 . S
C679 H701 0.950 . S
C680 H676 0.949 . S
C680 C688 1.574 . S
C680 C696 1.368 . S
H681 C689 0.950 . S
H682 C687 0.950 . S
H683 C688 0.949 . S
H684 C690 0.950 . S
H685 C691 0.950 . S
H686 C692 0.949 . S
C687 H682 0.950 . S
C687 C689 1.327 . S
C687 C693 1.429 . S
C688 C680 1.574 . S
C688 H683 0.949 . S
C688 C694 1.368 . S
C689 C673 1.349 . S
C689 H681 0.950 . S
C689 C687 1.327 . S
C690 C678 1.349 . S
C690 H684 0.950 . S
C690 C691 1.327 . S
C691 H685 0.950 . S
C691 C690 1.327 . S
C691 C695 1.429 . S
C692 C675 1.574 . S
C692 H686 0.949 . S
C692 C696 1.368 . S
C693 C674 1.429 . S
C693 C687 1.429 . S
C693 C694 1.523 . S
C694 C675 1.368 . S
C694 C688 1.368 . S
C694 C693 1.523 . S
C695 C679 1.429 . S
C695 C691 1.429 . S
C695 C696 1.523 . S
C696 C680 1.368 . S
C696 C692 1.368 . S
C696 C695 1.523 . S
H697 C672 0.950 . S
H698 C674 0.950 . S
H699 C675 0.949 . S
H700 C677 0.950 . S
H701 C679 0.950 . S
C702 C703 1.349 . S
C702 C704 1.327 . S
C702 H727 0.950 . S
C703 C702 1.349 . S
C703 C719 1.349 . S
C704 C702 1.327 . S
C704 C723 1.429 . S
C704 H728 0.950 . S
C705 C722 1.576 . S
C705 C724 1.368 . S
C705 H729 0.949 1_455 S
H706 C710 0.949 . S
C707 C708 1.349 1_655 S
C707 C709 1.327 . S
C707 H730 0.950 . S
C708 C707 1.349 1_455 S
C708 C720 1.349 . S
C709 C707 1.327 . S
C709 C725 1.429 1_655 S
C709 H731 0.950 . S
C710 H706 0.949 . S
C710 C718 1.574 . S
C710 C726 1.368 . S
H711 C719 0.950 . S
H712 C717 0.983 . S
H713 C718 0.949 . S
H714 C720 0.950 . S
H715 C721 0.950 . S
H716 C722 0.941 1_655 S
C717 H712 0.983 . S
C717 C719 1.327 . S
C717 C723 1.429 . S
C718 C710 1.574 . S
C718 H713 0.949 . S
C718 C724 1.368 . S
C719 C703 1.349 . S
C719 H711 0.950 . S
C719 C717 1.327 . S
C720 C708 1.349 . S
C720 H714 0.950 . S
C720 C721 1.327 . S
C721 H715 0.950 . S
C721 C720 1.327 . S
C721 C725 1.429 . S
C722 C705 1.576 . S
C722 H716 0.941 1_455 S
C722 C726 1.376 . S
C723 C704 1.429 . S
C723 C717 1.429 . S
C723 C724 1.523 . S
C724 C705 1.368 . S
C724 C718 1.368 . S
C724 C723 1.523 . S
C725 C709 1.429 1_455 S
C725 C721 1.429 . S
C725 C726 1.523 . S
C726 C710 1.368 . S
C726 C722 1.376 . S
C726 C725 1.523 . S
H727 C702 0.950 . S
H728 C704 0.950 . S
H729 C705 0.949 1_655 S
H730 C707 0.950 . S
H731 C709 0.950 . S
C732 C733 1.349 . S
C732 C734 1.327 . S
C732 H757 0.950 . S
C733 C732 1.349 . S
C733 C749 1.349 . S
C734 C732 1.327 . S
C734 C753 1.429 . S
C734 H758 0.950 . S
C735 C752 1.574 . S
C735 C754 1.368 . S
C735 H759 0.949 . S
H736 C740 0.949 . S
C737 C738 1.349 . S
C737 C739 1.327 . S
C737 H760 0.950 . S
C738 C737 1.349 . S
C738 C750 1.349 . S
C739 C737 1.327 . S
C739 C755 1.429 . S
C739 H761 0.950 . S
C740 H736 0.949 . S
C740 C748 1.574 . S
C740 C756 1.368 . S
H741 C749 0.950 . S
H742 C747 0.950 . S
H743 C748 0.949 . S
H744 C750 0.950 . S
H745 C751 0.950 . S
H746 C752 0.949 . S
C747 H742 0.950 . S
C747 C749 1.327 . S
C747 C753 1.429 . S
C748 C740 1.574 . S
C748 H743 0.949 . S
C748 C754 1.368 . S
C749 C733 1.349 . S
C749 H741 0.950 . S
C749 C747 1.327 . S
C750 C738 1.349 . S
C750 H744 0.950 . S
C750 C751 1.327 . S
C751 H745 0.950 . S
C751 C750 1.327 . S
C751 C755 1.429 . S
C752 C735 1.574 . S
C752 H746 0.949 . S
C752 C756 1.368 . S
C753 C734 1.429 . S
C753 C747 1.429 . S
C753 C754 1.523 . S
C754 C735 1.368 . S
C754 C748 1.368 . S
C754 C753 1.523 . S
C755 C739 1.429 . S
C755 C751 1.429 . S
C755 C756 1.523 . S
C756 C740 1.368 . S
C756 C752 1.368 . S
C756 C755 1.523 . S
H757 C732 0.950 . S
H758 C734 0.950 . S
H759 C735 0.949 . S
H760 C737 0.950 . S
H761 C739 0.950 . S
C762 C763 1.349 . S
C762 C764 1.327 . S
C762 H787 0.950 1_565 S
C763 C762 1.349 . S
C763 C779 1.349 . S
C764 C762 1.327 . S
C764 C783 1.429 . S
C764 H788 0.950 1_565 S
C765 C782 1.574 . S
C765 C784 1.368 . S
C765 H789 0.949 . S
H766 C770 0.949 . S
C767 C768 1.349 1_565 S
C767 C769 1.327 . S
C767 H790 0.950 . S
C768 C767 1.349 1_545 S
C768 C780 1.349 . S
C769 C767 1.327 . S
C769 C785 1.429 1_565 S
C769 H791 0.950 . S
C770 H766 0.949 . S
C770 C778 1.574 . S
C770 C786 1.368 1_545 S
H771 C779 0.950 . S
H772 C777 0.950 . S
H773 C778 0.949 . S
H774 C780 0.950 . S
H775 C781 0.950 . S
H776 C782 0.949 . S
C777 H772 0.950 . S
C777 C779 1.327 . S
C777 C783 1.429 . S
C778 C770 1.574 . S
C778 H773 0.949 . S
C778 C784 1.368 1_545 S
C779 C763 1.349 . S
C779 H771 0.950 . S
C779 C777 1.327 . S
C780 C768 1.349 . S
C780 H774 0.950 . S
C780 C781 1.327 . S
C781 H775 0.950 . S
C781 C780 1.327 . S
C781 C785 1.429 . S
C782 C765 1.574 . S
C782 H776 0.949 . S
C782 C786 1.368 . S
C783 C764 1.429 . S
C783 C777 1.429 . S
C783 C784 1.523 . S
C784 C765 1.368 . S
C784 C778 1.368 1_565 S
C784 C783 1.523 . S
C785 C769 1.429 1_545 S
C785 C781 1.429 . S
C785 C786 1.523 1_545 S
C786 C770 1.368 1_565 S
C786 C782 1.368 . S
C786 C785 1.523 1_565 S
H787 C762 0.950 1_545 S
H788 C764 0.950 1_545 S
H789 C765 0.949 . S
H790 C767 0.950 . S
H791 C769 0.950 . S
C792 C793 1.349 . S
C792 C794 1.327 . S
C792 H817 0.950 . S
C793 C792 1.349 . S
C793 C809 1.349 . S
C794 C792 1.327 . S
C794 C813 1.429 . S
C794 H818 0.950 . S
C795 C812 1.574 1_556 S
C795 C814 1.368 . S
C795 H819 0.949 . S
H796 C800 0.949 . S
C797 C798 1.349 . S
C797 C799 1.327 . S
C797 H820 0.950 . S
C798 C797 1.349 . S
C798 C810 1.349 . S
C799 C797 1.327 . S
C799 C815 1.429 . S
C799 H821 0.950 . S
C800 H796 0.949 . S
C800 C808 1.574 1_554 S
C800 C816 1.368 . S
H801 C809 0.950 . S
H802 C807 0.950 . S
H803 C808 0.949 . S
H804 C810 0.950 . S
H805 C811 0.950 . S
H806 C812 0.949 . S
C807 H802 0.950 . S
C807 C809 1.327 . S
C807 C813 1.429 . S
C808 C800 1.574 1_556 S
C808 H803 0.949 . S
C808 C814 1.368 . S
C809 C793 1.349 . S
C809 H801 0.950 . S
C809 C807 1.327 . S
C810 C798 1.349 . S
C810 H804 0.950 . S
C810 C811 1.327 . S
C811 H805 0.950 . S
C811 C810 1.327 . S
C811 C815 1.429 . S
C812 C795 1.574 1_554 S
C812 H806 0.949 . S
C812 C816 1.368 . S
C813 C794 1.429 . S
C813 C807 1.429 . S
C813 C814 1.523 . S
C814 C795 1.368 . S
C814 C808 1.368 . S
C814 C813 1.523 . S
C815 C799 1.429 . S
C815 C811 1.429 . S
C815 C816 1.523 . S
C816 C800 1.368 . S
C816 C812 1.368 . S
C816 C815 1.523 . S
H817 C792 0.950 . S
H818 C794 0.950 . S
H819 C795 0.949 . S
H820 C797 0.950 . S
H821 C799 0.950 . S
C822 C823 1.349 . S
C822 C824 1.327 . S
C822 H847 0.950 . S
C823 C822 1.349 . S
C823 C839 1.349 . S
C824 C822 1.327 . S
C824 C843 1.429 . S
C824 H848 0.950 . S
C825 C842 1.574 1_556 S
C825 C844 1.368 . S
C825 H849 0.949 . S
H826 C830 0.949 . S
C827 C828 1.349 . S
C827 C829 1.327 . S
C827 H850 0.950 . S
C828 C827 1.349 . S
C828 C840 1.349 . S
C829 C827 1.327 . S
C829 C845 1.429 . S
C829 H851 0.950 . S
C830 H826 0.949 . S
C830 C838 1.574 1_554 S
C830 C846 1.368 . S
H831 C839 0.950 . S
H832 C837 0.950 . S
H833 C838 0.949 . S
H834 C840 0.950 . S
H835 C841 0.950 . S
H836 C842 0.949 . S
C837 H832 0.950 . S
C837 C839 1.327 . S
C837 C843 1.429 . S
C838 C830 1.574 1_556 S
C838 H833 0.949 . S
C838 C844 1.368 . S
C839 C823 1.349 . S
C839 H831 0.950 . S
C839 C837 1.327 . S
C840 C828 1.349 . S
C840 H834 0.950 . S
C840 C841 1.327 . S
C841 H835 0.950 . S
C841 C840 1.327 . S
C841 C845 1.429 . S
C842 C825 1.574 1_554 S
C842 H836 0.949 . S
C842 C846 1.368 . S
C843 C824 1.429 . S
C843 C837 1.429 . S
C843 C844 1.523 . S
C844 C825 1.368 . S
C844 C838 1.368 . S
C844 C843 1.523 . S
C845 C829 1.429 . S
C845 C841 1.429 . S
C845 C846 1.523 . S
C846 C830 1.368 . S
C846 C842 1.368 . S
C846 C845 1.523 . S
H847 C822 0.950 . S
H848 C824 0.950 . S
H849 C825 0.949 . S
H850 C827 0.950 . S
H851 C829 0.950 . S
C852 C853 1.349 . S
C852 C854 1.327 . S
C852 H877 0.950 . S
C853 C852 1.349 . S
C853 C869 1.349 . S
C854 C852 1.327 . S
C854 C873 1.429 . S
C854 H878 0.950 . S
C855 C872 1.574 1_556 S
C855 C874 1.368 . S
C855 H879 0.949 . S
H856 C860 0.949 . S
C857 C858 1.349 . S
C857 C859 1.327 . S
C857 H880 0.950 . S
C858 C857 1.349 . S
C858 C870 1.349 . S
C859 C857 1.327 . S
C859 C875 1.429 . S
C859 H881 0.950 . S
C860 H856 0.949 . S
C860 C868 1.574 1_554 S
C860 C876 1.368 . S
H861 C869 0.950 . S
H862 C867 0.950 . S
H863 C868 0.949 . S
H864 C870 0.950 . S
H865 C871 0.950 . S
H866 C872 0.949 . S
C867 H862 0.950 . S
C867 C869 1.327 . S
C867 C873 1.429 . S
C868 C860 1.574 1_556 S
C868 H863 0.949 . S
C868 C874 1.368 . S
C869 C853 1.349 . S
C869 H861 0.950 . S
C869 C867 1.327 . S
C870 C858 1.349 . S
C870 H864 0.950 . S
C870 C871 1.327 . S
C871 H865 0.950 . S
C871 C870 1.327 . S
C871 C875 1.429 . S
C872 C855 1.574 1_554 S
C872 H866 0.949 . S
C872 C876 1.368 . S
C873 C854 1.429 . S
C873 C867 1.429 . S
C873 C874 1.523 . S
C874 C855 1.368 . S
C874 C868 1.368 . S
C874 C873 1.523 . S
C875 C859 1.429 . S
C875 C871 1.429 . S
C875 C876 1.523 . S
C876 C860 1.368 . S
C876 C872 1.368 . S
C876 C875 1.523 . S
H877 C852 0.950 . S
H878 C854 0.950 . S
H879 C855 0.949 . S
H880 C857 0.950 . S
H881 C859 0.950 . S
C882 C883 1.349 . S
C882 C884 1.327 . S
C882 H907 0.950 . S
C883 C882 1.349 . S
C883 C899 1.349 . S
C884 C882 1.327 . S
C884 C903 1.429 . S
C884 H908 0.950 . S
C885 C902 1.574 1_554 S
C885 C904 1.368 . S
C885 H909 0.949 . S
H886 C890 0.949 . S
C887 C888 1.349 . S
C887 C889 1.327 . S
C887 H910 0.950 . S
C888 C887 1.349 . S
C888 C900 1.349 . S
C889 C887 1.327 . S
C889 C905 1.429 . S
C889 H911 0.950 . S
C890 H886 0.949 . S
C890 C898 1.574 1_556 S
C890 C906 1.368 . S
H891 C899 0.950 . S
H892 C897 0.950 . S
H893 C898 0.949 . S
H894 C900 0.950 . S
H895 C901 0.950 . S
H896 C902 0.949 . S
C897 H892 0.950 . S
C897 C899 1.327 . S
C897 C903 1.429 . S
C898 C890 1.574 1_554 S
C898 H893 0.949 . S
C898 C904 1.368 . S
C899 C883 1.349 . S
C899 H891 0.950 . S
C899 C897 1.327 . S
C900 C888 1.349 . S
C900 H894 0.950 . S
C900 C901 1.327 . S
C901 H895 0.950 . S
C901 C900 1.327 . S
C901 C905 1.429 . S
C902 C885 1.574 1_556 S
C902 H896 0.949 . S
C902 C906 1.368 . S
C903 C884 1.429 . S
C903 C897 1.429 . S
C903 C904 1.523 . S
C904 C885 1.368 . S
C904 C898 1.368 . S
C904 C903 1.523 . S
C905 C889 1.429 . S
C905 C901 1.429 . S
C905 C906 1.523 . S
C906 C890 1.368 . S
C906 C902 1.368 . S
C906 C905 1.523 . S
H907 C882 0.950 . S
H908 C884 0.950 . S
H909 C885 0.949 . S
H910 C887 0.950 . S
H911 C889 0.950 . S
C912 C913 1.349 . S
C912 C914 1.327 . S
C912 H937 0.950 . S
C913 C912 1.349 . S
C913 C929 1.349 . S
C914 C912 1.327 . S
C914 C933 1.429 . S
C914 H938 0.950 . S
C915 C932 1.574 1_556 S
C915 C934 1.368 . S
C915 H939 0.949 . S
H916 C920 0.949 . S
C917 C918 1.349 . S
C917 C919 1.327 . S
C917 H940 0.950 . S
C918 C917 1.349 . S
C918 C930 1.349 . S
C919 C917 1.327 . S
C919 C935 1.429 . S
C919 H941 0.950 . S
C920 H916 0.949 . S
C920 C928 1.574 1_554 S
C920 C936 1.368 . S
H921 C929 0.950 . S
H922 C927 0.950 . S
H923 C928 0.949 . S
H924 C930 0.950 . S
H925 C931 0.950 . S
H926 C932 0.949 . S
C927 H922 0.950 . S
C927 C929 1.327 . S
C927 C933 1.429 . S
C928 C920 1.574 1_556 S
C928 H923 0.949 . S
C928 C934 1.368 . S
C929 C913 1.349 . S
C929 H921 0.950 . S
C929 C927 1.327 . S
C930 C918 1.349 . S
C930 H924 0.950 . S
C930 C931 1.327 . S
C931 H925 0.950 . S
C931 C930 1.327 . S
C931 C935 1.429 . S
C932 C915 1.574 1_554 S
C932 H926 0.949 . S
C932 C936 1.368 . S
C933 C914 1.429 . S
C933 C927 1.429 . S
C933 C934 1.523 . S
C934 C915 1.368 . S
C934 C928 1.368 . S
C934 C933 1.523 . S
C935 C919 1.429 . S
C935 C931 1.429 . S
C935 C936 1.523 . S
C936 C920 1.368 . S
C936 C932 1.368 . S
C936 C935 1.523 . S
H937 C912 0.950 . S
H938 C914 0.950 . S
H939 C915 0.949 . S
H940 C917 0.950 . S
H941 C919 0.950 . S
C942 C943 1.349 . S
C942 C944 1.327 . S
C942 H967 0.950 . S
C943 C942 1.349 . S
C943 C959 1.349 . S
C944 C942 1.327 . S
C944 C963 1.429 . S
C944 H968 0.950 . S
C945 C962 1.574 1_556 S
C945 C964 1.368 . S
C945 H969 0.949 . S
H946 C950 0.949 . S
C947 C948 1.349 . S
C947 C949 1.327 . S
C947 H970 0.950 . S
C948 C947 1.349 . S
C948 C960 1.349 . S
C949 C947 1.327 . S
C949 C965 1.429 . S
C949 H971 0.950 . S
C950 H946 0.949 . S
C950 C958 1.574 1_554 S
C950 C966 1.368 . S
H951 C959 0.950 . S
H952 C957 0.950 . S
H953 C958 0.949 . S
H954 C960 0.950 . S
H955 C961 0.950 . S
H956 C962 0.949 . S
C957 H952 0.950 . S
C957 C959 1.327 . S
C957 C963 1.429 . S
C958 C950 1.574 1_556 S
C958 H953 0.949 . S
C958 C964 1.368 . S
C959 C943 1.349 . S
C959 H951 0.950 . S
C959 C957 1.327 . S
C960 C948 1.349 . S
C960 H954 0.950 . S
C960 C961 1.327 . S
C961 H955 0.950 . S
C961 C960 1.327 . S
C961 C965 1.429 . S
C962 C945 1.574 1_554 S
C962 H956 0.949 . S
C962 C966 1.368 . S
C963 C944 1.429 . S
C963 C957 1.429 . S
C963 C964 1.523 . S
C964 C945 1.368 . S
C964 C958 1.368 . S
C964 C963 1.523 . S
C965 C949 1.429 . S
C965 C961 1.429 . S
C965 C966 1.523 . S
C966 C950 1.368 . S
C966 C962 1.368 . S
C966 C965 1.523 . S
H967 C942 0.950 . S
H968 C944 0.950 . S
H969 C945 0.949 . S
H970 C947 0.950 . S
H971 C949 0.950 . S
C972 C973 1.349 . S
C972 C974 1.327 . S
C972 H997 0.950 . S
C973 C972 1.349 . S
C973 C989 1.349 . S
C974 C972 1.327 . S
C974 C993 1.429 . S
C974 H998 0.950 . S
C975 C992 1.574 . S
C975 C994 1.368 . S
C975 H999 0.949 . S
H976 C980 0.949 . S
C977 C978 1.349 . S
C977 C979 1.327 . S
C977 H1000 0.950 . S
C978 C977 1.349 . S
C978 C990 1.349 . S
C979 C977 1.327 . S
C979 C995 1.429 . S
C979 H1001 0.950 . S
C980 H976 0.949 . S
C980 C988 1.574 . S
C980 C996 1.368 . S
H981 C989 0.950 . S
H982 C987 0.950 . S
H983 C988 0.949 . S
H984 C990 0.950 . S
H985 C991 0.950 . S
H986 C992 0.949 . S
C987 H982 0.950 . S
C987 C989 1.327 . S
C987 C993 1.429 . S
C988 C980 1.574 . S
C988 H983 0.949 . S
C988 C994 1.368 . S
C989 C973 1.349 . S
C989 H981 0.950 . S
C989 C987 1.327 . S
C990 C978 1.349 . S
C990 H984 0.950 . S
C990 C991 1.327 . S
C991 H985 0.950 . S
C991 C990 1.327 . S
C991 C995 1.429 . S
C992 C975 1.574 . S
C992 H986 0.949 . S
C992 C996 1.368 . S
C993 C974 1.429 . S
C993 C987 1.429 . S
C993 C994 1.523 . S
C994 C975 1.368 . S
C994 C988 1.368 . S
C994 C993 1.523 . S
C995 C979 1.429 . S
C995 C991 1.429 . S
C995 C996 1.523 . S
C996 C980 1.368 . S
C996 C992 1.368 . S
C996 C995 1.523 . S
H997 C972 0.950 . S
H998 C974 0.950 . S
H999 C975 0.949 . S
H1000 C977 0.950 . S
H1001 C979 0.950 . S
C1002 C1003 1.349 . S
C1002 C1004 1.327 . S
C1002 H1027 0.950 . S
C1003 C1002 1.349 . S
C1003 C1019 1.349 . S
C1004 C1002 1.327 . S
C1004 C1023 1.429 . S
C1004 H1028 0.950 . S
C1005 C1022 1.574 . S
C1005 C1024 1.368 . S
C1005 H1029 0.949 . S
H1006 C1010 0.949 . S
C1007 C1008 1.349 . S
C1007 C1009 1.327 . S
C1007 H1030 0.950 . S
C1008 C1007 1.349 . S
C1008 C1020 1.349 . S
C1009 C1007 1.327 . S
C1009 C1025 1.429 . S
C1009 H1031 0.950 . S
C1010 H1006 0.949 . S
C1010 C1018 1.574 . S
C1010 C1026 1.368 . S
H1011 C1019 0.950 . S
H1012 C1017 0.950 . S
H1013 C1018 0.949 . S
H1014 C1020 0.950 . S
H1015 C1021 0.950 . S
H1016 C1022 0.949 . S
C1017 H1012 0.950 . S
C1017 C1019 1.327 . S
C1017 C1023 1.429 . S
C1018 C1010 1.574 . S
C1018 H1013 0.949 . S
C1018 C1024 1.368 . S
C1019 C1003 1.349 . S
C1019 H1011 0.950 . S
C1019 C1017 1.327 . S
C1020 C1008 1.349 . S
C1020 H1014 0.950 . S
C1020 C1021 1.327 . S
C1021 H1015 0.950 . S
C1021 C1020 1.327 . S
C1021 C1025 1.429 . S
C1022 C1005 1.574 . S
C1022 H1016 0.949 . S
C1022 C1026 1.368 . S
C1023 C1004 1.429 . S
C1023 C1017 1.429 . S
C1023 C1024 1.523 . S
C1024 C1005 1.368 . S
C1024 C1018 1.368 . S
C1024 C1023 1.523 . S
C1025 C1009 1.429 . S
C1025 C1021 1.429 . S
C1025 C1026 1.523 . S
C1026 C1010 1.368 . S
C1026 C1022 1.368 . S
C1026 C1025 1.523 . S
H1027 C1002 0.950 . S
H1028 C1004 0.950 . S
H1029 C1005 0.949 . S
H1030 C1007 0.950 . S
H1031 C1009 0.950 . S
C1032 C1033 1.349 . S
C1032 C1034 1.327 1_556 S
C1032 H1057 0.950 . S
C1033 C1032 1.349 . S
C1033 C1049 1.349 1_556 S
C1034 C1032 1.327 1_554 S
C1034 C1053 1.429 . S
C1034 H1058 0.950 . S
C1035 C1052 1.574 . S
C1035 C1054 1.368 . S
C1035 H1059 0.949 . S
H1036 C1040 0.949 . S
C1037 C1038 1.349 . S
C1037 C1039 1.327 . S
C1037 H1060 0.950 . S
C1038 C1037 1.349 . S
C1038 C1050 1.349 . S
C1039 C1037 1.327 . S
C1039 C1055 1.429 . S
C1039 H1061 0.950 . S
C1040 H1036 0.949 . S
C1040 C1048 1.574 . S
C1040 C1056 1.368 . S
H1041 C1049 0.950 1_556 S
H1042 C1047 0.950 . S
H1043 C1048 0.949 . S
H1044 C1050 0.950 . S
H1045 C1051 0.950 . S
H1046 C1052 0.949 . S
C1047 H1042 0.950 . S
C1047 C1049 1.327 . S
C1047 C1053 1.429 . S
C1048 C1040 1.574 . S
C1048 H1043 0.949 . S
C1048 C1054 1.368 . S
C1049 C1033 1.349 1_554 S
C1049 H1041 0.950 1_554 S
C1049 C1047 1.327 . S
C1050 C1038 1.349 . S
C1050 H1044 0.950 . S
C1050 C1051 1.327 . S
C1051 H1045 0.950 . S
C1051 C1050 1.327 . S
C1051 C1055 1.429 . S
C1052 C1035 1.574 . S
C1052 H1046 0.949 . S
C1052 C1056 1.368 . S
C1053 C1034 1.429 . S
C1053 C1047 1.429 . S
C1053 C1054 1.523 . S
C1054 C1035 1.368 . S
C1054 C1048 1.368 . S
C1054 C1053 1.523 . S
C1055 C1039 1.429 . S
C1055 C1051 1.429 . S
C1055 C1056 1.523 . S
C1056 C1040 1.368 . S
C1056 C1052 1.368 . S
C1056 C1055 1.523 . S
H1057 C1032 0.950 . S
H1058 C1034 0.950 . S
H1059 C1035 0.949 . S
H1060 C1037 0.950 . S
H1061 C1039 0.950 . S
C1062 C1063 1.349 1_554 S
C1062 C1064 1.327 . S
C1062 H1087 0.950 . S
C1063 C1062 1.349 1_556 S
C1063 C1079 1.349 1_556 S
C1064 C1062 1.327 . S
C1064 C1083 1.429 . S
C1064 H1088 0.950 . S
C1065 C1082 1.574 . S
C1065 C1084 1.368 . S
C1065 H1089 0.949 . S
H1066 C1070 0.949 . S
C1067 C1068 1.349 . S
C1067 C1069 1.327 . S
C1067 H1090 0.950 . S
C1068 C1067 1.349 . S
C1068 C1080 1.349 . S
C1069 C1067 1.327 . S
C1069 C1085 1.429 . S
C1069 H1091 0.950 . S
C1070 H1066 0.949 . S
C1070 C1078 1.574 . S
C1070 C1086 1.368 . S
H1071 C1079 0.950 . S
H1072 C1077 0.950 . S
H1073 C1078 0.949 . S
H1074 C1080 0.950 . S
H1075 C1081 0.950 . S
H1076 C1082 0.949 . S
C1077 H1072 0.950 . S
C1077 C1079 1.327 . S
C1077 C1083 1.429 . S
C1078 C1070 1.574 . S
C1078 H1073 0.949 . S
C1078 C1084 1.368 . S
C1079 C1063 1.349 1_554 S
C1079 H1071 0.950 . S
C1079 C1077 1.327 . S
C1080 C1068 1.349 . S
C1080 H1074 0.950 . S
C1080 C1081 1.327 . S
C1081 H1075 0.950 . S
C1081 C1080 1.327 . S
C1081 C1085 1.429 . S
C1082 C1065 1.574 . S
C1082 H1076 0.949 . S
C1082 C1086 1.368 . S
C1083 C1064 1.429 . S
C1083 C1077 1.429 . S
C1083 C1084 1.523 . S
C1084 C1065 1.368 . S
C1084 C1078 1.368 . S
C1084 C1083 1.523 . S
C1085 C1069 1.429 . S
C1085 C1081 1.429 . S
C1085 C1086 1.523 . S
C1086 C1070 1.368 . S
C1086 C1082 1.368 . S
C1086 C1085 1.523 . S
H1087 C1062 0.950 . S
H1088 C1064 0.950 . S
H1089 C1065 0.949 . S
H1090 C1067 0.950 . S
H1091 C1069 0.950 . S
C1092 C1093 1.349 . S
C1092 C1094 1.327 . S
C1092 H1117 0.950 . S
C1093 C1092 1.349 . S
C1093 C1109 1.349 . S
C1094 C1092 1.327 . S
C1094 C1113 1.429 . S
C1094 H1118 0.950 . S
C1095 C1112 1.574 . S
C1095 C1114 1.368 . S
C1095 H1119 0.949 . S
H1096 C1100 0.949 . S
C1097 C1098 1.349 . S
C1097 C1099 1.327 1_556 S
C1097 H1120 0.950 . S
C1098 C1097 1.349 . S
C1098 C1110 1.349 . S
C1099 C1097 1.327 1_554 S
C1099 C1115 1.429 . S
C1099 H1121 0.950 . S
C1100 H1096 0.949 . S
C1100 C1108 1.574 . S
C1100 C1116 1.368 . S
H1101 C1109 0.950 . S
H1102 C1107 0.950 . S
H1103 C1108 0.949 . S
H1104 C1110 0.950 . S
H1105 C1111 0.950 . S
H1106 C1112 0.949 . S
C1107 H1102 0.950 . S
C1107 C1109 1.327 . S
C1107 C1113 1.429 . S
C1108 C1100 1.574 . S
C1108 H1103 0.949 . S
C1108 C1114 1.368 . S
C1109 C1093 1.349 . S
C1109 H1101 0.950 . S
C1109 C1107 1.327 . S
C1110 C1098 1.349 . S
C1110 H1104 0.950 . S
C1110 C1111 1.327 1_556 S
C1111 H1105 0.950 . S
C1111 C1110 1.327 1_554 S
C1111 C1115 1.429 . S
C1112 C1095 1.574 . S
C1112 H1106 0.949 . S
C1112 C1116 1.368 . S
C1113 C1094 1.429 . S
C1113 C1107 1.429 . S
C1113 C1114 1.523 . S
C1114 C1095 1.368 . S
C1114 C1108 1.368 . S
C1114 C1113 1.523 . S
C1115 C1099 1.429 . S
C1115 C1111 1.429 . S
C1115 C1116 1.523 . S
C1116 C1100 1.368 . S
C1116 C1112 1.368 . S
C1116 C1115 1.523 . S
H1117 C1092 0.950 . S
H1118 C1094 0.950 . S
H1119 C1095 0.949 . S
H1120 C1097 0.950 . S
H1121 C1099 0.950 . S
C1122 C1123 1.349 . S
C1122 C1124 1.327 . S
C1122 H1147 0.950 . S
C1123 C1122 1.349 . S
C1123 C1139 1.349 . S
C1124 C1122 1.327 . S
C1124 C1143 1.429 . S
C1124 H1148 0.950 . S
C1125 C1142 1.574 . S
C1125 C1144 1.368 . S
C1125 H1149 0.949 . S
H1126 C1130 0.949 . S
C1127 C1128 1.349 . S
C1127 C1129 1.327 . S
C1127 H1150 0.950 . S
C1128 C1127 1.349 . S
C1128 C1140 1.349 . S
C1129 C1127 1.327 . S
C1129 C1145 1.429 . S
C1129 H1151 0.950 . S
C1130 H1126 0.949 . S
C1130 C1138 1.574 . S
C1130 C1146 1.368 . S
H1131 C1139 0.950 . S
H1132 C1137 0.950 . S
H1133 C1138 0.949 . S
H1134 C1140 0.950 . S
H1135 C1141 0.950 . S
H1136 C1142 0.949 . S
C1137 H1132 0.950 . S
C1137 C1139 1.327 . S
C1137 C1143 1.429 . S
C1138 C1130 1.574 . S
C1138 H1133 0.949 . S
C1138 C1144 1.368 . S
C1139 C1123 1.349 . S
C1139 H1131 0.950 . S
C1139 C1137 1.327 . S
C1140 C1128 1.349 . S
C1140 H1134 0.950 . S
C1140 C1141 1.327 . S
C1141 H1135 0.950 . S
C1141 C1140 1.327 . S
C1141 C1145 1.429 . S
C1142 C1125 1.574 . S
C1142 H1136 0.949 . S
C1142 C1146 1.368 . S
C1143 C1124 1.429 . S
C1143 C1137 1.429 . S
C1143 C1144 1.523 . S
C1144 C1125 1.368 . S
C1144 C1138 1.368 . S
C1144 C1143 1.523 . S
C1145 C1129 1.429 . S
C1145 C1141 1.429 . S
C1145 C1146 1.523 . S
C1146 C1130 1.368 . S
C1146 C1142 1.368 . S
C1146 C1145 1.523 . S
H1147 C1122 0.950 . S
H1148 C1124 0.950 . S
H1149 C1125 0.949 . S
H1150 C1127 0.950 . S
H1151 C1129 0.950 . S
C1152 C1153 1.349 . S
C1152 C1154 1.327 . S
C1152 H1177 0.950 . S
C1153 C1152 1.349 . S
C1153 C1169 1.349 . S
C1154 C1152 1.327 . S
C1154 C1173 1.429 . S
C1154 H1178 0.950 . S
C1155 C1172 1.574 . S
C1155 C1174 1.368 . S
C1155 H1179 0.949 1_554 S
H1156 C1160 0.949 . S
C1157 C1158 1.349 . S
C1157 C1159 1.327 . S
C1157 H1180 0.950 1_554 S
C1158 C1157 1.349 . S
C1158 C1170 1.349 . S
C1159 C1157 1.327 . S
C1159 C1175 1.429 . S
C1159 H1181 0.950 1_554 S
C1160 H1156 0.949 . S
C1160 C1168 1.574 . S
C1160 C1176 1.368 . S
H1161 C1169 0.950 1_556 S
H1162 C1167 0.950 1_556 S
H1163 C1168 0.949 . S
H1164 C1170 0.950 . S
H1165 C1171 0.950 . S
H1166 C1172 0.949 1_556 S
C1167 H1162 0.950 1_554 S
C1167 C1169 1.327 . S
C1167 C1173 1.429 . S
C1168 C1160 1.574 . S
C1168 H1163 0.949 . S
C1168 C1174 1.368 . S
C1169 C1153 1.349 . S
C1169 H1161 0.950 1_554 S
C1169 C1167 1.327 . S
C1170 C1158 1.349 . S
C1170 H1164 0.950 . S
C1170 C1171 1.327 . S
C1171 H1165 0.950 . S
C1171 C1170 1.327 . S
C1171 C1175 1.429 . S
C1172 C1155 1.574 . S
C1172 H1166 0.949 1_554 S
C1172 C1176 1.368 . S
C1173 C1154 1.429 . S
C1173 C1167 1.429 . S
C1173 C1174 1.523 . S
C1174 C1155 1.368 . S
C1174 C1168 1.368 . S
C1174 C1173 1.523 . S
C1175 C1159 1.429 . S
C1175 C1171 1.429 . S
C1175 C1176 1.523 . S
C1176 C1160 1.368 . S
C1176 C1172 1.368 . S
C1176 C1175 1.523 . S
H1177 C1152 0.950 . S
H1178 C1154 0.950 . S
H1179 C1155 0.949 1_556 S
H1180 C1157 0.950 1_556 S
H1181 C1159 0.950 1_556 S
C1182 C1183 1.349 . S
C1182 C1184 1.327 . S
C1182 H1207 0.950 . S
C1183 C1182 1.349 . S
C1183 C1199 1.349 . S
C1184 C1182 1.327 . S
C1184 C1203 1.429 . S
C1184 H1208 0.950 . S
C1185 C1202 1.574 . S
C1185 C1204 1.368 . S
C1185 H1209 0.949 . S
H1186 C1190 0.949 . S
C1187 C1188 1.349 . S
C1187 C1189 1.327 . S
C1187 H1210 0.950 . S
C1188 C1187 1.349 . S
C1188 C1200 1.349 . S
C1189 C1187 1.327 . S
C1189 C1205 1.429 . S
C1189 H1211 0.950 . S
C1190 H1186 0.949 . S
C1190 C1198 1.574 . S
C1190 C1206 1.368 . S
H1191 C1199 0.950 . S
H1192 C1197 0.950 . S
H1193 C1198 0.949 . S
H1194 C1200 0.950 . S
H1195 C1201 0.950 . S
H1196 C1202 0.949 . S
C1197 H1192 0.950 . S
C1197 C1199 1.327 . S
C1197 C1203 1.429 . S
C1198 C1190 1.574 . S
C1198 H1193 0.949 . S
C1198 C1204 1.368 . S
C1199 C1183 1.349 . S
C1199 H1191 0.950 . S
C1199 C1197 1.327 . S
C1200 C1188 1.349 . S
C1200 H1194 0.950 . S
C1200 C1201 1.327 . S
C1201 H1195 0.950 . S
C1201 C1200 1.327 . S
C1201 C1205 1.429 . S
C1202 C1185 1.574 . S
C1202 H1196 0.949 . S
C1202 C1206 1.368 . S
C1203 C1184 1.429 . S
C1203 C1197 1.429 . S
C1203 C1204 1.523 . S
C1204 C1185 1.368 . S
C1204 C1198 1.368 . S
C1204 C1203 1.523 . S
C1205 C1189 1.429 . S
C1205 C1201 1.429 . S
C1205 C1206 1.523 . S
C1206 C1190 1.368 . S
C1206 C1202 1.368 . S
C1206 C1205 1.523 . S
H1207 C1182 0.950 . S
H1208 C1184 0.950 . S
H1209 C1185 0.949 . S
H1210 C1187 0.950 . S
H1211 C1189 0.950 . S
C1212 C1213 1.349 . S
C1212 C1214 1.327 . S
C1212 H1237 0.950 . S
C1213 C1212 1.349 . S
C1213 C1229 1.349 . S
C1214 C1212 1.327 . S
C1214 C1233 1.429 . S
C1214 H1238 0.950 . S
C1215 C1232 1.574 . S
C1215 C1234 1.368 . S
C1215 H1239 0.949 . S
H1216 C1220 0.949 . S
C1217 C1218 1.349 . S
C1217 C1219 1.327 . S
C1217 H1240 0.950 . S
C1218 C1217 1.349 . S
C1218 C1230 1.349 . S
C1219 C1217 1.327 . S
C1219 C1235 1.429 . S
C1219 H1241 0.950 . S
C1220 H1216 0.949 . S
C1220 C1228 1.574 . S
C1220 C1236 1.368 . S
H1221 C1229 0.950 1_565 S
H1222 C1227 0.950 . S
H1223 C1228 0.949 . S
H1224 C1230 0.950 . S
H1225 C1231 0.950 . S
H1226 C1232 0.949 . S
C1227 H1222 0.950 . S
C1227 C1229 1.327 . S
C1227 C1233 1.429 . S
C1228 C1220 1.574 . S
C1228 H1223 0.949 . S
C1228 C1234 1.368 . S
C1229 C1213 1.349 . S
C1229 H1221 0.950 1_545 S
C1229 C1227 1.327 . S
C1230 C1218 1.349 . S
C1230 H1224 0.950 . S
C1230 C1231 1.327 . S
C1231 H1225 0.950 . S
C1231 C1230 1.327 . S
C1231 C1235 1.429 . S
C1232 C1215 1.574 . S
C1232 H1226 0.949 . S
C1232 C1236 1.368 . S
C1233 C1214 1.429 . S
C1233 C1227 1.429 . S
C1233 C1234 1.523 . S
C1234 C1215 1.368 . S
C1234 C1228 1.368 . S
C1234 C1233 1.523 . S
C1235 C1219 1.429 . S
C1235 C1231 1.429 . S
C1235 C1236 1.523 . S
C1236 C1220 1.368 . S
C1236 C1232 1.368 . S
C1236 C1235 1.523 . S
H1237 C1212 0.950 . S
H1238 C1214 0.950 . S
H1239 C1215 0.949 . S
H1240 C1217 0.950 . S
H1241 C1219 0.950 . S
C1242 C1243 1.349 . S
C1242 C1244 1.327 . S
C1242 H1267 0.950 . S
C1243 C1242 1.349 . S
C1243 C1259 1.349 . S
C1244 C1242 1.327 . S
C1244 C1263 1.429 . S
C1244 H1268 0.950 . S
C1245 C1262 1.574 . S
C1245 C1264 1.368 . S
C1245 H1269 0.949 . S
H1246 C1250 0.949 . S
C1247 C1248 1.349 . S
C1247 C1249 1.327 . S
C1247 H1270 0.950 . S
C1248 C1247 1.349 . S
C1248 C1260 1.349 . S
C1249 C1247 1.327 . S
C1249 C1265 1.429 . S
C1249 H1271 0.950 . S
C1250 H1246 0.949 . S
C1250 C1258 1.574 . S
C1250 C1266 1.368 . S
H1251 C1259 0.950 . S
H1252 C1257 0.950 . S
H1253 C1258 0.949 . S
H1254 C1260 0.950 . S
H1255 C1261 0.950 . S
H1256 C1262 0.949 . S
C1257 H1252 0.950 . S
C1257 C1259 1.327 . S
C1257 C1263 1.429 . S
C1258 C1250 1.574 . S
C1258 H1253 0.949 . S
C1258 C1264 1.368 . S
C1259 C1243 1.349 . S
C1259 H1251 0.950 . S
C1259 C1257 1.327 . S
C1260 C1248 1.349 . S
C1260 H1254 0.950 . S
C1260 C1261 1.327 . S
C1261 H1255 0.950 . S
C1261 C1260 1.327 . S
C1261 C1265 1.429 . S
C1262 C1245 1.574 . S
C1262 H1256 0.949 . S
C1262 C1266 1.368 . S
C1263 C1244 1.429 . S
C1263 C1257 1.429 . S
C1263 C1264 1.523 . S
C1264 C1245 1.368 . S
C1264 C1258 1.368 . S
C1264 C1263 1.523 . S
C1265 C1249 1.429 . S
C1265 C1261 1.429 . S
C1265 C1266 1.523 . S
C1266 C1250 1.368 . S
C1266 C1262 1.368 . S
C1266 C1265 1.523 . S
H1267 C1242 0.950 . S
H1268 C1244 0.950 . S
H1269 C1245 0.949 . S
H1270 C1247 0.950 . S
H1271 C1249 0.950 . S
C1272 C1273 1.349 . S
C1272 C1274 1.327 . S
C1272 H1297 0.950 . S
C1273 C1272 1.349 . S
C1273 C1289 1.349 . S
C1274 C1272 1.327 . S
C1274 C1293 1.429 . S
C1274 H1298 0.950 . S
C1275 C1292 1.574 . S
C1275 C1294 1.368 . S
C1275 H1299 0.949 . S
H1276 C1280 0.949 . S
C1277 C1278 1.349 . S
C1277 C1279 1.327 . S
C1277 H1300 0.950 . S
C1278 C1277 1.349 . S
C1278 C1290 1.349 . S
C1279 C1277 1.327 . S
C1279 C1295 1.429 . S
C1279 H1301 0.950 . S
C1280 H1276 0.949 . S
C1280 C1288 1.574 . S
C1280 C1296 1.368 . S
H1281 C1289 0.950 . S
H1282 C1287 0.950 . S
H1283 C1288 0.949 . S
H1284 C1290 0.950 . S
H1285 C1291 0.950 . S
H1286 C1292 0.949 . S
C1287 H1282 0.950 . S
C1287 C1289 1.327 . S
C1287 C1293 1.429 . S
C1288 C1280 1.574 . S
C1288 H1283 0.949 . S
C1288 C1294 1.368 . S
C1289 C1273 1.349 . S
C1289 H1281 0.950 . S
C1289 C1287 1.327 . S
C1290 C1278 1.349 . S
C1290 H1284 0.950 . S
C1290 C1291 1.327 . S
C1291 H1285 0.950 . S
C1291 C1290 1.327 . S
C1291 C1295 1.429 . S
C1292 C1275 1.574 . S
C1292 H1286 0.949 . S
C1292 C1296 1.368 . S
C1293 C1274 1.429 . S
C1293 C1287 1.429 . S
C1293 C1294 1.523 . S
C1294 C1275 1.368 . S
C1294 C1288 1.368 . S
C1294 C1293 1.523 . S
C1295 C1279 1.429 . S
C1295 C1291 1.429 . S
C1295 C1296 1.523 . S
C1296 C1280 1.368 . S
C1296 C1292 1.368 . S
C1296 C1295 1.523 . S
H1297 C1272 0.950 . S
H1298 C1274 0.950 . S
H1299 C1275 0.949 . S
H1300 C1277 0.950 . S
H1301 C1279 0.950 . S
C1302 C1303 1.349 . S
C1302 C1304 1.327 . S
C1302 H1327 0.950 . S
C1303 C1302 1.349 . S
C1303 C1319 1.349 . S
C1304 C1302 1.327 . S
C1304 C1323 1.429 . S
C1304 H1328 0.950 . S
C1305 C1322 1.574 . S
C1305 C1324 1.368 . S
C1305 H1329 0.949 . S
H1306 C1310 0.949 . S
C1307 C1308 1.349 . S
C1307 C1309 1.327 . S
C1307 H1330 0.950 . S
C1308 C1307 1.349 . S
C1308 C1320 1.349 . S
C1309 C1307 1.327 . S
C1309 C1325 1.429 . S
C1309 H1331 0.950 . S
C1310 H1306 0.949 . S
C1310 C1318 1.574 . S
C1310 C1326 1.368 . S
H1311 C1319 0.950 . S
H1312 C1317 0.950 . S
H1313 C1318 0.949 . S
H1314 C1320 0.950 . S
H1315 C1321 0.950 . S
H1316 C1322 0.949 . S
C1317 H1312 0.950 . S
C1317 C1319 1.327 . S
C1317 C1323 1.429 . S
C1318 C1310 1.574 . S
C1318 H1313 0.949 . S
C1318 C1324 1.368 . S
C1319 C1303 1.349 . S
C1319 H1311 0.950 . S
C1319 C1317 1.327 . S
C1320 C1308 1.349 . S
C1320 H1314 0.950 . S
C1320 C1321 1.327 . S
C1321 H1315 0.950 . S
C1321 C1320 1.327 . S
C1321 C1325 1.429 . S
C1322 C1305 1.574 . S
C1322 H1316 0.949 . S
C1322 C1326 1.368 . S
C1323 C1304 1.429 . S
C1323 C1317 1.429 . S
C1323 C1324 1.523 . S
C1324 C1305 1.368 . S
C1324 C1318 1.368 . S
C1324 C1323 1.523 . S
C1325 C1309 1.429 . S
C1325 C1321 1.429 . S
C1325 C1326 1.523 . S
C1326 C1310 1.368 . S
C1326 C1322 1.368 . S
C1326 C1325 1.523 . S
H1327 C1302 0.950 . S
H1328 C1304 0.950 . S
H1329 C1305 0.949 . S
H1330 C1307 0.950 . S
H1331 C1309 0.950 . S
C1332 C1333 1.349 . S
C1332 C1334 1.327 . S
C1332 H1357 0.950 . S
C1333 C1332 1.349 . S
C1333 C1349 1.349 . S
C1334 C1332 1.327 . S
C1334 C1353 1.429 . S
C1334 H1358 0.950 . S
C1335 C1352 1.574 . S
C1335 C1354 1.368 . S
C1335 H1359 0.949 . S
H1336 C1340 0.949 . S
C1337 C1338 1.349 . S
C1337 C1339 1.327 . S
C1337 H1360 0.950 . S
C1338 C1337 1.349 . S
C1338 C1350 1.349 . S
C1339 C1337 1.327 . S
C1339 C1355 1.429 . S
C1339 H1361 0.950 . S
C1340 H1336 0.949 . S
C1340 C1348 1.574 . S
C1340 C1356 1.368 . S
H1341 C1349 0.950 . S
H1342 C1347 0.950 . S
H1343 C1348 0.949 . S
H1344 C1350 0.950 . S
H1345 C1351 0.950 . S
H1346 C1352 0.949 . S
C1347 H1342 0.950 . S
C1347 C1349 1.327 . S
C1347 C1353 1.429 . S
C1348 C1340 1.574 . S
C1348 H1343 0.949 . S
C1348 C1354 1.368 . S
C1349 C1333 1.349 . S
C1349 H1341 0.950 . S
C1349 C1347 1.327 . S
C1350 C1338 1.349 . S
C1350 H1344 0.950 . S
C1350 C1351 1.327 . S
C1351 H1345 0.950 . S
C1351 C1350 1.327 . S
C1351 C1355 1.429 . S
C1352 C1335 1.574 . S
C1352 H1346 0.949 . S
C1352 C1356 1.368 . S
C1353 C1334 1.429 . S
C1353 C1347 1.429 . S
C1353 C1354 1.523 . S
C1354 C1335 1.368 . S
C1354 C1348 1.368 . S
C1354 C1353 1.523 . S
C1355 C1339 1.429 . S
C1355 C1351 1.429 . S
C1355 C1356 1.523 . S
C1356 C1340 1.368 . S
C1356 C1352 1.368 . S
C1356 C1355 1.523 . S
H1357 C1332 0.950 . S
H1358 C1334 0.950 . S
H1359 C1335 0.949 . S
H1360 C1337 0.950 . S
H1361 C1339 0.950 . S
C1362 C1363 1.349 . S
C1362 C1364 1.327 . S
C1362 H1387 0.950 . S
C1363 C1362 1.349 . S
C1363 C1379 1.349 . S
C1364 C1362 1.327 . S
C1364 C1383 1.429 . S
C1364 H1388 0.950 . S
C1365 C1382 1.574 . S
C1365 C1384 1.368 . S
C1365 H1389 0.949 . S
H1366 C1370 0.949 . S
C1367 C1368 1.349 . S
C1367 C1369 1.327 . S
C1367 H1390 0.950 . S
C1368 C1367 1.349 . S
C1368 C1380 1.349 . S
C1369 C1367 1.327 . S
C1369 C1385 1.429 . S
C1369 H1391 0.950 . S
C1370 H1366 0.949 . S
C1370 C1378 1.574 . S
C1370 C1386 1.368 . S
H1371 C1379 0.950 . S
H1372 C1377 0.950 . S
H1373 C1378 0.949 . S
H1374 C1380 0.950 . S
H1375 C1381 0.950 . S
H1376 C1382 0.949 . S
C1377 H1372 0.950 . S
C1377 C1379 1.327 . S
C1377 C1383 1.429 . S
C1378 C1370 1.574 . S
C1378 H1373 0.949 . S
C1378 C1384 1.368 . S
C1379 C1363 1.349 . S
C1379 H1371 0.950 . S
C1379 C1377 1.327 . S
C1380 C1368 1.349 . S
C1380 H1374 0.950 . S
C1380 C1381 1.327 . S
C1381 H1375 0.950 . S
C1381 C1380 1.327 . S
C1381 C1385 1.429 . S
C1382 C1365 1.574 . S
C1382 H1376 0.949 . S
C1382 C1386 1.368 . S
C1383 C1364 1.429 . S
C1383 C1377 1.429 . S
C1383 C1384 1.523 . S
C1384 C1365 1.368 . S
C1384 C1378 1.368 . S
C1384 C1383 1.523 . S
C1385 C1369 1.429 . S
C1385 C1381 1.429 . S
C1385 C1386 1.523 . S
C1386 C1370 1.368 . S
C1386 C1382 1.368 . S
C1386 C1385 1.523 . S
H1387 C1362 0.950 . S
H1388 C1364 0.950 . S
H1389 C1365 0.949 . S
H1390 C1367 0.950 . S
H1391 C1369 0.950 . S
C1392 C1393 1.349 . S
C1392 C1394 1.327 . S
C1392 H1417 0.950 . S
C1393 C1392 1.349 . S
C1393 C1409 1.349 . S
C1394 C1392 1.327 . S
C1394 C1413 1.429 . S
C1394 H1418 0.950 . S
C1395 C1412 1.574 . S
C1395 C1414 1.368 . S
C1395 H1419 0.949 . S
H1396 C1400 0.949 . S
C1397 C1398 1.349 . S
C1397 C1399 1.327 . S
C1397 H1420 0.950 . S
C1398 C1397 1.349 . S
C1398 C1410 1.349 . S
C1399 C1397 1.327 . S
C1399 C1415 1.429 . S
C1399 H1421 0.950 . S
C1400 H1396 0.949 . S
C1400 C1408 1.574 . S
C1400 C1416 1.368 . S
H1401 C1409 0.950 . S
H1402 C1407 0.950 . S
H1403 C1408 0.949 . S
H1404 C1410 0.950 . S
H1405 C1411 0.950 . S
H1406 C1412 0.949 . S
C1407 H1402 0.950 . S
C1407 C1409 1.327 . S
C1407 C1413 1.429 . S
C1408 C1400 1.574 . S
C1408 H1403 0.949 . S
C1408 C1414 1.368 . S
C1409 C1393 1.349 . S
C1409 H1401 0.950 . S
C1409 C1407 1.327 . S
C1410 C1398 1.349 . S
C1410 H1404 0.950 . S
C1410 C1411 1.327 . S
C1411 H1405 0.950 . S
C1411 C1410 1.327 . S
C1411 C1415 1.429 . S
C1412 C1395 1.574 . S
C1412 H1406 0.949 . S
C1412 C1416 1.368 . S
C1413 C1394 1.429 . S
C1413 C1407 1.429 . S
C1413 C1414 1.523 . S
C1414 C1395 1.368 . S
C1414 C1408 1.368 . S
C1414 C1413 1.523 . S
C1415 C1399 1.429 . S
C1415 C1411 1.429 . S
C1415 C1416 1.523 . S
C1416 C1400 1.368 . S
C1416 C1412 1.368 . S
C1416 C1415 1.523 . S
H1417 C1392 0.950 . S
H1418 C1394 0.950 . S
H1419 C1395 0.949 . S
H1420 C1397 0.950 . S
H1421 C1399 0.950 . S
C1422 C1423 1.349 . S
C1422 C1424 1.327 . S
C1422 H1447 0.950 . S
C1423 C1422 1.349 . S
C1423 C1439 1.349 . S
C1424 C1422 1.327 . S
C1424 C1443 1.429 . S
C1424 H1448 0.950 . S
C1425 C1442 1.574 . S
C1425 C1444 1.368 . S
C1425 H1449 0.949 . S
H1426 C1430 0.949 . S
C1427 C1428 1.349 . S
C1427 C1429 1.327 . S
C1427 H1450 0.950 . S
C1428 C1427 1.349 . S
C1428 C1440 1.349 . S
C1429 C1427 1.327 . S
C1429 C1445 1.429 . S
C1429 H1451 0.950 . S
C1430 H1426 0.949 . S
C1430 C1438 1.574 . S
C1430 C1446 1.368 . S
H1431 C1439 0.950 . S
H1432 C1437 0.950 . S
H1433 C1438 0.949 . S
H1434 C1440 0.950 . S
H1435 C1441 0.950 . S
H1436 C1442 0.949 . S
C1437 H1432 0.950 . S
C1437 C1439 1.327 . S
C1437 C1443 1.429 . S
C1438 C1430 1.574 . S
C1438 H1433 0.949 . S
C1438 C1444 1.368 . S
C1439 C1423 1.349 . S
C1439 H1431 0.950 . S
C1439 C1437 1.327 . S
C1440 C1428 1.349 . S
C1440 H1434 0.950 . S
C1440 C1441 1.327 . S
C1441 H1435 0.950 . S
C1441 C1440 1.327 . S
C1441 C1445 1.429 . S
C1442 C1425 1.574 . S
C1442 H1436 0.949 . S
C1442 C1446 1.368 . S
C1443 C1424 1.429 . S
C1443 C1437 1.429 . S
C1443 C1444 1.523 . S
C1444 C1425 1.368 . S
C1444 C1438 1.368 . S
C1444 C1443 1.523 . S
C1445 C1429 1.429 . S
C1445 C1441 1.429 . S
C1445 C1446 1.523 . S
C1446 C1430 1.368 . S
C1446 C1442 1.368 . S
C1446 C1445 1.523 . S
H1447 C1422 0.950 . S
H1448 C1424 0.950 . S
H1449 C1425 0.949 . S
H1450 C1427 0.950 . S
H1451 C1429 0.950 . S
C1452 C1453 1.349 . S
C1452 C1454 1.327 . S
C1452 H1477 0.950 . S
C1453 C1452 1.349 . S
C1453 C1469 1.349 . S
C1454 C1452 1.327 . S
C1454 C1473 1.429 . S
C1454 H1478 0.950 . S
C1455 C1472 1.574 . S
C1455 C1474 1.368 . S
C1455 H1479 0.949 . S
H1456 C1460 0.949 . S
C1457 C1458 1.349 . S
C1457 C1459 1.327 . S
C1457 H1480 0.950 . S
C1458 C1457 1.349 . S
C1458 C1470 1.349 . S
C1459 C1457 1.327 . S
C1459 C1475 1.429 . S
C1459 H1481 0.950 . S
C1460 H1456 0.949 . S
C1460 C1468 1.574 . S
C1460 C1476 1.368 . S
H1461 C1469 0.950 . S
H1462 C1467 0.950 . S
H1463 C1468 0.949 . S
H1464 C1470 0.950 . S
H1465 C1471 0.950 . S
H1466 C1472 0.949 . S
C1467 H1462 0.950 . S
C1467 C1469 1.327 . S
C1467 C1473 1.429 . S
C1468 C1460 1.574 . S
C1468 H1463 0.949 . S
C1468 C1474 1.368 . S
C1469 C1453 1.349 . S
C1469 H1461 0.950 . S
C1469 C1467 1.327 . S
C1470 C1458 1.349 . S
C1470 H1464 0.950 . S
C1470 C1471 1.327 . S
C1471 H1465 0.950 . S
C1471 C1470 1.327 . S
C1471 C1475 1.429 . S
C1472 C1455 1.574 . S
C1472 H1466 0.949 . S
C1472 C1476 1.368 . S
C1473 C1454 1.429 . S
C1473 C1467 1.429 . S
C1473 C1474 1.523 . S
C1474 C1455 1.368 . S
C1474 C1468 1.368 . S
C1474 C1473 1.523 . S
C1475 C1459 1.429 . S
C1475 C1471 1.429 . S
C1475 C1476 1.523 . S
C1476 C1460 1.368 . S
C1476 C1472 1.368 . S
C1476 C1475 1.523 . S
H1477 C1452 0.950 . S
H1478 C1454 0.950 . S
H1479 C1455 0.949 . S
H1480 C1457 0.950 . S
H1481 C1459 0.950 . S
C1482 C1483 1.349 . S
C1482 C1484 1.327 . S
C1482 H1507 0.950 . S
C1483 C1482 1.349 . S
C1483 C1499 1.349 . S
C1484 C1482 1.327 . S
C1484 C1503 1.429 . S
C1484 H1508 0.950 . S
C1485 C1502 1.574 . S
C1485 C1504 1.368 1_565 S
C1485 H1509 0.949 . S
H1486 C1490 0.949 . S
C1487 C1488 1.349 . S
C1487 C1489 1.327 . S
C1487 H1510 0.950 . S
C1488 C1487 1.349 . S
C1488 C1500 1.349 . S
C1489 C1487 1.327 . S
C1489 C1505 1.429 . S
C1489 H1511 0.950 . S
C1490 H1486 0.949 . S
C1490 C1498 1.574 . S
C1490 C1506 1.305 1_545 S
H1491 C1499 0.950 . S
H1492 C1497 0.918 1_565 S
H1493 C1498 0.949 . S
H1494 C1500 0.955 1_545 S
H1495 C1501 0.990 . S
H1496 C1502 0.949 . S
C1497 H1492 0.918 1_545 S
C1497 C1499 1.327 . S
C1497 C1503 1.429 . S
C1498 C1490 1.574 . S
C1498 H1493 0.949 . S
C1498 C1504 1.368 . S
C1499 C1483 1.349 . S
C1499 H1491 0.950 . S
C1499 C1497 1.327 . S
C1500 C1488 1.349 . S
C1500 H1494 0.955 1_565 S
C1500 C1501 1.333 1_565 S
C1501 H1495 0.990 . S
C1501 C1500 1.333 1_545 S
C1501 C1505 1.385 1_545 S
C1502 C1485 1.574 . S
C1502 H1496 0.949 . S
C1502 C1506 1.440 . S
C1503 C1484 1.429 . S
C1503 C1497 1.429 . S
C1503 C1504 1.523 . S
C1504 C1485 1.368 1_545 S
C1504 C1498 1.368 . S
C1504 C1503 1.523 . S
C1505 C1489 1.429 . S
C1505 C1501 1.385 1_565 S
C1505 C1506 1.515 . S
C1506 C1490 1.305 1_565 S
C1506 C1502 1.440 . S
C1506 C1505 1.515 . S
H1507 C1482 0.950 . S
H1508 C1484 0.950 . S
H1509 C1485 0.949 . S
H1510 C1487 0.950 . S
H1511 C1489 0.950 . S
C1512 C1513 1.349 . S
C1512 C1514 1.327 . S
C1512 H1537 0.950 . S
C1513 C1512 1.349 . S
C1513 C1529 1.349 . S
C1514 C1512 1.327 . S
C1514 C1533 1.429 1_554 S
C1514 H1538 0.950 . S
C1515 C1532 1.574 . S
C1515 C1534 1.368 . S
C1515 H1539 0.949 . S
H1516 C1520 0.949 . S
C1517 C1518 1.349 . S
C1517 C1519 1.327 . S
C1517 H1540 0.950 . S
C1518 C1517 1.349 . S
C1518 C1530 1.349 . S
C1519 C1517 1.327 . S
C1519 C1535 1.429 . S
C1519 H1541 0.950 . S
C1520 H1516 0.949 . S
C1520 C1528 1.574 . S
C1520 C1536 1.368 . S
H1521 C1529 0.950 . S
H1522 C1527 0.950 . S
H1523 C1528 0.949 1_554 S
H1524 C1530 0.950 . S
H1525 C1531 0.950 . S
H1526 C1532 0.949 . S
C1527 H1522 0.950 . S
C1527 C1529 1.327 1_556 S
C1527 C1533 1.429 . S
C1528 C1520 1.574 . S
C1528 H1523 0.949 1_556 S
C1528 C1534 1.368 . S
C1529 C1513 1.349 . S
C1529 H1521 0.950 . S
C1529 C1527 1.327 1_554 S
C1530 C1518 1.349 . S
C1530 H1524 0.950 . S
C1530 C1531 1.327 . S
C1531 H1525 0.950 . S
C1531 C1530 1.327 . S
C1531 C1535 1.429 . S
C1532 C1515 1.574 . S
C1532 H1526 0.949 . S
C1532 C1536 1.368 . S
C1533 C1514 1.429 1_556 S
C1533 C1527 1.429 . S
C1533 C1534 1.523 . S
C1534 C1515 1.368 . S
C1534 C1528 1.368 . S
C1534 C1533 1.523 . S
C1535 C1519 1.429 . S
C1535 C1531 1.429 . S
C1535 C1536 1.523 . S
C1536 C1520 1.368 . S
C1536 C1532 1.368 . S
C1536 C1535 1.523 . S
H1537 C1512 0.950 . S
H1538 C1514 0.950 . S
H1539 C1515 0.949 . S
H1540 C1517 0.950 . S
H1541 C1519 0.950 . S
C1542 C1543 1.349 1_556 S
C1542 C1544 1.327 . S
C1542 H1567 0.950 . S
C1543 C1542 1.349 1_554 S
C1543 C1559 1.349 . S
C1544 C1542 1.327 . S
C1544 C1563 1.429 . S
C1544 H1568 0.950 . S
C1545 C1562 1.574 . S
C1545 C1564 1.413 . S
C1545 H1569 0.949 1_556 S
H1546 C1550 0.949 . S
C1547 C1548 1.349 . S
C1547 C1549 1.327 . S
C1547 H1570 0.950 . S
C1548 C1547 1.349 . S
C1548 C1560 1.349 . S
C1549 C1547 1.327 . S
C1549 C1565 1.429 . S
C1549 H1571 0.950 . S
C1550 H1546 0.949 . S
C1550 C1558 1.574 1_655 S
C1550 C1566 1.368 . S
H1551 C1559 0.950 . S
H1552 C1557 0.950 . S
H1553 C1558 0.949 . S
H1554 C1560 0.950 . S
H1555 C1561 0.950 . S
H1556 C1562 0.949 . S
C1557 H1552 0.950 . S
C1557 C1559 1.327 . S
C1557 C1563 1.429 1_554 S
C1558 C1550 1.574 1_455 S
C1558 H1553 0.949 . S
C1558 C1564 1.342 1_455 S
C1559 C1543 1.349 . S
C1559 H1551 0.950 . S
C1559 C1557 1.327 . S
C1560 C1548 1.349 . S
C1560 H1554 0.950 . S
C1560 C1561 1.327 . S
C1561 H1555 0.950 . S
C1561 C1560 1.327 . S
C1561 C1565 1.429 . S
C1562 C1545 1.574 . S
C1562 H1556 0.949 . S
C1562 C1566 1.368 . S
C1563 C1544 1.429 . S
C1563 C1557 1.429 1_556 S
C1563 C1564 1.505 1_455 S
C1564 C1545 1.413 . S
C1564 C1558 1.342 1_655 S
C1564 C1563 1.505 1_655 S
C1565 C1549 1.429 . S
C1565 C1561 1.429 . S
C1565 C1566 1.523 . S
C1566 C1550 1.368 . S
C1566 C1562 1.368 . S
C1566 C1565 1.523 . S
H1567 C1542 0.950 . S
H1568 C1544 0.950 . S
H1569 C1545 0.949 1_554 S
H1570 C1547 0.950 . S
H1571 C1549 0.950 . S
C1572 C1573 1.349 . S
C1572 C1574 1.327 . S
C1572 H1597 0.950 . S
C1573 C1572 1.349 . S
C1573 C1589 1.349 . S
C1574 C1572 1.327 . S
C1574 C1593 1.429 . S
C1574 H1598 0.950 . S
C1575 C1592 1.574 . S
C1575 C1594 1.368 . S
C1575 H1599 0.949 . S
H1576 C1580 0.949 . S
C1577 C1578 1.349 . S
C1577 C1579 1.327 . S
C1577 H1600 0.950 . S
C1578 C1577 1.349 . S
C1578 C1590 1.349 . S
C1579 C1577 1.327 . S
C1579 C1595 1.429 1_554 S
C1579 H1601 0.950 . S
C1580 H1576 0.949 . S
C1580 C1588 1.574 . S
C1580 C1596 1.368 . S
H1581 C1589 0.950 . S
H1582 C1587 0.950 . S
H1583 C1588 0.949 . S
H1584 C1590 0.950 . S
H1585 C1591 0.950 1_556 S
H1586 C1592 0.949 . S
C1587 H1582 0.950 . S
C1587 C1589 1.327 . S
C1587 C1593 1.429 . S
C1588 C1580 1.574 . S
C1588 H1583 0.949 . S
C1588 C1594 1.368 . S
C1589 C1573 1.349 . S
C1589 H1581 0.950 . S
C1589 C1587 1.327 . S
C1590 C1578 1.349 . S
C1590 H1584 0.950 . S
C1590 C1591 1.327 . S
C1591 H1585 0.950 1_554 S
C1591 C1590 1.327 . S
C1591 C1595 1.429 1_554 S
C1592 C1575 1.574 . S
C1592 H1586 0.949 . S
C1592 C1596 1.368 . S
C1593 C1574 1.429 . S
C1593 C1587 1.429 . S
C1593 C1594 1.523 . S
C1594 C1575 1.368 . S
C1594 C1588 1.368 . S
C1594 C1593 1.523 . S
C1595 C1579 1.429 1_556 S
C1595 C1591 1.429 1_556 S
C1595 C1596 1.523 . S
C1596 C1580 1.368 . S
C1596 C1592 1.368 . S
C1596 C1595 1.523 . S
H1597 C1572 0.950 . S
H1598 C1574 0.950 . S
H1599 C1575 0.949 . S
H1600 C1577 0.950 . S
H1601 C1579 0.950 . S
C1602 C1603 1.349 1_556 S
C1602 C1604 1.327 . S
C1602 H1627 0.950 1_655 S
C1603 C1602 1.349 1_554 S
C1603 C1619 1.349 . S
C1604 C1602 1.327 . S
C1604 C1623 1.429 . S
C1604 H1628 0.950 . S
C1605 C1622 1.574 . S
C1605 C1624 1.368 . S
C1605 H1629 0.949 . S
H1606 C1610 0.949 . S
C1607 C1608 1.349 . S
C1607 C1609 1.327 . S
C1607 H1630 0.950 . S
C1608 C1607 1.349 . S
C1608 C1620 1.349 . S
C1609 C1607 1.327 . S
C1609 C1625 1.429 . S
C1609 H1631 0.950 . S
C1610 H1606 0.949 . S
C1610 C1618 1.574 . S
C1610 C1626 1.368 . S
H1611 C1619 0.950 . S
H1612 C1617 0.950 . S
H1613 C1618 0.949 . S
H1614 C1620 0.950 . S
H1615 C1621 0.950 . S
H1616 C1622 0.949 . S
C1617 H1612 0.950 . S
C1617 C1619 1.327 1_556 S
C1617 C1623 1.429 . S
C1618 C1610 1.574 . S
C1618 H1613 0.949 . S
C1618 C1624 1.368 . S
C1619 C1603 1.349 . S
C1619 H1611 0.950 . S
C1619 C1617 1.327 1_554 S
C1620 C1608 1.349 . S
C1620 H1614 0.950 . S
C1620 C1621 1.327 . S
C1621 H1615 0.950 . S
C1621 C1620 1.327 . S
C1621 C1625 1.429 . S
C1622 C1605 1.574 . S
C1622 H1616 0.949 . S
C1622 C1626 1.368 . S
C1623 C1604 1.429 . S
C1623 C1617 1.429 . S
C1623 C1624 1.523 . S
C1624 C1605 1.368 . S
C1624 C1618 1.368 . S
C1624 C1623 1.523 . S
C1625 C1609 1.429 . S
C1625 C1621 1.429 . S
C1625 C1626 1.523 . S
C1626 C1610 1.368 . S
C1626 C1622 1.368 . S
C1626 C1625 1.523 . S
H1627 C1602 0.950 1_455 S
H1628 C1604 0.950 . S
H1629 C1605 0.949 . S
H1630 C1607 0.950 . S
H1631 C1609 0.950 . S
C1632 C1633 1.349 . S
C1632 C1634 1.327 . S
C1632 H1657 0.950 . S
C1633 C1632 1.349 . S
C1633 C1649 1.349 . S
C1634 C1632 1.327 . S
C1634 C1653 1.429 . S
C1634 H1658 0.950 . S
C1635 C1652 1.574 . S
C1635 C1654 1.368 . S
C1635 H1659 0.949 . S
H1636 C1640 0.949 . S
C1637 C1638 1.349 . S
C1637 C1639 1.327 . S
C1637 H1660 0.950 . S
C1638 C1637 1.349 . S
C1638 C1650 1.349 . S
C1639 C1637 1.327 . S
C1639 C1655 1.429 . S
C1639 H1661 0.950 . S
C1640 H1636 0.949 . S
C1640 C1648 1.574 1_556 S
C1640 C1656 1.368 . S
H1641 C1649 0.950 1_556 S
H1642 C1647 0.950 . S
H1643 C1648 0.949 . S
H1644 C1650 0.950 . S
H1645 C1651 0.950 . S
H1646 C1652 0.949 . S
C1647 H1642 0.950 . S
C1647 C1649 1.327 1_556 S
C1647 C1653 1.429 1_556 S
C1648 C1640 1.574 1_554 S
C1648 H1643 0.949 . S
C1648 C1654 1.368 1_554 S
C1649 C1633 1.349 . S
C1649 H1641 0.950 1_554 S
C1649 C1647 1.327 1_554 S
C1650 C1638 1.349 . S
C1650 H1644 0.950 . S
C1650 C1651 1.327 . S
C1651 H1645 0.950 . S
C1651 C1650 1.327 . S
C1651 C1655 1.429 . S
C1652 C1635 1.574 . S
C1652 H1646 0.949 . S
C1652 C1656 1.368 . S
C1653 C1634 1.429 . S
C1653 C1647 1.429 1_554 S
C1653 C1654 1.523 1_554 S
C1654 C1635 1.368 . S
C1654 C1648 1.368 1_556 S
C1654 C1653 1.523 1_556 S
C1655 C1639 1.429 . S
C1655 C1651 1.429 . S
C1655 C1656 1.523 . S
C1656 C1640 1.368 . S
C1656 C1652 1.368 . S
C1656 C1655 1.523 . S
H1657 C1632 0.950 . S
H1658 C1634 0.950 . S
H1659 C1635 0.949 . S
H1660 C1637 0.950 . S
H1661 C1639 0.950 . S
C1662 C1663 1.349 . S
C1662 C1664 1.327 . S
C1662 H1687 0.950 . S
C1663 C1662 1.349 . S
C1663 C1679 1.349 . S
C1664 C1662 1.327 . S
C1664 C1683 1.429 . S
C1664 H1688 0.950 . S
C1665 C1682 1.574 . S
C1665 C1684 1.368 . S
C1665 H1689 0.949 . S
H1666 C1670 0.949 . S
C1667 C1668 1.349 . S
C1667 C1669 1.327 1_554 S
C1667 H1690 0.950 1_554 S
C1668 C1667 1.349 . S
C1668 C1680 1.349 . S
C1669 C1667 1.327 1_556 S
C1669 C1685 1.429 . S
C1669 H1691 0.950 . S
C1670 H1666 0.949 . S
C1670 C1678 1.574 . S
C1670 C1686 1.368 . S
H1671 C1679 0.950 . S
H1672 C1677 0.950 . S
H1673 C1678 0.949 . S
H1674 C1680 0.950 . S
H1675 C1681 0.950 . S
H1676 C1682 0.949 . S
C1677 H1672 0.950 . S
C1677 C1679 1.327 . S
C1677 C1683 1.429 . S
C1678 C1670 1.574 . S
C1678 H1673 0.949 . S
C1678 C1684 1.368 . S
C1679 C1663 1.349 . S
C1679 H1671 0.950 . S
C1679 C1677 1.327 . S
C1680 C1668 1.349 . S
C1680 H1674 0.950 . S
C1680 C1681 1.327 . S
C1681 H1675 0.950 . S
C1681 C1680 1.327 . S
C1681 C1685 1.429 1_554 S
C1682 C1665 1.574 . S
C1682 H1676 0.949 . S
C1682 C1686 1.368 . S
C1683 C1664 1.429 . S
C1683 C1677 1.429 . S
C1683 C1684 1.523 . S
C1684 C1665 1.368 . S
C1684 C1678 1.368 . S
C1684 C1683 1.523 . S
C1685 C1669 1.429 . S
C1685 C1681 1.429 1_556 S
C1685 C1686 1.523 . S
C1686 C1670 1.368 . S
C1686 C1682 1.368 . S
C1686 C1685 1.523 . S
H1687 C1662 0.950 . S
H1688 C1664 0.950 . S
H1689 C1665 0.949 . S
H1690 C1667 0.950 1_556 S
H1691 C1669 0.950 . S
C1692 C1693 1.349 . S
C1692 C1694 1.327 . S
C1692 H1717 0.950 . S
C1693 C1692 1.349 . S
C1693 C1709 1.349 . S
C1694 C1692 1.327 . S
C1694 C1713 1.429 . S
C1694 H1718 0.950 . S
C1695 C1712 1.574 . S
C1695 C1714 1.368 . S
C1695 H1719 0.949 . S
H1696 C1700 0.949 . S
C1697 C1698 1.349 . S
C1697 C1699 1.327 . S
C1697 H1720 0.950 . S
C1698 C1697 1.349 . S
C1698 C1710 1.349 . S
C1699 C1697 1.327 . S
C1699 C1715 1.429 . S
C1699 H1721 0.950 . S
C1700 H1696 0.949 . S
C1700 C1708 1.574 . S
C1700 C1716 1.368 . S
H1701 C1709 0.950 . S
H1702 C1707 0.950 . S
H1703 C1708 0.949 . S
H1704 C1710 0.950 . S
H1705 C1711 0.950 . S
H1706 C1712 0.949 . S
C1707 H1702 0.950 . S
C1707 C1709 1.327 . S
C1707 C1713 1.429 . S
C1708 C1700 1.574 . S
C1708 H1703 0.949 . S
C1708 C1714 1.368 . S
C1709 C1693 1.349 . S
C1709 H1701 0.950 . S
C1709 C1707 1.327 . S
C1710 C1698 1.349 . S
C1710 H1704 0.950 . S
C1710 C1711 1.327 . S
C1711 H1705 0.950 . S
C1711 C1710 1.327 . S
C1711 C1715 1.429 . S
C1712 C1695 1.574 . S
C1712 H1706 0.949 . S
C1712 C1716 1.368 . S
C1713 C1694 1.429 . S
C1713 C1707 1.429 . S
C1713 C1714 1.523 . S
C1714 C1695 1.368 . S
C1714 C1708 1.368 . S
C1714 C1713 1.523 . S
C1715 C1699 1.429 . S
C1715 C1711 1.429 . S
C1715 C1716 1.523 . S
C1716 C1700 1.368 . S
C1716 C1712 1.368 . S
C1716 C1715 1.523 . S
H1717 C1692 0.950 . S
H1718 C1694 0.950 . S
H1719 C1695 0.949 . S
H1720 C1697 0.950 . S
H1721 C1699 0.950 . S
C1722 C1723 1.349 . S
C1722 C1724 1.327 . S
C1722 H1747 0.950 . S
C1723 C1722 1.349 . S
C1723 C1739 1.349 . S
C1724 C1722 1.327 . S
C1724 C1743 1.429 . S
C1724 H1748 0.950 . S
C1725 C1742 1.574 . S
C1725 C1744 1.368 . S
C1725 H1749 0.949 . S
H1726 C1730 0.949 . S
C1727 C1728 1.349 . S
C1727 C1729 1.327 . S
C1727 H1750 0.950 . S
C1728 C1727 1.349 . S
C1728 C1740 1.349 . S
C1729 C1727 1.327 . S
C1729 C1745 1.429 . S
C1729 H1751 0.950 . S
C1730 H1726 0.949 . S
C1730 C1738 1.574 . S
C1730 C1746 1.368 . S
H1731 C1739 0.950 . S
H1732 C1737 0.950 . S
H1733 C1738 0.949 . S
H1734 C1740 0.950 . S
H1735 C1741 0.950 . S
H1736 C1742 0.949 . S
C1737 H1732 0.950 . S
C1737 C1739 1.327 . S
C1737 C1743 1.429 . S
C1738 C1730 1.574 . S
C1738 H1733 0.949 . S
C1738 C1744 1.368 . S
C1739 C1723 1.349 . S
C1739 H1731 0.950 . S
C1739 C1737 1.327 . S
C1740 C1728 1.349 . S
C1740 H1734 0.950 . S
C1740 C1741 1.327 . S
C1741 H1735 0.950 . S
C1741 C1740 1.327 . S
C1741 C1745 1.429 . S
C1742 C1725 1.574 . S
C1742 H1736 0.949 . S
C1742 C1746 1.368 . S
C1743 C1724 1.429 . S
C1743 C1737 1.429 . S
C1743 C1744 1.523 . S
C1744 C1725 1.368 . S
C1744 C1738 1.368 . S
C1744 C1743 1.523 . S
C1745 C1729 1.429 . S
C1745 C1741 1.429 . S
C1745 C1746 1.523 . S
C1746 C1730 1.368 . S
C1746 C1742 1.368 . S
C1746 C1745 1.523 . S
H1747 C1722 0.950 . S
H1748 C1724 0.950 . S
H1749 C1725 0.949 . S
H1750 C1727 0.950 . S
H1751 C1729 0.950 . S
C1752 C1753 1.349 . S
C1752 C1754 1.327 . S
C1752 H1777 0.950 . S
C1753 C1752 1.349 . S
C1753 C1769 1.349 . S
C1754 C1752 1.327 . S
C1754 C1773 1.429 . S
C1754 H1778 0.950 . S
C1755 C1772 1.574 . S
C1755 C1774 1.368 . S
C1755 H1779 0.949 . S
H1756 C1760 0.949 . S
C1757 C1758 1.349 . S
C1757 C1759 1.327 . S
C1757 H1780 0.950 . S
C1758 C1757 1.349 . S
C1758 C1770 1.349 . S
C1759 C1757 1.327 . S
C1759 C1775 1.429 . S
C1759 H1781 0.950 . S
C1760 H1756 0.949 . S
C1760 C1768 1.574 . S
C1760 C1776 1.368 . S
H1761 C1769 0.950 . S
H1762 C1767 0.950 . S
H1763 C1768 0.949 . S
H1764 C1770 0.950 . S
H1765 C1771 0.950 . S
H1766 C1772 0.949 . S
C1767 H1762 0.950 . S
C1767 C1769 1.327 . S
C1767 C1773 1.429 . S
C1768 C1760 1.574 . S
C1768 H1763 0.949 . S
C1768 C1774 1.368 . S
C1769 C1753 1.349 . S
C1769 H1761 0.950 . S
C1769 C1767 1.327 . S
C1770 C1758 1.349 . S
C1770 H1764 0.950 . S
C1770 C1771 1.327 . S
C1771 H1765 0.950 . S
C1771 C1770 1.327 . S
C1771 C1775 1.429 . S
C1772 C1755 1.574 . S
C1772 H1766 0.949 . S
C1772 C1776 1.368 . S
C1773 C1754 1.429 . S
C1773 C1767 1.429 . S
C1773 C1774 1.523 . S
C1774 C1755 1.368 . S
C1774 C1768 1.368 . S
C1774 C1773 1.523 . S
C1775 C1759 1.429 . S
C1775 C1771 1.429 . S
C1775 C1776 1.523 . S
C1776 C1760 1.368 . S
C1776 C1772 1.368 . S
C1776 C1775 1.523 . S
H1777 C1752 0.950 . S
H1778 C1754 0.950 . S
H1779 C1755 0.949 . S
H1780 C1757 0.950 . S
H1781 C1759 0.950 . S
C1782 C1783 1.349 . S
C1782 C1784 1.327 . S
C1782 H1807 0.950 . S
C1783 C1782 1.349 . S
C1783 C1799 1.349 . S
C1784 C1782 1.327 . S
C1784 C1803 1.429 . S
C1784 H1808 0.950 . S
C1785 C1802 1.574 . S
C1785 C1804 1.368 . S
C1785 H1809 0.949 . S
H1786 C1790 0.949 . S
C1787 C1788 1.349 . S
C1787 C1789 1.327 . S
C1787 H1810 0.950 . S
C1788 C1787 1.349 . S
C1788 C1800 1.349 . S
C1789 C1787 1.327 . S
C1789 C1805 1.429 . S
C1789 H1811 0.950 . S
C1790 H1786 0.949 . S
C1790 C1798 1.574 . S
C1790 C1806 1.368 . S
H1791 C1799 0.950 . S
H1792 C1797 0.950 . S
H1793 C1798 0.949 . S
H1794 C1800 0.950 . S
H1795 C1801 0.950 . S
H1796 C1802 0.949 . S
C1797 H1792 0.950 . S
C1797 C1799 1.327 . S
C1797 C1803 1.429 . S
C1798 C1790 1.574 . S
C1798 H1793 0.949 . S
C1798 C1804 1.368 . S
C1799 C1783 1.349 . S
C1799 H1791 0.950 . S
C1799 C1797 1.327 . S
C1800 C1788 1.349 . S
C1800 H1794 0.950 . S
C1800 C1801 1.327 . S
C1801 H1795 0.950 . S
C1801 C1800 1.327 . S
C1801 C1805 1.429 . S
C1802 C1785 1.574 . S
C1802 H1796 0.949 . S
C1802 C1806 1.368 . S
C1803 C1784 1.429 . S
C1803 C1797 1.429 . S
C1803 C1804 1.523 . S
C1804 C1785 1.368 . S
C1804 C1798 1.368 . S
C1804 C1803 1.523 . S
C1805 C1789 1.429 . S
C1805 C1801 1.429 . S
C1805 C1806 1.523 . S
C1806 C1790 1.368 . S
C1806 C1802 1.368 . S
C1806 C1805 1.523 . S
H1807 C1782 0.950 . S
H1808 C1784 0.950 . S
H1809 C1785 0.949 . S
H1810 C1787 0.950 . S
H1811 C1789 0.950 . S
C1812 C1813 1.349 . S
C1812 C1814 1.327 . S
C1812 H1837 0.950 . S
C1813 C1812 1.349 . S
C1813 C1829 1.349 . S
C1814 C1812 1.327 . S
C1814 C1833 1.429 . S
C1814 H1838 0.950 . S
C1815 C1832 1.574 . S
C1815 C1834 1.368 . S
C1815 H1839 0.949 . S
H1816 C1820 0.949 . S
C1817 C1818 1.349 . S
C1817 C1819 1.327 . S
C1817 H1840 0.950 . S
C1818 C1817 1.349 . S
C1818 C1830 1.349 . S
C1819 C1817 1.327 . S
C1819 C1835 1.429 . S
C1819 H1841 0.950 . S
C1820 H1816 0.949 . S
C1820 C1828 1.574 . S
C1820 C1836 1.368 . S
H1821 C1829 0.950 . S
H1822 C1827 0.950 . S
H1823 C1828 0.949 . S
H1824 C1830 0.950 . S
H1825 C1831 0.950 . S
H1826 C1832 0.949 . S
C1827 H1822 0.950 . S
C1827 C1829 1.327 . S
C1827 C1833 1.429 . S
C1828 C1820 1.574 . S
C1828 H1823 0.949 . S
C1828 C1834 1.368 . S
C1829 C1813 1.349 . S
C1829 H1821 0.950 . S
C1829 C1827 1.327 . S
C1830 C1818 1.349 . S
C1830 H1824 0.950 . S
C1830 C1831 1.327 . S
C1831 H1825 0.950 . S
C1831 C1830 1.327 . S
C1831 C1835 1.429 . S
C1832 C1815 1.574 . S
C1832 H1826 0.949 . S
C1832 C1836 1.368 . S
C1833 C1814 1.429 . S
C1833 C1827 1.429 . S
C1833 C1834 1.523 . S
C1834 C1815 1.368 . S
C1834 C1828 1.368 . S
C1834 C1833 1.523 . S
C1835 C1819 1.429 . S
C1835 C1831 1.429 . S
C1835 C1836 1.523 . S
C1836 C1820 1.368 . S
C1836 C1832 1.368 . S
C1836 C1835 1.523 . S
H1837 C1812 0.950 . S
H1838 C1814 0.950 . S
H1839 C1815 0.949 . S
H1840 C1817 0.950 . S
H1841 C1819 0.950 . S
C1842 C1843 1.349 . S
C1842 C1844 1.327 . S
C1842 H1867 0.950 . S
C1843 C1842 1.349 . S
C1843 C1859 1.349 . S
C1844 C1842 1.327 . S
C1844 C1863 1.429 . S
C1844 H1868 0.950 . S
C1845 C1862 1.575 1_455 S
C1845 C1864 1.368 . S
C1845 H1869 0.949 . S
H1846 C1850 0.949 . S
C1847 C1848 1.349 . S
C1847 C1849 1.327 . S
C1847 H1870 0.950 . S
C1848 C1847 1.349 . S
C1848 C1860 1.349 . S
C1849 C1847 1.327 . S
C1849 C1865 1.429 . S
C1849 H1871 0.950 . S
C1850 H1846 0.949 . S
C1850 C1858 1.574 . S
C1850 C1866 1.368 1_455 S
H1851 C1859 0.950 . S
H1852 C1857 0.950 . S
H1853 C1858 0.949 . S
H1854 C1860 0.950 . S
H1855 C1861 0.950 . S
H1856 C1862 0.949 . S
C1857 H1852 0.950 . S
C1857 C1859 1.327 . S
C1857 C1863 1.429 . S
C1858 C1850 1.574 . S
C1858 H1853 0.949 . S
C1858 C1864 1.368 . S
C1859 C1843 1.349 . S
C1859 H1851 0.950 . S
C1859 C1857 1.327 . S
C1860 C1848 1.349 . S
C1860 H1854 0.950 . S
C1860 C1861 1.327 . S
C1861 H1855 0.950 . S
C1861 C1860 1.327 . S
C1861 C1865 1.429 . S
C1862 C1845 1.575 1_655 S
C1862 H1856 0.949 . S
C1862 C1866 1.343 . S
C1863 C1844 1.429 . S
C1863 C1857 1.429 . S
C1863 C1864 1.523 . S
C1864 C1845 1.368 . S
C1864 C1858 1.368 . S
C1864 C1863 1.523 . S
C1865 C1849 1.429 . S
C1865 C1861 1.429 . S
C1865 C1866 1.556 . S
C1866 C1850 1.368 1_655 S
C1866 C1862 1.343 . S
C1866 C1865 1.556 . S
H1867 C1842 0.950 . S
H1868 C1844 0.950 . S
H1869 C1845 0.949 . S
H1870 C1847 0.950 . S
H1871 C1849 0.950 . S
C1872 C1873 1.349 . S
C1872 C1874 1.327 . S
C1872 H1897 0.950 . S
C1873 C1872 1.349 . S
C1873 C1889 1.349 . S
C1874 C1872 1.327 . S
C1874 C1893 1.429 . S
C1874 H1898 0.950 . S
C1875 C1892 1.574 . S
C1875 C1894 1.368 . S
C1875 H1899 0.949 . S
H1876 C1880 0.949 . S
C1877 C1878 1.349 . S
C1877 C1879 1.327 . S
C1877 H1900 0.950 . S
C1878 C1877 1.349 . S
C1878 C1890 1.349 . S
C1879 C1877 1.327 . S
C1879 C1895 1.429 . S
C1879 H1901 0.950 . S
C1880 H1876 0.949 . S
C1880 C1888 1.574 . S
C1880 C1896 1.368 . S
H1881 C1889 0.950 . S
H1882 C1887 0.950 . S
H1883 C1888 0.949 . S
H1884 C1890 0.950 . S
H1885 C1891 0.950 . S
H1886 C1892 0.949 . S
C1887 H1882 0.950 . S
C1887 C1889 1.327 . S
C1887 C1893 1.429 . S
C1888 C1880 1.574 . S
C1888 H1883 0.949 . S
C1888 C1894 1.368 . S
C1889 C1873 1.349 . S
C1889 H1881 0.950 . S
C1889 C1887 1.327 . S
C1890 C1878 1.349 . S
C1890 H1884 0.950 . S
C1890 C1891 1.327 . S
C1891 H1885 0.950 . S
C1891 C1890 1.327 . S
C1891 C1895 1.429 . S
C1892 C1875 1.574 . S
C1892 H1886 0.949 . S
C1892 C1896 1.368 . S
C1893 C1874 1.429 . S
C1893 C1887 1.429 . S
C1893 C1894 1.523 . S
C1894 C1875 1.368 . S
C1894 C1888 1.368 . S
C1894 C1893 1.523 . S
C1895 C1879 1.429 . S
C1895 C1891 1.429 . S
C1895 C1896 1.523 . S
C1896 C1880 1.368 . S
C1896 C1892 1.368 . S
C1896 C1895 1.523 . S
H1897 C1872 0.950 . S
H1898 C1874 0.950 . S
H1899 C1875 0.949 . S
H1900 C1877 0.950 . S
H1901 C1879 0.950 . S
C1902 C1903 1.349 . S
C1902 C1904 1.327 . S
C1902 H1927 0.950 . S
C1903 C1902 1.349 . S
C1903 C1919 1.349 . S
C1904 C1902 1.327 . S
C1904 C1923 1.429 . S
C1904 H1928 0.950 . S
C1905 C1922 1.574 . S
C1905 C1924 1.368 . S
C1905 H1929 0.949 . S
H1906 C1910 0.949 . S
C1907 C1908 1.349 . S
C1907 C1909 1.327 1_565 S
C1907 H1930 0.950 . S
C1908 C1907 1.349 . S
C1908 C1920 1.349 1_565 S
C1909 C1907 1.327 1_545 S
C1909 C1925 1.429 . S
C1909 H1931 0.950 . S
C1910 H1906 0.949 . S
C1910 C1918 1.574 . S
C1910 C1926 1.368 . S
H1911 C1919 0.950 . S
H1912 C1917 0.950 . S
H1913 C1918 0.949 . S
H1914 C1920 0.950 . S
H1915 C1921 0.950 . S
H1916 C1922 0.949 . S
C1917 H1912 0.950 . S
C1917 C1919 1.327 . S
C1917 C1923 1.429 . S
C1918 C1910 1.574 . S
C1918 H1913 0.949 . S
C1918 C1924 1.368 . S
C1919 C1903 1.349 . S
C1919 H1911 0.950 . S
C1919 C1917 1.327 . S
C1920 C1908 1.349 1_545 S
C1920 H1914 0.950 . S
C1920 C1921 1.327 . S
C1921 H1915 0.950 . S
C1921 C1920 1.327 . S
C1921 C1925 1.429 . S
C1922 C1905 1.574 . S
C1922 H1916 0.949 . S
C1922 C1926 1.368 . S
C1923 C1904 1.429 . S
C1923 C1917 1.429 . S
C1923 C1924 1.523 . S
C1924 C1905 1.368 . S
C1924 C1918 1.368 . S
C1924 C1923 1.523 . S
C1925 C1909 1.429 . S
C1925 C1921 1.429 . S
C1925 C1926 1.523 . S
C1926 C1910 1.368 . S
C1926 C1922 1.368 . S
C1926 C1925 1.523 . S
H1927 C1902 0.950 . S
H1928 C1904 0.950 . S
H1929 C1905 0.949 . S
H1930 C1907 0.950 . S
H1931 C1909 0.950 . S
C1932 C1933 1.349 . S
C1932 C1934 1.327 . S
C1932 H1957 0.950 . S
C1933 C1932 1.349 . S
C1933 C1949 1.349 . S
C1934 C1932 1.327 . S
C1934 C1953 1.429 . S
C1934 H1958 0.950 . S
C1935 C1952 1.574 . S
C1935 C1954 1.368 . S
C1935 H1959 0.949 . S
H1936 C1940 0.949 . S
C1937 C1938 1.349 . S
C1937 C1939 1.327 . S
C1937 H1960 0.950 . S
C1938 C1937 1.349 . S
C1938 C1950 1.349 . S
C1939 C1937 1.327 . S
C1939 C1955 1.429 . S
C1939 H1961 0.950 . S
C1940 H1936 0.949 . S
C1940 C1948 1.574 1_455 S
C1940 C1956 1.368 . S
H1941 C1949 0.950 . S
H1942 C1947 0.950 . S
H1943 C1948 0.949 . S
H1944 C1950 0.950 . S
H1945 C1951 0.950 . S
H1946 C1952 0.959 . S
C1947 H1942 0.950 . S
C1947 C1949 1.327 . S
C1947 C1953 1.429 . S
C1948 C1940 1.574 1_655 S
C1948 H1943 0.949 . S
C1948 C1954 1.368 . S
C1949 C1933 1.349 . S
C1949 H1941 0.950 . S
C1949 C1947 1.327 . S
C1950 C1938 1.349 . S
C1950 H1944 0.950 . S
C1950 C1951 1.327 . S
C1951 H1945 0.950 . S
C1951 C1950 1.327 . S
C1951 C1955 1.429 . S
C1952 C1935 1.574 . S
C1952 H1946 0.959 . S
C1952 C1956 1.368 1_655 S
C1953 C1934 1.429 . S
C1953 C1947 1.429 . S
C1953 C1954 1.523 . S
C1954 C1935 1.368 . S
C1954 C1948 1.368 . S
C1954 C1953 1.523 . S
C1955 C1939 1.429 . S
C1955 C1951 1.429 . S
C1955 C1956 1.523 . S
C1956 C1940 1.368 . S
C1956 C1952 1.368 1_455 S
C1956 C1955 1.523 . S
H1957 C1932 0.950 . S
H1958 C1934 0.950 . S
H1959 C1935 0.949 . S
H1960 C1937 0.950 . S
H1961 C1939 0.950 . S
C613 C5 1.045 . S
C618 C9 1.040 . S
C643 C39 1.097 . S
C648 C43 1.098 . S
C673 C77 1.048 . S
C678 C73 1.051 . S
C703 C111 1.047 . S
C708 C107 1.050 . S
C733 C141 1.092 . S
C738 C145 1.093 . S
C763 C175 1.093 . S
C768 C179 1.094 . S
C793 C213 0.993 . S
C798 C209 1.000 . S
C823 C247 1.094 . S
C828 C243 1.093 . S
C853 C281 1.046 . S
C858 C277 1.051 . S
C883 C311 1.008 . S
C888 C315 1.000 . S
C913 C349 1.103 . S
C918 C345 1.102 . S
C943 C383 1.045 . S
C948 C379 1.047 . S
C973 C413 0.997 . S
C978 C417 0.989 . S
C1003 C447 1.041 . S
C1008 C451 1.036 1_554 S
C1033 C481 1.044 . S
C1038 C485 1.041 . S
C1063 C515 1.002 . S
C1068 C519 0.994 . S
C1093 C553 1.049 . S
C1098 C549 1.052 . S
C1123 C583 1.000 . S
C1128 C587 0.992 . S
C1153 C122 1.519 . S
C1158 C20 1.516 . S
C1183 C156 1.459 . S
C1188 C54 1.458 . S
C1213 C190 1.455 . S
C1218 C88 1.459 . S
C1243 C224 1.247 . S
C1248 C326 1.242 . S
C1273 C360 1.401 . S
C1278 C258 1.408 . S
C1303 C394 1.348 . S
C1308 C292 1.341 . S
C1333 C530 1.464 . S
C1338 C428 1.462 . S
C1363 C462 1.429 . S
C1368 C564 1.437 . S
C1393 C496 1.436 . S
C1398 C598 1.430 . S
C1423 C305 1.312 . S
C1428 C2 1.287 . S
C1453 C237 1.271 . S
C1458 C36 1.256 . S
C1483 C101 1.288 . S
C1488 C271 1.288 . S
C1513 C70 1.207 . S
C1518 C410 1.183 . S
C1543 C33 1.532 . S
C1548 C444 1.468 . S
C1573 C509 1.385 . S
C1578 C67 1.398 . S
C1603 C104 1.268 . S
C1608 C580 1.226 . S
C1633 C138 1.306 . S
C1638 C543 1.325 . S
C1663 C577 1.363 . S
C1668 C203 1.384 . S
C1693 C339 1.286 . S
C1698 C172 1.273 . S
C1723 C135 1.224 . S
C1728 C373 1.223 . S
C1753 C169 1.297 . S
C1758 C407 1.287 . S
C1783 C206 1.073 . S
C1788 C478 1.073 . S
C1813 C240 1.323 1_545 S
C1818 C441 1.335 . S
C1843 C274 1.243 . S
C1848 C475 1.254 . S
C1873 C512 1.191 . S
C1878 C376 1.210 . S
C1903 C546 1.043 . S
C1908 C308 1.044 . S
C1933 C611 1.353 . S
C1938 C342 1.347 . S
