# Generated by pormake.
# Topology upa, (4)-cn, num edge types: 1
# Building blocks:
#     Node 0, Type 0, BuildingBlock: ICAMEG_clean_sbu_1, # of connection points: 4
#     Node 1, Type 0, BuildingBlock: ICAMEG_clean_sbu_1, # of connection points: 4
#     Node 2, Type 0, BuildingBlock: ICAMEG_clean_sbu_1, # of connection points: 4
#     Node 3, Type 0, BuildingBlock: ICAMEG_clean_sbu_1, # of connection points: 4
#     Node 4, Type 0, BuildingBlock: ICAMEG_clean_sbu_1, # of connection points: 4
#     Node 5, Type 0, BuildingBlock: ICAMEG_clean_sbu_1, # of connection points: 4
#     Node 6, Type 0, BuildingBlock: ICAMEG_clean_sbu_1, # of connection points: 4
#     Node 7, Type 0, BuildingBlock: ICAMEG_clean_sbu_1, # of connection points: 4
#     Edge 8, Type (0, 0), BuildingBlock: MIFKUJ_clean_linker_0, # of connection points: 2
#     Edge 9, Type (0, 0), BuildingBlock: MIFKUJ_clean_linker_0, # of connection points: 2
#     Edge 10, Type (0, 0), BuildingBlock: MIFKUJ_clean_linker_0, # of connection points: 2
#     Edge 11, Type (0, 0), BuildingBlock: MIFKUJ_clean_linker_0, # of connection points: 2
#     Edge 12, Type (0, 0), BuildingBlock: MIFKUJ_clean_linker_0, # of connection points: 2
#     Edge 13, Type (0, 0), BuildingBlock: MIFKUJ_clean_linker_0, # of connection points: 2
#     Edge 14, Type (0, 0), BuildingBlock: MIFKUJ_clean_linker_0, # of connection points: 2
#     Edge 15, Type (0, 0), BuildingBlock: MIFKUJ_clean_linker_0, # of connection points: 2
#     Edge 16, Type (0, 0), BuildingBlock: MIFKUJ_clean_linker_0, # of connection points: 2
#     Edge 17, Type (0, 0), BuildingBlock: MIFKUJ_clean_linker_0, # of connection points: 2
#     Edge 18, Type (0, 0), BuildingBlock: MIFKUJ_clean_linker_0, # of connection points: 2
#     Edge 19, Type (0, 0), BuildingBlock: MIFKUJ_clean_linker_0, # of connection points: 2
#     Edge 20, Type (0, 0), BuildingBlock: MIFKUJ_clean_linker_0, # of connection points: 2
#     Edge 21, Type (0, 0), BuildingBlock: MIFKUJ_clean_linker_0, # of connection points: 2
#     Edge 22, Type (0, 0), BuildingBlock: MIFKUJ_clean_linker_0, # of connection points: 2
#     Edge 23, Type (0, 0), BuildingBlock: MIFKUJ_clean_linker_0, # of connection points: 2
# Relax obj value: 0.140
# Max RMSD: 0.081
# Mean RMSD: 0.081
data_MOF--net-upa--node1-ICAMEG_clean_sbu_1--edge1-MIFKUJ_clean_linker_0
_symmetry_space_group_name_H-M    P1
_symmetry_Int_Tables_number       1
_symmetry_cell_setting            triclinic
loop_
_symmetry_equiv_pos_as_xyz
'x, y, z'
_cell_length_a     33.725895
_cell_length_b     33.700489
_cell_length_c     64.157533
_cell_angle_alpha  89.898976
_cell_angle_beta   90.0211
_cell_angle_gamma 89.991037
loop_
_atom_site_label
_atom_site_type_symbol
_atom_site_fract_x
_atom_site_fract_y
_atom_site_fract_z
_atom_type_partial_charge
Co0 Co 0.16056 0.25065 0.35889 0.0
Co1 Co 0.20539 0.18365 0.32528 0.0
O2 O 0.20756 0.2256 0.34649 0.0
C3 C 0.20075 0.21847 0.3963 0.0
O4 O 0.20499 0.1852 0.3859 0.0
C5 C 0.26619 0.24215 0.30917 0.0
O6 O 0.24987 0.27093 0.31989 0.0
O7 O 0.16663 0.21453 0.30798 0.0
O8 O 0.13393 0.25248 0.3311 0.0
H9 H 0.13657 0.0891 0.27676 0.0
H10 H 0.23917 0.28576 0.36807 0.0
O11 O 0.18545 0.24865 0.38737 0.0
H12 H 0.16454 0.39068 0.33146 0.0
H13 H 0.09023 0.34598 0.40657 0.0
H14 H 0.07351 0.24138 0.35362 0.0
H15 H 0.13378 0.32563 0.33847 0.0
H16 H 0.14856 0.31381 0.39073 0.0
O17 O 0.25125 0.20742 0.30946 0.0
H18 H 0.14033 0.14189 0.30324 0.0
H19 H 0.26614 0.13563 0.30265 0.0
H20 H 0.01443 0.27323 0.36888 0.0
H21 H 0.2709 0.35062 0.36169 0.0
H22 H 0.02257 0.32581 0.39556 0.0
H23 H 0.23356 0.40355 0.34317 0.0
O24 O 0.13513 0.1983 0.36441 0.0
H25 H 0.32766 0.16446 0.36902 0.0
H26 H 0.2085 0.09984 0.34029 0.0
H27 H 0.25402 0.06132 0.36256 0.0
H28 H 0.31419 0.09361 0.37705 0.0
H29 H 0.28109 0.202 0.3469 0.0
H30 H 0.26372 0.08301 0.27604 0.0
H31 H 0.19859 0.0593 0.26296 0.0
O32 O 0.16053 0.15782 0.34013 0.0
C33 C 0.13847 0.23821 0.31284 0.0
C34 C 0.16514 0.09915 0.28235 0.0
C35 C 0.2365 0.09578 0.28192 0.0
N36 N 0.2034 0.14186 0.30451 0.0
C37 C 0.16746 0.12901 0.29736 0.0
C38 C 0.23767 0.1257 0.29694 0.0
C39 C 0.19994 0.08247 0.2746 0.0
C40 C 0.22262 0.3088 0.3602 0.0
N41 N 0.1847 0.30192 0.35363 0.0
C42 C 0.24079 0.34539 0.35654 0.0
C43 C 0.21985 0.37505 0.34611 0.0
C44 C 0.18114 0.36783 0.33951 0.0
C45 C 0.16395 0.33086 0.34342 0.0
C46 C 0.0863 0.32311 0.39493 0.0
C47 C 0.07734 0.26446 0.36513 0.0
C48 C 0.11921 0.30471 0.38595 0.0
N49 N 0.11448 0.27593 0.37116 0.0
C50 C 0.04375 0.28227 0.37375 0.0
C51 C 0.04834 0.31179 0.38874 0.0
C52 C 0.13674 0.16501 0.35506 0.0
C53 C 0.30164 0.15001 0.36273 0.0
C54 C 0.23455 0.11415 0.34656 0.0
C55 C 0.26027 0.09215 0.35914 0.0
C56 C 0.29403 0.11028 0.36725 0.0
N57 N 0.24227 0.15308 0.34212 0.0
C58 C 0.27525 0.17107 0.35009 0.0
Co59 Co 0.26634 0.66491 0.85546 0.0
Co60 Co 0.33196 0.71349 0.82235 0.0
O61 O 0.29057 0.71317 0.84395 0.0
C62 C 0.29902 0.70013 0.89433 0.0
O63 O 0.33338 0.70311 0.88483 0.0
C64 C 0.27032 0.77169 0.80687 0.0
O65 O 0.24216 0.75162 0.81624 0.0
O66 O 0.30207 0.67439 0.80468 0.0
O67 O 0.26356 0.64093 0.82724 0.0
H68 H 0.42704 0.65043 0.77203 0.0
H69 H 0.23137 0.74276 0.86646 0.0
O70 O 0.26881 0.68736 0.88447 0.0
H71 H 0.12525 0.6701 0.82991 0.0
H72 H 0.17442 0.58877 0.90273 0.0
H73 H 0.27595 0.5786 0.84772 0.0
H74 H 0.19062 0.63909 0.83562 0.0
H75 H 0.20475 0.64907 0.88784 0.0
O76 O 0.30607 0.75943 0.80747 0.0
H77 H 0.37513 0.65105 0.79908 0.0
H78 H 0.37707 0.77708 0.80008 0.0
H79 H 0.24617 0.51764 0.86206 0.0
H80 H 0.16626 0.77473 0.86133 0.0
H81 H 0.19503 0.52247 0.8898 0.0
H82 H 0.11272 0.73838 0.84286 0.0
O83 O 0.31909 0.63925 0.85955 0.0
H84 H 0.34743 0.83388 0.86779 0.0
H85 H 0.41623 0.71994 0.83606 0.0
H86 H 0.45364 0.76593 0.85853 0.0
H87 H 0.41922 0.82349 0.87453 0.0
H88 H 0.3111 0.78687 0.84543 0.0
H89 H 0.42874 0.77781 0.77291 0.0
H90 H 0.45419 0.71415 0.75875 0.0
O91 O 0.35989 0.66885 0.83654 0.0
C92 C 0.27804 0.64622 0.80911 0.0
C93 C 0.41624 0.67837 0.7781 0.0
C94 C 0.41714 0.74985 0.77857 0.0
N95 N 0.37311 0.71404 0.8012 0.0
C96 C 0.38689 0.6789 0.79345 0.0
C97 C 0.38776 0.74925 0.7939 0.0
C98 C 0.43143 0.71413 0.77064 0.0
C99 C 0.20807 0.72662 0.8586 0.0
N100 N 0.21475 0.6891 0.85137 0.0
C101 C 0.17133 0.74494 0.85565 0.0
C102 C 0.14133 0.72455 0.84526 0.0
C103 C 0.14836 0.68625 0.83796 0.0
C104 C 0.18548 0.66891 0.84116 0.0
C105 C 0.19666 0.58629 0.89065 0.0
C106 C 0.2536 0.58102 0.85972 0.0
C107 C 0.21401 0.62032 0.88219 0.0
N108 N 0.24202 0.61741 0.86687 0.0
C109 C 0.23689 0.54636 0.86781 0.0
C110 C 0.20822 0.54909 0.88337 0.0
C111 C 0.3526 0.64303 0.85055 0.0
C112 C 0.36278 0.80896 0.86089 0.0
C113 C 0.401 0.74473 0.84308 0.0
C114 C 0.42237 0.77078 0.85573 0.0
C115 C 0.40305 0.80308 0.86468 0.0
N116 N 0.36153 0.75071 0.8394 0.0
C117 C 0.34238 0.78229 0.84815 0.0
Co118 Co 0.84043 0.7637 0.35708 0.0
Co119 Co 0.80283 0.83023 0.32141 0.0
O120 O 0.79609 0.79126 0.34376 0.0
C121 C 0.801 0.79912 0.39381 0.0
O122 O 0.80207 0.83323 0.38389 0.0
C123 C 0.74209 0.77503 0.30395 0.0
O124 O 0.76547 0.74512 0.3086 0.0
O125 O 0.83593 0.79254 0.30493 0.0
O126 O 0.86928 0.75959 0.32985 0.0
H127 H 0.88038 0.90927 0.26893 0.0
H128 H 0.75864 0.73415 0.36342 0.0
O129 O 0.81314 0.76765 0.38484 0.0
H130 H 0.83105 0.62343 0.3307 0.0
H131 H 0.90117 0.66768 0.4081 0.0
H132 H 0.92816 0.76797 0.35385 0.0
H133 H 0.86511 0.68643 0.33858 0.0
H134 H 0.84613 0.70114 0.38985 0.0
O135 O 0.7531 0.81046 0.30771 0.0
H136 H 0.87138 0.86044 0.29715 0.0
H137 H 0.74742 0.8828 0.29779 0.0
H138 H 0.98408 0.73476 0.37148 0.0
H139 H 0.72343 0.67157 0.35593 0.0
H140 H 0.97074 0.68434 0.39889 0.0
H141 H 0.7597 0.61571 0.33941 0.0
O142 O 0.86808 0.8148 0.36263 0.0
H143 H 0.68637 0.87139 0.36521 0.0
H144 H 0.8126 0.91496 0.33388 0.0
H145 H 0.77397 0.96187 0.35518 0.0
H146 H 0.71031 0.94021 0.37099 0.0
H147 H 0.72618 0.82525 0.34398 0.0
H148 H 0.75503 0.9317 0.26941 0.0
H149 H 0.8219 0.94532 0.25485 0.0
O150 O 0.85186 0.85151 0.33469 0.0
C151 C 0.86428 0.77004 0.31088 0.0
C152 C 0.85107 0.90365 0.27515 0.0
C153 C 0.78072 0.91618 0.27541 0.0
N154 N 0.80893 0.86882 0.29916 0.0
C155 C 0.84579 0.87606 0.29117 0.0
C156 C 0.77657 0.88836 0.29143 0.0
C157 C 0.81826 0.92383 0.26726 0.0
C158 C 0.77465 0.70984 0.35637 0.0
N159 N 0.81388 0.71384 0.35151 0.0
C160 C 0.75455 0.67454 0.35211 0.0
C161 C 0.77491 0.64323 0.34281 0.0
C162 C 0.81493 0.64755 0.33791 0.0
C163 C 0.83404 0.68331 0.34236 0.0
C164 C 0.90737 0.68952 0.39615 0.0
C165 C 0.9221 0.74573 0.36558 0.0
C166 C 0.87633 0.70863 0.38578 0.0
N167 N 0.88392 0.73627 0.37068 0.0
C168 C 0.9539 0.72715 0.37558 0.0
C169 C 0.94639 0.69889 0.39097 0.0
C170 C 0.87221 0.84539 0.35112 0.0
C171 C 0.71401 0.88121 0.35836 0.0
C172 C 0.78499 0.90523 0.34074 0.0
C173 C 0.7632 0.93198 0.35277 0.0
C174 C 0.72748 0.91981 0.36162 0.0
N175 N 0.77154 0.86743 0.33758 0.0
C176 C 0.73659 0.85527 0.34625 0.0
Co177 Co 0.75213 0.33884 0.85567 0.0
Co178 Co 0.68189 0.2924 0.8244 0.0
O179 O 0.72645 0.29137 0.84415 0.0
C180 C 0.72358 0.29806 0.89383 0.0
O181 O 0.69059 0.29032 0.88375 0.0
C182 C 0.74169 0.2366 0.80505 0.0
O183 O 0.7709 0.2553 0.81431 0.0
O184 O 0.70816 0.33399 0.80669 0.0
O185 O 0.75197 0.36443 0.8277 0.0
H186 H 0.57777 0.35884 0.78048 0.0
H187 H 0.78759 0.2603 0.86473 0.0
O188 O 0.75216 0.31526 0.88448 0.0
H189 H 0.89004 0.33383 0.82576 0.0
H190 H 0.85026 0.41138 0.90088 0.0
H191 H 0.74229 0.42563 0.84956 0.0
H192 H 0.82571 0.36506 0.83383 0.0
H193 H 0.81751 0.35226 0.8862 0.0
O194 O 0.70611 0.24872 0.80714 0.0
H195 H 0.63388 0.35637 0.80507 0.0
H196 H 0.63455 0.23041 0.80226 0.0
H197 H 0.77447 0.48549 0.8637 0.0
H198 H 0.85171 0.22805 0.85724 0.0
H199 H 0.82886 0.47858 0.88957 0.0
H200 H 0.9034 0.26486 0.83755 0.0
O201 O 0.70019 0.36451 0.86182 0.0
H202 H 0.67541 0.16675 0.86662 0.0
H203 H 0.60037 0.28312 0.84176 0.0
H204 H 0.56737 0.23401 0.86439 0.0
H205 H 0.60495 0.17523 0.87694 0.0
H206 H 0.70734 0.21683 0.84418 0.0
H207 H 0.57867 0.23157 0.77747 0.0
H208 H 0.5498 0.29611 0.76647 0.0
O209 O 0.65575 0.33491 0.84088 0.0
C210 C 0.73364 0.36121 0.8104 0.0
C211 C 0.59007 0.33052 0.78516 0.0
C212 C 0.59062 0.2591 0.78345 0.0
N213 N 0.63752 0.29329 0.80511 0.0
C214 C 0.62182 0.32892 0.79911 0.0
C215 C 0.62238 0.25864 0.79743 0.0
C216 C 0.57441 0.29532 0.7773 0.0
C217 C 0.81011 0.27661 0.85634 0.0
N218 N 0.80297 0.31451 0.84975 0.0
C219 C 0.84628 0.25815 0.85206 0.0
C220 C 0.87524 0.27879 0.84098 0.0
C221 C 0.86775 0.31748 0.83434 0.0
C222 C 0.83121 0.33496 0.83888 0.0
C223 C 0.82662 0.41477 0.88961 0.0
C224 C 0.76607 0.42234 0.86073 0.0
C225 C 0.80789 0.38141 0.88128 0.0
N226 N 0.77811 0.38546 0.86697 0.0
C227 C 0.78412 0.45637 0.86872 0.0
C228 C 0.81461 0.45247 0.88325 0.0
C229 C 0.6652 0.36048 0.8546 0.0
C230 C 0.65869 0.19217 0.86121 0.0
C231 C 0.61696 0.25775 0.84724 0.0
C232 C 0.59809 0.22996 0.85999 0.0
C233 C 0.61917 0.19698 0.86702 0.0
N234 N 0.65571 0.2528 0.84156 0.0
C235 C 0.67657 0.22055 0.84841 0.0
Co236 Co 0.66241 0.2563 0.1549 0.0
Co237 Co 0.70149 0.32433 0.18931 0.0
O238 O 0.70764 0.28361 0.16765 0.0
C239 C 0.70492 0.28606 0.11757 0.0
O240 O 0.70898 0.3201 0.12726 0.0
C241 C 0.76459 0.27022 0.20603 0.0
O242 O 0.74496 0.23975 0.19859 0.0
O243 O 0.66801 0.28823 0.2067 0.0
O244 O 0.63355 0.25563 0.18218 0.0
H245 H 0.6256 0.40808 0.24035 0.0
H246 H 0.74267 0.22296 0.1486 0.0
O247 O 0.68911 0.25666 0.12692 0.0
H248 H 0.66755 0.11846 0.18523 0.0
H249 H 0.59746 0.15603 0.10786 0.0
H250 H 0.57502 0.26463 0.15791 0.0
H251 H 0.6356 0.18193 0.17596 0.0
H252 H 0.65399 0.19011 0.1244 0.0
O253 O 0.75098 0.30525 0.20379 0.0
H254 H 0.63358 0.35714 0.21316 0.0
H255 H 0.75769 0.37822 0.2114 0.0
H256 H 0.51764 0.23107 0.14191 0.0
H257 H 0.77571 0.15973 0.15735 0.0
H258 H 0.52869 0.17637 0.11666 0.0
H259 H 0.73809 0.10702 0.17587 0.0
O260 O 0.63679 0.3078 0.14788 0.0
H261 H 0.81846 0.36096 0.14474 0.0
H262 H 0.6922 0.40789 0.1746 0.0
H263 H 0.73112 0.45259 0.15206 0.0
H264 H 0.7948 0.42923 0.137 0.0
H265 H 0.7783 0.31701 0.16712 0.0
H266 H 0.7511 0.4292 0.2387 0.0
H267 H 0.68466 0.44452 0.25332 0.0
O268 O 0.65228 0.34504 0.17571 0.0
C269 C 0.63876 0.26671 0.20101 0.0
C270 C 0.6547 0.40172 0.23409 0.0
C271 C 0.72514 0.41352 0.23318 0.0
N272 N 0.69603 0.3647 0.21066 0.0
C273 C 0.6594 0.37294 0.21865 0.0
C274 C 0.7287 0.38452 0.21777 0.0
C275 C 0.68785 0.42213 0.24137 0.0
C276 C 0.72604 0.19998 0.15647 0.0
N277 N 0.68728 0.20607 0.16174 0.0
C278 C 0.74493 0.16432 0.16147 0.0
C279 C 0.72383 0.13479 0.17189 0.0
C280 C 0.68426 0.14121 0.17717 0.0
C281 C 0.66637 0.17727 0.17196 0.0
C282 C 0.59226 0.17978 0.11886 0.0
C283 C 0.58008 0.24069 0.14704 0.0
C284 C 0.62416 0.19925 0.12824 0.0
N285 N 0.61781 0.22917 0.1422 0.0
C286 C 0.54747 0.22186 0.13799 0.0
C287 C 0.55368 0.1912 0.12381 0.0
C288 C 0.63234 0.33846 0.1592 0.0
C289 C 0.79083 0.37153 0.15127 0.0
C290 C 0.71982 0.39743 0.16806 0.0
C291 C 0.74177 0.42293 0.15534 0.0
C292 C 0.77751 0.40981 0.14691 0.0
N293 N 0.73309 0.35992 0.17227 0.0
C294 C 0.76807 0.34684 0.16404 0.0
Co295 Co 0.24101 0.16911 0.65867 0.0
Co296 Co 0.17032 0.2147 0.68975 0.0
O297 O 0.21418 0.21607 0.66977 0.0
C298 C 0.21092 0.20731 0.6202 0.0
O299 O 0.17693 0.21156 0.62992 0.0
C300 C 0.2296 0.26918 0.70986 0.0
O301 O 0.25821 0.24419 0.70537 0.0
O302 O 0.19879 0.17543 0.70806 0.0
O303 O 0.2415 0.14405 0.6868 0.0
H304 H 0.07137 0.14892 0.73711 0.0
H305 H 0.27389 0.24895 0.65009 0.0
O306 O 0.24058 0.19261 0.62983 0.0
H307 H 0.37873 0.17786 0.68862 0.0
H308 H 0.34075 0.09845 0.61367 0.0
H309 H 0.23354 0.08222 0.66523 0.0
H310 H 0.31556 0.14466 0.68019 0.0
H311 H 0.30651 0.15692 0.62814 0.0
O312 O 0.19381 0.26069 0.70536 0.0
H313 H 0.12557 0.15089 0.71131 0.0
H314 H 0.12159 0.27688 0.71076 0.0
H315 H 0.26721 0.02298 0.65131 0.0
H316 H 0.33674 0.28324 0.65805 0.0
H317 H 0.32123 0.03089 0.62532 0.0
H318 H 0.38964 0.24765 0.6775 0.0
O319 O 0.1896 0.14208 0.65269 0.0
H320 H 0.15791 0.33696 0.64523 0.0
H321 H 0.08785 0.22002 0.67316 0.0
H322 H 0.05236 0.26629 0.64989 0.0
H323 H 0.08742 0.32534 0.6358 0.0
H324 H 0.19239 0.28958 0.66828 0.0
H325 H 0.06699 0.27615 0.7363 0.0
H326 H 0.04142 0.21178 0.74958 0.0
O327 O 0.14512 0.17003 0.67433 0.0
C328 C 0.22434 0.14822 0.70437 0.0
C329 C 0.08203 0.17709 0.73128 0.0
C330 C 0.0797 0.24852 0.73092 0.0
N331 N 0.12675 0.21395 0.70952 0.0
C332 C 0.11278 0.17842 0.71671 0.0
C333 C 0.11071 0.24874 0.71649 0.0
C334 C 0.06534 0.2124 0.73835 0.0
C335 C 0.29693 0.2332 0.65841 0.0
N336 N 0.29116 0.19483 0.66461 0.0
C337 C 0.33238 0.2528 0.66293 0.0
C338 C 0.36202 0.23283 0.67387 0.0
C339 C 0.35591 0.19368 0.68013 0.0
C340 C 0.32005 0.17506 0.67536 0.0
C341 C 0.31728 0.09462 0.625 0.0
C342 C 0.25714 0.08593 0.654 0.0
C343 C 0.29771 0.12761 0.6332 0.0
N344 N 0.26816 0.123 0.64758 0.0
C345 C 0.27605 0.05226 0.64614 0.0
C346 C 0.30633 0.05672 0.63155 0.0
C347 C 0.15484 0.14494 0.66039 0.0
C348 C 0.14231 0.31133 0.65126 0.0
C349 C 0.10339 0.24541 0.66692 0.0
C350 C 0.0831 0.27163 0.65384 0.0
C351 C 0.10277 0.30478 0.64596 0.0
N352 N 0.14217 0.25199 0.67203 0.0
C353 C 0.16165 0.28446 0.66437 0.0
Co354 Co 0.34513 0.74569 0.15486 0.0
Co355 Co 0.29942 0.68405 0.19072 0.0
O356 O 0.29734 0.72351 0.16804 0.0
C357 C 0.30201 0.71496 0.11801 0.0
O358 O 0.29608 0.68207 0.12857 0.0
C359 C 0.23733 0.74332 0.20465 0.0
O360 O 0.2534 0.77142 0.19328 0.0
O361 O 0.33653 0.71789 0.20726 0.0
O362 O 0.37283 0.7474 0.18234 0.0
H363 H 0.36757 0.5977 0.24371 0.0
H364 H 0.2682 0.78468 0.14613 0.0
O365 O 0.31932 0.74422 0.12666 0.0
H366 H 0.3502 0.88701 0.18011 0.0
H367 H 0.42 0.83462 0.10545 0.0
H368 H 0.43139 0.73094 0.15945 0.0
H369 H 0.37697 0.82002 0.17379 0.0
H370 H 0.36015 0.80714 0.1222 0.0
O371 O 0.25253 0.70872 0.20516 0.0
H372 H 0.36413 0.64705 0.21536 0.0
H373 H 0.23856 0.63728 0.21402 0.0
H374 H 0.49196 0.75787 0.14328 0.0
H375 H 0.2404 0.85152 0.15185 0.0
H376 H 0.4865 0.81009 0.11603 0.0
H377 H 0.28148 0.90317 0.16903 0.0
O378 O 0.36716 0.69176 0.14981 0.0
H379 H 0.1783 0.65621 0.14744 0.0
H380 H 0.29943 0.59876 0.17822 0.0
H381 H 0.25527 0.5564 0.15724 0.0
H382 H 0.19406 0.58505 0.14177 0.0
H383 H 0.22367 0.69769 0.16821 0.0
H384 H 0.24064 0.58808 0.24247 0.0
H385 H 0.3055 0.56785 0.25746 0.0
O386 O 0.34568 0.65721 0.17745 0.0
C387 C 0.36672 0.73782 0.20131 0.0
C388 C 0.33913 0.60621 0.23728 0.0
C389 C 0.2679 0.60085 0.2366 0.0
N390 N 0.30123 0.64498 0.21297 0.0
C391 C 0.337 0.6341 0.2212 0.0
C392 C 0.26691 0.62883 0.22053 0.0
C393 C 0.3043 0.5895 0.245 0.0
C394 C 0.28635 0.80713 0.15344 0.0
N395 N 0.32412 0.79845 0.15965 0.0
C396 C 0.27041 0.84486 0.15672 0.0
C397 C 0.29344 0.8738 0.16639 0.0
C398 C 0.33198 0.86474 0.17264 0.0
C399 C 0.34692 0.82668 0.16913 0.0
C400 C 0.42276 0.81193 0.11732 0.0
C401 C 0.42874 0.75383 0.14771 0.0
C402 C 0.38897 0.79619 0.12682 0.0
N403 N 0.39226 0.76765 0.14189 0.0
C404 C 0.46316 0.76889 0.13856 0.0
C405 C 0.46007 0.79816 0.12327 0.0
C406 C 0.36741 0.66096 0.16134 0.0
C407 C 0.20479 0.64335 0.15416 0.0
C408 C 0.27298 0.61154 0.17146 0.0
C409 C 0.24802 0.58735 0.15963 0.0
C410 C 0.21368 0.60344 0.15097 0.0
N411 N 0.26398 0.65064 0.1746 0.0
C412 C 0.23049 0.66666 0.16604 0.0
Co413 Co 0.76048 0.83658 0.65501 0.0
Co414 Co 0.82955 0.79267 0.68791 0.0
O415 O 0.78658 0.79024 0.66738 0.0
C416 C 0.79364 0.79737 0.61762 0.0
O417 O 0.82734 0.79471 0.62777 0.0
C418 C 0.76878 0.73781 0.7067 0.0
O419 O 0.74034 0.75845 0.69789 0.0
O420 O 0.8008 0.83359 0.70481 0.0
O421 O 0.75816 0.86328 0.68274 0.0
H422 H 0.92866 0.8616 0.7338 0.0
H423 H 0.72762 0.7567 0.64649 0.0
O424 O 0.76305 0.81144 0.62665 0.0
H425 H 0.62077 0.82956 0.68231 0.0
H426 H 0.66573 0.90435 0.60583 0.0
H427 H 0.76705 0.9239 0.66031 0.0
H428 H 0.68486 0.86197 0.67498 0.0
H429 H 0.69781 0.84686 0.62266 0.0
O430 O 0.80485 0.7485 0.70468 0.0
H431 H 0.87457 0.8578 0.70801 0.0
H432 H 0.87634 0.7319 0.71132 0.0
H433 H 0.73523 0.9822 0.64414 0.0
H434 H 0.66383 0.72323 0.6533 0.0
H435 H 0.68429 0.97262 0.61662 0.0
H436 H 0.60993 0.7597 0.67141 0.0
O437 O 0.81213 0.86344 0.64962 0.0
H438 H 0.84248 0.66689 0.64645 0.0
H439 H 0.91251 0.78543 0.67227 0.0
H440 H 0.94844 0.73703 0.65055 0.0
H441 H 0.9134 0.67717 0.63753 0.0
H442 H 0.80759 0.7163 0.66801 0.0
H443 H 0.93021 0.73437 0.73728 0.0
H444 H 0.95684 0.79957 0.74862 0.0
O445 O 0.85589 0.83586 0.67177 0.0
C446 C 0.7752 0.86039 0.70045 0.0
C447 C 0.91735 0.83301 0.72896 0.0
C448 C 0.91817 0.7616 0.73093 0.0
N449 N 0.87232 0.79468 0.70813 0.0
C450 C 0.88676 0.83066 0.71433 0.0
C451 C 0.88755 0.7604 0.71628 0.0
C452 C 0.93312 0.79819 0.73728 0.0
C453 C 0.70414 0.77285 0.65419 0.0
N454 N 0.70989 0.81123 0.6603 0.0
C455 C 0.66817 0.75371 0.65809 0.0
C456 C 0.63796 0.77417 0.66828 0.0
C457 C 0.64404 0.81335 0.67442 0.0
C458 C 0.68043 0.83151 0.67029 0.0
C459 C 0.68782 0.90891 0.61784 0.0
C460 C 0.7446 0.91946 0.64851 0.0
C461 C 0.70617 0.87647 0.62739 0.0
N462 N 0.73415 0.88199 0.64253 0.0
C463 C 0.7268 0.9526 0.63935 0.0
C464 C 0.69825 0.9472 0.6239 0.0
C465 C 0.84666 0.86078 0.65761 0.0
C466 C 0.8581 0.69281 0.65207 0.0
C467 C 0.89701 0.7596 0.66657 0.0
C468 C 0.91754 0.73221 0.65433 0.0
C469 C 0.89787 0.69862 0.64705 0.0
N470 N 0.85802 0.75367 0.67147 0.0
C471 C 0.83853 0.72082 0.66436 0.0
H472 H 0.07674 0.16719 0.3842 0.0
H473 H 0.03129 0.11313 0.39358 0.0
H474 H 0.08984 0.0363 0.34956 0.0
H475 H 0.13507 0.08924 0.34029 0.0
H476 H 0.97882 0.07486 0.36938 0.0
H477 H 0.09203 0.94358 0.36552 0.0
H478 H 0.16165 0.931 0.3752 0.0
H479 H 0.15618 0.02374 0.42091 0.0
H480 H 0.08633 0.03649 0.41176 0.0
H481 H 0.8997 0.90578 0.32692 0.0
H482 H 0.94325 0.95977 0.33695 0.0
H483 H 0.95401 0.91036 0.39876 0.0
H484 H 0.9103 0.85526 0.38872 0.0
H485 H 0.0253 0.93756 0.38343 0.0
H486 H 0.89598 0.98812 0.39274 0.0
H487 H 0.82604 0.99995 0.38346 0.0
H488 H 0.86231 0.06953 0.33069 0.0
H489 H 0.9325 0.05748 0.33938 0.0
C490 C 0.08018 0.13862 0.37672 0.0
C491 C 0.10977 0.13259 0.36157 0.0
C492 C 0.05419 0.10781 0.38208 0.0
C493 C 0.05769 0.07048 0.37256 0.0
C494 C 0.08721 0.06451 0.35752 0.0
C495 C 0.11297 0.09507 0.35213 0.0
C496 C 0.0291 0.03813 0.37692 0.0
C497 C 0.98884 0.04496 0.37281 0.0
C498 C 0.04207 0.99928 0.38194 0.0
C499 C 0.08387 0.99106 0.3879 0.0
C500 C 0.10552 0.96106 0.37777 0.0
C501 C 0.14509 0.95396 0.38313 0.0
C502 C 0.16334 0.97658 0.39864 0.0
C503 C 0.14203 0.00628 0.40887 0.0
C504 C 0.10245 0.01349 0.40359 0.0
C505 C 0.91121 0.90615 0.34268 0.0
C506 C 0.90106 0.87639 0.35711 0.0
C507 C 0.93606 0.9372 0.3484 0.0
C508 C 0.95103 0.93956 0.36874 0.0
C509 C 0.94236 0.90921 0.38304 0.0
C510 C 0.91747 0.8778 0.37727 0.0
C511 C 0.97568 0.9741 0.37465 0.0
C512 C 0.01511 0.96765 0.38067 0.0
C513 C 0.96182 0.01339 0.37172 0.0
C514 C 0.9196 0.0218 0.36672 0.0
C515 C 0.88908 0.00583 0.37911 0.0
C516 C 0.84937 0.01255 0.37394 0.0
C517 C 0.83974 0.03546 0.35649 0.0
C518 C 0.86981 0.05181 0.34421 0.0
C519 C 0.90959 0.0451 0.34928 0.0
H520 H 0.80897 0.04057 0.3525 0.0
H521 H 0.19399 0.97108 0.40273 0.0
H522 H 0.34683 0.56383 0.85853 0.0
H523 H 0.40126 0.51679 0.86329 0.0
H524 H 0.4854 0.61325 0.86043 0.0
H525 H 0.43113 0.65978 0.85432 0.0
H526 H 0.51254 0.55752 0.83854 0.0
H527 H 0.45785 0.56053 0.90763 0.0
H528 H 0.40419 0.55642 0.93356 0.0
H529 H 0.3817 0.43551 0.91608 0.0
H530 H 0.43484 0.43917 0.88974 0.0
H531 H 0.67467 0.43625 0.86906 0.0
H532 H 0.62253 0.48611 0.87381 0.0
H533 H 0.53361 0.39835 0.85949 0.0
H534 H 0.5853 0.34866 0.85446 0.0
H535 H 0.51237 0.4518 0.89248 0.0
H536 H 0.5638 0.45125 0.82199 0.0
H537 H 0.6179 0.45484 0.7962 0.0
H538 H 0.64745 0.57205 0.81724 0.0
H539 H 0.594 0.56879 0.84351 0.0
C540 C 0.37692 0.57494 0.85918 0.0
C541 C 0.38483 0.61537 0.85604 0.0
C542 C 0.40808 0.54808 0.862 0.0
C543 C 0.44763 0.56141 0.86255 0.0
C544 C 0.45529 0.60209 0.85999 0.0
C545 C 0.42425 0.62872 0.85658 0.0
C546 C 0.48112 0.53293 0.8649 0.0
C547 C 0.51274 0.53499 0.85064 0.0
C548 C 0.48133 0.50286 0.88039 0.0
C549 C 0.45015 0.50023 0.89663 0.0
C550 C 0.44137 0.53311 0.90928 0.0
C551 C 0.41101 0.53085 0.92404 0.0
C552 C 0.38947 0.49571 0.92646 0.0
C553 C 0.39839 0.46271 0.91418 0.0
C554 C 0.42865 0.46485 0.89934 0.0
C555 C 0.64398 0.42738 0.86739 0.0
C556 C 0.63409 0.38864 0.86117 0.0
C557 C 0.61428 0.45589 0.87005 0.0
C558 C 0.57435 0.44587 0.8668 0.0
C559 C 0.56428 0.40659 0.86206 0.0
C560 C 0.59389 0.3783 0.85909 0.0
C561 C 0.54332 0.47681 0.86627 0.0
C562 C 0.51222 0.47495 0.88071 0.0
C563 C 0.54368 0.50719 0.85104 0.0
C564 C 0.57519 0.50959 0.83489 0.0
C565 C 0.58202 0.47767 0.82125 0.0
C566 C 0.61255 0.47965 0.80653 0.0
C567 C 0.63615 0.51362 0.80512 0.0
C568 C 0.62918 0.54573 0.81839 0.0
C569 C 0.59878 0.54382 0.8332 0.0
H570 H 0.65974 0.51509 0.79372 0.0
H571 H 0.36585 0.49398 0.93783 0.0
H572 H 0.61272 0.36732 0.12057 0.0
H573 H 0.5641 0.42004 0.11279 0.0
H574 H 0.5332 0.42583 0.17795 0.0
H575 H 0.58216 0.37456 0.18581 0.0
H576 H 0.46628 0.42542 0.14681 0.0
H577 H 0.59337 0.48833 0.16492 0.0
H578 H 0.6649 0.4983 0.15893 0.0
H579 H 0.64114 0.53682 0.09631 0.0
H580 H 0.56942 0.52633 0.10185 0.0
H581 H 0.38458 0.59664 0.18543 0.0
H582 H 0.42688 0.54074 0.17711 0.0
H583 H 0.45322 0.59221 0.11709 0.0
H584 H 0.41122 0.64954 0.12556 0.0
H585 H 0.51905 0.5611 0.13484 0.0
H586 H 0.38969 0.51462 0.1203 0.0
H587 H 0.31829 0.50424 0.12641 0.0
H588 H 0.34455 0.43331 0.18033 0.0
H589 H 0.4161 0.44391 0.17482 0.0
C590 C 0.59517 0.37971 0.13311 0.0
C591 C 0.60127 0.36733 0.15379 0.0
C592 C 0.56755 0.40966 0.12868 0.0
C593 C 0.54517 0.42661 0.14483 0.0
C594 C 0.55013 0.41294 0.1653 0.0
C595 C 0.57826 0.38392 0.16978 0.0
C596 C 0.51837 0.46054 0.14108 0.0
C597 C 0.47759 0.4551 0.14404 0.0
C598 C 0.53327 0.4989 0.13685 0.0
C599 C 0.57617 0.50608 0.1337 0.0
C600 C 0.60344 0.4986 0.14982 0.0
C601 C 0.644 0.50438 0.14652 0.0
C602 C 0.65758 0.51805 0.12722 0.0
C603 C 0.63059 0.52613 0.11123 0.0
C604 C 0.58999 0.52027 0.11444 0.0
C605 C 0.39919 0.59631 0.17041 0.0
C606 C 0.39406 0.6275 0.15606 0.0
C607 C 0.42331 0.5641 0.16563 0.0
C608 C 0.44242 0.56177 0.14627 0.0
C609 C 0.43837 0.59324 0.13204 0.0
C610 C 0.41434 0.6259 0.1369 0.0
C611 C 0.46681 0.52633 0.14138 0.0
C612 C 0.50723 0.53141 0.13687 0.0
C613 C 0.45145 0.48748 0.144 0.0
C614 C 0.40837 0.48019 0.14716 0.0
C615 C 0.38027 0.49695 0.13352 0.0
C616 C 0.33974 0.49105 0.13688 0.0
C617 C 0.32689 0.46816 0.15375 0.0
C618 C 0.35455 0.45103 0.16726 0.0
C619 C 0.39512 0.45693 0.16401 0.0
H620 H 0.2955 0.46367 0.15634 0.0
H621 H 0.68899 0.52249 0.12469 0.0
H622 H 0.07721 0.1614 0.65335 0.0
H623 H 0.02394 0.11443 0.64621 0.0
H624 H 0.1088 0.01854 0.64528 0.0
H625 H 0.16259 0.06606 0.65153 0.0
H626 H 0.05342 0.00387 0.61797 0.0
H627 H 0.05326 0.04122 0.6899 0.0
H628 H 0.05213 0.08604 0.72017 0.0
H629 H 0.93982 0.13288 0.7003 0.0
H630 H 0.94038 0.0883 0.66984 0.0
H631 H 0.9269 0.85079 0.65882 0.0
H632 H 0.97787 0.9006 0.65194 0.0
H633 H 0.8875 0.98539 0.63525 0.0
H634 H 0.83615 0.93533 0.64165 0.0
H635 H 0.94255 0.00741 0.66878 0.0
H636 H 0.94206 0.9592 0.59848 0.0
H637 H 0.94499 0.90773 0.57127 0.0
H638 H 0.06177 0.87462 0.59154 0.0
H639 H 0.0593 0.92549 0.61911 0.0
C640 C 0.08454 0.13038 0.6514 0.0
C641 C 0.12386 0.11722 0.65332 0.0
C642 C 0.05407 0.10352 0.64736 0.0
C643 C 0.06216 0.06276 0.64582 0.0
C644 C 0.10177 0.04981 0.64655 0.0
C645 C 0.13247 0.07692 0.65014 0.0
C646 C 0.02912 0.03366 0.6448 0.0
C647 C 0.02934 0.0045 0.62917 0.0
C648 C 0.99738 0.03462 0.65928 0.0
C649 C 0.9971 0.06177 0.67746 0.0
C650 C 0.02848 0.06131 0.6919 0.0
C651 C 0.0279 0.08663 0.70912 0.0
C652 C 0.99599 0.11247 0.71214 0.0
C653 C 0.96454 0.11291 0.69795 0.0
C654 C 0.96494 0.08757 0.68072 0.0
C655 C 0.91785 0.87978 0.65333 0.0
C656 C 0.87749 0.8892 0.65089 0.0
C657 C 0.94703 0.90812 0.64931 0.0
C658 C 0.93635 0.94652 0.64305 0.0
C659 C 0.89621 0.95576 0.63997 0.0
C660 C 0.86699 0.92714 0.64359 0.0
C661 C 0.96689 0.9779 0.64198 0.0
C662 C 0.96633 0.00728 0.65738 0.0
C663 C 0.99865 0.97642 0.62764 0.0
C664 C 1.00034 0.94597 0.61099 0.0
C665 C 0.96823 0.94072 0.59727 0.0
C666 C 0.96984 0.91169 0.58175 0.0
C667 C 0.00351 0.88787 0.57971 0.0
C668 C 0.03569 0.89309 0.59315 0.0
C669 C 0.03422 0.92205 0.60871 0.0
H670 H 0.0047 0.86541 0.56768 0.0
H671 H 0.99556 0.13204 0.72549 0.0
H672 H 0.1947 0.28204 0.4227 0.0
H673 H 0.20188 0.28223 0.46061 0.0
H674 H 0.23238 0.15798 0.45945 0.0
H675 H 0.22501 0.15742 0.42152 0.0
H676 H 0.17676 0.17246 0.48832 0.0
H677 H 0.30245 0.22771 0.46953 0.0
H678 H 0.34793 0.27411 0.45186 0.0
H679 H 0.29514 0.37198 0.48441 0.0
H680 H 0.24895 0.32621 0.50208 0.0
H681 H 0.27674 0.20295 0.59525 0.0
H682 H 0.27949 0.20788 0.55722 0.0
H683 H 0.15424 0.23333 0.55546 0.0
H684 H 0.15114 0.22841 0.59346 0.0
H685 H 0.26146 0.26583 0.52819 0.0
H686 H 0.11476 0.18142 0.51447 0.0
H687 H 0.0727 0.13204 0.53234 0.0
H688 H 0.17454 0.08638 0.56464 0.0
H689 H 0.21726 0.13505 0.54673 0.0
C690 C 0.20342 0.25483 0.43045 0.0
C691 C 0.20922 0.21968 0.41902 0.0
C692 C 0.2076 0.25502 0.45216 0.0
C693 C 0.21778 0.22014 0.46292 0.0
C694 C 0.22441 0.18523 0.45151 0.0
C695 C 0.22037 0.18503 0.42979 0.0
C696 C 0.21969 0.21962 0.48612 0.0
C697 C 0.19532 0.1929 0.49699 0.0
C698 C 0.24418 0.24596 0.49753 0.0
C699 C 0.272 0.27355 0.48699 0.0
C700 C 0.30033 0.25916 0.4728 0.0
C701 C 0.32627 0.28534 0.46281 0.0
C702 C 0.32436 0.32598 0.46697 0.0
C703 C 0.29656 0.3405 0.48119 0.0
C704 C 0.27051 0.31444 0.49121 0.0
C705 C 0.24984 0.21009 0.58681 0.0
C706 C 0.21363 0.21496 0.59743 0.0
C707 C 0.25151 0.213 0.56506 0.0
C708 C 0.217 0.22048 0.55347 0.0
C709 C 0.18117 0.22706 0.56407 0.0
C710 C 0.17948 0.22435 0.58583 0.0
C711 C 0.21801 0.2192 0.53029 0.0
C712 C 0.24287 0.24552 0.51945 0.0
C713 C 0.19439 0.19212 0.51888 0.0
C714 C 0.1691 0.16217 0.52941 0.0
C715 C 0.12818 0.16072 0.52532 0.0
C716 C 0.10423 0.13286 0.53546 0.0
C717 C 0.12092 0.10618 0.54967 0.0
C718 C 0.16163 0.10716 0.55369 0.0
C719 C 0.18571 0.1349 0.54356 0.0
H720 H 0.10232 0.08469 0.55753 0.0
H721 H 0.34448 0.3462 0.45922 0.0
H722 H 0.35944 0.70628 0.92268 0.0
H723 H 0.35397 0.71075 0.96066 0.0
H724 H 0.22654 0.71392 0.95565 0.0
H725 H 0.23168 0.70898 0.91766 0.0
H726 H 0.2559 0.76823 0.9848 0.0
H727 H 0.2662 0.63054 0.96855 0.0
H728 H 0.29365 0.56872 0.95396 0.0
H729 H 0.40132 0.58613 0.98847 0.0
H730 H 0.37477 0.64843 1.00302 0.0
H731 H 0.26583 0.65847 0.09384 0.0
H732 H 0.25774 0.65882 0.05593 0.0
H733 H 0.31178 0.7747 0.05284 0.0
H734 H 0.31908 0.77499 0.09065 0.0
H735 H 0.31223 0.65886 0.02738 0.0
H736 H 0.28044 0.82505 0.01005 0.0
H737 H 0.24584 0.88163 0.02626 0.0
H738 H 0.17006 0.80133 0.05967 0.0
H739 H 0.20382 0.7443 0.04346 0.0
C740 C 0.33025 0.70842 0.92961 0.0
C741 C 0.296 0.70716 0.91711 0.0
C742 C 0.32718 0.71077 0.95134 0.0
C743 C 0.28983 0.71234 0.961 0.0
C744 C 0.25564 0.71271 0.94853 0.0
C745 C 0.25865 0.70981 0.92682 0.0
C746 C 0.2865 0.71219 0.98412 0.0
C747 C 0.26828 0.74439 0.99415 0.0
C748 C 0.30176 0.68064 0.99629 0.0
C749 C 0.31863 0.64435 0.98672 0.0
C750 C 0.29596 0.62152 0.97279 0.0
C751 C 0.3113 0.58631 0.96459 0.0
C752 C 0.34915 0.57351 0.97034 0.0
C753 C 0.37198 0.5961 0.98407 0.0
C754 C 0.35681 0.63135 0.99229 0.0
C755 C 0.27542 0.6843 0.08513 0.0
C756 C 0.29316 0.71666 0.09533 0.0
C757 C 0.2709 0.68441 0.06343 0.0
C758 C 0.28395 0.71686 0.05145 0.0
C759 C 0.30081 0.74958 0.06168 0.0
C760 C 0.30513 0.7496 0.08336 0.0
C761 C 0.28244 0.71537 0.02823 0.0
C762 C 0.29985 0.68283 0.01812 0.0
C763 C 0.26579 0.74629 0.01603 0.0
C764 C 0.24493 0.7804 0.02567 0.0
C765 C 0.25628 0.81947 0.02079 0.0
C766 C 0.23683 0.85162 0.02999 0.0
C767 C 0.20585 0.84508 0.04404 0.0
C768 C 0.19416 0.80636 0.04885 0.0
C769 C 0.21348 0.77411 0.03968 0.0
H770 H 0.19086 0.87001 0.05116 0.0
H771 H 0.3607 0.54593 0.9643 0.0
H772 H 0.85603 0.79237 0.59058 0.0
H773 H 0.8533 0.78944 0.55256 0.0
H774 H 0.72573 0.78071 0.55519 0.0
H775 H 0.72822 0.78549 0.5932 0.0
H776 H 0.83104 0.74188 0.52373 0.0
H777 H 0.68357 0.82899 0.51505 0.0
H778 H 0.64435 0.87781 0.53494 0.0
H779 H 0.75016 0.91933 0.56508 0.0
H780 H 0.79008 0.87128 0.5451 0.0
H781 H 0.78208 0.73424 0.41746 0.0
H782 H 0.77501 0.73106 0.45535 0.0
H783 H 0.79388 0.85749 0.45919 0.0
H784 H 0.79919 0.86107 0.42125 0.0
H785 H 0.74334 0.83798 0.4874 0.0
H786 H 0.86994 0.78807 0.4668 0.0
H787 H 0.91565 0.74533 0.44693 0.0
H788 H 0.86532 0.64185 0.47572 0.0
H789 H 0.81876 0.68394 0.49547 0.0
C790 C 0.82741 0.78937 0.58308 0.0
C791 C 0.79231 0.78959 0.5949 0.0
C792 C 0.82588 0.78765 0.5613 0.0
C793 C 0.78926 0.7857 0.55089 0.0
C794 C 0.75432 0.78329 0.56277 0.0
C795 C 0.75577 0.78576 0.58453 0.0
C796 C 0.78765 0.7882 0.52768 0.0
C797 C 0.81171 0.76278 0.51582 0.0
C798 C 0.76327 0.81619 0.51722 0.0
C799 C 0.73972 0.84623 0.52873 0.0
C800 C 0.69849 0.84873 0.52582 0.0
C801 C 0.67614 0.87624 0.53712 0.0
C802 C 0.69474 0.90155 0.55132 0.0
C803 C 0.73578 0.89963 0.55412 0.0
C804 C 0.75827 0.87228 0.5428 0.0
C805 C 0.78406 0.76146 0.42636 0.0
C806 C 0.79151 0.79787 0.41636 0.0
C807 C 0.78026 0.75958 0.44805 0.0
C808 C 0.7849 0.79388 0.46026 0.0
C809 C 0.79033 0.83056 0.45019 0.0
C810 C 0.79341 0.83257 0.42846 0.0
C811 C 0.78635 0.79131 0.48347 0.0
C812 C 0.76239 0.81683 0.49532 0.0
C813 C 0.81199 0.76449 0.49393 0.0
C814 C 0.84061 0.73914 0.48247 0.0
C815 C 0.86849 0.75619 0.46882 0.0
C816 C 0.89454 0.73208 0.45757 0.0
C817 C 0.89333 0.6909 0.46003 0.0
C818 C 0.86617 0.67375 0.4738 0.0
C819 C 0.83994 0.69772 0.48504 0.0
H820 H 0.9135 0.67229 0.45129 0.0
H821 H 0.67736 0.92269 0.56013 0.0
H822 H 0.77705 0.32943 0.92123 0.0
H823 H 0.77752 0.32349 0.95907 0.0
H824 H 0.67681 0.24468 0.95618 0.0
H825 H 0.67517 0.25195 0.91821 0.0
H826 H 0.66448 0.29437 0.98537 0.0
H827 H 0.77542 0.21296 0.96841 0.0
H828 H 0.83895 0.19522 0.95186 0.0
H829 H 0.89718 0.28947 0.98481 0.0
H830 H 0.83386 0.30814 1.00135 0.0
H831 H 0.67957 0.22906 0.09045 0.0
H832 H 0.68723 0.22793 0.0526 0.0
H833 H 0.75728 0.33474 0.0553 0.0
H834 H 0.7491 0.33666 0.09334 0.0
H835 H 0.78604 0.26887 0.0269 0.0
H836 H 0.6712 0.34969 0.04288 0.0
H837 H 0.60722 0.36246 0.0602 0.0
H838 H 0.55596 0.26201 0.02915 0.0
H839 H 0.61991 0.24823 0.01192 0.0
C840 C 0.75526 0.31041 0.92859 0.0
C841 C 0.72611 0.29106 0.91665 0.0
C842 C 0.75568 0.30688 0.95031 0.0
C843 C 0.72756 0.28315 0.96063 0.0
C844 C 0.69885 0.26319 0.94868 0.0
C845 C 0.69803 0.26722 0.92693 0.0
C846 C 0.72694 0.28079 0.98389 0.0
C847 C 0.69104 0.28814 0.99433 0.0
C848 C 0.76161 0.27336 0.99584 0.0
C849 C 0.79979 0.26217 0.98597 0.0
C850 C 0.80171 0.23009 0.97201 0.0
C851 C 0.83769 0.21984 0.96265 0.0
C852 C 0.87206 0.24126 0.96724 0.0
C853 C 0.87052 0.27293 0.98125 0.0
C854 C 0.8346 0.28333 0.99064 0.0
C855 C 0.6971 0.25208 0.0831 0.0
C856 C 0.71363 0.28307 0.09495 0.0
C857 C 0.70135 0.25139 0.06143 0.0
C858 C 0.72267 0.28132 0.05117 0.0
C859 C 0.74076 0.31134 0.06297 0.0
C860 C 0.73596 0.31244 0.08467 0.0
C861 C 0.72381 0.28247 0.02804 0.0
C862 C 0.75967 0.27493 0.01774 0.0
C863 C 0.68906 0.28908 0.01619 0.0
C864 C 0.65045 0.29769 0.02629 0.0
C865 C 0.64639 0.33012 0.03989 0.0
C866 C 0.61011 0.33758 0.04966 0.0
C867 C 0.57757 0.313 0.04582 0.0
C868 C 0.58121 0.28099 0.03213 0.0
C869 C 0.61746 0.27335 0.02235 0.0
H870 H 0.54951 0.31881 0.05341 0.0
H871 H 0.89989 0.23328 0.95998 0.0
H872 H 0.62505 0.30077 0.23943 0.0
H873 H 0.56367 0.29777 0.25969 0.0
H874 H 0.5163 0.21163 0.21672 0.0
H875 H 0.57677 0.2153 0.19614 0.0
H876 H 0.46476 0.2682 0.22184 0.0
H877 H 0.54337 0.18841 0.2681 0.0
H878 H 0.6005 0.1725 0.2906 0.0
H879 H 0.57343 0.2723 0.3296 0.0
H880 H 0.5164 0.28913 0.30715 0.0
H881 H 0.29756 0.19728 0.27793 0.0
H882 H 0.36249 0.20406 0.26138 0.0
H883 H 0.38741 0.30644 0.29937 0.0
H884 H 0.32189 0.30026 0.31585 0.0
H885 H 0.45031 0.24713 0.29799 0.0
H886 H 0.36947 0.32438 0.25187 0.0
H887 H 0.31189 0.33829 0.22933 0.0
H888 H 0.34325 0.24026 0.18997 0.0
H889 H 0.40074 0.22541 0.21246 0.0
C890 C 0.6019 0.28062 0.23449 0.0
C891 C 0.60588 0.25865 0.21595 0.0
C892 C 0.56672 0.27889 0.24614 0.0
C893 C 0.53505 0.25463 0.23971 0.0
C894 C 0.54 0.23092 0.22193 0.0
C895 C 0.57487 0.23288 0.21022 0.0
C896 C 0.4958 0.25571 0.2505 0.0
C897 C 0.46171 0.26307 0.23847 0.0
C898 C 0.49161 0.2503 0.27231 0.0
C899 C 0.52589 0.24029 0.28581 0.0
C900 C 0.54981 0.20717 0.28136 0.0
C901 C 0.58213 0.19794 0.29413 0.0
C902 C 0.59066 0.22145 0.31148 0.0
C903 C 0.56682 0.25417 0.31613 0.0
C904 C 0.53448 0.26355 0.3034 0.0
C905 C 0.31666 0.22148 0.28267 0.0
C906 C 0.30445 0.24834 0.29816 0.0
C907 C 0.3538 0.2253 0.27319 0.0
C908 C 0.37983 0.25574 0.27914 0.0
C909 C 0.3678 0.28271 0.29457 0.0
C910 C 0.33025 0.27931 0.30385 0.0
C911 C 0.41961 0.25886 0.26922 0.0
C912 C 0.45363 0.2524 0.2814 0.0
C913 C 0.42382 0.26479 0.24751 0.0
C914 C 0.38921 0.27355 0.23397 0.0
C915 C 0.36388 0.30555 0.23852 0.0
C916 C 0.33131 0.31366 0.22573 0.0
C917 C 0.32385 0.29011 0.20826 0.0
C918 C 0.34903 0.25845 0.20353 0.0
C919 C 0.38164 0.2502 0.21628 0.0
H920 H 0.29863 0.29646 0.19837 0.0
H921 H 0.61569 0.21424 0.32135 0.0
H922 H 0.20508 0.81971 0.81213 0.0
H923 H 0.19495 0.8868 0.79828 0.0
H924 H 0.30631 0.87911 0.76543 0.0
H925 H 0.3171 0.81292 0.77972 0.0
H926 H 0.30264 0.94728 0.7831 0.0
H927 H 0.2109 0.87196 0.74118 0.0
H928 H 0.15446 0.82709 0.73472 0.0
H929 H 0.07654 0.90736 0.76664 0.0
H930 H 0.13265 0.95249 0.77352 0.0
H931 H 0.2853 0.09487 0.70545 0.0
H932 H 0.29054 0.03514 0.72658 0.0
H933 H 0.18411 0.06752 0.75965 0.0
H934 H 0.17842 0.12778 0.73832 0.0
H935 H 0.18123 0.99087 0.74595 0.0
H936 H 0.27374 0.06957 0.78421 0.0
H937 H 0.33081 0.11436 0.78898 0.0
H938 H 0.40828 0.02704 0.7623 0.0
H939 H 0.35159 0.98192 0.75709 0.0
C940 C 0.22718 0.83218 0.80177 0.0
C941 C 0.2619 0.81085 0.79704 0.0
C942 C 0.22134 0.87061 0.79381 0.0
C943 C 0.24973 0.88824 0.78063 0.0
C944 C 0.284 0.86652 0.77563 0.0
C945 C 0.29007 0.82846 0.78376 0.0
C946 C 0.24471 0.92957 0.77242 0.0
C947 C 0.27618 0.95657 0.77481 0.0
C948 C 0.20975 0.9425 0.76216 0.0
C949 C 0.17605 0.91535 0.75808 0.0
C950 C 0.18179 0.87988 0.74697 0.0
C951 C 0.14985 0.85443 0.74321 0.0
C952 C 0.11197 0.8643 0.75032 0.0
C953 C 0.10592 0.89971 0.76117 0.0
C954 C 0.13777 0.92524 0.765 0.0
C955 C 0.26336 0.08993 0.71749 0.0
C956 C 0.23141 0.1164 0.72012 0.0
C957 C 0.26645 0.05559 0.72962 0.0
C958 C 0.23781 0.0467 0.7448 0.0
C959 C 0.2066 0.07368 0.74804 0.0
C960 C 0.20358 0.10836 0.73594 0.0
C961 C 0.23952 0.00805 0.75622 0.0
C962 C 0.20747 0.98162 0.75446 0.0
C963 C 0.27408 0.99548 0.7669 0.0
C964 C 0.30833 0.02245 0.77014 0.0
C965 C 0.3029 0.06002 0.77923 0.0
C966 C 0.3352 0.08545 0.78203 0.0
C967 C 0.37314 0.07358 0.77592 0.0
C968 C 0.37888 0.0362 0.76703 0.0
C969 C 0.34667 0.01066 0.76418 0.0
H970 H 0.3981 0.09332 0.7781 0.0
H971 H 0.08728 0.84457 0.74739 0.0
H972 H 0.68429 0.83005 0.29658 0.0
H973 H 0.61823 0.8195 0.28223 0.0
H974 H 0.64225 0.69434 0.27646 0.0
H975 H 0.70893 0.70464 0.29088 0.0
H976 H 0.606 0.72465 0.24138 0.0
H977 H 0.58328 0.72504 0.31468 0.0
H978 H 0.58853 0.75031 0.35061 0.0
H979 H 0.52747 0.85685 0.33267 0.0
H980 H 0.52239 0.83248 0.29654 0.0
H981 H 0.37789 0.70719 0.24083 0.0
H982 H 0.4389 0.71044 0.26163 0.0
H983 H 0.49054 0.78977 0.21641 0.0
H984 H 0.43042 0.78661 0.19557 0.0
H985 H 0.48672 0.77103 0.27965 0.0
H986 H 0.58201 0.75622 0.20522 0.0
H987 H 0.57419 0.73027 0.16951 0.0
H988 H 0.48814 0.64595 0.19126 0.0
H989 H 0.49595 0.67091 0.22714 0.0
C990 C 0.67571 0.80019 0.29227 0.0
C991 C 0.70205 0.76815 0.29492 0.0
C992 C 0.63775 0.79421 0.28414 0.0
C993 C 0.62504 0.75607 0.27847 0.0
C994 C 0.65137 0.72402 0.28079 0.0
C995 C 0.68944 0.72995 0.28907 0.0
C996 C 0.58435 0.75015 0.26997 0.0
C997 C 0.57996 0.73453 0.24982 0.0
C998 C 0.55014 0.76242 0.28108 0.0
C999 C 0.55269 0.77702 0.30286 0.0
C1000 C 0.57119 0.75397 0.31836 0.0
C1001 C 0.57411 0.76812 0.33877 0.0
C1002 C 0.5584 0.80519 0.34391 0.0
C1003 C 0.53964 0.82814 0.32866 0.0
C1004 C 0.53669 0.81415 0.30822 0.0
C1005 C 0.40187 0.72604 0.23554 0.0
C1006 C 0.3993 0.74616 0.21632 0.0
C1007 C 0.43675 0.72782 0.24746 0.0
C1008 C 0.46954 0.74968 0.24033 0.0
C1009 C 0.46586 0.77216 0.22202 0.0
C1010 C 0.43126 0.77037 0.21014 0.0
C1011 C 0.50871 0.74684 0.25088 0.0
C1012 C 0.51278 0.76076 0.27135 0.0
C1013 C 0.54256 0.73246 0.2402 0.0
C1014 C 0.53944 0.71564 0.21887 0.0
C1015 C 0.56175 0.73186 0.20243 0.0
C1016 C 0.55724 0.71738 0.18214 0.0
C1017 C 0.53063 0.68654 0.17812 0.0
C1018 C 0.50869 0.66988 0.19439 0.0
C1019 C 0.51317 0.68418 0.21471 0.0
H1020 H 0.52702 0.67554 0.16239 0.0
H1021 H 0.56071 0.81611 0.35972 0.0
H1022 H 0.80667 0.18739 0.80735 0.0
H1023 H 0.81436 0.12157 0.79167 0.0
H1024 H 0.70057 0.13434 0.76161 0.0
H1025 H 0.69224 0.19925 0.77773 0.0
H1026 H 0.70354 0.06534 0.77794 0.0
H1027 H 0.79401 0.14026 0.7356 0.0
H1028 H 0.85107 0.18354 0.72782 0.0
H1029 H 0.92996 0.09868 0.75569 0.0
H1030 H 0.87326 0.05517 0.76401 0.0
H1031 H 0.71585 0.91588 0.70005 0.0
H1032 H 0.71201 0.97687 0.72035 0.0
H1033 H 0.81662 0.94268 0.75457 0.0
H1034 H 0.82066 0.88121 0.73436 0.0
H1035 H 0.82145 0.01938 0.73866 0.0
H1036 H 0.72908 0.94294 0.77877 0.0
H1037 H 0.67114 0.89959 0.78433 0.0
H1038 H 0.5948 0.98846 0.75796 0.0
H1039 H 0.65237 0.03214 0.75196 0.0
C1040 C 0.78354 0.17635 0.79718 0.0
C1041 C 0.74882 0.19864 0.79383 0.0
C1042 C 0.78799 0.13866 0.78816 0.0
C1043 C 0.75814 0.12275 0.7753 0.0
C1044 C 0.72398 0.14558 0.77155 0.0
C1045 C 0.71931 0.1829 0.78073 0.0
C1046 C 0.7613 0.08181 0.7664 0.0
C1047 C 0.72923 0.05561 0.76915 0.0
C1048 C 0.79521 0.06829 0.75541 0.0
C1049 C 0.82928 0.09471 0.75071 0.0
C1050 C 0.82346 0.13103 0.7403 0.0
C1051 C 0.85575 0.15557 0.73576 0.0
C1052 C 0.89408 0.14397 0.74137 0.0
C1053 C 0.90022 0.10772 0.75145 0.0
C1054 C 0.86802 0.08311 0.75609 0.0
C1055 C 0.73763 0.92077 0.71219 0.0
C1056 C 0.76859 0.89339 0.7155 0.0
C1057 C 0.7354 0.95582 0.72379 0.0
C1058 C 0.76406 0.96451 0.73899 0.0
C1059 C 0.79422 0.93669 0.74289 0.0
C1060 C 0.79627 0.90134 0.73141 0.0
C1061 C 0.76348 0.00354 0.74994 0.0
C1062 C 0.79599 0.02924 0.7476 0.0
C1063 C 0.72984 0.01683 0.76109 0.0
C1064 C 0.69512 0.99069 0.76477 0.0
C1065 C 0.69998 0.95313 0.77401 0.0
C1066 C 0.66719 0.92851 0.77727 0.0
C1067 C 0.62933 0.94123 0.77147 0.0
C1068 C 0.62416 0.97864 0.76244 0.0
C1069 C 0.65685 0.00335 0.75913 0.0
H1070 H 0.60398 0.92213 0.774 0.0
H1071 H 0.91905 0.163 0.73782 0.0
H1072 H 0.08105 0.29539 0.31465 0.0
H1073 H 0.02026 0.29911 0.29428 0.0
H1074 H 0.05926 0.20059 0.25672 0.0
H1075 H 0.121 0.1972 0.27681 0.0
H1076 H 0.01834 0.25244 0.23315 0.0
H1077 H 0.99658 0.18492 0.29678 0.0
H1078 H 0.99885 0.17306 0.33469 0.0
H1079 H 0.92647 0.27599 0.34501 0.0
H1080 H 0.92432 0.2889 0.30715 0.0
H1081 H 0.81593 0.20727 0.20261 0.0
H1082 H 0.88171 0.20023 0.21873 0.0
H1083 H 0.86673 0.31301 0.24931 0.0
H1084 H 0.80161 0.32071 0.23295 0.0
H1085 H 0.89547 0.2473 0.27566 0.0
H1086 H 0.92138 0.31305 0.20952 0.0
H1087 H 0.91833 0.31818 0.17121 0.0
H1088 H 0.98203 0.2084 0.16553 0.0
H1089 H 0.98488 0.2023 0.20384 0.0
C1090 C 0.07726 0.27496 0.30179 0.0
C1091 C 0.10594 0.24566 0.2976 0.0
C1092 C 0.04221 0.27697 0.29022 0.0
C1093 C 0.03455 0.24942 0.27431 0.0
C1094 C 0.06427 0.22196 0.26904 0.0
C1095 C 0.09966 0.22011 0.28055 0.0
C1096 C 0.99463 0.24805 0.26425 0.0
C1097 C 0.99154 0.25078 0.24245 0.0
C1098 C 0.95943 0.24564 0.2763 0.0
C1099 C 0.96054 0.23805 0.29911 0.0
C1100 C 0.98139 0.20522 0.30713 0.0
C1101 C 0.98262 0.19827 0.32861 0.0
C1102 C 0.96277 0.22372 0.34224 0.0
C1103 C 0.94177 0.25626 0.33442 0.0
C1104 C 0.94052 0.26341 0.31295 0.0
C1105 C 0.82659 0.23045 0.21285 0.0
C1106 C 0.80353 0.26456 0.21648 0.0
C1107 C 0.86422 0.22645 0.22199 0.0
C1108 C 0.87916 0.25615 0.23518 0.0
C1109 C 0.8558 0.28974 0.23919 0.0
C1110 C 0.81861 0.29412 0.22977 0.0
C1111 C 0.91929 0.2527 0.24469 0.0
C1112 C 0.92235 0.24884 0.26641 0.0
C1113 C 0.95433 0.25311 0.23254 0.0
C1114 C 0.95294 0.25699 0.20953 0.0
C1115 C 0.93441 0.28982 0.2001 0.0
C1116 C 0.93278 0.29294 0.17839 0.0
C1117 C 0.94987 0.26358 0.16594 0.0
C1118 C 0.96874 0.23109 0.17519 0.0
C1119 C 0.97039 0.2278 0.1969 0.0
H1120 H 0.94858 0.26604 0.14913 0.0
H1121 H 0.96365 0.21822 0.35886 0.0
H1122 H 0.17788 0.33037 0.71604 0.0
H1123 H 0.19165 0.39635 0.72962 0.0
H1124 H 0.31465 0.36517 0.73777 0.0
H1125 H 0.30111 0.29846 0.72404 0.0
H1126 H 0.28365 0.40574 0.77198 0.0
H1127 H 0.29034 0.4232 0.69819 0.0
H1128 H 0.26695 0.41651 0.66196 0.0
H1129 H 0.16337 0.4852 0.67647 0.0
H1130 H 0.18583 0.49178 0.7129 0.0
H1131 H 0.31694 0.63108 0.77201 0.0
H1132 H 0.3133 0.56973 0.75144 0.0
H1133 H 0.21957 0.52678 0.79112 0.0
H1134 H 0.22247 0.58748 0.81146 0.0
H1135 H 0.24816 0.52501 0.73035 0.0
H1136 H 0.2491 0.43517 0.80673 0.0
H1137 H 0.27238 0.44326 0.84296 0.0
H1138 H 0.36578 0.52009 0.82193 0.0
H1139 H 0.34332 0.51214 0.78563 0.0
C1140 C 0.20793 0.33727 0.72076 0.0
C1141 C 0.2384 0.3089 0.71892 0.0
C1142 C 0.21577 0.37524 0.72844 0.0
C1143 C 0.25426 0.38598 0.73451 0.0
C1144 C 0.28472 0.35761 0.73312 0.0
C1145 C 0.27694 0.31949 0.72525 0.0
C1146 C 0.26217 0.42688 0.74234 0.0
C1147 C 0.27622 0.43174 0.76278 0.0
C1148 C 0.25295 0.46103 0.73031 0.0
C1149 C 0.23968 0.45778 0.70832 0.0
C1150 C 0.26246 0.43669 0.69369 0.0
C1151 C 0.24938 0.43293 0.67311 0.0
C1152 C 0.21367 0.45037 0.66692 0.0
C1153 C 0.19103 0.47171 0.68129 0.0
C1154 C 0.20395 0.47551 0.7019 0.0
C1155 C 0.29477 0.60911 0.776 0.0
C1156 C 0.27031 0.61426 0.79359 0.0
C1157 C 0.29283 0.57399 0.76424 0.0
C1158 C 0.26661 0.54344 0.76998 0.0
C1159 C 0.24034 0.54975 0.78656 0.0
C1160 C 0.24205 0.58468 0.79817 0.0
C1161 C 0.26854 0.50359 0.76008 0.0
C1162 C 0.25616 0.49895 0.73936 0.0
C1163 C 0.27965 0.46964 0.77175 0.0
C1164 C 0.29436 0.4732 0.79348 0.0
C1165 C 0.27478 0.45353 0.80984 0.0
C1166 C 0.28778 0.45819 0.8304 0.0
C1167 C 0.32046 0.48227 0.83477 0.0
C1168 C 0.34036 0.50158 0.81857 0.0
C1169 C 0.32749 0.49704 0.798 0.0
H1170 H 0.33038 0.48591 0.8507 0.0
H1171 H 0.20357 0.44738 0.65099 0.0
H1172 H 0.20803 0.70181 0.23764 0.0
H1173 H 0.14272 0.7074 0.25363 0.0
H1174 H 0.11374 0.80393 0.21208 0.0
H1175 H 0.1801 0.79944 0.19647 0.0
H1176 H 0.08234 0.81753 0.24949 0.0
H1177 H 0.08237 0.70748 0.20256 0.0
H1178 H 0.10835 0.64549 0.18743 0.0
H1179 H 0.09158 0.58576 0.24593 0.0
H1180 H 0.06616 0.64759 0.26153 0.0
H1181 H 0.87691 0.80091 0.27169 0.0
H1182 H 0.93736 0.79536 0.25083 0.0
H1183 H 0.98537 0.71186 0.29511 0.0
H1184 H 0.9254 0.71741 0.31618 0.0
H1185 H 0.0038 0.69308 0.25324 0.0
H1186 H 0.00905 0.80496 0.30045 0.0
H1187 H 0.98088 0.86625 0.3153 0.0
H1188 H 0.98542 0.92205 0.25513 0.0
H1189 H 0.01305 0.86079 0.23985 0.0
C1190 C 0.18795 0.72454 0.23201 0.0
C1191 C 0.19915 0.74994 0.21563 0.0
C1192 C 0.15045 0.72758 0.24112 0.0
C1193 C 0.12271 0.75536 0.23371 0.0
C1194 C 0.13443 0.78204 0.21799 0.0
C1195 C 0.17237 0.77945 0.20907 0.0
C1196 C 0.08124 0.75522 0.24191 0.0
C1197 C 0.065 0.79043 0.24996 0.0
C1198 C 0.05842 0.71984 0.24275 0.0
C1199 C 0.07258 0.68226 0.23325 0.0
C1200 C 0.08435 0.68116 0.21222 0.0
C1201 C 0.09901 0.64606 0.20356 0.0
C1202 C 0.10166 0.61172 0.21572 0.0
C1203 C 0.08951 0.61238 0.23654 0.0
C1204 C 0.07494 0.64744 0.24529 0.0
C1205 C 0.89991 0.78072 0.27682 0.0
C1206 C 0.89638 0.76009 0.29584 0.0
C1207 C 0.93455 0.77768 0.26488 0.0
C1208 C 0.96615 0.75369 0.2716 0.0
C1209 C 0.96146 0.73068 0.28967 0.0
C1210 C 0.92706 0.73397 0.30172 0.0
C1211 C 0.00534 0.75514 0.26096 0.0
C1212 C 0.02109 0.72019 0.2525 0.0
C1213 C 0.02755 0.79073 0.25964 0.0
C1214 C 0.01282 0.82821 0.26897 0.0
C1215 C 0.00395 0.83028 0.29038 0.0
C1216 C 0.98804 0.86498 0.29887 0.0
C1217 C 0.98126 0.89799 0.28616 0.0
C1218 C 0.99065 0.89643 0.26495 0.0
C1219 C 0.00647 0.86174 0.25637 0.0
H1220 H 0.9688 0.92478 0.29275 0.0
H1221 H 0.11308 0.58459 0.209 0.0
H1222 H 0.68464 0.38299 0.77789 0.0
H1223 H 0.68588 0.44582 0.75861 0.0
H1224 H 0.79394 0.4787 0.79009 0.0
H1225 H 0.79273 0.4166 0.8095 0.0
H1226 H 0.74015 0.53679 0.79276 0.0
H1227 H 0.79266 0.4536 0.73824 0.0
H1228 H 0.79234 0.39698 0.71395 0.0
H1229 H 0.6842 0.43944 0.68649 0.0
H1230 H 0.6836 0.49608 0.71082 0.0
H1231 H 0.81567 0.69821 0.73448 0.0
H1232 H 0.80366 0.63367 0.7507 0.0
H1233 H 0.69076 0.62585 0.71945 0.0
H1234 H 0.70234 0.69103 0.7033 0.0
H1235 H 0.73797 0.55573 0.71608 0.0
H1236 H 0.68783 0.64118 0.76887 0.0
H1237 H 0.6878 0.69781 0.79314 0.0
H1238 H 0.79066 0.65083 0.82397 0.0
H1239 H 0.79165 0.59416 0.79969 0.0
C1240 C 0.70922 0.4031 0.78033 0.0
C1241 C 0.73855 0.39455 0.79533 0.0
C1242 C 0.70981 0.43918 0.76933 0.0
C1243 C 0.73992 0.46722 0.77295 0.0
C1244 C 0.7702 0.4578 0.78712 0.0
C1245 C 0.7696 0.42199 0.79813 0.0
C1246 C 0.73913 0.50729 0.763 0.0
C1247 C 0.74011 0.54083 0.77598 0.0
C1248 C 0.73753 0.51282 0.74112 0.0
C1249 C 0.73783 0.47881 0.72651 0.0
C1250 C 0.76862 0.45067 0.72715 0.0
C1251 C 0.76865 0.41862 0.71334 0.0
C1252 C 0.7382 0.41454 0.69873 0.0
C1253 C 0.70772 0.44259 0.69784 0.0
C1254 C 0.70753 0.47469 0.71163 0.0
C1255 C 0.78809 0.68299 0.73117 0.0
C1256 C 0.75989 0.6999 0.71764 0.0
C1257 C 0.78125 0.64607 0.74049 0.0
C1258 C 0.74627 0.6249 0.73634 0.0
C1259 C 0.71795 0.64166 0.72288 0.0
C1260 C 0.7245 0.67901 0.71378 0.0
C1261 C 0.7401 0.585 0.74587 0.0
C1262 C 0.73771 0.55159 0.73285 0.0
C1263 C 0.74034 0.57949 0.76773 0.0
C1264 C 0.74004 0.61362 0.78232 0.0
C1265 C 0.71068 0.64311 0.78069 0.0
C1266 C 0.71043 0.67518 0.79448 0.0
C1267 C 0.73927 0.67798 0.81005 0.0
C1268 C 0.76837 0.64865 0.81189 0.0
C1269 C 0.76876 0.61653 0.79812 0.0
H1270 H 0.73902 0.70282 0.82072 0.0
H1271 H 0.73828 0.38972 0.68805 0.0
loop_
_geom_bond_atom_site_label_1
_geom_bond_atom_site_label_2
_geom_bond_distance
_geom_bond_site_symmetry_2
_ccdc_geom_bond_type
Co0 O2 2.143 . S
Co0 O8 2.074 . S
Co0 O11 2.093 . S
Co0 O24 2.097 . S
Co0 N41 2.151 . S
Co0 N49 2.214 . S
Co1 O2 2.160 . S
Co1 O7 2.058 . S
Co1 O17 2.057 . S
Co1 O32 2.037 . S
Co1 N36 2.145 . S
Co1 N57 2.257 . S
O2 Co0 2.143 . S
O2 Co1 2.160 . S
C3 O4 1.278 . S
C3 O11 1.224 . S
O4 C3 1.278 . S
C5 O6 1.245 . S
C5 O17 1.232 . S
O6 C5 1.245 . S
O7 Co1 2.058 . S
O7 C33 1.269 . S
O8 Co0 2.074 . S
O8 C33 1.257 . S
H9 C34 0.930 . S
H10 C40 0.930 . S
O11 Co0 2.093 . S
O11 C3 1.224 . S
H12 C44 0.929 . S
H13 C46 0.930 . S
H14 C47 0.930 . S
H15 C45 0.929 . S
H16 C48 0.928 . S
O17 Co1 2.057 . S
O17 C5 1.232 . S
H18 C37 0.929 . S
H19 C38 0.929 . S
H20 C50 0.931 . S
H21 C42 0.929 . S
H22 C51 0.930 . S
H23 C43 0.931 . S
O24 Co0 2.097 . S
O24 C52 1.214 . S
H25 C53 0.929 . S
H26 C54 0.929 . S
H27 C55 0.930 . S
H28 C56 0.929 . S
H29 C58 0.930 . S
H30 C35 0.930 . S
H31 C39 0.930 . S
O32 Co1 2.037 . S
O32 C52 1.234 . S
C33 O7 1.269 . S
C33 O8 1.257 . S
C34 H9 0.930 . S
C34 C37 1.388 . S
C34 C39 1.418 . S
C35 H30 0.930 . S
C35 C38 1.404 . S
C35 C39 1.353 . S
N36 Co1 2.145 . S
N36 C37 1.397 . S
N36 C38 1.334 . S
C37 H18 0.929 . S
C37 C34 1.388 . S
C37 N36 1.397 . S
C38 H19 0.929 . S
C38 C35 1.404 . S
C38 N36 1.334 . S
C39 H31 0.930 . S
C39 C34 1.418 . S
C39 C35 1.353 . S
C40 H10 0.930 . S
C40 N41 1.330 . S
C40 C42 1.446 . S
N41 Co0 2.151 . S
N41 C40 1.330 . S
N41 C45 1.418 . S
C42 H21 0.929 . S
C42 C40 1.446 . S
C42 C43 1.332 . S
C43 H23 0.931 . S
C43 C42 1.332 . S
C43 C44 1.267 . S
C44 H12 0.929 . S
C44 C43 1.267 . S
C44 C45 1.251 . S
C45 H15 0.929 . S
C45 N41 1.418 . S
C45 C44 1.251 . S
C46 H13 0.930 . S
C46 C48 1.406 . S
C46 C51 1.261 1_455 S
C47 H14 0.930 . S
C47 N49 1.325 . S
C47 C50 1.357 1_455 S
C48 H16 0.928 . S
C48 C46 1.406 . S
C48 N49 1.261 . S
N49 Co0 2.214 . S
N49 C47 1.325 . S
N49 C48 1.261 . S
C50 H20 0.931 . S
C50 C47 1.357 1_655 S
C50 C51 1.312 . S
C51 H22 0.930 . S
C51 C46 1.261 1_655 S
C51 C50 1.312 . S
C52 O24 1.214 . S
C52 O32 1.234 . S
C53 H25 0.929 . S
C53 C56 1.391 . S
C53 C58 1.391 . S
C54 H26 0.929 . S
C54 C55 1.390 . S
C54 N57 1.391 . S
C55 H27 0.930 . S
C55 C54 1.390 . S
C55 C56 1.392 . S
C56 H28 0.929 . S
C56 C53 1.391 . S
C56 C55 1.392 . S
N57 Co1 2.257 . S
N57 C54 1.391 . S
N57 C58 1.388 . S
C58 H29 0.930 . S
C58 C53 1.391 . S
C58 N57 1.388 . S
Co59 O61 2.143 . S
Co59 O67 2.074 . S
Co59 O70 2.093 . S
Co59 O83 2.097 . S
Co59 N100 2.151 . S
Co59 N108 2.214 . S
Co60 O61 2.160 . S
Co60 O66 2.058 . S
Co60 O76 2.057 . S
Co60 O91 2.037 . S
Co60 N95 2.145 . S
Co60 N116 2.257 . S
O61 Co59 2.143 . S
O61 Co60 2.160 . S
C62 O63 1.278 . S
C62 O70 1.224 . S
O63 C62 1.278 . S
C64 O65 1.245 . S
C64 O76 1.232 . S
O65 C64 1.245 . S
O66 Co60 2.058 . S
O66 C92 1.269 . S
O67 Co59 2.074 . S
O67 C92 1.257 . S
H68 C93 0.930 . S
H69 C99 0.930 . S
O70 Co59 2.093 . S
O70 C62 1.224 . S
H71 C103 0.929 . S
H72 C105 0.930 . S
H73 C106 0.930 . S
H74 C104 0.929 . S
H75 C107 0.928 . S
O76 Co60 2.057 . S
O76 C64 1.232 . S
H77 C96 0.929 . S
H78 C97 0.929 . S
H79 C109 0.931 . S
H80 C101 0.929 . S
H81 C110 0.930 . S
H82 C102 0.931 . S
O83 Co59 2.097 . S
O83 C111 1.214 . S
H84 C112 0.929 . S
H85 C113 0.929 . S
H86 C114 0.930 . S
H87 C115 0.929 . S
H88 C117 0.930 . S
H89 C94 0.930 . S
H90 C98 0.930 . S
O91 Co60 2.037 . S
O91 C111 1.234 . S
C92 O66 1.269 . S
C92 O67 1.257 . S
C93 H68 0.930 . S
C93 C96 1.388 . S
C93 C98 1.418 . S
C94 H89 0.930 . S
C94 C97 1.404 . S
C94 C98 1.353 . S
N95 Co60 2.145 . S
N95 C96 1.397 . S
N95 C97 1.334 . S
C96 H77 0.929 . S
C96 C93 1.388 . S
C96 N95 1.397 . S
C97 H78 0.929 . S
C97 C94 1.404 . S
C97 N95 1.334 . S
C98 H90 0.930 . S
C98 C93 1.418 . S
C98 C94 1.353 . S
C99 H69 0.930 . S
C99 N100 1.330 . S
C99 C101 1.446 . S
N100 Co59 2.151 . S
N100 C99 1.330 . S
N100 C104 1.418 . S
C101 H80 0.929 . S
C101 C99 1.446 . S
C101 C102 1.332 . S
C102 H82 0.931 . S
C102 C101 1.332 . S
C102 C103 1.267 . S
C103 H71 0.929 . S
C103 C102 1.267 . S
C103 C104 1.251 . S
C104 H74 0.929 . S
C104 N100 1.418 . S
C104 C103 1.251 . S
C105 H72 0.930 . S
C105 C107 1.406 . S
C105 C110 1.261 . S
C106 H73 0.930 . S
C106 N108 1.325 . S
C106 C109 1.357 . S
C107 H75 0.928 . S
C107 C105 1.406 . S
C107 N108 1.261 . S
N108 Co59 2.214 . S
N108 C106 1.325 . S
N108 C107 1.261 . S
C109 H79 0.931 . S
C109 C106 1.357 . S
C109 C110 1.312 . S
C110 H81 0.930 . S
C110 C105 1.261 . S
C110 C109 1.312 . S
C111 O83 1.214 . S
C111 O91 1.234 . S
C112 H84 0.929 . S
C112 C115 1.391 . S
C112 C117 1.391 . S
C113 H85 0.929 . S
C113 C114 1.390 . S
C113 N116 1.391 . S
C114 H86 0.930 . S
C114 C113 1.390 . S
C114 C115 1.392 . S
C115 H87 0.929 . S
C115 C112 1.391 . S
C115 C114 1.392 . S
N116 Co60 2.257 . S
N116 C113 1.391 . S
N116 C117 1.388 . S
C117 H88 0.930 . S
C117 C112 1.391 . S
C117 N116 1.388 . S
Co118 O120 2.143 . S
Co118 O126 2.074 . S
Co118 O129 2.093 . S
Co118 O142 2.097 . S
Co118 N159 2.151 . S
Co118 N167 2.214 . S
Co119 O120 2.160 . S
Co119 O125 2.058 . S
Co119 O135 2.057 . S
Co119 O150 2.037 . S
Co119 N154 2.145 . S
Co119 N175 2.257 . S
O120 Co118 2.143 . S
O120 Co119 2.160 . S
C121 O122 1.278 . S
C121 O129 1.224 . S
O122 C121 1.278 . S
C123 O124 1.245 . S
C123 O135 1.232 . S
O124 C123 1.245 . S
O125 Co119 2.058 . S
O125 C151 1.269 . S
O126 Co118 2.074 . S
O126 C151 1.257 . S
H127 C152 0.930 . S
H128 C158 0.930 . S
O129 Co118 2.093 . S
O129 C121 1.224 . S
H130 C162 0.929 . S
H131 C164 0.930 . S
H132 C165 0.930 . S
H133 C163 0.929 . S
H134 C166 0.928 . S
O135 Co119 2.057 . S
O135 C123 1.232 . S
H136 C155 0.929 . S
H137 C156 0.929 . S
H138 C168 0.931 . S
H139 C160 0.929 . S
H140 C169 0.930 . S
H141 C161 0.931 . S
O142 Co118 2.097 . S
O142 C170 1.214 . S
H143 C171 0.929 . S
H144 C172 0.929 . S
H145 C173 0.930 . S
H146 C174 0.929 . S
H147 C176 0.930 . S
H148 C153 0.930 . S
H149 C157 0.930 . S
O150 Co119 2.037 . S
O150 C170 1.234 . S
C151 O125 1.269 . S
C151 O126 1.257 . S
C152 H127 0.930 . S
C152 C155 1.388 . S
C152 C157 1.418 . S
C153 H148 0.930 . S
C153 C156 1.404 . S
C153 C157 1.353 . S
N154 Co119 2.145 . S
N154 C155 1.397 . S
N154 C156 1.334 . S
C155 H136 0.929 . S
C155 C152 1.388 . S
C155 N154 1.397 . S
C156 H137 0.929 . S
C156 C153 1.404 . S
C156 N154 1.334 . S
C157 H149 0.930 . S
C157 C152 1.418 . S
C157 C153 1.353 . S
C158 H128 0.930 . S
C158 N159 1.330 . S
C158 C160 1.446 . S
N159 Co118 2.151 . S
N159 C158 1.330 . S
N159 C163 1.418 . S
C160 H139 0.929 . S
C160 C158 1.446 . S
C160 C161 1.332 . S
C161 H141 0.931 . S
C161 C160 1.332 . S
C161 C162 1.267 . S
C162 H130 0.929 . S
C162 C161 1.267 . S
C162 C163 1.251 . S
C163 H133 0.929 . S
C163 N159 1.418 . S
C163 C162 1.251 . S
C164 H131 0.930 . S
C164 C166 1.406 . S
C164 C169 1.261 1_655 S
C165 H132 0.930 . S
C165 N167 1.325 . S
C165 C168 1.357 1_655 S
C166 H134 0.928 . S
C166 C164 1.406 . S
C166 N167 1.261 . S
N167 Co118 2.214 . S
N167 C165 1.325 . S
N167 C166 1.261 . S
C168 H138 0.931 . S
C168 C165 1.357 1_455 S
C168 C169 1.312 . S
C169 H140 0.930 . S
C169 C164 1.261 1_455 S
C169 C168 1.312 . S
C170 O142 1.214 . S
C170 O150 1.234 . S
C171 H143 0.929 . S
C171 C174 1.391 . S
C171 C176 1.391 . S
C172 H144 0.929 . S
C172 C173 1.390 . S
C172 N175 1.391 . S
C173 H145 0.930 . S
C173 C172 1.390 . S
C173 C174 1.392 . S
C174 H146 0.929 . S
C174 C171 1.391 . S
C174 C173 1.392 . S
N175 Co119 2.257 . S
N175 C172 1.391 . S
N175 C176 1.388 . S
C176 H147 0.930 . S
C176 C171 1.391 . S
C176 N175 1.388 . S
Co177 O179 2.143 . S
Co177 O185 2.074 . S
Co177 O188 2.093 . S
Co177 O201 2.097 . S
Co177 N218 2.151 . S
Co177 N226 2.214 . S
Co178 O179 2.160 . S
Co178 O184 2.058 . S
Co178 O194 2.057 . S
Co178 O209 2.037 . S
Co178 N213 2.145 . S
Co178 N234 2.257 . S
O179 Co177 2.143 . S
O179 Co178 2.160 . S
C180 O181 1.278 . S
C180 O188 1.224 . S
O181 C180 1.278 . S
C182 O183 1.245 . S
C182 O194 1.232 . S
O183 C182 1.245 . S
O184 Co178 2.058 . S
O184 C210 1.269 . S
O185 Co177 2.074 . S
O185 C210 1.257 . S
H186 C211 0.930 . S
H187 C217 0.930 . S
O188 Co177 2.093 . S
O188 C180 1.224 . S
H189 C221 0.929 . S
H190 C223 0.930 . S
H191 C224 0.930 . S
H192 C222 0.929 . S
H193 C225 0.928 . S
O194 Co178 2.057 . S
O194 C182 1.232 . S
H195 C214 0.929 . S
H196 C215 0.929 . S
H197 C227 0.931 . S
H198 C219 0.929 . S
H199 C228 0.930 . S
H200 C220 0.931 . S
O201 Co177 2.097 . S
O201 C229 1.214 . S
H202 C230 0.929 . S
H203 C231 0.929 . S
H204 C232 0.930 . S
H205 C233 0.929 . S
H206 C235 0.930 . S
H207 C212 0.930 . S
H208 C216 0.930 . S
O209 Co178 2.037 . S
O209 C229 1.234 . S
C210 O184 1.269 . S
C210 O185 1.257 . S
C211 H186 0.930 . S
C211 C214 1.388 . S
C211 C216 1.418 . S
C212 H207 0.930 . S
C212 C215 1.404 . S
C212 C216 1.353 . S
N213 Co178 2.145 . S
N213 C214 1.397 . S
N213 C215 1.334 . S
C214 H195 0.929 . S
C214 C211 1.388 . S
C214 N213 1.397 . S
C215 H196 0.929 . S
C215 C212 1.404 . S
C215 N213 1.334 . S
C216 H208 0.930 . S
C216 C211 1.418 . S
C216 C212 1.353 . S
C217 H187 0.930 . S
C217 N218 1.330 . S
C217 C219 1.446 . S
N218 Co177 2.151 . S
N218 C217 1.330 . S
N218 C222 1.418 . S
C219 H198 0.929 . S
C219 C217 1.446 . S
C219 C220 1.332 . S
C220 H200 0.931 . S
C220 C219 1.332 . S
C220 C221 1.267 . S
C221 H189 0.929 . S
C221 C220 1.267 . S
C221 C222 1.251 . S
C222 H192 0.929 . S
C222 N218 1.418 . S
C222 C221 1.251 . S
C223 H190 0.930 . S
C223 C225 1.406 . S
C223 C228 1.261 . S
C224 H191 0.930 . S
C224 N226 1.325 . S
C224 C227 1.357 . S
C225 H193 0.928 . S
C225 C223 1.406 . S
C225 N226 1.261 . S
N226 Co177 2.214 . S
N226 C224 1.325 . S
N226 C225 1.261 . S
C227 H197 0.931 . S
C227 C224 1.357 . S
C227 C228 1.312 . S
C228 H199 0.930 . S
C228 C223 1.261 . S
C228 C227 1.312 . S
C229 O201 1.214 . S
C229 O209 1.234 . S
C230 H202 0.929 . S
C230 C233 1.391 . S
C230 C235 1.391 . S
C231 H203 0.929 . S
C231 C232 1.390 . S
C231 N234 1.391 . S
C232 H204 0.930 . S
C232 C231 1.390 . S
C232 C233 1.392 . S
C233 H205 0.929 . S
C233 C230 1.391 . S
C233 C232 1.392 . S
N234 Co178 2.257 . S
N234 C231 1.391 . S
N234 C235 1.388 . S
C235 H206 0.930 . S
C235 C230 1.391 . S
C235 N234 1.388 . S
Co236 O238 2.143 . S
Co236 O244 2.074 . S
Co236 O247 2.093 . S
Co236 O260 2.097 . S
Co236 N277 2.151 . S
Co236 N285 2.214 . S
Co237 O238 2.160 . S
Co237 O243 2.058 . S
Co237 O253 2.057 . S
Co237 O268 2.037 . S
Co237 N272 2.145 . S
Co237 N293 2.257 . S
O238 Co236 2.143 . S
O238 Co237 2.160 . S
C239 O240 1.278 . S
C239 O247 1.224 . S
O240 C239 1.278 . S
C241 O242 1.245 . S
C241 O253 1.232 . S
O242 C241 1.245 . S
O243 Co237 2.058 . S
O243 C269 1.269 . S
O244 Co236 2.074 . S
O244 C269 1.257 . S
H245 C270 0.930 . S
H246 C276 0.930 . S
O247 Co236 2.093 . S
O247 C239 1.224 . S
H248 C280 0.929 . S
H249 C282 0.930 . S
H250 C283 0.930 . S
H251 C281 0.929 . S
H252 C284 0.928 . S
O253 Co237 2.057 . S
O253 C241 1.232 . S
H254 C273 0.929 . S
H255 C274 0.929 . S
H256 C286 0.931 . S
H257 C278 0.929 . S
H258 C287 0.930 . S
H259 C279 0.931 . S
O260 Co236 2.097 . S
O260 C288 1.214 . S
H261 C289 0.929 . S
H262 C290 0.929 . S
H263 C291 0.930 . S
H264 C292 0.929 . S
H265 C294 0.930 . S
H266 C271 0.930 . S
H267 C275 0.930 . S
O268 Co237 2.037 . S
O268 C288 1.234 . S
C269 O243 1.269 . S
C269 O244 1.257 . S
C270 H245 0.930 . S
C270 C273 1.388 . S
C270 C275 1.418 . S
C271 H266 0.930 . S
C271 C274 1.404 . S
C271 C275 1.353 . S
N272 Co237 2.145 . S
N272 C273 1.397 . S
N272 C274 1.334 . S
C273 H254 0.929 . S
C273 C270 1.388 . S
C273 N272 1.397 . S
C274 H255 0.929 . S
C274 C271 1.404 . S
C274 N272 1.334 . S
C275 H267 0.930 . S
C275 C270 1.418 . S
C275 C271 1.353 . S
C276 H246 0.930 . S
C276 N277 1.330 . S
C276 C278 1.446 . S
N277 Co236 2.151 . S
N277 C276 1.330 . S
N277 C281 1.418 . S
C278 H257 0.929 . S
C278 C276 1.446 . S
C278 C279 1.332 . S
C279 H259 0.931 . S
C279 C278 1.332 . S
C279 C280 1.267 . S
C280 H248 0.929 . S
C280 C279 1.267 . S
C280 C281 1.251 . S
C281 H251 0.929 . S
C281 N277 1.418 . S
C281 C280 1.251 . S
C282 H249 0.930 . S
C282 C284 1.406 . S
C282 C287 1.261 . S
C283 H250 0.930 . S
C283 N285 1.325 . S
C283 C286 1.357 . S
C284 H252 0.928 . S
C284 C282 1.406 . S
C284 N285 1.261 . S
N285 Co236 2.214 . S
N285 C283 1.325 . S
N285 C284 1.261 . S
C286 H256 0.931 . S
C286 C283 1.357 . S
C286 C287 1.312 . S
C287 H258 0.930 . S
C287 C282 1.261 . S
C287 C286 1.312 . S
C288 O260 1.214 . S
C288 O268 1.234 . S
C289 H261 0.929 . S
C289 C292 1.391 . S
C289 C294 1.391 . S
C290 H262 0.929 . S
C290 C291 1.390 . S
C290 N293 1.391 . S
C291 H263 0.930 . S
C291 C290 1.390 . S
C291 C292 1.392 . S
C292 H264 0.929 . S
C292 C289 1.391 . S
C292 C291 1.392 . S
N293 Co237 2.257 . S
N293 C290 1.391 . S
N293 C294 1.388 . S
C294 H265 0.930 . S
C294 C289 1.391 . S
C294 N293 1.388 . S
Co295 O297 2.143 . S
Co295 O303 2.074 . S
Co295 O306 2.093 . S
Co295 O319 2.097 . S
Co295 N336 2.151 . S
Co295 N344 2.214 . S
Co296 O297 2.160 . S
Co296 O302 2.058 . S
Co296 O312 2.057 . S
Co296 O327 2.037 . S
Co296 N331 2.145 . S
Co296 N352 2.257 . S
O297 Co295 2.143 . S
O297 Co296 2.160 . S
C298 O299 1.278 . S
C298 O306 1.224 . S
O299 C298 1.278 . S
C300 O301 1.245 . S
C300 O312 1.232 . S
O301 C300 1.245 . S
O302 Co296 2.058 . S
O302 C328 1.269 . S
O303 Co295 2.074 . S
O303 C328 1.257 . S
H304 C329 0.930 . S
H305 C335 0.930 . S
O306 Co295 2.093 . S
O306 C298 1.224 . S
H307 C339 0.929 . S
H308 C341 0.930 . S
H309 C342 0.930 . S
H310 C340 0.929 . S
H311 C343 0.928 . S
O312 Co296 2.057 . S
O312 C300 1.232 . S
H313 C332 0.929 . S
H314 C333 0.929 . S
H315 C345 0.931 . S
H316 C337 0.929 . S
H317 C346 0.930 . S
H318 C338 0.931 . S
O319 Co295 2.097 . S
O319 C347 1.214 . S
H320 C348 0.929 . S
H321 C349 0.929 . S
H322 C350 0.930 . S
H323 C351 0.929 . S
H324 C353 0.930 . S
H325 C330 0.930 . S
H326 C334 0.930 . S
O327 Co296 2.037 . S
O327 C347 1.234 . S
C328 O302 1.269 . S
C328 O303 1.257 . S
C329 H304 0.930 . S
C329 C332 1.388 . S
C329 C334 1.418 . S
C330 H325 0.930 . S
C330 C333 1.404 . S
C330 C334 1.353 . S
N331 Co296 2.145 . S
N331 C332 1.397 . S
N331 C333 1.334 . S
C332 H313 0.929 . S
C332 C329 1.388 . S
C332 N331 1.397 . S
C333 H314 0.929 . S
C333 C330 1.404 . S
C333 N331 1.334 . S
C334 H326 0.930 . S
C334 C329 1.418 . S
C334 C330 1.353 . S
C335 H305 0.930 . S
C335 N336 1.330 . S
C335 C337 1.446 . S
N336 Co295 2.151 . S
N336 C335 1.330 . S
N336 C340 1.418 . S
C337 H316 0.929 . S
C337 C335 1.446 . S
C337 C338 1.332 . S
C338 H318 0.931 . S
C338 C337 1.332 . S
C338 C339 1.267 . S
C339 H307 0.929 . S
C339 C338 1.267 . S
C339 C340 1.251 . S
C340 H310 0.929 . S
C340 N336 1.418 . S
C340 C339 1.251 . S
C341 H308 0.930 . S
C341 C343 1.406 . S
C341 C346 1.261 1_545 S
C342 H309 0.930 . S
C342 N344 1.325 . S
C342 C345 1.357 1_545 S
C343 H311 0.928 . S
C343 C341 1.406 . S
C343 N344 1.261 . S
N344 Co295 2.214 . S
N344 C342 1.325 . S
N344 C343 1.261 . S
C345 H315 0.931 . S
C345 C342 1.357 1_565 S
C345 C346 1.312 . S
C346 H317 0.930 . S
C346 C341 1.261 1_565 S
C346 C345 1.312 . S
C347 O319 1.214 . S
C347 O327 1.234 . S
C348 H320 0.929 . S
C348 C351 1.391 . S
C348 C353 1.391 . S
C349 H321 0.929 . S
C349 C350 1.390 . S
C349 N352 1.391 . S
C350 H322 0.930 . S
C350 C349 1.390 . S
C350 C351 1.392 . S
C351 H323 0.929 . S
C351 C348 1.391 . S
C351 C350 1.392 . S
N352 Co296 2.257 . S
N352 C349 1.391 . S
N352 C353 1.388 . S
C353 H324 0.930 . S
C353 C348 1.391 . S
C353 N352 1.388 . S
Co354 O356 2.143 . S
Co354 O362 2.074 . S
Co354 O365 2.093 . S
Co354 O378 2.097 . S
Co354 N395 2.151 . S
Co354 N403 2.214 . S
Co355 O356 2.160 . S
Co355 O361 2.058 . S
Co355 O371 2.057 . S
Co355 O386 2.037 . S
Co355 N390 2.145 . S
Co355 N411 2.257 . S
O356 Co354 2.143 . S
O356 Co355 2.160 . S
C357 O358 1.278 . S
C357 O365 1.224 . S
O358 C357 1.278 . S
C359 O360 1.245 . S
C359 O371 1.232 . S
O360 C359 1.245 . S
O361 Co355 2.058 . S
O361 C387 1.269 . S
O362 Co354 2.074 . S
O362 C387 1.257 . S
H363 C388 0.930 . S
H364 C394 0.930 . S
O365 Co354 2.093 . S
O365 C357 1.224 . S
H366 C398 0.929 . S
H367 C400 0.930 . S
H368 C401 0.930 . S
H369 C399 0.929 . S
H370 C402 0.928 . S
O371 Co355 2.057 . S
O371 C359 1.232 . S
H372 C391 0.929 . S
H373 C392 0.929 . S
H374 C404 0.931 . S
H375 C396 0.929 . S
H376 C405 0.930 . S
H377 C397 0.931 . S
O378 Co354 2.097 . S
O378 C406 1.214 . S
H379 C407 0.929 . S
H380 C408 0.929 . S
H381 C409 0.930 . S
H382 C410 0.929 . S
H383 C412 0.930 . S
H384 C389 0.930 . S
H385 C393 0.930 . S
O386 Co355 2.037 . S
O386 C406 1.234 . S
C387 O361 1.269 . S
C387 O362 1.257 . S
C388 H363 0.930 . S
C388 C391 1.388 . S
C388 C393 1.418 . S
C389 H384 0.930 . S
C389 C392 1.404 . S
C389 C393 1.353 . S
N390 Co355 2.145 . S
N390 C391 1.397 . S
N390 C392 1.334 . S
C391 H372 0.929 . S
C391 C388 1.388 . S
C391 N390 1.397 . S
C392 H373 0.929 . S
C392 C389 1.404 . S
C392 N390 1.334 . S
C393 H385 0.930 . S
C393 C388 1.418 . S
C393 C389 1.353 . S
C394 H364 0.930 . S
C394 N395 1.330 . S
C394 C396 1.446 . S
N395 Co354 2.151 . S
N395 C394 1.330 . S
N395 C399 1.418 . S
C396 H375 0.929 . S
C396 C394 1.446 . S
C396 C397 1.332 . S
C397 H377 0.931 . S
C397 C396 1.332 . S
C397 C398 1.267 . S
C398 H366 0.929 . S
C398 C397 1.267 . S
C398 C399 1.251 . S
C399 H369 0.929 . S
C399 N395 1.418 . S
C399 C398 1.251 . S
C400 H367 0.930 . S
C400 C402 1.406 . S
C400 C405 1.261 . S
C401 H368 0.930 . S
C401 N403 1.325 . S
C401 C404 1.357 . S
C402 H370 0.928 . S
C402 C400 1.406 . S
C402 N403 1.261 . S
N403 Co354 2.214 . S
N403 C401 1.325 . S
N403 C402 1.261 . S
C404 H374 0.931 . S
C404 C401 1.357 . S
C404 C405 1.312 . S
C405 H376 0.930 . S
C405 C400 1.261 . S
C405 C404 1.312 . S
C406 O378 1.214 . S
C406 O386 1.234 . S
C407 H379 0.929 . S
C407 C410 1.391 . S
C407 C412 1.391 . S
C408 H380 0.929 . S
C408 C409 1.390 . S
C408 N411 1.391 . S
C409 H381 0.930 . S
C409 C408 1.390 . S
C409 C410 1.392 . S
C410 H382 0.929 . S
C410 C407 1.391 . S
C410 C409 1.392 . S
N411 Co355 2.257 . S
N411 C408 1.391 . S
N411 C412 1.388 . S
C412 H383 0.930 . S
C412 C407 1.391 . S
C412 N411 1.388 . S
Co413 O415 2.143 . S
Co413 O421 2.074 . S
Co413 O424 2.093 . S
Co413 O437 2.097 . S
Co413 N454 2.151 . S
Co413 N462 2.214 . S
Co414 O415 2.160 . S
Co414 O420 2.058 . S
Co414 O430 2.057 . S
Co414 O445 2.037 . S
Co414 N449 2.145 . S
Co414 N470 2.257 . S
O415 Co413 2.143 . S
O415 Co414 2.160 . S
C416 O417 1.278 . S
C416 O424 1.224 . S
O417 C416 1.278 . S
C418 O419 1.245 . S
C418 O430 1.232 . S
O419 C418 1.245 . S
O420 Co414 2.058 . S
O420 C446 1.269 . S
O421 Co413 2.074 . S
O421 C446 1.257 . S
H422 C447 0.930 . S
H423 C453 0.930 . S
O424 Co413 2.093 . S
O424 C416 1.224 . S
H425 C457 0.929 . S
H426 C459 0.930 . S
H427 C460 0.930 . S
H428 C458 0.929 . S
H429 C461 0.928 . S
O430 Co414 2.057 . S
O430 C418 1.232 . S
H431 C450 0.929 . S
H432 C451 0.929 . S
H433 C463 0.931 . S
H434 C455 0.929 . S
H435 C464 0.930 . S
H436 C456 0.931 . S
O437 Co413 2.097 . S
O437 C465 1.214 . S
H438 C466 0.929 . S
H439 C467 0.929 . S
H440 C468 0.930 . S
H441 C469 0.929 . S
H442 C471 0.930 . S
H443 C448 0.930 . S
H444 C452 0.930 . S
O445 Co414 2.037 . S
O445 C465 1.234 . S
C446 O420 1.269 . S
C446 O421 1.257 . S
C447 H422 0.930 . S
C447 C450 1.388 . S
C447 C452 1.418 . S
C448 H443 0.930 . S
C448 C451 1.404 . S
C448 C452 1.353 . S
N449 Co414 2.145 . S
N449 C450 1.397 . S
N449 C451 1.334 . S
C450 H431 0.929 . S
C450 C447 1.388 . S
C450 N449 1.397 . S
C451 H432 0.929 . S
C451 C448 1.404 . S
C451 N449 1.334 . S
C452 H444 0.930 . S
C452 C447 1.418 . S
C452 C448 1.353 . S
C453 H423 0.930 . S
C453 N454 1.330 . S
C453 C455 1.446 . S
N454 Co413 2.151 . S
N454 C453 1.330 . S
N454 C458 1.418 . S
C455 H434 0.929 . S
C455 C453 1.446 . S
C455 C456 1.332 . S
C456 H436 0.931 . S
C456 C455 1.332 . S
C456 C457 1.267 . S
C457 H425 0.929 . S
C457 C456 1.267 . S
C457 C458 1.251 . S
C458 H428 0.929 . S
C458 N454 1.418 . S
C458 C457 1.251 . S
C459 H426 0.930 . S
C459 C461 1.406 . S
C459 C464 1.261 1_565 S
C460 H427 0.930 . S
C460 N462 1.325 . S
C460 C463 1.357 1_565 S
C461 H429 0.928 . S
C461 C459 1.406 . S
C461 N462 1.261 . S
N462 Co413 2.214 . S
N462 C460 1.325 . S
N462 C461 1.261 . S
C463 H433 0.931 . S
C463 C460 1.357 1_545 S
C463 C464 1.312 . S
C464 H435 0.930 . S
C464 C459 1.261 1_545 S
C464 C463 1.312 . S
C465 O437 1.214 . S
C465 O445 1.234 . S
C466 H438 0.929 . S
C466 C469 1.391 . S
C466 C471 1.391 . S
C467 H439 0.929 . S
C467 C468 1.390 . S
C467 N470 1.391 . S
C468 H440 0.930 . S
C468 C467 1.390 . S
C468 C469 1.392 . S
C469 H441 0.929 . S
C469 C466 1.391 . S
C469 C468 1.392 . S
N470 Co414 2.257 . S
N470 C467 1.391 . S
N470 C471 1.388 . S
C471 H442 0.930 . S
C471 C466 1.391 . S
C471 N470 1.388 . S
H472 C490 0.951 . S
H473 C492 0.951 . S
H474 C494 0.950 . S
H475 C495 0.950 . S
H476 C497 0.950 . S
H477 C500 0.950 . S
H478 C501 0.950 1_545 S
H479 C503 0.950 . S
H480 C504 0.950 . S
H481 C505 0.951 . S
H482 C507 0.951 . S
H483 C509 0.950 . S
H484 C510 0.950 . S
H485 C512 0.950 . S
H486 C515 0.950 . S
H487 C516 0.950 1_565 S
H488 C518 0.950 . S
H489 C519 0.950 . S
C490 H472 0.951 . S
C490 C491 1.366 . S
C490 C492 1.388 . S
C491 C490 1.366 . S
C491 C495 1.385 . S
C492 H473 0.951 . S
C492 C490 1.388 . S
C492 C493 1.366 . S
C493 C492 1.366 . S
C493 C494 1.414 . S
C493 C496 1.499 . S
C494 H474 0.950 . S
C494 C493 1.414 . S
C494 C495 1.374 . S
C495 H475 0.950 . S
C495 C491 1.385 . S
C495 C494 1.374 . S
C496 C493 1.499 . S
C496 C497 1.373 1_455 S
C496 C498 1.389 1_545 S
C497 H476 0.950 . S
C497 C496 1.373 1_655 S
C497 C513 1.377 . S
C498 C496 1.389 1_565 S
C498 C499 1.524 . S
C498 C512 1.377 . S
C499 C498 1.524 . S
C499 C500 1.397 1_565 S
C499 C504 1.363 . S
C500 H477 0.950 . S
C500 C499 1.397 1_545 S
C500 C501 1.334 1_545 S
C501 H478 0.950 1_565 S
C501 C500 1.334 1_565 S
C501 C502 1.287 . S
C502 C501 1.287 . S
C502 C503 1.524 . S
C502 H521 0.913 . S
C503 H479 0.950 . S
C503 C502 1.524 . S
C503 C504 1.415 . S
C504 H480 0.950 . S
C504 C499 1.363 . S
C504 C503 1.415 . S
C505 H481 0.951 . S
C505 C506 1.366 . S
C505 C507 1.388 . S
C506 C505 1.366 . S
C506 C510 1.385 . S
C507 H482 0.951 . S
C507 C505 1.388 . S
C507 C508 1.366 . S
C508 C507 1.366 . S
C508 C509 1.414 . S
C508 C511 1.499 . S
C509 H483 0.950 . S
C509 C508 1.414 . S
C509 C510 1.374 . S
C510 H484 0.950 . S
C510 C506 1.385 . S
C510 C509 1.374 . S
C511 C508 1.499 . S
C511 C512 1.373 1_655 S
C511 C513 1.389 1_565 S
C512 H485 0.950 . S
C512 C498 1.377 . S
C512 C511 1.373 1_455 S
C513 C497 1.377 . S
C513 C511 1.389 1_545 S
C513 C514 1.524 . S
C514 C513 1.524 . S
C514 C515 1.397 1_545 S
C514 C519 1.363 . S
C515 H486 0.950 . S
C515 C514 1.397 1_565 S
C515 C516 1.334 1_565 S
C516 H487 0.950 1_545 S
C516 C515 1.334 1_545 S
C516 C517 1.287 . S
C517 C516 1.287 . S
C517 C518 1.524 . S
C517 H520 0.999 . S
C518 H488 0.950 . S
C518 C517 1.524 . S
C518 C519 1.415 . S
C519 H489 0.950 . S
C519 C514 1.363 . S
C519 C518 1.415 . S
H520 C517 0.999 . S
H521 C502 0.913 . S
H522 C540 0.951 . S
H523 C542 0.951 . S
H524 C544 0.950 . S
H525 C545 0.950 . S
H526 C547 0.950 . S
H527 C550 0.950 . S
H528 C551 0.950 . S
H529 C553 0.950 . S
H530 C554 0.950 . S
H531 C555 0.951 . S
H532 C557 0.951 . S
H533 C559 0.950 . S
H534 C560 0.950 . S
H535 C562 0.950 . S
H536 C565 0.950 . S
H537 C566 0.950 . S
H538 C568 0.950 . S
H539 C569 0.950 . S
C540 H522 0.951 . S
C540 C541 1.366 . S
C540 C542 1.388 . S
C541 C540 1.366 . S
C541 C545 1.385 . S
C542 H523 0.951 . S
C542 C540 1.388 . S
C542 C543 1.366 . S
C543 C542 1.366 . S
C543 C544 1.414 . S
C543 C546 1.499 . S
C544 H524 0.950 . S
C544 C543 1.414 . S
C544 C545 1.374 . S
C545 H525 0.950 . S
C545 C541 1.385 . S
C545 C544 1.374 . S
C546 C543 1.499 . S
C546 C547 1.373 . S
C546 C548 1.389 . S
C547 H526 0.950 . S
C547 C546 1.373 . S
C547 C563 1.377 . S
C548 C546 1.389 . S
C548 C549 1.524 . S
C548 C562 1.377 . S
C549 C548 1.524 . S
C549 C550 1.397 . S
C549 C554 1.363 . S
C550 H527 0.950 . S
C550 C549 1.397 . S
C550 C551 1.334 . S
C551 H528 0.950 . S
C551 C550 1.334 . S
C551 C552 1.287 . S
C552 C551 1.287 . S
C552 C553 1.524 . S
C552 H571 0.913 . S
C553 H529 0.950 . S
C553 C552 1.524 . S
C553 C554 1.415 . S
C554 H530 0.950 . S
C554 C549 1.363 . S
C554 C553 1.415 . S
C555 H531 0.951 . S
C555 C556 1.366 . S
C555 C557 1.388 . S
C556 C555 1.366 . S
C556 C560 1.385 . S
C557 H532 0.951 . S
C557 C555 1.388 . S
C557 C558 1.366 . S
C558 C557 1.366 . S
C558 C559 1.414 . S
C558 C561 1.499 . S
C559 H533 0.950 . S
C559 C558 1.414 . S
C559 C560 1.374 . S
C560 H534 0.950 . S
C560 C556 1.385 . S
C560 C559 1.374 . S
C561 C558 1.499 . S
C561 C562 1.373 . S
C561 C563 1.389 . S
C562 H535 0.950 . S
C562 C548 1.377 . S
C562 C561 1.373 . S
C563 C547 1.377 . S
C563 C561 1.389 . S
C563 C564 1.524 . S
C564 C563 1.524 . S
C564 C565 1.397 . S
C564 C569 1.363 . S
C565 H536 0.950 . S
C565 C564 1.397 . S
C565 C566 1.334 . S
C566 H537 0.950 . S
C566 C565 1.334 . S
C566 C567 1.287 . S
C567 C566 1.287 . S
C567 C568 1.524 . S
C567 H570 0.999 . S
C568 H538 0.950 . S
C568 C567 1.524 . S
C568 C569 1.415 . S
C569 H539 0.950 . S
C569 C564 1.363 . S
C569 C568 1.415 . S
H570 C567 0.999 . S
H571 C552 0.913 . S
H572 C590 0.951 . S
H573 C592 0.951 . S
H574 C594 0.950 . S
H575 C595 0.950 . S
H576 C597 0.950 . S
H577 C600 0.950 . S
H578 C601 0.950 . S
H579 C603 0.950 . S
H580 C604 0.950 . S
H581 C605 0.951 . S
H582 C607 0.951 . S
H583 C609 0.950 . S
H584 C610 0.950 . S
H585 C612 0.950 . S
H586 C615 0.950 . S
H587 C616 0.950 . S
H588 C618 0.950 . S
H589 C619 0.950 . S
C590 H572 0.951 . S
C590 C591 1.366 . S
C590 C592 1.388 . S
C591 C590 1.366 . S
C591 C595 1.385 . S
C592 H573 0.951 . S
C592 C590 1.388 . S
C592 C593 1.366 . S
C593 C592 1.366 . S
C593 C594 1.414 . S
C593 C596 1.499 . S
C594 H574 0.950 . S
C594 C593 1.414 . S
C594 C595 1.374 . S
C595 H575 0.950 . S
C595 C591 1.385 . S
C595 C594 1.374 . S
C596 C593 1.499 . S
C596 C597 1.373 . S
C596 C598 1.389 . S
C597 H576 0.950 . S
C597 C596 1.373 . S
C597 C613 1.377 . S
C598 C596 1.389 . S
C598 C599 1.524 . S
C598 C612 1.377 . S
C599 C598 1.524 . S
C599 C600 1.397 . S
C599 C604 1.363 . S
C600 H577 0.950 . S
C600 C599 1.397 . S
C600 C601 1.334 . S
C601 H578 0.950 . S
C601 C600 1.334 . S
C601 C602 1.287 . S
C602 C601 1.287 . S
C602 C603 1.524 . S
C602 H621 0.913 . S
C603 H579 0.950 . S
C603 C602 1.524 . S
C603 C604 1.415 . S
C604 H580 0.950 . S
C604 C599 1.363 . S
C604 C603 1.415 . S
C605 H581 0.951 . S
C605 C606 1.366 . S
C605 C607 1.388 . S
C606 C605 1.366 . S
C606 C610 1.385 . S
C607 H582 0.951 . S
C607 C605 1.388 . S
C607 C608 1.366 . S
C608 C607 1.366 . S
C608 C609 1.414 . S
C608 C611 1.499 . S
C609 H583 0.950 . S
C609 C608 1.414 . S
C609 C610 1.374 . S
C610 H584 0.950 . S
C610 C606 1.385 . S
C610 C609 1.374 . S
C611 C608 1.499 . S
C611 C612 1.373 . S
C611 C613 1.389 . S
C612 H585 0.950 . S
C612 C598 1.377 . S
C612 C611 1.373 . S
C613 C597 1.377 . S
C613 C611 1.389 . S
C613 C614 1.524 . S
C614 C613 1.524 . S
C614 C615 1.397 . S
C614 C619 1.363 . S
C615 H586 0.950 . S
C615 C614 1.397 . S
C615 C616 1.334 . S
C616 H587 0.950 . S
C616 C615 1.334 . S
C616 C617 1.287 . S
C617 C616 1.287 . S
C617 C618 1.524 . S
C617 H620 0.999 . S
C618 H588 0.950 . S
C618 C617 1.524 . S
C618 C619 1.415 . S
C619 H589 0.950 . S
C619 C614 1.363 . S
C619 C618 1.415 . S
H620 C617 0.999 . S
H621 C602 0.913 . S
H622 C640 0.951 . S
H623 C642 0.951 . S
H624 C644 0.950 . S
H625 C645 0.950 . S
H626 C647 0.950 . S
H627 C650 0.950 . S
H628 C651 0.950 . S
H629 C653 0.950 . S
H630 C654 0.950 . S
H631 C655 0.951 . S
H632 C657 0.951 . S
H633 C659 0.950 . S
H634 C660 0.950 . S
H635 C662 0.950 . S
H636 C665 0.950 . S
H637 C666 0.950 . S
H638 C668 0.950 . S
H639 C669 0.950 . S
C640 H622 0.951 . S
C640 C641 1.366 . S
C640 C642 1.388 . S
C641 C640 1.366 . S
C641 C645 1.385 . S
C642 H623 0.951 . S
C642 C640 1.388 . S
C642 C643 1.366 . S
C643 C642 1.366 . S
C643 C644 1.414 . S
C643 C646 1.499 . S
C644 H624 0.950 . S
C644 C643 1.414 . S
C644 C645 1.374 . S
C645 H625 0.950 . S
C645 C641 1.385 . S
C645 C644 1.374 . S
C646 C643 1.499 . S
C646 C647 1.373 1_545 S
C646 C648 1.389 . S
C647 H626 0.950 . S
C647 C646 1.373 1_565 S
C647 C663 1.377 1_455 S
C648 C646 1.389 . S
C648 C649 1.524 . S
C648 C662 1.377 1_455 S
C649 C648 1.524 . S
C649 C650 1.397 . S
C649 C654 1.363 1_455 S
C650 H627 0.950 . S
C650 C649 1.397 . S
C650 C651 1.334 . S
C651 H628 0.950 . S
C651 C650 1.334 . S
C651 C652 1.287 . S
C652 C651 1.287 . S
C652 C653 1.524 1_455 S
C652 H671 0.913 . S
C653 H629 0.950 . S
C653 C652 1.524 1_655 S
C653 C654 1.415 . S
C654 H630 0.950 . S
C654 C649 1.363 1_655 S
C654 C653 1.415 . S
C655 H631 0.951 . S
C655 C656 1.366 . S
C655 C657 1.388 . S
C656 C655 1.366 . S
C656 C660 1.385 . S
C657 H632 0.951 . S
C657 C655 1.388 . S
C657 C658 1.366 . S
C658 C657 1.366 . S
C658 C659 1.414 . S
C658 C661 1.499 . S
C659 H633 0.950 . S
C659 C658 1.414 . S
C659 C660 1.374 . S
C660 H634 0.950 . S
C660 C656 1.385 . S
C660 C659 1.374 . S
C661 C658 1.499 . S
C661 C662 1.373 1_565 S
C661 C663 1.389 . S
C662 H635 0.950 . S
C662 C648 1.377 1_655 S
C662 C661 1.373 1_545 S
C663 C647 1.377 1_655 S
C663 C661 1.389 . S
C663 C664 1.524 . S
C664 C663 1.524 . S
C664 C665 1.397 . S
C664 C669 1.363 1_655 S
C665 H636 0.950 . S
C665 C664 1.397 . S
C665 C666 1.334 . S
C666 H637 0.950 . S
C666 C665 1.334 . S
C666 C667 1.287 . S
C667 C666 1.287 . S
C667 C668 1.524 1_655 S
C667 H670 0.999 . S
C668 H638 0.950 . S
C668 C667 1.524 1_455 S
C668 C669 1.415 . S
C669 H639 0.950 . S
C669 C664 1.363 1_455 S
C669 C668 1.415 . S
H670 C667 0.999 . S
H671 C652 0.913 . S
H672 C690 0.951 . S
H673 C692 0.951 . S
H674 C694 0.950 . S
H675 C695 0.950 . S
H676 C697 0.950 . S
H677 C700 0.950 . S
H678 C701 0.950 . S
H679 C703 0.950 . S
H680 C704 0.950 . S
H681 C705 0.951 . S
H682 C707 0.951 . S
H683 C709 0.950 . S
H684 C710 0.950 . S
H685 C712 0.950 . S
H686 C715 0.950 . S
H687 C716 0.950 . S
H688 C718 0.950 . S
H689 C719 0.950 . S
C690 H672 0.951 . S
C690 C691 1.366 . S
C690 C692 1.388 . S
C691 C690 1.366 . S
C691 C695 1.385 . S
C692 H673 0.951 . S
C692 C690 1.388 . S
C692 C693 1.366 . S
C693 C692 1.366 . S
C693 C694 1.414 . S
C693 C696 1.499 . S
C694 H674 0.950 . S
C694 C693 1.414 . S
C694 C695 1.374 . S
C695 H675 0.950 . S
C695 C691 1.385 . S
C695 C694 1.374 . S
C696 C693 1.499 . S
C696 C697 1.373 . S
C696 C698 1.389 . S
C697 H676 0.950 . S
C697 C696 1.373 . S
C697 C713 1.377 . S
C698 C696 1.389 . S
C698 C699 1.524 . S
C698 C712 1.377 . S
C699 C698 1.524 . S
C699 C700 1.397 . S
C699 C704 1.363 . S
C700 H677 0.950 . S
C700 C699 1.397 . S
C700 C701 1.334 . S
C701 H678 0.950 . S
C701 C700 1.334 . S
C701 C702 1.287 . S
C702 C701 1.287 . S
C702 C703 1.524 . S
C702 H721 0.913 . S
C703 H679 0.950 . S
C703 C702 1.524 . S
C703 C704 1.415 . S
C704 H680 0.950 . S
C704 C699 1.363 . S
C704 C703 1.415 . S
C705 H681 0.951 . S
C705 C706 1.366 . S
C705 C707 1.388 . S
C706 C705 1.366 . S
C706 C710 1.385 . S
C707 H682 0.951 . S
C707 C705 1.388 . S
C707 C708 1.366 . S
C708 C707 1.366 . S
C708 C709 1.414 . S
C708 C711 1.499 . S
C709 H683 0.950 . S
C709 C708 1.414 . S
C709 C710 1.374 . S
C710 H684 0.950 . S
C710 C706 1.385 . S
C710 C709 1.374 . S
C711 C708 1.499 . S
C711 C712 1.373 . S
C711 C713 1.389 . S
C712 H685 0.950 . S
C712 C698 1.377 . S
C712 C711 1.373 . S
C713 C697 1.377 . S
C713 C711 1.389 . S
C713 C714 1.524 . S
C714 C713 1.524 . S
C714 C715 1.397 . S
C714 C719 1.363 . S
C715 H686 0.950 . S
C715 C714 1.397 . S
C715 C716 1.334 . S
C716 H687 0.950 . S
C716 C715 1.334 . S
C716 C717 1.287 . S
C717 C716 1.287 . S
C717 C718 1.524 . S
C717 H720 0.999 . S
C718 H688 0.950 . S
C718 C717 1.524 . S
C718 C719 1.415 . S
C719 H689 0.950 . S
C719 C714 1.363 . S
C719 C718 1.415 . S
H720 C717 0.999 . S
H721 C702 0.913 . S
H722 C740 0.951 . S
H723 C742 0.951 . S
H724 C744 0.950 . S
H725 C745 0.950 . S
H726 C747 0.950 . S
H727 C750 0.950 . S
H728 C751 0.950 . S
H729 C753 0.950 . S
H730 C754 0.950 . S
H731 C755 0.951 . S
H732 C757 0.951 . S
H733 C759 0.950 . S
H734 C760 0.950 . S
H735 C762 0.950 . S
H736 C765 0.950 . S
H737 C766 0.950 . S
H738 C768 0.950 . S
H739 C769 0.950 . S
C740 H722 0.951 . S
C740 C741 1.366 . S
C740 C742 1.388 . S
C741 C740 1.366 . S
C741 C745 1.385 . S
C742 H723 0.951 . S
C742 C740 1.388 . S
C742 C743 1.366 . S
C743 C742 1.366 . S
C743 C744 1.414 . S
C743 C746 1.499 . S
C744 H724 0.950 . S
C744 C743 1.414 . S
C744 C745 1.374 . S
C745 H725 0.950 . S
C745 C741 1.385 . S
C745 C744 1.374 . S
C746 C743 1.499 . S
C746 C747 1.373 . S
C746 C748 1.389 . S
C747 H726 0.950 . S
C747 C746 1.373 . S
C747 C763 1.377 1_556 S
C748 C746 1.389 . S
C748 C749 1.524 . S
C748 C762 1.377 1_556 S
C749 C748 1.524 . S
C749 C750 1.397 . S
C749 C754 1.363 . S
C750 H727 0.950 . S
C750 C749 1.397 . S
C750 C751 1.334 . S
C751 H728 0.950 . S
C751 C750 1.334 . S
C751 C752 1.287 . S
C752 C751 1.287 . S
C752 C753 1.524 . S
C752 H771 0.913 . S
C753 H729 0.950 . S
C753 C752 1.524 . S
C753 C754 1.415 . S
C754 H730 0.950 . S
C754 C749 1.363 . S
C754 C753 1.415 . S
C755 H731 0.951 . S
C755 C756 1.366 . S
C755 C757 1.388 . S
C756 C755 1.366 . S
C756 C760 1.385 . S
C757 H732 0.951 . S
C757 C755 1.388 . S
C757 C758 1.366 . S
C758 C757 1.366 . S
C758 C759 1.414 . S
C758 C761 1.499 . S
C759 H733 0.950 . S
C759 C758 1.414 . S
C759 C760 1.374 . S
C760 H734 0.950 . S
C760 C756 1.385 . S
C760 C759 1.374 . S
C761 C758 1.499 . S
C761 C762 1.373 . S
C761 C763 1.389 . S
C762 H735 0.950 . S
C762 C748 1.377 1_554 S
C762 C761 1.373 . S
C763 C747 1.377 1_554 S
C763 C761 1.389 . S
C763 C764 1.524 . S
C764 C763 1.524 . S
C764 C765 1.397 . S
C764 C769 1.363 . S
C765 H736 0.950 . S
C765 C764 1.397 . S
C765 C766 1.334 . S
C766 H737 0.950 . S
C766 C765 1.334 . S
C766 C767 1.287 . S
C767 C766 1.287 . S
C767 C768 1.524 . S
C767 H770 0.999 . S
C768 H738 0.950 . S
C768 C767 1.524 . S
C768 C769 1.415 . S
C769 H739 0.950 . S
C769 C764 1.363 . S
C769 C768 1.415 . S
H770 C767 0.999 . S
H771 C752 0.913 . S
H772 C790 0.951 . S
H773 C792 0.951 . S
H774 C794 0.950 . S
H775 C795 0.950 . S
H776 C797 0.950 . S
H777 C800 0.950 . S
H778 C801 0.950 . S
H779 C803 0.950 . S
H780 C804 0.950 . S
H781 C805 0.951 . S
H782 C807 0.951 . S
H783 C809 0.950 . S
H784 C810 0.950 . S
H785 C812 0.950 . S
H786 C815 0.950 . S
H787 C816 0.950 . S
H788 C818 0.950 . S
H789 C819 0.950 . S
C790 H772 0.951 . S
C790 C791 1.366 . S
C790 C792 1.388 . S
C791 C790 1.366 . S
C791 C795 1.385 . S
C792 H773 0.951 . S
C792 C790 1.388 . S
C792 C793 1.366 . S
C793 C792 1.366 . S
C793 C794 1.414 . S
C793 C796 1.499 . S
C794 H774 0.950 . S
C794 C793 1.414 . S
C794 C795 1.374 . S
C795 H775 0.950 . S
C795 C791 1.385 . S
C795 C794 1.374 . S
C796 C793 1.499 . S
C796 C797 1.373 . S
C796 C798 1.389 . S
C797 H776 0.950 . S
C797 C796 1.373 . S
C797 C813 1.377 . S
C798 C796 1.389 . S
C798 C799 1.524 . S
C798 C812 1.377 . S
C799 C798 1.524 . S
C799 C800 1.397 . S
C799 C804 1.363 . S
C800 H777 0.950 . S
C800 C799 1.397 . S
C800 C801 1.334 . S
C801 H778 0.950 . S
C801 C800 1.334 . S
C801 C802 1.287 . S
C802 C801 1.287 . S
C802 C803 1.524 . S
C802 H821 0.913 . S
C803 H779 0.950 . S
C803 C802 1.524 . S
C803 C804 1.415 . S
C804 H780 0.950 . S
C804 C799 1.363 . S
C804 C803 1.415 . S
C805 H781 0.951 . S
C805 C806 1.366 . S
C805 C807 1.388 . S
C806 C805 1.366 . S
C806 C810 1.385 . S
C807 H782 0.951 . S
C807 C805 1.388 . S
C807 C808 1.366 . S
C808 C807 1.366 . S
C808 C809 1.414 . S
C808 C811 1.499 . S
C809 H783 0.950 . S
C809 C808 1.414 . S
C809 C810 1.374 . S
C810 H784 0.950 . S
C810 C806 1.385 . S
C810 C809 1.374 . S
C811 C808 1.499 . S
C811 C812 1.373 . S
C811 C813 1.389 . S
C812 H785 0.950 . S
C812 C798 1.377 . S
C812 C811 1.373 . S
C813 C797 1.377 . S
C813 C811 1.389 . S
C813 C814 1.524 . S
C814 C813 1.524 . S
C814 C815 1.397 . S
C814 C819 1.363 . S
C815 H786 0.950 . S
C815 C814 1.397 . S
C815 C816 1.334 . S
C816 H787 0.950 . S
C816 C815 1.334 . S
C816 C817 1.287 . S
C817 C816 1.287 . S
C817 C818 1.524 . S
C817 H820 0.999 . S
C818 H788 0.950 . S
C818 C817 1.524 . S
C818 C819 1.415 . S
C819 H789 0.950 . S
C819 C814 1.363 . S
C819 C818 1.415 . S
H820 C817 0.999 . S
H821 C802 0.913 . S
H822 C840 0.951 . S
H823 C842 0.951 . S
H824 C844 0.950 . S
H825 C845 0.950 . S
H826 C847 0.950 . S
H827 C850 0.950 . S
H828 C851 0.950 . S
H829 C853 0.950 . S
H830 C854 0.950 . S
H831 C855 0.951 . S
H832 C857 0.951 . S
H833 C859 0.950 . S
H834 C860 0.950 . S
H835 C862 0.950 . S
H836 C865 0.950 . S
H837 C866 0.950 . S
H838 C868 0.950 . S
H839 C869 0.950 . S
C840 H822 0.951 . S
C840 C841 1.366 . S
C840 C842 1.388 . S
C841 C840 1.366 . S
C841 C845 1.385 . S
C842 H823 0.951 . S
C842 C840 1.388 . S
C842 C843 1.366 . S
C843 C842 1.366 . S
C843 C844 1.414 . S
C843 C846 1.499 . S
C844 H824 0.950 . S
C844 C843 1.414 . S
C844 C845 1.374 . S
C845 H825 0.950 . S
C845 C841 1.385 . S
C845 C844 1.374 . S
C846 C843 1.499 . S
C846 C847 1.373 . S
C846 C848 1.389 . S
C847 H826 0.950 . S
C847 C846 1.373 . S
C847 C863 1.377 1_556 S
C848 C846 1.389 . S
C848 C849 1.524 . S
C848 C862 1.377 1_556 S
C849 C848 1.524 . S
C849 C850 1.397 . S
C849 C854 1.363 . S
C850 H827 0.950 . S
C850 C849 1.397 . S
C850 C851 1.334 . S
C851 H828 0.950 . S
C851 C850 1.334 . S
C851 C852 1.287 . S
C852 C851 1.287 . S
C852 C853 1.524 . S
C852 H871 0.913 . S
C853 H829 0.950 . S
C853 C852 1.524 . S
C853 C854 1.415 . S
C854 H830 0.950 . S
C854 C849 1.363 . S
C854 C853 1.415 . S
C855 H831 0.951 . S
C855 C856 1.366 . S
C855 C857 1.388 . S
C856 C855 1.366 . S
C856 C860 1.385 . S
C857 H832 0.951 . S
C857 C855 1.388 . S
C857 C858 1.366 . S
C858 C857 1.366 . S
C858 C859 1.414 . S
C858 C861 1.499 . S
C859 H833 0.950 . S
C859 C858 1.414 . S
C859 C860 1.374 . S
C860 H834 0.950 . S
C860 C856 1.385 . S
C860 C859 1.374 . S
C861 C858 1.499 . S
C861 C862 1.373 . S
C861 C863 1.389 . S
C862 H835 0.950 . S
C862 C848 1.377 1_554 S
C862 C861 1.373 . S
C863 C847 1.377 1_554 S
C863 C861 1.389 . S
C863 C864 1.524 . S
C864 C863 1.524 . S
C864 C865 1.397 . S
C864 C869 1.363 . S
C865 H836 0.950 . S
C865 C864 1.397 . S
C865 C866 1.334 . S
C866 H837 0.950 . S
C866 C865 1.334 . S
C866 C867 1.287 . S
C867 C866 1.287 . S
C867 C868 1.524 . S
C867 H870 0.999 . S
C868 H838 0.950 . S
C868 C867 1.524 . S
C868 C869 1.415 . S
C869 H839 0.950 . S
C869 C864 1.363 . S
C869 C868 1.415 . S
H870 C867 0.999 . S
H871 C852 0.913 . S
H872 C890 0.951 . S
H873 C892 0.951 . S
H874 C894 0.950 . S
H875 C895 0.950 . S
H876 C897 0.950 . S
H877 C900 0.950 . S
H878 C901 0.950 . S
H879 C903 0.950 . S
H880 C904 0.950 . S
H881 C905 0.951 . S
H882 C907 0.951 . S
H883 C909 0.950 . S
H884 C910 0.950 . S
H885 C912 0.950 . S
H886 C915 0.950 . S
H887 C916 0.950 . S
H888 C918 0.950 . S
H889 C919 0.950 . S
C890 H872 0.951 . S
C890 C891 1.366 . S
C890 C892 1.388 . S
C891 C890 1.366 . S
C891 C895 1.385 . S
C892 H873 0.951 . S
C892 C890 1.388 . S
C892 C893 1.366 . S
C893 C892 1.366 . S
C893 C894 1.414 . S
C893 C896 1.499 . S
C894 H874 0.950 . S
C894 C893 1.414 . S
C894 C895 1.374 . S
C895 H875 0.950 . S
C895 C891 1.385 . S
C895 C894 1.374 . S
C896 C893 1.499 . S
C896 C897 1.373 . S
C896 C898 1.389 . S
C897 H876 0.950 . S
C897 C896 1.373 . S
C897 C913 1.377 . S
C898 C896 1.389 . S
C898 C899 1.524 . S
C898 C912 1.377 . S
C899 C898 1.524 . S
C899 C900 1.397 . S
C899 C904 1.363 . S
C900 H877 0.950 . S
C900 C899 1.397 . S
C900 C901 1.334 . S
C901 H878 0.950 . S
C901 C900 1.334 . S
C901 C902 1.287 . S
C902 C901 1.287 . S
C902 C903 1.524 . S
C902 H921 0.913 . S
C903 H879 0.950 . S
C903 C902 1.524 . S
C903 C904 1.415 . S
C904 H880 0.950 . S
C904 C899 1.363 . S
C904 C903 1.415 . S
C905 H881 0.951 . S
C905 C906 1.366 . S
C905 C907 1.388 . S
C906 C905 1.366 . S
C906 C910 1.385 . S
C907 H882 0.951 . S
C907 C905 1.388 . S
C907 C908 1.366 . S
C908 C907 1.366 . S
C908 C909 1.414 . S
C908 C911 1.499 . S
C909 H883 0.950 . S
C909 C908 1.414 . S
C909 C910 1.374 . S
C910 H884 0.950 . S
C910 C906 1.385 . S
C910 C909 1.374 . S
C911 C908 1.499 . S
C911 C912 1.373 . S
C911 C913 1.389 . S
C912 H885 0.950 . S
C912 C898 1.377 . S
C912 C911 1.373 . S
C913 C897 1.377 . S
C913 C911 1.389 . S
C913 C914 1.524 . S
C914 C913 1.524 . S
C914 C915 1.397 . S
C914 C919 1.363 . S
C915 H886 0.950 . S
C915 C914 1.397 . S
C915 C916 1.334 . S
C916 H887 0.950 . S
C916 C915 1.334 . S
C916 C917 1.287 . S
C917 C916 1.287 . S
C917 C918 1.524 . S
C917 H920 0.999 . S
C918 H888 0.950 . S
C918 C917 1.524 . S
C918 C919 1.415 . S
C919 H889 0.950 . S
C919 C914 1.363 . S
C919 C918 1.415 . S
H920 C917 0.999 . S
H921 C902 0.913 . S
H922 C940 0.951 . S
H923 C942 0.951 . S
H924 C944 0.950 . S
H925 C945 0.950 . S
H926 C947 0.950 . S
H927 C950 0.950 . S
H928 C951 0.950 . S
H929 C953 0.950 . S
H930 C954 0.950 . S
H931 C955 0.951 . S
H932 C957 0.951 . S
H933 C959 0.950 . S
H934 C960 0.950 . S
H935 C962 0.950 . S
H936 C965 0.950 . S
H937 C966 0.950 1_545 S
H938 C968 0.950 . S
H939 C969 0.950 . S
C940 H922 0.951 . S
C940 C941 1.366 . S
C940 C942 1.388 . S
C941 C940 1.366 . S
C941 C945 1.385 . S
C942 H923 0.951 . S
C942 C940 1.388 . S
C942 C943 1.366 . S
C943 C942 1.366 . S
C943 C944 1.414 . S
C943 C946 1.499 . S
C944 H924 0.950 . S
C944 C943 1.414 . S
C944 C945 1.374 . S
C945 H925 0.950 . S
C945 C941 1.385 . S
C945 C944 1.374 . S
C946 C943 1.499 . S
C946 C947 1.373 . S
C946 C948 1.389 . S
C947 H926 0.950 . S
C947 C946 1.373 . S
C947 C963 1.377 . S
C948 C946 1.389 . S
C948 C949 1.524 . S
C948 C962 1.377 . S
C949 C948 1.524 . S
C949 C950 1.397 . S
C949 C954 1.363 . S
C950 H927 0.950 . S
C950 C949 1.397 . S
C950 C951 1.334 . S
C951 H928 0.950 . S
C951 C950 1.334 . S
C951 C952 1.287 . S
C952 C951 1.287 . S
C952 C953 1.524 . S
C952 H971 0.913 . S
C953 H929 0.950 . S
C953 C952 1.524 . S
C953 C954 1.415 . S
C954 H930 0.950 . S
C954 C949 1.363 . S
C954 C953 1.415 . S
C955 H931 0.951 . S
C955 C956 1.366 . S
C955 C957 1.388 1_545 S
C956 C955 1.366 . S
C956 C960 1.385 . S
C957 H932 0.951 . S
C957 C955 1.388 1_565 S
C957 C958 1.366 . S
C958 C957 1.366 . S
C958 C959 1.414 1_565 S
C958 C961 1.499 . S
C959 H933 0.950 . S
C959 C958 1.414 1_545 S
C959 C960 1.374 . S
C960 H934 0.950 . S
C960 C956 1.385 . S
C960 C959 1.374 . S
C961 C958 1.499 . S
C961 C962 1.373 . S
C961 C963 1.389 . S
C962 H935 0.950 . S
C962 C948 1.377 . S
C962 C961 1.373 . S
C963 C947 1.377 . S
C963 C961 1.389 . S
C963 C964 1.524 . S
C964 C963 1.524 . S
C964 C965 1.397 . S
C964 C969 1.363 . S
C965 H936 0.950 . S
C965 C964 1.397 . S
C965 C966 1.334 . S
C966 H937 0.950 1_565 S
C966 C965 1.334 . S
C966 C967 1.287 . S
C967 C966 1.287 . S
C967 C968 1.524 . S
C967 H970 0.999 . S
C968 H938 0.950 . S
C968 C967 1.524 . S
C968 C969 1.415 . S
C969 H939 0.950 . S
C969 C964 1.363 . S
C969 C968 1.415 . S
H970 C967 0.999 . S
H971 C952 0.913 . S
H972 C990 0.951 . S
H973 C992 0.951 . S
H974 C994 0.950 . S
H975 C995 0.950 . S
H976 C997 0.950 . S
H977 C1000 0.950 . S
H978 C1001 0.950 . S
H979 C1003 0.950 . S
H980 C1004 0.950 . S
H981 C1005 0.951 . S
H982 C1007 0.951 . S
H983 C1009 0.950 . S
H984 C1010 0.950 . S
H985 C1012 0.950 . S
H986 C1015 0.950 . S
H987 C1016 0.950 . S
H988 C1018 0.950 . S
H989 C1019 0.950 . S
C990 H972 0.951 . S
C990 C991 1.366 . S
C990 C992 1.388 . S
C991 C990 1.366 . S
C991 C995 1.385 . S
C992 H973 0.951 . S
C992 C990 1.388 . S
C992 C993 1.366 . S
C993 C992 1.366 . S
C993 C994 1.414 . S
C993 C996 1.499 . S
C994 H974 0.950 . S
C994 C993 1.414 . S
C994 C995 1.374 . S
C995 H975 0.950 . S
C995 C991 1.385 . S
C995 C994 1.374 . S
C996 C993 1.499 . S
C996 C997 1.373 . S
C996 C998 1.389 . S
C997 H976 0.950 . S
C997 C996 1.373 . S
C997 C1013 1.377 . S
C998 C996 1.389 . S
C998 C999 1.524 . S
C998 C1012 1.377 . S
C999 C998 1.524 . S
C999 C1000 1.397 . S
C999 C1004 1.363 . S
C1000 H977 0.950 . S
C1000 C999 1.397 . S
C1000 C1001 1.334 . S
C1001 H978 0.950 . S
C1001 C1000 1.334 . S
C1001 C1002 1.287 . S
C1002 C1001 1.287 . S
C1002 C1003 1.524 . S
C1002 H1021 0.913 . S
C1003 H979 0.950 . S
C1003 C1002 1.524 . S
C1003 C1004 1.415 . S
C1004 H980 0.950 . S
C1004 C999 1.363 . S
C1004 C1003 1.415 . S
C1005 H981 0.951 . S
C1005 C1006 1.366 . S
C1005 C1007 1.388 . S
C1006 C1005 1.366 . S
C1006 C1010 1.385 . S
C1007 H982 0.951 . S
C1007 C1005 1.388 . S
C1007 C1008 1.366 . S
C1008 C1007 1.366 . S
C1008 C1009 1.414 . S
C1008 C1011 1.499 . S
C1009 H983 0.950 . S
C1009 C1008 1.414 . S
C1009 C1010 1.374 . S
C1010 H984 0.950 . S
C1010 C1006 1.385 . S
C1010 C1009 1.374 . S
C1011 C1008 1.499 . S
C1011 C1012 1.373 . S
C1011 C1013 1.389 . S
C1012 H985 0.950 . S
C1012 C998 1.377 . S
C1012 C1011 1.373 . S
C1013 C997 1.377 . S
C1013 C1011 1.389 . S
C1013 C1014 1.524 . S
C1014 C1013 1.524 . S
C1014 C1015 1.397 . S
C1014 C1019 1.363 . S
C1015 H986 0.950 . S
C1015 C1014 1.397 . S
C1015 C1016 1.334 . S
C1016 H987 0.950 . S
C1016 C1015 1.334 . S
C1016 C1017 1.287 . S
C1017 C1016 1.287 . S
C1017 C1018 1.524 . S
C1017 H1020 0.999 . S
C1018 H988 0.950 . S
C1018 C1017 1.524 . S
C1018 C1019 1.415 . S
C1019 H989 0.950 . S
C1019 C1014 1.363 . S
C1019 C1018 1.415 . S
H1020 C1017 0.999 . S
H1021 C1002 0.913 . S
H1022 C1040 0.951 . S
H1023 C1042 0.951 . S
H1024 C1044 0.950 . S
H1025 C1045 0.950 . S
H1026 C1047 0.950 . S
H1027 C1050 0.950 . S
H1028 C1051 0.950 . S
H1029 C1053 0.950 . S
H1030 C1054 0.950 . S
H1031 C1055 0.951 . S
H1032 C1057 0.951 . S
H1033 C1059 0.950 . S
H1034 C1060 0.950 . S
H1035 C1062 0.950 . S
H1036 C1065 0.950 . S
H1037 C1066 0.950 . S
H1038 C1068 0.950 . S
H1039 C1069 0.950 . S
C1040 H1022 0.951 . S
C1040 C1041 1.366 . S
C1040 C1042 1.388 . S
C1041 C1040 1.366 . S
C1041 C1045 1.385 . S
C1042 H1023 0.951 . S
C1042 C1040 1.388 . S
C1042 C1043 1.366 . S
C1043 C1042 1.366 . S
C1043 C1044 1.414 . S
C1043 C1046 1.499 . S
C1044 H1024 0.950 . S
C1044 C1043 1.414 . S
C1044 C1045 1.374 . S
C1045 H1025 0.950 . S
C1045 C1041 1.385 . S
C1045 C1044 1.374 . S
C1046 C1043 1.499 . S
C1046 C1047 1.373 . S
C1046 C1048 1.389 . S
C1047 H1026 0.950 . S
C1047 C1046 1.373 . S
C1047 C1063 1.377 . S
C1048 C1046 1.389 . S
C1048 C1049 1.524 . S
C1048 C1062 1.377 . S
C1049 C1048 1.524 . S
C1049 C1050 1.397 . S
C1049 C1054 1.363 . S
C1050 H1027 0.950 . S
C1050 C1049 1.397 . S
C1050 C1051 1.334 . S
C1051 H1028 0.950 . S
C1051 C1050 1.334 . S
C1051 C1052 1.287 . S
C1052 C1051 1.287 . S
C1052 C1053 1.524 . S
C1052 H1071 0.913 . S
C1053 H1029 0.950 . S
C1053 C1052 1.524 . S
C1053 C1054 1.415 . S
C1054 H1030 0.950 . S
C1054 C1049 1.363 . S
C1054 C1053 1.415 . S
C1055 H1031 0.951 . S
C1055 C1056 1.366 . S
C1055 C1057 1.388 1_565 S
C1056 C1055 1.366 . S
C1056 C1060 1.385 . S
C1057 H1032 0.951 . S
C1057 C1055 1.388 1_545 S
C1057 C1058 1.366 . S
C1058 C1057 1.366 . S
C1058 C1059 1.414 1_545 S
C1058 C1061 1.499 . S
C1059 H1033 0.950 . S
C1059 C1058 1.414 1_565 S
C1059 C1060 1.374 . S
C1060 H1034 0.950 . S
C1060 C1056 1.385 . S
C1060 C1059 1.374 . S
C1061 C1058 1.499 . S
C1061 C1062 1.373 . S
C1061 C1063 1.389 . S
C1062 H1035 0.950 . S
C1062 C1048 1.377 . S
C1062 C1061 1.373 . S
C1063 C1047 1.377 . S
C1063 C1061 1.389 . S
C1063 C1064 1.524 . S
C1064 C1063 1.524 . S
C1064 C1065 1.397 1_545 S
C1064 C1069 1.363 . S
C1065 H1036 0.950 . S
C1065 C1064 1.397 1_565 S
C1065 C1066 1.334 . S
C1066 H1037 0.950 . S
C1066 C1065 1.334 . S
C1066 C1067 1.287 . S
C1067 C1066 1.287 . S
C1067 C1068 1.524 1_565 S
C1067 H1070 0.999 . S
C1068 H1038 0.950 . S
C1068 C1067 1.524 1_545 S
C1068 C1069 1.415 . S
C1069 H1039 0.950 . S
C1069 C1064 1.363 . S
C1069 C1068 1.415 . S
H1070 C1067 0.999 . S
H1071 C1052 0.913 . S
H1072 C1090 0.951 . S
H1073 C1092 0.951 1_655 S
H1074 C1094 0.947 1_655 S
H1075 C1095 0.950 . S
H1076 C1097 0.950 . S
H1077 C1100 0.950 . S
H1078 C1101 0.950 . S
H1079 C1103 0.950 . S
H1080 C1104 0.950 . S
H1081 C1105 0.951 . S
H1082 C1107 0.951 . S
H1083 C1109 0.950 . S
H1084 C1110 0.950 . S
H1085 C1112 0.950 . S
H1086 C1115 0.950 . S
H1087 C1116 0.950 . S
H1088 C1118 0.950 . S
H1089 C1119 0.950 . S
C1090 H1072 0.951 . S
C1090 C1091 1.366 . S
C1090 C1092 1.388 . S
C1091 C1090 1.366 . S
C1091 C1095 1.385 . S
C1092 H1073 0.951 1_455 S
C1092 C1090 1.388 . S
C1092 C1093 1.366 1_455 S
C1093 C1092 1.366 1_655 S
C1093 C1094 1.414 1_655 S
C1093 C1096 1.499 . S
C1094 H1074 0.947 1_455 S
C1094 C1093 1.414 1_455 S
C1094 C1095 1.374 . S
C1095 H1075 0.950 . S
C1095 C1091 1.385 . S
C1095 C1094 1.374 . S
C1096 C1093 1.499 . S
C1096 C1097 1.373 . S
C1096 C1098 1.389 . S
C1097 H1076 0.950 . S
C1097 C1096 1.373 . S
C1097 C1113 1.377 . S
C1098 C1096 1.389 . S
C1098 C1099 1.524 . S
C1098 C1112 1.377 . S
C1099 C1098 1.524 . S
C1099 C1100 1.397 . S
C1099 C1104 1.363 . S
C1100 H1077 0.950 . S
C1100 C1099 1.397 . S
C1100 C1101 1.334 . S
C1101 H1078 0.950 . S
C1101 C1100 1.334 . S
C1101 C1102 1.287 . S
C1102 C1101 1.287 . S
C1102 C1103 1.524 . S
C1102 H1121 0.913 . S
C1103 H1079 0.950 . S
C1103 C1102 1.524 . S
C1103 C1104 1.415 . S
C1104 H1080 0.950 . S
C1104 C1099 1.363 . S
C1104 C1103 1.415 . S
C1105 H1081 0.951 . S
C1105 C1106 1.366 . S
C1105 C1107 1.388 . S
C1106 C1105 1.366 . S
C1106 C1110 1.385 . S
C1107 H1082 0.951 . S
C1107 C1105 1.388 . S
C1107 C1108 1.366 . S
C1108 C1107 1.366 . S
C1108 C1109 1.414 . S
C1108 C1111 1.499 . S
C1109 H1083 0.950 . S
C1109 C1108 1.414 . S
C1109 C1110 1.374 . S
C1110 H1084 0.950 . S
C1110 C1106 1.385 . S
C1110 C1109 1.374 . S
C1111 C1108 1.499 . S
C1111 C1112 1.373 . S
C1111 C1113 1.389 . S
C1112 H1085 0.950 . S
C1112 C1098 1.377 . S
C1112 C1111 1.373 . S
C1113 C1097 1.377 . S
C1113 C1111 1.389 . S
C1113 C1114 1.524 . S
C1114 C1113 1.524 . S
C1114 C1115 1.397 . S
C1114 C1119 1.363 . S
C1115 H1086 0.950 . S
C1115 C1114 1.397 . S
C1115 C1116 1.334 . S
C1116 H1087 0.950 . S
C1116 C1115 1.334 . S
C1116 C1117 1.287 . S
C1117 C1116 1.287 . S
C1117 C1118 1.524 . S
C1117 H1120 0.999 . S
C1118 H1088 0.950 . S
C1118 C1117 1.524 . S
C1118 C1119 1.415 . S
C1119 H1089 0.950 . S
C1119 C1114 1.363 . S
C1119 C1118 1.415 . S
H1120 C1117 0.999 . S
H1121 C1102 0.913 . S
H1122 C1140 0.951 . S
H1123 C1142 0.951 . S
H1124 C1144 0.950 . S
H1125 C1145 0.950 . S
H1126 C1147 0.950 . S
H1127 C1150 0.950 . S
H1128 C1151 0.950 . S
H1129 C1153 0.950 . S
H1130 C1154 0.950 . S
H1131 C1155 0.951 . S
H1132 C1157 0.951 . S
H1133 C1159 0.950 . S
H1134 C1160 0.950 . S
H1135 C1162 0.950 . S
H1136 C1165 0.950 . S
H1137 C1166 0.950 . S
H1138 C1168 0.950 . S
H1139 C1169 0.950 . S
C1140 H1122 0.951 . S
C1140 C1141 1.366 . S
C1140 C1142 1.388 . S
C1141 C1140 1.366 . S
C1141 C1145 1.385 . S
C1142 H1123 0.951 . S
C1142 C1140 1.388 . S
C1142 C1143 1.366 . S
C1143 C1142 1.366 . S
C1143 C1144 1.414 . S
C1143 C1146 1.499 . S
C1144 H1124 0.950 . S
C1144 C1143 1.414 . S
C1144 C1145 1.374 . S
C1145 H1125 0.950 . S
C1145 C1141 1.385 . S
C1145 C1144 1.374 . S
C1146 C1143 1.499 . S
C1146 C1147 1.373 . S
C1146 C1148 1.389 . S
C1147 H1126 0.950 . S
C1147 C1146 1.373 . S
C1147 C1163 1.377 . S
C1148 C1146 1.389 . S
C1148 C1149 1.524 . S
C1148 C1162 1.377 . S
C1149 C1148 1.524 . S
C1149 C1150 1.397 . S
C1149 C1154 1.363 . S
C1150 H1127 0.950 . S
C1150 C1149 1.397 . S
C1150 C1151 1.334 . S
C1151 H1128 0.950 . S
C1151 C1150 1.334 . S
C1151 C1152 1.287 . S
C1152 C1151 1.287 . S
C1152 C1153 1.524 . S
C1152 H1171 0.913 . S
C1153 H1129 0.950 . S
C1153 C1152 1.524 . S
C1153 C1154 1.415 . S
C1154 H1130 0.950 . S
C1154 C1149 1.363 . S
C1154 C1153 1.415 . S
C1155 H1131 0.951 . S
C1155 C1156 1.366 . S
C1155 C1157 1.388 . S
C1156 C1155 1.366 . S
C1156 C1160 1.385 . S
C1157 H1132 0.951 . S
C1157 C1155 1.388 . S
C1157 C1158 1.366 . S
C1158 C1157 1.366 . S
C1158 C1159 1.414 . S
C1158 C1161 1.499 . S
C1159 H1133 0.950 . S
C1159 C1158 1.414 . S
C1159 C1160 1.374 . S
C1160 H1134 0.950 . S
C1160 C1156 1.385 . S
C1160 C1159 1.374 . S
C1161 C1158 1.499 . S
C1161 C1162 1.373 . S
C1161 C1163 1.389 . S
C1162 H1135 0.950 . S
C1162 C1148 1.377 . S
C1162 C1161 1.373 . S
C1163 C1147 1.377 . S
C1163 C1161 1.389 . S
C1163 C1164 1.524 . S
C1164 C1163 1.524 . S
C1164 C1165 1.397 . S
C1164 C1169 1.363 . S
C1165 H1136 0.950 . S
C1165 C1164 1.397 . S
C1165 C1166 1.334 . S
C1166 H1137 0.950 . S
C1166 C1165 1.334 . S
C1166 C1167 1.287 . S
C1167 C1166 1.287 . S
C1167 C1168 1.524 . S
C1167 H1170 0.999 . S
C1168 H1138 0.950 . S
C1168 C1167 1.524 . S
C1168 C1169 1.415 . S
C1169 H1139 0.950 . S
C1169 C1164 1.363 . S
C1169 C1168 1.415 . S
H1170 C1167 0.999 . S
H1171 C1152 0.913 . S
H1172 C1190 0.951 . S
H1173 C1192 0.951 . S
H1174 C1194 0.950 . S
H1175 C1195 0.950 . S
H1176 C1197 0.950 . S
H1177 C1200 0.950 . S
H1178 C1201 0.950 . S
H1179 C1203 0.950 . S
H1180 C1204 0.950 . S
H1181 C1205 0.951 . S
H1182 C1207 0.951 . S
H1183 C1209 0.950 . S
H1184 C1210 0.950 . S
H1185 C1212 0.950 . S
H1186 C1215 0.950 . S
H1187 C1216 0.950 . S
H1188 C1218 0.950 . S
H1189 C1219 0.950 1_455 S
C1190 H1172 0.951 . S
C1190 C1191 1.366 . S
C1190 C1192 1.388 . S
C1191 C1190 1.366 . S
C1191 C1195 1.385 . S
C1192 H1173 0.951 . S
C1192 C1190 1.388 . S
C1192 C1193 1.366 . S
C1193 C1192 1.366 . S
C1193 C1194 1.414 . S
C1193 C1196 1.499 . S
C1194 H1174 0.950 . S
C1194 C1193 1.414 . S
C1194 C1195 1.374 . S
C1195 H1175 0.950 . S
C1195 C1191 1.385 . S
C1195 C1194 1.374 . S
C1196 C1193 1.499 . S
C1196 C1197 1.373 . S
C1196 C1198 1.389 . S
C1197 H1176 0.950 . S
C1197 C1196 1.373 . S
C1197 C1213 1.377 . S
C1198 C1196 1.389 . S
C1198 C1199 1.524 . S
C1198 C1212 1.377 . S
C1199 C1198 1.524 . S
C1199 C1200 1.397 . S
C1199 C1204 1.363 . S
C1200 H1177 0.950 . S
C1200 C1199 1.397 . S
C1200 C1201 1.334 . S
C1201 H1178 0.950 . S
C1201 C1200 1.334 . S
C1201 C1202 1.287 . S
C1202 C1201 1.287 . S
C1202 C1203 1.524 . S
C1202 H1221 0.913 . S
C1203 H1179 0.950 . S
C1203 C1202 1.524 . S
C1203 C1204 1.415 . S
C1204 H1180 0.950 . S
C1204 C1199 1.363 . S
C1204 C1203 1.415 . S
C1205 H1181 0.951 . S
C1205 C1206 1.366 . S
C1205 C1207 1.388 . S
C1206 C1205 1.366 . S
C1206 C1210 1.385 . S
C1207 H1182 0.951 . S
C1207 C1205 1.388 . S
C1207 C1208 1.366 1_655 S
C1208 C1207 1.366 1_455 S
C1208 C1209 1.414 . S
C1208 C1211 1.499 . S
C1209 H1183 0.950 . S
C1209 C1208 1.414 . S
C1209 C1210 1.374 1_455 S
C1210 H1184 0.950 . S
C1210 C1206 1.385 . S
C1210 C1209 1.374 1_655 S
C1211 C1208 1.499 . S
C1211 C1212 1.373 . S
C1211 C1213 1.389 . S
C1212 H1185 0.950 . S
C1212 C1198 1.377 . S
C1212 C1211 1.373 . S
C1213 C1197 1.377 . S
C1213 C1211 1.389 . S
C1213 C1214 1.524 . S
C1214 C1213 1.524 . S
C1214 C1215 1.397 1_455 S
C1214 C1219 1.363 1_455 S
C1215 H1186 0.950 . S
C1215 C1214 1.397 1_655 S
C1215 C1216 1.334 . S
C1216 H1187 0.950 . S
C1216 C1215 1.334 . S
C1216 C1217 1.287 . S
C1217 C1216 1.287 . S
C1217 C1218 1.524 . S
C1217 H1220 0.999 . S
C1218 H1188 0.950 . S
C1218 C1217 1.524 . S
C1218 C1219 1.415 . S
C1219 H1189 0.950 1_655 S
C1219 C1214 1.363 1_655 S
C1219 C1218 1.415 . S
H1220 C1217 0.999 . S
H1221 C1202 0.913 . S
H1222 C1240 0.951 . S
H1223 C1242 0.951 . S
H1224 C1244 0.950 . S
H1225 C1245 0.950 . S
H1226 C1247 0.950 . S
H1227 C1250 0.950 . S
H1228 C1251 0.950 . S
H1229 C1253 0.950 . S
H1230 C1254 0.950 . S
H1231 C1255 0.951 . S
H1232 C1257 0.951 . S
H1233 C1259 0.950 . S
H1234 C1260 0.950 . S
H1235 C1262 0.950 . S
H1236 C1265 0.950 . S
H1237 C1266 0.950 . S
H1238 C1268 0.950 . S
H1239 C1269 0.950 . S
C1240 H1222 0.951 . S
C1240 C1241 1.366 . S
C1240 C1242 1.388 . S
C1241 C1240 1.366 . S
C1241 C1245 1.385 . S
C1242 H1223 0.951 . S
C1242 C1240 1.388 . S
C1242 C1243 1.366 . S
C1243 C1242 1.366 . S
C1243 C1244 1.414 . S
C1243 C1246 1.499 . S
C1244 H1224 0.950 . S
C1244 C1243 1.414 . S
C1244 C1245 1.374 . S
C1245 H1225 0.950 . S
C1245 C1241 1.385 . S
C1245 C1244 1.374 . S
C1246 C1243 1.499 . S
C1246 C1247 1.373 . S
C1246 C1248 1.389 . S
C1247 H1226 0.950 . S
C1247 C1246 1.373 . S
C1247 C1263 1.377 . S
C1248 C1246 1.389 . S
C1248 C1249 1.524 . S
C1248 C1262 1.377 . S
C1249 C1248 1.524 . S
C1249 C1250 1.397 . S
C1249 C1254 1.363 . S
C1250 H1227 0.950 . S
C1250 C1249 1.397 . S
C1250 C1251 1.334 . S
C1251 H1228 0.950 . S
C1251 C1250 1.334 . S
C1251 C1252 1.287 . S
C1252 C1251 1.287 . S
C1252 C1253 1.524 . S
C1252 H1271 0.913 . S
C1253 H1229 0.950 . S
C1253 C1252 1.524 . S
C1253 C1254 1.415 . S
C1254 H1230 0.950 . S
C1254 C1249 1.363 . S
C1254 C1253 1.415 . S
C1255 H1231 0.951 . S
C1255 C1256 1.366 . S
C1255 C1257 1.388 . S
C1256 C1255 1.366 . S
C1256 C1260 1.385 . S
C1257 H1232 0.951 . S
C1257 C1255 1.388 . S
C1257 C1258 1.366 . S
C1258 C1257 1.366 . S
C1258 C1259 1.414 . S
C1258 C1261 1.499 . S
C1259 H1233 0.950 . S
C1259 C1258 1.414 . S
C1259 C1260 1.374 . S
C1260 H1234 0.950 . S
C1260 C1256 1.385 . S
C1260 C1259 1.374 . S
C1261 C1258 1.499 . S
C1261 C1262 1.373 . S
C1261 C1263 1.389 . S
C1262 H1235 0.950 . S
C1262 C1248 1.377 . S
C1262 C1261 1.373 . S
C1263 C1247 1.377 . S
C1263 C1261 1.389 . S
C1263 C1264 1.524 . S
C1264 C1263 1.524 . S
C1264 C1265 1.397 . S
C1264 C1269 1.363 . S
C1265 H1236 0.950 . S
C1265 C1264 1.397 . S
C1265 C1266 1.334 . S
C1266 H1237 0.950 . S
C1266 C1265 1.334 . S
C1266 C1267 1.287 . S
C1267 C1266 1.287 . S
C1267 C1268 1.524 . S
C1267 H1270 0.999 . S
C1268 H1238 0.950 . S
C1268 C1267 1.524 . S
C1268 C1269 1.415 . S
C1269 H1239 0.950 . S
C1269 C1264 1.363 . S
C1269 C1268 1.415 . S
H1270 C1267 0.999 . S
H1271 C1252 0.913 . S
C491 C52 0.728 . S
C506 C170 0.728 . S
C541 C111 0.728 . S
C556 C229 0.728 . S
C591 C288 0.728 . S
C606 C406 0.728 . S
C641 C347 0.728 . S
C656 C465 0.728 . S
C691 C3 1.365 . S
C706 C298 1.366 . S
C741 C62 1.366 . S
C756 C357 1.365 . S
C791 C416 1.366 . S
C806 C121 1.366 . S
C841 C180 1.365 . S
C856 C239 1.366 . S
C891 C269 1.778 . S
C906 C5 1.802 . S
C941 C64 1.802 . S
C956 C328 1.778 . S
C991 C123 1.802 . S
C1006 C387 1.778 . S
C1041 C182 1.802 . S
C1056 C446 1.778 . S
C1091 C33 1.778 . S
C1106 C241 1.802 . S
C1141 C300 1.802 . S
C1156 C92 1.778 . S
C1191 C359 1.803 . S
C1206 C151 1.778 . S
C1241 C210 1.778 . S
C1256 C418 1.802 . S
