# Generated by pormake.
# Topology wiv, (6)-cn, num edge types: 1
# Building blocks:
#     Node 0, Type 0, BuildingBlock: CUKXOW_clean_sbu_0, # of connection points: 6
#     Node 1, Type 0, BuildingBlock: CUKXOW_clean_sbu_0, # of connection points: 6
#     Node 2, Type 0, BuildingBlock: CUKXOW_clean_sbu_0, # of connection points: 6
#     Node 3, Type 0, BuildingBlock: CUKXOW_clean_sbu_0, # of connection points: 6
#     Node 4, Type 0, BuildingBlock: CUKXOW_clean_sbu_0, # of connection points: 6
#     Node 5, Type 0, BuildingBlock: CUKXOW_clean_sbu_0, # of connection points: 6
#     Node 6, Type 0, BuildingBlock: CUKXOW_clean_sbu_0, # of connection points: 6
#     Node 7, Type 0, BuildingBlock: CUKXOW_clean_sbu_0, # of connection points: 6
#     Node 8, Type 0, BuildingBlock: CUKXOW_clean_sbu_0, # of connection points: 6
#     Node 9, Type 0, BuildingBlock: CUKXOW_clean_sbu_0, # of connection points: 6
#     Node 10, Type 0, BuildingBlock: CUKXOW_clean_sbu_0, # of connection points: 6
#     Node 11, Type 0, BuildingBlock: CUKXOW_clean_sbu_0, # of connection points: 6
#     Node 12, Type 0, BuildingBlock: CUKXOW_clean_sbu_0, # of connection points: 6
#     Node 13, Type 0, BuildingBlock: CUKXOW_clean_sbu_0, # of connection points: 6
#     Node 14, Type 0, BuildingBlock: CUKXOW_clean_sbu_0, # of connection points: 6
#     Node 15, Type 0, BuildingBlock: CUKXOW_clean_sbu_0, # of connection points: 6
#     Edge 16, Type (0, 0), BuildingBlock: CIFDUS_clean_linker_0, # of connection points: 2
#     Edge 17, Type (0, 0), BuildingBlock: CIFDUS_clean_linker_0, # of connection points: 2
#     Edge 18, Type (0, 0), BuildingBlock: CIFDUS_clean_linker_0, # of connection points: 2
#     Edge 19, Type (0, 0), BuildingBlock: CIFDUS_clean_linker_0, # of connection points: 2
#     Edge 20, Type (0, 0), BuildingBlock: CIFDUS_clean_linker_0, # of connection points: 2
#     Edge 21, Type (0, 0), BuildingBlock: CIFDUS_clean_linker_0, # of connection points: 2
#     Edge 22, Type (0, 0), BuildingBlock: CIFDUS_clean_linker_0, # of connection points: 2
#     Edge 23, Type (0, 0), BuildingBlock: CIFDUS_clean_linker_0, # of connection points: 2
#     Edge 24, Type (0, 0), BuildingBlock: CIFDUS_clean_linker_0, # of connection points: 2
#     Edge 25, Type (0, 0), BuildingBlock: CIFDUS_clean_linker_0, # of connection points: 2
#     Edge 26, Type (0, 0), BuildingBlock: CIFDUS_clean_linker_0, # of connection points: 2
#     Edge 27, Type (0, 0), BuildingBlock: CIFDUS_clean_linker_0, # of connection points: 2
#     Edge 28, Type (0, 0), BuildingBlock: CIFDUS_clean_linker_0, # of connection points: 2
#     Edge 29, Type (0, 0), BuildingBlock: CIFDUS_clean_linker_0, # of connection points: 2
#     Edge 30, Type (0, 0), BuildingBlock: CIFDUS_clean_linker_0, # of connection points: 2
#     Edge 31, Type (0, 0), BuildingBlock: CIFDUS_clean_linker_0, # of connection points: 2
#     Edge 32, Type (0, 0), BuildingBlock: CIFDUS_clean_linker_0, # of connection points: 2
#     Edge 33, Type (0, 0), BuildingBlock: CIFDUS_clean_linker_0, # of connection points: 2
#     Edge 34, Type (0, 0), BuildingBlock: CIFDUS_clean_linker_0, # of connection points: 2
#     Edge 35, Type (0, 0), BuildingBlock: CIFDUS_clean_linker_0, # of connection points: 2
#     Edge 36, Type (0, 0), BuildingBlock: CIFDUS_clean_linker_0, # of connection points: 2
#     Edge 37, Type (0, 0), BuildingBlock: CIFDUS_clean_linker_0, # of connection points: 2
#     Edge 38, Type (0, 0), BuildingBlock: CIFDUS_clean_linker_0, # of connection points: 2
#     Edge 39, Type (0, 0), BuildingBlock: CIFDUS_clean_linker_0, # of connection points: 2
#     Edge 40, Type (0, 0), BuildingBlock: CIFDUS_clean_linker_0, # of connection points: 2
#     Edge 41, Type (0, 0), BuildingBlock: CIFDUS_clean_linker_0, # of connection points: 2
#     Edge 42, Type (0, 0), BuildingBlock: CIFDUS_clean_linker_0, # of connection points: 2
#     Edge 43, Type (0, 0), BuildingBlock: CIFDUS_clean_linker_0, # of connection points: 2
#     Edge 44, Type (0, 0), BuildingBlock: CIFDUS_clean_linker_0, # of connection points: 2
#     Edge 45, Type (0, 0), BuildingBlock: CIFDUS_clean_linker_0, # of connection points: 2
#     Edge 46, Type (0, 0), BuildingBlock: CIFDUS_clean_linker_0, # of connection points: 2
#     Edge 47, Type (0, 0), BuildingBlock: CIFDUS_clean_linker_0, # of connection points: 2
#     Edge 48, Type (0, 0), BuildingBlock: CIFDUS_clean_linker_0, # of connection points: 2
#     Edge 49, Type (0, 0), BuildingBlock: CIFDUS_clean_linker_0, # of connection points: 2
#     Edge 50, Type (0, 0), BuildingBlock: CIFDUS_clean_linker_0, # of connection points: 2
#     Edge 51, Type (0, 0), BuildingBlock: CIFDUS_clean_linker_0, # of connection points: 2
#     Edge 52, Type (0, 0), BuildingBlock: CIFDUS_clean_linker_0, # of connection points: 2
#     Edge 53, Type (0, 0), BuildingBlock: CIFDUS_clean_linker_0, # of connection points: 2
#     Edge 54, Type (0, 0), BuildingBlock: CIFDUS_clean_linker_0, # of connection points: 2
#     Edge 55, Type (0, 0), BuildingBlock: CIFDUS_clean_linker_0, # of connection points: 2
#     Edge 56, Type (0, 0), BuildingBlock: CIFDUS_clean_linker_0, # of connection points: 2
#     Edge 57, Type (0, 0), BuildingBlock: CIFDUS_clean_linker_0, # of connection points: 2
#     Edge 58, Type (0, 0), BuildingBlock: CIFDUS_clean_linker_0, # of connection points: 2
#     Edge 59, Type (0, 0), BuildingBlock: CIFDUS_clean_linker_0, # of connection points: 2
#     Edge 60, Type (0, 0), BuildingBlock: CIFDUS_clean_linker_0, # of connection points: 2
#     Edge 61, Type (0, 0), BuildingBlock: CIFDUS_clean_linker_0, # of connection points: 2
#     Edge 62, Type (0, 0), BuildingBlock: CIFDUS_clean_linker_0, # of connection points: 2
#     Edge 63, Type (0, 0), BuildingBlock: CIFDUS_clean_linker_0, # of connection points: 2
# Relax obj value: 0.074
# Max RMSD: 0.160
# Mean RMSD: 0.160
data_MOF--net-wiv--node1-CUKXOW_clean_sbu_0--edge1-CIFDUS_clean_linker_0
_symmetry_space_group_name_H-M    P1
_symmetry_Int_Tables_number       1
_symmetry_cell_setting            triclinic
loop_
_symmetry_equiv_pos_as_xyz
'x, y, z'
_cell_length_a     57.435311
_cell_length_b     57.348184
_cell_length_c     12.628729
_cell_angle_alpha  89.879226
_cell_angle_beta   89.817595
_cell_angle_gamma 89.924461
loop_
_atom_site_label
_atom_site_type_symbol
_atom_site_fract_x
_atom_site_fract_y
_atom_site_fract_z
_atom_type_partial_charge
Tb0 Tb 0.40751 0.11852 0.16266 0.0
C1 C 0.38528 0.16871 0.14899 0.0
Tb2 Tb 0.35298 0.12358 0.14209 0.0
O3 O 0.41189 0.12896 0.99657 0.0
O4 O 0.38143 0.11264 0.04518 0.0
O5 O 0.4034 0.156 0.18 0.0
C6 C 0.31012 0.12538 0.06125 0.0
O7 O 0.36495 0.15953 0.12007 0.0
C8 C 0.3668 0.1267 0.34265 0.0
C9 C 0.37485 0.07425 0.18363 0.0
O10 O 0.32781 0.1375 1.02761 0.0
O11 O 0.31658 0.11255 0.14073 0.0
O12 O 0.34512 0.12785 0.31358 0.0
O13 O 0.37844 0.12433 0.25905 0.0
O14 O 0.35767 0.08591 0.13724 0.0
O15 O 0.39473 0.08428 0.21239 0.0
C16 C 0.45161 0.11032 0.21838 0.0
O17 O 0.44034 0.09938 0.1446 0.0
O18 O 0.43796 0.12576 0.26121 0.0
C19 C 0.39109 0.12284 0.96803 0.0
Tb20 Tb 0.13061 0.64991 0.93996 0.0
C21 C 0.0809 0.62918 0.9061 0.0
Tb22 Tb 0.12625 0.60016 0.91324 0.0
O23 O 0.14765 0.65416 0.78666 0.0
O24 O 0.12227 0.6285 0.80469 0.0
O25 O 0.09291 0.64527 0.95712 0.0
C26 C 0.12319 0.55486 0.86242 0.0
O27 O 0.09175 0.61124 0.86241 0.0
C28 C 0.12036 0.6138 0.1132 0.0
C29 C 0.17709 0.62151 0.93214 0.0
O30 O 0.11287 0.56509 0.94043 0.0
O31 O 0.1358 0.57011 0.8123 0.0
O32 O 0.10938 0.59693 0.06802 0.0
O33 O 0.13513 0.62157 0.04757 0.0
O34 O 0.16456 0.60276 0.90838 0.0
O35 O 0.16715 0.6416 0.95713 0.0
C36 C 0.12942 0.69379 1.01191 0.0
O37 O 0.12185 0.68699 0.9205 0.0
O38 O 0.1376 0.67594 0.06253 0.0
C39 C 0.13715 0.63693 0.74067 0.0
Tb40 Tb 0.58638 0.86777 0.14959 0.0
C41 C 0.6111 0.81896 0.12447 0.0
Tb42 Tb 0.64258 0.86524 0.12629 0.0
O43 O 0.57925 0.86798 0.97644 0.0
O44 O 0.61233 0.86718 1.03371 0.0
O45 O 0.59243 0.83054 0.15853 0.0
C46 C 0.68451 0.86703 1.03568 0.0
O47 O 0.6312 0.82913 0.09653 0.0
C48 C 0.62814 0.86494 0.32646 0.0
C49 C 0.61744 0.91349 0.1753 0.0
O50 O 0.67803 0.85167 0.10576 0.0
O51 O 0.66737 0.88122 1.01673 0.0
O52 O 0.65002 0.86399 0.2988 0.0
O53 O 0.6167 0.86587 0.24199 0.0
O54 O 0.63646 0.903 0.13744 0.0
O55 O 0.59776 0.90228 0.19718 0.0
C56 C 0.54322 0.87254 0.22203 0.0
O57 O 0.55402 0.88729 0.16124 0.0
O58 O 0.55673 0.85483 0.24218 0.0
C59 C 0.60106 0.86724 0.94888 0.0
Tb60 Tb 0.86469 0.35531 0.92797 0.0
C61 C 0.91472 0.37973 0.93393 0.0
Tb62 Tb 0.86851 0.40809 0.91063 0.0
O63 O 0.85313 0.35245 0.76354 0.0
O64 O 0.87534 0.37936 0.80953 0.0
O65 O 0.90231 0.36052 0.95111 0.0
C66 C 0.87064 0.45226 0.84414 0.0
O67 O 0.90523 0.40006 0.90993 0.0
C68 C 0.86932 0.3917 0.10567 0.0
C69 C 0.81879 0.3841 0.89586 0.0
O70 O 0.88213 0.43493 0.80421 0.0
O71 O 0.85759 0.44473 0.92107 0.0
O72 O 0.87924 0.41102 0.07651 0.0
O73 O 0.85772 0.38402 1.02868 0.0
O74 O 0.83189 0.40238 0.87017 0.0
O75 O 0.82781 0.36419 0.93108 0.0
C76 C 0.86555 0.31136 1.00019 0.0
O77 O 0.87119 0.31789 0.90508 0.0
O78 O 0.85935 0.32954 0.05421 0.0
C79 C 0.86344 0.37155 0.73346 0.0
Tb80 Tb 0.40554 0.35522 0.15608 0.0
C81 C 0.37699 0.30806 0.1649 0.0
Tb82 Tb 0.35073 0.35677 0.18155 0.0
O83 O 0.40928 0.34436 0.32272 0.0
O84 O 0.38066 0.36368 0.27547 0.0
O85 O 0.39682 0.31836 0.13656 0.0
C86 C 0.30973 0.35562 0.28049 0.0
O87 O 0.35818 0.3197 0.19589 0.0
C88 C 0.36372 0.35321 0.97932 0.0
C89 C 0.37796 0.40349 0.14813 0.0
O90 O 0.32741 0.34228 0.30158 0.0
O91 O 0.31504 0.36954 0.20256 0.0
O92 O 0.34208 0.35498 1.00973 0.0
O93 O 0.37564 0.3535 0.06254 0.0
O94 O 0.35957 0.39339 0.19263 0.0
O95 O 0.39654 0.39152 0.11484 0.0
C96 C 0.44972 0.35792 0.08913 0.0
O97 O 0.4404 0.3709 0.16212 0.0
O98 O 0.43416 0.34351 0.05403 0.0
C99 C 0.3892 0.35258 0.35241 0.0
Tb100 Tb 0.36074 0.63546 0.89306 0.0
C101 C 0.41052 0.61436 0.92674 0.0
Tb102 Tb 0.36617 0.58098 0.91562 0.0
O103 O 0.35736 0.64358 0.06471 0.0
O104 O 0.36056 0.61012 1.01123 0.0
O105 O 0.39826 0.63146 0.88298 0.0
C106 C 0.37635 0.53713 0.97106 0.0
O107 O 0.40091 0.59429 0.95783 0.0
C108 C 0.36122 0.59737 0.7208 0.0
C109 C 0.31569 0.60313 0.90782 0.0
O110 O 0.38576 0.54855 0.89309 0.0
O111 O 0.36118 0.55044 1.01801 0.0
O112 O 0.35503 0.57658 0.75045 0.0
O113 O 0.37159 0.60694 0.79712 0.0
O114 O 0.32844 0.58472 0.93636 0.0
O115 O 0.32494 0.62332 0.87701 0.0
C116 C 0.35642 0.67719 0.80263 0.0
O117 O 0.3452 0.65856 0.77452 0.0
O118 O 0.36982 0.67237 0.8825 0.0
C119 C 0.35853 0.62187 0.09454 0.0
Tb120 Tb 0.58909 0.63319 0.14182 0.0
C121 C 0.61845 0.67951 0.1414 0.0
Tb122 Tb 0.64371 0.63 0.1605 0.0
O123 O 0.58701 0.64559 0.30576 0.0
O124 O 0.61416 0.62389 0.25918 0.0
O125 O 0.59831 0.66965 0.11441 0.0
C126 C 0.68583 0.62892 0.24845 0.0
O127 O 0.63694 0.66739 0.17339 0.0
C128 C 0.63037 0.63421 0.96016 0.0
C129 C 0.61538 0.58438 0.12343 0.0
O130 O 0.66903 0.6429 0.27552 0.0
O131 O 0.67894 0.61564 0.17139 0.0
O132 O 0.65202 0.63214 0.9889 0.0
O133 O 0.61849 0.63388 0.0438 0.0
O134 O 0.63429 0.59336 0.16761 0.0
O135 O 0.59728 0.59738 0.0944 0.0
C136 C 0.54405 0.62584 0.09937 0.0
O137 O 0.55599 0.61581 0.17359 0.0
O138 O 0.55746 0.64043 0.04875 0.0
C139 C 0.60646 0.63601 0.33494 0.0
Tb140 Tb 0.63106 0.34857 0.91832 0.0
C141 C 0.58523 0.37689 0.96701 0.0
Tb142 Tb 0.63335 0.40491 0.94113 0.0
O143 O 0.63111 0.34118 0.09133 0.0
O144 O 0.6335 0.37441 1.03354 0.0
O145 O 0.5942 0.3575 0.9254 0.0
C146 C 0.63298 0.44849 1.01352 0.0
O147 O 0.59786 0.39569 0.99058 0.0
C148 C 0.63195 0.39036 0.74047 0.0
C149 C 0.67963 0.37578 0.90962 0.0
O150 O 0.61691 0.43904 0.95573 0.0
O151 O 0.64942 0.43332 1.03112 0.0
O152 O 0.63318 0.41216 0.7678 0.0
O153 O 0.63129 0.37904 0.82549 0.0
O154 O 0.67024 0.3956 0.94489 0.0
O155 O 0.66725 0.35715 0.8816 0.0
C156 C 0.63103 0.30607 0.83395 0.0
O157 O 0.64578 0.31364 0.90356 0.0
O158 O 0.61597 0.32238 0.81269 0.0
C159 C 0.63275 0.36303 0.11846 0.0
Tb160 Tb 0.90179 0.63335 0.69042 0.0
C161 C 0.87667 0.68228 0.66642 0.0
Tb162 Tb 0.84541 0.63672 0.66804 0.0
O163 O 0.90878 0.63405 0.5169 0.0
O164 O 0.87576 0.6337 0.57529 0.0
O165 O 0.89539 0.67097 0.70262 0.0
C166 C 0.8033 0.63804 0.58049 0.0
O167 O 0.85753 0.67169 0.63182 0.0
C168 C 0.86002 0.63749 0.86797 0.0
C169 C 0.86875 0.58841 0.71906 0.0
O170 O 0.81104 0.65271 0.65038 0.0
O171 O 0.81925 0.62254 0.56039 0.0
O172 O 0.83816 0.63863 0.84086 0.0
O173 O 0.87143 0.63617 0.78317 0.0
O174 O 0.8501 0.59942 0.68205 0.0
O175 O 0.88929 0.59854 0.7369 0.0
C176 C 0.94563 0.62725 0.75557 0.0
O177 O 0.93359 0.61264 0.69969 0.0
O178 O 0.93284 0.6455 0.77613 0.0
C179 C 0.88698 0.63442 0.48998 0.0
Tb180 Tb 0.63098 0.14893 0.39354 0.0
C181 C 0.58598 0.11832 0.37287 0.0
Tb182 Tb 0.63474 0.09269 0.36951 0.0
O183 O 0.63156 0.1566 0.22063 0.0
O184 O 0.63329 0.12321 0.27719 0.0
O185 O 0.59562 0.13664 0.4199 0.0
C186 C 0.63577 0.04909 0.29565 0.0
O187 O 0.59846 0.101 0.33107 0.0
C188 C 0.63314 0.10715 0.57053 0.0
C189 C 0.68057 0.12428 0.37613 0.0
O190 O 0.61826 0.05891 0.34325 0.0
O191 O 0.65281 0.06393 0.28872 0.0
O192 O 0.63598 0.08548 0.54302 0.0
O193 O 0.63143 0.1183 0.48547 0.0
O194 O 0.67105 0.10369 0.35294 0.0
O195 O 0.66842 0.14329 0.40158 0.0
C196 C 0.62779 0.19088 0.48262 0.0
O197 O 0.64399 0.1756 0.50162 0.0
O198 O 0.61352 0.18263 0.41236 0.0
C199 C 0.63295 0.13477 0.19273 0.0
Tb200 Tb 0.08985 0.37609 0.6759 0.0
C201 C 0.11507 0.32675 0.68175 0.0
Tb202 Tb 0.14448 0.37241 0.65199 0.0
O203 O 0.08705 0.38837 0.51098 0.0
O204 O 0.11448 0.36707 0.55653 0.0
O205 O 0.09706 0.33959 0.71328 0.0
C206 C 0.18537 0.37281 0.55193 0.0
O207 O 0.13452 0.33588 0.64212 0.0
C208 C 0.13158 0.37604 0.85388 0.0
C209 C 0.11987 0.4219 0.67757 0.0
O210 O 0.17984 0.3588 0.62922 0.0
O211 O 0.16799 0.38662 0.53217 0.0
O212 O 0.15319 0.37384 0.82359 0.0
O213 O 0.1196 0.37596 0.77081 0.0
O214 O 0.1381 0.40997 0.64146 0.0
O215 O 0.09992 0.41197 0.70645 0.0
C216 C 0.04566 0.3715 0.7393 0.0
O217 O 0.06064 0.38599 0.7789 0.0
O218 O 0.05545 0.35997 0.66285 0.0
C219 C 0.10663 0.37905 0.48073 0.0
Tb220 Tb 0.36314 0.84856 0.48508 0.0
C221 C 0.41257 0.86932 0.43345 0.0
Tb222 Tb 0.36689 0.89822 0.45381 0.0
O223 O 0.34723 0.84278 0.33057 0.0
O224 O 0.37131 0.86957 0.34756 0.0
O225 O 0.4011 0.85192 0.47839 0.0
C226 C 0.36868 0.94358 0.40156 0.0
O227 O 0.40146 0.88818 0.40034 0.0
C228 C 0.37254 0.88499 0.65487 0.0
C229 C 0.31693 0.87643 0.48209 0.0
O230 O 0.37852 0.93386 0.48208 0.0
O231 O 0.35725 0.92777 0.34992 0.0
O232 O 0.38384 0.90151 0.60803 0.0
O233 O 0.3578 0.87713 0.58987 0.0
O234 O 0.32895 0.8944 0.44475 0.0
O235 O 0.32747 0.85778 0.52078 0.0
C236 C 0.36641 0.80624 0.57319 0.0
O237 O 0.35556 0.81102 0.48589 0.0
O238 O 0.37554 0.82518 0.60989 0.0
C239 C 0.35693 0.86045 0.28376 0.0
Tb240 Tb 0.91033 0.87165 0.68124 0.0
C241 C 0.88882 0.82098 0.69832 0.0
Tb242 Tb 0.8565 0.86579 0.72598 0.0
O243 O 0.92191 0.87317 0.84831 0.0
O244 O 0.88752 0.87025 0.81404 0.0
O245 O 0.90693 0.83394 0.66891 0.0
C246 C 0.81543 0.86216 0.8244 0.0
O247 O 0.86847 0.82972 0.73019 0.0
C248 C 0.86518 0.86512 0.51644 0.0
C249 C 0.87715 0.91525 0.68382 0.0
O250 O 0.8206 0.87722 0.75126 0.0
O251 O 0.83347 0.84909 0.84267 0.0
O252 O 0.84479 0.86247 0.55995 0.0
O253 O 0.87923 0.86744 0.59304 0.0
O254 O 0.86166 0.90333 0.74016 0.0
O255 O 0.8954 0.90515 0.63854 0.0
C256 C 0.95184 0.88007 0.59422 0.0
O257 O 0.93942 0.89492 0.64727 0.0
O258 O 0.94082 0.8603 0.58941 0.0
C259 C 0.90142 0.87168 0.89138 0.0
Tb260 Tb 0.86523 0.1469 0.39013 0.0
C261 C 0.91368 0.12288 0.43792 0.0
Tb262 Tb 0.86855 0.09051 0.41321 0.0
O263 O 0.86434 0.15407 0.56305 0.0
O264 O 0.86596 0.12083 0.50539 0.0
O265 O 0.903 0.14168 0.39881 0.0
C266 C 0.87475 0.04733 0.4853 0.0
O267 O 0.90275 0.10301 0.46045 0.0
C268 C 0.86785 0.10521 0.21255 0.0
C269 C 0.81957 0.11461 0.38789 0.0
O270 O 0.88906 0.05872 0.42464 0.0
O271 O 0.85662 0.06026 0.50566 0.0
O272 O 0.86883 0.08338 0.24012 0.0
O273 O 0.86765 0.11655 0.29738 0.0
O274 O 0.83125 0.09602 0.42237 0.0
O275 O 0.82959 0.13473 0.35944 0.0
C276 C 0.86276 0.1897 0.3079 0.0
O277 O 0.8498 0.18174 0.38433 0.0
O278 O 0.87723 0.17355 0.27765 0.0
C279 C 0.86523 0.13217 0.59024 0.0
Tb280 Tb 0.09177 0.14293 0.63981 0.0
C281 C 0.12269 0.18783 0.66799 0.0
Tb282 Tb 0.148 0.13822 0.66213 0.0
O283 O 0.08459 0.14328 0.81311 0.0
O284 O 0.11758 0.13992 0.75531 0.0
O285 O 0.10269 0.17919 0.63224 0.0
C286 C 0.19094 0.13661 0.74167 0.0
O287 O 0.14082 0.17482 0.6973 0.0
C288 C 0.13345 0.14024 0.4621 0.0
C289 C 0.11765 0.0936 0.61806 0.0
O290 O 0.18366 0.15126 0.67053 0.0
O291 O 0.17404 0.1226 0.76766 0.0
O292 O 0.15518 0.1377 0.48895 0.0
O293 O 0.12218 0.14148 0.54717 0.0
O294 O 0.13746 0.10173 0.65845 0.0
O295 O 0.09954 0.10707 0.59298 0.0
C296 C 0.04821 0.14397 0.56736 0.0
O297 O 0.05743 0.12734 0.62326 0.0
O298 O 0.06363 0.16026 0.55159 0.0
C299 C 0.1063 0.14114 0.84034 0.0
Tb300 Tb 0.13528 0.85843 0.39281 0.0
C301 C 0.08545 0.88133 0.423 0.0
Tb302 Tb 0.13002 0.91462 0.41671 0.0
O303 O 0.13511 0.85104 0.566 0.0
O304 O 0.1311 0.88405 0.50828 0.0
O305 O 0.09771 0.86319 0.3878 0.0
C306 C 0.12885 0.95742 0.49824 0.0
O307 O 0.09488 0.90173 0.45037 0.0
C308 C 0.13302 0.90033 0.21588 0.0
C309 C 0.17998 0.89093 0.40183 0.0
O310 O 0.11356 0.94887 0.43329 0.0
O311 O 0.14466 0.94178 0.51785 0.0
O312 O 0.1298 0.92196 0.2434 0.0
O313 O 0.1345 0.88908 0.30094 0.0
O314 O 0.16749 0.90946 0.43042 0.0
O315 O 0.17088 0.87069 0.37102 0.0
C316 C 0.13775 0.81588 0.30935 0.0
O317 O 0.15052 0.82352 0.38664 0.0
O318 O 0.12358 0.83224 0.27884 0.0
C319 C 0.13239 0.87277 0.59331 0.0
H320 H 0.34659 0.96832 0.2457 0.0
H321 H 0.3986 0.97397 0.49001 0.0
H322 H 0.40584 0.01442 0.44112 0.0
H323 H 0.39732 0.04836 0.33086 0.0
H324 H 0.34407 0.04408 0.09157 0.0
H325 H 0.33743 0.00307 0.13621 0.0
C326 C 0.35945 0.97849 0.28803 0.0
C327 C 0.37204 0.96821 0.37122 0.0
C328 C 0.36337 0.00197 0.26029 0.0
C329 C 0.38862 0.98153 0.42584 0.0
C330 C 0.39284 0.00465 0.39783 0.0
C331 C 0.38439 0.03842 0.28779 0.0
C332 C 0.37135 0.04922 0.20756 0.0
C333 C 0.38034 0.01506 0.31526 0.0
C334 C 0.35438 0.03618 0.15374 0.0
C335 C 0.35056 0.01272 0.17923 0.0
H336 H 0.97441 0.65706 0.86216 0.0
H337 H 0.97247 0.58973 0.71088 0.0
H338 H 0.01382 0.58413 0.74611 0.0
H339 H 0.05085 0.59871 0.81443 0.0
H340 H 0.0534 0.666 0.96636 0.0
H341 H 0.01167 0.67118 0.9368 0.0
C342 C 0.98306 0.64114 0.83763 0.0
C343 C 0.97041 0.62387 0.78372 0.0
C344 C 0.00701 0.63803 0.8579 0.0
C345 C 0.98181 0.60331 0.75235 0.0
C346 C 0.00549 0.60009 0.77234 0.0
C347 C 0.04232 0.61451 0.84143 0.0
C348 C 0.05536 0.63197 0.89211 0.0
C349 C 0.01832 0.6174 0.82414 0.0
C350 C 0.04387 0.65225 0.92697 0.0
C351 C 0.01996 0.65526 0.90999 0.0
H352 H 0.6535 0.94486 0.15067 0.0
H353 H 0.58168 0.93965 0.25203 0.0
H354 H 0.58111 0.98076 0.29429 0.0
H355 H 0.60069 0.01822 0.30712 0.0
H356 H 0.67223 0.02486 0.20803 0.0
H357 H 0.67314 0.98339 0.15996 0.0
C358 C 0.63773 0.95273 0.18178 0.0
C359 C 0.61774 0.93892 0.19827 0.0
C360 C 0.6374 0.97673 0.20647 0.0
C361 C 0.59744 0.94958 0.23853 0.0
C362 C 0.59701 0.97322 0.2629 0.0
C363 C 0.61647 0.01062 0.27457 0.0
C364 C 0.63636 0.02449 0.26128 0.0
C365 C 0.61686 0.98692 0.24778 0.0
C366 C 0.65667 0.01446 0.21889 0.0
C367 C 0.6572 0.99076 0.19165 0.0
H368 H 0.94045 0.34722 0.83222 0.0
H369 H 0.9458 0.41012 1.01642 0.0
H370 H 0.98757 0.41227 0.9785 0.0
H371 H 0.02174 0.39825 0.87916 0.0
H372 H 0.01554 0.33731 0.68196 0.0
H373 H 0.97503 0.33238 0.73789 0.0
C374 C 0.95096 0.36101 0.86614 0.0
C375 C 0.94029 0.37831 0.92807 0.0
C376 C 0.9747 0.36272 0.83979 0.0
C377 C 0.95382 0.39651 0.9693 0.0
C378 C 0.97761 0.39783 0.94699 0.0
C379 C 0.01152 0.38383 0.84908 0.0
C380 C 0.02148 0.36826 0.77616 0.0
C381 C 0.98811 0.38139 0.87998 0.0
C382 C 0.00813 0.34963 0.7376 0.0
C383 C 0.985 0.34676 0.76979 0.0
H384 H 0.4037 0.43073 1.01316 0.0
H385 H 0.34996 0.43405 0.25261 0.0
H386 H 0.34557 0.47574 0.2226 0.0
H387 H 0.35536 0.51104 0.12237 0.0
H388 H 0.4081 0.5081 0.87921 0.0
H389 H 0.41458 0.46669 0.91685 0.0
C390 C 0.39123 0.44063 0.05952 0.0
C391 C 0.37712 0.42918 0.13458 0.0
C392 C 0.38849 0.46472 1.04079 0.0
C393 C 0.36093 0.44231 0.19358 0.0
C394 C 0.35839 0.46621 0.17661 0.0
C395 C 0.36837 0.50135 0.07817 0.0
C396 C 0.38116 0.51252 0.99798 0.0
C397 C 0.37179 0.47754 0.09939 0.0
C398 C 0.39798 0.4998 0.94122 0.0
C399 C 0.40168 0.47613 0.96266 0.0
H400 H 0.51556 0.64726 0.95632 0.0
H401 H 0.51723 0.59249 0.19059 0.0
H402 H 0.47653 0.58322 0.15493 0.0
H403 H 0.44003 0.59116 0.05983 0.0
H404 H 0.43794 0.64684 0.82956 0.0
H405 H 0.47898 0.65512 0.86056 0.0
C406 C 0.50697 0.6333 0.99931 0.0
C407 C 0.51937 0.62061 0.07601 0.0
C408 C 0.48342 0.62817 0.97905 0.0
C409 C 0.50804 0.60258 0.13131 0.0
C410 C 0.48476 0.59722 0.11088 0.0
C411 C 0.4486 0.60497 1.01578 0.0
C412 C 0.43584 0.61829 0.94242 0.0
C413 C 0.47221 0.60994 1.03515 0.0
C414 C 0.44724 0.63631 0.88688 0.0
C415 C 0.47077 0.6411 0.90449 0.0
H416 H 0.64854 0.55171 0.16982 0.0
H417 H 0.58052 0.55974 1.02898 0.0
H418 H 0.57982 0.51838 0.98605 0.0
H419 H 0.59891 0.48017 0.98266 0.0
H420 H 0.66679 0.47168 0.12238 0.0
H421 H 0.66711 0.51298 0.17197 0.0
C422 C 0.6335 0.54443 0.13015 0.0
C423 C 0.61466 0.55895 0.10235 0.0
C424 C 0.6332 0.52055 0.10526 0.0
C425 C 0.59531 0.5491 0.05123 0.0
C426 C 0.59488 0.5254 1.02645 0.0
C427 C 0.61373 0.48735 1.02441 0.0
C428 C 0.63284 0.47301 0.04855 0.0
C429 C 0.61379 0.51102 0.05221 0.0
C430 C 0.6519 0.48245 0.10291 0.0
C431 C 0.65209 0.50605 0.13107 0.0
H432 H 0.4823 0.3905 0.13765 0.0
H433 H 0.47209 0.32709 0.96108 0.0
H434 H 0.51298 0.32739 0.90641 0.0
H435 H 0.55184 0.34527 0.91157 0.0
H436 H 0.56177 0.40934 0.08477 0.0
H437 H 0.52088 0.40925 0.13692 0.0
C438 C 0.48906 0.3768 0.08704 0.0
C439 C 0.47428 0.35874 0.05387 0.0
C440 C 0.51256 0.3772 0.05511 0.0
C441 C 0.48317 0.34117 0.9877 0.0
C442 C 0.50655 0.34132 0.9565 0.0
C443 C 0.5451 0.35925 0.96057 0.0
C444 C 0.56003 0.37721 0.99437 0.0
C445 C 0.52145 0.35919 0.99015 0.0
C446 C 0.5508 0.39527 0.05725 0.0
C447 C 0.52737 0.39522 0.08752 0.0
H448 H 0.84051 0.48791 0.87639 0.0
H449 H 0.9074 0.47125 0.7404 0.0
H450 H 0.91338 0.51221 0.69318 0.0
H451 H 0.89953 0.55296 0.69126 0.0
H452 H 0.83113 0.56884 0.81299 0.0
H453 H 0.82572 0.52813 0.86513 0.0
C454 C 0.85634 0.49332 0.83627 0.0
C455 C 0.87355 0.47677 0.81232 0.0
C456 C 0.85938 0.51676 0.80697 0.0
C457 C 0.8939 0.4838 0.75934 0.0
C458 C 0.89736 0.50719 0.73263 0.0
C459 C 0.8835 0.54742 0.72937 0.0
C460 C 0.8658 0.56375 0.74884 0.0
C461 C 0.88024 0.52385 0.75627 0.0
C462 C 0.84495 0.55645 0.79691 0.0
C463 C 0.84187 0.53322 0.82694 0.0
H464 H 0.5593 0.08954 0.25079 0.0
H465 H 0.55462 0.14651 0.47311 0.0
H466 H 0.51261 0.14815 0.44914 0.0
H467 H 0.47729 0.13487 0.35863 0.0
H468 H 0.48172 0.07872 0.13301 0.0
H469 H 0.52359 0.0752 0.1652 0.0
C470 C 0.54908 0.10217 0.29477 0.0
C471 C 0.56023 0.11794 0.36323 0.0
C472 C 0.52483 0.10325 0.27974 0.0
C473 C 0.54663 0.13424 0.41926 0.0
C474 C 0.52254 0.13521 0.40571 0.0
C475 C 0.48741 0.12175 0.31718 0.0
C476 C 0.47651 0.10713 0.2434 0.0
C477 C 0.51149 0.12004 0.33514 0.0
C478 C 0.48978 0.09021 0.19011 0.0
C479 C 0.51372 0.08822 0.20837 0.0
H480 H 0.14689 0.52862 0.71649 0.0
H481 H 0.09132 0.52577 0.94685 0.0
H482 H 0.08448 0.48492 0.90545 0.0
H483 H 0.09476 0.44968 0.80815 0.0
H484 H 0.15146 0.45115 0.58336 0.0
H485 H 0.15731 0.49271 0.61774 0.0
C486 C 0.13329 0.51899 0.75718 0.0
C487 C 0.11965 0.53014 0.83458 0.0
C488 C 0.12961 0.49525 0.73397 0.0
C489 C 0.10212 0.51753 0.88718 0.0
C490 C 0.09814 0.49416 0.86347 0.0
C491 C 0.10824 0.45912 0.76567 0.0
C492 C 0.12255 0.44735 0.69291 0.0
C493 C 0.11182 0.48282 0.78743 0.0
C494 C 0.14019 0.4598 0.63991 0.0
C495 C 0.14356 0.48357 0.65957 0.0
H496 H 0.5174 0.84238 0.34029 0.0
H497 H 0.51532 0.90974 0.18765 0.0
H498 H 0.47499 0.91502 0.24345 0.0
H499 H 0.44012 0.90016 0.3302 0.0
H500 H 0.44129 0.83256 0.4813 0.0
H501 H 0.48223 0.82777 0.43201 0.0
C502 C 0.50807 0.85821 0.3198 0.0
C503 C 0.51918 0.87561 0.25977 0.0
C504 C 0.48478 0.86109 0.35165 0.0
C505 C 0.50704 0.89607 0.23359 0.0
C506 C 0.484 0.89912 0.26543 0.0
C507 C 0.44929 0.88439 0.35292 0.0
C508 C 0.43761 0.86672 0.40896 0.0
C509 C 0.47267 0.88168 0.3237 0.0
C510 C 0.44985 0.84644 0.43785 0.0
C511 C 0.47325 0.84366 0.40961 0.0
H512 H 0.9066 0.94488 0.58422 0.0
H513 H 0.83955 0.94247 0.73934 0.0
H514 H 0.83301 0.98355 0.69491 0.0
H515 H 0.84585 0.01983 0.60441 0.0
H516 H 0.91279 0.02094 0.44824 0.0
H517 H 0.91979 0.98066 0.50064 0.0
C518 C 0.89054 0.95326 0.60892 0.0
C519 C 0.87354 0.94051 0.66457 0.0
C520 C 0.88682 0.97669 0.58237 0.0
C521 C 0.85295 0.95184 0.69636 0.0
C522 C 0.84916 0.97533 0.67069 0.0
C523 C 0.86197 0.01121 0.58248 0.0
C524 C 0.87873 0.02325 0.52215 0.0
C525 C 0.86588 0.98787 0.61256 0.0
C526 C 0.89958 0.01199 0.49428 0.0
C527 C 0.90362 0.98896 0.52422 0.0
H528 H 0.01749 0.10905 0.58611 0.0
H529 H 0.02429 0.17921 0.46745 0.0
H530 H 0.98311 0.17912 0.41491 0.0
H531 H 0.94481 0.15897 0.40691 0.0
H532 H 0.93971 0.08842 0.52664 0.0
H533 H 0.98044 0.0889 0.57403 0.0
C534 C 0.00999 0.12433 0.54849 0.0
C535 C 0.0238 0.14412 0.531 0.0
C536 C 0.98652 0.12411 0.51877 0.0
C537 C 0.01392 0.16375 0.48173 0.0
C538 C 0.9904 0.1637 0.45191 0.0
C539 C 0.95263 0.14371 0.44313 0.0
C540 C 0.93894 0.12376 0.46321 0.0
C541 C 0.97644 0.14397 0.47065 0.0
C542 C 0.94953 0.10412 0.51002 0.0
C543 C 0.97296 0.1043 0.53747 0.0
H544 H 0.09677 0.99111 0.46282 0.0
H545 H 0.16214 0.97802 0.61904 0.0
H546 H 0.16434 0.01895 0.67257 0.0
H547 H 0.14832 0.05879 0.66896 0.0
H548 H 0.08267 0.07145 0.51261 0.0
H549 H 0.07997 0.03044 0.46577 0.0
C550 C 0.11141 0.99722 0.50917 0.0
C551 C 0.1293 0.98168 0.53664 0.0
C552 C 0.11257 0.02074 0.53936 0.0
C553 C 0.14815 0.98973 0.59692 0.0
C554 C 0.14945 0.01312 0.62731 0.0
C555 C 0.13339 0.0526 0.62489 0.0
C556 C 0.11583 0.06834 0.59406 0.0
C557 C 0.13187 0.02886 0.59797 0.0
C558 C 0.09652 0.05986 0.53755 0.0
C559 C 0.09493 0.03635 0.51041 0.0
H560 H 0.05381 0.91328 0.4933 0.0
H561 H 0.0598 0.84188 0.388 0.0
H562 H 0.01866 0.83556 0.42559 0.0
H563 H 0.98133 0.84959 0.49816 0.0
H564 H 0.97563 0.92076 0.60497 0.0
H565 H 0.01619 0.92787 0.55632 0.0
C566 C 0.04615 0.89636 0.47786 0.0
C567 C 0.06005 0.87808 0.43865 0.0
C568 C 0.02247 0.89274 0.5002 0.0
C569 C 0.04965 0.85631 0.41864 0.0
C570 C 0.02607 0.85262 0.44021 0.0
C571 C 0.98896 0.86669 0.50972 0.0
C572 C 0.97564 0.88458 0.5555 0.0
C573 C 0.01238 0.87061 0.48243 0.0
C574 C 0.98563 0.90668 0.57011 0.0
C575 C 0.00882 0.91076 0.54252 0.0
H576 H 0.3508 0.20127 0.14372 0.0
H577 H 0.42556 0.19411 0.15465 0.0
H578 H 0.42979 0.23647 0.15778 0.0
H579 H 0.41218 0.27578 0.16007 0.0
H580 H 0.33728 0.28236 0.15625 0.0
H581 H 0.3333 0.24019 0.14757 0.0
C582 C 0.36804 0.20894 0.14618 0.0
C583 C 0.3878 0.19446 0.14866 0.0
C584 C 0.37036 0.23332 0.14958 0.0
C585 C 0.41 0.20479 0.15299 0.0
C586 C 0.41246 0.22905 0.15465 0.0
C587 C 0.39501 0.26797 0.157 0.0
C588 C 0.3751 0.28229 0.15903 0.0
C589 C 0.39276 0.24352 0.1534 0.0
C590 C 0.35296 0.27183 0.15568 0.0
C591 C 0.35061 0.24766 0.15038 0.0
H592 H 0.28526 0.63918 0.90602 0.0
H593 H 0.28773 0.56409 0.92291 0.0
H594 H 0.24503 0.56274 0.93041 0.0
H595 H 0.20667 0.58333 0.93185 0.0
H596 H 0.20601 0.65865 0.92087 0.0
H597 H 0.24814 0.65932 0.91118 0.0
C598 C 0.27658 0.62243 0.91084 0.0
C599 C 0.2898 0.60177 0.91305 0.0
C600 C 0.25218 0.62182 0.9164 0.0
C601 C 0.27805 0.58031 0.92094 0.0
C602 C 0.2536 0.57953 0.9251 0.0
C603 C 0.21578 0.59984 0.92732 0.0
C604 C 0.203 0.62089 0.92744 0.0
C605 C 0.24041 0.60022 0.92283 0.0
C606 C 0.21519 0.64214 0.92191 0.0
C607 C 0.2394 0.6426 0.91598 0.0
H608 H 0.64591 0.78642 0.12947 0.0
H609 H 0.57129 0.7936 0.10623 0.0
H610 H 0.56693 0.75134 0.10611 0.0
H611 H 0.58406 0.71215 0.11855 0.0
H612 H 0.65859 0.70494 0.14871 0.0
H613 H 0.6631 0.74712 0.14026 0.0
C614 C 0.62873 0.77873 0.12341 0.0
C615 C 0.609 0.79322 0.11802 0.0
C616 C 0.62625 0.75429 0.12533 0.0
C617 C 0.58682 0.78291 0.11122 0.0
C618 C 0.58427 0.75869 0.11105 0.0
C619 C 0.6013 0.71978 0.12287 0.0
C620 C 0.62089 0.70527 0.1346 0.0
C621 C 0.60383 0.74418 0.11917 0.0
C622 C 0.6431 0.71558 0.14045 0.0
C623 C 0.64576 0.73978 0.13533 0.0
H624 H 0.78645 0.34943 0.89713 0.0
H625 H 0.79327 0.42431 0.88314 0.0
H626 H 0.75096 0.42851 0.88627 0.0
H627 H 0.71181 0.41092 0.8982 0.0
H628 H 0.70538 0.33593 0.90563 0.0
H629 H 0.74756 0.33188 0.89988 0.0
C630 C 0.77871 0.36668 0.89441 0.0
C631 C 0.79308 0.38649 0.89044 0.0
C632 C 0.75433 0.369 0.89543 0.0
C633 C 0.78268 0.4087 0.8859 0.0
C634 C 0.75844 0.41115 0.88814 0.0
C635 C 0.71965 0.39371 0.8985 0.0
C636 C 0.70537 0.3738 0.9028 0.0
C637 C 0.74406 0.39143 0.89383 0.0
C638 C 0.71586 0.3516 0.90197 0.0
C639 C 0.74005 0.34923 0.89895 0.0
H640 H 0.91317 0.71316 0.68186 0.0
H641 H 0.8382 0.70961 0.65774 0.0
H642 H 0.83556 0.75171 0.66694 0.0
H643 H 0.85398 0.78963 0.68297 0.0
H644 H 0.92879 0.79464 0.70004 0.0
H645 H 0.93199 0.75206 0.69232 0.0
C646 C 0.8963 0.72164 0.67848 0.0
C647 C 0.87597 0.70811 0.66891 0.0
C648 C 0.8948 0.74617 0.68275 0.0
C649 C 0.85422 0.71944 0.66414 0.0
C650 C 0.85261 0.74361 0.66986 0.0
C651 C 0.87102 0.78146 0.68555 0.0
C652 C 0.89108 0.79529 0.693 0.0
C653 C 0.87273 0.75712 0.67945 0.0
C654 C 0.91303 0.78438 0.69435 0.0
C655 C 0.91487 0.76002 0.6901 0.0
H656 H 0.78767 0.14981 0.37553 0.0
H657 H 0.79363 0.07477 0.38505 0.0
H658 H 0.75138 0.07113 0.37894 0.0
H659 H 0.71261 0.08913 0.37506 0.0
H660 H 0.70654 0.16419 0.37189 0.0
H661 H 0.74883 0.16783 0.37125 0.0
C662 C 0.77974 0.13265 0.37558 0.0
C663 C 0.79387 0.11262 0.38076 0.0
C664 C 0.75534 0.13064 0.37356 0.0
C665 C 0.78324 0.09053 0.3817 0.0
C666 C 0.75903 0.08839 0.37804 0.0
C667 C 0.7205 0.1063 0.37366 0.0
C668 C 0.70632 0.12632 0.37354 0.0
C669 C 0.7449 0.10832 0.37462 0.0
C670 C 0.71695 0.14843 0.37256 0.0
C671 C 0.74118 0.15056 0.37199 0.0
H672 H 0.14976 0.2944 0.67738 0.0
H673 H 0.07501 0.30147 0.69573 0.0
H674 H 0.07075 0.25918 0.69351 0.0
H675 H 0.08814 0.22014 0.68161 0.0
H676 H 0.16293 0.21298 0.67012 0.0
H677 H 0.16724 0.25529 0.67467 0.0
C678 C 0.13255 0.28668 0.68107 0.0
C679 C 0.11276 0.30109 0.68611 0.0
C680 C 0.1302 0.26231 0.68081 0.0
C681 C 0.09057 0.29081 0.69211 0.0
C682 C 0.08809 0.2666 0.69046 0.0
C683 C 0.10538 0.22784 0.68008 0.0
C684 C 0.12515 0.21343 0.67483 0.0
C685 C 0.10776 0.25219 0.684 0.0
C686 C 0.14739 0.22367 0.67439 0.0
C687 C 0.14989 0.24788 0.67668 0.0
H688 H 0.28756 0.91275 0.43622 0.0
H689 H 0.28848 0.83921 0.51138 0.0
H690 H 0.24659 0.83719 0.48835 0.0
H691 H 0.20966 0.85586 0.44544 0.0
H692 H 0.20744 0.92964 0.37985 0.0
H693 H 0.24982 0.93198 0.39987 0.0
C694 C 0.27856 0.89634 0.44813 0.0
C695 C 0.29122 0.8762 0.47554 0.0
C696 C 0.25424 0.89526 0.43561 0.0
C697 C 0.27925 0.85507 0.49096 0.0
C698 C 0.25524 0.85381 0.47723 0.0
C699 C 0.21847 0.87242 0.43455 0.0
C700 C 0.20555 0.89247 0.40989 0.0
C701 C 0.2426 0.87373 0.44893 0.0
C702 C 0.2171 0.91393 0.39846 0.0
C703 C 0.24129 0.91527 0.41004 0.0
H704 H 0.2064 0.11142 0.90979 0.0
H705 H 0.22805 0.16247 0.67859 0.0
H706 H 0.2669 0.16368 0.75696 0.0
H707 H 0.29478 0.15029 0.89197 0.0
H708 H 0.27292 0.09972 0.12495 0.0
H709 H 0.23417 0.0983 0.04577 0.0
C710 C 0.21968 0.12272 0.87649 0.0
C711 C 0.21446 0.13675 0.78841 0.0
C712 C 0.24192 0.12349 0.92262 0.0
C713 C 0.23172 0.15146 0.74637 0.0
C714 C 0.25392 0.15219 0.79118 0.0
C715 C 0.28148 0.13904 0.9254 0.0
C716 C 0.28664 0.12517 1.0141 0.0
C717 C 0.25922 0.13832 0.87948 0.0
C718 C 0.26932 0.1106 0.05668 0.0
C719 C 0.24717 0.10974 1.01138 0.0
H720 H 0.15045 0.7101 0.18773 0.0
H721 H 0.10724 0.73132 0.92605 0.0
H722 H 0.10589 0.77119 0.99514 0.0
H723 H 0.1168 0.79992 0.13143 0.0
H724 H 0.16121 0.77874 0.38915 0.0
H725 H 0.16238 0.73895 0.3202 0.0
C726 C 0.14075 0.72348 0.14594 0.0
C727 C 0.12888 0.71787 0.05239 0.0
C728 C 0.14029 0.74634 0.18544 0.0
C729 C 0.1165 0.73532 0.99837 0.0
C730 C 0.11571 0.75807 1.03785 0.0
C731 C 0.12672 0.78655 0.17224 0.0
C732 C 0.13881 0.79212 0.26536 0.0
C733 C 0.1275 0.76377 0.13149 0.0
C734 C 0.15177 0.77479 0.31727 0.0
C735 C 0.15241 0.75206 0.27802 0.0
H736 H 0.72283 0.84062 0.07801 0.0
H737 H 0.69814 0.89714 0.88216 0.0
H738 H 0.73653 0.9007 0.8002 0.0
H739 H 0.7771 0.8879 0.78423 0.0
H740 H 0.80232 0.83157 0.97939 0.0
H741 H 0.76382 0.82779 0.06199 0.0
C742 C 0.72591 0.85366 1.01726 0.0
C743 C 0.70774 0.86861 0.98605 0.0
C744 C 0.74811 0.85567 0.97066 0.0
C745 C 0.7119 0.88547 0.90749 0.0
C746 C 0.73383 0.88752 0.86063 0.0
C747 C 0.77416 0.87482 0.84497 0.0
C748 C 0.79243 0.86002 0.8758 0.0
C749 C 0.75206 0.87276 0.89169 0.0
C750 C 0.78845 0.84314 0.95445 0.0
C751 C 0.76646 0.84097 1.00156 0.0
H752 H 0.84802 0.29541 0.18573 0.0
H753 H 0.88559 0.27347 0.90709 0.0
H754 H 0.88851 0.23381 0.97829 0.0
H755 H 0.88058 0.2054 0.12128 0.0
H756 H 0.84123 0.22713 0.39523 0.0
H757 H 0.83878 0.26679 0.32476 0.0
C758 C 0.85681 0.28191 0.14065 0.0
C759 C 0.86667 0.2873 0.04167 0.0
C760 C 0.85813 0.25913 0.18145 0.0
C761 C 0.87787 0.26968 0.98356 0.0
C762 C 0.87957 0.24703 1.02431 0.0
C763 C 0.87152 0.21888 0.16536 0.0
C764 C 0.86124 0.21348 0.26352 0.0
C765 C 0.86983 0.24157 0.12338 0.0
C766 C 0.84929 0.23094 0.3195 0.0
C767 C 0.8479 0.25361 0.27932 0.0
H768 H 0.27244 0.3839 0.25035 0.0
H769 H 0.29767 0.32741 0.44466 0.0
H770 H 0.26143 0.32772 0.54681 0.0
H771 H 0.22254 0.34423 0.58148 0.0
H772 H 0.19742 0.40081 0.38732 0.0
H773 H 0.23358 0.40037 0.28484 0.0
C774 C 0.26993 0.37164 0.31487 0.0
C775 C 0.28759 0.35562 0.33987 0.0
C776 C 0.2491 0.372 0.37353 0.0
C777 C 0.28423 0.33986 0.42384 0.0
C778 C 0.26355 0.34005 0.48237 0.0
C779 C 0.22506 0.35647 0.51686 0.0
C780 C 0.20745 0.37257 0.49207 0.0
C781 C 0.24588 0.35608 0.4581 0.0
C782 C 0.21081 0.3883 0.40802 0.0
C783 C 0.23145 0.38804 0.34929 0.0
H784 H 0.37909 0.71664 0.85633 0.0
H785 H 0.33155 0.68838 0.62641 0.0
H786 H 0.33075 0.72582 0.53291 0.0
H787 H 0.34373 0.76668 0.51682 0.0
H788 H 0.39092 0.79478 0.74877 0.0
H789 H 0.39184 0.75731 0.84099 0.0
C790 C 0.36851 0.71873 0.78592 0.0
C791 C 0.35535 0.69991 0.74828 0.0
C792 C 0.36818 0.74023 0.73279 0.0
C793 C 0.34175 0.70274 0.65696 0.0
C794 C 0.34134 0.72409 0.6034 0.0
C795 C 0.35426 0.7645 0.58732 0.0
C796 C 0.3673 0.78334 0.62595 0.0
C797 C 0.35453 0.74296 0.64049 0.0
C798 C 0.38078 0.78045 0.7176 0.0
C799 C 0.38128 0.75907 0.77043 0.0
H800 H 0.70165 0.65566 0.40951 0.0
H801 H 0.72159 0.59959 0.20088 0.0
H802 H 0.75973 0.59728 0.28594 0.0
H803 H 0.78741 0.61121 0.41998 0.0
H804 H 0.76769 0.66762 0.62707 0.0
H805 H 0.72947 0.66982 0.54255 0.0
C806 C 0.71439 0.64298 0.3827 0.0
C807 C 0.7089 0.62783 0.29917 0.0
C808 C 0.73628 0.6418 0.43184 0.0
C809 C 0.72548 0.61145 0.26507 0.0
C810 C 0.74727 0.61011 0.31369 0.0
C811 C 0.77469 0.62393 0.44662 0.0
C812 C 0.78024 0.63917 0.52971 0.0
C813 C 0.75284 0.62517 0.39723 0.0
C814 C 0.76374 0.65568 0.56323 0.0
C815 C 0.74191 0.65695 0.51496 0.0
H816 H 0.65339 0.20681 0.64624 0.0
H817 H 0.5963 0.22527 0.44152 0.0
H818 H 0.59176 0.26251 0.53391 0.0
H819 H 0.60436 0.28997 0.67257 0.0
H820 H 0.66141 0.27113 0.87704 0.0
H821 H 0.66557 0.23385 0.78573 0.0
C822 C 0.64001 0.21904 0.62175 0.0
C823 C 0.62528 0.21345 0.53705 0.0
C824 C 0.63744 0.24028 0.67557 0.0
C825 C 0.60789 0.22929 0.50645 0.0
C826 C 0.60527 0.25055 0.5593 0.0
C827 C 0.61758 0.2776 0.69734 0.0
C828 C 0.63252 0.28319 0.78139 0.0
C829 C 0.61995 0.25623 0.64402 0.0
C830 C 0.64968 0.26715 0.81257 0.0
C831 C 0.65211 0.24586 0.76029 0.0
H832 H 0.3422 0.11588 0.51941 0.0
H833 H 0.41013 0.13811 0.41529 0.0
H834 H 0.42343 0.1395 0.59948 0.0
H835 H 0.41553 0.13469 0.7909 0.0
H836 H 0.34846 0.10949 0.89357 0.0
H837 H 0.33487 0.10927 0.71008 0.0
C838 C 0.35994 0.12098 0.53718 0.0
C839 C 0.37524 0.12681 0.45372 0.0
C840 C 0.36749 0.12141 0.64331 0.0
C841 C 0.39817 0.13325 0.47783 0.0
C842 C 0.4057 0.13419 0.58329 0.0
C843 C 0.39791 0.12921 0.77314 0.0
C844 C 0.38284 0.1226 0.8564 0.0
C845 C 0.3905 0.12835 0.66678 0.0
C846 C 0.36022 0.11517 0.83162 0.0
C847 C 0.35251 0.11487 0.72643 0.0
H848 H 0.10683 0.61205 0.61429 0.0
H849 H 0.16792 0.65552 0.60035 0.0
H850 H 0.1682 0.65311 0.40724 0.0
H851 H 0.15099 0.63875 0.23915 0.0
H852 H 0.08978 0.59542 0.25396 0.0
H853 H 0.0896 0.59782 0.44677 0.0
C854 C 0.12027 0.62088 0.56902 0.0
C855 C 0.13734 0.63394 0.62266 0.0
C856 C 0.12025 0.61958 0.45677 0.0
C857 C 0.15452 0.64534 0.56186 0.0
C858 C 0.15469 0.64402 0.45089 0.0
C859 C 0.13757 0.62994 0.2846 0.0
C860 C 0.12043 0.6169 0.23116 0.0
C861 C 0.13759 0.63128 0.39695 0.0
C862 C 0.10324 0.60557 0.29218 0.0
C863 C 0.10312 0.60688 0.40304 0.0
H864 H 0.65272 0.85836 0.50682 0.0
H865 H 0.58365 0.87361 0.39343 0.0
H866 H 0.56926 0.8756 0.57605 0.0
H867 H 0.57649 0.87339 0.76844 0.0
H868 H 0.64528 0.85707 0.88158 0.0
H869 H 0.65978 0.85539 0.69919 0.0
C870 C 0.6345 0.86208 0.5222 0.0
C871 C 0.6192 0.8657 0.43669 0.0
C872 C 0.62641 0.86321 0.6275 0.0
C873 C 0.59567 0.87051 0.45773 0.0
C874 C 0.58749 0.87175 0.56222 0.0
C875 C 0.59467 0.86949 0.75307 0.0
C876 C 0.60997 0.86589 0.83863 0.0
C877 C 0.60271 0.86817 0.64774 0.0
C878 C 0.63338 0.86063 0.81748 0.0
C879 C 0.64158 0.85942 0.71301 0.0
H880 H 0.89112 0.40922 0.27855 0.0
H881 H 0.83922 0.35912 0.18534 0.0
H882 H 0.83273 0.34855 0.37082 0.0
H883 H 0.84148 0.3539 0.56062 0.0
H884 H 0.89312 0.40432 0.65346 0.0
H885 H 0.89969 0.41474 0.46801 0.0
C886 C 0.87844 0.39593 0.29889 0.0
C887 C 0.86591 0.38474 0.21797 0.0
C888 C 0.87453 0.39022 0.40605 0.0
C889 C 0.84944 0.36767 0.24571 0.0
C890 C 0.84557 0.36176 0.35199 0.0
C891 C 0.8541 0.36723 0.54017 0.0
C892 C 0.86664 0.37847 0.62099 0.0
C893 C 0.85796 0.37297 0.43294 0.0
C894 C 0.88299 0.39564 0.59314 0.0
C895 C 0.88688 0.40149 0.48689 0.0
H896 H 0.41153 0.33756 0.53077 0.0
H897 H 0.34878 0.37184 0.42677 0.0
H898 H 0.33506 0.37434 0.60992 0.0
H899 H 0.34108 0.36722 0.80129 0.0
H900 H 0.40492 0.33546 0.90649 0.0
H901 H 0.41825 0.33194 0.72278 0.0
C902 C 0.39481 0.34551 0.54819 0.0
C903 C 0.38095 0.35401 0.46442 0.0
C904 C 0.38738 0.34762 0.65457 0.0
C905 C 0.35954 0.36462 0.48894 0.0
C906 C 0.35177 0.36624 0.59404 0.0
C907 C 0.35794 0.35959 0.78387 0.0
C908 C 0.37212 0.35179 0.8678 0.0
C909 C 0.36554 0.35783 0.67765 0.0
C910 C 0.39391 0.342 0.84385 0.0
C911 C 0.40143 0.3398 0.73851 0.0
H912 H 0.36957 0.64629 0.27102 0.0
H913 H 0.34653 0.57863 0.16799 0.0
H914 H 0.34464 0.56528 0.35239 0.0
H915 H 0.34918 0.57308 0.5439 0.0
H916 H 0.37535 0.63979 0.64525 0.0
H917 H 0.37603 0.65345 0.46164 0.0
C918 C 0.3642 0.6286 0.28907 0.0
C919 C 0.35829 0.61339 0.20584 0.0
C920 C 0.36348 0.621 0.39537 0.0
C921 C 0.35148 0.59051 0.23035 0.0
C922 C 0.35024 0.58296 0.33595 0.0
C923 C 0.35496 0.59063 0.5258 0.0
C924 C 0.36166 0.6056 0.60884 0.0
C925 C 0.35614 0.59807 0.41925 0.0
C926 C 0.36952 0.62813 0.58357 0.0
C927 C 0.37011 0.63588 0.47826 0.0
H928 H 0.65337 0.62076 0.78336 0.0
H929 H 0.58877 0.6513 0.88855 0.0
H930 H 0.57605 0.65545 0.70409 0.0
H931 H 0.58358 0.65062 0.51223 0.0
H932 H 0.64665 0.61654 0.4094 0.0
H933 H 0.65988 0.61383 0.59285 0.0
C934 C 0.63647 0.62828 0.76577 0.0
C935 C 0.62201 0.63578 0.84936 0.0
C936 C 0.62916 0.63017 0.65973 0.0
C937 C 0.60011 0.64529 0.82563 0.0
C938 C 0.59291 0.64775 0.72013 0.0
C939 C 0.60027 0.64268 0.53 0.0
C940 C 0.61441 0.63434 0.44669 0.0
C941 C 0.60733 0.64032 0.63642 0.0
C942 C 0.63573 0.62366 0.4714 0.0
C943 C 0.64321 0.62192 0.57656 0.0
H944 H 0.62838 0.41548 0.55917 0.0
H945 H 0.63774 0.34535 0.67399 0.0
H946 H 0.63817 0.3307 0.49211 0.0
H947 H 0.63622 0.33798 0.29962 0.0
H948 H 0.62819 0.40827 0.18406 0.0
H949 H 0.62719 0.42286 0.36633 0.0
C950 C 0.63047 0.39698 0.54427 0.0
C951 C 0.63248 0.38139 0.63026 0.0
C952 C 0.63113 0.38881 0.43909 0.0
C953 C 0.63543 0.35754 0.60963 0.0
C954 C 0.63592 0.34923 0.50542 0.0
C955 C 0.63426 0.3565 0.31444 0.0
C956 C 0.63239 0.37208 0.22843 0.0
C957 C 0.63375 0.3647 0.4195 0.0
C958 C 0.6299 0.396 0.24876 0.0
C959 C 0.62923 0.4043 0.35305 0.0
H960 H 0.83536 0.64374 0.04903 0.0
H961 H 0.90462 0.62939 0.93391 0.0
H962 H 0.91899 0.62739 0.11624 0.0
H963 H 0.91166 0.62918 0.3088 0.0
H964 H 0.84269 0.64458 0.42378 0.0
H965 H 0.82823 0.64647 0.24171 0.0
C966 C 0.85362 0.64023 0.06396 0.0
C967 C 0.86896 0.6368 0.97804 0.0
C968 C 0.86169 0.63909 0.16911 0.0
C969 C 0.89254 0.63227 0.99853 0.0
C970 C 0.90071 0.63104 0.10284 0.0
C971 C 0.89346 0.63296 0.29392 0.0
C972 C 0.87809 0.63621 0.37995 0.0
C973 C 0.88544 0.63437 0.18876 0.0
C974 C 0.85464 0.64129 0.35936 0.0
C975 C 0.84647 0.64261 0.25506 0.0
H976 H 0.64037 0.08274 0.7517 0.0
H977 H 0.62309 0.15138 0.63748 0.0
H978 H 0.62252 0.1662 0.81907 0.0
H979 H 0.62646 0.15941 1.01153 0.0
H980 H 0.64093 0.09013 0.12649 0.0
H981 H 0.6428 0.07563 0.94436 0.0
C982 C 0.63655 0.10097 0.76663 0.0
C983 C 0.63248 0.11616 0.68074 0.0
C984 C 0.63558 0.10914 0.87178 0.0
C985 C 0.62715 0.13959 0.70157 0.0
C986 C 0.62654 0.14797 0.8057 0.0
C987 C 0.63005 0.14114 0.99659 0.0
C988 C 0.63373 0.12585 0.08248 0.0
C989 C 0.63076 0.13291 0.8915 0.0
C990 C 0.63814 0.10221 0.06193 0.0
C991 C 0.63921 0.09395 0.95768 0.0
H992 H 0.08482 0.39494 0.30217 0.0
H993 H 0.14606 0.35802 0.40635 0.0
H994 H 0.15956 0.35471 0.22335 0.0
H995 H 0.15373 0.36169 1.03211 0.0
H996 H 0.09108 0.39563 0.92585 0.0
H997 H 0.07814 0.40035 0.10973 0.0
C998 C 0.10117 0.38627 0.28479 0.0
C999 C 0.11471 0.37728 0.36862 0.0
C1000 C 0.10841 0.38361 0.17836 0.0
C1001 C 0.13561 0.36568 0.34416 0.0
C1002 C 0.14324 0.36357 0.23913 0.0
C1003 C 0.13721 0.37007 0.04934 0.0
C1004 C 0.12329 0.37818 0.96523 0.0
C1005 C 0.12978 0.37242 0.15546 0.0
C1006 C 0.10191 0.38891 0.98882 0.0
C1007 C 0.09461 0.39176 0.09418 0.0
H1008 H 0.38603 0.88691 0.15611 0.0
H1009 H 0.32728 0.84033 0.14395 0.0
H1010 H 0.32679 0.84301 0.95087 0.0
H1011 H 0.34313 0.85852 0.78214 0.0
H1012 H 0.40209 0.90485 0.79513 0.0
H1013 H 0.40245 0.90221 0.9879 0.0
C1014 C 0.37306 0.87744 0.11125 0.0
C1015 C 0.35671 0.86344 0.1655 0.0
C1016 C 0.37295 0.8789 0.99892 0.0
C1017 C 0.34013 0.85123 0.10511 0.0
C1018 C 0.33983 0.85272 0.9941 0.0
C1019 C 0.35608 0.86796 0.82717 0.0
C1020 C 0.37253 0.88192 0.7731 0.0
C1021 C 0.3562 0.86644 0.93959 0.0
C1022 C 0.38916 0.894 0.8337 0.0
C1023 C 0.38938 0.89255 0.9446 0.0
H1024 H 0.90622 0.87172 0.39852 0.0
H1025 H 0.8326 0.85938 0.36491 0.0
H1026 H 0.83626 0.86038 0.17281 0.0
H1027 H 0.86029 0.86498 1.00937 0.0
H1028 H 0.93397 0.87687 0.04304 0.0
H1029 H 0.93029 0.8759 0.23504 0.0
C1030 C 0.89101 0.86919 0.34924 0.0
C1031 C 0.86915 0.86545 0.39795 0.0
C1032 C 0.89317 0.86977 0.23655 0.0
C1033 C 0.84972 0.86228 0.33118 0.0
C1034 C 0.85175 0.86287 0.22029 0.0
C1035 C 0.87552 0.86735 0.05856 0.0
C1036 C 0.8974 0.871 1.00986 0.0
C1037 C 0.87336 0.86665 0.17127 0.0
C1038 C 0.91684 0.87401 0.0767 0.0
C1039 C 0.9148 0.87345 0.18756 0.0
H1040 H 0.87485 0.08071 1.03218 0.0
H1041 H 0.85625 0.14907 0.14491 0.0
H1042 H 0.85444 0.16352 0.9626 0.0
H1043 H 0.85792 0.15654 0.77045 0.0
H1044 H 0.87502 0.08779 0.65693 0.0
H1045 H 0.87732 0.07346 0.83964 0.0
C1046 C 0.87043 0.09879 1.01672 0.0
C1047 C 0.86632 0.11403 0.10223 0.0
C1048 C 0.86896 0.10676 0.91134 0.0
C1049 C 0.86033 0.13728 0.08094 0.0
C1050 C 0.85902 0.14544 0.97649 0.0
C1051 C 0.86212 0.1384 0.78581 0.0
C1052 C 0.8662 0.12318 0.7003 0.0
C1053 C 0.86336 0.13035 0.89106 0.0
C1054 C 0.87159 0.09975 0.72127 0.0
C1055 C 0.87299 0.09161 0.82579 0.0
H1056 H 0.08102 0.13883 1.0216 0.0
H1057 H 0.15146 0.14449 0.90669 0.0
H1058 H 0.16603 0.14407 0.0886 0.0
H1059 H 0.15862 0.14242 0.281 0.0
H1060 H 0.0881 0.1381 0.39678 0.0
H1061 H 0.07354 0.13794 0.21446 0.0
C1062 C 0.09957 0.13994 1.03649 0.0
C1063 C 0.11524 0.14117 0.9505 0.0
C1064 C 0.10771 0.1401 0.14166 0.0
C1065 C 0.13916 0.14283 0.97108 0.0
C1066 C 0.14744 0.14283 0.07529 0.0
C1067 C 0.14005 0.14146 0.26622 0.0
C1068 C 0.12441 0.14037 0.35225 0.0
C1069 C 0.13188 0.14143 0.1612 0.0
C1070 C 0.10043 0.13916 0.33201 0.0
C1071 C 0.09214 0.13898 0.22772 0.0
H1072 H 0.14223 0.84899 0.77345 0.0
H1073 H 0.12034 0.9165 0.66076 0.0
H1074 H 0.11861 0.9309 0.84328 0.0
H1075 H 0.12305 0.92412 1.03563 0.0
H1076 H 0.1462 0.85701 0.14746 0.0
H1077 H 0.1474 0.84244 0.96537 0.0
C1078 C 0.1371 0.86688 0.78892 0.0
C1079 C 0.13157 0.88174 0.70353 0.0
C1080 C 0.13615 0.87498 0.89419 0.0
C1081 C 0.12496 0.90484 0.72482 0.0
C1082 C 0.12386 0.91301 0.82931 0.0
C1083 C 0.12831 0.90628 1.02007 0.0
C1084 C 0.13397 0.89143 0.10544 0.0
C1085 C 0.1294 0.89823 0.91468 0.0
C1086 C 0.14101 0.86849 0.08381 0.0
C1087 C 0.14195 0.86027 0.97941 0.0
loop_
_geom_bond_atom_site_label_1
_geom_bond_atom_site_label_2
_geom_bond_distance
_geom_bond_site_symmetry_2
_ccdc_geom_bond_type
Tb0 O3 2.453 1_554 S
Tb0 O4 2.596 . S
Tb0 O5 2.374 . S
Tb0 O13 2.343 . S
Tb0 O15 2.353 . S
Tb0 O17 2.427 . S
Tb0 O18 2.513 . S
C1 O5 1.251 . S
C1 O7 1.263 . S
Tb2 O4 2.343 . S
Tb2 O7 2.353 . S
Tb2 O10 2.427 . S
Tb2 O11 2.513 . S
Tb2 O12 2.453 . S
Tb2 O13 2.596 . S
Tb2 O14 2.374 . S
O3 Tb0 2.453 1_556 S
O3 C19 1.245 . S
O4 Tb0 2.596 . S
O4 Tb2 2.343 . S
O4 C19 1.259 1_554 S
O5 Tb0 2.374 . S
O5 C1 1.251 . S
C6 O10 1.275 . S
C6 O11 1.246 . S
O7 C1 1.263 . S
O7 Tb2 2.353 . S
C8 O12 1.245 . S
C8 O13 1.259 . S
C9 O14 1.250 . S
C9 O15 1.263 . S
O10 Tb2 2.427 . S
O10 C6 1.275 . S
O11 Tb2 2.513 . S
O11 C6 1.246 . S
O12 Tb2 2.453 . S
O12 C8 1.245 . S
O13 Tb0 2.343 . S
O13 Tb2 2.596 . S
O13 C8 1.259 . S
O14 Tb2 2.374 . S
O14 C9 1.250 . S
O15 Tb0 2.353 . S
O15 C9 1.263 . S
C16 O17 1.275 . S
C16 O18 1.246 . S
O17 Tb0 2.427 . S
O17 C16 1.275 . S
O18 Tb0 2.513 . S
O18 C16 1.246 . S
C19 O3 1.245 . S
C19 O4 1.259 1_556 S
Tb20 O23 2.453 . S
Tb20 O24 2.596 . S
Tb20 O25 2.374 . S
Tb20 O33 2.343 . S
Tb20 O35 2.353 . S
Tb20 O37 2.427 . S
Tb20 O38 2.513 . S
C21 O25 1.251 . S
C21 O27 1.263 . S
Tb22 O24 2.343 . S
Tb22 O27 2.353 . S
Tb22 O30 2.427 . S
Tb22 O31 2.513 . S
Tb22 O32 2.453 1_556 S
Tb22 O33 2.596 . S
Tb22 O34 2.374 . S
O23 Tb20 2.453 . S
O23 C39 1.245 . S
O24 Tb20 2.596 . S
O24 Tb22 2.343 . S
O24 C39 1.259 . S
O25 Tb20 2.374 . S
O25 C21 1.251 . S
C26 O30 1.275 . S
C26 O31 1.246 . S
O27 C21 1.263 . S
O27 Tb22 2.353 . S
C28 O32 1.245 . S
C28 O33 1.259 1_554 S
C29 O34 1.250 . S
C29 O35 1.263 . S
O30 Tb22 2.427 . S
O30 C26 1.275 . S
O31 Tb22 2.513 . S
O31 C26 1.246 . S
O32 Tb22 2.453 1_554 S
O32 C28 1.245 . S
O33 Tb20 2.343 . S
O33 Tb22 2.596 . S
O33 C28 1.259 1_556 S
O34 Tb22 2.374 . S
O34 C29 1.250 . S
O35 Tb20 2.353 . S
O35 C29 1.263 . S
C36 O37 1.275 . S
C36 O38 1.246 . S
O37 Tb20 2.427 . S
O37 C36 1.275 . S
O38 Tb20 2.513 . S
O38 C36 1.246 . S
C39 O23 1.245 . S
C39 O24 1.259 . S
Tb40 O43 2.453 1_554 S
Tb40 O44 2.596 . S
Tb40 O45 2.374 . S
Tb40 O53 2.343 . S
Tb40 O55 2.353 . S
Tb40 O57 2.427 . S
Tb40 O58 2.513 . S
C41 O45 1.251 . S
C41 O47 1.263 . S
Tb42 O44 2.343 . S
Tb42 O47 2.353 . S
Tb42 O50 2.427 . S
Tb42 O51 2.513 . S
Tb42 O52 2.453 . S
Tb42 O53 2.596 . S
Tb42 O54 2.374 . S
O43 Tb40 2.453 1_556 S
O43 C59 1.245 . S
O44 Tb40 2.596 . S
O44 Tb42 2.343 . S
O44 C59 1.259 1_554 S
O45 Tb40 2.374 . S
O45 C41 1.251 . S
C46 O50 1.275 . S
C46 O51 1.246 . S
O47 C41 1.263 . S
O47 Tb42 2.353 . S
C48 O52 1.245 . S
C48 O53 1.259 . S
C49 O54 1.250 . S
C49 O55 1.263 . S
O50 Tb42 2.427 . S
O50 C46 1.275 . S
O51 Tb42 2.513 . S
O51 C46 1.246 . S
O52 Tb42 2.453 . S
O52 C48 1.245 . S
O53 Tb40 2.343 . S
O53 Tb42 2.596 . S
O53 C48 1.259 . S
O54 Tb42 2.374 . S
O54 C49 1.250 . S
O55 Tb40 2.353 . S
O55 C49 1.263 . S
C56 O57 1.275 . S
C56 O58 1.246 . S
O57 Tb40 2.427 . S
O57 C56 1.275 . S
O58 Tb40 2.513 . S
O58 C56 1.246 . S
C59 O43 1.245 . S
C59 O44 1.259 1_556 S
Tb60 O63 2.453 . S
Tb60 O64 2.596 . S
Tb60 O65 2.374 . S
Tb60 O73 2.343 . S
Tb60 O75 2.353 . S
Tb60 O77 2.427 . S
Tb60 O78 2.513 . S
C61 O65 1.251 . S
C61 O67 1.263 . S
Tb62 O64 2.343 . S
Tb62 O67 2.353 . S
Tb62 O70 2.427 . S
Tb62 O71 2.513 . S
Tb62 O72 2.453 1_556 S
Tb62 O73 2.596 . S
Tb62 O74 2.374 . S
O63 Tb60 2.453 . S
O63 C79 1.245 . S
O64 Tb60 2.596 . S
O64 Tb62 2.343 . S
O64 C79 1.259 . S
O65 Tb60 2.374 . S
O65 C61 1.251 . S
C66 O70 1.275 . S
C66 O71 1.246 . S
O67 C61 1.263 . S
O67 Tb62 2.353 . S
C68 O72 1.245 . S
C68 O73 1.259 1_554 S
C69 O74 1.250 . S
C69 O75 1.263 . S
O70 Tb62 2.427 . S
O70 C66 1.275 . S
O71 Tb62 2.513 . S
O71 C66 1.246 . S
O72 Tb62 2.453 1_554 S
O72 C68 1.245 . S
O73 Tb60 2.343 . S
O73 Tb62 2.596 . S
O73 C68 1.259 1_556 S
O74 Tb62 2.374 . S
O74 C69 1.250 . S
O75 Tb60 2.353 . S
O75 C69 1.263 . S
C76 O77 1.275 . S
C76 O78 1.246 . S
O77 Tb60 2.427 . S
O77 C76 1.275 . S
O78 Tb60 2.513 . S
O78 C76 1.246 . S
C79 O63 1.245 . S
C79 O64 1.259 . S
Tb80 O83 2.453 . S
Tb80 O84 2.596 . S
Tb80 O85 2.374 . S
Tb80 O93 2.343 . S
Tb80 O95 2.353 . S
Tb80 O97 2.427 . S
Tb80 O98 2.513 . S
C81 O85 1.251 . S
C81 O87 1.263 . S
Tb82 O84 2.343 . S
Tb82 O87 2.353 . S
Tb82 O90 2.427 . S
Tb82 O91 2.513 . S
Tb82 O92 2.453 1_554 S
Tb82 O93 2.596 . S
Tb82 O94 2.374 . S
O83 Tb80 2.453 . S
O83 C99 1.245 . S
O84 Tb80 2.596 . S
O84 Tb82 2.343 . S
O84 C99 1.259 . S
O85 Tb80 2.374 . S
O85 C81 1.251 . S
C86 O90 1.275 . S
C86 O91 1.246 . S
O87 C81 1.263 . S
O87 Tb82 2.353 . S
C88 O92 1.245 . S
C88 O93 1.259 1_556 S
C89 O94 1.250 . S
C89 O95 1.263 . S
O90 Tb82 2.427 . S
O90 C86 1.275 . S
O91 Tb82 2.513 . S
O91 C86 1.246 . S
O92 Tb82 2.453 1_556 S
O92 C88 1.245 . S
O93 Tb80 2.343 . S
O93 Tb82 2.596 . S
O93 C88 1.259 1_554 S
O94 Tb82 2.374 . S
O94 C89 1.250 . S
O95 Tb80 2.353 . S
O95 C89 1.263 . S
C96 O97 1.275 1_556 S
C96 O98 1.246 1_556 S
O97 Tb80 2.427 . S
O97 C96 1.275 1_554 S
O98 Tb80 2.513 . S
O98 C96 1.246 1_554 S
C99 O83 1.245 . S
C99 O84 1.259 . S
Tb100 O103 2.453 1_556 S
Tb100 O104 2.596 . S
Tb100 O105 2.374 . S
Tb100 O113 2.343 . S
Tb100 O115 2.353 . S
Tb100 O117 2.427 . S
Tb100 O118 2.513 . S
C101 O105 1.251 . S
C101 O107 1.263 . S
Tb102 O104 2.343 . S
Tb102 O107 2.353 . S
Tb102 O110 2.427 . S
Tb102 O111 2.513 . S
Tb102 O112 2.453 . S
Tb102 O113 2.596 . S
Tb102 O114 2.374 . S
O103 Tb100 2.453 1_554 S
O103 C119 1.245 . S
O104 Tb100 2.596 . S
O104 Tb102 2.343 . S
O104 C119 1.259 1_556 S
O105 Tb100 2.374 . S
O105 C101 1.251 . S
C106 O110 1.275 1_554 S
C106 O111 1.246 1_554 S
O107 C101 1.263 . S
O107 Tb102 2.353 . S
C108 O112 1.245 . S
C108 O113 1.259 . S
C109 O114 1.250 . S
C109 O115 1.263 . S
O110 Tb102 2.427 . S
O110 C106 1.275 1_556 S
O111 Tb102 2.513 . S
O111 C106 1.246 1_556 S
O112 Tb102 2.453 . S
O112 C108 1.245 . S
O113 Tb100 2.343 . S
O113 Tb102 2.596 . S
O113 C108 1.259 . S
O114 Tb102 2.374 . S
O114 C109 1.250 . S
O115 Tb100 2.353 . S
O115 C109 1.263 . S
C116 O117 1.275 . S
C116 O118 1.246 . S
O117 Tb100 2.427 . S
O117 C116 1.275 . S
O118 Tb100 2.513 . S
O118 C116 1.246 . S
C119 O103 1.245 . S
C119 O104 1.259 1_554 S
Tb120 O123 2.453 . S
Tb120 O124 2.596 . S
Tb120 O125 2.374 . S
Tb120 O133 2.343 . S
Tb120 O135 2.353 . S
Tb120 O137 2.427 . S
Tb120 O138 2.513 . S
C121 O125 1.251 . S
C121 O127 1.263 . S
Tb122 O124 2.343 . S
Tb122 O127 2.353 . S
Tb122 O130 2.427 . S
Tb122 O131 2.513 . S
Tb122 O132 2.453 1_554 S
Tb122 O133 2.596 . S
Tb122 O134 2.374 . S
O123 Tb120 2.453 . S
O123 C139 1.245 . S
O124 Tb120 2.596 . S
O124 Tb122 2.343 . S
O124 C139 1.259 . S
O125 Tb120 2.374 . S
O125 C121 1.251 . S
C126 O130 1.275 . S
C126 O131 1.246 . S
O127 C121 1.263 . S
O127 Tb122 2.353 . S
C128 O132 1.245 . S
C128 O133 1.259 1_556 S
C129 O134 1.250 . S
C129 O135 1.263 . S
O130 Tb122 2.427 . S
O130 C126 1.275 . S
O131 Tb122 2.513 . S
O131 C126 1.246 . S
O132 Tb122 2.453 1_556 S
O132 C128 1.245 . S
O133 Tb120 2.343 . S
O133 Tb122 2.596 . S
O133 C128 1.259 1_554 S
O134 Tb122 2.374 . S
O134 C129 1.250 . S
O135 Tb120 2.353 . S
O135 C129 1.263 . S
C136 O137 1.275 1_556 S
C136 O138 1.246 1_556 S
O137 Tb120 2.427 . S
O137 C136 1.275 1_554 S
O138 Tb120 2.513 . S
O138 C136 1.246 1_554 S
C139 O123 1.245 . S
C139 O124 1.259 . S
Tb140 O143 2.453 1_556 S
Tb140 O144 2.596 . S
Tb140 O145 2.374 . S
Tb140 O153 2.343 . S
Tb140 O155 2.353 . S
Tb140 O157 2.427 . S
Tb140 O158 2.513 . S
C141 O145 1.251 . S
C141 O147 1.263 . S
Tb142 O144 2.343 . S
Tb142 O147 2.353 . S
Tb142 O150 2.427 . S
Tb142 O151 2.513 . S
Tb142 O152 2.453 . S
Tb142 O153 2.596 . S
Tb142 O154 2.374 . S
O143 Tb140 2.453 1_554 S
O143 C159 1.245 . S
O144 Tb140 2.596 . S
O144 Tb142 2.343 . S
O144 C159 1.259 1_556 S
O145 Tb140 2.374 . S
O145 C141 1.251 . S
C146 O150 1.275 1_554 S
C146 O151 1.246 1_554 S
O147 C141 1.263 . S
O147 Tb142 2.353 . S
C148 O152 1.245 . S
C148 O153 1.259 . S
C149 O154 1.250 . S
C149 O155 1.263 . S
O150 Tb142 2.427 . S
O150 C146 1.275 1_556 S
O151 Tb142 2.513 . S
O151 C146 1.246 1_556 S
O152 Tb142 2.453 . S
O152 C148 1.245 . S
O153 Tb140 2.343 . S
O153 Tb142 2.596 . S
O153 C148 1.259 . S
O154 Tb142 2.374 . S
O154 C149 1.250 . S
O155 Tb140 2.353 . S
O155 C149 1.263 . S
C156 O157 1.275 . S
C156 O158 1.246 . S
O157 Tb140 2.427 . S
O157 C156 1.275 . S
O158 Tb140 2.513 . S
O158 C156 1.246 . S
C159 O143 1.245 . S
C159 O144 1.259 1_554 S
Tb160 O163 2.453 . S
Tb160 O164 2.596 . S
Tb160 O165 2.374 . S
Tb160 O173 2.343 . S
Tb160 O175 2.353 . S
Tb160 O177 2.427 . S
Tb160 O178 2.513 . S
C161 O165 1.251 . S
C161 O167 1.263 . S
Tb162 O164 2.343 . S
Tb162 O167 2.353 . S
Tb162 O170 2.427 . S
Tb162 O171 2.513 . S
Tb162 O172 2.453 . S
Tb162 O173 2.596 . S
Tb162 O174 2.374 . S
O163 Tb160 2.453 . S
O163 C179 1.245 . S
O164 Tb160 2.596 . S
O164 Tb162 2.343 . S
O164 C179 1.259 . S
O165 Tb160 2.374 . S
O165 C161 1.251 . S
C166 O170 1.275 . S
C166 O171 1.246 . S
O167 C161 1.263 . S
O167 Tb162 2.353 . S
C168 O172 1.245 . S
C168 O173 1.259 . S
C169 O174 1.250 . S
C169 O175 1.263 . S
O170 Tb162 2.427 . S
O170 C166 1.275 . S
O171 Tb162 2.513 . S
O171 C166 1.246 . S
O172 Tb162 2.453 . S
O172 C168 1.245 . S
O173 Tb160 2.343 . S
O173 Tb162 2.596 . S
O173 C168 1.259 . S
O174 Tb162 2.374 . S
O174 C169 1.250 . S
O175 Tb160 2.353 . S
O175 C169 1.263 . S
C176 O177 1.275 . S
C176 O178 1.246 . S
O177 Tb160 2.427 . S
O177 C176 1.275 . S
O178 Tb160 2.513 . S
O178 C176 1.246 . S
C179 O163 1.245 . S
C179 O164 1.259 . S
Tb180 O183 2.453 . S
Tb180 O184 2.596 . S
Tb180 O185 2.374 . S
Tb180 O193 2.343 . S
Tb180 O195 2.353 . S
Tb180 O197 2.427 . S
Tb180 O198 2.513 . S
C181 O185 1.251 . S
C181 O187 1.263 . S
Tb182 O184 2.343 . S
Tb182 O187 2.353 . S
Tb182 O190 2.427 . S
Tb182 O191 2.513 . S
Tb182 O192 2.453 . S
Tb182 O193 2.596 . S
Tb182 O194 2.374 . S
O183 Tb180 2.453 . S
O183 C199 1.245 . S
O184 Tb180 2.596 . S
O184 Tb182 2.343 . S
O184 C199 1.259 . S
O185 Tb180 2.374 . S
O185 C181 1.251 . S
C186 O190 1.275 . S
C186 O191 1.246 . S
O187 C181 1.263 . S
O187 Tb182 2.353 . S
C188 O192 1.245 . S
C188 O193 1.259 . S
C189 O194 1.250 . S
C189 O195 1.263 . S
O190 Tb182 2.427 . S
O190 C186 1.275 . S
O191 Tb182 2.513 . S
O191 C186 1.246 . S
O192 Tb182 2.453 . S
O192 C188 1.245 . S
O193 Tb180 2.343 . S
O193 Tb182 2.596 . S
O193 C188 1.259 . S
O194 Tb182 2.374 . S
O194 C189 1.250 . S
O195 Tb180 2.353 . S
O195 C189 1.263 . S
C196 O197 1.275 . S
C196 O198 1.246 . S
O197 Tb180 2.427 . S
O197 C196 1.275 . S
O198 Tb180 2.513 . S
O198 C196 1.246 . S
C199 O183 1.245 . S
C199 O184 1.259 . S
Tb200 O203 2.453 . S
Tb200 O204 2.596 . S
Tb200 O205 2.374 . S
Tb200 O213 2.343 . S
Tb200 O215 2.353 . S
Tb200 O217 2.427 . S
Tb200 O218 2.513 . S
C201 O205 1.251 . S
C201 O207 1.263 . S
Tb202 O204 2.343 . S
Tb202 O207 2.353 . S
Tb202 O210 2.427 . S
Tb202 O211 2.513 . S
Tb202 O212 2.453 . S
Tb202 O213 2.596 . S
Tb202 O214 2.374 . S
O203 Tb200 2.453 . S
O203 C219 1.245 . S
O204 Tb200 2.596 . S
O204 Tb202 2.343 . S
O204 C219 1.259 . S
O205 Tb200 2.374 . S
O205 C201 1.251 . S
C206 O210 1.275 . S
C206 O211 1.246 . S
O207 C201 1.263 . S
O207 Tb202 2.353 . S
C208 O212 1.245 . S
C208 O213 1.259 . S
C209 O214 1.250 . S
C209 O215 1.263 . S
O210 Tb202 2.427 . S
O210 C206 1.275 . S
O211 Tb202 2.513 . S
O211 C206 1.246 . S
O212 Tb202 2.453 . S
O212 C208 1.245 . S
O213 Tb200 2.343 . S
O213 Tb202 2.596 . S
O213 C208 1.259 . S
O214 Tb202 2.374 . S
O214 C209 1.250 . S
O215 Tb200 2.353 . S
O215 C209 1.263 . S
C216 O217 1.275 . S
C216 O218 1.246 . S
O217 Tb200 2.427 . S
O217 C216 1.275 . S
O218 Tb200 2.513 . S
O218 C216 1.246 . S
C219 O203 1.245 . S
C219 O204 1.259 . S
Tb220 O223 2.453 . S
Tb220 O224 2.596 . S
Tb220 O225 2.374 . S
Tb220 O233 2.343 . S
Tb220 O235 2.353 . S
Tb220 O237 2.427 . S
Tb220 O238 2.513 . S
C221 O225 1.251 . S
C221 O227 1.263 . S
Tb222 O224 2.343 . S
Tb222 O227 2.353 . S
Tb222 O230 2.427 . S
Tb222 O231 2.513 . S
Tb222 O232 2.453 . S
Tb222 O233 2.596 . S
Tb222 O234 2.374 . S
O223 Tb220 2.453 . S
O223 C239 1.245 . S
O224 Tb220 2.596 . S
O224 Tb222 2.343 . S
O224 C239 1.259 . S
O225 Tb220 2.374 . S
O225 C221 1.251 . S
C226 O230 1.275 . S
C226 O231 1.246 . S
O227 C221 1.263 . S
O227 Tb222 2.353 . S
C228 O232 1.245 . S
C228 O233 1.259 . S
C229 O234 1.250 . S
C229 O235 1.263 . S
O230 Tb222 2.427 . S
O230 C226 1.275 . S
O231 Tb222 2.513 . S
O231 C226 1.246 . S
O232 Tb222 2.453 . S
O232 C228 1.245 . S
O233 Tb220 2.343 . S
O233 Tb222 2.596 . S
O233 C228 1.259 . S
O234 Tb222 2.374 . S
O234 C229 1.250 . S
O235 Tb220 2.353 . S
O235 C229 1.263 . S
C236 O237 1.275 . S
C236 O238 1.246 . S
O237 Tb220 2.427 . S
O237 C236 1.275 . S
O238 Tb220 2.513 . S
O238 C236 1.246 . S
C239 O223 1.245 . S
C239 O224 1.259 . S
Tb240 O243 2.453 . S
Tb240 O244 2.596 . S
Tb240 O245 2.374 . S
Tb240 O253 2.343 . S
Tb240 O255 2.353 . S
Tb240 O257 2.427 . S
Tb240 O258 2.513 . S
C241 O245 1.251 . S
C241 O247 1.263 . S
Tb242 O244 2.343 . S
Tb242 O247 2.353 . S
Tb242 O250 2.427 . S
Tb242 O251 2.513 . S
Tb242 O252 2.453 . S
Tb242 O253 2.596 . S
Tb242 O254 2.374 . S
O243 Tb240 2.453 . S
O243 C259 1.245 . S
O244 Tb240 2.596 . S
O244 Tb242 2.343 . S
O244 C259 1.259 . S
O245 Tb240 2.374 . S
O245 C241 1.251 . S
C246 O250 1.275 . S
C246 O251 1.246 . S
O247 C241 1.263 . S
O247 Tb242 2.353 . S
C248 O252 1.245 . S
C248 O253 1.259 . S
C249 O254 1.250 . S
C249 O255 1.263 . S
O250 Tb242 2.427 . S
O250 C246 1.275 . S
O251 Tb242 2.513 . S
O251 C246 1.246 . S
O252 Tb242 2.453 . S
O252 C248 1.245 . S
O253 Tb240 2.343 . S
O253 Tb242 2.596 . S
O253 C248 1.259 . S
O254 Tb242 2.374 . S
O254 C249 1.250 . S
O255 Tb240 2.353 . S
O255 C249 1.263 . S
C256 O257 1.275 . S
C256 O258 1.246 . S
O257 Tb240 2.427 . S
O257 C256 1.275 . S
O258 Tb240 2.513 . S
O258 C256 1.246 . S
C259 O243 1.245 . S
C259 O244 1.259 . S
Tb260 O263 2.453 . S
Tb260 O264 2.596 . S
Tb260 O265 2.374 . S
Tb260 O273 2.343 . S
Tb260 O275 2.353 . S
Tb260 O277 2.427 . S
Tb260 O278 2.513 . S
C261 O265 1.251 . S
C261 O267 1.263 . S
Tb262 O264 2.343 . S
Tb262 O267 2.353 . S
Tb262 O270 2.427 . S
Tb262 O271 2.513 . S
Tb262 O272 2.453 . S
Tb262 O273 2.596 . S
Tb262 O274 2.374 . S
O263 Tb260 2.453 . S
O263 C279 1.245 . S
O264 Tb260 2.596 . S
O264 Tb262 2.343 . S
O264 C279 1.259 . S
O265 Tb260 2.374 . S
O265 C261 1.251 . S
C266 O270 1.275 . S
C266 O271 1.246 . S
O267 C261 1.263 . S
O267 Tb262 2.353 . S
C268 O272 1.245 . S
C268 O273 1.259 . S
C269 O274 1.250 . S
C269 O275 1.263 . S
O270 Tb262 2.427 . S
O270 C266 1.275 . S
O271 Tb262 2.513 . S
O271 C266 1.246 . S
O272 Tb262 2.453 . S
O272 C268 1.245 . S
O273 Tb260 2.343 . S
O273 Tb262 2.596 . S
O273 C268 1.259 . S
O274 Tb262 2.374 . S
O274 C269 1.250 . S
O275 Tb260 2.353 . S
O275 C269 1.263 . S
C276 O277 1.275 . S
C276 O278 1.246 . S
O277 Tb260 2.427 . S
O277 C276 1.275 . S
O278 Tb260 2.513 . S
O278 C276 1.246 . S
C279 O263 1.245 . S
C279 O264 1.259 . S
Tb280 O283 2.453 . S
Tb280 O284 2.596 . S
Tb280 O285 2.374 . S
Tb280 O293 2.343 . S
Tb280 O295 2.353 . S
Tb280 O297 2.427 . S
Tb280 O298 2.513 . S
C281 O285 1.251 . S
C281 O287 1.263 . S
Tb282 O284 2.343 . S
Tb282 O287 2.353 . S
Tb282 O290 2.427 . S
Tb282 O291 2.513 . S
Tb282 O292 2.453 . S
Tb282 O293 2.596 . S
Tb282 O294 2.374 . S
O283 Tb280 2.453 . S
O283 C299 1.245 . S
O284 Tb280 2.596 . S
O284 Tb282 2.343 . S
O284 C299 1.259 . S
O285 Tb280 2.374 . S
O285 C281 1.251 . S
C286 O290 1.275 . S
C286 O291 1.246 . S
O287 C281 1.263 . S
O287 Tb282 2.353 . S
C288 O292 1.245 . S
C288 O293 1.259 . S
C289 O294 1.250 . S
C289 O295 1.263 . S
O290 Tb282 2.427 . S
O290 C286 1.275 . S
O291 Tb282 2.513 . S
O291 C286 1.246 . S
O292 Tb282 2.453 . S
O292 C288 1.245 . S
O293 Tb280 2.343 . S
O293 Tb282 2.596 . S
O293 C288 1.259 . S
O294 Tb282 2.374 . S
O294 C289 1.250 . S
O295 Tb280 2.353 . S
O295 C289 1.263 . S
C296 O297 1.275 . S
C296 O298 1.246 . S
O297 Tb280 2.427 . S
O297 C296 1.275 . S
O298 Tb280 2.513 . S
O298 C296 1.246 . S
C299 O283 1.245 . S
C299 O284 1.259 . S
Tb300 O303 2.453 . S
Tb300 O304 2.596 . S
Tb300 O305 2.374 . S
Tb300 O313 2.343 . S
Tb300 O315 2.353 . S
Tb300 O317 2.427 . S
Tb300 O318 2.513 . S
C301 O305 1.251 . S
C301 O307 1.263 . S
Tb302 O304 2.343 . S
Tb302 O307 2.353 . S
Tb302 O310 2.427 . S
Tb302 O311 2.513 . S
Tb302 O312 2.453 . S
Tb302 O313 2.596 . S
Tb302 O314 2.374 . S
O303 Tb300 2.453 . S
O303 C319 1.245 . S
O304 Tb300 2.596 . S
O304 Tb302 2.343 . S
O304 C319 1.259 . S
O305 Tb300 2.374 . S
O305 C301 1.251 . S
C306 O310 1.275 . S
C306 O311 1.246 . S
O307 C301 1.263 . S
O307 Tb302 2.353 . S
C308 O312 1.245 . S
C308 O313 1.259 . S
C309 O314 1.250 . S
C309 O315 1.263 . S
O310 Tb302 2.427 . S
O310 C306 1.275 . S
O311 Tb302 2.513 . S
O311 C306 1.246 . S
O312 Tb302 2.453 . S
O312 C308 1.245 . S
O313 Tb300 2.343 . S
O313 Tb302 2.596 . S
O313 C308 1.259 . S
O314 Tb302 2.374 . S
O314 C309 1.250 . S
O315 Tb300 2.353 . S
O315 C309 1.263 . S
C316 O317 1.275 . S
C316 O318 1.246 . S
O317 Tb300 2.427 . S
O317 C316 1.275 . S
O318 Tb300 2.513 . S
O318 C316 1.246 . S
C319 O303 1.245 . S
C319 O304 1.259 . S
H320 C326 0.930 . S
H321 C329 0.930 . S
H322 C330 0.920 1_545 S
H323 C331 0.930 . S
H324 C334 0.930 . S
H325 C335 0.930 . S
C326 H320 0.930 . S
C326 C327 1.355 . S
C326 C328 1.415 1_565 S
C327 C326 1.355 . S
C327 C329 1.419 . S
C328 C326 1.415 1_545 S
C328 C333 1.425 . S
C328 C335 1.409 . S
C329 H321 0.930 . S
C329 C327 1.419 . S
C329 C330 1.409 . S
C330 H322 0.920 1_565 S
C330 C329 1.409 . S
C330 C333 1.374 1_565 S
C331 H323 0.930 . S
C331 C332 1.355 . S
C331 C333 1.415 . S
C332 C331 1.355 . S
C332 C334 1.419 . S
C333 C328 1.425 . S
C333 C330 1.374 1_545 S
C333 C331 1.415 . S
C334 H324 0.930 . S
C334 C332 1.419 . S
C334 C335 1.362 . S
C335 H325 0.930 . S
C335 C328 1.409 . S
C335 C334 1.362 . S
H336 C342 0.930 . S
H337 C345 0.930 . S
H338 C346 0.921 1_455 S
H339 C347 0.930 . S
H340 C350 0.930 . S
H341 C351 0.930 . S
C342 H336 0.930 . S
C342 C343 1.355 . S
C342 C344 1.415 1_655 S
C343 C342 1.355 . S
C343 C345 1.419 . S
C344 C342 1.415 1_455 S
C344 C349 1.425 . S
C344 C351 1.409 . S
C345 H337 0.930 . S
C345 C343 1.419 . S
C345 C346 1.405 . S
C346 H338 0.921 1_655 S
C346 C345 1.405 . S
C346 C349 1.377 1_655 S
C347 H339 0.930 . S
C347 C348 1.355 . S
C347 C349 1.415 . S
C348 C347 1.355 . S
C348 C350 1.419 . S
C349 C344 1.425 . S
C349 C346 1.377 1_455 S
C349 C347 1.415 . S
C350 H340 0.930 . S
C350 C348 1.419 . S
C350 C351 1.362 . S
C351 H341 0.930 . S
C351 C344 1.409 . S
C351 C350 1.362 . S
H352 C358 0.930 . S
H353 C361 0.930 . S
H354 C362 0.930 . S
H355 C363 0.930 . S
H356 C366 0.930 . S
H357 C367 0.930 . S
C358 H352 0.930 . S
C358 C359 1.355 . S
C358 C360 1.415 . S
C359 C358 1.355 . S
C359 C361 1.419 . S
C360 C358 1.415 . S
C360 C365 1.425 . S
C360 C367 1.409 . S
C361 H353 0.930 . S
C361 C359 1.419 . S
C361 C362 1.362 . S
C362 H354 0.930 . S
C362 C361 1.362 . S
C362 C365 1.409 . S
C363 H355 0.930 . S
C363 C364 1.355 . S
C363 C365 1.415 1_545 S
C364 C363 1.355 . S
C364 C366 1.419 . S
C365 C360 1.425 . S
C365 C362 1.409 . S
C365 C363 1.415 1_565 S
C366 H356 0.930 . S
C366 C364 1.419 . S
C366 C367 1.362 1_545 S
C367 H357 0.930 . S
C367 C360 1.409 . S
C367 C366 1.362 1_565 S
H368 C374 0.930 . S
H369 C377 0.930 . S
H370 C378 0.930 . S
H371 C379 0.930 . S
H372 C382 0.930 . S
H373 C383 0.930 . S
C374 H368 0.930 . S
C374 C375 1.355 . S
C374 C376 1.415 . S
C375 C374 1.355 . S
C375 C377 1.419 . S
C376 C374 1.415 . S
C376 C381 1.425 . S
C376 C383 1.409 . S
C377 H369 0.930 . S
C377 C375 1.419 . S
C377 C378 1.362 . S
C378 H370 0.930 . S
C378 C377 1.362 . S
C378 C381 1.409 . S
C379 H371 0.930 . S
C379 C380 1.355 . S
C379 C381 1.415 1_455 S
C380 C379 1.355 . S
C380 C382 1.419 . S
C381 C376 1.425 . S
C381 C378 1.409 . S
C381 C379 1.415 1_655 S
C382 H372 0.930 . S
C382 C380 1.419 . S
C382 C383 1.362 1_455 S
C383 H373 0.930 . S
C383 C376 1.409 . S
C383 C382 1.362 1_655 S
H384 C390 0.930 . S
H385 C393 0.930 . S
H386 C394 0.930 . S
H387 C395 0.930 . S
H388 C398 0.930 . S
H389 C399 0.930 . S
C390 H384 0.930 . S
C390 C391 1.355 . S
C390 C392 1.415 . S
C391 C390 1.355 . S
C391 C393 1.419 . S
C392 C390 1.415 . S
C392 C397 1.425 . S
C392 C399 1.409 . S
C393 H385 0.930 . S
C393 C391 1.419 . S
C393 C394 1.362 . S
C394 H386 0.930 . S
C394 C393 1.362 . S
C394 C397 1.409 . S
C395 H387 0.930 . S
C395 C396 1.355 . S
C395 C397 1.415 . S
C396 C395 1.355 . S
C396 C398 1.419 . S
C397 C392 1.425 . S
C397 C394 1.409 . S
C397 C395 1.415 . S
C398 H388 0.930 . S
C398 C396 1.419 . S
C398 C399 1.362 . S
C399 H389 0.930 . S
C399 C392 1.409 . S
C399 C398 1.362 . S
H400 C406 0.930 1_554 S
H401 C409 0.930 . S
H402 C410 0.930 . S
H403 C411 0.930 . S
H404 C414 0.930 1_554 S
H405 C415 0.930 . S
C406 H400 0.930 1_556 S
C406 C407 1.355 . S
C406 C408 1.415 . S
C407 C406 1.355 . S
C407 C409 1.419 . S
C408 C406 1.415 . S
C408 C413 1.425 . S
C408 C415 1.409 1_556 S
C409 H401 0.930 . S
C409 C407 1.419 . S
C409 C410 1.362 . S
C410 H402 0.930 . S
C410 C409 1.362 . S
C410 C413 1.409 . S
C411 H403 0.930 . S
C411 C412 1.355 . S
C411 C413 1.415 . S
C412 C411 1.355 . S
C412 C414 1.419 . S
C413 C408 1.425 . S
C413 C410 1.409 . S
C413 C411 1.415 . S
C414 H404 0.930 1_556 S
C414 C412 1.419 . S
C414 C415 1.362 1_556 S
C415 H405 0.930 . S
C415 C408 1.409 1_554 S
C415 C414 1.362 1_554 S
H416 C422 0.930 . S
H417 C425 0.933 . S
H418 C426 0.930 . S
H419 C427 0.930 1_556 S
H420 C430 0.930 . S
H421 C431 0.930 . S
C422 H416 0.930 . S
C422 C423 1.355 . S
C422 C424 1.415 . S
C423 C422 1.355 . S
C423 C425 1.415 1_554 S
C424 C422 1.415 . S
C424 C429 1.425 . S
C424 C431 1.409 . S
C425 H417 0.933 . S
C425 C423 1.415 1_556 S
C425 C426 1.363 . S
C426 H418 0.930 . S
C426 C425 1.363 . S
C426 C429 1.409 1_556 S
C427 H419 0.930 1_554 S
C427 C428 1.355 . S
C427 C429 1.415 . S
C428 C427 1.355 . S
C428 C430 1.419 . S
C429 C424 1.425 . S
C429 C426 1.409 1_554 S
C429 C427 1.415 . S
C430 H420 0.930 . S
C430 C428 1.419 . S
C430 C431 1.362 . S
C431 H421 0.930 . S
C431 C424 1.409 . S
C431 C430 1.362 . S
H432 C438 0.930 . S
H433 C441 0.930 . S
H434 C442 0.930 . S
H435 C443 0.930 1_554 S
H436 C446 0.930 . S
H437 C447 0.930 . S
C438 H432 0.930 . S
C438 C439 1.355 . S
C438 C440 1.415 . S
C439 C438 1.355 . S
C439 C441 1.419 1_556 S
C440 C438 1.415 . S
C440 C445 1.425 . S
C440 C447 1.409 . S
C441 H433 0.930 . S
C441 C439 1.419 1_554 S
C441 C442 1.362 . S
C442 H434 0.930 . S
C442 C441 1.362 . S
C442 C445 1.409 1_554 S
C443 H435 0.930 1_556 S
C443 C444 1.355 . S
C443 C445 1.415 . S
C444 C443 1.355 . S
C444 C446 1.419 . S
C445 C440 1.425 . S
C445 C442 1.409 1_556 S
C445 C443 1.415 . S
C446 H436 0.930 . S
C446 C444 1.419 . S
C446 C447 1.362 . S
C447 H437 0.930 . S
C447 C440 1.409 . S
C447 C446 1.362 . S
H448 C454 0.930 . S
H449 C457 0.930 . S
H450 C458 0.930 . S
H451 C459 0.930 . S
H452 C462 0.930 . S
H453 C463 0.930 . S
C454 H448 0.930 . S
C454 C455 1.355 . S
C454 C456 1.415 . S
C455 C454 1.355 . S
C455 C457 1.419 . S
C456 C454 1.415 . S
C456 C461 1.425 . S
C456 C463 1.409 . S
C457 H449 0.930 . S
C457 C455 1.419 . S
C457 C458 1.362 . S
C458 H450 0.930 . S
C458 C457 1.362 . S
C458 C461 1.409 . S
C459 H451 0.930 . S
C459 C460 1.355 . S
C459 C461 1.415 . S
C460 C459 1.355 . S
C460 C462 1.419 . S
C461 C456 1.425 . S
C461 C458 1.409 . S
C461 C459 1.415 . S
C462 H452 0.930 . S
C462 C460 1.419 . S
C462 C463 1.362 . S
C463 H453 0.930 . S
C463 C456 1.409 . S
C463 C462 1.362 . S
H464 C470 0.930 . S
H465 C473 0.930 . S
H466 C474 0.930 . S
H467 C475 0.930 . S
H468 C478 0.930 . S
H469 C479 0.930 . S
C470 H464 0.930 . S
C470 C471 1.355 . S
C470 C472 1.415 . S
C471 C470 1.355 . S
C471 C473 1.419 . S
C472 C470 1.415 . S
C472 C477 1.425 . S
C472 C479 1.409 . S
C473 H465 0.930 . S
C473 C471 1.419 . S
C473 C474 1.362 . S
C474 H466 0.930 . S
C474 C473 1.362 . S
C474 C477 1.409 . S
C475 H467 0.930 . S
C475 C476 1.355 . S
C475 C477 1.415 . S
C476 C475 1.355 . S
C476 C478 1.419 . S
C477 C472 1.425 . S
C477 C474 1.409 . S
C477 C475 1.415 . S
C478 H468 0.930 . S
C478 C476 1.419 . S
C478 C479 1.362 . S
C479 H469 0.930 . S
C479 C472 1.409 . S
C479 C478 1.362 . S
H480 C486 0.930 . S
H481 C489 0.930 . S
H482 C490 0.930 . S
H483 C491 0.930 . S
H484 C494 0.930 . S
H485 C495 0.930 . S
C486 H480 0.930 . S
C486 C487 1.355 . S
C486 C488 1.415 . S
C487 C486 1.355 . S
C487 C489 1.419 . S
C488 C486 1.415 . S
C488 C493 1.425 . S
C488 C495 1.409 . S
C489 H481 0.930 . S
C489 C487 1.419 . S
C489 C490 1.362 . S
C490 H482 0.930 . S
C490 C489 1.362 . S
C490 C493 1.409 . S
C491 H483 0.930 . S
C491 C492 1.355 . S
C491 C493 1.415 . S
C492 C491 1.355 . S
C492 C494 1.419 . S
C493 C488 1.425 . S
C493 C490 1.409 . S
C493 C491 1.415 . S
C494 H484 0.930 . S
C494 C492 1.419 . S
C494 C495 1.362 . S
C495 H485 0.930 . S
C495 C488 1.409 . S
C495 C494 1.362 . S
H496 C502 0.930 . S
H497 C505 0.930 . S
H498 C506 0.930 . S
H499 C507 0.930 . S
H500 C510 0.930 . S
H501 C511 0.930 . S
C502 H496 0.930 . S
C502 C503 1.355 . S
C502 C504 1.415 . S
C503 C502 1.355 . S
C503 C505 1.419 . S
C504 C502 1.415 . S
C504 C509 1.425 . S
C504 C511 1.409 . S
C505 H497 0.930 . S
C505 C503 1.419 . S
C505 C506 1.362 . S
C506 H498 0.930 . S
C506 C505 1.362 . S
C506 C509 1.409 . S
C507 H499 0.930 . S
C507 C508 1.355 . S
C507 C509 1.415 . S
C508 C507 1.355 . S
C508 C510 1.419 . S
C509 C504 1.425 . S
C509 C506 1.409 . S
C509 C507 1.415 . S
C510 H500 0.930 . S
C510 C508 1.419 . S
C510 C511 1.362 . S
C511 H501 0.930 . S
C511 C504 1.409 . S
C511 C510 1.362 . S
H512 C518 0.930 . S
H513 C521 0.930 . S
H514 C522 0.930 . S
H515 C523 0.930 . S
H516 C526 0.930 . S
H517 C527 0.930 . S
C518 H512 0.930 . S
C518 C519 1.355 . S
C518 C520 1.415 . S
C519 C518 1.355 . S
C519 C521 1.419 . S
C520 C518 1.415 . S
C520 C525 1.425 . S
C520 C527 1.409 . S
C521 H513 0.930 . S
C521 C519 1.419 . S
C521 C522 1.362 . S
C522 H514 0.930 . S
C522 C521 1.362 . S
C522 C525 1.409 . S
C523 H515 0.930 . S
C523 C524 1.355 . S
C523 C525 1.415 1_545 S
C524 C523 1.355 . S
C524 C526 1.419 . S
C525 C520 1.425 . S
C525 C522 1.409 . S
C525 C523 1.415 1_565 S
C526 H516 0.930 . S
C526 C524 1.419 . S
C526 C527 1.362 1_545 S
C527 H517 0.930 . S
C527 C520 1.409 . S
C527 C526 1.362 1_565 S
H528 C534 0.930 . S
H529 C537 0.930 . S
H530 C538 0.930 . S
H531 C539 0.930 . S
H532 C542 0.930 . S
H533 C543 0.930 . S
C534 H528 0.930 . S
C534 C535 1.355 . S
C534 C536 1.415 1_455 S
C535 C534 1.355 . S
C535 C537 1.419 . S
C536 C534 1.415 1_655 S
C536 C541 1.425 . S
C536 C543 1.409 . S
C537 H529 0.930 . S
C537 C535 1.419 . S
C537 C538 1.362 1_455 S
C538 H530 0.930 . S
C538 C537 1.362 1_655 S
C538 C541 1.409 . S
C539 H531 0.930 . S
C539 C540 1.355 . S
C539 C541 1.415 . S
C540 C539 1.355 . S
C540 C542 1.419 . S
C541 C536 1.425 . S
C541 C538 1.409 . S
C541 C539 1.415 . S
C542 H532 0.930 . S
C542 C540 1.419 . S
C542 C543 1.362 . S
C543 H533 0.930 . S
C543 C536 1.409 . S
C543 C542 1.362 . S
H544 C550 0.930 . S
H545 C553 0.930 . S
H546 C554 0.930 . S
H547 C555 0.930 . S
H548 C558 0.930 . S
H549 C559 0.930 . S
C550 H544 0.930 . S
C550 C551 1.355 . S
C550 C552 1.415 1_565 S
C551 C550 1.355 . S
C551 C553 1.419 . S
C552 C550 1.415 1_545 S
C552 C557 1.425 . S
C552 C559 1.409 . S
C553 H545 0.930 . S
C553 C551 1.419 . S
C553 C554 1.362 1_565 S
C554 H546 0.930 . S
C554 C553 1.362 1_545 S
C554 C557 1.409 . S
C555 H547 0.930 . S
C555 C556 1.355 . S
C555 C557 1.415 . S
C556 C555 1.355 . S
C556 C558 1.419 . S
C557 C552 1.425 . S
C557 C554 1.409 . S
C557 C555 1.415 . S
C558 H548 0.930 . S
C558 C556 1.419 . S
C558 C559 1.362 . S
C559 H549 0.930 . S
C559 C552 1.409 . S
C559 C558 1.362 . S
H560 C566 0.930 . S
H561 C569 0.930 . S
H562 C570 0.930 . S
H563 C571 0.930 . S
H564 C574 0.930 . S
H565 C575 0.925 1_455 S
C566 H560 0.930 . S
C566 C567 1.355 . S
C566 C568 1.415 . S
C567 C566 1.355 . S
C567 C569 1.419 . S
C568 C566 1.415 . S
C568 C573 1.425 . S
C568 C575 1.393 1_455 S
C569 H561 0.930 . S
C569 C567 1.419 . S
C569 C570 1.362 . S
C570 H562 0.930 . S
C570 C569 1.362 . S
C570 C573 1.409 . S
C571 H563 0.930 . S
C571 C572 1.355 . S
C571 C573 1.415 1_655 S
C572 C571 1.355 . S
C572 C574 1.419 . S
C573 C568 1.425 . S
C573 C570 1.409 . S
C573 C571 1.415 1_455 S
C574 H564 0.930 . S
C574 C572 1.419 . S
C574 C575 1.385 . S
C575 H565 0.925 1_655 S
C575 C568 1.393 1_655 S
C575 C574 1.385 . S
H576 C582 0.930 1_556 S
H577 C585 0.930 . S
H578 C586 0.930 . S
H579 C587 0.930 . S
H580 C590 0.930 . S
H581 C591 0.930 1_556 S
C582 H576 0.930 1_554 S
C582 C583 1.355 . S
C582 C584 1.415 . S
C583 C582 1.355 . S
C583 C585 1.419 . S
C584 C582 1.415 . S
C584 C589 1.425 . S
C584 C591 1.409 . S
C585 H577 0.930 . S
C585 C583 1.419 . S
C585 C586 1.362 . S
C586 H578 0.930 . S
C586 C585 1.362 . S
C586 C589 1.409 . S
C587 H579 0.930 . S
C587 C588 1.355 . S
C587 C589 1.415 . S
C588 C587 1.355 . S
C588 C590 1.419 . S
C589 C584 1.425 . S
C589 C586 1.409 . S
C589 C587 1.415 . S
C590 H580 0.930 . S
C590 C588 1.419 . S
C590 C591 1.362 . S
C591 H581 0.930 1_554 S
C591 C584 1.409 . S
C591 C590 1.362 . S
H592 C598 0.930 . S
H593 C601 0.930 . S
H594 C602 0.930 . S
H595 C603 0.930 . S
H596 C606 0.930 . S
H597 C607 0.930 . S
C598 H592 0.930 . S
C598 C599 1.355 . S
C598 C600 1.415 . S
C599 C598 1.355 . S
C599 C601 1.419 . S
C600 C598 1.415 . S
C600 C605 1.425 . S
C600 C607 1.409 1_556 S
C601 H593 0.930 . S
C601 C599 1.419 . S
C601 C602 1.362 . S
C602 H594 0.930 . S
C602 C601 1.362 . S
C602 C605 1.409 . S
C603 H595 0.930 . S
C603 C604 1.355 . S
C603 C605 1.415 . S
C604 C603 1.355 . S
C604 C606 1.419 1_556 S
C605 C600 1.425 . S
C605 C602 1.409 . S
C605 C603 1.415 . S
C606 H596 0.930 . S
C606 C604 1.419 1_554 S
C606 C607 1.362 . S
C607 H597 0.930 . S
C607 C600 1.409 1_554 S
C607 C606 1.362 . S
H608 C614 0.930 1_556 S
H609 C617 0.930 . S
H610 C618 0.930 . S
H611 C619 0.930 . S
H612 C622 0.930 . S
H613 C623 0.930 1_556 S
C614 H608 0.930 1_554 S
C614 C615 1.355 . S
C614 C616 1.415 . S
C615 C614 1.355 . S
C615 C617 1.419 . S
C616 C614 1.415 . S
C616 C621 1.425 . S
C616 C623 1.409 . S
C617 H609 0.930 . S
C617 C615 1.419 . S
C617 C618 1.362 . S
C618 H610 0.930 . S
C618 C617 1.362 . S
C618 C621 1.409 . S
C619 H611 0.930 . S
C619 C620 1.355 . S
C619 C621 1.415 . S
C620 C619 1.355 . S
C620 C622 1.419 . S
C621 C616 1.425 . S
C621 C618 1.409 . S
C621 C619 1.415 . S
C622 H612 0.930 . S
C622 C620 1.419 . S
C622 C623 1.362 . S
C623 H613 0.930 1_554 S
C623 C616 1.409 . S
C623 C622 1.362 . S
H624 C630 0.930 . S
H625 C633 0.930 . S
H626 C634 0.930 . S
H627 C635 0.930 . S
H628 C638 0.930 . S
H629 C639 0.930 . S
C630 H624 0.930 . S
C630 C631 1.355 . S
C630 C632 1.415 . S
C631 C630 1.355 . S
C631 C633 1.419 . S
C632 C630 1.415 . S
C632 C637 1.425 . S
C632 C639 1.409 . S
C633 H625 0.930 . S
C633 C631 1.419 . S
C633 C634 1.362 . S
C634 H626 0.930 . S
C634 C633 1.362 . S
C634 C637 1.409 . S
C635 H627 0.930 . S
C635 C636 1.355 . S
C635 C637 1.415 . S
C636 C635 1.355 . S
C636 C638 1.419 . S
C637 C632 1.425 . S
C637 C634 1.409 . S
C637 C635 1.415 . S
C638 H628 0.930 . S
C638 C636 1.419 . S
C638 C639 1.362 . S
C639 H629 0.930 . S
C639 C632 1.409 . S
C639 C638 1.362 . S
H640 C646 0.930 . S
H641 C649 0.930 . S
H642 C650 0.930 . S
H643 C651 0.930 . S
H644 C654 0.930 . S
H645 C655 0.930 . S
C646 H640 0.930 . S
C646 C647 1.355 . S
C646 C648 1.415 . S
C647 C646 1.355 . S
C647 C649 1.419 . S
C648 C646 1.415 . S
C648 C653 1.425 . S
C648 C655 1.409 . S
C649 H641 0.930 . S
C649 C647 1.419 . S
C649 C650 1.362 . S
C650 H642 0.930 . S
C650 C649 1.362 . S
C650 C653 1.409 . S
C651 H643 0.930 . S
C651 C652 1.355 . S
C651 C653 1.415 . S
C652 C651 1.355 . S
C652 C654 1.419 . S
C653 C648 1.425 . S
C653 C650 1.409 . S
C653 C651 1.415 . S
C654 H644 0.930 . S
C654 C652 1.419 . S
C654 C655 1.362 . S
C655 H645 0.930 . S
C655 C648 1.409 . S
C655 C654 1.362 . S
H656 C662 0.930 . S
H657 C665 0.930 . S
H658 C666 0.930 . S
H659 C667 0.930 . S
H660 C670 0.930 . S
H661 C671 0.930 . S
C662 H656 0.930 . S
C662 C663 1.355 . S
C662 C664 1.415 . S
C663 C662 1.355 . S
C663 C665 1.419 . S
C664 C662 1.415 . S
C664 C669 1.425 . S
C664 C671 1.409 . S
C665 H657 0.930 . S
C665 C663 1.419 . S
C665 C666 1.362 . S
C666 H658 0.930 . S
C666 C665 1.362 . S
C666 C669 1.409 . S
C667 H659 0.930 . S
C667 C668 1.355 . S
C667 C669 1.415 . S
C668 C667 1.355 . S
C668 C670 1.419 . S
C669 C664 1.425 . S
C669 C666 1.409 . S
C669 C667 1.415 . S
C670 H660 0.930 . S
C670 C668 1.419 . S
C670 C671 1.362 . S
C671 H661 0.930 . S
C671 C664 1.409 . S
C671 C670 1.362 . S
H672 C678 0.930 . S
H673 C681 0.930 . S
H674 C682 0.930 . S
H675 C683 0.930 . S
H676 C686 0.930 . S
H677 C687 0.930 . S
C678 H672 0.930 . S
C678 C679 1.355 . S
C678 C680 1.415 . S
C679 C678 1.355 . S
C679 C681 1.419 . S
C680 C678 1.415 . S
C680 C685 1.425 . S
C680 C687 1.409 . S
C681 H673 0.930 . S
C681 C679 1.419 . S
C681 C682 1.362 . S
C682 H674 0.930 . S
C682 C681 1.362 . S
C682 C685 1.409 . S
C683 H675 0.930 . S
C683 C684 1.355 . S
C683 C685 1.415 . S
C684 C683 1.355 . S
C684 C686 1.419 . S
C685 C680 1.425 . S
C685 C682 1.409 . S
C685 C683 1.415 . S
C686 H676 0.930 . S
C686 C684 1.419 . S
C686 C687 1.362 . S
C687 H677 0.930 . S
C687 C680 1.409 . S
C687 C686 1.362 . S
H688 C694 0.930 . S
H689 C697 0.930 . S
H690 C698 0.930 . S
H691 C699 0.930 . S
H692 C702 0.930 . S
H693 C703 0.930 . S
C694 H688 0.930 . S
C694 C695 1.355 . S
C694 C696 1.415 . S
C695 C694 1.355 . S
C695 C697 1.419 . S
C696 C694 1.415 . S
C696 C701 1.425 . S
C696 C703 1.409 . S
C697 H689 0.930 . S
C697 C695 1.419 . S
C697 C698 1.362 . S
C698 H690 0.930 . S
C698 C697 1.362 . S
C698 C701 1.409 . S
C699 H691 0.930 . S
C699 C700 1.355 . S
C699 C701 1.415 . S
C700 C699 1.355 . S
C700 C702 1.419 . S
C701 C696 1.425 . S
C701 C698 1.409 . S
C701 C699 1.415 . S
C702 H692 0.930 . S
C702 C700 1.419 . S
C702 C703 1.362 . S
C703 H693 0.930 . S
C703 C696 1.409 . S
C703 C702 1.362 . S
H704 C710 0.930 . S
H705 C713 0.930 . S
H706 C714 0.930 . S
H707 C715 0.930 . S
H708 C718 0.930 . S
H709 C719 0.930 . S
C710 H704 0.930 . S
C710 C711 1.355 . S
C710 C712 1.415 . S
C711 C710 1.355 . S
C711 C713 1.419 . S
C712 C710 1.415 . S
C712 C717 1.425 . S
C712 C719 1.409 . S
C713 H705 0.930 . S
C713 C711 1.419 . S
C713 C714 1.362 . S
C714 H706 0.930 . S
C714 C713 1.362 . S
C714 C717 1.409 . S
C715 H707 0.930 . S
C715 C716 1.355 . S
C715 C717 1.415 . S
C716 C715 1.355 . S
C716 C718 1.419 . S
C717 C712 1.425 . S
C717 C714 1.409 . S
C717 C715 1.415 . S
C718 H708 0.930 . S
C718 C716 1.419 . S
C718 C719 1.362 . S
C719 H709 0.930 . S
C719 C712 1.409 . S
C719 C718 1.362 . S
H720 C726 0.930 . S
H721 C729 0.930 . S
H722 C730 0.930 1_556 S
H723 C731 0.930 . S
H724 C734 0.930 . S
H725 C735 0.930 . S
C726 H720 0.930 . S
C726 C727 1.355 . S
C726 C728 1.415 . S
C727 C726 1.355 . S
C727 C729 1.419 1_554 S
C728 C726 1.415 . S
C728 C733 1.425 . S
C728 C735 1.409 . S
C729 H721 0.930 . S
C729 C727 1.419 1_556 S
C729 C730 1.362 1_556 S
C730 H722 0.930 1_554 S
C730 C729 1.362 1_554 S
C730 C733 1.409 . S
C731 H723 0.930 . S
C731 C732 1.355 . S
C731 C733 1.415 . S
C732 C731 1.355 . S
C732 C734 1.419 . S
C733 C728 1.425 . S
C733 C730 1.409 . S
C733 C731 1.415 . S
C734 H724 0.930 . S
C734 C732 1.419 . S
C734 C735 1.362 . S
C735 H725 0.930 . S
C735 C728 1.409 . S
C735 C734 1.362 . S
H736 C742 0.930 1_554 S
H737 C745 0.930 . S
H738 C746 0.930 . S
H739 C747 0.930 . S
H740 C750 0.930 . S
H741 C751 0.930 1_554 S
C742 H736 0.930 1_556 S
C742 C743 1.355 . S
C742 C744 1.415 . S
C743 C742 1.355 . S
C743 C745 1.419 . S
C744 C742 1.415 . S
C744 C749 1.425 . S
C744 C751 1.409 . S
C745 H737 0.930 . S
C745 C743 1.419 . S
C745 C746 1.362 . S
C746 H738 0.930 . S
C746 C745 1.362 . S
C746 C749 1.409 . S
C747 H739 0.930 . S
C747 C748 1.355 . S
C747 C749 1.415 . S
C748 C747 1.355 . S
C748 C750 1.419 . S
C749 C744 1.425 . S
C749 C746 1.409 . S
C749 C747 1.415 . S
C750 H740 0.930 . S
C750 C748 1.419 . S
C750 C751 1.362 . S
C751 H741 0.930 1_556 S
C751 C744 1.409 . S
C751 C750 1.362 . S
H752 C758 0.930 . S
H753 C761 0.930 . S
H754 C762 0.930 . S
H755 C763 0.930 . S
H756 C766 0.930 . S
H757 C767 0.930 . S
C758 H752 0.930 . S
C758 C759 1.355 . S
C758 C760 1.415 . S
C759 C758 1.355 . S
C759 C761 1.419 1_554 S
C760 C758 1.415 . S
C760 C765 1.425 . S
C760 C767 1.409 . S
C761 H753 0.930 . S
C761 C759 1.419 1_556 S
C761 C762 1.362 . S
C762 H754 0.930 . S
C762 C761 1.362 . S
C762 C765 1.409 1_556 S
C763 H755 0.930 . S
C763 C764 1.355 . S
C763 C765 1.415 . S
C764 C763 1.355 . S
C764 C766 1.419 . S
C765 C760 1.425 . S
C765 C762 1.409 1_554 S
C765 C763 1.415 . S
C766 H756 0.930 . S
C766 C764 1.419 . S
C766 C767 1.362 . S
C767 H757 0.930 . S
C767 C760 1.409 . S
C767 C766 1.362 . S
H768 C774 0.930 . S
H769 C777 0.930 . S
H770 C778 0.930 . S
H771 C779 0.930 . S
H772 C782 0.930 . S
H773 C783 0.930 . S
C774 H768 0.930 . S
C774 C775 1.355 . S
C774 C776 1.415 . S
C775 C774 1.355 . S
C775 C777 1.419 . S
C776 C774 1.415 . S
C776 C781 1.425 . S
C776 C783 1.409 . S
C777 H769 0.930 . S
C777 C775 1.419 . S
C777 C778 1.362 . S
C778 H770 0.930 . S
C778 C777 1.362 . S
C778 C781 1.409 . S
C779 H771 0.930 . S
C779 C780 1.355 . S
C779 C781 1.415 . S
C780 C779 1.355 . S
C780 C782 1.419 . S
C781 C776 1.425 . S
C781 C778 1.409 . S
C781 C779 1.415 . S
C782 H772 0.930 . S
C782 C780 1.419 . S
C782 C783 1.362 . S
C783 H773 0.930 . S
C783 C776 1.409 . S
C783 C782 1.362 . S
H784 C790 0.930 . S
H785 C793 0.930 . S
H786 C794 0.930 . S
H787 C795 0.930 . S
H788 C798 0.930 . S
H789 C799 0.930 . S
C790 H784 0.930 . S
C790 C791 1.355 . S
C790 C792 1.415 . S
C791 C790 1.355 . S
C791 C793 1.419 . S
C792 C790 1.415 . S
C792 C797 1.425 . S
C792 C799 1.409 . S
C793 H785 0.930 . S
C793 C791 1.419 . S
C793 C794 1.362 . S
C794 H786 0.930 . S
C794 C793 1.362 . S
C794 C797 1.409 . S
C795 H787 0.930 . S
C795 C796 1.355 . S
C795 C797 1.415 . S
C796 C795 1.355 . S
C796 C798 1.419 . S
C797 C792 1.425 . S
C797 C794 1.409 . S
C797 C795 1.415 . S
C798 H788 0.930 . S
C798 C796 1.419 . S
C798 C799 1.362 . S
C799 H789 0.930 . S
C799 C792 1.409 . S
C799 C798 1.362 . S
H800 C806 0.930 . S
H801 C809 0.930 . S
H802 C810 0.930 . S
H803 C811 0.930 . S
H804 C814 0.930 . S
H805 C815 0.930 . S
C806 H800 0.930 . S
C806 C807 1.355 . S
C806 C808 1.415 . S
C807 C806 1.355 . S
C807 C809 1.419 . S
C808 C806 1.415 . S
C808 C813 1.425 . S
C808 C815 1.409 . S
C809 H801 0.930 . S
C809 C807 1.419 . S
C809 C810 1.362 . S
C810 H802 0.930 . S
C810 C809 1.362 . S
C810 C813 1.409 . S
C811 H803 0.930 . S
C811 C812 1.355 . S
C811 C813 1.415 . S
C812 C811 1.355 . S
C812 C814 1.419 . S
C813 C808 1.425 . S
C813 C810 1.409 . S
C813 C811 1.415 . S
C814 H804 0.930 . S
C814 C812 1.419 . S
C814 C815 1.362 . S
C815 H805 0.930 . S
C815 C808 1.409 . S
C815 C814 1.362 . S
H816 C822 0.930 . S
H817 C825 0.930 . S
H818 C826 0.930 . S
H819 C827 0.930 . S
H820 C830 0.930 . S
H821 C831 0.930 . S
C822 H816 0.930 . S
C822 C823 1.355 . S
C822 C824 1.415 . S
C823 C822 1.355 . S
C823 C825 1.419 . S
C824 C822 1.415 . S
C824 C829 1.425 . S
C824 C831 1.409 . S
C825 H817 0.930 . S
C825 C823 1.419 . S
C825 C826 1.362 . S
C826 H818 0.930 . S
C826 C825 1.362 . S
C826 C829 1.409 . S
C827 H819 0.930 . S
C827 C828 1.355 . S
C827 C829 1.415 . S
C828 C827 1.355 . S
C828 C830 1.419 . S
C829 C824 1.425 . S
C829 C826 1.409 . S
C829 C827 1.415 . S
C830 H820 0.930 . S
C830 C828 1.419 . S
C830 C831 1.362 . S
C831 H821 0.930 . S
C831 C824 1.409 . S
C831 C830 1.362 . S
H832 C838 0.930 . S
H833 C841 0.930 . S
H834 C842 0.930 . S
H835 C843 0.930 . S
H836 C846 0.930 . S
H837 C847 0.930 . S
C838 H832 0.930 . S
C838 C839 1.355 . S
C838 C840 1.415 . S
C839 C838 1.355 . S
C839 C841 1.419 . S
C840 C838 1.415 . S
C840 C845 1.425 . S
C840 C847 1.409 . S
C841 H833 0.930 . S
C841 C839 1.419 . S
C841 C842 1.362 . S
C842 H834 0.930 . S
C842 C841 1.362 . S
C842 C845 1.409 . S
C843 H835 0.930 . S
C843 C844 1.355 . S
C843 C845 1.415 . S
C844 C843 1.355 . S
C844 C846 1.419 . S
C845 C840 1.425 . S
C845 C842 1.409 . S
C845 C843 1.415 . S
C846 H836 0.930 . S
C846 C844 1.419 . S
C846 C847 1.362 . S
C847 H837 0.930 . S
C847 C840 1.409 . S
C847 C846 1.362 . S
H848 C854 0.930 . S
H849 C857 0.930 . S
H850 C858 0.930 . S
H851 C859 0.930 . S
H852 C862 0.930 . S
H853 C863 0.930 . S
C854 H848 0.930 . S
C854 C855 1.355 . S
C854 C856 1.415 . S
C855 C854 1.355 . S
C855 C857 1.419 . S
C856 C854 1.415 . S
C856 C861 1.425 . S
C856 C863 1.409 . S
C857 H849 0.930 . S
C857 C855 1.419 . S
C857 C858 1.362 . S
C858 H850 0.930 . S
C858 C857 1.362 . S
C858 C861 1.409 . S
C859 H851 0.930 . S
C859 C860 1.355 . S
C859 C861 1.415 . S
C860 C859 1.355 . S
C860 C862 1.419 . S
C861 C856 1.425 . S
C861 C858 1.409 . S
C861 C859 1.415 . S
C862 H852 0.930 . S
C862 C860 1.419 . S
C862 C863 1.362 . S
C863 H853 0.930 . S
C863 C856 1.409 . S
C863 C862 1.362 . S
H864 C870 0.930 . S
H865 C873 0.930 . S
H866 C874 0.930 . S
H867 C875 0.930 . S
H868 C878 0.930 . S
H869 C879 0.930 . S
C870 H864 0.930 . S
C870 C871 1.355 . S
C870 C872 1.415 . S
C871 C870 1.355 . S
C871 C873 1.419 . S
C872 C870 1.415 . S
C872 C877 1.425 . S
C872 C879 1.409 . S
C873 H865 0.930 . S
C873 C871 1.419 . S
C873 C874 1.362 . S
C874 H866 0.930 . S
C874 C873 1.362 . S
C874 C877 1.409 . S
C875 H867 0.930 . S
C875 C876 1.355 . S
C875 C877 1.415 . S
C876 C875 1.355 . S
C876 C878 1.419 . S
C877 C872 1.425 . S
C877 C874 1.409 . S
C877 C875 1.415 . S
C878 H868 0.930 . S
C878 C876 1.419 . S
C878 C879 1.362 . S
C879 H869 0.930 . S
C879 C872 1.409 . S
C879 C878 1.362 . S
H880 C886 0.930 . S
H881 C889 0.930 . S
H882 C890 0.930 . S
H883 C891 0.930 . S
H884 C894 0.930 . S
H885 C895 0.930 . S
C886 H880 0.930 . S
C886 C887 1.355 . S
C886 C888 1.415 . S
C887 C886 1.355 . S
C887 C889 1.419 . S
C888 C886 1.415 . S
C888 C893 1.425 . S
C888 C895 1.409 . S
C889 H881 0.930 . S
C889 C887 1.419 . S
C889 C890 1.362 . S
C890 H882 0.930 . S
C890 C889 1.362 . S
C890 C893 1.409 . S
C891 H883 0.930 . S
C891 C892 1.355 . S
C891 C893 1.415 . S
C892 C891 1.355 . S
C892 C894 1.419 . S
C893 C888 1.425 . S
C893 C890 1.409 . S
C893 C891 1.415 . S
C894 H884 0.930 . S
C894 C892 1.419 . S
C894 C895 1.362 . S
C895 H885 0.930 . S
C895 C888 1.409 . S
C895 C894 1.362 . S
H896 C902 0.930 . S
H897 C905 0.930 . S
H898 C906 0.930 . S
H899 C907 0.930 . S
H900 C910 0.930 . S
H901 C911 0.930 . S
C902 H896 0.930 . S
C902 C903 1.355 . S
C902 C904 1.415 . S
C903 C902 1.355 . S
C903 C905 1.419 . S
C904 C902 1.415 . S
C904 C909 1.425 . S
C904 C911 1.409 . S
C905 H897 0.930 . S
C905 C903 1.419 . S
C905 C906 1.362 . S
C906 H898 0.930 . S
C906 C905 1.362 . S
C906 C909 1.409 . S
C907 H899 0.930 . S
C907 C908 1.355 . S
C907 C909 1.415 . S
C908 C907 1.355 . S
C908 C910 1.419 . S
C909 C904 1.425 . S
C909 C906 1.409 . S
C909 C907 1.415 . S
C910 H900 0.930 . S
C910 C908 1.419 . S
C910 C911 1.362 . S
C911 H901 0.930 . S
C911 C904 1.409 . S
C911 C910 1.362 . S
H912 C918 0.930 . S
H913 C921 0.930 . S
H914 C922 0.930 . S
H915 C923 0.930 . S
H916 C926 0.930 . S
H917 C927 0.930 . S
C918 H912 0.930 . S
C918 C919 1.355 . S
C918 C920 1.415 . S
C919 C918 1.355 . S
C919 C921 1.419 . S
C920 C918 1.415 . S
C920 C925 1.425 . S
C920 C927 1.409 . S
C921 H913 0.930 . S
C921 C919 1.419 . S
C921 C922 1.362 . S
C922 H914 0.930 . S
C922 C921 1.362 . S
C922 C925 1.409 . S
C923 H915 0.930 . S
C923 C924 1.355 . S
C923 C925 1.415 . S
C924 C923 1.355 . S
C924 C926 1.419 . S
C925 C920 1.425 . S
C925 C922 1.409 . S
C925 C923 1.415 . S
C926 H916 0.930 . S
C926 C924 1.419 . S
C926 C927 1.362 . S
C927 H917 0.930 . S
C927 C920 1.409 . S
C927 C926 1.362 . S
H928 C934 0.930 . S
H929 C937 0.930 . S
H930 C938 0.930 . S
H931 C939 0.930 . S
H932 C942 0.930 . S
H933 C943 0.930 . S
C934 H928 0.930 . S
C934 C935 1.355 . S
C934 C936 1.415 . S
C935 C934 1.355 . S
C935 C937 1.419 . S
C936 C934 1.415 . S
C936 C941 1.425 . S
C936 C943 1.409 . S
C937 H929 0.930 . S
C937 C935 1.419 . S
C937 C938 1.362 . S
C938 H930 0.930 . S
C938 C937 1.362 . S
C938 C941 1.409 . S
C939 H931 0.930 . S
C939 C940 1.355 . S
C939 C941 1.415 . S
C940 C939 1.355 . S
C940 C942 1.419 . S
C941 C936 1.425 . S
C941 C938 1.409 . S
C941 C939 1.415 . S
C942 H932 0.930 . S
C942 C940 1.419 . S
C942 C943 1.362 . S
C943 H933 0.930 . S
C943 C936 1.409 . S
C943 C942 1.362 . S
H944 C950 0.930 . S
H945 C953 0.930 . S
H946 C954 0.930 . S
H947 C955 0.930 . S
H948 C958 0.930 . S
H949 C959 0.930 . S
C950 H944 0.930 . S
C950 C951 1.355 . S
C950 C952 1.415 . S
C951 C950 1.355 . S
C951 C953 1.419 . S
C952 C950 1.415 . S
C952 C957 1.425 . S
C952 C959 1.409 . S
C953 H945 0.930 . S
C953 C951 1.419 . S
C953 C954 1.362 . S
C954 H946 0.930 . S
C954 C953 1.362 . S
C954 C957 1.409 . S
C955 H947 0.930 . S
C955 C956 1.355 . S
C955 C957 1.415 . S
C956 C955 1.355 . S
C956 C958 1.419 . S
C957 C952 1.425 . S
C957 C954 1.409 . S
C957 C955 1.415 . S
C958 H948 0.930 . S
C958 C956 1.419 . S
C958 C959 1.362 . S
C959 H949 0.930 . S
C959 C952 1.409 . S
C959 C958 1.362 . S
H960 C966 0.930 1_556 S
H961 C969 0.930 . S
H962 C970 0.930 . S
H963 C971 0.930 . S
H964 C974 0.930 . S
H965 C975 0.930 . S
C966 H960 0.930 1_554 S
C966 C967 1.355 1_554 S
C966 C968 1.415 . S
C967 C966 1.355 1_556 S
C967 C969 1.419 . S
C968 C966 1.415 . S
C968 C973 1.425 . S
C968 C975 1.409 . S
C969 H961 0.930 . S
C969 C967 1.419 . S
C969 C970 1.362 1_556 S
C970 H962 0.930 . S
C970 C969 1.362 1_554 S
C970 C973 1.409 . S
C971 H963 0.930 . S
C971 C972 1.355 . S
C971 C973 1.415 . S
C972 C971 1.355 . S
C972 C974 1.419 . S
C973 C968 1.425 . S
C973 C970 1.409 . S
C973 C971 1.415 . S
C974 H964 0.930 . S
C974 C972 1.419 . S
C974 C975 1.362 . S
C975 H965 0.930 . S
C975 C968 1.409 . S
C975 C974 1.362 . S
H976 C982 0.930 . S
H977 C985 0.930 . S
H978 C986 0.930 . S
H979 C987 0.930 1_554 S
H980 C990 0.930 . S
H981 C991 0.930 . S
C982 H976 0.930 . S
C982 C983 1.355 . S
C982 C984 1.415 . S
C983 C982 1.355 . S
C983 C985 1.419 . S
C984 C982 1.415 . S
C984 C989 1.425 . S
C984 C991 1.409 . S
C985 H977 0.930 . S
C985 C983 1.419 . S
C985 C986 1.362 . S
C986 H978 0.930 . S
C986 C985 1.362 . S
C986 C989 1.409 . S
C987 H979 0.930 1_556 S
C987 C988 1.355 1_556 S
C987 C989 1.415 . S
C988 C987 1.355 1_554 S
C988 C990 1.419 . S
C989 C984 1.425 . S
C989 C986 1.409 . S
C989 C987 1.415 . S
C990 H980 0.930 . S
C990 C988 1.419 . S
C990 C991 1.362 1_554 S
C991 H981 0.930 . S
C991 C984 1.409 . S
C991 C990 1.362 1_556 S
H992 C998 0.930 . S
H993 C1001 0.930 . S
H994 C1002 0.930 . S
H995 C1003 0.930 1_556 S
H996 C1006 0.930 . S
H997 C1007 0.930 . S
C998 H992 0.930 . S
C998 C999 1.355 . S
C998 C1000 1.415 . S
C999 C998 1.355 . S
C999 C1001 1.419 . S
C1000 C998 1.415 . S
C1000 C1005 1.425 . S
C1000 C1007 1.409 . S
C1001 H993 0.930 . S
C1001 C999 1.419 . S
C1001 C1002 1.362 . S
C1002 H994 0.930 . S
C1002 C1001 1.362 . S
C1002 C1005 1.409 . S
C1003 H995 0.930 1_554 S
C1003 C1004 1.355 1_554 S
C1003 C1005 1.415 . S
C1004 C1003 1.355 1_556 S
C1004 C1006 1.419 . S
C1005 C1000 1.425 . S
C1005 C1002 1.409 . S
C1005 C1003 1.415 . S
C1006 H996 0.930 . S
C1006 C1004 1.419 . S
C1006 C1007 1.362 1_556 S
C1007 H997 0.930 . S
C1007 C1000 1.409 . S
C1007 C1006 1.362 1_554 S
H1008 C1014 0.930 . S
H1009 C1017 0.930 . S
H1010 C1018 0.930 . S
H1011 C1019 0.930 . S
H1012 C1022 0.930 . S
H1013 C1023 0.930 . S
C1014 H1008 0.930 . S
C1014 C1015 1.355 1_556 S
C1014 C1016 1.415 . S
C1015 C1014 1.355 1_554 S
C1015 C1017 1.419 . S
C1016 C1014 1.415 . S
C1016 C1021 1.425 . S
C1016 C1023 1.409 . S
C1017 H1009 0.930 . S
C1017 C1015 1.419 . S
C1017 C1018 1.362 1_554 S
C1018 H1010 0.930 . S
C1018 C1017 1.362 1_556 S
C1018 C1021 1.409 . S
C1019 H1011 0.930 . S
C1019 C1020 1.355 . S
C1019 C1021 1.415 . S
C1020 C1019 1.355 . S
C1020 C1022 1.419 . S
C1021 C1016 1.425 . S
C1021 C1018 1.409 . S
C1021 C1019 1.415 . S
C1022 H1012 0.930 . S
C1022 C1020 1.419 . S
C1022 C1023 1.362 . S
C1023 H1013 0.930 . S
C1023 C1016 1.409 . S
C1023 C1022 1.362 . S
H1024 C1030 0.930 . S
H1025 C1033 0.930 . S
H1026 C1034 0.930 . S
H1027 C1035 0.930 1_556 S
H1028 C1038 0.930 . S
H1029 C1039 0.930 . S
C1030 H1024 0.930 . S
C1030 C1031 1.355 . S
C1030 C1032 1.415 . S
C1031 C1030 1.355 . S
C1031 C1033 1.419 . S
C1032 C1030 1.415 . S
C1032 C1037 1.425 . S
C1032 C1039 1.409 . S
C1033 H1025 0.930 . S
C1033 C1031 1.419 . S
C1033 C1034 1.362 . S
C1034 H1026 0.930 . S
C1034 C1033 1.362 . S
C1034 C1037 1.409 . S
C1035 H1027 0.930 1_554 S
C1035 C1036 1.355 1_554 S
C1035 C1037 1.415 . S
C1036 C1035 1.355 1_556 S
C1036 C1038 1.419 . S
C1037 C1032 1.425 . S
C1037 C1034 1.409 . S
C1037 C1035 1.415 . S
C1038 H1028 0.930 . S
C1038 C1036 1.419 . S
C1038 C1039 1.362 1_556 S
C1039 H1029 0.930 . S
C1039 C1032 1.409 . S
C1039 C1038 1.362 1_554 S
H1040 C1046 0.930 . S
H1041 C1049 0.930 . S
H1042 C1050 0.930 . S
H1043 C1051 0.930 . S
H1044 C1054 0.930 . S
H1045 C1055 0.930 . S
C1046 H1040 0.930 . S
C1046 C1047 1.355 . S
C1046 C1048 1.415 1_554 S
C1047 C1046 1.355 . S
C1047 C1049 1.419 . S
C1048 C1046 1.415 1_556 S
C1048 C1053 1.425 . S
C1048 C1055 1.409 . S
C1049 H1041 0.930 . S
C1049 C1047 1.419 . S
C1049 C1050 1.362 1_554 S
C1050 H1042 0.930 . S
C1050 C1049 1.362 1_556 S
C1050 C1053 1.409 . S
C1051 H1043 0.930 . S
C1051 C1052 1.355 . S
C1051 C1053 1.415 . S
C1052 C1051 1.355 . S
C1052 C1054 1.419 . S
C1053 C1048 1.425 . S
C1053 C1050 1.409 . S
C1053 C1051 1.415 . S
C1054 H1044 0.930 . S
C1054 C1052 1.419 . S
C1054 C1055 1.362 . S
C1055 H1045 0.930 . S
C1055 C1048 1.409 . S
C1055 C1054 1.362 . S
H1056 C1062 0.930 . S
H1057 C1065 0.930 . S
H1058 C1066 0.930 . S
H1059 C1067 0.930 . S
H1060 C1070 0.930 . S
H1061 C1071 0.930 . S
C1062 H1056 0.930 . S
C1062 C1063 1.355 . S
C1062 C1064 1.415 1_556 S
C1063 C1062 1.355 . S
C1063 C1065 1.419 . S
C1064 C1062 1.415 1_554 S
C1064 C1069 1.425 . S
C1064 C1071 1.409 . S
C1065 H1057 0.930 . S
C1065 C1063 1.419 . S
C1065 C1066 1.362 1_556 S
C1066 H1058 0.930 . S
C1066 C1065 1.362 1_554 S
C1066 C1069 1.409 . S
C1067 H1059 0.930 . S
C1067 C1068 1.355 . S
C1067 C1069 1.415 . S
C1068 C1067 1.355 . S
C1068 C1070 1.419 . S
C1069 C1064 1.425 . S
C1069 C1066 1.409 . S
C1069 C1067 1.415 . S
C1070 H1060 0.930 . S
C1070 C1068 1.419 . S
C1070 C1071 1.362 . S
C1071 H1061 0.930 . S
C1071 C1064 1.409 . S
C1071 C1070 1.362 . S
H1072 C1078 0.930 . S
H1073 C1081 0.930 . S
H1074 C1082 0.930 . S
H1075 C1083 0.930 1_554 S
H1076 C1086 0.930 . S
H1077 C1087 0.930 . S
C1078 H1072 0.930 . S
C1078 C1079 1.355 . S
C1078 C1080 1.415 . S
C1079 C1078 1.355 . S
C1079 C1081 1.419 . S
C1080 C1078 1.415 . S
C1080 C1085 1.425 . S
C1080 C1087 1.409 . S
C1081 H1073 0.930 . S
C1081 C1079 1.419 . S
C1081 C1082 1.362 . S
C1082 H1074 0.930 . S
C1082 C1081 1.362 . S
C1082 C1085 1.409 . S
C1083 H1075 0.930 1_556 S
C1083 C1084 1.355 1_556 S
C1083 C1085 1.415 . S
C1084 C1083 1.355 1_554 S
C1084 C1086 1.419 . S
C1085 C1080 1.425 . S
C1085 C1082 1.409 . S
C1085 C1083 1.415 . S
C1086 H1076 0.930 . S
C1086 C1084 1.419 . S
C1086 C1087 1.362 1_554 S
C1087 H1077 0.930 . S
C1087 C1080 1.409 . S
C1087 C1086 1.362 1_556 S
C327 C226 1.564 . S
C332 C9 1.627 . S
C343 C176 1.534 . S
C348 C21 1.609 . S
C359 C49 1.612 . S
C364 C186 1.511 . S
C375 C61 1.595 . S
C380 C216 1.486 . S
C391 C89 1.603 . S
C396 C106 1.523 . S
C407 C136 1.540 . S
C412 C101 1.612 . S
C423 C129 1.639 . S
C428 C146 1.568 . S
C439 C96 1.514 . S
C444 C141 1.614 . S
C455 C66 1.567 . S
C460 C169 1.629 . S
C471 C181 1.630 . S
C476 C16 1.568 . S
C487 C26 1.545 . S
C492 C209 1.615 . S
C503 C56 1.516 . S
C508 C221 1.600 . S
C519 C249 1.591 . S
C524 C266 1.484 . S
C535 C296 1.502 . S
C540 C261 1.607 . S
C551 C306 1.551 . S
C556 C289 1.633 . S
C567 C301 1.617 . S
C572 C256 1.548 . S
C583 C1 1.542 . S
C588 C81 1.547 . S
C599 C109 1.600 . S
C604 C29 1.605 . S
C615 C41 1.549 . S
C620 C121 1.556 . S
C631 C69 1.539 . S
C636 C149 1.544 . S
C647 C161 1.594 . S
C652 C241 1.587 . S
C663 C269 1.599 . S
C668 C189 1.604 . S
C679 C201 1.561 . S
C684 C281 1.569 . S
C695 C229 1.608 . S
C700 C309 1.610 . S
C711 C286 1.496 . S
C716 C6 1.489 1_556 S
C727 C36 1.473 1_554 S
C732 C316 1.479 . S
C743 C46 1.514 1_556 S
C748 C246 1.518 . S
C759 C76 1.467 1_554 S
C764 C276 1.471 . S
C775 C86 1.520 . S
C780 C206 1.517 . S
C791 C116 1.514 . S
C796 C236 1.509 . S
C807 C126 1.465 . S
C812 C166 1.468 . S
C823 C196 1.480 . S
C828 C156 1.487 . S
C839 C8 1.811 . S
C844 C19 1.811 . S
C855 C39 1.764 . S
C860 C28 1.764 . S
C871 C48 1.762 . S
C876 C59 1.762 . S
C887 C68 1.787 . S
C892 C79 1.787 . S
C903 C99 1.815 . S
C908 C88 1.815 . S
C919 C119 1.840 . S
C924 C108 1.840 . S
C935 C128 1.764 . S
C940 C139 1.764 . S
C951 C148 1.811 . S
C956 C159 1.811 . S
C967 C168 1.813 . S
C972 C179 1.813 . S
C983 C188 1.839 . S
C988 C199 1.839 . S
C999 C219 1.818 . S
C1004 C208 1.818 . S
C1015 C239 1.760 . S
C1020 C228 1.760 . S
C1031 C248 1.758 . S
C1036 C259 1.758 . S
C1047 C268 1.842 . S
C1052 C279 1.842 . S
C1063 C299 1.833 . S
C1068 C288 1.833 . S
C1079 C319 1.813 . S
C1084 C308 1.813 . S
