# Generated by pormake.
# Topology ict, (4)-cn, num edge types: 1
# Building blocks:
#     Node 0, Type 0, BuildingBlock: CEKHIL_clean_sbu_0, # of connection points: 4
#     Node 1, Type 0, BuildingBlock: CEKHIL_clean_sbu_0, # of connection points: 4
#     Node 2, Type 0, BuildingBlock: CEKHIL_clean_sbu_0, # of connection points: 4
#     Node 3, Type 0, BuildingBlock: CEKHIL_clean_sbu_0, # of connection points: 4
#     Node 4, Type 0, BuildingBlock: CEKHIL_clean_sbu_0, # of connection points: 4
#     Node 5, Type 0, BuildingBlock: CEKHIL_clean_sbu_0, # of connection points: 4
#     Node 6, Type 0, BuildingBlock: CEKHIL_clean_sbu_0, # of connection points: 4
#     Node 7, Type 0, BuildingBlock: CEKHIL_clean_sbu_0, # of connection points: 4
#     Node 8, Type 0, BuildingBlock: CEKHIL_clean_sbu_0, # of connection points: 4
#     Node 9, Type 0, BuildingBlock: CEKHIL_clean_sbu_0, # of connection points: 4
#     Node 10, Type 0, BuildingBlock: CEKHIL_clean_sbu_0, # of connection points: 4
#     Node 11, Type 0, BuildingBlock: CEKHIL_clean_sbu_0, # of connection points: 4
#     Node 12, Type 0, BuildingBlock: CEKHIL_clean_sbu_0, # of connection points: 4
#     Node 13, Type 0, BuildingBlock: CEKHIL_clean_sbu_0, # of connection points: 4
#     Node 14, Type 0, BuildingBlock: CEKHIL_clean_sbu_0, # of connection points: 4
#     Node 15, Type 0, BuildingBlock: CEKHIL_clean_sbu_0, # of connection points: 4
#     Node 16, Type 0, BuildingBlock: CEKHIL_clean_sbu_0, # of connection points: 4
#     Node 17, Type 0, BuildingBlock: CEKHIL_clean_sbu_0, # of connection points: 4
#     Node 18, Type 0, BuildingBlock: CEKHIL_clean_sbu_0, # of connection points: 4
#     Node 19, Type 0, BuildingBlock: CEKHIL_clean_sbu_0, # of connection points: 4
#     Node 20, Type 0, BuildingBlock: CEKHIL_clean_sbu_0, # of connection points: 4
#     Node 21, Type 0, BuildingBlock: CEKHIL_clean_sbu_0, # of connection points: 4
#     Node 22, Type 0, BuildingBlock: CEKHIL_clean_sbu_0, # of connection points: 4
#     Node 23, Type 0, BuildingBlock: CEKHIL_clean_sbu_0, # of connection points: 4
#     Node 24, Type 0, BuildingBlock: CEKHIL_clean_sbu_0, # of connection points: 4
#     Node 25, Type 0, BuildingBlock: CEKHIL_clean_sbu_0, # of connection points: 4
#     Node 26, Type 0, BuildingBlock: CEKHIL_clean_sbu_0, # of connection points: 4
#     Node 27, Type 0, BuildingBlock: CEKHIL_clean_sbu_0, # of connection points: 4
#     Node 28, Type 0, BuildingBlock: CEKHIL_clean_sbu_0, # of connection points: 4
#     Node 29, Type 0, BuildingBlock: CEKHIL_clean_sbu_0, # of connection points: 4
#     Node 30, Type 0, BuildingBlock: CEKHIL_clean_sbu_0, # of connection points: 4
#     Node 31, Type 0, BuildingBlock: CEKHIL_clean_sbu_0, # of connection points: 4
#     Node 32, Type 0, BuildingBlock: CEKHIL_clean_sbu_0, # of connection points: 4
#     Node 33, Type 0, BuildingBlock: CEKHIL_clean_sbu_0, # of connection points: 4
#     Node 34, Type 0, BuildingBlock: CEKHIL_clean_sbu_0, # of connection points: 4
#     Node 35, Type 0, BuildingBlock: CEKHIL_clean_sbu_0, # of connection points: 4
#     Edge 36, Type (0, 0), BuildingBlock: ZUJKAS_clean_linker_0, # of connection points: 2
#     Edge 37, Type (0, 0), BuildingBlock: ZUJKAS_clean_linker_0, # of connection points: 2
#     Edge 38, Type (0, 0), BuildingBlock: ZUJKAS_clean_linker_0, # of connection points: 2
#     Edge 39, Type (0, 0), BuildingBlock: ZUJKAS_clean_linker_0, # of connection points: 2
#     Edge 40, Type (0, 0), BuildingBlock: ZUJKAS_clean_linker_0, # of connection points: 2
#     Edge 41, Type (0, 0), BuildingBlock: ZUJKAS_clean_linker_0, # of connection points: 2
#     Edge 42, Type (0, 0), BuildingBlock: ZUJKAS_clean_linker_0, # of connection points: 2
#     Edge 43, Type (0, 0), BuildingBlock: ZUJKAS_clean_linker_0, # of connection points: 2
#     Edge 44, Type (0, 0), BuildingBlock: ZUJKAS_clean_linker_0, # of connection points: 2
#     Edge 45, Type (0, 0), BuildingBlock: ZUJKAS_clean_linker_0, # of connection points: 2
#     Edge 46, Type (0, 0), BuildingBlock: ZUJKAS_clean_linker_0, # of connection points: 2
#     Edge 47, Type (0, 0), BuildingBlock: ZUJKAS_clean_linker_0, # of connection points: 2
#     Edge 48, Type (0, 0), BuildingBlock: ZUJKAS_clean_linker_0, # of connection points: 2
#     Edge 49, Type (0, 0), BuildingBlock: ZUJKAS_clean_linker_0, # of connection points: 2
#     Edge 50, Type (0, 0), BuildingBlock: ZUJKAS_clean_linker_0, # of connection points: 2
#     Edge 51, Type (0, 0), BuildingBlock: ZUJKAS_clean_linker_0, # of connection points: 2
#     Edge 52, Type (0, 0), BuildingBlock: ZUJKAS_clean_linker_0, # of connection points: 2
#     Edge 53, Type (0, 0), BuildingBlock: ZUJKAS_clean_linker_0, # of connection points: 2
#     Edge 54, Type (0, 0), BuildingBlock: ZUJKAS_clean_linker_0, # of connection points: 2
#     Edge 55, Type (0, 0), BuildingBlock: ZUJKAS_clean_linker_0, # of connection points: 2
#     Edge 56, Type (0, 0), BuildingBlock: ZUJKAS_clean_linker_0, # of connection points: 2
#     Edge 57, Type (0, 0), BuildingBlock: ZUJKAS_clean_linker_0, # of connection points: 2
#     Edge 58, Type (0, 0), BuildingBlock: ZUJKAS_clean_linker_0, # of connection points: 2
#     Edge 59, Type (0, 0), BuildingBlock: ZUJKAS_clean_linker_0, # of connection points: 2
#     Edge 60, Type (0, 0), BuildingBlock: ZUJKAS_clean_linker_0, # of connection points: 2
#     Edge 61, Type (0, 0), BuildingBlock: ZUJKAS_clean_linker_0, # of connection points: 2
#     Edge 62, Type (0, 0), BuildingBlock: ZUJKAS_clean_linker_0, # of connection points: 2
#     Edge 63, Type (0, 0), BuildingBlock: ZUJKAS_clean_linker_0, # of connection points: 2
#     Edge 64, Type (0, 0), BuildingBlock: ZUJKAS_clean_linker_0, # of connection points: 2
#     Edge 65, Type (0, 0), BuildingBlock: ZUJKAS_clean_linker_0, # of connection points: 2
#     Edge 66, Type (0, 0), BuildingBlock: ZUJKAS_clean_linker_0, # of connection points: 2
#     Edge 67, Type (0, 0), BuildingBlock: ZUJKAS_clean_linker_0, # of connection points: 2
#     Edge 68, Type (0, 0), BuildingBlock: ZUJKAS_clean_linker_0, # of connection points: 2
#     Edge 69, Type (0, 0), BuildingBlock: ZUJKAS_clean_linker_0, # of connection points: 2
#     Edge 70, Type (0, 0), BuildingBlock: ZUJKAS_clean_linker_0, # of connection points: 2
#     Edge 71, Type (0, 0), BuildingBlock: ZUJKAS_clean_linker_0, # of connection points: 2
#     Edge 72, Type (0, 0), BuildingBlock: ZUJKAS_clean_linker_0, # of connection points: 2
#     Edge 73, Type (0, 0), BuildingBlock: ZUJKAS_clean_linker_0, # of connection points: 2
#     Edge 74, Type (0, 0), BuildingBlock: ZUJKAS_clean_linker_0, # of connection points: 2
#     Edge 75, Type (0, 0), BuildingBlock: ZUJKAS_clean_linker_0, # of connection points: 2
#     Edge 76, Type (0, 0), BuildingBlock: ZUJKAS_clean_linker_0, # of connection points: 2
#     Edge 77, Type (0, 0), BuildingBlock: ZUJKAS_clean_linker_0, # of connection points: 2
#     Edge 78, Type (0, 0), BuildingBlock: ZUJKAS_clean_linker_0, # of connection points: 2
#     Edge 79, Type (0, 0), BuildingBlock: ZUJKAS_clean_linker_0, # of connection points: 2
#     Edge 80, Type (0, 0), BuildingBlock: ZUJKAS_clean_linker_0, # of connection points: 2
#     Edge 81, Type (0, 0), BuildingBlock: ZUJKAS_clean_linker_0, # of connection points: 2
#     Edge 82, Type (0, 0), BuildingBlock: ZUJKAS_clean_linker_0, # of connection points: 2
#     Edge 83, Type (0, 0), BuildingBlock: ZUJKAS_clean_linker_0, # of connection points: 2
#     Edge 84, Type (0, 0), BuildingBlock: ZUJKAS_clean_linker_0, # of connection points: 2
#     Edge 85, Type (0, 0), BuildingBlock: ZUJKAS_clean_linker_0, # of connection points: 2
#     Edge 86, Type (0, 0), BuildingBlock: ZUJKAS_clean_linker_0, # of connection points: 2
#     Edge 87, Type (0, 0), BuildingBlock: ZUJKAS_clean_linker_0, # of connection points: 2
#     Edge 88, Type (0, 0), BuildingBlock: ZUJKAS_clean_linker_0, # of connection points: 2
#     Edge 89, Type (0, 0), BuildingBlock: ZUJKAS_clean_linker_0, # of connection points: 2
#     Edge 90, Type (0, 0), BuildingBlock: ZUJKAS_clean_linker_0, # of connection points: 2
#     Edge 91, Type (0, 0), BuildingBlock: ZUJKAS_clean_linker_0, # of connection points: 2
#     Edge 92, Type (0, 0), BuildingBlock: ZUJKAS_clean_linker_0, # of connection points: 2
#     Edge 93, Type (0, 0), BuildingBlock: ZUJKAS_clean_linker_0, # of connection points: 2
#     Edge 94, Type (0, 0), BuildingBlock: ZUJKAS_clean_linker_0, # of connection points: 2
#     Edge 95, Type (0, 0), BuildingBlock: ZUJKAS_clean_linker_0, # of connection points: 2
#     Edge 96, Type (0, 0), BuildingBlock: ZUJKAS_clean_linker_0, # of connection points: 2
#     Edge 97, Type (0, 0), BuildingBlock: ZUJKAS_clean_linker_0, # of connection points: 2
#     Edge 98, Type (0, 0), BuildingBlock: ZUJKAS_clean_linker_0, # of connection points: 2
#     Edge 99, Type (0, 0), BuildingBlock: ZUJKAS_clean_linker_0, # of connection points: 2
#     Edge 100, Type (0, 0), BuildingBlock: ZUJKAS_clean_linker_0, # of connection points: 2
#     Edge 101, Type (0, 0), BuildingBlock: ZUJKAS_clean_linker_0, # of connection points: 2
#     Edge 102, Type (0, 0), BuildingBlock: ZUJKAS_clean_linker_0, # of connection points: 2
#     Edge 103, Type (0, 0), BuildingBlock: ZUJKAS_clean_linker_0, # of connection points: 2
#     Edge 104, Type (0, 0), BuildingBlock: ZUJKAS_clean_linker_0, # of connection points: 2
#     Edge 105, Type (0, 0), BuildingBlock: ZUJKAS_clean_linker_0, # of connection points: 2
#     Edge 106, Type (0, 0), BuildingBlock: ZUJKAS_clean_linker_0, # of connection points: 2
#     Edge 107, Type (0, 0), BuildingBlock: ZUJKAS_clean_linker_0, # of connection points: 2
# Relax obj value: 0.096
# Max RMSD: 0.120
# Mean RMSD: 0.120
data_MOF--net-ict--node1-CEKHIL_clean_sbu_0--edge1-ZUJKAS_clean_linker_0
_symmetry_space_group_name_H-M    P1
_symmetry_Int_Tables_number       1
_symmetry_cell_setting            triclinic
loop_
_symmetry_equiv_pos_as_xyz
'x, y, z'
_cell_length_a     83.361482
_cell_length_b     83.396849
_cell_length_c     47.899929
_cell_angle_alpha  90.000285
_cell_angle_beta   90.000605
_cell_angle_gamma 120.04184
loop_
_atom_site_label
_atom_site_type_symbol
_atom_site_fract_x
_atom_site_fract_y
_atom_site_fract_z
_atom_type_partial_charge
Co0 Co 0.23355 0.21974 0.04253 0.0
O1 O 0.24126 0.22319 0.00404 0.0
O2 O 0.26029 0.23462 0.04012 0.0
C3 C 0.2103 0.22586 0.03616 0.0
O4 O 0.2308 0.21988 0.0851 0.0
Co5 Co 0.19446 0.1891 0.0608 0.0
O6 O 0.20047 0.20388 0.09552 0.0
C7 C 0.22273 0.17908 0.0461 0.0
C8 C 0.25814 0.23279 0.01318 0.0
C9 C 0.21725 0.21485 0.10241 0.0
O10 O 0.23504 0.19632 0.04368 0.0
O11 O 0.20567 0.17331 0.05162 0.0
O12 O 0.22725 0.23934 0.03928 0.0
O13 O 0.20822 0.20945 0.03517 0.0
Co14 Co 0.78222 0.01505 0.0453 0.0
O15 O 0.77882 0.01929 0.0068 0.0
O16 O 0.76726 0.02678 0.04281 0.0
C17 C 0.77623 0.98574 0.03891 0.0
O18 O 0.782 0.01214 0.08786 0.0
Co19 Co 0.81289 0.00678 0.06388 0.0
O20 O 0.79766 0.99747 0.09815 0.0
C21 C 0.82285 0.04503 0.049 0.0
C22 C 0.76914 0.02648 0.01588 0.0
C23 C 0.78672 0.00331 0.10501 0.0
O24 O 0.8056 0.04003 0.04652 0.0
O25 O 0.82865 0.03379 0.05465 0.0
O26 O 0.76269 0.98911 0.042 0.0
O27 O 0.79263 1.00012 0.03802 0.0
Co28 Co 0.98814 0.76978 0.04347 0.0
O29 O 0.98416 0.76174 0.00518 0.0
O30 O 0.97555 0.74298 0.04168 0.0
C31 C 0.0179 0.79234 0.0375 0.0
O32 O 0.99058 0.77303 0.08599 0.0
Co33 Co 0.9976 0.8096 0.05944 0.0
O34 O 0.0046 0.80346 0.09576 0.0
C35 C 0.95965 0.78224 0.04133 0.0
C36 C 0.9763 0.74492 0.01466 0.0
C37 C 0.99863 0.78674 0.10316 0.0
O38 O 0.96362 0.76921 0.04334 0.0
O39 O 0.9717 0.79938 0.04484 0.0
O40 O 0.0139 0.77529 0.04128 0.0
O41 O 0.00387 0.79485 0.03559 0.0
Co42 Co 0.22079 0.23398 0.45972 0.0
O43 O 0.22451 0.24177 0.49814 0.0
O44 O 0.23482 0.26078 0.46193 0.0
C45 C 0.2282 0.21158 0.46548 0.0
O46 O 0.22039 0.23106 0.41717 0.0
Co47 Co 0.19079 0.19417 0.44286 0.0
O48 O 0.20464 0.20064 0.40712 0.0
C49 C 0.17971 0.22112 0.46104 0.0
C50 C 0.23344 0.25865 0.48891 0.0
C51 C 0.21525 0.21745 0.39997 0.0
O52 O 0.1967 0.23428 0.45953 0.0
O53 O 0.17478 0.20406 0.45719 0.0
O54 O 0.2412 0.22872 0.46213 0.0
O55 O 0.21159 0.2089 0.46718 0.0
Co56 Co 0.76901 0.98709 0.46214 0.0
O57 O 0.76101 0.98299 0.50045 0.0
O58 O 0.74223 0.97506 0.46402 0.0
C59 C 0.79206 0.01657 0.46853 0.0
O60 O 0.77214 0.98976 0.41964 0.0
Co61 Co 0.80838 0.99566 0.44542 0.0
O62 O 0.8025 0.0034 0.40956 0.0
C63 C 0.78027 0.95756 0.46153 0.0
C64 C 0.7442 0.97555 0.49102 0.0
C65 C 0.78579 0.99774 0.40236 0.0
O66 O 0.76771 0.96225 0.46161 0.0
O67 O 0.79746 0.9691 0.45726 0.0
O68 O 0.77512 0.01297 0.46484 0.0
O69 O 0.79422 0.00232 0.47004 0.0
Co70 Co 0.01469 0.78279 0.46067 0.0
O71 O 0.01923 0.77927 0.49896 0.0
O72 O 0.02731 0.7686 0.4625 0.0
C73 C 0.98503 0.77567 0.46757 0.0
O74 O 0.01164 0.78295 0.41819 0.0
Co75 Co 0.00486 0.81276 0.444 0.0
O76 O 0.99697 0.79873 0.40846 0.0
C77 C 0.04311 0.82378 0.46114 0.0
C78 C 0.02694 0.77016 0.4895 0.0
C79 C 0.00303 0.78804 0.40117 0.0
O80 O 0.03918 0.80677 0.45977 0.0
O81 O 0.03098 0.82875 0.45756 0.0
O82 O 0.98896 0.76255 0.46391 0.0
O83 O 0.99908 0.79223 0.4687 0.0
Co84 Co 0.76984 0.78341 0.96105 0.0
O85 O 0.76163 0.77949 0.99929 0.0
O86 O 0.74301 0.76936 0.96262 0.0
C87 C 0.79222 0.77603 0.96739 0.0
O88 O 0.77319 0.78401 0.91857 0.0
Co89 Co 0.80986 0.81342 0.94499 0.0
O90 O 0.8037 0.79981 0.90906 0.0
C91 C 0.78276 0.82447 0.96259 0.0
C92 C 0.74484 0.7706 0.98965 0.0
C93 C 0.78694 0.78924 0.9016 0.0
O94 O 0.76957 0.80751 0.96084 0.0
O95 O 0.79985 0.82937 0.95907 0.0
O96 O 0.77513 0.76302 0.96361 0.0
O97 O 0.79485 0.7926 0.96909 0.0
Co98 Co 0.22001 0.98724 0.95878 0.0
O99 O 0.22294 0.98256 0.99728 0.0
O100 O 0.23406 0.97452 0.96134 0.0
C101 C 0.2272 0.0169 0.96509 0.0
O102 O 0.22049 0.99044 0.91625 0.0
Co103 Co 0.18996 0.99685 0.94119 0.0
O104 O 0.20331 0.00341 0.90508 0.0
C105 C 0.17901 0.95885 0.95903 0.0
C106 C 0.23212 0.97482 0.98827 0.0
C107 C 0.21466 0.99801 0.89847 0.0
O108 O 0.19601 0.96278 0.95728 0.0
O109 O 0.17402 0.97097 0.95562 0.0
O110 O 0.24031 0.01287 0.96256 0.0
O111 O 0.21056 0.00296 0.96599 0.0
Co112 Co 0.01474 0.23292 0.9586 0.0
O113 O 0.01916 0.24042 0.99717 0.0
O114 O 0.02777 0.2597 0.96133 0.0
C115 C 0.98488 0.21071 0.96444 0.0
O116 O 0.01187 0.23034 0.916 0.0
Co117 Co 0.00462 0.19313 0.94096 0.0
O118 O 0.9988 0.20023 0.90453 0.0
C119 C 0.0426 0.21968 0.95965 0.0
C120 C 0.02715 0.25738 0.98826 0.0
C121 C 0.00444 0.21704 0.89802 0.0
O122 O 0.03901 0.23298 0.95764 0.0
O123 O 0.03027 0.20265 0.95611 0.0
O124 O 0.9892 0.22793 0.96186 0.0
O125 O 0.99865 0.20777 0.96561 0.0
Co126 Co 0.78303 0.76941 0.54396 0.0
O127 O 0.77952 0.76149 0.50562 0.0
O128 O 0.7691 0.7426 0.54195 0.0
C129 C 0.77547 0.79166 0.53775 0.0
O130 O 0.7833 0.77255 0.58647 0.0
Co131 Co 0.81296 0.80934 0.56043 0.0
O132 O 0.79917 0.80301 0.5962 0.0
C133 C 0.8242 0.78221 0.54413 0.0
C134 C 0.77057 0.74463 0.51496 0.0
C135 C 0.78855 0.78625 0.60355 0.0
O136 O 0.80714 0.76917 0.54476 0.0
O137 O 0.82921 0.7993 0.54783 0.0
O138 O 0.76255 0.77449 0.54106 0.0
O139 O 0.79215 0.79449 0.53621 0.0
Co140 Co 0.23249 0.01518 0.5434 0.0
O141 O 0.24033 0.01896 0.50499 0.0
O142 O 0.25926 0.02738 0.5413 0.0
C143 C 0.20955 0.98555 0.53799 0.0
O144 O 0.22953 0.01282 0.58593 0.0
Co145 Co 0.19304 0.00665 0.55987 0.0
O146 O 0.19946 0.00086 0.5969 0.0
C147 C 0.22067 0.04409 0.5406 0.0
C148 C 0.25719 0.02662 0.51431 0.0
C149 C 0.21612 0.00597 0.60375 0.0
O150 O 0.23353 0.03992 0.54324 0.0
O151 O 0.20347 0.03224 0.54401 0.0
O152 O 0.22656 0.9893 0.54134 0.0
O153 O 0.20729 0.99972 0.53596 0.0
Co154 Co 0.98829 0.21969 0.54283 0.0
O155 O 0.98381 0.22306 0.50443 0.0
O156 O 0.97581 0.23398 0.54066 0.0
C157 C 0.01793 0.22661 0.53638 0.0
O158 O 0.99132 0.21977 0.58534 0.0
Co159 Co 0.99771 0.18947 0.5599 0.0
O160 O 0.00412 0.20242 0.59635 0.0
C161 C 0.95957 0.17871 0.54289 0.0
C162 C 0.97617 0.23228 0.51369 0.0
C163 C 0.99872 0.21375 0.60311 0.0
O164 O 0.96368 0.19579 0.54394 0.0
O165 O 0.97159 0.17361 0.54642 0.0
O166 O 0.01408 0.2398 0.53961 0.0
O167 O 0.00383 0.21009 0.53519 0.0
Co168 Co 0.89968 0.55265 0.37643 0.0
O169 O 0.90765 0.55664 0.3381 0.0
O170 O 0.9265 0.56678 0.37451 0.0
C171 C 0.87717 0.55992 0.37072 0.0
O172 O 0.89654 0.55192 0.41896 0.0
Co173 Co 0.85982 0.52235 0.39267 0.0
O174 O 0.86609 0.53571 0.42882 0.0
C175 C 0.88707 0.51165 0.37459 0.0
C176 C 0.9245 0.56554 0.3475 0.0
C177 C 0.88286 0.54641 0.43615 0.0
O178 O 0.90013 0.52866 0.37635 0.0
O179 O 0.86995 0.50657 0.37825 0.0
O180 O 0.89427 0.57297 0.37426 0.0
O181 O 0.8746 0.54337 0.36877 0.0
Co182 Co 0.45106 0.34867 0.37891 0.0
O183 O 0.44815 0.3543 0.3409 0.0
O184 O 0.43639 0.36077 0.37786 0.0
C185 C 0.44435 0.31929 0.37049 0.0
O186 O 0.45067 0.34454 0.42116 0.0
Co187 Co 0.48124 0.33895 0.39492 0.0
O188 O 0.46826 0.33189 0.43134 0.0
C189 C 0.49192 0.37736 0.37956 0.0
C190 C 0.43854 0.3613 0.35092 0.0
C191 C 0.45678 0.337 0.4385 0.0
O192 O 0.47486 0.37329 0.38131 0.0
O193 O 0.49698 0.36524 0.38203 0.0
O194 O 0.43108 0.32298 0.3742 0.0
O195 O 0.46087 0.33346 0.37002 0.0
Co196 Co 0.65417 0.10151 0.3777 0.0
O197 O 0.64943 0.09332 0.33951 0.0
O198 O 0.64177 0.0747 0.37609 0.0
C199 C 0.68371 0.12421 0.37037 0.0
O200 O 0.65749 0.10493 0.4201 0.0
Co201 Co 0.66365 0.14126 0.39401 0.0
O202 O 0.67184 0.13542 0.42952 0.0
C203 C 0.62525 0.11349 0.37844 0.0
C204 C 0.64194 0.07655 0.34908 0.0
C205 C 0.66601 0.11873 0.43697 0.0
O206 O 0.62954 0.10065 0.37909 0.0
O207 O 0.63718 0.13067 0.38188 0.0
O208 O 0.67993 0.10723 0.37411 0.0
O209 O 0.66956 0.12658 0.36936 0.0
Co210 Co 0.88785 0.56665 0.79364 0.0
O211 O 0.89152 0.57482 0.83186 0.0
O212 O 0.90175 0.59347 0.79524 0.0
C213 C 0.89544 0.54444 0.80018 0.0
O214 O 0.88742 0.56325 0.75119 0.0
Co215 Co 0.85794 0.52657 0.77775 0.0
O216 O 0.87163 0.53272 0.74189 0.0
C217 C 0.84668 0.55369 0.79412 0.0
C218 C 0.90038 0.59161 0.82226 0.0
C219 C 0.88219 0.54945 0.73432 0.0
O220 O 0.8637 0.56682 0.79296 0.0
O221 O 0.84176 0.5366 0.79073 0.0
O222 O 0.90836 0.56157 0.79652 0.0
O223 O 0.87879 0.54166 0.80177 0.0
Co224 Co 0.43748 0.3202 0.79401 0.0
O225 O 0.429 0.31567 0.83211 0.0
O226 O 0.41066 0.30759 0.79515 0.0
C227 C 0.45995 0.34989 0.801 0.0
O228 O 0.44108 0.32326 0.75162 0.0
Co229 Co 0.47743 0.32991 0.77852 0.0
O230 O 0.47137 0.33609 0.74152 0.0
C231 C 0.44995 0.29167 0.79494 0.0
C232 C 0.41229 0.30799 0.8222 0.0
C233 C 0.45471 0.33061 0.73421 0.0
O234 O 0.43693 0.29569 0.79339 0.0
O235 O 0.46711 0.30376 0.79187 0.0
O236 O 0.44292 0.34589 0.79694 0.0
O237 O 0.4625 0.33588 0.80256 0.0
Co238 Co 0.68072 0.11606 0.79457 0.0
O239 O 0.68485 0.11206 0.83283 0.0
O240 O 0.69375 0.1023 0.79621 0.0
C241 C 0.65079 0.10823 0.80042 0.0
O242 O 0.67823 0.11682 0.75208 0.0
Co243 Co 0.67057 0.14591 0.77858 0.0
O244 O 0.66366 0.13269 0.74231 0.0
C245 C 0.7087 0.15721 0.79655 0.0
C246 C 0.69296 0.10338 0.82323 0.0
C247 C 0.66994 0.1222 0.73492 0.0
O248 O 0.70498 0.14028 0.7947 0.0
O249 O 0.69647 0.16203 0.79296 0.0
O250 O 0.65516 0.09543 0.79676 0.0
O251 O 0.66457 0.12492 0.80242 0.0
Co252 Co 0.43665 0.11617 0.29547 0.0
O253 O 0.42815 0.11241 0.33353 0.0
O254 O 0.40981 0.1023 0.29655 0.0
C255 C 0.45878 0.10854 0.30277 0.0
O256 O 0.44031 0.11667 0.2531 0.0
Co257 Co 0.47687 0.14586 0.27998 0.0
O258 O 0.47081 0.13272 0.24366 0.0
C259 C 0.4498 0.15732 0.29597 0.0
C260 C 0.41143 0.10356 0.3236 0.0
C261 C 0.45407 0.12214 0.23609 0.0
O262 O 0.43657 0.14036 0.29465 0.0
O263 O 0.46689 0.16209 0.29286 0.0
O264 O 0.44169 0.09565 0.29861 0.0
O265 O 0.46157 0.12519 0.30414 0.0
Co266 Co 0.88583 0.32073 0.29359 0.0
O267 O 0.88979 0.31654 0.33184 0.0
O268 O 0.90023 0.30834 0.29524 0.0
C269 C 0.89277 0.35038 0.29974 0.0
O270 O 0.88524 0.32351 0.25111 0.0
Co271 Co 0.85515 0.32984 0.27783 0.0
O272 O 0.86762 0.33615 0.24099 0.0
C273 C 0.84487 0.29186 0.29489 0.0
C274 C 0.89893 0.3089 0.32226 0.0
C275 C 0.8789 0.33081 0.2337 0.0
O276 O 0.86196 0.29607 0.29322 0.0
O277 O 0.83961 0.30378 0.29168 0.0
O278 O 0.90595 0.34654 0.29616 0.0
O279 O 0.87628 0.33626 0.30158 0.0
Co280 Co 0.68207 0.56674 0.29314 0.0
O281 O 0.68642 0.57471 0.33147 0.0
O282 O 0.69468 0.59356 0.29511 0.0
C283 C 0.65237 0.54416 0.29971 0.0
O284 O 0.67923 0.56359 0.25064 0.0
Co285 Co 0.67249 0.527 0.27661 0.0
O286 O 0.66493 0.53315 0.24078 0.0
C287 C 0.71058 0.55431 0.29418 0.0
C288 C 0.69419 0.59155 0.3221 0.0
C289 C 0.67089 0.5499 0.23352 0.0
O290 O 0.70659 0.56733 0.29252 0.0
O291 O 0.69852 0.53718 0.29066 0.0
O292 O 0.65633 0.56121 0.29608 0.0
O293 O 0.66642 0.54166 0.30105 0.0
Co294 Co 0.44892 0.1008 0.87866 0.0
O295 O 0.44537 0.09291 0.8403 0.0
O296 O 0.43415 0.07403 0.87655 0.0
C297 C 0.44258 0.12386 0.87196 0.0
O298 O 0.44902 0.10387 0.92116 0.0
Co299 Co 0.47963 0.14013 0.89586 0.0
O300 O 0.46518 0.1343 0.93096 0.0
C301 C 0.48971 0.11206 0.88002 0.0
C302 C 0.43589 0.07607 0.84957 0.0
C303 C 0.45421 0.11758 0.93817 0.0
O304 O 0.47246 0.09951 0.87973 0.0
O305 O 0.49534 0.12924 0.88435 0.0
O306 O 0.42917 0.10692 0.87543 0.0
O307 O 0.45901 0.12601 0.87085 0.0
Co308 Co 0.89952 0.34796 0.87789 0.0
O309 O 0.90744 0.35156 0.83953 0.0
O310 O 0.9263 0.35992 0.87591 0.0
C311 C 0.87634 0.31842 0.87251 0.0
O312 O 0.89643 0.34575 0.92044 0.0
Co313 Co 0.8601 0.33982 0.894 0.0
O314 O 0.86627 0.33366 0.93096 0.0
C315 C 0.8881 0.37717 0.87483 0.0
C316 C 0.92428 0.35909 0.8489 0.0
C317 C 0.88289 0.33879 0.93805 0.0
O318 O 0.90085 0.37284 0.87748 0.0
O319 O 0.87086 0.36546 0.87822 0.0
O320 O 0.89328 0.32197 0.87604 0.0
O321 O 0.87432 0.33272 0.87034 0.0
Co322 Co 0.65521 0.55259 0.87594 0.0
O323 O 0.65049 0.55599 0.83769 0.0
O324 O 0.6428 0.56698 0.87419 0.0
C325 C 0.68476 0.55943 0.86864 0.0
O326 O 0.65849 0.55257 0.91838 0.0
Co327 Co 0.66484 0.52247 0.89263 0.0
O328 O 0.67275 0.53642 0.92823 0.0
C329 C 0.62637 0.51163 0.87709 0.0
C330 C 0.64301 0.56529 0.84719 0.0
C331 C 0.66687 0.54726 0.93549 0.0
O332 O 0.6306 0.52875 0.87738 0.0
O333 O 0.63834 0.50647 0.88072 0.0
O334 O 0.681 0.57265 0.87231 0.0
O335 O 0.67062 0.54291 0.86774 0.0
Co336 Co 0.56545 0.88474 0.71117 0.0
O337 O 0.57369 0.88904 0.67298 0.0
O338 O 0.59227 0.89904 0.70972 0.0
C339 C 0.54288 0.8919 0.70547 0.0
O340 O 0.56201 0.88376 0.75364 0.0
Co341 Co 0.52559 0.85398 0.72634 0.0
O342 O 0.53173 0.86587 0.76361 0.0
C343 C 0.55326 0.84377 0.70895 0.0
C344 C 0.59046 0.89799 0.68268 0.0
C345 C 0.54835 0.87713 0.77103 0.0
O346 O 0.56614 0.86085 0.71089 0.0
O347 O 0.53606 0.83848 0.71215 0.0
O348 O 0.55994 0.90497 0.70923 0.0
O349 O 0.54038 0.8754 0.70314 0.0
Co350 Co 0.1152 0.68035 0.71098 0.0
O351 O 0.11137 0.68458 0.67269 0.0
O352 O 0.1012 0.69315 0.7092 0.0
C353 C 0.10772 0.65053 0.70495 0.0
O354 O 0.11572 0.67762 0.75348 0.0
Co355 Co 0.14538 0.67058 0.72688 0.0
O356 O 0.13289 0.6645 0.76371 0.0
C357 C 0.15631 0.70867 0.70953 0.0
C358 C 0.1025 0.69252 0.68218 0.0
C359 C 0.12184 0.67014 0.77094 0.0
O360 O 0.13931 0.70477 0.71126 0.0
O361 O 0.16129 0.69654 0.71281 0.0
O362 O 0.09476 0.65468 0.7085 0.0
O363 O 0.12433 0.66445 0.70309 0.0
Co364 Co 0.32081 0.43593 0.71177 0.0
O365 O 0.31678 0.42794 0.67345 0.0
O366 O 0.30805 0.40912 0.7099 0.0
C367 C 0.35064 0.45835 0.70586 0.0
O368 O 0.32327 0.43906 0.75429 0.0
Co369 Co 0.3306 0.47579 0.7281 0.0
O370 O 0.33778 0.4695 0.76416 0.0
C371 C 0.29257 0.44871 0.70989 0.0
C372 C 0.30882 0.41111 0.68289 0.0
C373 C 0.3316 0.45273 0.77146 0.0
O374 O 0.29639 0.43557 0.71169 0.0
O375 O 0.30471 0.46579 0.71359 0.0
O376 O 0.34652 0.44125 0.70955 0.0
O377 O 0.33669 0.46098 0.70401 0.0
Co378 Co 0.55202 0.89875 0.1273 0.0
O379 O 0.55606 0.90672 0.16562 0.0
O380 O 0.56663 0.92553 0.12919 0.0
C381 C 0.55871 0.87586 0.13314 0.0
O382 O 0.55138 0.89556 0.0848 0.0
Co383 Co 0.52106 0.8592 0.11125 0.0
O384 O 0.53371 0.86532 0.07456 0.0
C385 C 0.51115 0.88717 0.12821 0.0
C386 C 0.5653 0.92354 0.15619 0.0
C387 C 0.54504 0.88195 0.06734 0.0
O388 O 0.52835 0.89984 0.12713 0.0
O389 O 0.5056 0.86995 0.12456 0.0
O390 O 0.57198 0.89285 0.1296 0.0
O391 O 0.54226 0.87359 0.13509 0.0
Co392 Co 0.10293 0.65289 0.12655 0.0
O393 O 0.09497 0.64881 0.1649 0.0
O394 O 0.07613 0.64057 0.12852 0.0
C395 C 0.12574 0.68253 0.13271 0.0
O396 O 0.10602 0.65556 0.08403 0.0
Co397 Co 0.1425 0.66187 0.11008 0.0
O398 O 0.13619 0.66813 0.07333 0.0
C399 C 0.11497 0.62409 0.12831 0.0
C400 C 0.07813 0.64119 0.15552 0.0
C401 C 0.11951 0.66281 0.06637 0.0
O402 O 0.10204 0.62822 0.12628 0.0
O403 O 0.13214 0.63603 0.12485 0.0
O404 O 0.10872 0.67871 0.12911 0.0
O405 O 0.12808 0.6684 0.13434 0.0
Co406 Co 0.34818 0.44847 0.12864 0.0
O407 O 0.3538 0.44561 0.16666 0.0
O408 O 0.36037 0.43387 0.1298 0.0
C409 C 0.31879 0.44172 0.13709 0.0
O410 O 0.34411 0.44812 0.08638 0.0
Co411 Co 0.33842 0.47857 0.11249 0.0
O412 O 0.33006 0.46454 0.077 0.0
C413 C 0.37708 0.48935 0.12662 0.0
C414 C 0.36091 0.43607 0.15674 0.0
C415 C 0.33567 0.45351 0.06954 0.0
O416 O 0.3728 0.47222 0.12615 0.0
O417 O 0.3651 0.49457 0.12359 0.0
O418 O 0.32251 0.42849 0.13335 0.0
O419 O 0.33294 0.45826 0.13753 0.0
Co420 Co 0.10233 0.44921 0.62723 0.0
O421 O 0.09428 0.44496 0.66553 0.0
O422 O 0.07554 0.43462 0.62901 0.0
C423 C 0.12525 0.44252 0.63294 0.0
O424 O 0.10556 0.45005 0.5847 0.0
Co425 Co 0.14193 0.4802 0.61138 0.0
O426 O 0.13572 0.46815 0.57423 0.0
C427 C 0.11422 0.48996 0.63038 0.0
C428 C 0.07746 0.43581 0.65603 0.0
C429 C 0.1191 0.45669 0.56709 0.0
O430 O 0.10133 0.47294 0.62754 0.0
O431 O 0.13142 0.49529 0.62717 0.0
O432 O 0.10826 0.42925 0.62925 0.0
O433 O 0.12747 0.45892 0.63503 0.0
Co434 Co 0.5528 0.65339 0.6261 0.0
O435 O 0.55689 0.64934 0.66436 0.0
O436 O 0.56717 0.64096 0.62778 0.0
C437 C 0.55981 0.68307 0.63229 0.0
O438 O 0.55208 0.65599 0.58359 0.0
Co439 Co 0.52218 0.6625 0.61037 0.0
O440 O 0.53432 0.66843 0.57331 0.0
C441 C 0.5119 0.62473 0.62861 0.0
C442 C 0.56593 0.6416 0.6548 0.0
C443 C 0.54561 0.6631 0.56607 0.0
O444 O 0.52891 0.62876 0.62615 0.0
O445 O 0.50674 0.63673 0.62541 0.0
O446 O 0.57295 0.67921 0.62843 0.0
O447 O 0.54331 0.66896 0.63414 0.0
Co448 Co 0.34781 0.89866 0.62685 0.0
O449 O 0.35175 0.9067 0.66514 0.0
O450 O 0.36009 0.92546 0.62867 0.0
C451 C 0.31817 0.87581 0.63294 0.0
O452 O 0.34529 0.89543 0.58432 0.0
Co453 Co 0.33898 0.85905 0.61092 0.0
O454 O 0.33309 0.86527 0.57385 0.0
C455 C 0.37668 0.88674 0.62923 0.0
C456 C 0.35941 0.92351 0.65568 0.0
C457 C 0.33833 0.8819 0.56671 0.0
O458 O 0.37253 0.89962 0.62691 0.0
O459 O 0.36478 0.86955 0.62594 0.0
O460 O 0.32193 0.89278 0.62914 0.0
O461 O 0.33235 0.87354 0.63477 0.0
Co462 Co 0.11578 0.43459 0.21158 0.0
O463 O 0.11233 0.4267 0.1732 0.0
O464 O 0.10145 0.40779 0.20946 0.0
C465 C 0.10886 0.4573 0.20525 0.0
O466 O 0.11583 0.43765 0.2541 0.0
Co467 Co 0.14616 0.47429 0.22835 0.0
O468 O 0.133 0.4679 0.26462 0.0
C469 C 0.15678 0.44675 0.21186 0.0
C470 C 0.10313 0.40984 0.18248 0.0
C471 C 0.12176 0.4512 0.27163 0.0
O472 O 0.13965 0.43386 0.21261 0.0
O473 O 0.16202 0.46389 0.21547 0.0
O474 O 0.09566 0.44023 0.20846 0.0
O475 O 0.12538 0.45973 0.2039 0.0
Co476 Co 0.56585 0.68038 0.20972 0.0
O477 O 0.57397 0.68455 0.17144 0.0
O478 O 0.59268 0.69315 0.208 0.0
C479 C 0.54344 0.65058 0.20355 0.0
O480 O 0.56261 0.67774 0.25223 0.0
Co481 Co 0.52595 0.67067 0.22565 0.0
O482 O 0.53236 0.66488 0.26266 0.0
C483 C 0.55306 0.70857 0.20733 0.0
C484 C 0.59078 0.69248 0.18098 0.0
C485 C 0.54907 0.67046 0.26981 0.0
O486 O 0.56621 0.7048 0.20976 0.0
O487 O 0.53595 0.69638 0.21055 0.0
O488 O 0.56054 0.6547 0.20731 0.0
O489 O 0.5408 0.66451 0.20175 0.0
Co490 Co 0.32066 0.88569 0.21049 0.0
O491 O 0.31619 0.88941 0.17227 0.0
O492 O 0.3077 0.89954 0.20892 0.0
C493 C 0.35052 0.89336 0.20399 0.0
O494 O 0.32362 0.88526 0.25296 0.0
Co495 Co 0.33086 0.85581 0.22624 0.0
O496 O 0.33692 0.86825 0.26308 0.0
C497 C 0.29254 0.84451 0.20951 0.0
C498 C 0.30823 0.89824 0.1819 0.0
C499 C 0.33119 0.87922 0.27037 0.0
O500 O 0.29633 0.86148 0.21105 0.0
O501 O 0.3048 0.83969 0.21267 0.0
O502 O 0.34626 0.90623 0.20769 0.0
O503 O 0.33667 0.87671 0.20234 0.0
H504 H 0.41245 0.3083 0.87908 0.0
H505 H 0.38585 0.29536 0.91061 0.0
H506 H 0.34879 0.27713 0.84 0.0
H507 H 0.37542 0.28996 0.80816 0.0
H508 H 0.3574 0.30434 0.91406 0.0
H509 H 0.32973 0.23007 0.88833 0.0
H510 H 0.3529 0.24786 0.87907 0.0
H511 H 0.33343 0.24495 0.85897 0.0
C512 C 0.39865 0.30149 0.87019 0.0
C513 C 0.39604 0.3001 0.84109 0.0
C514 C 0.38346 0.29413 0.88827 0.0
C515 C 0.36536 0.28511 0.87767 0.0
C516 C 0.36266 0.28377 0.84862 0.0
H517 H 0.25702 0.23123 0.9563 0.0
H518 H 0.28309 0.24446 0.92376 0.0
C519 C 0.37788 0.29119 0.83046 0.0
C520 C 0.34938 0.27743 0.89716 0.0
H521 H 0.31181 0.23709 0.91891 0.0
C522 C 0.34743 0.28963 0.91518 0.0
C523 C 0.33642 0.25825 0.89854 0.0
C524 C 0.33823 0.24445 0.88039 0.0
C525 C 0.33272 0.28319 0.93431 0.0
C526 C 0.31982 0.26399 0.93584 0.0
C527 C 0.32173 0.2518 0.91773 0.0
C528 C 0.30411 0.25625 0.95587 0.0
C529 C 0.33089 0.29706 0.95228 0.0
C530 C 0.30727 0.25833 0.98481 0.0
C531 C 0.29236 0.25082 0.00353 0.0
C532 C 0.27404 0.24097 0.99362 0.0
C533 C 0.27096 0.23879 0.96464 0.0
C534 C 0.28584 0.24631 0.94598 0.0
H535 H 0.33879 0.31129 0.94355 0.0
H536 H 0.31615 0.29326 0.95453 0.0
H537 H 0.33647 0.29725 0.97339 0.0
H538 H 0.32127 0.26562 0.99293 0.0
H539 H 0.29519 0.25263 0.02572 0.0
H540 H 0.69239 0.10342 0.8801 0.0
H541 H 0.70551 0.09021 0.9121 0.0
H542 H 0.72442 0.07154 0.84215 0.0
H543 H 0.71143 0.08491 0.80984 0.0
H544 H 0.69706 0.05313 0.91634 0.0
H545 H 0.77126 0.10015 0.89047 0.0
H546 H 0.7533 0.10516 0.88069 0.0
H547 H 0.75652 0.0886 0.86112 0.0
C548 C 0.69938 0.09656 0.87146 0.0
C549 C 0.70093 0.09527 0.84241 0.0
C550 C 0.70685 0.089 0.88981 0.0
C551 C 0.71613 0.0801 0.87952 0.0
C552 C 0.71759 0.07864 0.85053 0.0
H553 H 0.7706 0.02671 0.95902 0.0
H554 H 0.75721 0.03931 0.92637 0.0
C555 C 0.71008 0.0862 0.8321 0.0
C556 C 0.72392 0.07207 0.89929 0.0
H557 H 0.76443 0.07533 0.92122 0.0
C558 C 0.7118 0.05799 0.91748 0.0
C559 C 0.74314 0.07846 0.9007 0.0
C560 C 0.75687 0.09403 0.88239 0.0
C561 C 0.71834 0.04992 0.93678 0.0
C562 C 0.73757 0.05637 0.9383 0.0
C563 C 0.74969 0.07043 0.92005 0.0
C564 C 0.74542 0.04858 0.95841 0.0
C565 C 0.70455 0.03429 0.95495 0.0
C566 C 0.74338 0.04975 0.98733 0.0
C567 C 0.75099 0.04249 0.00611 0.0
C568 C 0.76088 0.03407 0.99627 0.0
C569 C 0.76302 0.03307 0.9673 0.0
C570 C 0.7554 0.04029 0.94858 0.0
H571 H 0.69029 0.02784 0.9463 0.0
H572 H 0.70841 0.02341 0.95734 0.0
H573 H 0.7044 0.03978 0.97599 0.0
H574 H 0.73607 0.05644 0.99539 0.0
H575 H 0.74921 0.04359 0.02829 0.0
H576 H 0.95831 0.70789 0.02764 0.0
H577 H 0.94538 0.68169 0.99502 0.0
H578 H 0.9639 0.71965 0.92552 0.0
H579 H 0.97659 0.7458 0.95782 0.0
H580 H 0.92756 0.69106 0.91993 0.0
H581 H 0.97424 0.66388 0.94746 0.0
H582 H 0.96211 0.66645 0.97655 0.0
H583 H 0.97888 0.68662 0.95786 0.0
C584 C 0.95968 0.71063 0.00541 0.0
C585 C 0.96855 0.72892 0.99533 0.0
C586 C 0.95237 0.69566 0.9868 0.0
C587 C 0.95392 0.69873 0.95783 0.0
C588 C 0.96262 0.71696 0.94777 0.0
H589 H 0.9191 0.62862 0.80903 0.0
H590 H 0.93212 0.65492 0.84148 0.0
C591 C 0.9699 0.7319 0.9663 0.0
C592 C 0.94618 0.68301 0.93785 0.0
H593 H 0.94948 0.64568 0.91655 0.0
C594 C 0.93239 0.68116 0.9191 0.0
C595 C 0.95253 0.67016 0.93678 0.0
C596 C 0.96787 0.6719 0.95554 0.0
C597 C 0.92455 0.66661 0.89965 0.0
C598 C 0.93088 0.65374 0.89864 0.0
C599 C 0.94467 0.65559 0.91736 0.0
C600 C 0.92308 0.63797 0.87876 0.0
C601 C 0.90926 0.66488 0.8808 0.0
C602 C 0.91402 0.61977 0.88895 0.0
C603 C 0.90667 0.60478 0.87052 0.0
C604 C 0.90832 0.60768 0.84148 0.0
C605 C 0.91754 0.62594 0.83127 0.0
C606 C 0.9249 0.64096 0.84978 0.0
H607 H 0.90306 0.67313 0.88858 0.0
H608 H 0.915 0.67004 0.85968 0.0
H609 H 0.89813 0.65019 0.87882 0.0
H610 H 0.91253 0.61716 0.91122 0.0
H611 H 0.89968 0.5909 0.8791 0.0
H612 H 0.30887 0.41202 0.62604 0.0
H613 H 0.29582 0.38587 0.59371 0.0
H614 H 0.27817 0.34789 0.66314 0.0
H615 H 0.29105 0.37407 0.6958 0.0
H616 H 0.30481 0.35794 0.58782 0.0
H617 H 0.23077 0.3289 0.61637 0.0
H618 H 0.2485 0.35192 0.62641 0.0
H619 H 0.24592 0.33209 0.64513 0.0
C620 C 0.30216 0.39811 0.63451 0.0
C621 C 0.30093 0.39511 0.66352 0.0
C622 C 0.29473 0.38318 0.61596 0.0
C623 C 0.28582 0.36494 0.626 0.0
C624 C 0.28469 0.36186 0.65495 0.0
H625 H 0.23289 0.25744 0.54576 0.0
H626 H 0.24605 0.28341 0.5784 0.0
C627 C 0.29214 0.37682 0.67358 0.0
C628 C 0.27807 0.34924 0.606 0.0
H629 H 0.23775 0.31145 0.58471 0.0
C630 C 0.29014 0.34779 0.58707 0.0
C631 C 0.25893 0.33605 0.60506 0.0
C632 C 0.24521 0.33733 0.62414 0.0
C633 C 0.28364 0.33331 0.56751 0.0
C634 C 0.26449 0.32014 0.56652 0.0
C635 C 0.25242 0.32158 0.58548 0.0
C636 C 0.25671 0.30452 0.54635 0.0
C637 C 0.29739 0.33201 0.54853 0.0
C638 C 0.25817 0.30775 0.51742 0.0
C639 C 0.25069 0.29288 0.49862 0.0
C640 C 0.2415 0.27454 0.50847 0.0
C641 C 0.23992 0.27139 0.53746 0.0
C642 C 0.24741 0.28623 0.55618 0.0
H643 H 0.31178 0.3402 0.55661 0.0
H644 H 0.29394 0.3174 0.54591 0.0
H645 H 0.29696 0.33756 0.52766 0.0
H646 H 0.26496 0.32177 0.50937 0.0
H647 H 0.25202 0.29576 0.47643 0.0
H648 H 0.58992 0.89792 0.62582 0.0
H649 H 0.61631 0.91129 0.5939 0.0
H650 H 0.65384 0.93053 0.66395 0.0
H651 H 0.62742 0.91698 0.69619 0.0
H652 H 0.64474 0.94835 0.58922 0.0
H653 H 0.67244 0.90204 0.61637 0.0
H654 H 0.64942 0.89691 0.62607 0.0
H655 H 0.66918 0.91371 0.64547 0.0
C656 C 0.60378 0.90495 0.6345 0.0
C657 C 0.60658 0.90633 0.66357 0.0
C658 C 0.61884 0.91261 0.6162 0.0
C659 C 0.63702 0.9217 0.62653 0.0
C660 C 0.63991 0.92328 0.65554 0.0
H661 H 0.74509 0.97569 0.54787 0.0
H662 H 0.71892 0.96299 0.58017 0.0
C663 C 0.62481 0.91563 0.67392 0.0
C664 C 0.65287 0.92973 0.60679 0.0
H665 H 0.69037 0.92676 0.5854 0.0
C666 C 0.65471 0.94362 0.58831 0.0
C667 C 0.66582 0.9235 0.60566 0.0
C668 C 0.6641 0.90811 0.62426 0.0
C669 C 0.66933 0.95167 0.569 0.0
C670 C 0.68226 0.9454 0.56781 0.0
C671 C 0.68043 0.93152 0.58633 0.0
C672 C 0.698 0.95327 0.54785 0.0
C673 C 0.67106 0.9671 0.5505 0.0
C674 C 0.69494 0.95189 0.51888 0.0
C675 C 0.70992 0.95921 0.50028 0.0
C676 C 0.7282 0.96791 0.51037 0.0
C677 C 0.73118 0.96912 0.53939 0.0
C678 C 0.71624 0.96184 0.55791 0.0
H679 H 0.66304 0.97341 0.55879 0.0
H680 H 0.68578 0.97813 0.54821 0.0
H681 H 0.66558 0.96146 0.52946 0.0
H682 H 0.68096 0.94499 0.51065 0.0
H683 H 0.70717 0.95795 0.47806 0.0
H684 H 0.02733 0.77139 0.54634 0.0
H685 H 0.04045 0.75835 0.57862 0.0
H686 H 0.05746 0.73747 0.50914 0.0
H687 H 0.04448 0.75069 0.47653 0.0
H688 H 0.03122 0.72129 0.58474 0.0
H689 H 0.10518 0.76592 0.5554 0.0
H690 H 0.0875 0.77132 0.54558 0.0
H691 H 0.08985 0.75396 0.52679 0.0
C692 C 0.03391 0.76408 0.53785 0.0
C693 C 0.03492 0.76213 0.50883 0.0
C694 C 0.04139 0.75662 0.55637 0.0
C695 C 0.05013 0.74714 0.5463 0.0
C696 C 0.05107 0.74503 0.51734 0.0
H697 H 0.10281 0.69203 0.62532 0.0
H698 H 0.08968 0.70509 0.59309 0.0
C699 C 0.04356 0.7525 0.49875 0.0
C700 C 0.0579 0.73919 0.56627 0.0
H701 H 0.09819 0.74146 0.58704 0.0
C702 C 0.04587 0.72573 0.58532 0.0
C703 C 0.07702 0.74502 0.56699 0.0
C704 C 0.09071 0.75996 0.54779 0.0
C705 C 0.05238 0.71769 0.60476 0.0
C706 C 0.0715 0.72354 0.60551 0.0
C707 C 0.08353 0.73701 0.58646 0.0
C708 C 0.07928 0.71557 0.62546 0.0
C709 C 0.03865 0.70269 0.62385 0.0
C710 C 0.07795 0.71726 0.65444 0.0
C711 C 0.08541 0.70973 0.67301 0.0
C712 C 0.09445 0.7005 0.66288 0.0
C713 C 0.0959 0.69901 0.63384 0.0
C714 C 0.08843 0.70649 0.61536 0.0
H715 H 0.02423 0.69658 0.61595 0.0
H716 H 0.04199 0.69145 0.62634 0.0
H717 H 0.03924 0.7087 0.64475 0.0
H718 H 0.07128 0.72454 0.66271 0.0
H719 H 0.08418 0.71122 0.69524 0.0
H720 H 0.59007 0.69218 0.1241 0.0
H721 H 0.61634 0.7052 0.09198 0.0
H722 H 0.6541 0.72417 0.16175 0.0
H723 H 0.6278 0.7109 0.19417 0.0
H724 H 0.64449 0.7416 0.08636 0.0
H725 H 0.6729 0.6961 0.11459 0.0
H726 H 0.65001 0.69107 0.12488 0.0
H727 H 0.67003 0.70809 0.14359 0.0
C728 C 0.60396 0.69904 0.13268 0.0
C729 C 0.60685 0.70041 0.16172 0.0
C730 C 0.61896 0.7065 0.11425 0.0
C731 C 0.63718 0.71543 0.12443 0.0
C732 C 0.64015 0.717 0.15342 0.0
H733 H 0.74539 0.77126 0.04652 0.0
H734 H 0.71902 0.75803 0.07848 0.0
C735 C 0.62512 0.7095 0.17193 0.0
C736 C 0.65298 0.72341 0.10456 0.0
H737 H 0.69094 0.72102 0.08383 0.0
C738 C 0.65462 0.73706 0.08572 0.0
C739 C 0.66615 0.71744 0.10374 0.0
C740 C 0.66466 0.70225 0.12259 0.0
C741 C 0.66925 0.74514 0.06642 0.0
C742 C 0.68244 0.73919 0.06565 0.0
C743 C 0.6808 0.72554 0.08446 0.0
C744 C 0.69829 0.74724 0.04589 0.0
C745 C 0.67073 0.76027 0.04747 0.0
C746 C 0.6954 0.74542 0.01688 0.0
C747 C 0.71049 0.753 0.99848 0.0
C748 C 0.72872 0.76245 0.0088 0.0
C749 C 0.73153 0.7641 0.03786 0.0
C750 C 0.71648 0.75653 0.05619 0.0
H751 H 0.66226 0.76625 0.05516 0.0
H752 H 0.68535 0.77158 0.04549 0.0
H753 H 0.66564 0.75445 0.02637 0.0
H754 H 0.68147 0.73801 0.00849 0.0
H755 H 0.70787 0.75142 0.97622 0.0
H756 H 0.30898 0.89836 0.12504 0.0
H757 H 0.29597 0.91163 0.093 0.0
H758 H 0.27592 0.92923 0.16285 0.0
H759 H 0.28922 0.91621 0.19521 0.0
H760 H 0.25968 0.903 0.08647 0.0
H761 H 0.30382 0.9767 0.11724 0.0
H762 H 0.30903 0.95897 0.12744 0.0
H763 H 0.29147 0.96135 0.1456 0.0
C764 C 0.30187 0.90512 0.13366 0.0
C765 C 0.30022 0.90632 0.16271 0.0
C766 C 0.29442 0.91268 0.11527 0.0
C767 C 0.28519 0.92165 0.12549 0.0
C768 C 0.28332 0.92271 0.15449 0.0
H769 H 0.22996 0.97403 0.04508 0.0
H770 H 0.24252 0.96068 0.07788 0.0
C771 C 0.29084 0.91517 0.17296 0.0
C772 C 0.27727 0.92952 0.10563 0.0
H773 H 0.27946 0.96986 0.08541 0.0
C774 C 0.26404 0.91763 0.08618 0.0
C775 C 0.28299 0.94862 0.10526 0.0
C776 C 0.29772 0.96221 0.12481 0.0
C777 C 0.25617 0.92426 0.06663 0.0
C778 C 0.26192 0.94335 0.06624 0.0
C779 C 0.27509 0.95523 0.08574 0.0
C780 C 0.25425 0.95125 0.04601 0.0
C781 C 0.24151 0.91071 0.04694 0.0
C782 C 0.25682 0.95054 0.01714 0.0
C783 C 0.24963 0.95816 0.99826 0.0
C784 C 0.23983 0.96671 0.00796 0.0
C785 C 0.23741 0.96751 0.0369 0.0
C786 C 0.2446 0.95991 0.05571 0.0
H787 H 0.23545 0.89619 0.05438 0.0
H788 H 0.23018 0.91392 0.04434 0.0
H789 H 0.24783 0.9117 0.02616 0.0
H790 H 0.26453 0.94422 0.00922 0.0
H791 H 0.2518 0.9574 0.97612 0.0
H792 H 0.08402 0.37274 0.1951 0.0
H793 H 0.07146 0.34664 0.16224 0.0
H794 H 0.09152 0.3849 0.09313 0.0
H795 H 0.10428 0.41092 0.12563 0.0
H796 H 0.04528 0.3377 0.11986 0.0
H797 H 0.11238 0.35102 0.07577 0.0
H798 H 0.11084 0.3618 0.10756 0.0
H799 H 0.10908 0.37068 0.07418 0.0
C800 C 0.0858 0.37557 0.1729 0.0
C801 C 0.09523 0.3939 0.16299 0.0
C802 C 0.07862 0.36066 0.15417 0.0
C803 C 0.08084 0.36382 0.12524 0.0
C804 C 0.09002 0.38211 0.11535 0.0
H805 H 0.04543 0.29457 0.97636 0.0
H806 H 0.05813 0.32039 0.00971 0.0
C807 C 0.0972 0.39698 0.134 0.0
C808 C 0.07319 0.34807 0.10529 0.0
H809 H 0.08517 0.32883 0.05203 0.0
C810 C 0.05401 0.33568 0.10516 0.0
C811 C 0.0846 0.34549 0.08604 0.0
C812 C 0.10539 0.35784 0.08598 0.0
C813 C 0.04588 0.321 0.08593 0.0
C814 C 0.05727 0.31849 0.0666 0.0
C815 C 0.07645 0.33085 0.06677 0.0
C816 C 0.04958 0.3029 0.0464 0.0
C817 C 0.0251 0.30855 0.08606 0.0
C818 C 0.04083 0.28454 0.05596 0.0
C819 C 0.0336 0.26982 0.03702 0.0
C820 C 0.03505 0.27314 0.00808 0.0
C821 C 0.04403 0.29155 0.99851 0.0
C822 C 0.0513 0.30631 0.01752 0.0
H823 H 0.01805 0.31507 0.09698 0.0
H824 H 0.0196 0.30498 0.06446 0.0
H825 H 0.02154 0.29549 0.09713 0.0
H826 H 0.03968 0.28159 0.07813 0.0
H827 H 0.02687 0.25582 0.04512 0.0
H828 H 0.7123 0.62864 0.30941 0.0
H829 H 0.72573 0.65475 0.34225 0.0
H830 H 0.70725 0.61652 0.41141 0.0
H831 H 0.69408 0.59049 0.37893 0.0
H832 H 0.70812 0.66349 0.38445 0.0
H833 H 0.76202 0.65058 0.42911 0.0
H834 H 0.74985 0.6398 0.39722 0.0
H835 H 0.73906 0.63084 0.43049 0.0
C836 C 0.71117 0.62582 0.33161 0.0
C837 C 0.70221 0.6075 0.34155 0.0
C838 C 0.71884 0.64073 0.35033 0.0
C839 C 0.71777 0.63757 0.37927 0.0
C840 C 0.70862 0.6193 0.38919 0.0
H841 H 0.75164 0.70753 0.52761 0.0
H842 H 0.73838 0.68144 0.49472 0.0
C843 C 0.70099 0.60442 0.37055 0.0
C844 C 0.72576 0.65332 0.3992 0.0
H845 H 0.7569 0.67277 0.45254 0.0
C846 C 0.71887 0.6656 0.39922 0.0
C847 C 0.73973 0.65598 0.41855 0.0
C848 C 0.74824 0.64372 0.41876 0.0
C849 C 0.72532 0.68029 0.41839 0.0
C850 C 0.73925 0.68293 0.43777 0.0
C851 C 0.74616 0.67065 0.43776 0.0
C852 C 0.74719 0.69865 0.45773 0.0
C853 C 0.71691 0.69265 0.41811 0.0
C854 C 0.75675 0.71692 0.44783 0.0
C855 C 0.76431 0.73178 0.46649 0.0
C856 C 0.76255 0.72869 0.49549 0.0
C857 C 0.75316 0.71036 0.50541 0.0
C858 C 0.7456 0.69546 0.48666 0.0
H859 H 0.70329 0.68598 0.40731 0.0
H860 H 0.71503 0.69633 0.43967 0.0
H861 H 0.72633 0.70565 0.40685 0.0
H862 H 0.75847 0.71969 0.42561 0.0
H863 H 0.77156 0.74572 0.45813 0.0
H864 H 0.25622 0.0269 0.45745 0.0
H865 H 0.28236 0.03954 0.42506 0.0
H866 H 0.32037 0.05662 0.49444 0.0
H867 H 0.29421 0.04378 0.52711 0.0
H868 H 0.31153 0.07585 0.42047 0.0
H869 H 0.33728 0.02762 0.44524 0.0
H870 H 0.31465 0.02325 0.45579 0.0
H871 H 0.3349 0.03938 0.47499 0.0
C872 C 0.27013 0.03326 0.46587 0.0
C873 C 0.27314 0.03425 0.49488 0.0
C874 C 0.28505 0.0405 0.4473 0.0
C875 C 0.30329 0.04879 0.4573 0.0
C876 C 0.30638 0.04995 0.48625 0.0
H877 H 0.41161 0.10334 0.38046 0.0
H878 H 0.38504 0.0901 0.41201 0.0
C879 C 0.29143 0.0427 0.5049 0.0
C880 C 0.31902 0.05656 0.43734 0.0
H881 H 0.35607 0.05292 0.41547 0.0
C882 C 0.32123 0.07079 0.41927 0.0
C883 C 0.33162 0.0499 0.43579 0.0
C884 C 0.32946 0.03409 0.45379 0.0
C885 C 0.33592 0.0788 0.40007 0.0
C886 C 0.34857 0.0722 0.39863 0.0
C887 C 0.34633 0.05794 0.41663 0.0
C888 C 0.36453 0.08024 0.37911 0.0
C889 C 0.33807 0.09457 0.38197 0.0
C890 C 0.36181 0.07894 0.35006 0.0
C891 C 0.37702 0.0865 0.33188 0.0
C892 C 0.39519 0.09544 0.34248 0.0
C893 C 0.39781 0.09659 0.37158 0.0
C894 C 0.38264 0.08901 0.38968 0.0
H895 H 0.32983 0.10071 0.38996 0.0
H896 H 0.35284 0.10563 0.38064 0.0
H897 H 0.3332 0.08934 0.36054 0.0
H898 H 0.34793 0.07195 0.34147 0.0
H899 H 0.37455 0.08533 0.30958 0.0
H900 H 0.89877 0.30941 0.37913 0.0
H901 H 0.91221 0.2966 0.41121 0.0
H902 H 0.93135 0.27801 0.34145 0.0
H903 H 0.91776 0.29074 0.30901 0.0
H904 H 0.91309 0.25096 0.38402 0.0
H905 H 0.9676 0.31782 0.42807 0.0
H906 H 0.94465 0.31465 0.42908 0.0
H907 H 0.95556 0.31638 0.39599 0.0
C908 C 0.9059 0.30267 0.37053 0.0
C909 C 0.90728 0.30117 0.34148 0.0
C910 C 0.91366 0.29544 0.38894 0.0
C911 C 0.92304 0.28662 0.37873 0.0
C912 C 0.92428 0.28489 0.34975 0.0
H913 H 0.97585 0.2309 0.45684 0.0
H914 H 0.96274 0.24384 0.42436 0.0
C915 C 0.91653 0.29218 0.33125 0.0
C916 C 0.9311 0.27881 0.39841 0.0
H917 H 0.96273 0.29049 0.451 0.0
C918 C 0.92403 0.2596 0.39854 0.0
C919 C 0.94528 0.29011 0.41746 0.0
C920 C 0.95386 0.3109 0.41758 0.0
C921 C 0.93052 0.25133 0.41759 0.0
C922 C 0.94473 0.26263 0.43663 0.0
C923 C 0.9518 0.28185 0.43646 0.0
C924 C 0.95269 0.25482 0.45652 0.0
C925 C 0.92181 0.23052 0.41757 0.0
C926 C 0.95186 0.25713 0.48544 0.0
C927 C 0.95949 0.24983 0.50414 0.0
C928 C 0.96817 0.24021 0.4942 0.0
C929 C 0.96915 0.23813 0.46521 0.0
C930 C 0.96156 0.24542 0.44659 0.0
H931 H 0.90796 0.22366 0.40743 0.0
H932 H 0.93081 0.22665 0.40573 0.0
H933 H 0.9203 0.22508 0.43915 0.0
H934 H 0.94519 0.26445 0.49354 0.0
H935 H 0.95854 0.2517 0.52634 0.0
H936 H 0.04107 0.62367 0.14271 0.0
H937 H 0.01491 0.6112 0.17546 0.0
H938 H 0.05299 0.62872 0.24477 0.0
H939 H 0.0791 0.64132 0.21238 0.0
H940 H 0.00565 0.58384 0.21726 0.0
H941 H 0.01996 0.65081 0.26332 0.0
H942 H 0.03033 0.64938 0.231 0.0
H943 H 0.03935 0.64702 0.26388 0.0
C944 C 0.04385 0.62494 0.16492 0.0
C945 C 0.06216 0.63358 0.17494 0.0
C946 C 0.02891 0.61779 0.18359 0.0
C947 C 0.03203 0.6193 0.21254 0.0
C948 C 0.05028 0.62775 0.22254 0.0
H949 H 0.96157 0.58407 0.36036 0.0
H950 H 0.98775 0.59673 0.32765 0.0
C951 C 0.06518 0.63485 0.20395 0.0
C952 C 0.01624 0.61164 0.2324 0.0
H953 H 0.99706 0.62351 0.28583 0.0
C954 C 0.00369 0.59251 0.23214 0.0
C955 C 0.0138 0.62298 0.25191 0.0
C956 C 0.02646 0.64371 0.25248 0.0
C957 C 0.98892 0.58436 0.25121 0.0
C958 C 0.98645 0.5957 0.2707 0.0
C959 C 0.99901 0.61484 0.27095 0.0
C960 C 0.97065 0.58804 0.29054 0.0
C961 C 0.97634 0.56361 0.25072 0.0
C962 C 0.95239 0.57923 0.28053 0.0
C963 C 0.93747 0.57199 0.2991 0.0
C964 C 0.94049 0.57354 0.32811 0.0
C965 C 0.9588 0.58262 0.33814 0.0
C966 C 0.97375 0.58986 0.31949 0.0
H967 H 0.98301 0.55655 0.24022 0.0
H968 H 0.97231 0.55797 0.27219 0.0
H969 H 0.96355 0.5602 0.23899 0.0
H970 H 0.94966 0.57803 0.25829 0.0
H971 H 0.92355 0.56519 0.29065 0.0
H972 H 0.40354 0.35597 0.35201 0.0
H973 H 0.38943 0.36718 0.31798 0.0
H974 H 0.44195 0.39735 0.27525 0.0
H975 H 0.45547 0.38478 0.30777 0.0
H976 H 0.39305 0.39752 0.30447 0.0
H977 H 0.41179 0.37304 0.20976 0.0
H978 H 0.41551 0.36687 0.2442 0.0
H979 H 0.43235 0.38856 0.22852 0.0
C980 C 0.41196 0.36494 0.33522 0.0
C981 C 0.43047 0.36939 0.3322 0.0
C982 C 0.40393 0.37135 0.31576 0.0
C983 C 0.41442 0.38271 0.29335 0.0
C984 C 0.43325 0.38794 0.2914 0.0
H985 H 0.38059 0.45163 0.20386 0.0
H986 H 0.39361 0.43854 0.23625 0.0
C987 C 0.44106 0.38097 0.31022 0.0
C988 C 0.40579 0.38942 0.2725 0.0
H989 H 0.40295 0.39605 0.20268 0.0
C990 C 0.39506 0.39696 0.2822 0.0
C991 C 0.4079 0.38835 0.24328 0.0
C992 C 0.41733 0.37856 0.23087 0.0
C993 C 0.38677 0.40376 0.26373 0.0
C994 C 0.3902 0.4041 0.23467 0.0
C995 C 0.40056 0.39618 0.22491 0.0
C996 C 0.38316 0.41254 0.21405 0.0
C997 C 0.37401 0.40995 0.27574 0.0
C998 C 0.37402 0.40293 0.1896 0.0
C999 C 0.3673 0.41081 0.17036 0.0
C1000 C 0.36923 0.42825 0.17557 0.0
C1001 C 0.37866 0.43801 0.19964 0.0
C1002 C 0.3859 0.43042 0.21835 0.0
H1003 H 0.36757 0.40254 0.29552 0.0
H1004 H 0.38212 0.42495 0.28066 0.0
H1005 H 0.36275 0.40751 0.26094 0.0
H1006 H 0.37182 0.38919 0.18555 0.0
H1007 H 0.36007 0.40302 0.15192 0.0
H1008 H 0.58382 0.96059 0.14336 0.0
H1009 H 0.59705 0.98673 0.17608 0.0
H1010 H 0.57893 0.94864 0.24541 0.0
H1011 H 0.56547 0.92255 0.21302 0.0
H1012 H 0.57051 0.9764 0.25219 0.0
H1013 H 0.6443 0.00577 0.22212 0.0
H1014 H 0.62915 0.00301 0.19359 0.0
H1015 H 0.6265 0.98291 0.21161 0.0
C1016 C 0.58274 0.95781 0.16557 0.0
C1017 C 0.57366 0.93951 0.17559 0.0
C1018 C 0.59039 0.97275 0.18424 0.0
C1019 C 0.58922 0.96963 0.21319 0.0
C1020 C 0.58007 0.95137 0.22317 0.0
H1021 H 0.62485 0.03956 0.36222 0.0
H1022 H 0.61181 0.01329 0.32971 0.0
C1023 C 0.5724 0.93647 0.20459 0.0
C1024 C 0.59709 0.98531 0.23325 0.0
H1025 H 0.63743 0.02343 0.25367 0.0
C1026 C 0.58515 0.98665 0.2526 0.0
C1027 C 0.61621 0.99864 0.23377 0.0
C1028 C 0.62984 0.99748 0.21435 0.0
C1029 C 0.59175 0.00114 0.27214 0.0
C1030 C 0.61085 0.01448 0.27261 0.0
C1031 C 0.62279 0.01315 0.25328 0.0
C1032 C 0.61868 0.03023 0.29252 0.0
C1033 C 0.57816 0.00229 0.29168 0.0
C1034 C 0.62718 0.04843 0.28238 0.0
C1035 C 0.63468 0.0634 0.30083 0.0
C1036 C 0.63394 0.0605 0.32985 0.0
C1037 C 0.62556 0.04225 0.34 0.0
C1038 C 0.61802 0.02723 0.32147 0.0
H1039 H 0.56364 0.99365 0.28437 0.0
H1040 H 0.57926 0.99722 0.31262 0.0
H1041 H 0.58128 0.01682 0.29392 0.0
H1042 H 0.62789 0.05105 0.26013 0.0
H1043 H 0.64106 0.07728 0.29229 0.0
H1044 H 0.35848 0.92258 0.71252 0.0
H1045 H 0.37117 0.9487 0.74487 0.0
H1046 H 0.3908 0.98674 0.67547 0.0
H1047 H 0.37783 0.96058 0.64279 0.0
H1048 H 0.40742 0.97661 0.75132 0.0
H1049 H 0.36259 0.0056 0.72197 0.0
H1050 H 0.35755 0.98276 0.71144 0.0
H1051 H 0.37491 0.00287 0.69331 0.0
C1052 C 0.36541 0.9365 0.70406 0.0
C1053 C 0.36707 0.93951 0.67505 0.0
C1054 C 0.37268 0.95141 0.72263 0.0
C1055 C 0.38171 0.96967 0.71263 0.0
C1056 C 0.38354 0.97277 0.68366 0.0
H1057 H 0.4373 0.07717 0.79275 0.0
H1058 H 0.42426 0.05113 0.7602 0.0
C1059 C 0.37621 0.95781 0.66501 0.0
C1060 C 0.38956 0.98536 0.73268 0.0
H1061 H 0.38711 0.02326 0.75354 0.0
C1062 C 0.40294 0.98678 0.75189 0.0
C1063 C 0.38367 0.9986 0.73339 0.0
C1064 C 0.36877 0.99736 0.71412 0.0
C1065 C 0.41081 0.00123 0.7715 0.0
C1066 C 0.40493 0.01446 0.7722 0.0
C1067 C 0.39157 0.01307 0.75298 0.0
C1068 C 0.41276 0.0301 0.79231 0.0
C1069 C 0.42565 0.00246 0.79088 0.0
C1070 C 0.41045 0.02693 0.82123 0.0
C1071 C 0.4179 0.04183 0.83997 0.0
C1072 C 0.42773 0.06014 0.83007 0.0
C1073 C 0.42984 0.06323 0.80109 0.0
C1074 C 0.42238 0.04837 0.78242 0.0
H1075 H 0.43166 0.99398 0.78335 0.0
H1076 H 0.437 0.01703 0.79322 0.0
H1077 H 0.41954 0.99725 0.81181 0.0
H1078 H 0.40278 0.01293 0.82929 0.0
H1079 H 0.41598 0.039 0.86216 0.0
H1080 H 0.04045 0.41618 0.64293 0.0
H1081 H 0.01418 0.4027 0.67544 0.0
H1082 H 0.052 0.42319 0.74509 0.0
H1083 H 0.07824 0.43648 0.7129 0.0
H1084 H 0.024 0.38624 0.75109 0.0
H1085 H 0.9951 0.43117 0.7217 0.0
H1086 H 0.99834 0.41915 0.69309 0.0
H1087 H 0.01814 0.43644 0.71187 0.0
C1088 C 0.04315 0.41782 0.66517 0.0
C1089 C 0.06143 0.42745 0.67532 0.0
C1090 C 0.02814 0.4102 0.68371 0.0
C1091 C 0.03114 0.41217 0.71268 0.0
C1092 C 0.04936 0.42158 0.72282 0.0
H1093 H 0.96135 0.37719 0.8617 0.0
H1094 H 0.98749 0.38993 0.82899 0.0
C1095 C 0.06435 0.42918 0.70436 0.0
C1096 C 0.01537 0.40423 0.73258 0.0
H1097 H 0.97749 0.40675 0.75331 0.0
C1098 C 0.01384 0.39074 0.75165 0.0
C1099 C 0.00217 0.41016 0.73327 0.0
C1100 C 0.00353 0.42514 0.71408 0.0
C1101 C 0.99928 0.38278 0.77109 0.0
C1102 C 0.98609 0.38873 0.77182 0.0
C1103 C 0.98762 0.40222 0.75273 0.0
C1104 C 0.97039 0.38093 0.79186 0.0
C1105 C 0.99791 0.36778 0.79024 0.0
C1106 C 0.95212 0.37201 0.78189 0.0
C1107 C 0.93721 0.36485 0.80048 0.0
C1108 C 0.94024 0.36654 0.82948 0.0
C1109 C 0.95856 0.37556 0.83949 0.0
C1110 C 0.9735 0.38275 0.82082 0.0
H1111 H 0.0061 0.36155 0.78232 0.0
H1112 H 0.00342 0.37382 0.81109 0.0
H1113 H 0.98328 0.35662 0.79283 0.0
H1114 H 0.94939 0.37051 0.75964 0.0
H1115 H 0.92328 0.35802 0.79205 0.0
H1116 H 0.64287 0.56437 0.79034 0.0
H1117 H 0.63005 0.57773 0.75812 0.0
H1118 H 0.61204 0.59757 0.82773 0.0
H1119 H 0.62515 0.58445 0.86026 0.0
H1120 H 0.59398 0.5701 0.75257 0.0
H1121 H 0.6404 0.64403 0.78001 0.0
H1122 H 0.64508 0.62601 0.79063 0.0
H1123 H 0.62826 0.62941 0.80916 0.0
C1124 C 0.63626 0.57164 0.79886 0.0
C1125 C 0.63512 0.57343 0.82789 0.0
C1126 C 0.62891 0.57925 0.78038 0.0
C1127 C 0.62032 0.58888 0.79047 0.0
C1128 C 0.61896 0.59054 0.81946 0.0
H1129 H 0.56546 0.64186 0.71166 0.0
H1130 H 0.57855 0.62873 0.74383 0.0
C1131 C 0.62636 0.58294 0.83803 0.0
C1132 C 0.61249 0.5968 0.77052 0.0
H1133 H 0.61553 0.63733 0.74925 0.0
C1134 C 0.59873 0.58481 0.75177 0.0
C1135 C 0.61874 0.616 0.76946 0.0
C1136 C 0.63405 0.62967 0.7882 0.0
C1137 C 0.59083 0.59145 0.73232 0.0
C1138 C 0.59705 0.61064 0.73131 0.0
C1139 C 0.6108 0.62263 0.75005 0.0
C1140 C 0.58918 0.61852 0.71141 0.0
C1141 C 0.57558 0.57782 0.71346 0.0
C1142 C 0.59098 0.61732 0.68243 0.0
C1143 C 0.58349 0.62484 0.66389 0.0
C1144 C 0.57414 0.63375 0.67407 0.0
C1145 C 0.57254 0.63507 0.70311 0.0
C1146 C 0.58003 0.62758 0.72156 0.0
H1147 H 0.56944 0.56338 0.72125 0.0
H1148 H 0.5644 0.5813 0.71143 0.0
H1149 H 0.58135 0.57843 0.69235 0.0
H1150 H 0.59828 0.61067 0.67415 0.0
H1151 H 0.58501 0.62367 0.64165 0.0
H1152 H 0.25531 0.04437 0.99506 0.0
H1153 H 0.25783 0.07373 0.00974 0.0
H1154 H 0.21035 0.06182 0.95894 0.0
H1155 H 0.20705 0.03195 0.94599 0.0
H1156 H 0.26299 0.10438 0.98831 0.0
H1157 H 0.1921 0.06822 0.03165 0.0
H1158 H 0.20312 0.05585 0.01874 0.0
H1159 H 0.19164 0.06369 0.99505 0.0
C1160 C 0.24556 0.04817 0.98686 0.0
C1161 C 0.23083 0.03587 0.96975 0.0
C1162 C 0.24698 0.06492 0.99527 0.0
C1163 C 0.23388 0.06973 0.98625 0.0
C1164 C 0.22014 0.05809 0.96719 0.0
H1165 H 0.24292 0.17782 1.00252 0.0
H1166 H 0.24739 0.15198 0.98939 0.0
C1167 C 0.21837 0.04112 0.95952 0.0
C1168 C 0.23405 0.08644 0.9976 0.0
H1169 H 0.20604 0.10091 0.02634 0.0
C1170 C 0.25059 0.10361 0.99689 0.0
C1171 C 0.21804 0.08543 0.00963 0.0
C1172 C 0.20031 0.06726 0.01412 0.0
C1173 C 0.2514 0.11982 0.00713 0.0
C1174 C 0.23502 0.119 0.01723 0.0
C1175 C 0.21862 0.10173 0.01842 0.0
C1176 C 0.23422 0.13567 0.02642 0.0
C1177 C 0.26994 0.13746 0.00759 0.0
C1178 C 0.22503 0.13515 0.05134 0.0
C1179 C 0.22178 0.14956 0.05819 0.0
C1180 C 0.22815 0.16506 0.04072 0.0
C1181 C 0.23815 0.16611 0.01654 0.0
C1182 C 0.24085 0.15139 0.00917 0.0
H1183 H 0.28147 0.13447 0.00942 0.0
H1184 H 0.27188 0.14503 0.98768 0.0
H1185 H 0.27095 0.1466 0.02517 0.0
H1186 H 0.2198 0.12328 0.06511 0.0
H1187 H 0.21402 0.14847 0.07694 0.0
H1188 H 0.95781 0.21182 0.99478 0.0
H1189 H 0.9284 0.1852 0.01 0.0
H1190 H 0.93932 0.14912 0.95881 0.0
H1191 H 0.96924 0.17546 0.9453 0.0
H1192 H 0.89737 0.15968 0.98934 0.0
H1193 H 0.93365 0.12487 0.03175 0.0
H1194 H 0.94599 0.1482 0.01852 0.0
H1195 H 0.93777 0.12873 0.99503 0.0
C1196 C 0.95376 0.1982 0.98658 0.0
C1197 C 0.96581 0.19556 0.96921 0.0
C1198 C 0.93699 0.183 0.99531 0.0
C1199 C 0.93191 0.16501 0.98636 0.0
C1200 C 0.94327 0.16271 0.96699 0.0
H1201 H 0.82371 0.06634 0.0055 0.0
H1202 H 0.84949 0.09657 0.99177 0.0
C1203 C 0.96026 0.17778 0.95901 0.0
C1204 C 0.91527 0.14859 0.99817 0.0
H1205 H 0.90087 0.10625 0.02739 0.0
C1206 C 0.89815 0.14806 0.99792 0.0
C1207 C 0.91631 0.13362 0.0102 0.0
C1208 C 0.93446 0.13397 0.0142 0.0
C1209 C 0.882 0.13278 0.00863 0.0
C1210 C 0.88283 0.11722 0.01874 0.0
C1211 C 0.90005 0.118 0.01947 0.0
C1212 C 0.86618 0.09984 0.02838 0.0
C1213 C 0.86443 0.13378 0.00954 0.0
C1214 C 0.86693 0.09128 0.05328 0.0
C1215 C 0.85254 0.07366 0.06047 0.0
C1216 C 0.83685 0.06447 0.04337 0.0
C1217 C 0.83558 0.07333 0.01925 0.0
C1218 C 0.85027 0.0907 0.01153 0.0
H1219 H 0.86755 0.14835 0.01129 0.0
H1220 H 0.85662 0.12806 0.98984 0.0
H1221 H 0.85548 0.12579 0.02737 0.0
H1222 H 0.87897 0.09797 0.06675 0.0
H1223 H 0.85381 0.06707 0.07917 0.0
H1224 H 0.79096 0.74245 0.96972 0.0
H1225 H 0.81703 0.73717 0.97853 0.0
H1226 H 0.85435 0.79619 0.9819 0.0
H1227 H 0.82867 0.80154 0.97284 0.0
H1228 H 0.86776 0.77705 0.95018 0.0
H1229 H 0.84287 0.74517 0.05505 0.0
H1230 H 0.82731 0.73486 0.02603 0.0
H1231 H 0.83337 0.7577 0.03744 0.0
C1232 C 0.80476 0.75426 0.97214 0.0
C1233 C 0.80776 0.7724 0.97074 0.0
C1234 C 0.8196 0.75123 0.97735 0.0
C1235 C 0.83757 0.7663 0.98124 0.0
C1236 C 0.84059 0.78437 0.97903 0.0
H1237 H 0.94634 0.80596 0.03413 0.0
H1238 H 0.91574 0.79872 0.01806 0.0
C1239 C 0.82586 0.78739 0.97388 0.0
C1240 C 0.85346 0.76369 0.98813 0.0
H1241 H 0.87264 0.75176 0.04154 0.0
C1242 C 0.8687 0.77121 0.96994 0.0
C1243 C 0.85463 0.75603 0.0139 0.0
C1244 C 0.83876 0.74805 0.03441 0.0
C1245 C 0.88539 0.7721 0.9774 0.0
C1246 C 0.88692 0.76544 0.00381 0.0
C1247 C 0.87137 0.75688 0.02133 0.0
C1248 C 0.90511 0.76925 0.01469 0.0
C1249 C 0.90151 0.78076 0.95738 0.0
C1250 C 0.90908 0.75495 0.01885 0.0
C1251 C 0.92669 0.75902 0.02806 0.0
C1252 C 0.94052 0.77747 0.03349 0.0
C1253 C 0.93615 0.79162 0.03007 0.0
C1254 C 0.91866 0.78753 0.02078 0.0
H1255 H 0.89687 0.78076 0.93564 0.0
H1256 H 0.911 0.79534 0.96365 0.0
H1257 H 0.90945 0.77332 0.95785 0.0
H1258 H 0.89871 0.74072 0.01441 0.0
H1259 H 0.92955 0.74778 0.03049 0.0
H1260 H 0.18369 0.25528 0.47294 0.0
H1261 H 0.15956 0.26183 0.48898 0.0
H1262 H 0.11887 0.20381 0.48296 0.0
H1263 H 0.14258 0.19708 0.46691 0.0
H1264 H 0.12253 0.25086 0.46119 0.0
H1265 H 0.11716 0.22037 0.56612 0.0
H1266 H 0.13741 0.22836 0.54422 0.0
H1267 H 0.11708 0.20635 0.53754 0.0
C1268 C 0.16958 0.24393 0.47481 0.0
C1269 C 0.16514 0.22562 0.46875 0.0
C1270 C 0.15584 0.24772 0.48401 0.0
C1271 C 0.13754 0.23325 0.4875 0.0
C1272 C 0.13299 0.21512 0.48074 0.0
H1273 H 0.02845 0.20081 0.53054 0.0
H1274 H 0.05932 0.20586 0.52092 0.0
C1275 C 0.1466 0.21133 0.47147 0.0
C1276 C 0.12297 0.23673 0.49848 0.0
H1277 H 0.09195 0.22441 0.55193 0.0
C1278 C 0.11603 0.24546 0.48126 0.0
C1279 C 0.11464 0.2297 0.5247 0.0
C1280 C 0.12202 0.2208 0.54439 0.0
C1281 C 0.1001 0.24619 0.4888 0.0
C1282 C 0.09116 0.23824 0.51442 0.0
C1283 C 0.09879 0.23047 0.53228 0.0
C1284 C 0.07274 0.23577 0.52157 0.0
C1285 C 0.0923 0.2544 0.46857 0.0
C1286 C 0.07006 0.25095 0.52566 0.0
C1287 C 0.05229 0.24809 0.53115 0.0
C1288 C 0.037 0.23002 0.53271 0.0
C1289 C 0.0399 0.21491 0.5294 0.0
C1290 C 0.05756 0.21777 0.52392 0.0
H1291 H 0.09915 0.25722 0.44783 0.0
H1292 H 0.07718 0.24495 0.46571 0.0
H1293 H 0.09435 0.26767 0.47709 0.0
H1294 H 0.08166 0.26496 0.52442 0.0
H1295 H 0.05048 0.25999 0.53372 0.0
H1296 H 0.80006 0.82859 0.54048 0.0
H1297 H 0.79443 0.85404 0.53031 0.0
H1298 H 0.73661 0.81499 0.51602 0.0
H1299 H 0.74212 0.78928 0.52652 0.0
H1300 H 0.75688 0.84243 0.47133 0.0
H1301 H 0.76515 0.87425 0.57596 0.0
H1302 H 0.78277 0.86873 0.56695 0.0
H1303 H 0.75922 0.85039 0.57116 0.0
C1304 C 0.78609 0.8254 0.53558 0.0
C1305 C 0.77153 0.80695 0.53428 0.0
C1306 C 0.78288 0.83996 0.5299 0.0
C1307 C 0.76509 0.83638 0.52265 0.0
C1308 C 0.75041 0.818 0.52178 0.0
H1309 H 0.74897 0.93128 0.4883 0.0
H1310 H 0.74174 0.90004 0.50233 0.0
C1311 C 0.75357 0.80337 0.52783 0.0
C1312 C 0.76238 0.85189 0.51395 0.0
H1313 H 0.76803 0.89322 0.53656 0.0
C1314 C 0.75894 0.85338 0.48566 0.0
C1315 C 0.76499 0.86607 0.53273 0.0
C1316 C 0.76808 0.86478 0.56347 0.0
C1317 C 0.75916 0.86925 0.47537 0.0
C1318 C 0.76291 0.88392 0.49386 0.0
C1319 C 0.76524 0.88195 0.52243 0.0
C1320 C 0.76629 0.90208 0.48359 0.0
C1321 C 0.75595 0.87051 0.44467 0.0
C1322 C 0.78245 0.91347 0.4684 0.0
C1323 C 0.78672 0.93131 0.46062 0.0
C1324 C 0.77483 0.93808 0.46774 0.0
C1325 C 0.75835 0.92643 0.48232 0.0
C1326 C 0.75421 0.90862 0.49042 0.0
H1327 H 0.74903 0.85666 0.43456 0.0
H1328 H 0.74738 0.87711 0.44136 0.0
H1329 H 0.7695 0.87921 0.43421 0.0
H1330 H 0.79204 0.90872 0.46321 0.0
H1331 H 0.79949 0.93989 0.44937 0.0
H1332 H 0.05669 0.86108 0.46484 0.0
H1333 H 0.08719 0.88481 0.4808 0.0
H1334 H 0.10366 0.8437 0.49057 0.0
H1335 H 0.07294 0.81957 0.47462 0.0
H1336 H 0.10305 0.88179 0.53679 0.0
H1337 H 0.14599 0.88915 0.44313 0.0
H1338 H 0.12143 0.8807 0.44016 0.0
H1339 H 0.12936 0.86638 0.4557 0.0
C1340 C 0.06677 0.85698 0.47011 0.0
C1341 C 0.06227 0.83833 0.46848 0.0
C1342 C 0.08421 0.87061 0.47927 0.0
C1343 C 0.09761 0.86598 0.48682 0.0
C1344 C 0.09347 0.84752 0.48464 0.0
H1345 H 0.21036 0.9531 0.5344 0.0
H1346 H 0.18401 0.92192 0.52559 0.0
C1347 C 0.07592 0.83378 0.47552 0.0
C1348 C 0.11555 0.88058 0.4981 0.0
H1349 H 0.16025 0.91081 0.47933 0.0
C1350 C 0.11566 0.88797 0.52445 0.0
C1351 C 0.13195 0.88843 0.48205 0.0
C1352 C 0.13236 0.88088 0.45362 0.0
C1353 C 0.13159 0.90356 0.5347 0.0
C1354 C 0.14768 0.91222 0.51784 0.0
C1355 C 0.14788 0.90418 0.49217 0.0
C1356 C 0.16356 0.93066 0.52505 0.0
C1357 C 0.13092 0.91086 0.56323 0.0
C1358 C 0.16079 0.94585 0.52758 0.0
C1359 C 0.1757 0.96355 0.53256 0.0
C1360 C 0.19378 0.96648 0.53495 0.0
C1361 C 0.19657 0.95123 0.5328 0.0
C1362 C 0.18157 0.93345 0.52771 0.0
H1363 H 0.12053 0.89967 0.57681 0.0
H1364 H 0.14464 0.91727 0.57367 0.0
H1365 H 0.12677 0.92154 0.56105 0.0
H1366 H 0.14709 0.9441 0.52498 0.0
H1367 H 0.17309 0.975 0.53397 0.0
H1368 H 0.80259 0.97599 0.03235 0.0
H1369 H 0.79811 0.94535 0.02239 0.0
H1370 H 0.73886 0.92196 0.02698 0.0
H1371 H 0.74325 0.95285 0.03657 0.0
H1372 H 0.78036 0.91268 0.05324 0.0
H1373 H 0.74631 0.90484 0.95008 0.0
H1374 H 0.75836 0.9268 0.96801 0.0
H1375 H 0.73582 0.90931 0.97961 0.0
C1376 C 0.78859 0.96435 0.03136 0.0
C1377 C 0.77326 0.96685 0.03506 0.0
C1378 C 0.78605 0.94682 0.02569 0.0
C1379 C 0.76816 0.93142 0.02353 0.0
C1380 C 0.75278 0.93373 0.02803 0.0
H1381 H 0.74868 0.82053 0.9752 0.0
H1382 H 0.74227 0.84474 0.9913 0.0
C1383 C 0.75531 0.95134 0.0337 0.0
C1384 C 0.76596 0.91315 0.0162 0.0
H1385 H 0.75279 0.88151 0.96327 0.0
C1386 C 0.77409 0.90573 0.03376 0.0
C1387 C 0.75772 0.90406 0.99079 0.0
C1388 C 0.74914 0.91165 0.97085 0.0
C1389 C 0.77486 0.8899 0.0261 0.0
C1390 C 0.76747 0.88138 1.0001 0.0
C1391 C 0.75845 0.88815 0.98318 0.0
C1392 C 0.77083 0.86676 0.98902 0.0
C1393 C 0.7841 0.88271 0.04548 0.0
C1394 C 0.7889 0.87129 0.98177 0.0
C1395 C 0.7926 0.85763 0.97248 0.0
C1396 C 0.77829 0.83907 0.97021 0.0
C1397 C 0.76004 0.83465 0.97671 0.0
C1398 C 0.75634 0.84843 0.98595 0.0
H1399 H 0.78481 0.8877 0.0672 0.0
H1400 H 0.7766 0.86733 0.04553 0.0
H1401 H 0.79847 0.88767 0.03818 0.0
H1402 H 0.80022 0.88542 0.98364 0.0
H1403 H 0.8068 0.86164 0.96754 0.0
H1404 H 0.14189 0.94557 0.96541 0.0
H1405 H 0.1184 0.91506 0.98169 0.0
H1406 H 0.1593 0.89798 0.98641 0.0
H1407 H 0.18321 0.92873 0.97018 0.0
H1408 H 0.12096 0.87191 0.95878 0.0
H1409 H 0.11897 0.89698 0.06542 0.0
H1410 H 0.11894 0.91127 0.03732 0.0
H1411 H 0.13889 0.90876 0.04274 0.0
C1412 C 0.14599 0.93538 0.96969 0.0
C1413 C 0.16454 0.93971 0.9666 0.0
C1414 C 0.13251 0.91794 0.97908 0.0
C1415 C 0.1372 0.90442 0.98553 0.0
C1416 C 0.15548 0.90833 0.98163 0.0
H1417 H 0.0501 0.791 0.03352 0.0
H1418 H 0.0813 0.81695 0.02339 0.0
C1419 C 0.16909 0.92589 0.97233 0.0
C1420 C 0.1228 0.8864 0.99685 0.0
H1421 H 0.09329 0.86785 0.05209 0.0
C1422 C 0.11511 0.87081 0.97939 0.0
C1423 C 0.11531 0.88512 0.02375 0.0
C1424 C 0.12351 0.90136 0.04357 0.0
C1425 C 0.09924 0.85425 0.98749 0.0
C1426 C 0.09114 0.85331 0.01387 0.0
C1427 C 0.09952 0.86861 0.03189 0.0
C1428 C 0.07278 0.83755 0.02174 0.0
C1429 C 0.09058 0.83833 0.96713 0.0
C1430 C 0.05784 0.84066 0.02504 0.0
C1431 C 0.04016 0.82599 0.03092 0.0
C1432 C 0.03703 0.80787 0.03375 0.0
C1433 C 0.05211 0.80482 0.03138 0.0
C1434 C 0.06988 0.81958 0.02541 0.0
H1435 H 0.09699 0.8423 0.94608 0.0
H1436 H 0.09236 0.8268 0.97498 0.0
H1437 H 0.07549 0.83312 0.96513 0.0
H1438 H 0.05978 0.85442 0.02238 0.0
H1439 H 0.02887 0.82883 0.03272 0.0
H1440 H 0.17398 0.19958 0.03123 0.0
H1441 H 0.14784 0.20411 0.02122 0.0
H1442 H 0.18422 0.26334 0.02254 0.0
H1443 H 0.21068 0.2589 0.03228 0.0
H1444 H 0.13373 0.22328 0.05136 0.0
H1445 H 0.15858 0.2537 0.94576 0.0
H1446 H 0.16835 0.24179 0.96443 0.0
H1447 H 0.17414 0.2648 0.97451 0.0
C1448 C 0.17646 0.2136 0.02953 0.0
C1449 C 0.19442 0.22889 0.03235 0.0
C1450 C 0.16149 0.21616 0.02384 0.0
C1451 C 0.16413 0.23405 0.02074 0.0
C1452 C 0.18195 0.24941 0.02437 0.0
H1453 H 0.07336 0.25382 0.96981 0.0
H1454 H 0.10395 0.26014 0.98596 0.0
C1455 C 0.19701 0.24685 0.03011 0.0
C1456 C 0.14808 0.23625 0.01325 0.0
H1457 H 0.12909 0.24801 0.95935 0.0
C1458 C 0.13282 0.22893 0.03141 0.0
C1459 C 0.14695 0.24369 0.98724 0.0
C1460 C 0.16279 0.25135 0.96668 0.0
C1461 C 0.11622 0.2282 0.02382 0.0
C1462 C 0.11478 0.23477 0.99727 0.0
C1463 C 0.1303 0.24298 0.97967 0.0
C1464 C 0.09671 0.23136 0.98644 0.0
C1465 C 0.10013 0.21991 0.04392 0.0
C1466 C 0.08277 0.21317 0.98075 0.0
C1467 C 0.06542 0.20951 0.9714 0.0
C1468 C 0.06159 0.22399 0.96753 0.0
C1469 C 0.07579 0.24233 0.97259 0.0
C1470 C 0.09327 0.24598 0.98184 0.0
H1471 H 0.10477 0.21995 0.06568 0.0
H1472 H 0.09243 0.22758 0.0433 0.0
H1473 H 0.09043 0.20533 0.03787 0.0
H1474 H 0.08528 0.20173 0.9838 0.0
H1475 H 0.05492 0.19523 0.96766 0.0
H1476 H 0.95279 0.74216 0.47246 0.0
H1477 H 0.922 0.73708 0.48539 0.0
H1478 H 0.94383 0.7961 0.48704 0.0
H1479 H 0.97438 0.80131 0.47416 0.0
H1480 H 0.92323 0.77115 0.53932 0.0
H1481 H 0.88591 0.75155 0.43737 0.0
H1482 H 0.90077 0.74255 0.44747 0.0
H1483 H 0.91076 0.76654 0.43862 0.0
C1484 C 0.95093 0.75401 0.47519 0.0
C1485 C 0.96601 0.77213 0.47241 0.0
C1486 C 0.93337 0.75109 0.48257 0.0
C1487 C 0.93075 0.76624 0.48716 0.0
C1488 C 0.94564 0.78425 0.48358 0.0
H1489 H 0.86173 0.8053 0.5454 0.0
H1490 H 0.8858 0.79811 0.53341 0.0
C1491 C 0.96308 0.78718 0.4762 0.0
C1492 C 0.91289 0.7637 0.49736 0.0
H1493 H 0.87134 0.75754 0.47486 0.0
C1494 C 0.91172 0.76785 0.52538 0.0
C1495 C 0.89793 0.75926 0.47914 0.0
C1496 C 0.89872 0.75469 0.44891 0.0
C1497 C 0.89624 0.76848 0.53543 0.0
C1498 C 0.88178 0.76529 0.51676 0.0
C1499 C 0.88248 0.76008 0.48909 0.0
C1500 C 0.86687 0.76913 0.52486 0.0
C1501 C 0.89572 0.77299 0.5658 0.0
C1502 C 0.84814 0.75528 0.52352 0.0
C1503 C 0.83422 0.75936 0.5303 0.0
C1504 C 0.8388 0.77743 0.53824 0.0
C1505 C 0.85762 0.79121 0.53952 0.0
C1506 C 0.87146 0.78711 0.53283 0.0
H1507 H 0.90427 0.76907 0.57878 0.0
H1508 H 0.90147 0.78814 0.56808 0.0
H1509 H 0.88132 0.76578 0.57398 0.0
H1510 H 0.84431 0.74134 0.51719 0.0
H1511 H 0.81988 0.74842 0.52891 0.0
H1512 H 0.2028 0.17494 0.46829 0.0
H1513 H 0.20822 0.1493 0.47746 0.0
H1514 H 0.26719 0.18718 0.47904 0.0
H1515 H 0.26184 0.21317 0.47002 0.0
H1516 H 0.2294 0.13699 0.44727 0.0
H1517 H 0.25599 0.15996 0.55527 0.0
H1518 H 0.24375 0.16929 0.53638 0.0
H1519 H 0.26721 0.17621 0.52729 0.0
C1520 C 0.21696 0.17786 0.4704 0.0
C1521 C 0.2319 0.19609 0.46862 0.0
C1522 C 0.22002 0.16317 0.4756 0.0
C1523 C 0.23807 0.16636 0.47927 0.0
C1524 C 0.25313 0.18447 0.47667 0.0
H1525 H 0.25551 0.07433 0.53249 0.0
H1526 H 0.26314 0.10528 0.5161 0.0
C1527 C 0.25006 0.19926 0.47136 0.0
C1528 C 0.24069 0.15054 0.48654 0.0
H1529 H 0.25038 0.13059 0.54144 0.0
C1530 C 0.23432 0.13573 0.46766 0.0
C1531 C 0.24715 0.14895 0.51315 0.0
C1532 C 0.25384 0.16436 0.53436 0.0
C1533 C 0.23339 0.11903 0.47518 0.0
C1534 C 0.2388 0.11706 0.50233 0.0
C1535 C 0.24624 0.13221 0.52064 0.0
C1536 C 0.23461 0.09872 0.51305 0.0
C1537 C 0.22599 0.10335 0.45438 0.0
C1538 C 0.2161 0.08503 0.51731 0.0
C1539 C 0.21169 0.06749 0.52682 0.0
C1540 C 0.22572 0.06321 0.53225 0.0
C1541 C 0.24435 0.07712 0.52849 0.0
C1542 C 0.24875 0.0948 0.5191 0.0
H1543 H 0.227 0.10842 0.43264 0.0
H1544 H 0.23359 0.09561 0.45587 0.0
H1545 H 0.21116 0.09357 0.45898 0.0
H1546 H 0.20501 0.0879 0.5131 0.0
H1547 H 0.1972 0.05722 0.52948 0.0
H1548 H 0.94534 0.14127 0.54277 0.0
H1549 H 0.91423 0.11723 0.53012 0.0
H1550 H 0.89841 0.15854 0.51637 0.0
H1551 H 0.92986 0.18299 0.52869 0.0
H1552 H 0.88025 0.10861 0.55462 0.0
H1553 H 0.88377 0.12862 0.4428 0.0
H1554 H 0.90421 0.13733 0.46437 0.0
H1555 H 0.8887 0.14621 0.46855 0.0
C1556 C 0.93533 0.14537 0.53711 0.0
C1557 C 0.94021 0.16415 0.53665 0.0
C1558 C 0.91749 0.13155 0.52991 0.0
C1559 C 0.90407 0.1361 0.52199 0.0
C1560 C 0.90867 0.15476 0.522 0.0
H1561 H 0.79151 0.04923 0.47042 0.0
H1562 H 0.81732 0.08 0.48312 0.0
C1563 C 0.92661 0.16869 0.52924 0.0
C1564 C 0.8854 0.12102 0.51378 0.0
H1565 H 0.85732 0.10112 0.45719 0.0
C1566 C 0.8751 0.10713 0.53343 0.0
C1567 C 0.87869 0.11914 0.48612 0.0
C1568 C 0.8894 0.13351 0.46409 0.0
C1569 C 0.85868 0.09104 0.52588 0.0
C1570 C 0.8525 0.08873 0.49794 0.0
C1571 C 0.86219 0.10301 0.47859 0.0
C1572 C 0.83719 0.07074 0.48805 0.0
C1573 C 0.84838 0.07629 0.5476 0.0
C1574 C 0.84004 0.05559 0.48597 0.0
C1575 C 0.82547 0.03815 0.47866 0.0
C1576 C 0.80772 0.03551 0.47335 0.0
C1577 C 0.80503 0.05086 0.47446 0.0
C1578 C 0.81972 0.0684 0.4817 0.0
H1579 H 0.85245 0.0818 0.56914 0.0
H1580 H 0.83317 0.07027 0.54525 0.0
H1581 H 0.85156 0.06496 0.54476 0.0
H1582 H 0.8535 0.05721 0.49057 0.0
H1583 H 0.82804 0.02665 0.47787 0.0
H1584 H 0.86332 0.47448 0.36864 0.0
H1585 H 0.87044 0.45098 0.35288 0.0
H1586 H 0.92833 0.49216 0.34687 0.0
H1587 H 0.9214 0.51605 0.36265 0.0
H1588 H 0.89057 0.45424 0.29854 0.0
H1589 H 0.92418 0.44658 0.39435 0.0
H1590 H 0.90818 0.4552 0.39611 0.0
H1591 H 0.93081 0.46941 0.38158 0.0
C1592 C 0.87763 0.47864 0.36422 0.0
C1593 C 0.89178 0.49723 0.36692 0.0
C1594 C 0.88164 0.46514 0.35516 0.0
C1595 C 0.89988 0.46985 0.34878 0.0
C1596 C 0.91417 0.48827 0.3519 0.0
H1597 H 0.92613 0.38276 0.30394 0.0
H1598 H 0.93105 0.414 0.31232 0.0
C1599 C 0.91016 0.50188 0.3609 0.0
C1600 C 0.90351 0.45537 0.33794 0.0
H1601 H 0.91766 0.42515 0.35811 0.0
C1602 C 0.89677 0.44806 0.31135 0.0
C1603 C 0.91178 0.4475 0.35461 0.0
C1604 C 0.91916 0.45495 0.38332 0.0
C1605 C 0.89731 0.43251 0.30146 0.0
C1606 C 0.90441 0.42382 0.3189 0.0
C1607 C 0.91217 0.4318 0.34483 0.0
C1608 C 0.90186 0.40536 0.31204 0.0
C1609 C 0.88985 0.42524 0.27269 0.0
C1610 C 0.88387 0.3902 0.30924 0.0
C1611 C 0.88105 0.37248 0.30455 0.0
C1612 C 0.89616 0.36948 0.30269 0.0
C1613 C 0.91423 0.38468 0.30513 0.0
C1614 C 0.91705 0.4025 0.30997 0.0
H1615 H 0.89086 0.43643 0.25891 0.0
H1616 H 0.8974 0.41891 0.26277 0.0
H1617 H 0.875 0.4145 0.27433 0.0
H1618 H 0.87193 0.39201 0.31137 0.0
H1619 H 0.86695 0.36106 0.30288 0.0
H1620 H 0.64147 0.50773 0.30542 0.0
H1621 H 0.61105 0.48255 0.3192 0.0
H1622 H 0.58974 0.52017 0.31991 0.0
H1623 H 0.62038 0.54569 0.306 0.0
H1624 H 0.59269 0.48568 0.37185 0.0
H1625 H 0.55092 0.47156 0.2746 0.0
H1626 H 0.57583 0.48192 0.27331 0.0
H1627 H 0.56577 0.49512 0.28596 0.0
C1628 C 0.63029 0.51067 0.30813 0.0
C1629 C 0.63334 0.52873 0.30476 0.0
C1630 C 0.61292 0.49625 0.31602 0.0
C1631 C 0.5982 0.49952 0.32055 0.0
C1632 C 0.60093 0.51737 0.31629 0.0
H1633 H 0.48777 0.40761 0.36897 0.0
H1634 H 0.51222 0.43918 0.35713 0.0
C1635 C 0.61841 0.53191 0.30837 0.0
C1636 C 0.58053 0.48435 0.33166 0.0
H1637 H 0.53717 0.45079 0.31205 0.0
C1638 C 0.58043 0.47821 0.35895 0.0
C1639 C 0.56453 0.47482 0.31488 0.0
C1640 C 0.56409 0.48105 0.28549 0.0
C1641 C 0.56503 0.46226 0.36951 0.0
C1642 C 0.54949 0.45192 0.35206 0.0
C1643 C 0.54914 0.45868 0.32533 0.0
C1644 C 0.53455 0.43313 0.36007 0.0
C1645 C 0.56575 0.45637 0.39905 0.0
C1646 C 0.53898 0.41927 0.36535 0.0
C1647 C 0.52518 0.40137 0.3722 0.0
C1648 C 0.50649 0.39677 0.37366 0.0
C1649 C 0.50202 0.41068 0.36826 0.0
C1650 C 0.51594 0.42871 0.3614 0.0
H1651 H 0.57515 0.46844 0.41222 0.0
H1652 H 0.55178 0.44924 0.40876 0.0
H1653 H 0.57123 0.44668 0.39889 0.0
H1654 H 0.55318 0.42224 0.36377 0.0
H1655 H 0.52921 0.39106 0.37597 0.0
H1656 H 0.45694 0.07473 0.30622 0.0
H1657 H 0.48219 0.06897 0.31933 0.0
H1658 H 0.51992 0.12781 0.32435 0.0
H1659 H 0.49506 0.13369 0.31125 0.0
H1660 H 0.52365 0.08877 0.29202 0.0
H1661 H 0.51669 0.10057 0.40451 0.0
H1662 H 0.49754 0.09231 0.38027 0.0
H1663 H 0.51523 0.11628 0.38024 0.0
C1664 C 0.47068 0.0864 0.30978 0.0
C1665 C 0.474 0.10466 0.30787 0.0
C1666 C 0.48504 0.08309 0.31727 0.0
C1667 C 0.5028 0.09799 0.32299 0.0
C1668 C 0.50624 0.11616 0.32015 0.0
H1669 H 0.61031 0.1361 0.37989 0.0
H1670 H 0.57902 0.12856 0.36731 0.0
C1671 C 0.49201 0.11947 0.31265 0.0
C1672 C 0.51784 0.09498 0.33307 0.0
H1673 H 0.54471 0.10193 0.39054 0.0
C1674 C 0.52808 0.09119 0.31365 0.0
C1675 C 0.52349 0.09821 0.36128 0.0
C1676 C 0.51263 0.10196 0.38294 0.0
C1677 C 0.54461 0.09172 0.32146 0.0
C1678 C 0.5508 0.09594 0.34945 0.0
C1679 C 0.53994 0.09871 0.36912 0.0
C1680 C 0.56948 0.09978 0.35803 0.0
C1681 C 0.55592 0.08895 0.29941 0.0
C1682 C 0.57443 0.08599 0.35744 0.0
C1683 C 0.59244 0.09026 0.36465 0.0
C1684 C 0.60577 0.10841 0.37259 0.0
C1685 C 0.60051 0.12201 0.37377 0.0
C1686 C 0.58258 0.11772 0.36663 0.0
H1687 H 0.55056 0.08853 0.27803 0.0
H1688 H 0.57061 0.10024 0.30038 0.0
H1689 H 0.55558 0.07566 0.30327 0.0
H1690 H 0.56442 0.07198 0.35127 0.0
H1691 H 0.59599 0.07943 0.36354 0.0
H1692 H 0.85071 0.5878 0.80645 0.0
H1693 H 0.82621 0.59472 0.8185 0.0
H1694 H 0.78516 0.53706 0.80841 0.0
H1695 H 0.80928 0.53004 0.79603 0.0
H1696 H 0.77582 0.56142 0.78238 0.0
H1697 H 0.79742 0.58137 0.89295 0.0
H1698 H 0.81461 0.59344 0.86644 0.0
H1699 H 0.80601 0.56922 0.87214 0.0
C1700 C 0.83646 0.5766 0.80667 0.0
C1701 C 0.83202 0.55834 0.80032 0.0
C1702 C 0.8225 0.58058 0.81376 0.0
C1703 C 0.8039 0.56635 0.8147 0.0
C1704 C 0.79943 0.54824 0.80789 0.0
H1705 H 0.69503 0.53358 0.86085 0.0
H1706 H 0.72547 0.53861 0.8478 0.0
C1707 C 0.81329 0.54425 0.80083 0.0
C1708 C 0.78883 0.57 0.82268 0.0
H1709 H 0.76972 0.57988 0.87854 0.0
C1710 C 0.77463 0.56574 0.80328 0.0
C1711 C 0.78735 0.57569 0.84994 0.0
C1712 C 0.80206 0.5801 0.87173 0.0
C1713 C 0.75864 0.56626 0.81074 0.0
C1714 C 0.75673 0.57102 0.83836 0.0
C1715 C 0.77131 0.57625 0.85739 0.0
C1716 C 0.73884 0.56849 0.84841 0.0
C1717 C 0.74356 0.56108 0.78932 0.0
C1718 C 0.73645 0.5837 0.85383 0.0
C1719 C 0.71894 0.58088 0.8613 0.0
C1720 C 0.70371 0.56281 0.86355 0.0
C1721 C 0.70643 0.54767 0.85915 0.0
C1722 C 0.72382 0.5505 0.85165 0.0
H1723 H 0.74878 0.56195 0.76772 0.0
H1724 H 0.73234 0.54663 0.79309 0.0
H1725 H 0.73747 0.57023 0.79106 0.0
H1726 H 0.74796 0.59769 0.85152 0.0
H1727 H 0.71725 0.59279 0.8646 0.0
H1728 H 0.46869 0.15997 0.86431 0.0
H1729 H 0.46389 0.18557 0.85146 0.0
H1730 H 0.40473 0.1492 0.85524 0.0
H1731 H 0.4094 0.12327 0.86814 0.0
H1732 H 0.43988 0.18222 0.80057 0.0
H1733 H 0.4187 0.19909 0.90183 0.0
H1734 H 0.43298 0.18844 0.9008 0.0
H1735 H 0.40904 0.17526 0.89116 0.0
C1736 C 0.45463 0.1574 0.86275 0.0
C1737 C 0.43941 0.13957 0.86712 0.0
C1738 C 0.45193 0.17205 0.85539 0.0
C1739 C 0.43398 0.16924 0.85244 0.0
C1740 C 0.41869 0.15162 0.85761 0.0
H1741 H 0.4159 0.26196 0.80891 0.0
H1742 H 0.40879 0.23044 0.82084 0.0
C1743 C 0.42138 0.13686 0.86495 0.0
C1744 C 0.4316 0.18464 0.84219 0.0
H1745 H 0.42438 0.21945 0.86421 0.0
C1746 C 0.4362 0.19021 0.81433 0.0
C1747 C 0.42661 0.19485 0.86016 0.0
C1748 C 0.42154 0.18925 0.89022 0.0
C1749 C 0.43674 0.20625 0.80424 0.0
C1750 C 0.43298 0.21721 0.82268 0.0
C1751 C 0.42733 0.21106 0.85015 0.0
C1752 C 0.43682 0.23598 0.81467 0.0
C1753 C 0.44175 0.21154 0.77404 0.0
C1754 C 0.45493 0.24953 0.80754 0.0
C1755 C 0.45903 0.26744 0.80072 0.0
C1756 C 0.44512 0.2723 0.80105 0.0
C1757 C 0.42692 0.25868 0.80824 0.0
C1758 C 0.42284 0.24068 0.81514 0.0
H1759 H 0.43819 0.19919 0.76096 0.0
H1760 H 0.43455 0.21864 0.76552 0.0
H1761 H 0.45692 0.2211 0.77236 0.0
H1762 H 0.46602 0.24632 0.80763 0.0
H1763 H 0.47322 0.27751 0.79546 0.0
H1764 H 0.72187 0.19436 0.80203 0.0
H1765 H 0.75237 0.2181 0.818 0.0
H1766 H 0.76943 0.17728 0.82515 0.0
H1767 H 0.73875 0.15318 0.80912 0.0
H1768 H 0.76882 0.21586 0.87219 0.0
H1769 H 0.81131 0.22206 0.77854 0.0
H1770 H 0.7866 0.21289 0.77614 0.0
H1771 H 0.79536 0.19936 0.79199 0.0
C1772 C 0.73207 0.19034 0.80673 0.0
C1773 C 0.72777 0.17179 0.80427 0.0
C1774 C 0.74952 0.20397 0.81592 0.0
C1775 C 0.76312 0.19944 0.82267 0.0
C1776 C 0.75912 0.18106 0.81979 0.0
H1777 H 0.87652 0.2856 0.86959 0.0
H1778 H 0.84981 0.25457 0.86112 0.0
C1779 C 0.74158 0.16732 0.81065 0.0
C1780 C 0.78116 0.21404 0.83371 0.0
H1781 H 0.82607 0.24344 0.81487 0.0
C1782 C 0.78142 0.22174 0.85986 0.0
C1783 C 0.79757 0.22149 0.8177 0.0
C1784 C 0.79787 0.21366 0.78946 0.0
C1785 C 0.79752 0.23722 0.86995 0.0
C1786 C 0.81363 0.24547 0.85314 0.0
C1787 C 0.81367 0.23713 0.82767 0.0
C1788 C 0.82975 0.26382 0.86011 0.0
C1789 C 0.79698 0.24484 0.89829 0.0
C1790 C 0.82731 0.27924 0.86224 0.0
C1791 C 0.84243 0.29684 0.86704 0.0
C1792 C 0.86038 0.29945 0.86962 0.0
C1793 C 0.86283 0.28398 0.86783 0.0
C1794 C 0.84762 0.26629 0.86294 0.0
H1795 H 0.78647 0.23387 0.91201 0.0
H1796 H 0.8107 0.25112 0.90876 0.0
H1797 H 0.7931 0.25569 0.89579 0.0
H1798 H 0.81373 0.27774 0.85949 0.0
H1799 H 0.84006 0.30846 0.86816 0.0
H1800 H 0.41572 0.15375 0.30721 0.0
H1801 H 0.40906 0.17859 0.31826 0.0
H1802 H 0.46708 0.21898 0.30995 0.0
H1803 H 0.47385 0.19458 0.29862 0.0
H1804 H 0.42334 0.20453 0.36244 0.0
H1805 H 0.44232 0.24002 0.26016 0.0
H1806 H 0.43788 0.21665 0.26484 0.0
H1807 H 0.46016 0.23612 0.27359 0.0
C1808 C 0.42703 0.16795 0.30746 0.0
C1809 C 0.44532 0.17214 0.30181 0.0
C1810 C 0.4232 0.1821 0.31385 0.0
C1811 C 0.43754 0.20064 0.31444 0.0
C1812 C 0.45574 0.20481 0.30897 0.0
H1813 H 0.4702 0.30897 0.36298 0.0
H1814 H 0.46514 0.27849 0.35006 0.0
C1815 C 0.45959 0.19077 0.30262 0.0
C1816 C 0.43391 0.21582 0.32171 0.0
H1817 H 0.44296 0.25842 0.29946 0.0
C1818 C 0.42721 0.21615 0.3485 0.0
C1819 C 0.43885 0.23089 0.30339 0.0
C1820 C 0.44502 0.23084 0.27379 0.0
C1821 C 0.42659 0.23177 0.35808 0.0
C1822 C 0.43275 0.2473 0.34036 0.0
C1823 C 0.4384 0.24652 0.31307 0.0
C1824 C 0.43524 0.26518 0.35042 0.0
C1825 C 0.42037 0.23206 0.38754 0.0
C1826 C 0.42004 0.2677 0.35524 0.0
C1827 C 0.42289 0.28521 0.36264 0.0
C1828 C 0.44098 0.30038 0.36523 0.0
C1829 C 0.4561 0.29759 0.36111 0.0
C1830 C 0.45325 0.28019 0.3537 0.0
H1831 H 0.41724 0.21936 0.39934 0.0
H1832 H 0.43125 0.24433 0.39884 0.0
H1833 H 0.40771 0.23328 0.38707 0.0
H1834 H 0.40603 0.25628 0.35257 0.0
H1835 H 0.41098 0.28696 0.36562 0.0
H1836 H 0.80742 0.27757 0.2972 0.0
H1837 H 0.78369 0.24633 0.30981 0.0
H1838 H 0.82537 0.23059 0.31969 0.0
H1839 H 0.84953 0.26216 0.30738 0.0
H1840 H 0.77492 0.21269 0.28363 0.0
H1841 H 0.79654 0.21492 0.39436 0.0
H1842 H 0.80478 0.23563 0.37356 0.0
H1843 H 0.81376 0.22035 0.36776 0.0
C1844 C 0.81167 0.26755 0.30201 0.0
C1845 C 0.83047 0.27248 0.30135 0.0
C1846 C 0.79803 0.24964 0.30919 0.0
C1847 C 0.80278 0.2362 0.31598 0.0
C1848 C 0.82145 0.24086 0.31494 0.0
H1849 H 0.71613 0.12325 0.3668 0.0
H1850 H 0.74689 0.14895 0.35367 0.0
C1851 C 0.83521 0.25887 0.30771 0.0
C1852 C 0.78788 0.21741 0.32401 0.0
H1853 H 0.76873 0.18874 0.38021 0.0
C1854 C 0.77373 0.20731 0.30461 0.0
C1855 C 0.78639 0.21039 0.35139 0.0
C1856 C 0.80107 0.22086 0.37313 0.0
C1857 C 0.75774 0.19082 0.3122 0.0
C1858 C 0.75579 0.18435 0.33994 0.0
C1859 C 0.77034 0.19382 0.35897 0.0
C1860 C 0.73787 0.16908 0.35009 0.0
C1861 C 0.74268 0.18076 0.2908 0.0
C1862 C 0.72287 0.17211 0.35308 0.0
C1863 C 0.70545 0.15761 0.36061 0.0
C1864 C 0.70267 0.13975 0.36528 0.0
C1865 C 0.71788 0.13686 0.36328 0.0
C1866 C 0.73541 0.15148 0.35579 0.0
H1867 H 0.74794 0.18497 0.26917 0.0
H1868 H 0.73658 0.16554 0.29281 0.0
H1869 H 0.73148 0.18404 0.29432 0.0
H1870 H 0.72459 0.18566 0.349 0.0
H1871 H 0.69407 0.16033 0.3621 0.0
H1872 H 0.87856 0.5934 0.36546 0.0
H1873 H 0.85238 0.59852 0.3567 0.0
H1874 H 0.81472 0.53956 0.35981 0.0
H1875 H 0.84053 0.53439 0.36865 0.0
H1876 H 0.82766 0.58453 0.31112 0.0
H1877 H 0.78974 0.55977 0.41088 0.0
H1878 H 0.81375 0.56603 0.40715 0.0
H1879 H 0.79556 0.5435 0.39639 0.0
C1880 C 0.86465 0.58159 0.36469 0.0
C1881 C 0.86159 0.5635 0.3678 0.0
C1882 C 0.84975 0.58453 0.35963 0.0
C1883 C 0.83159 0.56944 0.35802 0.0
C1884 C 0.82856 0.55144 0.36157 0.0
H1885 H 0.72409 0.53066 0.30028 0.0
H1886 H 0.75475 0.5379 0.31619 0.0
C1887 C 0.84337 0.5485 0.36646 0.0
C1888 C 0.81576 0.57205 0.35076 0.0
H1889 H 0.77157 0.55885 0.37088 0.0
C1890 C 0.81555 0.57937 0.32443 0.0
C1891 C 0.80001 0.56537 0.36822 0.0
C1892 C 0.79982 0.55841 0.39736 0.0
C1893 C 0.79949 0.57892 0.31434 0.0
C1894 C 0.78338 0.57104 0.33109 0.0
C1895 C 0.78395 0.56476 0.35802 0.0
C1896 C 0.76527 0.56733 0.32003 0.0
C1897 C 0.79941 0.5858 0.28527 0.0
C1898 C 0.76113 0.58157 0.3167 0.0
C1899 C 0.74349 0.5775 0.30762 0.0
C1900 C 0.72976 0.55909 0.30173 0.0
C1901 C 0.73423 0.54498 0.30459 0.0
C1902 C 0.75176 0.54907 0.31374 0.0
H1903 H 0.81286 0.5908 0.27441 0.0
H1904 H 0.78827 0.57454 0.27271 0.0
H1905 H 0.79639 0.59734 0.28632 0.0
H1906 H 0.77139 0.59575 0.32164 0.0
H1907 H 0.74054 0.5887 0.30574 0.0
H1908 H 0.61996 0.07476 0.81179 0.0
H1909 H 0.58875 0.06908 0.82298 0.0
H1910 H 0.60714 0.1268 0.80882 0.0
H1911 H 0.63822 0.1326 0.79797 0.0
H1912 H 0.58196 0.08938 0.86815 0.0
H1913 H 0.55716 0.09725 0.7643 0.0
H1914 H 0.57521 0.09144 0.76851 0.0
H1915 H 0.58039 0.11495 0.77282 0.0
C1916 C 0.61723 0.08615 0.81063 0.0
C1917 C 0.63151 0.10413 0.80406 0.0
C1918 C 0.59945 0.0829 0.81708 0.0
C1919 C 0.59565 0.0975 0.81648 0.0
C1920 C 0.60974 0.1153 0.80904 0.0
H1921 H 0.52667 0.13133 0.89214 0.0
H1922 H 0.55044 0.12406 0.87785 0.0
C1923 C 0.62751 0.11861 0.80296 0.0
C1924 C 0.57749 0.09472 0.8257 0.0
H1925 H 0.54141 0.10007 0.80419 0.0
C1926 C 0.57288 0.09135 0.8541 0.0
C1927 C 0.56567 0.09721 0.80729 0.0
C1928 C 0.56972 0.10026 0.77646 0.0
C1929 C 0.55728 0.09149 0.86486 0.0
C1930 C 0.5461 0.0951 0.84672 0.0
C1931 C 0.55008 0.09738 0.81805 0.0
C1932 C 0.5313 0.09833 0.85742 0.0
C1933 C 0.55316 0.08834 0.89566 0.0
C1934 C 0.51266 0.0862 0.85074 0.0
C1935 C 0.49896 0.09024 0.85909 0.0
C1936 C 0.50379 0.10667 0.87378 0.0
C1937 C 0.52248 0.11859 0.88081 0.0
C1938 C 0.53608 0.11442 0.87278 0.0
H1939 H 0.56023 0.08148 0.90548 0.0
H1940 H 0.55808 0.1019 0.90611 0.0
H1941 H 0.53801 0.07973 0.89934 0.0
H1942 H 0.50876 0.07378 0.83871 0.0
H1943 H 0.48471 0.08084 0.85317 0.0
H1944 H 0.87025 0.50774 0.8033 0.0
H1945 H 0.87594 0.48227 0.81248 0.0
H1946 H 0.93482 0.52052 0.81398 0.0
H1947 H 0.9292 0.54633 0.80488 0.0
H1948 H 0.89771 0.4705 0.78182 0.0
H1949 H 0.92345 0.49298 0.89032 0.0
H1950 H 0.91091 0.50203 0.87156 0.0
H1951 H 0.93449 0.50945 0.86253 0.0
C1952 C 0.88444 0.51078 0.8054 0.0
C1953 C 0.89928 0.52906 0.80353 0.0
C1954 C 0.88766 0.49619 0.81062 0.0
C1955 C 0.90577 0.49954 0.81422 0.0
C1956 C 0.92072 0.5177 0.81162 0.0
H1957 H 0.92308 0.4073 0.86709 0.0
H1958 H 0.93097 0.43837 0.85087 0.0
C1959 C 0.9175 0.53238 0.80627 0.0
C1960 C 0.90855 0.48381 0.82137 0.0
H1961 H 0.91795 0.46367 0.87633 0.0
C1962 C 0.90249 0.46915 0.80228 0.0
C1963 C 0.91484 0.48213 0.84807 0.0
C1964 C 0.92123 0.49739 0.86948 0.0
C1965 C 0.90165 0.45248 0.80967 0.0
C1966 C 0.90682 0.45037 0.83692 0.0
C1967 C 0.914 0.4654 0.85546 0.0
C1968 C 0.90251 0.43197 0.84751 0.0
C1969 C 0.89454 0.43693 0.78866 0.0
C1970 C 0.88395 0.41834 0.85152 0.0
C1971 C 0.8794 0.40075 0.86093 0.0
C1972 C 0.89332 0.39634 0.86651 0.0
C1973 C 0.912 0.41019 0.86297 0.0
C1974 C 0.91655 0.42793 0.85369 0.0
H1975 H 0.89572 0.44213 0.76697 0.0
H1976 H 0.90222 0.42928 0.79026 0.0
H1977 H 0.87969 0.42704 0.79293 0.0
H1978 H 0.87294 0.4213 0.84719 0.0
H1979 H 0.86487 0.39053 0.86341 0.0
H1980 H 0.5972 0.51601 0.86021 0.0
H1981 H 0.56561 0.49153 0.84863 0.0
H1982 H 0.58016 0.45007 0.86909 0.0
H1983 H 0.61144 0.47417 0.88092 0.0
H1984 H 0.55517 0.4637 0.80768 0.0
H1985 H 0.53204 0.43268 0.9124 0.0
H1986 H 0.55188 0.45549 0.90728 0.0
H1987 H 0.55404 0.43519 0.90319 0.0
C1988 C 0.59359 0.50168 0.8626 0.0
C1989 C 0.60689 0.49709 0.8716 0.0
C1990 C 0.57556 0.48773 0.8559 0.0
C1991 C 0.57047 0.469 0.85841 0.0
C1992 C 0.58366 0.46442 0.86757 0.0
H1993 H 0.49615 0.36073 0.80989 0.0
H1994 H 0.5212 0.39148 0.82272 0.0
C1995 C 0.60162 0.47827 0.87416 0.0
C1996 C 0.55177 0.45401 0.85014 0.0
H1997 H 0.51587 0.41291 0.87316 0.0
C1998 C 0.54632 0.45281 0.82211 0.0
C1999 C 0.54021 0.43987 0.86904 0.0
C2000 C 0.54474 0.44095 0.89972 0.0
C2001 C 0.53025 0.43715 0.81212 0.0
C2002 C 0.51946 0.42249 0.83067 0.0
C2003 C 0.5243 0.42418 0.85898 0.0
C2004 C 0.50434 0.40444 0.82066 0.0
C2005 C 0.5254 0.43581 0.78157 0.0
C2006 C 0.48663 0.40167 0.81491 0.0
C2007 C 0.47218 0.38401 0.80758 0.0
C2008 C 0.47532 0.36896 0.80598 0.0
C2009 C 0.49325 0.37201 0.81098 0.0
C2010 C 0.50759 0.38956 0.81834 0.0
H2011 H 0.53523 0.44843 0.7698 0.0
H2012 H 0.52544 0.42364 0.77222 0.0
H2013 H 0.5112 0.43365 0.77918 0.0
H2014 H 0.4839 0.41303 0.81674 0.0
H2015 H 0.45849 0.38205 0.80388 0.0
H2016 H 0.5933 0.71549 0.63529 0.0
H2017 H 0.59848 0.74633 0.64806 0.0
H2018 H 0.53946 0.72417 0.65299 0.0
H2019 H 0.53414 0.69358 0.64023 0.0
H2020 H 0.57895 0.76772 0.62103 0.0
H2021 H 0.56554 0.74808 0.73307 0.0
H2022 H 0.57388 0.7372 0.70897 0.0
H2023 H 0.54995 0.7311 0.70847 0.0
C2024 C 0.58145 0.71728 0.63874 0.0
C2025 C 0.56332 0.70209 0.63694 0.0
C2026 C 0.58444 0.73486 0.64603 0.0
C2027 C 0.56933 0.73739 0.65168 0.0
C2028 C 0.55127 0.72241 0.64887 0.0
H2029 H 0.53039 0.80626 0.70787 0.0
H2030 H 0.53796 0.78267 0.6946 0.0
C2031 C 0.54828 0.70495 0.64155 0.0
C2032 C 0.57204 0.75531 0.66182 0.0
H2033 H 0.5642 0.77475 0.71907 0.0
C2034 C 0.57616 0.76953 0.64257 0.0
C2035 C 0.56836 0.7575 0.68992 0.0
C2036 C 0.56431 0.74274 0.71145 0.0
C2037 C 0.57554 0.78547 0.6504 0.0
C2038 C 0.57088 0.78719 0.67823 0.0
C2039 C 0.56776 0.77338 0.69776 0.0
C2040 C 0.56695 0.80197 0.68676 0.0
C2041 C 0.57873 0.79979 0.62853 0.0
C2042 C 0.58083 0.82071 0.6871 0.0
C2043 C 0.57655 0.83437 0.69474 0.0
C2044 C 0.5583 0.82947 0.70216 0.0
C2045 C 0.54457 0.81062 0.7022 0.0
C2046 C 0.54887 0.79706 0.69465 0.0
H2047 H 0.57963 0.7951 0.60717 0.0
H2048 H 0.56739 0.8031 0.629 0.0
H2049 H 0.59191 0.81273 0.63305 0.0
H2050 H 0.59494 0.82476 0.68146 0.0
H2051 H 0.58747 0.84874 0.69449 0.0
H2052 H 0.15224 0.73877 0.69738 0.0
H2053 H 0.1767 0.77013 0.68473 0.0
H2054 H 0.21768 0.75335 0.69344 0.0
H2055 H 0.19364 0.7223 0.7064 0.0
H2056 H 0.22738 0.78711 0.71963 0.0
H2057 H 0.20481 0.7854 0.6096 0.0
H2058 H 0.18791 0.78035 0.63657 0.0
H2059 H 0.19635 0.76465 0.63039 0.0
C2060 C 0.16647 0.74178 0.69671 0.0
C2061 C 0.17092 0.72794 0.70286 0.0
C2062 C 0.1804 0.75967 0.68929 0.0
C2063 C 0.19896 0.76398 0.68782 0.0
C2064 C 0.20343 0.7503 0.69438 0.0
H2065 H 0.30783 0.83965 0.64062 0.0
H2066 H 0.27735 0.81427 0.65374 0.0
C2067 C 0.18961 0.73251 0.70178 0.0
C2068 C 0.21402 0.78266 0.67961 0.0
H2069 H 0.23284 0.81144 0.62344 0.0
C2070 C 0.22842 0.79256 0.69873 0.0
C2071 C 0.21533 0.78978 0.65235 0.0
C2072 C 0.20037 0.77952 0.63088 0.0
C2073 C 0.24444 0.80897 0.69098 0.0
C2074 C 0.24617 0.81556 0.66334 0.0
C2075 C 0.2314 0.80627 0.64461 0.0
C2076 C 0.26404 0.83083 0.65298 0.0
C2077 C 0.25973 0.81884 0.71212 0.0
C2078 C 0.26646 0.84842 0.64736 0.0
C2079 C 0.28397 0.86307 0.63983 0.0
C2080 C 0.2992 0.86022 0.63773 0.0
C2081 C 0.29643 0.84235 0.64222 0.0
C2082 C 0.27903 0.82782 0.64977 0.0
H2083 H 0.25463 0.81466 0.73382 0.0
H2084 H 0.27075 0.81534 0.70823 0.0
H2085 H 0.26602 0.8341 0.7102 0.0
H2086 H 0.25498 0.85094 0.64964 0.0
H2087 H 0.28569 0.87669 0.63647 0.0
H2088 H 0.26245 0.4145 0.69783 0.0
H2089 H 0.23181 0.40786 0.68141 0.0
H2090 H 0.24903 0.46584 0.68733 0.0
H2091 H 0.27944 0.47266 0.70376 0.0
H2092 H 0.20553 0.41866 0.7087 0.0
H2093 H 0.23121 0.44934 0.60402 0.0
H2094 H 0.2434 0.44139 0.62614 0.0
H2095 H 0.24499 0.46336 0.63273 0.0
C2096 C 0.25967 0.42582 0.69586 0.0
C2097 C 0.27351 0.44415 0.70199 0.0
C2098 C 0.24217 0.42199 0.68644 0.0
C2099 C 0.23832 0.43641 0.6828 0.0
C2100 C 0.25186 0.45456 0.68965 0.0
H2101 H 0.16153 0.46848 0.63913 0.0
H2102 H 0.18744 0.46359 0.64887 0.0
C2103 C 0.26924 0.4584 0.69914 0.0
C2104 C 0.2203 0.43288 0.67158 0.0
H2105 H 0.20184 0.4452 0.61782 0.0
C2106 C 0.20453 0.42408 0.6886 0.0
C2107 C 0.21914 0.43994 0.64531 0.0
C2108 C 0.23553 0.44891 0.62582 0.0
C2109 C 0.18788 0.42329 0.68081 0.0
C2110 C 0.18702 0.43127 0.65515 0.0
C2111 C 0.20253 0.43913 0.63749 0.0
C2112 C 0.17107 0.43367 0.64778 0.0
C2113 C 0.17173 0.415 0.70082 0.0
C2114 C 0.15326 0.41844 0.64335 0.0
C2115 C 0.13831 0.42121 0.63776 0.0
C2116 C 0.141 0.43924 0.63647 0.0
C2117 C 0.15896 0.45441 0.64007 0.0
C2118 C 0.17381 0.45164 0.64562 0.0
H2119 H 0.17565 0.4121 0.7216 0.0
H2120 H 0.16606 0.42443 0.70363 0.0
H2121 H 0.16055 0.40176 0.69213 0.0
H2122 H 0.15091 0.40445 0.64445 0.0
H2123 H 0.12463 0.40926 0.63499 0.0
H2124 H 0.38209 0.92715 0.19716 0.0
H2125 H 0.41323 0.93281 0.18519 0.0
H2126 H 0.39321 0.87416 0.18909 0.0
H2127 H 0.36227 0.86836 0.20087 0.0
H2128 H 0.43392 0.90922 0.21825 0.0
H2129 H 0.41806 0.90431 0.10449 0.0
H2130 H 0.40934 0.91471 0.12878 0.0
H2131 H 0.39977 0.8901 0.12862 0.0
C2132 C 0.38443 0.91551 0.19585 0.0
C2133 C 0.36973 0.89731 0.19981 0.0
C2134 C 0.40217 0.91877 0.18902 0.0
C2135 C 0.40539 0.90387 0.18624 0.0
C2136 C 0.39093 0.8858 0.19118 0.0
H2137 H 0.47353 0.86547 0.12475 0.0
H2138 H 0.45011 0.87329 0.13828 0.0
C2139 C 0.37326 0.88254 0.19787 0.0
C2140 C 0.42343 0.90667 0.17651 0.0
H2141 H 0.44451 0.9028 0.11794 0.0
C2142 C 0.43654 0.90828 0.19631 0.0
C2143 C 0.42659 0.90529 0.14789 0.0
C2144 C 0.41279 0.90356 0.12603 0.0
C2145 C 0.45241 0.90762 0.18823 0.0
C2146 C 0.45514 0.90536 0.15965 0.0
C2147 C 0.4424 0.9046 0.1398 0.0
C2148 C 0.46977 0.90142 0.15036 0.0
C2149 C 0.46556 0.9082 0.21038 0.0
C2150 C 0.48864 0.91479 0.15223 0.0
C2151 C 0.50218 0.91038 0.14442 0.0
C2152 C 0.49702 0.89249 0.13469 0.0
C2153 C 0.47805 0.87933 0.13228 0.0
C2154 C 0.46461 0.88378 0.13994 0.0
H2155 H 0.46024 0.90774 0.23181 0.0
H2156 H 0.46804 0.89639 0.20775 0.0
H2157 H 0.47908 0.92117 0.20817 0.0
H2158 H 0.49288 0.92856 0.15993 0.0
H2159 H 0.51665 0.92085 0.14654 0.0
H2160 H 0.13838 0.61028 0.13386 0.0
H2161 H 0.13106 0.57967 0.14996 0.0
H2162 H 0.07338 0.56358 0.15697 0.0
H2163 H 0.08053 0.59443 0.14086 0.0
H2164 H 0.11101 0.56337 0.20501 0.0
H2165 H 0.07702 0.52151 0.10979 0.0
H2166 H 0.09332 0.54606 0.10753 0.0
H2167 H 0.0708 0.5381 0.12217 0.0
C2168 C 0.12408 0.60028 0.13857 0.0
C2169 C 0.11006 0.60492 0.13607 0.0
C2170 C 0.11994 0.58277 0.14782 0.0
C2171 C 0.10171 0.56942 0.1546 0.0
C2172 C 0.08754 0.57372 0.15165 0.0
H2173 H 0.07548 0.45622 0.20051 0.0
H2174 H 0.07055 0.4825 0.19176 0.0
C2175 C 0.09167 0.59135 0.14244 0.0
C2176 C 0.098 0.55133 0.16573 0.0
H2177 H 0.08385 0.50687 0.14608 0.0
C2178 C 0.10478 0.5509 0.19236 0.0
C2179 C 0.08971 0.53511 0.14926 0.0
C2180 C 0.08228 0.53503 0.12053 0.0
C2181 C 0.10425 0.53486 0.20245 0.0
C2182 C 0.09716 0.51899 0.18519 0.0
C2183 C 0.08935 0.51908 0.15923 0.0
C2184 C 0.09971 0.5031 0.19227 0.0
C2185 C 0.11174 0.53521 0.23126 0.0
C2186 C 0.11771 0.50599 0.19532 0.0
C2187 C 0.12054 0.49112 0.20024 0.0
C2188 C 0.10544 0.47298 0.20206 0.0
C2189 C 0.08737 0.47006 0.19935 0.0
C2190 C 0.08454 0.48503 0.1943 0.0
H2191 H 0.11066 0.5454 0.24492 0.0
H2192 H 0.10426 0.52136 0.24129 0.0
H2193 H 0.12662 0.53943 0.22965 0.0
H2194 H 0.12964 0.51975 0.1932 0.0
H2195 H 0.13464 0.49383 0.20209 0.0
H2196 H 0.50684 0.63924 0.19831 0.0
H2197 H 0.4817 0.60844 0.18576 0.0
H2198 H 0.51986 0.58779 0.18529 0.0
H2199 H 0.54533 0.61878 0.19796 0.0
H2200 H 0.48872 0.58696 0.13171 0.0
H2201 H 0.46664 0.55268 0.23564 0.0
H2202 H 0.47536 0.57727 0.23263 0.0
H2203 H 0.49076 0.56838 0.22759 0.0
C2204 C 0.50991 0.62813 0.19589 0.0
C2205 C 0.52809 0.63144 0.19901 0.0
C2206 C 0.49552 0.61056 0.18872 0.0
C2207 C 0.49899 0.59595 0.1846 0.0
C2208 C 0.51697 0.59896 0.18849 0.0
H2209 H 0.40577 0.4848 0.14523 0.0
H2210 H 0.4373 0.50916 0.15727 0.0
C2211 C 0.53146 0.61662 0.19575 0.0
C2212 C 0.48383 0.57798 0.17454 0.0
H2213 H 0.44684 0.53762 0.19735 0.0
C2214 C 0.47973 0.57599 0.14594 0.0
C2215 C 0.47227 0.56374 0.19319 0.0
C2216 C 0.47637 0.56543 0.22404 0.0
C2217 C 0.4638 0.5604 0.13561 0.0
C2218 C 0.45155 0.54668 0.15449 0.0
C2219 C 0.45623 0.54819 0.18292 0.0
C2220 C 0.43297 0.53177 0.1456 0.0
C2221 C 0.46 0.559 0.10465 0.0
C2222 C 0.42012 0.53643 0.13514 0.0
C2223 C 0.40217 0.52263 0.12832 0.0
C2224 C 0.39661 0.50381 0.13189 0.0
C2225 C 0.40962 0.49914 0.14201 0.0
C2226 C 0.42761 0.51303 0.14899 0.0
H2227 H 0.473 0.56704 0.09251 0.0
H2228 H 0.45293 0.54437 0.09753 0.0
H2229 H 0.45087 0.5648 0.09997 0.0
H2230 H 0.42384 0.55081 0.13288 0.0
H2231 H 0.39256 0.52678 0.12065 0.0
H2232 H 0.13302 0.63919 0.70136 0.0
H2233 H 0.1274 0.60804 0.69234 0.0
H2234 H 0.06846 0.58706 0.69221 0.0
H2235 H 0.074 0.61849 0.7011 0.0
H2236 H 0.10635 0.57472 0.72331 0.0
H2237 H 0.07881 0.57043 0.61579 0.0
H2238 H 0.09136 0.59215 0.63425 0.0
H2239 H 0.06796 0.57579 0.64394 0.0
C2240 C 0.11883 0.62797 0.69959 0.0
C2241 C 0.10395 0.63131 0.70176 0.0
C2242 C 0.11565 0.61016 0.69447 0.0
C2243 C 0.09754 0.59529 0.69127 0.0
C2244 C 0.08256 0.59841 0.69422 0.0
H2245 H 0.07941 0.4854 0.63875 0.0
H2246 H 0.07189 0.5088 0.65514 0.0
C2247 C 0.08574 0.61632 0.69945 0.0
C2248 C 0.09477 0.57678 0.68419 0.0
H2249 H 0.08448 0.54672 0.62968 0.0
C2250 C 0.10123 0.56841 0.70304 0.0
C2251 C 0.08804 0.56854 0.65776 0.0
C2252 C 0.08122 0.57715 0.63659 0.0
C2253 C 0.102 0.55253 0.69564 0.0
C2254 C 0.09635 0.54498 0.66862 0.0
C2255 C 0.0888 0.55261 0.65037 0.0
C2256 C 0.10045 0.53077 0.65792 0.0
C2257 C 0.10951 0.54434 0.71641 0.0
C2258 C 0.11893 0.53555 0.6535 0.0
C2259 C 0.12327 0.52239 0.644 0.0
C2260 C 0.1092 0.50405 0.63872 0.0
C2261 C 0.0906 0.49936 0.64263 0.0
C2262 C 0.08626 0.51268 0.65202 0.0
H2263 H 0.10859 0.54848 0.73813 0.0
H2264 H 0.1019 0.52899 0.71506 0.0
H2265 H 0.12431 0.54939 0.71166 0.0
H2266 H 0.13005 0.54953 0.65758 0.0
H2267 H 0.13774 0.52659 0.64121 0.0
H2268 H 0.36172 0.49479 0.69987 0.0
H2269 H 0.39279 0.5203 0.69027 0.0
H2270 H 0.41427 0.48284 0.69438 0.0
H2271 H 0.38289 0.45695 0.7037 0.0
H2272 H 0.4255 0.53399 0.72142 0.0
H2273 H 0.43183 0.50773 0.61737 0.0
H2274 H 0.40991 0.49846 0.63527 0.0
H2275 H 0.42676 0.49253 0.6468 0.0
C2276 C 0.37302 0.49193 0.69889 0.0
C2277 C 0.36983 0.47383 0.70237 0.0
C2278 C 0.3908 0.50655 0.69342 0.0
C2279 C 0.4058 0.50343 0.69123 0.0
C2280 C 0.40282 0.48548 0.69551 0.0
H2281 H 0.51652 0.59496 0.64083 0.0
H2282 H 0.49278 0.56423 0.65748 0.0
C2283 C 0.38493 0.47075 0.70102 0.0
C2284 C 0.42431 0.51918 0.68394 0.0
H2285 H 0.45528 0.53756 0.63016 0.0
C2286 C 0.43219 0.53465 0.70169 0.0
C2287 C 0.43304 0.51998 0.6582 0.0
C2288 C 0.42498 0.50388 0.63813 0.0
C2289 C 0.44804 0.55118 0.69382 0.0
C2290 C 0.45613 0.55232 0.66743 0.0
C2291 C 0.44898 0.53657 0.65036 0.0
C2292 C 0.47048 0.57035 0.65604 0.0
C2293 C 0.45564 0.56758 0.71331 0.0
C2294 C 0.46562 0.58369 0.64911 0.0
C2295 C 0.479 0.6011 0.63951 0.0
C2296 C 0.49761 0.60561 0.63662 0.0
C2297 C 0.50235 0.59198 0.64282 0.0
C2298 C 0.48884 0.57444 0.65237 0.0
H2299 H 0.45097 0.56327 0.73515 0.0
H2300 H 0.47103 0.57538 0.71283 0.0
H2301 H 0.45068 0.57707 0.70653 0.0
H2302 H 0.45145 0.58068 0.65147 0.0
H2303 H 0.47474 0.61113 0.63482 0.0
H2304 H 0.40622 0.9212 0.64197 0.0
H2305 H 0.43709 0.92845 0.65826 0.0
H2306 H 0.42123 0.87087 0.65115 0.0
H2307 H 0.39062 0.86344 0.63487 0.0
H2308 H 0.43738 0.89097 0.70636 0.0
H2309 H 0.47932 0.92487 0.61115 0.0
H2310 H 0.46261 0.93098 0.62342 0.0
H2311 H 0.45479 0.9085 0.60877 0.0
C2312 C 0.40937 0.91011 0.64358 0.0
C2313 C 0.39587 0.89172 0.63712 0.0
C2314 C 0.427 0.9143 0.65289 0.0
C2315 C 0.43136 0.90017 0.65586 0.0
C2316 C 0.41808 0.88194 0.649 0.0
H2317 H 0.50624 0.86639 0.70215 0.0
H2318 H 0.48051 0.87179 0.69372 0.0
C2319 C 0.40057 0.87775 0.63966 0.0
C2320 C 0.44944 0.90392 0.66706 0.0
H2321 H 0.49383 0.91775 0.6473 0.0
C2322 C 0.44984 0.89714 0.69369 0.0
C2323 C 0.46566 0.91212 0.65055 0.0
C2324 C 0.46576 0.91956 0.62182 0.0
C2325 C 0.46583 0.89752 0.70373 0.0
C2326 C 0.48167 0.90449 0.68641 0.0
C2327 C 0.48164 0.91235 0.66048 0.0
C2328 C 0.49742 0.90168 0.69335 0.0
C2329 C 0.46545 0.88997 0.73249 0.0
C2330 C 0.51556 0.91672 0.6956 0.0
C2331 C 0.5304 0.91366 0.70041 0.0
C2332 C 0.5273 0.8955 0.70265 0.0
C2333 C 0.5091 0.88054 0.70064 0.0
C2334 C 0.49433 0.8836 0.69598 0.0
H2335 H 0.45528 0.89107 0.74619 0.0
H2336 H 0.46119 0.87509 0.73081 0.0
H2337 H 0.47931 0.89739 0.74252 0.0
H2338 H 0.51823 0.93077 0.69338 0.0
H2339 H 0.5443 0.92545 0.70173 0.0
H2340 H 0.1943 0.46918 0.21545 0.0
H2341 H 0.21827 0.46203 0.20262 0.0
H2342 H 0.17652 0.40615 0.18182 0.0
H2343 H 0.15218 0.41321 0.19439 0.0
H2344 H 0.22523 0.4343 0.22394 0.0
H2345 H 0.20877 0.42572 0.11023 0.0
H2346 H 0.20011 0.4367 0.13345 0.0
H2347 H 0.1902 0.41202 0.13409 0.0
C2348 C 0.1901 0.45532 0.20822 0.0
C2349 C 0.17125 0.4418 0.20581 0.0
C2350 C 0.20388 0.45126 0.20096 0.0
C2351 C 0.19918 0.43364 0.19097 0.0
C2352 C 0.18042 0.41992 0.18912 0.0
H2353 H 0.28638 0.40832 0.14008 0.0
H2354 H 0.25549 0.40309 0.15261 0.0
C2355 C 0.16655 0.42395 0.19649 0.0
C2356 C 0.21418 0.43009 0.18225 0.0
H2357 H 0.2354 0.42503 0.12457 0.0
C2358 C 0.22728 0.43194 0.2023 0.0
C2359 C 0.21682 0.42704 0.15397 0.0
C2360 C 0.20334 0.42535 0.13155 0.0
C2361 C 0.24333 0.43157 0.19464 0.0
C2362 C 0.24638 0.4294 0.16625 0.0
C2363 C 0.2329 0.42663 0.14634 0.0
C2364 C 0.26446 0.4322 0.15673 0.0
C2365 C 0.25735 0.43425 0.21673 0.0
C2366 C 0.27949 0.45027 0.15446 0.0
C2367 C 0.29701 0.45329 0.14728 0.0
C2368 C 0.29983 0.43828 0.1423 0.0
C2369 C 0.28461 0.42015 0.14382 0.0
C2370 C 0.267 0.41713 0.15095 0.0
H2371 H 0.25163 0.4327 0.23814 0.0
H2372 H 0.26218 0.42414 0.21381 0.0
H2373 H 0.26959 0.44836 0.21473 0.0
H2374 H 0.27772 0.46205 0.15877 0.0
H2375 H 0.30842 0.46742 0.14622 0.0
H2376 H 0.53285 0.83946 0.13856 0.0
H2377 H 0.53793 0.81359 0.14774 0.0
H2378 H 0.59705 0.85051 0.14438 0.0
H2379 H 0.59205 0.87671 0.13544 0.0
H2380 H 0.55717 0.79997 0.11611 0.0
H2381 H 0.58865 0.82485 0.2212 0.0
H2382 H 0.57616 0.83432 0.20336 0.0
H2383 H 0.5991 0.84045 0.19228 0.0
C2384 C 0.54695 0.84212 0.13963 0.0
C2385 C 0.56206 0.86015 0.13646 0.0
C2386 C 0.54983 0.8273 0.14484 0.0
C2387 C 0.56785 0.83017 0.14711 0.0
C2388 C 0.58303 0.84806 0.14316 0.0
H2389 H 0.58741 0.73897 0.19681 0.0
H2390 H 0.59412 0.76969 0.18067 0.0
C2391 C 0.58015 0.86297 0.13788 0.0
C2392 C 0.57038 0.81426 0.15414 0.0
H2393 H 0.58254 0.79526 0.20752 0.0
C2394 C 0.563 0.79906 0.1359 0.0
C2395 C 0.57806 0.81314 0.17993 0.0
C2396 C 0.58587 0.82897 0.2005 0.0
C2397 C 0.56233 0.78247 0.14329 0.0
C2398 C 0.56904 0.78099 0.1697 0.0
C2399 C 0.5774 0.7965 0.1873 0.0
C2400 C 0.56545 0.76287 0.18051 0.0
C2401 C 0.5539 0.7664 0.12317 0.0
C2402 C 0.54719 0.74913 0.18638 0.0
C2403 C 0.54332 0.73172 0.19571 0.0
C2404 C 0.55764 0.72762 0.19939 0.0
C2405 C 0.57604 0.74162 0.19418 0.0
C2406 C 0.57991 0.75916 0.18493 0.0
H2407 H 0.55392 0.77107 0.10143 0.0
H2408 H 0.56148 0.7586 0.12367 0.0
H2409 H 0.5393 0.75678 0.12928 0.0
H2410 H 0.53588 0.75184 0.18348 0.0
H2411 H 0.52899 0.72139 0.1996 0.0
H2412 H 0.12466 0.71486 0.13642 0.0
H2413 H 0.15034 0.74565 0.14933 0.0
H2414 H 0.18733 0.72364 0.15304 0.0
H2415 H 0.16199 0.69306 0.1402 0.0
H2416 H 0.18402 0.74384 0.20377 0.0
H2417 H 0.19967 0.78242 0.10309 0.0
H2418 H 0.17594 0.7681 0.11413 0.0
H2419 H 0.18912 0.75749 0.10382 0.0
C2420 C 0.13834 0.71669 0.13958 0.0
C2421 C 0.14129 0.70154 0.13742 0.0
C2422 C 0.15296 0.73425 0.14693 0.0
C2423 C 0.17067 0.73684 0.1521 0.0
C2424 C 0.17373 0.72187 0.14912 0.0
H2425 H 0.279 0.80719 0.20809 0.0
H2426 H 0.24793 0.78286 0.19595 0.0
C2427 C 0.15922 0.70442 0.14176 0.0
C2428 C 0.18594 0.75473 0.1624 0.0
H2429 H 0.22008 0.79723 0.14061 0.0
C2430 C 0.19175 0.75564 0.19011 0.0
C2431 C 0.19582 0.77012 0.14459 0.0
C2432 C 0.18996 0.76965 0.11468 0.0
C2433 C 0.2077 0.77127 0.20019 0.0
C2434 C 0.21834 0.7862 0.18186 0.0
C2435 C 0.21194 0.78573 0.15457 0.0
C2436 C 0.23706 0.80133 0.18975 0.0
C2437 C 0.21325 0.77147 0.23023 0.0
C2438 C 0.24143 0.81992 0.18971 0.0
C2439 C 0.25937 0.83403 0.19658 0.0
C2440 C 0.27325 0.82975 0.20332 0.0
C2441 C 0.26872 0.81107 0.20319 0.0
C2442 C 0.25088 0.79707 0.19639 0.0
H2443 H 0.20105 0.76243 0.24342 0.0
H2444 H 0.22303 0.76612 0.23144 0.0
H2445 H 0.22021 0.78572 0.23896 0.0
H2446 H 0.23097 0.8235 0.18439 0.0
H2447 H 0.26239 0.84826 0.19627 0.0
H2448 H 0.24861 0.22415 0.13312 0.0
H2449 H 0.25214 0.22834 0.18399 0.0
H2450 H 0.19803 0.22296 0.18938 0.0
H2451 H 0.1942 0.21825 0.139 0.0
H2452 H 0.25049 0.25217 0.22389 0.0
H2453 H 0.19244 0.18034 0.23745 0.0
H2454 H 0.2032 0.18929 0.20405 0.0
H2455 H 0.18606 0.19442 0.21732 0.0
C2456 C 0.23761 0.22416 0.14514 0.0
C2457 C 0.221 0.22055 0.13212 0.0
C2458 C 0.23963 0.22654 0.17419 0.0
C2459 C 0.22514 0.22549 0.19058 0.0
C2460 C 0.20918 0.22332 0.17728 0.0
H2461 H 0.22224 0.24775 0.36828 0.0
H2462 H 0.22686 0.25113 0.31757 0.0
C2463 C 0.20704 0.22069 0.14844 0.0
C2464 C 0.22597 0.22525 0.22159 0.0
H2465 H 0.20275 0.19897 0.27815 0.0
C2466 C 0.24014 0.24051 0.23582 0.0
C2467 C 0.21266 0.20989 0.23715 0.0
C2468 C 0.19785 0.19248 0.22323 0.0
C2469 C 0.24108 0.24097 0.26522 0.0
C2470 C 0.22726 0.22592 0.28076 0.0
C2471 C 0.21331 0.21058 0.26638 0.0
C2472 C 0.22687 0.22535 0.31189 0.0
C2473 C 0.25705 0.25739 0.27926 0.0
C2474 C 0.22529 0.20978 0.32573 0.0
C2475 C 0.22221 0.20763 0.35448 0.0
C2476 C 0.22086 0.22113 0.37023 0.0
C2477 C 0.22338 0.2372 0.35672 0.0
C2478 C 0.22613 0.23919 0.32772 0.0
H2479 H 0.2691 0.26464 0.26497 0.0
H2480 H 0.25263 0.26741 0.28544 0.0
H2481 H 0.26158 0.25315 0.29829 0.0
H2482 H 0.22586 0.19893 0.3141 0.0
H2483 H 0.22048 0.19517 0.36432 0.0
H2484 H 0.77925 0.97439 0.13904 0.0
H2485 H 0.77365 0.97208 0.18927 0.0
H2486 H 0.77629 0.0251 0.18843 0.0
H2487 H 0.78103 0.027 0.13773 0.0
H2488 H 0.79738 0.99344 0.22559 0.0
H2489 H 0.73406 0.99805 0.24119 0.0
H2490 H 0.74084 0.99397 0.20734 0.0
H2491 H 0.75121 0.01712 0.22118 0.0
C2492 C 0.77819 0.98535 0.14947 0.0
C2493 C 0.78061 0.00089 0.1345 0.0
C2494 C 0.775 0.98404 0.17821 0.0
C2495 C 0.77444 0.99836 0.19281 0.0
C2496 C 0.77619 0.01363 0.1777 0.0
H2497 H 0.80984 0.02241 0.36451 0.0
H2498 H 0.80565 0.02293 0.3142 0.0
C2499 C 0.77901 0.01477 0.14871 0.0
C2500 C 0.77422 0.99815 0.22395 0.0
H2501 H 0.75299 0.00316 0.28176 0.0
C2502 C 0.78752 0.9954 0.23776 0.0
C2503 C 0.76129 1.00052 0.24005 0.0
C2504 C 0.74593 0.00238 0.22668 0.0
C2505 C 0.78846 0.99521 0.26697 0.0
C2506 C 0.77618 0.99855 0.28307 0.0
C2507 C 0.76258 0.00089 0.26941 0.0
C2508 C 0.77757 0.99977 0.31404 0.0
C2509 C 0.80248 0.99117 0.28026 0.0
C2510 C 0.76279 0.98729 0.33097 0.0
C2511 C 0.76505 0.98715 0.35999 0.0
C2512 C 0.78219 0.99941 0.37246 0.0
C2513 C 0.79657 0.01255 0.35554 0.0
C2514 C 0.79422 0.01284 0.32673 0.0
H2515 H 0.80672 0.98355 0.26578 0.0
H2516 H 0.81508 0.00442 0.28574 0.0
H2517 H 0.79692 0.98286 0.29962 0.0
H2518 H 0.74976 0.97717 0.32164 0.0
H2519 H 0.7537 0.97688 0.37245 0.0
H2520 H 0.97503 0.78233 0.36618 0.0
H2521 H 0.97311 0.77705 0.3159 0.0
H2522 H 0.02487 0.77705 0.31809 0.0
H2523 H 0.02638 0.78152 0.36884 0.0
H2524 H 0.99555 0.80031 0.27977 0.0
H2525 H 0.9966 0.73501 0.2653 0.0
H2526 H 0.99269 0.74224 0.29891 0.0
H2527 H 0.01587 0.75165 0.28555 0.0
C2528 C 0.98582 0.78081 0.35604 0.0
C2529 C 1.00089 0.78239 0.37144 0.0
C2530 C 0.98471 0.7778 0.32726 0.0
C2531 C 0.99878 0.77654 0.31303 0.0
C2532 C 0.01359 0.77751 0.32853 0.0
H2533 H 0.02393 0.81048 0.14059 0.0
H2534 H 0.02442 0.8066 0.191 0.0
C2535 C 0.01451 0.78018 0.35755 0.0
C2536 C 0.99878 0.77627 0.28188 0.0
H2537 H 0.00247 0.75385 0.22451 0.0
C2538 C 0.99692 0.79002 0.26779 0.0
C2539 C 1.00038 0.76278 0.26604 0.0
C2540 C 0.0013 0.74697 0.27972 0.0
C2541 C 0.9968 0.79082 0.23856 0.0
C2542 C 0.99931 0.77791 0.22271 0.0
C2543 C 1.00083 0.76391 0.23665 0.0
C2544 C 1.00048 0.77901 0.1917 0.0
C2545 C 0.99367 0.80538 0.22498 0.0
C2546 C 0.98754 0.76434 0.17502 0.0
C2547 C 0.98742 0.7664 0.14594 0.0
C2548 C 1.00015 0.78323 0.13316 0.0
C2549 C 0.01371 0.79746 0.14982 0.0
C2550 C 0.01398 0.79529 0.17868 0.0
H2551 H 0.98652 0.81025 0.23932 0.0
H2552 H 0.00726 0.81753 0.21941 0.0
H2553 H 0.98528 0.80002 0.20565 0.0
H2554 H 0.97708 0.75158 0.18459 0.0
H2555 H 0.97683 0.75517 0.13368 0.0
H2556 H 0.75646 0.78151 0.86977 0.0
H2557 H 0.75322 0.77691 0.81905 0.0
H2558 H 0.80629 0.77971 0.81563 0.0
H2559 H 0.80989 0.78505 0.86586 0.0
H2560 H 0.80539 0.80227 0.77944 0.0
H2561 H 0.7409 0.73477 0.76684 0.0
H2562 H 0.73752 0.7509 0.7872 0.0
H2563 H 0.75241 0.74269 0.80009 0.0
C2564 C 0.76725 0.78079 0.85822 0.0
C2565 C 0.78349 0.78378 0.87177 0.0
C2566 C 0.76534 0.77804 0.82922 0.0
C2567 C 0.77944 0.77779 0.8134 0.0
C2568 C 0.79523 0.77989 0.82725 0.0
H2569 H 0.78025 0.75535 0.63476 0.0
H2570 H 0.77659 0.75217 0.68574 0.0
C2571 C 0.79728 0.78296 0.85601 0.0
C2572 C 0.77883 0.77728 0.78227 0.0
H2573 H 0.75283 0.75333 0.72562 0.0
C2574 C 0.79391 0.79146 0.76777 0.0
C2575 C 0.76398 0.76312 0.76686 0.0
C2576 C 0.74788 0.7469 0.78103 0.0
C2577 C 0.79454 0.792 0.73852 0.0
C2578 C 0.77934 0.77834 0.72308 0.0
C2579 C 0.76435 0.76394 0.73745 0.0
C2580 C 0.77899 0.77899 0.69205 0.0
C2581 C 0.81172 0.80708 0.72448 0.0
C2582 C 0.78074 0.79473 0.67857 0.0
C2583 C 0.78309 0.79668 0.64967 0.0
C2584 C 0.78332 0.78273 0.63346 0.0
C2585 C 0.78016 0.76634 0.64669 0.0
C2586 C 0.77808 0.76452 0.6758 0.0
H2587 H 0.82392 0.81279 0.73862 0.0
H2588 H 0.81508 0.80189 0.70527 0.0
H2589 H 0.80938 0.81862 0.7186 0.0
H2590 H 0.78095 0.80585 0.69055 0.0
H2591 H 0.78517 0.80934 0.64007 0.0
H2592 H 0.24982 0.01728 0.62928 0.0
H2593 H 0.25559 0.01509 0.67903 0.0
H2594 H 0.19699 0.98912 0.69551 0.0
H2595 H 0.19107 0.99098 0.6463 0.0
H2596 H 0.24775 0.03065 0.72385 0.0
H2597 H 0.2103 0.95459 0.7357 0.0
H2598 H 0.21657 0.96576 0.70197 0.0
H2599 H 0.19596 0.96231 0.71951 0.0
C2600 C 0.23815 0.01093 0.64346 0.0
C2601 C 0.21997 0.00428 0.63364 0.0
C2602 C 0.24148 0.00969 0.67189 0.0
C2603 C 0.22669 0.0016 0.69095 0.0
C2604 C 0.20859 0.99497 0.68116 0.0
H2605 H 0.21002 0.01835 0.85804 0.0
H2606 H 0.2169 0.01972 0.80852 0.0
C2607 C 0.20525 0.99621 0.65291 0.0
C2608 C 0.22996 0.00106 0.72138 0.0
H2609 H 0.21427 0.97223 0.77791 0.0
C2610 C 0.24074 0.01784 0.73561 0.0
C2611 C 0.22115 0.98432 0.73679 0.0
C2612 C 0.21052 0.96572 0.72264 0.0
C2613 C 0.24178 0.01845 0.76492 0.0
C2614 C 0.23154 0.00189 0.78041 0.0
C2615 C 0.22192 0.98497 0.76611 0.0
C2616 C 0.22895 0.00204 0.81112 0.0
C2617 C 0.2535 0.0369 0.77903 0.0
C2618 C 0.23318 0.99139 0.82923 0.0
C2619 C 0.22914 0.99048 0.85785 0.0
C2620 C 0.22053 0.99997 0.86874 0.0
C2621 C 0.21661 0.01081 0.8505 0.0
C2622 C 0.22071 0.01177 0.8221 0.0
H2623 H 0.26513 0.04657 0.76538 0.0
H2624 H 0.24484 0.04327 0.78339 0.0
H2625 H 0.25927 0.03535 0.79908 0.0
H2626 H 0.23937 0.98361 0.82115 0.0
H2627 H 0.23227 0.98194 0.87124 0.0
H2628 H 0.98533 0.23422 0.62918 0.0
H2629 H 0.98711 0.24178 0.67906 0.0
H2630 H 0.0174 0.21324 0.69433 0.0
H2631 H 0.01597 0.20592 0.64499 0.0
H2632 H 0.97293 0.21772 0.723 0.0
H2633 H 0.04861 0.26109 0.73633 0.0
H2634 H 0.03769 0.25586 0.7024 0.0
H2635 H 0.04275 0.23964 0.71949 0.0
C2636 C 0.99259 0.22978 0.64311 0.0
C2637 C 1.00051 0.21946 0.63293 0.0
C2638 C 0.99358 0.2341 0.67163 0.0
C2639 C 0.00269 0.22838 0.69041 0.0
C2640 C 0.01072 0.21825 0.68022 0.0
H2641 H 0.98614 0.19219 0.85632 0.0
H2642 H 0.98512 0.19819 0.80695 0.0
C2643 C 0.00973 0.21391 0.65189 0.0
C2644 C 0.00273 0.23161 0.72098 0.0
H2645 H 0.03116 0.24563 0.77803 0.0
C2646 C 0.98569 0.22417 0.73499 0.0
C2647 C 0.01934 0.24036 0.73672 0.0
C2648 C 0.03813 0.24987 0.7229 0.0
C2649 C 0.98479 0.22402 0.7643 0.0
C2650 C 0.00135 0.23118 0.78005 0.0
C2651 C 0.01843 0.23988 0.76604 0.0
C2652 C 1.00117 0.22803 0.81066 0.0
C2653 C 0.96604 0.21576 0.7781 0.0
C2654 C 0.01087 0.24281 0.82937 0.0
C2655 C 0.01161 0.23941 0.85793 0.0
C2656 C 0.00287 0.22114 0.86821 0.0
C2657 C 0.99305 0.20645 0.84933 0.0
C2658 C 0.99229 0.20986 0.82099 0.0
H2659 H 0.95597 0.21711 0.76455 0.0
H2660 H 0.96061 0.20077 0.78175 0.0
H2661 H 0.96689 0.22249 0.79848 0.0
H2662 H 0.01799 0.25696 0.82182 0.0
H2663 H 0.01935 0.25105 0.8718 0.0
H2664 H 0.91401 0.55505 0.46696 0.0
H2665 H 0.91749 0.55886 0.51788 0.0
H2666 H 0.86346 0.55365 0.52357 0.0
H2667 H 0.85965 0.54924 0.47314 0.0
H2668 H 0.91643 0.58252 0.55753 0.0
H2669 H 0.85739 0.5114 0.57222 0.0
H2670 H 0.86786 0.52005 0.53857 0.0
H2671 H 0.85117 0.52568 0.55231 0.0
C2672 C 0.90299 0.55495 0.47907 0.0
C2673 C 0.88642 0.55151 0.4661 0.0
C2674 C 0.90499 0.55712 0.50815 0.0
C2675 C 0.89052 0.55604 0.52464 0.0
C2676 C 0.87457 0.55397 0.51142 0.0
H2677 H 0.88957 0.57972 0.70226 0.0
H2678 H 0.89373 0.58266 0.65145 0.0
C2679 C 0.87245 0.55152 0.48255 0.0
C2680 C 0.89148 0.55592 0.55567 0.0
H2681 H 0.86822 0.53026 0.61269 0.0
C2682 C 0.90597 0.57106 0.56965 0.0
C2683 C 0.87802 0.54081 0.57149 0.0
C2684 C 0.86285 0.52349 0.55789 0.0
C2685 C 0.90712 0.57166 0.59903 0.0
C2686 C 0.89316 0.55689 0.61483 0.0
C2687 C 0.87887 0.54167 0.60072 0.0
C2688 C 0.893 0.55651 0.64596 0.0
C2689 C 0.92344 0.58791 0.61276 0.0
C2690 C 0.89116 0.54087 0.65994 0.0
C2691 C 0.88836 0.53899 0.68876 0.0
C2692 C 0.88754 0.55281 0.70445 0.0
C2693 C 0.8903 0.56892 0.69076 0.0
C2694 C 0.89279 0.57065 0.6617 0.0
H2695 H 0.93541 0.59484 0.59827 0.0
H2696 H 0.91942 0.59824 0.61898 0.0
H2697 H 0.92791 0.58356 0.63174 0.0
H2698 H 0.89131 0.52978 0.64838 0.0
H2699 H 0.88643 0.52648 0.69872 0.0
H2700 H 0.46337 0.31801 0.47907 0.0
H2701 H 0.45678 0.31662 0.52873 0.0
H2702 H 0.43102 0.34981 0.51609 0.0
H2703 H 0.43781 0.35151 0.46594 0.0
H2704 H 0.4564 0.36278 0.55892 0.0
H2705 H 0.40902 0.28766 0.57249 0.0
H2706 H 0.42976 0.29226 0.5545 0.0
H2707 H 0.4142 0.29869 0.53864 0.0
C2708 C 0.45611 0.32488 0.48664 0.0
C2709 C 0.45116 0.33492 0.46837 0.0
C2710 C 0.4522 0.32392 0.51513 0.0
C2711 C 0.44313 0.33283 0.52614 0.0
C2712 C 0.43789 0.34267 0.50801 0.0
H2713 H 0.4211 0.31774 0.70757 0.0
H2714 H 0.41572 0.31938 0.65752 0.0
C2715 C 0.44176 0.3436 0.47934 0.0
C2716 C 0.44058 0.33299 0.55687 0.0
H2717 H 0.42548 0.30456 0.61388 0.0
C2718 C 0.44932 0.35006 0.57091 0.0
C2719 C 0.43109 0.31644 0.57259 0.0
C2720 C 0.42032 0.29775 0.55874 0.0
C2721 C 0.4499 0.35095 0.60022 0.0
C2722 C 0.44179 0.33433 0.61591 0.0
C2723 C 0.43194 0.31731 0.6019 0.0
C2724 C 0.4448 0.33423 0.64651 0.0
C2725 C 0.45953 0.36971 0.61408 0.0
C2726 C 0.46289 0.3419 0.65693 0.0
C2727 C 0.46601 0.34099 0.68537 0.0
C2728 C 0.45109 0.33224 0.70419 0.0
C2729 C 0.43293 0.32464 0.69375 0.0
C2730 C 0.42982 0.32555 0.66514 0.0
H2731 H 0.4592 0.38039 0.6006 0.0
H2732 H 0.45307 0.36943 0.63448 0.0
H2733 H 0.47427 0.37395 0.61771 0.0
H2734 H 0.47467 0.34825 0.64294 0.0
H2735 H 0.4802 0.34695 0.69248 0.0
H2736 H 0.69246 0.11346 0.70437 0.0
H2737 H 0.69226 0.10961 0.65348 0.0
H2738 H 0.64365 0.11514 0.64724 0.0
H2739 H 0.64411 0.11957 0.69764 0.0
H2740 H 0.66747 0.08594 0.61379 0.0
H2741 H 0.68028 0.15724 0.59865 0.0
H2742 H 0.68194 0.14859 0.63238 0.0
H2743 H 0.65968 0.14312 0.6185 0.0
C2744 C 0.68161 0.11363 0.69214 0.0
C2745 C 0.6685 0.11715 0.70496 0.0
C2746 C 0.68152 0.11144 0.66308 0.0
C2747 C 0.66822 0.11258 0.64646 0.0
C2748 C 0.65436 0.11476 0.65951 0.0
H2749 H 0.64329 0.08852 0.4692 0.0
H2750 H 0.64475 0.08569 0.51998 0.0
C2751 C 0.65461 0.11722 0.68837 0.0
C2752 C 0.66937 0.11264 0.61545 0.0
H2753 H 0.67209 0.13828 0.55826 0.0
C2754 C 0.6686 0.09742 0.60159 0.0
C2755 C 0.67121 0.12778 0.59953 0.0
C2756 C 0.67353 0.14519 0.61301 0.0
C2757 C 0.66918 0.09676 0.57222 0.0
C2758 C 0.67014 0.11154 0.55632 0.0
C2759 C 0.67123 0.12686 0.57031 0.0
C2760 C 0.67027 0.11182 0.52518 0.0
C2761 C 0.66909 0.0804 0.55862 0.0
C2762 C 0.68406 0.1274 0.51105 0.0
C2763 C 0.68299 0.12922 0.48224 0.0
C2764 C 0.66823 0.11539 0.46674 0.0
C2765 C 0.65492 0.09932 0.48056 0.0
C2766 C 0.65581 0.09765 0.5096 0.0
H2767 H 0.67413 0.07351 0.57316 0.0
H2768 H 0.65469 0.07008 0.55258 0.0
H2769 H 0.67784 0.08463 0.53956 0.0
H2770 H 0.69539 0.13851 0.52249 0.0
H2771 H 0.69354 0.14171 0.47216 0.0
H2772 H 0.47814 0.12148 0.19827 0.0
H2773 H 0.47408 0.11699 0.1479 0.0
H2774 H 0.41845 0.10757 0.15502 0.0
H2775 H 0.42223 0.11154 0.20586 0.0
H2776 H 0.4212 0.08471 0.11532 0.0
H2777 H 0.47607 0.15764 0.09919 0.0
H2778 H 0.48406 0.14479 0.1191 0.0
H2779 H 0.46622 0.14867 0.13306 0.0
C2780 C 0.46495 0.11828 0.18922 0.0
C2781 C 0.45059 0.11714 0.20606 0.0
C2782 C 0.46268 0.11578 0.16036 0.0
C2783 C 0.44615 0.11245 0.14757 0.0
C2784 C 0.43139 0.11029 0.16442 0.0
H2785 H 0.44788 0.13966 0.9726 0.0
H2786 H 0.44272 0.13658 0.02294 0.0
C2787 C 0.43357 0.11256 0.19347 0.0
C2788 C 0.44481 0.11229 0.11658 0.0
H2789 H 0.46632 0.13836 0.05902 0.0
C2790 C 0.43096 0.09647 0.10295 0.0
C2791 C 0.45731 0.12778 0.10044 0.0
C2792 C 0.47162 0.14575 0.11368 0.0
C2793 C 0.42961 0.09556 0.07359 0.0
C2794 C 0.44273 0.11073 0.05745 0.0
C2795 C 0.45631 0.12665 0.07123 0.0
C2796 C 0.44284 0.11074 0.0263 0.0
C2797 C 0.41397 0.0785 0.06028 0.0
C2798 C 0.44408 0.09697 0.01106 0.0
C2799 C 0.44663 0.09853 0.98201 0.0
C2800 C 0.44848 0.11413 0.96785 0.0
C2801 C 0.44662 0.12754 0.98298 0.0
C2802 C 0.44369 0.12579 0.01179 0.0
H2803 H 0.4021 0.07115 0.07487 0.0
H2804 H 0.40897 0.082 0.04102 0.0
H2805 H 0.41893 0.0688 0.05468 0.0
H2806 H 0.44394 0.08546 0.02171 0.0
H2807 H 0.44822 0.08809 0.97092 0.0
H2808 H 0.89941 0.31782 0.20664 0.0
H2809 H 0.90657 0.31987 0.15657 0.0
H2810 H 0.87717 0.34947 0.1429 0.0
H2811 H 0.87021 0.34776 0.19242 0.0
H2812 H 0.88194 0.30572 0.11267 0.0
H2813 H 0.92508 0.38158 0.10103 0.0
H2814 H 0.92009 0.37028 0.13465 0.0
H2815 H 0.90363 0.37528 0.11828 0.0
C2816 C 0.89467 0.32496 0.19302 0.0
C2817 C 0.88424 0.33263 0.2037 0.0
C2818 C 0.89876 0.32611 0.1644 0.0
C2819 C 0.8927 0.33512 0.14602 0.0
C2820 C 0.88242 0.34286 0.1567 0.0
H2821 H 0.8574 0.32083 0.97917 0.0
H2822 H 0.8628 0.31933 0.02872 0.0
C2823 C 0.87831 0.34171 0.18512 0.0
C2824 C 0.89584 0.33548 0.11539 0.0
H2825 H 0.90996 0.3645 0.05904 0.0
C2826 C 0.8884 0.31859 0.10098 0.0
C2827 C 0.90456 0.35225 0.10007 0.0
C2828 C 0.91397 0.37087 0.11435 0.0
C2829 C 0.88829 0.318 0.07164 0.0
C2830 C 0.89554 0.33472 0.05632 0.0
C2831 C 0.90416 0.35165 0.07074 0.0
C2832 C 0.8927 0.33489 0.02569 0.0
C2833 C 0.88001 0.29943 0.05733 0.0
C2834 C 0.90773 0.34446 0.00736 0.0
C2835 C 0.90468 0.34544 0.97873 0.0
C2836 C 0.88653 0.33709 0.96802 0.0
C2837 C 0.87158 0.32744 0.98653 0.0
C2838 C 0.87463 0.32641 0.01496 0.0
H2839 H 0.88098 0.28906 0.07073 0.0
H2840 H 0.86512 0.29426 0.05315 0.0
H2841 H 0.88702 0.30045 0.03715 0.0
H2842 H 0.92179 0.35126 0.01524 0.0
H2843 H 0.91652 0.35304 0.96515 0.0
H2844 H 0.69396 0.58026 0.20174 0.0
H2845 H 0.69284 0.58343 0.15097 0.0
H2846 H 0.6421 0.53073 0.14748 0.0
H2847 H 0.64362 0.52719 0.19778 0.0
H2848 H 0.66548 0.53111 0.11174 0.0
H2849 H 0.66384 0.59617 0.09789 0.0
H2850 H 0.68317 0.59932 0.11851 0.0
H2851 H 0.65995 0.5848 0.13129 0.0
C2852 C 0.68239 0.56955 0.19016 0.0
C2853 C 0.66895 0.55342 0.20371 0.0
C2854 C 0.68169 0.57142 0.16112 0.0
C2855 C 0.66729 0.55739 0.14526 0.0
C2856 C 0.65339 0.54173 0.15912 0.0
H2857 H 0.6448 0.55641 0.9664 0.0
H2858 H 0.64534 0.56034 0.0173 0.0
C2859 C 0.65427 0.53972 0.18792 0.0
C2860 C 0.66755 0.55788 0.11412 0.0
H2861 H 0.67035 0.58385 0.05702 0.0
C2862 C 0.66641 0.54262 0.09987 0.0
C2863 C 0.6686 0.57279 0.09844 0.0
C2864 C 0.66876 0.58911 0.1123 0.0
C2865 C 0.66642 0.54186 0.07063 0.0
C2866 C 0.66832 0.5571 0.05494 0.0
C2867 C 0.66917 0.57229 0.06905 0.0
C2868 C 0.66936 0.55728 0.0239 0.0
C2869 C 0.66401 0.52449 0.05689 0.0
C2870 C 0.68312 0.55506 0.01058 0.0
C2871 C 0.68267 0.55255 0.9817 0.0
C2872 C 0.66869 0.55263 0.96536 0.0
C2873 C 0.65572 0.55625 0.97843 0.0
C2874 C 0.65601 0.55848 0.00751 0.0
H2875 H 0.65728 0.51237 0.07115 0.0
H2876 H 0.65554 0.52118 0.0376 0.0
H2877 H 0.67782 0.52654 0.05121 0.0
H2878 H 0.69387 0.55462 0.02266 0.0
H2879 H 0.69306 0.5501 0.97224 0.0
H2880 H 0.56433 0.91552 0.04003 0.0
H2881 H 0.57086 0.92064 0.98979 0.0
H2882 H 0.54399 0.86164 0.9767 0.0
H2883 H 0.53765 0.85639 0.02643 0.0
H2884 H 0.57725 0.88152 0.94692 0.0
H2885 H 0.53046 0.91047 0.93149 0.0
H2886 H 0.54859 0.92175 0.95696 0.0
H2887 H 0.53017 0.89849 0.96301 0.0
C2888 C 0.55995 0.90365 0.02647 0.0
C2889 C 0.55029 0.88553 0.03734 0.0
C2890 C 0.56361 0.9066 0.99775 0.0
C2891 C 0.5577 0.8915 0.97944 0.0
C2892 C 0.54865 0.8735 0.99039 0.0
H2893 H 0.52285 0.86569 0.81309 0.0
H2894 H 0.52817 0.87236 0.86269 0.0
C2895 C 0.54496 0.87054 0.01892 0.0
C2896 C 0.56012 0.89405 0.9487 0.0
H2897 H 0.54362 0.9056 0.89144 0.0
C2898 C 0.57016 0.88707 0.93475 0.0
C2899 C 0.55073 0.90116 0.9329 0.0
C2900 C 0.53926 0.9083 0.9467 0.0
C2901 C 0.57044 0.88629 0.90543 0.0
C2902 C 0.5606 0.89291 0.88963 0.0
C2903 C 0.55123 0.90062 0.90359 0.0
C2904 C 0.55789 0.88985 0.85899 0.0
C2905 C 0.58033 0.8774 0.89168 0.0
C2906 C 0.57283 0.89766 0.84018 0.0
C2907 C 0.56985 0.89378 0.81151 0.0
C2908 C 0.55184 0.88208 0.80116 0.0
C2909 C 0.53693 0.87469 0.82013 0.0
C2910 C 0.53993 0.87854 0.84861 0.0
H2911 H 0.5845 0.87014 0.90697 0.0
H2912 H 0.57139 0.86729 0.87556 0.0
H2913 H 0.59303 0.88824 0.8812 0.0
H2914 H 0.58679 0.90669 0.84766 0.0
H2915 H 0.58165 0.89981 0.79754 0.0
H2916 H 0.14481 0.68014 0.02476 0.0
H2917 H 0.13913 0.68175 0.97536 0.0
H2918 H 0.0802 0.65129 0.98998 0.0
H2919 H 0.08575 0.64936 0.0399 0.0
H2920 H 0.09064 0.63741 0.94587 0.0
H2921 H 0.1223 0.71312 0.93385 0.0
H2922 H 0.13785 0.70725 0.95082 0.0
H2923 H 0.11638 0.7019 0.96756 0.0
C2924 C 0.13059 0.67388 0.01769 0.0
C2925 C 0.11573 0.66459 0.03648 0.0
C2926 C 0.12738 0.67498 0.98935 0.0
C2927 C 0.10925 0.66696 0.97897 0.0
C2928 C 0.09432 0.65775 0.99757 0.0
H2929 H 0.1025 0.68441 0.79812 0.0
H2930 H 0.09557 0.68271 0.84824 0.0
C2931 C 0.09752 0.65667 0.02611 0.0
C2932 C 0.1062 0.66719 0.9484 0.0
H2933 H 0.12043 0.69605 0.89186 0.0
C2934 C 0.09683 0.65024 0.9341 0.0
C2935 C 0.11395 0.68391 0.93297 0.0
C2936 C 0.123 0.70256 0.94714 0.0
C2937 C 0.09617 0.64957 0.90478 0.0
C2938 C 0.1054 0.66626 0.88933 0.0
C2939 C 0.11358 0.68323 0.90364 0.0
C2940 C 0.10832 0.66638 0.85866 0.0
C2941 C 0.08595 0.63093 0.89063 0.0
C2942 C 0.11789 0.65791 0.84789 0.0
C2943 C 0.12188 0.65887 0.81945 0.0
C2944 C 0.11653 0.66847 0.80093 0.0
C2945 C 0.10677 0.67684 0.81169 0.0
C2946 C 0.10281 0.6759 0.84034 0.0
H2947 H 0.07465 0.62058 0.90411 0.0
H2948 H 0.07991 0.6318 0.87041 0.0
H2949 H 0.09574 0.62583 0.88657 0.0
H2950 H 0.1227 0.65088 0.86164 0.0
H2951 H 0.12944 0.65226 0.81208 0.0
H2952 H 0.35754 0.44447 0.038 0.0
H2953 H 0.35678 0.44082 0.98704 0.0
H2954 H 0.30809 0.44634 0.9829 0.0
H2955 H 0.30914 0.4506 0.03342 0.0
H2956 H 0.33191 0.41765 0.94726 0.0
H2957 H 0.34426 0.48898 0.93479 0.0
H2958 H 0.34612 0.47997 0.96807 0.0
H2959 H 0.32377 0.47452 0.95466 0.0
C2960 C 0.34653 0.44463 0.02624 0.0
C2961 C 0.33359 0.44814 0.03966 0.0
C2962 C 0.34611 0.44256 0.99712 0.0
C2963 C 0.33267 0.44382 0.98105 0.0
C2964 C 0.31892 0.44588 0.99473 0.0
H2965 H 0.30848 0.42214 0.8028 0.0
H2966 H 0.30941 0.41864 0.85353 0.0
C2967 C 0.31949 0.44823 0.02365 0.0
C2968 C 0.33363 0.44424 0.95001 0.0
H2969 H 0.33623 0.47061 0.89383 0.0
C2970 C 0.33295 0.42925 0.93552 0.0
C2971 C 0.33537 0.45955 0.93468 0.0
C2972 C 0.33763 0.47675 0.94883 0.0
C2973 C 0.33356 0.42902 0.90612 0.0
C2974 C 0.33445 0.44399 0.89081 0.0
C2975 C 0.3354 0.45904 0.90543 0.0
C2976 C 0.33479 0.44477 0.85969 0.0
C2977 C 0.33362 0.41293 0.89185 0.0
C2978 C 0.34864 0.46061 0.84612 0.0
C2979 C 0.34787 0.46281 0.81735 0.0
C2980 C 0.33335 0.44912 0.8013 0.0
C2981 C 0.31993 0.43285 0.81458 0.0
C2982 C 0.32052 0.43079 0.84359 0.0
H2983 H 0.33863 0.40583 0.90605 0.0
H2984 H 0.31927 0.40267 0.88549 0.0
H2985 H 0.34248 0.4175 0.87291 0.0
H2986 H 0.35982 0.47158 0.85796 0.0
H2987 H 0.3585 0.47544 0.80771 0.0
H2988 H 0.08552 0.43507 0.54069 0.0
H2989 H 0.08015 0.42762 0.49073 0.0
H2990 H 0.139 0.45923 0.47573 0.0
H2991 H 0.14452 0.46651 0.52513 0.0
H2992 H 0.08915 0.45169 0.44631 0.0
H2993 H 0.12488 0.4114 0.43476 0.0
H2994 H 0.11845 0.41623 0.4684 0.0
H2995 H 0.13946 0.43321 0.45149 0.0
C2996 C 0.09732 0.44027 0.52679 0.0
C2997 C 0.11546 0.45137 0.53709 0.0
C2998 C 0.09422 0.436 0.49824 0.0
C2999 C 0.10919 0.44257 0.47952 0.0
C3000 C 0.12725 0.45359 0.48979 0.0
H3001 H 0.1275 0.47654 0.31213 0.0
H3002 H 0.12071 0.47124 0.3617 0.0
C3003 C 0.13035 0.45788 0.51816 0.0
C3004 C 0.10619 0.43907 0.44898 0.0
H3005 H 0.12166 0.42557 0.39261 0.0
C3006 C 0.09595 0.44564 0.43461 0.0
C3007 C 0.11475 0.43086 0.43366 0.0
C3008 C 0.12483 0.42234 0.44792 0.0
C3009 C 0.09516 0.44541 0.40528 0.0
C3010 C 0.10512 0.43873 0.38991 0.0
C3011 C 0.11423 0.43094 0.40433 0.0
C3012 C 0.10783 0.44142 0.3592 0.0
C3013 C 0.08399 0.45273 0.39104 0.0
C3014 C 0.10314 0.42642 0.34113 0.0
C3015 C 0.10712 0.42941 0.31248 0.0
C3016 C 0.11613 0.4475 0.30149 0.0
C3017 C 0.12057 0.46241 0.31971 0.0
C3018 C 0.11654 0.4594 0.34815 0.0
H3019 H 0.07246 0.45117 0.40457 0.0
H3020 H 0.09308 0.46772 0.38671 0.0
H3021 H 0.07813 0.4455 0.37095 0.0
H3022 H 0.09657 0.41242 0.34924 0.0
H3023 H 0.10357 0.41762 0.29912 0.0
H3024 H 0.52369 0.65382 0.31154 0.0
H3025 H 0.52928 0.65284 0.36114 0.0
H3026 H 0.58823 0.68237 0.34655 0.0
H3027 H 0.58279 0.6837 0.29643 0.0
H3028 H 0.54772 0.63798 0.39029 0.0
H3029 H 0.58138 0.71428 0.40545 0.0
H3030 H 0.5688 0.70301 0.37407 0.0
H3031 H 0.59155 0.70632 0.37979 0.0
C3032 C 0.5379 0.66012 0.31868 0.0
C3033 C 0.5528 0.66902 0.29985 0.0
C3034 C 0.54106 0.65947 0.34716 0.0
C3035 C 0.55916 0.66771 0.35767 0.0
C3036 C 0.57413 0.67616 0.33897 0.0
H3037 H 0.56703 0.65099 0.53941 0.0
H3038 H 0.57385 0.65254 0.48927 0.0
C3039 C 0.57099 0.67683 0.31029 0.0
C3040 C 0.56196 0.66774 0.38835 0.0
H3041 H 0.5757 0.69606 0.44552 0.0
C3042 C 0.55412 0.65068 0.4024 0.0
C3043 C 0.5702 0.68434 0.40409 0.0
C3044 C 0.57837 0.70306 0.39023 0.0
C3045 C 0.55354 0.64971 0.43172 0.0
C3046 C 0.56128 0.66629 0.44746 0.0
C3047 C 0.56987 0.68337 0.43341 0.0
C3048 C 0.55846 0.66619 0.47815 0.0
C3049 C 0.54369 0.63094 0.44557 0.0
C3050 C 0.54803 0.6738 0.48868 0.0
C3051 C 0.54421 0.67303 0.51716 0.0
C3052 C 0.55075 0.66464 0.536 0.0
C3053 C 0.56167 0.65744 0.52554 0.0
C3054 C 0.5655 0.65824 0.49686 0.0
H3055 H 0.5358 0.6196 0.43037 0.0
H3056 H 0.55403 0.62827 0.45593 0.0
H3057 H 0.53396 0.6305 0.4618 0.0
H3058 H 0.54246 0.68002 0.47469 0.0
H3059 H 0.53586 0.67884 0.5243 0.0
H3060 H 0.34849 0.87101 0.3117 0.0
H3061 H 0.34943 0.87732 0.36139 0.0
H3062 H 0.31877 0.90563 0.34764 0.0
H3063 H 0.31746 0.8991 0.29743 0.0
H3064 H 0.36362 0.91026 0.39112 0.0
H3065 H 0.2874 0.8662 0.40599 0.0
H3066 H 0.29885 0.86545 0.37447 0.0
H3067 H 0.29502 0.8845 0.38069 0.0
C3068 C 0.34194 0.87863 0.31904 0.0
C3069 C 0.33271 0.88437 0.30043 0.0
C3070 C 0.34257 0.88229 0.34757 0.0
C3071 C 0.33399 0.89174 0.35835 0.0
C3072 C 0.32524 0.89804 0.33985 0.0
H3073 H 0.35007 0.91546 0.54035 0.0
H3074 H 0.34857 0.92085 0.49025 0.0
C3075 C 0.32459 0.89437 0.31113 0.0
C3076 C 0.33386 0.89425 0.38909 0.0
H3077 H 0.30548 0.87885 0.44615 0.0
C3078 C 0.3509 0.90367 0.40319 0.0
C3079 C 0.31725 0.88551 0.40477 0.0
C3080 C 0.29856 0.87472 0.39085 0.0
C3081 C 0.35184 0.9039 0.43252 0.0
C3082 C 0.33525 0.89469 0.4482 0.0
C3083 C 0.31818 0.88598 0.4341 0.0
C3084 C 0.33536 0.89187 0.47885 0.0
C3085 C 0.37061 0.91304 0.44642 0.0
C3086 C 0.32798 0.87381 0.48921 0.0
C3087 C 0.32872 0.87068 0.51767 0.0
C3088 C 0.33684 0.88556 0.53666 0.0
C3089 C 0.34382 0.90368 0.52636 0.0
C3090 C 0.34306 0.9068 0.4977 0.0
H3091 H 0.382 0.91674 0.43121 0.0
H3092 H 0.37305 0.92593 0.45691 0.0
H3093 H 0.37121 0.90379 0.46254 0.0
H3094 H 0.32195 0.86207 0.47511 0.0
H3095 H 0.32308 0.85652 0.52468 0.0
loop_
_geom_bond_atom_site_label_1
_geom_bond_atom_site_label_2
_geom_bond_distance
_geom_bond_site_symmetry_2
_ccdc_geom_bond_type
Co0 O1 2.216 1_554 S
Co0 O2 2.091 . S
Co0 O4 2.004 . S
Co0 O10 2.021 . S
Co0 O12 2.137 . S
Co0 O13 2.244 . S
O1 Co0 2.216 1_556 S
O1 C8 1.247 1_556 S
O2 Co0 2.091 . S
O2 C8 1.261 . S
C3 O12 1.247 . S
C3 O13 1.272 . S
O4 Co0 2.004 . S
O4 C9 1.259 . S
Co5 O6 2.061 . S
Co5 O11 2.052 . S
Co5 O13 2.135 . S
O6 Co5 2.061 . S
O6 C9 1.235 . S
C7 O10 1.238 . S
C7 O11 1.241 . S
C8 O1 1.247 1_554 S
C8 O2 1.261 . S
C9 O4 1.259 . S
C9 O6 1.235 . S
O10 Co0 2.021 . S
O10 C7 1.238 . S
O11 Co5 2.052 . S
O11 C7 1.241 . S
O12 Co0 2.137 . S
O12 C3 1.247 . S
O13 Co0 2.244 . S
O13 C3 1.272 . S
O13 Co5 2.135 . S
Co14 O15 2.216 1_554 S
Co14 O16 2.091 . S
Co14 O18 2.004 . S
Co14 O24 2.021 . S
Co14 O26 2.137 1_545 S
Co14 O27 2.244 1_545 S
O15 Co14 2.216 1_556 S
O15 C22 1.247 1_556 S
O16 Co14 2.091 . S
O16 C22 1.261 . S
C17 O26 1.247 . S
C17 O27 1.272 . S
O18 Co14 2.004 . S
O18 C23 1.259 . S
Co19 O20 2.061 . S
Co19 O25 2.052 . S
Co19 O27 2.135 1_545 S
O20 Co19 2.061 . S
O20 C23 1.235 . S
C21 O24 1.238 . S
C21 O25 1.241 . S
C22 O15 1.247 1_554 S
C22 O16 1.261 . S
C23 O18 1.259 . S
C23 O20 1.235 . S
O24 Co14 2.021 . S
O24 C21 1.238 . S
O25 Co19 2.052 . S
O25 C21 1.241 . S
O26 Co14 2.137 1_565 S
O26 C17 1.247 . S
O27 Co14 2.244 1_565 S
O27 C17 1.272 . S
O27 Co19 2.135 1_565 S
Co28 O29 2.216 1_554 S
Co28 O30 2.091 . S
Co28 O32 2.004 . S
Co28 O38 2.021 . S
Co28 O40 2.137 1_655 S
Co28 O41 2.244 1_655 S
O29 Co28 2.216 1_556 S
O29 C36 1.247 1_556 S
O30 Co28 2.091 . S
O30 C36 1.261 . S
C31 O40 1.247 . S
C31 O41 1.272 . S
O32 Co28 2.004 . S
O32 C37 1.259 . S
Co33 O34 2.061 . S
Co33 O39 2.052 . S
Co33 O41 2.135 1_655 S
O34 Co33 2.061 . S
O34 C37 1.235 . S
C35 O38 1.238 . S
C35 O39 1.241 . S
C36 O29 1.247 1_554 S
C36 O30 1.261 . S
C37 O32 1.259 . S
C37 O34 1.235 . S
O38 Co28 2.021 . S
O38 C35 1.238 . S
O39 Co33 2.052 . S
O39 C35 1.241 . S
O40 Co28 2.137 1_455 S
O40 C31 1.247 . S
O41 Co28 2.244 1_455 S
O41 C31 1.272 . S
O41 Co33 2.135 1_455 S
Co42 O43 2.216 . S
Co42 O44 2.091 . S
Co42 O46 2.004 . S
Co42 O52 2.021 . S
Co42 O54 2.137 . S
Co42 O55 2.244 . S
O43 Co42 2.216 . S
O43 C50 1.247 . S
O44 Co42 2.091 . S
O44 C50 1.261 . S
C45 O54 1.247 . S
C45 O55 1.272 . S
O46 Co42 2.004 . S
O46 C51 1.259 . S
Co47 O48 2.061 . S
Co47 O53 2.052 . S
Co47 O55 2.135 . S
O48 Co47 2.061 . S
O48 C51 1.235 . S
C49 O52 1.238 . S
C49 O53 1.241 . S
C50 O43 1.247 . S
C50 O44 1.261 . S
C51 O46 1.259 . S
C51 O48 1.235 . S
O52 Co42 2.021 . S
O52 C49 1.238 . S
O53 Co47 2.052 . S
O53 C49 1.241 . S
O54 Co42 2.137 . S
O54 C45 1.247 . S
O55 Co42 2.244 . S
O55 C45 1.272 . S
O55 Co47 2.135 . S
Co56 O57 2.216 . S
Co56 O58 2.091 . S
Co56 O60 2.004 . S
Co56 O66 2.021 . S
Co56 O68 2.137 1_565 S
Co56 O69 2.244 1_565 S
O57 Co56 2.216 . S
O57 C64 1.247 . S
O58 Co56 2.091 . S
O58 C64 1.261 . S
C59 O68 1.247 . S
C59 O69 1.272 . S
O60 Co56 2.004 . S
O60 C65 1.259 . S
Co61 O62 2.061 . S
Co61 O67 2.052 . S
Co61 O69 2.135 1_565 S
O62 Co61 2.061 . S
O62 C65 1.235 . S
C63 O66 1.238 . S
C63 O67 1.241 . S
C64 O57 1.247 . S
C64 O58 1.261 . S
C65 O60 1.259 . S
C65 O62 1.235 . S
O66 Co56 2.021 . S
O66 C63 1.238 . S
O67 Co61 2.052 . S
O67 C63 1.241 . S
O68 Co56 2.137 1_545 S
O68 C59 1.247 . S
O69 Co56 2.244 1_545 S
O69 C59 1.272 . S
O69 Co61 2.135 1_545 S
Co70 O71 2.216 . S
Co70 O72 2.091 . S
Co70 O74 2.004 . S
Co70 O80 2.021 . S
Co70 O82 2.137 1_455 S
Co70 O83 2.244 1_455 S
O71 Co70 2.216 . S
O71 C78 1.247 . S
O72 Co70 2.091 . S
O72 C78 1.261 . S
C73 O82 1.247 . S
C73 O83 1.272 . S
O74 Co70 2.004 . S
O74 C79 1.259 . S
Co75 O76 2.061 . S
Co75 O81 2.052 . S
Co75 O83 2.135 1_455 S
O76 Co75 2.061 . S
O76 C79 1.235 . S
C77 O80 1.238 . S
C77 O81 1.241 . S
C78 O71 1.247 . S
C78 O72 1.261 . S
C79 O74 1.259 . S
C79 O76 1.235 . S
O80 Co70 2.021 . S
O80 C77 1.238 . S
O81 Co75 2.052 . S
O81 C77 1.241 . S
O82 Co70 2.137 1_655 S
O82 C73 1.247 . S
O83 Co70 2.244 1_655 S
O83 C73 1.272 . S
O83 Co75 2.135 1_655 S
Co84 O85 2.216 1_556 S
Co84 O86 2.091 . S
Co84 O88 2.004 . S
Co84 O94 2.021 . S
Co84 O96 2.137 . S
Co84 O97 2.244 . S
O85 Co84 2.216 1_554 S
O85 C92 1.247 1_554 S
O86 Co84 2.091 . S
O86 C92 1.261 . S
C87 O96 1.247 . S
C87 O97 1.272 . S
O88 Co84 2.004 . S
O88 C93 1.259 . S
Co89 O90 2.061 . S
Co89 O95 2.052 . S
Co89 O97 2.135 . S
O90 Co89 2.061 . S
O90 C93 1.235 . S
C91 O94 1.238 . S
C91 O95 1.241 . S
C92 O85 1.247 1_556 S
C92 O86 1.261 . S
C93 O88 1.259 . S
C93 O90 1.235 . S
O94 Co84 2.021 . S
O94 C91 1.238 . S
O95 Co89 2.052 . S
O95 C91 1.241 . S
O96 Co84 2.137 . S
O96 C87 1.247 . S
O97 Co84 2.244 . S
O97 C87 1.272 . S
O97 Co89 2.135 . S
Co98 O99 2.216 1_556 S
Co98 O100 2.091 . S
Co98 O102 2.004 . S
Co98 O108 2.021 . S
Co98 O110 2.137 1_565 S
Co98 O111 2.244 1_565 S
O99 Co98 2.216 1_554 S
O99 C106 1.247 1_554 S
O100 Co98 2.091 . S
O100 C106 1.261 . S
C101 O110 1.247 . S
C101 O111 1.272 . S
O102 Co98 2.004 . S
O102 C107 1.259 . S
Co103 O104 2.061 . S
Co103 O109 2.052 . S
Co103 O111 2.135 1_565 S
O104 Co103 2.061 . S
O104 C107 1.235 . S
C105 O108 1.238 . S
C105 O109 1.241 . S
C106 O99 1.247 1_556 S
C106 O100 1.261 . S
C107 O102 1.259 . S
C107 O104 1.235 . S
O108 Co98 2.021 . S
O108 C105 1.238 . S
O109 Co103 2.052 . S
O109 C105 1.241 . S
O110 Co98 2.137 1_545 S
O110 C101 1.247 . S
O111 Co98 2.244 1_545 S
O111 C101 1.272 . S
O111 Co103 2.135 1_545 S
Co112 O113 2.216 1_556 S
Co112 O114 2.091 . S
Co112 O116 2.004 . S
Co112 O122 2.021 . S
Co112 O124 2.137 1_455 S
Co112 O125 2.244 1_455 S
O113 Co112 2.216 1_554 S
O113 C120 1.247 1_554 S
O114 Co112 2.091 . S
O114 C120 1.261 . S
C115 O124 1.247 . S
C115 O125 1.272 . S
O116 Co112 2.004 . S
O116 C121 1.259 . S
Co117 O118 2.061 . S
Co117 O123 2.052 . S
Co117 O125 2.135 1_455 S
O118 Co117 2.061 . S
O118 C121 1.235 . S
C119 O122 1.238 . S
C119 O123 1.241 . S
C120 O113 1.247 1_556 S
C120 O114 1.261 . S
C121 O116 1.259 . S
C121 O118 1.235 . S
O122 Co112 2.021 . S
O122 C119 1.238 . S
O123 Co117 2.052 . S
O123 C119 1.241 . S
O124 Co112 2.137 1_655 S
O124 C115 1.247 . S
O125 Co112 2.244 1_655 S
O125 C115 1.272 . S
O125 Co117 2.135 1_655 S
Co126 O127 2.216 . S
Co126 O128 2.091 . S
Co126 O130 2.004 . S
Co126 O136 2.021 . S
Co126 O138 2.137 . S
Co126 O139 2.244 . S
O127 Co126 2.216 . S
O127 C134 1.247 . S
O128 Co126 2.091 . S
O128 C134 1.261 . S
C129 O138 1.247 . S
C129 O139 1.272 . S
O130 Co126 2.004 . S
O130 C135 1.259 . S
Co131 O132 2.061 . S
Co131 O137 2.052 . S
Co131 O139 2.135 . S
O132 Co131 2.061 . S
O132 C135 1.235 . S
C133 O136 1.238 . S
C133 O137 1.241 . S
C134 O127 1.247 . S
C134 O128 1.261 . S
C135 O130 1.259 . S
C135 O132 1.235 . S
O136 Co126 2.021 . S
O136 C133 1.238 . S
O137 Co131 2.052 . S
O137 C133 1.241 . S
O138 Co126 2.137 . S
O138 C129 1.247 . S
O139 Co126 2.244 . S
O139 C129 1.272 . S
O139 Co131 2.135 . S
Co140 O141 2.216 . S
Co140 O142 2.091 . S
Co140 O144 2.004 . S
Co140 O150 2.021 . S
Co140 O152 2.137 1_545 S
Co140 O153 2.244 1_545 S
O141 Co140 2.216 . S
O141 C148 1.247 . S
O142 Co140 2.091 . S
O142 C148 1.261 . S
C143 O152 1.247 . S
C143 O153 1.272 . S
O144 Co140 2.004 . S
O144 C149 1.259 . S
Co145 O146 2.061 . S
Co145 O151 2.052 . S
Co145 O153 2.135 1_545 S
O146 Co145 2.061 . S
O146 C149 1.235 . S
C147 O150 1.238 . S
C147 O151 1.241 . S
C148 O141 1.247 . S
C148 O142 1.261 . S
C149 O144 1.259 . S
C149 O146 1.235 . S
O150 Co140 2.021 . S
O150 C147 1.238 . S
O151 Co145 2.052 . S
O151 C147 1.241 . S
O152 Co140 2.137 1_565 S
O152 C143 1.247 . S
O153 Co140 2.244 1_565 S
O153 C143 1.272 . S
O153 Co145 2.135 1_565 S
Co154 O155 2.216 . S
Co154 O156 2.091 . S
Co154 O158 2.004 . S
Co154 O164 2.021 . S
Co154 O166 2.137 1_655 S
Co154 O167 2.244 1_655 S
O155 Co154 2.216 . S
O155 C162 1.247 . S
O156 Co154 2.091 . S
O156 C162 1.261 . S
C157 O166 1.247 . S
C157 O167 1.272 . S
O158 Co154 2.004 . S
O158 C163 1.259 . S
Co159 O160 2.061 . S
Co159 O165 2.052 . S
Co159 O167 2.135 1_655 S
O160 Co159 2.061 . S
O160 C163 1.235 . S
C161 O164 1.238 . S
C161 O165 1.241 . S
C162 O155 1.247 . S
C162 O156 1.261 . S
C163 O158 1.259 . S
C163 O160 1.235 . S
O164 Co154 2.021 . S
O164 C161 1.238 . S
O165 Co159 2.052 . S
O165 C161 1.241 . S
O166 Co154 2.137 1_455 S
O166 C157 1.247 . S
O167 Co154 2.244 1_455 S
O167 C157 1.272 . S
O167 Co159 2.135 1_455 S
Co168 O169 2.216 . S
Co168 O170 2.091 . S
Co168 O172 2.004 . S
Co168 O178 2.021 . S
Co168 O180 2.137 . S
Co168 O181 2.244 . S
O169 Co168 2.216 . S
O169 C176 1.247 . S
O170 Co168 2.091 . S
O170 C176 1.261 . S
C171 O180 1.247 . S
C171 O181 1.272 . S
O172 Co168 2.004 . S
O172 C177 1.259 . S
Co173 O174 2.061 . S
Co173 O179 2.052 . S
Co173 O181 2.135 . S
O174 Co173 2.061 . S
O174 C177 1.235 . S
C175 O178 1.238 . S
C175 O179 1.241 . S
C176 O169 1.247 . S
C176 O170 1.261 . S
C177 O172 1.259 . S
C177 O174 1.235 . S
O178 Co168 2.021 . S
O178 C175 1.238 . S
O179 Co173 2.052 . S
O179 C175 1.241 . S
O180 Co168 2.137 . S
O180 C171 1.247 . S
O181 Co168 2.244 . S
O181 C171 1.272 . S
O181 Co173 2.135 . S
Co182 O183 2.216 . S
Co182 O184 2.091 . S
Co182 O186 2.004 . S
Co182 O192 2.021 . S
Co182 O194 2.137 . S
Co182 O195 2.244 . S
O183 Co182 2.216 . S
O183 C190 1.247 . S
O184 Co182 2.091 . S
O184 C190 1.261 . S
C185 O194 1.247 . S
C185 O195 1.272 . S
O186 Co182 2.004 . S
O186 C191 1.259 . S
Co187 O188 2.061 . S
Co187 O193 2.052 . S
Co187 O195 2.135 . S
O188 Co187 2.061 . S
O188 C191 1.235 . S
C189 O192 1.238 . S
C189 O193 1.241 . S
C190 O183 1.247 . S
C190 O184 1.261 . S
C191 O186 1.259 . S
C191 O188 1.235 . S
O192 Co182 2.021 . S
O192 C189 1.238 . S
O193 Co187 2.052 . S
O193 C189 1.241 . S
O194 Co182 2.137 . S
O194 C185 1.247 . S
O195 Co182 2.244 . S
O195 C185 1.272 . S
O195 Co187 2.135 . S
Co196 O197 2.216 . S
Co196 O198 2.091 . S
Co196 O200 2.004 . S
Co196 O206 2.021 . S
Co196 O208 2.137 . S
Co196 O209 2.244 . S
O197 Co196 2.216 . S
O197 C204 1.247 . S
O198 Co196 2.091 . S
O198 C204 1.261 . S
C199 O208 1.247 . S
C199 O209 1.272 . S
O200 Co196 2.004 . S
O200 C205 1.259 . S
Co201 O202 2.061 . S
Co201 O207 2.052 . S
Co201 O209 2.135 . S
O202 Co201 2.061 . S
O202 C205 1.235 . S
C203 O206 1.238 . S
C203 O207 1.241 . S
C204 O197 1.247 . S
C204 O198 1.261 . S
C205 O200 1.259 . S
C205 O202 1.235 . S
O206 Co196 2.021 . S
O206 C203 1.238 . S
O207 Co201 2.052 . S
O207 C203 1.241 . S
O208 Co196 2.137 . S
O208 C199 1.247 . S
O209 Co196 2.244 . S
O209 C199 1.272 . S
O209 Co201 2.135 . S
Co210 O211 2.216 . S
Co210 O212 2.091 . S
Co210 O214 2.004 . S
Co210 O220 2.021 . S
Co210 O222 2.137 . S
Co210 O223 2.244 . S
O211 Co210 2.216 . S
O211 C218 1.247 . S
O212 Co210 2.091 . S
O212 C218 1.261 . S
C213 O222 1.247 . S
C213 O223 1.272 . S
O214 Co210 2.004 . S
O214 C219 1.259 . S
Co215 O216 2.061 . S
Co215 O221 2.052 . S
Co215 O223 2.135 . S
O216 Co215 2.061 . S
O216 C219 1.235 . S
C217 O220 1.238 . S
C217 O221 1.241 . S
C218 O211 1.247 . S
C218 O212 1.261 . S
C219 O214 1.259 . S
C219 O216 1.235 . S
O220 Co210 2.021 . S
O220 C217 1.238 . S
O221 Co215 2.052 . S
O221 C217 1.241 . S
O222 Co210 2.137 . S
O222 C213 1.247 . S
O223 Co210 2.244 . S
O223 C213 1.272 . S
O223 Co215 2.135 . S
Co224 O225 2.216 . S
Co224 O226 2.091 . S
Co224 O228 2.004 . S
Co224 O234 2.021 . S
Co224 O236 2.137 . S
Co224 O237 2.244 . S
O225 Co224 2.216 . S
O225 C232 1.247 . S
O226 Co224 2.091 . S
O226 C232 1.261 . S
C227 O236 1.247 . S
C227 O237 1.272 . S
O228 Co224 2.004 . S
O228 C233 1.259 . S
Co229 O230 2.061 . S
Co229 O235 2.052 . S
Co229 O237 2.135 . S
O230 Co229 2.061 . S
O230 C233 1.235 . S
C231 O234 1.238 . S
C231 O235 1.241 . S
C232 O225 1.247 . S
C232 O226 1.261 . S
C233 O228 1.259 . S
C233 O230 1.235 . S
O234 Co224 2.021 . S
O234 C231 1.238 . S
O235 Co229 2.052 . S
O235 C231 1.241 . S
O236 Co224 2.137 . S
O236 C227 1.247 . S
O237 Co224 2.244 . S
O237 C227 1.272 . S
O237 Co229 2.135 . S
Co238 O239 2.216 . S
Co238 O240 2.091 . S
Co238 O242 2.004 . S
Co238 O248 2.021 . S
Co238 O250 2.137 . S
Co238 O251 2.244 . S
O239 Co238 2.216 . S
O239 C246 1.247 . S
O240 Co238 2.091 . S
O240 C246 1.261 . S
C241 O250 1.247 . S
C241 O251 1.272 . S
O242 Co238 2.004 . S
O242 C247 1.259 . S
Co243 O244 2.061 . S
Co243 O249 2.052 . S
Co243 O251 2.135 . S
O244 Co243 2.061 . S
O244 C247 1.235 . S
C245 O248 1.238 . S
C245 O249 1.241 . S
C246 O239 1.247 . S
C246 O240 1.261 . S
C247 O242 1.259 . S
C247 O244 1.235 . S
O248 Co238 2.021 . S
O248 C245 1.238 . S
O249 Co243 2.052 . S
O249 C245 1.241 . S
O250 Co238 2.137 . S
O250 C241 1.247 . S
O251 Co238 2.244 . S
O251 C241 1.272 . S
O251 Co243 2.135 . S
Co252 O253 2.216 . S
Co252 O254 2.091 . S
Co252 O256 2.004 . S
Co252 O262 2.021 . S
Co252 O264 2.137 . S
Co252 O265 2.244 . S
O253 Co252 2.216 . S
O253 C260 1.247 . S
O254 Co252 2.091 . S
O254 C260 1.261 . S
C255 O264 1.247 . S
C255 O265 1.272 . S
O256 Co252 2.004 . S
O256 C261 1.259 . S
Co257 O258 2.061 . S
Co257 O263 2.052 . S
Co257 O265 2.135 . S
O258 Co257 2.061 . S
O258 C261 1.235 . S
C259 O262 1.238 . S
C259 O263 1.241 . S
C260 O253 1.247 . S
C260 O254 1.261 . S
C261 O256 1.259 . S
C261 O258 1.235 . S
O262 Co252 2.021 . S
O262 C259 1.238 . S
O263 Co257 2.052 . S
O263 C259 1.241 . S
O264 Co252 2.137 . S
O264 C255 1.247 . S
O265 Co252 2.244 . S
O265 C255 1.272 . S
O265 Co257 2.135 . S
Co266 O267 2.216 . S
Co266 O268 2.091 . S
Co266 O270 2.004 . S
Co266 O276 2.021 . S
Co266 O278 2.137 . S
Co266 O279 2.244 . S
O267 Co266 2.216 . S
O267 C274 1.247 . S
O268 Co266 2.091 . S
O268 C274 1.261 . S
C269 O278 1.247 . S
C269 O279 1.272 . S
O270 Co266 2.004 . S
O270 C275 1.259 . S
Co271 O272 2.061 . S
Co271 O277 2.052 . S
Co271 O279 2.135 . S
O272 Co271 2.061 . S
O272 C275 1.235 . S
C273 O276 1.238 . S
C273 O277 1.241 . S
C274 O267 1.247 . S
C274 O268 1.261 . S
C275 O270 1.259 . S
C275 O272 1.235 . S
O276 Co266 2.021 . S
O276 C273 1.238 . S
O277 Co271 2.052 . S
O277 C273 1.241 . S
O278 Co266 2.137 . S
O278 C269 1.247 . S
O279 Co266 2.244 . S
O279 C269 1.272 . S
O279 Co271 2.135 . S
Co280 O281 2.216 . S
Co280 O282 2.091 . S
Co280 O284 2.004 . S
Co280 O290 2.021 . S
Co280 O292 2.137 . S
Co280 O293 2.244 . S
O281 Co280 2.216 . S
O281 C288 1.247 . S
O282 Co280 2.091 . S
O282 C288 1.261 . S
C283 O292 1.247 . S
C283 O293 1.272 . S
O284 Co280 2.004 . S
O284 C289 1.259 . S
Co285 O286 2.061 . S
Co285 O291 2.052 . S
Co285 O293 2.135 . S
O286 Co285 2.061 . S
O286 C289 1.235 . S
C287 O290 1.238 . S
C287 O291 1.241 . S
C288 O281 1.247 . S
C288 O282 1.261 . S
C289 O284 1.259 . S
C289 O286 1.235 . S
O290 Co280 2.021 . S
O290 C287 1.238 . S
O291 Co285 2.052 . S
O291 C287 1.241 . S
O292 Co280 2.137 . S
O292 C283 1.247 . S
O293 Co280 2.244 . S
O293 C283 1.272 . S
O293 Co285 2.135 . S
Co294 O295 2.216 . S
Co294 O296 2.091 . S
Co294 O298 2.004 . S
Co294 O304 2.021 . S
Co294 O306 2.137 . S
Co294 O307 2.244 . S
O295 Co294 2.216 . S
O295 C302 1.247 . S
O296 Co294 2.091 . S
O296 C302 1.261 . S
C297 O306 1.247 . S
C297 O307 1.272 . S
O298 Co294 2.004 . S
O298 C303 1.259 . S
Co299 O300 2.061 . S
Co299 O305 2.052 . S
Co299 O307 2.135 . S
O300 Co299 2.061 . S
O300 C303 1.235 . S
C301 O304 1.238 . S
C301 O305 1.241 . S
C302 O295 1.247 . S
C302 O296 1.261 . S
C303 O298 1.259 . S
C303 O300 1.235 . S
O304 Co294 2.021 . S
O304 C301 1.238 . S
O305 Co299 2.052 . S
O305 C301 1.241 . S
O306 Co294 2.137 . S
O306 C297 1.247 . S
O307 Co294 2.244 . S
O307 C297 1.272 . S
O307 Co299 2.135 . S
Co308 O309 2.216 . S
Co308 O310 2.091 . S
Co308 O312 2.004 . S
Co308 O318 2.021 . S
Co308 O320 2.137 . S
Co308 O321 2.244 . S
O309 Co308 2.216 . S
O309 C316 1.247 . S
O310 Co308 2.091 . S
O310 C316 1.261 . S
C311 O320 1.247 . S
C311 O321 1.272 . S
O312 Co308 2.004 . S
O312 C317 1.259 . S
Co313 O314 2.061 . S
Co313 O319 2.052 . S
Co313 O321 2.135 . S
O314 Co313 2.061 . S
O314 C317 1.235 . S
C315 O318 1.238 . S
C315 O319 1.241 . S
C316 O309 1.247 . S
C316 O310 1.261 . S
C317 O312 1.259 . S
C317 O314 1.235 . S
O318 Co308 2.021 . S
O318 C315 1.238 . S
O319 Co313 2.052 . S
O319 C315 1.241 . S
O320 Co308 2.137 . S
O320 C311 1.247 . S
O321 Co308 2.244 . S
O321 C311 1.272 . S
O321 Co313 2.135 . S
Co322 O323 2.216 . S
Co322 O324 2.091 . S
Co322 O326 2.004 . S
Co322 O332 2.021 . S
Co322 O334 2.137 . S
Co322 O335 2.244 . S
O323 Co322 2.216 . S
O323 C330 1.247 . S
O324 Co322 2.091 . S
O324 C330 1.261 . S
C325 O334 1.247 . S
C325 O335 1.272 . S
O326 Co322 2.004 . S
O326 C331 1.259 . S
Co327 O328 2.061 . S
Co327 O333 2.052 . S
Co327 O335 2.135 . S
O328 Co327 2.061 . S
O328 C331 1.235 . S
C329 O332 1.238 . S
C329 O333 1.241 . S
C330 O323 1.247 . S
C330 O324 1.261 . S
C331 O326 1.259 . S
C331 O328 1.235 . S
O332 Co322 2.021 . S
O332 C329 1.238 . S
O333 Co327 2.052 . S
O333 C329 1.241 . S
O334 Co322 2.137 . S
O334 C325 1.247 . S
O335 Co322 2.244 . S
O335 C325 1.272 . S
O335 Co327 2.135 . S
Co336 O337 2.216 . S
Co336 O338 2.091 . S
Co336 O340 2.004 . S
Co336 O346 2.021 . S
Co336 O348 2.137 . S
Co336 O349 2.244 . S
O337 Co336 2.216 . S
O337 C344 1.247 . S
O338 Co336 2.091 . S
O338 C344 1.261 . S
C339 O348 1.247 . S
C339 O349 1.272 . S
O340 Co336 2.004 . S
O340 C345 1.259 . S
Co341 O342 2.061 . S
Co341 O347 2.052 . S
Co341 O349 2.135 . S
O342 Co341 2.061 . S
O342 C345 1.235 . S
C343 O346 1.238 . S
C343 O347 1.241 . S
C344 O337 1.247 . S
C344 O338 1.261 . S
C345 O340 1.259 . S
C345 O342 1.235 . S
O346 Co336 2.021 . S
O346 C343 1.238 . S
O347 Co341 2.052 . S
O347 C343 1.241 . S
O348 Co336 2.137 . S
O348 C339 1.247 . S
O349 Co336 2.244 . S
O349 C339 1.272 . S
O349 Co341 2.135 . S
Co350 O351 2.216 . S
Co350 O352 2.091 . S
Co350 O354 2.004 . S
Co350 O360 2.021 . S
Co350 O362 2.137 . S
Co350 O363 2.244 . S
O351 Co350 2.216 . S
O351 C358 1.247 . S
O352 Co350 2.091 . S
O352 C358 1.261 . S
C353 O362 1.247 . S
C353 O363 1.272 . S
O354 Co350 2.004 . S
O354 C359 1.259 . S
Co355 O356 2.061 . S
Co355 O361 2.052 . S
Co355 O363 2.135 . S
O356 Co355 2.061 . S
O356 C359 1.235 . S
C357 O360 1.238 . S
C357 O361 1.241 . S
C358 O351 1.247 . S
C358 O352 1.261 . S
C359 O354 1.259 . S
C359 O356 1.235 . S
O360 Co350 2.021 . S
O360 C357 1.238 . S
O361 Co355 2.052 . S
O361 C357 1.241 . S
O362 Co350 2.137 . S
O362 C353 1.247 . S
O363 Co350 2.244 . S
O363 C353 1.272 . S
O363 Co355 2.135 . S
Co364 O365 2.216 . S
Co364 O366 2.091 . S
Co364 O368 2.004 . S
Co364 O374 2.021 . S
Co364 O376 2.137 . S
Co364 O377 2.244 . S
O365 Co364 2.216 . S
O365 C372 1.247 . S
O366 Co364 2.091 . S
O366 C372 1.261 . S
C367 O376 1.247 . S
C367 O377 1.272 . S
O368 Co364 2.004 . S
O368 C373 1.259 . S
Co369 O370 2.061 . S
Co369 O375 2.052 . S
Co369 O377 2.135 . S
O370 Co369 2.061 . S
O370 C373 1.235 . S
C371 O374 1.238 . S
C371 O375 1.241 . S
C372 O365 1.247 . S
C372 O366 1.261 . S
C373 O368 1.259 . S
C373 O370 1.235 . S
O374 Co364 2.021 . S
O374 C371 1.238 . S
O375 Co369 2.052 . S
O375 C371 1.241 . S
O376 Co364 2.137 . S
O376 C367 1.247 . S
O377 Co364 2.244 . S
O377 C367 1.272 . S
O377 Co369 2.135 . S
Co378 O379 2.216 . S
Co378 O380 2.091 . S
Co378 O382 2.004 . S
Co378 O388 2.021 . S
Co378 O390 2.137 . S
Co378 O391 2.244 . S
O379 Co378 2.216 . S
O379 C386 1.247 . S
O380 Co378 2.091 . S
O380 C386 1.261 . S
C381 O390 1.247 . S
C381 O391 1.272 . S
O382 Co378 2.004 . S
O382 C387 1.259 . S
Co383 O384 2.061 . S
Co383 O389 2.052 . S
Co383 O391 2.135 . S
O384 Co383 2.061 . S
O384 C387 1.235 . S
C385 O388 1.238 . S
C385 O389 1.241 . S
C386 O379 1.247 . S
C386 O380 1.261 . S
C387 O382 1.259 . S
C387 O384 1.235 . S
O388 Co378 2.021 . S
O388 C385 1.238 . S
O389 Co383 2.052 . S
O389 C385 1.241 . S
O390 Co378 2.137 . S
O390 C381 1.247 . S
O391 Co378 2.244 . S
O391 C381 1.272 . S
O391 Co383 2.135 . S
Co392 O393 2.216 . S
Co392 O394 2.091 . S
Co392 O396 2.004 . S
Co392 O402 2.021 . S
Co392 O404 2.137 . S
Co392 O405 2.244 . S
O393 Co392 2.216 . S
O393 C400 1.247 . S
O394 Co392 2.091 . S
O394 C400 1.261 . S
C395 O404 1.247 . S
C395 O405 1.272 . S
O396 Co392 2.004 . S
O396 C401 1.259 . S
Co397 O398 2.061 . S
Co397 O403 2.052 . S
Co397 O405 2.135 . S
O398 Co397 2.061 . S
O398 C401 1.235 . S
C399 O402 1.238 . S
C399 O403 1.241 . S
C400 O393 1.247 . S
C400 O394 1.261 . S
C401 O396 1.259 . S
C401 O398 1.235 . S
O402 Co392 2.021 . S
O402 C399 1.238 . S
O403 Co397 2.052 . S
O403 C399 1.241 . S
O404 Co392 2.137 . S
O404 C395 1.247 . S
O405 Co392 2.244 . S
O405 C395 1.272 . S
O405 Co397 2.135 . S
Co406 O407 2.216 . S
Co406 O408 2.091 . S
Co406 O410 2.004 . S
Co406 O416 2.021 . S
Co406 O418 2.137 . S
Co406 O419 2.244 . S
O407 Co406 2.216 . S
O407 C414 1.247 . S
O408 Co406 2.091 . S
O408 C414 1.261 . S
C409 O418 1.247 . S
C409 O419 1.272 . S
O410 Co406 2.004 . S
O410 C415 1.259 . S
Co411 O412 2.061 . S
Co411 O417 2.052 . S
Co411 O419 2.135 . S
O412 Co411 2.061 . S
O412 C415 1.235 . S
C413 O416 1.238 . S
C413 O417 1.241 . S
C414 O407 1.247 . S
C414 O408 1.261 . S
C415 O410 1.259 . S
C415 O412 1.235 . S
O416 Co406 2.021 . S
O416 C413 1.238 . S
O417 Co411 2.052 . S
O417 C413 1.241 . S
O418 Co406 2.137 . S
O418 C409 1.247 . S
O419 Co406 2.244 . S
O419 C409 1.272 . S
O419 Co411 2.135 . S
Co420 O421 2.216 . S
Co420 O422 2.091 . S
Co420 O424 2.004 . S
Co420 O430 2.021 . S
Co420 O432 2.137 . S
Co420 O433 2.244 . S
O421 Co420 2.216 . S
O421 C428 1.247 . S
O422 Co420 2.091 . S
O422 C428 1.261 . S
C423 O432 1.247 . S
C423 O433 1.272 . S
O424 Co420 2.004 . S
O424 C429 1.259 . S
Co425 O426 2.061 . S
Co425 O431 2.052 . S
Co425 O433 2.135 . S
O426 Co425 2.061 . S
O426 C429 1.235 . S
C427 O430 1.238 . S
C427 O431 1.241 . S
C428 O421 1.247 . S
C428 O422 1.261 . S
C429 O424 1.259 . S
C429 O426 1.235 . S
O430 Co420 2.021 . S
O430 C427 1.238 . S
O431 Co425 2.052 . S
O431 C427 1.241 . S
O432 Co420 2.137 . S
O432 C423 1.247 . S
O433 Co420 2.244 . S
O433 C423 1.272 . S
O433 Co425 2.135 . S
Co434 O435 2.216 . S
Co434 O436 2.091 . S
Co434 O438 2.004 . S
Co434 O444 2.021 . S
Co434 O446 2.137 . S
Co434 O447 2.244 . S
O435 Co434 2.216 . S
O435 C442 1.247 . S
O436 Co434 2.091 . S
O436 C442 1.261 . S
C437 O446 1.247 . S
C437 O447 1.272 . S
O438 Co434 2.004 . S
O438 C443 1.259 . S
Co439 O440 2.061 . S
Co439 O445 2.052 . S
Co439 O447 2.135 . S
O440 Co439 2.061 . S
O440 C443 1.235 . S
C441 O444 1.238 . S
C441 O445 1.241 . S
C442 O435 1.247 . S
C442 O436 1.261 . S
C443 O438 1.259 . S
C443 O440 1.235 . S
O444 Co434 2.021 . S
O444 C441 1.238 . S
O445 Co439 2.052 . S
O445 C441 1.241 . S
O446 Co434 2.137 . S
O446 C437 1.247 . S
O447 Co434 2.244 . S
O447 C437 1.272 . S
O447 Co439 2.135 . S
Co448 O449 2.216 . S
Co448 O450 2.091 . S
Co448 O452 2.004 . S
Co448 O458 2.021 . S
Co448 O460 2.137 . S
Co448 O461 2.244 . S
O449 Co448 2.216 . S
O449 C456 1.247 . S
O450 Co448 2.091 . S
O450 C456 1.261 . S
C451 O460 1.247 . S
C451 O461 1.272 . S
O452 Co448 2.004 . S
O452 C457 1.259 . S
Co453 O454 2.061 . S
Co453 O459 2.052 . S
Co453 O461 2.135 . S
O454 Co453 2.061 . S
O454 C457 1.235 . S
C455 O458 1.238 . S
C455 O459 1.241 . S
C456 O449 1.247 . S
C456 O450 1.261 . S
C457 O452 1.259 . S
C457 O454 1.235 . S
O458 Co448 2.021 . S
O458 C455 1.238 . S
O459 Co453 2.052 . S
O459 C455 1.241 . S
O460 Co448 2.137 . S
O460 C451 1.247 . S
O461 Co448 2.244 . S
O461 C451 1.272 . S
O461 Co453 2.135 . S
Co462 O463 2.216 . S
Co462 O464 2.091 . S
Co462 O466 2.004 . S
Co462 O472 2.021 . S
Co462 O474 2.137 . S
Co462 O475 2.244 . S
O463 Co462 2.216 . S
O463 C470 1.247 . S
O464 Co462 2.091 . S
O464 C470 1.261 . S
C465 O474 1.247 . S
C465 O475 1.272 . S
O466 Co462 2.004 . S
O466 C471 1.259 . S
Co467 O468 2.061 . S
Co467 O473 2.052 . S
Co467 O475 2.135 . S
O468 Co467 2.061 . S
O468 C471 1.235 . S
C469 O472 1.238 . S
C469 O473 1.241 . S
C470 O463 1.247 . S
C470 O464 1.261 . S
C471 O466 1.259 . S
C471 O468 1.235 . S
O472 Co462 2.021 . S
O472 C469 1.238 . S
O473 Co467 2.052 . S
O473 C469 1.241 . S
O474 Co462 2.137 . S
O474 C465 1.247 . S
O475 Co462 2.244 . S
O475 C465 1.272 . S
O475 Co467 2.135 . S
Co476 O477 2.216 . S
Co476 O478 2.091 . S
Co476 O480 2.004 . S
Co476 O486 2.021 . S
Co476 O488 2.137 . S
Co476 O489 2.244 . S
O477 Co476 2.216 . S
O477 C484 1.247 . S
O478 Co476 2.091 . S
O478 C484 1.261 . S
C479 O488 1.247 . S
C479 O489 1.272 . S
O480 Co476 2.004 . S
O480 C485 1.259 . S
Co481 O482 2.061 . S
Co481 O487 2.052 . S
Co481 O489 2.135 . S
O482 Co481 2.061 . S
O482 C485 1.235 . S
C483 O486 1.238 . S
C483 O487 1.241 . S
C484 O477 1.247 . S
C484 O478 1.261 . S
C485 O480 1.259 . S
C485 O482 1.235 . S
O486 Co476 2.021 . S
O486 C483 1.238 . S
O487 Co481 2.052 . S
O487 C483 1.241 . S
O488 Co476 2.137 . S
O488 C479 1.247 . S
O489 Co476 2.244 . S
O489 C479 1.272 . S
O489 Co481 2.135 . S
Co490 O491 2.216 . S
Co490 O492 2.091 . S
Co490 O494 2.004 . S
Co490 O500 2.021 . S
Co490 O502 2.137 . S
Co490 O503 2.244 . S
O491 Co490 2.216 . S
O491 C498 1.247 . S
O492 Co490 2.091 . S
O492 C498 1.261 . S
C493 O502 1.247 . S
C493 O503 1.272 . S
O494 Co490 2.004 . S
O494 C499 1.259 . S
Co495 O496 2.061 . S
Co495 O501 2.052 . S
Co495 O503 2.135 . S
O496 Co495 2.061 . S
O496 C499 1.235 . S
C497 O500 1.238 . S
C497 O501 1.241 . S
C498 O491 1.247 . S
C498 O492 1.261 . S
C499 O494 1.259 . S
C499 O496 1.235 . S
O500 Co490 2.021 . S
O500 C497 1.238 . S
O501 Co495 2.052 . S
O501 C497 1.241 . S
O502 Co490 2.137 . S
O502 C493 1.247 . S
O503 Co490 2.244 . S
O503 C493 1.272 . S
O503 Co495 2.135 . S
H504 C512 0.929 . S
H505 C514 0.930 . S
H506 C516 0.930 . S
H507 C519 0.929 . S
H508 C522 0.930 . S
H509 C524 0.960 . S
H510 C524 0.960 . S
H511 C524 0.960 . S
C512 H504 0.929 . S
C512 C513 1.377 . S
C512 C514 1.384 . S
C513 C512 1.377 . S
C513 C519 1.390 . S
C514 H505 0.930 . S
C514 C512 1.384 . S
C514 C515 1.372 . S
C515 C514 1.372 . S
C515 C516 1.400 . S
C515 C520 1.490 . S
C516 H506 0.930 . S
C516 C515 1.400 . S
C516 C519 1.386 . S
H517 C533 0.930 . S
H518 C534 0.931 . S
C519 H507 0.929 . S
C519 C513 1.390 . S
C519 C516 1.386 . S
C520 C515 1.490 . S
C520 C522 1.395 . S
C520 C523 1.403 . S
H521 C527 0.930 . S
C522 H508 0.930 . S
C522 C520 1.395 . S
C522 C525 1.403 . S
C523 C520 1.403 . S
C523 C524 1.524 . S
C523 C527 1.400 . S
C524 H509 0.960 . S
C524 H510 0.960 . S
C524 H511 0.960 . S
C524 C523 1.524 . S
C525 C522 1.403 . S
C525 C526 1.392 . S
C525 C529 1.495 . S
C526 C525 1.392 . S
C526 C527 1.385 . S
C526 C528 1.478 . S
C527 H521 0.930 . S
C527 C523 1.400 . S
C527 C526 1.385 . S
C528 C526 1.478 . S
C528 C530 1.381 . S
C528 C534 1.383 . S
C529 C525 1.495 . S
C529 H535 0.959 . S
C529 H536 0.961 . S
C529 H537 0.960 . S
C530 C528 1.381 . S
C530 C531 1.381 1_556 S
C530 H538 0.930 . S
C531 C530 1.381 1_554 S
C531 C532 1.377 1_554 S
C531 H539 0.949 . S
C532 C531 1.377 1_556 S
C532 C533 1.377 . S
C533 H517 0.930 . S
C533 C532 1.377 . S
C533 C534 1.379 . S
C534 H518 0.931 . S
C534 C528 1.383 . S
C534 C533 1.379 . S
H535 C529 0.959 . S
H536 C529 0.961 . S
H537 C529 0.960 . S
H538 C530 0.930 . S
H539 C531 0.949 . S
H540 C548 0.929 . S
H541 C550 0.930 . S
H542 C552 0.930 . S
H543 C555 0.929 . S
H544 C558 0.930 . S
H545 C560 0.960 . S
H546 C560 0.960 . S
H547 C560 0.960 . S
C548 H540 0.929 . S
C548 C549 1.377 . S
C548 C550 1.384 . S
C549 C548 1.377 . S
C549 C555 1.390 . S
C550 H541 0.930 . S
C550 C548 1.384 . S
C550 C551 1.372 . S
C551 C550 1.372 . S
C551 C552 1.400 . S
C551 C556 1.490 . S
C552 H542 0.930 . S
C552 C551 1.400 . S
C552 C555 1.386 . S
H553 C569 0.930 . S
H554 C570 0.931 . S
C555 H543 0.929 . S
C555 C549 1.390 . S
C555 C552 1.386 . S
C556 C551 1.490 . S
C556 C558 1.395 . S
C556 C559 1.403 . S
H557 C563 0.930 . S
C558 H544 0.930 . S
C558 C556 1.395 . S
C558 C561 1.403 . S
C559 C556 1.403 . S
C559 C560 1.524 . S
C559 C563 1.400 . S
C560 H545 0.960 . S
C560 H546 0.960 . S
C560 H547 0.960 . S
C560 C559 1.524 . S
C561 C558 1.403 . S
C561 C562 1.392 . S
C561 C565 1.495 . S
C562 C561 1.392 . S
C562 C563 1.385 . S
C562 C564 1.478 . S
C563 H557 0.930 . S
C563 C559 1.400 . S
C563 C562 1.385 . S
C564 C562 1.478 . S
C564 C566 1.381 . S
C564 C570 1.383 . S
C565 C561 1.495 . S
C565 H571 0.959 . S
C565 H572 0.961 . S
C565 H573 0.960 . S
C566 C564 1.381 . S
C566 C567 1.394 1_556 S
C566 H574 0.930 . S
C567 C566 1.394 1_554 S
C567 C568 1.383 1_554 S
C567 H575 0.929 . S
C568 C567 1.383 1_556 S
C568 C569 1.377 . S
C569 H553 0.930 . S
C569 C568 1.377 . S
C569 C570 1.379 . S
C570 H554 0.931 . S
C570 C564 1.383 . S
C570 C569 1.379 . S
H571 C565 0.959 . S
H572 C565 0.961 . S
H573 C565 0.960 . S
H574 C566 0.930 . S
H575 C567 0.929 . S
H576 C584 0.929 1_554 S
H577 C586 0.930 . S
H578 C588 0.930 . S
H579 C591 0.929 . S
H580 C594 0.930 . S
H581 C596 0.960 . S
H582 C596 0.960 . S
H583 C596 0.960 . S
C584 H576 0.929 1_556 S
C584 C585 1.377 . S
C584 C586 1.384 . S
C585 C584 1.377 . S
C585 C591 1.390 . S
C586 H577 0.930 . S
C586 C584 1.384 . S
C586 C587 1.372 . S
C587 C586 1.372 . S
C587 C588 1.400 . S
C587 C592 1.490 . S
C588 H578 0.930 . S
C588 C587 1.400 . S
C588 C591 1.386 . S
H589 C605 0.930 . S
H590 C606 0.931 . S
C591 H579 0.929 . S
C591 C585 1.390 . S
C591 C588 1.386 . S
C592 C587 1.490 . S
C592 C594 1.395 . S
C592 C595 1.403 . S
H593 C599 0.930 . S
C594 H580 0.930 . S
C594 C592 1.395 . S
C594 C597 1.403 . S
C595 C592 1.403 . S
C595 C596 1.524 . S
C595 C599 1.400 . S
C596 H581 0.960 . S
C596 H582 0.960 . S
C596 H583 0.960 . S
C596 C595 1.524 . S
C597 C594 1.403 . S
C597 C598 1.392 . S
C597 C601 1.495 . S
C598 C597 1.392 . S
C598 C599 1.385 . S
C598 C600 1.478 . S
C599 H593 0.930 . S
C599 C595 1.400 . S
C599 C598 1.385 . S
C600 C598 1.478 . S
C600 C602 1.381 . S
C600 C606 1.383 . S
C601 C597 1.495 . S
C601 H607 0.959 . S
C601 H608 0.961 . S
C601 H609 0.960 . S
C602 C600 1.381 . S
C602 C603 1.394 . S
C602 H610 0.930 . S
C603 C602 1.394 . S
C603 C604 1.383 . S
C603 H611 0.929 . S
C604 C603 1.383 . S
C604 C605 1.377 . S
C605 H589 0.930 . S
C605 C604 1.377 . S
C605 C606 1.379 . S
C606 H590 0.931 . S
C606 C600 1.383 . S
C606 C605 1.379 . S
H607 C601 0.959 . S
H608 C601 0.961 . S
H609 C601 0.960 . S
H610 C602 0.930 . S
H611 C603 0.929 . S
H612 C620 0.929 . S
H613 C622 0.930 . S
H614 C624 0.930 . S
H615 C627 0.929 . S
H616 C630 0.930 . S
H617 C632 0.960 . S
H618 C632 0.960 . S
H619 C632 0.960 . S
C620 H612 0.929 . S
C620 C621 1.377 . S
C620 C622 1.384 . S
C621 C620 1.377 . S
C621 C627 1.390 . S
C622 H613 0.930 . S
C622 C620 1.384 . S
C622 C623 1.372 . S
C623 C622 1.372 . S
C623 C624 1.400 . S
C623 C628 1.490 . S
C624 H614 0.930 . S
C624 C623 1.400 . S
C624 C627 1.386 . S
H625 C641 0.930 . S
H626 C642 0.931 . S
C627 H615 0.929 . S
C627 C621 1.390 . S
C627 C624 1.386 . S
C628 C623 1.490 . S
C628 C630 1.395 . S
C628 C631 1.403 . S
H629 C635 0.930 . S
C630 H616 0.930 . S
C630 C628 1.395 . S
C630 C633 1.403 . S
C631 C628 1.403 . S
C631 C632 1.524 . S
C631 C635 1.400 . S
C632 H617 0.960 . S
C632 H618 0.960 . S
C632 H619 0.960 . S
C632 C631 1.524 . S
C633 C630 1.403 . S
C633 C634 1.392 . S
C633 C637 1.495 . S
C634 C633 1.392 . S
C634 C635 1.385 . S
C634 C636 1.478 . S
C635 H629 0.930 . S
C635 C631 1.400 . S
C635 C634 1.385 . S
C636 C634 1.478 . S
C636 C638 1.381 . S
C636 C642 1.383 . S
C637 C633 1.495 . S
C637 H643 0.959 . S
C637 H644 0.961 . S
C637 H645 0.960 . S
C638 C636 1.381 . S
C638 C639 1.394 . S
C638 H646 0.930 . S
C639 C638 1.394 . S
C639 C640 1.383 . S
C639 H647 0.929 . S
C640 C639 1.383 . S
C640 C641 1.377 . S
C641 H625 0.930 . S
C641 C640 1.377 . S
C641 C642 1.379 . S
C642 H626 0.931 . S
C642 C636 1.383 . S
C642 C641 1.379 . S
H643 C637 0.959 . S
H644 C637 0.961 . S
H645 C637 0.960 . S
H646 C638 0.930 . S
H647 C639 0.929 . S
H648 C656 0.929 . S
H649 C658 0.930 . S
H650 C660 0.930 . S
H651 C663 0.929 . S
H652 C666 0.930 . S
H653 C668 0.960 . S
H654 C668 0.960 . S
H655 C668 0.960 . S
C656 H648 0.929 . S
C656 C657 1.377 . S
C656 C658 1.384 . S
C657 C656 1.377 . S
C657 C663 1.390 . S
C658 H649 0.930 . S
C658 C656 1.384 . S
C658 C659 1.372 . S
C659 C658 1.372 . S
C659 C660 1.400 . S
C659 C664 1.490 . S
C660 H650 0.930 . S
C660 C659 1.400 . S
C660 C663 1.386 . S
H661 C677 0.930 . S
H662 C678 0.931 . S
C663 H651 0.929 . S
C663 C657 1.390 . S
C663 C660 1.386 . S
C664 C659 1.490 . S
C664 C666 1.395 . S
C664 C667 1.403 . S
H665 C671 0.930 . S
C666 H652 0.930 . S
C666 C664 1.395 . S
C666 C669 1.403 . S
C667 C664 1.403 . S
C667 C668 1.524 . S
C667 C671 1.400 . S
C668 H653 0.960 . S
C668 H654 0.960 . S
C668 H655 0.960 . S
C668 C667 1.524 . S
C669 C666 1.403 . S
C669 C670 1.392 . S
C669 C673 1.495 . S
C670 C669 1.392 . S
C670 C671 1.385 . S
C670 C672 1.478 . S
C671 H665 0.930 . S
C671 C667 1.400 . S
C671 C670 1.385 . S
C672 C670 1.478 . S
C672 C674 1.381 . S
C672 C678 1.383 . S
C673 C669 1.495 . S
C673 H679 0.959 . S
C673 H680 0.961 . S
C673 H681 0.960 . S
C674 C672 1.381 . S
C674 C675 1.394 . S
C674 H682 0.930 . S
C675 C674 1.394 . S
C675 C676 1.383 . S
C675 H683 0.929 . S
C676 C675 1.383 . S
C676 C677 1.377 . S
C677 H661 0.930 . S
C677 C676 1.377 . S
C677 C678 1.379 . S
C678 H662 0.931 . S
C678 C672 1.383 . S
C678 C677 1.379 . S
H679 C673 0.959 . S
H680 C673 0.961 . S
H681 C673 0.960 . S
H682 C674 0.930 . S
H683 C675 0.929 . S
H684 C692 0.929 . S
H685 C694 0.930 . S
H686 C696 0.930 . S
H687 C699 0.929 . S
H688 C702 0.930 . S
H689 C704 0.960 . S
H690 C704 0.960 . S
H691 C704 0.960 . S
C692 H684 0.929 . S
C692 C693 1.377 . S
C692 C694 1.384 . S
C693 C692 1.377 . S
C693 C699 1.390 . S
C694 H685 0.930 . S
C694 C692 1.384 . S
C694 C695 1.372 . S
C695 C694 1.372 . S
C695 C696 1.400 . S
C695 C700 1.490 . S
C696 H686 0.930 . S
C696 C695 1.400 . S
C696 C699 1.386 . S
H697 C713 0.930 . S
H698 C714 0.931 . S
C699 H687 0.929 . S
C699 C693 1.390 . S
C699 C696 1.386 . S
C700 C695 1.490 . S
C700 C702 1.395 . S
C700 C703 1.403 . S
H701 C707 0.930 . S
C702 H688 0.930 . S
C702 C700 1.395 . S
C702 C705 1.403 . S
C703 C700 1.403 . S
C703 C704 1.524 . S
C703 C707 1.400 . S
C704 H689 0.960 . S
C704 H690 0.960 . S
C704 H691 0.960 . S
C704 C703 1.524 . S
C705 C702 1.403 . S
C705 C706 1.392 . S
C705 C709 1.495 . S
C706 C705 1.392 . S
C706 C707 1.385 . S
C706 C708 1.478 . S
C707 H701 0.930 . S
C707 C703 1.400 . S
C707 C706 1.385 . S
C708 C706 1.478 . S
C708 C710 1.381 . S
C708 C714 1.383 . S
C709 C705 1.495 . S
C709 H715 0.959 . S
C709 H716 0.961 . S
C709 H717 0.960 . S
C710 C708 1.381 . S
C710 C711 1.394 . S
C710 H718 0.930 . S
C711 C710 1.394 . S
C711 C712 1.383 . S
C711 H719 0.929 . S
C712 C711 1.383 . S
C712 C713 1.377 . S
C713 H697 0.930 . S
C713 C712 1.377 . S
C713 C714 1.379 . S
C714 H698 0.931 . S
C714 C708 1.383 . S
C714 C713 1.379 . S
H715 C709 0.959 . S
H716 C709 0.961 . S
H717 C709 0.960 . S
H718 C710 0.930 . S
H719 C711 0.929 . S
H720 C728 0.929 . S
H721 C730 0.930 . S
H722 C732 0.930 . S
H723 C735 0.929 . S
H724 C738 0.930 . S
H725 C740 0.960 . S
H726 C740 0.960 . S
H727 C740 0.960 . S
C728 H720 0.929 . S
C728 C729 1.377 . S
C728 C730 1.384 . S
C729 C728 1.377 . S
C729 C735 1.390 . S
C730 H721 0.930 . S
C730 C728 1.384 . S
C730 C731 1.372 . S
C731 C730 1.372 . S
C731 C732 1.400 . S
C731 C736 1.490 . S
C732 H722 0.930 . S
C732 C731 1.400 . S
C732 C735 1.386 . S
H733 C749 0.930 . S
H734 C750 0.931 . S
C735 H723 0.929 . S
C735 C729 1.390 . S
C735 C732 1.386 . S
C736 C731 1.490 . S
C736 C738 1.395 . S
C736 C739 1.403 . S
H737 C743 0.930 . S
C738 H724 0.930 . S
C738 C736 1.395 . S
C738 C741 1.403 . S
C739 C736 1.403 . S
C739 C740 1.524 . S
C739 C743 1.400 . S
C740 H725 0.960 . S
C740 H726 0.960 . S
C740 H727 0.960 . S
C740 C739 1.524 . S
C741 C738 1.403 . S
C741 C742 1.392 . S
C741 C745 1.495 . S
C742 C741 1.392 . S
C742 C743 1.385 . S
C742 C744 1.478 . S
C743 H737 0.930 . S
C743 C739 1.400 . S
C743 C742 1.385 . S
C744 C742 1.478 . S
C744 C746 1.381 . S
C744 C750 1.383 . S
C745 C741 1.495 . S
C745 H751 0.959 . S
C745 H752 0.961 . S
C745 H753 0.960 . S
C746 C744 1.381 . S
C746 C747 1.394 1_554 S
C746 H754 0.930 . S
C747 C746 1.394 1_556 S
C747 C748 1.383 1_556 S
C747 H755 0.929 . S
C748 C747 1.383 1_554 S
C748 C749 1.377 . S
C749 H733 0.930 . S
C749 C748 1.377 . S
C749 C750 1.379 . S
C750 H734 0.931 . S
C750 C744 1.383 . S
C750 C749 1.379 . S
H751 C745 0.959 . S
H752 C745 0.961 . S
H753 C745 0.960 . S
H754 C746 0.930 . S
H755 C747 0.929 . S
H756 C764 0.929 . S
H757 C766 0.930 . S
H758 C768 0.930 . S
H759 C771 0.929 . S
H760 C774 0.930 . S
H761 C776 0.960 . S
H762 C776 0.960 . S
H763 C776 0.960 . S
C764 H756 0.929 . S
C764 C765 1.377 . S
C764 C766 1.384 . S
C765 C764 1.377 . S
C765 C771 1.390 . S
C766 H757 0.930 . S
C766 C764 1.384 . S
C766 C767 1.372 . S
C767 C766 1.372 . S
C767 C768 1.400 . S
C767 C772 1.490 . S
C768 H758 0.930 . S
C768 C767 1.400 . S
C768 C771 1.386 . S
H769 C785 0.930 . S
H770 C786 0.931 . S
C771 H759 0.929 . S
C771 C765 1.390 . S
C771 C768 1.386 . S
C772 C767 1.490 . S
C772 C774 1.395 . S
C772 C775 1.403 . S
H773 C779 0.930 . S
C774 H760 0.930 . S
C774 C772 1.395 . S
C774 C777 1.403 . S
C775 C772 1.403 . S
C775 C776 1.524 . S
C775 C779 1.400 . S
C776 H761 0.960 . S
C776 H762 0.960 . S
C776 H763 0.960 . S
C776 C775 1.524 . S
C777 C774 1.403 . S
C777 C778 1.392 . S
C777 C781 1.495 . S
C778 C777 1.392 . S
C778 C779 1.385 . S
C778 C780 1.478 . S
C779 H773 0.930 . S
C779 C775 1.400 . S
C779 C778 1.385 . S
C780 C778 1.478 . S
C780 C782 1.381 . S
C780 C786 1.383 . S
C781 C777 1.495 . S
C781 H787 0.959 . S
C781 H788 0.961 . S
C781 H789 0.960 . S
C782 C780 1.381 . S
C782 C783 1.394 . S
C782 H790 0.930 . S
C783 C782 1.394 . S
C783 C784 1.383 . S
C783 H791 0.929 1_554 S
C784 C783 1.383 . S
C784 C785 1.377 . S
C785 H769 0.930 . S
C785 C784 1.377 . S
C785 C786 1.379 . S
C786 H770 0.931 . S
C786 C780 1.383 . S
C786 C785 1.379 . S
H787 C781 0.959 . S
H788 C781 0.961 . S
H789 C781 0.960 . S
H790 C782 0.930 . S
H791 C783 0.929 1_556 S
H792 C800 0.929 . S
H793 C802 0.930 . S
H794 C804 0.930 . S
H795 C807 0.929 . S
H796 C810 0.930 . S
H797 C812 0.960 . S
H798 C812 0.960 . S
H799 C812 0.960 . S
C800 H792 0.929 . S
C800 C801 1.377 . S
C800 C802 1.384 . S
C801 C800 1.377 . S
C801 C807 1.390 . S
C802 H793 0.930 . S
C802 C800 1.384 . S
C802 C803 1.372 . S
C803 C802 1.372 . S
C803 C804 1.400 . S
C803 C808 1.490 . S
C804 H794 0.930 . S
C804 C803 1.400 . S
C804 C807 1.386 . S
H805 C821 0.930 1_556 S
H806 C822 0.931 . S
C807 H795 0.929 . S
C807 C801 1.390 . S
C807 C804 1.386 . S
C808 C803 1.490 . S
C808 C810 1.395 . S
C808 C811 1.403 . S
H809 C815 0.930 . S
C810 H796 0.930 . S
C810 C808 1.395 . S
C810 C813 1.403 . S
C811 C808 1.403 . S
C811 C812 1.524 . S
C811 C815 1.400 . S
C812 H797 0.960 . S
C812 H798 0.960 . S
C812 H799 0.960 . S
C812 C811 1.524 . S
C813 C810 1.403 . S
C813 C814 1.392 . S
C813 C817 1.495 . S
C814 C813 1.392 . S
C814 C815 1.385 . S
C814 C816 1.478 . S
C815 H809 0.930 . S
C815 C811 1.400 . S
C815 C814 1.385 . S
C816 C814 1.478 . S
C816 C818 1.381 . S
C816 C822 1.383 . S
C817 C813 1.495 . S
C817 H823 0.959 . S
C817 H824 0.961 . S
C817 H825 0.960 . S
C818 C816 1.381 . S
C818 C819 1.394 . S
C818 H826 0.930 . S
C819 C818 1.394 . S
C819 C820 1.383 . S
C819 H827 0.929 . S
C820 C819 1.383 . S
C820 C821 1.377 . S
C821 H805 0.930 1_554 S
C821 C820 1.377 . S
C821 C822 1.379 . S
C822 H806 0.931 . S
C822 C816 1.383 . S
C822 C821 1.379 . S
H823 C817 0.959 . S
H824 C817 0.961 . S
H825 C817 0.960 . S
H826 C818 0.930 . S
H827 C819 0.929 . S
H828 C836 0.929 . S
H829 C838 0.930 . S
H830 C840 0.930 . S
H831 C843 0.929 . S
H832 C846 0.930 . S
H833 C848 0.960 . S
H834 C848 0.960 . S
H835 C848 0.960 . S
C836 H828 0.929 . S
C836 C837 1.377 . S
C836 C838 1.384 . S
C837 C836 1.377 . S
C837 C843 1.390 . S
C838 H829 0.930 . S
C838 C836 1.384 . S
C838 C839 1.372 . S
C839 C838 1.372 . S
C839 C840 1.400 . S
C839 C844 1.490 . S
C840 H830 0.930 . S
C840 C839 1.400 . S
C840 C843 1.386 . S
H841 C857 0.930 . S
H842 C858 0.931 . S
C843 H831 0.929 . S
C843 C837 1.390 . S
C843 C840 1.386 . S
C844 C839 1.490 . S
C844 C846 1.395 . S
C844 C847 1.403 . S
H845 C851 0.930 . S
C846 H832 0.930 . S
C846 C844 1.395 . S
C846 C849 1.403 . S
C847 C844 1.403 . S
C847 C848 1.524 . S
C847 C851 1.400 . S
C848 H833 0.960 . S
C848 H834 0.960 . S
C848 H835 0.960 . S
C848 C847 1.524 . S
C849 C846 1.403 . S
C849 C850 1.392 . S
C849 C853 1.495 . S
C850 C849 1.392 . S
C850 C851 1.385 . S
C850 C852 1.478 . S
C851 H845 0.930 . S
C851 C847 1.400 . S
C851 C850 1.385 . S
C852 C850 1.478 . S
C852 C854 1.381 . S
C852 C858 1.383 . S
C853 C849 1.495 . S
C853 H859 0.959 . S
C853 H860 0.961 . S
C853 H861 0.960 . S
C854 C852 1.381 . S
C854 C855 1.394 . S
C854 H862 0.930 . S
C855 C854 1.394 . S
C855 C856 1.383 . S
C855 H863 0.929 . S
C856 C855 1.383 . S
C856 C857 1.377 . S
C857 H841 0.930 . S
C857 C856 1.377 . S
C857 C858 1.379 . S
C858 H842 0.931 . S
C858 C852 1.383 . S
C858 C857 1.379 . S
H859 C853 0.959 . S
H860 C853 0.961 . S
H861 C853 0.960 . S
H862 C854 0.930 . S
H863 C855 0.929 . S
H864 C872 0.929 . S
H865 C874 0.930 . S
H866 C876 0.930 . S
H867 C879 0.929 . S
H868 C882 0.930 . S
H869 C884 0.960 . S
H870 C884 0.960 . S
H871 C884 0.960 . S
C872 H864 0.929 . S
C872 C873 1.377 . S
C872 C874 1.384 . S
C873 C872 1.377 . S
C873 C879 1.390 . S
C874 H865 0.930 . S
C874 C872 1.384 . S
C874 C875 1.372 . S
C875 C874 1.372 . S
C875 C876 1.400 . S
C875 C880 1.490 . S
C876 H866 0.930 . S
C876 C875 1.400 . S
C876 C879 1.386 . S
H877 C893 0.930 . S
H878 C894 0.931 . S
C879 H867 0.929 . S
C879 C873 1.390 . S
C879 C876 1.386 . S
C880 C875 1.490 . S
C880 C882 1.395 . S
C880 C883 1.403 . S
H881 C887 0.930 . S
C882 H868 0.930 . S
C882 C880 1.395 . S
C882 C885 1.403 . S
C883 C880 1.403 . S
C883 C884 1.524 . S
C883 C887 1.400 . S
C884 H869 0.960 . S
C884 H870 0.960 . S
C884 H871 0.960 . S
C884 C883 1.524 . S
C885 C882 1.403 . S
C885 C886 1.392 . S
C885 C889 1.495 . S
C886 C885 1.392 . S
C886 C887 1.385 . S
C886 C888 1.478 . S
C887 H881 0.930 . S
C887 C883 1.400 . S
C887 C886 1.385 . S
C888 C886 1.478 . S
C888 C890 1.381 . S
C888 C894 1.383 . S
C889 C885 1.495 . S
C889 H895 0.959 . S
C889 H896 0.961 . S
C889 H897 0.960 . S
C890 C888 1.381 . S
C890 C891 1.394 . S
C890 H898 0.930 . S
C891 C890 1.394 . S
C891 C892 1.383 . S
C891 H899 0.929 . S
C892 C891 1.383 . S
C892 C893 1.377 . S
C893 H877 0.930 . S
C893 C892 1.377 . S
C893 C894 1.379 . S
C894 H878 0.931 . S
C894 C888 1.383 . S
C894 C893 1.379 . S
H895 C889 0.959 . S
H896 C889 0.961 . S
H897 C889 0.960 . S
H898 C890 0.930 . S
H899 C891 0.929 . S
H900 C908 0.929 . S
H901 C910 0.930 . S
H902 C912 0.930 . S
H903 C915 0.929 . S
H904 C918 0.930 . S
H905 C920 0.960 . S
H906 C920 0.960 . S
H907 C920 0.960 . S
C908 H900 0.929 . S
C908 C909 1.377 . S
C908 C910 1.384 . S
C909 C908 1.377 . S
C909 C915 1.390 . S
C910 H901 0.930 . S
C910 C908 1.384 . S
C910 C911 1.372 . S
C911 C910 1.372 . S
C911 C912 1.400 . S
C911 C916 1.490 . S
C912 H902 0.930 . S
C912 C911 1.400 . S
C912 C915 1.386 . S
H913 C929 0.930 . S
H914 C930 0.931 . S
C915 H903 0.929 . S
C915 C909 1.390 . S
C915 C912 1.386 . S
C916 C911 1.490 . S
C916 C918 1.395 . S
C916 C919 1.403 . S
H917 C923 0.930 . S
C918 H904 0.930 . S
C918 C916 1.395 . S
C918 C921 1.403 . S
C919 C916 1.403 . S
C919 C920 1.524 . S
C919 C923 1.400 . S
C920 H905 0.960 . S
C920 H906 0.960 . S
C920 H907 0.960 . S
C920 C919 1.524 . S
C921 C918 1.403 . S
C921 C922 1.392 . S
C921 C925 1.495 . S
C922 C921 1.392 . S
C922 C923 1.385 . S
C922 C924 1.478 . S
C923 H917 0.930 . S
C923 C919 1.400 . S
C923 C922 1.385 . S
C924 C922 1.478 . S
C924 C926 1.381 . S
C924 C930 1.383 . S
C925 C921 1.495 . S
C925 H931 0.959 . S
C925 H932 0.961 . S
C925 H933 0.960 . S
C926 C924 1.381 . S
C926 C927 1.394 . S
C926 H934 0.930 . S
C927 C926 1.394 . S
C927 C928 1.383 . S
C927 H935 0.929 . S
C928 C927 1.383 . S
C928 C929 1.377 . S
C929 H913 0.930 . S
C929 C928 1.377 . S
C929 C930 1.379 . S
C930 H914 0.931 . S
C930 C924 1.383 . S
C930 C929 1.379 . S
H931 C925 0.959 . S
H932 C925 0.961 . S
H933 C925 0.960 . S
H934 C926 0.930 . S
H935 C927 0.929 . S
H936 C944 0.929 . S
H937 C946 0.930 . S
H938 C948 0.930 . S
H939 C951 0.929 . S
H940 C954 0.930 . S
H941 C956 0.960 . S
H942 C956 0.960 . S
H943 C956 0.960 . S
C944 H936 0.929 . S
C944 C945 1.377 . S
C944 C946 1.384 . S
C945 C944 1.377 . S
C945 C951 1.390 . S
C946 H937 0.930 . S
C946 C944 1.384 . S
C946 C947 1.372 . S
C947 C946 1.372 . S
C947 C948 1.400 . S
C947 C952 1.490 . S
C948 H938 0.930 . S
C948 C947 1.400 . S
C948 C951 1.386 . S
H949 C965 0.930 . S
H950 C966 0.931 . S
C951 H939 0.929 . S
C951 C945 1.390 . S
C951 C948 1.386 . S
C952 C947 1.490 . S
C952 C954 1.395 1_455 S
C952 C955 1.403 . S
H953 C959 0.935 1_455 S
C954 H940 0.930 . S
C954 C952 1.395 1_655 S
C954 C957 1.403 . S
C955 C952 1.403 . S
C955 C956 1.524 . S
C955 C959 1.392 1_455 S
C956 H941 0.960 . S
C956 H942 0.960 . S
C956 H943 0.960 . S
C956 C955 1.524 . S
C957 C954 1.403 . S
C957 C958 1.392 . S
C957 C961 1.495 . S
C958 C957 1.392 . S
C958 C959 1.392 . S
C958 C960 1.478 . S
C959 H953 0.935 1_655 S
C959 C955 1.392 1_655 S
C959 C958 1.392 . S
C960 C958 1.478 . S
C960 C962 1.381 . S
C960 C966 1.383 . S
C961 C957 1.495 . S
C961 H967 0.959 . S
C961 H968 0.961 . S
C961 H969 0.960 . S
C962 C960 1.381 . S
C962 C963 1.394 . S
C962 H970 0.930 . S
C963 C962 1.394 . S
C963 C964 1.383 . S
C963 H971 0.929 . S
C964 C963 1.383 . S
C964 C965 1.377 . S
C965 H949 0.930 . S
C965 C964 1.377 . S
C965 C966 1.379 . S
C966 H950 0.931 . S
C966 C960 1.383 . S
C966 C965 1.379 . S
H967 C961 0.959 . S
H968 C961 0.961 . S
H969 C961 0.960 . S
H970 C962 0.930 . S
H971 C963 0.929 . S
H972 C980 0.929 . S
H973 C982 0.930 . S
H974 C984 0.930 . S
H975 C987 0.929 . S
H976 C990 0.930 . S
H977 C992 0.960 . S
H978 C992 0.960 . S
H979 C992 0.960 . S
C980 H972 0.929 . S
C980 C981 1.377 . S
C980 C982 1.384 . S
C981 C980 1.377 . S
C981 C987 1.390 . S
C982 H973 0.930 . S
C982 C980 1.384 . S
C982 C983 1.372 . S
C983 C982 1.372 . S
C983 C984 1.400 . S
C983 C988 1.490 . S
C984 H974 0.930 . S
C984 C983 1.400 . S
C984 C987 1.386 . S
H985 C1001 0.930 . S
H986 C1002 0.931 . S
C987 H975 0.929 . S
C987 C981 1.390 . S
C987 C984 1.386 . S
C988 C983 1.490 . S
C988 C990 1.395 . S
C988 C991 1.403 . S
H989 C995 0.930 . S
C990 H976 0.930 . S
C990 C988 1.395 . S
C990 C993 1.403 . S
C991 C988 1.403 . S
C991 C992 1.524 . S
C991 C995 1.400 . S
C992 H977 0.960 . S
C992 H978 0.960 . S
C992 H979 0.960 . S
C992 C991 1.524 . S
C993 C990 1.403 . S
C993 C994 1.392 . S
C993 C997 1.495 . S
C994 C993 1.392 . S
C994 C995 1.385 . S
C994 C996 1.478 . S
C995 H989 0.930 . S
C995 C991 1.400 . S
C995 C994 1.385 . S
C996 C994 1.478 . S
C996 C998 1.381 . S
C996 C1002 1.383 . S
C997 C993 1.495 . S
C997 H1003 0.959 . S
C997 H1004 0.961 . S
C997 H1005 0.960 . S
C998 C996 1.381 . S
C998 C999 1.394 . S
C998 H1006 0.930 . S
C999 C998 1.394 . S
C999 C1000 1.383 . S
C999 H1007 0.929 . S
C1000 C999 1.383 . S
C1000 C1001 1.377 . S
C1001 H985 0.930 . S
C1001 C1000 1.377 . S
C1001 C1002 1.379 . S
C1002 H986 0.931 . S
C1002 C996 1.383 . S
C1002 C1001 1.379 . S
H1003 C997 0.959 . S
H1004 C997 0.961 . S
H1005 C997 0.960 . S
H1006 C998 0.930 . S
H1007 C999 0.929 . S
H1008 C1016 0.929 . S
H1009 C1018 0.930 . S
H1010 C1020 0.930 . S
H1011 C1023 0.929 . S
H1012 C1026 0.930 . S
H1013 C1028 0.960 . S
H1014 C1028 0.960 . S
H1015 C1028 0.960 1_565 S
C1016 H1008 0.929 . S
C1016 C1017 1.377 . S
C1016 C1018 1.384 . S
C1017 C1016 1.377 . S
C1017 C1023 1.390 . S
C1018 H1009 0.930 . S
C1018 C1016 1.384 . S
C1018 C1019 1.372 . S
C1019 C1018 1.372 . S
C1019 C1020 1.400 . S
C1019 C1024 1.490 . S
C1020 H1010 0.930 . S
C1020 C1019 1.400 . S
C1020 C1023 1.386 . S
H1021 C1037 0.930 . S
H1022 C1038 0.931 . S
C1023 H1011 0.929 . S
C1023 C1017 1.390 . S
C1023 C1020 1.386 . S
C1024 C1019 1.490 . S
C1024 C1026 1.395 . S
C1024 C1027 1.403 1_565 S
H1025 C1031 0.930 . S
C1026 H1012 0.930 . S
C1026 C1024 1.395 . S
C1026 C1029 1.403 . S
C1027 C1024 1.403 1_545 S
C1027 C1028 1.524 . S
C1027 C1031 1.400 . S
C1028 H1013 0.960 . S
C1028 H1014 0.960 . S
C1028 H1015 0.960 1_545 S
C1028 C1027 1.524 . S
C1029 C1026 1.403 . S
C1029 C1030 1.392 1_565 S
C1029 C1033 1.495 . S
C1030 C1029 1.392 1_545 S
C1030 C1031 1.385 . S
C1030 C1032 1.478 . S
C1031 H1025 0.930 . S
C1031 C1027 1.400 . S
C1031 C1030 1.385 . S
C1032 C1030 1.478 . S
C1032 C1034 1.381 . S
C1032 C1038 1.383 . S
C1033 C1029 1.495 . S
C1033 H1039 0.959 . S
C1033 H1040 0.961 . S
C1033 H1041 0.960 1_565 S
C1034 C1032 1.381 . S
C1034 C1035 1.394 . S
C1034 H1042 0.930 . S
C1035 C1034 1.394 . S
C1035 C1036 1.383 . S
C1035 H1043 0.929 . S
C1036 C1035 1.383 . S
C1036 C1037 1.377 . S
C1037 H1021 0.930 . S
C1037 C1036 1.377 . S
C1037 C1038 1.379 . S
C1038 H1022 0.931 . S
C1038 C1032 1.383 . S
C1038 C1037 1.379 . S
H1039 C1033 0.959 . S
H1040 C1033 0.961 . S
H1041 C1033 0.960 1_545 S
H1042 C1034 0.930 . S
H1043 C1035 0.929 . S
H1044 C1052 0.929 . S
H1045 C1054 0.930 . S
H1046 C1056 0.930 . S
H1047 C1059 0.929 . S
H1048 C1062 0.930 . S
H1049 C1064 0.960 . S
H1050 C1064 0.960 1_565 S
H1051 C1064 0.960 . S
C1052 H1044 0.929 . S
C1052 C1053 1.377 . S
C1052 C1054 1.384 . S
C1053 C1052 1.377 . S
C1053 C1059 1.390 . S
C1054 H1045 0.930 . S
C1054 C1052 1.384 . S
C1054 C1055 1.372 . S
C1055 C1054 1.372 . S
C1055 C1056 1.400 . S
C1055 C1060 1.490 . S
C1056 H1046 0.930 . S
C1056 C1055 1.400 . S
C1056 C1059 1.386 . S
H1057 C1073 0.930 . S
H1058 C1074 0.931 . S
C1059 H1047 0.929 . S
C1059 C1053 1.390 . S
C1059 C1056 1.386 . S
C1060 C1055 1.490 . S
C1060 C1062 1.395 . S
C1060 C1063 1.403 1_565 S
H1061 C1067 0.930 . S
C1062 H1048 0.930 . S
C1062 C1060 1.395 . S
C1062 C1065 1.403 . S
C1063 C1060 1.403 1_545 S
C1063 C1064 1.524 . S
C1063 C1067 1.400 . S
C1064 H1049 0.960 . S
C1064 H1050 0.960 1_545 S
C1064 H1051 0.960 . S
C1064 C1063 1.524 . S
C1065 C1062 1.403 . S
C1065 C1066 1.392 1_565 S
C1065 C1069 1.495 . S
C1066 C1065 1.392 1_545 S
C1066 C1067 1.385 . S
C1066 C1068 1.478 . S
C1067 H1061 0.930 . S
C1067 C1063 1.400 . S
C1067 C1066 1.385 . S
C1068 C1066 1.478 . S
C1068 C1070 1.381 . S
C1068 C1074 1.383 . S
C1069 C1065 1.495 . S
C1069 H1075 0.959 . S
C1069 H1076 0.964 . S
C1069 H1077 0.960 . S
C1070 C1068 1.381 . S
C1070 C1071 1.394 . S
C1070 H1078 0.930 . S
C1071 C1070 1.394 . S
C1071 C1072 1.383 . S
C1071 H1079 0.929 . S
C1072 C1071 1.383 . S
C1072 C1073 1.377 . S
C1073 H1057 0.930 . S
C1073 C1072 1.377 . S
C1073 C1074 1.379 . S
C1074 H1058 0.931 . S
C1074 C1068 1.383 . S
C1074 C1073 1.379 . S
H1075 C1069 0.959 . S
H1076 C1069 0.964 . S
H1077 C1069 0.960 . S
H1078 C1070 0.930 . S
H1079 C1071 0.929 . S
H1080 C1088 0.929 . S
H1081 C1090 0.930 . S
H1082 C1092 0.930 . S
H1083 C1095 0.929 . S
H1084 C1098 0.930 . S
H1085 C1100 0.960 . S
H1086 C1100 0.960 . S
H1087 C1100 0.960 1_455 S
C1088 H1080 0.929 . S
C1088 C1089 1.377 . S
C1088 C1090 1.384 . S
C1089 C1088 1.377 . S
C1089 C1095 1.390 . S
C1090 H1081 0.930 . S
C1090 C1088 1.384 . S
C1090 C1091 1.372 . S
C1091 C1090 1.372 . S
C1091 C1092 1.400 . S
C1091 C1096 1.490 . S
C1092 H1082 0.930 . S
C1092 C1091 1.400 . S
C1092 C1095 1.386 . S
H1093 C1109 0.930 . S
H1094 C1110 0.931 . S
C1095 H1083 0.929 . S
C1095 C1089 1.390 . S
C1095 C1092 1.386 . S
C1096 C1091 1.490 . S
C1096 C1098 1.395 . S
C1096 C1099 1.403 1_455 S
H1097 C1103 0.930 . S
C1098 H1084 0.930 . S
C1098 C1096 1.395 . S
C1098 C1101 1.403 . S
C1099 C1096 1.403 1_655 S
C1099 C1100 1.524 . S
C1099 C1103 1.400 . S
C1100 H1085 0.960 . S
C1100 H1086 0.960 . S
C1100 H1087 0.960 1_655 S
C1100 C1099 1.524 . S
C1101 C1098 1.403 . S
C1101 C1102 1.392 1_455 S
C1101 C1105 1.495 . S
C1102 C1101 1.392 1_655 S
C1102 C1103 1.385 . S
C1102 C1104 1.478 . S
C1103 H1097 0.930 . S
C1103 C1099 1.400 . S
C1103 C1102 1.385 . S
C1104 C1102 1.478 . S
C1104 C1106 1.381 . S
C1104 C1110 1.383 . S
C1105 C1101 1.495 . S
C1105 H1111 0.959 . S
C1105 H1112 0.961 . S
C1105 H1113 0.960 1_455 S
C1106 C1104 1.381 . S
C1106 C1107 1.394 . S
C1106 H1114 0.930 . S
C1107 C1106 1.394 . S
C1107 C1108 1.383 . S
C1107 H1115 0.929 . S
C1108 C1107 1.383 . S
C1108 C1109 1.377 . S
C1109 H1093 0.930 . S
C1109 C1108 1.377 . S
C1109 C1110 1.379 . S
C1110 H1094 0.931 . S
C1110 C1104 1.383 . S
C1110 C1109 1.379 . S
H1111 C1105 0.959 . S
H1112 C1105 0.961 . S
H1113 C1105 0.960 1_655 S
H1114 C1106 0.930 . S
H1115 C1107 0.929 . S
H1116 C1124 0.929 . S
H1117 C1126 0.930 . S
H1118 C1128 0.930 . S
H1119 C1131 0.929 . S
H1120 C1134 0.930 . S
H1121 C1136 0.960 . S
H1122 C1136 0.960 . S
H1123 C1136 0.960 . S
C1124 H1116 0.929 . S
C1124 C1125 1.377 . S
C1124 C1126 1.384 . S
C1125 C1124 1.377 . S
C1125 C1131 1.390 . S
C1126 H1117 0.930 . S
C1126 C1124 1.384 . S
C1126 C1127 1.372 . S
C1127 C1126 1.372 . S
C1127 C1128 1.400 . S
C1127 C1132 1.490 . S
C1128 H1118 0.930 . S
C1128 C1127 1.400 . S
C1128 C1131 1.386 . S
H1129 C1145 0.930 . S
H1130 C1146 0.931 . S
C1131 H1119 0.929 . S
C1131 C1125 1.390 . S
C1131 C1128 1.386 . S
C1132 C1127 1.490 . S
C1132 C1134 1.395 . S
C1132 C1135 1.403 . S
H1133 C1139 0.930 . S
C1134 H1120 0.930 . S
C1134 C1132 1.395 . S
C1134 C1137 1.403 . S
C1135 C1132 1.403 . S
C1135 C1136 1.524 . S
C1135 C1139 1.400 . S
C1136 H1121 0.960 . S
C1136 H1122 0.960 . S
C1136 H1123 0.960 . S
C1136 C1135 1.524 . S
C1137 C1134 1.403 . S
C1137 C1138 1.392 . S
C1137 C1141 1.495 . S
C1138 C1137 1.392 . S
C1138 C1139 1.385 . S
C1138 C1140 1.478 . S
C1139 H1133 0.930 . S
C1139 C1135 1.400 . S
C1139 C1138 1.385 . S
C1140 C1138 1.478 . S
C1140 C1142 1.381 . S
C1140 C1146 1.383 . S
C1141 C1137 1.495 . S
C1141 H1147 0.959 . S
C1141 H1148 0.961 . S
C1141 H1149 0.960 . S
C1142 C1140 1.381 . S
C1142 C1143 1.394 . S
C1142 H1150 0.930 . S
C1143 C1142 1.394 . S
C1143 C1144 1.383 . S
C1143 H1151 0.929 . S
C1144 C1143 1.383 . S
C1144 C1145 1.377 . S
C1145 H1129 0.930 . S
C1145 C1144 1.377 . S
C1145 C1146 1.379 . S
C1146 H1130 0.931 . S
C1146 C1140 1.383 . S
C1146 C1145 1.379 . S
H1147 C1141 0.959 . S
H1148 C1141 0.961 . S
H1149 C1141 0.960 . S
H1150 C1142 0.930 . S
H1151 C1143 0.929 . S
H1152 C1160 0.929 . S
H1153 C1162 0.930 . S
H1154 C1164 0.930 . S
H1155 C1167 0.929 . S
H1156 C1170 0.930 . S
H1157 C1172 0.960 . S
H1158 C1172 0.960 1_554 S
H1159 C1172 0.960 . S
C1160 H1152 0.929 . S
C1160 C1161 1.377 1_554 S
C1160 C1162 1.384 . S
C1161 C1160 1.377 1_556 S
C1161 C1167 1.390 . S
C1162 H1153 0.930 . S
C1162 C1160 1.384 . S
C1162 C1163 1.372 1_554 S
C1163 C1162 1.372 1_556 S
C1163 C1164 1.400 . S
C1163 C1168 1.489 . S
C1164 H1154 0.930 . S
C1164 C1163 1.400 . S
C1164 C1167 1.386 . S
H1165 C1181 0.930 1_556 S
H1166 C1182 0.931 1_556 S
C1167 H1155 0.929 . S
C1167 C1161 1.390 . S
C1167 C1164 1.386 . S
C1168 C1163 1.489 . S
C1168 C1170 1.396 1_556 S
C1168 C1171 1.402 . S
H1169 C1175 0.930 . S
C1170 H1156 0.930 . S
C1170 C1168 1.396 1_554 S
C1170 C1173 1.403 . S
C1171 C1168 1.402 . S
C1171 C1172 1.531 . S
C1171 C1175 1.393 1_556 S
C1172 H1157 0.960 . S
C1172 H1158 0.960 1_556 S
C1172 H1159 0.960 . S
C1172 C1171 1.531 . S
C1173 C1170 1.403 . S
C1173 C1174 1.392 . S
C1173 C1177 1.495 . S
C1174 C1173 1.392 . S
C1174 C1175 1.385 . S
C1174 C1176 1.478 . S
C1175 H1169 0.930 . S
C1175 C1171 1.393 1_554 S
C1175 C1174 1.385 . S
C1176 C1174 1.478 . S
C1176 C1178 1.381 . S
C1176 C1182 1.383 . S
C1177 C1173 1.495 . S
C1177 H1183 0.959 . S
C1177 H1184 0.961 . S
C1177 H1185 0.960 . S
C1178 C1176 1.381 . S
C1178 C1179 1.394 . S
C1178 H1186 0.930 . S
C1179 C1178 1.394 . S
C1179 C1180 1.383 . S
C1179 H1187 0.929 . S
C1180 C1179 1.383 . S
C1180 C1181 1.377 . S
C1181 H1165 0.930 1_554 S
C1181 C1180 1.377 . S
C1181 C1182 1.379 . S
C1182 H1166 0.931 1_554 S
C1182 C1176 1.383 . S
C1182 C1181 1.379 . S
H1183 C1177 0.959 . S
H1184 C1177 0.961 . S
H1185 C1177 0.960 . S
H1186 C1178 0.930 . S
H1187 C1179 0.929 . S
H1188 C1196 0.929 . S
H1189 C1198 0.930 . S
H1190 C1200 0.930 . S
H1191 C1203 0.929 . S
H1192 C1206 0.930 . S
H1193 C1208 0.960 . S
H1194 C1208 0.960 1_554 S
H1195 C1208 0.960 . S
C1196 H1188 0.929 . S
C1196 C1197 1.377 1_554 S
C1196 C1198 1.384 . S
C1197 C1196 1.377 1_556 S
C1197 C1203 1.390 . S
C1198 H1189 0.930 . S
C1198 C1196 1.384 . S
C1198 C1199 1.372 1_554 S
C1199 C1198 1.372 1_556 S
C1199 C1200 1.400 . S
C1199 C1204 1.491 1_556 S
C1200 H1190 0.930 . S
C1200 C1199 1.400 . S
C1200 C1203 1.386 . S
H1201 C1217 0.930 1_556 S
H1202 C1218 0.931 1_556 S
C1203 H1191 0.929 . S
C1203 C1197 1.390 . S
C1203 C1200 1.386 . S
C1204 C1199 1.491 1_554 S
C1204 C1206 1.393 . S
C1204 C1207 1.403 1_554 S
H1205 C1211 0.930 . S
C1206 H1192 0.930 . S
C1206 C1204 1.393 . S
C1206 C1209 1.403 . S
C1207 C1204 1.403 1_556 S
C1207 C1208 1.524 . S
C1207 C1211 1.400 1_556 S
C1208 H1193 0.960 . S
C1208 H1194 0.960 1_556 S
C1208 H1195 0.960 . S
C1208 C1207 1.524 . S
C1209 C1206 1.403 . S
C1209 C1210 1.392 . S
C1209 C1213 1.495 . S
C1210 C1209 1.392 . S
C1210 C1211 1.385 . S
C1210 C1212 1.478 . S
C1211 H1205 0.930 . S
C1211 C1207 1.400 1_554 S
C1211 C1210 1.385 . S
C1212 C1210 1.478 . S
C1212 C1214 1.381 . S
C1212 C1218 1.383 . S
C1213 C1209 1.495 . S
C1213 H1219 0.959 . S
C1213 H1220 0.961 . S
C1213 H1221 0.960 . S
C1214 C1212 1.381 . S
C1214 C1215 1.394 . S
C1214 H1222 0.930 . S
C1215 C1214 1.394 . S
C1215 C1216 1.383 . S
C1215 H1223 0.929 . S
C1216 C1215 1.383 . S
C1216 C1217 1.377 . S
C1217 H1201 0.930 1_554 S
C1217 C1216 1.377 . S
C1217 C1218 1.379 . S
C1218 H1202 0.931 1_554 S
C1218 C1212 1.383 . S
C1218 C1217 1.379 . S
H1219 C1213 0.959 . S
H1220 C1213 0.961 . S
H1221 C1213 0.960 . S
H1222 C1214 0.930 . S
H1223 C1215 0.929 . S
H1224 C1232 0.929 . S
H1225 C1234 0.930 . S
H1226 C1236 0.930 . S
H1227 C1239 0.929 . S
H1228 C1242 0.930 . S
H1229 C1244 0.960 . S
H1230 C1244 0.960 . S
H1231 C1244 0.960 . S
C1232 H1224 0.929 . S
C1232 C1233 1.377 . S
C1232 C1234 1.384 . S
C1233 C1232 1.377 . S
C1233 C1239 1.390 1_556 S
C1234 H1225 0.930 . S
C1234 C1232 1.384 . S
C1234 C1235 1.372 . S
C1235 C1234 1.372 . S
C1235 C1236 1.400 1_556 S
C1235 C1240 1.490 . S
C1236 H1226 0.930 . S
C1236 C1235 1.400 1_554 S
C1236 C1239 1.386 . S
H1237 C1253 0.930 . S
H1238 C1254 0.931 . S
C1239 H1227 0.929 . S
C1239 C1233 1.390 1_554 S
C1239 C1236 1.386 . S
C1240 C1235 1.490 . S
C1240 C1242 1.395 . S
C1240 C1243 1.403 1_556 S
H1241 C1247 0.930 . S
C1242 H1228 0.930 . S
C1242 C1240 1.395 . S
C1242 C1245 1.403 . S
C1243 C1240 1.403 1_554 S
C1243 C1244 1.524 . S
C1243 C1247 1.400 . S
C1244 H1229 0.960 . S
C1244 H1230 0.960 . S
C1244 H1231 0.960 . S
C1244 C1243 1.524 . S
C1245 C1242 1.403 . S
C1245 C1246 1.392 1_556 S
C1245 C1249 1.495 . S
C1246 C1245 1.392 1_554 S
C1246 C1247 1.385 . S
C1246 C1248 1.478 . S
C1247 H1241 0.930 . S
C1247 C1243 1.400 . S
C1247 C1246 1.385 . S
C1248 C1246 1.478 . S
C1248 C1250 1.381 1_554 S
C1248 C1254 1.383 . S
C1249 C1245 1.495 . S
C1249 H1255 0.959 . S
C1249 H1256 0.929 1_556 S
C1249 H1257 0.960 . S
C1250 C1248 1.381 1_556 S
C1250 C1251 1.394 1_556 S
C1250 H1258 0.930 . S
C1251 C1250 1.394 1_554 S
C1251 C1252 1.383 . S
C1251 H1259 0.929 1_554 S
C1252 C1251 1.383 . S
C1252 C1253 1.377 . S
C1253 H1237 0.930 . S
C1253 C1252 1.377 . S
C1253 C1254 1.379 . S
C1254 H1238 0.931 . S
C1254 C1248 1.383 . S
C1254 C1253 1.379 . S
H1255 C1249 0.959 . S
H1256 C1249 0.929 1_554 S
H1257 C1249 0.960 . S
H1258 C1250 0.930 . S
H1259 C1251 0.929 1_556 S
H1260 C1268 0.929 . S
H1261 C1270 0.930 . S
H1262 C1272 0.930 . S
H1263 C1275 0.929 . S
H1264 C1278 0.930 . S
H1265 C1280 0.960 . S
H1266 C1280 0.960 . S
H1267 C1280 0.960 . S
C1268 H1260 0.929 . S
C1268 C1269 1.377 . S
C1268 C1270 1.384 . S
C1269 C1268 1.377 . S
C1269 C1275 1.390 . S
C1270 H1261 0.930 . S
C1270 C1268 1.384 . S
C1270 C1271 1.372 . S
C1271 C1270 1.372 . S
C1271 C1272 1.400 . S
C1271 C1276 1.490 . S
C1272 H1262 0.930 . S
C1272 C1271 1.400 . S
C1272 C1275 1.386 . S
H1273 C1289 0.930 . S
H1274 C1290 0.931 . S
C1275 H1263 0.929 . S
C1275 C1269 1.390 . S
C1275 C1272 1.386 . S
C1276 C1271 1.490 . S
C1276 C1278 1.395 . S
C1276 C1279 1.403 . S
H1277 C1283 0.930 . S
C1278 H1264 0.930 . S
C1278 C1276 1.395 . S
C1278 C1281 1.403 . S
C1279 C1276 1.403 . S
C1279 C1280 1.524 . S
C1279 C1283 1.400 . S
C1280 H1265 0.960 . S
C1280 H1266 0.960 . S
C1280 H1267 0.960 . S
C1280 C1279 1.524 . S
C1281 C1278 1.403 . S
C1281 C1282 1.392 . S
C1281 C1285 1.495 . S
C1282 C1281 1.392 . S
C1282 C1283 1.385 . S
C1282 C1284 1.478 . S
C1283 H1277 0.930 . S
C1283 C1279 1.400 . S
C1283 C1282 1.385 . S
C1284 C1282 1.478 . S
C1284 C1286 1.381 . S
C1284 C1290 1.383 . S
C1285 C1281 1.495 . S
C1285 H1291 0.959 . S
C1285 H1292 0.961 . S
C1285 H1293 0.960 . S
C1286 C1284 1.381 . S
C1286 C1287 1.394 . S
C1286 H1294 0.930 . S
C1287 C1286 1.394 . S
C1287 C1288 1.383 . S
C1287 H1295 0.929 . S
C1288 C1287 1.383 . S
C1288 C1289 1.377 . S
C1289 H1273 0.930 . S
C1289 C1288 1.377 . S
C1289 C1290 1.379 . S
C1290 H1274 0.931 . S
C1290 C1284 1.383 . S
C1290 C1289 1.379 . S
H1291 C1285 0.959 . S
H1292 C1285 0.961 . S
H1293 C1285 0.960 . S
H1294 C1286 0.930 . S
H1295 C1287 0.929 . S
H1296 C1304 0.929 . S
H1297 C1306 0.930 . S
H1298 C1308 0.930 . S
H1299 C1311 0.929 . S
H1300 C1314 0.930 . S
H1301 C1316 0.960 . S
H1302 C1316 0.960 . S
H1303 C1316 0.960 . S
C1304 H1296 0.929 . S
C1304 C1305 1.377 . S
C1304 C1306 1.384 . S
C1305 C1304 1.377 . S
C1305 C1311 1.390 . S
C1306 H1297 0.930 . S
C1306 C1304 1.384 . S
C1306 C1307 1.372 . S
C1307 C1306 1.372 . S
C1307 C1308 1.400 . S
C1307 C1312 1.490 . S
C1308 H1298 0.930 . S
C1308 C1307 1.400 . S
C1308 C1311 1.386 . S
H1309 C1325 0.930 . S
H1310 C1326 0.931 . S
C1311 H1299 0.929 . S
C1311 C1305 1.390 . S
C1311 C1308 1.386 . S
C1312 C1307 1.490 . S
C1312 C1314 1.395 . S
C1312 C1315 1.403 . S
H1313 C1319 0.930 . S
C1314 H1300 0.930 . S
C1314 C1312 1.395 . S
C1314 C1317 1.403 . S
C1315 C1312 1.403 . S
C1315 C1316 1.524 . S
C1315 C1319 1.400 . S
C1316 H1301 0.960 . S
C1316 H1302 0.960 . S
C1316 H1303 0.960 . S
C1316 C1315 1.524 . S
C1317 C1314 1.403 . S
C1317 C1318 1.392 . S
C1317 C1321 1.495 . S
C1318 C1317 1.392 . S
C1318 C1319 1.385 . S
C1318 C1320 1.478 . S
C1319 H1313 0.930 . S
C1319 C1315 1.400 . S
C1319 C1318 1.385 . S
C1320 C1318 1.478 . S
C1320 C1322 1.381 . S
C1320 C1326 1.383 . S
C1321 C1317 1.495 . S
C1321 H1327 0.959 . S
C1321 H1328 0.961 . S
C1321 H1329 0.960 . S
C1322 C1320 1.381 . S
C1322 C1323 1.394 . S
C1322 H1330 0.930 . S
C1323 C1322 1.394 . S
C1323 C1324 1.383 . S
C1323 H1331 0.929 . S
C1324 C1323 1.383 . S
C1324 C1325 1.377 . S
C1325 H1309 0.930 . S
C1325 C1324 1.377 . S
C1325 C1326 1.379 . S
C1326 H1310 0.931 . S
C1326 C1320 1.383 . S
C1326 C1325 1.379 . S
H1327 C1321 0.959 . S
H1328 C1321 0.961 . S
H1329 C1321 0.960 . S
H1330 C1322 0.930 . S
H1331 C1323 0.929 . S
H1332 C1340 0.929 . S
H1333 C1342 0.930 . S
H1334 C1344 0.930 . S
H1335 C1347 0.929 . S
H1336 C1350 0.930 . S
H1337 C1352 0.960 . S
H1338 C1352 0.960 . S
H1339 C1352 0.960 . S
C1340 H1332 0.929 . S
C1340 C1341 1.377 . S
C1340 C1342 1.384 . S
C1341 C1340 1.377 . S
C1341 C1347 1.390 . S
C1342 H1333 0.930 . S
C1342 C1340 1.384 . S
C1342 C1343 1.372 . S
C1343 C1342 1.372 . S
C1343 C1344 1.400 . S
C1343 C1348 1.490 . S
C1344 H1334 0.930 . S
C1344 C1343 1.400 . S
C1344 C1347 1.386 . S
H1345 C1361 0.930 . S
H1346 C1362 0.931 . S
C1347 H1335 0.929 . S
C1347 C1341 1.390 . S
C1347 C1344 1.386 . S
C1348 C1343 1.490 . S
C1348 C1350 1.395 . S
C1348 C1351 1.403 . S
H1349 C1355 0.930 . S
C1350 H1336 0.930 . S
C1350 C1348 1.395 . S
C1350 C1353 1.403 . S
C1351 C1348 1.403 . S
C1351 C1352 1.524 . S
C1351 C1355 1.400 . S
C1352 H1337 0.960 . S
C1352 H1338 0.960 . S
C1352 H1339 0.960 . S
C1352 C1351 1.524 . S
C1353 C1350 1.403 . S
C1353 C1354 1.392 . S
C1353 C1357 1.495 . S
C1354 C1353 1.392 . S
C1354 C1355 1.385 . S
C1354 C1356 1.478 . S
C1355 H1349 0.930 . S
C1355 C1351 1.400 . S
C1355 C1354 1.385 . S
C1356 C1354 1.478 . S
C1356 C1358 1.381 . S
C1356 C1362 1.383 . S
C1357 C1353 1.495 . S
C1357 H1363 0.959 . S
C1357 H1364 0.961 . S
C1357 H1365 0.960 . S
C1358 C1356 1.381 . S
C1358 C1359 1.394 . S
C1358 H1366 0.930 . S
C1359 C1358 1.394 . S
C1359 C1360 1.383 . S
C1359 H1367 0.929 . S
C1360 C1359 1.383 . S
C1360 C1361 1.377 . S
C1361 H1345 0.930 . S
C1361 C1360 1.377 . S
C1361 C1362 1.379 . S
C1362 H1346 0.931 . S
C1362 C1356 1.383 . S
C1362 C1361 1.379 . S
H1363 C1357 0.959 . S
H1364 C1357 0.961 . S
H1365 C1357 0.960 . S
H1366 C1358 0.930 . S
H1367 C1359 0.929 . S
H1368 C1376 0.929 . S
H1369 C1378 0.930 . S
H1370 C1380 0.930 . S
H1371 C1383 0.929 . S
H1372 C1386 0.930 . S
H1373 C1388 0.960 . S
H1374 C1388 0.970 . S
H1375 C1388 0.960 . S
C1376 H1368 0.929 . S
C1376 C1377 1.377 1_556 S
C1376 C1378 1.384 . S
C1377 C1376 1.377 1_554 S
C1377 C1383 1.390 . S
C1378 H1369 0.930 . S
C1378 C1376 1.384 . S
C1378 C1379 1.372 1_556 S
C1379 C1378 1.372 1_554 S
C1379 C1380 1.400 . S
C1379 C1384 1.490 1_554 S
C1380 H1370 0.930 . S
C1380 C1379 1.400 . S
C1380 C1383 1.386 . S
H1381 C1397 0.930 1_554 S
H1382 C1398 0.931 1_554 S
C1383 H1371 0.929 . S
C1383 C1377 1.390 . S
C1383 C1380 1.386 . S
C1384 C1379 1.490 1_556 S
C1384 C1386 1.395 . S
C1384 C1387 1.403 1_556 S
H1385 C1391 0.930 . S
C1386 H1372 0.930 . S
C1386 C1384 1.395 . S
C1386 C1389 1.403 . S
C1387 C1384 1.403 1_554 S
C1387 C1388 1.524 . S
C1387 C1391 1.400 1_554 S
C1388 H1373 0.960 . S
C1388 H1374 0.970 . S
C1388 H1375 0.960 . S
C1388 C1387 1.524 . S
C1389 C1386 1.403 . S
C1389 C1390 1.392 . S
C1389 C1393 1.495 . S
C1390 C1389 1.392 . S
C1390 C1391 1.385 . S
C1390 C1392 1.478 . S
C1391 H1385 0.930 . S
C1391 C1387 1.400 1_556 S
C1391 C1390 1.385 . S
C1392 C1390 1.478 . S
C1392 C1394 1.381 . S
C1392 C1398 1.383 . S
C1393 C1389 1.495 . S
C1393 H1399 0.959 . S
C1393 H1400 0.961 . S
C1393 H1401 0.960 . S
C1394 C1392 1.381 . S
C1394 C1395 1.394 . S
C1394 H1402 0.930 . S
C1395 C1394 1.394 . S
C1395 C1396 1.383 . S
C1395 H1403 0.929 . S
C1396 C1395 1.383 . S
C1396 C1397 1.377 . S
C1397 H1381 0.930 1_556 S
C1397 C1396 1.377 . S
C1397 C1398 1.379 . S
C1398 H1382 0.931 1_556 S
C1398 C1392 1.383 . S
C1398 C1397 1.379 . S
H1399 C1393 0.959 . S
H1400 C1393 0.961 . S
H1401 C1393 0.960 . S
H1402 C1394 0.930 . S
H1403 C1395 0.929 . S
H1404 C1412 0.929 . S
H1405 C1414 0.930 . S
H1406 C1416 0.930 1_554 S
H1407 C1419 0.929 1_554 S
H1408 C1422 0.930 . S
H1409 C1424 0.960 . S
H1410 C1424 0.960 . S
H1411 C1424 0.960 . S
C1412 H1404 0.929 . S
C1412 C1413 1.377 . S
C1412 C1414 1.384 . S
C1413 C1412 1.377 . S
C1413 C1419 1.390 . S
C1414 H1405 0.930 . S
C1414 C1412 1.384 . S
C1414 C1415 1.372 . S
C1415 C1414 1.372 . S
C1415 C1416 1.400 . S
C1415 C1420 1.490 . S
C1416 H1406 0.930 1_556 S
C1416 C1415 1.400 . S
C1416 C1419 1.386 . S
H1417 C1433 0.930 . S
H1418 C1434 0.931 . S
C1419 H1407 0.929 1_556 S
C1419 C1413 1.390 . S
C1419 C1416 1.386 . S
C1420 C1415 1.490 . S
C1420 C1422 1.395 . S
C1420 C1423 1.403 1_556 S
H1421 C1427 0.930 . S
C1422 H1408 0.930 . S
C1422 C1420 1.395 . S
C1422 C1425 1.403 . S
C1423 C1420 1.403 1_554 S
C1423 C1424 1.524 . S
C1423 C1427 1.400 . S
C1424 H1409 0.960 . S
C1424 H1410 0.960 . S
C1424 H1411 0.960 . S
C1424 C1423 1.524 . S
C1425 C1422 1.403 . S
C1425 C1426 1.392 . S
C1425 C1429 1.495 . S
C1426 C1425 1.392 . S
C1426 C1427 1.385 1_556 S
C1426 C1428 1.478 1_556 S
C1427 H1421 0.930 . S
C1427 C1423 1.400 . S
C1427 C1426 1.385 1_554 S
C1428 C1426 1.478 1_554 S
C1428 C1430 1.381 1_554 S
C1428 C1434 1.383 . S
C1429 C1425 1.495 . S
C1429 H1435 0.959 . S
C1429 H1436 0.961 . S
C1429 H1437 0.960 . S
C1430 C1428 1.381 1_556 S
C1430 C1431 1.394 . S
C1430 H1438 0.930 . S
C1431 C1430 1.394 . S
C1431 C1432 1.383 1_556 S
C1431 H1439 0.929 . S
C1432 C1431 1.383 1_554 S
C1432 C1433 1.377 . S
C1433 H1417 0.930 . S
C1433 C1432 1.377 . S
C1433 C1434 1.379 . S
C1434 H1418 0.931 . S
C1434 C1428 1.383 . S
C1434 C1433 1.379 . S
H1435 C1429 0.959 . S
H1436 C1429 0.961 . S
H1437 C1429 0.960 . S
H1438 C1430 0.930 . S
H1439 C1431 0.929 . S
H1440 C1448 0.929 . S
H1441 C1450 0.930 . S
H1442 C1452 0.930 . S
H1443 C1455 0.929 . S
H1444 C1458 0.930 . S
H1445 C1460 0.960 . S
H1446 C1460 0.960 . S
H1447 C1460 0.960 . S
C1448 H1440 0.929 . S
C1448 C1449 1.377 . S
C1448 C1450 1.384 . S
C1449 C1448 1.377 . S
C1449 C1455 1.390 . S
C1450 H1441 0.930 . S
C1450 C1448 1.384 . S
C1450 C1451 1.372 . S
C1451 C1450 1.372 . S
C1451 C1452 1.400 . S
C1451 C1456 1.490 . S
C1452 H1442 0.930 . S
C1452 C1451 1.400 . S
C1452 C1455 1.386 . S
H1453 C1469 0.930 . S
H1454 C1470 0.931 . S
C1455 H1443 0.929 . S
C1455 C1449 1.390 . S
C1455 C1452 1.386 . S
C1456 C1451 1.490 . S
C1456 C1458 1.395 . S
C1456 C1459 1.403 1_554 S
H1457 C1463 0.930 . S
C1458 H1444 0.930 . S
C1458 C1456 1.395 . S
C1458 C1461 1.403 . S
C1459 C1456 1.403 1_556 S
C1459 C1460 1.524 . S
C1459 C1463 1.400 . S
C1460 H1445 0.960 . S
C1460 H1446 0.960 . S
C1460 H1447 0.960 . S
C1460 C1459 1.524 . S
C1461 C1458 1.403 . S
C1461 C1462 1.392 1_554 S
C1461 C1465 1.495 . S
C1462 C1461 1.392 1_556 S
C1462 C1463 1.385 . S
C1462 C1464 1.478 . S
C1463 H1457 0.930 . S
C1463 C1459 1.400 . S
C1463 C1462 1.385 . S
C1464 C1462 1.478 . S
C1464 C1466 1.381 . S
C1464 C1470 1.383 . S
C1465 C1461 1.495 . S
C1465 H1471 0.959 . S
C1465 H1472 0.961 . S
C1465 H1473 0.960 . S
C1466 C1464 1.381 . S
C1466 C1467 1.394 . S
C1466 H1474 0.930 . S
C1467 C1466 1.394 . S
C1467 C1468 1.383 . S
C1467 H1475 0.929 . S
C1468 C1467 1.383 . S
C1468 C1469 1.377 . S
C1469 H1453 0.930 . S
C1469 C1468 1.377 . S
C1469 C1470 1.379 . S
C1470 H1454 0.931 . S
C1470 C1464 1.383 . S
C1470 C1469 1.379 . S
H1471 C1465 0.959 . S
H1472 C1465 0.961 . S
H1473 C1465 0.960 . S
H1474 C1466 0.930 . S
H1475 C1467 0.929 . S
H1476 C1484 0.929 . S
H1477 C1486 0.930 . S
H1478 C1488 0.930 . S
H1479 C1491 0.929 . S
H1480 C1494 0.930 . S
H1481 C1496 0.960 . S
H1482 C1496 0.960 . S
H1483 C1496 0.960 . S
C1484 H1476 0.929 . S
C1484 C1485 1.377 . S
C1484 C1486 1.384 . S
C1485 C1484 1.377 . S
C1485 C1491 1.390 . S
C1486 H1477 0.930 . S
C1486 C1484 1.384 . S
C1486 C1487 1.372 . S
C1487 C1486 1.372 . S
C1487 C1488 1.400 . S
C1487 C1492 1.490 . S
C1488 H1478 0.930 . S
C1488 C1487 1.400 . S
C1488 C1491 1.386 . S
H1489 C1505 0.930 . S
H1490 C1506 0.931 . S
C1491 H1479 0.929 . S
C1491 C1485 1.390 . S
C1491 C1488 1.386 . S
C1492 C1487 1.490 . S
C1492 C1494 1.395 . S
C1492 C1495 1.403 . S
H1493 C1499 0.930 . S
C1494 H1480 0.930 . S
C1494 C1492 1.395 . S
C1494 C1497 1.403 . S
C1495 C1492 1.403 . S
C1495 C1496 1.524 . S
C1495 C1499 1.400 . S
C1496 H1481 0.960 . S
C1496 H1482 0.960 . S
C1496 H1483 0.960 . S
C1496 C1495 1.524 . S
C1497 C1494 1.403 . S
C1497 C1498 1.392 . S
C1497 C1501 1.495 . S
C1498 C1497 1.392 . S
C1498 C1499 1.385 . S
C1498 C1500 1.478 . S
C1499 H1493 0.930 . S
C1499 C1495 1.400 . S
C1499 C1498 1.385 . S
C1500 C1498 1.478 . S
C1500 C1502 1.381 . S
C1500 C1506 1.383 . S
C1501 C1497 1.495 . S
C1501 H1507 0.959 . S
C1501 H1508 0.961 . S
C1501 H1509 0.960 . S
C1502 C1500 1.381 . S
C1502 C1503 1.394 . S
C1502 H1510 0.930 . S
C1503 C1502 1.394 . S
C1503 C1504 1.383 . S
C1503 H1511 0.929 . S
C1504 C1503 1.383 . S
C1504 C1505 1.377 . S
C1505 H1489 0.930 . S
C1505 C1504 1.377 . S
C1505 C1506 1.379 . S
C1506 H1490 0.931 . S
C1506 C1500 1.383 . S
C1506 C1505 1.379 . S
H1507 C1501 0.959 . S
H1508 C1501 0.961 . S
H1509 C1501 0.960 . S
H1510 C1502 0.930 . S
H1511 C1503 0.929 . S
H1512 C1520 0.929 . S
H1513 C1522 0.930 . S
H1514 C1524 0.930 . S
H1515 C1527 0.929 . S
H1516 C1530 0.930 . S
H1517 C1532 0.960 . S
H1518 C1532 0.960 . S
H1519 C1532 0.960 . S
C1520 H1512 0.929 . S
C1520 C1521 1.377 . S
C1520 C1522 1.384 . S
C1521 C1520 1.377 . S
C1521 C1527 1.390 . S
C1522 H1513 0.930 . S
C1522 C1520 1.384 . S
C1522 C1523 1.372 . S
C1523 C1522 1.372 . S
C1523 C1524 1.400 . S
C1523 C1528 1.490 . S
C1524 H1514 0.930 . S
C1524 C1523 1.400 . S
C1524 C1527 1.386 . S
H1525 C1541 0.930 . S
H1526 C1542 0.931 . S
C1527 H1515 0.929 . S
C1527 C1521 1.390 . S
C1527 C1524 1.386 . S
C1528 C1523 1.490 . S
C1528 C1530 1.395 . S
C1528 C1531 1.403 . S
H1529 C1535 0.930 . S
C1530 H1516 0.930 . S
C1530 C1528 1.395 . S
C1530 C1533 1.403 . S
C1531 C1528 1.403 . S
C1531 C1532 1.524 . S
C1531 C1535 1.400 . S
C1532 H1517 0.960 . S
C1532 H1518 0.960 . S
C1532 H1519 0.960 . S
C1532 C1531 1.524 . S
C1533 C1530 1.403 . S
C1533 C1534 1.392 . S
C1533 C1537 1.495 . S
C1534 C1533 1.392 . S
C1534 C1535 1.385 . S
C1534 C1536 1.478 . S
C1535 H1529 0.930 . S
C1535 C1531 1.400 . S
C1535 C1534 1.385 . S
C1536 C1534 1.478 . S
C1536 C1538 1.381 . S
C1536 C1542 1.383 . S
C1537 C1533 1.495 . S
C1537 H1543 0.959 . S
C1537 H1544 0.961 . S
C1537 H1545 0.960 . S
C1538 C1536 1.381 . S
C1538 C1539 1.394 . S
C1538 H1546 0.930 . S
C1539 C1538 1.394 . S
C1539 C1540 1.383 . S
C1539 H1547 0.929 . S
C1540 C1539 1.383 . S
C1540 C1541 1.377 . S
C1541 H1525 0.930 . S
C1541 C1540 1.377 . S
C1541 C1542 1.379 . S
C1542 H1526 0.931 . S
C1542 C1536 1.383 . S
C1542 C1541 1.379 . S
H1543 C1537 0.959 . S
H1544 C1537 0.961 . S
H1545 C1537 0.960 . S
H1546 C1538 0.930 . S
H1547 C1539 0.929 . S
H1548 C1556 0.929 . S
H1549 C1558 0.930 . S
H1550 C1560 0.930 . S
H1551 C1563 0.929 . S
H1552 C1566 0.930 . S
H1553 C1568 0.960 . S
H1554 C1568 0.960 . S
H1555 C1568 0.960 . S
C1556 H1548 0.929 . S
C1556 C1557 1.377 . S
C1556 C1558 1.384 . S
C1557 C1556 1.377 . S
C1557 C1563 1.390 . S
C1558 H1549 0.930 . S
C1558 C1556 1.384 . S
C1558 C1559 1.372 . S
C1559 C1558 1.372 . S
C1559 C1560 1.400 . S
C1559 C1564 1.490 . S
C1560 H1550 0.930 . S
C1560 C1559 1.400 . S
C1560 C1563 1.386 . S
H1561 C1577 0.930 . S
H1562 C1578 0.931 . S
C1563 H1551 0.929 . S
C1563 C1557 1.390 . S
C1563 C1560 1.386 . S
C1564 C1559 1.490 . S
C1564 C1566 1.395 . S
C1564 C1567 1.403 . S
H1565 C1571 0.930 . S
C1566 H1552 0.930 . S
C1566 C1564 1.395 . S
C1566 C1569 1.403 . S
C1567 C1564 1.403 . S
C1567 C1568 1.524 . S
C1567 C1571 1.400 . S
C1568 H1553 0.960 . S
C1568 H1554 0.960 . S
C1568 H1555 0.960 . S
C1568 C1567 1.524 . S
C1569 C1566 1.403 . S
C1569 C1570 1.392 . S
C1569 C1573 1.495 . S
C1570 C1569 1.392 . S
C1570 C1571 1.385 . S
C1570 C1572 1.478 . S
C1571 H1565 0.930 . S
C1571 C1567 1.400 . S
C1571 C1570 1.385 . S
C1572 C1570 1.478 . S
C1572 C1574 1.381 . S
C1572 C1578 1.383 . S
C1573 C1569 1.495 . S
C1573 H1579 0.959 . S
C1573 H1580 0.961 . S
C1573 H1581 0.960 . S
C1574 C1572 1.381 . S
C1574 C1575 1.394 . S
C1574 H1582 0.930 . S
C1575 C1574 1.394 . S
C1575 C1576 1.383 . S
C1575 H1583 0.929 . S
C1576 C1575 1.383 . S
C1576 C1577 1.377 . S
C1577 H1561 0.930 . S
C1577 C1576 1.377 . S
C1577 C1578 1.379 . S
C1578 H1562 0.931 . S
C1578 C1572 1.383 . S
C1578 C1577 1.379 . S
H1579 C1573 0.959 . S
H1580 C1573 0.961 . S
H1581 C1573 0.960 . S
H1582 C1574 0.930 . S
H1583 C1575 0.929 . S
H1584 C1592 0.929 . S
H1585 C1594 0.930 . S
H1586 C1596 0.930 . S
H1587 C1599 0.929 . S
H1588 C1602 0.930 . S
H1589 C1604 0.960 . S
H1590 C1604 0.960 . S
H1591 C1604 0.960 . S
C1592 H1584 0.929 . S
C1592 C1593 1.377 . S
C1592 C1594 1.384 . S
C1593 C1592 1.377 . S
C1593 C1599 1.390 . S
C1594 H1585 0.930 . S
C1594 C1592 1.384 . S
C1594 C1595 1.372 . S
C1595 C1594 1.372 . S
C1595 C1596 1.400 . S
C1595 C1600 1.490 . S
C1596 H1586 0.930 . S
C1596 C1595 1.400 . S
C1596 C1599 1.386 . S
H1597 C1613 0.930 . S
H1598 C1614 0.931 . S
C1599 H1587 0.929 . S
C1599 C1593 1.390 . S
C1599 C1596 1.386 . S
C1600 C1595 1.490 . S
C1600 C1602 1.395 . S
C1600 C1603 1.403 . S
H1601 C1607 0.930 . S
C1602 H1588 0.930 . S
C1602 C1600 1.395 . S
C1602 C1605 1.403 . S
C1603 C1600 1.403 . S
C1603 C1604 1.524 . S
C1603 C1607 1.400 . S
C1604 H1589 0.960 . S
C1604 H1590 0.960 . S
C1604 H1591 0.960 . S
C1604 C1603 1.524 . S
C1605 C1602 1.403 . S
C1605 C1606 1.392 . S
C1605 C1609 1.495 . S
C1606 C1605 1.392 . S
C1606 C1607 1.385 . S
C1606 C1608 1.478 . S
C1607 H1601 0.930 . S
C1607 C1603 1.400 . S
C1607 C1606 1.385 . S
C1608 C1606 1.478 . S
C1608 C1610 1.381 . S
C1608 C1614 1.383 . S
C1609 C1605 1.495 . S
C1609 H1615 0.959 . S
C1609 H1616 0.961 . S
C1609 H1617 0.960 . S
C1610 C1608 1.381 . S
C1610 C1611 1.394 . S
C1610 H1618 0.930 . S
C1611 C1610 1.394 . S
C1611 C1612 1.383 . S
C1611 H1619 0.929 . S
C1612 C1611 1.383 . S
C1612 C1613 1.377 . S
C1613 H1597 0.930 . S
C1613 C1612 1.377 . S
C1613 C1614 1.379 . S
C1614 H1598 0.931 . S
C1614 C1608 1.383 . S
C1614 C1613 1.379 . S
H1615 C1609 0.959 . S
H1616 C1609 0.961 . S
H1617 C1609 0.960 . S
H1618 C1610 0.930 . S
H1619 C1611 0.929 . S
H1620 C1628 0.929 . S
H1621 C1630 0.930 . S
H1622 C1632 0.930 . S
H1623 C1635 0.929 . S
H1624 C1638 0.930 . S
H1625 C1640 0.960 . S
H1626 C1640 0.960 . S
H1627 C1640 0.960 . S
C1628 H1620 0.929 . S
C1628 C1629 1.377 . S
C1628 C1630 1.384 . S
C1629 C1628 1.377 . S
C1629 C1635 1.390 . S
C1630 H1621 0.930 . S
C1630 C1628 1.384 . S
C1630 C1631 1.372 . S
C1631 C1630 1.372 . S
C1631 C1632 1.400 . S
C1631 C1636 1.490 . S
C1632 H1622 0.930 . S
C1632 C1631 1.400 . S
C1632 C1635 1.386 . S
H1633 C1649 0.930 . S
H1634 C1650 0.931 . S
C1635 H1623 0.929 . S
C1635 C1629 1.390 . S
C1635 C1632 1.386 . S
C1636 C1631 1.490 . S
C1636 C1638 1.395 . S
C1636 C1639 1.403 . S
H1637 C1643 0.930 . S
C1638 H1624 0.930 . S
C1638 C1636 1.395 . S
C1638 C1641 1.403 . S
C1639 C1636 1.403 . S
C1639 C1640 1.524 . S
C1639 C1643 1.400 . S
C1640 H1625 0.960 . S
C1640 H1626 0.960 . S
C1640 H1627 0.960 . S
C1640 C1639 1.524 . S
C1641 C1638 1.403 . S
C1641 C1642 1.392 . S
C1641 C1645 1.495 . S
C1642 C1641 1.392 . S
C1642 C1643 1.385 . S
C1642 C1644 1.478 . S
C1643 H1637 0.930 . S
C1643 C1639 1.400 . S
C1643 C1642 1.385 . S
C1644 C1642 1.478 . S
C1644 C1646 1.381 . S
C1644 C1650 1.383 . S
C1645 C1641 1.495 . S
C1645 H1651 0.959 . S
C1645 H1652 0.961 . S
C1645 H1653 0.960 . S
C1646 C1644 1.381 . S
C1646 C1647 1.394 . S
C1646 H1654 0.930 . S
C1647 C1646 1.394 . S
C1647 C1648 1.383 . S
C1647 H1655 0.929 . S
C1648 C1647 1.383 . S
C1648 C1649 1.377 . S
C1649 H1633 0.930 . S
C1649 C1648 1.377 . S
C1649 C1650 1.379 . S
C1650 H1634 0.931 . S
C1650 C1644 1.383 . S
C1650 C1649 1.379 . S
H1651 C1645 0.959 . S
H1652 C1645 0.961 . S
H1653 C1645 0.960 . S
H1654 C1646 0.930 . S
H1655 C1647 0.929 . S
H1656 C1664 0.929 . S
H1657 C1666 0.930 . S
H1658 C1668 0.930 . S
H1659 C1671 0.929 . S
H1660 C1674 0.930 . S
H1661 C1676 0.960 . S
H1662 C1676 0.960 . S
H1663 C1676 0.960 . S
C1664 H1656 0.929 . S
C1664 C1665 1.377 . S
C1664 C1666 1.384 . S
C1665 C1664 1.377 . S
C1665 C1671 1.390 . S
C1666 H1657 0.930 . S
C1666 C1664 1.384 . S
C1666 C1667 1.372 . S
C1667 C1666 1.372 . S
C1667 C1668 1.400 . S
C1667 C1672 1.490 . S
C1668 H1658 0.930 . S
C1668 C1667 1.400 . S
C1668 C1671 1.386 . S
H1669 C1685 0.930 . S
H1670 C1686 0.931 . S
C1671 H1659 0.929 . S
C1671 C1665 1.390 . S
C1671 C1668 1.386 . S
C1672 C1667 1.490 . S
C1672 C1674 1.395 . S
C1672 C1675 1.403 . S
H1673 C1679 0.930 . S
C1674 H1660 0.930 . S
C1674 C1672 1.395 . S
C1674 C1677 1.403 . S
C1675 C1672 1.403 . S
C1675 C1676 1.524 . S
C1675 C1679 1.400 . S
C1676 H1661 0.960 . S
C1676 H1662 0.960 . S
C1676 H1663 0.960 . S
C1676 C1675 1.524 . S
C1677 C1674 1.403 . S
C1677 C1678 1.392 . S
C1677 C1681 1.495 . S
C1678 C1677 1.392 . S
C1678 C1679 1.385 . S
C1678 C1680 1.478 . S
C1679 H1673 0.930 . S
C1679 C1675 1.400 . S
C1679 C1678 1.385 . S
C1680 C1678 1.478 . S
C1680 C1682 1.381 . S
C1680 C1686 1.383 . S
C1681 C1677 1.495 . S
C1681 H1687 0.959 . S
C1681 H1688 0.961 . S
C1681 H1689 0.960 . S
C1682 C1680 1.381 . S
C1682 C1683 1.394 . S
C1682 H1690 0.930 . S
C1683 C1682 1.394 . S
C1683 C1684 1.383 . S
C1683 H1691 0.929 . S
C1684 C1683 1.383 . S
C1684 C1685 1.377 . S
C1685 H1669 0.930 . S
C1685 C1684 1.377 . S
C1685 C1686 1.379 . S
C1686 H1670 0.931 . S
C1686 C1680 1.383 . S
C1686 C1685 1.379 . S
H1687 C1681 0.959 . S
H1688 C1681 0.961 . S
H1689 C1681 0.960 . S
H1690 C1682 0.930 . S
H1691 C1683 0.929 . S
H1692 C1700 0.929 . S
H1693 C1702 0.930 . S
H1694 C1704 0.930 . S
H1695 C1707 0.929 . S
H1696 C1710 0.930 . S
H1697 C1712 0.960 . S
H1698 C1712 0.960 . S
H1699 C1712 0.960 . S
C1700 H1692 0.929 . S
C1700 C1701 1.377 . S
C1700 C1702 1.384 . S
C1701 C1700 1.377 . S
C1701 C1707 1.390 . S
C1702 H1693 0.930 . S
C1702 C1700 1.384 . S
C1702 C1703 1.372 . S
C1703 C1702 1.372 . S
C1703 C1704 1.400 . S
C1703 C1708 1.490 . S
C1704 H1694 0.930 . S
C1704 C1703 1.400 . S
C1704 C1707 1.386 . S
H1705 C1721 0.930 . S
H1706 C1722 0.931 . S
C1707 H1695 0.929 . S
C1707 C1701 1.390 . S
C1707 C1704 1.386 . S
C1708 C1703 1.490 . S
C1708 C1710 1.395 . S
C1708 C1711 1.403 . S
H1709 C1715 0.930 . S
C1710 H1696 0.930 . S
C1710 C1708 1.395 . S
C1710 C1713 1.403 . S
C1711 C1708 1.403 . S
C1711 C1712 1.524 . S
C1711 C1715 1.400 . S
C1712 H1697 0.960 . S
C1712 H1698 0.960 . S
C1712 H1699 0.960 . S
C1712 C1711 1.524 . S
C1713 C1710 1.403 . S
C1713 C1714 1.392 . S
C1713 C1717 1.495 . S
C1714 C1713 1.392 . S
C1714 C1715 1.385 . S
C1714 C1716 1.478 . S
C1715 H1709 0.930 . S
C1715 C1711 1.400 . S
C1715 C1714 1.385 . S
C1716 C1714 1.478 . S
C1716 C1718 1.381 . S
C1716 C1722 1.383 . S
C1717 C1713 1.495 . S
C1717 H1723 0.959 . S
C1717 H1724 0.961 . S
C1717 H1725 0.960 . S
C1718 C1716 1.381 . S
C1718 C1719 1.394 . S
C1718 H1726 0.930 . S
C1719 C1718 1.394 . S
C1719 C1720 1.383 . S
C1719 H1727 0.929 . S
C1720 C1719 1.383 . S
C1720 C1721 1.377 . S
C1721 H1705 0.930 . S
C1721 C1720 1.377 . S
C1721 C1722 1.379 . S
C1722 H1706 0.931 . S
C1722 C1716 1.383 . S
C1722 C1721 1.379 . S
H1723 C1717 0.959 . S
H1724 C1717 0.961 . S
H1725 C1717 0.960 . S
H1726 C1718 0.930 . S
H1727 C1719 0.929 . S
H1728 C1736 0.929 . S
H1729 C1738 0.930 . S
H1730 C1740 0.930 . S
H1731 C1743 0.929 . S
H1732 C1746 0.930 . S
H1733 C1748 0.960 . S
H1734 C1748 0.960 . S
H1735 C1748 0.960 . S
C1736 H1728 0.929 . S
C1736 C1737 1.377 . S
C1736 C1738 1.384 . S
C1737 C1736 1.377 . S
C1737 C1743 1.390 . S
C1738 H1729 0.930 . S
C1738 C1736 1.384 . S
C1738 C1739 1.372 . S
C1739 C1738 1.372 . S
C1739 C1740 1.400 . S
C1739 C1744 1.490 . S
C1740 H1730 0.930 . S
C1740 C1739 1.400 . S
C1740 C1743 1.386 . S
H1741 C1757 0.930 . S
H1742 C1758 0.931 . S
C1743 H1731 0.929 . S
C1743 C1737 1.390 . S
C1743 C1740 1.386 . S
C1744 C1739 1.490 . S
C1744 C1746 1.395 . S
C1744 C1747 1.403 . S
H1745 C1751 0.930 . S
C1746 H1732 0.930 . S
C1746 C1744 1.395 . S
C1746 C1749 1.403 . S
C1747 C1744 1.403 . S
C1747 C1748 1.524 . S
C1747 C1751 1.400 . S
C1748 H1733 0.960 . S
C1748 H1734 0.960 . S
C1748 H1735 0.960 . S
C1748 C1747 1.524 . S
C1749 C1746 1.403 . S
C1749 C1750 1.392 . S
C1749 C1753 1.495 . S
C1750 C1749 1.392 . S
C1750 C1751 1.385 . S
C1750 C1752 1.478 . S
C1751 H1745 0.930 . S
C1751 C1747 1.400 . S
C1751 C1750 1.385 . S
C1752 C1750 1.478 . S
C1752 C1754 1.381 . S
C1752 C1758 1.383 . S
C1753 C1749 1.495 . S
C1753 H1759 0.959 . S
C1753 H1760 0.961 . S
C1753 H1761 0.960 . S
C1754 C1752 1.381 . S
C1754 C1755 1.394 . S
C1754 H1762 0.930 . S
C1755 C1754 1.394 . S
C1755 C1756 1.383 . S
C1755 H1763 0.929 . S
C1756 C1755 1.383 . S
C1756 C1757 1.377 . S
C1757 H1741 0.930 . S
C1757 C1756 1.377 . S
C1757 C1758 1.379 . S
C1758 H1742 0.931 . S
C1758 C1752 1.383 . S
C1758 C1757 1.379 . S
H1759 C1753 0.959 . S
H1760 C1753 0.961 . S
H1761 C1753 0.960 . S
H1762 C1754 0.930 . S
H1763 C1755 0.929 . S
H1764 C1772 0.929 . S
H1765 C1774 0.930 . S
H1766 C1776 0.930 . S
H1767 C1779 0.929 . S
H1768 C1782 0.930 . S
H1769 C1784 0.960 . S
H1770 C1784 0.960 . S
H1771 C1784 0.960 . S
C1772 H1764 0.929 . S
C1772 C1773 1.377 . S
C1772 C1774 1.384 . S
C1773 C1772 1.377 . S
C1773 C1779 1.390 . S
C1774 H1765 0.930 . S
C1774 C1772 1.384 . S
C1774 C1775 1.372 . S
C1775 C1774 1.372 . S
C1775 C1776 1.400 . S
C1775 C1780 1.490 . S
C1776 H1766 0.930 . S
C1776 C1775 1.400 . S
C1776 C1779 1.386 . S
H1777 C1793 0.930 . S
H1778 C1794 0.931 . S
C1779 H1767 0.929 . S
C1779 C1773 1.390 . S
C1779 C1776 1.386 . S
C1780 C1775 1.490 . S
C1780 C1782 1.395 . S
C1780 C1783 1.403 . S
H1781 C1787 0.930 . S
C1782 H1768 0.930 . S
C1782 C1780 1.395 . S
C1782 C1785 1.403 . S
C1783 C1780 1.403 . S
C1783 C1784 1.524 . S
C1783 C1787 1.400 . S
C1784 H1769 0.960 . S
C1784 H1770 0.960 . S
C1784 H1771 0.960 . S
C1784 C1783 1.524 . S
C1785 C1782 1.403 . S
C1785 C1786 1.392 . S
C1785 C1789 1.495 . S
C1786 C1785 1.392 . S
C1786 C1787 1.385 . S
C1786 C1788 1.478 . S
C1787 H1781 0.930 . S
C1787 C1783 1.400 . S
C1787 C1786 1.385 . S
C1788 C1786 1.478 . S
C1788 C1790 1.381 . S
C1788 C1794 1.383 . S
C1789 C1785 1.495 . S
C1789 H1795 0.959 . S
C1789 H1796 0.961 . S
C1789 H1797 0.960 . S
C1790 C1788 1.381 . S
C1790 C1791 1.394 . S
C1790 H1798 0.930 . S
C1791 C1790 1.394 . S
C1791 C1792 1.383 . S
C1791 H1799 0.929 . S
C1792 C1791 1.383 . S
C1792 C1793 1.377 . S
C1793 H1777 0.930 . S
C1793 C1792 1.377 . S
C1793 C1794 1.379 . S
C1794 H1778 0.931 . S
C1794 C1788 1.383 . S
C1794 C1793 1.379 . S
H1795 C1789 0.959 . S
H1796 C1789 0.961 . S
H1797 C1789 0.960 . S
H1798 C1790 0.930 . S
H1799 C1791 0.929 . S
H1800 C1808 0.929 . S
H1801 C1810 0.930 . S
H1802 C1812 0.930 . S
H1803 C1815 0.929 . S
H1804 C1818 0.930 . S
H1805 C1820 0.960 . S
H1806 C1820 0.960 . S
H1807 C1820 0.960 . S
C1808 H1800 0.929 . S
C1808 C1809 1.377 . S
C1808 C1810 1.384 . S
C1809 C1808 1.377 . S
C1809 C1815 1.390 . S
C1810 H1801 0.930 . S
C1810 C1808 1.384 . S
C1810 C1811 1.372 . S
C1811 C1810 1.372 . S
C1811 C1812 1.400 . S
C1811 C1816 1.490 . S
C1812 H1802 0.930 . S
C1812 C1811 1.400 . S
C1812 C1815 1.386 . S
H1813 C1829 0.930 . S
H1814 C1830 0.931 . S
C1815 H1803 0.929 . S
C1815 C1809 1.390 . S
C1815 C1812 1.386 . S
C1816 C1811 1.490 . S
C1816 C1818 1.395 . S
C1816 C1819 1.403 . S
H1817 C1823 0.930 . S
C1818 H1804 0.930 . S
C1818 C1816 1.395 . S
C1818 C1821 1.403 . S
C1819 C1816 1.403 . S
C1819 C1820 1.524 . S
C1819 C1823 1.400 . S
C1820 H1805 0.960 . S
C1820 H1806 0.960 . S
C1820 H1807 0.960 . S
C1820 C1819 1.524 . S
C1821 C1818 1.403 . S
C1821 C1822 1.392 . S
C1821 C1825 1.495 . S
C1822 C1821 1.392 . S
C1822 C1823 1.385 . S
C1822 C1824 1.478 . S
C1823 H1817 0.930 . S
C1823 C1819 1.400 . S
C1823 C1822 1.385 . S
C1824 C1822 1.478 . S
C1824 C1826 1.381 . S
C1824 C1830 1.383 . S
C1825 C1821 1.495 . S
C1825 H1831 0.959 . S
C1825 H1832 0.961 . S
C1825 H1833 0.960 . S
C1826 C1824 1.381 . S
C1826 C1827 1.394 . S
C1826 H1834 0.930 . S
C1827 C1826 1.394 . S
C1827 C1828 1.383 . S
C1827 H1835 0.929 . S
C1828 C1827 1.383 . S
C1828 C1829 1.377 . S
C1829 H1813 0.930 . S
C1829 C1828 1.377 . S
C1829 C1830 1.379 . S
C1830 H1814 0.931 . S
C1830 C1824 1.383 . S
C1830 C1829 1.379 . S
H1831 C1825 0.959 . S
H1832 C1825 0.961 . S
H1833 C1825 0.960 . S
H1834 C1826 0.930 . S
H1835 C1827 0.929 . S
H1836 C1844 0.929 . S
H1837 C1846 0.930 . S
H1838 C1848 0.930 . S
H1839 C1851 0.929 . S
H1840 C1854 0.930 . S
H1841 C1856 0.960 . S
H1842 C1856 0.960 . S
H1843 C1856 0.960 . S
C1844 H1836 0.929 . S
C1844 C1845 1.377 . S
C1844 C1846 1.384 . S
C1845 C1844 1.377 . S
C1845 C1851 1.390 . S
C1846 H1837 0.930 . S
C1846 C1844 1.384 . S
C1846 C1847 1.372 . S
C1847 C1846 1.372 . S
C1847 C1848 1.400 . S
C1847 C1852 1.490 . S
C1848 H1838 0.930 . S
C1848 C1847 1.400 . S
C1848 C1851 1.386 . S
H1849 C1865 0.930 . S
H1850 C1866 0.931 . S
C1851 H1839 0.929 . S
C1851 C1845 1.390 . S
C1851 C1848 1.386 . S
C1852 C1847 1.490 . S
C1852 C1854 1.395 . S
C1852 C1855 1.403 . S
H1853 C1859 0.930 . S
C1854 H1840 0.930 . S
C1854 C1852 1.395 . S
C1854 C1857 1.403 . S
C1855 C1852 1.403 . S
C1855 C1856 1.524 . S
C1855 C1859 1.400 . S
C1856 H1841 0.960 . S
C1856 H1842 0.960 . S
C1856 H1843 0.960 . S
C1856 C1855 1.524 . S
C1857 C1854 1.403 . S
C1857 C1858 1.392 . S
C1857 C1861 1.495 . S
C1858 C1857 1.392 . S
C1858 C1859 1.385 . S
C1858 C1860 1.478 . S
C1859 H1853 0.930 . S
C1859 C1855 1.400 . S
C1859 C1858 1.385 . S
C1860 C1858 1.478 . S
C1860 C1862 1.381 . S
C1860 C1866 1.383 . S
C1861 C1857 1.495 . S
C1861 H1867 0.959 . S
C1861 H1868 0.961 . S
C1861 H1869 0.960 . S
C1862 C1860 1.381 . S
C1862 C1863 1.394 . S
C1862 H1870 0.930 . S
C1863 C1862 1.394 . S
C1863 C1864 1.383 . S
C1863 H1871 0.929 . S
C1864 C1863 1.383 . S
C1864 C1865 1.377 . S
C1865 H1849 0.930 . S
C1865 C1864 1.377 . S
C1865 C1866 1.379 . S
C1866 H1850 0.931 . S
C1866 C1860 1.383 . S
C1866 C1865 1.379 . S
H1867 C1861 0.959 . S
H1868 C1861 0.961 . S
H1869 C1861 0.960 . S
H1870 C1862 0.930 . S
H1871 C1863 0.929 . S
H1872 C1880 0.929 . S
H1873 C1882 0.930 . S
H1874 C1884 0.930 . S
H1875 C1887 0.929 . S
H1876 C1890 0.930 . S
H1877 C1892 0.960 . S
H1878 C1892 0.960 . S
H1879 C1892 0.960 . S
C1880 H1872 0.929 . S
C1880 C1881 1.377 . S
C1880 C1882 1.384 . S
C1881 C1880 1.377 . S
C1881 C1887 1.390 . S
C1882 H1873 0.930 . S
C1882 C1880 1.384 . S
C1882 C1883 1.372 . S
C1883 C1882 1.372 . S
C1883 C1884 1.400 . S
C1883 C1888 1.490 . S
C1884 H1874 0.930 . S
C1884 C1883 1.400 . S
C1884 C1887 1.386 . S
H1885 C1901 0.930 . S
H1886 C1902 0.931 . S
C1887 H1875 0.929 . S
C1887 C1881 1.390 . S
C1887 C1884 1.386 . S
C1888 C1883 1.490 . S
C1888 C1890 1.395 . S
C1888 C1891 1.403 . S
H1889 C1895 0.930 . S
C1890 H1876 0.930 . S
C1890 C1888 1.395 . S
C1890 C1893 1.403 . S
C1891 C1888 1.403 . S
C1891 C1892 1.524 . S
C1891 C1895 1.400 . S
C1892 H1877 0.960 . S
C1892 H1878 0.960 . S
C1892 H1879 0.960 . S
C1892 C1891 1.524 . S
C1893 C1890 1.403 . S
C1893 C1894 1.392 . S
C1893 C1897 1.495 . S
C1894 C1893 1.392 . S
C1894 C1895 1.385 . S
C1894 C1896 1.478 . S
C1895 H1889 0.930 . S
C1895 C1891 1.400 . S
C1895 C1894 1.385 . S
C1896 C1894 1.478 . S
C1896 C1898 1.381 . S
C1896 C1902 1.383 . S
C1897 C1893 1.495 . S
C1897 H1903 0.959 . S
C1897 H1904 0.961 . S
C1897 H1905 0.960 . S
C1898 C1896 1.381 . S
C1898 C1899 1.394 . S
C1898 H1906 0.930 . S
C1899 C1898 1.394 . S
C1899 C1900 1.383 . S
C1899 H1907 0.929 . S
C1900 C1899 1.383 . S
C1900 C1901 1.377 . S
C1901 H1885 0.930 . S
C1901 C1900 1.377 . S
C1901 C1902 1.379 . S
C1902 H1886 0.931 . S
C1902 C1896 1.383 . S
C1902 C1901 1.379 . S
H1903 C1897 0.959 . S
H1904 C1897 0.961 . S
H1905 C1897 0.960 . S
H1906 C1898 0.930 . S
H1907 C1899 0.929 . S
H1908 C1916 0.929 . S
H1909 C1918 0.930 . S
H1910 C1920 0.930 . S
H1911 C1923 0.929 . S
H1912 C1926 0.930 . S
H1913 C1928 0.960 . S
H1914 C1928 0.960 . S
H1915 C1928 0.960 . S
C1916 H1908 0.929 . S
C1916 C1917 1.377 . S
C1916 C1918 1.384 . S
C1917 C1916 1.377 . S
C1917 C1923 1.390 . S
C1918 H1909 0.930 . S
C1918 C1916 1.384 . S
C1918 C1919 1.372 . S
C1919 C1918 1.372 . S
C1919 C1920 1.400 . S
C1919 C1924 1.490 . S
C1920 H1910 0.930 . S
C1920 C1919 1.400 . S
C1920 C1923 1.386 . S
H1921 C1937 0.930 . S
H1922 C1938 0.931 . S
C1923 H1911 0.929 . S
C1923 C1917 1.390 . S
C1923 C1920 1.386 . S
C1924 C1919 1.490 . S
C1924 C1926 1.395 . S
C1924 C1927 1.403 . S
H1925 C1931 0.930 . S
C1926 H1912 0.930 . S
C1926 C1924 1.395 . S
C1926 C1929 1.403 . S
C1927 C1924 1.403 . S
C1927 C1928 1.524 . S
C1927 C1931 1.400 . S
C1928 H1913 0.960 . S
C1928 H1914 0.960 . S
C1928 H1915 0.960 . S
C1928 C1927 1.524 . S
C1929 C1926 1.403 . S
C1929 C1930 1.392 . S
C1929 C1933 1.495 . S
C1930 C1929 1.392 . S
C1930 C1931 1.385 . S
C1930 C1932 1.478 . S
C1931 H1925 0.930 . S
C1931 C1927 1.400 . S
C1931 C1930 1.385 . S
C1932 C1930 1.478 . S
C1932 C1934 1.381 . S
C1932 C1938 1.383 . S
C1933 C1929 1.495 . S
C1933 H1939 0.959 . S
C1933 H1940 0.961 . S
C1933 H1941 0.960 . S
C1934 C1932 1.381 . S
C1934 C1935 1.394 . S
C1934 H1942 0.930 . S
C1935 C1934 1.394 . S
C1935 C1936 1.383 . S
C1935 H1943 0.929 . S
C1936 C1935 1.383 . S
C1936 C1937 1.377 . S
C1937 H1921 0.930 . S
C1937 C1936 1.377 . S
C1937 C1938 1.379 . S
C1938 H1922 0.931 . S
C1938 C1932 1.383 . S
C1938 C1937 1.379 . S
H1939 C1933 0.959 . S
H1940 C1933 0.961 . S
H1941 C1933 0.960 . S
H1942 C1934 0.930 . S
H1943 C1935 0.929 . S
H1944 C1952 0.929 . S
H1945 C1954 0.930 . S
H1946 C1956 0.930 . S
H1947 C1959 0.929 . S
H1948 C1962 0.930 . S
H1949 C1964 0.960 . S
H1950 C1964 0.960 . S
H1951 C1964 0.960 . S
C1952 H1944 0.929 . S
C1952 C1953 1.377 . S
C1952 C1954 1.384 . S
C1953 C1952 1.377 . S
C1953 C1959 1.390 . S
C1954 H1945 0.930 . S
C1954 C1952 1.384 . S
C1954 C1955 1.372 . S
C1955 C1954 1.372 . S
C1955 C1956 1.400 . S
C1955 C1960 1.490 . S
C1956 H1946 0.930 . S
C1956 C1955 1.400 . S
C1956 C1959 1.386 . S
H1957 C1973 0.930 . S
H1958 C1974 0.931 . S
C1959 H1947 0.929 . S
C1959 C1953 1.390 . S
C1959 C1956 1.386 . S
C1960 C1955 1.490 . S
C1960 C1962 1.395 . S
C1960 C1963 1.403 . S
H1961 C1967 0.930 . S
C1962 H1948 0.930 . S
C1962 C1960 1.395 . S
C1962 C1965 1.403 . S
C1963 C1960 1.403 . S
C1963 C1964 1.524 . S
C1963 C1967 1.400 . S
C1964 H1949 0.960 . S
C1964 H1950 0.960 . S
C1964 H1951 0.960 . S
C1964 C1963 1.524 . S
C1965 C1962 1.403 . S
C1965 C1966 1.392 . S
C1965 C1969 1.495 . S
C1966 C1965 1.392 . S
C1966 C1967 1.385 . S
C1966 C1968 1.478 . S
C1967 H1961 0.930 . S
C1967 C1963 1.400 . S
C1967 C1966 1.385 . S
C1968 C1966 1.478 . S
C1968 C1970 1.381 . S
C1968 C1974 1.383 . S
C1969 C1965 1.495 . S
C1969 H1975 0.959 . S
C1969 H1976 0.961 . S
C1969 H1977 0.960 . S
C1970 C1968 1.381 . S
C1970 C1971 1.394 . S
C1970 H1978 0.930 . S
C1971 C1970 1.394 . S
C1971 C1972 1.383 . S
C1971 H1979 0.929 . S
C1972 C1971 1.383 . S
C1972 C1973 1.377 . S
C1973 H1957 0.930 . S
C1973 C1972 1.377 . S
C1973 C1974 1.379 . S
C1974 H1958 0.931 . S
C1974 C1968 1.383 . S
C1974 C1973 1.379 . S
H1975 C1969 0.959 . S
H1976 C1969 0.961 . S
H1977 C1969 0.960 . S
H1978 C1970 0.930 . S
H1979 C1971 0.929 . S
H1980 C1988 0.929 . S
H1981 C1990 0.930 . S
H1982 C1992 0.930 . S
H1983 C1995 0.929 . S
H1984 C1998 0.930 . S
H1985 C2000 0.960 . S
H1986 C2000 0.960 . S
H1987 C2000 0.960 . S
C1988 H1980 0.929 . S
C1988 C1989 1.377 . S
C1988 C1990 1.384 . S
C1989 C1988 1.377 . S
C1989 C1995 1.390 . S
C1990 H1981 0.930 . S
C1990 C1988 1.384 . S
C1990 C1991 1.372 . S
C1991 C1990 1.372 . S
C1991 C1992 1.400 . S
C1991 C1996 1.490 . S
C1992 H1982 0.930 . S
C1992 C1991 1.400 . S
C1992 C1995 1.386 . S
H1993 C2009 0.930 . S
H1994 C2010 0.931 . S
C1995 H1983 0.929 . S
C1995 C1989 1.390 . S
C1995 C1992 1.386 . S
C1996 C1991 1.490 . S
C1996 C1998 1.395 . S
C1996 C1999 1.403 . S
H1997 C2003 0.930 . S
C1998 H1984 0.930 . S
C1998 C1996 1.395 . S
C1998 C2001 1.403 . S
C1999 C1996 1.403 . S
C1999 C2000 1.524 . S
C1999 C2003 1.400 . S
C2000 H1985 0.960 . S
C2000 H1986 0.960 . S
C2000 H1987 0.960 . S
C2000 C1999 1.524 . S
C2001 C1998 1.403 . S
C2001 C2002 1.392 . S
C2001 C2005 1.495 . S
C2002 C2001 1.392 . S
C2002 C2003 1.385 . S
C2002 C2004 1.478 . S
C2003 H1997 0.930 . S
C2003 C1999 1.400 . S
C2003 C2002 1.385 . S
C2004 C2002 1.478 . S
C2004 C2006 1.381 . S
C2004 C2010 1.383 . S
C2005 C2001 1.495 . S
C2005 H2011 0.959 . S
C2005 H2012 0.961 . S
C2005 H2013 0.960 . S
C2006 C2004 1.381 . S
C2006 C2007 1.394 . S
C2006 H2014 0.930 . S
C2007 C2006 1.394 . S
C2007 C2008 1.383 . S
C2007 H2015 0.929 . S
C2008 C2007 1.383 . S
C2008 C2009 1.377 . S
C2009 H1993 0.930 . S
C2009 C2008 1.377 . S
C2009 C2010 1.379 . S
C2010 H1994 0.931 . S
C2010 C2004 1.383 . S
C2010 C2009 1.379 . S
H2011 C2005 0.959 . S
H2012 C2005 0.961 . S
H2013 C2005 0.960 . S
H2014 C2006 0.930 . S
H2015 C2007 0.929 . S
H2016 C2024 0.929 . S
H2017 C2026 0.930 . S
H2018 C2028 0.930 . S
H2019 C2031 0.929 . S
H2020 C2034 0.930 . S
H2021 C2036 0.960 . S
H2022 C2036 0.960 . S
H2023 C2036 0.960 . S
C2024 H2016 0.929 . S
C2024 C2025 1.377 . S
C2024 C2026 1.384 . S
C2025 C2024 1.377 . S
C2025 C2031 1.390 . S
C2026 H2017 0.930 . S
C2026 C2024 1.384 . S
C2026 C2027 1.372 . S
C2027 C2026 1.372 . S
C2027 C2028 1.400 . S
C2027 C2032 1.490 . S
C2028 H2018 0.930 . S
C2028 C2027 1.400 . S
C2028 C2031 1.386 . S
H2029 C2045 0.930 . S
H2030 C2046 0.931 . S
C2031 H2019 0.929 . S
C2031 C2025 1.390 . S
C2031 C2028 1.386 . S
C2032 C2027 1.490 . S
C2032 C2034 1.395 . S
C2032 C2035 1.403 . S
H2033 C2039 0.930 . S
C2034 H2020 0.930 . S
C2034 C2032 1.395 . S
C2034 C2037 1.403 . S
C2035 C2032 1.403 . S
C2035 C2036 1.524 . S
C2035 C2039 1.400 . S
C2036 H2021 0.960 . S
C2036 H2022 0.960 . S
C2036 H2023 0.960 . S
C2036 C2035 1.524 . S
C2037 C2034 1.403 . S
C2037 C2038 1.392 . S
C2037 C2041 1.495 . S
C2038 C2037 1.392 . S
C2038 C2039 1.385 . S
C2038 C2040 1.478 . S
C2039 H2033 0.930 . S
C2039 C2035 1.400 . S
C2039 C2038 1.385 . S
C2040 C2038 1.478 . S
C2040 C2042 1.381 . S
C2040 C2046 1.383 . S
C2041 C2037 1.495 . S
C2041 H2047 0.959 . S
C2041 H2048 0.961 . S
C2041 H2049 0.960 . S
C2042 C2040 1.381 . S
C2042 C2043 1.394 . S
C2042 H2050 0.930 . S
C2043 C2042 1.394 . S
C2043 C2044 1.383 . S
C2043 H2051 0.929 . S
C2044 C2043 1.383 . S
C2044 C2045 1.377 . S
C2045 H2029 0.930 . S
C2045 C2044 1.377 . S
C2045 C2046 1.379 . S
C2046 H2030 0.931 . S
C2046 C2040 1.383 . S
C2046 C2045 1.379 . S
H2047 C2041 0.959 . S
H2048 C2041 0.961 . S
H2049 C2041 0.960 . S
H2050 C2042 0.930 . S
H2051 C2043 0.929 . S
H2052 C2060 0.929 . S
H2053 C2062 0.930 . S
H2054 C2064 0.930 . S
H2055 C2067 0.929 . S
H2056 C2070 0.930 . S
H2057 C2072 0.960 . S
H2058 C2072 0.960 . S
H2059 C2072 0.960 . S
C2060 H2052 0.929 . S
C2060 C2061 1.377 . S
C2060 C2062 1.384 . S
C2061 C2060 1.377 . S
C2061 C2067 1.390 . S
C2062 H2053 0.930 . S
C2062 C2060 1.384 . S
C2062 C2063 1.372 . S
C2063 C2062 1.372 . S
C2063 C2064 1.400 . S
C2063 C2068 1.490 . S
C2064 H2054 0.930 . S
C2064 C2063 1.400 . S
C2064 C2067 1.386 . S
H2065 C2081 0.930 . S
H2066 C2082 0.931 . S
C2067 H2055 0.929 . S
C2067 C2061 1.390 . S
C2067 C2064 1.386 . S
C2068 C2063 1.490 . S
C2068 C2070 1.395 . S
C2068 C2071 1.403 . S
H2069 C2075 0.930 . S
C2070 H2056 0.930 . S
C2070 C2068 1.395 . S
C2070 C2073 1.403 . S
C2071 C2068 1.403 . S
C2071 C2072 1.524 . S
C2071 C2075 1.400 . S
C2072 H2057 0.960 . S
C2072 H2058 0.960 . S
C2072 H2059 0.960 . S
C2072 C2071 1.524 . S
C2073 C2070 1.403 . S
C2073 C2074 1.392 . S
C2073 C2077 1.495 . S
C2074 C2073 1.392 . S
C2074 C2075 1.385 . S
C2074 C2076 1.478 . S
C2075 H2069 0.930 . S
C2075 C2071 1.400 . S
C2075 C2074 1.385 . S
C2076 C2074 1.478 . S
C2076 C2078 1.381 . S
C2076 C2082 1.383 . S
C2077 C2073 1.495 . S
C2077 H2083 0.959 . S
C2077 H2084 0.961 . S
C2077 H2085 0.960 . S
C2078 C2076 1.381 . S
C2078 C2079 1.394 . S
C2078 H2086 0.930 . S
C2079 C2078 1.394 . S
C2079 C2080 1.383 . S
C2079 H2087 0.929 . S
C2080 C2079 1.383 . S
C2080 C2081 1.377 . S
C2081 H2065 0.930 . S
C2081 C2080 1.377 . S
C2081 C2082 1.379 . S
C2082 H2066 0.931 . S
C2082 C2076 1.383 . S
C2082 C2081 1.379 . S
H2083 C2077 0.959 . S
H2084 C2077 0.961 . S
H2085 C2077 0.960 . S
H2086 C2078 0.930 . S
H2087 C2079 0.929 . S
H2088 C2096 0.929 . S
H2089 C2098 0.930 . S
H2090 C2100 0.930 . S
H2091 C2103 0.929 . S
H2092 C2106 0.930 . S
H2093 C2108 0.960 . S
H2094 C2108 0.960 . S
H2095 C2108 0.960 . S
C2096 H2088 0.929 . S
C2096 C2097 1.377 . S
C2096 C2098 1.384 . S
C2097 C2096 1.377 . S
C2097 C2103 1.390 . S
C2098 H2089 0.930 . S
C2098 C2096 1.384 . S
C2098 C2099 1.372 . S
C2099 C2098 1.372 . S
C2099 C2100 1.400 . S
C2099 C2104 1.490 . S
C2100 H2090 0.930 . S
C2100 C2099 1.400 . S
C2100 C2103 1.386 . S
H2101 C2117 0.930 . S
H2102 C2118 0.931 . S
C2103 H2091 0.929 . S
C2103 C2097 1.390 . S
C2103 C2100 1.386 . S
C2104 C2099 1.490 . S
C2104 C2106 1.395 . S
C2104 C2107 1.403 . S
H2105 C2111 0.930 . S
C2106 H2092 0.930 . S
C2106 C2104 1.395 . S
C2106 C2109 1.403 . S
C2107 C2104 1.403 . S
C2107 C2108 1.524 . S
C2107 C2111 1.400 . S
C2108 H2093 0.960 . S
C2108 H2094 0.960 . S
C2108 H2095 0.960 . S
C2108 C2107 1.524 . S
C2109 C2106 1.403 . S
C2109 C2110 1.392 . S
C2109 C2113 1.495 . S
C2110 C2109 1.392 . S
C2110 C2111 1.385 . S
C2110 C2112 1.478 . S
C2111 H2105 0.930 . S
C2111 C2107 1.400 . S
C2111 C2110 1.385 . S
C2112 C2110 1.478 . S
C2112 C2114 1.381 . S
C2112 C2118 1.383 . S
C2113 C2109 1.495 . S
C2113 H2119 0.959 . S
C2113 H2120 0.961 . S
C2113 H2121 0.960 . S
C2114 C2112 1.381 . S
C2114 C2115 1.394 . S
C2114 H2122 0.930 . S
C2115 C2114 1.394 . S
C2115 C2116 1.383 . S
C2115 H2123 0.929 . S
C2116 C2115 1.383 . S
C2116 C2117 1.377 . S
C2117 H2101 0.930 . S
C2117 C2116 1.377 . S
C2117 C2118 1.379 . S
C2118 H2102 0.931 . S
C2118 C2112 1.383 . S
C2118 C2117 1.379 . S
H2119 C2113 0.959 . S
H2120 C2113 0.961 . S
H2121 C2113 0.960 . S
H2122 C2114 0.930 . S
H2123 C2115 0.929 . S
H2124 C2132 0.929 . S
H2125 C2134 0.930 . S
H2126 C2136 0.930 . S
H2127 C2139 0.929 . S
H2128 C2142 0.930 . S
H2129 C2144 0.960 . S
H2130 C2144 0.960 . S
H2131 C2144 0.960 . S
C2132 H2124 0.929 . S
C2132 C2133 1.377 . S
C2132 C2134 1.384 . S
C2133 C2132 1.377 . S
C2133 C2139 1.390 . S
C2134 H2125 0.930 . S
C2134 C2132 1.384 . S
C2134 C2135 1.372 . S
C2135 C2134 1.372 . S
C2135 C2136 1.400 . S
C2135 C2140 1.490 . S
C2136 H2126 0.930 . S
C2136 C2135 1.400 . S
C2136 C2139 1.386 . S
H2137 C2153 0.930 . S
H2138 C2154 0.931 . S
C2139 H2127 0.929 . S
C2139 C2133 1.390 . S
C2139 C2136 1.386 . S
C2140 C2135 1.490 . S
C2140 C2142 1.395 . S
C2140 C2143 1.403 . S
H2141 C2147 0.930 . S
C2142 H2128 0.930 . S
C2142 C2140 1.395 . S
C2142 C2145 1.403 . S
C2143 C2140 1.403 . S
C2143 C2144 1.524 . S
C2143 C2147 1.400 . S
C2144 H2129 0.960 . S
C2144 H2130 0.960 . S
C2144 H2131 0.960 . S
C2144 C2143 1.524 . S
C2145 C2142 1.403 . S
C2145 C2146 1.392 . S
C2145 C2149 1.495 . S
C2146 C2145 1.392 . S
C2146 C2147 1.385 . S
C2146 C2148 1.478 . S
C2147 H2141 0.930 . S
C2147 C2143 1.400 . S
C2147 C2146 1.385 . S
C2148 C2146 1.478 . S
C2148 C2150 1.381 . S
C2148 C2154 1.383 . S
C2149 C2145 1.495 . S
C2149 H2155 0.959 . S
C2149 H2156 0.961 . S
C2149 H2157 0.960 . S
C2150 C2148 1.381 . S
C2150 C2151 1.394 . S
C2150 H2158 0.930 . S
C2151 C2150 1.394 . S
C2151 C2152 1.383 . S
C2151 H2159 0.929 . S
C2152 C2151 1.383 . S
C2152 C2153 1.377 . S
C2153 H2137 0.930 . S
C2153 C2152 1.377 . S
C2153 C2154 1.379 . S
C2154 H2138 0.931 . S
C2154 C2148 1.383 . S
C2154 C2153 1.379 . S
H2155 C2149 0.959 . S
H2156 C2149 0.961 . S
H2157 C2149 0.960 . S
H2158 C2150 0.930 . S
H2159 C2151 0.929 . S
H2160 C2168 0.929 . S
H2161 C2170 0.930 . S
H2162 C2172 0.930 . S
H2163 C2175 0.929 . S
H2164 C2178 0.930 . S
H2165 C2180 0.960 . S
H2166 C2180 0.960 . S
H2167 C2180 0.960 . S
C2168 H2160 0.929 . S
C2168 C2169 1.377 . S
C2168 C2170 1.384 . S
C2169 C2168 1.377 . S
C2169 C2175 1.390 . S
C2170 H2161 0.930 . S
C2170 C2168 1.384 . S
C2170 C2171 1.372 . S
C2171 C2170 1.372 . S
C2171 C2172 1.400 . S
C2171 C2176 1.490 . S
C2172 H2162 0.930 . S
C2172 C2171 1.400 . S
C2172 C2175 1.386 . S
H2173 C2189 0.930 . S
H2174 C2190 0.931 . S
C2175 H2163 0.929 . S
C2175 C2169 1.390 . S
C2175 C2172 1.386 . S
C2176 C2171 1.490 . S
C2176 C2178 1.395 . S
C2176 C2179 1.403 . S
H2177 C2183 0.930 . S
C2178 H2164 0.930 . S
C2178 C2176 1.395 . S
C2178 C2181 1.403 . S
C2179 C2176 1.403 . S
C2179 C2180 1.524 . S
C2179 C2183 1.400 . S
C2180 H2165 0.960 . S
C2180 H2166 0.960 . S
C2180 H2167 0.960 . S
C2180 C2179 1.524 . S
C2181 C2178 1.403 . S
C2181 C2182 1.392 . S
C2181 C2185 1.495 . S
C2182 C2181 1.392 . S
C2182 C2183 1.385 . S
C2182 C2184 1.478 . S
C2183 H2177 0.930 . S
C2183 C2179 1.400 . S
C2183 C2182 1.385 . S
C2184 C2182 1.478 . S
C2184 C2186 1.381 . S
C2184 C2190 1.383 . S
C2185 C2181 1.495 . S
C2185 H2191 0.959 . S
C2185 H2192 0.961 . S
C2185 H2193 0.960 . S
C2186 C2184 1.381 . S
C2186 C2187 1.394 . S
C2186 H2194 0.930 . S
C2187 C2186 1.394 . S
C2187 C2188 1.383 . S
C2187 H2195 0.929 . S
C2188 C2187 1.383 . S
C2188 C2189 1.377 . S
C2189 H2173 0.930 . S
C2189 C2188 1.377 . S
C2189 C2190 1.379 . S
C2190 H2174 0.931 . S
C2190 C2184 1.383 . S
C2190 C2189 1.379 . S
H2191 C2185 0.959 . S
H2192 C2185 0.961 . S
H2193 C2185 0.960 . S
H2194 C2186 0.930 . S
H2195 C2187 0.929 . S
H2196 C2204 0.929 . S
H2197 C2206 0.930 . S
H2198 C2208 0.930 . S
H2199 C2211 0.929 . S
H2200 C2214 0.930 . S
H2201 C2216 0.960 . S
H2202 C2216 0.960 . S
H2203 C2216 0.960 . S
C2204 H2196 0.929 . S
C2204 C2205 1.377 . S
C2204 C2206 1.384 . S
C2205 C2204 1.377 . S
C2205 C2211 1.390 . S
C2206 H2197 0.930 . S
C2206 C2204 1.384 . S
C2206 C2207 1.372 . S
C2207 C2206 1.372 . S
C2207 C2208 1.400 . S
C2207 C2212 1.490 . S
C2208 H2198 0.930 . S
C2208 C2207 1.400 . S
C2208 C2211 1.386 . S
H2209 C2225 0.930 . S
H2210 C2226 0.931 . S
C2211 H2199 0.929 . S
C2211 C2205 1.390 . S
C2211 C2208 1.386 . S
C2212 C2207 1.490 . S
C2212 C2214 1.395 . S
C2212 C2215 1.403 . S
H2213 C2219 0.930 . S
C2214 H2200 0.930 . S
C2214 C2212 1.395 . S
C2214 C2217 1.403 . S
C2215 C2212 1.403 . S
C2215 C2216 1.524 . S
C2215 C2219 1.400 . S
C2216 H2201 0.960 . S
C2216 H2202 0.960 . S
C2216 H2203 0.960 . S
C2216 C2215 1.524 . S
C2217 C2214 1.403 . S
C2217 C2218 1.392 . S
C2217 C2221 1.495 . S
C2218 C2217 1.392 . S
C2218 C2219 1.385 . S
C2218 C2220 1.478 . S
C2219 H2213 0.930 . S
C2219 C2215 1.400 . S
C2219 C2218 1.385 . S
C2220 C2218 1.478 . S
C2220 C2222 1.381 . S
C2220 C2226 1.383 . S
C2221 C2217 1.495 . S
C2221 H2227 0.959 . S
C2221 H2228 0.961 . S
C2221 H2229 0.960 . S
C2222 C2220 1.381 . S
C2222 C2223 1.394 . S
C2222 H2230 0.930 . S
C2223 C2222 1.394 . S
C2223 C2224 1.383 . S
C2223 H2231 0.929 . S
C2224 C2223 1.383 . S
C2224 C2225 1.377 . S
C2225 H2209 0.930 . S
C2225 C2224 1.377 . S
C2225 C2226 1.379 . S
C2226 H2210 0.931 . S
C2226 C2220 1.383 . S
C2226 C2225 1.379 . S
H2227 C2221 0.959 . S
H2228 C2221 0.961 . S
H2229 C2221 0.960 . S
H2230 C2222 0.930 . S
H2231 C2223 0.929 . S
H2232 C2240 0.929 . S
H2233 C2242 0.930 . S
H2234 C2244 0.930 . S
H2235 C2247 0.929 . S
H2236 C2250 0.930 . S
H2237 C2252 0.960 . S
H2238 C2252 0.960 . S
H2239 C2252 0.960 . S
C2240 H2232 0.929 . S
C2240 C2241 1.377 . S
C2240 C2242 1.384 . S
C2241 C2240 1.377 . S
C2241 C2247 1.390 . S
C2242 H2233 0.930 . S
C2242 C2240 1.384 . S
C2242 C2243 1.372 . S
C2243 C2242 1.372 . S
C2243 C2244 1.400 . S
C2243 C2248 1.490 . S
C2244 H2234 0.930 . S
C2244 C2243 1.400 . S
C2244 C2247 1.386 . S
H2245 C2261 0.930 . S
H2246 C2262 0.931 . S
C2247 H2235 0.929 . S
C2247 C2241 1.390 . S
C2247 C2244 1.386 . S
C2248 C2243 1.490 . S
C2248 C2250 1.395 . S
C2248 C2251 1.403 . S
H2249 C2255 0.930 . S
C2250 H2236 0.930 . S
C2250 C2248 1.395 . S
C2250 C2253 1.403 . S
C2251 C2248 1.403 . S
C2251 C2252 1.524 . S
C2251 C2255 1.400 . S
C2252 H2237 0.960 . S
C2252 H2238 0.960 . S
C2252 H2239 0.960 . S
C2252 C2251 1.524 . S
C2253 C2250 1.403 . S
C2253 C2254 1.392 . S
C2253 C2257 1.495 . S
C2254 C2253 1.392 . S
C2254 C2255 1.385 . S
C2254 C2256 1.478 . S
C2255 H2249 0.930 . S
C2255 C2251 1.400 . S
C2255 C2254 1.385 . S
C2256 C2254 1.478 . S
C2256 C2258 1.381 . S
C2256 C2262 1.383 . S
C2257 C2253 1.495 . S
C2257 H2263 0.959 . S
C2257 H2264 0.961 . S
C2257 H2265 0.960 . S
C2258 C2256 1.381 . S
C2258 C2259 1.394 . S
C2258 H2266 0.930 . S
C2259 C2258 1.394 . S
C2259 C2260 1.383 . S
C2259 H2267 0.929 . S
C2260 C2259 1.383 . S
C2260 C2261 1.377 . S
C2261 H2245 0.930 . S
C2261 C2260 1.377 . S
C2261 C2262 1.379 . S
C2262 H2246 0.931 . S
C2262 C2256 1.383 . S
C2262 C2261 1.379 . S
H2263 C2257 0.959 . S
H2264 C2257 0.961 . S
H2265 C2257 0.960 . S
H2266 C2258 0.930 . S
H2267 C2259 0.929 . S
H2268 C2276 0.929 . S
H2269 C2278 0.930 . S
H2270 C2280 0.930 . S
H2271 C2283 0.929 . S
H2272 C2286 0.930 . S
H2273 C2288 0.960 . S
H2274 C2288 0.960 . S
H2275 C2288 0.960 . S
C2276 H2268 0.929 . S
C2276 C2277 1.377 . S
C2276 C2278 1.384 . S
C2277 C2276 1.377 . S
C2277 C2283 1.390 . S
C2278 H2269 0.930 . S
C2278 C2276 1.384 . S
C2278 C2279 1.372 . S
C2279 C2278 1.372 . S
C2279 C2280 1.400 . S
C2279 C2284 1.490 . S
C2280 H2270 0.930 . S
C2280 C2279 1.400 . S
C2280 C2283 1.386 . S
H2281 C2297 0.930 . S
H2282 C2298 0.931 . S
C2283 H2271 0.929 . S
C2283 C2277 1.390 . S
C2283 C2280 1.386 . S
C2284 C2279 1.490 . S
C2284 C2286 1.395 . S
C2284 C2287 1.403 . S
H2285 C2291 0.930 . S
C2286 H2272 0.930 . S
C2286 C2284 1.395 . S
C2286 C2289 1.403 . S
C2287 C2284 1.403 . S
C2287 C2288 1.524 . S
C2287 C2291 1.400 . S
C2288 H2273 0.960 . S
C2288 H2274 0.960 . S
C2288 H2275 0.960 . S
C2288 C2287 1.524 . S
C2289 C2286 1.403 . S
C2289 C2290 1.392 . S
C2289 C2293 1.495 . S
C2290 C2289 1.392 . S
C2290 C2291 1.385 . S
C2290 C2292 1.478 . S
C2291 H2285 0.930 . S
C2291 C2287 1.400 . S
C2291 C2290 1.385 . S
C2292 C2290 1.478 . S
C2292 C2294 1.381 . S
C2292 C2298 1.383 . S
C2293 C2289 1.495 . S
C2293 H2299 0.959 . S
C2293 H2300 0.961 . S
C2293 H2301 0.960 . S
C2294 C2292 1.381 . S
C2294 C2295 1.394 . S
C2294 H2302 0.930 . S
C2295 C2294 1.394 . S
C2295 C2296 1.383 . S
C2295 H2303 0.929 . S
C2296 C2295 1.383 . S
C2296 C2297 1.377 . S
C2297 H2281 0.930 . S
C2297 C2296 1.377 . S
C2297 C2298 1.379 . S
C2298 H2282 0.931 . S
C2298 C2292 1.383 . S
C2298 C2297 1.379 . S
H2299 C2293 0.959 . S
H2300 C2293 0.961 . S
H2301 C2293 0.960 . S
H2302 C2294 0.930 . S
H2303 C2295 0.929 . S
H2304 C2312 0.929 . S
H2305 C2314 0.930 . S
H2306 C2316 0.930 . S
H2307 C2319 0.929 . S
H2308 C2322 0.930 . S
H2309 C2324 0.960 . S
H2310 C2324 0.960 . S
H2311 C2324 0.960 . S
C2312 H2304 0.929 . S
C2312 C2313 1.377 . S
C2312 C2314 1.384 . S
C2313 C2312 1.377 . S
C2313 C2319 1.390 . S
C2314 H2305 0.930 . S
C2314 C2312 1.384 . S
C2314 C2315 1.372 . S
C2315 C2314 1.372 . S
C2315 C2316 1.400 . S
C2315 C2320 1.490 . S
C2316 H2306 0.930 . S
C2316 C2315 1.400 . S
C2316 C2319 1.386 . S
H2317 C2333 0.930 . S
H2318 C2334 0.931 . S
C2319 H2307 0.929 . S
C2319 C2313 1.390 . S
C2319 C2316 1.386 . S
C2320 C2315 1.490 . S
C2320 C2322 1.395 . S
C2320 C2323 1.403 . S
H2321 C2327 0.930 . S
C2322 H2308 0.930 . S
C2322 C2320 1.395 . S
C2322 C2325 1.403 . S
C2323 C2320 1.403 . S
C2323 C2324 1.524 . S
C2323 C2327 1.400 . S
C2324 H2309 0.960 . S
C2324 H2310 0.960 . S
C2324 H2311 0.960 . S
C2324 C2323 1.524 . S
C2325 C2322 1.403 . S
C2325 C2326 1.392 . S
C2325 C2329 1.495 . S
C2326 C2325 1.392 . S
C2326 C2327 1.385 . S
C2326 C2328 1.478 . S
C2327 H2321 0.930 . S
C2327 C2323 1.400 . S
C2327 C2326 1.385 . S
C2328 C2326 1.478 . S
C2328 C2330 1.381 . S
C2328 C2334 1.383 . S
C2329 C2325 1.495 . S
C2329 H2335 0.959 . S
C2329 H2336 0.961 . S
C2329 H2337 0.960 . S
C2330 C2328 1.381 . S
C2330 C2331 1.394 . S
C2330 H2338 0.930 . S
C2331 C2330 1.394 . S
C2331 C2332 1.383 . S
C2331 H2339 0.929 . S
C2332 C2331 1.383 . S
C2332 C2333 1.377 . S
C2333 H2317 0.930 . S
C2333 C2332 1.377 . S
C2333 C2334 1.379 . S
C2334 H2318 0.931 . S
C2334 C2328 1.383 . S
C2334 C2333 1.379 . S
H2335 C2329 0.959 . S
H2336 C2329 0.961 . S
H2337 C2329 0.960 . S
H2338 C2330 0.930 . S
H2339 C2331 0.929 . S
H2340 C2348 0.929 . S
H2341 C2350 0.930 . S
H2342 C2352 0.930 . S
H2343 C2355 0.929 . S
H2344 C2358 0.930 . S
H2345 C2360 0.960 . S
H2346 C2360 0.960 . S
H2347 C2360 0.960 . S
C2348 H2340 0.929 . S
C2348 C2349 1.377 . S
C2348 C2350 1.384 . S
C2349 C2348 1.377 . S
C2349 C2355 1.390 . S
C2350 H2341 0.930 . S
C2350 C2348 1.384 . S
C2350 C2351 1.372 . S
C2351 C2350 1.372 . S
C2351 C2352 1.400 . S
C2351 C2356 1.490 . S
C2352 H2342 0.930 . S
C2352 C2351 1.400 . S
C2352 C2355 1.386 . S
H2353 C2369 0.930 . S
H2354 C2370 0.931 . S
C2355 H2343 0.929 . S
C2355 C2349 1.390 . S
C2355 C2352 1.386 . S
C2356 C2351 1.490 . S
C2356 C2358 1.395 . S
C2356 C2359 1.403 . S
H2357 C2363 0.930 . S
C2358 H2344 0.930 . S
C2358 C2356 1.395 . S
C2358 C2361 1.403 . S
C2359 C2356 1.403 . S
C2359 C2360 1.524 . S
C2359 C2363 1.400 . S
C2360 H2345 0.960 . S
C2360 H2346 0.960 . S
C2360 H2347 0.960 . S
C2360 C2359 1.524 . S
C2361 C2358 1.403 . S
C2361 C2362 1.392 . S
C2361 C2365 1.495 . S
C2362 C2361 1.392 . S
C2362 C2363 1.385 . S
C2362 C2364 1.478 . S
C2363 H2357 0.930 . S
C2363 C2359 1.400 . S
C2363 C2362 1.385 . S
C2364 C2362 1.478 . S
C2364 C2366 1.381 . S
C2364 C2370 1.383 . S
C2365 C2361 1.495 . S
C2365 H2371 0.959 . S
C2365 H2372 0.961 . S
C2365 H2373 0.960 . S
C2366 C2364 1.381 . S
C2366 C2367 1.394 . S
C2366 H2374 0.930 . S
C2367 C2366 1.394 . S
C2367 C2368 1.383 . S
C2367 H2375 0.929 . S
C2368 C2367 1.383 . S
C2368 C2369 1.377 . S
C2369 H2353 0.930 . S
C2369 C2368 1.377 . S
C2369 C2370 1.379 . S
C2370 H2354 0.931 . S
C2370 C2364 1.383 . S
C2370 C2369 1.379 . S
H2371 C2365 0.959 . S
H2372 C2365 0.961 . S
H2373 C2365 0.960 . S
H2374 C2366 0.930 . S
H2375 C2367 0.929 . S
H2376 C2384 0.929 . S
H2377 C2386 0.930 . S
H2378 C2388 0.930 . S
H2379 C2391 0.929 . S
H2380 C2394 0.930 . S
H2381 C2396 0.960 . S
H2382 C2396 0.960 . S
H2383 C2396 0.960 . S
C2384 H2376 0.929 . S
C2384 C2385 1.377 . S
C2384 C2386 1.384 . S
C2385 C2384 1.377 . S
C2385 C2391 1.390 . S
C2386 H2377 0.930 . S
C2386 C2384 1.384 . S
C2386 C2387 1.372 . S
C2387 C2386 1.372 . S
C2387 C2388 1.400 . S
C2387 C2392 1.490 . S
C2388 H2378 0.930 . S
C2388 C2387 1.400 . S
C2388 C2391 1.386 . S
H2389 C2405 0.930 . S
H2390 C2406 0.931 . S
C2391 H2379 0.929 . S
C2391 C2385 1.390 . S
C2391 C2388 1.386 . S
C2392 C2387 1.490 . S
C2392 C2394 1.395 . S
C2392 C2395 1.403 . S
H2393 C2399 0.930 . S
C2394 H2380 0.930 . S
C2394 C2392 1.395 . S
C2394 C2397 1.403 . S
C2395 C2392 1.403 . S
C2395 C2396 1.524 . S
C2395 C2399 1.400 . S
C2396 H2381 0.960 . S
C2396 H2382 0.960 . S
C2396 H2383 0.960 . S
C2396 C2395 1.524 . S
C2397 C2394 1.403 . S
C2397 C2398 1.392 . S
C2397 C2401 1.495 . S
C2398 C2397 1.392 . S
C2398 C2399 1.385 . S
C2398 C2400 1.478 . S
C2399 H2393 0.930 . S
C2399 C2395 1.400 . S
C2399 C2398 1.385 . S
C2400 C2398 1.478 . S
C2400 C2402 1.381 . S
C2400 C2406 1.383 . S
C2401 C2397 1.495 . S
C2401 H2407 0.959 . S
C2401 H2408 0.961 . S
C2401 H2409 0.960 . S
C2402 C2400 1.381 . S
C2402 C2403 1.394 . S
C2402 H2410 0.930 . S
C2403 C2402 1.394 . S
C2403 C2404 1.383 . S
C2403 H2411 0.929 . S
C2404 C2403 1.383 . S
C2404 C2405 1.377 . S
C2405 H2389 0.930 . S
C2405 C2404 1.377 . S
C2405 C2406 1.379 . S
C2406 H2390 0.931 . S
C2406 C2400 1.383 . S
C2406 C2405 1.379 . S
H2407 C2401 0.959 . S
H2408 C2401 0.961 . S
H2409 C2401 0.960 . S
H2410 C2402 0.930 . S
H2411 C2403 0.929 . S
H2412 C2420 0.929 . S
H2413 C2422 0.930 . S
H2414 C2424 0.930 . S
H2415 C2427 0.929 . S
H2416 C2430 0.930 . S
H2417 C2432 0.960 . S
H2418 C2432 0.960 . S
H2419 C2432 0.960 . S
C2420 H2412 0.929 . S
C2420 C2421 1.377 . S
C2420 C2422 1.384 . S
C2421 C2420 1.377 . S
C2421 C2427 1.390 . S
C2422 H2413 0.930 . S
C2422 C2420 1.384 . S
C2422 C2423 1.372 . S
C2423 C2422 1.372 . S
C2423 C2424 1.400 . S
C2423 C2428 1.490 . S
C2424 H2414 0.930 . S
C2424 C2423 1.400 . S
C2424 C2427 1.386 . S
H2425 C2441 0.930 . S
H2426 C2442 0.931 . S
C2427 H2415 0.929 . S
C2427 C2421 1.390 . S
C2427 C2424 1.386 . S
C2428 C2423 1.490 . S
C2428 C2430 1.395 . S
C2428 C2431 1.403 . S
H2429 C2435 0.930 . S
C2430 H2416 0.930 . S
C2430 C2428 1.395 . S
C2430 C2433 1.403 . S
C2431 C2428 1.403 . S
C2431 C2432 1.524 . S
C2431 C2435 1.400 . S
C2432 H2417 0.960 . S
C2432 H2418 0.960 . S
C2432 H2419 0.960 . S
C2432 C2431 1.524 . S
C2433 C2430 1.403 . S
C2433 C2434 1.392 . S
C2433 C2437 1.495 . S
C2434 C2433 1.392 . S
C2434 C2435 1.385 . S
C2434 C2436 1.478 . S
C2435 H2429 0.930 . S
C2435 C2431 1.400 . S
C2435 C2434 1.385 . S
C2436 C2434 1.478 . S
C2436 C2438 1.381 . S
C2436 C2442 1.383 . S
C2437 C2433 1.495 . S
C2437 H2443 0.959 . S
C2437 H2444 0.961 . S
C2437 H2445 0.960 . S
C2438 C2436 1.381 . S
C2438 C2439 1.394 . S
C2438 H2446 0.930 . S
C2439 C2438 1.394 . S
C2439 C2440 1.383 . S
C2439 H2447 0.929 . S
C2440 C2439 1.383 . S
C2440 C2441 1.377 . S
C2441 H2425 0.930 . S
C2441 C2440 1.377 . S
C2441 C2442 1.379 . S
C2442 H2426 0.931 . S
C2442 C2436 1.383 . S
C2442 C2441 1.379 . S
H2443 C2437 0.959 . S
H2444 C2437 0.961 . S
H2445 C2437 0.960 . S
H2446 C2438 0.930 . S
H2447 C2439 0.929 . S
H2448 C2456 0.929 . S
H2449 C2458 0.930 . S
H2450 C2460 0.930 . S
H2451 C2463 0.929 . S
H2452 C2466 0.930 . S
H2453 C2468 0.960 . S
H2454 C2468 0.960 . S
H2455 C2468 0.960 . S
C2456 H2448 0.929 . S
C2456 C2457 1.377 . S
C2456 C2458 1.384 . S
C2457 C2456 1.377 . S
C2457 C2463 1.390 . S
C2458 H2449 0.930 . S
C2458 C2456 1.384 . S
C2458 C2459 1.372 . S
C2459 C2458 1.372 . S
C2459 C2460 1.400 . S
C2459 C2464 1.490 . S
C2460 H2450 0.930 . S
C2460 C2459 1.400 . S
C2460 C2463 1.386 . S
H2461 C2477 0.930 . S
H2462 C2478 0.931 . S
C2463 H2451 0.929 . S
C2463 C2457 1.390 . S
C2463 C2460 1.386 . S
C2464 C2459 1.490 . S
C2464 C2466 1.395 . S
C2464 C2467 1.403 . S
H2465 C2471 0.930 . S
C2466 H2452 0.930 . S
C2466 C2464 1.395 . S
C2466 C2469 1.403 . S
C2467 C2464 1.403 . S
C2467 C2468 1.524 . S
C2467 C2471 1.400 . S
C2468 H2453 0.960 . S
C2468 H2454 0.960 . S
C2468 H2455 0.960 . S
C2468 C2467 1.524 . S
C2469 C2466 1.403 . S
C2469 C2470 1.392 . S
C2469 C2473 1.495 . S
C2470 C2469 1.392 . S
C2470 C2471 1.385 . S
C2470 C2472 1.478 . S
C2471 H2465 0.930 . S
C2471 C2467 1.400 . S
C2471 C2470 1.385 . S
C2472 C2470 1.478 . S
C2472 C2474 1.381 . S
C2472 C2478 1.383 . S
C2473 C2469 1.495 . S
C2473 H2479 0.959 . S
C2473 H2480 0.961 . S
C2473 H2481 0.960 . S
C2474 C2472 1.381 . S
C2474 C2475 1.394 . S
C2474 H2482 0.930 . S
C2475 C2474 1.394 . S
C2475 C2476 1.383 . S
C2475 H2483 0.929 . S
C2476 C2475 1.383 . S
C2476 C2477 1.377 . S
C2477 H2461 0.930 . S
C2477 C2476 1.377 . S
C2477 C2478 1.379 . S
C2478 H2462 0.931 . S
C2478 C2472 1.383 . S
C2478 C2477 1.379 . S
H2479 C2473 0.959 . S
H2480 C2473 0.961 . S
H2481 C2473 0.960 . S
H2482 C2474 0.930 . S
H2483 C2475 0.929 . S
H2484 C2492 0.929 . S
H2485 C2494 0.930 . S
H2486 C2496 0.930 . S
H2487 C2499 0.929 . S
H2488 C2502 0.930 . S
H2489 C2504 0.960 . S
H2490 C2504 0.960 . S
H2491 C2504 0.960 . S
C2492 H2484 0.929 . S
C2492 C2493 1.377 1_565 S
C2492 C2494 1.384 . S
C2493 C2492 1.377 1_545 S
C2493 C2499 1.390 . S
C2494 H2485 0.930 . S
C2494 C2492 1.384 . S
C2494 C2495 1.372 1_565 S
C2495 C2494 1.372 1_545 S
C2495 C2496 1.400 . S
C2495 C2500 1.490 . S
C2496 H2486 0.930 . S
C2496 C2495 1.400 . S
C2496 C2499 1.386 . S
H2497 C2513 0.930 . S
H2498 C2514 0.931 . S
C2499 H2487 0.929 . S
C2499 C2493 1.390 . S
C2499 C2496 1.386 . S
C2500 C2495 1.490 . S
C2500 C2502 1.395 1_545 S
C2500 C2503 1.403 . S
H2501 C2507 0.930 . S
C2502 H2488 0.930 . S
C2502 C2500 1.395 1_565 S
C2502 C2505 1.403 . S
C2503 C2500 1.403 . S
C2503 C2504 1.524 . S
C2503 C2507 1.400 . S
C2504 H2489 0.960 . S
C2504 H2490 0.960 . S
C2504 H2491 0.960 . S
C2504 C2503 1.524 . S
C2505 C2502 1.403 . S
C2505 C2506 1.392 . S
C2505 C2509 1.495 . S
C2506 C2505 1.392 . S
C2506 C2507 1.385 1_565 S
C2506 C2508 1.478 . S
C2507 H2501 0.930 . S
C2507 C2503 1.400 . S
C2507 C2506 1.385 1_545 S
C2508 C2506 1.478 . S
C2508 C2510 1.381 . S
C2508 C2514 1.383 1_565 S
C2509 C2505 1.495 . S
C2509 H2515 0.959 . S
C2509 H2516 0.961 . S
C2509 H2517 0.960 . S
C2510 C2508 1.381 . S
C2510 C2511 1.394 . S
C2510 H2518 0.930 . S
C2511 C2510 1.394 . S
C2511 C2512 1.383 . S
C2511 H2519 0.929 . S
C2512 C2511 1.383 . S
C2512 C2513 1.377 1_565 S
C2513 H2497 0.930 . S
C2513 C2512 1.377 1_545 S
C2513 C2514 1.379 . S
C2514 H2498 0.931 . S
C2514 C2508 1.383 1_545 S
C2514 C2513 1.379 . S
H2515 C2509 0.959 . S
H2516 C2509 0.961 . S
H2517 C2509 0.960 . S
H2518 C2510 0.930 . S
H2519 C2511 0.929 . S
H2520 C2528 0.929 . S
H2521 C2530 0.930 . S
H2522 C2532 0.930 . S
H2523 C2535 0.929 . S
H2524 C2538 0.930 . S
H2525 C2540 0.960 . S
H2526 C2540 0.960 . S
H2527 C2540 0.960 . S
C2528 H2520 0.929 . S
C2528 C2529 1.377 1_655 S
C2528 C2530 1.384 . S
C2529 C2528 1.377 1_455 S
C2529 C2535 1.390 . S
C2530 H2521 0.930 . S
C2530 C2528 1.384 . S
C2530 C2531 1.372 1_655 S
C2531 C2530 1.372 1_455 S
C2531 C2532 1.400 . S
C2531 C2536 1.490 . S
C2532 H2522 0.930 . S
C2532 C2531 1.400 . S
C2532 C2535 1.386 . S
H2533 C2549 0.930 . S
H2534 C2550 0.931 . S
C2535 H2523 0.929 . S
C2535 C2529 1.390 . S
C2535 C2532 1.386 . S
C2536 C2531 1.490 . S
C2536 C2538 1.395 1_455 S
C2536 C2539 1.403 . S
H2537 C2543 0.930 . S
C2538 H2524 0.930 . S
C2538 C2536 1.395 1_655 S
C2538 C2541 1.403 . S
C2539 C2536 1.403 . S
C2539 C2540 1.524 . S
C2539 C2543 1.400 . S
C2540 H2525 0.960 . S
C2540 H2526 0.960 . S
C2540 H2527 0.960 . S
C2540 C2539 1.524 . S
C2541 C2538 1.403 . S
C2541 C2542 1.392 . S
C2541 C2545 1.495 . S
C2542 C2541 1.392 . S
C2542 C2543 1.385 1_655 S
C2542 C2544 1.478 . S
C2543 H2537 0.930 . S
C2543 C2539 1.400 . S
C2543 C2542 1.385 1_455 S
C2544 C2542 1.478 . S
C2544 C2546 1.381 . S
C2544 C2550 1.383 1_655 S
C2545 C2541 1.495 . S
C2545 H2551 0.959 . S
C2545 H2552 0.961 . S
C2545 H2553 0.960 . S
C2546 C2544 1.381 . S
C2546 C2547 1.394 . S
C2546 H2554 0.930 . S
C2547 C2546 1.394 . S
C2547 C2548 1.383 . S
C2547 H2555 0.929 . S
C2548 C2547 1.383 . S
C2548 C2549 1.377 1_655 S
C2549 H2533 0.930 . S
C2549 C2548 1.377 1_455 S
C2549 C2550 1.379 . S
C2550 H2534 0.931 . S
C2550 C2544 1.383 1_455 S
C2550 C2549 1.379 . S
H2551 C2545 0.959 . S
H2552 C2545 0.961 . S
H2553 C2545 0.960 . S
H2554 C2546 0.930 . S
H2555 C2547 0.929 . S
H2556 C2564 0.929 . S
H2557 C2566 0.930 . S
H2558 C2568 0.930 . S
H2559 C2571 0.929 . S
H2560 C2574 0.930 . S
H2561 C2576 0.960 . S
H2562 C2576 0.960 . S
H2563 C2576 0.960 . S
C2564 H2556 0.929 . S
C2564 C2565 1.377 . S
C2564 C2566 1.384 . S
C2565 C2564 1.377 . S
C2565 C2571 1.390 . S
C2566 H2557 0.930 . S
C2566 C2564 1.384 . S
C2566 C2567 1.372 . S
C2567 C2566 1.372 . S
C2567 C2568 1.400 . S
C2567 C2572 1.490 . S
C2568 H2558 0.930 . S
C2568 C2567 1.400 . S
C2568 C2571 1.386 . S
H2569 C2585 0.930 . S
H2570 C2586 0.931 . S
C2571 H2559 0.929 . S
C2571 C2565 1.390 . S
C2571 C2568 1.386 . S
C2572 C2567 1.490 . S
C2572 C2574 1.395 . S
C2572 C2575 1.403 . S
H2573 C2579 0.930 . S
C2574 H2560 0.930 . S
C2574 C2572 1.395 . S
C2574 C2577 1.403 . S
C2575 C2572 1.403 . S
C2575 C2576 1.524 . S
C2575 C2579 1.400 . S
C2576 H2561 0.960 . S
C2576 H2562 0.960 . S
C2576 H2563 0.960 . S
C2576 C2575 1.524 . S
C2577 C2574 1.403 . S
C2577 C2578 1.392 . S
C2577 C2581 1.495 . S
C2578 C2577 1.392 . S
C2578 C2579 1.385 . S
C2578 C2580 1.478 . S
C2579 H2573 0.930 . S
C2579 C2575 1.400 . S
C2579 C2578 1.385 . S
C2580 C2578 1.478 . S
C2580 C2582 1.381 . S
C2580 C2586 1.383 . S
C2581 C2577 1.495 . S
C2581 H2587 0.959 . S
C2581 H2588 0.961 . S
C2581 H2589 0.960 . S
C2582 C2580 1.381 . S
C2582 C2583 1.394 . S
C2582 H2590 0.930 . S
C2583 C2582 1.394 . S
C2583 C2584 1.383 . S
C2583 H2591 0.929 . S
C2584 C2583 1.383 . S
C2584 C2585 1.377 . S
C2585 H2569 0.930 . S
C2585 C2584 1.377 . S
C2585 C2586 1.379 . S
C2586 H2570 0.931 . S
C2586 C2580 1.383 . S
C2586 C2585 1.379 . S
H2587 C2581 0.959 . S
H2588 C2581 0.961 . S
H2589 C2581 0.960 . S
H2590 C2582 0.930 . S
H2591 C2583 0.929 . S
H2592 C2600 0.929 . S
H2593 C2602 0.903 1_565 S
H2594 C2604 0.930 . S
H2595 C2607 0.929 . S
H2596 C2610 0.930 . S
H2597 C2612 0.960 . S
H2598 C2612 0.960 . S
H2599 C2612 0.960 . S
C2600 H2592 0.929 . S
C2600 C2601 1.377 . S
C2600 C2602 1.384 . S
C2601 C2600 1.377 . S
C2601 C2607 1.390 . S
C2602 H2593 0.903 1_545 S
C2602 C2600 1.384 . S
C2602 C2603 1.372 . S
C2603 C2602 1.372 . S
C2603 C2604 1.400 . S
C2603 C2608 1.490 . S
C2604 H2594 0.930 . S
C2604 C2603 1.400 . S
C2604 C2607 1.386 . S
H2605 C2621 0.931 1_545 S
H2606 C2622 0.931 . S
C2607 H2595 0.929 . S
C2607 C2601 1.390 . S
C2607 C2604 1.386 . S
C2608 C2603 1.490 . S
C2608 C2610 1.395 . S
C2608 C2611 1.403 1_545 S
H2609 C2615 0.930 . S
C2610 H2596 0.930 . S
C2610 C2608 1.395 . S
C2610 C2613 1.403 . S
C2611 C2608 1.403 1_565 S
C2611 C2612 1.524 . S
C2611 C2615 1.400 . S
C2612 H2597 0.960 . S
C2612 H2598 0.960 . S
C2612 H2599 0.960 . S
C2612 C2611 1.524 . S
C2613 C2610 1.403 . S
C2613 C2614 1.385 1_545 S
C2613 C2617 1.495 . S
C2614 C2613 1.385 1_565 S
C2614 C2615 1.391 . S
C2614 C2616 1.480 . S
C2615 H2609 0.930 . S
C2615 C2611 1.400 . S
C2615 C2614 1.391 . S
C2616 C2614 1.480 . S
C2616 C2618 1.381 . S
C2616 C2622 1.383 1_565 S
C2617 C2613 1.495 . S
C2617 H2623 0.959 . S
C2617 H2624 0.961 . S
C2617 H2625 0.960 . S
C2618 C2616 1.381 . S
C2618 C2619 1.394 . S
C2618 H2626 0.930 . S
C2619 C2618 1.394 . S
C2619 C2620 1.383 . S
C2619 H2627 0.929 . S
C2620 C2619 1.383 . S
C2620 C2621 1.377 . S
C2621 H2605 0.931 1_565 S
C2621 C2620 1.377 . S
C2621 C2622 1.379 1_565 S
C2622 H2606 0.931 . S
C2622 C2616 1.383 1_545 S
C2622 C2621 1.379 1_545 S
H2623 C2617 0.959 . S
H2624 C2617 0.961 . S
H2625 C2617 0.960 . S
H2626 C2618 0.930 . S
H2627 C2619 0.929 . S
H2628 C2636 0.929 . S
H2629 C2638 0.930 . S
H2630 C2640 0.934 . S
H2631 C2643 0.929 1_455 S
H2632 C2646 0.930 . S
H2633 C2648 0.960 . S
H2634 C2648 0.960 . S
H2635 C2648 0.960 . S
C2636 H2628 0.929 . S
C2636 C2637 1.377 . S
C2636 C2638 1.384 . S
C2637 C2636 1.377 . S
C2637 C2643 1.390 . S
C2638 H2629 0.930 . S
C2638 C2636 1.384 . S
C2638 C2639 1.372 . S
C2639 C2638 1.372 . S
C2639 C2640 1.396 1_655 S
C2639 C2644 1.490 . S
C2640 H2630 0.934 . S
C2640 C2639 1.396 1_455 S
C2640 C2643 1.385 1_455 S
H2641 C2657 0.930 . S
H2642 C2658 0.931 . S
C2643 H2631 0.929 1_655 S
C2643 C2637 1.390 . S
C2643 C2640 1.385 1_655 S
C2644 C2639 1.490 . S
C2644 C2646 1.395 . S
C2644 C2647 1.403 1_655 S
H2645 C2651 0.930 . S
C2646 H2632 0.930 . S
C2646 C2644 1.395 . S
C2646 C2649 1.403 . S
C2647 C2644 1.403 1_455 S
C2647 C2648 1.524 . S
C2647 C2651 1.400 . S
C2648 H2633 0.960 . S
C2648 H2634 0.960 . S
C2648 H2635 0.960 . S
C2648 C2647 1.524 . S
C2649 C2646 1.403 . S
C2649 C2650 1.447 . S
C2649 C2653 1.495 . S
C2650 C2649 1.447 . S
C2650 C2651 1.337 1_655 S
C2650 C2652 1.470 1_655 S
C2651 H2645 0.930 . S
C2651 C2647 1.400 . S
C2651 C2650 1.337 1_455 S
C2652 C2650 1.470 1_455 S
C2652 C2654 1.381 1_455 S
C2652 C2658 1.383 . S
C2653 C2649 1.495 . S
C2653 H2659 0.959 . S
C2653 H2660 0.961 . S
C2653 H2661 0.960 . S
C2654 C2652 1.381 1_655 S
C2654 C2655 1.394 1_655 S
C2654 H2662 0.930 . S
C2655 C2654 1.394 1_455 S
C2655 C2656 1.383 . S
C2655 H2663 0.941 . S
C2656 C2655 1.383 . S
C2656 C2657 1.377 . S
C2657 H2641 0.930 . S
C2657 C2656 1.377 . S
C2657 C2658 1.379 . S
C2658 H2642 0.931 . S
C2658 C2652 1.383 . S
C2658 C2657 1.379 . S
H2659 C2653 0.959 . S
H2660 C2653 0.961 . S
H2661 C2653 0.960 . S
H2662 C2654 0.930 . S
H2663 C2655 0.941 . S
H2664 C2672 0.929 . S
H2665 C2674 0.930 . S
H2666 C2676 0.930 . S
H2667 C2679 0.929 . S
H2668 C2682 0.930 . S
H2669 C2684 0.960 . S
H2670 C2684 0.960 . S
H2671 C2684 0.960 . S
C2672 H2664 0.929 . S
C2672 C2673 1.377 . S
C2672 C2674 1.384 . S
C2673 C2672 1.377 . S
C2673 C2679 1.390 . S
C2674 H2665 0.930 . S
C2674 C2672 1.384 . S
C2674 C2675 1.372 . S
C2675 C2674 1.372 . S
C2675 C2676 1.400 . S
C2675 C2680 1.490 . S
C2676 H2666 0.930 . S
C2676 C2675 1.400 . S
C2676 C2679 1.386 . S
H2677 C2693 0.930 . S
H2678 C2694 0.931 . S
C2679 H2667 0.929 . S
C2679 C2673 1.390 . S
C2679 C2676 1.386 . S
C2680 C2675 1.490 . S
C2680 C2682 1.395 . S
C2680 C2683 1.403 . S
H2681 C2687 0.930 . S
C2682 H2668 0.930 . S
C2682 C2680 1.395 . S
C2682 C2685 1.403 . S
C2683 C2680 1.403 . S
C2683 C2684 1.524 . S
C2683 C2687 1.400 . S
C2684 H2669 0.960 . S
C2684 H2670 0.960 . S
C2684 H2671 0.960 . S
C2684 C2683 1.524 . S
C2685 C2682 1.403 . S
C2685 C2686 1.392 . S
C2685 C2689 1.495 . S
C2686 C2685 1.392 . S
C2686 C2687 1.385 . S
C2686 C2688 1.478 . S
C2687 H2681 0.930 . S
C2687 C2683 1.400 . S
C2687 C2686 1.385 . S
C2688 C2686 1.478 . S
C2688 C2690 1.381 . S
C2688 C2694 1.383 . S
C2689 C2685 1.495 . S
C2689 H2695 0.959 . S
C2689 H2696 0.961 . S
C2689 H2697 0.960 . S
C2690 C2688 1.381 . S
C2690 C2691 1.394 . S
C2690 H2698 0.930 . S
C2691 C2690 1.394 . S
C2691 C2692 1.383 . S
C2691 H2699 0.929 . S
C2692 C2691 1.383 . S
C2692 C2693 1.377 . S
C2693 H2677 0.930 . S
C2693 C2692 1.377 . S
C2693 C2694 1.379 . S
C2694 H2678 0.931 . S
C2694 C2688 1.383 . S
C2694 C2693 1.379 . S
H2695 C2689 0.959 . S
H2696 C2689 0.961 . S
H2697 C2689 0.960 . S
H2698 C2690 0.930 . S
H2699 C2691 0.929 . S
H2700 C2708 0.929 . S
H2701 C2710 0.930 . S
H2702 C2712 0.930 . S
H2703 C2715 0.929 . S
H2704 C2718 0.930 . S
H2705 C2720 0.960 . S
H2706 C2720 0.960 . S
H2707 C2720 0.960 . S
C2708 H2700 0.929 . S
C2708 C2709 1.377 . S
C2708 C2710 1.384 . S
C2709 C2708 1.377 . S
C2709 C2715 1.390 . S
C2710 H2701 0.930 . S
C2710 C2708 1.384 . S
C2710 C2711 1.372 . S
C2711 C2710 1.372 . S
C2711 C2712 1.400 . S
C2711 C2716 1.490 . S
C2712 H2702 0.930 . S
C2712 C2711 1.400 . S
C2712 C2715 1.386 . S
H2713 C2729 0.930 . S
H2714 C2730 0.931 . S
C2715 H2703 0.929 . S
C2715 C2709 1.390 . S
C2715 C2712 1.386 . S
C2716 C2711 1.490 . S
C2716 C2718 1.395 . S
C2716 C2719 1.403 . S
H2717 C2723 0.930 . S
C2718 H2704 0.930 . S
C2718 C2716 1.395 . S
C2718 C2721 1.403 . S
C2719 C2716 1.403 . S
C2719 C2720 1.524 . S
C2719 C2723 1.400 . S
C2720 H2705 0.960 . S
C2720 H2706 0.960 . S
C2720 H2707 0.960 . S
C2720 C2719 1.524 . S
C2721 C2718 1.403 . S
C2721 C2722 1.392 . S
C2721 C2725 1.495 . S
C2722 C2721 1.392 . S
C2722 C2723 1.385 . S
C2722 C2724 1.478 . S
C2723 H2717 0.930 . S
C2723 C2719 1.400 . S
C2723 C2722 1.385 . S
C2724 C2722 1.478 . S
C2724 C2726 1.381 . S
C2724 C2730 1.383 . S
C2725 C2721 1.495 . S
C2725 H2731 0.959 . S
C2725 H2732 0.961 . S
C2725 H2733 0.960 . S
C2726 C2724 1.381 . S
C2726 C2727 1.394 . S
C2726 H2734 0.930 . S
C2727 C2726 1.394 . S
C2727 C2728 1.383 . S
C2727 H2735 0.929 . S
C2728 C2727 1.383 . S
C2728 C2729 1.377 . S
C2729 H2713 0.930 . S
C2729 C2728 1.377 . S
C2729 C2730 1.379 . S
C2730 H2714 0.931 . S
C2730 C2724 1.383 . S
C2730 C2729 1.379 . S
H2731 C2725 0.959 . S
H2732 C2725 0.961 . S
H2733 C2725 0.960 . S
H2734 C2726 0.930 . S
H2735 C2727 0.929 . S
H2736 C2744 0.929 . S
H2737 C2746 0.930 . S
H2738 C2748 0.930 . S
H2739 C2751 0.929 . S
H2740 C2754 0.930 . S
H2741 C2756 0.960 . S
H2742 C2756 0.960 . S
H2743 C2756 0.960 . S
C2744 H2736 0.929 . S
C2744 C2745 1.377 . S
C2744 C2746 1.384 . S
C2745 C2744 1.377 . S
C2745 C2751 1.390 . S
C2746 H2737 0.930 . S
C2746 C2744 1.384 . S
C2746 C2747 1.372 . S
C2747 C2746 1.372 . S
C2747 C2748 1.400 . S
C2747 C2752 1.490 . S
C2748 H2738 0.930 . S
C2748 C2747 1.400 . S
C2748 C2751 1.386 . S
H2749 C2765 0.930 . S
H2750 C2766 0.931 . S
C2751 H2739 0.929 . S
C2751 C2745 1.390 . S
C2751 C2748 1.386 . S
C2752 C2747 1.490 . S
C2752 C2754 1.395 . S
C2752 C2755 1.403 . S
H2753 C2759 0.930 . S
C2754 H2740 0.930 . S
C2754 C2752 1.395 . S
C2754 C2757 1.403 . S
C2755 C2752 1.403 . S
C2755 C2756 1.524 . S
C2755 C2759 1.400 . S
C2756 H2741 0.960 . S
C2756 H2742 0.960 . S
C2756 H2743 0.960 . S
C2756 C2755 1.524 . S
C2757 C2754 1.403 . S
C2757 C2758 1.392 . S
C2757 C2761 1.495 . S
C2758 C2757 1.392 . S
C2758 C2759 1.385 . S
C2758 C2760 1.478 . S
C2759 H2753 0.930 . S
C2759 C2755 1.400 . S
C2759 C2758 1.385 . S
C2760 C2758 1.478 . S
C2760 C2762 1.381 . S
C2760 C2766 1.383 . S
C2761 C2757 1.495 . S
C2761 H2767 0.959 . S
C2761 H2768 0.961 . S
C2761 H2769 0.960 . S
C2762 C2760 1.381 . S
C2762 C2763 1.394 . S
C2762 H2770 0.930 . S
C2763 C2762 1.394 . S
C2763 C2764 1.383 . S
C2763 H2771 0.929 . S
C2764 C2763 1.383 . S
C2764 C2765 1.377 . S
C2765 H2749 0.930 . S
C2765 C2764 1.377 . S
C2765 C2766 1.379 . S
C2766 H2750 0.931 . S
C2766 C2760 1.383 . S
C2766 C2765 1.379 . S
H2767 C2761 0.959 . S
H2768 C2761 0.961 . S
H2769 C2761 0.960 . S
H2770 C2762 0.930 . S
H2771 C2763 0.929 . S
H2772 C2780 0.929 . S
H2773 C2782 0.930 . S
H2774 C2784 0.930 . S
H2775 C2787 0.929 . S
H2776 C2790 0.930 . S
H2777 C2792 0.960 . S
H2778 C2792 0.960 . S
H2779 C2792 0.960 . S
C2780 H2772 0.929 . S
C2780 C2781 1.377 . S
C2780 C2782 1.384 . S
C2781 C2780 1.377 . S
C2781 C2787 1.390 . S
C2782 H2773 0.930 . S
C2782 C2780 1.384 . S
C2782 C2783 1.372 . S
C2783 C2782 1.372 . S
C2783 C2784 1.400 . S
C2783 C2788 1.490 . S
C2784 H2774 0.930 . S
C2784 C2783 1.400 . S
C2784 C2787 1.386 . S
H2785 C2801 0.930 . S
H2786 C2802 0.931 . S
C2787 H2775 0.929 . S
C2787 C2781 1.390 . S
C2787 C2784 1.386 . S
C2788 C2783 1.490 . S
C2788 C2790 1.395 . S
C2788 C2791 1.403 . S
H2789 C2795 0.930 . S
C2790 H2776 0.930 . S
C2790 C2788 1.395 . S
C2790 C2793 1.403 . S
C2791 C2788 1.403 . S
C2791 C2792 1.524 . S
C2791 C2795 1.400 . S
C2792 H2777 0.960 . S
C2792 H2778 0.960 . S
C2792 H2779 0.960 . S
C2792 C2791 1.524 . S
C2793 C2790 1.403 . S
C2793 C2794 1.392 . S
C2793 C2797 1.495 . S
C2794 C2793 1.392 . S
C2794 C2795 1.385 . S
C2794 C2796 1.478 . S
C2795 H2789 0.930 . S
C2795 C2791 1.400 . S
C2795 C2794 1.385 . S
C2796 C2794 1.478 . S
C2796 C2798 1.381 . S
C2796 C2802 1.383 . S
C2797 C2793 1.495 . S
C2797 H2803 0.959 . S
C2797 H2804 0.961 . S
C2797 H2805 0.960 . S
C2798 C2796 1.381 . S
C2798 C2799 1.394 1_554 S
C2798 H2806 0.930 . S
C2799 C2798 1.394 1_556 S
C2799 C2800 1.383 . S
C2799 H2807 0.929 . S
C2800 C2799 1.383 . S
C2800 C2801 1.377 . S
C2801 H2785 0.930 . S
C2801 C2800 1.377 . S
C2801 C2802 1.379 1_556 S
C2802 H2786 0.931 . S
C2802 C2796 1.383 . S
C2802 C2801 1.379 1_554 S
H2803 C2797 0.959 . S
H2804 C2797 0.961 . S
H2805 C2797 0.960 . S
H2806 C2798 0.930 . S
H2807 C2799 0.929 . S
H2808 C2816 0.929 . S
H2809 C2818 0.930 . S
H2810 C2820 0.930 . S
H2811 C2823 0.929 . S
H2812 C2826 0.930 . S
H2813 C2828 0.960 . S
H2814 C2828 0.960 . S
H2815 C2828 0.960 . S
C2816 H2808 0.929 . S
C2816 C2817 1.377 . S
C2816 C2818 1.384 . S
C2817 C2816 1.377 . S
C2817 C2823 1.390 . S
C2818 H2809 0.930 . S
C2818 C2816 1.384 . S
C2818 C2819 1.372 . S
C2819 C2818 1.372 . S
C2819 C2820 1.400 . S
C2819 C2824 1.490 . S
C2820 H2810 0.930 . S
C2820 C2819 1.400 . S
C2820 C2823 1.386 . S
H2821 C2837 0.930 . S
H2822 C2838 0.931 . S
C2823 H2811 0.929 . S
C2823 C2817 1.390 . S
C2823 C2820 1.386 . S
C2824 C2819 1.490 . S
C2824 C2826 1.395 . S
C2824 C2827 1.403 . S
H2825 C2831 0.930 . S
C2826 H2812 0.930 . S
C2826 C2824 1.395 . S
C2826 C2829 1.403 . S
C2827 C2824 1.403 . S
C2827 C2828 1.524 . S
C2827 C2831 1.400 . S
C2828 H2813 0.960 . S
C2828 H2814 0.960 . S
C2828 H2815 0.960 . S
C2828 C2827 1.524 . S
C2829 C2826 1.403 . S
C2829 C2830 1.392 . S
C2829 C2833 1.495 . S
C2830 C2829 1.392 . S
C2830 C2831 1.385 . S
C2830 C2832 1.478 . S
C2831 H2825 0.930 . S
C2831 C2827 1.400 . S
C2831 C2830 1.385 . S
C2832 C2830 1.478 . S
C2832 C2834 1.381 . S
C2832 C2838 1.383 . S
C2833 C2829 1.495 . S
C2833 H2839 0.959 . S
C2833 H2840 0.961 . S
C2833 H2841 0.960 . S
C2834 C2832 1.381 . S
C2834 C2835 1.394 1_554 S
C2834 H2842 0.930 . S
C2835 C2834 1.394 1_556 S
C2835 C2836 1.383 . S
C2835 H2843 0.929 . S
C2836 C2835 1.383 . S
C2836 C2837 1.377 . S
C2837 H2821 0.930 . S
C2837 C2836 1.377 . S
C2837 C2838 1.379 1_556 S
C2838 H2822 0.931 . S
C2838 C2832 1.383 . S
C2838 C2837 1.379 1_554 S
H2839 C2833 0.959 . S
H2840 C2833 0.961 . S
H2841 C2833 0.960 . S
H2842 C2834 0.930 . S
H2843 C2835 0.929 . S
H2844 C2852 0.929 . S
H2845 C2854 0.930 . S
H2846 C2856 0.930 . S
H2847 C2859 0.929 . S
H2848 C2862 0.930 . S
H2849 C2864 0.960 . S
H2850 C2864 0.960 . S
H2851 C2864 0.960 . S
C2852 H2844 0.929 . S
C2852 C2853 1.377 . S
C2852 C2854 1.384 . S
C2853 C2852 1.377 . S
C2853 C2859 1.390 . S
C2854 H2845 0.930 . S
C2854 C2852 1.384 . S
C2854 C2855 1.372 . S
C2855 C2854 1.372 . S
C2855 C2856 1.400 . S
C2855 C2860 1.490 . S
C2856 H2846 0.930 . S
C2856 C2855 1.400 . S
C2856 C2859 1.386 . S
H2857 C2873 0.930 . S
H2858 C2874 0.931 . S
C2859 H2847 0.929 . S
C2859 C2853 1.390 . S
C2859 C2856 1.386 . S
C2860 C2855 1.490 . S
C2860 C2862 1.395 . S
C2860 C2863 1.403 . S
H2861 C2867 0.930 . S
C2862 H2848 0.930 . S
C2862 C2860 1.395 . S
C2862 C2865 1.403 . S
C2863 C2860 1.403 . S
C2863 C2864 1.524 . S
C2863 C2867 1.400 . S
C2864 H2849 0.960 . S
C2864 H2850 0.960 . S
C2864 H2851 0.960 . S
C2864 C2863 1.524 . S
C2865 C2862 1.403 . S
C2865 C2866 1.392 . S
C2865 C2869 1.495 . S
C2866 C2865 1.392 . S
C2866 C2867 1.385 . S
C2866 C2868 1.478 . S
C2867 H2861 0.930 . S
C2867 C2863 1.400 . S
C2867 C2866 1.385 . S
C2868 C2866 1.478 . S
C2868 C2870 1.381 . S
C2868 C2874 1.383 . S
C2869 C2865 1.495 . S
C2869 H2875 0.959 . S
C2869 H2876 0.961 . S
C2869 H2877 0.960 . S
C2870 C2868 1.381 . S
C2870 C2871 1.394 1_554 S
C2870 H2878 0.930 . S
C2871 C2870 1.394 1_556 S
C2871 C2872 1.383 . S
C2871 H2879 0.929 . S
C2872 C2871 1.383 . S
C2872 C2873 1.377 . S
C2873 H2857 0.930 . S
C2873 C2872 1.377 . S
C2873 C2874 1.379 1_556 S
C2874 H2858 0.931 . S
C2874 C2868 1.383 . S
C2874 C2873 1.379 1_554 S
H2875 C2869 0.959 . S
H2876 C2869 0.961 . S
H2877 C2869 0.960 . S
H2878 C2870 0.930 . S
H2879 C2871 0.929 . S
H2880 C2888 0.929 . S
H2881 C2890 0.930 . S
H2882 C2892 0.930 . S
H2883 C2895 0.929 . S
H2884 C2898 0.930 . S
H2885 C2900 0.960 . S
H2886 C2900 0.960 . S
H2887 C2900 0.960 . S
C2888 H2880 0.929 . S
C2888 C2889 1.377 . S
C2888 C2890 1.384 1_554 S
C2889 C2888 1.377 . S
C2889 C2895 1.390 . S
C2890 H2881 0.930 . S
C2890 C2888 1.384 1_556 S
C2890 C2891 1.372 . S
C2891 C2890 1.372 . S
C2891 C2892 1.400 . S
C2891 C2896 1.490 . S
C2892 H2882 0.930 . S
C2892 C2891 1.400 . S
C2892 C2895 1.386 1_556 S
H2893 C2909 0.930 . S
H2894 C2910 0.931 . S
C2895 H2883 0.929 . S
C2895 C2889 1.390 . S
C2895 C2892 1.386 1_554 S
C2896 C2891 1.490 . S
C2896 C2898 1.395 . S
C2896 C2899 1.403 . S
H2897 C2903 0.930 . S
C2898 H2884 0.930 . S
C2898 C2896 1.395 . S
C2898 C2901 1.403 . S
C2899 C2896 1.403 . S
C2899 C2900 1.524 . S
C2899 C2903 1.400 . S
C2900 H2885 0.960 . S
C2900 H2886 0.960 . S
C2900 H2887 0.960 . S
C2900 C2899 1.524 . S
C2901 C2898 1.403 . S
C2901 C2902 1.392 . S
C2901 C2905 1.495 . S
C2902 C2901 1.392 . S
C2902 C2903 1.385 . S
C2902 C2904 1.478 . S
C2903 H2897 0.930 . S
C2903 C2899 1.400 . S
C2903 C2902 1.385 . S
C2904 C2902 1.478 . S
C2904 C2906 1.381 . S
C2904 C2910 1.383 . S
C2905 C2901 1.495 . S
C2905 H2911 0.959 . S
C2905 H2912 0.961 . S
C2905 H2913 0.960 . S
C2906 C2904 1.381 . S
C2906 C2907 1.394 . S
C2906 H2914 0.930 . S
C2907 C2906 1.394 . S
C2907 C2908 1.383 . S
C2907 H2915 0.929 . S
C2908 C2907 1.383 . S
C2908 C2909 1.377 . S
C2909 H2893 0.930 . S
C2909 C2908 1.377 . S
C2909 C2910 1.379 . S
C2910 H2894 0.931 . S
C2910 C2904 1.383 . S
C2910 C2909 1.379 . S
H2911 C2905 0.959 . S
H2912 C2905 0.961 . S
H2913 C2905 0.960 . S
H2914 C2906 0.930 . S
H2915 C2907 0.929 . S
H2916 C2924 0.929 . S
H2917 C2926 0.930 . S
H2918 C2928 0.930 . S
H2919 C2931 0.929 . S
H2920 C2934 0.930 . S
H2921 C2936 0.960 . S
H2922 C2936 0.960 . S
H2923 C2936 0.960 . S
C2924 H2916 0.929 . S
C2924 C2925 1.377 . S
C2924 C2926 1.384 1_554 S
C2925 C2924 1.377 . S
C2925 C2931 1.390 . S
C2926 H2917 0.930 . S
C2926 C2924 1.384 1_556 S
C2926 C2927 1.372 . S
C2927 C2926 1.372 . S
C2927 C2928 1.400 . S
C2927 C2932 1.490 . S
C2928 H2918 0.930 . S
C2928 C2927 1.400 . S
C2928 C2931 1.386 1_556 S
H2929 C2945 0.930 . S
H2930 C2946 0.931 . S
C2931 H2919 0.929 . S
C2931 C2925 1.390 . S
C2931 C2928 1.386 1_554 S
C2932 C2927 1.490 . S
C2932 C2934 1.395 . S
C2932 C2935 1.403 . S
H2933 C2939 0.930 . S
C2934 H2920 0.930 . S
C2934 C2932 1.395 . S
C2934 C2937 1.403 . S
C2935 C2932 1.403 . S
C2935 C2936 1.524 . S
C2935 C2939 1.400 . S
C2936 H2921 0.960 . S
C2936 H2922 0.960 . S
C2936 H2923 0.960 . S
C2936 C2935 1.524 . S
C2937 C2934 1.403 . S
C2937 C2938 1.392 . S
C2937 C2941 1.495 . S
C2938 C2937 1.392 . S
C2938 C2939 1.385 . S
C2938 C2940 1.478 . S
C2939 H2933 0.930 . S
C2939 C2935 1.400 . S
C2939 C2938 1.385 . S
C2940 C2938 1.478 . S
C2940 C2942 1.381 . S
C2940 C2946 1.383 . S
C2941 C2937 1.495 . S
C2941 H2947 0.959 . S
C2941 H2948 0.961 . S
C2941 H2949 0.960 . S
C2942 C2940 1.381 . S
C2942 C2943 1.394 . S
C2942 H2950 0.930 . S
C2943 C2942 1.394 . S
C2943 C2944 1.383 . S
C2943 H2951 0.929 . S
C2944 C2943 1.383 . S
C2944 C2945 1.377 . S
C2945 H2929 0.930 . S
C2945 C2944 1.377 . S
C2945 C2946 1.379 . S
C2946 H2930 0.931 . S
C2946 C2940 1.383 . S
C2946 C2945 1.379 . S
H2947 C2941 0.959 . S
H2948 C2941 0.961 . S
H2949 C2941 0.960 . S
H2950 C2942 0.930 . S
H2951 C2943 0.929 . S
H2952 C2960 0.929 . S
H2953 C2962 0.930 . S
H2954 C2964 0.930 . S
H2955 C2967 0.929 . S
H2956 C2970 0.930 . S
H2957 C2972 0.960 . S
H2958 C2972 0.960 . S
H2959 C2972 0.960 . S
C2960 H2952 0.929 . S
C2960 C2961 1.377 . S
C2960 C2962 1.384 1_554 S
C2961 C2960 1.377 . S
C2961 C2967 1.390 . S
C2962 H2953 0.930 . S
C2962 C2960 1.384 1_556 S
C2962 C2963 1.372 . S
C2963 C2962 1.372 . S
C2963 C2964 1.400 . S
C2963 C2968 1.490 . S
C2964 H2954 0.930 . S
C2964 C2963 1.400 . S
C2964 C2967 1.386 1_556 S
H2965 C2981 0.930 . S
H2966 C2982 0.931 . S
C2967 H2955 0.929 . S
C2967 C2961 1.390 . S
C2967 C2964 1.386 1_554 S
C2968 C2963 1.490 . S
C2968 C2970 1.395 . S
C2968 C2971 1.403 . S
H2969 C2975 0.930 . S
C2970 H2956 0.930 . S
C2970 C2968 1.395 . S
C2970 C2973 1.403 . S
C2971 C2968 1.403 . S
C2971 C2972 1.524 . S
C2971 C2975 1.400 . S
C2972 H2957 0.960 . S
C2972 H2958 0.960 . S
C2972 H2959 0.960 . S
C2972 C2971 1.524 . S
C2973 C2970 1.403 . S
C2973 C2974 1.392 . S
C2973 C2977 1.495 . S
C2974 C2973 1.392 . S
C2974 C2975 1.385 . S
C2974 C2976 1.478 . S
C2975 H2969 0.930 . S
C2975 C2971 1.400 . S
C2975 C2974 1.385 . S
C2976 C2974 1.478 . S
C2976 C2978 1.381 . S
C2976 C2982 1.383 . S
C2977 C2973 1.495 . S
C2977 H2983 0.959 . S
C2977 H2984 0.961 . S
C2977 H2985 0.960 . S
C2978 C2976 1.381 . S
C2978 C2979 1.394 . S
C2978 H2986 0.930 . S
C2979 C2978 1.394 . S
C2979 C2980 1.383 . S
C2979 H2987 0.929 . S
C2980 C2979 1.383 . S
C2980 C2981 1.377 . S
C2981 H2965 0.930 . S
C2981 C2980 1.377 . S
C2981 C2982 1.379 . S
C2982 H2966 0.931 . S
C2982 C2976 1.383 . S
C2982 C2981 1.379 . S
H2983 C2977 0.959 . S
H2984 C2977 0.961 . S
H2985 C2977 0.960 . S
H2986 C2978 0.930 . S
H2987 C2979 0.929 . S
H2988 C2996 0.929 . S
H2989 C2998 0.930 . S
H2990 C3000 0.930 . S
H2991 C3003 0.929 . S
H2992 C3006 0.930 . S
H2993 C3008 0.960 . S
H2994 C3008 0.960 . S
H2995 C3008 0.960 . S
C2996 H2988 0.929 . S
C2996 C2997 1.377 . S
C2996 C2998 1.384 . S
C2997 C2996 1.377 . S
C2997 C3003 1.390 . S
C2998 H2989 0.930 . S
C2998 C2996 1.384 . S
C2998 C2999 1.372 . S
C2999 C2998 1.372 . S
C2999 C3000 1.400 . S
C2999 C3004 1.490 . S
C3000 H2990 0.930 . S
C3000 C2999 1.400 . S
C3000 C3003 1.386 . S
H3001 C3017 0.930 . S
H3002 C3018 0.931 . S
C3003 H2991 0.929 . S
C3003 C2997 1.390 . S
C3003 C3000 1.386 . S
C3004 C2999 1.490 . S
C3004 C3006 1.395 . S
C3004 C3007 1.403 . S
H3005 C3011 0.930 . S
C3006 H2992 0.930 . S
C3006 C3004 1.395 . S
C3006 C3009 1.403 . S
C3007 C3004 1.403 . S
C3007 C3008 1.524 . S
C3007 C3011 1.400 . S
C3008 H2993 0.960 . S
C3008 H2994 0.960 . S
C3008 H2995 0.960 . S
C3008 C3007 1.524 . S
C3009 C3006 1.403 . S
C3009 C3010 1.392 . S
C3009 C3013 1.495 . S
C3010 C3009 1.392 . S
C3010 C3011 1.385 . S
C3010 C3012 1.478 . S
C3011 H3005 0.930 . S
C3011 C3007 1.400 . S
C3011 C3010 1.385 . S
C3012 C3010 1.478 . S
C3012 C3014 1.381 . S
C3012 C3018 1.383 . S
C3013 C3009 1.495 . S
C3013 H3019 0.959 . S
C3013 H3020 0.961 . S
C3013 H3021 0.960 . S
C3014 C3012 1.381 . S
C3014 C3015 1.394 . S
C3014 H3022 0.930 . S
C3015 C3014 1.394 . S
C3015 C3016 1.383 . S
C3015 H3023 0.929 . S
C3016 C3015 1.383 . S
C3016 C3017 1.377 . S
C3017 H3001 0.930 . S
C3017 C3016 1.377 . S
C3017 C3018 1.379 . S
C3018 H3002 0.931 . S
C3018 C3012 1.383 . S
C3018 C3017 1.379 . S
H3019 C3013 0.959 . S
H3020 C3013 0.961 . S
H3021 C3013 0.960 . S
H3022 C3014 0.930 . S
H3023 C3015 0.929 . S
H3024 C3032 0.929 . S
H3025 C3034 0.930 . S
H3026 C3036 0.930 . S
H3027 C3039 0.929 . S
H3028 C3042 0.930 . S
H3029 C3044 0.960 . S
H3030 C3044 0.960 . S
H3031 C3044 0.960 . S
C3032 H3024 0.929 . S
C3032 C3033 1.377 . S
C3032 C3034 1.384 . S
C3033 C3032 1.377 . S
C3033 C3039 1.390 . S
C3034 H3025 0.930 . S
C3034 C3032 1.384 . S
C3034 C3035 1.372 . S
C3035 C3034 1.372 . S
C3035 C3036 1.400 . S
C3035 C3040 1.490 . S
C3036 H3026 0.930 . S
C3036 C3035 1.400 . S
C3036 C3039 1.386 . S
H3037 C3053 0.930 . S
H3038 C3054 0.931 . S
C3039 H3027 0.929 . S
C3039 C3033 1.390 . S
C3039 C3036 1.386 . S
C3040 C3035 1.490 . S
C3040 C3042 1.395 . S
C3040 C3043 1.403 . S
H3041 C3047 0.930 . S
C3042 H3028 0.930 . S
C3042 C3040 1.395 . S
C3042 C3045 1.403 . S
C3043 C3040 1.403 . S
C3043 C3044 1.524 . S
C3043 C3047 1.400 . S
C3044 H3029 0.960 . S
C3044 H3030 0.960 . S
C3044 H3031 0.960 . S
C3044 C3043 1.524 . S
C3045 C3042 1.403 . S
C3045 C3046 1.392 . S
C3045 C3049 1.495 . S
C3046 C3045 1.392 . S
C3046 C3047 1.385 . S
C3046 C3048 1.478 . S
C3047 H3041 0.930 . S
C3047 C3043 1.400 . S
C3047 C3046 1.385 . S
C3048 C3046 1.478 . S
C3048 C3050 1.381 . S
C3048 C3054 1.383 . S
C3049 C3045 1.495 . S
C3049 H3055 0.959 . S
C3049 H3056 0.961 . S
C3049 H3057 0.960 . S
C3050 C3048 1.381 . S
C3050 C3051 1.394 . S
C3050 H3058 0.930 . S
C3051 C3050 1.394 . S
C3051 C3052 1.383 . S
C3051 H3059 0.929 . S
C3052 C3051 1.383 . S
C3052 C3053 1.377 . S
C3053 H3037 0.930 . S
C3053 C3052 1.377 . S
C3053 C3054 1.379 . S
C3054 H3038 0.931 . S
C3054 C3048 1.383 . S
C3054 C3053 1.379 . S
H3055 C3049 0.959 . S
H3056 C3049 0.961 . S
H3057 C3049 0.960 . S
H3058 C3050 0.930 . S
H3059 C3051 0.929 . S
H3060 C3068 0.929 . S
H3061 C3070 0.930 . S
H3062 C3072 0.930 . S
H3063 C3075 0.929 . S
H3064 C3078 0.930 . S
H3065 C3080 0.960 . S
H3066 C3080 0.960 . S
H3067 C3080 0.960 . S
C3068 H3060 0.929 . S
C3068 C3069 1.377 . S
C3068 C3070 1.384 . S
C3069 C3068 1.377 . S
C3069 C3075 1.390 . S
C3070 H3061 0.930 . S
C3070 C3068 1.384 . S
C3070 C3071 1.372 . S
C3071 C3070 1.372 . S
C3071 C3072 1.400 . S
C3071 C3076 1.490 . S
C3072 H3062 0.930 . S
C3072 C3071 1.400 . S
C3072 C3075 1.386 . S
H3073 C3089 0.930 . S
H3074 C3090 0.931 . S
C3075 H3063 0.929 . S
C3075 C3069 1.390 . S
C3075 C3072 1.386 . S
C3076 C3071 1.490 . S
C3076 C3078 1.395 . S
C3076 C3079 1.403 . S
H3077 C3083 0.930 . S
C3078 H3064 0.930 . S
C3078 C3076 1.395 . S
C3078 C3081 1.403 . S
C3079 C3076 1.403 . S
C3079 C3080 1.524 . S
C3079 C3083 1.400 . S
C3080 H3065 0.960 . S
C3080 H3066 0.960 . S
C3080 H3067 0.960 . S
C3080 C3079 1.524 . S
C3081 C3078 1.403 . S
C3081 C3082 1.392 . S
C3081 C3085 1.495 . S
C3082 C3081 1.392 . S
C3082 C3083 1.385 . S
C3082 C3084 1.478 . S
C3083 H3077 0.930 . S
C3083 C3079 1.400 . S
C3083 C3082 1.385 . S
C3084 C3082 1.478 . S
C3084 C3086 1.381 . S
C3084 C3090 1.383 . S
C3085 C3081 1.495 . S
C3085 H3091 0.959 . S
C3085 H3092 0.961 . S
C3085 H3093 0.960 . S
C3086 C3084 1.381 . S
C3086 C3087 1.394 . S
C3086 H3094 0.930 . S
C3087 C3086 1.394 . S
C3087 C3088 1.383 . S
C3087 H3095 0.929 . S
C3088 C3087 1.383 . S
C3088 C3089 1.377 . S
C3089 H3073 0.930 . S
C3089 C3088 1.377 . S
C3089 C3090 1.379 . S
C3090 H3074 0.931 . S
C3090 C3084 1.383 . S
C3090 C3089 1.379 . S
H3091 C3085 0.959 . S
H3092 C3085 0.961 . S
H3093 C3085 0.960 . S
H3094 C3086 0.930 . S
H3095 C3087 0.929 . S
C513 C232 0.995 . S
C532 C8 1.002 1_556 S
C549 C246 0.994 . S
C568 C22 0.999 1_556 S
C585 C36 0.993 1_556 S
C604 C218 0.982 . S
C621 C372 0.993 . S
C640 C50 0.993 . S
C657 C344 0.993 . S
C676 C64 0.996 . S
C693 C78 0.993 . S
C712 C358 0.997 . S
C729 C484 0.996 . S
C748 C92 0.982 1_554 S
C765 C498 0.996 . S
C784 C106 0.985 1_554 S
C801 C470 0.992 . S
C820 C120 1.003 1_554 S
C837 C288 0.992 . S
C856 C134 1.003 . S
C873 C148 0.996 . S
C892 C260 0.986 . S
C909 C274 0.996 . S
C928 C162 0.989 . S
C945 C400 0.996 . S
C964 C176 0.995 . S
C981 C190 0.997 . S
C1000 C414 1.002 . S
C1017 C386 0.992 . S
C1036 C204 0.983 . S
C1053 C456 0.996 . S
C1072 C302 0.982 . S
C1089 C428 0.994 . S
C1108 C316 0.991 . S
C1125 C330 0.997 . S
C1144 C442 0.982 . S
C1161 C101 1.568 . S
C1180 C7 1.562 . S
C1197 C115 1.568 . S
C1216 C21 1.561 . S
C1233 C87 1.569 . S
C1252 C35 1.532 . S
C1269 C49 1.548 . S
C1288 C157 1.570 . S
C1305 C129 1.567 . S
C1324 C63 1.556 . S
C1341 C77 1.548 . S
C1360 C143 1.561 . S
C1377 C17 1.569 . S
C1396 C91 1.530 . S
C1413 C105 1.546 . S
C1432 C31 1.568 . S
C1449 C3 1.568 . S
C1468 C119 1.541 . S
C1485 C73 1.569 . S
C1504 C133 1.535 . S
C1521 C45 1.568 . S
C1540 C147 1.548 . S
C1557 C161 1.548 . S
C1576 C59 1.562 . S
C1593 C175 1.547 . S
C1612 C269 1.563 . S
C1629 C283 1.569 . S
C1648 C189 1.531 . S
C1665 C255 1.569 . S
C1684 C203 1.554 . S
C1701 C217 1.552 . S
C1720 C325 1.561 . S
C1737 C297 1.568 . S
C1756 C231 1.532 . S
C1773 C245 1.550 . S
C1792 C311 1.560 . S
C1809 C259 1.547 . S
C1828 C185 1.570 . S
C1845 C273 1.549 . S
C1864 C199 1.561 . S
C1881 C171 1.569 . S
C1900 C287 1.549 . S
C1917 C241 1.569 . S
C1936 C301 1.543 . S
C1953 C213 1.567 . S
C1972 C315 1.551 . S
C1989 C329 1.550 . S
C2008 C227 1.568 . S
C2025 C437 1.569 . S
C2044 C343 1.552 . S
C2061 C357 1.552 . S
C2080 C451 1.561 . S
C2097 C371 1.548 . S
C2116 C423 1.570 . S
C2133 C493 1.569 . S
C2152 C385 1.548 . S
C2169 C399 1.549 . S
C2188 C465 1.561 . S
C2205 C479 1.568 . S
C2224 C413 1.543 . S
C2241 C353 1.568 . S
C2260 C427 1.546 . S
C2277 C367 1.569 . S
C2296 C441 1.530 . S
C2313 C455 1.552 . S
C2332 C339 1.561 . S
C2349 C469 1.546 . S
C2368 C409 1.565 . S
C2385 C381 1.568 . S
C2404 C483 1.536 . S
C2421 C395 1.569 . S
C2440 C497 1.532 . S
C2457 C9 1.585 . S
C2476 C51 1.595 . S
C2493 C23 1.588 . S
C2512 C65 1.576 . S
C2529 C79 1.587 . S
C2548 C37 1.572 . S
C2565 C93 1.588 . S
C2584 C135 1.568 . S
C2601 C149 1.586 . S
C2620 C107 1.586 . S
C2637 C163 1.588 . S
C2656 C121 1.576 . S
C2673 C177 1.584 . S
C2692 C219 1.592 . S
C2709 C191 1.583 . S
C2728 C233 1.571 . S
C2745 C247 1.585 . S
C2764 C205 1.592 . S
C2781 C261 1.583 . S
C2800 C303 1.596 . S
C2817 C275 1.586 . S
C2836 C317 1.585 . S
C2853 C289 1.588 . S
C2872 C331 1.569 . S
C2889 C387 1.587 . S
C2908 C345 1.596 . S
C2925 C401 1.583 . S
C2944 C359 1.579 . S
C2961 C415 1.585 . S
C2980 C373 1.594 . S
C2997 C429 1.586 . S
C3016 C471 1.585 . S
C3033 C485 1.583 . S
C3052 C443 1.593 . S
C3069 C499 1.583 . S
C3088 C457 1.593 . S
