# Generated by pormake.
# Topology zft, (5)-cn, num edge types: 1
# Building blocks:
#     Node 0, Type 0, BuildingBlock: XOMCOT_clean_sbu_0, # of connection points: 5
#     Node 1, Type 0, BuildingBlock: XOMCOT_clean_sbu_0, # of connection points: 5
#     Node 2, Type 0, BuildingBlock: XOMCOT_clean_sbu_0, # of connection points: 5
#     Node 3, Type 0, BuildingBlock: XOMCOT_clean_sbu_0, # of connection points: 5
#     Node 4, Type 0, BuildingBlock: XOMCOT_clean_sbu_0, # of connection points: 5
#     Node 5, Type 0, BuildingBlock: XOMCOT_clean_sbu_0, # of connection points: 5
#     Node 6, Type 0, BuildingBlock: XOMCOT_clean_sbu_0, # of connection points: 5
#     Node 7, Type 0, BuildingBlock: XOMCOT_clean_sbu_0, # of connection points: 5
#     Edge 8, Type (0, 0), BuildingBlock: XIVTED_clean_linker_0, # of connection points: 2
#     Edge 9, Type (0, 0), BuildingBlock: XIVTED_clean_linker_0, # of connection points: 2
#     Edge 10, Type (0, 0), BuildingBlock: XIVTED_clean_linker_0, # of connection points: 2
#     Edge 11, Type (0, 0), BuildingBlock: XIVTED_clean_linker_0, # of connection points: 2
#     Edge 12, Type (0, 0), BuildingBlock: XIVTED_clean_linker_0, # of connection points: 2
#     Edge 13, Type (0, 0), BuildingBlock: XIVTED_clean_linker_0, # of connection points: 2
#     Edge 14, Type (0, 0), BuildingBlock: XIVTED_clean_linker_0, # of connection points: 2
#     Edge 15, Type (0, 0), BuildingBlock: XIVTED_clean_linker_0, # of connection points: 2
#     Edge 16, Type (0, 0), BuildingBlock: XIVTED_clean_linker_0, # of connection points: 2
#     Edge 17, Type (0, 0), BuildingBlock: XIVTED_clean_linker_0, # of connection points: 2
#     Edge 18, Type (0, 0), BuildingBlock: XIVTED_clean_linker_0, # of connection points: 2
#     Edge 19, Type (0, 0), BuildingBlock: XIVTED_clean_linker_0, # of connection points: 2
#     Edge 20, Type (0, 0), BuildingBlock: XIVTED_clean_linker_0, # of connection points: 2
#     Edge 21, Type (0, 0), BuildingBlock: XIVTED_clean_linker_0, # of connection points: 2
#     Edge 22, Type (0, 0), BuildingBlock: XIVTED_clean_linker_0, # of connection points: 2
#     Edge 23, Type (0, 0), BuildingBlock: XIVTED_clean_linker_0, # of connection points: 2
#     Edge 24, Type (0, 0), BuildingBlock: XIVTED_clean_linker_0, # of connection points: 2
#     Edge 25, Type (0, 0), BuildingBlock: XIVTED_clean_linker_0, # of connection points: 2
#     Edge 26, Type (0, 0), BuildingBlock: XIVTED_clean_linker_0, # of connection points: 2
#     Edge 27, Type (0, 0), BuildingBlock: XIVTED_clean_linker_0, # of connection points: 2
# Relax obj value: 0.078
# Max RMSD: 0.164
# Mean RMSD: 0.164
data_MOF--net-zft--node1-XOMCOT_clean_sbu_0--edge1-XIVTED_clean_linker_0
_symmetry_space_group_name_H-M    P1
_symmetry_Int_Tables_number       1
_symmetry_cell_setting            triclinic
loop_
_symmetry_equiv_pos_as_xyz
'x, y, z'
_cell_length_a     28.280336
_cell_length_b     28.23508
_cell_length_c     52.583573
_cell_angle_alpha  89.896875
_cell_angle_beta   90.02274
_cell_angle_gamma 90.20562
loop_
_atom_site_label
_atom_site_type_symbol
_atom_site_fract_x
_atom_site_fract_y
_atom_site_fract_z
_atom_type_partial_charge
Co0 Co 0.13492 0.27822 0.15569 0.0
C1 C 0.19902 0.35178 0.13597 0.0
C2 C 0.23681 0.2886 0.14586 0.0
C3 C 0.26898 0.32322 0.13915 0.0
N4 N 0.19305 0.30665 0.14383 0.0
N5 N 0.24525 0.36319 0.13306 0.0
H6 H 0.16996 0.37609 0.13343 0.0
H7 H 0.24492 0.25362 0.153 0.0
C8 C 0.13721 0.17714 0.13823 0.0
O9 O 0.09271 0.18073 0.13134 0.0
N10 N 0.07653 0.2498 0.16814 0.0
C11 C 0.03153 0.26022 0.16163 0.0
C12 C 1.00147 0.22897 0.1735 0.0
C13 C 0.07285 0.21314 0.18466 0.0
N14 N 0.02744 0.19937 0.18784 0.0
C15 C 0.07837 0.32751 0.1193 0.0
C16 C 0.09623 0.27064 0.07778 0.0
C17 C 0.06277 0.30686 0.07567 0.0
C18 C 0.05524 0.33651 0.09648 0.0
C19 C 0.1197 0.26369 0.10096 0.0
N20 N 0.10759 0.28939 0.12201 0.0
H21 H 0.07081 0.35038 0.13516 0.0
H22 H 0.14744 0.2377 0.10173 0.0
H23 H 0.0203 0.28822 0.14918 0.0
H24 H 0.10286 0.19579 0.19337 0.0
O25 O 0.11795 0.33735 0.17149 0.0
O26 O 0.15922 0.28061 0.19016 0.0
O27 O 0.15965 0.21318 0.14677 0.0
C28 C 0.141 0.32281 0.19133 0.0
H29 H 0.307 0.31963 0.14005 0.0
H30 H 0.9633 0.22822 0.17189 0.0
H31 H 0.10444 0.24835 0.06164 0.0
H32 H 0.03033 0.36552 0.0954 0.0
Co33 Co 0.25444 0.63504 0.406 0.0
C34 C 0.18195 0.69845 0.38482 0.0
C35 C 0.24708 0.73546 0.39177 0.0
C36 C 0.21345 0.7677 0.38414 0.0
N37 N 0.22724 0.69213 0.39214 0.0
N38 N 0.17227 0.7445 0.37988 0.0
H39 H 0.15637 0.66996 0.38406 0.0
H40 H 0.28274 0.74347 0.39786 0.0
C41 C 0.35592 0.63265 0.38898 0.0
O42 O 0.35226 0.58653 0.38637 0.0
N43 N 0.2814 0.57768 0.42055 0.0
C44 C 0.27304 0.53216 0.41393 0.0
C45 C 0.30269 0.50319 0.4275 0.0
C46 C 0.31525 0.5754 0.43873 0.0
N47 N 0.32906 0.53037 0.44298 0.0
C48 C 0.20095 0.5762 0.37242 0.0
C49 C 0.2583 0.58383 0.33015 0.0
C50 C 0.21929 0.55314 0.32946 0.0
C51 C 0.1897 0.55063 0.35066 0.0
C52 C 0.26771 0.60983 0.35226 0.0
N53 N 0.24107 0.60329 0.37371 0.0
H54 H 0.17814 0.57209 0.38867 0.0
H55 H 0.29616 0.6352 0.35177 0.0
H56 H 0.24827 0.51998 0.39986 0.0
H57 H 0.331 0.60609 0.44772 0.0
O58 O 0.1958 0.62134 0.42312 0.0
O59 O 0.25403 0.66406 0.4395 0.0
O60 O 0.31968 0.65723 0.39505 0.0
C61 C 0.21172 0.64631 0.44194 0.0
H62 H 0.21862 0.80562 0.38316 0.0
H63 H 0.30516 0.46504 0.42597 0.0
H64 H 0.28095 0.58801 0.31368 0.0
H65 H 0.15892 0.52767 0.35079 0.0
Co66 Co 0.89788 0.75368 0.6572 0.0
C67 C 0.84023 0.67539 0.638 0.0
C68 C 0.80007 0.73971 0.63806 0.0
C69 C 0.77085 0.70282 0.63066 0.0
N70 N 0.8435 0.72221 0.64264 0.0
N71 N 0.79622 0.66241 0.63092 0.0
H72 H 0.86929 0.65101 0.64051 0.0
H73 H 0.78976 0.77615 0.64093 0.0
C74 C 0.89859 0.85285 0.63658 0.0
O75 O 0.9446 0.84931 0.63375 0.0
N76 N 0.95281 0.78441 0.67231 0.0
C77 C 0.99878 0.77264 0.66954 0.0
C78 C 0.02638 0.80597 0.6814 0.0
C79 C 0.95322 0.82389 0.68691 0.0
N80 N 0.99779 0.83815 0.69213 0.0
C81 C 0.96224 0.70143 0.62619 0.0
C82 C 0.95165 0.75291 0.5819 0.0
C83 C 0.98525 0.71666 0.58282 0.0
C84 C 0.98933 0.68985 0.60504 0.0
C85 C 0.92435 0.76263 0.60347 0.0
N86 N 0.93248 0.73947 0.62593 0.0
H87 H 0.96664 0.68034 0.64312 0.0
H88 H 0.89656 0.78839 0.60176 0.0
H89 H 1.0123 0.7424 0.65956 0.0
H90 H 0.92178 0.84307 0.69242 0.0
O91 O 0.91222 0.6969 0.67604 0.0
O92 O 0.86641 0.75454 0.69006 0.0
O93 O 0.87438 0.81712 0.64421 0.0
C94 C 0.8849 0.71294 0.69384 0.0
H95 H 0.73336 0.70517 0.62673 0.0
H96 H 0.06465 0.80672 0.68203 0.0
H97 H 0.94602 0.77294 0.56458 0.0
H98 H 1.01421 0.66084 0.60631 0.0
Co99 Co 0.77408 0.39616 0.90905 0.0
C100 C 0.84513 0.34312 0.87979 0.0
C101 C 0.78107 0.30317 0.8845 0.0
C102 C 0.81486 0.27418 0.87402 0.0
N103 N 0.80015 0.34633 0.88816 0.0
N104 N 0.85544 0.29913 0.8713 0.0
H105 H 0.87039 0.37179 0.88134 0.0
H106 H 0.74625 0.29238 0.89077 0.0
C107 C 0.67504 0.39618 0.88775 0.0
O108 O 0.6805 0.44073 0.88111 0.0
N109 N 0.74817 0.4452 0.93141 0.0
C110 C 0.77359 0.47482 0.94641 0.0
C111 C 0.7436 0.49995 0.96179 0.0
C112 C 0.70275 0.45224 0.93868 0.0
N113 N 0.6992 0.48579 0.95679 0.0
C114 C 0.79754 0.48348 0.88399 0.0
C115 C 0.77381 0.45524 0.83533 0.0
C116 C 0.79266 0.50074 0.83902 0.0
C117 C 0.80443 0.5147 0.86376 0.0
C118 C 0.76706 0.42517 0.85621 0.0
N119 N 0.77798 0.43977 0.88031 0.0
H120 H 0.80973 0.49412 0.90248 0.0
H121 H 0.75293 0.39007 0.85298 0.0
H122 H 0.81168 0.47795 0.9466 0.0
H123 H 0.67274 0.43213 0.93211 0.0
O124 O 0.83612 0.4076 0.92259 0.0
O125 O 0.78439 0.35641 0.93869 0.0
O126 O 0.70797 0.37426 0.89958 0.0
C127 C 0.82634 0.37576 0.93968 0.0
H128 H 0.81061 0.23665 0.87058 0.0
H129 H 0.75355 0.52686 0.97544 0.0
H130 H 0.76449 0.44291 0.81649 0.0
H131 H 0.82066 0.54884 0.86738 0.0
Co132 Co 0.63422 0.2503 0.58038 0.0
C133 C 0.70116 0.1773 0.59998 0.0
C134 C 0.73647 0.2414 0.58938 0.0
C135 C 0.77004 0.20801 0.59533 0.0
N136 N 0.69301 0.22268 0.59291 0.0
N137 N 0.74781 0.16747 0.60192 0.0
H138 H 0.67395 0.15091 0.60187 0.0
H139 H 0.74349 0.27601 0.58137 0.0
C140 C 0.67899 0.32969 0.60916 0.0
O141 O 0.68691 0.29928 0.62762 0.0
N142 N 0.57653 0.27712 0.56718 0.0
C143 C 0.53282 0.25895 0.57043 0.0
C144 C 0.50048 0.28982 0.56021 0.0
C145 C 0.57044 0.31837 0.5546 0.0
N146 N 0.52415 0.32704 0.5503 0.0
C147 C 0.5929 0.19879 0.6219 0.0
C148 C 0.55447 0.27581 0.64663 0.0
C149 C 0.54553 0.23026 0.65613 0.0
C150 C 0.56532 0.19153 0.6435 0.0
C151 C 0.58275 0.28154 0.62501 0.0
N152 N 0.6028 0.24333 0.61325 0.0
H153 H 0.60326 0.16819 0.61122 0.0
H154 H 0.58637 0.31662 0.61705 0.0
H155 H 0.52499 0.22592 0.58002 0.0
H156 H 0.59901 0.34197 0.54924 0.0
O157 O 0.61715 0.19011 0.5657 0.0
O158 O 0.65973 0.2456 0.54635 0.0
O159 O 0.65775 0.31618 0.58895 0.0
C160 C 0.64107 0.20335 0.54581 0.0
H161 H 0.80784 0.21255 0.59327 0.0
H162 H 0.46247 0.28515 0.55987 0.0
H163 H 0.53899 0.30669 0.65549 0.0
H164 H 0.55748 0.15558 0.64943 0.0
Co165 Co 0.2722 0.14498 0.832 0.0
C166 C 0.34589 0.21579 0.84537 0.0
C167 C 0.28232 0.22693 0.86669 0.0
C168 C 0.31653 0.25792 0.8754 0.0
N169 N 0.3008 0.20029 0.84788 0.0
N170 N 0.35623 0.25086 0.86182 0.0
H171 H 0.37176 0.20044 0.83274 0.0
H172 H 0.24706 0.22306 0.87434 0.0
C173 C 0.16966 0.1442 0.84696 0.0
O174 O 0.17204 0.09801 0.84971 0.0
N175 N 0.24449 0.08934 0.81602 0.0
C176 C 0.25538 0.04354 0.82049 0.0
C177 C 0.22437 1.01513 0.80742 0.0
C178 C 0.20812 0.088 0.79927 0.0
N179 N 0.19467 0.04305 0.79428 0.0
C180 C 0.32221 0.08374 0.86593 0.0
C181 C 0.26104 0.08832 0.90673 0.0
C182 C 0.30001 0.05804 0.90805 0.0
C183 C 0.33142 0.05686 0.88757 0.0
C184 C 0.25358 0.11541 0.88479 0.0
N185 N 0.28224 0.11062 0.86398 0.0
H186 H 0.34678 0.08126 0.85036 0.0
H187 H 0.22515 0.14053 0.8851 0.0
H188 H 0.28312 0.03085 0.83269 0.0
H189 H 0.19003 0.1191 0.79222 0.0
O190 O 0.3311 0.13035 0.81536 0.0
O191 O 0.27531 0.17591 0.79903 0.0
O192 O 0.20694 0.16828 0.84186 0.0
C193 C 0.31685 0.15676 0.79666 0.0
H194 H 0.31281 0.28312 0.89075 0.0
H195 H 0.22311 0.9768 0.80784 0.0
H196 H 0.23707 0.09168 0.92269 0.0
H197 H 0.36238 0.03437 0.88798 0.0
Co198 Co 0.39049 0.78045 0.08084 0.0
C199 C 0.33479 0.8556 0.10567 0.0
C200 C 0.30562 0.78721 0.11418 0.0
C201 C 0.27674 0.82137 0.12465 0.0
N202 N 0.34219 0.80877 0.10229 0.0
N203 N 0.29519 0.86412 0.11905 0.0
H204 H 0.35669 0.88335 0.09767 0.0
H205 H 0.29904 0.7495 0.1144 0.0
C206 C 0.39392 0.68091 0.10094 0.0
O207 O 0.43985 0.68612 0.10371 0.0
N208 N 0.4383 0.75315 0.0582 0.0
C209 C 0.47078 0.77795 0.04464 0.0
C210 C 0.49427 0.74809 0.02851 0.0
C211 C 0.44165 0.70841 0.04902 0.0
N212 N 0.4761 0.70446 0.03142 0.0
C213 C 0.47685 0.80934 0.10532 0.0
C214 C 0.45346 0.77779 0.15347 0.0
C215 C 0.49691 0.80088 0.1498 0.0
C216 C 0.50844 0.81664 0.12532 0.0
C217 C 0.423 0.77088 0.13285 0.0
N218 N 0.43529 0.78557 0.10894 0.0
H219 H 0.48529 0.82462 0.08717 0.0
H220 H 0.38932 0.75388 0.13621 0.0
H221 H 0.47648 0.81574 0.04553 0.0
H222 H 0.41843 0.67947 0.05401 0.0
O223 O 0.40182 0.84123 0.06553 0.0
O224 O 0.34938 0.78865 0.05163 0.0
O225 O 0.36914 0.71488 0.09191 0.0
C226 C 0.36938 0.83009 0.04907 0.0
H227 H 0.24334 0.81543 0.13421 0.0
H228 H 0.52286 0.75754 0.01576 0.0
H229 H 0.44295 0.76534 0.17213 0.0
H230 H 0.54082 0.83619 0.1218 0.0
Co231 Co 0.75502 0.89222 0.33134 0.0
C232 C 0.68264 0.82743 0.35156 0.0
C233 C 0.74729 0.79075 0.34362 0.0
C234 C 0.71352 0.75814 0.35095 0.0
N235 N 0.7278 0.83409 0.34407 0.0
N236 N 0.67267 0.78119 0.35583 0.0
H237 H 0.65736 0.85591 0.35299 0.0
H238 H 0.7828 0.78309 0.33726 0.0
C239 C 0.85634 0.89449 0.34908 0.0
O240 O 0.85297 0.94048 0.35227 0.0
N241 N 0.78192 0.95076 0.318 0.0
C242 C 0.77235 0.99572 0.32505 0.0
C243 C 0.80247 0.02598 0.31251 0.0
C244 C 0.81691 0.95468 0.30055 0.0
N245 N 0.83049 1.00019 0.29726 0.0
C246 C 0.69987 0.94815 0.36545 0.0
C247 C 0.75738 0.94102 0.40769 0.0
C248 C 0.71802 0.97096 0.40854 0.0
C249 C 0.68827 0.97309 0.38737 0.0
C250 C 0.76712 0.91564 0.38543 0.0
N251 N 0.74045 0.92208 0.364 0.0
H252 H 0.67703 0.95205 0.34919 0.0
H253 H 0.79597 0.89094 0.3858 0.0
H254 H 0.74623 1.00665 0.33865 0.0
H255 H 0.83365 0.92475 0.29145 0.0
O256 O 0.69664 0.90551 0.31379 0.0
O257 O 0.75611 0.8652 0.29738 0.0
O258 O 0.82004 0.87018 0.34252 0.0
C259 C 0.71348 0.88173 0.29477 0.0
H260 H 0.71832 0.72016 0.35138 0.0
H261 H 0.80387 0.06412 0.31451 0.0
H262 H 0.78018 0.93706 0.42411 0.0
H263 H 0.6572 0.99544 0.38734 0.0
H264 H 0.09168 0.40191 0.20393 0.0
H265 H 0.28012 0.49289 0.30563 0.0
H266 H 0.21153 0.31792 0.22689 0.0
H267 H 0.13621 0.5427 0.30367 0.0
H268 H 0.26057 0.4353 0.27223 0.0
H269 H 0.11157 0.4598 0.23681 0.0
C270 C 0.12195 0.39548 0.21608 0.0
C271 C 0.14988 0.35501 0.21284 0.0
C272 C 0.2334 0.45902 0.27906 0.0
C273 C 0.17341 0.42153 0.25003 0.0
C274 C 0.24465 0.49213 0.29785 0.0
C275 C 0.20968 0.52245 0.3073 0.0
C276 C 0.18708 0.45684 0.26948 0.0
C277 C 0.16408 0.51974 0.2969 0.0
C278 C 0.13331 0.42854 0.23477 0.0
C279 C 0.18884 0.34847 0.22897 0.0
N280 N 0.15409 0.48755 0.27849 0.0
N281 N 0.19976 0.38168 0.24677 0.0
H282 H 0.99999 0.63162 0.55983 0.0
H283 H 0.21799 0.71969 0.47593 0.0
H284 H 0.04218 0.77842 0.55691 0.0
H285 H 0.13577 0.59526 0.45776 0.0
H286 H 0.16172 0.73797 0.51016 0.0
H287 H 0.05694 0.61396 0.52614 0.0
C288 C 0.02114 0.66013 0.55193 0.0
C289 C 0.01641 0.70652 0.56097 0.0
C290 C 0.15624 0.70663 0.49868 0.0
C291 C 0.08205 0.68656 0.52289 0.0
C292 C 0.18847 0.69598 0.47937 0.0
C293 C 0.1814 0.65593 0.46409 0.0
C294 C 0.11736 0.6765 0.5029 0.0
C295 C 0.14239 0.62657 0.46909 0.0
C296 C 0.05356 0.65009 0.53276 0.0
C297 C 0.04457 0.74228 0.55019 0.0
N298 N 0.11192 0.63734 0.48812 0.0
N299 N 0.0766 0.7315 0.53181 0.0
H300 H 0.77645 0.59626 0.83537 0.0
H301 H 0.91009 0.62134 0.70211 0.0
H302 H 0.83265 0.47815 0.79326 0.0
H303 H 0.83082 0.73577 0.73554 0.0
H304 H 0.88588 0.56996 0.737 0.0
H305 H 0.79886 0.64915 0.80037 0.0
C306 C 0.79339 0.58146 0.81872 0.0
C307 C 0.80274 0.5327 0.81723 0.0
C308 C 0.87377 0.6063 0.73679 0.0
C309 C 0.82863 0.59301 0.77723 0.0
C310 C 0.88783 0.63582 0.71692 0.0
C311 C 0.87255 0.68302 0.71595 0.0
C312 C 0.84435 0.62401 0.756 0.0
C313 C 0.84348 0.69964 0.7356 0.0
C314 C 0.80603 0.61163 0.79875 0.0
C315 C 0.82431 0.51537 0.79512 0.0
N316 N 0.83033 0.67015 0.75488 0.0
N317 N 0.83678 0.54552 0.77609 0.0
H318 H 0.82636 0.29938 0.9723 0.0
H319 H 0.05469 0.3871 0.04738 0.0
H320 H 0.9079 0.42241 0.95053 0.0
H321 H 1.00499 0.24289 0.05212 0.0
H322 H 0.99846 0.40182 0.01296 0.0
H323 H 0.88799 0.2791 0.00346 0.0
C324 C 0.85709 0.32211 0.97413 0.0
C325 C 0.86199 0.3627 0.95892 0.0
C326 C 1.00018 0.36674 0.02126 0.0
C327 C 0.93222 0.33987 -0.00572 0.0
C328 C 0.03231 0.35838 0.04082 0.0
C329 C 0.03443 0.31373 0.05239 0.0
C330 C 0.96926 0.33044 0.01355 0.0
C331 C 1.00458 0.27766 0.04341 0.0
C332 C 0.89233 0.31038 0.99173 0.0
C333 C 0.90265 0.39079 0.96187 0.0
N334 N 0.97268 0.28694 0.02468 0.0
N335 N 0.93598 0.37902 0.97929 0.0
H336 H 0.59201 0.12295 0.53428 0.0
H337 H 0.77922 0.03113 0.43247 0.0
H338 H 0.71179 0.20694 0.51036 0.0
H339 H 0.63493 0.98138 0.43441 0.0
H340 H 0.76024 0.0885 0.46595 0.0
H341 H 0.61158 0.0642 0.5018 0.0
C342 C 0.62224 0.12916 0.52205 0.0
C343 C 0.65017 0.16996 0.52485 0.0
C344 C 0.73286 0.06484 0.45911 0.0
C345 C 0.6733 0.1025 0.48813 0.0
C346 C 0.74377 0.03184 0.44026 0.0
C347 C 0.70855 1.0016 0.43075 0.0
C348 C 0.68659 0.06701 0.46873 0.0
C349 C 0.66299 1.00429 0.44119 0.0
C350 C 0.63339 0.09563 0.50357 0.0
C351 C 0.68907 0.17618 0.50862 0.0
N352 N 0.65332 0.03639 0.45968 0.0
N353 N 0.69975 0.14257 0.49105 0.0
H354 H 0.3024 0.21854 0.75697 0.0
H355 H 0.5571 0.16905 0.69591 0.0
H356 H 0.40391 0.11985 0.78754 0.0
H357 H 0.46014 0.27265 0.6658 0.0
H358 H 0.50081 0.15115 0.72973 0.0
H359 H 0.3586 0.23871 0.72307 0.0
C360 C 0.33633 0.2009 0.75644 0.0
C361 C 0.34849 0.16742 0.77505 0.0
C362 C 0.49181 0.17797 0.71582 0.0
C363 C 0.41294 0.19052 0.73658 0.0
C364 C 0.52395 0.18814 0.69648 0.0
C365 C 0.51326 0.22229 0.67797 0.0
C366 C 0.4484 0.20193 0.71668 0.0
C367 C 0.47001 0.24638 0.67983 0.0
C368 C 0.36845 0.21257 0.73718 0.0
C369 C 0.393 0.14583 0.77357 0.0
N370 N 0.43901 0.23555 0.69876 0.0
N371 N 0.42355 0.15778 0.75472 0.0
H372 H 0.29265 0.8273 0.01689 0.0
H373 H 0.3818 0.04798 0.93485 0.0
H374 H 0.41727 0.90927 0.03498 0.0
H375 H 0.2375 0.99843 0.93182 0.0
H376 H 0.3972 0.99283 0.96968 0.0
H377 H 0.27329 0.885 0.9834 0.0
C378 C 0.3159 0.85732 0.01378 0.0
C379 C 0.35663 0.86353 0.02865 0.0
C380 C 0.36204 0.99417 0.96155 0.0
C381 C 0.33494 0.92916 0.99058 0.0
C382 C 0.35332 0.02555 0.94166 0.0
C383 C 0.30836 0.02763 0.93052 0.0
C384 C 0.32573 0.96412 0.97017 0.0
C385 C 0.27255 0.99804 0.9401 0.0
C386 C 0.30474 0.89028 -0.00519 0.0
C387 C 0.38547 0.90312 0.02398 0.0
N388 N 0.2821 0.96708 0.95927 0.0
N389 N 0.37421 0.93423 0.00529 0.0
H390 H 0.73847 0.836 0.25068 0.0
H391 H 0.4733 0.83274 0.19722 0.0
H392 H 0.62042 0.9026 0.28815 0.0
H393 H 0.59354 0.79259 0.1517 0.0
H394 H 0.52673 0.85248 0.23213 0.0
H395 H 0.68616 0.81512 0.21512 0.0
C396 C 0.70168 0.84645 0.25135 0.0
C397 C 0.68379 0.87115 0.27236 0.0
C398 C 0.5415 0.83931 0.21452 0.0
C399 C 0.6238 0.84695 0.23205 0.0
C400 C 0.51094 0.82763 0.19466 0.0
C401 C 0.52898 0.81094 0.17152 0.0
C402 C 0.59053 0.83402 0.21135 0.0
C403 C 0.57819 0.80576 0.16915 0.0
C404 C 0.67186 0.8345 0.2311 0.0
C405 C 0.63581 0.88369 0.27231 0.0
N406 N 0.60727 0.81718 0.18883 0.0
N407 N 0.60751 0.87128 0.25256 0.0
H408 H 0.27077 0.92372 0.08144 0.0
H409 H 0.20657 0.14078 0.16858 0.0
H410 H 0.26842 0.90645 0.16277 0.0
H411 H 0.12328 0.10953 0.10192 0.0
H412 H 0.24506 0.06312 0.1645 0.0
H413 H 0.23158 1.00092 0.08613 0.0
C414 C 0.26206 0.93653 0.10027 0.0
C415 C 0.27251 0.90918 0.12179 0.0
C416 C 0.21837 0.07347 0.15082 0.0
C417 C 0.229 0.99707 0.12732 0.0
C418 C 0.1967 0.1177 0.153 0.0
C419 C 0.16175 0.13138 0.13555 0.0
C420 C 0.20597 0.04355 0.1306 0.0
C421 C 0.14992 0.10013 0.11582 0.0
C422 C 0.23968 0.9802 0.10292 0.0
C423 C 0.26058 0.92677 0.14583 0.0
N424 N 0.17239 0.05782 0.11369 0.0
N425 N 0.23986 0.97005 0.14803 0.0
H426 H 0.65482 0.69188 0.37341 0.0
H427 H 0.37488 0.7277 0.38325 0.0
H428 H 0.58529 0.82227 0.35239 0.0
H429 H 0.44249 0.59089 0.38429 0.0
H430 H 0.4522 0.76489 0.37601 0.0
H431 H 0.57778 0.65628 0.38164 0.0
C432 C 0.62361 0.71317 0.37041 0.0
C433 C 0.62716 0.76032 0.36195 0.0
C434 C 0.45003 0.72673 0.37778 0.0
C435 C 0.53824 0.71955 0.37181 0.0
C436 C 0.40592 0.70548 0.38196 0.0
C437 C 0.40212 0.65606 0.38428 0.0
C438 C 0.49071 0.69842 0.37623 0.0
C439 C 0.44361 0.62907 0.38245 0.0
C440 C 0.57946 0.69272 0.37522 0.0
C441 C 0.58491 0.78606 0.35903 0.0
N442 N 0.48609 0.65059 0.37862 0.0
N443 N 0.54235 0.76535 0.36393 0.0
H444 H 0.839 0.15065 0.61602 0.0
H445 H 0.80342 0.87104 0.63227 0.0
H446 H 0.70666 0.07941 0.60039 0.0
H447 H 0.94019 0.93903 0.62838 0.0
H448 H 0.76602 0.94773 0.62399 0.0
H449 H 0.8754 0.07399 0.62401 0.0
C450 C 0.81748 0.11912 0.61412 0.0
C451 C 0.76948 0.1221 0.60734 0.0
C452 C 0.80422 0.94577 0.62488 0.0
C453 C 0.81116 0.03368 0.61696 0.0
C454 C 0.82559 0.90202 0.62963 0.0
C455 C 0.87505 0.89852 0.63094 0.0
C456 C 0.83247 0.98642 0.6217 0.0
C457 C 0.90197 0.93991 0.62739 0.0
C458 C 0.83838 0.07522 0.6188 0.0
C459 C 0.7435 0.07954 0.60578 0.0
N460 N 0.88035 0.98208 0.62305 0.0
N461 N 0.76465 0.03724 0.61056 0.0
H462 H 0.41579 0.28091 0.82506 0.0
H463 H 0.63313 0.32725 0.91679 0.0
H464 H 0.40022 0.27029 0.90635 0.0
H465 H 0.61138 0.41296 0.84985 0.0
H466 H 0.55424 0.29219 0.91069 0.0
H467 H 0.49452 0.31643 0.83117 0.0
C468 C 0.42909 0.28614 0.84417 0.0
C469 C 0.40163 0.27307 0.86525 0.0
C470 C 0.56692 0.31863 0.89736 0.0
C471 C 0.49151 0.31238 0.87236 0.0
C472 C 0.61191 0.33836 0.90071 0.0
C473 C 0.62865 0.37306 0.88379 0.0
C474 C 0.53914 0.33281 0.87659 0.0
C475 C 0.59963 0.38647 0.86338 0.0
C476 C 0.47374 0.30643 0.84764 0.0
C477 C 0.42023 0.28047 0.88967 0.0
N478 N 0.55642 0.36601 0.86019 0.0
N479 N 0.46432 0.2992 0.89258 0.0
H480 H 0.6575 0.40611 0.5788 0.0
H481 H 0.8276 0.58334 0.65469 0.0
H482 H 0.73674 0.36697 0.64575 0.0
H483 H 0.72525 0.63228 0.5999 0.0
H484 H 0.79858 0.50269 0.64905 0.0
H485 H 0.68524 0.48799 0.58381 0.0
C486 C 0.68072 0.41468 0.59453 0.0
C487 C 0.69484 0.37954 0.61188 0.0
C488 C 0.78239 0.53097 0.63822 0.0
C489 C 0.72682 0.47304 0.61762 0.0
C490 C 0.79926 0.57706 0.64127 0.0
C491 C 0.77907 0.61463 0.62758 0.0
C492 C 0.74518 0.52201 0.62119 0.0
C493 C 0.74165 0.60437 0.61088 0.0
C494 C 0.69641 0.46144 0.59741 0.0
C495 C 0.72482 0.39278 0.63194 0.0
N496 N 0.72603 0.55896 0.60804 0.0
N497 N 0.73992 0.43832 0.63418 0.0
H498 H 0.08198 0.10384 0.84584 0.0
H499 H 0.94226 0.33855 0.88114 0.0
H500 H 0.1521 0.23893 0.85432 0.0
H501 H 0.87536 0.2159 0.84744 0.0
H502 H 0.0191 0.30241 0.87389 0.0
H503 H 1.00573 0.14334 0.8498 0.0
C504 C 0.08136 0.14183 0.84866 0.0
C505 C 0.12351 0.1681 0.84985 0.0
C506 C 0.98753 0.28363 0.86796 0.0
C507 C 0.03614 0.21361 0.85437 0.0
C508 C 0.94336 0.30436 0.87197 0.0
C509 C 0.90159 0.28025 0.86514 0.0
C510 C 0.99017 0.23821 0.85731 0.0
C511 C 0.90612 0.23563 0.85356 0.0
C512 C 0.03776 0.1644 0.85074 0.0
C513 C 0.12046 0.21732 0.85328 0.0
N514 N 0.94946 0.21595 0.85025 0.0
N515 N 0.07749 0.23848 0.85559 0.0
H516 H 0.43822 0.59643 0.10963 0.0
H517 H 0.20066 0.44925 0.1334 0.0
H518 H 0.29936 0.65833 0.10333 0.0
H519 H 0.33626 0.38401 0.11954 0.0
H520 H 0.23617 0.52642 0.1252 0.0
H521 H 0.40163 0.51907 0.11672 0.0
C522 C 0.4 0.59385 0.10985 0.0
C523 C 0.37184 0.63406 0.10591 0.0
C524 C 0.25805 0.49512 0.1239 0.0
C525 C 0.32964 0.54529 0.11404 0.0
C526 C 0.23773 0.45071 0.12848 0.0
C527 C 0.2653 0.40933 0.12731 0.0
C528 C 0.30645 0.49858 0.1183 0.0
C529 C 0.31346 0.41448 0.12112 0.0
C530 C 0.37913 0.54955 0.11378 0.0
C531 C 0.32247 0.62834 0.10626 0.0
N532 N 0.33244 0.45814 0.11699 0.0
N533 N 0.30295 0.58483 0.11034 0.0
H534 H 0.87436 0.79923 0.354 0.0
H535 H 0.15476 0.83362 0.36204 0.0
H536 H 0.94339 0.93583 0.35402 0.0
H537 H 0.08452 0.70357 0.38389 0.0
H538 H 0.07791 0.86945 0.35448 0.0
H539 H 0.9514 0.76155 0.36061 0.0
C540 C 0.90565 0.82131 0.3554 0.0
C541 C 0.90233 0.87082 0.35355 0.0
C542 C 0.0794 0.83305 0.36094 0.0
C543 C 0.99059 0.82787 0.36085 0.0
C544 C 0.12345 0.81243 0.36537 0.0
C545 C 0.12678 0.76533 0.37393 0.0
C546 C 0.038 0.80645 0.36479 0.0
C547 C 0.08433 0.73976 0.37721 0.0
C548 C 0.94959 0.79977 0.35921 0.0
C549 C 0.94413 0.89759 0.35551 0.0
N550 N 0.04184 0.76064 0.37266 0.0
N551 N 0.98644 0.8758 0.35894 0.0
H552 H 0.85019 0.97748 0.24843 0.0
H553 H 0.0526 0.17579 0.23589 0.0
H554 H 0.89584 0.06494 0.31085 0.0
H555 H 0.9604 0.13637 0.1742 0.0
H556 H 1.01223 0.11745 0.26328 0.0
H557 H 0.90771 0.01815 0.22068 0.0
C558 C 0.87305 1.00457 0.25632 0.0
C559 C 0.86815 0.01848 0.28173 0.0
C560 C 1.00141 0.12114 0.24362 0.0
C561 C 0.93376 0.0645 0.25053 0.0
C562 C 0.02453 0.1541 0.22805 0.0
C563 C 1.00925 0.16103 0.20298 0.0
C564 C 0.96348 0.0945 0.2338 0.0
C565 C 0.97259 0.13236 0.1936 0.0
C566 C 0.90555 0.02785 0.24056 0.0
C567 C 0.89829 0.05386 0.2912 0.0
N568 N 0.95079 0.10044 0.20903 0.0
N569 N 0.92973 0.07582 0.27559 0.0
H570 H 0.44519 0.37384 0.5639 0.0
H571 H 0.40622 0.48242 0.4286 0.0
H572 H 0.55516 0.37005 0.50732 0.0
H573 H 0.33454 0.53847 0.49403 0.0
H574 H 0.46211 0.4417 0.45681 0.0
H575 H 0.40415 0.43455 0.53901 0.0
C576 C 0.46085 0.3863 0.54632 0.0
C577 C 0.50329 0.36683 0.53747 0.0
C578 C 0.43481 0.46365 0.46505 0.0
C579 C 0.45643 0.43559 0.50875 0.0
C580 C 0.40306 0.48674 0.44899 0.0
C581 C 0.36616 0.51362 0.45919 0.0
C582 C 0.42862 0.46641 0.4915 0.0
C583 C 0.36292 0.51819 0.48563 0.0
C584 C 0.43763 0.42106 0.53221 0.0
C585 C 0.52251 0.38434 0.51474 0.0
N586 N 0.39325 0.494 0.50097 0.0
N587 N 0.49846 0.41714 0.50087 0.0
H588 H 0.05959 0.9027 0.67461 0.0
H589 H 0.12558 0.98605 0.81142 0.0
H590 H 0.97244 0.86774 0.73905 0.0
H591 H 0.1733 0.06209 0.74522 0.0
H592 H 0.06507 0.94663 0.78559 0.0
H593 H 0.09758 0.96555 0.69941 0.0
C594 C 0.04797 0.90911 0.69391 0.0
C595 C 1.0133 0.88015 0.705 0.0
C596 C 0.08801 0.97265 0.77674 0.0
C597 C 0.05706 0.95091 0.73367 0.0
C598 C 0.12249 0.99495 0.79145 0.0
C599 C 0.15431 0.02686 0.78023 0.0
C600 C 0.08626 0.98142 0.75047 0.0
C601 C 0.14919 0.0376 0.75439 0.0
C602 C 0.06946 0.94493 0.70804 0.0
C603 C 0.99908 0.88956 0.72997 0.0
N604 N 0.1164 1.01413 0.74019 0.0
N605 N 0.02177 0.92357 0.74372 0.0
H606 H 0.61995 0.5114 0.93177 0.0
H607 H 0.49877 0.6229 0.05514 0.0
H608 H 0.68298 0.50497 0.00626 0.0
H609 H 0.49609 0.69113 0.98186 0.0
H610 H 0.54522 0.55785 0.03664 0.0
H611 H 0.55331 0.55621 0.94973 0.0
C612 C 0.61903 0.51848 0.952 0.0
C613 C 0.65688 0.5051 0.96762 0.0
C614 C 0.53343 0.58657 0.02454 0.0
C615 C 0.58122 0.55522 0.98817 0.0
C616 C 0.50679 0.6233 0.035 0.0
C617 C 0.4941 0.66219 0.01992 0.0
C618 C 0.54635 0.58855 -0.00122 0.0
C619 C 0.50567 0.6617 0.99401 0.0
C620 C 0.58133 0.54407 0.96217 0.0
C621 C 0.65453 0.51527 0.99366 0.0
N622 N 0.53138 0.62551 0.98422 0.0
N623 N 0.61735 0.5399 0.00317 0.0
loop_
_geom_bond_atom_site_label_1
_geom_bond_atom_site_label_2
_geom_bond_distance
_geom_bond_site_symmetry_2
_ccdc_geom_bond_type
Co0 N4 2.148 . S
Co0 N10 2.128 . S
Co0 N20 2.194 . S
Co0 O25 2.351 . S
Co0 O26 2.155 . S
Co0 O27 2.096 . S
C1 N4 1.301 . S
C1 N5 1.328 . S
C1 H6 0.930 . S
C2 C3 1.333 . S
C2 N4 1.317 . S
C2 H7 0.930 . S
C3 C2 1.333 . S
C3 N5 1.350 . S
C3 H29 0.931 . S
N4 Co0 2.148 . S
N4 C1 1.301 . S
N4 C2 1.317 . S
N5 C1 1.328 . S
N5 C3 1.350 . S
H6 C1 0.930 . S
H7 C2 0.930 . S
C8 O9 1.224 . S
C8 O27 1.247 . S
O9 C8 1.224 . S
N10 Co0 2.128 . S
N10 C11 1.355 . S
N10 C13 1.311 . S
C11 N10 1.355 . S
C11 C12 1.363 1_455 S
C11 H23 0.933 . S
C12 C11 1.363 1_655 S
C12 N14 1.375 1_655 S
C12 H30 0.931 . S
C13 N10 1.311 . S
C13 N14 1.347 . S
C13 H24 0.929 . S
N14 C12 1.375 1_455 S
N14 C13 1.347 . S
C15 C18 1.365 . S
C15 N20 1.328 . S
C15 H21 0.929 . S
C16 C17 1.362 1_455 S
C16 C19 1.378 . S
C16 H31 0.929 . S
C17 C16 1.362 1_655 S
C17 C18 1.366 1_655 S
C18 C15 1.365 . S
C18 C17 1.366 1_455 S
C18 H32 0.930 1_455 S
C19 C16 1.378 . S
C19 N20 1.315 . S
C19 H22 0.930 . S
N20 Co0 2.194 . S
N20 C15 1.328 . S
N20 C19 1.315 . S
H21 C15 0.929 . S
H22 C19 0.930 . S
H23 C11 0.933 . S
H24 C13 0.929 . S
O25 Co0 2.351 . S
O25 C28 1.244 . S
O26 Co0 2.155 . S
O26 C28 1.240 . S
O27 Co0 2.096 . S
O27 C8 1.247 . S
C28 O25 1.244 . S
C28 O26 1.240 . S
H29 C3 0.931 . S
H30 C12 0.931 . S
H31 C16 0.929 . S
H32 C18 0.930 1_655 S
Co33 N37 2.148 . S
Co33 N43 2.128 . S
Co33 N53 2.194 . S
Co33 O58 2.351 . S
Co33 O59 2.155 . S
Co33 O60 2.096 . S
C34 N37 1.301 . S
C34 N38 1.328 . S
C34 H39 0.930 . S
C35 C36 1.333 . S
C35 N37 1.317 . S
C35 H40 0.930 . S
C36 C35 1.333 . S
C36 N38 1.350 . S
C36 H62 0.931 . S
N37 Co33 2.148 . S
N37 C34 1.301 . S
N37 C35 1.317 . S
N38 C34 1.328 . S
N38 C36 1.350 . S
H39 C34 0.930 . S
H40 C35 0.930 . S
C41 O42 1.224 . S
C41 O60 1.247 . S
O42 C41 1.224 . S
N43 Co33 2.128 . S
N43 C44 1.355 . S
N43 C46 1.311 . S
C44 N43 1.355 . S
C44 C45 1.363 . S
C44 H56 0.929 . S
C45 C44 1.363 . S
C45 N47 1.375 . S
C45 H63 0.931 . S
C46 N43 1.311 . S
C46 N47 1.347 . S
C46 H57 0.929 . S
N47 C45 1.375 . S
N47 C46 1.347 . S
C48 C51 1.365 . S
C48 N53 1.328 . S
C48 H54 0.929 . S
C49 C50 1.362 . S
C49 C52 1.378 . S
C49 H64 0.929 . S
C50 C49 1.362 . S
C50 C51 1.366 . S
C51 C48 1.365 . S
C51 C50 1.366 . S
C51 H65 0.930 . S
C52 C49 1.378 . S
C52 N53 1.315 . S
C52 H55 0.930 . S
N53 Co33 2.194 . S
N53 C48 1.328 . S
N53 C52 1.315 . S
H54 C48 0.929 . S
H55 C52 0.930 . S
H56 C44 0.929 . S
H57 C46 0.929 . S
O58 Co33 2.351 . S
O58 C61 1.244 . S
O59 Co33 2.155 . S
O59 C61 1.240 . S
O60 Co33 2.096 . S
O60 C41 1.247 . S
C61 O58 1.244 . S
C61 O59 1.240 . S
H62 C36 0.931 . S
H63 C45 0.931 . S
H64 C49 0.929 . S
H65 C51 0.930 . S
Co66 N70 2.148 . S
Co66 N76 2.128 . S
Co66 N86 2.194 . S
Co66 O91 2.351 . S
Co66 O92 2.155 . S
Co66 O93 2.096 . S
C67 N70 1.301 . S
C67 N71 1.328 . S
C67 H72 0.930 . S
C68 C69 1.333 . S
C68 N70 1.317 . S
C68 H73 0.930 . S
C69 C68 1.333 . S
C69 N71 1.350 . S
C69 H95 0.931 . S
N70 Co66 2.148 . S
N70 C67 1.301 . S
N70 C68 1.317 . S
N71 C67 1.328 . S
N71 C69 1.350 . S
H72 C67 0.930 . S
H73 C68 0.930 . S
C74 O75 1.224 . S
C74 O93 1.247 . S
O75 C74 1.224 . S
N76 Co66 2.128 . S
N76 C77 1.355 . S
N76 C79 1.311 . S
C77 N76 1.355 . S
C77 C78 1.363 1_655 S
C77 H89 0.933 . S
C78 C77 1.363 1_455 S
C78 N80 1.375 1_455 S
C78 H96 0.931 . S
C79 N76 1.311 . S
C79 N80 1.347 . S
C79 H90 0.929 . S
N80 C78 1.375 1_655 S
N80 C79 1.347 . S
C81 C84 1.365 . S
C81 N86 1.328 . S
C81 H87 0.929 . S
C82 C83 1.362 1_655 S
C82 C85 1.378 . S
C82 H97 0.929 . S
C83 C82 1.362 1_455 S
C83 C84 1.366 1_455 S
C84 C81 1.365 . S
C84 C83 1.366 1_655 S
C84 H98 0.930 1_655 S
C85 C82 1.378 . S
C85 N86 1.315 . S
C85 H88 0.930 . S
N86 Co66 2.194 . S
N86 C81 1.328 . S
N86 C85 1.315 . S
H87 C81 0.929 . S
H88 C85 0.930 . S
H89 C77 0.933 . S
H90 C79 0.929 . S
O91 Co66 2.351 . S
O91 C94 1.244 . S
O92 Co66 2.155 . S
O92 C94 1.240 . S
O93 Co66 2.096 . S
O93 C74 1.247 . S
C94 O91 1.244 . S
C94 O92 1.240 . S
H95 C69 0.931 . S
H96 C78 0.931 . S
H97 C82 0.929 . S
H98 C84 0.930 1_455 S
Co99 N103 2.148 . S
Co99 N109 2.128 . S
Co99 N119 2.194 . S
Co99 O124 2.351 . S
Co99 O125 2.155 . S
Co99 O126 2.096 . S
C100 N103 1.301 . S
C100 N104 1.328 . S
C100 H105 0.930 . S
C101 C102 1.333 . S
C101 N103 1.317 . S
C101 H106 0.930 . S
C102 C101 1.333 . S
C102 N104 1.350 . S
C102 H128 0.931 . S
N103 Co99 2.148 . S
N103 C100 1.301 . S
N103 C101 1.317 . S
N104 C100 1.328 . S
N104 C102 1.350 . S
H105 C100 0.930 . S
H106 C101 0.930 . S
C107 O108 1.224 . S
C107 O126 1.247 . S
O108 C107 1.224 . S
N109 Co99 2.128 . S
N109 C110 1.355 . S
N109 C112 1.311 . S
C110 N109 1.355 . S
C110 C111 1.363 . S
C110 H122 0.929 . S
C111 C110 1.363 . S
C111 N113 1.375 . S
C111 H129 0.931 . S
C112 N109 1.311 . S
C112 N113 1.347 . S
C112 H123 0.929 . S
N113 C111 1.375 . S
N113 C112 1.347 . S
C114 C117 1.365 . S
C114 N119 1.328 . S
C114 H120 0.929 . S
C115 C116 1.362 . S
C115 C118 1.378 . S
C115 H130 0.929 . S
C116 C115 1.362 . S
C116 C117 1.366 . S
C117 C114 1.365 . S
C117 C116 1.366 . S
C117 H131 0.930 . S
C118 C115 1.378 . S
C118 N119 1.315 . S
C118 H121 0.930 . S
N119 Co99 2.194 . S
N119 C114 1.328 . S
N119 C118 1.315 . S
H120 C114 0.929 . S
H121 C118 0.930 . S
H122 C110 0.929 . S
H123 C112 0.929 . S
O124 Co99 2.351 . S
O124 C127 1.244 . S
O125 Co99 2.155 . S
O125 C127 1.240 . S
O126 Co99 2.096 . S
O126 C107 1.247 . S
C127 O124 1.244 . S
C127 O125 1.240 . S
H128 C102 0.931 . S
H129 C111 0.931 . S
H130 C115 0.929 . S
H131 C117 0.930 . S
Co132 N136 2.148 . S
Co132 N142 2.128 . S
Co132 N152 2.194 . S
Co132 O157 2.351 . S
Co132 O158 2.155 . S
Co132 O159 2.096 . S
C133 N136 1.301 . S
C133 N137 1.328 . S
C133 H138 0.930 . S
C134 C135 1.333 . S
C134 N136 1.317 . S
C134 H139 0.930 . S
C135 C134 1.333 . S
C135 N137 1.350 . S
C135 H161 0.931 . S
N136 Co132 2.148 . S
N136 C133 1.301 . S
N136 C134 1.317 . S
N137 C133 1.328 . S
N137 C135 1.350 . S
H138 C133 0.930 . S
H139 C134 0.930 . S
C140 O141 1.224 . S
C140 O159 1.247 . S
O141 C140 1.224 . S
N142 Co132 2.128 . S
N142 C143 1.355 . S
N142 C145 1.311 . S
C143 N142 1.355 . S
C143 C144 1.363 . S
C143 H155 0.929 . S
C144 C143 1.363 . S
C144 N146 1.375 . S
C144 H162 0.931 . S
C145 N142 1.311 . S
C145 N146 1.347 . S
C145 H156 0.929 . S
N146 C144 1.375 . S
N146 C145 1.347 . S
C147 C150 1.365 . S
C147 N152 1.328 . S
C147 H153 0.929 . S
C148 C149 1.362 . S
C148 C151 1.378 . S
C148 H163 0.929 . S
C149 C148 1.362 . S
C149 C150 1.366 . S
C150 C147 1.365 . S
C150 C149 1.366 . S
C150 H164 0.930 . S
C151 C148 1.378 . S
C151 N152 1.315 . S
C151 H154 0.930 . S
N152 Co132 2.194 . S
N152 C147 1.328 . S
N152 C151 1.315 . S
H153 C147 0.929 . S
H154 C151 0.930 . S
H155 C143 0.929 . S
H156 C145 0.929 . S
O157 Co132 2.351 . S
O157 C160 1.244 . S
O158 Co132 2.155 . S
O158 C160 1.240 . S
O159 Co132 2.096 . S
O159 C140 1.247 . S
C160 O157 1.244 . S
C160 O158 1.240 . S
H161 C135 0.931 . S
H162 C144 0.931 . S
H163 C148 0.929 . S
H164 C150 0.930 . S
Co165 N169 2.148 . S
Co165 N175 2.128 . S
Co165 N185 2.194 . S
Co165 O190 2.351 . S
Co165 O191 2.155 . S
Co165 O192 2.096 . S
C166 N169 1.301 . S
C166 N170 1.328 . S
C166 H171 0.930 . S
C167 C168 1.333 . S
C167 N169 1.317 . S
C167 H172 0.930 . S
C168 C167 1.333 . S
C168 N170 1.350 . S
C168 H194 0.931 . S
N169 Co165 2.148 . S
N169 C166 1.301 . S
N169 C167 1.317 . S
N170 C166 1.328 . S
N170 C168 1.350 . S
H171 C166 0.930 . S
H172 C167 0.930 . S
C173 O174 1.224 . S
C173 O192 1.247 . S
O174 C173 1.224 . S
N175 Co165 2.128 . S
N175 C176 1.355 . S
N175 C178 1.311 . S
C176 N175 1.355 . S
C176 C177 1.363 1_545 S
C176 H188 0.933 . S
C177 C176 1.363 1_565 S
C177 N179 1.375 1_565 S
C177 H195 0.931 . S
C178 N175 1.311 . S
C178 N179 1.347 . S
C178 H189 0.929 . S
N179 C177 1.375 1_545 S
N179 C178 1.347 . S
C180 C183 1.365 . S
C180 N185 1.328 . S
C180 H186 0.929 . S
C181 C182 1.362 1_545 S
C181 C184 1.378 . S
C181 H196 0.929 . S
C182 C181 1.362 1_565 S
C182 C183 1.366 1_565 S
C183 C180 1.365 . S
C183 C182 1.366 1_545 S
C183 H197 0.930 1_545 S
C184 C181 1.378 . S
C184 N185 1.315 . S
C184 H187 0.930 . S
N185 Co165 2.194 . S
N185 C180 1.328 . S
N185 C184 1.315 . S
H186 C180 0.929 . S
H187 C184 0.930 . S
H188 C176 0.933 . S
H189 C178 0.929 . S
O190 Co165 2.351 . S
O190 C193 1.244 . S
O191 Co165 2.155 . S
O191 C193 1.240 . S
O192 Co165 2.096 . S
O192 C173 1.247 . S
C193 O190 1.244 . S
C193 O191 1.240 . S
H194 C168 0.931 . S
H195 C177 0.931 . S
H196 C181 0.929 . S
H197 C183 0.930 1_565 S
Co198 N202 2.148 . S
Co198 N208 2.128 . S
Co198 N218 2.194 . S
Co198 O223 2.351 . S
Co198 O224 2.155 . S
Co198 O225 2.096 . S
C199 N202 1.301 . S
C199 N203 1.328 . S
C199 H204 0.930 . S
C200 C201 1.333 . S
C200 N202 1.317 . S
C200 H205 0.930 . S
C201 C200 1.333 . S
C201 N203 1.350 . S
C201 H227 0.931 . S
N202 Co198 2.148 . S
N202 C199 1.301 . S
N202 C200 1.317 . S
N203 C199 1.328 . S
N203 C201 1.350 . S
H204 C199 0.930 . S
H205 C200 0.930 . S
C206 O207 1.224 . S
C206 O225 1.247 . S
O207 C206 1.224 . S
N208 Co198 2.128 . S
N208 C209 1.355 . S
N208 C211 1.311 . S
C209 N208 1.355 . S
C209 C210 1.363 . S
C209 H221 0.929 . S
C210 C209 1.363 . S
C210 N212 1.375 . S
C210 H228 0.931 . S
C211 N208 1.311 . S
C211 N212 1.347 . S
C211 H222 0.929 . S
N212 C210 1.375 . S
N212 C211 1.347 . S
C213 C216 1.365 . S
C213 N218 1.328 . S
C213 H219 0.929 . S
C214 C215 1.362 . S
C214 C217 1.378 . S
C214 H229 0.929 . S
C215 C214 1.362 . S
C215 C216 1.366 . S
C216 C213 1.365 . S
C216 C215 1.366 . S
C216 H230 0.930 . S
C217 C214 1.378 . S
C217 N218 1.315 . S
C217 H220 0.930 . S
N218 Co198 2.194 . S
N218 C213 1.328 . S
N218 C217 1.315 . S
H219 C213 0.929 . S
H220 C217 0.930 . S
H221 C209 0.929 . S
H222 C211 0.929 . S
O223 Co198 2.351 . S
O223 C226 1.244 . S
O224 Co198 2.155 . S
O224 C226 1.240 . S
O225 Co198 2.096 . S
O225 C206 1.247 . S
C226 O223 1.244 . S
C226 O224 1.240 . S
H227 C201 0.931 . S
H228 C210 0.931 . S
H229 C214 0.929 . S
H230 C216 0.930 . S
Co231 N235 2.148 . S
Co231 N241 2.128 . S
Co231 N251 2.194 . S
Co231 O256 2.351 . S
Co231 O257 2.155 . S
Co231 O258 2.096 . S
C232 N235 1.301 . S
C232 N236 1.328 . S
C232 H237 0.930 . S
C233 C234 1.333 . S
C233 N235 1.317 . S
C233 H238 0.930 . S
C234 C233 1.333 . S
C234 N236 1.350 . S
C234 H260 0.931 . S
N235 Co231 2.148 . S
N235 C232 1.301 . S
N235 C233 1.317 . S
N236 C232 1.328 . S
N236 C234 1.350 . S
H237 C232 0.930 . S
H238 C233 0.930 . S
C239 O240 1.224 . S
C239 O258 1.247 . S
O240 C239 1.224 . S
N241 Co231 2.128 . S
N241 C242 1.355 . S
N241 C244 1.311 . S
C242 N241 1.355 . S
C242 C243 1.363 1_565 S
C242 H254 0.933 . S
C243 C242 1.363 1_545 S
C243 N245 1.375 1_545 S
C243 H261 0.931 . S
C244 N241 1.311 . S
C244 N245 1.347 . S
C244 H255 0.929 . S
N245 C243 1.375 1_565 S
N245 C244 1.347 . S
C246 C249 1.365 . S
C246 N251 1.328 . S
C246 H252 0.929 . S
C247 C248 1.362 1_565 S
C247 C250 1.378 . S
C247 H262 0.929 . S
C248 C247 1.362 1_545 S
C248 C249 1.366 1_545 S
C249 C246 1.365 . S
C249 C248 1.366 1_565 S
C249 H263 0.930 1_565 S
C250 C247 1.378 . S
C250 N251 1.315 . S
C250 H253 0.930 . S
N251 Co231 2.194 . S
N251 C246 1.328 . S
N251 C250 1.315 . S
H252 C246 0.929 . S
H253 C250 0.930 . S
H254 C242 0.933 . S
H255 C244 0.929 . S
O256 Co231 2.351 . S
O256 C259 1.244 . S
O257 Co231 2.155 . S
O257 C259 1.240 . S
O258 Co231 2.096 . S
O258 C239 1.247 . S
C259 O256 1.244 . S
C259 O257 1.240 . S
H260 C234 0.931 . S
H261 C243 0.931 . S
H262 C247 0.929 . S
H263 C249 0.930 1_545 S
H264 C270 0.930 . S
H265 C274 0.930 . S
H266 C279 0.929 . S
H267 C277 0.929 . S
H268 C272 0.929 . S
H269 C278 0.929 . S
C270 H264 0.930 . S
C270 C271 1.367 . S
C270 C278 1.378 . S
C271 C270 1.367 . S
C271 C279 1.433 . S
C272 H268 0.929 . S
C272 C274 1.378 . S
C272 C276 1.350 . S
C273 C276 1.463 . S
C273 C278 1.350 . S
C273 N281 1.427 . S
C274 H265 0.930 . S
C274 C272 1.378 . S
C274 C275 1.367 . S
C275 C274 1.367 . S
C275 C277 1.433 . S
C276 C272 1.350 . S
C276 C273 1.463 . S
C276 N280 1.427 . S
C277 H267 0.929 . S
C277 C275 1.433 . S
C277 N280 1.384 . S
C278 H269 0.929 . S
C278 C270 1.378 . S
C278 C273 1.350 . S
C279 H266 0.929 . S
C279 C271 1.433 . S
C279 N281 1.384 . S
N280 C276 1.427 . S
N280 C277 1.384 . S
N281 C273 1.427 . S
N281 C279 1.384 . S
H282 C288 0.930 . S
H283 C292 0.930 . S
H284 C297 0.929 . S
H285 C295 0.929 . S
H286 C290 0.929 . S
H287 C296 0.929 . S
C288 H282 0.930 . S
C288 C289 1.367 . S
C288 C296 1.378 . S
C289 C288 1.367 . S
C289 C297 1.433 . S
C290 H286 0.929 . S
C290 C292 1.378 . S
C290 C294 1.350 . S
C291 C294 1.463 . S
C291 C296 1.350 . S
C291 N299 1.427 . S
C292 H283 0.930 . S
C292 C290 1.378 . S
C292 C293 1.367 . S
C293 C292 1.367 . S
C293 C295 1.433 . S
C294 C290 1.350 . S
C294 C291 1.463 . S
C294 N298 1.427 . S
C295 H285 0.929 . S
C295 C293 1.433 . S
C295 N298 1.384 . S
C296 H287 0.929 . S
C296 C288 1.378 . S
C296 C291 1.350 . S
C297 H284 0.929 . S
C297 C289 1.433 . S
C297 N299 1.384 . S
N298 C294 1.427 . S
N298 C295 1.384 . S
N299 C291 1.427 . S
N299 C297 1.384 . S
H300 C306 0.930 . S
H301 C310 0.930 . S
H302 C315 0.929 . S
H303 C313 0.929 . S
H304 C308 0.929 . S
H305 C314 0.929 . S
C306 H300 0.930 . S
C306 C307 1.367 . S
C306 C314 1.378 . S
C307 C306 1.367 . S
C307 C315 1.433 . S
C308 H304 0.929 . S
C308 C310 1.378 . S
C308 C312 1.350 . S
C309 C312 1.463 . S
C309 C314 1.350 . S
C309 N317 1.427 . S
C310 H301 0.930 . S
C310 C308 1.378 . S
C310 C311 1.367 . S
C311 C310 1.367 . S
C311 C313 1.433 . S
C312 C308 1.350 . S
C312 C309 1.463 . S
C312 N316 1.427 . S
C313 H303 0.929 . S
C313 C311 1.433 . S
C313 N316 1.384 . S
C314 H305 0.929 . S
C314 C306 1.378 . S
C314 C309 1.350 . S
C315 H302 0.929 . S
C315 C307 1.433 . S
C315 N317 1.384 . S
N316 C312 1.427 . S
N316 C313 1.384 . S
N317 C309 1.427 . S
N317 C315 1.384 . S
H318 C324 0.930 . S
H319 C328 0.930 . S
H320 C333 0.929 . S
H321 C331 0.929 . S
H322 C326 0.929 . S
H323 C332 0.929 . S
C324 H318 0.930 . S
C324 C325 1.367 . S
C324 C332 1.378 . S
C325 C324 1.367 . S
C325 C333 1.433 . S
C326 H322 0.929 . S
C326 C328 1.378 . S
C326 C330 1.350 . S
C327 C330 1.463 . S
C327 C332 1.350 1_554 S
C327 N335 1.427 . S
C328 H319 0.930 . S
C328 C326 1.378 . S
C328 C329 1.367 . S
C329 C328 1.367 . S
C329 C331 1.433 . S
C330 C326 1.350 . S
C330 C327 1.463 . S
C330 N334 1.427 . S
C331 H321 0.929 . S
C331 C329 1.433 . S
C331 N334 1.384 . S
C332 H323 0.929 . S
C332 C324 1.378 . S
C332 C327 1.350 1_556 S
C333 H320 0.929 . S
C333 C325 1.433 . S
C333 N335 1.384 1_556 S
N334 C330 1.427 . S
N334 C331 1.384 . S
N335 C327 1.427 . S
N335 C333 1.384 1_554 S
H336 C342 0.930 . S
H337 C346 0.930 . S
H338 C351 0.929 . S
H339 C349 0.929 1_565 S
H340 C344 0.929 . S
H341 C350 0.929 . S
C342 H336 0.930 . S
C342 C343 1.367 . S
C342 C350 1.378 . S
C343 C342 1.367 . S
C343 C351 1.433 . S
C344 H340 0.929 . S
C344 C346 1.378 . S
C344 C348 1.350 . S
C345 C348 1.463 . S
C345 C350 1.350 . S
C345 N353 1.427 . S
C346 H337 0.930 . S
C346 C344 1.378 . S
C346 C347 1.367 . S
C347 C346 1.367 . S
C347 C349 1.433 . S
C348 C344 1.350 . S
C348 C345 1.463 . S
C348 N352 1.427 . S
C349 H339 0.929 1_545 S
C349 C347 1.433 . S
C349 N352 1.384 . S
C350 H341 0.929 . S
C350 C342 1.378 . S
C350 C345 1.350 . S
C351 H338 0.929 . S
C351 C343 1.433 . S
C351 N353 1.384 . S
N352 C348 1.427 . S
N352 C349 1.384 . S
N353 C345 1.427 . S
N353 C351 1.384 . S
H354 C360 0.930 . S
H355 C364 0.930 . S
H356 C369 0.929 . S
H357 C367 0.929 . S
H358 C362 0.929 . S
H359 C368 0.929 . S
C360 H354 0.930 . S
C360 C361 1.367 . S
C360 C368 1.378 . S
C361 C360 1.367 . S
C361 C369 1.433 . S
C362 H358 0.929 . S
C362 C364 1.378 . S
C362 C366 1.350 . S
C363 C366 1.463 . S
C363 C368 1.350 . S
C363 N371 1.427 . S
C364 H355 0.930 . S
C364 C362 1.378 . S
C364 C365 1.367 . S
C365 C364 1.367 . S
C365 C367 1.433 . S
C366 C362 1.350 . S
C366 C363 1.463 . S
C366 N370 1.427 . S
C367 H357 0.929 . S
C367 C365 1.433 . S
C367 N370 1.384 . S
C368 H359 0.929 . S
C368 C360 1.378 . S
C368 C363 1.350 . S
C369 H356 0.929 . S
C369 C361 1.433 . S
C369 N371 1.384 . S
N370 C366 1.427 . S
N370 C367 1.384 . S
N371 C363 1.427 . S
N371 C369 1.384 . S
H372 C378 0.930 . S
H373 C382 0.930 1_545 S
H374 C387 0.929 . S
H375 C385 0.929 . S
H376 C380 0.929 . S
H377 C386 0.929 . S
C378 H372 0.930 . S
C378 C379 1.367 . S
C378 C386 1.378 1_554 S
C379 C378 1.367 . S
C379 C387 1.433 . S
C380 H376 0.929 . S
C380 C382 1.378 . S
C380 C384 1.350 . S
C381 C384 1.463 . S
C381 C386 1.350 . S
C381 N389 1.427 1_556 S
C382 H373 0.930 1_565 S
C382 C380 1.378 . S
C382 C383 1.367 . S
C383 C382 1.367 . S
C383 C385 1.433 . S
C384 C380 1.350 . S
C384 C381 1.463 . S
C384 N388 1.427 . S
C385 H375 0.929 . S
C385 C383 1.433 . S
C385 N388 1.384 . S
C386 H377 0.929 . S
C386 C378 1.378 1_556 S
C386 C381 1.350 . S
C387 H374 0.929 . S
C387 C379 1.433 . S
C387 N389 1.384 . S
N388 C384 1.427 . S
N388 C385 1.384 . S
N389 C381 1.427 1_554 S
N389 C387 1.384 . S
H390 C396 0.930 . S
H391 C400 0.930 . S
H392 C405 0.929 . S
H393 C403 0.929 . S
H394 C398 0.929 . S
H395 C404 0.929 . S
C396 H390 0.930 . S
C396 C397 1.367 . S
C396 C404 1.378 . S
C397 C396 1.367 . S
C397 C405 1.433 . S
C398 H394 0.929 . S
C398 C400 1.378 . S
C398 C402 1.350 . S
C399 C402 1.463 . S
C399 C404 1.350 . S
C399 N407 1.427 . S
C400 H391 0.930 . S
C400 C398 1.378 . S
C400 C401 1.367 . S
C401 C400 1.367 . S
C401 C403 1.433 . S
C402 C398 1.350 . S
C402 C399 1.463 . S
C402 N406 1.427 . S
C403 H393 0.929 . S
C403 C401 1.433 . S
C403 N406 1.384 . S
C404 H395 0.929 . S
C404 C396 1.378 . S
C404 C399 1.350 . S
C405 H392 0.929 . S
C405 C397 1.433 . S
C405 N407 1.384 . S
N406 C402 1.427 . S
N406 C403 1.384 . S
N407 C399 1.427 . S
N407 C405 1.384 . S
H408 C414 0.930 . S
H409 C418 0.930 . S
H410 C423 0.929 . S
H411 C421 0.929 . S
H412 C416 0.929 . S
H413 C422 0.929 1_545 S
C414 H408 0.930 . S
C414 C415 1.367 . S
C414 C422 1.378 . S
C415 C414 1.367 . S
C415 C423 1.433 . S
C416 H412 0.929 . S
C416 C418 1.378 . S
C416 C420 1.350 . S
C417 C420 1.463 . S
C417 C422 1.350 1_545 S
C417 N425 1.427 1_545 S
C418 H409 0.930 . S
C418 C416 1.378 . S
C418 C419 1.367 . S
C419 C418 1.367 . S
C419 C421 1.433 . S
C420 C416 1.350 . S
C420 C417 1.463 . S
C420 N424 1.427 . S
C421 H411 0.929 . S
C421 C419 1.433 . S
C421 N424 1.384 . S
C422 H413 0.929 1_565 S
C422 C414 1.378 . S
C422 C417 1.350 1_565 S
C423 H410 0.929 . S
C423 C415 1.433 . S
C423 N425 1.384 . S
N424 C420 1.427 . S
N424 C421 1.384 . S
N425 C417 1.427 1_565 S
N425 C423 1.384 . S
H426 C432 0.930 . S
H427 C436 0.930 . S
H428 C441 0.929 . S
H429 C439 0.929 . S
H430 C434 0.929 . S
H431 C440 0.929 . S
C432 H426 0.930 . S
C432 C433 1.367 . S
C432 C440 1.378 . S
C433 C432 1.367 . S
C433 C441 1.433 . S
C434 H430 0.929 . S
C434 C436 1.378 . S
C434 C438 1.350 . S
C435 C438 1.463 . S
C435 C440 1.350 . S
C435 N443 1.427 . S
C436 H427 0.930 . S
C436 C434 1.378 . S
C436 C437 1.367 . S
C437 C436 1.367 . S
C437 C439 1.433 . S
C438 C434 1.350 . S
C438 C435 1.463 . S
C438 N442 1.427 . S
C439 H429 0.929 . S
C439 C437 1.433 . S
C439 N442 1.384 . S
C440 H431 0.929 . S
C440 C432 1.378 . S
C440 C435 1.350 . S
C441 H428 0.929 . S
C441 C433 1.433 . S
C441 N443 1.384 . S
N442 C438 1.427 . S
N442 C439 1.384 . S
N443 C435 1.427 . S
N443 C441 1.384 . S
H444 C450 0.930 . S
H445 C454 0.930 . S
H446 C459 0.929 . S
H447 C457 0.929 . S
H448 C452 0.929 . S
H449 C458 0.929 . S
C450 H444 0.930 . S
C450 C451 1.367 . S
C450 C458 1.378 . S
C451 C450 1.367 . S
C451 C459 1.433 . S
C452 H448 0.929 . S
C452 C454 1.378 . S
C452 C456 1.350 . S
C453 C456 1.463 . S
C453 C458 1.350 1_565 S
C453 N461 1.427 1_565 S
C454 H445 0.930 . S
C454 C452 1.378 . S
C454 C455 1.367 . S
C455 C454 1.367 . S
C455 C457 1.433 . S
C456 C452 1.350 . S
C456 C453 1.463 . S
C456 N460 1.427 . S
C457 H447 0.929 . S
C457 C455 1.433 . S
C457 N460 1.384 . S
C458 H449 0.929 . S
C458 C450 1.378 . S
C458 C453 1.350 1_545 S
C459 H446 0.929 . S
C459 C451 1.433 . S
C459 N461 1.384 . S
N460 C456 1.427 . S
N460 C457 1.384 . S
N461 C453 1.427 1_545 S
N461 C459 1.384 . S
H462 C468 0.930 . S
H463 C472 0.930 . S
H464 C477 0.929 . S
H465 C475 0.929 . S
H466 C470 0.929 . S
H467 C476 0.929 . S
C468 H462 0.930 . S
C468 C469 1.367 . S
C468 C476 1.378 . S
C469 C468 1.367 . S
C469 C477 1.433 . S
C470 H466 0.929 . S
C470 C472 1.378 . S
C470 C474 1.350 . S
C471 C474 1.463 . S
C471 C476 1.350 . S
C471 N479 1.427 . S
C472 H463 0.930 . S
C472 C470 1.378 . S
C472 C473 1.367 . S
C473 C472 1.367 . S
C473 C475 1.433 . S
C474 C470 1.350 . S
C474 C471 1.463 . S
C474 N478 1.427 . S
C475 H465 0.929 . S
C475 C473 1.433 . S
C475 N478 1.384 . S
C476 H467 0.929 . S
C476 C468 1.378 . S
C476 C471 1.350 . S
C477 H464 0.929 . S
C477 C469 1.433 . S
C477 N479 1.384 . S
N478 C474 1.427 . S
N478 C475 1.384 . S
N479 C471 1.427 . S
N479 C477 1.384 . S
H480 C486 0.930 . S
H481 C490 0.930 . S
H482 C495 0.929 . S
H483 C493 0.929 . S
H484 C488 0.929 . S
H485 C494 0.929 . S
C486 H480 0.930 . S
C486 C487 1.367 . S
C486 C494 1.378 . S
C487 C486 1.367 . S
C487 C495 1.433 . S
C488 H484 0.929 . S
C488 C490 1.378 . S
C488 C492 1.350 . S
C489 C492 1.463 . S
C489 C494 1.350 . S
C489 N497 1.427 . S
C490 H481 0.930 . S
C490 C488 1.378 . S
C490 C491 1.367 . S
C491 C490 1.367 . S
C491 C493 1.433 . S
C492 C488 1.350 . S
C492 C489 1.463 . S
C492 N496 1.427 . S
C493 H483 0.929 . S
C493 C491 1.433 . S
C493 N496 1.384 . S
C494 H485 0.929 . S
C494 C486 1.378 . S
C494 C489 1.350 . S
C495 H482 0.929 . S
C495 C487 1.433 . S
C495 N497 1.384 . S
N496 C492 1.427 . S
N496 C493 1.384 . S
N497 C489 1.427 . S
N497 C495 1.384 . S
H498 C504 0.930 . S
H499 C508 0.930 . S
H500 C513 0.929 . S
H501 C511 0.929 . S
H502 C506 0.929 1_455 S
H503 C512 0.929 . S
C504 H498 0.930 . S
C504 C505 1.367 . S
C504 C512 1.378 . S
C505 C504 1.367 . S
C505 C513 1.433 . S
C506 H502 0.929 1_655 S
C506 C508 1.378 . S
C506 C510 1.350 1_655 S
C507 C510 1.463 . S
C507 C512 1.350 . S
C507 N515 1.427 . S
C508 H499 0.930 . S
C508 C506 1.378 . S
C508 C509 1.367 . S
C509 C508 1.367 . S
C509 C511 1.433 . S
C510 C506 1.350 1_455 S
C510 C507 1.463 . S
C510 N514 1.427 1_455 S
C511 H501 0.929 . S
C511 C509 1.433 . S
C511 N514 1.384 . S
C512 H503 0.929 . S
C512 C504 1.378 . S
C512 C507 1.350 . S
C513 H500 0.929 . S
C513 C505 1.433 . S
C513 N515 1.384 . S
N514 C510 1.427 1_655 S
N514 C511 1.384 . S
N515 C507 1.427 . S
N515 C513 1.384 . S
H516 C522 0.930 . S
H517 C526 0.930 . S
H518 C531 0.929 . S
H519 C529 0.929 . S
H520 C524 0.929 . S
H521 C530 0.929 . S
C522 H516 0.930 . S
C522 C523 1.367 . S
C522 C530 1.378 . S
C523 C522 1.367 . S
C523 C531 1.433 . S
C524 H520 0.929 . S
C524 C526 1.378 . S
C524 C528 1.350 . S
C525 C528 1.463 . S
C525 C530 1.350 . S
C525 N533 1.427 . S
C526 H517 0.930 . S
C526 C524 1.378 . S
C526 C527 1.367 . S
C527 C526 1.367 . S
C527 C529 1.433 . S
C528 C524 1.350 . S
C528 C525 1.463 . S
C528 N532 1.427 . S
C529 H519 0.929 . S
C529 C527 1.433 . S
C529 N532 1.384 . S
C530 H521 0.929 . S
C530 C522 1.378 . S
C530 C525 1.350 . S
C531 H518 0.929 . S
C531 C523 1.433 . S
C531 N533 1.384 . S
N532 C528 1.427 . S
N532 C529 1.384 . S
N533 C525 1.427 . S
N533 C531 1.384 . S
H534 C540 0.930 . S
H535 C544 0.930 . S
H536 C549 0.929 . S
H537 C547 0.929 . S
H538 C542 0.929 . S
H539 C548 0.929 . S
C540 H534 0.930 . S
C540 C541 1.367 . S
C540 C548 1.378 . S
C541 C540 1.367 . S
C541 C549 1.433 . S
C542 H538 0.929 . S
C542 C544 1.378 . S
C542 C546 1.350 1_455 S
C543 C546 1.463 . S
C543 C548 1.350 . S
C543 N551 1.427 . S
C544 H535 0.930 . S
C544 C542 1.378 . S
C544 C545 1.367 . S
C545 C544 1.367 . S
C545 C547 1.433 . S
C546 C542 1.350 1_655 S
C546 C543 1.463 . S
C546 N550 1.427 . S
C547 H537 0.929 . S
C547 C545 1.433 . S
C547 N550 1.384 1_455 S
C548 H539 0.929 . S
C548 C540 1.378 . S
C548 C543 1.350 . S
C549 H536 0.929 . S
C549 C541 1.433 . S
C549 N551 1.384 . S
N550 C546 1.427 . S
N550 C547 1.384 1_655 S
N551 C543 1.427 . S
N551 C549 1.384 . S
H552 C558 0.930 . S
H553 C562 0.930 . S
H554 C567 0.929 . S
H555 C565 0.929 1_455 S
H556 C560 0.929 . S
H557 C566 0.929 1_565 S
C558 H552 0.930 . S
C558 C559 1.367 1_565 S
C558 C566 1.378 1_565 S
C559 C558 1.367 1_545 S
C559 C567 1.433 . S
C560 H556 0.929 . S
C560 C562 1.378 . S
C560 C564 1.350 . S
C561 C564 1.463 . S
C561 C566 1.350 . S
C561 N569 1.427 . S
C562 H553 0.930 . S
C562 C560 1.378 . S
C562 C563 1.367 . S
C563 C562 1.367 . S
C563 C565 1.433 . S
C564 C560 1.350 . S
C564 C561 1.463 . S
C564 N568 1.427 . S
C565 H555 0.929 1_655 S
C565 C563 1.433 . S
C565 N568 1.384 . S
C566 H557 0.929 1_545 S
C566 C558 1.378 1_545 S
C566 C561 1.350 . S
C567 H554 0.929 . S
C567 C559 1.433 . S
C567 N569 1.384 . S
N568 C564 1.427 . S
N568 C565 1.384 . S
N569 C561 1.427 . S
N569 C567 1.384 . S
H570 C576 0.930 . S
H571 C580 0.930 . S
H572 C585 0.929 . S
H573 C583 0.929 . S
H574 C578 0.929 . S
H575 C584 0.929 . S
C576 H570 0.930 . S
C576 C577 1.367 . S
C576 C584 1.378 . S
C577 C576 1.367 . S
C577 C585 1.433 . S
C578 H574 0.929 . S
C578 C580 1.378 . S
C578 C582 1.350 . S
C579 C582 1.463 . S
C579 C584 1.350 . S
C579 N587 1.427 . S
C580 H571 0.930 . S
C580 C578 1.378 . S
C580 C581 1.367 . S
C581 C580 1.367 . S
C581 C583 1.433 . S
C582 C578 1.350 . S
C582 C579 1.463 . S
C582 N586 1.427 . S
C583 H573 0.929 . S
C583 C581 1.433 . S
C583 N586 1.384 . S
C584 H575 0.929 . S
C584 C576 1.378 . S
C584 C579 1.350 . S
C585 H572 0.929 . S
C585 C577 1.433 . S
C585 N587 1.384 . S
N586 C582 1.427 . S
N586 C583 1.384 . S
N587 C579 1.427 . S
N587 C585 1.384 . S
H588 C594 0.930 1_655 S
H589 C598 0.930 . S
H590 C603 0.929 . S
H591 C601 0.929 . S
H592 C596 0.929 . S
H593 C602 0.929 . S
C594 H588 0.930 1_455 S
C594 C595 1.367 . S
C594 C602 1.378 . S
C595 C594 1.367 . S
C595 C603 1.433 . S
C596 H592 0.929 . S
C596 C598 1.378 . S
C596 C600 1.350 . S
C597 C600 1.463 . S
C597 C602 1.350 . S
C597 N605 1.427 . S
C598 H589 0.930 . S
C598 C596 1.378 . S
C598 C599 1.367 . S
C599 C598 1.367 . S
C599 C601 1.433 1_565 S
C600 C596 1.350 . S
C600 C597 1.463 . S
C600 N604 1.427 . S
C601 H591 0.929 . S
C601 C599 1.433 1_545 S
C601 N604 1.384 1_545 S
C602 H593 0.929 . S
C602 C594 1.378 . S
C602 C597 1.350 . S
C603 H590 0.929 . S
C603 C595 1.433 . S
C603 N605 1.384 . S
N604 C600 1.427 . S
N604 C601 1.384 1_565 S
N605 C597 1.427 . S
N605 C603 1.384 . S
H606 C612 0.930 . S
H607 C616 0.930 . S
H608 C621 0.929 . S
H609 C619 0.929 . S
H610 C614 0.929 . S
H611 C620 0.929 . S
C612 H606 0.930 . S
C612 C613 1.367 . S
C612 C620 1.378 . S
C613 C612 1.367 . S
C613 C621 1.433 . S
C614 H610 0.929 . S
C614 C616 1.378 . S
C614 C618 1.350 . S
C615 C618 1.463 1_556 S
C615 C620 1.350 . S
C615 N623 1.428 . S
C616 H607 0.930 . S
C616 C614 1.378 . S
C616 C617 1.367 . S
C617 C616 1.367 . S
C617 C619 1.433 . S
C618 C614 1.350 . S
C618 C615 1.463 1_554 S
C618 N622 1.428 . S
C619 H609 0.929 . S
C619 C617 1.433 . S
C619 N622 1.384 . S
C620 H611 0.929 . S
C620 C612 1.378 . S
C620 C615 1.350 . S
C621 H608 0.929 . S
C621 C613 1.433 . S
C621 N623 1.384 . S
N622 C618 1.428 . S
N622 C619 1.384 . S
N623 C615 1.428 . S
N623 C621 1.384 . S
C271 C28 1.146 . S
C275 C50 1.141 . S
C289 C83 1.133 . S
C293 C61 1.139 . S
C307 C116 1.141 . S
C311 C94 1.145 . S
C325 C127 1.140 . S
C329 C17 1.136 . S
C343 C160 1.146 . S
C347 C248 1.140 . S
C361 C193 1.142 . S
C365 C149 1.133 . S
C379 C226 1.138 . S
C383 C182 1.131 . S
C397 C259 1.141 . S
C401 C215 1.132 . S
C415 N203 1.785 . S
C419 C8 1.779 . S
C433 N236 1.787 . S
C437 C41 1.779 . S
C451 N137 1.787 . S
C455 C74 1.778 . S
C469 N170 1.785 . S
C473 C107 1.780 . S
C487 C140 1.777 . S
C491 N71 1.786 . S
C505 C173 1.779 . S
C509 N104 1.785 . S
C523 C206 1.779 . S
C527 N5 1.785 . S
C541 C239 1.780 . S
C545 N38 1.786 . S
C559 N245 1.474 1_545 S
C563 N14 1.463 1_655 S
C577 N146 1.479 . S
C581 N47 1.471 . S
C595 N80 1.479 1_455 S
C599 N179 1.467 1_565 S
C613 N113 1.473 . S
C617 N212 1.478 . S
