# Generated by pormake.
# Topology uno, (4)-cn, num edge types: 1
# Building blocks:
#     Node 0, Type 0, BuildingBlock: MUDLON_clean_sbu_0, # of connection points: 4
#     Node 1, Type 0, BuildingBlock: MUDLON_clean_sbu_0, # of connection points: 4
#     Node 2, Type 0, BuildingBlock: MUDLON_clean_sbu_0, # of connection points: 4
#     Node 3, Type 0, BuildingBlock: MUDLON_clean_sbu_0, # of connection points: 4
#     Node 4, Type 0, BuildingBlock: MUDLON_clean_sbu_0, # of connection points: 4
#     Node 5, Type 0, BuildingBlock: MUDLON_clean_sbu_0, # of connection points: 4
#     Node 6, Type 0, BuildingBlock: MUDLON_clean_sbu_0, # of connection points: 4
#     Node 7, Type 0, BuildingBlock: MUDLON_clean_sbu_0, # of connection points: 4
#     Node 8, Type 0, BuildingBlock: MUDLON_clean_sbu_0, # of connection points: 4
#     Node 9, Type 0, BuildingBlock: MUDLON_clean_sbu_0, # of connection points: 4
#     Node 10, Type 0, BuildingBlock: MUDLON_clean_sbu_0, # of connection points: 4
#     Node 11, Type 0, BuildingBlock: MUDLON_clean_sbu_0, # of connection points: 4
#     Node 12, Type 0, BuildingBlock: MUDLON_clean_sbu_0, # of connection points: 4
#     Node 13, Type 0, BuildingBlock: MUDLON_clean_sbu_0, # of connection points: 4
#     Node 14, Type 0, BuildingBlock: MUDLON_clean_sbu_0, # of connection points: 4
#     Node 15, Type 0, BuildingBlock: MUDLON_clean_sbu_0, # of connection points: 4
#     Node 16, Type 0, BuildingBlock: MUDLON_clean_sbu_0, # of connection points: 4
#     Node 17, Type 0, BuildingBlock: MUDLON_clean_sbu_0, # of connection points: 4
#     Node 18, Type 0, BuildingBlock: MUDLON_clean_sbu_0, # of connection points: 4
#     Node 19, Type 0, BuildingBlock: MUDLON_clean_sbu_0, # of connection points: 4
#     Node 20, Type 0, BuildingBlock: MUDLON_clean_sbu_0, # of connection points: 4
#     Node 21, Type 0, BuildingBlock: MUDLON_clean_sbu_0, # of connection points: 4
#     Node 22, Type 0, BuildingBlock: MUDLON_clean_sbu_0, # of connection points: 4
#     Node 23, Type 0, BuildingBlock: MUDLON_clean_sbu_0, # of connection points: 4
#     Edge 24, Type (0, 0), BuildingBlock: AJUNOK_clean_linker_0, # of connection points: 2
#     Edge 25, Type (0, 0), BuildingBlock: AJUNOK_clean_linker_0, # of connection points: 2
#     Edge 26, Type (0, 0), BuildingBlock: AJUNOK_clean_linker_0, # of connection points: 2
#     Edge 27, Type (0, 0), BuildingBlock: AJUNOK_clean_linker_0, # of connection points: 2
#     Edge 28, Type (0, 0), BuildingBlock: AJUNOK_clean_linker_0, # of connection points: 2
#     Edge 29, Type (0, 0), BuildingBlock: AJUNOK_clean_linker_0, # of connection points: 2
#     Edge 30, Type (0, 0), BuildingBlock: AJUNOK_clean_linker_0, # of connection points: 2
#     Edge 31, Type (0, 0), BuildingBlock: AJUNOK_clean_linker_0, # of connection points: 2
#     Edge 32, Type (0, 0), BuildingBlock: AJUNOK_clean_linker_0, # of connection points: 2
#     Edge 33, Type (0, 0), BuildingBlock: AJUNOK_clean_linker_0, # of connection points: 2
#     Edge 34, Type (0, 0), BuildingBlock: AJUNOK_clean_linker_0, # of connection points: 2
#     Edge 35, Type (0, 0), BuildingBlock: AJUNOK_clean_linker_0, # of connection points: 2
#     Edge 36, Type (0, 0), BuildingBlock: AJUNOK_clean_linker_0, # of connection points: 2
#     Edge 37, Type (0, 0), BuildingBlock: AJUNOK_clean_linker_0, # of connection points: 2
#     Edge 38, Type (0, 0), BuildingBlock: AJUNOK_clean_linker_0, # of connection points: 2
#     Edge 39, Type (0, 0), BuildingBlock: AJUNOK_clean_linker_0, # of connection points: 2
#     Edge 40, Type (0, 0), BuildingBlock: AJUNOK_clean_linker_0, # of connection points: 2
#     Edge 41, Type (0, 0), BuildingBlock: AJUNOK_clean_linker_0, # of connection points: 2
#     Edge 42, Type (0, 0), BuildingBlock: AJUNOK_clean_linker_0, # of connection points: 2
#     Edge 43, Type (0, 0), BuildingBlock: AJUNOK_clean_linker_0, # of connection points: 2
#     Edge 44, Type (0, 0), BuildingBlock: AJUNOK_clean_linker_0, # of connection points: 2
#     Edge 45, Type (0, 0), BuildingBlock: AJUNOK_clean_linker_0, # of connection points: 2
#     Edge 46, Type (0, 0), BuildingBlock: AJUNOK_clean_linker_0, # of connection points: 2
#     Edge 47, Type (0, 0), BuildingBlock: AJUNOK_clean_linker_0, # of connection points: 2
#     Edge 48, Type (0, 0), BuildingBlock: AJUNOK_clean_linker_0, # of connection points: 2
#     Edge 49, Type (0, 0), BuildingBlock: AJUNOK_clean_linker_0, # of connection points: 2
#     Edge 50, Type (0, 0), BuildingBlock: AJUNOK_clean_linker_0, # of connection points: 2
#     Edge 51, Type (0, 0), BuildingBlock: AJUNOK_clean_linker_0, # of connection points: 2
#     Edge 52, Type (0, 0), BuildingBlock: AJUNOK_clean_linker_0, # of connection points: 2
#     Edge 53, Type (0, 0), BuildingBlock: AJUNOK_clean_linker_0, # of connection points: 2
#     Edge 54, Type (0, 0), BuildingBlock: AJUNOK_clean_linker_0, # of connection points: 2
#     Edge 55, Type (0, 0), BuildingBlock: AJUNOK_clean_linker_0, # of connection points: 2
#     Edge 56, Type (0, 0), BuildingBlock: AJUNOK_clean_linker_0, # of connection points: 2
#     Edge 57, Type (0, 0), BuildingBlock: AJUNOK_clean_linker_0, # of connection points: 2
#     Edge 58, Type (0, 0), BuildingBlock: AJUNOK_clean_linker_0, # of connection points: 2
#     Edge 59, Type (0, 0), BuildingBlock: AJUNOK_clean_linker_0, # of connection points: 2
#     Edge 60, Type (0, 0), BuildingBlock: AJUNOK_clean_linker_0, # of connection points: 2
#     Edge 61, Type (0, 0), BuildingBlock: AJUNOK_clean_linker_0, # of connection points: 2
#     Edge 62, Type (0, 0), BuildingBlock: AJUNOK_clean_linker_0, # of connection points: 2
#     Edge 63, Type (0, 0), BuildingBlock: AJUNOK_clean_linker_0, # of connection points: 2
#     Edge 64, Type (0, 0), BuildingBlock: AJUNOK_clean_linker_0, # of connection points: 2
#     Edge 65, Type (0, 0), BuildingBlock: AJUNOK_clean_linker_0, # of connection points: 2
#     Edge 66, Type (0, 0), BuildingBlock: AJUNOK_clean_linker_0, # of connection points: 2
#     Edge 67, Type (0, 0), BuildingBlock: AJUNOK_clean_linker_0, # of connection points: 2
#     Edge 68, Type (0, 0), BuildingBlock: AJUNOK_clean_linker_0, # of connection points: 2
#     Edge 69, Type (0, 0), BuildingBlock: AJUNOK_clean_linker_0, # of connection points: 2
#     Edge 70, Type (0, 0), BuildingBlock: AJUNOK_clean_linker_0, # of connection points: 2
#     Edge 71, Type (0, 0), BuildingBlock: AJUNOK_clean_linker_0, # of connection points: 2
# Relax obj value: 0.561
# Max RMSD: 0.257
# Mean RMSD: 0.230
data_MOF--net-uno--node1-MUDLON_clean_sbu_0--edge1-AJUNOK_clean_linker_0
_symmetry_space_group_name_H-M    P1
_symmetry_Int_Tables_number       1
_symmetry_cell_setting            triclinic
loop_
_symmetry_equiv_pos_as_xyz
'x, y, z'
_cell_length_a     37.288061
_cell_length_b     37.80633
_cell_length_c     37.460943
_cell_angle_alpha  88.575138
_cell_angle_beta   88.270107
_cell_angle_gamma 88.807056
loop_
_atom_site_label
_atom_site_type_symbol
_atom_site_fract_x
_atom_site_fract_y
_atom_site_fract_z
_atom_type_partial_charge
Mg0 Mg 0.10543 0.32189 0.26232 0.0
C1 C 0.12683 0.31458 0.34157 0.0
O2 O 0.12605 0.32406 0.37507 0.0
C3 C 0.04427 0.37592 0.26264 0.0
O4 O 0.05932 0.38334 0.29274 0.0
C5 C 0.07454 0.25113 0.28227 0.0
O6 O 0.05284 0.2724 0.30034 0.0
O7 O 0.09873 0.26476 0.26193 0.0
O8 O 0.11284 0.33505 0.31808 0.0
O9 O 0.15218 0.33712 0.22908 0.0
C10 C 0.16818 0.36567 0.23512 0.0
O11 O 0.15502 0.38606 0.26044 0.0
O12 O 0.0577 0.35086 0.2441 0.0
Mg13 Mg 0.95846 0.83078 0.55194 0.0
C14 C 0.01555 0.86814 0.57673 0.0
O15 O 0.02619 0.84757 0.55054 0.0
C16 C 0.87821 0.84315 0.56624 0.0
O17 O 0.88891 0.87162 0.58189 0.0
C18 C 0.99514 0.76906 0.58552 0.0
O19 O 0.97308 0.77985 0.61122 0.0
O20 O 0.9921 0.78321 0.55458 0.0
O21 O 0.98344 0.86558 0.58894 0.0
O22 O 0.96628 0.8626 0.50302 0.0
C23 C 0.95766 0.89497 0.5077 0.0
O24 O 0.94288 0.90398 0.53849 0.0
O25 O 0.90158 0.82055 0.55561 0.0
Mg26 Mg 0.43634 0.68791 0.80792 0.0
C27 C 0.42032 0.70498 0.8864 0.0
O28 O 0.42167 0.69982 0.92113 0.0
C29 C 0.48783 0.62491 0.80094 0.0
O30 O 0.47177 0.61534 0.83125 0.0
C31 C 0.47721 0.75419 0.81677 0.0
O32 O 0.49509 0.73215 0.83764 0.0
O33 O 0.45149 0.74243 0.79932 0.0
O34 O 0.43082 0.6803 0.86574 0.0
O35 O 0.38803 0.67917 0.77817 0.0
C36 C 0.36085 0.66141 0.78851 0.0
O37 O 0.36009 0.64619 0.82043 0.0
O38 O 0.47875 0.65418 0.78607 0.0
Mg39 Mg 0.57625 0.19621 0.03287 0.0
C40 C 0.55288 0.13044 0.07462 0.0
O41 O 0.57625 0.11471 0.05311 0.0
C42 C 0.65605 0.18813 0.04851 0.0
O43 O 0.64618 0.15771 0.06297 0.0
C44 C 0.54227 0.26161 0.06185 0.0
O45 O 0.56647 0.25394 0.08577 0.0
O46 O 0.54187 0.24309 0.034 0.0
O47 O 0.55212 0.164 0.07538 0.0
O48 O 0.56878 0.1669 0.98452 0.0
C49 C 0.59009 0.14189 0.97497 0.0
O50 O 0.61918 0.13528 0.99307 0.0
O51 O 0.63225 0.20926 0.03628 0.0
Mg52 Mg 0.07373 0.04237 0.38316 0.0
C53 C 0.10944 0.03654 0.45355 0.0
O54 O 0.08498 0.01213 0.45721 0.0
C55 C 0.08277 0.9667 0.36306 0.0
O56 O 0.08587 0.964 0.39786 0.0
C57 C 0.08423 0.10316 0.32925 0.0
O58 O 0.11207 0.08326 0.31986 0.0
O59 O 0.06303 0.09202 0.35413 0.0
O60 O 0.11366 0.05211 0.42323 0.0
O61 O 0.02751 0.0249 0.41492 0.0
C62 C 1.0063 1.00178 0.40417 0.0
O63 O 1.00646 0.99473 0.37001 0.0
O64 O 0.08315 0.99747 0.34842 0.0
Mg65 Mg 0.21194 0.73785 0.64022 0.0
C66 C 0.2357 0.6948 0.70618 0.0
O67 O 0.21239 0.71519 0.72325 0.0
C68 C 0.13218 0.7178 0.63491 0.0
O69 O 0.13553 0.70551 0.66778 0.0
C70 C 0.25047 0.72074 0.5718 0.0
O71 O 0.22475 0.69748 0.57245 0.0
O72 O 0.25074 0.74325 0.59641 0.0
O73 O 0.23659 0.69563 0.67222 0.0
O74 O 0.21204 0.78557 0.67125 0.0
C75 C 0.18945 0.79135 0.69664 0.0
O76 O 0.16334 0.7691 0.70314 0.0
O77 O 0.15937 0.73057 0.61835 0.0
Mg78 Mg 0.49756 0.97716 0.8552 0.0
C79 C 0.43371 0.95598 0.90281 0.0
O80 O 0.44241 0.9242 0.89165 0.0
C81 C 0.4797 0.03297 0.79734 0.0
O82 O 0.45134 0.03988 0.81786 0.0
C83 C 0.49005 0.90698 0.82437 0.0
O84 O 0.46753 0.92701 0.80613 0.0
O85 O 0.50889 0.92144 0.84745 0.0
O86 O 0.44942 0.98266 0.88875 0.0
O87 O 0.53679 0.00605 0.8844 0.0
C88 C 0.52582 0.03796 0.88776 0.0
O89 O 0.49393 0.04678 0.8762 0.0
O90 O 0.49882 0.00561 0.80428 0.0
Mg91 Mg 0.33049 0.33579 0.12011 0.0
C92 C 0.30548 0.40528 0.16652 0.0
O93 O 0.31606 0.43715 0.17393 0.0
C94 C 0.41221 0.33425 0.11091 0.0
O95 O 0.41022 0.3492 0.1422 0.0
C96 C 0.28874 0.35794 0.05468 0.0
O97 O 0.30763 0.38668 0.05717 0.0
O98 O 0.29328 0.33268 0.07716 0.0
O99 O 0.3258 0.38727 0.14538 0.0
O100 O 0.32255 0.29192 0.15758 0.0
C101 C 0.32731 0.29339 0.19096 0.0
O102 O 0.33651 0.32344 0.20458 0.0
O103 O 0.38331 0.32723 0.09566 0.0
Mg104 Mg 0.24955 0.12625 0.32639 0.0
C105 C 0.19647 0.18045 0.30853 0.0
O106 O 0.21468 0.17589 0.27839 0.0
C107 C 0.26569 0.06134 0.28496 0.0
O108 O 0.28754 0.05672 0.31162 0.0
C109 C 0.24495 0.07364 0.38518 0.0
O110 O 0.22053 0.06327 0.36336 0.0
O111 O 0.26311 0.10067 0.37631 0.0
O112 O 0.20204 0.15897 0.33443 0.0
O113 O 0.2879 0.16521 0.3066 0.0
C114 C 0.29755 0.16476 0.27376 0.0
O115 O 0.28936 0.1373 0.25507 0.0
O116 O 0.24394 0.08764 0.28544 0.0
Mg117 Mg 0.19436 0.00746 0.59757 0.0
C118 C 0.17142 0.08477 0.58404 0.0
O119 O 0.16944 0.11871 0.59067 0.0
C120 C 0.25681 1.00164 0.64816 0.0
O121 O 0.25764 0.03606 0.64258 0.0
C122 C 0.24057 0.02652 0.53291 0.0
O123 O 0.25622 0.04611 0.55615 0.0
O124 O 0.21551 0.00644 0.54373 0.0
O125 O 0.18341 0.06323 0.60776 0.0
O126 O 0.14754 0.97479 0.5957 0.0
C127 C 0.12272 0.96713 0.61837 0.0
O128 O 0.1235 0.97943 0.65082 0.0
O129 O 0.23332 0.98386 0.633 0.0
Mg130 Mg 0.31187 0.90328 0.83495 0.0
C131 C 0.35015 0.8335 0.83312 0.0
O132 O 0.32593 0.83017 0.80874 0.0
C133 C 0.32988 0.92382 0.75951 0.0
O134 O 0.33163 0.88916 0.75778 0.0
C135 C 0.31064 0.96528 0.8835 0.0
O136 O 0.33339 0.97683 0.85862 0.0
O137 O 0.29737 0.93484 0.88062 0.0
O138 O 0.3521 0.86299 0.84846 0.0
O139 O 0.26551 0.87594 0.81665 0.0
C140 C 0.24544 0.89057 0.79349 0.0
O141 O 0.25015 0.92399 0.7845 0.0
O142 O 0.32678 0.93751 0.79009 0.0
Mg143 Mg 0.35157 0.02864 0.07926 0.0
C144 C 0.35959 0.9604 0.04139 0.0
O145 O 0.32489 0.95513 0.04298 0.0
C146 C 0.31836 0.00853 0.15049 0.0
O147 O 0.34544 0.98574 0.14948 0.0
C148 C 0.29977 0.0314 0.02063 0.0
O149 O 0.27946 0.01705 0.0461 0.0
O150 O 0.3289 0.0452 0.02925 0.0
O151 O 0.37358 0.97689 0.0665 0.0
O152 O 0.39634 0.06209 0.08978 0.0
C153 C 0.42569 0.04821 0.10017 0.0
O154 O 0.42778 0.01378 0.10564 0.0
O155 O 0.31347 0.029 0.12363 0.0
Mg156 Mg 0.84096 0.22729 0.91859 0.0
C157 C 0.82318 0.18682 0.8518 0.0
O158 O 0.84811 0.20665 0.83667 0.0
C159 C 0.92179 0.20918 0.9187 0.0
O160 O 0.91679 0.19853 0.88614 0.0
C161 C 0.7968 0.20347 0.98263 0.0
O162 O 0.81612 0.17458 0.97692 0.0
O163 O 0.80309 0.23083 0.96327 0.0
O164 O 0.81831 0.18741 0.8855 0.0
O165 O 0.83773 0.2771 0.88862 0.0
C166 C 0.86056 0.28592 0.86427 0.0
O167 O 0.88868 0.26533 0.85788 0.0
O168 O 0.89493 0.21963 0.93757 0.0
Mg169 Mg 0.94783 0.54862 0.16708 0.0
C170 C 0.89538 0.58046 0.11466 0.0
O171 O 0.90831 0.60973 0.12684 0.0
C172 C 0.94018 0.47628 0.20371 0.0
O173 O 0.9214 0.46959 0.1757 0.0
C174 C 0.93995 0.61074 0.2161 0.0
O175 O 0.91592 0.58937 0.23051 0.0
O176 O 0.958 0.60058 0.18869 0.0
O177 O 0.90399 0.55109 0.12964 0.0
O178 O 0.99214 0.52694 0.13476 0.0
C179 C 0.98206 0.50201 0.1154 0.0
O180 O 0.94762 0.49629 0.11335 0.0
O181 O 0.94763 0.50825 0.20973 0.0
Mg182 Mg 0.70574 0.84502 0.4204 0.0
C183 C 0.72559 0.91695 0.38305 0.0
O184 O 0.71946 0.95088 0.37697 0.0
C185 C 0.62611 0.8319 0.42048 0.0
O186 O 0.62996 0.849 0.38969 0.0
C187 C 0.74701 0.85276 0.48803 0.0
O188 O 0.72483 0.87999 0.49163 0.0
O189 O 0.74479 0.83353 0.46089 0.0
O190 O 0.70557 0.90081 0.40599 0.0
O191 O 0.71884 0.81421 0.37398 0.0
C192 C 0.70918 0.78221 0.37564 0.0
O193 O 0.69255 0.77038 0.40483 0.0
O194 O 0.65327 0.82775 0.44 0.0
Mg195 Mg 0.92448 0.82618 0.29015 0.0
C196 C 0.91357 0.8343 0.2064 0.0
O197 O 0.91685 0.85309 0.17656 0.0
C198 C 0.99434 0.86549 0.29443 0.0
O199 O 0.99249 0.86325 0.25962 0.0
C200 C 0.95433 0.7554 0.26468 0.0
O201 O 0.97559 0.77676 0.24617 0.0
O202 O 0.93175 0.76874 0.28696 0.0
O203 O 0.92151 0.8485 0.2356 0.0
O204 O 0.87491 0.84052 0.32091 0.0
C205 C 0.85415 0.86447 0.30802 0.0
O206 O 0.86406 0.8805 0.27792 0.0
O207 O 0.97015 0.85092 0.31418 0.0
Mg208 Mg 0.64086 0.17786 0.72307 0.0
C209 C 0.67257 0.20189 0.64838 0.0
O210 O 0.68161 0.19604 0.61486 0.0
C211 C 0.56773 0.14617 0.74164 0.0
O212 O 0.55975 0.17895 0.75013 0.0
C213 C 0.59625 0.24281 0.70791 0.0
O214 O 0.58617 0.22213 0.68255 0.0
O215 O 0.6185 0.2306 0.73033 0.0
O216 O 0.66289 0.17587 0.6685 0.0
O217 O 0.68158 0.16715 0.76272 0.0
C218 C 0.71154 0.15167 0.75587 0.0
O219 O 0.71844 0.14027 0.72348 0.0
O220 O 0.59925 0.13866 0.72985 0.0
Mg221 Mg 0.55704 0.46514 0.66305 0.0
C222 C 0.62065 0.44488 0.6166 0.0
O223 O 0.61511 0.41376 0.63184 0.0
C224 C 0.56728 0.52726 0.71065 0.0
O225 O 0.58456 0.53905 0.68182 0.0
C226 C 0.5699 0.39491 0.6994 0.0
O227 O 0.59042 0.41504 0.71789 0.0
O228 O 0.55094 0.4093 0.67521 0.0
O229 O 0.60446 0.47187 0.62931 0.0
O230 O 0.51747 0.48642 0.62633 0.0
C231 C 0.5015 0.51576 0.63248 0.0
O232 O 0.50382 0.52933 0.66422 0.0
O233 O 0.55518 0.49609 0.71095 0.0
Mg234 Mg 0.07794 0.34388 0.98736 0.0
C235 C 0.0207 0.37814 0.94781 0.0
O236 O 1.00669 0.34863 0.96041 0.0
C237 C 0.1577 0.36024 0.97674 0.0
O238 O 0.14574 0.38956 0.96128 0.0
C239 C 0.05148 0.27698 0.9554 0.0
O240 O 0.07319 0.28761 0.92918 0.0
O241 O 0.05029 0.2942 0.98413 0.0
O242 O 0.05427 0.38228 0.95059 0.0
O243 O 0.06207 0.36989 0.03614 0.0
C244 C 0.07253 0.40152 0.03885 0.0
O245 O 0.09573 0.41396 0.01492 0.0
O246 O 0.13549 0.33687 0.98714 0.0
Mg247 Mg 0.45976 0.6817 0.47576 0.0
C248 C 0.46229 0.63326 0.4075 0.0
O249 O 0.44889 0.62534 0.37673 0.0
C250 C 0.38037 0.69103 0.48752 0.0
O251 O 0.38163 0.66475 0.4652 0.0
C252 C 0.49899 0.74745 0.4494 0.0
O253 O 0.47111 0.74988 0.42881 0.0
O254 O 0.50072 0.72204 0.47219 0.0
O255 O 0.44988 0.66055 0.42332 0.0
O256 O 0.47429 0.64078 0.51454 0.0
C257 C 0.4616 0.60982 0.51468 0.0
O258 O 0.43968 0.60118 0.48968 0.0
O259 O 0.40967 0.70457 0.49627 0.0
Mg260 Mg 0.65952 0.52111 0.46054 0.0
C261 C 0.65204 0.43942 0.46496 0.0
O262 O 0.65215 0.40791 0.45096 0.0
C263 C 0.72029 0.53109 0.40518 0.0
O264 O 0.73097 0.49963 0.4167 0.0
C265 C 0.70869 0.50405 0.52154 0.0
O266 O 0.72564 0.48578 0.49661 0.0
O267 O 0.68165 0.52304 0.51309 0.0
O268 O 0.65432 0.46654 0.44428 0.0
O269 O 0.60915 0.55116 0.45979 0.0
C270 C 0.58012 0.53937 0.44827 0.0
O271 O 0.5795 0.50646 0.43785 0.0
O272 O 0.69319 0.54611 0.42011 0.0
Mg273 Mg 0.73421 0.40138 0.7263 0.0
C274 C 0.68965 0.34739 0.68958 0.0
O275 O 0.6913 0.37081 0.66313 0.0
C276 C 0.71227 0.42273 0.79979 0.0
O277 O 0.71347 0.38808 0.80373 0.0
C278 C 0.72027 0.45558 0.66874 0.0
O279 O 0.69609 0.46525 0.693 0.0
O280 O 0.74116 0.42958 0.67584 0.0
O281 O 0.70181 0.35526 0.71964 0.0
O282 O 0.7842 0.37838 0.74491 0.0
C283 C 0.80126 0.39224 0.76971 0.0
O284 O 0.79175 0.42402 0.78031 0.0
O285 O 0.71567 0.43603 0.76842 0.0
Mg286 Mg 0.83278 0.51016 0.96326 0.0
C287 C 0.84986 0.59107 0.96778 0.0
O288 O 0.85215 0.62274 0.95274 0.0
C289 C 0.77176 0.50507 0.91037 0.0
O290 O 0.77406 0.53969 0.90865 0.0
C291 C 0.79081 0.52979 0.02843 0.0
O292 O 0.77382 0.5485 1.00394 0.0
O293 O 0.81557 0.50838 0.0185 0.0
O294 O 0.84213 0.56529 0.94822 0.0
O295 O 0.88074 0.47748 0.95486 0.0
C296 C 0.91156 0.48837 0.94476 0.0
O297 O 0.91655 0.52236 0.93916 0.0
O298 O 0.79204 0.48745 0.93124 0.0
Mg299 Mg 0.80677 0.64171 0.22317 0.0
C300 C 0.86176 0.69177 0.19428 0.0
O301 O 0.84546 0.68611 0.16442 0.0
C302 C 0.77215 0.59199 0.2702 0.0
O303 O 0.74786 0.60422 0.2481 0.0
C304 C 0.80226 0.58688 0.16912 0.0
O305 O 0.81805 0.56962 0.19534 0.0
O306 O 0.79415 0.6194 0.17288 0.0
O307 O 0.8546 0.67242 0.22163 0.0
O308 O 0.76749 0.68013 0.2428 0.0
C309 C 0.77269 0.68485 0.27571 0.0
O310 O 0.79918 0.6676 0.29112 0.0
O311 O 0.80452 0.60092 0.26464 0.0
C312 C 0.25599 0.41158 0.21247 0.0
C313 C 0.27108 0.39258 0.18356 0.0
C314 C 0.22289 0.40276 0.22857 0.0
C315 C 0.20304 0.37434 0.21671 0.0
H316 H 0.26981 0.43382 0.22295 0.0
H317 H 0.21292 0.41847 0.25067 0.0
S318 S 0.22976 0.31577 0.14198 0.0
N319 N 0.26285 0.34395 0.14374 0.0
N320 N 0.2009 0.32687 0.17424 0.0
C321 C 0.21772 0.35475 0.18809 0.0
C322 C 0.2516 0.36392 0.17154 0.0
C323 C 0.96694 0.91733 0.44455 0.0
C324 C 0.96798 0.92298 0.4814 0.0
C325 C 0.97716 0.9439 0.41963 0.0
C326 C 0.9896 0.97678 0.4307 0.0
H327 H 0.95822 0.89222 0.43491 0.0
H328 H 0.97651 0.93806 0.39151 0.0
S329 S 0.99796 1.00412 0.52464 0.0
N330 N 0.98232 0.96364 0.52793 0.0
N331 N 1.00179 0.01331 0.48142 0.0
C332 C 0.9902 0.98278 0.46763 0.0
C333 C 0.97944 0.95593 0.49287 0.0
C334 C 0.2638 0.67484 0.76336 0.0
C335 C 0.26627 0.67876 0.72586 0.0
C336 C 0.29423 0.66678 0.78344 0.0
C337 C 0.32836 0.66305 0.76679 0.0
H338 H 0.23843 0.67954 0.77748 0.0
H339 H 0.29132 0.66565 0.8123 0.0
S340 S 0.34909 0.66644 0.66937 0.0
N341 N 0.30546 0.67455 0.67278 0.0
N342 N 0.36252 0.66041 0.7107 0.0
C343 C 0.33095 0.6648 0.72932 0.0
C344 C 0.29993 0.67232 0.70879 0.0
C345 C 0.58753 0.0802 0.95256 0.0
C346 C 0.57848 0.11643 0.94852 0.0
C347 C 0.57183 0.05476 0.93157 0.0
C348 C 0.5467 0.0648 0.90581 0.0
H349 H 0.60534 0.07119 0.97337 0.0
H350 H 0.57807 0.02703 0.93679 0.0
S351 S 0.51953 0.15686 0.88014 0.0
N352 N 0.54659 0.16135 0.91374 0.0
N353 N 0.51759 0.11388 0.8739 0.0
C354 C 0.53964 0.10118 0.89971 0.0
C355 C 0.55538 0.12692 0.92118 0.0
C356 C 0.14933 0.21633 0.34119 0.0
C357 C 0.17698 0.21422 0.31487 0.0
C358 C 0.13283 0.24895 0.34952 0.0
C359 C 0.14355 0.2804 0.33184 0.0
H360 H 0.14044 0.19265 0.35543 0.0
H361 H 0.11148 0.24958 0.36977 0.0
S362 S 0.21876 0.28997 0.26574 0.0
N363 N 0.21647 0.24697 0.27371 0.0
N364 N 0.18635 0.30805 0.29064 0.0
C365 C 0.17185 0.27879 0.30647 0.0
C366 C 0.1883 0.2457 0.29759 0.0
C367 C 0.04223 0.90609 0.62302 0.0
C368 C 0.03967 0.89624 0.58729 0.0
C369 C 0.06869 0.9297 0.633 0.0
C370 C 0.0933 0.9441 0.60751 0.0
H371 H 0.02466 0.89452 0.64349 0.0
H372 H 0.07045 0.93591 0.66095 0.0
S373 S 0.09392 0.93 0.5095 0.0
N374 N 0.06093 0.90557 0.52588 0.0
N375 N 0.11097 0.94861 0.54435 0.0
C376 C 0.08965 0.93547 0.57142 0.0
C377 C 0.06272 0.91191 0.56139 0.0
C378 C 0.36224 0.7684 0.83291 0.0
C379 C 0.37113 0.80187 0.84532 0.0
C380 C 0.37877 0.73746 0.84612 0.0
C381 C 0.40517 0.73852 0.87182 0.0
H382 H 0.34147 0.76577 0.81361 0.0
H383 H 0.36978 0.71238 0.83718 0.0
S384 S 0.44047 0.81913 0.91149 0.0
N385 N 0.40967 0.83423 0.88388 0.0
N386 N 0.44079 0.77559 0.90849 0.0
C387 C 0.41502 0.77166 0.8841 0.0
C388 C 0.39816 0.80343 0.8707 0.0
C389 C 0.49234 0.0531 0.09523 0.0
C390 C 0.45849 0.06961 0.1005 0.0
C391 C 0.52331 0.07305 0.08944 0.0
C392 C 0.52175 0.11027 0.08917 0.0
H393 H 0.49475 0.02459 0.09349 0.0
H394 H 0.5484 0.05917 0.08344 0.0
S395 S 0.44026 0.16609 0.10737 0.0
N396 N 0.4257 0.12513 0.10913 0.0
N397 N 0.48387 0.16274 0.09885 0.0
C398 C 0.48844 0.12702 0.09735 0.0
C399 C 0.45682 0.10666 0.10276 0.0
C400 C 0.11796 0.03363 0.51939 0.0
C401 C 0.12801 0.04828 0.48569 0.0
C402 C 0.13275 0.04522 0.55082 0.0
C403 C 0.1582 0.07193 0.55003 0.0
H404 H 0.09736 0.01394 0.5218 0.0
H405 H 0.12287 0.0344 0.57615 0.0
S406 S 0.19209 0.12127 0.46963 0.0
N407 N 0.16426 0.09243 0.45388 0.0
N408 N 0.19182 0.11427 0.51335 0.0
C409 C 0.16819 0.08745 0.51683 0.0
C410 C 0.15328 0.07552 0.48458 0.0
C411 C 0.20983 0.85178 0.71004 0.0
C412 C 0.19699 0.81889 0.72239 0.0
C413 C 0.22273 0.87621 0.73382 0.0
C414 C 0.22437 0.86804 0.77061 0.0
H415 H 0.21097 0.8582 0.68168 0.0
H416 H 0.23359 0.90069 0.72294 0.0
S417 S 0.19183 0.78634 0.81657 0.0
N418 N 0.18417 0.7804 0.77396 0.0
N419 N 0.20985 0.82576 0.81852 0.0
C420 C 0.21013 0.83589 0.78345 0.0
C421 C 0.19608 0.81142 0.75935 0.0
C422 C 0.37009 0.93448 0.98103 0.0
C423 C 0.37811 0.96029 1.00583 0.0
C424 C 0.38733 0.93386 0.94719 0.0
C425 C 0.41237 0.9597 0.93654 0.0
H426 H 0.35092 0.91414 0.98813 0.0
H427 H 0.38127 0.91279 0.92936 0.0
S428 S 0.44025 0.0351 0.99035 0.0
N429 N 0.41132 0.0136 0.01656 0.0
N430 N 0.44289 0.01298 0.95291 0.0
C431 C 0.41941 0.98659 0.96053 0.0
C432 C 0.40253 0.98673 0.9952 0.0
C433 C 0.31666 0.19676 0.21762 0.0
C434 C 0.31002 0.19743 0.25478 0.0
C435 C 0.32279 0.22783 0.19754 0.0
C436 C 0.3229 0.26101 0.21371 0.0
H437 H 0.316 0.17212 0.20352 0.0
H438 H 0.32699 0.22575 0.16892 0.0
S439 S 0.30949 0.27739 0.31053 0.0
N440 N 0.30576 0.23415 0.30732 0.0
N441 N 0.31771 0.2926 0.26946 0.0
C442 C 0.31791 0.26207 0.25106 0.0
C443 C 0.31141 0.2303 0.2716 0.0
C444 C 0.82089 0.37262 0.83007 0.0
C445 C 0.82341 0.36893 0.79278 0.0
C446 C 0.83452 0.34627 0.8532 0.0
C447 C 0.85202 0.31589 0.83983 0.0
H448 H 0.80614 0.39476 0.84158 0.0
H449 H 0.83022 0.34911 0.88173 0.0
S450 S 0.86905 0.29558 0.74438 0.0
N451 N 0.84685 0.33385 0.74354 0.0
N452 N 0.87363 0.28488 0.78704 0.0
C453 C 0.85703 0.31313 0.80265 0.0
C454 C 0.8424 0.33954 0.77909 0.0
C455 C 0.88619 0.55365 0.05519 0.0
C456 C 0.87874 0.58116 0.07917 0.0
C457 C 0.87593 0.55648 0.01942 0.0
C458 C 0.85708 0.58649 1.00646 0.0
H459 H 0.90159 0.53047 0.06358 0.0
H460 H 0.88369 0.53542 1.00165 0.0
S461 S 0.82734 0.66395 0.05958 0.0
N462 N 0.84937 0.63826 0.08809 0.0
N463 N 0.82896 0.64306 0.02135 0.0
C464 C 0.84806 0.61341 0.03065 0.0
C465 C 0.85903 0.61081 0.06687 0.0
C466 C 0.72447 0.72123 0.3564 0.0
C467 C 0.72044 0.75739 0.34745 0.0
C468 C 0.73956 0.69752 0.33194 0.0
C469 C 0.75019 0.70887 0.29735 0.0
H470 H 0.71772 0.71138 0.38312 0.0
H471 H 0.7441 0.67025 0.34058 0.0
S472 S 0.74142 0.79977 0.25905 0.0
N473 N 0.72588 0.803 0.30064 0.0
N474 N 0.75291 0.75768 0.25404 0.0
C475 C 0.74399 0.74433 0.28704 0.0
C476 C 0.72949 0.76884 0.31233 0.0
C477 C 0.90085 0.74145 0.17311 0.0
C478 C 0.87765 0.72657 0.19932 0.0
C479 C 0.91297 0.77616 0.17604 0.0
C480 C 0.90175 0.79728 0.20494 0.0
H481 H 0.9095 0.72624 0.15016 0.0
H482 H 0.93104 0.78664 0.1554 0.0
S483 S 0.83796 0.77172 0.27838 0.0
N484 N 0.84266 0.73596 0.25421 0.0
N485 N 0.86355 0.80166 0.2582 0.0
C486 C 0.87773 0.78292 0.23061 0.0
C487 C 0.86622 0.7474 0.22825 0.0
C488 C 0.65937 0.2667 0.64101 0.0
C489 C 0.6736 0.2384 0.66155 0.0
C490 C 0.66301 0.30192 0.65122 0.0
C491 C 0.6812 0.3101 0.68227 0.0
H492 H 0.64575 0.2616 0.61658 0.0
H493 H 0.65224 0.32289 0.63419 0.0
S494 S 0.72518 0.2454 0.74397 0.0
N495 N 0.70791 0.22095 0.71316 0.0
N496 N 0.71392 0.28663 0.73324 0.0
C497 C 0.69496 0.28187 0.70335 0.0
C498 C 0.6915 0.24615 0.69268 0.0
C499 C 0.47369 0.59747 0.57878 0.0
C500 C 0.46971 0.58469 0.54428 0.0
C501 C 0.48206 0.57459 0.6074 0.0
C502 C 0.48758 0.53802 0.60254 0.0
H503 H 0.47032 0.62548 0.58376 0.0
H504 H 0.48542 0.58601 0.63329 0.0
S505 S 0.48005 0.49137 0.51704 0.0
N506 N 0.471 0.53326 0.50668 0.0
N507 N 0.4878 0.49009 0.56025 0.0
C508 C 0.48316 0.52481 0.56812 0.0
C509 C 0.47396 0.54817 0.53906 0.0
C510 C 0.80342 0.16669 0.79248 0.0
C511 C 0.79604 0.17074 0.82925 0.0
C512 C 0.77635 0.15802 0.76919 0.0
C513 C 0.74071 0.15371 0.78168 0.0
H514 H 0.83002 0.17168 0.7813 0.0
H515 H 0.78303 0.15685 0.74089 0.0
S516 S 0.70781 0.15725 0.87596 0.0
N517 N 0.75088 0.16616 0.87749 0.0
N518 N 0.70005 0.15073 0.83349 0.0
C519 C 0.73333 0.1556 0.81859 0.0
C520 C 0.76099 0.16383 0.84244 0.0
C521 C 0.99654 0.44172 0.09402 0.0
C522 C 1.0077 0.47654 0.09893 0.0
C523 C 0.01871 0.41696 0.07663 0.0
C524 C 0.05278 0.42619 0.06282 0.0
H525 H 0.97011 0.43352 0.10324 0.0
H526 H 1.00825 0.39089 0.07262 0.0
S527 S 0.0958 0.51325 0.07109 0.0
N528 N 0.05593 0.51843 0.09092 0.0
N529 N 0.0977 0.47205 0.05734 0.0
C530 C 0.06494 0.46056 0.06881 0.0
C531 C 0.0424 0.4857 0.0871 0.0
C532 C 0.78063 0.87715 0.38037 0.0
C533 C 0.75527 0.89895 0.36289 0.0
C534 C 0.81208 0.865 0.36228 0.0
C535 C 0.81926 0.87435 0.32611 0.0
H536 H 0.7771 0.87097 0.40859 0.0
H537 H 0.83147 0.84935 0.37713 0.0
S538 S 0.75828 0.92648 0.26722 0.0
N539 N 0.73752 0.92632 0.30675 0.0
N540 N 0.79589 0.90346 0.27267 0.0
C541 C 0.7929 0.89444 0.30798 0.0
C542 C 0.76116 0.90679 0.3264 0.0
C543 C 0.61918 0.47163 0.55522 0.0
C544 C 0.6342 0.44653 0.57914 0.0
C545 C 0.6257 0.46953 0.51834 0.0
C546 C 0.64812 0.44283 0.50405 0.0
H547 H 0.60065 0.49199 0.56475 0.0
H548 H 0.61219 0.48834 0.50089 0.0
S549 S 0.69701 0.37299 0.5554 0.0
N550 N 0.67421 0.39548 0.58609 0.0
N551 N 0.68737 0.3922 0.51667 0.0
C552 C 0.66455 0.41848 0.5277 0.0
C553 C 0.65753 0.42031 0.56528 0.0
C554 C 0.96068 0.40113 0.9306 0.0
C555 C 0.99608 0.4083 0.9397 0.0
C556 C 0.93392 0.4276 0.93099 0.0
C557 C 0.94149 0.4624 0.94025 0.0
H558 H 0.95314 0.37441 0.92473 0.0
H559 H 0.9068 0.42045 0.92498 0.0
S560 S 0.03016 0.49555 0.96478 0.0
N561 N 0.03764 0.4532 0.95694 0.0
N562 N 0.98724 0.50316 0.9572 0.0
C563 C 0.97715 0.47052 0.94748 0.0
C564 C 1.00451 0.44341 0.94728 0.0
C565 C 0.5173 0.5504 0.42822 0.0
C566 C 0.54868 0.56354 0.44263 0.0
C567 C 0.48897 0.57315 0.41825 0.0
C568 C 0.49063 0.6099 0.42263 0.0
H569 H 0.51492 0.5224 0.42354 0.0
H570 H 0.46581 0.56189 0.40634 0.0
S571 S 0.56603 0.65799 0.45977 0.0
N572 N 0.57893 0.61598 0.46197 0.0
N573 N 0.52589 0.65844 0.44235 0.0
C574 C 0.52116 0.62335 0.43803 0.0
C575 C 0.55009 0.60024 0.4483 0.0
C576 C 0.05543 0.16362 0.33044 0.0
C577 C 0.07966 0.13965 0.3139 0.0
C578 C 0.05293 0.19913 0.31895 0.0
C579 C 0.07451 0.21234 0.29033 0.0
H580 H 0.03895 0.15526 0.3533 0.0
H581 H 0.03472 0.21658 0.33355 0.0
S582 S 0.13918 0.15962 0.23494 0.0
N583 N 0.12353 0.13104 0.26528 0.0
N584 N 0.11874 0.19773 0.24362 0.0
C585 C 0.0976 0.1883 0.27234 0.0
C586 C 0.10023 0.15205 0.28415 0.0
C587 C 0.06538 0.72341 0.64244 0.0
C588 C 0.09608 0.72331 0.61969 0.0
C589 C 0.03206 0.73573 0.6303 0.0
C590 C 0.02802 0.7483 0.59489 0.0
H591 H 0.06742 0.71602 0.67044 0.0
H592 H 1.00978 0.7372 0.64948 0.0
S593 S 0.09865 0.74685 0.52282 0.0
N594 N 0.11922 0.73188 0.55873 0.0
N595 N 0.05667 0.75491 0.53589 0.0
C596 C 0.05777 0.74517 0.57101 0.0
C597 C 0.09177 0.73277 0.58344 0.0
C598 C 0.46513 0.85278 0.79844 0.0
C599 C 0.48996 0.86795 0.82082 0.0
C600 C 0.46204 0.81606 0.79655 0.0
C601 C 0.48368 0.79281 0.81691 0.0
H602 H 0.44717 0.86935 0.78276 0.0
H603 H 0.44182 0.80593 0.77957 0.0
S604 S 0.55425 0.81886 0.8785 0.0
N605 N 0.53763 0.85675 0.86284 0.0
N606 N 0.5319 0.78768 0.85926 0.0
C607 C 0.5094 0.80754 0.83865 0.0
C608 C 0.51251 0.84507 0.84063 0.0
C609 C 0.44775 0.30045 0.06479 0.0
C610 C 0.44714 0.32104 0.09566 0.0
C611 C 0.47924 0.28317 0.05265 0.0
C612 C 0.51149 0.28566 0.0709 0.0
H613 H 0.42335 0.29629 0.05062 0.0
H614 H 0.47771 0.26627 0.02984 0.0
S615 S 0.52597 0.3411 0.14942 0.0
N616 N 0.48287 0.34652 0.14151 0.0
N617 N 0.54201 0.31396 0.11871 0.0
C618 C 0.51195 0.30822 0.10022 0.0
C619 C 0.47983 0.32592 0.11258 0.0
C620 C 0.30094 0.01668 0.24979 0.0
C621 C 0.27255 0.04177 0.25153 0.0
C622 C 0.31385 1.00383 0.21702 0.0
C623 C 0.29895 0.01569 0.18471 0.0
H624 H 0.31483 0.0084 0.27367 0.0
H625 H 0.3372 0.98629 0.21698 0.0
S626 S 0.21901 0.07498 0.17522 0.0
N627 N 0.22603 0.07336 0.21852 0.0
N628 N 0.25047 0.04931 0.1569 0.0
C629 C 0.26828 0.03799 0.18633 0.0
C630 C 0.255 0.05097 0.21976 0.0
C631 C 0.26934 0.06045 0.48205 0.0
C632 C 0.24655 0.0332 0.49407 0.0
C633 C 0.27021 0.07203 0.44626 0.0
C634 C 0.24817 0.05689 0.42113 0.0
H635 H 0.28536 0.07428 0.5007 0.0
H636 H 0.28694 0.09421 0.43874 0.0
S637 S 0.1883 0.98052 0.43764 0.0
N638 N 0.20495 0.98816 0.47695 0.0
N639 N 0.20636 0.01011 0.40983 0.0
C640 C 0.22739 0.02774 0.43218 0.0
C641 C 0.22662 0.01582 0.46861 0.0
C642 C 0.30514 0.92783 0.69846 0.0
C643 C 0.31904 0.94512 0.72772 0.0
C644 C 0.28633 0.94662 0.67212 0.0
C645 C 0.2812 0.98353 0.67357 0.0
H646 H 0.30661 0.89926 0.69698 0.0
H647 H 0.27463 0.93185 0.65112 0.0
S648 S 0.31732 0.04203 0.74143 0.0
N649 N 0.33001 1.00175 0.75439 0.0
N650 N 0.29511 0.03722 0.70444 0.0
C651 C 0.29753 1.00154 0.701 0.0
C652 C 0.31637 0.9823 0.72815 0.0
C653 C 0.32663 0.01304 0.92467 0.0
C654 C 0.30335 0.98595 0.91609 0.0
C655 C 0.32332 0.02986 0.9575 0.0
C656 C 0.29657 0.02028 0.98312 0.0
H657 H 0.3488 0.02014 0.90674 0.0
H658 H 0.34328 0.04907 0.96356 0.0
S659 S 0.22493 0.95521 0.97093 0.0
N660 N 0.2498 0.95345 0.93379 0.0
N661 N 0.24342 0.98513 0.99548 0.0
C662 C 0.27129 0.99528 0.97361 0.0
C663 C 0.27481 0.978 0.94018 0.0
C664 C 0.21452 0.38871 0.99355 0.0
C665 C 0.19479 0.35776 0.98979 0.0
C666 C 0.24611 0.38821 0.01295 0.0
C667 C 0.2591 0.35675 0.02928 0.0
H668 H 0.20445 0.41394 0.98333 0.0
H669 H 0.2593 0.41304 0.01671 0.0
S670 S 0.22114 0.26734 0.02145 0.0
N671 N 0.19331 0.29393 0.9996 0.0
N672 N 0.25255 0.29299 0.03606 0.0
C673 C 0.24124 0.32513 0.02319 0.0
C674 C 0.20914 0.32564 1.00342 0.0
C675 C 0.75286 0.16929 0.02088 0.0
C676 C 0.76396 0.20201 1.00603 0.0
C677 C 0.71873 0.16556 0.0371 0.0
C678 C 0.69432 0.19437 0.039 0.0
H679 H 0.76982 0.14583 0.01831 0.0
H680 H 0.71073 0.13938 0.04616 0.0
S681 S 0.71276 0.2872 0.01076 0.0
N682 N 0.74967 0.26493 0.99921 0.0
N683 N 0.68553 0.25781 0.02951 0.0
C684 C 0.70621 0.22786 0.02712 0.0
C685 C 0.74101 0.23171 0.01071 0.0
C686 C 1.00503 0.4304 0.26675 0.0
C687 C 0.01409 0.39862 0.24944 0.0
C688 C 0.97943 0.45436 0.25299 0.0
C689 C 0.96141 0.44746 0.22152 0.0
H690 H 0.0188 0.43765 0.29046 0.0
H691 H 0.9747 0.47912 0.26648 0.0
S692 S 0.97241 0.36627 0.16792 0.0
N693 N 1.00088 0.3603 0.20052 0.0
N694 N 0.9525 0.40498 0.17491 0.0
C695 C 0.9686 0.41478 0.20509 0.0
C696 C 0.99502 0.39052 0.21892 0.0
C697 C 0.81874 0.87222 0.55405 0.0
C698 C 0.84127 0.8419 0.55255 0.0
C699 C 0.78722 0.87477 0.53459 0.0
C700 C 0.77704 0.84716 0.51277 0.0
H701 H 0.82641 0.89503 0.56877 0.0
H702 H 0.7718 0.89936 0.53526 0.0
S703 S 0.82287 0.75946 0.5049 0.0
N704 N 0.84829 0.78164 0.53147 0.0
N705 N 0.78927 0.78662 0.49475 0.0
C706 C 0.79773 0.81561 0.51329 0.0
C707 C 0.82973 0.81291 0.53325 0.0
C708 C 0.31447 0.7327 0.55424 0.0
C709 C 0.28178 0.71688 0.54669 0.0
C710 C 0.34587 0.72531 0.53405 0.0
C711 C 0.3459 0.70187 0.50542 0.0
H712 H 0.31628 0.74978 0.57688 0.0
H713 H 0.37056 0.73714 0.54187 0.0
S714 S 0.26614 0.6576 0.47143 0.0
N715 N 0.25054 0.67964 0.50627 0.0
N716 N 0.30943 0.66582 0.46824 0.0
C717 C 0.31292 0.68757 0.49624 0.0
C718 C 0.28093 0.69505 0.51688 0.0
C719 C 0.04928 0.90998 0.3638 0.0
C720 C 0.06678 0.93707 0.34396 0.0
C721 C 0.02701 0.88615 0.3474 0.0
C722 C 0.02178 0.88792 0.31036 0.0
H723 H 0.05093 0.90836 0.39262 0.0
H724 H 0.01285 0.86694 0.36416 0.0
S725 S 0.06567 0.95064 0.24558 0.0
N726 N 0.08022 0.96199 0.28479 0.0
N727 N 0.03907 0.91684 0.25376 0.0
C728 C 0.04125 0.9132 0.28982 0.0
C729 C 0.06357 0.93781 0.30665 0.0
C730 C 0.48877 0.09728 0.78397 0.0
C731 C 0.49665 0.06179 0.7757 0.0
C732 C 0.51088 0.12466 0.77126 0.0
C733 C 0.54169 0.11764 0.74972 0.0
H734 H 0.46685 0.10383 0.80243 0.0
H735 H 0.50476 0.15124 0.78006 0.0
S736 S 0.56998 0.03005 0.71462 0.0
N737 N 0.53434 0.02173 0.74045 0.0
N738 N 0.57583 0.07313 0.71641 0.0
C739 C 0.54804 0.08267 0.73869 0.0
C740 C 0.52551 0.0548 0.75166 0.0
C741 C 0.60162 0.30381 0.73139 0.0
C742 C 0.58576 0.28091 0.70765 0.0
C743 C 0.59536 0.34044 0.72924 0.0
C744 C 0.57279 0.35577 0.70341 0.0
H745 H 0.62006 0.29358 0.75112 0.0
H746 H 0.60916 0.35689 0.74746 0.0
S747 S 0.52238 0.30725 0.63667 0.0
N748 N 0.54476 0.27607 0.65875 0.0
N749 N 0.53283 0.34484 0.65483 0.0
C750 C 0.55556 0.33306 0.68043 0.0
C751 C 0.56207 0.2957 0.68253 0.0
C752 C 0.98565 0.22429 0.90432 0.0
C753 C 0.95827 0.2177 0.93015 0.0
C754 C 0.01726 0.24098 0.91331 0.0
C755 C 0.02271 0.25164 0.94847 0.0
H756 H 0.98165 0.21892 0.87647 0.0
H757 H 0.0364 0.24763 0.89199 0.0
S758 S 0.96285 0.23277 0.0274 0.0
N759 N 0.9413 0.21751 0.99334 0.0
N760 N 1.00071 0.24866 0.01033 0.0
C761 C 0.99721 0.24174 0.97518 0.0
C762 C 0.96498 0.22485 0.96598 0.0
C763 C 0.97193 0.70513 0.22489 0.0
C764 C 0.95266 0.7174 0.25522 0.0
C765 C 0.96812 0.67058 0.21288 0.0
C766 C 0.94496 0.6466 0.23073 0.0
H767 H 0.98943 0.72266 0.20949 0.0
H768 H 0.98299 0.66291 0.18894 0.0
S769 S 0.88982 0.66471 0.31286 0.0
N770 N 0.91058 0.70214 0.30377 0.0
N771 N 0.90361 0.63725 0.28151 0.0
C772 C 0.92636 0.65813 0.26181 0.0
C773 C 0.93015 0.69343 0.27396 0.0
C774 C 0.56139 0.7656 0.46288 0.0
C775 C 0.52968 0.7718 0.44399 0.0
C776 C 0.59192 0.78605 0.4561 0.0
C777 C 0.59213 0.81354 0.43004 0.0
H778 H 0.56311 0.74413 0.48248 0.0
H779 H 0.61591 0.77938 0.47062 0.0
S780 S 0.51484 0.8434 0.37595 0.0
N781 N 0.49954 0.80956 0.40013 0.0
N782 N 0.5569 0.8478 0.38734 0.0
C783 C 0.56016 0.82108 0.41205 0.0
C784 C 0.52897 0.80031 0.41904 0.0
C785 C 0.71366 0.56964 0.3511 0.0
C786 C 0.73541 0.54663 0.37155 0.0
C787 C 0.72577 0.58341 0.31813 0.0
C788 C 0.76039 0.57528 0.30444 0.0
H789 H 0.68666 0.57667 0.36024 0.0
H790 H 0.70789 0.60107 0.30355 0.0
S791 S 0.8285 0.51734 0.34788 0.0
N792 N 0.79348 0.51655 0.37599 0.0
N793 N 0.81672 0.54346 0.31403 0.0
C794 C 0.78279 0.55283 0.32476 0.0
C795 C 0.77015 0.53819 0.35826 0.0
C796 C 0.73898 0.46821 0.56923 0.0
C797 C 0.71566 0.49638 0.55977 0.0
C798 C 0.74139 0.45619 0.60474 0.0
C799 C 0.72053 0.47185 0.63229 0.0
H800 H 0.75436 0.4541 0.5489 0.0
H801 H 0.75866 0.43349 0.6103 0.0
S802 S 0.65864 0.54945 0.6224 0.0
N803 N 0.67389 0.54194 0.58142 0.0
N804 N 0.67829 0.51924 0.64812 0.0
C805 C 0.69869 0.5014 0.62354 0.0
C806 C 0.69632 0.51374 0.58734 0.0
C807 C 0.74643 0.44894 0.88903 0.0
C808 C 0.74965 0.48589 0.88507 0.0
C809 C 0.73129 0.42899 0.86257 0.0
C810 C 0.71899 0.44509 0.83083 0.0
H811 H 0.7572 0.43495 0.91204 0.0
H812 H 0.73147 0.40047 0.86616 0.0
S813 S 0.71523 0.54159 0.81001 0.0
N814 N 0.73466 0.53831 0.84901 0.0
N815 N 0.70643 0.50069 0.79912 0.0
C816 C 0.71919 0.48229 0.82783 0.0
C817 C 0.73446 0.50271 0.85496 0.0
C818 C 0.77579 0.58734 0.10867 0.0
C819 C 0.79555 0.56933 0.13514 0.0
C820 C 0.77213 0.57307 0.07491 0.0
C821 C 0.78831 0.54034 0.06621 0.0
H822 H 0.76405 0.61328 0.11355 0.0
H823 H 0.75819 0.58884 0.05496 0.0
S824 S 0.83926 0.48055 0.12731 0.0
N825 N 0.82861 0.51536 0.15144 0.0
N826 N 0.82186 0.48867 0.08789 0.0
C827 C 0.80619 0.52099 0.09313 0.0
C828 C 0.8098 0.53546 0.1276 0.0
C829 C 0.53125 0.61223 0.75046 0.0
C830 C 0.51309 0.60043 0.78191 0.0
C831 C 0.5511 0.58874 0.72889 0.0
C832 C 0.55336 0.5524 0.73772 0.0
H833 H 0.52903 0.63965 0.74156 0.0
H834 H 0.56295 0.59893 0.70406 0.0
S835 S 0.51561 0.50875 0.81994 0.0
N836 N 0.50236 0.55054 0.82296 0.0
N837 N 0.53945 0.50639 0.78219 0.0
C838 C 0.53756 0.54064 0.77037 0.0
C839 C 0.51751 0.56464 0.79251 0.0
loop_
_geom_bond_atom_site_label_1
_geom_bond_atom_site_label_2
_geom_bond_distance
_geom_bond_site_symmetry_2
_ccdc_geom_bond_type
Mg0 O7 2.141 . S
Mg0 O8 2.048 . S
Mg0 O9 2.048 . S
Mg0 O12 2.141 . S
C1 O2 1.313 . S
C1 O8 1.195 . S
O2 C1 1.313 . S
C3 O4 1.245 . S
C3 O12 1.289 . S
O4 C3 1.245 . S
C5 O6 1.245 . S
C5 O7 1.289 . S
O6 C5 1.245 . S
O7 Mg0 2.141 . S
O7 C5 1.289 . S
O8 Mg0 2.048 . S
O8 C1 1.195 . S
O9 Mg0 2.048 . S
O9 C10 1.195 . S
C10 O9 1.195 . S
C10 O11 1.313 . S
O11 C10 1.313 . S
O12 Mg0 2.141 . S
O12 C3 1.289 . S
Mg13 O20 2.141 . S
Mg13 O21 2.048 . S
Mg13 O22 2.048 1_455 S
Mg13 O25 2.141 1_455 S
C14 O15 1.313 . S
C14 O21 1.195 . S
O15 C14 1.313 . S
C16 O17 1.245 . S
C16 O25 1.289 . S
O17 C16 1.245 . S
C18 O19 1.245 . S
C18 O20 1.289 . S
O19 C18 1.245 . S
O20 Mg13 2.141 . S
O20 C18 1.289 . S
O21 Mg13 2.048 . S
O21 C14 1.195 . S
O22 Mg13 2.048 1_655 S
O22 C23 1.195 . S
C23 O22 1.195 . S
C23 O24 1.313 . S
O24 C23 1.313 . S
O25 Mg13 2.141 1_655 S
O25 C16 1.289 . S
Mg26 O33 2.141 . S
Mg26 O34 2.048 . S
Mg26 O35 2.048 . S
Mg26 O38 2.141 . S
C27 O28 1.313 . S
C27 O34 1.195 . S
O28 C27 1.313 . S
C29 O30 1.245 . S
C29 O38 1.289 . S
O30 C29 1.245 . S
C31 O32 1.245 . S
C31 O33 1.289 . S
O32 C31 1.245 . S
O33 Mg26 2.141 . S
O33 C31 1.289 . S
O34 Mg26 2.048 . S
O34 C27 1.195 . S
O35 Mg26 2.048 . S
O35 C36 1.195 . S
C36 O35 1.195 . S
C36 O37 1.313 . S
O37 C36 1.313 . S
O38 Mg26 2.141 . S
O38 C29 1.289 . S
Mg39 O46 2.141 1_556 S
Mg39 O47 2.048 . S
Mg39 O48 2.048 . S
Mg39 O51 2.141 . S
C40 O41 1.313 . S
C40 O47 1.195 1_554 S
O41 C40 1.313 . S
C42 O43 1.239 1_556 S
C42 O51 1.289 . S
O43 C42 1.239 1_554 S
C44 O45 1.245 . S
C44 O46 1.289 . S
O45 C44 1.245 . S
O46 Mg39 2.141 1_554 S
O46 C44 1.289 . S
O47 Mg39 2.048 . S
O47 C40 1.195 1_556 S
O48 Mg39 2.048 . S
O48 C49 1.195 . S
C49 O48 1.195 . S
C49 O50 1.313 . S
O50 C49 1.313 . S
O51 Mg39 2.141 . S
O51 C42 1.289 . S
Mg52 O59 2.141 . S
Mg52 O60 2.048 . S
Mg52 O61 2.048 1_445 S
Mg52 O64 2.142 1_445 S
C53 O54 1.313 1_545 S
C53 O60 1.195 . S
O54 C53 1.313 1_565 S
C55 O56 1.245 . S
C55 O64 1.288 . S
O56 C55 1.245 . S
C57 O58 1.245 . S
C57 O59 1.289 . S
O58 C57 1.245 . S
O59 Mg52 2.141 . S
O59 C57 1.289 . S
O60 Mg52 2.048 . S
O60 C53 1.195 . S
O61 Mg52 2.048 1_665 S
O61 C62 1.195 1_655 S
C62 O61 1.195 1_455 S
C62 O63 1.313 . S
O63 C62 1.313 . S
O64 Mg52 2.142 1_665 S
O64 C55 1.288 . S
Mg65 O72 2.141 . S
Mg65 O73 2.048 . S
Mg65 O74 2.048 . S
Mg65 O77 2.141 . S
C66 O67 1.313 . S
C66 O73 1.195 . S
O67 C66 1.313 . S
C68 O69 1.245 . S
C68 O77 1.289 . S
O69 C68 1.245 . S
C70 O71 1.245 . S
C70 O72 1.289 . S
O71 C70 1.245 . S
O72 Mg65 2.141 . S
O72 C70 1.289 . S
O73 Mg65 2.048 . S
O73 C66 1.195 . S
O74 Mg65 2.048 . S
O74 C75 1.195 . S
C75 O74 1.195 . S
C75 O76 1.313 . S
O76 C75 1.313 . S
O77 Mg65 2.141 . S
O77 C68 1.289 . S
Mg78 O85 2.141 . S
Mg78 O86 2.048 . S
Mg78 O87 2.048 1_565 S
Mg78 O90 2.141 1_565 S
C79 O80 1.313 1_565 S
C79 O86 1.195 . S
O80 C79 1.313 1_545 S
C81 O82 1.245 . S
C81 O90 1.289 . S
O82 C81 1.245 . S
C83 O84 1.245 . S
C83 O85 1.289 . S
O84 C83 1.245 . S
O85 Mg78 2.141 . S
O85 C83 1.289 . S
O86 Mg78 2.048 . S
O86 C79 1.195 . S
O87 Mg78 2.048 1_545 S
O87 C88 1.195 . S
C88 O87 1.195 . S
C88 O89 1.313 . S
O89 C88 1.313 . S
O90 Mg78 2.141 1_545 S
O90 C81 1.289 . S
Mg91 O98 2.141 . S
Mg91 O99 2.048 . S
Mg91 O100 2.048 . S
Mg91 O103 2.141 . S
C92 O93 1.313 . S
C92 O99 1.195 . S
O93 C92 1.313 . S
C94 O95 1.245 . S
C94 O103 1.289 . S
O95 C94 1.245 . S
C96 O97 1.245 . S
C96 O98 1.289 . S
O97 C96 1.245 . S
O98 Mg91 2.141 . S
O98 C96 1.289 . S
O99 Mg91 2.048 . S
O99 C92 1.195 . S
O100 Mg91 2.048 . S
O100 C101 1.195 . S
C101 O100 1.195 . S
C101 O102 1.313 . S
O102 C101 1.313 . S
O103 Mg91 2.141 . S
O103 C94 1.289 . S
Mg104 O111 2.141 . S
Mg104 O112 2.048 . S
Mg104 O113 2.048 . S
Mg104 O116 2.141 . S
C105 O106 1.313 . S
C105 O112 1.195 . S
O106 C105 1.313 . S
C107 O108 1.245 . S
C107 O116 1.289 . S
O108 C107 1.245 . S
C109 O110 1.245 . S
C109 O111 1.289 . S
O110 C109 1.245 . S
O111 Mg104 2.141 . S
O111 C109 1.289 . S
O112 Mg104 2.048 . S
O112 C105 1.195 . S
O113 Mg104 2.048 . S
O113 C114 1.195 . S
C114 O113 1.195 . S
C114 O115 1.313 . S
O115 C114 1.313 . S
O116 Mg104 2.141 . S
O116 C107 1.289 . S
Mg117 O124 2.141 1_565 S
Mg117 O125 2.048 . S
Mg117 O126 2.048 . S
Mg117 O129 2.141 . S
C118 O119 1.313 . S
C118 O125 1.195 1_545 S
O119 C118 1.313 . S
C120 O121 1.240 1_565 S
C120 O129 1.289 . S
O121 C120 1.240 1_545 S
C122 O123 1.245 . S
C122 O124 1.289 . S
O123 C122 1.245 . S
O124 Mg117 2.141 1_545 S
O124 C122 1.289 . S
O125 Mg117 2.048 . S
O125 C118 1.195 1_565 S
O126 Mg117 2.048 . S
O126 C127 1.195 . S
C127 O126 1.195 . S
C127 O128 1.313 . S
O128 C127 1.313 . S
O129 Mg117 2.141 . S
O129 C120 1.289 . S
Mg130 O137 2.141 . S
Mg130 O138 2.048 . S
Mg130 O139 2.048 . S
Mg130 O142 2.141 . S
C131 O132 1.313 . S
C131 O138 1.195 . S
O132 C131 1.313 . S
C133 O134 1.245 . S
C133 O142 1.289 . S
O134 C133 1.245 . S
C135 O136 1.245 . S
C135 O137 1.289 . S
O136 C135 1.245 . S
O137 Mg130 2.141 . S
O137 C135 1.289 . S
O138 Mg130 2.048 . S
O138 C131 1.195 . S
O139 Mg130 2.048 . S
O139 C140 1.195 . S
C140 O139 1.195 . S
C140 O141 1.313 . S
O141 C140 1.313 . S
O142 Mg130 2.141 . S
O142 C133 1.289 . S
Mg143 O150 2.141 1_545 S
Mg143 O151 2.048 . S
Mg143 O152 2.048 1_556 S
Mg143 O155 2.141 1_556 S
C144 O145 1.312 . S
C144 O151 1.196 1_565 S
O145 C144 1.312 . S
C146 O147 1.245 . S
C146 O155 1.289 . S
O147 C146 1.245 . S
C148 O149 1.255 . S
C148 O150 1.289 . S
O149 C148 1.255 . S
O150 Mg143 2.141 1_565 S
O150 C148 1.289 . S
O151 Mg143 2.048 . S
O151 C144 1.196 1_545 S
O152 Mg143 2.048 1_554 S
O152 C153 1.195 . S
C153 O152 1.195 . S
C153 O154 1.313 . S
O154 C153 1.313 . S
O155 Mg143 2.141 1_554 S
O155 C146 1.289 . S
Mg156 O163 2.141 . S
Mg156 O164 2.048 . S
Mg156 O165 2.048 . S
Mg156 O168 2.141 . S
C157 O158 1.313 . S
C157 O164 1.195 . S
O158 C157 1.313 . S
C159 O160 1.245 . S
C159 O168 1.289 . S
O160 C159 1.245 . S
C161 O162 1.245 . S
C161 O163 1.289 . S
O162 C161 1.245 . S
O163 Mg156 2.141 . S
O163 C161 1.289 . S
O164 Mg156 2.048 . S
O164 C157 1.195 . S
O165 Mg156 2.048 . S
O165 C166 1.195 . S
C166 O165 1.195 . S
C166 O167 1.313 . S
O167 C166 1.313 . S
O168 Mg156 2.141 . S
O168 C159 1.289 . S
Mg169 O176 2.141 1_455 S
Mg169 O177 2.048 1_455 S
Mg169 O178 2.048 . S
Mg169 O181 2.141 . S
C170 O171 1.313 . S
C170 O177 1.195 . S
O171 C170 1.313 . S
C172 O173 1.245 . S
C172 O181 1.289 . S
O173 C172 1.245 . S
C174 O175 1.245 . S
C174 O176 1.289 . S
O175 C174 1.245 . S
O176 Mg169 2.141 1_655 S
O176 C174 1.289 . S
O177 Mg169 2.048 1_655 S
O177 C170 1.195 . S
O178 Mg169 2.048 . S
O178 C179 1.212 . S
C179 O178 1.212 . S
C179 O180 1.284 1_455 S
O180 C179 1.284 1_655 S
O181 Mg169 2.141 . S
O181 C172 1.289 . S
Mg182 O189 2.141 . S
Mg182 O190 2.048 . S
Mg182 O191 2.048 . S
Mg182 O194 2.141 . S
C183 O184 1.313 . S
C183 O190 1.195 . S
O184 C183 1.313 . S
C185 O186 1.245 . S
C185 O194 1.289 . S
O186 C185 1.245 . S
C187 O188 1.245 . S
C187 O189 1.289 . S
O188 C187 1.245 . S
O189 Mg182 2.141 . S
O189 C187 1.289 . S
O190 Mg182 2.048 . S
O190 C183 1.195 . S
O191 Mg182 2.048 . S
O191 C192 1.195 . S
C192 O191 1.195 . S
C192 O193 1.313 . S
O193 C192 1.313 . S
O194 Mg182 2.141 . S
O194 C185 1.289 . S
Mg195 O202 2.141 . S
Mg195 O203 2.048 . S
Mg195 O204 2.048 . S
Mg195 O207 2.141 . S
C196 O197 1.313 . S
C196 O203 1.195 . S
O197 C196 1.313 . S
C198 O199 1.245 . S
C198 O207 1.289 . S
O199 C198 1.245 . S
C200 O201 1.245 . S
C200 O202 1.289 . S
O201 C200 1.245 . S
O202 Mg195 2.141 . S
O202 C200 1.289 . S
O203 Mg195 2.048 . S
O203 C196 1.195 . S
O204 Mg195 2.048 . S
O204 C205 1.195 . S
C205 O204 1.195 . S
C205 O206 1.313 . S
O206 C205 1.313 . S
O207 Mg195 2.141 . S
O207 C198 1.289 . S
Mg208 O215 2.141 . S
Mg208 O216 2.048 . S
Mg208 O217 2.048 . S
Mg208 O220 2.141 . S
C209 O210 1.313 . S
C209 O216 1.195 . S
O210 C209 1.313 . S
C211 O212 1.245 . S
C211 O220 1.289 . S
O212 C211 1.245 . S
C213 O214 1.245 . S
C213 O215 1.289 . S
O214 C213 1.245 . S
O215 Mg208 2.141 . S
O215 C213 1.289 . S
O216 Mg208 2.048 . S
O216 C209 1.195 . S
O217 Mg208 2.048 . S
O217 C218 1.195 . S
C218 O217 1.195 . S
C218 O219 1.313 . S
O219 C218 1.313 . S
O220 Mg208 2.141 . S
O220 C211 1.289 . S
Mg221 O228 2.141 . S
Mg221 O229 2.048 . S
Mg221 O230 2.048 . S
Mg221 O233 2.141 . S
C222 O223 1.313 . S
C222 O229 1.195 . S
O223 C222 1.313 . S
C224 O225 1.245 . S
C224 O233 1.289 . S
O225 C224 1.245 . S
C226 O227 1.245 . S
C226 O228 1.289 . S
O227 C226 1.245 . S
O228 Mg221 2.141 . S
O228 C226 1.289 . S
O229 Mg221 2.048 . S
O229 C222 1.195 . S
O230 Mg221 2.048 . S
O230 C231 1.195 . S
C231 O230 1.195 . S
C231 O232 1.313 . S
O232 C231 1.313 . S
O233 Mg221 2.141 . S
O233 C224 1.289 . S
Mg234 O241 2.141 1_554 S
Mg234 O242 2.048 . S
Mg234 O243 2.048 1_655 S
Mg234 O246 2.141 1_655 S
C235 O236 1.313 . S
C235 O242 1.195 1_556 S
O236 C235 1.313 . S
C237 O238 1.245 . S
C237 O246 1.289 . S
O238 C237 1.245 . S
C239 O240 1.255 . S
C239 O241 1.289 . S
O240 C239 1.255 . S
O241 Mg234 2.141 1_556 S
O241 C239 1.289 . S
O242 Mg234 2.048 . S
O242 C235 1.195 1_554 S
O243 Mg234 2.048 1_455 S
O243 C244 1.195 . S
C244 O243 1.195 . S
C244 O245 1.313 . S
O245 C244 1.313 . S
O246 Mg234 2.141 1_455 S
O246 C237 1.289 . S
Mg247 O254 2.141 . S
Mg247 O255 2.048 . S
Mg247 O256 2.048 . S
Mg247 O259 2.141 . S
C248 O249 1.313 . S
C248 O255 1.195 . S
O249 C248 1.313 . S
C250 O251 1.245 . S
C250 O259 1.289 . S
O251 C250 1.245 . S
C252 O253 1.245 . S
C252 O254 1.289 . S
O253 C252 1.245 . S
O254 Mg247 2.141 . S
O254 C252 1.289 . S
O255 Mg247 2.048 . S
O255 C248 1.195 . S
O256 Mg247 2.048 . S
O256 C257 1.195 . S
C257 O256 1.195 . S
C257 O258 1.313 . S
O258 C257 1.313 . S
O259 Mg247 2.141 . S
O259 C250 1.289 . S
Mg260 O267 2.141 . S
Mg260 O268 2.048 . S
Mg260 O269 2.048 . S
Mg260 O272 2.141 . S
C261 O262 1.313 . S
C261 O268 1.195 . S
O262 C261 1.313 . S
C263 O264 1.245 . S
C263 O272 1.289 . S
O264 C263 1.245 . S
C265 O266 1.245 . S
C265 O267 1.289 . S
O266 C265 1.245 . S
O267 Mg260 2.141 . S
O267 C265 1.289 . S
O268 Mg260 2.048 . S
O268 C261 1.195 . S
O269 Mg260 2.048 . S
O269 C270 1.195 . S
C270 O269 1.195 . S
C270 O271 1.313 . S
O271 C270 1.313 . S
O272 Mg260 2.141 . S
O272 C263 1.289 . S
Mg273 O280 2.141 . S
Mg273 O281 2.048 . S
Mg273 O282 2.048 . S
Mg273 O285 2.141 . S
C274 O275 1.313 . S
C274 O281 1.195 . S
O275 C274 1.313 . S
C276 O277 1.245 . S
C276 O285 1.289 . S
O277 C276 1.245 . S
C278 O279 1.245 . S
C278 O280 1.289 . S
O279 C278 1.245 . S
O280 Mg273 2.141 . S
O280 C278 1.289 . S
O281 Mg273 2.048 . S
O281 C274 1.195 . S
O282 Mg273 2.048 . S
O282 C283 1.195 . S
C283 O282 1.195 . S
C283 O284 1.313 . S
O284 C283 1.313 . S
O285 Mg273 2.141 . S
O285 C276 1.289 . S
Mg286 O293 2.141 . S
Mg286 O294 2.048 . S
Mg286 O295 2.048 1_554 S
Mg286 O298 2.141 1_554 S
C287 O288 1.313 . S
C287 O294 1.195 . S
O288 C287 1.313 . S
C289 O290 1.245 . S
C289 O298 1.289 . S
O290 C289 1.245 . S
C291 O292 1.245 . S
C291 O293 1.289 . S
O292 C291 1.245 . S
O293 Mg286 2.141 . S
O293 C291 1.289 . S
O294 Mg286 2.048 . S
O294 C287 1.195 . S
O295 Mg286 2.048 1_556 S
O295 C296 1.195 . S
C296 O295 1.195 . S
C296 O297 1.313 . S
O297 C296 1.313 . S
O298 Mg286 2.141 1_556 S
O298 C289 1.289 . S
Mg299 O306 2.141 . S
Mg299 O307 2.048 . S
Mg299 O308 2.048 . S
Mg299 O311 2.141 . S
C300 O301 1.313 . S
C300 O307 1.195 . S
O301 C300 1.313 . S
C302 O303 1.245 . S
C302 O311 1.289 . S
O303 C302 1.245 . S
C304 O305 1.245 . S
C304 O306 1.289 . S
O305 C304 1.245 . S
O306 Mg299 2.141 . S
O306 C304 1.289 . S
O307 Mg299 2.048 . S
O307 C300 1.195 . S
O308 Mg299 2.048 . S
O308 C309 1.195 . S
C309 O308 1.195 . S
C309 O310 1.313 . S
O310 C309 1.313 . S
O311 Mg299 2.141 . S
O311 C302 1.289 . S
C312 C313 1.369 . S
C312 C314 1.419 . S
C312 H316 0.930 . S
C313 C312 1.369 . S
C313 C322 1.429 . S
C314 C312 1.419 . S
C314 C315 1.363 . S
C314 H317 0.929 . S
C315 C314 1.363 . S
C315 C321 1.428 . S
H316 C312 0.930 . S
H317 C314 0.929 . S
S318 N319 1.613 . S
S318 N320 1.610 . S
N319 S318 1.613 . S
N319 C322 1.350 . S
N320 S318 1.610 . S
N320 C321 1.351 . S
C321 C315 1.428 . S
C321 N320 1.351 . S
C321 C322 1.434 . S
C322 C313 1.429 . S
C322 N319 1.350 . S
C322 C321 1.434 . S
C323 C324 1.369 . S
C323 C325 1.419 . S
C323 H327 0.930 . S
C324 C323 1.369 . S
C324 C333 1.429 1_655 S
C325 C323 1.419 . S
C325 C326 1.363 . S
C325 H328 0.929 . S
C326 C325 1.363 . S
C326 C332 1.428 1_655 S
H327 C323 0.930 . S
H328 C325 0.929 . S
S329 N330 1.613 . S
S329 N331 1.610 . S
N330 S329 1.613 . S
N330 C333 1.350 . S
N331 S329 1.610 . S
N331 C332 1.351 . S
C332 C326 1.428 1_455 S
C332 N331 1.351 . S
C332 C333 1.434 . S
C333 C324 1.429 1_455 S
C333 N330 1.350 . S
C333 C332 1.434 . S
C334 C335 1.369 . S
C334 C336 1.419 . S
C334 H338 0.930 . S
C335 C334 1.369 . S
C335 C344 1.429 . S
C336 C334 1.419 . S
C336 C337 1.363 . S
C336 H339 0.929 . S
C337 C336 1.363 . S
C337 C343 1.428 . S
H338 C334 0.930 . S
H339 C336 0.929 . S
S340 N341 1.613 . S
S340 N342 1.610 . S
N341 S340 1.613 . S
N341 C344 1.350 . S
N342 S340 1.610 . S
N342 C343 1.351 . S
C343 C337 1.428 . S
C343 N342 1.351 . S
C343 C344 1.434 . S
C344 C335 1.429 . S
C344 N341 1.350 . S
C344 C343 1.434 . S
C345 C346 1.369 . S
C345 C347 1.419 . S
C345 H349 0.930 . S
C346 C345 1.369 . S
C346 C355 1.429 . S
C347 C345 1.419 . S
C347 C348 1.363 . S
C347 H350 0.929 . S
C348 C347 1.363 . S
C348 C354 1.428 . S
H349 C345 0.930 . S
H350 C347 0.929 . S
S351 N352 1.613 . S
S351 N353 1.610 . S
N352 S351 1.613 . S
N352 C355 1.350 . S
N353 S351 1.610 . S
N353 C354 1.351 . S
C354 C348 1.428 . S
C354 N353 1.351 . S
C354 C355 1.434 . S
C355 C346 1.429 . S
C355 N352 1.350 . S
C355 C354 1.434 . S
C356 C357 1.369 . S
C356 C358 1.419 . S
C356 H360 0.930 . S
C357 C356 1.369 . S
C357 C366 1.429 . S
C358 C356 1.419 . S
C358 C359 1.363 . S
C358 H361 0.929 . S
C359 C358 1.363 . S
C359 C365 1.428 . S
H360 C356 0.930 . S
H361 C358 0.929 . S
S362 N363 1.613 . S
S362 N364 1.610 . S
N363 S362 1.613 . S
N363 C366 1.350 . S
N364 S362 1.610 . S
N364 C365 1.351 . S
C365 C359 1.428 . S
C365 N364 1.351 . S
C365 C366 1.434 . S
C366 C357 1.429 . S
C366 N363 1.350 . S
C366 C365 1.434 . S
C367 C368 1.369 . S
C367 C369 1.419 . S
C367 H371 0.930 . S
C368 C367 1.369 . S
C368 C377 1.429 . S
C369 C367 1.419 . S
C369 C370 1.363 . S
C369 H372 0.929 . S
C370 C369 1.363 . S
C370 C376 1.428 . S
H371 C367 0.930 . S
H372 C369 0.929 . S
S373 N374 1.613 . S
S373 N375 1.610 . S
N374 S373 1.613 . S
N374 C377 1.350 . S
N375 S373 1.610 . S
N375 C376 1.351 . S
C376 C370 1.428 . S
C376 N375 1.351 . S
C376 C377 1.434 . S
C377 C368 1.429 . S
C377 N374 1.350 . S
C377 C376 1.434 . S
C378 C379 1.369 . S
C378 C380 1.419 . S
C378 H382 0.930 . S
C379 C378 1.369 . S
C379 C388 1.429 . S
C380 C378 1.419 . S
C380 C381 1.363 . S
C380 H383 0.929 . S
C381 C380 1.363 . S
C381 C387 1.428 . S
H382 C378 0.930 . S
H383 C380 0.929 . S
S384 N385 1.613 . S
S384 N386 1.610 . S
N385 S384 1.613 . S
N385 C388 1.350 . S
N386 S384 1.610 . S
N386 C387 1.351 . S
C387 C381 1.428 . S
C387 N386 1.351 . S
C387 C388 1.434 . S
C388 C379 1.429 . S
C388 N385 1.350 . S
C388 C387 1.434 . S
C389 C390 1.369 . S
C389 C391 1.419 . S
C389 H393 0.930 . S
C390 C389 1.369 . S
C390 C399 1.429 . S
C391 C389 1.419 . S
C391 C392 1.363 . S
C391 H394 0.929 . S
C392 C391 1.363 . S
C392 C398 1.428 . S
H393 C389 0.930 . S
H394 C391 0.929 . S
S395 N396 1.613 1_556 S
S395 N397 1.610 . S
N396 S395 1.613 1_554 S
N396 C399 1.350 . S
N397 S395 1.610 . S
N397 C398 1.351 1_556 S
C398 C392 1.428 . S
C398 N397 1.351 1_554 S
C398 C399 1.434 . S
C399 C390 1.429 . S
C399 N396 1.350 . S
C399 C398 1.434 . S
C400 C401 1.369 1_565 S
C400 C402 1.419 . S
C400 H404 0.930 . S
C401 C400 1.369 1_545 S
C401 C410 1.429 . S
C402 C400 1.419 . S
C402 C403 1.363 1_565 S
C402 H405 0.929 . S
C403 C402 1.363 1_545 S
C403 C409 1.428 . S
H404 C400 0.930 . S
H405 C402 0.929 . S
S406 N407 1.613 . S
S406 N408 1.610 . S
N407 S406 1.613 . S
N407 C410 1.350 . S
N408 S406 1.610 . S
N408 C409 1.351 . S
C409 C403 1.428 . S
C409 N408 1.351 . S
C409 C410 1.434 . S
C410 C401 1.429 . S
C410 N407 1.350 . S
C410 C409 1.434 . S
C411 C412 1.369 . S
C411 C413 1.419 . S
C411 H415 0.930 . S
C412 C411 1.369 . S
C412 C421 1.429 . S
C413 C411 1.419 . S
C413 C414 1.363 . S
C413 H416 0.929 . S
C414 C413 1.363 . S
C414 C420 1.428 . S
H415 C411 0.930 . S
H416 C413 0.929 . S
S417 N418 1.613 . S
S417 N419 1.610 . S
N418 S417 1.613 . S
N418 C421 1.350 . S
N419 S417 1.610 . S
N419 C420 1.351 . S
C420 C414 1.428 . S
C420 N419 1.351 . S
C420 C421 1.434 . S
C421 C412 1.429 . S
C421 N418 1.350 . S
C421 C420 1.434 . S
C422 C423 1.369 . S
C422 C424 1.419 . S
C422 H426 0.930 . S
C423 C422 1.369 . S
C423 C432 1.429 1_565 S
C424 C422 1.419 . S
C424 C425 1.363 . S
C424 H427 0.929 . S
C425 C424 1.363 . S
C425 C431 1.428 1_565 S
H426 C422 0.930 . S
H427 C424 0.929 . S
S428 N429 1.613 . S
S428 N430 1.610 . S
N429 S428 1.613 . S
N429 C432 1.350 . S
N430 S428 1.610 . S
N430 C431 1.351 . S
C431 C425 1.428 1_545 S
C431 N430 1.351 . S
C431 C432 1.434 . S
C432 C423 1.429 1_545 S
C432 N429 1.350 . S
C432 C431 1.434 . S
C433 C434 1.369 . S
C433 C435 1.419 . S
C433 H437 0.930 . S
C434 C433 1.369 . S
C434 C443 1.429 . S
C435 C433 1.419 . S
C435 C436 1.363 . S
C435 H438 0.929 . S
C436 C435 1.363 . S
C436 C442 1.428 . S
H437 C433 0.930 . S
H438 C435 0.929 . S
S439 N440 1.613 . S
S439 N441 1.610 . S
N440 S439 1.613 . S
N440 C443 1.350 . S
N441 S439 1.610 . S
N441 C442 1.351 . S
C442 C436 1.428 . S
C442 N441 1.351 . S
C442 C443 1.434 . S
C443 C434 1.429 . S
C443 N440 1.350 . S
C443 C442 1.434 . S
C444 C445 1.369 . S
C444 C446 1.419 . S
C444 H448 0.930 . S
C445 C444 1.369 . S
C445 C454 1.429 . S
C446 C444 1.419 . S
C446 C447 1.363 . S
C446 H449 0.929 . S
C447 C446 1.363 . S
C447 C453 1.428 . S
H448 C444 0.930 . S
H449 C446 0.929 . S
S450 N451 1.613 . S
S450 N452 1.610 . S
N451 S450 1.613 . S
N451 C454 1.350 . S
N452 S450 1.610 . S
N452 C453 1.351 . S
C453 C447 1.428 . S
C453 N452 1.351 . S
C453 C454 1.434 . S
C454 C445 1.429 . S
C454 N451 1.350 . S
C454 C453 1.434 . S
C455 C456 1.369 . S
C455 C457 1.419 . S
C455 H459 0.930 . S
C456 C455 1.369 . S
C456 C465 1.429 . S
C457 C455 1.419 . S
C457 C458 1.363 . S
C457 H460 0.929 . S
C458 C457 1.363 . S
C458 C464 1.428 . S
H459 C455 0.930 . S
H460 C457 0.929 . S
S461 N462 1.613 . S
S461 N463 1.610 . S
N462 S461 1.613 . S
N462 C465 1.350 . S
N463 S461 1.610 . S
N463 C464 1.351 . S
C464 C458 1.428 . S
C464 N463 1.351 . S
C464 C465 1.434 . S
C465 C456 1.429 . S
C465 N462 1.350 . S
C465 C464 1.434 . S
C466 C467 1.369 . S
C466 C468 1.419 . S
C466 H470 0.930 . S
C467 C466 1.369 . S
C467 C476 1.429 . S
C468 C466 1.419 . S
C468 C469 1.363 . S
C468 H471 0.929 . S
C469 C468 1.363 . S
C469 C475 1.428 . S
H470 C466 0.930 . S
H471 C468 0.929 . S
S472 N473 1.613 . S
S472 N474 1.610 . S
N473 S472 1.613 . S
N473 C476 1.350 . S
N474 S472 1.610 . S
N474 C475 1.351 . S
C475 C469 1.428 . S
C475 N474 1.351 . S
C475 C476 1.434 . S
C476 C467 1.429 . S
C476 N473 1.350 . S
C476 C475 1.434 . S
C477 C478 1.369 . S
C477 C479 1.419 . S
C477 H481 0.930 . S
C478 C477 1.369 . S
C478 C487 1.429 . S
C479 C477 1.419 . S
C479 C480 1.363 . S
C479 H482 0.929 . S
C480 C479 1.363 . S
C480 C486 1.428 . S
H481 C477 0.930 . S
H482 C479 0.929 . S
S483 N484 1.613 . S
S483 N485 1.610 . S
N484 S483 1.613 . S
N484 C487 1.350 . S
N485 S483 1.610 . S
N485 C486 1.351 . S
C486 C480 1.428 . S
C486 N485 1.351 . S
C486 C487 1.434 . S
C487 C478 1.429 . S
C487 N484 1.350 . S
C487 C486 1.434 . S
C488 C489 1.369 . S
C488 C490 1.419 . S
C488 H492 0.930 . S
C489 C488 1.369 . S
C489 C498 1.429 . S
C490 C488 1.419 . S
C490 C491 1.363 . S
C490 H493 0.929 . S
C491 C490 1.363 . S
C491 C497 1.428 . S
H492 C488 0.930 . S
H493 C490 0.929 . S
S494 N495 1.613 . S
S494 N496 1.610 . S
N495 S494 1.613 . S
N495 C498 1.350 . S
N496 S494 1.610 . S
N496 C497 1.351 . S
C497 C491 1.428 . S
C497 N496 1.351 . S
C497 C498 1.434 . S
C498 C489 1.429 . S
C498 N495 1.350 . S
C498 C497 1.434 . S
C499 C500 1.369 . S
C499 C501 1.419 . S
C499 H503 0.930 . S
C500 C499 1.369 . S
C500 C509 1.429 . S
C501 C499 1.419 . S
C501 C502 1.363 . S
C501 H504 0.929 . S
C502 C501 1.363 . S
C502 C508 1.428 . S
H503 C499 0.930 . S
H504 C501 0.929 . S
S505 N506 1.613 . S
S505 N507 1.610 . S
N506 S505 1.613 . S
N506 C509 1.350 . S
N507 S505 1.610 . S
N507 C508 1.351 . S
C508 C502 1.428 . S
C508 N507 1.351 . S
C508 C509 1.434 . S
C509 C500 1.429 . S
C509 N506 1.350 . S
C509 C508 1.434 . S
C510 C511 1.369 . S
C510 C512 1.419 . S
C510 H514 0.930 . S
C511 C510 1.369 . S
C511 C520 1.429 . S
C512 C510 1.419 . S
C512 C513 1.363 . S
C512 H515 0.929 . S
C513 C512 1.363 . S
C513 C519 1.428 . S
H514 C510 0.930 . S
H515 C512 0.929 . S
S516 N517 1.613 . S
S516 N518 1.610 . S
N517 S516 1.613 . S
N517 C520 1.350 . S
N518 S516 1.610 . S
N518 C519 1.351 . S
C519 C513 1.428 . S
C519 N518 1.351 . S
C519 C520 1.434 . S
C520 C511 1.429 . S
C520 N517 1.350 . S
C520 C519 1.434 . S
C521 C522 1.369 1_655 S
C521 C523 1.419 . S
C521 H525 0.930 . S
C522 C521 1.369 1_455 S
C522 C531 1.429 . S
C523 C521 1.419 . S
C523 C524 1.363 1_655 S
C523 H526 0.929 . S
C524 C523 1.363 1_455 S
C524 C530 1.428 . S
H525 C521 0.930 . S
H526 C523 0.929 . S
S527 N528 1.613 . S
S527 N529 1.610 . S
N528 S527 1.613 . S
N528 C531 1.350 . S
N529 S527 1.610 . S
N529 C530 1.351 . S
C530 C524 1.428 . S
C530 N529 1.351 . S
C530 C531 1.434 . S
C531 C522 1.429 . S
C531 N528 1.350 . S
C531 C530 1.434 . S
C532 C533 1.369 . S
C532 C534 1.419 . S
C532 H536 0.930 . S
C533 C532 1.369 . S
C533 C542 1.429 . S
C534 C532 1.419 . S
C534 C535 1.363 . S
C534 H537 0.929 . S
C535 C534 1.363 . S
C535 C541 1.428 . S
H536 C532 0.930 . S
H537 C534 0.929 . S
S538 N539 1.613 . S
S538 N540 1.610 . S
N539 S538 1.613 . S
N539 C542 1.350 . S
N540 S538 1.610 . S
N540 C541 1.351 . S
C541 C535 1.428 . S
C541 N540 1.351 . S
C541 C542 1.434 . S
C542 C533 1.429 . S
C542 N539 1.350 . S
C542 C541 1.434 . S
C543 C544 1.369 . S
C543 C545 1.419 . S
C543 H547 0.930 . S
C544 C543 1.369 . S
C544 C553 1.429 . S
C545 C543 1.419 . S
C545 C546 1.363 . S
C545 H548 0.929 . S
C546 C545 1.363 . S
C546 C552 1.428 . S
H547 C543 0.930 . S
H548 C545 0.929 . S
S549 N550 1.613 . S
S549 N551 1.610 . S
N550 S549 1.613 . S
N550 C553 1.350 . S
N551 S549 1.610 . S
N551 C552 1.351 . S
C552 C546 1.428 . S
C552 N551 1.351 . S
C552 C553 1.434 . S
C553 C544 1.429 . S
C553 N550 1.350 . S
C553 C552 1.434 . S
C554 C555 1.369 1_554 S
C554 C556 1.419 . S
C554 H558 0.930 . S
C555 C554 1.369 1_556 S
C555 C564 1.429 . S
C556 C554 1.419 . S
C556 C557 1.363 1_554 S
C556 H559 0.929 . S
C557 C556 1.363 1_556 S
C557 C563 1.428 . S
H558 C554 0.930 . S
H559 C556 0.929 . S
S560 N561 1.613 . S
S560 N562 1.610 . S
N561 S560 1.613 . S
N561 C564 1.350 . S
N562 S560 1.610 . S
N562 C563 1.351 . S
C563 C557 1.428 . S
C563 N562 1.351 . S
C563 C564 1.434 . S
C564 C555 1.429 . S
C564 N561 1.350 . S
C564 C563 1.434 . S
C565 C566 1.369 . S
C565 C567 1.419 . S
C565 H569 0.930 . S
C566 C565 1.369 . S
C566 C575 1.429 . S
C567 C565 1.419 . S
C567 C568 1.363 . S
C567 H570 0.929 . S
C568 C567 1.363 . S
C568 C574 1.428 . S
H569 C565 0.930 . S
H570 C567 0.929 . S
S571 N572 1.613 . S
S571 N573 1.610 . S
N572 S571 1.613 . S
N572 C575 1.350 . S
N573 S571 1.610 . S
N573 C574 1.351 . S
C574 C568 1.428 . S
C574 N573 1.351 . S
C574 C575 1.434 . S
C575 C566 1.429 . S
C575 N572 1.350 . S
C575 C574 1.434 . S
C576 C577 1.369 . S
C576 C578 1.419 . S
C576 H580 0.930 . S
C577 C576 1.369 . S
C577 C586 1.429 . S
C578 C576 1.419 . S
C578 C579 1.363 . S
C578 H581 0.929 . S
C579 C578 1.363 . S
C579 C585 1.428 . S
H580 C576 0.930 . S
H581 C578 0.929 . S
S582 N583 1.613 1_655 S
S582 N584 1.610 1_655 S
N583 S582 1.613 1_455 S
N583 C586 1.350 . S
N584 S582 1.610 1_455 S
N584 C585 1.351 . S
C585 C579 1.428 . S
C585 N584 1.351 . S
C585 C586 1.434 . S
C586 C577 1.429 . S
C586 N583 1.350 . S
C586 C585 1.434 . S
C587 C588 1.369 . S
C587 C589 1.419 . S
C587 H591 0.930 . S
C588 C587 1.369 . S
C588 C597 1.429 . S
C589 C587 1.419 . S
C589 C590 1.363 . S
C589 H592 0.929 . S
C590 C589 1.363 . S
C590 C596 1.428 . S
H591 C587 0.930 . S
H592 C589 0.929 . S
S593 N594 1.613 . S
S593 N595 1.610 . S
N594 S593 1.613 . S
N594 C597 1.350 . S
N595 S593 1.610 . S
N595 C596 1.351 . S
C596 C590 1.428 . S
C596 N595 1.351 . S
C596 C597 1.434 . S
C597 C588 1.429 . S
C597 N594 1.350 . S
C597 C596 1.434 . S
C598 C599 1.369 . S
C598 C600 1.419 . S
C598 H602 0.930 . S
C599 C598 1.369 . S
C599 C608 1.429 . S
C600 C598 1.419 . S
C600 C601 1.363 . S
C600 H603 0.929 . S
C601 C600 1.363 . S
C601 C607 1.428 . S
H602 C598 0.930 . S
H603 C600 0.929 . S
S604 N605 1.613 . S
S604 N606 1.610 . S
N605 S604 1.613 . S
N605 C608 1.350 . S
N606 S604 1.610 . S
N606 C607 1.351 . S
C607 C601 1.428 . S
C607 N606 1.351 . S
C607 C608 1.434 . S
C608 C599 1.429 . S
C608 N605 1.350 . S
C608 C607 1.434 . S
C609 C610 1.369 . S
C609 C611 1.419 . S
C609 H613 0.930 . S
C610 C609 1.369 . S
C610 C619 1.429 . S
C611 C609 1.419 . S
C611 C612 1.363 . S
C611 H614 0.929 . S
C612 C611 1.363 . S
C612 C618 1.428 . S
H613 C609 0.930 . S
H614 C611 0.929 . S
S615 N616 1.613 . S
S615 N617 1.610 . S
N616 S615 1.613 . S
N616 C619 1.350 . S
N617 S615 1.610 . S
N617 C618 1.351 . S
C618 C612 1.428 . S
C618 N617 1.351 . S
C618 C619 1.434 . S
C619 C610 1.429 . S
C619 N616 1.350 . S
C619 C618 1.434 . S
C620 C621 1.369 . S
C620 C622 1.419 . S
C620 H624 0.930 . S
C621 C620 1.369 . S
C621 C630 1.429 . S
C622 C620 1.419 . S
C622 C623 1.363 . S
C622 H625 0.929 . S
C623 C622 1.363 . S
C623 C629 1.428 . S
H624 C620 0.930 . S
H625 C622 0.929 . S
S626 N627 1.613 . S
S626 N628 1.610 . S
N627 S626 1.613 . S
N627 C630 1.350 . S
N628 S626 1.610 . S
N628 C629 1.351 . S
C629 C623 1.428 . S
C629 N628 1.351 . S
C629 C630 1.434 . S
C630 C621 1.429 . S
C630 N627 1.350 . S
C630 C629 1.434 . S
C631 C632 1.369 . S
C631 C633 1.419 . S
C631 H635 0.930 . S
C632 C631 1.369 . S
C632 C641 1.429 . S
C633 C631 1.419 . S
C633 C634 1.363 . S
C633 H636 0.929 . S
C634 C633 1.363 . S
C634 C640 1.428 . S
H635 C631 0.930 . S
H636 C633 0.929 . S
S637 N638 1.615 . S
S637 N639 1.613 . S
N638 S637 1.615 . S
N638 C641 1.350 . S
N639 S637 1.613 . S
N639 C640 1.351 . S
C640 C634 1.428 . S
C640 N639 1.351 . S
C640 C641 1.434 . S
C641 C632 1.429 . S
C641 N638 1.350 . S
C641 C640 1.434 . S
C642 C643 1.369 . S
C642 C644 1.419 . S
C642 H646 0.930 . S
C643 C642 1.369 . S
C643 C652 1.429 . S
C644 C642 1.419 . S
C644 C645 1.363 . S
C644 H647 0.929 . S
C645 C644 1.363 . S
C645 C651 1.428 . S
H646 C642 0.930 . S
H647 C644 0.929 . S
S648 N649 1.613 1_545 S
S648 N650 1.610 . S
N649 S648 1.613 1_565 S
N649 C652 1.350 . S
N650 S648 1.610 . S
N650 C651 1.351 1_545 S
C651 C645 1.428 . S
C651 N650 1.351 1_565 S
C651 C652 1.434 . S
C652 C643 1.429 . S
C652 N649 1.350 . S
C652 C651 1.434 . S
C653 C654 1.369 . S
C653 C655 1.419 . S
C653 H657 0.930 . S
C654 C653 1.369 . S
C654 C663 1.429 . S
C655 C653 1.419 . S
C655 C656 1.363 . S
C655 H658 0.929 . S
C656 C655 1.363 . S
C656 C662 1.428 . S
H657 C653 0.930 . S
H658 C655 0.929 . S
S659 N660 1.613 . S
S659 N661 1.610 . S
N660 S659 1.613 . S
N660 C663 1.350 . S
N661 S659 1.610 . S
N661 C662 1.351 . S
C662 C656 1.428 . S
C662 N661 1.351 . S
C662 C663 1.434 . S
C663 C654 1.429 . S
C663 N660 1.350 . S
C663 C662 1.434 . S
C664 C665 1.369 . S
C664 C666 1.419 . S
C664 H668 0.930 . S
C665 C664 1.369 . S
C665 C674 1.429 . S
C666 C664 1.419 . S
C666 C667 1.363 . S
C666 H669 0.929 . S
C667 C666 1.363 . S
C667 C673 1.428 . S
H668 C664 0.930 . S
H669 C666 0.929 . S
S670 N671 1.613 . S
S670 N672 1.610 . S
N671 S670 1.613 . S
N671 C674 1.350 . S
N672 S670 1.610 . S
N672 C673 1.351 . S
C673 C667 1.428 . S
C673 N672 1.351 . S
C673 C674 1.434 . S
C674 C665 1.429 . S
C674 N671 1.350 . S
C674 C673 1.434 . S
C675 C676 1.369 . S
C675 C677 1.419 . S
C675 H679 0.930 . S
C676 C675 1.369 . S
C676 C685 1.429 . S
C677 C675 1.419 . S
C677 C678 1.363 . S
C677 H680 0.929 . S
C678 C677 1.363 . S
C678 C684 1.428 . S
H679 C675 0.930 . S
H680 C677 0.929 . S
S681 N682 1.613 . S
S681 N683 1.610 . S
N682 S681 1.613 . S
N682 C685 1.350 . S
N683 S681 1.610 . S
N683 C684 1.351 . S
C684 C678 1.428 . S
C684 N683 1.351 . S
C684 C685 1.434 . S
C685 C676 1.429 . S
C685 N682 1.350 . S
C685 C684 1.434 . S
C686 C687 1.369 . S
C686 C688 1.419 . S
C686 H690 0.930 . S
C687 C686 1.369 . S
C687 C696 1.429 . S
C688 C686 1.419 . S
C688 C689 1.363 . S
C688 H691 0.929 . S
C689 C688 1.363 . S
C689 C695 1.428 . S
H690 C686 0.930 . S
H691 C688 0.929 . S
S692 N693 1.613 . S
S692 N694 1.610 . S
N693 S692 1.613 . S
N693 C696 1.350 . S
N694 S692 1.610 . S
N694 C695 1.351 . S
C695 C689 1.428 . S
C695 N694 1.351 . S
C695 C696 1.434 . S
C696 C687 1.429 . S
C696 N693 1.350 . S
C696 C695 1.434 . S
C697 C698 1.369 . S
C697 C699 1.419 . S
C697 H701 0.930 . S
C698 C697 1.369 . S
C698 C707 1.429 . S
C699 C697 1.419 . S
C699 C700 1.363 . S
C699 H702 0.929 . S
C700 C699 1.363 . S
C700 C706 1.428 . S
H701 C697 0.930 . S
H702 C699 0.929 . S
S703 N704 1.613 . S
S703 N705 1.610 . S
N704 S703 1.613 . S
N704 C707 1.350 . S
N705 S703 1.610 . S
N705 C706 1.351 . S
C706 C700 1.428 . S
C706 N705 1.351 . S
C706 C707 1.434 . S
C707 C698 1.429 . S
C707 N704 1.350 . S
C707 C706 1.434 . S
C708 C709 1.369 . S
C708 C710 1.419 . S
C708 H712 0.930 . S
C709 C708 1.369 . S
C709 C718 1.429 . S
C710 C708 1.419 . S
C710 C711 1.363 . S
C710 H713 0.929 . S
C711 C710 1.363 . S
C711 C717 1.428 . S
H712 C708 0.930 . S
H713 C710 0.929 . S
S714 N715 1.613 . S
S714 N716 1.610 . S
N715 S714 1.613 . S
N715 C718 1.350 . S
N716 S714 1.610 . S
N716 C717 1.351 . S
C717 C711 1.428 . S
C717 N716 1.351 . S
C717 C718 1.434 . S
C718 C709 1.429 . S
C718 N715 1.350 . S
C718 C717 1.434 . S
C719 C720 1.369 . S
C719 C721 1.419 . S
C719 H723 0.930 . S
C720 C719 1.369 . S
C720 C729 1.429 . S
C721 C719 1.419 . S
C721 C722 1.363 . S
C721 H724 0.929 . S
C722 C721 1.363 . S
C722 C728 1.428 . S
H723 C719 0.930 . S
H724 C721 0.929 . S
S725 N726 1.613 . S
S725 N727 1.610 . S
N726 S725 1.613 . S
N726 C729 1.350 . S
N727 S725 1.610 . S
N727 C728 1.351 . S
C728 C722 1.428 . S
C728 N727 1.351 . S
C728 C729 1.434 . S
C729 C720 1.429 . S
C729 N726 1.350 . S
C729 C728 1.434 . S
C730 C731 1.369 . S
C730 C732 1.419 . S
C730 H734 0.930 . S
C731 C730 1.369 . S
C731 C740 1.429 . S
C732 C730 1.419 . S
C732 C733 1.363 . S
C732 H735 0.929 . S
C733 C732 1.363 . S
C733 C739 1.428 . S
H734 C730 0.930 . S
H735 C732 0.929 . S
S736 N737 1.613 . S
S736 N738 1.610 . S
N737 S736 1.613 . S
N737 C740 1.350 . S
N738 S736 1.610 . S
N738 C739 1.351 . S
C739 C733 1.428 . S
C739 N738 1.351 . S
C739 C740 1.434 . S
C740 C731 1.429 . S
C740 N737 1.350 . S
C740 C739 1.434 . S
C741 C742 1.369 . S
C741 C743 1.419 . S
C741 H745 0.930 . S
C742 C741 1.369 . S
C742 C751 1.429 . S
C743 C741 1.419 . S
C743 C744 1.363 . S
C743 H746 0.929 . S
C744 C743 1.363 . S
C744 C750 1.428 . S
H745 C741 0.930 . S
H746 C743 0.929 . S
S747 N748 1.613 . S
S747 N749 1.610 . S
N748 S747 1.613 . S
N748 C751 1.350 . S
N749 S747 1.610 . S
N749 C750 1.351 . S
C750 C744 1.428 . S
C750 N749 1.351 . S
C750 C751 1.434 . S
C751 C742 1.429 . S
C751 N748 1.350 . S
C751 C750 1.434 . S
C752 C753 1.369 . S
C752 C754 1.419 . S
C752 H756 0.930 . S
C753 C752 1.369 . S
C753 C762 1.429 . S
C754 C752 1.419 . S
C754 C755 1.363 . S
C754 H757 0.929 . S
C755 C754 1.363 . S
C755 C761 1.428 . S
H756 C752 0.930 . S
H757 C754 0.929 . S
S758 N759 1.613 . S
S758 N760 1.610 . S
N759 S758 1.613 . S
N759 C762 1.350 . S
N760 S758 1.610 . S
N760 C761 1.351 . S
C761 C755 1.428 . S
C761 N760 1.351 . S
C761 C762 1.434 . S
C762 C753 1.429 . S
C762 N759 1.350 . S
C762 C761 1.434 . S
C763 C764 1.369 . S
C763 C765 1.419 . S
C763 H767 0.930 . S
C764 C763 1.369 . S
C764 C773 1.429 . S
C765 C763 1.419 . S
C765 C766 1.363 . S
C765 H768 0.929 . S
C766 C765 1.363 . S
C766 C772 1.428 . S
H767 C763 0.930 . S
H768 C765 0.929 . S
S769 N770 1.613 . S
S769 N771 1.610 . S
N770 S769 1.613 . S
N770 C773 1.350 . S
N771 S769 1.610 . S
N771 C772 1.351 . S
C772 C766 1.428 . S
C772 N771 1.351 . S
C772 C773 1.434 . S
C773 C764 1.429 . S
C773 N770 1.350 . S
C773 C772 1.434 . S
C774 C775 1.369 . S
C774 C776 1.419 . S
C774 H778 0.930 . S
C775 C774 1.369 . S
C775 C784 1.429 . S
C776 C774 1.419 . S
C776 C777 1.363 . S
C776 H779 0.929 . S
C777 C776 1.363 . S
C777 C783 1.428 . S
H778 C774 0.930 . S
H779 C776 0.929 . S
S780 N781 1.613 . S
S780 N782 1.610 . S
N781 S780 1.613 . S
N781 C784 1.350 . S
N782 S780 1.610 . S
N782 C783 1.351 . S
C783 C777 1.428 . S
C783 N782 1.351 . S
C783 C784 1.434 . S
C784 C775 1.429 . S
C784 N781 1.350 . S
C784 C783 1.434 . S
C785 C786 1.369 . S
C785 C787 1.419 . S
C785 H789 0.930 . S
C786 C785 1.369 . S
C786 C795 1.429 . S
C787 C785 1.419 . S
C787 C788 1.363 . S
C787 H790 0.929 . S
C788 C787 1.363 . S
C788 C794 1.428 . S
H789 C785 0.930 . S
H790 C787 0.929 . S
S791 N792 1.613 . S
S791 N793 1.610 . S
N792 S791 1.613 . S
N792 C795 1.350 . S
N793 S791 1.610 . S
N793 C794 1.351 . S
C794 C788 1.428 . S
C794 N793 1.351 . S
C794 C795 1.434 . S
C795 C786 1.429 . S
C795 N792 1.350 . S
C795 C794 1.434 . S
C796 C797 1.369 . S
C796 C798 1.419 . S
C796 H800 0.930 . S
C797 C796 1.369 . S
C797 C806 1.429 . S
C798 C796 1.419 . S
C798 C799 1.363 . S
C798 H801 0.929 . S
C799 C798 1.363 . S
C799 C805 1.428 . S
H800 C796 0.930 . S
H801 C798 0.929 . S
S802 N803 1.613 . S
S802 N804 1.610 . S
N803 S802 1.613 . S
N803 C806 1.350 . S
N804 S802 1.610 . S
N804 C805 1.351 . S
C805 C799 1.428 . S
C805 N804 1.351 . S
C805 C806 1.434 . S
C806 C797 1.429 . S
C806 N803 1.350 . S
C806 C805 1.434 . S
C807 C808 1.369 . S
C807 C809 1.419 . S
C807 H811 0.930 . S
C808 C807 1.369 . S
C808 C817 1.429 . S
C809 C807 1.419 . S
C809 C810 1.363 . S
C809 H812 0.929 . S
C810 C809 1.363 . S
C810 C816 1.428 . S
H811 C807 0.930 . S
H812 C809 0.929 . S
S813 N814 1.613 . S
S813 N815 1.610 . S
N814 S813 1.613 . S
N814 C817 1.350 . S
N815 S813 1.610 . S
N815 C816 1.351 . S
C816 C810 1.428 . S
C816 N815 1.351 . S
C816 C817 1.434 . S
C817 C808 1.429 . S
C817 N814 1.350 . S
C817 C816 1.434 . S
C818 C819 1.369 . S
C818 C820 1.419 . S
C818 H822 0.930 . S
C819 C818 1.369 . S
C819 C828 1.429 . S
C820 C818 1.419 . S
C820 C821 1.363 . S
C820 H823 0.929 . S
C821 C820 1.363 . S
C821 C827 1.428 . S
H822 C818 0.930 . S
H823 C820 0.929 . S
S824 N825 1.613 . S
S824 N826 1.610 . S
N825 S824 1.613 . S
N825 C828 1.350 . S
N826 S824 1.610 . S
N826 C827 1.351 . S
C827 C821 1.428 . S
C827 N826 1.351 . S
C827 C828 1.434 . S
C828 C819 1.429 . S
C828 N825 1.350 . S
C828 C827 1.434 . S
C829 C830 1.369 . S
C829 C831 1.419 . S
C829 H833 0.930 . S
C830 C829 1.369 . S
C830 C839 1.429 . S
C831 C829 1.419 . S
C831 C832 1.363 . S
C831 H834 0.929 . S
C832 C831 1.363 . S
C832 C838 1.428 . S
H833 C829 0.930 . S
H834 C831 0.929 . S
S835 N836 1.613 . S
S835 N837 1.610 . S
N836 S835 1.613 . S
N836 C839 1.350 . S
N837 S835 1.610 . S
N837 C838 1.351 . S
C838 C832 1.428 . S
C838 N837 1.351 . S
C838 C839 1.434 . S
C839 C830 1.429 . S
C839 N836 1.350 . S
C839 C838 1.434 . S
C313 C92 1.524 . S
C315 C10 1.482 . S
C324 C23 0.967 . S
C326 C62 0.953 1_655 S
C335 C66 1.472 . S
C337 C36 1.436 . S
C346 C49 1.326 . S
C348 C88 1.309 . S
C357 C105 1.376 . S
C359 C1 1.525 . S
C368 C14 1.262 . S
C370 C127 1.323 . S
C379 C131 1.468 . S
C381 C27 1.661 . S
C390 C153 0.864 . S
C392 C40 0.852 . S
C401 C53 0.860 . S
C403 C118 0.842 . S
C412 C75 1.345 . S
C414 C140 1.412 . S
C423 C144 0.934 . S
C425 C79 0.931 . S
C434 C114 1.519 . S
C436 C101 1.485 . S
C445 C283 1.649 . S
C447 C166 1.608 . S
C456 C170 1.260 . S
C458 C287 1.261 . S
C467 C192 1.438 . S
C469 C309 1.443 . S
C478 C300 1.219 . S
C480 C196 1.398 . S
C489 C209 1.469 . S
C491 C274 1.353 . S
C500 C257 1.142 . S
C502 C231 1.149 . S
C511 C157 1.404 . S
C513 C218 1.337 . S
C522 C179 0.861 . S
C524 C244 0.872 . S
C533 C183 1.662 . S
C535 C205 1.612 . S
C544 C222 1.048 . S
C546 C261 1.154 . S
C555 C235 0.929 . S
C557 C296 0.969 . S
C566 C270 1.135 . S
C568 C248 1.145 . S
C577 C57 2.697 . S
C579 C5 2.628 . S
C588 C68 1.468 . S
C590 C18 1.417 . S
C599 C83 2.849 . S
C601 C31 2.828 . S
C610 C94 2.166 . S
C612 C44 2.185 . S
C621 C107 2.401 . S
C623 C146 2.580 . S
C632 C122 2.179 . S
C634 C109 2.180 . S
C643 C133 2.122 . S
C645 C120 2.308 . S
C654 C135 1.199 . S
C656 C148 1.203 . S
C665 C237 2.576 . S
C667 C96 2.626 . S
C676 C161 2.390 . S
C678 C42 2.309 . S
C687 C3 2.172 . S
C689 C172 2.035 . S
C698 C16 2.721 . S
C700 C187 2.826 . S
C709 C70 2.295 . S
C711 C250 2.241 . S
C720 C55 1.130 . S
C722 C198 1.186 . S
C731 C81 1.336 . S
C733 C211 1.464 . S
C742 C213 2.295 . S
C744 C226 2.229 . S
C753 C159 1.196 . S
C755 C239 1.199 . S
C764 C200 2.387 . S
C766 C174 2.431 . S
C775 C252 2.639 . S
C777 C185 2.568 . S
C786 C263 2.247 . S
C788 C302 2.045 . S
C797 C265 2.633 . S
C799 C278 2.555 . S
C808 C289 2.714 . S
C810 C276 2.610 . S
C819 C304 1.444 . S
C821 C291 1.422 . S
C830 C29 2.565 . S
C832 C224 2.404 . S
