# Generated by pormake.
# Topology fst, (5)-cn, num edge types: 1
# Building blocks:
#     Node 0, Type 0, BuildingBlock: BEQFEK_clean_sbu_0, # of connection points: 5
#     Node 1, Type 0, BuildingBlock: BEQFEK_clean_sbu_0, # of connection points: 5
#     Node 2, Type 0, BuildingBlock: BEQFEK_clean_sbu_0, # of connection points: 5
#     Node 3, Type 0, BuildingBlock: BEQFEK_clean_sbu_0, # of connection points: 5
#     Node 4, Type 0, BuildingBlock: BEQFEK_clean_sbu_0, # of connection points: 5
#     Node 5, Type 0, BuildingBlock: BEQFEK_clean_sbu_0, # of connection points: 5
#     Node 6, Type 0, BuildingBlock: BEQFEK_clean_sbu_0, # of connection points: 5
#     Node 7, Type 0, BuildingBlock: BEQFEK_clean_sbu_0, # of connection points: 5
#     Node 8, Type 0, BuildingBlock: BEQFEK_clean_sbu_0, # of connection points: 5
#     Node 9, Type 0, BuildingBlock: BEQFEK_clean_sbu_0, # of connection points: 5
#     Node 10, Type 0, BuildingBlock: BEQFEK_clean_sbu_0, # of connection points: 5
#     Node 11, Type 0, BuildingBlock: BEQFEK_clean_sbu_0, # of connection points: 5
#     Edge 12, Type (0, 0), BuildingBlock: CIFDUS_clean_linker_0, # of connection points: 2
#     Edge 13, Type (0, 0), BuildingBlock: CIFDUS_clean_linker_0, # of connection points: 2
#     Edge 14, Type (0, 0), BuildingBlock: CIFDUS_clean_linker_0, # of connection points: 2
#     Edge 15, Type (0, 0), BuildingBlock: CIFDUS_clean_linker_0, # of connection points: 2
#     Edge 16, Type (0, 0), BuildingBlock: CIFDUS_clean_linker_0, # of connection points: 2
#     Edge 17, Type (0, 0), BuildingBlock: CIFDUS_clean_linker_0, # of connection points: 2
#     Edge 18, Type (0, 0), BuildingBlock: CIFDUS_clean_linker_0, # of connection points: 2
#     Edge 19, Type (0, 0), BuildingBlock: CIFDUS_clean_linker_0, # of connection points: 2
#     Edge 20, Type (0, 0), BuildingBlock: CIFDUS_clean_linker_0, # of connection points: 2
#     Edge 21, Type (0, 0), BuildingBlock: CIFDUS_clean_linker_0, # of connection points: 2
#     Edge 22, Type (0, 0), BuildingBlock: CIFDUS_clean_linker_0, # of connection points: 2
#     Edge 23, Type (0, 0), BuildingBlock: CIFDUS_clean_linker_0, # of connection points: 2
#     Edge 24, Type (0, 0), BuildingBlock: CIFDUS_clean_linker_0, # of connection points: 2
#     Edge 25, Type (0, 0), BuildingBlock: CIFDUS_clean_linker_0, # of connection points: 2
#     Edge 26, Type (0, 0), BuildingBlock: CIFDUS_clean_linker_0, # of connection points: 2
#     Edge 27, Type (0, 0), BuildingBlock: CIFDUS_clean_linker_0, # of connection points: 2
#     Edge 28, Type (0, 0), BuildingBlock: CIFDUS_clean_linker_0, # of connection points: 2
#     Edge 29, Type (0, 0), BuildingBlock: CIFDUS_clean_linker_0, # of connection points: 2
#     Edge 30, Type (0, 0), BuildingBlock: CIFDUS_clean_linker_0, # of connection points: 2
#     Edge 31, Type (0, 0), BuildingBlock: CIFDUS_clean_linker_0, # of connection points: 2
#     Edge 32, Type (0, 0), BuildingBlock: CIFDUS_clean_linker_0, # of connection points: 2
#     Edge 33, Type (0, 0), BuildingBlock: CIFDUS_clean_linker_0, # of connection points: 2
#     Edge 34, Type (0, 0), BuildingBlock: CIFDUS_clean_linker_0, # of connection points: 2
#     Edge 35, Type (0, 0), BuildingBlock: CIFDUS_clean_linker_0, # of connection points: 2
#     Edge 36, Type (0, 0), BuildingBlock: CIFDUS_clean_linker_0, # of connection points: 2
#     Edge 37, Type (0, 0), BuildingBlock: CIFDUS_clean_linker_0, # of connection points: 2
#     Edge 38, Type (0, 0), BuildingBlock: CIFDUS_clean_linker_0, # of connection points: 2
#     Edge 39, Type (0, 0), BuildingBlock: CIFDUS_clean_linker_0, # of connection points: 2
#     Edge 40, Type (0, 0), BuildingBlock: CIFDUS_clean_linker_0, # of connection points: 2
#     Edge 41, Type (0, 0), BuildingBlock: CIFDUS_clean_linker_0, # of connection points: 2
# Relax obj value: 0.025
# Max RMSD: 0.072
# Mean RMSD: 0.072
data_MOF--net-fst--node1-BEQFEK_clean_sbu_0--edge1-CIFDUS_clean_linker_0
_symmetry_space_group_name_H-M    P1
_symmetry_Int_Tables_number       1
_symmetry_cell_setting            triclinic
loop_
_symmetry_equiv_pos_as_xyz
'x, y, z'
_cell_length_a     66.181965
_cell_length_b     66.113647
_cell_length_c     17.733709
_cell_angle_alpha  89.946307
_cell_angle_beta   89.943532
_cell_angle_gamma 120.0279
loop_
_atom_site_label
_atom_site_type_symbol
_atom_site_fract_x
_atom_site_fract_y
_atom_site_fract_z
_atom_type_partial_charge
Co0 Co 0.11352 0.45529 0.27173 0.0
Co1 Co 0.1134 0.45897 0.09338 0.0
C2 C 0.07029 0.42568 0.17784 0.0
O3 O 0.08124 0.43253 0.24022 0.0
O4 O 0.08049 0.43404 0.11479 0.0
C5 C 0.10598 0.43432 0.42332 0.0
O6 O 0.09266 0.41407 0.39072 0.0
C7 C 0.1112 0.45354 0.92304 0.0
C8 C 0.14029 0.48867 0.89435 0.0
C9 C 0.12348 0.46796 0.86213 0.0
N10 N 0.12058 0.46538 0.98763 0.0
N11 N 0.13792 0.48631 0.96946 0.0
C12 C 0.0902 0.42963 0.92012 0.0
H13 H 0.08015 0.42554 0.97341 0.0
H14 H 0.09595 0.41663 0.91231 0.0
H15 H 0.07884 0.42819 0.87199 0.0
C16 C 0.15264 0.44692 0.23636 0.0
N17 N 0.13535 0.45082 0.2151 0.0
N18 N 0.13513 0.45203 0.14095 0.0
C19 C 0.15226 0.44882 0.11272 0.0
C20 C 0.16401 0.44553 0.17225 0.0
C21 C 0.1577 0.44414 0.31672 0.0
H22 H 0.14156 0.43029 0.34372 0.0
H23 H 0.1715 0.43936 0.32151 0.0
H24 H 0.1631 0.46068 0.3475 0.0
O25 O 0.11874 0.48721 0.25631 0.0
O26 O 0.11742 0.48894 0.13192 0.0
H27 H 0.17192 0.44616 0.0185 0.0
H28 H 0.14248 0.43946 0.99746 0.0
C29 C 0.15837 0.45085 0.03068 0.0
H30 H 0.16513 0.46916 0.01233 0.0
H31 H 0.1481 0.49915 0.00873 0.0
O32 O 0.11651 0.45268 0.38298 0.0
C33 C 0.1195 0.49816 0.19642 0.0
Co34 Co 0.65832 0.11103 0.25687 0.0
Co35 Co 0.65665 0.11443 0.08302 0.0
C36 C 0.64507 0.06929 0.15973 0.0
O37 O 0.64912 0.07878 0.22467 0.0
O38 O 0.64738 0.08108 0.10012 0.0
C39 C 0.66989 0.10533 0.41366 0.0
O40 O 0.68068 0.09436 0.39038 0.0
C41 C 0.66623 0.11166 0.9227 0.0
C42 C 0.65968 0.13875 0.87472 0.0
C43 C 0.6662 0.1225 0.85567 0.0
N44 N 0.66023 0.12133 0.97864 0.0
N45 N 0.65638 0.1375 0.94966 0.0
C46 C 0.6695 0.09104 0.93376 0.0
H47 H 0.68134 0.09429 0.9822 0.0
H48 H 0.67631 0.08682 0.88282 0.0
H49 H 0.65236 0.07566 0.9479 0.0
C50 C 0.70679 0.15054 0.23192 0.0
N51 N 0.68569 0.13384 0.20731 0.0
N52 N 0.68506 0.13496 0.13337 0.0
C53 C 0.70588 0.15219 0.10839 0.0
C54 C 0.72035 0.16262 0.16993 0.0
C55 C 0.71375 0.15459 0.31314 0.0
H56 H 0.70088 0.15723 0.34542 0.0
H57 H 0.71346 0.13885 0.33613 0.0
H58 H 0.73148 0.16989 0.32075 0.0
O59 O 0.63211 0.11667 0.23948 0.0
O60 O 0.63072 0.11943 0.1157 0.0
H61 H 0.69887 0.16501 0.00697 0.0
H62 H 0.72921 0.1744 0.01984 0.0
C63 C 0.71123 0.15958 0.02759 0.0
H64 H 0.70898 0.1446 0.99317 0.0
H65 H 0.65134 0.14758 0.98112 0.0
O66 O 0.6613 0.11336 0.36646 0.0
C67 C 0.62289 0.11969 0.18097 0.0
Co68 Co 0.5477 0.65739 0.20744 0.0
Co69 Co 0.54512 0.65842 0.02872 0.0
C70 C 0.57689 0.64511 0.10515 0.0
O71 O 0.57003 0.64796 0.16951 0.0
O72 O 0.56902 0.64881 0.04404 0.0
C73 C 0.55745 0.6503 0.36115 0.0
O74 O 0.56215 0.63515 0.32954 0.0
C75 C 0.55254 0.66442 0.86095 0.0
C76 C 0.52065 0.66512 0.82884 0.0
C77 C 0.54057 0.66632 0.79913 0.0
N78 N 0.54017 0.66228 0.92395 0.0
N79 N 0.52108 0.66255 0.90389 0.0
C80 C 0.57568 0.66558 0.86091 0.0
H81 H 0.58514 0.67359 0.91407 0.0
H82 H 0.58638 0.67577 0.81186 0.0
H83 H 0.57284 0.64757 0.85748 0.0
C84 C 0.5573 0.70587 0.18685 0.0
N85 N 0.55314 0.68524 0.15863 0.0
N86 N 0.55278 0.68606 0.08445 0.0
C87 C 0.55696 0.70743 0.06318 0.0
C88 C 0.55982 0.72067 0.12742 0.0
C89 C 0.55902 0.71121 0.26936 0.0
H90 H 0.54187 0.69974 0.29646 0.0
H91 H 0.57193 0.70733 0.2955 0.0
H92 H 0.56441 0.72977 0.28 0.0
O93 O 0.5155 0.63154 0.18776 0.0
O94 O 0.51463 0.63229 0.06284 0.0
H95 H 0.5379 0.70546 0.9639 0.0
H96 H 0.56364 0.73336 0.97669 0.0
C97 C 0.55629 0.71429 0.98314 0.0
H98 H 0.56612 0.70858 0.94667 0.0
H99 H 0.50831 0.66102 0.94176 0.0
O100 O 0.55122 0.66192 0.31953 0.0
C101 C 0.50488 0.62338 0.12563 0.0
Co102 Co 0.89042 0.54652 0.21203 0.0
Co103 Co 0.89166 0.54402 0.03859 0.0
C104 C 0.93424 0.57721 0.12103 0.0
O105 O 0.92323 0.57055 0.18347 0.0
O106 O 0.92407 0.56841 0.05883 0.0
C107 C 0.90213 0.55675 0.36673 0.0
O108 O 0.92284 0.561 0.34448 0.0
C109 C 0.89884 0.55304 0.87605 0.0
C110 C 0.86705 0.52251 0.8311 0.0
C111 C 0.88742 0.54245 0.80979 0.0
N112 N 0.88587 0.53982 0.93397 0.0
N113 N 0.8669 0.52163 0.90681 0.0
C114 C 0.92082 0.57603 0.88477 0.0
H115 H 0.91927 0.58556 0.93383 0.0
H116 H 0.92461 0.58697 0.83346 0.0
H117 H 0.93554 0.57287 0.89518 0.0
C118 C 0.8481 0.54934 0.17619 0.0
N119 N 0.86754 0.54906 0.15593 0.0
N120 N 0.8702 0.55156 0.08283 0.0
C121 C 0.85384 0.55582 0.05426 0.0
C122 C 0.83865 0.55416 0.11236 0.0
C123 C 0.83746 0.54172 0.253 0.0
H124 H 0.8433 0.5303 0.27934 0.0
H125 H 0.84317 0.55728 0.28944 0.0
H126 H 0.81813 0.53178 0.24986 0.0
O127 O 0.88631 0.51527 0.20043 0.0
O128 O 0.88683 0.51318 0.07587 0.0
H129 H 0.84343 0.54775 0.93887 0.0
H130 H 0.84789 0.57581 0.96982 0.0
C131 C 0.85439 0.5633 0.97419 0.0
H132 H 0.8725 0.5719 0.95212 0.0
H133 H 0.85386 0.50862 0.94013 0.0
O134 O 0.88595 0.55066 0.31866 0.0
C135 C 0.88518 0.50414 0.14075 0.0
Co136 Co 0.34515 0.89271 0.27303 0.0
Co137 Co 0.34759 0.8893 0.09921 0.0
C138 C 0.3585 0.93437 0.17524 0.0
O139 O 0.35446 0.92515 0.24074 0.0
O140 O 0.35635 0.92237 0.11647 0.0
C141 C 0.34174 0.90404 0.42981 0.0
O142 O 0.35138 0.92606 0.40939 0.0
C143 C 0.34089 0.89445 0.93901 0.0
C144 C 0.34806 0.86817 0.88825 0.0
C145 C 0.34264 0.88533 0.87067 0.0
N146 N 0.34535 0.88338 0.99437 0.0
N147 N 0.34952 0.86762 0.96377 0.0
C148 C 0.33375 0.91233 0.95207 0.0
H149 H 0.32516 0.90959 0.00789 0.0
H150 H 0.32171 0.91152 0.9071 0.0
H151 H 0.34951 0.92993 0.95104 0.0
C152 C 0.29743 0.85296 0.24648 0.0
N153 N 0.31833 0.8699 0.22125 0.0
N154 N 0.3191 0.86844 0.14755 0.0
C155 C 0.29859 0.85061 0.12321 0.0
C156 C 0.28413 0.84015 0.18519 0.0
C157 C 0.29144 0.84779 0.32829 0.0
H158 H 0.30514 0.84554 0.35641 0.0
H159 H 0.29116 0.86283 0.35499 0.0
H160 H 0.27438 0.83172 0.3372 0.0
O161 O 0.37188 0.88742 0.25923 0.0
O162 O 0.37335 0.88467 0.13517 0.0
H163 H 0.30329 0.83609 0.02168 0.0
H164 H 0.27408 0.83133 0.03399 0.0
C165 C 0.29291 0.84396 0.04212 0.0
H166 H 0.29776 0.8598 0.00798 0.0
H167 H 0.35365 0.85671 0.99448 0.0
O168 O 0.33808 0.88858 0.38102 0.0
C169 C 0.38122 0.88454 0.2005 0.0
Co170 Co 0.45874 0.34555 0.31789 0.0
Co171 Co 0.45971 0.34944 0.14307 0.0
C172 C 0.42802 0.35968 0.23306 0.0
O173 O 0.43561 0.35549 0.2937 0.0
O174 O 0.43548 0.35766 0.1688 0.0
C175 C 0.44175 0.33799 0.47121 0.0
O176 O 0.42685 0.34415 0.44697 0.0
C177 C 0.44765 0.34408 0.98173 0.0
C178 C 0.48092 0.35018 0.93213 0.0
C179 C 0.45851 0.34502 0.91371 0.0
N180 N 0.46304 0.34845 0.03747 0.0
N181 N 0.48288 0.35218 0.00745 0.0
C182 C 0.42274 0.33743 0.99471 0.0
H183 H 0.41678 0.32893 0.05064 0.0
H184 H 0.41134 0.32544 0.94993 0.0
H185 H 0.4213 0.35344 0.99409 0.0
C186 C 0.45012 0.29811 0.28009 0.0
N187 N 0.45349 0.31925 0.26014 0.0
N188 N 0.45316 0.32054 0.18625 0.0
C189 C 0.44931 0.30013 0.15662 0.0
C190 C 0.44732 0.28521 0.21508 0.0
C191 C 0.45144 0.29128 0.35967 0.0
H192 H 0.46684 0.30575 0.3879 0.0
H193 H 0.43561 0.28832 0.39071 0.0
H194 H 0.45281 0.27526 0.36246 0.0
O195 O 0.49069 0.3724 0.30159 0.0
O196 O 0.49043 0.37497 0.17719 0.0
H197 H 0.46434 0.30441 0.04698 0.0
H198 H 0.43929 0.27583 0.06334 0.0
C199 C 0.4469 0.2948 0.07403 0.0
H200 H 0.43552 0.30069 0.04803 0.0
H201 H 0.49771 0.35588 0.03859 0.0
O202 O 0.45627 0.33746 0.42557 0.0
C203 C 0.50072 0.38232 0.24016 0.0
Co204 Co 0.54422 0.88992 0.09395 0.0
Co205 Co 0.53912 0.88617 0.27246 0.0
C206 C 0.5741 0.93067 0.19683 0.0
O207 O 0.56781 0.92145 0.13158 0.0
O208 O 0.56475 0.91896 0.25683 0.0
C209 C 0.56511 0.89732 0.94113 0.0
O210 O 0.58565 0.90889 0.97361 0.0
C211 C 0.54394 0.88838 0.44211 0.0
C212 C 0.51192 0.85543 0.47128 0.0
C213 C 0.53095 0.87462 0.50311 0.0
N214 N 0.53307 0.87753 0.37765 0.0
N215 N 0.51396 0.8579 0.39601 0.0
C216 C 0.5649 0.91233 0.44465 0.0
H217 H 0.56332 0.92349 0.40116 0.0
H218 H 0.5807 0.91117 0.43178 0.0
H219 H 0.56693 0.92057 0.50066 0.0
C220 C 0.54932 0.84824 0.11846 0.0
N221 N 0.54699 0.86609 0.1447 0.0
N222 N 0.54558 0.86491 0.21889 0.0
C223 C 0.5475 0.84651 0.24205 0.0
C224 C 0.54968 0.83517 0.17934 0.0
C225 C 0.54909 0.84276 0.0365 0.0
H226 H 0.53539 0.84474 0.00719 0.0
H227 H 0.56619 0.85539 0.01121 0.0
H228 H 0.54585 0.82477 0.02761 0.0
O229 O 0.51284 0.88559 0.111 0.0
O230 O 0.50947 0.88357 0.23549 0.0
H231 H 0.52964 0.8294 0.34342 0.0
H232 H 0.55669 0.82968 0.329 0.0
C233 C 0.54783 0.84008 0.3228 0.0
H234 H 0.557 0.85605 0.35778 0.0
H235 H 0.50205 0.84631 0.35682 0.0
O236 O 0.54678 0.88826 0.98178 0.0
C237 C 0.50122 0.88348 0.17057 0.0
Co238 Co 0.65416 0.54158 0.07779 0.0
Co239 Co 0.65647 0.54425 0.25536 0.0
C240 C 0.64377 0.57452 0.17083 0.0
O241 O 0.64598 0.56587 0.10904 0.0
O242 O 0.64745 0.56789 0.23434 0.0
C243 C 0.67503 0.56035 0.93208 0.0
O244 O 0.69167 0.57704 0.97225 0.0
C245 C 0.658 0.5514 0.42234 0.0
C246 C 0.674 0.5306 0.45863 0.0
C247 C 0.66537 0.54441 0.48561 0.0
N248 N 0.66236 0.54229 0.36068 0.0
N249 N 0.67166 0.52967 0.38318 0.0
C250 C 0.64763 0.56694 0.41982 0.0
H251 H 0.63 0.55731 0.39416 0.0
H252 H 0.65854 0.58219 0.38311 0.0
H253 H 0.64644 0.57318 0.47681 0.0
C254 C 0.70097 0.54609 0.10326 0.0
N255 N 0.68157 0.54594 0.12718 0.0
N256 N 0.68377 0.55132 0.19889 0.0
C257 C 0.70564 0.55797 0.22109 0.0
C258 C 0.71753 0.55417 0.16194 0.0
C259 C 0.70172 0.53558 0.02923 0.0
H260 H 0.68384 0.52482 0.00627 0.0
H261 H 0.71218 0.54965 0.98808 0.0
H262 H 0.70955 0.52427 0.03616 0.0
O263 O 0.62811 0.51074 0.10375 0.0
O264 O 0.62951 0.51248 0.22876 0.0
H265 H 0.71503 0.55894 0.33756 0.0
H266 H 0.7337 0.58529 0.28518 0.0
C267 C 0.71543 0.57099 0.29336 0.0
H268 H 0.70481 0.57863 0.31349 0.0
H269 H 0.67643 0.52036 0.34678 0.0
O270 O 0.65775 0.54354 0.96545 0.0
C271 C 0.62019 0.50148 0.16783 0.0
Co272 Co 0.11386 0.65573 0.08046 0.0
Co273 Co 0.11602 0.65356 0.25474 0.0
C274 C 0.07196 0.64386 0.17539 0.0
O275 O 0.08179 0.64763 0.11098 0.0
O276 O 0.08323 0.64566 0.23564 0.0
C277 C 0.10354 0.66116 0.92452 0.0
O278 O 0.08213 0.65449 0.94635 0.0
C279 C 0.11113 0.66147 0.41425 0.0
C280 C 0.1361 0.65267 0.4664 0.0
C281 C 0.11993 0.65951 0.48308 0.0
N282 N 0.12153 0.65587 0.35967 0.0
N283 N 0.13645 0.65066 0.3911 0.0
C284 C 0.0941 0.66961 0.39963 0.0
H285 H 0.09775 0.67857 0.34416 0.0
H286 H 0.09494 0.68164 0.44474 0.0
H287 H 0.07621 0.65426 0.39816 0.0
C288 C 0.15488 0.70252 0.10676 0.0
N289 N 0.13691 0.68229 0.1322 0.0
N290 N 0.13794 0.68169 0.2061 0.0
C291 C 0.15664 0.70165 0.2302 0.0
C292 C 0.16807 0.71546 0.16783 0.0
C293 C 0.15969 0.70899 0.02517 0.0
H294 H 0.14368 0.70687 0.99788 0.0
H295 H 0.17398 0.72729 0.01754 0.0
H296 H 0.16453 0.69703 0.99701 0.0
O297 O 0.11807 0.62838 0.09681 0.0
O298 O 0.11986 0.6271 0.22123 0.0
H299 H 0.16934 0.69314 0.32882 0.0
H300 H 0.18001 0.72399 0.31773 0.0
C301 C 0.16464 0.70629 0.31042 0.0
H302 H 0.15018 0.70446 0.34681 0.0
H303 H 0.14671 0.64553 0.36109 0.0
O304 O 0.1184 0.66238 0.97213 0.0
C305 C 0.1202 0.61895 0.15661 0.0
Co306 Co 0.45894 0.11298 0.08511 0.0
Co307 Co 0.46552 0.11932 0.25913 0.0
C308 C 0.43029 0.07337 0.18973 0.0
O309 O 0.43521 0.08167 0.123 0.0
O310 O 0.44072 0.08605 0.24676 0.0
C311 C 0.44135 0.1069 0.92727 0.0
O312 O 0.41974 0.09808 0.95084 0.0
C313 C 0.45286 0.11851 0.4186 0.0
C314 C 0.48723 0.14303 0.46811 0.0
C315 C 0.46397 0.12834 0.48631 0.0
N316 N 0.46892 0.12712 0.36323 0.0
N317 N 0.48936 0.14187 0.39313 0.0
C318 C 0.42824 0.09936 0.40678 0.0
H319 H 0.42206 0.10114 0.35034 0.0
H320 H 0.4163 0.09926 0.45066 0.0
H321 H 0.42773 0.08235 0.40911 0.0
C322 C 0.45317 0.15473 0.10223 0.0
N323 N 0.45601 0.13738 0.13055 0.0
N324 N 0.45864 0.13991 0.20411 0.0
C325 C 0.45738 0.15885 0.22505 0.0
C326 C 0.45384 0.16889 0.16123 0.0
C327 C 0.45005 0.15765 0.02016 0.0
H328 H 0.46514 0.15914 0.98808 0.0
H329 H 0.43412 0.14192 -0.00022 0.0
H330 H 0.44823 0.17318 0.00917 0.0
O331 O 0.49039 0.11755 0.10351 0.0
O332 O 0.49583 0.12276 0.22659 0.0
H333 H 0.47933 0.1718 0.32198 0.0
H334 H 0.46158 0.18498 0.30774 0.0
C335 C 0.46193 0.16844 0.30357 0.0
H336 H 0.44863 0.15534 0.34225 0.0
H337 H 0.50486 0.15078 0.36244 0.0
O338 O 0.45793 0.11379 0.97437 0.0
C339 C 0.50309 0.12135 0.16143 0.0
Co340 Co 0.34961 0.46282 0.09912 0.0
Co341 Co 0.34949 0.46192 0.27763 0.0
C342 C 0.36013 0.43011 0.19103 0.0
O343 O 0.35761 0.43871 0.1297 0.0
O344 O 0.35717 0.43708 0.255 0.0
C345 C 0.32971 0.44297 0.95259 0.0
O346 O 0.31391 0.42516 0.99163 0.0
C347 C 0.34704 0.45324 0.44414 0.0
C348 C 0.34111 0.48147 0.48461 0.0
C349 C 0.34367 0.46302 0.50887 0.0
N350 N 0.34609 0.4652 0.38396 0.0
N351 N 0.3428 0.48218 0.40894 0.0
C352 C 0.35124 0.43308 0.43939 0.0
H353 H 0.36902 0.43928 0.41657 0.0
H354 H 0.33861 0.41992 0.39946 0.0
H355 H 0.34959 0.42491 0.49548 0.0
C356 C 0.30268 0.45773 0.12789 0.0
N357 N 0.3225 0.45853 0.15113 0.0
N358 N 0.32195 0.45649 0.2252 0.0
C359 C 0.30137 0.45337 0.25069 0.0
C360 C 0.28866 0.45436 0.19026 0.0
C361 C 0.29835 0.46274 0.04912 0.0
H362 H 0.31509 0.47373 0.01923 0.0
H363 H 0.28816 0.44601 0.01837 0.0
H364 H 0.28799 0.47175 0.04935 0.0
O365 O 0.37642 0.49401 0.12239 0.0
O366 O 0.37652 0.49255 0.24733 0.0
H367 H 0.29889 0.46566 0.35981 0.0
H368 H 0.27415 0.43818 0.33438 0.0
C369 C 0.29348 0.44883 0.33115 0.0
H370 H 0.30117 0.4395 0.36068 0.0
H371 H 0.34176 0.49436 0.37407 0.0
O372 O 0.34573 0.4606 0.98693 0.0
C373 C 0.38528 0.5033 0.18564 0.0
Co374 Co 0.8872 0.3434 0.04795 0.0
Co375 Co 0.89119 0.35141 0.22203 0.0
C376 C 0.93215 0.35811 0.13198 0.0
O377 O 0.92015 0.35275 0.07159 0.0
O378 O 0.92309 0.35796 0.19559 0.0
C379 C 0.89644 0.33695 0.89384 0.0
O380 O 0.9181 0.34582 0.91671 0.0
C381 C 0.89823 0.34727 0.38399 0.0
C382 C 0.8736 0.35701 0.43347 0.0
C383 C 0.88932 0.34976 0.45203 0.0
N384 N 0.88808 0.35268 0.32799 0.0
N385 N 0.87356 0.35868 0.35797 0.0
C386 C 0.91443 0.33796 0.37145 0.0
H387 H 0.91098 0.32915 0.31587 0.0
H388 H 0.91248 0.32553 0.41681 0.0
H389 H 0.93268 0.35272 0.37164 0.0
C390 C 0.84694 0.29796 0.09622 0.0
N391 N 0.86583 0.31885 0.11147 0.0
N392 N 0.86774 0.32199 0.1849 0.0
C393 C 0.8502 0.30307 0.21886 0.0
C394 C 0.83634 0.28724 0.1639 0.0
C395 C 0.83815 0.28969 0.01813 0.0
H396 H 0.83735 0.30377 0.98658 0.0
H397 H 0.85062 0.28589 0.98825 0.0
H398 H 0.82061 0.27382 0.01837 0.0
O399 O 0.88345 0.37123 0.05769 0.0
O400 O 0.88675 0.37683 0.18121 0.0
H401 H 0.84107 0.31227 0.32382 0.0
H402 H 0.83353 0.282 0.31797 0.0
C403 C 0.84676 0.30016 0.30242 0.0
H404 H 0.86348 0.30451 0.32982 0.0
H405 H 0.86327 0.36348 0.32668 0.0
O406 O 0.8807 0.33382 0.94117 0.0
C407 C 0.88388 0.38278 0.1156 0.0
H408 H 0.12351 0.59345 0.27188 0.0
H409 H 0.12099 0.59615 0.02887 0.0
H410 H 0.12161 0.55965 0.01994 0.0
H411 H 0.12112 0.52613 0.08089 0.0
H412 H 0.12307 0.52309 0.32393 0.0
H413 H 0.12454 0.56063 0.33272 0.0
C414 C 0.12323 0.58616 0.21686 0.0
C415 C 0.12207 0.59754 0.15119 0.0
C416 C 0.12341 0.56505 0.21203 0.0
C417 C 0.1218 0.5878 0.08044 0.0
C418 C 0.12213 0.56688 0.07522 0.0
C419 C 0.12199 0.53369 0.13588 0.0
C420 C 0.12185 0.52165 0.20164 0.0
C421 C 0.12266 0.55522 0.14064 0.0
C422 C 0.12308 0.53186 0.27231 0.0
C423 C 0.12389 0.55335 0.27745 0.0
H424 H 0.59551 0.12172 0.06969 0.0
H425 H 0.60335 0.12375 0.31178 0.0
H426 H 0.56772 0.12563 0.32697 0.0
H427 H 0.53326 0.12477 0.27215 0.0
H428 H 0.52502 0.12192 0.03014 0.0
H429 H 0.56185 0.12241 0.0147 0.0
C430 C 0.58955 0.12275 0.12579 0.0
C431 C 0.6021 0.12247 0.18939 0.0
C432 C 0.56886 0.12359 0.13434 0.0
C433 C 0.59404 0.12382 0.26167 0.0
C434 C 0.57362 0.12488 0.27053 0.0
C435 C 0.53958 0.12442 0.21598 0.0
C436 C 0.52625 0.12318 0.15254 0.0
C437 C 0.56072 0.12447 0.20733 0.0
C438 C 0.53479 0.12276 0.08016 0.0
C439 C 0.55589 0.12303 0.07115 0.0
H440 H 0.40835 0.5319 0.06696 0.0
H441 H 0.41054 0.52726 0.30948 0.0
H442 H 0.44704 0.56449 0.31276 0.0
H443 H 0.47937 0.59748 0.24646 0.0
H444 H 0.47713 0.60186 0.00382 0.0
H445 H 0.43964 0.56575 0.00137 0.0
C446 C 0.41671 0.53905 0.12065 0.0
C447 C 0.40671 0.52663 0.18774 0.0
C448 C 0.43779 0.56045 0.12225 0.0
C449 C 0.41781 0.53633 0.25679 0.0
C450 C 0.43875 0.55764 0.25881 0.0
C451 C 0.47062 0.59066 0.19305 0.0
C452 C 0.48122 0.60238 0.12547 0.0
C453 C 0.44904 0.56973 0.19182 0.0
C454 C 0.46952 0.59322 0.05682 0.0
C455 C 0.44804 0.57251 0.05524 0.0
H456 H 0.88128 0.40968 0.2267 0.0
H457 H 0.88241 0.40401 0.98436 0.0
H458 H 0.88197 0.44056 0.9705 0.0
H459 H 0.88306 0.47508 0.0274 0.0
H460 H 0.88212 0.48037 0.27008 0.0
H461 H 0.88064 0.44302 0.28315 0.0
C462 C 0.88133 0.41633 0.17072 0.0
C463 C 0.88203 0.40412 0.10674 0.0
C464 C 0.88119 0.43738 0.1631 0.0
C465 C 0.88192 0.41301 0.03471 0.0
C466 C 0.88172 0.43397 0.02668 0.0
C467 C 0.8824 0.46802 0.08315 0.0
C468 C 0.88285 0.48069 0.14756 0.0
C469 C 0.88163 0.44645 0.09052 0.0
C470 C 0.88189 0.47114 0.21936 0.0
C471 C 0.88106 0.44974 0.22704 0.0
H472 H 0.40741 0.88131 0.0877 0.0
H473 H 0.40261 0.88269 0.33036 0.0
H474 H 0.43872 0.88148 0.34253 0.0
H475 H 0.47259 0.8818 0.28437 0.0
H476 H 0.47758 0.88114 0.04157 0.0
H477 H 0.44046 0.88023 0.02977 0.0
C478 C 0.41414 0.88119 0.14336 0.0
C479 C 0.40229 0.8822 0.20795 0.0
C480 C 0.43504 0.88073 0.15005 0.0
C481 C 0.41134 0.882 0.27955 0.0
C482 C 0.43204 0.88134 0.28663 0.0
C483 C 0.46552 0.88133 0.22883 0.0
C484 C 0.47801 0.88166 0.16402 0.0
C485 C 0.44419 0.88098 0.22226 0.0
C486 C 0.46848 0.881 0.09254 0.0
C487 C 0.44721 0.88049 0.08563 0.0
H488 H 0.59576 0.47656 0.29233 0.0
H489 H 0.59711 0.47311 0.04916 0.0
H490 H 0.56116 0.4356 0.05097 0.0
H491 H 0.52832 0.40473 0.11994 0.0
H492 H 0.5261 0.4076 0.36282 0.0
H493 H 0.56348 0.44421 0.36251 0.0
C494 C 0.58829 0.46753 0.23977 0.0
C495 C 0.59914 0.47785 0.17072 0.0
C496 C 0.5674 0.44586 0.24097 0.0
C497 C 0.58917 0.46578 0.10321 0.0
C498 C 0.56855 0.44426 0.10406 0.0
C499 C 0.53601 0.41324 0.17301 0.0
C500 C 0.52427 0.40346 0.24124 0.0
C501 C 0.55736 0.43431 0.17243 0.0
C502 C 0.5347 0.41472 0.30938 0.0
C503 C 0.55606 0.43571 0.30925 0.0
H504 H 0.24796 0.42722 0.11596 0.0
H505 H 0.28114 0.48434 0.27291 0.0
H506 H 0.24545 0.48661 0.28168 0.0
H507 H 0.20488 0.47256 0.2438 0.0
H508 H 0.17068 0.41412 0.09227 0.0
H509 H 0.20659 0.41215 0.08152 0.0
C510 C 0.24726 0.44014 0.15181 0.0
C511 C 0.26697 0.45556 0.19389 0.0
C512 C 0.22654 0.4411 0.15736 0.0
C513 C 0.26601 0.47218 0.24062 0.0
C514 C 0.24567 0.47351 0.24548 0.0
C515 C 0.20529 0.45927 0.20908 0.0
C516 C 0.18534 0.44362 0.16845 0.0
C517 C 0.22582 0.45804 0.20426 0.0
C518 C 0.18601 0.42655 0.12323 0.0
C519 C 0.20648 0.42537 0.11729 0.0
H520 H 0.82344 0.24397 0.11068 0.0
H521 H 0.79875 0.28209 0.24188 0.0
H522 H 0.76108 0.24647 0.26009 0.0
H523 H 0.73455 0.20468 0.23418 0.0
H524 H 0.7588 0.16662 0.10095 0.0
H525 H 0.79722 0.20183 0.08786 0.0
C526 C 0.80974 0.24436 0.14313 0.0
C527 C 0.81374 0.26548 0.17499 0.0
C528 C 0.7881 0.22383 0.15299 0.0
C529 C 0.79602 0.26591 0.21738 0.0
C530 C 0.7745 0.24559 0.22762 0.0
C531 C 0.74843 0.20413 0.2033 0.0
C532 C 0.74408 0.18326 0.16872 0.0
C533 C 0.77029 0.22448 0.19536 0.0
C534 C 0.76194 0.18262 0.12801 0.0
C535 C 0.78382 0.20272 0.12037 0.0
H536 H 0.5311 0.73196 0.2007 0.0
H537 H 0.59329 0.76141 0.06417 0.0
H538 H 0.59572 0.79966 0.06736 0.0
H539 H 0.57972 0.82462 0.10857 0.0
H540 H 0.51782 0.7949 0.24683 0.0
H541 H 0.51581 0.75696 0.24458 0.0
C542 C 0.54526 0.74685 0.17223 0.0
C543 C 0.56189 0.74398 0.1318 0.0
C544 C 0.54659 0.7687 0.17486 0.0
C545 C 0.58014 0.76326 0.09479 0.0
C546 C 0.58156 0.78509 0.09685 0.0
C547 C 0.56582 0.80977 0.13798 0.0
C548 C 0.54897 0.81244 0.1779 0.0
C549 C 0.56479 0.78799 0.13638 0.0
C550 C 0.5311 0.79322 0.21637 0.0
C551 C 0.52989 0.77154 0.21482 0.0
H552 H 0.74622 0.55691 0.04216 0.0
H553 H 0.7442 0.55605 0.28607 0.0
H554 H 0.78308 0.56215 0.28956 0.0
H555 H 0.81718 0.56575 0.22389 0.0
H556 H 0.80953 0.54578 0.98907 0.0
H557 H 0.77517 0.5497 0.98075 0.0
C558 C 0.75331 0.55693 0.09674 0.0
C559 C 0.74151 0.55665 0.16357 0.0
C560 C 0.77453 0.55688 0.09946 0.0
C561 C 0.75263 0.55786 0.23274 0.0
C562 C 0.77499 0.56073 0.2352 0.0
C563 C 0.80775 0.56111 0.17128 0.0
C564 C 0.81684 0.55581 0.10717 0.0
C565 C 0.78598 0.55994 0.16886 0.0
C566 C 0.80429 0.55123 0.03906 0.0
C567 C 0.78406 0.55288 0.03444 0.0
H568 H 0.18047 0.75753 0.23041 0.0
H569 H 0.20704 0.72121 0.09856 0.0
H570 H 0.24531 0.75673 0.09083 0.0
H571 H 0.27133 0.79807 0.1228 0.0
H572 H 0.24473 0.83489 0.25191 0.0
H573 H 0.20642 0.79935 0.26006 0.0
C574 C 0.19475 0.75751 0.20036 0.0
C575 C 0.19115 0.73696 0.16523 0.0
C576 C 0.21662 0.77805 0.19567 0.0
C577 C 0.20956 0.73697 0.12583 0.0
C578 C 0.23138 0.75722 0.12143 0.0
C579 C 0.25703 0.7983 0.15195 0.0
C580 C 0.26072 0.81894 0.18678 0.0
C581 C 0.23511 0.77787 0.15602 0.0
C582 C 0.24222 0.81907 0.22515 0.0
C583 C 0.22036 0.7988 0.22973 0.0
H584 H 0.42552 0.18074 0.23553 0.0
H585 H 0.48292 0.20724 0.0786 0.0
H586 H 0.48542 0.24548 0.07893 0.0
H587 H 0.47266 0.27195 0.12969 0.0
H588 H 0.41558 0.24567 0.28793 0.0
H589 H 0.41173 0.20686 0.28258 0.0
C590 C 0.43845 0.19492 0.20116 0.0
C591 C 0.45398 0.19131 0.15696 0.0
C592 C 0.43998 0.2169 0.20268 0.0
C593 C 0.47065 0.20966 0.11242 0.0
C594 C 0.47218 0.23152 0.11304 0.0
C595 C 0.45921 0.25761 0.16221 0.0
C596 C 0.44445 0.26156 0.20929 0.0
C597 C 0.45713 0.23542 0.15867 0.0
C598 C 0.42726 0.243 0.25188 0.0
C599 C 0.42502 0.22084 0.2486 0.0
H600 H 0.12137 0.47349 0.50735 0.0
H601 H 0.0941 0.39925 0.52701 0.0
H602 H 0.09647 0.40263 0.66475 0.0
H603 H 0.10718 0.42709 0.77975 0.0
H604 H 0.13278 0.50106 0.75692 0.0
H605 H 0.13033 0.49731 0.62058 0.0
C606 C 0.11601 0.45802 0.54161 0.0
C607 C 0.10773 0.43618 0.50677 0.0
C608 C 0.11707 0.46002 0.62049 0.0
C609 C 0.10059 0.4163 0.55231 0.0
C610 C 0.10193 0.41822 0.63113 0.0
C611 C 0.11168 0.44228 0.74526 0.0
C612 C 0.11991 0.4643 0.77926 0.0
C613 C 0.11011 0.44002 0.666 0.0
C614 C 0.12642 0.48389 0.73275 0.0
C615 C 0.12503 0.4818 0.6545 0.0
H616 H 0.69537 0.10459 0.53401 0.0
H617 H 0.63523 0.11038 0.47385 0.0
H618 H 0.62838 0.115 0.60552 0.0
H619 H 0.63985 0.11863 0.73693 0.0
H620 H 0.70125 0.11583 0.80003 0.0
H621 H 0.70709 0.10846 0.66851 0.0
C622 C 0.68073 0.10671 0.55009 0.0
C623 C 0.66592 0.10725 0.49438 0.0
C624 C 0.67704 0.10978 0.62634 0.0
C625 C 0.64705 0.11015 0.51564 0.0
C626 C 0.64304 0.11273 0.59094 0.0
C627 C 0.65446 0.1163 0.72186 0.0
C628 C 0.66972 0.11711 0.7779 0.0
C629 C 0.65802 0.1128 0.64651 0.0
C630 C 0.68874 0.11434 0.75796 0.0
C631 C 0.69224 0.11044 0.68272 0.0
H632 H 0.54628 0.67785 0.44546 0.0
H633 H 0.57021 0.62816 0.46498 0.0
H634 H 0.56908 0.63012 0.60225 0.0
H635 H 0.55865 0.64388 0.71726 0.0
H636 H 0.53375 0.69271 0.69695 0.0
H637 H 0.53792 0.69316 0.56008 0.0
C638 C 0.55141 0.66757 0.47965 0.0
C639 C 0.55817 0.65277 0.44462 0.0
C640 C 0.55051 0.66859 0.55878 0.0
C641 C 0.56481 0.63963 0.49014 0.0
C642 C 0.56417 0.64073 0.56885 0.0
C643 C 0.55472 0.65507 0.68303 0.0
C644 C 0.54615 0.66845 0.7174 0.0
C645 C 0.55675 0.65491 0.6039 0.0
C646 C 0.54043 0.68228 0.67187 0.0
C647 C 0.54277 0.68252 0.59354 0.0
H648 H 0.93149 0.56605 0.48532 0.0
H649 H 0.86061 0.54699 0.42933 0.0
H650 H 0.85033 0.54242 0.56254 0.0
H651 H 0.86061 0.54087 0.69407 0.0
H652 H 0.93103 0.55902 0.75071 0.0
H653 H 0.94245 0.56718 0.61814 0.0
C654 C 0.91386 0.56114 0.5023 0.0
C655 C 0.8968 0.55659 0.4475 0.0
C656 C 0.90797 0.55834 0.57904 0.0
C657 C 0.87407 0.55041 0.47038 0.0
C658 C 0.86812 0.54774 0.54654 0.0
C659 C 0.87849 0.54684 0.67722 0.0
C660 C 0.89501 0.54958 0.73159 0.0
C661 C 0.8848 0.55118 0.60113 0.0
C662 C 0.91815 0.55729 0.70972 0.0
C663 C 0.92462 0.56174 0.63395 0.0
H664 H 0.32349 0.85767 0.75032 0.0
H665 H 0.35926 0.92993 0.81852 0.0
H666 H 0.36003 0.94215 0.68814 0.0
H667 H 0.35363 0.93232 0.55317 0.0
H668 H 0.319 0.85983 0.48607 0.0
H669 H 0.31465 0.84775 0.61724 0.0
C670 C 0.33121 0.87608 0.73657 0.0
C671 C 0.34102 0.89283 0.79379 0.0
C672 C 0.33199 0.88297 0.66151 0.0
C673 C 0.35102 0.91664 0.77566 0.0
C674 C 0.35172 0.92366 0.70094 0.0
C675 C 0.34488 0.91389 0.56734 0.0
C676 C 0.33692 0.89706 0.5098 0.0
C677 C 0.34265 0.90698 0.6432 0.0
C678 C 0.32552 0.87321 0.52911 0.0
C679 C 0.32302 0.86623 0.6042 0.0
H680 H 0.42274 0.34916 0.58872 0.0
H681 H 0.46463 0.31777 0.53506 0.0
H682 H 0.47153 0.31521 0.66874 0.0
H683 H 0.46865 0.32505 0.7994 0.0
H684 H 0.42879 0.35849 0.85361 0.0
H685 H 0.41773 0.35667 0.72137 0.0
C686 C 0.43309 0.34145 0.60638 0.0
C687 C 0.44337 0.33391 0.55213 0.0
C688 C 0.43737 0.34042 0.68337 0.0
C689 C 0.45674 0.32396 0.57576 0.0
C690 C 0.46071 0.32248 0.65215 0.0
C691 C 0.45733 0.33172 0.78231 0.0
C692 C 0.44937 0.34167 0.83616 0.0
C693 C 0.4516 0.33119 0.70618 0.0
C694 C 0.4347 0.35022 0.81356 0.0
C695 C 0.42859 0.34944 0.73775 0.0
H696 H 0.57189 0.89414 0.58451 0.0
H697 H 0.49735 0.86373 0.6078 0.0
H698 H 0.50126 0.86782 0.74427 0.0
H699 H 0.52551 0.87947 0.85736 0.0
H700 H 0.60019 0.91053 0.83663 0.0
H701 H 0.59658 0.90701 0.69924 0.0
C702 C 0.55659 0.8889 0.61935 0.0
C703 C 0.53438 0.87896 0.58564 0.0
C704 C 0.55895 0.89128 0.69846 0.0
C705 C 0.51466 0.87149 0.63207 0.0
C706 C 0.51686 0.87382 0.71026 0.0
C707 C 0.54105 0.88549 0.82298 0.0
C708 C 0.56308 0.89519 0.85759 0.0
C709 C 0.53887 0.88355 0.74412 0.0
C710 C 0.58298 0.90297 0.81172 0.0
C711 C 0.58094 0.90097 0.73302 0.0
H712 H 0.64026 0.54576 0.82833 0.0
H713 H 0.71464 0.57513 0.85015 0.0
H714 H 0.71837 0.57355 0.7133 0.0
H715 H 0.7002 0.56222 0.58767 0.0
H716 H 0.62636 0.53551 0.56414 0.0
H717 H 0.62261 0.53788 0.70106 0.0
C718 C 0.65726 0.55186 0.80286 0.0
C719 C 0.67713 0.56033 0.84907 0.0
C720 C 0.65934 0.55149 0.72392 0.0
C721 C 0.69912 0.56855 0.8156 0.0
C722 C 0.70125 0.56761 0.73743 0.0
C723 C 0.68338 0.55725 0.6127 0.0
C724 C 0.66359 0.54883 0.56635 0.0
C725 C 0.68147 0.55894 0.69111 0.0
C726 C 0.64185 0.54236 0.59891 0.0
C727 C 0.6397 0.54353 0.67713 0.0
H728 H 0.14828 0.6773 0.60232 0.0
H729 H 0.07615 0.6466 0.53647 0.0
H730 H 0.06487 0.6467 0.66757 0.0
H731 H 0.0752 0.65192 0.80244 0.0
H732 H 0.14741 0.68095 0.86686 0.0
H733 H 0.15892 0.68508 0.73507 0.0
C734 C 0.13013 0.67091 0.61668 0.0
C735 C 0.11314 0.66221 0.55993 0.0
C736 C 0.12374 0.67047 0.6921 0.0
C737 C 0.08967 0.65395 0.57893 0.0
C738 C 0.08316 0.65373 0.65406 0.0
C739 C 0.09347 0.65942 0.78754 0.0
C740 C 0.11036 0.66584 0.84441 0.0
C741 C 0.1 0.66146 0.71133 0.0
C742 C 0.13399 0.6756 0.82426 0.0
C743 C 0.14063 0.678 0.74885 0.0
H744 H 0.48405 0.11955 0.60261 0.0
H745 H 0.42419 0.12578 0.54461 0.0
H746 H 0.41053 0.11754 0.67554 0.0
H747 H 0.41698 0.11057 0.80859 0.0
H748 H 0.47881 0.10741 0.86475 0.0
H749 H 0.4904 0.11259 0.73285 0.0
C750 C 0.46794 0.11898 0.61864 0.0
C751 C 0.4548 0.12259 0.56395 0.0
C752 C 0.46066 0.11496 0.69392 0.0
C753 C 0.43409 0.12207 0.58526 0.0
C754 C 0.42647 0.11769 0.66031 0.0
C755 C 0.43284 0.1108 0.79157 0.0
C756 C 0.44704 0.10868 0.84626 0.0
C757 C 0.43971 0.11426 0.71534 0.0
C758 C 0.46767 0.1092 0.82377 0.0
C759 C 0.47433 0.11213 0.74835 0.0
H760 H 0.36547 0.45937 0.85225 0.0
H761 H 0.29059 0.42661 0.86713 0.0
H762 H 0.28803 0.42874 0.72982 0.0
H763 H 0.30746 0.44203 0.60587 0.0
H764 H 0.38197 0.47217 0.58993 0.0
H765 H 0.38445 0.46872 0.72699 0.0
C766 C 0.34862 0.45262 0.82516 0.0
C767 C 0.32825 0.4431 0.86946 0.0
C768 C 0.34727 0.45334 0.7461 0.0
C769 C 0.30647 0.43404 0.83397 0.0
C770 C 0.30502 0.43529 0.75558 0.0
C771 C 0.32413 0.44738 0.63262 0.0
C772 C 0.34452 0.45722 0.58863 0.0
C773 C 0.32531 0.44512 0.71114 0.0
C774 C 0.36609 0.46432 0.62316 0.0
C775 C 0.36749 0.46251 0.70138 0.0
H776 H 0.92669 0.34787 0.77644 0.0
H777 H 0.85358 0.31907 0.82858 0.0
H778 H 0.84487 0.31895 0.69504 0.0
H779 H 0.85841 0.33029 0.56518 0.0
H780 H 0.9315 0.36012 0.51263 0.0
H781 H 0.9398 0.3563 0.64455 0.0
C782 C 0.90881 0.34127 0.75855 0.0
C783 C 0.89087 0.33379 0.81253 0.0
C784 C 0.90393 0.34152 0.68166 0.0
C785 C 0.86776 0.32515 0.78831 0.0
C786 C 0.86275 0.32511 0.71195 0.0
C787 C 0.87613 0.33575 0.58261 0.0
C788 C 0.8943 0.34535 0.52945 0.0
C789 C 0.88077 0.33382 0.65847 0.0
C790 C 0.91715 0.35226 0.55233 0.0
C791 C 0.92193 0.35029 0.62787 0.0
H792 H 0.03981 0.40814 0.05937 0.0
H793 H 0.04305 0.40616 0.30241 0.0
H794 H 1.00069 0.38344 0.30923 0.0
H795 H 0.9626 0.36718 0.24759 0.0
H796 H 0.9591 0.36908 0.00477 0.0
H797 H 1.00152 0.38843 0.99686 0.0
C798 C 0.0313 0.4025 0.11379 0.0
C799 C 0.04472 0.4092 0.1802 0.0
C800 C 0.00678 0.38948 0.11761 0.0
C801 C 0.03327 0.40151 0.25019 0.0
C802 C 0.00897 0.3885 0.25433 0.0
C803 C 0.97107 0.37157 0.19284 0.0
C804 C 0.9576 0.36688 0.12703 0.0
C805 C 0.99553 0.38289 0.18857 0.0
C806 C 0.96894 0.37251 0.05653 0.0
C807 C 0.99327 0.38369 0.05186 0.0
H808 H 0.59382 0.96197 0.08187 0.0
H809 H 0.5925 0.95679 0.3248 0.0
H810 H 0.61613 0.9992 0.33446 0.0
H811 H 0.63412 0.03788 0.27443 0.0
H812 H 0.63433 0.04285 0.03158 0.0
H813 H 0.61443 1.00046 0.02174 0.0
C814 C 0.59891 0.97003 0.13704 0.0
C815 C 0.59107 0.9561 0.20252 0.0
C816 C 0.61222 0.99448 0.14231 0.0
C817 C 0.59802 0.96699 0.27338 0.0
C818 C 0.61154 0.9913 0.27901 0.0
C819 C 0.63009 0.02975 0.21924 0.0
C820 C 0.6356 0.04368 0.15387 0.0
C821 C 0.61826 0.00525 0.2139 0.0
C822 C 0.63026 0.03271 0.08293 0.0
C823 C 0.61879 0.00839 0.07718 0.0
H824 H 0.63085 0.59038 0.0479 0.0
H825 H 0.63694 0.59645 0.29046 0.0
H826 H 0.61873 0.62059 0.29021 0.0
H827 H 0.59824 0.63723 0.22307 0.0
H828 H 0.59104 0.63062 0.98097 0.0
H829 H 0.61283 0.60974 0.9793 0.0
C830 C 0.62844 0.59718 0.10069 0.0
C831 C 0.63509 0.59134 0.16917 0.0
C832 C 0.61767 0.6109 0.10037 0.0
C833 C 0.6319 0.60046 0.2369 0.0
C834 C 0.62143 0.61428 0.2369 0.0
C835 C 0.60159 0.63145 0.16968 0.0
C836 C 0.59273 0.63529 0.10234 0.0
C837 C 0.6138 0.61917 0.16921 0.0
C838 C 0.59753 0.62784 0.03376 0.0
C839 C 0.60992 0.61581 0.03277 0.0
H840 H 0.04224 0.63704 0.05944 0.0
H841 H 0.04419 0.63067 0.30133 0.0
H842 H 1.00172 0.6115 0.30674 0.0
H843 H 0.96386 0.59312 0.24155 0.0
H844 H 0.96218 0.59875 -0.00071 0.0
H845 H 0.00461 0.62172 0.99567 0.0
C846 C 0.03345 0.63173 0.11355 0.0
C847 C 0.04649 0.63512 0.17973 0.0
C848 C 0.00897 0.62038 0.11623 0.0
C849 C 0.03469 0.62823 0.24933 0.0
C850 C 0.01034 0.61717 0.25251 0.0
C851 C 0.97273 0.59966 0.18804 0.0
C852 C 0.95975 0.5939 0.12071 0.0
C853 C 0.99727 0.61264 0.18612 0.0
C854 C 0.97164 0.60262 0.05196 0.0
C855 C 0.99596 0.61578 0.04976 0.0
H856 H 0.37319 0.96734 0.28645 0.0
H857 H 0.36494 0.95898 0.04507 0.0
H858 H 0.38447 1.00115 0.02887 0.0
H859 H 0.40697 0.04046 0.08186 0.0
H860 H 0.41649 0.04909 0.32288 0.0
H861 H 0.39322 0.00691 0.34033 0.0
C862 C 0.37536 0.9747 0.23035 0.0
C863 C 0.36774 0.95988 0.16704 0.0
C864 C 0.38701 0.99911 0.2212 0.0
C865 C 0.37074 0.96985 0.09484 0.0
C866 C 0.38197 0.99404 0.08542 0.0
C867 C 0.40375 0.03319 0.13836 0.0
C868 C 0.4137 0.04804 0.20083 0.0
C869 C 0.39066 0.00885 0.14803 0.0
C870 C 0.40918 0.03818 0.2736 0.0
C871 C 0.3959 0.01399 0.2837 0.0
H872 H 0.37146 0.41065 0.30784 0.0
H873 H 0.3684 0.41172 0.06465 0.0
H874 H 0.38737 0.38834 0.05637 0.0
H875 H 0.40802 0.37063 0.11736 0.0
H876 H 0.41162 0.37001 0.36044 0.0
H877 H 0.38908 0.38988 0.36914 0.0
C878 C 0.37465 0.40554 0.25302 0.0
C879 C 0.36873 0.41325 0.18707 0.0
C880 C 0.38584 0.39225 0.24842 0.0
C881 C 0.37291 0.40626 0.11652 0.0
C882 C 0.38383 0.39289 0.11159 0.0
C883 C 0.40367 0.37458 0.17232 0.0
C884 C 0.41179 0.36901 0.23803 0.0
C885 C 0.39088 0.38628 0.17708 0.0
C886 C 0.40576 0.37415 0.30875 0.0
C887 C 0.3929 0.38561 0.31389 0.0
loop_
_geom_bond_atom_site_label_1
_geom_bond_atom_site_label_2
_geom_bond_distance
_geom_bond_site_symmetry_2
_ccdc_geom_bond_type
Co0 O3 1.970 . S
Co0 N17 1.989 . S
Co0 O25 1.967 . S
Co0 O32 1.920 . S
Co1 O4 1.966 . S
Co1 N10 2.022 1_554 S
Co1 N18 1.993 . S
Co1 O26 1.941 . S
C2 O3 1.258 . S
C2 O4 1.263 . S
O3 Co0 1.970 . S
O3 C2 1.258 . S
O4 Co1 1.966 . S
O4 C2 1.263 . S
C5 O6 1.235 . S
C5 O32 1.289 . S
O6 C5 1.235 . S
C7 C9 1.400 . S
C7 N10 1.351 . S
C7 C12 1.501 . S
C8 C9 1.387 . S
C8 N11 1.341 . S
C9 C7 1.400 . S
C9 C8 1.387 . S
N10 Co1 2.022 1_556 S
N10 C7 1.351 . S
N10 N11 1.365 . S
N11 C8 1.341 . S
N11 N10 1.365 . S
N11 H31 0.862 . S
C12 C7 1.501 . S
C12 H13 0.961 . S
C12 H14 0.961 . S
C12 H15 0.960 . S
H13 C12 0.961 . S
H14 C12 0.961 . S
H15 C12 0.960 . S
C16 N17 1.342 . S
C16 C20 1.401 . S
C16 C21 1.499 . S
N17 Co0 1.989 . S
N17 C16 1.342 . S
N17 N18 1.388 . S
N18 Co1 1.993 . S
N18 N17 1.388 . S
N18 C19 1.346 . S
C19 N18 1.346 . S
C19 C20 1.396 . S
C19 C29 1.510 . S
C20 C16 1.401 . S
C20 C19 1.396 . S
C21 C16 1.499 . S
C21 H22 0.959 . S
C21 H23 0.960 . S
C21 H24 0.961 . S
H22 C21 0.959 . S
H23 C21 0.960 . S
H24 C21 0.961 . S
O25 Co0 1.967 . S
O25 C33 1.258 . S
O26 Co1 1.941 . S
O26 C33 1.266 . S
H27 C29 0.959 1_556 S
H28 C29 0.959 1_556 S
C29 C19 1.510 . S
C29 H27 0.959 1_554 S
C29 H28 0.959 1_554 S
C29 H30 0.960 1_554 S
H30 C29 0.960 1_556 S
H31 N11 0.862 . S
O32 Co0 1.920 . S
O32 C5 1.289 . S
C33 O25 1.258 . S
C33 O26 1.266 . S
Co34 O37 1.970 . S
Co34 N51 1.989 . S
Co34 O59 1.967 . S
Co34 O66 1.920 . S
Co35 O38 1.966 . S
Co35 N44 2.022 1_554 S
Co35 N52 1.993 . S
Co35 O60 1.941 . S
C36 O37 1.258 . S
C36 O38 1.263 . S
O37 Co34 1.970 . S
O37 C36 1.258 . S
O38 Co35 1.966 . S
O38 C36 1.263 . S
C39 O40 1.235 . S
C39 O66 1.289 . S
O40 C39 1.235 . S
C41 C43 1.400 . S
C41 N44 1.351 . S
C41 C46 1.501 . S
C42 C43 1.387 . S
C42 N45 1.341 . S
C43 C41 1.400 . S
C43 C42 1.387 . S
N44 Co35 2.022 1_556 S
N44 C41 1.351 . S
N44 N45 1.365 . S
N45 C42 1.341 . S
N45 N44 1.365 . S
N45 H65 0.862 . S
C46 C41 1.501 . S
C46 H47 0.961 . S
C46 H48 0.961 . S
C46 H49 0.960 . S
H47 C46 0.961 . S
H48 C46 0.961 . S
H49 C46 0.960 . S
C50 N51 1.342 . S
C50 C54 1.401 . S
C50 C55 1.499 . S
N51 Co34 1.989 . S
N51 C50 1.342 . S
N51 N52 1.388 . S
N52 Co35 1.993 . S
N52 N51 1.388 . S
N52 C53 1.346 . S
C53 N52 1.346 . S
C53 C54 1.396 . S
C53 C63 1.510 . S
C54 C50 1.401 . S
C54 C53 1.396 . S
C55 C50 1.499 . S
C55 H56 0.959 . S
C55 H57 0.960 . S
C55 H58 0.961 . S
H56 C55 0.959 . S
H57 C55 0.960 . S
H58 C55 0.961 . S
O59 Co34 1.967 . S
O59 C67 1.258 . S
O60 Co35 1.941 . S
O60 C67 1.266 . S
H61 C63 0.959 1_556 S
H62 C63 0.959 1_556 S
C63 C53 1.510 . S
C63 H61 0.959 1_554 S
C63 H62 0.959 1_554 S
C63 H64 0.960 1_554 S
H64 C63 0.960 1_556 S
H65 N45 0.862 . S
O66 Co34 1.920 . S
O66 C39 1.289 . S
C67 O59 1.258 . S
C67 O60 1.266 . S
Co68 O71 1.970 . S
Co68 N85 1.989 . S
Co68 O93 1.967 . S
Co68 O100 1.920 . S
Co69 O72 1.966 . S
Co69 N78 2.022 1_554 S
Co69 N86 1.993 . S
Co69 O94 1.941 . S
C70 O71 1.258 . S
C70 O72 1.263 . S
O71 Co68 1.970 . S
O71 C70 1.258 . S
O72 Co69 1.966 . S
O72 C70 1.263 . S
C73 O74 1.235 . S
C73 O100 1.289 . S
O74 C73 1.235 . S
C75 C77 1.400 . S
C75 N78 1.351 . S
C75 C80 1.501 . S
C76 C77 1.387 . S
C76 N79 1.341 . S
C77 C75 1.400 . S
C77 C76 1.387 . S
N78 Co69 2.022 1_556 S
N78 C75 1.351 . S
N78 N79 1.365 . S
N79 C76 1.341 . S
N79 N78 1.365 . S
N79 H99 0.862 . S
C80 C75 1.501 . S
C80 H81 0.961 . S
C80 H82 0.961 . S
C80 H83 0.960 . S
H81 C80 0.961 . S
H82 C80 0.961 . S
H83 C80 0.960 . S
C84 N85 1.342 . S
C84 C88 1.401 . S
C84 C89 1.499 . S
N85 Co68 1.989 . S
N85 C84 1.342 . S
N85 N86 1.388 . S
N86 Co69 1.993 . S
N86 N85 1.388 . S
N86 C87 1.346 . S
C87 N86 1.346 . S
C87 C88 1.396 . S
C87 C97 1.510 . S
C88 C84 1.401 . S
C88 C87 1.396 . S
C89 C84 1.499 . S
C89 H90 0.959 . S
C89 H91 0.960 . S
C89 H92 0.961 . S
H90 C89 0.959 . S
H91 C89 0.960 . S
H92 C89 0.961 . S
O93 Co68 1.967 . S
O93 C101 1.258 . S
O94 Co69 1.941 . S
O94 C101 1.266 . S
H95 C97 0.959 1_556 S
H96 C97 0.959 1_556 S
C97 C87 1.510 . S
C97 H95 0.959 1_554 S
C97 H96 0.959 1_554 S
C97 H98 0.960 1_554 S
H98 C97 0.960 1_556 S
H99 N79 0.862 . S
O100 Co68 1.920 . S
O100 C73 1.289 . S
C101 O93 1.258 . S
C101 O94 1.266 . S
Co102 O105 1.970 . S
Co102 N119 1.989 . S
Co102 O127 1.967 . S
Co102 O134 1.920 . S
Co103 O106 1.966 . S
Co103 N112 2.022 1_554 S
Co103 N120 1.993 . S
Co103 O128 1.941 . S
C104 O105 1.258 . S
C104 O106 1.263 . S
O105 Co102 1.970 . S
O105 C104 1.258 . S
O106 Co103 1.966 . S
O106 C104 1.263 . S
C107 O108 1.235 . S
C107 O134 1.289 . S
O108 C107 1.235 . S
C109 C111 1.400 . S
C109 N112 1.351 . S
C109 C114 1.501 . S
C110 C111 1.387 . S
C110 N113 1.341 . S
C111 C109 1.400 . S
C111 C110 1.387 . S
N112 Co103 2.022 1_556 S
N112 C109 1.351 . S
N112 N113 1.365 . S
N113 C110 1.341 . S
N113 N112 1.365 . S
N113 H133 0.862 . S
C114 C109 1.501 . S
C114 H115 0.961 . S
C114 H116 0.961 . S
C114 H117 0.960 . S
H115 C114 0.961 . S
H116 C114 0.961 . S
H117 C114 0.960 . S
C118 N119 1.342 . S
C118 C122 1.401 . S
C118 C123 1.499 . S
N119 Co102 1.989 . S
N119 C118 1.342 . S
N119 N120 1.388 . S
N120 Co103 1.993 . S
N120 N119 1.388 . S
N120 C121 1.346 . S
C121 N120 1.346 . S
C121 C122 1.396 . S
C121 C131 1.510 . S
C122 C118 1.401 . S
C122 C121 1.396 . S
C123 C118 1.499 . S
C123 H124 0.959 . S
C123 H125 0.960 . S
C123 H126 0.961 . S
H124 C123 0.959 . S
H125 C123 0.960 . S
H126 C123 0.961 . S
O127 Co102 1.967 . S
O127 C135 1.258 . S
O128 Co103 1.941 . S
O128 C135 1.266 . S
H129 C131 0.959 1_556 S
H130 C131 0.959 1_556 S
C131 C121 1.510 . S
C131 H129 0.959 1_554 S
C131 H130 0.959 1_554 S
C131 H132 0.960 1_554 S
H132 C131 0.960 1_556 S
H133 N113 0.862 . S
O134 Co102 1.920 . S
O134 C107 1.289 . S
C135 O127 1.258 . S
C135 O128 1.266 . S
Co136 O139 1.970 . S
Co136 N153 1.989 . S
Co136 O161 1.967 . S
Co136 O168 1.920 . S
Co137 O140 1.966 . S
Co137 N146 2.022 1_554 S
Co137 N154 1.993 . S
Co137 O162 1.941 . S
C138 O139 1.258 . S
C138 O140 1.263 . S
O139 Co136 1.970 . S
O139 C138 1.258 . S
O140 Co137 1.966 . S
O140 C138 1.263 . S
C141 O142 1.235 . S
C141 O168 1.289 . S
O142 C141 1.235 . S
C143 C145 1.400 . S
C143 N146 1.351 . S
C143 C148 1.501 . S
C144 C145 1.387 . S
C144 N147 1.341 . S
C145 C143 1.400 . S
C145 C144 1.387 . S
N146 Co137 2.022 1_556 S
N146 C143 1.351 . S
N146 N147 1.365 . S
N147 C144 1.341 . S
N147 N146 1.365 . S
N147 H167 0.862 . S
C148 C143 1.501 . S
C148 H149 0.961 . S
C148 H150 0.961 . S
C148 H151 0.960 . S
H149 C148 0.961 . S
H150 C148 0.961 . S
H151 C148 0.960 . S
C152 N153 1.342 . S
C152 C156 1.401 . S
C152 C157 1.499 . S
N153 Co136 1.989 . S
N153 C152 1.342 . S
N153 N154 1.388 . S
N154 Co137 1.993 . S
N154 N153 1.388 . S
N154 C155 1.346 . S
C155 N154 1.346 . S
C155 C156 1.396 . S
C155 C165 1.510 . S
C156 C152 1.401 . S
C156 C155 1.396 . S
C157 C152 1.499 . S
C157 H158 0.959 . S
C157 H159 0.960 . S
C157 H160 0.961 . S
H158 C157 0.959 . S
H159 C157 0.960 . S
H160 C157 0.961 . S
O161 Co136 1.967 . S
O161 C169 1.258 . S
O162 Co137 1.941 . S
O162 C169 1.266 . S
H163 C165 0.959 1_556 S
H164 C165 0.959 1_556 S
C165 C155 1.510 . S
C165 H163 0.959 1_554 S
C165 H164 0.959 1_554 S
C165 H166 0.960 1_554 S
H166 C165 0.960 1_556 S
H167 N147 0.862 . S
O168 Co136 1.920 . S
O168 C141 1.289 . S
C169 O161 1.258 . S
C169 O162 1.266 . S
Co170 O173 1.970 . S
Co170 N187 1.989 . S
Co170 O195 1.967 . S
Co170 O202 1.920 . S
Co171 O174 1.966 . S
Co171 N180 2.022 1_554 S
Co171 N188 1.993 . S
Co171 O196 1.941 . S
C172 O173 1.258 . S
C172 O174 1.263 . S
O173 Co170 1.970 . S
O173 C172 1.258 . S
O174 Co171 1.966 . S
O174 C172 1.263 . S
C175 O176 1.235 . S
C175 O202 1.289 . S
O176 C175 1.235 . S
C177 C179 1.400 . S
C177 N180 1.351 . S
C177 C182 1.501 . S
C178 C179 1.387 . S
C178 N181 1.341 . S
C179 C177 1.400 . S
C179 C178 1.387 . S
N180 Co171 2.022 1_556 S
N180 C177 1.351 . S
N180 N181 1.365 . S
N181 C178 1.341 . S
N181 N180 1.365 . S
N181 H201 0.862 . S
C182 C177 1.501 . S
C182 H183 0.961 . S
C182 H184 0.961 . S
C182 H185 0.960 . S
H183 C182 0.961 . S
H184 C182 0.961 . S
H185 C182 0.960 . S
C186 N187 1.342 . S
C186 C190 1.401 . S
C186 C191 1.499 . S
N187 Co170 1.989 . S
N187 C186 1.342 . S
N187 N188 1.388 . S
N188 Co171 1.993 . S
N188 N187 1.388 . S
N188 C189 1.346 . S
C189 N188 1.346 . S
C189 C190 1.396 . S
C189 C199 1.510 . S
C190 C186 1.401 . S
C190 C189 1.396 . S
C191 C186 1.499 . S
C191 H192 0.959 . S
C191 H193 0.960 . S
C191 H194 0.961 . S
H192 C191 0.959 . S
H193 C191 0.960 . S
H194 C191 0.961 . S
O195 Co170 1.967 . S
O195 C203 1.258 . S
O196 Co171 1.941 . S
O196 C203 1.266 . S
H197 C199 0.959 1_556 S
H198 C199 0.959 1_556 S
C199 C189 1.510 . S
C199 H197 0.959 1_554 S
C199 H198 0.959 1_554 S
C199 H200 0.960 1_554 S
H200 C199 0.960 1_556 S
H201 N181 0.862 . S
O202 Co170 1.920 . S
O202 C175 1.289 . S
C203 O195 1.258 . S
C203 O196 1.266 . S
Co204 O207 1.970 . S
Co204 N221 1.989 . S
Co204 O229 1.967 . S
Co204 O236 1.920 1_554 S
Co205 O208 1.966 . S
Co205 N214 2.022 . S
Co205 N222 1.993 . S
Co205 O230 1.941 . S
C206 O207 1.258 . S
C206 O208 1.263 . S
O207 Co204 1.970 . S
O207 C206 1.258 . S
O208 Co205 1.966 . S
O208 C206 1.263 . S
C209 O210 1.235 . S
C209 O236 1.289 . S
O210 C209 1.235 . S
C211 C213 1.400 . S
C211 N214 1.351 . S
C211 C216 1.501 . S
C212 C213 1.387 . S
C212 N215 1.341 . S
C213 C211 1.400 . S
C213 C212 1.387 . S
N214 Co205 2.022 . S
N214 C211 1.351 . S
N214 N215 1.365 . S
N215 C212 1.341 . S
N215 N214 1.365 . S
N215 H235 0.862 . S
C216 C211 1.501 . S
C216 H217 0.961 . S
C216 H218 0.961 . S
C216 H219 0.960 . S
H217 C216 0.961 . S
H218 C216 0.961 . S
H219 C216 0.960 . S
C220 N221 1.342 . S
C220 C224 1.401 . S
C220 C225 1.499 . S
N221 Co204 1.989 . S
N221 C220 1.342 . S
N221 N222 1.388 . S
N222 Co205 1.993 . S
N222 N221 1.388 . S
N222 C223 1.346 . S
C223 N222 1.346 . S
C223 C224 1.396 . S
C223 C233 1.510 . S
C224 C220 1.401 . S
C224 C223 1.396 . S
C225 C220 1.499 . S
C225 H226 0.959 . S
C225 H227 0.960 . S
C225 H228 0.961 . S
H226 C225 0.959 . S
H227 C225 0.960 . S
H228 C225 0.961 . S
O229 Co204 1.967 . S
O229 C237 1.258 . S
O230 Co205 1.941 . S
O230 C237 1.266 . S
H231 C233 0.959 . S
H232 C233 0.961 . S
C233 C223 1.510 . S
C233 H231 0.959 . S
C233 H232 0.961 . S
C233 H234 0.960 . S
H234 C233 0.960 . S
H235 N215 0.862 . S
O236 Co204 1.920 1_556 S
O236 C209 1.289 . S
C237 O229 1.258 . S
C237 O230 1.266 . S
Co238 O241 1.970 . S
Co238 N255 1.989 . S
Co238 O263 1.967 . S
Co238 O270 1.920 1_554 S
Co239 O242 1.966 . S
Co239 N248 2.022 . S
Co239 N256 1.993 . S
Co239 O264 1.941 . S
C240 O241 1.258 . S
C240 O242 1.263 . S
O241 Co238 1.970 . S
O241 C240 1.258 . S
O242 Co239 1.966 . S
O242 C240 1.263 . S
C243 O244 1.235 . S
C243 O270 1.289 . S
O244 C243 1.235 . S
C245 C247 1.400 . S
C245 N248 1.351 . S
C245 C250 1.501 . S
C246 C247 1.387 . S
C246 N249 1.341 . S
C247 C245 1.400 . S
C247 C246 1.387 . S
N248 Co239 2.022 . S
N248 C245 1.351 . S
N248 N249 1.365 . S
N249 C246 1.341 . S
N249 N248 1.365 . S
N249 H269 0.862 . S
C250 C245 1.501 . S
C250 H251 0.961 . S
C250 H252 0.961 . S
C250 H253 0.960 . S
H251 C250 0.961 . S
H252 C250 0.961 . S
H253 C250 0.960 . S
C254 N255 1.342 . S
C254 C258 1.401 . S
C254 C259 1.499 . S
N255 Co238 1.989 . S
N255 C254 1.342 . S
N255 N256 1.388 . S
N256 Co239 1.993 . S
N256 N255 1.388 . S
N256 C257 1.346 . S
C257 N256 1.346 . S
C257 C258 1.396 . S
C257 C267 1.510 . S
C258 C254 1.401 . S
C258 C257 1.396 . S
C259 C254 1.499 . S
C259 H260 0.959 . S
C259 H261 0.960 . S
C259 H262 0.961 . S
H260 C259 0.959 . S
H261 C259 0.960 . S
H262 C259 0.961 . S
O263 Co238 1.967 . S
O263 C271 1.258 . S
O264 Co239 1.941 . S
O264 C271 1.266 . S
H265 C267 0.959 . S
H266 C267 0.961 . S
C267 C257 1.510 . S
C267 H265 0.959 . S
C267 H266 0.961 . S
C267 H268 0.960 . S
H268 C267 0.960 . S
H269 N249 0.862 . S
O270 Co238 1.920 1_556 S
O270 C243 1.289 . S
C271 O263 1.258 . S
C271 O264 1.266 . S
Co272 O275 1.970 . S
Co272 N289 1.989 . S
Co272 O297 1.967 . S
Co272 O304 1.920 1_554 S
Co273 O276 1.966 . S
Co273 N282 2.022 . S
Co273 N290 1.993 . S
Co273 O298 1.941 . S
C274 O275 1.258 . S
C274 O276 1.263 . S
O275 Co272 1.970 . S
O275 C274 1.258 . S
O276 Co273 1.966 . S
O276 C274 1.263 . S
C277 O278 1.235 . S
C277 O304 1.289 . S
O278 C277 1.235 . S
C279 C281 1.400 . S
C279 N282 1.351 . S
C279 C284 1.501 . S
C280 C281 1.387 . S
C280 N283 1.341 . S
C281 C279 1.400 . S
C281 C280 1.387 . S
N282 Co273 2.022 . S
N282 C279 1.351 . S
N282 N283 1.365 . S
N283 C280 1.341 . S
N283 N282 1.365 . S
N283 H303 0.862 . S
C284 C279 1.501 . S
C284 H285 0.961 . S
C284 H286 0.961 . S
C284 H287 0.960 . S
H285 C284 0.961 . S
H286 C284 0.961 . S
H287 C284 0.960 . S
C288 N289 1.342 . S
C288 C292 1.401 . S
C288 C293 1.499 . S
N289 Co272 1.989 . S
N289 C288 1.342 . S
N289 N290 1.388 . S
N290 Co273 1.993 . S
N290 N289 1.388 . S
N290 C291 1.346 . S
C291 N290 1.346 . S
C291 C292 1.396 . S
C291 C301 1.510 . S
C292 C288 1.401 . S
C292 C291 1.396 . S
C293 C288 1.499 . S
C293 H294 0.959 . S
C293 H295 0.960 . S
C293 H296 0.961 . S
H294 C293 0.959 . S
H295 C293 0.960 . S
H296 C293 0.961 . S
O297 Co272 1.967 . S
O297 C305 1.258 . S
O298 Co273 1.941 . S
O298 C305 1.266 . S
H299 C301 0.959 . S
H300 C301 0.961 . S
C301 C291 1.510 . S
C301 H299 0.959 . S
C301 H300 0.961 . S
C301 H302 0.960 . S
H302 C301 0.960 . S
H303 N283 0.862 . S
O304 Co272 1.920 1_556 S
O304 C277 1.289 . S
C305 O297 1.258 . S
C305 O298 1.266 . S
Co306 O309 1.970 . S
Co306 N323 1.989 . S
Co306 O331 1.967 . S
Co306 O338 1.920 1_554 S
Co307 O310 1.966 . S
Co307 N316 2.022 . S
Co307 N324 1.993 . S
Co307 O332 1.941 . S
C308 O309 1.258 . S
C308 O310 1.263 . S
O309 Co306 1.970 . S
O309 C308 1.258 . S
O310 Co307 1.966 . S
O310 C308 1.263 . S
C311 O312 1.235 . S
C311 O338 1.289 . S
O312 C311 1.235 . S
C313 C315 1.400 . S
C313 N316 1.351 . S
C313 C318 1.501 . S
C314 C315 1.387 . S
C314 N317 1.341 . S
C315 C313 1.400 . S
C315 C314 1.387 . S
N316 Co307 2.022 . S
N316 C313 1.351 . S
N316 N317 1.365 . S
N317 C314 1.341 . S
N317 N316 1.365 . S
N317 H337 0.862 . S
C318 C313 1.501 . S
C318 H319 0.961 . S
C318 H320 0.961 . S
C318 H321 0.960 . S
H319 C318 0.961 . S
H320 C318 0.961 . S
H321 C318 0.960 . S
C322 N323 1.342 . S
C322 C326 1.401 . S
C322 C327 1.499 . S
N323 Co306 1.989 . S
N323 C322 1.342 . S
N323 N324 1.388 . S
N324 Co307 1.993 . S
N324 N323 1.388 . S
N324 C325 1.346 . S
C325 N324 1.346 . S
C325 C326 1.396 . S
C325 C335 1.510 . S
C326 C322 1.401 . S
C326 C325 1.396 . S
C327 C322 1.499 . S
C327 H328 0.959 . S
C327 H329 0.960 . S
C327 H330 0.961 . S
H328 C327 0.959 . S
H329 C327 0.960 . S
H330 C327 0.961 . S
O331 Co306 1.967 . S
O331 C339 1.258 . S
O332 Co307 1.941 . S
O332 C339 1.266 . S
H333 C335 0.959 . S
H334 C335 0.961 . S
C335 C325 1.510 . S
C335 H333 0.959 . S
C335 H334 0.961 . S
C335 H336 0.960 . S
H336 C335 0.960 . S
H337 N317 0.862 . S
O338 Co306 1.920 1_556 S
O338 C311 1.289 . S
C339 O331 1.258 . S
C339 O332 1.266 . S
Co340 O343 1.970 . S
Co340 N357 1.989 . S
Co340 O365 1.967 . S
Co340 O372 1.920 1_554 S
Co341 O344 1.966 . S
Co341 N350 2.022 . S
Co341 N358 1.993 . S
Co341 O366 1.941 . S
C342 O343 1.258 . S
C342 O344 1.263 . S
O343 Co340 1.970 . S
O343 C342 1.258 . S
O344 Co341 1.966 . S
O344 C342 1.263 . S
C345 O346 1.235 . S
C345 O372 1.289 . S
O346 C345 1.235 . S
C347 C349 1.400 . S
C347 N350 1.351 . S
C347 C352 1.501 . S
C348 C349 1.387 . S
C348 N351 1.341 . S
C349 C347 1.400 . S
C349 C348 1.387 . S
N350 Co341 2.022 . S
N350 C347 1.351 . S
N350 N351 1.365 . S
N351 C348 1.341 . S
N351 N350 1.365 . S
N351 H371 0.862 . S
C352 C347 1.501 . S
C352 H353 0.961 . S
C352 H354 0.961 . S
C352 H355 0.960 . S
H353 C352 0.961 . S
H354 C352 0.961 . S
H355 C352 0.960 . S
C356 N357 1.342 . S
C356 C360 1.401 . S
C356 C361 1.499 . S
N357 Co340 1.989 . S
N357 C356 1.342 . S
N357 N358 1.388 . S
N358 Co341 1.993 . S
N358 N357 1.388 . S
N358 C359 1.346 . S
C359 N358 1.346 . S
C359 C360 1.396 . S
C359 C369 1.510 . S
C360 C356 1.401 . S
C360 C359 1.396 . S
C361 C356 1.499 . S
C361 H362 0.959 . S
C361 H363 0.960 . S
C361 H364 0.961 . S
H362 C361 0.959 . S
H363 C361 0.960 . S
H364 C361 0.961 . S
O365 Co340 1.967 . S
O365 C373 1.258 . S
O366 Co341 1.941 . S
O366 C373 1.266 . S
H367 C369 0.959 . S
H368 C369 0.961 . S
C369 C359 1.510 . S
C369 H367 0.959 . S
C369 H368 0.961 . S
C369 H370 0.960 . S
H370 C369 0.960 . S
H371 N351 0.862 . S
O372 Co340 1.920 1_556 S
O372 C345 1.289 . S
C373 O365 1.258 . S
C373 O366 1.266 . S
Co374 O377 1.970 . S
Co374 N391 1.989 . S
Co374 O399 1.967 . S
Co374 O406 1.920 1_554 S
Co375 O378 1.966 . S
Co375 N384 2.022 . S
Co375 N392 1.993 . S
Co375 O400 1.941 . S
C376 O377 1.258 . S
C376 O378 1.263 . S
O377 Co374 1.970 . S
O377 C376 1.258 . S
O378 Co375 1.966 . S
O378 C376 1.263 . S
C379 O380 1.235 . S
C379 O406 1.289 . S
O380 C379 1.235 . S
C381 C383 1.400 . S
C381 N384 1.351 . S
C381 C386 1.501 . S
C382 C383 1.387 . S
C382 N385 1.341 . S
C383 C381 1.400 . S
C383 C382 1.387 . S
N384 Co375 2.022 . S
N384 C381 1.351 . S
N384 N385 1.365 . S
N385 C382 1.341 . S
N385 N384 1.365 . S
N385 H405 0.862 . S
C386 C381 1.501 . S
C386 H387 0.961 . S
C386 H388 0.961 . S
C386 H389 0.960 . S
H387 C386 0.961 . S
H388 C386 0.961 . S
H389 C386 0.960 . S
C390 N391 1.342 . S
C390 C394 1.401 . S
C390 C395 1.499 . S
N391 Co374 1.989 . S
N391 C390 1.342 . S
N391 N392 1.388 . S
N392 Co375 1.993 . S
N392 N391 1.388 . S
N392 C393 1.346 . S
C393 N392 1.346 . S
C393 C394 1.396 . S
C393 C403 1.510 . S
C394 C390 1.401 . S
C394 C393 1.396 . S
C395 C390 1.499 . S
C395 H396 0.959 . S
C395 H397 0.960 . S
C395 H398 0.961 . S
H396 C395 0.959 . S
H397 C395 0.960 . S
H398 C395 0.961 . S
O399 Co374 1.967 . S
O399 C407 1.258 . S
O400 Co375 1.941 . S
O400 C407 1.266 . S
H401 C403 0.959 . S
H402 C403 0.961 . S
C403 C393 1.510 . S
C403 H401 0.959 . S
C403 H402 0.961 . S
C403 H404 0.960 . S
H404 C403 0.960 . S
H405 N385 0.862 . S
O406 Co374 1.920 1_556 S
O406 C379 1.289 . S
C407 O399 1.258 . S
C407 O400 1.266 . S
H408 C414 0.930 . S
H409 C417 0.930 . S
H410 C418 0.930 . S
H411 C419 0.930 . S
H412 C422 0.930 . S
H413 C423 0.930 . S
C414 H408 0.930 . S
C414 C415 1.355 . S
C414 C416 1.415 . S
C415 C414 1.355 . S
C415 C417 1.419 . S
C416 C414 1.415 . S
C416 C421 1.425 . S
C416 C423 1.409 . S
C417 H409 0.930 . S
C417 C415 1.419 . S
C417 C418 1.362 . S
C418 H410 0.930 . S
C418 C417 1.362 . S
C418 C421 1.409 . S
C419 H411 0.930 . S
C419 C420 1.355 . S
C419 C421 1.415 . S
C420 C419 1.355 . S
C420 C422 1.419 . S
C421 C416 1.425 . S
C421 C418 1.409 . S
C421 C419 1.415 . S
C422 H412 0.930 . S
C422 C420 1.419 . S
C422 C423 1.362 . S
C423 H413 0.930 . S
C423 C416 1.409 . S
C423 C422 1.362 . S
H424 C430 0.930 . S
H425 C433 0.930 . S
H426 C434 0.930 . S
H427 C435 0.930 . S
H428 C438 0.930 . S
H429 C439 0.930 . S
C430 H424 0.930 . S
C430 C431 1.355 . S
C430 C432 1.415 . S
C431 C430 1.355 . S
C431 C433 1.419 . S
C432 C430 1.415 . S
C432 C437 1.425 . S
C432 C439 1.409 . S
C433 H425 0.930 . S
C433 C431 1.419 . S
C433 C434 1.362 . S
C434 H426 0.930 . S
C434 C433 1.362 . S
C434 C437 1.409 . S
C435 H427 0.930 . S
C435 C436 1.355 . S
C435 C437 1.415 . S
C436 C435 1.355 . S
C436 C438 1.419 . S
C437 C432 1.425 . S
C437 C434 1.409 . S
C437 C435 1.415 . S
C438 H428 0.930 . S
C438 C436 1.419 . S
C438 C439 1.362 . S
C439 H429 0.930 . S
C439 C432 1.409 . S
C439 C438 1.362 . S
H440 C446 0.930 . S
H441 C449 0.930 . S
H442 C450 0.930 . S
H443 C451 0.930 . S
H444 C454 0.930 . S
H445 C455 0.930 . S
C446 H440 0.930 . S
C446 C447 1.355 . S
C446 C448 1.415 . S
C447 C446 1.355 . S
C447 C449 1.419 . S
C448 C446 1.415 . S
C448 C453 1.425 . S
C448 C455 1.409 . S
C449 H441 0.930 . S
C449 C447 1.419 . S
C449 C450 1.362 . S
C450 H442 0.930 . S
C450 C449 1.362 . S
C450 C453 1.409 . S
C451 H443 0.930 . S
C451 C452 1.355 . S
C451 C453 1.415 . S
C452 C451 1.355 . S
C452 C454 1.419 . S
C453 C448 1.425 . S
C453 C450 1.409 . S
C453 C451 1.415 . S
C454 H444 0.930 . S
C454 C452 1.419 . S
C454 C455 1.362 . S
C455 H445 0.930 . S
C455 C448 1.409 . S
C455 C454 1.362 . S
H456 C462 0.930 . S
H457 C465 0.930 . S
H458 C466 0.930 . S
H459 C467 0.930 . S
H460 C470 0.930 . S
H461 C471 0.930 . S
C462 H456 0.930 . S
C462 C463 1.355 . S
C462 C464 1.415 . S
C463 C462 1.355 . S
C463 C465 1.419 . S
C464 C462 1.415 . S
C464 C469 1.425 . S
C464 C471 1.409 . S
C465 H457 0.930 . S
C465 C463 1.419 . S
C465 C466 1.362 . S
C466 H458 0.930 . S
C466 C465 1.362 . S
C466 C469 1.409 . S
C467 H459 0.930 . S
C467 C468 1.355 . S
C467 C469 1.415 . S
C468 C467 1.355 . S
C468 C470 1.419 . S
C469 C464 1.425 . S
C469 C466 1.409 . S
C469 C467 1.415 . S
C470 H460 0.930 . S
C470 C468 1.419 . S
C470 C471 1.362 . S
C471 H461 0.930 . S
C471 C464 1.409 . S
C471 C470 1.362 . S
H472 C478 0.930 . S
H473 C481 0.930 . S
H474 C482 0.930 . S
H475 C483 0.930 . S
H476 C486 0.930 . S
H477 C487 0.930 . S
C478 H472 0.930 . S
C478 C479 1.355 . S
C478 C480 1.415 . S
C479 C478 1.355 . S
C479 C481 1.419 . S
C480 C478 1.415 . S
C480 C485 1.425 . S
C480 C487 1.409 . S
C481 H473 0.930 . S
C481 C479 1.419 . S
C481 C482 1.362 . S
C482 H474 0.930 . S
C482 C481 1.362 . S
C482 C485 1.409 . S
C483 H475 0.930 . S
C483 C484 1.355 . S
C483 C485 1.415 . S
C484 C483 1.355 . S
C484 C486 1.419 . S
C485 C480 1.425 . S
C485 C482 1.409 . S
C485 C483 1.415 . S
C486 H476 0.930 . S
C486 C484 1.419 . S
C486 C487 1.362 . S
C487 H477 0.930 . S
C487 C480 1.409 . S
C487 C486 1.362 . S
H488 C494 0.930 . S
H489 C497 0.930 . S
H490 C498 0.930 . S
H491 C499 0.930 . S
H492 C502 0.930 . S
H493 C503 0.930 . S
C494 H488 0.930 . S
C494 C495 1.355 . S
C494 C496 1.415 . S
C495 C494 1.355 . S
C495 C497 1.419 . S
C496 C494 1.415 . S
C496 C501 1.425 . S
C496 C503 1.409 . S
C497 H489 0.930 . S
C497 C495 1.419 . S
C497 C498 1.362 . S
C498 H490 0.930 . S
C498 C497 1.362 . S
C498 C501 1.409 . S
C499 H491 0.930 . S
C499 C500 1.355 . S
C499 C501 1.415 . S
C500 C499 1.355 . S
C500 C502 1.419 . S
C501 C496 1.425 . S
C501 C498 1.409 . S
C501 C499 1.415 . S
C502 H492 0.930 . S
C502 C500 1.419 . S
C502 C503 1.362 . S
C503 H493 0.930 . S
C503 C496 1.409 . S
C503 C502 1.362 . S
H504 C510 0.930 . S
H505 C513 0.930 . S
H506 C514 0.930 . S
H507 C515 0.930 . S
H508 C518 0.930 . S
H509 C519 0.930 . S
C510 H504 0.930 . S
C510 C511 1.355 . S
C510 C512 1.415 . S
C511 C510 1.355 . S
C511 C513 1.419 . S
C512 C510 1.415 . S
C512 C517 1.425 . S
C512 C519 1.409 . S
C513 H505 0.930 . S
C513 C511 1.419 . S
C513 C514 1.362 . S
C514 H506 0.930 . S
C514 C513 1.362 . S
C514 C517 1.409 . S
C515 H507 0.930 . S
C515 C516 1.355 . S
C515 C517 1.415 . S
C516 C515 1.355 . S
C516 C518 1.419 . S
C517 C512 1.425 . S
C517 C514 1.409 . S
C517 C515 1.415 . S
C518 H508 0.930 . S
C518 C516 1.419 . S
C518 C519 1.362 . S
C519 H509 0.930 . S
C519 C512 1.409 . S
C519 C518 1.362 . S
H520 C526 0.930 . S
H521 C529 0.930 . S
H522 C530 0.930 . S
H523 C531 0.930 . S
H524 C534 0.930 . S
H525 C535 0.930 . S
C526 H520 0.930 . S
C526 C527 1.355 . S
C526 C528 1.415 . S
C527 C526 1.355 . S
C527 C529 1.419 . S
C528 C526 1.415 . S
C528 C533 1.425 . S
C528 C535 1.409 . S
C529 H521 0.930 . S
C529 C527 1.419 . S
C529 C530 1.362 . S
C530 H522 0.930 . S
C530 C529 1.362 . S
C530 C533 1.409 . S
C531 H523 0.930 . S
C531 C532 1.355 . S
C531 C533 1.415 . S
C532 C531 1.355 . S
C532 C534 1.419 . S
C533 C528 1.425 . S
C533 C530 1.409 . S
C533 C531 1.415 . S
C534 H524 0.930 . S
C534 C532 1.419 . S
C534 C535 1.362 . S
C535 H525 0.930 . S
C535 C528 1.409 . S
C535 C534 1.362 . S
H536 C542 0.930 . S
H537 C545 0.930 . S
H538 C546 0.930 . S
H539 C547 0.930 . S
H540 C550 0.930 . S
H541 C551 0.930 . S
C542 H536 0.930 . S
C542 C543 1.355 . S
C542 C544 1.415 . S
C543 C542 1.355 . S
C543 C545 1.419 . S
C544 C542 1.415 . S
C544 C549 1.425 . S
C544 C551 1.409 . S
C545 H537 0.930 . S
C545 C543 1.419 . S
C545 C546 1.362 . S
C546 H538 0.930 . S
C546 C545 1.362 . S
C546 C549 1.409 . S
C547 H539 0.930 . S
C547 C548 1.355 . S
C547 C549 1.415 . S
C548 C547 1.355 . S
C548 C550 1.419 . S
C549 C544 1.425 . S
C549 C546 1.409 . S
C549 C547 1.415 . S
C550 H540 0.930 . S
C550 C548 1.419 . S
C550 C551 1.362 . S
C551 H541 0.930 . S
C551 C544 1.409 . S
C551 C550 1.362 . S
H552 C558 0.930 . S
H553 C561 0.930 . S
H554 C562 0.930 . S
H555 C563 0.930 . S
H556 C566 0.930 . S
H557 C567 0.930 . S
C558 H552 0.930 . S
C558 C559 1.355 . S
C558 C560 1.415 . S
C559 C558 1.355 . S
C559 C561 1.419 . S
C560 C558 1.415 . S
C560 C565 1.425 . S
C560 C567 1.409 . S
C561 H553 0.930 . S
C561 C559 1.419 . S
C561 C562 1.362 . S
C562 H554 0.930 . S
C562 C561 1.362 . S
C562 C565 1.409 . S
C563 H555 0.930 . S
C563 C564 1.355 . S
C563 C565 1.415 . S
C564 C563 1.355 . S
C564 C566 1.419 . S
C565 C560 1.425 . S
C565 C562 1.409 . S
C565 C563 1.415 . S
C566 H556 0.930 . S
C566 C564 1.419 . S
C566 C567 1.362 . S
C567 H557 0.930 . S
C567 C560 1.409 . S
C567 C566 1.362 . S
H568 C574 0.930 . S
H569 C577 0.930 . S
H570 C578 0.930 . S
H571 C579 0.930 . S
H572 C582 0.930 . S
H573 C583 0.930 . S
C574 H568 0.930 . S
C574 C575 1.355 . S
C574 C576 1.415 . S
C575 C574 1.355 . S
C575 C577 1.419 . S
C576 C574 1.415 . S
C576 C581 1.425 . S
C576 C583 1.409 . S
C577 H569 0.930 . S
C577 C575 1.419 . S
C577 C578 1.362 . S
C578 H570 0.930 . S
C578 C577 1.362 . S
C578 C581 1.409 . S
C579 H571 0.930 . S
C579 C580 1.355 . S
C579 C581 1.415 . S
C580 C579 1.355 . S
C580 C582 1.419 . S
C581 C576 1.425 . S
C581 C578 1.409 . S
C581 C579 1.415 . S
C582 H572 0.930 . S
C582 C580 1.419 . S
C582 C583 1.362 . S
C583 H573 0.930 . S
C583 C576 1.409 . S
C583 C582 1.362 . S
H584 C590 0.930 . S
H585 C593 0.930 . S
H586 C594 0.930 . S
H587 C595 0.930 . S
H588 C598 0.930 . S
H589 C599 0.930 . S
C590 H584 0.930 . S
C590 C591 1.355 . S
C590 C592 1.415 . S
C591 C590 1.355 . S
C591 C593 1.419 . S
C592 C590 1.415 . S
C592 C597 1.425 . S
C592 C599 1.409 . S
C593 H585 0.930 . S
C593 C591 1.419 . S
C593 C594 1.362 . S
C594 H586 0.930 . S
C594 C593 1.362 . S
C594 C597 1.409 . S
C595 H587 0.930 . S
C595 C596 1.355 . S
C595 C597 1.415 . S
C596 C595 1.355 . S
C596 C598 1.419 . S
C597 C592 1.425 . S
C597 C594 1.409 . S
C597 C595 1.415 . S
C598 H588 0.930 . S
C598 C596 1.419 . S
C598 C599 1.362 . S
C599 H589 0.930 . S
C599 C592 1.409 . S
C599 C598 1.362 . S
H600 C606 0.930 . S
H601 C609 0.930 . S
H602 C610 0.930 . S
H603 C611 0.930 . S
H604 C614 0.930 . S
H605 C615 0.930 . S
C606 H600 0.930 . S
C606 C607 1.355 . S
C606 C608 1.415 . S
C607 C606 1.355 . S
C607 C609 1.419 . S
C608 C606 1.415 . S
C608 C613 1.425 . S
C608 C615 1.409 . S
C609 H601 0.930 . S
C609 C607 1.419 . S
C609 C610 1.362 . S
C610 H602 0.930 . S
C610 C609 1.362 . S
C610 C613 1.409 . S
C611 H603 0.930 . S
C611 C612 1.355 . S
C611 C613 1.415 . S
C612 C611 1.355 . S
C612 C614 1.419 . S
C613 C608 1.425 . S
C613 C610 1.409 . S
C613 C611 1.415 . S
C614 H604 0.930 . S
C614 C612 1.419 . S
C614 C615 1.362 . S
C615 H605 0.930 . S
C615 C608 1.409 . S
C615 C614 1.362 . S
H616 C622 0.930 . S
H617 C625 0.930 . S
H618 C626 0.930 . S
H619 C627 0.930 . S
H620 C630 0.930 . S
H621 C631 0.930 . S
C622 H616 0.930 . S
C622 C623 1.355 . S
C622 C624 1.415 . S
C623 C622 1.355 . S
C623 C625 1.419 . S
C624 C622 1.415 . S
C624 C629 1.425 . S
C624 C631 1.409 . S
C625 H617 0.930 . S
C625 C623 1.419 . S
C625 C626 1.362 . S
C626 H618 0.930 . S
C626 C625 1.362 . S
C626 C629 1.409 . S
C627 H619 0.930 . S
C627 C628 1.355 . S
C627 C629 1.415 . S
C628 C627 1.355 . S
C628 C630 1.419 . S
C629 C624 1.425 . S
C629 C626 1.409 . S
C629 C627 1.415 . S
C630 H620 0.930 . S
C630 C628 1.419 . S
C630 C631 1.362 . S
C631 H621 0.930 . S
C631 C624 1.409 . S
C631 C630 1.362 . S
H632 C638 0.930 . S
H633 C641 0.930 . S
H634 C642 0.930 . S
H635 C643 0.930 . S
H636 C646 0.930 . S
H637 C647 0.930 . S
C638 H632 0.930 . S
C638 C639 1.355 . S
C638 C640 1.415 . S
C639 C638 1.355 . S
C639 C641 1.419 . S
C640 C638 1.415 . S
C640 C645 1.425 . S
C640 C647 1.409 . S
C641 H633 0.930 . S
C641 C639 1.419 . S
C641 C642 1.362 . S
C642 H634 0.930 . S
C642 C641 1.362 . S
C642 C645 1.409 . S
C643 H635 0.930 . S
C643 C644 1.355 . S
C643 C645 1.415 . S
C644 C643 1.355 . S
C644 C646 1.419 . S
C645 C640 1.425 . S
C645 C642 1.409 . S
C645 C643 1.415 . S
C646 H636 0.930 . S
C646 C644 1.419 . S
C646 C647 1.362 . S
C647 H637 0.930 . S
C647 C640 1.409 . S
C647 C646 1.362 . S
H648 C654 0.930 . S
H649 C657 0.930 . S
H650 C658 0.930 . S
H651 C659 0.930 . S
H652 C662 0.930 . S
H653 C663 0.930 . S
C654 H648 0.930 . S
C654 C655 1.355 . S
C654 C656 1.415 . S
C655 C654 1.355 . S
C655 C657 1.419 . S
C656 C654 1.415 . S
C656 C661 1.425 . S
C656 C663 1.409 . S
C657 H649 0.930 . S
C657 C655 1.419 . S
C657 C658 1.362 . S
C658 H650 0.930 . S
C658 C657 1.362 . S
C658 C661 1.409 . S
C659 H651 0.930 . S
C659 C660 1.355 . S
C659 C661 1.415 . S
C660 C659 1.355 . S
C660 C662 1.419 . S
C661 C656 1.425 . S
C661 C658 1.409 . S
C661 C659 1.415 . S
C662 H652 0.930 . S
C662 C660 1.419 . S
C662 C663 1.362 . S
C663 H653 0.930 . S
C663 C656 1.409 . S
C663 C662 1.362 . S
H664 C670 0.930 . S
H665 C673 0.930 . S
H666 C674 0.930 . S
H667 C675 0.930 . S
H668 C678 0.930 . S
H669 C679 0.930 . S
C670 H664 0.930 . S
C670 C671 1.355 . S
C670 C672 1.415 . S
C671 C670 1.355 . S
C671 C673 1.419 . S
C672 C670 1.415 . S
C672 C677 1.425 . S
C672 C679 1.409 . S
C673 H665 0.930 . S
C673 C671 1.419 . S
C673 C674 1.362 . S
C674 H666 0.930 . S
C674 C673 1.362 . S
C674 C677 1.409 . S
C675 H667 0.930 . S
C675 C676 1.355 . S
C675 C677 1.415 . S
C676 C675 1.355 . S
C676 C678 1.419 . S
C677 C672 1.425 . S
C677 C674 1.409 . S
C677 C675 1.415 . S
C678 H668 0.930 . S
C678 C676 1.419 . S
C678 C679 1.362 . S
C679 H669 0.930 . S
C679 C672 1.409 . S
C679 C678 1.362 . S
H680 C686 0.930 . S
H681 C689 0.930 . S
H682 C690 0.930 . S
H683 C691 0.930 . S
H684 C694 0.930 . S
H685 C695 0.930 . S
C686 H680 0.930 . S
C686 C687 1.355 . S
C686 C688 1.415 . S
C687 C686 1.355 . S
C687 C689 1.419 . S
C688 C686 1.415 . S
C688 C693 1.425 . S
C688 C695 1.409 . S
C689 H681 0.930 . S
C689 C687 1.419 . S
C689 C690 1.362 . S
C690 H682 0.930 . S
C690 C689 1.362 . S
C690 C693 1.409 . S
C691 H683 0.930 . S
C691 C692 1.355 . S
C691 C693 1.415 . S
C692 C691 1.355 . S
C692 C694 1.419 . S
C693 C688 1.425 . S
C693 C690 1.409 . S
C693 C691 1.415 . S
C694 H684 0.930 . S
C694 C692 1.419 . S
C694 C695 1.362 . S
C695 H685 0.930 . S
C695 C688 1.409 . S
C695 C694 1.362 . S
H696 C702 0.930 . S
H697 C705 0.930 . S
H698 C706 0.930 . S
H699 C707 0.930 . S
H700 C710 0.930 . S
H701 C711 0.930 . S
C702 H696 0.930 . S
C702 C703 1.355 . S
C702 C704 1.415 . S
C703 C702 1.355 . S
C703 C705 1.419 . S
C704 C702 1.415 . S
C704 C709 1.425 . S
C704 C711 1.409 . S
C705 H697 0.930 . S
C705 C703 1.419 . S
C705 C706 1.362 . S
C706 H698 0.930 . S
C706 C705 1.362 . S
C706 C709 1.409 . S
C707 H699 0.930 . S
C707 C708 1.355 . S
C707 C709 1.415 . S
C708 C707 1.355 . S
C708 C710 1.419 . S
C709 C704 1.425 . S
C709 C706 1.409 . S
C709 C707 1.415 . S
C710 H700 0.930 . S
C710 C708 1.419 . S
C710 C711 1.362 . S
C711 H701 0.930 . S
C711 C704 1.409 . S
C711 C710 1.362 . S
H712 C718 0.930 . S
H713 C721 0.930 . S
H714 C722 0.930 . S
H715 C723 0.930 . S
H716 C726 0.930 . S
H717 C727 0.930 . S
C718 H712 0.930 . S
C718 C719 1.355 . S
C718 C720 1.415 . S
C719 C718 1.355 . S
C719 C721 1.419 . S
C720 C718 1.415 . S
C720 C725 1.425 . S
C720 C727 1.409 . S
C721 H713 0.930 . S
C721 C719 1.419 . S
C721 C722 1.362 . S
C722 H714 0.930 . S
C722 C721 1.362 . S
C722 C725 1.409 . S
C723 H715 0.930 . S
C723 C724 1.355 . S
C723 C725 1.415 . S
C724 C723 1.355 . S
C724 C726 1.419 . S
C725 C720 1.425 . S
C725 C722 1.409 . S
C725 C723 1.415 . S
C726 H716 0.930 . S
C726 C724 1.419 . S
C726 C727 1.362 . S
C727 H717 0.930 . S
C727 C720 1.409 . S
C727 C726 1.362 . S
H728 C734 0.930 . S
H729 C737 0.930 . S
H730 C738 0.930 . S
H731 C739 0.930 . S
H732 C742 0.930 . S
H733 C743 0.930 . S
C734 H728 0.930 . S
C734 C735 1.355 . S
C734 C736 1.415 . S
C735 C734 1.355 . S
C735 C737 1.419 . S
C736 C734 1.415 . S
C736 C741 1.425 . S
C736 C743 1.409 . S
C737 H729 0.930 . S
C737 C735 1.419 . S
C737 C738 1.362 . S
C738 H730 0.930 . S
C738 C737 1.362 . S
C738 C741 1.409 . S
C739 H731 0.930 . S
C739 C740 1.355 . S
C739 C741 1.415 . S
C740 C739 1.355 . S
C740 C742 1.419 . S
C741 C736 1.425 . S
C741 C738 1.409 . S
C741 C739 1.415 . S
C742 H732 0.930 . S
C742 C740 1.419 . S
C742 C743 1.362 . S
C743 H733 0.930 . S
C743 C736 1.409 . S
C743 C742 1.362 . S
H744 C750 0.930 . S
H745 C753 0.930 . S
H746 C754 0.930 . S
H747 C755 0.930 . S
H748 C758 0.930 . S
H749 C759 0.930 . S
C750 H744 0.930 . S
C750 C751 1.355 . S
C750 C752 1.415 . S
C751 C750 1.355 . S
C751 C753 1.419 . S
C752 C750 1.415 . S
C752 C757 1.425 . S
C752 C759 1.409 . S
C753 H745 0.930 . S
C753 C751 1.419 . S
C753 C754 1.362 . S
C754 H746 0.930 . S
C754 C753 1.362 . S
C754 C757 1.409 . S
C755 H747 0.930 . S
C755 C756 1.355 . S
C755 C757 1.415 . S
C756 C755 1.355 . S
C756 C758 1.419 . S
C757 C752 1.425 . S
C757 C754 1.409 . S
C757 C755 1.415 . S
C758 H748 0.930 . S
C758 C756 1.419 . S
C758 C759 1.362 . S
C759 H749 0.930 . S
C759 C752 1.409 . S
C759 C758 1.362 . S
H760 C766 0.930 . S
H761 C769 0.930 . S
H762 C770 0.930 . S
H763 C771 0.930 . S
H764 C774 0.930 . S
H765 C775 0.930 . S
C766 H760 0.930 . S
C766 C767 1.355 . S
C766 C768 1.415 . S
C767 C766 1.355 . S
C767 C769 1.419 . S
C768 C766 1.415 . S
C768 C773 1.425 . S
C768 C775 1.409 . S
C769 H761 0.930 . S
C769 C767 1.419 . S
C769 C770 1.362 . S
C770 H762 0.930 . S
C770 C769 1.362 . S
C770 C773 1.409 . S
C771 H763 0.930 . S
C771 C772 1.355 . S
C771 C773 1.415 . S
C772 C771 1.355 . S
C772 C774 1.419 . S
C773 C768 1.425 . S
C773 C770 1.409 . S
C773 C771 1.415 . S
C774 H764 0.930 . S
C774 C772 1.419 . S
C774 C775 1.362 . S
C775 H765 0.930 . S
C775 C768 1.409 . S
C775 C774 1.362 . S
H776 C782 0.930 . S
H777 C785 0.930 . S
H778 C786 0.930 . S
H779 C787 0.930 . S
H780 C790 0.930 . S
H781 C791 0.930 . S
C782 H776 0.930 . S
C782 C783 1.355 . S
C782 C784 1.415 . S
C783 C782 1.355 . S
C783 C785 1.419 . S
C784 C782 1.415 . S
C784 C789 1.425 . S
C784 C791 1.409 . S
C785 H777 0.930 . S
C785 C783 1.419 . S
C785 C786 1.362 . S
C786 H778 0.930 . S
C786 C785 1.362 . S
C786 C789 1.409 . S
C787 H779 0.930 . S
C787 C788 1.355 . S
C787 C789 1.415 . S
C788 C787 1.355 . S
C788 C790 1.419 . S
C789 C784 1.425 . S
C789 C786 1.409 . S
C789 C787 1.415 . S
C790 H780 0.930 . S
C790 C788 1.419 . S
C790 C791 1.362 . S
C791 H781 0.930 . S
C791 C784 1.409 . S
C791 C790 1.362 . S
H792 C798 0.930 . S
H793 C801 0.930 . S
H794 C802 0.930 . S
H795 C803 0.930 . S
H796 C806 0.930 . S
H797 C807 0.930 . S
C798 H792 0.930 . S
C798 C799 1.355 . S
C798 C800 1.415 . S
C799 C798 1.355 . S
C799 C801 1.419 . S
C800 C798 1.415 . S
C800 C805 1.425 1_455 S
C800 C807 1.409 1_455 S
C801 H793 0.930 . S
C801 C799 1.419 . S
C801 C802 1.362 . S
C802 H794 0.930 . S
C802 C801 1.362 . S
C802 C805 1.409 1_455 S
C803 H795 0.930 . S
C803 C804 1.355 . S
C803 C805 1.415 . S
C804 C803 1.355 . S
C804 C806 1.419 . S
C805 C800 1.425 1_655 S
C805 C802 1.409 1_655 S
C805 C803 1.415 . S
C806 H796 0.930 . S
C806 C804 1.419 . S
C806 C807 1.362 . S
C807 H797 0.930 . S
C807 C800 1.409 1_655 S
C807 C806 1.362 . S
H808 C814 0.930 . S
H809 C817 0.930 . S
H810 C818 0.930 . S
H811 C819 0.930 . S
H812 C822 0.930 . S
H813 C823 0.930 . S
C814 H808 0.930 . S
C814 C815 1.355 . S
C814 C816 1.415 . S
C815 C814 1.355 . S
C815 C817 1.419 . S
C816 C814 1.415 . S
C816 C821 1.425 1_565 S
C816 C823 1.409 1_565 S
C817 H809 0.930 . S
C817 C815 1.419 . S
C817 C818 1.362 . S
C818 H810 0.930 . S
C818 C817 1.362 . S
C818 C821 1.409 1_565 S
C819 H811 0.930 . S
C819 C820 1.355 . S
C819 C821 1.415 . S
C820 C819 1.355 . S
C820 C822 1.419 . S
C821 C816 1.425 1_545 S
C821 C818 1.409 1_545 S
C821 C819 1.415 . S
C822 H812 0.930 . S
C822 C820 1.419 . S
C822 C823 1.362 . S
C823 H813 0.930 . S
C823 C816 1.409 1_545 S
C823 C822 1.362 . S
H824 C830 0.930 . S
H825 C833 0.930 . S
H826 C834 0.930 . S
H827 C835 0.930 . S
H828 C838 0.930 . S
H829 C839 0.930 . S
C830 H824 0.930 . S
C830 C831 1.355 . S
C830 C832 1.415 . S
C831 C830 1.355 . S
C831 C833 1.419 . S
C832 C830 1.415 . S
C832 C837 1.425 . S
C832 C839 1.409 . S
C833 H825 0.930 . S
C833 C831 1.419 . S
C833 C834 1.362 . S
C834 H826 0.930 . S
C834 C833 1.362 . S
C834 C837 1.409 . S
C835 H827 0.930 . S
C835 C836 1.355 . S
C835 C837 1.415 . S
C836 C835 1.355 . S
C836 C838 1.419 . S
C837 C832 1.425 . S
C837 C834 1.409 . S
C837 C835 1.415 . S
C838 H828 0.930 . S
C838 C836 1.419 . S
C838 C839 1.362 . S
C839 H829 0.930 . S
C839 C832 1.409 . S
C839 C838 1.362 . S
H840 C846 0.930 . S
H841 C849 0.930 . S
H842 C850 0.930 . S
H843 C851 0.930 . S
H844 C854 0.930 . S
H845 C855 0.930 . S
C846 H840 0.930 . S
C846 C847 1.355 . S
C846 C848 1.415 . S
C847 C846 1.355 . S
C847 C849 1.419 . S
C848 C846 1.415 . S
C848 C853 1.425 1_455 S
C848 C855 1.409 1_455 S
C849 H841 0.930 . S
C849 C847 1.419 . S
C849 C850 1.362 . S
C850 H842 0.930 . S
C850 C849 1.362 . S
C850 C853 1.409 1_455 S
C851 H843 0.930 . S
C851 C852 1.355 . S
C851 C853 1.415 . S
C852 C851 1.355 . S
C852 C854 1.419 . S
C853 C848 1.425 1_655 S
C853 C850 1.409 1_655 S
C853 C851 1.415 . S
C854 H844 0.930 . S
C854 C852 1.419 . S
C854 C855 1.362 . S
C855 H845 0.930 . S
C855 C848 1.409 1_655 S
C855 C854 1.362 . S
H856 C862 0.930 . S
H857 C865 0.930 . S
H858 C866 0.930 . S
H859 C867 0.930 . S
H860 C870 0.930 . S
H861 C871 0.930 . S
C862 H856 0.930 . S
C862 C863 1.355 . S
C862 C864 1.415 . S
C863 C862 1.355 . S
C863 C865 1.419 . S
C864 C862 1.415 . S
C864 C869 1.425 1_565 S
C864 C871 1.409 1_565 S
C865 H857 0.930 . S
C865 C863 1.419 . S
C865 C866 1.362 . S
C866 H858 0.930 . S
C866 C865 1.362 . S
C866 C869 1.409 1_565 S
C867 H859 0.930 . S
C867 C868 1.355 . S
C867 C869 1.415 . S
C868 C867 1.355 . S
C868 C870 1.419 . S
C869 C864 1.425 1_545 S
C869 C866 1.409 1_545 S
C869 C867 1.415 . S
C870 H860 0.930 . S
C870 C868 1.419 . S
C870 C871 1.362 . S
C871 H861 0.930 . S
C871 C864 1.409 1_545 S
C871 C870 1.362 . S
H872 C878 0.930 . S
H873 C881 0.930 . S
H874 C882 0.930 . S
H875 C883 0.930 . S
H876 C886 0.930 . S
H877 C887 0.930 . S
C878 H872 0.930 . S
C878 C879 1.355 . S
C878 C880 1.415 . S
C879 C878 1.355 . S
C879 C881 1.419 . S
C880 C878 1.415 . S
C880 C885 1.425 . S
C880 C887 1.409 . S
C881 H873 0.930 . S
C881 C879 1.419 . S
C881 C882 1.362 . S
C882 H874 0.930 . S
C882 C881 1.362 . S
C882 C885 1.409 . S
C883 H875 0.930 . S
C883 C884 1.355 . S
C883 C885 1.415 . S
C884 C883 1.355 . S
C884 C886 1.419 . S
C885 C880 1.425 . S
C885 C882 1.409 . S
C885 C883 1.415 . S
C886 H876 0.930 . S
C886 C884 1.419 . S
C886 C887 1.362 . S
C887 H877 0.930 . S
C887 C880 1.409 . S
C887 C886 1.362 . S
C415 C305 1.498 . S
C420 C33 1.489 . S
C431 C67 1.499 . S
C436 C339 1.496 . S
C447 C373 1.490 . S
C452 C101 1.481 . S
C463 C407 1.498 . S
C468 C135 1.497 . S
C479 C169 1.499 . S
C484 C237 1.496 . S
C495 C271 1.488 . S
C500 C203 1.497 . S
C511 C360 1.487 . S
C516 C20 1.482 . S
C527 C394 1.482 . S
C532 C54 1.474 . S
C543 C88 1.476 . S
C548 C224 1.483 . S
C559 C258 1.487 . S
C564 C122 1.485 . S
C575 C292 1.467 . S
C580 C156 1.466 . S
C591 C326 1.474 . S
C596 C190 1.467 . S
C607 C5 1.480 . S
C612 C9 1.353 . S
C623 C39 1.493 . S
C628 C43 1.389 . S
C639 C73 1.487 . S
C644 C77 1.369 . S
C655 C107 1.500 . S
C660 C111 1.422 . S
C671 C145 1.428 . S
C676 C141 1.502 . S
C687 C175 1.498 . S
C692 C179 1.416 . S
C703 C213 1.347 . S
C708 C209 1.479 . S
C719 C243 1.486 . S
C724 C247 1.377 . S
C735 C281 1.427 . S
C740 C277 1.502 . S
C751 C315 1.444 . S
C756 C311 1.510 . S
C767 C345 1.489 . S
C772 C349 1.386 . S
C783 C379 1.506 . S
C788 C383 1.438 . S
C799 C2 1.471 . S
C804 C376 1.483 . S
C815 C206 1.480 . S
C820 C36 1.468 . S
C831 C240 1.478 . S
C836 C70 1.466 . S
C847 C274 1.474 . S
C852 C104 1.485 . S
C863 C138 1.487 . S
C868 C308 1.480 . S
C879 C342 1.461 . S
C884 C172 1.468 . S
