# Generated by pormake.
# Topology wje, (4)-cn, num edge types: 1
# Building blocks:
#     Node 0, Type 0, BuildingBlock: CEKHIL_clean_sbu_0, # of connection points: 4
#     Node 1, Type 0, BuildingBlock: CEKHIL_clean_sbu_0, # of connection points: 4
#     Node 2, Type 0, BuildingBlock: CEKHIL_clean_sbu_0, # of connection points: 4
#     Node 3, Type 0, BuildingBlock: CEKHIL_clean_sbu_0, # of connection points: 4
#     Node 4, Type 0, BuildingBlock: CEKHIL_clean_sbu_0, # of connection points: 4
#     Node 5, Type 0, BuildingBlock: CEKHIL_clean_sbu_0, # of connection points: 4
#     Node 6, Type 0, BuildingBlock: CEKHIL_clean_sbu_0, # of connection points: 4
#     Node 7, Type 0, BuildingBlock: CEKHIL_clean_sbu_0, # of connection points: 4
#     Node 8, Type 0, BuildingBlock: CEKHIL_clean_sbu_0, # of connection points: 4
#     Node 9, Type 0, BuildingBlock: CEKHIL_clean_sbu_0, # of connection points: 4
#     Node 10, Type 0, BuildingBlock: CEKHIL_clean_sbu_0, # of connection points: 4
#     Node 11, Type 0, BuildingBlock: CEKHIL_clean_sbu_0, # of connection points: 4
#     Edge 12, Type (0, 0), BuildingBlock: UVAHIK_clean_linker_0, # of connection points: 2
#     Edge 13, Type (0, 0), BuildingBlock: UVAHIK_clean_linker_0, # of connection points: 2
#     Edge 14, Type (0, 0), BuildingBlock: UVAHIK_clean_linker_0, # of connection points: 2
#     Edge 15, Type (0, 0), BuildingBlock: UVAHIK_clean_linker_0, # of connection points: 2
#     Edge 16, Type (0, 0), BuildingBlock: UVAHIK_clean_linker_0, # of connection points: 2
#     Edge 17, Type (0, 0), BuildingBlock: UVAHIK_clean_linker_0, # of connection points: 2
#     Edge 18, Type (0, 0), BuildingBlock: UVAHIK_clean_linker_0, # of connection points: 2
#     Edge 19, Type (0, 0), BuildingBlock: UVAHIK_clean_linker_0, # of connection points: 2
#     Edge 20, Type (0, 0), BuildingBlock: UVAHIK_clean_linker_0, # of connection points: 2
#     Edge 21, Type (0, 0), BuildingBlock: UVAHIK_clean_linker_0, # of connection points: 2
#     Edge 22, Type (0, 0), BuildingBlock: UVAHIK_clean_linker_0, # of connection points: 2
#     Edge 23, Type (0, 0), BuildingBlock: UVAHIK_clean_linker_0, # of connection points: 2
#     Edge 24, Type (0, 0), BuildingBlock: UVAHIK_clean_linker_0, # of connection points: 2
#     Edge 25, Type (0, 0), BuildingBlock: UVAHIK_clean_linker_0, # of connection points: 2
#     Edge 26, Type (0, 0), BuildingBlock: UVAHIK_clean_linker_0, # of connection points: 2
#     Edge 27, Type (0, 0), BuildingBlock: UVAHIK_clean_linker_0, # of connection points: 2
#     Edge 28, Type (0, 0), BuildingBlock: UVAHIK_clean_linker_0, # of connection points: 2
#     Edge 29, Type (0, 0), BuildingBlock: UVAHIK_clean_linker_0, # of connection points: 2
#     Edge 30, Type (0, 0), BuildingBlock: UVAHIK_clean_linker_0, # of connection points: 2
#     Edge 31, Type (0, 0), BuildingBlock: UVAHIK_clean_linker_0, # of connection points: 2
#     Edge 32, Type (0, 0), BuildingBlock: UVAHIK_clean_linker_0, # of connection points: 2
#     Edge 33, Type (0, 0), BuildingBlock: UVAHIK_clean_linker_0, # of connection points: 2
#     Edge 34, Type (0, 0), BuildingBlock: UVAHIK_clean_linker_0, # of connection points: 2
#     Edge 35, Type (0, 0), BuildingBlock: UVAHIK_clean_linker_0, # of connection points: 2
# Relax obj value: 0.166
# Max RMSD: 0.099
# Mean RMSD: 0.099
data_MOF--net-wje--node1-CEKHIL_clean_sbu_0--edge1-UVAHIK_clean_linker_0
_symmetry_space_group_name_H-M    P1
_symmetry_Int_Tables_number       1
_symmetry_cell_setting            triclinic
loop_
_symmetry_equiv_pos_as_xyz
'x, y, z'
_cell_length_a     50.862653
_cell_length_b     50.861121
_cell_length_c     48.874757
_cell_angle_alpha  89.998986
_cell_angle_beta   90.003992
_cell_angle_gamma 120.00484
loop_
_atom_site_label
_atom_site_type_symbol
_atom_site_fract_x
_atom_site_fract_y
_atom_site_fract_z
_atom_type_partial_charge
Co0 Co 0.31831 0.02547 0.30112 0.0
O1 O 0.32092 0.03894 0.26391 0.0
O2 O 0.34452 0.06957 0.29856 0.0
C3 C 0.26735 0.99554 0.30177 0.0
O4 O 0.31912 0.01853 0.3427 0.0
Co5 Co 0.29282 0.95624 0.3111 0.0
O6 O 0.29283 0.96789 0.34972 0.0
C7 C 0.3556 0.99419 0.29119 0.0
C8 C 0.33825 0.06641 0.27248 0.0
C9 C 0.30688 0.99508 0.35871 0.0
O10 O 0.35381 0.01844 0.29463 0.0
O11 O 0.33293 0.9674 0.29436 0.0
O12 O 0.2796 0.0245 0.30614 0.0
O13 O 0.28587 0.9865 0.29443 0.0
Co14 Co 0.29368 0.32084 0.63221 0.0
O15 O 0.2824 0.32357 0.59518 0.0
O16 O 0.27573 0.34703 0.63018 0.0
C17 C 0.2728 0.26992 0.6328 0.0
O18 O 0.3019 0.3215 0.67364 0.0
Co19 Co 0.33784 0.29566 0.64113 0.0
O20 O 0.32727 0.2961 0.68005 0.0
C21 C 0.36186 0.35808 0.62081 0.0
C22 C 0.27238 0.34088 0.60407 0.0
C23 C 0.31379 0.3097 0.68935 0.0
O24 O 0.33609 0.35643 0.62551 0.0
O25 O 0.36599 0.33534 0.6232 0.0
O26 O 0.25605 0.28208 0.6374 0.0
O27 O 0.30023 0.28851 0.62517 0.0
Co28 Co 0.971 0.28986 0.96585 0.0
O29 O 0.95738 0.28031 0.92853 0.0
O30 O 0.92696 0.27242 0.96357 0.0
C31 C 0.0005 0.26837 0.96503 0.0
O32 O 0.97796 0.29612 0.00752 0.0
Co33 Co 0.04016 0.33232 0.97688 0.0
O34 O 0.02818 0.31551 0.01433 0.0
C35 C 0.00309 0.35865 0.95794 0.0
C36 C 0.92997 0.27 0.93734 0.0
C37 C 0.00107 0.30355 0.02335 0.0
O38 O 0.97856 0.33276 0.96084 0.0
O39 O 0.0297 0.36227 0.96114 0.0
O40 O 0.97153 0.25175 0.96939 0.0
O41 O 0.00983 0.29626 0.95869 0.0
Co42 Co 0.68073 0.97568 0.29726 0.0
O43 O 0.67748 0.96192 0.2601 0.0
O44 O 0.65431 0.93158 0.29505 0.0
C45 C 0.73173 0.00538 0.29734 0.0
O46 O 0.68056 0.98299 0.33882 0.0
Co47 Co 0.70665 0.04506 0.30677 0.0
O48 O 0.70654 0.03371 0.34553 0.0
C49 C 0.6439 0.00725 0.28687 0.0
C50 C 0.66016 0.93455 0.2689 0.0
C51 C 0.69273 0.00658 0.35467 0.0
O52 O 0.64532 0.98293 0.29114 0.0
O53 O 0.66683 0.034 0.28939 0.0
O54 O 0.71939 0.97644 0.30183 0.0
O55 O 0.71322 0.0145 0.2902 0.0
Co56 Co 0.70791 0.68127 0.63473 0.0
O57 O 0.71643 0.67701 0.59716 0.0
O58 O 0.72502 0.65443 0.63176 0.0
C59 C 0.72972 0.73227 0.63381 0.0
O60 O 0.70265 0.68211 0.67658 0.0
Co61 Co 0.66618 0.70848 0.64712 0.0
O62 O 0.68362 0.71308 0.68422 0.0
C63 C 0.63882 0.64479 0.62863 0.0
C64 C 0.72671 0.65973 0.60553 0.0
C65 C 0.69559 0.69778 0.69281 0.0
O66 O 0.66481 0.64613 0.63031 0.0
O67 O 0.63539 0.66779 0.63252 0.0
O68 O 0.74625 0.71975 0.63773 0.0
O69 O 0.70163 0.71385 0.62801 0.0
Co70 Co 0.02546 0.7057 0.96616 0.0
O71 O 0.03894 0.71406 0.92871 0.0
O72 O 0.06951 0.7235 0.96395 0.0
C73 C 0.99556 0.72668 0.96398 0.0
O74 O 0.01885 0.70103 0.00796 0.0
Co75 Co 0.95656 0.6635 0.97837 0.0
O76 O 0.96882 0.68246 0.01502 0.0
C77 C 0.99384 0.63656 0.96137 0.0
C78 C 0.06642 0.72507 0.93762 0.0
C79 C 0.99602 0.69463 0.02383 0.0
O80 O 0.01828 0.66278 0.96262 0.0
O81 O 0.96725 0.63284 0.96499 0.0
O82 O 0.0245 0.74368 0.96822 0.0
O83 O 0.98641 0.69858 0.95869 0.0
Co84 Co 0.97232 0.68105 0.37742 0.0
O85 O 0.95874 0.67565 0.41484 0.0
O86 O 0.92824 0.655 0.37946 0.0
C87 C 0.00252 0.73189 0.38005 0.0
O88 O 0.97905 0.68326 0.33563 0.0
Co89 Co 0.04119 0.70737 0.36535 0.0
O90 O 0.02918 0.71419 0.32863 0.0
C91 C 0.00343 0.64308 0.38198 0.0
C92 C 0.93128 0.65934 0.40584 0.0
C93 C 0.00198 0.69943 0.31978 0.0
O94 O 0.97913 0.64509 0.38064 0.0
O95 O 0.03013 0.66585 0.37858 0.0
O96 O 0.97362 0.72017 0.37573 0.0
O97 O 0.01145 0.71271 0.3851 0.0
Co98 Co 0.29247 0.97522 0.71235 0.0
O99 O 0.28372 0.96143 0.74965 0.0
O100 O 0.27407 0.93103 0.71423 0.0
C101 C 0.27215 0.00573 0.71457 0.0
O102 O 0.29782 0.98252 0.67064 0.0
Co103 Co 0.33607 0.04431 0.70175 0.0
O104 O 0.31922 0.03304 0.66427 0.0
C105 C 0.36128 0.00576 0.71912 0.0
C106 C 0.2726 0.934 0.7406 0.0
C107 C 0.30616 0.00596 0.655 0.0
O108 O 0.33507 0.98164 0.71614 0.0
O109 O 0.36549 0.03266 0.71664 0.0
O110 O 0.25484 0.97686 0.71011 0.0
O111 O 0.30005 0.01433 0.7202 0.0
Co112 Co 0.31561 0.29006 0.04318 0.0
O113 O 0.32035 0.28208 0.08083 0.0
O114 O 0.34162 0.27199 0.04612 0.0
C115 C 0.2647 0.2694 0.045 0.0
O116 O 0.31414 0.29454 1.00126 0.0
Co117 Co 0.28947 0.33263 0.03028 0.0
O118 O 0.28376 0.31423 0.9935 0.0
C119 C 0.35354 0.35922 0.04764 0.0
C120 C 0.33685 0.27091 0.07241 0.0
C121 C 0.29855 0.30168 0.985 0.0
O122 O 0.35153 0.33289 0.04666 0.0
O123 O 0.33083 0.36314 0.04375 0.0
O124 O 0.27651 0.25222 0.04113 0.0
O125 O 0.28379 0.2975 0.05013 0.0
Co126 Co 0.02472 0.31839 0.37735 0.0
O127 O 0.03784 0.32308 0.41486 0.0
O128 O 0.06872 0.34513 0.37997 0.0
C129 C 0.99537 0.26741 0.3788 0.0
O130 O 0.01825 0.31709 0.33556 0.0
Co131 Co 0.95566 0.29118 0.36538 0.0
O132 O 0.96817 0.28591 0.32832 0.0
C133 C 0.99227 0.3549 0.38373 0.0
C134 C 0.06535 0.34014 0.40625 0.0
C135 C 0.99539 0.30113 0.31956 0.0
O136 O 0.01692 0.35365 0.38142 0.0
O137 O 0.96577 0.33179 0.3804 0.0
O138 O 0.02438 0.27978 0.37471 0.0
O139 O 0.98587 0.28599 0.38445 0.0
Co140 Co 0.70647 0.02427 0.70873 0.0
O141 O 0.71403 0.0372 0.74633 0.0
O142 O 0.72408 0.06832 0.71142 0.0
C143 C 0.72769 0.99457 0.71109 0.0
O144 O 0.70236 0.01804 0.66683 0.0
Co145 Co 0.6645 0.95537 0.69626 0.0
O146 O 0.68283 0.96793 0.65944 0.0
C147 C 0.63725 0.99244 0.71288 0.0
C148 C 0.72501 0.06479 0.73777 0.0
C149 C 0.69531 0.9952 0.65075 0.0
O150 O 0.66346 0.01689 0.71178 0.0
O151 O 0.6336 0.96586 0.70937 0.0
O152 O 0.7446 0.02358 0.70713 0.0
O153 O 0.69947 0.98524 0.71603 0.0
Co154 Co 0.67957 0.7033 0.04577 0.0
O155 O 0.67667 0.71448 0.0828 0.0
O156 O 0.65366 0.72155 0.04766 0.0
C157 C 0.73048 0.72387 0.04552 0.0
O158 O 0.67909 0.69527 1.00433 0.0
Co159 Co 0.70436 0.65883 0.03679 0.0
O160 O 0.70412 0.66954 0.99787 0.0
C161 C 0.6418 0.63504 0.05664 0.0
C162 C 0.65965 0.7248 0.0738 0.0
C163 C 0.69073 0.68323 0.9886 0.0
O164 O 0.64372 0.66097 0.05214 0.0
O165 O 0.66442 0.6307 0.05433 0.0
O166 O 0.71852 0.74079 0.04089 0.0
O167 O 0.71169 0.69642 0.05294 0.0
C168 C 0.35525 0.12135 0.26224 0.0
C169 C 0.34808 0.09228 0.25318 0.0
C170 C 0.3599 0.14411 0.2433 0.0
C171 C 0.37555 0.16612 0.16971 0.0
H172 H 0.32992 0.20708 0.18321 0.0
C173 C 0.35129 0.23149 0.08443 0.0
C174 C 0.34722 0.25581 0.09221 0.0
C175 C 0.35595 0.21423 0.10433 0.0
C176 C 0.34339 0.19644 0.17918 0.0
H177 H 0.34175 0.06486 0.21714 0.0
H178 H 0.35032 0.10441 0.18437 0.0
H179 H 0.33115 0.1734 0.2178 0.0
H180 H 0.34691 0.28235 0.12674 0.0
H181 H 0.35639 0.25351 0.16103 0.0
H182 H 0.38779 0.18911 0.13105 0.0
C183 C 0.35226 0.10976 0.20599 0.0
C184 C 0.34402 0.17699 0.19915 0.0
C185 C 0.3472 0.087 0.22484 0.0
C186 C 0.34966 0.26355 0.12007 0.0
C187 C 0.35477 0.24671 0.13983 0.0
C188 C 0.37519 0.18585 0.1498 0.0
C189 C 0.35797 0.13841 0.21491 0.0
C190 C 0.3598 0.16128 0.19459 0.0
C191 C 0.35702 0.22115 0.13244 0.0
C192 C 0.35885 0.20113 0.15409 0.0
H193 H 0.35593 0.12609 0.28391 0.0
H194 H 0.36452 0.16602 0.25087 0.0
H195 H 0.38816 0.15458 0.1656 0.0
H196 H 0.34926 0.22479 0.06315 0.0
H197 H 0.35734 0.19466 0.09769 0.0
C198 C 0.26048 0.35023 0.55668 0.0
C199 C 0.25628 0.35093 0.58508 0.0
C200 C 0.24274 0.35556 0.5381 0.0
C201 C 0.16739 0.34766 0.53203 0.0
H202 H 0.19867 0.39179 0.46404 0.0
C203 C 0.08593 0.35334 0.45371 0.0
C204 C 0.09105 0.35087 0.42582 0.0
C205 C 0.10807 0.3586 0.47331 0.0
C206 C 0.18944 0.3791 0.48276 0.0
H207 H 0.23069 0.35877 0.6162 0.0
H208 H 0.19927 0.36781 0.58362 0.0
H209 H 0.23376 0.39194 0.49825 0.0
H210 H 0.12394 0.35303 0.39651 0.0
H211 H 0.16248 0.36135 0.43077 0.0
H212 H 0.12313 0.33367 0.51639 0.0
C213 C 0.21644 0.36313 0.5758 0.0
C214 C 0.20963 0.37933 0.50248 0.0
C215 C 0.23458 0.3582 0.59448 0.0
C216 C 0.11943 0.35509 0.41782 0.0
C217 C 0.14153 0.35989 0.43756 0.0
C218 C 0.14721 0.34716 0.51226 0.0
C219 C 0.21998 0.36137 0.54735 0.0
C220 C 0.19885 0.36343 0.5273 0.0
C221 C 0.13586 0.36094 0.46572 0.0
C222 C 0.15784 0.36273 0.48721 0.0
H223 H 0.27702 0.34472 0.54873 0.0
H224 H 0.24597 0.35375 0.51642 0.0
H225 H 0.15822 0.33468 0.55064 0.0
H226 H 0.06438 0.35047 0.46054 0.0
H227 H 0.10303 0.36021 0.49456 0.0
C228 C 0.76422 0.11874 0.74969 0.0
C229 C 0.73988 0.09037 0.75748 0.0
C230 C 0.78141 0.1407 0.76958 0.0
C231 C 0.79917 0.14585 0.84436 0.0
H232 H 0.84114 0.23251 0.83088 0.0
C233 C 0.87493 0.23238 0.92731 0.0
C234 C 0.90394 0.25428 0.91815 0.0
C235 C 0.85201 0.21444 0.90844 0.0
C236 C 0.82957 0.20835 0.83497 0.0
H237 H 0.71317 0.06359 0.79197 0.0
H238 H 0.74192 0.10198 0.82626 0.0
H239 H 0.80645 0.19769 0.79637 0.0
H240 H 0.93111 0.27556 0.88203 0.0
H241 H 0.89129 0.24483 0.84939 0.0
H242 H 0.82236 0.15654 0.88289 0.0
C243 C 0.74878 0.10712 0.80506 0.0
C244 C 0.80975 0.18831 0.81508 0.0
C245 C 0.732 0.08513 0.78531 0.0
C246 C 0.90902 0.25887 0.88981 0.0
C247 C 0.8861 0.24131 0.87103 0.0
C248 C 0.81872 0.16587 0.8643 0.0
C249 C 0.77439 0.13488 0.79768 0.0
C250 C 0.79444 0.15668 0.81933 0.0
C251 C 0.8575 0.21835 0.88003 0.0
C252 C 0.83448 0.19737 0.85977 0.0
H253 H 0.77102 0.12335 0.72843 0.0
H254 H 0.80102 0.16164 0.76296 0.0
H255 H 0.78849 0.12173 0.84835 0.0
H256 H 0.87034 0.22817 0.94899 0.0
H257 H 0.83013 0.19712 0.91608 0.0
C258 C 0.6427 0.76294 0.08305 0.0
C259 C 0.64984 0.74122 0.09266 0.0
C260 C 0.63798 0.78136 0.10155 0.0
C261 C 0.622 0.78905 0.1747 0.0
H262 H 0.66782 0.87538 0.15996 0.0
C263 C 0.64559 0.88037 0.25815 0.0
C264 C 0.64982 0.90861 0.24966 0.0
C265 C 0.64105 0.85802 0.23876 0.0
C266 C 0.65429 0.85135 0.16432 0.0
H267 H 0.65606 0.72076 0.12921 0.0
H268 H 0.64738 0.75232 0.16122 0.0
H269 H 0.66679 0.83984 0.1262 0.0
H270 H 0.65048 0.93478 0.21443 0.0
H271 H 0.64115 0.89571 0.18101 0.0
H272 H 0.60947 0.80051 0.21287 0.0
C273 C 0.64551 0.75534 0.1395 0.0
C274 C 0.65378 0.83091 0.14483 0.0
C275 C 0.65064 0.73731 0.12109 0.0
C276 C 0.64762 0.91334 0.22163 0.0
C277 C 0.64259 0.89097 0.20238 0.0
C278 C 0.62222 0.8095 0.19413 0.0
C279 C 0.63982 0.7781 0.13003 0.0
C280 C 0.63793 0.79951 0.14985 0.0
C281 C 0.64024 0.8633 0.21047 0.0
C282 C 0.63861 0.84104 0.18937 0.0
H283 H 0.64207 0.76662 0.06129 0.0
H284 H 0.63338 0.79852 0.09355 0.0
H285 H 0.60935 0.76497 0.17916 0.0
H286 H 0.64744 0.87616 0.27959 0.0
H287 H 0.63956 0.83718 0.24594 0.0
C288 C 0.87642 0.64255 0.41587 0.0
C289 C 0.90522 0.64893 0.42499 0.0
C290 C 0.85354 0.63757 0.43476 0.0
C291 C 0.83049 0.62005 0.50799 0.0
H292 H 0.7912 0.66745 0.49547 0.0
C293 C 0.76538 0.64428 0.59357 0.0
C294 C 0.7415 0.64903 0.58575 0.0
C295 C 0.78255 0.6395 0.57367 0.0
C296 C 0.80137 0.65349 0.4992 0.0
H297 H 0.932 0.65339 0.46105 0.0
H298 H 0.89221 0.6443 0.49375 0.0
H299 H 0.82498 0.66644 0.46091 0.0
H300 H 0.71552 0.65031 0.55117 0.0
H301 H 0.7442 0.64064 0.51686 0.0
H302 H 0.80694 0.60717 0.54637 0.0
C303 C 0.88718 0.64323 0.47211 0.0
C304 C 0.82087 0.65298 0.47925 0.0
C305 C 0.91008 0.64858 0.4533 0.0
C306 C 0.734 0.64705 0.55786 0.0
C307 C 0.75074 0.64182 0.5381 0.0
C308 C 0.81071 0.62031 0.52789 0.0
C309 C 0.85885 0.63841 0.46316 0.0
C310 C 0.83597 0.63654 0.48346 0.0
C311 C 0.77594 0.63898 0.54554 0.0
C312 C 0.79602 0.63728 0.52392 0.0
H313 H 0.872 0.6428 0.39422 0.0
H314 H 0.83187 0.63363 0.42716 0.0
H315 H 0.84157 0.60694 0.51182 0.0
H316 H 0.77187 0.64593 0.61488 0.0
H317 H 0.80183 0.63761 0.58033 0.0
C318 C 0.2647 0.91266 0.78779 0.0
C319 C 0.25725 0.90802 0.75985 0.0
C320 C 0.24763 0.89027 0.80713 0.0
C321 C 0.18678 0.80887 0.81579 0.0
H322 H 0.1732 0.83933 0.88395 0.0
C323 C 0.0875 0.7364 0.8901 0.0
C324 C 0.09245 0.74097 0.91846 0.0
C325 C 0.11038 0.75429 0.87139 0.0
C326 C 0.17711 0.83035 0.86526 0.0
H327 H 0.22655 0.87567 0.73016 0.0
H328 H 0.19602 0.83664 0.76399 0.0
H329 H 0.20715 0.87481 0.84988 0.0
H330 H 0.12584 0.76728 0.9494 0.0
H331 H 0.16594 0.7988 0.91665 0.0
H332 H 0.1556 0.76433 0.83106 0.0
C333 C 0.21552 0.85745 0.771 0.0
C334 C 0.19671 0.85077 0.84559 0.0
C335 C 0.23301 0.87983 0.75152 0.0
C336 C 0.12133 0.7631 0.92771 0.0
C337 C 0.1442 0.78132 0.90892 0.0
C338 C 0.16691 0.78842 0.83543 0.0
C339 C 0.22213 0.86267 0.79921 0.0
C340 C 0.20183 0.84042 0.82047 0.0
C341 C 0.1388 0.77752 0.8805 0.0
C342 C 0.16169 0.79891 0.86038 0.0
H343 H 0.28345 0.93404 0.79488 0.0
H344 H 0.25417 0.89495 0.82843 0.0
H345 H 0.19036 0.79988 0.79697 0.0
H346 H 0.06552 0.71954 0.88226 0.0
H347 H 0.10526 0.75082 0.84974 0.0
C348 C 0.41181 0.0251 0.28117 0.0
C349 C 0.38541 0.99677 0.28488 0.0
C350 C 0.44002 0.02696 0.27721 0.0
C351 C 0.4756 0.97981 0.26058 0.0
H352 H 0.54479 0.0435 0.29906 0.0
C353 C 0.58674 0.97727 0.28285 0.0
C354 C 0.61421 0.00495 0.28058 0.0
C355 C 0.55886 0.97636 0.27992 0.0
C356 C 0.52577 0.02576 0.28791 0.0
H357 H 0.36816 0.94811 0.28673 0.0
H358 H 0.41685 0.95146 0.28054 0.0
H359 H 0.49654 0.04267 0.29987 0.0
H360 H 0.63368 0.05308 0.27188 0.0
H361 H 0.58539 0.05132 0.26678 0.0
H362 H 0.50484 0.96247 0.24936 0.0
C363 C 0.41593 0.97227 0.2801 0.0
C364 C 0.4981 0.02536 0.28828 0.0
C365 C 0.38787 0.9704 0.28388 0.0
C366 C 0.61308 0.03136 0.27414 0.0
C367 C 0.58534 0.03044 0.27131 0.0
C368 C 0.50325 0.98009 0.26041 0.0
C369 C 0.44246 0.00054 0.27697 0.0
C370 C 0.47254 0.00224 0.27481 0.0
C371 C 0.55791 0.0031 0.27475 0.0
C372 C 0.52861 0.00299 0.27419 0.0
H373 H 0.4108 0.04586 0.2817 0.0
H374 H 0.45993 0.04912 0.27448 0.0
H375 H 0.45657 0.96193 0.24958 0.0
H376 H 0.58673 0.9565 0.2878 0.0
H377 H 0.53806 0.95493 0.28277 0.0
C378 C 0.61241 0.58894 0.61689 0.0
C379 C 0.61099 0.61521 0.62301 0.0
C380 C 0.58573 0.56108 0.61272 0.0
C381 C 0.50271 0.52733 0.599 0.0
H382 H 0.49749 0.45524 0.63117 0.0
C383 C 0.38907 0.4153 0.61859 0.0
C384 C 0.38899 0.3879 0.61443 0.0
C385 C 0.41608 0.44321 0.61607 0.0
C386 C 0.49867 0.47508 0.62174 0.0
H387 H 0.58012 0.63258 0.62935 0.0
H388 H 0.53417 0.5844 0.62274 0.0
H389 H 0.54516 0.50317 0.6333 0.0
H390 H 0.41697 0.36859 0.60253 0.0
H391 H 0.46359 0.41697 0.59801 0.0
H392 H 0.45585 0.49919 0.58812 0.0
C393 C 0.55576 0.58524 0.62052 0.0
C394 C 0.52608 0.50258 0.6229 0.0
C395 C 0.58229 0.61297 0.62453 0.0
C396 C 0.41616 0.38916 0.6063 0.0
C397 C 0.44302 0.41693 0.60381 0.0
C398 C 0.47521 0.49982 0.598 0.0
C399 C 0.55704 0.55887 0.61468 0.0
C400 C 0.52842 0.52915 0.61175 0.0
C401 C 0.4435 0.44424 0.60934 0.0
C402 C 0.47284 0.47341 0.60949 0.0
H403 H 0.63409 0.58982 0.61544 0.0
H404 H 0.58759 0.54129 0.60794 0.0
H405 H 0.50378 0.5472 0.58978 0.0
H406 H 0.3686 0.41519 0.62489 0.0
H407 H 0.41574 0.4639 0.62053 0.0
C408 C 0.96949 0.58002 0.95784 0.0
C409 C 0.99594 0.60877 0.95662 0.0
C410 C 0.97091 0.55351 0.95466 0.0
C411 C 0.02364 0.52382 0.96023 0.0
H412 H 0.95841 0.45371 0.92378 0.0
C413 C 0.02762 0.41374 0.94569 0.0
C414 C 0.00113 0.38633 0.95226 0.0
C415 C 0.02701 0.44076 0.94324 0.0
C416 C 0.97668 0.47302 0.93418 0.0
H417 H 0.04469 0.63193 0.95054 0.0
H418 H 0.04712 0.58542 0.94453 0.0
H419 H 0.95835 0.50165 0.92437 0.0
H420 H 0.95287 0.36582 0.96023 0.0
H421 H 0.95185 0.41325 0.95601 0.0
H422 H 0.04189 0.49515 0.97013 0.0
C423 C 0.02528 0.58355 0.94839 0.0
C424 C 0.97668 0.50053 0.93453 0.0
C425 C 0.02388 0.61023 0.95169 0.0
C426 C 0.97368 0.38647 0.95514 0.0
C427 C 0.97309 0.41365 0.95268 0.0
C428 C 0.0237 0.49637 0.95976 0.0
C429 C 0.99878 0.55483 0.94999 0.0
C430 C -1e-05 0.52621 0.94783 0.0
C431 C -8e-05 0.44121 0.94727 0.0
C432 C 0.00011 0.47057 0.94692 0.0
H433 H 0.94751 0.57778 0.96175 0.0
H434 H 0.95011 0.5319 0.95658 0.0
H435 H 0.04167 0.5429 0.97106 0.0
H436 H 0.04914 0.41454 0.94295 0.0
H437 H 0.04793 0.46143 0.93847 0.0
C438 C 0.97274 0.58649 0.3903 0.0
C439 C 0.00098 0.61301 0.38656 0.0
C440 C 0.971 0.55823 0.39326 0.0
C441 C 0.01835 0.52282 0.40846 0.0
H442 H 0.95497 0.45388 0.36947 0.0
C443 C 0.02167 0.41207 0.38731 0.0
C444 C 0.99402 0.38452 0.38902 0.0
C445 C 0.0223 0.43986 0.38975 0.0
C446 C 0.97262 0.47281 0.38077 0.0
H447 H 0.04957 0.63037 0.38332 0.0
H448 H 0.04641 0.58156 0.38796 0.0
H449 H 0.95559 0.50206 0.36911 0.0
H450 H 0.94555 0.36475 0.39603 0.0
H451 H 0.94682 0.41286 0.40047 0.0
H452 H 0.03568 0.4936 0.41963 0.0
C453 C 0.02562 0.58247 0.38914 0.0
C454 C 0.97291 0.50044 0.38063 0.0
C455 C 0.02737 0.61058 0.38627 0.0
C456 C 0.96727 0.38545 0.39425 0.0
C457 C 0.96791 0.41309 0.39667 0.0
C458 C 0.01812 0.4952 0.4085 0.0
C459 C 0.99745 0.55588 0.39253 0.0
C460 C 0.99592 0.52589 0.39428 0.0
C461 C 0.9953 0.44063 0.39395 0.0
C462 C 0.99534 0.46991 0.39454 0.0
H463 H 0.95197 0.58749 0.3907 0.0
H464 H 0.94894 0.53822 0.39613 0.0
H465 H 0.03615 0.5418 0.41958 0.0
H466 H 0.04269 0.41224 0.38327 0.0
H467 H 0.04378 0.46072 0.38743 0.0
C468 C 0.61099 0.0224 0.72302 0.0
C469 C 0.60944 0.99456 0.71735 0.0
C470 C 0.58435 0.02389 0.72622 0.0
C471 C 0.5011 0.97535 0.73866 0.0
H472 H 0.4971 0.04246 0.70552 0.0
C473 C 0.38812 0.97534 0.72006 0.0
C474 C 0.38861 0.00296 0.72406 0.0
C475 C 0.41499 0.97406 0.72188 0.0
C476 C 0.49793 0.02373 0.71519 0.0
H477 H 0.57838 0.94641 0.71065 0.0
H478 H 0.53253 0.94918 0.71567 0.0
H479 H 0.54447 0.04153 0.70405 0.0
H480 H 0.41758 0.05051 0.73465 0.0
H481 H 0.46391 0.04812 0.73804 0.0
H482 H 0.45429 0.9573 0.74931 0.0
C483 C 0.55418 0.9698 0.71827 0.0
C484 C 0.52516 0.02325 0.71441 0.0
C485 C 0.58064 0.96829 0.71519 0.0
C486 C 0.4163 0.02889 0.73105 0.0
C487 C 0.443 0.02761 0.73288 0.0
C488 C 0.47381 0.97577 0.73933 0.0
C489 C 0.5556 0.99758 0.72375 0.0
C490 C 0.52708 0.99896 0.72598 0.0
C491 C 0.44284 0.00037 0.72775 0.0
C492 C 0.47188 -8e-05 0.72753 0.0
H493 H 0.63273 0.04306 0.7249 0.0
H494 H 0.58629 0.04563 0.73073 0.0
H495 H 0.50185 0.9565 0.74816 0.0
H496 H 0.36724 0.95495 0.7146 0.0
H497 H 0.41412 0.95273 0.71771 0.0
C498 C 0.40931 0.38511 0.05977 0.0
C499 C 0.38348 0.38687 0.05253 0.0
C500 C 0.43738 0.41165 0.06373 0.0
C501 C 0.47169 0.49499 0.07558 0.0
H502 H 0.5445 0.49892 0.04669 0.0
C503 C 0.58458 0.60794 0.05752 0.0
C504 C 0.6118 0.60798 0.06263 0.0
C505 C 0.55657 0.58098 0.05963 0.0
C506 C 0.52445 0.49811 0.05522 0.0
H507 H 0.36721 0.41819 0.0436 0.0
H508 H 0.4157 0.46381 0.04991 0.0
H509 H 0.49638 0.45142 0.04414 0.0
H510 H 0.63067 0.57999 0.07571 0.0
H511 H 0.58209 0.53343 0.07961 0.0
H512 H 0.49977 0.54195 0.08607 0.0
C513 C 0.41434 0.4421 0.05323 0.0
C514 C 0.49683 0.4708 0.0538 0.0
C515 C 0.38643 0.41576 0.04942 0.0
C516 C 0.61023 0.58081 0.07124 0.0
C517 C 0.58236 0.55399 0.07335 0.0
C518 C 0.49929 0.52234 0.07687 0.0
C519 C 0.44021 0.44049 0.06046 0.0
C520 C 0.47002 0.46895 0.06371 0.0
C521 C 0.55524 0.55355 0.06692 0.0
C522 C 0.52597 0.52428 0.06654 0.0
H523 H 0.40788 0.36329 0.0624 0.0
H524 H 0.4568 0.40956 0.06953 0.0
H525 H 0.4516 0.49428 0.08387 0.0
H526 H 0.58493 0.62841 0.05079 0.0
H527 H 0.53607 0.58138 0.05443 0.0
C528 C 0.01694 0.7823 0.35921 0.0
C529 C 0.02448 0.76426 0.37546 0.0
C530 C 0.03911 0.81198 0.35238 0.0
C531 C 0.11484 0.8749 0.37112 0.0
H532 H 0.12735 0.88959 0.29304 0.0
C533 C 0.22165 0.94433 0.29722 0.0
C534 C 0.23532 0.97382 0.30802 0.0
C535 C 0.1921 0.92276 0.30463 0.0
C536 C 0.12387 0.88596 0.3149 0.0
H537 H 0.06046 0.76333 0.39842 0.0
H538 H 0.09895 0.81521 0.38695 0.0
H539 H 0.08176 0.84446 0.30968 0.0
H540 H 0.22882 0.00417 0.33467 0.0
H541 H 0.17713 0.96594 0.34829 0.0
H542 H 0.15758 0.91578 0.37627 0.0
C543 C 0.07604 0.80651 0.37942 0.0
C544 C 0.09775 0.8603 0.32441 0.0
C545 C 0.05408 0.77677 0.38582 0.0
C546 C 0.2187 0.98159 0.32596 0.0
C547 C 0.18926 0.95978 0.3338 0.0
C548 C 0.14078 0.90079 0.36161 0.0
C549 C 0.06895 0.82418 0.36217 0.0
C550 C 0.09351 0.85404 0.35257 0.0
C551 C 0.17583 0.93011 0.32335 0.0
C552 C 0.14598 0.90598 0.33339 0.0
H553 H 0.99429 0.77311 0.35088 0.0
H554 H 0.03313 0.82519 0.33905 0.0
H555 H 0.112 0.8706 0.39293 0.0
H556 H 0.23397 0.93777 0.28334 0.0
H557 H 0.18242 0.89994 0.29655 0.0
C558 C 0.23868 0.2215 0.65754 0.0
C559 C 0.26279 0.23801 0.6393 0.0
C560 C 0.23141 0.19226 0.66572 0.0
C561 C 0.24271 0.14457 0.69398 0.0
H562 H 0.23967 0.08482 0.64275 0.0
C563 C 0.2795 0.05766 0.71951 0.0
C564 C 0.26214 0.02793 0.70952 0.0
C565 C 0.27202 0.07974 0.7127 0.0
C566 C 0.23994 0.10103 0.65729 0.0
H567 H 0.29734 0.23664 0.61442 0.0
H568 H 0.28425 0.18542 0.62821 0.0
H569 H 0.23991 0.13012 0.62557 0.0
H570 H 0.22291 0.99765 0.68515 0.0
H571 H 0.21019 0.03668 0.67264 0.0
H572 H 0.2444 0.11628 0.72563 0.0
C573 C 0.27106 0.19504 0.63628 0.0
C574 C 0.24028 0.12699 0.64747 0.0
C575 C 0.27867 0.2244 0.62852 0.0
C576 C 0.23659 0.0204 0.6932 0.0
C577 C 0.22939 0.04269 0.68598 0.0
C578 C 0.2428 0.11881 0.70379 0.0
C579 C 0.24774 0.17891 0.65531 0.0
C580 C 0.24242 0.14933 0.6657 0.0
C581 C 0.24729 0.07264 0.69542 0.0
C582 C 0.24216 0.0972 0.68549 0.0
H583 H 0.22618 0.23158 0.66625 0.0
H584 H 0.21335 0.18024 0.68043 0.0
H585 H 0.24458 0.16157 0.70844 0.0
H586 H 0.2993 0.06403 0.73215 0.0
H587 H 0.28642 0.10273 0.71998 0.0
C588 C 0.21445 0.23306 0.02404 0.0
C589 C 0.23238 0.25893 0.04003 0.0
C590 C 0.18478 0.22535 0.01696 0.0
C591 C 0.12159 0.23804 0.03487 0.0
H592 H 0.10658 0.23409 0.95675 0.0
C593 C 0.05142 0.27336 0.95993 0.0
C594 C 0.02207 0.25779 0.97102 0.0
C595 C 0.07307 0.26553 0.96746 0.0
C596 C 0.1103 0.23473 0.97863 0.0
H597 H 0.23309 0.29616 0.06223 0.0
H598 H 0.18122 0.28241 0.05033 0.0
H599 H 0.15197 0.23438 0.97374 0.0
H600 H 0.99199 0.22151 0.99828 0.0
H601 H 0.03034 0.20828 0.01209 0.0
H602 H 0.08055 0.23965 0.03969 0.0
C603 C 0.19002 0.26814 0.04319 0.0
C604 C 0.13611 0.2347 0.98835 0.0
C605 C 0.21976 0.27613 0.04984 0.0
C606 C 0.01445 0.23372 0.9893 0.0
C607 C 0.03634 0.22625 0.99727 0.0
C608 C 0.09556 0.23765 0.02517 0.0
C609 C 0.17245 0.24306 0.02625 0.0
C610 C 0.14249 0.23737 0.0165 0.0
C611 C 0.06593 0.24232 0.9866 0.0
C612 C 0.09023 0.23701 0.99692 0.0
H613 H 0.22372 0.21949 0.01613 0.0
H614 H 0.17164 0.2059 1.00387 0.0
H615 H 0.12597 0.23998 0.05669 0.0
H616 H 0.05785 0.29203 0.94581 0.0
H617 H 0.09581 0.27854 0.95919 0.0
C618 C 0.98184 0.21828 0.35575 0.0
C619 C 0.97395 0.23512 0.37328 0.0
C620 C 0.96005 0.18876 0.34807 0.0
C621 C 0.88531 0.1239 0.36619 0.0
H622 H 0.87139 0.11275 0.28794 0.0
C623 C 0.78099 0.01876 0.32007 0.0
C624 C 0.76391 0.027 0.30319 0.0
C625 C 0.81061 0.04039 0.32763 0.0
C626 C 0.87526 0.11539 0.30982 0.0
H627 H 0.93781 0.23407 0.39758 0.0
H628 H 0.90002 0.18242 0.38467 0.0
H629 H 0.91686 0.15756 0.30523 0.0
H630 H 0.76465 0.06369 0.28001 0.0
H631 H 0.81643 0.10123 0.29282 0.0
H632 H 0.84307 0.0824 0.37082 0.0
C633 C 0.92289 0.19195 0.37677 0.0
C634 C 0.90133 0.14086 0.31969 0.0
C635 C 0.94444 0.22155 0.38401 0.0
C636 C 0.77731 0.05677 0.29309 0.0
C637 C 0.807 0.07818 0.30026 0.0
C638 C 0.85945 0.09822 0.35632 0.0
C639 C 0.93029 0.1755 0.35829 0.0
C640 C 0.90604 0.14585 0.34798 0.0
C641 C 0.82374 0.07037 0.31799 0.0
C642 C 0.85369 0.09429 0.32807 0.0
H643 H 0.00443 0.22834 0.34707 0.0
H644 H 0.96625 0.17651 0.33376 0.0
H645 H 0.88854 0.1272 0.3881 0.0
H646 H 0.77113 0.99595 0.32819 0.0
H647 H 0.82309 0.03384 0.34133 0.0
C648 C 0.72536 0.77849 0.62838 0.0
C649 C 0.74076 0.76455 0.6395 0.0
C650 C 0.73362 0.80814 0.63565 0.0
C651 C 0.76508 0.87628 0.64637 0.0
H652 H 0.75914 0.8867 0.72432 0.0
C653 C 0.76491 0.9814 0.69099 0.0
C654 C 0.73867 0.97307 0.70654 0.0
C655 C 0.77321 0.95978 0.68431 0.0
C656 C 0.7613 0.88428 0.70254 0.0
H657 H 0.77721 0.77063 0.66647 0.0
H658 H 0.79116 0.82254 0.67988 0.0
H659 H 0.7598 0.8417 0.70756 0.0
H660 H 0.70138 0.93623 0.72841 0.0
H661 H 0.71614 0.89869 0.71719 0.0
H662 H 0.76524 0.91817 0.64126 0.0
C663 C 0.77302 0.81056 0.66522 0.0
C664 C 0.76188 0.85869 0.69298 0.0
C665 C 0.76512 0.78101 0.6575 0.0
C666 C 0.72168 0.94322 0.71634 0.0
C667 C 0.73025 0.92181 0.71009 0.0
C668 C 0.76493 0.90207 0.65595 0.0
C669 C 0.7571 0.82423 0.65455 0.0
C670 C 0.76269 0.85396 0.66476 0.0
C671 C 0.75572 0.92971 0.69356 0.0
C672 C 0.76195 0.90574 0.68405 0.0
H673 H 0.70649 0.76625 0.61446 0.0
H674 H 0.72072 0.81801 0.6274 0.0
H675 H 0.76583 0.87315 0.62451 0.0
H676 H 0.77833 0.00427 0.68311 0.0
H677 H 0.79294 0.96638 0.67152 0.0
C678 C 0.77981 0.75916 0.02259 0.0
C679 C 0.76251 0.73389 0.03945 0.0
C680 C 0.80928 0.76675 0.01491 0.0
C681 C 0.87342 0.75568 0.03269 0.0
H682 H 0.88735 0.75813 0.95446 0.0
C683 C 0.94438 0.72091 0.95837 0.0
C684 C 0.97376 0.73711 0.96934 0.0
C685 C 0.92241 0.72839 0.9656 0.0
C686 C 0.88392 0.75791 0.97636 0.0
H687 H 0.7627 0.69752 0.0624 0.0
H688 H 0.81425 0.71107 0.0494 0.0
H689 H 0.84163 0.75704 0.97163 0.0
H690 H 0.00358 0.77425 0.99597 0.0
H691 H 0.96469 0.78691 0.00924 0.0
H692 H 0.91512 0.75535 0.03738 0.0
C693 C 0.80509 0.72496 0.04207 0.0
C694 C 0.85791 0.75747 0.98617 0.0
C695 C 0.77553 0.71709 0.04935 0.0
C696 C 0.98111 0.76155 0.98709 0.0
C697 C 0.9589 0.76869 0.99476 0.0
C698 C 0.89964 0.75654 0.02289 0.0
C699 C 0.82206 0.74953 0.02441 0.0
C700 C 0.85196 0.75536 0.01439 0.0
C701 C 0.92926 0.7519 0.98432 0.0
C702 C 0.90462 0.75669 0.99461 0.0
H703 H 0.77024 0.77243 0.0146 0.0
H704 H 0.82194 0.7858 1.00128 0.0
H705 H 0.86939 0.75422 0.05455 0.0
H706 H 0.93816 0.70196 0.94464 0.0
H707 H 0.89964 0.71485 0.95751 0.0
C708 C 0.31367 0.02516 0.40227 0.0
C709 C 0.30898 0.99859 0.38907 0.0
C710 C 0.31287 0.0264 0.43104 0.0
C711 C 0.28442 0.97513 0.49207 0.0
H712 H 0.33906 0.04757 0.53265 0.0
C713 C 0.29777 0.9765 0.61084 0.0
C714 C 0.30212 0.0026 0.62472 0.0
C715 C 0.29734 0.97554 0.58205 0.0
C716 C 0.32337 0.02719 0.52165 0.0
H717 H 0.30139 0.95311 0.39603 0.0
H718 H 0.3007 0.95557 0.4454 0.0
H719 H 0.34145 0.04805 0.48281 0.0
H720 H 0.30766 0.04747 0.61897 0.0
H721 H 0.30652 0.04557 0.56943 0.0
H722 H 0.26651 0.95422 0.53093 0.0
C723 C 0.30396 0.97513 0.43382 0.0
C724 C 0.32474 0.02752 0.49298 0.0
C725 C 0.30457 0.97383 0.40534 0.0
C726 C 0.30477 0.02711 0.60911 0.0
C727 C 0.3043 0.02615 0.58056 0.0
C728 C 0.28313 0.97478 0.52072 0.0
C729 C 0.30752 0.00115 0.44718 0.0
C730 C 0.3054 0.00144 0.47775 0.0
C731 C 0.3012 0.00065 0.56654 0.0
C732 C 0.3026 0.00079 0.53594 0.0
H733 H 0.31704 0.04459 0.39041 0.0
H734 H 0.31564 0.04685 0.44059 0.0
H735 H 0.26871 0.95473 0.48111 0.0
H736 H 0.29572 0.95725 0.62216 0.0
H737 H 0.29496 0.95552 0.57196 0.0
C738 C 0.32224 0.29589 0.94141 0.0
C739 C 0.29849 0.29721 0.95485 0.0
C740 C 0.32348 0.29591 0.91264 0.0
C741 C 0.27684 0.28482 0.84965 0.0
H742 H 0.355 0.33609 0.81559 0.0
C743 C 0.28947 0.31398 0.7332 0.0
C744 C 0.31264 0.31167 0.71971 0.0
C745 C 0.28757 0.31273 0.76197 0.0
C746 C 0.33299 0.3215 0.82473 0.0
H747 H 0.25655 0.29783 0.94843 0.0
H748 H 0.25884 0.29807 0.89896 0.0
H749 H 0.35174 0.33008 0.86517 0.0
H750 H 0.35265 0.30746 0.72606 0.0
H751 H 0.34941 0.30549 0.77554 0.0
H752 H 0.25811 0.27647 0.80914 0.0
C753 C 0.27653 0.29696 0.91032 0.0
C754 C 0.33115 0.31789 0.85323 0.0
C755 C 0.27537 0.29706 0.93886 0.0
C756 C 0.33435 0.30914 0.73566 0.0
C757 C 0.33264 0.30822 0.76418 0.0
C758 C 0.27867 0.28853 0.82115 0.0
C759 C 0.30087 0.29698 0.8967 0.0
C760 C 0.30304 0.29951 0.86614 0.0
C761 C 0.30907 0.30961 0.77779 0.0
C762 C 0.30678 0.30688 0.80829 0.0
H763 H 0.34041 0.29601 0.95305 0.0
H764 H 0.34235 0.29545 0.90288 0.0
H765 H 0.25482 0.27014 0.85874 0.0
H766 H 0.27234 0.31582 0.72156 0.0
H767 H 0.26923 0.31412 0.77182 0.0
C768 C 0.97842 0.27543 0.27425 0.0
C769 C -0.00047 0.30074 0.28946 0.0
C770 C 0.97903 0.27572 0.24568 0.0
C771 C 0.0264 0.31632 0.18506 0.0
H772 H 0.9485 0.27566 0.14802 0.0
C773 C 0.01909 0.29642 0.06878 0.0
C774 C 0.9973 0.29949 0.05353 0.0
C775 C 0.01854 0.29622 0.09734 0.0
C776 C 0.97047 0.28739 0.15794 0.0
H777 H 0.03856 0.34594 0.2864 0.0
H778 H 0.03948 0.34676 0.23622 0.0
H779 H 0.95036 0.27733 0.19777 0.0
H780 H 0.95717 0.3038 0.05657 0.0
H781 H 0.95635 0.30391 0.10676 0.0
H782 H 0.04649 0.3272 0.14523 0.0
C783 C 0.02256 0.32645 0.2465 0.0
C784 C 0.97158 0.288 0.1866 0.0
C785 C 0.02212 0.32602 0.2753 0.0
C786 C 0.97417 0.30124 0.06769 0.0
C787 C 0.97377 0.30133 0.09649 0.0
C788 C 0.02528 0.31585 0.1564 0.0
C789 C 0.00058 0.30148 0.23128 0.0
C790 C -0.00042 0.30212 0.20063 0.0
C791 C 0.99636 0.29941 0.11172 0.0
C792 C 0.99731 0.30104 0.14237 0.0
H793 H 0.96095 0.25537 0.28449 0.0
H794 H 0.96235 0.25568 0.23488 0.0
H795 H 0.04838 0.32731 0.19497 0.0
H796 H 0.037 0.29455 0.05857 0.0
H797 H 0.03574 0.29371 0.10815 0.0
C798 C 0.69446 0.02777 0.40121 0.0
C799 C 0.69086 0.00326 0.38504 0.0
C800 C 0.69534 0.0267 0.42971 0.0
C801 C 0.67717 0.97469 0.48901 0.0
H802 H 0.73307 0.04916 0.52678 0.0
C803 C 0.69915 0.97589 0.6047 0.0
C804 C 0.6999 0.99939 0.62057 0.0
C805 C 0.69954 0.97716 0.57616 0.0
C806 C 0.71712 0.02826 0.51661 0.0
H807 H 0.68461 0.95794 0.38652 0.0
H808 H 0.68659 0.95611 0.43665 0.0
H809 H 0.73032 0.04856 0.47698 0.0
H810 H 0.70305 0.04341 0.61853 0.0
H811 H 0.70379 0.04573 0.56833 0.0
H812 H 0.66416 0.95437 0.52871 0.0
C813 C 0.68842 0.97616 0.42708 0.0
C814 C 0.71548 0.02786 0.48797 0.0
C815 C 0.6873 0.97715 0.39832 0.0
C816 C 0.7025 0.02496 0.607 0.0
C817 C 0.70289 0.02624 0.57821 0.0
C818 C 0.67891 0.97507 0.51765 0.0
C819 C 0.69293 0.00117 0.44315 0.0
C820 C 0.69534 0.00111 0.47372 0.0
C821 C 0.70071 0.00198 0.56244 0.0
C822 C 0.69887 0.00187 0.53187 0.0
H823 H 0.69679 0.04812 0.39181 0.0
H824 H 0.69791 0.04604 0.44121 0.0
H825 H 0.66107 0.9538 0.47892 0.0
H826 H 0.69766 0.95601 0.61434 0.0
H827 H 0.69868 0.95846 0.5648 0.0
C828 C 0.68591 0.70735 0.94482 0.0
C829 C 0.68867 0.68439 0.95824 0.0
C830 C 0.68676 0.70911 0.91606 0.0
C831 C 0.6773 0.66345 0.85335 0.0
H832 H 0.72767 0.7415 0.81878 0.0
C833 C 0.70131 0.67391 0.73633 0.0
C834 C 0.69977 0.69759 0.72299 0.0
C835 C 0.7015 0.67267 0.7651 0.0
C836 C 0.71325 0.71951 0.82803 0.0
H837 H 0.69329 0.64463 0.95176 0.0
H838 H 0.69456 0.64764 0.90226 0.0
H839 H 0.72222 0.73848 0.86846 0.0
H840 H 0.69882 0.73935 0.72959 0.0
H841 H 0.6989 0.73704 0.77903 0.0
H842 H 0.6681 0.64447 0.81299 0.0
C843 C 0.6918 0.66434 0.9137 0.0
C844 C 0.71006 0.71783 0.85658 0.0
C845 C 0.69128 0.66278 0.94222 0.0
C846 C 0.69976 0.72058 0.73906 0.0
C847 C 0.70006 0.71941 0.76759 0.0
C848 C 0.68039 0.66514 0.82481 0.0
C849 C 0.6899 0.68767 0.90016 0.0
C850 C 0.69208 0.68977 0.86964 0.0
C851 C 0.70042 0.69522 0.78112 0.0
C852 C 0.69839 0.6932 0.8117 0.0
H853 H 0.68397 0.72439 0.95651 0.0
H854 H 0.68499 0.72726 0.90625 0.0
H855 H 0.663 0.64147 0.86267 0.0
H856 H 0.70132 0.65584 0.72463 0.0
H857 H 0.70221 0.6539 0.77479 0.0
C858 C 0.97485 0.67561 0.27539 0.0
C859 C 0.99792 0.70037 0.28972 0.0
C860 C 0.97439 0.67553 0.2466 0.0
C861 C 0.02589 0.71323 0.18695 0.0
H862 H 0.95106 0.67595 0.14541 0.0
C863 C 0.02288 0.69775 0.06834 0.0
C864 C 0.00019 0.69993 0.05385 0.0
C865 C 0.02337 0.6985 0.09713 0.0
C866 C 0.97226 0.68677 0.15662 0.0
H867 H 0.03734 0.74526 0.28506 0.0
H868 H 0.03594 0.74555 0.23545 0.0
H869 H 0.94907 0.6761 0.19514 0.0
H870 H 0.96152 0.70668 0.05816 0.0
H871 H 0.96298 0.709 0.10776 0.0
H872 H 0.04909 0.72472 0.14842 0.0
C873 C 0.01886 0.72563 0.24612 0.0
C874 C 0.97107 0.68645 0.18528 0.0
C875 C 0.01949 0.72558 0.27469 0.0
C876 C 0.97905 0.70444 0.06868 0.0
C877 C 0.97971 0.70549 0.09724 0.0
C878 C 0.02708 0.71368 0.15829 0.0
C879 C 0.99682 0.70033 0.23155 0.0
C880 C 0.99787 0.69988 0.20091 0.0
C881 C 0.00134 0.70174 0.112 0.0
C882 C 0.00029 0.70066 0.14265 0.0
H883 H 0.95803 0.65578 0.28635 0.0
H884 H 0.95708 0.65556 0.23618 0.0
H885 H 0.04708 0.7233 0.19817 0.0
H886 H 0.03936 0.69408 0.05753 0.0
H887 H 0.04036 0.69545 0.1077 0.0
loop_
_geom_bond_atom_site_label_1
_geom_bond_atom_site_label_2
_geom_bond_distance
_geom_bond_site_symmetry_2
_ccdc_geom_bond_type
Co0 O1 2.216 . S
Co0 O2 2.091 . S
Co0 O4 2.004 . S
Co0 O10 2.021 . S
Co0 O12 2.137 1_545 S
Co0 O13 2.244 1_545 S
O1 Co0 2.216 . S
O1 C8 1.247 . S
O2 Co0 2.091 . S
O2 C8 1.261 . S
C3 O12 1.247 . S
C3 O13 1.272 . S
O4 Co0 2.004 . S
O4 C9 1.259 . S
Co5 O6 2.061 . S
Co5 O11 2.052 . S
Co5 O13 2.135 . S
O6 Co5 2.061 . S
O6 C9 1.235 1_565 S
C7 O10 1.238 . S
C7 O11 1.241 1_545 S
C8 O1 1.247 . S
C8 O2 1.261 . S
C9 O4 1.259 . S
C9 O6 1.235 1_545 S
O10 Co0 2.021 . S
O10 C7 1.238 . S
O11 Co5 2.052 . S
O11 C7 1.241 1_565 S
O12 Co0 2.137 1_565 S
O12 C3 1.247 . S
O13 Co0 2.244 1_565 S
O13 C3 1.272 . S
O13 Co5 2.135 . S
Co14 O15 2.216 . S
Co14 O16 2.091 . S
Co14 O18 2.004 . S
Co14 O24 2.021 . S
Co14 O26 2.137 . S
Co14 O27 2.244 . S
O15 Co14 2.216 . S
O15 C22 1.247 . S
O16 Co14 2.091 . S
O16 C22 1.261 . S
C17 O26 1.247 . S
C17 O27 1.272 . S
O18 Co14 2.004 . S
O18 C23 1.259 . S
Co19 O20 2.061 . S
Co19 O25 2.052 . S
Co19 O27 2.135 . S
O20 Co19 2.061 . S
O20 C23 1.235 . S
C21 O24 1.238 . S
C21 O25 1.241 . S
C22 O15 1.247 . S
C22 O16 1.261 . S
C23 O18 1.259 . S
C23 O20 1.235 . S
O24 Co14 2.021 . S
O24 C21 1.238 . S
O25 Co19 2.052 . S
O25 C21 1.241 . S
O26 Co14 2.137 . S
O26 C17 1.247 . S
O27 Co14 2.244 . S
O27 C17 1.272 . S
O27 Co19 2.135 . S
Co28 O29 2.216 . S
Co28 O30 2.091 . S
Co28 O32 2.004 1_556 S
Co28 O38 2.021 . S
Co28 O40 2.137 1_655 S
Co28 O41 2.244 1_655 S
O29 Co28 2.216 . S
O29 C36 1.247 . S
O30 Co28 2.091 . S
O30 C36 1.261 . S
C31 O40 1.247 . S
C31 O41 1.272 . S
O32 Co28 2.004 1_554 S
O32 C37 1.259 . S
Co33 O34 2.061 . S
Co33 O39 2.052 1_554 S
Co33 O41 2.135 1_554 S
O34 Co33 2.061 . S
O34 C37 1.235 1_455 S
C35 O38 1.238 . S
C35 O39 1.241 1_655 S
C36 O29 1.247 . S
C36 O30 1.261 . S
C37 O32 1.259 . S
C37 O34 1.235 1_655 S
O38 Co28 2.021 . S
O38 C35 1.238 . S
O39 Co33 2.052 1_556 S
O39 C35 1.241 1_455 S
O40 Co28 2.137 1_455 S
O40 C31 1.247 . S
O41 Co28 2.244 1_455 S
O41 C31 1.272 . S
O41 Co33 2.135 1_556 S
Co42 O43 2.216 . S
Co42 O44 2.091 . S
Co42 O46 2.004 . S
Co42 O52 2.021 . S
Co42 O54 2.137 1_565 S
Co42 O55 2.244 1_565 S
O43 Co42 2.216 . S
O43 C50 1.247 . S
O44 Co42 2.091 . S
O44 C50 1.261 . S
C45 O54 1.247 . S
C45 O55 1.272 . S
O46 Co42 2.004 . S
O46 C51 1.259 . S
Co47 O48 2.061 . S
Co47 O53 2.052 . S
Co47 O55 2.135 . S
O48 Co47 2.061 . S
O48 C51 1.235 1_545 S
C49 O52 1.238 . S
C49 O53 1.241 1_565 S
C50 O43 1.247 . S
C50 O44 1.261 . S
C51 O46 1.259 . S
C51 O48 1.235 1_565 S
O52 Co42 2.021 . S
O52 C49 1.238 . S
O53 Co47 2.052 . S
O53 C49 1.241 1_545 S
O54 Co42 2.137 1_545 S
O54 C45 1.247 . S
O55 Co42 2.244 1_545 S
O55 C45 1.272 . S
O55 Co47 2.135 . S
Co56 O57 2.216 . S
Co56 O58 2.091 . S
Co56 O60 2.004 . S
Co56 O66 2.021 . S
Co56 O68 2.137 . S
Co56 O69 2.244 . S
O57 Co56 2.216 . S
O57 C64 1.247 . S
O58 Co56 2.091 . S
O58 C64 1.261 . S
C59 O68 1.247 . S
C59 O69 1.272 . S
O60 Co56 2.004 . S
O60 C65 1.259 . S
Co61 O62 2.061 . S
Co61 O67 2.052 . S
Co61 O69 2.135 . S
O62 Co61 2.061 . S
O62 C65 1.235 . S
C63 O66 1.238 . S
C63 O67 1.241 . S
C64 O57 1.247 . S
C64 O58 1.261 . S
C65 O60 1.259 . S
C65 O62 1.235 . S
O66 Co56 2.021 . S
O66 C63 1.238 . S
O67 Co61 2.052 . S
O67 C63 1.241 . S
O68 Co56 2.137 . S
O68 C59 1.247 . S
O69 Co56 2.244 . S
O69 C59 1.272 . S
O69 Co61 2.135 . S
Co70 O71 2.216 . S
Co70 O72 2.091 . S
Co70 O74 2.004 1_556 S
Co70 O80 2.021 . S
Co70 O82 2.137 1_455 S
Co70 O83 2.244 1_455 S
O71 Co70 2.216 . S
O71 C78 1.247 . S
O72 Co70 2.091 . S
O72 C78 1.261 . S
C73 O82 1.247 . S
C73 O83 1.272 . S
O74 Co70 2.004 1_554 S
O74 C79 1.259 . S
Co75 O76 2.061 . S
Co75 O81 2.052 1_554 S
Co75 O83 2.135 1_554 S
O76 Co75 2.061 . S
O76 C79 1.235 1_655 S
C77 O80 1.238 . S
C77 O81 1.241 1_455 S
C78 O71 1.247 . S
C78 O72 1.261 . S
C79 O74 1.259 . S
C79 O76 1.235 1_455 S
O80 Co70 2.021 . S
O80 C77 1.238 . S
O81 Co75 2.052 1_556 S
O81 C77 1.241 1_655 S
O82 Co70 2.137 1_655 S
O82 C73 1.247 . S
O83 Co70 2.244 1_655 S
O83 C73 1.272 . S
O83 Co75 2.135 1_556 S
Co84 O85 2.216 . S
Co84 O86 2.091 . S
Co84 O88 2.004 . S
Co84 O94 2.021 . S
Co84 O96 2.137 1_655 S
Co84 O97 2.244 1_655 S
O85 Co84 2.216 . S
O85 C92 1.247 . S
O86 Co84 2.091 . S
O86 C92 1.261 . S
C87 O96 1.247 . S
C87 O97 1.272 . S
O88 Co84 2.004 . S
O88 C93 1.259 . S
Co89 O90 2.061 . S
Co89 O95 2.052 . S
Co89 O97 2.135 . S
O90 Co89 2.061 . S
O90 C93 1.235 1_455 S
C91 O94 1.238 . S
C91 O95 1.241 1_655 S
C92 O85 1.247 . S
C92 O86 1.261 . S
C93 O88 1.259 . S
C93 O90 1.235 1_655 S
O94 Co84 2.021 . S
O94 C91 1.238 . S
O95 Co89 2.052 . S
O95 C91 1.241 1_455 S
O96 Co84 2.137 1_455 S
O96 C87 1.247 . S
O97 Co84 2.244 1_455 S
O97 C87 1.272 . S
O97 Co89 2.135 . S
Co98 O99 2.216 . S
Co98 O100 2.091 . S
Co98 O102 2.004 . S
Co98 O108 2.021 . S
Co98 O110 2.137 1_565 S
Co98 O111 2.244 1_565 S
O99 Co98 2.216 . S
O99 C106 1.247 . S
O100 Co98 2.091 . S
O100 C106 1.261 . S
C101 O110 1.247 . S
C101 O111 1.272 . S
O102 Co98 2.004 . S
O102 C107 1.259 . S
Co103 O104 2.061 . S
Co103 O109 2.052 . S
Co103 O111 2.135 . S
O104 Co103 2.061 . S
O104 C107 1.235 1_545 S
C105 O108 1.238 . S
C105 O109 1.241 1_565 S
C106 O99 1.247 . S
C106 O100 1.261 . S
C107 O102 1.259 . S
C107 O104 1.235 1_565 S
O108 Co98 2.021 . S
O108 C105 1.238 . S
O109 Co103 2.052 . S
O109 C105 1.241 1_545 S
O110 Co98 2.137 1_545 S
O110 C101 1.247 . S
O111 Co98 2.244 1_545 S
O111 C101 1.272 . S
O111 Co103 2.135 . S
Co112 O113 2.216 . S
Co112 O114 2.091 . S
Co112 O116 2.004 1_554 S
Co112 O122 2.021 . S
Co112 O124 2.137 . S
Co112 O125 2.244 . S
O113 Co112 2.216 . S
O113 C120 1.247 . S
O114 Co112 2.091 . S
O114 C120 1.261 . S
C115 O124 1.247 . S
C115 O125 1.272 . S
O116 Co112 2.004 1_556 S
O116 C121 1.259 . S
Co117 O118 2.061 . S
Co117 O123 2.052 1_556 S
Co117 O125 2.135 1_556 S
O118 Co117 2.061 . S
O118 C121 1.235 . S
C119 O122 1.238 . S
C119 O123 1.241 . S
C120 O113 1.247 . S
C120 O114 1.261 . S
C121 O116 1.259 . S
C121 O118 1.235 . S
O122 Co112 2.021 . S
O122 C119 1.238 . S
O123 Co117 2.052 1_554 S
O123 C119 1.241 . S
O124 Co112 2.137 . S
O124 C115 1.247 . S
O125 Co112 2.244 . S
O125 C115 1.272 . S
O125 Co117 2.135 1_554 S
Co126 O127 2.216 . S
Co126 O128 2.091 . S
Co126 O130 2.004 . S
Co126 O136 2.021 . S
Co126 O138 2.137 1_455 S
Co126 O139 2.244 1_455 S
O127 Co126 2.216 . S
O127 C134 1.247 . S
O128 Co126 2.091 . S
O128 C134 1.261 . S
C129 O138 1.247 . S
C129 O139 1.272 . S
O130 Co126 2.004 . S
O130 C135 1.259 . S
Co131 O132 2.061 . S
Co131 O137 2.052 . S
Co131 O139 2.135 . S
O132 Co131 2.061 . S
O132 C135 1.235 1_655 S
C133 O136 1.238 . S
C133 O137 1.241 1_455 S
C134 O127 1.247 . S
C134 O128 1.261 . S
C135 O130 1.259 . S
C135 O132 1.235 1_455 S
O136 Co126 2.021 . S
O136 C133 1.238 . S
O137 Co131 2.052 . S
O137 C133 1.241 1_655 S
O138 Co126 2.137 1_655 S
O138 C129 1.247 . S
O139 Co126 2.244 1_655 S
O139 C129 1.272 . S
O139 Co131 2.135 . S
Co140 O141 2.216 . S
Co140 O142 2.091 . S
Co140 O144 2.004 . S
Co140 O150 2.021 . S
Co140 O152 2.137 1_545 S
Co140 O153 2.244 1_545 S
O141 Co140 2.216 . S
O141 C148 1.247 . S
O142 Co140 2.091 . S
O142 C148 1.261 . S
C143 O152 1.247 . S
C143 O153 1.272 . S
O144 Co140 2.004 . S
O144 C149 1.259 . S
Co145 O146 2.061 . S
Co145 O151 2.052 . S
Co145 O153 2.135 . S
O146 Co145 2.061 . S
O146 C149 1.235 1_565 S
C147 O150 1.238 . S
C147 O151 1.241 1_545 S
C148 O141 1.247 . S
C148 O142 1.261 . S
C149 O144 1.259 . S
C149 O146 1.235 1_545 S
O150 Co140 2.021 . S
O150 C147 1.238 . S
O151 Co145 2.052 . S
O151 C147 1.241 1_565 S
O152 Co140 2.137 1_565 S
O152 C143 1.247 . S
O153 Co140 2.244 1_565 S
O153 C143 1.272 . S
O153 Co145 2.135 . S
Co154 O155 2.216 . S
Co154 O156 2.091 . S
Co154 O158 2.004 1_554 S
Co154 O164 2.021 . S
Co154 O166 2.137 . S
Co154 O167 2.244 . S
O155 Co154 2.216 . S
O155 C162 1.247 . S
O156 Co154 2.091 . S
O156 C162 1.261 . S
C157 O166 1.247 . S
C157 O167 1.272 . S
O158 Co154 2.004 1_556 S
O158 C163 1.259 . S
Co159 O160 2.061 . S
Co159 O165 2.052 1_556 S
Co159 O167 2.135 1_556 S
O160 Co159 2.061 . S
O160 C163 1.235 . S
C161 O164 1.238 . S
C161 O165 1.241 . S
C162 O155 1.247 . S
C162 O156 1.261 . S
C163 O158 1.259 . S
C163 O160 1.235 . S
O164 Co154 2.021 . S
O164 C161 1.238 . S
O165 Co159 2.052 1_554 S
O165 C161 1.241 . S
O166 Co154 2.137 . S
O166 C157 1.247 . S
O167 Co154 2.244 . S
O167 C157 1.272 . S
O167 Co159 2.135 1_554 S
C168 C169 1.349 . S
C168 C170 1.327 . S
C168 H193 0.950 . S
C169 C168 1.349 . S
C169 C185 1.349 . S
C170 C168 1.327 . S
C170 C189 1.429 . S
C170 H194 0.950 . S
C171 C188 1.574 . S
C171 C190 1.368 . S
C171 H195 0.949 . S
H172 C176 0.949 . S
C173 C174 1.349 . S
C173 C175 1.327 . S
C173 H196 0.950 . S
C174 C173 1.349 . S
C174 C186 1.349 . S
C175 C173 1.327 . S
C175 C191 1.429 . S
C175 H197 0.950 . S
C176 H172 0.949 . S
C176 C184 1.574 . S
C176 C192 1.368 . S
H177 C185 0.950 . S
H178 C183 0.950 . S
H179 C184 0.949 . S
H180 C186 0.950 . S
H181 C187 0.950 . S
H182 C188 0.949 . S
C183 H178 0.950 . S
C183 C185 1.327 . S
C183 C189 1.429 . S
C184 C176 1.574 . S
C184 H179 0.949 . S
C184 C190 1.368 . S
C185 C169 1.349 . S
C185 H177 0.950 . S
C185 C183 1.327 . S
C186 C174 1.349 . S
C186 H180 0.950 . S
C186 C187 1.327 . S
C187 H181 0.950 . S
C187 C186 1.327 . S
C187 C191 1.429 . S
C188 C171 1.574 . S
C188 H182 0.949 . S
C188 C192 1.368 . S
C189 C170 1.429 . S
C189 C183 1.429 . S
C189 C190 1.523 . S
C190 C171 1.368 . S
C190 C184 1.368 . S
C190 C189 1.523 . S
C191 C175 1.429 . S
C191 C187 1.429 . S
C191 C192 1.523 . S
C192 C176 1.368 . S
C192 C188 1.368 . S
C192 C191 1.523 . S
H193 C168 0.950 . S
H194 C170 0.950 . S
H195 C171 0.949 . S
H196 C173 0.950 . S
H197 C175 0.950 . S
C198 C199 1.349 . S
C198 C200 1.327 . S
C198 H223 0.950 . S
C199 C198 1.349 . S
C199 C215 1.349 . S
C200 C198 1.327 . S
C200 C219 1.429 . S
C200 H224 0.950 . S
C201 C218 1.574 . S
C201 C220 1.368 . S
C201 H225 0.949 . S
H202 C206 0.949 . S
C203 C204 1.349 . S
C203 C205 1.327 . S
C203 H226 0.950 . S
C204 C203 1.349 . S
C204 C216 1.349 . S
C205 C203 1.327 . S
C205 C221 1.429 . S
C205 H227 0.950 . S
C206 H202 0.949 . S
C206 C214 1.574 . S
C206 C222 1.368 . S
H207 C215 0.950 . S
H208 C213 0.950 . S
H209 C214 0.949 . S
H210 C216 0.950 . S
H211 C217 0.950 . S
H212 C218 0.949 . S
C213 H208 0.950 . S
C213 C215 1.327 . S
C213 C219 1.429 . S
C214 C206 1.574 . S
C214 H209 0.949 . S
C214 C220 1.368 . S
C215 C199 1.349 . S
C215 H207 0.950 . S
C215 C213 1.327 . S
C216 C204 1.349 . S
C216 H210 0.950 . S
C216 C217 1.327 . S
C217 H211 0.950 . S
C217 C216 1.327 . S
C217 C221 1.429 . S
C218 C201 1.574 . S
C218 H212 0.949 . S
C218 C222 1.368 . S
C219 C200 1.429 . S
C219 C213 1.429 . S
C219 C220 1.523 . S
C220 C201 1.368 . S
C220 C214 1.368 . S
C220 C219 1.523 . S
C221 C205 1.429 . S
C221 C217 1.429 . S
C221 C222 1.523 . S
C222 C206 1.368 . S
C222 C218 1.368 . S
C222 C221 1.523 . S
H223 C198 0.950 . S
H224 C200 0.950 . S
H225 C201 0.949 . S
H226 C203 0.950 . S
H227 C205 0.950 . S
C228 C229 1.349 . S
C228 C230 1.327 . S
C228 H253 0.950 . S
C229 C228 1.349 . S
C229 C245 1.349 . S
C230 C228 1.327 . S
C230 C249 1.429 . S
C230 H254 0.950 . S
C231 C248 1.574 . S
C231 C250 1.368 . S
C231 H255 0.949 . S
H232 C236 0.949 . S
C233 C234 1.349 . S
C233 C235 1.327 . S
C233 H256 0.950 . S
C234 C233 1.349 . S
C234 C246 1.349 . S
C235 C233 1.327 . S
C235 C251 1.429 . S
C235 H257 0.950 . S
C236 H232 0.949 . S
C236 C244 1.574 . S
C236 C252 1.368 . S
H237 C245 0.950 . S
H238 C243 0.950 . S
H239 C244 0.949 . S
H240 C246 0.950 . S
H241 C247 0.950 . S
H242 C248 0.949 . S
C243 H238 0.950 . S
C243 C245 1.327 . S
C243 C249 1.429 . S
C244 C236 1.574 . S
C244 H239 0.949 . S
C244 C250 1.368 . S
C245 C229 1.349 . S
C245 H237 0.950 . S
C245 C243 1.327 . S
C246 C234 1.349 . S
C246 H240 0.950 . S
C246 C247 1.327 . S
C247 H241 0.950 . S
C247 C246 1.327 . S
C247 C251 1.429 . S
C248 C231 1.574 . S
C248 H242 0.949 . S
C248 C252 1.368 . S
C249 C230 1.429 . S
C249 C243 1.429 . S
C249 C250 1.523 . S
C250 C231 1.368 . S
C250 C244 1.368 . S
C250 C249 1.523 . S
C251 C235 1.429 . S
C251 C247 1.429 . S
C251 C252 1.523 . S
C252 C236 1.368 . S
C252 C248 1.368 . S
C252 C251 1.523 . S
H253 C228 0.950 . S
H254 C230 0.950 . S
H255 C231 0.949 . S
H256 C233 0.950 . S
H257 C235 0.950 . S
C258 C259 1.349 . S
C258 C260 1.327 . S
C258 H283 0.950 . S
C259 C258 1.349 . S
C259 C275 1.349 . S
C260 C258 1.327 . S
C260 C279 1.429 . S
C260 H284 0.950 . S
C261 C278 1.574 . S
C261 C280 1.368 . S
C261 H285 0.949 . S
H262 C266 0.949 . S
C263 C264 1.349 . S
C263 C265 1.327 . S
C263 H286 0.950 . S
C264 C263 1.349 . S
C264 C276 1.349 . S
C265 C263 1.327 . S
C265 C281 1.429 . S
C265 H287 0.950 . S
C266 H262 0.949 . S
C266 C274 1.574 . S
C266 C282 1.368 . S
H267 C275 0.950 . S
H268 C273 0.950 . S
H269 C274 0.949 . S
H270 C276 0.950 . S
H271 C277 0.950 . S
H272 C278 0.949 . S
C273 H268 0.950 . S
C273 C275 1.327 . S
C273 C279 1.429 . S
C274 C266 1.574 . S
C274 H269 0.949 . S
C274 C280 1.368 . S
C275 C259 1.349 . S
C275 H267 0.950 . S
C275 C273 1.327 . S
C276 C264 1.349 . S
C276 H270 0.950 . S
C276 C277 1.327 . S
C277 H271 0.950 . S
C277 C276 1.327 . S
C277 C281 1.429 . S
C278 C261 1.574 . S
C278 H272 0.949 . S
C278 C282 1.368 . S
C279 C260 1.429 . S
C279 C273 1.429 . S
C279 C280 1.523 . S
C280 C261 1.368 . S
C280 C274 1.368 . S
C280 C279 1.523 . S
C281 C265 1.429 . S
C281 C277 1.429 . S
C281 C282 1.523 . S
C282 C266 1.368 . S
C282 C278 1.368 . S
C282 C281 1.523 . S
H283 C258 0.950 . S
H284 C260 0.950 . S
H285 C261 0.949 . S
H286 C263 0.950 . S
H287 C265 0.950 . S
C288 C289 1.349 . S
C288 C290 1.327 . S
C288 H313 0.950 . S
C289 C288 1.349 . S
C289 C305 1.349 . S
C290 C288 1.327 . S
C290 C309 1.429 . S
C290 H314 0.950 . S
C291 C308 1.574 . S
C291 C310 1.368 . S
C291 H315 0.949 . S
H292 C296 0.949 . S
C293 C294 1.349 . S
C293 C295 1.327 . S
C293 H316 0.950 . S
C294 C293 1.349 . S
C294 C306 1.349 . S
C295 C293 1.327 . S
C295 C311 1.429 . S
C295 H317 0.950 . S
C296 H292 0.949 . S
C296 C304 1.574 . S
C296 C312 1.368 . S
H297 C305 0.950 . S
H298 C303 0.950 . S
H299 C304 0.949 . S
H300 C306 0.950 . S
H301 C307 0.950 . S
H302 C308 0.949 . S
C303 H298 0.950 . S
C303 C305 1.327 . S
C303 C309 1.429 . S
C304 C296 1.574 . S
C304 H299 0.949 . S
C304 C310 1.368 . S
C305 C289 1.349 . S
C305 H297 0.950 . S
C305 C303 1.327 . S
C306 C294 1.349 . S
C306 H300 0.950 . S
C306 C307 1.327 . S
C307 H301 0.950 . S
C307 C306 1.327 . S
C307 C311 1.429 . S
C308 C291 1.574 . S
C308 H302 0.949 . S
C308 C312 1.368 . S
C309 C290 1.429 . S
C309 C303 1.429 . S
C309 C310 1.523 . S
C310 C291 1.368 . S
C310 C304 1.368 . S
C310 C309 1.523 . S
C311 C295 1.429 . S
C311 C307 1.429 . S
C311 C312 1.523 . S
C312 C296 1.368 . S
C312 C308 1.368 . S
C312 C311 1.523 . S
H313 C288 0.950 . S
H314 C290 0.950 . S
H315 C291 0.949 . S
H316 C293 0.950 . S
H317 C295 0.950 . S
C318 C319 1.349 . S
C318 C320 1.327 . S
C318 H343 0.950 . S
C319 C318 1.349 . S
C319 C335 1.349 . S
C320 C318 1.327 . S
C320 C339 1.429 . S
C320 H344 0.950 . S
C321 C338 1.574 . S
C321 C340 1.368 . S
C321 H345 0.949 . S
H322 C326 0.949 . S
C323 C324 1.349 . S
C323 C325 1.327 . S
C323 H346 0.950 . S
C324 C323 1.349 . S
C324 C336 1.349 . S
C325 C323 1.327 . S
C325 C341 1.429 . S
C325 H347 0.950 . S
C326 H322 0.949 . S
C326 C334 1.574 . S
C326 C342 1.368 . S
H327 C335 0.950 . S
H328 C333 0.950 . S
H329 C334 0.949 . S
H330 C336 0.950 . S
H331 C337 0.950 . S
H332 C338 0.949 . S
C333 H328 0.950 . S
C333 C335 1.327 . S
C333 C339 1.429 . S
C334 C326 1.574 . S
C334 H329 0.949 . S
C334 C340 1.368 . S
C335 C319 1.349 . S
C335 H327 0.950 . S
C335 C333 1.327 . S
C336 C324 1.349 . S
C336 H330 0.950 . S
C336 C337 1.327 . S
C337 H331 0.950 . S
C337 C336 1.327 . S
C337 C341 1.429 . S
C338 C321 1.574 . S
C338 H332 0.949 . S
C338 C342 1.368 . S
C339 C320 1.429 . S
C339 C333 1.429 . S
C339 C340 1.523 . S
C340 C321 1.368 . S
C340 C334 1.368 . S
C340 C339 1.523 . S
C341 C325 1.429 . S
C341 C337 1.429 . S
C341 C342 1.523 . S
C342 C326 1.368 . S
C342 C338 1.368 . S
C342 C341 1.523 . S
H343 C318 0.950 . S
H344 C320 0.950 . S
H345 C321 0.949 . S
H346 C323 0.950 . S
H347 C325 0.950 . S
C348 C349 1.349 . S
C348 C350 1.327 . S
C348 H373 0.950 . S
C349 C348 1.349 . S
C349 C365 1.349 . S
C350 C348 1.327 . S
C350 C369 1.429 . S
C350 H374 0.950 . S
C351 C368 1.574 . S
C351 C370 1.368 1_565 S
C351 H375 0.949 . S
H352 C356 0.949 . S
C353 C354 1.349 . S
C353 C355 1.327 . S
C353 H376 0.950 . S
C354 C353 1.349 . S
C354 C366 1.349 . S
C355 C353 1.327 . S
C355 C371 1.429 . S
C355 H377 0.950 . S
C356 H352 0.949 . S
C356 C364 1.574 . S
C356 C372 1.368 1_545 S
H357 C365 0.950 1_565 S
H358 C363 0.950 . S
H359 C364 0.949 . S
H360 C366 0.950 1_545 S
H361 C367 0.950 . S
H362 C368 0.949 . S
C363 H358 0.950 . S
C363 C365 1.327 1_565 S
C363 C369 1.429 1_565 S
C364 C356 1.574 . S
C364 H359 0.949 . S
C364 C370 1.368 . S
C365 C349 1.349 . S
C365 H357 0.950 1_545 S
C365 C363 1.327 1_545 S
C366 C354 1.349 . S
C366 H360 0.950 1_565 S
C366 C367 1.327 1_565 S
C367 H361 0.950 . S
C367 C366 1.327 1_545 S
C367 C371 1.429 1_545 S
C368 C351 1.574 . S
C368 H362 0.949 . S
C368 C372 1.368 . S
C369 C350 1.429 . S
C369 C363 1.429 1_545 S
C369 C370 1.523 . S
C370 C351 1.368 1_545 S
C370 C364 1.368 . S
C370 C369 1.523 . S
C371 C355 1.429 . S
C371 C367 1.429 1_565 S
C371 C372 1.523 . S
C372 C356 1.368 1_565 S
C372 C368 1.368 . S
C372 C371 1.523 . S
H373 C348 0.950 . S
H374 C350 0.950 . S
H375 C351 0.949 . S
H376 C353 0.950 . S
H377 C355 0.950 . S
C378 C379 1.349 . S
C378 C380 1.327 . S
C378 H403 0.950 . S
C379 C378 1.349 . S
C379 C395 1.349 . S
C380 C378 1.327 . S
C380 C399 1.429 . S
C380 H404 0.950 . S
C381 C398 1.574 . S
C381 C400 1.368 . S
C381 H405 0.949 . S
H382 C386 0.949 . S
C383 C384 1.349 . S
C383 C385 1.327 . S
C383 H406 0.950 . S
C384 C383 1.349 . S
C384 C396 1.349 . S
C385 C383 1.327 . S
C385 C401 1.429 . S
C385 H407 0.950 . S
C386 H382 0.949 . S
C386 C394 1.574 . S
C386 C402 1.368 . S
H387 C395 0.950 . S
H388 C393 0.950 . S
H389 C394 0.949 . S
H390 C396 0.950 . S
H391 C397 0.950 . S
H392 C398 0.949 . S
C393 H388 0.950 . S
C393 C395 1.327 . S
C393 C399 1.429 . S
C394 C386 1.574 . S
C394 H389 0.949 . S
C394 C400 1.368 . S
C395 C379 1.349 . S
C395 H387 0.950 . S
C395 C393 1.327 . S
C396 C384 1.349 . S
C396 H390 0.950 . S
C396 C397 1.327 . S
C397 H391 0.950 . S
C397 C396 1.327 . S
C397 C401 1.429 . S
C398 C381 1.574 . S
C398 H392 0.949 . S
C398 C402 1.368 . S
C399 C380 1.429 . S
C399 C393 1.429 . S
C399 C400 1.523 . S
C400 C381 1.368 . S
C400 C394 1.368 . S
C400 C399 1.523 . S
C401 C385 1.429 . S
C401 C397 1.429 . S
C401 C402 1.523 . S
C402 C386 1.368 . S
C402 C398 1.368 . S
C402 C401 1.523 . S
H403 C378 0.950 . S
H404 C380 0.950 . S
H405 C381 0.949 . S
H406 C383 0.950 . S
H407 C385 0.950 . S
C408 C409 1.349 . S
C408 C410 1.327 1_455 S
C408 H433 0.950 1_456 S
C409 C408 1.349 . S
C409 C425 1.349 . S
C410 C408 1.327 1_655 S
C410 C429 1.429 1_655 S
C410 H434 0.950 1_556 S
C411 C428 1.574 . S
C411 C430 1.368 . S
C411 H435 0.949 . S
H412 C416 0.949 1_554 S
C413 C414 1.349 . S
C413 C415 1.327 1_655 S
C413 H436 0.950 1_655 S
C414 C413 1.349 . S
C414 C426 1.349 . S
C415 C413 1.327 1_455 S
C415 C431 1.429 1_455 S
C415 H437 0.950 . S
C416 H412 0.949 1_556 S
C416 C424 1.574 . S
C416 C432 1.368 . S
H417 C425 0.950 . S
H418 C423 0.950 . S
H419 C424 0.949 1_554 S
H420 C426 0.950 1_554 S
H421 C427 0.950 1_554 S
H422 C428 0.949 . S
C423 H418 0.950 . S
C423 C425 1.327 . S
C423 C429 1.429 . S
C424 C416 1.574 . S
C424 H419 0.949 1_556 S
C424 C430 1.368 1_655 S
C425 C409 1.349 . S
C425 H417 0.950 . S
C425 C423 1.327 . S
C426 C414 1.349 . S
C426 H420 0.950 1_556 S
C426 C427 1.327 . S
C427 H421 0.950 1_556 S
C427 C426 1.327 . S
C427 C431 1.429 . S
C428 C411 1.574 . S
C428 H422 0.949 . S
C428 C432 1.368 1_455 S
C429 C410 1.429 1_455 S
C429 C423 1.429 . S
C429 C430 1.523 . S
C430 C411 1.368 . S
C430 C424 1.368 1_455 S
C430 C429 1.523 . S
C431 C415 1.429 1_655 S
C431 C427 1.429 . S
C431 C432 1.523 . S
C432 C416 1.368 . S
C432 C428 1.368 1_655 S
C432 C431 1.523 . S
H433 C408 0.950 1_654 S
H434 C410 0.950 1_554 S
H435 C411 0.949 . S
H436 C413 0.950 1_455 S
H437 C415 0.950 . S
C438 C439 1.349 . S
C438 C440 1.327 . S
C438 H463 0.950 . S
C439 C438 1.349 . S
C439 C455 1.349 . S
C440 C438 1.327 . S
C440 C459 1.429 . S
C440 H464 0.950 . S
C441 C458 1.574 . S
C441 C460 1.368 1_455 S
C441 H465 0.949 . S
H442 C446 0.949 . S
C443 C444 1.349 . S
C443 C445 1.327 . S
C443 H466 0.950 . S
C444 C443 1.349 . S
C444 C456 1.349 . S
C445 C443 1.327 . S
C445 C461 1.429 . S
C445 H467 0.950 . S
C446 H442 0.949 . S
C446 C454 1.574 . S
C446 C462 1.368 1_655 S
H447 C455 0.950 1_455 S
H448 C453 0.950 . S
H449 C454 0.949 . S
H450 C456 0.950 1_655 S
H451 C457 0.950 . S
H452 C458 0.949 . S
C453 H448 0.950 . S
C453 C455 1.327 1_455 S
C453 C459 1.429 1_455 S
C454 C446 1.574 . S
C454 H449 0.949 . S
C454 C460 1.368 . S
C455 C439 1.349 . S
C455 H447 0.950 1_655 S
C455 C453 1.327 1_655 S
C456 C444 1.349 . S
C456 H450 0.950 1_455 S
C456 C457 1.327 1_455 S
C457 H451 0.950 . S
C457 C456 1.327 1_655 S
C457 C461 1.429 1_655 S
C458 C441 1.574 . S
C458 H452 0.949 . S
C458 C462 1.368 . S
C459 C440 1.429 . S
C459 C453 1.429 1_655 S
C459 C460 1.523 . S
C460 C441 1.368 1_655 S
C460 C454 1.368 . S
C460 C459 1.523 . S
C461 C445 1.429 . S
C461 C457 1.429 1_455 S
C461 C462 1.523 . S
C462 C446 1.368 1_455 S
C462 C458 1.368 . S
C462 C461 1.523 . S
H463 C438 0.950 . S
H464 C440 0.950 . S
H465 C441 0.949 . S
H466 C443 0.950 . S
H467 C445 0.950 . S
C468 C469 1.349 . S
C468 C470 1.327 . S
C468 H493 0.950 . S
C469 C468 1.349 . S
C469 C485 1.349 . S
C470 C468 1.327 . S
C470 C489 1.429 . S
C470 H494 0.950 . S
C471 C488 1.574 . S
C471 C490 1.368 1_565 S
C471 H495 0.949 . S
H472 C476 0.949 . S
C473 C474 1.349 . S
C473 C475 1.327 . S
C473 H496 0.950 . S
C474 C473 1.349 . S
C474 C486 1.349 . S
C475 C473 1.327 . S
C475 C491 1.429 . S
C475 H497 0.950 . S
C476 H472 0.949 . S
C476 C484 1.574 . S
C476 C492 1.368 1_545 S
H477 C485 0.950 1_565 S
H478 C483 0.950 . S
H479 C484 0.949 . S
H480 C486 0.950 1_545 S
H481 C487 0.950 . S
H482 C488 0.949 . S
C483 H478 0.950 . S
C483 C485 1.327 1_565 S
C483 C489 1.429 1_565 S
C484 C476 1.574 . S
C484 H479 0.949 . S
C484 C490 1.368 . S
C485 C469 1.349 . S
C485 H477 0.950 1_545 S
C485 C483 1.327 1_545 S
C486 C474 1.349 . S
C486 H480 0.950 1_565 S
C486 C487 1.327 1_565 S
C487 H481 0.950 . S
C487 C486 1.327 1_545 S
C487 C491 1.429 1_545 S
C488 C471 1.574 . S
C488 H482 0.949 . S
C488 C492 1.368 . S
C489 C470 1.429 . S
C489 C483 1.429 1_545 S
C489 C490 1.523 . S
C490 C471 1.368 1_545 S
C490 C484 1.368 . S
C490 C489 1.523 . S
C491 C475 1.429 . S
C491 C487 1.429 1_565 S
C491 C492 1.523 . S
C492 C476 1.368 1_565 S
C492 C488 1.368 . S
C492 C491 1.523 . S
H493 C468 0.950 . S
H494 C470 0.950 . S
H495 C471 0.949 . S
H496 C473 0.950 . S
H497 C475 0.950 . S
C498 C499 1.349 . S
C498 C500 1.327 . S
C498 H523 0.950 . S
C499 C498 1.349 . S
C499 C515 1.349 . S
C500 C498 1.327 . S
C500 C519 1.429 . S
C500 H524 0.950 . S
C501 C518 1.574 . S
C501 C520 1.368 . S
C501 H525 0.949 1_554 S
H502 C506 0.949 . S
C503 C504 1.349 . S
C503 C505 1.327 . S
C503 H526 0.950 1_554 S
C504 C503 1.349 . S
C504 C516 1.349 . S
C505 C503 1.327 . S
C505 C521 1.429 . S
C505 H527 0.950 1_554 S
C506 H502 0.949 . S
C506 C514 1.574 . S
C506 C522 1.368 . S
H507 C515 0.950 1_556 S
H508 C513 0.950 1_556 S
H509 C514 0.949 . S
H510 C516 0.950 . S
H511 C517 0.950 . S
H512 C518 0.949 1_556 S
C513 H508 0.950 1_554 S
C513 C515 1.327 . S
C513 C519 1.429 . S
C514 C506 1.574 . S
C514 H509 0.949 . S
C514 C520 1.368 . S
C515 C499 1.349 . S
C515 H507 0.950 1_554 S
C515 C513 1.327 . S
C516 C504 1.349 . S
C516 H510 0.950 . S
C516 C517 1.327 . S
C517 H511 0.950 . S
C517 C516 1.327 . S
C517 C521 1.429 . S
C518 C501 1.574 . S
C518 H512 0.949 1_554 S
C518 C522 1.368 . S
C519 C500 1.429 . S
C519 C513 1.429 . S
C519 C520 1.523 . S
C520 C501 1.368 . S
C520 C514 1.368 . S
C520 C519 1.523 . S
C521 C505 1.429 . S
C521 C517 1.429 . S
C521 C522 1.523 . S
C522 C506 1.368 . S
C522 C518 1.368 . S
C522 C521 1.523 . S
H523 C498 0.950 . S
H524 C500 0.950 . S
H525 C501 0.949 1_556 S
H526 C503 0.950 1_556 S
H527 C505 0.950 1_556 S
C528 C529 1.349 . S
C528 C530 1.327 . S
C528 H553 0.950 . S
C529 C528 1.349 . S
C529 C545 1.349 . S
C530 C528 1.327 . S
C530 C549 1.429 . S
C530 H554 0.950 . S
C531 C548 1.574 . S
C531 C550 1.368 . S
C531 H555 0.949 . S
H532 C536 0.949 . S
C533 C534 1.349 . S
C533 C535 1.327 . S
C533 H556 0.950 . S
C534 C533 1.349 . S
C534 C546 1.349 . S
C535 C533 1.327 . S
C535 C551 1.429 . S
C535 H557 0.950 . S
C536 H532 0.949 . S
C536 C544 1.574 . S
C536 C552 1.368 . S
H537 C545 0.950 . S
H538 C543 0.950 . S
H539 C544 0.949 . S
H540 C546 0.950 . S
H541 C547 0.950 . S
H542 C548 0.949 . S
C543 H538 0.950 . S
C543 C545 1.327 . S
C543 C549 1.429 . S
C544 C536 1.574 . S
C544 H539 0.949 . S
C544 C550 1.368 . S
C545 C529 1.349 . S
C545 H537 0.950 . S
C545 C543 1.327 . S
C546 C534 1.349 . S
C546 H540 0.950 . S
C546 C547 1.327 . S
C547 H541 0.950 . S
C547 C546 1.327 . S
C547 C551 1.429 . S
C548 C531 1.574 . S
C548 H542 0.949 . S
C548 C552 1.368 . S
C549 C530 1.429 . S
C549 C543 1.429 . S
C549 C550 1.523 . S
C550 C531 1.368 . S
C550 C544 1.368 . S
C550 C549 1.523 . S
C551 C535 1.429 . S
C551 C547 1.429 . S
C551 C552 1.523 . S
C552 C536 1.368 . S
C552 C548 1.368 . S
C552 C551 1.523 . S
H553 C528 0.950 . S
H554 C530 0.950 . S
H555 C531 0.949 . S
H556 C533 0.950 . S
H557 C535 0.950 . S
C558 C559 1.349 . S
C558 C560 1.327 . S
C558 H583 0.950 . S
C559 C558 1.349 . S
C559 C575 1.349 . S
C560 C558 1.327 . S
C560 C579 1.429 . S
C560 H584 0.950 . S
C561 C578 1.574 . S
C561 C580 1.368 . S
C561 H585 0.949 . S
H562 C566 0.949 . S
C563 C564 1.349 . S
C563 C565 1.327 . S
C563 H586 0.950 . S
C564 C563 1.349 . S
C564 C576 1.349 . S
C565 C563 1.327 . S
C565 C581 1.429 . S
C565 H587 0.950 . S
C566 H562 0.949 . S
C566 C574 1.574 . S
C566 C582 1.368 . S
H567 C575 0.950 . S
H568 C573 0.950 . S
H569 C574 0.949 . S
H570 C576 0.950 . S
H571 C577 0.950 . S
H572 C578 0.949 . S
C573 H568 0.950 . S
C573 C575 1.327 . S
C573 C579 1.429 . S
C574 C566 1.574 . S
C574 H569 0.949 . S
C574 C580 1.368 . S
C575 C559 1.349 . S
C575 H567 0.950 . S
C575 C573 1.327 . S
C576 C564 1.349 . S
C576 H570 0.950 . S
C576 C577 1.327 . S
C577 H571 0.950 . S
C577 C576 1.327 . S
C577 C581 1.429 . S
C578 C561 1.574 . S
C578 H572 0.949 . S
C578 C582 1.368 . S
C579 C560 1.429 . S
C579 C573 1.429 . S
C579 C580 1.523 . S
C580 C561 1.368 . S
C580 C574 1.368 . S
C580 C579 1.523 . S
C581 C565 1.429 . S
C581 C577 1.429 . S
C581 C582 1.523 . S
C582 C566 1.368 . S
C582 C578 1.368 . S
C582 C581 1.523 . S
H583 C558 0.950 . S
H584 C560 0.950 . S
H585 C561 0.949 . S
H586 C563 0.950 . S
H587 C565 0.950 . S
C588 C589 1.349 . S
C588 C590 1.327 . S
C588 H613 0.950 . S
C589 C588 1.349 . S
C589 C605 1.349 . S
C590 C588 1.327 . S
C590 C609 1.429 . S
C590 H614 0.950 . S
C591 C608 1.574 . S
C591 C610 1.368 1_556 S
C591 H615 0.949 . S
H592 C596 0.949 . S
C593 C594 1.349 . S
C593 C595 1.327 . S
C593 H616 0.950 . S
C594 C593 1.349 . S
C594 C606 1.349 . S
C595 C593 1.327 . S
C595 C611 1.429 . S
C595 H617 0.950 . S
C596 H592 0.949 . S
C596 C604 1.574 . S
C596 C612 1.368 1_554 S
H597 C605 0.950 . S
H598 C603 0.950 1_556 S
H599 C604 0.949 . S
H600 C606 0.950 . S
H601 C607 0.950 1_554 S
H602 C608 0.949 . S
C603 H598 0.950 1_554 S
C603 C605 1.327 . S
C603 C609 1.429 . S
C604 C596 1.574 . S
C604 H599 0.949 . S
C604 C610 1.368 . S
C605 C589 1.349 . S
C605 H597 0.950 . S
C605 C603 1.327 . S
C606 C594 1.349 . S
C606 H600 0.950 . S
C606 C607 1.327 . S
C607 H601 0.950 1_556 S
C607 C606 1.327 . S
C607 C611 1.429 . S
C608 C591 1.574 . S
C608 H602 0.949 . S
C608 C612 1.368 . S
C609 C590 1.429 . S
C609 C603 1.429 . S
C609 C610 1.523 . S
C610 C591 1.368 1_554 S
C610 C604 1.368 . S
C610 C609 1.523 . S
C611 C595 1.429 . S
C611 C607 1.429 . S
C611 C612 1.523 . S
C612 C596 1.368 1_556 S
C612 C608 1.368 . S
C612 C611 1.523 . S
H613 C588 0.950 . S
H614 C590 0.950 . S
H615 C591 0.949 . S
H616 C593 0.950 . S
H617 C595 0.950 . S
C618 C619 1.349 . S
C618 C620 1.327 . S
C618 H643 0.950 . S
C619 C618 1.349 . S
C619 C635 1.349 . S
C620 C618 1.327 . S
C620 C639 1.429 . S
C620 H644 0.950 . S
C621 C638 1.574 . S
C621 C640 1.368 . S
C621 H645 0.949 . S
H622 C626 0.949 . S
C623 C624 1.349 . S
C623 C625 1.327 . S
C623 H646 0.950 . S
C624 C623 1.349 . S
C624 C636 1.349 . S
C625 C623 1.327 . S
C625 C641 1.429 . S
C625 H647 0.950 . S
C626 H622 0.949 . S
C626 C634 1.574 . S
C626 C642 1.368 . S
H627 C635 0.950 . S
H628 C633 0.950 . S
H629 C634 0.949 . S
H630 C636 0.950 . S
H631 C637 0.950 . S
H632 C638 0.949 . S
C633 H628 0.950 . S
C633 C635 1.327 . S
C633 C639 1.429 . S
C634 C626 1.574 . S
C634 H629 0.949 . S
C634 C640 1.368 . S
C635 C619 1.349 . S
C635 H627 0.950 . S
C635 C633 1.327 . S
C636 C624 1.349 . S
C636 H630 0.950 . S
C636 C637 1.327 . S
C637 H631 0.950 . S
C637 C636 1.327 . S
C637 C641 1.429 . S
C638 C621 1.574 . S
C638 H632 0.949 . S
C638 C642 1.368 . S
C639 C620 1.429 . S
C639 C633 1.429 . S
C639 C640 1.523 . S
C640 C621 1.368 . S
C640 C634 1.368 . S
C640 C639 1.523 . S
C641 C625 1.429 . S
C641 C637 1.429 . S
C641 C642 1.523 . S
C642 C626 1.368 . S
C642 C638 1.368 . S
C642 C641 1.523 . S
H643 C618 0.950 . S
H644 C620 0.950 . S
H645 C621 0.949 . S
H646 C623 0.950 . S
H647 C625 0.950 . S
C648 C649 1.349 . S
C648 C650 1.327 . S
C648 H673 0.950 . S
C649 C648 1.349 . S
C649 C665 1.349 . S
C650 C648 1.327 . S
C650 C669 1.429 . S
C650 H674 0.950 . S
C651 C668 1.574 . S
C651 C670 1.368 . S
C651 H675 0.949 . S
H652 C656 0.949 . S
C653 C654 1.349 . S
C653 C655 1.327 . S
C653 H676 0.950 . S
C654 C653 1.349 . S
C654 C666 1.349 . S
C655 C653 1.327 . S
C655 C671 1.429 . S
C655 H677 0.950 . S
C656 H652 0.949 . S
C656 C664 1.574 . S
C656 C672 1.368 . S
H657 C665 0.950 . S
H658 C663 0.950 . S
H659 C664 0.949 . S
H660 C666 0.950 . S
H661 C667 0.950 . S
H662 C668 0.949 . S
C663 H658 0.950 . S
C663 C665 1.327 . S
C663 C669 1.429 . S
C664 C656 1.574 . S
C664 H659 0.949 . S
C664 C670 1.368 . S
C665 C649 1.349 . S
C665 H657 0.950 . S
C665 C663 1.327 . S
C666 C654 1.349 . S
C666 H660 0.950 . S
C666 C667 1.327 . S
C667 H661 0.950 . S
C667 C666 1.327 . S
C667 C671 1.429 . S
C668 C651 1.574 . S
C668 H662 0.949 . S
C668 C672 1.368 . S
C669 C650 1.429 . S
C669 C663 1.429 . S
C669 C670 1.523 . S
C670 C651 1.368 . S
C670 C664 1.368 . S
C670 C669 1.523 . S
C671 C655 1.429 . S
C671 C667 1.429 . S
C671 C672 1.523 . S
C672 C656 1.368 . S
C672 C668 1.368 . S
C672 C671 1.523 . S
H673 C648 0.950 . S
H674 C650 0.950 . S
H675 C651 0.949 . S
H676 C653 0.950 . S
H677 C655 0.950 . S
C678 C679 1.349 . S
C678 C680 1.327 . S
C678 H703 0.950 . S
C679 C678 1.349 . S
C679 C695 1.349 . S
C680 C678 1.327 . S
C680 C699 1.429 . S
C680 H704 0.950 . S
C681 C698 1.574 . S
C681 C700 1.368 1_556 S
C681 H705 0.949 . S
H682 C686 0.949 . S
C683 C684 1.349 . S
C683 C685 1.327 . S
C683 H706 0.950 . S
C684 C683 1.349 . S
C684 C696 1.349 . S
C685 C683 1.327 . S
C685 C701 1.429 . S
C685 H707 0.950 . S
C686 H682 0.949 . S
C686 C694 1.574 . S
C686 C702 1.368 1_554 S
H687 C695 0.950 . S
H688 C693 0.950 1_556 S
H689 C694 0.949 . S
H690 C696 0.950 . S
H691 C697 0.950 1_554 S
H692 C698 0.949 . S
C693 H688 0.950 1_554 S
C693 C695 1.327 . S
C693 C699 1.429 . S
C694 C686 1.574 . S
C694 H689 0.949 . S
C694 C700 1.368 . S
C695 C679 1.349 . S
C695 H687 0.950 . S
C695 C693 1.327 . S
C696 C684 1.349 . S
C696 H690 0.950 . S
C696 C697 1.327 . S
C697 H691 0.950 1_556 S
C697 C696 1.327 . S
C697 C701 1.429 . S
C698 C681 1.574 . S
C698 H692 0.949 . S
C698 C702 1.368 . S
C699 C680 1.429 . S
C699 C693 1.429 . S
C699 C700 1.523 . S
C700 C681 1.368 1_554 S
C700 C694 1.368 . S
C700 C699 1.523 . S
C701 C685 1.429 . S
C701 C697 1.429 . S
C701 C702 1.523 . S
C702 C686 1.368 1_556 S
C702 C698 1.368 . S
C702 C701 1.523 . S
H703 C678 0.950 . S
H704 C680 0.950 . S
H705 C681 0.949 . S
H706 C683 0.950 . S
H707 C685 0.950 . S
C708 C709 1.349 . S
C708 C710 1.327 . S
C708 H733 0.950 . S
C709 C708 1.349 . S
C709 C725 1.338 1_545 S
C710 C708 1.327 . S
C710 C729 1.429 . S
C710 H734 0.950 . S
C711 C728 1.574 . S
C711 C730 1.368 1_565 S
C711 H735 0.949 . S
H712 C716 0.949 . S
C713 C714 1.349 . S
C713 C715 1.327 . S
C713 H736 0.950 . S
C714 C713 1.349 . S
C714 C726 1.338 1_565 S
C715 C713 1.327 . S
C715 C731 1.429 . S
C715 H737 0.950 . S
C716 H712 0.949 . S
C716 C724 1.574 . S
C716 C732 1.368 1_545 S
H717 C725 0.959 . S
H718 C723 0.950 . S
H719 C724 0.949 . S
H720 C726 0.959 . S
H721 C727 0.950 . S
H722 C728 0.949 . S
C723 H718 0.950 . S
C723 C725 1.329 . S
C723 C729 1.429 1_565 S
C724 C716 1.574 . S
C724 H719 0.949 . S
C724 C730 1.368 . S
C725 C709 1.338 1_565 S
C725 H717 0.959 . S
C725 C723 1.329 . S
C726 C714 1.338 1_545 S
C726 H720 0.959 . S
C726 C727 1.329 . S
C727 H721 0.950 . S
C727 C726 1.329 . S
C727 C731 1.429 1_545 S
C728 C711 1.574 . S
C728 H722 0.949 . S
C728 C732 1.368 . S
C729 C710 1.429 . S
C729 C723 1.429 1_545 S
C729 C730 1.523 . S
C730 C711 1.368 1_545 S
C730 C724 1.368 . S
C730 C729 1.523 . S
C731 C715 1.429 . S
C731 C727 1.429 1_565 S
C731 C732 1.523 . S
C732 C716 1.368 1_565 S
C732 C728 1.368 . S
C732 C731 1.523 . S
H733 C708 0.950 . S
H734 C710 0.950 . S
H735 C711 0.949 . S
H736 C713 0.950 . S
H737 C715 0.950 . S
C738 C739 1.349 . S
C738 C740 1.327 . S
C738 H763 0.950 . S
C739 C738 1.349 . S
C739 C755 1.349 . S
C740 C738 1.327 . S
C740 C759 1.429 . S
C740 H764 0.950 . S
C741 C758 1.574 . S
C741 C760 1.368 . S
C741 H765 0.949 . S
H742 C746 0.949 . S
C743 C744 1.349 . S
C743 C745 1.327 . S
C743 H766 0.950 . S
C744 C743 1.349 . S
C744 C756 1.349 . S
C745 C743 1.327 . S
C745 C761 1.429 . S
C745 H767 0.950 . S
C746 H742 0.949 . S
C746 C754 1.574 . S
C746 C762 1.368 . S
H747 C755 0.950 . S
H748 C753 0.950 . S
H749 C754 0.949 . S
H750 C756 0.950 . S
H751 C757 0.950 . S
H752 C758 0.949 . S
C753 H748 0.950 . S
C753 C755 1.327 . S
C753 C759 1.429 . S
C754 C746 1.574 . S
C754 H749 0.949 . S
C754 C760 1.368 . S
C755 C739 1.349 . S
C755 H747 0.950 . S
C755 C753 1.327 . S
C756 C744 1.349 . S
C756 H750 0.950 . S
C756 C757 1.327 . S
C757 H751 0.950 . S
C757 C756 1.327 . S
C757 C761 1.429 . S
C758 C741 1.574 . S
C758 H752 0.949 . S
C758 C762 1.368 . S
C759 C740 1.429 . S
C759 C753 1.429 . S
C759 C760 1.523 . S
C760 C741 1.368 . S
C760 C754 1.368 . S
C760 C759 1.523 . S
C761 C745 1.429 . S
C761 C757 1.429 . S
C761 C762 1.523 . S
C762 C746 1.368 . S
C762 C758 1.368 . S
C762 C761 1.523 . S
H763 C738 0.950 . S
H764 C740 0.950 . S
H765 C741 0.949 . S
H766 C743 0.950 . S
H767 C745 0.950 . S
C768 C769 1.349 1_655 S
C768 C770 1.327 . S
C768 H793 0.950 . S
C769 C768 1.349 1_455 S
C769 C785 1.349 . S
C770 C768 1.327 . S
C770 C789 1.429 1_655 S
C770 H794 0.950 . S
C771 C788 1.574 . S
C771 C790 1.368 . S
C771 H795 0.949 . S
H772 C776 0.949 . S
C773 C774 1.349 1_455 S
C773 C775 1.327 . S
C773 H796 0.950 . S
C774 C773 1.349 1_655 S
C774 C786 1.349 . S
C775 C773 1.327 . S
C775 C791 1.429 1_455 S
C775 H797 0.950 . S
C776 H772 0.949 . S
C776 C784 1.574 . S
C776 C792 1.368 . S
H777 C785 0.950 . S
H778 C783 0.950 . S
H779 C784 0.949 . S
H780 C786 0.950 . S
H781 C787 0.950 . S
H782 C788 0.949 . S
C783 H778 0.950 . S
C783 C785 1.327 . S
C783 C789 1.429 . S
C784 C776 1.574 . S
C784 H779 0.949 . S
C784 C790 1.368 1_655 S
C785 C769 1.349 . S
C785 H777 0.950 . S
C785 C783 1.327 . S
C786 C774 1.349 . S
C786 H780 0.950 . S
C786 C787 1.327 . S
C787 H781 0.950 . S
C787 C786 1.327 . S
C787 C791 1.429 . S
C788 C771 1.574 . S
C788 H782 0.949 . S
C788 C792 1.368 1_455 S
C789 C770 1.429 1_455 S
C789 C783 1.429 . S
C789 C790 1.523 . S
C790 C771 1.368 . S
C790 C784 1.368 1_455 S
C790 C789 1.523 . S
C791 C775 1.429 1_655 S
C791 C787 1.429 . S
C791 C792 1.523 . S
C792 C776 1.368 . S
C792 C788 1.368 1_655 S
C792 C791 1.523 . S
H793 C768 0.950 . S
H794 C770 0.950 . S
H795 C771 0.949 . S
H796 C773 0.950 . S
H797 C775 0.950 . S
C798 C799 1.349 1_545 S
C798 C800 1.327 . S
C798 H823 0.950 . S
C799 C798 1.349 1_565 S
C799 C815 1.349 . S
C800 C798 1.327 . S
C800 C819 1.429 1_545 S
C800 H824 0.950 . S
C801 C818 1.574 . S
C801 C820 1.368 . S
C801 H825 0.949 . S
H802 C806 0.949 . S
C803 C804 1.349 1_565 S
C803 C805 1.327 . S
C803 H826 0.950 . S
C804 C803 1.349 1_545 S
C804 C816 1.349 . S
C805 C803 1.327 . S
C805 C821 1.429 1_565 S
C805 H827 0.950 . S
C806 H802 0.949 . S
C806 C814 1.574 . S
C806 C822 1.368 . S
H807 C815 0.950 . S
H808 C813 0.950 . S
H809 C814 0.949 . S
H810 C816 0.950 . S
H811 C817 0.950 . S
H812 C818 0.949 . S
C813 H808 0.950 . S
C813 C815 1.327 . S
C813 C819 1.429 . S
C814 C806 1.574 . S
C814 H809 0.949 . S
C814 C820 1.368 1_545 S
C815 C799 1.349 . S
C815 H807 0.950 . S
C815 C813 1.327 . S
C816 C804 1.349 . S
C816 H810 0.950 . S
C816 C817 1.327 . S
C817 H811 0.950 . S
C817 C816 1.327 . S
C817 C821 1.429 . S
C818 C801 1.574 . S
C818 H812 0.949 . S
C818 C822 1.368 1_565 S
C819 C800 1.429 1_565 S
C819 C813 1.429 . S
C819 C820 1.523 . S
C820 C801 1.368 . S
C820 C814 1.368 1_565 S
C820 C819 1.523 . S
C821 C805 1.429 1_545 S
C821 C817 1.429 . S
C821 C822 1.523 . S
C822 C806 1.368 . S
C822 C818 1.368 1_545 S
C822 C821 1.523 . S
H823 C798 0.950 . S
H824 C800 0.950 . S
H825 C801 0.949 . S
H826 C803 0.950 . S
H827 C805 0.950 . S
C828 C829 1.349 . S
C828 C830 1.327 . S
C828 H853 0.950 . S
C829 C828 1.349 . S
C829 C845 1.349 . S
C830 C828 1.327 . S
C830 C849 1.429 . S
C830 H854 0.950 . S
C831 C848 1.574 . S
C831 C850 1.368 . S
C831 H855 0.949 . S
H832 C836 0.949 . S
C833 C834 1.349 . S
C833 C835 1.327 . S
C833 H856 0.950 . S
C834 C833 1.349 . S
C834 C846 1.349 . S
C835 C833 1.327 . S
C835 C851 1.429 . S
C835 H857 0.950 . S
C836 H832 0.949 . S
C836 C844 1.574 . S
C836 C852 1.368 . S
H837 C845 0.950 . S
H838 C843 0.950 . S
H839 C844 0.949 . S
H840 C846 0.950 . S
H841 C847 0.950 . S
H842 C848 0.949 . S
C843 H838 0.950 . S
C843 C845 1.327 . S
C843 C849 1.429 . S
C844 C836 1.574 . S
C844 H839 0.949 . S
C844 C850 1.368 . S
C845 C829 1.349 . S
C845 H837 0.950 . S
C845 C843 1.327 . S
C846 C834 1.349 . S
C846 H840 0.950 . S
C846 C847 1.327 . S
C847 H841 0.950 . S
C847 C846 1.327 . S
C847 C851 1.429 . S
C848 C831 1.574 . S
C848 H842 0.949 . S
C848 C852 1.368 . S
C849 C830 1.429 . S
C849 C843 1.429 . S
C849 C850 1.523 . S
C850 C831 1.368 . S
C850 C844 1.368 . S
C850 C849 1.523 . S
C851 C835 1.429 . S
C851 C847 1.429 . S
C851 C852 1.523 . S
C852 C836 1.368 . S
C852 C848 1.368 . S
C852 C851 1.523 . S
H853 C828 0.950 . S
H854 C830 0.950 . S
H855 C831 0.949 . S
H856 C833 0.950 . S
H857 C835 0.950 . S
C858 C859 1.349 . S
C858 C860 1.327 . S
C858 H883 0.950 . S
C859 C858 1.349 . S
C859 C875 1.349 1_655 S
C860 C858 1.327 . S
C860 C879 1.429 . S
C860 H884 0.950 . S
C861 C878 1.574 . S
C861 C880 1.368 1_455 S
C861 H885 0.949 . S
H862 C866 0.949 . S
C863 C864 1.349 . S
C863 C865 1.327 . S
C863 H886 0.950 . S
C864 C863 1.349 . S
C864 C876 1.349 1_455 S
C865 C863 1.327 . S
C865 C881 1.429 . S
C865 H887 0.950 . S
C866 H862 0.949 . S
C866 C874 1.574 . S
C866 C882 1.368 1_655 S
H867 C875 0.950 . S
H868 C873 0.950 . S
H869 C874 0.949 . S
H870 C876 0.950 . S
H871 C877 0.950 . S
H872 C878 0.949 . S
C873 H868 0.950 . S
C873 C875 1.327 . S
C873 C879 1.429 1_455 S
C874 C866 1.574 . S
C874 H869 0.949 . S
C874 C880 1.368 . S
C875 C859 1.349 1_455 S
C875 H867 0.950 . S
C875 C873 1.327 . S
C876 C864 1.349 1_655 S
C876 H870 0.950 . S
C876 C877 1.327 . S
C877 H871 0.950 . S
C877 C876 1.327 . S
C877 C881 1.429 1_655 S
C878 C861 1.574 . S
C878 H872 0.949 . S
C878 C882 1.368 . S
C879 C860 1.429 . S
C879 C873 1.429 1_655 S
C879 C880 1.523 . S
C880 C861 1.368 1_655 S
C880 C874 1.368 . S
C880 C879 1.523 . S
C881 C865 1.429 . S
C881 C877 1.429 1_455 S
C881 C882 1.523 . S
C882 C866 1.368 1_455 S
C882 C878 1.368 . S
C882 C881 1.523 . S
H883 C858 0.950 . S
H884 C860 0.950 . S
H885 C861 0.949 . S
H886 C863 0.950 . S
H887 C865 0.950 . S
C169 C8 1.873 . S
C174 C120 1.873 . S
C199 C22 1.873 . S
C204 C134 1.873 . S
C229 C148 1.873 . S
C234 C36 1.873 . S
C259 C162 1.873 . S
C264 C50 1.873 . S
C289 C92 1.873 . S
C294 C64 1.873 . S
C319 C106 1.873 . S
C324 C78 1.873 . S
C349 C7 1.526 . S
C354 C49 1.526 . S
C379 C63 1.526 . S
C384 C21 1.526 . S
C409 C77 1.526 . S
C414 C35 1.526 . S
C439 C91 1.526 . S
C444 C133 1.526 . S
C469 C147 1.526 . S
C474 C105 1.526 . S
C499 C119 1.526 . S
C504 C161 1.526 . S
C529 C87 0.647 . S
C534 C3 0.647 . S
C559 C17 0.648 . S
C564 C101 0.648 . S
C589 C115 0.648 . S
C594 C31 0.648 . S
C619 C129 0.647 . S
C624 C45 0.647 . S
C649 C59 0.648 . S
C654 C143 0.648 . S
C679 C157 0.648 . S
C684 C73 0.648 . S
C709 C9 0.886 . S
C714 C107 0.886 . S
C739 C121 0.886 . S
C744 C23 0.886 . S
C769 C135 0.886 . S
C774 C37 0.886 . S
C799 C51 0.886 . S
C804 C149 0.886 . S
C829 C163 0.886 . S
C834 C65 0.886 . S
C859 C93 0.886 . S
C864 C79 0.886 . S
