# Generated by pormake.
# Topology svf, (7)-cn, num edge types: 1
# Building blocks:
#     Node 0, Type 0, BuildingBlock: HICVOG_clean_sbu_0, # of connection points: 7
#     Node 1, Type 0, BuildingBlock: HICVOG_clean_sbu_0, # of connection points: 7
#     Node 2, Type 0, BuildingBlock: HICVOG_clean_sbu_0, # of connection points: 7
#     Node 3, Type 0, BuildingBlock: HICVOG_clean_sbu_0, # of connection points: 7
#     Node 4, Type 0, BuildingBlock: HICVOG_clean_sbu_0, # of connection points: 7
#     Node 5, Type 0, BuildingBlock: HICVOG_clean_sbu_0, # of connection points: 7
#     Node 6, Type 0, BuildingBlock: HICVOG_clean_sbu_0, # of connection points: 7
#     Node 7, Type 0, BuildingBlock: HICVOG_clean_sbu_0, # of connection points: 7
#     Edge 8, Type (0, 0), BuildingBlock: UVAHIK_clean_linker_0, # of connection points: 2
#     Edge 9, Type (0, 0), BuildingBlock: UVAHIK_clean_linker_0, # of connection points: 2
#     Edge 10, Type (0, 0), BuildingBlock: UVAHIK_clean_linker_0, # of connection points: 2
#     Edge 11, Type (0, 0), BuildingBlock: UVAHIK_clean_linker_0, # of connection points: 2
#     Edge 12, Type (0, 0), BuildingBlock: UVAHIK_clean_linker_0, # of connection points: 2
#     Edge 13, Type (0, 0), BuildingBlock: UVAHIK_clean_linker_0, # of connection points: 2
#     Edge 14, Type (0, 0), BuildingBlock: UVAHIK_clean_linker_0, # of connection points: 2
#     Edge 15, Type (0, 0), BuildingBlock: UVAHIK_clean_linker_0, # of connection points: 2
#     Edge 16, Type (0, 0), BuildingBlock: UVAHIK_clean_linker_0, # of connection points: 2
#     Edge 17, Type (0, 0), BuildingBlock: UVAHIK_clean_linker_0, # of connection points: 2
#     Edge 18, Type (0, 0), BuildingBlock: UVAHIK_clean_linker_0, # of connection points: 2
#     Edge 19, Type (0, 0), BuildingBlock: UVAHIK_clean_linker_0, # of connection points: 2
#     Edge 20, Type (0, 0), BuildingBlock: UVAHIK_clean_linker_0, # of connection points: 2
#     Edge 21, Type (0, 0), BuildingBlock: UVAHIK_clean_linker_0, # of connection points: 2
#     Edge 22, Type (0, 0), BuildingBlock: UVAHIK_clean_linker_0, # of connection points: 2
#     Edge 23, Type (0, 0), BuildingBlock: UVAHIK_clean_linker_0, # of connection points: 2
#     Edge 24, Type (0, 0), BuildingBlock: UVAHIK_clean_linker_0, # of connection points: 2
#     Edge 25, Type (0, 0), BuildingBlock: UVAHIK_clean_linker_0, # of connection points: 2
#     Edge 26, Type (0, 0), BuildingBlock: UVAHIK_clean_linker_0, # of connection points: 2
#     Edge 27, Type (0, 0), BuildingBlock: UVAHIK_clean_linker_0, # of connection points: 2
#     Edge 28, Type (0, 0), BuildingBlock: UVAHIK_clean_linker_0, # of connection points: 2
#     Edge 29, Type (0, 0), BuildingBlock: UVAHIK_clean_linker_0, # of connection points: 2
#     Edge 30, Type (0, 0), BuildingBlock: UVAHIK_clean_linker_0, # of connection points: 2
#     Edge 31, Type (0, 0), BuildingBlock: UVAHIK_clean_linker_0, # of connection points: 2
#     Edge 32, Type (0, 0), BuildingBlock: UVAHIK_clean_linker_0, # of connection points: 2
#     Edge 33, Type (0, 0), BuildingBlock: UVAHIK_clean_linker_0, # of connection points: 2
#     Edge 34, Type (0, 0), BuildingBlock: UVAHIK_clean_linker_0, # of connection points: 2
#     Edge 35, Type (0, 0), BuildingBlock: UVAHIK_clean_linker_0, # of connection points: 2
# Relax obj value: 0.312
# Max RMSD: 0.189
# Mean RMSD: 0.189
data_MOF--net-svf--node1-HICVOG_clean_sbu_0--edge1-UVAHIK_clean_linker_0
_symmetry_space_group_name_H-M    P1
_symmetry_Int_Tables_number       1
_symmetry_cell_setting            triclinic
loop_
_symmetry_equiv_pos_as_xyz
'x, y, z'
_cell_length_a     42.964828
_cell_length_b     42.99766
_cell_length_c     32.004006
_cell_angle_alpha  90.060965
_cell_angle_beta   89.857173
_cell_angle_gamma 89.950809
loop_
_atom_site_label
_atom_site_type_symbol
_atom_site_fract_x
_atom_site_fract_y
_atom_site_fract_z
_atom_type_partial_charge
Zn0 Zn 0.17614 0.35436 0.96913 0.0
C1 C 0.2104 0.29416 0.05515 0.0
N2 N 0.22074 0.27796 1.02152 0.0
C3 C 0.21019 0.2948 0.98856 0.0
N4 N 0.19347 0.31992 1.0018 0.0
N5 N 0.1937 0.31946 0.04328 0.0
C6 C 0.20098 0.40547 0.09408 0.0
O7 O 0.1906 0.41072 0.05619 0.0
O8 O 0.16022 0.33944 0.9128 0.0
Zn9 Zn 0.17025 0.34654 0.08171 0.0
N10 N 0.20811 0.38578 0.96586 0.0
C11 C 0.25941 0.40293 0.98132 0.0
C12 C 0.23774 0.37903 0.97764 0.0
C13 C 0.19915 0.4155 0.95806 0.0
N14 N 0.25037 0.43268 0.97406 0.0
C15 C 0.22065 0.43989 0.9629 0.0
O16 O 0.13292 0.37181 0.06037 0.0
C17 C 0.12345 0.38315 1.02593 0.0
O18 O 0.13802 0.37743 0.99213 0.0
H19 H 0.24435 0.35542 0.98503 0.0
H20 H 0.17533 0.41977 0.94893 0.0
C21 C 0.15896 0.32518 0.16499 0.0
C22 C 0.14948 0.30331 0.19503 0.0
C23 C 0.13128 0.27048 0.14043 0.0
C24 C 0.1404 0.29241 0.11094 0.0
N25 N 0.15427 0.3191 0.12382 0.0
N26 N 0.13595 0.27645 0.18156 0.0
H27 H 0.17078 0.34637 0.1737 0.0
C28 C 0.13775 0.32027 0.91557 0.0
O29 O 0.12934 0.31061 0.95288 0.0
O30 O 0.19709 0.37872 0.11014 0.0
H31 H 0.13728 0.28794 0.07795 0.0
H32 H 0.28309 0.39798 0.99058 0.0
H33 H 0.12058 0.24888 0.13079 0.0
Zn34 Zn 0.66912 0.17101 0.06638 0.0
C35 C 0.71679 0.21667 0.97438 0.0
N36 N 0.73117 0.22991 1.00758 0.0
C37 C 0.71605 0.21751 0.04082 0.0
N38 N 0.6933 0.19759 1.02834 0.0
N39 N 0.69392 0.1968 0.98683 0.0
C40 C 0.69868 0.12876 0.9072 0.0
O41 O 0.69958 0.11723 0.94519 0.0
O42 O 0.639 0.19536 0.10213 0.0
Zn43 Zn 0.66404 0.17463 0.95093 0.0
N44 N 0.69965 0.15417 0.1036 0.0
C45 C 0.74978 0.13229 0.11365 0.0
C46 C 0.72606 0.14188 0.08709 0.0
C47 C 0.6958 0.15731 0.14553 0.0
N48 N 0.74583 0.13502 0.15557 0.0
C49 C 0.71938 0.14719 0.17268 0.0
O50 O 0.63846 0.13858 0.97538 0.0
C51 C 0.63163 0.12488 1.00943 0.0
O52 O 0.6427 0.13461 0.04396 0.0
H53 H 0.72885 0.14025 0.05355 0.0
H54 H 0.67483 0.1682 0.15704 0.0
C55 C 0.60433 0.20219 0.94384 0.0
C56 C 0.5818 0.22265 0.92784 0.0
C57 C 0.62138 0.248 0.88853 0.0
C58 C 0.64324 0.2267 0.90305 0.0
N59 N 0.63434 0.2045 0.93072 0.0
N60 N 0.59126 0.24528 0.90086 0.0
H61 H 0.59823 0.18427 0.96599 0.0
C62 C 0.61054 0.19967 0.09317 0.0
O63 O 0.60012 0.19048 0.05663 0.0
O64 O 0.68547 0.15488 0.90145 0.0
H65 H 0.66693 0.22758 0.89199 0.0
H66 H 0.77113 0.12268 0.10113 0.0
H67 H 0.6281 0.26602 0.86674 0.0
Zn68 Zn 0.83447 0.65548 0.96204 0.0
C69 C 0.79424 0.71317 0.04729 0.0
N70 N 0.78304 0.72842 1.01357 0.0
C71 C 0.79529 0.71261 0.98067 0.0
N72 N 0.81396 0.68887 0.99413 0.0
N73 N 0.81308 0.68928 0.03568 0.0
C74 C 0.81169 0.60488 0.09103 0.0
O75 O 0.82151 0.60021 0.05263 0.0
O76 O 0.85477 0.67135 0.9084 0.0
Zn77 Zn 0.83845 0.66506 0.07555 0.0
N78 N 0.80323 0.62374 0.95351 0.0
C79 C 0.75043 0.60731 0.95726 0.0
C80 C 0.77253 0.63096 0.95748 0.0
C81 C 0.81276 0.59371 0.94998 0.0
N82 N 0.75994 0.57734 0.95384 0.0
C83 C 0.7906 0.56968 0.95027 0.0
O84 O 0.87696 0.64063 0.05592 0.0
C85 C 0.88599 0.62785 1.0221 0.0
O86 O 0.8711 0.63235 0.98837 0.0
H87 H 0.76521 0.65476 0.96194 0.0
H88 H 0.83741 0.58874 0.94881 0.0
C89 C 0.85132 0.68991 0.15699 0.0
C90 C 0.85885 0.71388 0.18499 0.0
C91 C 0.86905 0.74741 0.12771 0.0
C92 C 0.86211 0.7234 0.10006 0.0
N93 N 0.85285 0.69538 0.11524 0.0
N94 N 0.86729 0.74211 0.16942 0.0
H95 H 0.84373 0.66739 0.1681 0.0
C96 C 0.87859 0.68852 0.91336 0.0
O97 O 0.8866 0.69638 0.95155 0.0
O98 O 0.81385 0.63204 0.10659 0.0
H99 H 0.86302 0.72732 0.0667 0.0
H100 H 0.72594 0.61267 0.96046 0.0
H101 H 0.87582 0.77005 0.11617 0.0
Zn102 Zn 0.36244 0.82686 0.94974 0.0
C103 C 0.30856 0.78716 0.04086 0.0
N104 N 0.29581 0.77212 1.00778 0.0
C105 C 0.30865 0.78632 0.97416 0.0
N106 N 0.3293 0.80866 0.98602 0.0
N107 N 0.32867 0.80976 1.02759 0.0
C108 C 0.39471 0.81463 0.10289 0.0
O109 O 0.40132 0.80996 0.06325 0.0
O110 O 0.34469 0.84479 0.89648 0.0
Zn111 Zn 0.34661 0.84396 0.0608 0.0
N112 N 0.39253 0.79396 0.93922 0.0
C113 C 0.40607 0.74037 0.9358 0.0
C114 C 0.38363 0.76367 0.93787 0.0
C115 C 0.42318 0.80186 0.93855 0.0
N116 N 0.43662 0.74825 0.93589 0.0
C117 C 0.44612 0.77844 0.93754 0.0
O118 O 0.38083 0.87182 0.03694 0.0
C119 C 0.39533 0.87832 1.00352 0.0
O120 O 0.38943 0.86339 0.97022 0.0
H121 H 0.35947 0.75747 0.93938 0.0
H122 H 0.4293 0.82617 0.93899 0.0
C123 C 0.32074 0.90327 0.07773 0.0
C124 C 0.29764 0.92647 0.07659 0.0
C125 C 0.25966 0.88754 0.06362 0.0
C126 C 0.28282 0.86491 0.06323 0.0
N127 N 0.31288 0.87314 0.07067 0.0
N128 N 0.2676 0.91768 0.06999 0.0
H129 H 0.34487 0.90881 0.08338 0.0
C130 C 0.33142 0.87094 0.90233 0.0
O131 O 0.32847 0.88127 0.94081 0.0
O132 O 0.36909 0.82787 0.11215 0.0
H133 H 0.27681 0.84117 0.05599 0.0
H134 H 0.3993 0.71615 0.93479 0.0
H135 H 0.23565 0.88134 0.05793 0.0
Zn136 Zn 0.1668 0.67151 0.56889 0.0
C137 C 0.21934 0.70958 0.47494 0.0
N138 N 0.23642 0.71998 0.50776 0.0
C139 C 0.2199 0.71048 0.54155 0.0
N140 N 0.19418 0.69437 0.52996 0.0
N141 N 0.19376 0.69366 0.48848 0.0
C142 C 0.19603 0.64524 0.39661 0.0
O143 O 0.21285 0.64063 0.43026 0.0
O144 O 0.1349 0.69852 0.59884 0.0
Zn145 Zn 0.15854 0.67689 0.45686 0.0
N146 N 0.19435 0.65513 0.61057 0.0
C147 C 0.24313 0.63232 0.62706 0.0
C148 C 0.22153 0.64214 0.59758 0.0
C149 C 0.18742 0.6581 0.65182 0.0
N150 N 0.23623 0.63512 0.66827 0.0
C151 C 0.20879 0.64755 0.6818 0.0
O152 O 0.13595 0.63849 0.47954 0.0
C153 C 0.13036 0.62415 0.51349 0.0
O154 O 0.14157 0.63405 0.54781 0.0
H155 H 0.22662 0.6402 0.56456 0.0
H156 H 0.16575 0.66903 0.66078 0.0
C157 C 0.09722 0.70127 0.45178 0.0
C158 C 0.07392 0.72412 0.45558 0.0
C159 C 0.11309 0.76213 0.46716 0.0
C160 C 0.13598 0.73936 0.46348 0.0
N161 N 0.12761 0.70945 0.45551 0.0
N162 N 0.08274 0.75402 0.46317 0.0
H163 H 0.09154 0.67701 0.44742 0.0
C164 C 0.10655 0.69869 0.58739 0.0
O165 O 0.09907 0.68525 0.55195 0.0
O166 O 0.17164 0.66194 0.39933 0.0
H167 H 0.16015 0.74543 0.46786 0.0
H168 H 0.26513 0.62239 0.61735 0.0
H169 H 0.11934 0.78603 0.47354 0.0
Zn170 Zn 0.34359 0.16627 0.46692 0.0
C171 C 0.29237 0.21211 0.55536 0.0
N172 N 0.27864 0.22607 0.52233 0.0
C173 C 0.29304 0.21319 0.48874 0.0
N174 N 0.31549 0.19248 0.5012 0.0
N175 N 0.31438 0.19141 0.54271 0.0
C176 C 0.3134 0.10831 0.59646 0.0
O177 O 0.32116 0.10403 0.55714 0.0
O178 O 0.37362 0.19166 0.43116 0.0
Zn179 Zn 0.34138 0.16818 0.58148 0.0
N180 N 0.31705 0.14321 0.4302 0.0
C181 C 0.26966 0.11651 0.41773 0.0
C182 C 0.29031 0.13067 0.44528 0.0
C183 C 0.32432 0.14196 0.38895 0.0
N184 N 0.27666 0.11566 0.37634 0.0
C185 C 0.30352 0.12806 0.3609 0.0
O186 O 0.37953 0.14312 0.56106 0.0
C187 C 0.38695 0.12876 0.52762 0.0
O188 O 0.37278 0.1344 0.49359 0.0
H189 H 0.28489 0.13226 0.47824 0.0
H190 H 0.34542 0.15309 0.37834 0.0
C191 C 0.35254 0.19341 0.66299 0.0
C192 C 0.36059 0.21711 0.69138 0.0
C193 C 0.3724 0.25021 0.63386 0.0
C194 C 0.36501 0.22645 0.60614 0.0
N195 N 0.35518 0.19865 0.62126 0.0
N196 N 0.3702 0.24494 0.67553 0.0
H197 H 0.34375 0.1712 0.67326 0.0
C198 C 0.40252 0.19566 0.43749 0.0
O199 O 0.41498 0.18547 0.47234 0.0
O200 O 0.31768 0.13491 0.61287 0.0
H201 H 0.36636 0.23024 0.57277 0.0
H202 H 0.24812 0.10655 0.42901 0.0
H203 H 0.37997 0.27264 0.62244 0.0
Zn204 Zn 0.86199 0.33025 0.45608 0.0
C205 C 0.80161 0.29463 0.5408 0.0
N206 N 0.78563 0.28456 0.50693 0.0
C207 C 0.80234 0.2958 0.47419 0.0
N208 N 0.82722 0.31266 0.48785 0.0
N209 N 0.82666 0.31192 0.52933 0.0
C210 C 0.91326 0.31127 0.58735 0.0
O211 O 0.9204 0.32423 0.55146 0.0
O212 O 0.84757 0.34649 0.39968 0.0
Zn213 Zn 0.85234 0.33657 0.56839 0.0
N214 N 0.89348 0.29814 0.45417 0.0
C215 C 0.90886 0.24588 0.46711 0.0
C216 C 0.88558 0.26805 0.46177 0.0
C217 C 0.92378 0.30707 0.45247 0.0
N218 N 0.93911 0.25484 0.46583 0.0
C219 C 0.94744 0.28499 0.45915 0.0
O220 O 0.87676 0.37461 0.54736 0.0
C221 C 0.88891 0.3837 0.51316 0.0
O222 O 0.88436 0.36851 0.47961 0.0
H223 H 0.86144 0.26138 0.46479 0.0
H224 H 0.92906 0.33124 0.44665 0.0
C225 C 0.82926 0.35025 0.6505 0.0
C226 C 0.80588 0.35804 0.67934 0.0
C227 C 0.77162 0.36939 0.62334 0.0
C228 C 0.79502 0.36204 0.59481 0.0
N229 N 0.82309 0.35202 0.60896 0.0
N230 N 0.77756 0.3672 0.66484 0.0
H231 H 0.85181 0.34212 0.66082 0.0
C232 C 0.82937 0.36973 0.40326 0.0
O233 O 0.82067 0.37831 0.44095 0.0
O234 O 0.88497 0.31124 0.59927 0.0
H235 H 0.79054 0.36316 0.5616 0.0
H236 H 0.90296 0.22183 0.47305 0.0
H237 H 0.74891 0.37673 0.61264 0.0
Zn238 Zn 0.67876 0.85693 0.462 0.0
C239 C 0.71488 0.79676 0.54625 0.0
N240 N 0.72549 0.78125 0.51219 0.0
C241 C 0.71309 0.79749 0.47989 0.0
N242 N 0.69568 0.8219 0.49386 0.0
N243 N 0.69699 0.82136 0.53525 0.0
C244 C 0.70956 0.90419 0.58896 0.0
O245 O 0.6993 0.91045 0.55126 0.0
O246 O 0.65821 0.84187 0.40889 0.0
Zn247 Zn 0.67511 0.84785 0.57544 0.0
N248 N 0.71278 0.8853 0.4521 0.0
C249 C 0.76702 0.8961 0.45256 0.0
C250 C 0.7426 0.87492 0.45437 0.0
C251 C 0.70632 0.9161 0.44825 0.0
N252 N 0.76061 0.92688 0.44913 0.0
C253 C 0.73086 0.93779 0.44719 0.0
O254 O 0.6384 0.87518 0.55652 0.0
C255 C 0.62961 0.8884 0.52294 0.0
O256 O 0.64374 0.88303 0.48866 0.0
H257 H 0.74744 0.85055 0.45859 0.0
H258 H 0.68227 0.92323 0.44632 0.0
C259 C 0.6658 0.82304 0.65753 0.0
C260 C 0.65603 0.80026 0.68613 0.0
C261 C 0.63412 0.77137 0.62999 0.0
C262 C 0.6434 0.79429 0.602 0.0
N263 N 0.65919 0.81946 0.61631 0.0
N264 N 0.64051 0.77495 0.67119 0.0
H265 H 0.67907 0.84307 0.6674 0.0
C266 C 0.63177 0.82969 0.41643 0.0
O267 O 0.62329 0.82587 0.45558 0.0
O268 O 0.70408 0.87757 0.60455 0.0
H269 H 0.63889 0.79173 0.56894 0.0
H270 H 0.79089 0.88822 0.45439 0.0
H271 H 0.62188 0.75093 0.61916 0.0
C272 C 0.08401 0.41751 0.06324 0.0
C273 C 0.09701 0.4062 1.02567 0.0
C274 C 0.06128 0.44116 0.06307 0.0
C275 C 1.00332 0.48166 0.99452 0.0
H276 H 1.0077 0.54669 0.0782 0.0
C277 C 0.92326 0.59105 0.98527 0.0
C278 C 0.9123 0.60466 1.0226 0.0
C279 C 0.94598 0.56743 0.98577 0.0
C280 C 1.00568 0.52859 0.05484 0.0
H281 H 0.09544 0.41118 0.95828 0.0
H282 H 0.05586 0.45194 0.958 0.0
H283 H 0.04541 0.50431 0.07911 0.0
H284 H 0.91729 0.60362 0.08996 0.0
H285 H 0.95633 0.56241 0.09097 0.0
H286 H 0.96342 0.50559 0.97048 0.0
C287 C 0.0631 0.44243 0.98774 0.0
C288 C 0.02751 0.50412 0.05536 0.0
C289 C 0.08599 0.41896 0.98791 0.0
C290 C 0.92523 0.59409 0.06046 0.0
C291 C 0.94785 0.57033 0.06099 0.0
C292 C 0.98137 0.50601 0.99414 0.0
C293 C 0.05055 0.45422 1.02533 0.0
C294 C 0.0268 0.48023 1.02515 0.0
C295 C 0.95851 0.5563 1.02366 0.0
C296 C 0.98213 0.53007 1.02421 0.0
H297 H 0.09185 0.40854 0.09302 0.0
H298 H 0.05204 0.44915 0.0927 0.0
H299 H 1.00151 0.4636 0.97105 0.0
H300 H 0.91402 0.59841 0.95541 0.0
H301 H 0.95375 0.55798 0.95618 0.0
C302 C 0.42783 0.91904 0.04099 0.0
C303 C 0.41976 0.90351 1.0037 0.0
C304 C 0.4509 0.94231 0.04146 0.0
C305 C 0.4941 0.99801 0.97252 0.0
H306 H 0.55174 1.00249 0.06521 0.0
C307 C 0.59843 0.08524 0.97094 0.0
C308 C 0.60883 0.0982 1.00891 0.0
C309 C 0.57606 0.06128 0.97024 0.0
C310 C 0.53567 1.0021 0.03924 0.0
H311 H 0.43019 0.90094 0.93748 0.0
H312 H 0.47011 0.94147 0.93826 0.0
H313 H 0.51184 0.96228 0.06415 0.0
H314 H 0.60314 0.09559 0.07611 0.0
H315 H 0.56397 0.05462 0.07499 0.0
H316 H 0.51741 0.03808 0.94786 0.0
C317 C 0.45844 0.93575 0.96726 0.0
C318 C 0.51264 0.97875 0.03861 0.0
C319 C 0.43552 0.91227 0.96684 0.0
C320 C 0.59611 0.08618 0.04619 0.0
C321 C 0.57355 0.06237 0.04549 0.0
C322 C 0.51695 0.02153 0.9733 0.0
C323 C 0.46666 0.95115 1.00462 0.0
C324 C 0.49142 0.97622 1.00522 0.0
C325 C 0.56294 0.04945 1.00748 0.0
C326 C 0.5383 0.02408 1.00665 0.0
H327 H 0.41632 0.91318 0.07008 0.0
H328 H 0.45608 0.95371 0.07081 0.0
H329 H 0.47806 0.99734 0.94649 0.0
H330 H 0.60757 0.09365 0.94148 0.0
H331 H 0.56931 0.05189 0.94023 0.0
C332 C 0.09625 0.58488 0.55127 0.0
C333 C 0.10761 0.5975 0.51355 0.0
C334 C 0.07289 0.56189 0.55136 0.0
C335 C 0.03342 0.50264 0.48357 0.0
H336 H 0.96806 0.50717 0.56699 0.0
C337 C 0.92512 0.42105 0.47557 0.0
C338 C 0.91166 0.41035 0.51311 0.0
C339 C 0.94841 0.44409 0.47566 0.0
C340 C 0.98626 0.50511 0.54371 0.0
H341 H 0.10301 0.59497 0.44616 0.0
H342 H 0.06273 0.55496 0.44633 0.0
H343 H 0.00991 0.5454 0.5674 0.0
H344 H 0.91264 0.41616 0.58038 0.0
H345 H 0.95323 0.45575 0.58066 0.0
H346 H 0.0101 0.4622 0.46011 0.0
C347 C 0.07199 0.5627 0.476 0.0
C348 C 0.01043 0.52724 0.54394 0.0
C349 C 0.09518 0.58584 0.47591 0.0
C350 C 0.92204 0.42387 0.55072 0.0
C351 C 0.94545 0.44681 0.55084 0.0
C352 C 0.00936 0.4804 0.48348 0.0
C353 C 0.06015 0.55051 0.51374 0.0
C354 C 0.03444 0.52648 0.51382 0.0
C355 C 0.95933 0.45722 0.51332 0.0
C356 C 0.98521 0.4812 0.51348 0.0
H357 H 0.10497 0.5932 0.58096 0.0
H358 H 0.06486 0.55296 0.58111 0.0
H359 H 0.05158 0.50079 0.46018 0.0
H360 H 0.91792 0.41135 0.44588 0.0
H361 H 0.95778 0.45163 0.44593 0.0
C362 C 0.59222 0.92543 0.4869 0.0
C363 C 0.60348 0.91183 0.52399 0.0
C364 C 0.56873 0.94831 0.48786 0.0
C365 C 0.53033 1.00664 0.5584 0.0
H366 H 0.46678 1.00783 0.47279 0.0
C367 C 0.42507 0.09338 0.56573 0.0
C368 C 0.41237 0.10455 0.52804 0.0
C369 C 0.44813 0.06998 0.56579 0.0
C370 C 0.48452 1.00834 0.49673 0.0
H371 H 0.59825 0.91218 0.59138 0.0
H372 H 0.55745 0.95183 0.59304 0.0
H373 H 0.50659 0.96753 0.47172 0.0
H374 H 0.41495 0.09973 0.46068 0.0
H375 H 0.45525 0.05995 0.46067 0.0
H376 H 0.50854 0.04765 0.58316 0.0
C377 C 0.56694 0.94495 0.56305 0.0
C378 C 0.5075 0.98496 0.49613 0.0
C379 C 0.59029 0.92189 0.56208 0.0
C380 C 0.42382 0.09175 0.49045 0.0
C381 C 0.44697 0.06855 0.49048 0.0
C382 C 0.50744 0.03017 0.55886 0.0
C383 C 0.55574 0.95866 0.52596 0.0
C384 C 0.53088 0.98365 0.52692 0.0
C385 C 0.4595 0.05699 0.52814 0.0
C386 C 0.48406 0.03156 0.52798 0.0
H387 H 0.60174 0.91858 0.4569 0.0
H388 H 0.56121 0.95837 0.45857 0.0
H389 H 0.54805 1.0069 0.58239 0.0
H390 H 0.41684 0.10237 0.59539 0.0
H391 H 0.45657 0.0617 0.5956 0.0
C392 C 0.18029 0.6226 0.32766 0.0
C393 C 0.20336 0.62793 0.35782 0.0
C394 C 0.18581 0.60215 0.29441 0.0
C395 C 0.23634 0.53509 0.26762 0.0
H396 H 0.19374 0.54115 0.16139 0.0
C397 C 0.21369 0.4282 0.16401 0.0
C398 C 0.2113 0.4318 0.1205 0.0
C399 C 0.21838 0.454 0.18981 0.0
C400 C 0.20631 0.53923 0.19054 0.0
H401 H 0.2511 0.61803 0.37502 0.0
H402 H 0.26116 0.58332 0.3163 0.0
H403 H 0.19182 0.58463 0.20996 0.0
H404 H 0.21406 0.46506 0.06972 0.0
H405 H 0.22322 0.50999 0.11467 0.0
H406 H 0.25127 0.48993 0.24798 0.0
C407 C 0.23838 0.59393 0.31903 0.0
C408 C 0.2048 0.56407 0.21876 0.0
C409 C 0.23271 0.61402 0.35257 0.0
C410 C 0.21554 0.46154 0.10318 0.0
C411 C 0.22052 0.48735 0.129 0.0
C412 C 0.23812 0.51041 0.23926 0.0
C413 C 0.21469 0.58689 0.29024 0.0
C414 C 0.21919 0.56207 0.2581 0.0
C415 C 0.22116 0.48404 0.17276 0.0
C416 C 0.22251 0.5118 0.20074 0.0
H417 H 0.1574 0.63291 0.3309 0.0
H418 H 0.16684 0.59718 0.27324 0.0
H419 H 0.24749 0.53239 0.2977 0.0
H420 H 0.2104 0.40565 0.17843 0.0
H421 H 0.21831 0.45045 0.22329 0.0
C422 C 0.40957 0.21315 0.36341 0.0
C423 C 0.42253 0.2069 0.40286 0.0
C424 C 0.42872 0.21941 0.32909 0.0
C425 C 0.509 0.2405 0.29707 0.0
H426 H 0.4896 0.19175 0.19855 0.0
C427 C 0.59897 0.21412 0.16746 0.0
C428 C 0.58862 0.21015 0.12614 0.0
C429 C 0.57774 0.21962 0.1998 0.0
C430 C 0.4951 0.20609 0.22537 0.0
H431 H 0.46574 0.20403 0.43755 0.0
H432 H 0.49916 0.21499 0.37758 0.0
H433 H 0.45426 0.19114 0.25791 0.0
H434 H 0.54802 0.21083 0.08604 0.0
H435 H 0.51103 0.22116 0.14231 0.0
H436 H 0.55013 0.25509 0.26464 0.0
C437 C 0.47416 0.21511 0.37327 0.0
C438 C 0.47481 0.20567 0.25952 0.0
C439 C 0.455 0.2087 0.40762 0.0
C440 C 0.55674 0.21351 0.11757 0.0
C441 C 0.5355 0.21921 0.14991 0.0
C442 C 0.52927 0.24106 0.26275 0.0
C443 C 0.46127 0.21974 0.33339 0.0
C444 C 0.48171 0.22251 0.296 0.0
C445 C 0.54564 0.2215 0.1916 0.0
C446 C 0.5228 0.22348 0.22667 0.0
H447 H 0.38464 0.21209 0.3586 0.0
H448 H 0.41806 0.22334 0.29892 0.0
H449 H 0.51478 0.25401 0.32456 0.0
H450 H 0.62338 0.21167 0.17522 0.0
H451 H 0.58643 0.22093 0.23148 0.0
C452 C 0.82899 0.38063 0.3258 0.0
C453 C 0.82079 0.38919 0.36677 0.0
C454 C 0.82294 0.40072 0.29224 0.0
C455 C 0.77881 0.47298 0.26347 0.0
H456 H 0.84354 0.48151 0.17973 0.0
C457 C 0.79532 0.58233 0.16009 0.0
C458 C 0.80411 0.57793 0.11814 0.0
C459 C 0.79267 0.55691 0.18718 0.0
C460 C 0.82502 0.47913 0.20252 0.0
H461 H 0.79907 0.42527 0.40436 0.0
H462 H 0.78941 0.46027 0.34666 0.0
H463 H 0.84785 0.44107 0.2326 0.0
H464 H 0.81547 0.54311 0.07132 0.0
H465 H 0.81106 0.49892 0.11871 0.0
H466 H 0.75676 0.51206 0.23421 0.0
C467 C 0.79986 0.4379 0.33991 0.0
C468 C 0.82742 0.45582 0.23283 0.0
C469 C 0.80565 0.41781 0.37323 0.0
C470 C 0.80878 0.54741 0.10347 0.0
C471 C 0.80645 0.52205 0.13066 0.0
C472 C 0.77661 0.49651 0.23343 0.0
C473 C 0.80873 0.42988 0.29896 0.0
C474 C 0.80459 0.4527 0.26417 0.0
C475 C 0.79901 0.52657 0.17302 0.0
C476 C 0.79989 0.5001 0.20293 0.0
H477 H 0.84048 0.35865 0.31973 0.0
H478 H 0.82966 0.39347 0.26109 0.0
H479 H 0.7604 0.47095 0.28646 0.0
H480 H 0.79156 0.60551 0.17241 0.0
H481 H 0.78706 0.56118 0.2197 0.0
C482 C 0.61864 0.82185 0.34044 0.0
C483 C 0.60952 0.82222 0.38261 0.0
C484 C 0.59664 0.8165 0.30893 0.0
C485 C 0.51468 0.78907 0.29208 0.0
H486 H 0.52132 0.83746 0.19036 0.0
C487 C 0.4122 0.81205 0.1778 0.0
C488 C 0.41887 0.80904 0.13496 0.0
C489 C 0.43605 0.80976 0.20743 0.0
C490 C 0.51932 0.82357 0.21846 0.0
H491 H 0.57024 0.81697 0.42477 0.0
H492 H 0.53211 0.80879 0.37042 0.0
H493 H 0.56247 0.84057 0.24243 0.0
H494 H 0.45571 0.80042 0.08979 0.0
H495 H 0.49713 0.79692 0.14139 0.0
H496 H 0.47076 0.77318 0.2685 0.0
C497 C 0.55621 0.81168 0.36129 0.0
C498 C 0.54301 0.82519 0.24827 0.0
C499 C 0.57816 0.81663 0.39261 0.0
C500 C 0.4497 0.80285 0.12252 0.0
C501 C 0.47352 0.80103 0.15202 0.0
C502 C 0.49078 0.78784 0.26252 0.0
C503 C 0.56501 0.81173 0.31895 0.0
C504 C 0.54091 0.80819 0.28572 0.0
C505 C 0.46704 0.80488 0.1947 0.0
C506 C 0.49278 0.80522 0.22554 0.0
H507 H 0.6427 0.82585 0.33178 0.0
H508 H 0.60444 0.8162 0.27674 0.0
H509 H 0.51247 0.77508 0.32003 0.0
H510 H 0.38869 0.81679 0.18835 0.0
H511 H 0.43044 0.81292 0.24017 0.0
C512 C 0.8389 0.37286 0.74012 0.0
C513 C 0.81179 0.35887 0.72467 0.0
C514 C 0.84088 0.38119 0.78218 0.0
C515 C 0.78472 0.40596 0.86135 0.0
H516 H 0.86037 0.43495 0.91432 0.0
C517 C 0.77978 0.51336 0.96272 0.0
C518 C 0.79945 0.53647 0.94631 0.0
C519 C 0.78499 0.48203 0.95358 0.0
C520 C 0.83899 0.42664 0.90035 0.0
H521 H 0.76727 0.33905 0.74151 0.0
H522 H 0.77141 0.3517 0.81552 0.0
H523 H 0.86284 0.39201 0.86438 0.0
H524 H 0.84129 0.5444 0.90953 0.0
H525 H 0.85017 0.49004 0.89354 0.0
H526 H 0.7611 0.44138 0.89554 0.0
C527 C 0.7906 0.35763 0.79504 0.0
C528 C 0.84038 0.40215 0.87159 0.0
C529 C 0.78827 0.35011 0.75272 0.0
C530 C 0.82579 0.52736 0.92317 0.0
C531 C 0.831 0.49603 0.91408 0.0
C532 C 0.78331 0.43005 0.89039 0.0
C533 C 0.81594 0.37525 0.80971 0.0
C534 C 0.81354 0.39294 0.84966 0.0
C535 C 0.80993 0.47318 0.92771 0.0
C536 C 0.81065 0.44191 0.90822 0.0
H537 H 0.85734 0.38005 0.71911 0.0
H538 H 0.86073 0.39485 0.79189 0.0
H539 H 0.76346 0.3999 0.84523 0.0
H540 H 0.75958 0.51956 0.98127 0.0
H541 H 0.76855 0.46487 0.96485 0.0
C542 C 0.66035 0.83347 0.75093 0.0
C543 C 0.6595 0.80391 0.73203 0.0
C544 C 0.65402 0.83674 0.79357 0.0
C545 C 0.62618 0.7908 0.887 0.0
H546 H 0.55882 0.85061 0.88087 0.0
C547 C 0.50107 0.7626 0.9228 0.0
C548 C 0.48007 0.78551 0.93673 0.0
C549 C 0.53254 0.76942 0.91753 0.0
C550 C 0.5779 0.83431 0.88412 0.0
H551 H 0.65691 0.75442 0.74444 0.0
H552 H 0.64429 0.76007 0.81753 0.0
H553 H 0.60267 0.85569 0.8344 0.0
H554 H 0.47717 0.83282 0.96111 0.0
H555 H 0.53178 0.84493 0.94983 0.0
H556 H 0.59916 0.7677 0.93404 0.0
C557 C 0.64985 0.7809 0.80011 0.0
C558 C 0.60336 0.83724 0.85736 0.0
C559 C 0.65664 0.77761 0.75772 0.0
C560 C 0.492 0.81483 0.94837 0.0
C561 C 0.52353 0.82174 0.94264 0.0
C562 C 0.60042 0.78765 0.91345 0.0
C563 C 0.64603 0.81065 0.81782 0.0
C564 C 0.62671 0.81422 0.85629 0.0
C565 C 0.54391 0.79938 0.92595 0.0
C566 C 0.57512 0.80824 0.91017 0.0
H567 H 0.66292 0.85441 0.73258 0.0
H568 H 0.65248 0.85996 0.80655 0.0
H569 H 0.64426 0.77326 0.8881 0.0
H570 H 0.49304 0.73965 0.91397 0.0
H571 H 0.54753 0.75175 0.90409 0.0
C572 C 0.23551 0.49413 0.9436 0.0
C573 C 0.21218 0.47287 0.95505 0.0
C574 C 0.22782 0.52435 0.93169 0.0
C575 C 0.20671 0.59001 0.91313 0.0
H576 H 0.14808 0.58282 0.82192 0.0
C577 C 0.22613 0.64478 0.75598 0.0
C578 C 0.20162 0.64716 0.72719 0.0
C579 C 0.2203 0.63622 0.79727 0.0
C580 C 0.16376 0.58602 0.84799 0.0
H581 H 0.16262 0.46829 0.96803 0.0
H582 H 0.14923 0.52069 0.94557 0.0
H583 H 0.15106 0.54195 0.87334 0.0
H584 H 0.15118 0.64625 0.72101 0.0
H585 H 0.14112 0.63258 0.79315 0.0
H586 H 0.22062 0.63339 0.88621 0.0
C587 C 0.17345 0.51364 0.94526 0.0
C588 C 0.16551 0.56234 0.8776 0.0
C589 C 0.18116 0.4834 0.9575 0.0
C590 C 0.17083 0.64454 0.74193 0.0
C591 C 0.16499 0.63633 0.78344 0.0
C592 C 0.20477 0.61392 0.88367 0.0
C593 C 0.19661 0.53407 0.93096 0.0
C594 C 0.18832 0.56319 0.90889 0.0
C595 C 0.18975 0.63004 0.81083 0.0
C596 C 0.18469 0.61118 0.8492 0.0
H597 H 0.25967 0.48704 0.94178 0.0
H598 H 0.24621 0.5394 0.92038 0.0
H599 H 0.22408 0.59152 0.93753 0.0
H600 H 0.25009 0.64735 0.74594 0.0
H601 H 0.24009 0.63171 0.81725 0.0
C602 C 0.36143 0.18248 0.75567 0.0
C603 C 0.36154 0.21235 0.73755 0.0
C604 C 0.3702 0.17837 0.79733 0.0
C605 C 0.40144 0.22172 0.89088 0.0
H606 H 0.46645 0.15972 0.88055 0.0
C607 C 0.5275 0.24345 0.92877 0.0
C608 C 0.54795 0.21849 0.93581 0.0
C609 C 0.49548 0.23845 0.92588 0.0
C610 C 0.44805 0.17662 0.88511 0.0
H611 H 0.3662 0.26158 0.75158 0.0
H612 H 0.38308 0.2543 0.82262 0.0
H613 H 0.42258 0.15776 0.8343 0.0
H614 H 0.54997 0.16894 0.94975 0.0
H615 H 0.49434 0.1606 0.9456 0.0
H616 H 0.42896 0.24207 0.93954 0.0
C617 C 0.37609 0.23393 0.80512 0.0
C618 C 0.42256 0.17548 0.85834 0.0
C619 C 0.36683 0.2381 0.76376 0.0
C620 C 0.53526 0.18894 0.94434 0.0
C621 C 0.50319 0.184 0.94165 0.0
C622 C 0.42717 0.22299 0.91756 0.0
C623 C 0.37989 0.20386 0.82159 0.0
C624 C 0.39997 0.19919 0.85897 0.0
C625 C 0.48316 0.20832 0.92995 0.0
C626 C 0.45169 0.20155 0.91309 0.0
H627 H 0.35694 0.16181 0.73747 0.0
H628 H 0.37176 0.15492 0.80947 0.0
H629 H 0.38396 0.23981 0.89317 0.0
H630 H 0.53637 0.26659 0.92268 0.0
H631 H 0.48085 0.25777 0.91667 0.0
C632 C 0.72914 0.92362 0.65789 0.0
C633 C 0.72144 0.92952 0.61596 0.0
C634 C 0.73496 0.94818 0.68543 0.0
C635 C 0.71236 0.02941 0.70028 0.0
H636 H 0.77001 0.02586 0.79315 0.0
C637 C 0.70934 0.12207 0.83048 0.0
C638 C 0.71031 0.11022 0.87137 0.0
C639 C 0.71721 0.10316 0.7964 0.0
C640 C 0.75371 0.02717 0.76745 0.0
H641 H 0.71607 0.96578 0.56939 0.0
H642 H 0.72637 1.00859 0.61749 0.0
H643 H 0.77282 0.98656 0.73811 0.0
H644 H 0.72169 0.06967 0.90865 0.0
H645 H 0.73479 0.03671 0.84952 0.0
H646 H 0.69237 0.06915 0.73024 0.0
C647 C 0.72741 0.98498 0.62917 0.0
C648 C 0.75538 1.00468 0.73589 0.0
C649 C 0.7217 0.96041 0.60157 0.0
C650 C 0.72063 0.07955 0.87757 0.0
C651 C 0.72839 0.06066 0.84357 0.0
C652 C 0.71061 0.0518 0.73188 0.0
C653 C 0.73317 0.97919 0.67169 0.0
C654 C 0.7343 1.00517 0.70238 0.0
C655 C 0.72617 0.07199 0.80248 0.0
C656 C 0.73081 0.05058 0.76636 0.0
H657 H 0.72923 0.9001 0.66999 0.0
H658 H 0.73912 0.94289 0.71802 0.0
H659 H 0.69546 0.03022 0.67526 0.0
H660 H 0.70178 0.14571 0.82468 0.0
H661 H 0.71573 0.11281 0.76522 0.0
C662 C 0.05031 0.70176 0.60815 0.0
C663 C 0.08173 0.70774 0.61742 0.0
C664 C 0.02729 0.70506 0.63885 0.0
C665 C 0.01931 0.70461 0.75415 0.0
H666 H 0.93359 0.72662 0.73051 0.0
C667 C 0.92757 0.71196 0.88497 0.0
C668 C 0.89917 0.69668 0.87766 0.0
C669 C 0.94866 0.71707 0.8524 0.0
C670 C 0.95742 0.72028 0.73751 0.0
H671 H 0.11323 0.72405 0.66552 0.0
H672 H 0.07303 0.73077 0.71862 0.0
H673 H 0.97282 0.73047 0.67529 0.0
H674 H 0.87011 0.67601 0.82981 0.0
H675 H 0.90704 0.68508 0.77271 0.0
H676 H 1.00395 0.69441 0.81626 0.0
C677 C 0.06623 0.72255 0.68798 0.0
C678 C 0.97994 0.72244 0.70586 0.0
C679 C 0.0893 0.71901 0.65736 0.0
C680 C 0.89182 0.68776 0.83655 0.0
C681 C 0.91292 0.69307 0.8038 0.0
C682 C 0.9969 0.70269 0.78576 0.0
C683 C 0.03504 0.71469 0.67956 0.0
C684 C 0.0112 0.71443 0.71367 0.0
C685 C 0.94187 0.70721 0.81155 0.0
C686 C 0.96565 0.71032 0.77783 0.0
H687 H 0.04359 0.69307 0.5777 0.0
H688 H 1.00365 0.69857 0.63111 0.0
H689 H 0.04289 0.6975 0.76127 0.0
H690 H 0.93399 0.71932 0.91615 0.0
H691 H 0.97053 0.72847 0.85931 0.0
C692 C 0.30735 0.05091 0.60722 0.0
C693 C 0.30509 0.08135 0.62308 0.0
C694 C 0.30404 0.02525 0.63369 0.0
C695 C 0.27627 1.00031 0.73807 0.0
H696 H 0.34295 0.93971 0.73018 0.0
C697 C 0.30929 0.92054 0.87482 0.0
C698 C 0.32129 0.89068 0.86693 0.0
C699 C 0.30238 0.94071 0.842 0.0
C700 C 0.32374 0.95596 0.73238 0.0
H701 H 0.29589 0.10866 0.6788 0.0
H702 H 0.28994 0.06388 0.72489 0.0
H703 H 0.33909 0.98084 0.67823 0.0
H704 H 0.33406 0.85804 0.81815 0.0
H705 H 0.32153 0.89323 0.76051 0.0
H706 H 0.26115 0.97571 0.79254 0.0
C707 C 0.29427 0.05985 0.69197 0.0
C708 C 0.32158 0.97963 0.70259 0.0
C709 C 0.2978 0.08553 0.66557 0.0
C710 C 0.32507 0.88099 0.82527 0.0
C711 C 0.31804 0.90123 0.79228 0.0
C712 C 0.2783 0.9765 0.76771 0.0
C713 C 0.29813 0.02944 0.67653 0.0
C714 C 0.29822 1.00246 0.70559 0.0
C715 C 0.30709 0.93156 0.80028 0.0
C716 C 0.3025 0.95443 0.76583 0.0
H717 H 0.31288 0.04683 0.57463 0.0
H718 H 0.30675 1.00211 0.62076 0.0
H719 H 0.25773 0.01727 0.74087 0.0
H720 H 0.30607 0.92883 0.90652 0.0
H721 H 0.29447 0.96398 0.84954 0.0
C722 C 0.96949 0.31014 0.60803 0.0
C723 C 0.93833 0.3026 0.61698 0.0
C724 C 0.99256 0.30681 0.63848 0.0
C725 C 1.00026 0.30331 0.75378 0.0
H726 H 0.08697 0.28627 0.7286 0.0
C727 C 0.09137 0.29426 0.88403 0.0
C728 C 0.11861 0.31195 0.87865 0.0
C729 C 0.07104 0.28929 0.85073 0.0
C730 C 0.06285 0.29119 0.73602 0.0
H731 H 0.9074 0.28354 0.66403 0.0
H732 H 0.94775 0.27665 0.7166 0.0
H733 H 0.04808 0.28288 0.67309 0.0
H734 H 0.14665 0.33684 0.8333 0.0
H735 H 0.11103 0.32794 0.77479 0.0
H736 H 0.01498 0.3115 0.81662 0.0
C737 C 0.95426 0.28618 0.68653 0.0
C738 C 0.04053 0.28931 0.70422 0.0
C739 C 0.93112 0.28983 0.65622 0.0
C740 C 0.1258 0.32324 0.83854 0.0
C741 C 0.10546 0.31804 0.80501 0.0
C742 C 0.02247 0.30487 0.78551 0.0
C743 C 0.98514 0.29554 0.67856 0.0
C744 C 1.00891 0.29555 0.71262 0.0
C745 C 0.07746 0.30166 0.81104 0.0
C746 C 0.05404 0.299 0.77703 0.0
H747 H 0.9759 0.32005 0.57811 0.0
H748 H 0.01592 0.3145 0.63111 0.0
H749 H 0.97638 0.30907 0.76144 0.0
H750 H 0.08515 0.28499 0.91437 0.0
H751 H 0.04993 0.27613 0.85623 0.0
C752 C 0.33501 0.972 0.07746 0.0
C753 C 0.30483 0.95988 0.08328 0.0
C754 C 0.34173 1.0027 0.08862 0.0
C755 C 0.35011 0.05085 0.15693 0.0
H756 H 0.28968 0.11786 0.15656 0.0
C757 C 0.34071 0.12653 0.29964 0.0
C758 C 0.31006 0.12621 0.31541 0.0
C759 C 0.34651 0.1201 0.25757 0.0
C760 C 0.30705 0.09959 0.15668 0.0
H761 H 0.2575 0.97173 0.10124 0.0
H762 H 0.26926 0.02479 0.12074 0.0
H763 H 0.28788 0.07805 0.10214 0.0
H764 H 0.26145 0.1218 0.29825 0.0
H765 H 0.27157 0.10906 0.22587 0.0
H766 H 0.36743 0.07019 0.21344 0.0
C767 C 0.28775 0.01067 0.1076 0.0
C768 C 0.30609 0.07692 0.12544 0.0
C769 C 0.28108 0.98001 0.09684 0.0
C770 C 0.28536 0.12165 0.28743 0.0
C771 C 0.29119 0.11489 0.24554 0.0
C772 C 0.35093 0.07332 0.18829 0.0
C773 C 0.31835 0.02198 0.10513 0.0
C774 C 0.32626 0.05121 0.12706 0.0
C775 C 0.32191 0.11265 0.23052 0.0
C776 C 0.32799 0.09666 0.19017 0.0
H777 H 0.35373 0.95784 0.06518 0.0
H778 H 0.36546 0.01098 0.08596 0.0
H779 H 0.366 0.03134 0.15905 0.0
H780 H 0.36054 0.12978 0.3199 0.0
H781 H 0.37042 0.11904 0.24685 0.0
C782 C 0.14968 0.28397 0.26845 0.0
C783 C 0.15182 0.30916 0.24067 0.0
C784 C 0.1438 0.28897 0.31078 0.0
C785 C 0.0983 0.34632 0.36704 0.0
H786 H 0.10081 0.28102 0.45029 0.0
C787 C 0.99136 0.32388 0.46541 0.0
C788 C 0.98095 0.29336 0.45758 0.0
C789 C 0.02243 0.33196 0.4582 0.0
C790 C 0.10019 0.29983 0.42781 0.0
H791 H 0.15387 0.3597 0.23721 0.0
H792 H 0.14471 0.36822 0.31096 0.0
H793 H 0.14326 0.28573 0.39982 0.0
H794 H 0.99589 0.24678 0.44066 0.0
H795 H 0.0496 0.26087 0.42777 0.0
H796 H 0.05441 0.35915 0.39298 0.0
C797 C 0.14652 0.34451 0.29973 0.0
C798 C 0.12444 0.30249 0.39881 0.0
C799 C 0.15204 0.33953 0.25719 0.0
C800 C 1.00292 0.27059 0.44643 0.0
C801 C 0.03392 0.27862 0.43947 0.0
C802 C 0.0743 0.34384 0.39619 0.0
C803 C 0.14004 0.31935 0.32639 0.0
C804 C 0.12247 0.32419 0.36603 0.0
C805 C 0.04374 0.30964 0.44355 0.0
C806 C 0.07386 0.31911 0.42478 0.0
H807 H 0.15034 0.26024 0.25707 0.0
H808 H 0.13918 0.26885 0.33011 0.0
H809 H 0.09577 0.36344 0.3425 0.0
H810 H 0.97552 0.34181 0.47601 0.0
H811 H 0.02947 0.35596 0.46224 0.0
C812 C 0.74195 0.14224 0.24422 0.0
C813 C 0.7157 0.14723 0.21896 0.0
C814 C 0.73856 0.13449 0.28628 0.0
C815 C 0.72782 0.11388 0.37465 0.0
H816 H 0.66551 0.04875 0.37332 0.0
C817 C 0.69647 0.98576 0.45071 0.0
C818 C 0.72551 0.97179 0.44218 0.0
C819 C 0.69117 0.01696 0.44064 0.0
C820 C 0.6825 0.0673 0.37516 0.0
H821 H 0.66517 0.15217 0.22055 0.0
H822 H 0.65963 0.13997 0.29374 0.0
H823 H 0.66286 0.09003 0.3225 0.0
H824 H 0.77257 0.98096 0.42044 0.0
H825 H 0.76326 0.03489 0.40303 0.0
H826 H 0.74901 0.08893 0.4251 0.0
C827 C 0.68284 0.14087 0.28053 0.0
C828 C 0.68098 0.09122 0.34589 0.0
C829 C 0.68617 0.14818 0.23824 0.0
C830 C 0.74978 0.99061 0.42699 0.0
C831 C 0.74455 0.02177 0.41734 0.0
C832 C 0.72951 0.08969 0.40371 0.0
C833 C 0.70878 0.13185 0.3043 0.0
C834 C 0.70474 0.11369 0.34352 0.0
C835 C 0.71489 0.03497 0.42258 0.0
C836 C 0.7079 0.0652 0.4025 0.0
H837 H 0.76515 0.14213 0.2309 0.0
H838 H 0.75922 0.12783 0.30337 0.0
H839 H 0.74597 0.13134 0.37454 0.0
H840 H 0.67749 0.97269 0.46425 0.0
H841 H 0.66818 0.0267 0.44551 0.0
C842 C 0.01782 0.7373 0.46739 0.0
C843 C 0.0403 0.71689 0.45077 0.0
C844 C 0.98633 0.73354 0.45788 0.0
C845 C 0.92894 0.68173 0.40572 0.0
H846 H 0.9048 0.7574 0.34878 0.0
C847 C 0.87395 0.68152 0.24639 0.0
C848 C 0.86037 0.70872 0.23051 0.0
C849 C 0.88283 0.67997 0.28824 0.0
C850 C 0.91015 0.73618 0.36545 0.0
H851 H 0.04661 0.67533 0.41273 0.0
H852 H 0.9921 0.66882 0.39673 0.0
H853 H 0.94664 0.75883 0.39868 0.0
H854 H 0.84201 0.75404 0.24665 0.0
H855 H 0.85581 0.75074 0.32031 0.0
H856 H 0.89326 0.65879 0.37084 0.0
C857 C 0.99876 0.6875 0.41761 0.0
C858 C 0.93442 0.73705 0.3942 0.0
C859 C 0.03024 0.69135 0.42681 0.0
C860 C 0.85271 0.73292 0.25812 0.0
C861 C 0.86087 0.73108 0.30024 0.0
C862 C 0.90428 0.68091 0.37731 0.0
C863 C 0.97665 0.7092 0.43171 0.0
C864 C 0.94529 0.70953 0.41263 0.0
C865 C 0.87793 0.70545 0.31518 0.0
C866 C 0.89599 0.70776 0.35475 0.0
H867 H 0.02464 0.75696 0.48646 0.0
H868 H 0.96973 0.75053 0.46934 0.0
H869 H 0.93654 0.66026 0.42014 0.0
H870 H 0.88039 0.66256 0.2258 0.0
H871 H 0.89609 0.65989 0.29816 0.0
C872 C 0.25527 0.23699 0.4359 0.0
C873 C 0.28341 0.22104 0.44411 0.0
C874 C 0.24608 0.2446 0.39465 0.0
C875 C 0.26193 0.22418 0.28152 0.0
H876 H 0.22087 0.30244 0.25799 0.0
C877 C 0.21582 0.25442 0.11359 0.0
C878 C 0.21776 0.28546 0.09978 0.0
C879 C 0.22252 0.24634 0.15544 0.0
C880 C 0.2324 0.28047 0.26371 0.0
H881 H 0.32363 0.20249 0.4136 0.0
H882 H 0.30827 0.21445 0.34275 0.0
H883 H 0.23435 0.28908 0.32988 0.0
H884 H 0.23063 0.33177 0.11914 0.0
H885 H 0.24188 0.31814 0.19174 0.0
H886 H 0.26025 0.21564 0.21541 0.0
C887 C 0.29273 0.22074 0.36808 0.0
C888 C 0.23993 0.27261 0.30537 0.0
C889 C 0.30184 0.21357 0.40926 0.0
C890 C 0.22756 0.30794 0.12891 0.0
C891 C 0.23422 0.29995 0.17075 0.0
C892 C 0.25409 0.23188 0.23996 0.0
C893 C 0.26461 0.23644 0.35975 0.0
C894 C 0.25517 0.24442 0.31516 0.0
C895 C 0.23177 0.26896 0.18503 0.0
C896 C 0.23936 0.2603 0.23004 0.0
H897 H 0.24006 0.24356 0.46146 0.0
H898 H 0.22414 0.25652 0.39016 0.0
H899 H 0.27323 0.20207 0.28725 0.0
H900 H 0.20859 0.23636 0.09211 0.0
H901 H 0.22003 0.22226 0.16469 0.0
C902 C 0.75623 0.22387 0.09832 0.0
C903 C 0.72485 0.22432 0.0856 0.0
C904 C 0.76476 0.23077 0.13995 0.0
C905 C 0.73361 0.23654 0.24967 0.0
H906 H 0.80634 0.28763 0.26941 0.0
C907 C 0.7629 0.28314 0.41766 0.0
C908 C 0.79412 0.28859 0.42911 0.0
C909 C 0.75464 0.2752 0.37627 0.0
C910 C 0.7862 0.27291 0.26499 0.0
H911 H 0.67842 0.23528 0.10665 0.0
H912 H 0.6927 0.2456 0.17942 0.0
H913 H 0.7922 0.27337 0.19824 0.0
H914 H 0.84108 0.2882 0.40477 0.0
H915 H 0.82716 0.27439 0.33354 0.0
H916 H 0.72781 0.23549 0.31628 0.0
C917 C 0.71082 0.23911 0.15752 0.0
C918 C 0.77798 0.26474 0.22367 0.0
C919 C 0.70242 0.23262 0.11573 0.0
C920 C 0.81678 0.28527 0.39753 0.0
C921 C 0.80861 0.27719 0.35614 0.0
C922 C 0.742 0.24443 0.29105 0.0
C923 C 0.74222 0.23845 0.17049 0.0
C924 C 0.75141 0.24655 0.2151 0.0
C925 C 0.7773 0.27192 0.34445 0.0
C926 C 0.76842 0.26298 0.29975 0.0
H927 H 0.77429 0.21793 0.07603 0.0
H928 H 0.78915 0.2298 0.14829 0.0
H929 H 0.71328 0.22212 0.24483 0.0
H930 H 0.7446 0.28523 0.44082 0.0
H931 H 0.73022 0.27199 0.36931 0.0
C932 C 0.6977 0.782 0.40592 0.0
C933 C 0.72081 0.79055 0.43482 0.0
C934 C 0.7054 0.77404 0.36426 0.0
C935 C 0.76884 0.78103 0.28325 0.0
H936 H 0.72524 0.71367 0.22829 0.0
C937 C 0.78646 0.75329 0.10475 0.0
C938 C 0.78624 0.72199 0.09173 0.0
C939 C 0.77896 0.76169 0.14629 0.0
C940 C 0.73791 0.73246 0.243 0.0
H941 H 0.7705 0.79586 0.44253 0.0
H942 H 0.78399 0.7825 0.37025 0.0
H943 H 0.71147 0.72803 0.29985 0.0
H944 H 0.77578 0.67535 0.11218 0.0
H945 H 0.76336 0.68952 0.18441 0.0
H946 H 0.79514 0.78561 0.22636 0.0
C947 C 0.75969 0.78254 0.37928 0.0
C948 C 0.72969 0.74099 0.28424 0.0
C949 C 0.75196 0.79015 0.42098 0.0
C950 C 0.77741 0.69947 0.12133 0.0
C951 C 0.76966 0.70781 0.16279 0.0
C952 C 0.77672 0.77282 0.24178 0.0
C953 C 0.73658 0.77423 0.35001 0.0
C954 C 0.74507 0.76537 0.30534 0.0
C955 C 0.7703 0.73913 0.17624 0.0
C956 C 0.7616 0.7482 0.22081 0.0
H957 H 0.67367 0.78058 0.41585 0.0
H958 H 0.68676 0.76782 0.34313 0.0
H959 H 0.78121 0.80008 0.29783 0.0
H960 H 0.79282 0.77138 0.08282 0.0
H961 H 0.7794 0.78608 0.15465 0.0
C962 C 0.30427 0.79997 0.1195 0.0
C963 C 0.30008 0.77919 0.0859 0.0
C964 C 0.29583 0.79205 0.16086 0.0
C965 C 0.2469 0.73575 0.22397 0.0
H966 H 0.29543 0.76699 0.31678 0.0
C967 C 0.20559 0.72128 0.39848 0.0
C968 C 0.22803 0.7164 0.42986 0.0
C969 C 0.21427 0.72819 0.35684 0.0
C970 C 0.28158 0.75774 0.29145 0.0
H971 H 0.2826 0.73323 0.07105 0.0
H972 H 0.26803 0.71939 0.14244 0.0
H973 H 0.31077 0.77951 0.2454 0.0
H974 H 0.27767 0.7163 0.44114 0.0
H975 H 0.29283 0.72824 0.36929 0.0
H976 H 0.21797 0.71359 0.2701 0.0
C977 C 0.27789 0.74218 0.13692 0.0
C978 C 0.29024 0.76534 0.25005 0.0
C979 C 0.28649 0.75014 0.09558 0.0
C980 C 0.25954 0.71957 0.41811 0.0
C981 C 0.26828 0.72665 0.37658 0.0
C982 C 0.23814 0.72827 0.26541 0.0
C983 C 0.28243 0.76295 0.17061 0.0
C984 C 0.27311 0.75454 0.2153 0.0
C985 C 0.24584 0.7311 0.34491 0.0
C986 C 0.25528 0.73908 0.30014 0.0
H987 H 0.31324 0.82287 0.11409 0.0
H988 H 0.2992 0.80926 0.18513 0.0
H989 H 0.23267 0.72705 0.19866 0.0
H990 H 0.18114 0.72016 0.40602 0.0
H991 H 0.19601 0.73197 0.33416 0.0
C992 C 0.73761 0.80907 0.61745 0.0
C993 C 0.72268 0.78799 0.59054 0.0
C994 C 0.74473 0.80097 0.65911 0.0
C995 C 0.74839 0.73142 0.73336 0.0
H996 H 0.76035 0.7962 0.81561 0.0
C997 C 0.79113 0.69986 0.90225 0.0
C998 C 0.78718 0.72072 0.93575 0.0
C999 C 0.78326 0.70806 0.86084 0.0
C1000 C 0.75673 0.77739 0.79375 0.0
H1001 H 0.70349 0.74168 0.58677 0.0
H1002 H 0.71421 0.72792 0.65927 0.0
H1003 H 0.74514 0.80986 0.74552 0.0
H1004 H 0.76944 0.76655 0.95089 0.0
H1005 H 0.7539 0.78008 0.88054 0.0
H1006 H 0.7578 0.69881 0.78203 0.0
C1007 C 0.72164 0.75054 0.64843 0.0
C1008 C 0.74849 0.78547 0.75244 0.0
C1009 C 0.71517 0.75847 0.6065 0.0
C1010 C 0.77363 0.74976 0.92625 0.0
C1011 C 0.76492 0.75775 0.88509 0.0
C1012 C 0.75594 0.72329 0.77487 0.0
C1013 C 0.73676 0.77153 0.67583 0.0
C1014 C 0.7445 0.76273 0.72098 0.0
C1015 C 0.76978 0.73724 0.85105 0.0
C1016 C 0.76072 0.74604 0.8062 0.0
H1017 H 0.7444 0.83175 0.60599 0.0
H1018 H 0.757 0.81791 0.67784 0.0
H1019 H 0.74609 0.71277 0.7109 0.0
H1020 H 0.79958 0.67673 0.90785 0.0
H1021 H 0.78797 0.69113 0.83667 0.0
C1022 C 0.20662 0.72829 0.61524 0.0
C1023 C 0.22885 0.71778 0.58609 0.0
C1024 C 0.21484 0.735 0.65699 0.0
C1025 C 0.2775 0.7218 0.73774 0.0
H1026 H 0.23757 0.79072 0.79465 0.0
C1027 C 0.29892 0.74706 0.91605 0.0
C1028 C 0.29997 0.77822 0.92972 0.0
C1029 C 0.29031 0.73938 0.8747 0.0
C1030 C 0.24929 0.7715 0.77942 0.0
H1031 H 0.27768 0.70698 0.57836 0.0
H1032 H 0.29218 0.71858 0.65081 0.0
H1033 H 0.22326 0.77831 0.72293 0.0
H1034 H 0.28863 0.82511 0.91153 0.0
H1035 H 0.27516 0.81242 0.83926 0.0
H1036 H 0.30388 0.71529 0.79402 0.0
C1037 C 0.26806 0.7212 0.64178 0.0
C1038 C 0.24069 0.76405 0.73803 0.0
C1039 C 0.25981 0.71477 0.5999 0.0
C1040 C 0.29038 0.80122 0.90132 0.0
C1041 C 0.28171 0.79365 0.85998 0.0
C1042 C 0.286 0.72916 0.77924 0.0
C1043 C 0.24575 0.73152 0.67125 0.0
C1044 C 0.2547 0.73913 0.71616 0.0
C1045 C 0.28164 0.76253 0.8456 0.0
C1046 C 0.27221 0.75429 0.80099 0.0
H1047 H 0.18281 0.7318 0.60558 0.0
H1048 H 0.19673 0.74263 0.67823 0.0
H1049 H 0.28871 0.70219 0.72268 0.0
H1050 H 0.30517 0.72852 0.93734 0.0
H1051 H 0.28994 0.71508 0.86584 0.0
C1052 C 0.22349 0.25555 0.93185 0.0
C1053 C 0.21808 0.2867 0.94368 0.0
C1054 C 0.23185 0.24754 0.89048 0.0
C1055 C 0.23432 0.27953 0.77999 0.0
H1056 H 0.28707 0.20799 0.7591 0.0
C1057 C 0.28382 0.25169 0.61304 0.0
C1058 C 0.28497 0.22038 0.60012 0.0
C1059 C 0.2766 0.25979 0.65474 0.0
C1060 C 0.27207 0.22791 0.76414 0.0
H1061 H 0.21918 0.33382 0.92032 0.0
H1062 H 0.23353 0.32031 0.849 0.0
H1063 H 0.27308 0.22186 0.83071 0.0
H1064 H 0.27671 0.17341 0.62087 0.0
H1065 H 0.26546 0.18706 0.69368 0.0
H1066 H 0.23369 0.28573 0.71336 0.0
C1067 C 0.23039 0.30165 0.87127 0.0
C1068 C 0.26387 0.23592 0.80558 0.0
C1069 C 0.22198 0.30957 0.91265 0.0
C1070 C 0.27792 0.1975 0.63008 0.0
C1071 C 0.27099 0.20551 0.67191 0.0
C1072 C 0.24271 0.27164 0.73862 0.0
C1073 C 0.23552 0.27042 0.85917 0.0
C1074 C 0.24468 0.26186 0.81449 0.0
C1075 C 0.27009 0.23686 0.6851 0.0
C1076 C 0.26164 0.2456 0.72977 0.0
H1077 H 0.22101 0.23713 0.95467 0.0
H1078 H 0.23505 0.22319 0.88307 0.0
H1079 H 0.21911 0.2993 0.7847 0.0
H1080 H 0.28883 0.27003 0.59086 0.0
H1081 H 0.27642 0.28416 0.66325 0.0
C1082 C 0.81535 0.27819 0.61483 0.0
C1083 C 0.79273 0.28671 0.58525 0.0
C1084 C 0.80719 0.27095 0.65646 0.0
C1085 C 0.74164 0.27775 0.73551 0.0
H1086 H 0.78979 0.21634 0.79589 0.0
C1087 C 0.7228 0.25512 0.9149 0.0
C1088 C 0.72509 0.22439 0.92981 0.0
C1089 C 0.7307 0.26265 0.87322 0.0
C1090 C 0.77583 0.23345 0.77967 0.0
H1091 H 0.74323 0.29302 0.5766 0.0
H1092 H 0.72877 0.28011 0.64862 0.0
H1093 H 0.80338 0.22895 0.72394 0.0
H1094 H 0.74074 0.17828 0.91335 0.0
H1095 H 0.75355 0.19078 0.84063 0.0
H1096 H 0.7139 0.28198 0.79123 0.0
C1097 C 0.75317 0.27974 0.64017 0.0
C1098 C 0.78395 0.24107 0.73812 0.0
C1099 C 0.76143 0.28692 0.59847 0.0
C1100 C 0.737 0.20175 0.90234 0.0
C1101 C 0.74504 0.20921 0.86069 0.0
C1102 C 0.73369 0.27034 0.77721 0.0
C1103 C 0.77589 0.27158 0.67017 0.0
C1104 C 0.76707 0.26341 0.71504 0.0
C1105 C 0.7419 0.23982 0.8451 0.0
C1106 C 0.75056 0.24795 0.80021 0.0
H1107 H 0.83946 0.27655 0.60556 0.0
H1108 H 0.82566 0.26511 0.678 0.0
H1109 H 0.72802 0.29526 0.71957 0.0
H1110 H 0.71442 0.27336 0.93541 0.0
H1111 H 0.72847 0.2866 0.86328 0.0
loop_
_geom_bond_atom_site_label_1
_geom_bond_atom_site_label_2
_geom_bond_distance
_geom_bond_site_symmetry_2
_ccdc_geom_bond_type
Zn0 N4 2.020 . S
Zn0 O8 2.019 . S
Zn0 N10 2.119 . S
Zn0 O18 1.975 . S
C1 N2 1.334 . S
C1 N5 1.336 . S
N2 C1 1.334 . S
N2 C3 1.334 1_554 S
C3 N2 1.334 1_556 S
C3 N4 1.336 . S
N4 Zn0 2.020 . S
N4 C3 1.336 . S
N4 N5 1.354 1_556 S
N5 C1 1.336 . S
N5 N4 1.354 1_554 S
N5 Zn9 2.020 . S
C6 O7 1.244 . S
C6 O30 1.257 . S
O7 C6 1.244 . S
O8 Zn0 2.019 . S
O8 C28 1.257 . S
Zn9 N5 2.020 . S
Zn9 O16 1.975 . S
Zn9 N25 2.119 . S
Zn9 O30 2.019 . S
N10 Zn0 2.119 . S
N10 C12 1.334 . S
N10 C13 1.328 . S
C11 C12 1.391 . S
C11 N14 1.329 . S
C11 H32 0.930 . S
C12 N10 1.334 . S
C12 C11 1.391 . S
C12 H19 0.930 . S
C13 N10 1.328 . S
C13 C15 1.392 . S
C13 H20 0.930 . S
N14 C11 1.329 . S
N14 C15 1.331 . S
C15 C13 1.392 . S
C15 N14 1.331 . S
O16 Zn9 1.975 . S
O16 C17 1.252 . S
C17 O16 1.252 . S
C17 O18 1.252 1_554 S
O18 Zn0 1.975 . S
O18 C17 1.252 1_556 S
H19 C12 0.930 . S
H20 C13 0.930 . S
C21 C22 1.392 . S
C21 N25 1.328 . S
C21 H27 0.930 . S
C22 C21 1.392 . S
C22 N26 1.331 . S
C23 C24 1.391 . S
C23 N26 1.329 . S
C23 H33 0.930 . S
C24 C23 1.391 . S
C24 N25 1.334 . S
C24 H31 0.930 . S
N25 Zn9 2.119 . S
N25 C21 1.328 . S
N25 C24 1.334 . S
N26 C22 1.331 . S
N26 C23 1.329 . S
H27 C21 0.930 . S
C28 O8 1.257 . S
C28 O29 1.244 . S
O29 C28 1.244 . S
O30 C6 1.257 . S
O30 Zn9 2.019 . S
H31 C24 0.930 . S
H32 C11 0.930 . S
H33 C23 0.930 . S
Zn34 N38 2.020 . S
Zn34 O42 2.019 . S
Zn34 N44 2.119 . S
Zn34 O52 1.975 . S
C35 N36 1.334 1_556 S
C35 N39 1.336 . S
N36 C35 1.334 1_554 S
N36 C37 1.334 . S
C37 N36 1.334 . S
C37 N38 1.336 . S
N38 Zn34 2.020 . S
N38 C37 1.336 . S
N38 N39 1.354 1_554 S
N39 C35 1.336 . S
N39 N38 1.354 1_556 S
N39 Zn43 2.020 . S
C40 O41 1.244 . S
C40 O64 1.257 . S
O41 C40 1.244 . S
O42 Zn34 2.019 . S
O42 C62 1.257 . S
Zn43 N39 2.020 . S
Zn43 O50 1.975 . S
Zn43 N59 2.119 . S
Zn43 O64 2.019 . S
N44 Zn34 2.119 . S
N44 C46 1.334 . S
N44 C47 1.328 . S
C45 C46 1.391 . S
C45 N48 1.329 . S
C45 H66 0.930 . S
C46 N44 1.334 . S
C46 C45 1.391 . S
C46 H53 0.930 . S
C47 N44 1.328 . S
C47 C49 1.392 . S
C47 H54 0.930 . S
N48 C45 1.329 . S
N48 C49 1.331 . S
C49 C47 1.392 . S
C49 N48 1.331 . S
O50 Zn43 1.975 . S
O50 C51 1.252 1_556 S
C51 O50 1.252 1_554 S
C51 O52 1.252 . S
O52 Zn34 1.975 . S
O52 C51 1.252 . S
H53 C46 0.930 . S
H54 C47 0.930 . S
C55 C56 1.392 . S
C55 N59 1.328 . S
C55 H61 0.930 . S
C56 C55 1.392 . S
C56 N60 1.331 . S
C57 C58 1.391 . S
C57 N60 1.329 . S
C57 H67 0.930 . S
C58 C57 1.391 . S
C58 N59 1.334 . S
C58 H65 0.930 . S
N59 Zn43 2.119 . S
N59 C55 1.328 . S
N59 C58 1.334 . S
N60 C56 1.331 . S
N60 C57 1.329 . S
H61 C55 0.930 . S
C62 O42 1.257 . S
C62 O63 1.244 . S
O63 C62 1.244 . S
O64 C40 1.257 . S
O64 Zn43 2.019 . S
H65 C58 0.930 . S
H66 C45 0.930 . S
H67 C57 0.930 . S
Zn68 N72 2.020 . S
Zn68 O76 2.019 . S
Zn68 N78 2.119 . S
Zn68 O86 1.975 . S
C69 N70 1.334 . S
C69 N73 1.336 . S
N70 C69 1.334 . S
N70 C71 1.334 1_554 S
C71 N70 1.334 1_556 S
C71 N72 1.336 . S
N72 Zn68 2.020 . S
N72 C71 1.336 . S
N72 N73 1.354 1_556 S
N73 C69 1.336 . S
N73 N72 1.354 1_554 S
N73 Zn77 2.020 . S
C74 O75 1.244 . S
C74 O98 1.257 . S
O75 C74 1.244 . S
O76 Zn68 2.019 . S
O76 C96 1.257 . S
Zn77 N73 2.020 . S
Zn77 O84 1.975 . S
Zn77 N93 2.119 . S
Zn77 O98 2.019 . S
N78 Zn68 2.119 . S
N78 C80 1.334 . S
N78 C81 1.328 . S
C79 C80 1.391 . S
C79 N82 1.329 . S
C79 H100 0.930 . S
C80 N78 1.334 . S
C80 C79 1.391 . S
C80 H87 0.930 . S
C81 N78 1.328 . S
C81 C83 1.392 . S
C81 H88 0.930 . S
N82 C79 1.329 . S
N82 C83 1.331 . S
C83 C81 1.392 . S
C83 N82 1.331 . S
O84 Zn77 1.975 . S
O84 C85 1.252 . S
C85 O84 1.252 . S
C85 O86 1.252 1_554 S
O86 Zn68 1.975 . S
O86 C85 1.252 1_556 S
H87 C80 0.930 . S
H88 C81 0.930 . S
C89 C90 1.392 . S
C89 N93 1.328 . S
C89 H95 0.930 . S
C90 C89 1.392 . S
C90 N94 1.331 . S
C91 C92 1.391 . S
C91 N94 1.329 . S
C91 H101 0.930 . S
C92 C91 1.391 . S
C92 N93 1.334 . S
C92 H99 0.930 . S
N93 Zn77 2.119 . S
N93 C89 1.328 . S
N93 C92 1.334 . S
N94 C90 1.331 . S
N94 C91 1.329 . S
H95 C89 0.930 . S
C96 O76 1.257 . S
C96 O97 1.244 . S
O97 C96 1.244 . S
O98 C74 1.257 . S
O98 Zn77 2.019 . S
H99 C92 0.930 . S
H100 C79 0.930 . S
H101 C91 0.930 . S
Zn102 N106 2.020 . S
Zn102 O110 2.019 . S
Zn102 N112 2.119 . S
Zn102 O120 1.975 . S
C103 N104 1.334 . S
C103 N107 1.336 . S
N104 C103 1.334 . S
N104 C105 1.334 1_554 S
C105 N104 1.334 1_556 S
C105 N106 1.336 . S
N106 Zn102 2.020 . S
N106 C105 1.336 . S
N106 N107 1.354 1_556 S
N107 C103 1.336 . S
N107 N106 1.354 1_554 S
N107 Zn111 2.020 . S
C108 O109 1.244 . S
C108 O132 1.257 . S
O109 C108 1.244 . S
O110 Zn102 2.019 . S
O110 C130 1.257 . S
Zn111 N107 2.020 . S
Zn111 O118 1.975 . S
Zn111 N127 2.119 . S
Zn111 O132 2.019 . S
N112 Zn102 2.119 . S
N112 C114 1.334 . S
N112 C115 1.328 . S
C113 C114 1.391 . S
C113 N116 1.329 . S
C113 H134 0.930 . S
C114 N112 1.334 . S
C114 C113 1.391 . S
C114 H121 0.930 . S
C115 N112 1.328 . S
C115 C117 1.392 . S
C115 H122 0.930 . S
N116 C113 1.329 . S
N116 C117 1.331 . S
C117 C115 1.392 . S
C117 N116 1.331 . S
O118 Zn111 1.975 . S
O118 C119 1.252 . S
C119 O118 1.252 . S
C119 O120 1.252 1_554 S
O120 Zn102 1.975 . S
O120 C119 1.252 1_556 S
H121 C114 0.930 . S
H122 C115 0.930 . S
C123 C124 1.392 . S
C123 N127 1.328 . S
C123 H129 0.930 . S
C124 C123 1.392 . S
C124 N128 1.331 . S
C125 C126 1.391 . S
C125 N128 1.329 . S
C125 H135 0.930 . S
C126 C125 1.391 . S
C126 N127 1.334 . S
C126 H133 0.930 . S
N127 Zn111 2.119 . S
N127 C123 1.328 . S
N127 C126 1.334 . S
N128 C124 1.331 . S
N128 C125 1.329 . S
H129 C123 0.930 . S
C130 O110 1.257 . S
C130 O131 1.244 . S
O131 C130 1.244 . S
O132 C108 1.257 . S
O132 Zn111 2.019 . S
H133 C126 0.930 . S
H134 C113 0.930 . S
H135 C125 0.930 . S
Zn136 N140 2.020 . S
Zn136 O144 2.019 . S
Zn136 N146 2.119 . S
Zn136 O154 1.975 . S
C137 N138 1.334 . S
C137 N141 1.336 . S
N138 C137 1.334 . S
N138 C139 1.334 . S
C139 N138 1.334 . S
C139 N140 1.336 . S
N140 Zn136 2.020 . S
N140 C139 1.336 . S
N140 N141 1.354 . S
N141 C137 1.336 . S
N141 N140 1.354 . S
N141 Zn145 2.020 . S
C142 O143 1.244 . S
C142 O166 1.257 . S
O143 C142 1.244 . S
O144 Zn136 2.019 . S
O144 C164 1.257 . S
Zn145 N141 2.020 . S
Zn145 O152 1.975 . S
Zn145 N161 2.119 . S
Zn145 O166 2.019 . S
N146 Zn136 2.119 . S
N146 C148 1.334 . S
N146 C149 1.328 . S
C147 C148 1.391 . S
C147 N150 1.329 . S
C147 H168 0.930 . S
C148 N146 1.334 . S
C148 C147 1.391 . S
C148 H155 0.930 . S
C149 N146 1.328 . S
C149 C151 1.392 . S
C149 H156 0.930 . S
N150 C147 1.329 . S
N150 C151 1.331 . S
C151 C149 1.392 . S
C151 N150 1.331 . S
O152 Zn145 1.975 . S
O152 C153 1.252 . S
C153 O152 1.252 . S
C153 O154 1.252 . S
O154 Zn136 1.975 . S
O154 C153 1.252 . S
H155 C148 0.930 . S
H156 C149 0.930 . S
C157 C158 1.392 . S
C157 N161 1.328 . S
C157 H163 0.930 . S
C158 C157 1.392 . S
C158 N162 1.331 . S
C159 C160 1.391 . S
C159 N162 1.329 . S
C159 H169 0.930 . S
C160 C159 1.391 . S
C160 N161 1.334 . S
C160 H167 0.930 . S
N161 Zn145 2.119 . S
N161 C157 1.328 . S
N161 C160 1.334 . S
N162 C158 1.331 . S
N162 C159 1.329 . S
H163 C157 0.930 . S
C164 O144 1.257 . S
C164 O165 1.244 . S
O165 C164 1.244 . S
O166 C142 1.257 . S
O166 Zn145 2.019 . S
H167 C160 0.930 . S
H168 C147 0.930 . S
H169 C159 0.930 . S
Zn170 N174 2.020 . S
Zn170 O178 2.019 . S
Zn170 N180 2.119 . S
Zn170 O188 1.975 . S
C171 N172 1.334 . S
C171 N175 1.336 . S
N172 C171 1.334 . S
N172 C173 1.334 . S
C173 N172 1.334 . S
C173 N174 1.336 . S
N174 Zn170 2.020 . S
N174 C173 1.336 . S
N174 N175 1.354 . S
N175 C171 1.336 . S
N175 N174 1.354 . S
N175 Zn179 2.020 . S
C176 O177 1.244 . S
C176 O200 1.257 . S
O177 C176 1.244 . S
O178 Zn170 2.019 . S
O178 C198 1.257 . S
Zn179 N175 2.020 . S
Zn179 O186 1.975 . S
Zn179 N195 2.119 . S
Zn179 O200 2.019 . S
N180 Zn170 2.119 . S
N180 C182 1.334 . S
N180 C183 1.328 . S
C181 C182 1.391 . S
C181 N184 1.329 . S
C181 H202 0.930 . S
C182 N180 1.334 . S
C182 C181 1.391 . S
C182 H189 0.930 . S
C183 N180 1.328 . S
C183 C185 1.392 . S
C183 H190 0.930 . S
N184 C181 1.329 . S
N184 C185 1.331 . S
C185 C183 1.392 . S
C185 N184 1.331 . S
O186 Zn179 1.975 . S
O186 C187 1.252 . S
C187 O186 1.252 . S
C187 O188 1.252 . S
O188 Zn170 1.975 . S
O188 C187 1.252 . S
H189 C182 0.930 . S
H190 C183 0.930 . S
C191 C192 1.392 . S
C191 N195 1.328 . S
C191 H197 0.930 . S
C192 C191 1.392 . S
C192 N196 1.331 . S
C193 C194 1.391 . S
C193 N196 1.329 . S
C193 H203 0.930 . S
C194 C193 1.391 . S
C194 N195 1.334 . S
C194 H201 0.930 . S
N195 Zn179 2.119 . S
N195 C191 1.328 . S
N195 C194 1.334 . S
N196 C192 1.331 . S
N196 C193 1.329 . S
H197 C191 0.930 . S
C198 O178 1.257 . S
C198 O199 1.244 . S
O199 C198 1.244 . S
O200 C176 1.257 . S
O200 Zn179 2.019 . S
H201 C194 0.930 . S
H202 C181 0.930 . S
H203 C193 0.930 . S
Zn204 N208 2.020 . S
Zn204 O212 2.019 . S
Zn204 N214 2.119 . S
Zn204 O222 1.975 . S
C205 N206 1.334 . S
C205 N209 1.336 . S
N206 C205 1.334 . S
N206 C207 1.334 . S
C207 N206 1.334 . S
C207 N208 1.336 . S
N208 Zn204 2.020 . S
N208 C207 1.336 . S
N208 N209 1.354 . S
N209 C205 1.336 . S
N209 N208 1.354 . S
N209 Zn213 2.020 . S
C210 O211 1.244 . S
C210 O234 1.257 . S
O211 C210 1.244 . S
O212 Zn204 2.019 . S
O212 C232 1.257 . S
Zn213 N209 2.020 . S
Zn213 O220 1.975 . S
Zn213 N229 2.119 . S
Zn213 O234 2.019 . S
N214 Zn204 2.119 . S
N214 C216 1.334 . S
N214 C217 1.328 . S
C215 C216 1.391 . S
C215 N218 1.329 . S
C215 H236 0.930 . S
C216 N214 1.334 . S
C216 C215 1.391 . S
C216 H223 0.930 . S
C217 N214 1.328 . S
C217 C219 1.392 . S
C217 H224 0.930 . S
N218 C215 1.329 . S
N218 C219 1.331 . S
C219 C217 1.392 . S
C219 N218 1.331 . S
O220 Zn213 1.975 . S
O220 C221 1.252 . S
C221 O220 1.252 . S
C221 O222 1.252 . S
O222 Zn204 1.975 . S
O222 C221 1.252 . S
H223 C216 0.930 . S
H224 C217 0.930 . S
C225 C226 1.392 . S
C225 N229 1.328 . S
C225 H231 0.930 . S
C226 C225 1.392 . S
C226 N230 1.331 . S
C227 C228 1.391 . S
C227 N230 1.329 . S
C227 H237 0.930 . S
C228 C227 1.391 . S
C228 N229 1.334 . S
C228 H235 0.930 . S
N229 Zn213 2.119 . S
N229 C225 1.328 . S
N229 C228 1.334 . S
N230 C226 1.331 . S
N230 C227 1.329 . S
H231 C225 0.930 . S
C232 O212 1.257 . S
C232 O233 1.244 . S
O233 C232 1.244 . S
O234 C210 1.257 . S
O234 Zn213 2.019 . S
H235 C228 0.930 . S
H236 C215 0.930 . S
H237 C227 0.930 . S
Zn238 N242 2.020 . S
Zn238 O246 2.019 . S
Zn238 N248 2.119 . S
Zn238 O256 1.975 . S
C239 N240 1.334 . S
C239 N243 1.336 . S
N240 C239 1.334 . S
N240 C241 1.334 . S
C241 N240 1.334 . S
C241 N242 1.336 . S
N242 Zn238 2.020 . S
N242 C241 1.336 . S
N242 N243 1.354 . S
N243 C239 1.336 . S
N243 N242 1.354 . S
N243 Zn247 2.020 . S
C244 O245 1.244 . S
C244 O268 1.257 . S
O245 C244 1.244 . S
O246 Zn238 2.019 . S
O246 C266 1.257 . S
Zn247 N243 2.020 . S
Zn247 O254 1.975 . S
Zn247 N263 2.119 . S
Zn247 O268 2.019 . S
N248 Zn238 2.119 . S
N248 C250 1.334 . S
N248 C251 1.328 . S
C249 C250 1.391 . S
C249 N252 1.329 . S
C249 H270 0.930 . S
C250 N248 1.334 . S
C250 C249 1.391 . S
C250 H257 0.930 . S
C251 N248 1.328 . S
C251 C253 1.392 . S
C251 H258 0.930 . S
N252 C249 1.329 . S
N252 C253 1.331 . S
C253 C251 1.392 . S
C253 N252 1.331 . S
O254 Zn247 1.975 . S
O254 C255 1.252 . S
C255 O254 1.252 . S
C255 O256 1.252 . S
O256 Zn238 1.975 . S
O256 C255 1.252 . S
H257 C250 0.930 . S
H258 C251 0.930 . S
C259 C260 1.392 . S
C259 N263 1.328 . S
C259 H265 0.930 . S
C260 C259 1.392 . S
C260 N264 1.331 . S
C261 C262 1.391 . S
C261 N264 1.329 . S
C261 H271 0.930 . S
C262 C261 1.391 . S
C262 N263 1.334 . S
C262 H269 0.930 . S
N263 Zn247 2.119 . S
N263 C259 1.328 . S
N263 C262 1.334 . S
N264 C260 1.331 . S
N264 C261 1.329 . S
H265 C259 0.930 . S
C266 O246 1.257 . S
C266 O267 1.244 . S
O267 C266 1.244 . S
O268 C244 1.257 . S
O268 Zn247 2.019 . S
H269 C262 0.930 . S
H270 C249 0.930 . S
H271 C261 0.930 . S
C272 C273 1.349 . S
C272 C274 1.327 . S
C272 H297 0.950 . S
C273 C272 1.349 . S
C273 C289 1.349 1_554 S
C274 C272 1.327 . S
C274 C293 1.429 . S
C274 H298 0.950 . S
C275 C292 1.548 1_455 S
C275 C294 1.392 1_556 S
C275 H299 0.952 . S
H276 C280 0.952 . S
C277 C278 1.349 1_556 S
C277 C279 1.327 . S
C277 H300 0.950 . S
C278 C277 1.349 1_554 S
C278 C290 1.349 . S
C279 C277 1.327 . S
C279 C295 1.429 1_556 S
C279 H301 0.950 . S
C280 H276 0.952 . S
C280 C288 1.548 1_655 S
C280 C296 1.392 . S
H281 C289 0.950 . S
H282 C287 0.950 . S
H283 C288 0.949 . S
H284 C290 0.950 . S
H285 C291 0.950 . S
H286 C292 0.949 . S
C287 H282 0.950 . S
C287 C289 1.327 . S
C287 C293 1.429 1_556 S
C288 C280 1.548 1_455 S
C288 H283 0.949 . S
C288 C294 1.368 . S
C289 C273 1.349 1_556 S
C289 H281 0.950 . S
C289 C287 1.327 . S
C290 C278 1.349 . S
C290 H284 0.950 . S
C290 C291 1.327 . S
C291 H285 0.950 . S
C291 C290 1.327 . S
C291 C295 1.429 . S
C292 C275 1.548 1_655 S
C292 H286 0.949 . S
C292 C296 1.368 1_556 S
C293 C274 1.429 . S
C293 C287 1.429 1_554 S
C293 C294 1.523 . S
C294 C275 1.392 1_554 S
C294 C288 1.368 . S
C294 C293 1.523 . S
C295 C279 1.429 1_554 S
C295 C291 1.429 . S
C295 C296 1.523 . S
C296 C280 1.392 . S
C296 C292 1.368 1_554 S
C296 C295 1.523 . S
H297 C272 0.950 . S
H298 C274 0.950 . S
H299 C275 0.952 . S
H300 C277 0.950 . S
H301 C279 0.950 . S
C302 C303 1.349 . S
C302 C304 1.327 . S
C302 H327 0.950 . S
C303 C302 1.349 . S
C303 C319 1.349 1_554 S
C304 C302 1.327 . S
C304 C323 1.429 . S
C304 H328 0.950 . S
C305 C322 1.548 1_565 S
C305 C324 1.392 1_556 S
C305 H329 0.952 . S
H306 C310 0.952 . S
C307 C308 1.349 1_556 S
C307 C309 1.327 . S
C307 H330 0.950 . S
C308 C307 1.349 1_554 S
C308 C320 1.349 . S
C309 C307 1.327 . S
C309 C325 1.429 1_556 S
C309 H331 0.950 . S
C310 H306 0.952 . S
C310 C318 1.548 1_545 S
C310 C326 1.392 . S
H311 C319 0.950 . S
H312 C317 0.950 . S
H313 C318 0.949 . S
H314 C320 0.950 . S
H315 C321 0.950 . S
H316 C322 0.949 . S
C317 H312 0.950 . S
C317 C319 1.327 . S
C317 C323 1.429 1_556 S
C318 C310 1.548 1_565 S
C318 H313 0.949 . S
C318 C324 1.368 . S
C319 C303 1.349 1_556 S
C319 H311 0.950 . S
C319 C317 1.327 . S
C320 C308 1.349 . S
C320 H314 0.950 . S
C320 C321 1.327 . S
C321 H315 0.950 . S
C321 C320 1.327 . S
C321 C325 1.429 . S
C322 C305 1.548 1_545 S
C322 H316 0.949 . S
C322 C326 1.368 1_556 S
C323 C304 1.429 . S
C323 C317 1.429 1_554 S
C323 C324 1.523 . S
C324 C305 1.392 1_554 S
C324 C318 1.368 . S
C324 C323 1.523 . S
C325 C309 1.429 1_554 S
C325 C321 1.429 . S
C325 C326 1.523 . S
C326 C310 1.392 . S
C326 C322 1.368 1_554 S
C326 C325 1.523 . S
H327 C302 0.950 . S
H328 C304 0.950 . S
H329 C305 0.952 . S
H330 C307 0.950 . S
H331 C309 0.950 . S
C332 C333 1.349 . S
C332 C334 1.327 . S
C332 H357 0.950 . S
C333 C332 1.349 . S
C333 C349 1.349 . S
C334 C332 1.327 . S
C334 C353 1.429 . S
C334 H358 0.950 . S
C335 C352 1.548 1_455 S
C335 C354 1.368 . S
C335 H359 0.949 . S
H336 C340 0.949 . S
C337 C338 1.349 . S
C337 C339 1.327 . S
C337 H360 0.950 . S
C338 C337 1.349 . S
C338 C350 1.349 . S
C339 C337 1.327 . S
C339 C355 1.429 . S
C339 H361 0.950 . S
C340 H336 0.949 . S
C340 C348 1.548 1_655 S
C340 C356 1.368 . S
H341 C349 0.950 . S
H342 C347 0.950 . S
H343 C348 0.952 . S
H344 C350 0.950 . S
H345 C351 0.950 . S
H346 C352 0.952 . S
C347 H342 0.950 . S
C347 C349 1.327 . S
C347 C353 1.429 . S
C348 C340 1.548 1_455 S
C348 H343 0.952 . S
C348 C354 1.392 . S
C349 C333 1.349 . S
C349 H341 0.950 . S
C349 C347 1.327 . S
C350 C338 1.349 . S
C350 H344 0.950 . S
C350 C351 1.327 . S
C351 H345 0.950 . S
C351 C350 1.327 . S
C351 C355 1.429 . S
C352 C335 1.548 1_655 S
C352 H346 0.952 . S
C352 C356 1.392 . S
C353 C334 1.429 . S
C353 C347 1.429 . S
C353 C354 1.523 . S
C354 C335 1.368 . S
C354 C348 1.392 . S
C354 C353 1.523 . S
C355 C339 1.429 . S
C355 C351 1.429 . S
C355 C356 1.523 . S
C356 C340 1.368 . S
C356 C352 1.392 . S
C356 C355 1.523 . S
H357 C332 0.950 . S
H358 C334 0.950 . S
H359 C335 0.949 . S
H360 C337 0.950 . S
H361 C339 0.950 . S
C362 C363 1.349 . S
C362 C364 1.327 . S
C362 H387 0.950 . S
C363 C362 1.349 . S
C363 C379 1.349 . S
C364 C362 1.327 . S
C364 C383 1.429 . S
C364 H388 0.950 . S
C365 C382 1.548 1_565 S
C365 C384 1.392 . S
C365 H389 0.952 . S
H366 C370 0.952 . S
C367 C368 1.349 . S
C367 C369 1.327 . S
C367 H390 0.950 . S
C368 C367 1.349 . S
C368 C380 1.349 . S
C369 C367 1.327 . S
C369 C385 1.429 . S
C369 H391 0.950 . S
C370 H366 0.952 . S
C370 C378 1.548 1_545 S
C370 C386 1.392 . S
H371 C379 0.950 . S
H372 C377 0.950 . S
H373 C378 0.949 . S
H374 C380 0.950 . S
H375 C381 0.950 . S
H376 C382 0.949 . S
C377 H372 0.950 . S
C377 C379 1.327 . S
C377 C383 1.429 . S
C378 C370 1.548 1_565 S
C378 H373 0.949 . S
C378 C384 1.368 . S
C379 C363 1.349 . S
C379 H371 0.950 . S
C379 C377 1.327 . S
C380 C368 1.349 . S
C380 H374 0.950 . S
C380 C381 1.327 . S
C381 H375 0.950 . S
C381 C380 1.327 . S
C381 C385 1.429 . S
C382 C365 1.548 1_545 S
C382 H376 0.949 . S
C382 C386 1.368 . S
C383 C364 1.429 . S
C383 C377 1.429 . S
C383 C384 1.523 . S
C384 C365 1.392 . S
C384 C378 1.368 . S
C384 C383 1.523 . S
C385 C369 1.429 . S
C385 C381 1.429 . S
C385 C386 1.523 . S
C386 C370 1.392 . S
C386 C382 1.368 . S
C386 C385 1.523 . S
H387 C362 0.950 . S
H388 C364 0.950 . S
H389 C365 0.952 . S
H390 C367 0.950 . S
H391 C369 0.950 . S
C392 C393 1.349 . S
C392 C394 1.327 . S
C392 H417 0.950 . S
C393 C392 1.349 . S
C393 C409 1.349 . S
C394 C392 1.327 . S
C394 C413 1.429 . S
C394 H418 0.950 . S
C395 C412 1.574 . S
C395 C414 1.368 . S
C395 H419 0.949 . S
H396 C400 0.949 . S
C397 C398 1.349 . S
C397 C399 1.327 . S
C397 H420 0.950 . S
C398 C397 1.349 . S
C398 C410 1.349 . S
C399 C397 1.327 . S
C399 C415 1.429 . S
C399 H421 0.950 . S
C400 H396 0.949 . S
C400 C408 1.574 . S
C400 C416 1.368 . S
H401 C409 0.950 . S
H402 C407 0.950 . S
H403 C408 0.949 . S
H404 C410 0.950 . S
H405 C411 0.950 . S
H406 C412 0.949 . S
C407 H402 0.950 . S
C407 C409 1.327 . S
C407 C413 1.429 . S
C408 C400 1.574 . S
C408 H403 0.949 . S
C408 C414 1.368 . S
C409 C393 1.349 . S
C409 H401 0.950 . S
C409 C407 1.327 . S
C410 C398 1.349 . S
C410 H404 0.950 . S
C410 C411 1.327 . S
C411 H405 0.950 . S
C411 C410 1.327 . S
C411 C415 1.429 . S
C412 C395 1.574 . S
C412 H406 0.949 . S
C412 C416 1.368 . S
C413 C394 1.429 . S
C413 C407 1.429 . S
C413 C414 1.523 . S
C414 C395 1.368 . S
C414 C408 1.368 . S
C414 C413 1.523 . S
C415 C399 1.429 . S
C415 C411 1.429 . S
C415 C416 1.523 . S
C416 C400 1.368 . S
C416 C412 1.368 . S
C416 C415 1.523 . S
H417 C392 0.950 . S
H418 C394 0.950 . S
H419 C395 0.949 . S
H420 C397 0.950 . S
H421 C399 0.950 . S
C422 C423 1.349 . S
C422 C424 1.327 . S
C422 H447 0.950 . S
C423 C422 1.349 . S
C423 C439 1.349 . S
C424 C422 1.327 . S
C424 C443 1.429 . S
C424 H448 0.950 . S
C425 C442 1.574 . S
C425 C444 1.368 . S
C425 H449 0.949 . S
H426 C430 0.949 . S
C427 C428 1.349 . S
C427 C429 1.327 . S
C427 H450 0.950 . S
C428 C427 1.349 . S
C428 C440 1.349 . S
C429 C427 1.327 . S
C429 C445 1.429 . S
C429 H451 0.950 . S
C430 H426 0.949 . S
C430 C438 1.574 . S
C430 C446 1.368 . S
H431 C439 0.950 . S
H432 C437 0.950 . S
H433 C438 0.949 . S
H434 C440 0.950 . S
H435 C441 0.950 . S
H436 C442 0.949 . S
C437 H432 0.950 . S
C437 C439 1.327 . S
C437 C443 1.429 . S
C438 C430 1.574 . S
C438 H433 0.949 . S
C438 C444 1.368 . S
C439 C423 1.349 . S
C439 H431 0.950 . S
C439 C437 1.327 . S
C440 C428 1.349 . S
C440 H434 0.950 . S
C440 C441 1.327 . S
C441 H435 0.950 . S
C441 C440 1.327 . S
C441 C445 1.429 . S
C442 C425 1.574 . S
C442 H436 0.949 . S
C442 C446 1.368 . S
C443 C424 1.429 . S
C443 C437 1.429 . S
C443 C444 1.523 . S
C444 C425 1.368 . S
C444 C438 1.368 . S
C444 C443 1.523 . S
C445 C429 1.429 . S
C445 C441 1.429 . S
C445 C446 1.523 . S
C446 C430 1.368 . S
C446 C442 1.368 . S
C446 C445 1.523 . S
H447 C422 0.950 . S
H448 C424 0.950 . S
H449 C425 0.949 . S
H450 C427 0.950 . S
H451 C429 0.950 . S
C452 C453 1.349 . S
C452 C454 1.327 . S
C452 H477 0.950 . S
C453 C452 1.349 . S
C453 C469 1.349 . S
C454 C452 1.327 . S
C454 C473 1.429 . S
C454 H478 0.950 . S
C455 C472 1.574 . S
C455 C474 1.368 . S
C455 H479 0.949 . S
H456 C460 0.949 . S
C457 C458 1.349 . S
C457 C459 1.327 . S
C457 H480 0.950 . S
C458 C457 1.349 . S
C458 C470 1.349 . S
C459 C457 1.327 . S
C459 C475 1.429 . S
C459 H481 0.950 . S
C460 H456 0.949 . S
C460 C468 1.574 . S
C460 C476 1.368 . S
H461 C469 0.950 . S
H462 C467 0.950 . S
H463 C468 0.949 . S
H464 C470 0.950 . S
H465 C471 0.950 . S
H466 C472 0.949 . S
C467 H462 0.950 . S
C467 C469 1.327 . S
C467 C473 1.429 . S
C468 C460 1.574 . S
C468 H463 0.949 . S
C468 C474 1.368 . S
C469 C453 1.349 . S
C469 H461 0.950 . S
C469 C467 1.327 . S
C470 C458 1.349 . S
C470 H464 0.950 . S
C470 C471 1.327 . S
C471 H465 0.950 . S
C471 C470 1.327 . S
C471 C475 1.429 . S
C472 C455 1.574 . S
C472 H466 0.949 . S
C472 C476 1.368 . S
C473 C454 1.429 . S
C473 C467 1.429 . S
C473 C474 1.523 . S
C474 C455 1.368 . S
C474 C468 1.368 . S
C474 C473 1.523 . S
C475 C459 1.429 . S
C475 C471 1.429 . S
C475 C476 1.523 . S
C476 C460 1.368 . S
C476 C472 1.368 . S
C476 C475 1.523 . S
H477 C452 0.950 . S
H478 C454 0.950 . S
H479 C455 0.949 . S
H480 C457 0.950 . S
H481 C459 0.950 . S
C482 C483 1.349 . S
C482 C484 1.327 . S
C482 H507 0.950 . S
C483 C482 1.349 . S
C483 C499 1.349 . S
C484 C482 1.327 . S
C484 C503 1.429 . S
C484 H508 0.950 . S
C485 C502 1.574 . S
C485 C504 1.368 . S
C485 H509 0.949 . S
H486 C490 0.949 . S
C487 C488 1.349 . S
C487 C489 1.327 . S
C487 H510 0.950 . S
C488 C487 1.349 . S
C488 C500 1.349 . S
C489 C487 1.327 . S
C489 C505 1.429 . S
C489 H511 0.950 . S
C490 H486 0.949 . S
C490 C498 1.574 . S
C490 C506 1.368 . S
H491 C499 0.950 . S
H492 C497 0.950 . S
H493 C498 0.949 . S
H494 C500 0.950 . S
H495 C501 0.950 . S
H496 C502 0.949 . S
C497 H492 0.950 . S
C497 C499 1.327 . S
C497 C503 1.429 . S
C498 C490 1.574 . S
C498 H493 0.949 . S
C498 C504 1.368 . S
C499 C483 1.349 . S
C499 H491 0.950 . S
C499 C497 1.327 . S
C500 C488 1.349 . S
C500 H494 0.950 . S
C500 C501 1.327 . S
C501 H495 0.950 . S
C501 C500 1.327 . S
C501 C505 1.429 . S
C502 C485 1.574 . S
C502 H496 0.949 . S
C502 C506 1.368 . S
C503 C484 1.429 . S
C503 C497 1.429 . S
C503 C504 1.523 . S
C504 C485 1.368 . S
C504 C498 1.368 . S
C504 C503 1.523 . S
C505 C489 1.429 . S
C505 C501 1.429 . S
C505 C506 1.523 . S
C506 C490 1.368 . S
C506 C502 1.368 . S
C506 C505 1.523 . S
H507 C482 0.950 . S
H508 C484 0.950 . S
H509 C485 0.949 . S
H510 C487 0.950 . S
H511 C489 0.950 . S
C512 C513 1.349 . S
C512 C514 1.327 . S
C512 H537 0.950 . S
C513 C512 1.349 . S
C513 C529 1.349 . S
C514 C512 1.327 . S
C514 C533 1.429 . S
C514 H538 0.950 . S
C515 C532 1.574 . S
C515 C534 1.368 . S
C515 H539 0.949 . S
H516 C520 0.949 . S
C517 C518 1.349 . S
C517 C519 1.327 . S
C517 H540 0.950 . S
C518 C517 1.349 . S
C518 C530 1.349 . S
C519 C517 1.327 . S
C519 C535 1.429 . S
C519 H541 0.950 . S
C520 H516 0.949 . S
C520 C528 1.574 . S
C520 C536 1.368 . S
H521 C529 0.950 . S
H522 C527 0.950 . S
H523 C528 0.949 . S
H524 C530 0.950 . S
H525 C531 0.950 . S
H526 C532 0.949 . S
C527 H522 0.950 . S
C527 C529 1.327 . S
C527 C533 1.429 . S
C528 C520 1.574 . S
C528 H523 0.949 . S
C528 C534 1.368 . S
C529 C513 1.349 . S
C529 H521 0.950 . S
C529 C527 1.327 . S
C530 C518 1.349 . S
C530 H524 0.950 . S
C530 C531 1.327 . S
C531 H525 0.950 . S
C531 C530 1.327 . S
C531 C535 1.429 . S
C532 C515 1.574 . S
C532 H526 0.949 . S
C532 C536 1.368 . S
C533 C514 1.429 . S
C533 C527 1.429 . S
C533 C534 1.523 . S
C534 C515 1.368 . S
C534 C528 1.368 . S
C534 C533 1.523 . S
C535 C519 1.429 . S
C535 C531 1.429 . S
C535 C536 1.523 . S
C536 C520 1.368 . S
C536 C532 1.368 . S
C536 C535 1.523 . S
H537 C512 0.950 . S
H538 C514 0.950 . S
H539 C515 0.949 . S
H540 C517 0.950 . S
H541 C519 0.950 . S
C542 C543 1.349 . S
C542 C544 1.327 . S
C542 H567 0.950 . S
C543 C542 1.349 . S
C543 C559 1.349 . S
C544 C542 1.327 . S
C544 C563 1.429 . S
C544 H568 0.950 . S
C545 C562 1.574 . S
C545 C564 1.368 . S
C545 H569 0.949 . S
H546 C550 0.949 . S
C547 C548 1.349 . S
C547 C549 1.327 . S
C547 H570 0.950 . S
C548 C547 1.349 . S
C548 C560 1.349 . S
C549 C547 1.327 . S
C549 C565 1.429 . S
C549 H571 0.950 . S
C550 H546 0.949 . S
C550 C558 1.574 . S
C550 C566 1.368 . S
H551 C559 0.950 . S
H552 C557 0.950 . S
H553 C558 0.949 . S
H554 C560 0.950 . S
H555 C561 0.950 . S
H556 C562 0.949 . S
C557 H552 0.950 . S
C557 C559 1.327 . S
C557 C563 1.429 . S
C558 C550 1.574 . S
C558 H553 0.949 . S
C558 C564 1.368 . S
C559 C543 1.349 . S
C559 H551 0.950 . S
C559 C557 1.327 . S
C560 C548 1.349 . S
C560 H554 0.950 . S
C560 C561 1.327 . S
C561 H555 0.950 . S
C561 C560 1.327 . S
C561 C565 1.429 . S
C562 C545 1.574 . S
C562 H556 0.949 . S
C562 C566 1.368 . S
C563 C544 1.429 . S
C563 C557 1.429 . S
C563 C564 1.523 . S
C564 C545 1.368 . S
C564 C558 1.368 . S
C564 C563 1.523 . S
C565 C549 1.429 . S
C565 C561 1.429 . S
C565 C566 1.523 . S
C566 C550 1.368 . S
C566 C562 1.368 . S
C566 C565 1.523 . S
H567 C542 0.950 . S
H568 C544 0.950 . S
H569 C545 0.949 . S
H570 C547 0.950 . S
H571 C549 0.950 . S
C572 C573 1.349 . S
C572 C574 1.327 . S
C572 H597 0.950 . S
C573 C572 1.349 . S
C573 C589 1.349 . S
C574 C572 1.327 . S
C574 C593 1.429 . S
C574 H598 0.950 . S
C575 C592 1.574 . S
C575 C594 1.368 . S
C575 H599 0.949 . S
H576 C580 0.949 . S
C577 C578 1.349 . S
C577 C579 1.327 . S
C577 H600 0.950 . S
C578 C577 1.349 . S
C578 C590 1.349 . S
C579 C577 1.327 . S
C579 C595 1.429 . S
C579 H601 0.950 . S
C580 H576 0.949 . S
C580 C588 1.574 . S
C580 C596 1.368 . S
H581 C589 0.950 . S
H582 C587 0.950 . S
H583 C588 0.949 . S
H584 C590 0.950 . S
H585 C591 0.950 . S
H586 C592 0.949 . S
C587 H582 0.950 . S
C587 C589 1.327 . S
C587 C593 1.429 . S
C588 C580 1.574 . S
C588 H583 0.949 . S
C588 C594 1.368 . S
C589 C573 1.349 . S
C589 H581 0.950 . S
C589 C587 1.327 . S
C590 C578 1.349 . S
C590 H584 0.950 . S
C590 C591 1.327 . S
C591 H585 0.950 . S
C591 C590 1.327 . S
C591 C595 1.429 . S
C592 C575 1.574 . S
C592 H586 0.949 . S
C592 C596 1.368 . S
C593 C574 1.429 . S
C593 C587 1.429 . S
C593 C594 1.523 . S
C594 C575 1.368 . S
C594 C588 1.368 . S
C594 C593 1.523 . S
C595 C579 1.429 . S
C595 C591 1.429 . S
C595 C596 1.523 . S
C596 C580 1.368 . S
C596 C592 1.368 . S
C596 C595 1.523 . S
H597 C572 0.950 . S
H598 C574 0.950 . S
H599 C575 0.949 . S
H600 C577 0.950 . S
H601 C579 0.950 . S
C602 C603 1.349 . S
C602 C604 1.327 . S
C602 H627 0.950 . S
C603 C602 1.349 . S
C603 C619 1.349 . S
C604 C602 1.327 . S
C604 C623 1.429 . S
C604 H628 0.950 . S
C605 C622 1.574 . S
C605 C624 1.368 . S
C605 H629 0.949 . S
H606 C610 0.949 . S
C607 C608 1.349 . S
C607 C609 1.327 . S
C607 H630 0.950 . S
C608 C607 1.349 . S
C608 C620 1.349 . S
C609 C607 1.327 . S
C609 C625 1.429 . S
C609 H631 0.950 . S
C610 H606 0.949 . S
C610 C618 1.574 . S
C610 C626 1.368 . S
H611 C619 0.950 . S
H612 C617 0.950 . S
H613 C618 0.949 . S
H614 C620 0.950 . S
H615 C621 0.950 . S
H616 C622 0.949 . S
C617 H612 0.950 . S
C617 C619 1.327 . S
C617 C623 1.429 . S
C618 C610 1.574 . S
C618 H613 0.949 . S
C618 C624 1.368 . S
C619 C603 1.349 . S
C619 H611 0.950 . S
C619 C617 1.327 . S
C620 C608 1.349 . S
C620 H614 0.950 . S
C620 C621 1.327 . S
C621 H615 0.950 . S
C621 C620 1.327 . S
C621 C625 1.429 . S
C622 C605 1.574 . S
C622 H616 0.949 . S
C622 C626 1.368 . S
C623 C604 1.429 . S
C623 C617 1.429 . S
C623 C624 1.523 . S
C624 C605 1.368 . S
C624 C618 1.368 . S
C624 C623 1.523 . S
C625 C609 1.429 . S
C625 C621 1.429 . S
C625 C626 1.523 . S
C626 C610 1.368 . S
C626 C622 1.368 . S
C626 C625 1.523 . S
H627 C602 0.950 . S
H628 C604 0.950 . S
H629 C605 0.949 . S
H630 C607 0.950 . S
H631 C609 0.950 . S
C632 C633 1.349 . S
C632 C634 1.327 . S
C632 H657 0.950 . S
C633 C632 1.349 . S
C633 C649 1.349 . S
C634 C632 1.327 . S
C634 C653 1.429 . S
C634 H658 0.950 . S
C635 C652 1.574 . S
C635 C654 1.368 1_545 S
C635 H659 0.949 . S
H636 C640 0.949 . S
C637 C638 1.349 . S
C637 C639 1.327 . S
C637 H660 0.950 . S
C638 C637 1.349 . S
C638 C650 1.349 . S
C639 C637 1.327 . S
C639 C655 1.429 . S
C639 H661 0.950 . S
C640 H636 0.949 . S
C640 C648 1.574 . S
C640 C656 1.368 1_565 S
H641 C649 0.950 . S
H642 C647 0.950 . S
H643 C648 0.949 . S
H644 C650 0.950 . S
H645 C651 0.950 . S
H646 C652 0.949 . S
C647 H642 0.950 . S
C647 C649 1.327 . S
C647 C653 1.429 . S
C648 C640 1.574 . S
C648 H643 0.949 . S
C648 C654 1.368 . S
C649 C633 1.349 . S
C649 H641 0.950 . S
C649 C647 1.327 . S
C650 C638 1.349 . S
C650 H644 0.950 . S
C650 C651 1.327 . S
C651 H645 0.950 . S
C651 C650 1.327 . S
C651 C655 1.429 . S
C652 C635 1.574 . S
C652 H646 0.949 . S
C652 C656 1.368 . S
C653 C634 1.429 . S
C653 C647 1.429 . S
C653 C654 1.523 . S
C654 C635 1.368 1_565 S
C654 C648 1.368 . S
C654 C653 1.523 . S
C655 C639 1.429 . S
C655 C651 1.429 . S
C655 C656 1.523 . S
C656 C640 1.368 1_545 S
C656 C652 1.368 . S
C656 C655 1.523 . S
H657 C632 0.950 . S
H658 C634 0.950 . S
H659 C635 0.949 . S
H660 C637 0.950 . S
H661 C639 0.950 . S
C662 C663 1.349 . S
C662 C664 1.327 . S
C662 H687 0.950 . S
C663 C662 1.349 . S
C663 C679 1.349 . S
C664 C662 1.327 . S
C664 C683 1.429 . S
C664 H688 0.950 . S
C665 C682 1.576 1_455 S
C665 C684 1.368 . S
C665 H689 0.949 . S
H666 C670 0.949 . S
C667 C668 1.349 . S
C667 C669 1.327 . S
C667 H690 0.950 . S
C668 C667 1.349 . S
C668 C680 1.349 . S
C669 C667 1.327 . S
C669 C685 1.429 . S
C669 H691 0.950 . S
C670 H666 0.949 . S
C670 C678 1.576 1_655 S
C670 C686 1.368 . S
H671 C679 0.950 . S
H672 C677 0.950 . S
H673 C678 0.949 . S
H674 C680 0.950 . S
H675 C681 0.950 . S
H676 C682 0.949 . S
C677 H672 0.950 . S
C677 C679 1.327 . S
C677 C683 1.429 . S
C678 C670 1.576 1_455 S
C678 H673 0.949 . S
C678 C684 1.366 . S
C679 C663 1.349 . S
C679 H671 0.950 . S
C679 C677 1.327 . S
C680 C668 1.349 . S
C680 H674 0.950 . S
C680 C681 1.327 . S
C681 H675 0.950 . S
C681 C680 1.327 . S
C681 C685 1.429 . S
C682 C665 1.576 1_655 S
C682 H676 0.949 . S
C682 C686 1.366 . S
C683 C664 1.429 . S
C683 C677 1.429 . S
C683 C684 1.523 . S
C684 C665 1.368 . S
C684 C678 1.366 . S
C684 C683 1.523 . S
C685 C669 1.429 . S
C685 C681 1.429 . S
C685 C686 1.523 . S
C686 C670 1.368 . S
C686 C682 1.366 . S
C686 C685 1.523 . S
H687 C662 0.950 . S
H688 C664 0.950 . S
H689 C665 0.949 . S
H690 C667 0.950 . S
H691 C669 0.950 . S
C692 C693 1.349 . S
C692 C694 1.327 . S
C692 H717 0.950 . S
C693 C692 1.349 . S
C693 C709 1.349 . S
C694 C692 1.327 . S
C694 C713 1.429 . S
C694 H718 0.950 . S
C695 C712 1.590 . S
C695 C714 1.368 . S
C695 H719 0.949 . S
H696 C700 0.949 . S
C697 C698 1.349 . S
C697 C699 1.327 . S
C697 H720 0.950 . S
C698 C697 1.349 . S
C698 C710 1.349 . S
C699 C697 1.327 . S
C699 C715 1.429 . S
C699 H721 0.950 . S
C700 H696 0.949 . S
C700 C708 1.590 . S
C700 C716 1.368 . S
H701 C709 0.950 . S
H702 C707 0.950 . S
H703 C708 0.949 . S
H704 C710 0.950 . S
H705 C711 0.950 . S
H706 C712 0.949 . S
C707 H702 0.950 . S
C707 C709 1.327 . S
C707 C713 1.429 . S
C708 C700 1.590 . S
C708 H703 0.949 . S
C708 C714 1.352 1_565 S
C709 C693 1.349 . S
C709 H701 0.950 . S
C709 C707 1.327 . S
C710 C698 1.349 . S
C710 H704 0.950 . S
C710 C711 1.327 . S
C711 H705 0.950 . S
C711 C710 1.327 . S
C711 C715 1.429 . S
C712 C695 1.590 . S
C712 H706 0.949 . S
C712 C716 1.352 1_545 S
C713 C694 1.429 . S
C713 C707 1.429 . S
C713 C714 1.523 . S
C714 C695 1.368 . S
C714 C708 1.352 1_545 S
C714 C713 1.523 . S
C715 C699 1.429 . S
C715 C711 1.429 . S
C715 C716 1.523 . S
C716 C700 1.368 . S
C716 C712 1.352 1_565 S
C716 C715 1.523 . S
H717 C692 0.950 . S
H718 C694 0.950 . S
H719 C695 0.949 . S
H720 C697 0.950 . S
H721 C699 0.950 . S
C722 C723 1.349 . S
C722 C724 1.327 . S
C722 H747 0.950 . S
C723 C722 1.349 . S
C723 C739 1.349 . S
C724 C722 1.327 . S
C724 C743 1.429 . S
C724 H748 0.950 . S
C725 C742 1.576 1_655 S
C725 C744 1.368 . S
C725 H749 0.949 . S
H726 C730 0.949 . S
C727 C728 1.349 . S
C727 C729 1.327 . S
C727 H750 0.950 . S
C728 C727 1.349 . S
C728 C740 1.349 . S
C729 C727 1.327 . S
C729 C745 1.429 . S
C729 H751 0.950 . S
C730 H726 0.949 . S
C730 C738 1.576 1_455 S
C730 C746 1.368 . S
H731 C739 0.950 . S
H732 C737 0.950 . S
H733 C738 0.949 . S
H734 C740 0.950 . S
H735 C741 0.950 . S
H736 C742 0.949 . S
C737 H732 0.950 . S
C737 C739 1.327 . S
C737 C743 1.429 . S
C738 C730 1.576 1_655 S
C738 H733 0.949 . S
C738 C744 1.366 . S
C739 C723 1.349 . S
C739 H731 0.950 . S
C739 C737 1.327 . S
C740 C728 1.349 . S
C740 H734 0.950 . S
C740 C741 1.327 . S
C741 H735 0.950 . S
C741 C740 1.327 . S
C741 C745 1.429 . S
C742 C725 1.576 1_455 S
C742 H736 0.949 . S
C742 C746 1.366 . S
C743 C724 1.429 . S
C743 C737 1.429 . S
C743 C744 1.523 . S
C744 C725 1.368 . S
C744 C738 1.366 . S
C744 C743 1.523 . S
C745 C729 1.429 . S
C745 C741 1.429 . S
C745 C746 1.523 . S
C746 C730 1.368 . S
C746 C742 1.366 . S
C746 C745 1.523 . S
H747 C722 0.950 . S
H748 C724 0.950 . S
H749 C725 0.949 . S
H750 C727 0.950 . S
H751 C729 0.950 . S
C752 C753 1.349 . S
C752 C754 1.327 . S
C752 H777 0.950 . S
C753 C752 1.349 . S
C753 C769 1.349 . S
C754 C752 1.327 . S
C754 C773 1.429 . S
C754 H778 0.950 . S
C755 C772 1.574 . S
C755 C774 1.368 . S
C755 H779 0.949 . S
H756 C760 0.949 . S
C757 C758 1.349 . S
C757 C759 1.327 . S
C757 H780 0.950 . S
C758 C757 1.349 . S
C758 C770 1.349 . S
C759 C757 1.327 . S
C759 C775 1.429 . S
C759 H781 0.950 . S
C760 H756 0.949 . S
C760 C768 1.574 . S
C760 C776 1.368 . S
H761 C769 0.950 . S
H762 C767 0.950 . S
H763 C768 0.949 . S
H764 C770 0.950 . S
H765 C771 0.950 . S
H766 C772 0.949 . S
C767 H762 0.950 . S
C767 C769 1.327 . S
C767 C773 1.429 . S
C768 C760 1.574 . S
C768 H763 0.949 . S
C768 C774 1.368 1_545 S
C769 C753 1.349 . S
C769 H761 0.950 . S
C769 C767 1.327 . S
C770 C758 1.349 . S
C770 H764 0.950 . S
C770 C771 1.327 . S
C771 H765 0.950 . S
C771 C770 1.327 . S
C771 C775 1.429 . S
C772 C755 1.574 . S
C772 H766 0.949 . S
C772 C776 1.368 1_565 S
C773 C754 1.429 . S
C773 C767 1.429 . S
C773 C774 1.523 . S
C774 C755 1.368 . S
C774 C768 1.368 1_565 S
C774 C773 1.523 . S
C775 C759 1.429 . S
C775 C771 1.429 . S
C775 C776 1.523 . S
C776 C760 1.368 . S
C776 C772 1.368 1_545 S
C776 C775 1.523 . S
H777 C752 0.950 . S
H778 C754 0.950 . S
H779 C755 0.949 . S
H780 C757 0.950 . S
H781 C759 0.950 . S
C782 C783 1.349 . S
C782 C784 1.327 . S
C782 H807 0.950 . S
C783 C782 1.349 . S
C783 C799 1.349 . S
C784 C782 1.327 . S
C784 C803 1.429 . S
C784 H808 0.950 . S
C785 C802 1.571 . S
C785 C804 1.370 1_655 S
C785 H809 0.949 1_655 S
H786 C790 0.949 1_655 S
C787 C788 1.349 . S
C787 C789 1.327 . S
C787 H810 0.950 . S
C788 C787 1.349 . S
C788 C800 1.349 . S
C789 C787 1.327 . S
C789 C805 1.429 . S
C789 H811 0.950 . S
C790 H786 0.949 1_455 S
C790 C798 1.571 . S
C790 C806 1.370 1_455 S
H791 C799 0.950 . S
H792 C797 0.950 . S
H793 C798 0.949 . S
H794 C800 0.950 . S
H795 C801 0.950 . S
H796 C802 0.949 . S
C797 H792 0.950 . S
C797 C799 1.327 . S
C797 C803 1.429 . S
C798 C790 1.571 . S
C798 H793 0.949 . S
C798 C804 1.368 . S
C799 C783 1.349 . S
C799 H791 0.950 . S
C799 C797 1.327 . S
C800 C788 1.349 . S
C800 H794 0.950 . S
C800 C801 1.327 . S
C801 H795 0.950 . S
C801 C800 1.327 . S
C801 C805 1.429 . S
C802 C785 1.571 . S
C802 H796 0.949 . S
C802 C806 1.368 . S
C803 C784 1.429 . S
C803 C797 1.429 . S
C803 C804 1.523 . S
C804 C785 1.370 1_455 S
C804 C798 1.368 . S
C804 C803 1.523 . S
C805 C789 1.429 . S
C805 C801 1.429 . S
C805 C806 1.523 . S
C806 C790 1.370 1_655 S
C806 C802 1.368 . S
C806 C805 1.523 . S
H807 C782 0.950 . S
H808 C784 0.950 . S
H809 C785 0.949 1_455 S
H810 C787 0.950 . S
H811 C789 0.950 . S
C812 C813 1.349 . S
C812 C814 1.327 . S
C812 H837 0.950 . S
C813 C812 1.349 . S
C813 C829 1.349 . S
C814 C812 1.327 . S
C814 C833 1.429 . S
C814 H838 0.950 . S
C815 C832 1.574 . S
C815 C834 1.368 . S
C815 H839 0.949 . S
H816 C820 0.949 . S
C817 C818 1.349 . S
C817 C819 1.327 . S
C817 H840 0.950 . S
C818 C817 1.349 . S
C818 C830 1.349 . S
C819 C817 1.327 . S
C819 C835 1.429 . S
C819 H841 0.950 . S
C820 H816 0.949 . S
C820 C828 1.574 . S
C820 C836 1.368 . S
H821 C829 0.950 . S
H822 C827 0.950 . S
H823 C828 0.949 . S
H824 C830 0.950 . S
H825 C831 0.950 . S
H826 C832 0.949 . S
C827 H822 0.950 . S
C827 C829 1.327 . S
C827 C833 1.429 . S
C828 C820 1.574 . S
C828 H823 0.949 . S
C828 C834 1.368 1_565 S
C829 C813 1.349 . S
C829 H821 0.950 . S
C829 C827 1.327 . S
C830 C818 1.349 . S
C830 H824 0.950 . S
C830 C831 1.327 . S
C831 H825 0.950 . S
C831 C830 1.327 . S
C831 C835 1.429 . S
C832 C815 1.574 . S
C832 H826 0.949 . S
C832 C836 1.368 1_545 S
C833 C814 1.429 . S
C833 C827 1.429 . S
C833 C834 1.523 . S
C834 C815 1.368 . S
C834 C828 1.368 1_545 S
C834 C833 1.523 . S
C835 C819 1.429 . S
C835 C831 1.429 . S
C835 C836 1.523 . S
C836 C820 1.368 . S
C836 C832 1.368 1_565 S
C836 C835 1.523 . S
H837 C812 0.950 . S
H838 C814 0.950 . S
H839 C815 0.949 . S
H840 C817 0.950 . S
H841 C819 0.950 . S
C842 C843 1.349 . S
C842 C844 1.327 . S
C842 H867 0.950 . S
C843 C842 1.349 . S
C843 C859 1.349 . S
C844 C842 1.327 . S
C844 C863 1.429 . S
C844 H868 0.950 . S
C845 C862 1.571 . S
C845 C864 1.370 1_655 S
C845 H869 0.949 1_655 S
H846 C850 0.949 1_655 S
C847 C848 1.349 . S
C847 C849 1.327 . S
C847 H870 0.950 . S
C848 C847 1.349 . S
C848 C860 1.349 . S
C849 C847 1.327 . S
C849 C865 1.429 . S
C849 H871 0.950 . S
C850 H846 0.949 1_455 S
C850 C858 1.571 . S
C850 C866 1.370 1_455 S
H851 C859 0.950 . S
H852 C857 0.950 . S
H853 C858 0.949 . S
H854 C860 0.950 . S
H855 C861 0.950 . S
H856 C862 0.949 . S
C857 H852 0.950 . S
C857 C859 1.327 . S
C857 C863 1.429 . S
C858 C850 1.571 . S
C858 H853 0.949 . S
C858 C864 1.368 . S
C859 C843 1.349 . S
C859 H851 0.950 . S
C859 C857 1.327 . S
C860 C848 1.349 . S
C860 H854 0.950 . S
C860 C861 1.327 . S
C861 H855 0.950 . S
C861 C860 1.327 . S
C861 C865 1.429 . S
C862 C845 1.571 . S
C862 H856 0.949 . S
C862 C866 1.368 . S
C863 C844 1.429 . S
C863 C857 1.429 . S
C863 C864 1.523 . S
C864 C845 1.370 1_455 S
C864 C858 1.368 . S
C864 C863 1.523 . S
C865 C849 1.429 . S
C865 C861 1.429 . S
C865 C866 1.523 . S
C866 C850 1.370 1_655 S
C866 C862 1.368 . S
C866 C865 1.523 . S
H867 C842 0.950 . S
H868 C844 0.950 . S
H869 C845 0.949 1_455 S
H870 C847 0.950 . S
H871 C849 0.950 . S
C872 C873 1.349 . S
C872 C874 1.327 . S
C872 H897 0.950 . S
C873 C872 1.349 . S
C873 C889 1.349 . S
C874 C872 1.327 . S
C874 C893 1.429 . S
C874 H898 0.950 . S
C875 C892 1.574 . S
C875 C894 1.368 . S
C875 H899 0.949 . S
H876 C880 0.949 . S
C877 C878 1.349 . S
C877 C879 1.327 . S
C877 H900 0.950 . S
C878 C877 1.349 . S
C878 C890 1.349 . S
C879 C877 1.327 . S
C879 C895 1.429 . S
C879 H901 0.950 . S
C880 H876 0.949 . S
C880 C888 1.574 . S
C880 C896 1.368 . S
H881 C889 0.950 . S
H882 C887 0.950 . S
H883 C888 0.949 . S
H884 C890 0.950 . S
H885 C891 0.950 . S
H886 C892 0.949 . S
C887 H882 0.950 . S
C887 C889 1.327 . S
C887 C893 1.429 . S
C888 C880 1.574 . S
C888 H883 0.949 . S
C888 C894 1.368 . S
C889 C873 1.349 . S
C889 H881 0.950 . S
C889 C887 1.327 . S
C890 C878 1.349 . S
C890 H884 0.950 . S
C890 C891 1.327 . S
C891 H885 0.950 . S
C891 C890 1.327 . S
C891 C895 1.429 . S
C892 C875 1.574 . S
C892 H886 0.949 . S
C892 C896 1.368 . S
C893 C874 1.429 . S
C893 C887 1.429 . S
C893 C894 1.523 . S
C894 C875 1.368 . S
C894 C888 1.368 . S
C894 C893 1.523 . S
C895 C879 1.429 . S
C895 C891 1.429 . S
C895 C896 1.523 . S
C896 C880 1.368 . S
C896 C892 1.368 . S
C896 C895 1.523 . S
H897 C872 0.950 . S
H898 C874 0.950 . S
H899 C875 0.949 . S
H900 C877 0.950 . S
H901 C879 0.950 . S
C902 C903 1.349 . S
C902 C904 1.327 . S
C902 H927 0.950 . S
C903 C902 1.349 . S
C903 C919 1.349 . S
C904 C902 1.327 . S
C904 C923 1.429 . S
C904 H928 0.950 . S
C905 C922 1.574 . S
C905 C924 1.368 . S
C905 H929 0.949 . S
H906 C910 0.949 . S
C907 C908 1.349 . S
C907 C909 1.327 . S
C907 H930 0.950 . S
C908 C907 1.349 . S
C908 C920 1.349 . S
C909 C907 1.327 . S
C909 C925 1.429 . S
C909 H931 0.950 . S
C910 H906 0.949 . S
C910 C918 1.574 . S
C910 C926 1.368 . S
H911 C919 0.950 . S
H912 C917 0.950 . S
H913 C918 0.949 . S
H914 C920 0.950 . S
H915 C921 0.950 . S
H916 C922 0.949 . S
C917 H912 0.950 . S
C917 C919 1.327 . S
C917 C923 1.429 . S
C918 C910 1.574 . S
C918 H913 0.949 . S
C918 C924 1.368 . S
C919 C903 1.349 . S
C919 H911 0.950 . S
C919 C917 1.327 . S
C920 C908 1.349 . S
C920 H914 0.950 . S
C920 C921 1.327 . S
C921 H915 0.950 . S
C921 C920 1.327 . S
C921 C925 1.429 . S
C922 C905 1.574 . S
C922 H916 0.949 . S
C922 C926 1.368 . S
C923 C904 1.429 . S
C923 C917 1.429 . S
C923 C924 1.523 . S
C924 C905 1.368 . S
C924 C918 1.368 . S
C924 C923 1.523 . S
C925 C909 1.429 . S
C925 C921 1.429 . S
C925 C926 1.523 . S
C926 C910 1.368 . S
C926 C922 1.368 . S
C926 C925 1.523 . S
H927 C902 0.950 . S
H928 C904 0.950 . S
H929 C905 0.949 . S
H930 C907 0.950 . S
H931 C909 0.950 . S
C932 C933 1.349 . S
C932 C934 1.327 . S
C932 H957 0.950 . S
C933 C932 1.349 . S
C933 C949 1.349 . S
C934 C932 1.327 . S
C934 C953 1.429 . S
C934 H958 0.950 . S
C935 C952 1.574 . S
C935 C954 1.368 . S
C935 H959 0.949 . S
H936 C940 0.949 . S
C937 C938 1.349 . S
C937 C939 1.327 . S
C937 H960 0.950 . S
C938 C937 1.349 . S
C938 C950 1.349 . S
C939 C937 1.327 . S
C939 C955 1.429 . S
C939 H961 0.950 . S
C940 H936 0.949 . S
C940 C948 1.574 . S
C940 C956 1.368 . S
H941 C949 0.950 . S
H942 C947 0.950 . S
H943 C948 0.949 . S
H944 C950 0.950 . S
H945 C951 0.950 . S
H946 C952 0.949 . S
C947 H942 0.950 . S
C947 C949 1.327 . S
C947 C953 1.429 . S
C948 C940 1.574 . S
C948 H943 0.949 . S
C948 C954 1.368 . S
C949 C933 1.349 . S
C949 H941 0.950 . S
C949 C947 1.327 . S
C950 C938 1.349 . S
C950 H944 0.950 . S
C950 C951 1.327 . S
C951 H945 0.950 . S
C951 C950 1.327 . S
C951 C955 1.429 . S
C952 C935 1.574 . S
C952 H946 0.949 . S
C952 C956 1.368 . S
C953 C934 1.429 . S
C953 C947 1.429 . S
C953 C954 1.523 . S
C954 C935 1.368 . S
C954 C948 1.368 . S
C954 C953 1.523 . S
C955 C939 1.429 . S
C955 C951 1.429 . S
C955 C956 1.523 . S
C956 C940 1.368 . S
C956 C952 1.368 . S
C956 C955 1.523 . S
H957 C932 0.950 . S
H958 C934 0.950 . S
H959 C935 0.949 . S
H960 C937 0.950 . S
H961 C939 0.950 . S
C962 C963 1.349 . S
C962 C964 1.327 . S
C962 H987 0.950 . S
C963 C962 1.349 . S
C963 C979 1.349 . S
C964 C962 1.327 . S
C964 C983 1.429 . S
C964 H988 0.950 . S
C965 C982 1.574 . S
C965 C984 1.368 . S
C965 H989 0.949 . S
H966 C970 0.949 . S
C967 C968 1.349 . S
C967 C969 1.327 . S
C967 H990 0.950 . S
C968 C967 1.349 . S
C968 C980 1.349 . S
C969 C967 1.327 . S
C969 C985 1.429 . S
C969 H991 0.950 . S
C970 H966 0.949 . S
C970 C978 1.574 . S
C970 C986 1.368 . S
H971 C979 0.950 . S
H972 C977 0.950 . S
H973 C978 0.949 . S
H974 C980 0.950 . S
H975 C981 0.950 . S
H976 C982 0.949 . S
C977 H972 0.950 . S
C977 C979 1.327 . S
C977 C983 1.429 . S
C978 C970 1.574 . S
C978 H973 0.949 . S
C978 C984 1.368 . S
C979 C963 1.349 . S
C979 H971 0.950 . S
C979 C977 1.327 . S
C980 C968 1.349 . S
C980 H974 0.950 . S
C980 C981 1.327 . S
C981 H975 0.950 . S
C981 C980 1.327 . S
C981 C985 1.429 . S
C982 C965 1.574 . S
C982 H976 0.949 . S
C982 C986 1.368 . S
C983 C964 1.429 . S
C983 C977 1.429 . S
C983 C984 1.523 . S
C984 C965 1.368 . S
C984 C978 1.368 . S
C984 C983 1.523 . S
C985 C969 1.429 . S
C985 C981 1.429 . S
C985 C986 1.523 . S
C986 C970 1.368 . S
C986 C982 1.368 . S
C986 C985 1.523 . S
H987 C962 0.950 . S
H988 C964 0.950 . S
H989 C965 0.949 . S
H990 C967 0.950 . S
H991 C969 0.950 . S
C992 C993 1.349 . S
C992 C994 1.327 . S
C992 H1017 0.950 . S
C993 C992 1.349 . S
C993 C1009 1.349 . S
C994 C992 1.327 . S
C994 C1013 1.429 . S
C994 H1018 0.950 . S
C995 C1012 1.574 . S
C995 C1014 1.368 . S
C995 H1019 0.949 . S
H996 C1000 0.949 . S
C997 C998 1.349 . S
C997 C999 1.327 . S
C997 H1020 0.950 . S
C998 C997 1.349 . S
C998 C1010 1.349 . S
C999 C997 1.327 . S
C999 C1015 1.429 . S
C999 H1021 0.950 . S
C1000 H996 0.949 . S
C1000 C1008 1.574 . S
C1000 C1016 1.368 . S
H1001 C1009 0.950 . S
H1002 C1007 0.950 . S
H1003 C1008 0.949 . S
H1004 C1010 0.950 . S
H1005 C1011 0.950 . S
H1006 C1012 0.949 . S
C1007 H1002 0.950 . S
C1007 C1009 1.327 . S
C1007 C1013 1.429 . S
C1008 C1000 1.574 . S
C1008 H1003 0.949 . S
C1008 C1014 1.368 . S
C1009 C993 1.349 . S
C1009 H1001 0.950 . S
C1009 C1007 1.327 . S
C1010 C998 1.349 . S
C1010 H1004 0.950 . S
C1010 C1011 1.327 . S
C1011 H1005 0.950 . S
C1011 C1010 1.327 . S
C1011 C1015 1.429 . S
C1012 C995 1.574 . S
C1012 H1006 0.949 . S
C1012 C1016 1.368 . S
C1013 C994 1.429 . S
C1013 C1007 1.429 . S
C1013 C1014 1.523 . S
C1014 C995 1.368 . S
C1014 C1008 1.368 . S
C1014 C1013 1.523 . S
C1015 C999 1.429 . S
C1015 C1011 1.429 . S
C1015 C1016 1.523 . S
C1016 C1000 1.368 . S
C1016 C1012 1.368 . S
C1016 C1015 1.523 . S
H1017 C992 0.950 . S
H1018 C994 0.950 . S
H1019 C995 0.949 . S
H1020 C997 0.950 . S
H1021 C999 0.950 . S
C1022 C1023 1.349 . S
C1022 C1024 1.327 . S
C1022 H1047 0.950 . S
C1023 C1022 1.349 . S
C1023 C1039 1.349 . S
C1024 C1022 1.327 . S
C1024 C1043 1.429 . S
C1024 H1048 0.950 . S
C1025 C1042 1.574 . S
C1025 C1044 1.368 . S
C1025 H1049 0.949 . S
H1026 C1030 0.949 . S
C1027 C1028 1.349 . S
C1027 C1029 1.327 . S
C1027 H1050 0.950 . S
C1028 C1027 1.349 . S
C1028 C1040 1.349 . S
C1029 C1027 1.327 . S
C1029 C1045 1.429 . S
C1029 H1051 0.950 . S
C1030 H1026 0.949 . S
C1030 C1038 1.574 . S
C1030 C1046 1.368 . S
H1031 C1039 0.950 . S
H1032 C1037 0.950 . S
H1033 C1038 0.949 . S
H1034 C1040 0.950 . S
H1035 C1041 0.950 . S
H1036 C1042 0.949 . S
C1037 H1032 0.950 . S
C1037 C1039 1.327 . S
C1037 C1043 1.429 . S
C1038 C1030 1.574 . S
C1038 H1033 0.949 . S
C1038 C1044 1.368 . S
C1039 C1023 1.349 . S
C1039 H1031 0.950 . S
C1039 C1037 1.327 . S
C1040 C1028 1.349 . S
C1040 H1034 0.950 . S
C1040 C1041 1.327 . S
C1041 H1035 0.950 . S
C1041 C1040 1.327 . S
C1041 C1045 1.429 . S
C1042 C1025 1.574 . S
C1042 H1036 0.949 . S
C1042 C1046 1.368 . S
C1043 C1024 1.429 . S
C1043 C1037 1.429 . S
C1043 C1044 1.523 . S
C1044 C1025 1.368 . S
C1044 C1038 1.368 . S
C1044 C1043 1.523 . S
C1045 C1029 1.429 . S
C1045 C1041 1.429 . S
C1045 C1046 1.523 . S
C1046 C1030 1.368 . S
C1046 C1042 1.368 . S
C1046 C1045 1.523 . S
H1047 C1022 0.950 . S
H1048 C1024 0.950 . S
H1049 C1025 0.949 . S
H1050 C1027 0.950 . S
H1051 C1029 0.950 . S
C1052 C1053 1.349 . S
C1052 C1054 1.327 . S
C1052 H1077 0.950 . S
C1053 C1052 1.349 . S
C1053 C1069 1.349 . S
C1054 C1052 1.327 . S
C1054 C1073 1.429 . S
C1054 H1078 0.950 . S
C1055 C1072 1.574 . S
C1055 C1074 1.368 . S
C1055 H1079 0.949 . S
H1056 C1060 0.949 . S
C1057 C1058 1.349 . S
C1057 C1059 1.327 . S
C1057 H1080 0.950 . S
C1058 C1057 1.349 . S
C1058 C1070 1.349 . S
C1059 C1057 1.327 . S
C1059 C1075 1.429 . S
C1059 H1081 0.950 . S
C1060 H1056 0.949 . S
C1060 C1068 1.574 . S
C1060 C1076 1.368 . S
H1061 C1069 0.950 . S
H1062 C1067 0.950 . S
H1063 C1068 0.949 . S
H1064 C1070 0.950 . S
H1065 C1071 0.950 . S
H1066 C1072 0.949 . S
C1067 H1062 0.950 . S
C1067 C1069 1.327 . S
C1067 C1073 1.429 . S
C1068 C1060 1.574 . S
C1068 H1063 0.949 . S
C1068 C1074 1.368 . S
C1069 C1053 1.349 . S
C1069 H1061 0.950 . S
C1069 C1067 1.327 . S
C1070 C1058 1.349 . S
C1070 H1064 0.950 . S
C1070 C1071 1.327 . S
C1071 H1065 0.950 . S
C1071 C1070 1.327 . S
C1071 C1075 1.429 . S
C1072 C1055 1.574 . S
C1072 H1066 0.949 . S
C1072 C1076 1.368 . S
C1073 C1054 1.429 . S
C1073 C1067 1.429 . S
C1073 C1074 1.523 . S
C1074 C1055 1.368 . S
C1074 C1068 1.368 . S
C1074 C1073 1.523 . S
C1075 C1059 1.429 . S
C1075 C1071 1.429 . S
C1075 C1076 1.523 . S
C1076 C1060 1.368 . S
C1076 C1072 1.368 . S
C1076 C1075 1.523 . S
H1077 C1052 0.950 . S
H1078 C1054 0.950 . S
H1079 C1055 0.949 . S
H1080 C1057 0.950 . S
H1081 C1059 0.950 . S
C1082 C1083 1.349 . S
C1082 C1084 1.327 . S
C1082 H1107 0.950 . S
C1083 C1082 1.349 . S
C1083 C1099 1.349 . S
C1084 C1082 1.327 . S
C1084 C1103 1.429 . S
C1084 H1108 0.950 . S
C1085 C1102 1.574 . S
C1085 C1104 1.368 . S
C1085 H1109 0.949 . S
H1086 C1090 0.949 . S
C1087 C1088 1.349 . S
C1087 C1089 1.327 . S
C1087 H1110 0.950 . S
C1088 C1087 1.349 . S
C1088 C1100 1.349 . S
C1089 C1087 1.327 . S
C1089 C1105 1.429 . S
C1089 H1111 0.950 . S
C1090 H1086 0.949 . S
C1090 C1098 1.574 . S
C1090 C1106 1.368 . S
H1091 C1099 0.950 . S
H1092 C1097 0.950 . S
H1093 C1098 0.949 . S
H1094 C1100 0.950 . S
H1095 C1101 0.950 . S
H1096 C1102 0.949 . S
C1097 H1092 0.950 . S
C1097 C1099 1.327 . S
C1097 C1103 1.429 . S
C1098 C1090 1.574 . S
C1098 H1093 0.949 . S
C1098 C1104 1.368 . S
C1099 C1083 1.349 . S
C1099 H1091 0.950 . S
C1099 C1097 1.327 . S
C1100 C1088 1.349 . S
C1100 H1094 0.950 . S
C1100 C1101 1.327 . S
C1101 H1095 0.950 . S
C1101 C1100 1.327 . S
C1101 C1105 1.429 . S
C1102 C1085 1.574 . S
C1102 H1096 0.949 . S
C1102 C1106 1.368 . S
C1103 C1084 1.429 . S
C1103 C1097 1.429 . S
C1103 C1104 1.523 . S
C1104 C1085 1.368 . S
C1104 C1098 1.368 . S
C1104 C1103 1.523 . S
C1105 C1089 1.429 . S
C1105 C1101 1.429 . S
C1105 C1106 1.523 . S
C1106 C1090 1.368 . S
C1106 C1102 1.368 . S
C1106 C1105 1.523 . S
H1107 C1082 0.950 . S
H1108 C1084 0.950 . S
H1109 C1085 0.949 . S
H1110 C1087 0.950 . S
H1111 C1089 0.950 . S
C273 C17 0.661 . S
C278 C85 0.661 . S
C303 C119 0.661 . S
C308 C51 0.661 . S
C333 C153 0.661 . S
C338 C221 0.661 . S
C363 C255 0.661 . S
C368 C187 0.661 . S
C393 C142 0.866 . S
C398 C6 0.863 . S
C423 C198 0.866 . S
C428 C62 0.863 . S
C453 C232 0.866 . S
C458 C74 0.863 . S
C483 C266 0.866 . S
C488 C108 0.863 . S
C513 C226 0.552 . S
C518 C83 0.552 . S
C543 C260 0.552 . S
C548 C117 0.552 . S
C573 C15 0.552 . S
C578 C151 0.552 . S
C603 C192 0.552 . S
C608 C56 0.552 . S
C633 C244 0.866 . S
C638 C40 0.868 . S
C663 C164 0.866 . S
C668 C96 0.868 . S
C693 C176 0.866 . S
C698 C130 0.868 . S
C723 C210 0.866 . S
C728 C28 0.868 . S
C753 C124 0.552 . S
C758 C185 0.552 . S
C783 C22 0.552 . S
C788 C219 0.552 . S
C813 C49 0.552 . S
C818 C253 0.552 . S
C843 C158 0.552 . S
C848 C90 0.552 . S
C873 C173 2.922 . S
C878 C1 2.920 . S
C903 C37 2.922 . S
C908 C207 2.920 . S
C933 C241 2.922 . S
C938 C69 2.920 . S
C963 C103 2.922 . S
C968 C137 2.920 . S
C993 C239 2.923 . S
C998 C71 2.925 . S
C1023 C139 2.923 . S
C1028 C105 2.925 . S
C1053 C3 2.923 . S
C1058 C171 2.925 . S
C1083 C205 2.923 . S
C1088 C35 2.925 . S
