# Generated by pormake.
# Topology vce, (5)-cn, num edge types: 1
# Building blocks:
#     Node 0, Type 0, BuildingBlock: XOMCOT_clean_sbu_1, # of connection points: 5
#     Node 1, Type 0, BuildingBlock: XOMCOT_clean_sbu_1, # of connection points: 5
#     Node 2, Type 0, BuildingBlock: XOMCOT_clean_sbu_1, # of connection points: 5
#     Node 3, Type 0, BuildingBlock: XOMCOT_clean_sbu_1, # of connection points: 5
#     Node 4, Type 0, BuildingBlock: XOMCOT_clean_sbu_1, # of connection points: 5
#     Node 5, Type 0, BuildingBlock: XOMCOT_clean_sbu_1, # of connection points: 5
#     Node 6, Type 0, BuildingBlock: XOMCOT_clean_sbu_1, # of connection points: 5
#     Node 7, Type 0, BuildingBlock: XOMCOT_clean_sbu_1, # of connection points: 5
#     Node 8, Type 0, BuildingBlock: XOMCOT_clean_sbu_1, # of connection points: 5
#     Node 9, Type 0, BuildingBlock: XOMCOT_clean_sbu_1, # of connection points: 5
#     Node 10, Type 0, BuildingBlock: XOMCOT_clean_sbu_1, # of connection points: 5
#     Node 11, Type 0, BuildingBlock: XOMCOT_clean_sbu_1, # of connection points: 5
#     Node 12, Type 0, BuildingBlock: XOMCOT_clean_sbu_1, # of connection points: 5
#     Node 13, Type 0, BuildingBlock: XOMCOT_clean_sbu_1, # of connection points: 5
#     Node 14, Type 0, BuildingBlock: XOMCOT_clean_sbu_1, # of connection points: 5
#     Node 15, Type 0, BuildingBlock: XOMCOT_clean_sbu_1, # of connection points: 5
#     Node 16, Type 0, BuildingBlock: XOMCOT_clean_sbu_1, # of connection points: 5
#     Node 17, Type 0, BuildingBlock: XOMCOT_clean_sbu_1, # of connection points: 5
#     Node 18, Type 0, BuildingBlock: XOMCOT_clean_sbu_1, # of connection points: 5
#     Node 19, Type 0, BuildingBlock: XOMCOT_clean_sbu_1, # of connection points: 5
#     Node 20, Type 0, BuildingBlock: XOMCOT_clean_sbu_1, # of connection points: 5
#     Node 21, Type 0, BuildingBlock: XOMCOT_clean_sbu_1, # of connection points: 5
#     Node 22, Type 0, BuildingBlock: XOMCOT_clean_sbu_1, # of connection points: 5
#     Node 23, Type 0, BuildingBlock: XOMCOT_clean_sbu_1, # of connection points: 5
#     Node 24, Type 0, BuildingBlock: XOMCOT_clean_sbu_1, # of connection points: 5
#     Node 25, Type 0, BuildingBlock: XOMCOT_clean_sbu_1, # of connection points: 5
#     Node 26, Type 0, BuildingBlock: XOMCOT_clean_sbu_1, # of connection points: 5
#     Node 27, Type 0, BuildingBlock: XOMCOT_clean_sbu_1, # of connection points: 5
#     Node 28, Type 0, BuildingBlock: XOMCOT_clean_sbu_1, # of connection points: 5
#     Node 29, Type 0, BuildingBlock: XOMCOT_clean_sbu_1, # of connection points: 5
#     Node 30, Type 0, BuildingBlock: XOMCOT_clean_sbu_1, # of connection points: 5
#     Node 31, Type 0, BuildingBlock: XOMCOT_clean_sbu_1, # of connection points: 5
#     Edge 32, Type (0, 0), BuildingBlock: UVAHIK_clean_linker_0, # of connection points: 2
#     Edge 33, Type (0, 0), BuildingBlock: UVAHIK_clean_linker_0, # of connection points: 2
#     Edge 34, Type (0, 0), BuildingBlock: UVAHIK_clean_linker_0, # of connection points: 2
#     Edge 35, Type (0, 0), BuildingBlock: UVAHIK_clean_linker_0, # of connection points: 2
#     Edge 36, Type (0, 0), BuildingBlock: UVAHIK_clean_linker_0, # of connection points: 2
#     Edge 37, Type (0, 0), BuildingBlock: UVAHIK_clean_linker_0, # of connection points: 2
#     Edge 38, Type (0, 0), BuildingBlock: UVAHIK_clean_linker_0, # of connection points: 2
#     Edge 39, Type (0, 0), BuildingBlock: UVAHIK_clean_linker_0, # of connection points: 2
#     Edge 40, Type (0, 0), BuildingBlock: UVAHIK_clean_linker_0, # of connection points: 2
#     Edge 41, Type (0, 0), BuildingBlock: UVAHIK_clean_linker_0, # of connection points: 2
#     Edge 42, Type (0, 0), BuildingBlock: UVAHIK_clean_linker_0, # of connection points: 2
#     Edge 43, Type (0, 0), BuildingBlock: UVAHIK_clean_linker_0, # of connection points: 2
#     Edge 44, Type (0, 0), BuildingBlock: UVAHIK_clean_linker_0, # of connection points: 2
#     Edge 45, Type (0, 0), BuildingBlock: UVAHIK_clean_linker_0, # of connection points: 2
#     Edge 46, Type (0, 0), BuildingBlock: UVAHIK_clean_linker_0, # of connection points: 2
#     Edge 47, Type (0, 0), BuildingBlock: UVAHIK_clean_linker_0, # of connection points: 2
#     Edge 48, Type (0, 0), BuildingBlock: UVAHIK_clean_linker_0, # of connection points: 2
#     Edge 49, Type (0, 0), BuildingBlock: UVAHIK_clean_linker_0, # of connection points: 2
#     Edge 50, Type (0, 0), BuildingBlock: UVAHIK_clean_linker_0, # of connection points: 2
#     Edge 51, Type (0, 0), BuildingBlock: UVAHIK_clean_linker_0, # of connection points: 2
#     Edge 52, Type (0, 0), BuildingBlock: UVAHIK_clean_linker_0, # of connection points: 2
#     Edge 53, Type (0, 0), BuildingBlock: UVAHIK_clean_linker_0, # of connection points: 2
#     Edge 54, Type (0, 0), BuildingBlock: UVAHIK_clean_linker_0, # of connection points: 2
#     Edge 55, Type (0, 0), BuildingBlock: UVAHIK_clean_linker_0, # of connection points: 2
#     Edge 56, Type (0, 0), BuildingBlock: UVAHIK_clean_linker_0, # of connection points: 2
#     Edge 57, Type (0, 0), BuildingBlock: UVAHIK_clean_linker_0, # of connection points: 2
#     Edge 58, Type (0, 0), BuildingBlock: UVAHIK_clean_linker_0, # of connection points: 2
#     Edge 59, Type (0, 0), BuildingBlock: UVAHIK_clean_linker_0, # of connection points: 2
#     Edge 60, Type (0, 0), BuildingBlock: UVAHIK_clean_linker_0, # of connection points: 2
#     Edge 61, Type (0, 0), BuildingBlock: UVAHIK_clean_linker_0, # of connection points: 2
#     Edge 62, Type (0, 0), BuildingBlock: UVAHIK_clean_linker_0, # of connection points: 2
#     Edge 63, Type (0, 0), BuildingBlock: UVAHIK_clean_linker_0, # of connection points: 2
#     Edge 64, Type (0, 0), BuildingBlock: UVAHIK_clean_linker_0, # of connection points: 2
#     Edge 65, Type (0, 0), BuildingBlock: UVAHIK_clean_linker_0, # of connection points: 2
#     Edge 66, Type (0, 0), BuildingBlock: UVAHIK_clean_linker_0, # of connection points: 2
#     Edge 67, Type (0, 0), BuildingBlock: UVAHIK_clean_linker_0, # of connection points: 2
#     Edge 68, Type (0, 0), BuildingBlock: UVAHIK_clean_linker_0, # of connection points: 2
#     Edge 69, Type (0, 0), BuildingBlock: UVAHIK_clean_linker_0, # of connection points: 2
#     Edge 70, Type (0, 0), BuildingBlock: UVAHIK_clean_linker_0, # of connection points: 2
#     Edge 71, Type (0, 0), BuildingBlock: UVAHIK_clean_linker_0, # of connection points: 2
#     Edge 72, Type (0, 0), BuildingBlock: UVAHIK_clean_linker_0, # of connection points: 2
#     Edge 73, Type (0, 0), BuildingBlock: UVAHIK_clean_linker_0, # of connection points: 2
#     Edge 74, Type (0, 0), BuildingBlock: UVAHIK_clean_linker_0, # of connection points: 2
#     Edge 75, Type (0, 0), BuildingBlock: UVAHIK_clean_linker_0, # of connection points: 2
#     Edge 76, Type (0, 0), BuildingBlock: UVAHIK_clean_linker_0, # of connection points: 2
#     Edge 77, Type (0, 0), BuildingBlock: UVAHIK_clean_linker_0, # of connection points: 2
#     Edge 78, Type (0, 0), BuildingBlock: UVAHIK_clean_linker_0, # of connection points: 2
#     Edge 79, Type (0, 0), BuildingBlock: UVAHIK_clean_linker_0, # of connection points: 2
#     Edge 80, Type (0, 0), BuildingBlock: UVAHIK_clean_linker_0, # of connection points: 2
#     Edge 81, Type (0, 0), BuildingBlock: UVAHIK_clean_linker_0, # of connection points: 2
#     Edge 82, Type (0, 0), BuildingBlock: UVAHIK_clean_linker_0, # of connection points: 2
#     Edge 83, Type (0, 0), BuildingBlock: UVAHIK_clean_linker_0, # of connection points: 2
#     Edge 84, Type (0, 0), BuildingBlock: UVAHIK_clean_linker_0, # of connection points: 2
#     Edge 85, Type (0, 0), BuildingBlock: UVAHIK_clean_linker_0, # of connection points: 2
#     Edge 86, Type (0, 0), BuildingBlock: UVAHIK_clean_linker_0, # of connection points: 2
#     Edge 87, Type (0, 0), BuildingBlock: UVAHIK_clean_linker_0, # of connection points: 2
#     Edge 88, Type (0, 0), BuildingBlock: UVAHIK_clean_linker_0, # of connection points: 2
#     Edge 89, Type (0, 0), BuildingBlock: UVAHIK_clean_linker_0, # of connection points: 2
#     Edge 90, Type (0, 0), BuildingBlock: UVAHIK_clean_linker_0, # of connection points: 2
#     Edge 91, Type (0, 0), BuildingBlock: UVAHIK_clean_linker_0, # of connection points: 2
#     Edge 92, Type (0, 0), BuildingBlock: UVAHIK_clean_linker_0, # of connection points: 2
#     Edge 93, Type (0, 0), BuildingBlock: UVAHIK_clean_linker_0, # of connection points: 2
#     Edge 94, Type (0, 0), BuildingBlock: UVAHIK_clean_linker_0, # of connection points: 2
#     Edge 95, Type (0, 0), BuildingBlock: UVAHIK_clean_linker_0, # of connection points: 2
#     Edge 96, Type (0, 0), BuildingBlock: UVAHIK_clean_linker_0, # of connection points: 2
#     Edge 97, Type (0, 0), BuildingBlock: UVAHIK_clean_linker_0, # of connection points: 2
#     Edge 98, Type (0, 0), BuildingBlock: UVAHIK_clean_linker_0, # of connection points: 2
#     Edge 99, Type (0, 0), BuildingBlock: UVAHIK_clean_linker_0, # of connection points: 2
#     Edge 100, Type (0, 0), BuildingBlock: UVAHIK_clean_linker_0, # of connection points: 2
#     Edge 101, Type (0, 0), BuildingBlock: UVAHIK_clean_linker_0, # of connection points: 2
#     Edge 102, Type (0, 0), BuildingBlock: UVAHIK_clean_linker_0, # of connection points: 2
#     Edge 103, Type (0, 0), BuildingBlock: UVAHIK_clean_linker_0, # of connection points: 2
#     Edge 104, Type (0, 0), BuildingBlock: UVAHIK_clean_linker_0, # of connection points: 2
#     Edge 105, Type (0, 0), BuildingBlock: UVAHIK_clean_linker_0, # of connection points: 2
#     Edge 106, Type (0, 0), BuildingBlock: UVAHIK_clean_linker_0, # of connection points: 2
#     Edge 107, Type (0, 0), BuildingBlock: UVAHIK_clean_linker_0, # of connection points: 2
#     Edge 108, Type (0, 0), BuildingBlock: UVAHIK_clean_linker_0, # of connection points: 2
#     Edge 109, Type (0, 0), BuildingBlock: UVAHIK_clean_linker_0, # of connection points: 2
#     Edge 110, Type (0, 0), BuildingBlock: UVAHIK_clean_linker_0, # of connection points: 2
#     Edge 111, Type (0, 0), BuildingBlock: UVAHIK_clean_linker_0, # of connection points: 2
# Relax obj value: 0.150
# Max RMSD: 0.173
# Mean RMSD: 0.173
data_MOF--net-vce--node1-XOMCOT_clean_sbu_1--edge1-UVAHIK_clean_linker_0
_symmetry_space_group_name_H-M    P1
_symmetry_Int_Tables_number       1
_symmetry_cell_setting            triclinic
loop_
_symmetry_equiv_pos_as_xyz
'x, y, z'
_cell_length_a     59.89006
_cell_length_b     158.85991
_cell_length_c     34.284738
_cell_angle_alpha  89.884924
_cell_angle_beta   89.949409
_cell_angle_gamma 90.170741
loop_
_atom_site_label
_atom_site_type_symbol
_atom_site_fract_x
_atom_site_fract_y
_atom_site_fract_z
_atom_type_partial_charge
C0 C 0.02054 0.23234 0.43766 0.0
C1 C 0.01115 0.24009 0.42969 0.0
N2 N 0.02167 0.24345 0.39856 0.0
N3 N 0.03707 0.23081 0.41192 0.0
C4 C 0.03745 0.23776 0.3888 0.0
H5 H 0.01471 0.2279 0.45936 0.0
Co6 Co 0.05199 0.22046 0.40444 0.0
C7 C 0.0917 0.22645 0.36227 0.0
O8 O 0.10447 0.22394 0.39115 0.0
N9 N 0.06687 0.21006 0.39541 0.0
C10 C 0.08021 0.19942 0.36033 0.0
C11 C 0.07298 0.20757 0.35925 0.0
C12 C 0.07063 0.20319 0.41813 0.0
N13 N 0.07865 0.19663 0.39724 0.0
O14 O 0.0722 0.22317 0.44614 0.0
H15 H 0.07106 0.21129 0.33301 0.0
H16 H 0.06622 0.20278 0.44867 0.0
O17 O 0.07058 0.22561 0.36487 0.0
C18 C 0.0633 0.21995 0.47659 0.0
O19 O 0.04425 0.21591 0.47262 0.0
N20 N 0.03054 0.21742 0.36809 0.0
C21 C 0.98973 0.21363 0.3341 0.0
C22 C 0.00338 0.22 0.31828 0.0
C23 C 0.02409 0.22174 0.33555 0.0
C24 C 0.01813 0.2109 0.38205 0.0
C25 C -0.0021 0.20879 0.36507 0.0
H26 H 0.03395 0.22693 0.32471 0.0
H27 H 0.02318 0.2077 0.40846 0.0
H28 H 0.04838 0.23849 0.36392 0.0
H29 H -0.00325 0.24276 0.44411 0.0
H30 H 0.0854 0.19569 0.33552 0.0
H31 H -0.00252 0.22391 0.29454 0.0
H32 H 0.98775 0.20396 0.37878 0.0
C33 C 0.21845 0.07941 0.41151 0.0
C34 C 0.22608 0.07132 0.406 0.0
N35 N 0.21554 0.068 0.37485 0.0
N36 N 0.20315 0.08124 0.38395 0.0
C37 C 0.20148 0.07411 0.36249 0.0
H38 H 0.22454 0.08383 0.43299 0.0
Co39 Co 0.18988 0.09191 0.37549 0.0
C40 C 0.18655 0.08854 0.28836 0.0
O41 O 0.20551 0.09227 0.2801 0.0
N42 N 0.17588 0.10249 0.36675 0.0
C43 C 0.16362 0.11403 0.33676 0.0
C44 C 0.1751 0.10665 0.33235 0.0
C45 C 0.16498 0.10763 0.39196 0.0
N46 N 0.15726 0.11467 0.37421 0.0
O47 O 0.16312 0.08778 0.39966 0.0
H48 H 0.1829 0.10465 0.30567 0.0
H49 H 0.16272 0.10628 0.42264 0.0
O50 O 0.17923 0.08826 0.32347 0.0
C51 C 0.16736 0.08861 0.43598 0.0
O52 O 0.18615 0.0923 0.44606 0.0
N53 N 0.21789 0.09623 0.35794 0.0
C54 C 0.26285 0.10084 0.36429 0.0
C55 C 0.25664 0.0936 0.34364 0.0
C56 C 0.23411 0.09136 0.34113 0.0
C57 C 0.22382 0.1036 0.37578 0.0
C58 C 0.24604 0.1061 0.37851 0.0
H59 H 0.23005 0.08532 0.32859 0.0
H60 H 0.21176 0.10722 0.39191 0.0
H61 H 0.19069 0.07347 0.33743 0.0
H62 H 0.23926 0.0683 0.4224 0.0
H63 H 0.1607 0.11871 0.31433 0.0
H64 H 0.26912 0.08928 0.33273 0.0
H65 H 0.25012 0.11175 0.39465 0.0
C66 C 0.04091 0.06369 0.84639 0.0
C67 C 0.03666 0.05566 0.85918 0.0
N68 N 0.03148 0.05593 0.89738 0.0
N69 N 0.03868 0.06915 0.87626 0.0
C70 C 0.03318 0.06418 0.9072 0.0
H71 H 0.04468 0.06537 0.81661 0.0
Co72 Co 0.03991 0.08107 0.87187 0.0
C73 C 0.08295 0.08193 0.91565 0.0
O74 O 0.09525 0.08317 0.88442 0.0
N75 N 0.04072 0.09292 0.86679 0.0
C76 C 0.02789 0.10573 0.85363 0.0
C77 C 0.02261 0.09733 0.85569 0.0
C78 C 0.05698 0.09882 0.87091 0.0
N79 N 0.0496 0.10671 0.86303 0.0
O80 O 0.06176 0.08025 0.83089 0.0
H81 H 0.00644 0.09459 0.8496 0.0
H82 H 0.07396 0.09735 0.87884 0.0
O83 O 0.06186 0.08119 0.9128 0.0
C84 C 0.05161 0.08131 0.79849 0.0
O85 O 0.02983 0.08231 0.79937 0.0
N86 N 0.01722 0.08214 0.90869 0.0
C87 C 0.97827 0.08859 0.94003 0.0
C88 C -0.00097 0.09112 0.95482 0.0
C89 C 0.01851 0.08768 0.93907 0.0
C90 C -0.00283 0.07905 0.89668 0.0
C91 C 0.97741 0.08208 0.91259 0.0
H92 H 0.03443 0.0903 0.94771 0.0
H93 H -0.00361 0.07489 0.87178 0.0
H94 H 0.02935 0.06662 0.93588 0.0
H95 H 0.03699 0.05006 0.84128 0.0
H96 H 0.01639 0.11072 0.84622 0.0
H97 H 0.00022 0.09622 0.97565 0.0
H98 H 0.96167 0.08009 0.89999 0.0
C99 C 0.20089 0.22494 0.85737 0.0
C100 C 0.20723 0.23324 0.86164 0.0
N101 N 0.20107 0.23588 0.89747 0.0
N102 N 0.19082 0.22229 0.89035 0.0
C103 C 0.19079 0.22915 0.91383 0.0
H104 H 0.20438 0.22096 0.83254 0.0
Co105 Co 0.18253 0.21107 0.90225 0.0
C106 C 0.18772 0.21405 0.98975 0.0
O107 O 0.20764 0.21067 0.9922 0.0
N108 N 0.17376 0.19975 0.91498 0.0
C109 C 0.17363 0.18737 0.94563 0.0
C110 C 0.18149 0.19545 0.94616 0.0
C111 C 0.16101 0.19398 0.89573 0.0
N112 N 0.16087 0.18636 0.91376 0.0
O113 O 0.15249 0.21388 0.8893 0.0
H114 H 0.19317 0.19779 0.96722 0.0
H115 H 0.15276 0.19521 0.86827 0.0
O116 O 0.1774 0.21428 0.95707 0.0
C117 C 0.15143 0.21259 0.85262 0.0
O118 O 0.16869 0.20919 0.83506 0.0
N119 N 0.213 0.20831 0.90834 0.0
C120 C 0.25739 0.20628 0.88558 0.0
C121 C 0.25146 0.21266 0.91173 0.0
C122 C 0.22906 0.21366 0.9223 0.0
C123 C 0.21893 0.2018 0.88454 0.0
C124 C 0.241 0.2006 0.87336 0.0
H125 H 0.22453 0.21917 0.93886 0.0
H126 H 0.20632 0.19796 0.87075 0.0
H127 H 0.18468 0.22907 0.94344 0.0
H128 H 0.21628 0.23694 0.8403 0.0
H129 H 0.1774 0.18255 0.96697 0.0
H130 H 0.26364 0.21728 0.92116 0.0
H131 H 0.24493 0.19561 0.85296 0.0
C132 C 0.96968 0.82876 0.59976 0.0
C133 C 0.97532 0.82038 0.6031 0.0
N134 N 0.96422 0.81706 0.63375 0.0
N135 N 0.9551 0.83078 0.6282 0.0
C136 C 0.95169 0.82346 0.64778 0.0
H137 H 0.977 0.83325 0.57967 0.0
Co138 Co 0.94647 0.84186 0.64159 0.0
C139 C 0.93915 0.83713 0.72662 0.0
O140 O 0.95884 0.83978 0.73794 0.0
N141 N 0.93725 0.85301 0.65557 0.0
C142 C 0.93358 0.86477 0.69037 0.0
C143 C 0.9416 0.8567 0.69024 0.0
C144 C 0.92635 0.85909 0.63509 0.0
N145 N 0.92404 0.86633 0.65563 0.0
O146 O 0.919 0.84008 0.61417 0.0
H147 H 0.9508 0.85389 0.71378 0.0
H148 H 0.92072 0.85835 0.60536 0.0
O149 O 0.93306 0.83777 0.69092 0.0
C150 C 0.92416 0.84227 0.5794 0.0
O151 O 0.94416 0.84547 0.57344 0.0
N152 N 0.97547 0.8438 0.66208 0.0
C153 C 0.02197 0.84523 0.65977 0.0
C154 C 0.01176 0.83837 0.67838 0.0
C155 C 0.98851 0.83772 0.67886 0.0
C156 C 0.98534 0.85073 0.64576 0.0
C157 C 0.00845 0.85165 0.64499 0.0
H158 H 0.98123 0.83196 0.68988 0.0
H159 H 0.97554 0.85521 0.62945 0.0
H160 H 0.94124 0.82294 0.67336 0.0
H161 H 0.98787 0.81719 0.58598 0.0
H162 H 0.93479 0.86916 0.71438 0.0
H163 H 0.02166 0.83324 0.68996 0.0
H164 H 0.01562 0.85694 0.62934 0.0
C165 C 0.79559 0.98703 0.56899 0.0
C166 C 0.79236 0.99508 0.58237 0.0
N167 N 0.78901 0.99477 0.62118 0.0
N168 N 0.7945 0.98156 0.59909 0.0
C169 C 0.79048 0.9865 0.63064 0.0
H170 H 0.79787 0.98534 0.53879 0.0
Co171 Co 0.79595 0.96966 0.59506 0.0
C172 C 0.83705 0.97299 0.63977 0.0
O173 O 0.84557 0.97756 0.61144 0.0
N174 N 0.79729 0.95786 0.59061 0.0
C175 C 0.78651 0.94474 0.5786 0.0
C176 C 0.77996 0.95302 0.57941 0.0
C177 C 0.8143 0.95239 0.59628 0.0
N178 N 0.80818 0.94431 0.58912 0.0
O179 O 0.81752 0.97054 0.55359 0.0
H180 H 0.7635 0.95538 0.57252 0.0
H181 H 0.83091 0.95432 0.60496 0.0
O182 O 0.81812 0.96946 0.63546 0.0
C183 C 0.80666 0.96934 0.52201 0.0
O184 O 0.78488 0.96838 0.52443 0.0
N185 N 0.77346 0.96849 0.63226 0.0
C186 C 0.73458 0.96255 0.66659 0.0
C187 C 0.75539 0.95976 0.67993 0.0
C188 C 0.77483 0.96292 0.66261 0.0
C189 C 0.75344 0.97173 0.62116 0.0
C190 C 0.73376 0.96897 0.63856 0.0
H191 H 0.79065 0.96013 0.67034 0.0
H192 H 0.75252 0.97589 0.59619 0.0
H193 H 0.78821 0.98404 0.65985 0.0
H194 H 0.79152 1.00069 0.56449 0.0
H195 H 0.77592 0.93943 0.57141 0.0
H196 H 0.75654 0.95471 0.70109 0.0
H197 H 0.71794 0.97113 0.627 0.0
C198 C 0.96423 0.96959 0.13975 0.0
C199 C 0.97135 0.9778 0.13534 0.0
N200 N 0.96228 0.98098 0.10247 0.0
N201 N 0.95074 0.96753 0.10976 0.0
C202 C 0.94956 0.97465 0.08799 0.0
H203 H 0.9695 0.96526 0.16227 0.0
Co204 Co 0.93913 0.95666 0.09909 0.0
C205 C 0.94119 0.95983 0.01161 0.0
O206 O 0.96026 0.95591 0.00726 0.0
N207 N 0.92688 0.94578 0.08809 0.0
C208 C 0.92079 0.93359 0.0579 0.0
C209 C 0.92959 0.94151 0.05439 0.0
C210 C 0.91602 0.94022 0.11174 0.0
N211 N 0.91238 0.93272 0.09402 0.0
O212 O 0.91068 0.96037 0.11764 0.0
H213 H 0.93848 0.94372 0.02916 0.0
H214 H 0.912 0.94146 0.14194 0.0
O215 O 0.93176 0.96022 0.04514 0.0
C216 C 0.91283 0.95954 0.15451 0.0
O217 O 0.931 0.95595 0.168 0.0
N218 N 0.96844 0.95283 0.08737 0.0
C219 C 0.01328 0.94873 0.09954 0.0
C220 C 0.00747 0.95589 0.07785 0.0
C221 C 0.98497 0.95788 0.07253 0.0
C222 C 0.97407 0.94563 0.10695 0.0
C223 C -0.00374 0.94339 0.11256 0.0
H224 H 0.981 0.96383 0.05893 0.0
H225 H 0.96156 0.94194 0.12182 0.0
H226 H 0.94012 0.97512 0.06124 0.0
H227 H 0.98329 0.981 0.15382 0.0
H228 H 0.92109 0.92874 0.03575 0.0
H229 H 0.0201 0.96029 0.06795 0.0
H230 H 2e-05 0.93781 0.12957 0.0
C231 C 0.79692 0.81112 0.1695 0.0
C232 C 0.79364 0.80323 0.15414 0.0
N233 N 0.78761 0.80403 0.11648 0.0
N234 N 0.79319 0.81699 0.14178 0.0
C235 C 0.78759 0.81245 0.10968 0.0
H236 H 0.80087 0.81239 0.1996 0.0
Co237 Co 0.79242 0.8288 0.14908 0.0
C238 C 0.81446 0.83607 0.07764 0.0
O239 O 0.80374 0.84322 0.08146 0.0
N240 N 0.79143 0.84062 0.15746 0.0
C241 C 0.77931 0.85363 0.16863 0.0
C242 C 0.77309 0.84537 0.16345 0.0
C243 C 0.80867 0.84614 0.16056 0.0
N244 N 0.80174 0.85415 0.16652 0.0
O245 O 0.81816 0.8283 0.18246 0.0
H246 H 0.75613 0.84306 0.16369 0.0
H247 H 0.82598 0.84433 0.15742 0.0
O248 O 0.81122 0.83011 0.10221 0.0
C249 C 0.81052 0.82816 0.21726 0.0
O250 O 0.78875 0.82811 0.22217 0.0
N251 N 0.76564 0.82917 0.12093 0.0
C252 C 0.72146 0.83106 0.09801 0.0
C253 C 0.73885 0.83293 0.07201 0.0
C254 C 0.76097 0.83178 0.08381 0.0
C255 C 0.74885 0.82675 0.14534 0.0
C256 C 0.72663 0.82763 0.1345 0.0
H257 H 0.77391 0.83315 0.06312 0.0
H258 H 0.75281 0.82456 0.17438 0.0
H259 H 0.78299 0.81528 0.08213 0.0
H260 H 0.79451 0.79737 0.17023 0.0
H261 H 0.76804 0.85888 0.17232 0.0
H262 H 0.73536 0.83541 0.04321 0.0
H263 H 0.71365 0.82612 0.15543 0.0
C264 C 0.04323 0.73735 0.90188 0.0
C265 C 0.0383 0.74503 0.88583 0.0
N266 N 0.0317 0.74387 0.84871 0.0
N267 N 0.03996 0.73123 0.87519 0.0
C268 C 0.03316 0.73545 0.84275 0.0
H269 H 0.0481 0.73637 0.93181 0.0
Co270 Co 0.04137 0.71947 0.88534 0.0
C271 C 0.07155 0.71297 0.82021 0.0
O272 O 0.06982 0.70497 0.82911 0.0
N273 N 0.04243 0.70776 0.89734 0.0
C274 C 0.03155 0.69482 0.91405 0.0
C275 C 0.02455 0.7028 0.90468 0.0
C276 C 0.06015 0.70272 0.90498 0.0
N277 N 0.05402 0.69472 0.91382 0.0
O278 O 0.06614 0.7211 0.91978 0.0
H279 H 0.00735 0.70482 0.90325 0.0
H280 H 0.07732 0.70485 0.90337 0.0
O281 O 0.06113 0.71854 0.83988 0.0
C282 C 0.05854 0.72113 0.95457 0.0
O283 O 0.03678 0.72077 0.95957 0.0
N284 N 0.01594 0.71775 0.85474 0.0
C285 C 0.97405 0.71185 0.83378 0.0
C286 C 0.99315 0.70874 0.81528 0.0
C287 C 0.01412 0.71189 0.82577 0.0
C288 C -0.00264 0.72132 0.87056 0.0
C289 C 0.97617 0.71855 0.85995 0.0
H290 H 0.02871 0.7089 0.81397 0.0
H291 H -0.00098 0.72576 0.89425 0.0
H292 H 0.02816 0.73237 0.81602 0.0
H293 H 0.03904 0.75102 0.9008 0.0
H294 H 0.02083 0.68944 0.91938 0.0
H295 H 0.99201 0.70347 0.79532 0.0
H296 H 0.96175 0.721 0.87526 0.0
C297 C 0.2263 0.58108 0.91188 0.0
C298 C 0.23443 0.57301 0.90729 0.0
N299 N 0.22306 0.56924 0.8782 0.0
N300 N 0.20989 0.58244 0.88571 0.0
C301 C 0.20794 0.57502 0.86644 0.0
H302 H 0.23295 0.58583 0.93123 0.0
Co303 Co 0.19626 0.59293 0.87397 0.0
C304 C 0.18826 0.58707 0.79097 0.0
O305 O 0.20765 0.58966 0.77782 0.0
N306 N 0.1817 0.60331 0.86133 0.0
C307 C 0.17154 0.61442 0.8258 0.0
C308 C 0.18094 0.60658 0.82489 0.0
C309 C 0.17225 0.60937 0.88394 0.0
N310 N 0.16617 0.61622 0.8629 0.0
O311 O 0.17103 0.58955 0.90433 0.0
H312 H 0.18801 0.60371 0.79926 0.0
H313 H 0.17097 0.60901 0.91536 0.0
O314 O 0.18283 0.58816 0.82668 0.0
C315 C 0.17634 0.59221 0.93822 0.0
O316 O 0.19526 0.59635 0.94211 0.0
N317 N 0.22332 0.59676 0.84992 0.0
C318 C 0.26813 0.60177 0.84838 0.0
C319 C 0.26169 0.59394 0.83333 0.0
C320 C 0.23921 0.59153 0.8345 0.0
C321 C 0.22948 0.60465 0.86191 0.0
C322 C 0.2515 0.60736 0.8601 0.0
H323 H 0.23518 0.58515 0.82644 0.0
H324 H 0.21804 0.60867 0.87728 0.0
H325 H 0.1964 0.57397 0.84277 0.0
H326 H 0.24865 0.57036 0.92236 0.0
H327 H 0.16941 0.6186 0.80111 0.0
H328 H 0.27404 0.58936 0.82441 0.0
H329 H 0.25572 0.6135 0.87174 0.0
C330 C 0.05866 0.55928 0.34995 0.0
C331 C 0.05397 0.55146 0.36509 0.0
N332 N 0.04488 0.55242 0.40072 0.0
N333 N 0.05267 0.56526 0.37578 0.0
C334 C 0.04452 0.56085 0.40674 0.0
H335 H 0.06506 0.56043 0.32101 0.0
Co336 Co 0.05143 0.57704 0.36619 0.0
C337 C 0.06386 0.58495 0.44239 0.0
O338 O 0.05301 0.59193 0.43458 0.0
N339 N 0.05013 0.58883 0.3559 0.0
C340 C 0.03794 0.60158 0.33936 0.0
C341 C 0.03215 0.59325 0.34408 0.0
C342 C 0.06684 0.59464 0.35701 0.0
N343 N 0.05982 0.6025 0.34764 0.0
O344 O 0.0805 0.57685 0.34284 0.0
H345 H 0.0157 0.59065 0.33928 0.0
H346 H 0.08381 0.5931 0.3651 0.0
O347 O 0.06407 0.5789 0.41791 0.0
C348 C 0.07659 0.57626 0.30636 0.0
O349 O 0.05574 0.57572 0.29466 0.0
N350 N 0.02193 0.57699 0.38382 0.0
C351 C 0.97566 0.57744 0.38767 0.0
C352 C 0.98853 0.58049 0.41876 0.0
C353 C 0.01186 0.58005 0.41662 0.0
C354 C 0.0095 0.5736 0.35454 0.0
C355 C 0.98639 0.5737 0.35595 0.0
H356 H 0.02138 0.58238 0.44082 0.0
H357 H 0.0177 0.57115 0.3289 0.0
H358 H 0.03715 0.56378 0.43213 0.0
H359 H 0.05648 0.5455 0.35043 0.0
H360 H 0.02663 0.60658 0.33126 0.0
H361 H 0.98066 0.58335 0.44388 0.0
H362 H 0.97703 0.57136 0.33118 0.0
C363 C 0.19724 0.72366 0.35078 0.0
C364 C 0.20254 0.73173 0.36189 0.0
N365 N 0.20561 0.73185 0.4008 0.0
N366 N 0.1968 0.71861 0.38245 0.0
C367 C 0.20182 0.72382 0.41263 0.0
H368 H 0.19487 0.72158 0.3211 0.0
Co369 Co 0.19421 0.70671 0.38125 0.0
C370 C 0.16329 0.70294 0.4498 0.0
O371 O 0.16413 0.69472 0.44715 0.0
N372 N 0.19208 0.69468 0.37847 0.0
C373 C 0.20342 0.68138 0.37279 0.0
C374 C 0.21011 0.68961 0.37619 0.0
C375 C 0.17451 0.68931 0.37379 0.0
N376 N 0.18097 0.68114 0.37166 0.0
O377 O 0.16989 0.70761 0.34528 0.0
H378 H 0.22727 0.69174 0.37636 0.0
H379 H 0.15728 0.69135 0.37285 0.0
O380 O 0.17426 0.70759 0.42609 0.0
C381 C 0.17721 0.70595 0.3112 0.0
O382 O 0.19832 0.70383 0.30751 0.0
N383 N 0.21932 0.70586 0.41336 0.0
C384 C 0.26134 0.70214 0.44248 0.0
C385 C 0.24222 0.69916 0.46168 0.0
C386 C 0.22111 0.70125 0.44693 0.0
C387 C 0.23784 0.70904 0.39553 0.0
C388 C 0.25898 0.70741 0.4101 0.0
H389 H 0.20652 0.69848 0.46025 0.0
H390 H 0.23631 0.71239 0.36819 0.0
H391 H 0.20411 0.72165 0.44229 0.0
H392 H 0.20449 0.73708 0.34254 0.0
H393 H 0.21434 0.67599 0.37062 0.0
H394 H 0.24362 0.69491 0.4863 0.0
H395 H 0.27346 0.70964 0.3941 0.0
C396 C 0.93526 0.32057 0.11245 0.0
C397 C 0.93889 0.31267 0.12772 0.0
N398 N 0.94669 0.3135 0.1644 0.0
N399 N 0.94065 0.32642 0.1393 0.0
C400 C 0.94739 0.3219 0.1708 0.0
H401 H 0.92988 0.32193 0.08304 0.0
Co402 Co 0.94225 0.33817 0.13119 0.0
C403 C 0.92775 0.34544 0.20846 0.0
O404 O 0.93674 0.35286 0.20192 0.0
N405 N 0.94385 0.35 0.12253 0.0
C406 C 0.95596 0.36265 0.10384 0.0
C407 C 0.96179 0.35437 0.10972 0.0
C408 C 0.92716 0.35577 0.12326 0.0
N409 N 0.93416 0.36355 0.1125 0.0
O410 O 0.91346 0.338 0.10658 0.0
H411 H 0.97809 0.35171 0.10433 0.0
H412 H 0.91015 0.35426 0.13138 0.0
O413 O 0.9292 0.33962 0.18291 0.0
C414 C 0.9181 0.33861 0.07029 0.0
O415 O 0.93922 0.33894 0.05987 0.0
N416 N 0.97152 0.33807 0.14967 0.0
C417 C 0.01774 0.33773 0.15594 0.0
C418 C 0.00485 0.3417 0.1847 0.0
C419 C 0.98149 0.3417 0.1813 0.0
C420 C 0.98398 0.33414 0.12195 0.0
C421 C 0.00701 0.33379 0.12478 0.0
H422 H 0.97183 0.34486 0.20322 0.0
H423 H 0.97592 0.33148 0.09659 0.0
H424 H 0.9539 0.32475 0.19712 0.0
H425 H 0.9364 0.30678 0.11256 0.0
H426 H 0.96705 0.36764 0.09432 0.0
H427 H 0.01275 0.34487 0.20899 0.0
H428 H 0.01644 0.33082 0.10159 0.0
C429 C 0.77373 0.47972 0.11836 0.0
C430 C 0.76464 0.48755 0.12485 0.0
N431 N 0.77773 0.49172 0.15034 0.0
N432 N 0.79263 0.47891 0.13932 0.0
C433 C 0.79469 0.48637 0.15826 0.0
H434 H 0.76624 0.47474 0.10131 0.0
Co435 Co 0.80846 0.46878 0.14675 0.0
C436 C 0.85072 0.47486 0.17831 0.0
O437 O 0.86136 0.47125 0.14933 0.0
N438 N 0.82417 0.45856 0.15542 0.0
C439 C 0.83976 0.44826 0.19004 0.0
C440 C 0.8317 0.45631 0.19112 0.0
C441 C 0.82801 0.45167 0.13292 0.0
N442 N 0.83743 0.44532 0.15357 0.0
O443 O 0.82567 0.4711 0.10103 0.0
H444 H 0.83053 0.46017 0.21699 0.0
H445 H 0.82298 0.45115 0.10272 0.0
O446 O 0.82949 0.47451 0.17988 0.0
C447 C 0.81533 0.46834 0.07119 0.0
O448 O 0.79667 0.46412 0.07666 0.0
N449 N 0.78996 0.46628 0.1886 0.0
C450 C 0.75241 0.46338 0.23412 0.0
C451 C 0.76744 0.46984 0.24389 0.0
C452 C 0.78645 0.47114 0.22081 0.0
C453 C 0.77639 0.45965 0.1804 0.0
C454 C 0.75773 0.45799 0.20315 0.0
H455 H 0.79722 0.47644 0.227 0.0
H456 H 0.77917 0.456 0.15424 0.0
H457 H 0.8078 0.48773 0.17894 0.0
H458 H 0.74885 0.48978 0.11357 0.0
H459 H 0.84636 0.44474 0.2145 0.0
H460 H 0.76376 0.47416 0.26743 0.0
H461 H 0.74639 0.45305 0.19399 0.0
C462 C 0.96687 0.47008 0.66328 0.0
C463 C 0.97744 0.4775 0.65329 0.0
N464 N 0.96636 0.48103 0.62323 0.0
N465 N 0.94908 0.4689 0.63981 0.0
C466 C 0.94921 0.4757 0.61577 0.0
H467 H 0.97214 0.46571 0.68568 0.0
Co468 Co 0.92968 0.45946 0.64006 0.0
C469 C 0.91715 0.45784 0.5581 0.0
O470 O 0.92126 0.44973 0.56014 0.0
N471 N 0.90927 0.45005 0.63985 0.0
C472 C 0.87587 0.44376 0.63715 0.0
C473 C 0.88707 0.45129 0.63552 0.0
C474 C 0.911 0.44151 0.64314 0.0
N475 N 0.89089 0.43759 0.64198 0.0
O476 O 0.90719 0.46624 0.66397 0.0
H477 H 0.87929 0.45734 0.63092 0.0
H478 H 0.92648 0.43814 0.64649 0.0
O479 O 0.91963 0.46245 0.58821 0.0
C480 C 0.91196 0.46636 0.70018 0.0
O481 O 0.92958 0.46219 0.7122 0.0
N482 N 0.95331 0.45293 0.62183 0.0
C483 C -0.00177 0.44853 0.62387 0.0
C484 C 0.98957 0.45303 0.59198 0.0
C485 C 0.96692 0.45519 0.5915 0.0
C486 C 0.9612 0.44801 0.65126 0.0
C487 C 0.98332 0.44543 0.65196 0.0
H488 H 0.96131 0.45964 0.5698 0.0
H489 H 0.95106 0.44693 0.67689 0.0
H490 H 0.937 0.47673 0.59304 0.0
H491 H 0.99255 0.47996 0.66635 0.0
H492 H 0.85801 0.44288 0.6344 0.0
H493 H 0.00051 0.45568 0.57 0.0
H494 H 0.98918 0.44186 0.67687 0.0
C495 C 0.79758 0.31046 0.65176 0.0
C496 C 0.79406 0.30277 0.63446 0.0
N497 N 0.78718 0.30404 0.59753 0.0
N498 N 0.79307 0.31667 0.62607 0.0
C499 C 0.78691 0.31253 0.59311 0.0
H500 H 0.80241 0.31133 0.68177 0.0
Co501 Co 0.79268 0.32849 0.6364 0.0
C502 C 0.8315 0.3271 0.58516 0.0
O503 O 0.84046 0.32158 0.60901 0.0
N504 N 0.79222 0.3401 0.64662 0.0
C505 C 0.78012 0.35258 0.66625 0.0
C506 C 0.77468 0.34422 0.66192 0.0
C507 C 0.80826 0.34607 0.64221 0.0
N508 N 0.80132 0.35378 0.654 0.0
O509 O 0.8165 0.32744 0.67327 0.0
H510 H 0.75889 0.34131 0.66935 0.0
H511 H 0.82481 0.34473 0.63124 0.0
O512 O 0.81268 0.33035 0.59334 0.0
C513 C 0.80739 0.32685 0.70684 0.0
O514 O 0.7855 0.32637 0.70878 0.0
N515 N 0.76799 0.32972 0.60425 0.0
C516 C 0.72624 0.33368 0.57436 0.0
C517 C 0.74555 0.33744 0.55883 0.0
C518 C 0.76644 0.33535 0.57423 0.0
C519 C 0.74951 0.32579 0.61859 0.0
C520 C 0.7285 0.32758 0.60369 0.0
H521 H 0.78105 0.33872 0.56423 0.0
H522 H 0.75096 0.32163 0.64344 0.0
H523 H 0.78179 0.31569 0.56662 0.0
H524 H 0.79547 0.29672 0.64877 0.0
H525 H 0.76906 0.35739 0.67725 0.0
H526 H 0.74441 0.34223 0.53641 0.0
H527 H 0.71402 0.32469 0.61718 0.0
C528 C 0.51309 0.22979 0.86976 0.0
C529 C 0.50603 0.23788 0.86253 0.0
N530 N 0.51834 0.24113 0.83314 0.0
N531 N 0.52999 0.22787 0.84541 0.0
C532 C 0.53285 0.23493 0.82352 0.0
H533 H 0.5054 0.22541 0.8899 0.0
Co534 Co 0.54182 0.21696 0.83909 0.0
C535 C 0.58192 0.21989 0.79355 0.0
O536 O 0.59344 0.21627 0.82151 0.0
N537 N 0.5535 0.20594 0.83158 0.0
C538 C 0.56304 0.19437 0.79911 0.0
C539 C 0.55503 0.2024 0.79585 0.0
C540 C 0.56106 0.19987 0.85625 0.0
N541 N 0.56682 0.19275 0.83701 0.0
O542 O 0.56376 0.21922 0.87811 0.0
H543 H 0.55046 0.20546 0.76883 0.0
H544 H 0.56188 0.20057 0.88759 0.0
O545 O 0.56093 0.22089 0.79753 0.0
C546 C 0.55537 0.21757 0.91144 0.0
O547 O 0.53484 0.21464 0.91298 0.0
N548 N 0.51888 0.21456 0.80462 0.0
C549 C 0.47863 0.21117 0.76781 0.0
C550 C 0.4934 0.21717 0.75212 0.0
C551 C 0.51377 0.21873 0.77092 0.0
C552 C 0.5049 0.20863 0.81964 0.0
C553 C 0.48489 0.20673 0.80137 0.0
H554 H 0.52479 0.22355 0.75963 0.0
H555 H 0.50897 0.2056 0.84699 0.0
H556 H 0.54468 0.2354 0.79978 0.0
H557 H 0.49195 0.24092 0.87632 0.0
H558 H 0.56603 0.19004 0.77531 0.0
H559 H 0.48888 0.2208 0.72659 0.0
H560 H 0.4737 0.20223 0.81505 0.0
C561 C 0.70363 0.07377 0.89191 0.0
C562 C 0.7074 0.06584 0.87766 0.0
N563 N 0.71135 0.0664 0.83907 0.0
N564 N 0.70493 0.07943 0.8626 0.0
C565 C 0.7098 0.07473 0.83064 0.0
H566 H 0.70088 0.07527 0.92222 0.0
Co567 Co 0.7027 0.09125 0.86887 0.0
C568 C 0.67593 0.09691 0.79817 0.0
O569 O 0.67914 0.10498 0.8039 0.0
N570 N 0.70059 0.10308 0.87688 0.0
C571 C 0.71002 0.11629 0.89124 0.0
C572 C 0.71788 0.10831 0.88429 0.0
C573 C 0.68229 0.108 0.88152 0.0
N574 N 0.68756 0.11613 0.8892 0.0
O575 O 0.67719 0.08971 0.90197 0.0
H576 H 0.73523 0.10646 0.88492 0.0
H577 H 0.66536 0.10566 0.87887 0.0
O578 O 0.68425 0.09149 0.82162 0.0
C579 C 0.68448 0.09045 0.93679 0.0
O580 O 0.70588 0.092 0.94163 0.0
N581 N 0.7291 0.09271 0.84026 0.0
C582 C 0.77231 0.09741 0.82059 0.0
C583 C 0.75418 0.10068 0.79984 0.0
C584 C 0.73252 0.09811 0.80971 0.0
C585 C 0.74675 0.08915 0.85904 0.0
C586 C 0.76852 0.09129 0.84915 0.0
H587 H 0.71874 0.10113 0.79542 0.0
H588 H 0.74394 0.08513 0.88407 0.0
H589 H 0.71258 0.07739 0.80195 0.0
H590 H 0.70812 0.06013 0.89486 0.0
H591 H 0.72016 0.12182 0.89657 0.0
H592 H 0.75665 0.10555 0.77806 0.0
H593 H 0.78218 0.08878 0.86628 0.0
C594 C 0.5499 0.06376 0.33931 0.0
C595 C 0.54638 0.05561 0.35142 0.0
N596 N 0.54217 0.05564 0.39001 0.0
N597 N 0.54814 0.06902 0.37002 0.0
C598 C 0.54347 0.06385 0.40062 0.0
H599 H 0.55272 0.06568 0.30949 0.0
Co600 Co 0.54902 0.08097 0.36795 0.0
C601 C 0.59043 0.07965 0.41552 0.0
O602 O 0.60343 0.07801 0.38565 0.0
N603 N 0.54985 0.09285 0.36566 0.0
C604 C 0.53823 0.10602 0.35778 0.0
C605 C 0.53195 0.09769 0.35781 0.0
C606 C 0.567 0.09839 0.36954 0.0
N607 N 0.5603 0.10649 0.36511 0.0
O608 O 0.57193 0.08063 0.32912 0.0
H609 H 0.51534 0.09529 0.35225 0.0
H610 H 0.58402 0.09653 0.37553 0.0
O611 O 0.5697 0.08098 0.41048 0.0
C612 C 0.56257 0.08178 0.29613 0.0
O613 O 0.54075 0.08267 0.29535 0.0
N614 N 0.52528 0.08152 0.40286 0.0
C615 C 0.48522 0.08494 0.44026 0.0
C616 C 0.50537 0.08807 0.45526 0.0
C617 C 0.52539 0.08623 0.43616 0.0
C618 C 0.50597 0.07815 0.38893 0.0
C619 C 0.48577 0.07966 0.40759 0.0
H620 H 0.54064 0.08916 0.44621 0.0
H621 H 0.50607 0.07469 0.36177 0.0
H622 H 0.54048 0.0661 0.42993 0.0
H623 H 0.54587 0.05013 0.33273 0.0
H624 H 0.52743 0.11132 0.35185 0.0
H625 H 0.50547 0.09226 0.48013 0.0
H626 H 0.47052 0.07729 0.39457 0.0
C627 C 0.68861 0.22831 0.31452 0.0
C628 C 0.69275 0.23636 0.32774 0.0
N629 N 0.69881 0.23594 0.36554 0.0
N630 N 0.69185 0.22277 0.34384 0.0
C631 C 0.69791 0.22764 0.37459 0.0
H632 H 0.68438 0.22665 0.2849 0.0
Co633 Co 0.6914 0.21082 0.34166 0.0
C634 C 0.65318 0.21049 0.39667 0.0
O635 O 0.63828 0.20931 0.36911 0.0
N636 N 0.69107 0.1989 0.33988 0.0
C637 C 0.70334 0.1859 0.32977 0.0
C638 C 0.70891 0.19428 0.32933 0.0
C639 C 0.67466 0.19312 0.34611 0.0
N640 N 0.68169 0.18509 0.34014 0.0
O641 O 0.66607 0.21113 0.30779 0.0
H642 H 0.72503 0.19687 0.32158 0.0
H643 H 0.65778 0.19479 0.35394 0.0
O644 O 0.67387 0.21086 0.38842 0.0
C645 C 0.67413 0.21017 0.27362 0.0
O646 O 0.69582 0.20914 0.27027 0.0
N647 N 0.71755 0.21053 0.37037 0.0
C648 C 0.76048 0.21008 0.40011 0.0
C649 C 0.74285 0.20634 0.42092 0.0
C650 C 0.72117 0.20671 0.40553 0.0
C651 C 0.73465 0.21401 0.34977 0.0
C652 C 0.75615 0.214 0.36442 0.0
H653 H 0.70755 0.20369 0.42091 0.0
H654 H 0.73152 0.21672 0.32131 0.0
H655 H 0.7023 0.2251 0.40284 0.0
H656 H 0.6924 0.24203 0.31021 0.0
H657 H 0.71464 0.1808 0.32306 0.0
H658 H 0.74589 0.20311 0.44822 0.0
H659 H 0.76951 0.21674 0.34715 0.0
C660 C 0.45877 0.82891 0.09125 0.0
C661 C 0.46909 0.8213 0.09797 0.0
N662 N 0.45837 0.81734 0.12742 0.0
N663 N 0.44159 0.8298 0.11633 0.0
C664 C 0.44169 0.82262 0.13774 0.0
H665 H 0.46374 0.83359 0.06994 0.0
Co666 Co 0.42263 0.8392 0.12092 0.0
C667 C 0.41367 0.84 0.20494 0.0
O668 O 0.4179 0.84812 0.20412 0.0
N669 N 0.40276 0.84859 0.12594 0.0
C670 C 0.37132 0.85523 0.1425 0.0
C671 C 0.3816 0.84755 0.139 0.0
C672 C 0.40462 0.85707 0.12082 0.0
N673 N 0.3858 0.86121 0.13097 0.0
O674 O 0.39895 0.83261 0.09956 0.0
H675 H 0.37422 0.84155 0.14672 0.0
H676 H 0.41952 0.86029 0.11123 0.0
O677 O 0.41494 0.8357 0.17365 0.0
C678 C 0.40206 0.83293 0.06285 0.0
O679 O 0.41805 0.8378 0.04924 0.0
N680 N 0.44727 0.84553 0.13697 0.0
C681 C 0.49189 0.8505 0.1337 0.0
C682 C 0.48391 0.84571 0.16529 0.0
C683 C 0.46151 0.84321 0.16623 0.0
C684 C 0.45457 0.85057 0.10742 0.0
C685 C 0.47654 0.85339 0.10599 0.0
H686 H 0.45657 0.83857 0.18761 0.0
H687 H 0.44402 0.85163 0.08234 0.0
H688 H 0.4297 0.82127 0.16052 0.0
H689 H 0.48375 0.81898 0.08302 0.0
H690 H 0.3545 0.85635 0.15283 0.0
H691 H 0.49528 0.84314 0.18674 0.0
H692 H 0.48191 0.85709 0.0811 0.0
C693 C 0.30273 0.98972 0.10512 0.0
C694 C 0.29778 0.99741 0.12096 0.0
N695 N 0.29004 0.99622 0.15741 0.0
N696 N 0.29822 0.98357 0.13126 0.0
C697 C 0.29084 0.98779 0.16323 0.0
H698 H 0.30863 0.98879 0.07575 0.0
Co699 Co 0.2993 0.97174 0.12195 0.0
C700 C 0.33796 0.97356 0.17433 0.0
O701 O 0.34888 0.97825 0.14909 0.0
N702 N 0.30026 0.96012 0.1124 0.0
C703 C 0.29194 0.94787 0.08469 0.0
C704 C 0.28594 0.95619 0.08816 0.0
C705 C 0.31471 0.95404 0.12381 0.0
N706 N 0.31 0.94652 0.10716 0.0
O707 O 0.32337 0.97311 0.08567 0.0
H708 H 0.27218 0.95923 0.07345 0.0
H709 H 0.32878 0.95513 0.14297 0.0
O710 O 0.31887 0.97055 0.16573 0.0
C711 C 0.31487 0.97351 0.05159 0.0
O712 O 0.293 0.97374 0.04848 0.0
N713 N 0.27464 0.97007 0.15389 0.0
C714 C 0.23394 0.96553 0.18667 0.0
C715 C 0.25389 0.96219 0.20137 0.0
C716 C 0.2742 0.96456 0.18449 0.0
C717 C 0.25549 0.97356 0.14008 0.0
C718 C 0.23496 0.97148 0.15647 0.0
H719 H 0.2893 0.9615 0.19415 0.0
H720 H 0.25609 0.97765 0.11484 0.0
H721 H 0.28505 0.98471 0.18956 0.0
H722 H 0.29937 1.00343 0.10632 0.0
H723 H 0.28364 0.94316 0.06708 0.0
H724 H 0.25368 0.95749 0.22431 0.0
H725 H 0.21991 0.97403 0.1436 0.0
C726 C 0.4492 0.97535 0.64933 0.0
C727 C 0.45326 0.98337 0.63601 0.0
N728 N 0.45846 0.983 0.59782 0.0
N729 N 0.45158 0.96983 0.6198 0.0
C730 C 0.45731 0.9747 0.58867 0.0
H731 H 0.44557 0.97369 0.67921 0.0
Co732 Co 0.44988 0.95796 0.62514 0.0
C733 C 0.42411 0.95231 0.55365 0.0
O734 O 0.42807 0.94427 0.55895 0.0
N735 N 0.44839 0.94604 0.63209 0.0
C736 C 0.45909 0.93301 0.64708 0.0
C737 C 0.46617 0.94108 0.63964 0.0
C738 C 0.43055 0.94082 0.63671 0.0
N739 N 0.43665 0.93281 0.64505 0.0
O740 O 0.4241 0.95912 0.65791 0.0
H741 H 0.48331 0.94322 0.64062 0.0
H742 H 0.41338 0.94287 0.63429 0.0
O743 O 0.43174 0.95776 0.57765 0.0
C744 C 0.43091 0.95799 0.69282 0.0
O745 O 0.4522 0.95635 0.69824 0.0
N746 N 0.47654 0.9569 0.59707 0.0
C747 C 0.52015 0.95288 0.57766 0.0
C748 C 0.50245 0.94971 0.55545 0.0
C749 C 0.48055 0.95192 0.56534 0.0
C750 C 0.49379 0.96036 0.61742 0.0
C751 C 0.51576 0.95853 0.6078 0.0
H752 H 0.4671 0.949 0.54969 0.0
H753 H 0.49046 0.96404 0.64325 0.0
H754 H 0.46106 0.97216 0.56013 0.0
H755 H 0.45336 0.989 0.6537 0.0
H756 H 0.46971 0.92767 0.65336 0.0
H757 H 0.50543 0.94521 0.53235 0.0
H758 H 0.52913 0.96095 0.62592 0.0
C759 C 0.26158 0.81973 0.63597 0.0
C760 C 0.25179 0.81236 0.62375 0.0
N761 N 0.26691 0.80794 0.60313 0.0
N762 N 0.28288 0.82003 0.62333 0.0
C763 C 0.28566 0.81276 0.60318 0.0
H764 H 0.25368 0.82458 0.65317 0.0
Co765 Co 0.30239 0.82897 0.63537 0.0
C766 C 0.33417 0.83022 0.57123 0.0
O767 O 0.33203 0.83843 0.57341 0.0
N768 N 0.32246 0.83802 0.64897 0.0
C769 C 0.35447 0.84405 0.6675 0.0
C770 C 0.3436 0.83657 0.66104 0.0
C771 C 0.3211 0.84659 0.64831 0.0
N772 N 0.34037 0.85039 0.65943 0.0
O773 O 0.31695 0.82194 0.67263 0.0
H774 H 0.35112 0.83042 0.66374 0.0
H775 H 0.30659 0.85007 0.63918 0.0
O776 O 0.32281 0.82544 0.59386 0.0
C777 C 0.30649 0.82251 0.7049 0.0
O778 O 0.28836 0.82715 0.706 0.0
N779 N 0.28596 0.83581 0.60193 0.0
C780 C 0.24872 0.84295 0.56649 0.0
C781 C 0.26328 0.83782 0.54499 0.0
C782 C 0.28181 0.83423 0.56342 0.0
C783 C 0.27232 0.84097 0.62268 0.0
C784 C 0.25401 0.84478 0.60536 0.0
H785 H 0.29132 0.82956 0.54779 0.0
H786 H 0.27466 0.84158 0.65383 0.0
H787 H 0.3012 0.81094 0.58951 0.0
H788 H 0.23473 0.81043 0.62932 0.0
H789 H 0.37176 0.84475 0.67608 0.0
H790 H 0.25942 0.83608 0.51522 0.0
H791 H 0.24282 0.8484 0.62358 0.0
C792 C 0.54072 0.73736 0.39097 0.0
C793 C 0.53541 0.74505 0.37538 0.0
N794 N 0.52958 0.74397 0.33782 0.0
N795 N 0.53846 0.73133 0.36354 0.0
C796 C 0.53183 0.7356 0.33115 0.0
H797 H 0.54505 0.7363 0.42109 0.0
Co798 Co 0.54051 0.71959 0.37311 0.0
C799 C 0.56901 0.71318 0.30564 0.0
O800 O 0.56664 0.70517 0.31374 0.0
N801 N 0.54227 0.70788 0.38464 0.0
C802 C 0.53237 0.69487 0.40203 0.0
C803 C 0.5248 0.70282 0.39338 0.0
C804 C 0.56038 0.70294 0.39065 0.0
N805 N 0.55481 0.69491 0.39988 0.0
O806 O 0.56588 0.72133 0.40606 0.0
H807 H 0.50751 0.70475 0.39342 0.0
H808 H 0.5774 0.70516 0.38749 0.0
O809 O 0.55943 0.7188 0.3264 0.0
C810 C 0.55876 0.72122 0.44115 0.0
O811 O 0.53712 0.72055 0.44703 0.0
N812 N 0.51443 0.7178 0.34422 0.0
C813 C 0.47212 0.71172 0.32715 0.0
C814 C 0.49073 0.70868 0.30692 0.0
C815 C 0.5119 0.71193 0.31544 0.0
C816 C 0.49623 0.7213 0.36161 0.0
C817 C 0.47484 0.71845 0.35298 0.0
H818 H 0.52617 0.709 0.30224 0.0
H819 H 0.49844 0.72575 0.38515 0.0
H820 H 0.52745 0.73257 0.30395 0.0
H821 H 0.53529 0.75097 0.3909 0.0
H822 H 0.52204 0.68943 0.4082 0.0
H823 H 0.48915 0.7034 0.28712 0.0
H824 H 0.46083 0.72084 0.36958 0.0
C825 C 0.72194 0.58067 0.3805 0.0
C826 C 0.73034 0.57272 0.37424 0.0
N827 N 0.71856 0.56904 0.34537 0.0
N828 N 0.70477 0.58205 0.35597 0.0
C829 C 0.70303 0.57482 0.33518 0.0
H830 H 0.7289 0.58534 0.39991 0.0
Co831 Co 0.6915 0.59263 0.34687 0.0
C832 C 0.65179 0.58816 0.30187 0.0
O833 O 0.63902 0.59235 0.32615 0.0
N834 N 0.67862 0.60328 0.33673 0.0
C835 C 0.66775 0.61441 0.30217 0.0
C836 C 0.67573 0.60635 0.30029 0.0
C837 C 0.67204 0.60965 0.36042 0.0
N838 N 0.66546 0.61651 0.33992 0.0
O839 O 0.67005 0.59037 0.38662 0.0
H840 H 0.67957 0.60297 0.27378 0.0
H841 H 0.67274 0.6094 0.39192 0.0
O842 O 0.67274 0.58777 0.30765 0.0
C843 C 0.67793 0.59252 0.41963 0.0
O844 O 0.69756 0.59624 0.42058 0.0
N845 N 0.71378 0.59492 0.31097 0.0
C846 C 0.75575 0.59595 0.27715 0.0
C847 C 0.73893 0.59102 0.25991 0.0
C848 C 0.71791 0.59055 0.27748 0.0
C849 C 0.72904 0.6004 0.32561 0.0
C850 C 0.75012 0.60107 0.30901 0.0
H851 H 0.70579 0.58615 0.2661 0.0
H852 H 0.72548 0.60369 0.3525 0.0
H853 H 0.69129 0.57394 0.3117 0.0
H854 H 0.74494 0.57009 0.38822 0.0
H855 H 0.66396 0.61845 0.27758 0.0
H856 H 0.74252 0.58704 0.23509 0.0
H857 H 0.76252 0.60488 0.32377 0.0
C858 C 0.54743 0.56184 0.83201 0.0
C859 C 0.54272 0.55407 0.84783 0.0
N860 N 0.53903 0.55498 0.88638 0.0
N861 N 0.54691 0.56772 0.86032 0.0
C862 C 0.54195 0.56331 0.8932 0.0
H863 H 0.55034 0.56307 0.80146 0.0
Co864 Co 0.54942 0.57954 0.85417 0.0
C865 C 0.59124 0.57984 0.9014 0.0
O866 O 0.60503 0.58086 0.87196 0.0
N867 N 0.55155 0.5913 0.84786 0.0
C868 C 0.54015 0.60425 0.83355 0.0
C869 C 0.53426 0.59589 0.8345 0.0
C870 C 0.568 0.59703 0.85422 0.0
N871 N 0.56139 0.60499 0.84597 0.0
O872 O 0.5722 0.57817 0.81591 0.0
H873 H 0.51825 0.59329 0.82617 0.0
H874 H 0.58437 0.59545 0.86518 0.0
O875 O 0.57027 0.57954 0.896 0.0
C876 C 0.56367 0.57863 0.78195 0.0
O877 O 0.5419 0.57944 0.77893 0.0
N878 N 0.52616 0.58111 0.88921 0.0
C879 C 0.48754 0.58584 0.92785 0.0
C880 C 0.50838 0.58869 0.94089 0.0
C881 C 0.52766 0.58619 0.9212 0.0
C882 C 0.50612 0.57801 0.87719 0.0
C883 C 0.48659 0.58019 0.89653 0.0
H884 H 0.54353 0.58886 0.9298 0.0
H885 H 0.5052 0.57422 0.85105 0.0
H886 H 0.53931 0.56625 0.92127 0.0
H887 H 0.54173 0.54822 0.83181 0.0
H888 H 0.52967 0.60939 0.82391 0.0
H889 H 0.50962 0.59316 0.96461 0.0
H890 H 0.47074 0.57802 0.88505 0.0
C891 C 0.69473 0.72628 0.84216 0.0
C892 C 0.6987 0.73432 0.85532 0.0
N893 N 0.70308 0.73398 0.89381 0.0
N894 N 0.69637 0.7208 0.87216 0.0
C895 C 0.70145 0.72571 0.90331 0.0
H896 H 0.69167 0.72457 0.81218 0.0
Co897 Co 0.69473 0.7089 0.86885 0.0
C898 C 0.662 0.70453 0.93436 0.0
O899 O 0.66213 0.69634 0.92973 0.0
N900 N 0.6935 0.69693 0.86411 0.0
C901 C 0.70545 0.68378 0.85611 0.0
C902 C 0.71176 0.69198 0.86185 0.0
C903 C 0.67626 0.69154 0.85736 0.0
N904 N 0.68304 0.68344 0.85343 0.0
O905 O 0.67116 0.70982 0.83145 0.0
H906 H 0.72881 0.69419 0.8638 0.0
H907 H 0.65905 0.69354 0.85514 0.0
O908 O 0.67385 0.70928 0.91249 0.0
C909 C 0.67932 0.70851 0.79761 0.0
O910 O 0.70072 0.70677 0.79491 0.0
N911 N 0.71911 0.70801 0.90257 0.0
C912 C 0.76041 0.70408 0.93399 0.0
C913 C 0.74089 0.70088 0.95106 0.0
C914 C 0.72014 0.70307 0.93522 0.0
C915 C 0.73796 0.71146 0.88701 0.0
C916 C 0.75876 0.70972 0.90282 0.0
H917 H 0.70529 0.70011 0.94666 0.0
H918 H 0.73701 0.71511 0.86039 0.0
H919 H 0.70457 0.72323 0.9322 0.0
H920 H 0.69937 0.73993 0.83742 0.0
H921 H 0.71667 0.67846 0.85456 0.0
H922 H 0.74174 0.69635 0.97466 0.0
H923 H 0.77358 0.71214 0.88844 0.0
C924 C 0.46614 0.32949 0.59211 0.0
C925 C 0.47615 0.32199 0.60205 0.0
N926 N 0.46422 0.31835 0.63094 0.0
N927 N 0.4479 0.33063 0.61453 0.0
C928 C 0.44713 0.32371 0.63777 0.0
H929 H 0.47203 0.33392 0.57041 0.0
Co930 Co 0.42873 0.34009 0.61397 0.0
C931 C 0.41769 0.34216 0.69648 0.0
O932 O 0.42265 0.3502 0.69377 0.0
N933 N 0.40848 0.34953 0.61411 0.0
C934 C 0.37528 0.35587 0.61797 0.0
C935 C 0.38631 0.34833 0.61951 0.0
C936 C 0.41035 0.35806 0.6103 0.0
N937 N 0.39037 0.36202 0.61209 0.0
O938 O 0.40575 0.33317 0.5921 0.0
H939 H 0.37845 0.3423 0.62489 0.0
H940 H 0.42584 0.36142 0.60625 0.0
O941 O 0.41939 0.33742 0.66666 0.0
C942 C 0.41028 0.33264 0.55587 0.0
O943 O 0.42797 0.33661 0.5424 0.0
N944 N 0.45279 0.34673 0.62998 0.0
C945 C 0.49728 0.3519 0.62563 0.0
C946 C 0.48956 0.34719 0.65778 0.0
C947 C 0.46712 0.34468 0.65951 0.0
C948 C 0.45985 0.35165 0.59988 0.0
C949 C 0.48156 0.35469 0.59828 0.0
H950 H 0.46217 0.3402 0.68167 0.0
H951 H 0.44924 0.35253 0.57471 0.0
H952 H 0.43424 0.32262 0.65931 0.0
H953 H 0.49141 0.31953 0.58962 0.0
H954 H 0.35749 0.35678 0.6216 0.0
H955 H 0.50103 0.34473 0.6793 0.0
H956 H 0.48643 0.35849 0.57342 0.0
C957 C 0.30471 0.48937 0.60804 0.0
C958 C 0.30094 0.49725 0.62302 0.0
N959 N 0.2938 0.49644 0.66009 0.0
N960 N 0.30012 0.48349 0.63539 0.0
C961 C 0.29375 0.48804 0.66708 0.0
H962 H 0.30961 0.48811 0.57835 0.0
Co963 Co 0.29878 0.47165 0.62732 0.0
C964 C 0.32118 0.46416 0.69785 0.0
O965 O 0.31122 0.45685 0.69329 0.0
N966 N 0.29719 0.45983 0.61829 0.0
C967 C 0.28372 0.44706 0.60552 0.0
C968 C 0.27836 0.45532 0.61236 0.0
C969 C 0.31388 0.45413 0.61358 0.0
N970 N 0.3061 0.44626 0.60643 0.0
O971 O 0.32451 0.47212 0.59375 0.0
H972 H 0.26163 0.45783 0.61286 0.0
H973 H 0.33141 0.45573 0.61583 0.0
O974 O 0.31743 0.47019 0.67396 0.0
C975 C 0.31662 0.47235 0.55913 0.0
O976 O 0.29481 0.47248 0.55483 0.0
N977 N 0.27198 0.47132 0.65543 0.0
C978 C 0.22743 0.46938 0.67646 0.0
C979 C 0.24445 0.46677 0.70179 0.0
C980 C 0.26678 0.46792 0.69095 0.0
C981 C 0.2556 0.4744 0.6319 0.0
C982 C 0.23324 0.47353 0.64187 0.0
H983 H 0.27945 0.46579 0.71067 0.0
H984 H 0.25997 0.4771 0.60393 0.0
H985 H 0.28792 0.48522 0.69401 0.0
H986 H 0.30279 0.50313 0.60734 0.0
H987 H 0.27189 0.44199 0.60101 0.0
H988 H 0.24051 0.46366 0.72907 0.0
H989 H 0.22061 0.47558 0.62136 0.0
C990 C 0.4753 0.47532 0.17273 0.0
C991 C 0.48083 0.48361 0.16555 0.0
N992 N 0.47019 0.48616 0.13294 0.0
N993 N 0.46124 0.47259 0.14479 0.0
C994 C 0.45795 0.47941 0.1217 0.0
H995 H 0.48261 0.47133 0.19488 0.0
Co996 Co 0.45425 0.46118 0.13466 0.0
C997 C 0.44761 0.4643 0.0481 0.0
O998 O 0.46755 0.46167 0.03833 0.0
N999 N 0.4468 0.44966 0.12346 0.0
C1000 C 0.44707 0.43729 0.09291 0.0
C1001 C 0.45411 0.44548 0.09161 0.0
C1002 C 0.4349 0.44376 0.14354 0.0
N1003 N 0.43504 0.43617 0.12557 0.0
O1004 O 0.42613 0.46269 0.16051 0.0
H1005 H 0.46489 0.44804 0.06944 0.0
H1006 H 0.4269 0.44485 0.17132 0.0
O1007 O 0.4412 0.46426 0.08375 0.0
C1008 C 0.4314 0.46088 0.1957 0.0
O1009 O 0.45186 0.45827 0.20249 0.0
N1010 N 0.48379 0.45961 0.11644 0.0
C1011 C 0.53035 0.45893 0.12131 0.0
C1012 C 0.51988 0.46516 0.09885 0.0
C1013 C 0.49655 0.46547 0.09722 0.0
C1014 C 0.49395 0.45335 0.13713 0.0
C1015 C 0.51704 0.4528 0.13932 0.0
H1016 H 0.48893 0.47081 0.08304 0.0
H1017 H 0.48421 0.44918 0.15537 0.0
H1018 H 0.44805 0.47927 0.09543 0.0
H1019 H 0.49321 0.48723 0.18131 0.0
H1020 H 0.4508 0.43246 0.07163 0.0
H1021 H 0.52954 0.47008 0.08474 0.0
H1022 H 0.52423 0.44805 0.15817 0.0
C1023 C 0.26449 0.3229 0.13742 0.0
C1024 C 0.25408 0.31538 0.12888 0.0
N1025 N 0.26741 0.31091 0.10493 0.0
N1026 N 0.2844 0.32322 0.11919 0.0
C1027 C 0.2858 0.31578 0.09996 0.0
H1028 H 0.25733 0.32804 0.15378 0.0
Co1029 Co 0.30212 0.33298 0.11453 0.0
C1030 C 0.34216 0.32633 0.07715 0.0
O1031 O 0.35406 0.32892 0.10699 0.0
N1032 N 0.3197 0.34283 0.10888 0.0
C1033 C 0.33987 0.35274 0.07922 0.0
C1034 C 0.3282 0.3454 0.07429 0.0
C1035 C 0.32594 0.34893 0.13438 0.0
N1036 N 0.33842 0.35498 0.11689 0.0
O1037 O 0.31989 0.3293 0.15748 0.0
H1038 H 0.32585 0.34218 0.04684 0.0
H1039 H 0.32154 0.34895 0.16499 0.0
O1040 O 0.32107 0.32738 0.0771 0.0
C1041 C 0.31085 0.3316 0.18937 0.0
O1042 O 0.29252 0.33611 0.1876 0.0
N1043 N 0.28318 0.33679 0.0757 0.0
C1044 C 0.24264 0.34032 0.04047 0.0
C1045 C 0.25662 0.33404 0.0252 0.0
C1046 C 0.27708 0.33237 0.04331 0.0
C1047 C 0.27108 0.3435 0.08799 0.0
C1048 C 0.25088 0.34546 0.07044 0.0
H1049 H 0.28668 0.32699 0.03396 0.0
H1050 H 0.27592 0.34679 0.11426 0.0
H1051 H 0.29955 0.31414 0.08107 0.0
H1052 H 0.23735 0.31362 0.13767 0.0
H1053 H 0.34845 0.35628 0.0567 0.0
H1054 H 0.25091 0.32996 0.00195 0.0
H1055 H 0.24066 0.3503 0.08364 0.0
C1056 C 0.18921 0.21751 0.06077 0.0
C1057 C 0.17724 0.21746 0.02552 0.0
C1058 C 0.17939 0.22044 0.09503 0.0
C1059 C 0.15866 0.23046 0.16057 0.0
H1060 H 0.09921 0.22225 0.18459 0.0
C1061 C 0.08791 0.23069 0.29214 0.0
C1062 C 0.10165 0.22849 0.32379 0.0
C1063 C 0.09666 0.23123 0.25442 0.0
C1064 C 0.11564 0.22475 0.17812 0.0
H1065 H 0.14564 0.22066 0.99851 0.0
H1066 H 0.1284 0.22578 0.05867 0.0
H1067 H 0.11513 0.21966 0.12039 0.0
H1068 H 0.13568 0.22566 0.34089 0.0
H1069 H 0.15091 0.22655 0.27515 0.0
H1070 H 0.15941 0.23533 0.21876 0.0
C1071 C 0.14539 0.22348 0.05968 0.0
C1072 C 0.12478 0.22325 0.14125 0.0
C1073 C 0.15528 0.22057 0.02522 0.0
C1074 C 0.12461 0.22736 0.31721 0.0
C1075 C 0.13337 0.2279 0.27946 0.0
C1076 C 0.14953 0.23195 0.19745 0.0
C1077 C 0.15731 0.22339 0.09504 0.0
C1078 C 0.14659 0.22592 0.13235 0.0
C1079 C 0.11937 0.2296 0.24747 0.0
C1080 C 0.1281 0.22895 0.20694 0.0
H1081 H 0.20618 0.21518 0.06214 0.0
H1082 H 0.18895 0.22015 0.12181 0.0
H1083 H 0.17536 0.23273 0.15438 0.0
H1084 H 0.07019 0.2317 0.29621 0.0
H1085 H 0.08551 0.2327 0.23052 0.0
C1086 C 0.15031 0.0883 0.25231 0.0
C1087 C 0.17263 0.08571 0.25552 0.0
C1088 C 0.13863 0.08706 0.21738 0.0
C1089 C 0.13132 0.09004 0.12826 0.0
H1090 H 0.12426 0.06856 0.07593 0.0
C1091 C 0.11291 0.08617 0.96282 0.0
C1092 C 0.0932 0.08169 0.95483 0.0
C1093 C 0.12165 0.08632 0.00069 0.0
C1094 C 0.12613 0.07458 0.09032 0.0
H1095 H 0.19988 0.07943 0.22616 0.0
H1096 H 0.1791 0.0769 0.16578 0.0
H1097 H 0.14025 0.06905 0.14191 0.0
H1098 H 0.06752 0.07365 0.97976 0.0
H1099 H 0.08337 0.07365 0.04557 0.0
H1100 H 0.11812 0.09561 0.07609 0.0
C1101 C 0.17078 0.07999 0.1899 0.0
C1102 C 0.13521 0.07486 0.12791 0.0
C1103 C 0.18263 0.08143 0.22433 0.0
C1104 C 0.08272 0.07718 0.98513 0.0
C1105 C 0.09177 0.07715 0.02269 0.0
C1106 C 0.12276 0.08978 0.09034 0.0
C1107 C 0.14893 0.08302 0.18569 0.0
C1108 C 0.13785 0.08259 0.14718 0.0
C1109 C 0.11114 0.0818 0.03089 0.0
C1110 C 0.12014 0.08205 0.07105 0.0
H1111 H 0.1424 0.09173 0.27583 0.0
H1112 H 0.12178 0.08945 0.2147 0.0
H1113 H 0.13345 0.09608 0.14241 0.0
H1114 H 0.12122 0.08974 0.94008 0.0
H1115 H 0.13667 0.08993 0.00641 0.0
C1116 C 0.93188 0.82891 0.78692 0.0
C1117 C 0.92368 0.834 0.75675 0.0
C1118 C 0.9187 0.8271 0.81949 0.0
C1119 C 0.86117 0.82968 0.86152 0.0
H1120 H 0.89395 0.83027 0.95907 0.0
C1121 C 0.82298 0.83964 0.0083 0.0
C1122 C 0.82684 0.83448 0.041 0.0
C1123 C 0.83382 0.8381 0.97303 0.0
C1124 C 0.8846 0.82997 0.93207 0.0
H1125 H 0.89509 0.84095 0.73587 0.0
H1126 H 0.87225 0.83817 0.79351 0.0
H1127 H 0.91424 0.83017 0.89765 0.0
H1128 H 0.8452 0.82368 0.06231 0.0
H1129 H 0.86492 0.82117 0.00051 0.0
H1130 H 0.8315 0.83004 0.89659 0.0
C1131 C 0.8886 0.8353 0.79178 0.0
C1132 C 0.8962 0.82986 0.89668 0.0
C1133 C 0.90166 0.83694 0.75868 0.0
C1134 C 0.84194 0.82777 0.03765 0.0
C1135 C 0.85318 0.82633 0.00239 0.0
C1136 C 0.84958 0.82994 0.89696 0.0
C1137 C 0.89719 0.83056 0.82321 0.0
C1138 C 0.88467 0.82984 0.86081 0.0
C1139 C 0.84907 0.83146 0.96971 0.0
C1140 C 0.86121 0.83021 0.93251 0.0
H1141 H 0.9488 0.82651 0.78581 0.0
H1142 H 0.9257 0.8232 0.8423 0.0
H1143 H 0.85165 0.82948 0.83471 0.0
H1144 H 0.81133 0.84483 0.00972 0.0
H1145 H 0.83056 0.84221 0.94844 0.0
C1146 C 0.87082 0.97476 0.68259 0.0
C1147 C 0.84832 0.97243 0.67814 0.0
C1148 C 0.88112 0.97427 0.71921 0.0
C1149 C 0.86907 0.97382 0.8247 0.0
H1150 H 0.92621 0.9626 0.83311 0.0
C1151 C 0.90679 0.9633 0.97294 0.0
C1152 C 0.93014 0.96315 0.97633 0.0
C1153 C 0.89678 0.96536 0.93722 0.0
C1154 C 0.91046 0.96591 0.83137 0.0
H1155 H 0.81888 0.96793 0.70887 0.0
H1156 H 0.8368 0.96711 0.77239 0.0
H1157 H 0.90929 0.96452 0.76927 0.0
H1158 H 0.96129 0.96564 0.94618 0.0
H1159 H 0.94398 0.96955 0.88473 0.0
H1160 H 0.87025 0.97526 0.88675 0.0
C1161 C 0.84649 0.9693 0.74767 0.0
C1162 C 0.90074 0.96698 0.79467 0.0
C1163 C 0.8363 0.9697 0.71111 0.0
C1164 C 0.94323 0.96557 0.94419 0.0
C1165 C 0.93329 0.96775 0.90884 0.0
C1166 C 0.8789 0.97283 0.86144 0.0
C1167 C 0.86901 0.97156 0.75214 0.0
C1168 C 0.87986 0.97087 0.79095 0.0
C1169 C 0.90996 0.96742 0.90443 0.0
C1170 C 0.89968 0.96881 0.86531 0.0
H1171 H 0.88051 0.97691 0.65779 0.0
H1172 H 0.8985 0.97609 0.72187 0.0
H1173 H 0.85303 0.97692 0.82265 0.0
H1174 H 0.89632 0.96143 0.99725 0.0
H1175 H 0.87878 0.96498 0.93494 0.0
C1176 C 0.15847 0.71463 0.4981 0.0
C1177 C 0.15173 0.70676 0.48344 0.0
C1178 C 0.14921 0.71775 0.53265 0.0
C1179 C 0.13985 0.71749 0.62139 0.0
H1180 H 0.07634 0.71686 0.64376 0.0
C1181 C 0.10129 0.71042 0.77108 0.0
C1182 C 0.08319 0.71528 0.78384 0.0
C1183 C 0.11062 0.71177 0.73431 0.0
C1184 C 0.09409 0.71722 0.63776 0.0
H1185 H 0.12919 0.69622 0.49214 0.0
H1186 H 0.11265 0.70177 0.55187 0.0
H1187 H 0.08948 0.71471 0.57683 0.0
H1188 H 0.06102 0.72555 0.76886 0.0
H1189 H 0.07696 0.72773 0.70354 0.0
H1190 H 0.14452 0.71942 0.68275 0.0
C1191 C 0.12522 0.70548 0.53686 0.0
C1192 C 0.10158 0.71594 0.59961 0.0
C1193 C 0.13478 0.70228 0.50285 0.0
C1194 C 0.07508 0.72175 0.75975 0.0
C1195 C 0.0841 0.72298 0.72244 0.0
C1196 C 0.13237 0.71862 0.65965 0.0
C1197 C 0.13268 0.71314 0.55254 0.0
C1198 C 0.12455 0.71586 0.59128 0.0
C1199 C 0.10172 0.7179 0.70925 0.0
C1200 C 0.10946 0.71829 0.66829 0.0
H1201 H 0.17153 0.71822 0.48383 0.0
H1202 H 0.15522 0.72368 0.5442 0.0
H1203 H 0.15765 0.7174 0.61575 0.0
H1204 H 0.10785 0.7054 0.78916 0.0
H1205 H 0.12405 0.70772 0.72467 0.0
C1206 C 0.17878 0.58009 0.72827 0.0
C1207 C 0.17164 0.58406 0.76262 0.0
C1208 C 0.1637 0.57848 0.69818 0.0
C1209 C 0.12479 0.57354 0.64395 0.0
H1210 H 0.09821 0.59452 0.60987 0.0
C1211 C 0.0652 0.58834 0.51324 0.0
C1212 C 0.07361 0.58378 0.48148 0.0
C1213 C 0.07432 0.58732 0.55036 0.0
C1214 C 0.10496 0.58854 0.61923 0.0
H1215 H 0.14304 0.58907 0.7935 0.0
H1216 H 0.11668 0.58645 0.74019 0.0
H1217 H 0.1179 0.59397 0.67162 0.0
H1218 H 0.09794 0.57451 0.46349 0.0
H1219 H 0.11481 0.57305 0.52788 0.0
H1220 H 0.11179 0.56807 0.59172 0.0
C1221 C 0.1339 0.58451 0.73687 0.0
C1222 C 0.11631 0.58824 0.6547 0.0
C1223 C 0.14892 0.58597 0.76733 0.0
C1224 C 0.09117 0.57811 0.48756 0.0
C1225 C 0.10066 0.57722 0.52459 0.0
C1226 C 0.11304 0.57378 0.60872 0.0
C1227 C 0.14131 0.58095 0.70169 0.0
C1228 C 0.12668 0.5808 0.66701 0.0
C1229 C 0.09245 0.58186 0.55649 0.0
C1230 C 0.10335 0.58134 0.59549 0.0
H1231 H 0.19621 0.57851 0.72408 0.0
H1232 H 0.16984 0.57578 0.67124 0.0
H1233 H 0.13265 0.56772 0.65295 0.0
H1234 H 0.05137 0.59265 0.50954 0.0
H1235 H 0.0671 0.59084 0.57424 0.0
C1236 C 0.83166 0.33445 0.52054 0.0
C1237 C 0.84247 0.3292 0.54763 0.0
C1238 C 0.84143 0.33622 0.48448 0.0
C1239 C 0.88393 0.32844 0.41501 0.0
H1240 H 0.87686 0.35066 0.36975 0.0
C1241 C 0.91856 0.34964 0.27691 0.0
C1242 C 0.91774 0.3436 0.24707 0.0
C1243 C 0.90985 0.34786 0.31381 0.0
C1244 C 0.87921 0.34444 0.38206 0.0
H1245 H 0.87226 0.32182 0.5582 0.0
H1246 H 0.88959 0.32508 0.49543 0.0
H1247 H 0.86196 0.34777 0.43436 0.0
H1248 H 0.90696 0.33094 0.23257 0.0
H1249 H 0.89122 0.3279 0.29672 0.0
H1250 H 0.90175 0.32519 0.36305 0.0
C1251 C 0.87331 0.32768 0.50185 0.0
C1252 C 0.87039 0.34275 0.41898 0.0
C1253 C 0.86345 0.32586 0.53795 0.0
C1254 C 0.90787 0.33574 0.25492 0.0
C1255 C 0.89901 0.33397 0.29182 0.0
C1256 C 0.89287 0.33015 0.37811 0.0
C1257 C 0.86236 0.33286 0.4746 0.0
C1258 C 0.87251 0.33471 0.43585 0.0
C1259 C 0.89993 0.34001 0.32177 0.0
C1260 C 0.89055 0.33816 0.36111 0.0
H1261 H 0.81545 0.33711 0.52687 0.0
H1262 H 0.83232 0.34012 0.46404 0.0
H1263 H 0.88567 0.32216 0.4269 0.0
H1264 H 0.9262 0.35574 0.272 0.0
H1265 H 0.91121 0.35261 0.33629 0.0
C1266 C 0.85271 0.48238 0.24203 0.0
C1267 C 0.86287 0.47721 0.21407 0.0
C1268 C 0.86171 0.48306 0.27947 0.0
C1269 C 0.87109 0.47717 0.36111 0.0
H1270 H 0.93281 0.4724 0.38681 0.0
C1271 C 0.91836 0.45766 0.48541 0.0
C1272 C 0.91234 0.46177 0.52005 0.0
C1273 C 0.91454 0.46146 0.44932 0.0
C1274 C 0.91556 0.47381 0.37999 0.0
H1275 H 0.8912 0.46914 0.20238 0.0
H1276 H 0.90638 0.47001 0.26771 0.0
H1277 H 0.9231 0.47659 0.32039 0.0
H1278 H 0.89763 0.47308 0.54422 0.0
H1279 H 0.8901 0.47959 0.48062 0.0
H1280 H 0.86372 0.47436 0.42092 0.0
C1281 C 0.89182 0.47376 0.2609 0.0
C1282 C 0.90993 0.47616 0.34196 0.0
C1283 C 0.88306 0.47322 0.22327 0.0
C1284 C 0.90237 0.46976 0.51793 0.0
C1285 C 0.89811 0.47349 0.48171 0.0
C1286 C 0.87681 0.47499 0.39928 0.0
C1287 C 0.88078 0.47842 0.28997 0.0
C1288 C 0.88749 0.47756 0.33164 0.0
C1289 C 0.90428 0.46937 0.44716 0.0
C1290 C 0.89896 0.47302 0.40867 0.0
H1291 H 0.83722 0.4856 0.23553 0.0
H1292 H 0.85311 0.48692 0.30065 0.0
H1293 H 0.85359 0.47805 0.35444 0.0
H1294 H 0.92625 0.45153 0.48614 0.0
H1295 H 0.9192 0.45813 0.42299 0.0
C1296 C 0.58113 0.22574 0.72576 0.0
C1297 C 0.59193 0.22093 0.75449 0.0
C1298 C 0.58882 0.22568 0.68725 0.0
C1299 C 0.5978 0.21977 0.60505 0.0
H1300 H 0.65999 0.21598 0.57968 0.0
C1301 C 0.62524 0.20932 0.45098 0.0
C1302 C 0.64612 0.21205 0.43727 0.0
C1303 C 0.61884 0.21089 0.48956 0.0
C1304 C 0.64257 0.21717 0.58596 0.0
H1305 H 0.6196 0.21249 0.76571 0.0
H1306 H 0.63246 0.21214 0.69874 0.0
H1307 H 0.64946 0.21878 0.64654 0.0
H1308 H 0.67644 0.21876 0.45275 0.0
H1309 H 0.66495 0.22185 0.51891 0.0
H1310 H 0.59107 0.21856 0.54413 0.0
C1311 C 0.61847 0.21616 0.70576 0.0
C1312 C 0.63646 0.21864 0.62463 0.0
C1313 C 0.61104 0.21633 0.74432 0.0
C1314 C 0.66033 0.21648 0.46259 0.0
C1315 C 0.65377 0.2182 0.50075 0.0
C1316 C 0.60397 0.21846 0.56622 0.0
C1317 C 0.60722 0.2207 0.67651 0.0
C1318 C 0.61395 0.21984 0.63485 0.0
C1319 C 0.63302 0.21537 0.51496 0.0
C1320 C 0.62642 0.21703 0.55618 0.0
H1321 H 0.56642 0.22938 0.73285 0.0
H1322 H 0.58004 0.22943 0.6658 0.0
H1323 H 0.58025 0.22054 0.61168 0.0
H1324 H 0.61401 0.20586 0.4321 0.0
H1325 H 0.60291 0.20847 0.49953 0.0
C1326 C 0.62249 0.0809 0.46258 0.0
C1327 C 0.59948 0.08005 0.45561 0.0
C1328 C 0.63049 0.0818 0.50076 0.0
C1329 C 0.64359 0.07988 0.58679 0.0
H1330 H 0.60903 0.09458 0.65373 0.0
C1331 C 0.66591 0.08569 0.74943 0.0
C1332 C 0.66517 0.09415 0.76148 0.0
C1333 C 0.65728 0.08333 0.71309 0.0
C1334 C 0.61891 0.09048 0.63541 0.0
H1335 H 0.56697 0.079 0.48331 0.0
H1336 H 0.58088 0.08045 0.54939 0.0
H1337 H 0.59609 0.09168 0.58796 0.0
H1338 H 0.65429 0.10669 0.74519 0.0
H1339 H 0.63939 0.10259 0.68221 0.0
H1340 H 0.66679 0.07892 0.63419 0.0
C1341 C 0.59273 0.08066 0.52553 0.0
C1342 C 0.61137 0.08874 0.5978 0.0
C1343 C 0.58476 0.07981 0.48757 0.0
C1344 C 0.65514 0.10013 0.73689 0.0
C1345 C 0.64648 0.09777 0.70079 0.0
C1346 C 0.65115 0.08163 0.62457 0.0
C1347 C 0.61563 0.08183 0.5326 0.0
C1348 C 0.62365 0.08346 0.57293 0.0
C1349 C 0.6476 0.08936 0.68828 0.0
C1350 C 0.63898 0.08702 0.64914 0.0
H1351 H 0.63423 0.0811 0.43855 0.0
H1352 H 0.64822 0.08274 0.5052 0.0
H1353 H 0.65333 0.07573 0.56848 0.0
H1354 H 0.67354 0.08093 0.76767 0.0
H1355 H 0.65818 0.07679 0.70442 0.0
C1356 C 0.34158 0.81954 0.51905 0.0
C1357 C 0.34805 0.82677 0.53971 0.0
C1358 C 0.35249 0.81741 0.48424 0.0
C1359 C 0.3642 0.8205 0.39842 0.0
H1360 H 0.42628 0.82616 0.37907 0.0
C1361 C 0.41452 0.83983 0.2776 0.0
C1362 C 0.40909 0.83578 0.24251 0.0
C1363 C 0.41019 0.83593 0.31329 0.0
C1364 C 0.40898 0.82444 0.38402 0.0
H1365 H 0.37191 0.83702 0.54245 0.0
H1366 H 0.39092 0.83333 0.4825 0.0
H1367 H 0.41365 0.82353 0.44572 0.0
H1368 H 0.39508 0.82443 0.21716 0.0
H1369 H 0.38678 0.81772 0.28009 0.0
H1370 H 0.35939 0.82183 0.33677 0.0
C1371 C 0.37758 0.82926 0.49265 0.0
C1372 C 0.40174 0.82294 0.42211 0.0
C1373 C 0.36656 0.83143 0.52689 0.0
C1374 C 0.3994 0.8277 0.24381 0.0
C1375 C 0.39467 0.82386 0.27969 0.0
C1376 C 0.37151 0.82193 0.36021 0.0
C1377 C 0.3702 0.82242 0.47013 0.0
C1378 C 0.37903 0.82142 0.42993 0.0
C1379 C 0.40005 0.82795 0.31473 0.0
C1380 C 0.39371 0.82434 0.353 0.0
H1381 H 0.32726 0.81587 0.52836 0.0
H1382 H 0.34651 0.81208 0.46757 0.0
H1383 H 0.34658 0.81939 0.40342 0.0
H1384 H 0.42214 0.84602 0.27758 0.0
H1385 H 0.41417 0.83929 0.33989 0.0
C1386 C 0.41106 0.96366 0.50781 0.0
C1387 C 0.41352 0.95507 0.51679 0.0
C1388 C 0.40237 0.96616 0.47169 0.0
C1389 C 0.36971 0.95805 0.38775 0.0
H1390 H 0.39612 0.97689 0.33213 0.0
C1391 C 0.36963 0.9731 0.22238 0.0
C1392 C 0.34681 0.97214 0.21402 0.0
C1393 C 0.37768 0.97151 0.26004 0.0
C1394 C 0.38869 0.97157 0.34716 0.0
H1395 H 0.40858 0.94238 0.49495 0.0
H1396 H 0.39389 0.94671 0.43225 0.0
H1397 H 0.4101 0.9731 0.39671 0.0
H1398 H 0.31439 0.96922 0.239 0.0
H1399 H 0.32823 0.96663 0.30429 0.0
H1400 H 0.34893 0.95628 0.33793 0.0
C1401 C 0.39827 0.95154 0.45316 0.0
C1402 C 0.39648 0.96947 0.38442 0.0
C1403 C 0.40684 0.94905 0.48916 0.0
C1404 C 0.33215 0.96981 0.24421 0.0
C1405 C 0.34012 0.96832 0.28174 0.0
C1406 C 0.36204 0.96011 0.35056 0.0
C1407 C 0.39598 0.96011 0.44386 0.0
C1408 C 0.38715 0.96265 0.40505 0.0
C1409 C 0.36301 0.96901 0.29008 0.0
C1410 C 0.37141 0.96689 0.32974 0.0
H1411 H 0.41608 0.96846 0.52844 0.0
H1412 H 0.40058 0.97281 0.46564 0.0
H1413 H 0.36192 0.95283 0.40296 0.0
H1414 H 0.3813 0.97491 0.19969 0.0
H1415 H 0.39545 0.97204 0.26537 0.0
C1416 C 0.633 0.70361 0.98664 0.0
C1417 C 0.65028 0.70813 0.96837 0.0
C1418 C 0.6233 0.70659 0.02096 0.0
C1419 C 0.59962 0.71667 0.08508 0.0
H1420 H 0.64222 0.7197 0.16912 0.0
C1421 C 0.57285 0.72211 0.24566 0.0
C1422 C 0.58067 0.71552 0.26934 0.0
C1423 C 0.58191 0.72338 0.20841 0.0
C1424 C 0.63017 0.71902 0.14579 0.0
H1425 H 0.6705 0.71947 0.97114 0.0
H1426 H 0.6539 0.72456 0.03191 0.0
H1427 H 0.65563 0.71793 0.10216 0.0
H1428 H 0.60482 0.70545 0.27399 0.0
H1429 H 0.62114 0.70785 0.20965 0.0
H1430 H 0.5742 0.71748 0.12897 0.0
C1431 C 0.64777 0.71875 0.01928 0.0
C1432 C 0.63781 0.71803 0.10754 0.0
C1433 C 0.65719 0.71585 0.98449 0.0
C1434 C 0.5985 0.71056 0.25623 0.0
C1435 C 0.60789 0.71196 0.21954 0.0
C1436 C 0.59197 0.71781 0.12324 0.0
C1437 C 0.63093 0.71409 0.03806 0.0
C1438 C 0.62263 0.71658 0.07706 0.0
C1439 C 0.59931 0.71823 0.1949 0.0
C1440 C 0.60722 0.71872 0.15406 0.0
H1441 H 0.62727 0.69766 0.97481 0.0
H1442 H 0.61048 0.70284 0.03507 0.0
H1443 H 0.58761 0.71559 0.06201 0.0
H1444 H 0.55899 0.72598 0.25506 0.0
H1445 H 0.57502 0.72824 0.18982 0.0
C1446 C 0.58676 0.57457 0.96905 0.0
C1447 C 0.59946 0.57911 0.94169 0.0
C1448 C 0.59287 0.57443 0.00817 0.0
C1449 C 0.5992 0.58 0.09083 0.0
H1450 H 0.66065 0.58042 0.12592 0.0
C1451 C 0.62393 0.589 0.24783 0.0
C1452 C 0.64306 0.5853 0.26396 0.0
C1453 C 0.61795 0.58734 0.20921 0.0
C1454 C 0.64337 0.58017 0.11671 0.0
H1455 H 0.62888 0.58685 0.93334 0.0
H1456 H 0.63931 0.58687 0.00237 0.0
H1457 H 0.65265 0.57899 0.05671 0.0
H1458 H 0.67001 0.5765 0.25338 0.0
H1459 H 0.6591 0.57334 0.18674 0.0
H1460 H 0.58988 0.58094 0.15082 0.0
C1461 C 0.62484 0.58326 0.9934 0.0
C1462 C 0.63881 0.57949 0.0769 0.0
C1463 C 0.61889 0.58328 0.95392 0.0
C1464 C 0.65529 0.57951 0.24162 0.0
C1465 C 0.64916 0.57777 0.20327 0.0
C1466 C 0.60376 0.58059 0.13061 0.0
C1467 C 0.61162 0.57896 0.02109 0.0
C1468 C 0.61667 0.57944 0.06345 0.0
C1469 C 0.63082 0.58185 0.18619 0.0
C1470 C 0.62589 0.58075 0.14405 0.0
H1471 H 0.57187 0.57119 0.96029 0.0
H1472 H 0.58268 0.57084 0.02839 0.0
H1473 H 0.58193 0.58013 0.08154 0.0
H1474 H 0.61428 0.59353 0.26426 0.0
H1475 H 0.60384 0.59067 0.19695 0.0
C1476 C 0.37457 0.32756 0.03182 0.0
C1477 C 0.35328 0.32429 0.03994 0.0
C1478 C 0.38326 0.3272 0.99407 0.0
C1479 C 0.40157 0.32471 0.91318 0.0
H1480 H 0.35764 0.32866 0.83216 0.0
C1481 C 0.39951 0.33091 0.73687 0.0
C1482 C 0.41163 0.33849 0.73463 0.0
C1483 C 0.39349 0.32755 0.77314 0.0
C1484 C 0.37006 0.32744 0.85442 0.0
H1485 H 0.3252 0.31741 0.01596 0.0
H1486 H 0.34086 0.31635 0.9505 0.0
H1487 H 0.34526 0.32538 0.89805 0.0
H1488 H 0.42759 0.34834 0.76839 0.0
H1489 H 0.41754 0.34234 0.83173 0.0
H1490 H 0.42627 0.32744 0.86953 0.0
C1491 C 0.35049 0.31954 0.97275 0.0
C1492 C 0.36302 0.32549 0.89224 0.0
C1493 C 0.34159 0.32006 0.01037 0.0
C1494 C 0.41809 0.34253 0.76924 0.0
C1495 C 0.41253 0.33907 0.80543 0.0
C1496 C 0.40857 0.32684 0.87552 0.0
C1497 C 0.37105 0.32341 0.96368 0.0
C1498 C 0.37866 0.32428 0.92241 0.0
C1499 C 0.40001 0.3316 0.80766 0.0
C1500 C 0.39284 0.32836 0.84608 0.0
H1501 H 0.3839 0.33093 0.05395 0.0
H1502 H 0.39897 0.33037 0.98843 0.0
H1503 H 0.41415 0.32362 0.93525 0.0
H1504 H 0.39434 0.32767 0.7106 0.0
H1505 H 0.38379 0.32179 0.77428 0.0
C1506 C 0.41021 0.46425 0.01581 0.0
C1507 C 0.43247 0.46698 0.0167 0.0
C1508 C 0.39715 0.46561 0.98252 0.0
C1509 C 0.40444 0.46998 0.87633 0.0
H1510 H 0.33977 0.47071 0.87819 0.0
C1511 C 0.34913 0.47239 0.7371 0.0
C1512 C 0.33369 0.46574 0.73427 0.0
C1513 C 0.36071 0.4738 0.77201 0.0
C1514 C 0.35785 0.47056 0.87735 0.0
H1515 H 0.45812 0.47383 0.98537 0.0
H1516 H 0.43511 0.47668 0.92842 0.0
H1517 H 0.3605 0.47141 0.9394 0.0
H1518 H 0.31783 0.45551 0.76605 0.0
H1519 H 0.33764 0.4581 0.82691 0.0
H1520 H 0.40159 0.46922 0.8141 0.0
C1521 C 0.42787 0.47312 0.95227 0.0
C1522 C 0.36976 0.47089 0.9124 0.0
C1523 C 0.44103 0.47158 0.98506 0.0
C1524 C 0.32976 0.46064 0.76714 0.0
C1525 C 0.34093 0.46216 0.80212 0.0
C1526 C 0.39253 0.46982 0.84132 0.0
C1527 C 0.40601 0.46989 0.94983 0.0
C1528 C 0.39324 0.47042 0.91248 0.0
C1529 C 0.35658 0.46871 0.80484 0.0
C1530 C 0.36914 0.46993 0.84157 0.0
H1531 H 0.40333 0.46063 0.03983 0.0
H1532 H 0.38053 0.46293 0.98181 0.0
H1533 H 0.42242 0.46941 0.87492 0.0
H1534 H 0.35243 0.47644 0.71226 0.0
H1535 H 0.37275 0.47889 0.77348 0.0
C1536 C 0.79665 0.21671 0.41635 0.0
C1537 C 0.78394 0.20934 0.41211 0.0
C1538 C 0.8198 0.21646 0.4123 0.0
C1539 C 0.86003 0.20426 0.3564 0.0
H1540 H 0.90282 0.21947 0.40371 0.0
C1541 C 0.95502 0.20522 0.32335 0.0
C1542 C 0.9656 0.21312 0.32545 0.0
C1543 C 0.93213 0.20449 0.33035 0.0
C1544 C 0.89095 0.21527 0.38989 0.0
H1545 H 0.78522 0.19585 0.40416 0.0
H1546 H 0.82593 0.19534 0.398 0.0
H1547 H 0.86573 0.21798 0.43222 0.0
H1548 H 0.96019 0.22653 0.33189 0.0
H1549 H 0.92012 0.22527 0.34308 0.0
H1550 H 0.88536 0.20157 0.31404 0.0
C1551 C 0.818 0.20133 0.40379 0.0
C1552 C 0.86979 0.21437 0.40643 0.0
C1553 C 0.79479 0.20159 0.40798 0.0
C1554 C 0.95249 0.22036 0.32991 0.0
C1555 C 0.92962 0.21963 0.33702 0.0
C1556 C 0.88127 0.20514 0.33995 0.0
C1557 C 0.83057 0.20883 0.40376 0.0
C1558 C 0.85398 0.20894 0.38959 0.0
C1559 C 0.91951 0.21165 0.33953 0.0
C1560 C 0.8968 0.21075 0.35619 0.0
H1561 H 0.78851 0.22276 0.41906 0.0
H1562 H 0.82892 0.22235 0.41231 0.0
H1563 H 0.84809 0.20015 0.34224 0.0
H1564 H 0.9648 0.19954 0.31983 0.0
H1565 H 0.92476 0.19826 0.33185 0.0
C1566 C 0.44526 0.08275 0.45839 0.0
C1567 C 0.46347 0.08823 0.45344 0.0
C1568 C 0.42355 0.0859 0.4595 0.0
C1569 C 0.39343 0.10281 0.41376 0.0
H1570 H 0.34286 0.09366 0.47052 0.0
C1571 C 0.3042 0.10053 0.35153 0.0
C1572 C 0.28629 0.10209 0.37695 0.0
C1573 C 0.32614 0.10063 0.36545 0.0
C1574 C 0.35682 0.09638 0.45477 0.0
H1575 H 0.47354 0.10132 0.44908 0.0
H1576 H 0.43551 0.10683 0.45109 0.0
H1577 H 0.38073 0.09056 0.4926 0.0
H1578 H 0.27739 0.10513 0.43673 0.0
H1579 H 0.31559 0.10538 0.46069 0.0
H1580 H 0.36954 0.10834 0.37501 0.0
C1581 C 0.43805 0.10011 0.45395 0.0
C1582 C 0.37846 0.09457 0.46732 0.0
C1583 C 0.45978 0.09696 0.45322 0.0
C1584 C 0.29082 0.10404 0.41618 0.0
C1585 C 0.31267 0.10409 0.43009 0.0
C1586 C 0.3718 0.10455 0.401 0.0
C1587 C 0.41972 0.09458 0.4553 0.0
C1588 C 0.39696 0.09762 0.44645 0.0
C1589 C 0.3305 0.10221 0.40509 0.0
C1590 C 0.35332 0.10121 0.42091 0.0
H1591 H 0.44774 0.07599 0.45864 0.0
H1592 H 0.40975 0.08148 0.46041 0.0
H1593 H 0.40739 0.10516 0.39679 0.0
H1594 H 0.3012 0.09902 0.32119 0.0
H1595 H 0.33959 0.09909 0.34559 0.0
C1596 C 0.8131 0.09666 0.80818 0.0
C1597 C 0.79446 0.1014 0.81928 0.0
C1598 C 0.83447 0.0992 0.81948 0.0
C1599 C 0.85832 0.10725 0.90523 0.0
H1600 H 0.91438 0.10594 0.84905 0.0
C1601 C 0.95913 0.10219 0.92958 0.0
C1602 C 0.95838 0.09395 0.94451 0.0
C1603 C 0.9394 0.10637 0.91998 0.0
C1604 C 0.89889 0.10652 0.86516 0.0
H1605 H 0.78328 0.1127 0.84848 0.0
H1606 H 0.82073 0.11703 0.86917 0.0
H1607 H 0.87946 0.10755 0.81283 0.0
H1608 H 0.93674 0.08395 0.96493 0.0
H1609 H 0.90214 0.09138 0.94955 0.0
H1610 H 0.87755 0.1054 0.9573 0.0
C1611 C 0.81887 0.11149 0.85109 0.0
C1612 C 0.87897 0.10741 0.84441 0.0
C1613 C 0.79755 0.10905 0.83902 0.0
C1614 C 0.93766 0.09033 0.95383 0.0
C1615 C 0.91793 0.09458 0.94497 0.0
C1616 C 0.87819 0.10618 0.92592 0.0
C1617 C 0.83734 0.10639 0.84282 0.0
C1618 C 0.8585 0.10752 0.86424 0.0
C1619 C 0.9187 0.10243 0.92596 0.0
C1620 C 0.89854 0.10555 0.90593 0.0
H1621 H 0.81096 0.09067 0.79361 0.0
H1622 H 0.84847 0.09511 0.81314 0.0
H1623 H 0.84266 0.10721 0.92111 0.0
H1624 H 0.97493 0.10506 0.92156 0.0
H1625 H 0.94036 0.11241 0.90531 0.0
C1626 C 0.44557 0.20234 0.7513 0.0
C1627 C 0.45532 0.21036 0.75429 0.0
C1628 C 0.42245 0.2014 0.75359 0.0
C1629 C 0.36821 0.21247 0.75962 0.0
H1630 H 0.3581 0.19734 0.84699 0.0
C1631 C 0.28102 0.20576 0.82576 0.0
C1632 C 0.27958 0.20624 0.86664 0.0
C1633 C 0.30172 0.20596 0.80715 0.0
C1634 C 0.36068 0.20158 0.82259 0.0
H1635 H 0.44863 0.22374 0.75691 0.0
H1636 H 0.40818 0.22211 0.76057 0.0
H1637 H 0.39486 0.19803 0.81667 0.0
H1638 H 0.29853 0.20737 0.92013 0.0
H1639 H 0.335 0.20761 0.88748 0.0
H1640 H 0.334 0.21615 0.7664 0.0
C1641 C 0.41834 0.21655 0.75661 0.0
C1642 C 0.3816 0.20189 0.80483 0.0
C1643 C 0.44151 0.21749 0.75433 0.0
C1644 C 0.29924 0.20695 0.88862 0.0
C1645 C 0.32002 0.20705 0.86997 0.0
C1646 C 0.34713 0.21209 0.77716 0.0
C1647 C 0.40877 0.20847 0.75882 0.0
C1648 C 0.38568 0.20742 0.77351 0.0
C1649 C 0.3214 0.20658 0.82906 0.0
C1650 C 0.34333 0.20673 0.80922 0.0
H1651 H 0.45592 0.19676 0.7509 0.0
H1652 H 0.41542 0.19511 0.7544 0.0
H1653 H 0.37095 0.21681 0.73566 0.0
H1654 H 0.26608 0.20536 0.80807 0.0
H1655 H 0.30234 0.20556 0.77563 0.0
C1656 C 0.21544 0.85239 0.56281 0.0
C1657 C 0.2258 0.84477 0.5527 0.0
C1658 C 0.19218 0.85296 0.56375 0.0
C1659 C 0.14763 0.83849 0.58785 0.0
H1660 H 0.10893 0.85778 0.57429 0.0
C1661 C 0.05515 0.83773 0.63314 0.0
C1662 C 0.04597 0.84505 0.64942 0.0
C1663 C 0.07665 0.83782 0.61753 0.0
C1664 C 0.11962 0.85237 0.5786 0.0
H1665 H 0.22003 0.83218 0.53039 0.0
H1666 H 0.17953 0.83326 0.53099 0.0
H1667 H 0.14657 0.85802 0.54651 0.0
H1668 H 0.05238 0.85813 0.6634 0.0
H1669 H 0.09033 0.85824 0.63705 0.0
H1670 H 0.12126 0.83294 0.62107 0.0
C1671 C 0.18936 0.83872 0.5392 0.0
C1672 C 0.14107 0.85249 0.56239 0.0
C1673 C 0.21259 0.83814 0.53835 0.0
C1674 C 0.05904 0.85241 0.65094 0.0
C1675 C 0.08065 0.85248 0.6355 0.0
C1676 C 0.12633 0.83839 0.60421 0.0
C1677 C 0.17898 0.84592 0.55442 0.0
C1678 C 0.15533 0.84556 0.56706 0.0
C1679 C 0.08955 0.84522 0.61803 0.0
C1680 C 0.11212 0.84535 0.60005 0.0
H1681 H 0.22526 0.85763 0.57353 0.0
H1682 H 0.18467 0.85862 0.57538 0.0
H1683 H 0.15841 0.83314 0.59292 0.0
H1684 H 0.04531 0.83202 0.63067 0.0
H1685 H 0.08284 0.83215 0.60384 0.0
C1686 C 0.56029 0.95413 0.56037 0.0
C1687 C 0.54265 0.94929 0.57531 0.0
C1688 C 0.58232 0.95202 0.56936 0.0
C1689 C 0.62839 0.94433 0.58888 0.0
H1690 H 0.63334 0.94735 0.70094 0.0
C1691 C 0.71321 0.94926 0.66046 0.0
C1692 C 0.71415 0.9576 0.67388 0.0
C1693 C 0.69262 0.94534 0.65434 0.0
C1694 C 0.63218 0.9463 0.66979 0.0
H1695 H 0.53377 0.9383 0.6094 0.0
H1696 H 0.5724 0.93471 0.62592 0.0
H1697 H 0.59653 0.94533 0.67126 0.0
H1698 H 0.69474 0.96811 0.69501 0.0
H1699 H 0.65865 0.96114 0.68574 0.0
H1700 H 0.66395 0.94568 0.5872 0.0
C1701 C 0.56925 0.93999 0.60667 0.0
C1702 C 0.61122 0.94512 0.65283 0.0
C1703 C 0.54726 0.942 0.59701 0.0
C1704 C 0.69437 0.96165 0.68502 0.0
C1705 C 0.67379 0.95766 0.67967 0.0
C1706 C 0.64939 0.94533 0.60593 0.0
C1707 C 0.58685 0.94518 0.59416 0.0
C1708 C 0.60912 0.94444 0.61211 0.0
C1709 C 0.67276 0.94966 0.66235 0.0
C1710 C 0.65135 0.94664 0.64633 0.0
H1711 H 0.55696 0.95987 0.5443 0.0
H1712 H 0.59565 0.95616 0.55978 0.0
H1713 H 0.6271 0.94387 0.55743 0.0
H1714 H 0.72826 0.94607 0.6511 0.0
H1715 H 0.69216 0.93917 0.64091 0.0
C1716 C 0.04018 0.94564 0.15328 0.0
C1717 C 0.03642 0.94759 0.11377 0.0
C1718 C 0.06177 0.94556 0.16839 0.0
C1719 C 0.1214 0.94513 0.14194 0.0
H1720 H 0.12914 0.95887 0.23446 0.0
C1721 C 0.20872 0.95319 0.19618 0.0
C1722 C 0.21205 0.96194 0.19777 0.0
C1723 C 0.18713 0.94986 0.19612 0.0
C1724 C 0.1272 0.95493 0.20891 0.0
H1725 H 0.05241 0.95065 0.05882 0.0
H1726 H 0.0903 0.95057 0.08534 0.0
H1727 H 0.09158 0.95572 0.21092 0.0
H1728 H 0.19575 0.974 0.20461 0.0
H1729 H 0.15801 0.96819 0.20459 0.0
H1730 H 0.15701 0.94469 0.13878 0.0
C1731 C 0.07647 0.94903 0.10449 0.0
C1732 C 0.10573 0.95309 0.19554 0.0
C1733 C 0.05481 0.94915 0.08936 0.0
C1734 C 0.19357 0.96723 0.2031 0.0
C1735 C 0.172 0.9639 0.2033 0.0
C1736 C 0.14286 0.94692 0.15545 0.0
C1737 C 0.08009 0.94742 0.14434 0.0
C1738 C 0.10266 0.94837 0.1613 0.0
C1739 C 0.16856 0.95522 0.19793 0.0
C1740 C 0.14597 0.95204 0.18843 0.0
H1741 H 0.02635 0.94454 0.17305 0.0
H1742 H 0.0641 0.94425 0.19913 0.0
H1743 H 0.11948 0.9414 0.11571 0.0
H1744 H 0.22268 0.94897 0.19181 0.0
H1745 H 0.18492 0.94313 0.1924 0.0
C1746 C 0.53201 0.85187 0.15519 0.0
C1747 C 0.51619 0.85095 0.12522 0.0
C1748 C 0.55481 0.85093 0.14728 0.0
C1749 C 0.59067 0.8396 0.07948 0.0
H1750 H 0.63863 0.85289 0.12405 0.0
C1751 C 0.6807 0.82774 0.09689 0.0
C1752 C 0.69818 0.83342 0.08931 0.0
C1753 C 0.65857 0.83042 0.0953 0.0
C1754 C 0.62538 0.84919 0.11102 0.0
H1755 H 0.51212 0.84854 0.06317 0.0
H1756 H 0.55158 0.84716 0.04954 0.0
H1757 H 0.59983 0.8572 0.13412 0.0
H1758 H 0.70636 0.84624 0.07281 0.0
H1759 H 0.6675 0.85094 0.07008 0.0
H1760 H 0.61609 0.8315 0.05704 0.0
C1761 C 0.5464 0.84854 0.07913 0.0
C1762 C 0.60323 0.85161 0.11712 0.0
C1763 C 0.52375 0.84946 0.08696 0.0
C1764 C 0.69314 0.84172 0.07838 0.0
C1765 C 0.67098 0.84444 0.07725 0.0
C1766 C 0.61274 0.83715 0.07367 0.0
C1767 C 0.5621 0.84902 0.10932 0.0
C1768 C 0.58567 0.8468 0.1016 0.0
C1769 C 0.65355 0.83885 0.08653 0.0
C1770 C 0.6303 0.84187 0.08969 0.0
H1771 H 0.52672 0.85304 0.1849 0.0
H1772 H 0.5666 0.85131 0.17115 0.0
H1773 H 0.57746 0.83571 0.06755 0.0
H1774 H 0.68422 0.82131 0.10539 0.0
H1775 H 0.64545 0.826 0.10281 0.0
C1776 C 0.78747 0.69256 0.92549 0.0
C1777 C 0.78246 0.70042 0.94192 0.0
C1778 C 0.80962 0.69037 0.91797 0.0
C1779 C 0.86867 0.69574 0.93187 0.0
H1780 H 0.87232 0.6962 0.81876 0.0
C1781 C 0.93287 0.71113 0.82377 0.0
C1782 C 0.95291 0.7071 0.8334 0.0
C1783 C 0.91244 0.70744 0.83371 0.0
C1784 C 0.87154 0.69588 0.8503 0.0
H1785 H 0.79628 0.71177 0.96694 0.0
H1786 H 0.83516 0.70778 0.95547 0.0
H1787 H 0.83602 0.69438 0.85062 0.0
H1788 H 0.9676 0.69597 0.8593 0.0
H1789 H 0.93176 0.68961 0.87769 0.0
H1790 H 0.90413 0.69759 0.93144 0.0
C1791 C 0.82204 0.70335 0.94816 0.0
C1792 C 0.85088 0.6948 0.86854 0.0
C1793 C 0.79987 0.70562 0.9549 0.0
C1794 C 0.95227 0.6991 0.85095 0.0
C1795 C 0.93187 0.69551 0.86172 0.0
C1796 C 0.88942 0.69663 0.91361 0.0
C1797 C 0.82697 0.69594 0.92755 0.0
C1798 C 0.84919 0.69502 0.90943 0.0
C1799 C 0.91188 0.69978 0.85425 0.0
C1800 C 0.89086 0.69701 0.87273 0.0
H1801 H 0.77423 0.68854 0.9146 0.0
H1802 H 0.81309 0.68464 0.90199 0.0
H1803 H 0.8677 0.69601 0.9634 0.0
H1804 H 0.93306 0.71736 0.81081 0.0
H1805 H 0.89718 0.71087 0.82804 0.0
C1806 C 0.4479 0.5848 0.94933 0.0
C1807 C 0.46669 0.58979 0.94122 0.0
C1808 C 0.42669 0.58839 0.94996 0.0
C1809 C 0.39873 0.60448 0.89599 0.0
H1810 H 0.34732 0.59772 0.95736 0.0
C1811 C 0.30943 0.60095 0.83534 0.0
C1812 C 0.29165 0.60342 0.85942 0.0
C1813 C 0.33141 0.60142 0.84892 0.0
C1814 C 0.36154 0.59978 0.94024 0.0
H1815 H 0.4785 0.60252 0.93101 0.0
H1816 H 0.44133 0.60881 0.93197 0.0
H1817 H 0.38484 0.5948 0.9816 0.0
H1818 H 0.2831 0.6085 0.91637 0.0
H1819 H 0.32127 0.60942 0.93948 0.0
H1820 H 0.37541 0.60909 0.85373 0.0
C1821 C 0.44301 0.60214 0.93779 0.0
C1822 C 0.38295 0.59809 0.95409 0.0
C1823 C 0.46424 0.59855 0.93761 0.0
C1824 C 0.29638 0.60669 0.89667 0.0
C1825 C 0.31824 0.60713 0.91021 0.0
C1826 C 0.37731 0.6061 0.88195 0.0
C1827 C 0.42402 0.59702 0.94205 0.0
C1828 C 0.40171 0.60024 0.93164 0.0
C1829 C 0.33589 0.60431 0.8869 0.0
C1830 C 0.35854 0.60359 0.90355 0.0
H1831 H 0.44946 0.57803 0.95219 0.0
H1832 H 0.41231 0.5843 0.95316 0.0
H1833 H 0.41293 0.60611 0.87784 0.0
H1834 H 0.30629 0.59842 0.80654 0.0
H1835 H 0.34477 0.59915 0.83047 0.0
C1836 C 0.93705 0.57254 0.37316 0.0
C1837 C 0.95149 0.57903 0.38493 0.0
C1838 C 0.91554 0.57439 0.36031 0.0
C1839 C 0.88573 0.59144 0.31214 0.0
H1840 H 0.83316 0.57801 0.33475 0.0
C1841 C 0.79551 0.60086 0.27331 0.0
C1842 C 0.77968 0.59438 0.26886 0.0
C1843 C 0.81789 0.59894 0.28026 0.0
C1844 C 0.84779 0.58172 0.32744 0.0
H1845 H 0.95451 0.59244 0.39499 0.0
H1846 H 0.91666 0.59569 0.37293 0.0
H1847 H 0.86805 0.5749 0.36792 0.0
H1848 H 0.77557 0.58085 0.26234 0.0
H1849 H 0.81463 0.57757 0.27238 0.0
H1850 H 0.86543 0.59826 0.27161 0.0
C1851 C 0.92209 0.58919 0.37324 0.0
C1852 C 0.8677 0.57998 0.34679 0.0
C1853 C 0.94357 0.58732 0.3864 0.0
C1854 C 0.78721 0.58603 0.26579 0.0
C1855 C 0.8096 0.58412 0.27228 0.0
C1856 C 0.8658 0.59316 0.2926 0.0
C1857 C 0.90819 0.58278 0.35879 0.0
C1858 C 0.88683 0.58484 0.33946 0.0
C1859 C 0.82482 0.5905 0.28226 0.0
C1860 C 0.84659 0.58832 0.30009 0.0
H1861 H 0.94288 0.5661 0.3717 0.0
H1862 H 0.9052 0.56933 0.34929 0.0
H1863 H 0.90038 0.59518 0.3054 0.0
H1864 H 0.79028 0.60737 0.27493 0.0
H1865 H 0.82924 0.60402 0.28743 0.0
C1866 C 0.30086 0.70403 0.46206 0.0
C1867 C 0.28363 0.69865 0.44994 0.0
C1868 C 0.32307 0.702 0.45406 0.0
C1869 C 0.35081 0.69378 0.37242 0.0
H1870 H 0.40525 0.69725 0.4314 0.0
C1871 C 0.45135 0.6989 0.3468 0.0
C1872 C 0.45117 0.70686 0.3289 0.0
C1873 C 0.43143 0.69521 0.3595 0.0
C1874 C 0.39021 0.69611 0.41467 0.0
H1875 H 0.27581 0.6867 0.42302 0.0
H1876 H 0.3147 0.68322 0.40828 0.0
H1877 H 0.36972 0.69529 0.46598 0.0
H1878 H 0.43029 0.71698 0.30782 0.0
H1879 H 0.39519 0.71032 0.3284 0.0
H1880 H 0.37096 0.69537 0.32114 0.0
C1881 C 0.3111 0.6889 0.42452 0.0
C1882 C 0.36998 0.69501 0.43442 0.0
C1883 C 0.28894 0.69085 0.43326 0.0
C1884 C 0.43071 0.71077 0.321 0.0
C1885 C 0.41074 0.70698 0.33285 0.0
C1886 C 0.37094 0.69508 0.35271 0.0
C1887 C 0.32819 0.69467 0.43307 0.0
C1888 C 0.35006 0.69403 0.4134 0.0
C1889 C 0.41107 0.69935 0.35363 0.0
C1890 C 0.39068 0.69644 0.37371 0.0
H1891 H 0.29703 0.71015 0.47423 0.0
H1892 H 0.33597 0.70658 0.46062 0.0
H1893 H 0.33559 0.69317 0.35558 0.0
H1894 H 0.46702 0.69586 0.35386 0.0
H1895 H 0.43201 0.68934 0.37561 0.0
C1896 C 0.20668 0.33252 0.03564 0.0
C1897 C 0.21821 0.34022 0.03335 0.0
C1898 C 0.18391 0.33236 0.0442 0.0
C1899 C 0.13318 0.34535 0.05942 0.0
H1900 H 0.12393 0.32994 0.14598 0.0
C1901 C 0.05269 0.34618 0.15092 0.0
C1902 C 0.04229 0.3383 0.15498 0.0
C1903 C 0.07487 0.3467 0.13836 0.0
C1904 C 0.1262 0.33425 0.12175 0.0
H1905 H 0.21432 0.35378 0.03232 0.0
H1906 H 0.1746 0.35351 0.04783 0.0
H1907 H 0.15945 0.32998 0.11156 0.0
H1908 H 0.04706 0.32482 0.15214 0.0
H1909 H 0.08581 0.32568 0.13082 0.0
H1910 H 0.09983 0.34962 0.06986 0.0
C1911 C 0.18314 0.34759 0.0434 0.0
C1912 C 0.14647 0.33422 0.10176 0.0
C1913 C 0.20592 0.34775 0.03457 0.0
C1914 C 0.05485 0.33096 0.14946 0.0
C1915 C 0.077 0.33147 0.13718 0.0
C1916 C 0.11284 0.34537 0.07947 0.0
C1917 C 0.17228 0.3399 0.05073 0.0
C1918 C 0.15016 0.33973 0.0702 0.0
C1919 C 0.08696 0.33934 0.12998 0.0
C1920 C 0.10911 0.33979 0.11074 0.0
H1921 H 0.21555 0.32659 0.0349 0.0
H1922 H 0.17579 0.32633 0.04855 0.0
H1923 H 0.13554 0.34966 0.03525 0.0
H1924 H 0.0432 0.35192 0.15458 0.0
H1925 H 0.08226 0.35285 0.13364 0.0
C1926 C 0.56694 0.4521 0.13698 0.0
C1927 C 0.55438 0.45947 0.13157 0.0
C1928 C 0.58793 0.45245 0.1545 0.0
C1929 C 0.62206 0.46623 0.21851 0.0
H1930 H 0.66955 0.45108 0.1881 0.0
C1931 C 0.71629 0.47057 0.24583 0.0
C1932 C 0.72925 0.46325 0.2491 0.0
C1933 C 0.69306 0.46998 0.24323 0.0
C1934 C 0.65628 0.45524 0.19752 0.0
H1935 H 0.55465 0.47305 0.13834 0.0
H1936 H 0.5918 0.47371 0.16683 0.0
H1937 H 0.63411 0.45055 0.15397 0.0
H1938 H 0.72813 0.44978 0.2588 0.0
H1939 H 0.68752 0.44875 0.25441 0.0
H1940 H 0.64497 0.47118 0.26085 0.0
C1941 C 0.58506 0.46762 0.15884 0.0
C1942 C 0.63596 0.45495 0.17781 0.0
C1943 C 0.56394 0.46726 0.14169 0.0
C1944 C 0.71849 0.4555 0.25571 0.0
C1945 C 0.6953 0.45491 0.25295 0.0
C1946 C 0.64257 0.46658 0.23794 0.0
C1947 C 0.59703 0.46019 0.16653 0.0
C1948 C 0.61862 0.46048 0.18784 0.0
C1949 C 0.68259 0.46206 0.2439 0.0
C1950 C 0.65989 0.4611 0.22749 0.0
H1951 H 0.56014 0.44601 0.12912 0.0
H1952 H 0.59658 0.44659 0.16003 0.0
H1953 H 0.60892 0.47047 0.22757 0.0
H1954 H 0.72411 0.47663 0.24054 0.0
H1955 H 0.68365 0.47561 0.23639 0.0
C1956 C 0.02967 0.45036 0.67087 0.0
C1957 C 0.02254 0.44868 0.63253 0.0
C1958 C 0.05213 0.45165 0.67917 0.0
C1959 C 0.10946 0.44914 0.6429 0.0
H1960 H 0.12082 0.46877 0.70724 0.0
C1961 C 0.19835 0.45852 0.69062 0.0
C1962 C 0.20389 0.46696 0.6831 0.0
C1963 C 0.17613 0.45585 0.68899 0.0
C1964 C 0.11791 0.46327 0.68931 0.0
H1965 H 0.03374 0.44678 0.57305 0.0
H1966 H 0.07332 0.44919 0.58761 0.0
H1967 H 0.08251 0.46462 0.69304 0.0
H1968 H 0.19061 0.47934 0.67046 0.0
H1969 H 0.15176 0.47471 0.66798 0.0
H1970 H 0.14499 0.44795 0.63843 0.0
C1971 C 0.06131 0.44939 0.61121 0.0
C1972 C 0.09599 0.46085 0.68139 0.0
C1973 C 0.03867 0.44807 0.60283 0.0
C1974 C 0.18674 0.47279 0.67631 0.0
C1975 C 0.16454 0.47014 0.675 0.0
C1976 C 0.13145 0.45154 0.65101 0.0
C1977 C 0.06813 0.4514 0.64935 0.0
C1978 C 0.09153 0.45378 0.65799 0.0
C1979 C 0.15908 0.4616 0.6802 0.0
C1980 C 0.13586 0.45868 0.67405 0.0
H1981 H 0.01781 0.45109 0.69447 0.0
H1982 H 0.05692 0.45308 0.7089 0.0
H1983 H 0.10649 0.44365 0.62496 0.0
H1984 H 0.21129 0.45388 0.6955 0.0
H1985 H 0.17233 0.44925 0.69359 0.0
C1986 C 0.52873 0.35199 0.57731 0.0
C1987 C 0.52158 0.35253 0.61641 0.0
C1988 C 0.55129 0.35153 0.56803 0.0
C1989 C 0.60876 0.35365 0.60726 0.0
H1990 H 0.62172 0.33714 0.52715 0.0
C1991 C 0.69923 0.3455 0.56571 0.0
C1992 C 0.70368 0.33682 0.56468 0.0
C1993 C 0.67722 0.3484 0.56559 0.0
C1994 C 0.61841 0.34177 0.54955 0.0
H1995 H 0.53309 0.35334 0.67628 0.0
H1996 H 0.57268 0.35211 0.66006 0.0
H1997 H 0.58323 0.34046 0.5426 0.0
H1998 H 0.6888 0.32443 0.55961 0.0
H1999 H 0.65048 0.32944 0.55979 0.0
H2000 H 0.64408 0.35457 0.6156 0.0
C2001 C 0.56061 0.35225 0.63657 0.0
C2002 C 0.59631 0.34376 0.55815 0.0
C2003 C 0.53788 0.35285 0.64592 0.0
C2004 C 0.68582 0.33115 0.56066 0.0
C2005 C 0.66386 0.33404 0.56055 0.0
C2006 C 0.63094 0.35161 0.59878 0.0
C2007 C 0.56749 0.35137 0.5975 0.0
C2008 C 0.59117 0.34966 0.58736 0.0
C2009 C 0.6593 0.34268 0.56435 0.0
C2010 C 0.63598 0.34555 0.57021 0.0
H2011 H 0.51695 0.3515 0.55352 0.0
H2012 H 0.55599 0.35104 0.5376 0.0
H2013 H 0.60539 0.35828 0.62962 0.0
H2014 H 0.71267 0.35002 0.56915 0.0
H2015 H 0.67423 0.3551 0.56789 0.0
C2016 C 0.09479 0.18604 0.44239 0.0
C2017 C 0.08206 0.18803 0.40925 0.0
C2018 C 0.10059 0.17763 0.45031 0.0
C2019 C 0.08622 0.15547 0.42399 0.0
H2020 H 0.14919 0.15096 0.43917 0.0
C2021 C 0.12808 0.12546 0.36919 0.0
C2022 C 0.14535 0.12169 0.39062 0.0
C2023 C 0.11835 0.13295 0.38171 0.0
C2024 C 0.13147 0.15209 0.43579 0.0
H2025 H 0.06437 0.18283 0.35984 0.0
H2026 H 0.07414 0.16829 0.37356 0.0
H2027 H 0.13546 0.16542 0.44331 0.0
H2028 H 0.16561 0.12269 0.44259 0.0
H2029 H 0.14867 0.13597 0.46463 0.0
H2030 H 0.08234 0.14223 0.41472 0.0
C2031 C 0.07978 0.17312 0.39355 0.0
C2032 C 0.12359 0.16038 0.43818 0.0
C2033 C 0.0743 0.18146 0.38544 0.0
C2034 C 0.15218 0.12544 0.42576 0.0
C2035 C 0.14263 0.13306 0.43811 0.0
C2036 C 0.09407 0.14721 0.42154 0.0
C2037 C 0.09336 0.17108 0.42561 0.0
C2038 C 0.101 0.16221 0.43087 0.0
C2039 C 0.12579 0.13696 0.41587 0.0
C2040 C 0.11692 0.14545 0.426 0.0
H2041 H 0.10104 0.19101 0.46103 0.0
H2042 H 0.11099 0.17626 0.47534 0.0
H2043 H 0.06863 0.15663 0.41901 0.0
H2044 H 0.12251 0.12269 0.34204 0.0
H2045 H 0.10565 0.13581 0.36357 0.0
C2046 C 0.08182 0.11537 0.88577 0.0
C2047 C 0.06188 0.11461 0.86438 0.0
C2048 C 0.09302 0.12313 0.88828 0.0
C2049 C 0.0963 0.1446 0.84263 0.0
H2050 H 0.12405 0.15044 0.94099 0.0
C2051 C 0.13032 0.1783 0.88131 0.0
C2052 C 0.15068 0.17851 0.90175 0.0
C2053 C 0.11957 0.17057 0.87384 0.0
C2054 C 0.11654 0.14889 0.91317 0.0
H2055 H 0.03873 0.12151 0.82758 0.0
H2056 H 0.05762 0.13495 0.83313 0.0
H2057 H 0.1057 0.13686 0.93397 0.0
H2058 H 0.17646 0.17069 0.92742 0.0
H2059 H 0.15781 0.1574 0.91483 0.0
H2060 H 0.10693 0.15678 0.8223 0.0
C2061 C 0.06486 0.12955 0.84766 0.0
C2062 C 0.10607 0.14106 0.90906 0.0
C2063 C 0.05377 0.1218 0.84497 0.0
C2064 C 0.16048 0.17081 0.91272 0.0
C2065 C 0.14978 0.16316 0.90546 0.0
C2066 C 0.10665 0.15249 0.84689 0.0
C2067 C 0.08457 0.13036 0.86959 0.0
C2068 C 0.09589 0.13875 0.87367 0.0
C2069 C 0.12896 0.16292 0.88674 0.0
C2070 C 0.11707 0.1547 0.88214 0.0
H2071 H 0.08864 0.11002 0.90124 0.0
H2072 H 0.10835 0.12343 0.90492 0.0
H2073 H 0.08893 0.14305 0.81474 0.0
H2074 H 0.12234 0.1841 0.87247 0.0
H2075 H 0.10353 0.1706 0.85925 0.0
C2076 C 0.89628 0.8745 0.61709 0.0
C2077 C 0.91408 0.87422 0.64379 0.0
C2078 C 0.88559 0.88216 0.60855 0.0
C2079 C 0.87675 0.90343 0.65081 0.0
H2080 H 0.85652 0.90938 0.54709 0.0
C2081 C 0.84019 0.93638 0.61712 0.0
C2082 C 0.82149 0.93673 0.59237 0.0
C2083 C 0.85226 0.92888 0.62162 0.0
C2084 C 0.86186 0.90779 0.57635 0.0
H2085 H 0.93549 0.88191 0.68033 0.0
H2086 H 0.91709 0.89513 0.66553 0.0
H2087 H 0.87564 0.89601 0.55767 0.0
H2088 H 0.80152 0.92944 0.55178 0.0
H2089 H 0.82208 0.91642 0.56027 0.0
H2090 H 0.86285 0.91513 0.66969 0.0
C2091 C 0.91087 0.88943 0.65197 0.0
C2092 C 0.87283 0.9001 0.58239 0.0
C2093 C 0.92147 0.88183 0.66046 0.0
C2094 C 0.81556 0.92942 0.57159 0.0
C2095 C 0.82759 0.92194 0.57608 0.0
C2096 C 0.86577 0.91109 0.6448 0.0
C2097 C 0.89252 0.88971 0.62649 0.0
C2098 C 0.8805 0.89783 0.61971 0.0
C2099 C 0.846 0.92152 0.60143 0.0
C2100 C 0.85817 0.9134 0.60749 0.0
H2101 H 0.89012 0.86877 0.60384 0.0
H2102 H 0.87146 0.88212 0.58887 0.0
H2103 H 0.88201 0.90183 0.68012 0.0
H2104 H 0.84525 0.94185 0.63373 0.0
H2105 H 0.86653 0.92886 0.641 0.0
C2106 C 0.88457 0.92493 0.13431 0.0
C2107 C 0.90346 0.92498 0.10995 0.0
C2108 C 0.8744 0.91726 0.14506 0.0
C2109 C 0.87007 0.89522 0.10988 0.0
H2110 H 0.84395 0.89051 0.21105 0.0
C2111 C 0.83547 0.86222 0.14652 0.0
C2112 C 0.81493 0.86182 0.16636 0.0
C2113 C 0.8471 0.86986 0.14313 0.0
C2114 C 0.85101 0.89175 0.18252 0.0
H2115 H 0.92753 0.91707 0.08052 0.0
H2116 H 0.91026 0.90383 0.09955 0.0
H2117 H 0.86233 0.90407 0.1993 0.0
H2118 H 0.79121 0.86913 0.19993 0.0
H2119 H 0.8112 0.88243 0.1934 0.0
H2120 H 0.85868 0.88301 0.09279 0.0
C2121 C 0.9027 0.90964 0.10934 0.0
C2122 C 0.86153 0.89953 0.17579 0.0
C2123 C 0.91268 0.91724 0.09852 0.0
C2124 C 0.80679 0.86921 0.18394 0.0
C2125 C 0.81841 0.87684 0.18056 0.0
C2126 C 0.85959 0.88747 0.11657 0.0
C2127 C 0.88305 0.90952 0.13178 0.0
C2128 C 0.87134 0.90135 0.13942 0.0
C2129 C 0.83853 0.87732 0.15949 0.0
C2130 C 0.84999 0.88559 0.15301 0.0
H2131 H 0.87711 0.9308 0.14347 0.0
H2132 H 0.85929 0.91742 0.16239 0.0
H2133 H 0.87692 0.89645 0.08118 0.0
H2134 H 0.84226 0.85671 0.13241 0.0
H2135 H 0.86274 0.86994 0.12725 0.0
C2136 C 0.08847 0.68692 0.89675 0.0
C2137 C 0.06806 0.68735 0.91697 0.0
C2138 C 0.10065 0.67941 0.89568 0.0
C2139 C 0.10726 0.65833 0.94204 0.0
H2140 H 0.12899 0.65206 0.8397 0.0
C2141 C 0.14067 0.6247 0.90423 0.0
C2142 C 0.1578 0.62422 0.87632 0.0
C2143 C 0.13076 0.63249 0.91303 0.0
C2144 C 0.12341 0.65374 0.86871 0.0
H2145 H 0.04524 0.68032 0.95386 0.0
H2146 H 0.06639 0.66722 0.95179 0.0
H2147 H 0.11063 0.66552 0.84849 0.0
H2148 H 0.17917 0.63152 0.83812 0.0
H2149 H 0.16259 0.64503 0.85406 0.0
H2150 H 0.12009 0.64649 0.96215 0.0
C2151 C 0.07297 0.67268 0.9367 0.0
C2152 C 0.11282 0.66149 0.87372 0.0
C2153 C 0.06073 0.68019 0.9376 0.0
C2154 C 0.16566 0.63169 0.85912 0.0
C2155 C 0.15603 0.63943 0.86814 0.0
C2156 C 0.11802 0.65056 0.93706 0.0
C2157 C 0.09283 0.67214 0.91496 0.0
C2158 C 0.10463 0.66392 0.91042 0.0
C2159 C 0.13798 0.63994 0.89431 0.0
C2160 C 0.12634 0.64817 0.9003 0.0
H2161 H 0.0946 0.69227 0.88034 0.0
H2162 H 0.11605 0.67925 0.87912 0.0
H2163 H 0.10124 0.66002 0.97077 0.0
H2164 H 0.13429 0.61903 0.91782 0.0
H2165 H 0.11689 0.63262 0.93328 0.0
C2166 C 0.17532 0.66608 0.38726 0.0
C2167 C 0.16743 0.67357 0.37023 0.0
C2168 C 0.1632 0.65857 0.38443 0.0
C2169 C 0.10701 0.64965 0.36136 0.0
H2170 H 0.14078 0.62902 0.34907 0.0
C2171 C 0.06453 0.61751 0.32813 0.0
C2172 C 0.07239 0.61035 0.34817 0.0
C2173 C 0.07592 0.62522 0.33016 0.0
C2174 C 0.13106 0.6347 0.35289 0.0
H2175 H 0.14017 0.67902 0.33756 0.0
H2176 H 0.11895 0.66584 0.33201 0.0
H2177 H 0.16034 0.64244 0.35339 0.0
H2178 H 0.09884 0.60583 0.38594 0.0
H2179 H 0.1188 0.61923 0.38901 0.0
H2180 H 0.07769 0.64186 0.36038 0.0
C2181 C 0.13453 0.66581 0.34799 0.0
C2182 C 0.1423 0.64243 0.35544 0.0
C2183 C 0.14668 0.67338 0.35109 0.0
C2184 C 0.09231 0.61112 0.3697 0.0
C2185 C 0.10378 0.61884 0.37153 0.0
C2186 C 0.09575 0.64191 0.35856 0.0
C2187 C 0.14278 0.65825 0.36422 0.0
C2188 C 0.1305 0.65004 0.36007 0.0
C2189 C 0.09565 0.62602 0.35204 0.0
C2190 C 0.10762 0.63431 0.35453 0.0
H2191 H 0.19095 0.66602 0.40308 0.0
H2192 H 0.16987 0.653 0.3984 0.0
H2193 H 0.09728 0.65532 0.36538 0.0
H2194 H 0.04956 0.61719 0.31058 0.0
H2195 H 0.06934 0.63055 0.31415 0.0
C2196 C 0.83581 0.43008 0.16586 0.0
C2197 C 0.84234 0.43681 0.1418 0.0
C2198 C 0.8434 0.42192 0.15879 0.0
C2199 C 0.87282 0.40817 0.0867 0.0
H2200 H 0.88783 0.39558 0.18007 0.0
C2201 C 0.92744 0.37788 0.08612 0.0
C2202 C 0.92149 0.3713 0.11171 0.0
C2203 C 0.9162 0.3856 0.08706 0.0
C2204 C 0.88347 0.39894 0.15364 0.0
H2205 H 0.86128 0.44025 0.09052 0.0
H2206 H 0.87516 0.42594 0.07828 0.0
H2207 H 0.87136 0.40946 0.1859 0.0
H2208 H 0.89867 0.36769 0.1579 0.0
H2209 H 0.879 0.38115 0.15951 0.0
H2210 H 0.88564 0.39764 0.05459 0.0
C2211 C 0.8638 0.42694 0.1024 0.0
C2212 C 0.87393 0.40694 0.15695 0.0
C2213 C 0.85587 0.43514 0.10927 0.0
C2214 C 0.90362 0.37259 0.13764 0.0
C2215 C 0.89249 0.38034 0.1388 0.0
C2216 C 0.88256 0.40017 0.0834 0.0
C2217 C 0.85814 0.42025 0.12777 0.0
C2218 C 0.86833 0.41168 0.12357 0.0
C2219 C 0.8988 0.38699 0.11383 0.0
C2220 C 0.88796 0.39544 0.11688 0.0
H2221 H 0.8252 0.4312 0.1909 0.0
H2222 H 0.83803 0.41693 0.17829 0.0
H2223 H 0.86859 0.41156 0.06031 0.0
H2224 H 0.94093 0.37708 0.06545 0.0
H2225 H 0.92162 0.39058 0.06756 0.0
C2226 C 0.89933 0.42254 0.62848 0.0
C2227 C 0.88581 0.42872 0.64584 0.0
C2228 C 0.89316 0.41399 0.63006 0.0
C2229 C 0.85855 0.39888 0.68617 0.0
H2230 H 0.85586 0.3858 0.59096 0.0
C2231 C 0.80667 0.3684 0.6779 0.0
C2232 C 0.81365 0.36168 0.65415 0.0
C2233 C 0.81789 0.37613 0.6774 0.0
C2234 C 0.85685 0.38928 0.618 0.0
H2235 H 0.85574 0.43073 0.67957 0.0
H2236 H 0.84522 0.41591 0.68295 0.0
H2237 H 0.87168 0.40002 0.58967 0.0
H2238 H 0.83841 0.35796 0.61136 0.0
H2239 H 0.85838 0.3714 0.61126 0.0
H2240 H 0.84391 0.38824 0.71474 0.0
C2241 C 0.86047 0.41763 0.66784 0.0
C2242 C 0.86591 0.39746 0.6172 0.0
C2243 C 0.86641 0.42614 0.66568 0.0
C2244 C 0.83253 0.36293 0.63025 0.0
C2245 C 0.84388 0.3707 0.62988 0.0
C2246 C 0.84974 0.39071 0.68708 0.0
C2247 C 0.87361 0.41144 0.64977 0.0
C2248 C 0.86639 0.40242 0.65113 0.0
C2249 C 0.83668 0.37743 0.65344 0.0
C2250 C 0.84822 0.38584 0.65286 0.0
H2251 H 0.91429 0.42435 0.61278 0.0
H2252 H 0.90369 0.40937 0.61598 0.0
H2253 H 0.85903 0.40247 0.71298 0.0
H2254 H 0.79248 0.36773 0.69718 0.0
H2255 H 0.81148 0.38115 0.6955 0.0
C2256 C 0.67914 0.13061 0.91183 0.0
C2257 C 0.67279 0.12332 0.8913 0.0
C2258 C 0.66593 0.13788 0.91079 0.0
C2259 C 0.62396 0.14833 0.8487 0.0
H2260 H 0.61582 0.16311 0.93746 0.0
C2261 C 0.56766 0.17728 0.83575 0.0
C2262 C 0.57519 0.18488 0.85203 0.0
C2263 C 0.57798 0.16966 0.84495 0.0
C2264 C 0.61809 0.1591 0.91229 0.0
H2265 H 0.64708 0.11794 0.85448 0.0
H2266 H 0.62391 0.13054 0.85307 0.0
H2267 H 0.6365 0.14995 0.94528 0.0
H2268 H 0.59882 0.19042 0.89215 0.0
H2269 H 0.61733 0.17705 0.90806 0.0
H2270 H 0.60607 0.15747 0.81544 0.0
C2271 C 0.63929 0.13068 0.86964 0.0
C2272 C 0.62993 0.15154 0.91679 0.0
C2273 C 0.65246 0.1234 0.87081 0.0
C2274 C 0.59261 0.18464 0.87942 0.0
C2275 C 0.60319 0.17697 0.88841 0.0
C2276 C 0.61224 0.15587 0.84419 0.0
C2277 C 0.64603 0.13807 0.88907 0.0
C2278 C 0.63297 0.14604 0.88502 0.0
C2279 C 0.59639 0.16941 0.87035 0.0
C2280 C 0.60901 0.16136 0.8759 0.0
H2281 H 0.69452 0.13076 0.92833 0.0
H2282 H 0.67174 0.14344 0.92595 0.0
H2283 H 0.62639 0.14438 0.82335 0.0
H2284 H 0.55405 0.17727 0.81498 0.0
H2285 H 0.57177 0.16397 0.83137 0.0
C2286 C 0.67747 0.16975 0.3271 0.0
C2287 C 0.66909 0.17727 0.34326 0.0
C2288 C 0.66584 0.16214 0.3307 0.0
C2289 C 0.62038 0.1515 0.38744 0.0
H2290 H 0.62376 0.13526 0.30335 0.0
C2291 C 0.56391 0.12172 0.37927 0.0
C2292 C 0.57353 0.11414 0.3665 0.0
C2293 C 0.57599 0.12929 0.37824 0.0
C2294 C 0.62285 0.13967 0.32733 0.0
H2295 H 0.64128 0.18246 0.37583 0.0
H2296 H 0.62064 0.16924 0.38096 0.0
H2297 H 0.64279 0.14875 0.29697 0.0
H2298 H 0.60364 0.10858 0.34312 0.0
H2299 H 0.62482 0.12182 0.34107 0.0
H2300 H 0.59992 0.14243 0.41729 0.0
C2301 C 0.63661 0.16923 0.36613 0.0
C2302 C 0.63382 0.14745 0.32374 0.0
C2303 C 0.64838 0.17688 0.36277 0.0
C2304 C 0.59578 0.11429 0.35336 0.0
C2305 C 0.60781 0.1219 0.35185 0.0
C2306 C 0.60922 0.14374 0.39085 0.0
C2307 C 0.64519 0.16173 0.35019 0.0
C2308 C 0.63288 0.15349 0.35379 0.0
C2309 C 0.59801 0.12951 0.36402 0.0
C2310 C 0.61035 0.13771 0.36089 0.0
H2311 H 0.6931 0.16968 0.31135 0.0
H2312 H 0.67332 0.15653 0.31852 0.0
H2313 H 0.61949 0.15587 0.41155 0.0
H2314 H 0.5469 0.12182 0.38995 0.0
H2315 H 0.56781 0.13501 0.38761 0.0
C2316 C 0.3713 0.87396 0.1631 0.0
C2317 C 0.38187 0.87017 0.13113 0.0
C2318 C 0.36616 0.88255 0.16265 0.0
C2319 C 0.37558 0.90265 0.10561 0.0
H2320 H 0.32299 0.90973 0.16273 0.0
C2321 C 0.32594 0.93363 0.07848 0.0
C2322 C 0.32168 0.93864 0.11137 0.0
C2323 C 0.33571 0.92567 0.08246 0.0
C2324 C 0.33785 0.90786 0.14695 0.0
H2325 H 0.39545 0.87236 0.07364 0.0
H2326 H 0.38545 0.88725 0.07152 0.0
H2327 H 0.33471 0.89511 0.16572 0.0
H2328 H 0.32439 0.93931 0.17416 0.0
H2329 H 0.34079 0.92519 0.18142 0.0
H2330 H 0.37757 0.91542 0.08502 0.0
C2331 C 0.38179 0.88374 0.09782 0.0
C2332 C 0.34475 0.89945 0.14879 0.0
C2333 C 0.38747 0.87517 0.09878 0.0
C2334 C 0.32767 0.93559 0.14838 0.0
C2335 C 0.33691 0.92752 0.1525 0.0
C2336 C 0.36831 0.91102 0.10305 0.0
C2337 C 0.37085 0.88758 0.12966 0.0
C2338 C 0.36377 0.89667 0.12818 0.0
C2339 C 0.34092 0.92247 0.11955 0.0
C2340 C 0.34938 0.91371 0.12372 0.0
H2341 H 0.36708 0.87025 0.18861 0.0
H2342 H 0.35846 0.88521 0.18836 0.0
H2343 H 0.39054 0.90091 0.08991 0.0
H2344 H 0.32153 0.93586 0.04964 0.0
H2345 H 0.33849 0.9219 0.05662 0.0
C2346 C 0.33516 0.8651 0.63564 0.0
C2347 C 0.34569 0.8593 0.66065 0.0
C2348 C 0.34165 0.87361 0.63526 0.0
C2349 C 0.37305 0.88967 0.6934 0.0
H2350 H 0.38051 0.90103 0.59404 0.0
C2351 C 0.4293 0.91891 0.67519 0.0
C2352 C 0.42267 0.92543 0.64997 0.0
C2353 C 0.41699 0.91144 0.67779 0.0
C2354 C 0.3782 0.898 0.62211 0.0
H2355 H 0.37074 0.85806 0.70589 0.0
H2356 H 0.38222 0.87272 0.70481 0.0
H2357 H 0.36428 0.8869 0.59609 0.0
H2358 H 0.3976 0.92923 0.60808 0.0
H2359 H 0.37595 0.9161 0.61254 0.0
H2360 H 0.38748 0.90067 0.71932 0.0
C2361 C 0.36884 0.87077 0.68559 0.0
C2362 C 0.36886 0.88989 0.6233 0.0
C2363 C 0.36243 0.86229 0.68589 0.0
C2364 C 0.40305 0.92435 0.62799 0.0
C2365 C 0.3908 0.9168 0.63027 0.0
C2366 C 0.38244 0.89775 0.69219 0.0
C2367 C 0.35871 0.87656 0.66009 0.0
C2368 C 0.36657 0.88553 0.65892 0.0
C2369 C 0.39772 0.91022 0.65503 0.0
C2370 C 0.38556 0.90197 0.65648 0.0
H2371 H 0.32233 0.86302 0.61561 0.0
H2372 H 0.33331 0.87789 0.61546 0.0
H2373 H 0.37108 0.88663 0.72149 0.0
H2374 H 0.4442 0.91956 0.69278 0.0
H2375 H 0.42299 0.9065 0.69688 0.0
C2376 C 0.56296 0.68047 0.42348 0.0
C2377 C 0.56921 0.68762 0.40168 0.0
C2378 C 0.57546 0.67304 0.42155 0.0
C2379 C 0.6129 0.66184 0.35452 0.0
H2380 H 0.62486 0.64729 0.44296 0.0
C2381 C 0.66493 0.63196 0.33447 0.0
C2382 C 0.65813 0.6246 0.35395 0.0
C2383 C 0.65586 0.63977 0.34419 0.0
C2384 C 0.62146 0.65123 0.41788 0.0
H2385 H 0.59405 0.6926 0.36173 0.0
H2386 H 0.61591 0.67968 0.35855 0.0
H2387 H 0.60599 0.66076 0.45302 0.0
H2388 H 0.63712 0.61968 0.39998 0.0
H2389 H 0.62067 0.63335 0.41666 0.0
H2390 H 0.62764 0.65232 0.31912 0.0
C2391 C 0.6012 0.6798 0.37694 0.0
C2392 C 0.6107 0.65897 0.42368 0.0
C2393 C 0.5888 0.68725 0.3791 0.0
C2394 C 0.64272 0.62527 0.38467 0.0
C2395 C 0.63334 0.63311 0.39415 0.0
C2396 C 0.62345 0.65411 0.34868 0.0
C2397 C 0.59445 0.67255 0.39753 0.0
C2398 C 0.60637 0.66439 0.39205 0.0
C2399 C 0.63941 0.64044 0.37332 0.0
C2400 C 0.62804 0.6487 0.38024 0.0
H2401 H 0.54812 0.68057 0.44149 0.0
H2402 H 0.56972 0.66758 0.43768 0.0
H2403 H 0.60937 0.66575 0.32936 0.0
H2404 H 0.67709 0.63164 0.31112 0.0
H2405 H 0.66156 0.64527 0.3283 0.0
C2406 C 0.67913 0.66842 0.83465 0.0
C2407 C 0.66962 0.67587 0.84936 0.0
C2408 C 0.66703 0.66088 0.83386 0.0
C2409 C 0.61733 0.65035 0.87823 0.0
H2410 H 0.6278 0.63395 0.7966 0.0
C2411 C 0.56303 0.62033 0.85821 0.0
C2412 C 0.57397 0.61275 0.84923 0.0
C2413 C 0.57474 0.62796 0.85922 0.0
C2414 C 0.62486 0.63842 0.81985 0.0
H2415 H 0.63934 0.68115 0.87374 0.0
H2416 H 0.61792 0.66806 0.87108 0.0
H2417 H 0.64689 0.64751 0.79428 0.0
H2418 H 0.60594 0.60726 0.83471 0.0
H2419 H 0.6265 0.62064 0.8362 0.0
H2420 H 0.5949 0.64126 0.90323 0.0
C2421 C 0.63505 0.66802 0.86102 0.0
C2422 C 0.63584 0.64622 0.81859 0.0
C2423 C 0.64727 0.67558 0.86204 0.0
C2424 C 0.59706 0.61298 0.84191 0.0
C2425 C 0.60877 0.62065 0.84241 0.0
C2426 C 0.60618 0.64257 0.87925 0.0
C2427 C 0.64486 0.66051 0.84735 0.0
C2428 C 0.63237 0.6523 0.84788 0.0
C2429 C 0.59771 0.62826 0.85087 0.0
C2430 C 0.60987 0.63649 0.85017 0.0
H2431 H 0.69613 0.66836 0.82397 0.0
H2432 H 0.67538 0.65527 0.82352 0.0
H2433 H 0.61446 0.65475 0.90173 0.0
H2434 H 0.5453 0.62036 0.86442 0.0
H2435 H 0.56566 0.63368 0.86562 0.0
C2436 C 0.40036 0.37709 0.62217 0.0
C2437 C 0.38557 0.37091 0.60807 0.0
C2438 C 0.39482 0.38568 0.61997 0.0
C2439 C 0.35806 0.40065 0.56725 0.0
H2440 H 0.36364 0.41472 0.65899 0.0
C2441 C 0.30923 0.43164 0.58207 0.0
C2442 C 0.31848 0.43847 0.60253 0.0
C2443 C 0.32009 0.42386 0.58072 0.0
C2444 C 0.36231 0.41094 0.63282 0.0
H2445 H 0.35376 0.36895 0.57944 0.0
H2446 H 0.34421 0.38381 0.57536 0.0
H2447 H 0.37801 0.40032 0.66022 0.0
H2448 H 0.34692 0.44245 0.63698 0.0
H2449 H 0.3662 0.4289 0.63397 0.0
H2450 H 0.34236 0.41117 0.53976 0.0
C2451 C 0.36004 0.38207 0.58827 0.0
C2452 C 0.37054 0.40267 0.63359 0.0
C2453 C 0.36543 0.37353 0.59093 0.0
C2454 C 0.33934 0.43736 0.62075 0.0
C2455 C 0.35027 0.42954 0.6194 0.0
C2456 C 0.35001 0.40891 0.56637 0.0
C2457 C 0.37455 0.38827 0.60297 0.0
C2458 C 0.36806 0.39735 0.60108 0.0
C2459 C 0.34069 0.42265 0.59961 0.0
C2460 C 0.35151 0.41413 0.59943 0.0
H2461 H 0.41594 0.37527 0.63575 0.0
H2462 H 0.40642 0.39029 0.63142 0.0
H2463 H 0.35626 0.39679 0.54141 0.0
H2464 H 0.29338 0.43225 0.56724 0.0
H2465 H 0.31193 0.41872 0.56562 0.0
C2466 C 0.43781 0.42081 0.13216 0.0
C2467 C 0.42567 0.42824 0.13817 0.0
C2468 C 0.42789 0.41295 0.1378 0.0
C2469 C 0.37993 0.40118 0.17918 0.0
H2470 H 0.39279 0.38623 0.09284 0.0
C2471 C 0.33514 0.36875 0.15 0.0
C2472 C 0.34836 0.36244 0.13307 0.0
C2473 C 0.34414 0.3768 0.15703 0.0
C2474 C 0.38924 0.39024 0.11756 0.0
H2475 H 0.394 0.43329 0.15721 0.0
H2476 H 0.3763 0.4194 0.16691 0.0
H2477 H 0.40892 0.40022 0.0937 0.0
H2478 H 0.38145 0.35932 0.11291 0.0
H2479 H 0.39746 0.37313 0.1265 0.0
H2480 H 0.36005 0.39107 0.2028 0.0
C2481 C 0.39362 0.41971 0.15793 0.0
C2482 C 0.39849 0.3983 0.118 0.0
C2483 C 0.40371 0.42764 0.15245 0.0
C2484 C 0.37099 0.36411 0.12592 0.0
C2485 C 0.38002 0.37205 0.13331 0.0
C2486 C 0.37063 0.39303 0.17879 0.0
C2487 C 0.40542 0.41227 0.14931 0.0
C2488 C 0.39432 0.40385 0.14904 0.0
C2489 C 0.36652 0.37862 0.14732 0.0
C2490 C 0.37551 0.38741 0.14822 0.0
H2491 H 0.45489 0.42109 0.12186 0.0
H2492 H 0.43768 0.40737 0.13194 0.0
H2493 H 0.37634 0.40531 0.20346 0.0
H2494 H 0.31755 0.36762 0.15525 0.0
H2495 H 0.33325 0.3817 0.16783 0.0
C2496 C 0.9537 0.30751 0.23045 0.0
C2497 C 0.95454 0.30679 0.18958 0.0
C2498 C 0.96089 0.30087 0.25453 0.0
C2499 C 0.97326 0.27776 0.25145 0.0
H2500 H 0.00342 0.28198 0.34949 0.0
C2501 C 0.01824 0.25127 0.33606 0.0
C2502 C 0.01513 0.25087 0.37672 0.0
C2503 C 0.01087 0.25823 0.31455 0.0
C2504 C 0.99485 0.28069 0.32234 0.0
H2505 H 0.9646 0.29861 0.14221 0.0
H2506 H 0.97738 0.28721 0.18365 0.0
H2507 H 0.9906 0.29383 0.30985 0.0
H2508 H 0.00216 0.25764 0.42658 0.0
H2509 H 0.98937 0.26984 0.38903 0.0
H2510 H 0.97781 0.26465 0.26363 0.0
C2511 C 0.9705 0.29276 0.19742 0.0
C2512 C 0.98742 0.2875 0.29958 0.0
C2513 C 0.96317 0.29934 0.17349 0.0
C2514 C 0.00474 0.25771 0.39533 0.0
C2515 C -0.00245 0.26474 0.37382 0.0
C2516 C 0.98083 0.27099 0.274 0.0
C2517 C 0.96928 0.29336 0.23834 0.0
C2518 C 0.97664 0.28614 0.26358 0.0
C2519 C 0.00031 0.26505 0.33305 0.0
C2520 C 0.99186 0.27234 0.30964 0.0
H2521 H 0.94705 0.31314 0.24382 0.0
H2522 H 0.95944 0.30158 0.28582 0.0
H2523 H 0.96456 0.2764 0.22452 0.0
H2524 H 0.02586 0.24609 0.32056 0.0
H2525 H 0.0135 0.25828 0.28329 0.0
C2526 C 0.27044 1.00977 0.16607 0.0
C2527 C 0.2807 1.00264 0.18247 0.0
C2528 C 0.26185 1.01615 0.18968 0.0
C2529 C 0.2669 0.02572 0.28702 0.0
H2530 H 0.21146 0.0366 0.25798 0.0
C2531 C 0.22974 0.05333 0.37708 0.0
C2532 C 0.22046 0.06007 0.35594 0.0
C2533 C 0.23571 0.04582 0.35836 0.0
C2534 C 0.22708 0.0337 0.26636 0.0
H2535 H 0.28969 0.9966 0.23687 0.0
H2536 H 0.27464 1.00782 0.2785 0.0
H2537 H 0.22426 1.02438 0.22159 0.0
H2538 H 0.21037 0.06412 0.29815 0.0
H2539 H 0.22077 0.05113 0.26565 0.0
H2540 H 0.26995 0.03516 0.3313 0.0
C2541 C 0.27339 1.00846 0.24713 0.0
C2542 C 0.2344 0.02666 0.24551 0.0
C2543 C 0.28186 1.002 0.22335 0.0
C2544 C 0.21706 0.05904 0.31562 0.0
C2545 C 0.22307 0.05155 0.2969 0.0
C2546 C 0.2596 0.0328 0.30785 0.0
C2547 C 0.26327 1.01562 0.23052 0.0
C2548 C 0.25459 1.02265 0.25513 0.0
C2549 C 0.23262 0.04484 0.31792 0.0
C2550 C 0.23973 0.03697 0.29744 0.0
H2551 H 0.2689 1.01043 0.13477 0.0
H2552 H 0.25443 1.02159 0.17577 0.0
H2553 H 0.28262 1.02285 0.29502 0.0
H2554 H 0.23236 0.05384 0.40821 0.0
H2555 H 0.24268 0.04076 0.37568 0.0
C2556 C 0.02632 0.04878 0.96167 0.0
C2557 C 0.02372 0.0489 0.92086 0.0
C2558 C 0.01948 0.04174 0.98366 0.0
C2559 C 0.00732 1.0189 0.97195 0.0
H2560 H 0.97669 1.0208 0.07115 0.0
C2561 C 0.96546 0.99003 0.0435 0.0
C2562 C 0.96756 0.98898 0.08411 0.0
C2563 C 0.972 0.99756 0.02539 0.0
C2564 C 0.98544 1.02015 0.04367 0.0
H2565 H 0.01057 0.04184 0.8718 0.0
H2566 H -0.00109 0.02972 0.90961 0.0
H2567 H 0.98911 0.03353 0.03702 0.0
H2568 H 0.97758 0.99525 0.13746 0.0
H2569 H 0.9893 1.00831 0.1058 0.0
H2570 H 0.00378 1.00557 0.97833 0.0
C2571 C 0.00677 0.03493 0.92471 0.0
C2572 C 0.99258 0.02746 0.02412 0.0
C2573 C 0.01354 0.04192 0.9029 0.0
C2574 C 0.97592 0.99577 0.10613 0.0
C2575 C 0.98246 1.00332 0.08797 0.0
C2576 C 0.00023 1.01162 0.99142 0.0
C2577 C 0.0099 0.03466 0.9653 0.0
C2578 C 0.00336 0.02694 0.98771 0.0
C2579 C 0.98088 1.00428 0.04725 0.0
C2580 C 0.98894 1.01212 0.02733 0.0
H2581 H 0.03411 0.05404 0.97648 0.0
H2582 H 0.0222 0.04174 0.01488 0.0
H2583 H 0.01602 1.01822 0.94444 0.0
H2584 H 0.95934 0.98497 0.02534 0.0
H2585 H 0.97015 0.99809 0.99407 0.0
C2586 C 0.27221 0.30094 0.04956 0.0
C2587 C 0.26174 0.30315 0.0849 0.0
C2588 C 0.26583 0.29366 0.02924 0.0
C2589 C 0.21861 0.27872 0.01802 0.0
H2590 H 0.26281 0.26443 0.9691 0.0
C2591 C 0.1954 0.24642 0.95018 0.0
C2592 C 0.20684 0.24376 0.91649 0.0
C2593 C 0.2019 0.25372 0.97008 0.0
C2594 C 0.25017 0.2684 0.98206 0.0
H2595 H 0.23669 0.29916 0.12683 0.0
H2596 H 0.22552 0.28656 0.09136 0.0
H2597 H 0.27478 0.27686 0.00514 0.0
H2598 H 0.23411 0.24695 0.87734 0.0
H2599 H 0.24491 0.25975 0.91115 0.0
H2600 H 0.19397 0.27033 0.99472 0.0
C2601 C 0.23847 0.29053 0.07909 0.0
C2602 C 0.25708 0.27554 0.00287 0.0
C2603 C 0.24492 0.29778 0.0995 0.0
C2604 C 0.22469 0.24876 0.90288 0.0
C2605 C 0.23114 0.25608 0.92271 0.0
C2606 C 0.21169 0.27161 0.99705 0.0
C2607 C 0.24872 0.2884 0.04353 0.0
C2608 C 0.2414 0.28079 0.02125 0.0
C2609 C 0.21999 0.25864 0.95685 0.0
C2610 C 0.22736 0.26632 0.9788 0.0
H2611 H 0.28496 0.30492 0.03685 0.0
H2612 H 0.27393 0.29228 0.00175 0.0
H2613 H 0.20602 0.28268 0.03122 0.0
H2614 H 0.18141 0.24284 0.96147 0.0
H2615 H 0.19298 0.25541 0.9964 0.0
C2616 C 0.01168 0.75731 0.83905 0.0
C2617 C 0.02273 0.7503 0.82316 0.0
C2618 C 0.0037 0.76376 0.81515 0.0
C2619 C 0.01157 0.77378 0.71891 0.0
H2620 H 0.95581 0.78474 0.7453 0.0
C2621 C 0.97705 0.80219 0.62995 0.0
C2622 C 0.96809 0.8089 0.65167 0.0
C2623 C 0.9823 0.7945 0.6479 0.0
C2624 C 0.97151 0.78181 0.73764 0.0
H2625 H 0.03367 0.74455 0.76927 0.0
H2626 H 0.01961 0.75589 0.72708 0.0
H2627 H 0.96735 0.77224 0.78112 0.0
H2628 H 0.95775 0.81264 0.70982 0.0
H2629 H 0.96667 0.79932 0.74076 0.0
H2630 H 0.01587 0.78346 0.6758 0.0
C2631 C 0.01731 0.75638 0.75832 0.0
C2632 C 0.97813 0.77462 0.7582 0.0
C2633 C 0.02521 0.74985 0.78241 0.0
C2634 C 0.96417 0.80763 0.69176 0.0
C2635 C 0.96936 0.79994 0.70965 0.0
C2636 C 0.00493 0.781 0.6983 0.0
C2637 C 0.00647 0.76344 0.77446 0.0
C2638 C -0.00154 0.77059 0.74967 0.0
C2639 C 0.97866 0.79328 0.68809 0.0
C2640 C 0.98499 0.78521 0.70786 0.0
H2641 H 0.00911 0.75782 0.87019 0.0
H2642 H -0.00428 0.76911 0.82879 0.0
H2643 H 0.02742 0.7709 0.71173 0.0
H2644 H 0.98008 0.80288 0.59899 0.0
H2645 H 0.98913 0.78949 0.63021 0.0
C2646 C 0.71039 0.05124 0.82266 0.0
C2647 C 0.71756 0.05948 0.8139 0.0
C2648 C 0.71791 0.04436 0.80097 0.0
C2649 C 0.76421 0.03768 0.73628 0.0
H2650 H 0.72522 1.01869 0.71538 0.0
C2651 C 0.79003 1.01002 0.63592 0.0
C2652 C 0.78299 1.00182 0.6457 0.0
C2653 C 0.7826 1.017 0.65708 0.0
C2654 C 0.73645 1.02388 0.72141 0.0
H2655 H 0.73789 0.06691 0.77444 0.0
H2656 H 0.75081 0.05489 0.73595 0.0
H2657 H 0.71047 0.03107 0.7483 0.0
H2658 H 0.76294 0.99456 0.68631 0.0
H2659 H 0.75017 1.00674 0.72373 0.0
H2660 H 0.79018 0.03049 0.70928 0.0
C2661 C 0.73956 0.05376 0.76016 0.0
C2662 C 0.72795 0.03102 0.74025 0.0
C2663 C 0.73195 0.06067 0.78191 0.0
C2664 C 0.76881 1.00077 0.67809 0.0
C2665 C 0.76127 1.00777 0.69923 0.0
C2666 C 0.7727 0.03055 0.71738 0.0
C2667 C 0.73284 0.04549 0.7697 0.0
C2668 C 0.74171 0.03802 0.74809 0.0
C2669 C 0.76785 1.016 0.68871 0.0
C2670 C 0.75895 1.02354 0.70973 0.0
H2671 H 0.69908 0.05008 0.84673 0.0
H2672 H 0.71247 0.03812 0.80955 0.0
H2673 H 0.77544 0.04287 0.74237 0.0
H2674 H 0.80114 1.01107 0.61147 0.0
H2675 H 0.78794 1.02321 0.64785 0.0
C2676 C 0.70356 0.74922 0.9092 0.0
C2677 C 0.71022 0.74094 0.91805 0.0
C2678 C 0.7117 0.75606 0.93063 0.0
C2679 C 0.759 0.76246 0.9935 0.0
H2680 H 0.72075 0.78122 0.02045 0.0
C2681 C 0.78795 0.78899 0.09749 0.0
C2682 C 0.78052 0.79727 0.09098 0.0
C2683 C 0.77977 0.78227 0.07529 0.0
C2684 C 0.73179 0.7761 0.01268 0.0
H2685 H 0.73053 0.73342 0.95702 0.0
H2686 H 0.74457 0.74536 0.99472 0.0
H2687 H 0.70522 0.76917 0.9857 0.0
H2688 H 0.75887 0.80494 0.05492 0.0
H2689 H 0.74498 0.79325 0.01547 0.0
H2690 H 0.78561 0.76939 0.02017 0.0
C2691 C 0.73316 0.74655 0.97086 0.0
C2692 C 0.72283 0.76916 0.99283 0.0
C2693 C 0.7249 0.73969 0.94954 0.0
C2694 C 0.76511 0.79867 0.0607 0.0
C2695 C 0.7569 0.79193 0.03838 0.0
C2696 C 0.76798 0.76941 0.0132 0.0
C2697 C 0.72683 0.75485 0.96147 0.0
C2698 C 0.7363 0.76222 0.98306 0.0
C2699 C 0.76393 0.78361 0.04565 0.0
C2700 C 0.7545 0.77633 0.02326 0.0
H2701 H 0.69212 0.75042 0.88544 0.0
H2702 H 0.70654 0.76234 0.92231 0.0
H2703 H 0.76999 0.75732 0.98585 0.0
H2704 H 0.80001 0.78765 0.12014 0.0
H2705 H 0.78548 0.77598 0.08215 0.0
C2706 C 0.22452 0.56029 0.81891 0.0
C2707 C 0.22861 0.56138 0.85903 0.0
C2708 C 0.23129 0.55296 0.79961 0.0
C2709 C 0.24806 0.53069 0.8139 0.0
H2710 H 0.27571 0.5337 0.71258 0.0
C2711 C 0.28776 0.50288 0.72556 0.0
C2712 C 0.28569 0.50319 0.6847 0.0
C2713 C 0.28082 0.50971 0.74874 0.0
C2714 C 0.26774 0.53269 0.74057 0.0
H2715 H 0.24259 0.5554 0.91031 0.0
H2716 H 0.2544 0.54258 0.87656 0.0
H2717 H 0.26323 0.54592 0.74895 0.0
H2718 H 0.27337 0.51073 0.63661 0.0
H2719 H 0.26107 0.52242 0.67645 0.0
H2720 H 0.25237 0.51741 0.80516 0.0
C2721 C 0.24589 0.54743 0.8601 0.0
C2722 C 0.26061 0.53974 0.76153 0.0
C2723 C 0.23927 0.55481 0.87942 0.0
C2724 C 0.27583 0.51035 0.66783 0.0
C2725 C 0.26879 0.5171 0.69083 0.0
C2726 C 0.25509 0.52359 0.79272 0.0
C2727 C 0.24229 0.54646 0.81978 0.0
C2728 C 0.25045 0.53885 0.79832 0.0
C2729 C 0.2715 0.51698 0.7316 0.0
C2730 C 0.26482 0.52448 0.75548 0.0
H2731 H 0.21666 0.56521 0.80197 0.0
H2732 H 0.22796 0.55241 0.76867 0.0
H2733 H 0.24022 0.52976 0.84207 0.0
H2734 H 0.2953 0.49747 0.73948 0.0
H2735 H 0.2833 0.50936 0.77997 0.0
C2736 C 0.98406 0.49519 0.62094 0.0
C2737 C 0.9725 0.48861 0.60216 0.0
C2738 C 0.99085 0.50238 0.60025 0.0
C2739 C 0.00475 0.50958 0.50076 0.0
H2740 H -0.00156 0.53205 0.54321 0.0
C2741 C 0.0255 0.53871 0.407 0.0
C2742 C 0.03537 0.54579 0.42462 0.0
C2743 C 0.01713 0.53206 0.4295 0.0
C2744 C 0.00065 0.52583 0.53105 0.0
H2745 H 0.95901 0.48453 0.54668 0.0
H2746 H 0.9709 0.49705 0.51059 0.0
H2747 H 0.98518 0.51991 0.58063 0.0
H2748 H 0.04374 0.55147 0.47999 0.0
H2749 H 0.02966 0.53973 0.51963 0.0
H2750 H 0.02069 0.51536 0.45176 0.0
C2751 C 0.97473 0.49663 0.5414 0.0
C2752 C 0.99294 0.51885 0.55253 0.0
C2753 C 0.96771 0.48948 0.56219 0.0
C2754 C 0.03619 0.54612 0.46557 0.0
C2755 C 0.02803 0.53938 0.48824 0.0
C2756 C 0.01266 0.51652 0.47952 0.0
C2757 C 0.98651 0.50317 0.56008 0.0
C2758 C 0.99475 0.51064 0.53752 0.0
C2759 C 0.01859 0.53219 0.47048 0.0
C2760 C 0.01058 0.52478 0.49409 0.0
H2761 H 0.98786 0.49477 0.65173 0.0
H2762 H -2e-05 0.50725 0.61556 0.0
H2763 H 0.00683 0.50334 0.4886 0.0
H2764 H 0.02407 0.53834 0.37559 0.0
H2765 H 0.0094 0.52682 0.41454 0.0
C2766 C 0.27352 0.79761 0.5499 0.0
C2767 C 0.26324 0.79979 0.58534 0.0
C2768 C 0.26841 0.78995 0.53143 0.0
C2769 C 0.22485 0.7729 0.5308 0.0
H2770 H 0.26864 0.76097 0.46891 0.0
C2771 C 0.20691 0.73995 0.46284 0.0
C2772 C 0.21335 0.73894 0.42367 0.0
C2773 C 0.21373 0.74707 0.48412 0.0
C2774 C 0.25616 0.76424 0.48595 0.0
H2775 H 0.24049 0.79539 0.63012 0.0
H2776 H 0.2321 0.78203 0.59889 0.0
H2777 H 0.2794 0.77385 0.50274 0.0
H2778 H 0.23281 0.7445 0.37682 0.0
H2779 H 0.24465 0.75681 0.41368 0.0
H2780 H 0.2017 0.76322 0.5142 0.0
C2781 C 0.24346 0.78632 0.58433 0.0
C2782 C 0.26231 0.77168 0.50528 0.0
C2783 C 0.24837 0.794 0.60246 0.0
C2784 C 0.22724 0.74511 0.40671 0.0
C2785 C 0.23426 0.75215 0.42803 0.0
C2786 C 0.21878 0.76543 0.51178 0.0
C2787 C 0.25308 0.78421 0.54816 0.0
C2788 C 0.24673 0.77616 0.52789 0.0
C2789 C 0.22746 0.75328 0.46692 0.0
C2790 C 0.23429 0.76102 0.48886 0.0
H2791 H 0.28491 0.80196 0.5358 0.0
H2792 H 0.27604 0.78864 0.50347 0.0
H2793 H 0.21215 0.77621 0.54715 0.0
H2794 H 0.19619 0.73533 0.47674 0.0
H2795 H 0.20832 0.7477 0.51412 0.0
C2796 C 0.78051 0.50143 0.20698 0.0
C2797 C 0.77286 0.49969 0.16901 0.0
C2798 C 0.77474 0.50895 0.2258 0.0
C2799 C 0.73312 0.52638 0.2227 0.0
H2800 H 0.77546 0.53763 0.29047 0.0
C2801 C 0.71677 0.55959 0.28752 0.0
C2802 C 0.72351 0.56111 0.32624 0.0
C2803 C 0.72251 0.55209 0.26853 0.0
C2804 C 0.76332 0.53452 0.272 0.0
H2805 H 0.75359 0.50469 0.12086 0.0
H2806 H 0.74376 0.51781 0.15332 0.0
H2807 H 0.78638 0.52478 0.25676 0.0
H2808 H 0.7412 0.55569 0.37539 0.0
H2809 H 0.75123 0.54268 0.34232 0.0
H2810 H 0.71012 0.53616 0.23781 0.0
C2811 C 0.75384 0.51329 0.16899 0.0
C2812 C 0.76959 0.52713 0.25261 0.0
C2813 C 0.75955 0.50575 0.15023 0.0
C2814 C 0.73596 0.55484 0.34546 0.0
C2815 C 0.74176 0.54736 0.32642 0.0
C2816 C 0.72688 0.53378 0.24199 0.0
C2817 C 0.7612 0.51498 0.2072 0.0
C2818 C 0.75459 0.52293 0.22767 0.0
C2819 C 0.73524 0.54588 0.28759 0.0
C2820 C 0.74187 0.53796 0.26699 0.0
H2821 H 0.79044 0.49687 0.22274 0.0
H2822 H 0.78048 0.50993 0.25539 0.0
H2823 H 0.72092 0.52327 0.20437 0.0
H2824 H 0.70752 0.56427 0.27133 0.0
H2825 H 0.71742 0.55124 0.23849 0.0
C2826 C 0.76364 0.29932 0.54171 0.0
C2827 C 0.77967 0.29758 0.57062 0.0
C2828 C 0.75512 0.29285 0.51802 0.0
C2829 C 0.76616 0.2707 0.48608 0.0
H2830 H 0.70298 0.27058 0.46167 0.0
C2831 C 0.72237 0.24143 0.41957 0.0
C2832 C 0.70679 0.24282 0.38954 0.0
C2833 C 0.73106 0.24818 0.44117 0.0
C2834 C 0.72071 0.27054 0.46787 0.0
H2835 H 0.79986 0.28766 0.59587 0.0
H2836 H 0.7848 0.27646 0.55557 0.0
H2837 H 0.71889 0.28227 0.4985 0.0
H2838 H 0.68775 0.25245 0.35967 0.0
H2839 H 0.70294 0.26419 0.39708 0.0
H2840 H 0.76791 0.25893 0.45581 0.0
C2841 C 0.77885 0.28281 0.5508 0.0
C2842 C 0.72988 0.27728 0.48895 0.0
C2843 C 0.78734 0.28925 0.57436 0.0
C2844 C 0.69984 0.25114 0.38229 0.0
C2845 C 0.70842 0.25788 0.40404 0.0
C2846 C 0.75697 0.26395 0.46516 0.0
C2847 C 0.76243 0.28447 0.52249 0.0
C2848 C 0.75274 0.27745 0.49856 0.0
C2849 C 0.72433 0.25651 0.43356 0.0
C2850 C 0.73409 0.26375 0.45586 0.0
H2851 H 0.75719 0.30563 0.53805 0.0
H2852 H 0.74273 0.29443 0.49623 0.0
H2853 H 0.78389 0.27064 0.49216 0.0
H2854 H 0.72831 0.23515 0.42582 0.0
H2855 H 0.74307 0.24686 0.46396 0.0
C2856 C 0.46217 0.30914 0.68971 0.0
C2857 C 0.46931 0.31054 0.65109 0.0
C2858 C 0.46775 0.3017 0.7095 0.0
C2859 C 0.5077 0.28364 0.70664 0.0
H2860 H 0.4654 0.27336 0.77799 0.0
C2861 C 0.52112 0.25036 0.77438 0.0
C2862 C 0.51464 0.24911 0.81349 0.0
C2863 C 0.51617 0.2579 0.75484 0.0
C2864 C 0.47754 0.27618 0.75851 0.0
H2865 H 0.48746 0.30499 0.60288 0.0
H2866 H 0.49692 0.29203 0.637 0.0
H2867 H 0.45533 0.28623 0.74357 0.0
H2868 H 0.49857 0.25511 0.86286 0.0
H2869 H 0.48993 0.26817 0.82893 0.0
H2870 H 0.52982 0.27353 0.72142 0.0
C2871 C 0.48745 0.29677 0.65246 0.0
C2872 C 0.47176 0.2836 0.73872 0.0
C2873 C 0.48196 0.30422 0.63275 0.0
C2874 C 0.50349 0.25572 0.83262 0.0
C2875 C 0.49848 0.26324 0.81308 0.0
C2876 C 0.51344 0.2762 0.72634 0.0
C2877 C 0.48056 0.2954 0.69124 0.0
C2878 C 0.48674 0.28746 0.71246 0.0
C2879 C 0.50455 0.26442 0.77378 0.0
C2880 C 0.49847 0.27237 0.75263 0.0
H2881 H 0.45269 0.31389 0.70505 0.0
H2882 H 0.46238 0.30096 0.73948 0.0
H2883 H 0.51989 0.28646 0.68726 0.0
H2884 H 0.52945 0.24542 0.75836 0.0
H2885 H 0.52093 0.25853 0.72449 0.0
C2886 C 0.54227 0.04026 0.40265 0.0
C2887 C 0.53542 0.04842 0.41319 0.0
C2888 C 0.53432 0.03316 0.42265 0.0
C2889 C 0.50624 0.02628 0.51456 0.0
H2890 H 0.49188 1.00636 0.45424 0.0
C2891 C 0.45848 0.99827 0.58288 0.0
C2892 C 0.46555 0.99005 0.57384 0.0
C2893 C 0.46682 1.00524 0.56251 0.0
C2894 C 0.49602 1.01183 0.47165 0.0
H2895 H 0.51499 0.05544 0.4538 0.0
H2896 H 0.50104 0.04307 0.48873 0.0
H2897 H 0.50699 1.01878 0.42155 0.0
H2898 H 0.4866 0.98279 0.53515 0.0
H2899 H 0.50115 0.99498 0.49933 0.0
H2900 H 0.49517 1.01934 0.56461 0.0
C2901 C 0.5128 0.04216 0.46513 0.0
C2902 C 0.50474 1.01898 0.45287 0.0
C2903 C 0.52084 0.04928 0.44512 0.0
C2904 C 0.48064 0.989 0.54276 0.0
C2905 C 0.48902 0.99601 0.52226 0.0
C2906 C 0.49749 1.01914 0.5333 0.0
C2907 C 0.5192 0.03398 0.45386 0.0
C2908 C 0.50997 0.02633 0.47403 0.0
C2909 C 0.4825 1.00425 0.53233 0.0
C2910 C 0.49217 1.01181 0.51213 0.0
H2911 H 0.55378 0.03935 0.3787 0.0
H2912 H 0.5401 0.02702 0.41361 0.0
H2913 H 0.51039 0.03174 0.53203 0.0
H2914 H 0.44652 0.99933 0.606 0.0
H2915 H 0.46093 1.01144 0.57051 0.0
C2916 C 0.47635 0.80326 0.12452 0.0
C2917 C 0.4642 0.80937 0.1453 0.0
C2918 C 0.4824 0.79563 0.14213 0.0
C2919 C 0.46876 0.78173 0.22676 0.0
H2920 H 0.52757 0.77241 0.208 0.0
C2921 C 0.50785 0.757 0.32839 0.0
C2922 C 0.52053 0.7504 0.31249 0.0
C2923 C 0.49996 0.76353 0.3049 0.0
C2924 C 0.51095 0.77485 0.21311 0.0
H2925 H 0.44926 0.81217 0.20142 0.0
H2926 H 0.45982 0.79896 0.23203 0.0
H2927 H 0.51599 0.78514 0.17346 0.0
H2928 H 0.53449 0.74543 0.25909 0.0
H2929 H 0.5207 0.75696 0.2176 0.0
H2930 H 0.46389 0.77156 0.26698 0.0
C2931 C 0.46431 0.79998 0.20179 0.0
C2932 C 0.50429 0.78217 0.1933 0.0
C2933 C 0.45823 0.8076 0.18418 0.0
C2934 C 0.52474 0.75042 0.27213 0.0
C2935 C 0.51699 0.75705 0.24851 0.0
C2936 C 0.47544 0.77445 0.2466 0.0
C2937 C 0.47651 0.79387 0.18107 0.0
C2938 C 0.48321 0.78579 0.2003 0.0
C2939 C 0.50455 0.76371 0.26471 0.0
C2940 C 0.49676 0.77098 0.24056 0.0
H2941 H 0.48101 0.80434 0.09442 0.0
H2942 H 0.4915 0.79105 0.12502 0.0
H2943 H 0.45221 0.78419 0.2323 0.0
H2944 H 0.504 0.75713 0.35922 0.0
H2945 H 0.49067 0.76857 0.31854 0.0
C2946 C 0.47143 0.49394 0.06994 0.0
C2947 C 0.47466 0.49376 0.11064 0.0
C2948 C 0.47726 0.50105 0.04796 0.0
C2949 C 0.51368 0.51995 0.04959 0.0
H2950 H 0.47707 0.52685 0.96207 0.0
C2951 C 0.53471 0.54938 0.95393 0.0
C2952 C 0.53151 0.54854 0.91343 0.0
C2953 C 0.5272 0.54312 0.97985 0.0
C2954 C 0.48764 0.52497 0.98616 0.0
H2955 H 0.48616 0.50112 0.1599 0.0
H2956 H 0.49637 0.51352 0.1215 0.0
H2957 H 0.46476 0.51529 0.00366 0.0
H2958 H 0.51743 0.5404 0.86891 0.0
H2959 H 0.50495 0.52952 0.91355 0.0
H2960 H 0.53671 0.52958 0.03171 0.0
C2961 C 0.48954 0.50809 0.1066 0.0
C2962 C 0.48054 0.51833 0.01009 0.0
C2963 C 0.48362 0.50097 0.12867 0.0
C2964 C 0.52054 0.54127 0.8997 0.0
C2965 C 0.51304 0.53505 0.92551 0.0
C2966 C 0.52082 0.5266 0.02556 0.0
C2967 C 0.48657 0.50821 0.06587 0.0
C2968 C 0.49357 0.51565 0.04187 0.0
C2969 C 0.51618 0.53587 0.96597 0.0
C2970 C 0.50804 0.52914 0.99317 0.0
H2971 H 0.46507 0.4885 0.05461 0.0
H2972 H 0.47506 0.50084 0.01663 0.0
H2973 H 0.52429 0.51801 0.07351 0.0
H2974 H 0.54319 0.55484 0.96563 0.0
H2975 H 0.5298 0.54401 0.01082 0.0
C2976 C 0.08729 0.22714 0.52746 0.0
C2977 C 0.07325 0.22048 0.51603 0.0
C2978 C 0.09395 0.22791 0.56666 0.0
C2979 C 0.07702 0.22059 0.66601 0.0
H2980 H 0.13742 0.22648 0.6959 0.0
C2981 C 0.11851 0.21063 0.81024 0.0
C2982 C 0.1339 0.21611 0.8277 0.0
C2983 C 0.10775 0.21293 0.77562 0.0
C2984 C 0.12034 0.22498 0.68809 0.0
H2985 H 0.05638 0.20917 0.53602 0.0
H2986 H 0.06834 0.21036 0.60311 0.0
H2987 H 0.12672 0.22696 0.62718 0.0
H2988 H 0.14968 0.22835 0.82381 0.0
H2989 H 0.13076 0.23241 0.76333 0.0
H2990 H 0.07095 0.21824 0.7267 0.0
C2991 C 0.07359 0.21518 0.58266 0.0
C2992 C 0.11423 0.22525 0.64865 0.0
C2993 C 0.06689 0.21445 0.54396 0.0
C2994 C 0.13733 0.22413 0.81144 0.0
C2995 C 0.12681 0.22639 0.77651 0.0
C2996 C 0.08318 0.22025 0.7053 0.0
C2997 C 0.08673 0.22202 0.59489 0.0
C2998 C 0.09265 0.22283 0.637 0.0
C2999 C 0.1126 0.22067 0.75741 0.0
C3000 C 0.10505 0.22226 0.71671 0.0
H3001 H 0.09239 0.23189 0.50655 0.0
H3002 H 0.10416 0.23324 0.57505 0.0
H3003 H 0.06006 0.2189 0.65828 0.0
H3004 H 0.11622 0.20431 0.82156 0.0
H3005 H 0.09707 0.20835 0.76146 0.0
C3006 C 0.12952 0.08583 0.4658 0.0
C3007 C 0.15288 0.08532 0.46738 0.0
C3008 C 0.11673 0.08408 0.49927 0.0
C3009 C 0.11998 0.07468 0.59931 0.0
H3010 H 0.07614 0.09166 0.62534 0.0
C3011 C 0.08605 0.07947 0.75669 0.0
C3012 C 0.06309 0.08109 0.76017 0.0
C3013 C 0.0962 0.07927 0.71976 0.0
C3014 C 0.08814 0.0868 0.61838 0.0
H3015 H 0.1811 0.08204 0.50388 0.0
H3016 H 0.1591 0.079 0.56149 0.0
H3017 H 0.09378 0.09187 0.56131 0.0
H3018 H 0.03282 0.08374 0.72748 0.0
H3019 H 0.05036 0.08333 0.6639 0.0
H3020 H 0.11465 0.06973 0.65681 0.0
C3021 C 0.15043 0.08072 0.53495 0.0
C3022 C 0.09816 0.08689 0.58152 0.0
C3023 C 0.16309 0.08254 0.50191 0.0
C3024 C 0.05057 0.08249 0.72606 0.0
C3025 C 0.06065 0.08231 0.68943 0.0
C3026 C 0.10999 0.0746 0.63623 0.0
C3027 C 0.12715 0.08169 0.5345 0.0
C3028 C 0.11442 0.08091 0.57169 0.0
C3029 C 0.08358 0.08073 0.68572 0.0
C3030 C 0.09411 0.08071 0.64635 0.0
H3031 H 0.12129 0.08801 0.43955 0.0
H3032 H 0.09877 0.08481 0.4979 0.0
H3033 H 0.13226 0.06991 0.59254 0.0
H3034 H 0.09614 0.07836 0.7824 0.0
H3035 H 0.11398 0.0781 0.71788 0.0
C3036 C 0.81669 0.8239 0.28596 0.0
C3037 C 0.82486 0.8279 0.25225 0.0
C3038 C 0.82785 0.82466 0.32143 0.0
C3039 C 0.88095 0.83159 0.36759 0.0
H3040 H 0.84283 0.83497 0.45785 0.0
C3041 C 0.915 0.84509 0.51008 0.0
C3042 C 0.90951 0.84096 0.54515 0.0
C3043 C 0.90404 0.84313 0.47549 0.0
C3044 C 0.85368 0.83393 0.43305 0.0
H3045 H 0.85156 0.83558 0.22873 0.0
H3046 H 0.87109 0.83709 0.29123 0.0
H3047 H 0.82612 0.83208 0.39441 0.0
H3048 H 0.88732 0.83182 0.57176 0.0
H3049 H 0.86766 0.82843 0.51067 0.0
H3050 H 0.90847 0.83368 0.40623 0.0
C3051 C 0.85616 0.83323 0.29009 0.0
C3052 C 0.84415 0.83226 0.39661 0.0
C3053 C 0.84505 0.83237 0.25425 0.0
C3054 C 0.89186 0.83512 0.54522 0.0
C3055 C 0.88071 0.83316 0.51029 0.0
C3056 C 0.89045 0.83333 0.40396 0.0
C3057 C 0.84734 0.82956 0.32436 0.0
C3058 C 0.85766 0.8311 0.36332 0.0
C3059 C 0.88717 0.837 0.47489 0.0
C3060 C 0.87692 0.8346 0.43701 0.0
H3061 H 0.80126 0.82033 0.28513 0.0
H3062 H 0.8209 0.82153 0.34679 0.0
H3063 H 0.8919 0.8306 0.34288 0.0
H3064 H 0.92831 0.84972 0.509 0.0
H3065 H 0.909 0.84635 0.44898 0.0
C3066 C 0.83931 0.97182 0.47651 0.0
C3067 C 0.81728 0.96909 0.48299 0.0
C3068 C 0.84835 0.97173 0.43866 0.0
C3069 C 0.8411 0.96153 0.34272 0.0
H3070 H 0.87439 0.9806 0.30236 0.0
C3071 C 0.87517 0.9611 0.18568 0.0
C3072 C 0.89771 0.96342 0.18303 0.0
C3073 C 0.86291 0.96304 0.21943 0.0
C3074 C 0.86519 0.97521 0.31321 0.0
H3075 H 0.78762 0.96403 0.45494 0.0
H3076 H 0.8033 0.96386 0.38985 0.0
H3077 H 0.85965 0.98102 0.36882 0.0
H3078 H 0.92477 0.97002 0.21166 0.0
H3079 H 0.90367 0.9734 0.26992 0.0
H3080 H 0.84705 0.9556 0.2878 0.0
C3081 C 0.81367 0.96605 0.41367 0.0
C3082 C 0.85685 0.97544 0.35137 0.0
C3083 C 0.80465 0.9662 0.4511 0.0
C3084 C 0.90731 0.96821 0.21303 0.0
C3085 C 0.89516 0.97017 0.24643 0.0
C3086 C 0.84953 0.96127 0.30472 0.0
C3087 C 0.83558 0.96881 0.40688 0.0
C3088 C 0.84482 0.96858 0.36661 0.0
C3089 C 0.87306 0.96733 0.25082 0.0
C3090 C 0.86186 0.96807 0.28953 0.0
H3091 H 0.84942 0.97409 0.50047 0.0
H3092 H 0.86538 0.97385 0.43431 0.0
H3093 H 0.83206 0.9561 0.35373 0.0
H3094 H 0.86754 0.95731 0.16307 0.0
H3095 H 0.8458 0.96086 0.22165 0.0
C3096 C 0.06425 0.72356 0.02538 0.0
C3097 C 0.07313 0.7211 0.98923 0.0
C3098 C 0.07643 0.72248 0.05964 0.0
C3099 C 0.11958 0.70899 0.10106 0.0
H3100 H 0.11916 0.72515 0.18578 0.0
C3101 C 0.17238 0.70457 0.23945 0.0
C3102 C 0.1636 0.7071 0.2756 0.0
C3103 C 0.16105 0.70626 0.20487 0.0
C3104 C 0.11915 0.72052 0.16262 0.0
H3105 H 0.10207 0.71586 0.96029 0.0
H3106 H 0.12357 0.71395 0.02059 0.0
H3107 H 0.10176 0.72876 0.12361 0.0
H3108 H 0.13564 0.7132 0.30388 0.0
H3109 H 0.11546 0.71606 0.24307 0.0
H3110 H 0.13666 0.70071 0.14007 0.0
C3111 C 0.10706 0.71668 0.02227 0.0
C3112 C 0.10933 0.72261 0.12691 0.0
C3113 C 0.09489 0.71785 0.98776 0.0
C3114 C 0.14281 0.71117 0.27648 0.0
C3115 C 0.13139 0.71287 0.24164 0.0
C3116 C 0.12931 0.70689 0.13678 0.0
C3117 C 0.09775 0.71885 0.05864 0.0
C3118 C 0.10943 0.71687 0.09574 0.0
C3119 C 0.14053 0.7105 0.2054 0.0
C3120 C 0.12925 0.71263 0.168 0.0
H3121 H 0.04753 0.72611 0.02741 0.0
H3122 H 0.06869 0.72415 0.08712 0.0
H3123 H 0.11952 0.70436 0.07791 0.0
H3124 H 0.18836 0.70141 0.23764 0.0
H3125 H 0.16875 0.70444 0.17758 0.0
C3126 C 0.09237 0.57026 0.24621 0.0
C3127 C 0.0941 0.57618 0.27638 0.0
C3128 C 0.1038 0.57145 0.21119 0.0
C3129 C 0.12224 0.58897 0.15076 0.0
H3130 H 0.14672 0.57155 0.08425 0.0
C3131 C 0.165 0.59634 0.00481 0.0
C3132 C 0.16281 0.5907 0.97355 0.0
C3133 C 0.15594 0.59446 0.04119 0.0
C3134 C 0.1396 0.57646 0.10226 0.0
H3135 H 0.11 0.58774 0.29486 0.0
H3136 H 0.13034 0.58985 0.23333 0.0
H3137 H 0.13613 0.56818 0.15138 0.0
H3138 H 0.14856 0.57881 0.95528 0.0
H3139 H 0.13223 0.57551 0.01943 0.0
H3140 H 0.12531 0.59722 0.10172 0.0
C3141 C 0.12007 0.58428 0.23681 0.0
C3142 C 0.13375 0.57454 0.14083 0.0
C3143 C 0.10876 0.58302 0.27219 0.0
C3144 C 0.15034 0.58329 0.97886 0.0
C3145 C 0.14128 0.58137 0.01565 0.0
C3146 C 0.12798 0.59087 0.11224 0.0
C3147 C 0.11697 0.57867 0.20541 0.0
C3148 C 0.12505 0.58079 0.16554 0.0
C3149 C 0.1444 0.58688 0.04743 0.0
C3150 C 0.13681 0.58465 0.08752 0.0
H3151 H 0.08091 0.56499 0.24873 0.0
H3152 H 0.10091 0.56705 0.18764 0.0
H3153 H 0.11502 0.59387 0.16865 0.0
H3154 H 0.1745 0.60212 0.00155 0.0
H3155 H 0.1589 0.59882 0.06492 0.0
C3156 C 0.88239 0.3336 0.03937 0.0
C3157 C 0.90117 0.33889 0.03918 0.0
C3158 C 0.86967 0.33259 0.00526 0.0
C3159 C 0.86119 0.3415 0.90504 0.0
H3160 H 0.84753 0.3184 0.87762 0.0
C3161 C 0.83989 0.33174 0.74712 0.0
C3162 C 0.82024 0.32698 0.74351 0.0
C3163 C 0.84951 0.33299 0.78395 0.0
C3164 C 0.85118 0.32488 0.88497 0.0
H3165 H 0.9205 0.34773 0.00466 0.0
H3166 H 0.89867 0.34602 0.94588 0.0
H3167 H 0.86183 0.32161 0.9426 0.0
H3168 H 0.79598 0.31938 0.77484 0.0
H3169 H 0.81299 0.32141 0.83863 0.0
H3170 H 0.85107 0.34473 0.847 0.0
C3171 C 0.89345 0.34264 0.9718 0.0
C3172 C 0.85915 0.32674 0.92234 0.0
C3173 C 0.90608 0.34359 0.00553 0.0
C3174 C 0.81113 0.3231 0.77683 0.0
C3175 C 0.82089 0.32424 0.81336 0.0
C3176 C 0.85345 0.33963 0.8676 0.0
C3177 C 0.87551 0.33693 0.97072 0.0
C3178 C 0.86449 0.33507 0.93273 0.0
C3179 C 0.83982 0.32938 0.81752 0.0
C3180 C 0.84855 0.3313 0.85704 0.0
H3181 H 0.87841 0.32986 0.06491 0.0
H3182 H 0.85575 0.32823 0.00555 0.0
H3183 H 0.86476 0.34801 0.91218 0.0
H3184 H 0.84711 0.33485 0.72192 0.0
H3185 H 0.86426 0.33692 0.78631 0.0
C3186 C 0.84412 0.47355 0.02312 0.0
C3187 C 0.82301 0.47006 0.0309 0.0
C3188 C 0.85102 0.47494 0.98453 0.0
C3189 C 0.83921 0.46759 0.88427 0.0
H3190 H 0.87629 0.48655 0.85403 0.0
C3191 C 0.87464 0.46965 0.72929 0.0
C3192 C 0.89795 0.47051 0.72963 0.0
C3193 C 0.86224 0.47161 0.76278 0.0
C3194 C 0.86583 0.48125 0.86201 0.0
H3195 H 0.79227 0.46559 0.00438 0.0
H3196 H 0.80408 0.46812 0.93778 0.0
H3197 H 0.86162 0.48572 0.9205 0.0
H3198 H 0.92641 0.47477 0.76321 0.0
H3199 H 0.90495 0.47827 0.82104 0.0
H3200 H 0.84388 0.46299 0.82632 0.0
C3201 C 0.81558 0.46961 0.96115 0.0
C3202 C 0.85757 0.48074 0.90015 0.0
C3203 C 0.80879 0.46818 0.99948 0.0
C3204 C 0.90841 0.47405 0.76235 0.0
C3205 C 0.89608 0.47609 0.79544 0.0
C3206 C 0.8474 0.46812 0.84621 0.0
C3207 C 0.83687 0.4729 0.95307 0.0
C3208 C 0.8445 0.47382 0.91194 0.0
C3209 C 0.873 0.47454 0.79672 0.0
C3210 C 0.86119 0.47485 0.83483 0.0
H3211 H 0.85541 0.47508 0.04674 0.0
H3212 H 0.86763 0.4774 0.97933 0.0
H3213 H 0.82947 0.46211 0.8924 0.0
H3214 H 0.86626 0.46687 0.70445 0.0
H3215 H 0.84442 0.47043 0.7628 0.0
C3216 C 0.5566 0.21878 0.98364 0.0
C3217 C 0.56818 0.21835 0.94802 0.0
C3218 C 0.56808 0.2186 0.01898 0.0
C3219 C 0.61931 0.21049 0.06148 0.0
H3220 H 0.60386 0.22449 0.15004 0.0
C3221 C 0.67128 0.21023 0.20136 0.0
C3222 C 0.66057 0.21092 0.23772 0.0
C3223 C 0.65946 0.21127 0.1668 0.0
C3224 C 0.60812 0.22045 0.12577 0.0
H3225 H 0.6009 0.21768 0.92132 0.0
H3226 H 0.62116 0.2173 0.98353 0.0
H3227 H 0.58529 0.22671 0.08739 0.0
H3228 H 0.62887 0.21319 0.26624 0.0
H3229 H 0.60786 0.21486 0.20522 0.0
H3230 H 0.64174 0.2041 0.09969 0.0
C3231 C 0.60312 0.21776 0.9839 0.0
C3232 C 0.59762 0.22176 0.08983 0.0
C3233 C 0.59159 0.21804 0.94836 0.0
C3234 C 0.63756 0.21261 0.23867 0.0
C3235 C 0.62561 0.21362 0.20375 0.0
C3236 C 0.62966 0.20913 0.09739 0.0
C3237 C 0.59142 0.21791 0.01955 0.0
C3238 C 0.6032 0.21682 0.05727 0.0
C3239 C 0.63649 0.21297 0.1674 0.0
C3240 C 0.62434 0.21413 0.12994 0.0
H3241 H 0.53853 0.21907 0.98429 0.0
H3242 H 0.55859 0.21866 0.04588 0.0
H3243 H 0.62358 0.20645 0.03717 0.0
H3244 H 0.68901 0.20898 0.19937 0.0
H3245 H 0.66853 0.21089 0.13951 0.0
C3246 C 0.64724 0.08766 0.96912 0.0
C3247 C 0.67038 0.08904 0.97167 0.0
C3248 C 0.6346 0.08629 0.00307 0.0
C3249 C 0.64053 0.07961 0.10606 0.0
H3250 H 0.58578 0.092 0.12302 0.0
C3251 C 0.59854 0.08209 0.25798 0.0
C3252 C 0.57511 0.08186 0.25897 0.0
C3253 C 0.60983 0.08249 0.22217 0.0
C3254 C 0.60089 0.0884 0.11858 0.0
H3255 H 0.69833 0.09006 0.01183 0.0
H3256 H 0.67649 0.0877 0.07016 0.0
H3257 H 0.6052 0.09327 0.06072 0.0
H3258 H 0.54519 0.08162 0.22318 0.0
H3259 H 0.56476 0.08215 0.16138 0.0
H3260 H 0.63634 0.07476 0.16392 0.0
C3261 C 0.66806 0.08758 0.04221 0.0
C3262 C 0.61197 0.08912 0.08282 0.0
C3263 C 0.68056 0.08901 0.00863 0.0
C3264 C 0.56327 0.08188 0.22357 0.0
C3265 C 0.57448 0.08223 0.188 0.0
C3266 C 0.62943 0.07886 0.14176 0.0
C3267 C 0.64499 0.08618 0.03994 0.0
C3268 C 0.63205 0.08482 0.07637 0.0
C3269 C 0.59788 0.08263 0.18677 0.0
C3270 C 0.60958 0.0833 0.1486 0.0
H3271 H 0.63895 0.08766 0.94106 0.0
H3272 H 0.6168 0.08521 0.00049 0.0
H3273 H 0.65585 0.07612 0.10173 0.0
H3274 H 0.6081 0.08211 0.28479 0.0
H3275 H 0.62789 0.08286 0.22225 0.0
C3276 C 0.36777 0.82738 0.02999 0.0
C3277 C 0.39094 0.82718 0.03559 0.0
C3278 C 0.35838 0.82361 0.99686 0.0
C3279 C 0.37568 0.81965 0.89662 0.0
H3280 H 0.31695 0.80969 0.88508 0.0
C3281 C 0.33755 0.81614 0.74443 0.0
C3282 C 0.31555 0.81912 0.7418 0.0
C3283 C 0.34689 0.81432 0.78093 0.0
C3284 C 0.3334 0.81247 0.8878 0.0
H3285 H 0.42225 0.82229 0.01384 0.0
H3286 H 0.40589 0.8155 0.95693 0.0
H3287 H 0.33258 0.81169 0.95033 0.0
H3288 H 0.28555 0.82186 0.77495 0.0
H3289 H 0.30185 0.81893 0.838 0.0
H3290 H 0.37621 0.82092 0.83472 0.0
C3291 C 0.39497 0.81871 0.97719 0.0
C3292 C 0.34233 0.8136 0.92519 0.0
C3293 C 0.40431 0.82255 0.00984 0.0
C3294 C 0.30265 0.81966 0.77596 0.0
C3295 C 0.31196 0.81789 0.81227 0.0
C3296 C 0.36673 0.81859 0.85943 0.0
C3297 C 0.37209 0.81957 0.96923 0.0
C3298 C 0.3634 0.81735 0.92999 0.0
C3299 C 0.33442 0.81546 0.81542 0.0
C3300 C 0.34525 0.81518 0.8545 0.0
H3301 H 0.35725 0.83101 0.04939 0.0
H3302 H 0.34069 0.8244 0.99145 0.0
H3303 H 0.39181 0.8227 0.89925 0.0
H3304 H 0.34786 0.81561 0.71858 0.0
H3305 H 0.36414 0.81231 0.78223 0.0
C3306 C 0.35 0.97002 0.01493 0.0
C3307 C 0.32848 0.97348 0.01566 0.0
C3308 C 0.36116 0.96894 0.97931 0.0
C3309 C 0.34891 0.96678 0.87382 0.0
H3310 H 0.4129 0.96941 0.86237 0.0
C3311 C 0.39629 0.96361 0.72559 0.0
C3312 C 0.41658 0.95921 0.72745 0.0
C3313 C 0.38469 0.96558 0.75998 0.0
C3314 C 0.395 0.9686 0.8652 0.0
H3315 H 0.30233 0.97901 0.98023 0.0
H3316 H 0.3219 0.97735 0.91871 0.0
H3317 H 0.39526 0.97279 0.92449 0.0
H3318 H 0.43989 0.953 0.76644 0.0
H3319 H 0.41972 0.95634 0.82567 0.0
H3320 H 0.34873 0.96257 0.81443 0.0
C3321 C 0.32996 0.97522 0.94519 0.0
C3322 C 0.38492 0.97052 0.90083 0.0
C3323 C 0.31882 0.97623 0.98055 0.0
C3324 C 0.42447 0.95651 0.76397 0.0
C3325 C 0.41299 0.95846 0.79804 0.0
C3326 C 0.359 0.96489 0.83811 0.0
C3327 C 0.351 0.97136 0.94394 0.0
C3328 C 0.36177 0.96957 0.9057 0.0
C3329 C 0.39327 0.96319 0.79661 0.0
C3330 C 0.38219 0.96568 0.83357 0.0
H3331 H 0.35777 0.9678 0.04154 0.0
H3332 H 0.37732 0.96591 0.97938 0.0
H3333 H 0.33106 0.96584 0.8767 0.0
H3334 H 0.38986 0.9658 0.69785 0.0
H3335 H 0.36947 0.96922 0.75803 0.0
C3336 C 0.59594 0.71873 0.47313 0.0
C3337 C 0.57376 0.72152 0.47525 0.0
C3338 C 0.60867 0.71791 0.50724 0.0
C3339 C 0.61086 0.72409 0.61173 0.0
H3340 H 0.64172 0.70287 0.62505 0.0
C3341 C 0.64476 0.71315 0.76172 0.0
C3342 C 0.66619 0.70959 0.76143 0.0
C3343 C 0.63355 0.71471 0.72654 0.0
C3344 C 0.63338 0.70886 0.62169 0.0
H3345 H 0.5479 0.72608 0.51415 0.0
H3346 H 0.56996 0.72469 0.5731 0.0
H3347 H 0.62395 0.70608 0.5629 0.0
H3348 H 0.6924 0.70466 0.72413 0.0
H3349 H 0.67308 0.70742 0.66344 0.0
H3350 H 0.6202 0.72685 0.67062 0.0
C3351 C 0.57764 0.72313 0.54544 0.0
C3352 C 0.6233 0.71072 0.58598 0.0
C3353 C 0.56494 0.72387 0.51161 0.0
C3354 C 0.6759 0.70743 0.72548 0.0
C3355 C 0.66476 0.70896 0.69055 0.0
C3356 C 0.62099 0.72224 0.64745 0.0
C3357 C 0.59947 0.71996 0.54384 0.0
C3358 C 0.61181 0.71833 0.58065 0.0
C3359 C 0.64354 0.71268 0.69054 0.0
C3360 C 0.63229 0.71459 0.65291 0.0
H3361 H 0.60308 0.71683 0.44548 0.0
H3362 H 0.62555 0.71553 0.50508 0.0
H3363 H 0.6023 0.73004 0.60842 0.0
H3364 H 0.63687 0.71489 0.78896 0.0
H3365 H 0.61709 0.7175 0.72752 0.0
C3366 C 0.60035 0.58035 0.74721 0.0
C3367 C 0.57743 0.57848 0.74623 0.0
C3368 C 0.61248 0.58106 0.71241 0.0
C3369 C 0.61127 0.57581 0.60725 0.0
H3370 H 0.64687 0.59607 0.59551 0.0
C3371 C 0.6447 0.58713 0.45725 0.0
C3372 C 0.66629 0.5906 0.45665 0.0
C3373 C 0.63428 0.58525 0.49285 0.0
C3374 C 0.63727 0.59032 0.5984 0.0
H3375 H 0.54948 0.57549 0.70839 0.0
H3376 H 0.5706 0.57669 0.64808 0.0
H3377 H 0.62931 0.59297 0.65798 0.0
H3378 H 0.69398 0.59471 0.49286 0.0
H3379 H 0.67612 0.5913 0.55428 0.0
H3380 H 0.61921 0.57316 0.54763 0.0
C3381 C 0.57924 0.57761 0.6755 0.0
C3382 C 0.62725 0.58854 0.63428 0.0
C3383 C 0.56712 0.57698 0.71009 0.0
C3384 C 0.67724 0.59212 0.4922 0.0
C3385 C 0.66695 0.5902 0.52757 0.0
C3386 C 0.62141 0.57756 0.57139 0.0
C3387 C 0.60194 0.57981 0.67619 0.0
C3388 C 0.61402 0.5813 0.63902 0.0
C3389 C 0.64531 0.58677 0.52843 0.0
C3390 C 0.63445 0.58486 0.56647 0.0
H3391 H 0.60869 0.58154 0.77468 0.0
H3392 H 0.63003 0.5827 0.71378 0.0
H3393 H 0.60128 0.57015 0.61017 0.0
H3394 H 0.63585 0.5859 0.43031 0.0
H3395 H 0.61749 0.5827 0.49249 0.0
C3396 C 0.37386 0.33041 0.52226 0.0
C3397 C 0.3962 0.3281 0.52786 0.0
C3398 C 0.36287 0.32821 0.48764 0.0
C3399 C 0.37873 0.32444 0.38586 0.0
H3400 H 0.31526 0.32112 0.37032 0.0
C3401 C 0.33975 0.32454 0.23155 0.0
C3402 C 0.32013 0.3293 0.22795 0.0
C3403 C 0.34826 0.32257 0.26854 0.0
C3404 C 0.33304 0.32206 0.3742 0.0
H3405 H 0.42395 0.32107 0.50425 0.0
H3406 H 0.40457 0.3169 0.44486 0.0
H3407 H 0.33071 0.32048 0.43623 0.0
H3408 H 0.2939 0.33562 0.26036 0.0
H3409 H 0.30884 0.33233 0.32419 0.0
H3410 H 0.38104 0.32633 0.32425 0.0
C3411 C 0.39566 0.32061 0.46625 0.0
C3412 C 0.34187 0.32168 0.41196 0.0
C3413 C 0.40667 0.3229 0.50043 0.0
C3414 C 0.30907 0.33194 0.26198 0.0
C3415 C 0.31752 0.32998 0.29874 0.0
C3416 C 0.36992 0.32483 0.34822 0.0
C3417 C 0.3741 0.32363 0.45842 0.0
C3418 C 0.36478 0.32301 0.4183 0.0
C3419 C 0.33727 0.32531 0.30258 0.0
C3420 C 0.34691 0.32382 0.34198 0.0
H3421 H 0.36564 0.33455 0.54282 0.0
H3422 H 0.34628 0.33066 0.48251 0.0
H3423 H 0.39639 0.32567 0.38962 0.0
H3424 H 0.34858 0.32239 0.20588 0.0
H3425 H 0.36345 0.31892 0.2705 0.0
C3426 C 0.35106 0.46842 0.52115 0.0
C3427 C 0.33067 0.4727 0.52373 0.0
C3428 C 0.36204 0.46774 0.48506 0.0
C3429 C 0.34977 0.46896 0.3786 0.0
H3430 H 0.41415 0.4683 0.36853 0.0
C3431 C 0.39814 0.46739 0.22972 0.0
C3432 C 0.41614 0.46174 0.22945 0.0
C3433 C 0.38661 0.46901 0.26469 0.0
C3434 C 0.39611 0.46844 0.37092 0.0
H3435 H 0.30656 0.48012 0.49153 0.0
H3436 H 0.32593 0.47922 0.4295 0.0
H3437 H 0.39745 0.47092 0.43222 0.0
H3438 H 0.43507 0.45292 0.26477 0.0
H3439 H 0.41513 0.45572 0.3248 0.0
H3440 H 0.34857 0.46651 0.31708 0.0
C3441 C 0.33315 0.47609 0.45458 0.0
C3442 C 0.38655 0.46991 0.40749 0.0
C3443 C 0.32214 0.47668 0.4903 0.0
C3444 C 0.42152 0.45742 0.26403 0.0
C3445 C 0.41018 0.45905 0.29862 0.0
C3446 C 0.35937 0.46756 0.34194 0.0
C3447 C 0.35289 0.47141 0.45111 0.0
C3448 C 0.36324 0.47011 0.41194 0.0
C3449 C 0.39304 0.46503 0.29971 0.0
C3450 C 0.38264 0.46717 0.33781 0.0
H3451 H 0.35787 0.46524 0.54643 0.0
H3452 H 0.37716 0.46404 0.48351 0.0
H3453 H 0.33174 0.46893 0.38091 0.0
H3454 H 0.39369 0.47082 0.20355 0.0
H3455 H 0.37334 0.47363 0.26469 0.0
loop_
_geom_bond_atom_site_label_1
_geom_bond_atom_site_label_2
_geom_bond_distance
_geom_bond_site_symmetry_2
_ccdc_geom_bond_type
C0 C1 1.351 . S
C0 N3 1.368 . S
C0 H5 0.931 . S
C1 C0 1.351 . S
C1 N2 1.373 . S
C1 H29 0.930 . S
N2 C1 1.373 . S
N2 C4 1.340 . S
N3 C0 1.368 . S
N3 C4 1.321 . S
N3 Co6 2.135 . S
C4 N2 1.340 . S
C4 N3 1.321 . S
C4 H28 0.930 . S
H5 C0 0.931 . S
Co6 N3 2.135 . S
Co6 N9 2.121 . S
Co6 O14 2.055 . S
Co6 O17 2.039 . S
Co6 N20 2.140 . S
C7 O8 1.227 . S
C7 O17 1.265 . S
O8 C7 1.227 . S
N9 Co6 2.121 . S
N9 C11 1.375 . S
N9 C12 1.313 . S
C10 C11 1.338 . S
C10 N13 1.377 . S
C10 H30 0.930 . S
C11 N9 1.375 . S
C11 C10 1.338 . S
C11 H15 0.931 . S
C12 N9 1.313 . S
C12 N13 1.344 . S
C12 H16 0.930 . S
N13 C10 1.377 . S
N13 C12 1.344 . S
O14 Co6 2.055 . S
O14 C18 1.253 . S
H15 C11 0.931 . S
H16 C12 0.930 . S
O17 Co6 2.039 . S
O17 C7 1.265 . S
C18 O14 1.253 . S
C18 O19 1.227 . S
O19 C18 1.227 . S
N20 Co6 2.140 . S
N20 C23 1.346 . S
N20 C24 1.345 . S
C21 C22 1.387 . S
C21 C25 1.391 . S
C22 C21 1.387 . S
C22 C23 1.369 1_655 S
C22 H31 0.929 . S
C23 N20 1.346 . S
C23 C22 1.369 1_455 S
C23 H26 0.928 . S
C24 N20 1.345 . S
C24 C25 1.371 1_455 S
C24 H27 0.931 . S
C25 C21 1.391 . S
C25 C24 1.371 1_655 S
C25 H32 0.930 . S
H26 C23 0.928 . S
H27 C24 0.931 . S
H28 C4 0.930 . S
H29 C1 0.930 . S
H30 C10 0.930 . S
H31 C22 0.929 . S
H32 C25 0.930 . S
C33 C34 1.351 . S
C33 N36 1.368 . S
C33 H38 0.931 . S
C34 C33 1.351 . S
C34 N35 1.373 . S
C34 H62 0.930 . S
N35 C34 1.373 . S
N35 C37 1.340 . S
N36 C33 1.368 . S
N36 C37 1.321 . S
N36 Co39 2.135 . S
C37 N35 1.340 . S
C37 N36 1.321 . S
C37 H61 0.930 . S
H38 C33 0.931 . S
Co39 N36 2.135 . S
Co39 N42 2.121 . S
Co39 O47 2.055 . S
Co39 O50 2.039 . S
Co39 N53 2.140 . S
C40 O41 1.227 . S
C40 O50 1.265 . S
O41 C40 1.227 . S
N42 Co39 2.121 . S
N42 C44 1.375 . S
N42 C45 1.313 . S
C43 C44 1.338 . S
C43 N46 1.377 . S
C43 H63 0.930 . S
C44 N42 1.375 . S
C44 C43 1.338 . S
C44 H48 0.931 . S
C45 N42 1.313 . S
C45 N46 1.344 . S
C45 H49 0.930 . S
N46 C43 1.377 . S
N46 C45 1.344 . S
O47 Co39 2.055 . S
O47 C51 1.253 . S
H48 C44 0.931 . S
H49 C45 0.930 . S
O50 Co39 2.039 . S
O50 C40 1.265 . S
C51 O47 1.253 . S
C51 O52 1.227 . S
O52 C51 1.227 . S
N53 Co39 2.140 . S
N53 C56 1.346 . S
N53 C57 1.345 . S
C54 C55 1.387 . S
C54 C58 1.391 . S
C55 C54 1.387 . S
C55 C56 1.369 . S
C55 H64 0.929 . S
C56 N53 1.346 . S
C56 C55 1.369 . S
C56 H59 0.928 . S
C57 N53 1.345 . S
C57 C58 1.371 . S
C57 H60 0.931 . S
C58 C54 1.391 . S
C58 C57 1.371 . S
C58 H65 0.930 . S
H59 C56 0.928 . S
H60 C57 0.931 . S
H61 C37 0.930 . S
H62 C34 0.930 . S
H63 C43 0.930 . S
H64 C55 0.929 . S
H65 C58 0.930 . S
C66 C67 1.351 . S
C66 N69 1.368 . S
C66 H71 0.931 . S
C67 C66 1.351 . S
C67 N68 1.373 . S
C67 H95 0.930 . S
N68 C67 1.373 . S
N68 C70 1.340 . S
N69 C66 1.368 . S
N69 C70 1.321 . S
N69 Co72 2.135 . S
C70 N68 1.340 . S
C70 N69 1.321 . S
C70 H94 0.930 . S
H71 C66 0.931 . S
Co72 N69 2.135 . S
Co72 N75 2.121 . S
Co72 O80 2.055 . S
Co72 O83 2.039 . S
Co72 N86 2.140 . S
C73 O74 1.227 . S
C73 O83 1.265 . S
O74 C73 1.227 . S
N75 Co72 2.121 . S
N75 C77 1.375 . S
N75 C78 1.313 . S
C76 C77 1.338 . S
C76 N79 1.377 . S
C76 H96 0.930 . S
C77 N75 1.375 . S
C77 C76 1.338 . S
C77 H81 0.931 . S
C78 N75 1.313 . S
C78 N79 1.344 . S
C78 H82 0.930 . S
N79 C76 1.377 . S
N79 C78 1.344 . S
O80 Co72 2.055 . S
O80 C84 1.253 . S
H81 C77 0.931 . S
H82 C78 0.930 . S
O83 Co72 2.039 . S
O83 C73 1.265 . S
C84 O80 1.253 . S
C84 O85 1.227 . S
O85 C84 1.227 . S
N86 Co72 2.140 . S
N86 C89 1.346 . S
N86 C90 1.345 . S
C87 C88 1.387 . S
C87 C91 1.391 . S
C88 C87 1.387 . S
C88 C89 1.369 1_655 S
C88 H97 0.929 . S
C89 N86 1.346 . S
C89 C88 1.369 1_455 S
C89 H92 0.928 . S
C90 N86 1.345 . S
C90 C91 1.371 1_455 S
C90 H93 0.931 . S
C91 C87 1.391 . S
C91 C90 1.371 1_655 S
C91 H98 0.930 . S
H92 C89 0.928 . S
H93 C90 0.931 . S
H94 C70 0.930 . S
H95 C67 0.930 . S
H96 C76 0.930 . S
H97 C88 0.929 . S
H98 C91 0.930 . S
C99 C100 1.351 . S
C99 N102 1.368 . S
C99 H104 0.931 . S
C100 C99 1.351 . S
C100 N101 1.373 . S
C100 H128 0.930 . S
N101 C100 1.373 . S
N101 C103 1.340 . S
N102 C99 1.368 . S
N102 C103 1.321 . S
N102 Co105 2.135 . S
C103 N101 1.340 . S
C103 N102 1.321 . S
C103 H127 0.930 . S
H104 C99 0.931 . S
Co105 N102 2.135 . S
Co105 N108 2.121 . S
Co105 O113 2.055 . S
Co105 O116 2.039 . S
Co105 N119 2.140 . S
C106 O107 1.227 . S
C106 O116 1.265 . S
O107 C106 1.227 . S
N108 Co105 2.121 . S
N108 C110 1.375 . S
N108 C111 1.313 . S
C109 C110 1.338 . S
C109 N112 1.377 . S
C109 H129 0.930 . S
C110 N108 1.375 . S
C110 C109 1.338 . S
C110 H114 0.931 . S
C111 N108 1.313 . S
C111 N112 1.344 . S
C111 H115 0.930 . S
N112 C109 1.377 . S
N112 C111 1.344 . S
O113 Co105 2.055 . S
O113 C117 1.253 . S
H114 C110 0.931 . S
H115 C111 0.930 . S
O116 Co105 2.039 . S
O116 C106 1.265 . S
C117 O113 1.253 . S
C117 O118 1.227 . S
O118 C117 1.227 . S
N119 Co105 2.140 . S
N119 C122 1.346 . S
N119 C123 1.345 . S
C120 C121 1.387 . S
C120 C124 1.391 . S
C121 C120 1.387 . S
C121 C122 1.369 . S
C121 H130 0.929 . S
C122 N119 1.346 . S
C122 C121 1.369 . S
C122 H125 0.928 . S
C123 N119 1.345 . S
C123 C124 1.371 . S
C123 H126 0.931 . S
C124 C120 1.391 . S
C124 C123 1.371 . S
C124 H131 0.930 . S
H125 C122 0.928 . S
H126 C123 0.931 . S
H127 C103 0.930 . S
H128 C100 0.930 . S
H129 C109 0.930 . S
H130 C121 0.929 . S
H131 C124 0.930 . S
C132 C133 1.351 . S
C132 N135 1.368 . S
C132 H137 0.931 . S
C133 C132 1.351 . S
C133 N134 1.373 . S
C133 H161 0.930 . S
N134 C133 1.373 . S
N134 C136 1.340 . S
N135 C132 1.368 . S
N135 C136 1.321 . S
N135 Co138 2.135 . S
C136 N134 1.340 . S
C136 N135 1.321 . S
C136 H160 0.930 . S
H137 C132 0.931 . S
Co138 N135 2.135 . S
Co138 N141 2.121 . S
Co138 O146 2.055 . S
Co138 O149 2.039 . S
Co138 N152 2.140 . S
C139 O140 1.227 . S
C139 O149 1.265 . S
O140 C139 1.227 . S
N141 Co138 2.121 . S
N141 C143 1.375 . S
N141 C144 1.313 . S
C142 C143 1.338 . S
C142 N145 1.377 . S
C142 H162 0.930 . S
C143 N141 1.375 . S
C143 C142 1.338 . S
C143 H147 0.931 . S
C144 N141 1.313 . S
C144 N145 1.344 . S
C144 H148 0.930 . S
N145 C142 1.377 . S
N145 C144 1.344 . S
O146 Co138 2.055 . S
O146 C150 1.253 . S
H147 C143 0.931 . S
H148 C144 0.930 . S
O149 Co138 2.039 . S
O149 C139 1.265 . S
C150 O146 1.253 . S
C150 O151 1.227 . S
O151 C150 1.227 . S
N152 Co138 2.140 . S
N152 C155 1.346 . S
N152 C156 1.345 . S
C153 C154 1.387 . S
C153 C157 1.391 . S
C154 C153 1.387 . S
C154 C155 1.369 1_455 S
C154 H163 0.929 . S
C155 N152 1.346 . S
C155 C154 1.369 1_655 S
C155 H158 0.928 . S
C156 N152 1.345 . S
C156 C157 1.371 1_655 S
C156 H159 0.931 . S
C157 C153 1.391 . S
C157 C156 1.371 1_455 S
C157 H164 0.930 . S
H158 C155 0.928 . S
H159 C156 0.931 . S
H160 C136 0.930 . S
H161 C133 0.930 . S
H162 C142 0.930 . S
H163 C154 0.929 . S
H164 C157 0.930 . S
C165 C166 1.351 . S
C165 N168 1.368 . S
C165 H170 0.931 . S
C166 C165 1.351 . S
C166 N167 1.373 . S
C166 H194 0.930 . S
N167 C166 1.373 . S
N167 C169 1.340 . S
N168 C165 1.368 . S
N168 C169 1.321 . S
N168 Co171 2.135 . S
C169 N167 1.340 . S
C169 N168 1.321 . S
C169 H193 0.930 . S
H170 C165 0.931 . S
Co171 N168 2.135 . S
Co171 N174 2.121 . S
Co171 O179 2.055 . S
Co171 O182 2.039 . S
Co171 N185 2.140 . S
C172 O173 1.227 . S
C172 O182 1.265 . S
O173 C172 1.227 . S
N174 Co171 2.121 . S
N174 C176 1.375 . S
N174 C177 1.313 . S
C175 C176 1.338 . S
C175 N178 1.377 . S
C175 H195 0.930 . S
C176 N174 1.375 . S
C176 C175 1.338 . S
C176 H180 0.931 . S
C177 N174 1.313 . S
C177 N178 1.344 . S
C177 H181 0.930 . S
N178 C175 1.377 . S
N178 C177 1.344 . S
O179 Co171 2.055 . S
O179 C183 1.253 . S
H180 C176 0.931 . S
H181 C177 0.930 . S
O182 Co171 2.039 . S
O182 C172 1.265 . S
C183 O179 1.253 . S
C183 O184 1.227 . S
O184 C183 1.227 . S
N185 Co171 2.140 . S
N185 C188 1.346 . S
N185 C189 1.345 . S
C186 C187 1.387 . S
C186 C190 1.391 . S
C187 C186 1.387 . S
C187 C188 1.369 . S
C187 H196 0.929 . S
C188 N185 1.346 . S
C188 C187 1.369 . S
C188 H191 0.928 . S
C189 N185 1.345 . S
C189 C190 1.371 . S
C189 H192 0.931 . S
C190 C186 1.391 . S
C190 C189 1.371 . S
C190 H197 0.930 . S
H191 C188 0.928 . S
H192 C189 0.931 . S
H193 C169 0.930 . S
H194 C166 0.930 . S
H195 C175 0.930 . S
H196 C187 0.929 . S
H197 C190 0.930 . S
C198 C199 1.351 . S
C198 N201 1.368 . S
C198 H203 0.931 . S
C199 C198 1.351 . S
C199 N200 1.373 . S
C199 H227 0.930 . S
N200 C199 1.373 . S
N200 C202 1.340 . S
N201 C198 1.368 . S
N201 C202 1.321 . S
N201 Co204 2.135 . S
C202 N200 1.340 . S
C202 N201 1.321 . S
C202 H226 0.930 . S
H203 C198 0.931 . S
Co204 N201 2.135 . S
Co204 N207 2.121 . S
Co204 O212 2.055 . S
Co204 O215 2.039 . S
Co204 N218 2.140 . S
C205 O206 1.227 . S
C205 O215 1.265 . S
O206 C205 1.227 . S
N207 Co204 2.121 . S
N207 C209 1.375 . S
N207 C210 1.313 . S
C208 C209 1.338 . S
C208 N211 1.377 . S
C208 H228 0.930 . S
C209 N207 1.375 . S
C209 C208 1.338 . S
C209 H213 0.931 . S
C210 N207 1.313 . S
C210 N211 1.344 . S
C210 H214 0.930 . S
N211 C208 1.377 . S
N211 C210 1.344 . S
O212 Co204 2.055 . S
O212 C216 1.253 . S
H213 C209 0.931 . S
H214 C210 0.930 . S
O215 Co204 2.039 . S
O215 C205 1.265 . S
C216 O212 1.253 . S
C216 O217 1.227 . S
O217 C216 1.227 . S
N218 Co204 2.140 . S
N218 C221 1.346 . S
N218 C222 1.345 . S
C219 C220 1.387 . S
C219 C223 1.391 . S
C220 C219 1.387 . S
C220 C221 1.369 1_455 S
C220 H229 0.929 . S
C221 N218 1.346 . S
C221 C220 1.369 1_655 S
C221 H224 0.928 . S
C222 N218 1.345 . S
C222 C223 1.371 1_655 S
C222 H225 0.931 . S
C223 C219 1.391 . S
C223 C222 1.371 1_455 S
C223 H230 0.930 . S
H224 C221 0.928 . S
H225 C222 0.931 . S
H226 C202 0.930 . S
H227 C199 0.930 . S
H228 C208 0.930 . S
H229 C220 0.929 . S
H230 C223 0.930 . S
C231 C232 1.351 . S
C231 N234 1.368 . S
C231 H236 0.931 . S
C232 C231 1.351 . S
C232 N233 1.373 . S
C232 H260 0.930 . S
N233 C232 1.373 . S
N233 C235 1.340 . S
N234 C231 1.368 . S
N234 C235 1.321 . S
N234 Co237 2.135 . S
C235 N233 1.340 . S
C235 N234 1.321 . S
C235 H259 0.930 . S
H236 C231 0.931 . S
Co237 N234 2.135 . S
Co237 N240 2.121 . S
Co237 O245 2.055 . S
Co237 O248 2.039 . S
Co237 N251 2.140 . S
C238 O239 1.227 . S
C238 O248 1.265 . S
O239 C238 1.227 . S
N240 Co237 2.121 . S
N240 C242 1.375 . S
N240 C243 1.313 . S
C241 C242 1.338 . S
C241 N244 1.377 . S
C241 H261 0.930 . S
C242 N240 1.375 . S
C242 C241 1.338 . S
C242 H246 0.931 . S
C243 N240 1.313 . S
C243 N244 1.344 . S
C243 H247 0.930 . S
N244 C241 1.377 . S
N244 C243 1.344 . S
O245 Co237 2.055 . S
O245 C249 1.253 . S
H246 C242 0.931 . S
H247 C243 0.930 . S
O248 Co237 2.039 . S
O248 C238 1.265 . S
C249 O245 1.253 . S
C249 O250 1.227 . S
O250 C249 1.227 . S
N251 Co237 2.140 . S
N251 C254 1.346 . S
N251 C255 1.345 . S
C252 C253 1.387 . S
C252 C256 1.391 . S
C253 C252 1.387 . S
C253 C254 1.369 . S
C253 H262 0.929 . S
C254 N251 1.346 . S
C254 C253 1.369 . S
C254 H257 0.928 . S
C255 N251 1.345 . S
C255 C256 1.371 . S
C255 H258 0.931 . S
C256 C252 1.391 . S
C256 C255 1.371 . S
C256 H263 0.930 . S
H257 C254 0.928 . S
H258 C255 0.931 . S
H259 C235 0.930 . S
H260 C232 0.930 . S
H261 C241 0.930 . S
H262 C253 0.929 . S
H263 C256 0.930 . S
C264 C265 1.351 . S
C264 N267 1.368 . S
C264 H269 0.931 . S
C265 C264 1.351 . S
C265 N266 1.373 . S
C265 H293 0.930 . S
N266 C265 1.373 . S
N266 C268 1.340 . S
N267 C264 1.368 . S
N267 C268 1.321 . S
N267 Co270 2.135 . S
C268 N266 1.340 . S
C268 N267 1.321 . S
C268 H292 0.930 . S
H269 C264 0.931 . S
Co270 N267 2.135 . S
Co270 N273 2.121 . S
Co270 O278 2.055 . S
Co270 O281 2.039 . S
Co270 N284 2.140 . S
C271 O272 1.227 . S
C271 O281 1.265 . S
O272 C271 1.227 . S
N273 Co270 2.121 . S
N273 C275 1.375 . S
N273 C276 1.313 . S
C274 C275 1.338 . S
C274 N277 1.377 . S
C274 H294 0.930 . S
C275 N273 1.375 . S
C275 C274 1.338 . S
C275 H279 0.931 . S
C276 N273 1.313 . S
C276 N277 1.344 . S
C276 H280 0.930 . S
N277 C274 1.377 . S
N277 C276 1.344 . S
O278 Co270 2.055 . S
O278 C282 1.253 . S
H279 C275 0.931 . S
H280 C276 0.930 . S
O281 Co270 2.039 . S
O281 C271 1.265 . S
C282 O278 1.253 . S
C282 O283 1.227 . S
O283 C282 1.227 . S
N284 Co270 2.140 . S
N284 C287 1.346 . S
N284 C288 1.345 . S
C285 C286 1.387 . S
C285 C289 1.391 . S
C286 C285 1.387 . S
C286 C287 1.369 1_655 S
C286 H295 0.929 . S
C287 N284 1.346 . S
C287 C286 1.369 1_455 S
C287 H290 0.928 . S
C288 N284 1.345 . S
C288 C289 1.371 1_455 S
C288 H291 0.931 . S
C289 C285 1.391 . S
C289 C288 1.371 1_655 S
C289 H296 0.930 . S
H290 C287 0.928 . S
H291 C288 0.931 . S
H292 C268 0.930 . S
H293 C265 0.930 . S
H294 C274 0.930 . S
H295 C286 0.929 . S
H296 C289 0.930 . S
C297 C298 1.351 . S
C297 N300 1.368 . S
C297 H302 0.931 . S
C298 C297 1.351 . S
C298 N299 1.373 . S
C298 H326 0.930 . S
N299 C298 1.373 . S
N299 C301 1.340 . S
N300 C297 1.368 . S
N300 C301 1.321 . S
N300 Co303 2.135 . S
C301 N299 1.340 . S
C301 N300 1.321 . S
C301 H325 0.930 . S
H302 C297 0.931 . S
Co303 N300 2.135 . S
Co303 N306 2.121 . S
Co303 O311 2.055 . S
Co303 O314 2.039 . S
Co303 N317 2.140 . S
C304 O305 1.227 . S
C304 O314 1.265 . S
O305 C304 1.227 . S
N306 Co303 2.121 . S
N306 C308 1.375 . S
N306 C309 1.313 . S
C307 C308 1.338 . S
C307 N310 1.377 . S
C307 H327 0.930 . S
C308 N306 1.375 . S
C308 C307 1.338 . S
C308 H312 0.931 . S
C309 N306 1.313 . S
C309 N310 1.344 . S
C309 H313 0.930 . S
N310 C307 1.377 . S
N310 C309 1.344 . S
O311 Co303 2.055 . S
O311 C315 1.253 . S
H312 C308 0.931 . S
H313 C309 0.930 . S
O314 Co303 2.039 . S
O314 C304 1.265 . S
C315 O311 1.253 . S
C315 O316 1.227 . S
O316 C315 1.227 . S
N317 Co303 2.140 . S
N317 C320 1.346 . S
N317 C321 1.345 . S
C318 C319 1.387 . S
C318 C322 1.391 . S
C319 C318 1.387 . S
C319 C320 1.369 . S
C319 H328 0.929 . S
C320 N317 1.346 . S
C320 C319 1.369 . S
C320 H323 0.928 . S
C321 N317 1.345 . S
C321 C322 1.371 . S
C321 H324 0.931 . S
C322 C318 1.391 . S
C322 C321 1.371 . S
C322 H329 0.930 . S
H323 C320 0.928 . S
H324 C321 0.931 . S
H325 C301 0.930 . S
H326 C298 0.930 . S
H327 C307 0.930 . S
H328 C319 0.929 . S
H329 C322 0.930 . S
C330 C331 1.351 . S
C330 N333 1.368 . S
C330 H335 0.931 . S
C331 C330 1.351 . S
C331 N332 1.373 . S
C331 H359 0.930 . S
N332 C331 1.373 . S
N332 C334 1.340 . S
N333 C330 1.368 . S
N333 C334 1.321 . S
N333 Co336 2.135 . S
C334 N332 1.340 . S
C334 N333 1.321 . S
C334 H358 0.930 . S
H335 C330 0.931 . S
Co336 N333 2.135 . S
Co336 N339 2.121 . S
Co336 O344 2.055 . S
Co336 O347 2.039 . S
Co336 N350 2.140 . S
C337 O338 1.227 . S
C337 O347 1.265 . S
O338 C337 1.227 . S
N339 Co336 2.121 . S
N339 C341 1.375 . S
N339 C342 1.313 . S
C340 C341 1.338 . S
C340 N343 1.377 . S
C340 H360 0.930 . S
C341 N339 1.375 . S
C341 C340 1.338 . S
C341 H345 0.931 . S
C342 N339 1.313 . S
C342 N343 1.344 . S
C342 H346 0.930 . S
N343 C340 1.377 . S
N343 C342 1.344 . S
O344 Co336 2.055 . S
O344 C348 1.253 . S
H345 C341 0.931 . S
H346 C342 0.930 . S
O347 Co336 2.039 . S
O347 C337 1.265 . S
C348 O344 1.253 . S
C348 O349 1.227 . S
O349 C348 1.227 . S
N350 Co336 2.140 . S
N350 C353 1.346 . S
N350 C354 1.345 . S
C351 C352 1.387 . S
C351 C355 1.391 . S
C352 C351 1.387 . S
C352 C353 1.369 1_655 S
C352 H361 0.929 . S
C353 N350 1.346 . S
C353 C352 1.369 1_455 S
C353 H356 0.928 . S
C354 N350 1.345 . S
C354 C355 1.371 1_455 S
C354 H357 0.931 . S
C355 C351 1.391 . S
C355 C354 1.371 1_655 S
C355 H362 0.930 . S
H356 C353 0.928 . S
H357 C354 0.931 . S
H358 C334 0.930 . S
H359 C331 0.930 . S
H360 C340 0.930 . S
H361 C352 0.929 . S
H362 C355 0.930 . S
C363 C364 1.351 . S
C363 N366 1.368 . S
C363 H368 0.931 . S
C364 C363 1.351 . S
C364 N365 1.373 . S
C364 H392 0.930 . S
N365 C364 1.373 . S
N365 C367 1.340 . S
N366 C363 1.368 . S
N366 C367 1.321 . S
N366 Co369 2.135 . S
C367 N365 1.340 . S
C367 N366 1.321 . S
C367 H391 0.930 . S
H368 C363 0.931 . S
Co369 N366 2.135 . S
Co369 N372 2.121 . S
Co369 O377 2.055 . S
Co369 O380 2.039 . S
Co369 N383 2.140 . S
C370 O371 1.227 . S
C370 O380 1.265 . S
O371 C370 1.227 . S
N372 Co369 2.121 . S
N372 C374 1.375 . S
N372 C375 1.313 . S
C373 C374 1.338 . S
C373 N376 1.377 . S
C373 H393 0.930 . S
C374 N372 1.375 . S
C374 C373 1.338 . S
C374 H378 0.931 . S
C375 N372 1.313 . S
C375 N376 1.344 . S
C375 H379 0.930 . S
N376 C373 1.377 . S
N376 C375 1.344 . S
O377 Co369 2.055 . S
O377 C381 1.253 . S
H378 C374 0.931 . S
H379 C375 0.930 . S
O380 Co369 2.039 . S
O380 C370 1.265 . S
C381 O377 1.253 . S
C381 O382 1.227 . S
O382 C381 1.227 . S
N383 Co369 2.140 . S
N383 C386 1.346 . S
N383 C387 1.345 . S
C384 C385 1.387 . S
C384 C388 1.391 . S
C385 C384 1.387 . S
C385 C386 1.369 . S
C385 H394 0.929 . S
C386 N383 1.346 . S
C386 C385 1.369 . S
C386 H389 0.928 . S
C387 N383 1.345 . S
C387 C388 1.371 . S
C387 H390 0.931 . S
C388 C384 1.391 . S
C388 C387 1.371 . S
C388 H395 0.930 . S
H389 C386 0.928 . S
H390 C387 0.931 . S
H391 C367 0.930 . S
H392 C364 0.930 . S
H393 C373 0.930 . S
H394 C385 0.929 . S
H395 C388 0.930 . S
C396 C397 1.351 . S
C396 N399 1.368 . S
C396 H401 0.931 . S
C397 C396 1.351 . S
C397 N398 1.373 . S
C397 H425 0.930 . S
N398 C397 1.373 . S
N398 C400 1.340 . S
N399 C396 1.368 . S
N399 C400 1.321 . S
N399 Co402 2.135 . S
C400 N398 1.340 . S
C400 N399 1.321 . S
C400 H424 0.930 . S
H401 C396 0.931 . S
Co402 N399 2.135 . S
Co402 N405 2.121 . S
Co402 O410 2.055 . S
Co402 O413 2.039 . S
Co402 N416 2.140 . S
C403 O404 1.227 . S
C403 O413 1.265 . S
O404 C403 1.227 . S
N405 Co402 2.121 . S
N405 C407 1.375 . S
N405 C408 1.313 . S
C406 C407 1.338 . S
C406 N409 1.377 . S
C406 H426 0.930 . S
C407 N405 1.375 . S
C407 C406 1.338 . S
C407 H411 0.931 . S
C408 N405 1.313 . S
C408 N409 1.344 . S
C408 H412 0.930 . S
N409 C406 1.377 . S
N409 C408 1.344 . S
O410 Co402 2.055 . S
O410 C414 1.253 . S
H411 C407 0.931 . S
H412 C408 0.930 . S
O413 Co402 2.039 . S
O413 C403 1.265 . S
C414 O410 1.253 . S
C414 O415 1.227 . S
O415 C414 1.227 . S
N416 Co402 2.140 . S
N416 C419 1.346 . S
N416 C420 1.345 . S
C417 C418 1.387 . S
C417 C421 1.391 . S
C418 C417 1.387 . S
C418 C419 1.369 1_455 S
C418 H427 0.929 . S
C419 N416 1.346 . S
C419 C418 1.369 1_655 S
C419 H422 0.928 . S
C420 N416 1.345 . S
C420 C421 1.371 1_655 S
C420 H423 0.931 . S
C421 C417 1.391 . S
C421 C420 1.371 1_455 S
C421 H428 0.930 . S
H422 C419 0.928 . S
H423 C420 0.931 . S
H424 C400 0.930 . S
H425 C397 0.930 . S
H426 C406 0.930 . S
H427 C418 0.929 . S
H428 C421 0.930 . S
C429 C430 1.351 . S
C429 N432 1.368 . S
C429 H434 0.931 . S
C430 C429 1.351 . S
C430 N431 1.373 . S
C430 H458 0.930 . S
N431 C430 1.373 . S
N431 C433 1.340 . S
N432 C429 1.368 . S
N432 C433 1.321 . S
N432 Co435 2.135 . S
C433 N431 1.340 . S
C433 N432 1.321 . S
C433 H457 0.930 . S
H434 C429 0.931 . S
Co435 N432 2.135 . S
Co435 N438 2.121 . S
Co435 O443 2.055 . S
Co435 O446 2.039 . S
Co435 N449 2.140 . S
C436 O437 1.227 . S
C436 O446 1.265 . S
O437 C436 1.227 . S
N438 Co435 2.121 . S
N438 C440 1.375 . S
N438 C441 1.313 . S
C439 C440 1.338 . S
C439 N442 1.377 . S
C439 H459 0.930 . S
C440 N438 1.375 . S
C440 C439 1.338 . S
C440 H444 0.931 . S
C441 N438 1.313 . S
C441 N442 1.344 . S
C441 H445 0.930 . S
N442 C439 1.377 . S
N442 C441 1.344 . S
O443 Co435 2.055 . S
O443 C447 1.253 . S
H444 C440 0.931 . S
H445 C441 0.930 . S
O446 Co435 2.039 . S
O446 C436 1.265 . S
C447 O443 1.253 . S
C447 O448 1.227 . S
O448 C447 1.227 . S
N449 Co435 2.140 . S
N449 C452 1.346 . S
N449 C453 1.345 . S
C450 C451 1.387 . S
C450 C454 1.391 . S
C451 C450 1.387 . S
C451 C452 1.369 . S
C451 H460 0.929 . S
C452 N449 1.346 . S
C452 C451 1.369 . S
C452 H455 0.928 . S
C453 N449 1.345 . S
C453 C454 1.371 . S
C453 H456 0.931 . S
C454 C450 1.391 . S
C454 C453 1.371 . S
C454 H461 0.930 . S
H455 C452 0.928 . S
H456 C453 0.931 . S
H457 C433 0.930 . S
H458 C430 0.930 . S
H459 C439 0.930 . S
H460 C451 0.929 . S
H461 C454 0.930 . S
C462 C463 1.351 . S
C462 N465 1.368 . S
C462 H467 0.931 . S
C463 C462 1.351 . S
C463 N464 1.373 . S
C463 H491 0.930 . S
N464 C463 1.373 . S
N464 C466 1.340 . S
N465 C462 1.368 . S
N465 C466 1.321 . S
N465 Co468 2.135 . S
C466 N464 1.340 . S
C466 N465 1.321 . S
C466 H490 0.930 . S
H467 C462 0.931 . S
Co468 N465 2.135 . S
Co468 N471 2.121 . S
Co468 O476 2.055 . S
Co468 O479 2.039 . S
Co468 N482 2.140 . S
C469 O470 1.227 . S
C469 O479 1.265 . S
O470 C469 1.227 . S
N471 Co468 2.121 . S
N471 C473 1.375 . S
N471 C474 1.313 . S
C472 C473 1.338 . S
C472 N475 1.377 . S
C472 H492 0.930 . S
C473 N471 1.375 . S
C473 C472 1.338 . S
C473 H477 0.931 . S
C474 N471 1.313 . S
C474 N475 1.344 . S
C474 H478 0.930 . S
N475 C472 1.377 . S
N475 C474 1.344 . S
O476 Co468 2.055 . S
O476 C480 1.253 . S
H477 C473 0.931 . S
H478 C474 0.930 . S
O479 Co468 2.039 . S
O479 C469 1.265 . S
C480 O476 1.253 . S
C480 O481 1.227 . S
O481 C480 1.227 . S
N482 Co468 2.140 . S
N482 C485 1.346 . S
N482 C486 1.345 . S
C483 C484 1.387 . S
C483 C487 1.391 . S
C484 C483 1.387 . S
C484 C485 1.369 1_455 S
C484 H493 0.929 . S
C485 N482 1.346 . S
C485 C484 1.369 1_655 S
C485 H488 0.928 . S
C486 N482 1.345 . S
C486 C487 1.371 1_655 S
C486 H489 0.931 . S
C487 C483 1.391 . S
C487 C486 1.371 1_455 S
C487 H494 0.930 . S
H488 C485 0.928 . S
H489 C486 0.931 . S
H490 C466 0.930 . S
H491 C463 0.930 . S
H492 C472 0.930 . S
H493 C484 0.929 . S
H494 C487 0.930 . S
C495 C496 1.351 . S
C495 N498 1.368 . S
C495 H500 0.931 . S
C496 C495 1.351 . S
C496 N497 1.373 . S
C496 H524 0.930 . S
N497 C496 1.373 . S
N497 C499 1.340 . S
N498 C495 1.368 . S
N498 C499 1.321 . S
N498 Co501 2.135 . S
C499 N497 1.340 . S
C499 N498 1.321 . S
C499 H523 0.930 . S
H500 C495 0.931 . S
Co501 N498 2.135 . S
Co501 N504 2.121 . S
Co501 O509 2.055 . S
Co501 O512 2.039 . S
Co501 N515 2.140 . S
C502 O503 1.227 . S
C502 O512 1.265 . S
O503 C502 1.227 . S
N504 Co501 2.121 . S
N504 C506 1.375 . S
N504 C507 1.313 . S
C505 C506 1.338 . S
C505 N508 1.377 . S
C505 H525 0.930 . S
C506 N504 1.375 . S
C506 C505 1.338 . S
C506 H510 0.931 . S
C507 N504 1.313 . S
C507 N508 1.344 . S
C507 H511 0.930 . S
N508 C505 1.377 . S
N508 C507 1.344 . S
O509 Co501 2.055 . S
O509 C513 1.253 . S
H510 C506 0.931 . S
H511 C507 0.930 . S
O512 Co501 2.039 . S
O512 C502 1.265 . S
C513 O509 1.253 . S
C513 O514 1.227 . S
O514 C513 1.227 . S
N515 Co501 2.140 . S
N515 C518 1.346 . S
N515 C519 1.345 . S
C516 C517 1.387 . S
C516 C520 1.391 . S
C517 C516 1.387 . S
C517 C518 1.369 . S
C517 H526 0.929 . S
C518 N515 1.346 . S
C518 C517 1.369 . S
C518 H521 0.928 . S
C519 N515 1.345 . S
C519 C520 1.371 . S
C519 H522 0.931 . S
C520 C516 1.391 . S
C520 C519 1.371 . S
C520 H527 0.930 . S
H521 C518 0.928 . S
H522 C519 0.931 . S
H523 C499 0.930 . S
H524 C496 0.930 . S
H525 C505 0.930 . S
H526 C517 0.929 . S
H527 C520 0.930 . S
C528 C529 1.351 . S
C528 N531 1.368 . S
C528 H533 0.931 . S
C529 C528 1.351 . S
C529 N530 1.373 . S
C529 H557 0.930 . S
N530 C529 1.373 . S
N530 C532 1.340 . S
N531 C528 1.368 . S
N531 C532 1.321 . S
N531 Co534 2.135 . S
C532 N530 1.340 . S
C532 N531 1.321 . S
C532 H556 0.930 . S
H533 C528 0.931 . S
Co534 N531 2.135 . S
Co534 N537 2.121 . S
Co534 O542 2.055 . S
Co534 O545 2.039 . S
Co534 N548 2.140 . S
C535 O536 1.227 . S
C535 O545 1.265 . S
O536 C535 1.227 . S
N537 Co534 2.121 . S
N537 C539 1.375 . S
N537 C540 1.313 . S
C538 C539 1.338 . S
C538 N541 1.377 . S
C538 H558 0.930 . S
C539 N537 1.375 . S
C539 C538 1.338 . S
C539 H543 0.931 . S
C540 N537 1.313 . S
C540 N541 1.344 . S
C540 H544 0.930 . S
N541 C538 1.377 . S
N541 C540 1.344 . S
O542 Co534 2.055 . S
O542 C546 1.253 . S
H543 C539 0.931 . S
H544 C540 0.930 . S
O545 Co534 2.039 . S
O545 C535 1.265 . S
C546 O542 1.253 . S
C546 O547 1.227 . S
O547 C546 1.227 . S
N548 Co534 2.140 . S
N548 C551 1.346 . S
N548 C552 1.345 . S
C549 C550 1.387 . S
C549 C553 1.391 . S
C550 C549 1.387 . S
C550 C551 1.369 . S
C550 H559 0.929 . S
C551 N548 1.346 . S
C551 C550 1.369 . S
C551 H554 0.928 . S
C552 N548 1.345 . S
C552 C553 1.371 . S
C552 H555 0.931 . S
C553 C549 1.391 . S
C553 C552 1.371 . S
C553 H560 0.930 . S
H554 C551 0.928 . S
H555 C552 0.931 . S
H556 C532 0.930 . S
H557 C529 0.930 . S
H558 C538 0.930 . S
H559 C550 0.929 . S
H560 C553 0.930 . S
C561 C562 1.351 . S
C561 N564 1.368 . S
C561 H566 0.931 . S
C562 C561 1.351 . S
C562 N563 1.373 . S
C562 H590 0.930 . S
N563 C562 1.373 . S
N563 C565 1.340 . S
N564 C561 1.368 . S
N564 C565 1.321 . S
N564 Co567 2.135 . S
C565 N563 1.340 . S
C565 N564 1.321 . S
C565 H589 0.930 . S
H566 C561 0.931 . S
Co567 N564 2.135 . S
Co567 N570 2.121 . S
Co567 O575 2.055 . S
Co567 O578 2.039 . S
Co567 N581 2.140 . S
C568 O569 1.227 . S
C568 O578 1.265 . S
O569 C568 1.227 . S
N570 Co567 2.121 . S
N570 C572 1.375 . S
N570 C573 1.313 . S
C571 C572 1.338 . S
C571 N574 1.377 . S
C571 H591 0.930 . S
C572 N570 1.375 . S
C572 C571 1.338 . S
C572 H576 0.931 . S
C573 N570 1.313 . S
C573 N574 1.344 . S
C573 H577 0.930 . S
N574 C571 1.377 . S
N574 C573 1.344 . S
O575 Co567 2.055 . S
O575 C579 1.253 . S
H576 C572 0.931 . S
H577 C573 0.930 . S
O578 Co567 2.039 . S
O578 C568 1.265 . S
C579 O575 1.253 . S
C579 O580 1.227 . S
O580 C579 1.227 . S
N581 Co567 2.140 . S
N581 C584 1.346 . S
N581 C585 1.345 . S
C582 C583 1.387 . S
C582 C586 1.391 . S
C583 C582 1.387 . S
C583 C584 1.369 . S
C583 H592 0.929 . S
C584 N581 1.346 . S
C584 C583 1.369 . S
C584 H587 0.928 . S
C585 N581 1.345 . S
C585 C586 1.371 . S
C585 H588 0.931 . S
C586 C582 1.391 . S
C586 C585 1.371 . S
C586 H593 0.930 . S
H587 C584 0.928 . S
H588 C585 0.931 . S
H589 C565 0.930 . S
H590 C562 0.930 . S
H591 C571 0.930 . S
H592 C583 0.929 . S
H593 C586 0.930 . S
C594 C595 1.351 . S
C594 N597 1.368 . S
C594 H599 0.931 . S
C595 C594 1.351 . S
C595 N596 1.373 . S
C595 H623 0.930 . S
N596 C595 1.373 . S
N596 C598 1.340 . S
N597 C594 1.368 . S
N597 C598 1.321 . S
N597 Co600 2.135 . S
C598 N596 1.340 . S
C598 N597 1.321 . S
C598 H622 0.930 . S
H599 C594 0.931 . S
Co600 N597 2.135 . S
Co600 N603 2.121 . S
Co600 O608 2.055 . S
Co600 O611 2.039 . S
Co600 N614 2.140 . S
C601 O602 1.227 . S
C601 O611 1.265 . S
O602 C601 1.227 . S
N603 Co600 2.121 . S
N603 C605 1.375 . S
N603 C606 1.313 . S
C604 C605 1.338 . S
C604 N607 1.377 . S
C604 H624 0.930 . S
C605 N603 1.375 . S
C605 C604 1.338 . S
C605 H609 0.931 . S
C606 N603 1.313 . S
C606 N607 1.344 . S
C606 H610 0.930 . S
N607 C604 1.377 . S
N607 C606 1.344 . S
O608 Co600 2.055 . S
O608 C612 1.253 . S
H609 C605 0.931 . S
H610 C606 0.930 . S
O611 Co600 2.039 . S
O611 C601 1.265 . S
C612 O608 1.253 . S
C612 O613 1.227 . S
O613 C612 1.227 . S
N614 Co600 2.140 . S
N614 C617 1.346 . S
N614 C618 1.345 . S
C615 C616 1.387 . S
C615 C619 1.391 . S
C616 C615 1.387 . S
C616 C617 1.369 . S
C616 H625 0.929 . S
C617 N614 1.346 . S
C617 C616 1.369 . S
C617 H620 0.928 . S
C618 N614 1.345 . S
C618 C619 1.371 . S
C618 H621 0.931 . S
C619 C615 1.391 . S
C619 C618 1.371 . S
C619 H626 0.930 . S
H620 C617 0.928 . S
H621 C618 0.931 . S
H622 C598 0.930 . S
H623 C595 0.930 . S
H624 C604 0.930 . S
H625 C616 0.929 . S
H626 C619 0.930 . S
C627 C628 1.351 . S
C627 N630 1.368 . S
C627 H632 0.931 . S
C628 C627 1.351 . S
C628 N629 1.373 . S
C628 H656 0.930 . S
N629 C628 1.373 . S
N629 C631 1.340 . S
N630 C627 1.368 . S
N630 C631 1.321 . S
N630 Co633 2.135 . S
C631 N629 1.340 . S
C631 N630 1.321 . S
C631 H655 0.930 . S
H632 C627 0.931 . S
Co633 N630 2.135 . S
Co633 N636 2.121 . S
Co633 O641 2.055 . S
Co633 O644 2.039 . S
Co633 N647 2.140 . S
C634 O635 1.227 . S
C634 O644 1.265 . S
O635 C634 1.227 . S
N636 Co633 2.121 . S
N636 C638 1.375 . S
N636 C639 1.313 . S
C637 C638 1.338 . S
C637 N640 1.377 . S
C637 H657 0.930 . S
C638 N636 1.375 . S
C638 C637 1.338 . S
C638 H642 0.931 . S
C639 N636 1.313 . S
C639 N640 1.344 . S
C639 H643 0.930 . S
N640 C637 1.377 . S
N640 C639 1.344 . S
O641 Co633 2.055 . S
O641 C645 1.253 . S
H642 C638 0.931 . S
H643 C639 0.930 . S
O644 Co633 2.039 . S
O644 C634 1.265 . S
C645 O641 1.253 . S
C645 O646 1.227 . S
O646 C645 1.227 . S
N647 Co633 2.140 . S
N647 C650 1.346 . S
N647 C651 1.345 . S
C648 C649 1.387 . S
C648 C652 1.391 . S
C649 C648 1.387 . S
C649 C650 1.369 . S
C649 H658 0.929 . S
C650 N647 1.346 . S
C650 C649 1.369 . S
C650 H653 0.928 . S
C651 N647 1.345 . S
C651 C652 1.371 . S
C651 H654 0.931 . S
C652 C648 1.391 . S
C652 C651 1.371 . S
C652 H659 0.930 . S
H653 C650 0.928 . S
H654 C651 0.931 . S
H655 C631 0.930 . S
H656 C628 0.930 . S
H657 C637 0.930 . S
H658 C649 0.929 . S
H659 C652 0.930 . S
C660 C661 1.351 . S
C660 N663 1.368 . S
C660 H665 0.931 . S
C661 C660 1.351 . S
C661 N662 1.373 . S
C661 H689 0.930 . S
N662 C661 1.373 . S
N662 C664 1.340 . S
N663 C660 1.368 . S
N663 C664 1.321 . S
N663 Co666 2.135 . S
C664 N662 1.340 . S
C664 N663 1.321 . S
C664 H688 0.930 . S
H665 C660 0.931 . S
Co666 N663 2.135 . S
Co666 N669 2.121 . S
Co666 O674 2.055 . S
Co666 O677 2.039 . S
Co666 N680 2.140 . S
C667 O668 1.227 . S
C667 O677 1.265 . S
O668 C667 1.227 . S
N669 Co666 2.121 . S
N669 C671 1.375 . S
N669 C672 1.313 . S
C670 C671 1.338 . S
C670 N673 1.377 . S
C670 H690 0.930 . S
C671 N669 1.375 . S
C671 C670 1.338 . S
C671 H675 0.931 . S
C672 N669 1.313 . S
C672 N673 1.344 . S
C672 H676 0.930 . S
N673 C670 1.377 . S
N673 C672 1.344 . S
O674 Co666 2.055 . S
O674 C678 1.253 . S
H675 C671 0.931 . S
H676 C672 0.930 . S
O677 Co666 2.039 . S
O677 C667 1.265 . S
C678 O674 1.253 . S
C678 O679 1.227 . S
O679 C678 1.227 . S
N680 Co666 2.140 . S
N680 C683 1.346 . S
N680 C684 1.345 . S
C681 C682 1.387 . S
C681 C685 1.391 . S
C682 C681 1.387 . S
C682 C683 1.369 . S
C682 H691 0.929 . S
C683 N680 1.346 . S
C683 C682 1.369 . S
C683 H686 0.928 . S
C684 N680 1.345 . S
C684 C685 1.371 . S
C684 H687 0.931 . S
C685 C681 1.391 . S
C685 C684 1.371 . S
C685 H692 0.930 . S
H686 C683 0.928 . S
H687 C684 0.931 . S
H688 C664 0.930 . S
H689 C661 0.930 . S
H690 C670 0.930 . S
H691 C682 0.929 . S
H692 C685 0.930 . S
C693 C694 1.351 . S
C693 N696 1.368 . S
C693 H698 0.931 . S
C694 C693 1.351 . S
C694 N695 1.373 . S
C694 H722 0.930 . S
N695 C694 1.373 . S
N695 C697 1.340 . S
N696 C693 1.368 . S
N696 C697 1.321 . S
N696 Co699 2.135 . S
C697 N695 1.340 . S
C697 N696 1.321 . S
C697 H721 0.930 . S
H698 C693 0.931 . S
Co699 N696 2.135 . S
Co699 N702 2.121 . S
Co699 O707 2.055 . S
Co699 O710 2.039 . S
Co699 N713 2.140 . S
C700 O701 1.227 . S
C700 O710 1.265 . S
O701 C700 1.227 . S
N702 Co699 2.121 . S
N702 C704 1.375 . S
N702 C705 1.313 . S
C703 C704 1.338 . S
C703 N706 1.377 . S
C703 H723 0.930 . S
C704 N702 1.375 . S
C704 C703 1.338 . S
C704 H708 0.931 . S
C705 N702 1.313 . S
C705 N706 1.344 . S
C705 H709 0.930 . S
N706 C703 1.377 . S
N706 C705 1.344 . S
O707 Co699 2.055 . S
O707 C711 1.253 . S
H708 C704 0.931 . S
H709 C705 0.930 . S
O710 Co699 2.039 . S
O710 C700 1.265 . S
C711 O707 1.253 . S
C711 O712 1.227 . S
O712 C711 1.227 . S
N713 Co699 2.140 . S
N713 C716 1.346 . S
N713 C717 1.345 . S
C714 C715 1.387 . S
C714 C718 1.391 . S
C715 C714 1.387 . S
C715 C716 1.369 . S
C715 H724 0.929 . S
C716 N713 1.346 . S
C716 C715 1.369 . S
C716 H719 0.928 . S
C717 N713 1.345 . S
C717 C718 1.371 . S
C717 H720 0.931 . S
C718 C714 1.391 . S
C718 C717 1.371 . S
C718 H725 0.930 . S
H719 C716 0.928 . S
H720 C717 0.931 . S
H721 C697 0.930 . S
H722 C694 0.930 . S
H723 C703 0.930 . S
H724 C715 0.929 . S
H725 C718 0.930 . S
C726 C727 1.351 . S
C726 N729 1.368 . S
C726 H731 0.931 . S
C727 C726 1.351 . S
C727 N728 1.373 . S
C727 H755 0.930 . S
N728 C727 1.373 . S
N728 C730 1.340 . S
N729 C726 1.368 . S
N729 C730 1.321 . S
N729 Co732 2.135 . S
C730 N728 1.340 . S
C730 N729 1.321 . S
C730 H754 0.930 . S
H731 C726 0.931 . S
Co732 N729 2.135 . S
Co732 N735 2.121 . S
Co732 O740 2.055 . S
Co732 O743 2.039 . S
Co732 N746 2.140 . S
C733 O734 1.227 . S
C733 O743 1.265 . S
O734 C733 1.227 . S
N735 Co732 2.121 . S
N735 C737 1.375 . S
N735 C738 1.313 . S
C736 C737 1.338 . S
C736 N739 1.377 . S
C736 H756 0.930 . S
C737 N735 1.375 . S
C737 C736 1.338 . S
C737 H741 0.931 . S
C738 N735 1.313 . S
C738 N739 1.344 . S
C738 H742 0.930 . S
N739 C736 1.377 . S
N739 C738 1.344 . S
O740 Co732 2.055 . S
O740 C744 1.253 . S
H741 C737 0.931 . S
H742 C738 0.930 . S
O743 Co732 2.039 . S
O743 C733 1.265 . S
C744 O740 1.253 . S
C744 O745 1.227 . S
O745 C744 1.227 . S
N746 Co732 2.140 . S
N746 C749 1.346 . S
N746 C750 1.345 . S
C747 C748 1.387 . S
C747 C751 1.391 . S
C748 C747 1.387 . S
C748 C749 1.369 . S
C748 H757 0.929 . S
C749 N746 1.346 . S
C749 C748 1.369 . S
C749 H752 0.928 . S
C750 N746 1.345 . S
C750 C751 1.371 . S
C750 H753 0.931 . S
C751 C747 1.391 . S
C751 C750 1.371 . S
C751 H758 0.930 . S
H752 C749 0.928 . S
H753 C750 0.931 . S
H754 C730 0.930 . S
H755 C727 0.930 . S
H756 C736 0.930 . S
H757 C748 0.929 . S
H758 C751 0.930 . S
C759 C760 1.351 . S
C759 N762 1.368 . S
C759 H764 0.931 . S
C760 C759 1.351 . S
C760 N761 1.373 . S
C760 H788 0.930 . S
N761 C760 1.373 . S
N761 C763 1.340 . S
N762 C759 1.368 . S
N762 C763 1.321 . S
N762 Co765 2.135 . S
C763 N761 1.340 . S
C763 N762 1.321 . S
C763 H787 0.930 . S
H764 C759 0.931 . S
Co765 N762 2.135 . S
Co765 N768 2.121 . S
Co765 O773 2.055 . S
Co765 O776 2.039 . S
Co765 N779 2.140 . S
C766 O767 1.227 . S
C766 O776 1.265 . S
O767 C766 1.227 . S
N768 Co765 2.121 . S
N768 C770 1.375 . S
N768 C771 1.313 . S
C769 C770 1.338 . S
C769 N772 1.377 . S
C769 H789 0.930 . S
C770 N768 1.375 . S
C770 C769 1.338 . S
C770 H774 0.931 . S
C771 N768 1.313 . S
C771 N772 1.344 . S
C771 H775 0.930 . S
N772 C769 1.377 . S
N772 C771 1.344 . S
O773 Co765 2.055 . S
O773 C777 1.253 . S
H774 C770 0.931 . S
H775 C771 0.930 . S
O776 Co765 2.039 . S
O776 C766 1.265 . S
C777 O773 1.253 . S
C777 O778 1.227 . S
O778 C777 1.227 . S
N779 Co765 2.140 . S
N779 C782 1.346 . S
N779 C783 1.345 . S
C780 C781 1.387 . S
C780 C784 1.391 . S
C781 C780 1.387 . S
C781 C782 1.369 . S
C781 H790 0.929 . S
C782 N779 1.346 . S
C782 C781 1.369 . S
C782 H785 0.928 . S
C783 N779 1.345 . S
C783 C784 1.371 . S
C783 H786 0.931 . S
C784 C780 1.391 . S
C784 C783 1.371 . S
C784 H791 0.930 . S
H785 C782 0.928 . S
H786 C783 0.931 . S
H787 C763 0.930 . S
H788 C760 0.930 . S
H789 C769 0.930 . S
H790 C781 0.929 . S
H791 C784 0.930 . S
C792 C793 1.351 . S
C792 N795 1.368 . S
C792 H797 0.931 . S
C793 C792 1.351 . S
C793 N794 1.373 . S
C793 H821 0.930 . S
N794 C793 1.373 . S
N794 C796 1.340 . S
N795 C792 1.368 . S
N795 C796 1.321 . S
N795 Co798 2.135 . S
C796 N794 1.340 . S
C796 N795 1.321 . S
C796 H820 0.930 . S
H797 C792 0.931 . S
Co798 N795 2.135 . S
Co798 N801 2.121 . S
Co798 O806 2.055 . S
Co798 O809 2.039 . S
Co798 N812 2.140 . S
C799 O800 1.227 . S
C799 O809 1.265 . S
O800 C799 1.227 . S
N801 Co798 2.121 . S
N801 C803 1.375 . S
N801 C804 1.313 . S
C802 C803 1.338 . S
C802 N805 1.377 . S
C802 H822 0.930 . S
C803 N801 1.375 . S
C803 C802 1.338 . S
C803 H807 0.931 . S
C804 N801 1.313 . S
C804 N805 1.344 . S
C804 H808 0.930 . S
N805 C802 1.377 . S
N805 C804 1.344 . S
O806 Co798 2.055 . S
O806 C810 1.253 . S
H807 C803 0.931 . S
H808 C804 0.930 . S
O809 Co798 2.039 . S
O809 C799 1.265 . S
C810 O806 1.253 . S
C810 O811 1.227 . S
O811 C810 1.227 . S
N812 Co798 2.140 . S
N812 C815 1.346 . S
N812 C816 1.345 . S
C813 C814 1.387 . S
C813 C817 1.391 . S
C814 C813 1.387 . S
C814 C815 1.369 . S
C814 H823 0.929 . S
C815 N812 1.346 . S
C815 C814 1.369 . S
C815 H818 0.928 . S
C816 N812 1.345 . S
C816 C817 1.371 . S
C816 H819 0.931 . S
C817 C813 1.391 . S
C817 C816 1.371 . S
C817 H824 0.930 . S
H818 C815 0.928 . S
H819 C816 0.931 . S
H820 C796 0.930 . S
H821 C793 0.930 . S
H822 C802 0.930 . S
H823 C814 0.929 . S
H824 C817 0.930 . S
C825 C826 1.351 . S
C825 N828 1.368 . S
C825 H830 0.931 . S
C826 C825 1.351 . S
C826 N827 1.373 . S
C826 H854 0.930 . S
N827 C826 1.373 . S
N827 C829 1.340 . S
N828 C825 1.368 . S
N828 C829 1.321 . S
N828 Co831 2.135 . S
C829 N827 1.340 . S
C829 N828 1.321 . S
C829 H853 0.930 . S
H830 C825 0.931 . S
Co831 N828 2.135 . S
Co831 N834 2.121 . S
Co831 O839 2.055 . S
Co831 O842 2.039 . S
Co831 N845 2.140 . S
C832 O833 1.227 . S
C832 O842 1.265 . S
O833 C832 1.227 . S
N834 Co831 2.121 . S
N834 C836 1.375 . S
N834 C837 1.313 . S
C835 C836 1.338 . S
C835 N838 1.377 . S
C835 H855 0.930 . S
C836 N834 1.375 . S
C836 C835 1.338 . S
C836 H840 0.931 . S
C837 N834 1.313 . S
C837 N838 1.344 . S
C837 H841 0.930 . S
N838 C835 1.377 . S
N838 C837 1.344 . S
O839 Co831 2.055 . S
O839 C843 1.253 . S
H840 C836 0.931 . S
H841 C837 0.930 . S
O842 Co831 2.039 . S
O842 C832 1.265 . S
C843 O839 1.253 . S
C843 O844 1.227 . S
O844 C843 1.227 . S
N845 Co831 2.140 . S
N845 C848 1.346 . S
N845 C849 1.345 . S
C846 C847 1.387 . S
C846 C850 1.391 . S
C847 C846 1.387 . S
C847 C848 1.369 . S
C847 H856 0.929 . S
C848 N845 1.346 . S
C848 C847 1.369 . S
C848 H851 0.928 . S
C849 N845 1.345 . S
C849 C850 1.371 . S
C849 H852 0.931 . S
C850 C846 1.391 . S
C850 C849 1.371 . S
C850 H857 0.930 . S
H851 C848 0.928 . S
H852 C849 0.931 . S
H853 C829 0.930 . S
H854 C826 0.930 . S
H855 C835 0.930 . S
H856 C847 0.929 . S
H857 C850 0.930 . S
C858 C859 1.351 . S
C858 N861 1.368 . S
C858 H863 0.931 . S
C859 C858 1.351 . S
C859 N860 1.373 . S
C859 H887 0.930 . S
N860 C859 1.373 . S
N860 C862 1.340 . S
N861 C858 1.368 . S
N861 C862 1.321 . S
N861 Co864 2.135 . S
C862 N860 1.340 . S
C862 N861 1.321 . S
C862 H886 0.930 . S
H863 C858 0.931 . S
Co864 N861 2.135 . S
Co864 N867 2.121 . S
Co864 O872 2.055 . S
Co864 O875 2.039 . S
Co864 N878 2.140 . S
C865 O866 1.227 . S
C865 O875 1.265 . S
O866 C865 1.227 . S
N867 Co864 2.121 . S
N867 C869 1.375 . S
N867 C870 1.313 . S
C868 C869 1.338 . S
C868 N871 1.377 . S
C868 H888 0.930 . S
C869 N867 1.375 . S
C869 C868 1.338 . S
C869 H873 0.931 . S
C870 N867 1.313 . S
C870 N871 1.344 . S
C870 H874 0.930 . S
N871 C868 1.377 . S
N871 C870 1.344 . S
O872 Co864 2.055 . S
O872 C876 1.253 . S
H873 C869 0.931 . S
H874 C870 0.930 . S
O875 Co864 2.039 . S
O875 C865 1.265 . S
C876 O872 1.253 . S
C876 O877 1.227 . S
O877 C876 1.227 . S
N878 Co864 2.140 . S
N878 C881 1.346 . S
N878 C882 1.345 . S
C879 C880 1.387 . S
C879 C883 1.391 . S
C880 C879 1.387 . S
C880 C881 1.369 . S
C880 H889 0.929 . S
C881 N878 1.346 . S
C881 C880 1.369 . S
C881 H884 0.928 . S
C882 N878 1.345 . S
C882 C883 1.371 . S
C882 H885 0.931 . S
C883 C879 1.391 . S
C883 C882 1.371 . S
C883 H890 0.930 . S
H884 C881 0.928 . S
H885 C882 0.931 . S
H886 C862 0.930 . S
H887 C859 0.930 . S
H888 C868 0.930 . S
H889 C880 0.929 . S
H890 C883 0.930 . S
C891 C892 1.351 . S
C891 N894 1.368 . S
C891 H896 0.931 . S
C892 C891 1.351 . S
C892 N893 1.373 . S
C892 H920 0.930 . S
N893 C892 1.373 . S
N893 C895 1.340 . S
N894 C891 1.368 . S
N894 C895 1.321 . S
N894 Co897 2.135 . S
C895 N893 1.340 . S
C895 N894 1.321 . S
C895 H919 0.930 . S
H896 C891 0.931 . S
Co897 N894 2.135 . S
Co897 N900 2.121 . S
Co897 O905 2.055 . S
Co897 O908 2.039 . S
Co897 N911 2.140 . S
C898 O899 1.227 . S
C898 O908 1.265 . S
O899 C898 1.227 . S
N900 Co897 2.121 . S
N900 C902 1.375 . S
N900 C903 1.313 . S
C901 C902 1.338 . S
C901 N904 1.377 . S
C901 H921 0.930 . S
C902 N900 1.375 . S
C902 C901 1.338 . S
C902 H906 0.931 . S
C903 N900 1.313 . S
C903 N904 1.344 . S
C903 H907 0.930 . S
N904 C901 1.377 . S
N904 C903 1.344 . S
O905 Co897 2.055 . S
O905 C909 1.253 . S
H906 C902 0.931 . S
H907 C903 0.930 . S
O908 Co897 2.039 . S
O908 C898 1.265 . S
C909 O905 1.253 . S
C909 O910 1.227 . S
O910 C909 1.227 . S
N911 Co897 2.140 . S
N911 C914 1.346 . S
N911 C915 1.345 . S
C912 C913 1.387 . S
C912 C916 1.391 . S
C913 C912 1.387 . S
C913 C914 1.369 . S
C913 H922 0.929 . S
C914 N911 1.346 . S
C914 C913 1.369 . S
C914 H917 0.928 . S
C915 N911 1.345 . S
C915 C916 1.371 . S
C915 H918 0.931 . S
C916 C912 1.391 . S
C916 C915 1.371 . S
C916 H923 0.930 . S
H917 C914 0.928 . S
H918 C915 0.931 . S
H919 C895 0.930 . S
H920 C892 0.930 . S
H921 C901 0.930 . S
H922 C913 0.929 . S
H923 C916 0.930 . S
C924 C925 1.351 . S
C924 N927 1.368 . S
C924 H929 0.931 . S
C925 C924 1.351 . S
C925 N926 1.373 . S
C925 H953 0.930 . S
N926 C925 1.373 . S
N926 C928 1.340 . S
N927 C924 1.368 . S
N927 C928 1.321 . S
N927 Co930 2.135 . S
C928 N926 1.340 . S
C928 N927 1.321 . S
C928 H952 0.930 . S
H929 C924 0.931 . S
Co930 N927 2.135 . S
Co930 N933 2.121 . S
Co930 O938 2.055 . S
Co930 O941 2.039 . S
Co930 N944 2.140 . S
C931 O932 1.227 . S
C931 O941 1.265 . S
O932 C931 1.227 . S
N933 Co930 2.121 . S
N933 C935 1.375 . S
N933 C936 1.313 . S
C934 C935 1.338 . S
C934 N937 1.377 . S
C934 H954 0.930 . S
C935 N933 1.375 . S
C935 C934 1.338 . S
C935 H939 0.931 . S
C936 N933 1.313 . S
C936 N937 1.344 . S
C936 H940 0.930 . S
N937 C934 1.377 . S
N937 C936 1.344 . S
O938 Co930 2.055 . S
O938 C942 1.253 . S
H939 C935 0.931 . S
H940 C936 0.930 . S
O941 Co930 2.039 . S
O941 C931 1.265 . S
C942 O938 1.253 . S
C942 O943 1.227 . S
O943 C942 1.227 . S
N944 Co930 2.140 . S
N944 C947 1.346 . S
N944 C948 1.345 . S
C945 C946 1.387 . S
C945 C949 1.391 . S
C946 C945 1.387 . S
C946 C947 1.369 . S
C946 H955 0.929 . S
C947 N944 1.346 . S
C947 C946 1.369 . S
C947 H950 0.928 . S
C948 N944 1.345 . S
C948 C949 1.371 . S
C948 H951 0.931 . S
C949 C945 1.391 . S
C949 C948 1.371 . S
C949 H956 0.930 . S
H950 C947 0.928 . S
H951 C948 0.931 . S
H952 C928 0.930 . S
H953 C925 0.930 . S
H954 C934 0.930 . S
H955 C946 0.929 . S
H956 C949 0.930 . S
C957 C958 1.351 . S
C957 N960 1.368 . S
C957 H962 0.931 . S
C958 C957 1.351 . S
C958 N959 1.373 . S
C958 H986 0.930 . S
N959 C958 1.373 . S
N959 C961 1.340 . S
N960 C957 1.368 . S
N960 C961 1.321 . S
N960 Co963 2.135 . S
C961 N959 1.340 . S
C961 N960 1.321 . S
C961 H985 0.930 . S
H962 C957 0.931 . S
Co963 N960 2.135 . S
Co963 N966 2.121 . S
Co963 O971 2.055 . S
Co963 O974 2.039 . S
Co963 N977 2.140 . S
C964 O965 1.227 . S
C964 O974 1.265 . S
O965 C964 1.227 . S
N966 Co963 2.121 . S
N966 C968 1.375 . S
N966 C969 1.313 . S
C967 C968 1.338 . S
C967 N970 1.377 . S
C967 H987 0.930 . S
C968 N966 1.375 . S
C968 C967 1.338 . S
C968 H972 0.931 . S
C969 N966 1.313 . S
C969 N970 1.344 . S
C969 H973 0.930 . S
N970 C967 1.377 . S
N970 C969 1.344 . S
O971 Co963 2.055 . S
O971 C975 1.253 . S
H972 C968 0.931 . S
H973 C969 0.930 . S
O974 Co963 2.039 . S
O974 C964 1.265 . S
C975 O971 1.253 . S
C975 O976 1.227 . S
O976 C975 1.227 . S
N977 Co963 2.140 . S
N977 C980 1.346 . S
N977 C981 1.345 . S
C978 C979 1.387 . S
C978 C982 1.391 . S
C979 C978 1.387 . S
C979 C980 1.369 . S
C979 H988 0.929 . S
C980 N977 1.346 . S
C980 C979 1.369 . S
C980 H983 0.928 . S
C981 N977 1.345 . S
C981 C982 1.371 . S
C981 H984 0.931 . S
C982 C978 1.391 . S
C982 C981 1.371 . S
C982 H989 0.930 . S
H983 C980 0.928 . S
H984 C981 0.931 . S
H985 C961 0.930 . S
H986 C958 0.930 . S
H987 C967 0.930 . S
H988 C979 0.929 . S
H989 C982 0.930 . S
C990 C991 1.351 . S
C990 N993 1.368 . S
C990 H995 0.931 . S
C991 C990 1.351 . S
C991 N992 1.373 . S
C991 H1019 0.930 . S
N992 C991 1.373 . S
N992 C994 1.340 . S
N993 C990 1.368 . S
N993 C994 1.321 . S
N993 Co996 2.135 . S
C994 N992 1.340 . S
C994 N993 1.321 . S
C994 H1018 0.930 . S
H995 C990 0.931 . S
Co996 N993 2.135 . S
Co996 N999 2.121 . S
Co996 O1004 2.055 . S
Co996 O1007 2.039 . S
Co996 N1010 2.140 . S
C997 O998 1.227 . S
C997 O1007 1.265 . S
O998 C997 1.227 . S
N999 Co996 2.121 . S
N999 C1001 1.375 . S
N999 C1002 1.313 . S
C1000 C1001 1.338 . S
C1000 N1003 1.377 . S
C1000 H1020 0.930 . S
C1001 N999 1.375 . S
C1001 C1000 1.338 . S
C1001 H1005 0.931 . S
C1002 N999 1.313 . S
C1002 N1003 1.344 . S
C1002 H1006 0.930 . S
N1003 C1000 1.377 . S
N1003 C1002 1.344 . S
O1004 Co996 2.055 . S
O1004 C1008 1.253 . S
H1005 C1001 0.931 . S
H1006 C1002 0.930 . S
O1007 Co996 2.039 . S
O1007 C997 1.265 . S
C1008 O1004 1.253 . S
C1008 O1009 1.227 . S
O1009 C1008 1.227 . S
N1010 Co996 2.140 . S
N1010 C1013 1.346 . S
N1010 C1014 1.345 . S
C1011 C1012 1.387 . S
C1011 C1015 1.391 . S
C1012 C1011 1.387 . S
C1012 C1013 1.369 . S
C1012 H1021 0.929 . S
C1013 N1010 1.346 . S
C1013 C1012 1.369 . S
C1013 H1016 0.928 . S
C1014 N1010 1.345 . S
C1014 C1015 1.371 . S
C1014 H1017 0.931 . S
C1015 C1011 1.391 . S
C1015 C1014 1.371 . S
C1015 H1022 0.930 . S
H1016 C1013 0.928 . S
H1017 C1014 0.931 . S
H1018 C994 0.930 . S
H1019 C991 0.930 . S
H1020 C1000 0.930 . S
H1021 C1012 0.929 . S
H1022 C1015 0.930 . S
C1023 C1024 1.351 . S
C1023 N1026 1.368 . S
C1023 H1028 0.931 . S
C1024 C1023 1.351 . S
C1024 N1025 1.373 . S
C1024 H1052 0.930 . S
N1025 C1024 1.373 . S
N1025 C1027 1.340 . S
N1026 C1023 1.368 . S
N1026 C1027 1.321 . S
N1026 Co1029 2.135 . S
C1027 N1025 1.340 . S
C1027 N1026 1.321 . S
C1027 H1051 0.930 . S
H1028 C1023 0.931 . S
Co1029 N1026 2.135 . S
Co1029 N1032 2.121 . S
Co1029 O1037 2.055 . S
Co1029 O1040 2.039 . S
Co1029 N1043 2.140 . S
C1030 O1031 1.227 . S
C1030 O1040 1.265 . S
O1031 C1030 1.227 . S
N1032 Co1029 2.121 . S
N1032 C1034 1.375 . S
N1032 C1035 1.313 . S
C1033 C1034 1.338 . S
C1033 N1036 1.377 . S
C1033 H1053 0.930 . S
C1034 N1032 1.375 . S
C1034 C1033 1.338 . S
C1034 H1038 0.931 . S
C1035 N1032 1.313 . S
C1035 N1036 1.344 . S
C1035 H1039 0.930 . S
N1036 C1033 1.377 . S
N1036 C1035 1.344 . S
O1037 Co1029 2.055 . S
O1037 C1041 1.253 . S
H1038 C1034 0.931 . S
H1039 C1035 0.930 . S
O1040 Co1029 2.039 . S
O1040 C1030 1.265 . S
C1041 O1037 1.253 . S
C1041 O1042 1.227 . S
O1042 C1041 1.227 . S
N1043 Co1029 2.140 . S
N1043 C1046 1.346 . S
N1043 C1047 1.345 . S
C1044 C1045 1.387 . S
C1044 C1048 1.391 . S
C1045 C1044 1.387 . S
C1045 C1046 1.369 . S
C1045 H1054 0.929 . S
C1046 N1043 1.346 . S
C1046 C1045 1.369 . S
C1046 H1049 0.928 . S
C1047 N1043 1.345 . S
C1047 C1048 1.371 . S
C1047 H1050 0.931 . S
C1048 C1044 1.391 . S
C1048 C1047 1.371 . S
C1048 H1055 0.930 . S
H1049 C1046 0.928 . S
H1050 C1047 0.931 . S
H1051 C1027 0.930 . S
H1052 C1024 0.930 . S
H1053 C1033 0.930 . S
H1054 C1045 0.929 . S
H1055 C1048 0.930 . S
C1056 C1057 1.349 1_554 S
C1056 C1058 1.327 . S
C1056 H1081 0.950 . S
C1057 C1056 1.349 1_556 S
C1057 C1073 1.349 . S
C1058 C1056 1.327 . S
C1058 C1077 1.429 . S
C1058 H1082 0.950 . S
C1059 C1076 1.574 . S
C1059 C1078 1.368 . S
C1059 H1083 0.949 . S
H1060 C1064 0.949 . S
C1061 C1062 1.349 . S
C1061 C1063 1.327 . S
C1061 H1084 0.950 . S
C1062 C1061 1.349 . S
C1062 C1074 1.349 . S
C1063 C1061 1.327 . S
C1063 C1079 1.429 . S
C1063 H1085 0.950 . S
C1064 H1060 0.949 . S
C1064 C1072 1.574 . S
C1064 C1080 1.368 . S
H1065 C1073 0.950 . S
H1066 C1071 0.950 . S
H1067 C1072 0.949 . S
H1068 C1074 0.950 . S
H1069 C1075 0.950 . S
H1070 C1076 0.949 . S
C1071 H1066 0.950 . S
C1071 C1073 1.327 1_554 S
C1071 C1077 1.429 . S
C1072 C1064 1.574 . S
C1072 H1067 0.949 . S
C1072 C1078 1.368 . S
C1073 C1057 1.349 . S
C1073 H1065 0.950 . S
C1073 C1071 1.327 1_556 S
C1074 C1062 1.349 . S
C1074 H1068 0.950 . S
C1074 C1075 1.327 . S
C1075 H1069 0.950 . S
C1075 C1074 1.327 . S
C1075 C1079 1.429 . S
C1076 C1059 1.574 . S
C1076 H1070 0.949 . S
C1076 C1080 1.368 . S
C1077 C1058 1.429 . S
C1077 C1071 1.429 . S
C1077 C1078 1.523 . S
C1078 C1059 1.368 . S
C1078 C1072 1.368 . S
C1078 C1077 1.523 . S
C1079 C1063 1.429 . S
C1079 C1075 1.429 . S
C1079 C1080 1.523 . S
C1080 C1064 1.368 . S
C1080 C1076 1.368 . S
C1080 C1079 1.523 . S
H1081 C1056 0.950 . S
H1082 C1058 0.950 . S
H1083 C1059 0.949 . S
H1084 C1061 0.950 . S
H1085 C1063 0.950 . S
C1086 C1087 1.349 . S
C1086 C1088 1.327 . S
C1086 H1111 0.950 . S
C1087 C1086 1.349 . S
C1087 C1103 1.349 . S
C1088 C1086 1.327 . S
C1088 C1107 1.429 . S
C1088 H1112 0.950 . S
C1089 C1106 1.574 . S
C1089 C1108 1.368 . S
C1089 H1113 0.949 . S
H1090 C1094 0.949 . S
C1091 C1092 1.349 . S
C1091 C1093 1.327 1_556 S
C1091 H1114 0.950 . S
C1092 C1091 1.349 . S
C1092 C1104 1.349 1_556 S
C1093 C1091 1.327 1_554 S
C1093 C1109 1.429 . S
C1093 H1115 0.950 . S
C1094 H1090 0.949 . S
C1094 C1102 1.574 . S
C1094 C1110 1.368 . S
H1095 C1103 0.950 . S
H1096 C1101 0.950 . S
H1097 C1102 0.949 . S
H1098 C1104 0.950 . S
H1099 C1105 0.950 . S
H1100 C1106 0.949 . S
C1101 H1096 0.950 . S
C1101 C1103 1.327 . S
C1101 C1107 1.429 . S
C1102 C1094 1.574 . S
C1102 H1097 0.949 . S
C1102 C1108 1.368 . S
C1103 C1087 1.349 . S
C1103 H1095 0.950 . S
C1103 C1101 1.327 . S
C1104 C1092 1.349 1_554 S
C1104 H1098 0.950 . S
C1104 C1105 1.327 . S
C1105 H1099 0.950 . S
C1105 C1104 1.327 . S
C1105 C1109 1.429 . S
C1106 C1089 1.574 . S
C1106 H1100 0.949 . S
C1106 C1110 1.368 . S
C1107 C1088 1.429 . S
C1107 C1101 1.429 . S
C1107 C1108 1.523 . S
C1108 C1089 1.368 . S
C1108 C1102 1.368 . S
C1108 C1107 1.523 . S
C1109 C1093 1.429 . S
C1109 C1105 1.429 . S
C1109 C1110 1.523 . S
C1110 C1094 1.368 . S
C1110 C1106 1.368 . S
C1110 C1109 1.523 . S
H1111 C1086 0.950 . S
H1112 C1088 0.950 . S
H1113 C1089 0.949 . S
H1114 C1091 0.950 . S
H1115 C1093 0.950 . S
C1116 C1117 1.349 . S
C1116 C1118 1.327 . S
C1116 H1141 0.950 . S
C1117 C1116 1.349 . S
C1117 C1133 1.349 . S
C1118 C1116 1.327 . S
C1118 C1137 1.429 . S
C1118 H1142 0.950 . S
C1119 C1136 1.574 . S
C1119 C1138 1.368 . S
C1119 H1143 0.949 . S
H1120 C1124 0.949 . S
C1121 C1122 1.349 1_556 S
C1121 C1123 1.327 . S
C1121 H1144 0.950 . S
C1122 C1121 1.349 1_554 S
C1122 C1134 1.349 . S
C1123 C1121 1.327 . S
C1123 C1139 1.429 . S
C1123 H1145 0.950 . S
C1124 H1120 0.949 . S
C1124 C1132 1.574 . S
C1124 C1140 1.368 . S
H1125 C1133 0.950 . S
H1126 C1131 0.950 . S
H1127 C1132 0.949 . S
H1128 C1134 0.950 . S
H1129 C1135 0.950 . S
H1130 C1136 0.949 . S
C1131 H1126 0.950 . S
C1131 C1133 1.327 . S
C1131 C1137 1.429 . S
C1132 C1124 1.574 . S
C1132 H1127 0.949 . S
C1132 C1138 1.368 . S
C1133 C1117 1.349 . S
C1133 H1125 0.950 . S
C1133 C1131 1.327 . S
C1134 C1122 1.349 . S
C1134 H1128 0.950 . S
C1134 C1135 1.327 1_554 S
C1135 H1129 0.950 . S
C1135 C1134 1.327 1_556 S
C1135 C1139 1.429 . S
C1136 C1119 1.574 . S
C1136 H1130 0.949 . S
C1136 C1140 1.368 . S
C1137 C1118 1.429 . S
C1137 C1131 1.429 . S
C1137 C1138 1.523 . S
C1138 C1119 1.368 . S
C1138 C1132 1.368 . S
C1138 C1137 1.523 . S
C1139 C1123 1.429 . S
C1139 C1135 1.429 . S
C1139 C1140 1.523 . S
C1140 C1124 1.368 . S
C1140 C1136 1.368 . S
C1140 C1139 1.523 . S
H1141 C1116 0.950 . S
H1142 C1118 0.950 . S
H1143 C1119 0.949 . S
H1144 C1121 0.950 . S
H1145 C1123 0.950 . S
C1146 C1147 1.349 . S
C1146 C1148 1.327 . S
C1146 H1171 0.950 . S
C1147 C1146 1.349 . S
C1147 C1163 1.349 . S
C1148 C1146 1.327 . S
C1148 C1167 1.429 . S
C1148 H1172 0.950 . S
C1149 C1166 1.574 . S
C1149 C1168 1.368 . S
C1149 H1173 0.949 . S
H1150 C1154 0.949 . S
C1151 C1152 1.349 . S
C1151 C1153 1.327 1_554 S
C1151 H1174 0.950 . S
C1152 C1151 1.349 . S
C1152 C1164 1.349 1_554 S
C1153 C1151 1.327 1_556 S
C1153 C1169 1.429 . S
C1153 H1175 0.950 . S
C1154 H1150 0.949 . S
C1154 C1162 1.574 . S
C1154 C1170 1.368 . S
H1155 C1163 0.950 . S
H1156 C1161 0.950 . S
H1157 C1162 0.949 . S
H1158 C1164 0.950 . S
H1159 C1165 0.950 . S
H1160 C1166 0.949 . S
C1161 H1156 0.950 . S
C1161 C1163 1.327 . S
C1161 C1167 1.429 . S
C1162 C1154 1.574 . S
C1162 H1157 0.949 . S
C1162 C1168 1.368 . S
C1163 C1147 1.349 . S
C1163 H1155 0.950 . S
C1163 C1161 1.327 . S
C1164 C1152 1.349 1_556 S
C1164 H1158 0.950 . S
C1164 C1165 1.327 . S
C1165 H1159 0.950 . S
C1165 C1164 1.327 . S
C1165 C1169 1.429 . S
C1166 C1149 1.574 . S
C1166 H1160 0.949 . S
C1166 C1170 1.368 . S
C1167 C1148 1.429 . S
C1167 C1161 1.429 . S
C1167 C1168 1.523 . S
C1168 C1149 1.368 . S
C1168 C1162 1.368 . S
C1168 C1167 1.523 . S
C1169 C1153 1.429 . S
C1169 C1165 1.429 . S
C1169 C1170 1.523 . S
C1170 C1154 1.368 . S
C1170 C1166 1.368 . S
C1170 C1169 1.523 . S
H1171 C1146 0.950 . S
H1172 C1148 0.950 . S
H1173 C1149 0.949 . S
H1174 C1151 0.950 . S
H1175 C1153 0.950 . S
C1176 C1177 1.349 . S
C1176 C1178 1.327 . S
C1176 H1201 0.950 . S
C1177 C1176 1.349 . S
C1177 C1193 1.349 . S
C1178 C1176 1.327 . S
C1178 C1197 1.429 . S
C1178 H1202 0.950 . S
C1179 C1196 1.574 . S
C1179 C1198 1.368 . S
C1179 H1203 0.949 . S
H1180 C1184 0.949 . S
C1181 C1182 1.349 . S
C1181 C1183 1.327 . S
C1181 H1204 0.950 . S
C1182 C1181 1.349 . S
C1182 C1194 1.349 . S
C1183 C1181 1.327 . S
C1183 C1199 1.429 . S
C1183 H1205 0.950 . S
C1184 H1180 0.949 . S
C1184 C1192 1.574 . S
C1184 C1200 1.368 . S
H1185 C1193 0.950 . S
H1186 C1191 0.950 . S
H1187 C1192 0.949 . S
H1188 C1194 0.950 . S
H1189 C1195 0.950 . S
H1190 C1196 0.949 . S
C1191 H1186 0.950 . S
C1191 C1193 1.327 . S
C1191 C1197 1.429 . S
C1192 C1184 1.574 . S
C1192 H1187 0.949 . S
C1192 C1198 1.368 . S
C1193 C1177 1.349 . S
C1193 H1185 0.950 . S
C1193 C1191 1.327 . S
C1194 C1182 1.349 . S
C1194 H1188 0.950 . S
C1194 C1195 1.327 . S
C1195 H1189 0.950 . S
C1195 C1194 1.327 . S
C1195 C1199 1.429 . S
C1196 C1179 1.574 . S
C1196 H1190 0.949 . S
C1196 C1200 1.368 . S
C1197 C1178 1.429 . S
C1197 C1191 1.429 . S
C1197 C1198 1.523 . S
C1198 C1179 1.368 . S
C1198 C1192 1.368 . S
C1198 C1197 1.523 . S
C1199 C1183 1.429 . S
C1199 C1195 1.429 . S
C1199 C1200 1.523 . S
C1200 C1184 1.368 . S
C1200 C1196 1.368 . S
C1200 C1199 1.523 . S
H1201 C1176 0.950 . S
H1202 C1178 0.950 . S
H1203 C1179 0.949 . S
H1204 C1181 0.950 . S
H1205 C1183 0.950 . S
C1206 C1207 1.349 . S
C1206 C1208 1.327 . S
C1206 H1231 0.950 . S
C1207 C1206 1.349 . S
C1207 C1223 1.349 . S
C1208 C1206 1.327 . S
C1208 C1227 1.429 . S
C1208 H1232 0.950 . S
C1209 C1226 1.574 . S
C1209 C1228 1.368 . S
C1209 H1233 0.949 . S
H1210 C1214 0.949 . S
C1211 C1212 1.349 . S
C1211 C1213 1.327 . S
C1211 H1234 0.950 . S
C1212 C1211 1.349 . S
C1212 C1224 1.349 . S
C1213 C1211 1.327 . S
C1213 C1229 1.429 . S
C1213 H1235 0.950 . S
C1214 H1210 0.949 . S
C1214 C1222 1.574 . S
C1214 C1230 1.368 . S
H1215 C1223 0.950 . S
H1216 C1221 0.950 . S
H1217 C1222 0.949 . S
H1218 C1224 0.950 . S
H1219 C1225 0.950 . S
H1220 C1226 0.949 . S
C1221 H1216 0.950 . S
C1221 C1223 1.327 . S
C1221 C1227 1.429 . S
C1222 C1214 1.574 . S
C1222 H1217 0.949 . S
C1222 C1228 1.368 . S
C1223 C1207 1.349 . S
C1223 H1215 0.950 . S
C1223 C1221 1.327 . S
C1224 C1212 1.349 . S
C1224 H1218 0.950 . S
C1224 C1225 1.327 . S
C1225 H1219 0.950 . S
C1225 C1224 1.327 . S
C1225 C1229 1.429 . S
C1226 C1209 1.574 . S
C1226 H1220 0.949 . S
C1226 C1230 1.368 . S
C1227 C1208 1.429 . S
C1227 C1221 1.429 . S
C1227 C1228 1.523 . S
C1228 C1209 1.368 . S
C1228 C1222 1.368 . S
C1228 C1227 1.523 . S
C1229 C1213 1.429 . S
C1229 C1225 1.429 . S
C1229 C1230 1.523 . S
C1230 C1214 1.368 . S
C1230 C1226 1.368 . S
C1230 C1229 1.523 . S
H1231 C1206 0.950 . S
H1232 C1208 0.950 . S
H1233 C1209 0.949 . S
H1234 C1211 0.950 . S
H1235 C1213 0.950 . S
C1236 C1237 1.349 . S
C1236 C1238 1.327 . S
C1236 H1261 0.950 . S
C1237 C1236 1.349 . S
C1237 C1253 1.349 . S
C1238 C1236 1.327 . S
C1238 C1257 1.429 . S
C1238 H1262 0.950 . S
C1239 C1256 1.574 . S
C1239 C1258 1.368 . S
C1239 H1263 0.949 . S
H1240 C1244 0.949 . S
C1241 C1242 1.349 . S
C1241 C1243 1.327 . S
C1241 H1264 0.950 . S
C1242 C1241 1.349 . S
C1242 C1254 1.349 . S
C1243 C1241 1.327 . S
C1243 C1259 1.429 . S
C1243 H1265 0.950 . S
C1244 H1240 0.949 . S
C1244 C1252 1.574 . S
C1244 C1260 1.368 . S
H1245 C1253 0.950 . S
H1246 C1251 0.950 . S
H1247 C1252 0.949 . S
H1248 C1254 0.950 . S
H1249 C1255 0.950 . S
H1250 C1256 0.949 . S
C1251 H1246 0.950 . S
C1251 C1253 1.327 . S
C1251 C1257 1.429 . S
C1252 C1244 1.574 . S
C1252 H1247 0.949 . S
C1252 C1258 1.368 . S
C1253 C1237 1.349 . S
C1253 H1245 0.950 . S
C1253 C1251 1.327 . S
C1254 C1242 1.349 . S
C1254 H1248 0.950 . S
C1254 C1255 1.327 . S
C1255 H1249 0.950 . S
C1255 C1254 1.327 . S
C1255 C1259 1.429 . S
C1256 C1239 1.574 . S
C1256 H1250 0.949 . S
C1256 C1260 1.368 . S
C1257 C1238 1.429 . S
C1257 C1251 1.429 . S
C1257 C1258 1.523 . S
C1258 C1239 1.368 . S
C1258 C1252 1.368 . S
C1258 C1257 1.523 . S
C1259 C1243 1.429 . S
C1259 C1255 1.429 . S
C1259 C1260 1.523 . S
C1260 C1244 1.368 . S
C1260 C1256 1.368 . S
C1260 C1259 1.523 . S
H1261 C1236 0.950 . S
H1262 C1238 0.950 . S
H1263 C1239 0.949 . S
H1264 C1241 0.950 . S
H1265 C1243 0.950 . S
C1266 C1267 1.349 . S
C1266 C1268 1.327 . S
C1266 H1291 0.950 . S
C1267 C1266 1.349 . S
C1267 C1283 1.349 . S
C1268 C1266 1.327 . S
C1268 C1287 1.429 . S
C1268 H1292 0.950 . S
C1269 C1286 1.574 . S
C1269 C1288 1.368 . S
C1269 H1293 0.949 . S
H1270 C1274 0.949 . S
C1271 C1272 1.349 . S
C1271 C1273 1.327 . S
C1271 H1294 0.950 . S
C1272 C1271 1.349 . S
C1272 C1284 1.349 . S
C1273 C1271 1.327 . S
C1273 C1289 1.429 . S
C1273 H1295 0.950 . S
C1274 H1270 0.949 . S
C1274 C1282 1.574 . S
C1274 C1290 1.368 . S
H1275 C1283 0.950 . S
H1276 C1281 0.950 . S
H1277 C1282 0.949 . S
H1278 C1284 0.950 . S
H1279 C1285 0.950 . S
H1280 C1286 0.949 . S
C1281 H1276 0.950 . S
C1281 C1283 1.327 . S
C1281 C1287 1.429 . S
C1282 C1274 1.574 . S
C1282 H1277 0.949 . S
C1282 C1288 1.368 . S
C1283 C1267 1.349 . S
C1283 H1275 0.950 . S
C1283 C1281 1.327 . S
C1284 C1272 1.349 . S
C1284 H1278 0.950 . S
C1284 C1285 1.327 . S
C1285 H1279 0.950 . S
C1285 C1284 1.327 . S
C1285 C1289 1.429 . S
C1286 C1269 1.574 . S
C1286 H1280 0.949 . S
C1286 C1290 1.368 . S
C1287 C1268 1.429 . S
C1287 C1281 1.429 . S
C1287 C1288 1.523 . S
C1288 C1269 1.368 . S
C1288 C1282 1.368 . S
C1288 C1287 1.523 . S
C1289 C1273 1.429 . S
C1289 C1285 1.429 . S
C1289 C1290 1.523 . S
C1290 C1274 1.368 . S
C1290 C1286 1.368 . S
C1290 C1289 1.523 . S
H1291 C1266 0.950 . S
H1292 C1268 0.950 . S
H1293 C1269 0.949 . S
H1294 C1271 0.950 . S
H1295 C1273 0.950 . S
C1296 C1297 1.349 . S
C1296 C1298 1.327 . S
C1296 H1321 0.950 . S
C1297 C1296 1.349 . S
C1297 C1313 1.349 . S
C1298 C1296 1.327 . S
C1298 C1317 1.429 . S
C1298 H1322 0.950 . S
C1299 C1316 1.574 . S
C1299 C1318 1.368 . S
C1299 H1323 0.949 . S
H1300 C1304 0.949 . S
C1301 C1302 1.349 . S
C1301 C1303 1.327 . S
C1301 H1324 0.950 . S
C1302 C1301 1.349 . S
C1302 C1314 1.349 . S
C1303 C1301 1.327 . S
C1303 C1319 1.429 . S
C1303 H1325 0.950 . S
C1304 H1300 0.949 . S
C1304 C1312 1.574 . S
C1304 C1320 1.368 . S
H1305 C1313 0.950 . S
H1306 C1311 0.950 . S
H1307 C1312 0.949 . S
H1308 C1314 0.950 . S
H1309 C1315 0.950 . S
H1310 C1316 0.949 . S
C1311 H1306 0.950 . S
C1311 C1313 1.327 . S
C1311 C1317 1.429 . S
C1312 C1304 1.574 . S
C1312 H1307 0.949 . S
C1312 C1318 1.368 . S
C1313 C1297 1.349 . S
C1313 H1305 0.950 . S
C1313 C1311 1.327 . S
C1314 C1302 1.349 . S
C1314 H1308 0.950 . S
C1314 C1315 1.327 . S
C1315 H1309 0.950 . S
C1315 C1314 1.327 . S
C1315 C1319 1.429 . S
C1316 C1299 1.574 . S
C1316 H1310 0.949 . S
C1316 C1320 1.368 . S
C1317 C1298 1.429 . S
C1317 C1311 1.429 . S
C1317 C1318 1.523 . S
C1318 C1299 1.368 . S
C1318 C1312 1.368 . S
C1318 C1317 1.523 . S
C1319 C1303 1.429 . S
C1319 C1315 1.429 . S
C1319 C1320 1.523 . S
C1320 C1304 1.368 . S
C1320 C1316 1.368 . S
C1320 C1319 1.523 . S
H1321 C1296 0.950 . S
H1322 C1298 0.950 . S
H1323 C1299 0.949 . S
H1324 C1301 0.950 . S
H1325 C1303 0.950 . S
C1326 C1327 1.349 . S
C1326 C1328 1.327 . S
C1326 H1351 0.950 . S
C1327 C1326 1.349 . S
C1327 C1343 1.349 . S
C1328 C1326 1.327 . S
C1328 C1347 1.429 . S
C1328 H1352 0.950 . S
C1329 C1346 1.574 . S
C1329 C1348 1.368 . S
C1329 H1353 0.949 . S
H1330 C1334 0.949 . S
C1331 C1332 1.349 . S
C1331 C1333 1.327 . S
C1331 H1354 0.950 . S
C1332 C1331 1.349 . S
C1332 C1344 1.349 . S
C1333 C1331 1.327 . S
C1333 C1349 1.429 . S
C1333 H1355 0.950 . S
C1334 H1330 0.949 . S
C1334 C1342 1.574 . S
C1334 C1350 1.368 . S
H1335 C1343 0.950 . S
H1336 C1341 0.950 . S
H1337 C1342 0.949 . S
H1338 C1344 0.950 . S
H1339 C1345 0.950 . S
H1340 C1346 0.949 . S
C1341 H1336 0.950 . S
C1341 C1343 1.327 . S
C1341 C1347 1.429 . S
C1342 C1334 1.574 . S
C1342 H1337 0.949 . S
C1342 C1348 1.368 . S
C1343 C1327 1.349 . S
C1343 H1335 0.950 . S
C1343 C1341 1.327 . S
C1344 C1332 1.349 . S
C1344 H1338 0.950 . S
C1344 C1345 1.327 . S
C1345 H1339 0.950 . S
C1345 C1344 1.327 . S
C1345 C1349 1.429 . S
C1346 C1329 1.574 . S
C1346 H1340 0.949 . S
C1346 C1350 1.368 . S
C1347 C1328 1.429 . S
C1347 C1341 1.429 . S
C1347 C1348 1.523 . S
C1348 C1329 1.368 . S
C1348 C1342 1.368 . S
C1348 C1347 1.523 . S
C1349 C1333 1.429 . S
C1349 C1345 1.429 . S
C1349 C1350 1.523 . S
C1350 C1334 1.368 . S
C1350 C1346 1.368 . S
C1350 C1349 1.523 . S
H1351 C1326 0.950 . S
H1352 C1328 0.950 . S
H1353 C1329 0.949 . S
H1354 C1331 0.950 . S
H1355 C1333 0.950 . S
C1356 C1357 1.349 . S
C1356 C1358 1.327 . S
C1356 H1381 0.950 . S
C1357 C1356 1.349 . S
C1357 C1373 1.349 . S
C1358 C1356 1.327 . S
C1358 C1377 1.429 . S
C1358 H1382 0.950 . S
C1359 C1376 1.574 . S
C1359 C1378 1.368 . S
C1359 H1383 0.949 . S
H1360 C1364 0.949 . S
C1361 C1362 1.349 . S
C1361 C1363 1.327 . S
C1361 H1384 0.950 . S
C1362 C1361 1.349 . S
C1362 C1374 1.349 . S
C1363 C1361 1.327 . S
C1363 C1379 1.429 . S
C1363 H1385 0.950 . S
C1364 H1360 0.949 . S
C1364 C1372 1.574 . S
C1364 C1380 1.368 . S
H1365 C1373 0.950 . S
H1366 C1371 0.950 . S
H1367 C1372 0.949 . S
H1368 C1374 0.950 . S
H1369 C1375 0.950 . S
H1370 C1376 0.949 . S
C1371 H1366 0.950 . S
C1371 C1373 1.327 . S
C1371 C1377 1.429 . S
C1372 C1364 1.574 . S
C1372 H1367 0.949 . S
C1372 C1378 1.368 . S
C1373 C1357 1.349 . S
C1373 H1365 0.950 . S
C1373 C1371 1.327 . S
C1374 C1362 1.349 . S
C1374 H1368 0.950 . S
C1374 C1375 1.327 . S
C1375 H1369 0.950 . S
C1375 C1374 1.327 . S
C1375 C1379 1.429 . S
C1376 C1359 1.574 . S
C1376 H1370 0.949 . S
C1376 C1380 1.368 . S
C1377 C1358 1.429 . S
C1377 C1371 1.429 . S
C1377 C1378 1.523 . S
C1378 C1359 1.368 . S
C1378 C1372 1.368 . S
C1378 C1377 1.523 . S
C1379 C1363 1.429 . S
C1379 C1375 1.429 . S
C1379 C1380 1.523 . S
C1380 C1364 1.368 . S
C1380 C1376 1.368 . S
C1380 C1379 1.523 . S
H1381 C1356 0.950 . S
H1382 C1358 0.950 . S
H1383 C1359 0.949 . S
H1384 C1361 0.950 . S
H1385 C1363 0.950 . S
C1386 C1387 1.349 . S
C1386 C1388 1.327 . S
C1386 H1411 0.950 . S
C1387 C1386 1.349 . S
C1387 C1403 1.349 . S
C1388 C1386 1.327 . S
C1388 C1407 1.429 . S
C1388 H1412 0.950 . S
C1389 C1406 1.574 . S
C1389 C1408 1.368 . S
C1389 H1413 0.949 . S
H1390 C1394 0.949 . S
C1391 C1392 1.349 . S
C1391 C1393 1.327 . S
C1391 H1414 0.950 . S
C1392 C1391 1.349 . S
C1392 C1404 1.349 . S
C1393 C1391 1.327 . S
C1393 C1409 1.429 . S
C1393 H1415 0.950 . S
C1394 H1390 0.949 . S
C1394 C1402 1.574 . S
C1394 C1410 1.368 . S
H1395 C1403 0.950 . S
H1396 C1401 0.950 . S
H1397 C1402 0.949 . S
H1398 C1404 0.950 . S
H1399 C1405 0.950 . S
H1400 C1406 0.949 . S
C1401 H1396 0.950 . S
C1401 C1403 1.327 . S
C1401 C1407 1.429 . S
C1402 C1394 1.574 . S
C1402 H1397 0.949 . S
C1402 C1408 1.368 . S
C1403 C1387 1.349 . S
C1403 H1395 0.950 . S
C1403 C1401 1.327 . S
C1404 C1392 1.349 . S
C1404 H1398 0.950 . S
C1404 C1405 1.327 . S
C1405 H1399 0.950 . S
C1405 C1404 1.327 . S
C1405 C1409 1.429 . S
C1406 C1389 1.574 . S
C1406 H1400 0.949 . S
C1406 C1410 1.368 . S
C1407 C1388 1.429 . S
C1407 C1401 1.429 . S
C1407 C1408 1.523 . S
C1408 C1389 1.368 . S
C1408 C1402 1.368 . S
C1408 C1407 1.523 . S
C1409 C1393 1.429 . S
C1409 C1405 1.429 . S
C1409 C1410 1.523 . S
C1410 C1394 1.368 . S
C1410 C1406 1.368 . S
C1410 C1409 1.523 . S
H1411 C1386 0.950 . S
H1412 C1388 0.950 . S
H1413 C1389 0.949 . S
H1414 C1391 0.950 . S
H1415 C1393 0.950 . S
C1416 C1417 1.349 1_554 S
C1416 C1418 1.327 . S
C1416 H1441 0.950 . S
C1417 C1416 1.349 1_556 S
C1417 C1433 1.349 . S
C1418 C1416 1.327 . S
C1418 C1437 1.429 . S
C1418 H1442 0.950 . S
C1419 C1436 1.574 . S
C1419 C1438 1.368 . S
C1419 H1443 0.949 . S
H1420 C1424 0.949 . S
C1421 C1422 1.349 . S
C1421 C1423 1.327 . S
C1421 H1444 0.950 . S
C1422 C1421 1.349 . S
C1422 C1434 1.349 . S
C1423 C1421 1.327 . S
C1423 C1439 1.429 . S
C1423 H1445 0.950 . S
C1424 H1420 0.949 . S
C1424 C1432 1.574 . S
C1424 C1440 1.368 . S
H1425 C1433 0.950 . S
H1426 C1431 0.950 . S
H1427 C1432 0.949 . S
H1428 C1434 0.950 . S
H1429 C1435 0.950 . S
H1430 C1436 0.949 . S
C1431 H1426 0.950 . S
C1431 C1433 1.327 1_554 S
C1431 C1437 1.429 . S
C1432 C1424 1.574 . S
C1432 H1427 0.949 . S
C1432 C1438 1.368 . S
C1433 C1417 1.349 . S
C1433 H1425 0.950 . S
C1433 C1431 1.327 1_556 S
C1434 C1422 1.349 . S
C1434 H1428 0.950 . S
C1434 C1435 1.327 . S
C1435 H1429 0.950 . S
C1435 C1434 1.327 . S
C1435 C1439 1.429 . S
C1436 C1419 1.574 . S
C1436 H1430 0.949 . S
C1436 C1440 1.368 . S
C1437 C1418 1.429 . S
C1437 C1431 1.429 . S
C1437 C1438 1.523 . S
C1438 C1419 1.368 . S
C1438 C1432 1.368 . S
C1438 C1437 1.523 . S
C1439 C1423 1.429 . S
C1439 C1435 1.429 . S
C1439 C1440 1.523 . S
C1440 C1424 1.368 . S
C1440 C1436 1.368 . S
C1440 C1439 1.523 . S
H1441 C1416 0.950 . S
H1442 C1418 0.950 . S
H1443 C1419 0.949 . S
H1444 C1421 0.950 . S
H1445 C1423 0.950 . S
C1446 C1447 1.349 . S
C1446 C1448 1.327 1_556 S
C1446 H1471 0.950 . S
C1447 C1446 1.349 . S
C1447 C1463 1.349 1_556 S
C1448 C1446 1.327 1_554 S
C1448 C1467 1.429 . S
C1448 H1472 0.950 . S
C1449 C1466 1.574 . S
C1449 C1468 1.368 . S
C1449 H1473 0.949 . S
H1450 C1454 0.949 . S
C1451 C1452 1.349 . S
C1451 C1453 1.327 . S
C1451 H1474 0.950 . S
C1452 C1451 1.349 . S
C1452 C1464 1.349 . S
C1453 C1451 1.327 . S
C1453 C1469 1.429 . S
C1453 H1475 0.950 . S
C1454 H1450 0.949 . S
C1454 C1462 1.574 . S
C1454 C1470 1.368 . S
H1455 C1463 0.950 . S
H1456 C1461 0.950 . S
H1457 C1462 0.949 . S
H1458 C1464 0.950 . S
H1459 C1465 0.950 . S
H1460 C1466 0.949 . S
C1461 H1456 0.950 . S
C1461 C1463 1.327 . S
C1461 C1467 1.429 . S
C1462 C1454 1.574 . S
C1462 H1457 0.949 . S
C1462 C1468 1.368 . S
C1463 C1447 1.349 1_554 S
C1463 H1455 0.950 . S
C1463 C1461 1.327 . S
C1464 C1452 1.349 . S
C1464 H1458 0.950 . S
C1464 C1465 1.327 . S
C1465 H1459 0.950 . S
C1465 C1464 1.327 . S
C1465 C1469 1.429 . S
C1466 C1449 1.574 . S
C1466 H1460 0.949 . S
C1466 C1470 1.368 . S
C1467 C1448 1.429 . S
C1467 C1461 1.429 . S
C1467 C1468 1.523 . S
C1468 C1449 1.368 . S
C1468 C1462 1.368 . S
C1468 C1467 1.523 . S
C1469 C1453 1.429 . S
C1469 C1465 1.429 . S
C1469 C1470 1.523 . S
C1470 C1454 1.368 . S
C1470 C1466 1.368 . S
C1470 C1469 1.523 . S
H1471 C1446 0.950 . S
H1472 C1448 0.950 . S
H1473 C1449 0.949 . S
H1474 C1451 0.950 . S
H1475 C1453 0.950 . S
C1476 C1477 1.349 . S
C1476 C1478 1.327 1_554 S
C1476 H1501 0.950 . S
C1477 C1476 1.349 . S
C1477 C1493 1.349 1_554 S
C1478 C1476 1.327 1_556 S
C1478 C1497 1.429 . S
C1478 H1502 0.950 . S
C1479 C1496 1.574 . S
C1479 C1498 1.368 . S
C1479 H1503 0.949 . S
H1480 C1484 0.949 . S
C1481 C1482 1.349 . S
C1481 C1483 1.327 . S
C1481 H1504 0.950 . S
C1482 C1481 1.349 . S
C1482 C1494 1.349 . S
C1483 C1481 1.327 . S
C1483 C1499 1.429 . S
C1483 H1505 0.950 . S
C1484 H1480 0.949 . S
C1484 C1492 1.574 . S
C1484 C1500 1.368 . S
H1485 C1493 0.950 . S
H1486 C1491 0.950 . S
H1487 C1492 0.949 . S
H1488 C1494 0.950 . S
H1489 C1495 0.950 . S
H1490 C1496 0.949 . S
C1491 H1486 0.950 . S
C1491 C1493 1.327 . S
C1491 C1497 1.429 . S
C1492 C1484 1.574 . S
C1492 H1487 0.949 . S
C1492 C1498 1.368 . S
C1493 C1477 1.349 1_556 S
C1493 H1485 0.950 . S
C1493 C1491 1.327 . S
C1494 C1482 1.349 . S
C1494 H1488 0.950 . S
C1494 C1495 1.327 . S
C1495 H1489 0.950 . S
C1495 C1494 1.327 . S
C1495 C1499 1.429 . S
C1496 C1479 1.574 . S
C1496 H1490 0.949 . S
C1496 C1500 1.368 . S
C1497 C1478 1.429 . S
C1497 C1491 1.429 . S
C1497 C1498 1.523 . S
C1498 C1479 1.368 . S
C1498 C1492 1.368 . S
C1498 C1497 1.523 . S
C1499 C1483 1.429 . S
C1499 C1495 1.429 . S
C1499 C1500 1.523 . S
C1500 C1484 1.368 . S
C1500 C1496 1.368 . S
C1500 C1499 1.523 . S
H1501 C1476 0.950 . S
H1502 C1478 0.950 . S
H1503 C1479 0.949 . S
H1504 C1481 0.950 . S
H1505 C1483 0.950 . S
C1506 C1507 1.349 . S
C1506 C1508 1.327 1_554 S
C1506 H1531 0.950 . S
C1507 C1506 1.349 . S
C1507 C1523 1.349 1_554 S
C1508 C1506 1.327 1_556 S
C1508 C1527 1.429 . S
C1508 H1532 0.950 . S
C1509 C1526 1.574 . S
C1509 C1528 1.368 . S
C1509 H1533 0.949 . S
H1510 C1514 0.949 . S
C1511 C1512 1.349 . S
C1511 C1513 1.327 . S
C1511 H1534 0.950 . S
C1512 C1511 1.349 . S
C1512 C1524 1.349 . S
C1513 C1511 1.327 . S
C1513 C1529 1.429 . S
C1513 H1535 0.950 . S
C1514 H1510 0.949 . S
C1514 C1522 1.574 . S
C1514 C1530 1.368 . S
H1515 C1523 0.950 . S
H1516 C1521 0.950 . S
H1517 C1522 0.949 . S
H1518 C1524 0.950 . S
H1519 C1525 0.950 . S
H1520 C1526 0.949 . S
C1521 H1516 0.950 . S
C1521 C1523 1.327 . S
C1521 C1527 1.429 . S
C1522 C1514 1.574 . S
C1522 H1517 0.949 . S
C1522 C1528 1.368 . S
C1523 C1507 1.349 1_556 S
C1523 H1515 0.950 . S
C1523 C1521 1.327 . S
C1524 C1512 1.349 . S
C1524 H1518 0.950 . S
C1524 C1525 1.327 . S
C1525 H1519 0.950 . S
C1525 C1524 1.327 . S
C1525 C1529 1.429 . S
C1526 C1509 1.574 . S
C1526 H1520 0.949 . S
C1526 C1530 1.368 . S
C1527 C1508 1.429 . S
C1527 C1521 1.429 . S
C1527 C1528 1.523 . S
C1528 C1509 1.368 . S
C1528 C1522 1.368 . S
C1528 C1527 1.523 . S
C1529 C1513 1.429 . S
C1529 C1525 1.429 . S
C1529 C1530 1.523 . S
C1530 C1514 1.368 . S
C1530 C1526 1.368 . S
C1530 C1529 1.523 . S
H1531 C1506 0.950 . S
H1532 C1508 0.950 . S
H1533 C1509 0.949 . S
H1534 C1511 0.950 . S
H1535 C1513 0.950 . S
C1536 C1537 1.349 . S
C1536 C1538 1.327 . S
C1536 H1561 0.950 . S
C1537 C1536 1.349 . S
C1537 C1553 1.349 . S
C1538 C1536 1.327 . S
C1538 C1557 1.429 . S
C1538 H1562 0.950 . S
C1539 C1556 1.574 . S
C1539 C1558 1.368 . S
C1539 H1563 0.949 . S
H1540 C1544 0.949 . S
C1541 C1542 1.349 . S
C1541 C1543 1.327 . S
C1541 H1564 0.950 . S
C1542 C1541 1.349 . S
C1542 C1554 1.349 . S
C1543 C1541 1.327 . S
C1543 C1559 1.429 . S
C1543 H1565 0.950 . S
C1544 H1540 0.949 . S
C1544 C1552 1.574 . S
C1544 C1560 1.368 . S
H1545 C1553 0.950 . S
H1546 C1551 0.950 . S
H1547 C1552 0.949 . S
H1548 C1554 0.950 . S
H1549 C1555 0.950 . S
H1550 C1556 0.949 . S
C1551 H1546 0.950 . S
C1551 C1553 1.327 . S
C1551 C1557 1.429 . S
C1552 C1544 1.574 . S
C1552 H1547 0.949 . S
C1552 C1558 1.368 . S
C1553 C1537 1.349 . S
C1553 H1545 0.950 . S
C1553 C1551 1.327 . S
C1554 C1542 1.349 . S
C1554 H1548 0.950 . S
C1554 C1555 1.327 . S
C1555 H1549 0.950 . S
C1555 C1554 1.327 . S
C1555 C1559 1.429 . S
C1556 C1539 1.574 . S
C1556 H1550 0.949 . S
C1556 C1560 1.368 . S
C1557 C1538 1.429 . S
C1557 C1551 1.429 . S
C1557 C1558 1.523 . S
C1558 C1539 1.368 . S
C1558 C1552 1.368 . S
C1558 C1557 1.523 . S
C1559 C1543 1.429 . S
C1559 C1555 1.429 . S
C1559 C1560 1.523 . S
C1560 C1544 1.368 . S
C1560 C1556 1.368 . S
C1560 C1559 1.523 . S
H1561 C1536 0.950 . S
H1562 C1538 0.950 . S
H1563 C1539 0.949 . S
H1564 C1541 0.950 . S
H1565 C1543 0.950 . S
C1566 C1567 1.349 . S
C1566 C1568 1.327 . S
C1566 H1591 0.950 . S
C1567 C1566 1.349 . S
C1567 C1583 1.349 . S
C1568 C1566 1.327 . S
C1568 C1587 1.429 . S
C1568 H1592 0.950 . S
C1569 C1586 1.574 . S
C1569 C1588 1.368 . S
C1569 H1593 0.949 . S
H1570 C1574 0.949 . S
C1571 C1572 1.349 . S
C1571 C1573 1.327 . S
C1571 H1594 0.950 . S
C1572 C1571 1.349 . S
C1572 C1584 1.349 . S
C1573 C1571 1.327 . S
C1573 C1589 1.429 . S
C1573 H1595 0.950 . S
C1574 H1570 0.949 . S
C1574 C1582 1.574 . S
C1574 C1590 1.368 . S
H1575 C1583 0.950 . S
H1576 C1581 0.950 . S
H1577 C1582 0.949 . S
H1578 C1584 0.950 . S
H1579 C1585 0.950 . S
H1580 C1586 0.949 . S
C1581 H1576 0.950 . S
C1581 C1583 1.327 . S
C1581 C1587 1.429 . S
C1582 C1574 1.574 . S
C1582 H1577 0.949 . S
C1582 C1588 1.368 . S
C1583 C1567 1.349 . S
C1583 H1575 0.950 . S
C1583 C1581 1.327 . S
C1584 C1572 1.349 . S
C1584 H1578 0.950 . S
C1584 C1585 1.327 . S
C1585 H1579 0.950 . S
C1585 C1584 1.327 . S
C1585 C1589 1.429 . S
C1586 C1569 1.574 . S
C1586 H1580 0.949 . S
C1586 C1590 1.368 . S
C1587 C1568 1.429 . S
C1587 C1581 1.429 . S
C1587 C1588 1.523 . S
C1588 C1569 1.368 . S
C1588 C1582 1.368 . S
C1588 C1587 1.523 . S
C1589 C1573 1.429 . S
C1589 C1585 1.429 . S
C1589 C1590 1.523 . S
C1590 C1574 1.368 . S
C1590 C1586 1.368 . S
C1590 C1589 1.523 . S
H1591 C1566 0.950 . S
H1592 C1568 0.950 . S
H1593 C1569 0.949 . S
H1594 C1571 0.950 . S
H1595 C1573 0.950 . S
C1596 C1597 1.349 . S
C1596 C1598 1.327 . S
C1596 H1621 0.950 . S
C1597 C1596 1.349 . S
C1597 C1613 1.349 . S
C1598 C1596 1.327 . S
C1598 C1617 1.429 . S
C1598 H1622 0.950 . S
C1599 C1616 1.574 . S
C1599 C1618 1.368 . S
C1599 H1623 0.949 . S
H1600 C1604 0.949 . S
C1601 C1602 1.349 . S
C1601 C1603 1.327 . S
C1601 H1624 0.950 . S
C1602 C1601 1.349 . S
C1602 C1614 1.349 . S
C1603 C1601 1.327 . S
C1603 C1619 1.429 . S
C1603 H1625 0.950 . S
C1604 H1600 0.949 . S
C1604 C1612 1.574 . S
C1604 C1620 1.368 . S
H1605 C1613 0.950 . S
H1606 C1611 0.950 . S
H1607 C1612 0.949 . S
H1608 C1614 0.950 . S
H1609 C1615 0.950 . S
H1610 C1616 0.949 . S
C1611 H1606 0.950 . S
C1611 C1613 1.327 . S
C1611 C1617 1.429 . S
C1612 C1604 1.574 . S
C1612 H1607 0.949 . S
C1612 C1618 1.368 . S
C1613 C1597 1.349 . S
C1613 H1605 0.950 . S
C1613 C1611 1.327 . S
C1614 C1602 1.349 . S
C1614 H1608 0.950 . S
C1614 C1615 1.327 . S
C1615 H1609 0.950 . S
C1615 C1614 1.327 . S
C1615 C1619 1.429 . S
C1616 C1599 1.574 . S
C1616 H1610 0.949 . S
C1616 C1620 1.368 . S
C1617 C1598 1.429 . S
C1617 C1611 1.429 . S
C1617 C1618 1.523 . S
C1618 C1599 1.368 . S
C1618 C1612 1.368 . S
C1618 C1617 1.523 . S
C1619 C1603 1.429 . S
C1619 C1615 1.429 . S
C1619 C1620 1.523 . S
C1620 C1604 1.368 . S
C1620 C1616 1.368 . S
C1620 C1619 1.523 . S
H1621 C1596 0.950 . S
H1622 C1598 0.950 . S
H1623 C1599 0.949 . S
H1624 C1601 0.950 . S
H1625 C1603 0.950 . S
C1626 C1627 1.349 . S
C1626 C1628 1.327 . S
C1626 H1651 0.950 . S
C1627 C1626 1.349 . S
C1627 C1643 1.349 . S
C1628 C1626 1.327 . S
C1628 C1647 1.429 . S
C1628 H1652 0.950 . S
C1629 C1646 1.574 . S
C1629 C1648 1.368 . S
C1629 H1653 0.949 . S
H1630 C1634 0.949 . S
C1631 C1632 1.349 . S
C1631 C1633 1.327 . S
C1631 H1654 0.950 . S
C1632 C1631 1.349 . S
C1632 C1644 1.349 . S
C1633 C1631 1.327 . S
C1633 C1649 1.429 . S
C1633 H1655 0.950 . S
C1634 H1630 0.949 . S
C1634 C1642 1.574 . S
C1634 C1650 1.368 . S
H1635 C1643 0.950 . S
H1636 C1641 0.950 . S
H1637 C1642 0.949 . S
H1638 C1644 0.950 . S
H1639 C1645 0.950 . S
H1640 C1646 0.949 . S
C1641 H1636 0.950 . S
C1641 C1643 1.327 . S
C1641 C1647 1.429 . S
C1642 C1634 1.574 . S
C1642 H1637 0.949 . S
C1642 C1648 1.368 . S
C1643 C1627 1.349 . S
C1643 H1635 0.950 . S
C1643 C1641 1.327 . S
C1644 C1632 1.349 . S
C1644 H1638 0.950 . S
C1644 C1645 1.327 . S
C1645 H1639 0.950 . S
C1645 C1644 1.327 . S
C1645 C1649 1.429 . S
C1646 C1629 1.574 . S
C1646 H1640 0.949 . S
C1646 C1650 1.368 . S
C1647 C1628 1.429 . S
C1647 C1641 1.429 . S
C1647 C1648 1.523 . S
C1648 C1629 1.368 . S
C1648 C1642 1.368 . S
C1648 C1647 1.523 . S
C1649 C1633 1.429 . S
C1649 C1645 1.429 . S
C1649 C1650 1.523 . S
C1650 C1634 1.368 . S
C1650 C1646 1.368 . S
C1650 C1649 1.523 . S
H1651 C1626 0.950 . S
H1652 C1628 0.950 . S
H1653 C1629 0.949 . S
H1654 C1631 0.950 . S
H1655 C1633 0.950 . S
C1656 C1657 1.349 . S
C1656 C1658 1.327 . S
C1656 H1681 0.950 . S
C1657 C1656 1.349 . S
C1657 C1673 1.349 . S
C1658 C1656 1.327 . S
C1658 C1677 1.429 . S
C1658 H1682 0.950 . S
C1659 C1676 1.574 . S
C1659 C1678 1.368 . S
C1659 H1683 0.949 . S
H1660 C1664 0.949 . S
C1661 C1662 1.349 . S
C1661 C1663 1.327 . S
C1661 H1684 0.950 . S
C1662 C1661 1.349 . S
C1662 C1674 1.349 . S
C1663 C1661 1.327 . S
C1663 C1679 1.429 . S
C1663 H1685 0.950 . S
C1664 H1660 0.949 . S
C1664 C1672 1.574 . S
C1664 C1680 1.368 . S
H1665 C1673 0.950 . S
H1666 C1671 0.950 . S
H1667 C1672 0.949 . S
H1668 C1674 0.950 . S
H1669 C1675 0.950 . S
H1670 C1676 0.949 . S
C1671 H1666 0.950 . S
C1671 C1673 1.327 . S
C1671 C1677 1.429 . S
C1672 C1664 1.574 . S
C1672 H1667 0.949 . S
C1672 C1678 1.368 . S
C1673 C1657 1.349 . S
C1673 H1665 0.950 . S
C1673 C1671 1.327 . S
C1674 C1662 1.349 . S
C1674 H1668 0.950 . S
C1674 C1675 1.327 . S
C1675 H1669 0.950 . S
C1675 C1674 1.327 . S
C1675 C1679 1.429 . S
C1676 C1659 1.574 . S
C1676 H1670 0.949 . S
C1676 C1680 1.368 . S
C1677 C1658 1.429 . S
C1677 C1671 1.429 . S
C1677 C1678 1.523 . S
C1678 C1659 1.368 . S
C1678 C1672 1.368 . S
C1678 C1677 1.523 . S
C1679 C1663 1.429 . S
C1679 C1675 1.429 . S
C1679 C1680 1.523 . S
C1680 C1664 1.368 . S
C1680 C1676 1.368 . S
C1680 C1679 1.523 . S
H1681 C1656 0.950 . S
H1682 C1658 0.950 . S
H1683 C1659 0.949 . S
H1684 C1661 0.950 . S
H1685 C1663 0.950 . S
C1686 C1687 1.349 . S
C1686 C1688 1.327 . S
C1686 H1711 0.950 . S
C1687 C1686 1.349 . S
C1687 C1703 1.349 . S
C1688 C1686 1.327 . S
C1688 C1707 1.429 . S
C1688 H1712 0.950 . S
C1689 C1706 1.574 . S
C1689 C1708 1.368 . S
C1689 H1713 0.949 . S
H1690 C1694 0.949 . S
C1691 C1692 1.349 . S
C1691 C1693 1.327 . S
C1691 H1714 0.950 . S
C1692 C1691 1.349 . S
C1692 C1704 1.349 . S
C1693 C1691 1.327 . S
C1693 C1709 1.429 . S
C1693 H1715 0.950 . S
C1694 H1690 0.949 . S
C1694 C1702 1.574 . S
C1694 C1710 1.368 . S
H1695 C1703 0.950 . S
H1696 C1701 0.950 . S
H1697 C1702 0.949 . S
H1698 C1704 0.950 . S
H1699 C1705 0.950 . S
H1700 C1706 0.949 . S
C1701 H1696 0.950 . S
C1701 C1703 1.327 . S
C1701 C1707 1.429 . S
C1702 C1694 1.574 . S
C1702 H1697 0.949 . S
C1702 C1708 1.368 . S
C1703 C1687 1.349 . S
C1703 H1695 0.950 . S
C1703 C1701 1.327 . S
C1704 C1692 1.349 . S
C1704 H1698 0.950 . S
C1704 C1705 1.327 . S
C1705 H1699 0.950 . S
C1705 C1704 1.327 . S
C1705 C1709 1.429 . S
C1706 C1689 1.574 . S
C1706 H1700 0.949 . S
C1706 C1710 1.368 . S
C1707 C1688 1.429 . S
C1707 C1701 1.429 . S
C1707 C1708 1.523 . S
C1708 C1689 1.368 . S
C1708 C1702 1.368 . S
C1708 C1707 1.523 . S
C1709 C1693 1.429 . S
C1709 C1705 1.429 . S
C1709 C1710 1.523 . S
C1710 C1694 1.368 . S
C1710 C1706 1.368 . S
C1710 C1709 1.523 . S
H1711 C1686 0.950 . S
H1712 C1688 0.950 . S
H1713 C1689 0.949 . S
H1714 C1691 0.950 . S
H1715 C1693 0.950 . S
C1716 C1717 1.349 . S
C1716 C1718 1.327 . S
C1716 H1741 0.950 . S
C1717 C1716 1.349 . S
C1717 C1733 1.349 . S
C1718 C1716 1.327 . S
C1718 C1737 1.429 . S
C1718 H1742 0.950 . S
C1719 C1736 1.574 . S
C1719 C1738 1.368 . S
C1719 H1743 0.949 . S
H1720 C1724 0.949 . S
C1721 C1722 1.349 . S
C1721 C1723 1.327 . S
C1721 H1744 0.950 . S
C1722 C1721 1.349 . S
C1722 C1734 1.349 . S
C1723 C1721 1.327 . S
C1723 C1739 1.429 . S
C1723 H1745 0.950 . S
C1724 H1720 0.949 . S
C1724 C1732 1.574 . S
C1724 C1740 1.368 . S
H1725 C1733 0.950 . S
H1726 C1731 0.950 . S
H1727 C1732 0.949 . S
H1728 C1734 0.950 . S
H1729 C1735 0.950 . S
H1730 C1736 0.949 . S
C1731 H1726 0.950 . S
C1731 C1733 1.327 . S
C1731 C1737 1.429 . S
C1732 C1724 1.574 . S
C1732 H1727 0.949 . S
C1732 C1738 1.368 . S
C1733 C1717 1.349 . S
C1733 H1725 0.950 . S
C1733 C1731 1.327 . S
C1734 C1722 1.349 . S
C1734 H1728 0.950 . S
C1734 C1735 1.327 . S
C1735 H1729 0.950 . S
C1735 C1734 1.327 . S
C1735 C1739 1.429 . S
C1736 C1719 1.574 . S
C1736 H1730 0.949 . S
C1736 C1740 1.368 . S
C1737 C1718 1.429 . S
C1737 C1731 1.429 . S
C1737 C1738 1.523 . S
C1738 C1719 1.368 . S
C1738 C1732 1.368 . S
C1738 C1737 1.523 . S
C1739 C1723 1.429 . S
C1739 C1735 1.429 . S
C1739 C1740 1.523 . S
C1740 C1724 1.368 . S
C1740 C1736 1.368 . S
C1740 C1739 1.523 . S
H1741 C1716 0.950 . S
H1742 C1718 0.950 . S
H1743 C1719 0.949 . S
H1744 C1721 0.950 . S
H1745 C1723 0.950 . S
C1746 C1747 1.349 . S
C1746 C1748 1.327 . S
C1746 H1771 0.950 . S
C1747 C1746 1.349 . S
C1747 C1763 1.349 . S
C1748 C1746 1.327 . S
C1748 C1767 1.429 . S
C1748 H1772 0.950 . S
C1749 C1766 1.574 . S
C1749 C1768 1.368 . S
C1749 H1773 0.949 . S
H1750 C1754 0.949 . S
C1751 C1752 1.349 . S
C1751 C1753 1.327 . S
C1751 H1774 0.950 . S
C1752 C1751 1.349 . S
C1752 C1764 1.349 . S
C1753 C1751 1.327 . S
C1753 C1769 1.429 . S
C1753 H1775 0.950 . S
C1754 H1750 0.949 . S
C1754 C1762 1.574 . S
C1754 C1770 1.368 . S
H1755 C1763 0.950 . S
H1756 C1761 0.950 . S
H1757 C1762 0.949 . S
H1758 C1764 0.950 . S
H1759 C1765 0.950 . S
H1760 C1766 0.949 . S
C1761 H1756 0.950 . S
C1761 C1763 1.327 . S
C1761 C1767 1.429 . S
C1762 C1754 1.574 . S
C1762 H1757 0.949 . S
C1762 C1768 1.368 . S
C1763 C1747 1.349 . S
C1763 H1755 0.950 . S
C1763 C1761 1.327 . S
C1764 C1752 1.349 . S
C1764 H1758 0.950 . S
C1764 C1765 1.327 . S
C1765 H1759 0.950 . S
C1765 C1764 1.327 . S
C1765 C1769 1.429 . S
C1766 C1749 1.574 . S
C1766 H1760 0.949 . S
C1766 C1770 1.368 . S
C1767 C1748 1.429 . S
C1767 C1761 1.429 . S
C1767 C1768 1.523 . S
C1768 C1749 1.368 . S
C1768 C1762 1.368 . S
C1768 C1767 1.523 . S
C1769 C1753 1.429 . S
C1769 C1765 1.429 . S
C1769 C1770 1.523 . S
C1770 C1754 1.368 . S
C1770 C1766 1.368 . S
C1770 C1769 1.523 . S
H1771 C1746 0.950 . S
H1772 C1748 0.950 . S
H1773 C1749 0.949 . S
H1774 C1751 0.950 . S
H1775 C1753 0.950 . S
C1776 C1777 1.349 . S
C1776 C1778 1.327 . S
C1776 H1801 0.950 . S
C1777 C1776 1.349 . S
C1777 C1793 1.349 . S
C1778 C1776 1.327 . S
C1778 C1797 1.429 . S
C1778 H1802 0.950 . S
C1779 C1796 1.574 . S
C1779 C1798 1.368 . S
C1779 H1803 0.949 . S
H1780 C1784 0.949 . S
C1781 C1782 1.349 . S
C1781 C1783 1.327 . S
C1781 H1804 0.950 . S
C1782 C1781 1.349 . S
C1782 C1794 1.349 . S
C1783 C1781 1.327 . S
C1783 C1799 1.429 . S
C1783 H1805 0.950 . S
C1784 H1780 0.949 . S
C1784 C1792 1.574 . S
C1784 C1800 1.368 . S
H1785 C1793 0.950 . S
H1786 C1791 0.950 . S
H1787 C1792 0.949 . S
H1788 C1794 0.950 . S
H1789 C1795 0.950 . S
H1790 C1796 0.949 . S
C1791 H1786 0.950 . S
C1791 C1793 1.327 . S
C1791 C1797 1.429 . S
C1792 C1784 1.574 . S
C1792 H1787 0.949 . S
C1792 C1798 1.368 . S
C1793 C1777 1.349 . S
C1793 H1785 0.950 . S
C1793 C1791 1.327 . S
C1794 C1782 1.349 . S
C1794 H1788 0.950 . S
C1794 C1795 1.327 . S
C1795 H1789 0.950 . S
C1795 C1794 1.327 . S
C1795 C1799 1.429 . S
C1796 C1779 1.574 . S
C1796 H1790 0.949 . S
C1796 C1800 1.368 . S
C1797 C1778 1.429 . S
C1797 C1791 1.429 . S
C1797 C1798 1.523 . S
C1798 C1779 1.368 . S
C1798 C1792 1.368 . S
C1798 C1797 1.523 . S
C1799 C1783 1.429 . S
C1799 C1795 1.429 . S
C1799 C1800 1.523 . S
C1800 C1784 1.368 . S
C1800 C1796 1.368 . S
C1800 C1799 1.523 . S
H1801 C1776 0.950 . S
H1802 C1778 0.950 . S
H1803 C1779 0.949 . S
H1804 C1781 0.950 . S
H1805 C1783 0.950 . S
C1806 C1807 1.349 . S
C1806 C1808 1.327 . S
C1806 H1831 0.950 . S
C1807 C1806 1.349 . S
C1807 C1823 1.349 . S
C1808 C1806 1.327 . S
C1808 C1827 1.429 . S
C1808 H1832 0.950 . S
C1809 C1826 1.574 . S
C1809 C1828 1.368 . S
C1809 H1833 0.949 . S
H1810 C1814 0.949 . S
C1811 C1812 1.349 . S
C1811 C1813 1.327 . S
C1811 H1834 0.950 . S
C1812 C1811 1.349 . S
C1812 C1824 1.349 . S
C1813 C1811 1.327 . S
C1813 C1829 1.429 . S
C1813 H1835 0.950 . S
C1814 H1810 0.949 . S
C1814 C1822 1.574 . S
C1814 C1830 1.368 . S
H1815 C1823 0.950 . S
H1816 C1821 0.950 . S
H1817 C1822 0.949 . S
H1818 C1824 0.950 . S
H1819 C1825 0.950 . S
H1820 C1826 0.949 . S
C1821 H1816 0.950 . S
C1821 C1823 1.327 . S
C1821 C1827 1.429 . S
C1822 C1814 1.574 . S
C1822 H1817 0.949 . S
C1822 C1828 1.368 . S
C1823 C1807 1.349 . S
C1823 H1815 0.950 . S
C1823 C1821 1.327 . S
C1824 C1812 1.349 . S
C1824 H1818 0.950 . S
C1824 C1825 1.327 . S
C1825 H1819 0.950 . S
C1825 C1824 1.327 . S
C1825 C1829 1.429 . S
C1826 C1809 1.574 . S
C1826 H1820 0.949 . S
C1826 C1830 1.368 . S
C1827 C1808 1.429 . S
C1827 C1821 1.429 . S
C1827 C1828 1.523 . S
C1828 C1809 1.368 . S
C1828 C1822 1.368 . S
C1828 C1827 1.523 . S
C1829 C1813 1.429 . S
C1829 C1825 1.429 . S
C1829 C1830 1.523 . S
C1830 C1814 1.368 . S
C1830 C1826 1.368 . S
C1830 C1829 1.523 . S
H1831 C1806 0.950 . S
H1832 C1808 0.950 . S
H1833 C1809 0.949 . S
H1834 C1811 0.950 . S
H1835 C1813 0.950 . S
C1836 C1837 1.349 . S
C1836 C1838 1.327 . S
C1836 H1861 0.950 . S
C1837 C1836 1.349 . S
C1837 C1853 1.349 . S
C1838 C1836 1.327 . S
C1838 C1857 1.429 . S
C1838 H1862 0.950 . S
C1839 C1856 1.574 . S
C1839 C1858 1.368 . S
C1839 H1863 0.949 . S
H1840 C1844 0.949 . S
C1841 C1842 1.349 . S
C1841 C1843 1.327 . S
C1841 H1864 0.950 . S
C1842 C1841 1.349 . S
C1842 C1854 1.349 . S
C1843 C1841 1.327 . S
C1843 C1859 1.429 . S
C1843 H1865 0.950 . S
C1844 H1840 0.949 . S
C1844 C1852 1.574 . S
C1844 C1860 1.368 . S
H1845 C1853 0.950 . S
H1846 C1851 0.950 . S
H1847 C1852 0.949 . S
H1848 C1854 0.950 . S
H1849 C1855 0.950 . S
H1850 C1856 0.949 . S
C1851 H1846 0.950 . S
C1851 C1853 1.327 . S
C1851 C1857 1.429 . S
C1852 C1844 1.574 . S
C1852 H1847 0.949 . S
C1852 C1858 1.368 . S
C1853 C1837 1.349 . S
C1853 H1845 0.950 . S
C1853 C1851 1.327 . S
C1854 C1842 1.349 . S
C1854 H1848 0.950 . S
C1854 C1855 1.327 . S
C1855 H1849 0.950 . S
C1855 C1854 1.327 . S
C1855 C1859 1.429 . S
C1856 C1839 1.574 . S
C1856 H1850 0.949 . S
C1856 C1860 1.368 . S
C1857 C1838 1.429 . S
C1857 C1851 1.429 . S
C1857 C1858 1.523 . S
C1858 C1839 1.368 . S
C1858 C1852 1.368 . S
C1858 C1857 1.523 . S
C1859 C1843 1.429 . S
C1859 C1855 1.429 . S
C1859 C1860 1.523 . S
C1860 C1844 1.368 . S
C1860 C1856 1.368 . S
C1860 C1859 1.523 . S
H1861 C1836 0.950 . S
H1862 C1838 0.950 . S
H1863 C1839 0.949 . S
H1864 C1841 0.950 . S
H1865 C1843 0.950 . S
C1866 C1867 1.349 . S
C1866 C1868 1.327 . S
C1866 H1891 0.950 . S
C1867 C1866 1.349 . S
C1867 C1883 1.349 . S
C1868 C1866 1.327 . S
C1868 C1887 1.429 . S
C1868 H1892 0.950 . S
C1869 C1886 1.574 . S
C1869 C1888 1.368 . S
C1869 H1893 0.949 . S
H1870 C1874 0.949 . S
C1871 C1872 1.349 . S
C1871 C1873 1.327 . S
C1871 H1894 0.950 . S
C1872 C1871 1.349 . S
C1872 C1884 1.349 . S
C1873 C1871 1.327 . S
C1873 C1889 1.429 . S
C1873 H1895 0.950 . S
C1874 H1870 0.949 . S
C1874 C1882 1.574 . S
C1874 C1890 1.368 . S
H1875 C1883 0.950 . S
H1876 C1881 0.950 . S
H1877 C1882 0.949 . S
H1878 C1884 0.950 . S
H1879 C1885 0.950 . S
H1880 C1886 0.949 . S
C1881 H1876 0.950 . S
C1881 C1883 1.327 . S
C1881 C1887 1.429 . S
C1882 C1874 1.574 . S
C1882 H1877 0.949 . S
C1882 C1888 1.368 . S
C1883 C1867 1.349 . S
C1883 H1875 0.950 . S
C1883 C1881 1.327 . S
C1884 C1872 1.349 . S
C1884 H1878 0.950 . S
C1884 C1885 1.327 . S
C1885 H1879 0.950 . S
C1885 C1884 1.327 . S
C1885 C1889 1.429 . S
C1886 C1869 1.574 . S
C1886 H1880 0.949 . S
C1886 C1890 1.368 . S
C1887 C1868 1.429 . S
C1887 C1881 1.429 . S
C1887 C1888 1.523 . S
C1888 C1869 1.368 . S
C1888 C1882 1.368 . S
C1888 C1887 1.523 . S
C1889 C1873 1.429 . S
C1889 C1885 1.429 . S
C1889 C1890 1.523 . S
C1890 C1874 1.368 . S
C1890 C1886 1.368 . S
C1890 C1889 1.523 . S
H1891 C1866 0.950 . S
H1892 C1868 0.950 . S
H1893 C1869 0.949 . S
H1894 C1871 0.950 . S
H1895 C1873 0.950 . S
C1896 C1897 1.349 . S
C1896 C1898 1.327 . S
C1896 H1921 0.950 . S
C1897 C1896 1.349 . S
C1897 C1913 1.349 . S
C1898 C1896 1.327 . S
C1898 C1917 1.429 . S
C1898 H1922 0.950 . S
C1899 C1916 1.574 . S
C1899 C1918 1.368 . S
C1899 H1923 0.949 . S
H1900 C1904 0.949 . S
C1901 C1902 1.349 . S
C1901 C1903 1.327 . S
C1901 H1924 0.950 . S
C1902 C1901 1.349 . S
C1902 C1914 1.349 . S
C1903 C1901 1.327 . S
C1903 C1919 1.429 . S
C1903 H1925 0.950 . S
C1904 H1900 0.949 . S
C1904 C1912 1.574 . S
C1904 C1920 1.368 . S
H1905 C1913 0.950 . S
H1906 C1911 0.950 . S
H1907 C1912 0.949 . S
H1908 C1914 0.950 . S
H1909 C1915 0.950 . S
H1910 C1916 0.949 . S
C1911 H1906 0.950 . S
C1911 C1913 1.327 . S
C1911 C1917 1.429 . S
C1912 C1904 1.574 . S
C1912 H1907 0.949 . S
C1912 C1918 1.368 . S
C1913 C1897 1.349 . S
C1913 H1905 0.950 . S
C1913 C1911 1.327 . S
C1914 C1902 1.349 . S
C1914 H1908 0.950 . S
C1914 C1915 1.327 . S
C1915 H1909 0.950 . S
C1915 C1914 1.327 . S
C1915 C1919 1.429 . S
C1916 C1899 1.574 . S
C1916 H1910 0.949 . S
C1916 C1920 1.368 . S
C1917 C1898 1.429 . S
C1917 C1911 1.429 . S
C1917 C1918 1.523 . S
C1918 C1899 1.368 . S
C1918 C1912 1.368 . S
C1918 C1917 1.523 . S
C1919 C1903 1.429 . S
C1919 C1915 1.429 . S
C1919 C1920 1.523 . S
C1920 C1904 1.368 . S
C1920 C1916 1.368 . S
C1920 C1919 1.523 . S
H1921 C1896 0.950 . S
H1922 C1898 0.950 . S
H1923 C1899 0.949 . S
H1924 C1901 0.950 . S
H1925 C1903 0.950 . S
C1926 C1927 1.349 . S
C1926 C1928 1.327 . S
C1926 H1951 0.950 . S
C1927 C1926 1.349 . S
C1927 C1943 1.349 . S
C1928 C1926 1.327 . S
C1928 C1947 1.429 . S
C1928 H1952 0.950 . S
C1929 C1946 1.574 . S
C1929 C1948 1.368 . S
C1929 H1953 0.949 . S
H1930 C1934 0.949 . S
C1931 C1932 1.349 . S
C1931 C1933 1.327 . S
C1931 H1954 0.950 . S
C1932 C1931 1.349 . S
C1932 C1944 1.349 . S
C1933 C1931 1.327 . S
C1933 C1949 1.429 . S
C1933 H1955 0.950 . S
C1934 H1930 0.949 . S
C1934 C1942 1.574 . S
C1934 C1950 1.368 . S
H1935 C1943 0.950 . S
H1936 C1941 0.950 . S
H1937 C1942 0.949 . S
H1938 C1944 0.950 . S
H1939 C1945 0.950 . S
H1940 C1946 0.949 . S
C1941 H1936 0.950 . S
C1941 C1943 1.327 . S
C1941 C1947 1.429 . S
C1942 C1934 1.574 . S
C1942 H1937 0.949 . S
C1942 C1948 1.368 . S
C1943 C1927 1.349 . S
C1943 H1935 0.950 . S
C1943 C1941 1.327 . S
C1944 C1932 1.349 . S
C1944 H1938 0.950 . S
C1944 C1945 1.327 . S
C1945 H1939 0.950 . S
C1945 C1944 1.327 . S
C1945 C1949 1.429 . S
C1946 C1929 1.574 . S
C1946 H1940 0.949 . S
C1946 C1950 1.368 . S
C1947 C1928 1.429 . S
C1947 C1941 1.429 . S
C1947 C1948 1.523 . S
C1948 C1929 1.368 . S
C1948 C1942 1.368 . S
C1948 C1947 1.523 . S
C1949 C1933 1.429 . S
C1949 C1945 1.429 . S
C1949 C1950 1.523 . S
C1950 C1934 1.368 . S
C1950 C1946 1.368 . S
C1950 C1949 1.523 . S
H1951 C1926 0.950 . S
H1952 C1928 0.950 . S
H1953 C1929 0.949 . S
H1954 C1931 0.950 . S
H1955 C1933 0.950 . S
C1956 C1957 1.349 . S
C1956 C1958 1.327 . S
C1956 H1981 0.950 . S
C1957 C1956 1.349 . S
C1957 C1973 1.349 . S
C1958 C1956 1.327 . S
C1958 C1977 1.429 . S
C1958 H1982 0.950 . S
C1959 C1976 1.574 . S
C1959 C1978 1.368 . S
C1959 H1983 0.949 . S
H1960 C1964 0.949 . S
C1961 C1962 1.349 . S
C1961 C1963 1.327 . S
C1961 H1984 0.950 . S
C1962 C1961 1.349 . S
C1962 C1974 1.349 . S
C1963 C1961 1.327 . S
C1963 C1979 1.429 . S
C1963 H1985 0.950 . S
C1964 H1960 0.949 . S
C1964 C1972 1.574 . S
C1964 C1980 1.368 . S
H1965 C1973 0.950 . S
H1966 C1971 0.950 . S
H1967 C1972 0.949 . S
H1968 C1974 0.950 . S
H1969 C1975 0.950 . S
H1970 C1976 0.949 . S
C1971 H1966 0.950 . S
C1971 C1973 1.327 . S
C1971 C1977 1.429 . S
C1972 C1964 1.574 . S
C1972 H1967 0.949 . S
C1972 C1978 1.368 . S
C1973 C1957 1.349 . S
C1973 H1965 0.950 . S
C1973 C1971 1.327 . S
C1974 C1962 1.349 . S
C1974 H1968 0.950 . S
C1974 C1975 1.327 . S
C1975 H1969 0.950 . S
C1975 C1974 1.327 . S
C1975 C1979 1.429 . S
C1976 C1959 1.574 . S
C1976 H1970 0.949 . S
C1976 C1980 1.368 . S
C1977 C1958 1.429 . S
C1977 C1971 1.429 . S
C1977 C1978 1.523 . S
C1978 C1959 1.368 . S
C1978 C1972 1.368 . S
C1978 C1977 1.523 . S
C1979 C1963 1.429 . S
C1979 C1975 1.429 . S
C1979 C1980 1.523 . S
C1980 C1964 1.368 . S
C1980 C1976 1.368 . S
C1980 C1979 1.523 . S
H1981 C1956 0.950 . S
H1982 C1958 0.950 . S
H1983 C1959 0.949 . S
H1984 C1961 0.950 . S
H1985 C1963 0.950 . S
C1986 C1987 1.349 . S
C1986 C1988 1.327 . S
C1986 H2011 0.950 . S
C1987 C1986 1.349 . S
C1987 C2003 1.349 . S
C1988 C1986 1.327 . S
C1988 C2007 1.429 . S
C1988 H2012 0.950 . S
C1989 C2006 1.574 . S
C1989 C2008 1.368 . S
C1989 H2013 0.949 . S
H1990 C1994 0.949 . S
C1991 C1992 1.349 . S
C1991 C1993 1.327 . S
C1991 H2014 0.950 . S
C1992 C1991 1.349 . S
C1992 C2004 1.349 . S
C1993 C1991 1.327 . S
C1993 C2009 1.429 . S
C1993 H2015 0.950 . S
C1994 H1990 0.949 . S
C1994 C2002 1.574 . S
C1994 C2010 1.368 . S
H1995 C2003 0.950 . S
H1996 C2001 0.950 . S
H1997 C2002 0.949 . S
H1998 C2004 0.950 . S
H1999 C2005 0.950 . S
H2000 C2006 0.949 . S
C2001 H1996 0.950 . S
C2001 C2003 1.327 . S
C2001 C2007 1.429 . S
C2002 C1994 1.574 . S
C2002 H1997 0.949 . S
C2002 C2008 1.368 . S
C2003 C1987 1.349 . S
C2003 H1995 0.950 . S
C2003 C2001 1.327 . S
C2004 C1992 1.349 . S
C2004 H1998 0.950 . S
C2004 C2005 1.327 . S
C2005 H1999 0.950 . S
C2005 C2004 1.327 . S
C2005 C2009 1.429 . S
C2006 C1989 1.574 . S
C2006 H2000 0.949 . S
C2006 C2010 1.368 . S
C2007 C1988 1.429 . S
C2007 C2001 1.429 . S
C2007 C2008 1.523 . S
C2008 C1989 1.368 . S
C2008 C2002 1.368 . S
C2008 C2007 1.523 . S
C2009 C1993 1.429 . S
C2009 C2005 1.429 . S
C2009 C2010 1.523 . S
C2010 C1994 1.368 . S
C2010 C2006 1.368 . S
C2010 C2009 1.523 . S
H2011 C1986 0.950 . S
H2012 C1988 0.950 . S
H2013 C1989 0.949 . S
H2014 C1991 0.950 . S
H2015 C1993 0.950 . S
C2016 C2017 1.349 . S
C2016 C2018 1.327 . S
C2016 H2041 0.950 . S
C2017 C2016 1.349 . S
C2017 C2033 1.349 . S
C2018 C2016 1.327 . S
C2018 C2037 1.429 . S
C2018 H2042 0.950 . S
C2019 C2036 1.574 . S
C2019 C2038 1.368 . S
C2019 H2043 0.949 . S
H2020 C2024 0.949 . S
C2021 C2022 1.349 . S
C2021 C2023 1.327 . S
C2021 H2044 0.950 . S
C2022 C2021 1.349 . S
C2022 C2034 1.349 . S
C2023 C2021 1.327 . S
C2023 C2039 1.429 . S
C2023 H2045 0.950 . S
C2024 H2020 0.949 . S
C2024 C2032 1.574 . S
C2024 C2040 1.368 . S
H2025 C2033 0.950 . S
H2026 C2031 0.950 . S
H2027 C2032 0.949 . S
H2028 C2034 0.950 . S
H2029 C2035 0.950 . S
H2030 C2036 0.949 . S
C2031 H2026 0.950 . S
C2031 C2033 1.327 . S
C2031 C2037 1.429 . S
C2032 C2024 1.574 . S
C2032 H2027 0.949 . S
C2032 C2038 1.368 . S
C2033 C2017 1.349 . S
C2033 H2025 0.950 . S
C2033 C2031 1.327 . S
C2034 C2022 1.349 . S
C2034 H2028 0.950 . S
C2034 C2035 1.327 . S
C2035 H2029 0.950 . S
C2035 C2034 1.327 . S
C2035 C2039 1.429 . S
C2036 C2019 1.574 . S
C2036 H2030 0.949 . S
C2036 C2040 1.368 . S
C2037 C2018 1.429 . S
C2037 C2031 1.429 . S
C2037 C2038 1.523 . S
C2038 C2019 1.368 . S
C2038 C2032 1.368 . S
C2038 C2037 1.523 . S
C2039 C2023 1.429 . S
C2039 C2035 1.429 . S
C2039 C2040 1.523 . S
C2040 C2024 1.368 . S
C2040 C2036 1.368 . S
C2040 C2039 1.523 . S
H2041 C2016 0.950 . S
H2042 C2018 0.950 . S
H2043 C2019 0.949 . S
H2044 C2021 0.950 . S
H2045 C2023 0.950 . S
C2046 C2047 1.349 . S
C2046 C2048 1.327 . S
C2046 H2071 0.950 . S
C2047 C2046 1.349 . S
C2047 C2063 1.349 . S
C2048 C2046 1.327 . S
C2048 C2067 1.429 . S
C2048 H2072 0.950 . S
C2049 C2066 1.574 . S
C2049 C2068 1.368 . S
C2049 H2073 0.949 . S
H2050 C2054 0.949 . S
C2051 C2052 1.349 . S
C2051 C2053 1.327 . S
C2051 H2074 0.950 . S
C2052 C2051 1.349 . S
C2052 C2064 1.349 . S
C2053 C2051 1.327 . S
C2053 C2069 1.429 . S
C2053 H2075 0.950 . S
C2054 H2050 0.949 . S
C2054 C2062 1.574 . S
C2054 C2070 1.368 . S
H2055 C2063 0.950 . S
H2056 C2061 0.950 . S
H2057 C2062 0.949 . S
H2058 C2064 0.950 . S
H2059 C2065 0.950 . S
H2060 C2066 0.949 . S
C2061 H2056 0.950 . S
C2061 C2063 1.327 . S
C2061 C2067 1.429 . S
C2062 C2054 1.574 . S
C2062 H2057 0.949 . S
C2062 C2068 1.368 . S
C2063 C2047 1.349 . S
C2063 H2055 0.950 . S
C2063 C2061 1.327 . S
C2064 C2052 1.349 . S
C2064 H2058 0.950 . S
C2064 C2065 1.327 . S
C2065 H2059 0.950 . S
C2065 C2064 1.327 . S
C2065 C2069 1.429 . S
C2066 C2049 1.574 . S
C2066 H2060 0.949 . S
C2066 C2070 1.368 . S
C2067 C2048 1.429 . S
C2067 C2061 1.429 . S
C2067 C2068 1.523 . S
C2068 C2049 1.368 . S
C2068 C2062 1.368 . S
C2068 C2067 1.523 . S
C2069 C2053 1.429 . S
C2069 C2065 1.429 . S
C2069 C2070 1.523 . S
C2070 C2054 1.368 . S
C2070 C2066 1.368 . S
C2070 C2069 1.523 . S
H2071 C2046 0.950 . S
H2072 C2048 0.950 . S
H2073 C2049 0.949 . S
H2074 C2051 0.950 . S
H2075 C2053 0.950 . S
C2076 C2077 1.349 . S
C2076 C2078 1.327 . S
C2076 H2101 0.950 . S
C2077 C2076 1.349 . S
C2077 C2093 1.349 . S
C2078 C2076 1.327 . S
C2078 C2097 1.429 . S
C2078 H2102 0.950 . S
C2079 C2096 1.574 . S
C2079 C2098 1.368 . S
C2079 H2103 0.949 . S
H2080 C2084 0.949 . S
C2081 C2082 1.349 . S
C2081 C2083 1.327 . S
C2081 H2104 0.950 . S
C2082 C2081 1.349 . S
C2082 C2094 1.349 . S
C2083 C2081 1.327 . S
C2083 C2099 1.429 . S
C2083 H2105 0.950 . S
C2084 H2080 0.949 . S
C2084 C2092 1.574 . S
C2084 C2100 1.368 . S
H2085 C2093 0.950 . S
H2086 C2091 0.950 . S
H2087 C2092 0.949 . S
H2088 C2094 0.950 . S
H2089 C2095 0.950 . S
H2090 C2096 0.949 . S
C2091 H2086 0.950 . S
C2091 C2093 1.327 . S
C2091 C2097 1.429 . S
C2092 C2084 1.574 . S
C2092 H2087 0.949 . S
C2092 C2098 1.368 . S
C2093 C2077 1.349 . S
C2093 H2085 0.950 . S
C2093 C2091 1.327 . S
C2094 C2082 1.349 . S
C2094 H2088 0.950 . S
C2094 C2095 1.327 . S
C2095 H2089 0.950 . S
C2095 C2094 1.327 . S
C2095 C2099 1.429 . S
C2096 C2079 1.574 . S
C2096 H2090 0.949 . S
C2096 C2100 1.368 . S
C2097 C2078 1.429 . S
C2097 C2091 1.429 . S
C2097 C2098 1.523 . S
C2098 C2079 1.368 . S
C2098 C2092 1.368 . S
C2098 C2097 1.523 . S
C2099 C2083 1.429 . S
C2099 C2095 1.429 . S
C2099 C2100 1.523 . S
C2100 C2084 1.368 . S
C2100 C2096 1.368 . S
C2100 C2099 1.523 . S
H2101 C2076 0.950 . S
H2102 C2078 0.950 . S
H2103 C2079 0.949 . S
H2104 C2081 0.950 . S
H2105 C2083 0.950 . S
C2106 C2107 1.349 . S
C2106 C2108 1.327 . S
C2106 H2131 0.950 . S
C2107 C2106 1.349 . S
C2107 C2123 1.349 . S
C2108 C2106 1.327 . S
C2108 C2127 1.429 . S
C2108 H2132 0.950 . S
C2109 C2126 1.574 . S
C2109 C2128 1.368 . S
C2109 H2133 0.949 . S
H2110 C2114 0.949 . S
C2111 C2112 1.349 . S
C2111 C2113 1.327 . S
C2111 H2134 0.950 . S
C2112 C2111 1.349 . S
C2112 C2124 1.349 . S
C2113 C2111 1.327 . S
C2113 C2129 1.429 . S
C2113 H2135 0.950 . S
C2114 H2110 0.949 . S
C2114 C2122 1.574 . S
C2114 C2130 1.368 . S
H2115 C2123 0.950 . S
H2116 C2121 0.950 . S
H2117 C2122 0.949 . S
H2118 C2124 0.950 . S
H2119 C2125 0.950 . S
H2120 C2126 0.949 . S
C2121 H2116 0.950 . S
C2121 C2123 1.327 . S
C2121 C2127 1.429 . S
C2122 C2114 1.574 . S
C2122 H2117 0.949 . S
C2122 C2128 1.368 . S
C2123 C2107 1.349 . S
C2123 H2115 0.950 . S
C2123 C2121 1.327 . S
C2124 C2112 1.349 . S
C2124 H2118 0.950 . S
C2124 C2125 1.327 . S
C2125 H2119 0.950 . S
C2125 C2124 1.327 . S
C2125 C2129 1.429 . S
C2126 C2109 1.574 . S
C2126 H2120 0.949 . S
C2126 C2130 1.368 . S
C2127 C2108 1.429 . S
C2127 C2121 1.429 . S
C2127 C2128 1.523 . S
C2128 C2109 1.368 . S
C2128 C2122 1.368 . S
C2128 C2127 1.523 . S
C2129 C2113 1.429 . S
C2129 C2125 1.429 . S
C2129 C2130 1.523 . S
C2130 C2114 1.368 . S
C2130 C2126 1.368 . S
C2130 C2129 1.523 . S
H2131 C2106 0.950 . S
H2132 C2108 0.950 . S
H2133 C2109 0.949 . S
H2134 C2111 0.950 . S
H2135 C2113 0.950 . S
C2136 C2137 1.349 . S
C2136 C2138 1.327 . S
C2136 H2161 0.950 . S
C2137 C2136 1.349 . S
C2137 C2153 1.349 . S
C2138 C2136 1.327 . S
C2138 C2157 1.429 . S
C2138 H2162 0.950 . S
C2139 C2156 1.574 . S
C2139 C2158 1.368 . S
C2139 H2163 0.949 . S
H2140 C2144 0.949 . S
C2141 C2142 1.349 . S
C2141 C2143 1.327 . S
C2141 H2164 0.950 . S
C2142 C2141 1.349 . S
C2142 C2154 1.349 . S
C2143 C2141 1.327 . S
C2143 C2159 1.429 . S
C2143 H2165 0.950 . S
C2144 H2140 0.949 . S
C2144 C2152 1.574 . S
C2144 C2160 1.368 . S
H2145 C2153 0.950 . S
H2146 C2151 0.950 . S
H2147 C2152 0.949 . S
H2148 C2154 0.950 . S
H2149 C2155 0.950 . S
H2150 C2156 0.949 . S
C2151 H2146 0.950 . S
C2151 C2153 1.327 . S
C2151 C2157 1.429 . S
C2152 C2144 1.574 . S
C2152 H2147 0.949 . S
C2152 C2158 1.368 . S
C2153 C2137 1.349 . S
C2153 H2145 0.950 . S
C2153 C2151 1.327 . S
C2154 C2142 1.349 . S
C2154 H2148 0.950 . S
C2154 C2155 1.327 . S
C2155 H2149 0.950 . S
C2155 C2154 1.327 . S
C2155 C2159 1.429 . S
C2156 C2139 1.574 . S
C2156 H2150 0.949 . S
C2156 C2160 1.368 . S
C2157 C2138 1.429 . S
C2157 C2151 1.429 . S
C2157 C2158 1.523 . S
C2158 C2139 1.368 . S
C2158 C2152 1.368 . S
C2158 C2157 1.523 . S
C2159 C2143 1.429 . S
C2159 C2155 1.429 . S
C2159 C2160 1.523 . S
C2160 C2144 1.368 . S
C2160 C2156 1.368 . S
C2160 C2159 1.523 . S
H2161 C2136 0.950 . S
H2162 C2138 0.950 . S
H2163 C2139 0.949 . S
H2164 C2141 0.950 . S
H2165 C2143 0.950 . S
C2166 C2167 1.349 . S
C2166 C2168 1.327 . S
C2166 H2191 0.950 . S
C2167 C2166 1.349 . S
C2167 C2183 1.349 . S
C2168 C2166 1.327 . S
C2168 C2187 1.429 . S
C2168 H2192 0.950 . S
C2169 C2186 1.574 . S
C2169 C2188 1.368 . S
C2169 H2193 0.949 . S
H2170 C2174 0.949 . S
C2171 C2172 1.349 . S
C2171 C2173 1.327 . S
C2171 H2194 0.950 . S
C2172 C2171 1.349 . S
C2172 C2184 1.349 . S
C2173 C2171 1.327 . S
C2173 C2189 1.429 . S
C2173 H2195 0.950 . S
C2174 H2170 0.949 . S
C2174 C2182 1.574 . S
C2174 C2190 1.368 . S
H2175 C2183 0.950 . S
H2176 C2181 0.950 . S
H2177 C2182 0.949 . S
H2178 C2184 0.950 . S
H2179 C2185 0.950 . S
H2180 C2186 0.949 . S
C2181 H2176 0.950 . S
C2181 C2183 1.327 . S
C2181 C2187 1.429 . S
C2182 C2174 1.574 . S
C2182 H2177 0.949 . S
C2182 C2188 1.368 . S
C2183 C2167 1.349 . S
C2183 H2175 0.950 . S
C2183 C2181 1.327 . S
C2184 C2172 1.349 . S
C2184 H2178 0.950 . S
C2184 C2185 1.327 . S
C2185 H2179 0.950 . S
C2185 C2184 1.327 . S
C2185 C2189 1.429 . S
C2186 C2169 1.574 . S
C2186 H2180 0.949 . S
C2186 C2190 1.368 . S
C2187 C2168 1.429 . S
C2187 C2181 1.429 . S
C2187 C2188 1.523 . S
C2188 C2169 1.368 . S
C2188 C2182 1.368 . S
C2188 C2187 1.523 . S
C2189 C2173 1.429 . S
C2189 C2185 1.429 . S
C2189 C2190 1.523 . S
C2190 C2174 1.368 . S
C2190 C2186 1.368 . S
C2190 C2189 1.523 . S
H2191 C2166 0.950 . S
H2192 C2168 0.950 . S
H2193 C2169 0.949 . S
H2194 C2171 0.950 . S
H2195 C2173 0.950 . S
C2196 C2197 1.349 . S
C2196 C2198 1.327 . S
C2196 H2221 0.950 . S
C2197 C2196 1.349 . S
C2197 C2213 1.349 . S
C2198 C2196 1.327 . S
C2198 C2217 1.429 . S
C2198 H2222 0.950 . S
C2199 C2216 1.574 . S
C2199 C2218 1.368 . S
C2199 H2223 0.949 . S
H2200 C2204 0.949 . S
C2201 C2202 1.349 . S
C2201 C2203 1.327 . S
C2201 H2224 0.950 . S
C2202 C2201 1.349 . S
C2202 C2214 1.349 . S
C2203 C2201 1.327 . S
C2203 C2219 1.429 . S
C2203 H2225 0.950 . S
C2204 H2200 0.949 . S
C2204 C2212 1.574 . S
C2204 C2220 1.368 . S
H2205 C2213 0.950 . S
H2206 C2211 0.950 . S
H2207 C2212 0.949 . S
H2208 C2214 0.950 . S
H2209 C2215 0.950 . S
H2210 C2216 0.949 . S
C2211 H2206 0.950 . S
C2211 C2213 1.327 . S
C2211 C2217 1.429 . S
C2212 C2204 1.574 . S
C2212 H2207 0.949 . S
C2212 C2218 1.368 . S
C2213 C2197 1.349 . S
C2213 H2205 0.950 . S
C2213 C2211 1.327 . S
C2214 C2202 1.349 . S
C2214 H2208 0.950 . S
C2214 C2215 1.327 . S
C2215 H2209 0.950 . S
C2215 C2214 1.327 . S
C2215 C2219 1.429 . S
C2216 C2199 1.574 . S
C2216 H2210 0.949 . S
C2216 C2220 1.368 . S
C2217 C2198 1.429 . S
C2217 C2211 1.429 . S
C2217 C2218 1.523 . S
C2218 C2199 1.368 . S
C2218 C2212 1.368 . S
C2218 C2217 1.523 . S
C2219 C2203 1.429 . S
C2219 C2215 1.429 . S
C2219 C2220 1.523 . S
C2220 C2204 1.368 . S
C2220 C2216 1.368 . S
C2220 C2219 1.523 . S
H2221 C2196 0.950 . S
H2222 C2198 0.950 . S
H2223 C2199 0.949 . S
H2224 C2201 0.950 . S
H2225 C2203 0.950 . S
C2226 C2227 1.349 . S
C2226 C2228 1.327 . S
C2226 H2251 0.950 . S
C2227 C2226 1.349 . S
C2227 C2243 1.349 . S
C2228 C2226 1.327 . S
C2228 C2247 1.429 . S
C2228 H2252 0.950 . S
C2229 C2246 1.574 . S
C2229 C2248 1.368 . S
C2229 H2253 0.949 . S
H2230 C2234 0.949 . S
C2231 C2232 1.349 . S
C2231 C2233 1.327 . S
C2231 H2254 0.950 . S
C2232 C2231 1.349 . S
C2232 C2244 1.349 . S
C2233 C2231 1.327 . S
C2233 C2249 1.429 . S
C2233 H2255 0.950 . S
C2234 H2230 0.949 . S
C2234 C2242 1.574 . S
C2234 C2250 1.368 . S
H2235 C2243 0.950 . S
H2236 C2241 0.950 . S
H2237 C2242 0.949 . S
H2238 C2244 0.950 . S
H2239 C2245 0.950 . S
H2240 C2246 0.949 . S
C2241 H2236 0.950 . S
C2241 C2243 1.327 . S
C2241 C2247 1.429 . S
C2242 C2234 1.574 . S
C2242 H2237 0.949 . S
C2242 C2248 1.368 . S
C2243 C2227 1.349 . S
C2243 H2235 0.950 . S
C2243 C2241 1.327 . S
C2244 C2232 1.349 . S
C2244 H2238 0.950 . S
C2244 C2245 1.327 . S
C2245 H2239 0.950 . S
C2245 C2244 1.327 . S
C2245 C2249 1.429 . S
C2246 C2229 1.574 . S
C2246 H2240 0.949 . S
C2246 C2250 1.368 . S
C2247 C2228 1.429 . S
C2247 C2241 1.429 . S
C2247 C2248 1.523 . S
C2248 C2229 1.368 . S
C2248 C2242 1.368 . S
C2248 C2247 1.523 . S
C2249 C2233 1.429 . S
C2249 C2245 1.429 . S
C2249 C2250 1.523 . S
C2250 C2234 1.368 . S
C2250 C2246 1.368 . S
C2250 C2249 1.523 . S
H2251 C2226 0.950 . S
H2252 C2228 0.950 . S
H2253 C2229 0.949 . S
H2254 C2231 0.950 . S
H2255 C2233 0.950 . S
C2256 C2257 1.349 . S
C2256 C2258 1.327 . S
C2256 H2281 0.950 . S
C2257 C2256 1.349 . S
C2257 C2273 1.349 . S
C2258 C2256 1.327 . S
C2258 C2277 1.429 . S
C2258 H2282 0.950 . S
C2259 C2276 1.574 . S
C2259 C2278 1.368 . S
C2259 H2283 0.949 . S
H2260 C2264 0.949 . S
C2261 C2262 1.349 . S
C2261 C2263 1.327 . S
C2261 H2284 0.950 . S
C2262 C2261 1.349 . S
C2262 C2274 1.349 . S
C2263 C2261 1.327 . S
C2263 C2279 1.429 . S
C2263 H2285 0.950 . S
C2264 H2260 0.949 . S
C2264 C2272 1.574 . S
C2264 C2280 1.368 . S
H2265 C2273 0.950 . S
H2266 C2271 0.950 . S
H2267 C2272 0.949 . S
H2268 C2274 0.950 . S
H2269 C2275 0.950 . S
H2270 C2276 0.949 . S
C2271 H2266 0.950 . S
C2271 C2273 1.327 . S
C2271 C2277 1.429 . S
C2272 C2264 1.574 . S
C2272 H2267 0.949 . S
C2272 C2278 1.368 . S
C2273 C2257 1.349 . S
C2273 H2265 0.950 . S
C2273 C2271 1.327 . S
C2274 C2262 1.349 . S
C2274 H2268 0.950 . S
C2274 C2275 1.327 . S
C2275 H2269 0.950 . S
C2275 C2274 1.327 . S
C2275 C2279 1.429 . S
C2276 C2259 1.574 . S
C2276 H2270 0.949 . S
C2276 C2280 1.368 . S
C2277 C2258 1.429 . S
C2277 C2271 1.429 . S
C2277 C2278 1.523 . S
C2278 C2259 1.368 . S
C2278 C2272 1.368 . S
C2278 C2277 1.523 . S
C2279 C2263 1.429 . S
C2279 C2275 1.429 . S
C2279 C2280 1.523 . S
C2280 C2264 1.368 . S
C2280 C2276 1.368 . S
C2280 C2279 1.523 . S
H2281 C2256 0.950 . S
H2282 C2258 0.950 . S
H2283 C2259 0.949 . S
H2284 C2261 0.950 . S
H2285 C2263 0.950 . S
C2286 C2287 1.349 . S
C2286 C2288 1.327 . S
C2286 H2311 0.950 . S
C2287 C2286 1.349 . S
C2287 C2303 1.349 . S
C2288 C2286 1.327 . S
C2288 C2307 1.429 . S
C2288 H2312 0.950 . S
C2289 C2306 1.574 . S
C2289 C2308 1.368 . S
C2289 H2313 0.949 . S
H2290 C2294 0.949 . S
C2291 C2292 1.349 . S
C2291 C2293 1.327 . S
C2291 H2314 0.950 . S
C2292 C2291 1.349 . S
C2292 C2304 1.349 . S
C2293 C2291 1.327 . S
C2293 C2309 1.429 . S
C2293 H2315 0.950 . S
C2294 H2290 0.949 . S
C2294 C2302 1.574 . S
C2294 C2310 1.368 . S
H2295 C2303 0.950 . S
H2296 C2301 0.950 . S
H2297 C2302 0.949 . S
H2298 C2304 0.950 . S
H2299 C2305 0.950 . S
H2300 C2306 0.949 . S
C2301 H2296 0.950 . S
C2301 C2303 1.327 . S
C2301 C2307 1.429 . S
C2302 C2294 1.574 . S
C2302 H2297 0.949 . S
C2302 C2308 1.368 . S
C2303 C2287 1.349 . S
C2303 H2295 0.950 . S
C2303 C2301 1.327 . S
C2304 C2292 1.349 . S
C2304 H2298 0.950 . S
C2304 C2305 1.327 . S
C2305 H2299 0.950 . S
C2305 C2304 1.327 . S
C2305 C2309 1.429 . S
C2306 C2289 1.574 . S
C2306 H2300 0.949 . S
C2306 C2310 1.368 . S
C2307 C2288 1.429 . S
C2307 C2301 1.429 . S
C2307 C2308 1.523 . S
C2308 C2289 1.368 . S
C2308 C2302 1.368 . S
C2308 C2307 1.523 . S
C2309 C2293 1.429 . S
C2309 C2305 1.429 . S
C2309 C2310 1.523 . S
C2310 C2294 1.368 . S
C2310 C2306 1.368 . S
C2310 C2309 1.523 . S
H2311 C2286 0.950 . S
H2312 C2288 0.950 . S
H2313 C2289 0.949 . S
H2314 C2291 0.950 . S
H2315 C2293 0.950 . S
C2316 C2317 1.349 . S
C2316 C2318 1.327 . S
C2316 H2341 0.950 . S
C2317 C2316 1.349 . S
C2317 C2333 1.349 . S
C2318 C2316 1.327 . S
C2318 C2337 1.429 . S
C2318 H2342 0.950 . S
C2319 C2336 1.574 . S
C2319 C2338 1.368 . S
C2319 H2343 0.949 . S
H2320 C2324 0.949 . S
C2321 C2322 1.349 . S
C2321 C2323 1.327 . S
C2321 H2344 0.950 . S
C2322 C2321 1.349 . S
C2322 C2334 1.349 . S
C2323 C2321 1.327 . S
C2323 C2339 1.429 . S
C2323 H2345 0.950 . S
C2324 H2320 0.949 . S
C2324 C2332 1.574 . S
C2324 C2340 1.368 . S
H2325 C2333 0.950 . S
H2326 C2331 0.950 . S
H2327 C2332 0.949 . S
H2328 C2334 0.950 . S
H2329 C2335 0.950 . S
H2330 C2336 0.949 . S
C2331 H2326 0.950 . S
C2331 C2333 1.327 . S
C2331 C2337 1.429 . S
C2332 C2324 1.574 . S
C2332 H2327 0.949 . S
C2332 C2338 1.368 . S
C2333 C2317 1.349 . S
C2333 H2325 0.950 . S
C2333 C2331 1.327 . S
C2334 C2322 1.349 . S
C2334 H2328 0.950 . S
C2334 C2335 1.327 . S
C2335 H2329 0.950 . S
C2335 C2334 1.327 . S
C2335 C2339 1.429 . S
C2336 C2319 1.574 . S
C2336 H2330 0.949 . S
C2336 C2340 1.368 . S
C2337 C2318 1.429 . S
C2337 C2331 1.429 . S
C2337 C2338 1.523 . S
C2338 C2319 1.368 . S
C2338 C2332 1.368 . S
C2338 C2337 1.523 . S
C2339 C2323 1.429 . S
C2339 C2335 1.429 . S
C2339 C2340 1.523 . S
C2340 C2324 1.368 . S
C2340 C2336 1.368 . S
C2340 C2339 1.523 . S
H2341 C2316 0.950 . S
H2342 C2318 0.950 . S
H2343 C2319 0.949 . S
H2344 C2321 0.950 . S
H2345 C2323 0.950 . S
C2346 C2347 1.349 . S
C2346 C2348 1.327 . S
C2346 H2371 0.950 . S
C2347 C2346 1.349 . S
C2347 C2363 1.349 . S
C2348 C2346 1.327 . S
C2348 C2367 1.429 . S
C2348 H2372 0.950 . S
C2349 C2366 1.574 . S
C2349 C2368 1.368 . S
C2349 H2373 0.949 . S
H2350 C2354 0.949 . S
C2351 C2352 1.349 . S
C2351 C2353 1.327 . S
C2351 H2374 0.950 . S
C2352 C2351 1.349 . S
C2352 C2364 1.349 . S
C2353 C2351 1.327 . S
C2353 C2369 1.429 . S
C2353 H2375 0.950 . S
C2354 H2350 0.949 . S
C2354 C2362 1.574 . S
C2354 C2370 1.368 . S
H2355 C2363 0.950 . S
H2356 C2361 0.950 . S
H2357 C2362 0.949 . S
H2358 C2364 0.950 . S
H2359 C2365 0.950 . S
H2360 C2366 0.949 . S
C2361 H2356 0.950 . S
C2361 C2363 1.327 . S
C2361 C2367 1.429 . S
C2362 C2354 1.574 . S
C2362 H2357 0.949 . S
C2362 C2368 1.368 . S
C2363 C2347 1.349 . S
C2363 H2355 0.950 . S
C2363 C2361 1.327 . S
C2364 C2352 1.349 . S
C2364 H2358 0.950 . S
C2364 C2365 1.327 . S
C2365 H2359 0.950 . S
C2365 C2364 1.327 . S
C2365 C2369 1.429 . S
C2366 C2349 1.574 . S
C2366 H2360 0.949 . S
C2366 C2370 1.368 . S
C2367 C2348 1.429 . S
C2367 C2361 1.429 . S
C2367 C2368 1.523 . S
C2368 C2349 1.368 . S
C2368 C2362 1.368 . S
C2368 C2367 1.523 . S
C2369 C2353 1.429 . S
C2369 C2365 1.429 . S
C2369 C2370 1.523 . S
C2370 C2354 1.368 . S
C2370 C2366 1.368 . S
C2370 C2369 1.523 . S
H2371 C2346 0.950 . S
H2372 C2348 0.950 . S
H2373 C2349 0.949 . S
H2374 C2351 0.950 . S
H2375 C2353 0.950 . S
C2376 C2377 1.349 . S
C2376 C2378 1.327 . S
C2376 H2401 0.950 . S
C2377 C2376 1.349 . S
C2377 C2393 1.349 . S
C2378 C2376 1.327 . S
C2378 C2397 1.429 . S
C2378 H2402 0.950 . S
C2379 C2396 1.574 . S
C2379 C2398 1.368 . S
C2379 H2403 0.949 . S
H2380 C2384 0.949 . S
C2381 C2382 1.349 . S
C2381 C2383 1.327 . S
C2381 H2404 0.950 . S
C2382 C2381 1.349 . S
C2382 C2394 1.349 . S
C2383 C2381 1.327 . S
C2383 C2399 1.429 . S
C2383 H2405 0.950 . S
C2384 H2380 0.949 . S
C2384 C2392 1.574 . S
C2384 C2400 1.368 . S
H2385 C2393 0.950 . S
H2386 C2391 0.950 . S
H2387 C2392 0.949 . S
H2388 C2394 0.950 . S
H2389 C2395 0.950 . S
H2390 C2396 0.949 . S
C2391 H2386 0.950 . S
C2391 C2393 1.327 . S
C2391 C2397 1.429 . S
C2392 C2384 1.574 . S
C2392 H2387 0.949 . S
C2392 C2398 1.368 . S
C2393 C2377 1.349 . S
C2393 H2385 0.950 . S
C2393 C2391 1.327 . S
C2394 C2382 1.349 . S
C2394 H2388 0.950 . S
C2394 C2395 1.327 . S
C2395 H2389 0.950 . S
C2395 C2394 1.327 . S
C2395 C2399 1.429 . S
C2396 C2379 1.574 . S
C2396 H2390 0.949 . S
C2396 C2400 1.368 . S
C2397 C2378 1.429 . S
C2397 C2391 1.429 . S
C2397 C2398 1.523 . S
C2398 C2379 1.368 . S
C2398 C2392 1.368 . S
C2398 C2397 1.523 . S
C2399 C2383 1.429 . S
C2399 C2395 1.429 . S
C2399 C2400 1.523 . S
C2400 C2384 1.368 . S
C2400 C2396 1.368 . S
C2400 C2399 1.523 . S
H2401 C2376 0.950 . S
H2402 C2378 0.950 . S
H2403 C2379 0.949 . S
H2404 C2381 0.950 . S
H2405 C2383 0.950 . S
C2406 C2407 1.349 . S
C2406 C2408 1.327 . S
C2406 H2431 0.950 . S
C2407 C2406 1.349 . S
C2407 C2423 1.349 . S
C2408 C2406 1.327 . S
C2408 C2427 1.429 . S
C2408 H2432 0.950 . S
C2409 C2426 1.574 . S
C2409 C2428 1.368 . S
C2409 H2433 0.949 . S
H2410 C2414 0.949 . S
C2411 C2412 1.349 . S
C2411 C2413 1.327 . S
C2411 H2434 0.950 . S
C2412 C2411 1.349 . S
C2412 C2424 1.349 . S
C2413 C2411 1.327 . S
C2413 C2429 1.429 . S
C2413 H2435 0.950 . S
C2414 H2410 0.949 . S
C2414 C2422 1.574 . S
C2414 C2430 1.368 . S
H2415 C2423 0.950 . S
H2416 C2421 0.950 . S
H2417 C2422 0.949 . S
H2418 C2424 0.950 . S
H2419 C2425 0.950 . S
H2420 C2426 0.949 . S
C2421 H2416 0.950 . S
C2421 C2423 1.327 . S
C2421 C2427 1.429 . S
C2422 C2414 1.574 . S
C2422 H2417 0.949 . S
C2422 C2428 1.368 . S
C2423 C2407 1.349 . S
C2423 H2415 0.950 . S
C2423 C2421 1.327 . S
C2424 C2412 1.349 . S
C2424 H2418 0.950 . S
C2424 C2425 1.327 . S
C2425 H2419 0.950 . S
C2425 C2424 1.327 . S
C2425 C2429 1.429 . S
C2426 C2409 1.574 . S
C2426 H2420 0.949 . S
C2426 C2430 1.368 . S
C2427 C2408 1.429 . S
C2427 C2421 1.429 . S
C2427 C2428 1.523 . S
C2428 C2409 1.368 . S
C2428 C2422 1.368 . S
C2428 C2427 1.523 . S
C2429 C2413 1.429 . S
C2429 C2425 1.429 . S
C2429 C2430 1.523 . S
C2430 C2414 1.368 . S
C2430 C2426 1.368 . S
C2430 C2429 1.523 . S
H2431 C2406 0.950 . S
H2432 C2408 0.950 . S
H2433 C2409 0.949 . S
H2434 C2411 0.950 . S
H2435 C2413 0.950 . S
C2436 C2437 1.349 . S
C2436 C2438 1.327 . S
C2436 H2461 0.950 . S
C2437 C2436 1.349 . S
C2437 C2453 1.349 . S
C2438 C2436 1.327 . S
C2438 C2457 1.429 . S
C2438 H2462 0.950 . S
C2439 C2456 1.574 . S
C2439 C2458 1.368 . S
C2439 H2463 0.949 . S
H2440 C2444 0.949 . S
C2441 C2442 1.349 . S
C2441 C2443 1.327 . S
C2441 H2464 0.950 . S
C2442 C2441 1.349 . S
C2442 C2454 1.349 . S
C2443 C2441 1.327 . S
C2443 C2459 1.429 . S
C2443 H2465 0.950 . S
C2444 H2440 0.949 . S
C2444 C2452 1.574 . S
C2444 C2460 1.368 . S
H2445 C2453 0.950 . S
H2446 C2451 0.950 . S
H2447 C2452 0.949 . S
H2448 C2454 0.950 . S
H2449 C2455 0.950 . S
H2450 C2456 0.949 . S
C2451 H2446 0.950 . S
C2451 C2453 1.327 . S
C2451 C2457 1.429 . S
C2452 C2444 1.574 . S
C2452 H2447 0.949 . S
C2452 C2458 1.368 . S
C2453 C2437 1.349 . S
C2453 H2445 0.950 . S
C2453 C2451 1.327 . S
C2454 C2442 1.349 . S
C2454 H2448 0.950 . S
C2454 C2455 1.327 . S
C2455 H2449 0.950 . S
C2455 C2454 1.327 . S
C2455 C2459 1.429 . S
C2456 C2439 1.574 . S
C2456 H2450 0.949 . S
C2456 C2460 1.368 . S
C2457 C2438 1.429 . S
C2457 C2451 1.429 . S
C2457 C2458 1.523 . S
C2458 C2439 1.368 . S
C2458 C2452 1.368 . S
C2458 C2457 1.523 . S
C2459 C2443 1.429 . S
C2459 C2455 1.429 . S
C2459 C2460 1.523 . S
C2460 C2444 1.368 . S
C2460 C2456 1.368 . S
C2460 C2459 1.523 . S
H2461 C2436 0.950 . S
H2462 C2438 0.950 . S
H2463 C2439 0.949 . S
H2464 C2441 0.950 . S
H2465 C2443 0.950 . S
C2466 C2467 1.349 . S
C2466 C2468 1.327 . S
C2466 H2491 0.950 . S
C2467 C2466 1.349 . S
C2467 C2483 1.349 . S
C2468 C2466 1.327 . S
C2468 C2487 1.429 . S
C2468 H2492 0.950 . S
C2469 C2486 1.574 . S
C2469 C2488 1.368 . S
C2469 H2493 0.949 . S
H2470 C2474 0.949 . S
C2471 C2472 1.349 . S
C2471 C2473 1.327 . S
C2471 H2494 0.950 . S
C2472 C2471 1.349 . S
C2472 C2484 1.349 . S
C2473 C2471 1.327 . S
C2473 C2489 1.429 . S
C2473 H2495 0.950 . S
C2474 H2470 0.949 . S
C2474 C2482 1.574 . S
C2474 C2490 1.368 . S
H2475 C2483 0.950 . S
H2476 C2481 0.950 . S
H2477 C2482 0.949 . S
H2478 C2484 0.950 . S
H2479 C2485 0.950 . S
H2480 C2486 0.949 . S
C2481 H2476 0.950 . S
C2481 C2483 1.327 . S
C2481 C2487 1.429 . S
C2482 C2474 1.574 . S
C2482 H2477 0.949 . S
C2482 C2488 1.368 . S
C2483 C2467 1.349 . S
C2483 H2475 0.950 . S
C2483 C2481 1.327 . S
C2484 C2472 1.349 . S
C2484 H2478 0.950 . S
C2484 C2485 1.327 . S
C2485 H2479 0.950 . S
C2485 C2484 1.327 . S
C2485 C2489 1.429 . S
C2486 C2469 1.574 . S
C2486 H2480 0.949 . S
C2486 C2490 1.368 . S
C2487 C2468 1.429 . S
C2487 C2481 1.429 . S
C2487 C2488 1.523 . S
C2488 C2469 1.368 . S
C2488 C2482 1.368 . S
C2488 C2487 1.523 . S
C2489 C2473 1.429 . S
C2489 C2485 1.429 . S
C2489 C2490 1.523 . S
C2490 C2474 1.368 . S
C2490 C2486 1.368 . S
C2490 C2489 1.523 . S
H2491 C2466 0.950 . S
H2492 C2468 0.950 . S
H2493 C2469 0.949 . S
H2494 C2471 0.950 . S
H2495 C2473 0.950 . S
C2496 C2497 1.349 . S
C2496 C2498 1.327 . S
C2496 H2521 0.950 . S
C2497 C2496 1.349 . S
C2497 C2513 1.349 . S
C2498 C2496 1.327 . S
C2498 C2517 1.429 . S
C2498 H2522 0.950 1_655 S
C2499 C2516 1.574 . S
C2499 C2518 1.368 . S
C2499 H2523 0.949 . S
H2500 C2504 0.949 . S
C2501 C2502 1.349 . S
C2501 C2503 1.327 . S
C2501 H2524 0.950 . S
C2502 C2501 1.349 . S
C2502 C2514 1.349 . S
C2503 C2501 1.327 . S
C2503 C2519 1.429 . S
C2503 H2525 0.950 1_455 S
C2504 H2500 0.949 . S
C2504 C2512 1.574 . S
C2504 C2520 1.368 . S
H2505 C2513 0.950 . S
H2506 C2511 0.950 . S
H2507 C2512 0.949 . S
H2508 C2514 0.950 . S
H2509 C2515 0.950 . S
H2510 C2516 0.949 . S
C2511 H2506 0.950 . S
C2511 C2513 1.327 . S
C2511 C2517 1.429 . S
C2512 C2504 1.574 . S
C2512 H2507 0.949 . S
C2512 C2518 1.368 1_455 S
C2513 C2497 1.349 . S
C2513 H2505 0.950 . S
C2513 C2511 1.327 . S
C2514 C2502 1.349 . S
C2514 H2508 0.950 . S
C2514 C2515 1.327 . S
C2515 H2509 0.950 . S
C2515 C2514 1.327 . S
C2515 C2519 1.429 . S
C2516 C2499 1.574 . S
C2516 H2510 0.949 . S
C2516 C2520 1.368 1_655 S
C2517 C2498 1.429 . S
C2517 C2511 1.429 . S
C2517 C2518 1.523 . S
C2518 C2499 1.368 . S
C2518 C2512 1.368 1_655 S
C2518 C2517 1.523 . S
C2519 C2503 1.429 . S
C2519 C2515 1.429 . S
C2519 C2520 1.523 . S
C2520 C2504 1.368 . S
C2520 C2516 1.368 1_455 S
C2520 C2519 1.523 . S
H2521 C2496 0.950 . S
H2522 C2498 0.950 1_455 S
H2523 C2499 0.949 . S
H2524 C2501 0.950 . S
H2525 C2503 0.950 1_655 S
C2526 C2527 1.349 . S
C2526 C2528 1.327 . S
C2526 H2551 0.950 . S
C2527 C2526 1.349 . S
C2527 C2543 1.349 . S
C2528 C2526 1.327 . S
C2528 C2547 1.429 . S
C2528 H2552 0.950 . S
C2529 C2546 1.574 1_565 S
C2529 C2548 1.368 . S
C2529 H2553 0.949 . S
H2530 C2534 0.949 . S
C2531 C2532 1.349 . S
C2531 C2533 1.327 . S
C2531 H2554 0.950 . S
C2532 C2531 1.349 . S
C2532 C2544 1.349 . S
C2533 C2531 1.327 . S
C2533 C2549 1.429 . S
C2533 H2555 0.950 . S
C2534 H2530 0.949 . S
C2534 C2542 1.574 1_545 S
C2534 C2550 1.368 . S
H2535 C2543 0.950 . S
H2536 C2541 0.950 . S
H2537 C2542 0.949 . S
H2538 C2544 0.950 . S
H2539 C2545 0.950 . S
H2540 C2546 0.949 . S
C2541 H2536 0.950 . S
C2541 C2543 1.327 . S
C2541 C2547 1.429 . S
C2542 C2534 1.574 1_565 S
C2542 H2537 0.949 . S
C2542 C2548 1.368 . S
C2543 C2527 1.349 . S
C2543 H2535 0.950 . S
C2543 C2541 1.327 . S
C2544 C2532 1.349 . S
C2544 H2538 0.950 . S
C2544 C2545 1.327 . S
C2545 H2539 0.950 . S
C2545 C2544 1.327 . S
C2545 C2549 1.429 . S
C2546 C2529 1.574 1_545 S
C2546 H2540 0.949 . S
C2546 C2550 1.368 . S
C2547 C2528 1.429 . S
C2547 C2541 1.429 . S
C2547 C2548 1.523 . S
C2548 C2529 1.368 . S
C2548 C2542 1.368 . S
C2548 C2547 1.523 . S
C2549 C2533 1.429 . S
C2549 C2545 1.429 . S
C2549 C2550 1.523 . S
C2550 C2534 1.368 . S
C2550 C2546 1.368 . S
C2550 C2549 1.523 . S
H2551 C2526 0.950 . S
H2552 C2528 0.950 . S
H2553 C2529 0.949 . S
H2554 C2531 0.950 . S
H2555 C2533 0.950 . S
C2556 C2557 1.349 . S
C2556 C2558 1.327 . S
C2556 H2581 0.950 . S
C2557 C2556 1.349 . S
C2557 C2573 1.349 . S
C2558 C2556 1.327 . S
C2558 C2577 1.429 . S
C2558 H2582 0.950 1_455 S
C2559 C2576 1.635 . S
C2559 C2578 1.305 1_565 S
C2559 H2583 0.948 . S
H2560 C2564 0.948 . S
C2561 C2562 1.349 . S
C2561 C2563 1.327 . S
C2561 H2584 0.950 . S
C2562 C2561 1.349 . S
C2562 C2574 1.349 . S
C2563 C2561 1.327 . S
C2563 C2579 1.429 . S
C2563 H2585 0.950 1_655 S
C2564 H2560 0.948 . S
C2564 C2572 1.635 . S
C2564 C2580 1.305 1_545 S
H2565 C2573 0.950 . S
H2566 C2571 0.950 . S
H2567 C2572 0.949 . S
H2568 C2574 0.950 . S
H2569 C2575 0.950 . S
H2570 C2576 0.949 . S
C2571 H2566 0.950 . S
C2571 C2573 1.327 . S
C2571 C2577 1.429 . S
C2572 C2564 1.635 . S
C2572 H2567 0.949 . S
C2572 C2578 1.368 1_654 S
C2573 C2557 1.349 . S
C2573 H2565 0.950 . S
C2573 C2571 1.327 . S
C2574 C2562 1.349 . S
C2574 H2568 0.950 . S
C2574 C2575 1.327 . S
C2575 H2569 0.950 . S
C2575 C2574 1.327 . S
C2575 C2579 1.429 . S
C2576 C2559 1.635 . S
C2576 H2570 0.949 . S
C2576 C2580 1.368 1_456 S
C2577 C2558 1.429 . S
C2577 C2571 1.429 . S
C2577 C2578 1.523 . S
C2578 C2559 1.305 1_545 S
C2578 C2572 1.368 1_456 S
C2578 C2577 1.523 . S
C2579 C2563 1.429 . S
C2579 C2575 1.429 . S
C2579 C2580 1.523 . S
C2580 C2564 1.305 1_565 S
C2580 C2576 1.368 1_654 S
C2580 C2579 1.523 . S
H2581 C2556 0.950 . S
H2582 C2558 0.950 1_655 S
H2583 C2559 0.948 . S
H2584 C2561 0.950 . S
H2585 C2563 0.950 1_455 S
C2586 C2587 1.349 . S
C2586 C2588 1.327 . S
C2586 H2611 0.950 . S
C2587 C2586 1.349 . S
C2587 C2603 1.349 . S
C2588 C2586 1.327 . S
C2588 C2607 1.429 . S
C2588 H2612 0.950 . S
C2589 C2606 1.574 1_554 S
C2589 C2608 1.368 . S
C2589 H2613 0.949 . S
H2590 C2594 0.949 . S
C2591 C2592 1.349 . S
C2591 C2593 1.327 . S
C2591 H2614 0.950 . S
C2592 C2591 1.349 . S
C2592 C2604 1.349 . S
C2593 C2591 1.327 . S
C2593 C2609 1.429 . S
C2593 H2615 0.950 . S
C2594 H2590 0.949 . S
C2594 C2602 1.574 1_556 S
C2594 C2610 1.368 . S
H2595 C2603 0.950 . S
H2596 C2601 0.950 . S
H2597 C2602 0.949 . S
H2598 C2604 0.950 . S
H2599 C2605 0.950 . S
H2600 C2606 0.949 . S
C2601 H2596 0.950 . S
C2601 C2603 1.327 . S
C2601 C2607 1.429 . S
C2602 C2594 1.574 1_554 S
C2602 H2597 0.949 . S
C2602 C2608 1.368 . S
C2603 C2587 1.349 . S
C2603 H2595 0.950 . S
C2603 C2601 1.327 . S
C2604 C2592 1.349 . S
C2604 H2598 0.950 . S
C2604 C2605 1.327 . S
C2605 H2599 0.950 . S
C2605 C2604 1.327 . S
C2605 C2609 1.429 . S
C2606 C2589 1.574 1_556 S
C2606 H2600 0.949 . S
C2606 C2610 1.368 . S
C2607 C2588 1.429 . S
C2607 C2601 1.429 . S
C2607 C2608 1.523 . S
C2608 C2589 1.368 . S
C2608 C2602 1.368 . S
C2608 C2607 1.523 . S
C2609 C2593 1.429 . S
C2609 C2605 1.429 . S
C2609 C2610 1.523 . S
C2610 C2594 1.368 . S
C2610 C2606 1.368 . S
C2610 C2609 1.523 . S
H2611 C2586 0.950 . S
H2612 C2588 0.950 . S
H2613 C2589 0.949 . S
H2614 C2591 0.950 . S
H2615 C2593 0.950 . S
C2616 C2617 1.349 . S
C2616 C2618 1.327 . S
C2616 H2641 0.950 . S
C2617 C2616 1.349 . S
C2617 C2633 1.349 . S
C2618 C2616 1.327 . S
C2618 C2637 1.429 . S
C2618 H2642 0.950 1_455 S
C2619 C2636 1.574 . S
C2619 C2638 1.368 . S
C2619 H2643 0.949 . S
H2620 C2624 0.949 . S
C2621 C2622 1.349 . S
C2621 C2623 1.327 . S
C2621 H2644 0.950 . S
C2622 C2621 1.349 . S
C2622 C2634 1.349 . S
C2623 C2621 1.327 . S
C2623 C2639 1.429 . S
C2623 H2645 0.950 1_655 S
C2624 H2620 0.949 . S
C2624 C2632 1.574 . S
C2624 C2640 1.368 . S
H2625 C2633 0.950 . S
H2626 C2631 0.950 . S
H2627 C2632 0.949 . S
H2628 C2634 0.950 . S
H2629 C2635 0.950 . S
H2630 C2636 0.949 . S
C2631 H2626 0.950 . S
C2631 C2633 1.327 . S
C2631 C2637 1.429 . S
C2632 C2624 1.574 . S
C2632 H2627 0.949 . S
C2632 C2638 1.368 1_655 S
C2633 C2617 1.349 . S
C2633 H2625 0.950 . S
C2633 C2631 1.327 . S
C2634 C2622 1.349 . S
C2634 H2628 0.950 . S
C2634 C2635 1.327 . S
C2635 H2629 0.950 . S
C2635 C2634 1.327 . S
C2635 C2639 1.429 . S
C2636 C2619 1.574 . S
C2636 H2630 0.949 . S
C2636 C2640 1.368 1_455 S
C2637 C2618 1.429 . S
C2637 C2631 1.429 . S
C2637 C2638 1.523 . S
C2638 C2619 1.368 . S
C2638 C2632 1.368 1_455 S
C2638 C2637 1.523 . S
C2639 C2623 1.429 . S
C2639 C2635 1.429 . S
C2639 C2640 1.523 . S
C2640 C2624 1.368 . S
C2640 C2636 1.368 1_655 S
C2640 C2639 1.523 . S
H2641 C2616 0.950 . S
H2642 C2618 0.950 1_655 S
H2643 C2619 0.949 . S
H2644 C2621 0.950 . S
H2645 C2623 0.950 1_455 S
C2646 C2647 1.349 . S
C2646 C2648 1.327 . S
C2646 H2671 0.950 . S
C2647 C2646 1.349 . S
C2647 C2663 1.349 . S
C2648 C2646 1.327 . S
C2648 C2667 1.429 . S
C2648 H2672 0.950 . S
C2649 C2666 1.642 . S
C2649 C2668 1.368 . S
C2649 H2673 0.949 . S
H2650 C2654 0.949 . S
C2651 C2652 1.349 . S
C2651 C2653 1.327 . S
C2651 H2674 0.950 . S
C2652 C2651 1.349 . S
C2652 C2664 1.349 . S
C2653 C2651 1.327 . S
C2653 C2669 1.429 . S
C2653 H2675 0.950 . S
C2654 H2650 0.949 . S
C2654 C2662 1.642 . S
C2654 C2670 1.368 . S
H2655 C2663 0.950 . S
H2656 C2661 0.950 . S
H2657 C2662 0.948 . S
H2658 C2664 0.950 . S
H2659 C2665 0.950 . S
H2660 C2666 0.948 . S
C2661 H2656 0.950 . S
C2661 C2663 1.327 . S
C2661 C2667 1.429 . S
C2662 C2654 1.642 . S
C2662 H2657 0.948 . S
C2662 C2668 1.298 1_565 S
C2663 C2647 1.349 . S
C2663 H2655 0.950 . S
C2663 C2661 1.327 . S
C2664 C2652 1.349 . S
C2664 H2658 0.950 . S
C2664 C2665 1.327 . S
C2665 H2659 0.950 . S
C2665 C2664 1.327 . S
C2665 C2669 1.429 . S
C2666 C2649 1.642 . S
C2666 H2660 0.948 . S
C2666 C2670 1.298 1_545 S
C2667 C2648 1.429 . S
C2667 C2661 1.429 . S
C2667 C2668 1.523 . S
C2668 C2649 1.368 . S
C2668 C2662 1.298 1_545 S
C2668 C2667 1.523 . S
C2669 C2653 1.429 . S
C2669 C2665 1.429 . S
C2669 C2670 1.523 . S
C2670 C2654 1.368 . S
C2670 C2666 1.298 1_565 S
C2670 C2669 1.523 . S
H2671 C2646 0.950 . S
H2672 C2648 0.950 . S
H2673 C2649 0.949 . S
H2674 C2651 0.950 . S
H2675 C2653 0.950 . S
C2676 C2677 1.349 . S
C2676 C2678 1.327 . S
C2676 H2701 0.950 . S
C2677 C2676 1.349 . S
C2677 C2693 1.349 . S
C2678 C2676 1.327 . S
C2678 C2697 1.429 . S
C2678 H2702 0.950 . S
C2679 C2696 1.574 . S
C2679 C2698 1.368 1_554 S
C2679 H2703 0.949 . S
H2680 C2684 0.949 . S
C2681 C2682 1.349 . S
C2681 C2683 1.327 . S
C2681 H2704 0.950 . S
C2682 C2681 1.349 . S
C2682 C2694 1.349 . S
C2683 C2681 1.327 . S
C2683 C2699 1.429 . S
C2683 H2705 0.950 . S
C2684 H2680 0.949 . S
C2684 C2692 1.574 . S
C2684 C2700 1.368 1_556 S
H2685 C2693 0.950 . S
H2686 C2691 0.950 . S
H2687 C2692 0.949 . S
H2688 C2694 0.950 . S
H2689 C2695 0.950 . S
H2690 C2696 0.949 . S
C2691 H2686 0.950 . S
C2691 C2693 1.327 . S
C2691 C2697 1.429 . S
C2692 C2684 1.574 . S
C2692 H2687 0.949 . S
C2692 C2698 1.368 . S
C2693 C2677 1.349 . S
C2693 H2685 0.950 . S
C2693 C2691 1.327 . S
C2694 C2682 1.349 . S
C2694 H2688 0.950 . S
C2694 C2695 1.327 . S
C2695 H2689 0.950 . S
C2695 C2694 1.327 . S
C2695 C2699 1.429 . S
C2696 C2679 1.574 . S
C2696 H2690 0.949 . S
C2696 C2700 1.368 . S
C2697 C2678 1.429 . S
C2697 C2691 1.429 . S
C2697 C2698 1.523 . S
C2698 C2679 1.368 1_556 S
C2698 C2692 1.368 . S
C2698 C2697 1.523 . S
C2699 C2683 1.429 . S
C2699 C2695 1.429 . S
C2699 C2700 1.523 . S
C2700 C2684 1.368 1_554 S
C2700 C2696 1.368 . S
C2700 C2699 1.523 . S
H2701 C2676 0.950 . S
H2702 C2678 0.950 . S
H2703 C2679 0.949 . S
H2704 C2681 0.950 . S
H2705 C2683 0.950 . S
C2706 C2707 1.349 . S
C2706 C2708 1.327 . S
C2706 H2731 0.950 . S
C2707 C2706 1.349 . S
C2707 C2723 1.349 . S
C2708 C2706 1.327 . S
C2708 C2727 1.429 . S
C2708 H2732 0.950 . S
C2709 C2726 1.574 . S
C2709 C2728 1.368 . S
C2709 H2733 0.949 . S
H2710 C2714 0.949 . S
C2711 C2712 1.349 . S
C2711 C2713 1.327 . S
C2711 H2734 0.950 . S
C2712 C2711 1.349 . S
C2712 C2724 1.349 . S
C2713 C2711 1.327 . S
C2713 C2729 1.429 . S
C2713 H2735 0.950 . S
C2714 H2710 0.949 . S
C2714 C2722 1.574 . S
C2714 C2730 1.368 . S
H2715 C2723 0.950 . S
H2716 C2721 0.950 . S
H2717 C2722 0.949 . S
H2718 C2724 0.950 . S
H2719 C2725 0.950 . S
H2720 C2726 0.949 . S
C2721 H2716 0.950 . S
C2721 C2723 1.327 . S
C2721 C2727 1.429 . S
C2722 C2714 1.574 . S
C2722 H2717 0.949 . S
C2722 C2728 1.368 . S
C2723 C2707 1.349 . S
C2723 H2715 0.950 . S
C2723 C2721 1.327 . S
C2724 C2712 1.349 . S
C2724 H2718 0.950 . S
C2724 C2725 1.327 . S
C2725 H2719 0.950 . S
C2725 C2724 1.327 . S
C2725 C2729 1.429 . S
C2726 C2709 1.574 . S
C2726 H2720 0.949 . S
C2726 C2730 1.368 . S
C2727 C2708 1.429 . S
C2727 C2721 1.429 . S
C2727 C2728 1.523 . S
C2728 C2709 1.368 . S
C2728 C2722 1.368 . S
C2728 C2727 1.523 . S
C2729 C2713 1.429 . S
C2729 C2725 1.429 . S
C2729 C2730 1.523 . S
C2730 C2714 1.368 . S
C2730 C2726 1.368 . S
C2730 C2729 1.523 . S
H2731 C2706 0.950 . S
H2732 C2708 0.950 . S
H2733 C2709 0.949 . S
H2734 C2711 0.950 . S
H2735 C2713 0.950 . S
C2736 C2737 1.349 . S
C2736 C2738 1.327 . S
C2736 H2761 0.950 . S
C2737 C2736 1.349 . S
C2737 C2753 1.349 . S
C2738 C2736 1.327 . S
C2738 C2757 1.429 . S
C2738 H2762 0.939 1_655 S
C2739 C2756 1.574 . S
C2739 C2758 1.368 . S
C2739 H2763 0.949 . S
H2740 C2744 0.949 . S
C2741 C2742 1.349 . S
C2741 C2743 1.327 . S
C2741 H2764 0.950 . S
C2742 C2741 1.349 . S
C2742 C2754 1.349 . S
C2743 C2741 1.327 . S
C2743 C2759 1.429 . S
C2743 H2765 0.939 1_455 S
C2744 H2740 0.949 . S
C2744 C2752 1.574 . S
C2744 C2760 1.368 . S
H2745 C2753 0.950 . S
H2746 C2751 0.950 . S
H2747 C2752 0.949 . S
H2748 C2754 0.950 . S
H2749 C2755 0.950 . S
H2750 C2756 0.949 . S
C2751 H2746 0.950 . S
C2751 C2753 1.327 . S
C2751 C2757 1.429 . S
C2752 C2744 1.574 . S
C2752 H2747 0.949 . S
C2752 C2758 1.368 1_455 S
C2753 C2737 1.349 . S
C2753 H2745 0.950 . S
C2753 C2751 1.327 . S
C2754 C2742 1.349 . S
C2754 H2748 0.950 . S
C2754 C2755 1.327 . S
C2755 H2749 0.950 . S
C2755 C2754 1.327 . S
C2755 C2759 1.429 . S
C2756 C2739 1.574 . S
C2756 H2750 0.949 . S
C2756 C2760 1.368 1_655 S
C2757 C2738 1.429 . S
C2757 C2751 1.429 . S
C2757 C2758 1.523 . S
C2758 C2739 1.368 . S
C2758 C2752 1.368 1_655 S
C2758 C2757 1.523 . S
C2759 C2743 1.429 . S
C2759 C2755 1.429 . S
C2759 C2760 1.523 . S
C2760 C2744 1.368 . S
C2760 C2756 1.368 1_455 S
C2760 C2759 1.523 . S
H2761 C2736 0.950 . S
H2762 C2738 0.939 1_455 S
H2763 C2739 0.949 . S
H2764 C2741 0.950 . S
H2765 C2743 0.939 1_655 S
C2766 C2767 1.349 . S
C2766 C2768 1.327 . S
C2766 H2791 0.950 . S
C2767 C2766 1.349 . S
C2767 C2783 1.349 . S
C2768 C2766 1.327 . S
C2768 C2787 1.429 . S
C2768 H2792 0.950 . S
C2769 C2786 1.574 . S
C2769 C2788 1.368 . S
C2769 H2793 0.949 . S
H2770 C2774 0.949 . S
C2771 C2772 1.349 . S
C2771 C2773 1.327 . S
C2771 H2794 0.950 . S
C2772 C2771 1.349 . S
C2772 C2784 1.349 . S
C2773 C2771 1.327 . S
C2773 C2789 1.429 . S
C2773 H2795 0.950 . S
C2774 H2770 0.949 . S
C2774 C2782 1.574 . S
C2774 C2790 1.368 . S
H2775 C2783 0.950 . S
H2776 C2781 0.950 . S
H2777 C2782 0.949 . S
H2778 C2784 0.950 . S
H2779 C2785 0.950 . S
H2780 C2786 0.949 . S
C2781 H2776 0.950 . S
C2781 C2783 1.327 . S
C2781 C2787 1.429 . S
C2782 C2774 1.574 . S
C2782 H2777 0.949 . S
C2782 C2788 1.368 . S
C2783 C2767 1.349 . S
C2783 H2775 0.950 . S
C2783 C2781 1.327 . S
C2784 C2772 1.349 . S
C2784 H2778 0.950 . S
C2784 C2785 1.327 . S
C2785 H2779 0.950 . S
C2785 C2784 1.327 . S
C2785 C2789 1.429 . S
C2786 C2769 1.574 . S
C2786 H2780 0.949 . S
C2786 C2790 1.368 . S
C2787 C2768 1.429 . S
C2787 C2781 1.429 . S
C2787 C2788 1.523 . S
C2788 C2769 1.368 . S
C2788 C2782 1.368 . S
C2788 C2787 1.523 . S
C2789 C2773 1.429 . S
C2789 C2785 1.429 . S
C2789 C2790 1.523 . S
C2790 C2774 1.368 . S
C2790 C2786 1.368 . S
C2790 C2789 1.523 . S
H2791 C2766 0.950 . S
H2792 C2768 0.950 . S
H2793 C2769 0.949 . S
H2794 C2771 0.950 . S
H2795 C2773 0.950 . S
C2796 C2797 1.349 . S
C2796 C2798 1.327 . S
C2796 H2821 0.950 . S
C2797 C2796 1.349 . S
C2797 C2813 1.349 . S
C2798 C2796 1.327 . S
C2798 C2817 1.429 . S
C2798 H2822 0.950 . S
C2799 C2816 1.574 . S
C2799 C2818 1.368 . S
C2799 H2823 0.949 . S
H2800 C2804 0.949 . S
C2801 C2802 1.349 . S
C2801 C2803 1.327 . S
C2801 H2824 0.950 . S
C2802 C2801 1.349 . S
C2802 C2814 1.349 . S
C2803 C2801 1.327 . S
C2803 C2819 1.429 . S
C2803 H2825 0.950 . S
C2804 H2800 0.949 . S
C2804 C2812 1.574 . S
C2804 C2820 1.368 . S
H2805 C2813 0.950 . S
H2806 C2811 0.950 . S
H2807 C2812 0.949 . S
H2808 C2814 0.950 . S
H2809 C2815 0.950 . S
H2810 C2816 0.949 . S
C2811 H2806 0.950 . S
C2811 C2813 1.327 . S
C2811 C2817 1.429 . S
C2812 C2804 1.574 . S
C2812 H2807 0.949 . S
C2812 C2818 1.368 . S
C2813 C2797 1.349 . S
C2813 H2805 0.950 . S
C2813 C2811 1.327 . S
C2814 C2802 1.349 . S
C2814 H2808 0.950 . S
C2814 C2815 1.327 . S
C2815 H2809 0.950 . S
C2815 C2814 1.327 . S
C2815 C2819 1.429 . S
C2816 C2799 1.574 . S
C2816 H2810 0.949 . S
C2816 C2820 1.368 . S
C2817 C2798 1.429 . S
C2817 C2811 1.429 . S
C2817 C2818 1.523 . S
C2818 C2799 1.368 . S
C2818 C2812 1.368 . S
C2818 C2817 1.523 . S
C2819 C2803 1.429 . S
C2819 C2815 1.429 . S
C2819 C2820 1.523 . S
C2820 C2804 1.368 . S
C2820 C2816 1.368 . S
C2820 C2819 1.523 . S
H2821 C2796 0.950 . S
H2822 C2798 0.950 . S
H2823 C2799 0.949 . S
H2824 C2801 0.950 . S
H2825 C2803 0.950 . S
C2826 C2827 1.349 . S
C2826 C2828 1.327 . S
C2826 H2851 0.950 . S
C2827 C2826 1.349 . S
C2827 C2843 1.349 . S
C2828 C2826 1.327 . S
C2828 C2847 1.429 . S
C2828 H2852 0.950 . S
C2829 C2846 1.574 . S
C2829 C2848 1.368 . S
C2829 H2853 0.949 . S
H2830 C2834 0.949 . S
C2831 C2832 1.349 . S
C2831 C2833 1.327 . S
C2831 H2854 0.950 . S
C2832 C2831 1.349 . S
C2832 C2844 1.349 . S
C2833 C2831 1.327 . S
C2833 C2849 1.429 . S
C2833 H2855 0.950 . S
C2834 H2830 0.949 . S
C2834 C2842 1.574 . S
C2834 C2850 1.368 . S
H2835 C2843 0.950 . S
H2836 C2841 0.950 . S
H2837 C2842 0.949 . S
H2838 C2844 0.950 . S
H2839 C2845 0.950 . S
H2840 C2846 0.949 . S
C2841 H2836 0.950 . S
C2841 C2843 1.327 . S
C2841 C2847 1.429 . S
C2842 C2834 1.574 . S
C2842 H2837 0.949 . S
C2842 C2848 1.368 . S
C2843 C2827 1.349 . S
C2843 H2835 0.950 . S
C2843 C2841 1.327 . S
C2844 C2832 1.349 . S
C2844 H2838 0.950 . S
C2844 C2845 1.327 . S
C2845 H2839 0.950 . S
C2845 C2844 1.327 . S
C2845 C2849 1.429 . S
C2846 C2829 1.574 . S
C2846 H2840 0.949 . S
C2846 C2850 1.368 . S
C2847 C2828 1.429 . S
C2847 C2841 1.429 . S
C2847 C2848 1.523 . S
C2848 C2829 1.368 . S
C2848 C2842 1.368 . S
C2848 C2847 1.523 . S
C2849 C2833 1.429 . S
C2849 C2845 1.429 . S
C2849 C2850 1.523 . S
C2850 C2834 1.368 . S
C2850 C2846 1.368 . S
C2850 C2849 1.523 . S
H2851 C2826 0.950 . S
H2852 C2828 0.950 . S
H2853 C2829 0.949 . S
H2854 C2831 0.950 . S
H2855 C2833 0.950 . S
C2856 C2857 1.349 . S
C2856 C2858 1.327 . S
C2856 H2881 0.950 . S
C2857 C2856 1.349 . S
C2857 C2873 1.349 . S
C2858 C2856 1.327 . S
C2858 C2877 1.429 . S
C2858 H2882 0.950 . S
C2859 C2876 1.574 . S
C2859 C2878 1.368 . S
C2859 H2883 0.949 . S
H2860 C2864 0.949 . S
C2861 C2862 1.349 . S
C2861 C2863 1.327 . S
C2861 H2884 0.950 . S
C2862 C2861 1.349 . S
C2862 C2874 1.349 . S
C2863 C2861 1.327 . S
C2863 C2879 1.429 . S
C2863 H2885 0.950 . S
C2864 H2860 0.949 . S
C2864 C2872 1.574 . S
C2864 C2880 1.368 . S
H2865 C2873 0.950 . S
H2866 C2871 0.950 . S
H2867 C2872 0.949 . S
H2868 C2874 0.950 . S
H2869 C2875 0.950 . S
H2870 C2876 0.949 . S
C2871 H2866 0.950 . S
C2871 C2873 1.327 . S
C2871 C2877 1.429 . S
C2872 C2864 1.574 . S
C2872 H2867 0.949 . S
C2872 C2878 1.368 . S
C2873 C2857 1.349 . S
C2873 H2865 0.950 . S
C2873 C2871 1.327 . S
C2874 C2862 1.349 . S
C2874 H2868 0.950 . S
C2874 C2875 1.327 . S
C2875 H2869 0.950 . S
C2875 C2874 1.327 . S
C2875 C2879 1.429 . S
C2876 C2859 1.574 . S
C2876 H2870 0.949 . S
C2876 C2880 1.368 . S
C2877 C2858 1.429 . S
C2877 C2871 1.429 . S
C2877 C2878 1.523 . S
C2878 C2859 1.368 . S
C2878 C2872 1.368 . S
C2878 C2877 1.523 . S
C2879 C2863 1.429 . S
C2879 C2875 1.429 . S
C2879 C2880 1.523 . S
C2880 C2864 1.368 . S
C2880 C2876 1.368 . S
C2880 C2879 1.523 . S
H2881 C2856 0.950 . S
H2882 C2858 0.950 . S
H2883 C2859 0.949 . S
H2884 C2861 0.950 . S
H2885 C2863 0.950 . S
C2886 C2887 1.349 . S
C2886 C2888 1.327 . S
C2886 H2911 0.950 . S
C2887 C2886 1.349 . S
C2887 C2903 1.349 . S
C2888 C2886 1.327 . S
C2888 C2907 1.429 . S
C2888 H2912 0.950 . S
C2889 C2906 1.486 1_545 S
C2889 C2908 1.368 . S
C2889 H2913 0.949 . S
H2890 C2894 0.949 . S
C2891 C2892 1.349 . S
C2891 C2893 1.327 . S
C2891 H2914 0.950 . S
C2892 C2891 1.349 . S
C2892 C2904 1.349 . S
C2893 C2891 1.327 . S
C2893 C2909 1.429 . S
C2893 H2915 0.950 . S
C2894 H2890 0.949 . S
C2894 C2902 1.486 1_565 S
C2894 C2910 1.368 . S
H2895 C2903 0.950 . S
H2896 C2901 0.950 . S
H2897 C2902 0.967 . S
H2898 C2904 0.950 . S
H2899 C2905 0.950 . S
H2900 C2906 0.967 . S
C2901 H2896 0.950 . S
C2901 C2903 1.327 . S
C2901 C2907 1.429 . S
C2902 C2894 1.486 1_545 S
C2902 H2897 0.967 . S
C2902 C2908 1.446 . S
C2903 C2887 1.349 . S
C2903 H2895 0.950 . S
C2903 C2901 1.327 . S
C2904 C2892 1.349 . S
C2904 H2898 0.950 . S
C2904 C2905 1.327 . S
C2905 H2899 0.950 . S
C2905 C2904 1.327 . S
C2905 C2909 1.429 . S
C2906 C2889 1.486 1_565 S
C2906 H2900 0.967 . S
C2906 C2910 1.446 . S
C2907 C2888 1.429 . S
C2907 C2901 1.429 . S
C2907 C2908 1.523 . S
C2908 C2889 1.368 . S
C2908 C2902 1.446 . S
C2908 C2907 1.523 . S
C2909 C2893 1.429 . S
C2909 C2905 1.429 . S
C2909 C2910 1.523 . S
C2910 C2894 1.368 . S
C2910 C2906 1.446 . S
C2910 C2909 1.523 . S
H2911 C2886 0.950 . S
H2912 C2888 0.950 . S
H2913 C2889 0.949 . S
H2914 C2891 0.950 . S
H2915 C2893 0.950 . S
C2916 C2917 1.349 . S
C2916 C2918 1.327 . S
C2916 H2941 0.950 . S
C2917 C2916 1.349 . S
C2917 C2933 1.349 . S
C2918 C2916 1.327 . S
C2918 C2937 1.429 . S
C2918 H2942 0.950 . S
C2919 C2936 1.574 . S
C2919 C2938 1.368 . S
C2919 H2943 0.949 . S
H2920 C2924 0.949 . S
C2921 C2922 1.349 . S
C2921 C2923 1.327 . S
C2921 H2944 0.950 . S
C2922 C2921 1.349 . S
C2922 C2934 1.349 . S
C2923 C2921 1.327 . S
C2923 C2939 1.429 . S
C2923 H2945 0.950 . S
C2924 H2920 0.949 . S
C2924 C2932 1.574 . S
C2924 C2940 1.368 . S
H2925 C2933 0.950 . S
H2926 C2931 0.950 . S
H2927 C2932 0.949 . S
H2928 C2934 0.950 . S
H2929 C2935 0.950 . S
H2930 C2936 0.949 . S
C2931 H2926 0.950 . S
C2931 C2933 1.327 . S
C2931 C2937 1.429 . S
C2932 C2924 1.574 . S
C2932 H2927 0.949 . S
C2932 C2938 1.368 . S
C2933 C2917 1.349 . S
C2933 H2925 0.950 . S
C2933 C2931 1.327 . S
C2934 C2922 1.349 . S
C2934 H2928 0.950 . S
C2934 C2935 1.327 . S
C2935 H2929 0.950 . S
C2935 C2934 1.327 . S
C2935 C2939 1.429 . S
C2936 C2919 1.574 . S
C2936 H2930 0.949 . S
C2936 C2940 1.368 . S
C2937 C2918 1.429 . S
C2937 C2931 1.429 . S
C2937 C2938 1.523 . S
C2938 C2919 1.368 . S
C2938 C2932 1.368 . S
C2938 C2937 1.523 . S
C2939 C2923 1.429 . S
C2939 C2935 1.429 . S
C2939 C2940 1.523 . S
C2940 C2924 1.368 . S
C2940 C2936 1.368 . S
C2940 C2939 1.523 . S
H2941 C2916 0.950 . S
H2942 C2918 0.950 . S
H2943 C2919 0.949 . S
H2944 C2921 0.950 . S
H2945 C2923 0.950 . S
C2946 C2947 1.349 . S
C2946 C2948 1.327 . S
C2946 H2971 0.950 . S
C2947 C2946 1.349 . S
C2947 C2963 1.349 . S
C2948 C2946 1.327 . S
C2948 C2967 1.429 . S
C2948 H2972 0.950 . S
C2949 C2966 1.574 1_554 S
C2949 C2968 1.368 . S
C2949 H2973 0.949 . S
H2950 C2954 0.949 . S
C2951 C2952 1.349 . S
C2951 C2953 1.327 . S
C2951 H2974 0.950 . S
C2952 C2951 1.349 . S
C2952 C2964 1.349 . S
C2953 C2951 1.327 . S
C2953 C2969 1.429 . S
C2953 H2975 0.950 . S
C2954 H2950 0.949 . S
C2954 C2962 1.574 1_556 S
C2954 C2970 1.368 . S
H2955 C2963 0.950 . S
H2956 C2961 0.950 . S
H2957 C2962 0.949 . S
H2958 C2964 0.950 . S
H2959 C2965 0.950 . S
H2960 C2966 0.949 . S
C2961 H2956 0.950 . S
C2961 C2963 1.327 . S
C2961 C2967 1.429 . S
C2962 C2954 1.574 1_554 S
C2962 H2957 0.949 . S
C2962 C2968 1.368 . S
C2963 C2947 1.349 . S
C2963 H2955 0.950 . S
C2963 C2961 1.327 . S
C2964 C2952 1.349 . S
C2964 H2958 0.950 . S
C2964 C2965 1.327 . S
C2965 H2959 0.950 . S
C2965 C2964 1.327 . S
C2965 C2969 1.429 . S
C2966 C2949 1.574 1_556 S
C2966 H2960 0.949 . S
C2966 C2970 1.368 . S
C2967 C2948 1.429 . S
C2967 C2961 1.429 . S
C2967 C2968 1.523 . S
C2968 C2949 1.368 . S
C2968 C2962 1.368 . S
C2968 C2967 1.523 . S
C2969 C2953 1.429 . S
C2969 C2965 1.429 . S
C2969 C2970 1.523 . S
C2970 C2954 1.368 . S
C2970 C2966 1.368 . S
C2970 C2969 1.523 . S
H2971 C2946 0.950 . S
H2972 C2948 0.950 . S
H2973 C2949 0.949 . S
H2974 C2951 0.950 . S
H2975 C2953 0.950 . S
C2976 C2977 1.349 . S
C2976 C2978 1.327 . S
C2976 H3001 0.950 . S
C2977 C2976 1.349 . S
C2977 C2993 1.349 . S
C2978 C2976 1.327 . S
C2978 C2997 1.429 . S
C2978 H3002 0.950 . S
C2979 C2996 1.574 . S
C2979 C2998 1.368 . S
C2979 H3003 0.949 . S
H2980 C2984 0.949 . S
C2981 C2982 1.349 . S
C2981 C2983 1.327 . S
C2981 H3004 0.950 . S
C2982 C2981 1.349 . S
C2982 C2994 1.349 . S
C2983 C2981 1.327 . S
C2983 C2999 1.429 . S
C2983 H3005 0.950 . S
C2984 H2980 0.949 . S
C2984 C2992 1.574 . S
C2984 C3000 1.368 . S
H2985 C2993 0.950 . S
H2986 C2991 0.950 . S
H2987 C2992 0.949 . S
H2988 C2994 0.950 . S
H2989 C2995 0.950 . S
H2990 C2996 0.949 . S
C2991 H2986 0.950 . S
C2991 C2993 1.327 . S
C2991 C2997 1.429 . S
C2992 C2984 1.574 . S
C2992 H2987 0.949 . S
C2992 C2998 1.368 . S
C2993 C2977 1.349 . S
C2993 H2985 0.950 . S
C2993 C2991 1.327 . S
C2994 C2982 1.349 . S
C2994 H2988 0.950 . S
C2994 C2995 1.327 . S
C2995 H2989 0.950 . S
C2995 C2994 1.327 . S
C2995 C2999 1.429 . S
C2996 C2979 1.574 . S
C2996 H2990 0.949 . S
C2996 C3000 1.368 . S
C2997 C2978 1.429 . S
C2997 C2991 1.429 . S
C2997 C2998 1.523 . S
C2998 C2979 1.368 . S
C2998 C2992 1.368 . S
C2998 C2997 1.523 . S
C2999 C2983 1.429 . S
C2999 C2995 1.429 . S
C2999 C3000 1.523 . S
C3000 C2984 1.368 . S
C3000 C2996 1.368 . S
C3000 C2999 1.523 . S
H3001 C2976 0.950 . S
H3002 C2978 0.950 . S
H3003 C2979 0.949 . S
H3004 C2981 0.950 . S
H3005 C2983 0.950 . S
C3006 C3007 1.349 . S
C3006 C3008 1.327 . S
C3006 H3031 0.950 . S
C3007 C3006 1.349 . S
C3007 C3023 1.349 . S
C3008 C3006 1.327 . S
C3008 C3027 1.429 . S
C3008 H3032 0.950 . S
C3009 C3026 1.574 . S
C3009 C3028 1.368 . S
C3009 H3033 0.949 . S
H3010 C3014 0.949 . S
C3011 C3012 1.349 . S
C3011 C3013 1.327 . S
C3011 H3034 0.950 . S
C3012 C3011 1.349 . S
C3012 C3024 1.349 . S
C3013 C3011 1.327 . S
C3013 C3029 1.429 . S
C3013 H3035 0.950 . S
C3014 H3010 0.949 . S
C3014 C3022 1.574 . S
C3014 C3030 1.368 . S
H3015 C3023 0.950 . S
H3016 C3021 0.950 . S
H3017 C3022 0.949 . S
H3018 C3024 0.950 . S
H3019 C3025 0.950 . S
H3020 C3026 0.949 . S
C3021 H3016 0.950 . S
C3021 C3023 1.327 . S
C3021 C3027 1.429 . S
C3022 C3014 1.574 . S
C3022 H3017 0.949 . S
C3022 C3028 1.368 . S
C3023 C3007 1.349 . S
C3023 H3015 0.950 . S
C3023 C3021 1.327 . S
C3024 C3012 1.349 . S
C3024 H3018 0.950 . S
C3024 C3025 1.327 . S
C3025 H3019 0.950 . S
C3025 C3024 1.327 . S
C3025 C3029 1.429 . S
C3026 C3009 1.574 . S
C3026 H3020 0.949 . S
C3026 C3030 1.368 . S
C3027 C3008 1.429 . S
C3027 C3021 1.429 . S
C3027 C3028 1.523 . S
C3028 C3009 1.368 . S
C3028 C3022 1.368 . S
C3028 C3027 1.523 . S
C3029 C3013 1.429 . S
C3029 C3025 1.429 . S
C3029 C3030 1.523 . S
C3030 C3014 1.368 . S
C3030 C3026 1.368 . S
C3030 C3029 1.523 . S
H3031 C3006 0.950 . S
H3032 C3008 0.950 . S
H3033 C3009 0.949 . S
H3034 C3011 0.950 . S
H3035 C3013 0.950 . S
C3036 C3037 1.349 . S
C3036 C3038 1.327 . S
C3036 H3061 0.950 . S
C3037 C3036 1.349 . S
C3037 C3053 1.349 . S
C3038 C3036 1.327 . S
C3038 C3057 1.429 . S
C3038 H3062 0.950 . S
C3039 C3056 1.574 . S
C3039 C3058 1.368 . S
C3039 H3063 0.949 . S
H3040 C3044 0.949 . S
C3041 C3042 1.349 . S
C3041 C3043 1.327 . S
C3041 H3064 0.950 . S
C3042 C3041 1.349 . S
C3042 C3054 1.349 . S
C3043 C3041 1.327 . S
C3043 C3059 1.429 . S
C3043 H3065 0.950 . S
C3044 H3040 0.949 . S
C3044 C3052 1.574 . S
C3044 C3060 1.368 . S
H3045 C3053 0.950 . S
H3046 C3051 0.950 . S
H3047 C3052 0.949 . S
H3048 C3054 0.950 . S
H3049 C3055 0.950 . S
H3050 C3056 0.949 . S
C3051 H3046 0.950 . S
C3051 C3053 1.327 . S
C3051 C3057 1.429 . S
C3052 C3044 1.574 . S
C3052 H3047 0.949 . S
C3052 C3058 1.368 . S
C3053 C3037 1.349 . S
C3053 H3045 0.950 . S
C3053 C3051 1.327 . S
C3054 C3042 1.349 . S
C3054 H3048 0.950 . S
C3054 C3055 1.327 . S
C3055 H3049 0.950 . S
C3055 C3054 1.327 . S
C3055 C3059 1.429 . S
C3056 C3039 1.574 . S
C3056 H3050 0.949 . S
C3056 C3060 1.368 . S
C3057 C3038 1.429 . S
C3057 C3051 1.429 . S
C3057 C3058 1.523 . S
C3058 C3039 1.368 . S
C3058 C3052 1.368 . S
C3058 C3057 1.523 . S
C3059 C3043 1.429 . S
C3059 C3055 1.429 . S
C3059 C3060 1.523 . S
C3060 C3044 1.368 . S
C3060 C3056 1.368 . S
C3060 C3059 1.523 . S
H3061 C3036 0.950 . S
H3062 C3038 0.950 . S
H3063 C3039 0.949 . S
H3064 C3041 0.950 . S
H3065 C3043 0.950 . S
C3066 C3067 1.349 . S
C3066 C3068 1.327 . S
C3066 H3091 0.950 . S
C3067 C3066 1.349 . S
C3067 C3083 1.349 . S
C3068 C3066 1.327 . S
C3068 C3087 1.429 . S
C3068 H3092 0.950 . S
C3069 C3086 1.574 . S
C3069 C3088 1.368 . S
C3069 H3093 0.949 . S
H3070 C3074 0.949 . S
C3071 C3072 1.349 . S
C3071 C3073 1.327 . S
C3071 H3094 0.950 . S
C3072 C3071 1.349 . S
C3072 C3084 1.349 . S
C3073 C3071 1.327 . S
C3073 C3089 1.429 . S
C3073 H3095 0.950 . S
C3074 H3070 0.949 . S
C3074 C3082 1.574 . S
C3074 C3090 1.368 . S
H3075 C3083 0.950 . S
H3076 C3081 0.950 . S
H3077 C3082 0.949 . S
H3078 C3084 0.950 . S
H3079 C3085 0.950 . S
H3080 C3086 0.949 . S
C3081 H3076 0.950 . S
C3081 C3083 1.327 . S
C3081 C3087 1.429 . S
C3082 C3074 1.574 . S
C3082 H3077 0.949 . S
C3082 C3088 1.368 . S
C3083 C3067 1.349 . S
C3083 H3075 0.950 . S
C3083 C3081 1.327 . S
C3084 C3072 1.349 . S
C3084 H3078 0.950 . S
C3084 C3085 1.327 . S
C3085 H3079 0.950 . S
C3085 C3084 1.327 . S
C3085 C3089 1.429 . S
C3086 C3069 1.574 . S
C3086 H3080 0.949 . S
C3086 C3090 1.368 . S
C3087 C3068 1.429 . S
C3087 C3081 1.429 . S
C3087 C3088 1.523 . S
C3088 C3069 1.368 . S
C3088 C3082 1.368 . S
C3088 C3087 1.523 . S
C3089 C3073 1.429 . S
C3089 C3085 1.429 . S
C3089 C3090 1.523 . S
C3090 C3074 1.368 . S
C3090 C3086 1.368 . S
C3090 C3089 1.523 . S
H3091 C3066 0.950 . S
H3092 C3068 0.950 . S
H3093 C3069 0.949 . S
H3094 C3071 0.950 . S
H3095 C3073 0.950 . S
C3096 C3097 1.349 1_554 S
C3096 C3098 1.327 . S
C3096 H3121 0.950 1_554 S
C3097 C3096 1.349 1_556 S
C3097 C3113 1.349 . S
C3098 C3096 1.327 . S
C3098 C3117 1.429 . S
C3098 H3122 0.950 . S
C3099 C3116 1.574 . S
C3099 C3118 1.368 . S
C3099 H3123 0.949 . S
H3100 C3104 0.949 . S
C3101 C3102 1.349 . S
C3101 C3103 1.327 . S
C3101 H3124 0.950 . S
C3102 C3101 1.349 . S
C3102 C3114 1.349 . S
C3103 C3101 1.327 . S
C3103 C3119 1.429 . S
C3103 H3125 0.950 . S
C3104 H3100 0.949 . S
C3104 C3112 1.574 . S
C3104 C3120 1.368 . S
H3105 C3113 0.950 . S
H3106 C3111 0.950 . S
H3107 C3112 0.949 . S
H3108 C3114 0.950 . S
H3109 C3115 0.950 . S
H3110 C3116 0.949 . S
C3111 H3106 0.950 . S
C3111 C3113 1.327 1_554 S
C3111 C3117 1.429 . S
C3112 C3104 1.574 . S
C3112 H3107 0.949 . S
C3112 C3118 1.368 . S
C3113 C3097 1.349 . S
C3113 H3105 0.950 . S
C3113 C3111 1.327 1_556 S
C3114 C3102 1.349 . S
C3114 H3108 0.950 . S
C3114 C3115 1.327 . S
C3115 H3109 0.950 . S
C3115 C3114 1.327 . S
C3115 C3119 1.429 . S
C3116 C3099 1.574 . S
C3116 H3110 0.949 . S
C3116 C3120 1.368 . S
C3117 C3098 1.429 . S
C3117 C3111 1.429 . S
C3117 C3118 1.523 . S
C3118 C3099 1.368 . S
C3118 C3112 1.368 . S
C3118 C3117 1.523 . S
C3119 C3103 1.429 . S
C3119 C3115 1.429 . S
C3119 C3120 1.523 . S
C3120 C3104 1.368 . S
C3120 C3116 1.368 . S
C3120 C3119 1.523 . S
H3121 C3096 0.950 1_556 S
H3122 C3098 0.950 . S
H3123 C3099 0.949 . S
H3124 C3101 0.950 . S
H3125 C3103 0.950 . S
C3126 C3127 1.349 . S
C3126 C3128 1.327 . S
C3126 H3151 0.950 . S
C3127 C3126 1.349 . S
C3127 C3143 1.349 . S
C3128 C3126 1.327 . S
C3128 C3147 1.429 . S
C3128 H3152 0.950 . S
C3129 C3146 1.574 . S
C3129 C3148 1.368 . S
C3129 H3153 0.949 . S
H3130 C3134 0.949 . S
C3131 C3132 1.349 1_554 S
C3131 C3133 1.327 . S
C3131 H3154 0.950 1_554 S
C3132 C3131 1.349 1_556 S
C3132 C3144 1.349 . S
C3133 C3131 1.327 . S
C3133 C3149 1.429 . S
C3133 H3155 0.950 . S
C3134 H3130 0.949 . S
C3134 C3142 1.574 . S
C3134 C3150 1.368 . S
H3135 C3143 0.950 . S
H3136 C3141 0.950 . S
H3137 C3142 0.949 . S
H3138 C3144 0.950 . S
H3139 C3145 0.950 . S
H3140 C3146 0.949 . S
C3141 H3136 0.950 . S
C3141 C3143 1.327 . S
C3141 C3147 1.429 . S
C3142 C3134 1.574 . S
C3142 H3137 0.949 . S
C3142 C3148 1.368 . S
C3143 C3127 1.349 . S
C3143 H3135 0.950 . S
C3143 C3141 1.327 . S
C3144 C3132 1.349 . S
C3144 H3138 0.950 . S
C3144 C3145 1.327 1_556 S
C3145 H3139 0.950 . S
C3145 C3144 1.327 1_554 S
C3145 C3149 1.429 . S
C3146 C3129 1.574 . S
C3146 H3140 0.949 . S
C3146 C3150 1.368 . S
C3147 C3128 1.429 . S
C3147 C3141 1.429 . S
C3147 C3148 1.523 . S
C3148 C3129 1.368 . S
C3148 C3142 1.368 . S
C3148 C3147 1.523 . S
C3149 C3133 1.429 . S
C3149 C3145 1.429 . S
C3149 C3150 1.523 . S
C3150 C3134 1.368 . S
C3150 C3146 1.368 . S
C3150 C3149 1.523 . S
H3151 C3126 0.950 . S
H3152 C3128 0.950 . S
H3153 C3129 0.949 . S
H3154 C3131 0.950 1_556 S
H3155 C3133 0.950 . S
C3156 C3157 1.349 . S
C3156 C3158 1.327 1_554 S
C3156 H3181 0.950 . S
C3157 C3156 1.349 . S
C3157 C3173 1.349 1_554 S
C3158 C3156 1.327 1_556 S
C3158 C3177 1.429 . S
C3158 H3182 0.950 . S
C3159 C3176 1.574 . S
C3159 C3178 1.368 . S
C3159 H3183 0.949 . S
H3160 C3164 0.949 . S
C3161 C3162 1.349 . S
C3161 C3163 1.327 . S
C3161 H3184 0.950 . S
C3162 C3161 1.349 . S
C3162 C3174 1.349 . S
C3163 C3161 1.327 . S
C3163 C3179 1.429 . S
C3163 H3185 0.950 . S
C3164 H3160 0.949 . S
C3164 C3172 1.574 . S
C3164 C3180 1.368 . S
H3165 C3173 0.950 1_554 S
H3166 C3171 0.950 . S
H3167 C3172 0.949 . S
H3168 C3174 0.950 . S
H3169 C3175 0.950 . S
H3170 C3176 0.949 . S
C3171 H3166 0.950 . S
C3171 C3173 1.327 . S
C3171 C3177 1.429 . S
C3172 C3164 1.574 . S
C3172 H3167 0.949 . S
C3172 C3178 1.368 . S
C3173 C3157 1.349 1_556 S
C3173 H3165 0.950 1_556 S
C3173 C3171 1.327 . S
C3174 C3162 1.349 . S
C3174 H3168 0.950 . S
C3174 C3175 1.327 . S
C3175 H3169 0.950 . S
C3175 C3174 1.327 . S
C3175 C3179 1.429 . S
C3176 C3159 1.574 . S
C3176 H3170 0.949 . S
C3176 C3180 1.368 . S
C3177 C3158 1.429 . S
C3177 C3171 1.429 . S
C3177 C3178 1.523 . S
C3178 C3159 1.368 . S
C3178 C3172 1.368 . S
C3178 C3177 1.523 . S
C3179 C3163 1.429 . S
C3179 C3175 1.429 . S
C3179 C3180 1.523 . S
C3180 C3164 1.368 . S
C3180 C3176 1.368 . S
C3180 C3179 1.523 . S
H3181 C3156 0.950 . S
H3182 C3158 0.950 . S
H3183 C3159 0.949 . S
H3184 C3161 0.950 . S
H3185 C3163 0.950 . S
C3186 C3187 1.349 . S
C3186 C3188 1.327 1_554 S
C3186 H3211 0.950 . S
C3187 C3186 1.349 . S
C3187 C3203 1.349 1_554 S
C3188 C3186 1.327 1_556 S
C3188 C3207 1.429 . S
C3188 H3212 0.950 . S
C3189 C3206 1.574 . S
C3189 C3208 1.368 . S
C3189 H3213 0.949 . S
H3190 C3194 0.949 . S
C3191 C3192 1.349 . S
C3191 C3193 1.327 . S
C3191 H3214 0.950 . S
C3192 C3191 1.349 . S
C3192 C3204 1.349 . S
C3193 C3191 1.327 . S
C3193 C3209 1.429 . S
C3193 H3215 0.950 . S
C3194 H3190 0.949 . S
C3194 C3202 1.574 . S
C3194 C3210 1.368 . S
H3195 C3203 0.950 1_554 S
H3196 C3201 0.950 . S
H3197 C3202 0.949 . S
H3198 C3204 0.950 . S
H3199 C3205 0.950 . S
H3200 C3206 0.949 . S
C3201 H3196 0.950 . S
C3201 C3203 1.327 . S
C3201 C3207 1.429 . S
C3202 C3194 1.574 . S
C3202 H3197 0.949 . S
C3202 C3208 1.368 . S
C3203 C3187 1.349 1_556 S
C3203 H3195 0.950 1_556 S
C3203 C3201 1.327 . S
C3204 C3192 1.349 . S
C3204 H3198 0.950 . S
C3204 C3205 1.327 . S
C3205 H3199 0.950 . S
C3205 C3204 1.327 . S
C3205 C3209 1.429 . S
C3206 C3189 1.574 . S
C3206 H3200 0.949 . S
C3206 C3210 1.368 . S
C3207 C3188 1.429 . S
C3207 C3201 1.429 . S
C3207 C3208 1.523 . S
C3208 C3189 1.368 . S
C3208 C3202 1.368 . S
C3208 C3207 1.523 . S
C3209 C3193 1.429 . S
C3209 C3205 1.429 . S
C3209 C3210 1.523 . S
C3210 C3194 1.368 . S
C3210 C3206 1.368 . S
C3210 C3209 1.523 . S
H3211 C3186 0.950 . S
H3212 C3188 0.950 . S
H3213 C3189 0.949 . S
H3214 C3191 0.950 . S
H3215 C3193 0.950 . S
C3216 C3217 1.349 1_554 S
C3216 C3218 1.327 . S
C3216 H3241 0.950 1_554 S
C3217 C3216 1.349 1_556 S
C3217 C3233 1.349 . S
C3218 C3216 1.327 . S
C3218 C3237 1.429 . S
C3218 H3242 0.950 . S
C3219 C3236 1.574 . S
C3219 C3238 1.368 . S
C3219 H3243 0.949 . S
H3220 C3224 0.949 . S
C3221 C3222 1.349 . S
C3221 C3223 1.327 . S
C3221 H3244 0.950 . S
C3222 C3221 1.349 . S
C3222 C3234 1.349 . S
C3223 C3221 1.327 . S
C3223 C3239 1.429 . S
C3223 H3245 0.950 . S
C3224 H3220 0.949 . S
C3224 C3232 1.574 . S
C3224 C3240 1.368 . S
H3225 C3233 0.950 . S
H3226 C3231 0.950 . S
H3227 C3232 0.949 . S
H3228 C3234 0.950 . S
H3229 C3235 0.950 . S
H3230 C3236 0.949 . S
C3231 H3226 0.950 . S
C3231 C3233 1.327 1_554 S
C3231 C3237 1.429 . S
C3232 C3224 1.574 . S
C3232 H3227 0.949 . S
C3232 C3238 1.368 . S
C3233 C3217 1.349 . S
C3233 H3225 0.950 . S
C3233 C3231 1.327 1_556 S
C3234 C3222 1.349 . S
C3234 H3228 0.950 . S
C3234 C3235 1.327 . S
C3235 H3229 0.950 . S
C3235 C3234 1.327 . S
C3235 C3239 1.429 . S
C3236 C3219 1.574 . S
C3236 H3230 0.949 . S
C3236 C3240 1.368 . S
C3237 C3218 1.429 . S
C3237 C3231 1.429 . S
C3237 C3238 1.523 . S
C3238 C3219 1.368 . S
C3238 C3232 1.368 . S
C3238 C3237 1.523 . S
C3239 C3223 1.429 . S
C3239 C3235 1.429 . S
C3239 C3240 1.523 . S
C3240 C3224 1.368 . S
C3240 C3236 1.368 . S
C3240 C3239 1.523 . S
H3241 C3216 0.950 1_556 S
H3242 C3218 0.950 . S
H3243 C3219 0.949 . S
H3244 C3221 0.950 . S
H3245 C3223 0.950 . S
C3246 C3247 1.349 . S
C3246 C3248 1.327 1_556 S
C3246 H3271 0.950 . S
C3247 C3246 1.349 . S
C3247 C3263 1.349 1_556 S
C3248 C3246 1.327 1_554 S
C3248 C3267 1.429 . S
C3248 H3272 0.950 . S
C3249 C3266 1.574 . S
C3249 C3268 1.368 . S
C3249 H3273 0.949 . S
H3250 C3254 0.949 . S
C3251 C3252 1.349 . S
C3251 C3253 1.327 . S
C3251 H3274 0.950 . S
C3252 C3251 1.349 . S
C3252 C3264 1.349 . S
C3253 C3251 1.327 . S
C3253 C3269 1.429 . S
C3253 H3275 0.950 . S
C3254 H3250 0.949 . S
C3254 C3262 1.574 . S
C3254 C3270 1.368 . S
H3255 C3263 0.950 1_556 S
H3256 C3261 0.950 . S
H3257 C3262 0.949 . S
H3258 C3264 0.950 . S
H3259 C3265 0.950 . S
H3260 C3266 0.949 . S
C3261 H3256 0.950 . S
C3261 C3263 1.327 . S
C3261 C3267 1.429 . S
C3262 C3254 1.574 . S
C3262 H3257 0.949 . S
C3262 C3268 1.368 . S
C3263 C3247 1.349 1_554 S
C3263 H3255 0.950 1_554 S
C3263 C3261 1.327 . S
C3264 C3252 1.349 . S
C3264 H3258 0.950 . S
C3264 C3265 1.327 . S
C3265 H3259 0.950 . S
C3265 C3264 1.327 . S
C3265 C3269 1.429 . S
C3266 C3249 1.574 . S
C3266 H3260 0.949 . S
C3266 C3270 1.368 . S
C3267 C3248 1.429 . S
C3267 C3261 1.429 . S
C3267 C3268 1.523 . S
C3268 C3249 1.368 . S
C3268 C3262 1.368 . S
C3268 C3267 1.523 . S
C3269 C3253 1.429 . S
C3269 C3265 1.429 . S
C3269 C3270 1.523 . S
C3270 C3254 1.368 . S
C3270 C3266 1.368 . S
C3270 C3269 1.523 . S
H3271 C3246 0.950 . S
H3272 C3248 0.950 . S
H3273 C3249 0.949 . S
H3274 C3251 0.950 . S
H3275 C3253 0.950 . S
C3276 C3277 1.349 . S
C3276 C3278 1.327 1_554 S
C3276 H3301 0.950 . S
C3277 C3276 1.349 . S
C3277 C3293 1.349 1_554 S
C3278 C3276 1.327 1_556 S
C3278 C3297 1.429 . S
C3278 H3302 0.950 . S
C3279 C3296 1.574 . S
C3279 C3298 1.368 . S
C3279 H3303 0.949 . S
H3280 C3284 0.949 . S
C3281 C3282 1.349 . S
C3281 C3283 1.327 . S
C3281 H3304 0.950 . S
C3282 C3281 1.349 . S
C3282 C3294 1.349 . S
C3283 C3281 1.327 . S
C3283 C3299 1.429 . S
C3283 H3305 0.950 . S
C3284 H3280 0.949 . S
C3284 C3292 1.574 . S
C3284 C3300 1.368 . S
H3285 C3293 0.950 1_554 S
H3286 C3291 0.950 . S
H3287 C3292 0.949 . S
H3288 C3294 0.950 . S
H3289 C3295 0.950 . S
H3290 C3296 0.949 . S
C3291 H3286 0.950 . S
C3291 C3293 1.327 . S
C3291 C3297 1.429 . S
C3292 C3284 1.574 . S
C3292 H3287 0.949 . S
C3292 C3298 1.368 . S
C3293 C3277 1.349 1_556 S
C3293 H3285 0.950 1_556 S
C3293 C3291 1.327 . S
C3294 C3282 1.349 . S
C3294 H3288 0.950 . S
C3294 C3295 1.327 . S
C3295 H3289 0.950 . S
C3295 C3294 1.327 . S
C3295 C3299 1.429 . S
C3296 C3279 1.574 . S
C3296 H3290 0.949 . S
C3296 C3300 1.368 . S
C3297 C3278 1.429 . S
C3297 C3291 1.429 . S
C3297 C3298 1.523 . S
C3298 C3279 1.368 . S
C3298 C3292 1.368 . S
C3298 C3297 1.523 . S
C3299 C3283 1.429 . S
C3299 C3295 1.429 . S
C3299 C3300 1.523 . S
C3300 C3284 1.368 . S
C3300 C3296 1.368 . S
C3300 C3299 1.523 . S
H3301 C3276 0.950 . S
H3302 C3278 0.950 . S
H3303 C3279 0.949 . S
H3304 C3281 0.950 . S
H3305 C3283 0.950 . S
C3306 C3307 1.349 . S
C3306 C3308 1.327 1_554 S
C3306 H3331 0.950 . S
C3307 C3306 1.349 . S
C3307 C3323 1.349 1_554 S
C3308 C3306 1.327 1_556 S
C3308 C3327 1.429 . S
C3308 H3332 0.950 . S
C3309 C3326 1.574 . S
C3309 C3328 1.368 . S
C3309 H3333 0.949 . S
H3310 C3314 0.949 . S
C3311 C3312 1.349 . S
C3311 C3313 1.327 . S
C3311 H3334 0.950 . S
C3312 C3311 1.349 . S
C3312 C3324 1.349 . S
C3313 C3311 1.327 . S
C3313 C3329 1.429 . S
C3313 H3335 0.950 . S
C3314 H3310 0.949 . S
C3314 C3322 1.574 . S
C3314 C3330 1.368 . S
H3315 C3323 0.950 1_554 S
H3316 C3321 0.950 . S
H3317 C3322 0.949 . S
H3318 C3324 0.950 . S
H3319 C3325 0.950 . S
H3320 C3326 0.949 . S
C3321 H3316 0.950 . S
C3321 C3323 1.327 . S
C3321 C3327 1.429 . S
C3322 C3314 1.574 . S
C3322 H3317 0.949 . S
C3322 C3328 1.368 . S
C3323 C3307 1.349 1_556 S
C3323 H3315 0.950 1_556 S
C3323 C3321 1.327 . S
C3324 C3312 1.349 . S
C3324 H3318 0.950 . S
C3324 C3325 1.327 . S
C3325 H3319 0.950 . S
C3325 C3324 1.327 . S
C3325 C3329 1.429 . S
C3326 C3309 1.574 . S
C3326 H3320 0.949 . S
C3326 C3330 1.368 . S
C3327 C3308 1.429 . S
C3327 C3321 1.429 . S
C3327 C3328 1.523 . S
C3328 C3309 1.368 . S
C3328 C3322 1.368 . S
C3328 C3327 1.523 . S
C3329 C3313 1.429 . S
C3329 C3325 1.429 . S
C3329 C3330 1.523 . S
C3330 C3314 1.368 . S
C3330 C3326 1.368 . S
C3330 C3329 1.523 . S
H3331 C3306 0.950 . S
H3332 C3308 0.950 . S
H3333 C3309 0.949 . S
H3334 C3311 0.950 . S
H3335 C3313 0.950 . S
C3336 C3337 1.349 . S
C3336 C3338 1.327 . S
C3336 H3361 0.950 . S
C3337 C3336 1.349 . S
C3337 C3353 1.349 . S
C3338 C3336 1.327 . S
C3338 C3357 1.429 . S
C3338 H3362 0.950 . S
C3339 C3356 1.574 . S
C3339 C3358 1.368 . S
C3339 H3363 0.949 . S
H3340 C3344 0.949 . S
C3341 C3342 1.349 . S
C3341 C3343 1.327 . S
C3341 H3364 0.950 . S
C3342 C3341 1.349 . S
C3342 C3354 1.349 . S
C3343 C3341 1.327 . S
C3343 C3359 1.429 . S
C3343 H3365 0.950 . S
C3344 H3340 0.949 . S
C3344 C3352 1.574 . S
C3344 C3360 1.368 . S
H3345 C3353 0.950 . S
H3346 C3351 0.950 . S
H3347 C3352 0.949 . S
H3348 C3354 0.950 . S
H3349 C3355 0.950 . S
H3350 C3356 0.949 . S
C3351 H3346 0.950 . S
C3351 C3353 1.327 . S
C3351 C3357 1.429 . S
C3352 C3344 1.574 . S
C3352 H3347 0.949 . S
C3352 C3358 1.368 . S
C3353 C3337 1.349 . S
C3353 H3345 0.950 . S
C3353 C3351 1.327 . S
C3354 C3342 1.349 . S
C3354 H3348 0.950 . S
C3354 C3355 1.327 . S
C3355 H3349 0.950 . S
C3355 C3354 1.327 . S
C3355 C3359 1.429 . S
C3356 C3339 1.574 . S
C3356 H3350 0.949 . S
C3356 C3360 1.368 . S
C3357 C3338 1.429 . S
C3357 C3351 1.429 . S
C3357 C3358 1.523 . S
C3358 C3339 1.368 . S
C3358 C3352 1.368 . S
C3358 C3357 1.523 . S
C3359 C3343 1.429 . S
C3359 C3355 1.429 . S
C3359 C3360 1.523 . S
C3360 C3344 1.368 . S
C3360 C3356 1.368 . S
C3360 C3359 1.523 . S
H3361 C3336 0.950 . S
H3362 C3338 0.950 . S
H3363 C3339 0.949 . S
H3364 C3341 0.950 . S
H3365 C3343 0.950 . S
C3366 C3367 1.349 . S
C3366 C3368 1.327 . S
C3366 H3391 0.950 . S
C3367 C3366 1.349 . S
C3367 C3383 1.349 . S
C3368 C3366 1.327 . S
C3368 C3387 1.429 . S
C3368 H3392 0.950 . S
C3369 C3386 1.574 . S
C3369 C3388 1.368 . S
C3369 H3393 0.949 . S
H3370 C3374 0.949 . S
C3371 C3372 1.349 . S
C3371 C3373 1.327 . S
C3371 H3394 0.950 . S
C3372 C3371 1.349 . S
C3372 C3384 1.349 . S
C3373 C3371 1.327 . S
C3373 C3389 1.429 . S
C3373 H3395 0.950 . S
C3374 H3370 0.949 . S
C3374 C3382 1.574 . S
C3374 C3390 1.368 . S
H3375 C3383 0.950 . S
H3376 C3381 0.950 . S
H3377 C3382 0.949 . S
H3378 C3384 0.950 . S
H3379 C3385 0.950 . S
H3380 C3386 0.949 . S
C3381 H3376 0.950 . S
C3381 C3383 1.327 . S
C3381 C3387 1.429 . S
C3382 C3374 1.574 . S
C3382 H3377 0.949 . S
C3382 C3388 1.368 . S
C3383 C3367 1.349 . S
C3383 H3375 0.950 . S
C3383 C3381 1.327 . S
C3384 C3372 1.349 . S
C3384 H3378 0.950 . S
C3384 C3385 1.327 . S
C3385 H3379 0.950 . S
C3385 C3384 1.327 . S
C3385 C3389 1.429 . S
C3386 C3369 1.574 . S
C3386 H3380 0.949 . S
C3386 C3390 1.368 . S
C3387 C3368 1.429 . S
C3387 C3381 1.429 . S
C3387 C3388 1.523 . S
C3388 C3369 1.368 . S
C3388 C3382 1.368 . S
C3388 C3387 1.523 . S
C3389 C3373 1.429 . S
C3389 C3385 1.429 . S
C3389 C3390 1.523 . S
C3390 C3374 1.368 . S
C3390 C3386 1.368 . S
C3390 C3389 1.523 . S
H3391 C3366 0.950 . S
H3392 C3368 0.950 . S
H3393 C3369 0.949 . S
H3394 C3371 0.950 . S
H3395 C3373 0.950 . S
C3396 C3397 1.349 . S
C3396 C3398 1.327 . S
C3396 H3421 0.950 . S
C3397 C3396 1.349 . S
C3397 C3413 1.349 . S
C3398 C3396 1.327 . S
C3398 C3417 1.429 . S
C3398 H3422 0.950 . S
C3399 C3416 1.574 . S
C3399 C3418 1.368 . S
C3399 H3423 0.949 . S
H3400 C3404 0.949 . S
C3401 C3402 1.349 . S
C3401 C3403 1.327 . S
C3401 H3424 0.950 . S
C3402 C3401 1.349 . S
C3402 C3414 1.349 . S
C3403 C3401 1.327 . S
C3403 C3419 1.429 . S
C3403 H3425 0.950 . S
C3404 H3400 0.949 . S
C3404 C3412 1.574 . S
C3404 C3420 1.368 . S
H3405 C3413 0.950 . S
H3406 C3411 0.950 . S
H3407 C3412 0.949 . S
H3408 C3414 0.950 . S
H3409 C3415 0.950 . S
H3410 C3416 0.949 . S
C3411 H3406 0.950 . S
C3411 C3413 1.327 . S
C3411 C3417 1.429 . S
C3412 C3404 1.574 . S
C3412 H3407 0.949 . S
C3412 C3418 1.368 . S
C3413 C3397 1.349 . S
C3413 H3405 0.950 . S
C3413 C3411 1.327 . S
C3414 C3402 1.349 . S
C3414 H3408 0.950 . S
C3414 C3415 1.327 . S
C3415 H3409 0.950 . S
C3415 C3414 1.327 . S
C3415 C3419 1.429 . S
C3416 C3399 1.574 . S
C3416 H3410 0.949 . S
C3416 C3420 1.368 . S
C3417 C3398 1.429 . S
C3417 C3411 1.429 . S
C3417 C3418 1.523 . S
C3418 C3399 1.368 . S
C3418 C3412 1.368 . S
C3418 C3417 1.523 . S
C3419 C3403 1.429 . S
C3419 C3415 1.429 . S
C3419 C3420 1.523 . S
C3420 C3404 1.368 . S
C3420 C3416 1.368 . S
C3420 C3419 1.523 . S
H3421 C3396 0.950 . S
H3422 C3398 0.950 . S
H3423 C3399 0.949 . S
H3424 C3401 0.950 . S
H3425 C3403 0.950 . S
C3426 C3427 1.349 . S
C3426 C3428 1.327 . S
C3426 H3451 0.950 . S
C3427 C3426 1.349 . S
C3427 C3443 1.349 . S
C3428 C3426 1.327 . S
C3428 C3447 1.429 . S
C3428 H3452 0.950 . S
C3429 C3446 1.574 . S
C3429 C3448 1.368 . S
C3429 H3453 0.949 . S
H3430 C3434 0.949 . S
C3431 C3432 1.349 . S
C3431 C3433 1.327 . S
C3431 H3454 0.950 . S
C3432 C3431 1.349 . S
C3432 C3444 1.349 . S
C3433 C3431 1.327 . S
C3433 C3449 1.429 . S
C3433 H3455 0.950 . S
C3434 H3430 0.949 . S
C3434 C3442 1.574 . S
C3434 C3450 1.368 . S
H3435 C3443 0.950 . S
H3436 C3441 0.950 . S
H3437 C3442 0.949 . S
H3438 C3444 0.950 . S
H3439 C3445 0.950 . S
H3440 C3446 0.949 . S
C3441 H3436 0.950 . S
C3441 C3443 1.327 . S
C3441 C3447 1.429 . S
C3442 C3434 1.574 . S
C3442 H3437 0.949 . S
C3442 C3448 1.368 . S
C3443 C3427 1.349 . S
C3443 H3435 0.950 . S
C3443 C3441 1.327 . S
C3444 C3432 1.349 . S
C3444 H3438 0.950 . S
C3444 C3445 1.327 . S
C3445 H3439 0.950 . S
C3445 C3444 1.327 . S
C3445 C3449 1.429 . S
C3446 C3429 1.574 . S
C3446 H3440 0.949 . S
C3446 C3450 1.368 . S
C3447 C3428 1.429 . S
C3447 C3441 1.429 . S
C3447 C3448 1.523 . S
C3448 C3429 1.368 . S
C3448 C3442 1.368 . S
C3448 C3447 1.523 . S
C3449 C3433 1.429 . S
C3449 C3445 1.429 . S
C3449 C3450 1.523 . S
C3450 C3434 1.368 . S
C3450 C3446 1.368 . S
C3450 C3449 1.523 . S
H3451 C3426 0.950 . S
H3452 C3428 0.950 . S
H3453 C3429 0.949 . S
H3454 C3431 0.950 . S
H3455 C3433 0.950 . S
C1057 C106 0.829 . S
C1062 C7 0.829 . S
C1087 C40 0.829 . S
C1092 C73 0.829 . S
C1117 C139 0.829 . S
C1122 C238 0.829 . S
C1147 C172 0.829 . S
C1152 C205 0.829 . S
C1177 C370 0.829 . S
C1182 C271 0.829 . S
C1207 C304 0.829 . S
C1212 C337 0.829 . S
C1237 C502 0.829 . S
C1242 C403 0.829 . S
C1267 C436 0.829 . S
C1272 C469 0.829 . S
C1297 C535 0.829 . S
C1302 C634 0.829 . S
C1327 C601 0.829 . S
C1332 C568 0.829 . S
C1357 C766 0.829 . S
C1362 C667 0.829 . S
C1387 C733 0.829 . S
C1392 C700 0.829 . S
C1417 C898 0.829 . S
C1422 C799 0.829 . S
C1447 C865 0.829 . S
C1452 C832 0.829 . S
C1477 C1030 0.829 . S
C1482 C931 0.829 . S
C1507 C997 0.829 . S
C1512 C964 0.829 . S
C1537 C648 0.571 . S
C1542 C21 0.571 . S
C1567 C615 0.571 . S
C1572 C54 0.571 . S
C1597 C582 0.571 . S
C1602 C87 0.571 . S
C1627 C549 0.571 . S
C1632 C120 0.571 . S
C1657 C780 0.571 . S
C1662 C153 0.571 . S
C1687 C747 0.571 . S
C1692 C186 0.571 . S
C1717 C219 0.571 . S
C1722 C714 0.571 . S
C1747 C681 0.571 . S
C1752 C252 0.571 . S
C1777 C912 0.571 . S
C1782 C285 0.571 . S
C1807 C879 0.571 . S
C1812 C318 0.571 . S
C1837 C351 0.571 . S
C1842 C846 0.571 . S
C1867 C384 0.571 . S
C1872 C813 0.571 . S
C1897 C1044 0.571 . S
C1902 C417 0.571 . S
C1927 C1011 0.571 . S
C1932 C450 0.571 . S
C1957 C483 0.571 . S
C1962 C978 0.571 . S
C1987 C945 0.571 . S
C1992 C516 0.571 . S
C2017 N13 1.599 . S
C2022 N46 1.599 . S
C2047 N79 1.599 . S
C2052 N112 1.599 . S
C2077 N145 1.599 . S
C2082 N178 1.599 . S
C2107 N211 1.599 . S
C2112 N244 1.599 . S
C2137 N277 1.599 . S
C2142 N310 1.599 . S
C2167 N376 1.599 . S
C2172 N343 1.599 . S
C2197 N442 1.599 . S
C2202 N409 1.599 . S
C2227 N475 1.599 . S
C2232 N508 1.599 . S
C2257 N574 1.599 . S
C2262 N541 1.599 . S
C2287 N640 1.599 . S
C2292 N607 1.599 . S
C2317 N673 1.599 . S
C2322 N706 1.599 . S
C2347 N772 1.599 . S
C2352 N739 1.599 . S
C2377 N805 1.599 . S
C2382 N838 1.599 . S
C2407 N904 1.599 . S
C2412 N871 1.599 . S
C2437 N937 1.599 . S
C2442 N970 1.599 . S
C2467 N1003 1.599 . S
C2472 N1036 1.599 . S
C2497 N398 1.858 . S
C2502 N2 1.858 . S
C2527 N695 1.858 . S
C2532 N35 1.858 . S
C2557 N68 1.858 . S
C2562 N200 1.858 . S
C2587 N1025 1.858 . S
C2592 N101 1.858 . S
C2617 N266 1.858 . S
C2622 N134 1.858 . S
C2647 N563 1.858 . S
C2652 N167 1.858 . S
C2677 N893 1.858 . S
C2682 N233 1.858 . S
C2707 N299 1.858 . S
C2712 N959 1.858 . S
C2737 N464 1.858 . S
C2742 N332 1.858 . S
C2767 N761 1.858 . S
C2772 N365 1.858 . S
C2797 N431 1.858 . S
C2802 N827 1.858 . S
C2827 N497 1.858 . S
C2832 N629 1.858 . S
C2857 N926 1.858 . S
C2862 N530 1.858 . S
C2887 N596 1.858 . S
C2892 N728 1.858 . S
C2917 N662 1.858 . S
C2922 N794 1.858 . S
C2947 N992 1.858 . S
C2952 N860 1.858 . S
C2977 C18 1.400 . S
C2982 C117 1.400 . S
C3007 C51 1.400 . S
C3012 C84 1.400 . S
C3037 C249 1.400 . S
C3042 C150 1.400 . S
C3067 C183 1.400 . S
C3072 C216 1.400 . S
C3097 C282 1.400 . S
C3102 C381 1.400 . S
C3127 C348 1.400 . S
C3132 C315 1.400 . S
C3157 C414 1.400 . S
C3162 C513 1.400 . S
C3187 C447 1.400 . S
C3192 C480 1.400 . S
C3217 C546 1.400 . S
C3222 C645 1.400 . S
C3247 C579 1.400 . S
C3252 C612 1.400 . S
C3277 C678 1.400 . S
C3282 C777 1.400 . S
C3307 C711 1.400 . S
C3312 C744 1.400 . S
C3337 C810 1.400 . S
C3342 C909 1.400 . S
C3367 C876 1.400 . S
C3372 C843 1.400 . S
C3397 C942 1.400 . S
C3402 C1041 1.400 . S
C3427 C975 1.400 . S
C3432 C1008 1.400 . S
