# Generated by pormake.
# Topology uot, (4)-cn, num edge types: 1
# Building blocks:
#     Node 0, Type 0, BuildingBlock: AZAVOO_clean_sbu_0, # of connection points: 4
#     Node 1, Type 0, BuildingBlock: AZAVOO_clean_sbu_0, # of connection points: 4
#     Node 2, Type 0, BuildingBlock: AZAVOO_clean_sbu_0, # of connection points: 4
#     Node 3, Type 0, BuildingBlock: AZAVOO_clean_sbu_0, # of connection points: 4
#     Node 4, Type 0, BuildingBlock: AZAVOO_clean_sbu_0, # of connection points: 4
#     Node 5, Type 0, BuildingBlock: AZAVOO_clean_sbu_0, # of connection points: 4
#     Node 6, Type 0, BuildingBlock: AZAVOO_clean_sbu_0, # of connection points: 4
#     Node 7, Type 0, BuildingBlock: AZAVOO_clean_sbu_0, # of connection points: 4
#     Node 8, Type 0, BuildingBlock: AZAVOO_clean_sbu_0, # of connection points: 4
#     Node 9, Type 0, BuildingBlock: AZAVOO_clean_sbu_0, # of connection points: 4
#     Node 10, Type 0, BuildingBlock: AZAVOO_clean_sbu_0, # of connection points: 4
#     Node 11, Type 0, BuildingBlock: AZAVOO_clean_sbu_0, # of connection points: 4
#     Node 12, Type 0, BuildingBlock: AZAVOO_clean_sbu_0, # of connection points: 4
#     Node 13, Type 0, BuildingBlock: AZAVOO_clean_sbu_0, # of connection points: 4
#     Node 14, Type 0, BuildingBlock: AZAVOO_clean_sbu_0, # of connection points: 4
#     Node 15, Type 0, BuildingBlock: AZAVOO_clean_sbu_0, # of connection points: 4
#     Edge 16, Type (0, 0), BuildingBlock: ZUJKAS_clean_linker_0, # of connection points: 2
#     Edge 17, Type (0, 0), BuildingBlock: ZUJKAS_clean_linker_0, # of connection points: 2
#     Edge 18, Type (0, 0), BuildingBlock: ZUJKAS_clean_linker_0, # of connection points: 2
#     Edge 19, Type (0, 0), BuildingBlock: ZUJKAS_clean_linker_0, # of connection points: 2
#     Edge 20, Type (0, 0), BuildingBlock: ZUJKAS_clean_linker_0, # of connection points: 2
#     Edge 21, Type (0, 0), BuildingBlock: ZUJKAS_clean_linker_0, # of connection points: 2
#     Edge 22, Type (0, 0), BuildingBlock: ZUJKAS_clean_linker_0, # of connection points: 2
#     Edge 23, Type (0, 0), BuildingBlock: ZUJKAS_clean_linker_0, # of connection points: 2
#     Edge 24, Type (0, 0), BuildingBlock: ZUJKAS_clean_linker_0, # of connection points: 2
#     Edge 25, Type (0, 0), BuildingBlock: ZUJKAS_clean_linker_0, # of connection points: 2
#     Edge 26, Type (0, 0), BuildingBlock: ZUJKAS_clean_linker_0, # of connection points: 2
#     Edge 27, Type (0, 0), BuildingBlock: ZUJKAS_clean_linker_0, # of connection points: 2
#     Edge 28, Type (0, 0), BuildingBlock: ZUJKAS_clean_linker_0, # of connection points: 2
#     Edge 29, Type (0, 0), BuildingBlock: ZUJKAS_clean_linker_0, # of connection points: 2
#     Edge 30, Type (0, 0), BuildingBlock: ZUJKAS_clean_linker_0, # of connection points: 2
#     Edge 31, Type (0, 0), BuildingBlock: ZUJKAS_clean_linker_0, # of connection points: 2
#     Edge 32, Type (0, 0), BuildingBlock: ZUJKAS_clean_linker_0, # of connection points: 2
#     Edge 33, Type (0, 0), BuildingBlock: ZUJKAS_clean_linker_0, # of connection points: 2
#     Edge 34, Type (0, 0), BuildingBlock: ZUJKAS_clean_linker_0, # of connection points: 2
#     Edge 35, Type (0, 0), BuildingBlock: ZUJKAS_clean_linker_0, # of connection points: 2
#     Edge 36, Type (0, 0), BuildingBlock: ZUJKAS_clean_linker_0, # of connection points: 2
#     Edge 37, Type (0, 0), BuildingBlock: ZUJKAS_clean_linker_0, # of connection points: 2
#     Edge 38, Type (0, 0), BuildingBlock: ZUJKAS_clean_linker_0, # of connection points: 2
#     Edge 39, Type (0, 0), BuildingBlock: ZUJKAS_clean_linker_0, # of connection points: 2
#     Edge 40, Type (0, 0), BuildingBlock: ZUJKAS_clean_linker_0, # of connection points: 2
#     Edge 41, Type (0, 0), BuildingBlock: ZUJKAS_clean_linker_0, # of connection points: 2
#     Edge 42, Type (0, 0), BuildingBlock: ZUJKAS_clean_linker_0, # of connection points: 2
#     Edge 43, Type (0, 0), BuildingBlock: ZUJKAS_clean_linker_0, # of connection points: 2
#     Edge 44, Type (0, 0), BuildingBlock: ZUJKAS_clean_linker_0, # of connection points: 2
#     Edge 45, Type (0, 0), BuildingBlock: ZUJKAS_clean_linker_0, # of connection points: 2
#     Edge 46, Type (0, 0), BuildingBlock: ZUJKAS_clean_linker_0, # of connection points: 2
#     Edge 47, Type (0, 0), BuildingBlock: ZUJKAS_clean_linker_0, # of connection points: 2
# Relax obj value: 0.218
# Max RMSD: 0.312
# Mean RMSD: 0.230
data_MOF--net-uot--node1-AZAVOO_clean_sbu_0--edge1-ZUJKAS_clean_linker_0
_symmetry_space_group_name_H-M    P1
_symmetry_Int_Tables_number       1
_symmetry_cell_setting            triclinic
loop_
_symmetry_equiv_pos_as_xyz
'x, y, z'
_cell_length_a     62.659426
_cell_length_b     46.017528
_cell_length_c     52.070143
_cell_angle_alpha  90.029864
_cell_angle_beta   89.91728
_cell_angle_gamma 89.909576
loop_
_atom_site_label
_atom_site_type_symbol
_atom_site_fract_x
_atom_site_fract_y
_atom_site_fract_z
_atom_type_partial_charge
Mg0 Mg 0.15289 0.45879 0.36083 0.0
O1 O 0.14502 0.49557 0.3322 0.0
O2 O 0.16314 0.53456 0.34547 0.0
Mg3 Mg 0.18139 0.52337 0.38226 0.0
C4 C 0.15043 0.52222 0.32972 0.0
C5 C 0.13274 0.4022 0.34785 0.0
O6 O 0.1369 0.40165 0.37258 0.0
O7 O 0.18637 0.45285 0.34409 0.0
O8 O 0.20331 0.49138 0.36033 0.0
O9 O 0.1254 0.47175 0.38531 0.0
O10 O 0.15808 0.48878 0.39009 0.0
C11 C 0.20337 0.46766 0.3475 0.0
C12 C 0.13838 0.48888 0.39729 0.0
O13 O 0.13841 0.42436 0.33497 0.0
Mg14 Mg 0.47413 0.67444 0.69238 0.0
O15 O 0.46126 0.72105 0.69635 0.0
O16 O 0.48833 0.75222 0.69231 0.0
Mg17 Mg 0.51828 0.7257 0.68304 0.0
C18 C 0.46862 0.74692 0.69637 0.0
C19 C 0.43299 0.6428 0.71001 0.0
O20 O 0.44595 0.63735 0.72923 0.0
O21 O 0.47607 0.67896 0.64838 0.0
O22 O 0.50314 0.71047 0.64562 0.0
O23 O 0.48259 0.67675 0.73435 0.0
O24 O 0.50454 0.688 0.70263 0.0
C25 C 0.48891 0.69458 0.63516 0.0
C26 C 0.50075 0.68704 0.72681 0.0
O27 O 0.43981 0.65772 0.69116 0.0
Mg28 Mg 0.82898 0.55261 0.31652 0.0
O29 O 0.83915 0.50862 0.2996 0.0
O30 O 0.82044 0.47397 0.31936 0.0
Mg31 Mg 0.7996 0.49553 0.35015 0.0
C32 C 0.83425 0.48195 0.30276 0.0
C33 C 0.86609 0.57083 0.28336 0.0
O34 O 0.8734 0.54856 0.29646 0.0
O35 O 0.79713 0.55126 0.29554 0.0
O36 O 0.7794 0.51902 0.31956 0.0
O37 O 0.85399 0.55044 0.34643 0.0
O38 O 0.8214 0.53296 0.35139 0.0
C39 C 0.78004 0.53763 0.30134 0.0
C40 C 0.84021 0.53712 0.36066 0.0
O41 O 0.84632 0.57694 0.28489 0.0
Mg42 Mg 0.53508 0.31285 0.70626 0.0
O43 O 0.54628 0.26526 0.70499 0.0
O44 O 0.51784 0.23631 0.70214 0.0
Mg45 Mg 0.48847 0.26571 0.69857 0.0
C46 C 0.53796 0.23995 0.70412 0.0
C47 C 0.57445 0.3528 0.7095 0.0
O48 O 0.55919 0.37018 0.7176 0.0
O49 O 0.52938 0.31336 0.66261 0.0
O50 O 0.50089 0.28421 0.66078 0.0
O51 O 0.53041 0.30658 0.74861 0.0
O52 O 0.50527 0.30024 0.71933 0.0
C53 C 0.51479 0.3003 0.64988 0.0
C54 C 0.51136 0.298 0.74277 0.0
O55 O 0.56964 0.32723 0.70237 0.0
Mg56 Mg 0.16688 0.56214 0.69324 0.0
O57 O 0.16048 0.51377 0.69864 0.0
O58 O 0.17269 0.48871 0.66508 0.0
Mg59 Mg 0.18766 0.52235 0.63771 0.0
C60 C 0.16332 0.4898 0.68685 0.0
C61 C 0.14705 0.5831 0.74892 0.0
O62 O 0.14713 0.58044 0.77405 0.0
O63 O 0.20236 0.55628 0.70179 0.0
O64 O 0.21422 0.53371 0.66652 0.0
O65 O 0.13594 0.56615 0.67095 0.0
O66 O 0.16746 0.55738 0.65371 0.0
C67 C 0.21753 0.54552 0.68839 0.0
C68 C 0.14733 0.56109 0.65066 0.0
O69 O 0.16026 0.56797 0.73603 0.0
Mg70 Mg 0.5352 0.70141 0.3069 0.0
O71 O 0.54696 0.74884 0.30447 0.0
O72 O 0.51873 0.77806 0.30971 0.0
Mg73 Mg 0.48988 0.74984 0.31969 0.0
C74 C 0.53855 0.77414 0.3052 0.0
C75 C 0.5735 0.6647 0.29031 0.0
O76 O 0.55776 0.65412 0.27654 0.0
O77 O 0.53416 0.70348 0.35088 0.0
O78 O 0.50598 0.73283 0.35619 0.0
O79 O 0.52544 0.7039 0.2654 0.0
O80 O 0.50429 0.71398 0.2982 0.0
C81 C 0.52095 0.71704 0.36533 0.0
C82 C 0.50717 0.71306 0.27381 0.0
O83 O 0.5696 0.68532 0.30589 0.0
Mg84 Mg 0.83465 0.44541 0.66452 0.0
O85 O 0.84725 0.48242 0.69032 0.0
O86 O 0.82859 0.52185 0.67899 0.0
Mg87 Mg 0.8061 0.51127 0.64583 0.0
C88 C 0.84272 0.5094 0.69282 0.0
C89 C 0.85401 0.38839 0.67329 0.0
O90 O 0.84628 0.38912 0.64985 0.0
O91 O 0.80352 0.4427 0.6869 0.0
O92 O 0.78597 0.4814 0.67181 0.0
O93 O 0.8593 0.45463 0.63531 0.0
O94 O 0.82734 0.47506 0.63583 0.0
C95 C 0.78671 0.45834 0.68547 0.0
C96 C 0.8459 0.47277 0.6253 0.0
O97 O 0.85085 0.4102 0.68783 0.0
Mg98 Mg 0.45599 0.31622 0.32527 0.0
O99 O 0.44464 0.26893 0.32234 0.0
O100 O 0.4725 0.23919 0.32733 0.0
Mg101 Mg 0.50165 0.26746 0.33593 0.0
C102 C 0.45269 0.24343 0.323 0.0
C103 C 0.41413 0.35043 0.31157 0.0
O104 O 0.42731 0.36177 0.2947 0.0
O105 O 0.45829 0.31342 0.36926 0.0
O106 O 0.48651 0.28389 0.37309 0.0
O107 O 0.46506 0.31389 0.28327 0.0
O108 O 0.4868 0.3038 0.31534 0.0
C109 C 0.4718 0.29954 0.383 0.0
C110 C 0.48348 0.30465 0.29107 0.0
O111 O 0.42107 0.3311 0.32692 0.0
Mg112 Mg 0.67662 0.94276 0.82033 0.0
O113 O 0.66498 0.984 0.79943 0.0
O114 O 0.68357 0.02127 0.81529 0.0
Mg115 Mg 0.70564 0.0046 0.84708 0.0
C116 C 0.6695 0.01107 0.80006 0.0
C117 C 0.63941 0.91733 0.79062 0.0
O118 O 0.63109 0.94021 0.80197 0.0
O119 O 0.70819 0.94232 0.79832 0.0
O120 O 0.72573 0.97808 0.81824 0.0
O121 O 0.65203 0.94816 0.85054 0.0
O122 O 0.6843 0.96725 0.85277 0.0
C123 C 0.72513 0.95718 0.80206 0.0
C124 C 0.66566 0.96394 0.86285 0.0
O125 O 0.65947 0.91336 0.792 0.0
Mg126 Mg 0.97113 0.18666 0.18533 0.0
O127 O 0.95722 0.23256 0.18951 0.0
O128 O 0.98321 0.26525 0.18493 0.0
Mg129 Mg 0.01393 0.24019 0.17604 0.0
C130 C 0.96372 0.25882 0.18927 0.0
C131 C 0.92515 0.17314 0.20378 0.0
O132 O 0.93295 0.1876 0.22339 0.0
O133 O 0.97318 0.19123 0.14131 0.0
O134 O 0.99992 0.22324 0.13848 0.0
O135 O 0.97982 0.18817 0.22725 0.0
O136 O 0.0012 0.20182 0.1958 0.0
C137 C 0.9861 0.20667 0.12802 0.0
C138 C 0.99763 0.1998 0.22 0.0
O139 O 0.93698 0.16885 0.18425 0.0
Mg140 Mg 0.3341 0.04568 0.81556 0.0
O141 O 0.34373 0.00205 0.7976 0.0
O142 O 0.32421 0.96737 0.81611 0.0
Mg143 Mg 0.30297 0.98873 0.84669 0.0
C144 C 0.33843 0.97542 0.80005 0.0
C145 C 0.37218 0.06451 0.78375 0.0
O146 O 0.37917 0.04121 0.79565 0.0
O147 O 0.30266 0.04641 0.79371 0.0
O148 O 0.28377 0.01393 0.81611 0.0
O149 O 0.35862 0.04087 0.84569 0.0
O150 O 0.32546 0.0253 0.84979 0.0
C151 C 0.28518 0.03321 0.79849 0.0
C152 C 0.34431 0.02791 0.85941 0.0
O153 O 0.35244 0.07076 0.78525 0.0
Mg154 Mg 0.03485 0.80599 0.17699 0.0
O155 O 0.04686 0.75886 0.18112 0.0
O156 O 0.01924 0.72893 0.17568 0.0
Mg157 Mg 0.99011 0.75662 0.16537 0.0
C158 C 0.0389 0.73331 0.18078 0.0
C159 C 0.0746 0.83933 0.19479 0.0
O160 O 0.06013 0.84733 0.21166 0.0
O161 O 0.03366 0.80273 0.13298 0.0
O162 O 0.00585 0.77278 0.12839 0.0
O163 O 0.02576 0.8037 0.21855 0.0
O164 O 0.00405 0.79333 0.18634 0.0
C165 C 0.02061 0.78857 0.11885 0.0
C166 C 0.00759 0.79385 0.21062 0.0
O167 O 0.06929 0.82183 0.17701 0.0
Mg168 Mg 0.66634 0.06901 0.16776 0.0
O169 O 0.65585 0.02801 0.19035 0.0
O170 O 0.67459 0.99126 0.17325 0.0
Mg171 Mg 0.69692 0.00776 0.14183 0.0
C172 C 0.6607 0.00101 0.18905 0.0
C173 C 0.64286 0.12189 0.18138 0.0
O174 O 0.64963 0.12397 0.15755 0.0
O175 O 0.69795 0.07156 0.18952 0.0
O176 O 0.71611 0.03572 0.17035 0.0
O177 O 0.64178 0.06126 0.13769 0.0
O178 O 0.67456 0.04363 0.13618 0.0
C179 C 0.71514 0.05706 0.18606 0.0
C180 C 0.65591 0.0456 0.126 0.0
O181 O 0.6485 0.09981 0.19443 0.0
Mg182 Mg 0.03666 0.1807 0.80138 0.0
O183 O 0.05027 0.22622 0.79343 0.0
O184 O 0.02435 0.25893 0.79897 0.0
Mg185 Mg 0.99443 0.23472 0.81227 0.0
C186 C 0.04353 0.25241 0.79298 0.0
C187 C 0.08091 0.16337 0.77916 0.0
O188 O 0.07187 0.17509 0.75891 0.0
O189 O 0.03753 0.18796 0.84514 0.0
O190 O 0.0109 0.22013 0.84916 0.0
O191 O 0.0248 0.17938 0.76047 0.0
O192 O 0.00597 0.19501 0.79357 0.0
C193 C 0.02545 0.20414 0.85894 0.0
C194 C 0.00748 0.1911 0.76926 0.0
O195 O 0.07057 0.16249 0.80019 0.0
Mg196 Mg 0.33075 0.95923 0.1646 0.0
O197 O 0.33985 0.99702 0.19151 0.0
O198 O 0.32044 0.03496 0.17828 0.0
Mg199 Mg 0.30073 0.02251 0.14308 0.0
C200 C 0.33405 0.02358 0.19352 0.0
C201 C 0.35015 0.90309 0.1755 0.0
O202 O 0.34205 0.9027 0.15222 0.0
O203 O 0.29846 0.95366 0.18394 0.0
O204 O 0.28037 0.99111 0.16735 0.0
O205 O 0.35674 0.97101 0.13789 0.0
O206 O 0.32378 0.98776 0.13492 0.0
C207 C 0.2812 0.96806 0.18103 0.0
C208 C 0.34302 0.9873 0.12614 0.0
O209 O 0.34702 0.92546 0.18935 0.0
Mg210 Mg 0.97629 0.80692 0.78976 0.0
O211 O 0.96528 0.75922 0.78962 0.0
O212 O 0.99376 0.73063 0.79508 0.0
Mg213 Mg 0.02277 0.75992 0.80095 0.0
C214 C 0.97377 0.73402 0.79138 0.0
C215 C 0.9353 0.84031 0.77459 0.0
O216 O 0.9491 0.84971 0.7575 0.0
O217 O 0.97938 0.80637 0.83393 0.0
O218 O 0.00801 0.7776 0.83782 0.0
O219 O 0.98405 0.80216 0.74755 0.0
O220 O 0.00683 0.7943 0.77907 0.0
C221 C 0.99329 0.79324 0.84772 0.0
C222 C 0.00269 0.79336 0.75495 0.0
O223 O 0.94147 0.82196 0.79128 0.0
H224 H 0.21188 0.41355 0.32746 0.0
H225 H 0.24697 0.39214 0.31879 0.0
H226 H 0.2771 0.4732 0.33872 0.0
H227 H 0.24226 0.49469 0.34775 0.0
H228 H 0.28107 0.40694 0.28603 0.0
H229 H 0.30433 0.41504 0.38852 0.0
H230 H 0.2772 0.42004 0.3778 0.0
H231 H 0.29623 0.44905 0.37473 0.0
C232 C 0.22594 0.42697 0.3297 0.0
C233 C 0.2242 0.45578 0.33863 0.0
C234 C 0.246 0.41465 0.32477 0.0
C235 C 0.26467 0.43087 0.32869 0.0
C236 C 0.26293 0.46007 0.33617 0.0
H237 H 0.39505 0.3934 0.28342 0.0
H238 H 0.35837 0.41111 0.28673 0.0
C239 C 0.24294 0.47237 0.34119 0.0
C240 C 0.28601 0.41706 0.32594 0.0
H241 H 0.33169 0.40193 0.35909 0.0
C242 C 0.29212 0.40572 0.302 0.0
C243 C 0.30026 0.41498 0.34694 0.0
C244 C 0.29415 0.42515 0.37352 0.0
C245 C 0.31236 0.39308 0.29833 0.0
C246 C 0.32696 0.39219 0.31905 0.0
C247 C 0.3206 0.40285 0.34314 0.0
C248 C 0.34901 0.38058 0.31625 0.0
C249 C 0.3178 0.38049 0.27237 0.0
C250 C 0.35616 0.35791 0.33213 0.0
C251 C 0.37723 0.3479 0.33048 0.0
C252 C 0.39162 0.36047 0.31297 0.0
C253 C 0.38438 0.38311 0.29703 0.0
C254 C 0.36334 0.39314 0.29874 0.0
H255 H 0.30321 0.3752 0.26122 0.0
H256 H 0.32709 0.39669 0.26123 0.0
H257 H 0.32762 0.3605 0.27429 0.0
H258 H 0.34543 0.348 0.3459 0.0
H259 H 0.38225 0.33045 0.34305 0.0
H260 H 0.40221 0.64858 0.67299 0.0
H261 H 0.36561 0.6302 0.67415 0.0
H262 H 0.37678 0.59409 0.74935 0.0
H263 H 0.41348 0.61196 0.74822 0.0
H264 H 0.35658 0.5557 0.71707 0.0
H265 H 0.31583 0.66265 0.71576 0.0
H266 H 0.33435 0.658 0.68974 0.0
H267 H 0.34399 0.65884 0.72226 0.0
C268 C 0.39688 0.63681 0.68981 0.0
C269 C 0.41076 0.63184 0.71055 0.0
C270 C 0.3759 0.62647 0.69051 0.0
C271 C 0.36836 0.6112 0.71203 0.0
C272 C 0.38224 0.60596 0.73263 0.0
H273 H 0.23207 0.5759 0.73028 0.0
H274 H 0.26899 0.58933 0.73975 0.0
C275 C 0.40321 0.61623 0.73194 0.0
C276 C 0.34617 0.60006 0.71276 0.0
H277 H 0.2941 0.62111 0.70755 0.0
C278 C 0.3429 0.57001 0.71522 0.0
C279 C 0.32832 0.61879 0.71084 0.0
C280 C 0.33073 0.65139 0.70977 0.0
C281 C 0.32228 0.55808 0.71481 0.0
C282 C 0.30451 0.57669 0.71144 0.0
C283 C 0.30774 0.60683 0.70996 0.0
C284 C 0.28255 0.56539 0.70787 0.0
C285 C 0.31974 0.52569 0.71801 0.0
C286 C 0.27794 0.54705 0.68709 0.0
C287 C 0.2569 0.53923 0.68168 0.0
C288 C 0.23994 0.54985 0.69678 0.0
C289 C 0.24469 0.56727 0.71825 0.0
C290 C 0.26579 0.57506 0.72366 0.0
H291 H 0.33348 0.51608 0.72848 0.0
H292 H 0.30483 0.52035 0.72853 0.0
H293 H 0.31903 0.51535 0.69877 0.0
H294 H 0.29053 0.53978 0.67433 0.0
H295 H 0.25389 0.52583 0.66496 0.0
H296 H 0.61019 0.68319 0.31373 0.0
H297 H 0.646 0.66232 0.30962 0.0
H298 H 0.62179 0.59762 0.2573 0.0
H299 H 0.58611 0.61861 0.2609 0.0
H300 H 0.65832 0.60779 0.32255 0.0
H301 H 0.67421 0.62641 0.21913 0.0
H302 H 0.6528 0.64435 0.23616 0.0
H303 H 0.64962 0.60759 0.22505 0.0
C304 C 0.61252 0.66467 0.30119 0.0
C305 C 0.5953 0.65258 0.28763 0.0
C306 C 0.63299 0.6528 0.29882 0.0
C307 C 0.63663 0.62872 0.28281 0.0
C308 C 0.61948 0.61664 0.26925 0.0
H309 H 0.74178 0.50923 0.30262 0.0
H310 H 0.70667 0.5304 0.29447 0.0
C311 C 0.59903 0.62854 0.27152 0.0
C312 C 0.65805 0.615 0.28171 0.0
H313 H 0.69799 0.59405 0.24086 0.0
C314 C 0.66702 0.60493 0.3047 0.0
C315 C 0.66948 0.61153 0.25842 0.0
C316 C 0.66115 0.62329 0.23332 0.0
C317 C 0.68694 0.59105 0.30504 0.0
C318 C 0.69799 0.58651 0.28164 0.0
C319 C 0.68928 0.59711 0.25867 0.0
C320 C 0.71896 0.57162 0.28113 0.0
C321 C 0.69613 0.58177 0.33055 0.0
C322 C 0.73745 0.58705 0.2745 0.0
C323 C 0.7576 0.57488 0.27884 0.0
C324 C 0.7595 0.54715 0.29003 0.0
C325 C 0.74089 0.53078 0.29433 0.0
C326 C 0.7208 0.54288 0.2898 0.0
H327 H 0.68825 0.59306 0.34689 0.0
H328 H 0.6937 0.55806 0.33307 0.0
H329 H 0.71353 0.58619 0.33139 0.0
H330 H 0.73633 0.60919 0.26756 0.0
H331 H 0.77159 0.58807 0.27525 0.0
H332 H 0.6103 0.3199 0.70164 0.0
H333 H 0.6475 0.33578 0.70375 0.0
H334 H 0.62671 0.42334 0.71978 0.0
H335 H 0.58955 0.40753 0.7184 0.0
H336 H 0.6681 0.37441 0.67455 0.0
H337 H 0.67031 0.41181 0.77558 0.0
H338 H 0.64863 0.39037 0.76295 0.0
H339 H 0.64944 0.429 0.75758 0.0
C340 C 0.61365 0.34253 0.70571 0.0
C341 C 0.59697 0.36244 0.70996 0.0
C342 C 0.63492 0.35154 0.70698 0.0
C343 C 0.63992 0.38061 0.71249 0.0
C344 C 0.62328 0.40063 0.71629 0.0
H345 H 0.74933 0.48816 0.69225 0.0
H346 H 0.71439 0.46769 0.70258 0.0
C347 C 0.60202 0.3916 0.71524 0.0
C348 C 0.66248 0.39034 0.71287 0.0
H349 H 0.69932 0.42721 0.74863 0.0
C350 C 0.675 0.38558 0.69089 0.0
C351 C 0.6715 0.40486 0.73426 0.0
C352 C 0.65934 0.40906 0.75902 0.0
C353 C 0.69602 0.39583 0.68937 0.0
C354 C 0.70475 0.41115 0.71038 0.0
C355 C 0.69247 0.41547 0.73257 0.0
C356 C 0.72624 0.42413 0.70877 0.0
C357 C 0.70862 0.39104 0.665 0.0
C358 C 0.7445 0.40654 0.70988 0.0
C359 C 0.76456 0.41816 0.70413 0.0
C360 C 0.76657 0.44752 0.69693 0.0
C361 C 0.74834 0.46543 0.69753 0.0
C362 C 0.72836 0.45382 0.70347 0.0
H363 H 0.69881 0.38121 0.64952 0.0
H364 H 0.71523 0.41197 0.658 0.0
H365 H 0.72228 0.37634 0.66902 0.0
H366 H 0.7431 0.38355 0.71403 0.0
H367 H 0.77823 0.40374 0.70385 0.0
H368 H 0.7625 0.98746 0.79874 0.0
H369 H 0.79776 0.96809 0.78841 0.0
H370 H 0.76978 0.88499 0.77043 0.0
H371 H 0.73434 0.90436 0.78022 0.0
H372 H 0.81555 0.92467 0.81575 0.0
H373 H 0.81303 0.89344 0.71297 0.0
H374 H 0.79348 0.91731 0.72736 0.0
H375 H 0.79148 0.87862 0.73152 0.0
C376 C 0.76374 0.96527 0.79192 0.0
C377 C 0.74557 0.94743 0.79045 0.0
C378 C 0.78395 0.95421 0.78608 0.0
C379 C 0.78646 0.92509 0.77863 0.0
C380 C 0.76824 0.90766 0.77571 0.0
H381 H 0.90211 0.82426 0.80593 0.0
H382 H 0.86575 0.84384 0.80627 0.0
C383 C 0.74795 0.91879 0.78137 0.0
C384 C 0.8082 0.91228 0.77686 0.0
H385 H 0.84231 0.87512 0.73745 0.0
C386 C 0.82143 0.91398 0.79856 0.0
C387 C 0.81591 0.89844 0.75441 0.0
C388 C 0.80283 0.89704 0.73015 0.0
C389 C 0.84206 0.90208 0.79854 0.0
C390 C 0.84954 0.88747 0.77638 0.0
C391 C 0.83644 0.88603 0.75453 0.0
C392 C 0.8712 0.87435 0.77532 0.0
C393 C 0.85579 0.9058 0.82211 0.0
C394 C 0.88614 0.88433 0.7573 0.0
C395 C 0.90687 0.87306 0.75694 0.0
C396 C 0.91308 0.85149 0.77458 0.0
C397 C 0.89792 0.84103 0.79224 0.0
C398 C 0.87715 0.85228 0.79252 0.0
H399 H 0.84991 0.92371 0.83459 0.0
H400 H 0.85546 0.88544 0.83351 0.0
H401 H 0.87261 0.91037 0.81675 0.0
H402 H 0.88187 0.90128 0.7438 0.0
H403 H 0.91809 0.88153 0.74301 0.0
H404 H 0.75341 0.02859 0.1883 0.0
H405 H 0.7882 0.04956 0.19786 0.0
H406 H 0.75815 0.13078 0.21806 0.0
H407 H 0.72313 0.11003 0.20831 0.0
H408 H 0.78952 0.13602 0.18036 0.0
H409 H 0.82022 0.07293 0.26308 0.0
H410 H 0.81031 0.0505 0.23753 0.0
H411 H 0.79226 0.07395 0.25469 0.0
C412 C 0.75408 0.0507 0.1954 0.0
C413 C 0.73543 0.06766 0.19737 0.0
C414 C 0.77404 0.06262 0.20098 0.0
C415 C 0.77579 0.0917 0.20877 0.0
C416 C 0.75714 0.10825 0.21214 0.0
H417 H 0.8971 0.1761 0.24392 0.0
H418 H 0.86058 0.15762 0.24578 0.0
C419 C 0.73712 0.09629 0.20669 0.0
C420 C 0.79711 0.10556 0.21041 0.0
H421 H 0.8461 0.09953 0.23863 0.0
C422 C 0.80182 0.12827 0.19332 0.0
C423 C 0.81311 0.09552 0.22737 0.0
C424 C 0.8087 0.07207 0.24689 0.0
C425 C 0.82229 0.14057 0.19216 0.0
C426 C 0.83854 0.12964 0.20831 0.0
C427 C 0.83367 0.10762 0.22603 0.0
C428 C 0.86073 0.14075 0.20702 0.0
C429 C 0.82636 0.16518 0.17366 0.0
C430 C 0.87301 0.13714 0.18465 0.0
C431 C 0.89395 0.14764 0.18351 0.0
C432 C 0.90299 0.16191 0.20476 0.0
C433 C 0.89064 0.1653 0.22717 0.0
C434 C 0.86976 0.15471 0.22832 0.0
H435 H 0.81127 0.1757 0.16739 0.0
H436 H 0.8368 0.18192 0.18246 0.0
H437 H 0.83456 0.15656 0.15635 0.0
H438 H 0.86644 0.12603 0.16813 0.0
H439 H 0.90303 0.14456 0.166 0.0
H440 H 0.10516 0.14003 0.81772 0.0
H441 H 0.14087 0.11881 0.81424 0.0
H442 H 0.14159 0.13695 0.73302 0.0
H443 H 0.10584 0.15815 0.73624 0.0
H444 H 0.15472 0.07927 0.74657 0.0
H445 H 0.19727 0.16392 0.80245 0.0
H446 H 0.17424 0.14923 0.8184 0.0
H447 H 0.17096 0.16957 0.78921 0.0
C448 C 0.11292 0.13962 0.79912 0.0
C449 C 0.10266 0.15088 0.77727 0.0
C450 C 0.13336 0.1276 0.79719 0.0
C451 C 0.14393 0.12664 0.77342 0.0
C452 C 0.13371 0.13762 0.75155 0.0
H453 H 0.27934 0.08174 0.7687 0.0
H454 H 0.24527 0.10404 0.75698 0.0
C455 C 0.1133 0.14977 0.75346 0.0
C456 C 0.16552 0.11366 0.77142 0.0
H457 H 0.21625 0.11994 0.79437 0.0
C458 C 0.16826 0.08829 0.75679 0.0
C459 C 0.18319 0.12576 0.7844 0.0
C460 C 0.1814 0.15378 0.79932 0.0
C461 C 0.18806 0.07395 0.75575 0.0
C462 C 0.20543 0.08519 0.7699 0.0
C463 C 0.20289 0.11127 0.7836 0.0
C464 C 0.22593 0.06932 0.7725 0.0
C465 C 0.19015 0.0468 0.73971 0.0
C466 C 0.22636 0.042 0.78442 0.0
C467 C 0.24578 0.02917 0.79114 0.0
C468 C 0.26519 0.04352 0.78623 0.0
C469 C 0.26474 0.07003 0.77276 0.0
C470 C 0.24527 0.0829 0.76612 0.0
H471 H 0.17801 0.0462 0.72418 0.0
H472 H 0.20628 0.04513 0.73095 0.0
H473 H 0.18764 0.02751 0.75212 0.0
H474 H 0.21165 0.03134 0.78991 0.0
H475 H 0.24549 0.00874 0.80144 0.0
H476 H 0.24276 0.99567 0.18555 0.0
H477 H 0.20809 0.97337 0.19368 0.0
H478 H 0.23866 0.89042 0.20548 0.0
H479 H 0.27349 0.91265 0.1979 0.0
H480 H 0.1923 0.93147 0.16254 0.0
H481 H 0.19469 0.8913 0.26291 0.0
H482 H 0.21346 0.91766 0.25069 0.0
H483 H 0.21696 0.87968 0.24373 0.0
C484 C 0.24219 0.97282 0.1905 0.0
C485 C 0.2609 0.95591 0.1909 0.0
C486 C 0.22235 0.96011 0.19511 0.0
C487 C 0.22078 0.93025 0.20022 0.0
C488 C 0.2395 0.91359 0.20202 0.0
H489 H 0.10882 0.82632 0.16399 0.0
H490 H 0.14472 0.8471 0.16602 0.0
C491 C 0.25942 0.92635 0.19759 0.0
C492 C 0.19952 0.91615 0.20064 0.0
H493 H 0.1662 0.87396 0.23671 0.0
C494 C 0.18655 0.91902 0.17883 0.0
C495 C 0.19205 0.89999 0.22192 0.0
C496 C 0.20492 0.89715 0.24625 0.0
C497 C 0.16635 0.90609 0.17761 0.0
C498 C 0.15908 0.88928 0.19858 0.0
C499 C 0.17194 0.88659 0.22054 0.0
C500 C 0.13784 0.87521 0.19833 0.0
C501 C 0.15279 0.91104 0.15406 0.0
C502 C 0.12231 0.88347 0.21633 0.0
C503 C 0.10185 0.87154 0.21532 0.0
C504 C 0.09654 0.85106 0.19631 0.0
C505 C 0.11233 0.84224 0.17871 0.0
C506 C 0.13283 0.85415 0.17979 0.0
H507 H 0.15837 0.93004 0.14275 0.0
H508 H 0.15369 0.89158 0.14151 0.0
H509 H 0.13582 0.91457 0.1594 0.0
H510 H 0.12589 0.89963 0.23083 0.0
H511 H 0.09011 0.8787 0.22925 0.0
H512 H 0.16052 0.57795 0.31604 0.0
H513 H 0.1423 0.60909 0.2851 0.0
H514 H 0.10009 0.53869 0.26538 0.0
H515 H 0.11814 0.50724 0.29651 0.0
H516 H 0.13441 0.60249 0.23085 0.0
H517 H 0.05985 0.60526 0.28904 0.0
H518 H 0.08494 0.5927 0.30194 0.0
H519 H 0.06985 0.56984 0.28074 0.0
C520 C 0.14747 0.56891 0.30503 0.0
C521 C 0.14069 0.54009 0.30901 0.0
C522 C 0.1371 0.58678 0.28728 0.0
C523 C 0.11966 0.57635 0.27321 0.0
C524 C 0.11333 0.5473 0.27633 0.0
H525 H 0.02799 0.67562 0.18215 0.0
H526 H 0.04825 0.6356 0.20105 0.0
C527 C 0.12375 0.52932 0.29406 0.0
C528 C 0.10763 0.59641 0.25621 0.0
H529 H 0.06002 0.63204 0.25067 0.0
C530 C 0.11809 0.60884 0.23504 0.0
C531 C 0.08635 0.60462 0.26172 0.0
C532 C 0.07455 0.59265 0.28468 0.0
C533 C 0.10786 0.62939 0.21929 0.0
C534 C 0.08676 0.63822 0.22523 0.0
C535 C 0.07617 0.62526 0.24608 0.0
C536 C 0.07564 0.66183 0.21101 0.0
C537 C 0.1197 0.64128 0.19636 0.0
C538 C 0.08438 0.6899 0.21001 0.0
C539 C 0.07288 0.71286 0.19907 0.0
C540 C 0.05226 0.70832 0.18916 0.0
C541 C 0.04382 0.67998 0.18954 0.0
C542 C 0.05537 0.65703 0.2004 0.0
H543 H 0.1323 0.62599 0.18973 0.0
H544 H 0.1087 0.64572 0.18013 0.0
H545 H 0.1276 0.66194 0.20183 0.0
H546 H 0.09975 0.69435 0.2186 0.0
H547 H 0.07985 0.73437 0.19931 0.0
H548 H 0.54341 0.68205 0.7299 0.0
H549 H 0.56785 0.71909 0.74608 0.0
H550 H 0.51429 0.76839 0.77495 0.0
H551 H 0.48987 0.73066 0.75953 0.0
H552 H 0.56542 0.77231 0.72502 0.0
H553 H 0.55812 0.78182 0.83089 0.0
H554 H 0.54903 0.75024 0.81346 0.0
H555 H 0.53299 0.78267 0.81439 0.0
C556 C 0.537 0.70009 0.74087 0.0
C557 C 0.51489 0.70344 0.74386 0.0
C558 C 0.55092 0.72134 0.7499 0.0
C559 C 0.54292 0.74651 0.76171 0.0
C560 C 0.52087 0.74888 0.76639 0.0
H561 H 0.59588 0.91707 0.79008 0.0
H562 H 0.5725 0.87571 0.78179 0.0
C563 C 0.50692 0.72729 0.75768 0.0
C564 C 0.55718 0.77185 0.76524 0.0
H565 H 0.57564 0.82077 0.80916 0.0
C566 C 0.56781 0.78272 0.74349 0.0
C567 C 0.56006 0.7856 0.78926 0.0
C568 C 0.5496 0.77436 0.81338 0.0
C569 C 0.58114 0.80707 0.74505 0.0
C570 C 0.58402 0.82079 0.76902 0.0
C571 C 0.57333 0.81011 0.79079 0.0
C572 C 0.59815 0.84626 0.77195 0.0
C573 C 0.59171 0.8183 0.72097 0.0
C574 C 0.62028 0.84345 0.76861 0.0
C575 C 0.63374 0.86706 0.77329 0.0
C576 C 0.62525 0.89382 0.78149 0.0
C577 C 0.60297 0.89679 0.78379 0.0
C578 C 0.58956 0.87316 0.77921 0.0
H579 H 0.58429 0.80924 0.70334 0.0
H580 H 0.59085 0.84239 0.72014 0.0
H581 H 0.60881 0.81197 0.72107 0.0
H582 H 0.62719 0.82274 0.7632 0.0
H583 H 0.65082 0.86401 0.77144 0.0
H584 H 0.92253 0.25331 0.20627 0.0
H585 H 0.89881 0.29176 0.2217 0.0
H586 H 0.94666 0.35592 0.20402 0.0
H587 H 0.97058 0.31769 0.1885 0.0
H588 H 0.91039 0.33067 0.26311 0.0
H589 H 0.89036 0.38958 0.1731 0.0
H590 H 0.90011 0.35259 0.17322 0.0
H591 H 0.91823 0.38222 0.17829 0.0
C592 C 0.92795 0.27561 0.20526 0.0
C593 C 0.94852 0.28236 0.19616 0.0
C594 C 0.91435 0.29755 0.21414 0.0
C595 C 0.92093 0.32666 0.21379 0.0
C596 C 0.94118 0.33362 0.20408 0.0
H597 H 0.86939 0.48884 0.2719 0.0
H598 H 0.88976 0.45093 0.24983 0.0
C599 C 0.95485 0.31168 0.19534 0.0
C600 C 0.90729 0.34945 0.22547 0.0
H601 H 0.87941 0.41145 0.21221 0.0
C602 C 0.90348 0.34824 0.25199 0.0
C603 C 0.89852 0.37244 0.2109 0.0
C604 C 0.90182 0.37433 0.18225 0.0
C605 C 0.89141 0.36973 0.26448 0.0
C606 C 0.88241 0.39264 0.2499 0.0
C607 C 0.88623 0.39383 0.22333 0.0
C608 C 0.86925 0.41574 0.26203 0.0
C609 C 0.88898 0.36812 0.2933 0.0
C610 C 0.85063 0.40866 0.27566 0.0
C611 C 0.83904 0.43022 0.28848 0.0
C612 C 0.84567 0.45941 0.28764 0.0
C613 C 0.86384 0.46659 0.27304 0.0
C614 C 0.87551 0.44495 0.26039 0.0
H615 H 0.90154 0.35434 0.30215 0.0
H616 H 0.8897 0.39008 0.3021 0.0
H617 H 0.87327 0.35838 0.29803 0.0
H618 H 0.84518 0.38637 0.27663 0.0
H619 H 0.825 0.42393 0.29927 0.0
H620 H 0.46932 0.30189 0.75252 0.0
H621 H 0.44649 0.26113 0.76459 0.0
H622 H 0.50229 0.20874 0.77933 0.0
H623 H 0.52519 0.24988 0.76786 0.0
H624 H 0.45115 0.21246 0.73255 0.0
H625 H 0.45975 0.18223 0.83545 0.0
H626 H 0.46601 0.21812 0.82359 0.0
H627 H 0.48416 0.18853 0.81813 0.0
C628 C 0.47666 0.28219 0.75977 0.0
C629 C 0.49891 0.27898 0.75959 0.0
C630 C 0.46364 0.25886 0.76641 0.0
C631 C 0.47271 0.23194 0.77273 0.0
C632 C 0.49498 0.22948 0.77492 0.0
H633 H 0.41561 0.06014 0.78278 0.0
H634 H 0.44113 0.09978 0.7775 0.0
C635 C 0.50806 0.25304 0.76855 0.0
C636 C 0.45914 0.20572 0.77236 0.0
H637 H 0.44055 0.1497 0.80886 0.0
C638 C 0.44876 0.19877 0.74927 0.0
C639 C 0.4564 0.18772 0.79404 0.0
C640 C 0.46702 0.19452 0.81931 0.0
C641 C 0.43548 0.17442 0.74733 0.0
C642 C 0.4323 0.1568 0.76917 0.0
C643 C 0.44304 0.16334 0.79214 0.0
C644 C 0.41716 0.13221 0.76898 0.0
C645 C 0.42513 0.16762 0.72188 0.0
C646 C 0.3953 0.13722 0.76516 0.0
C647 C 0.38065 0.11461 0.76805 0.0
C648 C 0.38764 0.08667 0.77506 0.0
C649 C 0.40968 0.08141 0.77743 0.0
C650 C 0.4243 0.10405 0.77456 0.0
H651 H 0.43374 0.17806 0.70566 0.0
H652 H 0.42455 0.14382 0.71845 0.0
H653 H 0.40852 0.17602 0.72197 0.0
H654 H 0.38946 0.1589 0.76113 0.0
H655 H 0.3638 0.11942 0.76617 0.0
H656 H 0.16082 0.43524 0.66542 0.0
H657 H 0.1433 0.39224 0.68347 0.0
H658 H 0.12777 0.44046 0.752 0.0
H659 H 0.1453 0.48336 0.73437 0.0
H660 H 0.1432 0.38312 0.76134 0.0
H661 H 0.07752 0.38583 0.68959 0.0
H662 H 0.10414 0.38501 0.6767 0.0
H663 H 0.09528 0.41616 0.69457 0.0
C664 C 0.15385 0.43665 0.68443 0.0
C665 C 0.15435 0.46289 0.69833 0.0
C666 C 0.14375 0.41208 0.69465 0.0
C667 C 0.13398 0.41331 0.71892 0.0
C668 C 0.13514 0.43909 0.7332 0.0
H669 H 0.03438 0.31019 0.78661 0.0
H670 H 0.05748 0.348 0.7691 0.0
C671 C 0.14514 0.46363 0.72301 0.0
C672 C 0.1219 0.38818 0.72926 0.0
H673 H 0.07683 0.3479 0.71996 0.0
C674 C 0.12876 0.37525 0.75223 0.0
C675 C 0.10292 0.37826 0.71749 0.0
C676 C 0.09435 0.3921 0.69333 0.0
C677 C 0.1171 0.35269 0.76381 0.0
C678 C 0.09819 0.34269 0.75196 0.0
C679 C 0.0914 0.35553 0.72892 0.0
C680 C 0.0847 0.3197 0.76361 0.0
C681 C 0.12475 0.34031 0.789 0.0
C682 C 0.09236 0.2912 0.7664 0.0
C683 C 0.07918 0.26944 0.77644 0.0
C684 C 0.05804 0.27577 0.78383 0.0
C685 C 0.05055 0.30447 0.78124 0.0
C686 C 0.06372 0.32615 0.77115 0.0
H687 H 0.13692 0.3544 0.79822 0.0
H688 H 0.1112 0.33742 0.80253 0.0
H689 H 0.13204 0.31867 0.78555 0.0
H690 H 0.1084 0.28566 0.76034 0.0
H691 H 0.08547 0.24757 0.77802 0.0
H692 H 0.37262 0.89865 0.22053 0.0
H693 H 0.39969 0.86219 0.23127 0.0
H694 H 0.38861 0.81905 0.15896 0.0
H695 H 0.36129 0.85483 0.14832 0.0
H696 H 0.39233 0.78073 0.19823 0.0
H697 H 0.45923 0.85922 0.1999 0.0
H698 H 0.43794 0.8693 0.22121 0.0
H699 H 0.43329 0.86826 0.18711 0.0
C700 C 0.37582 0.88125 0.20704 0.0
C701 C 0.36493 0.87976 0.18351 0.0
C702 C 0.39143 0.86062 0.21307 0.0
C703 C 0.39651 0.83839 0.1956 0.0
C704 C 0.38508 0.83622 0.17258 0.0
H705 H 0.51219 0.73529 0.22519 0.0
H706 H 0.48531 0.76241 0.20045 0.0
C707 C 0.36945 0.8567 0.16658 0.0
C708 C 0.41365 0.81725 0.20135 0.0
H709 H 0.4661 0.81241 0.21827 0.0
C710 C 0.40852 0.7876 0.20232 0.0
C711 C 0.43491 0.82617 0.20592 0.0
C712 C 0.44176 0.85744 0.20321 0.0
C713 C 0.42382 0.76679 0.20926 0.0
C714 C 0.44463 0.776 0.21583 0.0
C715 C 0.45008 0.80542 0.21338 0.0
C716 C 0.46007 0.7563 0.22837 0.0
C717 C 0.41745 0.7352 0.20993 0.0
C718 C 0.45466 0.74374 0.25199 0.0
C719 C 0.46985 0.72847 0.26601 0.0
C720 C 0.49083 0.72559 0.2568 0.0
C721 C 0.49609 0.73708 0.23263 0.0
C722 C 0.48081 0.7526 0.21857 0.0
H723 H 0.40438 0.73069 0.1961 0.0
H724 H 0.43118 0.72077 0.20543 0.0
H725 H 0.4115 0.72975 0.22942 0.0
H726 H 0.43893 0.74687 0.26019 0.0
H727 H 0.46532 0.71972 0.28454 0.0
H728 H 0.88059 0.49623 0.71679 0.0
H729 H 0.90334 0.5294 0.7414 0.0
H730 H 0.85637 0.59731 0.73308 0.0
H731 H 0.83356 0.5645 0.70883 0.0
H732 H 0.91952 0.58084 0.7211 0.0
H733 H 0.87243 0.60411 0.80873 0.0
H734 H 0.86721 0.57311 0.7884 0.0
H735 H 0.85718 0.60846 0.77985 0.0
C736 C 0.87489 0.51802 0.72071 0.0
C737 C 0.85527 0.52772 0.71073 0.0
C738 C 0.88793 0.53696 0.73472 0.0
C739 C 0.88144 0.56572 0.73932 0.0
C740 C 0.86153 0.57506 0.73024 0.0
H741 H 0.9312 0.73193 0.77939 0.0
H742 H 0.9099 0.68897 0.76936 0.0
C743 C 0.84857 0.55627 0.71616 0.0
C744 C 0.89625 0.58704 0.75105 0.0
H745 H 0.8997 0.63879 0.79791 0.0
C746 C 0.91541 0.59316 0.73818 0.0
C747 C 0.89077 0.60318 0.77323 0.0
C748 C 0.87087 0.59671 0.78851 0.0
C749 C 0.92873 0.61596 0.74611 0.0
C750 C 0.9229 0.63272 0.76782 0.0
C751 C 0.9041 0.62597 0.78123 0.0
C752 C 0.93553 0.65834 0.77598 0.0
C753 C 0.94836 0.62282 0.7304 0.0
C754 C 0.95687 0.65531 0.78366 0.0
C755 C 0.96915 0.67984 0.78929 0.0
C756 C 0.96027 0.7079 0.78754 0.0
C757 C 0.93861 0.71072 0.78085 0.0
C758 C 0.92638 0.68617 0.77515 0.0
H759 H 0.94799 0.61213 0.71126 0.0
H760 H 0.95002 0.64662 0.72756 0.0
H761 H 0.96272 0.61494 0.74072 0.0
H762 H 0.96413 0.63398 0.78491 0.0
H763 H 0.98571 0.67678 0.79458 0.0
H764 H 0.62284 0.12293 0.22844 0.0
H765 H 0.59487 0.1567 0.24263 0.0
H766 H 0.59895 0.20206 0.17033 0.0
H767 H 0.62708 0.16908 0.15629 0.0
H768 H 0.59691 0.23931 0.21007 0.0
H769 H 0.5331 0.15664 0.2189 0.0
H770 H 0.55629 0.1482 0.23767 0.0
H771 H 0.55823 0.14923 0.20321 0.0
C772 C 0.61786 0.14022 0.21566 0.0
C773 C 0.62712 0.14322 0.1912 0.0
C774 C 0.60174 0.15931 0.22368 0.0
C775 C 0.5945 0.18149 0.20729 0.0
C776 C 0.60416 0.18497 0.1832 0.0
H777 H 0.47748 0.28002 0.2434 0.0
H778 H 0.50411 0.25238 0.21848 0.0
C779 C 0.62027 0.16606 0.17524 0.0
C780 C 0.57713 0.20149 0.21528 0.0
H781 H 0.52567 0.20339 0.23688 0.0
C782 C 0.58127 0.23146 0.21571 0.0
C783 C 0.55656 0.19134 0.222 0.0
C784 C 0.55066 0.15962 0.22019 0.0
C785 C 0.56571 0.25142 0.22381 0.0
C786 C 0.54562 0.24108 0.23214 0.0
C787 C 0.54113 0.21126 0.2306 0.0
C788 C 0.52998 0.26033 0.24509 0.0
C789 C 0.57101 0.28339 0.22361 0.0
C790 C 0.53579 0.27407 0.26804 0.0
C791 C 0.52076 0.28967 0.28213 0.0
C792 C 0.49952 0.29178 0.27368 0.0
C793 C 0.49379 0.27894 0.2502 0.0
C794 C 0.50892 0.26306 0.23608 0.0
H795 H 0.58347 0.28841 0.20908 0.0
H796 H 0.55667 0.29681 0.21953 0.0
H797 H 0.57732 0.28972 0.24271 0.0
H798 H 0.55179 0.27178 0.27563 0.0
H799 H 0.52565 0.29936 0.30015 0.0
H800 H 0.63259 0.00071 0.77319 0.0
H801 H 0.61037 0.03629 0.75056 0.0
H802 H 0.6557 0.10367 0.76843 0.0
H803 H 0.67799 0.06846 0.79101 0.0
H804 H 0.59284 0.08694 0.77461 0.0
H805 H 0.64359 0.11564 0.69105 0.0
H806 H 0.64733 0.08266 0.70934 0.0
H807 H 0.65714 0.11669 0.72142 0.0
C808 C 0.63803 0.023 0.77194 0.0
C809 C 0.65709 0.0317 0.78398 0.0
C810 C 0.62528 0.0433 0.75904 0.0
C811 C 0.6315 0.07255 0.75759 0.0
C812 C 0.65078 0.08112 0.76893 0.0
H813 H 0.58056 0.23889 0.71595 0.0
H814 H 0.60239 0.19663 0.72669 0.0
C815 C 0.66344 0.06095 0.78199 0.0
C816 C 0.61711 0.09466 0.74617 0.0
H817 H 0.61453 0.1476 0.70031 0.0
C818 C 0.59741 0.09996 0.75814 0.0
C819 C 0.62321 0.1117 0.72481 0.0
C820 C 0.64389 0.10629 0.71072 0.0
C821 C 0.58401 0.12265 0.75 0.0
C822 C 0.59025 0.14004 0.72885 0.0
C823 C 0.60975 0.13426 0.71649 0.0
C824 C 0.57728 0.16527 0.72018 0.0
C825 C 0.56378 0.12859 0.76491 0.0
C826 C 0.55606 0.16166 0.71219 0.0
C827 C 0.54344 0.18584 0.70619 0.0
C828 C 0.55189 0.21412 0.70776 0.0
C829 C 0.57348 0.2175 0.71456 0.0
C830 C 0.58602 0.19333 0.72072 0.0
H831 H 0.56404 0.11817 0.78415 0.0
H832 H 0.56123 0.1523 0.76748 0.0
H833 H 0.54997 0.11968 0.75418 0.0
H834 H 0.54913 0.14016 0.711 0.0
H835 H 0.52695 0.18236 0.70081 0.0
H836 H 0.11842 0.35285 0.37106 0.0
H837 H 0.09577 0.31508 0.35277 0.0
H838 H 0.09596 0.35968 0.27995 0.0
H839 H 0.11848 0.39795 0.29821 0.0
H840 H 0.05509 0.34331 0.2973 0.0
H841 H 0.11219 0.25093 0.3016 0.0
H842 H 0.10849 0.27008 0.33136 0.0
H843 H 0.12054 0.28832 0.30452 0.0
C844 C 0.11383 0.35456 0.35107 0.0
C845 C 0.12029 0.37841 0.33605 0.0
C846 C 0.10095 0.33284 0.34064 0.0
C847 C 0.09439 0.33444 0.31497 0.0
C848 C 0.10094 0.35805 0.29982 0.0
H849 H 0.03902 0.21358 0.2118 0.0
H850 H 0.06181 0.24431 0.23819 0.0
C851 C 0.11385 0.37982 0.31024 0.0
C852 C 0.08002 0.31207 0.30419 0.0
H853 H 0.07675 0.23994 0.28934 0.0
C854 C 0.05976 0.32068 0.29562 0.0
C855 C 0.08625 0.28261 0.30204 0.0
C856 C 0.10811 0.27237 0.31015 0.0
C857 C 0.0456 0.30065 0.28463 0.0
C858 C 0.05179 0.27118 0.28254 0.0
C859 C 0.07197 0.2625 0.29136 0.0
C860 C 0.03856 0.24983 0.26855 0.0
C861 C 0.02445 0.31136 0.27446 0.0
C862 C 0.01815 0.24195 0.27733 0.0
C863 C 0.00501 0.22427 0.2622 0.0
C864 C 0.01215 0.21444 0.23812 0.0
C865 C 0.033 0.22113 0.23014 0.0
C866 C 0.04608 0.23859 0.24523 0.0
H867 H 0.02369 0.33547 0.27361 0.0
H868 H 0.02146 0.30257 0.25493 0.0
H869 H 0.01144 0.30368 0.28722 0.0
H870 H 0.0122 0.25013 0.29549 0.0
H871 H 0.98901 0.21942 0.2688 0.0
H872 H 0.37369 0.98273 0.76951 0.0
H873 H 0.39454 0.94505 0.74776 0.0
H874 H 0.35079 0.87973 0.77497 0.0
H875 H 0.32978 0.91715 0.79679 0.0
H876 H 0.41359 0.89631 0.77402 0.0
H877 H 0.3578 0.86168 0.69705 0.0
H878 H 0.3554 0.89622 0.71333 0.0
H879 H 0.34656 0.86351 0.7288 0.0
C880 C 0.36829 0.96041 0.77061 0.0
C881 C 0.35004 0.95301 0.78497 0.0
C882 C 0.38027 0.93892 0.75818 0.0
C883 C 0.37409 0.90968 0.75956 0.0
C884 C 0.35564 0.90224 0.77333 0.0
H885 H 0.4274 0.74412 0.71392 0.0
H886 H 0.40472 0.78434 0.72806 0.0
C887 C 0.34372 0.92368 0.78592 0.0
C888 C 0.38777 0.88671 0.74819 0.0
H889 H 0.38855 0.83236 0.70352 0.0
C890 C 0.40822 0.88246 0.75845 0.0
C891 C 0.3806 0.86859 0.72806 0.0
C892 C 0.35896 0.87276 0.71596 0.0
C893 C 0.42155 0.86007 0.74955 0.0
C894 C 0.41444 0.84192 0.72933 0.0
C895 C 0.39401 0.84633 0.71895 0.0
C896 C 0.4278 0.81781 0.71919 0.0
C897 C 0.44283 0.85547 0.76251 0.0
C898 C 0.44809 0.8233 0.70885 0.0
C899 C 0.46118 0.80034 0.70092 0.0
C900 C 0.45412 0.7714 0.70284 0.0
C901 C 0.4334 0.76609 0.7122 0.0
C902 C 0.42039 0.78907 0.72029 0.0
H903 H 0.44332 0.86578 0.7818 0.0
H904 H 0.44643 0.83197 0.76466 0.0
H905 H 0.45558 0.86544 0.75064 0.0
H906 H 0.45393 0.84536 0.70719 0.0
H907 H 0.47694 0.80529 0.69357 0.0
H908 H 0.85712 0.62219 0.25897 0.0
H909 H 0.88239 0.66099 0.2487 0.0
H910 H 0.93442 0.60716 0.27487 0.0
H911 H 0.9095 0.56811 0.28438 0.0
H912 H 0.90708 0.68848 0.28396 0.0
H913 H 0.95862 0.63884 0.20915 0.0
H914 H 0.93334 0.62332 0.21843 0.0
H915 H 0.95676 0.61713 0.23765 0.0
C916 C 0.874 0.61834 0.26188 0.0
C917 C 0.88128 0.5921 0.27257 0.0
C918 C 0.8884 0.64058 0.25615 0.0
C919 C 0.91028 0.63691 0.26095 0.0
C920 C 0.91767 0.61029 0.27056 0.0
H921 H 0.01833 0.75535 0.24814 0.0
H922 H 0.9946 0.71809 0.2662 0.0
C923 C 0.90334 0.588 0.27608 0.0
C924 C 0.92515 0.66161 0.25783 0.0
H925 H 0.97098 0.68283 0.22785 0.0
C926 C 0.92102 0.68728 0.27162 0.0
C927 C 0.94343 0.65987 0.24193 0.0
C928 C 0.94822 0.63341 0.22576 0.0
C929 C 0.93463 0.71134 0.26979 0.0
C930 C 0.95278 0.70959 0.25381 0.0
C931 C 0.95716 0.68382 0.2404 0.0
C932 C 0.96611 0.73518 0.24822 0.0
C933 C 0.92953 0.73852 0.28478 0.0
C934 C 0.95772 0.75743 0.23289 0.0
C935 C 0.97119 0.77839 0.22246 0.0
C936 C 0.99317 0.77756 0.22746 0.0
C937 C 0.00134 0.7567 0.24448 0.0
C938 C 0.98787 0.73536 0.2546 0.0
H939 H 0.91803 0.73423 0.30059 0.0
H940 H 0.94428 0.7481 0.293 0.0
H941 H 0.92232 0.75483 0.27169 0.0
H942 H 0.94103 0.75735 0.22746 0.0
H943 H 0.96465 0.79412 0.20913 0.0
H944 H 0.64535 0.00765 0.23824 0.0
H945 H 0.6272 0.97082 0.26454 0.0
H946 H 0.63015 0.9106 0.20104 0.0
H947 H 0.64938 0.94638 0.17562 0.0
H948 H 0.5917 0.94462 0.26229 0.0
H949 H 0.65236 0.8587 0.25429 0.0
H950 H 0.65736 0.89517 0.24326 0.0
H951 H 0.64437 0.86906 0.22262 0.0
C952 C 0.64227 0.9864 0.2301 0.0
C953 C 0.64909 0.97968 0.20508 0.0
C954 C 0.6319 0.96536 0.2451 0.0
C955 C 0.62786 0.93744 0.23515 0.0
C956 C 0.63391 0.93134 0.20972 0.0
H957 H 0.52675 0.8217 0.27787 0.0
H958 H 0.54907 0.86215 0.26414 0.0
C959 C 0.64474 0.95197 0.19506 0.0
C960 C 0.61656 0.91495 0.25066 0.0
H961 H 0.61642 0.84224 0.2636 0.0
C962 C 0.59732 0.92233 0.26294 0.0
C963 C 0.62408 0.88594 0.25244 0.0
C964 C 0.64581 0.87691 0.2427 0.0
C965 C 0.58489 0.9013 0.2756 0.0
C966 C 0.59128 0.87171 0.27484 0.0
C967 C 0.61111 0.86468 0.2638 0.0
C968 C 0.5774 0.84758 0.28427 0.0
C969 C 0.56521 0.9113 0.28983 0.0
C970 C 0.58594 0.82492 0.29926 0.0
C971 C 0.57336 0.80103 0.30621 0.0
C972 C 0.55184 0.79968 0.29883 0.0
C973 C 0.54319 0.82248 0.28425 0.0
C974 C 0.55593 0.84584 0.27661 0.0
H975 H 0.56736 0.93368 0.29743 0.0
H976 H 0.5515 0.91189 0.27639 0.0
H977 H 0.56129 0.8967 0.30613 0.0
H978 H 0.60246 0.8255 0.30536 0.0
H979 H 0.58042 0.78369 0.31742 0.0
H980 H 0.86512 0.34106 0.64482 0.0
H981 H 0.89088 0.30328 0.65564 0.0
H982 H 0.90063 0.34269 0.72986 0.0
H983 H 0.87508 0.38112 0.71899 0.0
H984 H 0.93838 0.33016 0.70376 0.0
H985 H 0.88428 0.23458 0.7044 0.0
H986 H 0.88348 0.2559 0.67554 0.0
H987 H 0.87449 0.27147 0.70531 0.0
C988 C 0.87254 0.34158 0.66359 0.0
C989 C 0.86804 0.36411 0.68109 0.0
C990 C 0.8872 0.31986 0.66975 0.0
C991 C 0.89748 0.32004 0.69362 0.0
C992 C 0.89279 0.34218 0.71133 0.0
H993 H 0.96628 0.20028 0.78165 0.0
H994 H 0.94014 0.22893 0.75816 0.0
C995 C 0.87814 0.36403 0.70515 0.0
C996 C 0.91381 0.29785 0.69973 0.0
H997 H 0.92111 0.2252 0.70957 0.0
C998 C 0.93467 0.30718 0.7049 0.0
C999 C 0.90886 0.26792 0.70108 0.0
C1000 C 0.88654 0.25679 0.69651 0.0
C1001 C 0.95064 0.28744 0.71213 0.0
C1002 C 0.94564 0.25753 0.71376 0.0
C1003 C 0.92492 0.24811 0.70789 0.0
C1004 C 0.96066 0.23655 0.7254 0.0
C1005 C 0.97242 0.2989 0.71922 0.0
C1006 C 0.98061 0.23037 0.71427 0.0
C1007 C 0.9957 0.21384 0.72776 0.0
C1008 C 0.99093 0.20355 0.75249 0.0
C1009 C 0.97045 0.20823 0.76272 0.0
C1010 C 0.95546 0.2245 0.74929 0.0
H1011 H 0.97264 0.32299 0.72064 0.0
H1012 H 0.9777 0.28969 0.73787 0.0
H1013 H 0.98415 0.29225 0.70434 0.0
H1014 H 0.98476 0.2392 0.69565 0.0
H1015 H 0.01139 0.21051 0.71949 0.0
H1016 H 0.46441 0.18612 0.31853 0.0
H1017 H 0.44296 0.14612 0.30154 0.0
H1018 H 0.38877 0.20341 0.29485 0.0
H1019 H 0.41001 0.24361 0.31161 0.0
H1020 H 0.40169 0.12112 0.31657 0.0
H1021 H 0.40108 0.17393 0.2206 0.0
H1022 H 0.41934 0.1845 0.2457 0.0
H1023 H 0.39204 0.19648 0.24663 0.0
C1024 C 0.44784 0.19019 0.31379 0.0
C1025 C 0.43903 0.21825 0.31615 0.0
C1026 C 0.43561 0.16725 0.30412 0.0
C1027 C 0.41442 0.17196 0.29659 0.0
C1028 C 0.40522 0.19947 0.30023 0.0
H1029 H 0.32111 0.07744 0.20906 0.0
H1030 H 0.3401 0.11138 0.23673 0.0
C1031 C 0.4174 0.22242 0.30988 0.0
C1032 C 0.40236 0.14877 0.28326 0.0
H1033 H 0.37991 0.13194 0.22551 0.0
C1034 C 0.39693 0.12337 0.29666 0.0
C1035 C 0.39636 0.15175 0.25723 0.0
C1036 C 0.40263 0.17799 0.24155 0.0
C1037 C 0.38505 0.10115 0.28484 0.0
C1038 C 0.37883 0.10434 0.25887 0.0
C1039 C 0.38455 0.12962 0.24547 0.0
C1040 C 0.36621 0.08205 0.24499 0.0
C1041 C 0.37884 0.07483 0.30037 0.0
C1042 C 0.37439 0.054 0.24078 0.0
C1043 C 0.36347 0.03437 0.225 0.0
C1044 C 0.34433 0.04262 0.21288 0.0
C1045 C 0.33587 0.07039 0.21791 0.0
C1046 C 0.3467 0.08985 0.23376 0.0
H1047 H 0.38005 0.079 0.32134 0.0
H1048 H 0.36228 0.06795 0.29587 0.0
H1049 H 0.38973 0.05658 0.29556 0.0
H1050 H 0.38963 0.04769 0.24884 0.0
H1051 H 0.37049 0.01322 0.22142 0.0
H1052 H 0.1488 0.6085 0.70094 0.0
H1053 H 0.12278 0.64204 0.682 0.0
H1054 H 0.08582 0.63898 0.75198 0.0
H1055 H 0.11054 0.60377 0.76984 0.0
H1056 H 0.06018 0.63903 0.71208 0.0
H1057 H 0.12082 0.72622 0.69859 0.0
H1058 H 0.12467 0.69323 0.68076 0.0
H1059 H 0.12705 0.69295 0.71517 0.0
C1060 C 0.13473 0.61421 0.71185 0.0
C1061 C 0.13152 0.60298 0.73667 0.0
C1062 C 0.12008 0.63389 0.70122 0.0
C1063 C 0.10241 0.6434 0.71564 0.0
C1064 C 0.09921 0.63192 0.74033 0.0
H1065 H 0.04482 0.78571 0.7626 0.0
H1066 H 0.06794 0.75079 0.74164 0.0
C1067 C 0.1135 0.61192 0.75065 0.0
C1068 C 0.08758 0.66638 0.70638 0.0
H1069 H 0.08509 0.73962 0.69656 0.0
C1070 C 0.06556 0.66099 0.70816 0.0
C1071 C 0.09466 0.69489 0.70077 0.0
C1072 C 0.11806 0.70237 0.69882 0.0
C1073 C 0.05063 0.68375 0.70792 0.0
C1074 C 0.0579 0.71265 0.70459 0.0
C1075 C 0.07961 0.71749 0.69933 0.0
C1076 C 0.04476 0.73788 0.71296 0.0
C1077 C 0.0276 0.67684 0.71399 0.0
C1078 C 0.02427 0.74356 0.70309 0.0
C1079 C 0.01071 0.76341 0.71556 0.0
C1080 C 0.01766 0.77794 0.73777 0.0
C1081 C 0.03886 0.77438 0.74583 0.0
C1082 C 0.05219 0.75451 0.73368 0.0
H1083 H 0.02524 0.65361 0.71903 0.0
H1084 H 0.02185 0.69031 0.7303 0.0
H1085 H 0.01755 0.68172 0.69701 0.0
H1086 H 0.01839 0.73164 0.68665 0.0
H1087 H 0.99447 0.76596 0.70881 0.0
H1088 H 0.16891 0.56562 0.60602 0.0
H1089 H 0.15521 0.56209 0.56257 0.0
H1090 H 0.09154 0.54935 0.592 0.0
H1091 H 0.10529 0.55325 0.63629 0.0
H1092 H 0.10806 0.50651 0.55413 0.0
H1093 H 0.11721 0.6198 0.52078 0.0
H1094 H 0.1399 0.60723 0.53866 0.0
H1095 H 0.11437 0.61032 0.55433 0.0
C1096 C 0.15195 0.56222 0.60341 0.0
C1097 C 0.13818 0.55953 0.62459 0.0
C1098 C 0.14412 0.56053 0.5785 0.0
C1099 C 0.12234 0.55599 0.5741 0.0
C1100 C 0.10838 0.55328 0.5951 0.0
H1101 H 0.09798 0.49297 0.41701 0.0
H1102 H 0.08759 0.5136 0.45857 0.0
C1103 C 0.11623 0.55541 0.62029 0.0
C1104 C 0.1152 0.55153 0.54735 0.0
H1105 H 0.1209 0.58229 0.48816 0.0
C1106 C 0.11006 0.52322 0.53964 0.0
C1107 C 0.11788 0.57344 0.52862 0.0
C1108 C 0.12244 0.60449 0.53602 0.0
C1109 C 0.10977 0.51554 0.51354 0.0
C1110 C 0.11435 0.53699 0.49481 0.0
C1111 C 0.11753 0.56586 0.50254 0.0
C1112 C 0.11925 0.52897 0.46789 0.0
C1113 C 0.10647 0.48407 0.50637 0.0
C1114 C 0.14021 0.53222 0.45879 0.0
C1115 C 0.14616 0.5207 0.43503 0.0
C1116 C 0.13124 0.50569 0.41994 0.0
C1117 C 0.10989 0.50421 0.4283 0.0
C1118 C 0.10393 0.51584 0.45209 0.0
H1119 H 0.10602 0.46963 0.52346 0.0
H1120 H 0.09111 0.48177 0.49601 0.0
H1121 H 0.11942 0.47651 0.4934 0.0
H1122 H 0.15226 0.54237 0.47068 0.0
H1123 H 0.1627 0.5223 0.42914 0.0
H1124 H 0.50273 0.75129 0.40181 0.0
H1125 H 0.49787 0.7404 0.4472 0.0
H1126 H 0.53368 0.66094 0.43811 0.0
H1127 H 0.53889 0.67189 0.39238 0.0
H1128 H 0.4768 0.69091 0.46613 0.0
H1129 H 0.56022 0.69894 0.50222 0.0
H1130 H 0.55225 0.71382 0.47162 0.0
H1131 H 0.55577 0.67533 0.47523 0.0
C1132 C 0.50989 0.73168 0.40947 0.0
C1133 C 0.52117 0.71241 0.39345 0.0
C1134 C 0.50699 0.72544 0.43542 0.0
C1135 C 0.51532 0.69983 0.44598 0.0
C1136 C 0.52728 0.68096 0.43035 0.0
H1137 H 0.47455 0.65078 0.60348 0.0
H1138 H 0.47985 0.64731 0.55671 0.0
C1139 C 0.5303 0.68729 0.40427 0.0
C1140 C 0.51063 0.69287 0.47317 0.0
H1141 H 0.53341 0.68894 0.5325 0.0
C1142 C 0.48917 0.69008 0.48066 0.0
C1143 C 0.52683 0.69181 0.49198 0.0
C1144 C 0.55007 0.6953 0.48504 0.0
C1145 C 0.4834 0.68757 0.50663 0.0
C1146 C 0.49957 0.68751 0.52549 0.0
C1147 C 0.52107 0.68893 0.51791 0.0
C1148 C 0.4946 0.68965 0.55323 0.0
C1149 C 0.46008 0.68662 0.51382 0.0
C1150 C 0.50081 0.71469 0.56653 0.0
C1151 C 0.49788 0.71666 0.59296 0.0
C1152 C 0.48867 0.6936 0.60677 0.0
C1153 C 0.48155 0.66896 0.59331 0.0
C1154 C 0.48461 0.66692 0.56666 0.0
H1155 H 0.44953 0.69089 0.49711 0.0
H1156 H 0.45618 0.66482 0.52159 0.0
H1157 H 0.45655 0.70288 0.52902 0.0
H1158 H 0.50835 0.73256 0.55649 0.0
H1159 H 0.50337 0.73606 0.60271 0.0
H1160 H 0.8228 0.49473 0.39089 0.0
H1161 H 0.82793 0.48842 0.43713 0.0
H1162 H 0.87247 0.55991 0.43761 0.0
H1163 H 0.86845 0.56496 0.39124 0.0
H1164 H 0.8856 0.52194 0.4693 0.0
H1165 H 0.79983 0.53874 0.48862 0.0
H1166 H 0.80359 0.50774 0.46831 0.0
H1167 H 0.81113 0.54336 0.45705 0.0
C1168 C 0.83389 0.50878 0.40086 0.0
C1169 C 0.84509 0.53046 0.38762 0.0
C1170 C 0.83664 0.50541 0.4273 0.0
C1171 C 0.84998 0.52442 0.44101 0.0
C1172 C 0.86193 0.54518 0.42752 0.0
H1173 H 0.82906 0.52344 0.60658 0.0
H1174 H 0.83338 0.5427 0.56307 0.0
C1175 C 0.85965 0.54799 0.40101 0.0
C1176 C 0.85118 0.52307 0.4694 0.0
H1177 H 0.82033 0.51858 0.52314 0.0
C1178 C 0.87133 0.52158 0.48112 0.0
C1179 C 0.83265 0.52377 0.48496 0.0
C1180 C 0.81063 0.52886 0.47408 0.0
C1181 C 0.87338 0.5193 0.50786 0.0
C1182 C 0.85476 0.51703 0.52315 0.0
C1183 C 0.83467 0.51993 0.51151 0.0
C1184 C 0.85546 0.50913 0.55075 0.0
C1185 C 0.8955 0.51961 0.51928 0.0
C1186 C 0.86693 0.48448 0.55862 0.0
C1187 C 0.86496 0.47406 0.58361 0.0
C1188 C 0.85087 0.48743 0.60095 0.0
C1189 C 0.83995 0.51268 0.5935 0.0
C1190 C 0.84241 0.52363 0.56866 0.0
H1191 H 0.90638 0.53345 0.5077 0.0
H1192 H 0.89544 0.52777 0.53935 0.0
H1193 H 0.90214 0.49723 0.51903 0.0
H1194 H 0.8765 0.47222 0.54508 0.0
H1195 H 0.87337 0.45431 0.58876 0.0
H1196 H 0.45625 0.34527 0.41158 0.0
H1197 H 0.46346 0.3549 0.45724 0.0
H1198 H 0.4959 0.27248 0.46328 0.0
H1199 H 0.48901 0.26286 0.41808 0.0
H1200 H 0.45418 0.32393 0.50273 0.0
H1201 H 0.54126 0.33099 0.48686 0.0
H1202 H 0.52221 0.33267 0.46089 0.0
H1203 H 0.53034 0.29812 0.47384 0.0
C1204 C 0.46459 0.32903 0.42281 0.0
C1205 C 0.4723 0.30347 0.41118 0.0
C1206 C 0.46884 0.33465 0.44878 0.0
C1207 C 0.48083 0.3148 0.46333 0.0
C1208 C 0.48723 0.28849 0.45215 0.0
H1209 H 0.49278 0.26662 0.61639 0.0
H1210 H 0.48501 0.27632 0.57152 0.0
C1211 C 0.48311 0.28294 0.42636 0.0
C1212 C 0.48688 0.32107 0.49024 0.0
H1213 H 0.52997 0.32044 0.53031 0.0
C1214 C 0.47075 0.32378 0.50874 0.0
C1215 C 0.50853 0.32161 0.498 0.0
C1216 C 0.52658 0.32102 0.4788 0.0
C1217 C 0.47568 0.32461 0.53501 0.0
C1218 C 0.49724 0.32212 0.54286 0.0
C1219 C 0.51344 0.32185 0.52428 0.0
C1220 C 0.50299 0.31637 0.56996 0.0
C1221 C 0.45769 0.32723 0.55417 0.0
C1222 C 0.51671 0.33487 0.58364 0.0
C1223 C 0.52144 0.3292 0.60949 0.0
C1224 C 0.51254 0.30489 0.62187 0.0
C1225 C 0.49965 0.2858 0.60761 0.0
C1226 C 0.49502 0.29141 0.58197 0.0
H1227 H 0.44376 0.33869 0.54571 0.0
H1228 H 0.45238 0.30516 0.55987 0.0
H1229 H 0.46283 0.33906 0.57169 0.0
H1230 H 0.52332 0.354 0.57451 0.0
H1231 H 0.53142 0.3443 0.61996 0.0
H1232 H 0.631 0.0683 0.08871 0.0
H1233 H 0.62884 0.05255 0.04408 0.0
H1234 H 0.66823 0.97809 0.06169 0.0
H1235 H 0.6715 0.99497 0.10606 0.0
H1236 H 0.68345 0.0031 0.02269 0.0
H1237 H 0.59694 0.99388 0.00516 0.0
H1238 H 0.60315 0.02949 0.01679 0.0
H1239 H 0.60767 0.99827 0.03703 0.0
C1240 C 0.63878 0.04822 0.08314 0.0
C1241 C 0.6515 0.03288 0.10068 0.0
C1242 C 0.63742 0.03909 0.05764 0.0
C1243 C 0.64812 0.01388 0.04948 0.0
C1244 C 0.65986 0.99766 0.06748 0.0
H1245 H 0.63645 0.94239 0.89611 0.0
H1246 H 0.63174 0.95527 0.94118 0.0
C1247 C 0.66173 0.00725 0.09281 0.0
C1248 C 0.64912 0.00633 0.0218 0.0
H1249 H 0.6191 0.99921 0.96753 0.0
C1250 C 0.66931 0.00184 0.01074 0.0
C1251 C 0.63072 0.00443 0.00614 0.0
C1252 C 0.60842 0.00646 0.017 0.0
C1253 C 0.67168 0.99583 0.98453 0.0
C1254 C 0.65341 0.99583 0.96857 0.0
C1255 C 0.63316 0.99986 0.97965 0.0
C1256 C 0.6549 0.99016 0.94059 0.0
C1257 C 0.69372 0.98874 0.97452 0.0
C1258 C 0.66889 0.00618 0.92495 0.0
C1259 C 0.67203 0.99834 0.89929 0.0
C1260 C 0.66063 0.97504 0.88868 0.0
C1261 C 0.64546 0.96048 0.90381 0.0
C1262 C 0.64275 0.96781 0.92959 0.0
H1263 H 0.70433 0.98073 0.99008 0.0
H1264 H 0.69312 0.97196 0.95921 0.0
H1265 H 0.70105 0.0087 0.96649 0.0
H1266 H 0.67783 0.02426 0.93275 0.0
H1267 H 0.68357 0.0102 0.88793 0.0
H1268 H 0.04069 0.15953 0.88904 0.0
H1269 H 0.03432 0.15303 0.93532 0.0
H1270 H 0.00469 0.23755 0.93883 0.0
H1271 H 0.01089 0.24422 0.89302 0.0
H1272 H 0.04501 0.18827 0.98005 0.0
H1273 H 0.95782 0.18016 0.9641 0.0
H1274 H 0.9771 0.17598 0.93852 0.0
H1275 H 0.96956 0.21164 0.94944 0.0
C1276 C 0.03326 0.17697 0.89982 0.0
C1277 C 0.02606 0.20224 0.88732 0.0
C1278 C 0.02949 0.17313 0.92617 0.0
C1279 C 0.01848 0.19448 0.94023 0.0
C1280 C 0.0127 0.22051 0.92814 0.0
H1281 H 0.00405 0.24439 0.09424 0.0
H1282 H 0.01118 0.23668 0.04881 0.0
C1283 C 0.0164 0.22434 0.90198 0.0
C1284 C 0.01236 0.18975 0.96737 0.0
H1285 H 0.96903 0.19029 0.00728 0.0
C1286 C 0.02842 0.1882 0.98602 0.0
C1287 C 0.99068 0.18912 0.97506 0.0
C1288 C 0.97278 0.18901 0.95572 0.0
C1289 C 0.02334 0.18799 0.01229 0.0
C1290 C 0.00169 0.18975 0.01998 0.0
C1291 C 0.98561 0.18931 0.00132 0.0
C1292 C 0.99567 0.19478 0.04713 0.0
C1293 C 0.04123 0.18663 0.03162 0.0
C1294 C 0.98349 0.17446 0.06093 0.0
C1295 C 0.97919 0.1789 0.0871 0.0
C1296 C 0.98699 0.20378 0.09969 0.0
C1297 C 0.99806 0.22478 0.08528 0.0
C1298 C 0.00229 0.22035 0.05931 0.0
H1299 H 0.05584 0.17673 0.0232 0.0
H1300 H 0.04527 0.20901 0.03788 0.0
H1301 H 0.03647 0.17394 0.04882 0.0
H1302 H 0.97797 0.15477 0.0517 0.0
H1303 H 0.97065 0.16232 0.09767 0.0
H1304 H 0.38099 0.03744 0.88608 0.0
H1305 H 0.38639 0.03192 0.93229 0.0
H1306 H 0.32347 0.99511 0.93979 0.0
H1307 H 0.31775 0.00082 0.89357 0.0
H1308 H 0.35545 0.05988 0.9694 0.0
H1309 H 0.36646 0.94065 0.98138 0.0
H1310 H 0.37215 0.95923 0.95157 0.0
H1311 H 0.34504 0.95202 0.96066 0.0
C1312 C 0.36844 0.02761 0.89743 0.0
C1313 C 0.34889 0.01966 0.88621 0.0
C1314 C 0.37156 0.02459 0.92382 0.0
C1315 C 0.35532 0.01317 0.93926 0.0
C1316 C 0.33621 0.00381 0.92801 0.0
H1317 H 0.31693 0.0189 0.0947 0.0
H1318 H 0.32343 0.03023 0.04954 0.0
C1319 C 0.33299 0.00706 0.90164 0.0
C1320 C 0.35759 0.0132 0.9674 0.0
H1321 H 0.36052 0.9683 0.01923 0.0
C1322 C 0.35681 0.03993 0.98037 0.0
C1323 C 0.35952 0.98714 0.98142 0.0
C1324 C 0.36101 0.95807 0.96815 0.0
C1325 C 0.35707 0.04115 0.00727 0.0
C1326 C 0.3581 0.01498 0.02133 0.0
C1327 C 0.35974 0.98834 0.0083 0.0
C1328 C 0.35594 0.01427 0.04952 0.0
C1329 C 0.35597 0.07027 0.02049 0.0
C1330 C 0.37231 0.00244 0.06454 0.0
C1331 C 0.36867 0.99601 0.09036 0.0
C1332 C 0.34848 0.00094 0.10138 0.0
C1333 C 0.33264 0.01485 0.08676 0.0
C1334 C 0.33634 0.02141 0.06096 0.0
H1335 H 0.36059 0.08825 0.00738 0.0
H1336 H 0.33936 0.07425 0.02705 0.0
H1337 H 0.36651 0.0707 0.03761 0.0
H1338 H 0.38751 0.99676 0.05595 0.0
H1339 H 0.38123 0.98541 0.10114 0.0
H1340 H 0.97504 0.83665 0.87714 0.0
H1341 H 0.97998 0.84451 0.92355 0.0
H1342 H 0.017 0.76563 0.92815 0.0
H1343 H 0.0124 0.7578 0.88236 0.0
H1344 H 0.97004 0.81009 0.96625 0.0
H1345 H 0.05724 0.82578 0.95923 0.0
H1346 H 0.03992 0.82729 0.93156 0.0
H1347 H 0.04904 0.79282 0.94374 0.0
C1348 C 0.98405 0.8209 0.88815 0.0
C1349 C 0.99357 0.79682 0.876 0.0
C1350 C 0.98697 0.8255 0.91458 0.0
C1351 C 0.99944 0.80612 0.92908 0.0
C1352 C 0.00794 0.78137 0.91718 0.0
H1353 H 0.00292 0.75282 0.08323 0.0
H1354 H 0.9982 0.76197 0.03755 0.0
C1355 C 0.00514 0.77684 0.89097 0.0
C1356 C 0.00349 0.81092 0.9568 0.0
H1357 H 0.04384 0.8111 0.00085 0.0
C1358 C 0.98615 0.81089 0.97383 0.0
C1359 C 0.02451 0.81262 0.96667 0.0
C1360 C 0.04372 0.81496 0.9493 0.0
C1361 C 0.98934 0.81033 0.0005 0.0
C1362 C 0.01041 0.80916 0.0103 0.0
C1363 C 0.02771 0.81143 0.99332 0.0
C1364 C 0.01471 0.80322 0.0378 0.0
C1365 C 0.97008 0.81037 0.01793 0.0
C1366 C 0.02674 0.82254 0.05284 0.0
C1367 C 0.02977 0.81715 0.07909 0.0
C1368 C 0.0208 0.79234 0.0906 0.0
C1369 C 0.00978 0.77235 0.07508 0.0
C1370 C 0.00689 0.77766 0.04898 0.0
H1371 H 0.95618 0.82098 0.00857 0.0
H1372 H 0.96555 0.78761 0.02233 0.0
H1373 H 0.97346 0.82175 0.03629 0.0
H1374 H 0.03321 0.84219 0.04445 0.0
H1375 H 0.0383 0.83297 0.09053 0.0
loop_
_geom_bond_atom_site_label_1
_geom_bond_atom_site_label_2
_geom_bond_distance
_geom_bond_site_symmetry_2
_ccdc_geom_bond_type
Mg0 O1 2.028 . S
Mg0 O7 1.986 . S
Mg0 O9 2.114 . S
Mg0 O10 2.251 . S
Mg0 O13 2.010 . S
O1 Mg0 2.028 . S
O1 C4 1.250 . S
O2 Mg3 2.028 . S
O2 C4 1.248 . S
Mg3 O2 2.028 . S
Mg3 O8 2.032 . S
Mg3 O10 2.079 . S
C4 O1 1.250 . S
C4 O2 1.248 . S
C5 O6 1.264 . S
C5 O13 1.249 . S
O6 C5 1.264 . S
O7 Mg0 1.986 . S
O7 C11 1.246 . S
O8 Mg3 2.032 . S
O8 C11 1.259 . S
O9 Mg0 2.114 . S
O9 C12 1.252 . S
O10 Mg0 2.251 . S
O10 Mg3 2.079 . S
O10 C12 1.273 . S
C11 O7 1.246 . S
C11 O8 1.259 . S
C12 O9 1.252 . S
C12 O10 1.273 . S
O13 Mg0 2.010 . S
O13 C5 1.249 . S
Mg14 O15 2.028 . S
Mg14 O21 1.986 . S
Mg14 O23 2.114 . S
Mg14 O24 2.251 . S
Mg14 O27 2.010 . S
O15 Mg14 2.028 . S
O15 C18 1.250 . S
O16 Mg17 2.028 . S
O16 C18 1.248 . S
Mg17 O16 2.028 . S
Mg17 O22 2.032 . S
Mg17 O24 2.079 . S
C18 O15 1.250 . S
C18 O16 1.248 . S
C19 O20 1.264 . S
C19 O27 1.249 . S
O20 C19 1.264 . S
O21 Mg14 1.986 . S
O21 C25 1.246 . S
O22 Mg17 2.032 . S
O22 C25 1.259 . S
O23 Mg14 2.114 . S
O23 C26 1.252 . S
O24 Mg14 2.251 . S
O24 Mg17 2.079 . S
O24 C26 1.273 . S
C25 O21 1.246 . S
C25 O22 1.259 . S
C26 O23 1.252 . S
C26 O24 1.273 . S
O27 Mg14 2.010 . S
O27 C19 1.249 . S
Mg28 O29 2.028 . S
Mg28 O35 1.986 . S
Mg28 O37 2.114 . S
Mg28 O38 2.251 . S
Mg28 O41 2.010 . S
O29 Mg28 2.028 . S
O29 C32 1.250 . S
O30 Mg31 2.028 . S
O30 C32 1.248 . S
Mg31 O30 2.028 . S
Mg31 O36 2.032 . S
Mg31 O38 2.079 . S
C32 O29 1.250 . S
C32 O30 1.248 . S
C33 O34 1.264 . S
C33 O41 1.249 . S
O34 C33 1.264 . S
O35 Mg28 1.986 . S
O35 C39 1.246 . S
O36 Mg31 2.032 . S
O36 C39 1.259 . S
O37 Mg28 2.114 . S
O37 C40 1.252 . S
O38 Mg28 2.251 . S
O38 Mg31 2.079 . S
O38 C40 1.273 . S
C39 O35 1.246 . S
C39 O36 1.259 . S
C40 O37 1.252 . S
C40 O38 1.273 . S
O41 Mg28 2.010 . S
O41 C33 1.249 . S
Mg42 O43 2.028 . S
Mg42 O49 1.986 . S
Mg42 O51 2.114 . S
Mg42 O52 2.251 . S
Mg42 O55 2.010 . S
O43 Mg42 2.028 . S
O43 C46 1.250 . S
O44 Mg45 2.028 . S
O44 C46 1.248 . S
Mg45 O44 2.028 . S
Mg45 O50 2.032 . S
Mg45 O52 2.079 . S
C46 O43 1.250 . S
C46 O44 1.248 . S
C47 O48 1.264 . S
C47 O55 1.249 . S
O48 C47 1.264 . S
O49 Mg42 1.986 . S
O49 C53 1.246 . S
O50 Mg45 2.032 . S
O50 C53 1.259 . S
O51 Mg42 2.114 . S
O51 C54 1.252 . S
O52 Mg42 2.251 . S
O52 Mg45 2.079 . S
O52 C54 1.273 . S
C53 O49 1.246 . S
C53 O50 1.259 . S
C54 O51 1.252 . S
C54 O52 1.273 . S
O55 Mg42 2.010 . S
O55 C47 1.249 . S
Mg56 O57 2.028 . S
Mg56 O63 1.986 . S
Mg56 O65 2.114 . S
Mg56 O66 2.251 . S
Mg56 O69 2.010 . S
O57 Mg56 2.028 . S
O57 C60 1.250 . S
O58 Mg59 2.028 . S
O58 C60 1.248 . S
Mg59 O58 2.028 . S
Mg59 O64 2.032 . S
Mg59 O66 2.079 . S
C60 O57 1.250 . S
C60 O58 1.248 . S
C61 O62 1.264 . S
C61 O69 1.249 . S
O62 C61 1.264 . S
O63 Mg56 1.986 . S
O63 C67 1.246 . S
O64 Mg59 2.032 . S
O64 C67 1.259 . S
O65 Mg56 2.114 . S
O65 C68 1.252 . S
O66 Mg56 2.251 . S
O66 Mg59 2.079 . S
O66 C68 1.273 . S
C67 O63 1.246 . S
C67 O64 1.259 . S
C68 O65 1.252 . S
C68 O66 1.273 . S
O69 Mg56 2.010 . S
O69 C61 1.249 . S
Mg70 O71 2.028 . S
Mg70 O77 1.986 . S
Mg70 O79 2.114 . S
Mg70 O80 2.251 . S
Mg70 O83 2.010 . S
O71 Mg70 2.028 . S
O71 C74 1.250 . S
O72 Mg73 2.028 . S
O72 C74 1.248 . S
Mg73 O72 2.028 . S
Mg73 O78 2.032 . S
Mg73 O80 2.079 . S
C74 O71 1.250 . S
C74 O72 1.248 . S
C75 O76 1.264 . S
C75 O83 1.249 . S
O76 C75 1.264 . S
O77 Mg70 1.986 . S
O77 C81 1.246 . S
O78 Mg73 2.032 . S
O78 C81 1.259 . S
O79 Mg70 2.114 . S
O79 C82 1.252 . S
O80 Mg70 2.251 . S
O80 Mg73 2.079 . S
O80 C82 1.273 . S
C81 O77 1.246 . S
C81 O78 1.259 . S
C82 O79 1.252 . S
C82 O80 1.273 . S
O83 Mg70 2.010 . S
O83 C75 1.249 . S
Mg84 O85 2.028 . S
Mg84 O91 1.986 . S
Mg84 O93 2.114 . S
Mg84 O94 2.251 . S
Mg84 O97 2.010 . S
O85 Mg84 2.028 . S
O85 C88 1.250 . S
O86 Mg87 2.028 . S
O86 C88 1.248 . S
Mg87 O86 2.028 . S
Mg87 O92 2.032 . S
Mg87 O94 2.079 . S
C88 O85 1.250 . S
C88 O86 1.248 . S
C89 O90 1.264 . S
C89 O97 1.249 . S
O90 C89 1.264 . S
O91 Mg84 1.986 . S
O91 C95 1.246 . S
O92 Mg87 2.032 . S
O92 C95 1.259 . S
O93 Mg84 2.114 . S
O93 C96 1.252 . S
O94 Mg84 2.251 . S
O94 Mg87 2.079 . S
O94 C96 1.273 . S
C95 O91 1.246 . S
C95 O92 1.259 . S
C96 O93 1.252 . S
C96 O94 1.273 . S
O97 Mg84 2.010 . S
O97 C89 1.249 . S
Mg98 O99 2.028 . S
Mg98 O105 1.986 . S
Mg98 O107 2.114 . S
Mg98 O108 2.251 . S
Mg98 O111 2.010 . S
O99 Mg98 2.028 . S
O99 C102 1.250 . S
O100 Mg101 2.028 . S
O100 C102 1.248 . S
Mg101 O100 2.028 . S
Mg101 O106 2.032 . S
Mg101 O108 2.079 . S
C102 O99 1.250 . S
C102 O100 1.248 . S
C103 O104 1.264 . S
C103 O111 1.249 . S
O104 C103 1.264 . S
O105 Mg98 1.986 . S
O105 C109 1.246 . S
O106 Mg101 2.032 . S
O106 C109 1.259 . S
O107 Mg98 2.114 . S
O107 C110 1.252 . S
O108 Mg98 2.251 . S
O108 Mg101 2.079 . S
O108 C110 1.273 . S
C109 O105 1.246 . S
C109 O106 1.259 . S
C110 O107 1.252 . S
C110 O108 1.273 . S
O111 Mg98 2.010 . S
O111 C103 1.249 . S
Mg112 O113 2.028 . S
Mg112 O119 1.986 . S
Mg112 O121 2.114 . S
Mg112 O122 2.251 . S
Mg112 O125 2.010 . S
O113 Mg112 2.028 . S
O113 C116 1.250 . S
O114 Mg115 2.028 . S
O114 C116 1.248 . S
Mg115 O114 2.028 . S
Mg115 O120 2.032 . S
Mg115 O122 2.079 . S
C116 O113 1.250 . S
C116 O114 1.248 . S
C117 O118 1.264 . S
C117 O125 1.249 . S
O118 C117 1.264 . S
O119 Mg112 1.986 . S
O119 C123 1.246 . S
O120 Mg115 2.032 . S
O120 C123 1.259 . S
O121 Mg112 2.114 . S
O121 C124 1.252 . S
O122 Mg112 2.251 . S
O122 Mg115 2.079 . S
O122 C124 1.273 . S
C123 O119 1.246 . S
C123 O120 1.259 . S
C124 O121 1.252 . S
C124 O122 1.273 . S
O125 Mg112 2.010 . S
O125 C117 1.249 . S
Mg126 O127 2.028 . S
Mg126 O133 1.986 . S
Mg126 O135 2.114 . S
Mg126 O136 2.251 . S
Mg126 O139 2.010 . S
O127 Mg126 2.028 . S
O127 C130 1.250 . S
O128 Mg129 2.028 . S
O128 C130 1.248 . S
Mg129 O128 2.028 . S
Mg129 O134 2.032 . S
Mg129 O136 2.079 . S
C130 O127 1.250 . S
C130 O128 1.248 . S
C131 O132 1.264 . S
C131 O139 1.249 . S
O132 C131 1.264 . S
O133 Mg126 1.986 . S
O133 C137 1.246 . S
O134 Mg129 2.032 . S
O134 C137 1.259 . S
O135 Mg126 2.114 . S
O135 C138 1.252 . S
O136 Mg126 2.251 . S
O136 Mg129 2.079 . S
O136 C138 1.273 . S
C137 O133 1.246 . S
C137 O134 1.259 . S
C138 O135 1.252 . S
C138 O136 1.273 . S
O139 Mg126 2.010 . S
O139 C131 1.249 . S
Mg140 O141 2.028 . S
Mg140 O147 1.986 . S
Mg140 O149 2.114 . S
Mg140 O150 2.251 . S
Mg140 O153 2.010 . S
O141 Mg140 2.028 . S
O141 C144 1.250 . S
O142 Mg143 2.028 . S
O142 C144 1.248 . S
Mg143 O142 2.028 . S
Mg143 O148 2.032 . S
Mg143 O150 2.079 . S
C144 O141 1.250 . S
C144 O142 1.248 . S
C145 O146 1.264 . S
C145 O153 1.249 . S
O146 C145 1.264 . S
O147 Mg140 1.986 . S
O147 C151 1.246 . S
O148 Mg143 2.032 . S
O148 C151 1.259 . S
O149 Mg140 2.114 . S
O149 C152 1.252 . S
O150 Mg140 2.251 . S
O150 Mg143 2.079 . S
O150 C152 1.273 . S
C151 O147 1.246 . S
C151 O148 1.259 . S
C152 O149 1.252 . S
C152 O150 1.273 . S
O153 Mg140 2.010 . S
O153 C145 1.249 . S
Mg154 O155 2.028 . S
Mg154 O161 1.986 . S
Mg154 O163 2.114 . S
Mg154 O164 2.251 . S
Mg154 O167 2.010 . S
O155 Mg154 2.028 . S
O155 C158 1.250 . S
O156 Mg157 2.028 . S
O156 C158 1.248 . S
Mg157 O156 2.028 . S
Mg157 O162 2.032 . S
Mg157 O164 2.079 . S
C158 O155 1.250 . S
C158 O156 1.248 . S
C159 O160 1.264 . S
C159 O167 1.249 . S
O160 C159 1.264 . S
O161 Mg154 1.986 . S
O161 C165 1.246 . S
O162 Mg157 2.032 . S
O162 C165 1.259 . S
O163 Mg154 2.114 . S
O163 C166 1.252 . S
O164 Mg154 2.251 . S
O164 Mg157 2.079 . S
O164 C166 1.273 . S
C165 O161 1.246 . S
C165 O162 1.259 . S
C166 O163 1.252 . S
C166 O164 1.273 . S
O167 Mg154 2.010 . S
O167 C159 1.249 . S
Mg168 O169 2.028 . S
Mg168 O175 1.986 . S
Mg168 O177 2.114 . S
Mg168 O178 2.251 . S
Mg168 O181 2.010 . S
O169 Mg168 2.028 . S
O169 C172 1.250 . S
O170 Mg171 2.028 . S
O170 C172 1.248 . S
Mg171 O170 2.028 . S
Mg171 O176 2.032 . S
Mg171 O178 2.079 . S
C172 O169 1.250 . S
C172 O170 1.248 . S
C173 O174 1.264 . S
C173 O181 1.249 . S
O174 C173 1.264 . S
O175 Mg168 1.986 . S
O175 C179 1.246 . S
O176 Mg171 2.032 . S
O176 C179 1.259 . S
O177 Mg168 2.114 . S
O177 C180 1.252 . S
O178 Mg168 2.251 . S
O178 Mg171 2.079 . S
O178 C180 1.273 . S
C179 O175 1.246 . S
C179 O176 1.259 . S
C180 O177 1.252 . S
C180 O178 1.273 . S
O181 Mg168 2.010 . S
O181 C173 1.249 . S
Mg182 O183 2.028 . S
Mg182 O189 1.986 . S
Mg182 O191 2.114 . S
Mg182 O192 2.251 . S
Mg182 O195 2.010 . S
O183 Mg182 2.028 . S
O183 C186 1.250 . S
O184 Mg185 2.028 . S
O184 C186 1.248 . S
Mg185 O184 2.028 . S
Mg185 O190 2.032 . S
Mg185 O192 2.079 . S
C186 O183 1.250 . S
C186 O184 1.248 . S
C187 O188 1.264 . S
C187 O195 1.249 . S
O188 C187 1.264 . S
O189 Mg182 1.986 . S
O189 C193 1.246 . S
O190 Mg185 2.032 . S
O190 C193 1.259 . S
O191 Mg182 2.114 . S
O191 C194 1.252 . S
O192 Mg182 2.251 . S
O192 Mg185 2.079 . S
O192 C194 1.273 . S
C193 O189 1.246 . S
C193 O190 1.259 . S
C194 O191 1.252 . S
C194 O192 1.273 . S
O195 Mg182 2.010 . S
O195 C187 1.249 . S
Mg196 O197 2.028 . S
Mg196 O203 1.986 . S
Mg196 O205 2.114 . S
Mg196 O206 2.251 . S
Mg196 O209 2.010 . S
O197 Mg196 2.028 . S
O197 C200 1.250 . S
O198 Mg199 2.028 . S
O198 C200 1.248 . S
Mg199 O198 2.028 . S
Mg199 O204 2.032 . S
Mg199 O206 2.079 . S
C200 O197 1.250 . S
C200 O198 1.248 . S
C201 O202 1.264 . S
C201 O209 1.249 . S
O202 C201 1.264 . S
O203 Mg196 1.986 . S
O203 C207 1.246 . S
O204 Mg199 2.032 . S
O204 C207 1.259 . S
O205 Mg196 2.114 . S
O205 C208 1.252 . S
O206 Mg196 2.251 . S
O206 Mg199 2.079 . S
O206 C208 1.273 . S
C207 O203 1.246 . S
C207 O204 1.259 . S
C208 O205 1.252 . S
C208 O206 1.273 . S
O209 Mg196 2.010 . S
O209 C201 1.249 . S
Mg210 O211 2.028 . S
Mg210 O217 1.986 . S
Mg210 O219 2.114 . S
Mg210 O220 2.251 . S
Mg210 O223 2.010 . S
O211 Mg210 2.028 . S
O211 C214 1.250 . S
O212 Mg213 2.028 . S
O212 C214 1.248 . S
Mg213 O212 2.028 . S
Mg213 O218 2.032 . S
Mg213 O220 2.079 . S
C214 O211 1.250 . S
C214 O212 1.248 . S
C215 O216 1.264 . S
C215 O223 1.249 . S
O216 C215 1.264 . S
O217 Mg210 1.986 . S
O217 C221 1.246 . S
O218 Mg213 2.032 . S
O218 C221 1.259 . S
O219 Mg210 2.114 . S
O219 C222 1.252 . S
O220 Mg210 2.251 . S
O220 Mg213 2.079 . S
O220 C222 1.273 . S
C221 O217 1.246 . S
C221 O218 1.259 . S
C222 O219 1.252 . S
C222 O220 1.273 . S
O223 Mg210 2.010 . S
O223 C215 1.249 . S
H224 C232 0.929 . S
H225 C234 0.930 . S
H226 C236 0.930 . S
H227 C239 0.929 . S
H228 C242 0.930 . S
H229 C244 0.960 . S
H230 C244 0.960 . S
H231 C244 0.960 . S
C232 H224 0.929 . S
C232 C233 1.377 . S
C232 C234 1.384 . S
C233 C232 1.377 . S
C233 C239 1.390 . S
C234 H225 0.930 . S
C234 C232 1.384 . S
C234 C235 1.372 . S
C235 C234 1.372 . S
C235 C236 1.400 . S
C235 C240 1.490 . S
C236 H226 0.930 . S
C236 C235 1.400 . S
C236 C239 1.386 . S
H237 C253 0.930 . S
H238 C254 0.931 . S
C239 H227 0.929 . S
C239 C233 1.390 . S
C239 C236 1.386 . S
C240 C235 1.490 . S
C240 C242 1.395 . S
C240 C243 1.403 . S
H241 C247 0.930 . S
C242 H228 0.930 . S
C242 C240 1.395 . S
C242 C245 1.403 . S
C243 C240 1.403 . S
C243 C244 1.524 . S
C243 C247 1.400 . S
C244 H229 0.960 . S
C244 H230 0.960 . S
C244 H231 0.960 . S
C244 C243 1.524 . S
C245 C242 1.403 . S
C245 C246 1.392 . S
C245 C249 1.495 . S
C246 C245 1.392 . S
C246 C247 1.385 . S
C246 C248 1.478 . S
C247 H241 0.930 . S
C247 C243 1.400 . S
C247 C246 1.385 . S
C248 C246 1.478 . S
C248 C250 1.381 . S
C248 C254 1.383 . S
C249 C245 1.495 . S
C249 H255 0.959 . S
C249 H256 0.961 . S
C249 H257 0.960 . S
C250 C248 1.381 . S
C250 C251 1.394 . S
C250 H258 0.930 . S
C251 C250 1.394 . S
C251 C252 1.383 . S
C251 H259 0.929 . S
C252 C251 1.383 . S
C252 C253 1.377 . S
C253 H237 0.930 . S
C253 C252 1.377 . S
C253 C254 1.379 . S
C254 H238 0.931 . S
C254 C248 1.383 . S
C254 C253 1.379 . S
H255 C249 0.959 . S
H256 C249 0.961 . S
H257 C249 0.960 . S
H258 C250 0.930 . S
H259 C251 0.929 . S
H260 C268 0.929 . S
H261 C270 0.930 . S
H262 C272 0.930 . S
H263 C275 0.929 . S
H264 C278 0.930 . S
H265 C280 0.960 . S
H266 C280 0.960 . S
H267 C280 0.960 . S
C268 H260 0.929 . S
C268 C269 1.377 . S
C268 C270 1.384 . S
C269 C268 1.377 . S
C269 C275 1.390 . S
C270 H261 0.930 . S
C270 C268 1.384 . S
C270 C271 1.372 . S
C271 C270 1.372 . S
C271 C272 1.400 . S
C271 C276 1.490 . S
C272 H262 0.930 . S
C272 C271 1.400 . S
C272 C275 1.386 . S
H273 C289 0.930 . S
H274 C290 0.931 . S
C275 H263 0.929 . S
C275 C269 1.390 . S
C275 C272 1.386 . S
C276 C271 1.490 . S
C276 C278 1.395 . S
C276 C279 1.403 . S
H277 C283 0.930 . S
C278 H264 0.930 . S
C278 C276 1.395 . S
C278 C281 1.403 . S
C279 C276 1.403 . S
C279 C280 1.524 . S
C279 C283 1.400 . S
C280 H265 0.960 . S
C280 H266 0.960 . S
C280 H267 0.960 . S
C280 C279 1.524 . S
C281 C278 1.403 . S
C281 C282 1.392 . S
C281 C285 1.495 . S
C282 C281 1.392 . S
C282 C283 1.385 . S
C282 C284 1.478 . S
C283 H277 0.930 . S
C283 C279 1.400 . S
C283 C282 1.385 . S
C284 C282 1.478 . S
C284 C286 1.381 . S
C284 C290 1.383 . S
C285 C281 1.495 . S
C285 H291 0.959 . S
C285 H292 0.961 . S
C285 H293 0.960 . S
C286 C284 1.381 . S
C286 C287 1.394 . S
C286 H294 0.930 . S
C287 C286 1.394 . S
C287 C288 1.383 . S
C287 H295 0.929 . S
C288 C287 1.383 . S
C288 C289 1.377 . S
C289 H273 0.930 . S
C289 C288 1.377 . S
C289 C290 1.379 . S
C290 H274 0.931 . S
C290 C284 1.383 . S
C290 C289 1.379 . S
H291 C285 0.959 . S
H292 C285 0.961 . S
H293 C285 0.960 . S
H294 C286 0.930 . S
H295 C287 0.929 . S
H296 C304 0.929 . S
H297 C306 0.930 . S
H298 C308 0.930 . S
H299 C311 0.929 . S
H300 C314 0.930 . S
H301 C316 0.960 . S
H302 C316 0.960 . S
H303 C316 0.960 . S
C304 H296 0.929 . S
C304 C305 1.377 . S
C304 C306 1.384 . S
C305 C304 1.377 . S
C305 C311 1.390 . S
C306 H297 0.930 . S
C306 C304 1.384 . S
C306 C307 1.372 . S
C307 C306 1.372 . S
C307 C308 1.400 . S
C307 C312 1.490 . S
C308 H298 0.930 . S
C308 C307 1.400 . S
C308 C311 1.386 . S
H309 C325 0.930 . S
H310 C326 0.931 . S
C311 H299 0.929 . S
C311 C305 1.390 . S
C311 C308 1.386 . S
C312 C307 1.490 . S
C312 C314 1.395 . S
C312 C315 1.403 . S
H313 C319 0.930 . S
C314 H300 0.930 . S
C314 C312 1.395 . S
C314 C317 1.403 . S
C315 C312 1.403 . S
C315 C316 1.524 . S
C315 C319 1.400 . S
C316 H301 0.960 . S
C316 H302 0.960 . S
C316 H303 0.960 . S
C316 C315 1.524 . S
C317 C314 1.403 . S
C317 C318 1.392 . S
C317 C321 1.495 . S
C318 C317 1.392 . S
C318 C319 1.385 . S
C318 C320 1.478 . S
C319 H313 0.930 . S
C319 C315 1.400 . S
C319 C318 1.385 . S
C320 C318 1.478 . S
C320 C322 1.381 . S
C320 C326 1.383 . S
C321 C317 1.495 . S
C321 H327 0.959 . S
C321 H328 0.961 . S
C321 H329 0.960 . S
C322 C320 1.381 . S
C322 C323 1.394 . S
C322 H330 0.930 . S
C323 C322 1.394 . S
C323 C324 1.383 . S
C323 H331 0.929 . S
C324 C323 1.383 . S
C324 C325 1.377 . S
C325 H309 0.930 . S
C325 C324 1.377 . S
C325 C326 1.379 . S
C326 H310 0.931 . S
C326 C320 1.383 . S
C326 C325 1.379 . S
H327 C321 0.959 . S
H328 C321 0.961 . S
H329 C321 0.960 . S
H330 C322 0.930 . S
H331 C323 0.929 . S
H332 C340 0.929 . S
H333 C342 0.930 . S
H334 C344 0.930 . S
H335 C347 0.929 . S
H336 C350 0.930 . S
H337 C352 0.960 . S
H338 C352 0.960 . S
H339 C352 0.960 . S
C340 H332 0.929 . S
C340 C341 1.377 . S
C340 C342 1.384 . S
C341 C340 1.377 . S
C341 C347 1.390 . S
C342 H333 0.930 . S
C342 C340 1.384 . S
C342 C343 1.372 . S
C343 C342 1.372 . S
C343 C344 1.400 . S
C343 C348 1.490 . S
C344 H334 0.930 . S
C344 C343 1.400 . S
C344 C347 1.386 . S
H345 C361 0.930 . S
H346 C362 0.931 . S
C347 H335 0.929 . S
C347 C341 1.390 . S
C347 C344 1.386 . S
C348 C343 1.490 . S
C348 C350 1.395 . S
C348 C351 1.403 . S
H349 C355 0.930 . S
C350 H336 0.930 . S
C350 C348 1.395 . S
C350 C353 1.403 . S
C351 C348 1.403 . S
C351 C352 1.524 . S
C351 C355 1.400 . S
C352 H337 0.960 . S
C352 H338 0.960 . S
C352 H339 0.960 . S
C352 C351 1.524 . S
C353 C350 1.403 . S
C353 C354 1.392 . S
C353 C357 1.495 . S
C354 C353 1.392 . S
C354 C355 1.385 . S
C354 C356 1.478 . S
C355 H349 0.930 . S
C355 C351 1.400 . S
C355 C354 1.385 . S
C356 C354 1.478 . S
C356 C358 1.381 . S
C356 C362 1.383 . S
C357 C353 1.495 . S
C357 H363 0.959 . S
C357 H364 0.961 . S
C357 H365 0.960 . S
C358 C356 1.381 . S
C358 C359 1.394 . S
C358 H366 0.930 . S
C359 C358 1.394 . S
C359 C360 1.383 . S
C359 H367 0.929 . S
C360 C359 1.383 . S
C360 C361 1.377 . S
C361 H345 0.930 . S
C361 C360 1.377 . S
C361 C362 1.379 . S
C362 H346 0.931 . S
C362 C356 1.383 . S
C362 C361 1.379 . S
H363 C357 0.959 . S
H364 C357 0.961 . S
H365 C357 0.960 . S
H366 C358 0.930 . S
H367 C359 0.929 . S
H368 C376 0.929 . S
H369 C378 0.930 . S
H370 C380 0.930 . S
H371 C383 0.929 . S
H372 C386 0.930 . S
H373 C388 0.960 . S
H374 C388 0.960 . S
H375 C388 0.960 . S
C376 H368 0.929 . S
C376 C377 1.377 . S
C376 C378 1.384 . S
C377 C376 1.377 . S
C377 C383 1.390 . S
C378 H369 0.930 . S
C378 C376 1.384 . S
C378 C379 1.372 . S
C379 C378 1.372 . S
C379 C380 1.400 . S
C379 C384 1.490 . S
C380 H370 0.930 . S
C380 C379 1.400 . S
C380 C383 1.386 . S
H381 C397 0.930 . S
H382 C398 0.931 . S
C383 H371 0.929 . S
C383 C377 1.390 . S
C383 C380 1.386 . S
C384 C379 1.490 . S
C384 C386 1.395 . S
C384 C387 1.403 . S
H385 C391 0.930 . S
C386 H372 0.930 . S
C386 C384 1.395 . S
C386 C389 1.403 . S
C387 C384 1.403 . S
C387 C388 1.524 . S
C387 C391 1.400 . S
C388 H373 0.960 . S
C388 H374 0.960 . S
C388 H375 0.960 . S
C388 C387 1.524 . S
C389 C386 1.403 . S
C389 C390 1.392 . S
C389 C393 1.495 . S
C390 C389 1.392 . S
C390 C391 1.385 . S
C390 C392 1.478 . S
C391 H385 0.930 . S
C391 C387 1.400 . S
C391 C390 1.385 . S
C392 C390 1.478 . S
C392 C394 1.381 . S
C392 C398 1.383 . S
C393 C389 1.495 . S
C393 H399 0.959 . S
C393 H400 0.961 . S
C393 H401 0.960 . S
C394 C392 1.381 . S
C394 C395 1.394 . S
C394 H402 0.930 . S
C395 C394 1.394 . S
C395 C396 1.383 . S
C395 H403 0.929 . S
C396 C395 1.383 . S
C396 C397 1.377 . S
C397 H381 0.930 . S
C397 C396 1.377 . S
C397 C398 1.379 . S
C398 H382 0.931 . S
C398 C392 1.383 . S
C398 C397 1.379 . S
H399 C393 0.959 . S
H400 C393 0.961 . S
H401 C393 0.960 . S
H402 C394 0.930 . S
H403 C395 0.929 . S
H404 C412 0.929 . S
H405 C414 0.930 . S
H406 C416 0.930 . S
H407 C419 0.929 . S
H408 C422 0.930 . S
H409 C424 0.960 . S
H410 C424 0.960 . S
H411 C424 0.960 . S
C412 H404 0.929 . S
C412 C413 1.377 . S
C412 C414 1.384 . S
C413 C412 1.377 . S
C413 C419 1.390 . S
C414 H405 0.930 . S
C414 C412 1.384 . S
C414 C415 1.372 . S
C415 C414 1.372 . S
C415 C416 1.400 . S
C415 C420 1.490 . S
C416 H406 0.930 . S
C416 C415 1.400 . S
C416 C419 1.386 . S
H417 C433 0.930 . S
H418 C434 0.931 . S
C419 H407 0.929 . S
C419 C413 1.390 . S
C419 C416 1.386 . S
C420 C415 1.490 . S
C420 C422 1.395 . S
C420 C423 1.403 . S
H421 C427 0.930 . S
C422 H408 0.930 . S
C422 C420 1.395 . S
C422 C425 1.403 . S
C423 C420 1.403 . S
C423 C424 1.524 . S
C423 C427 1.400 . S
C424 H409 0.960 . S
C424 H410 0.960 . S
C424 H411 0.960 . S
C424 C423 1.524 . S
C425 C422 1.403 . S
C425 C426 1.392 . S
C425 C429 1.495 . S
C426 C425 1.392 . S
C426 C427 1.385 . S
C426 C428 1.478 . S
C427 H421 0.930 . S
C427 C423 1.400 . S
C427 C426 1.385 . S
C428 C426 1.478 . S
C428 C430 1.381 . S
C428 C434 1.383 . S
C429 C425 1.495 . S
C429 H435 0.959 . S
C429 H436 0.961 . S
C429 H437 0.960 . S
C430 C428 1.381 . S
C430 C431 1.394 . S
C430 H438 0.930 . S
C431 C430 1.394 . S
C431 C432 1.383 . S
C431 H439 0.929 . S
C432 C431 1.383 . S
C432 C433 1.377 . S
C433 H417 0.930 . S
C433 C432 1.377 . S
C433 C434 1.379 . S
C434 H418 0.931 . S
C434 C428 1.383 . S
C434 C433 1.379 . S
H435 C429 0.959 . S
H436 C429 0.961 . S
H437 C429 0.960 . S
H438 C430 0.930 . S
H439 C431 0.929 . S
H440 C448 0.929 . S
H441 C450 0.930 . S
H442 C452 0.930 . S
H443 C455 0.929 . S
H444 C458 0.930 . S
H445 C460 0.960 . S
H446 C460 0.960 . S
H447 C460 0.960 . S
C448 H440 0.929 . S
C448 C449 1.377 . S
C448 C450 1.384 . S
C449 C448 1.377 . S
C449 C455 1.390 . S
C450 H441 0.930 . S
C450 C448 1.384 . S
C450 C451 1.372 . S
C451 C450 1.372 . S
C451 C452 1.400 . S
C451 C456 1.490 . S
C452 H442 0.930 . S
C452 C451 1.400 . S
C452 C455 1.386 . S
H453 C469 0.930 . S
H454 C470 0.931 . S
C455 H443 0.929 . S
C455 C449 1.390 . S
C455 C452 1.386 . S
C456 C451 1.490 . S
C456 C458 1.395 . S
C456 C459 1.403 . S
H457 C463 0.930 . S
C458 H444 0.930 . S
C458 C456 1.395 . S
C458 C461 1.403 . S
C459 C456 1.403 . S
C459 C460 1.524 . S
C459 C463 1.400 . S
C460 H445 0.960 . S
C460 H446 0.960 . S
C460 H447 0.960 . S
C460 C459 1.524 . S
C461 C458 1.403 . S
C461 C462 1.392 . S
C461 C465 1.495 . S
C462 C461 1.392 . S
C462 C463 1.385 . S
C462 C464 1.478 . S
C463 H457 0.930 . S
C463 C459 1.400 . S
C463 C462 1.385 . S
C464 C462 1.478 . S
C464 C466 1.381 . S
C464 C470 1.383 . S
C465 C461 1.495 . S
C465 H471 0.959 . S
C465 H472 0.961 . S
C465 H473 0.960 . S
C466 C464 1.381 . S
C466 C467 1.394 . S
C466 H474 0.930 . S
C467 C466 1.394 . S
C467 C468 1.383 . S
C467 H475 0.929 . S
C468 C467 1.383 . S
C468 C469 1.377 . S
C469 H453 0.930 . S
C469 C468 1.377 . S
C469 C470 1.379 . S
C470 H454 0.931 . S
C470 C464 1.383 . S
C470 C469 1.379 . S
H471 C465 0.959 . S
H472 C465 0.961 . S
H473 C465 0.960 . S
H474 C466 0.930 . S
H475 C467 0.929 . S
H476 C484 0.929 . S
H477 C486 0.930 . S
H478 C488 0.930 . S
H479 C491 0.929 . S
H480 C494 0.930 . S
H481 C496 0.960 . S
H482 C496 0.960 . S
H483 C496 0.960 . S
C484 H476 0.929 . S
C484 C485 1.377 . S
C484 C486 1.384 . S
C485 C484 1.377 . S
C485 C491 1.390 . S
C486 H477 0.930 . S
C486 C484 1.384 . S
C486 C487 1.372 . S
C487 C486 1.372 . S
C487 C488 1.400 . S
C487 C492 1.490 . S
C488 H478 0.930 . S
C488 C487 1.400 . S
C488 C491 1.386 . S
H489 C505 0.930 . S
H490 C506 0.931 . S
C491 H479 0.929 . S
C491 C485 1.390 . S
C491 C488 1.386 . S
C492 C487 1.490 . S
C492 C494 1.395 . S
C492 C495 1.403 . S
H493 C499 0.930 . S
C494 H480 0.930 . S
C494 C492 1.395 . S
C494 C497 1.403 . S
C495 C492 1.403 . S
C495 C496 1.524 . S
C495 C499 1.400 . S
C496 H481 0.960 . S
C496 H482 0.960 . S
C496 H483 0.960 . S
C496 C495 1.524 . S
C497 C494 1.403 . S
C497 C498 1.392 . S
C497 C501 1.495 . S
C498 C497 1.392 . S
C498 C499 1.385 . S
C498 C500 1.478 . S
C499 H493 0.930 . S
C499 C495 1.400 . S
C499 C498 1.385 . S
C500 C498 1.478 . S
C500 C502 1.381 . S
C500 C506 1.383 . S
C501 C497 1.495 . S
C501 H507 0.959 . S
C501 H508 0.961 . S
C501 H509 0.960 . S
C502 C500 1.381 . S
C502 C503 1.394 . S
C502 H510 0.930 . S
C503 C502 1.394 . S
C503 C504 1.383 . S
C503 H511 0.929 . S
C504 C503 1.383 . S
C504 C505 1.377 . S
C505 H489 0.930 . S
C505 C504 1.377 . S
C505 C506 1.379 . S
C506 H490 0.931 . S
C506 C500 1.383 . S
C506 C505 1.379 . S
H507 C501 0.959 . S
H508 C501 0.961 . S
H509 C501 0.960 . S
H510 C502 0.930 . S
H511 C503 0.929 . S
H512 C520 0.929 . S
H513 C522 0.930 . S
H514 C524 0.930 . S
H515 C527 0.929 . S
H516 C530 0.930 . S
H517 C532 0.960 . S
H518 C532 0.960 . S
H519 C532 0.960 . S
C520 H512 0.929 . S
C520 C521 1.377 . S
C520 C522 1.384 . S
C521 C520 1.377 . S
C521 C527 1.390 . S
C522 H513 0.930 . S
C522 C520 1.384 . S
C522 C523 1.372 . S
C523 C522 1.372 . S
C523 C524 1.400 . S
C523 C528 1.490 . S
C524 H514 0.930 . S
C524 C523 1.400 . S
C524 C527 1.386 . S
H525 C541 0.930 . S
H526 C542 0.931 . S
C527 H515 0.929 . S
C527 C521 1.390 . S
C527 C524 1.386 . S
C528 C523 1.490 . S
C528 C530 1.395 . S
C528 C531 1.403 . S
H529 C535 0.930 . S
C530 H516 0.930 . S
C530 C528 1.395 . S
C530 C533 1.403 . S
C531 C528 1.403 . S
C531 C532 1.524 . S
C531 C535 1.400 . S
C532 H517 0.960 . S
C532 H518 0.960 . S
C532 H519 0.960 . S
C532 C531 1.524 . S
C533 C530 1.403 . S
C533 C534 1.392 . S
C533 C537 1.495 . S
C534 C533 1.392 . S
C534 C535 1.385 . S
C534 C536 1.478 . S
C535 H529 0.930 . S
C535 C531 1.400 . S
C535 C534 1.385 . S
C536 C534 1.478 . S
C536 C538 1.381 . S
C536 C542 1.383 . S
C537 C533 1.495 . S
C537 H543 0.959 . S
C537 H544 0.961 . S
C537 H545 0.960 . S
C538 C536 1.381 . S
C538 C539 1.394 . S
C538 H546 0.930 . S
C539 C538 1.394 . S
C539 C540 1.383 . S
C539 H547 0.929 . S
C540 C539 1.383 . S
C540 C541 1.377 . S
C541 H525 0.930 . S
C541 C540 1.377 . S
C541 C542 1.379 . S
C542 H526 0.931 . S
C542 C536 1.383 . S
C542 C541 1.379 . S
H543 C537 0.959 . S
H544 C537 0.961 . S
H545 C537 0.960 . S
H546 C538 0.930 . S
H547 C539 0.929 . S
H548 C556 0.929 . S
H549 C558 0.930 . S
H550 C560 0.930 . S
H551 C563 0.929 . S
H552 C566 0.930 . S
H553 C568 0.960 . S
H554 C568 0.960 . S
H555 C568 0.960 . S
C556 H548 0.929 . S
C556 C557 1.377 . S
C556 C558 1.384 . S
C557 C556 1.377 . S
C557 C563 1.390 . S
C558 H549 0.930 . S
C558 C556 1.384 . S
C558 C559 1.372 . S
C559 C558 1.372 . S
C559 C560 1.400 . S
C559 C564 1.490 . S
C560 H550 0.930 . S
C560 C559 1.400 . S
C560 C563 1.386 . S
H561 C577 0.930 . S
H562 C578 0.931 . S
C563 H551 0.929 . S
C563 C557 1.390 . S
C563 C560 1.386 . S
C564 C559 1.490 . S
C564 C566 1.395 . S
C564 C567 1.403 . S
H565 C571 0.930 . S
C566 H552 0.930 . S
C566 C564 1.395 . S
C566 C569 1.403 . S
C567 C564 1.403 . S
C567 C568 1.524 . S
C567 C571 1.400 . S
C568 H553 0.960 . S
C568 H554 0.960 . S
C568 H555 0.960 . S
C568 C567 1.524 . S
C569 C566 1.403 . S
C569 C570 1.392 . S
C569 C573 1.495 . S
C570 C569 1.392 . S
C570 C571 1.385 . S
C570 C572 1.478 . S
C571 H565 0.930 . S
C571 C567 1.400 . S
C571 C570 1.385 . S
C572 C570 1.478 . S
C572 C574 1.381 . S
C572 C578 1.383 . S
C573 C569 1.495 . S
C573 H579 0.959 . S
C573 H580 0.961 . S
C573 H581 0.960 . S
C574 C572 1.381 . S
C574 C575 1.394 . S
C574 H582 0.930 . S
C575 C574 1.394 . S
C575 C576 1.383 . S
C575 H583 0.929 . S
C576 C575 1.383 . S
C576 C577 1.377 . S
C577 H561 0.930 . S
C577 C576 1.377 . S
C577 C578 1.379 . S
C578 H562 0.931 . S
C578 C572 1.383 . S
C578 C577 1.379 . S
H579 C573 0.959 . S
H580 C573 0.961 . S
H581 C573 0.960 . S
H582 C574 0.930 . S
H583 C575 0.929 . S
H584 C592 0.929 . S
H585 C594 0.930 . S
H586 C596 0.930 . S
H587 C599 0.929 . S
H588 C602 0.930 . S
H589 C604 0.960 . S
H590 C604 0.960 . S
H591 C604 0.960 . S
C592 H584 0.929 . S
C592 C593 1.377 . S
C592 C594 1.384 . S
C593 C592 1.377 . S
C593 C599 1.390 . S
C594 H585 0.930 . S
C594 C592 1.384 . S
C594 C595 1.372 . S
C595 C594 1.372 . S
C595 C596 1.400 . S
C595 C600 1.490 . S
C596 H586 0.930 . S
C596 C595 1.400 . S
C596 C599 1.386 . S
H597 C613 0.930 . S
H598 C614 0.931 . S
C599 H587 0.929 . S
C599 C593 1.390 . S
C599 C596 1.386 . S
C600 C595 1.490 . S
C600 C602 1.395 . S
C600 C603 1.403 . S
H601 C607 0.930 . S
C602 H588 0.930 . S
C602 C600 1.395 . S
C602 C605 1.403 . S
C603 C600 1.403 . S
C603 C604 1.524 . S
C603 C607 1.400 . S
C604 H589 0.960 . S
C604 H590 0.960 . S
C604 H591 0.960 . S
C604 C603 1.524 . S
C605 C602 1.403 . S
C605 C606 1.392 . S
C605 C609 1.495 . S
C606 C605 1.392 . S
C606 C607 1.385 . S
C606 C608 1.478 . S
C607 H601 0.930 . S
C607 C603 1.400 . S
C607 C606 1.385 . S
C608 C606 1.478 . S
C608 C610 1.381 . S
C608 C614 1.383 . S
C609 C605 1.495 . S
C609 H615 0.959 . S
C609 H616 0.961 . S
C609 H617 0.960 . S
C610 C608 1.381 . S
C610 C611 1.394 . S
C610 H618 0.930 . S
C611 C610 1.394 . S
C611 C612 1.383 . S
C611 H619 0.929 . S
C612 C611 1.383 . S
C612 C613 1.377 . S
C613 H597 0.930 . S
C613 C612 1.377 . S
C613 C614 1.379 . S
C614 H598 0.931 . S
C614 C608 1.383 . S
C614 C613 1.379 . S
H615 C609 0.959 . S
H616 C609 0.961 . S
H617 C609 0.960 . S
H618 C610 0.930 . S
H619 C611 0.929 . S
H620 C628 0.929 . S
H621 C630 0.930 . S
H622 C632 0.930 . S
H623 C635 0.929 . S
H624 C638 0.930 . S
H625 C640 0.960 . S
H626 C640 0.960 . S
H627 C640 0.960 . S
C628 H620 0.929 . S
C628 C629 1.377 . S
C628 C630 1.384 . S
C629 C628 1.377 . S
C629 C635 1.390 . S
C630 H621 0.930 . S
C630 C628 1.384 . S
C630 C631 1.372 . S
C631 C630 1.372 . S
C631 C632 1.400 . S
C631 C636 1.490 . S
C632 H622 0.930 . S
C632 C631 1.400 . S
C632 C635 1.386 . S
H633 C649 0.930 . S
H634 C650 0.931 . S
C635 H623 0.929 . S
C635 C629 1.390 . S
C635 C632 1.386 . S
C636 C631 1.490 . S
C636 C638 1.395 . S
C636 C639 1.403 . S
H637 C643 0.930 . S
C638 H624 0.930 . S
C638 C636 1.395 . S
C638 C641 1.403 . S
C639 C636 1.403 . S
C639 C640 1.524 . S
C639 C643 1.400 . S
C640 H625 0.960 . S
C640 H626 0.960 . S
C640 H627 0.960 . S
C640 C639 1.524 . S
C641 C638 1.403 . S
C641 C642 1.392 . S
C641 C645 1.495 . S
C642 C641 1.392 . S
C642 C643 1.385 . S
C642 C644 1.478 . S
C643 H637 0.930 . S
C643 C639 1.400 . S
C643 C642 1.385 . S
C644 C642 1.478 . S
C644 C646 1.381 . S
C644 C650 1.383 . S
C645 C641 1.495 . S
C645 H651 0.959 . S
C645 H652 0.961 . S
C645 H653 0.960 . S
C646 C644 1.381 . S
C646 C647 1.394 . S
C646 H654 0.930 . S
C647 C646 1.394 . S
C647 C648 1.383 . S
C647 H655 0.929 . S
C648 C647 1.383 . S
C648 C649 1.377 . S
C649 H633 0.930 . S
C649 C648 1.377 . S
C649 C650 1.379 . S
C650 H634 0.931 . S
C650 C644 1.383 . S
C650 C649 1.379 . S
H651 C645 0.959 . S
H652 C645 0.961 . S
H653 C645 0.960 . S
H654 C646 0.930 . S
H655 C647 0.929 . S
H656 C664 0.929 . S
H657 C666 0.930 . S
H658 C668 0.930 . S
H659 C671 0.929 . S
H660 C674 0.930 . S
H661 C676 0.960 . S
H662 C676 0.960 . S
H663 C676 0.960 . S
C664 H656 0.929 . S
C664 C665 1.377 . S
C664 C666 1.384 . S
C665 C664 1.377 . S
C665 C671 1.390 . S
C666 H657 0.930 . S
C666 C664 1.384 . S
C666 C667 1.372 . S
C667 C666 1.372 . S
C667 C668 1.400 . S
C667 C672 1.490 . S
C668 H658 0.930 . S
C668 C667 1.400 . S
C668 C671 1.386 . S
H669 C685 0.930 . S
H670 C686 0.931 . S
C671 H659 0.929 . S
C671 C665 1.390 . S
C671 C668 1.386 . S
C672 C667 1.490 . S
C672 C674 1.395 . S
C672 C675 1.403 . S
H673 C679 0.930 . S
C674 H660 0.930 . S
C674 C672 1.395 . S
C674 C677 1.403 . S
C675 C672 1.403 . S
C675 C676 1.524 . S
C675 C679 1.400 . S
C676 H661 0.960 . S
C676 H662 0.960 . S
C676 H663 0.960 . S
C676 C675 1.524 . S
C677 C674 1.403 . S
C677 C678 1.392 . S
C677 C681 1.495 . S
C678 C677 1.392 . S
C678 C679 1.385 . S
C678 C680 1.478 . S
C679 H673 0.930 . S
C679 C675 1.400 . S
C679 C678 1.385 . S
C680 C678 1.478 . S
C680 C682 1.381 . S
C680 C686 1.383 . S
C681 C677 1.495 . S
C681 H687 0.959 . S
C681 H688 0.961 . S
C681 H689 0.960 . S
C682 C680 1.381 . S
C682 C683 1.394 . S
C682 H690 0.930 . S
C683 C682 1.394 . S
C683 C684 1.383 . S
C683 H691 0.929 . S
C684 C683 1.383 . S
C684 C685 1.377 . S
C685 H669 0.930 . S
C685 C684 1.377 . S
C685 C686 1.379 . S
C686 H670 0.931 . S
C686 C680 1.383 . S
C686 C685 1.379 . S
H687 C681 0.959 . S
H688 C681 0.961 . S
H689 C681 0.960 . S
H690 C682 0.930 . S
H691 C683 0.929 . S
H692 C700 0.929 . S
H693 C702 0.930 . S
H694 C704 0.930 . S
H695 C707 0.929 . S
H696 C710 0.930 . S
H697 C712 0.960 . S
H698 C712 0.960 . S
H699 C712 0.960 . S
C700 H692 0.929 . S
C700 C701 1.377 . S
C700 C702 1.384 . S
C701 C700 1.377 . S
C701 C707 1.390 . S
C702 H693 0.930 . S
C702 C700 1.384 . S
C702 C703 1.372 . S
C703 C702 1.372 . S
C703 C704 1.400 . S
C703 C708 1.490 . S
C704 H694 0.930 . S
C704 C703 1.400 . S
C704 C707 1.386 . S
H705 C721 0.930 . S
H706 C722 0.931 . S
C707 H695 0.929 . S
C707 C701 1.390 . S
C707 C704 1.386 . S
C708 C703 1.490 . S
C708 C710 1.395 . S
C708 C711 1.403 . S
H709 C715 0.930 . S
C710 H696 0.930 . S
C710 C708 1.395 . S
C710 C713 1.403 . S
C711 C708 1.403 . S
C711 C712 1.524 . S
C711 C715 1.400 . S
C712 H697 0.960 . S
C712 H698 0.960 . S
C712 H699 0.960 . S
C712 C711 1.524 . S
C713 C710 1.403 . S
C713 C714 1.392 . S
C713 C717 1.495 . S
C714 C713 1.392 . S
C714 C715 1.385 . S
C714 C716 1.478 . S
C715 H709 0.930 . S
C715 C711 1.400 . S
C715 C714 1.385 . S
C716 C714 1.478 . S
C716 C718 1.381 . S
C716 C722 1.383 . S
C717 C713 1.495 . S
C717 H723 0.959 . S
C717 H724 0.961 . S
C717 H725 0.960 . S
C718 C716 1.381 . S
C718 C719 1.394 . S
C718 H726 0.930 . S
C719 C718 1.394 . S
C719 C720 1.383 . S
C719 H727 0.929 . S
C720 C719 1.383 . S
C720 C721 1.377 . S
C721 H705 0.930 . S
C721 C720 1.377 . S
C721 C722 1.379 . S
C722 H706 0.931 . S
C722 C716 1.383 . S
C722 C721 1.379 . S
H723 C717 0.959 . S
H724 C717 0.961 . S
H725 C717 0.960 . S
H726 C718 0.930 . S
H727 C719 0.929 . S
H728 C736 0.929 . S
H729 C738 0.930 . S
H730 C740 0.930 . S
H731 C743 0.929 . S
H732 C746 0.930 . S
H733 C748 0.960 . S
H734 C748 0.960 . S
H735 C748 0.960 . S
C736 H728 0.929 . S
C736 C737 1.377 . S
C736 C738 1.384 . S
C737 C736 1.377 . S
C737 C743 1.390 . S
C738 H729 0.930 . S
C738 C736 1.384 . S
C738 C739 1.372 . S
C739 C738 1.372 . S
C739 C740 1.400 . S
C739 C744 1.490 . S
C740 H730 0.930 . S
C740 C739 1.400 . S
C740 C743 1.386 . S
H741 C757 0.930 . S
H742 C758 0.931 . S
C743 H731 0.929 . S
C743 C737 1.390 . S
C743 C740 1.386 . S
C744 C739 1.490 . S
C744 C746 1.395 . S
C744 C747 1.403 . S
H745 C751 0.930 . S
C746 H732 0.930 . S
C746 C744 1.395 . S
C746 C749 1.403 . S
C747 C744 1.403 . S
C747 C748 1.524 . S
C747 C751 1.400 . S
C748 H733 0.960 . S
C748 H734 0.960 . S
C748 H735 0.960 . S
C748 C747 1.524 . S
C749 C746 1.403 . S
C749 C750 1.392 . S
C749 C753 1.495 . S
C750 C749 1.392 . S
C750 C751 1.385 . S
C750 C752 1.478 . S
C751 H745 0.930 . S
C751 C747 1.400 . S
C751 C750 1.385 . S
C752 C750 1.478 . S
C752 C754 1.381 . S
C752 C758 1.383 . S
C753 C749 1.495 . S
C753 H759 0.959 . S
C753 H760 0.961 . S
C753 H761 0.960 . S
C754 C752 1.381 . S
C754 C755 1.394 . S
C754 H762 0.930 . S
C755 C754 1.394 . S
C755 C756 1.383 . S
C755 H763 0.929 . S
C756 C755 1.383 . S
C756 C757 1.377 . S
C757 H741 0.930 . S
C757 C756 1.377 . S
C757 C758 1.379 . S
C758 H742 0.931 . S
C758 C752 1.383 . S
C758 C757 1.379 . S
H759 C753 0.959 . S
H760 C753 0.961 . S
H761 C753 0.960 . S
H762 C754 0.930 . S
H763 C755 0.929 . S
H764 C772 0.929 . S
H765 C774 0.930 . S
H766 C776 0.930 . S
H767 C779 0.929 . S
H768 C782 0.930 . S
H769 C784 0.960 . S
H770 C784 0.960 . S
H771 C784 0.960 . S
C772 H764 0.929 . S
C772 C773 1.377 . S
C772 C774 1.384 . S
C773 C772 1.377 . S
C773 C779 1.390 . S
C774 H765 0.930 . S
C774 C772 1.384 . S
C774 C775 1.372 . S
C775 C774 1.372 . S
C775 C776 1.400 . S
C775 C780 1.490 . S
C776 H766 0.930 . S
C776 C775 1.400 . S
C776 C779 1.386 . S
H777 C793 0.930 . S
H778 C794 0.931 . S
C779 H767 0.929 . S
C779 C773 1.390 . S
C779 C776 1.386 . S
C780 C775 1.490 . S
C780 C782 1.395 . S
C780 C783 1.403 . S
H781 C787 0.930 . S
C782 H768 0.930 . S
C782 C780 1.395 . S
C782 C785 1.403 . S
C783 C780 1.403 . S
C783 C784 1.524 . S
C783 C787 1.400 . S
C784 H769 0.960 . S
C784 H770 0.960 . S
C784 H771 0.960 . S
C784 C783 1.524 . S
C785 C782 1.403 . S
C785 C786 1.392 . S
C785 C789 1.495 . S
C786 C785 1.392 . S
C786 C787 1.385 . S
C786 C788 1.478 . S
C787 H781 0.930 . S
C787 C783 1.400 . S
C787 C786 1.385 . S
C788 C786 1.478 . S
C788 C790 1.381 . S
C788 C794 1.383 . S
C789 C785 1.495 . S
C789 H795 0.959 . S
C789 H796 0.961 . S
C789 H797 0.960 . S
C790 C788 1.381 . S
C790 C791 1.394 . S
C790 H798 0.930 . S
C791 C790 1.394 . S
C791 C792 1.383 . S
C791 H799 0.929 . S
C792 C791 1.383 . S
C792 C793 1.377 . S
C793 H777 0.930 . S
C793 C792 1.377 . S
C793 C794 1.379 . S
C794 H778 0.931 . S
C794 C788 1.383 . S
C794 C793 1.379 . S
H795 C789 0.959 . S
H796 C789 0.961 . S
H797 C789 0.960 . S
H798 C790 0.930 . S
H799 C791 0.929 . S
H800 C808 0.929 . S
H801 C810 0.930 . S
H802 C812 0.930 . S
H803 C815 0.929 . S
H804 C818 0.930 . S
H805 C820 0.960 . S
H806 C820 0.960 . S
H807 C820 0.960 . S
C808 H800 0.929 . S
C808 C809 1.377 . S
C808 C810 1.384 1_565 S
C809 C808 1.377 . S
C809 C815 1.390 1_565 S
C810 H801 0.930 . S
C810 C808 1.384 1_545 S
C810 C811 1.372 . S
C811 C810 1.372 . S
C811 C812 1.400 . S
C811 C816 1.490 . S
C812 H802 0.930 . S
C812 C811 1.400 . S
C812 C815 1.386 . S
H813 C829 0.930 . S
H814 C830 0.931 . S
C815 H803 0.929 . S
C815 C809 1.390 1_545 S
C815 C812 1.386 . S
C816 C811 1.490 . S
C816 C818 1.395 . S
C816 C819 1.403 . S
H817 C823 0.930 . S
C818 H804 0.930 . S
C818 C816 1.395 . S
C818 C821 1.403 . S
C819 C816 1.403 . S
C819 C820 1.524 . S
C819 C823 1.400 . S
C820 H805 0.960 . S
C820 H806 0.960 . S
C820 H807 0.960 . S
C820 C819 1.524 . S
C821 C818 1.403 . S
C821 C822 1.392 . S
C821 C825 1.495 . S
C822 C821 1.392 . S
C822 C823 1.385 . S
C822 C824 1.478 . S
C823 H817 0.930 . S
C823 C819 1.400 . S
C823 C822 1.385 . S
C824 C822 1.478 . S
C824 C826 1.381 . S
C824 C830 1.383 . S
C825 C821 1.495 . S
C825 H831 0.959 . S
C825 H832 0.961 . S
C825 H833 0.960 . S
C826 C824 1.381 . S
C826 C827 1.394 . S
C826 H834 0.930 . S
C827 C826 1.394 . S
C827 C828 1.383 . S
C827 H835 0.929 . S
C828 C827 1.383 . S
C828 C829 1.377 . S
C829 H813 0.930 . S
C829 C828 1.377 . S
C829 C830 1.379 . S
C830 H814 0.931 . S
C830 C824 1.383 . S
C830 C829 1.379 . S
H831 C825 0.959 . S
H832 C825 0.961 . S
H833 C825 0.960 . S
H834 C826 0.930 . S
H835 C827 0.929 . S
H836 C844 0.929 . S
H837 C846 0.930 . S
H838 C848 0.930 . S
H839 C851 0.929 . S
H840 C854 0.930 . S
H841 C856 0.960 . S
H842 C856 0.960 . S
H843 C856 0.960 . S
C844 H836 0.929 . S
C844 C845 1.377 . S
C844 C846 1.384 . S
C845 C844 1.377 . S
C845 C851 1.390 . S
C846 H837 0.930 . S
C846 C844 1.384 . S
C846 C847 1.372 . S
C847 C846 1.372 . S
C847 C848 1.400 . S
C847 C852 1.490 . S
C848 H838 0.930 . S
C848 C847 1.400 . S
C848 C851 1.386 . S
H849 C865 0.930 . S
H850 C866 0.931 . S
C851 H839 0.929 . S
C851 C845 1.390 . S
C851 C848 1.386 . S
C852 C847 1.490 . S
C852 C854 1.395 . S
C852 C855 1.403 . S
H853 C859 0.930 . S
C854 H840 0.930 . S
C854 C852 1.395 . S
C854 C857 1.403 . S
C855 C852 1.403 . S
C855 C856 1.524 . S
C855 C859 1.400 . S
C856 H841 0.960 . S
C856 H842 0.960 . S
C856 H843 0.960 . S
C856 C855 1.524 . S
C857 C854 1.403 . S
C857 C858 1.392 . S
C857 C861 1.495 . S
C858 C857 1.392 . S
C858 C859 1.385 . S
C858 C860 1.478 . S
C859 H853 0.930 . S
C859 C855 1.400 . S
C859 C858 1.385 . S
C860 C858 1.478 . S
C860 C862 1.381 1_455 S
C860 C866 1.383 . S
C861 C857 1.495 . S
C861 H867 0.959 . S
C861 H868 0.961 1_455 S
C861 H869 0.960 1_455 S
C862 C860 1.381 1_655 S
C862 C863 1.394 . S
C862 H870 0.930 . S
C863 C862 1.394 . S
C863 C864 1.383 . S
C863 H871 0.929 . S
C864 C863 1.383 . S
C864 C865 1.377 . S
C865 H849 0.930 . S
C865 C864 1.377 . S
C865 C866 1.379 1_655 S
C866 H850 0.931 . S
C866 C860 1.383 . S
C866 C865 1.379 1_455 S
H867 C861 0.959 . S
H868 C861 0.961 1_655 S
H869 C861 0.960 1_655 S
H870 C862 0.930 . S
H871 C863 0.929 . S
H872 C880 0.929 . S
H873 C882 0.930 . S
H874 C884 0.930 . S
H875 C887 0.929 . S
H876 C890 0.930 . S
H877 C892 0.960 . S
H878 C892 0.960 . S
H879 C892 0.960 . S
C880 H872 0.929 . S
C880 C881 1.377 . S
C880 C882 1.384 1_545 S
C881 C880 1.377 . S
C881 C887 1.390 1_545 S
C882 H873 0.930 . S
C882 C880 1.384 1_565 S
C882 C883 1.372 . S
C883 C882 1.372 . S
C883 C884 1.400 . S
C883 C888 1.490 . S
C884 H874 0.930 . S
C884 C883 1.400 . S
C884 C887 1.386 . S
H885 C901 0.930 . S
H886 C902 0.931 . S
C887 H875 0.929 . S
C887 C881 1.390 1_565 S
C887 C884 1.386 . S
C888 C883 1.490 . S
C888 C890 1.395 . S
C888 C891 1.403 . S
H889 C895 0.930 . S
C890 H876 0.930 . S
C890 C888 1.395 . S
C890 C893 1.403 . S
C891 C888 1.403 . S
C891 C892 1.524 . S
C891 C895 1.400 . S
C892 H877 0.960 . S
C892 H878 0.960 . S
C892 H879 0.960 . S
C892 C891 1.524 . S
C893 C890 1.403 . S
C893 C894 1.392 . S
C893 C897 1.495 . S
C894 C893 1.392 . S
C894 C895 1.385 . S
C894 C896 1.478 . S
C895 H889 0.930 . S
C895 C891 1.400 . S
C895 C894 1.385 . S
C896 C894 1.478 . S
C896 C898 1.381 . S
C896 C902 1.383 . S
C897 C893 1.495 . S
C897 H903 0.959 . S
C897 H904 0.961 . S
C897 H905 0.960 . S
C898 C896 1.381 . S
C898 C899 1.394 . S
C898 H906 0.930 . S
C899 C898 1.394 . S
C899 C900 1.383 . S
C899 H907 0.929 . S
C900 C899 1.383 . S
C900 C901 1.377 . S
C901 H885 0.930 . S
C901 C900 1.377 . S
C901 C902 1.379 . S
C902 H886 0.931 . S
C902 C896 1.383 . S
C902 C901 1.379 . S
H903 C897 0.959 . S
H904 C897 0.961 . S
H905 C897 0.960 . S
H906 C898 0.930 . S
H907 C899 0.929 . S
H908 C916 0.929 . S
H909 C918 0.930 . S
H910 C920 0.930 . S
H911 C923 0.929 . S
H912 C926 0.930 . S
H913 C928 0.960 . S
H914 C928 0.960 . S
H915 C928 0.960 . S
C916 H908 0.929 . S
C916 C917 1.377 . S
C916 C918 1.384 . S
C917 C916 1.377 . S
C917 C923 1.390 . S
C918 H909 0.930 . S
C918 C916 1.384 . S
C918 C919 1.372 . S
C919 C918 1.372 . S
C919 C920 1.400 . S
C919 C924 1.490 . S
C920 H910 0.930 . S
C920 C919 1.400 . S
C920 C923 1.386 . S
H921 C937 0.930 . S
H922 C938 0.931 . S
C923 H911 0.929 . S
C923 C917 1.390 . S
C923 C920 1.386 . S
C924 C919 1.490 . S
C924 C926 1.395 . S
C924 C927 1.403 . S
H925 C931 0.930 . S
C926 H912 0.930 . S
C926 C924 1.395 . S
C926 C929 1.403 . S
C927 C924 1.403 . S
C927 C928 1.524 . S
C927 C931 1.400 . S
C928 H913 0.960 . S
C928 H914 0.960 . S
C928 H915 0.960 . S
C928 C927 1.524 . S
C929 C926 1.403 . S
C929 C930 1.392 . S
C929 C933 1.495 . S
C930 C929 1.392 . S
C930 C931 1.385 . S
C930 C932 1.478 . S
C931 H925 0.930 . S
C931 C927 1.400 . S
C931 C930 1.385 . S
C932 C930 1.478 . S
C932 C934 1.381 . S
C932 C938 1.383 1_655 S
C933 C929 1.495 . S
C933 H939 0.959 . S
C933 H940 0.961 . S
C933 H941 0.960 . S
C934 C932 1.381 . S
C934 C935 1.394 . S
C934 H942 0.930 . S
C935 C934 1.394 . S
C935 C936 1.383 1_655 S
C935 H943 0.929 . S
C936 C935 1.383 1_455 S
C936 C937 1.377 . S
C937 H921 0.930 . S
C937 C936 1.377 . S
C937 C938 1.379 . S
C938 H922 0.931 . S
C938 C932 1.383 1_455 S
C938 C937 1.379 . S
H939 C933 0.959 . S
H940 C933 0.961 . S
H941 C933 0.960 . S
H942 C934 0.930 . S
H943 C935 0.929 . S
H944 C952 0.929 1_545 S
H945 C954 0.930 . S
H946 C956 0.930 . S
H947 C959 0.929 . S
H948 C962 0.930 . S
H949 C964 0.960 . S
H950 C964 0.960 . S
H951 C964 0.960 . S
C952 H944 0.929 1_565 S
C952 C953 1.377 1_565 S
C952 C954 1.384 . S
C953 C952 1.377 1_545 S
C953 C959 1.390 1_545 S
C954 H945 0.930 . S
C954 C952 1.384 . S
C954 C955 1.372 . S
C955 C954 1.372 . S
C955 C956 1.400 . S
C955 C960 1.490 . S
C956 H946 0.930 . S
C956 C955 1.400 . S
C956 C959 1.386 . S
H957 C973 0.930 . S
H958 C974 0.931 . S
C959 H947 0.929 . S
C959 C953 1.390 1_565 S
C959 C956 1.386 . S
C960 C955 1.490 . S
C960 C962 1.395 . S
C960 C963 1.403 . S
H961 C967 0.930 . S
C962 H948 0.930 . S
C962 C960 1.395 . S
C962 C965 1.403 . S
C963 C960 1.403 . S
C963 C964 1.524 . S
C963 C967 1.400 . S
C964 H949 0.960 . S
C964 H950 0.960 . S
C964 H951 0.960 . S
C964 C963 1.524 . S
C965 C962 1.403 . S
C965 C966 1.392 . S
C965 C969 1.495 . S
C966 C965 1.392 . S
C966 C967 1.385 . S
C966 C968 1.478 . S
C967 H961 0.930 . S
C967 C963 1.400 . S
C967 C966 1.385 . S
C968 C966 1.478 . S
C968 C970 1.381 . S
C968 C974 1.383 . S
C969 C965 1.495 . S
C969 H975 0.959 . S
C969 H976 0.961 . S
C969 H977 0.960 . S
C970 C968 1.381 . S
C970 C971 1.394 . S
C970 H978 0.930 . S
C971 C970 1.394 . S
C971 C972 1.383 . S
C971 H979 0.929 . S
C972 C971 1.383 . S
C972 C973 1.377 . S
C973 H957 0.930 . S
C973 C972 1.377 . S
C973 C974 1.379 . S
C974 H958 0.931 . S
C974 C968 1.383 . S
C974 C973 1.379 . S
H975 C969 0.959 . S
H976 C969 0.961 . S
H977 C969 0.960 . S
H978 C970 0.930 . S
H979 C971 0.929 . S
H980 C988 0.929 . S
H981 C990 0.930 . S
H982 C992 0.930 . S
H983 C995 0.929 . S
H984 C998 0.930 . S
H985 C1000 0.960 . S
H986 C1000 0.960 . S
H987 C1000 0.960 . S
C988 H980 0.929 . S
C988 C989 1.377 . S
C988 C990 1.384 . S
C989 C988 1.377 . S
C989 C995 1.390 . S
C990 H981 0.930 . S
C990 C988 1.384 . S
C990 C991 1.372 . S
C991 C990 1.372 . S
C991 C992 1.400 . S
C991 C996 1.490 . S
C992 H982 0.930 . S
C992 C991 1.400 . S
C992 C995 1.386 . S
H993 C1009 0.930 . S
H994 C1010 0.931 . S
C995 H983 0.929 . S
C995 C989 1.390 . S
C995 C992 1.386 . S
C996 C991 1.490 . S
C996 C998 1.395 . S
C996 C999 1.403 . S
H997 C1003 0.930 . S
C998 H984 0.930 . S
C998 C996 1.395 . S
C998 C1001 1.403 . S
C999 C996 1.403 . S
C999 C1000 1.524 . S
C999 C1003 1.400 . S
C1000 H985 0.960 . S
C1000 H986 0.960 . S
C1000 H987 0.960 . S
C1000 C999 1.524 . S
C1001 C998 1.403 . S
C1001 C1002 1.392 . S
C1001 C1005 1.495 . S
C1002 C1001 1.392 . S
C1002 C1003 1.385 . S
C1002 C1004 1.478 . S
C1003 H997 0.930 . S
C1003 C999 1.400 . S
C1003 C1002 1.385 . S
C1004 C1002 1.478 . S
C1004 C1006 1.381 1_655 S
C1004 C1010 1.383 . S
C1005 C1001 1.495 . S
C1005 H1011 0.959 . S
C1005 H1012 0.961 . S
C1005 H1013 0.960 1_655 S
C1006 C1004 1.381 1_455 S
C1006 C1007 1.394 . S
C1006 H1014 0.930 . S
C1007 C1006 1.394 . S
C1007 C1008 1.383 . S
C1007 H1015 0.929 . S
C1008 C1007 1.383 . S
C1008 C1009 1.377 1_455 S
C1009 H993 0.930 . S
C1009 C1008 1.377 1_655 S
C1009 C1010 1.379 . S
C1010 H994 0.931 . S
C1010 C1004 1.383 . S
C1010 C1009 1.379 . S
H1011 C1005 0.959 . S
H1012 C1005 0.961 . S
H1013 C1005 0.960 1_455 S
H1014 C1006 0.930 . S
H1015 C1007 0.929 . S
H1016 C1024 0.929 . S
H1017 C1026 0.930 . S
H1018 C1028 0.930 . S
H1019 C1031 0.929 . S
H1020 C1034 0.930 . S
H1021 C1036 0.960 . S
H1022 C1036 0.960 . S
H1023 C1036 0.960 . S
C1024 H1016 0.929 . S
C1024 C1025 1.377 . S
C1024 C1026 1.384 . S
C1025 C1024 1.377 . S
C1025 C1031 1.390 . S
C1026 H1017 0.930 . S
C1026 C1024 1.384 . S
C1026 C1027 1.372 . S
C1027 C1026 1.372 . S
C1027 C1028 1.400 . S
C1027 C1032 1.490 . S
C1028 H1018 0.930 . S
C1028 C1027 1.400 . S
C1028 C1031 1.386 . S
H1029 C1045 0.930 . S
H1030 C1046 0.931 . S
C1031 H1019 0.929 . S
C1031 C1025 1.390 . S
C1031 C1028 1.386 . S
C1032 C1027 1.490 . S
C1032 C1034 1.395 . S
C1032 C1035 1.403 . S
H1033 C1039 0.930 . S
C1034 H1020 0.930 . S
C1034 C1032 1.395 . S
C1034 C1037 1.403 . S
C1035 C1032 1.403 . S
C1035 C1036 1.524 . S
C1035 C1039 1.400 . S
C1036 H1021 0.960 . S
C1036 H1022 0.960 . S
C1036 H1023 0.960 . S
C1036 C1035 1.524 . S
C1037 C1034 1.403 . S
C1037 C1038 1.392 . S
C1037 C1041 1.495 . S
C1038 C1037 1.392 . S
C1038 C1039 1.385 . S
C1038 C1040 1.478 . S
C1039 H1033 0.930 . S
C1039 C1035 1.400 . S
C1039 C1038 1.385 . S
C1040 C1038 1.478 . S
C1040 C1042 1.381 . S
C1040 C1046 1.383 . S
C1041 C1037 1.495 . S
C1041 H1047 0.959 . S
C1041 H1048 0.961 . S
C1041 H1049 0.960 . S
C1042 C1040 1.381 . S
C1042 C1043 1.394 1_545 S
C1042 H1050 0.930 . S
C1043 C1042 1.394 1_565 S
C1043 C1044 1.383 . S
C1043 H1051 0.929 . S
C1044 C1043 1.383 . S
C1044 C1045 1.377 1_565 S
C1045 H1029 0.930 . S
C1045 C1044 1.377 1_545 S
C1045 C1046 1.379 . S
C1046 H1030 0.931 . S
C1046 C1040 1.383 . S
C1046 C1045 1.379 . S
H1047 C1041 0.959 . S
H1048 C1041 0.961 . S
H1049 C1041 0.960 . S
H1050 C1042 0.930 . S
H1051 C1043 0.929 . S
H1052 C1060 0.929 . S
H1053 C1062 0.930 . S
H1054 C1064 0.930 . S
H1055 C1067 0.929 . S
H1056 C1070 0.930 . S
H1057 C1072 0.960 . S
H1058 C1072 0.960 . S
H1059 C1072 0.960 . S
C1060 H1052 0.929 . S
C1060 C1061 1.377 . S
C1060 C1062 1.384 . S
C1061 C1060 1.377 . S
C1061 C1067 1.390 . S
C1062 H1053 0.930 . S
C1062 C1060 1.384 . S
C1062 C1063 1.372 . S
C1063 C1062 1.372 . S
C1063 C1064 1.400 . S
C1063 C1068 1.490 . S
C1064 H1054 0.930 . S
C1064 C1063 1.400 . S
C1064 C1067 1.386 . S
H1065 C1081 0.930 . S
H1066 C1082 0.931 . S
C1067 H1055 0.929 . S
C1067 C1061 1.390 . S
C1067 C1064 1.386 . S
C1068 C1063 1.490 . S
C1068 C1070 1.395 . S
C1068 C1071 1.403 . S
H1069 C1075 0.930 . S
C1070 H1056 0.930 . S
C1070 C1068 1.395 . S
C1070 C1073 1.403 . S
C1071 C1068 1.403 . S
C1071 C1072 1.524 . S
C1071 C1075 1.400 . S
C1072 H1057 0.960 . S
C1072 H1058 0.960 . S
C1072 H1059 0.960 . S
C1072 C1071 1.524 . S
C1073 C1070 1.403 . S
C1073 C1074 1.392 . S
C1073 C1077 1.495 . S
C1074 C1073 1.392 . S
C1074 C1075 1.385 . S
C1074 C1076 1.478 . S
C1075 H1069 0.930 . S
C1075 C1071 1.400 . S
C1075 C1074 1.385 . S
C1076 C1074 1.478 . S
C1076 C1078 1.375 1_455 S
C1076 C1082 1.383 . S
C1077 C1073 1.495 . S
C1077 H1083 0.959 . S
C1077 H1084 0.961 1_455 S
C1077 H1085 0.960 1_455 S
C1078 C1076 1.375 1_655 S
C1078 C1079 1.402 . S
C1078 H1086 0.928 1_655 S
C1079 C1078 1.402 . S
C1079 C1080 1.383 . S
C1079 H1087 0.929 . S
C1080 C1079 1.383 . S
C1080 C1081 1.377 . S
C1081 H1065 0.930 . S
C1081 C1080 1.377 . S
C1081 C1082 1.379 1_655 S
C1082 H1066 0.931 . S
C1082 C1076 1.383 . S
C1082 C1081 1.379 1_455 S
H1083 C1077 0.959 . S
H1084 C1077 0.961 1_655 S
H1085 C1077 0.960 1_655 S
H1086 C1078 0.928 1_455 S
H1087 C1079 0.929 . S
H1088 C1096 0.929 . S
H1089 C1098 0.930 . S
H1090 C1100 0.930 . S
H1091 C1103 0.929 . S
H1092 C1106 0.930 . S
H1093 C1108 0.960 . S
H1094 C1108 0.960 . S
H1095 C1108 0.960 . S
C1096 H1088 0.929 . S
C1096 C1097 1.377 . S
C1096 C1098 1.384 . S
C1097 C1096 1.377 . S
C1097 C1103 1.390 . S
C1098 H1089 0.930 . S
C1098 C1096 1.384 . S
C1098 C1099 1.372 . S
C1099 C1098 1.372 . S
C1099 C1100 1.400 . S
C1099 C1104 1.490 . S
C1100 H1090 0.930 . S
C1100 C1099 1.400 . S
C1100 C1103 1.386 . S
H1101 C1117 0.930 . S
H1102 C1118 0.931 . S
C1103 H1091 0.929 . S
C1103 C1097 1.390 . S
C1103 C1100 1.386 . S
C1104 C1099 1.490 . S
C1104 C1106 1.395 . S
C1104 C1107 1.403 . S
H1105 C1111 0.930 . S
C1106 H1092 0.930 . S
C1106 C1104 1.395 . S
C1106 C1109 1.403 . S
C1107 C1104 1.403 . S
C1107 C1108 1.524 . S
C1107 C1111 1.400 . S
C1108 H1093 0.960 . S
C1108 H1094 0.960 . S
C1108 H1095 0.960 . S
C1108 C1107 1.524 . S
C1109 C1106 1.403 . S
C1109 C1110 1.392 . S
C1109 C1113 1.495 . S
C1110 C1109 1.392 . S
C1110 C1111 1.385 . S
C1110 C1112 1.478 . S
C1111 H1105 0.930 . S
C1111 C1107 1.400 . S
C1111 C1110 1.385 . S
C1112 C1110 1.478 . S
C1112 C1114 1.381 . S
C1112 C1118 1.383 . S
C1113 C1109 1.495 . S
C1113 H1119 0.959 . S
C1113 H1120 0.961 . S
C1113 H1121 0.960 . S
C1114 C1112 1.381 . S
C1114 C1115 1.394 . S
C1114 H1122 0.930 . S
C1115 C1114 1.394 . S
C1115 C1116 1.383 . S
C1115 H1123 0.929 . S
C1116 C1115 1.383 . S
C1116 C1117 1.377 . S
C1117 H1101 0.930 . S
C1117 C1116 1.377 . S
C1117 C1118 1.379 . S
C1118 H1102 0.931 . S
C1118 C1112 1.383 . S
C1118 C1117 1.379 . S
H1119 C1113 0.959 . S
H1120 C1113 0.961 . S
H1121 C1113 0.960 . S
H1122 C1114 0.930 . S
H1123 C1115 0.929 . S
H1124 C1132 0.929 . S
H1125 C1134 0.930 . S
H1126 C1136 0.930 . S
H1127 C1139 0.929 . S
H1128 C1142 0.930 . S
H1129 C1144 0.960 . S
H1130 C1144 0.960 . S
H1131 C1144 0.960 . S
C1132 H1124 0.929 . S
C1132 C1133 1.377 . S
C1132 C1134 1.384 . S
C1133 C1132 1.377 . S
C1133 C1139 1.390 . S
C1134 H1125 0.930 . S
C1134 C1132 1.384 . S
C1134 C1135 1.372 . S
C1135 C1134 1.372 . S
C1135 C1136 1.400 . S
C1135 C1140 1.490 . S
C1136 H1126 0.930 . S
C1136 C1135 1.400 . S
C1136 C1139 1.386 . S
H1137 C1153 0.930 . S
H1138 C1154 0.931 . S
C1139 H1127 0.929 . S
C1139 C1133 1.390 . S
C1139 C1136 1.386 . S
C1140 C1135 1.490 . S
C1140 C1142 1.395 . S
C1140 C1143 1.403 . S
H1141 C1147 0.930 . S
C1142 H1128 0.930 . S
C1142 C1140 1.395 . S
C1142 C1145 1.403 . S
C1143 C1140 1.403 . S
C1143 C1144 1.524 . S
C1143 C1147 1.400 . S
C1144 H1129 0.960 . S
C1144 H1130 0.960 . S
C1144 H1131 0.960 . S
C1144 C1143 1.524 . S
C1145 C1142 1.403 . S
C1145 C1146 1.392 . S
C1145 C1149 1.495 . S
C1146 C1145 1.392 . S
C1146 C1147 1.385 . S
C1146 C1148 1.478 . S
C1147 H1141 0.930 . S
C1147 C1143 1.400 . S
C1147 C1146 1.385 . S
C1148 C1146 1.478 . S
C1148 C1150 1.381 . S
C1148 C1154 1.383 . S
C1149 C1145 1.495 . S
C1149 H1155 0.959 . S
C1149 H1156 0.961 . S
C1149 H1157 0.960 . S
C1150 C1148 1.381 . S
C1150 C1151 1.394 . S
C1150 H1158 0.930 . S
C1151 C1150 1.394 . S
C1151 C1152 1.383 . S
C1151 H1159 0.929 . S
C1152 C1151 1.383 . S
C1152 C1153 1.377 . S
C1153 H1137 0.930 . S
C1153 C1152 1.377 . S
C1153 C1154 1.379 . S
C1154 H1138 0.931 . S
C1154 C1148 1.383 . S
C1154 C1153 1.379 . S
H1155 C1149 0.959 . S
H1156 C1149 0.961 . S
H1157 C1149 0.960 . S
H1158 C1150 0.930 . S
H1159 C1151 0.929 . S
H1160 C1168 0.929 . S
H1161 C1170 0.930 . S
H1162 C1172 0.930 . S
H1163 C1175 0.929 . S
H1164 C1178 0.930 . S
H1165 C1180 0.960 . S
H1166 C1180 0.960 . S
H1167 C1180 0.960 . S
C1168 H1160 0.929 . S
C1168 C1169 1.377 . S
C1168 C1170 1.384 . S
C1169 C1168 1.377 . S
C1169 C1175 1.390 . S
C1170 H1161 0.930 . S
C1170 C1168 1.384 . S
C1170 C1171 1.372 . S
C1171 C1170 1.372 . S
C1171 C1172 1.400 . S
C1171 C1176 1.490 . S
C1172 H1162 0.930 . S
C1172 C1171 1.400 . S
C1172 C1175 1.386 . S
H1173 C1189 0.930 . S
H1174 C1190 0.931 . S
C1175 H1163 0.929 . S
C1175 C1169 1.390 . S
C1175 C1172 1.386 . S
C1176 C1171 1.490 . S
C1176 C1178 1.395 . S
C1176 C1179 1.403 . S
H1177 C1183 0.930 . S
C1178 H1164 0.930 . S
C1178 C1176 1.395 . S
C1178 C1181 1.403 . S
C1179 C1176 1.403 . S
C1179 C1180 1.524 . S
C1179 C1183 1.400 . S
C1180 H1165 0.960 . S
C1180 H1166 0.960 . S
C1180 H1167 0.960 . S
C1180 C1179 1.524 . S
C1181 C1178 1.403 . S
C1181 C1182 1.392 . S
C1181 C1185 1.495 . S
C1182 C1181 1.392 . S
C1182 C1183 1.385 . S
C1182 C1184 1.478 . S
C1183 H1177 0.930 . S
C1183 C1179 1.400 . S
C1183 C1182 1.385 . S
C1184 C1182 1.478 . S
C1184 C1186 1.381 . S
C1184 C1190 1.383 . S
C1185 C1181 1.495 . S
C1185 H1191 0.959 . S
C1185 H1192 0.961 . S
C1185 H1193 0.960 . S
C1186 C1184 1.381 . S
C1186 C1187 1.394 . S
C1186 H1194 0.930 . S
C1187 C1186 1.394 . S
C1187 C1188 1.383 . S
C1187 H1195 0.929 . S
C1188 C1187 1.383 . S
C1188 C1189 1.377 . S
C1189 H1173 0.930 . S
C1189 C1188 1.377 . S
C1189 C1190 1.379 . S
C1190 H1174 0.931 . S
C1190 C1184 1.383 . S
C1190 C1189 1.379 . S
H1191 C1185 0.959 . S
H1192 C1185 0.961 . S
H1193 C1185 0.960 . S
H1194 C1186 0.930 . S
H1195 C1187 0.929 . S
H1196 C1204 0.929 . S
H1197 C1206 0.930 . S
H1198 C1208 0.930 . S
H1199 C1211 0.929 . S
H1200 C1214 0.930 . S
H1201 C1216 0.960 . S
H1202 C1216 0.960 . S
H1203 C1216 0.960 . S
C1204 H1196 0.929 . S
C1204 C1205 1.377 . S
C1204 C1206 1.384 . S
C1205 C1204 1.377 . S
C1205 C1211 1.390 . S
C1206 H1197 0.930 . S
C1206 C1204 1.384 . S
C1206 C1207 1.372 . S
C1207 C1206 1.372 . S
C1207 C1208 1.400 . S
C1207 C1212 1.490 . S
C1208 H1198 0.930 . S
C1208 C1207 1.400 . S
C1208 C1211 1.386 . S
H1209 C1225 0.930 . S
H1210 C1226 0.931 . S
C1211 H1199 0.929 . S
C1211 C1205 1.390 . S
C1211 C1208 1.386 . S
C1212 C1207 1.490 . S
C1212 C1214 1.395 . S
C1212 C1215 1.403 . S
H1213 C1219 0.930 . S
C1214 H1200 0.930 . S
C1214 C1212 1.395 . S
C1214 C1217 1.403 . S
C1215 C1212 1.403 . S
C1215 C1216 1.524 . S
C1215 C1219 1.400 . S
C1216 H1201 0.960 . S
C1216 H1202 0.960 . S
C1216 H1203 0.960 . S
C1216 C1215 1.524 . S
C1217 C1214 1.403 . S
C1217 C1218 1.392 . S
C1217 C1221 1.495 . S
C1218 C1217 1.392 . S
C1218 C1219 1.385 . S
C1218 C1220 1.478 . S
C1219 H1213 0.930 . S
C1219 C1215 1.400 . S
C1219 C1218 1.385 . S
C1220 C1218 1.478 . S
C1220 C1222 1.381 . S
C1220 C1226 1.383 . S
C1221 C1217 1.495 . S
C1221 H1227 0.959 . S
C1221 H1228 0.961 . S
C1221 H1229 0.960 . S
C1222 C1220 1.381 . S
C1222 C1223 1.394 . S
C1222 H1230 0.930 . S
C1223 C1222 1.394 . S
C1223 C1224 1.383 . S
C1223 H1231 0.929 . S
C1224 C1223 1.383 . S
C1224 C1225 1.377 . S
C1225 H1209 0.930 . S
C1225 C1224 1.377 . S
C1225 C1226 1.379 . S
C1226 H1210 0.931 . S
C1226 C1220 1.383 . S
C1226 C1225 1.379 . S
H1227 C1221 0.959 . S
H1228 C1221 0.961 . S
H1229 C1221 0.960 . S
H1230 C1222 0.930 . S
H1231 C1223 0.929 . S
H1232 C1240 0.929 . S
H1233 C1242 0.930 . S
H1234 C1244 0.930 1_565 S
H1235 C1247 0.927 1_565 S
H1236 C1250 0.930 . S
H1237 C1252 0.960 . S
H1238 C1252 0.960 1_545 S
H1239 C1252 0.960 . S
C1240 H1232 0.929 . S
C1240 C1241 1.377 . S
C1240 C1242 1.384 . S
C1241 C1240 1.377 . S
C1241 C1247 1.390 . S
C1242 H1233 0.930 . S
C1242 C1240 1.384 . S
C1242 C1243 1.372 . S
C1243 C1242 1.372 . S
C1243 C1244 1.400 . S
C1243 C1248 1.490 . S
C1244 H1234 0.930 1_545 S
C1244 C1243 1.400 . S
C1244 C1247 1.386 . S
H1245 C1261 0.930 . S
H1246 C1262 0.931 . S
C1247 H1235 0.927 1_545 S
C1247 C1241 1.390 . S
C1247 C1244 1.386 . S
C1248 C1243 1.490 . S
C1248 C1250 1.395 . S
C1248 C1251 1.403 1_545 S
H1249 C1255 0.930 . S
C1250 H1236 0.930 . S
C1250 C1248 1.395 . S
C1250 C1253 1.403 1_554 S
C1251 C1248 1.403 1_565 S
C1251 C1252 1.524 . S
C1251 C1255 1.400 1_554 S
C1252 H1237 0.960 . S
C1252 H1238 0.960 1_565 S
C1252 H1239 0.960 . S
C1252 C1251 1.524 . S
C1253 C1250 1.403 1_556 S
C1253 C1254 1.392 1_545 S
C1253 C1257 1.495 . S
C1254 C1253 1.392 1_565 S
C1254 C1255 1.385 . S
C1254 C1256 1.478 . S
C1255 H1249 0.930 . S
C1255 C1251 1.400 1_556 S
C1255 C1254 1.385 . S
C1256 C1254 1.478 . S
C1256 C1258 1.407 . S
C1256 C1262 1.383 . S
C1257 C1253 1.495 . S
C1257 H1263 0.959 . S
C1257 H1264 0.961 1_545 S
C1257 H1265 0.960 . S
C1258 C1256 1.407 . S
C1258 C1259 1.409 . S
C1258 H1266 0.890 1_565 S
C1259 C1258 1.409 . S
C1259 C1260 1.383 . S
C1259 H1267 0.906 1_565 S
C1260 C1259 1.383 . S
C1260 C1261 1.377 . S
C1261 H1245 0.930 . S
C1261 C1260 1.377 . S
C1261 C1262 1.379 . S
C1262 H1246 0.931 . S
C1262 C1256 1.383 . S
C1262 C1261 1.379 . S
H1263 C1257 0.959 . S
H1264 C1257 0.961 1_565 S
H1265 C1257 0.960 . S
H1266 C1258 0.890 1_545 S
H1267 C1259 0.906 1_545 S
H1268 C1276 0.929 . S
H1269 C1278 0.930 . S
H1270 C1280 0.905 1_655 S
H1271 C1283 0.929 . S
H1272 C1286 0.930 . S
H1273 C1288 0.960 . S
H1274 C1288 0.960 . S
H1275 C1288 0.960 . S
C1276 H1268 0.929 . S
C1276 C1277 1.377 . S
C1276 C1278 1.384 . S
C1277 C1276 1.377 . S
C1277 C1283 1.390 . S
C1278 H1269 0.930 . S
C1278 C1276 1.384 . S
C1278 C1279 1.372 . S
C1279 C1278 1.372 . S
C1279 C1280 1.400 . S
C1279 C1284 1.490 . S
C1280 H1270 0.905 1_455 S
C1280 C1279 1.400 . S
C1280 C1283 1.386 . S
H1281 C1297 0.930 . S
H1282 C1298 0.931 . S
C1283 H1271 0.929 . S
C1283 C1277 1.390 . S
C1283 C1280 1.386 . S
C1284 C1279 1.490 . S
C1284 C1286 1.395 . S
C1284 C1287 1.403 1_455 S
H1285 C1291 0.930 . S
C1286 H1272 0.930 . S
C1286 C1284 1.395 . S
C1286 C1289 1.403 1_556 S
C1287 C1284 1.403 1_655 S
C1287 C1288 1.524 . S
C1287 C1291 1.400 1_556 S
C1288 H1273 0.960 . S
C1288 H1274 0.960 . S
C1288 H1275 0.960 . S
C1288 C1287 1.524 . S
C1289 C1286 1.403 1_554 S
C1289 C1290 1.392 1_455 S
C1289 C1293 1.495 . S
C1290 C1289 1.392 1_655 S
C1290 C1291 1.385 . S
C1290 C1292 1.478 . S
C1291 H1285 0.930 . S
C1291 C1287 1.400 1_554 S
C1291 C1290 1.385 . S
C1292 C1290 1.478 . S
C1292 C1294 1.381 . S
C1292 C1298 1.383 . S
C1293 C1289 1.495 . S
C1293 H1299 0.959 . S
C1293 H1300 0.961 . S
C1293 H1301 0.960 . S
C1294 C1292 1.381 . S
C1294 C1295 1.394 . S
C1294 H1302 0.930 1_655 S
C1295 C1294 1.394 . S
C1295 C1296 1.383 . S
C1295 H1303 0.929 . S
C1296 C1295 1.383 . S
C1296 C1297 1.377 . S
C1297 H1281 0.930 . S
C1297 C1296 1.377 . S
C1297 C1298 1.379 . S
C1298 H1282 0.931 . S
C1298 C1292 1.383 . S
C1298 C1297 1.379 . S
H1299 C1293 0.959 . S
H1300 C1293 0.961 . S
H1301 C1293 0.960 . S
H1302 C1294 0.930 1_455 S
H1303 C1295 0.929 . S
H1304 C1312 0.929 . S
H1305 C1314 0.930 . S
H1306 C1316 0.930 1_565 S
H1307 C1319 0.929 . S
H1308 C1322 0.930 . S
H1309 C1324 0.960 . S
H1310 C1324 0.960 . S
H1311 C1324 0.960 . S
C1312 H1304 0.929 . S
C1312 C1313 1.377 . S
C1312 C1314 1.384 . S
C1313 C1312 1.377 . S
C1313 C1319 1.390 . S
C1314 H1305 0.930 . S
C1314 C1312 1.384 . S
C1314 C1315 1.372 . S
C1315 C1314 1.372 . S
C1315 C1316 1.400 . S
C1315 C1320 1.490 . S
C1316 H1306 0.930 1_545 S
C1316 C1315 1.400 . S
C1316 C1319 1.386 . S
H1317 C1333 0.930 . S
H1318 C1334 0.931 . S
C1319 H1307 0.929 . S
C1319 C1313 1.390 . S
C1319 C1316 1.386 . S
C1320 C1315 1.490 . S
C1320 C1322 1.395 . S
C1320 C1323 1.403 1_545 S
H1321 C1327 0.930 . S
C1322 H1308 0.930 . S
C1322 C1320 1.395 . S
C1322 C1325 1.403 1_556 S
C1323 C1320 1.403 1_565 S
C1323 C1324 1.524 . S
C1323 C1327 1.400 1_556 S
C1324 H1309 0.960 . S
C1324 H1310 0.960 . S
C1324 H1311 0.960 . S
C1324 C1323 1.524 . S
C1325 C1322 1.403 1_554 S
C1325 C1326 1.392 1_545 S
C1325 C1329 1.495 . S
C1326 C1325 1.392 1_565 S
C1326 C1327 1.385 . S
C1326 C1328 1.478 . S
C1327 H1321 0.930 . S
C1327 C1323 1.400 1_554 S
C1327 C1326 1.385 . S
C1328 C1326 1.478 . S
C1328 C1330 1.381 . S
C1328 C1334 1.383 . S
C1329 C1325 1.495 . S
C1329 H1335 0.959 . S
C1329 H1336 0.961 . S
C1329 H1337 0.960 . S
C1330 C1328 1.381 . S
C1330 C1331 1.394 . S
C1330 H1338 0.930 1_565 S
C1331 C1330 1.394 . S
C1331 C1332 1.383 . S
C1331 H1339 0.929 . S
C1332 C1331 1.383 . S
C1332 C1333 1.377 . S
C1333 H1317 0.930 . S
C1333 C1332 1.377 . S
C1333 C1334 1.379 . S
C1334 H1318 0.931 . S
C1334 C1328 1.383 . S
C1334 C1333 1.379 . S
H1335 C1329 0.959 . S
H1336 C1329 0.961 . S
H1337 C1329 0.960 . S
H1338 C1330 0.930 1_545 S
H1339 C1331 0.929 . S
H1340 C1348 0.929 . S
H1341 C1350 0.930 . S
H1342 C1352 0.930 . S
H1343 C1355 0.929 . S
H1344 C1358 0.930 . S
H1345 C1360 0.960 . S
H1346 C1360 0.960 . S
H1347 C1360 0.960 . S
C1348 H1340 0.929 . S
C1348 C1349 1.377 . S
C1348 C1350 1.384 . S
C1349 C1348 1.377 . S
C1349 C1355 1.390 . S
C1350 H1341 0.930 . S
C1350 C1348 1.384 . S
C1350 C1351 1.372 . S
C1351 C1350 1.372 . S
C1351 C1352 1.400 . S
C1351 C1356 1.490 . S
C1352 H1342 0.930 . S
C1352 C1351 1.400 . S
C1352 C1355 1.386 . S
H1353 C1369 0.930 . S
H1354 C1370 0.931 . S
C1355 H1343 0.929 . S
C1355 C1349 1.390 . S
C1355 C1352 1.386 . S
C1356 C1351 1.490 . S
C1356 C1358 1.395 . S
C1356 C1359 1.403 1_655 S
H1357 C1363 0.930 . S
C1358 H1344 0.930 . S
C1358 C1356 1.395 . S
C1358 C1361 1.403 1_556 S
C1359 C1356 1.403 1_455 S
C1359 C1360 1.524 . S
C1359 C1363 1.400 1_556 S
C1360 H1345 0.960 . S
C1360 H1346 0.960 . S
C1360 H1347 0.960 . S
C1360 C1359 1.524 . S
C1361 C1358 1.403 1_554 S
C1361 C1362 1.392 1_655 S
C1361 C1365 1.495 . S
C1362 C1361 1.392 1_455 S
C1362 C1363 1.385 . S
C1362 C1364 1.478 . S
C1363 H1357 0.930 . S
C1363 C1359 1.400 1_554 S
C1363 C1362 1.385 . S
C1364 C1362 1.478 . S
C1364 C1366 1.381 . S
C1364 C1370 1.383 . S
C1365 C1361 1.495 . S
C1365 H1371 0.959 . S
C1365 H1372 0.961 . S
C1365 H1373 0.960 . S
C1366 C1364 1.381 . S
C1366 C1367 1.394 . S
C1366 H1374 0.930 . S
C1367 C1366 1.394 . S
C1367 C1368 1.383 . S
C1367 H1375 0.929 . S
C1368 C1367 1.383 . S
C1368 C1369 1.377 . S
C1369 H1353 0.930 . S
C1369 C1368 1.377 . S
C1369 C1370 1.379 . S
C1370 H1354 0.931 . S
C1370 C1364 1.383 . S
C1370 C1369 1.379 . S
H1371 C1365 0.959 . S
H1372 C1365 0.961 . S
H1373 C1365 0.960 . S
H1374 C1366 0.930 . S
H1375 C1367 0.929 . S
C233 C11 1.193 . S
C252 C103 1.185 . S
C269 C19 1.146 . S
C288 C67 1.170 . S
C305 C75 1.151 . S
C324 C39 1.168 . S
C341 C47 1.150 . S
C360 C95 1.196 . S
C377 C123 1.201 . S
C396 C215 1.095 . S
C413 C179 1.192 . S
C432 C131 1.183 . S
C449 C187 1.141 . S
C468 C151 1.179 . S
C485 C207 1.201 . S
C504 C159 1.095 . S
C521 C4 1.137 . S
C540 C158 1.153 . S
C557 C26 0.850 . S
C576 C117 0.787 . S
C593 C130 1.130 . S
C612 C32 1.121 . S
C629 C54 0.852 . S
C648 C145 0.803 . S
C665 C60 1.136 . S
C684 C186 1.148 . S
C701 C201 0.822 . S
C720 C82 0.884 . S
C737 C88 1.145 . S
C756 C214 1.091 . S
C773 C173 0.822 . S
C792 C110 0.888 . S
C809 C116 1.145 . S
C828 C46 1.089 . S
C845 C5 0.787 . S
C864 C138 0.797 . S
C881 C144 1.142 . S
C900 C18 1.090 . S
C917 C33 0.815 . S
C936 C166 0.899 . S
C953 C172 1.140 . S
C972 C74 1.101 . S
C989 C89 0.792 . S
C1008 C194 0.784 . S
C1025 C102 1.118 . S
C1044 C200 1.162 . S
C1061 C61 0.786 . S
C1080 C222 0.812 . S
C1097 C68 1.407 . S
C1116 C12 1.405 . S
C1133 C81 1.738 . S
C1152 C25 1.725 . S
C1169 C40 1.406 . S
C1188 C96 1.408 . S
C1205 C109 1.731 . S
C1224 C53 1.740 . S
C1241 C180 1.408 . S
C1260 C124 1.399 . S
C1277 C193 1.737 . S
C1296 C137 1.713 . S
C1313 C152 1.407 . S
C1332 C208 1.398 . S
C1349 C221 1.736 . S
C1368 C165 1.714 . S
