# Generated by pormake.
# Topology ilc, (8)-cn, num edge types: 1
# Building blocks:
#     Node 0, Type 0, BuildingBlock: XADDAJ01_clean_sbu_3, # of connection points: 8
#     Node 1, Type 0, BuildingBlock: XADDAJ01_clean_sbu_3, # of connection points: 8
#     Node 2, Type 0, BuildingBlock: XADDAJ01_clean_sbu_3, # of connection points: 8
#     Edge 3, Type (0, 0), BuildingBlock: TEMPAE_clean_linker_10, # of connection points: 2
#     Edge 4, Type (0, 0), BuildingBlock: TEMPAE_clean_linker_10, # of connection points: 2
#     Edge 5, Type (0, 0), BuildingBlock: TEMPAE_clean_linker_10, # of connection points: 2
#     Edge 6, Type (0, 0), BuildingBlock: TEMPAE_clean_linker_10, # of connection points: 2
#     Edge 7, Type (0, 0), BuildingBlock: TEMPAE_clean_linker_10, # of connection points: 2
#     Edge 8, Type (0, 0), BuildingBlock: TEMPAE_clean_linker_10, # of connection points: 2
#     Edge 9, Type (0, 0), BuildingBlock: TEMPAE_clean_linker_10, # of connection points: 2
#     Edge 10, Type (0, 0), BuildingBlock: TEMPAE_clean_linker_10, # of connection points: 2
#     Edge 11, Type (0, 0), BuildingBlock: TEMPAE_clean_linker_10, # of connection points: 2
#     Edge 12, Type (0, 0), BuildingBlock: TEMPAE_clean_linker_10, # of connection points: 2
#     Edge 13, Type (0, 0), BuildingBlock: TEMPAE_clean_linker_10, # of connection points: 2
#     Edge 14, Type (0, 0), BuildingBlock: TEMPAE_clean_linker_10, # of connection points: 2
# Relax obj value: 0.162
# Max RMSD: 0.201
# Mean RMSD: 0.201
data_MOF--net-ilc--node1-XADDAJ01_clean_sbu_3--edge1-TEMPAE_clean_linker_10
_symmetry_space_group_name_H-M    P1
_symmetry_Int_Tables_number       1
_symmetry_cell_setting            triclinic
loop_
_symmetry_equiv_pos_as_xyz
'x, y, z'
_cell_length_a     22.223557
_cell_length_b     30.087606
_cell_length_c     19.605727
_cell_angle_alpha  101.6975
_cell_angle_beta   75.342749
_cell_angle_gamma 140.99311
loop_
_atom_site_label
_atom_site_type_symbol
_atom_site_fract_x
_atom_site_fract_y
_atom_site_fract_z
_atom_type_partial_charge
C0 C 0.17649 0.03808 0.1327 0.0
C1 C 0.0986 1.00634 0.18764 0.0
C2 C 0.08178 0.97303 0.24257 0.0
C3 C 0.14181 0.97018 0.24122 0.0
C4 C 0.22196 1.00387 0.1888 0.0
C5 C 0.23971 0.03796 0.13372 0.0
O6 O 0.96944 1.02583 0.11516 0.0
Tb7 Tb 0.11717 0.10189 0.05844 0.0
Tb8 Tb 0.95357 0.96042 0.95364 0.0
O9 O 0.16616 0.19105 0.12368 0.0
O10 O 0.9061 0.92365 0.06059 0.0
O11 O 0.22745 0.13445 0.09589 0.0
C12 C 0.89123 0.99774 0.93106 0.0
O13 O 0.12182 0.03354 0.04051 0.0
O14 O 0.10322 0.03574 0.90202 0.0
O15 O 0.16242 0.13756 0.95153 0.0
C16 C 0.19324 0.07419 0.07703 0.0
C17 C 0.97364 0.87655 0.8549 0.0
O18 O 0.053 0.9205 0.88263 0.0
C19 C 0.90664 0.9571 0.11603 0.0
C20 C 0.16259 0.10328 0.89806 0.0
O21 O 0.91441 0.87865 0.87743 0.0
C22 C 0.90721 1.02504 0.86595 0.0
C23 C 0.90225 0.08294 0.79989 0.0
C24 C 0.89119 0.06232 0.8651 0.0
C25 C 0.93429 1.00931 0.8023 0.0
C26 C 0.94226 0.02796 0.7386 0.0
C27 C 0.93008 0.06677 0.73763 0.0
C28 C 0.11922 0.20335 0.13235 0.0
O29 O 0.0451 0.1626 0.09895 0.0
O30 O 0.8412 0.93168 0.92691 0.0
O31 O 0.96853 0.0393 0.96069 0.0
H32 H 0.05351 1.01002 0.18905 0.0
H33 H 0.13179 0.9471 0.28516 0.0
H34 H 0.30258 0.06515 0.09336 0.0
H35 H 0.86729 0.07275 0.91382 0.0
H36 H 0.94307 0.97847 0.80203 0.0
H37 H 0.93596 0.08033 0.68711 0.0
C38 C 0.88712 0.39706 0.50362 0.0
C39 C 0.89586 0.44256 0.5526 0.0
C40 C 0.89811 0.44302 0.62306 0.0
C41 C 0.88785 0.39614 0.64598 0.0
C42 C 0.87422 0.34764 0.59979 0.0
C43 C 0.87611 0.34923 0.52738 0.0
O44 O 0.69301 0.37825 0.42791 0.0
Tb45 Tb 0.84046 0.43989 0.38152 0.0
Tb46 Tb 0.65436 0.28944 0.28126 0.0
O47 O 0.89421 0.52937 0.45003 0.0
O48 O 0.61242 0.267 0.39313 0.0
O49 O 0.95066 0.46473 0.40571 0.0
C50 C 0.59683 0.32794 0.25011 0.0
O51 O 0.80314 0.35592 0.40961 0.0
O52 O 0.79943 0.35048 0.22804 0.0
O53 O 0.88283 0.46172 0.26818 0.0
C54 C 0.88817 0.40049 0.42883 0.0
C55 C 0.62946 0.17396 0.21942 0.0
O56 O 0.69756 0.20882 0.25725 0.0
C57 C 0.62419 0.31032 0.44077 0.0
C58 C 0.86941 0.41885 0.21831 0.0
O59 O 0.59366 0.1944 0.22208 0.0
C60 C 0.60564 0.35789 0.19179 0.0
C61 C 0.53856 0.37347 0.13277 0.0
C62 C 0.52747 0.34098 0.1852 0.0
C63 C 0.69168 0.40394 0.14287 0.0
C64 C 0.70252 0.43739 0.09207 0.0
C65 C 0.62744 0.42393 0.08969 0.0
C66 C 0.86822 0.5569 0.45215 0.0
O67 O 0.81468 0.53474 0.40649 0.0
O68 O 0.54911 0.26265 0.24236 0.0
O69 O 0.67481 0.3698 0.2793 0.0
H70 H 0.90266 0.47862 0.53588 0.0
H71 H 0.89043 0.39754 0.70094 0.0
H72 H 0.86767 0.31317 0.4903 0.0
H73 H 0.45896 0.30269 0.21983 0.0
H74 H 0.74879 0.41268 0.14367 0.0
H75 H 0.63465 0.44772 0.04844 0.0
C76 C 0.44814 0.61929 0.84097 0.0
C77 C 0.42818 0.63825 0.90623 0.0
C78 C 0.40713 0.60989 0.96881 0.0
C79 C 0.40926 0.56439 0.96585 0.0
C80 C 0.42822 0.54444 0.90141 0.0
C81 C 0.44848 0.57226 0.83847 0.0
O82 O 0.34241 0.68682 0.7332 0.0
Tb83 Tb 0.47578 0.72976 0.74385 0.0
Tb84 Tb 0.28462 0.66298 0.59027 0.0
O85 O 0.50779 0.80015 0.83255 0.0
O86 O 0.20881 0.59687 0.68361 0.0
O87 O 0.54701 0.71501 0.76526 0.0
C88 C 0.23815 0.7171 0.58909 0.0
O89 O 0.39122 0.62599 0.76165 0.0
O90 O 0.42674 0.74148 0.62049 0.0
O91 O 0.54538 0.76387 0.63347 0.0
C92 C 0.46533 0.64693 0.7757 0.0
C93 C 0.23003 0.54087 0.50547 0.0
O94 O 0.19956 0.51851 0.5702 0.0
C95 C 0.25605 0.62035 0.73555 0.0
C96 C 0.49828 0.75379 0.59055 0.0
O97 O 0.26822 0.60178 0.49634 0.0
C98 C 0.1982 0.71617 0.53886 0.0
C99 C 0.20776 0.78056 0.46914 0.0
C100 C 0.22632 0.7761 0.52951 0.0
C101 C 0.15238 0.66209 0.48831 0.0
C102 C 0.15009 0.67293 0.42372 0.0
C103 C 0.16662 0.72736 0.41769 0.0
C104 C 0.52958 0.85416 0.8249 0.0
O105 O 0.54136 0.86988 0.76134 0.0
O106 O 0.18038 0.65629 0.61835 0.0
O107 O 0.32558 0.74923 0.56617 0.0
H108 H 0.42606 0.67322 0.90783 0.0
H109 H 0.39424 0.54308 0.01432 0.0
H110 H 0.46269 0.55665 0.78829 0.0
H111 H 0.26741 0.82034 0.56604 0.0
H112 H 0.13802 0.61899 0.49274 0.0
H113 H 0.16433 0.73584 0.36762 0.0
C114 C 0.85938 0.94611 0.64081 0.0
C115 C 0.94205 0.99486 0.67285 0.0
C116 C 0.86196 0.9255 0.57104 0.0
C117 C 0.94917 0.95426 0.53279 0.0
C118 C 1.02962 0.99707 0.56777 0.0
C119 C 1.02516 1.01717 0.63821 0.0
C120 C 0.77163 0.87543 0.53916 0.0
C121 C 0.12228 1.02562 0.52936 0.0
C122 C 0.96611 0.8958 0.34697 0.0
C123 C 1.01767 0.95501 0.30917 0.0
C124 C 0.93888 0.89286 0.42005 0.0
C125 C 0.96189 0.94958 0.45506 0.0
C126 C 1.00222 1.00469 0.41585 0.0
C127 C 1.02976 1.00678 0.34299 0.0
C128 C 0.89269 0.83219 0.46031 0.0
C129 C 1.02316 0.06432 0.45154 0.0
H130 H 0.79402 0.92726 0.66917 0.0
H131 H 0.08768 0.05309 0.66467 0.0
H132 H 0.78092 0.86446 0.48277 0.0
H133 H 0.71486 0.82499 0.56811 0.0
H134 H 0.74594 0.89649 0.54601 0.0
H135 H 0.1068 0.98351 0.49705 0.0
H136 H 0.1606 0.06809 0.49319 0.0
H137 H 0.17104 0.04783 0.56645 0.0
H138 H 0.95525 0.8551 0.32032 0.0
H139 H 0.06917 0.05248 0.31395 0.0
H140 H 0.82628 0.80912 0.49597 0.0
H141 H 0.9436 0.85198 0.49363 0.0
H142 H 0.8735 0.78994 0.42469 0.0
H143 H 0.04663 0.09959 0.41301 0.0
H144 H 0.08132 0.09647 0.48389 0.0
H145 H 0.9578 0.04283 0.48754 0.0
C146 C 0.82994 0.47609 0.70053 0.0
C147 C 0.90853 0.49043 0.67556 0.0
C148 C 0.82055 0.49722 0.76906 0.0
C149 C 0.89045 0.53179 0.81212 0.0
C150 C 0.97921 0.55979 0.78095 0.0
C151 C 0.98587 0.53652 0.71346 0.0
C152 C 0.72934 0.4733 0.79838 0.0
C153 C 0.06046 0.60395 0.82244 0.0
C154 C 0.82989 0.53887 0.01047 0.0
C155 C 0.77845 0.4726 0.02994 0.0
C156 C 0.87025 0.56077 0.94 0.0
C157 C 0.8575 0.5147 0.88818 0.0
C158 C 0.80904 0.44896 0.90846 0.0
C159 C 0.77209 0.42957 0.97935 0.0
C160 C 0.91722 0.62966 0.92107 0.0
C161 C 0.78925 0.39631 0.85479 0.0
H162 H 0.77075 0.44151 0.67046 0.0
H163 H 0.04623 0.54721 0.69404 0.0
H164 H 0.73845 0.50467 0.84553 0.0
H165 H 0.70787 0.47822 0.75784 0.0
H166 H 0.66991 0.41689 0.81333 0.0
H167 H 0.0625 0.6363 0.86348 0.0
H168 H 0.04942 0.56849 0.84882 0.0
H169 H 0.13141 0.63926 0.78725 0.0
H170 H 0.8315 0.57093 0.04944 0.0
H171 H 0.72937 0.37741 0.99411 0.0
H172 H 0.86012 0.62041 0.91392 0.0
H173 H 0.96974 0.6521 0.8715 0.0
H174 H 0.9547 0.66919 0.96426 0.0
H175 H 0.73754 0.37603 0.82201 0.0
H176 H 0.75753 0.35032 0.87969 0.0
H177 H 0.85695 0.42213 0.81927 0.0
C178 C 0.42307 0.68987 0.05817 0.0
C179 C 0.37421 0.62199 0.03697 0.0
C180 C 0.3873 0.70018 0.1207 0.0
C181 C 0.30162 0.64112 0.16289 0.0
C182 C 0.25447 0.573 0.14301 0.0
C183 C 0.29121 0.56422 0.08021 0.0
C184 C 0.44241 0.77428 0.14133 0.0
C185 C 0.16532 0.50945 0.18837 0.0
C186 C 0.24886 0.66228 0.35658 0.0
C187 C 0.17436 0.65154 0.35923 0.0
C188 C 0.29288 0.66132 0.29265 0.0
C189 C 0.26218 0.64946 0.22985 0.0
C190 C 0.18817 0.63952 0.23204 0.0
C191 C 0.14297 0.63855 0.29688 0.0
C192 C 0.37532 0.6763 0.29184 0.0
C193 C 0.16081 0.63406 0.16585 0.0
H194 H 0.48842 0.73468 0.02539 0.0
H195 H 0.25349 0.51165 0.06406 0.0
H196 H 0.39399 0.77528 0.17157 0.0
H197 H 0.4956 0.79807 0.17488 0.0
H198 H 0.48363 0.80808 0.09414 0.0
H199 H 0.13411 0.45953 0.16338 0.0
H200 H 0.18383 0.51609 0.23993 0.0
H201 H 0.10929 0.50495 0.19941 0.0
H202 H 0.27744 0.67594 0.404 0.0
H203 H 0.08721 0.63197 0.29863 0.0
H204 H 0.44193 0.72486 0.26151 0.0
H205 H 0.35936 0.63262 0.2647 0.0
H206 H 0.38991 0.68376 0.34561 0.0
H207 H 0.2253 0.68297 0.13507 0.0
H208 H 0.10234 0.62709 0.17629 0.0
H209 H 0.13708 0.58889 0.13435 0.0
C210 C 0.34285 0.89431 0.40631 0.0
C211 C 0.25067 0.84601 0.44746 0.0
C212 C 0.37033 0.93852 0.35834 0.0
C213 C 0.30441 0.9349 0.35246 0.0
C214 C 0.21528 0.89142 0.39937 0.0
C215 C 0.18895 0.84668 0.44547 0.0
C216 C 0.46574 0.98395 0.30955 0.0
C217 C 0.14339 0.88693 0.39631 0.0
C218 C 0.34511 0.05417 0.25453 0.0
C219 C 0.28878 1.00776 0.20112 0.0
C220 C 0.36059 0.03472 0.30092 0.0
C221 C 0.32099 0.96832 0.29211 0.0
C222 C 0.27905 0.92732 0.23082 0.0
C223 C 0.26273 0.94736 0.18621 0.0
C224 C 0.40718 0.08069 0.36453 0.0
C225 C 0.23905 0.85734 0.21757 0.0
H226 H 0.3894 0.8922 0.40632 0.0
H227 H 0.11656 0.80768 0.47535 0.0
H228 H 0.45267 0.96196 0.25514 0.0
H229 H 0.50456 0.03819 0.30784 0.0
H230 H 0.51317 0.9869 0.32585 0.0
H231 H 0.1123 0.85999 0.34667 0.0
H232 H 0.0831 0.85714 0.44136 0.0
H233 H 0.17964 0.94053 0.39641 0.0
H234 H 0.36461 0.10068 0.26644 0.0
H235 H 0.21862 0.91118 0.14525 0.0
H236 H 0.45782 0.08444 0.37485 0.0
H237 H 0.35039 0.05695 0.41161 0.0
H238 H 0.44699 0.13467 0.35788 0.0
H239 H 0.22562 0.83878 0.16229 0.0
H240 H 0.16948 0.81716 0.25326 0.0
H241 H 0.28929 0.861 0.22878 0.0
C242 C 0.27558 0.5253 0.37848 0.0
C243 C 0.22097 0.49707 0.44552 0.0
C244 C 0.26827 0.4836 0.32313 0.0
C245 C 0.2031 0.41133 0.33457 0.0
C246 C 0.14792 0.3827 0.40222 0.0
C247 C 0.15937 0.42621 0.45683 0.0
C248 C 0.33033 0.51696 0.25254 0.0
C249 C 0.07784 0.30642 0.41851 0.0
C250 C 0.09801 0.27448 0.18605 0.0
C251 C 0.14697 0.26086 0.18016 0.0
C252 C 0.11918 0.32586 0.2333 0.0
C253 C 0.191 0.36486 0.27635 0.0
C254 C 0.24242 0.35266 0.26945 0.0
C255 C 0.21983 0.3009 0.22157 0.0
C256 C 0.05979 0.3348 0.24051 0.0
C257 C 0.31886 0.39253 0.31467 0.0
H258 H 0.3262 0.58045 0.36998 0.0
H259 H 0.11987 0.40449 0.50892 0.0
H260 H 0.39342 0.57527 0.25671 0.0
H261 H 0.35755 0.49748 0.22923 0.0
H262 H 0.28649 0.50261 0.2158 0.0
H263 H 0.11293 0.30365 0.4458 0.0
H264 H 1.01217 0.28443 0.45416 0.0
H265 H 0.05401 0.27181 0.37114 0.0
H266 H 0.04142 0.24395 0.15455 0.0
H267 H 0.25778 0.29068 0.21783 0.0
H268 H 0.10602 0.39136 0.24564 0.0
H269 H 1.00563 0.30813 0.28923 0.0
H270 H 1.02079 0.31154 0.19495 0.0
H271 H 0.35764 0.3812 0.29938 0.0
H272 H 0.28465 0.37778 0.37068 0.0
H273 H 0.37228 0.4502 0.31082 0.0
C274 C 0.57555 0.74622 0.47873 0.0
C275 C 0.52998 0.76182 0.51287 0.0
C276 C 0.62567 0.76874 0.40927 0.0
C277 C 0.62745 0.80574 0.37218 0.0
C278 C 0.57065 0.81324 0.4036 0.0
C279 C 0.52393 0.79216 0.47379 0.0
C280 C 0.6817 0.75676 0.37758 0.0
C281 C 0.5616 0.84625 0.36526 0.0
C282 C 0.85184 0.95318 0.24526 0.0
C283 C 0.8345 0.91726 0.18072 0.0
C284 C 0.78512 0.91741 0.30726 0.0
C285 C 0.69713 0.84346 0.30514 0.0
C286 C 0.67882 0.80687 0.23964 0.0
C287 C 0.74807 0.8441 0.17858 0.0
C288 C 0.81016 0.95931 0.37522 0.0
C289 C 0.58675 0.72867 0.23204 0.0
H290 H 0.57715 0.72022 0.50789 0.0
H291 H 0.48737 0.80331 0.49909 0.0
H292 H 0.64625 0.717 0.33445 0.0
H293 H 0.75662 0.80631 0.35467 0.0
H294 H 0.6853 0.73728 0.41699 0.0
H295 H 0.48556 0.81592 0.37556 0.0
H296 H 0.60635 0.90047 0.386 0.0
H297 H 0.58418 0.8487 0.30744 0.0
H298 H 0.91876 1.00962 0.24764 0.0
H299 H 0.73345 0.81576 0.12885 0.0
H300 H 0.80197 0.93402 0.41639 0.0
H301 H 0.7603 0.9607 0.39424 0.0
H302 H 0.88514 1.01468 0.36889 0.0
H303 H 0.60464 0.70212 0.213 0.0
H304 H 0.55103 0.71939 0.19124 0.0
H305 H 0.53469 0.70345 0.28166 0.0
C306 C 0.91725 0.29103 0.59985 0.0
C307 C 0.86112 0.29829 0.63012 0.0
C308 C 0.91989 0.25642 0.63554 0.0
C309 C 0.8615 0.22548 0.70225 0.0
C310 C 0.80121 0.22996 0.73172 0.0
C311 C 0.80184 0.26619 0.6955 0.0
C312 C 0.98617 0.25391 0.60113 0.0
C313 C 0.73653 0.19702 0.80184 0.0
C314 C 0.80829 0.07965 0.74736 0.0
C315 C 0.87631 0.11446 0.79166 0.0
C316 C 0.79885 0.11391 0.72145 0.0
C317 C 0.86013 0.18561 0.73917 0.0
C318 C 0.92581 0.22028 0.78688 0.0
C319 C 0.93294 0.18414 0.8128 0.0
C320 C 0.7274 0.07443 0.67144 0.0
C321 C 0.99427 0.29719 0.8058 0.0
H322 H 0.96195 0.3149 0.54945 0.0
H323 H 0.75698 0.27065 0.71914 0.0
H324 H 1.00451 0.24413 0.63889 0.0
H325 H 0.95054 0.21111 0.56073 0.0
H326 H 0.05484 0.30445 0.57418 0.0
H327 H 0.69852 0.20893 0.81963 0.0
H328 H 0.68154 0.13886 0.79766 0.0
H329 H 0.77956 0.21626 0.84273 0.0
H330 H 0.76535 1.02604 0.73004 0.0
H331 H 0.98747 0.21191 0.84534 0.0
H332 H 0.7673 0.0958 0.61753 0.0
H333 H 0.68405 0.08189 0.68704 0.0
H334 H 0.67728 1.01694 0.66969 0.0
H335 H 0.05245 0.32986 0.76023 0.0
H336 H 1.02816 0.31303 0.85219 0.0
H337 H 0.95629 0.30901 0.81708 0.0
C338 C 0.88274 0.64825 0.50355 0.0
C339 C 0.89179 0.60793 0.50934 0.0
C340 C 0.8979 0.69295 0.55887 0.0
C341 C 0.92075 0.69673 0.62267 0.0
C342 C 0.93237 0.65744 0.62823 0.0
C343 C 0.91828 0.61393 0.57155 0.0
C344 C 0.8893 0.73617 0.54895 0.0
C345 C 0.958 0.6603 0.69458 0.0
C346 C 1.03727 0.85553 0.74627 0.0
C347 C 0.9575 0.83006 0.79507 0.0
C348 C 1.02647 0.81316 0.69014 0.0
C349 C 0.93348 0.74241 0.68295 0.0
C350 C 0.85253 0.71607 0.73261 0.0
C351 C 0.86524 0.76051 0.78733 0.0
C352 C 0.11483 0.84546 0.6375 0.0
C353 C 0.7526 0.64048 0.72862 0.0
H354 H 0.86351 0.6448 0.45553 0.0
H355 H 0.92553 0.58312 0.57683 0.0
H356 H 0.82919 0.72021 0.58775 0.0
H357 H 0.95674 0.79288 0.55857 0.0
H358 H 0.87574 0.72985 0.4951 0.0
H359 H 0.97684 0.63443 0.68737 0.0
H360 H 1.02018 0.71578 0.71162 0.0
H361 H 0.89561 0.63343 0.73768 0.0
H362 H 0.10874 0.90953 0.75133 0.0
H363 H 0.80345 0.74023 0.82521 0.0
H364 H 0.11584 0.8611 0.59024 0.0
H365 H 0.11391 0.80748 0.62031 0.0
H366 H 0.18286 0.89345 0.65915 0.0
H367 H 0.73192 0.62951 0.67648 0.0
H368 H 0.697 0.62813 0.7704 0.0
H369 H 0.75249 0.60438 0.734 0.0
C370 C 0.48289 0.21058 0.5241 0.0
C371 C 0.55939 0.28292 0.50965 0.0
C372 C 0.42046 0.18396 0.58878 0.0
C373 C 0.43578 0.23112 0.64091 0.0
C374 C 0.5146 0.30448 0.62749 0.0
C375 C 0.57495 0.32944 0.56188 0.0
C376 C 0.34043 0.1055 0.60114 0.0
C377 C 0.53628 0.35676 0.68288 0.0
C378 C 0.22428 0.15822 0.78257 0.0
C379 C 0.23638 0.14156 0.83531 0.0
C380 C 0.28951 0.18833 0.71908 0.0
C381 C 0.36975 0.20372 0.70954 0.0
C382 C 0.38386 0.18933 0.76425 0.0
C383 C 0.31527 0.15649 0.82578 0.0
C384 C 0.27067 0.20124 0.6613 0.0
C385 C 0.47051 0.20766 0.75745 0.0
H386 H 0.47164 0.17442 0.48498 0.0
H387 H 0.63495 0.38567 0.55184 0.0
H388 H 0.36896 0.09397 0.62242 0.0
H389 H 0.27761 0.08595 0.63935 0.0
H390 H 0.31497 0.07523 0.55096 0.0
H391 H 0.4762 0.34803 0.695 0.0
H392 H 0.54227 0.34885 0.73254 0.0
H393 H 0.60424 0.41229 0.6658 0.0
H394 H 0.16198 0.14537 0.79002 0.0
H395 H 0.32364 0.14298 0.86691 0.0
H396 H 0.264 0.17185 0.61288 0.0
H397 H 0.33235 0.25801 0.64783 0.0
H398 H 0.20376 0.18474 0.67646 0.0
H399 H 0.46347 0.17226 0.71783 0.0
H400 H 0.4778 0.20212 0.80819 0.0
H401 H 0.53794 0.2627 0.73882 0.0
C402 C 0.45391 0.39714 0.13704 0.0
C403 C 0.4597 0.35334 0.11344 0.0
C404 C 0.42932 0.4116 0.09343 0.0
C405 C 0.41223 0.38263 0.02423 0.0
C406 C 0.40732 0.3322 1.00349 0.0
C407 C 0.42825 0.31648 0.04937 0.0
C408 C 0.4314 0.46351 0.11874 0.0
C409 C 0.39247 0.3018 0.92981 0.0
C410 C 0.3329 0.42503 0.92932 0.0
C411 C 0.42263 0.49265 0.90413 0.0
C412 C 0.32727 0.3848 0.96305 0.0
C413 C 0.41358 0.41304 0.97157 0.0
C414 C 0.50377 0.47717 0.93763 0.0
C415 C 0.50728 0.51675 0.90487 0.0
C416 C 0.22932 0.31632 0.99634 0.0
C417 C 0.59761 0.50789 0.94244 0.0
H418 H 0.47964 0.42651 0.18594 0.0
H419 H 0.43467 0.28365 0.03049 0.0
H420 H 0.48915 0.51108 0.08507 0.0
H421 H 0.36137 0.43919 0.11472 0.0
H422 H 0.44515 0.48061 0.17406 0.0
H423 H 0.38197 0.25882 0.92465 0.0
H424 H 0.32924 0.28144 0.91504 0.0
H425 H 0.4569 0.34375 0.89177 0.0
H426 H 0.26742 0.40681 0.92933 0.0
H427 H 0.5767 0.56943 0.8862 0.0
H428 H 0.21219 0.32801 0.04989 0.0
H429 H 0.22735 0.27905 1.00076 0.0
H430 H 0.17218 0.29038 0.96581 0.0
H431 H 0.61702 0.53111 0.99579 0.0
H432 H 0.65796 0.54998 0.90291 0.0
H433 H 0.59013 0.46627 0.9345 0.0
C434 C 0.48459 0.86501 0.95376 0.0
C435 C 0.53772 0.89577 0.88701 0.0
C436 C 0.48841 0.90366 0.01136 0.0
C437 C 0.55101 0.97587 1.00313 0.0
C438 C 0.60568 1.00715 0.93607 0.0
C439 C 0.5958 0.96616 0.87868 0.0
C440 C 0.42464 0.86714 0.08071 0.0
C441 C 0.67512 0.08421 0.9249 0.0
C442 C 0.52913 0.07961 0.12792 0.0
C443 C 0.60136 0.1175 0.16919 0.0
C444 C 0.50842 0.03067 0.07609 0.0
C445 C 0.56206 1.01986 0.06439 0.0
C446 C 0.63281 0.05625 0.10751 0.0
C447 C 0.65105 0.10407 0.15949 0.0
C448 C 0.43048 0.99163 0.03281 0.0
C449 C 0.69259 0.04719 0.09656 0.0
H450 H 0.43764 0.8101 0.96044 0.0
H451 H 0.63445 0.98953 0.82711 0.0
H452 H 0.46995 0.88938 0.12109 0.0
H453 H 0.38383 0.8766 0.09973 0.0
H454 H 0.37211 0.80925 0.07645 0.0
H455 H 0.71589 0.10127 0.87061 0.0
H456 H 0.635 0.09425 0.9351 0.0
H457 H 0.72782 0.11743 0.96245 0.0
H458 H 0.49011 0.0893 0.13497 0.0
H459 H 0.70681 0.13271 0.19109 0.0
H460 H 0.37271 0.93398 0.0411 0.0
H461 H 0.46055 1.00134 0.97585 0.0
H462 H 0.39746 1.00755 0.04674 0.0
H463 H 0.64468 0.99056 0.09964 0.0
H464 H 0.74225 0.0772 0.13608 0.0
H465 H 0.73635 0.06554 0.04312 0.0
C466 C 0.24818 0.6186 0.86345 0.0
C467 C 0.20462 0.5817 0.80296 0.0
C468 C 0.1963 0.58987 0.93049 0.0
C469 C 0.09754 0.52186 0.93826 0.0
C470 C 0.05453 0.48198 0.87688 0.0
C471 C 0.10869 0.51236 0.80974 0.0
C472 C 0.24694 0.63487 0.99279 0.0
C473 C 0.95007 0.40891 0.88226 0.0
C474 C 0.96429 0.42261 0.11248 0.0
C475 C 0.92969 0.4464 0.14777 0.0
C476 C 1.021 0.44787 0.04515 0.0
C477 C 1.0386 0.49484 0.01037 0.0
C478 C 1.00156 0.51759 0.04551 0.0
C479 C 0.94849 0.49364 0.11391 0.0
C480 C 0.06248 0.42455 0.01206 0.0
C481 C 1.01647 0.56648 0.0108 0.0
H482 H 0.32218 0.67204 0.85902 0.0
H483 H 0.07442 0.48328 0.76306 0.0
H484 H 0.22619 0.65891 0.0159 0.0
H485 H 0.22592 0.60218 0.03286 0.0
H486 H 0.32672 0.67895 0.97788 0.0
H487 H 0.92424 0.38793 0.83038 0.0
H488 H 0.94081 0.37217 0.90331 0.0
H489 H 0.90382 0.40923 0.9199 0.0
H490 H 0.94922 0.38559 0.13846 0.0
H491 H 0.92107 0.5116 0.14081 0.0
H492 H 0.13601 0.46791 0.98192 0.0
H493 H 1.01536 0.37992 0.97517 0.0
H494 H 0.06631 0.4059 0.05232 0.0
H495 H 0.09358 0.61422 0.99025 0.0
H496 H 0.98974 0.58348 0.04716 0.0
H497 H 0.97744 0.53869 0.96511 0.0
loop_
_geom_bond_atom_site_label_1
_geom_bond_atom_site_label_2
_geom_bond_distance
_geom_bond_site_symmetry_2
_ccdc_geom_bond_type
C0 C1 1.386 . S
C0 C5 1.384 1_545 S
C0 C16 1.497 . S
C1 C0 1.386 . S
C1 C2 1.393 1_545 S
C1 H32 0.932 . S
C2 C1 1.393 1_565 S
C2 C3 1.387 . S
C3 C2 1.387 . S
C3 C4 1.392 . S
C3 H33 0.930 . S
C4 C3 1.392 . S
C4 C5 1.402 . S
C5 C0 1.384 1_565 S
C5 C4 1.402 . S
C5 H34 0.930 . S
O6 Tb7 2.288 1_655 S
O6 C19 1.257 1_545 S
Tb7 O6 2.288 1_455 S
Tb7 O9 2.303 . S
Tb7 O11 2.430 . S
Tb7 O13 2.459 . S
Tb7 O15 2.301 1_554 S
Tb7 C16 2.808 . S
Tb8 O10 2.301 1_556 S
Tb8 C12 2.808 . S
Tb8 O14 2.288 1_655 S
Tb8 O21 2.303 . S
Tb8 O30 2.430 . S
Tb8 O31 2.459 . S
O9 Tb7 2.303 . S
O9 C28 1.255 . S
O10 Tb8 2.301 1_554 S
O10 C19 1.237 . S
O11 Tb7 2.430 . S
O11 C16 1.248 . S
C12 Tb8 2.808 . S
C12 C22 1.497 . S
C12 O30 1.248 . S
C12 O31 1.260 . S
O13 Tb7 2.459 . S
O13 C16 1.260 . S
O14 Tb8 2.288 1_455 S
O14 C20 1.257 1_565 S
O15 Tb7 2.301 1_556 S
O15 C20 1.237 . S
C16 C0 1.497 . S
C16 Tb7 2.808 . S
C16 O11 1.248 . S
C16 O13 1.260 . S
C17 O18 1.255 . S
C17 O21 1.255 . S
O18 C17 1.255 . S
C19 O6 1.257 1_565 S
C19 O10 1.237 . S
C20 O14 1.257 1_545 S
C20 O15 1.237 . S
O21 Tb8 2.303 . S
O21 C17 1.255 . S
C22 C12 1.497 . S
C22 C24 1.384 1_565 S
C22 C25 1.386 . S
C23 C24 1.402 . S
C23 C27 1.392 . S
C24 C22 1.384 1_545 S
C24 C23 1.402 . S
C24 H35 0.930 . S
C25 C22 1.386 . S
C25 C26 1.393 1_565 S
C25 H36 0.932 . S
C26 C25 1.393 1_545 S
C26 C27 1.387 . S
C27 C23 1.392 . S
C27 C26 1.387 . S
C27 H37 0.930 . S
C28 O9 1.255 . S
C28 O29 1.255 . S
O29 C28 1.255 . S
O30 Tb8 2.430 . S
O30 C12 1.248 . S
O31 Tb8 2.459 . S
O31 C12 1.260 . S
H32 C1 0.932 . S
H33 C3 0.930 . S
H34 C5 0.930 . S
H35 C24 0.930 . S
H36 C25 0.932 . S
H37 C27 0.930 . S
C38 C39 1.386 . S
C38 C43 1.384 . S
C38 C54 1.497 . S
C39 C38 1.386 . S
C39 C40 1.393 . S
C39 H70 0.932 . S
C40 C39 1.393 . S
C40 C41 1.387 . S
C41 C40 1.387 . S
C41 C42 1.392 . S
C41 H71 0.930 . S
C42 C41 1.392 . S
C42 C43 1.402 . S
C43 C38 1.384 . S
C43 C42 1.402 . S
C43 H72 0.930 . S
O44 Tb45 2.288 . S
O44 C57 1.257 . S
Tb45 O44 2.288 . S
Tb45 O47 2.303 . S
Tb45 O49 2.430 . S
Tb45 O51 2.459 . S
Tb45 O53 2.301 . S
Tb45 C54 2.808 . S
Tb46 O48 2.301 . S
Tb46 C50 2.808 . S
Tb46 O52 2.288 . S
Tb46 O59 2.303 . S
Tb46 O68 2.430 . S
Tb46 O69 2.459 . S
O47 Tb45 2.303 . S
O47 C66 1.255 . S
O48 Tb46 2.301 . S
O48 C57 1.237 . S
O49 Tb45 2.430 . S
O49 C54 1.248 . S
C50 Tb46 2.808 . S
C50 C60 1.497 . S
C50 O68 1.248 . S
C50 O69 1.260 . S
O51 Tb45 2.459 . S
O51 C54 1.260 . S
O52 Tb46 2.288 . S
O52 C58 1.257 . S
O53 Tb45 2.301 . S
O53 C58 1.237 . S
C54 C38 1.497 . S
C54 Tb45 2.808 . S
C54 O49 1.248 . S
C54 O51 1.260 . S
C55 O56 1.255 . S
C55 O59 1.255 . S
O56 C55 1.255 . S
C57 O44 1.257 . S
C57 O48 1.237 . S
C58 O52 1.257 . S
C58 O53 1.237 . S
O59 Tb46 2.303 . S
O59 C55 1.255 . S
C60 C50 1.497 . S
C60 C62 1.384 . S
C60 C63 1.386 . S
C61 C62 1.402 . S
C61 C65 1.392 . S
C62 C60 1.384 . S
C62 C61 1.402 . S
C62 H73 0.930 . S
C63 C60 1.386 . S
C63 C64 1.393 . S
C63 H74 0.932 . S
C64 C63 1.393 . S
C64 C65 1.387 . S
C65 C61 1.392 . S
C65 C64 1.387 . S
C65 H75 0.930 . S
C66 O47 1.255 . S
C66 O67 1.255 . S
O67 C66 1.255 . S
O68 Tb46 2.430 . S
O68 C50 1.248 . S
O69 Tb46 2.459 . S
O69 C50 1.260 . S
H70 C39 0.932 . S
H71 C41 0.930 . S
H72 C43 0.930 . S
H73 C62 0.930 . S
H74 C63 0.932 . S
H75 C65 0.930 . S
C76 C77 1.386 . S
C76 C81 1.384 . S
C76 C92 1.497 . S
C77 C76 1.386 . S
C77 C78 1.393 . S
C77 H108 0.932 . S
C78 C77 1.393 . S
C78 C79 1.387 . S
C79 C78 1.387 . S
C79 C80 1.392 . S
C79 H109 0.930 . S
C80 C79 1.392 . S
C80 C81 1.402 . S
C81 C76 1.384 . S
C81 C80 1.402 . S
C81 H110 0.930 . S
O82 Tb83 2.288 . S
O82 C95 1.257 . S
Tb83 O82 2.288 . S
Tb83 O85 2.303 . S
Tb83 O87 2.430 . S
Tb83 O89 2.459 . S
Tb83 O91 2.301 . S
Tb83 C92 2.808 . S
Tb84 O86 2.301 . S
Tb84 C88 2.808 . S
Tb84 O90 2.288 . S
Tb84 O97 2.303 . S
Tb84 O106 2.430 . S
Tb84 O107 2.459 . S
O85 Tb83 2.303 . S
O85 C104 1.255 . S
O86 Tb84 2.301 . S
O86 C95 1.237 . S
O87 Tb83 2.430 . S
O87 C92 1.248 . S
C88 Tb84 2.808 . S
C88 C98 1.497 . S
C88 O106 1.248 . S
C88 O107 1.260 . S
O89 Tb83 2.459 . S
O89 C92 1.260 . S
O90 Tb84 2.288 . S
O90 C96 1.257 . S
O91 Tb83 2.301 . S
O91 C96 1.237 . S
C92 C76 1.497 . S
C92 Tb83 2.808 . S
C92 O87 1.248 . S
C92 O89 1.260 . S
C93 O94 1.255 . S
C93 O97 1.255 . S
O94 C93 1.255 . S
C95 O82 1.257 . S
C95 O86 1.237 . S
C96 O90 1.257 . S
C96 O91 1.237 . S
O97 Tb84 2.303 . S
O97 C93 1.255 . S
C98 C88 1.497 . S
C98 C100 1.384 . S
C98 C101 1.386 . S
C99 C100 1.402 . S
C99 C103 1.392 . S
C100 C98 1.384 . S
C100 C99 1.402 . S
C100 H111 0.930 . S
C101 C98 1.386 . S
C101 C102 1.393 . S
C101 H112 0.932 . S
C102 C101 1.393 . S
C102 C103 1.387 . S
C103 C99 1.392 . S
C103 C102 1.387 . S
C103 H113 0.930 . S
C104 O85 1.255 . S
C104 O105 1.255 . S
O105 C104 1.255 . S
O106 Tb84 2.430 . S
O106 C88 1.248 . S
O107 Tb84 2.459 . S
O107 C88 1.260 . S
H108 C77 0.932 . S
H109 C79 0.930 . S
H110 C81 0.930 . S
H111 C100 0.930 . S
H112 C101 0.932 . S
H113 C103 0.930 . S
C114 C115 1.391 1_565 S
C114 C116 1.394 . S
C114 H130 0.931 . S
C115 C114 1.391 1_545 S
C115 C119 1.370 1_655 S
C116 C114 1.394 . S
C116 C117 1.369 1_565 S
C116 C120 1.531 . S
C117 C116 1.369 1_545 S
C117 C118 1.410 1_655 S
C117 C125 1.503 1_655 S
C118 C117 1.410 1_455 S
C118 C119 1.395 . S
C118 C121 1.511 . S
C119 C115 1.370 1_455 S
C119 C118 1.395 . S
C119 H131 0.932 . S
C120 C116 1.531 . S
C120 H132 0.960 . S
C120 H133 0.962 . S
C120 H134 0.960 . S
C121 C118 1.511 . S
C121 H135 0.961 . S
C121 H136 0.961 . S
C121 H137 0.961 . S
C122 C123 1.370 . S
C122 C124 1.363 . S
C122 H138 0.931 . S
C123 C122 1.370 . S
C123 C127 1.408 1_565 S
C124 C122 1.363 . S
C124 C125 1.370 1_565 S
C124 C128 1.524 1_455 S
C125 C117 1.503 1_455 S
C125 C124 1.370 1_545 S
C125 C126 1.403 . S
C126 C125 1.403 . S
C126 C127 1.404 . S
C126 C129 1.539 . S
C127 C123 1.408 1_545 S
C127 C126 1.404 . S
C127 H139 0.930 . S
C128 C124 1.524 1_655 S
C128 H140 0.956 . S
C128 H141 0.961 . S
C128 H142 0.961 . S
C129 C126 1.539 . S
C129 H143 0.958 . S
C129 H144 0.961 . S
C129 H145 0.960 . S
H130 C114 0.931 . S
H131 C119 0.932 . S
H132 C120 0.960 . S
H133 C120 0.962 . S
H134 C120 0.960 . S
H135 C121 0.961 . S
H136 C121 0.961 . S
H137 C121 0.961 . S
H138 C122 0.931 . S
H139 C127 0.930 . S
H140 C128 0.956 . S
H141 C128 0.961 . S
H142 C128 0.961 . S
H143 C129 0.958 . S
H144 C129 0.961 . S
H145 C129 0.960 . S
C146 C147 1.391 . S
C146 C148 1.394 . S
C146 H162 0.931 . S
C147 C146 1.391 . S
C147 C151 1.376 . S
C148 C146 1.394 . S
C148 C149 1.369 . S
C148 C152 1.531 . S
C149 C148 1.369 . S
C149 C150 1.410 . S
C149 C157 1.503 . S
C150 C149 1.410 . S
C150 C151 1.392 . S
C150 C153 1.511 . S
C151 C147 1.376 . S
C151 C150 1.392 . S
C151 H163 0.929 . S
C152 C148 1.531 . S
C152 H164 0.960 . S
C152 H165 0.962 . S
C152 H166 0.960 . S
C153 C150 1.511 . S
C153 H167 0.961 . S
C153 H168 0.961 . S
C153 H169 0.961 . S
C154 C155 1.368 1_556 S
C154 C156 1.363 . S
C154 H170 0.931 . S
C155 C154 1.368 1_554 S
C155 C159 1.413 1_554 S
C156 C154 1.363 . S
C156 C157 1.370 . S
C156 C160 1.524 . S
C157 C149 1.503 . S
C157 C156 1.370 . S
C157 C158 1.403 . S
C158 C157 1.403 . S
C158 C159 1.413 . S
C158 C161 1.539 . S
C159 C155 1.413 1_556 S
C159 C158 1.413 . S
C159 H171 0.918 1_556 S
C160 C156 1.524 . S
C160 H172 0.956 . S
C160 H173 0.961 . S
C160 H174 0.961 . S
C161 C158 1.539 . S
C161 H175 0.958 . S
C161 H176 0.961 . S
C161 H177 0.960 . S
H162 C146 0.931 . S
H163 C151 0.929 . S
H164 C152 0.960 . S
H165 C152 0.962 . S
H166 C152 0.960 . S
H167 C153 0.961 . S
H168 C153 0.961 . S
H169 C153 0.961 . S
H170 C154 0.931 . S
H171 C159 0.918 1_554 S
H172 C160 0.956 . S
H173 C160 0.961 . S
H174 C160 0.961 . S
H175 C161 0.958 . S
H176 C161 0.961 . S
H177 C161 0.960 . S
C178 C179 1.391 1_554 S
C178 C180 1.394 . S
C178 H194 0.933 . S
C179 C178 1.391 1_556 S
C179 C183 1.376 1_556 S
C180 C178 1.394 . S
C180 C181 1.369 . S
C180 C184 1.531 . S
C181 C180 1.369 . S
C181 C182 1.410 . S
C181 C189 1.503 . S
C182 C181 1.410 . S
C182 C183 1.392 . S
C182 C185 1.511 . S
C183 C179 1.376 1_554 S
C183 C182 1.392 . S
C183 H195 0.929 . S
C184 C180 1.531 . S
C184 H196 0.960 . S
C184 H197 0.962 . S
C184 H198 0.960 . S
C185 C182 1.511 . S
C185 H199 0.961 . S
C185 H200 0.961 . S
C185 H201 0.961 . S
C186 C187 1.370 . S
C186 C188 1.363 . S
C186 H202 0.931 . S
C187 C186 1.370 . S
C187 C191 1.408 . S
C188 C186 1.363 . S
C188 C189 1.370 . S
C188 C192 1.524 . S
C189 C181 1.503 . S
C189 C188 1.370 . S
C189 C190 1.403 . S
C190 C189 1.403 . S
C190 C191 1.404 . S
C190 C193 1.539 . S
C191 C187 1.408 . S
C191 C190 1.404 . S
C191 H203 0.930 . S
C192 C188 1.524 . S
C192 H204 0.956 . S
C192 H205 0.961 . S
C192 H206 0.961 . S
C193 C190 1.539 . S
C193 H207 0.958 . S
C193 H208 0.961 . S
C193 H209 0.960 . S
H194 C178 0.933 . S
H195 C183 0.929 . S
H196 C184 0.960 . S
H197 C184 0.962 . S
H198 C184 0.960 . S
H199 C185 0.961 . S
H200 C185 0.961 . S
H201 C185 0.961 . S
H202 C186 0.931 . S
H203 C191 0.930 . S
H204 C192 0.956 . S
H205 C192 0.961 . S
H206 C192 0.961 . S
H207 C193 0.958 . S
H208 C193 0.961 . S
H209 C193 0.960 . S
C210 C211 1.391 . S
C210 C212 1.394 . S
C210 H226 0.931 . S
C211 C210 1.391 . S
C211 C215 1.376 . S
C212 C210 1.394 . S
C212 C213 1.369 . S
C212 C216 1.531 . S
C213 C212 1.369 . S
C213 C214 1.410 . S
C213 C221 1.503 . S
C214 C213 1.410 . S
C214 C215 1.392 . S
C214 C217 1.511 . S
C215 C211 1.376 . S
C215 C214 1.392 . S
C215 H227 0.929 . S
C216 C212 1.531 . S
C216 H228 0.960 . S
C216 H229 0.962 . S
C216 H230 0.960 . S
C217 C214 1.511 . S
C217 H231 0.961 1_455 S
C217 H232 0.961 . S
C217 H233 0.961 1_455 S
C218 C219 1.370 . S
C218 C220 1.363 . S
C218 H234 0.931 . S
C219 C218 1.370 . S
C219 C223 1.408 . S
C220 C218 1.363 . S
C220 C221 1.370 . S
C220 C224 1.524 . S
C221 C213 1.503 . S
C221 C220 1.370 . S
C221 C222 1.403 . S
C222 C221 1.403 . S
C222 C223 1.404 . S
C222 C225 1.539 . S
C223 C219 1.408 . S
C223 C222 1.404 . S
C223 H235 0.930 . S
C224 C220 1.524 . S
C224 H236 0.956 . S
C224 H237 0.961 . S
C224 H238 0.961 . S
C225 C222 1.539 . S
C225 H239 0.958 . S
C225 H240 0.961 1_455 S
C225 H241 0.960 . S
H226 C210 0.931 . S
H227 C215 0.929 . S
H228 C216 0.960 . S
H229 C216 0.962 . S
H230 C216 0.960 . S
H231 C217 0.961 1_655 S
H232 C217 0.961 . S
H233 C217 0.961 1_655 S
H234 C218 0.931 . S
H235 C223 0.930 . S
H236 C224 0.956 . S
H237 C224 0.961 . S
H238 C224 0.961 . S
H239 C225 0.958 . S
H240 C225 0.961 1_655 S
H241 C225 0.960 . S
C242 C243 1.391 . S
C242 C244 1.394 . S
C242 H258 0.931 . S
C243 C242 1.391 . S
C243 C247 1.376 . S
C244 C242 1.394 . S
C244 C245 1.369 . S
C244 C248 1.531 . S
C245 C244 1.369 . S
C245 C246 1.410 . S
C245 C253 1.503 . S
C246 C245 1.410 . S
C246 C247 1.392 . S
C246 C249 1.511 . S
C247 C243 1.376 . S
C247 C246 1.392 . S
C247 H259 0.929 . S
C248 C244 1.531 . S
C248 H260 0.960 . S
C248 H261 0.962 . S
C248 H262 0.960 . S
C249 C246 1.511 . S
C249 H263 0.961 . S
C249 H264 0.961 . S
C249 H265 0.961 . S
C250 C251 1.370 . S
C250 C252 1.363 . S
C250 H266 0.931 1_455 S
C251 C250 1.370 . S
C251 C255 1.408 . S
C252 C250 1.363 . S
C252 C253 1.370 . S
C252 C256 1.525 1_455 S
C253 C245 1.503 . S
C253 C252 1.370 . S
C253 C254 1.403 . S
C254 C253 1.403 . S
C254 C255 1.404 . S
C254 C257 1.539 . S
C255 C251 1.408 . S
C255 C254 1.404 . S
C255 H267 0.930 . S
C256 C252 1.525 1_655 S
C256 H268 0.955 1_655 S
C256 H269 0.961 1_655 S
C256 H270 0.960 . S
C257 C254 1.539 . S
C257 H271 0.958 . S
C257 H272 0.961 . S
C257 H273 0.960 . S
H258 C242 0.931 . S
H259 C247 0.929 . S
H260 C248 0.960 . S
H261 C248 0.962 . S
H262 C248 0.960 . S
H263 C249 0.961 . S
H264 C249 0.961 . S
H265 C249 0.961 . S
H266 C250 0.931 1_655 S
H267 C255 0.930 . S
H268 C256 0.955 1_455 S
H269 C256 0.961 1_455 S
H270 C256 0.960 . S
H271 C257 0.958 . S
H272 C257 0.961 . S
H273 C257 0.960 . S
C274 C275 1.391 . S
C274 C276 1.394 . S
C274 H290 0.931 . S
C275 C274 1.391 . S
C275 C279 1.376 . S
C276 C274 1.394 . S
C276 C277 1.369 . S
C276 C280 1.531 . S
C277 C276 1.369 . S
C277 C278 1.410 . S
C277 C285 1.503 . S
C278 C277 1.410 . S
C278 C279 1.392 . S
C278 C281 1.511 . S
C279 C275 1.376 . S
C279 C278 1.392 . S
C279 H291 0.929 . S
C280 C276 1.531 . S
C280 H292 0.960 . S
C280 H293 0.962 . S
C280 H294 0.960 . S
C281 C278 1.511 . S
C281 H295 0.961 . S
C281 H296 0.961 . S
C281 H297 0.961 . S
C282 C283 1.370 . S
C282 C284 1.363 . S
C282 H298 0.931 . S
C283 C282 1.370 . S
C283 C287 1.408 . S
C284 C282 1.363 . S
C284 C285 1.370 . S
C284 C288 1.524 . S
C285 C277 1.503 . S
C285 C284 1.370 . S
C285 C286 1.403 . S
C286 C285 1.403 . S
C286 C287 1.404 . S
C286 C289 1.539 . S
C287 C283 1.408 . S
C287 C286 1.404 . S
C287 H299 0.930 . S
C288 C284 1.524 . S
C288 H300 0.956 . S
C288 H301 0.961 . S
C288 H302 0.961 . S
C289 C286 1.539 . S
C289 H303 0.958 . S
C289 H304 0.961 . S
C289 H305 0.960 . S
H290 C274 0.931 . S
H291 C279 0.929 . S
H292 C280 0.960 . S
H293 C280 0.962 . S
H294 C280 0.960 . S
H295 C281 0.961 . S
H296 C281 0.961 . S
H297 C281 0.961 . S
H298 C282 0.931 . S
H299 C287 0.930 . S
H300 C288 0.956 . S
H301 C288 0.961 . S
H302 C288 0.961 . S
H303 C289 0.958 . S
H304 C289 0.961 . S
H305 C289 0.960 . S
C306 C307 1.391 . S
C306 C308 1.394 . S
C306 H322 0.931 . S
C307 C306 1.391 . S
C307 C311 1.376 . S
C308 C306 1.394 . S
C308 C309 1.369 . S
C308 C312 1.531 . S
C309 C308 1.369 . S
C309 C310 1.410 . S
C309 C317 1.503 . S
C310 C309 1.410 . S
C310 C311 1.392 . S
C310 C313 1.511 . S
C311 C307 1.376 . S
C311 C310 1.392 . S
C311 H323 0.929 . S
C312 C308 1.531 . S
C312 H324 0.960 . S
C312 H325 0.962 1_655 S
C312 H326 0.960 1_655 S
C313 C310 1.511 . S
C313 H327 0.961 . S
C313 H328 0.961 . S
C313 H329 0.961 . S
C314 C315 1.370 . S
C314 C316 1.363 . S
C314 H330 0.931 . S
C315 C314 1.370 . S
C315 C319 1.408 . S
C316 C314 1.363 . S
C316 C317 1.370 . S
C316 C320 1.524 . S
C317 C309 1.503 . S
C317 C316 1.370 . S
C317 C318 1.403 . S
C318 C317 1.403 . S
C318 C319 1.404 . S
C318 C321 1.539 . S
C319 C315 1.408 . S
C319 C318 1.404 . S
C319 H331 0.930 . S
C320 C316 1.524 . S
C320 H332 0.956 . S
C320 H333 0.961 . S
C320 H334 0.961 . S
C321 C318 1.539 . S
C321 H335 0.958 . S
C321 H336 0.961 . S
C321 H337 0.960 . S
H322 C306 0.931 . S
H323 C311 0.929 . S
H324 C312 0.960 . S
H325 C312 0.962 1_455 S
H326 C312 0.960 1_455 S
H327 C313 0.961 . S
H328 C313 0.961 . S
H329 C313 0.961 . S
H330 C314 0.931 . S
H331 C319 0.930 . S
H332 C320 0.956 . S
H333 C320 0.961 . S
H334 C320 0.961 . S
H335 C321 0.958 . S
H336 C321 0.961 . S
H337 C321 0.960 . S
C338 C339 1.391 . S
C338 C340 1.394 . S
C338 H354 0.931 . S
C339 C338 1.391 . S
C339 C343 1.376 . S
C340 C338 1.394 . S
C340 C341 1.369 . S
C340 C344 1.531 . S
C341 C340 1.369 . S
C341 C342 1.410 . S
C341 C349 1.503 . S
C342 C341 1.410 . S
C342 C343 1.392 . S
C342 C345 1.511 . S
C343 C339 1.376 . S
C343 C342 1.392 . S
C343 H355 0.929 . S
C344 C340 1.531 . S
C344 H356 0.960 . S
C344 H357 0.962 1_655 S
C344 H358 0.960 . S
C345 C342 1.511 . S
C345 H359 0.961 . S
C345 H360 0.961 . S
C345 H361 0.961 . S
C346 C347 1.370 . S
C346 C348 1.363 . S
C346 H362 0.931 . S
C347 C346 1.370 . S
C347 C351 1.408 . S
C348 C346 1.363 . S
C348 C349 1.370 . S
C348 C352 1.524 . S
C349 C341 1.503 . S
C349 C348 1.370 . S
C349 C350 1.403 . S
C350 C349 1.403 . S
C350 C351 1.404 . S
C350 C353 1.539 . S
C351 C347 1.408 . S
C351 C350 1.404 . S
C351 H363 0.930 . S
C352 C348 1.524 . S
C352 H364 0.956 . S
C352 H365 0.961 . S
C352 H366 0.961 . S
C353 C350 1.539 . S
C353 H367 0.958 . S
C353 H368 0.961 . S
C353 H369 0.960 . S
H354 C338 0.931 . S
H355 C343 0.929 . S
H356 C344 0.960 . S
H357 C344 0.962 1_455 S
H358 C344 0.960 . S
H359 C345 0.961 . S
H360 C345 0.961 . S
H361 C345 0.961 . S
H362 C346 0.931 . S
H363 C351 0.930 . S
H364 C352 0.956 . S
H365 C352 0.961 . S
H366 C352 0.961 . S
H367 C353 0.958 . S
H368 C353 0.961 . S
H369 C353 0.960 . S
C370 C371 1.391 . S
C370 C372 1.394 . S
C370 H386 0.931 . S
C371 C370 1.391 . S
C371 C375 1.376 . S
C372 C370 1.394 . S
C372 C373 1.369 . S
C372 C376 1.531 . S
C373 C372 1.369 . S
C373 C374 1.410 . S
C373 C381 1.503 . S
C374 C373 1.410 . S
C374 C375 1.392 . S
C374 C377 1.511 . S
C375 C371 1.376 . S
C375 C374 1.392 . S
C375 H387 0.929 . S
C376 C372 1.531 . S
C376 H388 0.960 . S
C376 H389 0.962 . S
C376 H390 0.960 . S
C377 C374 1.511 . S
C377 H391 0.961 . S
C377 H392 0.961 . S
C377 H393 0.961 . S
C378 C379 1.370 . S
C378 C380 1.363 . S
C378 H394 0.931 . S
C379 C378 1.370 . S
C379 C383 1.408 . S
C380 C378 1.363 . S
C380 C381 1.370 . S
C380 C384 1.524 . S
C381 C373 1.503 . S
C381 C380 1.370 . S
C381 C382 1.403 . S
C382 C381 1.403 . S
C382 C383 1.404 . S
C382 C385 1.539 . S
C383 C379 1.408 . S
C383 C382 1.404 . S
C383 H395 0.930 . S
C384 C380 1.524 . S
C384 H396 0.956 . S
C384 H397 0.961 . S
C384 H398 0.961 . S
C385 C382 1.539 . S
C385 H399 0.958 . S
C385 H400 0.961 . S
C385 H401 0.960 . S
H386 C370 0.931 . S
H387 C375 0.929 . S
H388 C376 0.960 . S
H389 C376 0.962 . S
H390 C376 0.960 . S
H391 C377 0.961 . S
H392 C377 0.961 . S
H393 C377 0.961 . S
H394 C378 0.931 . S
H395 C383 0.930 . S
H396 C384 0.956 . S
H397 C384 0.961 . S
H398 C384 0.961 . S
H399 C385 0.958 . S
H400 C385 0.961 . S
H401 C385 0.960 . S
C402 C403 1.391 . S
C402 C404 1.394 . S
C402 H418 0.931 . S
C403 C402 1.391 . S
C403 C407 1.376 . S
C404 C402 1.394 . S
C404 C405 1.369 . S
C404 C408 1.531 . S
C405 C404 1.369 . S
C405 C406 1.410 1_554 S
C405 C413 1.503 1_554 S
C406 C405 1.410 1_556 S
C406 C407 1.392 1_556 S
C406 C409 1.511 . S
C407 C403 1.376 . S
C407 C406 1.392 1_554 S
C407 H419 0.929 . S
C408 C404 1.531 . S
C408 H420 0.960 . S
C408 H421 0.962 . S
C408 H422 0.960 . S
C409 C406 1.511 . S
C409 H423 0.961 . S
C409 H424 0.961 . S
C409 H425 0.961 . S
C410 C411 1.370 . S
C410 C412 1.363 . S
C410 H426 0.931 . S
C411 C410 1.370 . S
C411 C415 1.408 . S
C412 C410 1.363 . S
C412 C413 1.370 . S
C412 C416 1.524 1_556 S
C413 C405 1.503 1_556 S
C413 C412 1.370 . S
C413 C414 1.403 . S
C414 C413 1.403 . S
C414 C415 1.404 . S
C414 C417 1.539 . S
C415 C411 1.408 . S
C415 C414 1.404 . S
C415 H427 0.930 . S
C416 C412 1.524 1_554 S
C416 H428 0.956 . S
C416 H429 0.961 . S
C416 H430 0.961 . S
C417 C414 1.539 . S
C417 H431 0.958 . S
C417 H432 0.961 . S
C417 H433 0.960 . S
H418 C402 0.931 . S
H419 C407 0.929 . S
H420 C408 0.960 . S
H421 C408 0.962 . S
H422 C408 0.960 . S
H423 C409 0.961 . S
H424 C409 0.961 . S
H425 C409 0.961 . S
H426 C410 0.931 . S
H427 C415 0.930 . S
H428 C416 0.956 . S
H429 C416 0.961 . S
H430 C416 0.961 . S
H431 C417 0.958 . S
H432 C417 0.961 . S
H433 C417 0.960 . S
C434 C435 1.391 . S
C434 C436 1.394 . S
C434 H450 0.931 . S
C435 C434 1.391 . S
C435 C439 1.376 . S
C436 C434 1.394 . S
C436 C437 1.369 . S
C436 C440 1.531 1_556 S
C437 C436 1.369 . S
C437 C438 1.410 . S
C437 C445 1.503 1_566 S
C438 C437 1.410 . S
C438 C439 1.392 . S
C438 C441 1.511 1_565 S
C439 C435 1.376 . S
C439 C438 1.392 . S
C439 H451 0.929 . S
C440 C436 1.531 1_554 S
C440 H452 0.960 . S
C440 H453 0.962 . S
C440 H454 0.960 . S
C441 C438 1.511 1_545 S
C441 H455 0.961 . S
C441 H456 0.961 . S
C441 H457 0.961 . S
C442 C443 1.370 . S
C442 C444 1.363 . S
C442 H458 0.931 . S
C443 C442 1.370 . S
C443 C447 1.408 . S
C444 C442 1.363 . S
C444 C445 1.370 . S
C444 C448 1.524 1_554 S
C445 C437 1.503 1_544 S
C445 C444 1.370 . S
C445 C446 1.403 . S
C446 C445 1.403 . S
C446 C447 1.404 . S
C446 C449 1.539 . S
C447 C443 1.408 . S
C447 C446 1.404 . S
C447 H459 0.930 . S
C448 C444 1.524 1_556 S
C448 H460 0.956 1_546 S
C448 H461 0.961 . S
C448 H462 0.961 1_556 S
C449 C446 1.539 . S
C449 H463 0.958 1_545 S
C449 H464 0.961 . S
C449 H465 0.960 . S
H450 C434 0.931 . S
H451 C439 0.929 . S
H452 C440 0.960 . S
H453 C440 0.962 . S
H454 C440 0.960 . S
H455 C441 0.961 . S
H456 C441 0.961 . S
H457 C441 0.961 . S
H458 C442 0.931 . S
H459 C447 0.930 . S
H460 C448 0.956 1_564 S
H461 C448 0.961 . S
H462 C448 0.961 1_554 S
H463 C449 0.958 1_565 S
H464 C449 0.961 . S
H465 C449 0.960 . S
C466 C467 1.391 . S
C466 C468 1.394 . S
C466 H482 0.931 . S
C467 C466 1.391 . S
C467 C471 1.376 . S
C468 C466 1.394 . S
C468 C469 1.369 . S
C468 C472 1.531 1_556 S
C469 C468 1.369 . S
C469 C470 1.410 1_455 S
C469 C477 1.503 1_456 S
C470 C469 1.410 1_655 S
C470 C471 1.392 1_655 S
C470 C473 1.511 . S
C471 C467 1.376 . S
C471 C470 1.392 1_455 S
C471 H483 0.929 . S
C472 C468 1.531 1_554 S
C472 H484 0.960 . S
C472 H485 0.962 . S
C472 H486 0.960 . S
C473 C470 1.511 . S
C473 H487 0.961 . S
C473 H488 0.961 . S
C473 H489 0.961 . S
C474 C475 1.370 . S
C474 C476 1.363 . S
C474 H490 0.931 . S
C475 C474 1.370 . S
C475 C479 1.408 . S
C476 C474 1.363 . S
C476 C477 1.370 . S
C476 C480 1.524 1_655 S
C477 C469 1.503 1_654 S
C477 C476 1.370 . S
C477 C478 1.403 . S
C478 C477 1.403 . S
C478 C479 1.404 . S
C478 C481 1.539 . S
C479 C475 1.408 . S
C479 C478 1.404 . S
C479 H491 0.930 . S
C480 C476 1.524 1_455 S
C480 H492 0.956 . S
C480 H493 0.961 1_554 S
C480 H494 0.961 . S
C481 C478 1.539 . S
C481 H495 0.958 . S
C481 H496 0.961 . S
C481 H497 0.957 1_554 S
H482 C466 0.931 . S
H483 C471 0.929 . S
H484 C472 0.960 . S
H485 C472 0.962 . S
H486 C472 0.960 . S
H487 C473 0.961 . S
H488 C473 0.961 . S
H489 C473 0.961 . S
H490 C474 0.931 . S
H491 C479 0.930 . S
H492 C480 0.956 . S
H493 C480 0.961 1_556 S
H494 C480 0.961 . S
H495 C481 0.958 . S
H496 C481 0.961 . S
H497 C481 0.957 1_556 S
C115 C26 0.746 . S
C123 C2 0.722 . S
C147 C40 0.779 . S
C155 C64 0.706 . S
C179 C78 0.674 . S
C187 C102 0.749 . S
C211 C99 2.381 . S
C219 C4 2.429 . S
C243 C93 1.344 . S
C251 C28 1.283 . S
C275 C96 1.594 . S
C283 C19 1.575 . S
C307 C42 2.381 . S
C315 C23 2.429 . S
C339 C66 1.322 . S
C347 C17 1.293 . S
C371 C57 1.563 . S
C379 C20 1.590 . S
C403 C61 2.404 . S
C411 C80 2.423 . S
C435 C104 1.279 . S
C443 C55 1.314 . S
C467 C95 1.593 . S
C475 C58 1.577 . S
