# Generated by pormake.
# Topology lcy-e, (6)-cn, num edge types: 1
# Building blocks:
#     Node 0, Type 0, BuildingBlock: CUWYAW_clean_sbu_0, # of connection points: 6
#     Node 1, Type 0, BuildingBlock: CUWYAW_clean_sbu_0, # of connection points: 6
#     Node 2, Type 0, BuildingBlock: CUWYAW_clean_sbu_0, # of connection points: 6
#     Node 3, Type 0, BuildingBlock: CUWYAW_clean_sbu_0, # of connection points: 6
#     Node 4, Type 0, BuildingBlock: CUWYAW_clean_sbu_0, # of connection points: 6
#     Node 5, Type 0, BuildingBlock: CUWYAW_clean_sbu_0, # of connection points: 6
#     Node 6, Type 0, BuildingBlock: CUWYAW_clean_sbu_0, # of connection points: 6
#     Node 7, Type 0, BuildingBlock: CUWYAW_clean_sbu_0, # of connection points: 6
#     Node 8, Type 0, BuildingBlock: CUWYAW_clean_sbu_0, # of connection points: 6
#     Node 9, Type 0, BuildingBlock: CUWYAW_clean_sbu_0, # of connection points: 6
#     Node 10, Type 0, BuildingBlock: CUWYAW_clean_sbu_0, # of connection points: 6
#     Node 11, Type 0, BuildingBlock: CUWYAW_clean_sbu_0, # of connection points: 6
#     Edge 12, Type (0, 0), BuildingBlock: XIVTED_clean_linker_0, # of connection points: 2
#     Edge 13, Type (0, 0), BuildingBlock: XIVTED_clean_linker_0, # of connection points: 2
#     Edge 14, Type (0, 0), BuildingBlock: XIVTED_clean_linker_0, # of connection points: 2
#     Edge 15, Type (0, 0), BuildingBlock: XIVTED_clean_linker_0, # of connection points: 2
#     Edge 16, Type (0, 0), BuildingBlock: XIVTED_clean_linker_0, # of connection points: 2
#     Edge 17, Type (0, 0), BuildingBlock: XIVTED_clean_linker_0, # of connection points: 2
#     Edge 18, Type (0, 0), BuildingBlock: XIVTED_clean_linker_0, # of connection points: 2
#     Edge 19, Type (0, 0), BuildingBlock: XIVTED_clean_linker_0, # of connection points: 2
#     Edge 20, Type (0, 0), BuildingBlock: XIVTED_clean_linker_0, # of connection points: 2
#     Edge 21, Type (0, 0), BuildingBlock: XIVTED_clean_linker_0, # of connection points: 2
#     Edge 22, Type (0, 0), BuildingBlock: XIVTED_clean_linker_0, # of connection points: 2
#     Edge 23, Type (0, 0), BuildingBlock: XIVTED_clean_linker_0, # of connection points: 2
#     Edge 24, Type (0, 0), BuildingBlock: XIVTED_clean_linker_0, # of connection points: 2
#     Edge 25, Type (0, 0), BuildingBlock: XIVTED_clean_linker_0, # of connection points: 2
#     Edge 26, Type (0, 0), BuildingBlock: XIVTED_clean_linker_0, # of connection points: 2
#     Edge 27, Type (0, 0), BuildingBlock: XIVTED_clean_linker_0, # of connection points: 2
#     Edge 28, Type (0, 0), BuildingBlock: XIVTED_clean_linker_0, # of connection points: 2
#     Edge 29, Type (0, 0), BuildingBlock: XIVTED_clean_linker_0, # of connection points: 2
#     Edge 30, Type (0, 0), BuildingBlock: XIVTED_clean_linker_0, # of connection points: 2
#     Edge 31, Type (0, 0), BuildingBlock: XIVTED_clean_linker_0, # of connection points: 2
#     Edge 32, Type (0, 0), BuildingBlock: XIVTED_clean_linker_0, # of connection points: 2
#     Edge 33, Type (0, 0), BuildingBlock: XIVTED_clean_linker_0, # of connection points: 2
#     Edge 34, Type (0, 0), BuildingBlock: XIVTED_clean_linker_0, # of connection points: 2
#     Edge 35, Type (0, 0), BuildingBlock: XIVTED_clean_linker_0, # of connection points: 2
#     Edge 36, Type (0, 0), BuildingBlock: XIVTED_clean_linker_0, # of connection points: 2
#     Edge 37, Type (0, 0), BuildingBlock: XIVTED_clean_linker_0, # of connection points: 2
#     Edge 38, Type (0, 0), BuildingBlock: XIVTED_clean_linker_0, # of connection points: 2
#     Edge 39, Type (0, 0), BuildingBlock: XIVTED_clean_linker_0, # of connection points: 2
#     Edge 40, Type (0, 0), BuildingBlock: XIVTED_clean_linker_0, # of connection points: 2
#     Edge 41, Type (0, 0), BuildingBlock: XIVTED_clean_linker_0, # of connection points: 2
#     Edge 42, Type (0, 0), BuildingBlock: XIVTED_clean_linker_0, # of connection points: 2
#     Edge 43, Type (0, 0), BuildingBlock: XIVTED_clean_linker_0, # of connection points: 2
#     Edge 44, Type (0, 0), BuildingBlock: XIVTED_clean_linker_0, # of connection points: 2
#     Edge 45, Type (0, 0), BuildingBlock: XIVTED_clean_linker_0, # of connection points: 2
#     Edge 46, Type (0, 0), BuildingBlock: XIVTED_clean_linker_0, # of connection points: 2
#     Edge 47, Type (0, 0), BuildingBlock: XIVTED_clean_linker_0, # of connection points: 2
# Relax obj value: 0.182
# Max RMSD: 0.288
# Mean RMSD: 0.270
data_MOF--net-lcy-e--node1-CUWYAW_clean_sbu_0--edge1-XIVTED_clean_linker_0
_symmetry_space_group_name_H-M    P1
_symmetry_Int_Tables_number       1
_symmetry_cell_setting            triclinic
loop_
_symmetry_equiv_pos_as_xyz
'x, y, z'
_cell_length_a     42.420975
_cell_length_b     45.737654
_cell_length_c     45.721637
_cell_angle_alpha  91.086029
_cell_angle_beta   90.563046
_cell_angle_gamma 88.303998
loop_
_atom_site_label
_atom_site_type_symbol
_atom_site_fract_x
_atom_site_fract_y
_atom_site_fract_z
_atom_type_partial_charge
C0 C 0.1182 0.32244 0.46886 0.0
Eu1 Eu 0.12443 0.28844 0.51398 0.0
C2 C 0.13585 0.3375 0.44605 0.0
C3 C 0.12933 0.36728 0.44133 0.0
C4 C 0.14198 0.38117 0.4173 0.0
C5 C 0.16133 0.36554 0.3972 0.0
C6 C 0.16905 0.33599 0.40273 0.0
C7 C 0.15644 0.3221 0.42688 0.0
C8 C 0.09503 0.29457 0.56718 0.0
C9 C 0.18148 0.30743 0.55577 0.0
C10 C 0.15201 0.21188 0.6054 0.0
Eu11 Eu 0.14694 0.24629 0.56046 0.0
C12 C 0.14001 0.18386 0.61541 0.0
C13 C 0.12104 0.16633 0.59735 0.0
C14 C 0.10959 0.13997 0.60765 0.0
C15 C 0.11705 0.13065 0.63617 0.0
C16 C 0.13593 0.14853 0.65412 0.0
C17 C 0.14724 0.17481 0.64384 0.0
C18 C 0.18297 0.24402 0.512 0.0
C19 C 0.08511 0.23054 0.51905 0.0
O20 O 0.11773 0.29387 0.46724 0.0
O21 O 0.11984 0.33245 0.49583 0.0
O22 O 0.0805 0.29926 0.54248 0.0
O23 O 0.12346 0.28916 0.56212 0.0
O24 O 0.17155 0.30666 0.52829 0.0
O25 O 0.17155 0.288 0.57455 0.0
O26 O 0.13137 0.23359 0.60358 0.0
O27 O 0.17149 0.21073 0.58337 0.0
O28 O 0.19369 0.24126 0.53853 0.0
O29 O 0.15299 0.24638 0.51171 0.0
O30 O 0.10325 0.22373 0.54184 0.0
O31 O 0.08981 0.25391 0.50355 0.0
H32 H 0.11354 0.37964 0.45573 0.0
H33 H 0.13606 0.4041 0.41415 0.0
H34 H 0.18371 0.32319 0.38771 0.0
H35 H 0.16194 0.29907 0.42991 0.0
H36 H 0.11517 0.17298 0.57531 0.0
H37 H 0.09534 0.12669 0.59315 0.0
H38 H 0.14171 0.1424 0.67634 0.0
H39 H 0.16162 0.18815 0.65819 0.0
C40 C 0.09258 0.90529 0.81754 0.0
Eu41 Eu 0.04291 0.90696 0.78363 0.0
C42 C 0.11791 0.88634 0.83022 0.0
C43 C 0.14906 0.88972 0.82104 0.0
C44 C 0.17417 0.87545 0.83531 0.0
C45 C 0.16881 0.85756 0.85931 0.0
C46 C 0.13751 0.85303 0.8677 0.0
C47 C 0.11228 0.86739 0.85336 0.0
C48 C 0.98641 0.93653 0.79158 0.0
C49 C 0.99652 0.85423 0.7936 0.0
C50 C 0.93472 0.90133 0.70746 0.0
Eu51 Eu 0.98729 0.89554 0.73665 0.0
C52 C 0.92475 0.90829 0.67713 0.0
C53 C 0.93476 0.8911 0.65292 0.0
C54 C 0.92514 0.89851 0.62451 0.0
C55 C 0.90554 0.92337 0.61966 0.0
C56 C 0.89569 0.94051 0.64395 0.0
C57 C 0.9051 0.933 0.6723 0.0
C58 C 0.04113 0.86534 0.72079 0.0
C59 C 0.03702 0.94853 0.72772 0.0
O60 O 0.09365 0.90989 0.78936 0.0
O61 O 0.06374 0.90339 0.8273 0.0
O62 O 0.01321 0.94722 0.79988 0.0
O63 O 0.99135 0.91116 0.78197 0.0
O64 O 0.02637 0.86193 0.79462 0.0
O65 O 0.9759 0.86631 0.7749 0.0
O66 O 0.94734 0.92281 0.72254 0.0
O67 O 0.94885 0.8758 0.71202 0.0
O68 O 0.01503 0.86499 0.70573 0.0
O69 O 0.03706 0.88224 0.74252 0.0
O70 O 0.00894 0.93779 0.72149 0.0
O71 O 0.05562 0.9379 0.74853 0.0
H72 H 0.15416 0.90429 0.80339 0.0
H73 H 0.19793 0.87905 0.828 0.0
H74 H 0.13261 0.83954 0.88622 0.0
H75 H 0.08855 0.86443 0.86108 0.0
H76 H 0.95008 0.87201 0.65587 0.0
H77 H 0.93335 0.88495 0.60629 0.0
H78 H 0.8802 0.95952 0.64111 0.0
H79 H 0.89698 0.94657 0.69056 0.0
C80 C 0.40526 0.72472 0.93769 0.0
Eu81 Eu 0.39365 0.74293 0.991 0.0
C82 C 0.39421 0.70625 0.91333 0.0
C83 C 0.41331 0.70283 0.88867 0.0
C84 C 0.40323 0.68655 0.86443 0.0
C85 C 0.37377 0.67319 0.86438 0.0
C86 C 0.35461 0.67663 0.8893 0.0
C87 C 0.36477 0.69307 0.91364 0.0
C88 C 0.42656 0.73019 0.0405 0.0
C89 C 0.34676 0.71434 0.03346 0.0
C90 C 0.36551 0.80459 0.09511 0.0
Eu91 Eu 0.37602 0.77975 0.04425 0.0
C92 C 0.3752 0.83232 0.10905 0.0
C93 C 0.35345 0.84913 0.12561 0.0
C94 C 0.36183 0.87614 0.1378 0.0
C95 C 0.39224 0.88688 0.13377 0.0
C96 C 0.41404 0.86978 0.11728 0.0
C97 C 0.40556 0.84289 0.10493 0.0
C98 C 0.34359 0.79334 0.99478 0.0
C99 C 0.42813 0.80547 1.0033 0.0
O100 O 0.38805 0.74814 0.94406 0.0
O101 O 0.41665 0.71163 0.96086 0.0
O102 O 0.41788 0.71045 0.02154 0.0
O103 O 0.41904 0.75529 0.03162 0.0
O104 O 0.35463 0.71536 1.00569 0.0
O105 O 0.35454 0.73521 0.0526 0.0
O106 O 0.38776 0.78463 0.09055 0.0
O107 O 0.34604 0.80706 0.0729 0.0
O108 O 0.3543 0.81252 0.01329 0.0
O109 O 0.34991 0.76772 1.00331 0.0
O110 O 0.41655 0.80672 0.02999 0.0
O111 O 0.42034 0.78458 0.98446 0.0
H112 H 0.43598 0.71312 0.88799 0.0
H113 H 0.41835 0.68491 0.84548 0.0
H114 H 0.33192 0.66645 0.89008 0.0
H115 H 0.34968 0.69564 0.93255 0.0
H116 H 0.3298 0.84152 0.12879 0.0
H117 H 0.34422 0.88882 0.14993 0.0
H118 H 0.43779 0.87703 0.11404 0.0
H119 H 0.42275 0.83046 0.09204 0.0
C120 C 0.40405 0.12448 0.30549 0.0
Eu121 Eu 0.4592 0.123 0.28026 0.0
C122 C 0.38064 0.14239 0.32227 0.0
C123 C 0.34972 0.13259 0.32404 0.0
C124 C 0.32729 0.14767 0.34132 0.0
C125 C 0.33522 0.17307 0.35732 0.0
C126 C 0.36619 0.18325 0.35488 0.0
C127 C 0.38869 0.16804 0.33756 0.0
C128 C 0.51296 0.09284 0.29516 0.0
C129 C 0.51305 0.16554 0.29596 0.0
C130 C 0.56392 0.1269 0.2041 0.0
Eu131 Eu 0.51263 0.12679 0.23542 0.0
C132 C 0.57484 0.12165 0.17359 0.0
C133 C 0.57643 0.14458 0.15366 0.0
C134 C 0.5891 0.13956 0.12572 0.0
C135 C 0.60059 0.11151 0.11711 0.0
C136 C 0.59856 0.08857 0.13697 0.0
C137 C 0.58599 0.09359 0.16481 0.0
C138 C 0.45947 0.15951 0.22322 0.0
C139 C 0.46207 0.07688 0.2242 0.0
O140 O 0.40807 0.13066 0.27794 0.0
O141 O 0.43042 0.11687 0.3188 0.0
O142 O 0.49303 0.10365 0.31416 0.0
O143 O 0.50174 0.09542 0.26956 0.0
O144 O 0.48207 0.16377 0.2962 0.0
O145 O 0.53046 0.1503 0.27674 0.0
O146 O 0.55403 0.1041 0.21769 0.0
O147 O 0.54702 0.15064 0.21022 0.0
O148 O 0.47624 0.1454 0.2037 0.0
O149 O 0.47204 0.1562 0.24805 0.0
O150 O 0.48934 0.0872 0.21623 0.0
O151 O 0.44612 0.08801 0.24672 0.0
H152 H 0.34304 0.11276 0.31252 0.0
H153 H 0.30401 0.13878 0.34288 0.0
H154 H 0.37315 0.20291 0.36649 0.0
H155 H 0.41241 0.17606 0.33643 0.0
H156 H 0.56835 0.16652 0.15978 0.0
H157 H 0.59006 0.15771 0.11092 0.0
H158 H 0.60772 0.06684 0.13143 0.0
H159 H 0.58569 0.07547 0.17972 0.0
C160 C 0.633 0.34779 0.49355 0.0
Eu161 Eu 0.6364 0.29446 0.51289 0.0
C162 C 0.62282 0.36877 0.47074 0.0
C163 C 0.64463 0.38852 0.46043 0.0
C164 C 0.63474 0.41197 0.44301 0.0
C165 C 0.60268 0.41637 0.43554 0.0
C166 C 0.581 0.39591 0.445 0.0
C167 C 0.59093 0.37238 0.46241 0.0
C168 C 0.67273 0.24679 0.49691 0.0
C169 C 0.59637 0.24213 0.4868 0.0
C170 C 0.63326 0.19358 0.58362 0.0
Eu171 Eu 0.62946 0.23913 0.5502 0.0
C172 C 0.65038 0.18239 0.60947 0.0
C173 C 0.66394 0.20148 0.63015 0.0
C174 C 0.67515 0.19094 0.65701 0.0
C175 C 0.67281 0.16116 0.6637 0.0
C176 C 0.66073 0.14196 0.64222 0.0
C177 C 0.6496 0.1525 0.61541 0.0
C178 C 0.58057 0.27842 0.55163 0.0
C179 C 0.67609 0.29025 0.57366 0.0
O180 O 0.61102 0.33599 0.50899 0.0
O181 O 0.65757 0.33022 0.48908 0.0
O182 O 0.66003 0.26487 0.47817 0.0
O183 O 0.66674 0.25562 0.52254 0.0
O184 O 0.59739 0.27095 0.48952 0.0
O185 O 0.61125 0.22446 0.50547 0.0
O186 O 0.64851 0.19496 0.55888 0.0
O187 O 0.61446 0.2163 0.58843 0.0
O188 O 0.5772 0.25037 0.55062 0.0
O189 O 0.60936 0.28438 0.55232 0.0
O190 O 0.66419 0.26433 0.57838 0.0
O191 O 0.66881 0.30563 0.55028 0.0
H192 H 0.66923 0.38656 0.4669 0.0
H193 H 0.65211 0.42739 0.43649 0.0
H194 H 0.55623 0.39829 0.43931 0.0
H195 H 0.57346 0.35763 0.47012 0.0
H196 H 0.66456 0.2247 0.62608 0.0
H197 H 0.68418 0.20634 0.67306 0.0
H198 H 0.65915 0.11882 0.64641 0.0
H199 H 0.63918 0.13744 0.59978 0.0
C200 C 0.04786 0.38164 0.87406 0.0
Eu201 Eu 0.02151 0.3867 0.82246 0.0
C202 C 0.06507 0.39626 0.89838 0.0
C203 C 0.09466 0.38469 0.90693 0.0
C204 C 0.10933 0.39454 0.93263 0.0
C205 C 0.09469 0.41614 0.95062 0.0
C206 C 0.06577 0.42885 0.94131 0.0
C207 C 0.05103 0.41894 0.91549 0.0
C208 C 0.03493 0.35554 0.77254 0.0
C209 C 0.04061 0.43207 0.7767 0.0
C210 C 0.94444 0.40379 0.7233 0.0
Eu211 Eu 0.97511 0.39677 0.77255 0.0
C212 C 0.91562 0.39213 0.71017 0.0
C213 C 0.89651 0.37366 0.72599 0.0
C214 C 0.86907 0.36267 0.71325 0.0
C215 C 0.86031 0.37004 0.6845 0.0
C216 C 0.8798 0.38839 0.66872 0.0
C217 C 0.9072 0.39932 0.68148 0.0
C218 C 0.96312 0.42865 0.8222 0.0
C219 C 0.95779 0.34773 0.81712 0.0
O220 O 0.01808 0.3889 0.8699 0.0
O221 O 0.06283 0.37577 0.84964 0.0
O222 O 0.05621 0.36552 0.79038 0.0
O223 O 0.00789 0.36027 0.78312 0.0
O224 O 0.04113 0.42759 0.80508 0.0
O225 O 0.01977 0.41937 0.75929 0.0
O226 O 0.96786 0.38497 0.72664 0.0
O227 O 0.94057 0.42104 0.74616 0.0
O228 O 0.94152 0.41652 0.80622 0.0
O229 O 0.9898 0.42392 0.81098 0.0
O230 O 0.95246 0.35718 0.79039 0.0
O231 O 0.98089 0.3579 0.83367 0.0
H232 H 0.10597 0.36713 0.89428 0.0
H233 H 0.1319 0.38468 0.93879 0.0
H234 H 0.05382 0.44548 0.95464 0.0
H235 H 0.02813 0.42826 0.90957 0.0
H236 H 0.90275 0.36786 0.74822 0.0
H237 H 0.85446 0.34883 0.72607 0.0
H238 H 0.87404 0.39408 0.64637 0.0
H239 H 0.92185 0.41338 0.66891 0.0
C240 C 0.87572 0.68609 0.9872 0.0
Eu241 Eu 0.87998 0.73876 0.00942 0.0
C242 C 0.89047 0.66246 0.96901 0.0
C243 C 0.87595 0.65451 0.94244 0.0
C244 C 0.88597 0.62934 0.92704 0.0
C245 C 0.91066 0.61135 0.93795 0.0
C246 C 0.92622 0.62001 0.96387 0.0
C247 C 0.91614 0.64528 0.97933 0.0
C248 C 0.84616 0.78734 0.99381 0.0
C249 C 0.92665 0.78466 0.98788 0.0
C250 C 0.89143 0.84179 0.07755 0.0
Eu251 Eu 0.88799 0.79155 0.04969 0.0
C252 C 0.88071 0.85314 0.10633 0.0
C253 C 0.8649 0.83519 0.12562 0.0
C254 C 0.85427 0.84633 0.15268 0.0
C255 C 0.8593 0.87564 0.16103 0.0
C256 C 0.87513 0.89348 0.14148 0.0
C257 C 0.88569 0.88234 0.11444 0.0
C258 C 0.9223 0.74278 0.06461 0.0
C259 C 0.83558 0.74696 0.06766 0.0
O260 O 0.88788 0.69172 0.01307 0.0
O261 O 0.86475 0.70952 0.97411 0.0
O262 O 0.85882 0.76889 0.97512 0.0
O263 O 0.85024 0.77829 0.01947 0.0
O264 O 0.92313 0.75619 0.9893 0.0
O265 O 0.91234 0.803 1.00677 0.0
O266 O 0.86914 0.83565 0.05867 0.0
O267 O 0.91404 0.82173 0.07781 0.0
O268 O 0.90786 0.76002 0.08327 0.0
O269 O 0.91859 0.75229 0.03908 0.0
O270 O 0.8456 0.77376 0.07187 0.0
O271 O 0.84729 0.72951 0.04686 0.0
H272 H 0.85596 0.66719 0.93407 0.0
H273 H 0.87387 0.62359 0.90686 0.0
H274 H 0.94521 0.60656 0.97293 0.0
H275 H 0.9277 0.65067 0.99988 0.0
H276 H 0.86079 0.81256 0.11974 0.0
H277 H 0.84251 0.83184 0.16721 0.0
H278 H 0.87901 0.91626 0.14688 0.0
H279 H 0.89763 0.89659 0.09978 0.0
C280 C 0.58876 0.62422 0.23213 0.0
Eu281 Eu 0.54047 0.63176 0.26667 0.0
C282 C 0.61039 0.64023 0.21386 0.0
C283 C 0.63135 0.62418 0.1959 0.0
C284 C 0.65366 0.63841 0.17958 0.0
C285 C 0.65543 0.66909 0.18079 0.0
C286 C 0.6341 0.68521 0.19871 0.0
C287 C 0.61169 0.67086 0.21513 0.0
C288 C 0.48606 0.60089 0.26371 0.0
C289 C 0.49212 0.68148 0.24411 0.0
C290 C 0.44272 0.66215 0.34311 0.0
Eu291 Eu 0.48953 0.6534 0.30704 0.0
C292 C 0.43259 0.65065 0.37111 0.0
C293 C 0.40298 0.65915 0.38206 0.0
C294 C 0.39293 0.64854 0.40873 0.0
C295 C 0.41238 0.62917 0.42489 0.0
C296 C 0.44202 0.62047 0.41364 0.0
C297 C 0.45208 0.63121 0.38697 0.0
C298 C 0.53937 0.68868 0.30565 0.0
C299 C 0.53611 0.59795 0.32604 0.0
O300 O 0.59117 0.62876 0.26036 0.0
O301 O 0.55952 0.62248 0.22312 0.0
O302 O 0.51392 0.58879 0.26071 0.0
O303 O 0.48852 0.62799 0.26624 0.0
O304 O 0.52221 0.67324 0.24501 0.0
O305 O 0.47241 0.67264 0.26419 0.0
O306 O 0.4419 0.64397 0.32078 0.0
O307 O 0.46831 0.67736 0.34386 0.0
O308 O 0.51021 0.69779 0.30624 0.0
O309 O 0.5416 0.66095 0.30646 0.0
O310 O 0.509 0.6125 0.33019 0.0
O311 O 0.55466 0.60399 0.30429 0.0
H312 H 0.63084 0.60051 0.1949 0.0
H313 H 0.67004 0.62522 0.16653 0.0
H314 H 0.63466 0.70885 0.19997 0.0
H315 H 0.59567 0.68357 0.22903 0.0
H316 H 0.38759 0.67402 0.36997 0.0
H317 H 0.36977 0.65528 0.41655 0.0
H318 H 0.45762 0.60578 0.42568 0.0
H319 H 0.4751 0.6245 0.37883 0.0
C320 C 0.16939 0.55353 0.17288 0.0
Eu321 Eu 0.21995 0.51969 0.17248 0.0
C322 C 0.14453 0.56863 0.15529 0.0
C323 C 0.15124 0.59133 0.13617 0.0
C324 C 0.12666 0.60774 0.123 0.0
C325 C 0.09494 0.60193 0.12888 0.0
C326 C 0.08844 0.57844 0.14708 0.0
C327 C 0.11291 0.56207 0.16013 0.0
C328 C 0.27569 0.52667 0.20206 0.0
C329 C 0.26578 0.53143 0.11862 0.0
C330 C 0.32956 0.44341 0.16099 0.0
Eu331 Eu 0.27682 0.47365 0.15817 0.0
C332 C 0.33869 0.41241 0.16559 0.0
C333 C 0.36662 0.40067 0.15344 0.0
C334 C 0.37628 0.37171 0.15885 0.0
C335 C 0.35826 0.35396 0.17669 0.0
C336 C 0.32999 0.36571 0.18847 0.0
C337 C 0.32023 0.39458 0.18287 0.0
C338 C 0.22301 0.45806 0.12918 0.0
C339 C 0.22867 0.46333 0.21288 0.0
O340 O 0.16874 0.52493 0.17414 0.0
O341 O 0.1981 0.56347 0.17279 0.0
O342 O 0.2484 0.53418 0.21304 0.0
O343 O 0.27192 0.51839 0.17606 0.0
O344 O 0.23633 0.5327 0.12797 0.0
O345 O 0.28709 0.51223 0.12905 0.0
O346 O 0.31683 0.45728 0.18354 0.0
O347 O 0.3154 0.44967 0.13611 0.0
O348 O 0.24946 0.44318 0.12782 0.0
O349 O 0.2267 0.47937 0.14649 0.0
O350 O 0.25665 0.45773 0.20094 0.0
O351 O 0.20888 0.48387 0.20318 0.0
H352 H 0.17538 0.59701 0.13209 0.0
H353 H 0.13251 0.62577 0.10923 0.0
H354 H 0.06433 0.57302 0.1517 0.0
H355 H 0.10704 0.54479 0.17484 0.0
H356 H 0.38121 0.41405 0.14009 0.0
H357 H 0.39831 0.36345 0.14966 0.0
H358 H 0.31535 0.35255 0.20197 0.0
H359 H 0.29843 0.40309 0.19233 0.0
C360 C 0.66221 0.99503 0.89689 0.0
Eu361 Eu 0.71998 0.01267 0.89633 0.0
C362 C 0.64172 0.97465 0.91202 0.0
C363 C 0.64606 0.94416 0.90905 0.0
C364 C 0.62456 0.92543 0.92135 0.0
C365 C 0.5983 0.93677 0.93688 0.0
C366 C 0.59461 0.96725 0.94062 0.0
C367 C 0.61603 0.98596 0.92823 0.0
C368 C 0.77116 0.99528 0.86468 0.0
C369 C 0.77521 0.98904 0.93706 0.0
C370 C 0.83731 0.07432 0.89799 0.0
Eu371 Eu 0.78246 0.05123 0.90358 0.0
C372 C 0.84697 0.10437 0.89345 0.0
C373 C 0.87886 0.11127 0.89514 0.0
C374 C 0.8882 0.13951 0.88883 0.0
C375 C 0.86572 0.16112 0.88052 0.0
C376 C 0.8337 0.15417 0.87937 0.0
C377 C 0.82439 0.12604 0.8859 0.0
C378 C 0.73701 0.06791 0.94323 0.0
C379 C 0.7283 0.07209 0.85715 0.0
O380 O 0.67181 0.01769 0.91211 0.0
O381 O 0.68387 0.9839 0.8793 0.0
O382 O 0.75099 0.97698 0.87459 0.0
O383 O 0.76217 0.02117 0.87059 0.0
O384 O 0.74411 0.99172 0.9348 0.0
O385 O 0.79449 1.00685 0.92368 0.0
O386 O 0.82144 0.06286 0.87622 0.0
O387 O 0.82502 0.06904 0.92345 0.0
O388 O 0.7632 0.08146 0.94044 0.0
O389 O 0.73694 0.04769 0.92438 0.0
O390 O 0.75593 0.07768 0.86956 0.0
O391 O 0.71118 0.04942 0.8642 0.0
H392 H 0.66567 0.93473 0.89675 0.0
H393 H 0.6283 0.90204 0.91842 0.0
H394 H 0.57448 0.97671 0.95217 0.0
H395 H 0.61203 0.00939 0.93068 0.0
H396 H 0.89655 0.09472 0.90082 0.0
H397 H 0.91307 0.1442 0.88965 0.0
H398 H 0.81586 0.17046 0.87338 0.0
H399 H 0.7996 0.12105 0.88458 0.0
C400 C 0.83582 0.06008 0.3963 0.0
Eu401 Eu 0.78731 0.02601 0.39399 0.0
C402 C 0.85683 0.07865 0.41436 0.0
C403 C 0.86661 0.10503 0.40282 0.0
C404 C 0.88934 0.12163 0.41733 0.0
C405 C 0.90293 0.11238 0.44396 0.0
C406 C 0.89257 0.08614 0.45586 0.0
C407 C 0.86981 0.06942 0.44119 0.0
C408 C 0.73184 0.03373 0.36327 0.0
C409 C 0.7372 0.04068 0.44426 0.0
C410 C 0.68793 0.94681 0.4004 0.0
Eu411 Eu 0.73569 0.98153 0.40492 0.0
C412 C 0.67902 0.91797 0.38809 0.0
C413 C 0.69785 0.89243 0.39181 0.0
C414 C 0.68806 0.86543 0.38026 0.0
C415 C 0.65939 0.86349 0.36459 0.0
C416 C 0.64078 0.8892 0.36097 0.0
C417 C 0.65048 0.91601 0.37256 0.0
C418 C 0.7865 0.97577 0.44038 0.0
C419 C 0.78556 0.97088 0.3502 0.0
O420 O 0.83777 0.03174 0.39973 0.0
O421 O 0.80703 0.06966 0.39075 0.0
O422 O 0.75912 0.03991 0.3526 0.0
O423 O 0.7356 0.02603 0.38912 0.0
O424 O 0.7676 0.04036 0.43815 0.0
O425 O 0.71824 0.02195 0.43082 0.0
O426 O 0.69356 0.96718 0.3816 0.0
O427 O 0.70715 0.94735 0.42298 0.0
O428 O 0.75801 0.96997 0.44793 0.0
O429 O 0.78763 0.98155 0.4134 0.0
O430 O 0.75934 0.96317 0.36327 0.0
O431 O 0.80188 0.99337 0.35944 0.0
H432 H 0.85735 0.11242 0.38196 0.0
H433 H 0.89697 0.1413 0.40703 0.0
H434 H 0.90212 0.0784 0.47645 0.0
H435 H 0.86287 0.04905 0.45054 0.0
H436 H 0.72006 0.89331 0.40363 0.0
H437 H 0.70309 0.84616 0.38331 0.0
H438 H 0.61832 0.88857 0.34955 0.0
H439 H 0.63546 0.93533 0.36954 0.0
C440 C 0.22809 0.61285 0.64365 0.0
Eu441 Eu 0.25303 0.5601 0.64715 0.0
C442 C 0.20932 0.63658 0.65849 0.0
C443 C 0.17873 0.64343 0.64826 0.0
C444 C 0.1625 0.66866 0.65823 0.0
C445 C 0.17651 0.68789 0.67857 0.0
C446 C 0.20651 0.68032 0.68997 0.0
C447 C 0.22282 0.65499 0.67994 0.0
C448 C 0.23685 0.51137 0.61595 0.0
C449 C 0.23297 0.51482 0.69263 0.0
C450 C 0.32398 0.45562 0.65801 0.0
Eu451 Eu 0.29721 0.50745 0.65387 0.0
C452 C 0.35026 0.43935 0.64412 0.0
C453 C 0.3536 0.40918 0.64817 0.0
C454 C 0.3782 0.39321 0.63478 0.0
C455 C 0.39989 0.4072 0.61707 0.0
C456 C 0.39648 0.43756 0.61314 0.0
C457 C 0.37174 0.45352 0.62649 0.0
C458 C 0.31281 0.55515 0.68652 0.0
C459 C 0.31575 0.55216 0.60559 0.0
O460 O 0.25686 0.60723 0.65301 0.0
O461 O 0.21364 0.58933 0.63476 0.0
O462 O 0.21652 0.52925 0.62836 0.0
O463 O 0.26418 0.52102 0.61917 0.0
O464 O 0.23299 0.5432 0.68826 0.0
O465 O 0.25307 0.49665 0.67903 0.0
O466 O 0.29958 0.46128 0.64119 0.0
O467 O 0.33144 0.47793 0.67469 0.0
O468 O 0.33315 0.53802 0.67313 0.0
O469 O 0.28535 0.54594 0.6827 0.0
O470 O 0.31968 0.52477 0.61374 0.0
O471 O 0.29388 0.5698 0.61738 0.0
H472 H 0.16776 0.62986 0.6316 0.0
H473 H 0.13918 0.67351 0.6494 0.0
H474 H 0.21804 0.69468 0.70555 0.0
H475 H 0.24648 0.65051 0.68815 0.0
H476 H 0.33717 0.39796 0.66172 0.0
H477 H 0.38046 0.36994 0.63859 0.0
H478 H 0.41264 0.44888 0.59942 0.0
H479 H 0.3693 0.47685 0.623 0.0
H480 H 0.21902 0.344 0.52561 0.0
H481 H 0.18829 0.47828 0.63364 0.0
H482 H 0.17675 0.33338 0.61 0.0
H483 H 0.27067 0.47468 0.57909 0.0
H484 H 0.17906 0.42682 0.6211 0.0
H485 H 0.23499 0.39318 0.54108 0.0
C486 C 0.21366 0.35177 0.54758 0.0
C487 C 0.19673 0.33443 0.56661 0.0
C488 C 0.19916 0.43729 0.61189 0.0
C489 C 0.21384 0.39104 0.58398 0.0
C490 C 0.20428 0.4667 0.61881 0.0
C491 C 0.23021 0.48075 0.60727 0.0
C492 C 0.21964 0.42198 0.59266 0.0
C493 C 0.25036 0.46463 0.58838 0.0
C494 C 0.22267 0.37986 0.55634 0.0
C495 C 0.19009 0.34579 0.59473 0.0
N496 N 0.24448 0.43617 0.58139 0.0
N497 N 0.19815 0.37353 0.60236 0.0
H498 H 0.80973 0.02976 0.83381 0.0
H499 H 0.93264 0.9062 0.78829 0.0
H500 H 0.80265 0.9421 0.86549 0.0
H501 H 0.96696 0.99066 0.81466 0.0
H502 H 0.88053 0.92075 0.80588 0.0
H503 H 0.8634 0.01757 0.81679 0.0
C504 C 0.81971 0.00811 0.83762 0.0
C505 C 0.80223 0.98721 0.852 0.0
C506 C 0.89943 0.93612 0.80778 0.0
C507 C 0.86259 0.97272 0.83112 0.0
C508 C 0.92927 0.92792 0.79769 0.0
C509 C 0.95445 0.94713 0.80032 0.0
C510 C 0.89422 0.9641 0.81992 0.0
C511 C 0.94828 0.97514 0.81238 0.0
C512 C 0.85012 1.00116 0.82768 0.0
C513 C 0.81542 0.95893 0.85473 0.0
N514 N 0.91861 0.98293 0.82162 0.0
N515 N 0.84479 0.95245 0.84424 0.0
H516 H 0.30749 0.70829 0.08021 0.0
H517 H 0.32078 0.53651 0.08735 0.0
H518 H 0.35402 0.65906 0.01084 0.0
H519 H 0.23462 0.58366 0.11058 0.0
H520 H 0.33933 0.58109 0.06435 0.0
H521 H 0.28633 0.6625 0.0981 0.0
C522 C 0.31309 0.6879 0.06869 0.0
C523 C 0.33219 0.68748 0.04384 0.0
C524 C 0.31623 0.58136 0.07426 0.0
C525 C 0.30897 0.6352 0.06459 0.0
C526 C 0.30562 0.55598 0.08729 0.0
C527 C 0.27605 0.5562 0.10083 0.0
C528 C 0.29752 0.60723 0.07562 0.0
C529 C 0.2575 0.58223 0.10028 0.0
C530 C 0.30103 0.66187 0.07884 0.0
C531 C 0.33898 0.6604 0.02984 0.0
N532 N 0.26873 0.60676 0.08835 0.0
N533 N 0.3277 0.63527 0.0406 0.0
H534 H 0.56845 0.1033 0.2675 0.0
H535 H 0.67566 0.02359 0.38813 0.0
H536 H 0.53172 0.06084 0.3423 0.0
H537 H 0.71501 0.05981 0.3106 0.0
H538 H 0.62312 0.03625 0.3705 0.0
H539 H 0.62177 0.0869 0.28128 0.0
C540 C 0.57145 0.08953 0.28611 0.0
C541 C 0.54538 0.08227 0.30284 0.0
C542 C 0.64307 0.04138 0.35713 0.0
C543 C 0.60676 0.06466 0.32006 0.0
C544 C 0.67331 0.03404 0.36717 0.0
C545 C 0.7 0.04049 0.35079 0.0
C546 C 0.63905 0.05561 0.33042 0.0
C547 C 0.69514 0.05433 0.3239 0.0
C548 C 0.60206 0.08067 0.29443 0.0
C549 C 0.55107 0.06651 0.32843 0.0
N550 N 0.66522 0.06155 0.31459 0.0
N551 N 0.58105 0.05818 0.33619 0.0
H552 H 0.70825 0.2103 0.5312 0.0
H553 H 0.68041 0.06787 0.43244 0.0
H554 H 0.66127 0.21401 0.44727 0.0
H555 H 0.76445 0.07644 0.48542 0.0
H556 H 0.66452 0.11828 0.44592 0.0
H557 H 0.72194 0.15846 0.52165 0.0
C558 C 0.70101 0.20021 0.51068 0.0
C559 C 0.68367 0.21643 0.48995 0.0
C560 C 0.68618 0.10891 0.45493 0.0
C561 C 0.69842 0.15707 0.47932 0.0
C562 C 0.69504 0.08 0.44765 0.0
C563 C 0.72374 0.06784 0.45799 0.0
C564 C 0.70584 0.12562 0.47312 0.0
C565 C 0.74208 0.08491 0.47709 0.0
C566 C 0.70873 0.17067 0.50532 0.0
C567 C 0.67478 0.20231 0.46376 0.0
N568 N 0.73283 0.11294 0.48405 0.0
N569 N 0.68193 0.17334 0.45932 0.0
H570 H 0.06423 0.42479 0.722 0.0
H571 H 0.19601 0.54263 0.73399 0.0
H572 H 0.07685 0.47393 0.80262 0.0
H573 H 0.21001 0.4601 0.68783 0.0
H574 H 0.14774 0.52403 0.75531 0.0
H575 H 0.11244 0.44534 0.70333 0.0
C576 C 0.07681 0.44037 0.73553 0.0
C577 C 0.06665 0.44776 0.76386 0.0
C578 C 0.16168 0.51003 0.74074 0.0
C579 C 0.12165 0.47102 0.74275 0.0
C580 C 0.18914 0.52052 0.72867 0.0
C581 C 0.20695 0.50283 0.70917 0.0
C582 C 0.15174 0.48206 0.73253 0.0
C583 C 0.19707 0.47439 0.70289 0.0
C584 C 0.10445 0.45176 0.72501 0.0
C585 C 0.08406 0.46769 0.78067 0.0
N586 N 0.16981 0.46503 0.7142 0.0
N587 N 0.11081 0.47878 0.7698 0.0
H588 H 0.74918 0.956 0.97945 0.0
H589 H 0.85798 0.81673 0.94405 0.0
H590 H 0.83061 0.95993 0.92401 0.0
H591 H 0.8111 0.82648 0.02706 0.0
H592 H 0.84335 0.86759 0.9332 0.0
H593 H 0.76746 0.90731 0.99516 0.0
C594 C 0.77115 0.94682 0.97095 0.0
C595 C 0.78847 0.96209 0.95048 0.0
C596 C 0.83633 0.85863 0.95382 0.0
C597 C 0.8089 0.90617 0.96765 0.0
C598 C 0.84445 0.82957 0.95993 0.0
C599 C 0.83582 0.81749 0.98654 0.0
C600 C 0.81874 0.87554 0.97415 0.0
C601 C 0.81832 0.83508 1.00635 0.0
C602 C 0.78151 0.91905 0.97988 0.0
C603 C 0.81668 0.94909 0.94004 0.0
N604 N 0.8101 0.86321 0.99967 0.0
N605 N 0.82575 0.92169 0.94839 0.0
H606 H 0.42768 0.62601 0.2697 0.0
H607 H 0.33345 0.51128 0.18014 0.0
H608 H 0.47426 0.54465 0.2439 0.0
H609 H 0.28936 0.55862 0.25199 0.0
H610 H 0.38518 0.52537 0.19883 0.0
H611 H 0.37678 0.60461 0.25926 0.0
C612 C 0.42723 0.60341 0.2624 0.0
C613 C 0.45535 0.58692 0.25829 0.0
C614 C 0.36422 0.53224 0.21076 0.0
C615 C 0.39687 0.56268 0.24495 0.0
C616 C 0.33466 0.52415 0.2002 0.0
C617 C 0.30701 0.53341 0.21479 0.0
C618 C 0.36618 0.55063 0.23553 0.0
C619 C 0.31004 0.55083 0.24019 0.0
C620 C 0.39808 0.59128 0.2563 0.0
C621 C 0.45317 0.55805 0.24764 0.0
N622 N 0.33908 0.55928 0.2495 0.0
N623 N 0.4244 0.54694 0.2409 0.0
H624 H 0.57007 0.15174 0.32128 0.0
H625 H 0.55267 0.26905 0.45154 0.0
H626 H 0.48945 0.21101 0.32929 0.0
H627 H 0.60666 0.18819 0.46053 0.0
H628 H 0.53373 0.25194 0.40378 0.0
H629 H 0.58974 0.16984 0.3687 0.0
C630 C 0.55692 0.16907 0.33266 0.0
C631 C 0.52818 0.18006 0.3213 0.0
C632 C 0.54959 0.23788 0.41628 0.0
C633 C 0.55026 0.20044 0.37556 0.0
C634 C 0.56035 0.24757 0.44358 0.0
C635 C 0.5814 0.23006 0.46002 0.0
C636 C 0.56036 0.21069 0.40502 0.0
C637 C 0.59046 0.2024 0.44861 0.0
C638 C 0.56791 0.17904 0.35988 0.0
C639 C 0.51175 0.20203 0.33726 0.0
N640 N 0.58019 0.19368 0.42161 0.0
N641 N 0.52303 0.21153 0.36357 0.0
H642 H 0.13015 0.29559 0.61679 0.0
H643 H 0.99384 0.33273 0.73133 0.0
H644 H 0.03441 0.31009 0.58654 0.0
H645 H 0.09145 0.35339 0.74495 0.0
H646 H 0.00609 0.3178 0.68044 0.0
H647 H 0.11423 0.30917 0.66597 0.0
C648 C 0.10562 0.30158 0.62043 0.0
C649 C 0.08366 0.30187 0.59723 0.0
C650 C 0.0247 0.32571 0.69462 0.0
C651 C 0.06507 0.31747 0.6544 0.0
C652 C 0.01776 0.33427 0.7236 0.0
C653 C 0.04159 0.34469 0.74232 0.0
C654 C 0.05585 0.32694 0.68461 0.0
C655 C 0.07231 0.34554 0.73139 0.0
C656 C 0.09657 0.30945 0.6487 0.0
C657 C 0.05216 0.3097 0.60371 0.0
N658 N 0.07851 0.33673 0.70342 0.0
N659 N 0.04372 0.31717 0.63178 0.0
H660 H 0.93791 0.85905 0.81786 0.0
H661 H 0.97171 0.75737 0.95377 0.0
H662 H 0.0289 0.81583 0.82915 0.0
H663 H 0.91432 0.83659 0.96055 0.0
H664 H 0.98866 0.77202 0.90513 0.0
H665 H 0.92288 0.8428 0.86636 0.0
C666 C 0.95444 0.84545 0.83013 0.0
C667 C 0.98471 0.83868 0.8193 0.0
C668 C 0.97259 0.78627 0.91744 0.0
C669 C 0.96766 0.82033 0.87499 0.0
C670 C 0.96304 0.77805 0.94522 0.0
C671 C 0.94162 0.79583 0.9613 0.0
C672 C 0.95991 0.81203 0.90528 0.0
C673 C 0.93098 0.82229 0.94903 0.0
C674 C 0.94598 0.8366 0.85801 0.0
C675 C 0.00529 0.82144 0.83658 0.0
N676 N 0.93982 0.82937 0.92156 0.0
N677 N 0.99639 0.8128 0.86355 0.0
H678 H 0.5223 0.71795 0.20764 0.0
H679 H 0.41337 0.68243 0.07247 0.0
H680 H 0.43475 0.67385 0.21819 0.0
H681 H 0.46022 0.76477 0.07777 0.0
H682 H 0.42678 0.67421 0.12409 0.0
H683 H 0.50506 0.73211 0.15829 0.0
C684 C 0.49921 0.71176 0.19977 0.0
C685 C 0.4798 0.69491 0.21703 0.0
C686 C 0.43411 0.69405 0.1139 0.0
C687 C 0.46063 0.70998 0.1605 0.0
C688 C 0.42679 0.69859 0.08446 0.0
C689 C 0.43599 0.72418 0.07094 0.0
C690 C 0.4514 0.71492 0.12964 0.0
C691 C 0.45289 0.74469 0.08749 0.0
C692 C 0.48948 0.71975 0.17166 0.0
C693 C 0.45026 0.68716 0.20572 0.0
N694 N 0.46041 0.73948 0.11596 0.0
N695 N 0.4418 0.69429 0.17793 0.0
H696 H 0.12747 0.40349 0.36249 0.0
H697 H 0.26337 0.42209 0.24398 0.0
H698 H 0.21855 0.3593 0.36883 0.0
H699 H 0.17251 0.46719 0.24185 0.0
H700 H 0.24757 0.39753 0.28858 0.0
H701 H 0.14396 0.42609 0.31764 0.0
C702 C 0.15111 0.39872 0.35466 0.0
C703 C 0.1717 0.3796 0.3698 0.0
C704 C 0.23112 0.41276 0.27825 0.0
C705 C 0.19069 0.4052 0.31766 0.0
C706 C 0.24008 0.42676 0.25273 0.0
C707 C 0.21931 0.44688 0.23905 0.0
C708 C 0.20116 0.41889 0.29018 0.0
C709 C 0.18945 0.45199 0.25152 0.0
C710 C 0.16045 0.4115 0.32879 0.0
C711 C 0.20176 0.37375 0.3579 0.0
N712 N 0.18138 0.43819 0.27628 0.0
N713 N 0.21037 0.38654 0.3326 0.0
H714 H 0.90049 0.9778 0.59518 0.0
H715 H 0.80523 0.92098 0.4551 0.0
H716 H 0.88553 0.88661 0.57546 0.0
H717 H 0.82646 0.01148 0.47006 0.0
H718 H 0.84017 0.9075 0.49589 0.0
H719 H 0.87833 0.99031 0.54725 0.0
C720 C 0.89264 0.96038 0.58074 0.0
C721 C 0.89461 0.9311 0.58957 0.0
C722 C 0.83787 0.93027 0.48992 0.0
C723 C 0.86931 0.9453 0.53444 0.0
C724 C 0.81818 0.93789 0.46646 0.0
C725 C 0.81359 0.96727 0.45899 0.0
C726 C 0.85251 0.95231 0.50653 0.0
C727 C 0.83006 0.98852 0.47483 0.0
C728 C 0.88017 0.96753 0.55327 0.0
C729 C 0.88463 0.90945 0.56964 0.0
N730 N 0.84851 0.98068 0.49813 0.0
N731 N 0.87214 0.91701 0.54321 0.0
H732 H 0.37194 0.56816 0.70536 0.0
H733 H 0.31442 0.67102 0.83942 0.0
H734 H 0.2737 0.58787 0.72252 0.0
H735 H 0.40947 0.63609 0.82952 0.0
H736 H 0.29894 0.64399 0.79501 0.0
H737 H 0.38627 0.59756 0.74829 0.0
C738 C 0.35338 0.5789 0.71806 0.0
C739 C 0.3216 0.5754 0.71056 0.0
C740 C 0.32317 0.64229 0.80262 0.0
C741 C 0.33779 0.60899 0.7599 0.0
C742 C 0.33199 0.65753 0.82809 0.0
C743 C 0.36337 0.656 0.83822 0.0
C744 C 0.34591 0.62546 0.78711 0.0
C745 C 0.38516 0.63845 0.82232 0.0
C746 C 0.36156 0.59557 0.74267 0.0
C747 C 0.2985 0.58989 0.72771 0.0
N748 N 0.37605 0.62399 0.79761 0.0
N749 N 0.30705 0.60599 0.7517 0.0
H750 H 0.59684 0.06359 0.07984 0.0
H751 H 0.72958 0.11945 0.97264 0.0
H752 H 0.64055 0.14737 0.08863 0.0
H753 H 0.68991 0.03402 0.96429 0.0
H754 H 0.69316 0.1315 0.01232 0.0
H755 H 0.62676 0.05377 0.03504 0.0
C756 C 0.61263 0.07999 0.07235 0.0
C757 C 0.61627 0.10631 0.08829 0.0
C758 C 0.69205 0.11021 1.00166 0.0
C759 C 0.65048 0.09522 0.03674 0.0
C760 C 0.71283 0.10334 0.97894 0.0
C761 C 0.7125 0.0758 0.96497 0.0
C762 C 0.67089 0.08927 0.01083 0.0
C763 C 0.69044 0.0557 0.97408 0.0
C764 C 0.62961 0.07439 0.04666 0.0
C765 C 0.63666 0.12691 0.07708 0.0
N766 N 0.67064 0.06275 0.99661 0.0
N767 N 0.65309 0.12083 0.0522 0.0
H768 H 0.72333 0.17524 0.69924 0.0
H769 H 0.67234 0.06913 0.82698 0.0
H770 H 0.64028 0.12296 0.69642 0.0
H771 H 0.76004 0.11478 0.82871 0.0
H772 H 0.65812 0.09289 0.78134 0.0
H773 H 0.73537 0.15702 0.74837 0.0
C774 C 0.70759 0.16001 0.70895 0.0
C775 C 0.68092 0.1504 0.69349 0.0
C776 C 0.6804 0.09791 0.79176 0.0
C777 C 0.6945 0.12954 0.74972 0.0
C778 C 0.68852 0.08439 0.81798 0.0
C779 C 0.7176 0.08971 0.83173 0.0
C780 C 0.70145 0.11693 0.77895 0.0
C781 C 0.73741 0.1099 0.81892 0.0
C782 C 0.71451 0.14957 0.73696 0.0
C783 C 0.66145 0.13055 0.70717 0.0
N784 N 0.72909 0.12259 0.79313 0.0
N785 N 0.66863 0.12082 0.73439 0.0
H786 H 0.20527 0.40572 0.10842 0.0
H787 H 0.09968 0.47055 0.97773 0.0
H788 H 0.1814 0.4977 0.10325 0.0
H789 H 0.12128 0.37886 0.99038 0.0
H790 H 0.12509 0.4816 0.02514 0.0
H791 H 0.16956 0.39594 0.06771 0.0
C792 C 0.19192 0.42384 0.09898 0.0
C793 C 0.19622 0.4525 0.10918 0.0
C794 C 0.12407 0.45908 0.01754 0.0
C795 C 0.15584 0.44167 0.0616 0.0
C796 C 0.10955 0.45274 0.99051 0.0
C797 C 0.10879 0.42374 0.97974 0.0
C798 C 0.13774 0.43623 0.03397 0.0
C799 C 0.12196 0.4016 0.9973 0.0
C800 C 0.17163 0.41829 0.07556 0.0
C801 C 0.17849 0.47523 0.09611 0.0
N802 N 0.13593 0.40832 0.0233 0.0
N803 N 0.15938 0.46939 0.0726 0.0
H804 H 0.84159 0.97663 0.32221 0.0
H805 H 0.804 0.8651 0.18995 0.0
H806 H 0.7561 0.92775 0.31758 0.0
H807 H 0.88949 0.91354 0.19842 0.0
H808 H 0.78635 0.88607 0.23698 0.0
H809 H 0.85957 0.95219 0.27754 0.0
C810 C 0.82653 0.96066 0.31188 0.0
C811 C 0.79712 0.95442 0.32379 0.0
C812 C 0.80899 0.89204 0.22854 0.0
C813 C 0.8178 0.92616 0.27199 0.0
C814 C 0.81919 0.87997 0.20173 0.0
C815 C 0.84828 0.88764 0.18996 0.0
C816 C 0.828 0.91194 0.24383 0.0
C817 C 0.86668 0.90732 0.2062 0.0
C818 C 0.8369 0.94665 0.28623 0.0
C819 C 0.77892 0.93331 0.30927 0.0
N820 N 0.85623 0.91874 0.23213 0.0
N821 N 0.78948 0.92004 0.28406 0.0
H822 H 0.35631 0.52148 0.56881 0.0
H823 H 0.38234 0.66026 0.46854 0.0
H824 H 0.31772 0.60833 0.58684 0.0
H825 H 0.41812 0.57345 0.44627 0.0
H826 H 0.36224 0.64183 0.51416 0.0
H827 H 0.38321 0.54038 0.52619 0.0
C828 C 0.3537 0.54453 0.56399 0.0
C829 C 0.33448 0.56329 0.58129 0.0
C830 C 0.37457 0.62677 0.49939 0.0
C831 C 0.36506 0.58497 0.53262 0.0
C832 C 0.38591 0.63727 0.47324 0.0
C833 C 0.40164 0.61832 0.4534 0.0
C834 C 0.37886 0.597 0.50587 0.0
C835 C 0.40622 0.58885 0.46098 0.0
C836 C 0.36899 0.55528 0.53962 0.0
C837 C 0.33201 0.59295 0.57403 0.0
N838 N 0.39468 0.57904 0.48655 0.0
N839 N 0.34696 0.60279 0.55022 0.0
H840 H 0.2462 0.24783 0.51158 0.0
H841 H 0.2706 0.18084 0.34993 0.0
H842 H 0.16782 0.22826 0.4545 0.0
H843 H 0.34589 0.19866 0.41132 0.0
H844 H 0.23255 0.20137 0.38535 0.0
H845 H 0.2825 0.23417 0.47255 0.0
C846 C 0.23658 0.2408 0.49065 0.0
C847 C 0.20389 0.2389 0.48643 0.0
C848 C 0.25742 0.20096 0.39093 0.0
C849 C 0.24573 0.22277 0.44126 0.0
C850 C 0.27924 0.18908 0.37077 0.0
C851 C 0.31174 0.18776 0.37754 0.0
C852 C 0.26804 0.21168 0.41816 0.0
C853 C 0.32131 0.19939 0.40476 0.0
C854 C 0.25742 0.23293 0.46829 0.0
C855 C 0.19286 0.22995 0.45871 0.0
N856 N 0.29964 0.21063 0.42398 0.0
N857 N 0.21378 0.22191 0.43721 0.0
H858 H 0.14936 0.09045 0.66956 0.0
H859 H 1.00479 0.98296 0.68746 0.0
H860 H 0.05872 0.10611 0.62817 0.0
H861 H 0.09518 0.97264 0.73089 0.0
H862 H 0.02413 0.02633 0.66314 0.0
H863 H 0.12996 0.04565 0.68986 0.0
C864 C 0.12528 0.08455 0.6648 0.0
C865 C 0.1056 0.10239 0.64733 0.0
C866 C 0.03969 0.01445 0.67794 0.0
C867 C 0.08312 0.05051 0.67045 0.0
C868 C 0.02869 0.98964 0.69179 0.0
C869 C 0.04827 0.97407 0.71143 0.0
C870 C 0.07052 0.02371 0.68368 0.0
C871 C 0.07904 0.98388 0.71614 0.0
C872 C 0.11423 0.05879 0.67632 0.0
C873 C 0.07483 0.09304 0.64141 0.0
N874 N 0.08909 0.00797 0.70247 0.0
N875 N 0.06448 0.06786 0.65306 0.0
H876 H 0.17732 0.80274 0.88297 0.0
H877 H 0.33225 0.84684 0.97195 0.0
H878 H 0.22191 0.88589 0.87613 0.0
H879 H 0.30247 0.75761 0.96514 0.0
H880 H 0.29116 0.86113 0.93699 0.0
H881 H 0.22171 0.78535 0.91361 0.0
C882 C 0.19644 0.81728 0.88782 0.0
C883 C 0.19592 0.84579 0.87685 0.0
C884 C 0.29365 0.83836 0.94289 0.0
C885 C 0.24662 0.8261 0.91184 0.0
C886 C 0.31713 0.8302 0.96288 0.0
C887 C 0.32062 0.80105 0.97151 0.0
C888 C 0.27313 0.8173 0.93162 0.0
C889 C 0.30048 0.78034 0.95901 0.0
C890 C 0.22183 0.80729 0.90514 0.0
C891 C 0.22145 0.86362 0.88369 0.0
N892 N 0.27731 0.78892 0.93987 0.0
N893 N 0.24556 0.85355 0.90082 0.0
H894 H 0.48415 0.05016 0.1738 0.0
H895 H 0.37488 0.91175 0.18675 0.0
H896 H 0.41281 0.04312 0.23981 0.0
H897 H 0.43004 0.9282 0.1102 0.0
H898 H 0.38994 0.95899 0.20733 0.0
H899 H 0.46615 1.00476 0.15094 0.0
C900 C 0.46459 0.0392 0.18342 0.0
C901 C 0.45004 0.05052 0.20885 0.0
C902 C 0.39867 0.95229 0.18598 0.0
C903 C 0.42951 0.99831 0.18289 0.0
C904 C 0.38995 0.92532 0.1741 0.0
C905 C 0.40116 0.91577 0.14661 0.0
C906 C 0.419 0.96991 0.17045 0.0
C907 C 0.42119 0.93426 0.13165 0.0
C908 C 0.45432 0.01326 0.17033 0.0
C909 C 0.42476 0.0353 0.22024 0.0
N910 N 0.42953 0.96033 0.14379 0.0
N911 N 0.41547 0.00992 0.20732 0.0
H912 H 0.81733 0.39984 0.65047 0.0
H913 H 0.70962 0.26185 0.61721 0.0
H914 H 0.83606 0.31503 0.68779 0.0
H915 H 0.69738 0.34587 0.57642 0.0
H916 H 0.75274 0.28161 0.64703 0.0
H917 H 0.77041 0.38097 0.62651 0.0
C918 C 0.81163 0.37718 0.65356 0.0
C919 C 0.83089 0.35893 0.67094 0.0
C920 C 0.74042 0.29571 0.63167 0.0
C921 C 0.77677 0.33714 0.64373 0.0
C922 C 0.71571 0.28449 0.61475 0.0
C923 C 0.69999 0.30215 0.5941 0.0
C924 C 0.7493 0.32478 0.62795 0.0
C925 C 0.70898 0.33131 0.5918 0.0
C926 C 0.78468 0.36644 0.64 0.0
C927 C 0.82183 0.32993 0.67469 0.0
N928 N 0.73305 0.34161 0.60837 0.0
N929 N 0.79551 0.31986 0.66105 0.0
H930 H 0.00527 0.46257 0.85197 0.0
H931 H 0.8701 0.57147 0.91503 0.0
H932 H 0.90561 0.44927 0.84074 0.0
H933 H 0.9694 0.58602 0.92768 0.0
H934 H 0.88309 0.52524 0.89005 0.0
H935 H 0.99312 0.50585 0.88272 0.0
C936 C 0.98084 0.46862 0.85622 0.0
C937 C 0.95637 0.45254 0.84358 0.0
C938 C 0.9021 0.53846 0.89831 0.0
C939 C 0.9423 0.50203 0.8785 0.0
C940 C 0.8947 0.56503 0.91238 0.0
C941 C 0.9187 0.58289 0.92317 0.0
C942 C 0.93381 0.52951 0.89483 0.0
C943 C 0.95013 0.57295 0.91976 0.0
C944 C 0.97392 0.49335 0.87371 0.0
C945 C 0.92517 0.46118 0.84991 0.0
N946 N 0.95679 0.547 0.90573 0.0
N947 N 0.91903 0.48545 0.86673 0.0
H948 H 0.8034 0.69685 0.05868 0.0
H949 H 0.69153 0.71594 0.19732 0.0
H950 H 0.80685 0.77289 0.11598 0.0
H951 H 0.67546 0.65563 0.1253 0.0
H952 H 0.73489 0.73655 0.16999 0.0
H953 H 0.75865 0.68 0.08565 0.0
C954 C 0.79485 0.71003 0.07704 0.0
C955 C 0.80901 0.73639 0.08503 0.0
C956 C 0.7217 0.71891 0.16019 0.0
C957 C 0.75729 0.71705 0.11616 0.0
C958 C 0.69683 0.70724 0.17567 0.0
C959 C 0.67999 0.68374 0.16376 0.0
C960 C 0.72987 0.70688 0.1327 0.0
C961 C 0.68818 0.67323 0.13572 0.0
C962 C 0.76908 0.70041 0.09238 0.0
C963 C 0.79665 0.75246 0.10903 0.0
N964 N 0.7126 0.6847 0.12131 0.0
N965 N 0.77151 0.74248 0.12385 0.0
H966 H 0.6321 0.44235 0.38992 0.0
H967 H 0.50242 0.57215 0.36982 0.0
H968 H 0.54886 0.45099 0.44329 0.0
H969 H 0.59113 0.56551 0.32432 0.0
H970 H 0.51777 0.52785 0.39678 0.0
H971 H 0.61596 0.48701 0.36493 0.0
C972 C 0.61045 0.45365 0.39649 0.0
C973 C 0.59197 0.44279 0.41893 0.0
C974 C 0.53386 0.53625 0.38096 0.0
C975 C 0.57304 0.49425 0.39004 0.0
C976 C 0.52517 0.56162 0.36565 0.0
C977 C 0.54543 0.57269 0.34466 0.0
C978 C 0.56296 0.5218 0.37517 0.0
C979 C 0.57457 0.55791 0.34014 0.0
C980 C 0.60115 0.4792 0.3821 0.0
C981 C 0.56375 0.45826 0.42594 0.0
N982 N 0.58232 0.53332 0.3551 0.0
N983 N 0.5552 0.48319 0.41163 0.0
H984 H 0.35743 0.32646 0.22955 0.0
H985 H 0.4425 0.17888 0.16896 0.0
H986 H 0.38439 0.31219 0.13954 0.0
H987 H 0.42985 0.19854 0.26081 0.0
H988 H 0.41456 0.22478 0.15724 0.0
H989 H 0.37757 0.27719 0.24075 0.0
C990 C 0.3673 0.31287 0.21206 0.0
C991 C 0.3693 0.32358 0.18355 0.0
C992 C 0.41767 0.21898 0.17996 0.0
C993 C 0.39259 0.2671 0.1963 0.0
C994 C 0.43348 0.19269 0.18667 0.0
C995 C 0.43875 0.18502 0.21592 0.0
C996 C 0.40691 0.23776 0.20266 0.0
C997 C 0.42647 0.20372 0.23797 0.0
C998 C 0.37896 0.28479 0.21852 0.0
C999 C 0.38272 0.30505 0.1619 0.0
N1000 N 0.4113 0.22932 0.2309 0.0
N1001 N 0.39385 0.27779 0.16872 0.0
H1002 H 0.96176 0.32399 0.87138 0.0
H1003 H 0.84591 0.19354 0.83371 0.0
H1004 H 0.91272 0.31553 0.78853 0.0
H1005 H 0.9084 0.19565 0.9087 0.0
H1006 H 0.86446 0.24141 0.81956 0.0
H1007 H 0.93631 0.28051 0.88814 0.0
C1008 C 0.94545 0.31313 0.85672 0.0
C1009 C 0.93967 0.32328 0.82833 0.0
C1010 C 0.87399 0.23144 0.83917 0.0
C1011 C 0.91048 0.27321 0.84749 0.0
C1012 C 0.86332 0.20423 0.84734 0.0
C1013 C 0.87577 0.19059 0.87236 0.0
C1014 C 0.89712 0.24517 0.85626 0.0
C1015 C 0.8985 0.20522 0.88905 0.0
C1016 C 0.93097 0.28821 0.86634 0.0
C1017 C 0.91804 0.30838 0.81052 0.0
N1018 N 0.90846 0.2317 0.88068 0.0
N1019 N 0.90437 0.28393 0.82033 0.0
H1020 H 0.08729 0.6258 0.07413 0.0
H1021 H 0.9327 0.72052 0.11873 0.0
H1022 H 0.04283 0.62252 0.15843 0.0
H1023 H 0.96538 0.71292 0.02983 0.0
H1024 H 0.97372 0.68506 0.1335 0.0
H1025 H 0.04413 0.65851 0.05734 0.0
C1026 C 0.06849 0.63192 0.0891 0.0
C1027 C 0.06869 0.62124 0.11773 0.0
C1028 C 0.97191 0.69098 0.11071 0.0
C1029 C 0.01924 0.65867 0.09865 0.0
C1030 C 0.94846 0.71125 0.10228 0.0
C1031 C 0.94574 0.71977 0.07306 0.0
C1032 C 0.99309 0.67923 0.08983 0.0
C1033 C 0.96674 0.70697 0.05263 0.0
C1034 C 0.04377 0.65046 0.07945 0.0
C1035 C 0.04352 0.62978 0.13606 0.0
N1036 N 0.9897 0.6875 0.06143 0.0
N1037 N 0.02001 0.64802 0.12628 0.0
H1038 H 0.63073 0.85314 0.31156 0.0
H1039 H 0.59246 0.68539 0.34121 0.0
H1040 H 0.663 0.80863 0.38915 0.0
H1041 H 0.54374 0.73998 0.27859 0.0
H1042 H 0.62751 0.72622 0.35321 0.0
H1043 H 0.60773 0.80794 0.29364 0.0
C1044 C 0.63304 0.83385 0.32488 0.0
C1045 C 0.64838 0.83499 0.35222 0.0
C1046 C 0.6095 0.729 0.33647 0.0
C1047 C 0.62216 0.78267 0.33153 0.0
C1048 C 0.58978 0.70564 0.32943 0.0
C1049 C 0.56526 0.70945 0.3089 0.0
C1050 C 0.60475 0.75602 0.32255 0.0
C1051 C 0.56235 0.73624 0.2946 0.0
C1052 C 0.61999 0.80793 0.31453 0.0
C1053 C 0.65137 0.80888 0.36799 0.0
N1054 N 0.58168 0.75845 0.30175 0.0
N1055 N 0.63809 0.78387 0.35757 0.0
H1056 H 0.58361 0.33677 0.56595 0.0
H1057 H 0.39717 0.35365 0.58973 0.0
H1058 H 0.51794 0.26823 0.54852 0.0
H1059 H 0.46202 0.4216 0.61233 0.0
H1060 H 0.44089 0.32399 0.56987 0.0
H1061 H 0.53918 0.37024 0.57806 0.0
C1062 C 0.55981 0.3289 0.56437 0.0
C1063 C 0.55433 0.29971 0.55644 0.0
C1064 C 0.44561 0.34544 0.57902 0.0
C1065 C 0.50361 0.33761 0.57039 0.0
C1066 C 0.42065 0.36232 0.59051 0.0
C1067 C 0.426 0.39 0.60302 0.0
C1068 C 0.47628 0.35619 0.58011 0.0
C1069 C 0.45682 0.40041 0.60282 0.0
C1070 C 0.5345 0.34794 0.57136 0.0
C1071 C 0.52315 0.29053 0.55477 0.0
N1072 N 0.48087 0.38339 0.59177 0.0
N1073 N 0.49898 0.30936 0.56186 0.0
H1074 H 0.17172 0.71639 0.73242 0.0
H1075 H 0.05811 0.84293 0.66839 0.0
H1076 H 0.14575 0.72531 0.64149 0.0
H1077 H 0.08397 0.84035 0.75971 0.0
H1078 H 0.09494 0.80236 0.65837 0.0
H1079 H 0.14394 0.76329 0.74332 0.0
C1080 C 0.16035 0.72823 0.71475 0.0
C1081 C 0.16065 0.71658 0.68604 0.0
C1082 C 0.09301 0.8107 0.68062 0.0
C1083 C 0.12903 0.77022 0.69833 0.0
C1084 C 0.07205 0.83404 0.6863 0.0
C1085 C 0.068 0.84492 0.71488 0.0
C1086 C 0.10982 0.79759 0.70378 0.0
C1087 C 0.0866 0.83261 0.73732 0.0
C1088 C 0.14449 0.75497 0.72099 0.0
C1089 C 0.14552 0.73293 0.66404 0.0
N1090 N 0.10645 0.80922 0.73136 0.0
N1091 N 0.13033 0.75869 0.67067 0.0
H1092 H 0.45439 0.85019 0.03582 0.0
H1093 H 0.5737 0.88945 0.90846 0.0
H1094 H 0.4569 0.80825 0.95039 0.0
H1095 H 0.56674 0.93937 0.98931 0.0
H1096 H 0.53225 0.85822 0.92507 0.0
H1097 H 0.49616 0.88247 0.02047 0.0
C1098 C 0.46356 0.84784 0.01385 0.0
C1099 C 0.45212 0.82639 0.99441 0.0
C1100 C 0.53975 0.87595 0.93927 0.0
C1101 C 0.49996 0.86303 0.97684 0.0
C1102 C 0.56368 0.89367 0.92988 0.0
C1103 C 0.57385 0.91702 0.94755 0.0
C1104 C 0.52578 0.88147 0.96664 0.0
C1105 C 0.55945 0.92175 0.97487 0.0
C1106 C 0.48743 0.86623 1.00512 0.0
C1107 C 0.46495 0.82434 0.96622 0.0
N1108 N 0.53616 0.9041 0.98361 0.0
N1109 N 0.48815 0.84231 0.95838 0.0
H1110 H 0.90812 0.1722 0.44697 0.0
H1111 H 0.07244 0.17393 0.53527 0.0
H1112 H 0.956 0.09259 0.47442 0.0
H1113 H 0.03549 0.24516 0.48333 0.0
H1114 H 0.02728 0.14465 0.51944 0.0
H1115 H 0.95167 0.20012 0.46676 0.0
C1116 C 0.92779 0.16047 0.45707 0.0
C1117 C 0.92834 0.12978 0.4585 0.0
C1118 C 0.02917 0.16671 0.51159 0.0
C1119 C 0.97852 0.16206 0.48191 0.0
C1120 C 0.05489 0.18347 0.52067 0.0
C1121 C 0.05799 0.21207 0.51053 0.0
C1122 C 0.00616 0.17883 0.49263 0.0
C1123 C 0.03442 0.2232 0.4916 0.0
C1124 C 0.95268 0.17654 0.46853 0.0
C1125 C 0.95428 0.11616 0.47283 0.0
N1126 N 0.00963 0.20667 0.48341 0.0
N1127 N 0.97834 0.13234 0.48385 0.0
loop_
_geom_bond_atom_site_label_1
_geom_bond_atom_site_label_2
_geom_bond_distance
_geom_bond_site_symmetry_2
_ccdc_geom_bond_type
C0 Eu1 2.835 . S
C0 C2 1.500 . S
C0 O20 1.257 . S
C0 O21 1.260 . S
Eu1 C0 2.835 . S
Eu1 O20 2.473 . S
Eu1 O21 2.480 . S
Eu1 O22 2.430 . S
Eu1 O23 2.670 . S
Eu1 O24 2.394 . S
Eu1 O29 2.355 . S
Eu1 O31 2.374 . S
C2 C0 1.500 . S
C2 C3 1.377 . S
C2 C7 1.377 . S
C3 C2 1.377 . S
C3 C4 1.395 . S
C3 H32 0.931 . S
C4 C3 1.395 . S
C4 C5 1.383 . S
C4 H33 0.931 . S
C5 C4 1.383 . S
C5 C6 1.394 . S
C6 C5 1.394 . S
C6 C7 1.378 . S
C6 H34 0.931 . S
C7 C2 1.377 . S
C7 C6 1.378 . S
C7 H35 0.931 . S
C8 O22 1.259 . S
C8 O23 1.270 . S
C9 O24 1.251 . S
C9 O25 1.251 . S
C10 Eu11 2.835 . S
C10 C12 1.500 . S
C10 O26 1.257 . S
C10 O27 1.260 . S
Eu11 C10 2.835 . S
Eu11 O23 2.355 . S
Eu11 O25 2.374 . S
Eu11 O26 2.473 . S
Eu11 O27 2.480 . S
Eu11 O28 2.430 . S
Eu11 O29 2.670 . S
Eu11 O30 2.394 . S
C12 C10 1.500 . S
C12 C13 1.377 . S
C12 C17 1.377 . S
C13 C12 1.377 . S
C13 C14 1.395 . S
C13 H36 0.931 . S
C14 C13 1.395 . S
C14 C15 1.383 . S
C14 H37 0.931 . S
C15 C14 1.383 . S
C15 C16 1.394 . S
C16 C15 1.394 . S
C16 C17 1.378 . S
C16 H38 0.931 . S
C17 C12 1.377 . S
C17 C16 1.378 . S
C17 H39 0.931 . S
C18 O28 1.259 . S
C18 O29 1.270 . S
C19 O30 1.251 . S
C19 O31 1.251 . S
O20 C0 1.257 . S
O20 Eu1 2.473 . S
O21 C0 1.260 . S
O21 Eu1 2.480 . S
O22 Eu1 2.430 . S
O22 C8 1.259 . S
O23 Eu1 2.670 . S
O23 C8 1.270 . S
O23 Eu11 2.355 . S
O24 Eu1 2.394 . S
O24 C9 1.251 . S
O25 C9 1.251 . S
O25 Eu11 2.374 . S
O26 C10 1.257 . S
O26 Eu11 2.473 . S
O27 C10 1.260 . S
O27 Eu11 2.480 . S
O28 Eu11 2.430 . S
O28 C18 1.259 . S
O29 Eu1 2.355 . S
O29 Eu11 2.670 . S
O29 C18 1.270 . S
O30 Eu11 2.394 . S
O30 C19 1.251 . S
O31 Eu1 2.374 . S
O31 C19 1.251 . S
H32 C3 0.931 . S
H33 C4 0.931 . S
H34 C6 0.931 . S
H35 C7 0.931 . S
H36 C13 0.931 . S
H37 C14 0.931 . S
H38 C16 0.931 . S
H39 C17 0.931 . S
C40 Eu41 2.835 . S
C40 C42 1.500 . S
C40 O60 1.257 . S
C40 O61 1.260 . S
Eu41 C40 2.835 . S
Eu41 O60 2.473 . S
Eu41 O61 2.480 . S
Eu41 O62 2.430 1_455 S
Eu41 O63 2.670 1_455 S
Eu41 O64 2.394 1_455 S
Eu41 O69 2.355 . S
Eu41 O71 2.374 . S
C42 C40 1.500 . S
C42 C43 1.377 . S
C42 C47 1.377 . S
C43 C42 1.377 . S
C43 C44 1.395 . S
C43 H72 0.931 . S
C44 C43 1.395 . S
C44 C45 1.383 . S
C44 H73 0.931 . S
C45 C44 1.383 . S
C45 C46 1.394 . S
C46 C45 1.394 . S
C46 C47 1.378 . S
C46 H74 0.931 . S
C47 C42 1.377 . S
C47 C46 1.378 . S
C47 H75 0.931 . S
C48 O62 1.259 . S
C48 O63 1.270 . S
C49 O64 1.251 . S
C49 O65 1.251 . S
C50 Eu51 2.835 . S
C50 C52 1.500 . S
C50 O66 1.257 . S
C50 O67 1.260 . S
Eu51 C50 2.835 . S
Eu51 O63 2.355 . S
Eu51 O65 2.374 . S
Eu51 O66 2.473 . S
Eu51 O67 2.480 . S
Eu51 O68 2.430 1_655 S
Eu51 O69 2.670 1_655 S
Eu51 O70 2.394 1_655 S
C52 C50 1.500 . S
C52 C53 1.377 . S
C52 C57 1.377 . S
C53 C52 1.377 . S
C53 C54 1.395 . S
C53 H76 0.931 . S
C54 C53 1.395 . S
C54 C55 1.383 . S
C54 H77 0.931 . S
C55 C54 1.383 . S
C55 C56 1.394 . S
C56 C55 1.394 . S
C56 C57 1.378 . S
C56 H78 0.931 . S
C57 C52 1.377 . S
C57 C56 1.378 . S
C57 H79 0.931 . S
C58 O68 1.259 . S
C58 O69 1.270 . S
C59 O70 1.251 . S
C59 O71 1.251 . S
O60 C40 1.257 . S
O60 Eu41 2.473 . S
O61 C40 1.260 . S
O61 Eu41 2.480 . S
O62 Eu41 2.430 1_655 S
O62 C48 1.259 . S
O63 Eu41 2.670 1_655 S
O63 C48 1.270 . S
O63 Eu51 2.355 . S
O64 Eu41 2.394 1_655 S
O64 C49 1.251 . S
O65 C49 1.251 . S
O65 Eu51 2.374 . S
O66 C50 1.257 . S
O66 Eu51 2.473 . S
O67 C50 1.260 . S
O67 Eu51 2.480 . S
O68 Eu51 2.430 1_455 S
O68 C58 1.259 . S
O69 Eu41 2.355 . S
O69 Eu51 2.670 1_455 S
O69 C58 1.270 . S
O70 Eu51 2.394 1_455 S
O70 C59 1.251 . S
O71 Eu41 2.374 . S
O71 C59 1.251 . S
H72 C43 0.931 . S
H73 C44 0.931 . S
H74 C46 0.931 . S
H75 C47 0.931 . S
H76 C53 0.931 . S
H77 C54 0.931 . S
H78 C56 0.931 . S
H79 C57 0.931 . S
C80 Eu81 2.835 . S
C80 C82 1.500 . S
C80 O100 1.257 . S
C80 O101 1.260 . S
Eu81 C80 2.835 . S
Eu81 O100 2.473 . S
Eu81 O101 2.480 . S
Eu81 O102 2.430 1_556 S
Eu81 O103 2.670 1_556 S
Eu81 O104 2.394 1_556 S
Eu81 O109 2.355 . S
Eu81 O111 2.374 . S
C82 C80 1.500 . S
C82 C83 1.377 . S
C82 C87 1.377 . S
C83 C82 1.377 . S
C83 C84 1.395 . S
C83 H112 0.931 . S
C84 C83 1.395 . S
C84 C85 1.383 . S
C84 H113 0.931 . S
C85 C84 1.383 . S
C85 C86 1.394 . S
C86 C85 1.394 . S
C86 C87 1.378 . S
C86 H114 0.931 . S
C87 C82 1.377 . S
C87 C86 1.378 . S
C87 H115 0.931 . S
C88 O102 1.259 . S
C88 O103 1.270 . S
C89 O104 1.251 . S
C89 O105 1.251 . S
C90 Eu91 2.835 . S
C90 C92 1.500 . S
C90 O106 1.257 . S
C90 O107 1.260 . S
Eu91 C90 2.835 . S
Eu91 O103 2.355 . S
Eu91 O105 2.374 . S
Eu91 O106 2.473 . S
Eu91 O107 2.480 . S
Eu91 O108 2.430 1_554 S
Eu91 O109 2.670 1_554 S
Eu91 O110 2.394 1_554 S
C92 C90 1.500 . S
C92 C93 1.377 . S
C92 C97 1.377 . S
C93 C92 1.377 . S
C93 C94 1.395 . S
C93 H116 0.931 . S
C94 C93 1.395 . S
C94 C95 1.383 . S
C94 H117 0.931 . S
C95 C94 1.383 . S
C95 C96 1.394 . S
C96 C95 1.394 . S
C96 C97 1.378 . S
C96 H118 0.931 . S
C97 C92 1.377 . S
C97 C96 1.378 . S
C97 H119 0.931 . S
C98 O108 1.259 . S
C98 O109 1.270 . S
C99 O110 1.251 . S
C99 O111 1.251 . S
O100 C80 1.257 . S
O100 Eu81 2.473 . S
O101 C80 1.260 . S
O101 Eu81 2.480 . S
O102 Eu81 2.430 1_554 S
O102 C88 1.259 . S
O103 Eu81 2.670 1_554 S
O103 C88 1.270 . S
O103 Eu91 2.355 . S
O104 Eu81 2.394 1_554 S
O104 C89 1.251 . S
O105 C89 1.251 . S
O105 Eu91 2.374 . S
O106 C90 1.257 . S
O106 Eu91 2.473 . S
O107 C90 1.260 . S
O107 Eu91 2.480 . S
O108 Eu91 2.430 1_556 S
O108 C98 1.259 . S
O109 Eu81 2.355 . S
O109 Eu91 2.670 1_556 S
O109 C98 1.270 . S
O110 Eu91 2.394 1_556 S
O110 C99 1.251 . S
O111 Eu81 2.374 . S
O111 C99 1.251 . S
H112 C83 0.931 . S
H113 C84 0.931 . S
H114 C86 0.931 . S
H115 C87 0.931 . S
H116 C93 0.931 . S
H117 C94 0.931 . S
H118 C96 0.931 . S
H119 C97 0.931 . S
C120 Eu121 2.835 . S
C120 C122 1.500 . S
C120 O140 1.257 . S
C120 O141 1.260 . S
Eu121 C120 2.835 . S
Eu121 O140 2.473 . S
Eu121 O141 2.480 . S
Eu121 O142 2.430 . S
Eu121 O143 2.670 . S
Eu121 O144 2.394 . S
Eu121 O149 2.355 . S
Eu121 O151 2.374 . S
C122 C120 1.500 . S
C122 C123 1.377 . S
C122 C127 1.377 . S
C123 C122 1.377 . S
C123 C124 1.395 . S
C123 H152 0.931 . S
C124 C123 1.395 . S
C124 C125 1.383 . S
C124 H153 0.931 . S
C125 C124 1.383 . S
C125 C126 1.394 . S
C126 C125 1.394 . S
C126 C127 1.378 . S
C126 H154 0.931 . S
C127 C122 1.377 . S
C127 C126 1.378 . S
C127 H155 0.931 . S
C128 O142 1.259 . S
C128 O143 1.270 . S
C129 O144 1.251 . S
C129 O145 1.251 . S
C130 Eu131 2.835 . S
C130 C132 1.500 . S
C130 O146 1.257 . S
C130 O147 1.260 . S
Eu131 C130 2.835 . S
Eu131 O143 2.355 . S
Eu131 O145 2.374 . S
Eu131 O146 2.473 . S
Eu131 O147 2.480 . S
Eu131 O148 2.430 . S
Eu131 O149 2.670 . S
Eu131 O150 2.394 . S
C132 C130 1.500 . S
C132 C133 1.377 . S
C132 C137 1.377 . S
C133 C132 1.377 . S
C133 C134 1.395 . S
C133 H156 0.931 . S
C134 C133 1.395 . S
C134 C135 1.383 . S
C134 H157 0.931 . S
C135 C134 1.383 . S
C135 C136 1.394 . S
C136 C135 1.394 . S
C136 C137 1.378 . S
C136 H158 0.931 . S
C137 C132 1.377 . S
C137 C136 1.378 . S
C137 H159 0.931 . S
C138 O148 1.259 . S
C138 O149 1.270 . S
C139 O150 1.251 . S
C139 O151 1.251 . S
O140 C120 1.257 . S
O140 Eu121 2.473 . S
O141 C120 1.260 . S
O141 Eu121 2.480 . S
O142 Eu121 2.430 . S
O142 C128 1.259 . S
O143 Eu121 2.670 . S
O143 C128 1.270 . S
O143 Eu131 2.355 . S
O144 Eu121 2.394 . S
O144 C129 1.251 . S
O145 C129 1.251 . S
O145 Eu131 2.374 . S
O146 C130 1.257 . S
O146 Eu131 2.473 . S
O147 C130 1.260 . S
O147 Eu131 2.480 . S
O148 Eu131 2.430 . S
O148 C138 1.259 . S
O149 Eu121 2.355 . S
O149 Eu131 2.670 . S
O149 C138 1.270 . S
O150 Eu131 2.394 . S
O150 C139 1.251 . S
O151 Eu121 2.374 . S
O151 C139 1.251 . S
H152 C123 0.931 . S
H153 C124 0.931 . S
H154 C126 0.931 . S
H155 C127 0.931 . S
H156 C133 0.931 . S
H157 C134 0.931 . S
H158 C136 0.931 . S
H159 C137 0.931 . S
C160 Eu161 2.835 . S
C160 C162 1.500 . S
C160 O180 1.257 . S
C160 O181 1.260 . S
Eu161 C160 2.835 . S
Eu161 O180 2.473 . S
Eu161 O181 2.480 . S
Eu161 O182 2.430 . S
Eu161 O183 2.670 . S
Eu161 O184 2.394 . S
Eu161 O189 2.355 . S
Eu161 O191 2.374 . S
C162 C160 1.500 . S
C162 C163 1.377 . S
C162 C167 1.377 . S
C163 C162 1.377 . S
C163 C164 1.395 . S
C163 H192 0.931 . S
C164 C163 1.395 . S
C164 C165 1.383 . S
C164 H193 0.931 . S
C165 C164 1.383 . S
C165 C166 1.394 . S
C166 C165 1.394 . S
C166 C167 1.378 . S
C166 H194 0.931 . S
C167 C162 1.377 . S
C167 C166 1.378 . S
C167 H195 0.931 . S
C168 O182 1.259 . S
C168 O183 1.270 . S
C169 O184 1.251 . S
C169 O185 1.251 . S
C170 Eu171 2.835 . S
C170 C172 1.500 . S
C170 O186 1.257 . S
C170 O187 1.260 . S
Eu171 C170 2.835 . S
Eu171 O183 2.355 . S
Eu171 O185 2.374 . S
Eu171 O186 2.473 . S
Eu171 O187 2.480 . S
Eu171 O188 2.430 . S
Eu171 O189 2.670 . S
Eu171 O190 2.394 . S
C172 C170 1.500 . S
C172 C173 1.377 . S
C172 C177 1.377 . S
C173 C172 1.377 . S
C173 C174 1.395 . S
C173 H196 0.931 . S
C174 C173 1.395 . S
C174 C175 1.383 . S
C174 H197 0.931 . S
C175 C174 1.383 . S
C175 C176 1.394 . S
C176 C175 1.394 . S
C176 C177 1.378 . S
C176 H198 0.931 . S
C177 C172 1.377 . S
C177 C176 1.378 . S
C177 H199 0.931 . S
C178 O188 1.259 . S
C178 O189 1.270 . S
C179 O190 1.251 . S
C179 O191 1.251 . S
O180 C160 1.257 . S
O180 Eu161 2.473 . S
O181 C160 1.260 . S
O181 Eu161 2.480 . S
O182 Eu161 2.430 . S
O182 C168 1.259 . S
O183 Eu161 2.670 . S
O183 C168 1.270 . S
O183 Eu171 2.355 . S
O184 Eu161 2.394 . S
O184 C169 1.251 . S
O185 C169 1.251 . S
O185 Eu171 2.374 . S
O186 C170 1.257 . S
O186 Eu171 2.473 . S
O187 C170 1.260 . S
O187 Eu171 2.480 . S
O188 Eu171 2.430 . S
O188 C178 1.259 . S
O189 Eu161 2.355 . S
O189 Eu171 2.670 . S
O189 C178 1.270 . S
O190 Eu171 2.394 . S
O190 C179 1.251 . S
O191 Eu161 2.374 . S
O191 C179 1.251 . S
H192 C163 0.931 . S
H193 C164 0.931 . S
H194 C166 0.931 . S
H195 C167 0.931 . S
H196 C173 0.931 . S
H197 C174 0.931 . S
H198 C176 0.931 . S
H199 C177 0.931 . S
C200 Eu201 2.835 . S
C200 C202 1.500 . S
C200 O220 1.257 . S
C200 O221 1.260 . S
Eu201 C200 2.835 . S
Eu201 O220 2.473 . S
Eu201 O221 2.480 . S
Eu201 O222 2.430 . S
Eu201 O223 2.670 . S
Eu201 O224 2.394 . S
Eu201 O229 2.355 1_455 S
Eu201 O231 2.374 1_455 S
C202 C200 1.500 . S
C202 C203 1.377 . S
C202 C207 1.377 . S
C203 C202 1.377 . S
C203 C204 1.395 . S
C203 H232 0.931 . S
C204 C203 1.395 . S
C204 C205 1.383 . S
C204 H233 0.931 . S
C205 C204 1.383 . S
C205 C206 1.394 . S
C206 C205 1.394 . S
C206 C207 1.378 . S
C206 H234 0.931 . S
C207 C202 1.377 . S
C207 C206 1.378 . S
C207 H235 0.931 . S
C208 O222 1.259 . S
C208 O223 1.270 . S
C209 O224 1.251 . S
C209 O225 1.251 . S
C210 Eu211 2.835 . S
C210 C212 1.500 . S
C210 O226 1.257 . S
C210 O227 1.260 . S
Eu211 C210 2.835 . S
Eu211 O223 2.355 1_655 S
Eu211 O225 2.374 1_655 S
Eu211 O226 2.473 . S
Eu211 O227 2.480 . S
Eu211 O228 2.430 . S
Eu211 O229 2.670 . S
Eu211 O230 2.394 . S
C212 C210 1.500 . S
C212 C213 1.377 . S
C212 C217 1.377 . S
C213 C212 1.377 . S
C213 C214 1.395 . S
C213 H236 0.931 . S
C214 C213 1.395 . S
C214 C215 1.383 . S
C214 H237 0.931 . S
C215 C214 1.383 . S
C215 C216 1.394 . S
C216 C215 1.394 . S
C216 C217 1.378 . S
C216 H238 0.931 . S
C217 C212 1.377 . S
C217 C216 1.378 . S
C217 H239 0.931 . S
C218 O228 1.259 . S
C218 O229 1.270 . S
C219 O230 1.251 . S
C219 O231 1.251 . S
O220 C200 1.257 . S
O220 Eu201 2.473 . S
O221 C200 1.260 . S
O221 Eu201 2.480 . S
O222 Eu201 2.430 . S
O222 C208 1.259 . S
O223 Eu201 2.670 . S
O223 C208 1.270 . S
O223 Eu211 2.355 1_455 S
O224 Eu201 2.394 . S
O224 C209 1.251 . S
O225 C209 1.251 . S
O225 Eu211 2.374 1_455 S
O226 C210 1.257 . S
O226 Eu211 2.473 . S
O227 C210 1.260 . S
O227 Eu211 2.480 . S
O228 Eu211 2.430 . S
O228 C218 1.259 . S
O229 Eu201 2.355 1_655 S
O229 Eu211 2.670 . S
O229 C218 1.270 . S
O230 Eu211 2.394 . S
O230 C219 1.251 . S
O231 Eu201 2.374 1_655 S
O231 C219 1.251 . S
H232 C203 0.931 . S
H233 C204 0.931 . S
H234 C206 0.931 . S
H235 C207 0.931 . S
H236 C213 0.931 . S
H237 C214 0.931 . S
H238 C216 0.931 . S
H239 C217 0.931 . S
C240 Eu241 2.835 . S
C240 C242 1.500 . S
C240 O260 1.257 . S
C240 O261 1.260 . S
Eu241 C240 2.835 . S
Eu241 O260 2.473 . S
Eu241 O261 2.480 . S
Eu241 O262 2.430 . S
Eu241 O263 2.670 1_556 S
Eu241 O264 2.394 . S
Eu241 O269 2.355 1_556 S
Eu241 O271 2.374 1_556 S
C242 C240 1.500 . S
C242 C243 1.377 . S
C242 C247 1.377 . S
C243 C242 1.377 . S
C243 C244 1.395 . S
C243 H272 0.931 . S
C244 C243 1.395 . S
C244 C245 1.383 . S
C244 H273 0.931 . S
C245 C244 1.383 . S
C245 C246 1.394 . S
C246 C245 1.394 . S
C246 C247 1.378 . S
C246 H274 0.931 . S
C247 C242 1.377 . S
C247 C246 1.378 . S
C247 H275 0.931 . S
C248 O262 1.259 . S
C248 O263 1.270 1_556 S
C249 O264 1.251 . S
C249 O265 1.251 . S
C250 Eu251 2.835 . S
C250 C252 1.500 . S
C250 O266 1.257 . S
C250 O267 1.260 . S
Eu251 C250 2.835 . S
Eu251 O263 2.355 . S
Eu251 O265 2.374 1_554 S
Eu251 O266 2.473 . S
Eu251 O267 2.480 . S
Eu251 O268 2.430 . S
Eu251 O269 2.670 . S
Eu251 O270 2.394 . S
C252 C250 1.500 . S
C252 C253 1.377 . S
C252 C257 1.377 . S
C253 C252 1.377 . S
C253 C254 1.395 . S
C253 H276 0.931 . S
C254 C253 1.395 . S
C254 C255 1.383 . S
C254 H277 0.931 . S
C255 C254 1.383 . S
C255 C256 1.394 . S
C256 C255 1.394 . S
C256 C257 1.378 . S
C256 H278 0.931 . S
C257 C252 1.377 . S
C257 C256 1.378 . S
C257 H279 0.931 . S
C258 O268 1.259 . S
C258 O269 1.270 . S
C259 O270 1.251 . S
C259 O271 1.251 . S
O260 C240 1.257 . S
O260 Eu241 2.473 . S
O261 C240 1.260 . S
O261 Eu241 2.480 . S
O262 Eu241 2.430 . S
O262 C248 1.259 . S
O263 Eu241 2.670 1_554 S
O263 C248 1.270 1_554 S
O263 Eu251 2.355 . S
O264 Eu241 2.394 . S
O264 C249 1.251 . S
O265 C249 1.251 . S
O265 Eu251 2.374 1_556 S
O266 C250 1.257 . S
O266 Eu251 2.473 . S
O267 C250 1.260 . S
O267 Eu251 2.480 . S
O268 Eu251 2.430 . S
O268 C258 1.259 . S
O269 Eu241 2.355 1_554 S
O269 Eu251 2.670 . S
O269 C258 1.270 . S
O270 Eu251 2.394 . S
O270 C259 1.251 . S
O271 Eu241 2.374 1_554 S
O271 C259 1.251 . S
H272 C243 0.931 . S
H273 C244 0.931 . S
H274 C246 0.931 . S
H275 C247 0.931 . S
H276 C253 0.931 . S
H277 C254 0.931 . S
H278 C256 0.931 . S
H279 C257 0.931 . S
C280 Eu281 2.835 . S
C280 C282 1.500 . S
C280 O300 1.257 . S
C280 O301 1.260 . S
Eu281 C280 2.835 . S
Eu281 O300 2.473 . S
Eu281 O301 2.480 . S
Eu281 O302 2.430 . S
Eu281 O303 2.670 . S
Eu281 O304 2.394 . S
Eu281 O309 2.355 . S
Eu281 O311 2.374 . S
C282 C280 1.500 . S
C282 C283 1.377 . S
C282 C287 1.377 . S
C283 C282 1.377 . S
C283 C284 1.395 . S
C283 H312 0.931 . S
C284 C283 1.395 . S
C284 C285 1.383 . S
C284 H313 0.931 . S
C285 C284 1.383 . S
C285 C286 1.394 . S
C286 C285 1.394 . S
C286 C287 1.378 . S
C286 H314 0.931 . S
C287 C282 1.377 . S
C287 C286 1.378 . S
C287 H315 0.931 . S
C288 O302 1.259 . S
C288 O303 1.270 . S
C289 O304 1.251 . S
C289 O305 1.251 . S
C290 Eu291 2.835 . S
C290 C292 1.500 . S
C290 O306 1.257 . S
C290 O307 1.260 . S
Eu291 C290 2.835 . S
Eu291 O303 2.355 . S
Eu291 O305 2.374 . S
Eu291 O306 2.473 . S
Eu291 O307 2.480 . S
Eu291 O308 2.430 . S
Eu291 O309 2.670 . S
Eu291 O310 2.394 . S
C292 C290 1.500 . S
C292 C293 1.377 . S
C292 C297 1.377 . S
C293 C292 1.377 . S
C293 C294 1.395 . S
C293 H316 0.931 . S
C294 C293 1.395 . S
C294 C295 1.383 . S
C294 H317 0.931 . S
C295 C294 1.383 . S
C295 C296 1.394 . S
C296 C295 1.394 . S
C296 C297 1.378 . S
C296 H318 0.931 . S
C297 C292 1.377 . S
C297 C296 1.378 . S
C297 H319 0.931 . S
C298 O308 1.259 . S
C298 O309 1.270 . S
C299 O310 1.251 . S
C299 O311 1.251 . S
O300 C280 1.257 . S
O300 Eu281 2.473 . S
O301 C280 1.260 . S
O301 Eu281 2.480 . S
O302 Eu281 2.430 . S
O302 C288 1.259 . S
O303 Eu281 2.670 . S
O303 C288 1.270 . S
O303 Eu291 2.355 . S
O304 Eu281 2.394 . S
O304 C289 1.251 . S
O305 C289 1.251 . S
O305 Eu291 2.374 . S
O306 C290 1.257 . S
O306 Eu291 2.473 . S
O307 C290 1.260 . S
O307 Eu291 2.480 . S
O308 Eu291 2.430 . S
O308 C298 1.259 . S
O309 Eu281 2.355 . S
O309 Eu291 2.670 . S
O309 C298 1.270 . S
O310 Eu291 2.394 . S
O310 C299 1.251 . S
O311 Eu281 2.374 . S
O311 C299 1.251 . S
H312 C283 0.931 . S
H313 C284 0.931 . S
H314 C286 0.931 . S
H315 C287 0.931 . S
H316 C293 0.931 . S
H317 C294 0.931 . S
H318 C296 0.931 . S
H319 C297 0.931 . S
C320 Eu321 2.835 . S
C320 C322 1.500 . S
C320 O340 1.257 . S
C320 O341 1.260 . S
Eu321 C320 2.835 . S
Eu321 O340 2.473 . S
Eu321 O341 2.480 . S
Eu321 O342 2.430 . S
Eu321 O343 2.670 . S
Eu321 O344 2.394 . S
Eu321 O349 2.355 . S
Eu321 O351 2.374 . S
C322 C320 1.500 . S
C322 C323 1.377 . S
C322 C327 1.377 . S
C323 C322 1.377 . S
C323 C324 1.395 . S
C323 H352 0.931 . S
C324 C323 1.395 . S
C324 C325 1.383 . S
C324 H353 0.931 . S
C325 C324 1.383 . S
C325 C326 1.394 . S
C326 C325 1.394 . S
C326 C327 1.378 . S
C326 H354 0.931 . S
C327 C322 1.377 . S
C327 C326 1.378 . S
C327 H355 0.931 . S
C328 O342 1.259 . S
C328 O343 1.270 . S
C329 O344 1.251 . S
C329 O345 1.251 . S
C330 Eu331 2.835 . S
C330 C332 1.500 . S
C330 O346 1.257 . S
C330 O347 1.260 . S
Eu331 C330 2.835 . S
Eu331 O343 2.355 . S
Eu331 O345 2.374 . S
Eu331 O346 2.473 . S
Eu331 O347 2.480 . S
Eu331 O348 2.430 . S
Eu331 O349 2.670 . S
Eu331 O350 2.394 . S
C332 C330 1.500 . S
C332 C333 1.377 . S
C332 C337 1.377 . S
C333 C332 1.377 . S
C333 C334 1.395 . S
C333 H356 0.931 . S
C334 C333 1.395 . S
C334 C335 1.383 . S
C334 H357 0.931 . S
C335 C334 1.383 . S
C335 C336 1.394 . S
C336 C335 1.394 . S
C336 C337 1.378 . S
C336 H358 0.931 . S
C337 C332 1.377 . S
C337 C336 1.378 . S
C337 H359 0.931 . S
C338 O348 1.259 . S
C338 O349 1.270 . S
C339 O350 1.251 . S
C339 O351 1.251 . S
O340 C320 1.257 . S
O340 Eu321 2.473 . S
O341 C320 1.260 . S
O341 Eu321 2.480 . S
O342 Eu321 2.430 . S
O342 C328 1.259 . S
O343 Eu321 2.670 . S
O343 C328 1.270 . S
O343 Eu331 2.355 . S
O344 Eu321 2.394 . S
O344 C329 1.251 . S
O345 C329 1.251 . S
O345 Eu331 2.374 . S
O346 C330 1.257 . S
O346 Eu331 2.473 . S
O347 C330 1.260 . S
O347 Eu331 2.480 . S
O348 Eu331 2.430 . S
O348 C338 1.259 . S
O349 Eu321 2.355 . S
O349 Eu331 2.670 . S
O349 C338 1.270 . S
O350 Eu331 2.394 . S
O350 C339 1.251 . S
O351 Eu321 2.374 . S
O351 C339 1.251 . S
H352 C323 0.931 . S
H353 C324 0.931 . S
H354 C326 0.931 . S
H355 C327 0.931 . S
H356 C333 0.931 . S
H357 C334 0.931 . S
H358 C336 0.931 . S
H359 C337 0.931 . S
C360 Eu361 2.835 . S
C360 C362 1.500 . S
C360 O380 1.257 . S
C360 O381 1.260 . S
Eu361 C360 2.835 . S
Eu361 O380 2.473 . S
Eu361 O381 2.480 . S
Eu361 O382 2.430 . S
Eu361 O383 2.670 1_565 S
Eu361 O384 2.394 . S
Eu361 O389 2.355 1_565 S
Eu361 O391 2.374 1_565 S
C362 C360 1.500 . S
C362 C363 1.377 . S
C362 C367 1.377 . S
C363 C362 1.377 . S
C363 C364 1.395 . S
C363 H392 0.931 . S
C364 C363 1.395 . S
C364 C365 1.383 . S
C364 H393 0.931 . S
C365 C364 1.383 . S
C365 C366 1.394 . S
C366 C365 1.394 . S
C366 C367 1.378 . S
C366 H394 0.931 . S
C367 C362 1.377 . S
C367 C366 1.378 . S
C367 H395 0.931 . S
C368 O382 1.259 . S
C368 O383 1.270 1_565 S
C369 O384 1.251 . S
C369 O385 1.251 1_565 S
C370 Eu371 2.835 . S
C370 C372 1.500 . S
C370 O386 1.257 . S
C370 O387 1.260 . S
Eu371 C370 2.835 . S
Eu371 O383 2.355 . S
Eu371 O385 2.374 . S
Eu371 O386 2.473 . S
Eu371 O387 2.480 . S
Eu371 O388 2.430 . S
Eu371 O389 2.670 . S
Eu371 O390 2.394 . S
C372 C370 1.500 . S
C372 C373 1.377 . S
C372 C377 1.377 . S
C373 C372 1.377 . S
C373 C374 1.395 . S
C373 H396 0.931 . S
C374 C373 1.395 . S
C374 C375 1.383 . S
C374 H397 0.931 . S
C375 C374 1.383 . S
C375 C376 1.394 . S
C376 C375 1.394 . S
C376 C377 1.378 . S
C376 H398 0.931 . S
C377 C372 1.377 . S
C377 C376 1.378 . S
C377 H399 0.931 . S
C378 O388 1.259 . S
C378 O389 1.270 . S
C379 O390 1.251 . S
C379 O391 1.251 . S
O380 C360 1.257 . S
O380 Eu361 2.473 . S
O381 C360 1.260 . S
O381 Eu361 2.480 . S
O382 Eu361 2.430 . S
O382 C368 1.259 . S
O383 Eu361 2.670 1_545 S
O383 C368 1.270 1_545 S
O383 Eu371 2.355 . S
O384 Eu361 2.394 . S
O384 C369 1.251 . S
O385 C369 1.251 1_545 S
O385 Eu371 2.374 . S
O386 C370 1.257 . S
O386 Eu371 2.473 . S
O387 C370 1.260 . S
O387 Eu371 2.480 . S
O388 Eu371 2.430 . S
O388 C378 1.259 . S
O389 Eu361 2.355 1_545 S
O389 Eu371 2.670 . S
O389 C378 1.270 . S
O390 Eu371 2.394 . S
O390 C379 1.251 . S
O391 Eu361 2.374 1_545 S
O391 C379 1.251 . S
H392 C363 0.931 . S
H393 C364 0.931 . S
H394 C366 0.931 . S
H395 C367 0.931 . S
H396 C373 0.931 . S
H397 C374 0.931 . S
H398 C376 0.931 . S
H399 C377 0.931 . S
C400 Eu401 2.835 . S
C400 C402 1.500 . S
C400 O420 1.257 . S
C400 O421 1.260 . S
Eu401 C400 2.835 . S
Eu401 O420 2.473 . S
Eu401 O421 2.480 . S
Eu401 O422 2.430 . S
Eu401 O423 2.670 1_545 S
Eu401 O424 2.394 . S
Eu401 O429 2.355 1_545 S
Eu401 O431 2.374 1_545 S
C402 C400 1.500 . S
C402 C403 1.377 . S
C402 C407 1.377 . S
C403 C402 1.377 . S
C403 C404 1.395 . S
C403 H432 0.931 . S
C404 C403 1.395 . S
C404 C405 1.383 . S
C404 H433 0.931 . S
C405 C404 1.383 . S
C405 C406 1.394 . S
C406 C405 1.394 . S
C406 C407 1.378 . S
C406 H434 0.931 . S
C407 C402 1.377 . S
C407 C406 1.378 . S
C407 H435 0.931 . S
C408 O422 1.259 . S
C408 O423 1.270 1_545 S
C409 O424 1.251 . S
C409 O425 1.251 . S
C410 Eu411 2.835 . S
C410 C412 1.500 . S
C410 O426 1.257 . S
C410 O427 1.260 . S
Eu411 C410 2.835 . S
Eu411 O423 2.355 . S
Eu411 O425 2.374 1_565 S
Eu411 O426 2.473 . S
Eu411 O427 2.480 . S
Eu411 O428 2.430 . S
Eu411 O429 2.670 . S
Eu411 O430 2.394 . S
C412 C410 1.500 . S
C412 C413 1.377 . S
C412 C417 1.377 . S
C413 C412 1.377 . S
C413 C414 1.395 . S
C413 H436 0.931 . S
C414 C413 1.395 . S
C414 C415 1.383 . S
C414 H437 0.931 . S
C415 C414 1.383 . S
C415 C416 1.394 . S
C416 C415 1.394 . S
C416 C417 1.378 . S
C416 H438 0.931 . S
C417 C412 1.377 . S
C417 C416 1.378 . S
C417 H439 0.931 . S
C418 O428 1.259 . S
C418 O429 1.270 . S
C419 O430 1.251 . S
C419 O431 1.251 . S
O420 C400 1.257 . S
O420 Eu401 2.473 . S
O421 C400 1.260 . S
O421 Eu401 2.480 . S
O422 Eu401 2.430 . S
O422 C408 1.259 . S
O423 Eu401 2.670 1_565 S
O423 C408 1.270 1_565 S
O423 Eu411 2.355 . S
O424 Eu401 2.394 . S
O424 C409 1.251 . S
O425 C409 1.251 . S
O425 Eu411 2.374 1_545 S
O426 C410 1.257 . S
O426 Eu411 2.473 . S
O427 C410 1.260 . S
O427 Eu411 2.480 . S
O428 Eu411 2.430 . S
O428 C418 1.259 . S
O429 Eu401 2.355 1_565 S
O429 Eu411 2.670 . S
O429 C418 1.270 . S
O430 Eu411 2.394 . S
O430 C419 1.251 . S
O431 Eu401 2.374 1_565 S
O431 C419 1.251 . S
H432 C403 0.931 . S
H433 C404 0.931 . S
H434 C406 0.931 . S
H435 C407 0.931 . S
H436 C413 0.931 . S
H437 C414 0.931 . S
H438 C416 0.931 . S
H439 C417 0.931 . S
C440 Eu441 2.835 . S
C440 C442 1.500 . S
C440 O460 1.257 . S
C440 O461 1.260 . S
Eu441 C440 2.835 . S
Eu441 O460 2.473 . S
Eu441 O461 2.480 . S
Eu441 O462 2.430 . S
Eu441 O463 2.670 . S
Eu441 O464 2.394 . S
Eu441 O469 2.355 . S
Eu441 O471 2.374 . S
C442 C440 1.500 . S
C442 C443 1.377 . S
C442 C447 1.377 . S
C443 C442 1.377 . S
C443 C444 1.395 . S
C443 H472 0.931 . S
C444 C443 1.395 . S
C444 C445 1.383 . S
C444 H473 0.931 . S
C445 C444 1.383 . S
C445 C446 1.394 . S
C446 C445 1.394 . S
C446 C447 1.378 . S
C446 H474 0.931 . S
C447 C442 1.377 . S
C447 C446 1.378 . S
C447 H475 0.931 . S
C448 O462 1.259 . S
C448 O463 1.270 . S
C449 O464 1.251 . S
C449 O465 1.251 . S
C450 Eu451 2.835 . S
C450 C452 1.500 . S
C450 O466 1.257 . S
C450 O467 1.260 . S
Eu451 C450 2.835 . S
Eu451 O463 2.355 . S
Eu451 O465 2.374 . S
Eu451 O466 2.473 . S
Eu451 O467 2.480 . S
Eu451 O468 2.430 . S
Eu451 O469 2.670 . S
Eu451 O470 2.394 . S
C452 C450 1.500 . S
C452 C453 1.377 . S
C452 C457 1.377 . S
C453 C452 1.377 . S
C453 C454 1.395 . S
C453 H476 0.931 . S
C454 C453 1.395 . S
C454 C455 1.383 . S
C454 H477 0.931 . S
C455 C454 1.383 . S
C455 C456 1.394 . S
C456 C455 1.394 . S
C456 C457 1.378 . S
C456 H478 0.931 . S
C457 C452 1.377 . S
C457 C456 1.378 . S
C457 H479 0.931 . S
C458 O468 1.259 . S
C458 O469 1.270 . S
C459 O470 1.251 . S
C459 O471 1.251 . S
O460 C440 1.257 . S
O460 Eu441 2.473 . S
O461 C440 1.260 . S
O461 Eu441 2.480 . S
O462 Eu441 2.430 . S
O462 C448 1.259 . S
O463 Eu441 2.670 . S
O463 C448 1.270 . S
O463 Eu451 2.355 . S
O464 Eu441 2.394 . S
O464 C449 1.251 . S
O465 C449 1.251 . S
O465 Eu451 2.374 . S
O466 C450 1.257 . S
O466 Eu451 2.473 . S
O467 C450 1.260 . S
O467 Eu451 2.480 . S
O468 Eu451 2.430 . S
O468 C458 1.259 . S
O469 Eu441 2.355 . S
O469 Eu451 2.670 . S
O469 C458 1.270 . S
O470 Eu451 2.394 . S
O470 C459 1.251 . S
O471 Eu441 2.374 . S
O471 C459 1.251 . S
H472 C443 0.931 . S
H473 C444 0.931 . S
H474 C446 0.931 . S
H475 C447 0.931 . S
H476 C453 0.931 . S
H477 C454 0.931 . S
H478 C456 0.931 . S
H479 C457 0.931 . S
H480 C486 0.930 . S
H481 C490 0.930 . S
H482 C495 0.929 . S
H483 C493 0.929 . S
H484 C488 0.929 . S
H485 C494 0.929 . S
C486 H480 0.930 . S
C486 C487 1.367 . S
C486 C494 1.378 . S
C487 C486 1.367 . S
C487 C495 1.433 . S
C488 H484 0.929 . S
C488 C490 1.378 . S
C488 C492 1.350 . S
C489 C492 1.463 . S
C489 C494 1.350 . S
C489 N497 1.427 . S
C490 H481 0.930 . S
C490 C488 1.378 . S
C490 C491 1.367 . S
C491 C490 1.367 . S
C491 C493 1.433 . S
C492 C488 1.350 . S
C492 C489 1.463 . S
C492 N496 1.427 . S
C493 H483 0.929 . S
C493 C491 1.433 . S
C493 N496 1.384 . S
C494 H485 0.929 . S
C494 C486 1.378 . S
C494 C489 1.350 . S
C495 H482 0.929 . S
C495 C487 1.433 . S
C495 N497 1.384 . S
N496 C492 1.427 . S
N496 C493 1.384 . S
N497 C489 1.427 . S
N497 C495 1.384 . S
H498 C504 0.954 . S
H499 C508 0.930 . S
H500 C513 0.929 . S
H501 C511 0.929 . S
H502 C506 0.929 . S
H503 C512 0.950 . S
C504 H498 0.954 . S
C504 C505 1.353 1_545 S
C504 C512 1.369 1_545 S
C505 C504 1.353 1_565 S
C505 C513 1.433 . S
C506 H502 0.929 . S
C506 C508 1.378 . S
C506 C510 1.350 . S
C507 C510 1.463 . S
C507 C512 1.350 . S
C507 N515 1.427 . S
C508 H499 0.930 . S
C508 C506 1.378 . S
C508 C509 1.367 . S
C509 C508 1.367 . S
C509 C511 1.433 . S
C510 C506 1.350 . S
C510 C507 1.463 . S
C510 N514 1.427 . S
C511 H501 0.929 . S
C511 C509 1.433 . S
C511 N514 1.384 . S
C512 H503 0.950 . S
C512 C504 1.369 1_565 S
C512 C507 1.350 . S
C513 H500 0.929 . S
C513 C505 1.433 . S
C513 N515 1.384 . S
N514 C510 1.427 . S
N514 C511 1.384 . S
N515 C507 1.427 . S
N515 C513 1.384 . S
H516 C522 0.930 . S
H517 C526 0.930 . S
H518 C531 0.929 1_556 S
H519 C529 0.929 . S
H520 C524 0.929 . S
H521 C530 0.929 . S
C522 H516 0.930 . S
C522 C523 1.367 . S
C522 C530 1.378 . S
C523 C522 1.367 . S
C523 C531 1.433 . S
C524 H520 0.929 . S
C524 C526 1.378 . S
C524 C528 1.350 . S
C525 C528 1.463 . S
C525 C530 1.350 . S
C525 N533 1.427 . S
C526 H517 0.930 . S
C526 C524 1.378 . S
C526 C527 1.367 . S
C527 C526 1.367 . S
C527 C529 1.433 . S
C528 C524 1.350 . S
C528 C525 1.463 . S
C528 N532 1.427 . S
C529 H519 0.929 . S
C529 C527 1.433 . S
C529 N532 1.384 . S
C530 H521 0.929 . S
C530 C522 1.378 . S
C530 C525 1.350 . S
C531 H518 0.929 1_554 S
C531 C523 1.433 . S
C531 N533 1.384 . S
N532 C528 1.427 . S
N532 C529 1.384 . S
N533 C525 1.427 . S
N533 C531 1.384 . S
H534 C540 0.930 . S
H535 C544 0.930 . S
H536 C549 0.929 . S
H537 C547 0.929 . S
H538 C542 0.929 . S
H539 C548 0.929 . S
C540 H534 0.930 . S
C540 C541 1.367 . S
C540 C548 1.378 . S
C541 C540 1.367 . S
C541 C549 1.433 . S
C542 H538 0.929 . S
C542 C544 1.378 . S
C542 C546 1.350 . S
C543 C546 1.463 . S
C543 C548 1.350 . S
C543 N551 1.427 . S
C544 H535 0.930 . S
C544 C542 1.378 . S
C544 C545 1.367 . S
C545 C544 1.367 . S
C545 C547 1.433 . S
C546 C542 1.350 . S
C546 C543 1.463 . S
C546 N550 1.427 . S
C547 H537 0.929 . S
C547 C545 1.433 . S
C547 N550 1.384 . S
C548 H539 0.929 . S
C548 C540 1.378 . S
C548 C543 1.350 . S
C549 H536 0.929 . S
C549 C541 1.433 . S
C549 N551 1.384 . S
N550 C546 1.427 . S
N550 C547 1.384 . S
N551 C543 1.427 . S
N551 C549 1.384 . S
H552 C558 0.930 . S
H553 C562 0.930 . S
H554 C567 0.929 . S
H555 C565 0.929 . S
H556 C560 0.929 . S
H557 C566 0.929 . S
C558 H552 0.930 . S
C558 C559 1.367 . S
C558 C566 1.378 . S
C559 C558 1.367 . S
C559 C567 1.433 . S
C560 H556 0.929 . S
C560 C562 1.378 . S
C560 C564 1.350 . S
C561 C564 1.463 . S
C561 C566 1.350 . S
C561 N569 1.427 . S
C562 H553 0.930 . S
C562 C560 1.378 . S
C562 C563 1.367 . S
C563 C562 1.367 . S
C563 C565 1.433 . S
C564 C560 1.350 . S
C564 C561 1.463 . S
C564 N568 1.427 . S
C565 H555 0.929 . S
C565 C563 1.433 . S
C565 N568 1.384 . S
C566 H557 0.929 . S
C566 C558 1.378 . S
C566 C561 1.350 . S
C567 H554 0.929 . S
C567 C559 1.433 . S
C567 N569 1.384 . S
N568 C564 1.427 . S
N568 C565 1.384 . S
N569 C561 1.427 . S
N569 C567 1.384 . S
H570 C576 0.930 . S
H571 C580 0.930 . S
H572 C585 0.929 . S
H573 C583 0.929 . S
H574 C578 0.929 . S
H575 C584 0.929 . S
C576 H570 0.930 . S
C576 C577 1.367 . S
C576 C584 1.378 . S
C577 C576 1.367 . S
C577 C585 1.433 . S
C578 H574 0.929 . S
C578 C580 1.378 . S
C578 C582 1.350 . S
C579 C582 1.463 . S
C579 C584 1.350 . S
C579 N587 1.427 . S
C580 H571 0.930 . S
C580 C578 1.378 . S
C580 C581 1.367 . S
C581 C580 1.367 . S
C581 C583 1.433 . S
C582 C578 1.350 . S
C582 C579 1.463 . S
C582 N586 1.427 . S
C583 H573 0.929 . S
C583 C581 1.433 . S
C583 N586 1.384 . S
C584 H575 0.929 . S
C584 C576 1.378 . S
C584 C579 1.350 . S
C585 H572 0.929 . S
C585 C577 1.433 . S
C585 N587 1.384 . S
N586 C582 1.427 . S
N586 C583 1.384 . S
N587 C579 1.427 . S
N587 C585 1.384 . S
H588 C594 0.930 . S
H589 C598 0.930 . S
H590 C603 0.929 . S
H591 C601 0.929 1_554 S
H592 C596 0.929 . S
H593 C602 0.929 . S
C594 H588 0.930 . S
C594 C595 1.367 . S
C594 C602 1.378 . S
C595 C594 1.367 . S
C595 C603 1.433 . S
C596 H592 0.929 . S
C596 C598 1.378 . S
C596 C600 1.350 . S
C597 C600 1.463 . S
C597 C602 1.350 . S
C597 N605 1.427 . S
C598 H589 0.930 . S
C598 C596 1.378 . S
C598 C599 1.367 . S
C599 C598 1.367 . S
C599 C601 1.433 . S
C600 C596 1.350 . S
C600 C597 1.463 . S
C600 N604 1.427 . S
C601 H591 0.929 1_556 S
C601 C599 1.433 . S
C601 N604 1.384 . S
C602 H593 0.929 . S
C602 C594 1.378 . S
C602 C597 1.350 . S
C603 H590 0.929 . S
C603 C595 1.433 . S
C603 N605 1.384 . S
N604 C600 1.427 . S
N604 C601 1.384 . S
N605 C597 1.427 . S
N605 C603 1.384 . S
H606 C612 0.930 . S
H607 C616 0.930 . S
H608 C621 0.929 . S
H609 C619 0.929 . S
H610 C614 0.929 . S
H611 C620 0.929 . S
C612 H606 0.930 . S
C612 C613 1.367 . S
C612 C620 1.378 . S
C613 C612 1.367 . S
C613 C621 1.433 . S
C614 H610 0.929 . S
C614 C616 1.378 . S
C614 C618 1.350 . S
C615 C618 1.463 . S
C615 C620 1.350 . S
C615 N623 1.427 . S
C616 H607 0.930 . S
C616 C614 1.378 . S
C616 C617 1.367 . S
C617 C616 1.367 . S
C617 C619 1.433 . S
C618 C614 1.350 . S
C618 C615 1.463 . S
C618 N622 1.427 . S
C619 H609 0.929 . S
C619 C617 1.433 . S
C619 N622 1.384 . S
C620 H611 0.929 . S
C620 C612 1.378 . S
C620 C615 1.350 . S
C621 H608 0.929 . S
C621 C613 1.433 . S
C621 N623 1.384 . S
N622 C618 1.427 . S
N622 C619 1.384 . S
N623 C615 1.427 . S
N623 C621 1.384 . S
H624 C630 0.930 . S
H625 C634 0.930 . S
H626 C639 0.929 . S
H627 C637 0.929 . S
H628 C632 0.929 . S
H629 C638 0.929 . S
C630 H624 0.930 . S
C630 C631 1.367 . S
C630 C638 1.378 . S
C631 C630 1.367 . S
C631 C639 1.433 . S
C632 H628 0.929 . S
C632 C634 1.378 . S
C632 C636 1.350 . S
C633 C636 1.463 . S
C633 C638 1.350 . S
C633 N641 1.427 . S
C634 H625 0.930 . S
C634 C632 1.378 . S
C634 C635 1.367 . S
C635 C634 1.367 . S
C635 C637 1.433 . S
C636 C632 1.350 . S
C636 C633 1.463 . S
C636 N640 1.427 . S
C637 H627 0.929 . S
C637 C635 1.433 . S
C637 N640 1.384 . S
C638 H629 0.929 . S
C638 C630 1.378 . S
C638 C633 1.350 . S
C639 H626 0.929 . S
C639 C631 1.433 . S
C639 N641 1.384 . S
N640 C636 1.427 . S
N640 C637 1.384 . S
N641 C633 1.427 . S
N641 C639 1.384 . S
H642 C648 0.930 . S
H643 C652 0.930 1_655 S
H644 C657 0.929 . S
H645 C655 0.929 . S
H646 C650 0.929 . S
H647 C656 0.929 . S
C648 H642 0.930 . S
C648 C649 1.367 . S
C648 C656 1.378 . S
C649 C648 1.367 . S
C649 C657 1.433 . S
C650 H646 0.929 . S
C650 C652 1.378 . S
C650 C654 1.350 . S
C651 C654 1.463 . S
C651 C656 1.350 . S
C651 N659 1.427 . S
C652 H643 0.930 1_455 S
C652 C650 1.378 . S
C652 C653 1.367 . S
C653 C652 1.367 . S
C653 C655 1.433 . S
C654 C650 1.350 . S
C654 C651 1.463 . S
C654 N658 1.427 . S
C655 H645 0.929 . S
C655 C653 1.433 . S
C655 N658 1.384 . S
C656 H647 0.929 . S
C656 C648 1.378 . S
C656 C651 1.350 . S
C657 H644 0.929 . S
C657 C649 1.433 . S
C657 N659 1.384 . S
N658 C654 1.427 . S
N658 C655 1.384 . S
N659 C651 1.427 . S
N659 C657 1.384 . S
H660 C666 0.930 . S
H661 C670 0.930 . S
H662 C675 0.929 1_455 S
H663 C673 0.929 . S
H664 C668 0.929 . S
H665 C674 0.929 . S
C666 H660 0.930 . S
C666 C667 1.367 . S
C666 C674 1.378 . S
C667 C666 1.367 . S
C667 C675 1.433 . S
C668 H664 0.929 . S
C668 C670 1.378 . S
C668 C672 1.350 . S
C669 C672 1.463 . S
C669 C674 1.350 . S
C669 N677 1.427 . S
C670 H661 0.930 . S
C670 C668 1.378 . S
C670 C671 1.367 . S
C671 C670 1.367 . S
C671 C673 1.433 . S
C672 C668 1.350 . S
C672 C669 1.463 . S
C672 N676 1.427 . S
C673 H663 0.929 . S
C673 C671 1.433 . S
C673 N676 1.384 . S
C674 H665 0.929 . S
C674 C666 1.378 . S
C674 C669 1.350 . S
C675 H662 0.929 1_655 S
C675 C667 1.433 . S
C675 N677 1.384 . S
N676 C672 1.427 . S
N676 C673 1.384 . S
N677 C669 1.427 . S
N677 C675 1.384 . S
H678 C684 0.930 . S
H679 C688 0.930 . S
H680 C693 0.929 . S
H681 C691 0.929 . S
H682 C686 0.929 . S
H683 C692 0.929 . S
C684 H678 0.930 . S
C684 C685 1.367 . S
C684 C692 1.378 . S
C685 C684 1.367 . S
C685 C693 1.433 . S
C686 H682 0.929 . S
C686 C688 1.378 . S
C686 C690 1.350 . S
C687 C690 1.463 . S
C687 C692 1.350 . S
C687 N695 1.427 . S
C688 H679 0.930 . S
C688 C686 1.378 . S
C688 C689 1.367 . S
C689 C688 1.367 . S
C689 C691 1.433 . S
C690 C686 1.350 . S
C690 C687 1.463 . S
C690 N694 1.427 . S
C691 H681 0.929 . S
C691 C689 1.433 . S
C691 N694 1.384 . S
C692 H683 0.929 . S
C692 C684 1.378 . S
C692 C687 1.350 . S
C693 H680 0.929 . S
C693 C685 1.433 . S
C693 N695 1.384 . S
N694 C690 1.427 . S
N694 C691 1.384 . S
N695 C687 1.427 . S
N695 C693 1.384 . S
H696 C702 0.930 . S
H697 C706 0.930 . S
H698 C711 0.929 . S
H699 C709 0.929 . S
H700 C704 0.929 . S
H701 C710 0.929 . S
C702 H696 0.930 . S
C702 C703 1.367 . S
C702 C710 1.378 . S
C703 C702 1.367 . S
C703 C711 1.433 . S
C704 H700 0.929 . S
C704 C706 1.378 . S
C704 C708 1.350 . S
C705 C708 1.463 . S
C705 C710 1.350 . S
C705 N713 1.427 . S
C706 H697 0.930 . S
C706 C704 1.378 . S
C706 C707 1.367 . S
C707 C706 1.367 . S
C707 C709 1.433 . S
C708 C704 1.350 . S
C708 C705 1.463 . S
C708 N712 1.427 . S
C709 H699 0.929 . S
C709 C707 1.433 . S
C709 N712 1.384 . S
C710 H701 0.929 . S
C710 C702 1.378 . S
C710 C705 1.350 . S
C711 H698 0.929 . S
C711 C703 1.433 . S
C711 N713 1.384 . S
N712 C708 1.427 . S
N712 C709 1.384 . S
N713 C705 1.427 . S
N713 C711 1.384 . S
H714 C720 0.930 . S
H715 C724 0.930 . S
H716 C729 0.929 . S
H717 C727 0.929 . S
H718 C722 0.929 . S
H719 C728 0.929 . S
C720 H714 0.930 . S
C720 C721 1.367 . S
C720 C728 1.378 . S
C721 C720 1.367 . S
C721 C729 1.433 . S
C722 H718 0.929 . S
C722 C724 1.378 . S
C722 C726 1.350 . S
C723 C726 1.463 . S
C723 C728 1.350 . S
C723 N731 1.427 . S
C724 H715 0.930 . S
C724 C722 1.378 . S
C724 C725 1.367 . S
C725 C724 1.367 . S
C725 C727 1.433 . S
C726 C722 1.350 . S
C726 C723 1.463 . S
C726 N730 1.427 . S
C727 H717 0.929 . S
C727 C725 1.433 . S
C727 N730 1.384 . S
C728 H719 0.929 . S
C728 C720 1.378 . S
C728 C723 1.350 . S
C729 H716 0.929 . S
C729 C721 1.433 . S
C729 N731 1.384 . S
N730 C726 1.427 . S
N730 C727 1.384 . S
N731 C723 1.427 . S
N731 C729 1.384 . S
H732 C738 0.930 . S
H733 C742 0.930 . S
H734 C747 0.929 . S
H735 C745 0.929 . S
H736 C740 0.929 . S
H737 C746 0.929 . S
C738 H732 0.930 . S
C738 C739 1.367 . S
C738 C746 1.378 . S
C739 C738 1.367 . S
C739 C747 1.433 . S
C740 H736 0.929 . S
C740 C742 1.378 . S
C740 C744 1.350 . S
C741 C744 1.463 . S
C741 C746 1.350 . S
C741 N749 1.427 . S
C742 H733 0.930 . S
C742 C740 1.378 . S
C742 C743 1.367 . S
C743 C742 1.367 . S
C743 C745 1.433 . S
C744 C740 1.350 . S
C744 C741 1.463 . S
C744 N748 1.427 . S
C745 H735 0.929 . S
C745 C743 1.433 . S
C745 N748 1.384 . S
C746 H737 0.929 . S
C746 C738 1.378 . S
C746 C741 1.350 . S
C747 H734 0.929 . S
C747 C739 1.433 . S
C747 N749 1.384 . S
N748 C744 1.427 . S
N748 C745 1.384 . S
N749 C741 1.427 . S
N749 C747 1.384 . S
H750 C756 0.930 . S
H751 C760 0.930 . S
H752 C765 0.929 . S
H753 C763 0.929 . S
H754 C758 0.933 . S
H755 C764 0.929 . S
C756 H750 0.930 . S
C756 C757 1.367 . S
C756 C764 1.378 . S
C757 C756 1.367 . S
C757 C765 1.433 . S
C758 H754 0.933 . S
C758 C760 1.378 . S
C758 C762 1.350 1_556 S
C759 C762 1.463 . S
C759 C764 1.350 . S
C759 N767 1.427 . S
C760 H751 0.930 . S
C760 C758 1.378 . S
C760 C761 1.367 . S
C761 C760 1.367 . S
C761 C763 1.433 . S
C762 C758 1.350 1_554 S
C762 C759 1.463 . S
C762 N766 1.427 1_554 S
C763 H753 0.929 . S
C763 C761 1.433 . S
C763 N766 1.384 . S
C764 H755 0.929 . S
C764 C756 1.378 . S
C764 C759 1.350 . S
C765 H752 0.929 . S
C765 C757 1.433 . S
C765 N767 1.384 . S
N766 C762 1.427 1_556 S
N766 C763 1.384 . S
N767 C759 1.427 . S
N767 C765 1.384 . S
H768 C774 0.930 . S
H769 C778 0.930 . S
H770 C783 0.929 . S
H771 C781 0.929 . S
H772 C776 0.929 . S
H773 C782 0.929 . S
C774 H768 0.930 . S
C774 C775 1.367 . S
C774 C782 1.378 . S
C775 C774 1.367 . S
C775 C783 1.433 . S
C776 H772 0.929 . S
C776 C778 1.378 . S
C776 C780 1.350 . S
C777 C780 1.463 . S
C777 C782 1.350 . S
C777 N785 1.427 . S
C778 H769 0.930 . S
C778 C776 1.378 . S
C778 C779 1.367 . S
C779 C778 1.367 . S
C779 C781 1.433 . S
C780 C776 1.350 . S
C780 C777 1.463 . S
C780 N784 1.427 . S
C781 H771 0.929 . S
C781 C779 1.433 . S
C781 N784 1.384 . S
C782 H773 0.929 . S
C782 C774 1.378 . S
C782 C777 1.350 . S
C783 H770 0.929 . S
C783 C775 1.433 . S
C783 N785 1.384 . S
N784 C780 1.427 . S
N784 C781 1.384 . S
N785 C777 1.427 . S
N785 C783 1.384 . S
H786 C792 0.930 . S
H787 C796 0.930 . S
H788 C801 0.929 . S
H789 C799 0.929 . S
H790 C794 0.929 . S
H791 C800 0.929 . S
C792 H786 0.930 . S
C792 C793 1.367 . S
C792 C800 1.378 . S
C793 C792 1.367 . S
C793 C801 1.433 . S
C794 H790 0.929 . S
C794 C796 1.378 . S
C794 C798 1.350 . S
C795 C798 1.463 1_554 S
C795 C800 1.350 . S
C795 N803 1.427 . S
C796 H787 0.930 . S
C796 C794 1.378 . S
C796 C797 1.367 . S
C797 C796 1.367 . S
C797 C799 1.433 . S
C798 C794 1.350 . S
C798 C795 1.463 1_556 S
C798 N802 1.427 . S
C799 H789 0.929 . S
C799 C797 1.433 . S
C799 N802 1.384 . S
C800 H791 0.929 . S
C800 C792 1.378 . S
C800 C795 1.350 . S
C801 H788 0.929 . S
C801 C793 1.433 . S
C801 N803 1.384 . S
N802 C798 1.427 . S
N802 C799 1.384 . S
N803 C795 1.427 . S
N803 C801 1.384 . S
H804 C810 0.930 . S
H805 C814 0.930 . S
H806 C819 0.929 . S
H807 C817 0.929 . S
H808 C812 0.929 . S
H809 C818 0.929 . S
C810 H804 0.930 . S
C810 C811 1.367 . S
C810 C818 1.378 . S
C811 C810 1.367 . S
C811 C819 1.433 . S
C812 H808 0.929 . S
C812 C814 1.378 . S
C812 C816 1.350 . S
C813 C816 1.463 . S
C813 C818 1.350 . S
C813 N821 1.427 . S
C814 H805 0.930 . S
C814 C812 1.378 . S
C814 C815 1.367 . S
C815 C814 1.367 . S
C815 C817 1.433 . S
C816 C812 1.350 . S
C816 C813 1.463 . S
C816 N820 1.427 . S
C817 H807 0.929 . S
C817 C815 1.433 . S
C817 N820 1.384 . S
C818 H809 0.929 . S
C818 C810 1.378 . S
C818 C813 1.350 . S
C819 H806 0.929 . S
C819 C811 1.433 . S
C819 N821 1.384 . S
N820 C816 1.427 . S
N820 C817 1.384 . S
N821 C813 1.427 . S
N821 C819 1.384 . S
H822 C828 0.930 . S
H823 C832 0.930 . S
H824 C837 0.929 . S
H825 C835 0.929 . S
H826 C830 0.929 . S
H827 C836 0.929 . S
C828 H822 0.930 . S
C828 C829 1.367 . S
C828 C836 1.378 . S
C829 C828 1.367 . S
C829 C837 1.433 . S
C830 H826 0.929 . S
C830 C832 1.378 . S
C830 C834 1.350 . S
C831 C834 1.463 . S
C831 C836 1.350 . S
C831 N839 1.427 . S
C832 H823 0.930 . S
C832 C830 1.378 . S
C832 C833 1.367 . S
C833 C832 1.367 . S
C833 C835 1.433 . S
C834 C830 1.350 . S
C834 C831 1.463 . S
C834 N838 1.427 . S
C835 H825 0.929 . S
C835 C833 1.433 . S
C835 N838 1.384 . S
C836 H827 0.929 . S
C836 C828 1.378 . S
C836 C831 1.350 . S
C837 H824 0.929 . S
C837 C829 1.433 . S
C837 N839 1.384 . S
N838 C834 1.427 . S
N838 C835 1.384 . S
N839 C831 1.427 . S
N839 C837 1.384 . S
H840 C846 0.930 . S
H841 C850 0.930 . S
H842 C855 0.929 . S
H843 C853 0.929 . S
H844 C848 0.929 . S
H845 C854 0.929 . S
C846 H840 0.930 . S
C846 C847 1.367 . S
C846 C854 1.378 . S
C847 C846 1.367 . S
C847 C855 1.433 . S
C848 H844 0.929 . S
C848 C850 1.378 . S
C848 C852 1.350 . S
C849 C852 1.463 . S
C849 C854 1.350 . S
C849 N857 1.427 . S
C850 H841 0.930 . S
C850 C848 1.378 . S
C850 C851 1.367 . S
C851 C850 1.367 . S
C851 C853 1.433 . S
C852 C848 1.350 . S
C852 C849 1.463 . S
C852 N856 1.427 . S
C853 H843 0.929 . S
C853 C851 1.433 . S
C853 N856 1.384 . S
C854 H845 0.929 . S
C854 C846 1.378 . S
C854 C849 1.350 . S
C855 H842 0.929 . S
C855 C847 1.433 . S
C855 N857 1.384 . S
N856 C852 1.427 . S
N856 C853 1.384 . S
N857 C849 1.427 . S
N857 C855 1.384 . S
H858 C864 0.930 . S
H859 C868 0.930 . S
H860 C873 0.929 . S
H861 C871 0.929 . S
H862 C866 0.929 . S
H863 C872 0.929 . S
C864 H858 0.930 . S
C864 C865 1.367 . S
C864 C872 1.378 . S
C865 C864 1.367 . S
C865 C873 1.433 . S
C866 H862 0.929 . S
C866 C868 1.378 . S
C866 C870 1.350 . S
C867 C870 1.463 1_545 S
C867 C872 1.350 . S
C867 N875 1.427 . S
C868 H859 0.930 . S
C868 C866 1.378 . S
C868 C869 1.367 . S
C869 C868 1.367 . S
C869 C871 1.433 . S
C870 C866 1.350 . S
C870 C867 1.463 1_565 S
C870 N874 1.427 . S
C871 H861 0.929 . S
C871 C869 1.433 . S
C871 N874 1.384 . S
C872 H863 0.929 . S
C872 C864 1.378 . S
C872 C867 1.350 . S
C873 H860 0.929 . S
C873 C865 1.433 . S
C873 N875 1.384 . S
N874 C870 1.427 . S
N874 C871 1.384 . S
N875 C867 1.427 . S
N875 C873 1.384 . S
H876 C882 0.930 . S
H877 C886 0.930 . S
H878 C891 0.929 . S
H879 C889 0.929 . S
H880 C884 0.929 . S
H881 C890 0.929 . S
C882 H876 0.930 . S
C882 C883 1.367 . S
C882 C890 1.378 . S
C883 C882 1.367 . S
C883 C891 1.433 . S
C884 H880 0.929 . S
C884 C886 1.378 . S
C884 C888 1.350 . S
C885 C888 1.463 . S
C885 C890 1.350 . S
C885 N893 1.427 . S
C886 H877 0.930 . S
C886 C884 1.378 . S
C886 C887 1.367 . S
C887 C886 1.367 . S
C887 C889 1.433 . S
C888 C884 1.350 . S
C888 C885 1.463 . S
C888 N892 1.427 . S
C889 H879 0.929 . S
C889 C887 1.433 . S
C889 N892 1.384 . S
C890 H881 0.929 . S
C890 C882 1.378 . S
C890 C885 1.350 . S
C891 H878 0.929 . S
C891 C883 1.433 . S
C891 N893 1.384 . S
N892 C888 1.427 . S
N892 C889 1.384 . S
N893 C885 1.427 . S
N893 C891 1.384 . S
H894 C900 0.930 . S
H895 C904 0.930 . S
H896 C909 0.929 . S
H897 C907 0.929 . S
H898 C902 0.929 . S
H899 C908 0.929 . S
C900 H894 0.930 . S
C900 C901 1.367 . S
C900 C908 1.378 . S
C901 C900 1.367 . S
C901 C909 1.433 . S
C902 H898 0.929 . S
C902 C904 1.378 . S
C902 C906 1.350 . S
C903 C906 1.463 1_545 S
C903 C908 1.350 . S
C903 N911 1.427 . S
C904 H895 0.930 . S
C904 C902 1.378 . S
C904 C905 1.367 . S
C905 C904 1.367 . S
C905 C907 1.433 . S
C906 C902 1.350 . S
C906 C903 1.463 1_565 S
C906 N910 1.427 . S
C907 H897 0.929 . S
C907 C905 1.433 . S
C907 N910 1.384 . S
C908 H899 0.929 . S
C908 C900 1.378 . S
C908 C903 1.350 . S
C909 H896 0.929 . S
C909 C901 1.433 . S
C909 N911 1.384 . S
N910 C906 1.427 . S
N910 C907 1.384 . S
N911 C903 1.427 . S
N911 C909 1.384 . S
H912 C918 0.930 . S
H913 C922 0.930 . S
H914 C927 0.929 . S
H915 C925 0.929 . S
H916 C920 0.929 . S
H917 C926 0.929 . S
C918 H912 0.930 . S
C918 C919 1.367 . S
C918 C926 1.378 . S
C919 C918 1.367 . S
C919 C927 1.433 . S
C920 H916 0.929 . S
C920 C922 1.378 . S
C920 C924 1.350 . S
C921 C924 1.463 . S
C921 C926 1.350 . S
C921 N929 1.427 . S
C922 H913 0.930 . S
C922 C920 1.378 . S
C922 C923 1.367 . S
C923 C922 1.367 . S
C923 C925 1.433 . S
C924 C920 1.350 . S
C924 C921 1.463 . S
C924 N928 1.427 . S
C925 H915 0.929 . S
C925 C923 1.433 . S
C925 N928 1.384 . S
C926 H917 0.929 . S
C926 C918 1.378 . S
C926 C921 1.350 . S
C927 H914 0.929 . S
C927 C919 1.433 . S
C927 N929 1.384 . S
N928 C924 1.427 . S
N928 C925 1.384 . S
N929 C921 1.427 . S
N929 C927 1.384 . S
H930 C936 0.930 . S
H931 C940 0.930 . S
H932 C945 0.929 . S
H933 C943 0.929 . S
H934 C938 0.929 . S
H935 C944 0.929 . S
C936 H930 0.930 . S
C936 C937 1.367 . S
C936 C944 1.378 . S
C937 C936 1.367 . S
C937 C945 1.433 . S
C938 H934 0.929 . S
C938 C940 1.378 . S
C938 C942 1.350 . S
C939 C942 1.463 . S
C939 C944 1.350 . S
C939 N947 1.427 . S
C940 H931 0.930 . S
C940 C938 1.378 . S
C940 C941 1.367 . S
C941 C940 1.367 . S
C941 C943 1.433 . S
C942 C938 1.350 . S
C942 C939 1.463 . S
C942 N946 1.427 . S
C943 H933 0.929 . S
C943 C941 1.433 . S
C943 N946 1.384 . S
C944 H935 0.929 . S
C944 C936 1.378 . S
C944 C939 1.350 . S
C945 H932 0.929 . S
C945 C937 1.433 . S
C945 N947 1.384 . S
N946 C942 1.427 . S
N946 C943 1.384 . S
N947 C939 1.427 . S
N947 C945 1.384 . S
H948 C954 0.930 . S
H949 C958 0.930 . S
H950 C963 0.929 . S
H951 C961 0.929 . S
H952 C956 0.929 . S
H953 C962 0.929 . S
C954 H948 0.930 . S
C954 C955 1.367 . S
C954 C962 1.378 . S
C955 C954 1.367 . S
C955 C963 1.433 . S
C956 H952 0.929 . S
C956 C958 1.378 . S
C956 C960 1.350 . S
C957 C960 1.463 . S
C957 C962 1.350 . S
C957 N965 1.427 . S
C958 H949 0.930 . S
C958 C956 1.378 . S
C958 C959 1.367 . S
C959 C958 1.367 . S
C959 C961 1.433 . S
C960 C956 1.350 . S
C960 C957 1.463 . S
C960 N964 1.427 . S
C961 H951 0.929 . S
C961 C959 1.433 . S
C961 N964 1.384 . S
C962 H953 0.929 . S
C962 C954 1.378 . S
C962 C957 1.350 . S
C963 H950 0.929 . S
C963 C955 1.433 . S
C963 N965 1.384 . S
N964 C960 1.427 . S
N964 C961 1.384 . S
N965 C957 1.427 . S
N965 C963 1.384 . S
H966 C972 0.930 . S
H967 C976 0.930 . S
H968 C981 0.929 . S
H969 C979 0.929 . S
H970 C974 0.929 . S
H971 C980 0.929 . S
C972 H966 0.930 . S
C972 C973 1.367 . S
C972 C980 1.378 . S
C973 C972 1.367 . S
C973 C981 1.433 . S
C974 H970 0.929 . S
C974 C976 1.378 . S
C974 C978 1.350 . S
C975 C978 1.463 . S
C975 C980 1.350 . S
C975 N983 1.427 . S
C976 H967 0.930 . S
C976 C974 1.378 . S
C976 C977 1.367 . S
C977 C976 1.367 . S
C977 C979 1.433 . S
C978 C974 1.350 . S
C978 C975 1.463 . S
C978 N982 1.427 . S
C979 H969 0.929 . S
C979 C977 1.433 . S
C979 N982 1.384 . S
C980 H971 0.929 . S
C980 C972 1.378 . S
C980 C975 1.350 . S
C981 H968 0.929 . S
C981 C973 1.433 . S
C981 N983 1.384 . S
N982 C978 1.427 . S
N982 C979 1.384 . S
N983 C975 1.427 . S
N983 C981 1.384 . S
H984 C990 0.930 . S
H985 C994 0.930 . S
H986 C999 0.929 . S
H987 C997 0.929 . S
H988 C992 0.929 . S
H989 C998 0.929 . S
C990 H984 0.930 . S
C990 C991 1.367 . S
C990 C998 1.378 . S
C991 C990 1.367 . S
C991 C999 1.433 . S
C992 H988 0.929 . S
C992 C994 1.378 . S
C992 C996 1.350 . S
C993 C996 1.463 . S
C993 C998 1.350 . S
C993 N1001 1.427 . S
C994 H985 0.930 . S
C994 C992 1.378 . S
C994 C995 1.367 . S
C995 C994 1.367 . S
C995 C997 1.433 . S
C996 C992 1.350 . S
C996 C993 1.463 . S
C996 N1000 1.427 . S
C997 H987 0.929 . S
C997 C995 1.433 . S
C997 N1000 1.384 . S
C998 H989 0.929 . S
C998 C990 1.378 . S
C998 C993 1.350 . S
C999 H986 0.929 . S
C999 C991 1.433 . S
C999 N1001 1.384 . S
N1000 C996 1.427 . S
N1000 C997 1.384 . S
N1001 C993 1.427 . S
N1001 C999 1.384 . S
H1002 C1008 0.930 . S
H1003 C1012 0.930 . S
H1004 C1017 0.929 . S
H1005 C1015 0.929 . S
H1006 C1010 0.929 . S
H1007 C1016 0.929 . S
C1008 H1002 0.930 . S
C1008 C1009 1.367 . S
C1008 C1016 1.378 . S
C1009 C1008 1.367 . S
C1009 C1017 1.433 . S
C1010 H1006 0.929 . S
C1010 C1012 1.378 . S
C1010 C1014 1.350 . S
C1011 C1014 1.463 . S
C1011 C1016 1.350 . S
C1011 N1019 1.427 . S
C1012 H1003 0.930 . S
C1012 C1010 1.378 . S
C1012 C1013 1.367 . S
C1013 C1012 1.367 . S
C1013 C1015 1.433 . S
C1014 C1010 1.350 . S
C1014 C1011 1.463 . S
C1014 N1018 1.427 . S
C1015 H1005 0.929 . S
C1015 C1013 1.433 . S
C1015 N1018 1.384 . S
C1016 H1007 0.929 . S
C1016 C1008 1.378 . S
C1016 C1011 1.350 . S
C1017 H1004 0.929 . S
C1017 C1009 1.433 . S
C1017 N1019 1.384 . S
N1018 C1014 1.427 . S
N1018 C1015 1.384 . S
N1019 C1011 1.427 . S
N1019 C1017 1.384 . S
H1020 C1026 0.930 . S
H1021 C1030 0.930 . S
H1022 C1035 0.929 . S
H1023 C1033 0.929 . S
H1024 C1028 0.929 . S
H1025 C1034 0.929 . S
C1026 H1020 0.930 . S
C1026 C1027 1.367 . S
C1026 C1034 1.378 . S
C1027 C1026 1.367 . S
C1027 C1035 1.433 . S
C1028 H1024 0.929 . S
C1028 C1030 1.378 . S
C1028 C1032 1.350 1_655 S
C1029 C1032 1.463 . S
C1029 C1034 1.350 . S
C1029 N1037 1.427 . S
C1030 H1021 0.930 . S
C1030 C1028 1.378 . S
C1030 C1031 1.367 . S
C1031 C1030 1.367 . S
C1031 C1033 1.433 . S
C1032 C1028 1.350 1_455 S
C1032 C1029 1.463 . S
C1032 N1036 1.427 1_455 S
C1033 H1023 0.929 . S
C1033 C1031 1.433 . S
C1033 N1036 1.384 . S
C1034 H1025 0.929 . S
C1034 C1026 1.378 . S
C1034 C1029 1.350 . S
C1035 H1022 0.929 . S
C1035 C1027 1.433 . S
C1035 N1037 1.384 . S
N1036 C1032 1.427 1_655 S
N1036 C1033 1.384 . S
N1037 C1029 1.427 . S
N1037 C1035 1.384 . S
H1038 C1044 0.930 . S
H1039 C1048 0.930 . S
H1040 C1053 0.929 . S
H1041 C1051 0.929 . S
H1042 C1046 0.929 . S
H1043 C1052 0.929 . S
C1044 H1038 0.930 . S
C1044 C1045 1.367 . S
C1044 C1052 1.378 . S
C1045 C1044 1.367 . S
C1045 C1053 1.433 . S
C1046 H1042 0.929 . S
C1046 C1048 1.378 . S
C1046 C1050 1.350 . S
C1047 C1050 1.463 . S
C1047 C1052 1.350 . S
C1047 N1055 1.427 . S
C1048 H1039 0.930 . S
C1048 C1046 1.378 . S
C1048 C1049 1.367 . S
C1049 C1048 1.367 . S
C1049 C1051 1.433 . S
C1050 C1046 1.350 . S
C1050 C1047 1.463 . S
C1050 N1054 1.427 . S
C1051 H1041 0.929 . S
C1051 C1049 1.433 . S
C1051 N1054 1.384 . S
C1052 H1043 0.929 . S
C1052 C1044 1.378 . S
C1052 C1047 1.350 . S
C1053 H1040 0.929 . S
C1053 C1045 1.433 . S
C1053 N1055 1.384 . S
N1054 C1050 1.427 . S
N1054 C1051 1.384 . S
N1055 C1047 1.427 . S
N1055 C1053 1.384 . S
H1056 C1062 0.930 . S
H1057 C1066 0.930 . S
H1058 C1071 0.929 . S
H1059 C1069 0.929 . S
H1060 C1064 0.929 . S
H1061 C1070 0.929 . S
C1062 H1056 0.930 . S
C1062 C1063 1.367 . S
C1062 C1070 1.378 . S
C1063 C1062 1.367 . S
C1063 C1071 1.433 . S
C1064 H1060 0.929 . S
C1064 C1066 1.378 . S
C1064 C1068 1.350 . S
C1065 C1068 1.463 . S
C1065 C1070 1.350 . S
C1065 N1073 1.427 . S
C1066 H1057 0.930 . S
C1066 C1064 1.378 . S
C1066 C1067 1.367 . S
C1067 C1066 1.367 . S
C1067 C1069 1.433 . S
C1068 C1064 1.350 . S
C1068 C1065 1.463 . S
C1068 N1072 1.427 . S
C1069 H1059 0.929 . S
C1069 C1067 1.433 . S
C1069 N1072 1.384 . S
C1070 H1061 0.929 . S
C1070 C1062 1.378 . S
C1070 C1065 1.350 . S
C1071 H1058 0.929 . S
C1071 C1063 1.433 . S
C1071 N1073 1.384 . S
N1072 C1068 1.427 . S
N1072 C1069 1.384 . S
N1073 C1065 1.427 . S
N1073 C1071 1.384 . S
H1074 C1080 0.930 . S
H1075 C1084 0.930 . S
H1076 C1089 0.929 . S
H1077 C1087 0.929 . S
H1078 C1082 0.929 . S
H1079 C1088 0.929 . S
C1080 H1074 0.930 . S
C1080 C1081 1.367 . S
C1080 C1088 1.378 . S
C1081 C1080 1.367 . S
C1081 C1089 1.433 . S
C1082 H1078 0.929 . S
C1082 C1084 1.378 . S
C1082 C1086 1.350 . S
C1083 C1086 1.463 . S
C1083 C1088 1.350 . S
C1083 N1091 1.427 . S
C1084 H1075 0.930 . S
C1084 C1082 1.378 . S
C1084 C1085 1.367 . S
C1085 C1084 1.367 . S
C1085 C1087 1.433 . S
C1086 C1082 1.350 . S
C1086 C1083 1.463 . S
C1086 N1090 1.427 . S
C1087 H1077 0.929 . S
C1087 C1085 1.433 . S
C1087 N1090 1.384 . S
C1088 H1079 0.929 . S
C1088 C1080 1.378 . S
C1088 C1083 1.350 . S
C1089 H1076 0.929 . S
C1089 C1081 1.433 . S
C1089 N1091 1.384 . S
N1090 C1086 1.427 . S
N1090 C1087 1.384 . S
N1091 C1083 1.427 . S
N1091 C1089 1.384 . S
H1092 C1098 0.930 1_554 S
H1093 C1102 0.930 . S
H1094 C1107 0.929 . S
H1095 C1105 0.929 . S
H1096 C1100 0.929 . S
H1097 C1106 0.937 . S
C1098 H1092 0.930 1_556 S
C1098 C1099 1.367 . S
C1098 C1106 1.378 . S
C1099 C1098 1.367 . S
C1099 C1107 1.433 . S
C1100 H1096 0.929 . S
C1100 C1102 1.378 . S
C1100 C1104 1.350 . S
C1101 C1104 1.463 . S
C1101 C1106 1.350 . S
C1101 N1109 1.427 . S
C1102 H1093 0.930 . S
C1102 C1100 1.378 . S
C1102 C1103 1.367 . S
C1103 C1102 1.367 . S
C1103 C1105 1.433 . S
C1104 C1100 1.350 . S
C1104 C1101 1.463 . S
C1104 N1108 1.427 . S
C1105 H1095 0.929 . S
C1105 C1103 1.433 . S
C1105 N1108 1.384 . S
C1106 H1097 0.937 . S
C1106 C1098 1.378 . S
C1106 C1101 1.350 . S
C1107 H1094 0.929 . S
C1107 C1099 1.433 . S
C1107 N1109 1.384 . S
N1108 C1104 1.427 . S
N1108 C1105 1.384 . S
N1109 C1101 1.427 . S
N1109 C1107 1.384 . S
H1110 C1116 0.930 . S
H1111 C1120 0.930 . S
H1112 C1125 0.929 . S
H1113 C1123 0.929 . S
H1114 C1118 0.929 1_655 S
H1115 C1124 0.929 . S
C1116 H1110 0.930 . S
C1116 C1117 1.367 . S
C1116 C1124 1.378 . S
C1117 C1116 1.367 . S
C1117 C1125 1.433 . S
C1118 H1114 0.929 1_455 S
C1118 C1120 1.378 . S
C1118 C1122 1.350 1_455 S
C1119 C1122 1.463 . S
C1119 C1124 1.350 . S
C1119 N1127 1.427 . S
C1120 H1111 0.930 . S
C1120 C1118 1.378 . S
C1120 C1121 1.367 . S
C1121 C1120 1.367 . S
C1121 C1123 1.433 . S
C1122 C1118 1.350 1_655 S
C1122 C1119 1.463 . S
C1122 N1126 1.431 . S
C1123 H1113 0.929 . S
C1123 C1121 1.433 . S
C1123 N1126 1.375 1_455 S
C1124 H1115 0.929 . S
C1124 C1116 1.378 . S
C1124 C1119 1.350 . S
C1125 H1112 0.929 . S
C1125 C1117 1.433 . S
C1125 N1127 1.384 . S
N1126 C1122 1.431 . S
N1126 C1123 1.375 1_655 S
N1127 C1119 1.427 . S
N1127 C1125 1.384 . S
C487 C9 1.599 . S
C491 C448 1.676 . S
C505 C368 1.663 . S
C509 C48 1.667 . S
C523 C89 1.386 . S
C527 C329 1.401 . S
C541 C128 1.644 . S
C545 C408 1.644 . S
C559 C168 2.001 . S
C563 C409 1.901 . S
C577 C209 1.314 . S
C581 C449 1.331 . S
C595 C369 1.743 . S
C599 C248 1.824 . S
C613 C288 1.408 . S
C617 C328 1.415 . S
C631 C129 1.821 . S
C635 C169 1.811 . S
C649 C8 1.786 . S
C653 C208 1.792 . S
C667 C49 1.437 . S
C671 C249 1.462 . S
C685 C289 1.685 . S
C689 C88 1.741 . S
C703 C5 2.531 . S
C707 C339 2.603 . S
C721 C55 1.131 . S
C725 C418 1.072 . S
C739 C458 1.566 . S
C743 C85 1.670 . S
C757 C135 1.407 . S
C761 C378 1.325 . S
C775 C175 1.467 . S
C779 C379 1.454 . S
C793 C338 1.663 . S
C797 C205 1.763 . S
C811 C419 1.880 . S
C815 C255 1.893 . S
C829 C459 1.742 . S
C833 C295 1.751 . S
C847 C18 1.488 . S
C851 C125 1.579 . S
C865 C15 2.130 . S
C869 C59 2.110 . S
C883 C45 1.948 . S
C887 C98 1.840 . S
C901 C139 1.849 . S
C905 C95 1.856 . S
C919 C215 1.076 . S
C923 C179 1.061 . S
C937 C218 1.651 . S
C941 C245 1.759 . S
C955 C259 1.341 . S
C959 C285 1.324 . S
C973 C165 1.717 . S
C977 C299 1.757 . S
C991 C335 1.251 . S
C995 C138 1.180 . S
C1009 C219 1.626 . S
C1013 C375 1.639 . S
C1027 C325 1.932 . S
C1031 C258 1.828 . S
C1045 C415 1.589 . S
C1049 C298 1.478 . S
C1063 C178 0.800 . S
C1067 C455 0.799 . S
C1081 C445 1.563 . S
C1085 C58 1.480 . S
C1099 C99 1.365 . S
C1103 C365 1.343 . S
C1117 C405 1.817 . S
C1121 C19 1.851 . S
