# Generated by pormake.
# Topology dei, (4)-cn, num edge types: 1
# Building blocks:
#     Node 0, Type 0, BuildingBlock: QUQFOY_clean_sbu_1, # of connection points: 4
#     Node 1, Type 0, BuildingBlock: QUQFOY_clean_sbu_1, # of connection points: 4
#     Node 2, Type 0, BuildingBlock: QUQFOY_clean_sbu_1, # of connection points: 4
#     Node 3, Type 0, BuildingBlock: QUQFOY_clean_sbu_1, # of connection points: 4
#     Node 4, Type 0, BuildingBlock: QUQFOY_clean_sbu_1, # of connection points: 4
#     Node 5, Type 0, BuildingBlock: QUQFOY_clean_sbu_1, # of connection points: 4
#     Node 6, Type 0, BuildingBlock: QUQFOY_clean_sbu_1, # of connection points: 4
#     Node 7, Type 0, BuildingBlock: QUQFOY_clean_sbu_1, # of connection points: 4
#     Node 8, Type 0, BuildingBlock: QUQFOY_clean_sbu_1, # of connection points: 4
#     Node 9, Type 0, BuildingBlock: QUQFOY_clean_sbu_1, # of connection points: 4
#     Node 10, Type 0, BuildingBlock: QUQFOY_clean_sbu_1, # of connection points: 4
#     Node 11, Type 0, BuildingBlock: QUQFOY_clean_sbu_1, # of connection points: 4
#     Node 12, Type 0, BuildingBlock: QUQFOY_clean_sbu_1, # of connection points: 4
#     Node 13, Type 0, BuildingBlock: QUQFOY_clean_sbu_1, # of connection points: 4
#     Node 14, Type 0, BuildingBlock: QUQFOY_clean_sbu_1, # of connection points: 4
#     Node 15, Type 0, BuildingBlock: QUQFOY_clean_sbu_1, # of connection points: 4
#     Node 16, Type 0, BuildingBlock: QUQFOY_clean_sbu_1, # of connection points: 4
#     Node 17, Type 0, BuildingBlock: QUQFOY_clean_sbu_1, # of connection points: 4
#     Node 18, Type 0, BuildingBlock: QUQFOY_clean_sbu_1, # of connection points: 4
#     Node 19, Type 0, BuildingBlock: QUQFOY_clean_sbu_1, # of connection points: 4
#     Node 20, Type 0, BuildingBlock: QUQFOY_clean_sbu_1, # of connection points: 4
#     Node 21, Type 0, BuildingBlock: QUQFOY_clean_sbu_1, # of connection points: 4
#     Node 22, Type 0, BuildingBlock: QUQFOY_clean_sbu_1, # of connection points: 4
#     Node 23, Type 0, BuildingBlock: QUQFOY_clean_sbu_1, # of connection points: 4
#     Node 24, Type 0, BuildingBlock: QUQFOY_clean_sbu_1, # of connection points: 4
#     Node 25, Type 0, BuildingBlock: QUQFOY_clean_sbu_1, # of connection points: 4
#     Node 26, Type 0, BuildingBlock: QUQFOY_clean_sbu_1, # of connection points: 4
#     Node 27, Type 0, BuildingBlock: QUQFOY_clean_sbu_1, # of connection points: 4
#     Node 28, Type 0, BuildingBlock: QUQFOY_clean_sbu_1, # of connection points: 4
#     Node 29, Type 0, BuildingBlock: QUQFOY_clean_sbu_1, # of connection points: 4
#     Node 30, Type 0, BuildingBlock: QUQFOY_clean_sbu_1, # of connection points: 4
#     Node 31, Type 0, BuildingBlock: QUQFOY_clean_sbu_1, # of connection points: 4
#     Edge 32, Type (0, 0), BuildingBlock: TEMPAE_clean_linker_10, # of connection points: 2
#     Edge 33, Type (0, 0), BuildingBlock: TEMPAE_clean_linker_10, # of connection points: 2
#     Edge 34, Type (0, 0), BuildingBlock: TEMPAE_clean_linker_10, # of connection points: 2
#     Edge 35, Type (0, 0), BuildingBlock: TEMPAE_clean_linker_10, # of connection points: 2
#     Edge 36, Type (0, 0), BuildingBlock: TEMPAE_clean_linker_10, # of connection points: 2
#     Edge 37, Type (0, 0), BuildingBlock: TEMPAE_clean_linker_10, # of connection points: 2
#     Edge 38, Type (0, 0), BuildingBlock: TEMPAE_clean_linker_10, # of connection points: 2
#     Edge 39, Type (0, 0), BuildingBlock: TEMPAE_clean_linker_10, # of connection points: 2
#     Edge 40, Type (0, 0), BuildingBlock: TEMPAE_clean_linker_10, # of connection points: 2
#     Edge 41, Type (0, 0), BuildingBlock: TEMPAE_clean_linker_10, # of connection points: 2
#     Edge 42, Type (0, 0), BuildingBlock: TEMPAE_clean_linker_10, # of connection points: 2
#     Edge 43, Type (0, 0), BuildingBlock: TEMPAE_clean_linker_10, # of connection points: 2
#     Edge 44, Type (0, 0), BuildingBlock: TEMPAE_clean_linker_10, # of connection points: 2
#     Edge 45, Type (0, 0), BuildingBlock: TEMPAE_clean_linker_10, # of connection points: 2
#     Edge 46, Type (0, 0), BuildingBlock: TEMPAE_clean_linker_10, # of connection points: 2
#     Edge 47, Type (0, 0), BuildingBlock: TEMPAE_clean_linker_10, # of connection points: 2
#     Edge 48, Type (0, 0), BuildingBlock: TEMPAE_clean_linker_10, # of connection points: 2
#     Edge 49, Type (0, 0), BuildingBlock: TEMPAE_clean_linker_10, # of connection points: 2
#     Edge 50, Type (0, 0), BuildingBlock: TEMPAE_clean_linker_10, # of connection points: 2
#     Edge 51, Type (0, 0), BuildingBlock: TEMPAE_clean_linker_10, # of connection points: 2
#     Edge 52, Type (0, 0), BuildingBlock: TEMPAE_clean_linker_10, # of connection points: 2
#     Edge 53, Type (0, 0), BuildingBlock: TEMPAE_clean_linker_10, # of connection points: 2
#     Edge 54, Type (0, 0), BuildingBlock: TEMPAE_clean_linker_10, # of connection points: 2
#     Edge 55, Type (0, 0), BuildingBlock: TEMPAE_clean_linker_10, # of connection points: 2
#     Edge 56, Type (0, 0), BuildingBlock: TEMPAE_clean_linker_10, # of connection points: 2
#     Edge 57, Type (0, 0), BuildingBlock: TEMPAE_clean_linker_10, # of connection points: 2
#     Edge 58, Type (0, 0), BuildingBlock: TEMPAE_clean_linker_10, # of connection points: 2
#     Edge 59, Type (0, 0), BuildingBlock: TEMPAE_clean_linker_10, # of connection points: 2
#     Edge 60, Type (0, 0), BuildingBlock: TEMPAE_clean_linker_10, # of connection points: 2
#     Edge 61, Type (0, 0), BuildingBlock: TEMPAE_clean_linker_10, # of connection points: 2
#     Edge 62, Type (0, 0), BuildingBlock: TEMPAE_clean_linker_10, # of connection points: 2
#     Edge 63, Type (0, 0), BuildingBlock: TEMPAE_clean_linker_10, # of connection points: 2
#     Edge 64, Type (0, 0), BuildingBlock: TEMPAE_clean_linker_10, # of connection points: 2
#     Edge 65, Type (0, 0), BuildingBlock: TEMPAE_clean_linker_10, # of connection points: 2
#     Edge 66, Type (0, 0), BuildingBlock: TEMPAE_clean_linker_10, # of connection points: 2
#     Edge 67, Type (0, 0), BuildingBlock: TEMPAE_clean_linker_10, # of connection points: 2
#     Edge 68, Type (0, 0), BuildingBlock: TEMPAE_clean_linker_10, # of connection points: 2
#     Edge 69, Type (0, 0), BuildingBlock: TEMPAE_clean_linker_10, # of connection points: 2
#     Edge 70, Type (0, 0), BuildingBlock: TEMPAE_clean_linker_10, # of connection points: 2
#     Edge 71, Type (0, 0), BuildingBlock: TEMPAE_clean_linker_10, # of connection points: 2
#     Edge 72, Type (0, 0), BuildingBlock: TEMPAE_clean_linker_10, # of connection points: 2
#     Edge 73, Type (0, 0), BuildingBlock: TEMPAE_clean_linker_10, # of connection points: 2
#     Edge 74, Type (0, 0), BuildingBlock: TEMPAE_clean_linker_10, # of connection points: 2
#     Edge 75, Type (0, 0), BuildingBlock: TEMPAE_clean_linker_10, # of connection points: 2
#     Edge 76, Type (0, 0), BuildingBlock: TEMPAE_clean_linker_10, # of connection points: 2
#     Edge 77, Type (0, 0), BuildingBlock: TEMPAE_clean_linker_10, # of connection points: 2
#     Edge 78, Type (0, 0), BuildingBlock: TEMPAE_clean_linker_10, # of connection points: 2
#     Edge 79, Type (0, 0), BuildingBlock: TEMPAE_clean_linker_10, # of connection points: 2
#     Edge 80, Type (0, 0), BuildingBlock: TEMPAE_clean_linker_10, # of connection points: 2
#     Edge 81, Type (0, 0), BuildingBlock: TEMPAE_clean_linker_10, # of connection points: 2
#     Edge 82, Type (0, 0), BuildingBlock: TEMPAE_clean_linker_10, # of connection points: 2
#     Edge 83, Type (0, 0), BuildingBlock: TEMPAE_clean_linker_10, # of connection points: 2
#     Edge 84, Type (0, 0), BuildingBlock: TEMPAE_clean_linker_10, # of connection points: 2
#     Edge 85, Type (0, 0), BuildingBlock: TEMPAE_clean_linker_10, # of connection points: 2
#     Edge 86, Type (0, 0), BuildingBlock: TEMPAE_clean_linker_10, # of connection points: 2
#     Edge 87, Type (0, 0), BuildingBlock: TEMPAE_clean_linker_10, # of connection points: 2
#     Edge 88, Type (0, 0), BuildingBlock: TEMPAE_clean_linker_10, # of connection points: 2
#     Edge 89, Type (0, 0), BuildingBlock: TEMPAE_clean_linker_10, # of connection points: 2
#     Edge 90, Type (0, 0), BuildingBlock: TEMPAE_clean_linker_10, # of connection points: 2
#     Edge 91, Type (0, 0), BuildingBlock: TEMPAE_clean_linker_10, # of connection points: 2
#     Edge 92, Type (0, 0), BuildingBlock: TEMPAE_clean_linker_10, # of connection points: 2
#     Edge 93, Type (0, 0), BuildingBlock: TEMPAE_clean_linker_10, # of connection points: 2
#     Edge 94, Type (0, 0), BuildingBlock: TEMPAE_clean_linker_10, # of connection points: 2
#     Edge 95, Type (0, 0), BuildingBlock: TEMPAE_clean_linker_10, # of connection points: 2
# Relax obj value: 0.262
# Max RMSD: 0.145
# Mean RMSD: 0.145
data_MOF--net-dei--node1-QUQFOY_clean_sbu_1--edge1-TEMPAE_clean_linker_10
_symmetry_space_group_name_H-M    P1
_symmetry_Int_Tables_number       1
_symmetry_cell_setting            triclinic
loop_
_symmetry_equiv_pos_as_xyz
'x, y, z'
_cell_length_a     58.511522
_cell_length_b     58.504308
_cell_length_c     94.190502
_cell_angle_alpha  90.006277
_cell_angle_beta   90.072612
_cell_angle_gamma 89.983486
loop_
_atom_site_label
_atom_site_type_symbol
_atom_site_fract_x
_atom_site_fract_y
_atom_site_fract_z
_atom_type_partial_charge
O0 O 0.11175 0.63457 0.01924 0.0
Cd1 Cd 0.14653 0.63305 0.02307 0.0
Cd2 Cd 0.13348 0.63882 0.05013 0.0
O3 O 0.10477 0.62399 0.04124 0.0
O4 O 0.16109 0.61137 0.00923 0.0
O5 O 0.15584 0.60331 0.03201 0.0
C6 C 0.1619 0.59664 0.01946 0.0
C7 C 0.13952 0.63065 0.07431 0.0
C8 C 0.09797 0.62711 0.02857 0.0
C9 C 0.15518 0.67882 0.03447 0.0
O10 O 0.14167 0.67204 0.04418 0.0
O11 O 0.16292 0.66456 0.02545 0.0
O12 O 0.1226 0.64288 0.07004 0.0
O13 O 0.15334 0.62278 0.06483 0.0
O14 O 0.60388 0.89312 0.29559 0.0
Cd15 Cd 0.6366 0.88351 0.30182 0.0
Cd16 Cd 0.64316 0.89377 0.27419 0.0
O17 O 0.61207 0.91108 0.27566 0.0
O18 O 0.63223 0.87465 0.32211 0.0
O19 O 0.65424 0.90348 0.31576 0.0
C20 C 0.64578 0.89093 0.32572 0.0
C21 C 0.67961 0.90849 0.26979 0.0
C22 C 0.59759 0.90535 0.28511 0.0
C23 C 0.64639 0.84529 0.28161 0.0
O24 O 0.64069 0.85875 0.27163 0.0
O25 O 0.6491 0.85291 0.29413 0.0
O26 O 0.66475 0.90662 0.25969 0.0
O27 O 0.67317 0.90365 0.28259 0.0
O28 O 0.41329 0.38858 0.52668 0.0
Cd29 Cd 0.378 0.38966 0.5273 0.0
Cd30 Cd 0.38625 0.38209 0.55582 0.0
O31 O 0.41731 0.3953 0.54952 0.0
O32 O 0.36919 0.40944 0.5108 0.0
O33 O 0.36349 0.41959 0.53316 0.0
C34 C 0.36297 0.42487 0.51982 0.0
C35 C 0.37823 0.38941 0.5799 0.0
C36 C 0.42587 0.3937 0.53719 0.0
C37 C 0.3667 0.34335 0.5373 0.0
O38 O 0.3773 0.34972 0.54845 0.0
O39 O 0.36195 0.35779 0.52759 0.0
O40 O 0.39433 0.37584 0.57604 0.0
O41 O 0.36596 0.39871 0.57009 0.0
O42 O 0.92512 0.12236 0.79604 0.0
Cd43 Cd 0.89394 0.13347 0.80389 0.0
Cd44 Cd 0.88483 0.12802 0.77529 0.0
O45 O 0.91612 0.1109 0.77443 0.0
O46 O 0.90277 0.1379 0.82418 0.0
O47 O 0.87454 0.11518 0.81783 0.0
C48 C 0.88674 0.1241 0.82781 0.0
C49 C 0.84841 0.11354 0.77039 0.0
C50 C 0.93084 0.11324 0.7843 0.0
C51 C 0.88374 0.17533 0.78629 0.0
O52 O 0.88661 0.16335 0.77517 0.0
O53 O 0.88369 0.16604 0.79848 0.0
O54 O 0.86272 0.11771 0.76028 0.0
O55 O 0.85536 0.11602 0.78335 0.0
O56 O 0.10938 0.39454 0.98842 0.0
Cd57 Cd 0.1444 0.39497 0.98643 0.0
Cd58 Cd 0.13598 0.38269 0.95795 0.0
O59 O 0.10322 0.38711 0.96574 0.0
O60 O 0.15698 0.41659 1.00106 0.0
O61 O 0.15645 0.42419 0.97801 0.0
C62 C 0.1604 0.43096 0.99087 0.0
C63 C 0.1404 0.39252 0.93388 0.0
C64 C 0.09572 0.39119 0.97815 0.0
C65 C 0.16136 0.34862 0.97658 0.0
O66 O 0.15319 0.35371 0.96446 0.0
O67 O 0.16033 0.36283 0.98684 0.0
O68 O 0.12808 0.3755 0.93781 0.0
O69 O 0.15069 0.40419 0.94359 0.0
O70 O 0.92211 0.89543 0.21476 0.0
Cd71 Cd 0.89104 0.88266 0.20826 0.0
Cd72 Cd 0.88082 0.89206 0.23632 0.0
O73 O 0.91299 0.90823 0.23609 0.0
O74 O 0.89681 0.87466 0.18801 0.0
O75 O 0.87091 0.9001 0.19428 0.0
C76 C 0.88104 0.88877 0.18437 0.0
C77 C 0.84488 0.90818 0.24055 0.0
C78 C 0.92768 0.90548 0.22623 0.0
C79 C 0.88125 0.84312 0.22809 0.0
O80 O 0.88082 0.85681 0.23856 0.0
O81 O 0.88361 0.85049 0.21551 0.0
O82 O 0.8593 0.90517 0.25079 0.0
O83 O 0.85161 0.90385 0.22775 0.0
O84 O 0.40988 0.62552 0.47782 0.0
Cd85 Cd 0.37526 0.62604 0.48179 0.0
Cd86 Cd 0.37543 0.64446 0.45321 0.0
O87 O 0.41021 0.64283 0.45698 0.0
O88 O 0.37274 0.60554 0.49881 0.0
O89 O 0.35727 0.59694 0.47809 0.0
C90 C 0.3621 0.59093 0.49096 0.0
C91 C 0.36583 0.63753 0.42928 0.0
C92 C 0.42076 0.63385 0.46738 0.0
C93 C 0.35487 0.67325 0.47701 0.0
O94 O 0.3575 0.66968 0.46379 0.0
O95 O 0.36115 0.65835 0.48612 0.0
O96 O 0.37455 0.65659 0.43338 0.0
O97 O 0.36185 0.62226 0.43885 0.0
O98 O 0.60644 0.11139 0.71488 0.0
Cd99 Cd 0.63475 0.12784 0.70634 0.0
Cd100 Cd 0.64613 0.12628 0.73569 0.0
O101 O 0.61541 0.10868 0.73762 0.0
O102 O 0.62371 0.13067 0.68635 0.0
O103 O 0.65595 0.11328 0.69171 0.0
C104 C 0.64167 0.12004 0.68215 0.0
C105 C 0.68286 0.11299 0.74109 0.0
C106 C 0.60139 0.10535 0.72748 0.0
C107 C 0.6417 0.17236 0.72303 0.0
O108 O 0.64296 0.16127 0.7346 0.0
O109 O 0.63982 0.16202 0.71121 0.0
O110 O 0.66852 0.11803 0.75104 0.0
O111 O 0.67588 0.11413 0.72807 0.0
O112 O 0.91139 0.38684 0.99047 0.0
Cd113 Cd 0.87625 0.38819 0.98827 0.0
Cd114 Cd 0.88594 0.38058 0.96025 0.0
O115 O 0.91721 0.39206 0.96754 0.0
O116 O 0.86344 0.41036 1.00242 0.0
O117 O 0.8654 0.41737 0.9793 0.0
C118 C 0.8609 0.42452 0.992 0.0
C119 C 0.87856 0.3879 0.93608 0.0
C120 C 0.92477 0.39117 0.98019 0.0
C121 C 0.86405 0.34237 0.97809 0.0
O122 O 0.87504 0.34872 0.96714 0.0
O123 O 0.85951 0.35673 0.98785 0.0
O124 O 0.893 0.37268 0.94011 0.0
O125 O 0.86814 0.39944 0.94579 0.0
O126 O 0.38284 0.16064 0.73456 0.0
Cd127 Cd 0.38429 0.12526 0.7341 0.0
Cd128 Cd 0.39701 0.13462 0.70601 0.0
O129 O 0.38936 0.16756 0.71188 0.0
O130 O 0.36395 0.11646 0.75027 0.0
O131 O 0.35547 0.10897 0.72786 0.0
C132 C 0.34935 0.10911 0.74105 0.0
C133 C 0.38879 0.12502 0.6823 0.0
C134 C 0.38473 0.17462 0.7243 0.0
C135 C 0.43209 0.11279 0.72609 0.0
O136 O 0.42701 0.1219 0.71425 0.0
O137 O 0.41694 0.1104 0.73571 0.0
O138 O 0.40574 0.13792 0.68565 0.0
O139 O 0.37617 0.1173 0.69245 0.0
O140 O 0.60492 0.6375 0.47731 0.0
Cd141 Cd 0.64029 0.6367 0.47836 0.0
Cd142 Cd 0.63523 0.64641 0.44965 0.0
O143 O 0.60226 0.63633 0.45397 0.0
O144 O 0.64714 0.61621 0.49488 0.0
O145 O 0.65606 0.60728 0.47274 0.0
C146 C 0.65496 0.60138 0.48596 0.0
C147 C 0.64652 0.63907 0.42611 0.0
C148 C 0.59294 0.63555 0.46612 0.0
C149 C 0.65399 0.68327 0.46998 0.0
O150 O 0.64545 0.67754 0.45806 0.0
O151 O 0.65627 0.66854 0.47985 0.0
O152 O 0.63262 0.65528 0.42928 0.0
O153 O 0.65454 0.62685 0.43637 0.0
O154 O 0.14326 0.86409 0.23692 0.0
Cd155 Cd 0.1435 0.89923 0.2364 0.0
Cd156 Cd 0.12899 0.89288 0.208 0.0
O157 O 0.13301 0.85926 0.21451 0.0
O158 O 0.16573 0.91007 0.25122 0.0
O159 O 0.17236 0.91233 0.2281 0.0
C160 C 0.17964 0.91476 0.24099 0.0
C161 C 0.13708 0.89976 0.18386 0.0
C162 C 0.13862 0.85103 0.22653 0.0
C163 C 0.09683 0.91731 0.22852 0.0
O164 O 0.10128 0.91054 0.21601 0.0
O165 O 0.11147 0.9149 0.23845 0.0
O166 O 0.11888 0.88929 0.18785 0.0
O167 O 0.1511 0.90647 0.1936 0.0
O168 O 0.91368 0.62669 0.02004 0.0
Cd169 Cd 0.87872 0.62659 0.0223 0.0
Cd170 Cd 0.88742 0.63846 0.05054 0.0
O171 O 0.92013 0.63317 0.0428 0.0
O172 O 0.86553 0.60458 0.00817 0.0
O173 O 0.86674 0.5979 0.03134 0.0
C174 C 0.86233 0.59067 0.01864 0.0
C175 C 0.88217 0.62845 0.07451 0.0
C176 C 0.92749 0.62934 0.03032 0.0
C177 C 0.86244 0.67299 0.032 0.0
O178 O 0.87087 0.66786 0.04404 0.0
O179 O 0.86298 0.6587 0.02178 0.0
O180 O 0.89507 0.64517 0.07078 0.0
O181 O 0.87185 0.61716 0.06463 0.0
O182 O 0.14746 0.16027 0.77465 0.0
Cd183 Cd 0.14677 0.12523 0.77279 0.0
Cd184 Cd 0.13107 0.12891 0.8014 0.0
O185 O 0.1337 0.16328 0.79639 0.0
O186 O 0.16765 0.1194 0.75634 0.0
O187 O 0.17544 0.10785 0.77817 0.0
C188 C 0.1819 0.11022 0.76512 0.0
C189 C 0.13878 0.12052 0.82538 0.0
C190 C 0.14106 0.17249 0.78505 0.0
C191 C 0.10004 0.10621 0.77939 0.0
O192 O 0.10451 0.11089 0.79228 0.0
O193 O 0.11442 0.1107 0.7696 0.0
O194 O 0.12006 0.13011 0.82143 0.0
O195 O 0.15344 0.11533 0.81567 0.0
O196 O 0.60924 0.40007 0.52474 0.0
Cd197 Cd 0.64408 0.39963 0.52178 0.0
Cd198 Cd 0.64237 0.3824 0.55059 0.0
O199 O 0.60781 0.38473 0.54614 0.0
O200 O 0.64801 0.42016 0.50491 0.0
O201 O 0.66149 0.42875 0.52618 0.0
C202 C 0.65776 0.43481 0.51318 0.0
C203 C 0.65078 0.38896 0.57472 0.0
C204 C 0.59781 0.3928 0.53526 0.0
C205 C 0.66422 0.35278 0.52754 0.0
O206 O 0.6605 0.3567 0.54062 0.0
O207 O 0.65869 0.36741 0.51808 0.0
O208 O 0.64163 0.37025 0.57039 0.0
O209 O 0.6558 0.40413 0.56528 0.0
O210 O 0.38147 0.86221 0.27286 0.0
Cd211 Cd 0.38137 0.89735 0.27373 0.0
Cd212 Cd 0.39518 0.8903 0.30212 0.0
O213 O 0.39177 0.85684 0.29522 0.0
O214 O 0.35936 0.90881 0.25897 0.0
O215 O 0.35253 0.91039 0.28209 0.0
C216 C 0.34539 0.9133 0.26921 0.0
C217 C 0.38691 0.89631 0.32629 0.0
C218 C 0.38623 0.84891 0.28311 0.0
C219 C 0.42782 0.91526 0.28226 0.0
O220 O 0.42294 0.90833 0.29467 0.0
O221 O 0.41354 0.91294 0.27212 0.0
O222 O 0.40516 0.88604 0.3222 0.0
O223 O 0.37288 0.90327 0.31664 0.0
O224 O 0.60792 0.13463 0.5273 0.0
Cd225 Cd 0.64321 0.13627 0.52576 0.0
Cd226 Cd 0.6378 0.15026 0.55423 0.0
O227 O 0.60392 0.1445 0.54979 0.0
O228 O 0.64963 0.11594 0.50912 0.0
O229 O 0.66084 0.10764 0.53094 0.0
C230 C 0.65872 0.10151 0.51781 0.0
C231 C 0.64878 0.14122 0.57762 0.0
C232 C 0.5953 0.13846 0.53801 0.0
C233 C 0.65773 0.18425 0.53279 0.0
O234 O 0.6511 0.17946 0.54529 0.0
O235 O 0.65751 0.16902 0.52308 0.0
O236 O 0.63692 0.15912 0.57469 0.0
O237 O 0.65494 0.12831 0.56719 0.0
O238 O 0.09942 0.39213 0.79738 0.0
Cd239 Cd 0.13203 0.38291 0.80408 0.0
Cd240 Cd 0.13911 0.39228 0.7761 0.0
O241 O 0.10763 0.40902 0.77708 0.0
O242 O 0.1268 0.37384 0.82425 0.0
O243 O 0.14883 0.40292 0.81841 0.0
C244 C 0.14007 0.39017 0.82816 0.0
C245 C 0.1754 0.40741 0.77158 0.0
C246 C 0.09311 0.40367 0.7866 0.0
C247 C 0.14318 0.34424 0.78432 0.0
O248 O 0.13743 0.35714 0.77406 0.0
O249 O 0.14531 0.3524 0.79674 0.0
O250 O 0.16066 0.40487 0.76146 0.0
O251 O 0.16889 0.40305 0.78443 0.0
O252 O 0.91671 0.89176 0.02641 0.0
Cd253 Cd 0.88134 0.89019 0.02691 0.0
Cd254 Cd 0.88959 0.87863 0.05533 0.0
O255 O 0.92225 0.88678 0.04937 0.0
O256 O 0.87207 0.90983 0.01049 0.0
O257 O 0.86481 0.91901 0.03282 0.0
C258 C 0.86462 0.92463 0.01954 0.0
C259 C 0.88152 0.88753 0.07913 0.0
C260 C 0.93003 0.89054 0.03704 0.0
C261 C 0.86901 0.84247 0.03578 0.0
O262 O 0.87785 0.84783 0.04767 0.0
O263 O 0.86673 0.85739 0.02599 0.0
O264 O 0.89592 0.87191 0.0757 0.0
O265 O 0.8709 0.89802 0.06904 0.0
O266 O 0.41986 0.62545 0.29249 0.0
Cd267 Cd 0.38859 0.63734 0.2998 0.0
Cd268 Cd 0.38002 0.62938 0.2713 0.0
O269 O 0.41116 0.61196 0.2713 0.0
O270 O 0.39696 0.64323 0.32006 0.0
O271 O 0.36887 0.6201 0.31409 0.0
C272 C 0.38088 0.62965 0.32394 0.0
C273 C 0.34359 0.61504 0.26614 0.0
C274 C 0.42574 0.61522 0.28114 0.0
C275 C 0.37939 0.67764 0.28071 0.0
O276 O 0.38241 0.66459 0.27008 0.0
O277 O 0.37875 0.66952 0.29321 0.0
O278 O 0.35841 0.61835 0.25619 0.0
O279 O 0.35002 0.61829 0.27913 0.0
O280 O 0.61047 0.89784 0.48546 0.0
Cd281 Cd 0.64549 0.89915 0.48505 0.0
Cd282 Cd 0.63875 0.89082 0.45567 0.0
O283 O 0.60621 0.90024 0.46225 0.0
O284 O 0.65394 0.91941 0.50136 0.0
O285 O 0.66019 0.92877 0.47891 0.0
C286 C 0.66042 0.93449 0.49219 0.0
C287 C 0.64486 0.89816 0.43136 0.0
C288 C 0.59774 0.90022 0.47466 0.0
C289 C 0.66071 0.85364 0.47475 0.0
O290 O 0.65243 0.86 0.46286 0.0
O291 O 0.66117 0.86729 0.4853 0.0
O292 O 0.63064 0.88296 0.43566 0.0
O293 O 0.65624 0.90929 0.44084 0.0
O294 O 0.41518 0.39208 0.71553 0.0
Cd295 Cd 0.38217 0.38263 0.70974 0.0
Cd296 Cd 0.37707 0.3929 0.73771 0.0
O297 O 0.40853 0.40941 0.73589 0.0
O298 O 0.38664 0.37226 0.68974 0.0
O299 O 0.36487 0.40174 0.69514 0.0
C300 C 0.37329 0.38837 0.68559 0.0
C301 C 0.34073 0.40796 0.74206 0.0
C302 C 0.42234 0.40379 0.72603 0.0
C303 C 0.37236 0.34474 0.73035 0.0
O304 O 0.37902 0.35791 0.74024 0.0
O305 O 0.36917 0.35254 0.71792 0.0
O306 O 0.3556 0.40614 0.75217 0.0
O307 O 0.34717 0.403 0.72928 0.0
O308 O 0.9123 0.12572 0.98297 0.0
Cd309 Cd 0.87731 0.12621 0.98518 0.0
Cd310 Cd 0.88029 0.14248 0.95665 0.0
O311 O 0.91476 0.14052 0.96146 0.0
O312 O 0.87231 0.10565 1.00188 0.0
O313 O 0.85994 0.0973 0.98031 0.0
C314 C 0.86288 0.09116 0.99337 0.0
C315 C 0.87179 0.13423 0.93276 0.0
C316 C 0.92424 0.13275 0.97261 0.0
C317 C 0.85759 0.17287 0.9789 0.0
O318 O 0.86194 0.16866 0.96593 0.0
O319 O 0.86256 0.15839 0.98855 0.0
O320 O 0.88093 0.15326 0.93655 0.0
O321 O 0.86699 0.11964 0.94258 0.0
O322 O 0.10341 0.63583 0.21006 0.0
Cd323 Cd 0.13654 0.64426 0.20416 0.0
Cd324 Cd 0.14235 0.63135 0.23122 0.0
O325 O 0.11107 0.61459 0.2288 0.0
O326 O 0.1325 0.65466 0.18413 0.0
O327 O 0.15307 0.62438 0.18971 0.0
C328 C 0.14507 0.63788 0.18007 0.0
C329 C 0.17869 0.6162 0.23545 0.0
C330 C 0.09675 0.62228 0.21978 0.0
C331 C 0.1471 0.68019 0.22552 0.0
O332 O 0.14019 0.66616 0.23487 0.0
O333 O 0.15049 0.67348 0.21287 0.0
O334 O 0.16364 0.61719 0.24547 0.0
O335 O 0.17246 0.62206 0.22277 0.0
O336 O 0.41354 0.89021 0.48473 0.0
Cd337 Cd 0.37815 0.88959 0.48414 0.0
Cd338 Cd 0.38587 0.87705 0.45572 0.0
O339 O 0.4189 0.88387 0.46181 0.0
O340 O 0.36684 0.91141 0.49908 0.0
O341 O 0.36485 0.91855 0.47601 0.0
C342 C 0.36226 0.92556 0.48894 0.0
C343 C 0.37755 0.88436 0.43167 0.0
C344 C 0.42678 0.88811 0.4741 0.0
C345 C 0.36395 0.84211 0.47573 0.0
O346 O 0.37241 0.84733 0.46374 0.0
O347 O 0.36257 0.85711 0.48553 0.0
O348 O 0.38999 0.86739 0.43557 0.0
O349 O 0.3696 0.89759 0.44145 0.0
O350 O 0.88006 0.65895 0.23495 0.0
Cd351 Cd 0.87988 0.62409 0.23295 0.0
Cd352 Cd 0.8867 0.63395 0.2043 0.0
O353 O 0.87559 0.66533 0.21206 0.0
O354 O 0.8597 0.61325 0.24868 0.0
O355 O 0.85066 0.60966 0.22593 0.0
C356 C 0.84478 0.60782 0.23913 0.0
C357 C 0.87802 0.62791 0.18018 0.0
C358 C 0.87612 0.67258 0.22478 0.0
C359 C 0.92566 0.61212 0.22185 0.0
O360 O 0.91866 0.62171 0.2105 0.0
O361 O 0.91221 0.60943 0.23235 0.0
O362 O 0.89233 0.64324 0.18421 0.0
O363 O 0.86843 0.61556 0.18982 0.0
O364 O 0.10889 0.1341 0.98376 0.0
Cd365 Cd 0.14425 0.13247 0.98291 0.0
Cd366 Cd 0.13666 0.14071 0.95454 0.0
O367 O 0.10462 0.1299 0.96061 0.0
O368 O 0.15552 0.11103 0.99807 0.0
O369 O 0.15606 0.10268 0.97511 0.0
C370 C 0.15928 0.0963 0.98812 0.0
C371 C 0.14564 0.13341 0.93058 0.0
C372 C 0.09616 0.13058 0.97302 0.0
C373 C 0.15719 0.17854 0.97322 0.0
O374 O 0.147 0.17242 0.96191 0.0
O375 O 0.16109 0.16401 0.983 0.0
O376 O 0.1313 0.14894 0.93425 0.0
O377 O 0.15516 0.12163 0.94054 0.0
O378 O 0.64211 0.35629 0.7293 0.0
Cd379 Cd 0.64045 0.39119 0.73196 0.0
Cd380 Cd 0.62372 0.38825 0.70346 0.0
O381 O 0.62648 0.35375 0.70801 0.0
O382 O 0.66069 0.39625 0.74889 0.0
O383 O 0.66908 0.40943 0.72755 0.0
C384 C 0.67513 0.40624 0.74061 0.0
C385 C 0.63238 0.39759 0.67975 0.0
C386 C 0.63498 0.34433 0.71897 0.0
C387 C 0.59283 0.40943 0.72586 0.0
O388 O 0.59701 0.40565 0.71283 0.0
O389 O 0.6076 0.40465 0.73541 0.0
O390 O 0.61357 0.38772 0.68322 0.0
O391 O 0.64647 0.40269 0.68983 0.0
O392 O 0.41185 0.12976 0.52376 0.0
Cd393 Cd 0.3768 0.1276 0.52357 0.0
Cd394 Cd 0.38086 0.13706 0.55299 0.0
O395 O 0.41441 0.13039 0.54719 0.0
O396 O 0.36685 0.10565 0.50834 0.0
O397 O 0.36471 0.09791 0.53134 0.0
C398 C 0.3625 0.09115 0.51833 0.0
C399 C 0.37355 0.13 0.57721 0.0
C400 C 0.42379 0.12934 0.53503 0.0
C401 C 0.35862 0.17274 0.53318 0.0
O402 O 0.36553 0.16668 0.54542 0.0
O403 O 0.36024 0.15913 0.52266 0.0
O404 O 0.38531 0.14724 0.57302 0.0
O405 O 0.36568 0.11632 0.56764 0.0
O406 O 0.64332 0.66138 0.27073 0.0
Cd407 Cd 0.64204 0.6263 0.26925 0.0
Cd408 Cd 0.62735 0.63067 0.29779 0.0
O409 O 0.6304 0.66493 0.29262 0.0
O410 O 0.66293 0.61962 0.25294 0.0
O411 O 0.67041 0.60872 0.27495 0.0
C412 C 0.67699 0.6106 0.2619 0.0
C413 C 0.63613 0.6225 0.32164 0.0
C414 C 0.63753 0.67386 0.28114 0.0
C415 C 0.59527 0.608 0.27639 0.0
O416 O 0.60014 0.61293 0.28919 0.0
O417 O 0.60946 0.61205 0.26643 0.0
O418 O 0.61737 0.63232 0.31799 0.0
O419 O 0.65019 0.61688 0.31168 0.0
O420 O 0.1137 0.89343 0.02367 0.0
Cd421 Cd 0.14871 0.89519 0.0243 0.0
Cd422 Cd 0.14256 0.88578 0.0537 0.0
O423 O 0.10976 0.89424 0.04702 0.0
O424 O 0.15931 0.91682 0.0091 0.0
O425 O 0.16046 0.92499 0.03208 0.0
C426 C 0.1631 0.93154 0.01906 0.0
C427 C 0.14902 0.8922 0.07812 0.0
C428 C 0.10115 0.89501 0.03462 0.0
C429 C 0.16519 0.8497 0.03424 0.0
O430 O 0.1572 0.85572 0.04623 0.0
O431 O 0.16504 0.86357 0.0238 0.0
O432 O 0.13656 0.87565 0.07361 0.0
O433 O 0.158 0.90556 0.06877 0.0
O434 O 0.8758 0.35928 0.77985 0.0
Cd435 Cd 0.8763 0.39428 0.7777 0.0
Cd436 Cd 0.89232 0.39075 0.80656 0.0
O437 O 0.88989 0.35639 0.80155 0.0
O438 O 0.85608 0.39935 0.76076 0.0
O439 O 0.84708 0.41145 0.78225 0.0
C440 C 0.84125 0.40855 0.76912 0.0
C441 C 0.88496 0.39921 0.83058 0.0
C442 C 0.88244 0.34715 0.79024 0.0
C443 C 0.92328 0.41313 0.78444 0.0
O444 O 0.91883 0.4086 0.79734 0.0
O445 O 0.90879 0.40873 0.77466 0.0
O446 O 0.90364 0.38966 0.82656 0.0
O447 O 0.87013 0.4043 0.82093 0.0
C448 C 0.14954 0.65314 0.15561 0.0
C449 C 0.1494 0.63428 0.16477 0.0
C450 C 0.15093 0.65028 0.14086 0.0
C451 C 0.15155 0.62795 0.13506 0.0
C452 C 0.15233 0.60882 0.14429 0.0
C453 C 0.15152 0.61224 0.15909 0.0
C454 C 0.15061 0.67119 0.13145 0.0
C455 C 0.15259 0.58475 0.13855 0.0
C456 C 0.1239 0.62635 0.0987 0.0
C457 C 0.1429 0.62658 0.08967 0.0
C458 C 0.12654 0.62521 0.11348 0.0
C459 C 0.14878 0.62491 0.11943 0.0
C460 C 0.16806 0.62419 0.11033 0.0
C461 C 0.16487 0.62476 0.09551 0.0
C462 C 0.10548 0.62544 0.12273 0.0
C463 C 0.19204 0.62426 0.11624 0.0
H464 H 0.14815 0.67023 0.15998 0.0
H465 H 0.1513 0.59762 0.16617 0.0
H466 H 0.16434 0.67013 0.12337 0.0
H467 H 0.13407 0.67212 0.12571 0.0
H468 H 0.15285 0.68725 0.1376 0.0
H469 H 0.15603 0.57193 0.14699 0.0
H470 H 0.13576 0.58086 0.13368 0.0
H471 H 0.16568 0.58293 0.13012 0.0
H472 H 0.10687 0.6275 0.0942 0.0
H473 H 0.1796 0.62504 0.08853 0.0
H474 H 0.10429 0.64206 0.12836 0.0
H475 H 0.10657 0.61184 0.13092 0.0
H476 H 0.08955 0.62294 0.11649 0.0
H477 H 0.19568 0.6412 0.12104 0.0
H478 H 0.20503 0.62085 0.10791 0.0
H479 H 0.19385 0.6113 0.12476 0.0
C480 C 0.6691 0.90566 0.4099 0.0
C481 C 0.64752 0.90239 0.41599 0.0
C482 C 0.6717 0.90632 0.39503 0.0
C483 C 0.65217 0.90431 0.38618 0.0
C484 C 0.63023 0.90257 0.39241 0.0
C485 C 0.62823 0.90124 0.40721 0.0
C486 C 0.69542 0.90769 0.38882 0.0
C487 C 0.60887 0.901 0.38343 0.0
C488 C 0.65227 0.91698 0.34648 0.0
C489 C 0.65095 0.89483 0.34088 0.0
C490 C 0.65372 0.9205 0.36126 0.0
C491 C 0.65451 0.90138 0.37051 0.0
C492 C 0.65481 0.87903 0.36474 0.0
C493 C 0.65263 0.87604 0.35003 0.0
C494 C 0.65286 0.94457 0.36698 0.0
C495 C 0.65625 0.85816 0.37414 0.0
H496 H 0.68403 0.90641 0.41671 0.0
H497 H 0.6115 0.89893 0.41195 0.0
H498 H 0.69995 0.89095 0.38406 0.0
H499 H 0.6961 0.92061 0.38022 0.0
H500 H 0.70845 0.91204 0.39697 0.0
H501 H 0.59307 0.90261 0.38988 0.0
H502 H 0.60883 0.91456 0.3752 0.0
H503 H 0.60846 0.88428 0.37788 0.0
H504 H 0.65083 0.93151 0.3394 0.0
H505 H 0.65184 0.8589 0.34568 0.0
H506 H 0.66613 0.94714 0.37525 0.0
H507 H 0.63601 0.94754 0.37205 0.0
H508 H 0.65527 0.95752 0.35849 0.0
H509 H 0.67017 0.86016 0.38206 0.0
H510 H 0.65933 0.84229 0.36795 0.0
H511 H 0.64001 0.85614 0.38008 0.0
C512 C 0.36755 0.37173 0.6616 0.0
C513 C 0.36835 0.39114 0.67029 0.0
C514 C 0.36575 0.37369 0.64681 0.0
C515 C 0.36544 0.39565 0.64049 0.0
C516 C 0.36521 0.41536 0.64926 0.0
C517 C 0.36638 0.41285 0.66413 0.0
C518 C 0.36545 0.3522 0.63792 0.0
C519 C 0.3653 0.43905 0.64295 0.0
C520 C 0.39345 0.39429 0.60431 0.0
C521 C 0.37457 0.39404 0.59515 0.0
C522 C 0.39068 0.39643 0.61902 0.0
C523 C 0.36838 0.39764 0.62481 0.0
C524 C 0.34922 0.39823 0.61557 0.0
C525 C 0.35258 0.39673 0.60078 0.0
C526 C 0.41163 0.39632 0.6284 0.0
C527 C 0.32519 0.39907 0.62132 0.0
H528 H 0.36881 0.35491 0.66638 0.0
H529 H 0.36709 0.42788 0.67085 0.0
H530 H 0.35178 0.35315 0.62977 0.0
H531 H 0.38199 0.35041 0.63228 0.0
H532 H 0.36272 0.33663 0.64446 0.0
H533 H 0.36191 0.45242 0.65107 0.0
H534 H 0.38225 0.44244 0.63812 0.0
H535 H 0.35235 0.44052 0.63439 0.0
H536 H 0.4105 0.39251 0.59994 0.0
H537 H 0.33796 0.39646 0.5937 0.0
H538 H 0.41239 0.38007 0.63445 0.0
H539 H 0.41078 0.41048 0.63622 0.0
H540 H 0.42768 0.39804 0.6222 0.0
H541 H 0.32109 0.3825 0.62646 0.0
H542 H 0.31238 0.40233 0.61284 0.0
H543 H 0.32359 0.41253 0.62955 0.0
C544 C 0.86575 0.14745 0.90794 0.0
C545 C 0.86826 0.12928 0.9175 0.0
C546 C 0.86573 0.14372 0.89324 0.0
C547 C 0.86882 0.12128 0.88793 0.0
C548 C 0.87013 0.10268 0.89754 0.0
C549 C 0.86963 0.10689 0.91226 0.0
C550 C 0.86379 0.16402 0.8834 0.0
C551 C 0.87365 0.07855 0.89233 0.0
C552 C 0.86023 0.11503 0.84799 0.0
C553 C 0.88233 0.11969 0.84303 0.0
C554 C 0.85561 0.11436 0.86267 0.0
C555 C 0.8736 0.11802 0.87251 0.0
C556 C 0.89617 0.12117 0.86747 0.0
C557 C 0.90019 0.12221 0.85282 0.0
C558 C 0.83129 0.11119 0.86759 0.0
C559 C 0.91597 0.12468 0.87755 0.0
H560 H 0.86443 0.16477 0.91196 0.0
H561 H 0.87165 0.09281 0.91964 0.0
H562 H 0.88052 0.16714 0.87821 0.0
H563 H 0.85112 0.16057 0.8749 0.0
H564 H 0.85867 0.17982 0.88911 0.0
H565 H 0.87095 0.06577 0.90088 0.0
H566 H 0.8619 0.07467 0.8834 0.0
H567 H 0.89136 0.0767 0.88829 0.0
H568 H 0.84636 0.11315 0.84044 0.0
H569 H 0.91735 0.12556 0.84902 0.0
H570 H 0.82467 0.12767 0.87173 0.0
H571 H 0.83046 0.09862 0.87639 0.0
H572 H 0.81991 0.10538 0.85886 0.0
H573 H 0.91418 0.14146 0.88293 0.0
H574 H 0.93271 0.12431 0.87201 0.0
H575 H 0.91597 0.1113 0.8859 0.0
C576 C 0.12283 0.39694 0.91007 0.0
C577 C 0.14235 0.39805 0.91865 0.0
C578 C 0.12436 0.39917 0.89528 0.0
C579 C 0.14609 0.40169 0.88885 0.0
C580 C 0.16582 0.4037 0.89753 0.0
C581 C 0.16366 0.4022 0.9124 0.0
C582 C 0.1028 0.39761 0.88651 0.0
C583 C 0.18933 0.40584 0.8911 0.0
C584 C 0.14673 0.37465 0.85233 0.0
C585 C 0.14481 0.3937 0.84341 0.0
C586 C 0.14879 0.37718 0.86707 0.0
C587 C 0.1481 0.39933 0.87313 0.0
C588 C 0.14694 0.41873 0.86412 0.0
C589 C 0.14565 0.41568 0.8493 0.0
C590 C 0.15065 0.35604 0.8762 0.0
C591 C 0.14563 0.44258 0.87015 0.0
H592 H 0.10633 0.39389 0.91495 0.0
H593 H 0.17877 0.40286 0.91906 0.0
H594 H 0.10236 0.41142 0.87844 0.0
H595 H 0.10243 0.38106 0.88076 0.0
H596 H 0.08716 0.39883 0.89315 0.0
H597 H 0.20248 0.41017 0.89918 0.0
H598 H 0.1941 0.38937 0.88606 0.0
H599 H 0.1895 0.41907 0.88268 0.0
H600 H 0.14631 0.35764 0.84775 0.0
H601 H 0.14401 0.43041 0.84239 0.0
H602 H 0.13455 0.35361 0.88222 0.0
H603 H 0.16468 0.35796 0.88405 0.0
H604 H 0.15383 0.3404 0.8698 0.0
H605 H 0.12883 0.44499 0.8754 0.0
H606 H 0.14757 0.45587 0.86182 0.0
H607 H 0.159 0.44519 0.87835 0.0
C608 C 0.85629 0.89546 0.10005 0.0
C609 C 0.87819 0.89328 0.09422 0.0
C610 C 0.85336 0.8974 0.11485 0.0
C611 C 0.87282 0.8978 0.12384 0.0
C612 C 0.89496 0.8973 0.11779 0.0
C613 C 0.89734 0.89464 0.10309 0.0
C614 C 0.82949 0.89742 0.12089 0.0
C615 C 0.91621 0.89831 0.12689 0.0
C616 C 0.87173 0.91294 0.16316 0.0
C617 C 0.87505 0.89135 0.16924 0.0
C618 C 0.86974 0.9154 0.14833 0.0
C619 C 0.87049 0.89572 0.13955 0.0
C620 C 0.87207 0.87379 0.14584 0.0
C621 C 0.87472 0.87192 0.16057 0.0
C622 C 0.86852 0.93908 0.14204 0.0
C623 C 0.87231 0.8523 0.13695 0.0
H624 H 0.84149 0.89428 0.09316 0.0
H625 H 0.91428 0.89317 0.09852 0.0
H626 H 0.82606 0.88062 0.12594 0.0
H627 H 0.82772 0.91067 0.12924 0.0
H628 H 0.81635 0.90042 0.11258 0.0
H629 H 0.93192 0.90082 0.12047 0.0
H630 H 0.91492 0.91242 0.13472 0.0
H631 H 0.91801 0.88211 0.13293 0.0
H632 H 0.8721 0.92797 0.1699 0.0
H633 H 0.87705 0.85519 0.16532 0.0
H634 H 0.85536 0.93992 0.13358 0.0
H635 H 0.8852 0.94331 0.13709 0.0
H636 H 0.86464 0.95223 0.1502 0.0
H637 H 0.85834 0.85269 0.12898 0.0
H638 H 0.87044 0.83664 0.14352 0.0
H639 H 0.88871 0.85116 0.13108 0.0
C640 C 0.35892 0.65171 0.40472 0.0
C641 C 0.36215 0.63321 0.41396 0.0
C642 C 0.35894 0.64866 0.38995 0.0
C643 C 0.36282 0.62661 0.38423 0.0
C644 C 0.36488 0.60764 0.39351 0.0
C645 C 0.36429 0.61114 0.4083 0.0
C646 C 0.35617 0.66931 0.38048 0.0
C647 C 0.36931 0.58391 0.38787 0.0
C648 C 0.35445 0.62063 0.3442 0.0
C649 C 0.3764 0.62592 0.33923 0.0
C650 C 0.3498 0.61993 0.35888 0.0
C651 C 0.36763 0.62418 0.36874 0.0
C652 C 0.39007 0.62822 0.36371 0.0
C653 C 0.3941 0.62929 0.34905 0.0
C654 C 0.32561 0.61587 0.3638 0.0
C655 C 0.40972 0.63238 0.3738 0.0
H656 H 0.35704 0.66878 0.40906 0.0
H657 H 0.36691 0.5968 0.41541 0.0
H658 H 0.37276 0.67337 0.37537 0.0
H659 H 0.34367 0.66573 0.37189 0.0
H660 H 0.35037 0.6846 0.38647 0.0
H661 H 0.3673 0.57065 0.39621 0.0
H662 H 0.35758 0.57993 0.37895 0.0
H663 H 0.38702 0.58299 0.3837 0.0
H664 H 0.3407 0.61809 0.33664 0.0
H665 H 0.41116 0.63314 0.34526 0.0
H666 H 0.31862 0.6319 0.36835 0.0
H667 H 0.32521 0.60277 0.3723 0.0
H668 H 0.31428 0.61028 0.35499 0.0
H669 H 0.40715 0.64887 0.3794 0.0
H670 H 0.42645 0.633 0.36824 0.0
H671 H 0.41041 0.61874 0.38197 0.0
C672 C 0.66812 0.11663 0.66127 0.0
C673 C 0.64586 0.11708 0.66677 0.0
C674 C 0.67192 0.11781 0.64652 0.0
C675 C 0.65301 0.11908 0.63713 0.0
C676 C 0.63054 0.11783 0.64265 0.0
C677 C 0.62726 0.11707 0.65738 0.0
C678 C 0.69612 0.11925 0.64108 0.0
C679 C 0.60986 0.11869 0.63305 0.0
C680 C 0.65376 0.1528 0.60285 0.0
C681 C 0.65382 0.13544 0.5926 0.0
C682 C 0.65519 0.14769 0.61737 0.0
C683 C 0.65624 0.12458 0.6218 0.0
C684 C 0.65754 0.10701 0.61147 0.0
C685 C 0.6565 0.11267 0.59695 0.0
C686 C 0.65419 0.16703 0.62798 0.0
C687 C 0.6585 0.08217 0.61575 0.0
H688 H 0.68254 0.11672 0.66851 0.0
H689 H 0.61002 0.11716 0.66159 0.0
H690 H 0.6985 0.10791 0.63176 0.0
H691 H 0.69967 0.137 0.63756 0.0
H692 H 0.70881 0.11456 0.64937 0.0
H693 H 0.59378 0.11486 0.63884 0.0
H694 H 0.60836 0.13598 0.6283 0.0
H695 H 0.6117 0.1063 0.62421 0.0
H696 H 0.65195 0.17046 0.59953 0.0
H697 H 0.65649 0.09919 0.58905 0.0
H698 H 0.66781 0.16505 0.63609 0.0
H699 H 0.63753 0.16665 0.63359 0.0
H700 H 0.65612 0.18402 0.62284 0.0
H701 H 0.67123 0.07952 0.62433 0.0
H702 H 0.66287 0.0709 0.60665 0.0
H703 H 0.6416 0.0769 0.61996 0.0
C704 C 0.89932 0.40665 0.85499 0.0
C705 C 0.88074 0.40311 0.84586 0.0
C706 C 0.8964 0.40721 0.86976 0.0
C707 C 0.87441 0.40351 0.87559 0.0
C708 C 0.85536 0.40105 0.86639 0.0
C709 C 0.85873 0.40113 0.85159 0.0
C710 C 0.91711 0.41044 0.87913 0.0
C711 C 0.83171 0.39673 0.87216 0.0
C712 C 0.87794 0.3737 0.91122 0.0
C713 C 0.87457 0.39177 0.92075 0.0
C714 C 0.8765 0.37711 0.89652 0.0
C715 C 0.87216 0.3993 0.89115 0.0
C716 C 0.86793 0.41751 0.90073 0.0
C717 C 0.86893 0.41346 0.91547 0.0
C718 C 0.88061 0.35707 0.88672 0.0
C719 C 0.86362 0.44147 0.89545 0.0
H720 H 0.91634 0.40842 0.85058 0.0
H721 H 0.84434 0.39829 0.84454 0.0
H722 H 0.91355 0.42325 0.88753 0.0
H723 H 0.92132 0.39407 0.88448 0.0
H724 H 0.93232 0.41608 0.87301 0.0
H725 H 0.81837 0.39836 0.86382 0.0
H726 H 0.83092 0.37919 0.87661 0.0
H727 H 0.82774 0.40878 0.88091 0.0
H728 H 0.88204 0.35684 0.91527 0.0
H729 H 0.8664 0.42748 0.92283 0.0
H730 H 0.89705 0.35945 0.88104 0.0
H731 H 0.86691 0.35605 0.8786 0.0
H732 H 0.88132 0.34057 0.89254 0.0
H733 H 0.87956 0.4484 0.89075 0.0
H734 H 0.85802 0.45309 0.9041 0.0
H735 H 0.85045 0.44144 0.88697 0.0
C736 C 0.40195 0.12036 0.65739 0.0
C737 C 0.38396 0.12008 0.66719 0.0
C738 C 0.3978 0.11859 0.64277 0.0
C739 C 0.37501 0.11708 0.63777 0.0
C740 C 0.35681 0.11572 0.64766 0.0
C741 C 0.36153 0.117 0.66231 0.0
C742 C 0.41778 0.1196 0.63266 0.0
C743 C 0.33228 0.11442 0.64276 0.0
C744 C 0.36953 0.14503 0.60172 0.0
C745 C 0.37007 0.12617 0.59256 0.0
C746 C 0.36941 0.14216 0.61649 0.0
C747 C 0.37045 0.11986 0.62229 0.0
C748 C 0.36987 0.10067 0.61309 0.0
C749 C 0.36944 0.10407 0.59828 0.0
C750 C 0.36949 0.16312 0.62587 0.0
C751 C 0.37125 0.07664 0.61883 0.0
H752 H 0.41935 0.12246 0.66115 0.0
H753 H 0.34759 0.11685 0.66987 0.0
H754 H 0.41647 0.1058 0.62461 0.0
H755 H 0.41759 0.13615 0.6269 0.0
H756 H 0.43444 0.11795 0.63824 0.0
H757 H 0.32046 0.11024 0.65161 0.0
H758 H 0.32715 0.13114 0.6382 0.0
H759 H 0.33029 0.10141 0.63429 0.0
H760 H 0.36975 0.16215 0.59731 0.0
H761 H 0.36996 0.08946 0.5912 0.0
H762 H 0.38648 0.16496 0.63098 0.0
H763 H 0.35663 0.16137 0.63445 0.0
H764 H 0.3658 0.17899 0.61981 0.0
H765 H 0.38878 0.07342 0.62288 0.0
H766 H 0.3673 0.06367 0.61057 0.0
H767 H 0.35932 0.07435 0.62786 0.0
C768 C 0.65028 0.65208 0.40112 0.0
C769 C 0.6518 0.63431 0.41105 0.0
C770 C 0.65154 0.64771 0.38652 0.0
C771 C 0.65387 0.62491 0.38168 0.0
C772 C 0.65676 0.60702 0.39167 0.0
C773 C 0.65588 0.61198 0.4063 0.0
C774 C 0.64886 0.66739 0.37627 0.0
C775 C 0.65913 0.58249 0.38696 0.0
C776 C 0.62337 0.61738 0.34658 0.0
C777 C 0.64137 0.61904 0.33685 0.0
C778 C 0.62746 0.61752 0.36124 0.0
C779 C 0.65012 0.61987 0.36634 0.0
C780 C 0.66852 0.62026 0.35656 0.0
C781 C 0.66393 0.61965 0.34188 0.0
C782 C 0.60733 0.61658 0.37126 0.0
C783 C 0.69288 0.62292 0.36155 0.0
H784 H 0.64739 0.66942 0.40478 0.0
H785 H 0.65699 0.59819 0.41396 0.0
H786 H 0.66214 0.66657 0.36789 0.0
H787 H 0.63196 0.66627 0.37097 0.0
H788 H 0.65007 0.68424 0.38167 0.0
H789 H 0.66491 0.57122 0.39575 0.0
H790 H 0.64235 0.57621 0.3831 0.0
H791 H 0.67139 0.58105 0.37803 0.0
H792 H 0.60591 0.61663 0.34272 0.0
H793 H 0.67789 0.62099 0.33437 0.0
H794 H 0.60501 0.63351 0.37637 0.0
H795 H 0.61047 0.60392 0.37981 0.0
H796 H 0.5912 0.612 0.36571 0.0
H797 H 0.6956 0.6407 0.36528 0.0
H798 H 0.70534 0.6193 0.35294 0.0
H799 H 0.69646 0.61139 0.37063 0.0
C800 C 0.16391 0.90392 0.16322 0.0
C801 C 0.14156 0.90328 0.16855 0.0
C802 C 0.16795 0.90432 0.14847 0.0
C803 C 0.14918 0.9046 0.13893 0.0
C804 C 0.12664 0.90538 0.14436 0.0
C805 C 0.12312 0.90441 0.15907 0.0
C806 C 0.19221 0.9031 0.14312 0.0
C807 C 0.10613 0.90617 0.13462 0.0
C808 C 0.15493 0.91745 0.09939 0.0
C809 C 0.15224 0.89556 0.09357 0.0
C810 C 0.15491 0.92071 0.11422 0.0
C811 C 0.15269 0.90156 0.12335 0.0
C812 C 0.15143 0.87933 0.11745 0.0
C813 C 0.15092 0.87665 0.10266 0.0
C814 C 0.15592 0.94469 0.12007 0.0
C815 C 0.14954 0.85838 0.12675 0.0
H816 H 0.1782 0.90296 0.17052 0.0
H817 H 0.1058 0.90418 0.16316 0.0
H818 H 0.19524 0.88609 0.13826 0.0
H819 H 0.19516 0.91611 0.13476 0.0
H820 H 0.20488 0.90567 0.15177 0.0
H821 H 0.08998 0.90933 0.14049 0.0
H822 H 0.10828 0.91979 0.12653 0.0
H823 H 0.10452 0.88968 0.12888 0.0
H824 H 0.15586 0.93211 0.09238 0.0
H825 H 0.14911 0.85967 0.09819 0.0
H826 H 0.16868 0.94585 0.12876 0.0
H827 H 0.13905 0.94927 0.12464 0.0
H828 H 0.1603 0.95744 0.11176 0.0
H829 H 0.16285 0.8587 0.13515 0.0
H830 H 0.15133 0.84229 0.12059 0.0
H831 H 0.13267 0.85824 0.1321 0.0
C832 C 0.89841 0.62462 0.09874 0.0
C833 C 0.87947 0.62291 0.08971 0.0
C834 C 0.89609 0.62212 0.11347 0.0
C835 C 0.87412 0.61866 0.11939 0.0
C836 C 0.85499 0.61612 0.11026 0.0
C837 C 0.85796 0.61793 0.09546 0.0
C838 C 0.91707 0.62427 0.12274 0.0
C839 C 0.83122 0.61298 0.11613 0.0
C840 C 0.87332 0.60311 0.15869 0.0
C841 C 0.87327 0.62486 0.1649 0.0
C842 C 0.87263 0.60061 0.14382 0.0
C843 C 0.87116 0.62032 0.13509 0.0
C844 C 0.86944 0.64218 0.14147 0.0
C845 C 0.87095 0.6442 0.15627 0.0
C846 C 0.87507 0.57707 0.13746 0.0
C847 C 0.86717 0.6636 0.13263 0.0
H848 H 0.91508 0.62828 0.09427 0.0
H849 H 0.84329 0.61679 0.08846 0.0
H850 H 0.9164 0.6406 0.12871 0.0
H851 H 0.91764 0.61019 0.13063 0.0
H852 H 0.93311 0.62395 0.11645 0.0
H853 H 0.81867 0.60852 0.10772 0.0
H854 H 0.83103 0.59943 0.12436 0.0
H855 H 0.82563 0.62909 0.1213 0.0
H856 H 0.87533 0.58818 0.1654 0.0
H857 H 0.87077 0.66102 0.16111 0.0
H858 H 0.89225 0.57543 0.13257 0.0
H859 H 0.86229 0.57436 0.12892 0.0
H860 H 0.8731 0.56339 0.14555 0.0
H861 H 0.88348 0.66698 0.12702 0.0
H862 H 0.86295 0.6788 0.1392 0.0
H863 H 0.85368 0.66142 0.12445 0.0
C864 C 0.12477 0.11382 0.84993 0.0
C865 C 0.14325 0.11674 0.84065 0.0
C866 C 0.12799 0.11346 0.86467 0.0
C867 C 0.15019 0.11668 0.87033 0.0
C868 C 0.16911 0.11846 0.861 0.0
C869 C 0.16542 0.11823 0.84622 0.0
C870 C 0.10739 0.11101 0.87419 0.0
C871 C 0.19299 0.12218 0.86659 0.0
C872 C 0.14764 0.1473 0.90569 0.0
C873 C 0.15025 0.12928 0.91536 0.0
C874 C 0.14916 0.14359 0.89103 0.0
C875 C 0.15284 0.12117 0.88584 0.0
C876 C 0.1565 0.10304 0.89556 0.0
C877 C 0.1554 0.10736 0.91027 0.0
C878 C 0.14565 0.16354 0.88108 0.0
C879 C 0.16018 0.07887 0.89047 0.0
H880 H 0.10762 0.11241 0.84564 0.0
H881 H 0.17973 0.12058 0.83907 0.0
H882 H 0.11074 0.09823 0.88264 0.0
H883 H 0.1038 0.12758 0.87947 0.0
H884 H 0.09188 0.10574 0.86821 0.0
H885 H 0.20611 0.11987 0.8582 0.0
H886 H 0.19443 0.13983 0.87082 0.0
H887 H 0.19674 0.11028 0.87546 0.0
H888 H 0.14392 0.16433 0.90961 0.0
H889 H 0.15734 0.09339 0.91773 0.0
H890 H 0.12908 0.16162 0.87546 0.0
H891 H 0.15929 0.16393 0.87291 0.0
H892 H 0.14557 0.18018 0.88677 0.0
H893 H 0.14396 0.07214 0.88601 0.0
H894 H 0.1658 0.06736 0.89918 0.0
H895 H 0.1731 0.07839 0.88186 0.0
C896 C 0.65424 0.37436 0.59946 0.0
C897 C 0.65387 0.39302 0.59013 0.0
C898 C 0.65378 0.37754 0.61421 0.0
C899 C 0.65256 0.39997 0.61982 0.0
C900 C 0.65343 0.41895 0.61048 0.0
C901 C 0.65423 0.41525 0.59571 0.0
C902 C 0.65326 0.3568 0.62376 0.0
C903 C 0.65204 0.44311 0.61602 0.0
C904 C 0.62003 0.40138 0.65455 0.0
C905 C 0.63774 0.40166 0.66459 0.0
C906 C 0.62465 0.40227 0.63996 0.0
C907 C 0.6476 0.40313 0.63523 0.0
C908 C 0.66554 0.40455 0.64532 0.0
C909 C 0.66038 0.40394 0.65992 0.0
C910 C 0.60495 0.40107 0.6296 0.0
C911 C 0.69021 0.40537 0.64071 0.0
H912 H 0.65422 0.35713 0.59521 0.0
H913 H 0.65389 0.42974 0.58854 0.0
H914 H 0.66595 0.35859 0.63245 0.0
H915 H 0.63614 0.35528 0.62872 0.0
H916 H 0.65689 0.34075 0.61787 0.0
H917 H 0.65616 0.45589 0.60769 0.0
H918 H 0.63448 0.44648 0.61992 0.0
H919 H 0.66386 0.44553 0.62511 0.0
H920 H 0.60247 0.39988 0.65809 0.0
H921 H 0.67413 0.40413 0.66764 0.0
H922 H 0.60532 0.38442 0.62396 0.0
H923 H 0.60651 0.41472 0.62148 0.0
H924 H 0.58813 0.40282 0.63494 0.0
H925 H 0.6952 0.38851 0.6363 0.0
H926 H 0.70186 0.4095 0.64967 0.0
H927 H 0.69262 0.41823 0.63219 0.0
C928 C 0.40097 0.90021 0.35109 0.0
C929 C 0.38247 0.89942 0.34163 0.0
C930 C 0.39753 0.90063 0.3658 0.0
C931 C 0.37501 0.89971 0.37126 0.0
C932 C 0.35619 0.89989 0.36176 0.0
C933 C 0.36015 0.89997 0.34701 0.0
C934 C 0.4181 0.90093 0.37551 0.0
C935 C 0.33195 0.89861 0.36715 0.0
C936 C 0.37405 0.86998 0.40693 0.0
C937 C 0.37334 0.88846 0.41639 0.0
C938 C 0.37294 0.87339 0.39222 0.0
C939 C 0.37163 0.89592 0.38677 0.0
C940 C 0.36984 0.91461 0.39629 0.0
C941 C 0.37048 0.91063 0.41104 0.0
C942 C 0.37441 0.85291 0.3825 0.0
C943 C 0.36871 0.93888 0.39092 0.0
H944 H 0.41826 0.90007 0.34696 0.0
H945 H 0.34582 0.89931 0.33972 0.0
H946 H 0.41606 0.91422 0.38382 0.0
H947 H 0.41967 0.8842 0.38096 0.0
H948 H 0.43423 0.90426 0.36965 0.0
H949 H 0.31926 0.90188 0.3586 0.0
H950 H 0.32876 0.88133 0.37158 0.0
H951 H 0.32919 0.9111 0.37584 0.0
H952 H 0.37598 0.85278 0.41104 0.0
H953 H 0.36999 0.92495 0.41833 0.0
H954 H 0.39119 0.85286 0.37702 0.0
H955 H 0.36096 0.85378 0.37421 0.0
H956 H 0.37258 0.83653 0.38835 0.0
H957 H 0.38557 0.94376 0.38647 0.0
H958 H 0.36427 0.95116 0.39948 0.0
H959 H 0.35596 0.94045 0.38225 0.0
C960 C 0.06231 0.63863 0.01583 0.0
C961 C 0.0735 0.62395 0.02532 0.0
C962 C 0.03835 0.63859 0.01473 0.0
C963 C 0.02545 0.62313 0.02309 0.0
C964 C 0.03687 0.60705 0.03181 0.0
C965 C 0.06074 0.60787 0.03297 0.0
C966 C 0.02683 0.65624 0.00548 0.0
C967 C 0.02381 0.5899 0.04061 0.0
C968 C 0.96718 0.64032 0.03696 0.0
C969 C 0.95243 0.62837 0.02788 0.0
C970 C 0.99092 0.63935 0.03515 0.0
C971 C 1.00021 0.62563 0.02419 0.0
C972 C 0.98541 0.61364 0.0149 0.0
C973 C 0.96162 0.61539 0.01675 0.0
C974 C 1.00607 0.65277 0.04512 0.0
C975 C 0.99471 0.59847 1.00331 0.0
H976 H 0.07216 0.65116 0.00997 0.0
H977 H 0.0694 0.59635 0.04021 0.0
H978 H 0.01321 0.64829 0.99894 0.0
H979 H 0.01858 0.6693 0.01232 0.0
H980 H 0.03913 0.66499 0.99834 0.0
H981 H 0.03518 0.57659 0.04519 0.0
H982 H 0.01506 0.59883 0.04947 0.0
H983 H 1.01046 0.58141 0.03411 0.0
H984 H 0.96014 0.65059 0.04548 0.0
H985 H 0.95024 0.60605 0.00975 0.0
H986 H 0.01803 0.66367 0.03898 0.0
H987 H 0.01654 0.64087 0.05159 0.0
H988 H 0.99611 0.66386 0.05242 0.0
H989 H 1.00673 0.60816 0.99649 0.0
H990 H 0.98095 0.59123 0.99652 0.0
H991 H 1.00447 0.58415 0.00811 0.0
C992 C 0.65439 0.70892 0.27012 0.0
C993 C 0.63932 0.69901 0.27993 0.0
C994 C 0.65679 0.73276 0.26918 0.0
C995 C 0.64341 0.747 0.27803 0.0
C996 C 0.62779 0.73709 0.28771 0.0
C997 C 0.62613 0.71321 0.28867 0.0
C998 C 0.67399 0.74267 0.25896 0.0
C999 C 0.61291 0.75172 0.29716 0.0
C1000 C 0.66178 0.80698 0.2881 0.0
C1001 C 0.64799 0.82039 0.27921 0.0
C1002 C 0.66132 0.78306 0.2873 0.0
C1003 C 0.64626 0.77227 0.27761 0.0
C1004 C 0.63289 0.78573 0.26826 0.0
C1005 C 0.63412 0.80969 0.26906 0.0
C1006 C 0.67629 0.76933 0.2972 0.0
C1007 C 0.61636 0.77486 0.25795 0.0
H1008 H 0.66474 0.69801 0.26341 0.0
H1009 H 0.61432 0.70565 0.29618 0.0
H1010 H 0.66548 0.75478 0.25159 0.0
H1011 H 0.68709 0.75249 0.26492 0.0
H1012 H 0.68273 0.72928 0.25261 0.0
H1013 H 0.60072 0.74138 0.30351 0.0
H1014 H 0.62376 0.76174 0.30455 0.0
H1015 H 0.60307 0.7641 0.29064 0.0
H1016 H 0.67265 0.81523 0.2959 0.0
H1017 H 0.62329 0.82002 0.26225 0.0
H1018 H 0.6859 0.75616 0.29119 0.0
H1019 H 0.6655 0.76028 0.30507 0.0
H1020 H 0.68869 0.78024 0.30303 0.0
H1021 H 0.62515 0.76172 0.25146 0.0
H1022 H 0.60842 0.78761 0.25073 0.0
H1023 H 0.60259 0.76609 0.26394 0.0
C1024 C 0.46227 0.38434 0.52461 0.0
C1025 C 0.45084 0.39617 0.53543 0.0
C1026 C 0.48624 0.38436 0.52388 0.0
C1027 C 0.49899 0.39696 0.534 0.0
C1028 C 0.48746 0.40982 0.54451 0.0
C1029 C 0.46353 0.40903 0.54522 0.0
C1030 C 0.49793 0.37009 0.51267 0.0
C1031 C 0.50042 0.42393 0.55527 0.0
C1032 C 0.55954 0.37867 0.54305 0.0
C1033 C 0.57256 0.39377 0.53482 0.0
C1034 C 0.53558 0.37926 0.54265 0.0
C1035 C 0.52438 0.39572 0.53409 0.0
C1036 C 0.53744 0.41114 0.52584 0.0
C1037 C 0.5614 0.40979 0.52617 0.0
C1038 C 0.52224 0.36221 0.55138 0.0
C1039 C 0.52612 0.42928 0.51685 0.0
H1040 H 0.45252 0.37424 0.51709 0.0
H1041 H 0.45472 0.41832 0.55353 0.0
H1042 H 0.51005 0.38071 0.50649 0.0
H1043 H 0.50804 0.35635 0.51785 0.0
H1044 H 0.48557 0.36209 0.50522 0.0
H1045 H 0.48888 0.43451 0.56193 0.0
H1046 H 0.51043 0.41252 0.56233 0.0
H1047 H 0.51273 0.43537 0.54982 0.0
H1048 H 0.56811 0.36614 0.54966 0.0
H1049 H 0.57141 0.42161 0.51986 0.0
H1050 H 0.51036 0.3525 0.54444 0.0
H1051 H 0.51172 0.3713 0.55938 0.0
H1052 H 0.53353 0.34989 0.55699 0.0
H1053 H 0.51458 0.42121 0.50895 0.0
H1054 H 0.53873 0.44004 0.51111 0.0
H1055 H 0.51545 0.4405 0.52364 0.0
C1056 C 0.8972 0.30849 0.79676 0.0
C1057 C 0.88181 0.32197 0.78902 0.0
C1058 C 0.89717 0.2846 0.79543 0.0
C1059 C 0.88094 0.27393 0.78644 0.0
C1060 C 0.8652 0.28746 0.7787 0.0
C1061 C 0.86603 0.31136 0.77994 0.0
C1062 C 0.91454 0.27079 0.80364 0.0
C1063 C 0.84726 0.27668 0.76931 0.0
C1064 C 0.89289 0.21281 0.77488 0.0
C1065 C 0.88128 0.20039 0.78534 0.0
C1066 C 0.89269 0.23683 0.77496 0.0
C1067 C 0.88007 0.24857 0.78552 0.0
C1068 C 0.86743 0.23603 0.79568 0.0
C1069 C 0.86846 0.21209 0.79559 0.0
C1070 C 0.90676 0.24962 0.76414 0.0
C1071 C 0.85325 0.24789 0.80686 0.0
H1072 H 0.90956 0.31666 0.80368 0.0
H1073 H 0.85402 0.32174 0.77399 0.0
H1074 H 0.90572 0.25945 0.81131 0.0
H1075 H 0.92433 0.25967 0.79628 0.0
H1076 H 0.92675 0.28176 0.80957 0.0
H1077 H 0.83628 0.28961 0.76401 0.0
H1078 H 0.8555 0.26599 0.76105 0.0
H1079 H 0.83623 0.26523 0.77573 0.0
H1080 H 0.90295 0.20376 0.76702 0.0
H1081 H 0.85932 0.20248 0.80362 0.0
H1082 H 0.92038 0.25945 0.76962 0.0
H1083 H 0.89595 0.26211 0.75835 0.0
H1084 H 0.91488 0.23799 0.7563 0.0
H1085 H 0.86459 0.25744 0.81421 0.0
H1086 H 0.84289 0.23567 0.81318 0.0
H1087 H 0.84159 0.26049 0.80184 0.0
C1088 C 0.96088 0.38107 0.99293 0.0
C1089 C 0.94951 0.3941 0.98263 0.0
C1090 C 0.98486 0.38131 0.99386 0.0
C1091 C 0.99758 0.39538 0.98452 0.0
C1092 C 0.986 0.40971 0.97476 0.0
C1093 C 0.96212 0.40863 0.97379 0.0
C1094 C 0.99658 0.36541 0.00418 0.0
C1095 C 0.99888 0.42541 0.96488 0.0
C1096 C 0.06102 0.4059 0.99076 0.0
C1097 C 0.07077 0.39156 0.9805 0.0
C1098 C 0.03716 0.4072 0.99237 0.0
C1099 C 0.02289 0.39334 0.98377 0.0
C1100 C 0.03279 0.37821 0.97378 0.0
C1101 C 0.05657 0.37776 0.97213 0.0
C1102 C 0.0272 0.42393 1.00287 0.0
C1103 C 0.01824 0.36275 0.96464 0.0
H1104 H 0.95112 0.36973 0.99971 0.0
H1105 H 0.9533 0.41889 0.96591 0.0
H1106 H 1.00544 0.35168 0.9982 0.0
H1107 H 1.00975 0.3747 0.01038 0.0
H1108 H 0.98433 0.35737 0.01167 0.0
H1109 H 0.98733 0.43752 0.95928 0.0
H1110 H 0.01186 0.43537 0.97085 0.0
H1111 H 1.00807 0.41513 0.9568 0.0
H1112 H 0.072 0.41666 0.99719 0.0
H1113 H 0.06411 0.36646 0.9643 0.0
H1114 H 0.01526 0.4151 0.01017 0.0
H1115 H 0.01719 0.43712 0.9971 0.0
H1116 H 0.0406 0.43261 0.00926 0.0
H1117 H 1.00634 0.35272 0.97136 0.0
H1118 H 0.02867 0.3507 0.95824 0.0
H1119 H 1.00771 0.37319 0.95729 0.0
C1120 C 0.86373 0.80836 0.23913 0.0
C1121 C 0.88015 0.81824 0.23024 0.0
C1122 C 0.86124 0.78445 0.23978 0.0
C1123 C 0.87599 0.77033 0.23168 0.0
C1124 C 0.89329 0.78037 0.22324 0.0
C1125 C 0.8949 0.80419 0.22246 0.0
C1126 C 0.84226 0.77437 0.24861 0.0
C1127 C 0.9098 0.76596 0.21475 0.0
C1128 C 0.8848 0.70728 0.23924 0.0
C1129 C 0.87359 0.69728 0.22762 0.0
C1130 C 0.88488 0.73108 0.24111 0.0
C1131 C 0.87295 0.7451 0.23135 0.0
C1132 C 0.86036 0.73494 0.22015 0.0
C1133 C 0.86113 0.71116 0.21829 0.0
C1134 C 0.89896 0.74127 0.25297 0.0
C1135 C 0.84695 0.74926 0.20972 0.0
H1136 H 0.85222 0.81932 0.24504 0.0
H1137 H 0.90771 0.81191 0.21566 0.0
H1138 H 0.82966 0.7659 0.24154 0.0
H1139 H 0.84908 0.76108 0.25587 0.0
H1140 H 0.83324 0.78753 0.255 0.0
H1141 H 0.92342 0.77639 0.20971 0.0
H1142 H 0.91797 0.75297 0.22168 0.0
H1143 H 0.90044 0.75668 0.20628 0.0
H1144 H 0.89453 0.69659 0.24645 0.0
H1145 H 0.85222 0.70343 0.2094 0.0
H1146 H 0.8889 0.75415 0.25893 0.0
H1147 H 0.91399 0.75019 0.24841 0.0
H1148 H 0.90516 0.72807 0.26053 0.0
H1149 H 0.83636 0.76203 0.21542 0.0
H1150 H 0.83563 0.73868 0.2029 0.0
H1151 H 0.85891 0.75879 0.20277 0.0
C1152 C 0.4585 0.64994 0.46011 0.0
C1153 C 0.44601 0.63326 0.46743 0.0
C1154 C 0.48249 0.64992 0.46036 0.0
C1155 C 0.49423 0.63243 0.46777 0.0
C1156 C 0.48169 0.61533 0.47501 0.0
C1157 C 0.45771 0.61614 0.47491 0.0
C1158 C 0.49525 0.66875 0.45279 0.0
C1159 C 0.4936 0.59607 0.48271 0.0
C1160 C 0.55558 0.62239 0.45627 0.0
C1161 C 0.56783 0.63337 0.4671 0.0
C1162 C 0.53163 0.62127 0.45662 0.0
C1163 C 0.51965 0.63199 0.46785 0.0
C1164 C 0.53196 0.64292 0.47888 0.0
C1165 C 0.55595 0.6432 0.47847 0.0
C1166 C 0.51914 0.6089 0.44487 0.0
C1167 C 0.51979 0.65498 0.49087 0.0
H1168 H 0.44951 0.66331 0.45442 0.0
H1169 H 0.44809 0.60312 0.4805 0.0
H1170 H 0.50678 0.67766 0.46035 0.0
H1171 H 0.5061 0.6614 0.4443 0.0
H1172 H 0.48356 0.68154 0.44796 0.0
H1173 H 0.48135 0.58384 0.48754 0.0
H1174 H 0.50479 0.5866 0.47523 0.0
H1175 H 0.50471 0.60303 0.49122 0.0
H1176 H 0.56474 0.61461 0.44752 0.0
H1177 H 0.56539 0.65187 0.4868 0.0
H1178 H 0.5087 0.62122 0.43869 0.0
H1179 H 0.50727 0.59607 0.44942 0.0
H1180 H 0.53102 0.60009 0.43748 0.0
H1181 H 0.50902 0.66895 0.48652 0.0
H1182 H 0.53187 0.66238 0.49873 0.0
H1183 H 0.50824 0.64294 0.49644 0.0
C1184 C 0.6318 0.20977 0.73426 0.0
C1185 C 0.64203 0.19758 0.72315 0.0
C1186 C 0.63063 0.23375 0.73391 0.0
C1187 C 0.64059 0.24575 0.72241 0.0
C1188 C 0.65163 0.23349 0.71142 0.0
C1189 C 0.65187 0.20953 0.71181 0.0
C1190 C 0.61819 0.24619 0.74563 0.0
C1191 C 0.66306 0.24568 0.69921 0.0
C1192 C 0.62013 0.30549 0.71298 0.0
C1193 C 0.63645 0.31917 0.7198 0.0
C1194 C 0.621 0.28157 0.71401 0.0
C1195 C 0.63903 0.2711 0.72167 0.0
C1196 C 0.65575 0.28485 0.72841 0.0
C1197 C 0.65404 0.30875 0.72757 0.0
C1198 C 0.60253 0.26751 0.70699 0.0
C1199 C 0.6756 0.27433 0.73631 0.0
H1200 H 0.62401 0.20051 0.74297 0.0
H1201 H 0.65995 0.2001 0.70327 0.0
H1202 H 0.6298 0.25858 0.75087 0.0
H1203 H 0.60375 0.2561 0.74109 0.0
H1204 H 0.61138 0.23434 0.75381 0.0
H1205 H 0.67217 0.23369 0.69203 0.0
H1206 H 0.65012 0.25515 0.69292 0.0
H1207 H 0.67549 0.2584 0.7033 0.0
H1208 H 0.60639 0.31353 0.70708 0.0
H1209 H 0.66677 0.31931 0.73278 0.0
H1210 H 0.59435 0.25614 0.71493 0.0
H1211 H 0.6101 0.25641 0.69869 0.0
H1212 H 0.58911 0.27831 0.70201 0.0
H1213 H 0.66925 0.26357 0.74515 0.0
H1214 H 0.68738 0.28742 0.74072 0.0
H1215 H 0.68541 0.26301 0.72908 0.0
C1216 C 0.35539 0.30698 0.72429 0.0
C1217 C 0.37048 0.31986 0.73263 0.0
C1218 C 0.35594 0.28303 0.72452 0.0
C1219 C 0.37242 0.27173 0.73301 0.0
C1220 C 0.38694 0.28465 0.742 0.0
C1221 C 0.38559 0.30862 0.74183 0.0
C1222 C 0.33974 0.26988 0.71507 0.0
C1223 C 0.405 0.27326 0.75101 0.0
C1224 C 0.36797 0.20732 0.73792 0.0
C1225 C 0.38185 0.19938 0.72684 0.0
C1226 C 0.3647 0.23086 0.74012 0.0
C1227 C 0.37607 0.24673 0.73125 0.0
C1228 C 0.39054 0.23874 0.72027 0.0
C1229 C 0.393 0.21517 0.71808 0.0
C1230 C 0.34871 0.23874 0.7517 0.0
C1231 C 0.40335 0.25511 0.71075 0.0
H1232 H 0.34356 0.31567 0.71725 0.0
H1233 H 0.3974 0.31857 0.7482 0.0
H1234 H 0.34936 0.26229 0.70609 0.0
H1235 H 0.33173 0.25563 0.72103 0.0
H1236 H 0.32602 0.28095 0.71067 0.0
H1237 H 0.41323 0.28542 0.7585 0.0
H1238 H 0.39756 0.25894 0.75718 0.0
H1239 H 0.4184 0.26594 0.74402 0.0
H1240 H 0.35922 0.19512 0.74466 0.0
H1241 H 0.40392 0.20909 0.70959 0.0
H1242 H 0.33438 0.24856 0.74696 0.0
H1243 H 0.35777 0.25038 0.7591 0.0
H1244 H 0.34154 0.22424 0.75786 0.0
H1245 H 0.39106 0.26545 0.70449 0.0
H1246 H 0.41495 0.24612 0.70328 0.0
H1247 H 0.41362 0.26713 0.71726 0.0
C1248 C 0.13446 0.71512 0.23862 0.0
C1249 C 0.14906 0.70483 0.22871 0.0
C1250 C 0.13335 0.73903 0.23987 0.0
C1251 C 0.14754 0.75283 0.23122 0.0
C1252 C 0.16345 0.7424 0.22194 0.0
C1253 C 0.16382 0.71853 0.22067 0.0
C1254 C 0.11593 0.7495 0.24973 0.0
C1255 C 0.17929 0.75648 0.2128 0.0
C1256 C 0.12773 0.81148 0.21927 0.0
C1257 C 0.14008 0.82594 0.22832 0.0
C1258 C 0.12943 0.78765 0.22047 0.0
C1259 C 0.14427 0.77804 0.23076 0.0
C1260 C 0.15663 0.79254 0.24003 0.0
C1261 C 0.1542 0.81636 0.2388 0.0
C1262 C 0.11562 0.77277 0.21055 0.0
C1263 C 0.17295 0.78293 0.25093 0.0
H1264 H 0.12292 0.70456 0.24478 0.0
H1265 H 0.17527 0.71059 0.21309 0.0
H1266 H 0.1239 0.76293 0.2564 0.0
H1267 H 0.10228 0.75781 0.24336 0.0
H1268 H 0.10791 0.73657 0.25677 0.0
H1269 H 0.19246 0.74582 0.20749 0.0
H1270 H 0.16924 0.76545 0.2045 0.0
H1271 H 0.18799 0.76973 0.21927 0.0
H1272 H 0.11663 0.8188 0.21124 0.0
H1273 H 0.16388 0.82749 0.24577 0.0
H1274 H 0.10553 0.76016 0.21672 0.0
H1275 H 0.12725 0.76301 0.20351 0.0
H1276 H 0.10373 0.78288 0.20382 0.0
H1277 H 0.16407 0.77034 0.25778 0.0
H1278 H 0.18047 0.79645 0.25777 0.0
H1279 H 0.18702 0.77374 0.24548 0.0
C1280 C 0.12811 0.21144 0.79241 0.0
C1281 C 0.14214 0.19769 0.78391 0.0
C1282 C 0.12884 0.23536 0.79137 0.0
C1283 C 0.14435 0.24579 0.78182 0.0
C1284 C 0.15863 0.23199 0.77324 0.0
C1285 C 0.15717 0.20809 0.77427 0.0
C1286 C 0.11303 0.24947 0.80052 0.0
C1287 C 0.17575 0.24249 0.76319 0.0
C1288 C 0.13264 0.30778 0.7721 0.0
C1289 C 0.14573 0.31933 0.78229 0.0
C1290 C 0.13243 0.28377 0.77156 0.0
C1291 C 0.14605 0.27114 0.78122 0.0
C1292 C 0.16029 0.28282 0.79098 0.0
C1293 C 0.15974 0.30676 0.79151 0.0
C1294 C 0.11674 0.27193 0.76116 0.0
C1295 C 0.17551 0.27001 0.80122 0.0
H1296 H 0.11633 0.20349 0.79978 0.0
H1297 H 0.16815 0.19753 0.76773 0.0
H1298 H 0.12318 0.26017 0.80792 0.0
H1299 H 0.10281 0.26123 0.79378 0.0
H1300 H 0.10115 0.23872 0.80684 0.0
H1301 H 0.18542 0.22938 0.75713 0.0
H1302 H 0.16694 0.25393 0.75555 0.0
H1303 H 0.18808 0.25313 0.76923 0.0
H1304 H 0.12166 0.31746 0.76503 0.0
H1305 H 0.17002 0.31567 0.79934 0.0
H1306 H 0.10325 0.26259 0.76706 0.0
H1307 H 0.12634 0.25913 0.75486 0.0
H1308 H 0.10839 0.28415 0.75376 0.0
H1309 H 0.16485 0.26062 0.80901 0.0
H1310 H 0.18717 0.2816 0.80713 0.0
H1311 H 0.18593 0.25717 0.79545 0.0
C1312 C 0.36482 0.71569 0.28829 0.0
C1313 C 0.37784 0.70263 0.27881 0.0
C1314 C 0.36497 0.73963 0.28767 0.0
C1315 C 0.37904 0.75076 0.2776 0.0
C1316 C 0.39173 0.73764 0.26772 0.0
C1317 C 0.39072 0.71366 0.26832 0.0
C1318 C 0.3507 0.75299 0.29814 0.0
C1319 C 0.40731 0.74888 0.25704 0.0
C1320 C 0.36971 0.81431 0.27134 0.0
C1321 C 0.38514 0.8239 0.28106 0.0
C1322 C 0.36764 0.79049 0.26997 0.0
C1323 C 0.38179 0.77602 0.27822 0.0
C1324 C 0.39797 0.78569 0.28767 0.0
C1325 C 0.39921 0.8095 0.28913 0.0
C1326 C 0.3498 0.78081 0.26006 0.0
C1327 C 0.41375 0.77086 0.29642 0.0
H1328 H 0.3547 0.70715 0.29634 0.0
H1329 H 0.40093 0.70356 0.26106 0.0
H1330 H 0.36204 0.76192 0.30578 0.0
H1331 H 0.34055 0.76624 0.29254 0.0
H1332 H 0.33885 0.74184 0.3042 0.0
H1333 H 0.4147 0.73638 0.24944 0.0
H1334 H 0.39795 0.76216 0.25097 0.0
H1335 H 0.42153 0.75756 0.26269 0.0
H1336 H 0.35871 0.82544 0.26516 0.0
H1337 H 0.41131 0.81689 0.29655 0.0
H1338 H 0.33702 0.77098 0.26625 0.0
H1339 H 0.35778 0.76877 0.25244 0.0
H1340 H 0.34075 0.79435 0.25399 0.0
H1341 H 0.40365 0.76066 0.3041 0.0
H1342 H 0.42653 0.78107 0.30242 0.0
H1343 H 0.42296 0.75864 0.28946 0.0
C1344 C 0.46049 0.14016 0.52336 0.0
C1345 C 0.44894 0.12843 0.53414 0.0
C1346 C 0.48447 0.14126 0.52323 0.0
C1347 C 0.4971 0.12971 0.53388 0.0
C1348 C 0.48547 0.11692 0.54439 0.0
C1349 C 0.4615 0.11677 0.54454 0.0
C1350 C 0.49622 0.15561 0.5121 0.0
C1351 C 0.49832 0.10379 0.55566 0.0
C1352 C 0.56058 0.11969 0.52784 0.0
C1353 C 0.57026 0.1363 0.53672 0.0
C1354 C 0.53675 0.11717 0.52687 0.0
C1355 C 0.52237 0.13215 0.5346 0.0
C1356 C 0.53213 0.14931 0.54331 0.0
C1357 C 0.55597 0.15091 0.54445 0.0
C1358 C 0.52697 0.09823 0.51784 0.0
C1359 C 0.5174 0.16602 0.55141 0.0
H1360 H 0.45075 0.14933 0.51538 0.0
H1361 H 0.45254 0.10752 0.55281 0.0
H1362 H 0.50543 0.16993 0.5173 0.0
H1363 H 0.50913 0.14529 0.50634 0.0
H1364 H 0.48399 0.16282 0.50425 0.0
H1365 H 0.48683 0.0929 0.56216 0.0
H1366 H 0.51153 0.09278 0.55071 0.0
H1367 H 0.50726 0.11589 0.56284 0.0
H1368 H 0.57166 0.10828 0.52193 0.0
H1369 H 0.56347 0.16391 0.55121 0.0
H1370 H 0.51558 0.10544 0.50955 0.0
H1371 H 0.51641 0.08671 0.52451 0.0
H1372 H 0.54049 0.08794 0.51258 0.0
H1373 H 0.50544 0.17476 0.54405 0.0
H1374 H 0.52769 0.17917 0.55703 0.0
H1375 H 0.50693 0.15676 0.55935 0.0
C1376 C 0.9693 0.87808 0.0432 0.0
C1377 C 0.95496 0.89217 0.03512 0.0
C1378 C 0.99308 0.87926 0.0418 0.0
C1379 C 1.0028 0.89551 0.03245 0.0
C1380 C 0.98838 0.90985 0.02426 0.0
C1381 C 0.96452 0.90772 0.02551 0.0
C1382 C 1.00781 0.86318 0.05041 0.0
C1383 C 0.99815 0.92783 0.01452 0.0
C1384 C 0.06363 0.91024 0.0427 0.0
C1385 C 0.07618 0.89706 0.03304 0.0
C1386 C 0.03971 0.91109 0.042 0.0
C1387 C 0.02807 0.89777 0.03172 0.0
C1388 C 0.04072 0.88487 0.02172 0.0
C1389 C 0.0647 0.88498 0.02236 0.0
C1390 C 0.02686 0.9256 0.05258 0.0
C1391 C 0.02895 0.86991 0.01088 0.0
H1392 H 0.96185 0.86586 0.05051 0.0
H1393 H 0.95337 0.91869 0.01933 0.0
H1394 H 0.01983 0.8539 0.04336 0.0
H1395 H 0.01822 0.87304 0.05812 0.0
H1396 H 0.99752 0.85044 0.05638 0.0
H1397 H 0.98463 0.93731 0.00868 0.0
H1398 H 1.00837 0.94022 0.0208 0.0
H1399 H 1.00986 0.91988 0.0067 0.0
H1400 H 0.07255 0.91979 0.05086 0.0
H1401 H 0.07444 0.87469 0.01494 0.0
H1402 H 0.01783 0.91442 0.06025 0.0
H1403 H 0.01375 0.93609 0.0471 0.0
H1404 H 0.03841 0.93714 0.05861 0.0
H1405 H 0.01989 0.85582 0.0164 0.0
H1406 H 0.04118 0.86234 1.00319 0.0
H1407 H 0.01594 0.87982 0.00493 0.0
C1408 C 0.46096 0.90689 0.485 0.0
C1409 C 0.45171 0.89038 0.47588 0.0
C1410 C 0.48473 0.91015 0.48585 0.0
C1411 C 0.49946 0.89605 0.47774 0.0
C1412 C 0.49012 0.87882 0.46891 0.0
C1413 C 0.46634 0.87647 0.46791 0.0
C1414 C 0.49405 0.92912 0.49505 0.0
C1415 C 0.50522 0.86296 0.46042 0.0
C1416 C 0.55926 0.9133 0.4666 0.0
C1417 C 0.5727 0.90134 0.47642 0.0
C1418 C 0.53532 0.91287 0.46746 0.0
C1419 C 0.52463 0.8995 0.47809 0.0
C1420 C 0.53817 0.88783 0.48824 0.0
C1421 C 0.56208 0.88919 0.4874 0.0
C1422 C 0.52148 0.92609 0.45669 0.0
C1423 C 0.52745 0.87288 0.49947 0.0
H1424 H 0.44959 0.91777 0.49107 0.0
H1425 H 0.45915 0.86357 0.46094 0.0
H1426 H 0.50647 0.92218 0.50284 0.0
H1427 H 0.50338 0.94162 0.48835 0.0
H1428 H 0.48035 0.93828 0.5009 0.0
H1429 H 0.49529 0.84945 0.45487 0.0
H1430 H 0.51485 0.87287 0.45236 0.0
H1431 H 0.51794 0.85464 0.46748 0.0
H1432 H 0.56747 0.92287 0.45817 0.0
H1433 H 0.57247 0.87978 0.49494 0.0
H1434 H 0.50805 0.93628 0.46208 0.0
H1435 H 0.51274 0.91403 0.4494 0.0
H1436 H 0.53226 0.93778 0.45026 0.0
H1437 H 0.51421 0.88248 0.5054 0.0
H1438 H 0.54026 0.86623 0.50715 0.0
H1439 H 0.51884 0.85814 0.49432 0.0
C1440 C 0.05851 0.11579 0.96476 0.0
C1441 C 0.07114 0.1285 0.97465 0.0
C1442 C 0.03457 0.11533 0.96524 0.0
C1443 C 0.02296 0.12841 0.97563 0.0
C1444 C 0.03565 0.14086 0.98585 0.0
C1445 C 0.05966 0.14051 0.98535 0.0
C1446 C 0.02168 0.10134 0.95439 0.0
C1447 C 0.02389 0.15536 0.99691 0.0
C1448 C 0.96288 0.14693 0.96557 0.0
C1449 C 0.94946 0.13187 0.97358 0.0
C1450 C 0.98682 0.14637 0.96645 0.0
C1451 C 0.99759 0.12995 0.97526 0.0
C1452 C 0.98412 0.11463 0.98332 0.0
C1453 C 0.96019 0.11596 0.98252 0.0
C1454 C 1.00059 0.16332 0.95791 0.0
C1455 C 0.99497 0.09652 0.99255 0.0
H1456 H 0.06738 0.10634 0.95654 0.0
H1457 H 0.0694 0.1505 0.99293 0.0
H1458 H 1.00908 0.09009 0.95974 0.0
H1459 H 0.01201 0.11284 0.94721 0.0
H1460 H 0.03325 0.09056 0.94786 0.0
H1461 H 0.03617 0.16316 0.00449 0.0
H1462 H 0.01418 0.16925 0.9916 0.0
H1463 H 0.0114 0.14496 1.00296 0.0
H1464 H 0.95465 0.15939 0.95875 0.0
H1465 H 0.94986 0.10419 0.98866 0.0
H1466 H 1.0112 0.15414 0.95 0.0
H1467 H 0.01241 0.17284 0.96499 0.0
H1468 H 0.9896 0.1758 0.95221 0.0
H1469 H 1.00563 0.08502 0.98593 0.0
H1470 H 0.98208 0.08605 0.99825 0.0
H1471 H 1.00646 0.10456 1.00049 0.0
C1472 C 0.15458 0.47263 0.98647 0.0
C1473 C 0.1657 0.45525 0.99405 0.0
C1474 C 0.15614 0.49562 0.99076 0.0
C1475 C 0.16997 0.5016 1.00257 0.0
C1476 C 0.18238 0.48422 0.00971 0.0
C1477 C 0.17965 0.4612 0.00559 0.0
C1478 C 0.14193 0.51334 0.98312 0.0
C1479 C 0.1981 0.48985 0.02193 0.0
C1480 C 0.18207 0.56561 0.00588 0.0
C1481 C 0.16652 0.57216 0.01644 0.0
C1482 C 0.1844 0.5425 1.00185 0.0
C1483 C 0.17001 0.52571 0.008 0.0
C1484 C 0.15449 0.53228 0.01882 0.0
C1485 C 0.1533 0.5553 0.0231 0.0
C1486 C 0.20188 0.53617 0.99076 0.0
C1487 C 0.13822 0.51524 0.02535 0.0
H1488 H 0.14349 0.46807 0.97769 0.0
H1489 H 0.18829 0.44782 0.01148 0.0
H1490 H 0.12958 0.52112 0.99065 0.0
H1491 H 0.15297 0.52728 0.97909 0.0
H1492 H 0.13225 0.50598 0.97405 0.0
H1493 H 0.20898 0.47506 0.02497 0.0
H1494 H 0.20931 0.50447 0.01914 0.0
H1495 H 0.18788 0.49499 0.03131 0.0
H1496 H 0.19232 0.57859 1.00071 0.0
H1497 H 0.14098 0.56033 0.0311 0.0
H1498 H 0.19314 0.53143 0.98074 0.0
H1499 H 0.21191 0.52109 0.99428 0.0
H1500 H 0.21384 0.55046 0.98851 0.0
H1501 H 0.12704 0.50793 0.01697 0.0
H1502 H 0.12724 0.52305 0.03365 0.0
H1503 H 0.14785 0.50087 0.03016 0.0
C1504 C 0.81448 0.92768 0.25498 0.0
C1505 C 0.82055 0.91331 0.24368 0.0
C1506 C 0.79146 0.93021 0.25912 0.0
C1507 C 0.77425 0.91716 0.25227 0.0
C1508 C 0.78034 0.9029 0.2407 0.0
C1509 C 0.80331 0.90154 0.23637 0.0
C1510 C 0.78567 0.9464 0.27105 0.0
C1511 C 0.76282 0.88801 0.2334 0.0
C1512 C 0.72112 0.90057 0.27333 0.0
C1513 C 0.70396 0.91318 0.2665 0.0
C1514 C 0.74405 0.90192 0.26892 0.0
C1515 C 0.75021 0.91702 0.25779 0.0
C1516 C 0.73309 0.93081 0.25141 0.0
C1517 C 0.71009 0.9283 0.2556 0.0
C1518 C 0.76145 0.88626 0.27569 0.0
C1519 C 0.73898 0.94787 0.23997 0.0
H1520 H 0.82777 0.93681 0.26067 0.0
H1521 H 0.80798 0.89011 0.22778 0.0
H1522 H 0.7708 0.9572 0.26811 0.0
H1523 H 0.78085 0.93654 0.28064 0.0
H1524 H 0.80027 0.9577 0.27382 0.0
H1525 H 0.77025 0.87805 0.22448 0.0
H1526 H 0.75537 0.87588 0.24118 0.0
H1527 H 0.74862 0.8986 0.22922 0.0
H1528 H 0.7164 0.8886 0.28161 0.0
H1529 H 0.69687 0.93809 0.25029 0.0
H1530 H 0.77567 0.89637 0.28029 0.0
H1531 H 0.76891 0.87486 0.26749 0.0
H1532 H 0.75393 0.87551 0.28421 0.0
H1533 H 0.75388 0.95835 0.24325 0.0
H1534 H 0.72443 0.95943 0.23753 0.0
H1535 H 0.7438 0.93873 0.23011 0.0
C1536 C 0.36814 0.45693 0.50256 0.0
C1537 C 0.35806 0.44865 0.51506 0.0
C1538 C 0.36655 0.48012 0.49874 0.0
C1539 C 0.35391 0.49543 0.50736 0.0
C1540 C 0.34261 0.4869 0.51958 0.0
C1541 C 0.34519 0.46373 0.52344 0.0
C1542 C 0.37947 0.48845 0.48587 0.0
C1543 C 0.32829 0.50237 0.5288 0.0
C1544 C 0.37247 0.55789 0.50652 0.0
C1545 C 0.35802 0.56721 0.49612 0.0
C1546 C 0.37102 0.53473 0.51042 0.0
C1547 C 0.35417 0.52055 0.50414 0.0
C1548 C 0.33874 0.53016 0.49415 0.0
C1549 C 0.34113 0.55325 0.49005 0.0
C1550 C 0.3883 0.5252 0.52078 0.0
C1551 C 0.32001 0.51594 0.48757 0.0
H1552 H 0.37833 0.44548 0.4961 0.0
H1553 H 0.3373 0.45746 0.53309 0.0
H1554 H 0.36774 0.49734 0.47845 0.0
H1555 H 0.39265 0.50101 0.4892 0.0
H1556 H 0.38804 0.47431 0.48007 0.0
H1557 H 0.31821 0.49263 0.53674 0.0
H1558 H 0.33951 0.51455 0.53454 0.0
H1559 H 0.3164 0.5126 0.52216 0.0
H1560 H 0.38573 0.56847 0.51115 0.0
H1561 H 0.32986 0.56034 0.48204 0.0
H1562 H 0.39853 0.51165 0.51552 0.0
H1563 H 0.37949 0.51722 0.52993 0.0
H1564 H 0.40015 0.53852 0.52485 0.0
H1565 H 0.32758 0.50301 0.48036 0.0
H1566 H 0.30776 0.52651 0.48139 0.0
H1567 H 0.3105 0.50656 0.49593 0.0
C1568 C 0.81777 0.09432 0.756 0.0
C1569 C 0.82404 0.10897 0.76712 0.0
C1570 C 0.79471 0.09191 0.75191 0.0
C1571 C 0.77767 0.10541 0.75858 0.0
C1572 C 0.784 0.1201 0.7699 0.0
C1573 C 0.807 0.12129 0.77423 0.0
C1574 C 0.78866 0.07525 0.74026 0.0
C1575 C 0.7667 0.13551 0.77696 0.0
C1576 C 0.72425 0.12093 0.73737 0.0
C1577 C 0.70722 0.10871 0.74453 0.0
C1578 C 0.74723 0.11986 0.74175 0.0
C1579 C 0.75354 0.10538 0.75319 0.0
C1580 C 0.73649 0.09201 0.75993 0.0
C1581 C 0.71344 0.09431 0.75578 0.0
C1582 C 0.76454 0.13515 0.73461 0.0
C1583 C 0.74253 0.07555 0.77169 0.0
H1584 H 0.83094 0.08479 0.75048 0.0
H1585 H 0.81186 0.13291 0.78268 0.0
H1586 H 0.77383 0.06462 0.74348 0.0
H1587 H 0.78364 0.08472 0.73055 0.0
H1588 H 0.80318 0.06381 0.73759 0.0
H1589 H 0.77437 0.14598 0.78557 0.0
H1590 H 0.75908 0.14716 0.76895 0.0
H1591 H 0.75258 0.12524 0.78151 0.0
H1592 H 0.7194 0.13236 0.72882 0.0
H1593 H 0.70027 0.08485 0.76133 0.0
H1594 H 0.77862 0.12478 0.73009 0.0
H1595 H 0.77221 0.14688 0.74256 0.0
H1596 H 0.75687 0.14554 0.72596 0.0
H1597 H 0.75731 0.06481 0.76854 0.0
H1598 H 0.72798 0.06421 0.77447 0.0
H1599 H 0.7476 0.08519 0.78133 0.0
C1600 C 0.8422 0.55997 0.00481 0.0
C1601 C 0.85689 0.56631 0.0159 0.0
C1602 C 0.83936 0.53684 1.00101 0.0
C1603 C 0.85243 0.51977 0.00798 0.0
C1604 C 0.86701 0.52614 0.01936 0.0
C1605 C 0.86866 0.54924 0.02336 0.0
C1606 C 0.82284 0.53076 0.98929 0.0
C1607 C 0.88192 0.50875 0.02676 0.0
C1608 C 0.8411 0.45557 0.0057 0.0
C1609 C 0.85603 0.44898 0.99481 0.0
C1610 C 0.83863 0.47875 0.0095 0.0
C1611 C 0.8523 0.49556 1.00277 0.0
C1612 C 0.86715 0.48893 0.99162 0.0
C1613 C 0.86844 0.46581 0.98758 0.0
C1614 C 0.82182 0.48514 0.02097 0.0
C1615 C 0.88269 0.50602 0.98447 0.0
H1616 H 0.83307 0.57314 0.99901 0.0
H1617 H 0.88032 0.55412 0.03179 0.0
H1618 H 0.83244 0.52562 0.97966 0.0
H1619 H 0.81207 0.51601 0.99249 0.0
H1620 H 0.81152 0.54533 0.98648 0.0
H1621 H 0.89216 0.51642 0.03549 0.0
H1622 H 0.87132 0.49481 0.03123 0.0
H1623 H 0.89379 0.50089 0.01898 0.0
H1624 H 0.83147 0.44258 0.0113 0.0
H1625 H 0.88027 0.46072 0.97931 0.0
H1626 H 0.81141 0.50006 0.0176 0.0
H1627 H 0.83116 0.49015 0.03073 0.0
H1628 H 0.81017 0.47078 0.02363 0.0
H1629 H 0.87252 0.52012 0.97979 0.0
H1630 H 0.89317 0.49814 0.97594 0.0
H1631 H 0.89435 0.5137 0.99246 0.0
C1632 C 0.21928 0.08922 0.76792 0.0
C1633 C 0.20578 0.10526 0.76069 0.0
C1634 C 0.24258 0.08628 0.76453 0.0
C1635 C 0.25286 0.10039 0.75409 0.0
C1636 C 0.23913 0.11633 0.74661 0.0
C1637 C 0.21576 0.11825 0.74982 0.0
C1638 C 0.25633 0.06848 0.77238 0.0
C1639 C 0.24937 0.13228 0.73572 0.0
C1640 C 0.31602 0.11539 0.7571 0.0
C1641 C 0.32541 0.10408 0.74533 0.0
C1642 C 0.29259 0.11388 0.76024 0.0
C1643 C 0.27819 0.10002 0.75173 0.0
C1644 C 0.28785 0.08745 0.74033 0.0
C1645 C 0.31124 0.09001 0.73708 0.0
C1646 C 0.28305 0.12819 0.7722 0.0
C1647 C 0.27334 0.07181 0.73132 0.0
H1648 H 0.21166 0.07907 0.7763 0.0
H1649 H 0.20551 0.13088 0.74428 0.0
H1650 H 0.26657 0.05818 0.76481 0.0
H1651 H 0.26847 0.07697 0.77973 0.0
H1652 H 0.24529 0.05681 0.77866 0.0
H1653 H 0.23632 0.14342 0.73066 0.0
H1654 H 0.26241 0.1433 0.74087 0.0
H1655 H 0.25814 0.12238 0.7273 0.0
H1656 H 0.32678 0.12653 0.76343 0.0
H1657 H 0.31839 0.08118 0.72799 0.0
H1658 H 0.27374 0.11725 0.77986 0.0
H1659 H 0.27062 0.14073 0.76788 0.0
H1660 H 0.29659 0.13767 0.77802 0.0
H1661 H 0.26255 0.06076 0.73815 0.0
H1662 H 0.28388 0.06078 0.7243 0.0
H1663 H 0.2617 0.08211 0.72458 0.0
C1664 C 0.64848 0.46775 0.49729 0.0
C1665 C 0.66193 0.45864 0.50827 0.0
C1666 C 0.64969 0.49101 0.49363 0.0
C1667 C 0.66529 0.50554 0.50078 0.0
C1668 C 0.67982 0.49617 0.51136 0.0
C1669 C 0.67766 0.47294 0.51517 0.0
C1670 C 0.63337 0.50026 0.48259 0.0
C1671 C 0.69726 0.5108 0.5189 0.0
C1672 C 0.6744 0.56328 0.48262 0.0
C1673 C 0.66003 0.57758 0.49058 0.0
C1674 C 0.67737 0.54009 0.4863 0.0
C1675 C 0.665 0.53074 0.49788 0.0
C1676 C 0.65081 0.54527 0.50608 0.0
C1677 C 0.64882 0.56851 0.50247 0.0
C1678 C 0.6933 0.52546 0.47759 0.0
C1679 C 0.63676 0.53604 0.51823 0.0
H1680 H 0.63609 0.4569 0.492 0.0
H1681 H 0.68816 0.46602 0.52363 0.0
H1682 H 0.622 0.51321 0.48751 0.0
H1683 H 0.64296 0.50891 0.47399 0.0
H1684 H 0.62259 0.48666 0.47781 0.0
H1685 H 0.70921 0.50044 0.52543 0.0
H1686 H 0.70729 0.52085 0.51109 0.0
H1687 H 0.68845 0.52315 0.52595 0.0
H1688 H 0.68319 0.57018 0.47345 0.0
H1689 H 0.6375 0.57937 0.5086 0.0
H1690 H 0.68325 0.51305 0.47124 0.0
H1691 H 0.70478 0.51547 0.48463 0.0
H1692 H 0.70389 0.53582 0.47022 0.0
H1693 H 0.62452 0.52308 0.51418 0.0
H1694 H 0.62697 0.54965 0.52376 0.0
H1695 H 0.64794 0.52739 0.52607 0.0
C1696 C 0.21046 0.93414 0.25515 0.0
C1697 C 0.20404 0.91954 0.24404 0.0
C1698 C 0.23357 0.9365 0.25915 0.0
C1699 C 0.25051 0.92296 0.2524 0.0
C1700 C 0.24403 0.90837 0.24106 0.0
C1701 C 0.22099 0.90725 0.23683 0.0
C1702 C 0.23978 0.95309 0.2708 0.0
C1703 C 0.26121 0.89291 0.23393 0.0
C1704 C 0.31491 0.93316 0.25501 0.0
C1705 C 0.32106 0.91848 0.26614 0.0
C1706 C 0.29184 0.93594 0.25101 0.0
C1707 C 0.27466 0.92275 0.25777 0.0
C1708 C 0.28087 0.90807 0.26913 0.0
C1709 C 0.30389 0.90653 0.27337 0.0
C1710 C 0.28593 0.95259 0.23933 0.0
C1711 C 0.26341 0.89298 0.27629 0.0
H1712 H 0.19736 0.94363 0.26076 0.0
H1713 H 0.21601 0.89564 0.2284 0.0
H1714 H 0.24459 0.94355 0.28052 0.0
H1715 H 0.25477 0.96352 0.26762 0.0
H1716 H 0.22539 0.96472 0.27343 0.0
H1717 H 0.25344 0.88256 0.22529 0.0
H1718 H 0.27538 0.90313 0.22939 0.0
H1719 H 0.26878 0.88114 0.24189 0.0
H1720 H 0.32817 0.9424 0.24939 0.0
H1721 H 0.30866 0.89486 0.28181 0.0
H1722 H 0.27115 0.96332 0.2425 0.0
H1723 H 0.28093 0.9431 0.22962 0.0
H1724 H 0.30054 0.96393 0.23667 0.0
H1725 H 0.24944 0.90349 0.28081 0.0
H1726 H 0.27099 0.88251 0.28494 0.0
H1727 H 0.25562 0.88132 0.26835 0.0
C1728 C 0.67978 0.06408 0.5203 0.0
C1729 C 0.66371 0.07772 0.51318 0.0
C1730 C 0.68272 0.04084 0.51671 0.0
C1731 C 0.66856 0.03076 0.5062 0.0
C1732 C 0.65257 0.04461 0.49885 0.0
C1733 C 0.65067 0.06793 0.50225 0.0
C1734 C 0.70059 0.02697 0.52442 0.0
C1735 C 0.63657 0.03457 0.48791 0.0
C1736 C 0.67908 0.97287 0.48853 0.0
C1737 C 0.66516 0.9584 0.49666 0.0
C1738 C 0.68154 0.99619 0.49204 0.0
C1739 C 0.66902 1.00548 0.50357 0.0
C1740 C 0.65529 0.99078 0.51194 0.0
C1741 C 0.65388 0.96742 0.50855 0.0
C1742 C 0.69707 1.011 0.48317 0.0
C1743 C 0.64102 0.99993 0.52403 0.0
H1744 H 0.68996 0.07155 0.52873 0.0
H1745 H 0.63801 0.07827 0.49681 0.0
H1746 H 0.69216 0.01465 0.53166 0.0
H1747 H 0.71087 0.01692 0.51673 0.0
H1748 H 0.71227 0.0379 0.53078 0.0
H1749 H 0.6253 0.04769 0.48302 0.0
H1750 H 0.64642 0.02607 0.47937 0.0
H1751 H 0.62566 0.02134 0.49295 0.0
H1752 H 0.6879 0.966 0.47936 0.0
H1753 H 0.64288 0.95642 0.51478 0.0
H1754 H 0.70816 0.02161 0.49011 0.0
H1755 H 0.68668 0.02282 0.4766 0.0
H1756 H 0.70806 1.0007 0.47599 0.0
H1757 H 0.65197 1.00908 0.53178 0.0
H1758 H 0.63163 0.9862 0.5297 0.0
H1759 H 0.62841 0.01244 0.51987 0.0
C1760 C 0.20577 0.42686 0.75709 0.0
C1761 C 0.19973 0.41225 0.76827 0.0
C1762 C 0.22876 0.4294 0.7529 0.0
C1763 C 0.246 0.41613 0.75958 0.0
C1764 C 0.23994 0.40157 0.77101 0.0
C1765 C 0.21699 0.40019 0.77539 0.0
C1766 C 0.23452 0.4459 0.74113 0.0
C1767 C 0.25747 0.38645 0.77811 0.0
C1768 C 0.29921 0.40019 0.73837 0.0
C1769 C 0.31635 0.41262 0.74535 0.0
C1770 C 0.27626 0.40141 0.74277 0.0
C1771 C 0.27005 0.41619 0.75406 0.0
C1772 C 0.28715 0.42981 0.76059 0.0
C1773 C 0.31016 0.42744 0.7564 0.0
C1774 C 0.2589 0.38593 0.73581 0.0
C1775 C 0.28121 0.44653 0.77222 0.0
H1776 H 0.19247 0.43622 0.75156 0.0
H1777 H 0.21236 0.38859 0.7839 0.0
H1778 H 0.24933 0.45669 0.7442 0.0
H1779 H 0.23945 0.43629 0.73146 0.0
H1780 H 0.21988 0.4572 0.73844 0.0
H1781 H 0.25004 0.37616 0.78688 0.0
H1782 H 0.26499 0.37462 0.77017 0.0
H1783 H 0.27162 0.39693 0.78246 0.0
H1784 H 0.30396 0.38843 0.72997 0.0
H1785 H 0.32336 0.43709 0.76183 0.0
H1786 H 0.24463 0.39614 0.73136 0.0
H1787 H 0.2515 0.37424 0.74387 0.0
H1788 H 0.26644 0.37548 0.72715 0.0
H1789 H 0.26629 0.45709 0.76905 0.0
H1790 H 0.29573 0.45805 0.7748 0.0
H1791 H 0.2764 0.43711 0.78198 0.0
C1792 C 0.86978 0.95742 1.00291 0.0
C1793 C 0.85902 0.9483 0.01495 0.0
C1794 C 0.86777 0.9807 0.99945 0.0
C1795 C 0.85398 0.99519 0.00792 0.0
C1796 C 0.8419 0.98575 0.01958 0.0
C1797 C 0.84494 0.96253 0.02314 0.0
C1798 C 0.88156 0.99003 0.9872 0.0
C1799 C 0.82632 1.00034 0.02857 0.0
C1800 C 0.87166 0.05779 0.00895 0.0
C1801 C 0.85826 0.06737 0.99811 0.0
C1802 C 0.87005 0.0345 0.01244 0.0
C1803 C 0.85402 0.02045 0.00528 0.0
C1804 C 0.83949 0.03032 0.99488 0.0
C1805 C 0.84211 0.05355 0.9912 0.0
C1806 C 0.88641 0.02469 0.02326 0.0
C1807 C 0.82159 0.01621 0.98738 0.0
H1808 H 0.88089 0.94662 0.99661 0.0
H1809 H 0.83652 0.95557 0.03243 0.0
H1810 H 0.87026 0.99905 0.97958 0.0
H1811 H 0.89412 1.00269 0.99121 0.0
H1812 H 0.89095 0.97642 0.98141 0.0
H1813 H 0.81559 0.98988 0.0358 0.0
H1814 H 0.83667 0.01226 0.03509 0.0
H1815 H 0.81498 1.01084 0.02172 0.0
H1816 H 0.88436 0.06828 0.01423 0.0
H1817 H 0.83164 0.06086 0.98285 0.0
H1818 H 0.89738 0.01158 0.01815 0.0
H1819 H 0.87684 0.01609 0.03189 0.0
H1820 H 0.8976 0.03796 0.02804 0.0
H1821 H 0.82996 1.004 0.98004 0.0
H1822 H 0.80959 0.02699 0.98114 0.0
H1823 H 0.81166 1.00605 0.99517 0.0
C1824 C 0.30193 0.62188 0.26994 0.0
C1825 C 0.3193 0.61044 0.26256 0.0
C1826 C 0.27904 0.62078 0.26538 0.0
C1827 C 0.27315 0.60711 0.25348 0.0
C1828 C 0.29049 0.59443 0.24652 0.0
C1829 C 0.31343 0.5967 0.25091 0.0
C1830 C 0.26138 0.63527 0.27283 0.0
C1831 C 0.28492 0.57886 0.23422 0.0
C1832 C 0.2091 0.59581 0.24947 0.0
C1833 C 0.20303 0.61143 0.23882 0.0
C1834 C 0.23205 0.59324 0.25378 0.0
C1835 C 0.24918 0.60744 0.24781 0.0
C1836 C 0.24308 0.62305 0.23693 0.0
C1837 C 0.22021 0.62449 0.23237 0.0
C1838 C 0.23787 0.57566 0.26494 0.0
C1839 C 0.26049 0.63914 0.2306 0.0
H1840 H 0.30644 0.6328 0.27881 0.0
H1841 H 0.32681 0.58781 0.24519 0.0
H1842 H 0.25395 0.64773 0.26523 0.0
H1843 H 0.24718 0.62444 0.27674 0.0
H1844 H 0.26867 0.64484 0.28197 0.0
H1845 H 0.29963 0.56784 0.23127 0.0
H1846 H 0.27013 0.56779 0.23688 0.0
H1847 H 0.28005 0.58921 0.22483 0.0
H1848 H 0.19586 0.58568 0.25448 0.0
H1849 H 0.21555 0.63686 0.2243 0.0
H1850 H 0.24254 0.58434 0.275 0.0
H1851 H 0.25286 0.56539 0.26156 0.0
H1852 H 0.22335 0.56393 0.26708 0.0
H1853 H 0.26774 0.65018 0.23907 0.0
H1854 H 0.25303 0.65026 0.22223 0.0
H1855 H 0.27485 0.62934 0.22592 0.0
C1856 C 0.34311 0.06066 0.50386 0.0
C1857 C 0.35801 0.0668 0.51489 0.0
C1858 C 0.34061 0.03763 0.49969 0.0
C1859 C 0.35428 0.02049 0.50616 0.0
C1860 C 0.36928 0.02671 0.51736 0.0
C1861 C 0.37054 0.04966 0.52179 0.0
C1862 C 0.32363 0.0317 0.4882 0.0
C1863 C 0.38488 1.00934 0.5242 0.0
C1864 C 0.34326 0.95618 0.50349 0.0
C1865 C 0.35745 0.94995 0.49215 0.0
C1866 C 0.34092 0.97925 0.5076 0.0
C1867 C 0.35405 0.99636 0.50072 0.0
C1868 C 0.36823 0.99007 0.48915 0.0
C1869 C 0.36933 0.96707 0.48482 0.0
C1870 C 0.32478 0.98523 0.51952 0.0
C1871 C 0.38327 1.00742 0.48184 0.0
H1872 H 0.33341 0.07388 0.4985 0.0
H1873 H 0.38236 0.05443 0.53016 0.0
H1874 H 0.33281 0.02673 0.47838 0.0
H1875 H 0.31305 0.01688 0.49149 0.0
H1876 H 0.31215 0.04627 0.48566 0.0
H1877 H 0.39571 0.01695 0.53267 0.0
H1878 H 0.37472 0.99526 0.5289 0.0
H1879 H 0.3962 1.00167 0.51604 0.0
H1880 H 0.33408 0.94298 0.5092 0.0
H1881 H 0.38064 0.96226 0.47621 0.0
H1882 H 0.31408 1.00015 0.51654 0.0
H1883 H 0.33468 0.99006 0.52911 0.0
H1884 H 0.3134 0.97072 0.52231 0.0
H1885 H 0.37278 0.02161 0.47754 0.0
H1886 H 0.39328 0.99982 0.47301 0.0
H1887 H 0.39535 0.01495 0.48965 0.0
C1888 C 0.71387 0.58872 0.26467 0.0
C1889 C 0.70089 0.60542 0.25765 0.0
C1890 C 0.73719 0.58548 0.26144 0.0
C1891 C 0.74803 0.59999 0.25143 0.0
C1892 C 0.73485 0.61666 0.2442 0.0
C1893 C 0.71142 0.61884 0.24719 0.0
C1894 C 0.75033 0.56688 0.26897 0.0
C1895 C 0.74571 0.63307 0.23383 0.0
C1896 C 0.81145 0.61338 0.25524 0.0
C1897 C 0.82076 0.60281 0.24319 0.0
C1898 C 0.78795 0.6121 0.25823 0.0
C1899 C 0.7734 0.59917 0.24926 0.0
C1900 C 0.78298 0.58724 0.23758 0.0
C1901 C 0.80644 0.58964 0.23449 0.0
C1902 C 0.77851 0.62578 0.2705 0.0
C1903 C 0.76832 0.5725 0.22809 0.0
H1904 H 0.70581 0.57825 0.27274 0.0
H1905 H 0.70157 0.63198 0.24184 0.0
H1906 H 0.76059 0.55689 0.26124 0.0
H1907 H 0.76241 0.5746 0.27667 0.0
H1908 H 0.73887 0.55503 0.2748 0.0
H1909 H 0.73307 0.64494 0.22901 0.0
H1910 H 0.75899 0.64333 0.23934 0.0
H1911 H 0.75431 0.62353 0.22518 0.0
H1912 H 0.82234 0.62384 0.26192 0.0
H1913 H 0.81354 0.58138 0.22518 0.0
H1914 H 0.7688 0.61454 0.2778 0.0
H1915 H 0.76645 0.63889 0.26644 0.0
H1916 H 0.79215 0.63452 0.27666 0.0
H1917 H 0.75708 0.56133 0.23455 0.0
H1918 H 0.77877 0.56163 0.22092 0.0
H1919 H 0.75712 0.58348 0.22147 0.0
C1920 C 0.15487 0.97297 0.0226 0.0
C1921 C 0.16723 0.95591 0.01552 0.0
C1922 C 0.15549 0.99586 0.018 0.0
C1923 C 0.16963 1.0021 0.00642 0.0
C1924 C 0.18321 0.98509 0.99977 0.0
C1925 C 0.18137 0.96211 0.00415 0.0
C1926 C 0.14001 0.01309 0.02507 0.0
C1927 C 0.19932 0.99107 0.98784 0.0
C1928 C 0.15221 0.05458 0.98487 0.0
C1929 C 0.16433 0.07211 0.99168 0.0
C1930 C 0.15395 0.03175 0.98946 0.0
C1931 C 0.16899 0.02607 1.00075 0.0
C1932 C 0.18227 0.0436 0.00712 0.0
C1933 C 0.17932 0.06648 1.00276 0.0
C1934 C 0.13877 0.01392 0.98272 0.0
C1935 C 0.19928 0.03826 0.0187 0.0
H1936 H 0.14361 0.96817 0.03124 0.0
H1937 H 0.19093 0.94895 0.99864 0.0
H1938 H 0.15017 0.02757 0.0293 0.0
H1939 H 0.1279 0.02021 0.01714 0.0
H1940 H 0.13003 1.00552 0.03392 0.0
H1941 H 0.21096 0.97669 0.98519 0.0
H1942 H 0.1894 0.99555 0.97819 0.0
H1943 H 0.20975 1.00623 0.99072 0.0
H1944 H 0.14032 0.05893 0.97645 0.0
H1945 H 0.18871 0.08 0.00805 0.0
H1946 H 0.12745 1.0063 0.9909 0.0
H1947 H 0.14924 0.99988 0.97824 0.0
H1948 H 0.12794 0.02111 0.97411 0.0
H1949 H 0.19012 0.03333 0.02853 0.0
H1950 H 0.21045 0.0531 0.02115 0.0
H1951 H 0.21018 0.02356 0.01557 0.0
C1952 C 0.80284 0.42784 0.77151 0.0
C1953 C 0.81749 0.41301 0.76413 0.0
C1954 C 0.77965 0.43011 0.76759 0.0
C1955 C 0.77067 0.41662 0.75638 0.0
C1956 C 0.78555 0.402 0.74874 0.0
C1957 C 0.80876 0.40067 0.75256 0.0
C1958 C 0.76464 0.4465 0.77571 0.0
C1959 C 0.77673 0.3868 0.73698 0.0
C1960 C 0.70796 0.39894 0.75703 0.0
C1961 C 0.69878 0.4113 0.74559 0.0
C1962 C 0.73113 0.40093 0.76083 0.0
C1963 C 0.74549 0.41623 0.75332 0.0
C1964 C 0.73602 0.4297 0.74225 0.0
C1965 C 0.7129 0.42678 0.73835 0.0
C1966 C 0.74049 0.38574 0.77243 0.0
C1967 C 0.75045 0.44677 0.73428 0.0
H1968 H 0.80945 0.4375 0.78043 0.0
H1969 H 0.81985 0.38899 0.74687 0.0
H1970 H 0.75453 0.45718 0.76826 0.0
H1971 H 0.75235 0.43677 0.78232 0.0
H1972 H 0.77472 0.4579 0.78277 0.0
H1973 H 0.79059 0.37684 0.73182 0.0
H1974 H 0.76396 0.37466 0.74134 0.0
H1975 H 0.76796 0.39717 0.72876 0.0
H1976 H 0.69728 0.38677 0.76261 0.0
H1977 H 0.70594 0.43645 0.72953 0.0
H1978 H 0.74887 0.39619 0.78076 0.0
H1979 H 0.75369 0.37417 0.76795 0.0
H1980 H 0.727 0.37515 0.77748 0.0
H1981 H 0.7602 0.4576 0.74183 0.0
H1982 H 0.73998 0.45798 0.72733 0.0
H1983 H 0.76306 0.43762 0.72758 0.0
C1984 C 0.16487 0.81383 0.01967 0.0
C1985 C 0.17125 0.82523 0.03217 0.0
C1986 C 0.16515 0.78976 0.01889 0.0
C1987 C 0.17257 0.77678 0.03076 0.0
C1988 C 0.18095 0.78836 0.04292 0.0
C1989 C 0.17983 0.81237 0.04357 0.0
C1990 C 0.15561 0.77827 0.00582 0.0
C1991 C 0.18966 0.77536 0.05566 0.0
C1992 C 0.14415 0.71956 0.0384 0.0
C1993 C 0.16016 0.70373 0.03327 0.0
C1994 C 0.14785 0.74321 0.03733 0.0
C1995 C 0.16843 0.75149 0.03132 0.0
C1996 C 0.18482 0.73562 0.0262 0.0
C1997 C 0.18034 0.71192 0.02703 0.0
C1998 C 0.12959 0.75936 0.04263 0.0
C1999 C 0.20722 0.74368 0.02007 0.0
H2000 H 0.15795 0.82362 0.01089 0.0
H2001 H 0.18484 0.82107 0.05325 0.0
H2002 H 0.16688 0.76411 1.00233 0.0
H2003 H 0.1387 0.77075 0.00837 0.0
H2004 H 0.15342 0.79044 0.99687 0.0
H2005 H 0.19906 0.78661 0.06316 0.0
H2006 H 0.17505 0.76759 0.06139 0.0
H2007 H 0.20114 0.76126 0.0523 0.0
H2008 H 0.12838 0.71344 0.04308 0.0
H2009 H 0.19283 0.6998 0.02308 0.0
H2010 H 0.12464 0.77145 0.03409 0.0
H2011 H 0.13633 0.76963 0.05161 0.0
H2012 H 0.11404 0.75021 0.04628 0.0
H2013 H 0.20409 0.75525 0.01095 0.0
H2014 H 0.21813 0.72926 0.01647 0.0
H2015 H 0.21674 0.75364 0.02818 0.0
C2016 C 0.55652 0.89672 0.28986 0.0
C2017 C 0.57287 0.9109 0.28345 0.0
C2018 C 0.53301 0.9006 0.28811 0.0
C2019 C 0.5254 0.91957 0.28003 0.0
C2020 C 0.54178 0.93422 0.27367 0.0
C2021 C 0.56533 0.92951 0.27528 0.0
C2022 C 0.5163 0.88419 0.29485 0.0
C2023 C 0.53441 0.95495 0.26532 0.0
C2024 C 0.46364 0.91301 0.26788 0.0
C2025 C 0.45183 0.92215 0.27952 0.0
C2026 C 0.48771 0.91345 0.26735 0.0
C2027 C 0.50023 0.92381 0.27854 0.0
C2028 C 0.4882 0.9351 0.28955 0.0
C2029 C 0.46421 0.93378 0.29004 0.0
C2030 C 0.49969 0.90082 0.25553 0.0
C2031 C 0.50071 0.94699 0.30147 0.0
H2032 H 0.56211 0.88213 0.29605 0.0
H2033 H 0.57784 0.94057 0.2703 0.0
H2034 H 0.50572 0.8933 0.30281 0.0
H2035 H 0.50453 0.87724 0.28667 0.0
H2036 H 0.52498 0.86966 0.3002 0.0
H2037 H 0.5492 0.96482 0.26119 0.0
H2038 H 0.52352 0.94971 0.25625 0.0
H2039 H 0.52395 0.96634 0.27214 0.0
H2040 H 0.45421 0.9037 0.25982 0.0
H2041 H 0.45517 0.94088 0.29907 0.0
H2042 H 0.50677 0.88457 0.25975 0.0
H2043 H 0.51421 0.91095 0.25135 0.0
H2044 H 0.48792 0.89671 0.24663 0.0
H2045 H 0.5079 0.93404 0.30883 0.0
H2046 H 0.48921 0.9584 0.30762 0.0
H2047 H 0.51516 0.95723 0.29728 0.0
C2048 C 0.34143 0.2093 0.54195 0.0
C2049 C 0.35233 0.19713 0.53105 0.0
C2050 C 0.34005 0.23332 0.54165 0.0
C2051 C 0.35059 0.24561 0.53046 0.0
C2052 C 0.36044 0.23331 0.51901 0.0
C2053 C 0.36089 0.20922 0.51935 0.0
C2054 C 0.32869 0.24557 0.55385 0.0
C2055 C 0.37237 0.24556 0.50702 0.0
C2056 C 0.34331 0.31063 0.52735 0.0
C2057 C 0.36199 0.31853 0.53532 0.0
C2058 C 0.33911 0.28697 0.52576 0.0
C2059 C 0.35439 0.27087 0.53187 0.0
C2060 C 0.37352 0.27889 0.53965 0.0
C2061 C 0.37685 0.30248 0.54145 0.0
C2062 C 0.31816 0.27919 0.51776 0.0
C2063 C 0.39065 0.26252 0.54605 0.0
H2064 H 0.33478 0.20006 0.55102 0.0
H2065 H 0.36964 0.19996 0.51099 0.0
H2066 H 0.34195 0.25302 0.5609 0.0
H2067 H 0.31791 0.25983 0.5499 0.0
H2068 H 0.3179 0.23386 0.56027 0.0
H2069 H 0.3764 0.23389 0.49806 0.0
H2070 H 0.36178 0.25986 0.50299 0.0
H2071 H 0.38861 0.25298 0.51102 0.0
H2072 H 0.33172 0.32293 0.52262 0.0
H2073 H 0.3915 0.3084 0.54747 0.0
H2074 H 0.3072 0.26873 0.52484 0.0
H2075 H 0.32316 0.26817 0.50871 0.0
H2076 H 0.30794 0.29377 0.51366 0.0
H2077 H 0.38223 0.25181 0.55423 0.0
H2078 H 0.40531 0.27151 0.55107 0.0
H2079 H 0.39734 0.25084 0.53775 0.0
C2080 C 0.96267 0.09181 0.7718 0.0
C2081 C 0.95545 0.10799 0.78185 0.0
C2082 C 0.98618 0.08761 0.7695 0.0
C2083 C 1.00279 0.10041 0.77709 0.0
C2084 C 0.99547 0.11696 0.78708 0.0
C2085 C 0.97204 0.12027 0.78946 0.0
C2086 C 0.99325 0.06936 0.75909 0.0
C2087 C 0.0124 0.13144 0.79522 0.0
C2088 C 0.06433 0.08481 0.78518 0.0
C2089 C 0.07625 0.09933 0.77596 0.0
C2090 C 0.04036 0.08303 0.7846 0.0
C2091 C 0.02791 0.09678 0.77492 0.0
C2092 C 0.04002 0.11016 0.76486 0.0
C2093 C 0.06408 0.11103 0.76538 0.0
C2094 C 0.02833 0.06793 0.79521 0.0
C2095 C 0.02759 0.12548 0.75453 0.0
H2096 H 0.94998 0.08225 0.76588 0.0
H2097 H 0.9667 0.13304 0.79711 0.0
H2098 H 1.00376 0.07696 0.75051 0.0
H2099 H 1.00403 0.05643 0.76453 0.0
H2100 H 0.97833 0.06061 0.75422 0.0
H2101 H 1.0039 0.14437 0.80205 0.0
H2102 H 0.0232 0.1204 0.80206 0.0
H2103 H 0.02393 0.14045 0.78773 0.0
H2104 H 0.07366 0.07574 0.79339 0.0
H2105 H 0.07317 0.12254 0.75836 0.0
H2106 H 0.0138 0.05884 0.79015 0.0
H2107 H 0.02131 0.07861 0.80391 0.0
H2108 H 0.04011 0.05512 0.79994 0.0
H2109 H 0.01299 0.1164 0.74956 0.0
H2110 H 0.03906 0.13185 0.74602 0.0
H2111 H 0.02057 0.14042 0.76033 0.0
C2112 C 0.18051 0.21138 0.98317 0.0
C2113 C 0.16171 0.20334 0.97537 0.0
C2114 C 0.18444 0.2351 0.98477 0.0
C2115 C 0.16877 0.25103 0.97887 0.0
C2116 C 0.14947 0.24283 0.97134 0.0
C2117 C 0.14642 0.21924 0.96951 0.0
C2118 C 0.20556 0.24312 0.9925 0.0
C2119 C 0.13191 0.25899 0.96517 0.0
C2120 C 0.16114 0.31268 0.99096 0.0
C2121 C 0.16877 0.32465 0.97897 0.0
C2122 C 0.1625 0.28864 0.9916 0.0
C2123 C 0.17231 0.27634 0.98014 0.0
C2124 C 0.18208 0.28862 0.96868 0.0
C2125 C 0.17979 0.31254 0.9681 0.0
C2126 C 0.15137 0.27639 1.00387 0.0
C2127 C 0.19338 0.27638 0.95645 0.0
H2128 H 0.1924 0.19918 0.9877 0.0
H2129 H 0.13165 0.21317 0.96365 0.0
H2130 H 0.21637 0.2533 0.98518 0.0
H2131 H 0.20078 0.25447 1.00145 0.0
H2132 H 0.21585 0.22866 0.99671 0.0
H2133 H 0.11713 0.24983 0.96044 0.0
H2134 H 0.12546 0.27068 0.97354 0.0
H2135 H 0.13987 0.26969 0.95681 0.0
H2136 H 0.15233 0.3219 0.99931 0.0
H2137 H 0.18575 0.32172 0.95881 0.0
H2138 H 0.16231 0.26222 0.00774 0.0
H2139 H 0.13499 0.26879 1.00025 0.0
H2140 H 0.14773 0.28812 0.01287 0.0
H2141 H 0.20451 0.26238 0.96038 0.0
H2142 H 0.20378 0.2882 0.94987 0.0
H2143 H 0.18009 0.2686 0.94957 0.0
C2144 C 0.95927 0.92974 0.23691 0.0
C2145 C 0.9522 0.91134 0.2284 0.0
C2146 C 0.98274 0.93488 0.2386 0.0
C2147 C 0.99947 0.92083 0.23203 0.0
C2148 C 0.99228 0.90195 0.22374 0.0
C2149 C 0.96889 0.89769 0.22188 0.0
C2150 C 0.98964 0.95553 0.24717 0.0
C2151 C 1.00934 0.88608 0.2168 0.0
C2152 C 0.0601 0.93597 0.22145 0.0
C2153 C 0.07291 0.92411 0.23167 0.0
C2154 C 0.03612 0.93724 0.22232 0.0
C2155 C 0.02455 0.92564 0.2334 0.0
C2156 C 0.03754 0.91511 0.24433 0.0
C2157 C 0.06158 0.91475 0.24342 0.0
C2158 C 0.02313 0.94933 0.21069 0.0
C2159 C 0.02608 0.90212 0.25618 0.0
H2160 H 0.94647 0.94037 0.24196 0.0
H2161 H 0.96363 0.88322 0.21546 0.0
H2162 H 1.00134 0.95044 0.25589 0.0
H2163 H 0.99912 0.96768 0.24031 0.0
H2164 H 0.97468 0.96451 0.25181 0.0
H2165 H 1.00097 0.87138 0.21143 0.0
H2166 H 0.01948 0.89558 0.2088 0.0
H2167 H 0.02146 0.87935 0.22485 0.0
H2168 H 0.06876 0.94326 0.21234 0.0
H2169 H 0.07135 0.9053 0.25126 0.0
H2170 H 1.0086 0.95918 0.21514 0.0
H2171 H 0.016 0.93651 0.20322 0.0
H2172 H 0.03429 0.96113 0.20459 0.0
H2173 H 0.01137 0.91184 0.26049 0.0
H2174 H 0.03812 0.89825 0.26499 0.0
H2175 H 0.01937 0.88572 0.25196 0.0
C2176 C 0.33338 0.70965 0.47299 0.0
C2177 C 0.34831 0.69674 0.48146 0.0
C2178 C 0.33183 0.73354 0.47446 0.0
C2179 C 0.34613 0.74497 0.48433 0.0
C2180 C 0.35978 0.7318 0.49373 0.0
C2181 C 0.36049 0.70782 0.4923 0.0
C2182 C 0.31648 0.74668 0.46449 0.0
C2183 C 0.3756 0.74311 0.50427 0.0
C2184 C 0.37042 0.80091 0.47049 0.0
C2185 C 0.35862 0.81753 0.47837 0.0
C2186 C 0.36676 0.77749 0.47262 0.0
C2187 C 0.35039 0.77013 0.48268 0.0
C2188 C 0.33824 0.78674 0.49069 0.0
C2189 C 0.34273 0.81029 0.48859 0.0
C2190 C 0.38058 0.7606 0.46402 0.0
C2191 C 0.32027 0.77964 0.50126 0.0
H2192 H 0.32384 0.7012 0.46461 0.0
H2193 H 0.37226 0.69801 0.49879 0.0
H2194 H 0.3079 0.76095 0.47013 0.0
H2195 H 0.3269 0.75417 0.45583 0.0
H2196 H 0.30324 0.73551 0.45964 0.0
H2197 H 0.38175 0.73088 0.51245 0.0
H2198 H 0.39066 0.75002 0.49855 0.0
H2199 H 0.36704 0.75763 0.50964 0.0
H2200 H 0.38301 0.80622 0.46273 0.0
H2201 H 0.33356 0.82298 0.49472 0.0
H2202 H 0.36906 0.75046 0.45709 0.0
H2203 H 0.3895 0.74846 0.47118 0.0
H2204 H 0.39353 0.76909 0.45721 0.0
H2205 H 0.30637 0.77031 0.4957 0.0
H2206 H 0.31275 0.7945 0.50692 0.0
H2207 H 0.32768 0.76774 0.50919 0.0
C2208 C 0.47288 0.1235 0.72366 0.0
C2209 C 0.45663 0.10803 0.72889 0.0
C2210 C 0.49636 0.11974 0.72536 0.0
C2211 C 0.5041 0.09959 0.73218 0.0
C2212 C 0.4878 0.08394 0.73769 0.0
C2213 C 0.46417 0.08851 0.73616 0.0
C2214 C 0.51292 0.13728 0.71962 0.0
C2215 C 0.49532 0.06205 0.74475 0.0
C2216 C 0.56445 0.0877 0.71968 0.0
C2217 C 0.5775 0.09805 0.73041 0.0
C2218 C 0.54057 0.08577 0.72085 0.0
C2219 C 0.52929 0.09503 0.73286 0.0
C2220 C 0.54255 0.10384 0.74422 0.0
C2221 C 0.56652 0.10501 0.74293 0.0
C2222 C 0.52727 0.07563 0.70864 0.0
C2223 C 0.53138 0.1142 0.75714 0.0
H2224 H 0.46715 0.1388 0.7182 0.0
H2225 H 0.45168 0.07648 0.74018 0.0
H2226 H 0.52508 0.14259 0.72805 0.0
H2227 H 0.52307 0.12971 0.71086 0.0
H2228 H 0.50411 0.15275 0.71552 0.0
H2229 H 0.48075 0.05264 0.74953 0.0
H2230 H 0.50365 0.05084 0.73679 0.0
H2231 H 0.50814 0.06563 0.75314 0.0
H2232 H 0.57282 0.08212 0.71001 0.0
H2233 H 0.57642 0.11317 0.75123 0.0
H2234 H 0.51937 0.08958 0.70234 0.0
H2235 H 0.51327 0.06455 0.71261 0.0
H2236 H 0.53838 0.06543 0.70148 0.0
H2237 H 0.52428 0.13119 0.75431 0.0
H2238 H 0.54372 0.11649 0.766 0.0
H2239 H 0.51699 0.10344 0.76088 0.0
C2240 C 0.87205 0.30152 0.97239 0.0
C2241 C 0.85886 0.31759 0.97983 0.0
C2242 C 0.86867 0.27796 0.9741 0.0
C2243 C 0.85119 0.26997 0.98323 0.0
C2244 C 0.83751 0.28604 0.99065 0.0
C2245 C 0.84172 0.30969 0.98902 0.0
C2246 C 0.88404 0.26158 0.96617 0.0
C2247 C 0.81833 0.27825 1.00017 0.0
C2248 C 0.83669 0.20896 0.97315 0.0
C2249 C 0.85047 0.1965 0.98258 0.0
C2250 C 0.83475 0.23286 0.97422 0.0
C2251 C 0.84752 0.24473 0.98468 0.0
C2252 C 0.86002 0.23204 0.99491 0.0
C2253 C 0.86111 0.20803 0.99384 0.0
C2254 C 0.82062 0.24552 0.96336 0.0
C2255 C 0.87422 0.24386 0.0061 0.0
H2256 H 0.88554 0.30737 0.9654 0.0
H2257 H 0.83143 0.32197 0.9948 0.0
H2258 H 0.89243 0.24968 0.97373 0.0
H2259 H 0.87376 0.25112 0.95871 0.0
H2260 H 0.89752 0.27055 0.96002 0.0
H2261 H 0.80906 0.29283 0.00506 0.0
H2262 H 0.80599 0.26783 0.99399 0.0
H2263 H 0.82514 0.26719 0.00875 0.0
H2264 H 0.82837 0.20013 0.96444 0.0
H2265 H 0.872 0.19855 1.00106 0.0
H2266 H 0.83208 0.25316 0.95527 0.0
H2267 H 0.81095 0.25966 0.9684 0.0
H2268 H 0.80839 0.23401 0.95785 0.0
H2269 H 0.88965 0.2513 1.00105 0.0
H2270 H 0.87984 0.23187 0.01456 0.0
H2271 H 0.86457 0.25808 0.01105 0.0
C2272 C 0.66012 0.81724 0.48873 0.0
C2273 C 0.66689 0.82919 0.47653 0.0
C2274 C 0.66091 0.79317 0.48921 0.0
C2275 C 0.66929 0.78079 0.47736 0.0
C2276 C 0.67807 0.79297 0.46555 0.0
C2277 C 0.67636 0.81695 0.46517 0.0
C2278 C 0.65082 0.78102 0.50187 0.0
C2279 C 0.68785 0.78062 0.45287 0.0
C2280 C 0.67766 0.71583 0.47982 0.0
C2281 C 0.65823 0.70793 0.47261 0.0
C2282 C 0.68167 0.73952 0.48148 0.0
C2283 C 0.66546 0.75552 0.47625 0.0
C2284 C 0.64545 0.74742 0.46943 0.0
C2285 C 0.64232 0.72386 0.46749 0.0
C2286 C 0.70352 0.74743 0.48843 0.0
C2287 C 0.62731 0.76365 0.46404 0.0
H2288 H 0.65254 0.82658 0.49749 0.0
H2289 H 0.6817 0.82611 0.45573 0.0
H2290 H 0.63408 0.77353 0.49884 0.0
H2291 H 0.662 0.76677 0.50535 0.0
H2292 H 0.6481 0.79278 0.51097 0.0
H2293 H 0.69753 0.79232 0.4458 0.0
H2294 H 0.69933 0.76658 0.45633 0.0
H2295 H 0.67376 0.77286 0.44662 0.0
H2296 H 0.69003 0.70356 0.48374 0.0
H2297 H 0.62712 0.71781 0.46207 0.0
H2298 H 0.6997 0.75913 0.49738 0.0
H2299 H 0.71384 0.75721 0.48064 0.0
H2300 H 0.71394 0.73293 0.49245 0.0
H2301 H 0.62189 0.77539 0.47266 0.0
H2302 H 0.61199 0.75454 0.45997 0.0
H2303 H 0.63436 0.77429 0.45534 0.0
C2304 C 0.86224 0.70864 0.01734 0.0
C2305 C 0.85522 0.697 0.0296 0.0
C2306 C 0.86113 0.73267 0.01656 0.0
C2307 C 0.85222 0.74529 0.02817 0.0
C2308 C 0.84297 0.73335 0.03993 0.0
C2309 C 0.84497 0.70942 0.04062 0.0
C2310 C 0.87164 0.74456 1.00394 0.0
C2311 C 0.83263 0.74595 0.05234 0.0
C2312 C 0.87983 0.80169 0.03836 0.0
C2313 C 0.86437 0.81791 0.03306 0.0
C2314 C 0.87634 0.77821 0.03638 0.0
C2315 C 0.85644 0.77048 0.02928 0.0
C2316 C 0.8407 0.78676 0.02383 0.0
C2317 C 0.84506 0.81037 0.02557 0.0
C2318 C 0.89398 0.76166 0.04204 0.0
C2319 C 0.81899 0.77924 0.01656 0.0
H2320 H 0.87041 0.69916 0.00886 0.0
H2321 H 0.83945 0.70049 0.05011 0.0
H2322 H 0.86081 0.759 1.00035 0.0
H2323 H 0.88848 0.75172 0.00707 0.0
H2324 H 0.87429 0.73267 0.99489 0.0
H2325 H 0.82244 0.73441 0.05923 0.0
H2326 H 0.84647 0.75359 0.05886 0.0
H2327 H 0.8215 0.76008 0.0486 0.0
H2328 H 0.89496 0.80744 0.04398 0.0
H2329 H 0.83304 0.82287 0.0215 0.0
H2330 H 0.89953 0.74981 0.03351 0.0
H2331 H 0.88641 0.75116 0.05064 0.0
H2332 H 0.9093 0.7705 0.04634 0.0
H2333 H 0.82291 0.76717 0.00781 0.0
H2334 H 0.80918 0.79389 0.01218 0.0
H2335 H 0.80803 0.76999 0.02426 0.0
C2336 C 0.68631 0.31704 0.53231 0.0
C2337 C 0.67117 0.32922 0.52357 0.0
C2338 C 0.68819 0.29311 0.53136 0.0
C2339 C 0.67395 0.28092 0.52181 0.0
C2340 C 0.66006 0.29333 0.51215 0.0
C2341 C 0.65907 0.31737 0.51303 0.0
C2342 C 0.70383 0.28077 0.54155 0.0
C2343 C 0.64426 0.28121 0.50196 0.0
C2344 C 0.67809 0.2155 0.51898 0.0
C2345 C 0.66255 0.20868 0.5295 0.0
C2346 C 0.68225 0.23895 0.51633 0.0
C2347 C 0.67003 0.25585 0.52405 0.0
C2348 C 0.65394 0.24888 0.5344 0.0
C2349 C 0.65068 0.22556 0.5371 0.0
C2350 C 0.69999 0.24565 0.50551 0.0
C2351 C 0.64002 0.26609 0.54269 0.0
H2352 H 0.69575 0.32611 0.54047 0.0
H2353 H 0.64712 0.32664 0.50636 0.0
H2354 H 0.69361 0.2737 0.55044 0.0
H2355 H 0.71251 0.26627 0.53621 0.0
H2356 H 0.71698 0.29239 0.54607 0.0
H2357 H 0.63786 0.29286 0.49353 0.0
H2358 H 0.65292 0.26647 0.4969 0.0
H2359 H 0.62935 0.27447 0.50791 0.0
H2360 H 0.68732 0.20256 0.51308 0.0
H2361 H 0.63834 0.2205 0.54508 0.0
H2362 H 0.71397 0.25523 0.51082 0.0
H2363 H 0.69242 0.25721 0.49744 0.0
H2364 H 0.70744 0.23058 0.50003 0.0
H2365 H 0.65148 0.2767 0.54937 0.0
H2366 H 0.62721 0.25782 0.54971 0.0
H2367 H 0.63092 0.27775 0.53531 0.0
C2368 C 0.95877 0.40863 0.7699 0.0
C2369 C 0.94719 0.41964 0.78099 0.0
C2370 C 0.98284 0.409 0.76914 0.0
C2371 C 0.99558 0.42114 0.77952 0.0
C2372 C 0.98376 0.4342 0.78984 0.0
C2373 C 0.95978 0.433 0.79059 0.0
C2374 C 0.99459 0.39454 0.75807 0.0
C2375 C 0.99649 0.44794 0.80086 0.0
C2376 C 0.05206 0.39586 0.79208 0.0
C2377 C 0.06834 0.40898 0.78478 0.0
C2378 C 0.02852 0.39949 0.79024 0.0
C2379 C 0.02078 0.41711 0.7811 0.0
C2380 C 0.03708 0.4307 0.77382 0.0
C2381 C 0.06066 0.42628 0.77559 0.0
C2382 C 0.0119 0.38425 0.79805 0.0
C2383 C 0.02959 0.45 0.76427 0.0
H2384 H 0.9492 0.39801 0.76257 0.0
H2385 H 0.95093 0.44156 0.79919 0.0
H2386 H 1.00905 0.40393 0.7532 0.0
H2387 H 1.00172 0.37902 0.76321 0.0
H2388 H 0.98265 0.38908 0.74954 0.0
H2389 H 0.98512 0.4603 0.80636 0.0
H2390 H 1.00383 0.43623 0.80893 0.0
H2391 H 1.01086 0.45744 0.79595 0.0
H2392 H 0.05771 0.38227 0.79907 0.0
H2393 H 0.07308 0.43653 0.76992 0.0
H2394 H 1.00005 0.376 0.7904 0.0
H2395 H 1.0014 0.39461 0.80544 0.0
H2396 H 0.02066 0.37067 0.80425 0.0
H2397 H 0.01858 0.44333 0.75561 0.0
H2398 H 0.04431 0.45916 0.75947 0.0
H2399 H 0.0192 0.46242 0.7704 0.0
C2400 C 0.45778 0.59311 0.2693 0.0
C2401 C 0.4504 0.60978 0.279 0.0
C2402 C 0.48132 0.58888 0.26717 0.0
C2403 C 0.49782 0.60213 0.27455 0.0
C2404 C 0.49035 0.61911 0.28421 0.0
C2405 C 0.46689 0.62246 0.28645 0.0
C2406 C 0.48855 0.57018 0.25711 0.0
C2407 C 0.50717 0.63405 0.29212 0.0
C2408 C 0.5595 0.58712 0.2828 0.0
C2409 C 0.57135 0.60118 0.27326 0.0
C2410 C 0.53553 0.58532 0.28234 0.0
C2411 C 0.52298 0.59858 0.27244 0.0
C2412 C 0.53499 0.61152 0.26212 0.0
C2413 C 0.55906 0.61241 0.26254 0.0
C2414 C 0.52359 0.57069 0.29325 0.0
C2415 C 0.52246 0.62631 0.25155 0.0
H2416 H 0.44518 0.58324 0.26351 0.0
H2417 H 0.46145 0.6356 0.29382 0.0
H2418 H 0.49881 0.57747 0.24832 0.0
H2419 H 0.49961 0.55771 0.26275 0.0
H2420 H 0.4737 0.56093 0.25251 0.0
H2421 H 0.49857 0.6472 0.29873 0.0
H2422 H 0.51805 0.62339 0.29914 0.0
H2423 H 0.51864 0.64283 0.28449 0.0
H2424 H 0.56891 0.57841 0.29112 0.0
H2425 H 0.56809 0.62356 0.25527 0.0
H2426 H 0.50911 0.56127 0.28837 0.0
H2427 H 0.51652 0.58176 0.30174 0.0
H2428 H 0.53544 0.55819 0.29822 0.0
H2429 H 0.50798 0.6169 0.2467 0.0
H2430 H 0.5339 0.63247 0.24296 0.0
H2431 H 0.51526 0.6414 0.25712 0.0
C2432 C 0.46276 0.39744 0.71824 0.0
C2433 C 0.44731 0.40888 0.72716 0.0
C2434 C 0.48648 0.40034 0.71961 0.0
C2435 C 0.49528 0.41548 0.73001 0.0
C2436 C 0.47983 0.42761 0.73884 0.0
C2437 C 0.45606 0.42398 0.73743 0.0
C2438 C 0.50218 0.38677 0.71006 0.0
C2439 C 0.48844 0.44432 0.74981 0.0
C2440 C 0.55718 0.40247 0.73975 0.0
C2441 C 0.56901 0.41558 0.7297 0.0
C2442 C 0.53314 0.40329 0.74064 0.0
C2443 C 0.52068 0.4181 0.73154 0.0
C2444 C 0.53281 0.43296 0.72235 0.0
C2445 C 0.55675 0.43118 0.72133 0.0
C2446 C 0.52105 0.38674 0.75035 0.0
C2447 C 0.52041 0.44959 0.71282 0.0
H2448 H 0.45634 0.38562 0.71032 0.0
H2449 H 0.44433 0.43295 0.74437 0.0
H2450 H 0.51275 0.39852 0.70358 0.0
H2451 H 0.51403 0.37628 0.71657 0.0
H2452 H 0.49266 0.37525 0.70278 0.0
H2453 H 0.47428 0.45351 0.7552 0.0
H2454 H 0.49865 0.43517 0.75794 0.0
H2455 H 0.49989 0.45706 0.74475 0.0
H2456 H 0.56652 0.39009 0.74607 0.0
H2457 H 0.56581 0.44129 0.7135 0.0
H2458 H 0.51275 0.37322 0.74387 0.0
H2459 H 0.50741 0.39551 0.75643 0.0
H2460 H 0.53299 0.37842 0.75794 0.0
H2461 H 0.51249 0.44018 0.70385 0.0
H2462 H 0.53214 0.4627 0.7084 0.0
H2463 H 0.50649 0.45833 0.71869 0.0
C2464 C 0.96219 0.61161 0.23577 0.0
C2465 C 0.9504 0.60675 0.22316 0.0
C2466 C 0.98627 0.61137 0.23624 0.0
C2467 C 0.99885 0.60549 0.22389 0.0
C2468 C 0.98688 0.59874 0.21149 0.0
C2469 C 0.96287 0.59986 0.21119 0.0
C2470 C 0.9982 0.61925 0.24958 0.0
C2471 C 0.99947 0.59165 0.19822 0.0
C2472 C 0.0561 0.63419 0.21691 0.0
C2473 C 0.07188 0.61744 0.22112 0.0
C2474 C 0.03246 0.63064 0.21813 0.0
C2475 C 0.02414 0.60947 0.22328 0.0
C2476 C 0.03997 0.59235 0.22747 0.0
C2477 C 0.06368 0.59668 0.22657 0.0
C2478 C 0.01637 0.64967 0.21389 0.0
C2479 C 0.03184 0.56933 0.23261 0.0
H2480 H 0.95267 0.6172 0.24501 0.0
H2481 H 0.95383 0.59601 0.20142 0.0
H2482 H 0.01229 0.60744 0.25244 0.0
H2483 H 1.00589 0.63633 0.24771 0.0
H2484 H 0.98628 0.62055 0.25872 0.0
H2485 H 0.98794 0.5834 0.19036 0.0
H2486 H 1.00726 0.60691 0.19318 0.0
H2487 H 0.01352 0.57963 0.20085 0.0
H2488 H 0.06228 0.6504 0.21287 0.0
H2489 H 0.07579 0.58365 0.2298 0.0
H2490 H 1.00451 0.65359 0.22275 0.0
H2491 H 1.00583 0.64422 0.2047 0.0
H2492 H 0.02558 0.66558 0.21095 0.0
H2493 H 0.0205 0.57143 0.24195 0.0
H2494 H 0.04624 0.55791 0.23558 0.0
H2495 H 0.02162 0.56091 0.22417 0.0
loop_
_geom_bond_atom_site_label_1
_geom_bond_atom_site_label_2
_geom_bond_distance
_geom_bond_site_symmetry_2
_ccdc_geom_bond_type
O0 Cd1 2.223 . S
O0 C8 1.315 . S
Cd1 O0 2.223 . S
Cd1 O4 2.297 . S
Cd1 O5 2.439 . S
Cd1 O11 2.240 . S
Cd2 O3 2.240 . S
Cd2 O10 2.223 . S
Cd2 O12 2.297 . S
Cd2 O13 2.439 . S
O3 Cd2 2.240 . S
O3 C8 1.279 . S
O4 Cd1 2.297 . S
O4 C6 1.247 . S
O5 Cd1 2.439 . S
O5 C6 1.208 . S
C6 O4 1.247 . S
C6 O5 1.208 . S
C7 O12 1.247 . S
C7 O13 1.208 . S
C8 O0 1.315 . S
C8 O3 1.279 . S
C9 O10 1.315 . S
C9 O11 1.279 . S
O10 Cd2 2.223 . S
O10 C9 1.315 . S
O11 Cd1 2.240 . S
O11 C9 1.279 . S
O12 Cd2 2.297 . S
O12 C7 1.247 . S
O13 Cd2 2.439 . S
O13 C7 1.208 . S
O14 Cd15 2.223 . S
O14 C22 1.315 . S
Cd15 O14 2.223 . S
Cd15 O18 2.297 . S
Cd15 O19 2.439 . S
Cd15 O25 2.240 . S
Cd16 O17 2.240 . S
Cd16 O24 2.223 . S
Cd16 O26 2.297 . S
Cd16 O27 2.439 . S
O17 Cd16 2.240 . S
O17 C22 1.279 . S
O18 Cd15 2.297 . S
O18 C20 1.247 . S
O19 Cd15 2.439 . S
O19 C20 1.208 . S
C20 O18 1.247 . S
C20 O19 1.208 . S
C21 O26 1.247 . S
C21 O27 1.208 . S
C22 O14 1.315 . S
C22 O17 1.279 . S
C23 O24 1.315 . S
C23 O25 1.279 . S
O24 Cd16 2.223 . S
O24 C23 1.315 . S
O25 Cd15 2.240 . S
O25 C23 1.279 . S
O26 Cd16 2.297 . S
O26 C21 1.247 . S
O27 Cd16 2.439 . S
O27 C21 1.208 . S
O28 Cd29 2.223 . S
O28 C36 1.315 . S
Cd29 O28 2.223 . S
Cd29 O32 2.297 . S
Cd29 O33 2.439 . S
Cd29 O39 2.240 . S
Cd30 O31 2.240 . S
Cd30 O38 2.223 . S
Cd30 O40 2.297 . S
Cd30 O41 2.439 . S
O31 Cd30 2.240 . S
O31 C36 1.279 . S
O32 Cd29 2.297 . S
O32 C34 1.247 . S
O33 Cd29 2.439 . S
O33 C34 1.208 . S
C34 O32 1.247 . S
C34 O33 1.208 . S
C35 O40 1.247 . S
C35 O41 1.208 . S
C36 O28 1.315 . S
C36 O31 1.279 . S
C37 O38 1.315 . S
C37 O39 1.279 . S
O38 Cd30 2.223 . S
O38 C37 1.315 . S
O39 Cd29 2.240 . S
O39 C37 1.279 . S
O40 Cd30 2.297 . S
O40 C35 1.247 . S
O41 Cd30 2.439 . S
O41 C35 1.208 . S
O42 Cd43 2.223 . S
O42 C50 1.315 . S
Cd43 O42 2.223 . S
Cd43 O46 2.297 . S
Cd43 O47 2.439 . S
Cd43 O53 2.240 . S
Cd44 O45 2.240 . S
Cd44 O52 2.223 . S
Cd44 O54 2.297 . S
Cd44 O55 2.439 . S
O45 Cd44 2.240 . S
O45 C50 1.279 . S
O46 Cd43 2.297 . S
O46 C48 1.247 . S
O47 Cd43 2.439 . S
O47 C48 1.208 . S
C48 O46 1.247 . S
C48 O47 1.208 . S
C49 O54 1.247 . S
C49 O55 1.208 . S
C50 O42 1.315 . S
C50 O45 1.279 . S
C51 O52 1.315 . S
C51 O53 1.279 . S
O52 Cd44 2.223 . S
O52 C51 1.315 . S
O53 Cd43 2.240 . S
O53 C51 1.279 . S
O54 Cd44 2.297 . S
O54 C49 1.247 . S
O55 Cd44 2.439 . S
O55 C49 1.208 . S
O56 Cd57 2.223 . S
O56 C64 1.315 . S
Cd57 O56 2.223 . S
Cd57 O60 2.297 . S
Cd57 O61 2.439 . S
Cd57 O67 2.240 . S
Cd58 O59 2.240 . S
Cd58 O66 2.223 . S
Cd58 O68 2.297 . S
Cd58 O69 2.439 . S
O59 Cd58 2.240 . S
O59 C64 1.279 . S
O60 Cd57 2.297 . S
O60 C62 1.247 . S
O61 Cd57 2.439 . S
O61 C62 1.208 . S
C62 O60 1.247 . S
C62 O61 1.208 . S
C63 O68 1.247 . S
C63 O69 1.208 . S
C64 O56 1.315 . S
C64 O59 1.279 . S
C65 O66 1.315 . S
C65 O67 1.279 . S
O66 Cd58 2.223 . S
O66 C65 1.315 . S
O67 Cd57 2.240 . S
O67 C65 1.279 . S
O68 Cd58 2.297 . S
O68 C63 1.247 . S
O69 Cd58 2.439 . S
O69 C63 1.208 . S
O70 Cd71 2.223 . S
O70 C78 1.315 . S
Cd71 O70 2.223 . S
Cd71 O74 2.297 . S
Cd71 O75 2.439 . S
Cd71 O81 2.240 . S
Cd72 O73 2.240 . S
Cd72 O80 2.223 . S
Cd72 O82 2.297 . S
Cd72 O83 2.439 . S
O73 Cd72 2.240 . S
O73 C78 1.279 . S
O74 Cd71 2.297 . S
O74 C76 1.247 . S
O75 Cd71 2.439 . S
O75 C76 1.208 . S
C76 O74 1.247 . S
C76 O75 1.208 . S
C77 O82 1.247 . S
C77 O83 1.208 . S
C78 O70 1.315 . S
C78 O73 1.279 . S
C79 O80 1.315 . S
C79 O81 1.279 . S
O80 Cd72 2.223 . S
O80 C79 1.315 . S
O81 Cd71 2.240 . S
O81 C79 1.279 . S
O82 Cd72 2.297 . S
O82 C77 1.247 . S
O83 Cd72 2.439 . S
O83 C77 1.208 . S
O84 Cd85 2.223 . S
O84 C92 1.315 . S
Cd85 O84 2.223 . S
Cd85 O88 2.297 . S
Cd85 O89 2.439 . S
Cd85 O95 2.240 . S
Cd86 O87 2.240 . S
Cd86 O94 2.223 . S
Cd86 O96 2.297 . S
Cd86 O97 2.439 . S
O87 Cd86 2.240 . S
O87 C92 1.279 . S
O88 Cd85 2.297 . S
O88 C90 1.247 . S
O89 Cd85 2.439 . S
O89 C90 1.208 . S
C90 O88 1.247 . S
C90 O89 1.208 . S
C91 O96 1.247 . S
C91 O97 1.208 . S
C92 O84 1.315 . S
C92 O87 1.279 . S
C93 O94 1.315 . S
C93 O95 1.279 . S
O94 Cd86 2.223 . S
O94 C93 1.315 . S
O95 Cd85 2.240 . S
O95 C93 1.279 . S
O96 Cd86 2.297 . S
O96 C91 1.247 . S
O97 Cd86 2.439 . S
O97 C91 1.208 . S
O98 Cd99 2.223 . S
O98 C106 1.315 . S
Cd99 O98 2.223 . S
Cd99 O102 2.297 . S
Cd99 O103 2.439 . S
Cd99 O109 2.240 . S
Cd100 O101 2.240 . S
Cd100 O108 2.223 . S
Cd100 O110 2.297 . S
Cd100 O111 2.439 . S
O101 Cd100 2.240 . S
O101 C106 1.279 . S
O102 Cd99 2.297 . S
O102 C104 1.247 . S
O103 Cd99 2.439 . S
O103 C104 1.208 . S
C104 O102 1.247 . S
C104 O103 1.208 . S
C105 O110 1.247 . S
C105 O111 1.208 . S
C106 O98 1.315 . S
C106 O101 1.279 . S
C107 O108 1.315 . S
C107 O109 1.279 . S
O108 Cd100 2.223 . S
O108 C107 1.315 . S
O109 Cd99 2.240 . S
O109 C107 1.279 . S
O110 Cd100 2.297 . S
O110 C105 1.247 . S
O111 Cd100 2.439 . S
O111 C105 1.208 . S
O112 Cd113 2.223 . S
O112 C120 1.315 . S
Cd113 O112 2.223 . S
Cd113 O116 2.297 . S
Cd113 O117 2.439 . S
Cd113 O123 2.240 . S
Cd114 O115 2.240 . S
Cd114 O122 2.223 . S
Cd114 O124 2.297 . S
Cd114 O125 2.439 . S
O115 Cd114 2.240 . S
O115 C120 1.279 . S
O116 Cd113 2.297 . S
O116 C118 1.247 . S
O117 Cd113 2.439 . S
O117 C118 1.208 . S
C118 O116 1.247 . S
C118 O117 1.208 . S
C119 O124 1.247 . S
C119 O125 1.208 . S
C120 O112 1.315 . S
C120 O115 1.279 . S
C121 O122 1.315 . S
C121 O123 1.279 . S
O122 Cd114 2.223 . S
O122 C121 1.315 . S
O123 Cd113 2.240 . S
O123 C121 1.279 . S
O124 Cd114 2.297 . S
O124 C119 1.247 . S
O125 Cd114 2.439 . S
O125 C119 1.208 . S
O126 Cd127 2.223 . S
O126 C134 1.315 . S
Cd127 O126 2.223 . S
Cd127 O130 2.297 . S
Cd127 O131 2.439 . S
Cd127 O137 2.240 . S
Cd128 O129 2.240 . S
Cd128 O136 2.223 . S
Cd128 O138 2.297 . S
Cd128 O139 2.439 . S
O129 Cd128 2.240 . S
O129 C134 1.279 . S
O130 Cd127 2.297 . S
O130 C132 1.247 . S
O131 Cd127 2.439 . S
O131 C132 1.208 . S
C132 O130 1.247 . S
C132 O131 1.208 . S
C133 O138 1.247 . S
C133 O139 1.208 . S
C134 O126 1.315 . S
C134 O129 1.279 . S
C135 O136 1.315 . S
C135 O137 1.279 . S
O136 Cd128 2.223 . S
O136 C135 1.315 . S
O137 Cd127 2.240 . S
O137 C135 1.279 . S
O138 Cd128 2.297 . S
O138 C133 1.247 . S
O139 Cd128 2.439 . S
O139 C133 1.208 . S
O140 Cd141 2.223 . S
O140 C148 1.315 . S
Cd141 O140 2.223 . S
Cd141 O144 2.297 . S
Cd141 O145 2.439 . S
Cd141 O151 2.240 . S
Cd142 O143 2.240 . S
Cd142 O150 2.223 . S
Cd142 O152 2.297 . S
Cd142 O153 2.439 . S
O143 Cd142 2.240 . S
O143 C148 1.279 . S
O144 Cd141 2.297 . S
O144 C146 1.247 . S
O145 Cd141 2.439 . S
O145 C146 1.208 . S
C146 O144 1.247 . S
C146 O145 1.208 . S
C147 O152 1.247 . S
C147 O153 1.208 . S
C148 O140 1.315 . S
C148 O143 1.279 . S
C149 O150 1.315 . S
C149 O151 1.279 . S
O150 Cd142 2.223 . S
O150 C149 1.315 . S
O151 Cd141 2.240 . S
O151 C149 1.279 . S
O152 Cd142 2.297 . S
O152 C147 1.247 . S
O153 Cd142 2.439 . S
O153 C147 1.208 . S
O154 Cd155 2.223 . S
O154 C162 1.315 . S
Cd155 O154 2.223 . S
Cd155 O158 2.297 . S
Cd155 O159 2.439 . S
Cd155 O165 2.240 . S
Cd156 O157 2.240 . S
Cd156 O164 2.223 . S
Cd156 O166 2.297 . S
Cd156 O167 2.439 . S
O157 Cd156 2.240 . S
O157 C162 1.279 . S
O158 Cd155 2.297 . S
O158 C160 1.247 . S
O159 Cd155 2.439 . S
O159 C160 1.208 . S
C160 O158 1.247 . S
C160 O159 1.208 . S
C161 O166 1.247 . S
C161 O167 1.208 . S
C162 O154 1.315 . S
C162 O157 1.279 . S
C163 O164 1.315 . S
C163 O165 1.279 . S
O164 Cd156 2.223 . S
O164 C163 1.315 . S
O165 Cd155 2.240 . S
O165 C163 1.279 . S
O166 Cd156 2.297 . S
O166 C161 1.247 . S
O167 Cd156 2.439 . S
O167 C161 1.208 . S
O168 Cd169 2.223 . S
O168 C176 1.315 . S
Cd169 O168 2.223 . S
Cd169 O172 2.297 . S
Cd169 O173 2.439 . S
Cd169 O179 2.240 . S
Cd170 O171 2.240 . S
Cd170 O178 2.223 . S
Cd170 O180 2.297 . S
Cd170 O181 2.439 . S
O171 Cd170 2.240 . S
O171 C176 1.279 . S
O172 Cd169 2.297 . S
O172 C174 1.247 . S
O173 Cd169 2.439 . S
O173 C174 1.208 . S
C174 O172 1.247 . S
C174 O173 1.208 . S
C175 O180 1.247 . S
C175 O181 1.208 . S
C176 O168 1.315 . S
C176 O171 1.279 . S
C177 O178 1.315 . S
C177 O179 1.279 . S
O178 Cd170 2.223 . S
O178 C177 1.315 . S
O179 Cd169 2.240 . S
O179 C177 1.279 . S
O180 Cd170 2.297 . S
O180 C175 1.247 . S
O181 Cd170 2.439 . S
O181 C175 1.208 . S
O182 Cd183 2.223 . S
O182 C190 1.315 . S
Cd183 O182 2.223 . S
Cd183 O186 2.297 . S
Cd183 O187 2.439 . S
Cd183 O193 2.240 . S
Cd184 O185 2.240 . S
Cd184 O192 2.223 . S
Cd184 O194 2.297 . S
Cd184 O195 2.439 . S
O185 Cd184 2.240 . S
O185 C190 1.279 . S
O186 Cd183 2.297 . S
O186 C188 1.247 . S
O187 Cd183 2.439 . S
O187 C188 1.208 . S
C188 O186 1.247 . S
C188 O187 1.208 . S
C189 O194 1.247 . S
C189 O195 1.208 . S
C190 O182 1.315 . S
C190 O185 1.279 . S
C191 O192 1.315 . S
C191 O193 1.279 . S
O192 Cd184 2.223 . S
O192 C191 1.315 . S
O193 Cd183 2.240 . S
O193 C191 1.279 . S
O194 Cd184 2.297 . S
O194 C189 1.247 . S
O195 Cd184 2.439 . S
O195 C189 1.208 . S
O196 Cd197 2.223 . S
O196 C204 1.315 . S
Cd197 O196 2.223 . S
Cd197 O200 2.297 . S
Cd197 O201 2.439 . S
Cd197 O207 2.240 . S
Cd198 O199 2.240 . S
Cd198 O206 2.223 . S
Cd198 O208 2.297 . S
Cd198 O209 2.439 . S
O199 Cd198 2.240 . S
O199 C204 1.279 . S
O200 Cd197 2.297 . S
O200 C202 1.247 . S
O201 Cd197 2.439 . S
O201 C202 1.208 . S
C202 O200 1.247 . S
C202 O201 1.208 . S
C203 O208 1.247 . S
C203 O209 1.208 . S
C204 O196 1.315 . S
C204 O199 1.279 . S
C205 O206 1.315 . S
C205 O207 1.279 . S
O206 Cd198 2.223 . S
O206 C205 1.315 . S
O207 Cd197 2.240 . S
O207 C205 1.279 . S
O208 Cd198 2.297 . S
O208 C203 1.247 . S
O209 Cd198 2.439 . S
O209 C203 1.208 . S
O210 Cd211 2.223 . S
O210 C218 1.315 . S
Cd211 O210 2.223 . S
Cd211 O214 2.297 . S
Cd211 O215 2.439 . S
Cd211 O221 2.240 . S
Cd212 O213 2.240 . S
Cd212 O220 2.223 . S
Cd212 O222 2.297 . S
Cd212 O223 2.439 . S
O213 Cd212 2.240 . S
O213 C218 1.279 . S
O214 Cd211 2.297 . S
O214 C216 1.247 . S
O215 Cd211 2.439 . S
O215 C216 1.208 . S
C216 O214 1.247 . S
C216 O215 1.208 . S
C217 O222 1.247 . S
C217 O223 1.208 . S
C218 O210 1.315 . S
C218 O213 1.279 . S
C219 O220 1.315 . S
C219 O221 1.279 . S
O220 Cd212 2.223 . S
O220 C219 1.315 . S
O221 Cd211 2.240 . S
O221 C219 1.279 . S
O222 Cd212 2.297 . S
O222 C217 1.247 . S
O223 Cd212 2.439 . S
O223 C217 1.208 . S
O224 Cd225 2.223 . S
O224 C232 1.315 . S
Cd225 O224 2.223 . S
Cd225 O228 2.297 . S
Cd225 O229 2.439 . S
Cd225 O235 2.240 . S
Cd226 O227 2.240 . S
Cd226 O234 2.223 . S
Cd226 O236 2.297 . S
Cd226 O237 2.439 . S
O227 Cd226 2.240 . S
O227 C232 1.279 . S
O228 Cd225 2.297 . S
O228 C230 1.247 . S
O229 Cd225 2.439 . S
O229 C230 1.208 . S
C230 O228 1.247 . S
C230 O229 1.208 . S
C231 O236 1.247 . S
C231 O237 1.208 . S
C232 O224 1.315 . S
C232 O227 1.279 . S
C233 O234 1.315 . S
C233 O235 1.279 . S
O234 Cd226 2.223 . S
O234 C233 1.315 . S
O235 Cd225 2.240 . S
O235 C233 1.279 . S
O236 Cd226 2.297 . S
O236 C231 1.247 . S
O237 Cd226 2.439 . S
O237 C231 1.208 . S
O238 Cd239 2.223 . S
O238 C246 1.315 . S
Cd239 O238 2.223 . S
Cd239 O242 2.297 . S
Cd239 O243 2.439 . S
Cd239 O249 2.240 . S
Cd240 O241 2.240 . S
Cd240 O248 2.223 . S
Cd240 O250 2.297 . S
Cd240 O251 2.439 . S
O241 Cd240 2.240 . S
O241 C246 1.279 . S
O242 Cd239 2.297 . S
O242 C244 1.247 . S
O243 Cd239 2.439 . S
O243 C244 1.208 . S
C244 O242 1.247 . S
C244 O243 1.208 . S
C245 O250 1.247 . S
C245 O251 1.208 . S
C246 O238 1.315 . S
C246 O241 1.279 . S
C247 O248 1.315 . S
C247 O249 1.279 . S
O248 Cd240 2.223 . S
O248 C247 1.315 . S
O249 Cd239 2.240 . S
O249 C247 1.279 . S
O250 Cd240 2.297 . S
O250 C245 1.247 . S
O251 Cd240 2.439 . S
O251 C245 1.208 . S
O252 Cd253 2.223 . S
O252 C260 1.315 . S
Cd253 O252 2.223 . S
Cd253 O256 2.297 . S
Cd253 O257 2.439 . S
Cd253 O263 2.240 . S
Cd254 O255 2.240 . S
Cd254 O262 2.223 . S
Cd254 O264 2.297 . S
Cd254 O265 2.439 . S
O255 Cd254 2.240 . S
O255 C260 1.279 . S
O256 Cd253 2.297 . S
O256 C258 1.247 . S
O257 Cd253 2.439 . S
O257 C258 1.208 . S
C258 O256 1.247 . S
C258 O257 1.208 . S
C259 O264 1.247 . S
C259 O265 1.208 . S
C260 O252 1.315 . S
C260 O255 1.279 . S
C261 O262 1.315 . S
C261 O263 1.279 . S
O262 Cd254 2.223 . S
O262 C261 1.315 . S
O263 Cd253 2.240 . S
O263 C261 1.279 . S
O264 Cd254 2.297 . S
O264 C259 1.247 . S
O265 Cd254 2.439 . S
O265 C259 1.208 . S
O266 Cd267 2.223 . S
O266 C274 1.315 . S
Cd267 O266 2.223 . S
Cd267 O270 2.297 . S
Cd267 O271 2.439 . S
Cd267 O277 2.240 . S
Cd268 O269 2.240 . S
Cd268 O276 2.223 . S
Cd268 O278 2.297 . S
Cd268 O279 2.439 . S
O269 Cd268 2.240 . S
O269 C274 1.279 . S
O270 Cd267 2.297 . S
O270 C272 1.247 . S
O271 Cd267 2.439 . S
O271 C272 1.208 . S
C272 O270 1.247 . S
C272 O271 1.208 . S
C273 O278 1.247 . S
C273 O279 1.208 . S
C274 O266 1.315 . S
C274 O269 1.279 . S
C275 O276 1.315 . S
C275 O277 1.279 . S
O276 Cd268 2.223 . S
O276 C275 1.315 . S
O277 Cd267 2.240 . S
O277 C275 1.279 . S
O278 Cd268 2.297 . S
O278 C273 1.247 . S
O279 Cd268 2.439 . S
O279 C273 1.208 . S
O280 Cd281 2.223 . S
O280 C288 1.315 . S
Cd281 O280 2.223 . S
Cd281 O284 2.297 . S
Cd281 O285 2.439 . S
Cd281 O291 2.240 . S
Cd282 O283 2.240 . S
Cd282 O290 2.223 . S
Cd282 O292 2.297 . S
Cd282 O293 2.439 . S
O283 Cd282 2.240 . S
O283 C288 1.279 . S
O284 Cd281 2.297 . S
O284 C286 1.247 . S
O285 Cd281 2.439 . S
O285 C286 1.208 . S
C286 O284 1.247 . S
C286 O285 1.208 . S
C287 O292 1.247 . S
C287 O293 1.208 . S
C288 O280 1.315 . S
C288 O283 1.279 . S
C289 O290 1.315 . S
C289 O291 1.279 . S
O290 Cd282 2.223 . S
O290 C289 1.315 . S
O291 Cd281 2.240 . S
O291 C289 1.279 . S
O292 Cd282 2.297 . S
O292 C287 1.247 . S
O293 Cd282 2.439 . S
O293 C287 1.208 . S
O294 Cd295 2.223 . S
O294 C302 1.315 . S
Cd295 O294 2.223 . S
Cd295 O298 2.297 . S
Cd295 O299 2.439 . S
Cd295 O305 2.240 . S
Cd296 O297 2.240 . S
Cd296 O304 2.223 . S
Cd296 O306 2.297 . S
Cd296 O307 2.439 . S
O297 Cd296 2.240 . S
O297 C302 1.279 . S
O298 Cd295 2.297 . S
O298 C300 1.247 . S
O299 Cd295 2.439 . S
O299 C300 1.208 . S
C300 O298 1.247 . S
C300 O299 1.208 . S
C301 O306 1.247 . S
C301 O307 1.208 . S
C302 O294 1.315 . S
C302 O297 1.279 . S
C303 O304 1.315 . S
C303 O305 1.279 . S
O304 Cd296 2.223 . S
O304 C303 1.315 . S
O305 Cd295 2.240 . S
O305 C303 1.279 . S
O306 Cd296 2.297 . S
O306 C301 1.247 . S
O307 Cd296 2.439 . S
O307 C301 1.208 . S
O308 Cd309 2.223 . S
O308 C316 1.315 . S
Cd309 O308 2.223 . S
Cd309 O312 2.297 . S
Cd309 O313 2.439 . S
Cd309 O319 2.240 . S
Cd310 O311 2.240 . S
Cd310 O318 2.223 . S
Cd310 O320 2.297 . S
Cd310 O321 2.439 . S
O311 Cd310 2.240 . S
O311 C316 1.279 . S
O312 Cd309 2.297 . S
O312 C314 1.247 . S
O313 Cd309 2.439 . S
O313 C314 1.208 . S
C314 O312 1.247 . S
C314 O313 1.208 . S
C315 O320 1.247 . S
C315 O321 1.208 . S
C316 O308 1.315 . S
C316 O311 1.279 . S
C317 O318 1.315 . S
C317 O319 1.279 . S
O318 Cd310 2.223 . S
O318 C317 1.315 . S
O319 Cd309 2.240 . S
O319 C317 1.279 . S
O320 Cd310 2.297 . S
O320 C315 1.247 . S
O321 Cd310 2.439 . S
O321 C315 1.208 . S
O322 Cd323 2.223 . S
O322 C330 1.315 . S
Cd323 O322 2.223 . S
Cd323 O326 2.297 . S
Cd323 O327 2.439 . S
Cd323 O333 2.240 . S
Cd324 O325 2.240 . S
Cd324 O332 2.223 . S
Cd324 O334 2.297 . S
Cd324 O335 2.439 . S
O325 Cd324 2.240 . S
O325 C330 1.279 . S
O326 Cd323 2.297 . S
O326 C328 1.247 . S
O327 Cd323 2.439 . S
O327 C328 1.208 . S
C328 O326 1.247 . S
C328 O327 1.208 . S
C329 O334 1.247 . S
C329 O335 1.208 . S
C330 O322 1.315 . S
C330 O325 1.279 . S
C331 O332 1.315 . S
C331 O333 1.279 . S
O332 Cd324 2.223 . S
O332 C331 1.315 . S
O333 Cd323 2.240 . S
O333 C331 1.279 . S
O334 Cd324 2.297 . S
O334 C329 1.247 . S
O335 Cd324 2.439 . S
O335 C329 1.208 . S
O336 Cd337 2.223 . S
O336 C344 1.315 . S
Cd337 O336 2.223 . S
Cd337 O340 2.297 . S
Cd337 O341 2.439 . S
Cd337 O347 2.240 . S
Cd338 O339 2.240 . S
Cd338 O346 2.223 . S
Cd338 O348 2.297 . S
Cd338 O349 2.439 . S
O339 Cd338 2.240 . S
O339 C344 1.279 . S
O340 Cd337 2.297 . S
O340 C342 1.247 . S
O341 Cd337 2.439 . S
O341 C342 1.208 . S
C342 O340 1.247 . S
C342 O341 1.208 . S
C343 O348 1.247 . S
C343 O349 1.208 . S
C344 O336 1.315 . S
C344 O339 1.279 . S
C345 O346 1.315 . S
C345 O347 1.279 . S
O346 Cd338 2.223 . S
O346 C345 1.315 . S
O347 Cd337 2.240 . S
O347 C345 1.279 . S
O348 Cd338 2.297 . S
O348 C343 1.247 . S
O349 Cd338 2.439 . S
O349 C343 1.208 . S
O350 Cd351 2.223 . S
O350 C358 1.315 . S
Cd351 O350 2.223 . S
Cd351 O354 2.297 . S
Cd351 O355 2.439 . S
Cd351 O361 2.240 . S
Cd352 O353 2.240 . S
Cd352 O360 2.223 . S
Cd352 O362 2.297 . S
Cd352 O363 2.439 . S
O353 Cd352 2.240 . S
O353 C358 1.279 . S
O354 Cd351 2.297 . S
O354 C356 1.247 . S
O355 Cd351 2.439 . S
O355 C356 1.208 . S
C356 O354 1.247 . S
C356 O355 1.208 . S
C357 O362 1.247 . S
C357 O363 1.208 . S
C358 O350 1.315 . S
C358 O353 1.279 . S
C359 O360 1.315 . S
C359 O361 1.279 . S
O360 Cd352 2.223 . S
O360 C359 1.315 . S
O361 Cd351 2.240 . S
O361 C359 1.279 . S
O362 Cd352 2.297 . S
O362 C357 1.247 . S
O363 Cd352 2.439 . S
O363 C357 1.208 . S
O364 Cd365 2.223 . S
O364 C372 1.315 . S
Cd365 O364 2.223 . S
Cd365 O368 2.297 . S
Cd365 O369 2.439 . S
Cd365 O375 2.240 . S
Cd366 O367 2.240 . S
Cd366 O374 2.223 . S
Cd366 O376 2.297 . S
Cd366 O377 2.439 . S
O367 Cd366 2.240 . S
O367 C372 1.279 . S
O368 Cd365 2.297 . S
O368 C370 1.247 . S
O369 Cd365 2.439 . S
O369 C370 1.208 . S
C370 O368 1.247 . S
C370 O369 1.208 . S
C371 O376 1.247 . S
C371 O377 1.208 . S
C372 O364 1.315 . S
C372 O367 1.279 . S
C373 O374 1.315 . S
C373 O375 1.279 . S
O374 Cd366 2.223 . S
O374 C373 1.315 . S
O375 Cd365 2.240 . S
O375 C373 1.279 . S
O376 Cd366 2.297 . S
O376 C371 1.247 . S
O377 Cd366 2.439 . S
O377 C371 1.208 . S
O378 Cd379 2.223 . S
O378 C386 1.315 . S
Cd379 O378 2.223 . S
Cd379 O382 2.297 . S
Cd379 O383 2.439 . S
Cd379 O389 2.240 . S
Cd380 O381 2.240 . S
Cd380 O388 2.223 . S
Cd380 O390 2.297 . S
Cd380 O391 2.439 . S
O381 Cd380 2.240 . S
O381 C386 1.279 . S
O382 Cd379 2.297 . S
O382 C384 1.247 . S
O383 Cd379 2.439 . S
O383 C384 1.208 . S
C384 O382 1.247 . S
C384 O383 1.208 . S
C385 O390 1.247 . S
C385 O391 1.208 . S
C386 O378 1.315 . S
C386 O381 1.279 . S
C387 O388 1.315 . S
C387 O389 1.279 . S
O388 Cd380 2.223 . S
O388 C387 1.315 . S
O389 Cd379 2.240 . S
O389 C387 1.279 . S
O390 Cd380 2.297 . S
O390 C385 1.247 . S
O391 Cd380 2.439 . S
O391 C385 1.208 . S
O392 Cd393 2.223 . S
O392 C400 1.315 . S
Cd393 O392 2.223 . S
Cd393 O396 2.297 . S
Cd393 O397 2.439 . S
Cd393 O403 2.240 . S
Cd394 O395 2.240 . S
Cd394 O402 2.223 . S
Cd394 O404 2.297 . S
Cd394 O405 2.439 . S
O395 Cd394 2.240 . S
O395 C400 1.279 . S
O396 Cd393 2.297 . S
O396 C398 1.247 . S
O397 Cd393 2.439 . S
O397 C398 1.208 . S
C398 O396 1.247 . S
C398 O397 1.208 . S
C399 O404 1.247 . S
C399 O405 1.208 . S
C400 O392 1.315 . S
C400 O395 1.279 . S
C401 O402 1.315 . S
C401 O403 1.279 . S
O402 Cd394 2.223 . S
O402 C401 1.315 . S
O403 Cd393 2.240 . S
O403 C401 1.279 . S
O404 Cd394 2.297 . S
O404 C399 1.247 . S
O405 Cd394 2.439 . S
O405 C399 1.208 . S
O406 Cd407 2.223 . S
O406 C414 1.315 . S
Cd407 O406 2.223 . S
Cd407 O410 2.297 . S
Cd407 O411 2.439 . S
Cd407 O417 2.240 . S
Cd408 O409 2.240 . S
Cd408 O416 2.223 . S
Cd408 O418 2.297 . S
Cd408 O419 2.439 . S
O409 Cd408 2.240 . S
O409 C414 1.279 . S
O410 Cd407 2.297 . S
O410 C412 1.247 . S
O411 Cd407 2.439 . S
O411 C412 1.208 . S
C412 O410 1.247 . S
C412 O411 1.208 . S
C413 O418 1.247 . S
C413 O419 1.208 . S
C414 O406 1.315 . S
C414 O409 1.279 . S
C415 O416 1.315 . S
C415 O417 1.279 . S
O416 Cd408 2.223 . S
O416 C415 1.315 . S
O417 Cd407 2.240 . S
O417 C415 1.279 . S
O418 Cd408 2.297 . S
O418 C413 1.247 . S
O419 Cd408 2.439 . S
O419 C413 1.208 . S
O420 Cd421 2.223 . S
O420 C428 1.315 . S
Cd421 O420 2.223 . S
Cd421 O424 2.297 . S
Cd421 O425 2.439 . S
Cd421 O431 2.240 . S
Cd422 O423 2.240 . S
Cd422 O430 2.223 . S
Cd422 O432 2.297 . S
Cd422 O433 2.439 . S
O423 Cd422 2.240 . S
O423 C428 1.279 . S
O424 Cd421 2.297 . S
O424 C426 1.247 . S
O425 Cd421 2.439 . S
O425 C426 1.208 . S
C426 O424 1.247 . S
C426 O425 1.208 . S
C427 O432 1.247 . S
C427 O433 1.208 . S
C428 O420 1.315 . S
C428 O423 1.279 . S
C429 O430 1.315 . S
C429 O431 1.279 . S
O430 Cd422 2.223 . S
O430 C429 1.315 . S
O431 Cd421 2.240 . S
O431 C429 1.279 . S
O432 Cd422 2.297 . S
O432 C427 1.247 . S
O433 Cd422 2.439 . S
O433 C427 1.208 . S
O434 Cd435 2.223 . S
O434 C442 1.315 . S
Cd435 O434 2.223 . S
Cd435 O438 2.297 . S
Cd435 O439 2.439 . S
Cd435 O445 2.240 . S
Cd436 O437 2.240 . S
Cd436 O444 2.223 . S
Cd436 O446 2.297 . S
Cd436 O447 2.439 . S
O437 Cd436 2.240 . S
O437 C442 1.279 . S
O438 Cd435 2.297 . S
O438 C440 1.247 . S
O439 Cd435 2.439 . S
O439 C440 1.208 . S
C440 O438 1.247 . S
C440 O439 1.208 . S
C441 O446 1.247 . S
C441 O447 1.208 . S
C442 O434 1.315 . S
C442 O437 1.279 . S
C443 O444 1.315 . S
C443 O445 1.279 . S
O444 Cd436 2.223 . S
O444 C443 1.315 . S
O445 Cd435 2.240 . S
O445 C443 1.279 . S
O446 Cd436 2.297 . S
O446 C441 1.247 . S
O447 Cd436 2.439 . S
O447 C441 1.208 . S
C448 C449 1.391 . S
C448 C450 1.394 . S
C448 H464 0.931 . S
C449 C448 1.391 . S
C449 C453 1.376 . S
C450 C448 1.394 . S
C450 C451 1.369 . S
C450 C454 1.531 . S
C451 C450 1.369 . S
C451 C452 1.410 . S
C451 C459 1.503 . S
C452 C451 1.410 . S
C452 C453 1.392 . S
C452 C455 1.511 . S
C453 C449 1.376 . S
C453 C452 1.392 . S
C453 H465 0.929 . S
C454 C450 1.531 . S
C454 H466 0.960 . S
C454 H467 0.962 . S
C454 H468 0.960 . S
C455 C452 1.511 . S
C455 H469 0.961 . S
C455 H470 0.961 . S
C455 H471 0.961 . S
C456 C457 1.370 . S
C456 C458 1.363 . S
C456 H472 0.931 . S
C457 C456 1.370 . S
C457 C461 1.408 . S
C458 C456 1.363 . S
C458 C459 1.370 . S
C458 C462 1.524 . S
C459 C451 1.503 . S
C459 C458 1.370 . S
C459 C460 1.403 . S
C460 C459 1.403 . S
C460 C461 1.404 . S
C460 C463 1.539 . S
C461 C457 1.408 . S
C461 C460 1.404 . S
C461 H473 0.930 . S
C462 C458 1.524 . S
C462 H474 0.956 . S
C462 H475 0.961 . S
C462 H476 0.961 . S
C463 C460 1.539 . S
C463 H477 0.958 . S
C463 H478 0.961 . S
C463 H479 0.960 . S
H464 C448 0.931 . S
H465 C453 0.929 . S
H466 C454 0.960 . S
H467 C454 0.962 . S
H468 C454 0.960 . S
H469 C455 0.961 . S
H470 C455 0.961 . S
H471 C455 0.961 . S
H472 C456 0.931 . S
H473 C461 0.930 . S
H474 C462 0.956 . S
H475 C462 0.961 . S
H476 C462 0.961 . S
H477 C463 0.958 . S
H478 C463 0.961 . S
H479 C463 0.960 . S
C480 C481 1.391 . S
C480 C482 1.394 . S
C480 H496 0.931 . S
C481 C480 1.391 . S
C481 C485 1.376 . S
C482 C480 1.394 . S
C482 C483 1.369 . S
C482 C486 1.531 . S
C483 C482 1.369 . S
C483 C484 1.410 . S
C483 C491 1.503 . S
C484 C483 1.410 . S
C484 C485 1.392 . S
C484 C487 1.511 . S
C485 C481 1.376 . S
C485 C484 1.392 . S
C485 H497 0.929 . S
C486 C482 1.531 . S
C486 H498 0.960 . S
C486 H499 0.962 . S
C486 H500 0.960 . S
C487 C484 1.511 . S
C487 H501 0.961 . S
C487 H502 0.961 . S
C487 H503 0.961 . S
C488 C489 1.370 . S
C488 C490 1.363 . S
C488 H504 0.931 . S
C489 C488 1.370 . S
C489 C493 1.408 . S
C490 C488 1.363 . S
C490 C491 1.370 . S
C490 C494 1.524 . S
C491 C483 1.503 . S
C491 C490 1.370 . S
C491 C492 1.403 . S
C492 C491 1.403 . S
C492 C493 1.404 . S
C492 C495 1.539 . S
C493 C489 1.408 . S
C493 C492 1.404 . S
C493 H505 0.930 . S
C494 C490 1.524 . S
C494 H506 0.956 . S
C494 H507 0.961 . S
C494 H508 0.961 . S
C495 C492 1.539 . S
C495 H509 0.958 . S
C495 H510 0.961 . S
C495 H511 0.960 . S
H496 C480 0.931 . S
H497 C485 0.929 . S
H498 C486 0.960 . S
H499 C486 0.962 . S
H500 C486 0.960 . S
H501 C487 0.961 . S
H502 C487 0.961 . S
H503 C487 0.961 . S
H504 C488 0.931 . S
H505 C493 0.930 . S
H506 C494 0.956 . S
H507 C494 0.961 . S
H508 C494 0.961 . S
H509 C495 0.958 . S
H510 C495 0.961 . S
H511 C495 0.960 . S
C512 C513 1.391 . S
C512 C514 1.394 . S
C512 H528 0.931 . S
C513 C512 1.391 . S
C513 C517 1.376 . S
C514 C512 1.394 . S
C514 C515 1.369 . S
C514 C518 1.531 . S
C515 C514 1.369 . S
C515 C516 1.410 . S
C515 C523 1.503 . S
C516 C515 1.410 . S
C516 C517 1.392 . S
C516 C519 1.511 . S
C517 C513 1.376 . S
C517 C516 1.392 . S
C517 H529 0.929 . S
C518 C514 1.531 . S
C518 H530 0.960 . S
C518 H531 0.962 . S
C518 H532 0.960 . S
C519 C516 1.511 . S
C519 H533 0.961 . S
C519 H534 0.961 . S
C519 H535 0.961 . S
C520 C521 1.370 . S
C520 C522 1.363 . S
C520 H536 0.931 . S
C521 C520 1.370 . S
C521 C525 1.408 . S
C522 C520 1.363 . S
C522 C523 1.370 . S
C522 C526 1.524 . S
C523 C515 1.503 . S
C523 C522 1.370 . S
C523 C524 1.403 . S
C524 C523 1.403 . S
C524 C525 1.404 . S
C524 C527 1.539 . S
C525 C521 1.408 . S
C525 C524 1.404 . S
C525 H537 0.930 . S
C526 C522 1.524 . S
C526 H538 0.956 . S
C526 H539 0.961 . S
C526 H540 0.961 . S
C527 C524 1.539 . S
C527 H541 0.958 . S
C527 H542 0.961 . S
C527 H543 0.960 . S
H528 C512 0.931 . S
H529 C517 0.929 . S
H530 C518 0.960 . S
H531 C518 0.962 . S
H532 C518 0.960 . S
H533 C519 0.961 . S
H534 C519 0.961 . S
H535 C519 0.961 . S
H536 C520 0.931 . S
H537 C525 0.930 . S
H538 C526 0.956 . S
H539 C526 0.961 . S
H540 C526 0.961 . S
H541 C527 0.958 . S
H542 C527 0.961 . S
H543 C527 0.960 . S
C544 C545 1.391 . S
C544 C546 1.394 . S
C544 H560 0.931 . S
C545 C544 1.391 . S
C545 C549 1.376 . S
C546 C544 1.394 . S
C546 C547 1.369 . S
C546 C550 1.531 . S
C547 C546 1.369 . S
C547 C548 1.410 . S
C547 C555 1.503 . S
C548 C547 1.410 . S
C548 C549 1.392 . S
C548 C551 1.511 . S
C549 C545 1.376 . S
C549 C548 1.392 . S
C549 H561 0.929 . S
C550 C546 1.531 . S
C550 H562 0.960 . S
C550 H563 0.962 . S
C550 H564 0.960 . S
C551 C548 1.511 . S
C551 H565 0.961 . S
C551 H566 0.961 . S
C551 H567 0.961 . S
C552 C553 1.370 . S
C552 C554 1.363 . S
C552 H568 0.931 . S
C553 C552 1.370 . S
C553 C557 1.408 . S
C554 C552 1.363 . S
C554 C555 1.370 . S
C554 C558 1.524 . S
C555 C547 1.503 . S
C555 C554 1.370 . S
C555 C556 1.403 . S
C556 C555 1.403 . S
C556 C557 1.404 . S
C556 C559 1.539 . S
C557 C553 1.408 . S
C557 C556 1.404 . S
C557 H569 0.930 . S
C558 C554 1.524 . S
C558 H570 0.956 . S
C558 H571 0.961 . S
C558 H572 0.961 . S
C559 C556 1.539 . S
C559 H573 0.958 . S
C559 H574 0.961 . S
C559 H575 0.960 . S
H560 C544 0.931 . S
H561 C549 0.929 . S
H562 C550 0.960 . S
H563 C550 0.962 . S
H564 C550 0.960 . S
H565 C551 0.961 . S
H566 C551 0.961 . S
H567 C551 0.961 . S
H568 C552 0.931 . S
H569 C557 0.930 . S
H570 C558 0.956 . S
H571 C558 0.961 . S
H572 C558 0.961 . S
H573 C559 0.958 . S
H574 C559 0.961 . S
H575 C559 0.960 . S
C576 C577 1.391 . S
C576 C578 1.394 . S
C576 H592 0.931 . S
C577 C576 1.391 . S
C577 C581 1.376 . S
C578 C576 1.394 . S
C578 C579 1.369 . S
C578 C582 1.531 . S
C579 C578 1.369 . S
C579 C580 1.410 . S
C579 C587 1.503 . S
C580 C579 1.410 . S
C580 C581 1.392 . S
C580 C583 1.511 . S
C581 C577 1.376 . S
C581 C580 1.392 . S
C581 H593 0.929 . S
C582 C578 1.531 . S
C582 H594 0.960 . S
C582 H595 0.962 . S
C582 H596 0.960 . S
C583 C580 1.511 . S
C583 H597 0.961 . S
C583 H598 0.961 . S
C583 H599 0.961 . S
C584 C585 1.370 . S
C584 C586 1.363 . S
C584 H600 0.931 . S
C585 C584 1.370 . S
C585 C589 1.408 . S
C586 C584 1.363 . S
C586 C587 1.370 . S
C586 C590 1.524 . S
C587 C579 1.503 . S
C587 C586 1.370 . S
C587 C588 1.403 . S
C588 C587 1.403 . S
C588 C589 1.404 . S
C588 C591 1.539 . S
C589 C585 1.408 . S
C589 C588 1.404 . S
C589 H601 0.930 . S
C590 C586 1.524 . S
C590 H602 0.956 . S
C590 H603 0.961 . S
C590 H604 0.961 . S
C591 C588 1.539 . S
C591 H605 0.958 . S
C591 H606 0.961 . S
C591 H607 0.960 . S
H592 C576 0.931 . S
H593 C581 0.929 . S
H594 C582 0.960 . S
H595 C582 0.962 . S
H596 C582 0.960 . S
H597 C583 0.961 . S
H598 C583 0.961 . S
H599 C583 0.961 . S
H600 C584 0.931 . S
H601 C589 0.930 . S
H602 C590 0.956 . S
H603 C590 0.961 . S
H604 C590 0.961 . S
H605 C591 0.958 . S
H606 C591 0.961 . S
H607 C591 0.960 . S
C608 C609 1.391 . S
C608 C610 1.394 . S
C608 H624 0.931 . S
C609 C608 1.391 . S
C609 C613 1.376 . S
C610 C608 1.394 . S
C610 C611 1.369 . S
C610 C614 1.531 . S
C611 C610 1.369 . S
C611 C612 1.410 . S
C611 C619 1.503 . S
C612 C611 1.410 . S
C612 C613 1.392 . S
C612 C615 1.511 . S
C613 C609 1.376 . S
C613 C612 1.392 . S
C613 H625 0.929 . S
C614 C610 1.531 . S
C614 H626 0.960 . S
C614 H627 0.962 . S
C614 H628 0.960 . S
C615 C612 1.511 . S
C615 H629 0.961 . S
C615 H630 0.961 . S
C615 H631 0.961 . S
C616 C617 1.370 . S
C616 C618 1.363 . S
C616 H632 0.931 . S
C617 C616 1.370 . S
C617 C621 1.408 . S
C618 C616 1.363 . S
C618 C619 1.370 . S
C618 C622 1.524 . S
C619 C611 1.503 . S
C619 C618 1.370 . S
C619 C620 1.403 . S
C620 C619 1.403 . S
C620 C621 1.404 . S
C620 C623 1.539 . S
C621 C617 1.408 . S
C621 C620 1.404 . S
C621 H633 0.930 . S
C622 C618 1.524 . S
C622 H634 0.956 . S
C622 H635 0.961 . S
C622 H636 0.961 . S
C623 C620 1.539 . S
C623 H637 0.958 . S
C623 H638 0.961 . S
C623 H639 0.960 . S
H624 C608 0.931 . S
H625 C613 0.929 . S
H626 C614 0.960 . S
H627 C614 0.962 . S
H628 C614 0.960 . S
H629 C615 0.961 . S
H630 C615 0.961 . S
H631 C615 0.961 . S
H632 C616 0.931 . S
H633 C621 0.930 . S
H634 C622 0.956 . S
H635 C622 0.961 . S
H636 C622 0.961 . S
H637 C623 0.958 . S
H638 C623 0.961 . S
H639 C623 0.960 . S
C640 C641 1.391 . S
C640 C642 1.394 . S
C640 H656 0.931 . S
C641 C640 1.391 . S
C641 C645 1.376 . S
C642 C640 1.394 . S
C642 C643 1.369 . S
C642 C646 1.531 . S
C643 C642 1.369 . S
C643 C644 1.410 . S
C643 C651 1.503 . S
C644 C643 1.410 . S
C644 C645 1.392 . S
C644 C647 1.511 . S
C645 C641 1.376 . S
C645 C644 1.392 . S
C645 H657 0.929 . S
C646 C642 1.531 . S
C646 H658 0.960 . S
C646 H659 0.962 . S
C646 H660 0.960 . S
C647 C644 1.511 . S
C647 H661 0.961 . S
C647 H662 0.961 . S
C647 H663 0.961 . S
C648 C649 1.370 . S
C648 C650 1.363 . S
C648 H664 0.931 . S
C649 C648 1.370 . S
C649 C653 1.408 . S
C650 C648 1.363 . S
C650 C651 1.370 . S
C650 C654 1.524 . S
C651 C643 1.503 . S
C651 C650 1.370 . S
C651 C652 1.403 . S
C652 C651 1.403 . S
C652 C653 1.404 . S
C652 C655 1.539 . S
C653 C649 1.408 . S
C653 C652 1.404 . S
C653 H665 0.930 . S
C654 C650 1.524 . S
C654 H666 0.956 . S
C654 H667 0.961 . S
C654 H668 0.961 . S
C655 C652 1.539 . S
C655 H669 0.958 . S
C655 H670 0.961 . S
C655 H671 0.960 . S
H656 C640 0.931 . S
H657 C645 0.929 . S
H658 C646 0.960 . S
H659 C646 0.962 . S
H660 C646 0.960 . S
H661 C647 0.961 . S
H662 C647 0.961 . S
H663 C647 0.961 . S
H664 C648 0.931 . S
H665 C653 0.930 . S
H666 C654 0.956 . S
H667 C654 0.961 . S
H668 C654 0.961 . S
H669 C655 0.958 . S
H670 C655 0.961 . S
H671 C655 0.960 . S
C672 C673 1.391 . S
C672 C674 1.394 . S
C672 H688 0.931 . S
C673 C672 1.391 . S
C673 C677 1.376 . S
C674 C672 1.394 . S
C674 C675 1.369 . S
C674 C678 1.531 . S
C675 C674 1.369 . S
C675 C676 1.410 . S
C675 C683 1.503 . S
C676 C675 1.410 . S
C676 C677 1.392 . S
C676 C679 1.511 . S
C677 C673 1.376 . S
C677 C676 1.392 . S
C677 H689 0.929 . S
C678 C674 1.531 . S
C678 H690 0.960 . S
C678 H691 0.962 . S
C678 H692 0.960 . S
C679 C676 1.511 . S
C679 H693 0.961 . S
C679 H694 0.961 . S
C679 H695 0.961 . S
C680 C681 1.370 . S
C680 C682 1.363 . S
C680 H696 0.931 . S
C681 C680 1.370 . S
C681 C685 1.408 . S
C682 C680 1.363 . S
C682 C683 1.370 . S
C682 C686 1.524 . S
C683 C675 1.503 . S
C683 C682 1.370 . S
C683 C684 1.403 . S
C684 C683 1.403 . S
C684 C685 1.404 . S
C684 C687 1.539 . S
C685 C681 1.408 . S
C685 C684 1.404 . S
C685 H697 0.930 . S
C686 C682 1.524 . S
C686 H698 0.956 . S
C686 H699 0.961 . S
C686 H700 0.961 . S
C687 C684 1.539 . S
C687 H701 0.958 . S
C687 H702 0.961 . S
C687 H703 0.960 . S
H688 C672 0.931 . S
H689 C677 0.929 . S
H690 C678 0.960 . S
H691 C678 0.962 . S
H692 C678 0.960 . S
H693 C679 0.961 . S
H694 C679 0.961 . S
H695 C679 0.961 . S
H696 C680 0.931 . S
H697 C685 0.930 . S
H698 C686 0.956 . S
H699 C686 0.961 . S
H700 C686 0.961 . S
H701 C687 0.958 . S
H702 C687 0.961 . S
H703 C687 0.960 . S
C704 C705 1.391 . S
C704 C706 1.394 . S
C704 H720 0.931 . S
C705 C704 1.391 . S
C705 C709 1.376 . S
C706 C704 1.394 . S
C706 C707 1.369 . S
C706 C710 1.531 . S
C707 C706 1.369 . S
C707 C708 1.410 . S
C707 C715 1.503 . S
C708 C707 1.410 . S
C708 C709 1.392 . S
C708 C711 1.511 . S
C709 C705 1.376 . S
C709 C708 1.392 . S
C709 H721 0.929 . S
C710 C706 1.531 . S
C710 H722 0.960 . S
C710 H723 0.962 . S
C710 H724 0.960 . S
C711 C708 1.511 . S
C711 H725 0.961 . S
C711 H726 0.961 . S
C711 H727 0.961 . S
C712 C713 1.370 . S
C712 C714 1.363 . S
C712 H728 0.931 . S
C713 C712 1.370 . S
C713 C717 1.408 . S
C714 C712 1.363 . S
C714 C715 1.370 . S
C714 C718 1.524 . S
C715 C707 1.503 . S
C715 C714 1.370 . S
C715 C716 1.403 . S
C716 C715 1.403 . S
C716 C717 1.404 . S
C716 C719 1.539 . S
C717 C713 1.408 . S
C717 C716 1.404 . S
C717 H729 0.930 . S
C718 C714 1.524 . S
C718 H730 0.956 . S
C718 H731 0.961 . S
C718 H732 0.961 . S
C719 C716 1.539 . S
C719 H733 0.958 . S
C719 H734 0.961 . S
C719 H735 0.960 . S
H720 C704 0.931 . S
H721 C709 0.929 . S
H722 C710 0.960 . S
H723 C710 0.962 . S
H724 C710 0.960 . S
H725 C711 0.961 . S
H726 C711 0.961 . S
H727 C711 0.961 . S
H728 C712 0.931 . S
H729 C717 0.930 . S
H730 C718 0.956 . S
H731 C718 0.961 . S
H732 C718 0.961 . S
H733 C719 0.958 . S
H734 C719 0.961 . S
H735 C719 0.960 . S
C736 C737 1.391 . S
C736 C738 1.394 . S
C736 H752 0.931 . S
C737 C736 1.391 . S
C737 C741 1.376 . S
C738 C736 1.394 . S
C738 C739 1.369 . S
C738 C742 1.531 . S
C739 C738 1.369 . S
C739 C740 1.410 . S
C739 C747 1.503 . S
C740 C739 1.410 . S
C740 C741 1.392 . S
C740 C743 1.511 . S
C741 C737 1.376 . S
C741 C740 1.392 . S
C741 H753 0.929 . S
C742 C738 1.531 . S
C742 H754 0.960 . S
C742 H755 0.962 . S
C742 H756 0.960 . S
C743 C740 1.511 . S
C743 H757 0.961 . S
C743 H758 0.961 . S
C743 H759 0.961 . S
C744 C745 1.370 . S
C744 C746 1.363 . S
C744 H760 0.931 . S
C745 C744 1.370 . S
C745 C749 1.408 . S
C746 C744 1.363 . S
C746 C747 1.370 . S
C746 C750 1.524 . S
C747 C739 1.503 . S
C747 C746 1.370 . S
C747 C748 1.403 . S
C748 C747 1.403 . S
C748 C749 1.404 . S
C748 C751 1.539 . S
C749 C745 1.408 . S
C749 C748 1.404 . S
C749 H761 0.930 . S
C750 C746 1.524 . S
C750 H762 0.956 . S
C750 H763 0.961 . S
C750 H764 0.961 . S
C751 C748 1.539 . S
C751 H765 0.958 . S
C751 H766 0.961 . S
C751 H767 0.960 . S
H752 C736 0.931 . S
H753 C741 0.929 . S
H754 C742 0.960 . S
H755 C742 0.962 . S
H756 C742 0.960 . S
H757 C743 0.961 . S
H758 C743 0.961 . S
H759 C743 0.961 . S
H760 C744 0.931 . S
H761 C749 0.930 . S
H762 C750 0.956 . S
H763 C750 0.961 . S
H764 C750 0.961 . S
H765 C751 0.958 . S
H766 C751 0.961 . S
H767 C751 0.960 . S
C768 C769 1.391 . S
C768 C770 1.394 . S
C768 H784 0.931 . S
C769 C768 1.391 . S
C769 C773 1.376 . S
C770 C768 1.394 . S
C770 C771 1.369 . S
C770 C774 1.531 . S
C771 C770 1.369 . S
C771 C772 1.410 . S
C771 C779 1.503 . S
C772 C771 1.410 . S
C772 C773 1.392 . S
C772 C775 1.511 . S
C773 C769 1.376 . S
C773 C772 1.392 . S
C773 H785 0.929 . S
C774 C770 1.531 . S
C774 H786 0.960 . S
C774 H787 0.962 . S
C774 H788 0.960 . S
C775 C772 1.511 . S
C775 H789 0.961 . S
C775 H790 0.961 . S
C775 H791 0.961 . S
C776 C777 1.370 . S
C776 C778 1.363 . S
C776 H792 0.931 . S
C777 C776 1.370 . S
C777 C781 1.408 . S
C778 C776 1.363 . S
C778 C779 1.370 . S
C778 C782 1.524 . S
C779 C771 1.503 . S
C779 C778 1.370 . S
C779 C780 1.403 . S
C780 C779 1.403 . S
C780 C781 1.404 . S
C780 C783 1.539 . S
C781 C777 1.408 . S
C781 C780 1.404 . S
C781 H793 0.930 . S
C782 C778 1.524 . S
C782 H794 0.956 . S
C782 H795 0.961 . S
C782 H796 0.961 . S
C783 C780 1.539 . S
C783 H797 0.958 . S
C783 H798 0.961 . S
C783 H799 0.960 . S
H784 C768 0.931 . S
H785 C773 0.929 . S
H786 C774 0.960 . S
H787 C774 0.962 . S
H788 C774 0.960 . S
H789 C775 0.961 . S
H790 C775 0.961 . S
H791 C775 0.961 . S
H792 C776 0.931 . S
H793 C781 0.930 . S
H794 C782 0.956 . S
H795 C782 0.961 . S
H796 C782 0.961 . S
H797 C783 0.958 . S
H798 C783 0.961 . S
H799 C783 0.960 . S
C800 C801 1.391 . S
C800 C802 1.394 . S
C800 H816 0.931 . S
C801 C800 1.391 . S
C801 C805 1.376 . S
C802 C800 1.394 . S
C802 C803 1.369 . S
C802 C806 1.531 . S
C803 C802 1.369 . S
C803 C804 1.410 . S
C803 C811 1.503 . S
C804 C803 1.410 . S
C804 C805 1.392 . S
C804 C807 1.511 . S
C805 C801 1.376 . S
C805 C804 1.392 . S
C805 H817 0.929 . S
C806 C802 1.531 . S
C806 H818 0.960 . S
C806 H819 0.962 . S
C806 H820 0.960 . S
C807 C804 1.511 . S
C807 H821 0.961 . S
C807 H822 0.961 . S
C807 H823 0.961 . S
C808 C809 1.370 . S
C808 C810 1.363 . S
C808 H824 0.931 . S
C809 C808 1.370 . S
C809 C813 1.408 . S
C810 C808 1.363 . S
C810 C811 1.370 . S
C810 C814 1.524 . S
C811 C803 1.503 . S
C811 C810 1.370 . S
C811 C812 1.403 . S
C812 C811 1.403 . S
C812 C813 1.404 . S
C812 C815 1.539 . S
C813 C809 1.408 . S
C813 C812 1.404 . S
C813 H825 0.930 . S
C814 C810 1.524 . S
C814 H826 0.956 . S
C814 H827 0.961 . S
C814 H828 0.961 . S
C815 C812 1.539 . S
C815 H829 0.958 . S
C815 H830 0.961 . S
C815 H831 0.960 . S
H816 C800 0.931 . S
H817 C805 0.929 . S
H818 C806 0.960 . S
H819 C806 0.962 . S
H820 C806 0.960 . S
H821 C807 0.961 . S
H822 C807 0.961 . S
H823 C807 0.961 . S
H824 C808 0.931 . S
H825 C813 0.930 . S
H826 C814 0.956 . S
H827 C814 0.961 . S
H828 C814 0.961 . S
H829 C815 0.958 . S
H830 C815 0.961 . S
H831 C815 0.960 . S
C832 C833 1.391 . S
C832 C834 1.394 . S
C832 H848 0.931 . S
C833 C832 1.391 . S
C833 C837 1.376 . S
C834 C832 1.394 . S
C834 C835 1.369 . S
C834 C838 1.531 . S
C835 C834 1.369 . S
C835 C836 1.410 . S
C835 C843 1.503 . S
C836 C835 1.410 . S
C836 C837 1.392 . S
C836 C839 1.511 . S
C837 C833 1.376 . S
C837 C836 1.392 . S
C837 H849 0.929 . S
C838 C834 1.531 . S
C838 H850 0.960 . S
C838 H851 0.962 . S
C838 H852 0.960 . S
C839 C836 1.511 . S
C839 H853 0.961 . S
C839 H854 0.961 . S
C839 H855 0.961 . S
C840 C841 1.370 . S
C840 C842 1.363 . S
C840 H856 0.931 . S
C841 C840 1.370 . S
C841 C845 1.408 . S
C842 C840 1.363 . S
C842 C843 1.370 . S
C842 C846 1.524 . S
C843 C835 1.503 . S
C843 C842 1.370 . S
C843 C844 1.403 . S
C844 C843 1.403 . S
C844 C845 1.404 . S
C844 C847 1.539 . S
C845 C841 1.408 . S
C845 C844 1.404 . S
C845 H857 0.930 . S
C846 C842 1.524 . S
C846 H858 0.956 . S
C846 H859 0.961 . S
C846 H860 0.961 . S
C847 C844 1.539 . S
C847 H861 0.958 . S
C847 H862 0.961 . S
C847 H863 0.960 . S
H848 C832 0.931 . S
H849 C837 0.929 . S
H850 C838 0.960 . S
H851 C838 0.962 . S
H852 C838 0.960 . S
H853 C839 0.961 . S
H854 C839 0.961 . S
H855 C839 0.961 . S
H856 C840 0.931 . S
H857 C845 0.930 . S
H858 C846 0.956 . S
H859 C846 0.961 . S
H860 C846 0.961 . S
H861 C847 0.958 . S
H862 C847 0.961 . S
H863 C847 0.960 . S
C864 C865 1.391 . S
C864 C866 1.394 . S
C864 H880 0.931 . S
C865 C864 1.391 . S
C865 C869 1.376 . S
C866 C864 1.394 . S
C866 C867 1.369 . S
C866 C870 1.531 . S
C867 C866 1.369 . S
C867 C868 1.410 . S
C867 C875 1.503 . S
C868 C867 1.410 . S
C868 C869 1.392 . S
C868 C871 1.511 . S
C869 C865 1.376 . S
C869 C868 1.392 . S
C869 H881 0.929 . S
C870 C866 1.531 . S
C870 H882 0.960 . S
C870 H883 0.962 . S
C870 H884 0.960 . S
C871 C868 1.511 . S
C871 H885 0.961 . S
C871 H886 0.961 . S
C871 H887 0.961 . S
C872 C873 1.370 . S
C872 C874 1.363 . S
C872 H888 0.931 . S
C873 C872 1.370 . S
C873 C877 1.408 . S
C874 C872 1.363 . S
C874 C875 1.370 . S
C874 C878 1.524 . S
C875 C867 1.503 . S
C875 C874 1.370 . S
C875 C876 1.403 . S
C876 C875 1.403 . S
C876 C877 1.404 . S
C876 C879 1.539 . S
C877 C873 1.408 . S
C877 C876 1.404 . S
C877 H889 0.930 . S
C878 C874 1.524 . S
C878 H890 0.956 . S
C878 H891 0.961 . S
C878 H892 0.961 . S
C879 C876 1.539 . S
C879 H893 0.958 . S
C879 H894 0.961 . S
C879 H895 0.960 . S
H880 C864 0.931 . S
H881 C869 0.929 . S
H882 C870 0.960 . S
H883 C870 0.962 . S
H884 C870 0.960 . S
H885 C871 0.961 . S
H886 C871 0.961 . S
H887 C871 0.961 . S
H888 C872 0.931 . S
H889 C877 0.930 . S
H890 C878 0.956 . S
H891 C878 0.961 . S
H892 C878 0.961 . S
H893 C879 0.958 . S
H894 C879 0.961 . S
H895 C879 0.960 . S
C896 C897 1.391 . S
C896 C898 1.394 . S
C896 H912 0.931 . S
C897 C896 1.391 . S
C897 C901 1.376 . S
C898 C896 1.394 . S
C898 C899 1.369 . S
C898 C902 1.531 . S
C899 C898 1.369 . S
C899 C900 1.410 . S
C899 C907 1.503 . S
C900 C899 1.410 . S
C900 C901 1.392 . S
C900 C903 1.511 . S
C901 C897 1.376 . S
C901 C900 1.392 . S
C901 H913 0.929 . S
C902 C898 1.531 . S
C902 H914 0.960 . S
C902 H915 0.962 . S
C902 H916 0.960 . S
C903 C900 1.511 . S
C903 H917 0.961 . S
C903 H918 0.961 . S
C903 H919 0.961 . S
C904 C905 1.370 . S
C904 C906 1.363 . S
C904 H920 0.931 . S
C905 C904 1.370 . S
C905 C909 1.408 . S
C906 C904 1.363 . S
C906 C907 1.370 . S
C906 C910 1.524 . S
C907 C899 1.503 . S
C907 C906 1.370 . S
C907 C908 1.403 . S
C908 C907 1.403 . S
C908 C909 1.404 . S
C908 C911 1.539 . S
C909 C905 1.408 . S
C909 C908 1.404 . S
C909 H921 0.930 . S
C910 C906 1.524 . S
C910 H922 0.956 . S
C910 H923 0.961 . S
C910 H924 0.961 . S
C911 C908 1.539 . S
C911 H925 0.958 . S
C911 H926 0.961 . S
C911 H927 0.960 . S
H912 C896 0.931 . S
H913 C901 0.929 . S
H914 C902 0.960 . S
H915 C902 0.962 . S
H916 C902 0.960 . S
H917 C903 0.961 . S
H918 C903 0.961 . S
H919 C903 0.961 . S
H920 C904 0.931 . S
H921 C909 0.930 . S
H922 C910 0.956 . S
H923 C910 0.961 . S
H924 C910 0.961 . S
H925 C911 0.958 . S
H926 C911 0.961 . S
H927 C911 0.960 . S
C928 C929 1.391 . S
C928 C930 1.394 . S
C928 H944 0.931 . S
C929 C928 1.391 . S
C929 C933 1.376 . S
C930 C928 1.394 . S
C930 C931 1.369 . S
C930 C934 1.531 . S
C931 C930 1.369 . S
C931 C932 1.410 . S
C931 C939 1.503 . S
C932 C931 1.410 . S
C932 C933 1.392 . S
C932 C935 1.511 . S
C933 C929 1.376 . S
C933 C932 1.392 . S
C933 H945 0.929 . S
C934 C930 1.531 . S
C934 H946 0.960 . S
C934 H947 0.962 . S
C934 H948 0.960 . S
C935 C932 1.511 . S
C935 H949 0.961 . S
C935 H950 0.961 . S
C935 H951 0.961 . S
C936 C937 1.370 . S
C936 C938 1.363 . S
C936 H952 0.931 . S
C937 C936 1.370 . S
C937 C941 1.408 . S
C938 C936 1.363 . S
C938 C939 1.370 . S
C938 C942 1.524 . S
C939 C931 1.503 . S
C939 C938 1.370 . S
C939 C940 1.403 . S
C940 C939 1.403 . S
C940 C941 1.404 . S
C940 C943 1.539 . S
C941 C937 1.408 . S
C941 C940 1.404 . S
C941 H953 0.930 . S
C942 C938 1.524 . S
C942 H954 0.956 . S
C942 H955 0.961 . S
C942 H956 0.961 . S
C943 C940 1.539 . S
C943 H957 0.958 . S
C943 H958 0.961 . S
C943 H959 0.960 . S
H944 C928 0.931 . S
H945 C933 0.929 . S
H946 C934 0.960 . S
H947 C934 0.962 . S
H948 C934 0.960 . S
H949 C935 0.961 . S
H950 C935 0.961 . S
H951 C935 0.961 . S
H952 C936 0.931 . S
H953 C941 0.930 . S
H954 C942 0.956 . S
H955 C942 0.961 . S
H956 C942 0.961 . S
H957 C943 0.958 . S
H958 C943 0.961 . S
H959 C943 0.960 . S
C960 C961 1.391 . S
C960 C962 1.394 . S
C960 H976 0.931 . S
C961 C960 1.391 . S
C961 C965 1.376 . S
C962 C960 1.394 . S
C962 C963 1.369 . S
C962 C966 1.531 1_554 S
C963 C962 1.369 . S
C963 C964 1.410 . S
C963 C971 1.503 1_455 S
C964 C963 1.410 . S
C964 C965 1.392 . S
C964 C967 1.511 . S
C965 C961 1.376 . S
C965 C964 1.392 . S
C965 H977 0.929 . S
C966 C962 1.531 1_556 S
C966 H978 0.960 1_455 S
C966 H979 0.962 . S
C966 H980 0.960 . S
C967 C964 1.511 . S
C967 H981 0.961 . S
C967 H982 0.961 1_455 S
C967 H983 0.961 . S
C968 C969 1.370 . S
C968 C970 1.363 . S
C968 H984 0.931 . S
C969 C968 1.370 . S
C969 C973 1.408 . S
C970 C968 1.363 . S
C970 C971 1.370 . S
C970 C974 1.524 . S
C971 C963 1.503 1_655 S
C971 C970 1.370 . S
C971 C972 1.403 . S
C972 C971 1.403 . S
C972 C973 1.404 . S
C972 C975 1.539 . S
C973 C969 1.408 . S
C973 C972 1.404 . S
C973 H985 0.930 . S
C974 C970 1.524 . S
C974 H986 0.984 . S
C974 H987 0.961 1_655 S
C974 H988 0.961 . S
C975 C972 1.539 . S
C975 H989 0.958 . S
C975 H990 0.961 . S
C975 H991 0.970 . S
H976 C960 0.931 . S
H977 C965 0.929 . S
H978 C966 0.960 1_655 S
H979 C966 0.962 . S
H980 C966 0.960 . S
H981 C967 0.961 . S
H982 C967 0.961 1_655 S
H983 C967 0.961 . S
H984 C968 0.931 . S
H985 C973 0.930 . S
H986 C974 0.984 . S
H987 C974 0.961 1_455 S
H988 C974 0.961 . S
H989 C975 0.958 . S
H990 C975 0.961 . S
H991 C975 0.970 . S
C992 C993 1.391 . S
C992 C994 1.394 . S
C992 H1008 0.931 . S
C993 C992 1.391 . S
C993 C997 1.376 . S
C994 C992 1.394 . S
C994 C995 1.369 . S
C994 C998 1.531 . S
C995 C994 1.369 . S
C995 C996 1.410 . S
C995 C1003 1.503 . S
C996 C995 1.410 . S
C996 C997 1.392 . S
C996 C999 1.511 . S
C997 C993 1.376 . S
C997 C996 1.392 . S
C997 H1009 0.929 . S
C998 C994 1.531 . S
C998 H1010 0.960 . S
C998 H1011 0.962 . S
C998 H1012 0.960 . S
C999 C996 1.511 . S
C999 H1013 0.961 . S
C999 H1014 0.961 . S
C999 H1015 0.961 . S
C1000 C1001 1.370 . S
C1000 C1002 1.363 . S
C1000 H1016 0.931 . S
C1001 C1000 1.370 . S
C1001 C1005 1.408 . S
C1002 C1000 1.363 . S
C1002 C1003 1.370 . S
C1002 C1006 1.524 . S
C1003 C995 1.503 . S
C1003 C1002 1.370 . S
C1003 C1004 1.403 . S
C1004 C1003 1.403 . S
C1004 C1005 1.404 . S
C1004 C1007 1.539 . S
C1005 C1001 1.408 . S
C1005 C1004 1.404 . S
C1005 H1017 0.930 . S
C1006 C1002 1.524 . S
C1006 H1018 0.956 . S
C1006 H1019 0.961 . S
C1006 H1020 0.961 . S
C1007 C1004 1.539 . S
C1007 H1021 0.958 . S
C1007 H1022 0.961 . S
C1007 H1023 0.960 . S
H1008 C992 0.931 . S
H1009 C997 0.929 . S
H1010 C998 0.960 . S
H1011 C998 0.962 . S
H1012 C998 0.960 . S
H1013 C999 0.961 . S
H1014 C999 0.961 . S
H1015 C999 0.961 . S
H1016 C1000 0.931 . S
H1017 C1005 0.930 . S
H1018 C1006 0.956 . S
H1019 C1006 0.961 . S
H1020 C1006 0.961 . S
H1021 C1007 0.958 . S
H1022 C1007 0.961 . S
H1023 C1007 0.960 . S
C1024 C1025 1.391 . S
C1024 C1026 1.394 . S
C1024 H1040 0.931 . S
C1025 C1024 1.391 . S
C1025 C1029 1.376 . S
C1026 C1024 1.394 . S
C1026 C1027 1.369 . S
C1026 C1030 1.531 . S
C1027 C1026 1.369 . S
C1027 C1028 1.410 . S
C1027 C1035 1.503 . S
C1028 C1027 1.410 . S
C1028 C1029 1.392 . S
C1028 C1031 1.511 . S
C1029 C1025 1.376 . S
C1029 C1028 1.392 . S
C1029 H1041 0.929 . S
C1030 C1026 1.531 . S
C1030 H1042 0.960 . S
C1030 H1043 0.962 . S
C1030 H1044 0.960 . S
C1031 C1028 1.511 . S
C1031 H1045 0.961 . S
C1031 H1046 0.961 . S
C1031 H1047 0.961 . S
C1032 C1033 1.370 . S
C1032 C1034 1.363 . S
C1032 H1048 0.931 . S
C1033 C1032 1.370 . S
C1033 C1037 1.408 . S
C1034 C1032 1.363 . S
C1034 C1035 1.370 . S
C1034 C1038 1.524 . S
C1035 C1027 1.503 . S
C1035 C1034 1.370 . S
C1035 C1036 1.403 . S
C1036 C1035 1.403 . S
C1036 C1037 1.404 . S
C1036 C1039 1.539 . S
C1037 C1033 1.408 . S
C1037 C1036 1.404 . S
C1037 H1049 0.930 . S
C1038 C1034 1.524 . S
C1038 H1050 0.956 . S
C1038 H1051 0.961 . S
C1038 H1052 0.961 . S
C1039 C1036 1.539 . S
C1039 H1053 0.958 . S
C1039 H1054 0.961 . S
C1039 H1055 0.960 . S
H1040 C1024 0.931 . S
H1041 C1029 0.929 . S
H1042 C1030 0.960 . S
H1043 C1030 0.962 . S
H1044 C1030 0.960 . S
H1045 C1031 0.961 . S
H1046 C1031 0.961 . S
H1047 C1031 0.961 . S
H1048 C1032 0.931 . S
H1049 C1037 0.930 . S
H1050 C1038 0.956 . S
H1051 C1038 0.961 . S
H1052 C1038 0.961 . S
H1053 C1039 0.958 . S
H1054 C1039 0.961 . S
H1055 C1039 0.960 . S
C1056 C1057 1.391 . S
C1056 C1058 1.394 . S
C1056 H1072 0.931 . S
C1057 C1056 1.391 . S
C1057 C1061 1.376 . S
C1058 C1056 1.394 . S
C1058 C1059 1.369 . S
C1058 C1062 1.531 . S
C1059 C1058 1.369 . S
C1059 C1060 1.410 . S
C1059 C1067 1.503 . S
C1060 C1059 1.410 . S
C1060 C1061 1.392 . S
C1060 C1063 1.511 . S
C1061 C1057 1.376 . S
C1061 C1060 1.392 . S
C1061 H1073 0.929 . S
C1062 C1058 1.531 . S
C1062 H1074 0.960 . S
C1062 H1075 0.962 . S
C1062 H1076 0.960 . S
C1063 C1060 1.511 . S
C1063 H1077 0.961 . S
C1063 H1078 0.961 . S
C1063 H1079 0.961 . S
C1064 C1065 1.370 . S
C1064 C1066 1.363 . S
C1064 H1080 0.931 . S
C1065 C1064 1.370 . S
C1065 C1069 1.408 . S
C1066 C1064 1.363 . S
C1066 C1067 1.370 . S
C1066 C1070 1.524 . S
C1067 C1059 1.503 . S
C1067 C1066 1.370 . S
C1067 C1068 1.403 . S
C1068 C1067 1.403 . S
C1068 C1069 1.404 . S
C1068 C1071 1.539 . S
C1069 C1065 1.408 . S
C1069 C1068 1.404 . S
C1069 H1081 0.930 . S
C1070 C1066 1.524 . S
C1070 H1082 0.956 . S
C1070 H1083 0.961 . S
C1070 H1084 0.961 . S
C1071 C1068 1.539 . S
C1071 H1085 0.958 . S
C1071 H1086 0.961 . S
C1071 H1087 0.960 . S
H1072 C1056 0.931 . S
H1073 C1061 0.929 . S
H1074 C1062 0.960 . S
H1075 C1062 0.962 . S
H1076 C1062 0.960 . S
H1077 C1063 0.961 . S
H1078 C1063 0.961 . S
H1079 C1063 0.961 . S
H1080 C1064 0.931 . S
H1081 C1069 0.930 . S
H1082 C1070 0.956 . S
H1083 C1070 0.961 . S
H1084 C1070 0.961 . S
H1085 C1071 0.958 . S
H1086 C1071 0.961 . S
H1087 C1071 0.960 . S
C1088 C1089 1.391 . S
C1088 C1090 1.394 . S
C1088 H1104 0.931 . S
C1089 C1088 1.391 . S
C1089 C1093 1.376 . S
C1090 C1088 1.394 . S
C1090 C1091 1.369 . S
C1090 C1094 1.531 . S
C1091 C1090 1.369 . S
C1091 C1092 1.410 . S
C1091 C1099 1.503 1_655 S
C1092 C1091 1.410 . S
C1092 C1093 1.392 . S
C1092 C1095 1.511 . S
C1093 C1089 1.376 . S
C1093 C1092 1.392 . S
C1093 H1105 0.929 . S
C1094 C1090 1.531 . S
C1094 H1106 0.960 1_655 S
C1094 H1107 0.962 . S
C1094 H1108 0.960 . S
C1095 C1092 1.511 . S
C1095 H1109 0.961 . S
C1095 H1110 0.961 1_655 S
C1095 H1111 0.961 . S
C1096 C1097 1.370 . S
C1096 C1098 1.363 . S
C1096 H1112 0.931 . S
C1097 C1096 1.370 . S
C1097 C1101 1.408 . S
C1098 C1096 1.363 . S
C1098 C1099 1.370 . S
C1098 C1102 1.524 . S
C1099 C1091 1.503 1_455 S
C1099 C1098 1.370 . S
C1099 C1100 1.403 . S
C1100 C1099 1.403 . S
C1100 C1101 1.404 . S
C1100 C1103 1.539 . S
C1101 C1097 1.408 . S
C1101 C1100 1.404 . S
C1101 H1113 0.930 . S
C1102 C1098 1.524 . S
C1102 H1114 0.984 1_556 S
C1102 H1115 0.961 1_455 S
C1102 H1116 0.961 1_556 S
C1103 C1100 1.539 . S
C1103 H1117 0.958 . S
C1103 H1118 0.961 . S
C1103 H1119 0.970 . S
H1104 C1088 0.931 . S
H1105 C1093 0.929 . S
H1106 C1094 0.960 1_455 S
H1107 C1094 0.962 . S
H1108 C1094 0.960 . S
H1109 C1095 0.961 . S
H1110 C1095 0.961 1_455 S
H1111 C1095 0.961 . S
H1112 C1096 0.931 . S
H1113 C1101 0.930 . S
H1114 C1102 0.984 1_554 S
H1115 C1102 0.961 1_655 S
H1116 C1102 0.961 1_554 S
H1117 C1103 0.958 . S
H1118 C1103 0.961 . S
H1119 C1103 0.970 . S
C1120 C1121 1.391 . S
C1120 C1122 1.394 . S
C1120 H1136 0.931 . S
C1121 C1120 1.391 . S
C1121 C1125 1.376 . S
C1122 C1120 1.394 . S
C1122 C1123 1.369 . S
C1122 C1126 1.531 . S
C1123 C1122 1.369 . S
C1123 C1124 1.410 . S
C1123 C1131 1.503 . S
C1124 C1123 1.410 . S
C1124 C1125 1.392 . S
C1124 C1127 1.511 . S
C1125 C1121 1.376 . S
C1125 C1124 1.392 . S
C1125 H1137 0.929 . S
C1126 C1122 1.531 . S
C1126 H1138 0.960 . S
C1126 H1139 0.962 . S
C1126 H1140 0.960 . S
C1127 C1124 1.511 . S
C1127 H1141 0.961 . S
C1127 H1142 0.961 . S
C1127 H1143 0.961 . S
C1128 C1129 1.370 . S
C1128 C1130 1.363 . S
C1128 H1144 0.931 . S
C1129 C1128 1.370 . S
C1129 C1133 1.408 . S
C1130 C1128 1.363 . S
C1130 C1131 1.370 . S
C1130 C1134 1.524 . S
C1131 C1123 1.503 . S
C1131 C1130 1.370 . S
C1131 C1132 1.403 . S
C1132 C1131 1.403 . S
C1132 C1133 1.404 . S
C1132 C1135 1.539 . S
C1133 C1129 1.408 . S
C1133 C1132 1.404 . S
C1133 H1145 0.930 . S
C1134 C1130 1.524 . S
C1134 H1146 0.956 . S
C1134 H1147 0.961 . S
C1134 H1148 0.961 . S
C1135 C1132 1.539 . S
C1135 H1149 0.958 . S
C1135 H1150 0.961 . S
C1135 H1151 0.960 . S
H1136 C1120 0.931 . S
H1137 C1125 0.929 . S
H1138 C1126 0.960 . S
H1139 C1126 0.962 . S
H1140 C1126 0.960 . S
H1141 C1127 0.961 . S
H1142 C1127 0.961 . S
H1143 C1127 0.961 . S
H1144 C1128 0.931 . S
H1145 C1133 0.930 . S
H1146 C1134 0.956 . S
H1147 C1134 0.961 . S
H1148 C1134 0.961 . S
H1149 C1135 0.958 . S
H1150 C1135 0.961 . S
H1151 C1135 0.960 . S
C1152 C1153 1.391 . S
C1152 C1154 1.394 . S
C1152 H1168 0.931 . S
C1153 C1152 1.391 . S
C1153 C1157 1.376 . S
C1154 C1152 1.394 . S
C1154 C1155 1.369 . S
C1154 C1158 1.531 . S
C1155 C1154 1.369 . S
C1155 C1156 1.410 . S
C1155 C1163 1.503 . S
C1156 C1155 1.410 . S
C1156 C1157 1.392 . S
C1156 C1159 1.511 . S
C1157 C1153 1.376 . S
C1157 C1156 1.392 . S
C1157 H1169 0.929 . S
C1158 C1154 1.531 . S
C1158 H1170 0.960 . S
C1158 H1171 0.962 . S
C1158 H1172 0.960 . S
C1159 C1156 1.511 . S
C1159 H1173 0.961 . S
C1159 H1174 0.961 . S
C1159 H1175 0.961 . S
C1160 C1161 1.370 . S
C1160 C1162 1.363 . S
C1160 H1176 0.931 . S
C1161 C1160 1.370 . S
C1161 C1165 1.408 . S
C1162 C1160 1.363 . S
C1162 C1163 1.370 . S
C1162 C1166 1.524 . S
C1163 C1155 1.503 . S
C1163 C1162 1.370 . S
C1163 C1164 1.403 . S
C1164 C1163 1.403 . S
C1164 C1165 1.404 . S
C1164 C1167 1.539 . S
C1165 C1161 1.408 . S
C1165 C1164 1.404 . S
C1165 H1177 0.930 . S
C1166 C1162 1.524 . S
C1166 H1178 0.956 . S
C1166 H1179 0.961 . S
C1166 H1180 0.961 . S
C1167 C1164 1.539 . S
C1167 H1181 0.958 . S
C1167 H1182 0.961 . S
C1167 H1183 0.960 . S
H1168 C1152 0.931 . S
H1169 C1157 0.929 . S
H1170 C1158 0.960 . S
H1171 C1158 0.962 . S
H1172 C1158 0.960 . S
H1173 C1159 0.961 . S
H1174 C1159 0.961 . S
H1175 C1159 0.961 . S
H1176 C1160 0.931 . S
H1177 C1165 0.930 . S
H1178 C1166 0.956 . S
H1179 C1166 0.961 . S
H1180 C1166 0.961 . S
H1181 C1167 0.958 . S
H1182 C1167 0.961 . S
H1183 C1167 0.960 . S
C1184 C1185 1.391 . S
C1184 C1186 1.394 . S
C1184 H1200 0.931 . S
C1185 C1184 1.391 . S
C1185 C1189 1.376 . S
C1186 C1184 1.394 . S
C1186 C1187 1.369 . S
C1186 C1190 1.531 . S
C1187 C1186 1.369 . S
C1187 C1188 1.410 . S
C1187 C1195 1.503 . S
C1188 C1187 1.410 . S
C1188 C1189 1.392 . S
C1188 C1191 1.511 . S
C1189 C1185 1.376 . S
C1189 C1188 1.392 . S
C1189 H1201 0.929 . S
C1190 C1186 1.531 . S
C1190 H1202 0.960 . S
C1190 H1203 0.962 . S
C1190 H1204 0.960 . S
C1191 C1188 1.511 . S
C1191 H1205 0.961 . S
C1191 H1206 0.961 . S
C1191 H1207 0.961 . S
C1192 C1193 1.370 . S
C1192 C1194 1.363 . S
C1192 H1208 0.931 . S
C1193 C1192 1.370 . S
C1193 C1197 1.408 . S
C1194 C1192 1.363 . S
C1194 C1195 1.370 . S
C1194 C1198 1.524 . S
C1195 C1187 1.503 . S
C1195 C1194 1.370 . S
C1195 C1196 1.403 . S
C1196 C1195 1.403 . S
C1196 C1197 1.404 . S
C1196 C1199 1.539 . S
C1197 C1193 1.408 . S
C1197 C1196 1.404 . S
C1197 H1209 0.930 . S
C1198 C1194 1.524 . S
C1198 H1210 0.956 . S
C1198 H1211 0.961 . S
C1198 H1212 0.961 . S
C1199 C1196 1.539 . S
C1199 H1213 0.958 . S
C1199 H1214 0.961 . S
C1199 H1215 0.960 . S
H1200 C1184 0.931 . S
H1201 C1189 0.929 . S
H1202 C1190 0.960 . S
H1203 C1190 0.962 . S
H1204 C1190 0.960 . S
H1205 C1191 0.961 . S
H1206 C1191 0.961 . S
H1207 C1191 0.961 . S
H1208 C1192 0.931 . S
H1209 C1197 0.930 . S
H1210 C1198 0.956 . S
H1211 C1198 0.961 . S
H1212 C1198 0.961 . S
H1213 C1199 0.958 . S
H1214 C1199 0.961 . S
H1215 C1199 0.960 . S
C1216 C1217 1.391 . S
C1216 C1218 1.394 . S
C1216 H1232 0.931 . S
C1217 C1216 1.391 . S
C1217 C1221 1.376 . S
C1218 C1216 1.394 . S
C1218 C1219 1.369 . S
C1218 C1222 1.531 . S
C1219 C1218 1.369 . S
C1219 C1220 1.410 . S
C1219 C1227 1.503 . S
C1220 C1219 1.410 . S
C1220 C1221 1.392 . S
C1220 C1223 1.511 . S
C1221 C1217 1.376 . S
C1221 C1220 1.392 . S
C1221 H1233 0.929 . S
C1222 C1218 1.531 . S
C1222 H1234 0.960 . S
C1222 H1235 0.962 . S
C1222 H1236 0.960 . S
C1223 C1220 1.511 . S
C1223 H1237 0.961 . S
C1223 H1238 0.961 . S
C1223 H1239 0.961 . S
C1224 C1225 1.370 . S
C1224 C1226 1.363 . S
C1224 H1240 0.931 . S
C1225 C1224 1.370 . S
C1225 C1229 1.408 . S
C1226 C1224 1.363 . S
C1226 C1227 1.370 . S
C1226 C1230 1.524 . S
C1227 C1219 1.503 . S
C1227 C1226 1.370 . S
C1227 C1228 1.403 . S
C1228 C1227 1.403 . S
C1228 C1229 1.404 . S
C1228 C1231 1.539 . S
C1229 C1225 1.408 . S
C1229 C1228 1.404 . S
C1229 H1241 0.930 . S
C1230 C1226 1.524 . S
C1230 H1242 0.956 . S
C1230 H1243 0.961 . S
C1230 H1244 0.961 . S
C1231 C1228 1.539 . S
C1231 H1245 0.958 . S
C1231 H1246 0.961 . S
C1231 H1247 0.960 . S
H1232 C1216 0.931 . S
H1233 C1221 0.929 . S
H1234 C1222 0.960 . S
H1235 C1222 0.962 . S
H1236 C1222 0.960 . S
H1237 C1223 0.961 . S
H1238 C1223 0.961 . S
H1239 C1223 0.961 . S
H1240 C1224 0.931 . S
H1241 C1229 0.930 . S
H1242 C1230 0.956 . S
H1243 C1230 0.961 . S
H1244 C1230 0.961 . S
H1245 C1231 0.958 . S
H1246 C1231 0.961 . S
H1247 C1231 0.960 . S
C1248 C1249 1.391 . S
C1248 C1250 1.394 . S
C1248 H1264 0.931 . S
C1249 C1248 1.391 . S
C1249 C1253 1.376 . S
C1250 C1248 1.394 . S
C1250 C1251 1.369 . S
C1250 C1254 1.531 . S
C1251 C1250 1.369 . S
C1251 C1252 1.410 . S
C1251 C1259 1.503 . S
C1252 C1251 1.410 . S
C1252 C1253 1.392 . S
C1252 C1255 1.511 . S
C1253 C1249 1.376 . S
C1253 C1252 1.392 . S
C1253 H1265 0.929 . S
C1254 C1250 1.531 . S
C1254 H1266 0.960 . S
C1254 H1267 0.962 . S
C1254 H1268 0.960 . S
C1255 C1252 1.511 . S
C1255 H1269 0.961 . S
C1255 H1270 0.961 . S
C1255 H1271 0.961 . S
C1256 C1257 1.370 . S
C1256 C1258 1.363 . S
C1256 H1272 0.931 . S
C1257 C1256 1.370 . S
C1257 C1261 1.408 . S
C1258 C1256 1.363 . S
C1258 C1259 1.370 . S
C1258 C1262 1.524 . S
C1259 C1251 1.503 . S
C1259 C1258 1.370 . S
C1259 C1260 1.403 . S
C1260 C1259 1.403 . S
C1260 C1261 1.404 . S
C1260 C1263 1.539 . S
C1261 C1257 1.408 . S
C1261 C1260 1.404 . S
C1261 H1273 0.930 . S
C1262 C1258 1.524 . S
C1262 H1274 0.956 . S
C1262 H1275 0.961 . S
C1262 H1276 0.961 . S
C1263 C1260 1.539 . S
C1263 H1277 0.958 . S
C1263 H1278 0.961 . S
C1263 H1279 0.960 . S
H1264 C1248 0.931 . S
H1265 C1253 0.929 . S
H1266 C1254 0.960 . S
H1267 C1254 0.962 . S
H1268 C1254 0.960 . S
H1269 C1255 0.961 . S
H1270 C1255 0.961 . S
H1271 C1255 0.961 . S
H1272 C1256 0.931 . S
H1273 C1261 0.930 . S
H1274 C1262 0.956 . S
H1275 C1262 0.961 . S
H1276 C1262 0.961 . S
H1277 C1263 0.958 . S
H1278 C1263 0.961 . S
H1279 C1263 0.960 . S
C1280 C1281 1.391 . S
C1280 C1282 1.394 . S
C1280 H1296 0.931 . S
C1281 C1280 1.391 . S
C1281 C1285 1.376 . S
C1282 C1280 1.394 . S
C1282 C1283 1.369 . S
C1282 C1286 1.531 . S
C1283 C1282 1.369 . S
C1283 C1284 1.410 . S
C1283 C1291 1.503 . S
C1284 C1283 1.410 . S
C1284 C1285 1.392 . S
C1284 C1287 1.511 . S
C1285 C1281 1.376 . S
C1285 C1284 1.392 . S
C1285 H1297 0.929 . S
C1286 C1282 1.531 . S
C1286 H1298 0.960 . S
C1286 H1299 0.962 . S
C1286 H1300 0.960 . S
C1287 C1284 1.511 . S
C1287 H1301 0.961 . S
C1287 H1302 0.961 . S
C1287 H1303 0.961 . S
C1288 C1289 1.370 . S
C1288 C1290 1.363 . S
C1288 H1304 0.931 . S
C1289 C1288 1.370 . S
C1289 C1293 1.408 . S
C1290 C1288 1.363 . S
C1290 C1291 1.370 . S
C1290 C1294 1.524 . S
C1291 C1283 1.503 . S
C1291 C1290 1.370 . S
C1291 C1292 1.403 . S
C1292 C1291 1.403 . S
C1292 C1293 1.404 . S
C1292 C1295 1.539 . S
C1293 C1289 1.408 . S
C1293 C1292 1.404 . S
C1293 H1305 0.930 . S
C1294 C1290 1.524 . S
C1294 H1306 0.956 . S
C1294 H1307 0.961 . S
C1294 H1308 0.961 . S
C1295 C1292 1.539 . S
C1295 H1309 0.958 . S
C1295 H1310 0.961 . S
C1295 H1311 0.960 . S
H1296 C1280 0.931 . S
H1297 C1285 0.929 . S
H1298 C1286 0.960 . S
H1299 C1286 0.962 . S
H1300 C1286 0.960 . S
H1301 C1287 0.961 . S
H1302 C1287 0.961 . S
H1303 C1287 0.961 . S
H1304 C1288 0.931 . S
H1305 C1293 0.930 . S
H1306 C1294 0.956 . S
H1307 C1294 0.961 . S
H1308 C1294 0.961 . S
H1309 C1295 0.958 . S
H1310 C1295 0.961 . S
H1311 C1295 0.960 . S
C1312 C1313 1.391 . S
C1312 C1314 1.394 . S
C1312 H1328 0.931 . S
C1313 C1312 1.391 . S
C1313 C1317 1.376 . S
C1314 C1312 1.394 . S
C1314 C1315 1.369 . S
C1314 C1318 1.531 . S
C1315 C1314 1.369 . S
C1315 C1316 1.410 . S
C1315 C1323 1.503 . S
C1316 C1315 1.410 . S
C1316 C1317 1.392 . S
C1316 C1319 1.511 . S
C1317 C1313 1.376 . S
C1317 C1316 1.392 . S
C1317 H1329 0.929 . S
C1318 C1314 1.531 . S
C1318 H1330 0.960 . S
C1318 H1331 0.962 . S
C1318 H1332 0.960 . S
C1319 C1316 1.511 . S
C1319 H1333 0.961 . S
C1319 H1334 0.961 . S
C1319 H1335 0.961 . S
C1320 C1321 1.370 . S
C1320 C1322 1.363 . S
C1320 H1336 0.931 . S
C1321 C1320 1.370 . S
C1321 C1325 1.408 . S
C1322 C1320 1.363 . S
C1322 C1323 1.370 . S
C1322 C1326 1.524 . S
C1323 C1315 1.503 . S
C1323 C1322 1.370 . S
C1323 C1324 1.403 . S
C1324 C1323 1.403 . S
C1324 C1325 1.404 . S
C1324 C1327 1.539 . S
C1325 C1321 1.408 . S
C1325 C1324 1.404 . S
C1325 H1337 0.930 . S
C1326 C1322 1.524 . S
C1326 H1338 0.956 . S
C1326 H1339 0.961 . S
C1326 H1340 0.961 . S
C1327 C1324 1.539 . S
C1327 H1341 0.958 . S
C1327 H1342 0.961 . S
C1327 H1343 0.960 . S
H1328 C1312 0.931 . S
H1329 C1317 0.929 . S
H1330 C1318 0.960 . S
H1331 C1318 0.962 . S
H1332 C1318 0.960 . S
H1333 C1319 0.961 . S
H1334 C1319 0.961 . S
H1335 C1319 0.961 . S
H1336 C1320 0.931 . S
H1337 C1325 0.930 . S
H1338 C1326 0.956 . S
H1339 C1326 0.961 . S
H1340 C1326 0.961 . S
H1341 C1327 0.958 . S
H1342 C1327 0.961 . S
H1343 C1327 0.960 . S
C1344 C1345 1.391 . S
C1344 C1346 1.394 . S
C1344 H1360 0.931 . S
C1345 C1344 1.391 . S
C1345 C1349 1.376 . S
C1346 C1344 1.394 . S
C1346 C1347 1.369 . S
C1346 C1350 1.531 . S
C1347 C1346 1.369 . S
C1347 C1348 1.410 . S
C1347 C1355 1.503 . S
C1348 C1347 1.410 . S
C1348 C1349 1.392 . S
C1348 C1351 1.511 . S
C1349 C1345 1.376 . S
C1349 C1348 1.392 . S
C1349 H1361 0.929 . S
C1350 C1346 1.531 . S
C1350 H1362 0.960 . S
C1350 H1363 0.962 . S
C1350 H1364 0.960 . S
C1351 C1348 1.511 . S
C1351 H1365 0.961 . S
C1351 H1366 0.961 . S
C1351 H1367 0.961 . S
C1352 C1353 1.370 . S
C1352 C1354 1.363 . S
C1352 H1368 0.931 . S
C1353 C1352 1.370 . S
C1353 C1357 1.408 . S
C1354 C1352 1.363 . S
C1354 C1355 1.370 . S
C1354 C1358 1.524 . S
C1355 C1347 1.503 . S
C1355 C1354 1.370 . S
C1355 C1356 1.403 . S
C1356 C1355 1.403 . S
C1356 C1357 1.404 . S
C1356 C1359 1.539 . S
C1357 C1353 1.408 . S
C1357 C1356 1.404 . S
C1357 H1369 0.930 . S
C1358 C1354 1.524 . S
C1358 H1370 0.956 . S
C1358 H1371 0.961 . S
C1358 H1372 0.961 . S
C1359 C1356 1.539 . S
C1359 H1373 0.958 . S
C1359 H1374 0.961 . S
C1359 H1375 0.960 . S
H1360 C1344 0.931 . S
H1361 C1349 0.929 . S
H1362 C1350 0.960 . S
H1363 C1350 0.962 . S
H1364 C1350 0.960 . S
H1365 C1351 0.961 . S
H1366 C1351 0.961 . S
H1367 C1351 0.961 . S
H1368 C1352 0.931 . S
H1369 C1357 0.930 . S
H1370 C1358 0.956 . S
H1371 C1358 0.961 . S
H1372 C1358 0.961 . S
H1373 C1359 0.958 . S
H1374 C1359 0.961 . S
H1375 C1359 0.960 . S
C1376 C1377 1.391 . S
C1376 C1378 1.394 . S
C1376 H1392 0.931 . S
C1377 C1376 1.391 . S
C1377 C1381 1.376 . S
C1378 C1376 1.394 . S
C1378 C1379 1.369 . S
C1378 C1382 1.531 . S
C1379 C1378 1.369 . S
C1379 C1380 1.410 . S
C1379 C1387 1.503 1_655 S
C1380 C1379 1.410 . S
C1380 C1381 1.392 . S
C1380 C1383 1.454 1_554 S
C1381 C1377 1.376 . S
C1381 C1380 1.392 . S
C1381 H1393 0.929 . S
C1382 C1378 1.531 . S
C1382 H1394 0.960 1_655 S
C1382 H1395 0.962 . S
C1382 H1396 0.960 . S
C1383 C1380 1.454 1_556 S
C1383 H1397 0.989 . S
C1383 H1398 0.941 1_656 S
C1383 H1399 1.016 . S
C1384 C1385 1.370 . S
C1384 C1386 1.363 . S
C1384 H1400 0.931 . S
C1385 C1384 1.370 . S
C1385 C1389 1.408 . S
C1386 C1384 1.363 . S
C1386 C1387 1.370 . S
C1386 C1390 1.524 . S
C1387 C1379 1.503 1_455 S
C1387 C1386 1.370 . S
C1387 C1388 1.403 . S
C1388 C1387 1.403 . S
C1388 C1389 1.404 . S
C1388 C1391 1.539 . S
C1389 C1385 1.408 . S
C1389 C1388 1.404 . S
C1389 H1401 0.930 . S
C1390 C1386 1.524 . S
C1390 H1402 0.984 . S
C1390 H1403 0.961 1_455 S
C1390 H1404 0.961 . S
C1391 C1388 1.539 . S
C1391 H1405 0.958 . S
C1391 H1406 0.955 . S
C1391 H1407 0.970 . S
H1392 C1376 0.931 . S
H1393 C1381 0.929 . S
H1394 C1382 0.960 1_455 S
H1395 C1382 0.962 . S
H1396 C1382 0.960 . S
H1397 C1383 0.989 . S
H1398 C1383 0.941 1_454 S
H1399 C1383 1.016 . S
H1400 C1384 0.931 . S
H1401 C1389 0.930 . S
H1402 C1390 0.984 . S
H1403 C1390 0.961 1_655 S
H1404 C1390 0.961 . S
H1405 C1391 0.958 . S
H1406 C1391 0.955 . S
H1407 C1391 0.970 . S
C1408 C1409 1.391 . S
C1408 C1410 1.394 . S
C1408 H1424 0.931 . S
C1409 C1408 1.391 . S
C1409 C1413 1.376 . S
C1410 C1408 1.394 . S
C1410 C1411 1.369 . S
C1410 C1414 1.531 . S
C1411 C1410 1.369 . S
C1411 C1412 1.410 . S
C1411 C1419 1.503 . S
C1412 C1411 1.410 . S
C1412 C1413 1.392 . S
C1412 C1415 1.511 . S
C1413 C1409 1.376 . S
C1413 C1412 1.392 . S
C1413 H1425 0.929 . S
C1414 C1410 1.531 . S
C1414 H1426 0.960 . S
C1414 H1427 0.962 . S
C1414 H1428 0.960 . S
C1415 C1412 1.511 . S
C1415 H1429 0.961 . S
C1415 H1430 0.961 . S
C1415 H1431 0.961 . S
C1416 C1417 1.370 . S
C1416 C1418 1.363 . S
C1416 H1432 0.931 . S
C1417 C1416 1.370 . S
C1417 C1421 1.408 . S
C1418 C1416 1.363 . S
C1418 C1419 1.370 . S
C1418 C1422 1.524 . S
C1419 C1411 1.503 . S
C1419 C1418 1.370 . S
C1419 C1420 1.403 . S
C1420 C1419 1.403 . S
C1420 C1421 1.404 . S
C1420 C1423 1.539 . S
C1421 C1417 1.408 . S
C1421 C1420 1.404 . S
C1421 H1433 0.930 . S
C1422 C1418 1.524 . S
C1422 H1434 0.956 . S
C1422 H1435 0.961 . S
C1422 H1436 0.961 . S
C1423 C1420 1.539 . S
C1423 H1437 0.958 . S
C1423 H1438 0.961 . S
C1423 H1439 0.960 . S
H1424 C1408 0.931 . S
H1425 C1413 0.929 . S
H1426 C1414 0.960 . S
H1427 C1414 0.962 . S
H1428 C1414 0.960 . S
H1429 C1415 0.961 . S
H1430 C1415 0.961 . S
H1431 C1415 0.961 . S
H1432 C1416 0.931 . S
H1433 C1421 0.930 . S
H1434 C1422 0.956 . S
H1435 C1422 0.961 . S
H1436 C1422 0.961 . S
H1437 C1423 0.958 . S
H1438 C1423 0.961 . S
H1439 C1423 0.960 . S
C1440 C1441 1.391 . S
C1440 C1442 1.394 . S
C1440 H1456 0.931 . S
C1441 C1440 1.391 . S
C1441 C1445 1.376 . S
C1442 C1440 1.394 . S
C1442 C1443 1.369 . S
C1442 C1446 1.531 . S
C1443 C1442 1.369 . S
C1443 C1444 1.410 . S
C1443 C1451 1.503 1_455 S
C1444 C1443 1.410 . S
C1444 C1445 1.392 . S
C1444 C1447 1.486 1_556 S
C1445 C1441 1.376 . S
C1445 C1444 1.392 . S
C1445 H1457 0.929 . S
C1446 C1442 1.531 . S
C1446 H1458 0.960 1_455 S
C1446 H1459 0.962 . S
C1446 H1460 0.960 . S
C1447 C1444 1.486 1_554 S
C1447 H1461 0.972 . S
C1447 H1462 0.951 1_454 S
C1447 H1463 0.986 . S
C1448 C1449 1.370 . S
C1448 C1450 1.363 . S
C1448 H1464 0.931 . S
C1449 C1448 1.370 . S
C1449 C1453 1.408 . S
C1450 C1448 1.363 . S
C1450 C1451 1.370 . S
C1450 C1454 1.524 . S
C1451 C1443 1.503 1_655 S
C1451 C1450 1.370 . S
C1451 C1452 1.403 . S
C1452 C1451 1.403 . S
C1452 C1453 1.404 . S
C1452 C1455 1.539 . S
C1453 C1449 1.408 . S
C1453 C1452 1.404 . S
C1453 H1465 0.930 . S
C1454 C1450 1.524 . S
C1454 H1466 0.984 . S
C1454 H1467 0.961 1_655 S
C1454 H1468 0.961 . S
C1455 C1452 1.539 . S
C1455 H1469 0.958 . S
C1455 H1470 0.961 1_556 S
C1455 H1471 0.970 . S
H1456 C1440 0.931 . S
H1457 C1445 0.929 . S
H1458 C1446 0.960 1_655 S
H1459 C1446 0.962 . S
H1460 C1446 0.960 . S
H1461 C1447 0.972 . S
H1462 C1447 0.951 1_656 S
H1463 C1447 0.986 . S
H1464 C1448 0.931 . S
H1465 C1453 0.930 . S
H1466 C1454 0.984 . S
H1467 C1454 0.961 1_455 S
H1468 C1454 0.961 . S
H1469 C1455 0.958 . S
H1470 C1455 0.961 1_554 S
H1471 C1455 0.970 . S
C1472 C1473 1.391 . S
C1472 C1474 1.394 . S
C1472 H1488 0.931 . S
C1473 C1472 1.391 . S
C1473 C1477 1.376 . S
C1474 C1472 1.394 . S
C1474 C1475 1.407 . S
C1474 C1478 1.531 . S
C1475 C1474 1.407 . S
C1475 C1476 1.391 1_556 S
C1475 C1483 1.488 1_556 S
C1476 C1475 1.391 1_554 S
C1476 C1477 1.392 1_554 S
C1476 C1479 1.511 . S
C1477 C1473 1.376 . S
C1477 C1476 1.392 1_556 S
C1477 H1489 0.929 1_556 S
C1478 C1474 1.531 . S
C1478 H1490 0.960 . S
C1478 H1491 0.962 . S
C1478 H1492 0.960 . S
C1479 C1476 1.511 . S
C1479 H1493 0.961 . S
C1479 H1494 0.961 . S
C1479 H1495 0.961 . S
C1480 C1481 1.370 . S
C1480 C1482 1.363 1_554 S
C1480 H1496 0.931 1_554 S
C1481 C1480 1.370 . S
C1481 C1485 1.408 . S
C1482 C1480 1.363 1_556 S
C1482 C1483 1.370 1_556 S
C1482 C1486 1.524 . S
C1483 C1475 1.488 1_554 S
C1483 C1482 1.370 1_554 S
C1483 C1484 1.403 . S
C1484 C1483 1.403 . S
C1484 C1485 1.404 . S
C1484 C1487 1.539 . S
C1485 C1481 1.408 . S
C1485 C1484 1.404 . S
C1485 H1497 0.930 . S
C1486 C1482 1.524 . S
C1486 H1498 0.956 . S
C1486 H1499 0.961 . S
C1486 H1500 0.961 . S
C1487 C1484 1.539 . S
C1487 H1501 0.958 . S
C1487 H1502 0.961 . S
C1487 H1503 0.960 . S
H1488 C1472 0.931 . S
H1489 C1477 0.929 1_554 S
H1490 C1478 0.960 . S
H1491 C1478 0.962 . S
H1492 C1478 0.960 . S
H1493 C1479 0.961 . S
H1494 C1479 0.961 . S
H1495 C1479 0.961 . S
H1496 C1480 0.931 1_556 S
H1497 C1485 0.930 . S
H1498 C1486 0.956 . S
H1499 C1486 0.961 . S
H1500 C1486 0.961 . S
H1501 C1487 0.958 . S
H1502 C1487 0.961 . S
H1503 C1487 0.960 . S
C1504 C1505 1.391 . S
C1504 C1506 1.394 . S
C1504 H1520 0.931 . S
C1505 C1504 1.391 . S
C1505 C1509 1.376 . S
C1506 C1504 1.394 . S
C1506 C1507 1.369 . S
C1506 C1510 1.531 . S
C1507 C1506 1.369 . S
C1507 C1508 1.410 . S
C1507 C1515 1.503 . S
C1508 C1507 1.410 . S
C1508 C1509 1.392 . S
C1508 C1511 1.511 . S
C1509 C1505 1.376 . S
C1509 C1508 1.392 . S
C1509 H1521 0.929 . S
C1510 C1506 1.531 . S
C1510 H1522 0.960 . S
C1510 H1523 0.962 . S
C1510 H1524 0.960 . S
C1511 C1508 1.511 . S
C1511 H1525 0.961 . S
C1511 H1526 0.961 . S
C1511 H1527 0.961 . S
C1512 C1513 1.370 . S
C1512 C1514 1.363 . S
C1512 H1528 0.931 . S
C1513 C1512 1.370 . S
C1513 C1517 1.408 . S
C1514 C1512 1.363 . S
C1514 C1515 1.370 . S
C1514 C1518 1.524 . S
C1515 C1507 1.503 . S
C1515 C1514 1.370 . S
C1515 C1516 1.403 . S
C1516 C1515 1.403 . S
C1516 C1517 1.404 . S
C1516 C1519 1.539 . S
C1517 C1513 1.408 . S
C1517 C1516 1.404 . S
C1517 H1529 0.930 . S
C1518 C1514 1.524 . S
C1518 H1530 0.956 . S
C1518 H1531 0.961 . S
C1518 H1532 0.961 . S
C1519 C1516 1.539 . S
C1519 H1533 0.958 . S
C1519 H1534 0.961 . S
C1519 H1535 0.960 . S
H1520 C1504 0.931 . S
H1521 C1509 0.929 . S
H1522 C1510 0.960 . S
H1523 C1510 0.962 . S
H1524 C1510 0.960 . S
H1525 C1511 0.961 . S
H1526 C1511 0.961 . S
H1527 C1511 0.961 . S
H1528 C1512 0.931 . S
H1529 C1517 0.930 . S
H1530 C1518 0.956 . S
H1531 C1518 0.961 . S
H1532 C1518 0.961 . S
H1533 C1519 0.958 . S
H1534 C1519 0.961 . S
H1535 C1519 0.960 . S
C1536 C1537 1.391 . S
C1536 C1538 1.394 . S
C1536 H1552 0.931 . S
C1537 C1536 1.391 . S
C1537 C1541 1.376 . S
C1538 C1536 1.394 . S
C1538 C1539 1.369 . S
C1538 C1542 1.531 . S
C1539 C1538 1.369 . S
C1539 C1540 1.410 . S
C1539 C1547 1.503 . S
C1540 C1539 1.410 . S
C1540 C1541 1.392 . S
C1540 C1543 1.511 . S
C1541 C1537 1.376 . S
C1541 C1540 1.392 . S
C1541 H1553 0.929 . S
C1542 C1538 1.531 . S
C1542 H1554 0.960 . S
C1542 H1555 0.962 . S
C1542 H1556 0.960 . S
C1543 C1540 1.511 . S
C1543 H1557 0.961 . S
C1543 H1558 0.961 . S
C1543 H1559 0.961 . S
C1544 C1545 1.370 . S
C1544 C1546 1.363 . S
C1544 H1560 0.931 . S
C1545 C1544 1.370 . S
C1545 C1549 1.408 . S
C1546 C1544 1.363 . S
C1546 C1547 1.370 . S
C1546 C1550 1.524 . S
C1547 C1539 1.503 . S
C1547 C1546 1.370 . S
C1547 C1548 1.403 . S
C1548 C1547 1.403 . S
C1548 C1549 1.404 . S
C1548 C1551 1.539 . S
C1549 C1545 1.408 . S
C1549 C1548 1.404 . S
C1549 H1561 0.930 . S
C1550 C1546 1.524 . S
C1550 H1562 0.956 . S
C1550 H1563 0.961 . S
C1550 H1564 0.961 . S
C1551 C1548 1.539 . S
C1551 H1565 0.958 . S
C1551 H1566 0.961 . S
C1551 H1567 0.960 . S
H1552 C1536 0.931 . S
H1553 C1541 0.929 . S
H1554 C1542 0.960 . S
H1555 C1542 0.962 . S
H1556 C1542 0.960 . S
H1557 C1543 0.961 . S
H1558 C1543 0.961 . S
H1559 C1543 0.961 . S
H1560 C1544 0.931 . S
H1561 C1549 0.930 . S
H1562 C1550 0.956 . S
H1563 C1550 0.961 . S
H1564 C1550 0.961 . S
H1565 C1551 0.958 . S
H1566 C1551 0.961 . S
H1567 C1551 0.960 . S
C1568 C1569 1.391 . S
C1568 C1570 1.394 . S
C1568 H1584 0.931 . S
C1569 C1568 1.391 . S
C1569 C1573 1.376 . S
C1570 C1568 1.394 . S
C1570 C1571 1.369 . S
C1570 C1574 1.531 . S
C1571 C1570 1.369 . S
C1571 C1572 1.410 . S
C1571 C1579 1.503 . S
C1572 C1571 1.410 . S
C1572 C1573 1.392 . S
C1572 C1575 1.511 . S
C1573 C1569 1.376 . S
C1573 C1572 1.392 . S
C1573 H1585 0.929 . S
C1574 C1570 1.531 . S
C1574 H1586 0.960 . S
C1574 H1587 0.962 . S
C1574 H1588 0.960 . S
C1575 C1572 1.511 . S
C1575 H1589 0.961 . S
C1575 H1590 0.961 . S
C1575 H1591 0.961 . S
C1576 C1577 1.370 . S
C1576 C1578 1.363 . S
C1576 H1592 0.931 . S
C1577 C1576 1.370 . S
C1577 C1581 1.408 . S
C1578 C1576 1.363 . S
C1578 C1579 1.370 . S
C1578 C1582 1.524 . S
C1579 C1571 1.503 . S
C1579 C1578 1.370 . S
C1579 C1580 1.403 . S
C1580 C1579 1.403 . S
C1580 C1581 1.404 . S
C1580 C1583 1.539 . S
C1581 C1577 1.408 . S
C1581 C1580 1.404 . S
C1581 H1593 0.930 . S
C1582 C1578 1.524 . S
C1582 H1594 0.956 . S
C1582 H1595 0.961 . S
C1582 H1596 0.961 . S
C1583 C1580 1.539 . S
C1583 H1597 0.958 . S
C1583 H1598 0.961 . S
C1583 H1599 0.960 . S
H1584 C1568 0.931 . S
H1585 C1573 0.929 . S
H1586 C1574 0.960 . S
H1587 C1574 0.962 . S
H1588 C1574 0.960 . S
H1589 C1575 0.961 . S
H1590 C1575 0.961 . S
H1591 C1575 0.961 . S
H1592 C1576 0.931 . S
H1593 C1581 0.930 . S
H1594 C1582 0.956 . S
H1595 C1582 0.961 . S
H1596 C1582 0.961 . S
H1597 C1583 0.958 . S
H1598 C1583 0.961 . S
H1599 C1583 0.960 . S
C1600 C1601 1.391 . S
C1600 C1602 1.394 1_554 S
C1600 H1616 0.931 1_554 S
C1601 C1600 1.391 . S
C1601 C1605 1.376 . S
C1602 C1600 1.394 1_556 S
C1602 C1603 1.367 1_556 S
C1602 C1606 1.531 . S
C1603 C1602 1.367 1_554 S
C1603 C1604 1.414 . S
C1603 C1611 1.502 1_554 S
C1604 C1603 1.414 . S
C1604 C1605 1.392 . S
C1604 C1607 1.511 . S
C1605 C1601 1.376 . S
C1605 C1604 1.392 . S
C1605 H1617 0.929 . S
C1606 C1602 1.531 . S
C1606 H1618 0.960 . S
C1606 H1619 0.962 . S
C1606 H1620 0.960 . S
C1607 C1604 1.511 . S
C1607 H1621 0.961 . S
C1607 H1622 0.961 . S
C1607 H1623 0.961 . S
C1608 C1609 1.370 . S
C1608 C1610 1.363 1_556 S
C1608 H1624 0.931 1_556 S
C1609 C1608 1.370 . S
C1609 C1613 1.408 . S
C1610 C1608 1.363 1_554 S
C1610 C1611 1.370 1_554 S
C1610 C1614 1.524 . S
C1611 C1603 1.502 1_556 S
C1611 C1610 1.370 1_556 S
C1611 C1612 1.403 . S
C1612 C1611 1.403 . S
C1612 C1613 1.404 . S
C1612 C1615 1.539 . S
C1613 C1609 1.408 . S
C1613 C1612 1.404 . S
C1613 H1625 0.930 . S
C1614 C1610 1.524 . S
C1614 H1626 0.956 . S
C1614 H1627 0.961 . S
C1614 H1628 0.961 . S
C1615 C1612 1.539 . S
C1615 H1629 0.958 . S
C1615 H1630 0.961 . S
C1615 H1631 0.960 . S
H1616 C1600 0.931 1_556 S
H1617 C1605 0.929 . S
H1618 C1606 0.960 . S
H1619 C1606 0.962 . S
H1620 C1606 0.960 . S
H1621 C1607 0.961 . S
H1622 C1607 0.961 . S
H1623 C1607 0.961 . S
H1624 C1608 0.931 1_554 S
H1625 C1613 0.930 . S
H1626 C1614 0.956 . S
H1627 C1614 0.961 . S
H1628 C1614 0.961 . S
H1629 C1615 0.958 . S
H1630 C1615 0.961 . S
H1631 C1615 0.960 . S
C1632 C1633 1.391 . S
C1632 C1634 1.394 . S
C1632 H1648 0.931 . S
C1633 C1632 1.391 . S
C1633 C1637 1.376 . S
C1634 C1632 1.394 . S
C1634 C1635 1.369 . S
C1634 C1638 1.531 . S
C1635 C1634 1.369 . S
C1635 C1636 1.410 . S
C1635 C1643 1.503 . S
C1636 C1635 1.410 . S
C1636 C1637 1.392 . S
C1636 C1639 1.511 . S
C1637 C1633 1.376 . S
C1637 C1636 1.392 . S
C1637 H1649 0.929 . S
C1638 C1634 1.531 . S
C1638 H1650 0.960 . S
C1638 H1651 0.962 . S
C1638 H1652 0.960 . S
C1639 C1636 1.511 . S
C1639 H1653 0.961 . S
C1639 H1654 0.961 . S
C1639 H1655 0.961 . S
C1640 C1641 1.370 . S
C1640 C1642 1.363 . S
C1640 H1656 0.931 . S
C1641 C1640 1.370 . S
C1641 C1645 1.408 . S
C1642 C1640 1.363 . S
C1642 C1643 1.370 . S
C1642 C1646 1.524 . S
C1643 C1635 1.503 . S
C1643 C1642 1.370 . S
C1643 C1644 1.403 . S
C1644 C1643 1.403 . S
C1644 C1645 1.404 . S
C1644 C1647 1.539 . S
C1645 C1641 1.408 . S
C1645 C1644 1.404 . S
C1645 H1657 0.930 . S
C1646 C1642 1.524 . S
C1646 H1658 0.956 . S
C1646 H1659 0.961 . S
C1646 H1660 0.961 . S
C1647 C1644 1.539 . S
C1647 H1661 0.958 . S
C1647 H1662 0.961 . S
C1647 H1663 0.960 . S
H1648 C1632 0.931 . S
H1649 C1637 0.929 . S
H1650 C1638 0.960 . S
H1651 C1638 0.962 . S
H1652 C1638 0.960 . S
H1653 C1639 0.961 . S
H1654 C1639 0.961 . S
H1655 C1639 0.961 . S
H1656 C1640 0.931 . S
H1657 C1645 0.930 . S
H1658 C1646 0.956 . S
H1659 C1646 0.961 . S
H1660 C1646 0.961 . S
H1661 C1647 0.958 . S
H1662 C1647 0.961 . S
H1663 C1647 0.960 . S
C1664 C1665 1.391 . S
C1664 C1666 1.394 . S
C1664 H1680 0.931 . S
C1665 C1664 1.391 . S
C1665 C1669 1.376 . S
C1666 C1664 1.394 . S
C1666 C1667 1.369 . S
C1666 C1670 1.531 . S
C1667 C1666 1.369 . S
C1667 C1668 1.410 . S
C1667 C1675 1.503 . S
C1668 C1667 1.410 . S
C1668 C1669 1.392 . S
C1668 C1671 1.511 . S
C1669 C1665 1.376 . S
C1669 C1668 1.392 . S
C1669 H1681 0.929 . S
C1670 C1666 1.531 . S
C1670 H1682 0.960 . S
C1670 H1683 0.962 . S
C1670 H1684 0.960 . S
C1671 C1668 1.511 . S
C1671 H1685 0.961 . S
C1671 H1686 0.961 . S
C1671 H1687 0.961 . S
C1672 C1673 1.370 . S
C1672 C1674 1.363 . S
C1672 H1688 0.931 . S
C1673 C1672 1.370 . S
C1673 C1677 1.408 . S
C1674 C1672 1.363 . S
C1674 C1675 1.370 . S
C1674 C1678 1.524 . S
C1675 C1667 1.503 . S
C1675 C1674 1.370 . S
C1675 C1676 1.403 . S
C1676 C1675 1.403 . S
C1676 C1677 1.404 . S
C1676 C1679 1.539 . S
C1677 C1673 1.408 . S
C1677 C1676 1.404 . S
C1677 H1689 0.930 . S
C1678 C1674 1.524 . S
C1678 H1690 0.956 . S
C1678 H1691 0.961 . S
C1678 H1692 0.961 . S
C1679 C1676 1.539 . S
C1679 H1693 0.958 . S
C1679 H1694 0.961 . S
C1679 H1695 0.960 . S
H1680 C1664 0.931 . S
H1681 C1669 0.929 . S
H1682 C1670 0.960 . S
H1683 C1670 0.962 . S
H1684 C1670 0.960 . S
H1685 C1671 0.961 . S
H1686 C1671 0.961 . S
H1687 C1671 0.961 . S
H1688 C1672 0.931 . S
H1689 C1677 0.930 . S
H1690 C1678 0.956 . S
H1691 C1678 0.961 . S
H1692 C1678 0.961 . S
H1693 C1679 0.958 . S
H1694 C1679 0.961 . S
H1695 C1679 0.960 . S
C1696 C1697 1.391 . S
C1696 C1698 1.394 . S
C1696 H1712 0.931 . S
C1697 C1696 1.391 . S
C1697 C1701 1.376 . S
C1698 C1696 1.394 . S
C1698 C1699 1.369 . S
C1698 C1702 1.531 . S
C1699 C1698 1.369 . S
C1699 C1700 1.410 . S
C1699 C1707 1.503 . S
C1700 C1699 1.410 . S
C1700 C1701 1.392 . S
C1700 C1703 1.511 . S
C1701 C1697 1.376 . S
C1701 C1700 1.392 . S
C1701 H1713 0.929 . S
C1702 C1698 1.531 . S
C1702 H1714 0.960 . S
C1702 H1715 0.962 . S
C1702 H1716 0.960 . S
C1703 C1700 1.511 . S
C1703 H1717 0.961 . S
C1703 H1718 0.961 . S
C1703 H1719 0.961 . S
C1704 C1705 1.370 . S
C1704 C1706 1.363 . S
C1704 H1720 0.931 . S
C1705 C1704 1.370 . S
C1705 C1709 1.408 . S
C1706 C1704 1.363 . S
C1706 C1707 1.370 . S
C1706 C1710 1.524 . S
C1707 C1699 1.503 . S
C1707 C1706 1.370 . S
C1707 C1708 1.403 . S
C1708 C1707 1.403 . S
C1708 C1709 1.404 . S
C1708 C1711 1.539 . S
C1709 C1705 1.408 . S
C1709 C1708 1.404 . S
C1709 H1721 0.930 . S
C1710 C1706 1.524 . S
C1710 H1722 0.956 . S
C1710 H1723 0.961 . S
C1710 H1724 0.961 . S
C1711 C1708 1.539 . S
C1711 H1725 0.958 . S
C1711 H1726 0.961 . S
C1711 H1727 0.960 . S
H1712 C1696 0.931 . S
H1713 C1701 0.929 . S
H1714 C1702 0.960 . S
H1715 C1702 0.962 . S
H1716 C1702 0.960 . S
H1717 C1703 0.961 . S
H1718 C1703 0.961 . S
H1719 C1703 0.961 . S
H1720 C1704 0.931 . S
H1721 C1709 0.930 . S
H1722 C1710 0.956 . S
H1723 C1710 0.961 . S
H1724 C1710 0.961 . S
H1725 C1711 0.958 . S
H1726 C1711 0.961 . S
H1727 C1711 0.960 . S
C1728 C1729 1.391 . S
C1728 C1730 1.394 . S
C1728 H1744 0.931 . S
C1729 C1728 1.391 . S
C1729 C1733 1.376 . S
C1730 C1728 1.394 . S
C1730 C1731 1.369 . S
C1730 C1734 1.531 1_545 S
C1731 C1730 1.369 . S
C1731 C1732 1.410 . S
C1731 C1739 1.503 1_545 S
C1732 C1731 1.410 . S
C1732 C1733 1.392 . S
C1732 C1735 1.511 . S
C1733 C1729 1.376 . S
C1733 C1732 1.392 . S
C1733 H1745 0.929 . S
C1734 C1730 1.531 1_565 S
C1734 H1746 0.960 . S
C1734 H1747 0.962 . S
C1734 H1748 0.960 1_565 S
C1735 C1732 1.511 . S
C1735 H1749 0.961 . S
C1735 H1750 0.961 . S
C1735 H1751 0.961 . S
C1736 C1737 1.370 . S
C1736 C1738 1.363 . S
C1736 H1752 0.931 . S
C1737 C1736 1.370 . S
C1737 C1741 1.408 . S
C1738 C1736 1.363 . S
C1738 C1739 1.370 . S
C1738 C1742 1.508 1_565 S
C1739 C1731 1.503 1_565 S
C1739 C1738 1.370 . S
C1739 C1740 1.403 . S
C1740 C1739 1.403 . S
C1740 C1741 1.404 . S
C1740 C1743 1.539 . S
C1741 C1737 1.408 . S
C1741 C1740 1.404 . S
C1741 H1753 0.930 . S
C1742 C1738 1.508 1_545 S
C1742 H1754 0.963 . S
C1742 H1755 0.979 . S
C1742 H1756 0.952 1_545 S
C1743 C1740 1.539 . S
C1743 H1757 0.958 . S
C1743 H1758 0.961 . S
C1743 H1759 0.960 . S
H1744 C1728 0.931 . S
H1745 C1733 0.929 . S
H1746 C1734 0.960 . S
H1747 C1734 0.962 . S
H1748 C1734 0.960 1_545 S
H1749 C1735 0.961 . S
H1750 C1735 0.961 . S
H1751 C1735 0.961 . S
H1752 C1736 0.931 . S
H1753 C1741 0.930 . S
H1754 C1742 0.963 . S
H1755 C1742 0.979 . S
H1756 C1742 0.952 1_565 S
H1757 C1743 0.958 . S
H1758 C1743 0.961 . S
H1759 C1743 0.960 . S
C1760 C1761 1.391 . S
C1760 C1762 1.394 . S
C1760 H1776 0.931 . S
C1761 C1760 1.391 . S
C1761 C1765 1.376 . S
C1762 C1760 1.394 . S
C1762 C1763 1.369 . S
C1762 C1766 1.531 . S
C1763 C1762 1.369 . S
C1763 C1764 1.410 . S
C1763 C1771 1.503 . S
C1764 C1763 1.410 . S
C1764 C1765 1.392 . S
C1764 C1767 1.511 . S
C1765 C1761 1.376 . S
C1765 C1764 1.392 . S
C1765 H1777 0.929 . S
C1766 C1762 1.531 . S
C1766 H1778 0.960 . S
C1766 H1779 0.962 . S
C1766 H1780 0.960 . S
C1767 C1764 1.511 . S
C1767 H1781 0.961 . S
C1767 H1782 0.961 . S
C1767 H1783 0.961 . S
C1768 C1769 1.370 . S
C1768 C1770 1.363 . S
C1768 H1784 0.931 . S
C1769 C1768 1.370 . S
C1769 C1773 1.408 . S
C1770 C1768 1.363 . S
C1770 C1771 1.370 . S
C1770 C1774 1.524 . S
C1771 C1763 1.503 . S
C1771 C1770 1.370 . S
C1771 C1772 1.403 . S
C1772 C1771 1.403 . S
C1772 C1773 1.404 . S
C1772 C1775 1.539 . S
C1773 C1769 1.408 . S
C1773 C1772 1.404 . S
C1773 H1785 0.930 . S
C1774 C1770 1.524 . S
C1774 H1786 0.956 . S
C1774 H1787 0.961 . S
C1774 H1788 0.961 . S
C1775 C1772 1.539 . S
C1775 H1789 0.958 . S
C1775 H1790 0.961 . S
C1775 H1791 0.960 . S
H1776 C1760 0.931 . S
H1777 C1765 0.929 . S
H1778 C1766 0.960 . S
H1779 C1766 0.962 . S
H1780 C1766 0.960 . S
H1781 C1767 0.961 . S
H1782 C1767 0.961 . S
H1783 C1767 0.961 . S
H1784 C1768 0.931 . S
H1785 C1773 0.930 . S
H1786 C1774 0.956 . S
H1787 C1774 0.961 . S
H1788 C1774 0.961 . S
H1789 C1775 0.958 . S
H1790 C1775 0.961 . S
H1791 C1775 0.960 . S
C1792 C1793 1.391 . S
C1792 C1794 1.394 1_554 S
C1792 H1808 0.931 . S
C1793 C1792 1.391 . S
C1793 C1797 1.376 . S
C1794 C1792 1.394 1_556 S
C1794 C1795 1.370 . S
C1794 C1798 1.531 . S
C1795 C1794 1.370 . S
C1795 C1796 1.405 1_556 S
C1795 C1803 1.506 1_565 S
C1796 C1795 1.405 1_554 S
C1796 C1797 1.392 . S
C1796 C1799 1.511 . S
C1797 C1793 1.376 . S
C1797 C1796 1.392 . S
C1797 H1809 0.929 . S
C1798 C1794 1.531 . S
C1798 H1810 0.960 . S
C1798 H1811 0.962 . S
C1798 H1812 0.960 . S
C1799 C1796 1.511 . S
C1799 H1813 0.961 . S
C1799 H1814 0.961 1_565 S
C1799 H1815 0.964 . S
C1800 C1801 1.383 . S
C1800 C1802 1.359 1_556 S
C1800 H1816 0.923 1_556 S
C1801 C1800 1.383 . S
C1801 C1805 1.408 . S
C1802 C1800 1.359 1_554 S
C1802 C1803 1.370 1_554 S
C1802 C1806 1.524 . S
C1803 C1795 1.506 1_545 S
C1803 C1802 1.370 1_556 S
C1803 C1804 1.403 . S
C1804 C1803 1.403 . S
C1804 C1805 1.404 . S
C1804 C1807 1.539 1_545 S
C1805 C1801 1.408 . S
C1805 C1804 1.404 . S
C1805 H1817 0.930 . S
C1806 C1802 1.524 . S
C1806 H1818 0.956 . S
C1806 H1819 0.961 . S
C1806 H1820 0.961 . S
C1807 C1804 1.539 1_565 S
C1807 H1821 0.958 . S
C1807 H1822 0.961 1_565 S
C1807 H1823 0.960 . S
H1808 C1792 0.931 . S
H1809 C1797 0.929 . S
H1810 C1798 0.960 . S
H1811 C1798 0.962 . S
H1812 C1798 0.960 . S
H1813 C1799 0.961 . S
H1814 C1799 0.961 1_545 S
H1815 C1799 0.964 . S
H1816 C1800 0.923 1_554 S
H1817 C1805 0.930 . S
H1818 C1806 0.956 . S
H1819 C1806 0.961 . S
H1820 C1806 0.961 . S
H1821 C1807 0.958 . S
H1822 C1807 0.961 1_545 S
H1823 C1807 0.960 . S
C1824 C1825 1.391 . S
C1824 C1826 1.394 . S
C1824 H1840 0.931 . S
C1825 C1824 1.391 . S
C1825 C1829 1.376 . S
C1826 C1824 1.394 . S
C1826 C1827 1.369 . S
C1826 C1830 1.531 . S
C1827 C1826 1.369 . S
C1827 C1828 1.410 . S
C1827 C1835 1.503 . S
C1828 C1827 1.410 . S
C1828 C1829 1.392 . S
C1828 C1831 1.511 . S
C1829 C1825 1.376 . S
C1829 C1828 1.392 . S
C1829 H1841 0.929 . S
C1830 C1826 1.531 . S
C1830 H1842 0.960 . S
C1830 H1843 0.962 . S
C1830 H1844 0.960 . S
C1831 C1828 1.511 . S
C1831 H1845 0.961 . S
C1831 H1846 0.961 . S
C1831 H1847 0.961 . S
C1832 C1833 1.370 . S
C1832 C1834 1.363 . S
C1832 H1848 0.931 . S
C1833 C1832 1.370 . S
C1833 C1837 1.408 . S
C1834 C1832 1.363 . S
C1834 C1835 1.370 . S
C1834 C1838 1.524 . S
C1835 C1827 1.503 . S
C1835 C1834 1.370 . S
C1835 C1836 1.403 . S
C1836 C1835 1.403 . S
C1836 C1837 1.404 . S
C1836 C1839 1.539 . S
C1837 C1833 1.408 . S
C1837 C1836 1.404 . S
C1837 H1849 0.930 . S
C1838 C1834 1.524 . S
C1838 H1850 0.956 . S
C1838 H1851 0.961 . S
C1838 H1852 0.961 . S
C1839 C1836 1.539 . S
C1839 H1853 0.958 . S
C1839 H1854 0.961 . S
C1839 H1855 0.960 . S
H1840 C1824 0.931 . S
H1841 C1829 0.929 . S
H1842 C1830 0.960 . S
H1843 C1830 0.962 . S
H1844 C1830 0.960 . S
H1845 C1831 0.961 . S
H1846 C1831 0.961 . S
H1847 C1831 0.961 . S
H1848 C1832 0.931 . S
H1849 C1837 0.930 . S
H1850 C1838 0.956 . S
H1851 C1838 0.961 . S
H1852 C1838 0.961 . S
H1853 C1839 0.958 . S
H1854 C1839 0.961 . S
H1855 C1839 0.960 . S
C1856 C1857 1.391 . S
C1856 C1858 1.394 . S
C1856 H1872 0.931 . S
C1857 C1856 1.391 . S
C1857 C1861 1.376 . S
C1858 C1856 1.394 . S
C1858 C1859 1.369 . S
C1858 C1862 1.531 . S
C1859 C1858 1.369 . S
C1859 C1860 1.410 . S
C1859 C1867 1.503 1_545 S
C1860 C1859 1.410 . S
C1860 C1861 1.392 . S
C1860 C1863 1.511 . S
C1861 C1857 1.376 . S
C1861 C1860 1.392 . S
C1861 H1873 0.929 . S
C1862 C1858 1.531 . S
C1862 H1874 0.960 . S
C1862 H1875 0.962 . S
C1862 H1876 0.960 . S
C1863 C1860 1.511 . S
C1863 H1877 0.961 . S
C1863 H1878 0.961 1_545 S
C1863 H1879 0.961 . S
C1864 C1865 1.370 . S
C1864 C1866 1.363 . S
C1864 H1880 0.931 . S
C1865 C1864 1.370 . S
C1865 C1869 1.408 . S
C1866 C1864 1.363 . S
C1866 C1867 1.370 . S
C1866 C1870 1.524 . S
C1867 C1859 1.503 1_565 S
C1867 C1866 1.370 . S
C1867 C1868 1.403 . S
C1868 C1867 1.403 . S
C1868 C1869 1.404 . S
C1868 C1871 1.539 1_565 S
C1869 C1865 1.408 . S
C1869 C1868 1.404 . S
C1869 H1881 0.930 . S
C1870 C1866 1.524 . S
C1870 H1882 0.956 . S
C1870 H1883 0.961 . S
C1870 H1884 0.961 . S
C1871 C1868 1.539 1_545 S
C1871 H1885 0.958 . S
C1871 H1886 0.961 1_545 S
C1871 H1887 0.960 . S
H1872 C1856 0.931 . S
H1873 C1861 0.929 . S
H1874 C1862 0.960 . S
H1875 C1862 0.962 . S
H1876 C1862 0.960 . S
H1877 C1863 0.961 . S
H1878 C1863 0.961 1_565 S
H1879 C1863 0.961 . S
H1880 C1864 0.931 . S
H1881 C1869 0.930 . S
H1882 C1870 0.956 . S
H1883 C1870 0.961 . S
H1884 C1870 0.961 . S
H1885 C1871 0.958 . S
H1886 C1871 0.961 1_565 S
H1887 C1871 0.960 . S
C1888 C1889 1.391 . S
C1888 C1890 1.394 . S
C1888 H1904 0.931 . S
C1889 C1888 1.391 . S
C1889 C1893 1.376 . S
C1890 C1888 1.394 . S
C1890 C1891 1.369 . S
C1890 C1894 1.531 . S
C1891 C1890 1.369 . S
C1891 C1892 1.410 . S
C1891 C1899 1.503 . S
C1892 C1891 1.410 . S
C1892 C1893 1.392 . S
C1892 C1895 1.511 . S
C1893 C1889 1.376 . S
C1893 C1892 1.392 . S
C1893 H1905 0.929 . S
C1894 C1890 1.531 . S
C1894 H1906 0.960 . S
C1894 H1907 0.962 . S
C1894 H1908 0.960 . S
C1895 C1892 1.511 . S
C1895 H1909 0.961 . S
C1895 H1910 0.961 . S
C1895 H1911 0.961 . S
C1896 C1897 1.370 . S
C1896 C1898 1.363 . S
C1896 H1912 0.931 . S
C1897 C1896 1.370 . S
C1897 C1901 1.408 . S
C1898 C1896 1.363 . S
C1898 C1899 1.370 . S
C1898 C1902 1.524 . S
C1899 C1891 1.503 . S
C1899 C1898 1.370 . S
C1899 C1900 1.403 . S
C1900 C1899 1.403 . S
C1900 C1901 1.404 . S
C1900 C1903 1.539 . S
C1901 C1897 1.408 . S
C1901 C1900 1.404 . S
C1901 H1913 0.930 . S
C1902 C1898 1.524 . S
C1902 H1914 0.956 . S
C1902 H1915 0.961 . S
C1902 H1916 0.961 . S
C1903 C1900 1.539 . S
C1903 H1917 0.958 . S
C1903 H1918 0.961 . S
C1903 H1919 0.960 . S
H1904 C1888 0.931 . S
H1905 C1893 0.929 . S
H1906 C1894 0.960 . S
H1907 C1894 0.962 . S
H1908 C1894 0.960 . S
H1909 C1895 0.961 . S
H1910 C1895 0.961 . S
H1911 C1895 0.961 . S
H1912 C1896 0.931 . S
H1913 C1901 0.930 . S
H1914 C1902 0.956 . S
H1915 C1902 0.961 . S
H1916 C1902 0.961 . S
H1917 C1903 0.958 . S
H1918 C1903 0.961 . S
H1919 C1903 0.960 . S
C1920 C1921 1.391 . S
C1920 C1922 1.394 . S
C1920 H1936 0.931 . S
C1921 C1920 1.391 . S
C1921 C1925 1.376 . S
C1922 C1920 1.394 . S
C1922 C1923 1.369 . S
C1922 C1926 1.531 . S
C1923 C1922 1.369 . S
C1923 C1924 1.410 . S
C1923 C1931 1.483 1_564 S
C1924 C1923 1.410 . S
C1924 C1925 1.392 . S
C1924 C1927 1.511 1_554 S
C1925 C1921 1.376 . S
C1925 C1924 1.392 . S
C1925 H1937 0.929 . S
C1926 C1922 1.531 . S
C1926 H1938 0.960 1_565 S
C1926 H1939 0.962 . S
C1926 H1940 0.960 . S
C1927 C1924 1.511 1_556 S
C1927 H1941 0.961 . S
C1927 H1942 0.961 . S
C1927 H1943 0.961 1_556 S
C1928 C1929 1.370 . S
C1928 C1930 1.363 . S
C1928 H1944 0.931 . S
C1929 C1928 1.370 . S
C1929 C1933 1.408 1_556 S
C1930 C1928 1.363 . S
C1930 C1931 1.419 . S
C1930 C1934 1.524 1_545 S
C1931 C1923 1.483 1_546 S
C1931 C1930 1.419 . S
C1931 C1932 1.375 1_556 S
C1932 C1931 1.375 1_554 S
C1932 C1933 1.404 . S
C1932 C1935 1.539 . S
C1933 C1929 1.408 1_554 S
C1933 C1932 1.404 . S
C1933 H1945 0.930 . S
C1934 C1930 1.524 1_565 S
C1934 H1946 0.956 . S
C1934 H1947 0.961 . S
C1934 H1948 0.947 1_565 S
C1935 C1932 1.539 . S
C1935 H1949 0.958 . S
C1935 H1950 0.961 . S
C1935 H1951 0.960 . S
H1936 C1920 0.931 . S
H1937 C1925 0.929 . S
H1938 C1926 0.960 1_545 S
H1939 C1926 0.962 . S
H1940 C1926 0.960 . S
H1941 C1927 0.961 . S
H1942 C1927 0.961 . S
H1943 C1927 0.961 1_554 S
H1944 C1928 0.931 . S
H1945 C1933 0.930 . S
H1946 C1934 0.956 . S
H1947 C1934 0.961 . S
H1948 C1934 0.947 1_545 S
H1949 C1935 0.958 . S
H1950 C1935 0.961 . S
H1951 C1935 0.960 . S
C1952 C1953 1.391 . S
C1952 C1954 1.394 . S
C1952 H1968 0.931 . S
C1953 C1952 1.391 . S
C1953 C1957 1.376 . S
C1954 C1952 1.394 . S
C1954 C1955 1.369 . S
C1954 C1958 1.531 . S
C1955 C1954 1.369 . S
C1955 C1956 1.410 . S
C1955 C1963 1.503 . S
C1956 C1955 1.410 . S
C1956 C1957 1.392 . S
C1956 C1959 1.511 . S
C1957 C1953 1.376 . S
C1957 C1956 1.392 . S
C1957 H1969 0.929 . S
C1958 C1954 1.531 . S
C1958 H1970 0.960 . S
C1958 H1971 0.962 . S
C1958 H1972 0.960 . S
C1959 C1956 1.511 . S
C1959 H1973 0.961 . S
C1959 H1974 0.961 . S
C1959 H1975 0.961 . S
C1960 C1961 1.370 . S
C1960 C1962 1.363 . S
C1960 H1976 0.931 . S
C1961 C1960 1.370 . S
C1961 C1965 1.408 . S
C1962 C1960 1.363 . S
C1962 C1963 1.370 . S
C1962 C1966 1.524 . S
C1963 C1955 1.503 . S
C1963 C1962 1.370 . S
C1963 C1964 1.403 . S
C1964 C1963 1.403 . S
C1964 C1965 1.404 . S
C1964 C1967 1.539 . S
C1965 C1961 1.408 . S
C1965 C1964 1.404 . S
C1965 H1977 0.930 . S
C1966 C1962 1.524 . S
C1966 H1978 0.956 . S
C1966 H1979 0.961 . S
C1966 H1980 0.961 . S
C1967 C1964 1.539 . S
C1967 H1981 0.958 . S
C1967 H1982 0.961 . S
C1967 H1983 0.960 . S
H1968 C1952 0.931 . S
H1969 C1957 0.929 . S
H1970 C1958 0.960 . S
H1971 C1958 0.962 . S
H1972 C1958 0.960 . S
H1973 C1959 0.961 . S
H1974 C1959 0.961 . S
H1975 C1959 0.961 . S
H1976 C1960 0.931 . S
H1977 C1965 0.930 . S
H1978 C1966 0.956 . S
H1979 C1966 0.961 . S
H1980 C1966 0.961 . S
H1981 C1967 0.958 . S
H1982 C1967 0.961 . S
H1983 C1967 0.960 . S
C1984 C1985 1.391 . S
C1984 C1986 1.394 . S
C1984 H2000 0.931 . S
C1985 C1984 1.391 . S
C1985 C1989 1.376 . S
C1986 C1984 1.394 . S
C1986 C1987 1.369 . S
C1986 C1990 1.531 . S
C1987 C1986 1.369 . S
C1987 C1988 1.410 . S
C1987 C1995 1.503 . S
C1988 C1987 1.410 . S
C1988 C1989 1.392 . S
C1988 C1991 1.511 . S
C1989 C1985 1.376 . S
C1989 C1988 1.392 . S
C1989 H2001 0.929 . S
C1990 C1986 1.531 . S
C1990 H2002 0.960 . S
C1990 H2003 0.962 . S
C1990 H2004 0.960 . S
C1991 C1988 1.511 . S
C1991 H2005 0.961 . S
C1991 H2006 0.961 . S
C1991 H2007 0.961 . S
C1992 C1993 1.370 . S
C1992 C1994 1.363 . S
C1992 H2008 0.931 . S
C1993 C1992 1.370 . S
C1993 C1997 1.408 . S
C1994 C1992 1.363 . S
C1994 C1995 1.370 . S
C1994 C1998 1.524 . S
C1995 C1987 1.503 . S
C1995 C1994 1.370 . S
C1995 C1996 1.403 . S
C1996 C1995 1.403 . S
C1996 C1997 1.404 . S
C1996 C1999 1.539 . S
C1997 C1993 1.408 . S
C1997 C1996 1.404 . S
C1997 H2009 0.930 . S
C1998 C1994 1.524 . S
C1998 H2010 0.956 . S
C1998 H2011 0.961 . S
C1998 H2012 0.961 . S
C1999 C1996 1.539 . S
C1999 H2013 0.958 1_554 S
C1999 H2014 0.961 . S
C1999 H2015 0.960 . S
H2000 C1984 0.931 . S
H2001 C1989 0.929 . S
H2002 C1990 0.960 . S
H2003 C1990 0.962 . S
H2004 C1990 0.960 . S
H2005 C1991 0.961 . S
H2006 C1991 0.961 . S
H2007 C1991 0.961 . S
H2008 C1992 0.931 . S
H2009 C1997 0.930 . S
H2010 C1998 0.956 . S
H2011 C1998 0.961 . S
H2012 C1998 0.961 . S
H2013 C1999 0.958 1_556 S
H2014 C1999 0.961 . S
H2015 C1999 0.960 . S
C2016 C2017 1.391 . S
C2016 C2018 1.394 . S
C2016 H2032 0.931 . S
C2017 C2016 1.391 . S
C2017 C2021 1.376 . S
C2018 C2016 1.394 . S
C2018 C2019 1.369 . S
C2018 C2022 1.531 . S
C2019 C2018 1.369 . S
C2019 C2020 1.410 . S
C2019 C2027 1.503 . S
C2020 C2019 1.410 . S
C2020 C2021 1.392 . S
C2020 C2023 1.511 . S
C2021 C2017 1.376 . S
C2021 C2020 1.392 . S
C2021 H2033 0.929 . S
C2022 C2018 1.531 . S
C2022 H2034 0.960 . S
C2022 H2035 0.962 . S
C2022 H2036 0.960 . S
C2023 C2020 1.511 . S
C2023 H2037 0.961 . S
C2023 H2038 0.961 . S
C2023 H2039 0.961 . S
C2024 C2025 1.370 . S
C2024 C2026 1.363 . S
C2024 H2040 0.931 . S
C2025 C2024 1.370 . S
C2025 C2029 1.408 . S
C2026 C2024 1.363 . S
C2026 C2027 1.370 . S
C2026 C2030 1.524 . S
C2027 C2019 1.503 . S
C2027 C2026 1.370 . S
C2027 C2028 1.403 . S
C2028 C2027 1.403 . S
C2028 C2029 1.404 . S
C2028 C2031 1.539 . S
C2029 C2025 1.408 . S
C2029 C2028 1.404 . S
C2029 H2041 0.930 . S
C2030 C2026 1.524 . S
C2030 H2042 0.956 . S
C2030 H2043 0.961 . S
C2030 H2044 0.961 . S
C2031 C2028 1.539 . S
C2031 H2045 0.958 . S
C2031 H2046 0.961 . S
C2031 H2047 0.960 . S
H2032 C2016 0.931 . S
H2033 C2021 0.929 . S
H2034 C2022 0.960 . S
H2035 C2022 0.962 . S
H2036 C2022 0.960 . S
H2037 C2023 0.961 . S
H2038 C2023 0.961 . S
H2039 C2023 0.961 . S
H2040 C2024 0.931 . S
H2041 C2029 0.930 . S
H2042 C2030 0.956 . S
H2043 C2030 0.961 . S
H2044 C2030 0.961 . S
H2045 C2031 0.958 . S
H2046 C2031 0.961 . S
H2047 C2031 0.960 . S
C2048 C2049 1.391 . S
C2048 C2050 1.394 . S
C2048 H2064 0.931 . S
C2049 C2048 1.391 . S
C2049 C2053 1.376 . S
C2050 C2048 1.394 . S
C2050 C2051 1.369 . S
C2050 C2054 1.531 . S
C2051 C2050 1.369 . S
C2051 C2052 1.410 . S
C2051 C2059 1.503 . S
C2052 C2051 1.410 . S
C2052 C2053 1.392 . S
C2052 C2055 1.511 . S
C2053 C2049 1.376 . S
C2053 C2052 1.392 . S
C2053 H2065 0.929 . S
C2054 C2050 1.531 . S
C2054 H2066 0.960 . S
C2054 H2067 0.962 . S
C2054 H2068 0.960 . S
C2055 C2052 1.511 . S
C2055 H2069 0.961 . S
C2055 H2070 0.961 . S
C2055 H2071 0.961 . S
C2056 C2057 1.370 . S
C2056 C2058 1.363 . S
C2056 H2072 0.931 . S
C2057 C2056 1.370 . S
C2057 C2061 1.408 . S
C2058 C2056 1.363 . S
C2058 C2059 1.370 . S
C2058 C2062 1.524 . S
C2059 C2051 1.503 . S
C2059 C2058 1.370 . S
C2059 C2060 1.403 . S
C2060 C2059 1.403 . S
C2060 C2061 1.404 . S
C2060 C2063 1.539 . S
C2061 C2057 1.408 . S
C2061 C2060 1.404 . S
C2061 H2073 0.930 . S
C2062 C2058 1.524 . S
C2062 H2074 0.956 . S
C2062 H2075 0.961 . S
C2062 H2076 0.961 . S
C2063 C2060 1.539 . S
C2063 H2077 0.958 . S
C2063 H2078 0.961 . S
C2063 H2079 0.960 . S
H2064 C2048 0.931 . S
H2065 C2053 0.929 . S
H2066 C2054 0.960 . S
H2067 C2054 0.962 . S
H2068 C2054 0.960 . S
H2069 C2055 0.961 . S
H2070 C2055 0.961 . S
H2071 C2055 0.961 . S
H2072 C2056 0.931 . S
H2073 C2061 0.930 . S
H2074 C2062 0.956 . S
H2075 C2062 0.961 . S
H2076 C2062 0.961 . S
H2077 C2063 0.958 . S
H2078 C2063 0.961 . S
H2079 C2063 0.960 . S
C2080 C2081 1.391 . S
C2080 C2082 1.394 . S
C2080 H2096 0.931 . S
C2081 C2080 1.391 . S
C2081 C2085 1.376 . S
C2082 C2080 1.394 . S
C2082 C2083 1.369 . S
C2082 C2086 1.531 . S
C2083 C2082 1.369 . S
C2083 C2084 1.410 . S
C2083 C2091 1.503 1_655 S
C2084 C2083 1.410 . S
C2084 C2085 1.392 . S
C2084 C2087 1.511 . S
C2085 C2081 1.376 . S
C2085 C2084 1.392 . S
C2085 H2097 0.929 . S
C2086 C2082 1.531 . S
C2086 H2098 0.960 1_655 S
C2086 H2099 0.962 . S
C2086 H2100 0.960 . S
C2087 C2084 1.511 . S
C2087 H2101 0.961 . S
C2087 H2102 0.961 1_655 S
C2087 H2103 0.961 . S
C2088 C2089 1.370 . S
C2088 C2090 1.363 . S
C2088 H2104 0.931 . S
C2089 C2088 1.370 . S
C2089 C2093 1.408 . S
C2090 C2088 1.363 . S
C2090 C2091 1.370 . S
C2090 C2094 1.524 . S
C2091 C2083 1.503 1_455 S
C2091 C2090 1.370 . S
C2091 C2092 1.403 . S
C2092 C2091 1.403 . S
C2092 C2093 1.404 . S
C2092 C2095 1.539 . S
C2093 C2089 1.408 . S
C2093 C2092 1.404 . S
C2093 H2105 0.930 . S
C2094 C2090 1.524 . S
C2094 H2106 0.984 . S
C2094 H2107 0.961 1_455 S
C2094 H2108 0.961 . S
C2095 C2092 1.539 . S
C2095 H2109 0.958 . S
C2095 H2110 0.961 . S
C2095 H2111 0.970 . S
H2096 C2080 0.931 . S
H2097 C2085 0.929 . S
H2098 C2086 0.960 1_455 S
H2099 C2086 0.962 . S
H2100 C2086 0.960 . S
H2101 C2087 0.961 . S
H2102 C2087 0.961 1_455 S
H2103 C2087 0.961 . S
H2104 C2088 0.931 . S
H2105 C2093 0.930 . S
H2106 C2094 0.984 . S
H2107 C2094 0.961 1_655 S
H2108 C2094 0.961 . S
H2109 C2095 0.958 . S
H2110 C2095 0.961 . S
H2111 C2095 0.970 . S
C2112 C2113 1.391 . S
C2112 C2114 1.394 . S
C2112 H2128 0.931 . S
C2113 C2112 1.391 . S
C2113 C2117 1.376 . S
C2114 C2112 1.394 . S
C2114 C2115 1.369 . S
C2114 C2118 1.531 . S
C2115 C2114 1.369 . S
C2115 C2116 1.410 . S
C2115 C2123 1.503 . S
C2116 C2115 1.410 . S
C2116 C2117 1.392 . S
C2116 C2119 1.511 . S
C2117 C2113 1.376 . S
C2117 C2116 1.392 . S
C2117 H2129 0.929 . S
C2118 C2114 1.531 . S
C2118 H2130 0.960 . S
C2118 H2131 0.962 . S
C2118 H2132 0.960 . S
C2119 C2116 1.511 . S
C2119 H2133 0.961 . S
C2119 H2134 0.961 . S
C2119 H2135 0.961 . S
C2120 C2121 1.370 . S
C2120 C2122 1.363 . S
C2120 H2136 0.931 . S
C2121 C2120 1.370 . S
C2121 C2125 1.408 . S
C2122 C2120 1.363 . S
C2122 C2123 1.370 . S
C2122 C2126 1.524 . S
C2123 C2115 1.503 . S
C2123 C2122 1.370 . S
C2123 C2124 1.403 . S
C2124 C2123 1.403 . S
C2124 C2125 1.404 . S
C2124 C2127 1.539 . S
C2125 C2121 1.408 . S
C2125 C2124 1.404 . S
C2125 H2137 0.930 . S
C2126 C2122 1.524 . S
C2126 H2138 0.956 . S
C2126 H2139 0.961 . S
C2126 H2140 0.961 . S
C2127 C2124 1.539 . S
C2127 H2141 0.958 . S
C2127 H2142 0.961 . S
C2127 H2143 0.960 . S
H2128 C2112 0.931 . S
H2129 C2117 0.929 . S
H2130 C2118 0.960 . S
H2131 C2118 0.962 . S
H2132 C2118 0.960 . S
H2133 C2119 0.961 . S
H2134 C2119 0.961 . S
H2135 C2119 0.961 . S
H2136 C2120 0.931 . S
H2137 C2125 0.930 . S
H2138 C2126 0.956 . S
H2139 C2126 0.961 . S
H2140 C2126 0.961 . S
H2141 C2127 0.958 . S
H2142 C2127 0.961 . S
H2143 C2127 0.960 . S
C2144 C2145 1.391 . S
C2144 C2146 1.394 . S
C2144 H2160 0.931 . S
C2145 C2144 1.391 . S
C2145 C2149 1.376 . S
C2146 C2144 1.394 . S
C2146 C2147 1.369 . S
C2146 C2150 1.531 . S
C2147 C2146 1.369 . S
C2147 C2148 1.410 . S
C2147 C2155 1.503 1_655 S
C2148 C2147 1.410 . S
C2148 C2149 1.392 . S
C2148 C2151 1.511 . S
C2149 C2145 1.376 . S
C2149 C2148 1.392 . S
C2149 H2161 0.929 . S
C2150 C2146 1.531 . S
C2150 H2162 0.960 1_655 S
C2150 H2163 0.962 . S
C2150 H2164 0.960 . S
C2151 C2148 1.511 . S
C2151 H2165 0.961 . S
C2151 H2166 0.961 1_655 S
C2151 H2167 0.961 . S
C2152 C2153 1.370 . S
C2152 C2154 1.363 . S
C2152 H2168 0.931 . S
C2153 C2152 1.370 . S
C2153 C2157 1.408 . S
C2154 C2152 1.363 . S
C2154 C2155 1.370 . S
C2154 C2158 1.524 . S
C2155 C2147 1.503 1_455 S
C2155 C2154 1.370 . S
C2155 C2156 1.403 . S
C2156 C2155 1.403 . S
C2156 C2157 1.404 . S
C2156 C2159 1.539 . S
C2157 C2153 1.408 . S
C2157 C2156 1.404 . S
C2157 H2169 0.930 . S
C2158 C2154 1.524 . S
C2158 H2170 0.984 . S
C2158 H2171 0.961 1_455 S
C2158 H2172 0.961 . S
C2159 C2156 1.539 . S
C2159 H2173 0.958 . S
C2159 H2174 0.961 . S
C2159 H2175 0.970 . S
H2160 C2144 0.931 . S
H2161 C2149 0.929 . S
H2162 C2150 0.960 1_455 S
H2163 C2150 0.962 . S
H2164 C2150 0.960 . S
H2165 C2151 0.961 . S
H2166 C2151 0.961 1_455 S
H2167 C2151 0.961 . S
H2168 C2152 0.931 . S
H2169 C2157 0.930 . S
H2170 C2158 0.984 . S
H2171 C2158 0.961 1_655 S
H2172 C2158 0.961 . S
H2173 C2159 0.958 . S
H2174 C2159 0.961 . S
H2175 C2159 0.970 . S
C2176 C2177 1.391 . S
C2176 C2178 1.394 . S
C2176 H2192 0.931 . S
C2177 C2176 1.391 . S
C2177 C2181 1.376 . S
C2178 C2176 1.394 . S
C2178 C2179 1.369 . S
C2178 C2182 1.531 . S
C2179 C2178 1.369 . S
C2179 C2180 1.410 . S
C2179 C2187 1.503 . S
C2180 C2179 1.410 . S
C2180 C2181 1.392 . S
C2180 C2183 1.511 . S
C2181 C2177 1.376 . S
C2181 C2180 1.392 . S
C2181 H2193 0.929 . S
C2182 C2178 1.531 . S
C2182 H2194 0.960 . S
C2182 H2195 0.962 . S
C2182 H2196 0.960 . S
C2183 C2180 1.511 . S
C2183 H2197 0.961 . S
C2183 H2198 0.961 . S
C2183 H2199 0.961 . S
C2184 C2185 1.370 . S
C2184 C2186 1.363 . S
C2184 H2200 0.931 . S
C2185 C2184 1.370 . S
C2185 C2189 1.408 . S
C2186 C2184 1.363 . S
C2186 C2187 1.370 . S
C2186 C2190 1.524 . S
C2187 C2179 1.503 . S
C2187 C2186 1.370 . S
C2187 C2188 1.403 . S
C2188 C2187 1.403 . S
C2188 C2189 1.404 . S
C2188 C2191 1.539 . S
C2189 C2185 1.408 . S
C2189 C2188 1.404 . S
C2189 H2201 0.930 . S
C2190 C2186 1.524 . S
C2190 H2202 0.956 . S
C2190 H2203 0.961 . S
C2190 H2204 0.961 . S
C2191 C2188 1.539 . S
C2191 H2205 0.958 . S
C2191 H2206 0.961 . S
C2191 H2207 0.960 . S
H2192 C2176 0.931 . S
H2193 C2181 0.929 . S
H2194 C2182 0.960 . S
H2195 C2182 0.962 . S
H2196 C2182 0.960 . S
H2197 C2183 0.961 . S
H2198 C2183 0.961 . S
H2199 C2183 0.961 . S
H2200 C2184 0.931 . S
H2201 C2189 0.930 . S
H2202 C2190 0.956 . S
H2203 C2190 0.961 . S
H2204 C2190 0.961 . S
H2205 C2191 0.958 . S
H2206 C2191 0.961 . S
H2207 C2191 0.960 . S
C2208 C2209 1.391 . S
C2208 C2210 1.394 . S
C2208 H2224 0.931 . S
C2209 C2208 1.391 . S
C2209 C2213 1.376 . S
C2210 C2208 1.394 . S
C2210 C2211 1.369 . S
C2210 C2214 1.531 . S
C2211 C2210 1.369 . S
C2211 C2212 1.410 . S
C2211 C2219 1.503 . S
C2212 C2211 1.410 . S
C2212 C2213 1.392 . S
C2212 C2215 1.511 . S
C2213 C2209 1.376 . S
C2213 C2212 1.392 . S
C2213 H2225 0.929 . S
C2214 C2210 1.531 . S
C2214 H2226 0.960 . S
C2214 H2227 0.962 . S
C2214 H2228 0.960 . S
C2215 C2212 1.511 . S
C2215 H2229 0.961 . S
C2215 H2230 0.961 . S
C2215 H2231 0.961 . S
C2216 C2217 1.370 . S
C2216 C2218 1.363 . S
C2216 H2232 0.931 . S
C2217 C2216 1.370 . S
C2217 C2221 1.408 . S
C2218 C2216 1.363 . S
C2218 C2219 1.370 . S
C2218 C2222 1.524 . S
C2219 C2211 1.503 . S
C2219 C2218 1.370 . S
C2219 C2220 1.403 . S
C2220 C2219 1.403 . S
C2220 C2221 1.404 . S
C2220 C2223 1.539 . S
C2221 C2217 1.408 . S
C2221 C2220 1.404 . S
C2221 H2233 0.930 . S
C2222 C2218 1.524 . S
C2222 H2234 0.956 . S
C2222 H2235 0.961 . S
C2222 H2236 0.961 . S
C2223 C2220 1.539 . S
C2223 H2237 0.958 . S
C2223 H2238 0.961 . S
C2223 H2239 0.960 . S
H2224 C2208 0.931 . S
H2225 C2213 0.929 . S
H2226 C2214 0.960 . S
H2227 C2214 0.962 . S
H2228 C2214 0.960 . S
H2229 C2215 0.961 . S
H2230 C2215 0.961 . S
H2231 C2215 0.961 . S
H2232 C2216 0.931 . S
H2233 C2221 0.930 . S
H2234 C2222 0.956 . S
H2235 C2222 0.961 . S
H2236 C2222 0.961 . S
H2237 C2223 0.958 . S
H2238 C2223 0.961 . S
H2239 C2223 0.960 . S
C2240 C2241 1.391 . S
C2240 C2242 1.394 . S
C2240 H2256 0.931 . S
C2241 C2240 1.391 . S
C2241 C2245 1.376 . S
C2242 C2240 1.394 . S
C2242 C2243 1.369 . S
C2242 C2246 1.531 . S
C2243 C2242 1.369 . S
C2243 C2244 1.410 . S
C2243 C2251 1.503 . S
C2244 C2243 1.410 . S
C2244 C2245 1.392 . S
C2244 C2247 1.511 . S
C2245 C2241 1.376 . S
C2245 C2244 1.392 . S
C2245 H2257 0.929 . S
C2246 C2242 1.531 . S
C2246 H2258 0.960 . S
C2246 H2259 0.962 . S
C2246 H2260 0.960 . S
C2247 C2244 1.511 . S
C2247 H2261 0.961 . S
C2247 H2262 0.961 . S
C2247 H2263 0.961 . S
C2248 C2249 1.370 . S
C2248 C2250 1.363 . S
C2248 H2264 0.931 . S
C2249 C2248 1.370 . S
C2249 C2253 1.408 . S
C2250 C2248 1.363 . S
C2250 C2251 1.370 . S
C2250 C2254 1.524 . S
C2251 C2243 1.503 . S
C2251 C2250 1.370 . S
C2251 C2252 1.403 . S
C2252 C2251 1.403 . S
C2252 C2253 1.404 . S
C2252 C2255 1.539 . S
C2253 C2249 1.408 . S
C2253 C2252 1.404 . S
C2253 H2265 0.930 . S
C2254 C2250 1.524 . S
C2254 H2266 0.956 . S
C2254 H2267 0.961 . S
C2254 H2268 0.961 . S
C2255 C2252 1.539 . S
C2255 H2269 0.958 . S
C2255 H2270 0.961 1_556 S
C2255 H2271 0.960 . S
H2256 C2240 0.931 . S
H2257 C2245 0.929 . S
H2258 C2246 0.960 . S
H2259 C2246 0.962 . S
H2260 C2246 0.960 . S
H2261 C2247 0.961 . S
H2262 C2247 0.961 . S
H2263 C2247 0.961 . S
H2264 C2248 0.931 . S
H2265 C2253 0.930 . S
H2266 C2254 0.956 . S
H2267 C2254 0.961 . S
H2268 C2254 0.961 . S
H2269 C2255 0.958 . S
H2270 C2255 0.961 1_554 S
H2271 C2255 0.960 . S
C2272 C2273 1.391 . S
C2272 C2274 1.394 . S
C2272 H2288 0.931 . S
C2273 C2272 1.391 . S
C2273 C2277 1.376 . S
C2274 C2272 1.394 . S
C2274 C2275 1.369 . S
C2274 C2278 1.531 . S
C2275 C2274 1.369 . S
C2275 C2276 1.410 . S
C2275 C2283 1.503 . S
C2276 C2275 1.410 . S
C2276 C2277 1.392 . S
C2276 C2279 1.511 . S
C2277 C2273 1.376 . S
C2277 C2276 1.392 . S
C2277 H2289 0.929 . S
C2278 C2274 1.531 . S
C2278 H2290 0.960 . S
C2278 H2291 0.962 . S
C2278 H2292 0.960 . S
C2279 C2276 1.511 . S
C2279 H2293 0.961 . S
C2279 H2294 0.961 . S
C2279 H2295 0.961 . S
C2280 C2281 1.370 . S
C2280 C2282 1.363 . S
C2280 H2296 0.931 . S
C2281 C2280 1.370 . S
C2281 C2285 1.408 . S
C2282 C2280 1.363 . S
C2282 C2283 1.370 . S
C2282 C2286 1.524 . S
C2283 C2275 1.503 . S
C2283 C2282 1.370 . S
C2283 C2284 1.403 . S
C2284 C2283 1.403 . S
C2284 C2285 1.404 . S
C2284 C2287 1.539 . S
C2285 C2281 1.408 . S
C2285 C2284 1.404 . S
C2285 H2297 0.930 . S
C2286 C2282 1.524 . S
C2286 H2298 0.956 . S
C2286 H2299 0.961 . S
C2286 H2300 0.961 . S
C2287 C2284 1.539 . S
C2287 H2301 0.958 . S
C2287 H2302 0.961 . S
C2287 H2303 0.960 . S
H2288 C2272 0.931 . S
H2289 C2277 0.929 . S
H2290 C2278 0.960 . S
H2291 C2278 0.962 . S
H2292 C2278 0.960 . S
H2293 C2279 0.961 . S
H2294 C2279 0.961 . S
H2295 C2279 0.961 . S
H2296 C2280 0.931 . S
H2297 C2285 0.930 . S
H2298 C2286 0.956 . S
H2299 C2286 0.961 . S
H2300 C2286 0.961 . S
H2301 C2287 0.958 . S
H2302 C2287 0.961 . S
H2303 C2287 0.960 . S
C2304 C2305 1.391 . S
C2304 C2306 1.394 . S
C2304 H2320 0.931 . S
C2305 C2304 1.391 . S
C2305 C2309 1.376 . S
C2306 C2304 1.394 . S
C2306 C2307 1.369 . S
C2306 C2310 1.531 . S
C2307 C2306 1.369 . S
C2307 C2308 1.410 . S
C2307 C2315 1.503 . S
C2308 C2307 1.410 . S
C2308 C2309 1.392 . S
C2308 C2311 1.511 . S
C2309 C2305 1.376 . S
C2309 C2308 1.392 . S
C2309 H2321 0.929 . S
C2310 C2306 1.531 . S
C2310 H2322 0.960 . S
C2310 H2323 0.962 . S
C2310 H2324 0.960 1_554 S
C2311 C2308 1.511 . S
C2311 H2325 0.961 . S
C2311 H2326 0.961 . S
C2311 H2327 0.961 . S
C2312 C2313 1.370 . S
C2312 C2314 1.363 . S
C2312 H2328 0.931 . S
C2313 C2312 1.370 . S
C2313 C2317 1.408 . S
C2314 C2312 1.363 . S
C2314 C2315 1.370 . S
C2314 C2318 1.524 . S
C2315 C2307 1.503 . S
C2315 C2314 1.370 . S
C2315 C2316 1.403 . S
C2316 C2315 1.403 . S
C2316 C2317 1.404 . S
C2316 C2319 1.539 . S
C2317 C2313 1.408 . S
C2317 C2316 1.404 . S
C2317 H2329 0.930 . S
C2318 C2314 1.524 . S
C2318 H2330 0.956 . S
C2318 H2331 0.961 . S
C2318 H2332 0.961 . S
C2319 C2316 1.539 . S
C2319 H2333 0.958 . S
C2319 H2334 0.961 . S
C2319 H2335 0.960 . S
H2320 C2304 0.931 . S
H2321 C2309 0.929 . S
H2322 C2310 0.960 . S
H2323 C2310 0.962 . S
H2324 C2310 0.960 1_556 S
H2325 C2311 0.961 . S
H2326 C2311 0.961 . S
H2327 C2311 0.961 . S
H2328 C2312 0.931 . S
H2329 C2317 0.930 . S
H2330 C2318 0.956 . S
H2331 C2318 0.961 . S
H2332 C2318 0.961 . S
H2333 C2319 0.958 . S
H2334 C2319 0.961 . S
H2335 C2319 0.960 . S
C2336 C2337 1.391 . S
C2336 C2338 1.394 . S
C2336 H2352 0.931 . S
C2337 C2336 1.391 . S
C2337 C2341 1.376 . S
C2338 C2336 1.394 . S
C2338 C2339 1.369 . S
C2338 C2342 1.531 . S
C2339 C2338 1.369 . S
C2339 C2340 1.410 . S
C2339 C2347 1.503 . S
C2340 C2339 1.410 . S
C2340 C2341 1.392 . S
C2340 C2343 1.511 . S
C2341 C2337 1.376 . S
C2341 C2340 1.392 . S
C2341 H2353 0.929 . S
C2342 C2338 1.531 . S
C2342 H2354 0.960 . S
C2342 H2355 0.962 . S
C2342 H2356 0.960 . S
C2343 C2340 1.511 . S
C2343 H2357 0.961 . S
C2343 H2358 0.961 . S
C2343 H2359 0.961 . S
C2344 C2345 1.370 . S
C2344 C2346 1.363 . S
C2344 H2360 0.931 . S
C2345 C2344 1.370 . S
C2345 C2349 1.408 . S
C2346 C2344 1.363 . S
C2346 C2347 1.370 . S
C2346 C2350 1.524 . S
C2347 C2339 1.503 . S
C2347 C2346 1.370 . S
C2347 C2348 1.403 . S
C2348 C2347 1.403 . S
C2348 C2349 1.404 . S
C2348 C2351 1.539 . S
C2349 C2345 1.408 . S
C2349 C2348 1.404 . S
C2349 H2361 0.930 . S
C2350 C2346 1.524 . S
C2350 H2362 0.956 . S
C2350 H2363 0.961 . S
C2350 H2364 0.961 . S
C2351 C2348 1.539 . S
C2351 H2365 0.958 . S
C2351 H2366 0.961 . S
C2351 H2367 0.960 . S
H2352 C2336 0.931 . S
H2353 C2341 0.929 . S
H2354 C2342 0.960 . S
H2355 C2342 0.962 . S
H2356 C2342 0.960 . S
H2357 C2343 0.961 . S
H2358 C2343 0.961 . S
H2359 C2343 0.961 . S
H2360 C2344 0.931 . S
H2361 C2349 0.930 . S
H2362 C2350 0.956 . S
H2363 C2350 0.961 . S
H2364 C2350 0.961 . S
H2365 C2351 0.958 . S
H2366 C2351 0.961 . S
H2367 C2351 0.960 . S
C2368 C2369 1.391 . S
C2368 C2370 1.394 . S
C2368 H2384 0.931 . S
C2369 C2368 1.391 . S
C2369 C2373 1.376 . S
C2370 C2368 1.394 . S
C2370 C2371 1.369 . S
C2370 C2374 1.531 . S
C2371 C2370 1.369 . S
C2371 C2372 1.410 . S
C2371 C2379 1.503 1_655 S
C2372 C2371 1.410 . S
C2372 C2373 1.392 . S
C2372 C2375 1.511 . S
C2373 C2369 1.376 . S
C2373 C2372 1.392 . S
C2373 H2385 0.929 . S
C2374 C2370 1.531 . S
C2374 H2386 0.960 1_655 S
C2374 H2387 0.962 . S
C2374 H2388 0.960 . S
C2375 C2372 1.511 . S
C2375 H2389 0.961 . S
C2375 H2390 0.961 1_655 S
C2375 H2391 0.961 . S
C2376 C2377 1.370 . S
C2376 C2378 1.363 . S
C2376 H2392 0.931 . S
C2377 C2376 1.370 . S
C2377 C2381 1.408 . S
C2378 C2376 1.363 . S
C2378 C2379 1.370 . S
C2378 C2382 1.524 . S
C2379 C2371 1.503 1_455 S
C2379 C2378 1.370 . S
C2379 C2380 1.403 . S
C2380 C2379 1.403 . S
C2380 C2381 1.404 . S
C2380 C2383 1.539 . S
C2381 C2377 1.408 . S
C2381 C2380 1.404 . S
C2381 H2393 0.930 . S
C2382 C2378 1.524 . S
C2382 H2394 0.984 . S
C2382 H2395 0.961 1_455 S
C2382 H2396 0.961 . S
C2383 C2380 1.539 . S
C2383 H2397 0.958 . S
C2383 H2398 0.961 . S
C2383 H2399 0.970 . S
H2384 C2368 0.931 . S
H2385 C2373 0.929 . S
H2386 C2374 0.960 1_455 S
H2387 C2374 0.962 . S
H2388 C2374 0.960 . S
H2389 C2375 0.961 . S
H2390 C2375 0.961 1_455 S
H2391 C2375 0.961 . S
H2392 C2376 0.931 . S
H2393 C2381 0.930 . S
H2394 C2382 0.984 . S
H2395 C2382 0.961 1_655 S
H2396 C2382 0.961 . S
H2397 C2383 0.958 . S
H2398 C2383 0.961 . S
H2399 C2383 0.970 . S
C2400 C2401 1.391 . S
C2400 C2402 1.394 . S
C2400 H2416 0.931 . S
C2401 C2400 1.391 . S
C2401 C2405 1.376 . S
C2402 C2400 1.394 . S
C2402 C2403 1.369 . S
C2402 C2406 1.531 . S
C2403 C2402 1.369 . S
C2403 C2404 1.410 . S
C2403 C2411 1.503 . S
C2404 C2403 1.410 . S
C2404 C2405 1.392 . S
C2404 C2407 1.511 . S
C2405 C2401 1.376 . S
C2405 C2404 1.392 . S
C2405 H2417 0.929 . S
C2406 C2402 1.531 . S
C2406 H2418 0.960 . S
C2406 H2419 0.962 . S
C2406 H2420 0.960 . S
C2407 C2404 1.511 . S
C2407 H2421 0.961 . S
C2407 H2422 0.961 . S
C2407 H2423 0.961 . S
C2408 C2409 1.370 . S
C2408 C2410 1.363 . S
C2408 H2424 0.931 . S
C2409 C2408 1.370 . S
C2409 C2413 1.408 . S
C2410 C2408 1.363 . S
C2410 C2411 1.370 . S
C2410 C2414 1.524 . S
C2411 C2403 1.503 . S
C2411 C2410 1.370 . S
C2411 C2412 1.403 . S
C2412 C2411 1.403 . S
C2412 C2413 1.404 . S
C2412 C2415 1.539 . S
C2413 C2409 1.408 . S
C2413 C2412 1.404 . S
C2413 H2425 0.930 . S
C2414 C2410 1.524 . S
C2414 H2426 0.956 . S
C2414 H2427 0.961 . S
C2414 H2428 0.961 . S
C2415 C2412 1.539 . S
C2415 H2429 0.958 . S
C2415 H2430 0.961 . S
C2415 H2431 0.960 . S
H2416 C2400 0.931 . S
H2417 C2405 0.929 . S
H2418 C2406 0.960 . S
H2419 C2406 0.962 . S
H2420 C2406 0.960 . S
H2421 C2407 0.961 . S
H2422 C2407 0.961 . S
H2423 C2407 0.961 . S
H2424 C2408 0.931 . S
H2425 C2413 0.930 . S
H2426 C2414 0.956 . S
H2427 C2414 0.961 . S
H2428 C2414 0.961 . S
H2429 C2415 0.958 . S
H2430 C2415 0.961 . S
H2431 C2415 0.960 . S
C2432 C2433 1.391 . S
C2432 C2434 1.394 . S
C2432 H2448 0.931 . S
C2433 C2432 1.391 . S
C2433 C2437 1.376 . S
C2434 C2432 1.394 . S
C2434 C2435 1.369 . S
C2434 C2438 1.531 . S
C2435 C2434 1.369 . S
C2435 C2436 1.410 . S
C2435 C2443 1.503 . S
C2436 C2435 1.410 . S
C2436 C2437 1.392 . S
C2436 C2439 1.511 . S
C2437 C2433 1.376 . S
C2437 C2436 1.392 . S
C2437 H2449 0.929 . S
C2438 C2434 1.531 . S
C2438 H2450 0.960 . S
C2438 H2451 0.962 . S
C2438 H2452 0.960 . S
C2439 C2436 1.511 . S
C2439 H2453 0.961 . S
C2439 H2454 0.961 . S
C2439 H2455 0.961 . S
C2440 C2441 1.370 . S
C2440 C2442 1.363 . S
C2440 H2456 0.931 . S
C2441 C2440 1.370 . S
C2441 C2445 1.408 . S
C2442 C2440 1.363 . S
C2442 C2443 1.370 . S
C2442 C2446 1.524 . S
C2443 C2435 1.503 . S
C2443 C2442 1.370 . S
C2443 C2444 1.403 . S
C2444 C2443 1.403 . S
C2444 C2445 1.404 . S
C2444 C2447 1.539 . S
C2445 C2441 1.408 . S
C2445 C2444 1.404 . S
C2445 H2457 0.930 . S
C2446 C2442 1.524 . S
C2446 H2458 0.956 . S
C2446 H2459 0.961 . S
C2446 H2460 0.961 . S
C2447 C2444 1.539 . S
C2447 H2461 0.958 . S
C2447 H2462 0.961 . S
C2447 H2463 0.960 . S
H2448 C2432 0.931 . S
H2449 C2437 0.929 . S
H2450 C2438 0.960 . S
H2451 C2438 0.962 . S
H2452 C2438 0.960 . S
H2453 C2439 0.961 . S
H2454 C2439 0.961 . S
H2455 C2439 0.961 . S
H2456 C2440 0.931 . S
H2457 C2445 0.930 . S
H2458 C2446 0.956 . S
H2459 C2446 0.961 . S
H2460 C2446 0.961 . S
H2461 C2447 0.958 . S
H2462 C2447 0.961 . S
H2463 C2447 0.960 . S
C2464 C2465 1.391 . S
C2464 C2466 1.394 . S
C2464 H2480 0.931 . S
C2465 C2464 1.391 . S
C2465 C2469 1.376 . S
C2466 C2464 1.394 . S
C2466 C2467 1.369 . S
C2466 C2470 1.531 . S
C2467 C2466 1.369 . S
C2467 C2468 1.410 . S
C2467 C2475 1.503 1_655 S
C2468 C2467 1.410 . S
C2468 C2469 1.392 . S
C2468 C2471 1.511 . S
C2469 C2465 1.376 . S
C2469 C2468 1.392 . S
C2469 H2481 0.929 . S
C2470 C2466 1.531 . S
C2470 H2482 0.960 1_655 S
C2470 H2483 0.962 . S
C2470 H2484 0.960 . S
C2471 C2468 1.511 . S
C2471 H2485 0.961 . S
C2471 H2486 0.961 1_655 S
C2471 H2487 0.961 . S
C2472 C2473 1.370 . S
C2472 C2474 1.363 . S
C2472 H2488 0.931 . S
C2473 C2472 1.370 . S
C2473 C2477 1.408 . S
C2474 C2472 1.363 . S
C2474 C2475 1.370 . S
C2474 C2478 1.524 . S
C2475 C2467 1.503 1_455 S
C2475 C2474 1.370 . S
C2475 C2476 1.403 . S
C2476 C2475 1.403 . S
C2476 C2477 1.404 . S
C2476 C2479 1.539 . S
C2477 C2473 1.408 . S
C2477 C2476 1.404 . S
C2477 H2489 0.930 . S
C2478 C2474 1.524 . S
C2478 H2490 0.984 . S
C2478 H2491 0.961 1_455 S
C2478 H2492 0.961 . S
C2479 C2476 1.539 . S
C2479 H2493 0.958 . S
C2479 H2494 0.961 . S
C2479 H2495 0.970 . S
H2480 C2464 0.931 . S
H2481 C2469 0.929 . S
H2482 C2470 0.960 1_455 S
H2483 C2470 0.962 . S
H2484 C2470 0.960 . S
H2485 C2471 0.961 . S
H2486 C2471 0.961 1_455 S
H2487 C2471 0.961 . S
H2488 C2472 0.931 . S
H2489 C2477 0.930 . S
H2490 C2478 0.984 . S
H2491 C2478 0.961 1_655 S
H2492 C2478 0.961 . S
H2493 C2479 0.958 . S
H2494 C2479 0.961 . S
H2495 C2479 0.970 . S
C449 C328 1.748 . S
C457 C7 1.736 . S
C481 C287 1.701 . S
C489 C20 1.709 . S
C513 C300 1.718 . S
C521 C35 1.741 . S
C545 C315 1.688 . S
C553 C48 1.714 . S
C577 C63 1.743 . S
C585 C244 1.738 . S
C609 C259 1.702 . S
C617 C76 1.709 . S
C641 C91 1.689 . S
C649 C272 1.713 . S
C673 C104 1.760 . S
C681 C231 1.723 . S
C705 C441 1.751 . S
C713 C119 1.739 . S
C737 C133 1.750 . S
C745 C399 1.739 . S
C769 C147 1.758 . S
C777 C413 1.735 . S
C801 C161 1.690 . S
C809 C427 1.710 . S
C833 C175 1.738 . S
C841 C357 1.712 . S
C865 C189 1.755 . S
C873 C371 1.737 . S
C897 C203 1.759 . S
C905 C385 1.735 . S
C929 C217 1.757 . S
C937 C343 1.736 . S
C961 C8 1.263 . S
C969 C176 1.274 . S
C993 C414 1.285 . S
C1001 C23 1.283 . S
C1025 C36 1.269 . S
C1033 C204 1.275 . S
C1057 C442 1.268 . S
C1065 C51 1.275 . S
C1089 C120 1.281 . S
C1097 C64 1.280 . S
C1121 C79 1.266 . S
C1129 C358 1.275 . S
C1153 C92 1.280 . S
C1161 C148 1.280 . S
C1185 C107 1.274 . S
C1193 C386 1.277 . S
C1217 C303 1.274 . S
C1225 C134 1.279 . S
C1249 C331 1.266 . S
C1257 C162 1.274 . S
C1281 C190 1.263 . S
C1289 C247 1.274 . S
C1313 C275 1.275 . S
C1321 C218 1.279 . S
C1345 C400 1.287 . S
C1353 C232 1.283 . S
C1377 C260 1.286 . S
C1385 C428 1.283 . S
C1409 C344 1.287 . S
C1417 C288 1.283 . S
C1441 C372 1.267 . S
C1449 C316 1.276 . S
C1473 C62 1.268 . S
C1481 C6 1.293 . S
C1505 C77 1.305 . S
C1513 C21 1.288 . S
C1537 C34 1.276 . S
C1545 C90 1.297 . S
C1569 C49 1.302 . S
C1577 C105 1.291 . S
C1601 C174 1.268 . S
C1609 C118 1.291 . S
C1633 C188 1.294 . S
C1641 C132 1.297 . S
C1665 C202 1.303 . S
C1673 C146 1.286 . S
C1697 C160 1.269 . S
C1705 C216 1.292 . S
C1729 C230 1.288 . S
C1737 C286 1.283 . S
C1761 C245 1.301 . S
C1769 C301 1.292 . S
C1793 C258 1.277 . S
C1801 C314 1.298 . S
C1825 C273 1.272 . S
C1833 C329 1.288 . S
C1857 C398 1.269 . S
C1865 C342 1.293 . S
C1889 C412 1.297 . S
C1897 C356 1.296 . S
C1921 C426 1.304 . S
C1929 C370 1.287 . S
C1953 C440 1.276 . S
C1961 C384 1.297 . S
C1985 C429 1.670 . S
C1993 C9 1.657 . S
C2017 C22 1.631 . S
C2025 C219 1.643 . S
C2049 C401 1.613 . S
C2057 C37 1.634 . S
C2081 C50 1.648 . S
C2089 C191 1.646 . S
C2113 C373 1.622 . S
C2121 C65 1.636 . S
C2145 C78 1.668 . S
C2153 C163 1.656 . S
C2177 C93 1.670 . S
C2185 C345 1.657 . S
C2209 C135 1.659 . S
C2217 C106 1.654 . S
C2241 C121 1.663 . S
C2249 C317 1.656 . S
C2273 C289 1.626 . S
C2281 C149 1.638 . S
C2305 C177 1.659 . S
C2313 C261 1.651 . S
C2337 C205 1.616 . S
C2345 C233 1.636 . S
C2369 C443 1.665 . S
C2377 C246 1.654 . S
C2401 C274 1.641 . S
C2409 C415 1.643 . S
C2433 C302 1.667 . S
C2441 C387 1.657 . S
C2465 C359 1.651 . S
C2473 C330 1.647 . S
