# Generated by pormake.
# Topology uoa, (4)-cn, num edge types: 1
# Building blocks:
#     Node 0, Type 0, BuildingBlock: QUQFOY_clean_sbu_1, # of connection points: 4
#     Node 1, Type 0, BuildingBlock: QUQFOY_clean_sbu_1, # of connection points: 4
#     Node 2, Type 0, BuildingBlock: QUQFOY_clean_sbu_1, # of connection points: 4
#     Node 3, Type 0, BuildingBlock: QUQFOY_clean_sbu_1, # of connection points: 4
#     Node 4, Type 0, BuildingBlock: QUQFOY_clean_sbu_1, # of connection points: 4
#     Node 5, Type 0, BuildingBlock: QUQFOY_clean_sbu_1, # of connection points: 4
#     Node 6, Type 0, BuildingBlock: QUQFOY_clean_sbu_1, # of connection points: 4
#     Node 7, Type 0, BuildingBlock: QUQFOY_clean_sbu_1, # of connection points: 4
#     Node 8, Type 0, BuildingBlock: QUQFOY_clean_sbu_1, # of connection points: 4
#     Node 9, Type 0, BuildingBlock: QUQFOY_clean_sbu_1, # of connection points: 4
#     Node 10, Type 0, BuildingBlock: QUQFOY_clean_sbu_1, # of connection points: 4
#     Node 11, Type 0, BuildingBlock: QUQFOY_clean_sbu_1, # of connection points: 4
#     Node 12, Type 0, BuildingBlock: QUQFOY_clean_sbu_1, # of connection points: 4
#     Node 13, Type 0, BuildingBlock: QUQFOY_clean_sbu_1, # of connection points: 4
#     Node 14, Type 0, BuildingBlock: QUQFOY_clean_sbu_1, # of connection points: 4
#     Node 15, Type 0, BuildingBlock: QUQFOY_clean_sbu_1, # of connection points: 4
#     Node 16, Type 0, BuildingBlock: QUQFOY_clean_sbu_1, # of connection points: 4
#     Node 17, Type 0, BuildingBlock: QUQFOY_clean_sbu_1, # of connection points: 4
#     Node 18, Type 0, BuildingBlock: QUQFOY_clean_sbu_1, # of connection points: 4
#     Node 19, Type 0, BuildingBlock: QUQFOY_clean_sbu_1, # of connection points: 4
#     Node 20, Type 0, BuildingBlock: QUQFOY_clean_sbu_1, # of connection points: 4
#     Node 21, Type 0, BuildingBlock: QUQFOY_clean_sbu_1, # of connection points: 4
#     Node 22, Type 0, BuildingBlock: QUQFOY_clean_sbu_1, # of connection points: 4
#     Node 23, Type 0, BuildingBlock: QUQFOY_clean_sbu_1, # of connection points: 4
#     Node 24, Type 0, BuildingBlock: QUQFOY_clean_sbu_1, # of connection points: 4
#     Node 25, Type 0, BuildingBlock: QUQFOY_clean_sbu_1, # of connection points: 4
#     Node 26, Type 0, BuildingBlock: QUQFOY_clean_sbu_1, # of connection points: 4
#     Node 27, Type 0, BuildingBlock: QUQFOY_clean_sbu_1, # of connection points: 4
#     Node 28, Type 0, BuildingBlock: QUQFOY_clean_sbu_1, # of connection points: 4
#     Node 29, Type 0, BuildingBlock: QUQFOY_clean_sbu_1, # of connection points: 4
#     Node 30, Type 0, BuildingBlock: QUQFOY_clean_sbu_1, # of connection points: 4
#     Node 31, Type 0, BuildingBlock: QUQFOY_clean_sbu_1, # of connection points: 4
#     Edge 32, Type (0, 0), BuildingBlock: OJICUG_clean_linker_0, # of connection points: 2
#     Edge 33, Type (0, 0), BuildingBlock: OJICUG_clean_linker_0, # of connection points: 2
#     Edge 34, Type (0, 0), BuildingBlock: OJICUG_clean_linker_0, # of connection points: 2
#     Edge 35, Type (0, 0), BuildingBlock: OJICUG_clean_linker_0, # of connection points: 2
#     Edge 36, Type (0, 0), BuildingBlock: OJICUG_clean_linker_0, # of connection points: 2
#     Edge 37, Type (0, 0), BuildingBlock: OJICUG_clean_linker_0, # of connection points: 2
#     Edge 38, Type (0, 0), BuildingBlock: OJICUG_clean_linker_0, # of connection points: 2
#     Edge 39, Type (0, 0), BuildingBlock: OJICUG_clean_linker_0, # of connection points: 2
#     Edge 40, Type (0, 0), BuildingBlock: OJICUG_clean_linker_0, # of connection points: 2
#     Edge 41, Type (0, 0), BuildingBlock: OJICUG_clean_linker_0, # of connection points: 2
#     Edge 42, Type (0, 0), BuildingBlock: OJICUG_clean_linker_0, # of connection points: 2
#     Edge 43, Type (0, 0), BuildingBlock: OJICUG_clean_linker_0, # of connection points: 2
#     Edge 44, Type (0, 0), BuildingBlock: OJICUG_clean_linker_0, # of connection points: 2
#     Edge 45, Type (0, 0), BuildingBlock: OJICUG_clean_linker_0, # of connection points: 2
#     Edge 46, Type (0, 0), BuildingBlock: OJICUG_clean_linker_0, # of connection points: 2
#     Edge 47, Type (0, 0), BuildingBlock: OJICUG_clean_linker_0, # of connection points: 2
#     Edge 48, Type (0, 0), BuildingBlock: OJICUG_clean_linker_0, # of connection points: 2
#     Edge 49, Type (0, 0), BuildingBlock: OJICUG_clean_linker_0, # of connection points: 2
#     Edge 50, Type (0, 0), BuildingBlock: OJICUG_clean_linker_0, # of connection points: 2
#     Edge 51, Type (0, 0), BuildingBlock: OJICUG_clean_linker_0, # of connection points: 2
#     Edge 52, Type (0, 0), BuildingBlock: OJICUG_clean_linker_0, # of connection points: 2
#     Edge 53, Type (0, 0), BuildingBlock: OJICUG_clean_linker_0, # of connection points: 2
#     Edge 54, Type (0, 0), BuildingBlock: OJICUG_clean_linker_0, # of connection points: 2
#     Edge 55, Type (0, 0), BuildingBlock: OJICUG_clean_linker_0, # of connection points: 2
#     Edge 56, Type (0, 0), BuildingBlock: OJICUG_clean_linker_0, # of connection points: 2
#     Edge 57, Type (0, 0), BuildingBlock: OJICUG_clean_linker_0, # of connection points: 2
#     Edge 58, Type (0, 0), BuildingBlock: OJICUG_clean_linker_0, # of connection points: 2
#     Edge 59, Type (0, 0), BuildingBlock: OJICUG_clean_linker_0, # of connection points: 2
#     Edge 60, Type (0, 0), BuildingBlock: OJICUG_clean_linker_0, # of connection points: 2
#     Edge 61, Type (0, 0), BuildingBlock: OJICUG_clean_linker_0, # of connection points: 2
#     Edge 62, Type (0, 0), BuildingBlock: OJICUG_clean_linker_0, # of connection points: 2
#     Edge 63, Type (0, 0), BuildingBlock: OJICUG_clean_linker_0, # of connection points: 2
#     Edge 64, Type (0, 0), BuildingBlock: OJICUG_clean_linker_0, # of connection points: 2
#     Edge 65, Type (0, 0), BuildingBlock: OJICUG_clean_linker_0, # of connection points: 2
#     Edge 66, Type (0, 0), BuildingBlock: OJICUG_clean_linker_0, # of connection points: 2
#     Edge 67, Type (0, 0), BuildingBlock: OJICUG_clean_linker_0, # of connection points: 2
#     Edge 68, Type (0, 0), BuildingBlock: OJICUG_clean_linker_0, # of connection points: 2
#     Edge 69, Type (0, 0), BuildingBlock: OJICUG_clean_linker_0, # of connection points: 2
#     Edge 70, Type (0, 0), BuildingBlock: OJICUG_clean_linker_0, # of connection points: 2
#     Edge 71, Type (0, 0), BuildingBlock: OJICUG_clean_linker_0, # of connection points: 2
#     Edge 72, Type (0, 0), BuildingBlock: OJICUG_clean_linker_0, # of connection points: 2
#     Edge 73, Type (0, 0), BuildingBlock: OJICUG_clean_linker_0, # of connection points: 2
#     Edge 74, Type (0, 0), BuildingBlock: OJICUG_clean_linker_0, # of connection points: 2
#     Edge 75, Type (0, 0), BuildingBlock: OJICUG_clean_linker_0, # of connection points: 2
#     Edge 76, Type (0, 0), BuildingBlock: OJICUG_clean_linker_0, # of connection points: 2
#     Edge 77, Type (0, 0), BuildingBlock: OJICUG_clean_linker_0, # of connection points: 2
#     Edge 78, Type (0, 0), BuildingBlock: OJICUG_clean_linker_0, # of connection points: 2
#     Edge 79, Type (0, 0), BuildingBlock: OJICUG_clean_linker_0, # of connection points: 2
#     Edge 80, Type (0, 0), BuildingBlock: OJICUG_clean_linker_0, # of connection points: 2
#     Edge 81, Type (0, 0), BuildingBlock: OJICUG_clean_linker_0, # of connection points: 2
#     Edge 82, Type (0, 0), BuildingBlock: OJICUG_clean_linker_0, # of connection points: 2
#     Edge 83, Type (0, 0), BuildingBlock: OJICUG_clean_linker_0, # of connection points: 2
#     Edge 84, Type (0, 0), BuildingBlock: OJICUG_clean_linker_0, # of connection points: 2
#     Edge 85, Type (0, 0), BuildingBlock: OJICUG_clean_linker_0, # of connection points: 2
#     Edge 86, Type (0, 0), BuildingBlock: OJICUG_clean_linker_0, # of connection points: 2
#     Edge 87, Type (0, 0), BuildingBlock: OJICUG_clean_linker_0, # of connection points: 2
#     Edge 88, Type (0, 0), BuildingBlock: OJICUG_clean_linker_0, # of connection points: 2
#     Edge 89, Type (0, 0), BuildingBlock: OJICUG_clean_linker_0, # of connection points: 2
#     Edge 90, Type (0, 0), BuildingBlock: OJICUG_clean_linker_0, # of connection points: 2
#     Edge 91, Type (0, 0), BuildingBlock: OJICUG_clean_linker_0, # of connection points: 2
#     Edge 92, Type (0, 0), BuildingBlock: OJICUG_clean_linker_0, # of connection points: 2
#     Edge 93, Type (0, 0), BuildingBlock: OJICUG_clean_linker_0, # of connection points: 2
#     Edge 94, Type (0, 0), BuildingBlock: OJICUG_clean_linker_0, # of connection points: 2
#     Edge 95, Type (0, 0), BuildingBlock: OJICUG_clean_linker_0, # of connection points: 2
# Relax obj value: 0.072
# Max RMSD: 0.151
# Mean RMSD: 0.151
data_MOF--net-uoa--node1-QUQFOY_clean_sbu_1--edge1-OJICUG_clean_linker_0
_symmetry_space_group_name_H-M    P1
_symmetry_Int_Tables_number       1
_symmetry_cell_setting            triclinic
loop_
_symmetry_equiv_pos_as_xyz
'x, y, z'
_cell_length_a     57.344887
_cell_length_b     57.299775
_cell_length_c     20.99838
_cell_angle_alpha  90.070777
_cell_angle_beta   90.146839
_cell_angle_gamma 90.055127
loop_
_atom_site_label
_atom_site_type_symbol
_atom_site_fract_x
_atom_site_fract_y
_atom_site_fract_z
_atom_type_partial_charge
O0 O 0.05128 0.10542 0.21203 0.0
Cd1 Cd 0.06564 0.09695 0.12507 0.0
Cd2 Cd 0.02389 0.11157 0.0913 0.0
O3 O 0.02194 0.12721 0.17976 0.0
O4 O 0.09964 0.09672 0.14666 0.0
O5 O 0.08326 0.12309 0.08364 0.0
C6 C 0.10131 0.11592 0.11493 0.0
C7 C 0.0195 0.12873 0.99252 0.0
C8 C 0.03504 0.11981 0.2242 0.0
C9 C 0.03314 0.06178 0.06831 0.0
O10 O 1.0175 0.0764 0.08363 0.0
O11 O 0.05461 0.06716 0.07509 0.0
O12 O 1.00183 0.12561 0.02964 0.0
O13 O 0.04011 0.12467 0.01506 0.0
O14 O 0.18734 0.80011 0.47135 0.0
Cd15 Cd 0.19158 0.8136 0.38122 0.0
Cd16 Cd 0.1788 0.77124 0.35287 0.0
O17 O 0.16381 0.77152 0.44232 0.0
O18 O 0.18754 0.84834 0.38919 0.0
O19 O 0.16093 0.82458 0.34807 0.0
C20 C 0.1666 0.84517 0.36791 0.0
C21 C 0.1619 0.76577 0.25396 0.0
C22 C 0.17247 0.78448 0.4856 0.0
C23 C 0.22676 0.78203 0.32235 0.0
O24 O 0.21403 0.76609 0.34575 0.0
O25 O 0.2197 0.80315 0.32382 0.0
O26 O 0.16501 0.74837 0.29221 0.0
O27 O 0.16573 0.78657 0.27541 0.0
O28 O 0.4873 0.93662 0.72033 0.0
Cd29 Cd 0.47396 0.94124 0.63 0.0
Cd30 Cd 0.51636 0.9285 0.60224 0.0
O31 O 0.51612 0.91345 0.69167 0.0
O32 O 0.43921 0.93746 0.63731 0.0
O33 O 0.46267 0.91084 0.59555 0.0
C34 C 0.44214 0.91662 0.61515 0.0
C35 C 0.52184 0.91163 0.50341 0.0
C36 C 0.50304 0.92189 0.73476 0.0
C37 C 0.50564 0.97662 0.57214 0.0
O38 O 0.52157 0.96377 0.59521 0.0
O39 O 0.48452 0.9696 0.57356 0.0
O40 O 0.53922 0.91476 0.54187 0.0
O41 O 0.50106 0.91541 0.5246 0.0
O42 O 0.35102 0.23699 0.96811 0.0
Cd43 Cd 0.34592 0.22334 0.87836 0.0
Cd44 Cd 0.35917 0.26551 0.84841 0.0
O45 O 0.37418 0.26569 0.93814 0.0
O46 O 0.34984 0.18861 0.88662 0.0
O47 O 0.3761 0.21206 0.84312 0.0
C48 C 0.37053 0.19156 0.86368 0.0
C49 C 0.37617 0.27131 0.74995 0.0
C50 C 0.3658 0.25281 0.9818 0.0
C51 C 0.31054 0.25491 0.82015 0.0
O52 O 0.32395 0.27087 0.84071 0.0
O53 O 0.31709 0.23365 0.82324 0.0
O54 O 0.37291 0.28857 0.7886 0.0
O55 O 0.37243 0.25043 0.77076 0.0
O56 O 0.04824 0.93314 0.29986 0.0
Cd57 Cd 0.06258 0.93894 0.38843 0.0
Cd58 Cd 0.02069 0.92554 0.4214 0.0
O59 O 0.01944 0.91048 0.33186 0.0
O60 O 0.09724 0.93574 0.37741 0.0
O61 O 0.07497 0.90927 0.42442 0.0
C62 C 0.09505 0.91515 0.40174 0.0
C63 C 1.01611 0.90809 0.52001 0.0
C64 C 0.03212 0.91855 0.28741 0.0
C65 C 0.03133 0.97458 0.44669 0.0
O66 O 1.01521 0.9608 0.42902 0.0
O67 O 0.05257 0.96818 0.44203 0.0
O68 O 0.99844 0.91141 0.48275 0.0
O69 O 0.03669 0.91224 0.49787 0.0
O70 O 0.35065 0.80071 0.53827 0.0
Cd71 Cd 0.34622 0.81403 0.62863 0.0
Cd72 Cd 0.35894 0.7716 0.65632 0.0
O73 O 0.37395 0.77195 0.56689 0.0
O74 O 0.35015 0.84881 0.62144 0.0
O75 O 0.37673 0.82514 0.66271 0.0
C76 C 0.37101 0.84574 0.6433 0.0
C77 C 0.37581 0.76607 0.75521 0.0
C78 C 0.36541 0.78502 0.5238 0.0
C79 C 0.31096 0.78232 0.68677 0.0
O80 O 0.32371 0.76641 0.66332 0.0
O81 O 0.31802 0.80345 0.6855 0.0
O82 O 0.37268 0.74869 0.71674 0.0
O83 O 0.37202 0.78688 0.73399 0.0
O84 O 0.48705 0.10109 0.78938 0.0
Cd85 Cd 0.47369 0.09647 0.87952 0.0
Cd86 Cd 0.51604 0.10938 0.90789 0.0
O87 O 0.51578 0.12443 0.81845 0.0
O88 O 0.43892 0.10011 0.8716 0.0
O89 O 0.46231 0.12687 0.91353 0.0
C90 C 0.4418 0.121 0.8936 0.0
C91 C 0.52149 0.12629 0.00679 0.0
C92 C 0.50274 0.1159 0.77516 0.0
C93 C 0.50545 0.06122 0.93783 0.0
O94 O 0.52134 0.07414 0.91497 0.0
O95 O 0.48431 0.06816 0.93617 0.0
O96 O 0.53887 0.12322 0.96856 0.0
O97 O 0.50072 0.12241 0.98533 0.0
O98 O 0.17822 0.23882 0.05635 0.0
Cd99 Cd 0.18782 0.22386 0.14174 0.0
Cd100 Cd 0.17324 0.26556 0.17868 0.0
O101 O 0.15758 0.26872 0.09042 0.0
O102 O 0.18889 0.19014 0.11702 0.0
O103 O 0.1628 0.20479 0.1837 0.0
C104 C 0.1702 0.18738 0.15023 0.0
C105 C 0.15572 0.26857 0.27754 0.0
C106 C 0.16431 0.25559 0.04532 0.0
C107 C 0.22334 0.25625 0.19829 0.0
O108 O 0.20838 0.272 0.18644 0.0
O109 O 0.21808 0.23482 0.18952 0.0
O110 O 0.15891 0.28672 0.24213 0.0
O111 O 0.16015 0.24828 0.25344 0.0
O112 O 0.98647 0.93173 0.8001 0.0
Cd113 Cd 0.97218 0.94043 0.887 0.0
Cd114 Cd 1.01395 0.92572 0.92073 0.0
O115 O 1.01591 0.91006 0.83231 0.0
O116 O 0.9382 0.941 0.86526 0.0
O117 O 0.95424 0.91455 0.92867 0.0
C118 C 0.93629 0.92189 0.89726 0.0
C119 C 1.01811 0.90853 0.01951 0.0
C120 C 1.00273 0.91737 0.78792 0.0
C121 C 1.00486 0.97555 0.94358 0.0
O122 O 0.02048 0.96086 0.92845 0.0
O123 O 0.98338 0.97022 0.93669 0.0
O124 O 0.03585 0.91155 0.98259 0.0
O125 O 0.99756 0.9127 0.99678 0.0
O126 O 0.85008 0.23724 0.5372 0.0
Cd127 Cd 0.84583 0.22383 0.62743 0.0
Cd128 Cd 0.85856 0.26623 0.65554 0.0
O129 O 0.87355 0.26589 0.56609 0.0
O130 O 0.84991 0.18908 0.61985 0.0
O131 O 0.87647 0.21292 0.66083 0.0
C132 C 0.87082 0.1923 0.64125 0.0
C133 C 0.87541 0.27182 0.75446 0.0
C134 C 0.86492 0.2529 0.52287 0.0
C135 C 0.81061 0.25542 0.68607 0.0
O136 O 0.82333 0.27134 0.66256 0.0
O137 O 0.81768 0.2343 0.68472 0.0
O138 O 0.87229 0.28918 0.71606 0.0
O139 O 0.87164 0.251 0.73316 0.0
O140 O 0.55032 0.10119 0.28976 0.0
Cd141 Cd 0.56371 0.09662 0.38005 0.0
Cd142 Cd 0.52133 0.10936 0.40796 0.0
O143 O 0.52153 0.12439 0.3185 0.0
O144 O 0.59845 0.10046 0.37259 0.0
O145 O 0.57496 0.12705 0.41436 0.0
C146 C 0.59549 0.12131 0.39468 0.0
C147 C 0.51581 0.12625 0.50676 0.0
C148 C 0.53458 0.11593 0.27537 0.0
C149 C 0.53209 0.06124 0.43806 0.0
O150 O 0.51615 0.07409 0.41503 0.0
O151 O 0.55321 0.06827 0.43659 0.0
O152 O 0.49844 0.12308 0.46828 0.0
O153 O 0.5366 0.12249 0.48561 0.0
O154 O 0.68385 0.79853 0.04883 0.0
Cd155 Cd 0.68963 0.81285 0.13743 0.0
Cd156 Cd 0.6763 0.7709 0.1704 0.0
O157 O 0.66124 0.76968 0.08081 0.0
O158 O 0.68629 0.84754 0.12654 0.0
O159 O 0.65993 0.82509 0.17338 0.0
C160 C 0.66572 0.84524 0.1508 0.0
C161 C 0.6589 0.76617 0.26899 0.0
C162 C 0.66929 0.78238 0.03636 0.0
C163 C 0.7253 0.78159 0.19574 0.0
O164 O 0.71153 0.76546 0.17807 0.0
O165 O 0.71888 0.80285 0.19109 0.0
O166 O 0.66225 0.74854 0.23167 0.0
O167 O 0.663 0.7868 0.24692 0.0
O168 O 0.98906 0.10417 0.71216 0.0
Cd169 Cd 0.97479 0.09834 0.6235 0.0
Cd170 Cd 1.01672 0.11167 0.5907 0.0
O171 O 1.01794 0.12674 0.68024 0.0
O172 O 0.94011 0.10164 0.6341 0.0
O173 O 0.96253 0.12801 0.5872 0.0
C174 C 0.94239 0.12219 0.60962 0.0
C175 C 0.02145 0.12908 0.49208 0.0
C176 C 1.00522 0.11872 0.72466 0.0
C177 C 1.00603 0.06264 0.56549 0.0
O178 O 0.02216 0.07641 0.58317 0.0
O179 O 0.98479 0.06906 0.57006 0.0
O180 O 0.03907 0.12573 0.52949 0.0
O181 O 1.00084 0.12499 0.51407 0.0
O182 O 0.68667 0.23749 0.47033 0.0
Cd183 Cd 0.69112 0.22414 0.38002 0.0
Cd184 Cd 0.6784 0.26657 0.35225 0.0
O185 O 0.6634 0.26627 0.44167 0.0
O186 O 0.6873 0.18936 0.38745 0.0
O187 O 0.66065 0.2129 0.34603 0.0
C188 C 0.66642 0.19233 0.3656 0.0
C189 C 0.66152 0.27196 0.25335 0.0
C190 C 0.67191 0.2532 0.48477 0.0
C191 C 0.72638 0.25586 0.32179 0.0
O192 O 0.71363 0.27179 0.34519 0.0
O193 O 0.71932 0.23473 0.32314 0.0
O194 O 0.66461 0.28939 0.29167 0.0
O195 O 0.66534 0.25119 0.27472 0.0
O196 O 0.55039 0.93706 0.22086 0.0
Cd197 Cd 0.56384 0.94146 0.13078 0.0
Cd198 Cd 0.52155 0.92852 0.1022 0.0
O199 O 0.52184 0.91351 0.19169 0.0
O200 O 0.59858 0.93754 0.13885 0.0
O201 O 0.57494 0.91089 0.09741 0.0
C202 C 0.59549 0.91661 0.11736 0.0
C203 C 0.51609 0.91158 1.00334 0.0
C204 C 0.53478 0.92216 0.23503 0.0
C205 C 0.53218 0.97665 0.072 0.0
O206 O 0.51628 0.96377 0.09501 0.0
O207 O 0.55331 0.96969 0.07367 0.0
O208 O 0.49871 0.91466 0.04157 0.0
O209 O 0.53686 0.91546 0.02477 0.0
O210 O 0.85621 0.80138 0.96109 0.0
Cd211 Cd 0.84752 0.8157 0.87412 0.0
Cd212 Cd 0.86221 0.7739 0.84051 0.0
O213 O 0.87786 0.77192 0.929 0.0
O214 O 0.84697 0.8497 0.89578 0.0
O215 O 0.87339 0.83365 0.83247 0.0
C216 C 0.86607 0.85161 0.86381 0.0
C217 C 0.87937 0.76964 0.7418 0.0
C218 C 0.87056 0.78509 0.97334 0.0
C219 C 0.81242 0.78303 0.81754 0.0
O220 O 0.82709 0.7674 0.83274 0.0
O221 O 0.81775 0.80452 0.82438 0.0
O222 O 0.87632 0.75192 0.77886 0.0
O223 O 0.87525 0.79024 0.76436 0.0
O224 O 0.55185 0.60656 0.71395 0.0
Cd225 Cd 0.56605 0.59755 0.62714 0.0
Cd226 Cd 0.52397 0.61157 0.59383 0.0
O227 O 0.52206 0.62772 0.68158 0.0
O228 O 0.60004 0.59708 0.64872 0.0
O229 O 0.58397 0.62326 0.58458 0.0
C230 C 0.60194 0.61605 0.6161 0.0
C231 C 0.51959 0.62819 0.49434 0.0
C232 C 0.53545 0.62079 0.72595 0.0
C233 C 0.53353 0.56184 0.57253 0.0
O234 O 0.51778 0.57634 0.58792 0.0
O235 O 0.55496 0.56752 0.57839 0.0
O236 O 0.5019 0.62517 0.53143 0.0
O237 O 0.5402 0.62432 0.51714 0.0
O238 O 0.68691 0.30035 0.9706 0.0
Cd239 Cd 0.69135 0.31373 0.88041 0.0
Cd240 Cd 0.67848 0.27135 0.85225 0.0
O241 O 0.66348 0.27167 0.94167 0.0
O242 O 0.68768 0.34851 0.88828 0.0
O243 O 0.66089 0.32506 0.84679 0.0
C244 C 0.66677 0.34559 0.8666 0.0
C245 C 0.66155 0.26599 0.75334 0.0
C246 C 0.67207 0.28469 0.9849 0.0
C247 C 0.72649 0.282 0.82183 0.0
O248 O 0.7137 0.26608 0.8451 0.0
O249 O 0.7195 0.30314 0.82335 0.0
O250 O 0.6646 0.24856 0.79154 0.0
O251 O 0.66545 0.28676 0.77485 0.0
O252 O 0.98952 0.43411 0.21232 0.0
Cd253 Cd 0.97542 0.43913 0.12309 0.0
Cd254 Cd 1.01733 0.42546 0.09187 0.0
O255 O 1.01811 0.41092 0.18196 0.0
O256 O 0.94068 0.43598 0.13304 0.0
O257 O 0.96318 0.40909 0.08875 0.0
C258 C 0.94298 0.41517 0.11011 0.0
C259 C 0.02169 0.4076 0.99367 0.0
C260 C 1.00544 0.41946 0.2258 0.0
C261 C 1.00709 0.47409 0.06322 0.0
O262 O 0.02308 0.46061 0.08308 0.0
O263 O 0.98582 0.46766 0.06722 0.0
O264 O 0.03941 0.41081 0.03087 0.0
O265 O 1.00117 0.41205 0.01577 0.0
O266 O 0.85483 0.7393 0.46149 0.0
Cd267 Cd 0.84901 0.72496 0.37294 0.0
Cd268 Cd 0.86237 0.7669 0.33988 0.0
O269 O 0.87743 0.76817 0.42946 0.0
O270 O 0.85224 0.69027 0.38404 0.0
O271 O 0.87865 0.71258 0.33697 0.0
C272 C 0.8728 0.69248 0.3597 0.0
C273 C 0.87979 0.77156 0.24131 0.0
C274 C 0.86939 0.75546 0.47393 0.0
C275 C 0.81336 0.75624 0.31458 0.0
O276 O 0.82714 0.77237 0.33217 0.0
O277 O 0.81975 0.73498 0.31932 0.0
O278 O 0.87645 0.78921 0.27856 0.0
O279 O 0.87567 0.75094 0.26344 0.0
O280 O 0.55076 0.43586 0.79182 0.0
Cd281 Cd 0.56434 0.44123 0.88154 0.0
Cd282 Cd 0.52201 0.42861 0.91103 0.0
O283 O 0.52185 0.41304 0.82209 0.0
O284 O 0.59903 0.4374 0.87328 0.0
O285 O 0.57574 0.41118 0.91761 0.0
C286 C 0.59617 0.41676 0.89678 0.0
C287 C 0.51632 0.41215 0.01028 0.0
C288 C 0.53488 0.42111 0.77839 0.0
C289 C 0.533 0.47718 0.93776 0.0
O290 O 0.51695 0.46394 0.91684 0.0
O291 O 0.55414 0.47028 0.93581 0.0
O292 O 0.499 0.41532 0.9717 0.0
O293 O 0.53715 0.41571 0.98912 0.0
O294 O 0.85009 0.30053 0.03734 0.0
Cd295 Cd 0.84582 0.31396 0.12764 0.0
Cd296 Cd 0.85848 0.27155 0.15557 0.0
O297 O 0.87348 0.27187 0.06612 0.0
O298 O 0.85008 0.3487 0.12032 0.0
O299 O 0.87648 0.32477 0.16132 0.0
C300 C 0.87096 0.34542 0.14184 0.0
C301 C 0.87534 0.26593 0.25443 0.0
C302 C 0.86489 0.28487 0.02295 0.0
C303 C 0.81054 0.28239 0.18609 0.0
O304 O 0.82323 0.26645 0.16257 0.0
O305 O 0.81764 0.30351 0.1848 0.0
O306 O 0.87216 0.24858 0.21592 0.0
O307 O 0.87161 0.28675 0.23329 0.0
O308 O 0.98795 0.60001 0.29149 0.0
Cd309 Cd 0.97437 0.59592 0.38152 0.0
Cd310 Cd 1.01645 0.60944 0.41059 0.0
O311 O 1.01624 0.62392 0.3204 0.0
O312 O 0.93964 0.59993 0.37322 0.0
O313 O 0.96335 0.62664 0.41402 0.0
C314 C 0.94279 0.62092 0.39416 0.0
C315 C 0.02193 0.62694 0.50872 0.0
C316 C 1.0035 0.61496 0.2771 0.0
C317 C 1.00613 0.56126 0.4422 0.0
O318 O 0.02197 0.57429 0.41955 0.0
O319 O 0.9849 0.5679 0.43944 0.0
O320 O 0.03928 0.62375 0.47046 0.0
O321 O 1.00115 0.62287 0.48756 0.0
O322 O 0.68242 0.7363 0.54933 0.0
Cd323 Cd 0.69108 0.72205 0.6364 0.0
Cd324 Cd 0.67645 0.76389 0.66979 0.0
O325 O 0.66081 0.76582 0.58127 0.0
O326 O 0.69148 0.688 0.61521 0.0
O327 O 0.66515 0.70429 0.67834 0.0
C328 C 0.6724 0.68623 0.64728 0.0
C329 C 0.65929 0.7682 0.76849 0.0
C330 C 0.6681 0.7526 0.53699 0.0
C331 C 0.72623 0.75471 0.69282 0.0
O332 O 0.71157 0.77035 0.67756 0.0
O333 O 0.72088 0.73322 0.68606 0.0
O334 O 0.66236 0.7859 0.73138 0.0
O335 O 0.66339 0.74759 0.74599 0.0
O336 O 0.48737 0.43717 0.2933 0.0
Cd337 Cd 0.47386 0.44163 0.38334 0.0
Cd338 Cd 0.5159 0.42792 0.41242 0.0
O339 O 0.51571 0.4134 0.32218 0.0
O340 O 0.43908 0.43806 0.37497 0.0
O341 O 0.46232 0.41118 0.41648 0.0
C342 C 0.44186 0.41712 0.39648 0.0
C343 C 0.52124 0.4104 0.51045 0.0
C344 C 0.50293 0.42225 0.27891 0.0
C345 C 0.50591 0.47626 0.44367 0.0
O346 O 0.52168 0.46304 0.4215 0.0
O347 O 0.48463 0.46978 0.44071 0.0
O348 O 0.53862 0.41352 0.47224 0.0
O349 O 0.50049 0.41455 0.48928 0.0
O350 O 0.35051 0.73743 0.03796 0.0
Cd351 Cd 0.34625 0.72403 0.12819 0.0
Cd352 Cd 0.35892 0.76647 0.15632 0.0
O353 O 0.37392 0.76614 0.06687 0.0
O354 O 0.35046 0.68928 0.12067 0.0
O355 O 0.3769 0.71323 0.16175 0.0
C356 C 0.37135 0.69258 0.14216 0.0
C357 C 0.37579 0.77206 0.25525 0.0
C358 C 0.36533 0.75312 0.02364 0.0
C359 C 0.31096 0.75558 0.18673 0.0
O360 O 0.32368 0.77153 0.16333 0.0
O361 O 0.31806 0.73448 0.18535 0.0
O362 O 0.37264 0.78942 0.21689 0.0
O363 O 0.37201 0.75124 0.23392 0.0
O364 O 0.0512 0.60135 0.79012 0.0
Cd365 Cd 0.0647 0.59609 0.87993 0.0
Cd366 Cd 0.02239 0.60874 0.90916 0.0
O367 O 0.02239 0.62429 0.8203 0.0
O368 O 0.09941 0.6 0.87206 0.0
O369 O 0.07602 0.62623 0.91594 0.0
C370 C 0.09649 0.62067 0.89541 0.0
C371 C 1.01675 0.6252 0.00852 0.0
C372 C 0.03541 0.61615 0.77664 0.0
C373 C 0.03322 0.56026 0.93614 0.0
O374 O 1.01724 0.57342 0.9148 0.0
O375 O 0.05438 0.56718 0.93443 0.0
O376 O 0.99942 0.62208 0.9699 0.0
O377 O 0.03757 0.6216 0.98734 0.0
O378 O 0.17824 0.2988 0.55653 0.0
Cd379 Cd 0.18785 0.31378 0.64202 0.0
Cd380 Cd 0.17329 0.27205 0.67871 0.0
O381 O 0.15764 0.26884 0.59042 0.0
O382 O 0.18888 0.3475 0.61764 0.0
O383 O 0.16283 0.33274 0.68424 0.0
C384 C 0.1702 0.35019 0.65095 0.0
C385 C 0.15576 0.26898 0.77753 0.0
C386 C 0.16435 0.28199 0.54541 0.0
C387 C 0.22339 0.2815 0.69837 0.0
O388 O 0.20844 0.2657 0.68648 0.0
O389 O 0.21811 0.30291 0.68967 0.0
O390 O 0.15897 0.25085 0.74201 0.0
O391 O 0.16018 0.28929 0.75357 0.0
O392 O 0.48982 0.60407 0.21229 0.0
Cd393 Cd 0.4757 0.59893 0.12309 0.0
Cd394 Cd 0.51767 0.61251 0.09178 0.0
O395 O 0.51858 0.62709 0.18191 0.0
O396 O 0.44097 0.60209 0.13319 0.0
O397 O 0.46348 0.62891 0.08857 0.0
C398 C 0.44328 0.62286 0.11009 0.0
C399 C 0.52217 0.63032 0.99365 0.0
C400 C 0.50585 0.61865 0.22576 0.0
C401 C 0.50722 0.5638 0.06341 0.0
O402 O 0.52327 0.57733 0.08294 0.0
O403 O 0.48597 0.57025 0.06753 0.0
O404 O 0.53985 0.62704 0.03089 0.0
O405 O 0.50161 0.62596 0.01567 0.0
O406 O 0.1872 0.73727 0.97105 0.0
Cd407 Cd 0.19167 0.7239 0.88077 0.0
Cd408 Cd 0.17884 0.76627 0.8529 0.0
O409 O 0.16383 0.76596 0.9423 0.0
O410 O 0.18799 0.68911 0.88831 0.0
O411 O 0.16123 0.71254 0.84688 0.0
C412 C 0.1671 0.692 0.8665 0.0
C413 C 0.16194 0.77165 0.75402 0.0
C414 C 0.17239 0.75293 0.98544 0.0
C415 C 0.22684 0.75567 0.82243 0.0
O416 O 0.21406 0.77157 0.8458 0.0
O417 O 0.21983 0.73452 0.82383 0.0
O418 O 0.16501 0.78907 0.79237 0.0
O419 O 0.16579 0.75088 0.77537 0.0
O420 O 0.05119 0.43151 0.71412 0.0
Cd421 Cd 0.06551 0.44025 0.62733 0.0
Cd422 Cd 0.0234 0.42636 0.59396 0.0
O423 O 0.02146 0.41021 0.6816 0.0
O424 O 0.09948 0.44054 0.64908 0.0
O425 O 0.0832 0.41429 0.58526 0.0
C426 C 0.10121 0.42144 0.61683 0.0
C427 C 0.01898 0.40978 0.49435 0.0
C428 C 0.03481 0.41723 0.72604 0.0
C429 C 0.03324 0.47598 0.57244 0.0
O430 O 1.01741 0.46162 0.58823 0.0
O431 O 0.05464 0.47018 0.57811 0.0
O432 O 1.00129 0.41283 0.53143 0.0
O433 O 0.0396 0.41359 0.51723 0.0
O434 O 0.35087 0.30115 0.46835 0.0
Cd435 Cd 0.3458 0.31482 0.37872 0.0
Cd436 Cd 0.35911 0.27271 0.34841 0.0
O437 O 0.37412 0.27257 0.43814 0.0
O438 O 0.34974 0.34956 0.38734 0.0
O439 O 0.376 0.32616 0.34369 0.0
C440 C 0.37045 0.34663 0.36448 0.0
C441 C 0.37616 0.26696 0.24994 0.0
C442 C 0.3657 0.2854 0.48191 0.0
C443 C 0.31047 0.28315 0.32018 0.0
O444 O 0.32391 0.26723 0.34063 0.0
O445 O 0.31699 0.30443 0.32343 0.0
O446 O 0.3729 0.24968 0.28847 0.0
O447 O 0.37238 0.28782 0.27087 0.0
C448 C 0.03134 0.13038 0.81548 0.0
C449 C 1.0089 0.12589 0.79143 0.0
H450 H 0.05244 0.135 0.8991 0.0
C451 C 0.98981 0.1265 0.83305 0.0
H452 H 0.04633 0.13014 0.78419 0.0
C453 C 0.99317 0.12985 0.89818 0.0
C454 C 1.01579 0.13213 0.92337 0.0
H455 H 0.97227 0.12351 0.81551 0.0
H456 H 0.97812 0.12898 0.92913 0.0
C457 C 0.0348 0.13326 0.88116 0.0
C458 C 0.16687 0.73663 0.09421 0.0
C459 C 0.16553 0.75579 0.05274 0.0
H460 H 0.16573 0.72459 0.19031 0.0
C461 C 0.15903 0.77766 0.07714 0.0
H462 H 0.17143 0.71947 0.07648 0.0
C463 C 0.15594 0.78069 0.14281 0.0
C464 C 0.15887 0.76178 0.18481 0.0
H465 H 0.15771 0.79268 0.04607 0.0
H466 H 0.15252 0.79805 0.16093 0.0
C467 C 0.16334 0.73953 0.15944 0.0
C468 C 0.51003 0.90874 0.32643 0.0
C469 C 0.53189 0.91529 0.30231 0.0
H470 H 0.48962 0.90219 0.40998 0.0
C471 C 0.55102 0.91665 0.34403 0.0
H472 H 0.49503 0.9074 0.29516 0.0
C473 C 0.54809 0.91311 0.40923 0.0
C474 C 0.52585 0.90861 0.43432 0.0
H475 H 0.56818 0.92125 0.32651 0.0
H476 H 0.56301 0.91552 0.44029 0.0
C477 C 0.50698 0.90565 0.39208 0.0
C478 C 0.37894 0.26013 0.57269 0.0
C479 C 0.37269 0.28218 0.54907 0.0
H480 H 0.3852 0.2393 0.65578 0.0
C481 C 0.37163 0.30118 0.59126 0.0
H482 H 0.38004 0.24523 0.54106 0.0
C483 C 0.37513 0.29796 0.65641 0.0
C484 C 0.37929 0.27555 0.68099 0.0
H485 H 0.36726 0.31847 0.57414 0.0
H486 H 0.37294 0.3128 0.68781 0.0
C487 C 0.382 0.25679 0.63829 0.0
C488 C 0.98689 0.90931 0.67984 0.0
C489 C 1.00614 0.90993 0.72126 0.0
H490 H 0.97487 0.90723 0.58375 0.0
C491 C 0.02849 0.9056 0.69681 0.0
H492 H 0.9694 0.91219 0.69765 0.0
C493 C 0.0317 0.90297 0.63102 0.0
C494 C 1.01255 0.90425 0.58903 0.0
H495 H 0.0436 0.90587 0.72786 0.0
H496 H 0.04929 0.90138 0.61284 0.0
C497 C 0.99002 0.90627 0.61453 0.0
C498 C 0.38182 0.78092 0.86651 0.0
C499 C 0.37881 0.76203 0.82432 0.0
H500 H 0.38012 0.79287 0.96337 0.0
C501 C 0.37426 0.73979 0.84946 0.0
H502 H 0.38531 0.79828 0.84856 0.0
C503 C 0.37073 0.73686 0.91467 0.0
C504 C 0.37215 0.756 0.95634 0.0
H505 H 0.37181 0.72486 0.81843 0.0
H506 H 0.36611 0.7197 0.93222 0.0
C507 C 0.37873 0.77787 0.93215 0.0
C508 C 0.54779 0.12502 0.10129 0.0
C509 C 0.52552 0.12935 0.07593 0.0
H510 H 0.56795 0.11707 0.18425 0.0
C511 C 0.50664 0.13219 0.11795 0.0
H512 H 0.56271 0.12271 0.0704 0.0
C513 C 0.50973 0.12915 0.18364 0.0
C514 C 0.53164 0.12277 0.20804 0.0
H515 H 0.48925 0.13551 0.09985 0.0
H516 H 0.49474 0.13039 0.21473 0.0
C517 C 0.55076 0.12153 0.16653 0.0
C518 C 0.15428 0.29726 0.43831 0.0
C519 C 0.15673 0.27803 0.4791 0.0
H520 H 0.151 0.30932 0.34269 0.0
C521 C 0.15442 0.25542 0.45401 0.0
H522 H 0.15563 0.3149 0.45666 0.0
C523 C 0.15203 0.25214 0.38808 0.0
C524 C 0.15156 0.27147 0.34669 0.0
H525 H 0.15617 0.24031 0.48462 0.0
H526 H 0.15209 0.23452 0.36934 0.0
C527 C 0.15149 0.29403 0.37295 0.0
C528 C 0.04761 0.91058 0.17924 0.0
C529 C 0.02847 0.91133 0.22066 0.0
H530 H 0.05941 0.90799 0.08329 0.0
C531 C 1.00604 0.90698 0.19643 0.0
H532 H 0.06515 0.91347 0.19694 0.0
C533 C 1.00264 0.90409 0.13072 0.0
C534 C 0.02171 0.90509 0.08869 0.0
H535 H 0.99101 0.90733 0.22758 0.0
H536 H 0.98501 0.90246 0.11262 0.0
C537 C 0.04431 0.90723 0.11409 0.0
C538 C 0.8783 0.26011 0.93138 0.0
C539 C 0.87172 0.28197 0.95563 0.0
H540 H 0.88491 0.23967 0.84773 0.0
C541 C 0.87029 0.30109 0.91402 0.0
H542 H 0.87969 0.24512 0.96255 0.0
C543 C 0.87384 0.29814 0.84881 0.0
C544 C 0.8784 0.27589 0.8236 0.0
H545 H 0.86566 0.31825 0.93163 0.0
H546 H 0.87138 0.31304 0.81783 0.0
C547 C 0.8814 0.25703 0.86573 0.0
C548 C 0.48655 0.12139 0.66609 0.0
C549 C 0.50566 0.12275 0.70787 0.0
H550 H 0.4746 0.12248 0.56978 0.0
C551 C 0.52755 0.12922 0.68377 0.0
H552 H 0.46937 0.11684 0.68358 0.0
C553 C 0.53064 0.13226 0.61812 0.0
C554 C 0.51177 0.12931 0.57583 0.0
H555 H 0.54254 0.13055 0.71507 0.0
H556 H 0.54801 0.13567 0.60025 0.0
C557 C 0.48951 0.12488 0.60088 0.0
C558 C 0.66019 0.7368 0.42877 0.0
C559 C 0.66071 0.75604 0.47025 0.0
H560 H 0.65819 0.72485 0.33263 0.0
C561 C 0.65633 0.77841 0.44581 0.0
H562 H 0.66312 0.7193 0.44655 0.0
C563 C 0.65371 0.78167 0.38001 0.0
C564 C 0.65507 0.76254 0.33798 0.0
H565 H 0.65652 0.79351 0.47689 0.0
H566 H 0.65207 0.79928 0.36186 0.0
C567 C 0.65717 0.73999 0.36344 0.0
C568 C 0.04763 0.13076 0.39774 0.0
C569 C 0.02509 0.1329 0.42309 0.0
H570 H 0.0683 0.12477 0.31476 0.0
C571 C 1.00598 0.13427 0.38096 0.0
H572 H 0.06275 0.12974 0.42864 0.0
C573 C 1.00924 0.13163 0.31518 0.0
C574 C 0.0316 0.12721 0.29089 0.0
H575 H 0.98839 0.13594 0.39902 0.0
H576 H 0.99416 0.13145 0.28403 0.0
C577 C 0.05081 0.12773 0.33245 0.0
C578 C 0.65556 0.25699 0.14214 0.0
C579 C 0.6585 0.27593 0.18421 0.0
H580 H 0.65734 0.24495 0.04537 0.0
C581 C 0.66299 0.29816 0.15892 0.0
H582 H 0.65212 0.23963 0.1602 0.0
C583 C 0.66654 0.30104 0.09371 0.0
C584 C 0.6652 0.28185 0.05218 0.0
H585 H 0.66539 0.31312 0.18985 0.0
H586 H 0.67113 0.3182 0.07604 0.0
C587 C 0.65867 0.25999 0.07649 0.0
C588 C 0.52787 0.90866 0.82652 0.0
C589 C 0.50597 0.91504 0.80209 0.0
H590 H 0.54833 0.9023 0.91034 0.0
C591 C 0.48684 0.91629 0.84357 0.0
H592 H 0.54287 0.90741 0.79545 0.0
C593 C 0.4898 0.91281 0.90883 0.0
C594 C 0.51207 0.90849 0.93421 0.0
H595 H 0.46965 0.92076 0.82582 0.0
H596 H 0.47487 0.91514 0.9397 0.0
C597 C 0.53095 0.90562 0.89221 0.0
C598 C 0.88383 0.78504 0.63047 0.0
C599 C 0.88279 0.76599 0.67266 0.0
H600 H 0.88063 0.79663 0.5335 0.0
C601 C 0.88062 0.74336 0.64744 0.0
H602 H 0.88548 0.8027 0.64843 0.0
C603 C 0.87728 0.74002 0.5823 0.0
C604 C 0.87657 0.75915 0.5407 0.0
H605 H 0.87984 0.72827 0.67837 0.0
H606 H 0.87438 0.72246 0.56474 0.0
C607 C 0.88095 0.78161 0.56477 0.0
C608 C 0.53167 0.63024 0.31734 0.0
C609 C 0.50935 0.62545 0.29292 0.0
H610 H 0.55257 0.63504 0.40128 0.0
C611 C 0.4902 0.62551 0.33439 0.0
H612 H 0.5467 0.63041 0.2862 0.0
C613 C 0.49341 0.62873 0.39963 0.0
C614 C 0.51594 0.63143 0.4251 0.0
H615 H 0.47273 0.62227 0.3166 0.0
H616 H 0.47833 0.6275 0.4304 0.0
C617 C 0.53499 0.63298 0.38312 0.0
C618 C 0.65866 0.27794 0.57655 0.0
C619 C 0.66508 0.25606 0.55209 0.0
H620 H 0.65225 0.29833 0.66041 0.0
C621 C 0.66636 0.23688 0.59351 0.0
H622 H 0.65739 0.29298 0.54552 0.0
C623 C 0.66286 0.23977 0.65876 0.0
C624 C 0.65849 0.26203 0.68419 0.0
H625 H 0.67086 0.21971 0.57573 0.0
H626 H 0.66521 0.22481 0.68959 0.0
C627 C 0.65561 0.28096 0.64224 0.0
C628 C 0.05075 0.40874 0.8337 0.0
C629 C 0.03144 0.40959 0.79249 0.0
H630 H 0.06287 0.40641 0.92965 0.0
C631 C 1.00909 0.40533 0.81704 0.0
H632 H 0.06823 0.41155 0.81579 0.0
C633 C 1.00594 0.40258 0.8828 0.0
C634 C 0.02516 0.40369 0.92464 0.0
H635 H 0.99394 0.40577 0.78615 0.0
H636 H 0.98836 0.40108 0.9011 0.0
C637 C 0.04767 0.40559 0.89898 0.0
C638 C 0.88493 0.75601 0.13031 0.0
C639 C 0.88363 0.77516 0.17231 0.0
H640 H 0.88205 0.74416 0.03345 0.0
C641 C 0.88159 0.79771 0.14681 0.0
H642 H 0.88652 0.7384 0.14849 0.0
C643 C 0.87857 0.80089 0.08149 0.0
C644 C 0.87798 0.78164 0.04005 0.0
H645 H 0.88062 0.81286 0.1776 0.0
H646 H 0.87568 0.8184 0.06368 0.0
C647 C 0.88231 0.75927 0.0645 0.0
C648 C 0.53099 0.40612 0.12179 0.0
C649 C 0.5122 0.4092 0.07935 0.0
H650 H 0.54275 0.40759 0.21892 0.0
C651 C 0.48994 0.41375 0.10423 0.0
H652 H 0.54836 0.40262 0.10405 0.0
C653 C 0.48691 0.41715 0.16947 0.0
C654 C 0.50594 0.4156 0.21145 0.0
H655 H 0.47509 0.41626 0.07302 0.0
H656 H 0.46974 0.42176 0.18685 0.0
C657 C 0.52782 0.40906 0.18747 0.0
C658 C 0.88142 0.28071 0.36577 0.0
C659 C 0.87835 0.26186 0.32352 0.0
H660 H 0.87979 0.29263 0.46267 0.0
C661 C 0.87375 0.23961 0.34861 0.0
H662 H 0.88496 0.29808 0.34786 0.0
C663 C 0.87023 0.23667 0.41382 0.0
C664 C 0.87172 0.25578 0.45555 0.0
H665 H 0.87124 0.22471 0.31754 0.0
H666 H 0.86557 0.21951 0.43134 0.0
C667 C 0.87835 0.27764 0.43141 0.0
C668 C 0.05146 0.62257 0.66805 0.0
C669 C 0.03235 0.62338 0.70967 0.0
H670 H 0.06331 0.62414 0.57188 0.0
C671 C 1.01034 0.62954 0.68558 0.0
H672 H 0.06872 0.61829 0.68558 0.0
C673 C 1.00715 0.63271 0.61997 0.0
C674 C 0.02602 0.63018 0.57776 0.0
H675 H 0.99536 0.63045 0.71679 0.0
H676 H 0.98969 0.63579 0.60205 0.0
C677 C 0.04838 0.62618 0.6029 0.0
C678 C 0.65766 0.75626 0.94553 0.0
C679 C 0.66211 0.77871 0.96958 0.0
H680 H 0.65307 0.73518 0.8619 0.0
C681 C 0.66146 0.79784 0.92795 0.0
H682 H 0.65793 0.74125 0.97682 0.0
C683 C 0.65812 0.7945 0.86282 0.0
C684 C 0.65587 0.77187 0.83763 0.0
H685 H 0.66442 0.81539 0.9455 0.0
H686 H 0.65895 0.80958 0.83187 0.0
C687 C 0.65478 0.75283 0.87984 0.0
C688 C 0.50966 0.40788 0.68732 0.0
C689 C 0.53174 0.41386 0.71141 0.0
H690 H 0.48893 0.4018 0.60378 0.0
C691 C 0.55085 0.4145 0.66977 0.0
H692 H 0.49467 0.4071 0.71855 0.0
C693 C 0.54771 0.41092 0.60459 0.0
C694 C 0.5253 0.40711 0.57946 0.0
H695 H 0.56815 0.41865 0.68729 0.0
H696 H 0.56265 0.41284 0.57357 0.0
C697 C 0.50642 0.40474 0.62169 0.0
C698 C 0.37429 0.79835 0.34967 0.0
C699 C 0.37882 0.77611 0.32438 0.0
H700 H 0.36617 0.81844 0.43258 0.0
C701 C 0.38184 0.75724 0.36645 0.0
H702 H 0.37182 0.81327 0.31873 0.0
C703 C 0.37879 0.76029 0.43212 0.0
C704 C 0.37223 0.78215 0.45646 0.0
H705 H 0.38533 0.73988 0.34839 0.0
H706 H 0.38019 0.74529 0.46324 0.0
C707 C 0.37079 0.80128 0.4149 0.0
C708 C 0.03146 0.63123 0.12002 0.0
C709 C 1.01266 0.6281 0.07762 0.0
H710 H 0.04327 0.62977 0.2171 0.0
C711 C 0.99042 0.62344 0.10252 0.0
H712 H 0.04881 0.63481 0.10226 0.0
C713 C 0.98742 0.61999 0.16774 0.0
C714 C 1.00647 0.6216 0.20967 0.0
H715 H 0.97556 0.62088 0.07133 0.0
H716 H 0.97027 0.61531 0.18513 0.0
C717 C 0.02833 0.62824 0.18568 0.0
C718 C 0.15151 0.24352 0.87276 0.0
C719 C 0.15158 0.26608 0.84666 0.0
H720 H 0.15563 0.22266 0.95634 0.0
C721 C 0.15202 0.28541 0.88818 0.0
H722 H 0.15103 0.22823 0.8424 0.0
C723 C 0.15439 0.28214 0.95409 0.0
C724 C 0.1567 0.25954 0.97903 0.0
H725 H 0.15207 0.30303 0.86955 0.0
H726 H 0.15613 0.29725 0.9848 0.0
C727 C 0.15428 0.2403 0.93811 0.0
C728 C 0.50971 0.63267 0.81695 0.0
C729 C 0.53206 0.62841 0.79247 0.0
H730 H 0.48893 0.63688 0.90094 0.0
C731 C 0.55134 0.62922 0.83381 0.0
H732 H 0.49458 0.63226 0.78598 0.0
C733 C 0.54822 0.63233 0.8991 0.0
C734 C 0.52569 0.63424 0.92467 0.0
H735 H 0.56883 0.62641 0.81596 0.0
H736 H 0.56339 0.63149 0.92985 0.0
C737 C 0.50652 0.63539 0.88272 0.0
C738 C 0.1591 0.75973 0.57713 0.0
C739 C 0.16562 0.78161 0.55288 0.0
H740 H 0.15256 0.73934 0.6608 0.0
C741 C 0.16695 0.80077 0.59446 0.0
H742 H 0.15778 0.7447 0.54596 0.0
C743 C 0.1634 0.79788 0.65966 0.0
C744 C 0.15892 0.77563 0.68489 0.0
H745 H 0.17152 0.81794 0.57683 0.0
H746 H 0.16579 0.81283 0.69062 0.0
C747 C 0.156 0.75671 0.64278 0.0
C748 C 0.03113 0.40773 0.31739 0.0
C749 C 1.00886 0.41267 0.29294 0.0
H750 H 0.05194 0.40277 0.40136 0.0
C751 C 0.98968 0.41271 0.33433 0.0
H752 H 0.04617 0.40748 0.28629 0.0
C753 C 0.99284 0.40944 0.39955 0.0
C754 C 1.01534 0.40659 0.42507 0.0
H755 H 0.97225 0.41606 0.31651 0.0
H756 H 0.97775 0.41075 0.43027 0.0
C757 C 0.03439 0.40495 0.38315 0.0
C758 C 0.37521 0.2403 0.15623 0.0
C759 C 0.37931 0.26272 0.18096 0.0
H760 H 0.36742 0.21974 0.07381 0.0
C761 C 0.382 0.28149 0.13839 0.0
H762 H 0.37304 0.22545 0.18754 0.0
C763 C 0.37898 0.27813 0.07276 0.0
C764 C 0.37278 0.25605 0.04898 0.0
H765 H 0.38516 0.29899 0.156 0.0
H766 H 0.38006 0.29304 0.04123 0.0
C767 C 0.37174 0.23705 0.09105 0.0
C768 C 0.04271 0.0235 0.01536 0.0
C769 C 0.02601 0.03937 0.03797 0.0
H770 H 0.04921 0.9912 0.96736 0.0
C771 C 1.00222 0.03425 0.02808 0.0
H772 H 0.06116 0.0269 0.02166 0.0
C773 C 0.99531 1.01383 0.99647 0.0
C774 C 1.01201 0.99796 0.97387 0.0
H775 H 0.98882 0.04612 0.04447 0.0
H776 H 0.97687 1.01043 0.99018 0.0
C777 C 0.03581 1.00307 0.98375 0.0
C778 C 0.25553 0.75186 0.28527 0.0
C779 C 0.24866 0.77545 0.28902 0.0
H780 H 0.28027 0.72704 0.24978 0.0
C781 C 0.26225 0.79229 0.25777 0.0
H782 H 0.24543 0.73835 0.30843 0.0
C783 C 0.28217 0.78574 0.22371 0.0
C784 C 0.28904 0.76216 0.21998 0.0
H785 H 0.25743 0.81056 0.25922 0.0
H786 H 0.29227 0.79925 0.20056 0.0
C787 C 0.27545 0.74531 0.25122 0.0
C788 C 0.50192 0.0324 0.47478 0.0
C789 C 0.5255 0.03923 0.47095 0.0
H790 H 0.47711 1.0076 0.50999 0.0
C791 C 0.54236 0.02549 0.50174 0.0
H792 H 0.4884 0.04262 0.45197 0.0
C793 C 0.53582 1.00545 0.53543 0.0
C794 C 0.51223 0.99863 0.53925 0.0
H795 H 0.56063 0.03026 0.50021 0.0
H796 H 0.54934 0.99524 0.55824 0.0
C797 C 0.49538 1.01237 0.50847 0.0
C798 C 0.28246 0.28525 0.78035 0.0
C799 C 0.28814 0.26154 0.78917 0.0
H800 H 0.25791 0.31016 0.74427 0.0
C801 C 0.27265 0.24451 0.766 0.0
H802 H 0.29403 0.2989 0.79711 0.0
C803 C 0.25192 0.25103 0.73542 0.0
C804 C 0.24617 0.27475 0.72697 0.0
H805 H 0.27651 0.22612 0.77155 0.0
H806 H 0.24029 0.2374 0.71881 0.0
C807 C 0.26178 0.29176 0.74956 0.0
C808 C 0.0422 1.01252 0.49966 0.0
C809 C 0.02498 0.99735 0.47598 0.0
H810 H 0.04976 0.04477 0.54678 0.0
C811 C 1.00138 1.00371 0.48285 0.0
H812 H 0.06051 1.00816 0.49553 0.0
C813 C 0.99516 0.02469 0.51257 0.0
C814 C 1.01238 0.03986 0.53624 0.0
H815 H 0.98759 0.99243 0.46545 0.0
H816 H 0.97685 0.02905 0.51669 0.0
C817 C 0.03598 0.03349 0.52939 0.0
C818 C 0.25555 0.78591 0.78539 0.0
C819 C 0.24873 0.76231 0.78914 0.0
H820 H 0.28023 0.8108 0.74986 0.0
C821 C 0.26234 0.74549 0.75785 0.0
H822 H 0.24543 0.79941 0.80857 0.0
C823 C 0.28224 0.75209 0.72376 0.0
C824 C 0.28906 0.77569 0.72003 0.0
H825 H 0.25756 0.72721 0.7593 0.0
H826 H 0.29236 0.73859 0.70059 0.0
C827 C 0.27545 0.79252 0.75131 0.0
C828 C 0.54232 1.01245 0.00836 0.0
C829 C 0.52552 0.99863 0.03901 0.0
H830 H 0.54919 0.04275 0.95199 0.0
C831 C 0.50192 1.00537 0.03502 0.0
H832 H 0.5606 1.00774 0.01002 0.0
C833 C 0.49531 0.02539 1.00134 0.0
C834 C 0.51211 0.03921 0.97072 0.0
H835 H 0.48844 0.9951 0.05772 0.0
H836 H 0.47703 0.0301 0.9997 0.0
C837 C 0.53571 0.03247 0.97468 0.0
C838 C 0.26175 0.24612 0.24943 0.0
C839 C 0.24612 0.26308 0.22691 0.0
H840 H 0.29401 0.23911 0.29693 0.0
C841 C 0.25184 0.28682 0.23547 0.0
H842 H 0.2579 0.22771 0.24406 0.0
C843 C 0.27257 0.29341 0.26606 0.0
C844 C 0.28808 0.27644 0.28916 0.0
H845 H 0.24019 0.3004 0.21892 0.0
H846 H 0.2764 0.31181 0.27169 0.0
C847 C 0.28242 0.25271 0.28023 0.0
C848 C 0.7819 0.28561 0.72319 0.0
C849 C 0.78872 0.26202 0.71941 0.0
H850 H 0.75722 0.31047 0.75877 0.0
C851 C 0.77511 0.24519 0.75066 0.0
H852 H 0.79201 0.29912 0.70004 0.0
C853 C 0.75521 0.25178 0.78475 0.0
C854 C 0.74839 0.27537 0.78853 0.0
H855 H 0.77989 0.22692 0.74917 0.0
H856 H 0.74509 0.23828 0.8079 0.0
C857 C 0.762 0.2922 0.75729 0.0
C858 C 0.75444 0.75161 0.23195 0.0
C859 C 0.74807 0.77523 0.22504 0.0
H860 H 0.77976 0.72705 0.26583 0.0
C861 C 0.76324 0.79246 0.24866 0.0
H862 H 0.74315 0.73782 0.21459 0.0
C863 C 0.78422 0.78623 0.27838 0.0
C864 C 0.79058 0.7626 0.2853 0.0
H865 H 0.75889 0.81078 0.2445 0.0
H866 H 0.79551 0.80002 0.29574 0.0
C867 C 0.77541 0.74538 0.26167 0.0
C868 C 0.75516 0.28606 0.28485 0.0
C869 C 0.74829 0.26247 0.28852 0.0
H870 H 0.77989 0.31091 0.24936 0.0
C871 C 0.76186 0.24564 0.25718 0.0
H872 H 0.74507 0.29957 0.30808 0.0
C873 C 0.78176 0.25221 0.22309 0.0
C874 C 0.78863 0.2758 0.21941 0.0
H875 H 0.75704 0.22736 0.25857 0.0
H876 H 0.79185 0.2387 0.19985 0.0
C877 C 0.77507 0.29264 0.25076 0.0
C878 C 0.75373 0.78567 0.73298 0.0
C879 C 0.74863 0.76186 0.72312 0.0
H880 H 0.77753 0.81104 0.77087 0.0
C881 C 0.76451 0.74515 0.74575 0.0
H882 H 0.74185 0.79908 0.71657 0.0
C883 C 0.78493 0.75206 0.77736 0.0
C884 C 0.79002 0.77588 0.78723 0.0
H885 H 0.76112 0.72669 0.73948 0.0
H886 H 0.7968 0.73865 0.79377 0.0
C887 C 0.77414 0.79259 0.76459 0.0
C888 C 0.54337 0.52427 0.51654 0.0
C889 C 0.52658 0.53934 0.54246 0.0
H890 H 0.55006 0.49285 0.46464 0.0
C891 C 0.50282 0.53348 0.5355 0.0
H892 H 0.56178 0.52825 0.52057 0.0
C893 C 0.49603 0.51318 0.50306 0.0
C894 C 0.51282 0.49825 0.47655 0.0
H895 H 0.48935 0.5447 0.55462 0.0
H896 H 0.47762 0.50924 0.49873 0.0
C897 C 0.53658 0.50402 0.48397 0.0
C898 C 0.03727 0.50293 0.02656 0.0
C899 C 1.01364 0.4964 0.03178 0.0
H900 H 0.06202 0.52794 0.99205 0.0
C901 C 0.99664 0.51085 1.00419 0.0
H902 H 0.05089 0.49219 0.04696 0.0
C903 C 1.00309 0.5313 0.97227 0.0
C904 C 0.02671 0.53786 0.96714 0.0
H905 H 0.97833 0.50632 0.0069 0.0
H906 H 0.98945 0.54205 0.95194 0.0
C907 C 0.04371 0.5234 0.99471 0.0
C908 C 0.54364 0.51425 0.99547 0.0
C909 C 0.52657 0.49968 0.96844 0.0
H910 H 0.55096 0.54566 0.04694 0.0
C911 C 0.50297 0.50626 0.97371 0.0
H912 H 0.56194 0.5097 0.99268 0.0
C913 C 0.49661 0.52683 0.00525 0.0
C914 C 0.51368 0.54139 0.03231 0.0
H915 H 0.48928 0.49542 0.95378 0.0
H916 H 0.47831 0.53136 0.0081 0.0
C917 C 0.53729 0.53484 0.02695 0.0
C918 C 0.04329 0.51329 0.5156 0.0
C919 C 0.02642 0.49842 0.54204 0.0
H920 H 0.05016 0.54446 0.46296 0.0
C921 C 1.0027 0.50441 0.53526 0.0
H922 H 0.06168 0.5092 0.51949 0.0
C923 C 0.99603 0.52463 0.50247 0.0
C924 C 1.0129 0.53935 0.47543 0.0
H925 H 0.98918 0.49334 0.55477 0.0
H926 H 0.97765 0.52868 0.49827 0.0
C927 C 0.03662 0.53346 0.48269 0.0
C928 C 0.12905 0.1374 0.18487 0.0
C929 C 0.12176 0.13128 0.12306 0.0
H930 H 0.14987 0.16057 0.24225 0.0
C931 C 0.13211 0.14225 0.07062 0.0
H932 H 0.12097 0.12944 0.22609 0.0
C933 C 0.14927 0.15934 0.07991 0.0
C934 C 0.15557 0.16642 0.14178 0.0
H935 H 0.12654 0.138 0.02265 0.0
H936 H 0.15656 0.16805 0.03874 0.0
C937 C 0.14547 0.1552 0.19421 0.0
C938 C 0.15464 0.88734 0.37823 0.0
C939 C 0.14864 0.86358 0.37397 0.0
H940 H 0.14229 0.92252 0.38982 0.0
C941 C 0.12517 0.85709 0.38107 0.0
H942 H 0.17264 0.89281 0.37352 0.0
C943 C 0.10808 0.87386 0.39274 0.0
C944 C 0.1139 0.89765 0.39603 0.0
H945 H 0.12001 0.83891 0.37905 0.0
H946 H 0.09014 0.86819 0.39766 0.0
C947 C 0.13734 0.90429 0.38809 0.0
C948 C 0.38263 0.88803 0.63357 0.0
C949 C 0.38885 0.86437 0.63872 0.0
H950 H 0.3947 0.92334 0.62255 0.0
C951 C 0.41248 0.85818 0.63405 0.0
H952 H 0.36452 0.89327 0.63643 0.0
C953 C 0.42951 0.87516 0.62386 0.0
C954 C 0.42345 0.89885 0.6196 0.0
H955 H 0.41782 0.84008 0.63685 0.0
H956 H 0.44756 0.86972 0.62078 0.0
C957 C 0.39985 0.90519 0.6251 0.0
C958 C 0.42912 0.16237 0.88328 0.0
C959 C 0.42308 0.13869 0.88855 0.0
H960 H 0.41736 0.19736 0.8691 0.0
C961 C 0.39947 0.13227 0.88348 0.0
H962 H 0.44718 0.16786 0.88599 0.0
C963 C 0.38221 0.14935 0.87458 0.0
C964 C 0.38839 0.173 0.86848 0.0
H965 H 0.39434 0.11412 0.88679 0.0
H966 H 0.3641 0.14405 0.87216 0.0
C967 C 0.41204 0.17926 0.87262 0.0
C968 C 0.89162 0.88294 0.81888 0.0
C969 C 0.88114 0.87229 0.87161 0.0
H970 H 0.91672 0.908 0.78634 0.0
C971 C 0.88744 0.8796 0.93327 0.0
H972 H 0.88723 0.87737 0.77101 0.0
C973 C 0.90493 0.89638 0.94214 0.0
C974 C 0.91563 0.90681 0.88941 0.0
H975 H 0.87984 0.87129 0.97468 0.0
H976 H 0.91045 0.90082 0.99002 0.0
C977 C 0.90838 0.90045 0.82774 0.0
C978 C 0.90009 0.13312 0.62246 0.0
C979 C 0.92354 0.13973 0.6148 0.0
H980 H 0.86476 0.14466 0.63627 0.0
C981 C 0.92938 0.16351 0.61778 0.0
H982 H 0.89513 0.11488 0.62095 0.0
C983 C 0.91228 0.18033 0.62888 0.0
C984 C 0.88878 0.17387 0.63571 0.0
H985 H 0.94733 0.16916 0.61305 0.0
H986 H 0.91744 0.19851 0.63068 0.0
C987 C 0.88277 0.1501 0.63175 0.0
C988 C 0.65492 0.15003 0.37572 0.0
C989 C 0.64864 0.17367 0.3704 0.0
H990 H 0.64295 0.1147 0.38709 0.0
C991 C 0.625 0.1798 0.37515 0.0
H992 H 0.67304 0.14483 0.3728 0.0
C993 C 0.60801 0.16279 0.38557 0.0
C994 C 0.61414 0.13911 0.39 0.0
H995 H 0.6196 0.19788 0.37222 0.0
H996 H 0.58995 0.16818 0.3887 0.0
C997 C 0.63775 0.13284 0.38441 0.0
C998 C 0.63768 0.9048 0.12769 0.0
C999 C 0.61396 0.8987 0.1233 0.0
H1000 H 0.67289 0.89256 0.13928 0.0
C1001 C 0.60758 0.87517 0.13016 0.0
H1002 H 0.64307 0.92284 0.12316 0.0
C1003 C 0.62441 0.85812 0.14173 0.0
C1004 C 0.64815 0.86404 0.14515 0.0
H1005 H 0.58943 0.86993 0.12803 0.0
H1006 H 0.61882 0.84014 0.14647 0.0
C1007 C 0.65469 0.88753 0.13744 0.0
C1008 C 0.63026 0.63738 0.68466 0.0
C1009 C 0.62264 0.63112 0.62323 0.0
H1010 H 0.65177 0.66035 0.74071 0.0
C1011 C 0.63304 0.64163 0.57016 0.0
H1012 H 0.62217 0.62976 0.72633 0.0
C1013 C 0.65058 0.65839 0.57845 0.0
C1014 C 0.65726 0.66559 0.63992 0.0
H1015 H 0.62723 0.63728 0.52247 0.0
H1016 H 0.65794 0.66676 0.53682 0.0
C1017 C 0.64709 0.65486 0.69298 0.0
C1018 C 0.60855 0.37524 0.88852 0.0
C1019 C 0.61475 0.39892 0.89215 0.0
H1020 H 0.61999 0.34008 0.87541 0.0
C1021 C 0.63835 0.40516 0.88553 0.0
H1022 H 0.59049 0.36987 0.89245 0.0
C1023 C 0.65543 0.38793 0.87653 0.0
C1024 C 0.64906 0.36428 0.87189 0.0
H1025 H 0.6436 0.42331 0.88755 0.0
H1026 H 0.67354 0.3931 0.87276 0.0
C1027 C 0.62544 0.35818 0.87775 0.0
C1028 C 0.91252 0.35724 0.13076 0.0
C1029 C 0.88903 0.36379 0.13655 0.0
H1030 H 0.94769 0.36822 0.11571 0.0
C1031 C 0.88315 0.38754 0.13167 0.0
H1032 H 0.91761 0.33905 0.13332 0.0
C1033 C 0.90057 0.40443 0.12236 0.0
C1034 C 0.92403 0.39773 0.11566 0.0
H1035 H 0.86514 0.39306 0.13538 0.0
H1036 H 0.8957 0.42267 0.12002 0.0
C1037 C 0.92975 0.37395 0.11969 0.0
C1038 C 0.90064 0.63286 0.38362 0.0
C1039 C 0.92438 0.63888 0.38779 0.0
H1040 H 0.86547 0.6452 0.372 0.0
C1041 C 0.93085 0.66237 0.38041 0.0
H1042 H 0.89519 0.61485 0.38854 0.0
C1043 C 0.91407 0.67946 0.36862 0.0
C1044 C 0.89031 0.67362 0.36547 0.0
H1045 H 0.94902 0.66754 0.38236 0.0
H1046 H 0.91973 0.6974 0.36352 0.0
C1047 C 0.88369 0.65016 0.37363 0.0
C1048 C 0.41198 0.35892 0.37385 0.0
C1049 C 0.38835 0.36519 0.3697 0.0
H1050 H 0.44713 0.37027 0.38773 0.0
C1051 C 0.38222 0.38883 0.37627 0.0
H1052 H 0.41727 0.34083 0.36998 0.0
C1053 C 0.3995 0.40589 0.38567 0.0
C1054 C 0.4231 0.39945 0.39078 0.0
H1055 H 0.36411 0.39414 0.37385 0.0
H1056 H 0.39442 0.42403 0.38937 0.0
C1057 C 0.42908 0.37578 0.38501 0.0
C1058 C 0.4129 0.6808 0.13075 0.0
C1059 C 0.3894 0.67423 0.13671 0.0
H1060 H 0.44804 0.66982 0.11549 0.0
C1061 C 0.38349 0.65046 0.13189 0.0
H1062 H 0.418 0.69899 0.13324 0.0
C1063 C 0.4009 0.63358 0.1225 0.0
C1064 C 0.42436 0.6403 0.11565 0.0
H1065 H 0.36549 0.64493 0.13573 0.0
H1066 H 0.39601 0.61533 0.12023 0.0
C1067 C 0.4301 0.66409 0.11959 0.0
C1068 C 0.13868 0.63236 0.88471 0.0
C1069 C 0.11507 0.63855 0.89102 0.0
H1070 H 0.17389 0.64451 0.87251 0.0
C1071 C 0.10886 0.66222 0.88738 0.0
H1072 H 0.14394 0.61423 0.88675 0.0
C1073 C 0.12576 0.67932 0.87694 0.0
C1074 C 0.1494 0.67327 0.87141 0.0
H1075 H 0.09079 0.66754 0.89108 0.0
H1076 H 0.1203 0.69739 0.87459 0.0
C1077 C 0.15577 0.64964 0.87603 0.0
C1078 C 0.12896 0.39995 0.68642 0.0
C1079 C 0.12168 0.40615 0.62471 0.0
H1080 H 0.1498 0.37677 0.74341 0.0
C1081 C 0.13208 0.39532 0.57208 0.0
H1082 H 0.12085 0.40782 0.72776 0.0
C1083 C 0.14927 0.37828 0.58109 0.0
C1084 C 0.15555 0.37112 0.64284 0.0
H1085 H 0.12651 0.39963 0.52417 0.0
H1086 H 0.15659 0.36967 0.53977 0.0
C1087 C 0.14541 0.38221 0.69546 0.0
loop_
_geom_bond_atom_site_label_1
_geom_bond_atom_site_label_2
_geom_bond_distance
_geom_bond_site_symmetry_2
_ccdc_geom_bond_type
O0 Cd1 2.223 . S
O0 C8 1.315 . S
Cd1 O0 2.223 . S
Cd1 O4 2.297 . S
Cd1 O5 2.439 . S
Cd1 O11 2.240 . S
Cd2 O3 2.240 1_656 S
Cd2 O10 2.223 1_556 S
Cd2 O12 2.297 . S
Cd2 O13 2.439 1_655 S
O3 Cd2 2.240 1_454 S
O3 C8 1.279 . S
O4 Cd1 2.297 . S
O4 C6 1.247 . S
O5 Cd1 2.439 . S
O5 C6 1.208 . S
C6 O4 1.247 . S
C6 O5 1.208 . S
C7 O12 1.247 1_455 S
C7 O13 1.208 . S
C8 O0 1.315 . S
C8 O3 1.279 . S
C9 O10 1.315 1_455 S
C9 O11 1.279 . S
O10 Cd2 2.223 1_554 S
O10 C9 1.315 1_655 S
O11 Cd1 2.240 . S
O11 C9 1.279 . S
O12 Cd2 2.297 . S
O12 C7 1.247 1_655 S
O13 Cd2 2.439 1_455 S
O13 C7 1.208 . S
O14 Cd15 2.223 . S
O14 C22 1.315 . S
Cd15 O14 2.223 . S
Cd15 O18 2.297 . S
Cd15 O19 2.439 . S
Cd15 O25 2.240 . S
Cd16 O17 2.240 . S
Cd16 O24 2.223 . S
Cd16 O26 2.297 . S
Cd16 O27 2.439 . S
O17 Cd16 2.240 . S
O17 C22 1.279 . S
O18 Cd15 2.297 . S
O18 C20 1.247 . S
O19 Cd15 2.439 . S
O19 C20 1.208 . S
C20 O18 1.247 . S
C20 O19 1.208 . S
C21 O26 1.247 . S
C21 O27 1.208 . S
C22 O14 1.315 . S
C22 O17 1.279 . S
C23 O24 1.315 . S
C23 O25 1.279 . S
O24 Cd16 2.223 . S
O24 C23 1.315 . S
O25 Cd15 2.240 . S
O25 C23 1.279 . S
O26 Cd16 2.297 . S
O26 C21 1.247 . S
O27 Cd16 2.439 . S
O27 C21 1.208 . S
O28 Cd29 2.223 . S
O28 C36 1.315 . S
Cd29 O28 2.223 . S
Cd29 O32 2.297 . S
Cd29 O33 2.439 . S
Cd29 O39 2.240 . S
Cd30 O31 2.240 . S
Cd30 O38 2.223 . S
Cd30 O40 2.297 . S
Cd30 O41 2.439 . S
O31 Cd30 2.240 . S
O31 C36 1.279 . S
O32 Cd29 2.297 . S
O32 C34 1.247 . S
O33 Cd29 2.439 . S
O33 C34 1.208 . S
C34 O32 1.247 . S
C34 O33 1.208 . S
C35 O40 1.247 . S
C35 O41 1.208 . S
C36 O28 1.315 . S
C36 O31 1.279 . S
C37 O38 1.315 . S
C37 O39 1.279 . S
O38 Cd30 2.223 . S
O38 C37 1.315 . S
O39 Cd29 2.240 . S
O39 C37 1.279 . S
O40 Cd30 2.297 . S
O40 C35 1.247 . S
O41 Cd30 2.439 . S
O41 C35 1.208 . S
O42 Cd43 2.223 . S
O42 C50 1.315 . S
Cd43 O42 2.223 . S
Cd43 O46 2.297 . S
Cd43 O47 2.439 . S
Cd43 O53 2.240 . S
Cd44 O45 2.240 . S
Cd44 O52 2.223 . S
Cd44 O54 2.297 . S
Cd44 O55 2.439 . S
O45 Cd44 2.240 . S
O45 C50 1.279 . S
O46 Cd43 2.297 . S
O46 C48 1.247 . S
O47 Cd43 2.439 . S
O47 C48 1.208 . S
C48 O46 1.247 . S
C48 O47 1.208 . S
C49 O54 1.247 . S
C49 O55 1.208 . S
C50 O42 1.315 . S
C50 O45 1.279 . S
C51 O52 1.315 . S
C51 O53 1.279 . S
O52 Cd44 2.223 . S
O52 C51 1.315 . S
O53 Cd43 2.240 . S
O53 C51 1.279 . S
O54 Cd44 2.297 . S
O54 C49 1.247 . S
O55 Cd44 2.439 . S
O55 C49 1.208 . S
O56 Cd57 2.223 . S
O56 C64 1.315 . S
Cd57 O56 2.223 . S
Cd57 O60 2.297 . S
Cd57 O61 2.439 . S
Cd57 O67 2.240 . S
Cd58 O59 2.240 1_655 S
Cd58 O66 2.223 . S
Cd58 O68 2.297 . S
Cd58 O69 2.439 1_655 S
O59 Cd58 2.240 1_455 S
O59 C64 1.279 . S
O60 Cd57 2.297 . S
O60 C62 1.247 . S
O61 Cd57 2.439 . S
O61 C62 1.208 . S
C62 O60 1.247 . S
C62 O61 1.208 . S
C63 O68 1.247 1_455 S
C63 O69 1.208 . S
C64 O56 1.315 . S
C64 O59 1.279 . S
C65 O66 1.315 1_455 S
C65 O67 1.279 . S
O66 Cd58 2.223 . S
O66 C65 1.315 1_655 S
O67 Cd57 2.240 . S
O67 C65 1.279 . S
O68 Cd58 2.297 . S
O68 C63 1.247 1_655 S
O69 Cd58 2.439 1_455 S
O69 C63 1.208 . S
O70 Cd71 2.223 . S
O70 C78 1.315 . S
Cd71 O70 2.223 . S
Cd71 O74 2.297 . S
Cd71 O75 2.439 . S
Cd71 O81 2.240 . S
Cd72 O73 2.240 . S
Cd72 O80 2.223 . S
Cd72 O82 2.297 . S
Cd72 O83 2.439 . S
O73 Cd72 2.240 . S
O73 C78 1.279 . S
O74 Cd71 2.297 . S
O74 C76 1.247 . S
O75 Cd71 2.439 . S
O75 C76 1.208 . S
C76 O74 1.247 . S
C76 O75 1.208 . S
C77 O82 1.247 . S
C77 O83 1.208 . S
C78 O70 1.315 . S
C78 O73 1.279 . S
C79 O80 1.315 . S
C79 O81 1.279 . S
O80 Cd72 2.223 . S
O80 C79 1.315 . S
O81 Cd71 2.240 . S
O81 C79 1.279 . S
O82 Cd72 2.297 . S
O82 C77 1.247 . S
O83 Cd72 2.439 . S
O83 C77 1.208 . S
O84 Cd85 2.223 . S
O84 C92 1.315 . S
Cd85 O84 2.223 . S
Cd85 O88 2.297 . S
Cd85 O89 2.439 . S
Cd85 O95 2.240 . S
Cd86 O87 2.240 1_554 S
Cd86 O94 2.223 1_554 S
Cd86 O96 2.297 . S
Cd86 O97 2.439 . S
O87 Cd86 2.240 1_556 S
O87 C92 1.279 . S
O88 Cd85 2.297 . S
O88 C90 1.247 . S
O89 Cd85 2.439 . S
O89 C90 1.208 . S
C90 O88 1.247 . S
C90 O89 1.208 . S
C91 O96 1.247 . S
C91 O97 1.208 . S
C92 O84 1.315 . S
C92 O87 1.279 . S
C93 O94 1.315 . S
C93 O95 1.279 . S
O94 Cd86 2.223 1_556 S
O94 C93 1.315 . S
O95 Cd85 2.240 . S
O95 C93 1.279 . S
O96 Cd86 2.297 . S
O96 C91 1.247 . S
O97 Cd86 2.439 . S
O97 C91 1.208 . S
O98 Cd99 2.223 . S
O98 C106 1.315 . S
Cd99 O98 2.223 . S
Cd99 O102 2.297 . S
Cd99 O103 2.439 . S
Cd99 O109 2.240 . S
Cd100 O101 2.240 . S
Cd100 O108 2.223 . S
Cd100 O110 2.297 . S
Cd100 O111 2.439 . S
O101 Cd100 2.240 . S
O101 C106 1.279 . S
O102 Cd99 2.297 . S
O102 C104 1.247 . S
O103 Cd99 2.439 . S
O103 C104 1.208 . S
C104 O102 1.247 . S
C104 O103 1.208 . S
C105 O110 1.247 . S
C105 O111 1.208 . S
C106 O98 1.315 . S
C106 O101 1.279 . S
C107 O108 1.315 . S
C107 O109 1.279 . S
O108 Cd100 2.223 . S
O108 C107 1.315 . S
O109 Cd99 2.240 . S
O109 C107 1.279 . S
O110 Cd100 2.297 . S
O110 C105 1.247 . S
O111 Cd100 2.439 . S
O111 C105 1.208 . S
O112 Cd113 2.223 . S
O112 C120 1.315 . S
Cd113 O112 2.223 . S
Cd113 O116 2.297 . S
Cd113 O117 2.439 . S
Cd113 O123 2.240 . S
Cd114 O115 2.240 1_454 S
Cd114 O122 2.223 1_554 S
Cd114 O124 2.297 . S
Cd114 O125 2.439 1_455 S
O115 Cd114 2.240 1_656 S
O115 C120 1.279 . S
O116 Cd113 2.297 . S
O116 C118 1.247 . S
O117 Cd113 2.439 . S
O117 C118 1.208 . S
C118 O116 1.247 . S
C118 O117 1.208 . S
C119 O124 1.247 1_655 S
C119 O125 1.208 . S
C120 O112 1.315 . S
C120 O115 1.279 . S
C121 O122 1.315 1_655 S
C121 O123 1.279 . S
O122 Cd114 2.223 1_556 S
O122 C121 1.315 1_455 S
O123 Cd113 2.240 . S
O123 C121 1.279 . S
O124 Cd114 2.297 . S
O124 C119 1.247 1_455 S
O125 Cd114 2.439 1_655 S
O125 C119 1.208 . S
O126 Cd127 2.223 . S
O126 C134 1.315 . S
Cd127 O126 2.223 . S
Cd127 O130 2.297 . S
Cd127 O131 2.439 . S
Cd127 O137 2.240 . S
Cd128 O129 2.240 . S
Cd128 O136 2.223 . S
Cd128 O138 2.297 . S
Cd128 O139 2.439 . S
O129 Cd128 2.240 . S
O129 C134 1.279 . S
O130 Cd127 2.297 . S
O130 C132 1.247 . S
O131 Cd127 2.439 . S
O131 C132 1.208 . S
C132 O130 1.247 . S
C132 O131 1.208 . S
C133 O138 1.247 . S
C133 O139 1.208 . S
C134 O126 1.315 . S
C134 O129 1.279 . S
C135 O136 1.315 . S
C135 O137 1.279 . S
O136 Cd128 2.223 . S
O136 C135 1.315 . S
O137 Cd127 2.240 . S
O137 C135 1.279 . S
O138 Cd128 2.297 . S
O138 C133 1.247 . S
O139 Cd128 2.439 . S
O139 C133 1.208 . S
O140 Cd141 2.223 . S
O140 C148 1.315 . S
Cd141 O140 2.223 . S
Cd141 O144 2.297 . S
Cd141 O145 2.439 . S
Cd141 O151 2.240 . S
Cd142 O143 2.240 . S
Cd142 O150 2.223 . S
Cd142 O152 2.297 . S
Cd142 O153 2.439 . S
O143 Cd142 2.240 . S
O143 C148 1.279 . S
O144 Cd141 2.297 . S
O144 C146 1.247 . S
O145 Cd141 2.439 . S
O145 C146 1.208 . S
C146 O144 1.247 . S
C146 O145 1.208 . S
C147 O152 1.247 . S
C147 O153 1.208 . S
C148 O140 1.315 . S
C148 O143 1.279 . S
C149 O150 1.315 . S
C149 O151 1.279 . S
O150 Cd142 2.223 . S
O150 C149 1.315 . S
O151 Cd141 2.240 . S
O151 C149 1.279 . S
O152 Cd142 2.297 . S
O152 C147 1.247 . S
O153 Cd142 2.439 . S
O153 C147 1.208 . S
O154 Cd155 2.223 . S
O154 C162 1.315 . S
Cd155 O154 2.223 . S
Cd155 O158 2.297 . S
Cd155 O159 2.439 . S
Cd155 O165 2.240 . S
Cd156 O157 2.240 . S
Cd156 O164 2.223 . S
Cd156 O166 2.297 . S
Cd156 O167 2.439 . S
O157 Cd156 2.240 . S
O157 C162 1.279 . S
O158 Cd155 2.297 . S
O158 C160 1.247 . S
O159 Cd155 2.439 . S
O159 C160 1.208 . S
C160 O158 1.247 . S
C160 O159 1.208 . S
C161 O166 1.247 . S
C161 O167 1.208 . S
C162 O154 1.315 . S
C162 O157 1.279 . S
C163 O164 1.315 . S
C163 O165 1.279 . S
O164 Cd156 2.223 . S
O164 C163 1.315 . S
O165 Cd155 2.240 . S
O165 C163 1.279 . S
O166 Cd156 2.297 . S
O166 C161 1.247 . S
O167 Cd156 2.439 . S
O167 C161 1.208 . S
O168 Cd169 2.223 . S
O168 C176 1.315 . S
Cd169 O168 2.223 . S
Cd169 O172 2.297 . S
Cd169 O173 2.439 . S
Cd169 O179 2.240 . S
Cd170 O171 2.240 1_455 S
Cd170 O178 2.223 . S
Cd170 O180 2.297 . S
Cd170 O181 2.439 1_455 S
O171 Cd170 2.240 1_655 S
O171 C176 1.279 . S
O172 Cd169 2.297 . S
O172 C174 1.247 . S
O173 Cd169 2.439 . S
O173 C174 1.208 . S
C174 O172 1.247 . S
C174 O173 1.208 . S
C175 O180 1.247 1_655 S
C175 O181 1.208 . S
C176 O168 1.315 . S
C176 O171 1.279 . S
C177 O178 1.315 1_655 S
C177 O179 1.279 . S
O178 Cd170 2.223 . S
O178 C177 1.315 1_455 S
O179 Cd169 2.240 . S
O179 C177 1.279 . S
O180 Cd170 2.297 . S
O180 C175 1.247 1_455 S
O181 Cd170 2.439 1_655 S
O181 C175 1.208 . S
O182 Cd183 2.223 . S
O182 C190 1.315 . S
Cd183 O182 2.223 . S
Cd183 O186 2.297 . S
Cd183 O187 2.439 . S
Cd183 O193 2.240 . S
Cd184 O185 2.240 . S
Cd184 O192 2.223 . S
Cd184 O194 2.297 . S
Cd184 O195 2.439 . S
O185 Cd184 2.240 . S
O185 C190 1.279 . S
O186 Cd183 2.297 . S
O186 C188 1.247 . S
O187 Cd183 2.439 . S
O187 C188 1.208 . S
C188 O186 1.247 . S
C188 O187 1.208 . S
C189 O194 1.247 . S
C189 O195 1.208 . S
C190 O182 1.315 . S
C190 O185 1.279 . S
C191 O192 1.315 . S
C191 O193 1.279 . S
O192 Cd184 2.223 . S
O192 C191 1.315 . S
O193 Cd183 2.240 . S
O193 C191 1.279 . S
O194 Cd184 2.297 . S
O194 C189 1.247 . S
O195 Cd184 2.439 . S
O195 C189 1.208 . S
O196 Cd197 2.223 . S
O196 C204 1.315 . S
Cd197 O196 2.223 . S
Cd197 O200 2.297 . S
Cd197 O201 2.439 . S
Cd197 O207 2.240 . S
Cd198 O199 2.240 1_556 S
Cd198 O206 2.223 1_556 S
Cd198 O208 2.297 . S
Cd198 O209 2.439 . S
O199 Cd198 2.240 1_554 S
O199 C204 1.279 . S
O200 Cd197 2.297 . S
O200 C202 1.247 . S
O201 Cd197 2.439 . S
O201 C202 1.208 . S
C202 O200 1.247 . S
C202 O201 1.208 . S
C203 O208 1.247 . S
C203 O209 1.208 . S
C204 O196 1.315 . S
C204 O199 1.279 . S
C205 O206 1.315 . S
C205 O207 1.279 . S
O206 Cd198 2.223 1_554 S
O206 C205 1.315 . S
O207 Cd197 2.240 . S
O207 C205 1.279 . S
O208 Cd198 2.297 . S
O208 C203 1.247 . S
O209 Cd198 2.439 . S
O209 C203 1.208 . S
O210 Cd211 2.223 . S
O210 C218 1.315 . S
Cd211 O210 2.223 . S
Cd211 O214 2.297 . S
Cd211 O215 2.439 . S
Cd211 O221 2.240 . S
Cd212 O213 2.240 . S
Cd212 O220 2.223 . S
Cd212 O222 2.297 . S
Cd212 O223 2.439 . S
O213 Cd212 2.240 . S
O213 C218 1.279 . S
O214 Cd211 2.297 . S
O214 C216 1.247 . S
O215 Cd211 2.439 . S
O215 C216 1.208 . S
C216 O214 1.247 . S
C216 O215 1.208 . S
C217 O222 1.247 . S
C217 O223 1.208 . S
C218 O210 1.315 . S
C218 O213 1.279 . S
C219 O220 1.315 . S
C219 O221 1.279 . S
O220 Cd212 2.223 . S
O220 C219 1.315 . S
O221 Cd211 2.240 . S
O221 C219 1.279 . S
O222 Cd212 2.297 . S
O222 C217 1.247 . S
O223 Cd212 2.439 . S
O223 C217 1.208 . S
O224 Cd225 2.223 . S
O224 C232 1.315 . S
Cd225 O224 2.223 . S
Cd225 O228 2.297 . S
Cd225 O229 2.439 . S
Cd225 O235 2.240 . S
Cd226 O227 2.240 . S
Cd226 O234 2.223 . S
Cd226 O236 2.297 . S
Cd226 O237 2.439 . S
O227 Cd226 2.240 . S
O227 C232 1.279 . S
O228 Cd225 2.297 . S
O228 C230 1.247 . S
O229 Cd225 2.439 . S
O229 C230 1.208 . S
C230 O228 1.247 . S
C230 O229 1.208 . S
C231 O236 1.247 . S
C231 O237 1.208 . S
C232 O224 1.315 . S
C232 O227 1.279 . S
C233 O234 1.315 . S
C233 O235 1.279 . S
O234 Cd226 2.223 . S
O234 C233 1.315 . S
O235 Cd225 2.240 . S
O235 C233 1.279 . S
O236 Cd226 2.297 . S
O236 C231 1.247 . S
O237 Cd226 2.439 . S
O237 C231 1.208 . S
O238 Cd239 2.223 . S
O238 C246 1.315 . S
Cd239 O238 2.223 . S
Cd239 O242 2.297 . S
Cd239 O243 2.439 . S
Cd239 O249 2.240 . S
Cd240 O241 2.240 . S
Cd240 O248 2.223 . S
Cd240 O250 2.297 . S
Cd240 O251 2.439 . S
O241 Cd240 2.240 . S
O241 C246 1.279 . S
O242 Cd239 2.297 . S
O242 C244 1.247 . S
O243 Cd239 2.439 . S
O243 C244 1.208 . S
C244 O242 1.247 . S
C244 O243 1.208 . S
C245 O250 1.247 . S
C245 O251 1.208 . S
C246 O238 1.315 . S
C246 O241 1.279 . S
C247 O248 1.315 . S
C247 O249 1.279 . S
O248 Cd240 2.223 . S
O248 C247 1.315 . S
O249 Cd239 2.240 . S
O249 C247 1.279 . S
O250 Cd240 2.297 . S
O250 C245 1.247 . S
O251 Cd240 2.439 . S
O251 C245 1.208 . S
O252 Cd253 2.223 . S
O252 C260 1.315 . S
Cd253 O252 2.223 . S
Cd253 O256 2.297 . S
Cd253 O257 2.439 . S
Cd253 O263 2.240 . S
Cd254 O255 2.240 1_456 S
Cd254 O262 2.223 1_556 S
Cd254 O264 2.297 . S
Cd254 O265 2.439 1_455 S
O255 Cd254 2.240 1_654 S
O255 C260 1.279 . S
O256 Cd253 2.297 . S
O256 C258 1.247 . S
O257 Cd253 2.439 . S
O257 C258 1.208 . S
C258 O256 1.247 . S
C258 O257 1.208 . S
C259 O264 1.247 1_655 S
C259 O265 1.208 . S
C260 O252 1.315 . S
C260 O255 1.279 . S
C261 O262 1.315 1_655 S
C261 O263 1.279 . S
O262 Cd254 2.223 1_554 S
O262 C261 1.315 1_455 S
O263 Cd253 2.240 . S
O263 C261 1.279 . S
O264 Cd254 2.297 . S
O264 C259 1.247 1_455 S
O265 Cd254 2.439 1_655 S
O265 C259 1.208 . S
O266 Cd267 2.223 . S
O266 C274 1.315 . S
Cd267 O266 2.223 . S
Cd267 O270 2.297 . S
Cd267 O271 2.439 . S
Cd267 O277 2.240 . S
Cd268 O269 2.240 . S
Cd268 O276 2.223 . S
Cd268 O278 2.297 . S
Cd268 O279 2.439 . S
O269 Cd268 2.240 . S
O269 C274 1.279 . S
O270 Cd267 2.297 . S
O270 C272 1.247 . S
O271 Cd267 2.439 . S
O271 C272 1.208 . S
C272 O270 1.247 . S
C272 O271 1.208 . S
C273 O278 1.247 . S
C273 O279 1.208 . S
C274 O266 1.315 . S
C274 O269 1.279 . S
C275 O276 1.315 . S
C275 O277 1.279 . S
O276 Cd268 2.223 . S
O276 C275 1.315 . S
O277 Cd267 2.240 . S
O277 C275 1.279 . S
O278 Cd268 2.297 . S
O278 C273 1.247 . S
O279 Cd268 2.439 . S
O279 C273 1.208 . S
O280 Cd281 2.223 . S
O280 C288 1.315 . S
Cd281 O280 2.223 . S
Cd281 O284 2.297 . S
Cd281 O285 2.439 . S
Cd281 O291 2.240 . S
Cd282 O283 2.240 1_554 S
Cd282 O290 2.223 1_554 S
Cd282 O292 2.297 . S
Cd282 O293 2.439 . S
O283 Cd282 2.240 1_556 S
O283 C288 1.279 . S
O284 Cd281 2.297 . S
O284 C286 1.247 . S
O285 Cd281 2.439 . S
O285 C286 1.208 . S
C286 O284 1.247 . S
C286 O285 1.208 . S
C287 O292 1.247 . S
C287 O293 1.208 . S
C288 O280 1.315 . S
C288 O283 1.279 . S
C289 O290 1.315 . S
C289 O291 1.279 . S
O290 Cd282 2.223 1_556 S
O290 C289 1.315 . S
O291 Cd281 2.240 . S
O291 C289 1.279 . S
O292 Cd282 2.297 . S
O292 C287 1.247 . S
O293 Cd282 2.439 . S
O293 C287 1.208 . S
O294 Cd295 2.223 . S
O294 C302 1.315 . S
Cd295 O294 2.223 . S
Cd295 O298 2.297 . S
Cd295 O299 2.439 . S
Cd295 O305 2.240 . S
Cd296 O297 2.240 . S
Cd296 O304 2.223 . S
Cd296 O306 2.297 . S
Cd296 O307 2.439 . S
O297 Cd296 2.240 . S
O297 C302 1.279 . S
O298 Cd295 2.297 . S
O298 C300 1.247 . S
O299 Cd295 2.439 . S
O299 C300 1.208 . S
C300 O298 1.247 . S
C300 O299 1.208 . S
C301 O306 1.247 . S
C301 O307 1.208 . S
C302 O294 1.315 . S
C302 O297 1.279 . S
C303 O304 1.315 . S
C303 O305 1.279 . S
O304 Cd296 2.223 . S
O304 C303 1.315 . S
O305 Cd295 2.240 . S
O305 C303 1.279 . S
O306 Cd296 2.297 . S
O306 C301 1.247 . S
O307 Cd296 2.439 . S
O307 C301 1.208 . S
O308 Cd309 2.223 . S
O308 C316 1.315 . S
Cd309 O308 2.223 . S
Cd309 O312 2.297 . S
Cd309 O313 2.439 . S
Cd309 O319 2.240 . S
Cd310 O311 2.240 1_455 S
Cd310 O318 2.223 . S
Cd310 O320 2.297 . S
Cd310 O321 2.439 1_455 S
O311 Cd310 2.240 1_655 S
O311 C316 1.279 . S
O312 Cd309 2.297 . S
O312 C314 1.247 . S
O313 Cd309 2.439 . S
O313 C314 1.208 . S
C314 O312 1.247 . S
C314 O313 1.208 . S
C315 O320 1.247 1_655 S
C315 O321 1.208 . S
C316 O308 1.315 . S
C316 O311 1.279 . S
C317 O318 1.315 1_655 S
C317 O319 1.279 . S
O318 Cd310 2.223 . S
O318 C317 1.315 1_455 S
O319 Cd309 2.240 . S
O319 C317 1.279 . S
O320 Cd310 2.297 . S
O320 C315 1.247 1_455 S
O321 Cd310 2.439 1_655 S
O321 C315 1.208 . S
O322 Cd323 2.223 . S
O322 C330 1.315 . S
Cd323 O322 2.223 . S
Cd323 O326 2.297 . S
Cd323 O327 2.439 . S
Cd323 O333 2.240 . S
Cd324 O325 2.240 . S
Cd324 O332 2.223 . S
Cd324 O334 2.297 . S
Cd324 O335 2.439 . S
O325 Cd324 2.240 . S
O325 C330 1.279 . S
O326 Cd323 2.297 . S
O326 C328 1.247 . S
O327 Cd323 2.439 . S
O327 C328 1.208 . S
C328 O326 1.247 . S
C328 O327 1.208 . S
C329 O334 1.247 . S
C329 O335 1.208 . S
C330 O322 1.315 . S
C330 O325 1.279 . S
C331 O332 1.315 . S
C331 O333 1.279 . S
O332 Cd324 2.223 . S
O332 C331 1.315 . S
O333 Cd323 2.240 . S
O333 C331 1.279 . S
O334 Cd324 2.297 . S
O334 C329 1.247 . S
O335 Cd324 2.439 . S
O335 C329 1.208 . S
O336 Cd337 2.223 . S
O336 C344 1.315 . S
Cd337 O336 2.223 . S
Cd337 O340 2.297 . S
Cd337 O341 2.439 . S
Cd337 O347 2.240 . S
Cd338 O339 2.240 . S
Cd338 O346 2.223 . S
Cd338 O348 2.297 . S
Cd338 O349 2.439 . S
O339 Cd338 2.240 . S
O339 C344 1.279 . S
O340 Cd337 2.297 . S
O340 C342 1.247 . S
O341 Cd337 2.439 . S
O341 C342 1.208 . S
C342 O340 1.247 . S
C342 O341 1.208 . S
C343 O348 1.247 . S
C343 O349 1.208 . S
C344 O336 1.315 . S
C344 O339 1.279 . S
C345 O346 1.315 . S
C345 O347 1.279 . S
O346 Cd338 2.223 . S
O346 C345 1.315 . S
O347 Cd337 2.240 . S
O347 C345 1.279 . S
O348 Cd338 2.297 . S
O348 C343 1.247 . S
O349 Cd338 2.439 . S
O349 C343 1.208 . S
O350 Cd351 2.223 . S
O350 C358 1.315 . S
Cd351 O350 2.223 . S
Cd351 O354 2.297 . S
Cd351 O355 2.439 . S
Cd351 O361 2.240 . S
Cd352 O353 2.240 . S
Cd352 O360 2.223 . S
Cd352 O362 2.297 . S
Cd352 O363 2.439 . S
O353 Cd352 2.240 . S
O353 C358 1.279 . S
O354 Cd351 2.297 . S
O354 C356 1.247 . S
O355 Cd351 2.439 . S
O355 C356 1.208 . S
C356 O354 1.247 . S
C356 O355 1.208 . S
C357 O362 1.247 . S
C357 O363 1.208 . S
C358 O350 1.315 . S
C358 O353 1.279 . S
C359 O360 1.315 . S
C359 O361 1.279 . S
O360 Cd352 2.223 . S
O360 C359 1.315 . S
O361 Cd351 2.240 . S
O361 C359 1.279 . S
O362 Cd352 2.297 . S
O362 C357 1.247 . S
O363 Cd352 2.439 . S
O363 C357 1.208 . S
O364 Cd365 2.223 . S
O364 C372 1.315 . S
Cd365 O364 2.223 . S
Cd365 O368 2.297 . S
Cd365 O369 2.439 . S
Cd365 O375 2.240 . S
Cd366 O367 2.240 1_654 S
Cd366 O374 2.223 1_554 S
Cd366 O376 2.297 . S
Cd366 O377 2.439 1_655 S
O367 Cd366 2.240 1_456 S
O367 C372 1.279 . S
O368 Cd365 2.297 . S
O368 C370 1.247 . S
O369 Cd365 2.439 . S
O369 C370 1.208 . S
C370 O368 1.247 . S
C370 O369 1.208 . S
C371 O376 1.247 1_455 S
C371 O377 1.208 . S
C372 O364 1.315 . S
C372 O367 1.279 . S
C373 O374 1.315 1_455 S
C373 O375 1.279 . S
O374 Cd366 2.223 1_556 S
O374 C373 1.315 1_655 S
O375 Cd365 2.240 . S
O375 C373 1.279 . S
O376 Cd366 2.297 . S
O376 C371 1.247 1_655 S
O377 Cd366 2.439 1_455 S
O377 C371 1.208 . S
O378 Cd379 2.223 . S
O378 C386 1.315 . S
Cd379 O378 2.223 . S
Cd379 O382 2.297 . S
Cd379 O383 2.439 . S
Cd379 O389 2.240 . S
Cd380 O381 2.240 . S
Cd380 O388 2.223 . S
Cd380 O390 2.297 . S
Cd380 O391 2.439 . S
O381 Cd380 2.240 . S
O381 C386 1.279 . S
O382 Cd379 2.297 . S
O382 C384 1.247 . S
O383 Cd379 2.439 . S
O383 C384 1.208 . S
C384 O382 1.247 . S
C384 O383 1.208 . S
C385 O390 1.247 . S
C385 O391 1.208 . S
C386 O378 1.315 . S
C386 O381 1.279 . S
C387 O388 1.315 . S
C387 O389 1.279 . S
O388 Cd380 2.223 . S
O388 C387 1.315 . S
O389 Cd379 2.240 . S
O389 C387 1.279 . S
O390 Cd380 2.297 . S
O390 C385 1.247 . S
O391 Cd380 2.439 . S
O391 C385 1.208 . S
O392 Cd393 2.223 . S
O392 C400 1.315 . S
Cd393 O392 2.223 . S
Cd393 O396 2.297 . S
Cd393 O397 2.439 . S
Cd393 O403 2.240 . S
Cd394 O395 2.240 1_556 S
Cd394 O402 2.223 1_556 S
Cd394 O404 2.297 . S
Cd394 O405 2.439 . S
O395 Cd394 2.240 1_554 S
O395 C400 1.279 . S
O396 Cd393 2.297 . S
O396 C398 1.247 . S
O397 Cd393 2.439 . S
O397 C398 1.208 . S
C398 O396 1.247 . S
C398 O397 1.208 . S
C399 O404 1.247 . S
C399 O405 1.208 . S
C400 O392 1.315 . S
C400 O395 1.279 . S
C401 O402 1.315 . S
C401 O403 1.279 . S
O402 Cd394 2.223 1_554 S
O402 C401 1.315 . S
O403 Cd393 2.240 . S
O403 C401 1.279 . S
O404 Cd394 2.297 . S
O404 C399 1.247 . S
O405 Cd394 2.439 . S
O405 C399 1.208 . S
O406 Cd407 2.223 . S
O406 C414 1.315 . S
Cd407 O406 2.223 . S
Cd407 O410 2.297 . S
Cd407 O411 2.439 . S
Cd407 O417 2.240 . S
Cd408 O409 2.240 . S
Cd408 O416 2.223 . S
Cd408 O418 2.297 . S
Cd408 O419 2.439 . S
O409 Cd408 2.240 . S
O409 C414 1.279 . S
O410 Cd407 2.297 . S
O410 C412 1.247 . S
O411 Cd407 2.439 . S
O411 C412 1.208 . S
C412 O410 1.247 . S
C412 O411 1.208 . S
C413 O418 1.247 . S
C413 O419 1.208 . S
C414 O406 1.315 . S
C414 O409 1.279 . S
C415 O416 1.315 . S
C415 O417 1.279 . S
O416 Cd408 2.223 . S
O416 C415 1.315 . S
O417 Cd407 2.240 . S
O417 C415 1.279 . S
O418 Cd408 2.297 . S
O418 C413 1.247 . S
O419 Cd408 2.439 . S
O419 C413 1.208 . S
O420 Cd421 2.223 . S
O420 C428 1.315 . S
Cd421 O420 2.223 . S
Cd421 O424 2.297 . S
Cd421 O425 2.439 . S
Cd421 O431 2.240 . S
Cd422 O423 2.240 1_655 S
Cd422 O430 2.223 . S
Cd422 O432 2.297 . S
Cd422 O433 2.439 1_655 S
O423 Cd422 2.240 1_455 S
O423 C428 1.279 . S
O424 Cd421 2.297 . S
O424 C426 1.247 . S
O425 Cd421 2.439 . S
O425 C426 1.208 . S
C426 O424 1.247 . S
C426 O425 1.208 . S
C427 O432 1.247 1_455 S
C427 O433 1.208 . S
C428 O420 1.315 . S
C428 O423 1.279 . S
C429 O430 1.315 1_455 S
C429 O431 1.279 . S
O430 Cd422 2.223 . S
O430 C429 1.315 1_655 S
O431 Cd421 2.240 . S
O431 C429 1.279 . S
O432 Cd422 2.297 . S
O432 C427 1.247 1_655 S
O433 Cd422 2.439 1_455 S
O433 C427 1.208 . S
O434 Cd435 2.223 . S
O434 C442 1.315 . S
Cd435 O434 2.223 . S
Cd435 O438 2.297 . S
Cd435 O439 2.439 . S
Cd435 O445 2.240 . S
Cd436 O437 2.240 . S
Cd436 O444 2.223 . S
Cd436 O446 2.297 . S
Cd436 O447 2.439 . S
O437 Cd436 2.240 . S
O437 C442 1.279 . S
O438 Cd435 2.297 . S
O438 C440 1.247 . S
O439 Cd435 2.439 . S
O439 C440 1.208 . S
C440 O438 1.247 . S
C440 O439 1.208 . S
C441 O446 1.247 . S
C441 O447 1.208 . S
C442 O434 1.315 . S
C442 O437 1.279 . S
C443 O444 1.315 . S
C443 O445 1.279 . S
O444 Cd436 2.223 . S
O444 C443 1.315 . S
O445 Cd435 2.240 . S
O445 C443 1.279 . S
O446 Cd436 2.297 . S
O446 C441 1.247 . S
O447 Cd436 2.439 . S
O447 C441 1.208 . S
C448 C449 1.387 1_455 S
C448 H452 0.950 . S
C448 C457 1.390 . S
C449 C448 1.387 1_655 S
C449 C451 1.387 . S
H450 C457 0.950 . S
C451 C449 1.387 . S
C451 C453 1.390 . S
C451 H455 0.950 . S
H452 C448 0.950 . S
C453 C451 1.390 . S
C453 C454 1.387 1_655 S
C453 H456 0.950 . S
C454 C453 1.387 1_455 S
C454 C457 1.387 . S
H455 C451 0.950 . S
H456 C453 0.950 . S
C457 C448 1.390 . S
C457 H450 0.950 . S
C457 C454 1.387 . S
C458 C459 1.387 . S
C458 H462 0.950 . S
C458 C467 1.390 1_556 S
C459 C458 1.387 . S
C459 C461 1.387 . S
H460 C467 0.950 . S
C461 C459 1.387 . S
C461 C463 1.390 1_556 S
C461 H465 0.950 . S
H462 C458 0.950 . S
C463 C461 1.390 1_554 S
C463 C464 1.387 . S
C463 H466 0.950 . S
C464 C463 1.387 . S
C464 C467 1.387 . S
H465 C461 0.950 . S
H466 C463 0.950 . S
C467 C458 1.390 1_554 S
C467 H460 0.950 . S
C467 C464 1.387 . S
C468 C469 1.387 . S
C468 H472 0.950 . S
C468 C477 1.390 . S
C469 C468 1.387 . S
C469 C471 1.387 . S
H470 C477 0.950 . S
C471 C469 1.387 . S
C471 C473 1.390 . S
C471 H475 0.950 . S
H472 C468 0.950 . S
C473 C471 1.390 . S
C473 C474 1.387 . S
C473 H476 0.950 . S
C474 C473 1.387 . S
C474 C477 1.387 . S
H475 C471 0.950 . S
H476 C473 0.950 . S
C477 C468 1.390 . S
C477 H470 0.950 . S
C477 C474 1.387 . S
C478 C479 1.387 . S
C478 H482 0.950 . S
C478 C487 1.390 . S
C479 C478 1.387 . S
C479 C481 1.387 . S
H480 C487 0.950 . S
C481 C479 1.387 . S
C481 C483 1.390 . S
C481 H485 0.950 . S
H482 C478 0.950 . S
C483 C481 1.390 . S
C483 C484 1.387 . S
C483 H486 0.950 . S
C484 C483 1.387 . S
C484 C487 1.387 . S
H485 C481 0.950 . S
H486 C483 0.950 . S
C487 C478 1.390 . S
C487 H480 0.950 . S
C487 C484 1.387 . S
C488 C489 1.387 . S
C488 H492 0.950 . S
C488 C497 1.392 . S
C489 C488 1.387 . S
C489 C491 1.385 1_655 S
H490 C497 0.950 . S
C491 C489 1.385 1_455 S
C491 C493 1.393 . S
C491 H495 0.950 . S
H492 C488 0.950 . S
C493 C491 1.393 . S
C493 C494 1.387 . S
C493 H496 0.950 . S
C494 C493 1.387 . S
C494 C497 1.385 1_455 S
H495 C491 0.950 . S
H496 C493 0.950 . S
C497 C488 1.392 . S
C497 H490 0.950 . S
C497 C494 1.385 1_655 S
C498 C499 1.387 . S
C498 H502 0.950 . S
C498 C507 1.390 1_556 S
C499 C498 1.387 . S
C499 C501 1.387 . S
H500 C507 0.950 . S
C501 C499 1.387 . S
C501 C503 1.390 1_556 S
C501 H505 0.950 . S
H502 C498 0.950 . S
C503 C501 1.390 1_554 S
C503 C504 1.387 . S
C503 H506 0.950 . S
C504 C503 1.387 . S
C504 C507 1.387 . S
H505 C501 0.950 . S
H506 C503 0.950 . S
C507 C498 1.390 1_554 S
C507 H500 0.950 . S
C507 C504 1.387 . S
C508 C509 1.387 . S
C508 H512 0.950 . S
C508 C517 1.390 . S
C509 C508 1.387 . S
C509 C511 1.387 . S
H510 C517 0.950 . S
C511 C509 1.387 . S
C511 C513 1.390 . S
C511 H515 0.950 . S
H512 C508 0.950 . S
C513 C511 1.390 . S
C513 C514 1.387 . S
C513 H516 0.950 . S
C514 C513 1.387 . S
C514 C517 1.387 . S
H515 C511 0.950 . S
H516 C513 0.950 . S
C517 C508 1.390 . S
C517 H510 0.950 . S
C517 C514 1.387 . S
C518 C519 1.387 . S
C518 H522 0.950 . S
C518 C527 1.390 . S
C519 C518 1.387 . S
C519 C521 1.387 . S
H520 C527 0.950 . S
C521 C519 1.387 . S
C521 C523 1.390 . S
C521 H525 0.950 . S
H522 C518 0.950 . S
C523 C521 1.390 . S
C523 C524 1.387 . S
C523 H526 0.950 . S
C524 C523 1.387 . S
C524 C527 1.387 . S
H525 C521 0.950 . S
H526 C523 0.950 . S
C527 C518 1.390 . S
C527 H520 0.950 . S
C527 C524 1.387 . S
C528 C529 1.387 . S
C528 H532 0.950 . S
C528 C537 1.390 1_455 S
C529 C528 1.387 . S
C529 C531 1.387 . S
H530 C537 0.950 . S
C531 C529 1.387 . S
C531 C533 1.390 1_455 S
C531 H535 0.950 . S
H532 C528 0.950 . S
C533 C531 1.390 1_655 S
C533 C534 1.387 . S
C533 H536 0.950 . S
C534 C533 1.387 . S
C534 C537 1.387 . S
H535 C531 0.950 . S
H536 C533 0.950 . S
C537 C528 1.390 1_655 S
C537 H530 0.950 . S
C537 C534 1.387 . S
C538 C539 1.387 . S
C538 H542 0.950 . S
C538 C547 1.390 1_554 S
C539 C538 1.387 . S
C539 C541 1.387 . S
H540 C547 0.950 . S
C541 C539 1.387 . S
C541 C543 1.390 1_554 S
C541 H545 0.950 . S
H542 C538 0.950 . S
C543 C541 1.390 1_556 S
C543 C544 1.387 . S
C543 H546 0.950 . S
C544 C543 1.387 . S
C544 C547 1.387 . S
H545 C541 0.950 . S
H546 C543 0.950 . S
C547 C538 1.390 1_556 S
C547 H540 0.950 . S
C547 C544 1.387 . S
C548 C549 1.387 . S
C548 H552 0.950 . S
C548 C557 1.390 . S
C549 C548 1.387 . S
C549 C551 1.387 . S
H550 C557 0.950 . S
C551 C549 1.387 . S
C551 C553 1.390 . S
C551 H555 0.950 . S
H552 C548 0.950 . S
C553 C551 1.390 . S
C553 C554 1.387 . S
C553 H556 0.950 . S
C554 C553 1.387 . S
C554 C557 1.387 . S
H555 C551 0.950 . S
H556 C553 0.950 . S
C557 C548 1.390 . S
C557 H550 0.950 . S
C557 C554 1.387 . S
C558 C559 1.387 . S
C558 H562 0.950 . S
C558 C567 1.390 . S
C559 C558 1.387 . S
C559 C561 1.387 . S
H560 C567 0.950 . S
C561 C559 1.387 . S
C561 C563 1.390 . S
C561 H565 0.950 . S
H562 C558 0.950 . S
C563 C561 1.390 . S
C563 C564 1.387 . S
C563 H566 0.950 . S
C564 C563 1.387 . S
C564 C567 1.387 . S
H565 C561 0.950 . S
H566 C563 0.950 . S
C567 C558 1.390 . S
C567 H560 0.950 . S
C567 C564 1.387 . S
C568 C569 1.387 1_455 S
C568 H572 0.950 . S
C568 C577 1.390 . S
C569 C568 1.387 1_655 S
C569 C571 1.387 . S
H570 C577 0.950 . S
C571 C569 1.387 . S
C571 C573 1.390 . S
C571 H575 0.950 . S
H572 C568 0.950 . S
C573 C571 1.390 . S
C573 C574 1.387 1_655 S
C573 H576 0.950 . S
C574 C573 1.387 1_455 S
C574 C577 1.387 . S
H575 C571 0.950 . S
H576 C573 0.950 . S
C577 C568 1.390 . S
C577 H570 0.950 . S
C577 C574 1.387 . S
C578 C579 1.387 . S
C578 H582 0.950 . S
C578 C587 1.390 1_554 S
C579 C578 1.387 . S
C579 C581 1.387 . S
H580 C587 0.950 . S
C581 C579 1.387 . S
C581 C583 1.390 1_554 S
C581 H585 0.950 . S
H582 C578 0.950 . S
C583 C581 1.390 1_556 S
C583 C584 1.387 . S
C583 H586 0.950 . S
C584 C583 1.387 . S
C584 C587 1.387 . S
H585 C581 0.950 . S
H586 C583 0.950 . S
C587 C578 1.390 1_556 S
C587 H580 0.950 . S
C587 C584 1.387 . S
C588 C589 1.387 . S
C588 H592 0.950 . S
C588 C597 1.390 . S
C589 C588 1.387 . S
C589 C591 1.387 . S
H590 C597 0.950 . S
C591 C589 1.387 . S
C591 C593 1.390 . S
C591 H595 0.950 . S
H592 C588 0.950 . S
C593 C591 1.390 . S
C593 C594 1.387 . S
C593 H596 0.950 . S
C594 C593 1.387 . S
C594 C597 1.387 . S
H595 C591 0.950 . S
H596 C593 0.950 . S
C597 C588 1.390 . S
C597 H590 0.950 . S
C597 C594 1.387 . S
C598 C599 1.387 . S
C598 H602 0.950 . S
C598 C607 1.390 . S
C599 C598 1.387 . S
C599 C601 1.387 . S
H600 C607 0.950 . S
C601 C599 1.387 . S
C601 C603 1.390 . S
C601 H605 0.950 . S
H602 C598 0.950 . S
C603 C601 1.390 . S
C603 C604 1.387 . S
C603 H606 0.950 . S
C604 C603 1.387 . S
C604 C607 1.387 . S
H605 C601 0.950 . S
H606 C603 0.950 . S
C607 C598 1.390 . S
C607 H600 0.950 . S
C607 C604 1.387 . S
C608 C609 1.387 . S
C608 H612 0.950 . S
C608 C617 1.390 . S
C609 C608 1.387 . S
C609 C611 1.387 . S
H610 C617 0.950 . S
C611 C609 1.387 . S
C611 C613 1.390 . S
C611 H615 0.950 . S
H612 C608 0.950 . S
C613 C611 1.390 . S
C613 C614 1.387 . S
C613 H616 0.950 . S
C614 C613 1.387 . S
C614 C617 1.387 . S
H615 C611 0.950 . S
H616 C613 0.950 . S
C617 C608 1.390 . S
C617 H610 0.950 . S
C617 C614 1.387 . S
C618 C619 1.387 . S
C618 H622 0.950 . S
C618 C627 1.390 . S
C619 C618 1.387 . S
C619 C621 1.387 . S
H620 C627 0.950 . S
C621 C619 1.387 . S
C621 C623 1.390 . S
C621 H625 0.950 . S
H622 C618 0.950 . S
C623 C621 1.390 . S
C623 C624 1.387 . S
C623 H626 0.950 . S
C624 C623 1.387 . S
C624 C627 1.387 . S
H625 C621 0.950 . S
H626 C623 0.950 . S
C627 C618 1.390 . S
C627 H620 0.950 . S
C627 C624 1.387 . S
C628 C629 1.387 . S
C628 H632 0.950 . S
C628 C637 1.390 . S
C629 C628 1.387 . S
C629 C631 1.387 1_455 S
H630 C637 0.950 . S
C631 C629 1.387 1_655 S
C631 C633 1.390 . S
C631 H635 0.950 . S
H632 C628 0.950 . S
C633 C631 1.390 . S
C633 C634 1.387 . S
C633 H636 0.950 . S
C634 C633 1.387 . S
C634 C637 1.387 1_655 S
H635 C631 0.950 . S
H636 C633 0.950 . S
C637 C628 1.390 . S
C637 H630 0.950 . S
C637 C634 1.387 1_455 S
C638 C639 1.387 . S
C638 H642 0.950 . S
C638 C647 1.390 1_554 S
C639 C638 1.387 . S
C639 C641 1.387 . S
H640 C647 0.950 . S
C641 C639 1.387 . S
C641 C643 1.390 1_554 S
C641 H645 0.950 . S
H642 C638 0.950 . S
C643 C641 1.390 1_556 S
C643 C644 1.387 . S
C643 H646 0.950 . S
C644 C643 1.387 . S
C644 C647 1.387 . S
H645 C641 0.950 . S
H646 C643 0.950 . S
C647 C638 1.390 1_556 S
C647 H640 0.950 . S
C647 C644 1.387 . S
C648 C649 1.387 . S
C648 H652 0.950 . S
C648 C657 1.390 . S
C649 C648 1.387 . S
C649 C651 1.387 . S
H650 C657 0.950 . S
C651 C649 1.387 . S
C651 C653 1.390 . S
C651 H655 0.950 . S
H652 C648 0.950 . S
C653 C651 1.390 . S
C653 C654 1.387 . S
C653 H656 0.950 . S
C654 C653 1.387 . S
C654 C657 1.387 . S
H655 C651 0.950 . S
H656 C653 0.950 . S
C657 C648 1.390 . S
C657 H650 0.950 . S
C657 C654 1.387 . S
C658 C659 1.387 . S
C658 H662 0.950 . S
C658 C667 1.390 . S
C659 C658 1.387 . S
C659 C661 1.387 . S
H660 C667 0.950 . S
C661 C659 1.387 . S
C661 C663 1.390 . S
C661 H665 0.950 . S
H662 C658 0.950 . S
C663 C661 1.390 . S
C663 C664 1.387 . S
C663 H666 0.950 . S
C664 C663 1.387 . S
C664 C667 1.387 . S
H665 C661 0.950 . S
H666 C663 0.950 . S
C667 C658 1.390 . S
C667 H660 0.950 . S
C667 C664 1.387 . S
C668 C669 1.387 . S
C668 H672 0.950 . S
C668 C677 1.396 . S
C669 C668 1.387 . S
C669 C671 1.381 1_455 S
H670 C677 0.950 . S
C671 C669 1.381 1_655 S
C671 C673 1.396 . S
C671 H675 0.950 . S
H672 C668 0.950 . S
C673 C671 1.396 . S
C673 C674 1.387 . S
C673 H676 0.950 . S
C674 C673 1.387 . S
C674 C677 1.381 1_655 S
H675 C671 0.950 . S
H676 C673 0.950 . S
C677 C668 1.396 . S
C677 H670 0.950 . S
C677 C674 1.381 1_455 S
C678 C679 1.387 . S
C678 H682 0.950 . S
C678 C687 1.390 1_554 S
C679 C678 1.387 . S
C679 C681 1.387 . S
H680 C687 0.950 . S
C681 C679 1.387 . S
C681 C683 1.390 1_554 S
C681 H685 0.950 . S
H682 C678 0.950 . S
C683 C681 1.390 1_556 S
C683 C684 1.387 . S
C683 H686 0.950 . S
C684 C683 1.387 . S
C684 C687 1.387 . S
H685 C681 0.950 . S
H686 C683 0.950 . S
C687 C678 1.390 1_556 S
C687 H680 0.950 . S
C687 C684 1.387 . S
C688 C689 1.387 . S
C688 H692 0.950 . S
C688 C697 1.390 . S
C689 C688 1.387 . S
C689 C691 1.387 . S
H690 C697 0.950 . S
C691 C689 1.387 . S
C691 C693 1.390 . S
C691 H695 0.950 . S
H692 C688 0.950 . S
C693 C691 1.390 . S
C693 C694 1.387 . S
C693 H696 0.950 . S
C694 C693 1.387 . S
C694 C697 1.387 . S
H695 C691 0.950 . S
H696 C693 0.950 . S
C697 C688 1.390 . S
C697 H690 0.950 . S
C697 C694 1.387 . S
C698 C699 1.387 . S
C698 H702 0.950 . S
C698 C707 1.390 . S
C699 C698 1.387 . S
C699 C701 1.387 . S
H700 C707 0.950 . S
C701 C699 1.387 . S
C701 C703 1.390 . S
C701 H705 0.950 . S
H702 C698 0.950 . S
C703 C701 1.390 . S
C703 C704 1.387 . S
C703 H706 0.950 . S
C704 C703 1.387 . S
C704 C707 1.387 . S
H705 C701 0.950 . S
H706 C703 0.950 . S
C707 C698 1.390 . S
C707 H700 0.950 . S
C707 C704 1.387 . S
C708 C709 1.387 . S
C708 H712 0.950 . S
C708 C717 1.390 1_455 S
C709 C708 1.387 . S
C709 C711 1.387 . S
H710 C717 0.950 . S
C711 C709 1.387 . S
C711 C713 1.390 1_455 S
C711 H715 0.950 . S
H712 C708 0.950 . S
C713 C711 1.390 1_655 S
C713 C714 1.387 . S
C713 H716 0.950 . S
C714 C713 1.387 . S
C714 C717 1.387 . S
H715 C711 0.950 . S
H716 C713 0.950 . S
C717 C708 1.390 1_655 S
C717 H710 0.950 . S
C717 C714 1.387 . S
C718 C719 1.387 . S
C718 H722 0.950 . S
C718 C727 1.390 1_556 S
C719 C718 1.387 . S
C719 C721 1.387 . S
H720 C727 0.950 . S
C721 C719 1.387 . S
C721 C723 1.390 1_556 S
C721 H725 0.950 . S
H722 C718 0.950 . S
C723 C721 1.390 1_554 S
C723 C724 1.387 . S
C723 H726 0.950 . S
C724 C723 1.387 . S
C724 C727 1.387 . S
H725 C721 0.950 . S
H726 C723 0.950 . S
C727 C718 1.390 1_554 S
C727 H720 0.950 . S
C727 C724 1.387 . S
C728 C729 1.387 . S
C728 H732 0.950 . S
C728 C737 1.390 . S
C729 C728 1.387 . S
C729 C731 1.387 . S
H730 C737 0.950 . S
C731 C729 1.387 . S
C731 C733 1.390 . S
C731 H735 0.950 . S
H732 C728 0.950 . S
C733 C731 1.390 . S
C733 C734 1.387 . S
C733 H736 0.950 . S
C734 C733 1.387 . S
C734 C737 1.387 . S
H735 C731 0.950 . S
H736 C733 0.950 . S
C737 C728 1.390 . S
C737 H730 0.950 . S
C737 C734 1.387 . S
C738 C739 1.387 . S
C738 H742 0.950 . S
C738 C747 1.390 . S
C739 C738 1.387 . S
C739 C741 1.387 . S
H740 C747 0.950 . S
C741 C739 1.387 . S
C741 C743 1.390 . S
C741 H745 0.950 . S
H742 C738 0.950 . S
C743 C741 1.390 . S
C743 C744 1.387 . S
C743 H746 0.950 . S
C744 C743 1.387 . S
C744 C747 1.387 . S
H745 C741 0.950 . S
H746 C743 0.950 . S
C747 C738 1.390 . S
C747 H740 0.950 . S
C747 C744 1.387 . S
C748 C749 1.387 1_455 S
C748 H752 0.950 . S
C748 C757 1.390 . S
C749 C748 1.387 1_655 S
C749 C751 1.387 . S
H750 C757 0.950 . S
C751 C749 1.387 . S
C751 C753 1.390 . S
C751 H755 0.950 . S
H752 C748 0.950 . S
C753 C751 1.390 . S
C753 C754 1.387 1_655 S
C753 H756 0.950 . S
C754 C753 1.387 1_455 S
C754 C757 1.387 . S
H755 C751 0.950 . S
H756 C753 0.950 . S
C757 C748 1.390 . S
C757 H750 0.950 . S
C757 C754 1.387 . S
C758 C759 1.387 . S
C758 H762 0.950 . S
C758 C767 1.390 1_554 S
C759 C758 1.387 . S
C759 C761 1.387 . S
H760 C767 0.950 . S
C761 C759 1.387 . S
C761 C763 1.390 1_554 S
C761 H765 0.950 . S
H762 C758 0.950 . S
C763 C761 1.390 1_556 S
C763 C764 1.387 . S
C763 H766 0.950 . S
C764 C763 1.387 . S
C764 C767 1.387 . S
H765 C761 0.950 . S
H766 C763 0.950 . S
C767 C758 1.390 1_556 S
C767 H760 0.950 . S
C767 C764 1.387 . S
C768 C769 1.387 . S
C768 H772 0.950 . S
C768 C777 1.390 1_445 S
C769 C768 1.387 . S
C769 C771 1.387 1_554 S
H770 C777 0.950 . S
C771 C769 1.387 1_556 S
C771 C773 1.390 1_445 S
C771 H775 0.950 . S
H772 C768 0.950 . S
C773 C771 1.390 1_665 S
C773 C774 1.387 . S
C773 H776 0.950 . S
C774 C773 1.387 . S
C774 C777 1.387 1_556 S
H775 C771 0.950 . S
H776 C773 0.950 . S
C777 C768 1.390 1_665 S
C777 H770 0.950 . S
C777 C774 1.387 1_554 S
C778 C779 1.387 . S
C778 H782 0.950 . S
C778 C787 1.390 . S
C779 C778 1.387 . S
C779 C781 1.387 . S
H780 C787 0.950 . S
C781 C779 1.387 . S
C781 C783 1.390 . S
C781 H785 0.950 . S
H782 C778 0.950 . S
C783 C781 1.390 . S
C783 C784 1.387 . S
C783 H786 0.950 . S
C784 C783 1.387 . S
C784 C787 1.387 . S
H785 C781 0.950 . S
H786 C783 0.950 . S
C787 C778 1.390 . S
C787 H780 0.950 . S
C787 C784 1.387 . S
C788 C789 1.387 . S
C788 H792 0.950 . S
C788 C797 1.390 1_545 S
C789 C788 1.387 . S
C789 C791 1.387 . S
H790 C797 0.950 . S
C791 C789 1.387 . S
C791 C793 1.390 1_545 S
C791 H795 0.950 . S
H792 C788 0.950 . S
C793 C791 1.390 1_565 S
C793 C794 1.387 . S
C793 H796 0.950 . S
C794 C793 1.387 . S
C794 C797 1.387 . S
H795 C791 0.950 . S
H796 C793 0.950 . S
C797 C788 1.390 1_565 S
C797 H790 0.950 . S
C797 C794 1.387 . S
C798 C799 1.387 . S
C798 H802 0.950 . S
C798 C807 1.390 . S
C799 C798 1.387 . S
C799 C801 1.387 . S
H800 C807 0.950 . S
C801 C799 1.387 . S
C801 C803 1.390 . S
C801 H805 0.950 . S
H802 C798 0.950 . S
C803 C801 1.390 . S
C803 C804 1.387 . S
C803 H806 0.950 . S
C804 C803 1.387 . S
C804 C807 1.387 . S
H805 C801 0.950 . S
H806 C803 0.950 . S
C807 C798 1.390 . S
C807 H800 0.950 . S
C807 C804 1.387 . S
C808 C809 1.387 . S
C808 H812 0.950 . S
C808 C817 1.390 1_465 S
C809 C808 1.387 . S
C809 C811 1.387 . S
H810 C817 0.950 . S
C811 C809 1.387 . S
C811 C813 1.390 1_465 S
C811 H815 0.950 . S
H812 C808 0.950 . S
C813 C811 1.390 1_645 S
C813 C814 1.387 . S
C813 H816 0.950 . S
C814 C813 1.387 . S
C814 C817 1.387 . S
H815 C811 0.950 . S
H816 C813 0.950 . S
C817 C808 1.390 1_645 S
C817 H810 0.950 . S
C817 C814 1.387 . S
C818 C819 1.387 . S
C818 H822 0.950 . S
C818 C827 1.390 . S
C819 C818 1.387 . S
C819 C821 1.387 . S
H820 C827 0.950 . S
C821 C819 1.387 . S
C821 C823 1.390 . S
C821 H825 0.950 . S
H822 C818 0.950 . S
C823 C821 1.390 . S
C823 C824 1.387 . S
C823 H826 0.950 . S
C824 C823 1.387 . S
C824 C827 1.387 . S
H825 C821 0.950 . S
H826 C823 0.950 . S
C827 C818 1.390 . S
C827 H820 0.950 . S
C827 C824 1.387 . S
C828 C829 1.387 . S
C828 H832 0.950 . S
C828 C837 1.390 1_565 S
C829 C828 1.387 . S
C829 C831 1.387 1_554 S
H830 C837 0.950 . S
C831 C829 1.387 1_556 S
C831 C833 1.390 1_565 S
C831 H835 0.950 . S
H832 C828 0.950 . S
C833 C831 1.390 1_545 S
C833 C834 1.387 . S
C833 H836 0.950 . S
C834 C833 1.387 . S
C834 C837 1.387 1_556 S
H835 C831 0.950 . S
H836 C833 0.950 . S
C837 C828 1.390 1_545 S
C837 H830 0.950 . S
C837 C834 1.387 1_554 S
C838 C839 1.387 . S
C838 H842 0.950 . S
C838 C847 1.390 . S
C839 C838 1.387 . S
C839 C841 1.387 . S
H840 C847 0.950 . S
C841 C839 1.387 . S
C841 C843 1.390 . S
C841 H845 0.950 . S
H842 C838 0.950 . S
C843 C841 1.390 . S
C843 C844 1.387 . S
C843 H846 0.950 . S
C844 C843 1.387 . S
C844 C847 1.387 . S
H845 C841 0.950 . S
H846 C843 0.950 . S
C847 C838 1.390 . S
C847 H840 0.950 . S
C847 C844 1.387 . S
C848 C849 1.387 . S
C848 H852 0.950 . S
C848 C857 1.390 . S
C849 C848 1.387 . S
C849 C851 1.387 . S
H850 C857 0.950 . S
C851 C849 1.387 . S
C851 C853 1.390 . S
C851 H855 0.950 . S
H852 C848 0.950 . S
C853 C851 1.390 . S
C853 C854 1.387 . S
C853 H856 0.950 . S
C854 C853 1.387 . S
C854 C857 1.387 . S
H855 C851 0.950 . S
H856 C853 0.950 . S
C857 C848 1.390 . S
C857 H850 0.950 . S
C857 C854 1.387 . S
C858 C859 1.387 . S
C858 H862 0.950 . S
C858 C867 1.390 . S
C859 C858 1.387 . S
C859 C861 1.387 . S
H860 C867 0.950 . S
C861 C859 1.387 . S
C861 C863 1.390 . S
C861 H865 0.950 . S
H862 C858 0.950 . S
C863 C861 1.390 . S
C863 C864 1.387 . S
C863 H866 0.950 . S
C864 C863 1.387 . S
C864 C867 1.387 . S
H865 C861 0.950 . S
H866 C863 0.950 . S
C867 C858 1.390 . S
C867 H860 0.950 . S
C867 C864 1.387 . S
C868 C869 1.387 . S
C868 H872 0.950 . S
C868 C877 1.390 . S
C869 C868 1.387 . S
C869 C871 1.387 . S
H870 C877 0.950 . S
C871 C869 1.387 . S
C871 C873 1.390 . S
C871 H875 0.950 . S
H872 C868 0.950 . S
C873 C871 1.390 . S
C873 C874 1.387 . S
C873 H876 0.950 . S
C874 C873 1.387 . S
C874 C877 1.387 . S
H875 C871 0.950 . S
H876 C873 0.950 . S
C877 C868 1.390 . S
C877 H870 0.950 . S
C877 C874 1.387 . S
C878 C879 1.387 . S
C878 H882 0.950 . S
C878 C887 1.390 . S
C879 C878 1.387 . S
C879 C881 1.387 . S
H880 C887 0.950 . S
C881 C879 1.387 . S
C881 C883 1.390 . S
C881 H885 0.950 . S
H882 C878 0.950 . S
C883 C881 1.390 . S
C883 C884 1.387 . S
C883 H886 0.950 . S
C884 C883 1.387 . S
C884 C887 1.387 . S
H885 C881 0.950 . S
H886 C883 0.950 . S
C887 C878 1.390 . S
C887 H880 0.950 . S
C887 C884 1.387 . S
C888 C889 1.387 . S
C888 H892 0.950 . S
C888 C897 1.390 . S
C889 C888 1.387 . S
C889 C891 1.387 . S
H890 C897 0.950 . S
C891 C889 1.387 . S
C891 C893 1.390 . S
C891 H895 0.950 . S
H892 C888 0.950 . S
C893 C891 1.390 . S
C893 C894 1.387 . S
C893 H896 0.950 . S
C894 C893 1.387 . S
C894 C897 1.387 . S
H895 C891 0.950 . S
H896 C893 0.950 . S
C897 C888 1.390 . S
C897 H890 0.950 . S
C897 C894 1.387 . S
C898 C899 1.387 1_556 S
C898 H902 0.950 . S
C898 C907 1.390 1_655 S
C899 C898 1.387 1_554 S
C899 C901 1.387 . S
H900 C907 0.950 . S
C901 C899 1.387 . S
C901 C903 1.390 1_655 S
C901 H905 0.950 . S
H902 C898 0.950 . S
C903 C901 1.390 1_455 S
C903 C904 1.387 1_554 S
C903 H906 0.950 . S
C904 C903 1.387 1_556 S
C904 C907 1.387 . S
H905 C901 0.950 . S
H906 C903 0.950 . S
C907 C898 1.390 1_455 S
C907 H900 0.950 . S
C907 C904 1.387 . S
C908 C909 1.387 . S
C908 H912 0.950 . S
C908 C917 1.390 . S
C909 C908 1.387 . S
C909 C911 1.387 1_556 S
H910 C917 0.950 . S
C911 C909 1.387 1_554 S
C911 C913 1.390 . S
C911 H915 0.950 . S
H912 C908 0.950 . S
C913 C911 1.390 . S
C913 C914 1.387 . S
C913 H916 0.950 . S
C914 C913 1.387 . S
C914 C917 1.387 1_554 S
H915 C911 0.950 . S
H916 C913 0.950 . S
C917 C908 1.390 . S
C917 H910 0.950 . S
C917 C914 1.387 1_556 S
C918 C919 1.387 . S
C918 H922 0.950 . S
C918 C927 1.390 1_455 S
C919 C918 1.387 . S
C919 C921 1.387 . S
H920 C927 0.950 . S
C921 C919 1.387 . S
C921 C923 1.390 1_455 S
C921 H925 0.950 . S
H922 C918 0.950 . S
C923 C921 1.390 1_655 S
C923 C924 1.387 . S
C923 H926 0.950 . S
C924 C923 1.387 . S
C924 C927 1.387 . S
H925 C921 0.950 . S
H926 C923 0.950 . S
C927 C918 1.390 1_655 S
C927 H920 0.950 . S
C927 C924 1.387 . S
C928 C929 1.387 . S
C928 H932 0.950 . S
C928 C937 1.390 . S
C929 C928 1.387 . S
C929 C931 1.387 . S
H930 C937 0.950 . S
C931 C929 1.387 . S
C931 C933 1.390 . S
C931 H935 0.950 . S
H932 C928 0.950 . S
C933 C931 1.390 . S
C933 C934 1.387 . S
C933 H936 0.950 . S
C934 C933 1.387 . S
C934 C937 1.387 . S
H935 C931 0.950 . S
H936 C933 0.950 . S
C937 C928 1.390 . S
C937 H930 0.950 . S
C937 C934 1.387 . S
C938 C939 1.387 . S
C938 H942 0.950 . S
C938 C947 1.390 . S
C939 C938 1.387 . S
C939 C941 1.387 . S
H940 C947 0.950 . S
C941 C939 1.387 . S
C941 C943 1.390 . S
C941 H945 0.950 . S
H942 C938 0.950 . S
C943 C941 1.390 . S
C943 C944 1.387 . S
C943 H946 0.950 . S
C944 C943 1.387 . S
C944 C947 1.387 . S
H945 C941 0.950 . S
H946 C943 0.950 . S
C947 C938 1.390 . S
C947 H940 0.950 . S
C947 C944 1.387 . S
C948 C949 1.387 . S
C948 H952 0.950 . S
C948 C957 1.390 . S
C949 C948 1.387 . S
C949 C951 1.387 . S
H950 C957 0.950 . S
C951 C949 1.387 . S
C951 C953 1.390 . S
C951 H955 0.950 . S
H952 C948 0.950 . S
C953 C951 1.390 . S
C953 C954 1.387 . S
C953 H956 0.950 . S
C954 C953 1.387 . S
C954 C957 1.387 . S
H955 C951 0.950 . S
H956 C953 0.950 . S
C957 C948 1.390 . S
C957 H950 0.950 . S
C957 C954 1.387 . S
C958 C959 1.387 . S
C958 H962 0.950 . S
C958 C967 1.390 . S
C959 C958 1.387 . S
C959 C961 1.387 . S
H960 C967 0.950 . S
C961 C959 1.387 . S
C961 C963 1.390 . S
C961 H965 0.950 . S
H962 C958 0.950 . S
C963 C961 1.390 . S
C963 C964 1.387 . S
C963 H966 0.950 . S
C964 C963 1.387 . S
C964 C967 1.387 . S
H965 C961 0.950 . S
H966 C963 0.950 . S
C967 C958 1.390 . S
C967 H960 0.950 . S
C967 C964 1.387 . S
C968 C969 1.387 . S
C968 H972 0.950 . S
C968 C977 1.390 . S
C969 C968 1.387 . S
C969 C971 1.387 . S
H970 C977 0.950 . S
C971 C969 1.387 . S
C971 C973 1.390 . S
C971 H975 0.950 . S
H972 C968 0.950 . S
C973 C971 1.390 . S
C973 C974 1.387 . S
C973 H976 0.950 . S
C974 C973 1.387 . S
C974 C977 1.387 . S
H975 C971 0.950 . S
H976 C973 0.950 . S
C977 C968 1.390 . S
C977 H970 0.950 . S
C977 C974 1.387 . S
C978 C979 1.387 . S
C978 H982 0.950 . S
C978 C987 1.390 . S
C979 C978 1.387 . S
C979 C981 1.387 . S
H980 C987 0.950 . S
C981 C979 1.387 . S
C981 C983 1.390 . S
C981 H985 0.950 . S
H982 C978 0.950 . S
C983 C981 1.390 . S
C983 C984 1.387 . S
C983 H986 0.950 . S
C984 C983 1.387 . S
C984 C987 1.387 . S
H985 C981 0.950 . S
H986 C983 0.950 . S
C987 C978 1.390 . S
C987 H980 0.950 . S
C987 C984 1.387 . S
C988 C989 1.387 . S
C988 H992 0.950 . S
C988 C997 1.390 . S
C989 C988 1.387 . S
C989 C991 1.387 . S
H990 C997 0.950 . S
C991 C989 1.387 . S
C991 C993 1.390 . S
C991 H995 0.950 . S
H992 C988 0.950 . S
C993 C991 1.390 . S
C993 C994 1.387 . S
C993 H996 0.950 . S
C994 C993 1.387 . S
C994 C997 1.387 . S
H995 C991 0.950 . S
H996 C993 0.950 . S
C997 C988 1.390 . S
C997 H990 0.950 . S
C997 C994 1.387 . S
C998 C999 1.387 . S
C998 H1002 0.950 . S
C998 C1007 1.390 . S
C999 C998 1.387 . S
C999 C1001 1.387 . S
H1000 C1007 0.950 . S
C1001 C999 1.387 . S
C1001 C1003 1.390 . S
C1001 H1005 0.950 . S
H1002 C998 0.950 . S
C1003 C1001 1.390 . S
C1003 C1004 1.387 . S
C1003 H1006 0.950 . S
C1004 C1003 1.387 . S
C1004 C1007 1.387 . S
H1005 C1001 0.950 . S
H1006 C1003 0.950 . S
C1007 C998 1.390 . S
C1007 H1000 0.950 . S
C1007 C1004 1.387 . S
C1008 C1009 1.387 . S
C1008 H1012 0.950 . S
C1008 C1017 1.390 . S
C1009 C1008 1.387 . S
C1009 C1011 1.387 . S
H1010 C1017 0.950 . S
C1011 C1009 1.387 . S
C1011 C1013 1.390 . S
C1011 H1015 0.950 . S
H1012 C1008 0.950 . S
C1013 C1011 1.390 . S
C1013 C1014 1.387 . S
C1013 H1016 0.950 . S
C1014 C1013 1.387 . S
C1014 C1017 1.387 . S
H1015 C1011 0.950 . S
H1016 C1013 0.950 . S
C1017 C1008 1.390 . S
C1017 H1010 0.950 . S
C1017 C1014 1.387 . S
C1018 C1019 1.387 . S
C1018 H1022 0.950 . S
C1018 C1027 1.390 . S
C1019 C1018 1.387 . S
C1019 C1021 1.387 . S
H1020 C1027 0.950 . S
C1021 C1019 1.387 . S
C1021 C1023 1.390 . S
C1021 H1025 0.950 . S
H1022 C1018 0.950 . S
C1023 C1021 1.390 . S
C1023 C1024 1.387 . S
C1023 H1026 0.950 . S
C1024 C1023 1.387 . S
C1024 C1027 1.387 . S
H1025 C1021 0.950 . S
H1026 C1023 0.950 . S
C1027 C1018 1.390 . S
C1027 H1020 0.950 . S
C1027 C1024 1.387 . S
C1028 C1029 1.387 . S
C1028 H1032 0.950 . S
C1028 C1037 1.390 . S
C1029 C1028 1.387 . S
C1029 C1031 1.387 . S
H1030 C1037 0.950 . S
C1031 C1029 1.387 . S
C1031 C1033 1.390 . S
C1031 H1035 0.950 . S
H1032 C1028 0.950 . S
C1033 C1031 1.390 . S
C1033 C1034 1.387 . S
C1033 H1036 0.950 . S
C1034 C1033 1.387 . S
C1034 C1037 1.387 . S
H1035 C1031 0.950 . S
H1036 C1033 0.950 . S
C1037 C1028 1.390 . S
C1037 H1030 0.950 . S
C1037 C1034 1.387 . S
C1038 C1039 1.387 . S
C1038 H1042 0.950 . S
C1038 C1047 1.390 . S
C1039 C1038 1.387 . S
C1039 C1041 1.387 . S
H1040 C1047 0.950 . S
C1041 C1039 1.387 . S
C1041 C1043 1.390 . S
C1041 H1045 0.950 . S
H1042 C1038 0.950 . S
C1043 C1041 1.390 . S
C1043 C1044 1.387 . S
C1043 H1046 0.950 . S
C1044 C1043 1.387 . S
C1044 C1047 1.387 . S
H1045 C1041 0.950 . S
H1046 C1043 0.950 . S
C1047 C1038 1.390 . S
C1047 H1040 0.950 . S
C1047 C1044 1.387 . S
C1048 C1049 1.387 . S
C1048 H1052 0.950 . S
C1048 C1057 1.390 . S
C1049 C1048 1.387 . S
C1049 C1051 1.387 . S
H1050 C1057 0.950 . S
C1051 C1049 1.387 . S
C1051 C1053 1.390 . S
C1051 H1055 0.950 . S
H1052 C1048 0.950 . S
C1053 C1051 1.390 . S
C1053 C1054 1.387 . S
C1053 H1056 0.950 . S
C1054 C1053 1.387 . S
C1054 C1057 1.387 . S
H1055 C1051 0.950 . S
H1056 C1053 0.950 . S
C1057 C1048 1.390 . S
C1057 H1050 0.950 . S
C1057 C1054 1.387 . S
C1058 C1059 1.387 . S
C1058 H1062 0.950 . S
C1058 C1067 1.390 . S
C1059 C1058 1.387 . S
C1059 C1061 1.387 . S
H1060 C1067 0.950 . S
C1061 C1059 1.387 . S
C1061 C1063 1.390 . S
C1061 H1065 0.950 . S
H1062 C1058 0.950 . S
C1063 C1061 1.390 . S
C1063 C1064 1.387 . S
C1063 H1066 0.950 . S
C1064 C1063 1.387 . S
C1064 C1067 1.387 . S
H1065 C1061 0.950 . S
H1066 C1063 0.950 . S
C1067 C1058 1.390 . S
C1067 H1060 0.950 . S
C1067 C1064 1.387 . S
C1068 C1069 1.387 . S
C1068 H1072 0.950 . S
C1068 C1077 1.390 . S
C1069 C1068 1.387 . S
C1069 C1071 1.387 . S
H1070 C1077 0.950 . S
C1071 C1069 1.387 . S
C1071 C1073 1.390 . S
C1071 H1075 0.950 . S
H1072 C1068 0.950 . S
C1073 C1071 1.390 . S
C1073 C1074 1.387 . S
C1073 H1076 0.950 . S
C1074 C1073 1.387 . S
C1074 C1077 1.387 . S
H1075 C1071 0.950 . S
H1076 C1073 0.950 . S
C1077 C1068 1.390 . S
C1077 H1070 0.950 . S
C1077 C1074 1.387 . S
C1078 C1079 1.387 . S
C1078 H1082 0.950 . S
C1078 C1087 1.390 . S
C1079 C1078 1.387 . S
C1079 C1081 1.387 . S
H1080 C1087 0.950 . S
C1081 C1079 1.387 . S
C1081 C1083 1.390 . S
C1081 H1085 0.950 . S
H1082 C1078 0.950 . S
C1083 C1081 1.390 . S
C1083 C1084 1.387 . S
C1083 H1086 0.950 . S
C1084 C1083 1.387 . S
C1084 C1087 1.387 . S
H1085 C1081 0.950 . S
H1086 C1083 0.950 . S
C1087 C1078 1.390 . S
C1087 H1080 0.950 . S
C1087 C1084 1.387 . S
C449 C176 1.263 . S
C454 C7 1.281 . S
C459 C414 1.263 . S
C464 C21 1.278 . S
C469 C204 1.261 . S
C474 C35 1.280 . S
C479 C442 1.264 . S
C484 C49 1.280 . S
C489 C120 1.264 . S
C494 C63 1.278 . S
C499 C77 1.281 . S
C504 C358 1.262 . S
C509 C91 1.280 . S
C514 C148 1.261 . S
C519 C386 1.262 . S
C524 C105 1.278 . S
C529 C64 1.261 . S
C534 C119 1.280 . S
C539 C302 1.261 . S
C544 C133 1.279 . S
C549 C92 1.261 . S
C554 C147 1.281 . S
C559 C330 1.264 . S
C564 C161 1.280 . S
C569 C175 1.279 . S
C574 C8 1.264 . S
C579 C189 1.278 . S
C584 C246 1.262 . S
C589 C36 1.261 . S
C594 C203 1.279 . S
C599 C217 1.278 . S
C604 C274 1.262 . S
C609 C400 1.262 . S
C614 C231 1.281 . S
C619 C190 1.264 . S
C624 C245 1.280 . S
C629 C428 1.264 . S
C634 C259 1.278 . S
C639 C273 1.281 . S
C644 C218 1.262 . S
C649 C287 1.280 . S
C654 C344 1.261 . S
C659 C301 1.281 . S
C664 C134 1.263 . S
C669 C372 1.261 . S
C674 C315 1.280 . S
C679 C162 1.261 . S
C684 C329 1.281 . S
C689 C288 1.264 . S
C694 C343 1.278 . S
C699 C357 1.281 . S
C704 C78 1.262 . S
C709 C371 1.278 . S
C714 C316 1.264 . S
C719 C385 1.281 . S
C724 C106 1.261 . S
C729 C232 1.261 . S
C734 C399 1.279 . S
C739 C22 1.262 . S
C744 C413 1.278 . S
C749 C260 1.261 . S
C754 C427 1.280 . S
C759 C441 1.280 . S
C764 C50 1.263 . S
C769 C9 1.358 . S
C774 C121 1.358 . S
C779 C23 1.358 . S
C784 C359 1.358 . S
C789 C149 1.359 . S
C794 C37 1.359 . S
C799 C51 1.359 . S
C804 C387 1.359 . S
C809 C65 1.354 . S
C814 C177 1.354 . S
C819 C415 1.354 . S
C824 C79 1.354 . S
C829 C205 1.354 . S
C834 C93 1.354 . S
C839 C107 1.354 . S
C844 C443 1.354 . S
C849 C135 1.354 . S
C854 C247 1.354 . S
C859 C163 1.358 . S
C864 C275 1.358 . S
C869 C191 1.355 . S
C874 C303 1.355 . S
C879 C331 1.358 . S
C884 C219 1.358 . S
C889 C233 1.358 . S
C894 C345 1.358 . S
C899 C261 1.354 . S
C904 C373 1.354 . S
C909 C289 1.359 . S
C914 C401 1.359 . S
C919 C429 1.354 . S
C924 C317 1.354 . S
C929 C6 1.435 . S
C934 C104 1.434 . S
C939 C20 1.434 . S
C944 C62 1.435 . S
C949 C76 1.433 . S
C954 C34 1.434 . S
C959 C90 1.435 . S
C964 C48 1.436 . S
C969 C216 1.436 . S
C974 C118 1.435 . S
C979 C174 1.436 . S
C984 C132 1.436 . S
C989 C188 1.436 . S
C994 C146 1.435 . S
C999 C202 1.436 . S
C1004 C160 1.436 . S
C1009 C230 1.435 . S
C1014 C328 1.434 . S
C1019 C286 1.436 . S
C1024 C244 1.436 . S
C1029 C300 1.436 . S
C1034 C258 1.435 . S
C1039 C314 1.434 . S
C1044 C272 1.433 . S
C1049 C440 1.434 . S
C1054 C342 1.434 . S
C1059 C356 1.433 . S
C1064 C398 1.433 . S
C1069 C370 1.435 . S
C1074 C412 1.436 . S
C1079 C426 1.434 . S
C1084 C384 1.436 . S
