# Generated by pormake.
# Topology twf-e, (6)-cn, num edge types: 1
# Building blocks:
#     Node 0, Type 0, BuildingBlock: VOLQOD_clean_sbu_1, # of connection points: 6
#     Node 1, Type 0, BuildingBlock: VOLQOD_clean_sbu_1, # of connection points: 6
#     Node 2, Type 0, BuildingBlock: VOLQOD_clean_sbu_1, # of connection points: 6
#     Node 3, Type 0, BuildingBlock: VOLQOD_clean_sbu_1, # of connection points: 6
#     Node 4, Type 0, BuildingBlock: VOLQOD_clean_sbu_1, # of connection points: 6
#     Node 5, Type 0, BuildingBlock: VOLQOD_clean_sbu_1, # of connection points: 6
#     Node 6, Type 0, BuildingBlock: VOLQOD_clean_sbu_1, # of connection points: 6
#     Node 7, Type 0, BuildingBlock: VOLQOD_clean_sbu_1, # of connection points: 6
#     Node 8, Type 0, BuildingBlock: VOLQOD_clean_sbu_1, # of connection points: 6
#     Node 9, Type 0, BuildingBlock: VOLQOD_clean_sbu_1, # of connection points: 6
#     Node 10, Type 0, BuildingBlock: VOLQOD_clean_sbu_1, # of connection points: 6
#     Node 11, Type 0, BuildingBlock: VOLQOD_clean_sbu_1, # of connection points: 6
#     Node 12, Type 0, BuildingBlock: VOLQOD_clean_sbu_1, # of connection points: 6
#     Node 13, Type 0, BuildingBlock: VOLQOD_clean_sbu_1, # of connection points: 6
#     Node 14, Type 0, BuildingBlock: VOLQOD_clean_sbu_1, # of connection points: 6
#     Node 15, Type 0, BuildingBlock: VOLQOD_clean_sbu_1, # of connection points: 6
#     Node 16, Type 0, BuildingBlock: VOLQOD_clean_sbu_1, # of connection points: 6
#     Node 17, Type 0, BuildingBlock: VOLQOD_clean_sbu_1, # of connection points: 6
#     Node 18, Type 0, BuildingBlock: VOLQOD_clean_sbu_1, # of connection points: 6
#     Node 19, Type 0, BuildingBlock: VOLQOD_clean_sbu_1, # of connection points: 6
#     Node 20, Type 0, BuildingBlock: VOLQOD_clean_sbu_1, # of connection points: 6
#     Node 21, Type 0, BuildingBlock: VOLQOD_clean_sbu_1, # of connection points: 6
#     Node 22, Type 0, BuildingBlock: VOLQOD_clean_sbu_1, # of connection points: 6
#     Node 23, Type 0, BuildingBlock: VOLQOD_clean_sbu_1, # of connection points: 6
#     Node 24, Type 0, BuildingBlock: VOLQOD_clean_sbu_1, # of connection points: 6
#     Node 25, Type 0, BuildingBlock: VOLQOD_clean_sbu_1, # of connection points: 6
#     Node 26, Type 0, BuildingBlock: VOLQOD_clean_sbu_1, # of connection points: 6
#     Node 27, Type 0, BuildingBlock: VOLQOD_clean_sbu_1, # of connection points: 6
#     Node 28, Type 0, BuildingBlock: VOLQOD_clean_sbu_1, # of connection points: 6
#     Node 29, Type 0, BuildingBlock: VOLQOD_clean_sbu_1, # of connection points: 6
#     Node 30, Type 0, BuildingBlock: VOLQOD_clean_sbu_1, # of connection points: 6
#     Node 31, Type 0, BuildingBlock: VOLQOD_clean_sbu_1, # of connection points: 6
#     Node 32, Type 0, BuildingBlock: VOLQOD_clean_sbu_1, # of connection points: 6
#     Node 33, Type 0, BuildingBlock: VOLQOD_clean_sbu_1, # of connection points: 6
#     Node 34, Type 0, BuildingBlock: VOLQOD_clean_sbu_1, # of connection points: 6
#     Node 35, Type 0, BuildingBlock: VOLQOD_clean_sbu_1, # of connection points: 6
#     Node 36, Type 0, BuildingBlock: VOLQOD_clean_sbu_1, # of connection points: 6
#     Node 37, Type 0, BuildingBlock: VOLQOD_clean_sbu_1, # of connection points: 6
#     Node 38, Type 0, BuildingBlock: VOLQOD_clean_sbu_1, # of connection points: 6
#     Node 39, Type 0, BuildingBlock: VOLQOD_clean_sbu_1, # of connection points: 6
#     Node 40, Type 0, BuildingBlock: VOLQOD_clean_sbu_1, # of connection points: 6
#     Node 41, Type 0, BuildingBlock: VOLQOD_clean_sbu_1, # of connection points: 6
#     Node 42, Type 0, BuildingBlock: VOLQOD_clean_sbu_1, # of connection points: 6
#     Node 43, Type 0, BuildingBlock: VOLQOD_clean_sbu_1, # of connection points: 6
#     Node 44, Type 0, BuildingBlock: VOLQOD_clean_sbu_1, # of connection points: 6
#     Node 45, Type 0, BuildingBlock: VOLQOD_clean_sbu_1, # of connection points: 6
#     Node 46, Type 0, BuildingBlock: VOLQOD_clean_sbu_1, # of connection points: 6
#     Node 47, Type 0, BuildingBlock: VOLQOD_clean_sbu_1, # of connection points: 6
#     Edge 48, Type (0, 0), BuildingBlock: CIFDUS_clean_linker_0, # of connection points: 2
#     Edge 49, Type (0, 0), BuildingBlock: CIFDUS_clean_linker_0, # of connection points: 2
#     Edge 50, Type (0, 0), BuildingBlock: CIFDUS_clean_linker_0, # of connection points: 2
#     Edge 51, Type (0, 0), BuildingBlock: CIFDUS_clean_linker_0, # of connection points: 2
#     Edge 52, Type (0, 0), BuildingBlock: CIFDUS_clean_linker_0, # of connection points: 2
#     Edge 53, Type (0, 0), BuildingBlock: CIFDUS_clean_linker_0, # of connection points: 2
#     Edge 54, Type (0, 0), BuildingBlock: CIFDUS_clean_linker_0, # of connection points: 2
#     Edge 55, Type (0, 0), BuildingBlock: CIFDUS_clean_linker_0, # of connection points: 2
#     Edge 56, Type (0, 0), BuildingBlock: CIFDUS_clean_linker_0, # of connection points: 2
#     Edge 57, Type (0, 0), BuildingBlock: CIFDUS_clean_linker_0, # of connection points: 2
#     Edge 58, Type (0, 0), BuildingBlock: CIFDUS_clean_linker_0, # of connection points: 2
#     Edge 59, Type (0, 0), BuildingBlock: CIFDUS_clean_linker_0, # of connection points: 2
#     Edge 60, Type (0, 0), BuildingBlock: CIFDUS_clean_linker_0, # of connection points: 2
#     Edge 61, Type (0, 0), BuildingBlock: CIFDUS_clean_linker_0, # of connection points: 2
#     Edge 62, Type (0, 0), BuildingBlock: CIFDUS_clean_linker_0, # of connection points: 2
#     Edge 63, Type (0, 0), BuildingBlock: CIFDUS_clean_linker_0, # of connection points: 2
#     Edge 64, Type (0, 0), BuildingBlock: CIFDUS_clean_linker_0, # of connection points: 2
#     Edge 65, Type (0, 0), BuildingBlock: CIFDUS_clean_linker_0, # of connection points: 2
#     Edge 66, Type (0, 0), BuildingBlock: CIFDUS_clean_linker_0, # of connection points: 2
#     Edge 67, Type (0, 0), BuildingBlock: CIFDUS_clean_linker_0, # of connection points: 2
#     Edge 68, Type (0, 0), BuildingBlock: CIFDUS_clean_linker_0, # of connection points: 2
#     Edge 69, Type (0, 0), BuildingBlock: CIFDUS_clean_linker_0, # of connection points: 2
#     Edge 70, Type (0, 0), BuildingBlock: CIFDUS_clean_linker_0, # of connection points: 2
#     Edge 71, Type (0, 0), BuildingBlock: CIFDUS_clean_linker_0, # of connection points: 2
#     Edge 72, Type (0, 0), BuildingBlock: CIFDUS_clean_linker_0, # of connection points: 2
#     Edge 73, Type (0, 0), BuildingBlock: CIFDUS_clean_linker_0, # of connection points: 2
#     Edge 74, Type (0, 0), BuildingBlock: CIFDUS_clean_linker_0, # of connection points: 2
#     Edge 75, Type (0, 0), BuildingBlock: CIFDUS_clean_linker_0, # of connection points: 2
#     Edge 76, Type (0, 0), BuildingBlock: CIFDUS_clean_linker_0, # of connection points: 2
#     Edge 77, Type (0, 0), BuildingBlock: CIFDUS_clean_linker_0, # of connection points: 2
#     Edge 78, Type (0, 0), BuildingBlock: CIFDUS_clean_linker_0, # of connection points: 2
#     Edge 79, Type (0, 0), BuildingBlock: CIFDUS_clean_linker_0, # of connection points: 2
#     Edge 80, Type (0, 0), BuildingBlock: CIFDUS_clean_linker_0, # of connection points: 2
#     Edge 81, Type (0, 0), BuildingBlock: CIFDUS_clean_linker_0, # of connection points: 2
#     Edge 82, Type (0, 0), BuildingBlock: CIFDUS_clean_linker_0, # of connection points: 2
#     Edge 83, Type (0, 0), BuildingBlock: CIFDUS_clean_linker_0, # of connection points: 2
#     Edge 84, Type (0, 0), BuildingBlock: CIFDUS_clean_linker_0, # of connection points: 2
#     Edge 85, Type (0, 0), BuildingBlock: CIFDUS_clean_linker_0, # of connection points: 2
#     Edge 86, Type (0, 0), BuildingBlock: CIFDUS_clean_linker_0, # of connection points: 2
#     Edge 87, Type (0, 0), BuildingBlock: CIFDUS_clean_linker_0, # of connection points: 2
#     Edge 88, Type (0, 0), BuildingBlock: CIFDUS_clean_linker_0, # of connection points: 2
#     Edge 89, Type (0, 0), BuildingBlock: CIFDUS_clean_linker_0, # of connection points: 2
#     Edge 90, Type (0, 0), BuildingBlock: CIFDUS_clean_linker_0, # of connection points: 2
#     Edge 91, Type (0, 0), BuildingBlock: CIFDUS_clean_linker_0, # of connection points: 2
#     Edge 92, Type (0, 0), BuildingBlock: CIFDUS_clean_linker_0, # of connection points: 2
#     Edge 93, Type (0, 0), BuildingBlock: CIFDUS_clean_linker_0, # of connection points: 2
#     Edge 94, Type (0, 0), BuildingBlock: CIFDUS_clean_linker_0, # of connection points: 2
#     Edge 95, Type (0, 0), BuildingBlock: CIFDUS_clean_linker_0, # of connection points: 2
#     Edge 96, Type (0, 0), BuildingBlock: CIFDUS_clean_linker_0, # of connection points: 2
#     Edge 97, Type (0, 0), BuildingBlock: CIFDUS_clean_linker_0, # of connection points: 2
#     Edge 98, Type (0, 0), BuildingBlock: CIFDUS_clean_linker_0, # of connection points: 2
#     Edge 99, Type (0, 0), BuildingBlock: CIFDUS_clean_linker_0, # of connection points: 2
#     Edge 100, Type (0, 0), BuildingBlock: CIFDUS_clean_linker_0, # of connection points: 2
#     Edge 101, Type (0, 0), BuildingBlock: CIFDUS_clean_linker_0, # of connection points: 2
#     Edge 102, Type (0, 0), BuildingBlock: CIFDUS_clean_linker_0, # of connection points: 2
#     Edge 103, Type (0, 0), BuildingBlock: CIFDUS_clean_linker_0, # of connection points: 2
#     Edge 104, Type (0, 0), BuildingBlock: CIFDUS_clean_linker_0, # of connection points: 2
#     Edge 105, Type (0, 0), BuildingBlock: CIFDUS_clean_linker_0, # of connection points: 2
#     Edge 106, Type (0, 0), BuildingBlock: CIFDUS_clean_linker_0, # of connection points: 2
#     Edge 107, Type (0, 0), BuildingBlock: CIFDUS_clean_linker_0, # of connection points: 2
#     Edge 108, Type (0, 0), BuildingBlock: CIFDUS_clean_linker_0, # of connection points: 2
#     Edge 109, Type (0, 0), BuildingBlock: CIFDUS_clean_linker_0, # of connection points: 2
#     Edge 110, Type (0, 0), BuildingBlock: CIFDUS_clean_linker_0, # of connection points: 2
#     Edge 111, Type (0, 0), BuildingBlock: CIFDUS_clean_linker_0, # of connection points: 2
#     Edge 112, Type (0, 0), BuildingBlock: CIFDUS_clean_linker_0, # of connection points: 2
#     Edge 113, Type (0, 0), BuildingBlock: CIFDUS_clean_linker_0, # of connection points: 2
#     Edge 114, Type (0, 0), BuildingBlock: CIFDUS_clean_linker_0, # of connection points: 2
#     Edge 115, Type (0, 0), BuildingBlock: CIFDUS_clean_linker_0, # of connection points: 2
#     Edge 116, Type (0, 0), BuildingBlock: CIFDUS_clean_linker_0, # of connection points: 2
#     Edge 117, Type (0, 0), BuildingBlock: CIFDUS_clean_linker_0, # of connection points: 2
#     Edge 118, Type (0, 0), BuildingBlock: CIFDUS_clean_linker_0, # of connection points: 2
#     Edge 119, Type (0, 0), BuildingBlock: CIFDUS_clean_linker_0, # of connection points: 2
#     Edge 120, Type (0, 0), BuildingBlock: CIFDUS_clean_linker_0, # of connection points: 2
#     Edge 121, Type (0, 0), BuildingBlock: CIFDUS_clean_linker_0, # of connection points: 2
#     Edge 122, Type (0, 0), BuildingBlock: CIFDUS_clean_linker_0, # of connection points: 2
#     Edge 123, Type (0, 0), BuildingBlock: CIFDUS_clean_linker_0, # of connection points: 2
#     Edge 124, Type (0, 0), BuildingBlock: CIFDUS_clean_linker_0, # of connection points: 2
#     Edge 125, Type (0, 0), BuildingBlock: CIFDUS_clean_linker_0, # of connection points: 2
#     Edge 126, Type (0, 0), BuildingBlock: CIFDUS_clean_linker_0, # of connection points: 2
#     Edge 127, Type (0, 0), BuildingBlock: CIFDUS_clean_linker_0, # of connection points: 2
#     Edge 128, Type (0, 0), BuildingBlock: CIFDUS_clean_linker_0, # of connection points: 2
#     Edge 129, Type (0, 0), BuildingBlock: CIFDUS_clean_linker_0, # of connection points: 2
#     Edge 130, Type (0, 0), BuildingBlock: CIFDUS_clean_linker_0, # of connection points: 2
#     Edge 131, Type (0, 0), BuildingBlock: CIFDUS_clean_linker_0, # of connection points: 2
#     Edge 132, Type (0, 0), BuildingBlock: CIFDUS_clean_linker_0, # of connection points: 2
#     Edge 133, Type (0, 0), BuildingBlock: CIFDUS_clean_linker_0, # of connection points: 2
#     Edge 134, Type (0, 0), BuildingBlock: CIFDUS_clean_linker_0, # of connection points: 2
#     Edge 135, Type (0, 0), BuildingBlock: CIFDUS_clean_linker_0, # of connection points: 2
#     Edge 136, Type (0, 0), BuildingBlock: CIFDUS_clean_linker_0, # of connection points: 2
#     Edge 137, Type (0, 0), BuildingBlock: CIFDUS_clean_linker_0, # of connection points: 2
#     Edge 138, Type (0, 0), BuildingBlock: CIFDUS_clean_linker_0, # of connection points: 2
#     Edge 139, Type (0, 0), BuildingBlock: CIFDUS_clean_linker_0, # of connection points: 2
#     Edge 140, Type (0, 0), BuildingBlock: CIFDUS_clean_linker_0, # of connection points: 2
#     Edge 141, Type (0, 0), BuildingBlock: CIFDUS_clean_linker_0, # of connection points: 2
#     Edge 142, Type (0, 0), BuildingBlock: CIFDUS_clean_linker_0, # of connection points: 2
#     Edge 143, Type (0, 0), BuildingBlock: CIFDUS_clean_linker_0, # of connection points: 2
#     Edge 144, Type (0, 0), BuildingBlock: CIFDUS_clean_linker_0, # of connection points: 2
#     Edge 145, Type (0, 0), BuildingBlock: CIFDUS_clean_linker_0, # of connection points: 2
#     Edge 146, Type (0, 0), BuildingBlock: CIFDUS_clean_linker_0, # of connection points: 2
#     Edge 147, Type (0, 0), BuildingBlock: CIFDUS_clean_linker_0, # of connection points: 2
#     Edge 148, Type (0, 0), BuildingBlock: CIFDUS_clean_linker_0, # of connection points: 2
#     Edge 149, Type (0, 0), BuildingBlock: CIFDUS_clean_linker_0, # of connection points: 2
#     Edge 150, Type (0, 0), BuildingBlock: CIFDUS_clean_linker_0, # of connection points: 2
#     Edge 151, Type (0, 0), BuildingBlock: CIFDUS_clean_linker_0, # of connection points: 2
#     Edge 152, Type (0, 0), BuildingBlock: CIFDUS_clean_linker_0, # of connection points: 2
#     Edge 153, Type (0, 0), BuildingBlock: CIFDUS_clean_linker_0, # of connection points: 2
#     Edge 154, Type (0, 0), BuildingBlock: CIFDUS_clean_linker_0, # of connection points: 2
#     Edge 155, Type (0, 0), BuildingBlock: CIFDUS_clean_linker_0, # of connection points: 2
#     Edge 156, Type (0, 0), BuildingBlock: CIFDUS_clean_linker_0, # of connection points: 2
#     Edge 157, Type (0, 0), BuildingBlock: CIFDUS_clean_linker_0, # of connection points: 2
#     Edge 158, Type (0, 0), BuildingBlock: CIFDUS_clean_linker_0, # of connection points: 2
#     Edge 159, Type (0, 0), BuildingBlock: CIFDUS_clean_linker_0, # of connection points: 2
#     Edge 160, Type (0, 0), BuildingBlock: CIFDUS_clean_linker_0, # of connection points: 2
#     Edge 161, Type (0, 0), BuildingBlock: CIFDUS_clean_linker_0, # of connection points: 2
#     Edge 162, Type (0, 0), BuildingBlock: CIFDUS_clean_linker_0, # of connection points: 2
#     Edge 163, Type (0, 0), BuildingBlock: CIFDUS_clean_linker_0, # of connection points: 2
#     Edge 164, Type (0, 0), BuildingBlock: CIFDUS_clean_linker_0, # of connection points: 2
#     Edge 165, Type (0, 0), BuildingBlock: CIFDUS_clean_linker_0, # of connection points: 2
#     Edge 166, Type (0, 0), BuildingBlock: CIFDUS_clean_linker_0, # of connection points: 2
#     Edge 167, Type (0, 0), BuildingBlock: CIFDUS_clean_linker_0, # of connection points: 2
#     Edge 168, Type (0, 0), BuildingBlock: CIFDUS_clean_linker_0, # of connection points: 2
#     Edge 169, Type (0, 0), BuildingBlock: CIFDUS_clean_linker_0, # of connection points: 2
#     Edge 170, Type (0, 0), BuildingBlock: CIFDUS_clean_linker_0, # of connection points: 2
#     Edge 171, Type (0, 0), BuildingBlock: CIFDUS_clean_linker_0, # of connection points: 2
#     Edge 172, Type (0, 0), BuildingBlock: CIFDUS_clean_linker_0, # of connection points: 2
#     Edge 173, Type (0, 0), BuildingBlock: CIFDUS_clean_linker_0, # of connection points: 2
#     Edge 174, Type (0, 0), BuildingBlock: CIFDUS_clean_linker_0, # of connection points: 2
#     Edge 175, Type (0, 0), BuildingBlock: CIFDUS_clean_linker_0, # of connection points: 2
#     Edge 176, Type (0, 0), BuildingBlock: CIFDUS_clean_linker_0, # of connection points: 2
#     Edge 177, Type (0, 0), BuildingBlock: CIFDUS_clean_linker_0, # of connection points: 2
#     Edge 178, Type (0, 0), BuildingBlock: CIFDUS_clean_linker_0, # of connection points: 2
#     Edge 179, Type (0, 0), BuildingBlock: CIFDUS_clean_linker_0, # of connection points: 2
#     Edge 180, Type (0, 0), BuildingBlock: CIFDUS_clean_linker_0, # of connection points: 2
#     Edge 181, Type (0, 0), BuildingBlock: CIFDUS_clean_linker_0, # of connection points: 2
#     Edge 182, Type (0, 0), BuildingBlock: CIFDUS_clean_linker_0, # of connection points: 2
#     Edge 183, Type (0, 0), BuildingBlock: CIFDUS_clean_linker_0, # of connection points: 2
#     Edge 184, Type (0, 0), BuildingBlock: CIFDUS_clean_linker_0, # of connection points: 2
#     Edge 185, Type (0, 0), BuildingBlock: CIFDUS_clean_linker_0, # of connection points: 2
#     Edge 186, Type (0, 0), BuildingBlock: CIFDUS_clean_linker_0, # of connection points: 2
#     Edge 187, Type (0, 0), BuildingBlock: CIFDUS_clean_linker_0, # of connection points: 2
#     Edge 188, Type (0, 0), BuildingBlock: CIFDUS_clean_linker_0, # of connection points: 2
#     Edge 189, Type (0, 0), BuildingBlock: CIFDUS_clean_linker_0, # of connection points: 2
#     Edge 190, Type (0, 0), BuildingBlock: CIFDUS_clean_linker_0, # of connection points: 2
#     Edge 191, Type (0, 0), BuildingBlock: CIFDUS_clean_linker_0, # of connection points: 2
# Relax obj value: 0.430
# Max RMSD: 0.161
# Mean RMSD: 0.159
data_MOF--net-twf-e--node1-VOLQOD_clean_sbu_1--edge1-CIFDUS_clean_linker_0
_symmetry_space_group_name_H-M    P1
_symmetry_Int_Tables_number       1
_symmetry_cell_setting            triclinic
loop_
_symmetry_equiv_pos_as_xyz
'x, y, z'
_cell_length_a     57.317419
_cell_length_b     57.386878
_cell_length_c     57.312536
_cell_angle_alpha  90.088691
_cell_angle_beta   90.196551
_cell_angle_gamma 89.960117
loop_
_atom_site_label
_atom_site_type_symbol
_atom_site_fract_x
_atom_site_fract_y
_atom_site_fract_z
_atom_type_partial_charge
O0 O 0.03612 0.14919 0.379 0.0
Zn1 Zn 0.00553 0.16552 0.38306 0.0
O2 O 0.00672 0.19248 0.36292 0.0
Zn3 Zn 0.00617 0.22022 0.38163 0.0
Zn4 Zn 0.03374 0.19179 0.34295 0.0
Zn5 Zn 0.98104 0.19288 0.3418 0.0
O6 O 0.97819 0.23957 0.3729 0.0
O7 O 0.95643 0.21218 0.35598 0.0
O8 O 0.00136 0.17388 0.41835 0.0
O9 O 0.00289 0.21242 0.4164 0.0
O10 O 0.03675 0.23702 0.37841 0.0
O11 O 0.05766 0.21151 0.35792 0.0
O12 O 0.02776 0.20601 0.31058 0.0
O13 O 0.98079 0.14325 0.37025 0.0
O14 O 0.98919 0.20764 0.31106 0.0
O15 O 0.96851 0.1609 0.33782 0.0
C16 C 0.04991 0.14703 0.36169 0.0
C17 C 0.95855 0.23199 0.36565 0.0
C18 C 0.05615 0.22976 0.37034 0.0
C19 C 0.00118 0.1938 0.42848 0.0
C20 C 0.0085 0.21189 0.30101 0.0
C21 C 0.96884 0.14331 0.35133 0.0
O22 O 0.04819 0.15986 0.34357 0.0
O23 O 0.77336 0.01792 0.38784 0.0
Zn24 Zn 0.79744 0.03431 0.36832 0.0
O25 O 0.82609 0.01814 0.37167 0.0
Zn26 Zn 0.8474 0.03397 0.39154 0.0
Zn27 Zn 0.81935 0.99013 0.38755 0.0
Zn28 Zn 0.83933 0.01299 0.34106 0.0
O29 O 0.87844 0.03345 0.37625 0.0
O30 O 0.86765 0.03468 0.33873 0.0
O31 O 0.80201 0.06746 0.37797 0.0
O32 O 0.83752 0.06722 0.3938 0.0
O33 O 0.84767 0.02211 0.4252 0.0
O34 O 0.82181 0.99354 0.42369 0.0
O35 O 0.84138 0.96583 0.37533 0.0
O36 O 0.78554 0.03129 0.33568 0.0
O37 O 0.85271 0.98052 0.34117 0.0
O38 O 0.81399 0.01545 0.31474 0.0
C39 C 0.77012 0.99608 0.38542 0.0
C40 C 0.8829 0.03774 0.3549 0.0
C41 C 0.8351 0.00699 0.43557 0.0
C42 C 0.81902 0.07797 0.38783 0.0
C43 C 0.85288 0.96427 0.35634 0.0
C44 C 0.79306 0.02311 0.31646 0.0
O45 O 0.78665 0.98279 0.37895 0.0
O46 O 0.96805 0.86977 0.384 0.0
Zn47 Zn -0.00152 0.85432 0.3907 0.0
O48 O 0.9984 0.82619 0.3723 0.0
Zn49 Zn 0.99544 0.80054 0.39388 0.0
Zn50 Zn 0.97421 0.827 0.3482 0.0
Zn51 Zn 0.02648 0.82362 0.35472 0.0
O52 O 0.02337 0.77959 0.38997 0.0
O53 O 0.04825 0.80367 0.3723 0.0
O54 O 0.00092 0.8489 0.42649 0.0
O55 O 0.99504 0.81086 0.42884 0.0
O56 O 0.96512 0.78444 0.38678 0.0
O57 O 0.94899 0.80647 0.35899 0.0
O58 O 0.98418 0.813 0.31633 0.0
O59 O 0.02355 0.87593 0.37844 0.0
O60 O 0.02175 0.80796 0.32357 0.0
O61 O 0.04038 0.85504 0.35039 0.0
C62 C 0.95511 0.87138 0.36592 0.0
C63 C 0.04389 0.78498 0.38332 0.0
C64 C 0.94809 0.78975 0.37339 0.0
C65 C 0.99815 0.83056 0.43887 0.0
C66 C 0.00416 0.80523 0.31023 0.0
C67 C 0.03796 0.87407 0.36158 0.0
O68 O 0.95834 0.85863 0.34789 0.0
O69 O 0.23551 0.00492 0.38061 0.0
Zn70 Zn 0.21092 0.98606 0.36328 0.0
O71 O 0.1818 0.00167 0.36919 0.0
Zn72 Zn 0.16312 0.98695 0.39206 0.0
Zn73 Zn 0.18921 0.03091 0.38243 0.0
Zn74 Zn 0.16485 0.00518 0.34057 0.0
O75 O 0.13038 0.98552 0.38045 0.0
O76 O 0.13701 0.98327 0.34214 0.0
O77 O 0.20834 0.95354 0.37618 0.0
O78 O 0.17434 0.95438 0.39487 0.0
O79 O 0.16641 0.00082 0.42478 0.0
O80 O 0.19135 0.02956 0.41859 0.0
O81 O 0.16535 0.05411 0.37191 0.0
O82 O 0.21847 0.98586 0.3286 0.0
O83 O 0.15139 0.03743 0.33961 0.0
O84 O 0.18635 0.00061 0.31238 0.0
C85 C 0.2367 0.027 0.37825 0.0
C86 C 0.12374 0.98034 0.35982 0.0
C87 C 0.17981 0.01674 0.43269 0.0
C88 C 0.1925 0.94353 0.38817 0.0
C89 C 0.1523 0.05446 0.35385 0.0
C90 C 0.20714 0.99268 0.31065 0.0
O91 O 0.21996 0.03778 0.36857 0.0
O92 O 0.02761 0.86206 0.63521 0.0
Zn93 Zn 0.99719 0.84605 0.6277 0.0
O94 O 0.99535 0.81852 0.64734 0.0
Zn95 Zn 0.99173 0.7917 0.62734 0.0
Zn96 Zn 0.02205 0.8158 0.66756 0.0
Zn97 Zn 0.97029 0.82062 0.66959 0.0
O98 O 0.95992 0.77814 0.63291 0.0
O99 O 0.94315 0.80439 0.65618 0.0
O100 O 0.99542 0.83908 0.59175 0.0
O101 O 0.99275 0.80058 0.59238 0.0
O102 O 0.01803 0.76902 0.63367 0.0
O103 O 0.04178 0.79141 0.65485 0.0
O104 O 0.01556 0.80394 0.69995 0.0
O105 O 0.97175 0.86822 0.63844 0.0
O106 O 0.9771 0.80491 0.70077 0.0
O107 O 0.96048 0.85371 0.67273 0.0
C108 C 0.04219 0.86073 0.65206 0.0
C109 C 0.94209 0.78648 0.64324 0.0
C110 C 0.03767 0.77285 0.64352 0.0
C111 C 0.99395 0.81962 0.58085 0.0
C112 C 0.99649 0.79946 0.71024 0.0
C113 C 0.9603 0.8699 0.65751 0.0
O114 O 0.04088 0.84482 0.66745 0.0
O115 O 0.13109 0.02958 0.63238 0.0
Zn116 Zn 0.15342 0.00596 0.62075 0.0
O117 O 0.18073 0.00687 0.64006 0.0
Zn118 Zn 0.20664 0.01393 0.61941 0.0
Zn119 Zn 0.17746 0.02976 0.66475 0.0
Zn120 Zn 0.18412 0.97788 0.65669 0.0
O121 O 0.23134 0.98941 0.62434 0.0
O122 O 0.21083 0.96195 0.64265 0.0
O123 O 0.15951 0.00987 0.58613 0.0
O124 O 0.1978 0.01388 0.58399 0.0
O125 O 0.21751 0.04636 0.62702 0.0
O126 O 0.19272 0.05877 0.65428 0.0
O127 O 0.19336 0.01984 0.69522 0.0
O128 O 0.13741 0.97586 0.62452 0.0
O129 O 0.19452 0.98166 0.6902 0.0
O130 O 0.1556 0.95742 0.65337 0.0
C131 C 0.12837 0.03968 0.65198 0.0
C132 C 0.22919 0.96875 0.63231 0.0
C133 C 0.20921 0.06237 0.64005 0.0
C134 C 0.17791 0.01234 0.57396 0.0
C135 C 0.19877 -0.00042 0.70262 0.0
C136 C 0.13913 0.95873 0.63842 0.0
O137 O 0.14387 0.03901 0.66801 0.0
O138 O 0.97871 0.14338 0.62728 0.0
Zn139 Zn 0.00457 0.16439 0.6185 0.0
O140 O 0.00138 0.19252 0.63675 0.0
Zn141 Zn 0.99565 0.21743 0.61467 0.0
Zn142 Zn 0.97708 0.18979 0.6605 0.0
Zn143 Zn 0.02937 0.1977 0.65443 0.0
O144 O 0.02003 0.2422 0.61938 0.0
O145 O 0.04702 0.22271 0.63957 0.0
O146 O 0.00437 0.16923 0.58297 0.0
O147 O 0.99725 0.20698 0.57985 0.0
O148 O 0.96334 0.22934 0.62061 0.0
O149 O 0.94927 0.20709 0.64922 0.0
O150 O 0.9859 0.20399 0.69261 0.0
O151 O 0.033 0.147 0.62867 0.0
O152 O 0.0236 0.20921 0.68672 0.0
O153 O 0.04868 0.16905 0.65647 0.0
C154 C 0.96651 0.14104 0.64565 0.0
C155 C 0.04049 0.24046 0.62805 0.0
C156 C 0.94682 0.22294 0.634 0.0
C157 C 0.00096 0.18719 0.57026 0.0
C158 C 0.00583 0.21102 0.69975 0.0
C159 C 0.04813 0.15033 0.64464 0.0
O160 O 0.9662 0.15645 0.66176 0.0
O161 O 0.86488 0.9854 0.62997 0.0
Zn162 Zn 0.84299 0.01113 0.62192 0.0
O163 O 0.81599 0.00825 0.64203 0.0
Zn164 Zn 0.78907 0.00357 0.62214 0.0
Zn165 Zn 0.8196 0.98357 0.66524 0.0
Zn166 Zn 0.81263 0.0363 0.66009 0.0
O167 O 0.76736 0.031 0.625 0.0
O168 O 0.78844 0.05596 0.64604 0.0
O169 O 0.83552 0.0095 0.58677 0.0
O170 O 0.7979 0.00061 0.58717 0.0
O171 O 0.773 0.97441 0.63249 0.0
O172 O 0.79827 0.95744 0.65682 0.0
O173 O 0.80859 0.99316 0.69806 0.0
O174 O 0.86083 0.04021 0.63008 0.0
O175 O 0.80188 0.03068 0.69257 0.0
O176 O 0.84195 0.05434 0.66082 0.0
C177 C 0.86765 0.97205 0.64751 0.0
C178 C 0.77052 0.05112 0.63392 0.0
C179 C 0.77927 0.95738 0.64532 0.0
C180 C 0.81676 0.00427 0.57585 0.0
C181 C 0.80126 0.0128 0.70555 0.0
C182 C 0.85915 0.05466 0.64692 0.0
O183 O 0.85254 0.97086 0.66382 0.0
O184 O 0.36976 0.03985 0.1494 0.0
Zn185 Zn 0.3814 0.01105 0.1645 0.0
O186 O 0.36051 0.00399 0.18941 0.0
Zn187 Zn 0.37852 -0.00038 0.21712 0.0
Zn188 Zn 0.33648 0.02722 0.19302 0.0
Zn189 Zn 0.34381 0.97617 0.1825 0.0
O190 O 0.37327 0.96704 0.229 0.0
O191 O 0.36231 0.95035 0.19564 0.0
O192 O 0.41611 0.01311 0.17386 0.0
O193 O 0.41388 0.00202 0.21079 0.0
O194 O 0.36985 0.02527 0.23954 0.0
O195 O 0.34671 0.04825 0.21831 0.0
O196 O 0.30599 0.01338 0.20473 0.0
O197 O 0.37748 0.98685 0.13969 0.0
O198 O 0.31259 0.97571 0.19934 0.0
O199 O 0.34319 0.97061 0.14789 0.0
C200 C 0.3502 0.05045 0.14885 0.0
C201 C 0.37067 0.94906 0.21612 0.0
C202 C 0.35867 0.04435 0.23663 0.0
C203 C 0.42608 0.00793 0.19314 0.0
C204 C 0.29992 0.99217 0.20731 0.0
C205 C 0.36029 0.97392 0.13403 0.0
O206 O 0.33402 0.04626 0.16352 0.0
O207 O 0.9827 0.38389 0.14376 0.0
Zn208 Zn 0.01083 0.39542 0.16141 0.0
O209 O 0.0146 0.37534 0.18835 0.0
Zn210 Zn 0.01595 0.39464 0.21574 0.0
Zn211 Zn 0.99005 0.35267 0.19083 0.0
Zn212 Zn 0.04196 0.35618 0.18526 0.0
O213 O 0.04749 0.39029 0.23086 0.0
O214 O 0.06694 0.37153 0.20287 0.0
O215 O 0.00878 0.43088 0.1693 0.0
O216 O 0.01306 0.42956 0.20769 0.0
O217 O 0.98852 0.38705 0.23641 0.0
O218 O 0.96704 0.36435 0.2133 0.0
O219 O 0.00056 0.32145 0.20344 0.0
O220 O 0.03778 0.38968 0.13973 0.0
O221 O 0.03882 0.32384 0.19967 0.0
O222 O 0.05292 0.35614 0.15224 0.0
C223 C 0.9711 0.36488 0.14422 0.0
C224 C 0.06646 0.38285 0.22187 0.0
C225 C 0.96942 0.37656 0.23163 0.0
C226 C 0.01027 0.44136 0.18898 0.0
C227 C 0.02079 0.31273 0.20632 0.0
C228 C 0.0516 0.37243 0.13717 0.0
O229 O 0.97366 0.34995 0.16044 0.0
O230 O 0.63235 0.05606 0.23343 0.0
Zn231 Zn 0.64157 0.0232 0.22584 0.0
O232 O 0.63315 0.01666 0.19384 0.0
Zn233 Zn 0.61251 0.99073 0.19284 0.0
Zn234 Zn 0.61421 0.04061 0.18041 0.0
Zn235 Zn 0.6619 0.01147 0.17569 0.0
O236 O 0.62201 0.9704 0.16682 0.0
O237 O 0.65923 0.97959 0.16035 0.0
O238 O 0.62948 -0.00161 0.24798 0.0
O239 O 0.61837 0.97289 0.22097 0.0
O240 O 0.57729 0.99793 0.19154 0.0
O241 O 0.57886 0.03444 0.17972 0.0
O242 O 0.62518 0.04626 0.1483 0.0
O243 O 0.67595 0.02139 0.23012 0.0
O244 O 0.66213 0.03392 0.14811 0.0
O245 O 0.69236 0.01385 0.19596 0.0
C246 C 0.62546 0.07263 0.22026 0.0
C247 C 0.64148 0.96655 0.15689 0.0
C248 C 0.56692 0.01657 0.18532 0.0
C249 C 0.62383 0.97777 0.24187 0.0
C250 C 0.64487 0.04416 0.13834 0.0
C251 C 0.69404 0.01766 0.21793 0.0
O252 O 0.6193 0.06913 0.19918 0.0
O253 O 0.03611 0.64363 0.13839 0.0
Zn254 Zn 0.00909 0.631 0.15614 0.0
O255 O 0.00572 0.64929 0.18395 0.0
Zn256 Zn 0.00589 0.6273 0.20923 0.0
Zn257 Zn 0.03061 0.67172 0.18661 0.0
Zn258 Zn 0.97828 0.66847 0.18353 0.0
O259 O 0.97884 0.63474 0.23017 0.0
O260 O 0.95603 0.65381 0.20493 0.0
O261 O 0.01126 0.59541 0.16124 0.0
O262 O 0.00347 0.59268 0.19888 0.0
O263 O 0.03724 0.62911 0.22424 0.0
O264 O 0.05616 0.65569 0.20317 0.0
O265 O 0.0211 0.70105 0.20464 0.0
O266 O 0.98163 0.63722 0.13603 0.0
O267 O 0.98306 0.70077 0.19787 0.0
O268 O 0.96342 0.66781 0.15161 0.0
C269 C 0.04647 0.6633 0.13836 0.0
C270 C 0.95918 0.64337 0.22421 0.0
C271 C 0.05591 0.63949 0.21819 0.0
C272 C 0.00743 0.58288 0.17925 0.0
C273 C 0.00101 0.71039 0.20694 0.0
C274 C 0.96585 0.65281 0.1353 0.0
O275 O 0.0438 0.67808 0.15481 0.0
O276 O 0.3799 0.98196 0.85995 0.0
Zn277 Zn 0.38656 0.00736 0.83743 0.0
O278 O 0.36523 0.00385 0.81156 0.0
Zn279 Zn 0.38409 -0.00158 0.78431 0.0
Zn280 Zn 0.34232 0.97959 0.81689 0.0
Zn281 Zn 0.34699 0.03156 0.80769 0.0
O282 O 0.37819 0.02377 0.76099 0.0
O283 O 0.36332 0.05066 0.78461 0.0
O284 O 0.42156 0.00769 0.82896 0.0
O285 O 0.41944 0.00039 0.79112 0.0
O286 O 0.37716 0.96615 0.77254 0.0
O287 O 0.35305 0.95183 0.79944 0.0
O288 O 0.30948 0.98791 0.80388 0.0
O289 O 0.37816 0.03625 0.85468 0.0
O290 O 0.31479 0.02529 0.79593 0.0
O291 O 0.3461 0.04969 0.8373 0.0
C292 C 0.36184 0.96986 0.86446 0.0
C293 C 0.37381 0.04498 0.76598 0.0
C294 C 0.36582 0.94929 0.78156 0.0
C295 C 0.43163 0.00448 0.80938 0.0
C296 C 0.30197 0.00721 0.7956 0.0
C297 C 0.36098 0.05031 0.85382 0.0
O298 O 0.34415 0.96934 0.85076 0.0
O299 O 0.05111 0.37856 0.8589 0.0
Zn300 Zn 0.02067 0.38787 0.84459 0.0
O301 O 0.01446 0.36725 0.81873 0.0
Zn302 Zn 0.00833 0.38578 0.79157 0.0
Zn303 Zn 0.0393 0.34503 0.81402 0.0
Zn304 Zn 0.98797 0.34815 0.82562 0.0
O305 O 0.9755 0.37938 0.78069 0.0
O306 O 0.95999 0.36325 0.81238 0.0
O307 O 0.019 0.42282 0.83647 0.0
O308 O 0.01001 0.42111 0.79887 0.0
O309 O 0.03245 0.37791 0.76723 0.0
O310 O 0.05774 0.35585 0.78703 0.0
O311 O 0.02737 0.31312 0.80361 0.0
O312 O 0.99756 0.38138 0.86972 0.0
O313 O 0.98953 0.3165 0.81012 0.0
O314 O 0.98298 0.3468 0.85989 0.0
C315 C 0.06354 0.36012 0.85805 0.0
C316 C 0.95789 0.37277 0.79253 0.0
C317 C 0.05189 0.36711 0.76881 0.0
C318 C 0.01416 0.43308 0.81729 0.0
C319 C 0.00672 0.30498 0.8021 0.0
C320 C 0.98563 0.36331 0.87455 0.0
O321 O 0.06012 0.34436 0.84263 0.0
O322 O 0.62703 0.03694 0.86407 0.0
Zn323 Zn 0.62019 0.0088 0.8451 0.0
O324 O 0.63912 0.01019 0.81747 0.0
Zn325 Zn 0.6183 0.01228 0.79094 0.0
Zn326 Zn 0.66248 0.03488 0.8194 0.0
Zn327 Zn 0.65728 0.98245 0.81524 0.0
O328 O 0.62172 0.98342 0.77107 0.0
O329 O 0.64101 0.95997 0.79534 0.0
O330 O 0.58504 0.00733 0.83838 0.0
O331 O 0.58314 0.01346 0.80026 0.0
O332 O 0.62753 0.0411 0.77342 0.0
O333 O 0.65374 0.05893 0.79627 0.0
O334 O 0.69535 0.02467 0.80888 0.0
O335 O 0.63096 0.98241 0.8655 0.0
O336 O 0.68859 0.9875 0.8013 0.0
O337 O 0.66145 0.96842 0.84616 0.0
C338 C 0.6444 0.05065 0.86594 0.0
C339 C 0.62923 0.96332 0.77688 0.0
C340 C 0.64099 0.05823 0.77811 0.0
C341 C 0.57295 0.01023 0.81983 0.0
C342 C 0.70206 0.00503 0.80078 0.0
C343 C 0.64879 0.96918 0.86426 0.0
O344 O 0.66106 0.0505 0.85116 0.0
O345 O 0.97712 0.63284 0.87507 0.0
Zn346 Zn 0.00485 0.62145 0.85653 0.0
O347 O 0.00606 0.63909 0.82811 0.0
Zn348 Zn 0.00066 0.6176 0.8029 0.0
Zn349 Zn 0.98329 0.6638 0.8286 0.0
Zn350 Zn 0.03571 0.65408 0.82358 0.0
O351 O 0.02621 0.62051 0.77972 0.0
O352 O 0.05384 0.63156 0.80443 0.0
O353 O 0.0049 0.58561 0.85134 0.0
O354 O 0.00187 0.58336 0.81291 0.0
O355 O 0.96919 0.62412 0.7896 0.0
O356 O 0.95546 0.65386 0.81056 0.0
O357 O 0.99482 0.6932 0.81321 0.0
O358 O 0.03292 0.63024 0.87518 0.0
O359 O 0.03216 0.68538 0.80674 0.0
O360 O 0.05243 0.65668 0.85454 0.0
C361 C 0.96739 0.65289 0.87611 0.0
C362 C 0.04734 0.61998 0.78661 0.0
C363 C 0.95302 0.6384 0.79493 0.0
C364 C 0.00386 0.57337 0.83267 0.0
C365 C 0.01448 0.69881 0.80456 0.0
C366 C 0.04961 0.64475 0.8731 0.0
O367 O 0.97127 0.66854 0.86086 0.0
O368 O 0.15656 0.3815 0.03375 0.0
Zn369 Zn 0.17517 0.38963 0.00523 0.0
O370 O 0.20185 0.3689 0.00353 0.0
Zn371 Zn 0.22925 0.38794 -0.0005 0.0
Zn372 Zn 0.20476 0.35044 0.03119 0.0
Zn373 Zn 0.19827 0.34617 0.9785 0.0
O374 O 0.24092 0.38304 0.96689 0.0
O375 O 0.21558 0.35798 0.95126 0.0
O376 O 0.18351 0.42487 0.00525 0.0
O377 O 0.22193 0.4229 0.00213 0.0
O378 O 0.25279 0.3811 0.02489 0.0
O379 O 0.22947 0.36428 0.05085 0.0
O380 O 0.21565 0.31768 0.02472 0.0
O381 O 0.15428 0.38184 0.97822 0.0
O382 O 0.21197 0.31398 0.98646 0.0
O383 O 0.16503 0.34618 0.96688 0.0
C384 C 0.15778 0.36502 0.04863 0.0
C385 C 0.23271 0.37181 0.94949 0.0
C386 C 0.24865 0.37404 0.04558 0.0
C387 C 0.20333 0.43501 0.00406 0.0
C388 C 0.21821 0.30571 0.00619 0.0
C389 C 0.15099 0.36347 0.96606 0.0
O390 O 0.17488 0.35082 0.04898 0.0
O391 O 0.15463 0.63334 0.97489 0.0
Zn392 Zn 0.16934 0.62392 0.00499 0.0
O393 O 0.19704 0.64243 0.00964 0.0
Zn394 Zn 0.22263 0.62094 0.01444 0.0
Zn395 Zn 0.20245 0.66309 0.98333 0.0
Zn396 Zn 0.19314 0.66303 0.03625 0.0
O397 O 0.23407 0.62456 0.04728 0.0
O398 O 0.20916 0.64944 0.06378 0.0
O399 O 0.17508 0.58857 0.00539 0.0
O400 O 0.21332 0.58617 0.01034 0.0
O401 O 0.24785 0.62855 0.99149 0.0
O402 O 0.22953 0.65118 0.96565 0.0
O403 O 0.2127 0.69544 0.99321 0.0
O404 O 0.14558 0.63279 0.02892 0.0
O405 O 0.20808 0.69459 0.03149 0.0
O406 O 0.15942 0.66551 0.04464 0.0
C407 C 0.15739 0.64989 0.96038 0.0
C408 C 0.2263 0.63551 0.06498 0.0
C409 C 0.24726 0.63952 0.97216 0.0
C410 C 0.19356 0.57625 0.00736 0.0
C411 C 0.21492 0.70501 0.01316 0.0
C412 C 0.14307 0.65072 0.04183 0.0
O413 O 0.17457 0.66391 0.96182 0.0
O414 O 0.38711 0.1365 0.97642 0.0
Zn415 Zn 0.39399 0.15591 0.00439 0.0
O416 O 0.37498 0.18356 0.003 0.0
Zn417 Zn 0.39619 0.20966 0.00494 0.0
Zn418 Zn 0.35622 0.18404 0.97523 0.0
Zn419 Zn 0.35132 0.18369 0.02704 0.0
O420 O 0.38939 0.22595 0.03513 0.0
O421 O 0.36348 0.20279 0.05257 0.0
O422 O 0.42955 0.16169 0.00628 0.0
O423 O 0.43152 0.20017 0.00584 0.0
O424 O 0.39118 0.22964 0.97643 0.0
O425 O 0.37168 0.2049 0.95343 0.0
O426 O 0.3241 0.19824 0.97918 0.0
O427 O 0.38264 0.13666 0.03097 0.0
O428 O 0.32055 0.19892 0.01749 0.0
O429 O 0.34797 0.15165 0.04045 0.0
C430 C 0.37051 0.13623 0.9616 0.0
C431 C 0.37726 0.22003 0.0528 0.0
C432 C 0.38294 0.22367 0.95658 0.0
C433 C 0.44174 0.18034 0.00644 0.0
C434 C 0.31258 0.20379 0.9973 0.0
C435 C 0.36341 0.13571 0.04207 0.0
O436 O 0.35559 0.15266 0.96036 0.0
O437 O 0.87866 0.37969 0.97197 0.0
Zn438 Zn 0.85802 0.38945 -0.00147 0.0
O439 O 0.83173 0.36893 0.00042 0.0
Zn440 Zn 0.80399 0.3878 5e-05 0.0
Zn441 Zn 0.83274 0.34777 0.97494 0.0
Zn442 Zn 0.83374 0.34764 0.02635 0.0
O443 O 0.78646 0.38017 0.02965 0.0
O444 O 0.81289 0.36003 0.05016 0.0
O445 O 0.84944 0.42431 0.99772 0.0
O446 O 0.8109 0.42372 0.00015 0.0
O447 O 0.78675 0.38009 0.97005 0.0
O448 O 0.81418 0.36111 0.94989 0.0
O449 O 0.81801 0.31683 0.98147 0.0
O450 O 0.87779 0.38322 0.02616 0.0
O451 O 0.82048 0.31492 0.01981 0.0
O452 O 0.86613 0.34885 0.04007 0.0
C453 C 0.88072 0.35988 0.96204 0.0
C454 C 0.79361 0.3708 0.04862 0.0
C455 C 0.7946 0.37129 0.95112 0.0
C456 C 0.83001 0.43521 -0.00106 0.0
C457 C 0.81422 0.306 0.00038 0.0
C458 C 0.88058 0.36579 0.0396 0.0
O459 O 0.86504 0.34432 0.9637 0.0
O460 O 0.63743 0.88611 0.9888 0.0
Zn461 Zn 0.62851 0.8627 0.01268 0.0
O462 O 0.64658 0.83523 0.00728 0.0
Zn463 Zn 0.62542 0.80936 0.00665 0.0
Zn464 Zn 0.66427 0.83665 0.97927 0.0
Zn465 Zn 0.67016 0.83284 0.03115 0.0
O466 O 0.63066 0.79114 0.03616 0.0
O467 O 0.65644 0.81313 0.05551 0.0
O468 O 0.593 0.85765 0.01154 0.0
O469 O 0.59066 0.81951 0.00646 0.0
O470 O 0.6308 0.79154 0.97685 0.0
O471 O 0.64653 0.81966 0.95511 0.0
O472 O 0.69536 0.81961 0.98175 0.0
O473 O 0.63845 0.87588 0.0433 0.0
O474 O 0.69974 0.81653 0.01998 0.0
O475 O 0.67527 0.86378 0.04706 0.0
C476 C 0.65357 0.88717 0.97362 0.0
C477 C 0.64198 0.79642 0.05465 0.0
C478 C 0.63652 0.80002 0.95709 0.0
C479 C 0.58069 0.83931 0.00874 0.0
C480 C 0.70686 0.81227 -0.00066 0.0
C481 C 0.65838 0.87686 0.05323 0.0
O482 O 0.66673 0.86979 0.96918 0.0
O483 O 0.85724 0.63099 0.03736 0.0
Zn484 Zn 0.83951 0.62214 0.00816 0.0
O485 O 0.81308 0.64284 0.00411 0.0
Zn486 Zn 0.7858 0.62338 0.00132 0.0
Zn487 Zn 0.81078 0.66272 0.03085 0.0
Zn488 Zn 0.81649 0.6647 0.97826 0.0
O489 O 0.76941 0.63217 0.97166 0.0
O490 O 0.79575 0.65359 0.95268 0.0
O491 O 0.83179 0.58684 0.00696 0.0
O492 O 0.7938 0.58798 1e-05 0.0
O493 O 0.76555 0.62787 0.0296 0.0
O494 O 0.78893 0.64862 0.05272 0.0
O495 O 0.79881 0.69457 0.02374 0.0
O496 O 0.86163 0.62951 0.98276 0.0
O497 O 0.80446 0.69807 0.98577 0.0
O498 O 0.84989 0.66277 0.9663 0.0
C499 C 0.85691 0.64954 0.04967 0.0
C500 C 0.77644 0.64271 0.9534 0.0
C501 C 0.77066 0.63663 0.04942 0.0
C502 C 0.81256 0.57623 0.00302 0.0
C503 C 0.79741 0.70653 0.00516 0.0
C504 C 0.86488 0.64639 0.96874 0.0
O505 O 0.84091 0.66471 0.04742 0.0
O506 O 0.38046 0.87474 0.02754 0.0
Zn507 Zn 0.39209 0.85336 0.00177 0.0
O508 O 0.37392 0.82475 0.00358 0.0
Zn509 Zn 0.39426 0.79865 0.00798 0.0
Zn510 Zn 0.35188 0.82583 0.02873 0.0
Zn511 Zn 0.35518 0.82018 0.97634 0.0
O512 O 0.38849 0.77454 0.98311 0.0
O513 O 0.37034 0.79647 0.95665 0.0
O514 O 0.42825 0.84727 0.0034 0.0
O515 O 0.42823 0.80866 0.00536 0.0
O516 O 0.39093 0.78634 0.04054 0.0
O517 O 0.36702 0.81221 0.05685 0.0
O518 O 0.32165 0.8082 0.02184 0.0
O519 O 0.38292 0.87025 0.9719 0.0
O520 O 0.32339 0.80727 0.98331 0.0
O521 O 0.35304 0.84948 0.95821 0.0
C522 C 0.36059 0.87577 0.03763 0.0
C523 C 0.38095 0.77791 0.96243 0.0
C524 C 0.38121 0.79529 0.05839 0.0
C525 C 0.43939 0.82788 0.00427 0.0
C526 C 0.31276 0.80262 0.00219 0.0
C527 C 0.36608 0.86739 0.95749 0.0
O528 O 0.34611 0.85894 0.0367 0.0
O529 O 0.64064 0.14164 0.03062 0.0
Zn530 Zn 0.63049 0.16494 0.00595 0.0
O531 O 0.65025 0.19229 0.00892 0.0
Zn532 Zn 0.63045 0.21919 0.01261 0.0
Zn533 Zn 0.6711 0.18926 0.03505 0.0
Zn534 Zn 0.67155 0.19563 0.98307 0.0
O535 O 0.6356 0.24114 0.98553 0.0
O536 O 0.65845 0.2197 0.96255 0.0
O537 O 0.59454 0.17205 0.00752 0.0
O538 O 0.59545 0.21036 0.01224 0.0
O539 O 0.63724 0.23359 0.04401 0.0
O540 O 0.6569 0.20519 0.06193 0.0
O541 O 0.70238 0.20494 0.03037 0.0
O542 O 0.63883 0.14956 0.9755 0.0
O543 O 0.70387 0.20773 0.99198 0.0
O544 O 0.6721 0.16619 0.96418 0.0
C545 C 0.65952 0.1395 0.0424 0.0
C546 C 0.64576 0.2375 0.96607 0.0
C547 C 0.64583 0.22435 0.0624 0.0
C548 C 0.58377 0.19147 0.0101 0.0
C549 C 0.71304 0.21121 0.01198 0.0
C550 C 0.65646 0.15053 0.96195 0.0
O551 O 0.67442 0.15591 0.04366 0.0
O552 O 0.53753 0.63444 0.884 0.0
Zn553 Zn 0.51041 0.65486 0.89077 0.0
O554 O 0.51311 0.68233 0.87193 0.0
Zn555 Zn 0.51349 0.70841 0.89311 0.0
Zn556 Zn 0.54078 0.68109 0.85287 0.0
Zn557 Zn 0.48797 0.68421 0.84947 0.0
O558 O 0.48497 0.72775 0.88668 0.0
O559 O 0.46399 0.70494 0.86297 0.0
O560 O 0.50873 0.66069 0.92625 0.0
O561 O 0.51232 0.699 0.92819 0.0
O562 O 0.54352 0.72564 0.88833 0.0
O563 O 0.5651 0.69954 0.86908 0.0
O564 O 0.53627 0.69685 0.82115 0.0
O565 O 0.48341 0.63624 0.87902 0.0
O566 O 0.49781 0.69921 0.8188 0.0
O567 O 0.47335 0.6526 0.84519 0.0
C568 C 0.55127 0.63239 0.8667 0.0
C569 C 0.4661 0.72281 0.87591 0.0
C570 C 0.56307 0.71835 0.88063 0.0
C571 C 0.51019 0.67932 0.93841 0.0
C572 C 0.51791 0.70337 0.81031 0.0
C573 C 0.47201 0.63596 0.85986 0.0
O574 O 0.55275 0.6481 0.85103 0.0
O575 O 0.27744 0.48762 0.87675 0.0
Zn576 Zn 0.30189 0.51196 0.86897 0.0
O577 O 0.33202 0.5021 0.88033 0.0
Zn578 Zn 0.34643 0.52407 0.90084 0.0
Zn579 Zn 0.32923 0.47547 0.89938 0.0
Zn580 Zn 0.35128 0.49545 0.85349 0.0
O581 O 0.37888 0.52946 0.88989 0.0
O582 O 0.37626 0.52041 0.85199 0.0
O583 O 0.29538 0.54427 0.88027 0.0
O584 O 0.32918 0.55381 0.89708 0.0
O585 O 0.34453 0.51615 0.93595 0.0
O586 O 0.32529 0.48285 0.934 0.0
O587 O 0.35686 0.45492 0.89466 0.0
O588 O 0.30053 0.51302 0.83416 0.0
O589 O 0.36861 0.46545 0.85922 0.0
O590 O 0.3319 0.49322 0.82317 0.0
C591 C 0.28165 0.46613 0.88071 0.0
C592 C 0.38699 0.52974 0.86921 0.0
C593 C 0.33375 0.49955 0.94605 0.0
C594 C 0.30893 0.55923 0.88967 0.0
C595 C 0.37007 0.45224 0.87704 0.0
C596 C 0.31241 0.50296 0.81842 0.0
O597 O 0.30148 0.45924 0.88798 0.0
O598 O 0.48226 0.35557 0.87878 0.0
Zn599 Zn 0.51124 0.33714 0.88602 0.0
O600 O 0.51365 0.31138 0.86444 0.0
Zn601 Zn 0.51555 0.28326 0.88273 0.0
Zn602 Zn 0.4872 0.31157 0.84401 0.0
Zn603 Zn 0.53953 0.314 0.84292 0.0
O604 O 0.54645 0.26785 0.87655 0.0
O605 O 0.56514 0.29516 0.85629 0.0
O606 O 0.51125 0.32807 0.92098 0.0
O607 O 0.51441 0.28972 0.91847 0.0
O608 O 0.48796 0.26311 0.87461 0.0
O609 O 0.46511 0.28893 0.85653 0.0
O610 O 0.49408 0.29982 0.81184 0.0
O611 O 0.53807 0.35807 0.87892 0.0
O612 O 0.53257 0.29993 0.8102 0.0
O613 O 0.55155 0.3472 0.84398 0.0
C614 C 0.46941 0.35697 0.86063 0.0
C615 C 0.56503 0.27624 0.86774 0.0
C616 C 0.46825 0.26931 0.86625 0.0
C617 C 0.51267 0.3082 0.93089 0.0
C618 C 0.51281 0.29518 0.80096 0.0
C619 C 0.55122 0.36131 0.86129 0.0
O620 O 0.47115 0.34248 0.84389 0.0
O621 O 0.74162 0.53289 0.86517 0.0
Zn622 Zn 0.72951 0.50219 0.85341 0.0
O623 O 0.69718 0.49833 0.86248 0.0
Zn624 Zn 0.69284 0.47099 0.88058 0.0
Zn625 Zn 0.68673 0.52189 0.88382 0.0
Zn626 Zn 0.67866 0.49714 0.83373 0.0
O627 O 0.66314 0.45563 0.87083 0.0
O628 O 0.65779 0.46884 0.83463 0.0
O629 O 0.74785 0.47394 0.86321 0.0
O630 O 0.71845 0.45025 0.87189 0.0
O631 O 0.69431 0.47569 0.91635 0.0
O632 O 0.68496 0.5129 0.91906 0.0
O633 O 0.65663 0.53404 0.87173 0.0
O634 O 0.73367 0.50289 0.81872 0.0
O635 O 0.65672 0.52482 0.8338 0.0
O636 O 0.69859 0.49614 0.80372 0.0
C637 C 0.73041 0.54983 0.87421 0.0
C638 C 0.65232 0.45531 0.85136 0.0
C639 C 0.68981 0.49353 0.9289 0.0
C640 C 0.73981 0.45357 0.86702 0.0
C641 C 0.64815 0.53577 0.8512 0.0
C642 C 0.72045 0.49954 0.80122 0.0
O643 O 0.70946 0.54763 0.88115 0.0
O644 O 0.52282 0.36772 0.12715 0.0
Zn645 Zn 0.49908 0.34362 0.11951 0.0
O646 O 0.5048 0.31708 0.1393 0.0
Zn647 Zn 0.51137 0.29102 0.11889 0.0
Zn648 Zn 0.52969 0.32314 0.16135 0.0
Zn649 Zn 0.47867 0.31185 0.15957 0.0
O650 O 0.48713 0.26633 0.12519 0.0
O651 O 0.46119 0.28581 0.14668 0.0
O652 O 0.49994 0.33656 0.0843 0.0
O653 O 0.50997 0.29934 0.08326 0.0
O654 O 0.54408 0.28036 0.12603 0.0
O655 O 0.55826 0.30852 0.149 0.0
O656 O 0.52482 0.30852 0.19363 0.0
O657 O 0.46925 0.35896 0.12894 0.0
O658 O 0.48711 0.30109 0.19187 0.0
O659 O 0.45827 0.33998 0.16092 0.0
C660 C 0.53429 0.37216 0.14571 0.0
C661 C 0.46727 0.26793 0.13512 0.0
C662 C 0.56095 0.29031 0.13671 0.0
C663 C 0.50496 0.31828 0.07256 0.0
C664 C 0.50638 0.30029 0.20286 0.0
C665 C 0.45605 0.35682 0.14666 0.0
O666 O 0.53613 0.35738 0.16223 0.0
O667 O 0.64264 0.52489 0.12706 0.0
Zn668 Zn 0.66012 0.49643 0.11874 0.0
O669 O 0.68803 0.49624 0.13724 0.0
Zn670 Zn 0.71381 0.49365 0.11597 0.0
Zn671 Zn 0.68976 0.52209 0.15878 0.0
Zn672 Zn 0.68733 0.47046 0.15808 0.0
O673 O 0.72847 0.4622 0.12103 0.0
O674 O 0.70109 0.44386 0.14167 0.0
O675 O 0.66544 0.49635 0.08304 0.0
O676 O 0.70397 0.49476 0.08084 0.0
O677 O 0.7349 0.52116 0.12211 0.0
O678 O 0.71214 0.5435 0.14459 0.0
O679 O 0.70459 0.51396 0.19066 0.0
O680 O 0.63918 0.47069 0.12988 0.0
O681 O 0.70622 0.47562 0.18755 0.0
O682 O 0.65454 0.46202 0.16458 0.0
C683 C 0.64243 0.53905 0.14416 0.0
C684 C 0.71931 0.44366 0.12921 0.0
C685 C 0.73018 0.54052 0.1321 0.0
C686 C 0.68403 0.4958 0.07078 0.0
C687 C 0.71129 0.49424 0.19856 0.0
C688 C 0.63786 0.461 0.14989 0.0
O689 O 0.65851 0.53901 0.15971 0.0
O690 O 0.48602 0.64543 0.1363 0.0
Zn691 Zn 0.5131 0.66513 0.12663 0.0
O692 O 0.51226 0.6926 0.14624 0.0
Zn693 Zn 0.51201 0.71966 0.1264 0.0
Zn694 Zn 0.48671 0.693 0.16815 0.0
Zn695 Zn 0.53924 0.69273 0.16593 0.0
O696 O 0.54229 0.7372 0.13072 0.0
O697 O 0.56323 0.71035 0.1495 0.0
O698 O 0.5122 0.67206 0.09079 0.0
O699 O 0.51108 0.71062 0.09166 0.0
O700 O 0.48259 0.73818 0.13253 0.0
O701 O 0.4624 0.71345 0.15463 0.0
O702 O 0.49553 0.70752 0.2 0.0
O703 O 0.54142 0.64596 0.13547 0.0
O704 O 0.53395 0.70867 0.19675 0.0
O705 O 0.55245 0.66096 0.16961 0.0
C706 C 0.47273 0.64463 0.15412 0.0
C707 C 0.56179 0.72894 0.13769 0.0
C708 C 0.46359 0.73169 0.14213 0.0
C709 C 0.51138 0.69159 0.08004 0.0
C710 C 0.51549 0.71336 0.20811 0.0
C711 C 0.55372 0.64513 0.1541 0.0
O712 O 0.47244 0.66085 0.16944 0.0
O713 O 0.37593 0.48445 0.14145 0.0
Zn714 Zn 0.3549 0.51127 0.13482 0.0
O715 O 0.32651 0.50715 0.15231 0.0
Zn716 Zn 0.30136 0.50402 0.12979 0.0
Zn717 Zn 0.32846 0.47958 0.17197 0.0
Zn718 Zn 0.32167 0.53338 0.17329 0.0
O719 O 0.27743 0.52867 0.1361 0.0
O720 O 0.29586 0.55277 0.16054 0.0
O721 O 0.35014 0.51354 0.09955 0.0
O722 O 0.31223 0.50717 0.09566 0.0
O723 O 0.28766 0.47219 0.13179 0.0
O724 O 0.31067 0.45373 0.15707 0.0
O725 O 0.31422 0.48467 0.20396 0.0
O726 O 0.3715 0.53945 0.14638 0.0
O727 O 0.31038 0.52307 0.20506 0.0
O728 O 0.35051 0.55353 0.17575 0.0
C729 C 0.37724 0.46953 0.15782 0.0
C730 C 0.27857 0.54773 0.14749 0.0
C731 C 0.29414 0.45378 0.1423 0.0
C732 C 0.33217 0.51101 0.08659 0.0
C733 C 0.30778 0.50315 0.2145 0.0
C734 C 0.36862 0.55401 0.1629 0.0
O735 O 0.36121 0.46746 0.17305 0.0
O736 O 0.89812 0.53822 0.64866 0.0
Zn737 Zn 0.90332 0.50875 0.66653 0.0
O738 O 0.8811 0.50737 0.69183 0.0
Zn739 Zn 0.8987 0.50395 0.72038 0.0
Zn740 Zn 0.86181 0.53477 0.69252 0.0
Zn741 Zn 0.85879 0.48236 0.68712 0.0
O742 O 0.89207 0.47189 0.73288 0.0
O743 O 0.86945 0.45541 0.70571 0.0
O744 O 0.93774 0.50718 0.67671 0.0
O745 O 0.93454 0.50694 0.71522 0.0
O746 O 0.88882 0.52903 0.74293 0.0
O747 O 0.87166 0.55429 0.71892 0.0
O748 O 0.82821 0.52836 0.70019 0.0
O749 O 0.89566 0.48349 0.64373 0.0
O750 O 0.82596 0.48998 0.69934 0.0
O751 O 0.85985 0.47195 0.65354 0.0
C752 C 0.88177 0.55327 0.64829 0.0
C753 C 0.88133 0.45431 0.72441 0.0
C754 C 0.87982 0.54896 0.73884 0.0
C755 C 0.94725 0.50737 0.69689 0.0
C756 C 0.81673 0.50974 0.70364 0.0
C757 C 0.87707 0.47203 0.63943 0.0
O758 O 0.86545 0.55315 0.66332 0.0
O759 O 0.47162 0.87156 0.64363 0.0
Zn760 Zn 0.49885 0.88155 0.66336 0.0
O761 O 0.5011 0.86132 0.69002 0.0
Zn762 Zn 0.49875 0.88065 0.7173 0.0
Zn763 Zn 0.47645 0.83903 0.68854 0.0
Zn764 Zn 0.52879 0.84217 0.69028 0.0
O765 O 0.52592 0.87325 0.73845 0.0
O766 O 0.55018 0.85778 0.71226 0.0
O767 O 0.49859 0.91691 0.67075 0.0
O768 O 0.50137 0.91576 0.70926 0.0
O769 O 0.46686 0.87569 0.73154 0.0
O770 O 0.44983 0.85228 0.70547 0.0
O771 O 0.48469 0.80865 0.70422 0.0
O772 O 0.52617 0.8746 0.6436 0.0
O773 O 0.52328 0.80953 0.70446 0.0
O774 O 0.54396 0.84319 0.65813 0.0
C775 C 0.46228 0.85152 0.64103 0.0
C776 C 0.54636 0.86731 0.73193 0.0
C777 C 0.44886 0.86547 0.72322 0.0
C778 C 0.50055 0.92749 0.6903 0.0
C779 C 0.50416 0.79935 0.70963 0.0
C780 C 0.54158 0.85868 0.64224 0.0
O781 O 0.46541 0.83523 0.65579 0.0
O782 O 0.14255 0.50732 0.75131 0.0
Zn783 Zn 0.16121 0.48873 0.7276 0.0
O784 O 0.15369 0.50091 0.69716 0.0
Zn785 Zn 0.13446 0.48082 0.67894 0.0
Zn786 Zn 0.13501 0.52802 0.70093 0.0
Zn787 Zn 0.18242 0.50741 0.68076 0.0
O788 O 0.14866 0.47692 0.64764 0.0
O789 O 0.18635 0.48353 0.65487 0.0
O790 O 0.15275 0.45477 0.72834 0.0
O791 O 0.13524 0.44976 0.69398 0.0
O792 O 0.09997 0.49026 0.67712 0.0
O793 O 0.09925 0.52176 0.69937 0.0
O794 O 0.14423 0.55087 0.67638 0.0
O795 O 0.19557 0.49272 0.73518 0.0
O796 O 0.17918 0.53842 0.66486 0.0
O797 O 0.21038 0.50827 0.70291 0.0
C798 C 0.14041 0.52944 0.75074 0.0
C799 C 0.17006 0.47566 0.64181 0.0
C800 C 0.08847 0.50613 0.68766 0.0
C801 C 0.14273 0.44174 0.71329 0.0
C802 C 0.16258 0.55318 0.66408 0.0
C803 C 0.21271 0.50112 0.72387 0.0
O804 O 0.14322 0.54074 0.73193 0.0
O805 O 0.52448 0.12455 0.62771 0.0
Zn806 Zn 0.50213 0.11659 0.65333 0.0
O807 O 0.5104 0.13479 0.68041 0.0
Zn808 Zn 0.51932 0.11282 0.70423 0.0
Zn809 Zn 0.53513 0.15641 0.67322 0.0
Zn810 Zn 0.4852 0.15477 0.6903 0.0
O811 O 0.49879 0.11735 0.73209 0.0
O812 O 0.47005 0.13794 0.71599 0.0
O813 O 0.5013 0.08089 0.65872 0.0
O814 O 0.51471 0.07828 0.69483 0.0
O815 O 0.55328 0.11752 0.71073 0.0
O816 O 0.56517 0.14275 0.6836 0.0
O817 O 0.5325 0.18732 0.69096 0.0
O818 O 0.47135 0.12817 0.64193 0.0
O819 O 0.49605 0.18593 0.70347 0.0
O820 O 0.46164 0.15848 0.66424 0.0
C821 C 0.53548 0.14334 0.62326 0.0
C822 C 0.47782 0.12482 0.73213 0.0
C823 C 0.56931 0.1286 0.70007 0.0
C824 C 0.50713 0.06845 0.6763 0.0
C825 C 0.51572 0.19623 0.70251 0.0
C826 C 0.45801 0.14534 0.64662 0.0
O827 O 0.53792 0.15939 0.63854 0.0
O828 O 0.88154 0.49021 0.36901 0.0
Zn829 Zn 0.88934 0.51687 0.34861 0.0
O830 O 0.87126 0.51357 0.32049 0.0
Zn831 Zn 0.89341 0.51264 0.29522 0.0
Zn832 Zn 0.85144 0.48623 0.32106 0.0
Zn833 Zn 0.84951 0.53879 0.31755 0.0
O834 O 0.88461 0.53772 0.27233 0.0
O835 O 0.86284 0.56072 0.29501 0.0
O836 O 0.9249 0.51863 0.34389 0.0
O837 O 0.92788 0.51776 0.30546 0.0
O838 O 0.89344 0.48033 0.28218 0.0
O839 O 0.86951 0.46104 0.3059 0.0
O840 O 0.8202 0.4907 0.30321 0.0
O841 O 0.87787 0.54441 0.36648 0.0
O842 O 0.81879 0.52921 0.3032 0.0
O843 O 0.84547 0.55545 0.34806 0.0
C844 C 0.86397 0.47674 0.37059 0.0
C845 C 0.87426 0.557 0.27641 0.0
C846 C 0.8849 0.46142 0.29004 0.0
C847 C 0.93752 0.51902 0.32557 0.0
C848 C 0.80985 0.50965 0.29766 0.0
C849 C 0.85943 0.55677 0.36536 0.0
O850 O 0.84858 0.4753 0.35445 0.0
O851 O 0.53068 0.8857 0.37302 0.0
Zn852 Zn 0.50431 0.89373 0.35183 0.0
O853 O 0.50516 0.87237 0.32592 0.0
Zn854 Zn 0.50543 0.89043 0.29768 0.0
Zn855 Zn 0.53143 0.8515 0.32772 0.0
Zn856 Zn 0.47902 0.85177 0.32695 0.0
O857 O 0.47621 0.88322 0.27904 0.0
O858 O 0.45536 0.86431 0.30575 0.0
O859 O 0.50497 0.92857 0.34285 0.0
O860 O 0.50491 0.92577 0.30433 0.0
O861 O 0.53592 0.88442 0.28129 0.0
O862 O 0.55615 0.86618 0.30912 0.0
O863 O 0.52458 0.81947 0.31296 0.0
O864 O 0.47606 0.88683 0.37078 0.0
O865 O 0.48603 0.81973 0.31431 0.0
O866 O 0.46456 0.85179 0.35851 0.0
C867 C 0.5434 0.86767 0.37576 0.0
C868 C 0.45694 0.87477 0.28634 0.0
C869 C 0.55515 0.87718 0.28997 0.0
C870 C 0.50496 0.93828 0.32281 0.0
C871 C 0.50501 0.80969 0.3087 0.0
C872 C 0.46345 0.86868 0.37293 0.0
O873 O 0.54391 0.85118 0.36074 0.0
O874 O 0.13153 0.54837 0.36819 0.0
Zn875 Zn 0.12363 0.52038 0.34909 0.0
O876 O 0.14545 0.5187 0.32355 0.0
Zn877 Zn 0.12781 0.51598 0.29523 0.0
Zn878 Zn 0.16594 0.54506 0.32305 0.0
Zn879 Zn 0.16679 0.49315 0.32773 0.0
O880 O 0.13475 0.48449 0.28111 0.0
O881 O 0.15441 0.46686 0.30976 0.0
O882 O 0.08879 0.52048 0.33938 0.0
O883 O 0.09214 0.51729 0.30103 0.0
O884 O 0.13593 0.54334 0.27474 0.0
O885 O 0.15452 0.56695 0.29943 0.0
O886 O 0.19866 0.53747 0.31306 0.0
O887 O 0.13047 0.49397 0.37076 0.0
O888 O 0.19942 0.49908 0.31509 0.0
O889 O 0.1664 0.48282 0.36089 0.0
C890 C 0.14951 0.56139 0.36926 0.0
C891 C 0.14355 0.46629 0.29047 0.0
C892 C 0.14463 0.56321 0.27993 0.0
C893 C 0.07932 0.51904 0.3192 0.0
C894 C 0.20931 0.51827 0.31003 0.0
C895 C 0.14911 0.48249 0.37482 0.0
O896 O 0.16534 0.56086 0.35376 0.0
O897 O 0.46616 0.13678 0.37251 0.0
Zn898 Zn 0.49428 0.12732 0.35406 0.0
O899 O 0.49505 0.1451 0.32581 0.0
Zn900 Zn 0.49646 0.12274 0.30089 0.0
Zn901 Zn 0.46719 0.16374 0.3237 0.0
Zn902 Zn 0.5204 0.16723 0.32439 0.0
O903 O 0.51988 0.13375 0.27745 0.0
O904 O 0.54211 0.15679 0.29969 0.0
O905 O 0.49558 0.09177 0.34905 0.0
O906 O 0.50404 0.08921 0.31149 0.0
O907 O 0.46449 0.11917 0.28814 0.0
O908 O 0.44291 0.14448 0.30818 0.0
O909 O 0.47266 0.19373 0.30604 0.0
O910 O 0.52181 0.13684 0.37287 0.0
O911 O 0.51044 0.1993 0.31232 0.0
O912 O 0.53805 0.16724 0.35498 0.0
C913 C 0.45332 0.15496 0.37223 0.0
C914 C 0.53823 0.14593 0.28073 0.0
C915 C 0.44481 0.12743 0.2942 0.0
C916 C 0.50082 0.07943 0.33123 0.0
C917 C 0.49098 0.20615 0.30386 0.0
C918 C 0.53702 0.15298 0.37204 0.0
O919 O 0.45413 0.16951 0.35548 0.0
O920 O 0.6434 0.88108 0.53888 0.0
Zn921 Zn 0.66161 0.89381 0.5115 0.0
O922 O 0.69143 0.87801 0.51143 0.0
Zn923 Zn 0.71493 0.90093 0.51859 0.0
Zn924 Zn 0.69253 0.85173 0.53253 0.0
Zn925 Zn 0.69796 0.86532 0.48117 0.0
O926 O 0.73855 0.90091 0.49344 0.0
O927 O 0.71526 0.89011 0.46455 0.0
O928 O 0.66476 0.93009 0.51186 0.0
O929 O 0.70258 0.93452 0.51856 0.0
O930 O 0.72973 0.89279 0.54905 0.0
O931 O 0.7136 0.85897 0.55933 0.0
O932 O 0.70563 0.82234 0.51765 0.0
O933 O 0.64372 0.8836 0.48289 0.0
O934 O 0.71582 0.83489 0.48256 0.0
O935 O 0.66817 0.86017 0.46399 0.0
C936 C 0.64435 0.86159 0.54967 0.0
C937 C 0.73198 0.90249 0.4723 0.0
C938 C 0.72762 0.87569 0.56304 0.0
C939 C 0.68248 0.94339 0.51487 0.0
C940 C 0.71574 0.81903 0.49813 0.0
C941 C 0.64814 0.86945 0.46627 0.0
O942 O 0.66116 0.84732 0.54683 0.0
O943 O 0.64825 0.13793 0.46742 0.0
Zn944 Zn 0.66418 0.12981 0.49762 0.0
O945 O 0.69096 0.15024 0.50058 0.0
Zn946 Zn 0.71855 0.13161 0.50411 0.0
Zn947 Zn 0.69376 0.17191 0.47495 0.0
Zn948 Zn 0.68709 0.17003 0.52726 0.0
O949 O 0.73282 0.13842 0.53549 0.0
O950 O 0.70311 0.15535 0.55388 0.0
O951 O 0.67231 0.09449 0.50018 0.0
O952 O 0.71078 0.09643 0.5039 0.0
O953 O 0.74067 0.13888 0.47775 0.0
O954 O 0.71934 0.16153 0.4544 0.0
O955 O 0.70391 0.2044 0.48505 0.0
O956 O 0.64031 0.1388 0.52186 0.0
O957 O 0.70189 0.20154 0.52343 0.0
O958 O 0.65361 0.17265 0.53542 0.0
C959 C 0.64874 0.1558 0.45416 0.0
C960 C 0.723 0.14564 0.55407 0.0
C961 C 0.73779 0.15 0.45866 0.0
C962 C 0.69206 0.08433 0.50265 0.0
C963 C 0.70738 0.21299 0.50529 0.0
C964 C 0.63752 0.15746 0.53369 0.0
O965 O 0.66432 0.17154 0.45617 0.0
O966 O 0.87797 0.64659 0.48522 0.0
Zn967 Zn 0.88531 0.66974 0.51047 0.0
O968 O 0.86388 0.6954 0.50754 0.0
Zn969 Zn 0.88159 0.7236 0.50309 0.0
Zn970 Zn 0.84292 0.69026 0.48188 0.0
Zn971 Zn 0.84326 0.6973 0.53383 0.0
O972 O 0.8728 0.74685 0.52807 0.0
O973 O 0.85367 0.72382 0.55272 0.0
O974 O 0.9199 0.67939 0.51002 0.0
O975 O 0.91707 0.71769 0.50617 0.0
O976 O 0.87593 0.73506 0.4703 0.0
O977 O 0.85622 0.70552 0.45442 0.0
O978 O 0.81127 0.70534 0.48695 0.0
O979 O 0.87862 0.6534 0.54036 0.0
O980 O 0.81022 0.70592 0.52551 0.0
O981 O 0.84562 0.6688 0.55376 0.0
C982 C 0.85941 0.64239 0.47358 0.0
C983 C 0.8634 0.7431 0.54789 0.0
C984 C 0.86741 0.72445 0.45262 0.0
C985 C 0.92958 0.69938 0.50856 0.0
C986 C 0.80071 0.71014 0.50588 0.0
C987 C 0.86195 0.65377 0.555 0.0
O988 O 0.84222 0.65652 0.47334 0.0
O989 O 0.35712 0.87632 0.47263 0.0
Zn990 Zn 0.34171 0.88559 0.50206 0.0
O991 O 0.31503 0.86592 0.50612 0.0
Zn992 Zn 0.28811 0.88605 0.5087 0.0
Zn993 Zn 0.31195 0.84339 0.48111 0.0
Zn994 Zn 0.31944 0.84716 0.53356 0.0
O995 O 0.27371 0.88031 0.54002 0.0
O996 O 0.3026 0.8625 0.55916 0.0
O997 O 0.33455 0.92038 0.5026 0.0
O998 O 0.29635 0.92146 0.50788 0.0
O999 O 0.26637 0.8789 0.4818 0.0
O1000 O 0.28705 0.85435 0.45981 0.0
O1001 O 0.30094 0.81161 0.49243 0.0
O1002 O 0.36553 0.87882 0.52663 0.0
O1003 O 0.30539 0.81514 0.53061 0.0
O1004 O 0.35296 0.84612 0.54302 0.0
C1005 C 0.35698 0.858 0.46005 0.0
C1006 C 0.28312 0.87298 0.55883 0.0
C1007 C 0.26923 0.86713 0.46307 0.0
C1008 C 0.31581 0.93206 0.50537 0.0
C1009 C 0.29871 0.80341 0.51296 0.0
C1010 C 0.36863 0.86159 0.54024 0.0
O1011 O 0.34164 0.84211 0.46254 0.0
O1012 O 0.13632 0.37804 0.47496 0.0
Zn1013 Zn 0.12555 0.36132 0.50333 0.0
O1014 O 0.14355 0.33334 0.5058 0.0
Zn1015 Zn 0.12198 0.30778 0.50592 0.0
Zn1016 Zn 0.16535 0.33079 0.48062 0.0
Zn1017 Zn 0.16334 0.33399 0.53283 0.0
O1018 O 0.12813 0.2896 0.53518 0.0
O1019 O 0.14678 0.31613 0.55692 0.0
O1020 O 0.08979 0.35646 0.50323 0.0
O1021 O 0.08729 0.31817 0.50678 0.0
O1022 O 0.12562 0.28991 0.47579 0.0
O1023 O 0.14928 0.31333 0.45577 0.0
O1024 O 0.19483 0.31274 0.48956 0.0
O1025 O 0.13505 0.38278 0.52907 0.0
O1026 O 0.19395 0.31675 0.52794 0.0
O1027 O 0.16719 0.367 0.5443 0.0
C1028 C 0.15593 0.37848 0.4645 0.0
C1029 C 0.13575 0.29705 0.55478 0.0
C1030 C 0.13512 0.29638 0.45676 0.0
C1031 C 0.07737 0.33805 0.5051 0.0
C1032 C 0.20364 0.3087 0.50963 0.0
C1033 C 0.15293 0.38399 0.54232 0.0
O1034 O 0.17117 0.36249 0.46728 0.0
O1035 O 0.35536 0.12592 0.53815 0.0
Zn1036 Zn 0.33484 0.11744 0.51148 0.0
O1037 O 0.30911 0.13896 0.5115 0.0
Zn1038 Zn 0.28132 0.12048 0.51543 0.0
Zn1039 Zn 0.31237 0.16297 0.53507 0.0
Zn1040 Zn 0.30854 0.15581 0.48267 0.0
O1041 O 0.26237 0.12186 0.48604 0.0
O1042 O 0.28809 0.13776 0.4617 0.0
O1043 O 0.32591 0.08267 0.51208 0.0
O1044 O 0.28794 0.08529 0.51813 0.0
O1045 O 0.26508 0.13109 0.5448 0.0
O1046 O 0.29186 0.15419 0.56119 0.0
O1047 O 0.30027 0.19499 0.52403 0.0
O1048 O 0.35485 0.12365 0.48393 0.0
O1049 O 0.29513 0.18814 0.48631 0.0
O1050 O 0.3405 0.15608 0.46825 0.0
C1051 C 0.35904 0.14467 0.54955 0.0
C1052 C 0.26971 0.12601 0.46548 0.0
C1053 C 0.27283 0.14291 0.5621 0.0
C1054 C 0.3062 0.07286 0.51531 0.0
C1055 C 0.29316 0.20157 0.50393 0.0
C1056 C 0.35633 0.1405 0.4696 0.0
O1057 O 0.3452 0.16212 0.54844 0.0
O1058 O 0.88 0.37438 0.52923 0.0
Zn1059 Zn 0.88938 0.35389 0.50218 0.0
O1060 O 0.86972 0.32626 0.50333 0.0
Zn1061 Zn 0.88923 0.29924 0.50763 0.0
Zn1062 Zn 0.84619 0.32869 0.52746 0.0
Zn1063 Zn 0.85181 0.32305 0.47531 0.0
O1064 O 0.88495 0.27688 0.48071 0.0
O1065 O 0.86695 0.30001 0.45522 0.0
O1066 O 0.92511 0.34641 0.50319 0.0
O1067 O 0.92404 0.3081 0.50793 0.0
O1068 O 0.88155 0.28484 0.53864 0.0
O1069 O 0.85677 0.31021 0.55459 0.0
O1070 O 0.81438 0.31525 0.51828 0.0
O1071 O 0.88064 0.37251 0.47338 0.0
O1072 O 0.81946 0.31104 0.48033 0.0
O1073 O 0.85077 0.35277 0.45824 0.0
C1074 C 0.86096 0.37654 0.54057 0.0
C1075 C 0.87774 0.28133 0.46012 0.0
C1076 C 0.8696 0.29223 0.55588 0.0
C1077 C 0.93574 0.32694 0.5058 0.0
C1078 C 0.80685 0.30873 0.49836 0.0
C1079 C 0.86405 0.37048 0.45856 0.0
O1080 O 0.84467 0.36147 0.53909 0.0
O1081 O 0.1245 0.64837 0.552 0.0
Zn1082 Zn 0.11714 0.66398 0.52193 0.0
O1083 O 0.13655 0.69117 0.51942 0.0
Zn1084 Zn 0.11615 0.71794 0.52057 0.0
Zn1085 Zn 0.16028 0.69072 0.54374 0.0
Zn1086 Zn 0.15382 0.69128 0.4911 0.0
O1087 O 0.12275 0.73887 0.49331 0.0
O1088 O 0.13862 0.71293 0.46914 0.0
O1089 O 0.08231 0.67081 0.52024 0.0
O1090 O 0.08088 0.7093 0.51876 0.0
O1091 O 0.12194 0.73345 0.55125 0.0
O1092 O 0.14952 0.712 0.56847 0.0
O1093 O 0.19208 0.70273 0.53315 0.0
O1094 O 0.12527 0.64164 0.49647 0.0
O1095 O 0.18655 0.70315 0.49495 0.0
O1096 O 0.15347 0.65981 0.47713 0.0
C1097 C 0.14324 0.64662 0.56387 0.0
C1098 C 0.12925 0.73263 0.47299 0.0
C1099 C 0.13492 0.7286 0.5687 0.0
C1100 C 0.07047 0.68959 0.51893 0.0
C1101 C 0.1994 0.70716 0.51264 0.0
C1102 C 0.1406 0.64208 0.48046 0.0
O1103 O 0.16096 0.65946 0.55986 0.0
H1104 H 0.99566 0.22128 0.53645 0.0
H1105 H 0.00669 0.14732 0.54437 0.0
H1106 H 0.00707 0.14256 0.50207 0.0
H1107 H 0.00475 0.15924 0.46218 0.0
H1108 H 0.99425 0.2333 0.45443 0.0
H1109 H 0.99313 0.23791 0.49668 0.0
C1110 C 0.99814 0.20408 0.529 0.0
C1111 C 0.00116 0.18473 0.544 0.0
C1112 C 0.99842 0.20137 0.50435 0.0
C1113 C 0.00435 0.16265 0.53362 0.0
C1114 C 0.00455 0.15985 0.50925 0.0
C1115 C 0.00209 0.17639 0.46968 0.0
C1116 C -0.00041 0.19584 0.45472 0.0
C1117 C 0.00164 0.17906 0.49435 0.0
C1118 C 0.99629 0.2179 0.46514 0.0
C1119 C 0.99565 0.22062 0.48949 0.0
H1120 H 0.85135 0.01703 0.54516 0.0
H1121 H 0.78231 0.98722 0.54692 0.0
H1122 H 0.78221 0.98407 0.50442 0.0
H1123 H 0.80149 0.99056 0.46596 0.0
H1124 H 0.86969 0.02214 0.46466 0.0
H1125 H 0.87035 0.02359 0.50719 0.0
C1126 C 0.83626 0.00978 0.53632 0.0
C1127 C 0.81688 0.00237 0.54959 0.0
C1128 C 0.83617 0.00826 0.51162 0.0
C1129 C 0.79751 0.99315 0.53746 0.0
C1130 C 0.79744 0.9913 0.51299 0.0
C1131 C 0.81657 0.99754 0.475 0.0
C1132 C 0.83556 0.0061 0.46184 0.0
C1133 C 0.81665 -0.00116 0.49978 0.0
C1134 C 0.8548 0.01539 0.47407 0.0
C1135 C 0.85519 0.01628 0.49853 0.0
H1136 H 0.00368 0.85444 0.5483 0.0
H1137 H 0.98262 0.78242 0.55309 0.0
H1138 H 0.98155 0.77959 0.51069 0.0
H1139 H 0.98787 0.79662 0.47163 0.0
H1140 H 0.00872 0.8686 0.4663 0.0
H1141 H 0.00909 0.87194 0.50884 0.0
C1142 C -0.00107 0.83806 0.54013 0.0
C1143 C 0.99337 0.81865 0.55438 0.0
C1144 C -0.00131 0.83629 0.5153 0.0
C1145 C 0.98723 0.79768 0.54303 0.0
C1146 C 0.9867 0.79595 0.51857 0.0
C1147 C 0.99254 0.81308 0.47967 0.0
C1148 C 0.99835 0.83229 0.46531 0.0
C1149 C 0.99262 0.815 0.50444 0.0
C1150 C 0.00419 0.85342 0.47652 0.0
C1151 C 0.00441 0.85538 0.50104 0.0
H1152 H 0.20805 0.02978 0.54009 0.0
H1153 H 0.14232 0.99411 0.54854 0.0
H1154 H 0.13715 0.99258 0.50646 0.0
H1155 H 0.15095 0.00078 0.46693 0.0
H1156 H 0.21533 0.03823 0.45725 0.0
H1157 H 0.22121 0.03971 0.49965 0.0
C1158 C 0.19261 0.02168 0.53272 0.0
C1159 C 0.17563 0.01203 0.54779 0.0
C1160 C 0.1894 0.02121 0.50809 0.0
C1161 C 0.15568 0.00179 0.53767 0.0
C1162 C 0.15267 0.00085 0.51346 0.0
C1163 C 0.16625 0.00939 0.47402 0.0
C1164 C 0.18268 0.0193 0.45867 0.0
C1165 C 0.16935 0.01047 0.49847 0.0
C1166 C 0.2023 0.0305 0.46845 0.0
C1167 C 0.20572 0.03128 0.4928 0.0
H1168 H 0.53487 0.99259 0.21173 0.0
H1169 H 0.53986 0.04303 0.15632 0.0
H1170 H 0.4973 0.04464 0.15342 0.0
H1171 H 0.45822 0.03155 0.16638 0.0
H1172 H 0.45322 0.98351 0.22394 0.0
H1173 H 0.49575 0.98132 0.22631 0.0
C1174 C 0.52665 0.0039 0.19899 0.0
C1175 C 0.54075 0.01752 0.18412 0.0
C1176 C 0.50195 0.00524 0.19782 0.0
C1177 C 0.52961 0.03234 0.16799 0.0
C1178 C 0.50518 0.03325 0.16629 0.0
C1179 C 0.46641 0.02061 0.17946 0.0
C1180 C 0.45228 0.00762 0.19486 0.0
C1181 C 0.4911 0.01976 0.18107 0.0
C1182 C 0.46344 0.99377 0.21185 0.0
C1183 C 0.48787 0.99242 0.21318 0.0
H1184 H 0.00483 0.54981 0.21424 0.0
H1185 H 0.01092 0.5562 0.13953 0.0
H1186 H 0.01185 0.51381 0.13569 0.0
H1187 H 0.01133 0.47428 0.15345 0.0
H1188 H 0.00614 0.46823 0.2283 0.0
H1189 H 0.00439 0.51052 0.23191 0.0
C1190 C 0.0063 0.54201 0.19707 0.0
C1191 C 0.00775 0.5566 0.17722 0.0
C1192 C 0.00702 0.51734 0.19492 0.0
C1193 C 0.00977 0.54576 0.15521 0.0
C1194 C 0.01031 0.52135 0.15296 0.0
C1195 C 0.00976 0.48216 0.17057 0.0
C1196 C 0.00887 0.46765 0.19054 0.0
C1197 C 0.00899 0.50686 0.17268 0.0
C1198 C 0.00694 0.47857 0.21253 0.0
C1199 C 0.00594 0.50293 0.21467 0.0
H1200 H 0.54003 0.01107 0.78417 0.0
H1201 H 0.54611 0.00782 0.85918 0.0
H1202 H 0.50379 0.00607 0.86266 0.0
H1203 H 0.46452 0.00504 0.8447 0.0
H1204 H 0.45818 0.00759 0.76973 0.0
H1205 H 0.50053 0.01026 0.76618 0.0
C1206 C 0.53215 0.01005 0.8013 0.0
C1207 C 0.54665 0.0096 0.82136 0.0
C1208 C 0.50746 0.00887 0.80328 0.0
C1209 C 0.53575 0.00817 0.84335 0.0
C1210 C 0.51138 0.00716 0.8454 0.0
C1211 C 0.47235 0.00614 0.82755 0.0
C1212 C 0.45783 0.00597 0.80754 0.0
C1213 C 0.49699 0.00741 0.82553 0.0
C1214 C 0.46862 0.00743 0.78551 0.0
C1215 C 0.493 0.00898 0.78343 0.0
H1216 H 0.00343 0.54178 0.79637 0.0
H1217 H 0.00903 0.54552 0.8714 0.0
H1218 H 0.01323 0.50317 0.87329 0.0
H1219 H 0.01527 0.46464 0.85377 0.0
H1220 H 0.00905 0.46104 0.77878 0.0
H1221 H 0.00522 0.50336 0.77691 0.0
C1222 C 0.00547 0.53341 0.8132 0.0
C1223 C 0.0058 0.54718 0.83374 0.0
C1224 C 0.00788 0.50884 0.81421 0.0
C1225 C 0.00861 0.53567 0.85527 0.0
C1226 C 0.01107 0.51132 0.85638 0.0
C1227 C 0.01319 0.47306 0.83697 0.0
C1228 C 0.01255 0.45931 0.81643 0.0
C1229 C 0.01077 0.49766 0.83598 0.0
C1230 C 0.00965 0.47086 0.79492 0.0
C1231 C 0.00743 0.49521 0.79382 0.0
H1232 H 0.22892 0.54333 0.00789 0.0
H1233 H 0.15393 0.5496 0.00486 0.0
H1234 H 0.1502 0.50728 0.00383 0.0
H1235 H 0.16799 0.46793 0.0038 0.0
H1236 H 0.243 0.46167 0.00615 0.0
H1237 H 0.24675 0.50397 0.00742 0.0
C1238 C 0.21173 0.5355 0.007 0.0
C1239 C 0.19176 0.55003 0.00648 0.0
C1240 C 0.20962 0.51086 0.00629 0.0
C1241 C 0.1697 0.5392 0.00526 0.0
C1242 C 0.16751 0.51483 0.00469 0.0
C1243 C 0.18518 0.47576 0.00462 0.0
C1244 C 0.20514 0.46124 0.00491 0.0
C1245 C 0.18731 0.5004 0.00521 0.0
C1246 C 0.22722 0.47206 0.00588 0.0
C1247 C 0.22943 0.49643 0.00662 0.0
H1248 H 0.55103 0.15606 0.00338 0.0
H1249 H 0.55612 0.22966 0.01814 0.0
H1250 H 0.51368 0.23264 0.01885 0.0
H1251 H 0.47454 0.21519 0.01389 0.0
H1252 H 0.46909 0.14152 -4e-05 0.0
H1253 H 0.51157 0.13815 -0.00014 0.0
C1254 C 0.54295 0.17282 0.00667 0.0
C1255 C 0.55729 0.19259 0.01056 0.0
C1256 C 0.51813 0.17463 0.00686 0.0
C1257 C 0.546 0.21405 0.01489 0.0
C1258 C 0.52154 0.21588 0.0152 0.0
C1259 C 0.48256 0.19835 0.01083 0.0
C1260 C 0.46816 0.17868 0.00685 0.0
C1261 C 0.50733 0.1964 0.01098 0.0
C1262 C 0.47933 0.15707 0.00309 0.0
C1263 C 0.50382 0.15509 0.003 0.0
H1264 H 0.84932 0.54494 0.00357 0.0
H1265 H 0.77419 0.54749 3e-05 0.0
H1266 H 0.77263 0.50493 0.99852 0.0
H1267 H 0.79258 0.46631 0.9983 0.0
H1268 H 0.86782 0.46429 0.00103 0.0
H1269 H 0.86915 0.50667 0.00269 0.0
C1270 C 0.83255 0.53627 0.00248 0.0
C1271 C 0.81191 0.54984 0.00198 0.0
C1272 C 0.83173 0.51153 0.00144 0.0
C1273 C 0.79045 0.53788 0.00045 0.0
C1274 C 0.78952 0.51336 -0.00041 0.0
C1275 C 0.8093 0.47508 -0.00076 0.0
C1276 C 0.83007 0.46163 -0.00046 0.0
C1277 C 0.81004 0.49989 8e-05 0.0
C1278 C 0.85147 0.47374 0.00071 0.0
C1279 C 0.85229 0.49819 0.0017 0.0
H1280 H 0.54814 0.80414 0.00471 0.0
H1281 H 0.55359 0.87884 0.01114 0.0
H1282 H 0.5111 0.88227 0.00995 0.0
H1283 H 0.47171 0.86407 0.00732 0.0
H1284 H 0.46697 0.7892 0.00133 0.0
H1285 H 0.50924 0.78608 0.0021 0.0
C1286 C 0.54012 0.82121 0.00585 0.0
C1287 C 0.55442 0.84116 0.00802 0.0
C1288 C 0.51546 0.82313 0.00522 0.0
C1289 C 0.54333 0.86308 0.00948 0.0
C1290 C 0.51888 0.86509 0.00878 0.0
C1291 C 0.47989 0.84707 0.0061 0.0
C1292 C 0.46573 0.82695 0.00426 0.0
C1293 C 0.50465 0.84525 0.00667 0.0
C1294 C 0.47702 0.80512 0.00281 0.0
C1295 C 0.50139 0.80324 0.00324 0.0
H1296 H 0.51131 0.71506 0.97095 0.0
H1297 H 0.50839 0.64011 0.96581 0.0
H1298 H 0.50852 0.63704 0.0083 0.0
H1299 H 0.50972 0.65548 0.04758 0.0
H1300 H 0.51223 0.7305 0.05242 0.0
H1301 H 0.51198 0.73346 0.01004 0.0
C1302 C 0.51067 0.69801 0.97905 0.0
C1303 C 0.50985 0.67787 0.96477 0.0
C1304 C 0.5107 0.69629 0.00378 0.0
C1305 C 0.50901 0.65601 0.97599 0.0
C1306 C 0.5091 0.6542 0.00047 0.0
C1307 C 0.51021 0.6725 0.03943 0.0
C1308 C 0.51102 0.6927 0.05364 0.0
C1309 C 0.50999 0.67419 0.01465 0.0
C1310 C 0.51159 0.71453 0.04234 0.0
C1311 C 0.51146 0.7163 0.0179 0.0
H1312 H 0.35945 0.52251 0.97959 0.0
H1313 H 0.29989 0.47736 0.97105 0.0
H1314 H 0.29327 0.4779 0.01313 0.0
H1315 H 0.30476 0.49055 0.05286 0.0
H1316 H 0.36592 0.53345 0.06166 0.0
H1317 H 0.37145 0.53443 0.0194 0.0
C1318 C 0.34501 0.5128 0.98692 0.0
C1319 C 0.33023 0.49991 0.97197 0.0
C1320 C 0.34156 0.51276 0.01138 0.0
C1321 C 0.3117 0.48732 0.98198 0.0
C1322 C 0.30784 0.48767 0.00614 0.0
C1323 C 0.31921 0.50025 0.04553 0.0
C1324 C 0.33481 0.51204 0.0606 0.0
C1325 C 0.32269 0.50025 0.02108 0.0
C1326 C 0.35362 0.5242 0.05064 0.0
C1327 C 0.35682 0.52478 0.02639 0.0
H1328 H 0.50065 0.34173 0.96347 0.0
H1329 H 0.52452 0.27064 0.9582 0.0
H1330 H 0.5248 0.26745 0.00068 0.0
H1331 H 0.51729 0.28429 0.04004 0.0
H1332 H 0.49312 0.35538 0.04492 0.0
H1333 H 0.49349 0.35868 0.00255 0.0
C1334 C 0.50584 0.32545 0.97155 0.0
C1335 C 0.51249 0.30645 0.95724 0.0
C1336 C 0.50558 0.32351 0.99628 0.0
C1337 C 0.51911 0.28558 0.96841 0.0
C1338 C 0.5192 0.28367 0.99289 0.0
C1339 C 0.51205 0.30052 0.0319 0.0
C1340 C 0.50514 0.31953 0.04614 0.0
C1341 C 0.51231 0.30243 0.00712 0.0
C1342 C 0.49852 0.34035 0.03484 0.0
C1343 C 0.49873 0.34231 0.01041 0.0
H1344 H 0.66264 0.51476 0.96271 0.0
H1345 H 0.72112 0.46829 0.95446 0.0
H1346 H 0.72543 0.4656 0.99688 0.0
H1347 H 0.71247 0.4762 0.03697 0.0
H1348 H 0.65144 0.51931 0.04511 0.0
H1349 H 0.64824 0.52341 0.00274 0.0
C1350 C 0.67632 0.50404 0.97019 0.0
C1351 C 0.69161 0.49185 0.95514 0.0
C1352 C 0.67823 0.50189 0.99487 0.0
C1353 C 0.70903 0.47783 0.96539 0.0
C1354 C 0.71155 0.47631 0.98978 0.0
C1355 C 0.69848 0.48651 0.02949 0.0
C1356 C 0.6823 0.49754 0.04452 0.0
C1357 C 0.69625 0.48821 0.00479 0.0
C1358 C 0.66413 0.51055 0.03423 0.0
C1359 C 0.66231 0.51296 0.00986 0.0
H1360 H 0.98023 0.49623 0.66398 0.0
H1361 H 0.97368 0.52125 0.73464 0.0
H1362 H 0.0162 0.52438 0.7378 0.0
H1363 H 0.05586 0.51957 0.72054 0.0
H1364 H 0.0619 0.49185 0.6509 0.0
H1365 H 0.01946 0.49025 0.64737 0.0
C1366 C 0.98803 0.50238 0.68011 0.0
C1367 C 0.97346 0.50858 0.69899 0.0
C1368 C 0.01267 0.50369 0.682 0.0
C1369 C 0.98421 0.51627 0.71978 0.0
C1370 C 0.00864 0.51812 0.7216 0.0
C1371 C 0.04785 0.51341 0.70453 0.0
C1372 C 0.06227 0.5061 0.68591 0.0
C1373 C 0.02314 0.51189 0.70282 0.0
C1374 C 0.05144 0.49764 0.66551 0.0
C1375 C 0.02706 0.49671 0.66346 0.0
H1376 H 0.49333 0.95975 0.655 0.0
H1377 H 0.51253 0.9549 0.7277 0.0
H1378 H 0.51675 0.99714 0.72969 0.0
H1379 H 0.51452 0.03605 0.71126 0.0
H1380 H 0.49469 0.04118 0.63876 0.0
H1381 H 0.49099 -0.00118 0.6365 0.0
C1382 C 0.49836 0.96788 0.67134 0.0
C1383 C 0.50252 0.95375 0.69118 0.0
C1384 C 0.5005 0.99255 0.67254 0.0
C1385 C 0.50901 0.96498 0.71212 0.0
C1386 C 0.51143 0.98931 0.71332 0.0
C1387 C 0.50941 0.02799 0.69491 0.0
C1388 C 0.50496 0.0422 0.67519 0.0
C1389 C 0.50716 0.00336 0.6937 0.0
C1390 C 0.49827 0.03104 0.65428 0.0
C1391 C 0.49613 0.00665 0.65295 0.0
H1392 H 0.97122 0.51706 0.291 0.0
H1393 H 0.96352 0.52345 0.36562 0.0
H1394 H 0.00583 0.52416 0.3703 0.0
H1395 H 0.04558 0.52249 0.35351 0.0
H1396 H 0.05334 0.51597 0.27892 0.0
H1397 H 0.01101 0.51582 0.27419 0.0
C1398 C 0.97872 0.51871 0.30831 0.0
C1399 C 0.96378 0.52022 0.3279 0.0
C1400 C 0.00339 0.51903 0.31099 0.0
C1401 C 0.97423 0.52226 0.35013 0.0
C1402 C -0.0014 0.52265 0.35287 0.0
C1403 C 0.03809 0.52106 0.33617 0.0
C1404 C 0.05306 0.51923 0.31664 0.0
C1405 C 0.01344 0.52096 0.33347 0.0
C1406 C 0.04263 0.5174 0.29438 0.0
C1407 C 0.01825 0.51731 0.29161 0.0
H1408 H 0.50509 0.04637 0.2964 0.0
H1409 H 0.4997 0.05318 0.37118 0.0
H1410 H 0.50076 0.01086 0.37528 0.0
H1411 H 0.50262 0.97143 0.35779 0.0
H1412 H 0.50734 0.96462 0.28294 0.0
H1413 H 0.50711 0.00693 0.2789 0.0
C1414 C 0.50427 0.03866 0.31364 0.0
C1415 C 0.50237 0.0533 0.33344 0.0
C1416 C 0.50468 0.01405 0.31593 0.0
C1417 C 0.50118 0.04265 0.35556 0.0
C1418 C 0.50176 0.01831 0.35795 0.0
C1419 C 0.50364 0.97913 0.34057 0.0
C1420 C 0.50499 0.96448 0.32073 0.0
C1421 C 0.50341 0.00375 0.33828 0.0
C1422 C 0.50625 0.97513 0.29861 0.0
C1423 C 0.50614 -0.00051 0.29624 0.0
H1424 H 0.71725 0.97648 0.51387 0.0
H1425 H 0.64234 0.96971 0.51099 0.0
H1426 H 0.63851 0.01199 0.50675 0.0
H1427 H 0.65642 0.05143 0.50374 0.0
H1428 H 0.73145 0.05752 0.50645 0.0
H1429 H 0.73503 0.01545 0.51073 0.0
C1430 C 0.70001 0.98416 0.51247 0.0
C1431 C 0.6801 0.96956 0.51295 0.0
C1432 C 0.6979 0.00865 0.50986 0.0
C1433 C 0.65803 0.98021 0.5108 0.0
C1434 C 0.65582 0.00453 0.50832 0.0
C1435 C 0.67358 0.04361 0.50521 0.0
C1436 C 0.69362 0.05808 0.50472 0.0
C1437 C 0.67562 0.01902 0.50778 0.0
C1438 C 0.71563 0.04723 0.50673 0.0
C1439 C 0.71774 0.02299 0.50923 0.0
H1440 H 0.03807 0.7249 0.51229 0.0
H1441 H 0.04335 0.65056 0.52243 0.0
H1442 H 0.00108 0.64699 0.52012 0.0
H1443 H 0.96214 0.66465 0.51519 0.0
H1444 H 0.95648 0.73891 0.50481 0.0
H1445 H -0.00103 0.74251 0.50702 0.0
C1446 C 0.03002 0.7079 0.51403 0.0
C1447 C 0.04426 0.68806 0.51757 0.0
C1448 C 0.00537 0.70585 0.51259 0.0
C1449 C 0.03318 0.66623 0.51968 0.0
C1450 C 0.00884 0.66412 0.51836 0.0
C1451 C 0.9701 0.68169 0.51342 0.0
C1452 C 0.95577 0.70145 0.50984 0.0
C1453 C 0.9947 0.68377 0.5148 0.0
C1454 C 0.96676 0.72331 0.50761 0.0
C1455 C 0.99116 0.72546 0.50892 0.0
H1456 H 0.28056 0.96442 0.51315 0.0
H1457 H 0.35448 0.95929 0.49976 0.0
H1458 H 0.35809 0.00147 0.50202 0.0
H1459 H 0.34071 0.04029 0.50784 0.0
H1460 H 0.26684 0.04604 0.5209 0.0
H1461 H 0.26297 0.00369 0.51874 0.0
C1462 C 0.29746 0.97249 0.51065 0.0
C1463 C 0.31719 0.95829 0.50626 0.0
C1464 C 0.29955 0.99713 0.512 0.0
C1465 C 0.3389 0.96941 0.50315 0.0
C1466 C 0.34105 0.9937 0.50447 0.0
C1467 C 0.32374 0.03236 0.51034 0.0
C1468 C 0.30416 0.04668 0.5147 0.0
C1469 C 0.32155 0.0078 0.50894 0.0
C1470 C 0.28234 0.03574 0.51768 0.0
C1471 C 0.28006 0.01137 0.51638 0.0
H1472 H 0.04464 0.30286 0.50867 0.0
H1473 H 0.05023 0.37746 0.50147 0.0
H1474 H 0.00773 0.38084 0.50108 0.0
H1475 H 0.96835 0.36271 0.50261 0.0
H1476 H 0.96317 0.28803 0.50984 0.0
H1477 H 0.00553 0.28482 0.51035 0.0
C1478 C 0.03665 0.3199 0.50703 0.0
C1479 C 0.05104 0.33985 0.5051 0.0
C1480 C 0.01194 0.3218 0.5068 0.0
C1481 C 0.03995 0.36171 0.50299 0.0
C1482 C 0.01548 0.36369 0.50276 0.0
C1483 C 0.97643 0.34571 0.50431 0.0
C1484 C 0.96212 0.32568 0.50619 0.0
C1485 C 0.00119 0.34387 0.50462 0.0
C1486 C 0.97332 0.30387 0.50838 0.0
C1487 C 0.99774 0.30195 0.50867 0.0
H1488 H 0.04524 0.23352 0.27908 0.0
H1489 H 0.97076 0.22321 0.27423 0.0
H1490 H 0.96838 0.2518 0.24302 0.0
H1491 H 0.98652 0.28273 0.21992 0.0
H1492 H 0.06086 0.29373 0.22458 0.0
H1493 H 0.06415 0.26182 0.2526 0.0
C1494 C 0.02856 0.23718 0.2709 0.0
C1495 C 0.00819 0.22628 0.27932 0.0
C1496 C 0.02719 0.254 0.25296 0.0
C1497 C 0.98674 0.23137 0.26839 0.0
C1498 C 0.98531 0.24782 0.2505 0.0
C1499 C 0.00353 0.27797 0.22676 0.0
C1500 C 0.02335 0.29089 0.22021 0.0
C1501 C 0.00529 0.25973 0.24309 0.0
C1502 C 0.04524 0.28421 0.22923 0.0
C1503 C 0.04714 0.26599 0.24541 0.0
H1504 H 0.79286 0.03105 0.26805 0.0
H1505 H 0.7522 0.003 0.32475 0.0
H1506 H 0.71924 0.99712 0.29885 0.0
H1507 H 0.7005 0.00253 0.26153 0.0
H1508 H 0.73857 0.03087 0.2035 0.0
H1509 H 0.77387 0.03373 0.22814 0.0
C1510 C 0.77687 0.02339 0.27453 0.0
C1511 C 0.77497 0.01777 0.29849 0.0
C1512 C 0.75741 0.02023 0.25934 0.0
C1513 C 0.75408 0.00784 0.30657 0.0
C1514 C 0.73516 0.0044 0.29175 0.0
C1515 C 0.71654 0.00923 0.2541 0.0
C1516 C 0.71675 0.01674 0.23076 0.0
C1517 C 0.73641 0.01101 0.26833 0.0
C1518 C 0.73787 0.02494 0.22141 0.0
C1519 C 0.75802 0.02671 0.23559 0.0
H1520 H 0.97035 0.7873 0.28068 0.0
H1521 H 0.04496 0.79031 0.2909 0.0
H1522 H 0.05068 0.76286 0.25906 0.0
H1523 H 0.03469 0.73536 0.23023 0.0
H1524 H 0.96019 0.73194 0.21968 0.0
H1525 H 0.95447 0.76206 0.24924 0.0
C1526 C 0.98788 0.78226 0.27572 0.0
C1527 C 0.00713 0.79092 0.28851 0.0
C1528 C 0.99117 0.76611 0.25728 0.0
C1529 C 0.0297 0.78397 0.28167 0.0
C1530 C 0.03306 0.76815 0.26338 0.0
C1531 C 0.01719 0.74139 0.23411 0.0
C1532 C 0.99795 0.73111 0.22264 0.0
C1533 C 0.01394 0.7587 0.25136 0.0
C1534 C 0.97543 0.73936 0.22808 0.0
C1535 C 0.97209 0.75661 0.24513 0.0
H1536 H 0.26233 0.01935 0.21927 0.0
H1537 H 0.29428 0.9526 0.23284 0.0
H1538 H 0.26774 0.94623 0.26537 0.0
H1539 H 0.2381 0.96137 0.29267 0.0
H1540 H 0.20406 0.02665 0.27765 0.0
H1541 H 0.22851 0.03174 0.24309 0.0
C1542 C 0.26316 0.0032 0.22904 0.0
C1543 C 0.28047 0.98659 0.22361 0.0
C1544 C 0.24759 -0.00053 0.24772 0.0
C1545 C 0.28114 0.96569 0.23644 0.0
C1546 C 0.26605 0.96208 0.25525 0.0
C1547 C 0.23581 0.97652 0.2816 0.0
C1548 C 0.21942 0.99371 0.28785 0.0
C1549 C 0.24964 0.97912 0.26146 0.0
C1550 C 0.21648 0.01313 0.27321 0.0
C1551 C 0.23057 0.01612 0.25349 0.0
H1552 H 0.97922 0.72856 0.79246 0.0
H1553 H 0.053 0.71696 0.78279 0.0
H1554 H 0.05433 0.74884 0.75463 0.0
H1555 H 0.03392 0.7775 0.73007 0.0
H1556 H 0.95981 0.78787 0.73855 0.0
H1557 H 0.95939 0.7592 0.77001 0.0
C1558 C 0.99571 0.73314 0.78447 0.0
C1559 C 0.01597 0.72013 0.78974 0.0
C1560 C 0.99628 0.75126 0.76793 0.0
C1561 C 0.0371 0.7265 0.77911 0.0
C1562 C 0.03787 0.74474 0.76291 0.0
C1563 C 0.0177 0.77384 0.73903 0.0
C1564 C 0.99689 0.78487 0.73176 0.0
C1565 C 0.01747 0.75689 0.7568 0.0
C1566 C 0.97609 0.7797 0.74364 0.0
C1567 C 0.97581 0.7632 0.76161 0.0
H1568 H 0.2747 0.97179 0.77784 0.0
H1569 H 0.27772 0.04661 0.78504 0.0
H1570 H 0.24431 0.0508 0.75908 0.0
H1571 H 0.21712 0.03375 0.73063 0.0
H1572 H 0.21424 0.95901 0.72262 0.0
H1573 H 0.24416 0.95441 0.75262 0.0
C1574 C 0.26774 0.98897 0.77414 0.0
C1575 C 0.27902 0.00883 0.78327 0.0
C1576 C 0.24854 0.99138 0.75875 0.0
C1577 C 0.26967 0.03096 0.77813 0.0
C1578 C 0.25051 0.03343 0.7632 0.0
C1579 C 0.22265 0.01641 0.73574 0.0
C1580 C 0.21346 0.99682 0.72405 0.0
C1581 C 0.24023 0.01383 0.75282 0.0
C1582 C 0.22098 0.9745 0.73109 0.0
C1583 C 0.23824 0.97181 0.74825 0.0
H1584 H 0.0386 0.27527 0.78277 0.0
H1585 H 0.96447 0.28718 0.78817 0.0
H1586 H 0.95718 0.25732 0.75866 0.0
H1587 H 0.97217 0.231 0.72776 0.0
H1588 H 0.04646 0.21968 0.72274 0.0
H1589 H 0.05315 0.24573 0.75554 0.0
C1590 C 0.02081 0.27108 0.77784 0.0
C1591 C 0.0022 0.28377 0.78763 0.0
C1592 C 0.01668 0.25403 0.7606 0.0
C1593 C 0.97924 0.27785 0.78099 0.0
C1594 C 0.97502 0.2608 0.76395 0.0
C1595 C 0.98976 0.23385 0.73415 0.0
C1596 C 0.00875 0.22353 0.72244 0.0
C1597 C 0.99364 0.24923 0.75309 0.0
C1598 C 0.03145 0.22753 0.73109 0.0
C1599 C 0.03537 0.24251 0.74992 0.0
H1600 H 0.78303 0.97767 0.73212 0.0
H1601 H 0.79016 0.05247 0.72936 0.0
H1602 H 0.76202 0.05675 0.76085 0.0
H1603 H 0.73124 0.03961 0.78534 0.0
H1604 H 0.72355 0.96482 0.78735 0.0
H1605 H 0.75601 0.96032 0.76045 0.0
C1606 C 0.77891 0.99488 0.7388 0.0
C1607 C 0.78856 0.01469 0.7281 0.0
C1608 C 0.76223 0.99731 0.75668 0.0
C1609 C 0.78287 0.03686 0.73704 0.0
C1610 C 0.76666 0.03937 0.75505 0.0
C1611 C 0.73698 0.02231 0.78031 0.0
C1612 C 0.72463 0.00265 0.78817 0.0
C1613 C 0.75555 0.01977 0.76441 0.0
C1614 C 0.73245 0.98035 0.78141 0.0
C1615 C 0.75106 0.97771 0.76594 0.0
H1616 H 0.28517 0.22215 0.03187 0.0
H1617 H 0.29248 0.21992 0.95697 0.0
H1618 H 0.2622 0.24953 0.95282 0.0
H1619 H 0.23655 0.27924 0.97061 0.0
H1620 H 0.22983 0.28159 0.04558 0.0
H1621 H 0.25657 0.24883 0.04936 0.0
C1622 C 0.2799 0.2278 0.01459 0.0
C1623 C 0.2914 0.21882 0.99481 0.0
C1624 C 0.26259 0.24515 0.01228 0.0
C1625 C 0.28413 0.22647 0.97258 0.0
C1626 C 0.26681 0.24355 0.97016 0.0
C1627 C 0.24056 0.27232 0.98775 0.0
C1628 C 0.23124 0.28319 0.00776 0.0
C1629 C 0.25633 0.25349 0.98991 0.0
C1630 C 0.23678 0.27385 0.02982 0.0
C1631 C 0.25218 0.25506 0.03205 0.0
H1632 H 0.28743 0.78392 0.03823 0.0
H1633 H 0.28907 0.78913 0.96307 0.0
H1634 H 0.25718 0.76136 0.95998 0.0
H1635 H 0.23168 0.73243 0.97815 0.0
H1636 H 0.22996 0.72659 0.05321 0.0
H1637 H 0.25857 0.75791 0.05667 0.0
C1638 C 0.28058 0.77929 0.02119 0.0
C1639 C 0.29099 0.78848 0.00093 0.0
C1640 C 0.26222 0.76301 0.01943 0.0
C1641 C 0.28169 0.78226 0.97901 0.0
C1642 C 0.26339 0.76629 0.97717 0.0
C1643 C 0.23723 0.73823 0.99531 0.0
C1644 C 0.22878 0.72688 0.01534 0.0
C1645 C 0.25396 0.75606 0.99721 0.0
C1646 C 0.23614 0.73487 0.03742 0.0
C1647 C 0.25265 0.75274 0.03944 0.0
H1648 H 0.79381 0.28234 0.03672 0.0
H1649 H 0.80125 0.28124 0.96178 0.0
H1650 H 0.77213 0.25053 0.95887 0.0
H1651 H 0.74153 0.22674 0.97699 0.0
H1652 H 0.7338 0.22765 0.05187 0.0
H1653 H 0.76599 0.25524 0.05527 0.0
C1654 C 0.78942 0.27508 0.01979 0.0
C1655 C 0.79968 0.28441 -0.00049 0.0
C1656 C 0.77231 0.25742 0.01812 0.0
C1657 C 0.79363 0.27466 0.97774 0.0
C1658 C 0.77685 0.25706 0.976 0.0
C1659 C 0.74707 0.23268 0.99411 0.0
C1660 C 0.73495 0.22517 0.01409 0.0
C1661 C 0.76559 0.24876 0.99599 0.0
C1662 C 0.74263 0.23307 0.03611 0.0
C1663 C 0.76105 0.24899 0.0381 0.0
H1664 H 0.77715 0.73222 0.96974 0.0
H1665 H 0.79005 0.73272 0.04399 0.0
H1666 H 0.76501 0.76665 0.04847 0.0
H1667 H 0.7362 0.79379 0.03224 0.0
H1668 H 0.7226 0.79358 0.95814 0.0
H1669 H 0.75115 0.76244 0.95279 0.0
C1670 C 0.77487 0.74004 0.98681 0.0
C1671 C 0.7854 0.72963 0.0065 0.0
C1672 C 0.76004 0.75961 0.98942 0.0
C1673 C 0.78207 0.74008 0.02851 0.0
C1674 C 0.76766 0.75955 0.03115 0.0
C1675 C 0.7397 0.78723 0.01484 0.0
C1676 C 0.72698 0.79604 0.9957 0.0
C1677 C 0.75603 0.76908 0.01186 0.0
C1678 C 0.73198 0.78724 0.97329 0.0
C1679 C 0.7483 0.76928 0.97019 0.0
H1680 H 0.48309 0.71805 0.78092 0.0
H1681 H 0.55746 0.72288 0.79177 0.0
H1682 H 0.56027 0.75146 0.76037 0.0
H1683 H 0.54109 0.77787 0.73198 0.0
H1684 H 0.46665 0.77259 0.72142 0.0
H1685 H 0.46459 0.74151 0.75016 0.0
C1686 C 0.49999 0.72508 0.77626 0.0
C1687 C 0.51998 0.71828 0.78898 0.0
C1688 C 0.50151 0.74169 0.75818 0.0
C1689 C 0.54171 0.72765 0.78244 0.0
C1690 C 0.54335 0.74415 0.76447 0.0
C1691 C 0.52447 0.76966 0.73564 0.0
C1692 C 0.50405 0.7779 0.7245 0.0
C1693 C 0.52329 0.75171 0.75251 0.0
C1694 C 0.4827 0.7669 0.72967 0.0
C1695 C 0.48145 0.74907 0.74623 0.0
H1696 H 0.24337 0.46898 0.74084 0.0
H1697 H 0.23083 0.54281 0.73579 0.0
H1698 H 0.26315 0.55048 0.76278 0.0
H1699 H 0.29147 0.53572 0.79169 0.0
H1700 H 0.30589 0.46215 0.79518 0.0
H1701 H 0.27687 0.45475 0.76455 0.0
C1702 C 0.24816 0.48673 0.74529 0.0
C1703 C 0.23478 0.50535 0.73654 0.0
C1704 C 0.26706 0.491 0.76052 0.0
C1705 C 0.24101 0.52828 0.74231 0.0
C1706 C 0.2594 0.53264 0.7578 0.0
C1707 C 0.28879 0.51818 0.78513 0.0
C1708 C 0.3008 0.49951 0.79559 0.0
C1709 C 0.27211 0.51411 0.76753 0.0
C1710 C 0.2971 0.47682 0.78714 0.0
C1711 C 0.28027 0.47257 0.76984 0.0
H1712 H 0.48329 0.22636 0.72008 0.0
H1713 H 0.5574 0.21351 0.71859 0.0
H1714 H 0.56366 0.24443 0.74738 0.0
H1715 H 0.54756 0.2727 0.77606 0.0
H1716 H 0.47334 0.28577 0.77613 0.0
H1717 H 0.46789 0.25766 0.74488 0.0
C1718 C 0.50087 0.23052 0.72578 0.0
C1719 C 0.51978 0.21739 0.71723 0.0
C1720 C 0.50439 0.24841 0.74233 0.0
C1721 C 0.54245 0.22327 0.72476 0.0
C1722 C 0.54606 0.24093 0.74138 0.0
C1723 C 0.53026 0.26977 0.76893 0.0
C1724 C 0.5109 0.28131 0.77886 0.0
C1725 C 0.5271 0.25331 0.75073 0.0
C1726 C 0.48863 0.27714 0.76919 0.0
C1727 C 0.48542 0.26092 0.75125 0.0
H1728 H 0.73741 0.53481 0.77507 0.0
H1729 H 0.73041 0.4602 0.77693 0.0
H1730 H 0.7581 0.45639 0.74458 0.0
H1731 H 0.78837 0.47429 0.7195 0.0
H1732 H 0.79425 0.5493 0.71752 0.0
H1733 H 0.76279 0.5529 0.7456 0.0
C1734 C 0.74138 0.5178 0.7678 0.0
C1735 C 0.73172 0.49783 0.7781 0.0
C1736 C 0.75742 0.51578 0.74932 0.0
C1737 C 0.73732 0.47583 0.76893 0.0
C1738 C 0.75335 0.47365 0.75061 0.0
C1739 C 0.78242 0.49144 0.72476 0.0
C1740 C 0.79412 0.51144 0.71653 0.0
C1741 C 0.76413 0.49349 0.74115 0.0
C1742 C 0.78591 0.53351 0.72359 0.0
C1743 C 0.76788 0.53565 0.73981 0.0
H1744 H 0.52752 0.23196 0.28684 0.0
H1745 H 0.45229 0.22785 0.28632 0.0
H1746 H 0.45047 0.25829 0.25679 0.0
H1747 H 0.4701 0.28316 0.22824 0.0
H1748 H 0.54529 0.28696 0.2277 0.0
H1749 H 0.54716 0.25993 0.26062 0.0
C1750 C 0.51069 0.238 0.28061 0.0
C1751 C 0.49008 0.22735 0.28879 0.0
C1752 C 0.50973 0.2554 0.26322 0.0
C1753 C 0.46848 0.2355 0.28035 0.0
C1754 C 0.4674 0.25293 0.26336 0.0
C1755 C 0.48694 0.27839 0.23549 0.0
C1756 C 0.50754 0.28703 0.22524 0.0
C1757 C 0.48791 0.26255 0.25421 0.0
C1758 C 0.52913 0.28066 0.23511 0.0
C1759 C 0.53022 0.26505 0.25391 0.0
H1760 H 0.72724 0.52987 0.22658 0.0
H1761 H 0.73171 0.45535 0.21738 0.0
H1762 H 0.76117 0.45307 0.24808 0.0
H1763 H 0.78813 0.47253 0.27576 0.0
H1764 H 0.78326 0.54707 0.28492 0.0
H1765 H 0.75172 0.54882 0.25649 0.0
C1766 C 0.7344 0.51307 0.23145 0.0
C1767 C 0.72716 0.49287 0.21938 0.0
C1768 C 0.75156 0.51181 0.2492 0.0
C1769 C 0.7368 0.47129 0.22617 0.0
C1770 C 0.7538 0.46993 0.24377 0.0
C1771 C 0.77996 0.48912 0.27183 0.0
C1772 C 0.78841 0.50962 0.28255 0.0
C1773 C 0.76168 0.49012 0.25516 0.0
C1774 C 0.77742 0.53093 0.27702 0.0
C1775 C 0.7593 0.53201 0.26062 0.0
H1776 H 0.48047 0.72971 0.23658 0.0
H1777 H 0.5553 0.73038 0.22825 0.0
H1778 H 0.55898 0.75843 0.25993 0.0
H1779 H 0.54087 0.78576 0.2877 0.0
H1780 H 0.46607 0.78503 0.29621 0.0
H1781 H 0.46269 0.75409 0.26728 0.0
C1782 C 0.49762 0.7357 0.24189 0.0
C1783 C 0.5175 0.72795 0.2297 0.0
C1784 C 0.49971 0.75208 0.26023 0.0
C1785 C 0.53958 0.736 0.23706 0.0
C1786 C 0.54176 0.75217 0.25524 0.0
C1787 C 0.52385 0.77858 0.28358 0.0
C1788 C 0.50378 0.78805 0.29414 0.0
C1789 C 0.52192 0.76077 0.26662 0.0
C1790 C 0.4819 0.77833 0.28841 0.0
C1791 C 0.47989 0.7606 0.27172 0.0
H1792 H 0.29329 0.5385 0.24287 0.0
H1793 H 0.29065 0.4637 0.23525 0.0
H1794 H 0.26182 0.4614 0.26641 0.0
H1795 H 0.23358 0.48111 0.2922 0.0
H1796 H 0.23602 0.55603 0.29903 0.0
H1797 H 0.26875 0.55764 0.27212 0.0
C1798 C 0.28675 0.52162 0.24826 0.0
C1799 C 0.29398 0.50135 0.23641 0.0
C1800 C 0.26987 0.52042 0.26599 0.0
C1801 C 0.2854 0.47964 0.24391 0.0
C1802 C 0.26876 0.4783 0.26169 0.0
C1803 C 0.24157 0.49776 0.28821 0.0
C1804 C 0.23201 0.51844 0.29746 0.0
C1805 C 0.26029 0.49865 0.27233 0.0
C1806 C 0.24274 0.53982 0.29206 0.0
C1807 C 0.26148 0.54079 0.27657 0.0
H1808 H 0.72175 0.78258 0.52821 0.0
H1809 H 0.73969 0.80587 0.45895 0.0
H1810 H 0.76494 0.77201 0.4539 0.0
H1811 H 0.78533 0.73821 0.47072 0.0
H1812 H 0.76878 0.71608 0.54065 0.0
H1813 H 0.73932 0.74668 0.54359 0.0
C1814 C 0.73094 0.78015 0.51188 0.0
C1815 C 0.72895 0.79702 0.49412 0.0
C1816 C 0.74575 0.76076 0.50917 0.0
C1817 C 0.74096 0.79337 0.47304 0.0
C1818 C 0.75545 0.77396 0.47011 0.0
C1819 C 0.77485 0.73966 0.48638 0.0
C1820 C 0.77936 0.72486 0.50546 0.0
C1821 C 0.75844 0.75784 0.48826 0.0
C1822 C 0.76575 0.72724 0.52571 0.0
C1823 C 0.74898 0.74486 0.52747 0.0
H1824 H 0.77921 0.29136 0.53322 0.0
H1825 H 0.78425 0.29639 0.45825 0.0
H1826 H 0.75191 0.26927 0.45377 0.0
H1827 H 0.72545 0.24045 0.47087 0.0
H1828 H 0.72073 0.23467 0.5458 0.0
H1829 H 0.74924 0.26586 0.55042 0.0
C1830 C 0.77294 0.28691 0.51591 0.0
C1831 C 0.78447 0.29574 0.49614 0.0
C1832 C 0.75444 0.27091 0.51337 0.0
C1833 C 0.77598 0.28973 0.47383 0.0
C1834 C 0.75745 0.27413 0.47121 0.0
C1835 C 0.73029 0.24627 0.48824 0.0
C1836 C 0.72109 0.2349 0.50792 0.0
C1837 C 0.74704 0.26403 0.49083 0.0
C1838 C 0.72757 0.24289 0.53027 0.0
C1839 C 0.74401 0.26073 0.53297 0.0
H1840 H 0.22848 0.72582 0.54586 0.0
H1841 H 0.22036 0.71798 0.47133 0.0
H1842 H 0.25231 0.74511 0.46482 0.0
H1843 H 0.27924 0.77475 0.48004 0.0
H1844 H 0.28715 0.78307 0.55454 0.0
H1845 H 0.25902 0.75197 0.56114 0.0
C1846 C 0.23398 0.72966 0.5282 0.0
C1847 C 0.22169 0.72003 0.50916 0.0
C1848 C 0.25228 0.74563 0.52448 0.0
C1849 C 0.22924 0.72523 0.48639 0.0
C1850 C 0.24753 0.74085 0.4826 0.0
C1851 C 0.27517 0.76951 0.49774 0.0
C1852 C 0.28517 0.78158 0.51671 0.0
C1853 C 0.25867 0.75174 0.50149 0.0
C1854 C 0.2797 0.77431 0.53952 0.0
C1855 C 0.26347 0.75652 0.54336 0.0
H1856 H 0.22688 0.28503 0.47514 0.0
H1857 H 0.2256 0.29475 0.54983 0.0
H1858 H 0.25458 0.26396 0.55463 0.0
H1859 H 0.27781 0.23172 0.538 0.0
H1860 H 0.27856 0.22187 0.46331 0.0
H1861 H 0.25265 0.25516 0.45831 0.0
C1862 C 0.23315 0.2807 0.49247 0.0
C1863 C 0.22379 0.29225 0.51206 0.0
C1864 C 0.24974 0.26269 0.4952 0.0
C1865 C 0.23231 0.28624 0.53436 0.0
C1866 C 0.2489 0.26851 0.53717 0.0
C1867 C 0.27264 0.23706 0.52059 0.0
C1868 C 0.28014 0.22401 0.50111 0.0
C1869 C 0.25738 0.25622 0.51777 0.0
C1870 C 0.27308 0.23134 0.47871 0.0
C1871 C 0.25815 0.25043 0.47579 0.0
H1872 H 0.07457 0.12697 0.32647 0.0
H1873 H 0.06913 0.13029 0.40155 0.0
H1874 H 0.10205 0.1038 0.40556 0.0
H1875 H 0.13141 0.07868 0.38796 0.0
H1876 H 0.13522 0.07229 0.3131 0.0
H1877 H 0.10413 0.10131 0.30871 0.0
C1878 C 0.08065 0.12187 0.34367 0.0
C1879 C 0.0694 0.13045 0.36365 0.0
C1880 C 0.09937 0.10627 0.34589 0.0
C1881 C 0.07733 0.12368 0.38587 0.0
C1882 C 0.09625 0.10866 0.38821 0.0
C1883 C 0.12569 0.08395 0.37068 0.0
C1884 C 0.13563 0.07367 0.35088 0.0
C1885 C 0.1073 0.09979 0.36837 0.0
C1886 C 0.12778 0.08016 0.32858 0.0
C1887 C 0.10999 0.09662 0.32608 0.0
H1888 H 0.97005 0.09985 0.37026 0.0
H1889 H 0.93441 0.14132 0.3184 0.0
H1890 H 0.90694 0.10973 0.31129 0.0
H1891 H 0.88963 0.07274 0.32398 0.0
H1892 H 0.92444 0.032 0.3768 0.0
H1893 H 0.95598 0.06047 0.3788 0.0
C1894 C 0.95643 0.10189 0.35724 0.0
C1895 C 0.95401 0.12309 0.34529 0.0
C1896 C 0.94055 0.08369 0.3533 0.0
C1897 C 0.93654 0.12527 0.3281 0.0
C1898 C 0.92078 0.1072 0.32397 0.0
C1899 C 0.90455 0.06972 0.33527 0.0
C1900 C 0.90467 0.0505 0.35036 0.0
C1901 C 0.92217 0.08662 0.33699 0.0
C1902 C 0.92397 0.04682 0.36512 0.0
C1903 C 0.94188 0.06319 0.36644 0.0
H1904 H 0.93157 0.89211 0.32985 0.0
H1905 H 0.9329 0.88557 0.40491 0.0
H1906 H 0.89963 0.91156 0.40815 0.0
H1907 H 0.87165 0.93779 0.39024 0.0
H1908 H 0.87146 0.9475 0.31562 0.0
H1909 H 0.90249 0.9184 0.31159 0.0
C1910 C 0.92447 0.89637 0.34685 0.0
C1911 C 0.93482 0.88713 0.36709 0.0
C1912 C 0.90549 0.91179 0.3487 0.0
C1913 C 0.9255 0.89275 0.38906 0.0
C1914 C 0.90636 0.9075 0.39097 0.0
C1915 C 0.87808 0.93327 0.37303 0.0
C1916 C 0.86923 0.94466 0.35327 0.0
C1917 C 0.89641 0.91732 0.37096 0.0
C1918 C 0.87803 0.9389 0.33112 0.0
C1919 C 0.89582 0.92235 0.32882 0.0
H1920 H 0.11497 0.94501 0.32987 0.0
H1921 H 0.08459 0.98492 0.38589 0.0
H1922 H 0.05339 0.95624 0.38981 0.0
H1923 H 0.03841 0.91723 0.38128 0.0
H1924 H 0.07041 0.87614 0.32684 0.0
H1925 H 0.09726 0.90784 0.31837 0.0
C1926 C 0.10109 0.94776 0.34241 0.0
C1927 C 0.10205 0.96687 0.35765 0.0
C1928 C 0.08383 0.93071 0.34525 0.0
C1929 C 0.08417 0.97019 0.37404 0.0
C1930 C 0.06646 0.95373 0.37641 0.0
C1931 C 0.05109 0.91527 0.36741 0.0
C1932 C 0.05267 0.89416 0.35507 0.0
C1933 C 0.06674 0.93344 0.36281 0.0
C1934 C 0.06902 0.89207 0.33691 0.0
C1935 C 0.08437 0.91022 0.33197 0.0
H1936 H 0.12942 0.92518 0.67058 0.0
H1937 H 0.10785 0.95195 0.60345 0.0
H1938 H 0.07594 0.92418 0.602 0.0
H1939 H 0.05364 0.89307 0.61987 0.0
H1940 H 0.07455 0.86582 0.68697 0.0
H1941 H 0.10719 0.89312 0.68832 0.0
C1942 C 0.11784 0.92478 0.65558 0.0
C1943 C 0.12095 0.94066 0.63725 0.0
C1944 C 0.09931 0.90885 0.65488 0.0
C1945 C 0.10576 0.94002 0.61792 0.0
C1946 C 0.08747 0.92416 0.61703 0.0
C1947 C 0.06525 0.89311 0.63486 0.0
C1948 C 0.06159 0.87753 0.6533 0.0
C1949 C 0.08396 0.90868 0.6355 0.0
C1950 C 0.07695 0.87771 0.67251 0.0
C1951 C 0.09564 0.89327 0.6733 0.0
H1952 H 0.04439 0.10515 0.63217 0.0
H1953 H 0.08786 0.15297 0.67104 0.0
H1954 H 0.11486 0.12134 0.68035 0.0
H1955 H 0.12781 0.08105 0.67423 0.0
H1956 H 0.08511 0.03404 0.6337 0.0
H1957 H 0.05559 0.06436 0.62883 0.0
C1958 C 0.05979 0.1087 0.64265 0.0
C1959 C 0.06439 0.1314 0.65052 0.0
C1960 C 0.07514 0.09054 0.6479 0.0
C1961 C 0.08411 0.13563 0.66454 0.0
C1962 C 0.09948 0.11757 0.66995 0.0
C1963 C 0.11171 0.0773 0.66494 0.0
C1964 C 0.1085 0.05551 0.65429 0.0
C1965 C 0.09535 0.09505 0.66139 0.0
C1966 C 0.08782 0.05081 0.64199 0.0
C1967 C 0.07109 0.06815 0.63904 0.0
H1968 H 0.92693 0.1374 0.67104 0.0
H1969 H 0.97051 0.09994 0.62242 0.0
H1970 H 0.94121 0.06935 0.61911 0.0
H1971 H 0.90212 0.05493 0.62755 0.0
H1972 H 0.85802 0.09274 0.67547 0.0
H1973 H 0.88869 0.12158 0.68146 0.0
C1974 C 0.93018 0.12232 0.66008 0.0
C1975 C 0.95069 0.12097 0.64687 0.0
C1976 C 0.91307 0.10508 0.65782 0.0
C1977 C 0.95469 0.10142 0.63262 0.0
C1978 C 0.93795 0.08398 0.63064 0.0
C1979 C 0.8992 0.06948 0.63929 0.0
C1980 C 0.87777 0.07186 0.6508 0.0
C1981 C 0.91683 0.08597 0.64267 0.0
C1982 C 0.87436 0.0906 0.66627 0.0
C1983 C 0.89188 0.10708 0.66975 0.0
H1984 H 0.95402 0.90724 0.62907 0.0
H1985 H 0.93124 0.87773 0.69444 0.0
H1986 H 0.90161 0.90793 0.69804 0.0
H1987 H 0.87979 0.94045 0.68087 0.0
H1988 H 0.90241 0.96949 0.61521 0.0
H1989 H 0.93448 0.9418 0.61368 0.0
C1990 C 0.94277 0.90754 0.64425 0.0
C1991 C 0.94467 0.89003 0.66124 0.0
C1992 C 0.92555 0.92476 0.64612 0.0
C1993 C 0.93007 0.89087 0.68094 0.0
C1994 C 0.91304 0.9081 0.68302 0.0
C1995 C 0.89185 0.94088 0.66634 0.0
C1996 C 0.88843 0.95681 0.64806 0.0
C1997 C 0.91023 0.92477 0.66541 0.0
C1998 C 0.90441 0.95726 0.62946 0.0
C1999 C 0.92281 0.94142 0.62852 0.0
H2000 H 0.37029 0.04885 0.10695 0.0
H2001 H 0.32133 0.08875 0.14776 0.0
H2002 H 0.31906 0.11805 0.11661 0.0
H2003 H 0.33435 0.13383 0.07953 0.0
H2004 H 0.3844 0.0935 0.04024 0.0
H2005 H 0.38278 0.06262 0.06917 0.0
C2006 C 0.35906 0.06394 0.10906 0.0
C2007 C 0.34638 0.06701 0.12971 0.0
C2008 C 0.35812 0.08057 0.09142 0.0
C2009 C 0.33139 0.08622 0.13199 0.0
C2010 C 0.33017 0.10294 0.11426 0.0
C2011 C 0.34459 0.1181 0.07717 0.0
C2012 C 0.35972 0.11604 0.058 0.0
C2013 C 0.34392 0.10054 0.09414 0.0
C2014 C 0.3729 0.09561 0.05506 0.0
C2015 C 0.37199 0.07795 0.07156 0.0
H2016 H 0.96691 0.38748 0.10317 0.0
H2017 H 0.93703 0.33157 0.14358 0.0
H2018 H 0.90722 0.32555 0.11366 0.0
H2019 H 0.88817 0.33804 0.07733 0.0
H2020 H 0.91826 0.39436 0.03754 0.0
H2021 H 0.94959 0.39817 0.06594 0.0
C2022 C 0.95391 0.37394 0.10544 0.0
C2023 C 0.95398 0.36022 0.12564 0.0
C2024 C 0.93685 0.37064 0.08832 0.0
C2025 C 0.93727 0.34247 0.12817 0.0
C2026 C 0.9202 0.33902 0.11111 0.0
C2027 C 0.90173 0.35094 0.07475 0.0
C2028 C 0.90072 0.36607 0.05555 0.0
C2029 C 0.91962 0.35326 0.09129 0.0
C2030 C 0.91846 0.38268 0.05237 0.0
C2031 C 0.9364 0.3849 0.06858 0.0
H2032 H 0.67852 0.95303 0.12987 0.0
H2033 H 0.60702 0.9358 0.14659 0.0
H2034 H 0.60682 0.90586 0.11681 0.0
H2035 H 0.62552 0.88638 0.08446 0.0
H2036 H 0.69692 0.90188 0.06703 0.0
H2037 H 0.69869 0.93059 0.09891 0.0
C2038 C 0.66299 0.94258 0.12712 0.0
C2039 C 0.64273 0.94696 0.14024 0.0
C2040 C 0.6629 0.9252 0.10982 0.0
C2041 C 0.62281 0.93308 0.13661 0.0
C2042 C 0.62262 0.9159 0.11957 0.0
C2043 C 0.6415 0.89603 0.08767 0.0
C2044 C 0.66091 0.89251 0.07333 0.0
C2045 C 0.64234 0.91218 0.10581 0.0
C2046 C 0.68173 0.90455 0.07791 0.0
C2047 C 0.68269 0.92095 0.09602 0.0
H2048 H 0.04996 0.64045 0.0974 0.0
H2049 H 0.08078 0.69653 0.13722 0.0
H2050 H 0.11247 0.69936 0.10892 0.0
H2051 H 0.13368 0.68253 0.07577 0.0
H2052 H 0.10322 0.62524 0.03728 0.0
H2053 H 0.06899 0.62636 0.06226 0.0
C2054 C 0.06348 0.65348 0.0998 0.0
C2055 C 0.0633 0.66795 0.11958 0.0
C2056 C 0.0818 0.65463 0.08386 0.0
C2057 C 0.08063 0.68507 0.12219 0.0
C2058 C 0.09881 0.68661 0.1061 0.0
C2059 C 0.11943 0.67049 0.07264 0.0
C2060 C 0.12119 0.65355 0.05497 0.0
C2061 C 0.09994 0.67094 0.08731 0.0
C2062 C 0.10247 0.63823 0.05099 0.0
C2063 C 0.08288 0.63885 0.06525 0.0
H2064 H 0.33641 0.93079 0.87266 0.0
H2065 H 0.3895 0.97502 0.90275 0.0
H2066 H 0.39505 0.94752 0.93465 0.0
H2067 H 0.38675 0.90977 0.95258 0.0
H2068 H 0.33425 0.86508 0.92201 0.0
H2069 H 0.32664 0.89389 0.8918 0.0
C2070 C 0.34889 0.93458 0.88642 0.0
C2071 C 0.36258 0.95482 0.88528 0.0
C2072 C 0.35237 0.91848 0.90449 0.0
C2073 C 0.37884 0.95944 0.90314 0.0
C2074 C 0.3821 0.94371 0.92137 0.0
C2075 C 0.37362 0.90633 0.93934 0.0
C2076 C 0.36128 0.8852 0.9395 0.0
C2077 C 0.36933 0.92294 0.92193 0.0
C2078 C 0.34415 0.88115 0.9223 0.0
C2079 C 0.33972 0.89763 0.90498 0.0
H2080 H 0.14543 0.3355 0.9279 0.0
H2081 H 0.11281 0.3915 0.96631 0.0
H2082 H 0.08292 0.39504 0.93628 0.0
H2083 H 0.06726 0.38385 0.89853 0.0
H2084 H 0.09927 0.32813 0.85931 0.0
H2085 H 0.12831 0.32291 0.89034 0.0
C2086 C 0.13158 0.34823 0.92984 0.0
C2087 C 0.13142 0.36329 0.94926 0.0
C2088 C 0.11457 0.35045 0.91229 0.0
C2089 C 0.11344 0.3798 0.95147 0.0
C2090 C 0.09636 0.38189 0.93428 0.0
C2091 C 0.08062 0.37058 0.89663 0.0
C2092 C 0.08128 0.3566 0.87648 0.0
C2093 C 0.09704 0.36763 0.91446 0.0
C2094 C 0.09847 0.33923 0.87458 0.0
C2095 C 0.11504 0.33622 0.89233 0.0
H2096 H 0.62862 0.11326 0.95444 0.0
H2097 H 0.68896 0.1487 0.92691 0.0
H2098 H 0.69113 0.12047 0.89499 0.0
H2099 H 0.67502 0.0863 0.87431 0.0
H2100 H 0.6144 0.05167 0.90253 0.0
H2101 H 0.61334 0.07909 0.93475 0.0
C2102 C 0.6423 0.11487 0.94152 0.0
C2103 C 0.65851 0.13314 0.94303 0.0
C2104 C 0.6434 0.09874 0.92327 0.0
C2105 C 0.67621 0.1348 0.92616 0.0
C2106 C 0.67746 0.11869 0.90788 0.0
C2107 C 0.66166 0.08471 0.88757 0.0
C2108 C 0.64477 0.06702 0.88586 0.0
C2109 C 0.66102 0.10066 0.90617 0.0
C2110 C 0.62757 0.06519 0.90324 0.0
C2111 C 0.62691 0.08086 0.92174 0.0
H2112 H 0.95687 0.6257 0.91317 0.0
H2113 H 0.9374 0.68994 0.87911 0.0
H2114 H 0.90448 0.69441 0.90563 0.0
H2115 H 0.8794 0.67837 0.93651 0.0
H2116 H 0.89937 0.61383 0.96992 0.0
H2117 H 0.93379 0.61133 0.94561 0.0
C2118 C 0.94558 0.64081 0.91165 0.0
C2119 C 0.94946 0.65728 0.89403 0.0
C2120 C 0.92657 0.64316 0.92671 0.0
C2121 C 0.93478 0.67691 0.8925 0.0
C2122 C 0.91586 0.67945 0.90758 0.0
C2123 C 0.89136 0.66386 0.93857 0.0
C2124 C 0.88655 0.64621 0.95483 0.0
C2125 C 0.91128 0.6624 0.92443 0.0
C2126 C 0.90241 0.62761 0.95741 0.0
C2127 C 0.92219 0.62612 0.94352 0.0
H2128 H 0.11817 0.39078 0.05222 0.0
H2129 H 0.1549 0.33296 0.08369 0.0
H2130 H 0.12424 0.3291 0.11277 0.0
H2131 H 0.08816 0.34323 0.13032 0.0
H2132 H 0.05182 0.40162 0.09951 0.0
H2133 H 0.08119 0.40392 0.06889 0.0
C2134 C 0.11948 0.37728 0.06539 0.0
C2135 C 0.1389 0.36231 0.06586 0.0
C2136 C 0.10188 0.3752 0.08214 0.0
C2137 C 0.14021 0.34482 0.08298 0.0
C2138 C 0.12268 0.34256 0.09961 0.0
C2139 C 0.08648 0.35632 0.11678 0.0
C2140 C 0.06789 0.37229 0.11729 0.0
C2141 C 0.10357 0.35781 0.09948 0.0
C2142 C 0.06603 0.38916 0.09961 0.0
C2143 C 0.08283 0.39054 0.08212 0.0
H2144 H 0.11333 0.6341 0.96144 0.0
H2145 H 0.16111 0.67334 0.91878 0.0
H2146 H 0.13121 0.67671 0.88824 0.0
H2147 H 0.09213 0.66637 0.87303 0.0
H2148 H 0.04512 0.62709 0.91676 0.0
H2149 H 0.07419 0.62606 0.94762 0.0
C2150 C 0.11729 0.64338 0.94544 0.0
C2151 C 0.13947 0.65314 0.94217 0.0
C2152 C 0.10016 0.64526 0.92819 0.0
C2153 C 0.14414 0.66555 0.9216 0.0
C2154 C 0.12709 0.66745 0.90417 0.0
C2155 C 0.08817 0.65782 0.88941 0.0
C2156 C 0.06657 0.64661 0.89244 0.0
C2157 C 0.1051 0.6571 0.90717 0.0
C2158 C 0.06169 0.63565 0.91381 0.0
C2159 C 0.0783 0.63502 0.93151 0.0
H2160 H 0.34275 0.13307 0.92329 0.0
H2161 H 0.39587 0.09612 0.96215 0.0
H2162 H 0.39674 0.0658 0.93245 0.0
H2163 H 0.38418 0.05103 0.89476 0.0
H2164 H 0.33156 0.08788 0.85522 0.0
H2165 H 0.32867 0.11709 0.88616 0.0
C2166 C 0.35435 0.11828 0.92538 0.0
C2167 C 0.36937 0.11696 0.94475 0.0
C2168 C 0.35499 0.10104 0.90813 0.0
C2169 C 0.38428 0.09766 0.94726 0.0
C2170 C 0.38482 0.08032 0.93031 0.0
C2171 C 0.37206 0.06544 0.89285 0.0
C2172 C 0.35832 0.06748 0.87265 0.0
C2173 C 0.37057 0.08208 0.91052 0.0
C2174 C 0.34242 0.08603 0.87061 0.0
C2175 C 0.34077 0.10271 0.88825 0.0
H2176 H 0.95518 0.33012 0.88832 0.0
H2177 H 0.98497 0.39611 0.90921 0.0
H2178 H 0.95604 0.39973 0.94007 0.0
H2179 H 0.91929 0.38678 0.9573 0.0
H2180 H 0.88871 0.32159 0.935 0.0
H2181 H 0.9211 0.31509 0.90845 0.0
C2182 C 0.95564 0.34512 0.89985 0.0
C2183 C 0.97183 0.36305 0.89613 0.0
C2184 C 0.9386 0.34745 0.91704 0.0
C2185 C 0.97243 0.38219 0.91149 0.0
C2186 C 0.95584 0.38435 0.92906 0.0
C2187 C 0.91978 0.37108 0.94676 0.0
C2188 C 0.90139 0.35498 0.94773 0.0
C2189 C 0.93829 0.36755 0.93133 0.0
C2190 C 0.9025 0.33446 0.93433 0.0
C2191 C 0.92102 0.33068 0.91916 0.0
H2192 H 0.63099 0.97075 0.90799 0.0
H2193 H 0.6812 0.9345 0.86508 0.0
H2194 H 0.69001 0.9081 0.89707 0.0
H2195 H 0.68034 0.89274 0.9353 0.0
H2196 H 0.62903 0.92781 0.97785 0.0
H2197 H 0.62432 0.9577 0.94804 0.0
C2198 C 0.64392 0.95713 0.90568 0.0
C2199 C 0.65505 0.95428 0.8841 0.0
C2200 C 0.64882 0.94189 0.92405 0.0
C2201 C 0.67214 0.93688 0.88147 0.0
C2202 C 0.67726 0.9218 0.89975 0.0
C2203 C 0.66843 0.90714 0.9383 0.0
C2204 C 0.6547 0.90778 0.95849 0.0
C2205 C 0.66526 0.92379 0.92087 0.0
C2206 C 0.63958 0.92673 0.96225 0.0
C2207 C 0.63676 0.94376 0.94518 0.0
H2208 H 0.92536 0.67716 0.13107 0.0
H2209 H 0.96847 0.62634 0.09592 0.0
H2210 H 0.93859 0.62106 0.06616 0.0
H2211 H 0.89943 0.62914 0.05132 0.0
H2212 H 0.85625 0.68 0.08618 0.0
H2213 H 0.887 0.68692 0.11487 0.0
C2214 C 0.92835 0.66515 0.11675 0.0
C2215 C 0.94899 0.65203 0.11586 0.0
C2216 C 0.911 0.66198 0.09978 0.0
C2217 C 0.95262 0.63655 0.09715 0.0
C2218 C 0.93553 0.63344 0.08013 0.0
C2219 C 0.89674 0.64169 0.06523 0.0
C2220 C 0.87558 0.65383 0.06679 0.0
C2221 C 0.91449 0.64571 0.08154 0.0
C2222 C 0.87243 0.67035 0.08466 0.0
C2223 C 0.88998 0.67435 0.10107 0.0
H2224 H 0.32789 0.94421 0.1162 0.0
H2225 H 0.3955 0.97418 0.10204 0.0
H2226 H 0.40041 0.94802 0.06895 0.0
H2227 H 0.38768 0.91355 0.04716 0.0
H2228 H 0.32038 0.88315 0.06194 0.0
H2229 H 0.31318 0.91279 0.09142 0.0
C2230 C 0.34357 0.94526 0.10571 0.0
C2231 C 0.36146 0.96079 0.11191 0.0
C2232 C 0.34648 0.92996 0.08689 0.0
C2233 C 0.38152 0.96216 0.09788 0.0
C2234 C 0.38441 0.94717 0.07895 0.0
C2235 C 0.3713 0.91359 0.05658 0.0
C2236 C 0.35485 0.89587 0.05266 0.0
C2237 C 0.36734 0.93049 0.07379 0.0
C2238 C 0.33356 0.89638 0.06482 0.0
C2239 C 0.32939 0.91331 0.08174 0.0
H2240 H 0.62951 0.10362 0.04912 0.0
H2241 H 0.6981 0.12832 0.06834 0.0
H2242 H 0.70143 0.09768 0.09757 0.0
H2243 H 0.68224 0.06792 0.12179 0.0
H2244 H 0.61262 0.04549 0.10401 0.0
H2245 H 0.6125 0.07079 0.06988 0.0
C2246 C 0.64537 0.10208 0.05939 0.0
C2247 C 0.66326 0.11855 0.05689 0.0
C2248 C 0.64694 0.08484 0.07658 0.0
C2249 C 0.68383 0.1161 0.07017 0.0
C2250 C 0.68578 0.09858 0.08693 0.0
C2251 C 0.66737 0.06816 0.11002 0.0
C2252 C 0.64739 0.05519 0.11541 0.0
C2253 C 0.66706 0.08344 0.09092 0.0
C2254 C 0.6281 0.05563 0.10023 0.0
C2255 C 0.62797 0.07012 0.08079 0.0
H2256 H 0.57898 0.61808 0.83065 0.0
H2257 H 0.55682 0.59952 0.90025 0.0
H2258 H 0.58323 0.56652 0.90027 0.0
H2259 H 0.61474 0.54491 0.88223 0.0
H2260 H 0.63773 0.56243 0.81291 0.0
H2261 H 0.60847 0.59363 0.81086 0.0
C2262 C 0.57986 0.60673 0.84574 0.0
C2263 C 0.5662 0.61151 0.86553 0.0
C2264 C 0.59515 0.58761 0.8457 0.0
C2265 C 0.56725 0.59642 0.88483 0.0
C2266 C 0.58235 0.57749 0.8849 0.0
C2267 C 0.61318 0.55543 0.86657 0.0
C2268 C 0.62845 0.55176 0.8479 0.0
C2269 C 0.59668 0.57326 0.86568 0.0
C2270 C 0.62607 0.56508 0.82751 0.0
C2271 C 0.60951 0.58297 0.82643 0.0
H2272 H 0.39365 0.56276 0.83638 0.0
H2273 H 0.42663 0.52811 0.89447 0.0
H2274 H 0.45783 0.55706 0.89476 0.0
H2275 H 0.47233 0.59472 0.88226 0.0
H2276 H 0.4381 0.6316 0.82615 0.0
H2277 H 0.41076 0.5992 0.82117 0.0
C2278 C 0.4081 0.56126 0.84857 0.0
C2279 C 0.40808 0.54349 0.86535 0.0
C2280 C 0.42536 0.57858 0.84931 0.0
C2281 C 0.42651 0.54175 0.88141 0.0
C2282 C 0.44418 0.55834 0.88168 0.0
C2283 C 0.45898 0.59568 0.86882 0.0
C2284 C 0.45691 0.61572 0.85494 0.0
C2285 C 0.44321 0.57731 0.86636 0.0
C2286 C 0.43987 0.61644 0.83726 0.0
C2287 C 0.42425 0.59794 0.8344 0.0
H2288 H 0.39228 0.43248 0.84025 0.0
H2289 H 0.38838 0.43122 0.91547 0.0
H2290 H 0.41944 0.40219 0.91695 0.0
H2291 H 0.44773 0.37736 0.89698 0.0
H2292 H 0.45034 0.37676 0.82175 0.0
H2293 H 0.41974 0.40648 0.82015 0.0
C2294 C 0.39825 0.42583 0.85695 0.0
C2295 C 0.38815 0.43401 0.87771 0.0
C2296 C 0.41589 0.40894 0.85767 0.0
C2297 C 0.39583 0.4251 0.89923 0.0
C2298 C 0.41364 0.40859 0.90011 0.0
C2299 C 0.4417 0.38387 0.88024 0.0
C2300 C 0.45135 0.37514 0.85953 0.0
C2301 C 0.42383 0.40046 0.87946 0.0
C2302 C 0.44313 0.38332 0.83793 0.0
C2303 C 0.42568 0.40028 0.83701 0.0
H2304 H 0.57688 0.37959 0.82557 0.0
H2305 H 0.56276 0.38727 0.89923 0.0
H2306 H 0.59234 0.41734 0.9023 0.0
H2307 H 0.62359 0.43999 0.88485 0.0
H2308 H 0.63739 0.43421 0.81117 0.0
H2309 H 0.60647 0.40492 0.80729 0.0
C2310 C 0.58019 0.38797 0.84223 0.0
C2311 C 0.56775 0.38101 0.86214 0.0
C2312 C 0.59722 0.40548 0.84393 0.0
C2313 C 0.57205 0.39223 0.88358 0.0
C2314 C 0.58905 0.4094 0.88543 0.0
C2315 C 0.6198 0.43233 0.86794 0.0
C2316 C 0.63285 0.4389 0.8484 0.0
C2317 C 0.60196 0.41588 0.86583 0.0
C2318 C 0.62752 0.42928 0.82647 0.0
C2319 C 0.60993 0.41253 0.82427 0.0
H2320 H 0.56609 0.3845 0.17858 0.0
H2321 H 0.53299 0.40858 0.11519 0.0
H2322 H 0.56085 0.44047 0.11261 0.0
H2323 H 0.59768 0.45781 0.12514 0.0
H2324 H 0.63173 0.43267 0.18761 0.0
H2325 H 0.60014 0.40504 0.19386 0.0
C2326 C 0.56468 0.39695 0.16442 0.0
C2327 C 0.54789 0.39385 0.14681 0.0
C2328 C 0.58107 0.41487 0.1627 0.0
C2329 C 0.54607 0.41033 0.12876 0.0
C2330 C 0.56201 0.42855 0.12722 0.0
C2331 C 0.59808 0.44646 0.14027 0.0
C2332 C 0.61726 0.44687 0.15554 0.0
C2333 C 0.58013 0.43036 0.14355 0.0
C2334 C 0.6173 0.43245 0.17536 0.0
C2335 C 0.59927 0.41662 0.17896 0.0
H2336 H 0.55654 0.60532 0.12902 0.0
H2337 H 0.58897 0.64208 0.18633 0.0
H2338 H 0.61879 0.6118 0.18934 0.0
H2339 H 0.63701 0.57599 0.17399 0.0
H2340 H 0.60386 0.53986 0.11652 0.0
H2341 H 0.57307 0.56878 0.11543 0.0
C2342 C 0.57006 0.60669 0.14225 0.0
C2343 C 0.57065 0.62601 0.15724 0.0
C2344 C 0.58715 0.58937 0.14383 0.0
C2345 C 0.58813 0.62737 0.17449 0.0
C2346 C 0.60525 0.61011 0.1762 0.0
C2347 C 0.62295 0.57436 0.16138 0.0
C2348 C 0.62299 0.55592 0.14522 0.0
C2349 C 0.60514 0.59119 0.1607 0.0
C2350 C 0.60453 0.55401 0.12905 0.0
C2351 C 0.58681 0.57053 0.12837 0.0
H2352 H 0.41155 0.55483 0.14395 0.0
H2353 H 0.36647 0.59341 0.19024 0.0
H2354 H 0.39577 0.62435 0.19323 0.0
H2355 H 0.43304 0.64156 0.18017 0.0
H2356 H 0.47685 0.60259 0.13288 0.0
H2357 H 0.4491 0.57059 0.13292 0.0
C2358 C 0.40807 0.56995 0.15478 0.0
C2359 C 0.38673 0.57195 0.1666 0.0
C2360 C 0.42474 0.58763 0.15618 0.0
C2361 C 0.38273 0.5915 0.18086 0.0
C2362 C 0.39944 0.6092 0.18253 0.0
C2363 C 0.43661 0.62594 0.17012 0.0
C2364 C 0.45685 0.62456 0.15636 0.0
C2365 C 0.42035 0.60763 0.16991 0.0
C2366 C 0.46126 0.60423 0.1434 0.0
C2367 C 0.44543 0.58589 0.14341 0.0
H2368 H 0.37819 0.42713 0.17864 0.0
H2369 H 0.41829 0.47284 0.13439 0.0
H2370 H 0.44618 0.44165 0.127 0.0
H2371 H 0.45761 0.40097 0.13093 0.0
H2372 H 0.41776 0.35488 0.17492 0.0
H2373 H 0.39105 0.38676 0.18443 0.0
C2374 C 0.39327 0.43041 0.16775 0.0
C2375 C 0.39612 0.45219 0.15697 0.0
C2376 C 0.40895 0.41227 0.16315 0.0
C2377 C 0.41566 0.45615 0.14278 0.0
C2378 C 0.43154 0.43831 0.13844 0.0
C2379 C 0.44298 0.39783 0.14247 0.0
C2380 C 0.43938 0.37557 0.15191 0.0
C2381 C 0.42799 0.41618 0.14804 0.0
C2382 C 0.42071 0.37187 0.16728 0.0
C2383 C 0.40553 0.39008 0.17278 0.0
H2384 H 0.84913 0.58681 0.64087 0.0
H2385 H 0.91389 0.55932 0.61384 0.0
H2386 H 0.91319 0.58799 0.5826 0.0
H2387 H 0.89432 0.62045 0.56297 0.0
H2388 H 0.82958 0.64825 0.58963 0.0
H2389 H 0.8302 0.61962 0.62112 0.0
C2390 C 0.86313 0.5871 0.62819 0.0
C2391 C 0.88152 0.57095 0.6297 0.0
C2392 C 0.86262 0.60357 0.61022 0.0
C2393 C 0.89951 0.57155 0.6131 0.0
C2394 C 0.89914 0.58792 0.5952 0.0
C2395 C 0.88028 0.6203 0.57561 0.0
C2396 C 0.86192 0.63644 0.57393 0.0
C2397 C 0.88076 0.60393 0.5936 0.0
C2398 C 0.84392 0.63598 0.59052 0.0
C2399 C 0.84426 0.61965 0.60853 0.0
H2400 H 0.38095 0.8282 0.57146 0.0
H2401 H 0.40447 0.89288 0.54102 0.0
H2402 H 0.43703 0.8942 0.56838 0.0
H2403 H 0.45631 0.87921 0.6033 0.0
H2404 H 0.43237 0.81503 0.63437 0.0
H2405 H 0.40259 0.81122 0.60412 0.0
C2406 C 0.39333 0.84246 0.57061 0.0
C2407 C 0.39004 0.86061 0.5545 0.0
C2408 C 0.41183 0.84331 0.58657 0.0
C2409 C 0.40643 0.87879 0.55343 0.0
C2410 C 0.42505 0.87961 0.56909 0.0
C2411 C 0.4447 0.86428 0.60337 0.0
C2412 C 0.44627 0.84766 0.62126 0.0
C2413 C 0.42749 0.86232 0.58614 0.0
C2414 C 0.4314 0.82819 0.62087 0.0
C2415 C 0.41433 0.82602 0.60363 0.0
H2416 H 0.18824 0.39375 0.57306 0.0
H2417 H 0.12575 0.42285 0.5422 0.0
H2418 H 0.12845 0.45642 0.56783 0.0
H2419 H 0.14504 0.47465 0.60241 0.0
H2420 H 0.20654 0.44574 0.63473 0.0
H2421 H 0.20823 0.41536 0.60462 0.0
C2422 C 0.17538 0.40756 0.57177 0.0
C2423 C 0.15651 0.40545 0.55612 0.0
C2424 C 0.17689 0.42689 0.58675 0.0
C2425 C 0.14023 0.42373 0.55437 0.0
C2426 C 0.14176 0.44303 0.56898 0.0
C2427 C 0.15914 0.46201 0.60249 0.0
C2428 C 0.17543 0.46208 0.62078 0.0
C2429 C 0.15952 0.44436 0.58571 0.0
C2430 C 0.19383 0.44594 0.6207 0.0
C2431 C 0.1946 0.42843 0.60369 0.0
H2432 H 0.56173 0.17971 0.60856 0.0
H2433 H 0.53849 0.11098 0.58828 0.0
H2434 H 0.5664 0.11066 0.55628 0.0
H2435 H 0.60119 0.12735 0.53809 0.0
H2436 H 0.62537 0.19536 0.55977 0.0
H2437 H 0.59311 0.19849 0.58707 0.0
C2438 C 0.56245 0.1648 0.59693 0.0
C2439 C 0.54845 0.14519 0.60116 0.0
C2440 C 0.57893 0.16444 0.57899 0.0
C2441 C 0.54932 0.1262 0.58563 0.0
C2442 C 0.56535 0.12594 0.56738 0.0
C2443 C 0.59923 0.14301 0.54853 0.0
C2444 C 0.61598 0.16082 0.54729 0.0
C2445 C 0.58089 0.14455 0.56454 0.0
C2446 C 0.61296 0.18116 0.56067 0.0
C2447 C 0.59451 0.183 0.57631 0.0
H2448 H 0.88246 0.41404 0.45812 0.0
H2449 H 0.8359 0.36839 0.42019 0.0
H2450 H 0.82968 0.39836 0.39081 0.0
H2451 H 0.83954 0.43646 0.37446 0.0
H2452 H 0.8866 0.48181 0.41206 0.0
H2453 H 0.89019 0.45314 0.44315 0.0
C2454 C 0.87095 0.41066 0.44344 0.0
C2455 C 0.85991 0.38896 0.44122 0.0
C2456 C 0.86742 0.42793 0.42658 0.0
C2457 C 0.84475 0.38494 0.42227 0.0
C2458 C 0.84113 0.40206 0.40544 0.0
C2459 C 0.85023 0.44023 0.38965 0.0
C2460 C 0.86294 0.46107 0.39086 0.0
C2461 C 0.85261 0.4235 0.40726 0.0
C2462 C 0.87681 0.46573 0.41062 0.0
C2463 C 0.87895 0.44934 0.42838 0.0
H2464 H 0.58388 0.84351 0.38073 0.0
H2465 H 0.53751 0.89057 0.41678 0.0
H2466 H 0.56531 0.89398 0.44885 0.0
H2467 H 0.60394 0.88632 0.46501 0.0
H2468 H 0.65119 0.84045 0.42846 0.0
H2469 H 0.62182 0.8338 0.39831 0.0
C2470 C 0.57973 0.85417 0.3958 0.0
C2471 C 0.55882 0.8669 0.39633 0.0
C2472 C 0.59602 0.8565 0.41396 0.0
C2473 C 0.55366 0.88078 0.41588 0.0
C2474 C 0.56952 0.88277 0.43422 0.0
C2475 C 0.60781 0.87474 0.45055 0.0
C2476 C 0.62983 0.86414 0.44888 0.0
C2477 C 0.59099 0.87119 0.43315 0.0
C2478 C 0.63444 0.84903 0.43009 0.0
C2479 C 0.61765 0.84518 0.41283 0.0
H2480 H 0.12488 0.56076 0.40936 0.0
H2481 H 0.18082 0.59681 0.37422 0.0
H2482 H 0.18465 0.62348 0.40715 0.0
H2483 H 0.1704 0.63798 0.44432 0.0
H2484 H 0.11371 0.60274 0.47909 0.0
H2485 H 0.11228 0.57384 0.44787 0.0
C2486 C 0.1379 0.57446 0.40888 0.0
C2487 C 0.1523 0.57707 0.3893 0.0
C2488 C 0.13998 0.58971 0.42776 0.0
C2489 C 0.1694 0.59459 0.38908 0.0
C2490 C 0.17164 0.6098 0.40787 0.0
C2491 C 0.15786 0.62386 0.44525 0.0
C2492 C 0.14197 0.62269 0.46379 0.0
C2493 C 0.15678 0.6077 0.4271 0.0
C2494 C 0.12604 0.60412 0.46488 0.0
C2495 C 0.12512 0.58767 0.447 0.0
H2496 H 0.44725 0.12788 0.41025 0.0
H2497 H 0.4195 0.18865 0.37546 0.0
H2498 H 0.38741 0.19025 0.40335 0.0
H2499 H 0.36575 0.17257 0.43581 0.0
H2500 H 0.39364 0.11116 0.46951 0.0
H2501 H 0.4271 0.11169 0.44367 0.0
C2502 C 0.43433 0.14164 0.40882 0.0
C2503 C 0.43566 0.15795 0.39066 0.0
C2504 C 0.41578 0.14222 0.42456 0.0
C2505 C 0.41885 0.17578 0.38925 0.0
C2506 C 0.40043 0.17666 0.40512 0.0
C2507 C 0.3792 0.15937 0.43756 0.0
C2508 C 0.37701 0.14172 0.4544 0.0
C2509 C 0.39846 0.15965 0.42254 0.0
C2510 C 0.3947 0.12485 0.45656 0.0
C2511 C 0.41392 0.12513 0.44182 0.0
H2512 H 0.58106 0.83288 0.63463 0.0
H2513 H 0.53713 0.88582 0.6037 0.0
H2514 H 0.56439 0.89039 0.57181 0.0
H2515 H 0.60184 0.8816 0.55398 0.0
H2516 H 0.64617 0.8287 0.58412 0.0
H2517 H 0.61753 0.82179 0.61477 0.0
C2518 C 0.57735 0.84521 0.62078 0.0
C2519 C 0.55725 0.85919 0.62182 0.0
C2520 C 0.59322 0.84792 0.60235 0.0
C2521 C 0.55263 0.87501 0.60361 0.0
C2522 C 0.5682 0.87769 0.58527 0.0
C2523 C 0.6052 0.86847 0.56717 0.0
C2524 C 0.62618 0.85591 0.56691 0.0
C2525 C 0.58876 0.86461 0.58473 0.0
C2526 C 0.63013 0.83869 0.58394 0.0
C2527 C 0.6138 0.83476 0.60154 0.0
H2528 H 0.57811 0.17693 0.37236 0.0
H2529 H 0.53571 0.13049 0.41368 0.0
H2530 H 0.56662 0.12746 0.4426 0.0
H2531 H 0.60615 0.13619 0.45524 0.0
H2532 H 0.649 0.18283 0.41484 0.0
H2533 H 0.61737 0.18755 0.38641 0.0
C2534 C 0.57554 0.16641 0.38784 0.0
C2535 C 0.55473 0.1538 0.39072 0.0
C2536 C 0.59351 0.16453 0.40441 0.0
C2537 C 0.55165 0.14022 0.41089 0.0
C2538 C 0.56932 0.13841 0.42745 0.0
C2539 C 0.60864 0.14731 0.44015 0.0
C2540 C 0.62992 0.15887 0.43692 0.0
C2541 C 0.59044 0.1501 0.42414 0.0
C2542 C 0.63274 0.17363 0.41759 0.0
C2543 C 0.61469 0.17636 0.40138 0.0
H2544 H 0.8813 0.5587 0.40717 0.0
H2545 H 0.82569 0.59055 0.36735 0.0
H2546 H 0.81888 0.61832 0.39897 0.0
H2547 H 0.83096 0.6354 0.43633 0.0
H2548 H 0.88758 0.60418 0.4752 0.0
H2549 H 0.89148 0.57396 0.44553 0.0
C2550 C 0.86763 0.57167 0.40536 0.0
C2551 C 0.85426 0.57279 0.3848 0.0
C2552 C 0.86394 0.5876 0.42344 0.0
C2553 C 0.83636 0.58945 0.38294 0.0
C2554 C 0.83245 0.60531 0.401 0.0
C2555 C 0.84387 0.62174 0.43854 0.0
C2556 C 0.85909 0.62211 0.45782 0.0
C2557 C 0.84642 0.60478 0.42114 0.0
C2558 C 0.87578 0.60436 0.4604 0.0
C2559 C 0.87808 0.58713 0.44342 0.0
H2560 H 0.39607 0.8836 0.45715 0.0
H2561 H 0.35999 0.82613 0.42434 0.0
H2562 H 0.39087 0.82335 0.39501 0.0
H2563 H 0.42702 0.83876 0.37783 0.0
H2564 H 0.46198 0.8968 0.41103 0.0
H2565 H 0.43239 0.89774 0.4413 0.0
C2566 C 0.39484 0.87044 0.44359 0.0
C2567 C 0.37565 0.85528 0.44272 0.0
C2568 C 0.4124 0.86906 0.42692 0.0
C2569 C 0.37458 0.83808 0.42528 0.0
C2570 C 0.39218 0.83651 0.40853 0.0
C2571 C 0.42827 0.85146 0.39182 0.0
C2572 C 0.44653 0.8678 0.39211 0.0
C2573 C 0.41104 0.85211 0.40907 0.0
C2574 C 0.44795 0.88417 0.4103 0.0
C2575 C 0.43107 0.88474 0.42762 0.0
H2576 H 0.18018 0.44787 0.38361 0.0
H2577 H 0.11983 0.48285 0.41208 0.0
H2578 H 0.11815 0.45462 0.4437 0.0
H2579 H 0.13147 0.4184 0.46099 0.0
H2580 H 0.19078 0.38214 0.43206 0.0
H2581 H 0.19541 0.41286 0.40291 0.0
C2582 C 0.16686 0.44951 0.39691 0.0
C2583 C 0.14997 0.46721 0.39536 0.0
C2584 C 0.16571 0.43298 0.41478 0.0
C2585 C 0.13285 0.46917 0.41273 0.0
C2586 C 0.13186 0.45306 0.43081 0.0
C2587 C 0.1455 0.4172 0.44839 0.0
C2588 C 0.16051 0.39785 0.44839 0.0
C2589 C 0.14781 0.43459 0.4316 0.0
C2590 C 0.17888 0.39681 0.43227 0.0
C2591 C 0.1815 0.41431 0.41559 0.0
H2592 H 0.36601 0.16894 0.59011 0.0
H2593 H 0.3995 0.12229 0.54139 0.0
H2594 H 0.43342 0.11951 0.56676 0.0
H2595 H 0.45241 0.12798 0.60343 0.0
H2596 H 0.41977 0.17363 0.65356 0.0
H2597 H 0.38667 0.17929 0.6269 0.0
C2598 C 0.38091 0.15847 0.585 0.0
C2599 C 0.38022 0.14566 0.56407 0.0
C2600 C 0.40034 0.15657 0.59995 0.0
C2601 C 0.39954 0.13207 0.55758 0.0
C2602 C 0.41894 0.13046 0.57205 0.0
C2603 C 0.43809 0.13919 0.60864 0.0
C2604 C 0.43838 0.15009 0.63057 0.0
C2605 C 0.41928 0.1422 0.59344 0.0
C2606 C 0.41987 0.16491 0.63679 0.0
C2607 C 0.40096 0.16813 0.62157 0.0
H2608 H 0.89234 0.41069 0.54994 0.0
H2609 H 0.82408 0.38561 0.56941 0.0
H2610 H 0.82234 0.41424 0.60082 0.0
H2611 H 0.84162 0.44396 0.62481 0.0
H2612 H 0.91028 0.46825 0.60565 0.0
H2613 H 0.91029 0.44234 0.57202 0.0
C2614 C 0.87695 0.41161 0.56086 0.0
C2615 C 0.85853 0.39582 0.55748 0.0
C2616 C 0.87618 0.42783 0.57911 0.0
C2617 C 0.83863 0.39744 0.57171 0.0
C2618 C 0.83762 0.41376 0.58974 0.0
C2619 C 0.85651 0.44375 0.61319 0.0
C2620 C 0.87602 0.45781 0.61796 0.0
C2621 C 0.85654 0.42865 0.59394 0.0
C2622 C 0.89509 0.45744 0.60257 0.0
C2623 C 0.89514 0.44264 0.58329 0.0
H2624 H 0.1262 0.57676 0.64607 0.0
H2625 H 0.20126 0.57179 0.64329 0.0
H2626 H 0.20215 0.60125 0.61243 0.0
H2627 H 0.18118 0.62709 0.58504 0.0
H2628 H 0.10588 0.62947 0.58688 0.0
H2629 H 0.10554 0.60226 0.61933 0.0
C2630 C 0.1428 0.58232 0.63895 0.0
C2631 C 0.16362 0.57224 0.64697 0.0
C2632 C 0.14312 0.59861 0.62088 0.0
C2633 C 0.18498 0.57934 0.63733 0.0
C2634 C 0.18549 0.59612 0.61969 0.0
C2635 C 0.16475 0.62166 0.59263 0.0
C2636 C 0.14362 0.63014 0.58351 0.0
C2637 C 0.16461 0.60564 0.61111 0.0
C2638 C 0.1224 0.62296 0.59341 0.0
C2639 C 0.12216 0.60749 0.61204 0.0
H2640 H 0.06636 0.27521 0.37618 0.0
H2641 H 0.09316 0.20581 0.38674 0.0
H2642 H 0.12296 0.22078 0.41333 0.0
H2643 H 0.13618 0.25276 0.43896 0.0
H2644 H 0.11084 0.32238 0.42669 0.0
H2645 H 0.08578 0.30835 0.39511 0.0
C2646 C 0.07926 0.26359 0.38376 0.0
C2647 C 0.07755 0.23959 0.38 0.0
C2648 C 0.09629 0.27228 0.39893 0.0
C2649 C 0.09432 0.22446 0.38954 0.0
C2650 C 0.11117 0.23294 0.4049 0.0
C2651 C 0.12561 0.26479 0.42884 0.0
C2652 C 0.12484 0.28831 0.43502 0.0
C2653 C 0.11154 0.25666 0.41058 0.0
C2654 C 0.11143 0.30409 0.42197 0.0
C2655 C 0.09708 0.2961 0.40407 0.0
H2656 H 0.78407 0.14196 0.46332 0.0
H2657 H 0.72974 0.15189 0.41199 0.0
H2658 H 0.7549 0.13605 0.38169 0.0
H2659 H 0.78733 0.10972 0.37309 0.0
H2660 H 0.84092 0.09837 0.42491 0.0
H2661 H 0.82173 0.12549 0.45127 0.0
C2662 C 0.77805 0.14123 0.44536 0.0
C2663 C 0.75492 0.14707 0.43995 0.0
C2664 C 0.79245 0.1318 0.42812 0.0
C2665 C 0.7474 0.14693 0.41659 0.0
C2666 C 0.76175 0.13784 0.39926 0.0
C2667 C 0.79528 0.11394 0.38978 0.0
C2668 C 0.81472 0.10127 0.39758 0.0
C2669 C 0.78363 0.12873 0.40523 0.0
C2670 C 0.82551 0.10746 0.41878 0.0
C2671 C 0.81438 0.12276 0.43402 0.0
H2672 H 0.9366 0.74433 0.37483 0.0
H2673 H 0.9095 0.81372 0.38443 0.0
H2674 H 0.87712 0.79849 0.40735 0.0
H2675 H 0.86357 0.76674 0.4327 0.0
H2676 H 0.8897 0.69715 0.42193 0.0
H2677 H 0.91512 0.71092 0.39079 0.0
C2678 C 0.92297 0.75586 0.38113 0.0
C2679 C 0.92539 0.77992 0.37867 0.0
C2680 C 0.90456 0.74701 0.39429 0.0
C2681 C 0.90778 0.79502 0.38644 0.0
C2682 C 0.88944 0.78638 0.39969 0.0
C2683 C 0.87416 0.75458 0.42279 0.0
C2684 C 0.87546 0.73129 0.42964 0.0
C2685 C 0.88865 0.76261 0.40501 0.0
C2686 C 0.88879 0.7153 0.41679 0.0
C2687 C 0.90341 0.72316 0.39917 0.0
H2688 H 0.22659 0.91291 0.37617 0.0
H2689 H 0.16961 0.92285 0.4243 0.0
H2690 H 0.18689 0.89487 0.45102 0.0
H2691 H 0.2231 0.87661 0.46488 0.0
H2692 H 0.2803 0.86703 0.41711 0.0
H2693 H 0.25788 0.88549 0.386 0.0
C2694 C 0.21757 0.90836 0.39214 0.0
C2695 C 0.19754 0.92073 0.39879 0.0
C2696 C 0.22789 0.89271 0.40775 0.0
C2697 C 0.18549 0.91406 0.41907 0.0
C2698 C 0.19544 0.89817 0.4345 0.0
C2699 C 0.2303 0.87797 0.44745 0.0
C2700 C 0.25344 0.87133 0.44337 0.0
C2701 C 0.21746 0.88883 0.42976 0.0
C2702 C 0.26255 0.87244 0.42066 0.0
C2703 C 0.24981 0.88309 0.4029 0.0
H2704 H 0.08201 0.78651 0.64002 0.0
H2705 H 0.03754 0.72602 0.63479 0.0
H2706 H 0.06943 0.70399 0.6169 0.0
H2707 H 0.10539 0.70559 0.59446 0.0
H2708 H 0.14491 0.76928 0.59134 0.0
H2709 H 0.12004 0.78656 0.62156 0.0
C2710 C 0.07951 0.76828 0.6356 0.0
C2711 C 0.05752 0.75784 0.63824 0.0
C2712 C 0.09711 0.75655 0.62374 0.0
C2713 C 0.05434 0.73434 0.63247 0.0
C2714 C 0.07249 0.72185 0.62228 0.0
C2715 C 0.10896 0.72294 0.60121 0.0
C2716 C 0.12663 0.73637 0.59117 0.0
C2717 C 0.09334 0.73327 0.61658 0.0
C2718 C 0.13132 0.75886 0.59925 0.0
C2719 C 0.11699 0.76869 0.61622 0.0
H2720 H 0.24998 0.08473 0.64688 0.0
H2721 H 0.18072 0.09237 0.61858 0.0
H2722 H 0.19371 0.12443 0.59389 0.0
H2723 H 0.22708 0.14127 0.57304 0.0
H2724 H 0.29622 0.13433 0.60204 0.0
H2725 H 0.28094 0.11168 0.63448 0.0
C2726 C 0.23762 0.09428 0.63614 0.0
C2727 C 0.21473 0.08626 0.63393 0.0
C2728 C 0.24527 0.1125 0.62194 0.0
C2729 C 0.19854 0.09849 0.62024 0.0
C2730 C 0.20599 0.11662 0.60601 0.0
C2731 C 0.23853 0.13566 0.58707 0.0
C2732 C 0.26264 0.13863 0.58499 0.0
C2733 C 0.22967 0.1225 0.60551 0.0
C2734 C 0.27752 0.13187 0.60329 0.0
C2735 C 0.26886 0.11873 0.62172 0.0
H2736 H 0.92923 0.26599 0.63958 0.0
H2737 H 0.91329 0.19717 0.61413 0.0
H2738 H 0.882 0.21281 0.5897 0.0
H2739 H 0.86779 0.24708 0.56822 0.0
H2740 H 0.88325 0.3159 0.59408 0.0
H2741 H 0.90566 0.29936 0.62637 0.0
C2742 C 0.91806 0.25444 0.62953 0.0
C2743 C 0.92346 0.23074 0.62808 0.0
C2744 C 0.9004 0.26359 0.6154 0.0
C2745 C 0.90917 0.21558 0.61524 0.0
C2746 C 0.89151 0.22452 0.60113 0.0
C2747 C 0.87525 0.25828 0.58158 0.0
C2748 C 0.87459 0.28245 0.57877 0.0
C2749 C 0.88818 0.24866 0.59988 0.0
C2750 C 0.88386 0.29712 0.59606 0.0
C2751 C 0.89681 0.28771 0.61435 0.0
H2752 H 0.79643 0.91647 0.63171 0.0
H2753 H 0.73302 0.95096 0.65237 0.0
H2754 H 0.7098 0.92054 0.63352 0.0
H2755 H 0.70853 0.89276 0.60131 0.0
H2756 H 0.77235 0.8646 0.57378 0.0
H2757 H 0.79463 0.88305 0.6053 0.0
C2758 C 0.77753 0.91657 0.63296 0.0
C2759 C 0.76623 0.93574 0.64299 0.0
C2760 C 0.76451 0.90029 0.62029 0.0
C2761 C 0.74184 0.93622 0.64449 0.0
C2762 C 0.72866 0.91899 0.63355 0.0
C2763 C 0.72717 0.88984 0.60305 0.0
C2764 C 0.73903 0.87765 0.5856 0.0
C2765 C 0.73985 0.90214 0.61985 0.0
C2766 C 0.76312 0.87399 0.58733 0.0
C2767 C 0.77579 0.88473 0.60515 0.0
H2768 H 0.38105 0.04259 0.27801 0.0
H2769 H 0.34823 0.09051 0.23009 0.0
H2770 H 0.36993 0.12283 0.24723 0.0
H2771 H 0.40526 0.13525 0.26895 0.0
H2772 H 0.44017 0.08575 0.31351 0.0
H2773 H 0.41085 0.05631 0.30464 0.0
C2774 C 0.37816 0.06019 0.27174 0.0
C2775 C 0.36395 0.06403 0.25222 0.0
C2776 C 0.39161 0.07836 0.28069 0.0
C2777 C 0.35962 0.08701 0.24479 0.0
C2778 C 0.37221 0.10551 0.2544 0.0
C2779 C 0.40596 0.11815 0.27696 0.0
C2780 C 0.42485 0.11215 0.29122 0.0
C2781 C 0.38945 0.10106 0.27118 0.0
C2782 C 0.42582 0.09024 0.30198 0.0
C2783 C 0.40909 0.07351 0.29702 0.0
H2784 H 0.96744 0.39454 0.27514 0.0
H2785 H 0.92414 0.37249 0.21744 0.0
H2786 H 0.89141 0.39459 0.23297 0.0
H2787 H 0.87839 0.42723 0.25794 0.0
H2788 H 0.92235 0.44982 0.31472 0.0
H2789 H 0.95148 0.42045 0.30474 0.0
C2790 C 0.95063 0.39404 0.26636 0.0
C2791 C 0.9484 0.38268 0.24486 0.0
C2792 C 0.93213 0.40727 0.27498 0.0
C2793 C 0.92641 0.38152 0.2339 0.0
C2794 C 0.9077 0.39433 0.24263 0.0
C2795 C 0.89407 0.42509 0.26838 0.0
C2796 C 0.89873 0.44054 0.28664 0.0
C2797 C 0.91085 0.40841 0.26233 0.0
C2798 C 0.91884 0.43795 0.30039 0.0
C2799 C 0.93543 0.42127 0.2947 0.0
H2800 H 0.62691 0.93223 0.23293 0.0
H2801 H 0.61409 0.98113 0.28871 0.0
H2802 H 0.5961 0.9501 0.3118 0.0
H2803 H 0.57524 0.91275 0.3111 0.0
H2804 H 0.58092 0.86755 0.2513 0.0
H2805 H 0.61047 0.89335 0.23439 0.0
C2806 C 0.6206 0.93598 0.25038 0.0
C2807 C 0.62093 0.95896 0.25889 0.0
C2808 C 0.60859 0.91876 0.26243 0.0
C2809 C 0.61362 0.96358 0.28174 0.0
C2810 C 0.60311 0.94593 0.29476 0.0
C2811 C 0.58362 0.90832 0.29471 0.0
C2812 C 0.57628 0.8886 0.28222 0.0
C2813 C 0.59912 0.924 0.28454 0.0
C2814 C 0.5866 0.88278 0.26095 0.0
C2815 C 0.60332 0.89752 0.25137 0.0
H2816 H 0.09044 0.64993 0.24897 0.0
H2817 H 0.069 0.60136 0.19567 0.0
H2818 H 0.10074 0.57502 0.20612 0.0
H2819 H 0.12809 0.56237 0.23586 0.0
H2820 H 0.14782 0.60939 0.29136 0.0
H2821 H 0.12428 0.6402 0.27401 0.0
C2822 C 0.09327 0.63383 0.23943 0.0
C2823 C 0.07749 0.627 0.22214 0.0
C2824 C 0.11117 0.61853 0.24594 0.0
C2825 C 0.08103 0.60643 0.20941 0.0
C2826 C 0.0991 0.59147 0.21531 0.0
C2827 C 0.12777 0.57956 0.24377 0.0
C2828 C 0.13868 0.58333 0.26531 0.0
C2829 C 0.11339 0.59676 0.23439 0.0
C2830 C 0.13897 0.60589 0.275 0.0
C2831 C 0.12533 0.62349 0.26524 0.0
H2832 H 0.36589 0.93095 0.73826 0.0
H2833 H 0.3819 0.91593 0.81018 0.0
H2834 H 0.40749 0.88406 0.79837 0.0
H2835 H 0.4323 0.86786 0.76726 0.0
H2836 H 0.41476 0.88147 0.69538 0.0
H2837 H 0.3823 0.90618 0.70737 0.0
C2838 C 0.37419 0.91995 0.75125 0.0
C2839 C 0.37261 0.92579 0.77486 0.0
C2840 C 0.38887 0.90177 0.74434 0.0
C2841 C 0.3831 0.91156 0.79182 0.0
C2842 C 0.39791 0.89355 0.78509 0.0
C2843 C 0.42076 0.87559 0.75436 0.0
C2844 C 0.42596 0.87352 0.73065 0.0
C2845 C 0.40207 0.88958 0.76137 0.0
C2846 C 0.41095 0.88313 0.71382 0.0
C2847 C 0.39253 0.89735 0.72063 0.0
H2848 H 0.09836 0.36777 0.77509 0.0
H2849 H 0.04486 0.37576 0.72255 0.0
H2850 H 0.07307 0.3937 0.69627 0.0
H2851 H 0.10874 0.41616 0.69322 0.0
H2852 H 0.15922 0.41496 0.7493 0.0
H2853 H 0.13694 0.38449 0.76885 0.0
C2854 C 0.09309 0.37274 0.75759 0.0
C2855 C 0.06957 0.3711 0.75085 0.0
C2856 C 0.10889 0.38453 0.74338 0.0
C2857 C 0.06286 0.37739 0.72816 0.0
C2858 C 0.07895 0.38767 0.71321 0.0
C2859 C 0.11532 0.40874 0.70935 0.0
C2860 C 0.13508 0.41833 0.7203 0.0
C2861 C 0.10147 0.3928 0.72134 0.0
C2862 C 0.14368 0.4082 0.74089 0.0
C2863 C 0.13086 0.39092 0.75212 0.0
H2864 H 0.64067 0.05968 0.73136 0.0
H2865 H 0.63732 0.10287 0.79281 0.0
H2866 H 0.61972 0.13435 0.77016 0.0
H2867 H 0.59447 0.14317 0.73659 0.0
H2868 H 0.59618 0.09897 0.67589 0.0
H2869 H 0.62606 0.07456 0.69402 0.0
C2870 C 0.63693 0.07638 0.73944 0.0
C2871 C 0.6393 0.07896 0.76359 0.0
C2872 C 0.62636 0.09403 0.72646 0.0
C2873 C 0.63513 0.10061 0.77415 0.0
C2874 C 0.62495 0.1185 0.76127 0.0
C2875 C 0.60244 0.12895 0.72699 0.0
C2876 C 0.59322 0.12233 0.70539 0.0
C2877 C 0.61882 0.11459 0.73791 0.0
C2878 C 0.60328 0.10406 0.6927 0.0
C2879 C 0.62008 0.08999 0.70317 0.0
H2880 H 0.92477 0.60859 0.81501 0.0
H2881 H 0.93098 0.65453 0.75609 0.0
H2882 H 0.90058 0.63274 0.7353 0.0
H2883 H 0.88237 0.59482 0.7301 0.0
H2884 H 0.88379 0.54463 0.78611 0.0
H2885 H 0.90044 0.57389 0.8123 0.0
C2886 C 0.91855 0.61432 0.79803 0.0
C2887 C 0.92976 0.63276 0.78679 0.0
C2888 C 0.90287 0.60049 0.7856 0.0
C2889 C 0.92224 0.64029 0.76484 0.0
C2890 C 0.90514 0.62767 0.75295 0.0
C2891 C 0.8856 0.59052 0.74825 0.0
C2892 C 0.88263 0.56755 0.75612 0.0
C2893 C 0.8968 0.60676 0.7625 0.0
C2894 C 0.88656 0.56215 0.77966 0.0
C2895 C 0.8961 0.57882 0.79456 0.0
H2896 H 0.23736 0.37834 0.09096 0.0
H2897 H 0.29455 0.38665 0.04283 0.0
H2898 H 0.31647 0.40826 0.07242 0.0
H2899 H 0.31547 0.43151 0.10822 0.0
H2900 H 0.25562 0.42839 0.15328 0.0
H2901 H 0.23851 0.39761 0.12885 0.0
C2902 C 0.25489 0.38429 0.08713 0.0
C2903 C 0.26423 0.38132 0.06465 0.0
C2904 C 0.26667 0.39784 0.10363 0.0
C2905 C 0.28694 0.38906 0.05994 0.0
C2906 C 0.2994 0.40146 0.07679 0.0
C2907 C 0.29905 0.42341 0.11299 0.0
C2908 C 0.28667 0.43175 0.13229 0.0
C2909 C 0.28887 0.40699 0.09815 0.0
C2910 C 0.2653 0.42183 0.13846 0.0
C2911 C 0.25555 0.40446 0.12443 0.0
H2912 H 0.24173 0.63383 0.92614 0.0
H2913 H 0.29365 0.63437 0.98077 0.0
H2914 H 0.32131 0.61467 0.95505 0.0
H2915 H 0.3261 0.58856 0.92212 0.0
H2916 H 0.27094 0.58145 0.8711 0.0
H2917 H 0.24934 0.61301 0.88982 0.0
C2918 C 0.2594 0.63037 0.93205 0.0
C2919 C 0.2657 0.63497 0.95527 0.0
C2920 C 0.27438 0.61747 0.9179 0.0
C2921 C 0.28851 0.63053 0.96296 0.0
C2922 C 0.3042 0.61921 0.94833 0.0
C2923 C 0.30967 0.59436 0.91465 0.0
C2924 C 0.29967 0.58227 0.8958 0.0
C2925 C 0.29667 0.61115 0.92647 0.0
C2926 C 0.27863 0.59019 0.88602 0.0
C2927 C 0.26627 0.60814 0.89676 0.0
H2928 H 0.40318 0.20375 0.9203 0.0
H2929 H 0.38127 0.27023 0.94769 0.0
H2930 H 0.40147 0.29023 0.91582 0.0
H2931 H 0.43133 0.2886 0.88587 0.0
H2932 H 0.46042 0.22247 0.86511 0.0
H2933 H 0.43089 0.20203 0.88819 0.0
C2934 C 0.40239 0.2226 0.91882 0.0
C2935 C 0.39103 0.23575 0.93596 0.0
C2936 C 0.41539 0.23378 0.90173 0.0
C2937 C 0.39017 0.26005 0.93449 0.0
C2938 C 0.40167 0.27135 0.91639 0.0
C2939 C 0.43061 0.26969 0.8858 0.0
C2940 C 0.44768 0.25683 0.87399 0.0
C2941 C 0.41521 0.25839 0.90066 0.0
C2942 C 0.44721 0.23245 0.87419 0.0
C2943 C 0.43054 0.2209 0.88747 0.0
H2944 H 0.81352 0.39609 0.91728 0.0
H2945 H 0.75072 0.3601 0.93718 0.0
H2946 H 0.72982 0.37744 0.90411 0.0
H2947 H 0.72749 0.40952 0.87706 0.0
H2948 H 0.78776 0.45298 0.865 0.0
H2949 H 0.81224 0.42514 0.88606 0.0
C2950 C 0.79542 0.39165 0.91382 0.0
C2951 C 0.7833 0.37732 0.92936 0.0
C2952 C 0.78327 0.40309 0.89615 0.0
C2953 C 0.75998 0.37145 0.92529 0.0
C2954 C 0.74819 0.3813 0.90648 0.0
C2955 C 0.74609 0.41276 0.87863 0.0
C2956 C 0.75567 0.43382 0.87069 0.0
C2957 C 0.75931 0.39825 0.89285 0.0
C2958 C 0.7799 0.4372 0.8717 0.0
C2959 C 0.79381 0.42143 0.88394 0.0
H2960 H 0.64003 0.75456 0.94628 0.0
H2961 H 0.61366 0.82038 0.92143 0.0
H2962 H 0.59066 0.80047 0.89148 0.0
H2963 H 0.57249 0.76404 0.87821 0.0
H2964 H 0.59984 0.69824 0.90196 0.0
H2965 H 0.62866 0.71837 0.92622 0.0
C2966 C 0.62972 0.76443 0.93382 0.0
C2967 C 0.62792 0.78862 0.93609 0.0
C2968 C 0.61673 0.75292 0.91669 0.0
C2969 C 0.615 0.80161 0.91985 0.0
C2970 C 0.6018 0.79027 0.90289 0.0
C2971 C 0.58533 0.75425 0.88813 0.0
C2972 C 0.58406 0.72996 0.88887 0.0
C2973 C 0.60167 0.7659 0.90196 0.0
C2974 C 0.60071 0.71709 0.90138 0.0
C2975 C 0.61698 0.72855 0.91536 0.0
H2976 H 0.79262 0.61222 0.08149 0.0
H2977 H 0.72466 0.63752 0.06143 0.0
H2978 H 0.70647 0.61262 0.09103 0.0
H2979 H 0.70984 0.57885 0.11654 0.0
H2980 H 0.77712 0.54765 0.12933 0.0
H2981 H 0.79617 0.57991 0.10882 0.0
C2982 C 0.77388 0.61272 0.08422 0.0
C2983 C 0.75978 0.62656 0.06981 0.0
C2984 C 0.76368 0.59711 0.09965 0.0
C2985 C 0.73558 0.62694 0.07268 0.0
C2986 C 0.72531 0.61267 0.0894 0.0
C2987 C 0.72874 0.57957 0.11537 0.0
C2988 C 0.74229 0.56129 0.12433 0.0
C2989 C 0.73915 0.59696 0.10213 0.0
C2990 C 0.76661 0.56176 0.12245 0.0
C2991 C 0.77736 0.58006 0.11072 0.0
H2992 H 0.37709 0.75507 0.08226 0.0
H2993 H 0.40874 0.82308 0.08391 0.0
H2994 H 0.43605 0.8103 0.11415 0.0
H2995 H 0.45566 0.77739 0.1335 0.0
H2996 H 0.42285 0.70978 0.13314 0.0
H2997 H 0.39079 0.72486 0.10956 0.0
C2998 C 0.38938 0.76722 0.09002 0.0
C2999 C 0.39129 0.78975 0.08104 0.0
C3000 C 0.40495 0.75976 0.10733 0.0
C3001 C 0.40713 0.8056 0.09088 0.0
C3002 C 0.42284 0.79827 0.10795 0.0
C3003 C 0.44107 0.76625 0.12885 0.0
C3004 C 0.44174 0.74253 0.13447 0.0
C3005 C 0.42268 0.77503 0.11535 0.0
C3006 C 0.42269 0.72816 0.12881 0.0
C3007 C 0.40444 0.73669 0.11518 0.0
H3008 H 0.64513 0.26931 0.07577 0.0
H3009 H 0.62957 0.19958 0.09879 0.0
H3010 H 0.60417 0.21489 0.12925 0.0
H3011 H 0.57892 0.24734 0.14131 0.0
H3012 H 0.59488 0.31711 0.11884 0.0
H3013 H 0.62816 0.30273 0.0965 0.0
C3014 C 0.63688 0.25763 0.08812 0.0
C3015 C 0.63846 0.23354 0.08489 0.0
C3016 C 0.62219 0.26653 0.10535 0.0
C3017 C 0.62825 0.21829 0.10102 0.0
C3018 C 0.61359 0.227 0.11826 0.0
C3019 C 0.59035 0.25937 0.13227 0.0
C3020 C 0.5845 0.28296 0.13102 0.0
C3021 C 0.60923 0.25097 0.11943 0.0
C3022 C 0.59926 0.29875 0.11969 0.0
C3023 C 0.6181 0.29055 0.10682 0.0
H3024 H 0.91822 0.8095 0.61151 0.0
H3025 H 0.91681 0.74795 0.65435 0.0
H3026 H 0.88473 0.73206 0.63078 0.0
H3027 H 0.86514 0.73185 0.59323 0.0
H3028 H 0.87369 0.78963 0.54585 0.0
H3029 H 0.89426 0.81153 0.57623 0.0
C3030 C 0.91018 0.79299 0.61604 0.0
C3031 C 0.91943 0.7797 0.63432 0.0
C3032 C 0.8933 0.78336 0.60138 0.0
C3033 C 0.9096 0.75824 0.64022 0.0
C3034 C 0.89148 0.74922 0.6267 0.0
C3035 C 0.87083 0.74954 0.58975 0.0
C3036 C 0.86849 0.75901 0.56726 0.0
C3037 C 0.88429 0.76102 0.60646 0.0
C3038 C 0.87574 0.78194 0.56299 0.0
C3039 C 0.88759 0.79434 0.58027 0.0
H3040 H 0.22244 0.92251 0.63138 0.0
H3041 H 0.27461 0.97541 0.61936 0.0
H3042 H 0.29948 0.94662 0.60013 0.0
H3043 H 0.30178 0.9095 0.57933 0.0
H3044 H 0.24586 0.85976 0.58483 0.0
H3045 H 0.22693 0.884 0.61457 0.0
C3046 C 0.23952 0.92766 0.62511 0.0
C3047 C 0.24657 0.95107 0.62623 0.0
C3048 C 0.25279 0.91155 0.61276 0.0
C3049 C 0.26874 0.9575 0.61823 0.0
C3050 C 0.28287 0.9411 0.60723 0.0
C3051 C 0.28585 0.90375 0.58775 0.0
C3052 C 0.27499 0.8832 0.58037 0.0
C3053 C 0.27441 0.91851 0.60325 0.0
C3054 C 0.25428 0.87565 0.59066 0.0
C3055 C 0.2435 0.88953 0.60741 0.0
H3056 H 0.08631 0.23243 0.6243 0.0
H3057 H 0.0341 0.2862 0.61678 0.0
H3058 H 0.06263 0.3114 0.59768 0.0
H3059 H 0.09934 0.31441 0.57642 0.0
H3060 H 0.14848 0.25763 0.57775 0.0
H3061 H 0.12445 0.23713 0.60653 0.0
C3062 C 0.08135 0.24991 0.61905 0.0
C3063 C 0.0582 0.25748 0.62152 0.0
C3064 C 0.09727 0.26349 0.60685 0.0
C3065 C 0.05184 0.28005 0.61466 0.0
C3066 C 0.06808 0.29436 0.60375 0.0
C3067 C 0.10498 0.29786 0.58369 0.0
C3068 C 0.12533 0.28728 0.57546 0.0
C3069 C 0.0904 0.28573 0.59873 0.0
C3070 C 0.13275 0.26582 0.58425 0.0
C3071 C 0.11899 0.25418 0.60047 0.0
H3072 H 0.78367 0.0951 0.62655 0.0
H3073 H 0.72384 0.04955 0.62471 0.0
H3074 H 0.7012 0.07957 0.60444 0.0
H3075 H 0.70161 0.11461 0.5803 0.0
H3076 H 0.76428 0.15562 0.57522 0.0
H3077 H 0.78277 0.13198 0.60572 0.0
C3078 C 0.76545 0.09204 0.62231 0.0
C3079 C 0.75533 0.07026 0.62678 0.0
C3080 C 0.75329 0.10857 0.60929 0.0
C3081 C 0.73188 0.06624 0.62111 0.0
C3082 C 0.71904 0.08332 0.60953 0.0
C3083 C 0.71901 0.11876 0.5866 0.0
C3084 C 0.73174 0.13663 0.57602 0.0
C3085 C 0.72999 0.10398 0.60249 0.0
C3086 C 0.75438 0.14187 0.58352 0.0
C3087 C 0.7649 0.12829 0.60071 0.0
H3088 H 0.92949 0.21196 0.39506 0.0
H3089 H 0.94283 0.27618 0.35865 0.0
H3090 H 0.91358 0.29618 0.3826 0.0
H3091 H 0.89045 0.29661 0.41814 0.0
H3092 H 0.88369 0.23414 0.45935 0.0
H3093 H 0.90402 0.21178 0.42914 0.0
C3094 C 0.92532 0.23016 0.39196 0.0
C3095 C 0.93777 0.24275 0.37521 0.0
C3096 C 0.91006 0.24172 0.40691 0.0
C3097 C 0.93306 0.26637 0.37146 0.0
C3098 C 0.91657 0.27772 0.38521 0.0
C3099 C 0.89289 0.27796 0.42019 0.0
C3100 C 0.88577 0.26687 0.44077 0.0
C3101 C 0.90584 0.26578 0.40365 0.0
C3102 C 0.88925 0.24288 0.44358 0.0
C3103 C 0.90085 0.2302 0.42639 0.0
H3104 H 0.76394 0.99811 0.43099 0.0
H3105 H 0.73775 0.96643 0.36802 0.0
H3106 H 0.72239 0.93361 0.39046 0.0
H3107 H 0.72343 0.911 0.42665 0.0
H3108 H 0.75412 0.9412 0.4887 0.0
H3109 H 0.76121 0.97737 0.46785 0.0
C3110 C 0.75379 0.98456 0.42245 0.0
C3111 C 0.75165 0.9845 0.39814 0.0
C3112 C 0.74709 0.96493 0.43508 0.0
C3113 C 0.73913 0.96676 0.38688 0.0
C3114 C 0.73093 0.9478 0.39961 0.0
C3115 C 0.73188 0.92542 0.43555 0.0
C3116 C 0.73881 0.92318 0.45895 0.0
C3117 C 0.73617 0.94609 0.42345 0.0
C3118 C 0.74931 0.94217 0.47043 0.0
C3119 C 0.75311 0.96298 0.45866 0.0
H3120 H 0.07949 0.80264 0.40721 0.0
H3121 H 0.05076 0.7382 0.38128 0.0
H3122 H 0.07976 0.71607 0.40369 0.0
H3123 H 0.10816 0.71535 0.43544 0.0
H3124 H 0.13103 0.77965 0.46704 0.0
H3125 H 0.10977 0.80195 0.43733 0.0
C3126 C 0.08011 0.78377 0.40606 0.0
C3127 C 0.0634 0.77183 0.39277 0.0
C3128 C 0.09559 0.77135 0.42015 0.0
C3129 C 0.06369 0.74748 0.39154 0.0
C3130 C 0.08013 0.73494 0.40434 0.0
C3131 C 0.10898 0.73425 0.43533 0.0
C3132 C 0.12102 0.74605 0.45307 0.0
C3133 C 0.09546 0.74671 0.41942 0.0
C3134 C 0.12176 0.77044 0.45335 0.0
C3135 C 0.10957 0.78308 0.43651 0.0
H3136 H 0.26592 0.07989 0.46764 0.0
H3137 H 0.25908 0.13833 0.42093 0.0
H3138 H 0.25307 0.11164 0.38798 0.0
H3139 H 0.24832 0.07194 0.37326 0.0
H3140 H 0.25525 0.01353 0.42016 0.0
H3141 H 0.26455 0.04006 0.45223 0.0
C3142 C 0.26255 0.08671 0.45029 0.0
C3143 C 0.26189 0.11087 0.4466 0.0
C3144 C 0.26023 0.07136 0.43152 0.0
C3145 C 0.25878 0.11971 0.42404 0.0
C3146 C 0.25578 0.10451 0.40528 0.0
C3147 C 0.25248 0.065 0.39039 0.0
C3148 C 0.25082 0.04093 0.39447 0.0
C3149 C 0.25651 0.08034 0.40887 0.0
C3150 C 0.25653 0.03202 0.41658 0.0
C3151 C 0.26133 0.04719 0.43501 0.0
H3152 H 0.61037 0.92597 0.79658 0.0
H3153 H 0.62762 0.95611 0.72998 0.0
H3154 H 0.60719 0.9243 0.7099 0.0
H3155 H 0.57958 0.89214 0.71187 0.0
H3156 H 0.55589 0.86712 0.77859 0.0
H3157 H 0.58418 0.89243 0.79848 0.0
C3158 C 0.61007 0.92516 0.77765 0.0
C3159 C 0.62037 0.94299 0.76456 0.0
C3160 C 0.59711 0.90787 0.7665 0.0
C3161 C 0.61966 0.94237 0.74016 0.0
C3162 C 0.60802 0.9243 0.7288 0.0
C3163 C 0.58119 0.89176 0.73075 0.0
C3164 C 0.56611 0.87784 0.74394 0.0
C3165 C 0.596 0.90751 0.74185 0.0
C3166 C 0.56762 0.87774 0.76832 0.0
C3167 C 0.5836 0.89225 0.77957 0.0
H3168 H 0.09322 0.61337 0.79643 0.0
H3169 H 0.03452 0.58256 0.76025 0.0
H3170 H 0.05735 0.54779 0.75235 0.0
H3171 H 0.0947 0.52757 0.75267 0.0
H3172 H 0.1548 0.56003 0.78398 0.0
H3173 H 0.13041 0.59214 0.79826 0.0
C3174 C 0.08551 0.59913 0.7866 0.0
C3175 C 0.06233 0.60075 0.77864 0.0
C3176 C 0.09875 0.57916 0.78201 0.0
C3177 C 0.0525 0.58206 0.76613 0.0
C3178 C 0.06541 0.56197 0.7619 0.0
C3179 C 0.10214 0.54118 0.76359 0.0
C3180 C 0.12619 0.54139 0.76791 0.0
C3181 C 0.08854 0.56042 0.76963 0.0
C3182 C 0.13611 0.55937 0.78118 0.0
C3183 C 0.1223 0.57794 0.78874 0.0
H3184 H 0.4189 0.04531 0.77364 0.0
H3185 H 0.36337 0.08444 0.74142 0.0
H3186 H 0.39087 0.11601 0.7322 0.0
H3187 H 0.43093 0.1307 0.73169 0.0
H3188 H 0.48607 0.09108 0.76477 0.0
H3189 H 0.45786 0.06187 0.77695 0.0
C3190 C 0.41301 0.0606 0.76417 0.0
C3191 C 0.3897 0.0624 0.75706 0.0
C3192 C 0.42851 0.07873 0.76 0.0
C3193 C 0.38162 0.0826 0.74605 0.0
C3194 C 0.39718 0.10065 0.74121 0.0
C3195 C 0.43676 0.11596 0.74202 0.0
C3196 C 0.46066 0.11269 0.74671 0.0
C3197 C 0.42069 0.09877 0.74803 0.0
C3198 C 0.46782 0.09384 0.76063 0.0
C3199 C 0.45179 0.07694 0.76728 0.0
H3200 H 0.93894 0.36871 0.74975 0.0
H3201 H 0.92622 0.39527 0.81892 0.0
H3202 H 0.89572 0.42092 0.80386 0.0
H3203 H 0.88109 0.44248 0.7698 0.0
H3204 H 0.89338 0.41557 0.70068 0.0
H3205 H 0.91516 0.38277 0.71689 0.0
C3206 C 0.92875 0.37946 0.76153 0.0
C3207 C 0.93494 0.38079 0.78511 0.0
C3208 C 0.91149 0.39424 0.75273 0.0
C3209 C 0.92166 0.3943 0.80057 0.0
C3210 C 0.90441 0.40908 0.79197 0.0
C3211 C 0.88779 0.42887 0.75847 0.0
C3212 C 0.8864 0.43148 0.73425 0.0
C3213 C 0.9004 0.41029 0.76789 0.0
C3214 C 0.89459 0.4138 0.71947 0.0
C3215 C 0.90718 0.3952 0.72869 0.0
H3216 H 0.59711 0.10547 0.20233 0.0
H3217 H 0.64117 0.09063 0.26174 0.0
H3218 H 0.62062 0.12011 0.28457 0.0
H3219 H 0.58337 0.13987 0.29064 0.0
H3220 H 0.53481 0.14676 0.23347 0.0
H3221 H 0.56383 0.13106 0.20652 0.0
C3222 C 0.60274 0.10917 0.22005 0.0
C3223 C 0.6199 0.09532 0.23074 0.0
C3224 C 0.58955 0.12446 0.23355 0.0
C3225 C 0.62747 0.10069 0.25344 0.0
C3226 C 0.61563 0.11741 0.2665 0.0
C3227 C 0.57956 0.13871 0.27211 0.0
C3228 C 0.5571 0.14386 0.26388 0.0
C3229 C 0.59551 0.12788 0.25729 0.0
C3230 C 0.55204 0.14242 0.24 0.0
C3231 C 0.56855 0.1334 0.2247 0.0
H3232 H 0.92328 0.62097 0.20594 0.0
H3233 H 0.95038 0.64856 0.27052 0.0
H3234 H 0.91997 0.62799 0.29233 0.0
H3235 H 0.89209 0.59604 0.29313 0.0
H3236 H 0.87221 0.56164 0.2292 0.0
H3237 H 0.89289 0.5913 0.20652 0.0
C3238 C 0.92194 0.62297 0.22474 0.0
C3239 C 0.93866 0.63601 0.23688 0.0
C3240 C 0.90587 0.60966 0.23703 0.0
C3241 C 0.93746 0.63842 0.26113 0.0
C3242 C 0.92023 0.62665 0.27347 0.0
C3243 C 0.8917 0.59561 0.27419 0.0
C3244 C 0.88085 0.57705 0.26258 0.0
C3245 C 0.90522 0.6113 0.26166 0.0
C3246 C 0.8806 0.576 0.2382 0.0
C3247 C 0.89248 0.59279 0.22538 0.0
H3248 H 0.36714 0.9265 0.25698 0.0
H3249 H 0.4017 0.92513 0.19036 0.0
H3250 H 0.43081 0.89791 0.2055 0.0
H3251 H 0.45047 0.88152 0.23999 0.0
H3252 H 0.41485 0.88186 0.30623 0.0
H3253 H 0.38174 0.90194 0.28882 0.0
C3254 C 0.38061 0.91951 0.24568 0.0
C3255 C 0.38277 0.92785 0.22293 0.0
C3256 C 0.39719 0.90399 0.25447 0.0
C3257 C 0.39994 0.91876 0.20806 0.0
C3258 C 0.41667 0.90342 0.21674 0.0
C3259 C 0.43516 0.88548 0.25037 0.0
C3260 C 0.43525 0.88093 0.27434 0.0
C3261 C 0.41614 0.89698 0.24028 0.0
C3262 C 0.41521 0.88551 0.28769 0.0
C3263 C 0.39632 0.89709 0.27783 0.0
H3264 H 0.08099 0.38307 0.26659 0.0
H3265 H 0.10034 0.40318 0.19687 0.0
H3266 H 0.13056 0.42893 0.21229 0.0
H3267 H 0.1445 0.45192 0.24574 0.0
H3268 H 0.12643 0.43062 0.31546 0.0
H3269 H 0.10308 0.39856 0.30001 0.0
C3270 C 0.09244 0.39252 0.2549 0.0
C3271 C 0.08837 0.39192 0.23089 0.0
C3272 C 0.10973 0.40717 0.26385 0.0
C3273 C 0.10329 0.40372 0.21556 0.0
C3274 C 0.1204 0.41853 0.22432 0.0
C3275 C 0.13609 0.43968 0.25742 0.0
C3276 C 0.1365 0.44367 0.28145 0.0
C3277 C 0.12277 0.42137 0.24846 0.0
C3278 C 0.12604 0.42775 0.29676 0.0
C3279 C 0.11257 0.40958 0.28798 0.0
H3280 H 0.79621 0.62412 0.91582 0.0
H3281 H 0.73038 0.64733 0.94351 0.0
H3282 H 0.7095 0.62374 0.91469 0.0
H3283 H 0.71058 0.58929 0.89023 0.0
H3284 H 0.77669 0.5606 0.86835 0.0
H3285 H 0.79701 0.59377 0.88577 0.0
C3286 C 0.77731 0.62474 0.91473 0.0
C3287 C 0.76465 0.63708 0.93159 0.0
C3288 C 0.7656 0.60958 0.89963 0.0
C3289 C 0.74025 0.63778 0.93054 0.0
C3290 C 0.72841 0.62412 0.91429 0.0
C3291 C 0.72942 0.59045 0.88888 0.0
C3292 C 0.74224 0.57208 0.87895 0.0
C3293 C 0.74095 0.60868 0.90009 0.0
C3294 C 0.76651 0.57424 0.87652 0.0
C3295 C 0.77812 0.59317 0.8865 0.0
H3296 H 0.74709 0.37325 0.05479 0.0
H3297 H 0.8131 0.37989 0.09055 0.0
H3298 H 0.79416 0.39962 0.12303 0.0
H3299 H 0.76081 0.4232 0.13575 0.0
H3300 H 0.6947 0.41614 0.10055 0.0
H3301 H 0.71146 0.38778 0.07351 0.0
C3302 C 0.75708 0.37842 0.07007 0.0
C3303 C 0.78132 0.37599 0.07019 0.0
C3304 C 0.74613 0.38979 0.08857 0.0
C3305 C 0.79431 0.38202 0.09012 0.0
C3306 C 0.78357 0.39339 0.10861 0.0
C3307 C 0.75 0.41461 0.12274 0.0
C3308 C 0.72695 0.42167 0.11954 0.0
C3309 C 0.75978 0.39863 0.10726 0.0
C3310 C 0.71266 0.4107 0.10296 0.0
C3311 C 0.72224 0.39472 0.08745 0.0
H3312 H 0.63914 0.75118 0.0665 0.0
H3313 H 0.62579 0.82093 0.09098 0.0
H3314 H 0.60106 0.80588 0.12213 0.0
H3315 H 0.57754 0.77326 0.13703 0.0
H3316 H 0.5929 0.70335 0.11416 0.0
H3317 H 0.62298 0.71791 0.08794 0.0
C3318 C 0.63142 0.76287 0.07923 0.0
C3319 C 0.63376 0.78691 0.07657 0.0
C3320 C 0.61743 0.75412 0.09706 0.0
C3321 C 0.62403 0.80223 0.09298 0.0
C3322 C 0.60976 0.79369 0.11059 0.0
C3323 C 0.58802 0.76132 0.12676 0.0
C3324 C 0.58302 0.73753 0.12696 0.0
C3325 C 0.60543 0.76975 0.11201 0.0
C3326 C 0.59664 0.72187 0.114 0.0
C3327 C 0.61369 0.73014 0.09896 0.0
H3328 H 0.20635 0.60393 0.09182 0.0
H3329 H 0.26533 0.65008 0.08754 0.0
H3330 H 0.28457 0.62932 0.11965 0.0
H3331 H 0.28813 0.59291 0.14136 0.0
H3332 H 0.23204 0.54291 0.13962 0.0
H3333 H 0.20757 0.57046 0.11809 0.0
C3334 C 0.22303 0.60983 0.09865 0.0
C3335 C 0.23463 0.62825 0.08776 0.0
C3336 C 0.23446 0.59688 0.11581 0.0
C3337 C 0.2563 0.63587 0.09604 0.0
C3338 C 0.26727 0.62393 0.11419 0.0
C3339 C 0.27023 0.58846 0.13701 0.0
C3340 C 0.26181 0.56602 0.14167 0.0
C3341 C 0.25707 0.60362 0.12319 0.0
C3342 C 0.23876 0.56014 0.13589 0.0
C3343 C 0.2249 0.57579 0.1235 0.0
H3344 H 0.40952 0.19909 0.07735 0.0
H3345 H 0.36354 0.25847 0.0772 0.0
H3346 H 0.38511 0.27548 0.11018 0.0
H3347 H 0.42181 0.2773 0.1313 0.0
H3348 H 0.47226 0.22183 0.12441 0.0
H3349 H 0.44384 0.19861 0.10252 0.0
C3350 C 0.40394 0.21542 0.08517 0.0
C3351 C 0.38543 0.22786 0.07528 0.0
C3352 C 0.41735 0.22562 0.10263 0.0
C3353 C 0.37797 0.24894 0.08489 0.0
C3354 C 0.39031 0.25857 0.10353 0.0
C3355 C 0.42633 0.25981 0.12567 0.0
C3356 C 0.44908 0.25129 0.12888 0.0
C3357 C 0.41079 0.24767 0.1115 0.0
C3358 C 0.45485 0.22869 0.12168 0.0
C3359 C 0.43871 0.21557 0.10911 0.0
H3360 H 0.21061 0.40611 0.92846 0.0
H3361 H 0.26753 0.3578 0.92037 0.0
H3362 H 0.28338 0.38145 0.88855 0.0
H3363 H 0.28684 0.42054 0.87274 0.0
H3364 H 0.23493 0.47251 0.88877 0.0
H3365 H 0.21025 0.44263 0.9064 0.0
C3366 C 0.22599 0.40045 0.91898 0.0
C3367 C 0.23824 0.38068 0.92649 0.0
C3368 C 0.23579 0.41502 0.90224 0.0
C3369 C 0.25812 0.37314 0.91463 0.0
C3370 C 0.26712 0.3867 0.89662 0.0
C3371 C 0.26973 0.42512 0.87944 0.0
C3372 C 0.26303 0.44865 0.88059 0.0
C3373 C 0.25703 0.40846 0.89163 0.0
C3374 C 0.24059 0.4545 0.88825 0.0
C3375 C 0.22669 0.43748 0.89864 0.0
H3376 H 0.63839 0.22077 0.92327 0.0
H3377 H 0.63608 0.28407 0.96389 0.0
H3378 H 0.61534 0.30379 0.93208 0.0
H3379 H 0.59118 0.30016 0.89707 0.0
H3380 H 0.58629 0.23421 0.86142 0.0
H3381 H 0.61707 0.21816 0.88657 0.0
C3382 C 0.63398 0.2391 0.92483 0.0
C3383 C 0.63857 0.25108 0.94573 0.0
C3384 C 0.6206 0.24958 0.9074 0.0
C3385 C 0.63253 0.27464 0.94788 0.0
C3386 C 0.62064 0.2858 0.92979 0.0
C3387 C 0.59756 0.28253 0.89439 0.0
C3388 C 0.58701 0.26827 0.87754 0.0
C3389 C 0.6136 0.27305 0.91007 0.0
C3390 C 0.59458 0.24533 0.87429 0.0
C3391 C 0.61194 0.23622 0.88874 0.0
H3392 H 0.39558 0.7909 0.9203 0.0
H3393 H 0.38502 0.73065 0.9639 0.0
H3394 H 0.40684 0.7065 0.93625 0.0
H3395 H 0.43498 0.70473 0.90435 0.0
H3396 H 0.45162 0.76675 0.86565 0.0
H3397 H 0.421 0.78831 0.88637 0.0
C3398 C 0.39747 0.77232 0.92332 0.0
C3399 C 0.38892 0.76238 0.94393 0.0
C3400 C 0.41134 0.75913 0.90834 0.0
C3401 C 0.39167 0.73848 0.94806 0.0
C3402 C 0.40416 0.7248 0.93237 0.0
C3403 C 0.43127 0.72279 0.90007 0.0
C3404 C 0.44502 0.73437 0.88365 0.0
C3405 C 0.41499 0.73522 0.91312 0.0
C3406 C 0.44086 0.75776 0.87826 0.0
C3407 C 0.42355 0.76998 0.89015 0.0
loop_
_geom_bond_atom_site_label_1
_geom_bond_atom_site_label_2
_geom_bond_distance
_geom_bond_site_symmetry_2
_ccdc_geom_bond_type
O0 Zn1 1.953 . S
O0 C16 1.225 . S
Zn1 O0 1.953 . S
Zn1 O2 1.949 . S
Zn1 O8 1.919 . S
Zn1 O13 1.924 1_455 S
O2 Zn1 1.949 . S
O2 Zn3 1.923 . S
O2 Zn4 1.950 . S
O2 Zn5 1.945 1_455 S
Zn3 O2 1.923 . S
Zn3 O6 1.933 1_455 S
Zn3 O9 1.941 . S
Zn3 O10 1.965 . S
Zn4 O2 1.950 . S
Zn4 O11 1.938 . S
Zn4 O12 1.906 . S
Zn4 O22 1.953 . S
Zn5 O2 1.945 1_655 S
Zn5 O7 1.932 . S
Zn5 O14 1.977 . S
Zn5 O15 1.910 . S
O6 Zn3 1.933 1_655 S
O6 C17 1.226 . S
O7 Zn5 1.932 . S
O7 C17 1.307 . S
O8 Zn1 1.919 . S
O8 C19 1.253 . S
O9 Zn3 1.941 . S
O9 C19 1.283 . S
O10 Zn3 1.965 . S
O10 C18 1.303 . S
O11 Zn4 1.938 . S
O11 C18 1.247 . S
O12 Zn4 1.906 . S
O12 C20 1.304 . S
O13 Zn1 1.924 1_655 S
O13 C21 1.311 . S
O14 Zn5 1.977 . S
O14 C20 1.272 1_655 S
O15 Zn5 1.910 . S
O15 C21 1.231 . S
C16 O0 1.225 . S
C16 O22 1.298 . S
C17 O6 1.226 . S
C17 O7 1.307 . S
C18 O10 1.303 . S
C18 O11 1.247 . S
C19 O8 1.253 . S
C19 O9 1.283 . S
C20 O12 1.304 . S
C20 O14 1.272 1_455 S
C21 O13 1.311 . S
C21 O15 1.231 . S
O22 Zn4 1.953 . S
O22 C16 1.298 . S
O23 Zn24 1.953 1_565 S
O23 C39 1.225 . S
Zn24 O23 1.953 1_545 S
Zn24 O25 1.949 . S
Zn24 O31 1.919 . S
Zn24 O36 1.924 . S
O25 Zn24 1.949 . S
O25 Zn26 1.923 . S
O25 Zn27 1.950 1_545 S
O25 Zn28 1.945 . S
Zn26 O25 1.923 . S
Zn26 O29 1.933 . S
Zn26 O32 1.941 . S
Zn26 O33 1.965 . S
Zn27 O25 1.950 1_565 S
Zn27 O34 1.938 . S
Zn27 O35 1.906 . S
Zn27 O45 1.953 . S
Zn28 O25 1.945 . S
Zn28 O30 1.932 . S
Zn28 O37 1.977 1_545 S
Zn28 O38 1.910 . S
O29 Zn26 1.933 . S
O29 C40 1.226 . S
O30 Zn28 1.932 . S
O30 C40 1.307 . S
O31 Zn24 1.919 . S
O31 C42 1.253 . S
O32 Zn26 1.941 . S
O32 C42 1.283 . S
O33 Zn26 1.965 . S
O33 C41 1.303 . S
O34 Zn27 1.938 . S
O34 C41 1.247 1_565 S
O35 Zn27 1.906 . S
O35 C43 1.304 . S
O36 Zn24 1.924 . S
O36 C44 1.311 . S
O37 Zn28 1.977 1_565 S
O37 C43 1.272 . S
O38 Zn28 1.910 . S
O38 C44 1.231 . S
C39 O23 1.225 . S
C39 O45 1.298 . S
C40 O29 1.226 . S
C40 O30 1.307 . S
C41 O33 1.303 . S
C41 O34 1.247 1_545 S
C42 O31 1.253 . S
C42 O32 1.283 . S
C43 O35 1.304 . S
C43 O37 1.272 . S
C44 O36 1.311 . S
C44 O38 1.231 . S
O45 Zn27 1.953 . S
O45 C39 1.298 . S
O46 Zn47 1.953 1_655 S
O46 C62 1.225 . S
Zn47 O46 1.953 1_455 S
Zn47 O48 1.949 . S
Zn47 O54 1.919 . S
Zn47 O59 1.924 . S
O48 Zn47 1.949 . S
O48 Zn49 1.923 . S
O48 Zn50 1.950 1_455 S
O48 Zn51 1.945 . S
Zn49 O48 1.923 . S
Zn49 O52 1.933 . S
Zn49 O55 1.944 . S
Zn49 O56 1.965 1_455 S
Zn50 O48 1.950 1_655 S
Zn50 O57 1.938 . S
Zn50 O58 1.906 . S
Zn50 O68 1.953 . S
Zn51 O48 1.945 . S
Zn51 O53 1.932 . S
Zn51 O60 1.977 . S
Zn51 O61 1.910 . S
O52 Zn49 1.933 . S
O52 C63 1.226 . S
O53 Zn51 1.932 . S
O53 C63 1.307 . S
O54 Zn47 1.919 . S
O54 C65 1.253 . S
O55 Zn49 1.944 . S
O55 C65 1.293 . S
O56 Zn49 1.965 1_655 S
O56 C64 1.303 . S
O57 Zn50 1.938 . S
O57 C64 1.247 . S
O58 Zn50 1.906 . S
O58 C66 1.304 1_655 S
O59 Zn47 1.924 . S
O59 C67 1.311 . S
O60 Zn51 1.977 . S
O60 C66 1.272 . S
O61 Zn51 1.910 . S
O61 C67 1.231 . S
C62 O46 1.225 . S
C62 O68 1.298 . S
C63 O52 1.226 . S
C63 O53 1.307 . S
C64 O56 1.303 . S
C64 O57 1.247 . S
C65 O54 1.253 . S
C65 O55 1.293 . S
C66 O58 1.304 1_455 S
C66 O60 1.272 . S
C67 O59 1.311 . S
C67 O61 1.231 . S
O68 Zn50 1.953 . S
O68 C62 1.298 . S
O69 Zn70 1.953 . S
O69 C85 1.225 . S
Zn70 O69 1.953 . S
Zn70 O71 1.949 . S
Zn70 O77 1.919 1_545 S
Zn70 O82 1.924 . S
O71 Zn70 1.949 . S
O71 Zn72 1.923 1_545 S
O71 Zn73 1.950 . S
O71 Zn74 1.945 . S
Zn72 O71 1.923 1_565 S
Zn72 O75 1.933 . S
Zn72 O78 1.941 . S
Zn72 O79 1.965 . S
Zn73 O71 1.950 . S
Zn73 O80 1.938 . S
Zn73 O81 1.906 . S
Zn73 O91 1.953 . S
Zn74 O71 1.945 . S
Zn74 O76 1.932 1_545 S
Zn74 O83 1.977 . S
Zn74 O84 1.910 . S
O75 Zn72 1.933 . S
O75 C86 1.226 . S
O76 Zn74 1.932 1_565 S
O76 C86 1.307 . S
O77 Zn70 1.919 1_565 S
O77 C88 1.253 . S
O78 Zn72 1.941 . S
O78 C88 1.283 . S
O79 Zn72 1.965 . S
O79 C87 1.303 1_565 S
O80 Zn73 1.938 . S
O80 C87 1.247 . S
O81 Zn73 1.906 . S
O81 C89 1.304 . S
O82 Zn70 1.924 . S
O82 C90 1.311 . S
O83 Zn74 1.977 . S
O83 C89 1.272 . S
O84 Zn74 1.910 . S
O84 C90 1.231 . S
C85 O69 1.225 . S
C85 O91 1.298 . S
C86 O75 1.226 . S
C86 O76 1.307 . S
C87 O79 1.303 1_545 S
C87 O80 1.247 . S
C88 O77 1.253 . S
C88 O78 1.283 . S
C89 O81 1.304 . S
C89 O83 1.272 . S
C90 O82 1.311 . S
C90 O84 1.231 . S
O91 Zn73 1.953 . S
O91 C85 1.298 . S
O92 Zn93 1.953 . S
O92 C108 1.225 . S
Zn93 O92 1.953 . S
Zn93 O94 1.949 . S
Zn93 O100 1.919 . S
Zn93 O105 1.924 1_455 S
O94 Zn93 1.949 . S
O94 Zn95 1.923 . S
O94 Zn96 1.950 . S
O94 Zn97 1.945 1_455 S
Zn95 O94 1.923 . S
Zn95 O98 1.933 1_455 S
Zn95 O101 1.941 . S
Zn95 O102 1.965 . S
Zn96 O94 1.950 . S
Zn96 O103 1.938 . S
Zn96 O104 1.906 . S
Zn96 O114 1.953 . S
Zn97 O94 1.945 1_655 S
Zn97 O99 1.932 . S
Zn97 O106 1.977 . S
Zn97 O107 1.910 . S
O98 Zn95 1.933 1_655 S
O98 C109 1.226 . S
O99 Zn97 1.932 . S
O99 C109 1.307 . S
O100 Zn93 1.919 . S
O100 C111 1.253 . S
O101 Zn95 1.941 . S
O101 C111 1.283 . S
O102 Zn95 1.965 . S
O102 C110 1.303 . S
O103 Zn96 1.938 . S
O103 C110 1.247 . S
O104 Zn96 1.906 . S
O104 C112 1.304 . S
O105 Zn93 1.924 1_655 S
O105 C113 1.311 . S
O106 Zn97 1.977 . S
O106 C112 1.272 1_655 S
O107 Zn97 1.910 . S
O107 C113 1.231 . S
C108 O92 1.225 . S
C108 O114 1.298 . S
C109 O98 1.226 . S
C109 O99 1.307 . S
C110 O102 1.303 . S
C110 O103 1.247 . S
C111 O100 1.253 . S
C111 O101 1.283 . S
C112 O104 1.304 . S
C112 O106 1.272 1_455 S
C113 O105 1.311 . S
C113 O107 1.231 . S
O114 Zn96 1.953 . S
O114 C108 1.298 . S
O115 Zn116 1.953 . S
O115 C131 1.225 . S
Zn116 O115 1.953 . S
Zn116 O117 1.949 . S
Zn116 O123 1.919 . S
Zn116 O128 1.924 1_545 S
O117 Zn116 1.949 . S
O117 Zn118 1.923 . S
O117 Zn119 1.950 . S
O117 Zn120 1.945 1_545 S
Zn118 O117 1.923 . S
Zn118 O121 1.933 1_545 S
Zn118 O124 1.941 . S
Zn118 O125 1.965 . S
Zn119 O117 1.950 . S
Zn119 O126 1.938 . S
Zn119 O127 1.906 . S
Zn119 O137 1.953 . S
Zn120 O117 1.945 1_565 S
Zn120 O122 1.932 . S
Zn120 O129 1.977 . S
Zn120 O130 1.910 . S
O121 Zn118 1.933 1_565 S
O121 C132 1.226 . S
O122 Zn120 1.932 . S
O122 C132 1.307 . S
O123 Zn116 1.919 . S
O123 C134 1.253 . S
O124 Zn118 1.941 . S
O124 C134 1.283 . S
O125 Zn118 1.965 . S
O125 C133 1.303 . S
O126 Zn119 1.938 . S
O126 C133 1.247 . S
O127 Zn119 1.906 . S
O127 C135 1.304 . S
O128 Zn116 1.924 1_565 S
O128 C136 1.311 . S
O129 Zn120 1.977 . S
O129 C135 1.272 1_565 S
O130 Zn120 1.910 . S
O130 C136 1.231 . S
C131 O115 1.225 . S
C131 O137 1.298 . S
C132 O121 1.226 . S
C132 O122 1.307 . S
C133 O125 1.303 . S
C133 O126 1.247 . S
C134 O123 1.253 . S
C134 O124 1.283 . S
C135 O127 1.304 . S
C135 O129 1.272 1_545 S
C136 O128 1.311 . S
C136 O130 1.231 . S
O137 Zn119 1.953 . S
O137 C131 1.298 . S
O138 Zn139 1.953 1_655 S
O138 C154 1.225 . S
Zn139 O138 1.953 1_455 S
Zn139 O140 1.949 . S
Zn139 O146 1.919 . S
Zn139 O151 1.924 . S
O140 Zn139 1.949 . S
O140 Zn141 1.923 . S
O140 Zn142 1.950 1_455 S
O140 Zn143 1.945 . S
Zn141 O140 1.923 . S
Zn141 O144 1.933 . S
Zn141 O147 1.943 . S
Zn141 O148 1.965 1_455 S
Zn142 O140 1.950 1_655 S
Zn142 O149 1.938 . S
Zn142 O150 1.906 . S
Zn142 O160 1.953 . S
Zn143 O140 1.945 . S
Zn143 O145 1.932 . S
Zn143 O152 1.977 . S
Zn143 O153 1.910 . S
O144 Zn141 1.933 . S
O144 C155 1.226 . S
O145 Zn143 1.932 . S
O145 C155 1.307 . S
O146 Zn139 1.919 . S
O146 C157 1.253 . S
O147 Zn141 1.943 . S
O147 C157 1.289 . S
O148 Zn141 1.965 1_655 S
O148 C156 1.303 . S
O149 Zn142 1.938 . S
O149 C156 1.247 . S
O150 Zn142 1.906 . S
O150 C158 1.304 1_655 S
O151 Zn139 1.924 . S
O151 C159 1.311 . S
O152 Zn143 1.977 . S
O152 C158 1.272 . S
O153 Zn143 1.910 . S
O153 C159 1.231 . S
C154 O138 1.225 . S
C154 O160 1.298 . S
C155 O144 1.226 . S
C155 O145 1.307 . S
C156 O148 1.303 . S
C156 O149 1.247 . S
C157 O146 1.253 . S
C157 O147 1.289 . S
C158 O150 1.304 1_455 S
C158 O152 1.272 . S
C159 O151 1.311 . S
C159 O153 1.231 . S
O160 Zn142 1.953 . S
O160 C154 1.298 . S
O161 Zn162 1.953 1_565 S
O161 C177 1.225 . S
Zn162 O161 1.953 1_545 S
Zn162 O163 1.949 . S
Zn162 O169 1.919 . S
Zn162 O174 1.924 . S
O163 Zn162 1.949 . S
O163 Zn164 1.923 . S
O163 Zn165 1.950 1_545 S
O163 Zn166 1.945 . S
Zn164 O163 1.923 . S
Zn164 O167 1.933 . S
Zn164 O170 1.943 . S
Zn164 O171 1.965 1_545 S
Zn165 O163 1.950 1_565 S
Zn165 O172 1.938 . S
Zn165 O173 1.906 . S
Zn165 O183 1.953 . S
Zn166 O163 1.945 . S
Zn166 O168 1.932 . S
Zn166 O175 1.977 . S
Zn166 O176 1.910 . S
O167 Zn164 1.933 . S
O167 C178 1.226 . S
O168 Zn166 1.932 . S
O168 C178 1.307 . S
O169 Zn162 1.919 . S
O169 C180 1.253 . S
O170 Zn164 1.943 . S
O170 C180 1.290 . S
O171 Zn164 1.965 1_565 S
O171 C179 1.303 . S
O172 Zn165 1.938 . S
O172 C179 1.247 . S
O173 Zn165 1.906 . S
O173 C181 1.304 1_565 S
O174 Zn162 1.924 . S
O174 C182 1.311 . S
O175 Zn166 1.977 . S
O175 C181 1.272 . S
O176 Zn166 1.910 . S
O176 C182 1.231 . S
C177 O161 1.225 . S
C177 O183 1.298 . S
C178 O167 1.226 . S
C178 O168 1.307 . S
C179 O171 1.303 . S
C179 O172 1.247 . S
C180 O169 1.253 . S
C180 O170 1.290 . S
C181 O173 1.304 1_545 S
C181 O175 1.272 . S
C182 O174 1.311 . S
C182 O176 1.231 . S
O183 Zn165 1.953 . S
O183 C177 1.298 . S
O184 Zn185 1.953 . S
O184 C200 1.225 . S
Zn185 O184 1.953 . S
Zn185 O186 1.949 . S
Zn185 O192 1.919 . S
Zn185 O197 1.924 1_545 S
O186 Zn185 1.949 . S
O186 Zn187 1.923 . S
O186 Zn188 1.950 . S
O186 Zn189 1.945 1_545 S
Zn187 O186 1.923 . S
Zn187 O190 1.933 1_545 S
Zn187 O193 1.941 . S
Zn187 O194 1.965 . S
Zn188 O186 1.950 . S
Zn188 O195 1.938 . S
Zn188 O196 1.906 . S
Zn188 O206 1.953 . S
Zn189 O186 1.945 1_565 S
Zn189 O191 1.932 . S
Zn189 O198 1.977 . S
Zn189 O199 1.910 . S
O190 Zn187 1.933 1_565 S
O190 C201 1.226 . S
O191 Zn189 1.932 . S
O191 C201 1.307 . S
O192 Zn185 1.919 . S
O192 C203 1.253 . S
O193 Zn187 1.941 . S
O193 C203 1.283 . S
O194 Zn187 1.965 . S
O194 C202 1.303 . S
O195 Zn188 1.938 . S
O195 C202 1.247 . S
O196 Zn188 1.906 . S
O196 C204 1.304 . S
O197 Zn185 1.924 1_565 S
O197 C205 1.311 . S
O198 Zn189 1.977 . S
O198 C204 1.272 1_565 S
O199 Zn189 1.910 . S
O199 C205 1.231 . S
C200 O184 1.225 . S
C200 O206 1.298 . S
C201 O190 1.226 . S
C201 O191 1.307 . S
C202 O194 1.303 . S
C202 O195 1.247 . S
C203 O192 1.253 . S
C203 O193 1.283 . S
C204 O196 1.304 . S
C204 O198 1.272 1_545 S
C205 O197 1.311 . S
C205 O199 1.231 . S
O206 Zn188 1.953 . S
O206 C200 1.298 . S
O207 Zn208 1.953 1_655 S
O207 C223 1.225 . S
Zn208 O207 1.953 1_455 S
Zn208 O209 1.949 . S
Zn208 O215 1.919 . S
Zn208 O220 1.924 . S
O209 Zn208 1.949 . S
O209 Zn210 1.923 . S
O209 Zn211 1.950 1_455 S
O209 Zn212 1.945 . S
Zn210 O209 1.923 . S
Zn210 O213 1.933 . S
Zn210 O216 1.943 . S
Zn210 O217 1.965 1_455 S
Zn211 O209 1.950 1_655 S
Zn211 O218 1.938 . S
Zn211 O219 1.906 . S
Zn211 O229 1.953 . S
Zn212 O209 1.945 . S
Zn212 O214 1.932 . S
Zn212 O221 1.977 . S
Zn212 O222 1.910 . S
O213 Zn210 1.933 . S
O213 C224 1.226 . S
O214 Zn212 1.932 . S
O214 C224 1.307 . S
O215 Zn208 1.919 . S
O215 C226 1.253 . S
O216 Zn210 1.943 . S
O216 C226 1.290 . S
O217 Zn210 1.965 1_655 S
O217 C225 1.303 . S
O218 Zn211 1.938 . S
O218 C225 1.247 . S
O219 Zn211 1.906 . S
O219 C227 1.304 1_655 S
O220 Zn208 1.924 . S
O220 C228 1.311 . S
O221 Zn212 1.977 . S
O221 C227 1.272 . S
O222 Zn212 1.910 . S
O222 C228 1.231 . S
C223 O207 1.225 . S
C223 O229 1.298 . S
C224 O213 1.226 . S
C224 O214 1.307 . S
C225 O217 1.303 . S
C225 O218 1.247 . S
C226 O215 1.253 . S
C226 O216 1.290 . S
C227 O219 1.304 1_455 S
C227 O221 1.272 . S
C228 O220 1.311 . S
C228 O222 1.231 . S
O229 Zn211 1.953 . S
O229 C223 1.298 . S
O230 Zn231 1.953 . S
O230 C246 1.225 . S
Zn231 O230 1.953 . S
Zn231 O232 1.949 . S
Zn231 O238 1.919 1_545 S
Zn231 O243 1.924 . S
O232 Zn231 1.949 . S
O232 Zn233 1.923 1_545 S
O232 Zn234 1.950 . S
O232 Zn235 1.945 . S
Zn233 O232 1.923 1_565 S
Zn233 O236 1.933 . S
Zn233 O239 1.941 . S
Zn233 O240 1.965 . S
Zn234 O232 1.950 . S
Zn234 O241 1.938 . S
Zn234 O242 1.906 . S
Zn234 O252 1.953 . S
Zn235 O232 1.945 . S
Zn235 O237 1.932 1_545 S
Zn235 O244 1.977 . S
Zn235 O245 1.910 . S
O236 Zn233 1.933 . S
O236 C247 1.226 . S
O237 Zn235 1.932 1_565 S
O237 C247 1.307 . S
O238 Zn231 1.919 1_565 S
O238 C249 1.253 . S
O239 Zn233 1.941 . S
O239 C249 1.283 . S
O240 Zn233 1.965 . S
O240 C248 1.303 1_565 S
O241 Zn234 1.938 . S
O241 C248 1.247 . S
O242 Zn234 1.906 . S
O242 C250 1.304 . S
O243 Zn231 1.924 . S
O243 C251 1.311 . S
O244 Zn235 1.977 . S
O244 C250 1.272 . S
O245 Zn235 1.910 . S
O245 C251 1.231 . S
C246 O230 1.225 . S
C246 O252 1.298 . S
C247 O236 1.226 . S
C247 O237 1.307 . S
C248 O240 1.303 1_545 S
C248 O241 1.247 . S
C249 O238 1.253 . S
C249 O239 1.283 . S
C250 O242 1.304 . S
C250 O244 1.272 . S
C251 O243 1.311 . S
C251 O245 1.231 . S
O252 Zn234 1.953 . S
O252 C246 1.298 . S
O253 Zn254 1.953 . S
O253 C269 1.225 . S
Zn254 O253 1.953 . S
Zn254 O255 1.949 . S
Zn254 O261 1.919 . S
Zn254 O266 1.924 1_455 S
O255 Zn254 1.949 . S
O255 Zn256 1.923 . S
O255 Zn257 1.950 . S
O255 Zn258 1.945 1_455 S
Zn256 O255 1.923 . S
Zn256 O259 1.933 1_455 S
Zn256 O262 1.941 . S
Zn256 O263 1.965 . S
Zn257 O255 1.950 . S
Zn257 O264 1.938 . S
Zn257 O265 1.906 . S
Zn257 O275 1.953 . S
Zn258 O255 1.945 1_655 S
Zn258 O260 1.932 . S
Zn258 O267 1.977 . S
Zn258 O268 1.910 . S
O259 Zn256 1.933 1_655 S
O259 C270 1.226 . S
O260 Zn258 1.932 . S
O260 C270 1.307 . S
O261 Zn254 1.919 . S
O261 C272 1.253 . S
O262 Zn256 1.941 . S
O262 C272 1.283 . S
O263 Zn256 1.965 . S
O263 C271 1.303 . S
O264 Zn257 1.938 . S
O264 C271 1.247 . S
O265 Zn257 1.906 . S
O265 C273 1.304 . S
O266 Zn254 1.924 1_655 S
O266 C274 1.311 . S
O267 Zn258 1.977 . S
O267 C273 1.272 1_655 S
O268 Zn258 1.910 . S
O268 C274 1.231 . S
C269 O253 1.225 . S
C269 O275 1.298 . S
C270 O259 1.226 . S
C270 O260 1.307 . S
C271 O263 1.303 . S
C271 O264 1.247 . S
C272 O261 1.253 . S
C272 O262 1.283 . S
C273 O265 1.304 . S
C273 O267 1.272 1_455 S
C274 O266 1.311 . S
C274 O268 1.231 . S
O275 Zn257 1.953 . S
O275 C269 1.298 . S
O276 Zn277 1.953 1_565 S
O276 C292 1.225 . S
Zn277 O276 1.953 1_545 S
Zn277 O278 1.949 . S
Zn277 O284 1.919 . S
Zn277 O289 1.924 . S
O278 Zn277 1.949 . S
O278 Zn279 1.923 . S
O278 Zn280 1.950 1_545 S
O278 Zn281 1.945 . S
Zn279 O278 1.923 . S
Zn279 O282 1.933 . S
Zn279 O285 1.946 . S
Zn279 O286 1.965 1_545 S
Zn280 O278 1.950 1_565 S
Zn280 O287 1.938 . S
Zn280 O288 1.906 . S
Zn280 O298 1.953 . S
Zn281 O278 1.945 . S
Zn281 O283 1.932 . S
Zn281 O290 1.977 . S
Zn281 O291 1.910 . S
O282 Zn279 1.933 . S
O282 C293 1.226 . S
O283 Zn281 1.932 . S
O283 C293 1.307 . S
O284 Zn277 1.919 . S
O284 C295 1.253 . S
O285 Zn279 1.946 . S
O285 C295 1.297 . S
O286 Zn279 1.965 1_565 S
O286 C294 1.303 . S
O287 Zn280 1.938 . S
O287 C294 1.247 . S
O288 Zn280 1.906 . S
O288 C296 1.304 1_565 S
O289 Zn277 1.924 . S
O289 C297 1.311 . S
O290 Zn281 1.977 . S
O290 C296 1.272 . S
O291 Zn281 1.910 . S
O291 C297 1.231 . S
C292 O276 1.225 . S
C292 O298 1.298 . S
C293 O282 1.226 . S
C293 O283 1.307 . S
C294 O286 1.303 . S
C294 O287 1.247 . S
C295 O284 1.253 . S
C295 O285 1.297 . S
C296 O288 1.304 1_545 S
C296 O290 1.272 . S
C297 O289 1.311 . S
C297 O291 1.231 . S
O298 Zn280 1.953 . S
O298 C292 1.298 . S
O299 Zn300 1.953 . S
O299 C315 1.225 . S
Zn300 O299 1.953 . S
Zn300 O301 1.949 . S
Zn300 O307 1.919 . S
Zn300 O312 1.924 1_455 S
O301 Zn300 1.949 . S
O301 Zn302 1.923 . S
O301 Zn303 1.950 . S
O301 Zn304 1.945 1_455 S
Zn302 O301 1.923 . S
Zn302 O305 1.933 1_455 S
Zn302 O308 1.941 . S
Zn302 O309 1.965 . S
Zn303 O301 1.950 . S
Zn303 O310 1.938 . S
Zn303 O311 1.906 . S
Zn303 O321 1.953 . S
Zn304 O301 1.945 1_655 S
Zn304 O306 1.932 . S
Zn304 O313 1.977 . S
Zn304 O314 1.910 . S
O305 Zn302 1.933 1_655 S
O305 C316 1.226 . S
O306 Zn304 1.932 . S
O306 C316 1.307 . S
O307 Zn300 1.919 . S
O307 C318 1.253 . S
O308 Zn302 1.941 . S
O308 C318 1.283 . S
O309 Zn302 1.965 . S
O309 C317 1.303 . S
O310 Zn303 1.938 . S
O310 C317 1.247 . S
O311 Zn303 1.906 . S
O311 C319 1.304 . S
O312 Zn300 1.924 1_655 S
O312 C320 1.311 . S
O313 Zn304 1.977 . S
O313 C319 1.272 1_655 S
O314 Zn304 1.910 . S
O314 C320 1.231 . S
C315 O299 1.225 . S
C315 O321 1.298 . S
C316 O305 1.226 . S
C316 O306 1.307 . S
C317 O309 1.303 . S
C317 O310 1.247 . S
C318 O307 1.253 . S
C318 O308 1.283 . S
C319 O311 1.304 . S
C319 O313 1.272 1_455 S
C320 O312 1.311 . S
C320 O314 1.231 . S
O321 Zn303 1.953 . S
O321 C315 1.298 . S
O322 Zn323 1.953 . S
O322 C338 1.225 . S
Zn323 O322 1.953 . S
Zn323 O324 1.949 . S
Zn323 O330 1.919 . S
Zn323 O335 1.924 1_545 S
O324 Zn323 1.949 . S
O324 Zn325 1.923 . S
O324 Zn326 1.950 . S
O324 Zn327 1.945 1_545 S
Zn325 O324 1.923 . S
Zn325 O328 1.933 1_545 S
Zn325 O331 1.941 . S
Zn325 O332 1.965 . S
Zn326 O324 1.950 . S
Zn326 O333 1.938 . S
Zn326 O334 1.906 . S
Zn326 O344 1.953 . S
Zn327 O324 1.945 1_565 S
Zn327 O329 1.932 . S
Zn327 O336 1.977 . S
Zn327 O337 1.910 . S
O328 Zn325 1.933 1_565 S
O328 C339 1.226 . S
O329 Zn327 1.932 . S
O329 C339 1.307 . S
O330 Zn323 1.919 . S
O330 C341 1.253 . S
O331 Zn325 1.941 . S
O331 C341 1.283 . S
O332 Zn325 1.965 . S
O332 C340 1.303 . S
O333 Zn326 1.938 . S
O333 C340 1.247 . S
O334 Zn326 1.906 . S
O334 C342 1.304 . S
O335 Zn323 1.924 1_565 S
O335 C343 1.311 . S
O336 Zn327 1.977 . S
O336 C342 1.272 1_565 S
O337 Zn327 1.910 . S
O337 C343 1.231 . S
C338 O322 1.225 . S
C338 O344 1.298 . S
C339 O328 1.226 . S
C339 O329 1.307 . S
C340 O332 1.303 . S
C340 O333 1.247 . S
C341 O330 1.253 . S
C341 O331 1.283 . S
C342 O334 1.304 . S
C342 O336 1.272 1_545 S
C343 O335 1.311 . S
C343 O337 1.231 . S
O344 Zn326 1.953 . S
O344 C338 1.298 . S
O345 Zn346 1.953 1_655 S
O345 C361 1.225 . S
Zn346 O345 1.953 1_455 S
Zn346 O347 1.949 . S
Zn346 O353 1.919 . S
Zn346 O358 1.924 . S
O347 Zn346 1.949 . S
O347 Zn348 1.923 . S
O347 Zn349 1.950 1_455 S
O347 Zn350 1.945 . S
Zn348 O347 1.923 . S
Zn348 O351 1.933 . S
Zn348 O354 1.943 . S
Zn348 O355 1.965 1_455 S
Zn349 O347 1.950 1_655 S
Zn349 O356 1.938 . S
Zn349 O357 1.906 . S
Zn349 O367 1.953 . S
Zn350 O347 1.945 . S
Zn350 O352 1.932 . S
Zn350 O359 1.977 . S
Zn350 O360 1.910 . S
O351 Zn348 1.933 . S
O351 C362 1.226 . S
O352 Zn350 1.932 . S
O352 C362 1.307 . S
O353 Zn346 1.919 . S
O353 C364 1.253 . S
O354 Zn348 1.943 . S
O354 C364 1.288 . S
O355 Zn348 1.965 1_655 S
O355 C363 1.303 . S
O356 Zn349 1.938 . S
O356 C363 1.247 . S
O357 Zn349 1.906 . S
O357 C365 1.304 1_655 S
O358 Zn346 1.924 . S
O358 C366 1.311 . S
O359 Zn350 1.977 . S
O359 C365 1.272 . S
O360 Zn350 1.910 . S
O360 C366 1.231 . S
C361 O345 1.225 . S
C361 O367 1.298 . S
C362 O351 1.226 . S
C362 O352 1.307 . S
C363 O355 1.303 . S
C363 O356 1.247 . S
C364 O353 1.253 . S
C364 O354 1.288 . S
C365 O357 1.304 1_455 S
C365 O359 1.272 . S
C366 O358 1.311 . S
C366 O360 1.231 . S
O367 Zn349 1.953 . S
O367 C361 1.298 . S
O368 Zn369 1.953 . S
O368 C384 1.225 . S
Zn369 O368 1.953 . S
Zn369 O370 1.949 . S
Zn369 O376 1.919 . S
Zn369 O381 1.924 1_554 S
O370 Zn369 1.949 . S
O370 Zn371 1.923 . S
O370 Zn372 1.950 . S
O370 Zn373 1.945 1_554 S
Zn371 O370 1.923 . S
Zn371 O374 1.933 1_554 S
Zn371 O377 1.941 . S
Zn371 O378 1.965 . S
Zn372 O370 1.950 . S
Zn372 O379 1.938 . S
Zn372 O380 1.906 . S
Zn372 O390 1.953 . S
Zn373 O370 1.945 1_556 S
Zn373 O375 1.932 . S
Zn373 O382 1.977 . S
Zn373 O383 1.910 . S
O374 Zn371 1.933 1_556 S
O374 C385 1.226 . S
O375 Zn373 1.932 . S
O375 C385 1.307 . S
O376 Zn369 1.919 . S
O376 C387 1.253 . S
O377 Zn371 1.941 . S
O377 C387 1.283 . S
O378 Zn371 1.965 . S
O378 C386 1.303 . S
O379 Zn372 1.938 . S
O379 C386 1.247 . S
O380 Zn372 1.906 . S
O380 C388 1.304 . S
O381 Zn369 1.924 1_556 S
O381 C389 1.311 . S
O382 Zn373 1.977 . S
O382 C388 1.272 1_556 S
O383 Zn373 1.910 . S
O383 C389 1.231 . S
C384 O368 1.225 . S
C384 O390 1.298 . S
C385 O374 1.226 . S
C385 O375 1.307 . S
C386 O378 1.303 . S
C386 O379 1.247 . S
C387 O376 1.253 . S
C387 O377 1.283 . S
C388 O380 1.304 . S
C388 O382 1.272 1_554 S
C389 O381 1.311 . S
C389 O383 1.231 . S
O390 Zn372 1.953 . S
O390 C384 1.298 . S
O391 Zn392 1.953 1_556 S
O391 C407 1.225 . S
Zn392 O391 1.953 1_554 S
Zn392 O393 1.949 . S
Zn392 O399 1.919 . S
Zn392 O404 1.924 . S
O393 Zn392 1.949 . S
O393 Zn394 1.923 . S
O393 Zn395 1.950 1_554 S
O393 Zn396 1.945 . S
Zn394 O393 1.923 . S
Zn394 O397 1.933 . S
Zn394 O400 1.944 . S
Zn394 O401 1.965 1_554 S
Zn395 O393 1.950 1_556 S
Zn395 O402 1.938 . S
Zn395 O403 1.906 . S
Zn395 O413 1.953 . S
Zn396 O393 1.945 . S
Zn396 O398 1.932 . S
Zn396 O405 1.977 . S
Zn396 O406 1.910 . S
O397 Zn394 1.933 . S
O397 C408 1.226 . S
O398 Zn396 1.932 . S
O398 C408 1.307 . S
O399 Zn392 1.919 . S
O399 C410 1.253 . S
O400 Zn394 1.944 . S
O400 C410 1.291 . S
O401 Zn394 1.965 1_556 S
O401 C409 1.303 . S
O402 Zn395 1.938 . S
O402 C409 1.247 . S
O403 Zn395 1.906 . S
O403 C411 1.304 1_556 S
O404 Zn392 1.924 . S
O404 C412 1.311 . S
O405 Zn396 1.977 . S
O405 C411 1.272 . S
O406 Zn396 1.910 . S
O406 C412 1.231 . S
C407 O391 1.225 . S
C407 O413 1.298 . S
C408 O397 1.226 . S
C408 O398 1.307 . S
C409 O401 1.303 . S
C409 O402 1.247 . S
C410 O399 1.253 . S
C410 O400 1.291 . S
C411 O403 1.304 1_554 S
C411 O405 1.272 . S
C412 O404 1.311 . S
C412 O406 1.231 . S
O413 Zn395 1.953 . S
O413 C407 1.298 . S
O414 Zn415 1.953 1_556 S
O414 C430 1.225 . S
Zn415 O414 1.953 1_554 S
Zn415 O416 1.949 . S
Zn415 O422 1.919 . S
Zn415 O427 1.924 . S
O416 Zn415 1.949 . S
O416 Zn417 1.923 . S
O416 Zn418 1.950 1_554 S
O416 Zn419 1.945 . S
Zn417 O416 1.923 . S
Zn417 O420 1.933 . S
Zn417 O423 1.942 . S
Zn417 O424 1.965 1_554 S
Zn418 O416 1.950 1_556 S
Zn418 O425 1.938 . S
Zn418 O426 1.906 . S
Zn418 O436 1.953 . S
Zn419 O416 1.945 . S
Zn419 O421 1.932 . S
Zn419 O428 1.977 . S
Zn419 O429 1.910 . S
O420 Zn417 1.933 . S
O420 C431 1.226 . S
O421 Zn419 1.932 . S
O421 C431 1.307 . S
O422 Zn415 1.919 . S
O422 C433 1.253 . S
O423 Zn417 1.942 . S
O423 C433 1.284 . S
O424 Zn417 1.965 1_556 S
O424 C432 1.303 . S
O425 Zn418 1.938 . S
O425 C432 1.247 . S
O426 Zn418 1.906 . S
O426 C434 1.304 1_556 S
O427 Zn415 1.924 . S
O427 C435 1.311 . S
O428 Zn419 1.977 . S
O428 C434 1.272 . S
O429 Zn419 1.910 . S
O429 C435 1.231 . S
C430 O414 1.225 . S
C430 O436 1.298 . S
C431 O420 1.226 . S
C431 O421 1.307 . S
C432 O424 1.303 . S
C432 O425 1.247 . S
C433 O422 1.253 . S
C433 O423 1.284 . S
C434 O426 1.304 1_554 S
C434 O428 1.272 . S
C435 O427 1.311 . S
C435 O429 1.231 . S
O436 Zn418 1.953 . S
O436 C430 1.298 . S
O437 Zn438 1.953 1_556 S
O437 C453 1.225 . S
Zn438 O437 1.953 1_554 S
Zn438 O439 1.949 . S
Zn438 O445 1.919 . S
Zn438 O450 1.924 . S
O439 Zn438 1.949 . S
O439 Zn440 1.923 . S
O439 Zn441 1.950 1_554 S
O439 Zn442 1.945 . S
Zn440 O439 1.923 . S
Zn440 O443 1.933 . S
Zn440 O446 1.944 . S
Zn440 O447 1.965 1_554 S
Zn441 O439 1.950 1_556 S
Zn441 O448 1.938 . S
Zn441 O449 1.906 . S
Zn441 O459 1.953 . S
Zn442 O439 1.945 . S
Zn442 O444 1.932 . S
Zn442 O451 1.977 . S
Zn442 O452 1.910 . S
O443 Zn440 1.933 . S
O443 C454 1.226 . S
O444 Zn442 1.932 . S
O444 C454 1.307 . S
O445 Zn438 1.919 . S
O445 C456 1.253 . S
O446 Zn440 1.944 . S
O446 C456 1.293 . S
O447 Zn440 1.965 1_556 S
O447 C455 1.303 . S
O448 Zn441 1.938 . S
O448 C455 1.247 . S
O449 Zn441 1.906 . S
O449 C457 1.304 1_556 S
O450 Zn438 1.924 . S
O450 C458 1.311 . S
O451 Zn442 1.977 . S
O451 C457 1.272 . S
O452 Zn442 1.910 . S
O452 C458 1.231 . S
C453 O437 1.225 . S
C453 O459 1.298 . S
C454 O443 1.226 . S
C454 O444 1.307 . S
C455 O447 1.303 . S
C455 O448 1.247 . S
C456 O445 1.253 . S
C456 O446 1.293 . S
C457 O449 1.304 1_554 S
C457 O451 1.272 . S
C458 O450 1.311 . S
C458 O452 1.231 . S
O459 Zn441 1.953 . S
O459 C453 1.298 . S
O460 Zn461 1.953 1_556 S
O460 C476 1.225 . S
Zn461 O460 1.953 1_554 S
Zn461 O462 1.949 . S
Zn461 O468 1.919 . S
Zn461 O473 1.924 . S
O462 Zn461 1.949 . S
O462 Zn463 1.923 . S
O462 Zn464 1.950 1_554 S
O462 Zn465 1.945 . S
Zn463 O462 1.923 . S
Zn463 O466 1.933 . S
Zn463 O469 1.943 . S
Zn463 O470 1.965 1_554 S
Zn464 O462 1.950 1_556 S
Zn464 O471 1.938 . S
Zn464 O472 1.906 . S
Zn464 O482 1.953 . S
Zn465 O462 1.945 . S
Zn465 O467 1.932 . S
Zn465 O474 1.977 . S
Zn465 O475 1.910 . S
O466 Zn463 1.933 . S
O466 C477 1.226 . S
O467 Zn465 1.932 . S
O467 C477 1.307 . S
O468 Zn461 1.919 . S
O468 C479 1.253 . S
O469 Zn463 1.943 . S
O469 C479 1.288 . S
O470 Zn463 1.965 1_556 S
O470 C478 1.303 . S
O471 Zn464 1.938 . S
O471 C478 1.247 . S
O472 Zn464 1.906 . S
O472 C480 1.304 1_556 S
O473 Zn461 1.924 . S
O473 C481 1.311 . S
O474 Zn465 1.977 . S
O474 C480 1.272 . S
O475 Zn465 1.910 . S
O475 C481 1.231 . S
C476 O460 1.225 . S
C476 O482 1.298 . S
C477 O466 1.226 . S
C477 O467 1.307 . S
C478 O470 1.303 . S
C478 O471 1.247 . S
C479 O468 1.253 . S
C479 O469 1.288 . S
C480 O472 1.304 1_554 S
C480 O474 1.272 . S
C481 O473 1.311 . S
C481 O475 1.231 . S
O482 Zn464 1.953 . S
O482 C476 1.298 . S
O483 Zn484 1.953 . S
O483 C499 1.225 . S
Zn484 O483 1.953 . S
Zn484 O485 1.949 . S
Zn484 O491 1.919 . S
Zn484 O496 1.924 1_554 S
O485 Zn484 1.949 . S
O485 Zn486 1.923 . S
O485 Zn487 1.950 . S
O485 Zn488 1.945 1_554 S
Zn486 O485 1.923 . S
Zn486 O489 1.933 1_554 S
Zn486 O492 1.941 . S
Zn486 O493 1.965 . S
Zn487 O485 1.950 . S
Zn487 O494 1.938 . S
Zn487 O495 1.906 . S
Zn487 O505 1.953 . S
Zn488 O485 1.945 1_556 S
Zn488 O490 1.932 . S
Zn488 O497 1.977 . S
Zn488 O498 1.910 . S
O489 Zn486 1.933 1_556 S
O489 C500 1.226 . S
O490 Zn488 1.932 . S
O490 C500 1.307 . S
O491 Zn484 1.919 . S
O491 C502 1.253 . S
O492 Zn486 1.941 . S
O492 C502 1.283 . S
O493 Zn486 1.965 . S
O493 C501 1.303 . S
O494 Zn487 1.938 . S
O494 C501 1.247 . S
O495 Zn487 1.906 . S
O495 C503 1.304 . S
O496 Zn484 1.924 1_556 S
O496 C504 1.311 . S
O497 Zn488 1.977 . S
O497 C503 1.272 1_556 S
O498 Zn488 1.910 . S
O498 C504 1.231 . S
C499 O483 1.225 . S
C499 O505 1.298 . S
C500 O489 1.226 . S
C500 O490 1.307 . S
C501 O493 1.303 . S
C501 O494 1.247 . S
C502 O491 1.253 . S
C502 O492 1.283 . S
C503 O495 1.304 . S
C503 O497 1.272 1_554 S
C504 O496 1.311 . S
C504 O498 1.231 . S
O505 Zn487 1.953 . S
O505 C499 1.298 . S
O506 Zn507 1.953 . S
O506 C522 1.225 . S
Zn507 O506 1.953 . S
Zn507 O508 1.949 . S
Zn507 O514 1.919 . S
Zn507 O519 1.924 1_554 S
O508 Zn507 1.949 . S
O508 Zn509 1.923 . S
O508 Zn510 1.950 . S
O508 Zn511 1.945 1_554 S
Zn509 O508 1.923 . S
Zn509 O512 1.933 1_554 S
Zn509 O515 1.941 . S
Zn509 O516 1.965 . S
Zn510 O508 1.950 . S
Zn510 O517 1.938 . S
Zn510 O518 1.906 . S
Zn510 O528 1.953 . S
Zn511 O508 1.945 1_556 S
Zn511 O513 1.932 . S
Zn511 O520 1.977 . S
Zn511 O521 1.910 . S
O512 Zn509 1.933 1_556 S
O512 C523 1.226 . S
O513 Zn511 1.932 . S
O513 C523 1.307 . S
O514 Zn507 1.919 . S
O514 C525 1.253 . S
O515 Zn509 1.941 . S
O515 C525 1.283 . S
O516 Zn509 1.965 . S
O516 C524 1.303 . S
O517 Zn510 1.938 . S
O517 C524 1.247 . S
O518 Zn510 1.906 . S
O518 C526 1.304 . S
O519 Zn507 1.924 1_556 S
O519 C527 1.311 . S
O520 Zn511 1.977 . S
O520 C526 1.272 1_556 S
O521 Zn511 1.910 . S
O521 C527 1.231 . S
C522 O506 1.225 . S
C522 O528 1.298 . S
C523 O512 1.226 . S
C523 O513 1.307 . S
C524 O516 1.303 . S
C524 O517 1.247 . S
C525 O514 1.253 . S
C525 O515 1.283 . S
C526 O518 1.304 . S
C526 O520 1.272 1_554 S
C527 O519 1.311 . S
C527 O521 1.231 . S
O528 Zn510 1.953 . S
O528 C522 1.298 . S
O529 Zn530 1.953 . S
O529 C545 1.225 . S
Zn530 O529 1.953 . S
Zn530 O531 1.949 . S
Zn530 O537 1.919 . S
Zn530 O542 1.924 1_554 S
O531 Zn530 1.949 . S
O531 Zn532 1.923 . S
O531 Zn533 1.950 . S
O531 Zn534 1.945 1_554 S
Zn532 O531 1.923 . S
Zn532 O535 1.933 1_554 S
Zn532 O538 1.941 . S
Zn532 O539 1.965 . S
Zn533 O531 1.950 . S
Zn533 O540 1.938 . S
Zn533 O541 1.906 . S
Zn533 O551 1.953 . S
Zn534 O531 1.945 1_556 S
Zn534 O536 1.932 . S
Zn534 O543 1.977 . S
Zn534 O544 1.910 . S
O535 Zn532 1.933 1_556 S
O535 C546 1.226 . S
O536 Zn534 1.932 . S
O536 C546 1.307 . S
O537 Zn530 1.919 . S
O537 C548 1.253 . S
O538 Zn532 1.941 . S
O538 C548 1.283 . S
O539 Zn532 1.965 . S
O539 C547 1.303 . S
O540 Zn533 1.938 . S
O540 C547 1.247 . S
O541 Zn533 1.906 . S
O541 C549 1.304 . S
O542 Zn530 1.924 1_556 S
O542 C550 1.311 . S
O543 Zn534 1.977 . S
O543 C549 1.272 1_556 S
O544 Zn534 1.910 . S
O544 C550 1.231 . S
C545 O529 1.225 . S
C545 O551 1.298 . S
C546 O535 1.226 . S
C546 O536 1.307 . S
C547 O539 1.303 . S
C547 O540 1.247 . S
C548 O537 1.253 . S
C548 O538 1.283 . S
C549 O541 1.304 . S
C549 O543 1.272 1_554 S
C550 O542 1.311 . S
C550 O544 1.231 . S
O551 Zn533 1.953 . S
O551 C545 1.298 . S
O552 Zn553 1.953 . S
O552 C568 1.225 . S
Zn553 O552 1.953 . S
Zn553 O554 1.949 . S
Zn553 O560 1.919 . S
Zn553 O565 1.924 . S
O554 Zn553 1.949 . S
O554 Zn555 1.923 . S
O554 Zn556 1.950 . S
O554 Zn557 1.945 . S
Zn555 O554 1.923 . S
Zn555 O558 1.933 . S
Zn555 O561 1.941 . S
Zn555 O562 1.965 . S
Zn556 O554 1.950 . S
Zn556 O563 1.938 . S
Zn556 O564 1.906 . S
Zn556 O574 1.953 . S
Zn557 O554 1.945 . S
Zn557 O559 1.932 . S
Zn557 O566 1.977 . S
Zn557 O567 1.910 . S
O558 Zn555 1.933 . S
O558 C569 1.226 . S
O559 Zn557 1.932 . S
O559 C569 1.307 . S
O560 Zn553 1.919 . S
O560 C571 1.253 . S
O561 Zn555 1.941 . S
O561 C571 1.283 . S
O562 Zn555 1.965 . S
O562 C570 1.303 . S
O563 Zn556 1.938 . S
O563 C570 1.247 . S
O564 Zn556 1.906 . S
O564 C572 1.304 . S
O565 Zn553 1.924 . S
O565 C573 1.311 . S
O566 Zn557 1.977 . S
O566 C572 1.272 . S
O567 Zn557 1.910 . S
O567 C573 1.231 . S
C568 O552 1.225 . S
C568 O574 1.298 . S
C569 O558 1.226 . S
C569 O559 1.307 . S
C570 O562 1.303 . S
C570 O563 1.247 . S
C571 O560 1.253 . S
C571 O561 1.283 . S
C572 O564 1.304 . S
C572 O566 1.272 . S
C573 O565 1.311 . S
C573 O567 1.231 . S
O574 Zn556 1.953 . S
O574 C568 1.298 . S
O575 Zn576 1.953 . S
O575 C591 1.225 . S
Zn576 O575 1.953 . S
Zn576 O577 1.949 . S
Zn576 O583 1.919 . S
Zn576 O588 1.924 . S
O577 Zn576 1.949 . S
O577 Zn578 1.923 . S
O577 Zn579 1.950 . S
O577 Zn580 1.945 . S
Zn578 O577 1.923 . S
Zn578 O581 1.933 . S
Zn578 O584 1.941 . S
Zn578 O585 1.965 . S
Zn579 O577 1.950 . S
Zn579 O586 1.938 . S
Zn579 O587 1.906 . S
Zn579 O597 1.953 . S
Zn580 O577 1.945 . S
Zn580 O582 1.932 . S
Zn580 O589 1.977 . S
Zn580 O590 1.910 . S
O581 Zn578 1.933 . S
O581 C592 1.226 . S
O582 Zn580 1.932 . S
O582 C592 1.307 . S
O583 Zn576 1.919 . S
O583 C594 1.253 . S
O584 Zn578 1.941 . S
O584 C594 1.283 . S
O585 Zn578 1.965 . S
O585 C593 1.303 . S
O586 Zn579 1.938 . S
O586 C593 1.247 . S
O587 Zn579 1.906 . S
O587 C595 1.304 . S
O588 Zn576 1.924 . S
O588 C596 1.311 . S
O589 Zn580 1.977 . S
O589 C595 1.272 . S
O590 Zn580 1.910 . S
O590 C596 1.231 . S
C591 O575 1.225 . S
C591 O597 1.298 . S
C592 O581 1.226 . S
C592 O582 1.307 . S
C593 O585 1.303 . S
C593 O586 1.247 . S
C594 O583 1.253 . S
C594 O584 1.283 . S
C595 O587 1.304 . S
C595 O589 1.272 . S
C596 O588 1.311 . S
C596 O590 1.231 . S
O597 Zn579 1.953 . S
O597 C591 1.298 . S
O598 Zn599 1.953 . S
O598 C614 1.225 . S
Zn599 O598 1.953 . S
Zn599 O600 1.949 . S
Zn599 O606 1.919 . S
Zn599 O611 1.924 . S
O600 Zn599 1.949 . S
O600 Zn601 1.923 . S
O600 Zn602 1.950 . S
O600 Zn603 1.945 . S
Zn601 O600 1.923 . S
Zn601 O604 1.933 . S
Zn601 O607 1.941 . S
Zn601 O608 1.965 . S
Zn602 O600 1.950 . S
Zn602 O609 1.938 . S
Zn602 O610 1.906 . S
Zn602 O620 1.953 . S
Zn603 O600 1.945 . S
Zn603 O605 1.932 . S
Zn603 O612 1.977 . S
Zn603 O613 1.910 . S
O604 Zn601 1.933 . S
O604 C615 1.226 . S
O605 Zn603 1.932 . S
O605 C615 1.307 . S
O606 Zn599 1.919 . S
O606 C617 1.253 . S
O607 Zn601 1.941 . S
O607 C617 1.283 . S
O608 Zn601 1.965 . S
O608 C616 1.303 . S
O609 Zn602 1.938 . S
O609 C616 1.247 . S
O610 Zn602 1.906 . S
O610 C618 1.304 . S
O611 Zn599 1.924 . S
O611 C619 1.311 . S
O612 Zn603 1.977 . S
O612 C618 1.272 . S
O613 Zn603 1.910 . S
O613 C619 1.231 . S
C614 O598 1.225 . S
C614 O620 1.298 . S
C615 O604 1.226 . S
C615 O605 1.307 . S
C616 O608 1.303 . S
C616 O609 1.247 . S
C617 O606 1.253 . S
C617 O607 1.283 . S
C618 O610 1.304 . S
C618 O612 1.272 . S
C619 O611 1.311 . S
C619 O613 1.231 . S
O620 Zn602 1.953 . S
O620 C614 1.298 . S
O621 Zn622 1.953 . S
O621 C637 1.225 . S
Zn622 O621 1.953 . S
Zn622 O623 1.949 . S
Zn622 O629 1.919 . S
Zn622 O634 1.924 . S
O623 Zn622 1.949 . S
O623 Zn624 1.923 . S
O623 Zn625 1.950 . S
O623 Zn626 1.945 . S
Zn624 O623 1.923 . S
Zn624 O627 1.933 . S
Zn624 O630 1.941 . S
Zn624 O631 1.965 . S
Zn625 O623 1.950 . S
Zn625 O632 1.938 . S
Zn625 O633 1.906 . S
Zn625 O643 1.953 . S
Zn626 O623 1.945 . S
Zn626 O628 1.932 . S
Zn626 O635 1.977 . S
Zn626 O636 1.910 . S
O627 Zn624 1.933 . S
O627 C638 1.226 . S
O628 Zn626 1.932 . S
O628 C638 1.307 . S
O629 Zn622 1.919 . S
O629 C640 1.253 . S
O630 Zn624 1.941 . S
O630 C640 1.283 . S
O631 Zn624 1.965 . S
O631 C639 1.303 . S
O632 Zn625 1.938 . S
O632 C639 1.247 . S
O633 Zn625 1.906 . S
O633 C641 1.304 . S
O634 Zn622 1.924 . S
O634 C642 1.311 . S
O635 Zn626 1.977 . S
O635 C641 1.272 . S
O636 Zn626 1.910 . S
O636 C642 1.231 . S
C637 O621 1.225 . S
C637 O643 1.298 . S
C638 O627 1.226 . S
C638 O628 1.307 . S
C639 O631 1.303 . S
C639 O632 1.247 . S
C640 O629 1.253 . S
C640 O630 1.283 . S
C641 O633 1.304 . S
C641 O635 1.272 . S
C642 O634 1.311 . S
C642 O636 1.231 . S
O643 Zn625 1.953 . S
O643 C637 1.298 . S
O644 Zn645 1.953 . S
O644 C660 1.225 . S
Zn645 O644 1.953 . S
Zn645 O646 1.949 . S
Zn645 O652 1.919 . S
Zn645 O657 1.924 . S
O646 Zn645 1.949 . S
O646 Zn647 1.923 . S
O646 Zn648 1.950 . S
O646 Zn649 1.945 . S
Zn647 O646 1.923 . S
Zn647 O650 1.933 . S
Zn647 O653 1.941 . S
Zn647 O654 1.965 . S
Zn648 O646 1.950 . S
Zn648 O655 1.938 . S
Zn648 O656 1.906 . S
Zn648 O666 1.953 . S
Zn649 O646 1.945 . S
Zn649 O651 1.932 . S
Zn649 O658 1.977 . S
Zn649 O659 1.910 . S
O650 Zn647 1.933 . S
O650 C661 1.226 . S
O651 Zn649 1.932 . S
O651 C661 1.307 . S
O652 Zn645 1.919 . S
O652 C663 1.253 . S
O653 Zn647 1.941 . S
O653 C663 1.283 . S
O654 Zn647 1.965 . S
O654 C662 1.303 . S
O655 Zn648 1.938 . S
O655 C662 1.247 . S
O656 Zn648 1.906 . S
O656 C664 1.304 . S
O657 Zn645 1.924 . S
O657 C665 1.311 . S
O658 Zn649 1.977 . S
O658 C664 1.272 . S
O659 Zn649 1.910 . S
O659 C665 1.231 . S
C660 O644 1.225 . S
C660 O666 1.298 . S
C661 O650 1.226 . S
C661 O651 1.307 . S
C662 O654 1.303 . S
C662 O655 1.247 . S
C663 O652 1.253 . S
C663 O653 1.283 . S
C664 O656 1.304 . S
C664 O658 1.272 . S
C665 O657 1.311 . S
C665 O659 1.231 . S
O666 Zn648 1.953 . S
O666 C660 1.298 . S
O667 Zn668 1.953 . S
O667 C683 1.225 . S
Zn668 O667 1.953 . S
Zn668 O669 1.949 . S
Zn668 O675 1.919 . S
Zn668 O680 1.924 . S
O669 Zn668 1.949 . S
O669 Zn670 1.923 . S
O669 Zn671 1.950 . S
O669 Zn672 1.945 . S
Zn670 O669 1.923 . S
Zn670 O673 1.933 . S
Zn670 O676 1.941 . S
Zn670 O677 1.965 . S
Zn671 O669 1.950 . S
Zn671 O678 1.938 . S
Zn671 O679 1.906 . S
Zn671 O689 1.953 . S
Zn672 O669 1.945 . S
Zn672 O674 1.932 . S
Zn672 O681 1.977 . S
Zn672 O682 1.910 . S
O673 Zn670 1.933 . S
O673 C684 1.226 . S
O674 Zn672 1.932 . S
O674 C684 1.307 . S
O675 Zn668 1.919 . S
O675 C686 1.253 . S
O676 Zn670 1.941 . S
O676 C686 1.283 . S
O677 Zn670 1.965 . S
O677 C685 1.303 . S
O678 Zn671 1.938 . S
O678 C685 1.247 . S
O679 Zn671 1.906 . S
O679 C687 1.304 . S
O680 Zn668 1.924 . S
O680 C688 1.311 . S
O681 Zn672 1.977 . S
O681 C687 1.272 . S
O682 Zn672 1.910 . S
O682 C688 1.231 . S
C683 O667 1.225 . S
C683 O689 1.298 . S
C684 O673 1.226 . S
C684 O674 1.307 . S
C685 O677 1.303 . S
C685 O678 1.247 . S
C686 O675 1.253 . S
C686 O676 1.283 . S
C687 O679 1.304 . S
C687 O681 1.272 . S
C688 O680 1.311 . S
C688 O682 1.231 . S
O689 Zn671 1.953 . S
O689 C683 1.298 . S
O690 Zn691 1.953 . S
O690 C706 1.225 . S
Zn691 O690 1.953 . S
Zn691 O692 1.949 . S
Zn691 O698 1.919 . S
Zn691 O703 1.924 . S
O692 Zn691 1.949 . S
O692 Zn693 1.923 . S
O692 Zn694 1.950 . S
O692 Zn695 1.945 . S
Zn693 O692 1.923 . S
Zn693 O696 1.933 . S
Zn693 O699 1.941 . S
Zn693 O700 1.965 . S
Zn694 O692 1.950 . S
Zn694 O701 1.938 . S
Zn694 O702 1.906 . S
Zn694 O712 1.953 . S
Zn695 O692 1.945 . S
Zn695 O697 1.932 . S
Zn695 O704 1.977 . S
Zn695 O705 1.910 . S
O696 Zn693 1.933 . S
O696 C707 1.226 . S
O697 Zn695 1.932 . S
O697 C707 1.307 . S
O698 Zn691 1.919 . S
O698 C709 1.253 . S
O699 Zn693 1.941 . S
O699 C709 1.283 . S
O700 Zn693 1.965 . S
O700 C708 1.303 . S
O701 Zn694 1.938 . S
O701 C708 1.247 . S
O702 Zn694 1.906 . S
O702 C710 1.304 . S
O703 Zn691 1.924 . S
O703 C711 1.311 . S
O704 Zn695 1.977 . S
O704 C710 1.272 . S
O705 Zn695 1.910 . S
O705 C711 1.231 . S
C706 O690 1.225 . S
C706 O712 1.298 . S
C707 O696 1.226 . S
C707 O697 1.307 . S
C708 O700 1.303 . S
C708 O701 1.247 . S
C709 O698 1.253 . S
C709 O699 1.283 . S
C710 O702 1.304 . S
C710 O704 1.272 . S
C711 O703 1.311 . S
C711 O705 1.231 . S
O712 Zn694 1.953 . S
O712 C706 1.298 . S
O713 Zn714 1.953 . S
O713 C729 1.225 . S
Zn714 O713 1.953 . S
Zn714 O715 1.949 . S
Zn714 O721 1.919 . S
Zn714 O726 1.924 . S
O715 Zn714 1.949 . S
O715 Zn716 1.923 . S
O715 Zn717 1.950 . S
O715 Zn718 1.945 . S
Zn716 O715 1.923 . S
Zn716 O719 1.933 . S
Zn716 O722 1.941 . S
Zn716 O723 1.965 . S
Zn717 O715 1.950 . S
Zn717 O724 1.938 . S
Zn717 O725 1.906 . S
Zn717 O735 1.953 . S
Zn718 O715 1.945 . S
Zn718 O720 1.932 . S
Zn718 O727 1.977 . S
Zn718 O728 1.910 . S
O719 Zn716 1.933 . S
O719 C730 1.226 . S
O720 Zn718 1.932 . S
O720 C730 1.307 . S
O721 Zn714 1.919 . S
O721 C732 1.253 . S
O722 Zn716 1.941 . S
O722 C732 1.283 . S
O723 Zn716 1.965 . S
O723 C731 1.303 . S
O724 Zn717 1.938 . S
O724 C731 1.247 . S
O725 Zn717 1.906 . S
O725 C733 1.304 . S
O726 Zn714 1.924 . S
O726 C734 1.311 . S
O727 Zn718 1.977 . S
O727 C733 1.272 . S
O728 Zn718 1.910 . S
O728 C734 1.231 . S
C729 O713 1.225 . S
C729 O735 1.298 . S
C730 O719 1.226 . S
C730 O720 1.307 . S
C731 O723 1.303 . S
C731 O724 1.247 . S
C732 O721 1.253 . S
C732 O722 1.283 . S
C733 O725 1.304 . S
C733 O727 1.272 . S
C734 O726 1.311 . S
C734 O728 1.231 . S
O735 Zn717 1.953 . S
O735 C729 1.298 . S
O736 Zn737 1.953 . S
O736 C752 1.225 . S
Zn737 O736 1.953 . S
Zn737 O738 1.949 . S
Zn737 O744 1.919 . S
Zn737 O749 1.924 . S
O738 Zn737 1.949 . S
O738 Zn739 1.923 . S
O738 Zn740 1.950 . S
O738 Zn741 1.945 . S
Zn739 O738 1.923 . S
Zn739 O742 1.933 . S
Zn739 O745 1.941 . S
Zn739 O746 1.965 . S
Zn740 O738 1.950 . S
Zn740 O747 1.938 . S
Zn740 O748 1.906 . S
Zn740 O758 1.953 . S
Zn741 O738 1.945 . S
Zn741 O743 1.932 . S
Zn741 O750 1.977 . S
Zn741 O751 1.910 . S
O742 Zn739 1.933 . S
O742 C753 1.226 . S
O743 Zn741 1.932 . S
O743 C753 1.307 . S
O744 Zn737 1.919 . S
O744 C755 1.253 . S
O745 Zn739 1.941 . S
O745 C755 1.283 . S
O746 Zn739 1.965 . S
O746 C754 1.303 . S
O747 Zn740 1.938 . S
O747 C754 1.247 . S
O748 Zn740 1.906 . S
O748 C756 1.304 . S
O749 Zn737 1.924 . S
O749 C757 1.311 . S
O750 Zn741 1.977 . S
O750 C756 1.272 . S
O751 Zn741 1.910 . S
O751 C757 1.231 . S
C752 O736 1.225 . S
C752 O758 1.298 . S
C753 O742 1.226 . S
C753 O743 1.307 . S
C754 O746 1.303 . S
C754 O747 1.247 . S
C755 O744 1.253 . S
C755 O745 1.283 . S
C756 O748 1.304 . S
C756 O750 1.272 . S
C757 O749 1.311 . S
C757 O751 1.231 . S
O758 Zn740 1.953 . S
O758 C752 1.298 . S
O759 Zn760 1.953 . S
O759 C775 1.225 . S
Zn760 O759 1.953 . S
Zn760 O761 1.949 . S
Zn760 O767 1.919 . S
Zn760 O772 1.924 . S
O761 Zn760 1.949 . S
O761 Zn762 1.923 . S
O761 Zn763 1.950 . S
O761 Zn764 1.945 . S
Zn762 O761 1.923 . S
Zn762 O765 1.933 . S
Zn762 O768 1.941 . S
Zn762 O769 1.965 . S
Zn763 O761 1.950 . S
Zn763 O770 1.938 . S
Zn763 O771 1.906 . S
Zn763 O781 1.953 . S
Zn764 O761 1.945 . S
Zn764 O766 1.932 . S
Zn764 O773 1.977 . S
Zn764 O774 1.910 . S
O765 Zn762 1.933 . S
O765 C776 1.226 . S
O766 Zn764 1.932 . S
O766 C776 1.307 . S
O767 Zn760 1.919 . S
O767 C778 1.253 . S
O768 Zn762 1.941 . S
O768 C778 1.283 . S
O769 Zn762 1.965 . S
O769 C777 1.303 . S
O770 Zn763 1.938 . S
O770 C777 1.247 . S
O771 Zn763 1.906 . S
O771 C779 1.304 . S
O772 Zn760 1.924 . S
O772 C780 1.311 . S
O773 Zn764 1.977 . S
O773 C779 1.272 . S
O774 Zn764 1.910 . S
O774 C780 1.231 . S
C775 O759 1.225 . S
C775 O781 1.298 . S
C776 O765 1.226 . S
C776 O766 1.307 . S
C777 O769 1.303 . S
C777 O770 1.247 . S
C778 O767 1.253 . S
C778 O768 1.283 . S
C779 O771 1.304 . S
C779 O773 1.272 . S
C780 O772 1.311 . S
C780 O774 1.231 . S
O781 Zn763 1.953 . S
O781 C775 1.298 . S
O782 Zn783 1.953 . S
O782 C798 1.225 . S
Zn783 O782 1.953 . S
Zn783 O784 1.949 . S
Zn783 O790 1.919 . S
Zn783 O795 1.924 . S
O784 Zn783 1.949 . S
O784 Zn785 1.923 . S
O784 Zn786 1.950 . S
O784 Zn787 1.945 . S
Zn785 O784 1.923 . S
Zn785 O788 1.933 . S
Zn785 O791 1.941 . S
Zn785 O792 1.965 . S
Zn786 O784 1.950 . S
Zn786 O793 1.938 . S
Zn786 O794 1.906 . S
Zn786 O804 1.953 . S
Zn787 O784 1.945 . S
Zn787 O789 1.932 . S
Zn787 O796 1.977 . S
Zn787 O797 1.910 . S
O788 Zn785 1.933 . S
O788 C799 1.226 . S
O789 Zn787 1.932 . S
O789 C799 1.307 . S
O790 Zn783 1.919 . S
O790 C801 1.253 . S
O791 Zn785 1.941 . S
O791 C801 1.283 . S
O792 Zn785 1.965 . S
O792 C800 1.303 . S
O793 Zn786 1.938 . S
O793 C800 1.247 . S
O794 Zn786 1.906 . S
O794 C802 1.304 . S
O795 Zn783 1.924 . S
O795 C803 1.311 . S
O796 Zn787 1.977 . S
O796 C802 1.272 . S
O797 Zn787 1.910 . S
O797 C803 1.231 . S
C798 O782 1.225 . S
C798 O804 1.298 . S
C799 O788 1.226 . S
C799 O789 1.307 . S
C800 O792 1.303 . S
C800 O793 1.247 . S
C801 O790 1.253 . S
C801 O791 1.283 . S
C802 O794 1.304 . S
C802 O796 1.272 . S
C803 O795 1.311 . S
C803 O797 1.231 . S
O804 Zn786 1.953 . S
O804 C798 1.298 . S
O805 Zn806 1.953 . S
O805 C821 1.225 . S
Zn806 O805 1.953 . S
Zn806 O807 1.949 . S
Zn806 O813 1.919 . S
Zn806 O818 1.924 . S
O807 Zn806 1.949 . S
O807 Zn808 1.923 . S
O807 Zn809 1.950 . S
O807 Zn810 1.945 . S
Zn808 O807 1.923 . S
Zn808 O811 1.933 . S
Zn808 O814 1.941 . S
Zn808 O815 1.965 . S
Zn809 O807 1.950 . S
Zn809 O816 1.938 . S
Zn809 O817 1.906 . S
Zn809 O827 1.953 . S
Zn810 O807 1.945 . S
Zn810 O812 1.932 . S
Zn810 O819 1.977 . S
Zn810 O820 1.910 . S
O811 Zn808 1.933 . S
O811 C822 1.226 . S
O812 Zn810 1.932 . S
O812 C822 1.307 . S
O813 Zn806 1.919 . S
O813 C824 1.253 . S
O814 Zn808 1.941 . S
O814 C824 1.283 . S
O815 Zn808 1.965 . S
O815 C823 1.303 . S
O816 Zn809 1.938 . S
O816 C823 1.247 . S
O817 Zn809 1.906 . S
O817 C825 1.304 . S
O818 Zn806 1.924 . S
O818 C826 1.311 . S
O819 Zn810 1.977 . S
O819 C825 1.272 . S
O820 Zn810 1.910 . S
O820 C826 1.231 . S
C821 O805 1.225 . S
C821 O827 1.298 . S
C822 O811 1.226 . S
C822 O812 1.307 . S
C823 O815 1.303 . S
C823 O816 1.247 . S
C824 O813 1.253 . S
C824 O814 1.283 . S
C825 O817 1.304 . S
C825 O819 1.272 . S
C826 O818 1.311 . S
C826 O820 1.231 . S
O827 Zn809 1.953 . S
O827 C821 1.298 . S
O828 Zn829 1.953 . S
O828 C844 1.225 . S
Zn829 O828 1.953 . S
Zn829 O830 1.949 . S
Zn829 O836 1.919 . S
Zn829 O841 1.924 . S
O830 Zn829 1.949 . S
O830 Zn831 1.923 . S
O830 Zn832 1.950 . S
O830 Zn833 1.945 . S
Zn831 O830 1.923 . S
Zn831 O834 1.933 . S
Zn831 O837 1.941 . S
Zn831 O838 1.965 . S
Zn832 O830 1.950 . S
Zn832 O839 1.938 . S
Zn832 O840 1.906 . S
Zn832 O850 1.953 . S
Zn833 O830 1.945 . S
Zn833 O835 1.932 . S
Zn833 O842 1.977 . S
Zn833 O843 1.910 . S
O834 Zn831 1.933 . S
O834 C845 1.226 . S
O835 Zn833 1.932 . S
O835 C845 1.307 . S
O836 Zn829 1.919 . S
O836 C847 1.253 . S
O837 Zn831 1.941 . S
O837 C847 1.283 . S
O838 Zn831 1.965 . S
O838 C846 1.303 . S
O839 Zn832 1.938 . S
O839 C846 1.247 . S
O840 Zn832 1.906 . S
O840 C848 1.304 . S
O841 Zn829 1.924 . S
O841 C849 1.311 . S
O842 Zn833 1.977 . S
O842 C848 1.272 . S
O843 Zn833 1.910 . S
O843 C849 1.231 . S
C844 O828 1.225 . S
C844 O850 1.298 . S
C845 O834 1.226 . S
C845 O835 1.307 . S
C846 O838 1.303 . S
C846 O839 1.247 . S
C847 O836 1.253 . S
C847 O837 1.283 . S
C848 O840 1.304 . S
C848 O842 1.272 . S
C849 O841 1.311 . S
C849 O843 1.231 . S
O850 Zn832 1.953 . S
O850 C844 1.298 . S
O851 Zn852 1.953 . S
O851 C867 1.225 . S
Zn852 O851 1.953 . S
Zn852 O853 1.949 . S
Zn852 O859 1.919 . S
Zn852 O864 1.924 . S
O853 Zn852 1.949 . S
O853 Zn854 1.923 . S
O853 Zn855 1.950 . S
O853 Zn856 1.945 . S
Zn854 O853 1.923 . S
Zn854 O857 1.933 . S
Zn854 O860 1.941 . S
Zn854 O861 1.965 . S
Zn855 O853 1.950 . S
Zn855 O862 1.938 . S
Zn855 O863 1.906 . S
Zn855 O873 1.953 . S
Zn856 O853 1.945 . S
Zn856 O858 1.932 . S
Zn856 O865 1.977 . S
Zn856 O866 1.910 . S
O857 Zn854 1.933 . S
O857 C868 1.226 . S
O858 Zn856 1.932 . S
O858 C868 1.307 . S
O859 Zn852 1.919 . S
O859 C870 1.253 . S
O860 Zn854 1.941 . S
O860 C870 1.283 . S
O861 Zn854 1.965 . S
O861 C869 1.303 . S
O862 Zn855 1.938 . S
O862 C869 1.247 . S
O863 Zn855 1.906 . S
O863 C871 1.304 . S
O864 Zn852 1.924 . S
O864 C872 1.311 . S
O865 Zn856 1.977 . S
O865 C871 1.272 . S
O866 Zn856 1.910 . S
O866 C872 1.231 . S
C867 O851 1.225 . S
C867 O873 1.298 . S
C868 O857 1.226 . S
C868 O858 1.307 . S
C869 O861 1.303 . S
C869 O862 1.247 . S
C870 O859 1.253 . S
C870 O860 1.283 . S
C871 O863 1.304 . S
C871 O865 1.272 . S
C872 O864 1.311 . S
C872 O866 1.231 . S
O873 Zn855 1.953 . S
O873 C867 1.298 . S
O874 Zn875 1.953 . S
O874 C890 1.225 . S
Zn875 O874 1.953 . S
Zn875 O876 1.949 . S
Zn875 O882 1.919 . S
Zn875 O887 1.924 . S
O876 Zn875 1.949 . S
O876 Zn877 1.923 . S
O876 Zn878 1.950 . S
O876 Zn879 1.945 . S
Zn877 O876 1.923 . S
Zn877 O880 1.933 . S
Zn877 O883 1.941 . S
Zn877 O884 1.965 . S
Zn878 O876 1.950 . S
Zn878 O885 1.938 . S
Zn878 O886 1.906 . S
Zn878 O896 1.953 . S
Zn879 O876 1.945 . S
Zn879 O881 1.932 . S
Zn879 O888 1.977 . S
Zn879 O889 1.910 . S
O880 Zn877 1.933 . S
O880 C891 1.226 . S
O881 Zn879 1.932 . S
O881 C891 1.307 . S
O882 Zn875 1.919 . S
O882 C893 1.253 . S
O883 Zn877 1.941 . S
O883 C893 1.283 . S
O884 Zn877 1.965 . S
O884 C892 1.303 . S
O885 Zn878 1.938 . S
O885 C892 1.247 . S
O886 Zn878 1.906 . S
O886 C894 1.304 . S
O887 Zn875 1.924 . S
O887 C895 1.311 . S
O888 Zn879 1.977 . S
O888 C894 1.272 . S
O889 Zn879 1.910 . S
O889 C895 1.231 . S
C890 O874 1.225 . S
C890 O896 1.298 . S
C891 O880 1.226 . S
C891 O881 1.307 . S
C892 O884 1.303 . S
C892 O885 1.247 . S
C893 O882 1.253 . S
C893 O883 1.283 . S
C894 O886 1.304 . S
C894 O888 1.272 . S
C895 O887 1.311 . S
C895 O889 1.231 . S
O896 Zn878 1.953 . S
O896 C890 1.298 . S
O897 Zn898 1.953 . S
O897 C913 1.225 . S
Zn898 O897 1.953 . S
Zn898 O899 1.949 . S
Zn898 O905 1.919 . S
Zn898 O910 1.924 . S
O899 Zn898 1.949 . S
O899 Zn900 1.923 . S
O899 Zn901 1.950 . S
O899 Zn902 1.945 . S
Zn900 O899 1.923 . S
Zn900 O903 1.933 . S
Zn900 O906 1.941 . S
Zn900 O907 1.965 . S
Zn901 O899 1.950 . S
Zn901 O908 1.938 . S
Zn901 O909 1.906 . S
Zn901 O919 1.953 . S
Zn902 O899 1.945 . S
Zn902 O904 1.932 . S
Zn902 O911 1.977 . S
Zn902 O912 1.910 . S
O903 Zn900 1.933 . S
O903 C914 1.226 . S
O904 Zn902 1.932 . S
O904 C914 1.307 . S
O905 Zn898 1.919 . S
O905 C916 1.253 . S
O906 Zn900 1.941 . S
O906 C916 1.283 . S
O907 Zn900 1.965 . S
O907 C915 1.303 . S
O908 Zn901 1.938 . S
O908 C915 1.247 . S
O909 Zn901 1.906 . S
O909 C917 1.304 . S
O910 Zn898 1.924 . S
O910 C918 1.311 . S
O911 Zn902 1.977 . S
O911 C917 1.272 . S
O912 Zn902 1.910 . S
O912 C918 1.231 . S
C913 O897 1.225 . S
C913 O919 1.298 . S
C914 O903 1.226 . S
C914 O904 1.307 . S
C915 O907 1.303 . S
C915 O908 1.247 . S
C916 O905 1.253 . S
C916 O906 1.283 . S
C917 O909 1.304 . S
C917 O911 1.272 . S
C918 O910 1.311 . S
C918 O912 1.231 . S
O919 Zn901 1.953 . S
O919 C913 1.298 . S
O920 Zn921 1.953 . S
O920 C936 1.225 . S
Zn921 O920 1.953 . S
Zn921 O922 1.949 . S
Zn921 O928 1.919 . S
Zn921 O933 1.924 . S
O922 Zn921 1.949 . S
O922 Zn923 1.923 . S
O922 Zn924 1.950 . S
O922 Zn925 1.945 . S
Zn923 O922 1.923 . S
Zn923 O926 1.933 . S
Zn923 O929 1.941 . S
Zn923 O930 1.965 . S
Zn924 O922 1.950 . S
Zn924 O931 1.938 . S
Zn924 O932 1.906 . S
Zn924 O942 1.953 . S
Zn925 O922 1.945 . S
Zn925 O927 1.932 . S
Zn925 O934 1.977 . S
Zn925 O935 1.910 . S
O926 Zn923 1.933 . S
O926 C937 1.226 . S
O927 Zn925 1.932 . S
O927 C937 1.307 . S
O928 Zn921 1.919 . S
O928 C939 1.253 . S
O929 Zn923 1.941 . S
O929 C939 1.283 . S
O930 Zn923 1.965 . S
O930 C938 1.303 . S
O931 Zn924 1.938 . S
O931 C938 1.247 . S
O932 Zn924 1.906 . S
O932 C940 1.304 . S
O933 Zn921 1.924 . S
O933 C941 1.311 . S
O934 Zn925 1.977 . S
O934 C940 1.272 . S
O935 Zn925 1.910 . S
O935 C941 1.231 . S
C936 O920 1.225 . S
C936 O942 1.298 . S
C937 O926 1.226 . S
C937 O927 1.307 . S
C938 O930 1.303 . S
C938 O931 1.247 . S
C939 O928 1.253 . S
C939 O929 1.283 . S
C940 O932 1.304 . S
C940 O934 1.272 . S
C941 O933 1.311 . S
C941 O935 1.231 . S
O942 Zn924 1.953 . S
O942 C936 1.298 . S
O943 Zn944 1.953 . S
O943 C959 1.225 . S
Zn944 O943 1.953 . S
Zn944 O945 1.949 . S
Zn944 O951 1.919 . S
Zn944 O956 1.924 . S
O945 Zn944 1.949 . S
O945 Zn946 1.923 . S
O945 Zn947 1.950 . S
O945 Zn948 1.945 . S
Zn946 O945 1.923 . S
Zn946 O949 1.933 . S
Zn946 O952 1.941 . S
Zn946 O953 1.965 . S
Zn947 O945 1.950 . S
Zn947 O954 1.938 . S
Zn947 O955 1.906 . S
Zn947 O965 1.953 . S
Zn948 O945 1.945 . S
Zn948 O950 1.932 . S
Zn948 O957 1.977 . S
Zn948 O958 1.910 . S
O949 Zn946 1.933 . S
O949 C960 1.226 . S
O950 Zn948 1.932 . S
O950 C960 1.307 . S
O951 Zn944 1.919 . S
O951 C962 1.253 . S
O952 Zn946 1.941 . S
O952 C962 1.283 . S
O953 Zn946 1.965 . S
O953 C961 1.303 . S
O954 Zn947 1.938 . S
O954 C961 1.247 . S
O955 Zn947 1.906 . S
O955 C963 1.304 . S
O956 Zn944 1.924 . S
O956 C964 1.311 . S
O957 Zn948 1.977 . S
O957 C963 1.272 . S
O958 Zn948 1.910 . S
O958 C964 1.231 . S
C959 O943 1.225 . S
C959 O965 1.298 . S
C960 O949 1.226 . S
C960 O950 1.307 . S
C961 O953 1.303 . S
C961 O954 1.247 . S
C962 O951 1.253 . S
C962 O952 1.283 . S
C963 O955 1.304 . S
C963 O957 1.272 . S
C964 O956 1.311 . S
C964 O958 1.231 . S
O965 Zn947 1.953 . S
O965 C959 1.298 . S
O966 Zn967 1.953 . S
O966 C982 1.225 . S
Zn967 O966 1.953 . S
Zn967 O968 1.949 . S
Zn967 O974 1.919 . S
Zn967 O979 1.924 . S
O968 Zn967 1.949 . S
O968 Zn969 1.923 . S
O968 Zn970 1.950 . S
O968 Zn971 1.945 . S
Zn969 O968 1.923 . S
Zn969 O972 1.933 . S
Zn969 O975 1.941 . S
Zn969 O976 1.965 . S
Zn970 O968 1.950 . S
Zn970 O977 1.938 . S
Zn970 O978 1.906 . S
Zn970 O988 1.953 . S
Zn971 O968 1.945 . S
Zn971 O973 1.932 . S
Zn971 O980 1.977 . S
Zn971 O981 1.910 . S
O972 Zn969 1.933 . S
O972 C983 1.226 . S
O973 Zn971 1.932 . S
O973 C983 1.307 . S
O974 Zn967 1.919 . S
O974 C985 1.253 . S
O975 Zn969 1.941 . S
O975 C985 1.283 . S
O976 Zn969 1.965 . S
O976 C984 1.303 . S
O977 Zn970 1.938 . S
O977 C984 1.247 . S
O978 Zn970 1.906 . S
O978 C986 1.304 . S
O979 Zn967 1.924 . S
O979 C987 1.311 . S
O980 Zn971 1.977 . S
O980 C986 1.272 . S
O981 Zn971 1.910 . S
O981 C987 1.231 . S
C982 O966 1.225 . S
C982 O988 1.298 . S
C983 O972 1.226 . S
C983 O973 1.307 . S
C984 O976 1.303 . S
C984 O977 1.247 . S
C985 O974 1.253 . S
C985 O975 1.283 . S
C986 O978 1.304 . S
C986 O980 1.272 . S
C987 O979 1.311 . S
C987 O981 1.231 . S
O988 Zn970 1.953 . S
O988 C982 1.298 . S
O989 Zn990 1.953 . S
O989 C1005 1.225 . S
Zn990 O989 1.953 . S
Zn990 O991 1.949 . S
Zn990 O997 1.919 . S
Zn990 O1002 1.924 . S
O991 Zn990 1.949 . S
O991 Zn992 1.923 . S
O991 Zn993 1.950 . S
O991 Zn994 1.945 . S
Zn992 O991 1.923 . S
Zn992 O995 1.933 . S
Zn992 O998 1.941 . S
Zn992 O999 1.965 . S
Zn993 O991 1.950 . S
Zn993 O1000 1.938 . S
Zn993 O1001 1.906 . S
Zn993 O1011 1.953 . S
Zn994 O991 1.945 . S
Zn994 O996 1.932 . S
Zn994 O1003 1.977 . S
Zn994 O1004 1.910 . S
O995 Zn992 1.933 . S
O995 C1006 1.226 . S
O996 Zn994 1.932 . S
O996 C1006 1.307 . S
O997 Zn990 1.919 . S
O997 C1008 1.253 . S
O998 Zn992 1.941 . S
O998 C1008 1.283 . S
O999 Zn992 1.965 . S
O999 C1007 1.303 . S
O1000 Zn993 1.938 . S
O1000 C1007 1.247 . S
O1001 Zn993 1.906 . S
O1001 C1009 1.304 . S
O1002 Zn990 1.924 . S
O1002 C1010 1.311 . S
O1003 Zn994 1.977 . S
O1003 C1009 1.272 . S
O1004 Zn994 1.910 . S
O1004 C1010 1.231 . S
C1005 O989 1.225 . S
C1005 O1011 1.298 . S
C1006 O995 1.226 . S
C1006 O996 1.307 . S
C1007 O999 1.303 . S
C1007 O1000 1.247 . S
C1008 O997 1.253 . S
C1008 O998 1.283 . S
C1009 O1001 1.304 . S
C1009 O1003 1.272 . S
C1010 O1002 1.311 . S
C1010 O1004 1.231 . S
O1011 Zn993 1.953 . S
O1011 C1005 1.298 . S
O1012 Zn1013 1.953 . S
O1012 C1028 1.225 . S
Zn1013 O1012 1.953 . S
Zn1013 O1014 1.949 . S
Zn1013 O1020 1.919 . S
Zn1013 O1025 1.924 . S
O1014 Zn1013 1.949 . S
O1014 Zn1015 1.923 . S
O1014 Zn1016 1.950 . S
O1014 Zn1017 1.945 . S
Zn1015 O1014 1.923 . S
Zn1015 O1018 1.933 . S
Zn1015 O1021 1.941 . S
Zn1015 O1022 1.965 . S
Zn1016 O1014 1.950 . S
Zn1016 O1023 1.938 . S
Zn1016 O1024 1.906 . S
Zn1016 O1034 1.953 . S
Zn1017 O1014 1.945 . S
Zn1017 O1019 1.932 . S
Zn1017 O1026 1.977 . S
Zn1017 O1027 1.910 . S
O1018 Zn1015 1.933 . S
O1018 C1029 1.226 . S
O1019 Zn1017 1.932 . S
O1019 C1029 1.307 . S
O1020 Zn1013 1.919 . S
O1020 C1031 1.253 . S
O1021 Zn1015 1.941 . S
O1021 C1031 1.283 . S
O1022 Zn1015 1.965 . S
O1022 C1030 1.303 . S
O1023 Zn1016 1.938 . S
O1023 C1030 1.247 . S
O1024 Zn1016 1.906 . S
O1024 C1032 1.304 . S
O1025 Zn1013 1.924 . S
O1025 C1033 1.311 . S
O1026 Zn1017 1.977 . S
O1026 C1032 1.272 . S
O1027 Zn1017 1.910 . S
O1027 C1033 1.231 . S
C1028 O1012 1.225 . S
C1028 O1034 1.298 . S
C1029 O1018 1.226 . S
C1029 O1019 1.307 . S
C1030 O1022 1.303 . S
C1030 O1023 1.247 . S
C1031 O1020 1.253 . S
C1031 O1021 1.283 . S
C1032 O1024 1.304 . S
C1032 O1026 1.272 . S
C1033 O1025 1.311 . S
C1033 O1027 1.231 . S
O1034 Zn1016 1.953 . S
O1034 C1028 1.298 . S
O1035 Zn1036 1.953 . S
O1035 C1051 1.225 . S
Zn1036 O1035 1.953 . S
Zn1036 O1037 1.949 . S
Zn1036 O1043 1.919 . S
Zn1036 O1048 1.924 . S
O1037 Zn1036 1.949 . S
O1037 Zn1038 1.923 . S
O1037 Zn1039 1.950 . S
O1037 Zn1040 1.945 . S
Zn1038 O1037 1.923 . S
Zn1038 O1041 1.933 . S
Zn1038 O1044 1.941 . S
Zn1038 O1045 1.965 . S
Zn1039 O1037 1.950 . S
Zn1039 O1046 1.938 . S
Zn1039 O1047 1.906 . S
Zn1039 O1057 1.953 . S
Zn1040 O1037 1.945 . S
Zn1040 O1042 1.932 . S
Zn1040 O1049 1.977 . S
Zn1040 O1050 1.910 . S
O1041 Zn1038 1.933 . S
O1041 C1052 1.226 . S
O1042 Zn1040 1.932 . S
O1042 C1052 1.307 . S
O1043 Zn1036 1.919 . S
O1043 C1054 1.253 . S
O1044 Zn1038 1.941 . S
O1044 C1054 1.283 . S
O1045 Zn1038 1.965 . S
O1045 C1053 1.303 . S
O1046 Zn1039 1.938 . S
O1046 C1053 1.247 . S
O1047 Zn1039 1.906 . S
O1047 C1055 1.304 . S
O1048 Zn1036 1.924 . S
O1048 C1056 1.311 . S
O1049 Zn1040 1.977 . S
O1049 C1055 1.272 . S
O1050 Zn1040 1.910 . S
O1050 C1056 1.231 . S
C1051 O1035 1.225 . S
C1051 O1057 1.298 . S
C1052 O1041 1.226 . S
C1052 O1042 1.307 . S
C1053 O1045 1.303 . S
C1053 O1046 1.247 . S
C1054 O1043 1.253 . S
C1054 O1044 1.283 . S
C1055 O1047 1.304 . S
C1055 O1049 1.272 . S
C1056 O1048 1.311 . S
C1056 O1050 1.231 . S
O1057 Zn1039 1.953 . S
O1057 C1051 1.298 . S
O1058 Zn1059 1.953 . S
O1058 C1074 1.225 . S
Zn1059 O1058 1.953 . S
Zn1059 O1060 1.949 . S
Zn1059 O1066 1.919 . S
Zn1059 O1071 1.924 . S
O1060 Zn1059 1.949 . S
O1060 Zn1061 1.923 . S
O1060 Zn1062 1.950 . S
O1060 Zn1063 1.945 . S
Zn1061 O1060 1.923 . S
Zn1061 O1064 1.933 . S
Zn1061 O1067 1.941 . S
Zn1061 O1068 1.965 . S
Zn1062 O1060 1.950 . S
Zn1062 O1069 1.938 . S
Zn1062 O1070 1.906 . S
Zn1062 O1080 1.953 . S
Zn1063 O1060 1.945 . S
Zn1063 O1065 1.932 . S
Zn1063 O1072 1.977 . S
Zn1063 O1073 1.910 . S
O1064 Zn1061 1.933 . S
O1064 C1075 1.226 . S
O1065 Zn1063 1.932 . S
O1065 C1075 1.307 . S
O1066 Zn1059 1.919 . S
O1066 C1077 1.253 . S
O1067 Zn1061 1.941 . S
O1067 C1077 1.283 . S
O1068 Zn1061 1.965 . S
O1068 C1076 1.303 . S
O1069 Zn1062 1.938 . S
O1069 C1076 1.247 . S
O1070 Zn1062 1.906 . S
O1070 C1078 1.304 . S
O1071 Zn1059 1.924 . S
O1071 C1079 1.311 . S
O1072 Zn1063 1.977 . S
O1072 C1078 1.272 . S
O1073 Zn1063 1.910 . S
O1073 C1079 1.231 . S
C1074 O1058 1.225 . S
C1074 O1080 1.298 . S
C1075 O1064 1.226 . S
C1075 O1065 1.307 . S
C1076 O1068 1.303 . S
C1076 O1069 1.247 . S
C1077 O1066 1.253 . S
C1077 O1067 1.283 . S
C1078 O1070 1.304 . S
C1078 O1072 1.272 . S
C1079 O1071 1.311 . S
C1079 O1073 1.231 . S
O1080 Zn1062 1.953 . S
O1080 C1074 1.298 . S
O1081 Zn1082 1.953 . S
O1081 C1097 1.225 . S
Zn1082 O1081 1.953 . S
Zn1082 O1083 1.949 . S
Zn1082 O1089 1.919 . S
Zn1082 O1094 1.924 . S
O1083 Zn1082 1.949 . S
O1083 Zn1084 1.923 . S
O1083 Zn1085 1.950 . S
O1083 Zn1086 1.945 . S
Zn1084 O1083 1.923 . S
Zn1084 O1087 1.933 . S
Zn1084 O1090 1.941 . S
Zn1084 O1091 1.965 . S
Zn1085 O1083 1.950 . S
Zn1085 O1092 1.938 . S
Zn1085 O1093 1.906 . S
Zn1085 O1103 1.953 . S
Zn1086 O1083 1.945 . S
Zn1086 O1088 1.932 . S
Zn1086 O1095 1.977 . S
Zn1086 O1096 1.910 . S
O1087 Zn1084 1.933 . S
O1087 C1098 1.226 . S
O1088 Zn1086 1.932 . S
O1088 C1098 1.307 . S
O1089 Zn1082 1.919 . S
O1089 C1100 1.253 . S
O1090 Zn1084 1.941 . S
O1090 C1100 1.283 . S
O1091 Zn1084 1.965 . S
O1091 C1099 1.303 . S
O1092 Zn1085 1.938 . S
O1092 C1099 1.247 . S
O1093 Zn1085 1.906 . S
O1093 C1101 1.304 . S
O1094 Zn1082 1.924 . S
O1094 C1102 1.311 . S
O1095 Zn1086 1.977 . S
O1095 C1101 1.272 . S
O1096 Zn1086 1.910 . S
O1096 C1102 1.231 . S
C1097 O1081 1.225 . S
C1097 O1103 1.298 . S
C1098 O1087 1.226 . S
C1098 O1088 1.307 . S
C1099 O1091 1.303 . S
C1099 O1092 1.247 . S
C1100 O1089 1.253 . S
C1100 O1090 1.283 . S
C1101 O1093 1.304 . S
C1101 O1095 1.272 . S
C1102 O1094 1.311 . S
C1102 O1096 1.231 . S
O1103 Zn1085 1.953 . S
O1103 C1097 1.298 . S
H1104 C1110 0.930 . S
H1105 C1113 0.930 . S
H1106 C1114 0.930 . S
H1107 C1115 0.930 . S
H1108 C1118 0.930 . S
H1109 C1119 0.930 . S
C1110 H1104 0.930 . S
C1110 C1111 1.355 1_655 S
C1110 C1112 1.418 . S
C1111 C1110 1.355 1_455 S
C1111 C1113 1.419 . S
C1112 C1110 1.418 . S
C1112 C1117 1.399 1_655 S
C1112 C1119 1.432 . S
C1113 H1105 0.930 . S
C1113 C1111 1.419 . S
C1113 C1114 1.362 . S
C1114 H1106 0.930 . S
C1114 C1113 1.362 . S
C1114 C1117 1.409 . S
C1115 H1107 0.930 . S
C1115 C1116 1.355 . S
C1115 C1117 1.415 . S
C1116 C1115 1.355 . S
C1116 C1118 1.419 1_455 S
C1117 C1112 1.399 1_455 S
C1117 C1114 1.409 . S
C1117 C1115 1.415 . S
C1118 H1108 0.930 . S
C1118 C1116 1.419 1_655 S
C1118 C1119 1.362 . S
C1119 H1109 0.930 . S
C1119 C1112 1.432 . S
C1119 C1118 1.362 . S
H1120 C1126 0.930 . S
H1121 C1129 0.930 . S
H1122 C1130 0.930 . S
H1123 C1131 0.930 . S
H1124 C1134 0.930 . S
H1125 C1135 0.930 . S
C1126 H1120 0.930 . S
C1126 C1127 1.355 . S
C1126 C1128 1.415 . S
C1127 C1126 1.355 . S
C1127 C1129 1.419 1_545 S
C1128 C1126 1.415 . S
C1128 C1133 1.428 1_545 S
C1128 C1135 1.409 . S
C1129 H1121 0.930 . S
C1129 C1127 1.419 1_565 S
C1129 C1130 1.362 . S
C1130 H1122 0.930 . S
C1130 C1129 1.362 . S
C1130 C1133 1.407 . S
C1131 H1123 0.930 . S
C1131 C1132 1.355 1_565 S
C1131 C1133 1.414 . S
C1132 C1131 1.355 1_545 S
C1132 C1134 1.419 . S
C1133 C1128 1.428 1_565 S
C1133 C1130 1.407 . S
C1133 C1131 1.414 . S
C1134 H1124 0.930 . S
C1134 C1132 1.419 . S
C1134 C1135 1.362 . S
C1135 H1125 0.930 . S
C1135 C1128 1.409 . S
C1135 C1134 1.362 . S
H1136 C1142 0.930 . S
H1137 C1145 0.930 . S
H1138 C1146 0.930 . S
H1139 C1147 0.930 . S
H1140 C1150 0.930 . S
H1141 C1151 0.930 . S
C1142 H1136 0.930 . S
C1142 C1143 1.355 . S
C1142 C1144 1.415 . S
C1143 C1142 1.355 . S
C1143 C1145 1.419 1_455 S
C1144 C1142 1.415 . S
C1144 C1149 1.425 1_455 S
C1144 C1151 1.409 . S
C1145 H1137 0.930 . S
C1145 C1143 1.419 1_655 S
C1145 C1146 1.362 . S
C1146 H1138 0.930 . S
C1146 C1145 1.362 . S
C1146 C1149 1.409 . S
C1147 H1139 0.930 . S
C1147 C1148 1.355 1_655 S
C1147 C1149 1.415 . S
C1148 C1147 1.355 1_455 S
C1148 C1150 1.419 . S
C1149 C1144 1.425 1_655 S
C1149 C1146 1.409 . S
C1149 C1147 1.415 . S
C1150 H1140 0.930 . S
C1150 C1148 1.419 . S
C1150 C1151 1.362 . S
C1151 H1141 0.930 . S
C1151 C1144 1.409 . S
C1151 C1150 1.362 . S
H1152 C1158 0.930 . S
H1153 C1161 0.930 . S
H1154 C1162 0.930 . S
H1155 C1163 0.930 . S
H1156 C1166 0.930 . S
H1157 C1167 0.930 . S
C1158 H1152 0.930 . S
C1158 C1159 1.355 . S
C1158 C1160 1.415 . S
C1159 C1158 1.355 . S
C1159 C1161 1.419 1_545 S
C1160 C1158 1.415 . S
C1160 C1165 1.425 1_545 S
C1160 C1167 1.409 . S
C1161 H1153 0.930 . S
C1161 C1159 1.419 1_565 S
C1161 C1162 1.362 . S
C1162 H1154 0.930 . S
C1162 C1161 1.362 . S
C1162 C1165 1.409 . S
C1163 H1155 0.930 . S
C1163 C1164 1.355 1_565 S
C1163 C1165 1.415 . S
C1164 C1163 1.355 1_545 S
C1164 C1166 1.419 . S
C1165 C1160 1.425 1_565 S
C1165 C1162 1.409 . S
C1165 C1163 1.415 . S
C1166 H1156 0.930 . S
C1166 C1164 1.419 . S
C1166 C1167 1.362 . S
C1167 H1157 0.930 . S
C1167 C1160 1.409 . S
C1167 C1166 1.362 . S
H1168 C1174 0.930 . S
H1169 C1177 0.930 . S
H1170 C1178 0.930 . S
H1171 C1179 0.930 . S
H1172 C1182 0.930 . S
H1173 C1183 0.930 . S
C1174 H1168 0.930 . S
C1174 C1175 1.355 1_565 S
C1174 C1176 1.415 . S
C1175 C1174 1.355 1_545 S
C1175 C1177 1.419 . S
C1176 C1174 1.415 . S
C1176 C1181 1.425 1_565 S
C1176 C1183 1.409 . S
C1177 H1169 0.930 . S
C1177 C1175 1.419 . S
C1177 C1178 1.362 . S
C1178 H1170 0.930 . S
C1178 C1177 1.362 . S
C1178 C1181 1.409 . S
C1179 H1171 0.930 . S
C1179 C1180 1.355 . S
C1179 C1181 1.415 . S
C1180 C1179 1.355 . S
C1180 C1182 1.419 1_545 S
C1181 C1176 1.425 1_545 S
C1181 C1178 1.409 . S
C1181 C1179 1.415 . S
C1182 H1172 0.930 . S
C1182 C1180 1.419 1_565 S
C1182 C1183 1.362 . S
C1183 H1173 0.930 . S
C1183 C1176 1.409 . S
C1183 C1182 1.362 . S
H1184 C1190 0.930 . S
H1185 C1193 0.930 . S
H1186 C1194 0.930 . S
H1187 C1195 0.930 . S
H1188 C1198 0.930 . S
H1189 C1199 0.930 . S
C1190 H1184 0.930 . S
C1190 C1191 1.355 . S
C1190 C1192 1.415 . S
C1191 C1190 1.355 . S
C1191 C1193 1.419 1_455 S
C1192 C1190 1.415 . S
C1192 C1197 1.425 1_455 S
C1192 C1199 1.409 . S
C1193 H1185 0.930 . S
C1193 C1191 1.419 1_655 S
C1193 C1194 1.362 . S
C1194 H1186 0.930 . S
C1194 C1193 1.362 . S
C1194 C1197 1.409 . S
C1195 H1187 0.930 . S
C1195 C1196 1.355 1_655 S
C1195 C1197 1.415 . S
C1196 C1195 1.355 1_455 S
C1196 C1198 1.419 . S
C1197 C1192 1.425 1_655 S
C1197 C1194 1.409 . S
C1197 C1195 1.415 . S
C1198 H1188 0.930 . S
C1198 C1196 1.419 . S
C1198 C1199 1.362 . S
C1199 H1189 0.930 . S
C1199 C1192 1.409 . S
C1199 C1198 1.362 . S
H1200 C1206 0.930 . S
H1201 C1209 0.930 . S
H1202 C1210 0.930 . S
H1203 C1211 0.930 . S
H1204 C1214 0.930 . S
H1205 C1215 0.930 . S
C1206 H1200 0.930 . S
C1206 C1207 1.355 1_565 S
C1206 C1208 1.415 . S
C1207 C1206 1.355 1_545 S
C1207 C1209 1.419 . S
C1208 C1206 1.415 . S
C1208 C1213 1.425 1_565 S
C1208 C1215 1.409 . S
C1209 H1201 0.930 . S
C1209 C1207 1.419 . S
C1209 C1210 1.362 . S
C1210 H1202 0.930 . S
C1210 C1209 1.362 . S
C1210 C1213 1.409 . S
C1211 H1203 0.930 . S
C1211 C1212 1.355 . S
C1211 C1213 1.415 . S
C1212 C1211 1.355 . S
C1212 C1214 1.419 1_545 S
C1213 C1208 1.425 1_545 S
C1213 C1210 1.409 . S
C1213 C1211 1.415 . S
C1214 H1204 0.930 . S
C1214 C1212 1.419 1_565 S
C1214 C1215 1.362 . S
C1215 H1205 0.930 . S
C1215 C1208 1.409 . S
C1215 C1214 1.362 . S
H1216 C1222 0.930 . S
H1217 C1225 0.930 . S
H1218 C1226 0.930 . S
H1219 C1227 0.930 . S
H1220 C1230 0.930 . S
H1221 C1231 0.930 . S
C1222 H1216 0.930 . S
C1222 C1223 1.355 . S
C1222 C1224 1.415 . S
C1223 C1222 1.355 . S
C1223 C1225 1.419 1_455 S
C1224 C1222 1.415 . S
C1224 C1229 1.425 1_455 S
C1224 C1231 1.409 . S
C1225 H1217 0.930 . S
C1225 C1223 1.419 1_655 S
C1225 C1226 1.362 . S
C1226 H1218 0.930 . S
C1226 C1225 1.362 . S
C1226 C1229 1.409 . S
C1227 H1219 0.930 . S
C1227 C1228 1.355 1_655 S
C1227 C1229 1.415 . S
C1228 C1227 1.355 1_455 S
C1228 C1230 1.419 . S
C1229 C1224 1.425 1_655 S
C1229 C1226 1.409 . S
C1229 C1227 1.415 . S
C1230 H1220 0.930 . S
C1230 C1228 1.419 . S
C1230 C1231 1.362 . S
C1231 H1221 0.930 . S
C1231 C1224 1.409 . S
C1231 C1230 1.362 . S
H1232 C1238 0.930 . S
H1233 C1241 0.930 . S
H1234 C1242 0.930 . S
H1235 C1243 0.931 . S
H1236 C1246 0.930 . S
H1237 C1247 0.930 . S
C1238 H1232 0.930 . S
C1238 C1239 1.355 . S
C1238 C1240 1.415 . S
C1239 C1238 1.355 . S
C1239 C1241 1.419 1_554 S
C1240 C1238 1.415 . S
C1240 C1245 1.425 . S
C1240 C1247 1.409 . S
C1241 H1233 0.930 . S
C1241 C1239 1.419 1_556 S
C1241 C1242 1.362 . S
C1242 H1234 0.930 . S
C1242 C1241 1.362 . S
C1242 C1245 1.409 1_556 S
C1243 H1235 0.931 . S
C1243 C1244 1.354 1_556 S
C1243 C1245 1.414 1_556 S
C1244 C1243 1.354 1_554 S
C1244 C1246 1.419 . S
C1245 C1240 1.425 . S
C1245 C1242 1.409 1_554 S
C1245 C1243 1.414 1_554 S
C1246 H1236 0.930 . S
C1246 C1244 1.419 . S
C1246 C1247 1.362 . S
C1247 H1237 0.930 . S
C1247 C1240 1.409 . S
C1247 C1246 1.362 . S
H1248 C1254 0.930 . S
H1249 C1257 0.930 . S
H1250 C1258 0.937 . S
H1251 C1259 0.930 . S
H1252 C1262 0.930 . S
H1253 C1263 0.930 . S
C1254 H1248 0.930 . S
C1254 C1255 1.355 . S
C1254 C1256 1.415 . S
C1255 C1254 1.355 . S
C1255 C1257 1.419 1_554 S
C1256 C1254 1.415 . S
C1256 C1261 1.425 . S
C1256 C1263 1.409 . S
C1257 H1249 0.930 . S
C1257 C1255 1.419 1_556 S
C1257 C1258 1.363 . S
C1258 H1250 0.937 . S
C1258 C1257 1.363 . S
C1258 C1261 1.403 1_556 S
C1259 H1251 0.930 . S
C1259 C1260 1.355 . S
C1259 C1261 1.415 . S
C1260 C1259 1.355 . S
C1260 C1262 1.419 . S
C1261 C1256 1.425 . S
C1261 C1258 1.403 1_554 S
C1261 C1259 1.415 . S
C1262 H1252 0.930 . S
C1262 C1260 1.419 . S
C1262 C1263 1.362 . S
C1263 H1253 0.930 . S
C1263 C1256 1.409 . S
C1263 C1262 1.362 . S
H1264 C1270 0.930 . S
H1265 C1273 0.930 . S
H1266 C1274 0.930 . S
H1267 C1275 0.930 . S
H1268 C1278 0.930 . S
H1269 C1279 0.930 . S
C1270 H1264 0.930 . S
C1270 C1271 1.355 . S
C1270 C1272 1.415 . S
C1271 C1270 1.355 . S
C1271 C1273 1.419 1_554 S
C1272 C1270 1.415 . S
C1272 C1277 1.425 1_554 S
C1272 C1279 1.409 . S
C1273 H1265 0.930 . S
C1273 C1271 1.419 1_556 S
C1273 C1274 1.362 . S
C1274 H1266 0.930 . S
C1274 C1273 1.362 . S
C1274 C1277 1.409 . S
C1275 H1267 0.930 . S
C1275 C1276 1.355 1_556 S
C1275 C1277 1.415 . S
C1276 C1275 1.355 1_554 S
C1276 C1278 1.419 . S
C1277 C1272 1.425 1_556 S
C1277 C1274 1.409 . S
C1277 C1275 1.415 . S
C1278 H1268 0.930 . S
C1278 C1276 1.419 . S
C1278 C1279 1.362 . S
C1279 H1269 0.930 . S
C1279 C1272 1.409 . S
C1279 C1278 1.362 . S
H1280 C1286 0.930 . S
H1281 C1289 0.930 . S
H1282 C1290 0.930 . S
H1283 C1291 0.930 . S
H1284 C1294 0.930 . S
H1285 C1295 0.930 . S
C1286 H1280 0.930 . S
C1286 C1287 1.355 . S
C1286 C1288 1.415 . S
C1287 C1286 1.355 . S
C1287 C1289 1.419 1_554 S
C1288 C1286 1.415 . S
C1288 C1293 1.425 1_554 S
C1288 C1295 1.409 . S
C1289 H1281 0.930 . S
C1289 C1287 1.419 1_556 S
C1289 C1290 1.362 . S
C1290 H1282 0.930 . S
C1290 C1289 1.362 . S
C1290 C1293 1.409 . S
C1291 H1283 0.930 . S
C1291 C1292 1.355 1_556 S
C1291 C1293 1.415 . S
C1292 C1291 1.355 1_554 S
C1292 C1294 1.419 . S
C1293 C1288 1.425 1_556 S
C1293 C1290 1.409 . S
C1293 C1291 1.415 . S
C1294 H1284 0.930 . S
C1294 C1292 1.419 . S
C1294 C1295 1.362 . S
C1295 H1285 0.930 . S
C1295 C1288 1.409 . S
C1295 C1294 1.362 . S
H1296 C1302 0.930 . S
H1297 C1305 0.930 . S
H1298 C1306 0.930 1_554 S
H1299 C1307 0.930 . S
H1300 C1310 0.930 . S
H1301 C1311 0.930 . S
C1302 H1296 0.930 . S
C1302 C1303 1.355 . S
C1302 C1304 1.415 1_556 S
C1303 C1302 1.355 . S
C1303 C1305 1.419 . S
C1304 C1302 1.415 1_554 S
C1304 C1309 1.425 . S
C1304 C1311 1.409 . S
C1305 H1297 0.930 . S
C1305 C1303 1.419 . S
C1305 C1306 1.362 . S
C1306 H1298 0.930 1_556 S
C1306 C1305 1.362 . S
C1306 C1309 1.409 1_556 S
C1307 H1299 0.930 . S
C1307 C1308 1.355 . S
C1307 C1309 1.415 . S
C1308 C1307 1.355 . S
C1308 C1310 1.419 . S
C1309 C1304 1.425 . S
C1309 C1306 1.409 1_554 S
C1309 C1307 1.415 . S
C1310 H1300 0.930 . S
C1310 C1308 1.419 . S
C1310 C1311 1.362 . S
C1311 H1301 0.930 . S
C1311 C1304 1.409 . S
C1311 C1310 1.362 . S
H1312 C1318 0.930 . S
H1313 C1321 0.930 . S
H1314 C1322 0.923 1_554 S
H1315 C1323 0.930 . S
H1316 C1326 0.930 . S
H1317 C1327 0.930 . S
C1318 H1312 0.930 . S
C1318 C1319 1.355 . S
C1318 C1320 1.415 1_556 S
C1319 C1318 1.355 . S
C1319 C1321 1.419 . S
C1320 C1318 1.415 1_554 S
C1320 C1325 1.425 . S
C1320 C1327 1.409 . S
C1321 H1313 0.930 . S
C1321 C1319 1.419 . S
C1321 C1322 1.362 . S
C1322 H1314 0.923 1_556 S
C1322 C1321 1.362 . S
C1322 C1325 1.409 1_556 S
C1323 H1315 0.930 . S
C1323 C1324 1.355 . S
C1323 C1325 1.415 . S
C1324 C1323 1.355 . S
C1324 C1326 1.419 . S
C1325 C1320 1.425 . S
C1325 C1322 1.409 1_554 S
C1325 C1323 1.415 . S
C1326 H1316 0.930 . S
C1326 C1324 1.419 . S
C1326 C1327 1.362 . S
C1327 H1317 0.930 . S
C1327 C1320 1.409 . S
C1327 C1326 1.362 . S
H1328 C1334 0.930 . S
H1329 C1337 0.930 . S
H1330 C1338 0.930 1_554 S
H1331 C1339 0.930 . S
H1332 C1342 0.930 . S
H1333 C1343 0.930 . S
C1334 H1328 0.930 . S
C1334 C1335 1.355 . S
C1334 C1336 1.415 1_556 S
C1335 C1334 1.355 . S
C1335 C1337 1.419 . S
C1336 C1334 1.415 1_554 S
C1336 C1341 1.425 . S
C1336 C1343 1.409 . S
C1337 H1329 0.930 . S
C1337 C1335 1.419 . S
C1337 C1338 1.362 . S
C1338 H1330 0.930 1_556 S
C1338 C1337 1.362 . S
C1338 C1341 1.409 1_556 S
C1339 H1331 0.930 . S
C1339 C1340 1.355 . S
C1339 C1341 1.415 . S
C1340 C1339 1.355 . S
C1340 C1342 1.419 . S
C1341 C1336 1.425 . S
C1341 C1338 1.409 1_554 S
C1341 C1339 1.415 . S
C1342 H1332 0.930 . S
C1342 C1340 1.419 . S
C1342 C1343 1.362 . S
C1343 H1333 0.930 . S
C1343 C1336 1.409 . S
C1343 C1342 1.362 . S
H1344 C1350 0.930 . S
H1345 C1353 0.930 . S
H1346 C1354 0.938 . S
H1347 C1355 0.930 . S
H1348 C1358 0.930 . S
H1349 C1359 0.930 . S
C1350 H1344 0.930 . S
C1350 C1351 1.355 . S
C1350 C1352 1.415 1_556 S
C1351 C1350 1.355 . S
C1351 C1353 1.419 . S
C1352 C1350 1.415 1_554 S
C1352 C1357 1.425 . S
C1352 C1359 1.409 . S
C1353 H1345 0.930 . S
C1353 C1351 1.419 . S
C1353 C1354 1.362 . S
C1354 H1346 0.938 . S
C1354 C1353 1.362 . S
C1354 C1357 1.409 1_556 S
C1355 H1347 0.930 . S
C1355 C1356 1.355 . S
C1355 C1357 1.415 . S
C1356 C1355 1.355 . S
C1356 C1358 1.419 . S
C1357 C1352 1.425 . S
C1357 C1354 1.409 1_554 S
C1357 C1355 1.415 . S
C1358 H1348 0.930 . S
C1358 C1356 1.419 . S
C1358 C1359 1.362 . S
C1359 H1349 0.930 . S
C1359 C1352 1.409 . S
C1359 C1358 1.362 . S
H1360 C1366 0.930 . S
H1361 C1369 0.930 . S
H1362 C1370 0.930 . S
H1363 C1371 0.930 . S
H1364 C1374 0.930 . S
H1365 C1375 0.930 . S
C1366 H1360 0.930 . S
C1366 C1367 1.355 . S
C1366 C1368 1.415 1_655 S
C1367 C1366 1.355 . S
C1367 C1369 1.419 . S
C1368 C1366 1.415 1_455 S
C1368 C1373 1.425 . S
C1368 C1375 1.409 . S
C1369 H1361 0.930 . S
C1369 C1367 1.419 . S
C1369 C1370 1.362 . S
C1370 H1362 0.930 . S
C1370 C1369 1.362 . S
C1370 C1373 1.409 1_655 S
C1371 H1363 0.930 . S
C1371 C1372 1.355 . S
C1371 C1373 1.415 . S
C1372 C1371 1.355 . S
C1372 C1374 1.419 . S
C1373 C1368 1.425 . S
C1373 C1370 1.409 1_455 S
C1373 C1371 1.415 . S
C1374 H1364 0.930 . S
C1374 C1372 1.419 . S
C1374 C1375 1.362 . S
C1375 H1365 0.930 . S
C1375 C1368 1.409 . S
C1375 C1374 1.362 . S
H1376 C1382 0.930 . S
H1377 C1385 0.930 . S
H1378 C1386 0.930 1_545 S
H1379 C1387 0.930 . S
H1380 C1390 0.930 . S
H1381 C1391 0.930 . S
C1382 H1376 0.930 . S
C1382 C1383 1.355 . S
C1382 C1384 1.415 1_565 S
C1383 C1382 1.355 . S
C1383 C1385 1.419 . S
C1384 C1382 1.415 1_545 S
C1384 C1389 1.425 . S
C1384 C1391 1.409 . S
C1385 H1377 0.930 . S
C1385 C1383 1.419 . S
C1385 C1386 1.362 . S
C1386 H1378 0.930 1_565 S
C1386 C1385 1.362 . S
C1386 C1389 1.409 1_565 S
C1387 H1379 0.930 . S
C1387 C1388 1.355 . S
C1387 C1389 1.415 . S
C1388 C1387 1.355 . S
C1388 C1390 1.419 . S
C1389 C1384 1.425 . S
C1389 C1386 1.409 1_545 S
C1389 C1387 1.415 . S
C1390 H1380 0.930 . S
C1390 C1388 1.419 . S
C1390 C1391 1.362 . S
C1391 H1381 0.930 . S
C1391 C1384 1.409 . S
C1391 C1390 1.362 . S
H1392 C1398 0.930 . S
H1393 C1401 0.930 . S
H1394 C1402 0.930 . S
H1395 C1403 0.930 . S
H1396 C1406 0.930 . S
H1397 C1407 0.930 . S
C1398 H1392 0.930 . S
C1398 C1399 1.355 . S
C1398 C1400 1.415 1_655 S
C1399 C1398 1.355 . S
C1399 C1401 1.419 . S
C1400 C1398 1.415 1_455 S
C1400 C1405 1.425 . S
C1400 C1407 1.409 . S
C1401 H1393 0.930 . S
C1401 C1399 1.419 . S
C1401 C1402 1.362 . S
C1402 H1394 0.930 . S
C1402 C1401 1.362 . S
C1402 C1405 1.409 1_655 S
C1403 H1395 0.930 . S
C1403 C1404 1.355 . S
C1403 C1405 1.415 . S
C1404 C1403 1.355 . S
C1404 C1406 1.419 . S
C1405 C1400 1.425 . S
C1405 C1402 1.409 1_455 S
C1405 C1403 1.415 . S
C1406 H1396 0.930 . S
C1406 C1404 1.419 . S
C1406 C1407 1.362 . S
C1407 H1397 0.930 . S
C1407 C1400 1.409 . S
C1407 C1406 1.362 . S
H1408 C1414 0.930 . S
H1409 C1417 0.930 . S
H1410 C1418 0.930 . S
H1411 C1419 0.930 . S
H1412 C1422 0.930 . S
H1413 C1423 0.930 1_545 S
C1414 H1408 0.930 . S
C1414 C1415 1.355 . S
C1414 C1416 1.415 . S
C1415 C1414 1.355 . S
C1415 C1417 1.419 . S
C1416 C1414 1.415 . S
C1416 C1421 1.425 . S
C1416 C1423 1.409 1_545 S
C1417 H1409 0.930 . S
C1417 C1415 1.419 . S
C1417 C1418 1.362 . S
C1418 H1410 0.930 . S
C1418 C1417 1.362 . S
C1418 C1421 1.409 . S
C1419 H1411 0.930 . S
C1419 C1420 1.355 . S
C1419 C1421 1.415 1_565 S
C1420 C1419 1.355 . S
C1420 C1422 1.419 . S
C1421 C1416 1.425 . S
C1421 C1418 1.409 . S
C1421 C1419 1.415 1_545 S
C1422 H1412 0.930 . S
C1422 C1420 1.419 . S
C1422 C1423 1.362 . S
C1423 H1413 0.930 1_565 S
C1423 C1416 1.409 1_565 S
C1423 C1422 1.362 . S
H1424 C1430 0.930 . S
H1425 C1433 0.930 . S
H1426 C1434 0.930 1_545 S
H1427 C1435 0.930 . S
H1428 C1438 0.930 . S
H1429 C1439 0.930 . S
C1430 H1424 0.930 . S
C1430 C1431 1.355 . S
C1430 C1432 1.415 1_565 S
C1431 C1430 1.355 . S
C1431 C1433 1.419 . S
C1432 C1430 1.415 1_545 S
C1432 C1437 1.425 . S
C1432 C1439 1.409 . S
C1433 H1425 0.930 . S
C1433 C1431 1.419 . S
C1433 C1434 1.362 . S
C1434 H1426 0.930 1_565 S
C1434 C1433 1.362 . S
C1434 C1437 1.409 1_565 S
C1435 H1427 0.930 . S
C1435 C1436 1.355 . S
C1435 C1437 1.415 . S
C1436 C1435 1.355 . S
C1436 C1438 1.419 . S
C1437 C1432 1.425 . S
C1437 C1434 1.409 1_545 S
C1437 C1435 1.415 . S
C1438 H1428 0.930 . S
C1438 C1436 1.419 . S
C1438 C1439 1.362 . S
C1439 H1429 0.930 . S
C1439 C1432 1.409 . S
C1439 C1438 1.362 . S
H1440 C1446 0.930 . S
H1441 C1449 0.930 . S
H1442 C1450 0.930 . S
H1443 C1451 0.930 . S
H1444 C1454 0.930 . S
H1445 C1455 0.930 . S
C1446 H1440 0.930 . S
C1446 C1447 1.355 . S
C1446 C1448 1.415 . S
C1447 C1446 1.355 . S
C1447 C1449 1.419 . S
C1448 C1446 1.415 . S
C1448 C1453 1.425 . S
C1448 C1455 1.409 1_455 S
C1449 H1441 0.930 . S
C1449 C1447 1.419 . S
C1449 C1450 1.362 . S
C1450 H1442 0.930 . S
C1450 C1449 1.362 . S
C1450 C1453 1.409 . S
C1451 H1443 0.930 . S
C1451 C1452 1.355 . S
C1451 C1453 1.415 1_655 S
C1452 C1451 1.355 . S
C1452 C1454 1.419 . S
C1453 C1448 1.425 . S
C1453 C1450 1.409 . S
C1453 C1451 1.415 1_455 S
C1454 H1444 0.930 . S
C1454 C1452 1.419 . S
C1454 C1455 1.362 . S
C1455 H1445 0.930 . S
C1455 C1448 1.409 1_655 S
C1455 C1454 1.362 . S
H1456 C1462 0.930 . S
H1457 C1465 0.930 . S
H1458 C1466 0.930 1_545 S
H1459 C1467 0.930 . S
H1460 C1470 0.930 . S
H1461 C1471 0.930 . S
C1462 H1456 0.930 . S
C1462 C1463 1.355 . S
C1462 C1464 1.415 1_565 S
C1463 C1462 1.355 . S
C1463 C1465 1.419 . S
C1464 C1462 1.415 1_545 S
C1464 C1469 1.425 . S
C1464 C1471 1.409 . S
C1465 H1457 0.930 . S
C1465 C1463 1.419 . S
C1465 C1466 1.362 . S
C1466 H1458 0.930 1_565 S
C1466 C1465 1.362 . S
C1466 C1469 1.409 1_565 S
C1467 H1459 0.930 . S
C1467 C1468 1.355 . S
C1467 C1469 1.415 . S
C1468 C1467 1.355 . S
C1468 C1470 1.419 . S
C1469 C1464 1.425 . S
C1469 C1466 1.409 1_545 S
C1469 C1467 1.415 . S
C1470 H1460 0.930 . S
C1470 C1468 1.419 . S
C1470 C1471 1.362 . S
C1471 H1461 0.930 . S
C1471 C1464 1.409 . S
C1471 C1470 1.362 . S
H1472 C1478 0.930 . S
H1473 C1481 0.930 . S
H1474 C1482 0.930 . S
H1475 C1483 0.930 . S
H1476 C1486 0.930 . S
H1477 C1487 0.930 . S
C1478 H1472 0.930 . S
C1478 C1479 1.355 . S
C1478 C1480 1.415 . S
C1479 C1478 1.355 . S
C1479 C1481 1.419 . S
C1480 C1478 1.415 . S
C1480 C1485 1.425 . S
C1480 C1487 1.409 1_455 S
C1481 H1473 0.930 . S
C1481 C1479 1.419 . S
C1481 C1482 1.362 . S
C1482 H1474 0.930 . S
C1482 C1481 1.362 . S
C1482 C1485 1.409 . S
C1483 H1475 0.930 . S
C1483 C1484 1.355 . S
C1483 C1485 1.415 1_655 S
C1484 C1483 1.355 . S
C1484 C1486 1.419 . S
C1485 C1480 1.425 . S
C1485 C1482 1.409 . S
C1485 C1483 1.415 1_455 S
C1486 H1476 0.930 . S
C1486 C1484 1.419 . S
C1486 C1487 1.362 . S
C1487 H1477 0.930 . S
C1487 C1480 1.409 1_655 S
C1487 C1486 1.362 . S
H1488 C1494 0.930 . S
H1489 C1497 0.930 . S
H1490 C1498 0.930 . S
H1491 C1499 0.930 1_655 S
H1492 C1502 0.930 . S
H1493 C1503 0.930 . S
C1494 H1488 0.930 . S
C1494 C1495 1.355 . S
C1494 C1496 1.415 . S
C1495 C1494 1.355 . S
C1495 C1497 1.419 1_455 S
C1496 C1494 1.415 . S
C1496 C1501 1.425 . S
C1496 C1503 1.409 . S
C1497 H1489 0.930 . S
C1497 C1495 1.419 1_655 S
C1497 C1498 1.362 . S
C1498 H1490 0.930 . S
C1498 C1497 1.362 . S
C1498 C1501 1.409 1_655 S
C1499 H1491 0.930 1_455 S
C1499 C1500 1.355 . S
C1499 C1501 1.415 . S
C1500 C1499 1.355 . S
C1500 C1502 1.419 . S
C1501 C1496 1.425 . S
C1501 C1498 1.409 1_455 S
C1501 C1499 1.415 . S
C1502 H1492 0.930 . S
C1502 C1500 1.419 . S
C1502 C1503 1.362 . S
C1503 H1493 0.930 . S
C1503 C1496 1.409 . S
C1503 C1502 1.362 . S
H1504 C1510 0.930 . S
H1505 C1513 0.930 . S
H1506 C1514 0.930 . S
H1507 C1515 0.930 . S
H1508 C1518 0.930 . S
H1509 C1519 0.930 . S
C1510 H1504 0.930 . S
C1510 C1511 1.355 . S
C1510 C1512 1.415 . S
C1511 C1510 1.355 . S
C1511 C1513 1.419 . S
C1512 C1510 1.415 . S
C1512 C1517 1.425 . S
C1512 C1519 1.409 . S
C1513 H1505 0.930 . S
C1513 C1511 1.419 . S
C1513 C1514 1.362 . S
C1514 H1506 0.930 . S
C1514 C1513 1.362 . S
C1514 C1517 1.409 . S
C1515 H1507 0.930 . S
C1515 C1516 1.355 . S
C1515 C1517 1.415 . S
C1516 C1515 1.355 . S
C1516 C1518 1.419 . S
C1517 C1512 1.425 . S
C1517 C1514 1.409 . S
C1517 C1515 1.415 . S
C1518 H1508 0.930 . S
C1518 C1516 1.419 . S
C1518 C1519 1.362 . S
C1519 H1509 0.930 . S
C1519 C1512 1.409 . S
C1519 C1518 1.362 . S
H1520 C1526 0.921 1_655 S
H1521 C1529 0.930 . S
H1522 C1530 0.930 . S
H1523 C1531 0.930 . S
H1524 C1534 0.930 . S
H1525 C1535 0.930 . S
C1526 H1520 0.921 1_455 S
C1526 C1527 1.355 . S
C1526 C1528 1.415 . S
C1527 C1526 1.355 . S
C1527 C1529 1.419 . S
C1528 C1526 1.415 . S
C1528 C1533 1.425 . S
C1528 C1535 1.409 1_455 S
C1529 H1521 0.930 . S
C1529 C1527 1.419 . S
C1529 C1530 1.362 . S
C1530 H1522 0.930 . S
C1530 C1529 1.362 . S
C1530 C1533 1.409 . S
C1531 H1523 0.930 . S
C1531 C1532 1.355 . S
C1531 C1533 1.415 . S
C1532 C1531 1.355 . S
C1532 C1534 1.419 1_455 S
C1533 C1528 1.425 . S
C1533 C1530 1.409 . S
C1533 C1531 1.415 . S
C1534 H1524 0.930 . S
C1534 C1532 1.419 1_655 S
C1534 C1535 1.362 . S
C1535 H1525 0.930 . S
C1535 C1528 1.409 1_655 S
C1535 C1534 1.362 . S
H1536 C1542 0.930 . S
H1537 C1545 0.930 . S
H1538 C1546 0.930 . S
H1539 C1547 0.930 1_565 S
H1540 C1550 0.930 . S
H1541 C1551 0.930 . S
C1542 H1536 0.930 . S
C1542 C1543 1.355 . S
C1542 C1544 1.415 . S
C1543 C1542 1.355 . S
C1543 C1545 1.419 1_545 S
C1544 C1542 1.415 . S
C1544 C1549 1.425 . S
C1544 C1551 1.409 . S
C1545 H1537 0.930 . S
C1545 C1543 1.419 1_565 S
C1545 C1546 1.362 . S
C1546 H1538 0.930 . S
C1546 C1545 1.362 . S
C1546 C1549 1.409 1_565 S
C1547 H1539 0.930 1_545 S
C1547 C1548 1.355 . S
C1547 C1549 1.415 . S
C1548 C1547 1.355 . S
C1548 C1550 1.419 . S
C1549 C1544 1.425 . S
C1549 C1546 1.409 1_545 S
C1549 C1547 1.415 . S
C1550 H1540 0.930 . S
C1550 C1548 1.419 . S
C1550 C1551 1.362 . S
C1551 H1541 0.930 . S
C1551 C1544 1.409 . S
C1551 C1550 1.362 . S
H1552 C1558 0.930 . S
H1553 C1561 0.930 . S
H1554 C1562 0.930 . S
H1555 C1563 0.930 . S
H1556 C1566 0.930 . S
H1557 C1567 0.930 . S
C1558 H1552 0.930 . S
C1558 C1559 1.355 1_655 S
C1558 C1560 1.415 . S
C1559 C1558 1.355 1_455 S
C1559 C1561 1.419 . S
C1560 C1558 1.415 . S
C1560 C1565 1.425 1_655 S
C1560 C1567 1.409 . S
C1561 H1553 0.930 . S
C1561 C1559 1.419 . S
C1561 C1562 1.362 . S
C1562 H1554 0.930 . S
C1562 C1561 1.362 . S
C1562 C1565 1.409 . S
C1563 H1555 0.930 . S
C1563 C1564 1.355 . S
C1563 C1565 1.415 . S
C1564 C1563 1.355 . S
C1564 C1566 1.419 1_455 S
C1565 C1560 1.425 1_455 S
C1565 C1562 1.409 . S
C1565 C1563 1.415 . S
C1566 H1556 0.930 . S
C1566 C1564 1.419 1_655 S
C1566 C1567 1.362 . S
C1567 H1557 0.930 . S
C1567 C1560 1.409 . S
C1567 C1566 1.362 . S
H1568 C1574 0.926 1_565 S
H1569 C1577 0.930 . S
H1570 C1578 0.930 . S
H1571 C1579 0.930 . S
H1572 C1582 0.930 . S
H1573 C1583 0.930 . S
C1574 H1568 0.926 1_545 S
C1574 C1575 1.355 . S
C1574 C1576 1.415 . S
C1575 C1574 1.355 . S
C1575 C1577 1.419 . S
C1576 C1574 1.415 . S
C1576 C1581 1.425 . S
C1576 C1583 1.409 1_545 S
C1577 H1569 0.930 . S
C1577 C1575 1.419 . S
C1577 C1578 1.362 . S
C1578 H1570 0.930 . S
C1578 C1577 1.362 . S
C1578 C1581 1.409 . S
C1579 H1571 0.930 . S
C1579 C1580 1.355 . S
C1579 C1581 1.415 . S
C1580 C1579 1.355 . S
C1580 C1582 1.419 1_545 S
C1581 C1576 1.425 . S
C1581 C1578 1.409 . S
C1581 C1579 1.415 . S
C1582 H1572 0.930 . S
C1582 C1580 1.419 1_565 S
C1582 C1583 1.362 . S
C1583 H1573 0.930 . S
C1583 C1576 1.409 1_565 S
C1583 C1582 1.362 . S
H1584 C1590 0.930 . S
H1585 C1593 0.930 . S
H1586 C1594 0.930 . S
H1587 C1595 0.930 . S
H1588 C1598 0.930 . S
H1589 C1599 0.930 . S
C1590 H1584 0.930 . S
C1590 C1591 1.391 . S
C1590 C1592 1.415 . S
C1591 C1590 1.391 . S
C1591 C1593 1.380 1_455 S
C1592 C1590 1.415 . S
C1592 C1597 1.425 1_455 S
C1592 C1599 1.409 . S
C1593 H1585 0.930 . S
C1593 C1591 1.380 1_655 S
C1593 C1594 1.362 . S
C1594 H1586 0.930 . S
C1594 C1593 1.362 . S
C1594 C1597 1.409 . S
C1595 H1587 0.930 . S
C1595 C1596 1.355 1_655 S
C1595 C1597 1.415 . S
C1596 C1595 1.355 1_455 S
C1596 C1598 1.419 . S
C1597 C1592 1.425 1_655 S
C1597 C1594 1.409 . S
C1597 C1595 1.415 . S
C1598 H1588 0.930 . S
C1598 C1596 1.419 . S
C1598 C1599 1.362 . S
C1599 H1589 0.930 . S
C1599 C1592 1.409 . S
C1599 C1598 1.362 . S
H1600 C1606 0.930 . S
H1601 C1609 0.930 . S
H1602 C1610 0.930 . S
H1603 C1611 0.930 . S
H1604 C1614 0.930 . S
H1605 C1615 0.930 . S
C1606 H1600 0.930 . S
C1606 C1607 1.355 1_565 S
C1606 C1608 1.415 . S
C1607 C1606 1.355 1_545 S
C1607 C1609 1.419 . S
C1608 C1606 1.415 . S
C1608 C1613 1.425 1_565 S
C1608 C1615 1.409 . S
C1609 H1601 0.930 . S
C1609 C1607 1.419 . S
C1609 C1610 1.362 . S
C1610 H1602 0.930 . S
C1610 C1609 1.362 . S
C1610 C1613 1.409 . S
C1611 H1603 0.930 . S
C1611 C1612 1.355 . S
C1611 C1613 1.415 . S
C1612 C1611 1.355 . S
C1612 C1614 1.419 1_545 S
C1613 C1608 1.425 1_545 S
C1613 C1610 1.409 . S
C1613 C1611 1.415 . S
C1614 H1604 0.930 . S
C1614 C1612 1.419 1_565 S
C1614 C1615 1.362 . S
C1615 H1605 0.930 . S
C1615 C1608 1.409 . S
C1615 C1614 1.362 . S
H1616 C1622 0.930 . S
H1617 C1625 0.930 . S
H1618 C1626 0.930 . S
H1619 C1627 0.930 . S
H1620 C1630 0.930 . S
H1621 C1631 0.930 . S
C1622 H1616 0.930 . S
C1622 C1623 1.355 . S
C1622 C1624 1.415 . S
C1623 C1622 1.355 . S
C1623 C1625 1.419 1_554 S
C1624 C1622 1.415 . S
C1624 C1629 1.416 1_554 S
C1624 C1631 1.409 . S
C1625 H1617 0.930 . S
C1625 C1623 1.419 1_556 S
C1625 C1626 1.362 . S
C1626 H1618 0.930 . S
C1626 C1625 1.362 . S
C1626 C1629 1.415 . S
C1627 H1619 0.930 . S
C1627 C1628 1.355 1_556 S
C1627 C1629 1.418 . S
C1628 C1627 1.355 1_554 S
C1628 C1630 1.419 . S
C1629 C1624 1.416 1_556 S
C1629 C1626 1.415 . S
C1629 C1627 1.418 . S
C1630 H1620 0.930 . S
C1630 C1628 1.419 . S
C1630 C1631 1.362 . S
C1631 H1621 0.930 . S
C1631 C1624 1.409 . S
C1631 C1630 1.362 . S
H1632 C1638 0.930 . S
H1633 C1641 0.930 . S
H1634 C1642 0.930 . S
H1635 C1643 0.930 1_556 S
H1636 C1646 0.930 . S
H1637 C1647 0.930 . S
C1638 H1632 0.930 . S
C1638 C1639 1.355 . S
C1638 C1640 1.415 . S
C1639 C1638 1.355 . S
C1639 C1641 1.419 1_554 S
C1640 C1638 1.415 . S
C1640 C1645 1.425 . S
C1640 C1647 1.409 . S
C1641 H1633 0.930 . S
C1641 C1639 1.419 1_556 S
C1641 C1642 1.362 . S
C1642 H1634 0.930 . S
C1642 C1641 1.362 . S
C1642 C1645 1.409 1_556 S
C1643 H1635 0.930 1_554 S
C1643 C1644 1.355 . S
C1643 C1645 1.415 . S
C1644 C1643 1.355 . S
C1644 C1646 1.419 . S
C1645 C1640 1.425 . S
C1645 C1642 1.409 1_554 S
C1645 C1643 1.415 . S
C1646 H1636 0.930 . S
C1646 C1644 1.419 . S
C1646 C1647 1.362 . S
C1647 H1637 0.930 . S
C1647 C1640 1.409 . S
C1647 C1646 1.362 . S
H1648 C1654 0.930 . S
H1649 C1657 0.930 . S
H1650 C1658 0.930 . S
H1651 C1659 0.930 . S
H1652 C1662 0.930 . S
H1653 C1663 0.930 . S
C1654 H1648 0.930 . S
C1654 C1655 1.355 . S
C1654 C1656 1.415 . S
C1655 C1654 1.355 . S
C1655 C1657 1.419 1_554 S
C1656 C1654 1.415 . S
C1656 C1661 1.425 1_554 S
C1656 C1663 1.409 . S
C1657 H1649 0.930 . S
C1657 C1655 1.419 1_556 S
C1657 C1658 1.362 . S
C1658 H1650 0.930 . S
C1658 C1657 1.362 . S
C1658 C1661 1.409 . S
C1659 H1651 0.930 . S
C1659 C1660 1.355 1_556 S
C1659 C1661 1.415 . S
C1660 C1659 1.355 1_554 S
C1660 C1662 1.419 . S
C1661 C1656 1.425 1_556 S
C1661 C1658 1.409 . S
C1661 C1659 1.415 . S
C1662 H1652 0.930 . S
C1662 C1660 1.419 . S
C1662 C1663 1.362 . S
C1663 H1653 0.930 . S
C1663 C1656 1.409 . S
C1663 C1662 1.362 . S
H1664 C1670 0.930 . S
H1665 C1673 0.930 . S
H1666 C1674 0.930 . S
H1667 C1675 0.930 . S
H1668 C1678 0.930 . S
H1669 C1679 0.930 . S
C1670 H1664 0.930 . S
C1670 C1671 1.355 1_556 S
C1670 C1672 1.415 1_556 S
C1671 C1670 1.355 1_554 S
C1671 C1673 1.419 . S
C1672 C1670 1.415 1_554 S
C1672 C1677 1.425 . S
C1672 C1679 1.409 1_554 S
C1673 H1665 0.930 . S
C1673 C1671 1.419 . S
C1673 C1674 1.362 . S
C1674 H1666 0.930 . S
C1674 C1673 1.362 . S
C1674 C1677 1.409 . S
C1675 H1667 0.930 . S
C1675 C1676 1.355 . S
C1675 C1677 1.415 . S
C1676 C1675 1.355 . S
C1676 C1678 1.419 1_554 S
C1677 C1672 1.425 . S
C1677 C1674 1.409 . S
C1677 C1675 1.415 . S
C1678 H1668 0.930 . S
C1678 C1676 1.419 1_556 S
C1678 C1679 1.362 . S
C1679 H1669 0.930 . S
C1679 C1672 1.409 1_556 S
C1679 C1678 1.362 . S
H1680 C1686 0.930 . S
H1681 C1689 0.930 . S
H1682 C1690 0.930 . S
H1683 C1691 0.930 . S
H1684 C1694 0.930 . S
H1685 C1695 0.930 . S
C1686 H1680 0.930 . S
C1686 C1687 1.355 . S
C1686 C1688 1.415 . S
C1687 C1686 1.355 . S
C1687 C1689 1.419 . S
C1688 C1686 1.415 . S
C1688 C1693 1.425 . S
C1688 C1695 1.409 . S
C1689 H1681 0.930 . S
C1689 C1687 1.419 . S
C1689 C1690 1.362 . S
C1690 H1682 0.930 . S
C1690 C1689 1.362 . S
C1690 C1693 1.409 . S
C1691 H1683 0.930 . S
C1691 C1692 1.355 . S
C1691 C1693 1.415 . S
C1692 C1691 1.355 . S
C1692 C1694 1.419 . S
C1693 C1688 1.425 . S
C1693 C1690 1.409 . S
C1693 C1691 1.415 . S
C1694 H1684 0.930 . S
C1694 C1692 1.419 . S
C1694 C1695 1.362 . S
C1695 H1685 0.930 . S
C1695 C1688 1.409 . S
C1695 C1694 1.362 . S
H1696 C1702 0.930 . S
H1697 C1705 0.930 . S
H1698 C1706 0.930 . S
H1699 C1707 0.930 . S
H1700 C1710 0.930 . S
H1701 C1711 0.930 . S
C1702 H1696 0.930 . S
C1702 C1703 1.355 . S
C1702 C1704 1.415 . S
C1703 C1702 1.355 . S
C1703 C1705 1.419 . S
C1704 C1702 1.415 . S
C1704 C1709 1.425 . S
C1704 C1711 1.409 . S
C1705 H1697 0.930 . S
C1705 C1703 1.419 . S
C1705 C1706 1.362 . S
C1706 H1698 0.930 . S
C1706 C1705 1.362 . S
C1706 C1709 1.409 . S
C1707 H1699 0.930 . S
C1707 C1708 1.355 . S
C1707 C1709 1.415 . S
C1708 C1707 1.355 . S
C1708 C1710 1.419 . S
C1709 C1704 1.425 . S
C1709 C1706 1.409 . S
C1709 C1707 1.415 . S
C1710 H1700 0.930 . S
C1710 C1708 1.419 . S
C1710 C1711 1.362 . S
C1711 H1701 0.930 . S
C1711 C1704 1.409 . S
C1711 C1710 1.362 . S
H1712 C1718 0.930 . S
H1713 C1721 0.930 . S
H1714 C1722 0.930 . S
H1715 C1723 0.930 . S
H1716 C1726 0.930 . S
H1717 C1727 0.930 . S
C1718 H1712 0.930 . S
C1718 C1719 1.355 . S
C1718 C1720 1.415 . S
C1719 C1718 1.355 . S
C1719 C1721 1.419 . S
C1720 C1718 1.415 . S
C1720 C1725 1.425 . S
C1720 C1727 1.409 . S
C1721 H1713 0.930 . S
C1721 C1719 1.419 . S
C1721 C1722 1.362 . S
C1722 H1714 0.930 . S
C1722 C1721 1.362 . S
C1722 C1725 1.409 . S
C1723 H1715 0.930 . S
C1723 C1724 1.355 . S
C1723 C1725 1.415 . S
C1724 C1723 1.355 . S
C1724 C1726 1.419 . S
C1725 C1720 1.425 . S
C1725 C1722 1.409 . S
C1725 C1723 1.415 . S
C1726 H1716 0.930 . S
C1726 C1724 1.419 . S
C1726 C1727 1.362 . S
C1727 H1717 0.930 . S
C1727 C1720 1.409 . S
C1727 C1726 1.362 . S
H1728 C1734 0.930 . S
H1729 C1737 0.930 . S
H1730 C1738 0.930 . S
H1731 C1739 0.930 . S
H1732 C1742 0.930 . S
H1733 C1743 0.930 . S
C1734 H1728 0.930 . S
C1734 C1735 1.355 . S
C1734 C1736 1.415 . S
C1735 C1734 1.355 . S
C1735 C1737 1.419 . S
C1736 C1734 1.415 . S
C1736 C1741 1.425 . S
C1736 C1743 1.409 . S
C1737 H1729 0.930 . S
C1737 C1735 1.419 . S
C1737 C1738 1.362 . S
C1738 H1730 0.930 . S
C1738 C1737 1.362 . S
C1738 C1741 1.409 . S
C1739 H1731 0.930 . S
C1739 C1740 1.355 . S
C1739 C1741 1.415 . S
C1740 C1739 1.355 . S
C1740 C1742 1.419 . S
C1741 C1736 1.425 . S
C1741 C1738 1.409 . S
C1741 C1739 1.415 . S
C1742 H1732 0.930 . S
C1742 C1740 1.419 . S
C1742 C1743 1.362 . S
C1743 H1733 0.930 . S
C1743 C1736 1.409 . S
C1743 C1742 1.362 . S
H1744 C1750 0.930 . S
H1745 C1753 0.930 . S
H1746 C1754 0.930 . S
H1747 C1755 0.930 . S
H1748 C1758 0.930 . S
H1749 C1759 0.930 . S
C1750 H1744 0.930 . S
C1750 C1751 1.355 . S
C1750 C1752 1.415 . S
C1751 C1750 1.355 . S
C1751 C1753 1.419 . S
C1752 C1750 1.415 . S
C1752 C1757 1.425 . S
C1752 C1759 1.409 . S
C1753 H1745 0.930 . S
C1753 C1751 1.419 . S
C1753 C1754 1.362 . S
C1754 H1746 0.930 . S
C1754 C1753 1.362 . S
C1754 C1757 1.409 . S
C1755 H1747 0.930 . S
C1755 C1756 1.355 . S
C1755 C1757 1.415 . S
C1756 C1755 1.355 . S
C1756 C1758 1.419 . S
C1757 C1752 1.425 . S
C1757 C1754 1.409 . S
C1757 C1755 1.415 . S
C1758 H1748 0.930 . S
C1758 C1756 1.419 . S
C1758 C1759 1.362 . S
C1759 H1749 0.930 . S
C1759 C1752 1.409 . S
C1759 C1758 1.362 . S
H1760 C1766 0.930 . S
H1761 C1769 0.930 . S
H1762 C1770 0.930 . S
H1763 C1771 0.930 . S
H1764 C1774 0.930 . S
H1765 C1775 0.930 . S
C1766 H1760 0.930 . S
C1766 C1767 1.355 . S
C1766 C1768 1.415 . S
C1767 C1766 1.355 . S
C1767 C1769 1.419 . S
C1768 C1766 1.415 . S
C1768 C1773 1.425 . S
C1768 C1775 1.409 . S
C1769 H1761 0.930 . S
C1769 C1767 1.419 . S
C1769 C1770 1.362 . S
C1770 H1762 0.930 . S
C1770 C1769 1.362 . S
C1770 C1773 1.409 . S
C1771 H1763 0.930 . S
C1771 C1772 1.355 . S
C1771 C1773 1.415 . S
C1772 C1771 1.355 . S
C1772 C1774 1.419 . S
C1773 C1768 1.425 . S
C1773 C1770 1.409 . S
C1773 C1771 1.415 . S
C1774 H1764 0.930 . S
C1774 C1772 1.419 . S
C1774 C1775 1.362 . S
C1775 H1765 0.930 . S
C1775 C1768 1.409 . S
C1775 C1774 1.362 . S
H1776 C1782 0.930 . S
H1777 C1785 0.930 . S
H1778 C1786 0.930 . S
H1779 C1787 0.930 . S
H1780 C1790 0.930 . S
H1781 C1791 0.930 . S
C1782 H1776 0.930 . S
C1782 C1783 1.355 . S
C1782 C1784 1.415 . S
C1783 C1782 1.355 . S
C1783 C1785 1.419 . S
C1784 C1782 1.415 . S
C1784 C1789 1.425 . S
C1784 C1791 1.409 . S
C1785 H1777 0.930 . S
C1785 C1783 1.419 . S
C1785 C1786 1.362 . S
C1786 H1778 0.930 . S
C1786 C1785 1.362 . S
C1786 C1789 1.409 . S
C1787 H1779 0.930 . S
C1787 C1788 1.355 . S
C1787 C1789 1.415 . S
C1788 C1787 1.355 . S
C1788 C1790 1.419 . S
C1789 C1784 1.425 . S
C1789 C1786 1.409 . S
C1789 C1787 1.415 . S
C1790 H1780 0.930 . S
C1790 C1788 1.419 . S
C1790 C1791 1.362 . S
C1791 H1781 0.930 . S
C1791 C1784 1.409 . S
C1791 C1790 1.362 . S
H1792 C1798 0.930 . S
H1793 C1801 0.930 . S
H1794 C1802 0.930 . S
H1795 C1803 0.930 . S
H1796 C1806 0.930 . S
H1797 C1807 0.930 . S
C1798 H1792 0.930 . S
C1798 C1799 1.355 . S
C1798 C1800 1.415 . S
C1799 C1798 1.355 . S
C1799 C1801 1.419 . S
C1800 C1798 1.415 . S
C1800 C1805 1.425 . S
C1800 C1807 1.409 . S
C1801 H1793 0.930 . S
C1801 C1799 1.419 . S
C1801 C1802 1.362 . S
C1802 H1794 0.930 . S
C1802 C1801 1.362 . S
C1802 C1805 1.409 . S
C1803 H1795 0.930 . S
C1803 C1804 1.355 . S
C1803 C1805 1.415 . S
C1804 C1803 1.355 . S
C1804 C1806 1.419 . S
C1805 C1800 1.425 . S
C1805 C1802 1.409 . S
C1805 C1803 1.415 . S
C1806 H1796 0.930 . S
C1806 C1804 1.419 . S
C1806 C1807 1.362 . S
C1807 H1797 0.930 . S
C1807 C1800 1.409 . S
C1807 C1806 1.362 . S
H1808 C1814 0.930 . S
H1809 C1817 0.930 . S
H1810 C1818 0.930 . S
H1811 C1819 0.930 . S
H1812 C1822 0.930 . S
H1813 C1823 0.930 . S
C1814 H1808 0.930 . S
C1814 C1815 1.355 . S
C1814 C1816 1.415 . S
C1815 C1814 1.355 . S
C1815 C1817 1.419 . S
C1816 C1814 1.415 . S
C1816 C1821 1.425 . S
C1816 C1823 1.409 . S
C1817 H1809 0.930 . S
C1817 C1815 1.419 . S
C1817 C1818 1.362 . S
C1818 H1810 0.930 . S
C1818 C1817 1.362 . S
C1818 C1821 1.409 . S
C1819 H1811 0.930 . S
C1819 C1820 1.355 . S
C1819 C1821 1.415 . S
C1820 C1819 1.355 . S
C1820 C1822 1.419 . S
C1821 C1816 1.425 . S
C1821 C1818 1.409 . S
C1821 C1819 1.415 . S
C1822 H1812 0.930 . S
C1822 C1820 1.419 . S
C1822 C1823 1.362 . S
C1823 H1813 0.930 . S
C1823 C1816 1.409 . S
C1823 C1822 1.362 . S
H1824 C1830 0.930 . S
H1825 C1833 0.930 . S
H1826 C1834 0.930 . S
H1827 C1835 0.930 . S
H1828 C1838 0.930 . S
H1829 C1839 0.930 . S
C1830 H1824 0.930 . S
C1830 C1831 1.355 . S
C1830 C1832 1.415 . S
C1831 C1830 1.355 . S
C1831 C1833 1.419 . S
C1832 C1830 1.415 . S
C1832 C1837 1.425 . S
C1832 C1839 1.409 . S
C1833 H1825 0.930 . S
C1833 C1831 1.419 . S
C1833 C1834 1.362 . S
C1834 H1826 0.930 . S
C1834 C1833 1.362 . S
C1834 C1837 1.409 . S
C1835 H1827 0.930 . S
C1835 C1836 1.355 . S
C1835 C1837 1.415 . S
C1836 C1835 1.355 . S
C1836 C1838 1.419 . S
C1837 C1832 1.425 . S
C1837 C1834 1.409 . S
C1837 C1835 1.415 . S
C1838 H1828 0.930 . S
C1838 C1836 1.419 . S
C1838 C1839 1.362 . S
C1839 H1829 0.930 . S
C1839 C1832 1.409 . S
C1839 C1838 1.362 . S
H1840 C1846 0.930 . S
H1841 C1849 0.930 . S
H1842 C1850 0.930 . S
H1843 C1851 0.930 . S
H1844 C1854 0.930 . S
H1845 C1855 0.930 . S
C1846 H1840 0.930 . S
C1846 C1847 1.355 . S
C1846 C1848 1.415 . S
C1847 C1846 1.355 . S
C1847 C1849 1.419 . S
C1848 C1846 1.415 . S
C1848 C1853 1.425 . S
C1848 C1855 1.409 . S
C1849 H1841 0.930 . S
C1849 C1847 1.419 . S
C1849 C1850 1.362 . S
C1850 H1842 0.930 . S
C1850 C1849 1.362 . S
C1850 C1853 1.409 . S
C1851 H1843 0.930 . S
C1851 C1852 1.355 . S
C1851 C1853 1.415 . S
C1852 C1851 1.355 . S
C1852 C1854 1.419 . S
C1853 C1848 1.425 . S
C1853 C1850 1.409 . S
C1853 C1851 1.415 . S
C1854 H1844 0.930 . S
C1854 C1852 1.419 . S
C1854 C1855 1.362 . S
C1855 H1845 0.930 . S
C1855 C1848 1.409 . S
C1855 C1854 1.362 . S
H1856 C1862 0.930 . S
H1857 C1865 0.930 . S
H1858 C1866 0.930 . S
H1859 C1867 0.930 . S
H1860 C1870 0.930 . S
H1861 C1871 0.930 . S
C1862 H1856 0.930 . S
C1862 C1863 1.355 . S
C1862 C1864 1.415 . S
C1863 C1862 1.355 . S
C1863 C1865 1.419 . S
C1864 C1862 1.415 . S
C1864 C1869 1.425 . S
C1864 C1871 1.409 . S
C1865 H1857 0.930 . S
C1865 C1863 1.419 . S
C1865 C1866 1.362 . S
C1866 H1858 0.930 . S
C1866 C1865 1.362 . S
C1866 C1869 1.409 . S
C1867 H1859 0.930 . S
C1867 C1868 1.355 . S
C1867 C1869 1.415 . S
C1868 C1867 1.355 . S
C1868 C1870 1.419 . S
C1869 C1864 1.425 . S
C1869 C1866 1.409 . S
C1869 C1867 1.415 . S
C1870 H1860 0.930 . S
C1870 C1868 1.419 . S
C1870 C1871 1.362 . S
C1871 H1861 0.930 . S
C1871 C1864 1.409 . S
C1871 C1870 1.362 . S
H1872 C1878 0.930 . S
H1873 C1881 0.930 . S
H1874 C1882 0.930 . S
H1875 C1883 0.930 . S
H1876 C1886 0.930 . S
H1877 C1887 0.930 . S
C1878 H1872 0.930 . S
C1878 C1879 1.355 . S
C1878 C1880 1.415 . S
C1879 C1878 1.355 . S
C1879 C1881 1.419 . S
C1880 C1878 1.415 . S
C1880 C1885 1.425 . S
C1880 C1887 1.409 . S
C1881 H1873 0.930 . S
C1881 C1879 1.419 . S
C1881 C1882 1.362 . S
C1882 H1874 0.930 . S
C1882 C1881 1.362 . S
C1882 C1885 1.409 . S
C1883 H1875 0.930 . S
C1883 C1884 1.355 . S
C1883 C1885 1.415 . S
C1884 C1883 1.355 . S
C1884 C1886 1.419 . S
C1885 C1880 1.425 . S
C1885 C1882 1.409 . S
C1885 C1883 1.415 . S
C1886 H1876 0.930 . S
C1886 C1884 1.419 . S
C1886 C1887 1.362 . S
C1887 H1877 0.930 . S
C1887 C1880 1.409 . S
C1887 C1886 1.362 . S
H1888 C1894 0.930 . S
H1889 C1897 0.930 . S
H1890 C1898 0.930 . S
H1891 C1899 0.930 . S
H1892 C1902 0.930 . S
H1893 C1903 0.930 . S
C1894 H1888 0.930 . S
C1894 C1895 1.355 . S
C1894 C1896 1.415 . S
C1895 C1894 1.355 . S
C1895 C1897 1.419 . S
C1896 C1894 1.415 . S
C1896 C1901 1.425 . S
C1896 C1903 1.409 . S
C1897 H1889 0.930 . S
C1897 C1895 1.419 . S
C1897 C1898 1.362 . S
C1898 H1890 0.930 . S
C1898 C1897 1.362 . S
C1898 C1901 1.409 . S
C1899 H1891 0.930 . S
C1899 C1900 1.355 . S
C1899 C1901 1.415 . S
C1900 C1899 1.355 . S
C1900 C1902 1.419 . S
C1901 C1896 1.425 . S
C1901 C1898 1.409 . S
C1901 C1899 1.415 . S
C1902 H1892 0.930 . S
C1902 C1900 1.419 . S
C1902 C1903 1.362 . S
C1903 H1893 0.930 . S
C1903 C1896 1.409 . S
C1903 C1902 1.362 . S
H1904 C1910 0.930 . S
H1905 C1913 0.930 . S
H1906 C1914 0.930 . S
H1907 C1915 0.930 . S
H1908 C1918 0.930 . S
H1909 C1919 0.930 . S
C1910 H1904 0.930 . S
C1910 C1911 1.355 . S
C1910 C1912 1.415 . S
C1911 C1910 1.355 . S
C1911 C1913 1.419 . S
C1912 C1910 1.415 . S
C1912 C1917 1.425 . S
C1912 C1919 1.409 . S
C1913 H1905 0.930 . S
C1913 C1911 1.419 . S
C1913 C1914 1.362 . S
C1914 H1906 0.930 . S
C1914 C1913 1.362 . S
C1914 C1917 1.409 . S
C1915 H1907 0.930 . S
C1915 C1916 1.355 . S
C1915 C1917 1.415 . S
C1916 C1915 1.355 . S
C1916 C1918 1.419 . S
C1917 C1912 1.425 . S
C1917 C1914 1.409 . S
C1917 C1915 1.415 . S
C1918 H1908 0.930 . S
C1918 C1916 1.419 . S
C1918 C1919 1.362 . S
C1919 H1909 0.930 . S
C1919 C1912 1.409 . S
C1919 C1918 1.362 . S
H1920 C1926 0.930 . S
H1921 C1929 0.930 . S
H1922 C1930 0.930 . S
H1923 C1931 0.930 . S
H1924 C1934 0.930 . S
H1925 C1935 0.930 . S
C1926 H1920 0.930 . S
C1926 C1927 1.355 . S
C1926 C1928 1.415 . S
C1927 C1926 1.355 . S
C1927 C1929 1.419 . S
C1928 C1926 1.415 . S
C1928 C1933 1.425 . S
C1928 C1935 1.409 . S
C1929 H1921 0.930 . S
C1929 C1927 1.419 . S
C1929 C1930 1.362 . S
C1930 H1922 0.930 . S
C1930 C1929 1.362 . S
C1930 C1933 1.409 . S
C1931 H1923 0.930 . S
C1931 C1932 1.355 . S
C1931 C1933 1.415 . S
C1932 C1931 1.355 . S
C1932 C1934 1.419 . S
C1933 C1928 1.425 . S
C1933 C1930 1.409 . S
C1933 C1931 1.415 . S
C1934 H1924 0.930 . S
C1934 C1932 1.419 . S
C1934 C1935 1.362 . S
C1935 H1925 0.930 . S
C1935 C1928 1.409 . S
C1935 C1934 1.362 . S
H1936 C1942 0.930 . S
H1937 C1945 0.930 . S
H1938 C1946 0.930 . S
H1939 C1947 0.930 . S
H1940 C1950 0.930 . S
H1941 C1951 0.930 . S
C1942 H1936 0.930 . S
C1942 C1943 1.355 . S
C1942 C1944 1.415 . S
C1943 C1942 1.355 . S
C1943 C1945 1.419 . S
C1944 C1942 1.415 . S
C1944 C1949 1.425 . S
C1944 C1951 1.409 . S
C1945 H1937 0.930 . S
C1945 C1943 1.419 . S
C1945 C1946 1.362 . S
C1946 H1938 0.930 . S
C1946 C1945 1.362 . S
C1946 C1949 1.409 . S
C1947 H1939 0.930 . S
C1947 C1948 1.355 . S
C1947 C1949 1.415 . S
C1948 C1947 1.355 . S
C1948 C1950 1.419 . S
C1949 C1944 1.425 . S
C1949 C1946 1.409 . S
C1949 C1947 1.415 . S
C1950 H1940 0.930 . S
C1950 C1948 1.419 . S
C1950 C1951 1.362 . S
C1951 H1941 0.930 . S
C1951 C1944 1.409 . S
C1951 C1950 1.362 . S
H1952 C1958 0.930 . S
H1953 C1961 0.930 . S
H1954 C1962 0.930 . S
H1955 C1963 0.930 . S
H1956 C1966 0.930 . S
H1957 C1967 0.930 . S
C1958 H1952 0.930 . S
C1958 C1959 1.355 . S
C1958 C1960 1.415 . S
C1959 C1958 1.355 . S
C1959 C1961 1.419 . S
C1960 C1958 1.415 . S
C1960 C1965 1.425 . S
C1960 C1967 1.409 . S
C1961 H1953 0.930 . S
C1961 C1959 1.419 . S
C1961 C1962 1.362 . S
C1962 H1954 0.930 . S
C1962 C1961 1.362 . S
C1962 C1965 1.409 . S
C1963 H1955 0.930 . S
C1963 C1964 1.355 . S
C1963 C1965 1.415 . S
C1964 C1963 1.355 . S
C1964 C1966 1.419 . S
C1965 C1960 1.425 . S
C1965 C1962 1.409 . S
C1965 C1963 1.415 . S
C1966 H1956 0.930 . S
C1966 C1964 1.419 . S
C1966 C1967 1.362 . S
C1967 H1957 0.930 . S
C1967 C1960 1.409 . S
C1967 C1966 1.362 . S
H1968 C1974 0.930 . S
H1969 C1977 0.930 . S
H1970 C1978 0.930 . S
H1971 C1979 0.930 . S
H1972 C1982 0.930 . S
H1973 C1983 0.930 . S
C1974 H1968 0.930 . S
C1974 C1975 1.355 . S
C1974 C1976 1.415 . S
C1975 C1974 1.355 . S
C1975 C1977 1.419 . S
C1976 C1974 1.415 . S
C1976 C1981 1.425 . S
C1976 C1983 1.409 . S
C1977 H1969 0.930 . S
C1977 C1975 1.419 . S
C1977 C1978 1.362 . S
C1978 H1970 0.930 . S
C1978 C1977 1.362 . S
C1978 C1981 1.409 . S
C1979 H1971 0.930 . S
C1979 C1980 1.355 . S
C1979 C1981 1.415 . S
C1980 C1979 1.355 . S
C1980 C1982 1.419 . S
C1981 C1976 1.425 . S
C1981 C1978 1.409 . S
C1981 C1979 1.415 . S
C1982 H1972 0.930 . S
C1982 C1980 1.419 . S
C1982 C1983 1.362 . S
C1983 H1973 0.930 . S
C1983 C1976 1.409 . S
C1983 C1982 1.362 . S
H1984 C1990 0.930 . S
H1985 C1993 0.930 . S
H1986 C1994 0.930 . S
H1987 C1995 0.930 . S
H1988 C1998 0.930 . S
H1989 C1999 0.930 . S
C1990 H1984 0.930 . S
C1990 C1991 1.355 . S
C1990 C1992 1.415 . S
C1991 C1990 1.355 . S
C1991 C1993 1.419 . S
C1992 C1990 1.415 . S
C1992 C1997 1.425 . S
C1992 C1999 1.409 . S
C1993 H1985 0.930 . S
C1993 C1991 1.419 . S
C1993 C1994 1.362 . S
C1994 H1986 0.930 . S
C1994 C1993 1.362 . S
C1994 C1997 1.409 . S
C1995 H1987 0.930 . S
C1995 C1996 1.355 . S
C1995 C1997 1.415 . S
C1996 C1995 1.355 . S
C1996 C1998 1.419 . S
C1997 C1992 1.425 . S
C1997 C1994 1.409 . S
C1997 C1995 1.415 . S
C1998 H1988 0.930 . S
C1998 C1996 1.419 . S
C1998 C1999 1.362 . S
C1999 H1989 0.930 . S
C1999 C1992 1.409 . S
C1999 C1998 1.362 . S
H2000 C2006 0.930 . S
H2001 C2009 0.930 . S
H2002 C2010 0.930 . S
H2003 C2011 0.930 . S
H2004 C2014 0.930 . S
H2005 C2015 0.930 . S
C2006 H2000 0.930 . S
C2006 C2007 1.355 . S
C2006 C2008 1.415 . S
C2007 C2006 1.355 . S
C2007 C2009 1.419 . S
C2008 C2006 1.415 . S
C2008 C2013 1.425 . S
C2008 C2015 1.409 . S
C2009 H2001 0.930 . S
C2009 C2007 1.419 . S
C2009 C2010 1.362 . S
C2010 H2002 0.930 . S
C2010 C2009 1.362 . S
C2010 C2013 1.409 . S
C2011 H2003 0.930 . S
C2011 C2012 1.355 . S
C2011 C2013 1.415 . S
C2012 C2011 1.355 . S
C2012 C2014 1.419 . S
C2013 C2008 1.425 . S
C2013 C2010 1.409 . S
C2013 C2011 1.415 . S
C2014 H2004 0.930 . S
C2014 C2012 1.419 . S
C2014 C2015 1.362 . S
C2015 H2005 0.930 . S
C2015 C2008 1.409 . S
C2015 C2014 1.362 . S
H2016 C2022 0.930 . S
H2017 C2025 0.930 . S
H2018 C2026 0.930 . S
H2019 C2027 0.930 . S
H2020 C2030 0.930 . S
H2021 C2031 0.930 . S
C2022 H2016 0.930 . S
C2022 C2023 1.355 . S
C2022 C2024 1.415 . S
C2023 C2022 1.355 . S
C2023 C2025 1.419 . S
C2024 C2022 1.415 . S
C2024 C2029 1.425 . S
C2024 C2031 1.409 . S
C2025 H2017 0.930 . S
C2025 C2023 1.419 . S
C2025 C2026 1.362 . S
C2026 H2018 0.930 . S
C2026 C2025 1.362 . S
C2026 C2029 1.409 . S
C2027 H2019 0.930 . S
C2027 C2028 1.355 . S
C2027 C2029 1.415 . S
C2028 C2027 1.355 . S
C2028 C2030 1.419 . S
C2029 C2024 1.425 . S
C2029 C2026 1.409 . S
C2029 C2027 1.415 . S
C2030 H2020 0.930 . S
C2030 C2028 1.419 . S
C2030 C2031 1.362 . S
C2031 H2021 0.930 . S
C2031 C2024 1.409 . S
C2031 C2030 1.362 . S
H2032 C2038 0.930 . S
H2033 C2041 0.930 . S
H2034 C2042 0.930 . S
H2035 C2043 0.930 . S
H2036 C2046 0.930 . S
H2037 C2047 0.930 . S
C2038 H2032 0.930 . S
C2038 C2039 1.355 . S
C2038 C2040 1.415 . S
C2039 C2038 1.355 . S
C2039 C2041 1.419 . S
C2040 C2038 1.415 . S
C2040 C2045 1.425 . S
C2040 C2047 1.409 . S
C2041 H2033 0.930 . S
C2041 C2039 1.419 . S
C2041 C2042 1.362 . S
C2042 H2034 0.930 . S
C2042 C2041 1.362 . S
C2042 C2045 1.409 . S
C2043 H2035 0.930 . S
C2043 C2044 1.355 . S
C2043 C2045 1.415 . S
C2044 C2043 1.355 . S
C2044 C2046 1.419 . S
C2045 C2040 1.425 . S
C2045 C2042 1.409 . S
C2045 C2043 1.415 . S
C2046 H2036 0.930 . S
C2046 C2044 1.419 . S
C2046 C2047 1.362 . S
C2047 H2037 0.930 . S
C2047 C2040 1.409 . S
C2047 C2046 1.362 . S
H2048 C2054 0.930 . S
H2049 C2057 0.930 . S
H2050 C2058 0.930 . S
H2051 C2059 0.930 . S
H2052 C2062 0.930 . S
H2053 C2063 0.930 . S
C2054 H2048 0.930 . S
C2054 C2055 1.355 . S
C2054 C2056 1.415 . S
C2055 C2054 1.355 . S
C2055 C2057 1.419 . S
C2056 C2054 1.415 . S
C2056 C2061 1.425 . S
C2056 C2063 1.409 . S
C2057 H2049 0.930 . S
C2057 C2055 1.419 . S
C2057 C2058 1.362 . S
C2058 H2050 0.930 . S
C2058 C2057 1.362 . S
C2058 C2061 1.409 . S
C2059 H2051 0.930 . S
C2059 C2060 1.355 . S
C2059 C2061 1.415 . S
C2060 C2059 1.355 . S
C2060 C2062 1.419 . S
C2061 C2056 1.425 . S
C2061 C2058 1.409 . S
C2061 C2059 1.415 . S
C2062 H2052 0.930 . S
C2062 C2060 1.419 . S
C2062 C2063 1.362 . S
C2063 H2053 0.930 . S
C2063 C2056 1.409 . S
C2063 C2062 1.362 . S
H2064 C2070 0.930 . S
H2065 C2073 0.930 . S
H2066 C2074 0.930 . S
H2067 C2075 0.930 . S
H2068 C2078 0.930 . S
H2069 C2079 0.930 . S
C2070 H2064 0.930 . S
C2070 C2071 1.355 . S
C2070 C2072 1.415 . S
C2071 C2070 1.355 . S
C2071 C2073 1.419 . S
C2072 C2070 1.415 . S
C2072 C2077 1.425 . S
C2072 C2079 1.409 . S
C2073 H2065 0.930 . S
C2073 C2071 1.419 . S
C2073 C2074 1.362 . S
C2074 H2066 0.930 . S
C2074 C2073 1.362 . S
C2074 C2077 1.409 . S
C2075 H2067 0.930 . S
C2075 C2076 1.355 . S
C2075 C2077 1.415 . S
C2076 C2075 1.355 . S
C2076 C2078 1.419 . S
C2077 C2072 1.425 . S
C2077 C2074 1.409 . S
C2077 C2075 1.415 . S
C2078 H2068 0.930 . S
C2078 C2076 1.419 . S
C2078 C2079 1.362 . S
C2079 H2069 0.930 . S
C2079 C2072 1.409 . S
C2079 C2078 1.362 . S
H2080 C2086 0.930 . S
H2081 C2089 0.930 . S
H2082 C2090 0.930 . S
H2083 C2091 0.930 . S
H2084 C2094 0.930 . S
H2085 C2095 0.930 . S
C2086 H2080 0.930 . S
C2086 C2087 1.355 . S
C2086 C2088 1.415 . S
C2087 C2086 1.355 . S
C2087 C2089 1.419 . S
C2088 C2086 1.415 . S
C2088 C2093 1.425 . S
C2088 C2095 1.409 . S
C2089 H2081 0.930 . S
C2089 C2087 1.419 . S
C2089 C2090 1.362 . S
C2090 H2082 0.930 . S
C2090 C2089 1.362 . S
C2090 C2093 1.409 . S
C2091 H2083 0.930 . S
C2091 C2092 1.355 . S
C2091 C2093 1.415 . S
C2092 C2091 1.355 . S
C2092 C2094 1.419 . S
C2093 C2088 1.425 . S
C2093 C2090 1.409 . S
C2093 C2091 1.415 . S
C2094 H2084 0.930 . S
C2094 C2092 1.419 . S
C2094 C2095 1.362 . S
C2095 H2085 0.930 . S
C2095 C2088 1.409 . S
C2095 C2094 1.362 . S
H2096 C2102 0.930 . S
H2097 C2105 0.930 . S
H2098 C2106 0.930 . S
H2099 C2107 0.930 . S
H2100 C2110 0.930 . S
H2101 C2111 0.930 . S
C2102 H2096 0.930 . S
C2102 C2103 1.355 . S
C2102 C2104 1.415 . S
C2103 C2102 1.355 . S
C2103 C2105 1.419 . S
C2104 C2102 1.415 . S
C2104 C2109 1.425 . S
C2104 C2111 1.409 . S
C2105 H2097 0.930 . S
C2105 C2103 1.419 . S
C2105 C2106 1.362 . S
C2106 H2098 0.930 . S
C2106 C2105 1.362 . S
C2106 C2109 1.409 . S
C2107 H2099 0.930 . S
C2107 C2108 1.355 . S
C2107 C2109 1.415 . S
C2108 C2107 1.355 . S
C2108 C2110 1.419 . S
C2109 C2104 1.425 . S
C2109 C2106 1.409 . S
C2109 C2107 1.415 . S
C2110 H2100 0.930 . S
C2110 C2108 1.419 . S
C2110 C2111 1.362 . S
C2111 H2101 0.930 . S
C2111 C2104 1.409 . S
C2111 C2110 1.362 . S
H2112 C2118 0.930 . S
H2113 C2121 0.930 . S
H2114 C2122 0.930 . S
H2115 C2123 0.930 . S
H2116 C2126 0.930 . S
H2117 C2127 0.930 . S
C2118 H2112 0.930 . S
C2118 C2119 1.355 . S
C2118 C2120 1.415 . S
C2119 C2118 1.355 . S
C2119 C2121 1.419 . S
C2120 C2118 1.415 . S
C2120 C2125 1.425 . S
C2120 C2127 1.409 . S
C2121 H2113 0.930 . S
C2121 C2119 1.419 . S
C2121 C2122 1.362 . S
C2122 H2114 0.930 . S
C2122 C2121 1.362 . S
C2122 C2125 1.409 . S
C2123 H2115 0.930 . S
C2123 C2124 1.355 . S
C2123 C2125 1.415 . S
C2124 C2123 1.355 . S
C2124 C2126 1.419 . S
C2125 C2120 1.425 . S
C2125 C2122 1.409 . S
C2125 C2123 1.415 . S
C2126 H2116 0.930 . S
C2126 C2124 1.419 . S
C2126 C2127 1.362 . S
C2127 H2117 0.930 . S
C2127 C2120 1.409 . S
C2127 C2126 1.362 . S
H2128 C2134 0.930 . S
H2129 C2137 0.930 . S
H2130 C2138 0.930 . S
H2131 C2139 0.930 . S
H2132 C2142 0.930 . S
H2133 C2143 0.930 . S
C2134 H2128 0.930 . S
C2134 C2135 1.355 . S
C2134 C2136 1.415 . S
C2135 C2134 1.355 . S
C2135 C2137 1.419 . S
C2136 C2134 1.415 . S
C2136 C2141 1.425 . S
C2136 C2143 1.409 . S
C2137 H2129 0.930 . S
C2137 C2135 1.419 . S
C2137 C2138 1.362 . S
C2138 H2130 0.930 . S
C2138 C2137 1.362 . S
C2138 C2141 1.409 . S
C2139 H2131 0.930 . S
C2139 C2140 1.355 . S
C2139 C2141 1.415 . S
C2140 C2139 1.355 . S
C2140 C2142 1.419 . S
C2141 C2136 1.425 . S
C2141 C2138 1.409 . S
C2141 C2139 1.415 . S
C2142 H2132 0.930 . S
C2142 C2140 1.419 . S
C2142 C2143 1.362 . S
C2143 H2133 0.930 . S
C2143 C2136 1.409 . S
C2143 C2142 1.362 . S
H2144 C2150 0.930 . S
H2145 C2153 0.930 . S
H2146 C2154 0.930 . S
H2147 C2155 0.930 . S
H2148 C2158 0.930 . S
H2149 C2159 0.930 . S
C2150 H2144 0.930 . S
C2150 C2151 1.355 . S
C2150 C2152 1.415 . S
C2151 C2150 1.355 . S
C2151 C2153 1.419 . S
C2152 C2150 1.415 . S
C2152 C2157 1.425 . S
C2152 C2159 1.409 . S
C2153 H2145 0.930 . S
C2153 C2151 1.419 . S
C2153 C2154 1.362 . S
C2154 H2146 0.930 . S
C2154 C2153 1.362 . S
C2154 C2157 1.409 . S
C2155 H2147 0.930 . S
C2155 C2156 1.355 . S
C2155 C2157 1.415 . S
C2156 C2155 1.355 . S
C2156 C2158 1.419 . S
C2157 C2152 1.425 . S
C2157 C2154 1.409 . S
C2157 C2155 1.415 . S
C2158 H2148 0.930 . S
C2158 C2156 1.419 . S
C2158 C2159 1.362 . S
C2159 H2149 0.930 . S
C2159 C2152 1.409 . S
C2159 C2158 1.362 . S
H2160 C2166 0.930 . S
H2161 C2169 0.930 . S
H2162 C2170 0.930 . S
H2163 C2171 0.930 . S
H2164 C2174 0.930 . S
H2165 C2175 0.930 . S
C2166 H2160 0.930 . S
C2166 C2167 1.355 . S
C2166 C2168 1.415 . S
C2167 C2166 1.355 . S
C2167 C2169 1.419 . S
C2168 C2166 1.415 . S
C2168 C2173 1.425 . S
C2168 C2175 1.409 . S
C2169 H2161 0.930 . S
C2169 C2167 1.419 . S
C2169 C2170 1.362 . S
C2170 H2162 0.930 . S
C2170 C2169 1.362 . S
C2170 C2173 1.409 . S
C2171 H2163 0.930 . S
C2171 C2172 1.355 . S
C2171 C2173 1.415 . S
C2172 C2171 1.355 . S
C2172 C2174 1.419 . S
C2173 C2168 1.425 . S
C2173 C2170 1.409 . S
C2173 C2171 1.415 . S
C2174 H2164 0.930 . S
C2174 C2172 1.419 . S
C2174 C2175 1.362 . S
C2175 H2165 0.930 . S
C2175 C2168 1.409 . S
C2175 C2174 1.362 . S
H2176 C2182 0.930 . S
H2177 C2185 0.930 . S
H2178 C2186 0.930 . S
H2179 C2187 0.930 . S
H2180 C2190 0.930 . S
H2181 C2191 0.930 . S
C2182 H2176 0.930 . S
C2182 C2183 1.355 . S
C2182 C2184 1.415 . S
C2183 C2182 1.355 . S
C2183 C2185 1.419 . S
C2184 C2182 1.415 . S
C2184 C2189 1.425 . S
C2184 C2191 1.409 . S
C2185 H2177 0.930 . S
C2185 C2183 1.419 . S
C2185 C2186 1.362 . S
C2186 H2178 0.930 . S
C2186 C2185 1.362 . S
C2186 C2189 1.409 . S
C2187 H2179 0.930 . S
C2187 C2188 1.355 . S
C2187 C2189 1.415 . S
C2188 C2187 1.355 . S
C2188 C2190 1.419 . S
C2189 C2184 1.425 . S
C2189 C2186 1.409 . S
C2189 C2187 1.415 . S
C2190 H2180 0.930 . S
C2190 C2188 1.419 . S
C2190 C2191 1.362 . S
C2191 H2181 0.930 . S
C2191 C2184 1.409 . S
C2191 C2190 1.362 . S
H2192 C2198 0.930 . S
H2193 C2201 0.930 . S
H2194 C2202 0.930 . S
H2195 C2203 0.930 . S
H2196 C2206 0.930 . S
H2197 C2207 0.930 . S
C2198 H2192 0.930 . S
C2198 C2199 1.355 . S
C2198 C2200 1.415 . S
C2199 C2198 1.355 . S
C2199 C2201 1.419 . S
C2200 C2198 1.415 . S
C2200 C2205 1.425 . S
C2200 C2207 1.409 . S
C2201 H2193 0.930 . S
C2201 C2199 1.419 . S
C2201 C2202 1.362 . S
C2202 H2194 0.930 . S
C2202 C2201 1.362 . S
C2202 C2205 1.409 . S
C2203 H2195 0.930 . S
C2203 C2204 1.355 . S
C2203 C2205 1.415 . S
C2204 C2203 1.355 . S
C2204 C2206 1.419 . S
C2205 C2200 1.425 . S
C2205 C2202 1.409 . S
C2205 C2203 1.415 . S
C2206 H2196 0.930 . S
C2206 C2204 1.419 . S
C2206 C2207 1.362 . S
C2207 H2197 0.930 . S
C2207 C2200 1.409 . S
C2207 C2206 1.362 . S
H2208 C2214 0.930 . S
H2209 C2217 0.930 . S
H2210 C2218 0.930 . S
H2211 C2219 0.930 . S
H2212 C2222 0.930 . S
H2213 C2223 0.930 . S
C2214 H2208 0.930 . S
C2214 C2215 1.355 . S
C2214 C2216 1.415 . S
C2215 C2214 1.355 . S
C2215 C2217 1.419 . S
C2216 C2214 1.415 . S
C2216 C2221 1.425 . S
C2216 C2223 1.409 . S
C2217 H2209 0.930 . S
C2217 C2215 1.419 . S
C2217 C2218 1.362 . S
C2218 H2210 0.930 . S
C2218 C2217 1.362 . S
C2218 C2221 1.409 . S
C2219 H2211 0.930 . S
C2219 C2220 1.355 . S
C2219 C2221 1.415 . S
C2220 C2219 1.355 . S
C2220 C2222 1.419 . S
C2221 C2216 1.425 . S
C2221 C2218 1.409 . S
C2221 C2219 1.415 . S
C2222 H2212 0.930 . S
C2222 C2220 1.419 . S
C2222 C2223 1.362 . S
C2223 H2213 0.930 . S
C2223 C2216 1.409 . S
C2223 C2222 1.362 . S
H2224 C2230 0.930 . S
H2225 C2233 0.930 . S
H2226 C2234 0.930 . S
H2227 C2235 0.930 . S
H2228 C2238 0.930 . S
H2229 C2239 0.930 . S
C2230 H2224 0.930 . S
C2230 C2231 1.355 . S
C2230 C2232 1.415 . S
C2231 C2230 1.355 . S
C2231 C2233 1.419 . S
C2232 C2230 1.415 . S
C2232 C2237 1.425 . S
C2232 C2239 1.409 . S
C2233 H2225 0.930 . S
C2233 C2231 1.419 . S
C2233 C2234 1.362 . S
C2234 H2226 0.930 . S
C2234 C2233 1.362 . S
C2234 C2237 1.409 . S
C2235 H2227 0.930 . S
C2235 C2236 1.355 . S
C2235 C2237 1.415 . S
C2236 C2235 1.355 . S
C2236 C2238 1.419 . S
C2237 C2232 1.425 . S
C2237 C2234 1.409 . S
C2237 C2235 1.415 . S
C2238 H2228 0.930 . S
C2238 C2236 1.419 . S
C2238 C2239 1.362 . S
C2239 H2229 0.930 . S
C2239 C2232 1.409 . S
C2239 C2238 1.362 . S
H2240 C2246 0.930 . S
H2241 C2249 0.930 . S
H2242 C2250 0.930 . S
H2243 C2251 0.930 . S
H2244 C2254 0.930 . S
H2245 C2255 0.930 . S
C2246 H2240 0.930 . S
C2246 C2247 1.355 . S
C2246 C2248 1.415 . S
C2247 C2246 1.355 . S
C2247 C2249 1.419 . S
C2248 C2246 1.415 . S
C2248 C2253 1.425 . S
C2248 C2255 1.409 . S
C2249 H2241 0.930 . S
C2249 C2247 1.419 . S
C2249 C2250 1.362 . S
C2250 H2242 0.930 . S
C2250 C2249 1.362 . S
C2250 C2253 1.409 . S
C2251 H2243 0.930 . S
C2251 C2252 1.355 . S
C2251 C2253 1.415 . S
C2252 C2251 1.355 . S
C2252 C2254 1.419 . S
C2253 C2248 1.425 . S
C2253 C2250 1.409 . S
C2253 C2251 1.415 . S
C2254 H2244 0.930 . S
C2254 C2252 1.419 . S
C2254 C2255 1.362 . S
C2255 H2245 0.930 . S
C2255 C2248 1.409 . S
C2255 C2254 1.362 . S
H2256 C2262 0.930 . S
H2257 C2265 0.930 . S
H2258 C2266 0.930 . S
H2259 C2267 0.930 . S
H2260 C2270 0.930 . S
H2261 C2271 0.930 . S
C2262 H2256 0.930 . S
C2262 C2263 1.355 . S
C2262 C2264 1.415 . S
C2263 C2262 1.355 . S
C2263 C2265 1.419 . S
C2264 C2262 1.415 . S
C2264 C2269 1.425 . S
C2264 C2271 1.409 . S
C2265 H2257 0.930 . S
C2265 C2263 1.419 . S
C2265 C2266 1.362 . S
C2266 H2258 0.930 . S
C2266 C2265 1.362 . S
C2266 C2269 1.409 . S
C2267 H2259 0.930 . S
C2267 C2268 1.355 . S
C2267 C2269 1.415 . S
C2268 C2267 1.355 . S
C2268 C2270 1.419 . S
C2269 C2264 1.425 . S
C2269 C2266 1.409 . S
C2269 C2267 1.415 . S
C2270 H2260 0.930 . S
C2270 C2268 1.419 . S
C2270 C2271 1.362 . S
C2271 H2261 0.930 . S
C2271 C2264 1.409 . S
C2271 C2270 1.362 . S
H2272 C2278 0.930 . S
H2273 C2281 0.930 . S
H2274 C2282 0.930 . S
H2275 C2283 0.930 . S
H2276 C2286 0.930 . S
H2277 C2287 0.930 . S
C2278 H2272 0.930 . S
C2278 C2279 1.355 . S
C2278 C2280 1.415 . S
C2279 C2278 1.355 . S
C2279 C2281 1.419 . S
C2280 C2278 1.415 . S
C2280 C2285 1.425 . S
C2280 C2287 1.409 . S
C2281 H2273 0.930 . S
C2281 C2279 1.419 . S
C2281 C2282 1.362 . S
C2282 H2274 0.930 . S
C2282 C2281 1.362 . S
C2282 C2285 1.409 . S
C2283 H2275 0.930 . S
C2283 C2284 1.355 . S
C2283 C2285 1.415 . S
C2284 C2283 1.355 . S
C2284 C2286 1.419 . S
C2285 C2280 1.425 . S
C2285 C2282 1.409 . S
C2285 C2283 1.415 . S
C2286 H2276 0.930 . S
C2286 C2284 1.419 . S
C2286 C2287 1.362 . S
C2287 H2277 0.930 . S
C2287 C2280 1.409 . S
C2287 C2286 1.362 . S
H2288 C2294 0.930 . S
H2289 C2297 0.930 . S
H2290 C2298 0.930 . S
H2291 C2299 0.930 . S
H2292 C2302 0.930 . S
H2293 C2303 0.930 . S
C2294 H2288 0.930 . S
C2294 C2295 1.355 . S
C2294 C2296 1.415 . S
C2295 C2294 1.355 . S
C2295 C2297 1.419 . S
C2296 C2294 1.415 . S
C2296 C2301 1.425 . S
C2296 C2303 1.409 . S
C2297 H2289 0.930 . S
C2297 C2295 1.419 . S
C2297 C2298 1.362 . S
C2298 H2290 0.930 . S
C2298 C2297 1.362 . S
C2298 C2301 1.409 . S
C2299 H2291 0.930 . S
C2299 C2300 1.355 . S
C2299 C2301 1.415 . S
C2300 C2299 1.355 . S
C2300 C2302 1.419 . S
C2301 C2296 1.425 . S
C2301 C2298 1.409 . S
C2301 C2299 1.415 . S
C2302 H2292 0.930 . S
C2302 C2300 1.419 . S
C2302 C2303 1.362 . S
C2303 H2293 0.930 . S
C2303 C2296 1.409 . S
C2303 C2302 1.362 . S
H2304 C2310 0.930 . S
H2305 C2313 0.930 . S
H2306 C2314 0.930 . S
H2307 C2315 0.930 . S
H2308 C2318 0.930 . S
H2309 C2319 0.930 . S
C2310 H2304 0.930 . S
C2310 C2311 1.355 . S
C2310 C2312 1.415 . S
C2311 C2310 1.355 . S
C2311 C2313 1.419 . S
C2312 C2310 1.415 . S
C2312 C2317 1.425 . S
C2312 C2319 1.409 . S
C2313 H2305 0.930 . S
C2313 C2311 1.419 . S
C2313 C2314 1.362 . S
C2314 H2306 0.930 . S
C2314 C2313 1.362 . S
C2314 C2317 1.409 . S
C2315 H2307 0.930 . S
C2315 C2316 1.355 . S
C2315 C2317 1.415 . S
C2316 C2315 1.355 . S
C2316 C2318 1.419 . S
C2317 C2312 1.425 . S
C2317 C2314 1.409 . S
C2317 C2315 1.415 . S
C2318 H2308 0.930 . S
C2318 C2316 1.419 . S
C2318 C2319 1.362 . S
C2319 H2309 0.930 . S
C2319 C2312 1.409 . S
C2319 C2318 1.362 . S
H2320 C2326 0.930 . S
H2321 C2329 0.930 . S
H2322 C2330 0.930 . S
H2323 C2331 0.930 . S
H2324 C2334 0.930 . S
H2325 C2335 0.930 . S
C2326 H2320 0.930 . S
C2326 C2327 1.355 . S
C2326 C2328 1.415 . S
C2327 C2326 1.355 . S
C2327 C2329 1.419 . S
C2328 C2326 1.415 . S
C2328 C2333 1.425 . S
C2328 C2335 1.409 . S
C2329 H2321 0.930 . S
C2329 C2327 1.419 . S
C2329 C2330 1.362 . S
C2330 H2322 0.930 . S
C2330 C2329 1.362 . S
C2330 C2333 1.409 . S
C2331 H2323 0.930 . S
C2331 C2332 1.355 . S
C2331 C2333 1.415 . S
C2332 C2331 1.355 . S
C2332 C2334 1.419 . S
C2333 C2328 1.425 . S
C2333 C2330 1.409 . S
C2333 C2331 1.415 . S
C2334 H2324 0.930 . S
C2334 C2332 1.419 . S
C2334 C2335 1.362 . S
C2335 H2325 0.930 . S
C2335 C2328 1.409 . S
C2335 C2334 1.362 . S
H2336 C2342 0.930 . S
H2337 C2345 0.930 . S
H2338 C2346 0.930 . S
H2339 C2347 0.930 . S
H2340 C2350 0.930 . S
H2341 C2351 0.930 . S
C2342 H2336 0.930 . S
C2342 C2343 1.355 . S
C2342 C2344 1.415 . S
C2343 C2342 1.355 . S
C2343 C2345 1.419 . S
C2344 C2342 1.415 . S
C2344 C2349 1.425 . S
C2344 C2351 1.409 . S
C2345 H2337 0.930 . S
C2345 C2343 1.419 . S
C2345 C2346 1.362 . S
C2346 H2338 0.930 . S
C2346 C2345 1.362 . S
C2346 C2349 1.409 . S
C2347 H2339 0.930 . S
C2347 C2348 1.355 . S
C2347 C2349 1.415 . S
C2348 C2347 1.355 . S
C2348 C2350 1.419 . S
C2349 C2344 1.425 . S
C2349 C2346 1.409 . S
C2349 C2347 1.415 . S
C2350 H2340 0.930 . S
C2350 C2348 1.419 . S
C2350 C2351 1.362 . S
C2351 H2341 0.930 . S
C2351 C2344 1.409 . S
C2351 C2350 1.362 . S
H2352 C2358 0.930 . S
H2353 C2361 0.930 . S
H2354 C2362 0.930 . S
H2355 C2363 0.930 . S
H2356 C2366 0.930 . S
H2357 C2367 0.930 . S
C2358 H2352 0.930 . S
C2358 C2359 1.355 . S
C2358 C2360 1.415 . S
C2359 C2358 1.355 . S
C2359 C2361 1.419 . S
C2360 C2358 1.415 . S
C2360 C2365 1.425 . S
C2360 C2367 1.409 . S
C2361 H2353 0.930 . S
C2361 C2359 1.419 . S
C2361 C2362 1.362 . S
C2362 H2354 0.930 . S
C2362 C2361 1.362 . S
C2362 C2365 1.409 . S
C2363 H2355 0.930 . S
C2363 C2364 1.355 . S
C2363 C2365 1.415 . S
C2364 C2363 1.355 . S
C2364 C2366 1.419 . S
C2365 C2360 1.425 . S
C2365 C2362 1.409 . S
C2365 C2363 1.415 . S
C2366 H2356 0.930 . S
C2366 C2364 1.419 . S
C2366 C2367 1.362 . S
C2367 H2357 0.930 . S
C2367 C2360 1.409 . S
C2367 C2366 1.362 . S
H2368 C2374 0.930 . S
H2369 C2377 0.930 . S
H2370 C2378 0.930 . S
H2371 C2379 0.930 . S
H2372 C2382 0.930 . S
H2373 C2383 0.930 . S
C2374 H2368 0.930 . S
C2374 C2375 1.355 . S
C2374 C2376 1.415 . S
C2375 C2374 1.355 . S
C2375 C2377 1.419 . S
C2376 C2374 1.415 . S
C2376 C2381 1.425 . S
C2376 C2383 1.409 . S
C2377 H2369 0.930 . S
C2377 C2375 1.419 . S
C2377 C2378 1.362 . S
C2378 H2370 0.930 . S
C2378 C2377 1.362 . S
C2378 C2381 1.409 . S
C2379 H2371 0.930 . S
C2379 C2380 1.355 . S
C2379 C2381 1.415 . S
C2380 C2379 1.355 . S
C2380 C2382 1.419 . S
C2381 C2376 1.425 . S
C2381 C2378 1.409 . S
C2381 C2379 1.415 . S
C2382 H2372 0.930 . S
C2382 C2380 1.419 . S
C2382 C2383 1.362 . S
C2383 H2373 0.930 . S
C2383 C2376 1.409 . S
C2383 C2382 1.362 . S
H2384 C2390 0.930 . S
H2385 C2393 0.930 . S
H2386 C2394 0.930 . S
H2387 C2395 0.930 . S
H2388 C2398 0.930 . S
H2389 C2399 0.930 . S
C2390 H2384 0.930 . S
C2390 C2391 1.355 . S
C2390 C2392 1.415 . S
C2391 C2390 1.355 . S
C2391 C2393 1.419 . S
C2392 C2390 1.415 . S
C2392 C2397 1.425 . S
C2392 C2399 1.409 . S
C2393 H2385 0.930 . S
C2393 C2391 1.419 . S
C2393 C2394 1.362 . S
C2394 H2386 0.930 . S
C2394 C2393 1.362 . S
C2394 C2397 1.409 . S
C2395 H2387 0.930 . S
C2395 C2396 1.355 . S
C2395 C2397 1.415 . S
C2396 C2395 1.355 . S
C2396 C2398 1.419 . S
C2397 C2392 1.425 . S
C2397 C2394 1.409 . S
C2397 C2395 1.415 . S
C2398 H2388 0.930 . S
C2398 C2396 1.419 . S
C2398 C2399 1.362 . S
C2399 H2389 0.930 . S
C2399 C2392 1.409 . S
C2399 C2398 1.362 . S
H2400 C2406 0.930 . S
H2401 C2409 0.930 . S
H2402 C2410 0.930 . S
H2403 C2411 0.930 . S
H2404 C2414 0.930 . S
H2405 C2415 0.930 . S
C2406 H2400 0.930 . S
C2406 C2407 1.355 . S
C2406 C2408 1.415 . S
C2407 C2406 1.355 . S
C2407 C2409 1.419 . S
C2408 C2406 1.415 . S
C2408 C2413 1.425 . S
C2408 C2415 1.409 . S
C2409 H2401 0.930 . S
C2409 C2407 1.419 . S
C2409 C2410 1.362 . S
C2410 H2402 0.930 . S
C2410 C2409 1.362 . S
C2410 C2413 1.409 . S
C2411 H2403 0.930 . S
C2411 C2412 1.355 . S
C2411 C2413 1.415 . S
C2412 C2411 1.355 . S
C2412 C2414 1.419 . S
C2413 C2408 1.425 . S
C2413 C2410 1.409 . S
C2413 C2411 1.415 . S
C2414 H2404 0.930 . S
C2414 C2412 1.419 . S
C2414 C2415 1.362 . S
C2415 H2405 0.930 . S
C2415 C2408 1.409 . S
C2415 C2414 1.362 . S
H2416 C2422 0.930 . S
H2417 C2425 0.930 . S
H2418 C2426 0.930 . S
H2419 C2427 0.930 . S
H2420 C2430 0.930 . S
H2421 C2431 0.930 . S
C2422 H2416 0.930 . S
C2422 C2423 1.355 . S
C2422 C2424 1.415 . S
C2423 C2422 1.355 . S
C2423 C2425 1.419 . S
C2424 C2422 1.415 . S
C2424 C2429 1.425 . S
C2424 C2431 1.409 . S
C2425 H2417 0.930 . S
C2425 C2423 1.419 . S
C2425 C2426 1.362 . S
C2426 H2418 0.930 . S
C2426 C2425 1.362 . S
C2426 C2429 1.409 . S
C2427 H2419 0.930 . S
C2427 C2428 1.355 . S
C2427 C2429 1.415 . S
C2428 C2427 1.355 . S
C2428 C2430 1.419 . S
C2429 C2424 1.425 . S
C2429 C2426 1.409 . S
C2429 C2427 1.415 . S
C2430 H2420 0.930 . S
C2430 C2428 1.419 . S
C2430 C2431 1.362 . S
C2431 H2421 0.930 . S
C2431 C2424 1.409 . S
C2431 C2430 1.362 . S
H2432 C2438 0.930 . S
H2433 C2441 0.930 . S
H2434 C2442 0.930 . S
H2435 C2443 0.930 . S
H2436 C2446 0.930 . S
H2437 C2447 0.930 . S
C2438 H2432 0.930 . S
C2438 C2439 1.355 . S
C2438 C2440 1.415 . S
C2439 C2438 1.355 . S
C2439 C2441 1.419 . S
C2440 C2438 1.415 . S
C2440 C2445 1.425 . S
C2440 C2447 1.409 . S
C2441 H2433 0.930 . S
C2441 C2439 1.419 . S
C2441 C2442 1.362 . S
C2442 H2434 0.930 . S
C2442 C2441 1.362 . S
C2442 C2445 1.409 . S
C2443 H2435 0.930 . S
C2443 C2444 1.355 . S
C2443 C2445 1.415 . S
C2444 C2443 1.355 . S
C2444 C2446 1.419 . S
C2445 C2440 1.425 . S
C2445 C2442 1.409 . S
C2445 C2443 1.415 . S
C2446 H2436 0.930 . S
C2446 C2444 1.419 . S
C2446 C2447 1.362 . S
C2447 H2437 0.930 . S
C2447 C2440 1.409 . S
C2447 C2446 1.362 . S
H2448 C2454 0.930 . S
H2449 C2457 0.930 . S
H2450 C2458 0.930 . S
H2451 C2459 0.930 . S
H2452 C2462 0.930 . S
H2453 C2463 0.930 . S
C2454 H2448 0.930 . S
C2454 C2455 1.355 . S
C2454 C2456 1.415 . S
C2455 C2454 1.355 . S
C2455 C2457 1.419 . S
C2456 C2454 1.415 . S
C2456 C2461 1.425 . S
C2456 C2463 1.409 . S
C2457 H2449 0.930 . S
C2457 C2455 1.419 . S
C2457 C2458 1.362 . S
C2458 H2450 0.930 . S
C2458 C2457 1.362 . S
C2458 C2461 1.409 . S
C2459 H2451 0.930 . S
C2459 C2460 1.355 . S
C2459 C2461 1.415 . S
C2460 C2459 1.355 . S
C2460 C2462 1.419 . S
C2461 C2456 1.425 . S
C2461 C2458 1.409 . S
C2461 C2459 1.415 . S
C2462 H2452 0.930 . S
C2462 C2460 1.419 . S
C2462 C2463 1.362 . S
C2463 H2453 0.930 . S
C2463 C2456 1.409 . S
C2463 C2462 1.362 . S
H2464 C2470 0.930 . S
H2465 C2473 0.930 . S
H2466 C2474 0.930 . S
H2467 C2475 0.930 . S
H2468 C2478 0.930 . S
H2469 C2479 0.930 . S
C2470 H2464 0.930 . S
C2470 C2471 1.355 . S
C2470 C2472 1.415 . S
C2471 C2470 1.355 . S
C2471 C2473 1.419 . S
C2472 C2470 1.415 . S
C2472 C2477 1.425 . S
C2472 C2479 1.409 . S
C2473 H2465 0.930 . S
C2473 C2471 1.419 . S
C2473 C2474 1.362 . S
C2474 H2466 0.930 . S
C2474 C2473 1.362 . S
C2474 C2477 1.409 . S
C2475 H2467 0.930 . S
C2475 C2476 1.355 . S
C2475 C2477 1.415 . S
C2476 C2475 1.355 . S
C2476 C2478 1.419 . S
C2477 C2472 1.425 . S
C2477 C2474 1.409 . S
C2477 C2475 1.415 . S
C2478 H2468 0.930 . S
C2478 C2476 1.419 . S
C2478 C2479 1.362 . S
C2479 H2469 0.930 . S
C2479 C2472 1.409 . S
C2479 C2478 1.362 . S
H2480 C2486 0.930 . S
H2481 C2489 0.930 . S
H2482 C2490 0.930 . S
H2483 C2491 0.930 . S
H2484 C2494 0.930 . S
H2485 C2495 0.930 . S
C2486 H2480 0.930 . S
C2486 C2487 1.355 . S
C2486 C2488 1.415 . S
C2487 C2486 1.355 . S
C2487 C2489 1.419 . S
C2488 C2486 1.415 . S
C2488 C2493 1.425 . S
C2488 C2495 1.409 . S
C2489 H2481 0.930 . S
C2489 C2487 1.419 . S
C2489 C2490 1.362 . S
C2490 H2482 0.930 . S
C2490 C2489 1.362 . S
C2490 C2493 1.409 . S
C2491 H2483 0.930 . S
C2491 C2492 1.355 . S
C2491 C2493 1.415 . S
C2492 C2491 1.355 . S
C2492 C2494 1.419 . S
C2493 C2488 1.425 . S
C2493 C2490 1.409 . S
C2493 C2491 1.415 . S
C2494 H2484 0.930 . S
C2494 C2492 1.419 . S
C2494 C2495 1.362 . S
C2495 H2485 0.930 . S
C2495 C2488 1.409 . S
C2495 C2494 1.362 . S
H2496 C2502 0.930 . S
H2497 C2505 0.930 . S
H2498 C2506 0.930 . S
H2499 C2507 0.930 . S
H2500 C2510 0.930 . S
H2501 C2511 0.930 . S
C2502 H2496 0.930 . S
C2502 C2503 1.355 . S
C2502 C2504 1.415 . S
C2503 C2502 1.355 . S
C2503 C2505 1.419 . S
C2504 C2502 1.415 . S
C2504 C2509 1.425 . S
C2504 C2511 1.409 . S
C2505 H2497 0.930 . S
C2505 C2503 1.419 . S
C2505 C2506 1.362 . S
C2506 H2498 0.930 . S
C2506 C2505 1.362 . S
C2506 C2509 1.409 . S
C2507 H2499 0.930 . S
C2507 C2508 1.355 . S
C2507 C2509 1.415 . S
C2508 C2507 1.355 . S
C2508 C2510 1.419 . S
C2509 C2504 1.425 . S
C2509 C2506 1.409 . S
C2509 C2507 1.415 . S
C2510 H2500 0.930 . S
C2510 C2508 1.419 . S
C2510 C2511 1.362 . S
C2511 H2501 0.930 . S
C2511 C2504 1.409 . S
C2511 C2510 1.362 . S
H2512 C2518 0.930 . S
H2513 C2521 0.930 . S
H2514 C2522 0.930 . S
H2515 C2523 0.930 . S
H2516 C2526 0.930 . S
H2517 C2527 0.930 . S
C2518 H2512 0.930 . S
C2518 C2519 1.355 . S
C2518 C2520 1.415 . S
C2519 C2518 1.355 . S
C2519 C2521 1.419 . S
C2520 C2518 1.415 . S
C2520 C2525 1.425 . S
C2520 C2527 1.409 . S
C2521 H2513 0.930 . S
C2521 C2519 1.419 . S
C2521 C2522 1.362 . S
C2522 H2514 0.930 . S
C2522 C2521 1.362 . S
C2522 C2525 1.409 . S
C2523 H2515 0.930 . S
C2523 C2524 1.355 . S
C2523 C2525 1.415 . S
C2524 C2523 1.355 . S
C2524 C2526 1.419 . S
C2525 C2520 1.425 . S
C2525 C2522 1.409 . S
C2525 C2523 1.415 . S
C2526 H2516 0.930 . S
C2526 C2524 1.419 . S
C2526 C2527 1.362 . S
C2527 H2517 0.930 . S
C2527 C2520 1.409 . S
C2527 C2526 1.362 . S
H2528 C2534 0.930 . S
H2529 C2537 0.930 . S
H2530 C2538 0.930 . S
H2531 C2539 0.930 . S
H2532 C2542 0.930 . S
H2533 C2543 0.930 . S
C2534 H2528 0.930 . S
C2534 C2535 1.355 . S
C2534 C2536 1.415 . S
C2535 C2534 1.355 . S
C2535 C2537 1.419 . S
C2536 C2534 1.415 . S
C2536 C2541 1.425 . S
C2536 C2543 1.409 . S
C2537 H2529 0.930 . S
C2537 C2535 1.419 . S
C2537 C2538 1.362 . S
C2538 H2530 0.930 . S
C2538 C2537 1.362 . S
C2538 C2541 1.409 . S
C2539 H2531 0.930 . S
C2539 C2540 1.355 . S
C2539 C2541 1.415 . S
C2540 C2539 1.355 . S
C2540 C2542 1.419 . S
C2541 C2536 1.425 . S
C2541 C2538 1.409 . S
C2541 C2539 1.415 . S
C2542 H2532 0.930 . S
C2542 C2540 1.419 . S
C2542 C2543 1.362 . S
C2543 H2533 0.930 . S
C2543 C2536 1.409 . S
C2543 C2542 1.362 . S
H2544 C2550 0.930 . S
H2545 C2553 0.930 . S
H2546 C2554 0.930 . S
H2547 C2555 0.930 . S
H2548 C2558 0.930 . S
H2549 C2559 0.930 . S
C2550 H2544 0.930 . S
C2550 C2551 1.355 . S
C2550 C2552 1.415 . S
C2551 C2550 1.355 . S
C2551 C2553 1.419 . S
C2552 C2550 1.415 . S
C2552 C2557 1.425 . S
C2552 C2559 1.409 . S
C2553 H2545 0.930 . S
C2553 C2551 1.419 . S
C2553 C2554 1.362 . S
C2554 H2546 0.930 . S
C2554 C2553 1.362 . S
C2554 C2557 1.409 . S
C2555 H2547 0.930 . S
C2555 C2556 1.355 . S
C2555 C2557 1.415 . S
C2556 C2555 1.355 . S
C2556 C2558 1.419 . S
C2557 C2552 1.425 . S
C2557 C2554 1.409 . S
C2557 C2555 1.415 . S
C2558 H2548 0.930 . S
C2558 C2556 1.419 . S
C2558 C2559 1.362 . S
C2559 H2549 0.930 . S
C2559 C2552 1.409 . S
C2559 C2558 1.362 . S
H2560 C2566 0.930 . S
H2561 C2569 0.930 . S
H2562 C2570 0.930 . S
H2563 C2571 0.930 . S
H2564 C2574 0.930 . S
H2565 C2575 0.930 . S
C2566 H2560 0.930 . S
C2566 C2567 1.355 . S
C2566 C2568 1.415 . S
C2567 C2566 1.355 . S
C2567 C2569 1.419 . S
C2568 C2566 1.415 . S
C2568 C2573 1.425 . S
C2568 C2575 1.409 . S
C2569 H2561 0.930 . S
C2569 C2567 1.419 . S
C2569 C2570 1.362 . S
C2570 H2562 0.930 . S
C2570 C2569 1.362 . S
C2570 C2573 1.409 . S
C2571 H2563 0.930 . S
C2571 C2572 1.355 . S
C2571 C2573 1.415 . S
C2572 C2571 1.355 . S
C2572 C2574 1.419 . S
C2573 C2568 1.425 . S
C2573 C2570 1.409 . S
C2573 C2571 1.415 . S
C2574 H2564 0.930 . S
C2574 C2572 1.419 . S
C2574 C2575 1.362 . S
C2575 H2565 0.930 . S
C2575 C2568 1.409 . S
C2575 C2574 1.362 . S
H2576 C2582 0.930 . S
H2577 C2585 0.930 . S
H2578 C2586 0.930 . S
H2579 C2587 0.930 . S
H2580 C2590 0.930 . S
H2581 C2591 0.930 . S
C2582 H2576 0.930 . S
C2582 C2583 1.355 . S
C2582 C2584 1.415 . S
C2583 C2582 1.355 . S
C2583 C2585 1.419 . S
C2584 C2582 1.415 . S
C2584 C2589 1.425 . S
C2584 C2591 1.409 . S
C2585 H2577 0.930 . S
C2585 C2583 1.419 . S
C2585 C2586 1.362 . S
C2586 H2578 0.930 . S
C2586 C2585 1.362 . S
C2586 C2589 1.409 . S
C2587 H2579 0.930 . S
C2587 C2588 1.355 . S
C2587 C2589 1.415 . S
C2588 C2587 1.355 . S
C2588 C2590 1.419 . S
C2589 C2584 1.425 . S
C2589 C2586 1.409 . S
C2589 C2587 1.415 . S
C2590 H2580 0.930 . S
C2590 C2588 1.419 . S
C2590 C2591 1.362 . S
C2591 H2581 0.930 . S
C2591 C2584 1.409 . S
C2591 C2590 1.362 . S
H2592 C2598 0.930 . S
H2593 C2601 0.930 . S
H2594 C2602 0.930 . S
H2595 C2603 0.930 . S
H2596 C2606 0.930 . S
H2597 C2607 0.930 . S
C2598 H2592 0.930 . S
C2598 C2599 1.355 . S
C2598 C2600 1.415 . S
C2599 C2598 1.355 . S
C2599 C2601 1.419 . S
C2600 C2598 1.415 . S
C2600 C2605 1.425 . S
C2600 C2607 1.409 . S
C2601 H2593 0.930 . S
C2601 C2599 1.419 . S
C2601 C2602 1.362 . S
C2602 H2594 0.930 . S
C2602 C2601 1.362 . S
C2602 C2605 1.409 . S
C2603 H2595 0.930 . S
C2603 C2604 1.355 . S
C2603 C2605 1.415 . S
C2604 C2603 1.355 . S
C2604 C2606 1.419 . S
C2605 C2600 1.425 . S
C2605 C2602 1.409 . S
C2605 C2603 1.415 . S
C2606 H2596 0.930 . S
C2606 C2604 1.419 . S
C2606 C2607 1.362 . S
C2607 H2597 0.930 . S
C2607 C2600 1.409 . S
C2607 C2606 1.362 . S
H2608 C2614 0.930 . S
H2609 C2617 0.930 . S
H2610 C2618 0.930 . S
H2611 C2619 0.930 . S
H2612 C2622 0.930 . S
H2613 C2623 0.930 . S
C2614 H2608 0.930 . S
C2614 C2615 1.355 . S
C2614 C2616 1.415 . S
C2615 C2614 1.355 . S
C2615 C2617 1.419 . S
C2616 C2614 1.415 . S
C2616 C2621 1.425 . S
C2616 C2623 1.409 . S
C2617 H2609 0.930 . S
C2617 C2615 1.419 . S
C2617 C2618 1.362 . S
C2618 H2610 0.930 . S
C2618 C2617 1.362 . S
C2618 C2621 1.409 . S
C2619 H2611 0.930 . S
C2619 C2620 1.355 . S
C2619 C2621 1.415 . S
C2620 C2619 1.355 . S
C2620 C2622 1.419 . S
C2621 C2616 1.425 . S
C2621 C2618 1.409 . S
C2621 C2619 1.415 . S
C2622 H2612 0.930 . S
C2622 C2620 1.419 . S
C2622 C2623 1.362 . S
C2623 H2613 0.930 . S
C2623 C2616 1.409 . S
C2623 C2622 1.362 . S
H2624 C2630 0.930 . S
H2625 C2633 0.930 . S
H2626 C2634 0.930 . S
H2627 C2635 0.930 . S
H2628 C2638 0.930 . S
H2629 C2639 0.930 . S
C2630 H2624 0.930 . S
C2630 C2631 1.355 . S
C2630 C2632 1.415 . S
C2631 C2630 1.355 . S
C2631 C2633 1.419 . S
C2632 C2630 1.415 . S
C2632 C2637 1.425 . S
C2632 C2639 1.409 . S
C2633 H2625 0.930 . S
C2633 C2631 1.419 . S
C2633 C2634 1.362 . S
C2634 H2626 0.930 . S
C2634 C2633 1.362 . S
C2634 C2637 1.409 . S
C2635 H2627 0.930 . S
C2635 C2636 1.355 . S
C2635 C2637 1.415 . S
C2636 C2635 1.355 . S
C2636 C2638 1.419 . S
C2637 C2632 1.425 . S
C2637 C2634 1.409 . S
C2637 C2635 1.415 . S
C2638 H2628 0.930 . S
C2638 C2636 1.419 . S
C2638 C2639 1.362 . S
C2639 H2629 0.930 . S
C2639 C2632 1.409 . S
C2639 C2638 1.362 . S
H2640 C2646 0.930 . S
H2641 C2649 0.930 . S
H2642 C2650 0.930 . S
H2643 C2651 0.930 . S
H2644 C2654 0.930 . S
H2645 C2655 0.930 . S
C2646 H2640 0.930 . S
C2646 C2647 1.355 . S
C2646 C2648 1.415 . S
C2647 C2646 1.355 . S
C2647 C2649 1.419 . S
C2648 C2646 1.415 . S
C2648 C2653 1.425 . S
C2648 C2655 1.409 . S
C2649 H2641 0.930 . S
C2649 C2647 1.419 . S
C2649 C2650 1.362 . S
C2650 H2642 0.930 . S
C2650 C2649 1.362 . S
C2650 C2653 1.409 . S
C2651 H2643 0.930 . S
C2651 C2652 1.355 . S
C2651 C2653 1.415 . S
C2652 C2651 1.355 . S
C2652 C2654 1.419 . S
C2653 C2648 1.425 . S
C2653 C2650 1.409 . S
C2653 C2651 1.415 . S
C2654 H2644 0.930 . S
C2654 C2652 1.419 . S
C2654 C2655 1.362 . S
C2655 H2645 0.930 . S
C2655 C2648 1.409 . S
C2655 C2654 1.362 . S
H2656 C2662 0.930 . S
H2657 C2665 0.930 . S
H2658 C2666 0.930 . S
H2659 C2667 0.930 . S
H2660 C2670 0.930 . S
H2661 C2671 0.930 . S
C2662 H2656 0.930 . S
C2662 C2663 1.355 . S
C2662 C2664 1.415 . S
C2663 C2662 1.355 . S
C2663 C2665 1.419 . S
C2664 C2662 1.415 . S
C2664 C2669 1.425 . S
C2664 C2671 1.409 . S
C2665 H2657 0.930 . S
C2665 C2663 1.419 . S
C2665 C2666 1.362 . S
C2666 H2658 0.930 . S
C2666 C2665 1.362 . S
C2666 C2669 1.409 . S
C2667 H2659 0.930 . S
C2667 C2668 1.355 . S
C2667 C2669 1.415 . S
C2668 C2667 1.355 . S
C2668 C2670 1.419 . S
C2669 C2664 1.425 . S
C2669 C2666 1.409 . S
C2669 C2667 1.415 . S
C2670 H2660 0.930 . S
C2670 C2668 1.419 . S
C2670 C2671 1.362 . S
C2671 H2661 0.930 . S
C2671 C2664 1.409 . S
C2671 C2670 1.362 . S
H2672 C2678 0.930 . S
H2673 C2681 0.930 . S
H2674 C2682 0.930 . S
H2675 C2683 0.930 . S
H2676 C2686 0.930 . S
H2677 C2687 0.930 . S
C2678 H2672 0.930 . S
C2678 C2679 1.355 . S
C2678 C2680 1.415 . S
C2679 C2678 1.355 . S
C2679 C2681 1.419 . S
C2680 C2678 1.415 . S
C2680 C2685 1.425 . S
C2680 C2687 1.409 . S
C2681 H2673 0.930 . S
C2681 C2679 1.419 . S
C2681 C2682 1.362 . S
C2682 H2674 0.930 . S
C2682 C2681 1.362 . S
C2682 C2685 1.409 . S
C2683 H2675 0.930 . S
C2683 C2684 1.355 . S
C2683 C2685 1.415 . S
C2684 C2683 1.355 . S
C2684 C2686 1.419 . S
C2685 C2680 1.425 . S
C2685 C2682 1.409 . S
C2685 C2683 1.415 . S
C2686 H2676 0.930 . S
C2686 C2684 1.419 . S
C2686 C2687 1.362 . S
C2687 H2677 0.930 . S
C2687 C2680 1.409 . S
C2687 C2686 1.362 . S
H2688 C2694 0.930 . S
H2689 C2697 0.930 . S
H2690 C2698 0.930 . S
H2691 C2699 0.930 . S
H2692 C2702 0.930 . S
H2693 C2703 0.930 . S
C2694 H2688 0.930 . S
C2694 C2695 1.355 . S
C2694 C2696 1.415 . S
C2695 C2694 1.355 . S
C2695 C2697 1.419 . S
C2696 C2694 1.415 . S
C2696 C2701 1.425 . S
C2696 C2703 1.409 . S
C2697 H2689 0.930 . S
C2697 C2695 1.419 . S
C2697 C2698 1.362 . S
C2698 H2690 0.930 . S
C2698 C2697 1.362 . S
C2698 C2701 1.409 . S
C2699 H2691 0.930 . S
C2699 C2700 1.355 . S
C2699 C2701 1.415 . S
C2700 C2699 1.355 . S
C2700 C2702 1.419 . S
C2701 C2696 1.425 . S
C2701 C2698 1.409 . S
C2701 C2699 1.415 . S
C2702 H2692 0.930 . S
C2702 C2700 1.419 . S
C2702 C2703 1.362 . S
C2703 H2693 0.930 . S
C2703 C2696 1.409 . S
C2703 C2702 1.362 . S
H2704 C2710 0.930 . S
H2705 C2713 0.930 . S
H2706 C2714 0.930 . S
H2707 C2715 0.930 . S
H2708 C2718 0.930 . S
H2709 C2719 0.930 . S
C2710 H2704 0.930 . S
C2710 C2711 1.355 . S
C2710 C2712 1.415 . S
C2711 C2710 1.355 . S
C2711 C2713 1.419 . S
C2712 C2710 1.415 . S
C2712 C2717 1.425 . S
C2712 C2719 1.409 . S
C2713 H2705 0.930 . S
C2713 C2711 1.419 . S
C2713 C2714 1.362 . S
C2714 H2706 0.930 . S
C2714 C2713 1.362 . S
C2714 C2717 1.409 . S
C2715 H2707 0.930 . S
C2715 C2716 1.355 . S
C2715 C2717 1.415 . S
C2716 C2715 1.355 . S
C2716 C2718 1.419 . S
C2717 C2712 1.425 . S
C2717 C2714 1.409 . S
C2717 C2715 1.415 . S
C2718 H2708 0.930 . S
C2718 C2716 1.419 . S
C2718 C2719 1.362 . S
C2719 H2709 0.930 . S
C2719 C2712 1.409 . S
C2719 C2718 1.362 . S
H2720 C2726 0.930 . S
H2721 C2729 0.930 . S
H2722 C2730 0.930 . S
H2723 C2731 0.930 . S
H2724 C2734 0.930 . S
H2725 C2735 0.930 . S
C2726 H2720 0.930 . S
C2726 C2727 1.355 . S
C2726 C2728 1.415 . S
C2727 C2726 1.355 . S
C2727 C2729 1.419 . S
C2728 C2726 1.415 . S
C2728 C2733 1.425 . S
C2728 C2735 1.409 . S
C2729 H2721 0.930 . S
C2729 C2727 1.419 . S
C2729 C2730 1.362 . S
C2730 H2722 0.930 . S
C2730 C2729 1.362 . S
C2730 C2733 1.409 . S
C2731 H2723 0.930 . S
C2731 C2732 1.355 . S
C2731 C2733 1.415 . S
C2732 C2731 1.355 . S
C2732 C2734 1.419 . S
C2733 C2728 1.425 . S
C2733 C2730 1.409 . S
C2733 C2731 1.415 . S
C2734 H2724 0.930 . S
C2734 C2732 1.419 . S
C2734 C2735 1.362 . S
C2735 H2725 0.930 . S
C2735 C2728 1.409 . S
C2735 C2734 1.362 . S
H2736 C2742 0.930 . S
H2737 C2745 0.930 . S
H2738 C2746 0.930 . S
H2739 C2747 0.930 . S
H2740 C2750 0.930 . S
H2741 C2751 0.930 . S
C2742 H2736 0.930 . S
C2742 C2743 1.355 . S
C2742 C2744 1.415 . S
C2743 C2742 1.355 . S
C2743 C2745 1.419 . S
C2744 C2742 1.415 . S
C2744 C2749 1.425 . S
C2744 C2751 1.409 . S
C2745 H2737 0.930 . S
C2745 C2743 1.419 . S
C2745 C2746 1.362 . S
C2746 H2738 0.930 . S
C2746 C2745 1.362 . S
C2746 C2749 1.409 . S
C2747 H2739 0.930 . S
C2747 C2748 1.355 . S
C2747 C2749 1.415 . S
C2748 C2747 1.355 . S
C2748 C2750 1.419 . S
C2749 C2744 1.425 . S
C2749 C2746 1.409 . S
C2749 C2747 1.415 . S
C2750 H2740 0.930 . S
C2750 C2748 1.419 . S
C2750 C2751 1.362 . S
C2751 H2741 0.930 . S
C2751 C2744 1.409 . S
C2751 C2750 1.362 . S
H2752 C2758 0.930 . S
H2753 C2761 0.930 . S
H2754 C2762 0.930 . S
H2755 C2763 0.930 . S
H2756 C2766 0.930 . S
H2757 C2767 0.930 . S
C2758 H2752 0.930 . S
C2758 C2759 1.355 . S
C2758 C2760 1.415 . S
C2759 C2758 1.355 . S
C2759 C2761 1.419 . S
C2760 C2758 1.415 . S
C2760 C2765 1.425 . S
C2760 C2767 1.409 . S
C2761 H2753 0.930 . S
C2761 C2759 1.419 . S
C2761 C2762 1.362 . S
C2762 H2754 0.930 . S
C2762 C2761 1.362 . S
C2762 C2765 1.409 . S
C2763 H2755 0.930 . S
C2763 C2764 1.355 . S
C2763 C2765 1.415 . S
C2764 C2763 1.355 . S
C2764 C2766 1.419 . S
C2765 C2760 1.425 . S
C2765 C2762 1.409 . S
C2765 C2763 1.415 . S
C2766 H2756 0.930 . S
C2766 C2764 1.419 . S
C2766 C2767 1.362 . S
C2767 H2757 0.930 . S
C2767 C2760 1.409 . S
C2767 C2766 1.362 . S
H2768 C2774 0.930 . S
H2769 C2777 0.930 . S
H2770 C2778 0.930 . S
H2771 C2779 0.930 . S
H2772 C2782 0.930 . S
H2773 C2783 0.930 . S
C2774 H2768 0.930 . S
C2774 C2775 1.355 . S
C2774 C2776 1.415 . S
C2775 C2774 1.355 . S
C2775 C2777 1.419 . S
C2776 C2774 1.415 . S
C2776 C2781 1.425 . S
C2776 C2783 1.409 . S
C2777 H2769 0.930 . S
C2777 C2775 1.419 . S
C2777 C2778 1.362 . S
C2778 H2770 0.930 . S
C2778 C2777 1.362 . S
C2778 C2781 1.409 . S
C2779 H2771 0.930 . S
C2779 C2780 1.355 . S
C2779 C2781 1.415 . S
C2780 C2779 1.355 . S
C2780 C2782 1.419 . S
C2781 C2776 1.425 . S
C2781 C2778 1.409 . S
C2781 C2779 1.415 . S
C2782 H2772 0.930 . S
C2782 C2780 1.419 . S
C2782 C2783 1.362 . S
C2783 H2773 0.930 . S
C2783 C2776 1.409 . S
C2783 C2782 1.362 . S
H2784 C2790 0.930 . S
H2785 C2793 0.930 . S
H2786 C2794 0.930 . S
H2787 C2795 0.930 . S
H2788 C2798 0.930 . S
H2789 C2799 0.930 . S
C2790 H2784 0.930 . S
C2790 C2791 1.355 . S
C2790 C2792 1.415 . S
C2791 C2790 1.355 . S
C2791 C2793 1.419 . S
C2792 C2790 1.415 . S
C2792 C2797 1.425 . S
C2792 C2799 1.409 . S
C2793 H2785 0.930 . S
C2793 C2791 1.419 . S
C2793 C2794 1.362 . S
C2794 H2786 0.930 . S
C2794 C2793 1.362 . S
C2794 C2797 1.409 . S
C2795 H2787 0.930 . S
C2795 C2796 1.355 . S
C2795 C2797 1.415 . S
C2796 C2795 1.355 . S
C2796 C2798 1.419 . S
C2797 C2792 1.425 . S
C2797 C2794 1.409 . S
C2797 C2795 1.415 . S
C2798 H2788 0.930 . S
C2798 C2796 1.419 . S
C2798 C2799 1.362 . S
C2799 H2789 0.930 . S
C2799 C2792 1.409 . S
C2799 C2798 1.362 . S
H2800 C2806 0.930 . S
H2801 C2809 0.930 . S
H2802 C2810 0.930 . S
H2803 C2811 0.930 . S
H2804 C2814 0.930 . S
H2805 C2815 0.930 . S
C2806 H2800 0.930 . S
C2806 C2807 1.355 . S
C2806 C2808 1.415 . S
C2807 C2806 1.355 . S
C2807 C2809 1.419 . S
C2808 C2806 1.415 . S
C2808 C2813 1.425 . S
C2808 C2815 1.409 . S
C2809 H2801 0.930 . S
C2809 C2807 1.419 . S
C2809 C2810 1.362 . S
C2810 H2802 0.930 . S
C2810 C2809 1.362 . S
C2810 C2813 1.409 . S
C2811 H2803 0.930 . S
C2811 C2812 1.355 . S
C2811 C2813 1.415 . S
C2812 C2811 1.355 . S
C2812 C2814 1.419 . S
C2813 C2808 1.425 . S
C2813 C2810 1.409 . S
C2813 C2811 1.415 . S
C2814 H2804 0.930 . S
C2814 C2812 1.419 . S
C2814 C2815 1.362 . S
C2815 H2805 0.930 . S
C2815 C2808 1.409 . S
C2815 C2814 1.362 . S
H2816 C2822 0.930 . S
H2817 C2825 0.930 . S
H2818 C2826 0.930 . S
H2819 C2827 0.930 . S
H2820 C2830 0.930 . S
H2821 C2831 0.930 . S
C2822 H2816 0.930 . S
C2822 C2823 1.355 . S
C2822 C2824 1.415 . S
C2823 C2822 1.355 . S
C2823 C2825 1.419 . S
C2824 C2822 1.415 . S
C2824 C2829 1.425 . S
C2824 C2831 1.409 . S
C2825 H2817 0.930 . S
C2825 C2823 1.419 . S
C2825 C2826 1.362 . S
C2826 H2818 0.930 . S
C2826 C2825 1.362 . S
C2826 C2829 1.409 . S
C2827 H2819 0.930 . S
C2827 C2828 1.355 . S
C2827 C2829 1.415 . S
C2828 C2827 1.355 . S
C2828 C2830 1.419 . S
C2829 C2824 1.425 . S
C2829 C2826 1.409 . S
C2829 C2827 1.415 . S
C2830 H2820 0.930 . S
C2830 C2828 1.419 . S
C2830 C2831 1.362 . S
C2831 H2821 0.930 . S
C2831 C2824 1.409 . S
C2831 C2830 1.362 . S
H2832 C2838 0.930 . S
H2833 C2841 0.930 . S
H2834 C2842 0.930 . S
H2835 C2843 0.930 . S
H2836 C2846 0.930 . S
H2837 C2847 0.930 . S
C2838 H2832 0.930 . S
C2838 C2839 1.355 . S
C2838 C2840 1.415 . S
C2839 C2838 1.355 . S
C2839 C2841 1.419 . S
C2840 C2838 1.415 . S
C2840 C2845 1.425 . S
C2840 C2847 1.409 . S
C2841 H2833 0.930 . S
C2841 C2839 1.419 . S
C2841 C2842 1.362 . S
C2842 H2834 0.930 . S
C2842 C2841 1.362 . S
C2842 C2845 1.409 . S
C2843 H2835 0.930 . S
C2843 C2844 1.355 . S
C2843 C2845 1.415 . S
C2844 C2843 1.355 . S
C2844 C2846 1.419 . S
C2845 C2840 1.425 . S
C2845 C2842 1.409 . S
C2845 C2843 1.415 . S
C2846 H2836 0.930 . S
C2846 C2844 1.419 . S
C2846 C2847 1.362 . S
C2847 H2837 0.930 . S
C2847 C2840 1.409 . S
C2847 C2846 1.362 . S
H2848 C2854 0.930 . S
H2849 C2857 0.930 . S
H2850 C2858 0.930 . S
H2851 C2859 0.930 . S
H2852 C2862 0.930 . S
H2853 C2863 0.930 . S
C2854 H2848 0.930 . S
C2854 C2855 1.355 . S
C2854 C2856 1.415 . S
C2855 C2854 1.355 . S
C2855 C2857 1.419 . S
C2856 C2854 1.415 . S
C2856 C2861 1.425 . S
C2856 C2863 1.409 . S
C2857 H2849 0.930 . S
C2857 C2855 1.419 . S
C2857 C2858 1.362 . S
C2858 H2850 0.930 . S
C2858 C2857 1.362 . S
C2858 C2861 1.409 . S
C2859 H2851 0.930 . S
C2859 C2860 1.355 . S
C2859 C2861 1.415 . S
C2860 C2859 1.355 . S
C2860 C2862 1.419 . S
C2861 C2856 1.425 . S
C2861 C2858 1.409 . S
C2861 C2859 1.415 . S
C2862 H2852 0.930 . S
C2862 C2860 1.419 . S
C2862 C2863 1.362 . S
C2863 H2853 0.930 . S
C2863 C2856 1.409 . S
C2863 C2862 1.362 . S
H2864 C2870 0.930 . S
H2865 C2873 0.930 . S
H2866 C2874 0.930 . S
H2867 C2875 0.930 . S
H2868 C2878 0.930 . S
H2869 C2879 0.930 . S
C2870 H2864 0.930 . S
C2870 C2871 1.355 . S
C2870 C2872 1.415 . S
C2871 C2870 1.355 . S
C2871 C2873 1.419 . S
C2872 C2870 1.415 . S
C2872 C2877 1.425 . S
C2872 C2879 1.409 . S
C2873 H2865 0.930 . S
C2873 C2871 1.419 . S
C2873 C2874 1.362 . S
C2874 H2866 0.930 . S
C2874 C2873 1.362 . S
C2874 C2877 1.409 . S
C2875 H2867 0.930 . S
C2875 C2876 1.355 . S
C2875 C2877 1.415 . S
C2876 C2875 1.355 . S
C2876 C2878 1.419 . S
C2877 C2872 1.425 . S
C2877 C2874 1.409 . S
C2877 C2875 1.415 . S
C2878 H2868 0.930 . S
C2878 C2876 1.419 . S
C2878 C2879 1.362 . S
C2879 H2869 0.930 . S
C2879 C2872 1.409 . S
C2879 C2878 1.362 . S
H2880 C2886 0.930 . S
H2881 C2889 0.930 . S
H2882 C2890 0.930 . S
H2883 C2891 0.930 . S
H2884 C2894 0.930 . S
H2885 C2895 0.930 . S
C2886 H2880 0.930 . S
C2886 C2887 1.355 . S
C2886 C2888 1.415 . S
C2887 C2886 1.355 . S
C2887 C2889 1.419 . S
C2888 C2886 1.415 . S
C2888 C2893 1.425 . S
C2888 C2895 1.409 . S
C2889 H2881 0.930 . S
C2889 C2887 1.419 . S
C2889 C2890 1.362 . S
C2890 H2882 0.930 . S
C2890 C2889 1.362 . S
C2890 C2893 1.409 . S
C2891 H2883 0.930 . S
C2891 C2892 1.355 . S
C2891 C2893 1.415 . S
C2892 C2891 1.355 . S
C2892 C2894 1.419 . S
C2893 C2888 1.425 . S
C2893 C2890 1.409 . S
C2893 C2891 1.415 . S
C2894 H2884 0.930 . S
C2894 C2892 1.419 . S
C2894 C2895 1.362 . S
C2895 H2885 0.930 . S
C2895 C2888 1.409 . S
C2895 C2894 1.362 . S
H2896 C2902 0.930 . S
H2897 C2905 0.930 . S
H2898 C2906 0.930 . S
H2899 C2907 0.930 . S
H2900 C2910 0.930 . S
H2901 C2911 0.930 . S
C2902 H2896 0.930 . S
C2902 C2903 1.355 . S
C2902 C2904 1.415 . S
C2903 C2902 1.355 . S
C2903 C2905 1.419 . S
C2904 C2902 1.415 . S
C2904 C2909 1.425 . S
C2904 C2911 1.409 . S
C2905 H2897 0.930 . S
C2905 C2903 1.419 . S
C2905 C2906 1.362 . S
C2906 H2898 0.930 . S
C2906 C2905 1.362 . S
C2906 C2909 1.409 . S
C2907 H2899 0.930 . S
C2907 C2908 1.355 . S
C2907 C2909 1.415 . S
C2908 C2907 1.355 . S
C2908 C2910 1.419 . S
C2909 C2904 1.425 . S
C2909 C2906 1.409 . S
C2909 C2907 1.415 . S
C2910 H2900 0.930 . S
C2910 C2908 1.419 . S
C2910 C2911 1.362 . S
C2911 H2901 0.930 . S
C2911 C2904 1.409 . S
C2911 C2910 1.362 . S
H2912 C2918 0.930 . S
H2913 C2921 0.930 . S
H2914 C2922 0.930 . S
H2915 C2923 0.930 . S
H2916 C2926 0.930 . S
H2917 C2927 0.930 . S
C2918 H2912 0.930 . S
C2918 C2919 1.355 . S
C2918 C2920 1.415 . S
C2919 C2918 1.355 . S
C2919 C2921 1.419 . S
C2920 C2918 1.415 . S
C2920 C2925 1.425 . S
C2920 C2927 1.409 . S
C2921 H2913 0.930 . S
C2921 C2919 1.419 . S
C2921 C2922 1.362 . S
C2922 H2914 0.930 . S
C2922 C2921 1.362 . S
C2922 C2925 1.409 . S
C2923 H2915 0.930 . S
C2923 C2924 1.355 . S
C2923 C2925 1.415 . S
C2924 C2923 1.355 . S
C2924 C2926 1.419 . S
C2925 C2920 1.425 . S
C2925 C2922 1.409 . S
C2925 C2923 1.415 . S
C2926 H2916 0.930 . S
C2926 C2924 1.419 . S
C2926 C2927 1.362 . S
C2927 H2917 0.930 . S
C2927 C2920 1.409 . S
C2927 C2926 1.362 . S
H2928 C2934 0.930 . S
H2929 C2937 0.930 . S
H2930 C2938 0.930 . S
H2931 C2939 0.930 . S
H2932 C2942 0.930 . S
H2933 C2943 0.930 . S
C2934 H2928 0.930 . S
C2934 C2935 1.355 . S
C2934 C2936 1.415 . S
C2935 C2934 1.355 . S
C2935 C2937 1.419 . S
C2936 C2934 1.415 . S
C2936 C2941 1.425 . S
C2936 C2943 1.409 . S
C2937 H2929 0.930 . S
C2937 C2935 1.419 . S
C2937 C2938 1.362 . S
C2938 H2930 0.930 . S
C2938 C2937 1.362 . S
C2938 C2941 1.409 . S
C2939 H2931 0.930 . S
C2939 C2940 1.355 . S
C2939 C2941 1.415 . S
C2940 C2939 1.355 . S
C2940 C2942 1.419 . S
C2941 C2936 1.425 . S
C2941 C2938 1.409 . S
C2941 C2939 1.415 . S
C2942 H2932 0.930 . S
C2942 C2940 1.419 . S
C2942 C2943 1.362 . S
C2943 H2933 0.930 . S
C2943 C2936 1.409 . S
C2943 C2942 1.362 . S
H2944 C2950 0.930 . S
H2945 C2953 0.930 . S
H2946 C2954 0.930 . S
H2947 C2955 0.930 . S
H2948 C2958 0.930 . S
H2949 C2959 0.930 . S
C2950 H2944 0.930 . S
C2950 C2951 1.355 . S
C2950 C2952 1.415 . S
C2951 C2950 1.355 . S
C2951 C2953 1.419 . S
C2952 C2950 1.415 . S
C2952 C2957 1.425 . S
C2952 C2959 1.409 . S
C2953 H2945 0.930 . S
C2953 C2951 1.419 . S
C2953 C2954 1.362 . S
C2954 H2946 0.930 . S
C2954 C2953 1.362 . S
C2954 C2957 1.409 . S
C2955 H2947 0.930 . S
C2955 C2956 1.355 . S
C2955 C2957 1.415 . S
C2956 C2955 1.355 . S
C2956 C2958 1.419 . S
C2957 C2952 1.425 . S
C2957 C2954 1.409 . S
C2957 C2955 1.415 . S
C2958 H2948 0.930 . S
C2958 C2956 1.419 . S
C2958 C2959 1.362 . S
C2959 H2949 0.930 . S
C2959 C2952 1.409 . S
C2959 C2958 1.362 . S
H2960 C2966 0.930 . S
H2961 C2969 0.930 . S
H2962 C2970 0.930 . S
H2963 C2971 0.930 . S
H2964 C2974 0.930 . S
H2965 C2975 0.930 . S
C2966 H2960 0.930 . S
C2966 C2967 1.355 . S
C2966 C2968 1.415 . S
C2967 C2966 1.355 . S
C2967 C2969 1.419 . S
C2968 C2966 1.415 . S
C2968 C2973 1.425 . S
C2968 C2975 1.409 . S
C2969 H2961 0.930 . S
C2969 C2967 1.419 . S
C2969 C2970 1.362 . S
C2970 H2962 0.930 . S
C2970 C2969 1.362 . S
C2970 C2973 1.409 . S
C2971 H2963 0.930 . S
C2971 C2972 1.355 . S
C2971 C2973 1.415 . S
C2972 C2971 1.355 . S
C2972 C2974 1.419 . S
C2973 C2968 1.425 . S
C2973 C2970 1.409 . S
C2973 C2971 1.415 . S
C2974 H2964 0.930 . S
C2974 C2972 1.419 . S
C2974 C2975 1.362 . S
C2975 H2965 0.930 . S
C2975 C2968 1.409 . S
C2975 C2974 1.362 . S
H2976 C2982 0.930 . S
H2977 C2985 0.930 . S
H2978 C2986 0.930 . S
H2979 C2987 0.930 . S
H2980 C2990 0.930 . S
H2981 C2991 0.930 . S
C2982 H2976 0.930 . S
C2982 C2983 1.355 . S
C2982 C2984 1.415 . S
C2983 C2982 1.355 . S
C2983 C2985 1.419 . S
C2984 C2982 1.415 . S
C2984 C2989 1.425 . S
C2984 C2991 1.409 . S
C2985 H2977 0.930 . S
C2985 C2983 1.419 . S
C2985 C2986 1.362 . S
C2986 H2978 0.930 . S
C2986 C2985 1.362 . S
C2986 C2989 1.409 . S
C2987 H2979 0.930 . S
C2987 C2988 1.355 . S
C2987 C2989 1.415 . S
C2988 C2987 1.355 . S
C2988 C2990 1.419 . S
C2989 C2984 1.425 . S
C2989 C2986 1.409 . S
C2989 C2987 1.415 . S
C2990 H2980 0.930 . S
C2990 C2988 1.419 . S
C2990 C2991 1.362 . S
C2991 H2981 0.930 . S
C2991 C2984 1.409 . S
C2991 C2990 1.362 . S
H2992 C2998 0.930 . S
H2993 C3001 0.930 . S
H2994 C3002 0.930 . S
H2995 C3003 0.930 . S
H2996 C3006 0.930 . S
H2997 C3007 0.930 . S
C2998 H2992 0.930 . S
C2998 C2999 1.355 . S
C2998 C3000 1.415 . S
C2999 C2998 1.355 . S
C2999 C3001 1.419 . S
C3000 C2998 1.415 . S
C3000 C3005 1.425 . S
C3000 C3007 1.409 . S
C3001 H2993 0.930 . S
C3001 C2999 1.419 . S
C3001 C3002 1.362 . S
C3002 H2994 0.930 . S
C3002 C3001 1.362 . S
C3002 C3005 1.409 . S
C3003 H2995 0.930 . S
C3003 C3004 1.355 . S
C3003 C3005 1.415 . S
C3004 C3003 1.355 . S
C3004 C3006 1.419 . S
C3005 C3000 1.425 . S
C3005 C3002 1.409 . S
C3005 C3003 1.415 . S
C3006 H2996 0.930 . S
C3006 C3004 1.419 . S
C3006 C3007 1.362 . S
C3007 H2997 0.930 . S
C3007 C3000 1.409 . S
C3007 C3006 1.362 . S
H3008 C3014 0.930 . S
H3009 C3017 0.930 . S
H3010 C3018 0.930 . S
H3011 C3019 0.930 . S
H3012 C3022 0.930 . S
H3013 C3023 0.930 . S
C3014 H3008 0.930 . S
C3014 C3015 1.355 . S
C3014 C3016 1.415 . S
C3015 C3014 1.355 . S
C3015 C3017 1.419 . S
C3016 C3014 1.415 . S
C3016 C3021 1.425 . S
C3016 C3023 1.409 . S
C3017 H3009 0.930 . S
C3017 C3015 1.419 . S
C3017 C3018 1.362 . S
C3018 H3010 0.930 . S
C3018 C3017 1.362 . S
C3018 C3021 1.409 . S
C3019 H3011 0.930 . S
C3019 C3020 1.355 . S
C3019 C3021 1.415 . S
C3020 C3019 1.355 . S
C3020 C3022 1.419 . S
C3021 C3016 1.425 . S
C3021 C3018 1.409 . S
C3021 C3019 1.415 . S
C3022 H3012 0.930 . S
C3022 C3020 1.419 . S
C3022 C3023 1.362 . S
C3023 H3013 0.930 . S
C3023 C3016 1.409 . S
C3023 C3022 1.362 . S
H3024 C3030 0.930 . S
H3025 C3033 0.930 . S
H3026 C3034 0.930 . S
H3027 C3035 0.930 . S
H3028 C3038 0.930 . S
H3029 C3039 0.930 . S
C3030 H3024 0.930 . S
C3030 C3031 1.355 . S
C3030 C3032 1.415 . S
C3031 C3030 1.355 . S
C3031 C3033 1.419 . S
C3032 C3030 1.415 . S
C3032 C3037 1.425 . S
C3032 C3039 1.409 . S
C3033 H3025 0.930 . S
C3033 C3031 1.419 . S
C3033 C3034 1.362 . S
C3034 H3026 0.930 . S
C3034 C3033 1.362 . S
C3034 C3037 1.409 . S
C3035 H3027 0.930 . S
C3035 C3036 1.355 . S
C3035 C3037 1.415 . S
C3036 C3035 1.355 . S
C3036 C3038 1.419 . S
C3037 C3032 1.425 . S
C3037 C3034 1.409 . S
C3037 C3035 1.415 . S
C3038 H3028 0.930 . S
C3038 C3036 1.419 . S
C3038 C3039 1.362 . S
C3039 H3029 0.930 . S
C3039 C3032 1.409 . S
C3039 C3038 1.362 . S
H3040 C3046 0.930 . S
H3041 C3049 0.930 . S
H3042 C3050 0.930 . S
H3043 C3051 0.930 . S
H3044 C3054 0.930 . S
H3045 C3055 0.930 . S
C3046 H3040 0.930 . S
C3046 C3047 1.355 . S
C3046 C3048 1.415 . S
C3047 C3046 1.355 . S
C3047 C3049 1.419 . S
C3048 C3046 1.415 . S
C3048 C3053 1.425 . S
C3048 C3055 1.409 . S
C3049 H3041 0.930 . S
C3049 C3047 1.419 . S
C3049 C3050 1.362 . S
C3050 H3042 0.930 . S
C3050 C3049 1.362 . S
C3050 C3053 1.409 . S
C3051 H3043 0.930 . S
C3051 C3052 1.355 . S
C3051 C3053 1.415 . S
C3052 C3051 1.355 . S
C3052 C3054 1.419 . S
C3053 C3048 1.425 . S
C3053 C3050 1.409 . S
C3053 C3051 1.415 . S
C3054 H3044 0.930 . S
C3054 C3052 1.419 . S
C3054 C3055 1.362 . S
C3055 H3045 0.930 . S
C3055 C3048 1.409 . S
C3055 C3054 1.362 . S
H3056 C3062 0.930 . S
H3057 C3065 0.930 . S
H3058 C3066 0.930 . S
H3059 C3067 0.930 . S
H3060 C3070 0.930 . S
H3061 C3071 0.930 . S
C3062 H3056 0.930 . S
C3062 C3063 1.355 . S
C3062 C3064 1.415 . S
C3063 C3062 1.355 . S
C3063 C3065 1.419 . S
C3064 C3062 1.415 . S
C3064 C3069 1.425 . S
C3064 C3071 1.409 . S
C3065 H3057 0.930 . S
C3065 C3063 1.419 . S
C3065 C3066 1.362 . S
C3066 H3058 0.930 . S
C3066 C3065 1.362 . S
C3066 C3069 1.409 . S
C3067 H3059 0.930 . S
C3067 C3068 1.355 . S
C3067 C3069 1.415 . S
C3068 C3067 1.355 . S
C3068 C3070 1.419 . S
C3069 C3064 1.425 . S
C3069 C3066 1.409 . S
C3069 C3067 1.415 . S
C3070 H3060 0.930 . S
C3070 C3068 1.419 . S
C3070 C3071 1.362 . S
C3071 H3061 0.930 . S
C3071 C3064 1.409 . S
C3071 C3070 1.362 . S
H3072 C3078 0.930 . S
H3073 C3081 0.930 . S
H3074 C3082 0.930 . S
H3075 C3083 0.930 . S
H3076 C3086 0.930 . S
H3077 C3087 0.930 . S
C3078 H3072 0.930 . S
C3078 C3079 1.355 . S
C3078 C3080 1.415 . S
C3079 C3078 1.355 . S
C3079 C3081 1.419 . S
C3080 C3078 1.415 . S
C3080 C3085 1.425 . S
C3080 C3087 1.409 . S
C3081 H3073 0.930 . S
C3081 C3079 1.419 . S
C3081 C3082 1.362 . S
C3082 H3074 0.930 . S
C3082 C3081 1.362 . S
C3082 C3085 1.409 . S
C3083 H3075 0.930 . S
C3083 C3084 1.355 . S
C3083 C3085 1.415 . S
C3084 C3083 1.355 . S
C3084 C3086 1.419 . S
C3085 C3080 1.425 . S
C3085 C3082 1.409 . S
C3085 C3083 1.415 . S
C3086 H3076 0.930 . S
C3086 C3084 1.419 . S
C3086 C3087 1.362 . S
C3087 H3077 0.930 . S
C3087 C3080 1.409 . S
C3087 C3086 1.362 . S
H3088 C3094 0.930 . S
H3089 C3097 0.930 . S
H3090 C3098 0.930 . S
H3091 C3099 0.930 . S
H3092 C3102 0.930 . S
H3093 C3103 0.930 . S
C3094 H3088 0.930 . S
C3094 C3095 1.355 . S
C3094 C3096 1.415 . S
C3095 C3094 1.355 . S
C3095 C3097 1.419 . S
C3096 C3094 1.415 . S
C3096 C3101 1.425 . S
C3096 C3103 1.409 . S
C3097 H3089 0.930 . S
C3097 C3095 1.419 . S
C3097 C3098 1.362 . S
C3098 H3090 0.930 . S
C3098 C3097 1.362 . S
C3098 C3101 1.409 . S
C3099 H3091 0.930 . S
C3099 C3100 1.355 . S
C3099 C3101 1.415 . S
C3100 C3099 1.355 . S
C3100 C3102 1.419 . S
C3101 C3096 1.425 . S
C3101 C3098 1.409 . S
C3101 C3099 1.415 . S
C3102 H3092 0.930 . S
C3102 C3100 1.419 . S
C3102 C3103 1.362 . S
C3103 H3093 0.930 . S
C3103 C3096 1.409 . S
C3103 C3102 1.362 . S
H3104 C3110 0.930 . S
H3105 C3113 0.930 . S
H3106 C3114 0.930 . S
H3107 C3115 0.930 . S
H3108 C3118 0.930 . S
H3109 C3119 0.930 . S
C3110 H3104 0.930 . S
C3110 C3111 1.355 . S
C3110 C3112 1.415 . S
C3111 C3110 1.355 . S
C3111 C3113 1.419 . S
C3112 C3110 1.415 . S
C3112 C3117 1.425 . S
C3112 C3119 1.409 . S
C3113 H3105 0.930 . S
C3113 C3111 1.419 . S
C3113 C3114 1.362 . S
C3114 H3106 0.930 . S
C3114 C3113 1.362 . S
C3114 C3117 1.409 . S
C3115 H3107 0.930 . S
C3115 C3116 1.355 . S
C3115 C3117 1.415 . S
C3116 C3115 1.355 . S
C3116 C3118 1.419 . S
C3117 C3112 1.425 . S
C3117 C3114 1.409 . S
C3117 C3115 1.415 . S
C3118 H3108 0.930 . S
C3118 C3116 1.419 . S
C3118 C3119 1.362 . S
C3119 H3109 0.930 . S
C3119 C3112 1.409 . S
C3119 C3118 1.362 . S
H3120 C3126 0.930 . S
H3121 C3129 0.930 . S
H3122 C3130 0.930 . S
H3123 C3131 0.930 . S
H3124 C3134 0.930 . S
H3125 C3135 0.930 . S
C3126 H3120 0.930 . S
C3126 C3127 1.355 . S
C3126 C3128 1.415 . S
C3127 C3126 1.355 . S
C3127 C3129 1.419 . S
C3128 C3126 1.415 . S
C3128 C3133 1.425 . S
C3128 C3135 1.409 . S
C3129 H3121 0.930 . S
C3129 C3127 1.419 . S
C3129 C3130 1.362 . S
C3130 H3122 0.930 . S
C3130 C3129 1.362 . S
C3130 C3133 1.409 . S
C3131 H3123 0.930 . S
C3131 C3132 1.355 . S
C3131 C3133 1.415 . S
C3132 C3131 1.355 . S
C3132 C3134 1.419 . S
C3133 C3128 1.425 . S
C3133 C3130 1.409 . S
C3133 C3131 1.415 . S
C3134 H3124 0.930 . S
C3134 C3132 1.419 . S
C3134 C3135 1.362 . S
C3135 H3125 0.930 . S
C3135 C3128 1.409 . S
C3135 C3134 1.362 . S
H3136 C3142 0.930 . S
H3137 C3145 0.930 . S
H3138 C3146 0.930 . S
H3139 C3147 0.930 . S
H3140 C3150 0.930 . S
H3141 C3151 0.930 . S
C3142 H3136 0.930 . S
C3142 C3143 1.355 . S
C3142 C3144 1.415 . S
C3143 C3142 1.355 . S
C3143 C3145 1.419 . S
C3144 C3142 1.415 . S
C3144 C3149 1.425 . S
C3144 C3151 1.409 . S
C3145 H3137 0.930 . S
C3145 C3143 1.419 . S
C3145 C3146 1.362 . S
C3146 H3138 0.930 . S
C3146 C3145 1.362 . S
C3146 C3149 1.409 . S
C3147 H3139 0.930 . S
C3147 C3148 1.355 . S
C3147 C3149 1.415 . S
C3148 C3147 1.355 . S
C3148 C3150 1.419 . S
C3149 C3144 1.425 . S
C3149 C3146 1.409 . S
C3149 C3147 1.415 . S
C3150 H3140 0.930 . S
C3150 C3148 1.419 . S
C3150 C3151 1.362 . S
C3151 H3141 0.930 . S
C3151 C3144 1.409 . S
C3151 C3150 1.362 . S
H3152 C3158 0.930 . S
H3153 C3161 0.930 . S
H3154 C3162 0.930 . S
H3155 C3163 0.930 . S
H3156 C3166 0.930 . S
H3157 C3167 0.930 . S
C3158 H3152 0.930 . S
C3158 C3159 1.355 . S
C3158 C3160 1.415 . S
C3159 C3158 1.355 . S
C3159 C3161 1.419 . S
C3160 C3158 1.415 . S
C3160 C3165 1.425 . S
C3160 C3167 1.409 . S
C3161 H3153 0.930 . S
C3161 C3159 1.419 . S
C3161 C3162 1.362 . S
C3162 H3154 0.930 . S
C3162 C3161 1.362 . S
C3162 C3165 1.409 . S
C3163 H3155 0.930 . S
C3163 C3164 1.355 . S
C3163 C3165 1.415 . S
C3164 C3163 1.355 . S
C3164 C3166 1.419 . S
C3165 C3160 1.425 . S
C3165 C3162 1.409 . S
C3165 C3163 1.415 . S
C3166 H3156 0.930 . S
C3166 C3164 1.419 . S
C3166 C3167 1.362 . S
C3167 H3157 0.930 . S
C3167 C3160 1.409 . S
C3167 C3166 1.362 . S
H3168 C3174 0.930 . S
H3169 C3177 0.930 . S
H3170 C3178 0.930 . S
H3171 C3179 0.930 . S
H3172 C3182 0.930 . S
H3173 C3183 0.930 . S
C3174 H3168 0.930 . S
C3174 C3175 1.355 . S
C3174 C3176 1.415 . S
C3175 C3174 1.355 . S
C3175 C3177 1.419 . S
C3176 C3174 1.415 . S
C3176 C3181 1.425 . S
C3176 C3183 1.409 . S
C3177 H3169 0.930 . S
C3177 C3175 1.419 . S
C3177 C3178 1.362 . S
C3178 H3170 0.930 . S
C3178 C3177 1.362 . S
C3178 C3181 1.409 . S
C3179 H3171 0.930 . S
C3179 C3180 1.355 . S
C3179 C3181 1.415 . S
C3180 C3179 1.355 . S
C3180 C3182 1.419 . S
C3181 C3176 1.425 . S
C3181 C3178 1.409 . S
C3181 C3179 1.415 . S
C3182 H3172 0.930 . S
C3182 C3180 1.419 . S
C3182 C3183 1.362 . S
C3183 H3173 0.930 . S
C3183 C3176 1.409 . S
C3183 C3182 1.362 . S
H3184 C3190 0.930 . S
H3185 C3193 0.930 . S
H3186 C3194 0.930 . S
H3187 C3195 0.930 . S
H3188 C3198 0.930 . S
H3189 C3199 0.930 . S
C3190 H3184 0.930 . S
C3190 C3191 1.355 . S
C3190 C3192 1.415 . S
C3191 C3190 1.355 . S
C3191 C3193 1.419 . S
C3192 C3190 1.415 . S
C3192 C3197 1.425 . S
C3192 C3199 1.409 . S
C3193 H3185 0.930 . S
C3193 C3191 1.419 . S
C3193 C3194 1.362 . S
C3194 H3186 0.930 . S
C3194 C3193 1.362 . S
C3194 C3197 1.409 . S
C3195 H3187 0.930 . S
C3195 C3196 1.355 . S
C3195 C3197 1.415 . S
C3196 C3195 1.355 . S
C3196 C3198 1.419 . S
C3197 C3192 1.425 . S
C3197 C3194 1.409 . S
C3197 C3195 1.415 . S
C3198 H3188 0.930 . S
C3198 C3196 1.419 . S
C3198 C3199 1.362 . S
C3199 H3189 0.930 . S
C3199 C3192 1.409 . S
C3199 C3198 1.362 . S
H3200 C3206 0.930 . S
H3201 C3209 0.930 . S
H3202 C3210 0.930 . S
H3203 C3211 0.930 . S
H3204 C3214 0.930 . S
H3205 C3215 0.930 . S
C3206 H3200 0.930 . S
C3206 C3207 1.355 . S
C3206 C3208 1.415 . S
C3207 C3206 1.355 . S
C3207 C3209 1.419 . S
C3208 C3206 1.415 . S
C3208 C3213 1.425 . S
C3208 C3215 1.409 . S
C3209 H3201 0.930 . S
C3209 C3207 1.419 . S
C3209 C3210 1.362 . S
C3210 H3202 0.930 . S
C3210 C3209 1.362 . S
C3210 C3213 1.409 . S
C3211 H3203 0.930 . S
C3211 C3212 1.355 . S
C3211 C3213 1.415 . S
C3212 C3211 1.355 . S
C3212 C3214 1.419 . S
C3213 C3208 1.425 . S
C3213 C3210 1.409 . S
C3213 C3211 1.415 . S
C3214 H3204 0.930 . S
C3214 C3212 1.419 . S
C3214 C3215 1.362 . S
C3215 H3205 0.930 . S
C3215 C3208 1.409 . S
C3215 C3214 1.362 . S
H3216 C3222 0.930 . S
H3217 C3225 0.930 . S
H3218 C3226 0.930 . S
H3219 C3227 0.930 . S
H3220 C3230 0.930 . S
H3221 C3231 0.930 . S
C3222 H3216 0.930 . S
C3222 C3223 1.355 . S
C3222 C3224 1.415 . S
C3223 C3222 1.355 . S
C3223 C3225 1.419 . S
C3224 C3222 1.415 . S
C3224 C3229 1.425 . S
C3224 C3231 1.409 . S
C3225 H3217 0.930 . S
C3225 C3223 1.419 . S
C3225 C3226 1.362 . S
C3226 H3218 0.930 . S
C3226 C3225 1.362 . S
C3226 C3229 1.409 . S
C3227 H3219 0.930 . S
C3227 C3228 1.355 . S
C3227 C3229 1.415 . S
C3228 C3227 1.355 . S
C3228 C3230 1.419 . S
C3229 C3224 1.425 . S
C3229 C3226 1.409 . S
C3229 C3227 1.415 . S
C3230 H3220 0.930 . S
C3230 C3228 1.419 . S
C3230 C3231 1.362 . S
C3231 H3221 0.930 . S
C3231 C3224 1.409 . S
C3231 C3230 1.362 . S
H3232 C3238 0.930 . S
H3233 C3241 0.930 . S
H3234 C3242 0.930 . S
H3235 C3243 0.930 . S
H3236 C3246 0.930 . S
H3237 C3247 0.930 . S
C3238 H3232 0.930 . S
C3238 C3239 1.355 . S
C3238 C3240 1.415 . S
C3239 C3238 1.355 . S
C3239 C3241 1.419 . S
C3240 C3238 1.415 . S
C3240 C3245 1.425 . S
C3240 C3247 1.409 . S
C3241 H3233 0.930 . S
C3241 C3239 1.419 . S
C3241 C3242 1.362 . S
C3242 H3234 0.930 . S
C3242 C3241 1.362 . S
C3242 C3245 1.409 . S
C3243 H3235 0.930 . S
C3243 C3244 1.355 . S
C3243 C3245 1.415 . S
C3244 C3243 1.355 . S
C3244 C3246 1.419 . S
C3245 C3240 1.425 . S
C3245 C3242 1.409 . S
C3245 C3243 1.415 . S
C3246 H3236 0.930 . S
C3246 C3244 1.419 . S
C3246 C3247 1.362 . S
C3247 H3237 0.930 . S
C3247 C3240 1.409 . S
C3247 C3246 1.362 . S
H3248 C3254 0.930 . S
H3249 C3257 0.930 . S
H3250 C3258 0.930 . S
H3251 C3259 0.930 . S
H3252 C3262 0.930 . S
H3253 C3263 0.930 . S
C3254 H3248 0.930 . S
C3254 C3255 1.355 . S
C3254 C3256 1.415 . S
C3255 C3254 1.355 . S
C3255 C3257 1.419 . S
C3256 C3254 1.415 . S
C3256 C3261 1.425 . S
C3256 C3263 1.409 . S
C3257 H3249 0.930 . S
C3257 C3255 1.419 . S
C3257 C3258 1.362 . S
C3258 H3250 0.930 . S
C3258 C3257 1.362 . S
C3258 C3261 1.409 . S
C3259 H3251 0.930 . S
C3259 C3260 1.355 . S
C3259 C3261 1.415 . S
C3260 C3259 1.355 . S
C3260 C3262 1.419 . S
C3261 C3256 1.425 . S
C3261 C3258 1.409 . S
C3261 C3259 1.415 . S
C3262 H3252 0.930 . S
C3262 C3260 1.419 . S
C3262 C3263 1.362 . S
C3263 H3253 0.930 . S
C3263 C3256 1.409 . S
C3263 C3262 1.362 . S
H3264 C3270 0.930 . S
H3265 C3273 0.930 . S
H3266 C3274 0.930 . S
H3267 C3275 0.930 . S
H3268 C3278 0.930 . S
H3269 C3279 0.930 . S
C3270 H3264 0.930 . S
C3270 C3271 1.355 . S
C3270 C3272 1.415 . S
C3271 C3270 1.355 . S
C3271 C3273 1.419 . S
C3272 C3270 1.415 . S
C3272 C3277 1.425 . S
C3272 C3279 1.409 . S
C3273 H3265 0.930 . S
C3273 C3271 1.419 . S
C3273 C3274 1.362 . S
C3274 H3266 0.930 . S
C3274 C3273 1.362 . S
C3274 C3277 1.409 . S
C3275 H3267 0.930 . S
C3275 C3276 1.355 . S
C3275 C3277 1.415 . S
C3276 C3275 1.355 . S
C3276 C3278 1.419 . S
C3277 C3272 1.425 . S
C3277 C3274 1.409 . S
C3277 C3275 1.415 . S
C3278 H3268 0.930 . S
C3278 C3276 1.419 . S
C3278 C3279 1.362 . S
C3279 H3269 0.930 . S
C3279 C3272 1.409 . S
C3279 C3278 1.362 . S
H3280 C3286 0.930 . S
H3281 C3289 0.930 . S
H3282 C3290 0.930 . S
H3283 C3291 0.930 . S
H3284 C3294 0.930 . S
H3285 C3295 0.930 . S
C3286 H3280 0.930 . S
C3286 C3287 1.355 . S
C3286 C3288 1.415 . S
C3287 C3286 1.355 . S
C3287 C3289 1.419 . S
C3288 C3286 1.415 . S
C3288 C3293 1.425 . S
C3288 C3295 1.409 . S
C3289 H3281 0.930 . S
C3289 C3287 1.419 . S
C3289 C3290 1.362 . S
C3290 H3282 0.930 . S
C3290 C3289 1.362 . S
C3290 C3293 1.409 . S
C3291 H3283 0.930 . S
C3291 C3292 1.355 . S
C3291 C3293 1.415 . S
C3292 C3291 1.355 . S
C3292 C3294 1.419 . S
C3293 C3288 1.425 . S
C3293 C3290 1.409 . S
C3293 C3291 1.415 . S
C3294 H3284 0.930 . S
C3294 C3292 1.419 . S
C3294 C3295 1.362 . S
C3295 H3285 0.930 . S
C3295 C3288 1.409 . S
C3295 C3294 1.362 . S
H3296 C3302 0.930 . S
H3297 C3305 0.930 . S
H3298 C3306 0.930 . S
H3299 C3307 0.930 . S
H3300 C3310 0.930 . S
H3301 C3311 0.930 . S
C3302 H3296 0.930 . S
C3302 C3303 1.355 . S
C3302 C3304 1.415 . S
C3303 C3302 1.355 . S
C3303 C3305 1.419 . S
C3304 C3302 1.415 . S
C3304 C3309 1.425 . S
C3304 C3311 1.409 . S
C3305 H3297 0.930 . S
C3305 C3303 1.419 . S
C3305 C3306 1.362 . S
C3306 H3298 0.930 . S
C3306 C3305 1.362 . S
C3306 C3309 1.409 . S
C3307 H3299 0.930 . S
C3307 C3308 1.355 . S
C3307 C3309 1.415 . S
C3308 C3307 1.355 . S
C3308 C3310 1.419 . S
C3309 C3304 1.425 . S
C3309 C3306 1.409 . S
C3309 C3307 1.415 . S
C3310 H3300 0.930 . S
C3310 C3308 1.419 . S
C3310 C3311 1.362 . S
C3311 H3301 0.930 . S
C3311 C3304 1.409 . S
C3311 C3310 1.362 . S
H3312 C3318 0.930 . S
H3313 C3321 0.930 . S
H3314 C3322 0.930 . S
H3315 C3323 0.930 . S
H3316 C3326 0.930 . S
H3317 C3327 0.930 . S
C3318 H3312 0.930 . S
C3318 C3319 1.355 . S
C3318 C3320 1.415 . S
C3319 C3318 1.355 . S
C3319 C3321 1.419 . S
C3320 C3318 1.415 . S
C3320 C3325 1.425 . S
C3320 C3327 1.409 . S
C3321 H3313 0.930 . S
C3321 C3319 1.419 . S
C3321 C3322 1.362 . S
C3322 H3314 0.930 . S
C3322 C3321 1.362 . S
C3322 C3325 1.409 . S
C3323 H3315 0.930 . S
C3323 C3324 1.355 . S
C3323 C3325 1.415 . S
C3324 C3323 1.355 . S
C3324 C3326 1.419 . S
C3325 C3320 1.425 . S
C3325 C3322 1.409 . S
C3325 C3323 1.415 . S
C3326 H3316 0.930 . S
C3326 C3324 1.419 . S
C3326 C3327 1.362 . S
C3327 H3317 0.930 . S
C3327 C3320 1.409 . S
C3327 C3326 1.362 . S
H3328 C3334 0.930 . S
H3329 C3337 0.930 . S
H3330 C3338 0.930 . S
H3331 C3339 0.930 . S
H3332 C3342 0.930 . S
H3333 C3343 0.930 . S
C3334 H3328 0.930 . S
C3334 C3335 1.355 . S
C3334 C3336 1.415 . S
C3335 C3334 1.355 . S
C3335 C3337 1.419 . S
C3336 C3334 1.415 . S
C3336 C3341 1.425 . S
C3336 C3343 1.409 . S
C3337 H3329 0.930 . S
C3337 C3335 1.419 . S
C3337 C3338 1.362 . S
C3338 H3330 0.930 . S
C3338 C3337 1.362 . S
C3338 C3341 1.409 . S
C3339 H3331 0.930 . S
C3339 C3340 1.355 . S
C3339 C3341 1.415 . S
C3340 C3339 1.355 . S
C3340 C3342 1.419 . S
C3341 C3336 1.425 . S
C3341 C3338 1.409 . S
C3341 C3339 1.415 . S
C3342 H3332 0.930 . S
C3342 C3340 1.419 . S
C3342 C3343 1.362 . S
C3343 H3333 0.930 . S
C3343 C3336 1.409 . S
C3343 C3342 1.362 . S
H3344 C3350 0.930 . S
H3345 C3353 0.930 . S
H3346 C3354 0.930 . S
H3347 C3355 0.930 . S
H3348 C3358 0.930 . S
H3349 C3359 0.930 . S
C3350 H3344 0.930 . S
C3350 C3351 1.355 . S
C3350 C3352 1.415 . S
C3351 C3350 1.355 . S
C3351 C3353 1.419 . S
C3352 C3350 1.415 . S
C3352 C3357 1.425 . S
C3352 C3359 1.409 . S
C3353 H3345 0.930 . S
C3353 C3351 1.419 . S
C3353 C3354 1.362 . S
C3354 H3346 0.930 . S
C3354 C3353 1.362 . S
C3354 C3357 1.409 . S
C3355 H3347 0.930 . S
C3355 C3356 1.355 . S
C3355 C3357 1.415 . S
C3356 C3355 1.355 . S
C3356 C3358 1.419 . S
C3357 C3352 1.425 . S
C3357 C3354 1.409 . S
C3357 C3355 1.415 . S
C3358 H3348 0.930 . S
C3358 C3356 1.419 . S
C3358 C3359 1.362 . S
C3359 H3349 0.930 . S
C3359 C3352 1.409 . S
C3359 C3358 1.362 . S
H3360 C3366 0.930 . S
H3361 C3369 0.930 . S
H3362 C3370 0.930 . S
H3363 C3371 0.930 . S
H3364 C3374 0.930 . S
H3365 C3375 0.930 . S
C3366 H3360 0.930 . S
C3366 C3367 1.355 . S
C3366 C3368 1.415 . S
C3367 C3366 1.355 . S
C3367 C3369 1.419 . S
C3368 C3366 1.415 . S
C3368 C3373 1.425 . S
C3368 C3375 1.409 . S
C3369 H3361 0.930 . S
C3369 C3367 1.419 . S
C3369 C3370 1.362 . S
C3370 H3362 0.930 . S
C3370 C3369 1.362 . S
C3370 C3373 1.409 . S
C3371 H3363 0.930 . S
C3371 C3372 1.355 . S
C3371 C3373 1.415 . S
C3372 C3371 1.355 . S
C3372 C3374 1.419 . S
C3373 C3368 1.425 . S
C3373 C3370 1.409 . S
C3373 C3371 1.415 . S
C3374 H3364 0.930 . S
C3374 C3372 1.419 . S
C3374 C3375 1.362 . S
C3375 H3365 0.930 . S
C3375 C3368 1.409 . S
C3375 C3374 1.362 . S
H3376 C3382 0.930 . S
H3377 C3385 0.930 . S
H3378 C3386 0.930 . S
H3379 C3387 0.930 . S
H3380 C3390 0.930 . S
H3381 C3391 0.930 . S
C3382 H3376 0.930 . S
C3382 C3383 1.355 . S
C3382 C3384 1.415 . S
C3383 C3382 1.355 . S
C3383 C3385 1.419 . S
C3384 C3382 1.415 . S
C3384 C3389 1.425 . S
C3384 C3391 1.409 . S
C3385 H3377 0.930 . S
C3385 C3383 1.419 . S
C3385 C3386 1.362 . S
C3386 H3378 0.930 . S
C3386 C3385 1.362 . S
C3386 C3389 1.409 . S
C3387 H3379 0.930 . S
C3387 C3388 1.355 . S
C3387 C3389 1.415 . S
C3388 C3387 1.355 . S
C3388 C3390 1.419 . S
C3389 C3384 1.425 . S
C3389 C3386 1.409 . S
C3389 C3387 1.415 . S
C3390 H3380 0.930 . S
C3390 C3388 1.419 . S
C3390 C3391 1.362 . S
C3391 H3381 0.930 . S
C3391 C3384 1.409 . S
C3391 C3390 1.362 . S
H3392 C3398 0.930 . S
H3393 C3401 0.930 . S
H3394 C3402 0.930 . S
H3395 C3403 0.930 . S
H3396 C3406 0.930 . S
H3397 C3407 0.930 . S
C3398 H3392 0.930 . S
C3398 C3399 1.355 . S
C3398 C3400 1.415 . S
C3399 C3398 1.355 . S
C3399 C3401 1.419 . S
C3400 C3398 1.415 . S
C3400 C3405 1.425 . S
C3400 C3407 1.409 . S
C3401 H3393 0.930 . S
C3401 C3399 1.419 . S
C3401 C3402 1.362 . S
C3402 H3394 0.930 . S
C3402 C3401 1.362 . S
C3402 C3405 1.409 . S
C3403 H3395 0.930 . S
C3403 C3404 1.355 . S
C3403 C3405 1.415 . S
C3404 C3403 1.355 . S
C3404 C3406 1.419 . S
C3405 C3400 1.425 . S
C3405 C3402 1.409 . S
C3405 C3403 1.415 . S
C3406 H3396 0.930 . S
C3406 C3404 1.419 . S
C3406 C3407 1.362 . S
C3407 H3397 0.930 . S
C3407 C3400 1.409 . S
C3407 C3406 1.362 . S
C1111 C157 1.763 . S
C1116 C19 1.752 . S
C1127 C180 1.726 . S
C1132 C41 1.782 . S
C1143 C111 1.772 . S
C1148 C65 1.774 . S
C1159 C134 1.765 . S
C1164 C87 1.794 . S
C1175 C248 1.796 . S
C1180 C203 1.764 . S
C1191 C272 1.759 . S
C1196 C226 1.754 . S
C1207 C341 1.712 . S
C1212 C295 1.715 . S
C1223 C364 1.702 . S
C1228 C318 1.699 . S
C1239 C410 1.712 . S
C1244 C387 1.702 . S
C1255 C548 1.748 . S
C1260 C433 1.759 . S
C1271 C502 1.752 . S
C1276 C456 1.752 . S
C1287 C479 1.723 . S
C1292 C525 1.720 . S
C1303 C571 1.763 . S
C1308 C709 1.751 . S
C1319 C593 1.800 . S
C1324 C732 1.757 . S
C1335 C617 1.766 . S
C1340 C663 1.773 . S
C1351 C639 1.794 . S
C1356 C686 1.742 . S
C1367 C755 1.718 . S
C1372 C800 1.786 . S
C1383 C778 1.730 . S
C1388 C824 1.744 . S
C1399 C847 1.716 . S
C1404 C893 1.712 . S
C1415 C916 1.746 . S
C1420 C870 1.733 . S
C1431 C939 1.754 . S
C1436 C962 1.748 . S
C1447 C1100 1.716 . S
C1452 C985 1.711 . S
C1463 C1008 1.747 . S
C1468 C1054 1.736 . S
C1479 C1031 1.723 . S
C1484 C1077 1.720 . S
C1495 C20 1.686 . S
C1500 C227 1.688 . S
C1511 C44 1.665 . S
C1516 C251 1.686 . S
C1527 C66 1.696 . S
C1532 C273 1.695 . S
C1543 C204 1.720 . S
C1548 C90 1.689 . S
C1559 C365 1.733 . S
C1564 C112 1.732 . S
C1575 C296 1.695 . S
C1580 C135 1.697 . S
C1591 C319 1.729 . S
C1596 C158 1.725 . S
C1607 C181 1.713 . S
C1612 C342 1.713 . S
C1623 C434 1.714 . S
C1628 C388 1.712 . S
C1639 C526 1.709 . S
C1644 C411 1.711 . S
C1655 C457 1.689 . S
C1660 C549 1.689 . S
C1671 C503 1.697 . S
C1676 C480 1.698 . S
C1687 C572 1.678 . S
C1692 C779 1.680 . S
C1703 C803 1.693 . S
C1708 C596 1.709 . S
C1719 C825 1.685 . S
C1724 C618 1.683 . S
C1735 C642 1.658 . S
C1740 C756 1.708 . S
C1751 C917 1.714 . S
C1756 C664 1.713 . S
C1767 C687 1.699 . S
C1772 C848 1.701 . S
C1783 C710 1.722 . S
C1788 C871 1.720 . S
C1799 C733 1.703 . S
C1804 C894 1.701 . S
C1815 C940 1.720 . S
C1820 C986 1.722 . S
C1831 C1078 1.715 . S
C1836 C963 1.717 . S
C1847 C1101 1.705 . S
C1852 C1009 1.707 . S
C1863 C1032 1.713 . S
C1868 C1055 1.711 . S
C1879 C16 1.446 . S
C1884 C89 1.450 . S
C1895 C21 1.392 . S
C1900 C40 1.427 . S
C1911 C62 1.434 . S
C1916 C43 1.444 . S
C1927 C86 1.435 . S
C1932 C67 1.348 . S
C1943 C136 1.433 . S
C1948 C108 1.477 . S
C1959 C159 1.377 . S
C1964 C131 1.440 . S
C1975 C154 1.469 . S
C1980 C182 1.358 . S
C1991 C113 1.421 . S
C1996 C177 1.439 . S
C2007 C200 1.454 . S
C2012 C435 1.440 . S
C2023 C223 1.453 . S
C2028 C458 1.414 . S
C2039 C247 1.433 . S
C2044 C481 1.425 . S
C2055 C269 1.464 . S
C2060 C412 1.397 . S
C2071 C292 1.437 . S
C2076 C527 1.387 . S
C2087 C389 1.341 . S
C2092 C315 1.466 . S
C2103 C550 1.432 . S
C2108 C338 1.443 . S
C2119 C361 1.458 . S
C2124 C504 1.402 . S
C2135 C384 1.471 . S
C2140 C228 1.346 . S
C2151 C407 1.460 . S
C2156 C366 1.334 . S
C2167 C430 1.460 . S
C2172 C297 1.339 . S
C2183 C320 1.334 . S
C2188 C453 1.457 . S
C2199 C343 1.433 . S
C2204 C476 1.445 . S
C2215 C274 1.350 . S
C2220 C499 1.469 . S
C2231 C205 1.356 . S
C2236 C522 1.483 . S
C2247 C545 1.453 . S
C2252 C250 1.446 . S
C2263 C568 1.440 . S
C2268 C641 1.381 . S
C2279 C592 1.435 . S
C2284 C573 1.364 . S
C2295 C595 1.440 . S
C2300 C614 1.468 . S
C2311 C619 1.392 . S
C2316 C638 1.466 . S
C2327 C660 1.448 . S
C2332 C688 1.410 . S
C2343 C711 1.432 . S
C2348 C683 1.459 . S
C2359 C734 1.399 . S
C2364 C706 1.451 . S
C2375 C729 1.463 . S
C2380 C665 1.342 . S
C2391 C752 1.445 . S
C2396 C987 1.429 . S
C2407 C1010 1.352 . S
C2412 C775 1.467 . S
C2423 C1033 1.366 . S
C2428 C799 1.477 . S
C2439 C821 1.447 . S
C2444 C964 1.336 . S
C2455 C1079 1.434 . S
C2460 C844 1.451 . S
C2471 C867 1.428 . S
C2476 C941 1.377 . S
C2487 C890 1.473 . S
C2492 C1102 1.396 . S
C2503 C913 1.439 . S
C2508 C1056 1.423 . S
C2519 C780 1.404 . S
C2524 C936 1.469 . S
C2535 C918 1.369 . S
C2540 C959 1.470 . S
C2551 C849 1.346 . S
C2556 C982 1.450 . S
C2567 C1005 1.469 . S
C2572 C872 1.347 . S
C2583 C895 1.425 . S
C2588 C1028 1.471 . S
C2599 C1051 1.428 . S
C2604 C826 1.384 . S
C2615 C1074 1.477 . S
C2620 C757 1.444 . S
C2631 C802 1.445 . S
C2636 C1097 1.435 . S
C2647 C18 1.088 . S
C2652 C1030 1.032 . S
C2663 C961 1.082 . S
C2668 C42 0.966 . S
C2679 C64 1.076 . S
C2684 C984 1.085 . S
C2695 C88 1.052 . S
C2700 C1007 1.048 . S
C2711 C110 0.976 . S
C2716 C1099 1.000 . S
C2727 C133 1.034 . S
C2732 C1053 1.080 . S
C2743 C156 1.061 . S
C2748 C1076 0.996 . S
C2759 C179 0.964 . S
C2764 C938 1.004 . S
C2775 C202 1.058 . S
C2780 C915 1.077 . S
C2791 C225 1.085 . S
C2796 C846 1.066 . S
C2807 C249 0.950 . S
C2812 C869 1.002 . S
C2823 C271 1.084 . S
C2828 C892 1.065 . S
C2839 C294 1.079 . S
C2844 C777 1.019 . S
C2855 C317 0.977 . S
C2860 C801 1.056 . S
C2871 C340 1.086 . S
C2876 C823 1.057 . S
C2887 C363 0.994 . S
C2892 C754 1.058 . S
C2903 C386 1.005 . S
C2908 C731 0.964 . S
C2919 C409 0.970 . S
C2924 C594 1.026 . S
C2935 C432 0.999 . S
C2940 C616 0.986 . S
C2951 C455 0.968 . S
C2956 C640 1.019 . S
C2967 C478 1.082 . S
C2972 C570 1.086 . S
C2983 C501 0.993 . S
C2988 C685 1.058 . S
C2999 C524 1.078 . S
C3004 C708 1.068 . S
C3015 C547 1.046 . S
C3020 C662 1.085 . S
C3031 C109 0.973 . S
C3036 C983 0.910 . S
C3047 C132 0.978 . S
C3052 C1006 0.913 . S
C3063 C155 0.963 . S
C3068 C1029 1.000 . S
C3079 C178 0.947 . S
C3084 C960 0.996 . S
C3095 C17 0.934 . S
C3100 C1075 0.997 . S
C3111 C39 1.008 . S
C3116 C937 0.948 . S
C3127 C63 0.966 . S
C3132 C1098 0.907 . S
C3143 C1052 0.968 . S
C3148 C85 0.942 . S
C3159 C339 0.916 . S
C3164 C776 0.984 . S
C3175 C362 0.944 . S
C3180 C798 1.003 . S
C3191 C293 0.984 . S
C3196 C822 0.917 . S
C3207 C316 0.939 . S
C3212 C753 0.917 . S
C3223 C246 1.028 . S
C3228 C914 0.968 . S
C3239 C270 0.998 . S
C3244 C845 0.942 . S
C3255 C201 0.945 . S
C3260 C868 0.914 . S
C3271 C224 0.942 . S
C3276 C891 0.914 . S
C3287 C500 1.011 . S
C3292 C637 1.017 . S
C3303 C454 0.921 . S
C3308 C684 0.933 . S
C3319 C477 0.913 . S
C3324 C707 0.962 . S
C3335 C408 0.932 . S
C3340 C730 0.994 . S
C3351 C431 0.936 . S
C3356 C661 0.995 . S
C3367 C385 0.992 . S
C3372 C591 0.942 . S
C3383 C546 0.920 . S
C3388 C615 0.988 . S
C3399 C523 0.935 . S
C3404 C569 0.997 . S
