# Generated by pormake.
# Topology tfs, (6)-cn, num edge types: 1
# Building blocks:
#     Node 0, Type 0, BuildingBlock: BETDEL_clean_sbu_0, # of connection points: 6
#     Node 1, Type 0, BuildingBlock: BETDEL_clean_sbu_0, # of connection points: 6
#     Node 2, Type 0, BuildingBlock: BETDEL_clean_sbu_0, # of connection points: 6
#     Node 3, Type 0, BuildingBlock: BETDEL_clean_sbu_0, # of connection points: 6
#     Node 4, Type 0, BuildingBlock: BETDEL_clean_sbu_0, # of connection points: 6
#     Node 5, Type 0, BuildingBlock: BETDEL_clean_sbu_0, # of connection points: 6
#     Edge 6, Type (0, 0), BuildingBlock: XIVTED_clean_linker_0, # of connection points: 2
#     Edge 7, Type (0, 0), BuildingBlock: XIVTED_clean_linker_0, # of connection points: 2
#     Edge 8, Type (0, 0), BuildingBlock: XIVTED_clean_linker_0, # of connection points: 2
#     Edge 9, Type (0, 0), BuildingBlock: XIVTED_clean_linker_0, # of connection points: 2
#     Edge 10, Type (0, 0), BuildingBlock: XIVTED_clean_linker_0, # of connection points: 2
#     Edge 11, Type (0, 0), BuildingBlock: XIVTED_clean_linker_0, # of connection points: 2
#     Edge 12, Type (0, 0), BuildingBlock: XIVTED_clean_linker_0, # of connection points: 2
#     Edge 13, Type (0, 0), BuildingBlock: XIVTED_clean_linker_0, # of connection points: 2
#     Edge 14, Type (0, 0), BuildingBlock: XIVTED_clean_linker_0, # of connection points: 2
#     Edge 15, Type (0, 0), BuildingBlock: XIVTED_clean_linker_0, # of connection points: 2
#     Edge 16, Type (0, 0), BuildingBlock: XIVTED_clean_linker_0, # of connection points: 2
#     Edge 17, Type (0, 0), BuildingBlock: XIVTED_clean_linker_0, # of connection points: 2
#     Edge 18, Type (0, 0), BuildingBlock: XIVTED_clean_linker_0, # of connection points: 2
#     Edge 19, Type (0, 0), BuildingBlock: XIVTED_clean_linker_0, # of connection points: 2
#     Edge 20, Type (0, 0), BuildingBlock: XIVTED_clean_linker_0, # of connection points: 2
#     Edge 21, Type (0, 0), BuildingBlock: XIVTED_clean_linker_0, # of connection points: 2
#     Edge 22, Type (0, 0), BuildingBlock: XIVTED_clean_linker_0, # of connection points: 2
#     Edge 23, Type (0, 0), BuildingBlock: XIVTED_clean_linker_0, # of connection points: 2
# Relax obj value: 0.431
# Max RMSD: 0.278
# Mean RMSD: 0.254
data_MOF--net-tfs--node1-BETDEL_clean_sbu_0--edge1-XIVTED_clean_linker_0
_symmetry_space_group_name_H-M    P1
_symmetry_Int_Tables_number       1
_symmetry_cell_setting            triclinic
loop_
_symmetry_equiv_pos_as_xyz
'x, y, z'
_cell_length_a     45.355452
_cell_length_b     44.548869
_cell_length_c     14.626048
_cell_angle_alpha  90.247563
_cell_angle_beta   91.367876
_cell_angle_gamma 122.10863
loop_
_atom_site_label
_atom_site_type_symbol
_atom_site_fract_x
_atom_site_fract_y
_atom_site_fract_z
_atom_type_partial_charge
Dy0 Dy 0.16859 0.4555 0.24461 0.0
C1 C 0.19186 0.34599 0.15284 0.0
C2 C 0.16933 0.51538 0.29079 0.0
Dy3 Dy 0.18197 0.398 0.21181 0.0
O4 O 0.19535 0.51425 0.26114 0.0
O5 O 0.1425 0.48334 0.29805 0.0
O6 O 0.15213 0.45435 0.09919 0.0
O7 O 0.19007 0.44229 0.12869 0.0
C8 C 0.17056 0.44282 0.0664 0.0
C9 C 0.1814 0.41223 0.39004 0.0
O10 O 0.23643 0.44402 0.21515 0.0
O11 O 0.22359 0.4795 0.298 0.0
O12 O 0.17555 0.34456 0.22594 0.0
O13 O 0.20197 0.37543 0.11124 0.0
O14 O 0.20126 0.4026 0.35574 0.0
O15 O 0.16073 0.41156 0.32909 0.0
O16 O 0.11352 0.4101 0.23058 0.0
O17 O 0.12727 0.37272 0.15972 0.0
C18 C 0.24645 0.47279 0.26505 0.0
C19 C 0.10453 0.38134 0.18111 0.0
Dy20 Dy 0.73733 0.17084 0.8932 0.0
C21 C 0.88485 0.25299 0.81922 0.0
C22 C 0.66864 0.14011 0.9255 0.0
Dy23 Dy 0.81759 0.21521 0.87334 0.0
O24 O 0.68308 0.15312 0.8483 0.0
O25 O 0.69187 0.14416 0.98656 0.0
O26 O 0.73254 0.14642 0.75552 0.0
O27 O 0.77288 0.19928 0.78126 0.0
C28 C 0.75977 0.17406 0.72318 0.0
C29 C 0.80336 0.20475 0.05216 0.0
O30 O 0.80742 0.25916 0.88395 0.0
O31 O 0.74874 0.22545 0.91951 0.0
O32 O 0.86434 0.26496 0.82385 0.0
O33 O 0.86748 0.21951 0.83801 0.0
O34 O 0.83471 0.22263 0.02222 0.0
O35 O 0.78234 0.19405 0.98467 0.0
O36 O 0.75068 0.13128 0.92785 0.0
O37 O 0.80249 0.15848 0.84943 0.0
C38 C 0.77811 0.25632 0.90879 0.0
C39 C 0.77666 0.13076 0.89072 0.0
Dy40 Dy 0.53207 0.74186 0.13779 0.0
C41 C 0.63738 0.88604 0.03588 0.0
C42 C 0.48213 0.67957 0.20979 0.0
Dy43 Dy 0.58917 0.82202 0.10347 0.0
O44 O 0.49811 0.6825 0.13482 0.0
O45 O 0.49338 0.71068 0.24548 0.0
O46 O 0.53418 0.72762 0.99205 0.0
O47 O 0.54554 0.77877 0.023 0.0
C48 C 0.54566 0.75903 0.96041 0.0
C49 C 0.5864 0.80632 0.28492 0.0
O50 O 0.54054 0.8245 0.10206 0.0
O51 O 0.5006 0.76708 0.15007 0.0
O52 O 0.62847 0.85574 0.99821 0.0
O53 O 0.6193 0.88118 0.10789 0.0
O54 O 0.60673 0.83782 0.2534 0.0
O55 O 0.57089 0.78662 0.21635 0.0
O56 O 0.58151 0.74273 0.16013 0.0
O57 O 0.6163 0.79285 0.07464 0.0
C58 C 0.50907 0.7998 0.13032 0.0
C59 C 0.60999 0.76314 0.11341 0.0
Dy60 Dy 0.77249 0.53501 0.03494 0.0
C61 C 0.7441 0.64603 0.01919 0.0
C62 C 0.77325 0.47417 0.04429 0.0
Dy63 Dy 0.75596 0.59162 0.02783 0.0
O64 O 0.75117 0.47827 0.99719 0.0
O65 O 0.79514 0.50346 0.08873 0.0
O66 O 0.79779 0.55143 0.90064 0.0
O67 O 0.75478 0.55565 0.92439 0.0
C68 C 0.77813 0.56209 0.86875 0.0
C69 C 0.74991 0.56383 0.19353 0.0
O70 O 0.703 0.54297 0.99463 0.0
O71 O 0.71584 0.50521 0.06704 0.0
O72 O 0.75997 0.6405 0.08552 0.0
O73 O 0.73601 0.62259 0.95417 0.0
O74 O 0.72918 0.57291 0.16001 0.0
O75 O 0.77365 0.571 0.13851 0.0
O76 O 0.82576 0.58109 0.06581 0.0
O77 O 0.81478 0.62287 0.00889 0.0
C78 C 0.69301 0.5117 0.03001 0.0
C79 C 0.83694 0.61344 0.03668 0.0
Dy80 Dy 0.24554 0.82705 0.12905 0.0
C81 C 0.09826 0.769 0.02448 0.0
C82 C 0.31013 0.83833 0.17443 0.0
Dy83 Dy 0.16524 0.79739 0.09295 0.0
O84 O 0.30348 0.85385 0.10961 0.0
O85 O 0.2817 0.81802 0.21804 0.0
O86 O 0.25649 0.84879 0.9887 0.0
O87 O 0.20799 0.80283 0.01142 0.0
C88 C 0.22606 0.82604 0.95329 0.0
C89 C 0.18058 0.80694 0.27441 0.0
O90 O 0.16288 0.74627 0.11565 0.0
O91 O 0.22235 0.76889 0.13635 0.0
O92 O 0.1172 0.75535 0.01413 0.0
O93 O 0.11672 0.79924 0.06813 0.0
O94 O 0.14961 0.7946 0.23935 0.0
O95 O 0.20091 0.81347 0.20986 0.0
O96 O 0.24209 0.87375 0.16443 0.0
O97 O 0.19407 0.8563 0.06656 0.0
C98 C 0.18944 0.74222 0.13287 0.0
C99 C 0.22183 0.88113 0.11504 0.0
Dy100 Dy 0.43248 0.19651 0.02334 0.0
C101 C 0.34386 0.25043 0.09683 0.0
C102 C 0.47837 0.17654 0.99452 0.0
Dy103 Dy 0.38316 0.22447 0.04415 0.0
O104 O 0.47994 0.19596 0.06306 0.0
O105 O 0.45237 0.16902 0.93908 0.0
O106 O 0.41483 0.17108 0.15932 0.0
O107 O 0.41916 0.21974 0.13654 0.0
C108 C 0.4103 0.19522 0.19293 0.0
C109 C 0.38853 0.21348 0.86492 0.0
O110 O 0.43615 0.27456 0.06161 0.0
O111 O 0.46861 0.25426 0.99505 0.0
O112 O 0.37084 0.26662 0.04594 0.0
O113 O 0.33875 0.22006 0.12219 0.0
O114 O 0.36829 0.22345 0.89418 0.0
O115 O 0.40301 0.20916 0.93304 0.0
O116 O 0.38087 0.14793 0.98918 0.0
O117 O 0.34801 0.16551 0.0658 0.0
C118 C 0.46541 0.28037 0.0261 0.0
C119 C 0.35156 0.14062 0.02687 0.0
H120 H 0.34842 0.30785 0.02168 0.0
H121 H 0.18536 0.2915 0.25488 0.0
H122 H 0.28388 0.21974 0.19498 0.0
H123 H 0.23 0.34965 0.00883 0.0
H124 H 0.2199 0.26415 0.2393 0.0
H125 H 0.30602 0.32523 0.02615 0.0
C126 C 0.32536 0.2923 0.06144 0.0
C127 C 0.31959 0.26238 0.10826 0.0
C128 C 0.22154 0.28236 0.18791 0.0
C129 C 0.27066 0.28197 0.11299 0.0
C130 C 0.20177 0.2978 0.19644 0.0
C131 C 0.2053 0.32313 0.13356 0.0
C132 C 0.24508 0.29281 0.1167 0.0
C133 C 0.22685 0.3305 0.05925 0.0
C134 C 0.30096 0.30203 0.06316 0.0
C135 C 0.28922 0.24309 0.1583 0.0
N136 N 0.24634 0.31582 0.05365 0.0
N137 N 0.26579 0.25334 0.15981 0.0
H138 H 0.05756 0.40176 0.15666 0.0
H139 H 0.92428 0.32524 0.82884 0.0
H140 H 0.07471 0.31774 0.0905 0.0
H141 H 0.93056 0.23242 0.85695 0.0
H142 H 0.97957 0.35997 0.91403 0.0
H143 H 0.00738 0.3749 0.05063 0.0
C144 C 0.05055 0.37746 0.12053 0.0
C145 C 0.07043 0.36205 0.13226 0.0
C146 C 0.96892 0.33203 0.90193 0.0
C147 C 0.01419 0.33216 0.00669 0.0
C148 C 0.93776 0.31237 0.85114 0.0
C149 C 0.92254 0.27579 0.83777 0.0
C150 C 0.98459 0.31472 0.93992 0.0
C151 C 0.94122 0.2605 0.86702 0.0
C152 C 0.02236 0.36257 0.05803 0.0
C153 C 0.06024 0.33066 0.08327 0.0
N154 N 0.97102 0.27994 0.91825 0.0
N155 N 0.03289 0.31682 0.02255 0.0
H156 H 0.75341 0.07984 0.7577 0.0
H157 H 0.67441 0.94376 0.14527 0.0
H158 H 0.79191 0.10463 0.037 0.0
H159 H 0.66644 0.90728 0.86693 0.0
H160 H 0.72095 0.00261 0.10317 0.0
H161 H 0.72708 0.01655 0.78828 0.0
C162 C 0.75783 0.07195 0.82406 0.0
C163 C 0.77492 0.09712 0.895 0.0
C164 C 0.70947 0.98178 0.05114 0.0
C165 C 0.7438 0.02539 0.93154 0.0
C166 C 0.68261 0.94825 0.07504 0.0
C167 C 0.66639 0.92094 0.00907 0.0
C168 C 0.71964 0.98844 0.95986 0.0
C169 C 0.67829 0.92792 0.91941 0.0
C170 C 0.74251 0.03589 0.84183 0.0
C171 C 0.77913 0.08582 0.98058 0.0
N172 N 0.70386 0.96133 0.89674 0.0
N173 N 0.76302 0.05069 0.99708 0.0
H174 H 0.74369 0.68001 0.17306 0.0
H175 H 0.6484 0.77197 0.9628 0.0
H176 H 0.71206 0.66452 0.88761 0.0
H177 H 0.62596 0.72559 0.22992 0.0
H178 H 0.68445 0.74682 0.93525 0.0
H179 H 0.7139 0.71174 0.19543 0.0
C180 C 0.731 0.68382 0.11459 0.0
C181 C 0.73028 0.66949 0.02826 0.0
C182 C 0.6718 0.74245 1.0 0.0
C183 C 0.69632 0.70609 0.05369 0.0
C184 C 0.6515 0.75698 0.01613 0.0
C185 C 0.63424 0.75089 0.09893 0.0
C186 C 0.67563 0.72259 0.06817 0.0
C187 C 0.63875 0.73086 0.16516 0.0
C188 C 0.71382 0.70173 0.12772 0.0
C189 C 0.71321 0.67512 0.95523 0.0
N190 N 0.6592 0.71767 0.14865 0.0
N191 N 0.6969 0.69308 0.96951 0.0
H192 H 0.05357 0.79222 0.05141 0.0
H193 H 0.88621 0.59622 0.03429 0.0
H194 H 0.05514 0.7003 0.96662 0.0
H195 H 0.87563 0.68681 0.02019 0.0
H196 H 0.94878 0.6352 0.0204 0.0
H197 H 0.98944 0.75591 0.04746 0.0
C198 C 0.04045 0.76457 0.03055 0.0
C199 C 0.05979 0.74928 0.00928 0.0
C200 C 0.93291 0.64671 0.02008 0.0
C201 C 0.98653 0.70747 0.0067 0.0
C202 C 0.89701 0.62442 0.02873 0.0
C203 C 0.87536 0.63814 0.02901 0.0
C204 C 0.9479 0.6834 0.01286 0.0
C205 C 0.89122 0.67501 0.02041 0.0
C206 C 0.00386 0.74386 0.02857 0.0
C207 C 0.04139 0.71327 0.98339 0.0
N208 N 0.92657 0.69642 0.01351 0.0
N209 N 0.00597 0.69361 0.98389 0.0
H210 H 0.255 0.93437 0.24379 0.0
H211 H 0.32995 0.08823 0.89782 0.0
H212 H 0.21534 0.91374 0.96478 0.0
H213 H 0.31196 0.107 0.17434 0.0
H214 H 0.29143 0.02423 0.91967 0.0
H215 H 0.27979 0.99793 0.22144 0.0
C216 C 0.25117 0.94321 0.17821 0.0
C217 C 0.23308 0.91882 0.10604 0.0
C218 C 0.29541 0.04239 0.97496 0.0
C219 C 0.26204 0.99135 0.07948 0.0
C220 C 0.31734 0.07883 0.96257 0.0
C221 C 0.3239 0.10282 0.03424 0.0
C222 C 0.28092 0.02983 0.06065 0.0
C223 C 0.30722 0.08933 0.11712 0.0
C224 C 0.26518 0.97939 0.16566 0.0
C225 C 0.22889 0.93166 0.02237 0.0
N226 N 0.28704 0.05364 0.12879 0.0
N227 N 0.24386 0.96714 0.01077 0.0
H228 H 0.12685 0.67987 0.16505 0.0
H229 H 0.22521 0.58163 0.31264 0.0
H230 H 0.23764 0.72404 0.15479 0.0
H231 H 0.11375 0.52393 0.26909 0.0
H232 H 0.22804 0.63653 0.28 0.0
H233 H 0.11938 0.62396 0.21894 0.0
C234 C 0.14949 0.67779 0.1732 0.0
C235 C 0.18293 0.70683 0.15551 0.0
C236 C 0.20281 0.61201 0.27835 0.0
C237 C 0.17464 0.64358 0.21877 0.0
C238 C 0.20119 0.5807 0.29793 0.0
C239 C 0.16925 0.54834 0.29306 0.0
C240 C 0.17228 0.61104 0.25248 0.0
C241 C 0.13887 0.54852 0.27377 0.0
C242 C 0.14521 0.64601 0.20455 0.0
C243 C 0.21134 0.70265 0.16788 0.0
N244 N 0.14114 0.57947 0.25281 0.0
N245 N 0.20651 0.67184 0.19897 0.0
H246 H 0.48171 0.1387 0.852 0.0
H247 H 0.64011 0.13573 0.09083 0.0
H248 H 0.5248 0.18094 0.12207 0.0
H249 H 0.61648 0.12138 0.80062 0.0
H250 H 0.58589 0.13397 0.11404 0.0
H251 H 0.52048 0.11606 0.8424 0.0
C252 C 0.49927 0.14307 0.90919 0.0
C253 C 0.50076 0.16224 0.98708 0.0
C254 C 0.59224 0.13043 0.04552 0.0
C255 C 0.54429 0.13607 0.97757 0.0
C256 C 0.62297 0.13117 0.03246 0.0
C257 C 0.63283 0.12948 0.94363 0.0
C258 C 0.57161 0.12794 0.96909 0.0
C259 C 0.60988 0.12346 0.87006 0.0
C260 C 0.52114 0.13001 0.90401 0.0
C261 C 0.52342 0.16682 0.06009 0.0
N262 N 0.58049 0.12348 0.88421 0.0
N263 N 0.54451 0.15401 0.05335 0.0
H264 H 0.43985 0.67085 0.34991 0.0
H265 H 0.30108 0.47057 0.19818 0.0
H266 H 0.45655 0.61301 0.14161 0.0
H267 H 0.27735 0.53473 0.36566 0.0
H268 H 0.36243 0.51788 0.2062 0.0
H269 H 0.38488 0.61656 0.38535 0.0
C270 C 0.43217 0.64654 0.31278 0.0
C271 C 0.45228 0.64632 0.24186 0.0
C272 C 0.34384 0.52142 0.24208 0.0
C273 C 0.38973 0.58451 0.28143 0.0
C274 C 0.30879 0.49441 0.2376 0.0
C275 C 0.28396 0.499 0.27985 0.0
C276 C 0.3541 0.55321 0.28904 0.0
C277 C 0.29554 0.53029 0.33084 0.0
C278 C 0.40083 0.61565 0.33281 0.0
C279 C 0.44145 0.61426 0.19608 0.0
N280 N 0.32977 0.55641 0.33313 0.0
N281 N 0.41065 0.58464 0.21597 0.0
H282 H 0.82801 0.46591 0.08679 0.0
H283 H 0.72159 0.26229 0.92235 0.0
H284 H 0.72155 0.40938 0.9844 0.0
H285 H 0.83393 0.3242 0.94371 0.0
H286 H 0.72077 0.31472 0.96428 0.0
H287 H 0.83021 0.41266 0.05594 0.0
C288 C 0.80502 0.44215 0.0592 0.0
C289 C 0.77456 0.44188 0.038 0.0
C290 C 0.74566 0.31696 0.9596 0.0
C291 C 0.77688 0.38145 1.00238 0.0
C292 C 0.74616 0.28697 0.93558 0.0
C293 C 0.7779 0.28882 0.92904 0.0
C294 C 0.77709 0.34918 0.97822 0.0
C295 C 0.80888 0.32164 0.94713 0.0
C296 C 0.80636 0.41198 0.04089 0.0
C297 C 0.74557 0.41068 1.00153 0.0
N298 N 0.80772 0.35056 0.97131 0.0
N299 N 0.74745 0.38178 0.98491 0.0
H300 H 0.32225 0.79502 0.27966 0.0
H301 H 0.50849 0.85829 0.06941 0.0
H302 H 0.37086 0.87827 0.08313 0.0
H303 H 0.44692 0.76118 0.2159 0.0
H304 H 0.46227 0.8708 0.08791 0.0
H305 H 0.37205 0.78771 0.27367 0.0
C306 C 0.34368 0.81219 0.23641 0.0
C307 C 0.34237 0.83732 0.18192 0.0
C308 C 0.45898 0.8468 0.11604 0.0
C309 C 0.39948 0.82883 0.17373 0.0
C310 C 0.48539 0.83963 0.10555 0.0
C311 C 0.48168 0.80849 0.14052 0.0
C312 C 0.42875 0.82289 0.16288 0.0
C313 C 0.45102 0.78539 0.18692 0.0
C314 C 0.37203 0.80782 0.23241 0.0
C315 C 0.37081 0.8586 0.12644 0.0
N316 N 0.42595 0.79307 0.19677 0.0
N317 N 0.3981 0.85381 0.12351 0.0
H318 H 0.6484 0.483 0.88116 0.0
H319 H 0.48556 0.33447 0.15076 0.0
H320 H 0.65446 0.47317 0.17285 0.0
H321 H 0.51529 0.30988 0.89679 0.0
H322 H 0.53886 0.39401 0.15054 0.0
H323 H 0.59028 0.42784 0.87669 0.0
C324 C 0.63706 0.46972 0.9444 0.0
C325 C 0.65597 0.48261 0.02758 0.0
C326 C 0.53342 0.3756 0.09456 0.0
C327 C 0.5899 0.42013 0.02311 0.0
C328 C 0.50305 0.34176 0.09442 0.0
C329 C 0.49614 0.31716 0.02396 0.0
C330 C 0.55646 0.38527 0.02231 0.0
C331 C 0.5198 0.32795 0.95282 0.0
C332 C 0.60418 0.43821 0.94171 0.0
C333 C 0.64053 0.46408 0.10749 0.0
N334 N 0.5488 0.36126 0.95346 0.0
N335 N 0.60832 0.43388 0.10344 0.0
H336 H 0.12835 0.44288 0.93268 0.0
H337 H 0.22312 0.41079 0.52367 0.0
H338 H 0.21528 0.42977 0.9749 0.0
H339 H 0.13676 0.42489 0.48254 0.0
H340 H 0.22055 0.4174 0.68845 0.0
H341 H 0.13066 0.43557 0.76831 0.0
C342 C 0.148 0.43846 0.90719 0.0
C343 C 0.17184 0.43715 0.9674 0.0
C344 C 0.20213 0.41905 0.64365 0.0
C345 C 0.1746 0.4287 0.77865 0.0
C346 C 0.20356 0.4153 0.54945 0.0
C347 C 0.17998 0.41715 0.48943 0.0
C348 C 0.17692 0.42475 0.67848 0.0
C349 C 0.15534 0.42319 0.52651 0.0
C350 C 0.14927 0.43427 0.8132 0.0
C351 C 0.19649 0.43103 0.93074 0.0
N352 N 0.15442 0.42673 0.61878 0.0
N353 N 0.1973 0.42712 0.83853 0.0
H354 H 0.81523 0.22959 0.64027 0.0
H355 H 0.74073 0.15869 0.13105 0.0
H356 H 0.72115 0.12822 0.58316 0.0
H357 H 0.84787 0.23944 0.195 0.0
H358 H 0.72997 0.15067 0.29605 0.0
H359 H 0.82516 0.23718 0.47563 0.0
C360 C 0.79678 0.20891 0.593 0.0
C361 C 0.76738 0.17827 0.62503 0.0
C362 C 0.7558 0.17014 0.27365 0.0
C363 C 0.7782 0.18687 0.43717 0.0
C364 C 0.76183 0.17479 0.1798 0.0
C365 C 0.79517 0.1997 0.14984 0.0
C366 C 0.78324 0.19091 0.33721 0.0
C367 C 0.82178 0.21985 0.21543 0.0
C368 C 0.8024 0.21321 0.49921 0.0
C369 C 0.74421 0.15223 0.56111 0.0
N370 N 0.81522 0.21511 0.30593 0.0
N371 N 0.74998 0.15721 0.4701 0.0
H372 H 0.57007 0.82301 0.8742 0.0
H373 H 0.54892 0.74106 0.36698 0.0
H374 H 0.53473 0.7135 0.8203 0.0
H375 H 0.60808 0.85326 0.42797 0.0
H376 H 0.53844 0.72979 0.53132 0.0
H377 H 0.57957 0.83436 0.70952 0.0
C378 C 0.56431 0.80139 0.82789 0.0
C379 C 0.55167 0.76729 0.86134 0.0
C380 C 0.55369 0.75689 0.50868 0.0
C381 C 0.56203 0.77989 0.67255 0.0
C382 C 0.55951 0.76328 0.41479 0.0
C383 C 0.57929 0.79812 0.38357 0.0
C384 C 0.56746 0.78557 0.57185 0.0
C385 C 0.59271 0.82594 0.4489 0.0
C386 C 0.56972 0.80784 0.73386 0.0
C387 C 0.54455 0.74024 0.79784 0.0
N388 N 0.58647 0.81911 0.53947 0.0
N389 N 0.54967 0.74705 0.70698 0.0
H390 H 0.72574 0.56305 0.77531 0.0
H391 H 0.80225 0.56321 0.28765 0.0
H392 H 0.82347 0.57019 0.73975 0.0
H393 H 0.70448 0.55605 0.32226 0.0
H394 H 0.81001 0.56465 0.45397 0.0
H395 H 0.71795 0.56188 0.60889 0.0
C396 C 0.74571 0.56481 0.73231 0.0
C397 C 0.77511 0.56642 0.77057 0.0
C398 C 0.78678 0.5626 0.42517 0.0
C399 C 0.76628 0.5646 0.58146 0.0
C400 C 0.78228 0.56153 0.33045 0.0
C401 C 0.75286 0.55979 0.2919 0.0
C402 C 0.76165 0.56191 0.48106 0.0
C403 C 0.72766 0.55765 0.34978 0.0
C404 C 0.74118 0.56388 0.63756 0.0
C405 C 0.80028 0.56865 0.71247 0.0
N406 N 0.73273 0.55899 0.44172 0.0
N407 N 0.79519 0.56745 0.6206 0.0
H408 H 0.13343 0.77771 0.40677 0.0
H409 H 0.27073 0.8666 0.82254 0.0
H410 H 0.24422 0.8399 0.36791 0.0
H411 H 0.16559 0.77861 0.8566 0.0
H412 H 0.26068 0.86096 0.65708 0.0
H413 H 0.14404 0.78117 0.5717 0.0
C414 C 0.16009 0.79211 0.43312 0.0
C415 C 0.18805 0.80866 0.37371 0.0
C416 C 0.23982 0.84281 0.70055 0.0
C417 C 0.20033 0.81293 0.56307 0.0
C418 C 0.24542 0.84608 0.79515 0.0
C419 C 0.21891 0.82294 0.85344 0.0
C420 C 0.20728 0.8165 0.66355 0.0
C421 C 0.1867 0.79693 0.81407 0.0
C422 C 0.16608 0.79395 0.52737 0.0
C423 C 0.222 0.82679 0.41151 0.0
N424 N 0.18172 0.7945 0.72141 0.0
N425 N 0.22721 0.8287 0.50413 0.0
H426 H 0.44766 0.22973 0.7766 0.0
H427 H 0.36475 0.1421 0.30049 0.0
H428 H 0.33742 0.18446 0.73366 0.0
H429 H 0.44496 0.2532 0.30755 0.0
H430 H 0.35934 0.14487 0.46705 0.0
H431 H 0.45305 0.22587 0.60974 0.0
C432 C 0.4246 0.21837 0.73218 0.0
C433 C 0.39205 0.20729 0.76807 0.0
C434 C 0.37804 0.16855 0.43172 0.0
C435 C 0.39792 0.20241 0.57997 0.0
C436 C 0.38103 0.16706 0.33727 0.0
C437 C 0.40499 0.19759 0.29086 0.0
C438 C 0.40014 0.20041 0.48002 0.0
C439 C 0.42584 0.22927 0.34117 0.0
C440 C 0.42774 0.21652 0.63759 0.0
C441 C 0.36294 0.19324 0.70809 0.0
N442 N 0.4233 0.2298 0.43369 0.0
N443 N 0.36646 0.19084 0.61682 0.0
loop_
_geom_bond_atom_site_label_1
_geom_bond_atom_site_label_2
_geom_bond_distance
_geom_bond_site_symmetry_2
_ccdc_geom_bond_type
Dy0 O4 2.398 . S
Dy0 O5 2.491 . S
Dy0 O6 2.403 1_554 S
Dy0 O7 2.664 . S
Dy0 O11 2.326 . S
Dy0 O15 2.310 . S
Dy0 O16 2.351 . S
C1 O12 1.185 . S
C1 O13 1.355 . S
C2 O4 1.185 . S
C2 O5 1.355 . S
Dy3 O7 2.310 . S
Dy3 O10 2.351 . S
Dy3 O12 2.398 . S
Dy3 O13 2.491 . S
Dy3 O14 2.403 . S
Dy3 O15 2.664 . S
Dy3 O17 2.326 . S
O4 Dy0 2.398 . S
O4 C2 1.185 . S
O5 Dy0 2.491 . S
O5 C2 1.355 . S
O6 Dy0 2.403 1_556 S
O6 C8 1.254 . S
O7 Dy0 2.664 . S
O7 Dy3 2.310 . S
O7 C8 1.268 1_554 S
C8 O6 1.254 . S
C8 O7 1.268 1_556 S
C9 O14 1.254 . S
C9 O15 1.268 . S
O10 Dy3 2.351 . S
O10 C18 1.249 . S
O11 Dy0 2.326 . S
O11 C18 1.267 . S
O12 C1 1.185 . S
O12 Dy3 2.398 . S
O13 C1 1.355 . S
O13 Dy3 2.491 . S
O14 Dy3 2.403 . S
O14 C9 1.254 . S
O15 Dy0 2.310 . S
O15 Dy3 2.664 . S
O15 C9 1.268 . S
O16 Dy0 2.351 . S
O16 C19 1.249 . S
O17 Dy3 2.326 . S
O17 C19 1.267 . S
C18 O10 1.249 . S
C18 O11 1.267 . S
C19 O16 1.249 . S
C19 O17 1.267 . S
Dy20 O24 2.398 . S
Dy20 O25 2.491 1_556 S
Dy20 O26 2.403 . S
Dy20 O27 2.664 . S
Dy20 O31 2.326 . S
Dy20 O35 2.310 1_556 S
Dy20 O36 2.351 . S
C21 O32 1.185 . S
C21 O33 1.355 1_554 S
C22 O24 1.185 . S
C22 O25 1.355 1_556 S
Dy23 O27 2.310 1_554 S
Dy23 O30 2.351 . S
Dy23 O32 2.398 . S
Dy23 O33 2.491 1_554 S
Dy23 O34 2.403 . S
Dy23 O35 2.664 . S
Dy23 O37 2.326 . S
O24 Dy20 2.398 . S
O24 C22 1.185 . S
O25 Dy20 2.491 1_554 S
O25 C22 1.355 1_554 S
O26 Dy20 2.403 . S
O26 C28 1.254 . S
O27 Dy20 2.664 . S
O27 Dy23 2.310 1_556 S
O27 C28 1.268 . S
C28 O26 1.254 . S
C28 O27 1.268 . S
C29 O34 1.254 . S
C29 O35 1.268 . S
O30 Dy23 2.351 . S
O30 C38 1.249 1_554 S
O31 Dy20 2.326 . S
O31 C38 1.267 . S
O32 C21 1.185 . S
O32 Dy23 2.398 . S
O33 C21 1.355 1_556 S
O33 Dy23 2.491 1_556 S
O34 Dy23 2.403 . S
O34 C29 1.254 . S
O35 Dy20 2.310 1_554 S
O35 Dy23 2.664 . S
O35 C29 1.268 . S
O36 Dy20 2.351 . S
O36 C39 1.249 1_556 S
O37 Dy23 2.326 . S
O37 C39 1.267 . S
C38 O30 1.249 1_556 S
C38 O31 1.267 . S
C39 O36 1.249 1_554 S
C39 O37 1.267 . S
Dy40 O44 2.398 . S
Dy40 O45 2.491 . S
Dy40 O46 2.403 1_554 S
Dy40 O47 2.664 . S
Dy40 O51 2.326 . S
Dy40 O55 2.310 . S
Dy40 O56 2.351 . S
C41 O52 1.185 . S
C41 O53 1.355 . S
C42 O44 1.185 . S
C42 O45 1.355 . S
Dy43 O47 2.310 . S
Dy43 O50 2.351 . S
Dy43 O52 2.398 . S
Dy43 O53 2.491 . S
Dy43 O54 2.403 . S
Dy43 O55 2.664 . S
Dy43 O57 2.326 . S
O44 Dy40 2.398 . S
O44 C42 1.185 . S
O45 Dy40 2.491 . S
O45 C42 1.355 . S
O46 Dy40 2.403 1_556 S
O46 C48 1.254 . S
O47 Dy40 2.664 . S
O47 Dy43 2.310 . S
O47 C48 1.268 1_554 S
C48 O46 1.254 . S
C48 O47 1.268 1_556 S
C49 O54 1.254 . S
C49 O55 1.268 . S
O50 Dy43 2.351 . S
O50 C58 1.249 . S
O51 Dy40 2.326 . S
O51 C58 1.267 . S
O52 C41 1.185 . S
O52 Dy43 2.398 . S
O53 C41 1.355 . S
O53 Dy43 2.491 . S
O54 Dy43 2.403 . S
O54 C49 1.254 . S
O55 Dy40 2.310 . S
O55 Dy43 2.664 . S
O55 C49 1.268 . S
O56 Dy40 2.351 . S
O56 C59 1.249 . S
O57 Dy43 2.326 . S
O57 C59 1.267 . S
C58 O50 1.249 . S
C58 O51 1.267 . S
C59 O56 1.249 . S
C59 O57 1.267 . S
Dy60 O64 2.398 . S
Dy60 O65 2.491 1_556 S
Dy60 O66 2.403 . S
Dy60 O67 2.664 . S
Dy60 O71 2.326 . S
Dy60 O75 2.310 1_556 S
Dy60 O76 2.351 1_556 S
C61 O72 1.185 . S
C61 O73 1.355 1_554 S
C62 O64 1.185 1_554 S
C62 O65 1.355 . S
Dy63 O67 2.310 1_554 S
Dy63 O70 2.351 . S
Dy63 O72 2.398 . S
Dy63 O73 2.491 1_554 S
Dy63 O74 2.403 . S
Dy63 O75 2.664 . S
Dy63 O77 2.326 . S
O64 Dy60 2.398 . S
O64 C62 1.185 1_556 S
O65 Dy60 2.491 1_554 S
O65 C62 1.355 . S
O66 Dy60 2.403 . S
O66 C68 1.254 . S
O67 Dy60 2.664 . S
O67 Dy63 2.310 1_556 S
O67 C68 1.268 . S
C68 O66 1.254 . S
C68 O67 1.268 . S
C69 O74 1.254 . S
C69 O75 1.268 . S
O70 Dy63 2.351 . S
O70 C78 1.249 1_554 S
O71 Dy60 2.326 . S
O71 C78 1.267 . S
O72 C61 1.185 . S
O72 Dy63 2.398 . S
O73 C61 1.355 1_556 S
O73 Dy63 2.491 1_556 S
O74 Dy63 2.403 . S
O74 C69 1.254 . S
O75 Dy60 2.310 1_554 S
O75 Dy63 2.664 . S
O75 C69 1.268 . S
O76 Dy60 2.351 1_554 S
O76 C79 1.249 . S
O77 Dy63 2.326 . S
O77 C79 1.267 . S
C78 O70 1.249 1_556 S
C78 O71 1.267 . S
C79 O76 1.249 . S
C79 O77 1.267 . S
Dy80 O84 2.398 . S
Dy80 O85 2.491 . S
Dy80 O86 2.403 1_554 S
Dy80 O87 2.664 . S
Dy80 O91 2.326 . S
Dy80 O95 2.310 . S
Dy80 O96 2.351 . S
C81 O92 1.185 . S
C81 O93 1.355 . S
C82 O84 1.185 . S
C82 O85 1.355 . S
Dy83 O87 2.310 . S
Dy83 O90 2.351 . S
Dy83 O92 2.398 . S
Dy83 O93 2.491 . S
Dy83 O94 2.403 . S
Dy83 O95 2.664 . S
Dy83 O97 2.326 . S
O84 Dy80 2.398 . S
O84 C82 1.185 . S
O85 Dy80 2.491 . S
O85 C82 1.355 . S
O86 Dy80 2.403 1_556 S
O86 C88 1.254 . S
O87 Dy80 2.664 . S
O87 Dy83 2.310 . S
O87 C88 1.268 1_554 S
C88 O86 1.254 . S
C88 O87 1.268 1_556 S
C89 O94 1.254 . S
C89 O95 1.268 . S
O90 Dy83 2.351 . S
O90 C98 1.249 . S
O91 Dy80 2.326 . S
O91 C98 1.267 . S
O92 C81 1.185 . S
O92 Dy83 2.398 . S
O93 C81 1.355 . S
O93 Dy83 2.491 . S
O94 Dy83 2.403 . S
O94 C89 1.254 . S
O95 Dy80 2.310 . S
O95 Dy83 2.664 . S
O95 C89 1.268 . S
O96 Dy80 2.351 . S
O96 C99 1.249 . S
O97 Dy83 2.326 . S
O97 C99 1.267 . S
C98 O90 1.249 . S
C98 O91 1.267 . S
C99 O96 1.249 . S
C99 O97 1.267 . S
Dy100 O104 2.398 . S
Dy100 O105 2.491 1_554 S
Dy100 O106 2.403 . S
Dy100 O107 2.664 . S
Dy100 O111 2.326 . S
Dy100 O115 2.310 1_554 S
Dy100 O116 2.351 . S
C101 O112 1.185 1_554 S
C101 O113 1.355 . S
C102 O104 1.185 1_556 S
C102 O105 1.355 . S
Dy103 O107 2.310 1_556 S
Dy103 O110 2.351 . S
Dy103 O112 2.398 . S
Dy103 O113 2.491 1_556 S
Dy103 O114 2.403 . S
Dy103 O115 2.664 . S
Dy103 O117 2.326 . S
O104 Dy100 2.398 . S
O104 C102 1.185 1_554 S
O105 Dy100 2.491 1_556 S
O105 C102 1.355 . S
O106 Dy100 2.403 . S
O106 C108 1.254 . S
O107 Dy100 2.664 . S
O107 Dy103 2.310 1_554 S
O107 C108 1.268 . S
C108 O106 1.254 . S
C108 O107 1.268 . S
C109 O114 1.254 . S
C109 O115 1.268 . S
O110 Dy103 2.351 . S
O110 C118 1.248 1_556 S
O111 Dy100 2.326 . S
O111 C118 1.267 . S
O112 C101 1.185 1_556 S
O112 Dy103 2.398 . S
O113 C101 1.355 . S
O113 Dy103 2.491 1_554 S
O114 Dy103 2.403 . S
O114 C109 1.254 . S
O115 Dy100 2.310 1_556 S
O115 Dy103 2.664 . S
O115 C109 1.268 . S
O116 Dy100 2.351 . S
O116 C119 1.249 . S
O117 Dy103 2.326 . S
O117 C119 1.267 1_556 S
C118 O110 1.248 1_554 S
C118 O111 1.267 . S
C119 O116 1.249 . S
C119 O117 1.267 1_554 S
H120 C126 0.930 . S
H121 C130 0.930 . S
H122 C135 0.929 . S
H123 C133 0.929 1_556 S
H124 C128 0.929 . S
H125 C134 0.929 . S
C126 H120 0.930 . S
C126 C127 1.367 1_556 S
C126 C134 1.378 . S
C127 C126 1.367 1_554 S
C127 C135 1.433 . S
C128 H124 0.929 . S
C128 C130 1.378 . S
C128 C132 1.350 . S
C129 C132 1.463 . S
C129 C134 1.350 1_554 S
C129 N137 1.427 . S
C130 H121 0.930 . S
C130 C128 1.378 . S
C130 C131 1.367 . S
C131 C130 1.367 . S
C131 C133 1.433 . S
C132 C128 1.350 . S
C132 C129 1.463 . S
C132 N136 1.427 . S
C133 H123 0.929 1_554 S
C133 C131 1.433 . S
C133 N136 1.384 . S
C134 H125 0.929 . S
C134 C126 1.378 . S
C134 C129 1.350 1_556 S
C135 H122 0.929 . S
C135 C127 1.433 . S
C135 N137 1.384 . S
N136 C132 1.427 . S
N136 C133 1.384 . S
N137 C129 1.427 . S
N137 C135 1.384 . S
H138 C144 0.930 . S
H139 C148 0.930 . S
H140 C153 0.929 1_556 S
H141 C151 0.929 . S
H142 C146 0.929 . S
H143 C152 0.929 . S
C144 H138 0.930 . S
C144 C145 1.367 . S
C144 C152 1.378 . S
C145 C144 1.367 . S
C145 C153 1.433 . S
C146 H142 0.929 . S
C146 C148 1.378 . S
C146 C150 1.350 1_556 S
C147 C150 1.463 1_455 S
C147 C152 1.350 . S
C147 N155 1.427 . S
C148 H139 0.930 . S
C148 C146 1.378 . S
C148 C149 1.367 1_556 S
C149 C148 1.367 1_554 S
C149 C151 1.433 . S
C150 C146 1.350 1_554 S
C150 C147 1.463 1_655 S
C150 N154 1.427 . S
C151 H141 0.929 . S
C151 C149 1.433 . S
C151 N154 1.384 . S
C152 H143 0.929 . S
C152 C144 1.378 . S
C152 C147 1.350 . S
C153 H140 0.929 1_554 S
C153 C145 1.433 . S
C153 N155 1.384 . S
N154 C150 1.427 . S
N154 C151 1.384 . S
N155 C147 1.427 . S
N155 C153 1.384 . S
H156 C162 0.930 . S
H157 C166 0.930 . S
H158 C171 0.929 . S
H159 C169 0.931 . S
H160 C164 0.929 . S
H161 C170 0.929 . S
C162 H156 0.930 . S
C162 C163 1.367 1_556 S
C162 C170 1.378 . S
C163 C162 1.367 1_554 S
C163 C171 1.433 . S
C164 H160 0.929 . S
C164 C166 1.378 . S
C164 C168 1.350 . S
C165 C168 1.463 1_545 S
C165 C170 1.350 1_554 S
C165 N173 1.427 . S
C166 H157 0.930 . S
C166 C164 1.378 . S
C166 C167 1.367 . S
C167 C166 1.367 . S
C167 C169 1.433 . S
C168 C164 1.350 . S
C168 C165 1.463 1_565 S
C168 N172 1.427 . S
C169 H159 0.931 . S
C169 C167 1.433 . S
C169 N172 1.384 . S
C170 H161 0.929 . S
C170 C162 1.378 . S
C170 C165 1.350 1_556 S
C171 H158 0.929 . S
C171 C163 1.433 . S
C171 N173 1.384 . S
N172 C168 1.427 . S
N172 C169 1.384 . S
N173 C165 1.427 . S
N173 C171 1.384 . S
H174 C180 0.930 . S
H175 C184 0.930 1_556 S
H176 C189 0.929 . S
H177 C187 0.929 . S
H178 C182 0.929 1_556 S
H179 C188 0.929 . S
C180 H174 0.930 . S
C180 C181 1.367 . S
C180 C188 1.378 . S
C181 C180 1.367 . S
C181 C189 1.433 1_554 S
C182 H178 0.929 1_554 S
C182 C184 1.378 . S
C182 C186 1.350 . S
C183 C186 1.463 . S
C183 C188 1.350 . S
C183 N191 1.427 1_554 S
C184 H175 0.930 1_554 S
C184 C182 1.378 . S
C184 C185 1.367 . S
C185 C184 1.367 . S
C185 C187 1.433 . S
C186 C182 1.350 . S
C186 C183 1.463 . S
C186 N190 1.427 . S
C187 H177 0.929 . S
C187 C185 1.433 . S
C187 N190 1.384 . S
C188 H179 0.929 . S
C188 C180 1.378 . S
C188 C183 1.350 . S
C189 H176 0.929 . S
C189 C181 1.433 1_556 S
C189 N191 1.384 . S
N190 C186 1.427 . S
N190 C187 1.384 . S
N191 C183 1.427 1_556 S
N191 C189 1.384 . S
H192 C198 0.930 1_556 S
H193 C202 0.930 . S
H194 C207 0.929 . S
H195 C205 0.929 . S
H196 C200 0.929 . S
H197 C206 0.929 . S
C198 H192 0.930 1_554 S
C198 C199 1.367 . S
C198 C206 1.378 1_454 S
C199 C198 1.367 . S
C199 C207 1.433 . S
C200 H196 0.929 . S
C200 C202 1.378 . S
C200 C204 1.350 . S
C201 C204 1.463 . S
C201 C206 1.350 1_554 S
C201 N209 1.427 . S
C202 H193 0.930 . S
C202 C200 1.378 . S
C202 C203 1.367 . S
C203 C202 1.367 . S
C203 C205 1.433 1_554 S
C204 C200 1.350 . S
C204 C201 1.463 . S
C204 N208 1.427 1_554 S
C205 H195 0.929 . S
C205 C203 1.433 1_556 S
C205 N208 1.384 . S
C206 H197 0.929 . S
C206 C198 1.378 1_656 S
C206 C201 1.350 1_556 S
C207 H194 0.929 . S
C207 C199 1.433 . S
C207 N209 1.384 1_455 S
N208 C204 1.427 1_556 S
N208 C205 1.384 . S
N209 C201 1.427 . S
N209 C207 1.384 1_655 S
H210 C216 0.930 . S
H211 C220 0.930 . S
H212 C225 0.929 1_556 S
H213 C223 0.929 . S
H214 C218 0.929 . S
H215 C224 0.929 . S
C216 H210 0.930 . S
C216 C217 1.367 . S
C216 C224 1.378 . S
C217 C216 1.367 . S
C217 C225 1.433 . S
C218 H214 0.929 . S
C218 C220 1.378 . S
C218 C222 1.350 1_556 S
C219 C222 1.463 1_565 S
C219 C224 1.350 . S
C219 N227 1.427 . S
C220 H211 0.930 . S
C220 C218 1.378 . S
C220 C221 1.367 1_556 S
C221 C220 1.367 1_554 S
C221 C223 1.433 . S
C222 C218 1.350 1_554 S
C222 C219 1.463 1_545 S
C222 N226 1.427 . S
C223 H213 0.929 . S
C223 C221 1.433 . S
C223 N226 1.384 . S
C224 H215 0.929 . S
C224 C216 1.378 . S
C224 C219 1.350 . S
C225 H212 0.929 1_554 S
C225 C217 1.433 . S
C225 N227 1.384 . S
N226 C222 1.427 . S
N226 C223 1.384 . S
N227 C219 1.427 . S
N227 C225 1.384 . S
H228 C234 0.930 . S
H229 C238 0.930 . S
H230 C243 0.929 . S
H231 C241 0.929 . S
H232 C236 0.929 . S
H233 C242 0.929 . S
C234 H228 0.930 . S
C234 C235 1.367 . S
C234 C242 1.378 . S
C235 C234 1.367 . S
C235 C243 1.433 . S
C236 H232 0.929 . S
C236 C238 1.378 . S
C236 C240 1.350 . S
C237 C240 1.463 . S
C237 C242 1.350 . S
C237 N245 1.427 . S
C238 H229 0.930 . S
C238 C236 1.378 . S
C238 C239 1.367 . S
C239 C238 1.367 . S
C239 C241 1.433 . S
C240 C236 1.350 . S
C240 C237 1.463 . S
C240 N244 1.427 . S
C241 H231 0.929 . S
C241 C239 1.433 . S
C241 N244 1.384 . S
C242 H233 0.929 . S
C242 C234 1.378 . S
C242 C237 1.350 . S
C243 H230 0.929 . S
C243 C235 1.433 . S
C243 N245 1.384 . S
N244 C240 1.427 . S
N244 C241 1.384 . S
N245 C237 1.427 . S
N245 C243 1.384 . S
H246 C252 0.930 . S
H247 C256 0.930 . S
H248 C261 0.929 . S
H249 C259 0.929 . S
H250 C254 0.929 . S
H251 C260 0.929 . S
C252 H246 0.930 . S
C252 C253 1.367 . S
C252 C260 1.378 . S
C253 C252 1.367 . S
C253 C261 1.433 1_556 S
C254 H250 0.929 . S
C254 C256 1.378 . S
C254 C258 1.350 1_554 S
C255 C258 1.463 . S
C255 C260 1.350 . S
C255 N263 1.427 1_556 S
C256 H247 0.930 . S
C256 C254 1.378 . S
C256 C257 1.367 1_554 S
C257 C256 1.367 1_556 S
C257 C259 1.433 . S
C258 C254 1.350 1_556 S
C258 C255 1.463 . S
C258 N262 1.427 . S
C259 H249 0.929 . S
C259 C257 1.433 . S
C259 N262 1.384 . S
C260 H251 0.929 . S
C260 C252 1.378 . S
C260 C255 1.350 . S
C261 H248 0.929 . S
C261 C253 1.433 1_554 S
C261 N263 1.384 . S
N262 C258 1.427 . S
N262 C259 1.384 . S
N263 C255 1.427 1_554 S
N263 C261 1.384 . S
H264 C270 0.930 . S
H265 C274 0.930 . S
H266 C279 0.929 . S
H267 C277 0.929 . S
H268 C272 0.929 . S
H269 C278 0.929 . S
C270 H264 0.930 . S
C270 C271 1.367 . S
C270 C278 1.378 . S
C271 C270 1.367 . S
C271 C279 1.433 . S
C272 H268 0.929 . S
C272 C274 1.378 . S
C272 C276 1.350 . S
C273 C276 1.463 . S
C273 C278 1.350 . S
C273 N281 1.427 . S
C274 H265 0.930 . S
C274 C272 1.378 . S
C274 C275 1.367 . S
C275 C274 1.367 . S
C275 C277 1.433 . S
C276 C272 1.350 . S
C276 C273 1.463 . S
C276 N280 1.427 . S
C277 H267 0.929 . S
C277 C275 1.433 . S
C277 N280 1.384 . S
C278 H269 0.929 . S
C278 C270 1.378 . S
C278 C273 1.350 . S
C279 H266 0.929 . S
C279 C271 1.433 . S
C279 N281 1.384 . S
N280 C276 1.427 . S
N280 C277 1.384 . S
N281 C273 1.427 . S
N281 C279 1.384 . S
H282 C288 0.930 . S
H283 C292 0.930 . S
H284 C297 0.929 . S
H285 C295 0.929 . S
H286 C290 0.929 . S
H287 C296 0.929 . S
C288 H282 0.930 . S
C288 C289 1.367 . S
C288 C296 1.378 . S
C289 C288 1.367 . S
C289 C297 1.433 1_554 S
C290 H286 0.929 . S
C290 C292 1.378 . S
C290 C294 1.355 . S
C291 C294 1.462 1_554 S
C291 C296 1.350 . S
C291 N299 1.427 1_554 S
C292 H283 0.930 . S
C292 C290 1.378 . S
C292 C293 1.367 . S
C293 C292 1.367 . S
C293 C295 1.433 1_556 S
C294 C290 1.355 . S
C294 C291 1.462 1_556 S
C294 N298 1.422 1_556 S
C295 H285 0.929 . S
C295 C293 1.433 1_554 S
C295 N298 1.384 . S
C296 H287 0.929 . S
C296 C288 1.378 . S
C296 C291 1.350 . S
C297 H284 0.929 . S
C297 C289 1.433 1_556 S
C297 N299 1.384 . S
N298 C294 1.422 1_554 S
N298 C295 1.384 . S
N299 C291 1.427 1_556 S
N299 C297 1.384 . S
H300 C306 0.930 . S
H301 C310 0.930 . S
H302 C315 0.929 . S
H303 C313 0.929 . S
H304 C308 0.929 . S
H305 C314 0.929 . S
C306 H300 0.930 . S
C306 C307 1.367 . S
C306 C314 1.378 . S
C307 C306 1.367 . S
C307 C315 1.433 . S
C308 H304 0.929 . S
C308 C310 1.378 . S
C308 C312 1.350 . S
C309 C312 1.463 . S
C309 C314 1.350 . S
C309 N317 1.427 . S
C310 H301 0.930 . S
C310 C308 1.378 . S
C310 C311 1.367 . S
C311 C310 1.367 . S
C311 C313 1.433 . S
C312 C308 1.350 . S
C312 C309 1.463 . S
C312 N316 1.427 . S
C313 H303 0.929 . S
C313 C311 1.433 . S
C313 N316 1.384 . S
C314 H305 0.929 . S
C314 C306 1.378 . S
C314 C309 1.350 . S
C315 H302 0.929 . S
C315 C307 1.433 . S
C315 N317 1.384 . S
N316 C312 1.427 . S
N316 C313 1.384 . S
N317 C309 1.427 . S
N317 C315 1.384 . S
H318 C324 0.930 . S
H319 C328 0.930 . S
H320 C333 0.929 . S
H321 C331 0.929 . S
H322 C326 0.929 . S
H323 C332 0.929 . S
C324 H318 0.930 . S
C324 C325 1.367 . S
C324 C332 1.378 . S
C325 C324 1.367 . S
C325 C333 1.433 1_556 S
C326 H322 0.929 . S
C326 C328 1.378 . S
C326 C330 1.350 . S
C327 C330 1.463 1_556 S
C327 C332 1.350 . S
C327 N335 1.427 1_556 S
C328 H319 0.930 . S
C328 C326 1.378 . S
C328 C329 1.376 . S
C329 C328 1.376 . S
C329 C331 1.423 1_554 S
C330 C326 1.350 . S
C330 C327 1.463 1_554 S
C330 N334 1.427 1_554 S
C331 H321 0.929 . S
C331 C329 1.423 1_556 S
C331 N334 1.384 . S
C332 H323 0.929 . S
C332 C324 1.378 . S
C332 C327 1.350 . S
C333 H320 0.929 . S
C333 C325 1.433 1_554 S
C333 N335 1.384 . S
N334 C330 1.427 1_556 S
N334 C331 1.384 . S
N335 C327 1.427 1_554 S
N335 C333 1.384 . S
H336 C342 0.930 . S
H337 C346 0.930 . S
H338 C351 0.929 . S
H339 C349 0.929 . S
H340 C344 0.929 . S
H341 C350 0.929 . S
C342 H336 0.930 . S
C342 C343 1.367 . S
C342 C350 1.378 . S
C343 C342 1.367 . S
C343 C351 1.433 . S
C344 H340 0.929 . S
C344 C346 1.378 . S
C344 C348 1.350 . S
C345 C348 1.463 . S
C345 C350 1.350 . S
C345 N353 1.427 . S
C346 H337 0.930 . S
C346 C344 1.378 . S
C346 C347 1.367 . S
C347 C346 1.367 . S
C347 C349 1.433 . S
C348 C344 1.350 . S
C348 C345 1.463 . S
C348 N352 1.427 . S
C349 H339 0.929 . S
C349 C347 1.433 . S
C349 N352 1.384 . S
C350 H341 0.929 . S
C350 C342 1.378 . S
C350 C345 1.350 . S
C351 H338 0.929 . S
C351 C343 1.433 . S
C351 N353 1.384 . S
N352 C348 1.427 . S
N352 C349 1.384 . S
N353 C345 1.427 . S
N353 C351 1.384 . S
H354 C360 0.930 . S
H355 C364 0.930 . S
H356 C369 0.929 . S
H357 C367 0.929 . S
H358 C362 0.929 . S
H359 C368 0.929 . S
C360 H354 0.930 . S
C360 C361 1.367 . S
C360 C368 1.378 . S
C361 C360 1.367 . S
C361 C369 1.433 . S
C362 H358 0.929 . S
C362 C364 1.378 . S
C362 C366 1.350 . S
C363 C366 1.463 . S
C363 C368 1.350 . S
C363 N371 1.427 . S
C364 H355 0.930 . S
C364 C362 1.378 . S
C364 C365 1.367 . S
C365 C364 1.367 . S
C365 C367 1.433 . S
C366 C362 1.350 . S
C366 C363 1.463 . S
C366 N370 1.427 . S
C367 H357 0.929 . S
C367 C365 1.433 . S
C367 N370 1.384 . S
C368 H359 0.929 . S
C368 C360 1.378 . S
C368 C363 1.350 . S
C369 H356 0.929 . S
C369 C361 1.433 . S
C369 N371 1.384 . S
N370 C366 1.427 . S
N370 C367 1.384 . S
N371 C363 1.427 . S
N371 C369 1.384 . S
H372 C378 0.930 . S
H373 C382 0.930 . S
H374 C387 0.929 . S
H375 C385 0.929 . S
H376 C380 0.929 . S
H377 C386 0.929 . S
C378 H372 0.930 . S
C378 C379 1.367 . S
C378 C386 1.378 . S
C379 C378 1.367 . S
C379 C387 1.433 . S
C380 H376 0.929 . S
C380 C382 1.378 . S
C380 C384 1.350 . S
C381 C384 1.463 . S
C381 C386 1.350 . S
C381 N389 1.427 . S
C382 H373 0.930 . S
C382 C380 1.378 . S
C382 C383 1.367 . S
C383 C382 1.367 . S
C383 C385 1.433 . S
C384 C380 1.350 . S
C384 C381 1.463 . S
C384 N388 1.427 . S
C385 H375 0.929 . S
C385 C383 1.433 . S
C385 N388 1.384 . S
C386 H377 0.929 . S
C386 C378 1.378 . S
C386 C381 1.350 . S
C387 H374 0.929 . S
C387 C379 1.433 . S
C387 N389 1.384 . S
N388 C384 1.427 . S
N388 C385 1.384 . S
N389 C381 1.427 . S
N389 C387 1.384 . S
H390 C396 0.930 . S
H391 C400 0.930 . S
H392 C405 0.929 . S
H393 C403 0.929 . S
H394 C398 0.929 . S
H395 C404 0.929 . S
C396 H390 0.930 . S
C396 C397 1.367 . S
C396 C404 1.378 . S
C397 C396 1.367 . S
C397 C405 1.433 . S
C398 H394 0.929 . S
C398 C400 1.378 . S
C398 C402 1.350 . S
C399 C402 1.463 . S
C399 C404 1.350 . S
C399 N407 1.427 . S
C400 H391 0.930 . S
C400 C398 1.378 . S
C400 C401 1.367 . S
C401 C400 1.367 . S
C401 C403 1.433 . S
C402 C398 1.350 . S
C402 C399 1.463 . S
C402 N406 1.427 . S
C403 H393 0.929 . S
C403 C401 1.433 . S
C403 N406 1.384 . S
C404 H395 0.929 . S
C404 C396 1.378 . S
C404 C399 1.350 . S
C405 H392 0.929 . S
C405 C397 1.433 . S
C405 N407 1.384 . S
N406 C402 1.427 . S
N406 C403 1.384 . S
N407 C399 1.427 . S
N407 C405 1.384 . S
H408 C414 0.930 . S
H409 C418 0.930 . S
H410 C423 0.929 . S
H411 C421 0.929 . S
H412 C416 0.929 . S
H413 C422 0.929 . S
C414 H408 0.930 . S
C414 C415 1.367 . S
C414 C422 1.378 . S
C415 C414 1.367 . S
C415 C423 1.433 . S
C416 H412 0.929 . S
C416 C418 1.378 . S
C416 C420 1.350 . S
C417 C420 1.463 . S
C417 C422 1.350 . S
C417 N425 1.427 . S
C418 H409 0.930 . S
C418 C416 1.378 . S
C418 C419 1.367 . S
C419 C418 1.367 . S
C419 C421 1.433 . S
C420 C416 1.350 . S
C420 C417 1.463 . S
C420 N424 1.427 . S
C421 H411 0.929 . S
C421 C419 1.433 . S
C421 N424 1.384 . S
C422 H413 0.929 . S
C422 C414 1.378 . S
C422 C417 1.350 . S
C423 H410 0.929 . S
C423 C415 1.433 . S
C423 N425 1.384 . S
N424 C420 1.427 . S
N424 C421 1.384 . S
N425 C417 1.427 . S
N425 C423 1.384 . S
H426 C432 0.930 . S
H427 C436 0.930 . S
H428 C441 0.929 . S
H429 C439 0.929 . S
H430 C434 0.929 . S
H431 C440 0.929 . S
C432 H426 0.930 . S
C432 C433 1.367 . S
C432 C440 1.378 . S
C433 C432 1.367 . S
C433 C441 1.433 . S
C434 H430 0.929 . S
C434 C436 1.378 . S
C434 C438 1.350 . S
C435 C438 1.463 . S
C435 C440 1.350 . S
C435 N443 1.427 . S
C436 H427 0.930 . S
C436 C434 1.378 . S
C436 C437 1.367 . S
C437 C436 1.367 . S
C437 C439 1.433 . S
C438 C434 1.350 . S
C438 C435 1.463 . S
C438 N442 1.427 . S
C439 H429 0.929 . S
C439 C437 1.433 . S
C439 N442 1.384 . S
C440 H431 0.929 . S
C440 C432 1.378 . S
C440 C435 1.350 . S
C441 H428 0.929 . S
C441 C433 1.433 . S
C441 N443 1.384 . S
N442 C438 1.427 . S
N442 C439 1.384 . S
N443 C435 1.427 . S
N443 C441 1.384 . S
C127 C101 1.352 . S
C131 C1 1.376 . S
C145 C19 1.287 . S
C149 C21 1.130 . S
C163 C39 1.008 . S
C167 C41 0.950 . S
C181 C61 1.719 . S
C185 C59 1.808 . S
C199 C81 1.648 . S
C203 C79 1.807 . S
C217 C99 1.324 . S
C221 C119 1.342 . S
C235 C98 1.712 . S
C239 C2 1.696 . S
C253 C102 1.306 . S
C257 C22 1.312 . S
C271 C42 1.468 . S
C275 C18 1.463 . S
C289 C62 1.758 . S
C293 C38 1.790 . S
C307 C82 2.048 . S
C311 C58 2.051 . S
C325 C78 2.235 . S
C329 C118 2.229 . S
C343 C8 1.423 . S
C347 C9 1.423 . S
C361 C28 1.438 . S
C365 C29 1.438 . S
C379 C48 1.438 . S
C383 C49 1.438 . S
C397 C68 1.425 . S
C401 C69 1.425 . S
C415 C89 1.416 . S
C419 C88 1.416 . S
C433 C109 1.428 . S
C437 C108 1.428 . S
