# Generated by pormake.
# Topology ths, (3)-cn, num edge types: 1
# Building blocks:
#     Node 0, Type 0, BuildingBlock: WUSLED_clean_sbu_0, # of connection points: 3
#     Node 1, Type 0, BuildingBlock: WUSLED_clean_sbu_0, # of connection points: 3
#     Node 2, Type 0, BuildingBlock: WUSLED_clean_sbu_0, # of connection points: 3
#     Node 3, Type 0, BuildingBlock: WUSLED_clean_sbu_0, # of connection points: 3
#     Node 4, Type 0, BuildingBlock: WUSLED_clean_sbu_0, # of connection points: 3
#     Node 5, Type 0, BuildingBlock: WUSLED_clean_sbu_0, # of connection points: 3
#     Node 6, Type 0, BuildingBlock: WUSLED_clean_sbu_0, # of connection points: 3
#     Node 7, Type 0, BuildingBlock: WUSLED_clean_sbu_0, # of connection points: 3
#     Edge 8, Type (0, 0), BuildingBlock: ZUJKAS_clean_linker_0, # of connection points: 2
#     Edge 9, Type (0, 0), BuildingBlock: ZUJKAS_clean_linker_0, # of connection points: 2
#     Edge 10, Type (0, 0), BuildingBlock: ZUJKAS_clean_linker_0, # of connection points: 2
#     Edge 11, Type (0, 0), BuildingBlock: ZUJKAS_clean_linker_0, # of connection points: 2
#     Edge 12, Type (0, 0), BuildingBlock: ZUJKAS_clean_linker_0, # of connection points: 2
#     Edge 13, Type (0, 0), BuildingBlock: ZUJKAS_clean_linker_0, # of connection points: 2
#     Edge 14, Type (0, 0), BuildingBlock: ZUJKAS_clean_linker_0, # of connection points: 2
#     Edge 15, Type (0, 0), BuildingBlock: ZUJKAS_clean_linker_0, # of connection points: 2
#     Edge 16, Type (0, 0), BuildingBlock: ZUJKAS_clean_linker_0, # of connection points: 2
#     Edge 17, Type (0, 0), BuildingBlock: ZUJKAS_clean_linker_0, # of connection points: 2
#     Edge 18, Type (0, 0), BuildingBlock: ZUJKAS_clean_linker_0, # of connection points: 2
#     Edge 19, Type (0, 0), BuildingBlock: ZUJKAS_clean_linker_0, # of connection points: 2
# Relax obj value: 0.000
# Max RMSD: 0.004
# Mean RMSD: 0.004
data_MOF--net-ths--node1-WUSLED_clean_sbu_0--edge1-ZUJKAS_clean_linker_0
_symmetry_space_group_name_H-M    P1
_symmetry_Int_Tables_number       1
_symmetry_cell_setting            triclinic
loop_
_symmetry_equiv_pos_as_xyz
'x, y, z'
_cell_length_a     47.844621
_cell_length_b     47.882319
_cell_length_c     161.19424
_cell_angle_alpha  88.832853
_cell_angle_beta   90.622871
_cell_angle_gamma 90.257626
loop_
_atom_site_label
_atom_site_type_symbol
_atom_site_fract_x
_atom_site_fract_y
_atom_site_fract_z
_atom_type_partial_charge
C0 C 0.07127 0.82158 0.04253 0.0
C1 C 0.07567 0.84368 0.04799 0.0
C2 C 0.07163 0.87741 0.03647 0.0
C3 C 0.07591 0.87136 0.04498 0.0
C4 C 0.06715 0.85508 0.03106 0.0
C5 C 0.067 0.82747 0.03406 0.0
U6 U 0.0703 0.76643 0.06007 0.0
O7 O 0.04695 0.72673 0.06099 0.0
O8 O 0.09281 0.72659 0.06133 0.0
C9 C 0.06976 0.71155 0.06105 0.0
C10 C 0.07103 0.79233 0.04554 0.0
C11 C 0.06977 0.68786 0.05535 0.0
C12 C 0.07985 0.66761 0.04199 0.0
C13 C 0.0795 0.69073 0.04719 0.0
C14 C 0.06035 0.6387 0.05301 0.0
C15 C 0.0703 0.64128 0.04485 0.0
C16 C 0.06012 0.66175 0.0582 0.0
C17 C 0.06916 0.79024 0.08272 0.0
C18 C 0.07831 0.7605 0.09486 0.0
C19 C 0.0594 0.80686 0.09653 0.0
C20 C 0.05958 0.81115 0.08792 0.0
C21 C 0.06887 0.78154 0.10012 0.0
C22 C 0.07836 0.76478 0.08623 0.0
C23 C 0.06968 0.79569 0.07369 0.0
O24 O 0.09374 0.78388 0.04949 0.0
O25 O 0.04791 0.78396 0.04917 0.0
O26 O 0.04692 0.78879 0.06957 0.0
O27 O 0.09278 0.78879 0.0699 0.0
H28 H 0.07887 0.83952 0.05456 0.0
H29 H 0.07909 0.88803 0.04934 0.0
H30 H 0.06416 0.85891 0.02446 0.0
H31 H 0.06361 0.81066 0.02976 0.0
H32 H 0.08735 0.67041 0.03571 0.0
H33 H 0.0869 0.71078 0.04486 0.0
H34 H 0.0532 0.61872 0.05546 0.0
H35 H 0.05258 0.65911 0.06448 0.0
H36 H 0.08545 0.74065 0.09741 0.0
H37 H 0.05235 0.82364 0.10039 0.0
H38 H 0.05244 0.83095 0.08533 0.0
H39 H 0.08569 0.7483 0.0823 0.0
C40 C 0.5203 0.76846 0.2924 0.0
C41 C 0.49781 0.77206 0.29779 0.0
C42 C 0.46476 0.76762 0.28624 0.0
C43 C 0.47028 0.7717 0.29473 0.0
C44 C 0.48747 0.76393 0.28089 0.0
C45 C 0.51494 0.76436 0.28395 0.0
U46 U 0.57425 0.77028 0.31008 0.0
O47 O 0.61417 0.74805 0.31159 0.0
O48 O 0.61375 0.79387 0.31104 0.0
C49 C 0.62909 0.77117 0.31125 0.0
C50 C 0.5494 0.769 0.29547 0.0
C51 C 0.65307 0.7712 0.30559 0.0
C52 C 0.67347 0.7629 0.2921 0.0
C53 C 0.65017 0.76305 0.29731 0.0
C54 C 0.70263 0.77935 0.30338 0.0
C55 C 0.70001 0.77106 0.29508 0.0
C56 C 0.6794 0.77939 0.30857 0.0
C57 C 0.54843 0.77137 0.33259 0.0
C58 C 0.57847 0.76631 0.3448 0.0
C59 C 0.5293 0.77655 0.34637 0.0
C60 C 0.52576 0.7766 0.33775 0.0
C61 C 0.55565 0.77119 0.35002 0.0
C62 C 0.57489 0.7664 0.33615 0.0
C63 C 0.54381 0.77081 0.32355 0.0
O64 O 0.55739 0.79224 0.29901 0.0
O65 O 0.55772 0.74645 0.29955 0.0
O66 O 0.55128 0.74775 0.3199 0.0
O67 O 0.55098 0.79357 0.31939 0.0
H68 H 0.50157 0.77513 0.30435 0.0
H69 H 0.45332 0.77428 0.29904 0.0
H70 H 0.48405 0.76113 0.27431 0.0
H71 H 0.53205 0.76161 0.2797 0.0
H72 H 0.67064 0.7567 0.28573 0.0
H73 H 0.62995 0.75678 0.29488 0.0
H74 H 0.72277 0.78539 0.30592 0.0
H75 H 0.68204 0.7857 0.31495 0.0
H76 H 0.59899 0.76189 0.34739 0.0
H77 H 0.51137 0.78089 0.35017 0.0
H78 H 0.50521 0.78063 0.3351 0.0
H79 H 0.59266 0.76233 0.33225 0.0
C80 C 0.57223 0.32092 0.54242 0.0
C81 C 0.57464 0.34326 0.54788 0.0
C82 C 0.57115 0.37659 0.53626 0.0
C83 C 0.57414 0.37086 0.54483 0.0
C84 C 0.56862 0.35402 0.53084 0.0
C85 C 0.56916 0.32647 0.53389 0.0
U86 U 0.57534 0.26649 0.5601 0.0
O87 O 0.55399 0.22593 0.56149 0.0
O88 O 0.59983 0.22766 0.56117 0.0
C89 C 0.5774 0.21171 0.56116 0.0
C90 C 0.57318 0.29176 0.54548 0.0
C91 C 0.57776 0.18806 0.55541 0.0
C92 C 0.56091 0.16444 0.54308 0.0
C93 C 0.56075 0.1876 0.54825 0.0
C94 C 0.59551 0.14218 0.55203 0.0
C95 C 0.57826 0.14142 0.54492 0.0
C96 C 0.59518 0.16522 0.55723 0.0
C97 C 0.57713 0.29189 0.58263 0.0
C98 C 0.57364 0.26173 0.5949 0.0
C99 C 0.58373 0.31102 0.59635 0.0
C100 C 0.58269 0.31462 0.58773 0.0
C101 C 0.57923 0.28454 0.60006 0.0
C102 C 0.57267 0.26536 0.58625 0.0
C103 C 0.57593 0.29653 0.57357 0.0
O104 O 0.59666 0.28417 0.54916 0.0
O105 O 0.55087 0.28284 0.54944 0.0
O106 O 0.55282 0.28841 0.56983 0.0
O107 O 0.59863 0.29012 0.56952 0.0
H108 H 0.57695 0.33933 0.5545 0.0
H109 H 0.57582 0.38771 0.54919 0.0
H110 H 0.56668 0.35761 0.5242 0.0
H111 H 0.56737 0.30947 0.52958 0.0
H112 H 0.54762 0.16464 0.53759 0.0
H113 H 0.54726 0.20506 0.54667 0.0
H114 H 0.60889 0.12469 0.55368 0.0
H115 H 0.60842 0.1651 0.56273 0.0
H116 H 0.57034 0.24102 0.59755 0.0
H117 H 0.58767 0.32912 0.60012 0.0
H118 H 0.58609 0.33527 0.58504 0.0
H119 H 0.56844 0.24753 0.58239 0.0
C120 C 0.0253 0.26769 0.79248 0.0
C121 C 1.0029 0.26421 0.79796 0.0
C122 C 0.96965 0.26804 0.7864 0.0
C123 C 0.97532 0.26433 0.79495 0.0
C124 C 0.99227 0.27163 0.78096 0.0
C125 C 1.0198 0.27144 0.78398 0.0
U126 U 0.07958 0.26714 0.81009 0.0
O127 O 0.11882 0.24349 0.81143 0.0
O128 O 0.11979 0.28932 0.81111 0.0
C129 C 0.13443 0.26614 0.8112 0.0
C130 C 0.05445 0.26735 0.79551 0.0
C131 C 0.15838 0.26557 0.80553 0.0
C132 C 0.17897 0.2732 0.79193 0.0
C133 C 0.15566 0.27345 0.79713 0.0
C134 C 0.2078 0.25685 0.80347 0.0
C135 C 0.20536 0.26491 0.79505 0.0
C136 C 0.18455 0.25721 0.80865 0.0
C137 C 0.05441 0.26778 0.83266 0.0
C138 C 0.0852 0.27267 0.84466 0.0
C139 C 0.03582 0.2636 0.8466 0.0
C140 C 0.03185 0.26332 0.83799 0.0
C141 C 0.06252 0.26841 0.85005 0.0
C142 C 0.08117 0.27235 0.83603 0.0
C143 C 0.04946 0.26775 0.82363 0.0
O144 O 0.06308 0.29018 0.79915 0.0
O145 O 0.06229 0.24438 0.79948 0.0
O146 O 0.05621 0.24467 0.81987 0.0
O147 O 0.05713 0.29049 0.81954 0.0
H148 H 1.00676 0.2614 0.80456 0.0
H149 H 0.95842 0.26184 0.79932 0.0
H150 H 0.98873 0.27416 0.77434 0.0
H151 H 0.03684 0.27409 0.77966 0.0
H152 H 0.17627 0.27923 0.78546 0.0
H153 H 0.13556 0.27984 0.7946 0.0
H154 H 0.22782 0.25072 0.8061 0.0
H155 H 0.18707 0.25111 0.81512 0.0
H156 H 0.10598 0.27668 0.84709 0.0
H157 H 1.01798 0.25974 0.85054 0.0
H158 H 1.01107 0.25961 0.8355 0.0
H159 H 0.09887 0.27583 0.832 0.0
C160 C 0.08004 0.21544 0.99703 0.0
C161 C 0.07567 0.19325 0.9916 0.0
C162 C 0.07954 0.15969 1.00316 0.0
C163 C 0.07536 0.16562 0.99464 0.0
C164 C 0.08398 0.1821 1.00855 0.0
C165 C 0.0842 0.20967 1.00551 0.0
U166 U 0.08141 0.27018 0.97939 0.0
O167 O 0.05899 0.31002 0.978 0.0
O168 O 0.10485 0.30981 0.97843 0.0
C169 C 0.08205 0.32503 0.97829 0.0
C170 C 0.08037 0.24464 0.99398 0.0
C171 C 0.08197 0.34884 0.98395 0.0
C172 C 0.07185 0.36928 0.99728 0.0
C173 C 0.07225 0.34608 0.99211 0.0
C174 C 0.09126 0.39806 0.98622 0.0
C175 C 0.08132 0.3956 0.99439 0.0
C176 C 0.09154 0.37493 0.98106 0.0
C177 C 0.08291 0.24557 0.95682 0.0
C178 C 0.07474 0.27513 0.94458 0.0
C179 C 0.09208 0.22808 0.94307 0.0
C180 C 0.09178 0.22415 0.95169 0.0
C181 C 0.08346 0.25357 0.93939 0.0
C182 C 0.07456 0.2712 0.95322 0.0
C183 C 0.08222 0.24049 0.96586 0.0
O184 O 0.10358 0.25289 0.99037 0.0
O185 O 0.05775 0.25304 0.98997 0.0
O186 O 0.05907 0.24759 0.96958 0.0
O187 O 0.10492 0.2475 0.96999 0.0
H188 H 0.07256 0.19731 0.98502 0.0
H189 H 0.07221 0.14889 0.9903 0.0
H190 H 0.08689 0.17836 1.01515 0.0
H191 H 0.08756 0.22654 1.00979 0.0
H192 H 0.06436 0.36657 1.00356 0.0
H193 H 0.06491 0.32605 0.99448 0.0
H194 H 0.09836 0.41803 0.98374 0.0
H195 H 0.09908 0.37748 0.97477 0.0
H196 H 0.06827 0.29511 0.94196 0.0
H197 H 0.09855 0.2109 0.93927 0.0
H198 H 0.09826 0.20421 0.95435 0.0
H199 H 0.06778 0.28807 0.95709 0.0
C200 C 0.12716 0.76757 0.24708 0.0
C201 C 0.14966 0.76412 0.24169 0.0
C202 C 0.1827 0.76852 0.25324 0.0
C203 C 0.17719 0.76453 0.24474 0.0
C204 C 0.15998 0.7721 0.25859 0.0
C205 C 0.13251 0.77161 0.25553 0.0
U206 U 0.07294 0.76625 0.22944 0.0
O207 O 0.0337 0.74223 0.22843 0.0
O208 O 0.03273 0.78804 0.22814 0.0
C209 C 1.01809 0.76474 0.22838 0.0
C210 C 0.09805 0.76687 0.24402 0.0
C211 C 0.99424 0.76411 0.23409 0.0
C212 C 0.97396 0.7719 0.24762 0.0
C213 C 0.99717 0.77211 0.24239 0.0
C214 C 0.94481 0.75531 0.23636 0.0
C215 C 0.94746 0.76353 0.24466 0.0
C216 C 0.96797 0.75562 0.23113 0.0
C217 C 0.09807 0.76713 0.20686 0.0
C218 C 0.06772 0.76047 0.19485 0.0
C219 C 0.11623 0.77352 0.19293 0.0
C220 C 0.1202 0.77364 0.20153 0.0
C221 C 0.08998 0.76682 0.18946 0.0
C222 C 0.07174 0.76064 0.20347 0.0
C223 C 0.10302 0.76717 0.21589 0.0
O224 O 0.0894 0.78958 0.24008 0.0
O225 O 0.09031 0.74379 0.24035 0.0
O226 O 0.09636 0.74406 0.21995 0.0
O227 O 0.09531 0.78986 0.21969 0.0
H228 H 0.14591 0.76109 0.23512 0.0
H229 H 0.19416 0.76204 0.24043 0.0
H230 H 0.1634 0.77484 0.26518 0.0
H231 H 0.11539 0.77425 0.25979 0.0
H232 H 0.97681 0.77806 0.254 0.0
H233 H 1.01735 0.7786 0.2448 0.0
H234 H 0.92471 0.7491 0.23383 0.0
H235 H 0.96529 0.74943 0.22474 0.0
H236 H 0.04731 0.75496 0.1924 0.0
H237 H 0.1337 0.77901 0.189 0.0
H238 H 0.14064 0.77886 0.20404 0.0
H239 H 0.05437 0.75558 0.2075 0.0
C240 C 0.57608 0.71472 0.49694 0.0
C241 C 0.5733 0.69256 0.49142 0.0
C242 C 0.57582 0.65891 0.50299 0.0
C243 C 0.57313 0.66488 0.49442 0.0
C244 C 0.57857 0.68132 0.50847 0.0
C245 C 0.57869 0.70893 0.50546 0.0
U246 U 0.57577 0.76986 0.47939 0.0
O247 O 0.55358 0.80989 0.47834 0.0
O248 O 0.59945 0.80936 0.4783 0.0
C249 C 0.57678 0.82471 0.47855 0.0
C250 C 0.5764 0.74395 0.49392 0.0
C251 C 0.57758 0.84812 0.48439 0.0
C252 C 0.56182 0.87087 0.49687 0.0
C253 C 0.56154 0.84783 0.49165 0.0
C254 C 0.59471 0.89447 0.48779 0.0
C255 C 0.57833 0.89452 0.49498 0.0
C256 C 0.59425 0.87154 0.48254 0.0
C257 C 0.57323 0.74591 0.45674 0.0
C258 C 0.58084 0.77596 0.44462 0.0
C259 C 0.56299 0.72897 0.44293 0.0
C260 C 0.5639 0.72467 0.45153 0.0
C261 C 0.57144 0.75466 0.43935 0.0
C262 C 0.58163 0.77166 0.45325 0.0
C263 C 0.57405 0.7406 0.46578 0.0
O264 O 0.59917 0.75196 0.49005 0.0
O265 O 0.55336 0.75268 0.49021 0.0
O266 O 0.55159 0.74781 0.46982 0.0
O267 O 0.59744 0.7473 0.46962 0.0
H268 H 0.57135 0.69667 0.48481 0.0
H269 H 0.57128 0.64816 0.49003 0.0
H270 H 0.58028 0.67755 0.5151 0.0
H271 H 0.58079 0.7258 0.50981 0.0
H272 H 0.54923 0.87012 0.50241 0.0
H273 H 0.54864 0.82992 0.49325 0.0
H274 H 0.60743 0.91243 0.4861 0.0
H275 H 0.60674 0.87223 0.47697 0.0
H276 H 0.58722 0.79607 0.44207 0.0
H277 H 0.55602 0.71199 0.43907 0.0
H278 H 0.55739 0.70465 0.45412 0.0
H279 H 0.58877 0.78838 0.45718 0.0
C280 C 0.63245 0.26483 0.747 0.0
C281 C 0.65486 0.26823 0.74152 0.0
C282 C 0.6881 0.26425 0.75308 0.0
C283 C 0.68244 0.268 0.74453 0.0
C284 C 0.66547 0.26071 0.75852 0.0
C285 C 0.63794 0.26102 0.7555 0.0
U286 U 0.57836 0.26606 0.72936 0.0
O287 O 0.53795 0.2443 0.72825 0.0
O288 O 0.53937 0.29012 0.72799 0.0
C289 C 0.52354 0.26762 0.72817 0.0
C290 C 0.6033 0.2654 0.74397 0.0
C291 C 0.49952 0.2683 0.73381 0.0
C292 C 0.47875 0.26076 0.74739 0.0
C293 C 0.50213 0.26045 0.74222 0.0
C294 C 0.4501 0.27714 0.73582 0.0
C295 C 0.45242 0.26909 0.74425 0.0
C296 C 0.47341 0.27672 0.73067 0.0
C297 C 0.60406 0.26571 0.70684 0.0
C298 C 0.57326 0.26809 0.69474 0.0
C299 C 0.62337 0.26511 0.69297 0.0
C300 C 0.62712 0.26444 0.70158 0.0
C301 C 0.59642 0.26708 0.68943 0.0
C302 C 0.57706 0.26745 0.70338 0.0
C303 C 0.60876 0.26539 0.71588 0.0
O304 O 0.59564 0.28849 0.74004 0.0
O305 O 0.59453 0.24269 0.74028 0.0
O306 O 0.60066 0.24264 0.71988 0.0
O307 O 0.60218 0.28844 0.71968 0.0
H308 H 0.651 0.27109 0.73492 0.0
H309 H 0.69934 0.27045 0.74016 0.0
H310 H 0.669 0.25815 0.76513 0.0
H311 H 0.62089 0.25842 0.75982 0.0
H312 H 0.48136 0.25474 0.75386 0.0
H313 H 0.52218 0.25401 0.74477 0.0
H314 H 0.43012 0.2833 0.73316 0.0
H315 H 0.47098 0.2828 0.72419 0.0
H316 H 0.55225 0.26987 0.69223 0.0
H317 H 0.64163 0.26382 0.68909 0.0
H318 H 0.6481 0.26297 0.70415 0.0
H319 H 0.559 0.26847 0.70736 0.0
H320 H 0.0399 0.4111 1.00499 0.0
H321 H 0.03814 0.45294 1.01346 0.0
H322 H 0.11919 0.47824 1.00452 0.0
H323 H 0.12114 0.43651 0.99605 0.0
H324 H 0.07382 0.47102 0.02599 0.0
H325 H 0.07218 0.54761 0.99969 0.0
H326 H 0.06596 0.51078 0.99832 0.0
H327 H 0.10104 0.5238 0.99955 0.0
C328 C 0.05745 0.42546 1.00487 0.0
C329 C 0.08058 0.42051 0.99978 0.0
C330 C 0.05635 0.44944 1.00968 0.0
C331 C 0.07828 0.46903 1.0095 0.0
C332 C 0.10168 0.46383 1.00459 0.0
H333 H 0.11171 0.62584 0.03423 0.0
H334 H 0.11343 0.58407 0.02573 0.0
C335 C 0.10277 0.43992 0.99976 0.0
C336 C 0.07686 0.49467 1.01454 0.0
H337 H 0.07773 0.56602 1.01317 0.0
C338 C 0.07453 0.49179 0.02319 0.0
C339 C 0.07786 0.52179 1.01087 0.0
C340 C 0.07914 0.5263 1.00159 0.0
C341 C 0.07369 0.51525 0.02829 0.0
C342 C 0.07469 0.54237 0.02463 0.0
C343 C 0.07702 0.54525 1.01597 0.0
C344 C 0.07326 0.56801 0.02966 0.0
C345 C 0.07241 0.51075 0.03757 0.0
C346 C 0.04985 0.5732 0.03456 0.0
C347 C 0.04877 0.59708 0.03941 0.0
C348 C 0.071 0.61644 0.03942 0.0
C349 C 0.09414 0.61151 0.03433 0.0
C350 C 0.09522 0.58757 0.0295 0.0
H351 H 0.07934 0.48942 0.03947 0.0
H352 H 0.0856 0.52625 0.04084 0.0
H353 H 0.05051 0.51326 0.03961 0.0
H354 H 0.03232 0.55881 0.03462 0.0
H355 H 0.0304 0.60047 0.04312 0.0
H356 H 0.9327 0.80307 0.25588 0.0
H357 H 0.89106 0.80374 0.26458 0.0
H358 H 0.8637 0.72562 0.25435 0.0
H359 H 0.90556 0.7244 0.2458 0.0
H360 H 0.83488 0.80376 0.25933 0.0
H361 H 0.85798 0.71097 0.2794 0.0
H362 H 0.88424 0.72806 0.27311 0.0
H363 H 0.85946 0.70459 0.26847 0.0
C364 C 0.91805 0.7858 0.25557 0.0
C365 C 0.92256 0.76364 0.25015 0.0
C366 C 0.89416 0.78632 0.26051 0.0
C367 C 0.87442 0.76457 0.26019 0.0
C368 C 0.87886 0.7424 0.25481 0.0
H369 H 0.71463 0.73136 0.2839 0.0
H370 H 0.75628 0.73047 0.2752 0.0
C371 C 0.90268 0.7419 0.24985 0.0
C372 C 0.84872 0.76554 0.26529 0.0
H373 H 0.81258 0.73033 0.28042 0.0
C374 C 0.83006 0.78779 0.26398 0.0
C375 C 0.84241 0.74462 0.27132 0.0
C376 C 0.86216 0.72083 0.27324 0.0
C377 C 0.80505 0.78946 0.26844 0.0
C378 C 0.79875 0.76855 0.27447 0.0
C379 C 0.81739 0.74629 0.27578 0.0
C380 C 0.77309 0.76958 0.27958 0.0
C381 C 0.7853 0.81326 0.26652 0.0
C382 C 0.76875 0.79178 0.28496 0.0
C383 C 0.74493 0.79241 0.28991 0.0
C384 C 0.72495 0.77076 0.28962 0.0
C385 C 0.72937 0.74855 0.2842 0.0
C386 C 0.75326 0.74791 0.27927 0.0
H387 H 0.78946 0.82309 0.26035 0.0
H388 H 0.76322 0.80603 0.26665 0.0
H389 H 0.78803 0.82951 0.27127 0.0
H390 H 0.78398 0.80851 0.28541 0.0
H391 H 0.74212 0.80994 0.29396 0.0
H392 H 0.60413 0.42054 0.54108 0.0
H393 H 0.60408 0.46848 0.5355 0.0
H394 H 0.53855 0.44678 0.5182 0.0
H395 H 0.53785 0.39906 0.52389 0.0
H396 H 0.61445 0.48658 0.51919 0.0
H397 H 0.50803 0.51707 0.52885 0.0
H398 H 0.52561 0.48661 0.53309 0.0
H399 H 0.50915 0.48553 0.52303 0.0
C400 C 0.58939 0.42606 0.53617 0.0
C401 C 0.57091 0.40592 0.53296 0.0
C402 C 0.58954 0.45343 0.53295 0.0
C403 C 0.57107 0.46133 0.5265 0.0
C404 C 0.55265 0.44131 0.52327 0.0
H405 H 0.54254 0.61532 0.49805 0.0
H406 H 0.54225 0.56721 0.50351 0.0
C407 C 0.55251 0.41393 0.52647 0.0
C408 C 0.57166 0.49028 0.523 0.0
H409 H 0.53173 0.54859 0.51978 0.0
C410 C 0.59641 0.5002 0.51935 0.0
C411 C 0.54808 0.50799 0.52319 0.0
C412 C 0.52127 0.49892 0.52731 0.0
C413 C 0.59809 0.52716 0.51578 0.0
C414 C 0.57452 0.54489 0.51598 0.0
C415 C 0.54976 0.53496 0.51961 0.0
C416 C 0.57523 0.57394 0.51255 0.0
C417 C 0.6249 0.53622 0.51165 0.0
C418 C 0.59372 0.59376 0.51585 0.0
C419 C 0.59405 0.62122 0.51271 0.0
C420 C 0.57576 0.62951 0.50623 0.0
C421 C 0.55718 0.60958 0.50295 0.0
C422 C 0.55685 0.58212 0.50611 0.0
H423 H 0.63804 0.51806 0.51007 0.0
H424 H 0.62057 0.5487 0.5059 0.0
H425 H 0.63712 0.54945 0.51596 0.0
H426 H 0.60777 0.58807 0.52092 0.0
H427 H 0.60879 0.63591 0.51534 0.0
H428 H 0.94664 0.30221 0.77431 0.0
H429 H 0.89883 0.30147 0.76878 0.0
H430 H 0.87849 0.23312 0.78549 0.0
H431 H 0.92629 0.23363 0.79105 0.0
H432 H 0.87046 0.25835 0.76103 0.0
H433 H 0.81585 0.28842 0.78968 0.0
H434 H 0.85314 0.29233 0.78848 0.0
H435 H 0.83831 0.25869 0.79101 0.0
C436 C 0.93204 0.28695 0.7768 0.0
C437 C 0.94034 0.26802 0.78315 0.0
C438 C 0.90467 0.28664 0.77365 0.0
C439 C 0.88494 0.26752 0.7768 0.0
C440 C 0.89315 0.2485 0.7831 0.0
H441 H 0.71106 0.23004 0.76516 0.0
H442 H 0.75888 0.2307 0.77069 0.0
C443 C 0.92051 0.24882 0.78627 0.0
C444 C 0.85602 0.267 0.77332 0.0
H445 H 0.7873 0.27378 0.77844 0.0
C446 C 0.85227 0.26186 0.76483 0.0
C447 C 0.8323 0.27152 0.77828 0.0
C448 C 0.835 0.27831 0.78735 0.0
C449 C 0.82545 0.26062 0.7612 0.0
C450 C 0.80173 0.26514 0.76616 0.0
C451 C 0.80548 0.27028 0.77465 0.0
C452 C 0.77282 0.26464 0.76267 0.0
C453 C 0.82275 0.25383 0.75212 0.0
C454 C 0.76463 0.28367 0.75637 0.0
C455 C 0.73726 0.28339 0.75321 0.0
C456 C 0.71741 0.26422 0.75633 0.0
C457 C 0.72569 0.24528 0.76267 0.0
C458 C 0.75306 0.24555 0.76582 0.0
H459 H 0.8419 0.2437 0.74979 0.0
H460 H 0.8046 0.23983 0.75099 0.0
H461 H 0.81946 0.27345 0.74847 0.0
H462 H 0.7793 0.29904 0.75398 0.0
H463 H 0.7315 0.2986 0.74843 0.0
H464 H 0.43704 0.22997 0.75604 0.0
H465 H 0.39497 0.22941 0.76457 0.0
H466 H 0.36902 0.30762 0.75328 0.0
H467 H 0.411 0.30839 0.74476 0.0
H468 H 0.3762 0.26766 0.77601 0.0
H469 H 0.30025 0.25826 0.74994 0.0
H470 H 0.33721 0.25239 0.74873 0.0
H471 H 0.3238 0.28739 0.7489 0.0
C472 C 0.42249 0.24716 0.75541 0.0
C473 C 0.42733 0.26913 0.74966 0.0
C474 C 0.39838 0.24674 0.76026 0.0
C475 C 0.37856 0.26819 0.75945 0.0
C476 C 0.38363 0.29046 0.75386 0.0
H477 H 0.22057 0.30408 0.78324 0.0
H478 H 0.26257 0.30472 0.77469 0.0
C479 C 0.40768 0.29088 0.749 0.0
C480 C 0.35279 0.26747 0.76453 0.0
H481 H 0.28142 0.26656 0.76322 0.0
C482 C 0.35548 0.26728 0.77322 0.0
C483 C 0.32574 0.26704 0.76088 0.0
C484 C 0.32146 0.26602 0.75161 0.0
C485 C 0.33189 0.26718 0.77834 0.0
C486 C 0.30484 0.26673 0.77469 0.0
C487 C 0.30214 0.26694 0.76601 0.0
C488 C 0.27907 0.26595 0.77978 0.0
C489 C 0.33616 0.2682 0.78762 0.0
C490 C 0.27406 0.24365 0.78536 0.0
C491 C 0.25005 0.24318 0.79024 0.0
C492 C 0.23037 0.26491 0.7896 0.0
C493 C 0.23513 0.2869 0.78385 0.0
C494 C 0.25921 0.28737 0.77898 0.0
H495 H 0.35736 0.276 0.78929 0.0
H496 H 0.32039 0.2818 0.7905 0.0
H497 H 0.33387 0.24683 0.79033 0.0
H498 H 0.2887 0.22651 0.78593 0.0
H499 H 0.24679 0.22566 0.79448 0.0
H500 H 0.22618 0.73442 0.24913 0.0
H501 H 0.27385 0.73433 0.25481 0.0
H502 H 0.25319 0.80298 0.27048 0.0
H503 H 0.20557 0.8033 0.26482 0.0
H504 H 0.31418 0.77645 0.25475 0.0
H505 H 0.28614 0.74611 0.28702 0.0
H506 H 0.26191 0.74309 0.27842 0.0
H507 H 0.26812 0.77643 0.28305 0.0
C508 C 0.23181 0.74964 0.25374 0.0
C509 C 0.21194 0.76876 0.25655 0.0
C510 C 0.25905 0.74946 0.25701 0.0
C511 C 0.26697 0.7683 0.26318 0.0
C512 C 0.24737 0.78776 0.26588 0.0
H513 H 0.42131 0.8018 0.29033 0.0
H514 H 0.37363 0.80187 0.28466 0.0
C515 C 0.22014 0.78793 0.26263 0.0
C516 C 0.29587 0.76792 0.26668 0.0
H517 H 0.33326 0.75968 0.28475 0.0
C518 C 0.31837 0.77264 0.2613 0.0
C519 C 0.30132 0.76301 0.27523 0.0
C520 C 0.27815 0.75662 0.28127 0.0
C521 C 0.34612 0.77311 0.26426 0.0
C522 C 0.35156 0.76821 0.27282 0.0
C523 C 0.32906 0.76348 0.2782 0.0
C524 C 0.38047 0.76783 0.27631 0.0
C525 C 0.3693 0.7795 0.25823 0.0
C526 C 0.40004 0.74833 0.27362 0.0
C527 C 0.42729 0.74817 0.27686 0.0
C528 C 0.43552 0.76739 0.28293 0.0
C529 C 0.41566 0.78655 0.28573 0.0
C530 C 0.38842 0.78672 0.28246 0.0
H531 H 0.3613 0.78997 0.25247 0.0
H532 H 0.38552 0.79304 0.26107 0.0
H533 H 0.37934 0.75968 0.25646 0.0
H534 H 0.3942 0.73308 0.26903 0.0
H535 H 0.44184 0.73277 0.27468 0.0
H536 H 0.62303 0.92593 0.50013 0.0
H537 H 0.62256 0.96744 0.50874 0.0
H538 H 0.53285 0.96127 0.5105 0.0
H539 H 0.53323 0.91957 0.50198 0.0
H540 H 0.59791 1.01742 0.50592 0.0
H541 H 0.55464 0.96895 0.53457 0.0
H542 H 0.56717 0.9485 0.52611 0.0
H543 H 0.53288 0.96378 0.52559 0.0
C544 C 0.6032 0.93339 0.50237 0.0
C545 C 0.57818 0.91934 0.5004 0.0
C546 C 0.60297 0.95708 0.50731 0.0
C547 C 0.57773 0.96727 0.5104 0.0
C548 C 0.55268 0.95341 0.50839 0.0
H549 H 0.53308 0.11462 0.53809 0.0
H550 H 0.53301 0.07295 0.5295 0.0
C551 C 0.55291 0.92959 0.5035 0.0
C552 C 0.57758 0.99292 0.51547 0.0
H553 H 0.55741 1.0186 0.53411 0.0
C554 C 0.58919 1.01761 0.5121 0.0
C555 C 0.56619 0.99323 0.52354 0.0
C556 C 0.55476 0.96714 0.52771 0.0
C557 C 0.58937 0.04261 0.51652 0.0
C558 C 0.57781 0.04291 0.52455 0.0
C559 C 0.56614 1.01831 0.52793 0.0
C560 C 0.57798 0.0685 0.5296 0.0
C561 C 0.60151 0.06865 0.51253 0.0
C562 C 0.60327 0.0797 0.53254 0.0
C563 C 0.60338 0.10346 0.53746 0.0
C564 C 0.57818 0.11653 0.53952 0.0
C565 C 0.55287 0.10528 0.53653 0.0
C566 C 0.55277 0.08138 0.53167 0.0
H567 H 0.60411 0.06644 0.50573 0.0
H568 H 0.58801 0.08697 0.51364 0.0
H569 H 0.62237 0.07289 0.51532 0.0
H570 H 0.62294 0.06989 0.5311 0.0
H571 H 0.62324 0.11169 0.53961 0.0
H572 H 0.10722 0.91997 0.04077 0.0
H573 H 0.10795 0.96803 0.03526 0.0
H574 H 0.0382 0.94922 1.01913 0.0
H575 H 0.03683 0.90142 0.02475 0.0
H576 H 0.11553 0.98614 1.01876 0.0
H577 H 1.01283 0.02037 0.03049 0.0
H578 H 0.03012 0.98923 0.03436 0.0
H579 H 1.01142 0.98889 0.02463 0.0
C580 C 0.09177 0.92616 0.03614 0.0
C581 C 0.0719 0.90681 0.03323 0.0
C582 C 0.09234 0.95359 0.03296 0.0
C583 C 0.07291 0.96234 0.02686 0.0
C584 C 0.0531 0.9431 0.02393 0.0
H585 H 0.04395 0.1171 0.99889 0.0
H586 H 0.04319 0.06909 1.00443 0.0
C587 C 0.05255 0.91566 0.02709 0.0
C588 C 0.07388 0.99134 0.02339 0.0
H589 H 0.03556 0.05108 0.02096 0.0
C590 C 0.09811 1.0004 1.01928 0.0
C591 C 0.0511 1.0099 0.02405 0.0
C592 C 0.02497 1.00177 0.02869 0.0
C593 C 0.09999 0.02732 1.01568 0.0
C594 C 0.0772 0.04588 1.01633 0.0
C595 C 0.05298 0.03682 0.02044 0.0
C596 C 0.07816 0.07486 1.01285 0.0
C597 C 0.12611 0.03546 1.01104 0.0
C598 C 0.09794 0.09414 1.01578 0.0
C599 C 0.09851 0.12154 1.0126 0.0
C600 C 0.07921 0.13033 1.00644 0.0
C601 C 0.05936 0.11096 1.00354 0.0
C602 C 0.05878 0.08356 1.00674 0.0
H603 H 0.13829 1.01686 1.00925 0.0
H604 H 0.12096 0.04795 1.00536 0.0
H605 H 0.13964 0.04839 1.01509 0.0
H606 H 0.11282 0.08805 0.02059 0.0
H607 H 0.11422 0.13581 1.01493 0.0
H608 H 0.12599 0.74738 0.1778 0.0
H609 H 0.12045 0.74894 0.16271 0.0
H610 H 0.03908 0.78601 0.16514 0.0
H611 H 0.04485 0.78548 0.18025 0.0
H612 H 0.08002 0.72472 0.15256 0.0
H613 H 0.07826 0.84038 0.14921 0.0
H614 H 0.08931 0.82271 0.15867 0.0
H615 H 0.05274 0.82607 0.15621 0.0
C616 C 0.10702 0.75617 0.17514 0.0
C617 C 0.08599 0.76658 0.18027 0.0
C618 C 0.10381 0.75683 0.1665 0.0
C619 C 0.07956 0.768 0.16278 0.0
C620 C 0.05821 0.77778 0.16787 0.0
H621 H 0.02895 0.79659 0.11123 0.0
H622 H 0.03074 0.7919 0.12637 0.0
C623 C 0.06141 0.77716 0.17652 0.0
C624 C 0.07673 0.76934 0.15359 0.0
H625 H 0.0693 0.81471 0.13708 0.0
C626 C 0.0777 0.74439 0.14917 0.0
C627 C 0.0737 0.79502 0.14917 0.0
C628 C 0.07368 0.82261 0.15353 0.0
C629 C 0.07542 0.74439 0.14046 0.0
C630 C 0.07258 0.77009 0.13604 0.0
C631 C 0.07142 0.79501 0.14047 0.0
C632 C 0.07112 0.77173 0.12682 0.0
C633 C 0.07556 0.71682 0.13609 0.0
C634 C 0.09327 0.76206 0.12202 0.0
C635 C 0.09232 0.76474 0.11336 0.0
C636 C 0.06931 0.77743 0.10931 0.0
C637 C 0.04712 0.78699 0.11415 0.0
C638 C 0.04805 0.78423 0.1228 0.0
H639 H 0.06995 0.6992 0.14035 0.0
H640 H 0.06076 0.71702 0.13074 0.0
H641 H 0.09685 0.71291 0.13373 0.0
H642 H 0.1116 0.75297 0.12498 0.0
H643 H 0.10998 0.75759 0.10984 0.0
H644 H 0.61047 0.7803 0.42938 0.0
H645 H 0.60912 0.78612 0.41423 0.0
H646 H 0.52941 0.74387 0.41341 0.0
H647 H 0.53025 0.73858 0.42852 0.0
H648 H 0.60581 0.74388 0.40232 0.0
H649 H 0.51511 0.81524 0.39958 0.0
H650 H 0.53369 0.80906 0.40925 0.0
H651 H 0.50826 0.78418 0.40567 0.0
C652 C 0.59246 0.77262 0.42599 0.0
C653 C 0.57044 0.75901 0.43017 0.0
C654 C 0.59181 0.77581 0.41733 0.0
C655 C 0.56901 0.76574 0.4127 0.0
C656 C 0.547 0.75222 0.41686 0.0
H657 H 0.51991 0.74864 0.36153 0.0
H658 H 0.52475 0.74831 0.37663 0.0
C659 C 0.54766 0.74895 0.4255 0.0
C660 C 0.56855 0.76844 0.4035 0.0
H661 H 0.52999 0.79417 0.38712 0.0
C662 C 0.58942 0.75511 0.39899 0.0
C663 C 0.54714 0.78311 0.39916 0.0
C664 C 0.52491 0.79895 0.40365 0.0
C665 C 0.58888 0.75521 0.39026 0.0
C666 C 0.56714 0.76942 0.38593 0.0
C667 C 0.54659 0.78319 0.39044 0.0
C668 C 0.56475 0.76953 0.37673 0.0
C669 C 0.61101 0.73929 0.38576 0.0
C670 C 0.58557 0.78174 0.37175 0.0
C671 C 0.5828 0.7821 0.36308 0.0
C672 C 0.55905 0.77042 0.35923 0.0
C673 C 0.53827 0.7582 0.36427 0.0
C674 C 0.54106 0.75786 0.37291 0.0
H675 H 0.6223 0.72439 0.38996 0.0
H676 H 0.60168 0.72753 0.38054 0.0
H677 H 0.62653 0.75426 0.38315 0.0
H678 H 0.60377 0.79135 0.37456 0.0
H679 H 0.599 0.79204 0.35941 0.0
H680 H 0.54442 0.25317 0.61004 0.0
H681 H 0.54515 0.24925 0.62523 0.0
H682 H 0.61699 0.30383 0.62609 0.0
H683 H 0.61651 0.30776 0.61096 0.0
H684 H 0.58712 0.23059 0.63628 0.0
H685 H 0.56202 0.34177 0.64146 0.0
H686 H 0.55766 0.32575 0.63148 0.0
H687 H 0.5917 0.33703 0.63492 0.0
C688 C 0.56052 0.26416 0.61346 0.0
C689 C 0.58024 0.28101 0.60927 0.0
C690 C 0.56082 0.26199 0.62214 0.0
C691 C 0.58076 0.27671 0.6268 0.0
C692 C 0.60094 0.29288 0.62264 0.0
H693 H 0.62795 0.29607 0.67806 0.0
H694 H 0.62285 0.29708 0.66296 0.0
C695 C 0.60064 0.29509 0.61397 0.0
C696 C 0.58072 0.27506 0.63602 0.0
H697 H 0.5773 0.31514 0.65328 0.0
C698 C 0.58472 0.24901 0.64001 0.0
C699 C 0.5775 0.29912 0.64087 0.0
C700 C 0.57171 0.32747 0.63698 0.0
C701 C 0.58659 0.24654 0.64871 0.0
C702 C 0.58394 0.2707 0.65355 0.0
C703 C 0.57943 0.29665 0.64956 0.0
C704 C 0.58675 0.26974 0.66274 0.0
C705 C 0.59233 0.21824 0.65263 0.0
C706 C 0.56791 0.25431 0.66766 0.0
C707 C 0.57087 0.25355 0.67632 0.0
C708 C 0.59269 0.26829 0.68023 0.0
C709 C 0.61122 0.28407 0.67527 0.0
C710 C 0.60822 0.28483 0.66663 0.0
H711 H 0.60011 0.20318 0.64804 0.0
H712 H 0.60796 0.21987 0.65774 0.0
H713 H 0.5727 0.20967 0.65528 0.0
H714 H 0.55087 0.24291 0.6648 0.0
H715 H 0.55631 0.24109 0.67994 0.0
H716 H 0.04335 0.27885 0.92957 0.0
H717 H 0.04185 0.28278 0.9144 0.0
H718 H 0.12114 0.24072 0.9132 0.0
H719 H 0.12286 0.23677 0.92835 0.0
H720 H 0.07899 0.30795 0.90314 0.0
H721 H 0.07097 0.19375 0.8982 0.0
H722 H 0.06561 0.20905 0.90819 0.0
H723 H 0.10043 0.20411 0.90443 0.0
C724 C 0.06061 0.27067 0.92609 0.0
C725 C 0.08312 0.25728 0.93019 0.0
C726 C 0.05966 0.27283 0.91741 0.0
C727 C 0.08112 0.26157 0.91266 0.0
C728 C 0.104 0.24893 0.91673 0.0
H729 H 0.10583 0.24646 0.85939 0.0
H730 H 0.11158 0.24645 0.87451 0.0
C731 C 0.10495 0.24671 0.9254 0.0
C732 C 0.07951 0.26299 0.90344 0.0
H733 H 0.07662 0.22255 0.88622 0.0
C734 C 0.07841 0.28929 0.89944 0.0
C735 C 0.07881 0.23862 0.89861 0.0
C736 C 0.07876 0.20976 0.90256 0.0
C737 C 0.07699 0.29189 0.89074 0.0
C738 C 0.07612 0.26751 0.88592 0.0
C739 C 0.07738 0.24122 0.88992 0.0
C740 C 0.07322 0.26871 0.87672 0.0
C741 C 0.07693 0.32073 0.88679 0.0
C742 C 0.04968 0.28112 0.87293 0.0
C743 C 0.04643 0.28134 0.8643 0.0
C744 C 0.06653 0.26893 0.85924 0.0
C745 C 0.09013 0.25655 0.86307 0.0
C746 C 0.09337 0.25635 0.87171 0.0
H747 H 0.08568 0.33656 0.89106 0.0
H748 H 0.08916 0.32127 0.88097 0.0
H749 H 0.05509 0.32677 0.88524 0.0
H750 H 0.03358 0.2903 0.87666 0.0
H751 H 0.02814 0.29131 0.86158 0.0
loop_
_geom_bond_atom_site_label_1
_geom_bond_atom_site_label_2
_geom_bond_distance
_geom_bond_site_symmetry_2
_ccdc_geom_bond_type
C0 C1 1.264 . S
C0 C5 1.479 . S
C0 C10 1.465 . S
C1 C0 1.264 . S
C1 C3 1.339 . S
C1 H28 0.931 . S
C2 C3 1.395 . S
C2 C4 1.320 . S
C3 C1 1.339 . S
C3 C2 1.395 . S
C3 H29 0.929 . S
C4 C2 1.320 . S
C4 C5 1.405 . S
C4 H30 0.930 . S
C5 C0 1.479 . S
C5 C4 1.405 . S
C5 H31 0.931 . S
U6 O7 2.454 . S
U6 O8 2.458 . S
U6 C9 2.984 . S
U6 C10 2.847 . S
U6 C23 2.882 . S
U6 O24 2.441 . S
U6 O25 2.420 . S
U6 O26 2.455 . S
U6 O27 2.449 . S
O7 U6 2.454 . S
O7 C9 1.353 . S
O8 U6 2.458 . S
O8 C9 1.286 . S
C9 U6 2.984 . S
C9 O7 1.353 . S
C9 O8 1.286 . S
C9 C11 1.363 . S
C10 C0 1.465 . S
C10 U6 2.847 . S
C10 O24 1.249 . S
C10 O25 1.202 . S
C11 C9 1.363 . S
C11 C13 1.408 . S
C11 C16 1.342 . S
C12 C13 1.310 . S
C12 C15 1.461 . S
C12 H32 0.932 . S
C13 C11 1.408 . S
C13 C12 1.310 . S
C13 H33 0.930 . S
C14 C15 1.474 . S
C14 C16 1.285 . S
C14 H34 0.929 . S
C15 C12 1.461 . S
C15 C14 1.474 . S
C16 C11 1.342 . S
C16 C14 1.285 . S
C16 H35 0.930 . S
C17 C20 1.424 . S
C17 C22 1.245 . S
C17 C23 1.428 . S
C18 C21 1.260 . S
C18 C22 1.477 . S
C18 H36 0.932 . S
C19 C20 1.384 . S
C19 C21 1.479 . S
C19 H37 0.929 . S
C20 C17 1.424 . S
C20 C19 1.384 . S
C20 H38 0.928 . S
C21 C18 1.260 . S
C21 C19 1.479 . S
C22 C17 1.245 . S
C22 C18 1.477 . S
C22 H39 0.932 . S
C23 U6 2.882 . S
C23 C17 1.428 . S
C23 O26 1.301 . S
C23 O27 1.282 . S
O24 U6 2.441 . S
O24 C10 1.249 . S
O25 U6 2.420 . S
O25 C10 1.202 . S
O26 U6 2.455 . S
O26 C23 1.301 . S
O27 U6 2.449 . S
O27 C23 1.282 . S
H28 C1 0.931 . S
H29 C3 0.929 . S
H30 C4 0.930 . S
H31 C5 0.931 . S
H32 C12 0.932 . S
H33 C13 0.930 . S
H34 C14 0.929 . S
H35 C16 0.930 . S
H36 C18 0.932 . S
H37 C19 0.929 . S
H38 C20 0.928 . S
H39 C22 0.932 . S
C40 C41 1.264 . S
C40 C45 1.479 . S
C40 C50 1.465 . S
C41 C40 1.264 . S
C41 C43 1.339 . S
C41 H68 0.931 . S
C42 C43 1.395 . S
C42 C44 1.320 . S
C43 C41 1.339 . S
C43 C42 1.395 . S
C43 H69 0.929 . S
C44 C42 1.320 . S
C44 C45 1.405 . S
C44 H70 0.930 . S
C45 C40 1.479 . S
C45 C44 1.405 . S
C45 H71 0.931 . S
U46 O47 2.454 . S
U46 O48 2.458 . S
U46 C49 2.984 . S
U46 C50 2.847 . S
U46 C63 2.882 . S
U46 O64 2.441 . S
U46 O65 2.420 . S
U46 O66 2.455 . S
U46 O67 2.449 . S
O47 U46 2.454 . S
O47 C49 1.353 . S
O48 U46 2.458 . S
O48 C49 1.286 . S
C49 U46 2.984 . S
C49 O47 1.353 . S
C49 O48 1.286 . S
C49 C51 1.363 . S
C50 C40 1.465 . S
C50 U46 2.847 . S
C50 O64 1.249 . S
C50 O65 1.202 . S
C51 C49 1.363 . S
C51 C53 1.408 . S
C51 C56 1.342 . S
C52 C53 1.310 . S
C52 C55 1.461 . S
C52 H72 0.932 . S
C53 C51 1.408 . S
C53 C52 1.310 . S
C53 H73 0.930 . S
C54 C55 1.474 . S
C54 C56 1.285 . S
C54 H74 0.929 . S
C55 C52 1.461 . S
C55 C54 1.474 . S
C56 C51 1.342 . S
C56 C54 1.285 . S
C56 H75 0.930 . S
C57 C60 1.424 . S
C57 C62 1.245 . S
C57 C63 1.428 . S
C58 C61 1.260 . S
C58 C62 1.477 . S
C58 H76 0.932 . S
C59 C60 1.384 . S
C59 C61 1.479 . S
C59 H77 0.929 . S
C60 C57 1.424 . S
C60 C59 1.384 . S
C60 H78 0.928 . S
C61 C58 1.260 . S
C61 C59 1.479 . S
C62 C57 1.245 . S
C62 C58 1.477 . S
C62 H79 0.932 . S
C63 U46 2.882 . S
C63 C57 1.428 . S
C63 O66 1.301 . S
C63 O67 1.282 . S
O64 U46 2.441 . S
O64 C50 1.249 . S
O65 U46 2.420 . S
O65 C50 1.202 . S
O66 U46 2.455 . S
O66 C63 1.301 . S
O67 U46 2.449 . S
O67 C63 1.282 . S
H68 C41 0.931 . S
H69 C43 0.929 . S
H70 C44 0.930 . S
H71 C45 0.931 . S
H72 C52 0.932 . S
H73 C53 0.930 . S
H74 C54 0.929 . S
H75 C56 0.930 . S
H76 C58 0.932 . S
H77 C59 0.929 . S
H78 C60 0.928 . S
H79 C62 0.932 . S
C80 C81 1.264 . S
C80 C85 1.479 . S
C80 C90 1.465 . S
C81 C80 1.264 . S
C81 C83 1.339 . S
C81 H108 0.931 . S
C82 C83 1.395 . S
C82 C84 1.320 . S
C83 C81 1.339 . S
C83 C82 1.395 . S
C83 H109 0.929 . S
C84 C82 1.320 . S
C84 C85 1.405 . S
C84 H110 0.930 . S
C85 C80 1.479 . S
C85 C84 1.405 . S
C85 H111 0.931 . S
U86 O87 2.454 . S
U86 O88 2.458 . S
U86 C89 2.984 . S
U86 C90 2.847 . S
U86 C103 2.882 . S
U86 O104 2.441 . S
U86 O105 2.420 . S
U86 O106 2.455 . S
U86 O107 2.449 . S
O87 U86 2.454 . S
O87 C89 1.353 . S
O88 U86 2.458 . S
O88 C89 1.286 . S
C89 U86 2.984 . S
C89 O87 1.353 . S
C89 O88 1.286 . S
C89 C91 1.363 . S
C90 C80 1.465 . S
C90 U86 2.847 . S
C90 O104 1.249 . S
C90 O105 1.202 . S
C91 C89 1.363 . S
C91 C93 1.408 . S
C91 C96 1.342 . S
C92 C93 1.310 . S
C92 C95 1.461 . S
C92 H112 0.932 . S
C93 C91 1.408 . S
C93 C92 1.310 . S
C93 H113 0.930 . S
C94 C95 1.474 . S
C94 C96 1.285 . S
C94 H114 0.929 . S
C95 C92 1.461 . S
C95 C94 1.474 . S
C96 C91 1.342 . S
C96 C94 1.285 . S
C96 H115 0.930 . S
C97 C100 1.424 . S
C97 C102 1.245 . S
C97 C103 1.428 . S
C98 C101 1.260 . S
C98 C102 1.477 . S
C98 H116 0.932 . S
C99 C100 1.384 . S
C99 C101 1.479 . S
C99 H117 0.929 . S
C100 C97 1.424 . S
C100 C99 1.384 . S
C100 H118 0.928 . S
C101 C98 1.260 . S
C101 C99 1.479 . S
C102 C97 1.245 . S
C102 C98 1.477 . S
C102 H119 0.932 . S
C103 U86 2.882 . S
C103 C97 1.428 . S
C103 O106 1.301 . S
C103 O107 1.282 . S
O104 U86 2.441 . S
O104 C90 1.249 . S
O105 U86 2.420 . S
O105 C90 1.202 . S
O106 U86 2.455 . S
O106 C103 1.301 . S
O107 U86 2.449 . S
O107 C103 1.282 . S
H108 C81 0.931 . S
H109 C83 0.929 . S
H110 C84 0.930 . S
H111 C85 0.931 . S
H112 C92 0.932 . S
H113 C93 0.930 . S
H114 C94 0.929 . S
H115 C96 0.930 . S
H116 C98 0.932 . S
H117 C99 0.929 . S
H118 C100 0.928 . S
H119 C102 0.932 . S
C120 C121 1.264 . S
C120 C125 1.479 . S
C120 C130 1.465 1_655 S
C121 C120 1.264 . S
C121 C123 1.339 . S
C121 H148 0.931 . S
C122 C123 1.395 . S
C122 C124 1.320 . S
C123 C121 1.339 . S
C123 C122 1.395 . S
C123 H149 0.929 . S
C124 C122 1.320 . S
C124 C125 1.405 . S
C124 H150 0.930 . S
C125 C120 1.479 . S
C125 C124 1.405 . S
C125 H151 0.931 . S
U126 O127 2.454 . S
U126 O128 2.458 . S
U126 C129 2.984 . S
U126 C130 2.847 . S
U126 C143 2.882 . S
U126 O144 2.441 . S
U126 O145 2.420 . S
U126 O146 2.455 . S
U126 O147 2.449 . S
O127 U126 2.454 . S
O127 C129 1.353 . S
O128 U126 2.458 . S
O128 C129 1.286 . S
C129 U126 2.984 . S
C129 O127 1.353 . S
C129 O128 1.286 . S
C129 C131 1.363 . S
C130 C120 1.465 1_455 S
C130 U126 2.847 . S
C130 O144 1.249 . S
C130 O145 1.202 . S
C131 C129 1.363 . S
C131 C133 1.408 . S
C131 C136 1.342 . S
C132 C133 1.310 . S
C132 C135 1.461 . S
C132 H152 0.932 . S
C133 C131 1.408 . S
C133 C132 1.310 . S
C133 H153 0.930 . S
C134 C135 1.474 . S
C134 C136 1.285 . S
C134 H154 0.929 . S
C135 C132 1.461 . S
C135 C134 1.474 . S
C136 C131 1.342 . S
C136 C134 1.285 . S
C136 H155 0.930 . S
C137 C140 1.424 . S
C137 C142 1.245 . S
C137 C143 1.428 . S
C138 C141 1.260 . S
C138 C142 1.477 . S
C138 H156 0.932 . S
C139 C140 1.384 . S
C139 C141 1.479 . S
C139 H157 0.929 . S
C140 C137 1.424 . S
C140 C139 1.384 . S
C140 H158 0.928 . S
C141 C138 1.260 . S
C141 C139 1.479 . S
C142 C137 1.245 . S
C142 C138 1.477 . S
C142 H159 0.932 . S
C143 U126 2.882 . S
C143 C137 1.428 . S
C143 O146 1.301 . S
C143 O147 1.282 . S
O144 U126 2.441 . S
O144 C130 1.249 . S
O145 U126 2.420 . S
O145 C130 1.202 . S
O146 U126 2.455 . S
O146 C143 1.301 . S
O147 U126 2.449 . S
O147 C143 1.282 . S
H148 C121 0.931 . S
H149 C123 0.929 . S
H150 C124 0.930 . S
H151 C125 0.931 . S
H152 C132 0.932 . S
H153 C133 0.930 . S
H154 C134 0.929 . S
H155 C136 0.930 . S
H156 C138 0.932 . S
H157 C139 0.929 . S
H158 C140 0.928 . S
H159 C142 0.932 . S
C160 C161 1.264 . S
C160 C165 1.479 . S
C160 C170 1.465 . S
C161 C160 1.264 . S
C161 C163 1.339 . S
C161 H188 0.931 . S
C162 C163 1.395 . S
C162 C164 1.320 . S
C163 C161 1.339 . S
C163 C162 1.395 . S
C163 H189 0.929 . S
C164 C162 1.320 . S
C164 C165 1.405 . S
C164 H190 0.930 . S
C165 C160 1.479 . S
C165 C164 1.405 . S
C165 H191 0.931 . S
U166 O167 2.454 . S
U166 O168 2.458 . S
U166 C169 2.984 . S
U166 C170 2.847 . S
U166 C183 2.882 . S
U166 O184 2.441 . S
U166 O185 2.420 . S
U166 O186 2.455 . S
U166 O187 2.449 . S
O167 U166 2.454 . S
O167 C169 1.353 . S
O168 U166 2.458 . S
O168 C169 1.286 . S
C169 U166 2.984 . S
C169 O167 1.353 . S
C169 O168 1.286 . S
C169 C171 1.363 . S
C170 C160 1.465 . S
C170 U166 2.847 . S
C170 O184 1.249 . S
C170 O185 1.202 . S
C171 C169 1.363 . S
C171 C173 1.408 . S
C171 C176 1.342 . S
C172 C173 1.310 . S
C172 C175 1.461 . S
C172 H192 0.932 . S
C173 C171 1.408 . S
C173 C172 1.310 . S
C173 H193 0.930 . S
C174 C175 1.474 . S
C174 C176 1.285 . S
C174 H194 0.929 . S
C175 C172 1.461 . S
C175 C174 1.474 . S
C176 C171 1.342 . S
C176 C174 1.285 . S
C176 H195 0.930 . S
C177 C180 1.424 . S
C177 C182 1.245 . S
C177 C183 1.428 . S
C178 C181 1.260 . S
C178 C182 1.477 . S
C178 H196 0.932 . S
C179 C180 1.384 . S
C179 C181 1.479 . S
C179 H197 0.929 . S
C180 C177 1.424 . S
C180 C179 1.384 . S
C180 H198 0.928 . S
C181 C178 1.260 . S
C181 C179 1.479 . S
C182 C177 1.245 . S
C182 C178 1.477 . S
C182 H199 0.932 . S
C183 U166 2.882 . S
C183 C177 1.428 . S
C183 O186 1.301 . S
C183 O187 1.282 . S
O184 U166 2.441 . S
O184 C170 1.249 . S
O185 U166 2.420 . S
O185 C170 1.202 . S
O186 U166 2.455 . S
O186 C183 1.301 . S
O187 U166 2.449 . S
O187 C183 1.282 . S
H188 C161 0.931 . S
H189 C163 0.929 . S
H190 C164 0.930 . S
H191 C165 0.931 . S
H192 C172 0.932 . S
H193 C173 0.930 . S
H194 C174 0.929 . S
H195 C176 0.930 . S
H196 C178 0.932 . S
H197 C179 0.929 . S
H198 C180 0.928 . S
H199 C182 0.932 . S
C200 C201 1.264 . S
C200 C205 1.479 . S
C200 C210 1.465 . S
C201 C200 1.264 . S
C201 C203 1.339 . S
C201 H228 0.931 . S
C202 C203 1.395 . S
C202 C204 1.320 . S
C203 C201 1.339 . S
C203 C202 1.395 . S
C203 H229 0.929 . S
C204 C202 1.320 . S
C204 C205 1.405 . S
C204 H230 0.930 . S
C205 C200 1.479 . S
C205 C204 1.405 . S
C205 H231 0.931 . S
U206 O207 2.454 . S
U206 O208 2.458 . S
U206 C209 2.984 1_455 S
U206 C210 2.847 . S
U206 C223 2.882 . S
U206 O224 2.441 . S
U206 O225 2.420 . S
U206 O226 2.455 . S
U206 O227 2.449 . S
O207 U206 2.454 . S
O207 C209 1.353 1_455 S
O208 U206 2.458 . S
O208 C209 1.286 1_455 S
C209 U206 2.984 1_655 S
C209 O207 1.353 1_655 S
C209 O208 1.286 1_655 S
C209 C211 1.363 . S
C210 C200 1.465 . S
C210 U206 2.847 . S
C210 O224 1.249 . S
C210 O225 1.202 . S
C211 C209 1.363 . S
C211 C213 1.408 . S
C211 C216 1.342 . S
C212 C213 1.310 . S
C212 C215 1.461 . S
C212 H232 0.932 . S
C213 C211 1.408 . S
C213 C212 1.310 . S
C213 H233 0.930 . S
C214 C215 1.474 . S
C214 C216 1.285 . S
C214 H234 0.929 . S
C215 C212 1.461 . S
C215 C214 1.474 . S
C216 C211 1.342 . S
C216 C214 1.285 . S
C216 H235 0.930 . S
C217 C220 1.424 . S
C217 C222 1.245 . S
C217 C223 1.428 . S
C218 C221 1.260 . S
C218 C222 1.477 . S
C218 H236 0.932 . S
C219 C220 1.384 . S
C219 C221 1.479 . S
C219 H237 0.929 . S
C220 C217 1.424 . S
C220 C219 1.384 . S
C220 H238 0.928 . S
C221 C218 1.260 . S
C221 C219 1.479 . S
C222 C217 1.245 . S
C222 C218 1.477 . S
C222 H239 0.932 . S
C223 U206 2.882 . S
C223 C217 1.428 . S
C223 O226 1.301 . S
C223 O227 1.282 . S
O224 U206 2.441 . S
O224 C210 1.249 . S
O225 U206 2.420 . S
O225 C210 1.202 . S
O226 U206 2.455 . S
O226 C223 1.301 . S
O227 U206 2.449 . S
O227 C223 1.282 . S
H228 C201 0.931 . S
H229 C203 0.929 . S
H230 C204 0.930 . S
H231 C205 0.931 . S
H232 C212 0.932 . S
H233 C213 0.930 . S
H234 C214 0.929 . S
H235 C216 0.930 . S
H236 C218 0.932 . S
H237 C219 0.929 . S
H238 C220 0.928 . S
H239 C222 0.932 . S
C240 C241 1.264 . S
C240 C245 1.479 . S
C240 C250 1.465 . S
C241 C240 1.264 . S
C241 C243 1.339 . S
C241 H268 0.931 . S
C242 C243 1.395 . S
C242 C244 1.320 . S
C243 C241 1.339 . S
C243 C242 1.395 . S
C243 H269 0.929 . S
C244 C242 1.320 . S
C244 C245 1.405 . S
C244 H270 0.930 . S
C245 C240 1.479 . S
C245 C244 1.405 . S
C245 H271 0.931 . S
U246 O247 2.454 . S
U246 O248 2.458 . S
U246 C249 2.984 . S
U246 C250 2.847 . S
U246 C263 2.882 . S
U246 O264 2.441 . S
U246 O265 2.420 . S
U246 O266 2.455 . S
U246 O267 2.449 . S
O247 U246 2.454 . S
O247 C249 1.353 . S
O248 U246 2.458 . S
O248 C249 1.286 . S
C249 U246 2.984 . S
C249 O247 1.353 . S
C249 O248 1.286 . S
C249 C251 1.363 . S
C250 C240 1.465 . S
C250 U246 2.847 . S
C250 O264 1.249 . S
C250 O265 1.202 . S
C251 C249 1.363 . S
C251 C253 1.408 . S
C251 C256 1.342 . S
C252 C253 1.310 . S
C252 C255 1.461 . S
C252 H272 0.932 . S
C253 C251 1.408 . S
C253 C252 1.310 . S
C253 H273 0.930 . S
C254 C255 1.474 . S
C254 C256 1.285 . S
C254 H274 0.929 . S
C255 C252 1.461 . S
C255 C254 1.474 . S
C256 C251 1.342 . S
C256 C254 1.285 . S
C256 H275 0.930 . S
C257 C260 1.424 . S
C257 C262 1.245 . S
C257 C263 1.428 . S
C258 C261 1.260 . S
C258 C262 1.477 . S
C258 H276 0.932 . S
C259 C260 1.384 . S
C259 C261 1.479 . S
C259 H277 0.929 . S
C260 C257 1.424 . S
C260 C259 1.384 . S
C260 H278 0.928 . S
C261 C258 1.260 . S
C261 C259 1.479 . S
C262 C257 1.245 . S
C262 C258 1.477 . S
C262 H279 0.932 . S
C263 U246 2.882 . S
C263 C257 1.428 . S
C263 O266 1.301 . S
C263 O267 1.282 . S
O264 U246 2.441 . S
O264 C250 1.249 . S
O265 U246 2.420 . S
O265 C250 1.202 . S
O266 U246 2.455 . S
O266 C263 1.301 . S
O267 U246 2.449 . S
O267 C263 1.282 . S
H268 C241 0.931 . S
H269 C243 0.929 . S
H270 C244 0.930 . S
H271 C245 0.931 . S
H272 C252 0.932 . S
H273 C253 0.930 . S
H274 C254 0.929 . S
H275 C256 0.930 . S
H276 C258 0.932 . S
H277 C259 0.929 . S
H278 C260 0.928 . S
H279 C262 0.932 . S
C280 C281 1.264 . S
C280 C285 1.479 . S
C280 C290 1.465 . S
C281 C280 1.264 . S
C281 C283 1.339 . S
C281 H308 0.931 . S
C282 C283 1.395 . S
C282 C284 1.320 . S
C283 C281 1.339 . S
C283 C282 1.395 . S
C283 H309 0.929 . S
C284 C282 1.320 . S
C284 C285 1.405 . S
C284 H310 0.930 . S
C285 C280 1.479 . S
C285 C284 1.405 . S
C285 H311 0.931 . S
U286 O287 2.454 . S
U286 O288 2.458 . S
U286 C289 2.984 . S
U286 C290 2.847 . S
U286 C303 2.882 . S
U286 O304 2.441 . S
U286 O305 2.420 . S
U286 O306 2.455 . S
U286 O307 2.449 . S
O287 U286 2.454 . S
O287 C289 1.353 . S
O288 U286 2.458 . S
O288 C289 1.286 . S
C289 U286 2.984 . S
C289 O287 1.353 . S
C289 O288 1.286 . S
C289 C291 1.363 . S
C290 C280 1.465 . S
C290 U286 2.847 . S
C290 O304 1.249 . S
C290 O305 1.202 . S
C291 C289 1.363 . S
C291 C293 1.408 . S
C291 C296 1.342 . S
C292 C293 1.310 . S
C292 C295 1.461 . S
C292 H312 0.932 . S
C293 C291 1.408 . S
C293 C292 1.310 . S
C293 H313 0.930 . S
C294 C295 1.474 . S
C294 C296 1.285 . S
C294 H314 0.929 . S
C295 C292 1.461 . S
C295 C294 1.474 . S
C296 C291 1.342 . S
C296 C294 1.285 . S
C296 H315 0.930 . S
C297 C300 1.424 . S
C297 C302 1.245 . S
C297 C303 1.428 . S
C298 C301 1.260 . S
C298 C302 1.477 . S
C298 H316 0.932 . S
C299 C300 1.384 . S
C299 C301 1.479 . S
C299 H317 0.929 . S
C300 C297 1.424 . S
C300 C299 1.384 . S
C300 H318 0.928 . S
C301 C298 1.260 . S
C301 C299 1.479 . S
C302 C297 1.245 . S
C302 C298 1.477 . S
C302 H319 0.932 . S
C303 U286 2.882 . S
C303 C297 1.428 . S
C303 O306 1.301 . S
C303 O307 1.282 . S
O304 U286 2.441 . S
O304 C290 1.249 . S
O305 U286 2.420 . S
O305 C290 1.202 . S
O306 U286 2.455 . S
O306 C303 1.301 . S
O307 U286 2.449 . S
O307 C303 1.282 . S
H308 C281 0.931 . S
H309 C283 0.929 . S
H310 C284 0.930 . S
H311 C285 0.931 . S
H312 C292 0.932 . S
H313 C293 0.930 . S
H314 C294 0.929 . S
H315 C296 0.930 . S
H316 C298 0.932 . S
H317 C299 0.929 . S
H318 C300 0.928 . S
H319 C302 0.932 . S
H320 C328 0.929 . S
H321 C330 0.930 . S
H322 C332 0.930 . S
H323 C335 0.929 . S
H324 C338 0.930 . S
H325 C340 0.960 . S
H326 C340 0.960 . S
H327 C340 0.960 . S
C328 H320 0.929 . S
C328 C329 1.377 . S
C328 C330 1.384 . S
C329 C328 1.377 . S
C329 C335 1.390 . S
C330 H321 0.930 . S
C330 C328 1.384 . S
C330 C331 1.372 . S
C331 C330 1.372 . S
C331 C332 1.400 . S
C331 C336 1.490 . S
C332 H322 0.930 . S
C332 C331 1.400 . S
C332 C335 1.386 . S
H333 C349 0.930 . S
H334 C350 0.931 . S
C335 H323 0.929 . S
C335 C329 1.390 . S
C335 C332 1.386 . S
C336 C331 1.490 . S
C336 C338 1.395 1_556 S
C336 C339 1.403 . S
H337 C343 0.930 . S
C338 H324 0.930 . S
C338 C336 1.395 1_554 S
C338 C341 1.403 . S
C339 C336 1.403 . S
C339 C340 1.524 . S
C339 C343 1.400 . S
C340 H325 0.960 . S
C340 H326 0.960 . S
C340 H327 0.960 . S
C340 C339 1.524 . S
C341 C338 1.403 . S
C341 C342 1.392 . S
C341 C345 1.495 . S
C342 C341 1.392 . S
C342 C343 1.385 1_554 S
C342 C344 1.478 . S
C343 H337 0.930 . S
C343 C339 1.400 . S
C343 C342 1.385 1_556 S
C344 C342 1.478 . S
C344 C346 1.381 . S
C344 C350 1.383 . S
C345 C341 1.495 . S
C345 H351 0.959 . S
C345 H352 0.961 . S
C345 H353 0.960 . S
C346 C344 1.381 . S
C346 C347 1.394 . S
C346 H354 0.930 . S
C347 C346 1.394 . S
C347 C348 1.383 . S
C347 H355 0.929 . S
C348 C347 1.383 . S
C348 C349 1.377 . S
C349 H333 0.930 . S
C349 C348 1.377 . S
C349 C350 1.379 . S
C350 H334 0.931 . S
C350 C344 1.383 . S
C350 C349 1.379 . S
H351 C345 0.959 . S
H352 C345 0.961 . S
H353 C345 0.960 . S
H354 C346 0.930 . S
H355 C347 0.929 . S
H356 C364 0.929 . S
H357 C366 0.930 . S
H358 C368 0.930 . S
H359 C371 0.929 . S
H360 C374 0.930 . S
H361 C376 0.960 . S
H362 C376 0.960 . S
H363 C376 0.960 . S
C364 H356 0.929 . S
C364 C365 1.377 . S
C364 C366 1.384 . S
C365 C364 1.377 . S
C365 C371 1.390 . S
C366 H357 0.930 . S
C366 C364 1.384 . S
C366 C367 1.372 . S
C367 C366 1.372 . S
C367 C368 1.400 . S
C367 C372 1.490 . S
C368 H358 0.930 . S
C368 C367 1.400 . S
C368 C371 1.386 . S
H369 C385 0.930 . S
H370 C386 0.931 . S
C371 H359 0.929 . S
C371 C365 1.390 . S
C371 C368 1.386 . S
C372 C367 1.490 . S
C372 C374 1.395 . S
C372 C375 1.403 . S
H373 C379 0.930 . S
C374 H360 0.930 . S
C374 C372 1.395 . S
C374 C377 1.403 . S
C375 C372 1.403 . S
C375 C376 1.524 . S
C375 C379 1.400 . S
C376 H361 0.960 . S
C376 H362 0.960 . S
C376 H363 0.960 . S
C376 C375 1.524 . S
C377 C374 1.403 . S
C377 C378 1.392 . S
C377 C381 1.495 . S
C378 C377 1.392 . S
C378 C379 1.385 . S
C378 C380 1.478 . S
C379 H373 0.930 . S
C379 C375 1.400 . S
C379 C378 1.385 . S
C380 C378 1.478 . S
C380 C382 1.381 . S
C380 C386 1.383 . S
C381 C377 1.495 . S
C381 H387 0.959 . S
C381 H388 0.961 . S
C381 H389 0.960 . S
C382 C380 1.381 . S
C382 C383 1.394 . S
C382 H390 0.930 . S
C383 C382 1.394 . S
C383 C384 1.383 . S
C383 H391 0.929 . S
C384 C383 1.383 . S
C384 C385 1.377 . S
C385 H369 0.930 . S
C385 C384 1.377 . S
C385 C386 1.379 . S
C386 H370 0.931 . S
C386 C380 1.383 . S
C386 C385 1.379 . S
H387 C381 0.959 . S
H388 C381 0.961 . S
H389 C381 0.960 . S
H390 C382 0.930 . S
H391 C383 0.929 . S
H392 C400 0.929 . S
H393 C402 0.930 . S
H394 C404 0.930 . S
H395 C407 0.929 . S
H396 C410 0.930 . S
H397 C412 0.960 . S
H398 C412 0.960 . S
H399 C412 0.960 . S
C400 H392 0.929 . S
C400 C401 1.377 . S
C400 C402 1.384 . S
C401 C400 1.377 . S
C401 C407 1.390 . S
C402 H393 0.930 . S
C402 C400 1.384 . S
C402 C403 1.372 . S
C403 C402 1.372 . S
C403 C404 1.400 . S
C403 C408 1.490 . S
C404 H394 0.930 . S
C404 C403 1.400 . S
C404 C407 1.386 . S
H405 C421 0.930 . S
H406 C422 0.931 . S
C407 H395 0.929 . S
C407 C401 1.390 . S
C407 C404 1.386 . S
C408 C403 1.490 . S
C408 C410 1.395 . S
C408 C411 1.403 . S
H409 C415 0.930 . S
C410 H396 0.930 . S
C410 C408 1.395 . S
C410 C413 1.403 . S
C411 C408 1.403 . S
C411 C412 1.524 . S
C411 C415 1.400 . S
C412 H397 0.960 . S
C412 H398 0.960 . S
C412 H399 0.960 . S
C412 C411 1.524 . S
C413 C410 1.403 . S
C413 C414 1.392 . S
C413 C417 1.495 . S
C414 C413 1.392 . S
C414 C415 1.385 . S
C414 C416 1.478 . S
C415 H409 0.930 . S
C415 C411 1.400 . S
C415 C414 1.385 . S
C416 C414 1.478 . S
C416 C418 1.381 . S
C416 C422 1.383 . S
C417 C413 1.495 . S
C417 H423 0.959 . S
C417 H424 0.961 . S
C417 H425 0.960 . S
C418 C416 1.381 . S
C418 C419 1.394 . S
C418 H426 0.930 . S
C419 C418 1.394 . S
C419 C420 1.383 . S
C419 H427 0.929 . S
C420 C419 1.383 . S
C420 C421 1.377 . S
C421 H405 0.930 . S
C421 C420 1.377 . S
C421 C422 1.379 . S
C422 H406 0.931 . S
C422 C416 1.383 . S
C422 C421 1.379 . S
H423 C417 0.959 . S
H424 C417 0.961 . S
H425 C417 0.960 . S
H426 C418 0.930 . S
H427 C419 0.929 . S
H428 C436 0.929 . S
H429 C438 0.930 . S
H430 C440 0.930 . S
H431 C443 0.929 . S
H432 C446 0.930 . S
H433 C448 0.960 . S
H434 C448 0.960 . S
H435 C448 0.960 . S
C436 H428 0.929 . S
C436 C437 1.377 . S
C436 C438 1.384 . S
C437 C436 1.377 . S
C437 C443 1.390 . S
C438 H429 0.930 . S
C438 C436 1.384 . S
C438 C439 1.372 . S
C439 C438 1.372 . S
C439 C440 1.400 . S
C439 C444 1.490 . S
C440 H430 0.930 . S
C440 C439 1.400 . S
C440 C443 1.386 . S
H441 C457 0.930 . S
H442 C458 0.931 . S
C443 H431 0.929 . S
C443 C437 1.390 . S
C443 C440 1.386 . S
C444 C439 1.490 . S
C444 C446 1.395 . S
C444 C447 1.403 . S
H445 C451 0.930 . S
C446 H432 0.930 . S
C446 C444 1.395 . S
C446 C449 1.403 . S
C447 C444 1.403 . S
C447 C448 1.524 . S
C447 C451 1.400 . S
C448 H433 0.960 . S
C448 H434 0.960 . S
C448 H435 0.960 . S
C448 C447 1.524 . S
C449 C446 1.403 . S
C449 C450 1.392 . S
C449 C453 1.495 . S
C450 C449 1.392 . S
C450 C451 1.385 . S
C450 C452 1.478 . S
C451 H445 0.930 . S
C451 C447 1.400 . S
C451 C450 1.385 . S
C452 C450 1.478 . S
C452 C454 1.381 . S
C452 C458 1.383 . S
C453 C449 1.495 . S
C453 H459 0.959 . S
C453 H460 0.961 . S
C453 H461 0.960 . S
C454 C452 1.381 . S
C454 C455 1.394 . S
C454 H462 0.930 . S
C455 C454 1.394 . S
C455 C456 1.383 . S
C455 H463 0.929 . S
C456 C455 1.383 . S
C456 C457 1.377 . S
C457 H441 0.930 . S
C457 C456 1.377 . S
C457 C458 1.379 . S
C458 H442 0.931 . S
C458 C452 1.383 . S
C458 C457 1.379 . S
H459 C453 0.959 . S
H460 C453 0.961 . S
H461 C453 0.960 . S
H462 C454 0.930 . S
H463 C455 0.929 . S
H464 C472 0.929 . S
H465 C474 0.930 . S
H466 C476 0.930 . S
H467 C479 0.929 . S
H468 C482 0.930 . S
H469 C484 0.960 . S
H470 C484 0.960 . S
H471 C484 0.960 . S
C472 H464 0.929 . S
C472 C473 1.377 . S
C472 C474 1.384 . S
C473 C472 1.377 . S
C473 C479 1.390 . S
C474 H465 0.930 . S
C474 C472 1.384 . S
C474 C475 1.372 . S
C475 C474 1.372 . S
C475 C476 1.400 . S
C475 C480 1.490 . S
C476 H466 0.930 . S
C476 C475 1.400 . S
C476 C479 1.386 . S
H477 C493 0.930 . S
H478 C494 0.931 . S
C479 H467 0.929 . S
C479 C473 1.390 . S
C479 C476 1.386 . S
C480 C475 1.490 . S
C480 C482 1.395 . S
C480 C483 1.403 . S
H481 C487 0.930 . S
C482 H468 0.930 . S
C482 C480 1.395 . S
C482 C485 1.403 . S
C483 C480 1.403 . S
C483 C484 1.524 . S
C483 C487 1.400 . S
C484 H469 0.960 . S
C484 H470 0.960 . S
C484 H471 0.960 . S
C484 C483 1.524 . S
C485 C482 1.403 . S
C485 C486 1.392 . S
C485 C489 1.495 . S
C486 C485 1.392 . S
C486 C487 1.385 . S
C486 C488 1.478 . S
C487 H481 0.930 . S
C487 C483 1.400 . S
C487 C486 1.385 . S
C488 C486 1.478 . S
C488 C490 1.381 . S
C488 C494 1.383 . S
C489 C485 1.495 . S
C489 H495 0.959 . S
C489 H496 0.961 . S
C489 H497 0.960 . S
C490 C488 1.381 . S
C490 C491 1.394 . S
C490 H498 0.930 . S
C491 C490 1.394 . S
C491 C492 1.383 . S
C491 H499 0.929 . S
C492 C491 1.383 . S
C492 C493 1.377 . S
C493 H477 0.930 . S
C493 C492 1.377 . S
C493 C494 1.379 . S
C494 H478 0.931 . S
C494 C488 1.383 . S
C494 C493 1.379 . S
H495 C489 0.959 . S
H496 C489 0.961 . S
H497 C489 0.960 . S
H498 C490 0.930 . S
H499 C491 0.929 . S
H500 C508 0.929 . S
H501 C510 0.930 . S
H502 C512 0.930 . S
H503 C515 0.929 . S
H504 C518 0.930 . S
H505 C520 0.960 . S
H506 C520 0.960 . S
H507 C520 0.960 . S
C508 H500 0.929 . S
C508 C509 1.377 . S
C508 C510 1.384 . S
C509 C508 1.377 . S
C509 C515 1.390 . S
C510 H501 0.930 . S
C510 C508 1.384 . S
C510 C511 1.372 . S
C511 C510 1.372 . S
C511 C512 1.400 . S
C511 C516 1.490 . S
C512 H502 0.930 . S
C512 C511 1.400 . S
C512 C515 1.386 . S
H513 C529 0.930 . S
H514 C530 0.931 . S
C515 H503 0.929 . S
C515 C509 1.390 . S
C515 C512 1.386 . S
C516 C511 1.490 . S
C516 C518 1.395 . S
C516 C519 1.403 . S
H517 C523 0.930 . S
C518 H504 0.930 . S
C518 C516 1.395 . S
C518 C521 1.403 . S
C519 C516 1.403 . S
C519 C520 1.524 . S
C519 C523 1.400 . S
C520 H505 0.960 . S
C520 H506 0.960 . S
C520 H507 0.960 . S
C520 C519 1.524 . S
C521 C518 1.403 . S
C521 C522 1.392 . S
C521 C525 1.495 . S
C522 C521 1.392 . S
C522 C523 1.385 . S
C522 C524 1.478 . S
C523 H517 0.930 . S
C523 C519 1.400 . S
C523 C522 1.385 . S
C524 C522 1.478 . S
C524 C526 1.381 . S
C524 C530 1.383 . S
C525 C521 1.495 . S
C525 H531 0.959 . S
C525 H532 0.961 . S
C525 H533 0.960 . S
C526 C524 1.381 . S
C526 C527 1.394 . S
C526 H534 0.930 . S
C527 C526 1.394 . S
C527 C528 1.383 . S
C527 H535 0.929 . S
C528 C527 1.383 . S
C528 C529 1.377 . S
C529 H513 0.930 . S
C529 C528 1.377 . S
C529 C530 1.379 . S
C530 H514 0.931 . S
C530 C524 1.383 . S
C530 C529 1.379 . S
H531 C525 0.959 . S
H532 C525 0.961 . S
H533 C525 0.960 . S
H534 C526 0.930 . S
H535 C527 0.929 . S
H536 C544 0.929 . S
H537 C546 0.930 . S
H538 C548 0.930 . S
H539 C551 0.929 . S
H540 C554 0.930 . S
H541 C556 0.960 . S
H542 C556 0.960 . S
H543 C556 0.960 . S
C544 H536 0.929 . S
C544 C545 1.377 . S
C544 C546 1.384 . S
C545 C544 1.377 . S
C545 C551 1.390 . S
C546 H537 0.930 . S
C546 C544 1.384 . S
C546 C547 1.372 . S
C547 C546 1.372 . S
C547 C548 1.400 . S
C547 C552 1.490 . S
C548 H538 0.930 . S
C548 C547 1.400 . S
C548 C551 1.386 . S
H549 C565 0.930 . S
H550 C566 0.931 . S
C551 H539 0.929 . S
C551 C545 1.390 . S
C551 C548 1.386 . S
C552 C547 1.490 . S
C552 C554 1.395 . S
C552 C555 1.403 . S
H553 C559 0.930 . S
C554 H540 0.930 . S
C554 C552 1.395 . S
C554 C557 1.403 1_565 S
C555 C552 1.403 . S
C555 C556 1.524 . S
C555 C559 1.400 1_565 S
C556 H541 0.960 . S
C556 H542 0.960 . S
C556 H543 0.960 . S
C556 C555 1.524 . S
C557 C554 1.403 1_545 S
C557 C558 1.392 . S
C557 C561 1.495 . S
C558 C557 1.392 . S
C558 C559 1.385 . S
C558 C560 1.478 . S
C559 H553 0.930 . S
C559 C555 1.400 1_545 S
C559 C558 1.385 . S
C560 C558 1.478 . S
C560 C562 1.381 . S
C560 C566 1.383 . S
C561 C557 1.495 . S
C561 H567 0.959 . S
C561 H568 0.961 . S
C561 H569 0.960 . S
C562 C560 1.381 . S
C562 C563 1.394 . S
C562 H570 0.930 . S
C563 C562 1.394 . S
C563 C564 1.383 . S
C563 H571 0.929 . S
C564 C563 1.383 . S
C564 C565 1.377 . S
C565 H549 0.930 . S
C565 C564 1.377 . S
C565 C566 1.379 . S
C566 H550 0.931 . S
C566 C560 1.383 . S
C566 C565 1.379 . S
H567 C561 0.959 . S
H568 C561 0.961 . S
H569 C561 0.960 . S
H570 C562 0.930 . S
H571 C563 0.929 . S
H572 C580 0.929 . S
H573 C582 0.930 . S
H574 C584 0.930 . S
H575 C587 0.929 . S
H576 C590 0.930 . S
H577 C592 0.960 1_545 S
H578 C592 0.960 . S
H579 C592 0.960 . S
C580 H572 0.929 . S
C580 C581 1.377 . S
C580 C582 1.384 . S
C581 C580 1.377 . S
C581 C587 1.390 . S
C582 H573 0.930 . S
C582 C580 1.384 . S
C582 C583 1.372 . S
C583 C582 1.372 . S
C583 C584 1.400 . S
C583 C588 1.490 . S
C584 H574 0.930 . S
C584 C583 1.400 . S
C584 C587 1.386 . S
H585 C601 0.930 . S
H586 C602 0.931 . S
C587 H575 0.929 . S
C587 C581 1.390 . S
C587 C584 1.386 . S
C588 C583 1.490 . S
C588 C590 1.395 1_554 S
C588 C591 1.403 . S
H589 C595 0.947 . S
C590 H576 0.930 . S
C590 C588 1.395 1_556 S
C590 C593 1.403 1_565 S
C591 C588 1.403 . S
C591 C592 1.524 . S
C591 C595 1.452 1_565 S
C592 H577 0.960 1_565 S
C592 H578 0.960 . S
C592 H579 0.960 . S
C592 C591 1.524 . S
C593 C590 1.403 1_545 S
C593 C594 1.392 . S
C593 C597 1.495 . S
C594 C593 1.392 . S
C594 C595 1.326 1_556 S
C594 C596 1.478 . S
C595 H589 0.947 . S
C595 C591 1.452 1_545 S
C595 C594 1.326 1_554 S
C596 C594 1.478 . S
C596 C598 1.381 . S
C596 C602 1.383 . S
C597 C593 1.495 . S
C597 H603 0.959 1_545 S
C597 H604 0.961 . S
C597 H605 0.960 . S
C598 C596 1.381 . S
C598 C599 1.394 . S
C598 H606 0.930 . S
C599 C598 1.394 . S
C599 C600 1.383 . S
C599 H607 0.929 . S
C600 C599 1.383 . S
C600 C601 1.377 . S
C601 H585 0.930 . S
C601 C600 1.377 . S
C601 C602 1.379 . S
C602 H586 0.931 . S
C602 C596 1.383 . S
C602 C601 1.379 . S
H603 C597 0.959 1_565 S
H604 C597 0.961 . S
H605 C597 0.960 . S
H606 C598 0.930 . S
H607 C599 0.929 . S
H608 C616 0.929 . S
H609 C618 0.930 . S
H610 C620 0.930 . S
H611 C623 0.929 . S
H612 C626 0.930 . S
H613 C628 0.960 . S
H614 C628 0.960 . S
H615 C628 0.960 . S
C616 H608 0.929 . S
C616 C617 1.377 . S
C616 C618 1.384 . S
C617 C616 1.377 . S
C617 C623 1.390 . S
C618 H609 0.930 . S
C618 C616 1.384 . S
C618 C619 1.372 . S
C619 C618 1.372 . S
C619 C620 1.400 . S
C619 C624 1.490 . S
C620 H610 0.930 . S
C620 C619 1.400 . S
C620 C623 1.386 . S
H621 C637 0.930 . S
H622 C638 0.931 . S
C623 H611 0.929 . S
C623 C617 1.390 . S
C623 C620 1.386 . S
C624 C619 1.490 . S
C624 C626 1.395 . S
C624 C627 1.403 . S
H625 C631 0.930 . S
C626 H612 0.930 . S
C626 C624 1.395 . S
C626 C629 1.403 . S
C627 C624 1.403 . S
C627 C628 1.524 . S
C627 C631 1.400 . S
C628 H613 0.960 . S
C628 H614 0.960 . S
C628 H615 0.960 . S
C628 C627 1.524 . S
C629 C626 1.403 . S
C629 C630 1.392 . S
C629 C633 1.495 . S
C630 C629 1.392 . S
C630 C631 1.385 . S
C630 C632 1.478 . S
C631 H625 0.930 . S
C631 C627 1.400 . S
C631 C630 1.385 . S
C632 C630 1.478 . S
C632 C634 1.381 . S
C632 C638 1.383 . S
C633 C629 1.495 . S
C633 H639 0.959 . S
C633 H640 0.961 . S
C633 H641 0.960 . S
C634 C632 1.381 . S
C634 C635 1.394 . S
C634 H642 0.930 . S
C635 C634 1.394 . S
C635 C636 1.383 . S
C635 H643 0.929 . S
C636 C635 1.383 . S
C636 C637 1.377 . S
C637 H621 0.930 . S
C637 C636 1.377 . S
C637 C638 1.379 . S
C638 H622 0.931 . S
C638 C632 1.383 . S
C638 C637 1.379 . S
H639 C633 0.959 . S
H640 C633 0.961 . S
H641 C633 0.960 . S
H642 C634 0.930 . S
H643 C635 0.929 . S
H644 C652 0.929 . S
H645 C654 0.930 . S
H646 C656 0.930 . S
H647 C659 0.929 . S
H648 C662 0.930 . S
H649 C664 0.960 . S
H650 C664 0.960 . S
H651 C664 0.960 . S
C652 H644 0.929 . S
C652 C653 1.377 . S
C652 C654 1.384 . S
C653 C652 1.377 . S
C653 C659 1.390 . S
C654 H645 0.930 . S
C654 C652 1.384 . S
C654 C655 1.372 . S
C655 C654 1.372 . S
C655 C656 1.400 . S
C655 C660 1.490 . S
C656 H646 0.930 . S
C656 C655 1.400 . S
C656 C659 1.386 . S
H657 C673 0.930 . S
H658 C674 0.931 . S
C659 H647 0.929 . S
C659 C653 1.390 . S
C659 C656 1.386 . S
C660 C655 1.490 . S
C660 C662 1.395 . S
C660 C663 1.403 . S
H661 C667 0.930 . S
C662 H648 0.930 . S
C662 C660 1.395 . S
C662 C665 1.403 . S
C663 C660 1.403 . S
C663 C664 1.524 . S
C663 C667 1.400 . S
C664 H649 0.960 . S
C664 H650 0.960 . S
C664 H651 0.960 . S
C664 C663 1.524 . S
C665 C662 1.403 . S
C665 C666 1.392 . S
C665 C669 1.495 . S
C666 C665 1.392 . S
C666 C667 1.385 . S
C666 C668 1.478 . S
C667 H661 0.930 . S
C667 C663 1.400 . S
C667 C666 1.385 . S
C668 C666 1.478 . S
C668 C670 1.381 . S
C668 C674 1.383 . S
C669 C665 1.495 . S
C669 H675 0.959 . S
C669 H676 0.961 . S
C669 H677 0.960 . S
C670 C668 1.381 . S
C670 C671 1.394 . S
C670 H678 0.930 . S
C671 C670 1.394 . S
C671 C672 1.383 . S
C671 H679 0.929 . S
C672 C671 1.383 . S
C672 C673 1.377 . S
C673 H657 0.930 . S
C673 C672 1.377 . S
C673 C674 1.379 . S
C674 H658 0.931 . S
C674 C668 1.383 . S
C674 C673 1.379 . S
H675 C669 0.959 . S
H676 C669 0.961 . S
H677 C669 0.960 . S
H678 C670 0.930 . S
H679 C671 0.929 . S
H680 C688 0.929 . S
H681 C690 0.930 . S
H682 C692 0.930 . S
H683 C695 0.929 . S
H684 C698 0.930 . S
H685 C700 0.960 . S
H686 C700 0.960 . S
H687 C700 0.960 . S
C688 H680 0.929 . S
C688 C689 1.377 . S
C688 C690 1.384 . S
C689 C688 1.377 . S
C689 C695 1.390 . S
C690 H681 0.930 . S
C690 C688 1.384 . S
C690 C691 1.372 . S
C691 C690 1.372 . S
C691 C692 1.400 . S
C691 C696 1.490 . S
C692 H682 0.930 . S
C692 C691 1.400 . S
C692 C695 1.386 . S
H693 C709 0.930 . S
H694 C710 0.931 . S
C695 H683 0.929 . S
C695 C689 1.390 . S
C695 C692 1.386 . S
C696 C691 1.490 . S
C696 C698 1.395 . S
C696 C699 1.403 . S
H697 C703 0.930 . S
C698 H684 0.930 . S
C698 C696 1.395 . S
C698 C701 1.403 . S
C699 C696 1.403 . S
C699 C700 1.524 . S
C699 C703 1.400 . S
C700 H685 0.960 . S
C700 H686 0.960 . S
C700 H687 0.960 . S
C700 C699 1.524 . S
C701 C698 1.403 . S
C701 C702 1.392 . S
C701 C705 1.495 . S
C702 C701 1.392 . S
C702 C703 1.385 . S
C702 C704 1.478 . S
C703 H697 0.930 . S
C703 C699 1.400 . S
C703 C702 1.385 . S
C704 C702 1.478 . S
C704 C706 1.381 . S
C704 C710 1.383 . S
C705 C701 1.495 . S
C705 H711 0.959 . S
C705 H712 0.961 . S
C705 H713 0.960 . S
C706 C704 1.381 . S
C706 C707 1.394 . S
C706 H714 0.930 . S
C707 C706 1.394 . S
C707 C708 1.383 . S
C707 H715 0.929 . S
C708 C707 1.383 . S
C708 C709 1.377 . S
C709 H693 0.930 . S
C709 C708 1.377 . S
C709 C710 1.379 . S
C710 H694 0.931 . S
C710 C704 1.383 . S
C710 C709 1.379 . S
H711 C705 0.959 . S
H712 C705 0.961 . S
H713 C705 0.960 . S
H714 C706 0.930 . S
H715 C707 0.929 . S
H716 C724 0.929 . S
H717 C726 0.930 . S
H718 C728 0.930 . S
H719 C731 0.929 . S
H720 C734 0.930 . S
H721 C736 0.960 . S
H722 C736 0.960 . S
H723 C736 0.960 . S
C724 H716 0.929 . S
C724 C725 1.377 . S
C724 C726 1.384 . S
C725 C724 1.377 . S
C725 C731 1.390 . S
C726 H717 0.930 . S
C726 C724 1.384 . S
C726 C727 1.372 . S
C727 C726 1.372 . S
C727 C728 1.400 . S
C727 C732 1.490 . S
C728 H718 0.930 . S
C728 C727 1.400 . S
C728 C731 1.386 . S
H729 C745 0.930 . S
H730 C746 0.931 . S
C731 H719 0.929 . S
C731 C725 1.390 . S
C731 C728 1.386 . S
C732 C727 1.490 . S
C732 C734 1.395 . S
C732 C735 1.403 . S
H733 C739 0.930 . S
C734 H720 0.930 . S
C734 C732 1.395 . S
C734 C737 1.403 . S
C735 C732 1.403 . S
C735 C736 1.524 . S
C735 C739 1.400 . S
C736 H721 0.960 . S
C736 H722 0.960 . S
C736 H723 0.960 . S
C736 C735 1.524 . S
C737 C734 1.403 . S
C737 C738 1.392 . S
C737 C741 1.495 . S
C738 C737 1.392 . S
C738 C739 1.385 . S
C738 C740 1.478 . S
C739 H733 0.930 . S
C739 C735 1.400 . S
C739 C738 1.385 . S
C740 C738 1.478 . S
C740 C742 1.381 . S
C740 C746 1.383 . S
C741 C737 1.495 . S
C741 H747 0.959 . S
C741 H748 0.961 . S
C741 H749 0.960 . S
C742 C740 1.381 . S
C742 C743 1.394 . S
C742 H750 0.930 . S
C743 C742 1.394 . S
C743 C744 1.383 . S
C743 H751 0.929 . S
C744 C743 1.383 . S
C744 C745 1.377 . S
C745 H729 0.930 . S
C745 C744 1.377 . S
C745 C746 1.379 . S
C746 H730 0.931 . S
C746 C740 1.383 . S
C746 C745 1.379 . S
H747 C741 0.959 . S
H748 C741 0.961 . S
H749 C741 0.960 . S
H750 C742 0.930 . S
H751 C743 0.929 . S
C329 C175 1.499 . S
C348 C15 1.496 . S
C365 C215 1.502 . S
C384 C55 1.500 . S
C401 C82 1.490 . S
C420 C242 1.506 . S
C437 C122 1.490 . S
C456 C282 1.499 . S
C473 C295 1.503 . S
C492 C135 1.500 . S
C509 C202 1.489 . S
C528 C42 1.480 . S
C545 C255 1.508 . S
C564 C95 1.505 . S
C581 C2 1.488 . S
C600 C162 1.497 . S
C617 C221 1.492 . S
C636 C21 1.490 . S
C653 C261 1.496 . S
C672 C61 1.481 . S
C689 C101 1.485 . S
C708 C301 1.480 . S
C725 C181 1.487 . S
C744 C141 1.497 . S
