# Generated by pormake.
# Topology mok, (4)-cn, num edge types: 1
# Building blocks:
#     Node 0, Type 0, BuildingBlock: TATPOV_clean_sbu_0, # of connection points: 4
#     Node 1, Type 0, BuildingBlock: TATPOV_clean_sbu_0, # of connection points: 4
#     Node 2, Type 0, BuildingBlock: TATPOV_clean_sbu_0, # of connection points: 4
#     Node 3, Type 0, BuildingBlock: TATPOV_clean_sbu_0, # of connection points: 4
#     Node 4, Type 0, BuildingBlock: TATPOV_clean_sbu_0, # of connection points: 4
#     Node 5, Type 0, BuildingBlock: TATPOV_clean_sbu_0, # of connection points: 4
#     Node 6, Type 0, BuildingBlock: TATPOV_clean_sbu_0, # of connection points: 4
#     Node 7, Type 0, BuildingBlock: TATPOV_clean_sbu_0, # of connection points: 4
#     Edge 8, Type (0, 0), BuildingBlock: MIFKUJ_clean_linker_0, # of connection points: 2
#     Edge 9, Type (0, 0), BuildingBlock: MIFKUJ_clean_linker_0, # of connection points: 2
#     Edge 10, Type (0, 0), BuildingBlock: MIFKUJ_clean_linker_0, # of connection points: 2
#     Edge 11, Type (0, 0), BuildingBlock: MIFKUJ_clean_linker_0, # of connection points: 2
#     Edge 12, Type (0, 0), BuildingBlock: MIFKUJ_clean_linker_0, # of connection points: 2
#     Edge 13, Type (0, 0), BuildingBlock: MIFKUJ_clean_linker_0, # of connection points: 2
#     Edge 14, Type (0, 0), BuildingBlock: MIFKUJ_clean_linker_0, # of connection points: 2
#     Edge 15, Type (0, 0), BuildingBlock: MIFKUJ_clean_linker_0, # of connection points: 2
#     Edge 16, Type (0, 0), BuildingBlock: MIFKUJ_clean_linker_0, # of connection points: 2
#     Edge 17, Type (0, 0), BuildingBlock: MIFKUJ_clean_linker_0, # of connection points: 2
#     Edge 18, Type (0, 0), BuildingBlock: MIFKUJ_clean_linker_0, # of connection points: 2
#     Edge 19, Type (0, 0), BuildingBlock: MIFKUJ_clean_linker_0, # of connection points: 2
#     Edge 20, Type (0, 0), BuildingBlock: MIFKUJ_clean_linker_0, # of connection points: 2
#     Edge 21, Type (0, 0), BuildingBlock: MIFKUJ_clean_linker_0, # of connection points: 2
#     Edge 22, Type (0, 0), BuildingBlock: MIFKUJ_clean_linker_0, # of connection points: 2
#     Edge 23, Type (0, 0), BuildingBlock: MIFKUJ_clean_linker_0, # of connection points: 2
# Relax obj value: 0.025
# Max RMSD: 0.042
# Mean RMSD: 0.042
data_MOF--net-mok--node1-TATPOV_clean_sbu_0--edge1-MIFKUJ_clean_linker_0
_symmetry_space_group_name_H-M    P1
_symmetry_Int_Tables_number       1
_symmetry_cell_setting            triclinic
loop_
_symmetry_equiv_pos_as_xyz
'x, y, z'
_cell_length_a     60.427977
_cell_length_b     25.997225
_cell_length_c     34.103706
_cell_angle_alpha  90.000044
_cell_angle_beta   89.862014
_cell_angle_gamma 90.122703
loop_
_atom_site_label
_atom_site_type_symbol
_atom_site_fract_x
_atom_site_fract_y
_atom_site_fract_z
_atom_type_partial_charge
Zn0 Zn 0.61679 0.42288 0.01734 0.0
Zn1 Zn 0.59652 0.33462 0.00955 0.0
O2 O 0.58513 0.36222 0.06341 0.0
O3 O 0.60393 0.43421 0.0703 0.0
O4 O 0.58023 0.26602 0.00427 0.0
O5 O 0.60194 0.45185 0.97025 0.0
O6 O 0.58521 0.37739 0.96189 0.0
C7 C 0.59003 0.40209 0.08341 0.0
C8 C 0.64803 0.3431 0.00853 0.0
O9 O 0.63045 0.31552 0.00743 0.0
O10 O 0.64648 0.39133 0.0122 0.0
C11 C 0.55981 0.26354 0.01351 0.0
O12 O 0.54982 0.30553 0.02554 0.0
C13 C 0.58889 0.4236 0.95085 0.0
Zn14 Zn 0.40742 0.58833 0.02483 0.0
Zn15 Zn 0.42348 0.68224 0.01386 0.0
O16 O 0.43953 0.65666 0.06408 0.0
O17 O 0.42847 0.57603 0.06895 0.0
O18 O 0.4379 0.75224 0.0052 0.0
O19 O 0.41664 0.56627 0.97129 0.0
O20 O 0.43198 0.64237 0.96306 0.0
C21 C 0.44036 0.61286 0.08083 0.0
C22 C 0.37344 0.66531 0.02851 0.0
O23 O 0.38949 0.69552 0.02002 0.0
O24 O 0.37707 0.61782 0.03362 0.0
C25 C 0.43293 0.79247 0.02454 0.0
O26 O 0.41691 0.79006 0.0506 0.0
C27 C 0.42782 0.59709 0.95046 0.0
Zn28 Zn 0.59997 0.58232 0.52028 0.0
Zn29 Zn 0.58424 0.67675 0.50849 0.0
O30 O 0.57296 0.63512 0.46027 0.0
O31 O 0.58808 0.559 0.46868 0.0
O32 O 0.57108 0.74843 0.50156 0.0
O33 O 0.58107 0.57346 0.56821 0.0
O34 O 0.57096 0.65451 0.56219 0.0
C35 C 0.5763 0.58918 0.4485 0.0
C36 C 0.63463 0.65807 0.51593 0.0
O37 O 0.61845 0.68818 0.50863 0.0
O38 O 0.63096 0.61113 0.52353 0.0
C39 C 0.55368 0.75625 0.48142 0.0
O40 O 0.54421 0.71727 0.46355 0.0
C41 C 0.57045 0.61194 0.58074 0.0
Zn42 Zn 0.40488 0.43225 0.50573 0.0
Zn43 Zn 0.4218 0.33882 0.50371 0.0
O44 O 0.43393 0.37329 0.45279 0.0
O45 O 0.41765 0.44889 0.45357 0.0
O46 O 0.43642 0.26865 0.50334 0.0
O47 O 0.42272 0.4505 0.55311 0.0
O48 O 0.43414 0.3701 0.55515 0.0
C49 C 0.43045 0.4171 0.43706 0.0
C50 C 0.37117 0.35457 0.50795 0.0
O51 O 0.38778 0.32447 0.5047 0.0
O52 O 0.37421 0.4027 0.51004 0.0
C53 C 0.43466 0.2364 0.47547 0.0
O54 O 0.42212 0.24773 0.44527 0.0
C55 C 0.43377 0.41537 0.56951 0.0
Zn56 Zn 0.11305 0.91184 0.02543 0.0
Zn57 Zn 0.09499 0.81969 0.01656 0.0
O58 O 0.08113 0.84638 0.06857 0.0
O59 O 0.09475 0.92495 0.07312 0.0
O60 O 0.07876 0.75175 0.00832 0.0
O61 O 0.10148 0.93681 0.97459 0.0
O62 O 0.0854 0.86144 0.96718 0.0
C63 C 0.08224 0.88973 0.08595 0.0
C64 C 0.14575 0.83187 0.0237 0.0
O65 O 0.12888 0.80262 0.01921 0.0
O66 O 0.14316 0.87988 0.02778 0.0
C67 C 0.08248 0.71009 0.02676 0.0
O68 O 0.09862 0.7087 0.05248 0.0
C69 C 0.08929 0.90699 0.95486 0.0
Zn70 Zn 0.90491 0.07373 0.98405 0.0
Zn71 Zn 0.92298 0.16536 0.99259 0.0
O72 O 0.93408 0.12254 0.04038 0.0
O73 O 0.91753 0.04763 0.0337 0.0
O74 O 0.93926 0.23321 0.00059 0.0
O75 O 0.92202 0.06137 0.9351 0.0
O76 O 0.93517 0.14043 0.93878 0.0
C77 C 0.93042 0.07684 0.05256 0.0
C78 C 0.87214 0.15302 0.98873 0.0
O79 O 0.88906 0.18211 0.99317 0.0
O80 O 0.87472 0.10522 0.98341 0.0
C81 C 0.93541 0.27492 0.98233 0.0
O82 O 0.91911 0.27638 0.95693 0.0
C83 C 0.93378 0.09724 0.9212 0.0
Zn84 Zn 0.11401 0.0869 0.52082 0.0
Zn85 Zn 0.09538 0.17821 0.51499 0.0
O86 O 0.08504 0.13954 0.46459 0.0
O87 O 0.10237 0.06543 0.46908 0.0
O88 O 0.07871 0.24608 0.51211 0.0
O89 O 0.09614 0.06889 0.56809 0.0
O90 O 0.08288 0.1478 0.56687 0.0
C91 C 0.08948 0.09508 0.45073 0.0
C92 C 0.14621 0.16803 0.52091 0.0
O93 O 0.12914 0.1964 0.51637 0.0
O94 O 0.14394 0.11987 0.52473 0.0
C95 C 0.08584 0.28849 0.49834 0.0
O96 O 0.10606 0.29089 0.48418 0.0
C97 C 0.08404 0.1035 0.58275 0.0
Zn98 Zn 0.89464 0.90458 0.48159 0.0
Zn99 Zn 0.91298 0.81328 0.4902 0.0
O100 O 0.92583 0.8404 0.4375 0.0
O101 O 0.91336 0.91993 0.4348 0.0
O102 O 0.92889 0.74464 0.49594 0.0
O103 O 0.90589 0.92796 0.5334 0.0
O104 O 0.92374 0.85463 0.53887 0.0
C105 C 0.92522 0.88431 0.42093 0.0
C106 C 0.86215 0.8243 0.48312 0.0
O107 O 0.87907 0.79617 0.48988 0.0
O108 O 0.86463 0.87196 0.47686 0.0
C109 C 0.94982 0.74491 0.49132 0.0
O110 O 0.95975 0.7889 0.48398 0.0
C111 C 0.91916 0.89941 0.55194 0.0
H112 H 0.85836 0.25405 0.9943 0.0
H113 H 0.82009 0.28545 -0.0027 0.0
H114 H 0.79602 0.12932 0.99098 0.0
H115 H 0.83378 0.098 0.98707 0.0
H116 H 0.77224 0.18699 0.94505 0.0
H117 H 0.79734 0.19838 0.07847 0.0
H118 H 0.82202 0.22572 0.1321 0.0
H119 H 0.80862 0.38411 0.10569 0.0
H120 H 0.78408 0.3577 0.05155 0.0
H121 H 0.66011 0.24053 0.00435 0.0
H122 H 0.69792 0.2058 0.00124 0.0
H123 H 0.72435 0.36003 0.00308 0.0
H124 H 0.68719 0.39464 0.00668 0.0
H125 H 0.74656 0.30108 0.05234 0.0
H126 H 0.72184 0.28887 0.91804 0.0
H127 H 0.69697 0.26081 0.86488 0.0
H128 H 0.70941 0.10278 0.89391 0.0
H129 H 0.73414 0.12994 0.94758 0.0
C130 C 0.84489 0.22651 0.9935 0.0
C131 C 0.84921 0.17353 0.99047 0.0
C132 C 0.82302 0.24444 0.99538 0.0
C133 C 0.80511 0.20968 0.99473 0.0
C134 C 0.80947 0.15694 0.99142 0.0
C135 C 0.83118 0.13911 0.98931 0.0
C136 C 0.78176 0.22764 -0.00251 0.0
C137 C 0.76659 0.21147 0.96879 0.0
C138 C 0.77435 0.2601 0.02812 0.0
C139 C 0.78906 0.27606 0.06071 0.0
C140 C 0.79979 0.23904 0.08391 0.0
C141 C 0.81373 0.25437 0.11443 0.0
C142 C 0.81693 0.30662 0.12223 0.0
C143 C 0.80615 0.34366 0.09958 0.0
C144 C 0.79221 0.32853 0.069 0.0
C145 C 0.674 0.26692 0.00402 0.0
C146 C 0.67053 0.32035 0.0058 0.0
C147 C 0.69559 0.24708 0.00214 0.0
C148 C 0.71401 0.28037 0.00179 0.0
C149 C 0.71048 0.33354 0.00352 0.0
C150 C 0.68909 0.35325 0.00545 0.0
C151 C 0.7371 0.26068 -0.00021 0.0
C152 C 0.75222 0.27649 0.02866 0.0
C153 C 0.74443 0.22779 0.9694 0.0
C154 C 0.72964 0.21144 0.93707 0.0
C155 C 0.71913 0.24814 0.91327 0.0
C156 C 0.70509 0.23241 0.88302 0.0
C157 C 0.70156 0.18005 0.8761 0.0
C158 C 0.71212 0.14332 0.89935 0.0
C159 C 0.72617 0.15886 0.92966 0.0
H160 H 0.69068 0.16794 0.85266 0.0
H161 H 0.82773 0.31842 0.14587 0.0
H162 H 0.15996 0.73195 0.03496 0.0
H163 H 0.19849 0.70129 0.03608 0.0
H164 H 0.22159 0.85511 0.01185 0.0
H165 H 0.1836 0.88585 0.01102 0.0
H166 H 0.24274 0.78175 0.96634 0.0
H167 H 0.22418 0.81192 0.10217 0.0
H168 H 0.20209 0.80063 0.16245 0.0
H169 H 0.21595 0.6387 0.16166 0.0
H170 H 0.23789 0.64895 0.101 0.0
H171 H 0.35725 0.76204 0.01182 0.0
H172 H 0.31839 0.78931 0.01159 0.0
H173 H 0.29834 0.63773 0.0491 0.0
H174 H 0.33683 0.61061 0.05008 0.0
H175 H 0.27509 0.70722 0.08716 0.0
H176 H 0.29398 0.67547 0.95286 0.0
H177 H 0.31564 0.68464 0.89188 0.0
H178 H 0.30064 0.84595 0.88838 0.0
H179 H 0.27913 0.83786 0.94968 0.0
C180 C 0.17328 0.75907 0.02974 0.0
C181 C 0.16868 0.81137 0.02317 0.0
C182 C 0.19526 0.74159 0.03049 0.0
C183 C 0.21292 0.77604 0.02421 0.0
C184 C 0.20827 0.82786 0.01675 0.0
C185 C 0.18648 0.84538 0.0165 0.0
C186 C 0.23637 0.75895 0.02601 0.0
C187 C 0.24987 0.76582 0.99285 0.0
C188 C 0.24558 0.7373 0.06033 0.0
C189 C 0.23245 0.7311 0.09681 0.0
C190 C 0.22235 0.77383 0.11465 0.0
C191 C 0.20989 0.76764 0.14892 0.0
C192 C 0.20756 0.71895 0.16581 0.0
C193 C 0.21774 0.67637 0.1485 0.0
C194 C 0.23019 0.68235 0.11419 0.0
C195 C 0.34457 0.7347 0.02033 0.0
C196 C 0.35022 0.68405 0.03073 0.0
C197 C 0.32234 0.75021 0.01997 0.0
C198 C 0.30535 0.71533 0.02981 0.0
C199 C 0.31107 0.66535 0.04133 0.0
C200 C 0.33318 0.64987 0.04172 0.0
C201 C 0.28158 0.7302 0.02748 0.0
C202 C 0.26799 0.72294 0.06055 0.0
C203 C 0.27224 0.75115 0.99295 0.0
C204 C 0.28515 0.75616 0.95608 0.0
C205 C 0.29545 0.71298 0.93926 0.0
C206 C 0.30768 0.71797 0.90461 0.0
C207 C 0.30957 0.76588 0.88633 0.0
C208 C 0.29919 0.80888 0.90261 0.0
C209 C 0.28697 0.80411 0.9373 0.0
H210 H 0.31903 0.76966 0.85949 0.0
H211 H 0.19791 0.71424 0.19235 0.0
H212 H 0.84784 0.72991 0.51042 0.0
H213 H 0.80942 0.69974 0.51615 0.0
H214 H 0.78657 0.84052 0.46308 0.0
H215 H 0.82453 0.87105 0.45796 0.0
H216 H 0.76286 0.82045 0.52581 0.0
H217 H 0.78707 0.72386 0.41312 0.0
H218 H 0.81123 0.66419 0.3767 0.0
H219 H 0.79612 0.54394 0.45889 0.0
H220 H 0.77207 0.60312 0.49609 0.0
H221 H 0.65056 0.75066 0.48836 0.0
H222 H 0.68934 0.77757 0.48266 0.0
H223 H 0.71009 0.63432 0.5346 0.0
H224 H 0.67163 0.60682 0.53953 0.0
H225 H 0.73511 0.65439 0.47377 0.0
H226 H 0.71062 0.75055 0.58608 0.0
H227 H 0.68657 0.81023 0.62274 0.0
H228 H 0.7024 0.9313 0.54168 0.0
H229 H 0.72632 0.87213 0.50423 0.0
C230 C 0.83462 0.75413 0.49963 0.0
C231 C 0.83931 0.80297 0.48387 0.0
C232 C 0.81266 0.73685 0.50287 0.0
C233 C 0.79503 0.76784 0.48998 0.0
C234 C 0.7998 0.81602 0.4735 0.0
C235 C 0.8216 0.83335 0.47048 0.0
C236 C 0.77152 0.75131 0.49453 0.0
C237 C 0.75675 0.78437 0.514 0.0
C238 C 0.76358 0.70374 0.48002 0.0
C239 C 0.77796 0.66807 0.45761 0.0
C240 C 0.78903 0.68481 0.42359 0.0
C241 C 0.80268 0.65105 0.40278 0.0
C242 C 0.80526 0.60034 0.41554 0.0
C243 C 0.79413 0.58324 0.44907 0.0
C244 C 0.78048 0.61686 0.47001 0.0
C245 C 0.66338 0.72509 0.49882 0.0
C246 C 0.65792 0.67659 0.51441 0.0
C247 C 0.68557 0.74054 0.49562 0.0
C248 C 0.70272 0.70813 0.50846 0.0
C249 C 0.69724 0.65998 0.52434 0.0
C250 C 0.67516 0.6444 0.52728 0.0
C251 C 0.72641 0.72369 0.50484 0.0
C252 C 0.74122 0.69044 0.48562 0.0
C253 C 0.73441 0.7711 0.5196 0.0
C254 C 0.72009 0.80677 0.54214 0.0
C255 C 0.70884 0.7898 0.57591 0.0
C256 C 0.69525 0.82355 0.59686 0.0
C257 C 0.69291 0.87448 0.58449 0.0
C258 C 0.7042 0.89181 0.5512 0.0
C259 C 0.71779 0.8582 0.53012 0.0
H260 H 0.68239 0.90055 0.60075 0.0
H261 H 0.81584 0.57427 0.39939 0.0
H262 H 0.18501 0.11528 0.52444 0.0
H263 H 0.22249 0.14891 0.52305 0.0
H264 H 0.19718 0.30364 0.51617 0.0
H265 H 0.15914 0.2699 0.51665 0.0
H266 H 0.23079 0.29033 0.46586 0.0
H267 H 0.21944 0.25598 0.60201 0.0
H268 H 0.2088 0.2048 0.65996 0.0
H269 H 0.25899 0.09377 0.63246 0.0
H270 H 0.26974 0.14392 0.57401 0.0
H271 H 0.333 0.41025 0.50958 0.0
H272 H 0.29507 0.3789 0.51181 0.0
H273 H 0.31859 0.22242 0.51116 0.0
H274 H 0.35698 0.25364 0.50914 0.0
H275 H 0.28577 0.2384 0.56617 0.0
H276 H 0.29665 0.2733 0.42933 0.0
H277 H 0.30723 0.32556 0.3719 0.0
H278 H 0.25777 0.43731 0.40185 0.0
H279 H 0.2471 0.38606 0.45979 0.0
C280 C 0.18726 0.15657 0.52281 0.0
C281 C 0.16895 0.18991 0.52088 0.0
C282 C 0.20882 0.17576 0.52221 0.0
C283 C 0.21274 0.22887 0.52023 0.0
C284 C 0.19456 0.26248 0.51794 0.0
C285 C 0.17283 0.24319 0.51833 0.0
C286 C 0.23588 0.24862 0.51963 0.0
C287 C 0.2427 0.2797 0.48818 0.0
C288 C 0.25163 0.2337 0.54819 0.0
C289 C 0.24527 0.20352 0.58343 0.0
C290 C 0.2281 0.22046 0.60815 0.0
C291 C 0.22207 0.19166 0.64112 0.0
C292 C 0.23318 0.14601 0.64984 0.0
C293 C 0.25039 0.12912 0.62565 0.0
C294 C 0.25648 0.15775 0.59262 0.0
C295 C 0.33024 0.36908 0.50984 0.0
C296 C 0.34814 0.33445 0.50908 0.0
C297 C 0.30845 0.35125 0.51095 0.0
C298 C 0.30395 0.29834 0.51118 0.0
C299 C 0.3217 0.26347 0.51085 0.0
C300 C 0.34362 0.28134 0.5096 0.0
C301 C 0.28065 0.27986 0.51235 0.0
C302 C 0.27382 0.24907 0.54393 0.0
C303 C 0.26488 0.29525 0.48402 0.0
C304 C 0.27122 0.32606 0.44911 0.0
C305 C 0.28815 0.30923 0.42385 0.0
C306 C 0.29414 0.33863 0.39117 0.0
C307 C 0.28322 0.38479 0.38328 0.0
C308 C 0.26624 0.40157 0.40801 0.0
C309 C 0.26019 0.37234 0.44076 0.0
H310 H 0.28788 0.40749 0.35797 0.0
H311 H 0.22848 0.12377 0.67537 0.0
H312 H 0.54855 0.37342 0.10976 0.0
H313 H 0.53002 0.40434 0.16995 0.0
H314 H 0.5896 0.48537 0.20247 0.0
H315 H 0.60775 0.4559 0.14308 0.0
H316 H 0.53885 0.39923 0.25037 0.0
H317 H 0.57732 0.60748 0.22789 0.0
H318 H 0.58408 0.66669 0.17286 0.0
H319 H 0.53736 0.58382 0.1022 0.0
H320 H 0.52995 0.52462 0.15696 0.0
H321 H 0.58756 0.50193 0.40999 0.0
H322 H 0.57375 0.47028 0.34805 0.0
H323 H 0.52961 0.60014 0.33961 0.0
H324 H 0.54417 0.63355 0.40199 0.0
H325 H 0.5485 0.58644 0.27319 0.0
H326 H 0.51146 0.47821 0.35689 0.0
H327 H 0.50405 0.42131 0.41297 0.0
H328 H 0.54522 0.30465 0.36209 0.0
H329 H 0.55384 0.3615 0.30658 0.0
C330 C 0.55767 0.39725 0.13019 0.0
C331 C 0.57946 0.41294 0.12157 0.0
C332 C 0.54708 0.41495 0.16435 0.0
C333 C 0.55827 0.44829 0.19001 0.0
C334 C 0.58045 0.46088 0.1825 0.0
C335 C 0.59085 0.44383 0.14859 0.0
C336 C 0.54738 0.4719 0.22456 0.0
C337 C 0.54068 0.44013 0.25559 0.0
C338 C 0.54831 0.52582 0.23013 0.0
C339 C 0.55302 0.56138 0.19681 0.0
C340 C 0.5683 0.60199 0.20081 0.0
C341 C 0.57231 0.63558 0.16956 0.0
C342 C 0.56117 0.62903 0.13406 0.0
C343 C 0.54604 0.58879 0.12967 0.0
C344 C 0.54199 0.55508 0.16078 0.0
C345 C 0.57477 0.52377 0.39535 0.0
C346 C 0.56695 0.57029 0.41106 0.0
C347 C 0.56667 0.50523 0.35995 0.0
C348 C 0.55016 0.53196 0.33956 0.0
C349 C 0.54216 0.57851 0.35508 0.0
C350 C 0.55053 0.5976 0.3906 0.0
C351 C 0.54325 0.51277 0.3004 0.0
C352 C 0.54611 0.54563 0.2682 0.0
C353 C 0.53861 0.45988 0.29386 0.0
C354 C 0.53319 0.42446 0.32702 0.0
C355 C 0.51915 0.44064 0.35764 0.0
C356 C 0.5148 0.40838 0.38954 0.0
C357 C 0.52407 0.3593 0.39101 0.0
C358 C 0.53791 0.34259 0.36078 0.0
C359 C 0.54256 0.37494 0.32904 0.0
H360 H 0.52056 0.33426 0.41561 0.0
H361 H 0.56428 0.65514 0.10994 0.0
H362 H 0.4386 0.65962 0.15197 0.0
H363 H 0.45433 0.62603 0.21273 0.0
H364 H 0.48998 0.5111 0.14653 0.0
H365 H 0.4732 0.54316 0.0862 0.0
H366 H 0.46789 0.4651 0.19535 0.0
H367 H 0.51295 0.60909 0.20595 0.0
H368 H 0.52769 0.69701 0.20904 0.0
H369 H 0.48891 0.72624 0.31223 0.0
H370 H 0.47383 0.63849 0.30962 0.0
H371 H 0.4593 0.3613 0.39062 0.0
H372 H 0.47773 0.39054 0.33037 0.0
H373 H 0.44512 0.53755 0.34092 0.0
H374 H 0.42719 0.5093 0.40046 0.0
H375 H 0.48563 0.55378 0.31979 0.0
H376 H 0.42743 0.42622 0.27576 0.0
H377 H 0.41328 0.33703 0.27367 0.0
H378 H 0.47674 0.28381 0.23393 0.0
H379 H 0.49124 0.37272 0.23604 0.0
C380 C 0.45048 0.62853 0.15044 0.0
C381 C 0.45474 0.60379 0.11474 0.0
C382 C 0.4596 0.60937 0.18516 0.0
C383 C 0.47349 0.5659 0.18446 0.0
C384 C 0.47935 0.54454 0.14804 0.0
C385 C 0.46982 0.5629 0.11355 0.0
C386 C 0.4781 0.53721 0.22135 0.0
C387 C 0.47231 0.48475 0.22229 0.0
C388 C 0.48416 0.56205 0.2568 0.0
C389 C 0.49253 0.61616 0.25783 0.0
C390 C 0.50761 0.63393 0.22939 0.0
C391 C 0.516 0.68399 0.23102 0.0
C392 C 0.50934 0.71717 0.26095 0.0
C393 C 0.49418 0.70038 0.28917 0.0
C394 C 0.48577 0.65027 0.28766 0.0
C395 C 0.45613 0.39983 0.37997 0.0
C396 C 0.44169 0.43282 0.40032 0.0
C397 C 0.46667 0.41655 0.34552 0.0
C398 C 0.46298 0.46651 0.33106 0.0
C399 C 0.44865 0.4992 0.35165 0.0
C400 C 0.43817 0.48267 0.38569 0.0
C401 C 0.4725 0.48526 0.29339 0.0
C402 C 0.48164 0.53502 0.2923 0.0
C403 C 0.46918 0.45877 0.25779 0.0
C404 C 0.46041 0.40573 0.25636 0.0
C405 C 0.43833 0.39538 0.26666 0.0
C406 C 0.43027 0.34495 0.26549 0.0
C407 C 0.44412 0.30476 0.25376 0.0
C408 C 0.46605 0.31495 0.24307 0.0
C409 C 0.47419 0.3653 0.24423 0.0
H410 H 0.43785 0.26575 0.25288 0.0
H411 H 0.51585 0.75595 0.2622 0.0
H412 H 0.42104 0.50355 0.91668 0.0
H413 H 0.43292 0.47431 0.85238 0.0
H414 H 0.46497 0.62022 0.83158 0.0
H415 H 0.4528 0.65048 0.89633 0.0
H416 H 0.43858 0.59109 0.7714 0.0
H417 H 0.49306 0.51318 0.84977 0.0
H418 H 0.5079 0.46233 0.90483 0.0
H419 H 0.47811 0.32591 0.85742 0.0
H420 H 0.46237 0.37636 0.80313 0.0
H421 H 0.4595 0.49824 0.58495 0.0
H422 H 0.47118 0.52858 0.64962 0.0
H423 H 0.4432 0.3921 0.70235 0.0
H424 H 0.43284 0.36025 0.6373 0.0
H425 H 0.47633 0.42508 0.74564 0.0
H426 H 0.41182 0.50345 0.68627 0.0
H427 H 0.39191 0.55089 0.63462 0.0
H428 H 0.43587 0.6795 0.64904 0.0
H429 H 0.45621 0.63246 0.70048 0.0
C430 C 0.43073 0.52955 0.89868 0.0
C431 C 0.43588 0.57955 0.91166 0.0
C432 C 0.43766 0.5125 0.86195 0.0
C433 C 0.4501 0.54477 0.83741 0.0
C434 C 0.45549 0.59462 0.85024 0.0
C435 C 0.4485 0.61185 0.88717 0.0
C436 C 0.45586 0.5273 0.79729 0.0
C437 C 0.44736 0.55546 0.76575 0.0
C438 C 0.46677 0.47992 0.79008 0.0
C439 C 0.47651 0.44888 0.82238 0.0
C440 C 0.48959 0.47246 0.8513 0.0
C441 C 0.49804 0.44373 0.88248 0.0
C442 C 0.49398 0.3909 0.88459 0.0
C443 C 0.48129 0.36684 0.85571 0.0
C444 C 0.47253 0.3956 0.82479 0.0
C445 C 0.45655 0.47405 0.61031 0.0
C446 C 0.44505 0.42735 0.60652 0.0
C447 C 0.46314 0.49144 0.64719 0.0
C448 C 0.45738 0.46347 0.68094 0.0
C449 C 0.44769 0.41454 0.67676 0.0
C450 C 0.44171 0.39638 0.63966 0.0
C451 C 0.4583 0.48798 0.72022 0.0
C452 C 0.46805 0.46127 0.75145 0.0
C453 C 0.44792 0.53589 0.72755 0.0
C454 C 0.43567 0.56427 0.6968 0.0
C455 C 0.4173 0.54174 0.67823 0.0
C456 C 0.40594 0.56854 0.64903 0.0
C457 C 0.41266 0.61812 0.63847 0.0
C458 C 0.43072 0.64105 0.65718 0.0
C459 C 0.44217 0.61435 0.68635 0.0
H460 H 0.40384 0.63882 0.61586 0.0
H461 H 0.5007 0.36863 0.90857 0.0
H462 H 0.59869 0.51435 0.91526 0.0
H463 H 0.58291 0.55006 0.85606 0.0
H464 H 0.53961 0.41855 0.84577 0.0
H465 H 0.55586 0.38156 0.90525 0.0
H466 H 0.55545 0.43747 0.77964 0.0
H467 H 0.5244 0.54555 0.87598 0.0
H468 H 0.52073 0.6053 0.93126 0.0
H469 H 0.55818 0.71908 0.86839 0.0
H470 H 0.56214 0.65995 0.81256 0.0
H471 H 0.53517 0.55165 0.59896 0.0
H472 H 0.5232 0.527 0.66514 0.0
H473 H 0.571 0.63256 0.71417 0.0
H474 H 0.58162 0.65975 0.64815 0.0
H475 H 0.53847 0.62273 0.76342 0.0
H476 H 0.58337 0.49833 0.68729 0.0
H477 H 0.58896 0.44026 0.63085 0.0
H478 H 0.52854 0.36092 0.65889 0.0
H479 H 0.52255 0.41886 0.71533 0.0
C480 C 0.58561 0.49308 0.90081 0.0
C481 C 0.57846 0.4451 0.91519 0.0
C482 C 0.57638 0.51398 0.86703 0.0
C483 C 0.5594 0.48812 0.8471 0.0
C484 C 0.55231 0.4399 0.86115 0.0
C485 C 0.56168 0.41863 0.89501 0.0
C486 C 0.55073 0.50958 0.80973 0.0
C487 C 0.55116 0.47777 0.7765 0.0
C488 C 0.54525 0.56242 0.8053 0.0
C489 C 0.54321 0.59811 0.83943 0.0
C490 C 0.53169 0.58331 0.87356 0.0
C491 C 0.52964 0.61713 0.9052 0.0
C492 C 0.53912 0.66608 0.90329 0.0
C493 C 0.55073 0.68122 0.86976 0.0
C494 C 0.5528 0.64754 0.83801 0.0
C495 C 0.54236 0.57099 0.62404 0.0
C496 C 0.55927 0.60746 0.61883 0.0
C497 C 0.53571 0.55658 0.66179 0.0
C498 C 0.54674 0.57654 0.69473 0.0
C499 C 0.56228 0.61633 0.68935 0.0
C500 C 0.56839 0.63191 0.65163 0.0
C501 C 0.54492 0.5514 0.73385 0.0
C502 C 0.54222 0.58228 0.76727 0.0
C503 C 0.54873 0.49804 0.73874 0.0
C504 C 0.55244 0.46304 0.70517 0.0
C505 C 0.57129 0.46852 0.6813 0.0
C506 C 0.57451 0.43569 0.64934 0.0
C507 C 0.55909 0.39699 0.64124 0.0
C508 C 0.54045 0.39095 0.66517 0.0
C509 C 0.53713 0.42373 0.69714 0.0
H510 H 0.56161 0.37162 0.61647 0.0
H511 H 0.53753 0.69222 0.92783 0.0
H512 H 0.05136 0.96354 0.09491 0.0
H513 H 0.03772 0.99804 0.15721 0.0
H514 H 0.07233 0.87803 0.21926 0.0
H515 H 0.085 0.84203 0.15666 0.0
H516 H 0.03669 0.90811 0.26025 0.0
H517 H 0.09834 0.99256 0.19328 0.0
H518 H 0.11559 0.03765 0.13731 0.0
H519 H 0.06635 0.15618 0.14463 0.0
H520 H 0.04866 0.11135 0.20038 0.0
H521 H 0.09436 1.00049 0.41834 0.0
H522 H 0.07959 0.96866 0.35714 0.0
H523 H 0.04703 0.11382 0.33718 0.0
H524 H 0.06225 0.1469 0.39917 0.0
H525 H 0.06987 0.082 0.27374 0.0
H526 H 0.01541 0.00632 0.355 0.0
H527 H 1.0003 0.96026 0.41232 0.0
H528 H 0.03685 0.82521 0.38025 0.0
H529 H 0.05262 0.87078 0.32323 0.0
C530 C 0.05522 0.9434 0.12185 0.0
C531 C 0.06924 0.90044 0.12136 0.0
C532 C 0.04754 0.96323 0.15737 0.0
C533 C 0.05457 0.94155 0.1929 0.0
C534 C 0.06679 0.89556 0.19219 0.0
C535 C 0.07404 0.87497 0.15651 0.0
C536 C 0.05255 0.97079 0.2301 0.0
C537 C 0.0437 0.94631 0.26326 0.0
C538 C 0.06132 0.02121 0.2338 0.0
C539 C 0.07205 0.04837 0.20061 0.0
C540 C 0.09115 0.02811 0.18279 0.0
C541 C 0.10099 0.0536 0.15114 0.0
C542 C 0.09203 0.09968 0.13735 0.0
C543 C 0.07324 0.12043 0.15528 0.0
C544 C 0.06329 0.09501 0.18689 0.0
C545 C 0.08394 0.02586 0.4013 0.0
C546 C 0.07956 0.07644 0.41369 0.0
C547 C 0.07526 0.00724 0.36637 0.0
C548 C 0.06178 0.03838 0.34297 0.0
C549 C 0.05719 0.08894 0.35512 0.0
C550 C 0.06593 0.1078 0.39041 0.0
C551 C 0.05456 0.01871 0.30426 0.0
C552 C 0.06185 0.04483 0.27069 0.0
C553 C 0.04448 0.96976 0.30035 0.0
C554 C 0.03522 0.94208 0.33481 0.0
C555 C 0.02038 0.96694 0.36034 0.0
C556 C 0.01169 0.94089 0.39277 0.0
C557 C 0.01756 0.8898 0.39986 0.0
C558 C 0.03229 0.86477 0.37469 0.0
C559 C 0.04113 0.89071 0.34231 0.0
H560 H 0.01071 0.86963 0.42487 0.0
H561 H 0.09968 0.11936 0.11284 0.0
H562 H 0.92556 0.83198 0.35169 0.0
H563 H 0.94059 0.86356 0.28938 0.0
H564 H 0.96994 0.99289 0.34962 0.0
H565 H 0.95378 0.96283 0.4112 0.0
H566 H 0.94662 0.02703 0.29588 0.0
H567 H 0.99871 0.89239 0.3004 0.0
H568 H 0.014 0.8049 0.30593 0.0
H569 H 0.97933 0.75968 0.20181 0.0
H570 H 0.96352 0.84648 0.196 0.0
H571 H 0.95852 0.12698 0.10361 0.0
H572 H 0.9726 0.09416 0.1663 0.0
H573 H 0.93923 0.94972 0.14586 0.0
H574 H 0.92578 0.98122 0.08354 0.0
H575 H 0.97726 0.93275 0.18185 0.0
H576 H 0.91445 0.05152 0.19751 0.0
H577 H 0.89662 0.13647 0.19142 0.0
H578 H 0.94925 0.20549 0.25765 0.0
H579 H 0.96748 0.12092 0.26376 0.0
C580 C 0.93579 0.86625 0.35157 0.0
C581 C 0.93847 0.8953 0.38583 0.0
C582 C 0.94451 0.88422 0.31604 0.0
C583 C 0.95654 0.93067 0.31467 0.0
C584 C 0.96068 0.95716 0.34978 0.0
C585 C 0.9515 0.93998 0.38493 0.0
C586 C 0.9615 0.9559 0.27651 0.0
C587 C 0.95395 0.00657 0.27136 0.0
C588 C 0.97071 0.92925 0.24409 0.0
C589 C 0.98 0.87643 0.24774 0.0
C590 C 0.99428 0.86383 0.27877 0.0
C591 C 1.00304 0.81429 0.28196 0.0
C592 C 0.9977 0.77683 0.2542 0.0
C593 C 0.98353 0.7888 0.22325 0.0
C594 C 0.97469 0.83826 0.21998 0.0
C595 C 0.95448 0.08802 0.11233 0.0
C596 C 0.9407 0.0571 0.0889 0.0
C597 C 0.96257 0.06928 0.14806 0.0
C598 C 0.95676 0.01964 0.16096 0.0
C599 C 0.94403 0.98802 0.13654 0.0
C600 C 0.93612 0.00643 0.10097 0.0
C601 C 0.96127 1.00194 0.20148 0.0
C602 C 0.97066 0.9531 0.20705 0.0
C603 C 0.95338 0.02951 0.23432 0.0
C604 C 0.94244 0.0802 0.23063 0.0
C605 C 0.92226 0.08491 0.21054 0.0
C606 C 0.91209 0.13294 0.20712 0.0
C607 C 0.92184 0.17638 0.22401 0.0
C608 C 0.94176 0.17184 0.24448 0.0
C609 C 0.95202 0.1239 0.24793 0.0
H610 H 0.91394 0.21353 0.22134 0.0
H611 H 1.00451 0.73851 0.2567 0.0
H612 H 0.94922 0.85191 0.60065 0.0
H613 H 0.9649 0.88642 0.66165 0.0
H614 H 0.92782 0.02648 0.64575 0.0
H615 H 0.91251 0.99312 0.58518 0.0
H616 H 0.96848 0.04745 0.67348 0.0
H617 H 0.90807 0.92687 0.70276 0.0
H618 H 0.89035 0.84127 0.70155 0.0
H619 H 0.94674 0.77608 0.75951 0.0
H620 H 0.96487 0.86129 0.76064 0.0
H621 H 0.93045 0.15057 0.85283 0.0
H622 H 0.94103 0.11849 0.78799 0.0
H623 H 0.97405 0.98952 0.84204 0.0
H624 H 0.96202 0.01981 0.90642 0.0
H625 H 0.94671 0.95479 0.79459 0.0
H626 H 1.00013 0.08682 0.78413 0.0
H627 H 0.01598 0.17426 0.78613 0.0
H628 H 0.97242 0.22154 0.69383 0.0
H629 H 0.95597 0.13485 0.69173 0.0
C630 C 0.94455 0.89016 0.6101 0.0
C631 C 0.92939 0.91945 0.58829 0.0
C632 C 0.95358 0.90988 0.64483 0.0
C633 C 0.94745 0.95898 0.65829 0.0
C634 C 0.93292 0.9887 0.63583 0.0
C635 C 0.92399 0.96922 0.60131 0.0
C636 C 0.95421 0.97831 0.69736 0.0
C637 C 0.96385 0.0274 0.70017 0.0
C638 C 0.94882 0.95125 0.732 0.0
C639 C 0.93792 0.90017 0.73131 0.0
C640 C 0.91673 0.89417 0.71497 0.0
C641 C 0.90661 0.84577 0.71435 0.0
C642 C 0.91745 0.80322 0.73031 0.0
C643 C 0.9384 0.80903 0.74705 0.0
C644 C 0.9486 0.85735 0.74769 0.0
C645 C 0.94064 0.11643 0.85072 0.0
C646 C 0.94549 0.08752 0.88425 0.0
C647 C 0.94679 0.09811 0.81369 0.0
C648 C 0.95841 0.05142 0.80995 0.0
C649 C 0.96498 0.02534 0.84402 0.0
C650 C 0.95824 0.04277 0.88078 0.0
C651 C 0.96024 0.02547 0.77122 0.0
C652 C 0.95216 0.97483 0.76837 0.0
C653 C 0.96694 0.05155 0.73667 0.0
C654 C 0.97682 0.10402 0.73779 0.0
C655 C 0.99384 0.11587 0.76439 0.0
C656 C 1.00293 0.16534 0.76556 0.0
C657 C 0.99524 0.20335 0.74011 0.0
C658 C 0.97841 0.19201 0.71347 0.0
C659 C 0.96921 0.14264 0.71225 0.0
H660 H 1.00232 0.24161 0.74104 0.0
H661 H 0.90959 0.76578 0.72981 0.0
H662 H 0.09443 1.00225 0.92335 0.0
H663 H 0.08088 0.03396 0.86114 0.0
H664 H 0.04869 0.88846 0.83938 0.0
H665 H 0.06273 0.85555 0.9021 0.0
H666 H 0.07278 0.91763 0.7785 0.0
H667 H 0.01854 0.99901 0.8567 0.0
H668 H 1.00349 0.04915 0.91193 0.0
H669 H 0.0392 0.1826 0.87295 0.0
H670 H 0.05526 0.13281 0.81844 0.0
H671 H 0.05563 0.02475 0.59489 0.0
H672 H 0.0428 0.99227 0.65837 0.0
H673 H 0.07472 0.12021 0.71607 0.0
H674 H 0.08629 0.15437 0.65222 0.0
H675 H 0.04066 0.0909 0.7578 0.0
H676 H 0.10227 0.00321 0.69539 0.0
H677 H 0.12024 0.95463 0.64198 0.0
H678 H 0.0716 0.83482 0.65333 0.0
H679 H 0.0532 0.88307 0.70653 0.0
C680 C 0.0843 0.97687 0.90568 0.0
C681 C 0.07978 0.92614 0.91767 0.0
C682 C 0.07632 0.99541 0.87018 0.0
C683 C 0.06338 0.96401 0.8459 0.0
C684 C 0.05847 0.91352 0.85791 0.0
C685 C 0.06654 0.89474 0.89364 0.0
C686 C 0.05733 0.98274 0.80629 0.0
C687 C 0.06501 0.95474 0.77391 0.0
C688 C 0.04768 0.03177 0.80038 0.0
C689 C 0.03817 0.06198 0.83339 0.0
C690 C 0.02338 0.0389 0.86007 0.0
C691 C 0.01465 0.0673 0.89126 0.0
C692 C 0.02027 0.11908 0.8958 0.0
C693 C 0.03482 0.14249 0.86935 0.0
C694 C 0.0438 0.11412 0.83836 0.0
C695 C 0.05916 0.04677 0.62112 0.0
C696 C 0.07203 0.09168 0.61906 0.0
C697 C 0.05197 0.0281 0.65733 0.0
C698 C 0.05846 0.05283 0.69207 0.0
C699 C 0.06965 0.10024 0.68969 0.0
C700 C 0.07628 0.11977 0.65329 0.0
C701 C 0.05648 0.02624 0.73044 0.0
C702 C 0.04747 0.05288 0.76245 0.0
C703 C 0.06509 0.97614 0.73625 0.0
C704 C 0.07623 0.94697 0.70454 0.0
C705 C 0.09536 0.96662 0.68632 0.0
C706 C 0.10562 0.93916 0.65612 0.0
C707 C 0.09703 0.89174 0.64419 0.0
C708 C 0.0782 0.87161 0.66254 0.0
C709 C 0.06785 0.89898 0.69271 0.0
H710 H 0.10499 0.87053 0.62079 0.0
H711 H 0.01339 0.14105 0.91986 0.0
H712 H 0.42421 0.88744 0.05558 0.0
H713 H 0.44622 0.96603 0.04918 0.0
H714 H 0.49303 0.88581 0.97589 0.0
H715 H 0.47108 0.80688 0.9821 0.0
H716 H 0.51351 0.94342 0.03335 0.0
H717 H 0.45808 0.96929 0.93511 0.0
H718 H 0.4201 0.97378 0.9091 0.0
H719 H 0.40466 0.09484 0.99026 0.0
H720 H 0.44248 0.09058 0.01715 0.0
H721 H 0.57302 0.17138 0.98145 0.0
H722 H 0.55208 0.09064 0.97894 0.0
H723 H 0.49783 0.16302 0.03999 0.0
H724 H 0.5183 0.24388 0.04149 0.0
H725 H 0.48189 0.10699 0.98412 0.0
H726 H 0.53565 0.07825 0.08563 0.0
H727 H 0.57307 0.0734 0.11408 0.0
H728 H 0.59109 0.958 0.02984 0.0
H729 H 0.55384 0.96264 0.00057 0.0
C730 C 0.43912 0.88648 0.03791 0.0
C731 C 0.44583 0.84078 0.01929 0.0
C732 C 0.45166 0.93156 0.03418 0.0
C733 C 0.47123 0.93198 0.01183 0.0
C734 C 0.478 0.88644 0.99325 0.0
C735 C 0.46536 0.8414 -0.00329 0.0
C736 C 0.48478 0.97973 0.00859 0.0
C737 C 0.50673 0.97902 0.02199 0.0
C738 C 0.4758 0.02648 0.9946 0.0
C739 C 0.45307 0.02929 0.97837 0.0
C740 C 0.44654 0.99659 0.94762 0.0
C741 C 0.42505 0.99915 0.93268 0.0
C742 C 0.40996 0.03449 0.94808 0.0
C743 C 0.41636 0.06745 0.97839 0.0
C744 C 0.43783 0.06502 0.99346 0.0
C745 C 0.55662 0.17006 0.99432 0.0
C746 C 0.54739 0.21416 0.01174 0.0
C747 C 0.54468 0.12376 0.99304 0.0
C748 C 0.5234 0.12032 0.00973 0.0
C749 C 0.51415 0.16448 0.02684 0.0
C750 C 0.52595 0.21079 0.02777 0.0
C751 C 0.51062 0.07106 0.00943 0.0
C752 C 0.48878 0.07141 0.9953 0.0
C753 C 0.51966 0.02408 0.02309 0.0
C754 C 0.54205 0.02122 0.04065 0.0
C755 C 0.54765 0.05214 0.07299 0.0
C756 C 0.56882 0.04937 0.08929 0.0
C757 C 0.58447 0.01553 0.0737 0.0
C758 C 0.57896 0.98427 0.04184 0.0
C759 C 0.55782 0.98692 0.0254 0.0
H760 H 0.60085 0.01344 0.08637 0.0
H761 H 0.39333 0.03641 0.93647 0.0
H762 H 0.52123 0.78875 0.43175 0.0
H763 H 0.50285 0.87235 0.43057 0.0
H764 H 0.54403 0.92442 0.52579 0.0
H765 H 0.56266 0.84071 0.52705 0.0
H766 H 0.499 0.94464 0.53737 0.0
H767 H 0.55378 0.96967 0.43719 0.0
H768 H 0.57451 0.94824 0.37703 0.0
H769 H 0.51453 0.95525 0.30999 0.0
H770 H 0.49338 0.97603 0.36988 0.0
H771 H 0.46559 0.20607 0.52926 0.0
H772 H 0.48693 0.12642 0.52999 0.0
H773 H 0.45347 0.07564 0.42526 0.0
H774 H 0.43244 0.15589 0.42377 0.0
H775 H 0.49591 0.05571 0.41922 0.0
H776 H 0.44068 0.02667 0.51775 0.0
H777 H 0.41888 0.04543 0.57725 0.0
H778 H 0.4781 0.04283 0.64657 0.0
H779 H 0.5003 0.02472 0.58736 0.0
C780 C 0.52651 0.81803 0.45232 0.0
C781 C 0.54343 0.80801 0.47951 0.0
C782 C 0.51601 0.8659 0.4515 0.0
C783 C 0.52213 0.90472 0.47797 0.0
C784 C 0.53907 0.895 0.50508 0.0
C785 C 0.54976 0.84723 0.50564 0.0
C786 C 0.51031 0.95481 0.47799 0.0
C787 C 0.49862 0.96941 0.51178 0.0
C788 C 0.50928 0.98631 0.4442 0.0
C789 C 0.52197 0.97394 0.4081 0.0
C790 C 0.54498 0.96621 0.40968 0.0
C791 C 0.55681 0.95427 0.37561 0.0
C792 C 0.54584 0.95026 0.33973 0.0
C793 C 0.52301 0.95831 0.33782 0.0
C794 C 0.51109 0.97023 0.37181 0.0
C795 C 0.46269 0.17792 0.50643 0.0
C796 C 0.44721 0.18736 0.47652 0.0
C797 C 0.47487 0.13221 0.50697 0.0
C798 C 0.47165 0.09456 0.47797 0.0
C799 C 0.45627 0.10401 0.44798 0.0
C800 C 0.44419 0.14989 0.44726 0.0
C801 C 0.48446 0.04563 0.47862 0.0
C802 C 0.49634 0.03115 0.44492 0.0
C803 C 0.48548 0.01396 0.5124 0.0
C804 C 0.47218 0.02489 0.54805 0.0
C805 C 0.44908 0.03052 0.54563 0.0
C806 C 0.43664 0.04096 0.57931 0.0
C807 C 0.44711 0.04547 0.61565 0.0
C808 C 0.47002 0.03942 0.61839 0.0
C809 C 0.48254 0.02903 0.58479 0.0
H810 H 0.43745 0.05353 0.64169 0.0
H811 H 0.55503 0.94102 0.31338 0.0
H812 H 0.0446 0.7037 0.98293 0.0
H813 H 0.01984 0.62984 0.97559 0.0
H814 H 0.06237 0.53938 0.04975 0.0
H815 H 0.0873 0.61311 0.05722 0.0
H816 H 0.0485 0.48485 0.98544 0.0
H817 H 0.01539 0.58757 0.08629 0.0
H818 H 1.00048 0.66675 0.11601 0.0
H819 H 0.9511 0.67546 0.02594 0.0
H820 H 0.96592 0.59667 0.99535 0.0
H821 H 0.97329 0.2814 0.02609 0.0
H822 H 0.99806 0.35524 0.0333 0.0
H823 H 0.95553 0.44552 0.95899 0.0
H824 H 0.93058 0.37181 0.95169 0.0
H825 H 0.96942 0.50007 0.02328 0.0
H826 H 1.00251 0.39684 0.92263 0.0
H827 H 0.01716 0.31694 0.89363 0.0
H828 H 0.06652 0.3088 0.98375 0.0
H829 H 0.05195 0.3883 0.01365 0.0
C830 C 0.04878 0.66807 -0.00243 0.0
C831 C 0.06794 0.6645 0.02082 0.0
C832 C 0.03453 0.62589 0.99347 0.0
C833 C 0.03909 0.57916 0.01246 0.0
C834 C 0.05848 0.57504 0.03488 0.0
C835 C 0.07269 0.61733 0.0392 0.0
C836 C 0.0235 0.53486 0.00931 0.0
C837 C 0.03128 0.488 0.99419 0.0
C838 C 1.0009 0.53916 0.01995 0.0
C839 C 0.99192 0.58651 0.03829 0.0
C840 C 1.00147 0.60661 0.07262 0.0
C841 C 0.99302 0.65137 0.08966 0.0
C842 C 0.9749 0.6762 0.07281 0.0
C843 C 0.96516 0.65623 0.03893 0.0
C844 C 0.97357 0.6115 0.02174 0.0
C845 C 0.96911 0.31698 0.01138 0.0
C846 C 0.94995 0.32051 0.98815 0.0
C847 C 0.98337 0.35915 0.01541 0.0
C848 C 0.97882 0.40582 -0.00368 0.0
C849 C 0.95943 0.4099 0.97392 0.0
C850 C 0.9452 0.36763 0.9697 0.0
C851 C 0.99442 0.45009 -0.00061 0.0
C852 C 0.98664 0.49694 0.01449 0.0
C853 C 0.01702 0.44576 0.98876 0.0
C854 C 0.02599 0.39826 0.97061 0.0
C855 C 0.01638 0.37781 0.93644 0.0
C856 C 0.02469 0.33262 0.91981 0.0
C857 C 0.04272 0.30772 0.9369 0.0
C858 C 0.05253 0.32809 0.97058 0.0
C859 C 0.04427 0.37323 0.98736 0.0
H860 H 0.04911 0.27272 0.92399 0.0
H861 H 0.96837 0.71085 0.08606 0.0
H862 H 0.09619 0.38621 0.47406 0.0
H863 H 0.07236 0.46213 0.47442 0.0
H864 H 0.01903 0.37185 0.52313 0.0
H865 H 0.04267 0.2956 0.52256 0.0
H866 H 1.00448 0.43344 0.46455 0.0
H867 H 0.04838 0.45377 0.58068 0.0
H868 H 0.08294 0.45877 0.61881 0.0
H869 H 0.10414 0.58854 0.55037 0.0
H870 H 0.06983 0.58388 0.51145 0.0
H871 H 0.93607 0.64809 0.51331 0.0
H872 H 0.95833 0.5695 0.51631 0.0
H873 H 0.01544 0.6542 0.47577 0.0
H874 H 0.99354 0.73277 0.47374 0.0
H875 H 0.02729 0.59354 0.53264 0.0
H876 H 0.98462 0.57203 0.41486 0.0
H877 H 0.95053 0.56722 0.37542 0.0
H878 H 0.92751 0.44035 0.44519 0.0
H879 H 0.96137 0.44484 0.48539 0.0
C880 C 0.0794 0.38242 0.48487 0.0
C881 C 0.0714 0.33474 0.49841 0.0
C882 C 0.0658 0.42598 0.4852 0.0
C883 C 0.04394 0.4229 0.4992 0.0
C884 C 0.03583 0.37523 0.51225 0.0
C885 C 0.04942 0.33168 0.51201 0.0
C886 C 0.02954 0.46934 0.5001 0.0
C887 C 0.00932 0.46823 0.47991 0.0
C888 C 0.03602 0.51513 0.51944 0.0
C889 C 0.05662 0.51816 0.54292 0.0
C890 C 0.06049 0.48313 0.57356 0.0
C891 C 0.08002 0.48595 0.59535 0.0
C892 C 0.09575 0.52387 0.58695 0.0
C893 C 0.09195 0.55915 0.55681 0.0
C894 C 0.07246 0.55647 0.5349 0.0
C895 C 0.95337 0.64993 0.50504 0.0
C896 C 0.96299 0.69677 0.49324 0.0
C897 C 0.96607 0.60489 0.50659 0.0
C898 C 0.98857 0.60562 0.49582 0.0
C899 C 0.99817 0.65248 0.48429 0.0
C900 C 0.98556 0.69746 0.48304 0.0
C901 C 1.00227 0.55795 0.49673 0.0
C902 C 0.02238 0.55876 0.51734 0.0
C903 C 0.99574 0.512 0.47758 0.0
C904 C 0.97541 0.50913 0.45338 0.0
C905 C 0.97221 0.54336 0.42198 0.0
C906 C 0.95295 0.54065 0.39945 0.0
C907 C 0.93683 0.5036 0.40787 0.0
C908 C 0.93999 0.46909 0.43875 0.0
C909 C 0.95922 0.47167 0.46139 0.0
H910 H 0.92193 0.50156 0.3904 0.0
H911 H 0.11086 0.52599 0.60385 0.0
loop_
_geom_bond_atom_site_label_1
_geom_bond_atom_site_label_2
_geom_bond_distance
_geom_bond_site_symmetry_2
_ccdc_geom_bond_type
Zn0 O3 2.031 . S
Zn0 O5 2.049 1_554 S
Zn0 O10 2.067 1_554 S
Zn1 O2 1.962 . S
Zn1 O4 1.986 1_554 S
Zn1 O6 1.996 1_554 S
Zn1 O9 1.943 . S
O2 Zn1 1.962 . S
O2 C7 1.254 . S
O3 Zn0 2.031 . S
O3 C7 1.269 . S
O4 Zn1 1.986 1_556 S
O4 C11 1.262 1_556 S
O5 Zn0 2.049 1_556 S
O5 C13 1.260 . S
O6 Zn1 1.996 1_556 S
O6 C13 1.257 . S
C7 O2 1.254 . S
C7 O3 1.269 . S
C8 O9 1.249 . S
C8 O10 1.270 1_554 S
O9 Zn1 1.943 . S
O9 C8 1.249 . S
O10 Zn0 2.067 1_556 S
O10 C8 1.270 1_556 S
C11 O4 1.262 1_554 S
C11 O12 1.232 . S
O12 C11 1.232 . S
C13 O5 1.260 . S
C13 O6 1.257 . S
Zn14 O17 2.031 . S
Zn14 O19 2.049 1_554 S
Zn14 O24 2.067 1_554 S
Zn15 O16 1.962 . S
Zn15 O18 1.986 1_554 S
Zn15 O20 1.996 1_554 S
Zn15 O23 1.943 . S
O16 Zn15 1.962 . S
O16 C21 1.254 . S
O17 Zn14 2.031 . S
O17 C21 1.269 . S
O18 Zn15 1.986 1_556 S
O18 C25 1.262 1_556 S
O19 Zn14 2.049 1_556 S
O19 C27 1.260 . S
O20 Zn15 1.996 1_556 S
O20 C27 1.257 . S
C21 O16 1.254 . S
C21 O17 1.269 . S
C22 O23 1.249 . S
C22 O24 1.270 1_554 S
O23 Zn15 1.943 . S
O23 C22 1.249 . S
O24 Zn14 2.067 1_556 S
O24 C22 1.270 1_556 S
C25 O18 1.262 1_554 S
C25 O26 1.232 . S
O26 C25 1.232 . S
C27 O19 1.260 . S
C27 O20 1.257 . S
Zn28 O31 2.031 . S
Zn28 O33 2.049 . S
Zn28 O38 2.067 . S
Zn29 O30 1.962 . S
Zn29 O32 1.986 . S
Zn29 O34 1.996 . S
Zn29 O37 1.943 . S
O30 Zn29 1.962 . S
O30 C35 1.254 . S
O31 Zn28 2.031 . S
O31 C35 1.269 . S
O32 Zn29 1.986 . S
O32 C39 1.262 . S
O33 Zn28 2.049 . S
O33 C41 1.260 . S
O34 Zn29 1.996 . S
O34 C41 1.257 . S
C35 O30 1.254 . S
C35 O31 1.269 . S
C36 O37 1.249 . S
C36 O38 1.270 . S
O37 Zn29 1.943 . S
O37 C36 1.249 . S
O38 Zn28 2.067 . S
O38 C36 1.270 . S
C39 O32 1.262 . S
C39 O40 1.232 . S
O40 C39 1.232 . S
C41 O33 1.260 . S
C41 O34 1.257 . S
Zn42 O45 2.031 . S
Zn42 O47 2.049 . S
Zn42 O52 2.067 . S
Zn43 O44 1.962 . S
Zn43 O46 1.986 . S
Zn43 O48 1.996 . S
Zn43 O51 1.943 . S
O44 Zn43 1.962 . S
O44 C49 1.254 . S
O45 Zn42 2.031 . S
O45 C49 1.269 . S
O46 Zn43 1.986 . S
O46 C53 1.262 . S
O47 Zn42 2.049 . S
O47 C55 1.260 . S
O48 Zn43 1.996 . S
O48 C55 1.257 . S
C49 O44 1.254 . S
C49 O45 1.269 . S
C50 O51 1.249 . S
C50 O52 1.270 . S
O51 Zn43 1.943 . S
O51 C50 1.249 . S
O52 Zn42 2.067 . S
O52 C50 1.270 . S
C53 O46 1.262 . S
C53 O54 1.232 . S
O54 C53 1.232 . S
C55 O47 1.260 . S
C55 O48 1.257 . S
Zn56 O59 2.031 . S
Zn56 O61 2.049 1_554 S
Zn56 O66 2.067 1_554 S
Zn57 O58 1.962 . S
Zn57 O60 1.986 1_554 S
Zn57 O62 1.996 1_554 S
Zn57 O65 1.943 . S
O58 Zn57 1.962 . S
O58 C63 1.254 . S
O59 Zn56 2.031 . S
O59 C63 1.269 . S
O60 Zn57 1.986 1_556 S
O60 C67 1.262 1_556 S
O61 Zn56 2.049 1_556 S
O61 C69 1.260 . S
O62 Zn57 1.996 1_556 S
O62 C69 1.257 . S
C63 O58 1.254 . S
C63 O59 1.269 . S
C64 O65 1.249 . S
C64 O66 1.270 1_554 S
O65 Zn57 1.943 . S
O65 C64 1.249 . S
O66 Zn56 2.067 1_556 S
O66 C64 1.270 1_556 S
C67 O60 1.262 1_554 S
C67 O68 1.232 . S
O68 C67 1.232 . S
C69 O61 1.260 . S
C69 O62 1.257 . S
Zn70 O73 2.031 . S
Zn70 O75 2.049 1_554 S
Zn70 O80 2.067 1_554 S
Zn71 O72 1.962 . S
Zn71 O74 1.986 1_554 S
Zn71 O76 1.996 1_554 S
Zn71 O79 1.943 . S
O72 Zn71 1.962 . S
O72 C77 1.254 . S
O73 Zn70 2.031 . S
O73 C77 1.269 . S
O74 Zn71 1.986 1_556 S
O74 C81 1.262 1_556 S
O75 Zn70 2.049 1_556 S
O75 C83 1.260 . S
O76 Zn71 1.996 1_556 S
O76 C83 1.257 . S
C77 O72 1.254 . S
C77 O73 1.269 . S
C78 O79 1.249 . S
C78 O80 1.270 1_554 S
O79 Zn71 1.943 . S
O79 C78 1.249 . S
O80 Zn70 2.067 1_556 S
O80 C78 1.270 1_556 S
C81 O74 1.262 1_554 S
C81 O82 1.232 . S
O82 C81 1.232 . S
C83 O75 1.260 . S
C83 O76 1.257 . S
Zn84 O87 2.031 . S
Zn84 O89 2.049 . S
Zn84 O94 2.067 . S
Zn85 O86 1.962 . S
Zn85 O88 1.986 . S
Zn85 O90 1.996 . S
Zn85 O93 1.943 . S
O86 Zn85 1.962 . S
O86 C91 1.254 . S
O87 Zn84 2.031 . S
O87 C91 1.269 . S
O88 Zn85 1.986 . S
O88 C95 1.262 . S
O89 Zn84 2.049 . S
O89 C97 1.260 . S
O90 Zn85 1.996 . S
O90 C97 1.257 . S
C91 O86 1.254 . S
C91 O87 1.269 . S
C92 O93 1.249 . S
C92 O94 1.270 . S
O93 Zn85 1.943 . S
O93 C92 1.249 . S
O94 Zn84 2.067 . S
O94 C92 1.270 . S
C95 O88 1.262 . S
C95 O96 1.232 . S
O96 C95 1.232 . S
C97 O89 1.260 . S
C97 O90 1.257 . S
Zn98 O101 2.031 . S
Zn98 O103 2.049 . S
Zn98 O108 2.067 . S
Zn99 O100 1.962 . S
Zn99 O102 1.986 . S
Zn99 O104 1.996 . S
Zn99 O107 1.943 . S
O100 Zn99 1.962 . S
O100 C105 1.254 . S
O101 Zn98 2.031 . S
O101 C105 1.269 . S
O102 Zn99 1.986 . S
O102 C109 1.262 . S
O103 Zn98 2.049 . S
O103 C111 1.260 . S
O104 Zn99 1.996 . S
O104 C111 1.257 . S
C105 O100 1.254 . S
C105 O101 1.269 . S
C106 O107 1.249 . S
C106 O108 1.270 . S
O107 Zn99 1.943 . S
O107 C106 1.249 . S
O108 Zn98 2.067 . S
O108 C106 1.270 . S
C109 O102 1.262 . S
C109 O110 1.232 . S
O110 C109 1.232 . S
C111 O103 1.260 . S
C111 O104 1.257 . S
H112 C130 0.951 . S
H113 C132 0.951 . S
H114 C134 0.950 . S
H115 C135 0.950 . S
H116 C137 0.950 . S
H117 C140 0.950 . S
H118 C141 0.950 . S
H119 C143 0.950 . S
H120 C144 0.950 . S
H121 C145 0.951 . S
H122 C147 0.951 . S
H123 C149 0.950 . S
H124 C150 0.950 . S
H125 C152 0.950 . S
H126 C155 0.950 . S
H127 C156 0.950 . S
H128 C158 0.950 . S
H129 C159 0.950 . S
C130 H112 0.951 . S
C130 C131 1.366 . S
C130 C132 1.388 . S
C131 C130 1.366 . S
C131 C135 1.385 . S
C132 H113 0.951 . S
C132 C130 1.388 . S
C132 C133 1.366 . S
C133 C132 1.366 . S
C133 C134 1.414 . S
C133 C136 1.499 . S
C134 H114 0.950 . S
C134 C133 1.414 . S
C134 C135 1.374 . S
C135 H115 0.950 . S
C135 C131 1.385 . S
C135 C134 1.374 . S
C136 C133 1.499 . S
C136 C137 1.373 1_554 S
C136 C138 1.389 . S
C137 H116 0.950 . S
C137 C136 1.373 1_556 S
C137 C153 1.377 . S
C138 C136 1.389 . S
C138 C139 1.524 . S
C138 C152 1.377 . S
C139 C138 1.524 . S
C139 C140 1.397 . S
C139 C144 1.363 . S
C140 H117 0.950 . S
C140 C139 1.397 . S
C140 C141 1.334 . S
C141 H118 0.950 . S
C141 C140 1.334 . S
C141 C142 1.287 . S
C142 C141 1.287 . S
C142 C143 1.524 . S
C142 H161 0.913 . S
C143 H119 0.950 . S
C143 C142 1.524 . S
C143 C144 1.415 . S
C144 H120 0.950 . S
C144 C139 1.363 . S
C144 C143 1.415 . S
C145 H121 0.951 . S
C145 C146 1.366 . S
C145 C147 1.388 . S
C146 C145 1.366 . S
C146 C150 1.385 . S
C147 H122 0.951 . S
C147 C145 1.388 . S
C147 C148 1.366 . S
C148 C147 1.366 . S
C148 C149 1.414 . S
C148 C151 1.499 . S
C149 H123 0.950 . S
C149 C148 1.414 . S
C149 C150 1.374 . S
C150 H124 0.950 . S
C150 C146 1.385 . S
C150 C149 1.374 . S
C151 C148 1.499 . S
C151 C152 1.373 . S
C151 C153 1.389 1_554 S
C152 H125 0.950 . S
C152 C138 1.377 . S
C152 C151 1.373 . S
C153 C137 1.377 . S
C153 C151 1.389 1_556 S
C153 C154 1.524 . S
C154 C153 1.524 . S
C154 C155 1.397 . S
C154 C159 1.363 . S
C155 H126 0.950 . S
C155 C154 1.397 . S
C155 C156 1.334 . S
C156 H127 0.950 . S
C156 C155 1.334 . S
C156 C157 1.287 . S
C157 C156 1.287 . S
C157 C158 1.524 . S
C157 H160 0.999 . S
C158 H128 0.950 . S
C158 C157 1.524 . S
C158 C159 1.415 . S
C159 H129 0.950 . S
C159 C154 1.363 . S
C159 C158 1.415 . S
H160 C157 0.999 . S
H161 C142 0.913 . S
H162 C180 0.951 . S
H163 C182 0.951 . S
H164 C184 0.950 . S
H165 C185 0.950 . S
H166 C187 0.950 . S
H167 C190 0.950 . S
H168 C191 0.950 . S
H169 C193 0.950 . S
H170 C194 0.950 . S
H171 C195 0.951 . S
H172 C197 0.951 . S
H173 C199 0.950 . S
H174 C200 0.950 . S
H175 C202 0.950 . S
H176 C205 0.950 . S
H177 C206 0.950 . S
H178 C208 0.950 . S
H179 C209 0.950 . S
C180 H162 0.951 . S
C180 C181 1.366 . S
C180 C182 1.388 . S
C181 C180 1.366 . S
C181 C185 1.385 1_554 S
C182 H163 0.951 . S
C182 C180 1.388 . S
C182 C183 1.366 . S
C183 C182 1.366 . S
C183 C184 1.414 1_554 S
C183 C186 1.499 . S
C184 H164 0.950 . S
C184 C183 1.414 1_556 S
C184 C185 1.374 . S
C185 H165 0.950 . S
C185 C181 1.385 1_556 S
C185 C184 1.374 . S
C186 C183 1.499 . S
C186 C187 1.373 1_554 S
C186 C188 1.389 . S
C187 H166 0.950 . S
C187 C186 1.373 1_556 S
C187 C203 1.377 . S
C188 C186 1.389 . S
C188 C189 1.524 . S
C188 C202 1.377 . S
C189 C188 1.524 . S
C189 C190 1.397 . S
C189 C194 1.363 . S
C190 H167 0.950 . S
C190 C189 1.397 . S
C190 C191 1.334 . S
C191 H168 0.950 . S
C191 C190 1.334 . S
C191 C192 1.287 . S
C192 C191 1.287 . S
C192 C193 1.524 . S
C192 H211 0.913 . S
C193 H169 0.950 . S
C193 C192 1.524 . S
C193 C194 1.415 . S
C194 H170 0.950 . S
C194 C189 1.363 . S
C194 C193 1.415 . S
C195 H171 0.951 . S
C195 C196 1.366 1_556 S
C195 C197 1.388 . S
C196 C195 1.366 1_554 S
C196 C200 1.385 . S
C197 H172 0.951 . S
C197 C195 1.388 . S
C197 C198 1.366 1_556 S
C198 C197 1.366 1_554 S
C198 C199 1.414 . S
C198 C201 1.499 . S
C199 H173 0.950 . S
C199 C198 1.414 . S
C199 C200 1.374 . S
C200 H174 0.950 . S
C200 C196 1.385 . S
C200 C199 1.374 . S
C201 C198 1.499 . S
C201 C202 1.373 . S
C201 C203 1.389 1_554 S
C202 H175 0.950 . S
C202 C188 1.377 . S
C202 C201 1.373 . S
C203 C187 1.377 . S
C203 C201 1.389 1_556 S
C203 C204 1.524 . S
C204 C203 1.524 . S
C204 C205 1.397 . S
C204 C209 1.363 . S
C205 H176 0.950 . S
C205 C204 1.397 . S
C205 C206 1.334 . S
C206 H177 0.950 . S
C206 C205 1.334 . S
C206 C207 1.287 . S
C207 C206 1.287 . S
C207 C208 1.524 . S
C207 H210 0.999 . S
C208 H178 0.950 . S
C208 C207 1.524 . S
C208 C209 1.415 . S
C209 H179 0.950 . S
C209 C204 1.363 . S
C209 C208 1.415 . S
H210 C207 0.999 . S
H211 C192 0.913 . S
H212 C230 0.951 . S
H213 C232 0.951 . S
H214 C234 0.950 . S
H215 C235 0.950 . S
H216 C237 0.950 . S
H217 C240 0.950 . S
H218 C241 0.950 . S
H219 C243 0.950 . S
H220 C244 0.950 . S
H221 C245 0.951 . S
H222 C247 0.951 . S
H223 C249 0.950 . S
H224 C250 0.950 . S
H225 C252 0.950 . S
H226 C255 0.950 . S
H227 C256 0.950 . S
H228 C258 0.950 . S
H229 C259 0.950 . S
C230 H212 0.951 . S
C230 C231 1.366 . S
C230 C232 1.388 . S
C231 C230 1.366 . S
C231 C235 1.385 . S
C232 H213 0.951 . S
C232 C230 1.388 . S
C232 C233 1.366 . S
C233 C232 1.366 . S
C233 C234 1.414 . S
C233 C236 1.499 . S
C234 H214 0.950 . S
C234 C233 1.414 . S
C234 C235 1.374 . S
C235 H215 0.950 . S
C235 C231 1.385 . S
C235 C234 1.374 . S
C236 C233 1.499 . S
C236 C237 1.373 . S
C236 C238 1.389 . S
C237 H216 0.950 . S
C237 C236 1.373 . S
C237 C253 1.377 . S
C238 C236 1.389 . S
C238 C239 1.524 . S
C238 C252 1.377 . S
C239 C238 1.524 . S
C239 C240 1.397 . S
C239 C244 1.363 . S
C240 H217 0.950 . S
C240 C239 1.397 . S
C240 C241 1.334 . S
C241 H218 0.950 . S
C241 C240 1.334 . S
C241 C242 1.287 . S
C242 C241 1.287 . S
C242 C243 1.524 . S
C242 H261 0.913 . S
C243 H219 0.950 . S
C243 C242 1.524 . S
C243 C244 1.415 . S
C244 H220 0.950 . S
C244 C239 1.363 . S
C244 C243 1.415 . S
C245 H221 0.951 . S
C245 C246 1.366 . S
C245 C247 1.388 . S
C246 C245 1.366 . S
C246 C250 1.385 . S
C247 H222 0.951 . S
C247 C245 1.388 . S
C247 C248 1.366 . S
C248 C247 1.366 . S
C248 C249 1.414 . S
C248 C251 1.499 . S
C249 H223 0.950 . S
C249 C248 1.414 . S
C249 C250 1.374 . S
C250 H224 0.950 . S
C250 C246 1.385 . S
C250 C249 1.374 . S
C251 C248 1.499 . S
C251 C252 1.373 . S
C251 C253 1.389 . S
C252 H225 0.950 . S
C252 C238 1.377 . S
C252 C251 1.373 . S
C253 C237 1.377 . S
C253 C251 1.389 . S
C253 C254 1.524 . S
C254 C253 1.524 . S
C254 C255 1.397 . S
C254 C259 1.363 . S
C255 H226 0.950 . S
C255 C254 1.397 . S
C255 C256 1.334 . S
C256 H227 0.950 . S
C256 C255 1.334 . S
C256 C257 1.287 . S
C257 C256 1.287 . S
C257 C258 1.524 . S
C257 H260 0.999 . S
C258 H228 0.950 . S
C258 C257 1.524 . S
C258 C259 1.415 . S
C259 H229 0.950 . S
C259 C254 1.363 . S
C259 C258 1.415 . S
H260 C257 0.999 . S
H261 C242 0.913 . S
H262 C280 0.951 . S
H263 C282 0.951 . S
H264 C284 0.950 . S
H265 C285 0.950 . S
H266 C287 0.950 . S
H267 C290 0.950 . S
H268 C291 0.950 . S
H269 C293 0.950 . S
H270 C294 0.950 . S
H271 C295 0.951 . S
H272 C297 0.951 . S
H273 C299 0.950 . S
H274 C300 0.950 . S
H275 C302 0.950 . S
H276 C305 0.950 . S
H277 C306 0.950 . S
H278 C308 0.950 . S
H279 C309 0.950 . S
C280 H262 0.951 . S
C280 C281 1.366 . S
C280 C282 1.388 . S
C281 C280 1.366 . S
C281 C285 1.385 . S
C282 H263 0.951 . S
C282 C280 1.388 . S
C282 C283 1.366 . S
C283 C282 1.366 . S
C283 C284 1.414 . S
C283 C286 1.499 . S
C284 H264 0.950 . S
C284 C283 1.414 . S
C284 C285 1.374 . S
C285 H265 0.950 . S
C285 C281 1.385 . S
C285 C284 1.374 . S
C286 C283 1.499 . S
C286 C287 1.373 . S
C286 C288 1.389 . S
C287 H266 0.950 . S
C287 C286 1.373 . S
C287 C303 1.377 . S
C288 C286 1.389 . S
C288 C289 1.524 . S
C288 C302 1.377 . S
C289 C288 1.524 . S
C289 C290 1.397 . S
C289 C294 1.363 . S
C290 H267 0.950 . S
C290 C289 1.397 . S
C290 C291 1.334 . S
C291 H268 0.950 . S
C291 C290 1.334 . S
C291 C292 1.287 . S
C292 C291 1.287 . S
C292 C293 1.524 . S
C292 H311 0.913 . S
C293 H269 0.950 . S
C293 C292 1.524 . S
C293 C294 1.415 . S
C294 H270 0.950 . S
C294 C289 1.363 . S
C294 C293 1.415 . S
C295 H271 0.951 . S
C295 C296 1.366 . S
C295 C297 1.388 . S
C296 C295 1.366 . S
C296 C300 1.385 . S
C297 H272 0.951 . S
C297 C295 1.388 . S
C297 C298 1.366 . S
C298 C297 1.366 . S
C298 C299 1.414 . S
C298 C301 1.499 . S
C299 H273 0.950 . S
C299 C298 1.414 . S
C299 C300 1.374 . S
C300 H274 0.950 . S
C300 C296 1.385 . S
C300 C299 1.374 . S
C301 C298 1.499 . S
C301 C302 1.373 . S
C301 C303 1.389 . S
C302 H275 0.950 . S
C302 C288 1.377 . S
C302 C301 1.373 . S
C303 C287 1.377 . S
C303 C301 1.389 . S
C303 C304 1.524 . S
C304 C303 1.524 . S
C304 C305 1.397 . S
C304 C309 1.363 . S
C305 H276 0.950 . S
C305 C304 1.397 . S
C305 C306 1.334 . S
C306 H277 0.950 . S
C306 C305 1.334 . S
C306 C307 1.287 . S
C307 C306 1.287 . S
C307 C308 1.524 . S
C307 H310 0.999 . S
C308 H278 0.950 . S
C308 C307 1.524 . S
C308 C309 1.415 . S
C309 H279 0.950 . S
C309 C304 1.363 . S
C309 C308 1.415 . S
H310 C307 0.999 . S
H311 C292 0.913 . S
H312 C330 0.951 . S
H313 C332 0.951 . S
H314 C334 0.950 . S
H315 C335 0.950 . S
H316 C337 0.950 . S
H317 C340 0.950 . S
H318 C341 0.950 . S
H319 C343 0.950 . S
H320 C344 0.950 . S
H321 C345 0.951 . S
H322 C347 0.951 . S
H323 C349 0.950 . S
H324 C350 0.950 . S
H325 C352 0.950 . S
H326 C355 0.950 . S
H327 C356 0.950 . S
H328 C358 0.950 . S
H329 C359 0.950 . S
C330 H312 0.951 . S
C330 C331 1.366 . S
C330 C332 1.388 . S
C331 C330 1.366 . S
C331 C335 1.385 . S
C332 H313 0.951 . S
C332 C330 1.388 . S
C332 C333 1.366 . S
C333 C332 1.366 . S
C333 C334 1.414 . S
C333 C336 1.499 . S
C334 H314 0.950 . S
C334 C333 1.414 . S
C334 C335 1.374 . S
C335 H315 0.950 . S
C335 C331 1.385 . S
C335 C334 1.374 . S
C336 C333 1.499 . S
C336 C337 1.373 . S
C336 C338 1.389 . S
C337 H316 0.950 . S
C337 C336 1.373 . S
C337 C353 1.377 . S
C338 C336 1.389 . S
C338 C339 1.524 . S
C338 C352 1.377 . S
C339 C338 1.524 . S
C339 C340 1.397 . S
C339 C344 1.363 . S
C340 H317 0.950 . S
C340 C339 1.397 . S
C340 C341 1.334 . S
C341 H318 0.950 . S
C341 C340 1.334 . S
C341 C342 1.287 . S
C342 C341 1.287 . S
C342 C343 1.524 . S
C342 H361 0.913 . S
C343 H319 0.950 . S
C343 C342 1.524 . S
C343 C344 1.415 . S
C344 H320 0.950 . S
C344 C339 1.363 . S
C344 C343 1.415 . S
C345 H321 0.951 . S
C345 C346 1.366 . S
C345 C347 1.388 . S
C346 C345 1.366 . S
C346 C350 1.385 . S
C347 H322 0.951 . S
C347 C345 1.388 . S
C347 C348 1.366 . S
C348 C347 1.366 . S
C348 C349 1.414 . S
C348 C351 1.499 . S
C349 H323 0.950 . S
C349 C348 1.414 . S
C349 C350 1.374 . S
C350 H324 0.950 . S
C350 C346 1.385 . S
C350 C349 1.374 . S
C351 C348 1.499 . S
C351 C352 1.373 . S
C351 C353 1.389 . S
C352 H325 0.950 . S
C352 C338 1.377 . S
C352 C351 1.373 . S
C353 C337 1.377 . S
C353 C351 1.389 . S
C353 C354 1.524 . S
C354 C353 1.524 . S
C354 C355 1.397 . S
C354 C359 1.363 . S
C355 H326 0.950 . S
C355 C354 1.397 . S
C355 C356 1.334 . S
C356 H327 0.950 . S
C356 C355 1.334 . S
C356 C357 1.287 . S
C357 C356 1.287 . S
C357 C358 1.524 . S
C357 H360 0.999 . S
C358 H328 0.950 . S
C358 C357 1.524 . S
C358 C359 1.415 . S
C359 H329 0.950 . S
C359 C354 1.363 . S
C359 C358 1.415 . S
H360 C357 0.999 . S
H361 C342 0.913 . S
H362 C380 0.951 . S
H363 C382 0.951 . S
H364 C384 0.950 . S
H365 C385 0.950 . S
H366 C387 0.950 . S
H367 C390 0.950 . S
H368 C391 0.950 . S
H369 C393 0.950 . S
H370 C394 0.950 . S
H371 C395 0.951 . S
H372 C397 0.951 . S
H373 C399 0.950 . S
H374 C400 0.950 . S
H375 C402 0.950 . S
H376 C405 0.950 . S
H377 C406 0.950 . S
H378 C408 0.950 . S
H379 C409 0.950 . S
C380 H362 0.951 . S
C380 C381 1.366 . S
C380 C382 1.388 . S
C381 C380 1.366 . S
C381 C385 1.385 . S
C382 H363 0.951 . S
C382 C380 1.388 . S
C382 C383 1.366 . S
C383 C382 1.366 . S
C383 C384 1.414 . S
C383 C386 1.499 . S
C384 H364 0.950 . S
C384 C383 1.414 . S
C384 C385 1.374 . S
C385 H365 0.950 . S
C385 C381 1.385 . S
C385 C384 1.374 . S
C386 C383 1.499 . S
C386 C387 1.373 . S
C386 C388 1.389 . S
C387 H366 0.950 . S
C387 C386 1.373 . S
C387 C403 1.377 . S
C388 C386 1.389 . S
C388 C389 1.524 . S
C388 C402 1.377 . S
C389 C388 1.524 . S
C389 C390 1.397 . S
C389 C394 1.363 . S
C390 H367 0.950 . S
C390 C389 1.397 . S
C390 C391 1.334 . S
C391 H368 0.950 . S
C391 C390 1.334 . S
C391 C392 1.287 . S
C392 C391 1.287 . S
C392 C393 1.524 . S
C392 H411 0.913 . S
C393 H369 0.950 . S
C393 C392 1.524 . S
C393 C394 1.415 . S
C394 H370 0.950 . S
C394 C389 1.363 . S
C394 C393 1.415 . S
C395 H371 0.951 . S
C395 C396 1.366 . S
C395 C397 1.388 . S
C396 C395 1.366 . S
C396 C400 1.385 . S
C397 H372 0.951 . S
C397 C395 1.388 . S
C397 C398 1.366 . S
C398 C397 1.366 . S
C398 C399 1.414 . S
C398 C401 1.499 . S
C399 H373 0.950 . S
C399 C398 1.414 . S
C399 C400 1.374 . S
C400 H374 0.950 . S
C400 C396 1.385 . S
C400 C399 1.374 . S
C401 C398 1.499 . S
C401 C402 1.373 . S
C401 C403 1.389 . S
C402 H375 0.950 . S
C402 C388 1.377 . S
C402 C401 1.373 . S
C403 C387 1.377 . S
C403 C401 1.389 . S
C403 C404 1.524 . S
C404 C403 1.524 . S
C404 C405 1.397 . S
C404 C409 1.363 . S
C405 H376 0.950 . S
C405 C404 1.397 . S
C405 C406 1.334 . S
C406 H377 0.950 . S
C406 C405 1.334 . S
C406 C407 1.287 . S
C407 C406 1.287 . S
C407 C408 1.524 . S
C407 H410 0.999 . S
C408 H378 0.950 . S
C408 C407 1.524 . S
C408 C409 1.415 . S
C409 H379 0.950 . S
C409 C404 1.363 . S
C409 C408 1.415 . S
H410 C407 0.999 . S
H411 C392 0.913 . S
H412 C430 0.951 . S
H413 C432 0.951 . S
H414 C434 0.950 . S
H415 C435 0.950 . S
H416 C437 0.950 . S
H417 C440 0.950 . S
H418 C441 0.950 . S
H419 C443 0.950 . S
H420 C444 0.950 . S
H421 C445 0.951 . S
H422 C447 0.951 . S
H423 C449 0.950 . S
H424 C450 0.950 . S
H425 C452 0.950 . S
H426 C455 0.950 . S
H427 C456 0.950 . S
H428 C458 0.950 . S
H429 C459 0.950 . S
C430 H412 0.951 . S
C430 C431 1.366 . S
C430 C432 1.388 . S
C431 C430 1.366 . S
C431 C435 1.385 . S
C432 H413 0.951 . S
C432 C430 1.388 . S
C432 C433 1.366 . S
C433 C432 1.366 . S
C433 C434 1.414 . S
C433 C436 1.499 . S
C434 H414 0.950 . S
C434 C433 1.414 . S
C434 C435 1.374 . S
C435 H415 0.950 . S
C435 C431 1.385 . S
C435 C434 1.374 . S
C436 C433 1.499 . S
C436 C437 1.373 . S
C436 C438 1.389 . S
C437 H416 0.950 . S
C437 C436 1.373 . S
C437 C453 1.377 . S
C438 C436 1.389 . S
C438 C439 1.524 . S
C438 C452 1.377 . S
C439 C438 1.524 . S
C439 C440 1.397 . S
C439 C444 1.363 . S
C440 H417 0.950 . S
C440 C439 1.397 . S
C440 C441 1.334 . S
C441 H418 0.950 . S
C441 C440 1.334 . S
C441 C442 1.287 . S
C442 C441 1.287 . S
C442 C443 1.524 . S
C442 H461 0.913 . S
C443 H419 0.950 . S
C443 C442 1.524 . S
C443 C444 1.415 . S
C444 H420 0.950 . S
C444 C439 1.363 . S
C444 C443 1.415 . S
C445 H421 0.951 . S
C445 C446 1.366 . S
C445 C447 1.388 . S
C446 C445 1.366 . S
C446 C450 1.385 . S
C447 H422 0.951 . S
C447 C445 1.388 . S
C447 C448 1.366 . S
C448 C447 1.366 . S
C448 C449 1.414 . S
C448 C451 1.499 . S
C449 H423 0.950 . S
C449 C448 1.414 . S
C449 C450 1.374 . S
C450 H424 0.950 . S
C450 C446 1.385 . S
C450 C449 1.374 . S
C451 C448 1.499 . S
C451 C452 1.373 . S
C451 C453 1.389 . S
C452 H425 0.950 . S
C452 C438 1.377 . S
C452 C451 1.373 . S
C453 C437 1.377 . S
C453 C451 1.389 . S
C453 C454 1.524 . S
C454 C453 1.524 . S
C454 C455 1.397 . S
C454 C459 1.363 . S
C455 H426 0.950 . S
C455 C454 1.397 . S
C455 C456 1.334 . S
C456 H427 0.950 . S
C456 C455 1.334 . S
C456 C457 1.287 . S
C457 C456 1.287 . S
C457 C458 1.524 . S
C457 H460 0.999 . S
C458 H428 0.950 . S
C458 C457 1.524 . S
C458 C459 1.415 . S
C459 H429 0.950 . S
C459 C454 1.363 . S
C459 C458 1.415 . S
H460 C457 0.999 . S
H461 C442 0.913 . S
H462 C480 0.951 . S
H463 C482 0.951 . S
H464 C484 0.950 . S
H465 C485 0.950 . S
H466 C487 0.950 . S
H467 C490 0.950 . S
H468 C491 0.950 . S
H469 C493 0.950 . S
H470 C494 0.950 . S
H471 C495 0.951 . S
H472 C497 0.951 . S
H473 C499 0.950 . S
H474 C500 0.950 . S
H475 C502 0.950 . S
H476 C505 0.950 . S
H477 C506 0.950 . S
H478 C508 0.950 . S
H479 C509 0.950 . S
C480 H462 0.951 . S
C480 C481 1.366 . S
C480 C482 1.388 . S
C481 C480 1.366 . S
C481 C485 1.385 . S
C482 H463 0.951 . S
C482 C480 1.388 . S
C482 C483 1.366 . S
C483 C482 1.366 . S
C483 C484 1.414 . S
C483 C486 1.499 . S
C484 H464 0.950 . S
C484 C483 1.414 . S
C484 C485 1.374 . S
C485 H465 0.950 . S
C485 C481 1.385 . S
C485 C484 1.374 . S
C486 C483 1.499 . S
C486 C487 1.373 . S
C486 C488 1.389 . S
C487 H466 0.950 . S
C487 C486 1.373 . S
C487 C503 1.377 . S
C488 C486 1.389 . S
C488 C489 1.524 . S
C488 C502 1.377 . S
C489 C488 1.524 . S
C489 C490 1.397 . S
C489 C494 1.363 . S
C490 H467 0.950 . S
C490 C489 1.397 . S
C490 C491 1.334 . S
C491 H468 0.950 . S
C491 C490 1.334 . S
C491 C492 1.287 . S
C492 C491 1.287 . S
C492 C493 1.524 . S
C492 H511 0.913 . S
C493 H469 0.950 . S
C493 C492 1.524 . S
C493 C494 1.415 . S
C494 H470 0.950 . S
C494 C489 1.363 . S
C494 C493 1.415 . S
C495 H471 0.951 . S
C495 C496 1.366 . S
C495 C497 1.388 . S
C496 C495 1.366 . S
C496 C500 1.385 . S
C497 H472 0.951 . S
C497 C495 1.388 . S
C497 C498 1.366 . S
C498 C497 1.366 . S
C498 C499 1.414 . S
C498 C501 1.499 . S
C499 H473 0.950 . S
C499 C498 1.414 . S
C499 C500 1.374 . S
C500 H474 0.950 . S
C500 C496 1.385 . S
C500 C499 1.374 . S
C501 C498 1.499 . S
C501 C502 1.373 . S
C501 C503 1.389 . S
C502 H475 0.950 . S
C502 C488 1.377 . S
C502 C501 1.373 . S
C503 C487 1.377 . S
C503 C501 1.389 . S
C503 C504 1.524 . S
C504 C503 1.524 . S
C504 C505 1.397 . S
C504 C509 1.363 . S
C505 H476 0.950 . S
C505 C504 1.397 . S
C505 C506 1.334 . S
C506 H477 0.950 . S
C506 C505 1.334 . S
C506 C507 1.287 . S
C507 C506 1.287 . S
C507 C508 1.524 . S
C507 H510 0.999 . S
C508 H478 0.950 . S
C508 C507 1.524 . S
C508 C509 1.415 . S
C509 H479 0.950 . S
C509 C504 1.363 . S
C509 C508 1.415 . S
H510 C507 0.999 . S
H511 C492 0.913 . S
H512 C530 0.951 . S
H513 C532 0.951 1_545 S
H514 C534 0.950 . S
H515 C535 0.950 . S
H516 C537 0.950 . S
H517 C540 0.950 1_565 S
H518 C541 0.950 . S
H519 C543 0.950 . S
H520 C544 0.950 . S
H521 C545 0.951 . S
H522 C547 0.951 1_565 S
H523 C549 0.950 . S
H524 C550 0.950 . S
H525 C552 0.950 . S
H526 C555 0.950 1_545 S
H527 C556 0.950 . S
H528 C558 0.950 . S
H529 C559 0.950 . S
C530 H512 0.951 . S
C530 C531 1.366 . S
C530 C532 1.388 . S
C531 C530 1.366 . S
C531 C535 1.385 . S
C532 H513 0.951 1_565 S
C532 C530 1.388 . S
C532 C533 1.366 . S
C533 C532 1.366 . S
C533 C534 1.414 . S
C533 C536 1.499 . S
C534 H514 0.950 . S
C534 C533 1.414 . S
C534 C535 1.374 . S
C535 H515 0.950 . S
C535 C531 1.385 . S
C535 C534 1.374 . S
C536 C533 1.499 . S
C536 C537 1.373 . S
C536 C538 1.389 1_565 S
C537 H516 0.950 . S
C537 C536 1.373 . S
C537 C553 1.377 . S
C538 C536 1.389 1_545 S
C538 C539 1.524 . S
C538 C552 1.377 . S
C539 C538 1.524 . S
C539 C540 1.397 . S
C539 C544 1.363 . S
C540 H517 0.950 1_545 S
C540 C539 1.397 . S
C540 C541 1.334 . S
C541 H518 0.950 . S
C541 C540 1.334 . S
C541 C542 1.287 . S
C542 C541 1.287 . S
C542 C543 1.524 . S
C542 H561 0.913 . S
C543 H519 0.950 . S
C543 C542 1.524 . S
C543 C544 1.415 . S
C544 H520 0.950 . S
C544 C539 1.363 . S
C544 C543 1.415 . S
C545 H521 0.951 . S
C545 C546 1.366 . S
C545 C547 1.388 . S
C546 C545 1.366 . S
C546 C550 1.385 . S
C547 H522 0.951 1_545 S
C547 C545 1.388 . S
C547 C548 1.366 . S
C548 C547 1.366 . S
C548 C549 1.414 . S
C548 C551 1.499 . S
C549 H523 0.950 . S
C549 C548 1.414 . S
C549 C550 1.374 . S
C550 H524 0.950 . S
C550 C546 1.385 . S
C550 C549 1.374 . S
C551 C548 1.499 . S
C551 C552 1.373 . S
C551 C553 1.389 1_545 S
C552 H525 0.950 . S
C552 C538 1.377 . S
C552 C551 1.373 . S
C553 C537 1.377 . S
C553 C551 1.389 1_565 S
C553 C554 1.524 . S
C554 C553 1.524 . S
C554 C555 1.397 . S
C554 C559 1.363 . S
C555 H526 0.950 1_565 S
C555 C554 1.397 . S
C555 C556 1.334 . S
C556 H527 0.950 . S
C556 C555 1.334 . S
C556 C557 1.287 . S
C557 C556 1.287 . S
C557 C558 1.524 . S
C557 H560 0.999 . S
C558 H528 0.950 . S
C558 C557 1.524 . S
C558 C559 1.415 . S
C559 H529 0.950 . S
C559 C554 1.363 . S
C559 C558 1.415 . S
H560 C557 0.999 . S
H561 C542 0.913 . S
H562 C580 0.951 . S
H563 C582 0.951 . S
H564 C584 0.950 1_545 S
H565 C585 0.950 . S
H566 C587 0.950 . S
H567 C590 0.950 . S
H568 C591 0.950 . S
H569 C593 0.950 . S
H570 C594 0.950 . S
H571 C595 0.951 . S
H572 C597 0.951 . S
H573 C599 0.950 1_565 S
H574 C600 0.950 . S
H575 C602 0.950 . S
H576 C605 0.950 . S
H577 C606 0.950 . S
H578 C608 0.950 . S
H579 C609 0.950 . S
C580 H562 0.951 . S
C580 C581 1.366 . S
C580 C582 1.388 . S
C581 C580 1.366 . S
C581 C585 1.385 . S
C582 H563 0.951 . S
C582 C580 1.388 . S
C582 C583 1.366 . S
C583 C582 1.366 . S
C583 C584 1.414 . S
C583 C586 1.499 . S
C584 H564 0.950 1_565 S
C584 C583 1.414 . S
C584 C585 1.374 . S
C585 H565 0.950 . S
C585 C581 1.385 . S
C585 C584 1.374 . S
C586 C583 1.499 . S
C586 C587 1.373 1_565 S
C586 C588 1.389 . S
C587 H566 0.950 . S
C587 C586 1.373 1_545 S
C587 C603 1.377 . S
C588 C586 1.389 . S
C588 C589 1.524 . S
C588 C602 1.377 . S
C589 C588 1.524 . S
C589 C590 1.397 . S
C589 C594 1.363 . S
C590 H567 0.950 . S
C590 C589 1.397 . S
C590 C591 1.334 . S
C591 H568 0.950 . S
C591 C590 1.334 . S
C591 C592 1.287 . S
C592 C591 1.287 . S
C592 C593 1.524 . S
C592 H611 0.913 . S
C593 H569 0.950 . S
C593 C592 1.524 . S
C593 C594 1.415 . S
C594 H570 0.950 . S
C594 C589 1.363 . S
C594 C593 1.415 . S
C595 H571 0.951 . S
C595 C596 1.366 . S
C595 C597 1.388 . S
C596 C595 1.366 . S
C596 C600 1.385 . S
C597 H572 0.951 . S
C597 C595 1.388 . S
C597 C598 1.366 . S
C598 C597 1.366 . S
C598 C599 1.414 . S
C598 C601 1.499 . S
C599 H573 0.950 1_545 S
C599 C598 1.414 . S
C599 C600 1.374 . S
C600 H574 0.950 . S
C600 C596 1.385 . S
C600 C599 1.374 . S
C601 C598 1.499 . S
C601 C602 1.373 1_545 S
C601 C603 1.389 . S
C602 H575 0.950 . S
C602 C588 1.377 . S
C602 C601 1.373 1_565 S
C603 C587 1.377 . S
C603 C601 1.389 . S
C603 C604 1.524 . S
C604 C603 1.524 . S
C604 C605 1.397 . S
C604 C609 1.363 . S
C605 H576 0.950 . S
C605 C604 1.397 . S
C605 C606 1.334 . S
C606 H577 0.950 . S
C606 C605 1.334 . S
C606 C607 1.287 . S
C607 C606 1.287 . S
C607 C608 1.524 . S
C607 H610 0.999 . S
C608 H578 0.950 . S
C608 C607 1.524 . S
C608 C609 1.415 . S
C609 H579 0.950 . S
C609 C604 1.363 . S
C609 C608 1.415 . S
H610 C607 0.999 . S
H611 C592 0.913 . S
H612 C630 0.951 . S
H613 C632 0.951 . S
H614 C634 0.950 . S
H615 C635 0.950 . S
H616 C637 0.950 . S
H617 C640 0.950 . S
H618 C641 0.950 . S
H619 C643 0.950 . S
H620 C644 0.950 . S
H621 C645 0.951 . S
H622 C647 0.951 . S
H623 C649 0.950 . S
H624 C650 0.950 . S
H625 C652 0.950 . S
H626 C655 0.950 . S
H627 C656 0.950 . S
H628 C658 0.950 . S
H629 C659 0.950 . S
C630 H612 0.951 . S
C630 C631 1.366 . S
C630 C632 1.388 . S
C631 C630 1.366 . S
C631 C635 1.385 . S
C632 H613 0.951 . S
C632 C630 1.388 . S
C632 C633 1.366 . S
C633 C632 1.366 . S
C633 C634 1.414 . S
C633 C636 1.499 . S
C634 H614 0.950 . S
C634 C633 1.414 . S
C634 C635 1.374 . S
C635 H615 0.950 . S
C635 C631 1.385 . S
C635 C634 1.374 . S
C636 C633 1.499 . S
C636 C637 1.373 1_565 S
C636 C638 1.389 . S
C637 H616 0.950 . S
C637 C636 1.373 1_545 S
C637 C653 1.377 . S
C638 C636 1.389 . S
C638 C639 1.524 . S
C638 C652 1.377 . S
C639 C638 1.524 . S
C639 C640 1.397 . S
C639 C644 1.363 . S
C640 H617 0.950 . S
C640 C639 1.397 . S
C640 C641 1.334 . S
C641 H618 0.950 . S
C641 C640 1.334 . S
C641 C642 1.287 . S
C642 C641 1.287 . S
C642 C643 1.524 . S
C642 H661 0.913 . S
C643 H619 0.950 . S
C643 C642 1.524 . S
C643 C644 1.415 . S
C644 H620 0.950 . S
C644 C639 1.363 . S
C644 C643 1.415 . S
C645 H621 0.951 . S
C645 C646 1.366 . S
C645 C647 1.388 . S
C646 C645 1.366 . S
C646 C650 1.385 . S
C647 H622 0.951 . S
C647 C645 1.388 . S
C647 C648 1.366 . S
C648 C647 1.366 . S
C648 C649 1.414 . S
C648 C651 1.499 . S
C649 H623 0.950 . S
C649 C648 1.414 . S
C649 C650 1.374 . S
C650 H624 0.950 . S
C650 C646 1.385 . S
C650 C649 1.374 . S
C651 C648 1.499 . S
C651 C652 1.373 1_545 S
C651 C653 1.389 . S
C652 H625 0.950 . S
C652 C638 1.377 . S
C652 C651 1.373 1_565 S
C653 C637 1.377 . S
C653 C651 1.389 . S
C653 C654 1.524 . S
C654 C653 1.524 . S
C654 C655 1.397 . S
C654 C659 1.363 . S
C655 H626 0.950 . S
C655 C654 1.397 . S
C655 C656 1.334 . S
C656 H627 0.950 . S
C656 C655 1.334 . S
C656 C657 1.287 . S
C657 C656 1.287 . S
C657 C658 1.524 . S
C657 H660 0.999 . S
C658 H628 0.950 . S
C658 C657 1.524 . S
C658 C659 1.415 . S
C659 H629 0.950 . S
C659 C654 1.363 . S
C659 C658 1.415 . S
H660 C657 0.999 . S
H661 C642 0.913 . S
H662 C680 0.951 . S
H663 C682 0.951 1_545 S
H664 C684 0.950 . S
H665 C685 0.950 . S
H666 C687 0.950 . S
H667 C690 0.950 . S
H668 C691 0.950 . S
H669 C693 0.950 . S
H670 C694 0.950 . S
H671 C695 0.951 . S
H672 C697 0.951 1_565 S
H673 C699 0.950 . S
H674 C700 0.950 . S
H675 C702 0.950 . S
H676 C705 0.950 . S
H677 C706 0.950 . S
H678 C708 0.950 . S
H679 C709 0.950 . S
C680 H662 0.951 . S
C680 C681 1.366 . S
C680 C682 1.388 . S
C681 C680 1.366 . S
C681 C685 1.385 . S
C682 H663 0.951 1_565 S
C682 C680 1.388 . S
C682 C683 1.366 . S
C683 C682 1.366 . S
C683 C684 1.414 . S
C683 C686 1.499 . S
C684 H664 0.950 . S
C684 C683 1.414 . S
C684 C685 1.374 . S
C685 H665 0.950 . S
C685 C681 1.385 . S
C685 C684 1.374 . S
C686 C683 1.499 . S
C686 C687 1.373 . S
C686 C688 1.389 1_565 S
C687 H666 0.950 . S
C687 C686 1.373 . S
C687 C703 1.377 . S
C688 C686 1.389 1_545 S
C688 C689 1.524 . S
C688 C702 1.377 . S
C689 C688 1.524 . S
C689 C690 1.397 . S
C689 C694 1.363 . S
C690 H667 0.950 . S
C690 C689 1.397 . S
C690 C691 1.334 . S
C691 H668 0.950 . S
C691 C690 1.334 . S
C691 C692 1.287 . S
C692 C691 1.287 . S
C692 C693 1.524 . S
C692 H711 0.913 . S
C693 H669 0.950 . S
C693 C692 1.524 . S
C693 C694 1.415 . S
C694 H670 0.950 . S
C694 C689 1.363 . S
C694 C693 1.415 . S
C695 H671 0.951 . S
C695 C696 1.366 . S
C695 C697 1.388 . S
C696 C695 1.366 . S
C696 C700 1.385 . S
C697 H672 0.951 1_545 S
C697 C695 1.388 . S
C697 C698 1.366 . S
C698 C697 1.366 . S
C698 C699 1.414 . S
C698 C701 1.499 . S
C699 H673 0.950 . S
C699 C698 1.414 . S
C699 C700 1.374 . S
C700 H674 0.950 . S
C700 C696 1.385 . S
C700 C699 1.374 . S
C701 C698 1.499 . S
C701 C702 1.373 . S
C701 C703 1.389 1_545 S
C702 H675 0.950 . S
C702 C688 1.377 . S
C702 C701 1.373 . S
C703 C687 1.377 . S
C703 C701 1.389 1_565 S
C703 C704 1.524 . S
C704 C703 1.524 . S
C704 C705 1.397 . S
C704 C709 1.363 . S
C705 H676 0.950 . S
C705 C704 1.397 . S
C705 C706 1.334 . S
C706 H677 0.950 . S
C706 C705 1.334 . S
C706 C707 1.287 . S
C707 C706 1.287 . S
C707 C708 1.524 . S
C707 H710 0.999 . S
C708 H678 0.950 . S
C708 C707 1.524 . S
C708 C709 1.415 . S
C709 H679 0.950 . S
C709 C704 1.363 . S
C709 C708 1.415 . S
H710 C707 0.999 . S
H711 C692 0.913 . S
H712 C730 0.951 . S
H713 C732 0.951 . S
H714 C734 0.950 . S
H715 C735 0.950 . S
H716 C737 0.950 . S
H717 C740 0.950 . S
H718 C741 0.950 . S
H719 C743 0.948 . S
H720 C744 0.950 . S
H721 C745 0.951 . S
H722 C747 0.951 . S
H723 C749 0.950 . S
H724 C750 0.950 . S
H725 C752 0.950 1_556 S
H726 C755 0.950 . S
H727 C756 0.950 . S
H728 C758 0.950 . S
H729 C759 0.950 1_556 S
C730 H712 0.951 . S
C730 C731 1.366 . S
C730 C732 1.388 . S
C731 C730 1.366 . S
C731 C735 1.385 1_554 S
C732 H713 0.951 . S
C732 C730 1.388 . S
C732 C733 1.366 . S
C733 C732 1.366 . S
C733 C734 1.414 1_554 S
C733 C736 1.499 . S
C734 H714 0.950 . S
C734 C733 1.414 1_556 S
C734 C735 1.374 . S
C735 H715 0.950 . S
C735 C731 1.385 1_556 S
C735 C734 1.374 . S
C736 C733 1.499 . S
C736 C737 1.373 . S
C736 C738 1.393 1_565 S
C737 H716 0.950 . S
C737 C736 1.373 . S
C737 C753 1.377 . S
C738 C736 1.393 1_545 S
C738 C739 1.518 1_554 S
C738 C752 1.378 . S
C739 C738 1.518 1_556 S
C739 C740 1.397 1_545 S
C739 C744 1.363 1_556 S
C740 H717 0.950 . S
C740 C739 1.397 1_565 S
C740 C741 1.334 . S
C741 H718 0.950 . S
C741 C740 1.334 . S
C741 C742 1.287 1_565 S
C742 C741 1.287 1_545 S
C742 C743 1.524 . S
C742 H761 0.913 . S
C743 H719 0.948 . S
C743 C742 1.524 . S
C743 C744 1.415 1_556 S
C744 H720 0.950 . S
C744 C739 1.363 1_554 S
C744 C743 1.415 1_554 S
C745 H721 0.951 . S
C745 C746 1.366 1_556 S
C745 C747 1.388 . S
C746 C745 1.366 1_554 S
C746 C750 1.385 . S
C747 H722 0.951 . S
C747 C745 1.388 . S
C747 C748 1.366 1_556 S
C748 C747 1.366 1_554 S
C748 C749 1.414 . S
C748 C751 1.499 . S
C749 H723 0.950 . S
C749 C748 1.414 . S
C749 C750 1.374 . S
C750 H724 0.950 . S
C750 C746 1.385 . S
C750 C749 1.374 . S
C751 C748 1.499 . S
C751 C752 1.373 . S
C751 C753 1.389 1_545 S
C752 H725 0.950 1_554 S
C752 C738 1.378 . S
C752 C751 1.373 . S
C753 C737 1.377 . S
C753 C751 1.389 1_565 S
C753 C754 1.524 . S
C754 C753 1.524 . S
C754 C755 1.397 1_565 S
C754 C759 1.363 . S
C755 H726 0.950 . S
C755 C754 1.397 1_545 S
C755 C756 1.334 . S
C756 H727 0.950 . S
C756 C755 1.334 . S
C756 C757 1.287 1_545 S
C757 C756 1.287 1_565 S
C757 C758 1.524 . S
C757 H760 0.999 . S
C758 H728 0.950 . S
C758 C757 1.524 . S
C758 C759 1.415 . S
C759 H729 0.950 1_554 S
C759 C754 1.363 . S
C759 C758 1.415 . S
H760 C757 0.999 . S
H761 C742 0.913 . S
H762 C780 0.951 . S
H763 C782 0.951 . S
H764 C784 0.950 . S
H765 C785 0.950 . S
H766 C787 0.950 . S
H767 C790 0.950 . S
H768 C791 0.950 . S
H769 C793 0.950 . S
H770 C794 0.950 . S
H771 C795 0.951 . S
H772 C797 0.951 . S
H773 C799 0.950 . S
H774 C800 0.950 . S
H775 C802 0.950 . S
H776 C805 0.950 . S
H777 C806 0.950 . S
H778 C808 0.950 . S
H779 C809 0.950 . S
C780 H762 0.951 . S
C780 C781 1.366 . S
C780 C782 1.388 . S
C781 C780 1.366 . S
C781 C785 1.385 . S
C782 H763 0.951 . S
C782 C780 1.388 . S
C782 C783 1.366 . S
C783 C782 1.366 . S
C783 C784 1.414 . S
C783 C786 1.499 . S
C784 H764 0.950 . S
C784 C783 1.414 . S
C784 C785 1.374 . S
C785 H765 0.950 . S
C785 C781 1.385 . S
C785 C784 1.374 . S
C786 C783 1.499 . S
C786 C787 1.373 . S
C786 C788 1.389 . S
C787 H766 0.950 . S
C787 C786 1.373 . S
C787 C803 1.377 1_565 S
C788 C786 1.389 . S
C788 C789 1.524 . S
C788 C802 1.377 1_565 S
C789 C788 1.524 . S
C789 C790 1.397 . S
C789 C794 1.363 . S
C790 H767 0.950 . S
C790 C789 1.397 . S
C790 C791 1.334 . S
C791 H768 0.950 . S
C791 C790 1.334 . S
C791 C792 1.287 . S
C792 C791 1.287 . S
C792 C793 1.524 . S
C792 H811 0.913 . S
C793 H769 0.950 . S
C793 C792 1.524 . S
C793 C794 1.415 . S
C794 H770 0.950 . S
C794 C789 1.363 . S
C794 C793 1.415 . S
C795 H771 0.951 . S
C795 C796 1.366 . S
C795 C797 1.388 . S
C796 C795 1.366 . S
C796 C800 1.385 . S
C797 H772 0.951 . S
C797 C795 1.388 . S
C797 C798 1.366 . S
C798 C797 1.366 . S
C798 C799 1.414 . S
C798 C801 1.499 . S
C799 H773 0.950 . S
C799 C798 1.414 . S
C799 C800 1.374 . S
C800 H774 0.950 . S
C800 C796 1.385 . S
C800 C799 1.374 . S
C801 C798 1.499 . S
C801 C802 1.373 . S
C801 C803 1.389 . S
C802 H775 0.950 . S
C802 C788 1.377 1_545 S
C802 C801 1.373 . S
C803 C787 1.377 1_545 S
C803 C801 1.389 . S
C803 C804 1.524 . S
C804 C803 1.524 . S
C804 C805 1.397 . S
C804 C809 1.363 . S
C805 H776 0.950 . S
C805 C804 1.397 . S
C805 C806 1.334 . S
C806 H777 0.950 . S
C806 C805 1.334 . S
C806 C807 1.287 . S
C807 C806 1.287 . S
C807 C808 1.524 . S
C807 H810 0.999 . S
C808 H778 0.950 . S
C808 C807 1.524 . S
C808 C809 1.415 . S
C809 H779 0.950 . S
C809 C804 1.363 . S
C809 C808 1.415 . S
H810 C807 0.999 . S
H811 C792 0.913 . S
H812 C830 0.951 . S
H813 C832 0.951 . S
H814 C834 0.950 . S
H815 C835 0.950 . S
H816 C837 0.950 . S
H817 C840 0.950 . S
H818 C841 0.950 1_455 S
H819 C843 0.950 . S
H820 C844 0.950 . S
H821 C845 0.951 . S
H822 C847 0.951 . S
H823 C849 0.948 1_556 S
H824 C850 0.949 1_556 S
H825 C852 0.950 . S
H826 C855 0.950 . S
H827 C856 0.950 1_655 S
H828 C858 0.950 . S
H829 C859 0.950 . S
C830 H812 0.951 . S
C830 C831 1.366 . S
C830 C832 1.388 . S
C831 C830 1.366 . S
C831 C835 1.385 . S
C832 H813 0.951 . S
C832 C830 1.388 . S
C832 C833 1.366 . S
C833 C832 1.366 . S
C833 C834 1.414 . S
C833 C836 1.499 . S
C834 H814 0.950 . S
C834 C833 1.414 . S
C834 C835 1.374 . S
C835 H815 0.950 . S
C835 C831 1.385 . S
C835 C834 1.374 . S
C836 C833 1.499 . S
C836 C837 1.373 1_554 S
C836 C838 1.389 1_455 S
C837 H816 0.950 . S
C837 C836 1.373 1_556 S
C837 C853 1.377 . S
C838 C836 1.389 1_655 S
C838 C839 1.524 . S
C838 C852 1.377 . S
C839 C838 1.524 . S
C839 C840 1.397 1_655 S
C839 C844 1.363 . S
C840 H817 0.950 . S
C840 C839 1.397 1_455 S
C840 C841 1.334 1_455 S
C841 H818 0.950 1_655 S
C841 C840 1.334 1_655 S
C841 C842 1.287 . S
C842 C841 1.287 . S
C842 C843 1.524 . S
C842 H861 0.913 . S
C843 H819 0.950 . S
C843 C842 1.524 . S
C843 C844 1.415 . S
C844 H820 0.950 . S
C844 C839 1.363 . S
C844 C843 1.415 . S
C845 H821 0.951 . S
C845 C846 1.366 . S
C845 C847 1.388 . S
C846 C845 1.366 . S
C846 C850 1.385 . S
C847 H822 0.951 . S
C847 C845 1.388 . S
C847 C848 1.366 . S
C848 C847 1.366 . S
C848 C849 1.414 . S
C848 C851 1.499 . S
C849 H823 0.948 1_554 S
C849 C848 1.414 . S
C849 C850 1.374 . S
C850 H824 0.949 1_554 S
C850 C846 1.385 . S
C850 C849 1.374 . S
C851 C848 1.499 . S
C851 C852 1.373 . S
C851 C853 1.389 1_654 S
C852 H825 0.950 . S
C852 C838 1.377 . S
C852 C851 1.373 . S
C853 C837 1.377 . S
C853 C851 1.389 1_456 S
C853 C854 1.524 . S
C854 C853 1.524 . S
C854 C855 1.397 1_455 S
C854 C859 1.363 . S
C855 H826 0.950 . S
C855 C854 1.397 1_655 S
C855 C856 1.334 1_655 S
C856 H827 0.950 1_455 S
C856 C855 1.334 1_455 S
C856 C857 1.287 . S
C857 C856 1.287 . S
C857 C858 1.524 . S
C857 H860 0.999 . S
C858 H828 0.950 . S
C858 C857 1.524 . S
C858 C859 1.415 . S
C859 H829 0.950 . S
C859 C854 1.363 . S
C859 C858 1.415 . S
H860 C857 0.999 . S
H861 C842 0.913 . S
H862 C880 0.951 . S
H863 C882 0.951 . S
H864 C884 0.950 . S
H865 C885 0.950 . S
H866 C887 0.950 . S
H867 C890 0.950 . S
H868 C891 0.950 . S
H869 C893 0.950 . S
H870 C894 0.950 . S
H871 C895 0.951 . S
H872 C897 0.951 . S
H873 C899 0.950 . S
H874 C900 0.950 . S
H875 C902 0.950 . S
H876 C905 0.950 . S
H877 C906 0.950 . S
H878 C908 0.950 . S
H879 C909 0.950 . S
C880 H862 0.951 . S
C880 C881 1.366 . S
C880 C882 1.388 . S
C881 C880 1.366 . S
C881 C885 1.385 . S
C882 H863 0.951 . S
C882 C880 1.388 . S
C882 C883 1.366 . S
C883 C882 1.366 . S
C883 C884 1.414 . S
C883 C886 1.499 . S
C884 H864 0.950 . S
C884 C883 1.414 . S
C884 C885 1.374 . S
C885 H865 0.950 . S
C885 C881 1.385 . S
C885 C884 1.374 . S
C886 C883 1.499 . S
C886 C887 1.373 1_455 S
C886 C888 1.389 . S
C887 H866 0.950 . S
C887 C886 1.373 1_655 S
C887 C903 1.377 . S
C888 C886 1.389 . S
C888 C889 1.524 . S
C888 C902 1.377 . S
C889 C888 1.524 . S
C889 C890 1.397 . S
C889 C894 1.363 . S
C890 H867 0.950 . S
C890 C889 1.397 . S
C890 C891 1.334 . S
C891 H868 0.950 . S
C891 C890 1.334 . S
C891 C892 1.287 . S
C892 C891 1.287 . S
C892 C893 1.524 . S
C892 H911 0.913 . S
C893 H869 0.950 . S
C893 C892 1.524 . S
C893 C894 1.415 . S
C894 H870 0.950 . S
C894 C889 1.363 . S
C894 C893 1.415 . S
C895 H871 0.951 . S
C895 C896 1.366 . S
C895 C897 1.388 . S
C896 C895 1.366 . S
C896 C900 1.385 . S
C897 H872 0.951 . S
C897 C895 1.388 . S
C897 C898 1.366 . S
C898 C897 1.366 . S
C898 C899 1.414 . S
C898 C901 1.499 . S
C899 H873 0.950 . S
C899 C898 1.414 . S
C899 C900 1.374 . S
C900 H874 0.950 . S
C900 C896 1.385 . S
C900 C899 1.374 . S
C901 C898 1.499 . S
C901 C902 1.373 1_655 S
C901 C903 1.389 . S
C902 H875 0.950 . S
C902 C888 1.377 . S
C902 C901 1.373 1_455 S
C903 C887 1.377 . S
C903 C901 1.389 . S
C903 C904 1.524 . S
C904 C903 1.524 . S
C904 C905 1.397 . S
C904 C909 1.363 . S
C905 H876 0.950 . S
C905 C904 1.397 . S
C905 C906 1.334 . S
C906 H877 0.950 . S
C906 C905 1.334 . S
C906 C907 1.287 . S
C907 C906 1.287 . S
C907 C908 1.524 . S
C907 H910 0.999 . S
C908 H878 0.950 . S
C908 C907 1.524 . S
C908 C909 1.415 . S
C909 H879 0.950 . S
C909 C904 1.363 . S
C909 C908 1.415 . S
H910 C907 0.999 . S
H911 C892 0.913 . S
C131 C78 1.461 . S
C146 C8 1.462 . S
C181 C64 1.462 . S
C196 C22 1.462 . S
C231 C106 1.461 . S
C246 C36 1.462 . S
C281 C92 1.462 . S
C296 C50 1.462 . S
C331 C7 1.368 . S
C346 C35 1.368 . S
C381 C21 1.368 . S
C396 C49 1.368 . S
C431 C27 1.301 . S
C446 C55 1.302 . S
C481 C13 1.302 . S
C496 C41 1.302 . S
C531 C63 1.368 . S
C546 C91 1.368 . S
C581 C105 1.368 . S
C596 C77 1.368 . S
C631 C111 1.301 . S
C646 C83 1.300 . S
C681 C69 1.301 . S
C696 C97 1.302 . S
C731 C25 1.511 . S
C746 C11 1.511 . S
C781 C39 1.511 . S
C796 C53 1.511 . S
C831 C67 1.511 . S
C846 C81 1.511 . S
C881 C95 1.511 . S
C896 C109 1.511 . S
