# Generated by pormake.
# Topology zfj, (5)-cn, num edge types: 1
# Building blocks:
#     Node 0, Type 0, BuildingBlock: XOMCOT_clean_sbu_0, # of connection points: 5
#     Node 1, Type 0, BuildingBlock: XOMCOT_clean_sbu_0, # of connection points: 5
#     Node 2, Type 0, BuildingBlock: XOMCOT_clean_sbu_0, # of connection points: 5
#     Node 3, Type 0, BuildingBlock: XOMCOT_clean_sbu_0, # of connection points: 5
#     Node 4, Type 0, BuildingBlock: XOMCOT_clean_sbu_0, # of connection points: 5
#     Node 5, Type 0, BuildingBlock: XOMCOT_clean_sbu_0, # of connection points: 5
#     Node 6, Type 0, BuildingBlock: XOMCOT_clean_sbu_0, # of connection points: 5
#     Node 7, Type 0, BuildingBlock: XOMCOT_clean_sbu_0, # of connection points: 5
#     Node 8, Type 0, BuildingBlock: XOMCOT_clean_sbu_0, # of connection points: 5
#     Node 9, Type 0, BuildingBlock: XOMCOT_clean_sbu_0, # of connection points: 5
#     Node 10, Type 0, BuildingBlock: XOMCOT_clean_sbu_0, # of connection points: 5
#     Node 11, Type 0, BuildingBlock: XOMCOT_clean_sbu_0, # of connection points: 5
#     Node 12, Type 0, BuildingBlock: XOMCOT_clean_sbu_0, # of connection points: 5
#     Node 13, Type 0, BuildingBlock: XOMCOT_clean_sbu_0, # of connection points: 5
#     Node 14, Type 0, BuildingBlock: XOMCOT_clean_sbu_0, # of connection points: 5
#     Node 15, Type 0, BuildingBlock: XOMCOT_clean_sbu_0, # of connection points: 5
#     Edge 16, Type (0, 0), BuildingBlock: OJICUG_clean_linker_0, # of connection points: 2
#     Edge 17, Type (0, 0), BuildingBlock: OJICUG_clean_linker_0, # of connection points: 2
#     Edge 18, Type (0, 0), BuildingBlock: OJICUG_clean_linker_0, # of connection points: 2
#     Edge 19, Type (0, 0), BuildingBlock: OJICUG_clean_linker_0, # of connection points: 2
#     Edge 20, Type (0, 0), BuildingBlock: OJICUG_clean_linker_0, # of connection points: 2
#     Edge 21, Type (0, 0), BuildingBlock: OJICUG_clean_linker_0, # of connection points: 2
#     Edge 22, Type (0, 0), BuildingBlock: OJICUG_clean_linker_0, # of connection points: 2
#     Edge 23, Type (0, 0), BuildingBlock: OJICUG_clean_linker_0, # of connection points: 2
#     Edge 24, Type (0, 0), BuildingBlock: OJICUG_clean_linker_0, # of connection points: 2
#     Edge 25, Type (0, 0), BuildingBlock: OJICUG_clean_linker_0, # of connection points: 2
#     Edge 26, Type (0, 0), BuildingBlock: OJICUG_clean_linker_0, # of connection points: 2
#     Edge 27, Type (0, 0), BuildingBlock: OJICUG_clean_linker_0, # of connection points: 2
#     Edge 28, Type (0, 0), BuildingBlock: OJICUG_clean_linker_0, # of connection points: 2
#     Edge 29, Type (0, 0), BuildingBlock: OJICUG_clean_linker_0, # of connection points: 2
#     Edge 30, Type (0, 0), BuildingBlock: OJICUG_clean_linker_0, # of connection points: 2
#     Edge 31, Type (0, 0), BuildingBlock: OJICUG_clean_linker_0, # of connection points: 2
#     Edge 32, Type (0, 0), BuildingBlock: OJICUG_clean_linker_0, # of connection points: 2
#     Edge 33, Type (0, 0), BuildingBlock: OJICUG_clean_linker_0, # of connection points: 2
#     Edge 34, Type (0, 0), BuildingBlock: OJICUG_clean_linker_0, # of connection points: 2
#     Edge 35, Type (0, 0), BuildingBlock: OJICUG_clean_linker_0, # of connection points: 2
#     Edge 36, Type (0, 0), BuildingBlock: OJICUG_clean_linker_0, # of connection points: 2
#     Edge 37, Type (0, 0), BuildingBlock: OJICUG_clean_linker_0, # of connection points: 2
#     Edge 38, Type (0, 0), BuildingBlock: OJICUG_clean_linker_0, # of connection points: 2
#     Edge 39, Type (0, 0), BuildingBlock: OJICUG_clean_linker_0, # of connection points: 2
#     Edge 40, Type (0, 0), BuildingBlock: OJICUG_clean_linker_0, # of connection points: 2
#     Edge 41, Type (0, 0), BuildingBlock: OJICUG_clean_linker_0, # of connection points: 2
#     Edge 42, Type (0, 0), BuildingBlock: OJICUG_clean_linker_0, # of connection points: 2
#     Edge 43, Type (0, 0), BuildingBlock: OJICUG_clean_linker_0, # of connection points: 2
#     Edge 44, Type (0, 0), BuildingBlock: OJICUG_clean_linker_0, # of connection points: 2
#     Edge 45, Type (0, 0), BuildingBlock: OJICUG_clean_linker_0, # of connection points: 2
#     Edge 46, Type (0, 0), BuildingBlock: OJICUG_clean_linker_0, # of connection points: 2
#     Edge 47, Type (0, 0), BuildingBlock: OJICUG_clean_linker_0, # of connection points: 2
#     Edge 48, Type (0, 0), BuildingBlock: OJICUG_clean_linker_0, # of connection points: 2
#     Edge 49, Type (0, 0), BuildingBlock: OJICUG_clean_linker_0, # of connection points: 2
#     Edge 50, Type (0, 0), BuildingBlock: OJICUG_clean_linker_0, # of connection points: 2
#     Edge 51, Type (0, 0), BuildingBlock: OJICUG_clean_linker_0, # of connection points: 2
#     Edge 52, Type (0, 0), BuildingBlock: OJICUG_clean_linker_0, # of connection points: 2
#     Edge 53, Type (0, 0), BuildingBlock: OJICUG_clean_linker_0, # of connection points: 2
#     Edge 54, Type (0, 0), BuildingBlock: OJICUG_clean_linker_0, # of connection points: 2
#     Edge 55, Type (0, 0), BuildingBlock: OJICUG_clean_linker_0, # of connection points: 2
# Relax obj value: 0.191
# Max RMSD: 0.168
# Mean RMSD: 0.167
data_MOF--net-zfj--node1-XOMCOT_clean_sbu_0--edge1-OJICUG_clean_linker_0
_symmetry_space_group_name_H-M    P1
_symmetry_Int_Tables_number       1
_symmetry_cell_setting            triclinic
loop_
_symmetry_equiv_pos_as_xyz
'x, y, z'
_cell_length_a     26.882192
_cell_length_b     26.868163
_cell_length_c     36.491056
_cell_angle_alpha  90.003458
_cell_angle_beta   89.82371
_cell_angle_gamma 90.124292
loop_
_atom_site_label
_atom_site_type_symbol
_atom_site_fract_x
_atom_site_fract_y
_atom_site_fract_z
_atom_type_partial_charge
Co0 Co 0.50651 0.23422 0.12552 0.0
C1 C 0.48855 0.3446 0.12728 0.0
C2 C 0.4322 0.30496 0.15674 0.0
C3 C 0.42163 0.3551 0.1583 0.0
N4 N 0.47525 0.29809 0.13828 0.0
N5 N 0.45737 0.38011 0.13994 0.0
H6 H 0.51849 0.35261 0.10841 0.0
H7 H 0.40863 0.27575 0.16738 0.0
C8 C 0.46154 0.20455 0.19871 0.0
O9 O 0.48443 0.24143 0.21532 0.0
N10 N 0.53714 0.17076 0.11214 0.0
C11 C 0.57532 0.16435 0.08848 0.0
C12 C 0.58671 0.11447 0.08644 0.0
C13 C 0.52647 0.12438 0.12463 0.0
N14 N 0.5562 0.08948 0.10929 0.0
C15 C 0.59168 0.28737 0.14874 0.0
C16 C 0.62806 0.21788 0.19724 0.0
C17 C 0.65865 0.25811 0.18685 0.0
C18 C 0.6389 0.29365 0.16305 0.0
C19 C 0.58043 0.21283 0.1819 0.0
N20 N 0.56283 0.24737 0.15765 0.0
H21 H 0.58105 0.31244 0.12745 0.0
H22 H 0.55923 0.17958 0.18778 0.0
H23 H 0.59435 0.19387 0.07396 0.0
H24 H 0.49781 0.11596 0.14455 0.0
O25 O 0.53376 0.26384 0.08222 0.0
O26 O 0.45992 0.2271 0.08507 0.0
O27 O 0.46657 0.19833 0.16423 0.0
C28 C 0.49367 0.24977 0.06545 0.0
H29 H 0.38972 0.3717 0.17164 0.0
H30 H 0.61613 0.09793 0.07022 0.0
H31 H 0.64151 0.1893 0.21559 0.0
H32 H 0.66112 0.3242 0.15263 0.0
Co33 Co 0.29042 0.50354 0.62911 0.0
C34 C 0.18136 0.48205 0.62525 0.0
C35 C 0.21371 0.44443 0.67093 0.0
C36 C 0.1629 0.43749 0.67211 0.0
N37 N 0.22559 0.47385 0.64211 0.0
N38 N 0.14272 0.46138 0.64343 0.0
H39 H 0.17673 0.50506 0.60119 0.0
H40 H 0.2393 0.42852 0.69018 0.0
C41 C 0.32703 0.46168 0.70198 0.0
O42 O 0.2974 0.49078 0.72099 0.0
N43 N 0.35437 0.53306 0.61547 0.0
C44 C 0.361 0.57275 0.59326 0.0
C45 C 0.41092 0.5838 0.59118 0.0
C46 C 0.40071 0.52101 0.627 0.0
N47 N 0.43573 0.55152 0.61255 0.0
C48 C 0.23574 0.58579 0.65532 0.0
C49 C 0.31005 0.62899 0.69645 0.0
C50 C 0.26782 0.65748 0.68762 0.0
C51 C 0.22976 0.63416 0.66784 0.0
C52 C 0.31508 0.58064 0.68248 0.0
N53 N 0.27837 0.5598 0.6616 0.0
H54 H 0.2078 0.57165 0.63714 0.0
H55 H 0.34972 0.56123 0.68675 0.0
H56 H 0.33155 0.59333 0.58008 0.0
H57 H 0.40892 0.49119 0.6459 0.0
O58 O 0.26164 0.53248 0.5863 0.0
O59 O 0.2961 0.45757 0.58805 0.0
O60 O 0.32586 0.4619 0.66699 0.0
C61 C 0.27466 0.49243 0.56892 0.0
H62 H 0.14234 0.41657 0.69251 0.0
H63 H 0.42759 0.61443 0.57624 0.0
H64 H 0.34023 0.6445 0.71235 0.0
H65 H 0.19701 0.65407 0.65899 0.0
Co66 Co 0.02625 0.29218 0.13034 0.0
C67 C 0.04789 0.18324 0.1263 0.0
C68 C 0.08692 0.21621 0.17115 0.0
C69 C 0.09426 0.16546 0.17214 0.0
N70 N 0.05632 0.22763 0.14302 0.0
N71 N 0.06951 0.14491 0.14398 0.0
H72 H 0.02428 0.17827 0.10264 0.0
H73 H 0.1035 0.24213 0.18994 0.0
C74 C 0.0678 0.32846 0.20337 0.0
O75 O 0.03939 0.29768 0.22206 0.0
N76 N 0.9964 0.35588 0.117 0.0
C77 C 0.95655 0.36219 0.09505 0.0
C78 C 0.94551 0.41209 0.09297 0.0
C79 C 1.00857 0.40236 0.12839 0.0
N80 N 0.97799 0.43717 0.11408 0.0
C81 C 0.94416 0.23665 0.15665 0.0
C82 C 0.90134 0.3103 0.19872 0.0
C83 C 0.87293 0.26783 0.18999 0.0
C84 C 0.89607 0.23009 0.16975 0.0
C85 C 0.94939 0.31589 0.18423 0.0
N86 N 0.97007 0.27948 0.16293 0.0
H87 H 0.95811 0.20897 0.13812 0.0
H88 H 0.96869 0.3507 0.18848 0.0
H89 H 0.93593 0.33254 0.08201 0.0
H90 H 0.03861 0.41083 0.14701 0.0
O91 O 0.99757 0.2632 0.08744 0.0
O92 O 0.07224 0.29841 0.08923 0.0
O93 O 0.06751 0.328 0.16837 0.0
C94 C 0.03759 0.27661 0.07006 0.0
H95 H 0.11615 0.1452 0.19201 0.0
H96 H 0.91483 0.42857 0.07818 0.0
H97 H 0.88591 0.34029 0.21492 0.0
H98 H 0.87613 0.19719 0.16099 0.0
Co99 Co 0.23691 0.02735 0.62883 0.0
C100 C 0.34622 0.04768 0.6257 0.0
C101 C 0.31307 0.08738 0.67024 0.0
C102 C 0.3639 0.09413 0.67163 0.0
N103 N 0.30169 0.05668 0.64208 0.0
N104 N 0.38456 0.06896 0.64365 0.0
H105 H 0.35121 0.02405 0.60199 0.0
H106 H 0.28706 0.10453 0.68873 0.0
C107 C 0.20106 0.0679 0.70236 0.0
O108 O 0.23184 0.0392 0.72056 0.0
N109 N 0.17305 0.99814 0.61492 0.0
C110 C 0.1666 0.95895 0.59223 0.0
C111 C 0.11672 0.94778 0.59018 0.0
C112 C 0.12665 1.00975 0.62677 0.0
N113 N 0.09175 0.97947 0.61205 0.0
C114 C 0.29087 0.94398 0.65386 0.0
C115 C 0.21684 0.90153 0.696 0.0
C116 C 0.25886 0.87278 0.6869 0.0
C117 C 0.29672 0.89567 0.66648 0.0
C118 C 0.21193 0.94982 0.68192 0.0
N119 N 0.24859 0.97039 0.66068 0.0
H120 H 0.31863 0.95781 0.63529 0.0
H121 H 0.17748 0.96948 0.68652 0.0
H122 H 0.19614 0.93876 0.5787 0.0
H123 H 0.11832 0.03908 0.6461 0.0
O124 O 0.266 0.99937 0.58566 0.0
O125 O 0.23161 0.07424 0.58827 0.0
O126 O 0.20125 0.06807 0.66735 0.0
C127 C 0.25325 0.03981 0.56873 0.0
H128 H 0.38413 0.11603 0.69157 0.0
H129 H 0.1002 0.91742 0.57492 0.0
H130 H 0.18676 0.88628 0.71229 0.0
H131 H 0.32921 0.87548 0.65732 0.0
Co132 Co 0.50224 0.288 0.84838 0.0
C133 C 0.47978 0.17911 0.85264 0.0
C134 C 0.44389 0.2114 0.80619 0.0
C135 C 0.43659 0.16061 0.80525 0.0
N136 N 0.4724 0.2233 0.8354 0.0
N137 N 0.45938 0.14047 0.83442 0.0
H138 H 0.50214 0.17447 0.87698 0.0
H139 H 0.42897 0.23695 0.78646 0.0
C140 C 0.46101 0.32555 0.77561 0.0
O141 O 0.49043 0.29631 0.75654 0.0
N142 N 0.53187 0.35182 0.86203 0.0
C143 C 0.57188 0.35819 0.88384 0.0
C144 C 0.58279 0.40814 0.88616 0.0
C145 C 0.51947 0.39832 0.85097 0.0
N146 N 0.55007 0.4332 0.86534 0.0
C147 C 0.58411 0.23301 0.82187 0.0
C148 C 0.62838 0.30796 0.78172 0.0
C149 C 0.65661 0.26554 0.79058 0.0
C150 C 0.63272 0.22712 0.80977 0.0
C151 C 0.57981 0.31293 0.79532 0.0
N152 N 0.55848 0.27595 0.81581 0.0
H153 H 0.56947 0.20475 0.83968 0.0
H154 H 0.56064 0.34774 0.79115 0.0
H155 H 0.59275 0.32855 0.89657 0.0
H156 H 0.48929 0.40675 0.83249 0.0
O157 O 0.53114 0.25894 0.89108 0.0
O158 O 0.45632 0.29359 0.88955 0.0
O159 O 0.46075 0.32379 0.81059 0.0
C160 C 0.49118 0.27205 0.90858 0.0
H161 H 0.41625 0.14003 0.78462 0.0
H162 H 0.61359 0.42468 0.90088 0.0
H163 H 0.64425 0.33839 0.76616 0.0
H164 H 0.65229 0.19411 0.81856 0.0
Co165 Co 0.23678 0.50579 0.35193 0.0
C166 C 0.34581 0.48454 0.35564 0.0
C167 C 0.31315 0.44634 0.31027 0.0
C168 C 0.36392 0.43934 0.30908 0.0
N169 N 0.3015 0.4762 0.33888 0.0
N170 N 0.38429 0.46358 0.33757 0.0
H171 H 0.35061 0.5077 0.37961 0.0
H172 H 0.2874 0.43008 0.29124 0.0
C173 C 0.20065 0.46473 0.27863 0.0
O174 O 0.23088 0.49376 0.25998 0.0
N175 N 0.17297 0.53524 0.36564 0.0
C176 C 0.16657 0.57482 0.38797 0.0
C177 C 0.1167 0.58586 0.39014 0.0
C178 C 0.12656 0.52325 0.35413 0.0
N179 N 0.0917 0.55367 0.36872 0.0
C180 C 0.29185 0.58854 0.32652 0.0
C181 C 0.21831 0.63164 0.28479 0.0
C182 C 0.2606 0.66011 0.2938 0.0
C183 C 0.29822 0.63687 0.31398 0.0
C184 C 0.21286 0.58333 0.29879 0.0
N185 N 0.24926 0.56247 0.31987 0.0
H186 H 0.31947 0.57443 0.34492 0.0
H187 H 0.17819 0.56391 0.29431 0.0
H188 H 0.19614 0.59532 0.40117 0.0
H189 H 0.1182 0.49349 0.33516 0.0
O190 O 0.26554 0.53405 0.39505 0.0
O191 O 0.23066 0.45922 0.39259 0.0
O192 O 0.20126 0.46474 0.31363 0.0
C193 C 0.25223 0.49374 0.41206 0.0
H194 H 0.38432 0.41806 0.28884 0.0
H195 H 0.10021 0.61642 0.40519 0.0
H196 H 0.18841 0.64712 0.26865 0.0
H197 H 0.33094 0.6568 0.32303 0.0
Co198 Co 0.02539 0.23584 0.85313 0.0
C199 C 0.04518 0.34527 0.85586 0.0
C200 C 0.08717 0.3118 0.8126 0.0
C201 C 0.09415 0.36263 0.81115 0.0
N202 N 0.05488 0.30064 0.83992 0.0
N203 N 0.06756 0.38346 0.83835 0.0
H204 H 0.02062 0.35042 0.87907 0.0
H205 H 0.10547 0.28559 0.79486 0.0
C206 C 0.06713 0.20085 0.77981 0.0
O207 O 0.03917 0.23236 0.76165 0.0
N208 N 0.99601 0.17197 0.86704 0.0
C209 C 0.9569 0.16544 0.88988 0.0
C210 C 0.94573 0.11554 0.89198 0.0
C211 C 1.00756 0.1256 0.85514 0.0
N212 N 0.97733 0.09066 0.86999 0.0
C213 C 0.94203 0.2895 0.82775 0.0
C214 C 0.901 0.21563 0.78492 0.0
C215 C 0.87182 0.25739 0.79388 0.0
C216 C 0.89398 0.29517 0.81468 0.0
C217 C 0.94901 0.21089 0.79943 0.0
N218 N 0.96886 0.24748 0.82098 0.0
H219 H 0.95527 0.31717 0.84653 0.0
H220 H 0.96898 0.17661 0.79488 0.0
H221 H 0.93679 0.19494 0.90351 0.0
H222 H 0.03682 0.11731 0.8357 0.0
O223 O 0.99693 0.26495 0.89615 0.0
O224 O 0.07177 0.23052 0.89387 0.0
O225 O 0.06649 0.20023 0.81481 0.0
C226 C 0.03716 0.25218 0.91324 0.0
H227 H 0.11732 0.38272 0.79184 0.0
H228 H 0.91547 0.09893 0.90739 0.0
H229 H 0.8863 0.18561 0.76839 0.0
H230 H 0.87337 0.32744 0.82376 0.0
Co231 Co 0.29439 0.02976 0.35168 0.0
C232 C 0.18527 0.05065 0.3554 0.0
C233 C 0.21818 0.08938 0.31024 0.0
C234 C 0.16738 0.0962 0.30908 0.0
N235 N 0.22969 0.05926 0.33867 0.0
N236 N 0.14686 0.07162 0.33744 0.0
H237 H 0.18036 0.0273 0.37927 0.0
H238 H 0.24405 0.10599 0.29133 0.0
C239 C 0.33044 0.07048 0.27833 0.0
O240 O 0.29995 0.04115 0.26029 0.0
N241 N 0.35812 1.00039 0.36541 0.0
C242 C 0.36427 0.96075 0.3877 0.0
C243 C 0.41409 0.94967 0.38991 0.0
C244 C 0.40465 1.01237 0.35395 0.0
N245 N 0.43934 0.98188 0.36856 0.0
C246 C 0.23965 0.94703 0.32595 0.0
C247 C 0.3139 0.90384 0.28462 0.0
C248 C 0.27143 0.87541 0.29342 0.0
C249 C 0.23346 0.8987 0.31338 0.0
C250 C 0.31914 0.95215 0.29865 0.0
N251 N 0.28238 0.97308 0.31953 0.0
H252 H 0.21172 0.96111 0.34423 0.0
H253 H 0.35388 0.97156 0.29429 0.0
H254 H 0.33456 0.94021 0.40083 0.0
H255 H 0.41321 0.04214 0.335 0.0
O256 O 0.26524 1.00118 0.39464 0.0
O257 O 0.29992 0.0761 0.3926 0.0
O258 O 0.33017 0.07101 0.31334 0.0
C259 C 0.27822 0.04135 0.41189 0.0
H260 H 0.14707 0.11763 0.28896 0.0
H261 H 0.4304 0.91905 0.40493 0.0
H262 H 0.34408 0.88831 0.26865 0.0
H263 H 0.20057 0.8788 0.32229 0.0
Co264 Co 0.52412 0.78837 0.85036 0.0
C265 C 0.5448 0.67912 0.85326 0.0
C266 C 0.58458 0.71267 0.80883 0.0
C267 C 0.59165 0.6619 0.80734 0.0
N268 N 0.55367 0.72376 0.83699 0.0
N269 N 0.56644 0.641 0.83525 0.0
H270 H 0.521 0.67388 0.87689 0.0
H271 H 0.60168 0.73883 0.79039 0.0
C272 C 0.56605 0.82517 0.77745 0.0
O273 O 0.53752 0.79471 0.75871 0.0
N274 N 0.49479 0.85212 0.86436 0.0
C275 C 0.45525 0.85851 0.88679 0.0
C276 C 0.44412 0.9084 0.8888 0.0
C277 C 0.5067 0.89855 0.85269 0.0
N278 N 0.47623 0.93342 0.8672 0.0
C279 C 0.44144 0.73416 0.82421 0.0
C280 C 0.39931 0.80877 0.78287 0.0
C281 C 0.37039 0.76663 0.79166 0.0
C282 C 0.39317 0.72842 0.81157 0.0
C283 C 0.44754 0.81357 0.79697 0.0
N284 N 0.46786 0.7767 0.81793 0.0
H285 H 0.45517 0.70611 0.84245 0.0
H286 H 0.46727 0.84815 0.7927 0.0
H287 H 0.43477 0.82891 0.90011 0.0
H288 H 0.53636 0.90693 0.83358 0.0
O289 O 0.49515 0.7589 0.8931 0.0
O290 O 0.57009 0.79353 0.89133 0.0
O291 O 0.56568 0.82439 0.81245 0.0
C292 C 0.53525 0.77165 0.91044 0.0
H293 H 0.61378 0.64188 0.78738 0.0
H294 H 0.4135 0.92488 0.90381 0.0
H295 H 0.38421 0.83908 0.7669 0.0
H296 H 0.37291 0.69573 0.82041 0.0
Co297 Co 0.73689 0.52857 0.35191 0.0
C298 C 0.84595 0.55017 0.35575 0.0
C299 C 0.81337 0.58847 0.31046 0.0
C300 C 0.86415 0.59557 0.30927 0.0
N301 N 0.80166 0.55845 0.33899 0.0
N302 N 0.88447 0.57125 0.3377 0.0
H303 H 0.85069 0.52694 0.37967 0.0
H304 H 0.78764 0.60477 0.29148 0.0
C305 C 0.70131 0.5689 0.27846 0.0
O306 O 0.73194 0.53993 0.26022 0.0
N307 N 0.673 0.49892 0.36549 0.0
C308 C 0.66647 0.45903 0.38752 0.0
C309 C 0.61654 0.44804 0.38971 0.0
C310 C 0.62663 0.51117 0.35419 0.0
N311 N 0.59164 0.48059 0.36861 0.0
C312 C 0.79211 0.44616 0.32646 0.0
C313 C 0.71853 0.40249 0.28492 0.0
C314 C 0.76091 0.37432 0.29392 0.0
C315 C 0.79855 0.39786 0.31398 0.0
C316 C 0.71301 0.45078 0.29889 0.0
N317 N 0.74944 0.47193 0.31987 0.0
H318 H 0.81974 0.46044 0.34483 0.0
H319 H 0.67827 0.46996 0.29445 0.0
H320 H 0.69599 0.43831 0.40049 0.0
H321 H 0.61838 0.54125 0.3355 0.0
O322 O 0.7655 0.50026 0.39498 0.0
O323 O 0.73072 0.57499 0.39271 0.0
O324 O 0.70155 0.56939 0.31346 0.0
C325 C 0.75216 0.5404 0.41211 0.0
H326 H 0.8846 0.61695 0.28906 0.0
H327 H 0.59992 0.41727 0.40454 0.0
H328 H 0.68861 0.38678 0.26885 0.0
H329 H 0.83132 0.37817 0.32304 0.0
Co330 Co 1.00182 0.73594 0.85251 0.0
C331 C 0.98151 0.84514 0.85599 0.0
C332 C 0.93984 0.81182 0.81261 0.0
C333 C 0.93271 0.86261 0.81148 0.0
N334 N 0.97202 0.80061 0.83981 0.0
N335 N 0.9591 0.88335 0.83875 0.0
H336 H 1.00606 0.85023 0.87912 0.0
H337 H 0.92178 0.78569 0.79471 0.0
C338 C 0.95988 0.70103 0.77942 0.0
O339 O 0.98781 0.7327 0.76115 0.0
N340 N 0.03148 0.67219 0.86592 0.0
C341 C 0.07116 0.6659 0.88804 0.0
C342 C 0.08227 0.61603 0.89012 0.0
C343 C 0.01952 0.62573 0.85439 0.0
N344 N 0.05004 0.59095 0.86881 0.0
C345 C 0.0847 0.79049 0.82651 0.0
C346 C 0.12618 0.71673 0.7838 0.0
C347 C 0.15526 0.75863 0.79278 0.0
C348 C 0.13283 0.79642 0.81342 0.0
C349 C 0.07808 0.71174 0.79833 0.0
N350 N 0.05806 0.74822 0.81992 0.0
H351 H 0.07128 0.81813 0.84527 0.0
H352 H 0.05822 0.67731 0.79387 0.0
H353 H 0.09167 0.69554 0.90119 0.0
H354 H 0.98971 0.61727 0.83555 0.0
O355 O 0.03057 0.7649 0.89536 0.0
O356 O 0.95578 0.72996 0.89362 0.0
O357 O 0.96056 0.70031 0.81441 0.0
C358 C 0.99053 0.75165 0.91276 0.0
H359 H 0.90962 0.88274 0.79229 0.0
H360 H 0.11286 0.59958 0.90503 0.0
H361 H 0.14106 0.68674 0.76733 0.0
H362 H 0.15331 0.82884 0.82244 0.0
Co363 Co 0.79441 1.00474 0.35252 0.0
C364 C 0.68521 0.98381 0.35604 0.0
C365 C 0.71814 0.94511 0.31093 0.0
C366 C 0.66732 0.93838 0.3096 0.0
N367 N 0.72966 0.97517 0.33943 0.0
N368 N 0.64678 0.96295 0.33792 0.0
H369 H 0.6803 1.00712 0.37993 0.0
H370 H 0.74402 0.92853 0.29207 0.0
C371 C 0.83062 0.96396 0.27913 0.0
O372 O 0.80034 0.99291 0.2607 0.0
N373 N 0.85825 0.03419 0.36625 0.0
C374 C 0.86465 0.07358 0.38876 0.0
C375 C 0.91451 0.08481 0.39079 0.0
C376 C 0.90467 0.02252 0.35447 0.0
N377 N 0.93953 0.05295 0.36908 0.0
C378 C 0.73991 0.08757 0.32728 0.0
C379 C 0.8139 0.13074 0.2855 0.0
C380 C 0.77163 0.15913 0.29456 0.0
C381 C 0.7338 0.13588 0.31476 0.0
C382 C 0.81905 0.08239 0.29944 0.0
N383 N 0.78243 0.0615 0.32054 0.0
H384 H 0.71215 0.07351 0.34575 0.0
H385 H 0.85365 0.06298 0.29489 0.0
H386 H 0.83507 0.09385 0.40218 0.0
H387 H 0.91305 0.99301 0.33529 0.0
O388 O 0.76539 0.03292 0.39564 0.0
O389 O 0.79997 0.95809 0.39315 0.0
O390 O 0.83004 0.96385 0.31413 0.0
C391 C 0.77834 0.99259 0.41263 0.0
H392 H 0.647 0.91705 0.28938 0.0
H393 H 0.93099 0.1153 0.40592 0.0
H394 H 0.84397 0.1463 0.26937 0.0
H395 H 0.70111 0.15581 0.32387 0.0
Co396 Co 0.52467 0.73441 0.1278 0.0
C397 C 0.54762 0.84331 0.12279 0.0
C398 C 0.59142 0.80938 0.16468 0.0
C399 C 0.59978 0.86005 0.16538 0.0
N400 N 0.55709 0.79865 0.13881 0.0
N401 N 0.57205 0.88124 0.13908 0.0
H402 H 0.52184 0.8487 0.10046 0.0
H403 H 0.61008 0.78293 0.18194 0.0
C404 C 0.56777 0.70135 0.20089 0.0
O405 O 0.54206 0.73513 0.21876 0.0
N406 N 0.49205 0.67143 0.11608 0.0
C407 C 0.44689 0.66757 0.10038 0.0
C408 C 0.43268 0.61844 0.09997 0.0
C409 C 0.50487 0.62411 0.12487 0.0
N410 N 0.46886 0.59099 0.11556 0.0
C411 C 0.44376 0.79185 0.15375 0.0
C412 C 0.40179 0.7203 0.19838 0.0
C413 C 0.37317 0.76203 0.1886 0.0
C414 C 0.39592 0.79884 0.16712 0.0
C415 C 0.44964 0.71427 0.1837 0.0
N416 N 0.4698 0.74951 0.161 0.0
H417 H 0.45721 0.81845 0.13419 0.0
H418 H 0.4689 0.67965 0.18852 0.0
H419 H 0.42475 0.69865 0.0911 0.0
H420 H 0.53861 0.61427 0.13921 0.0
O421 O 0.49592 0.7626 0.08464 0.0
O422 O 0.56955 0.72547 0.08641 0.0
O423 O 0.56543 0.69863 0.16599 0.0
C424 C 0.53527 0.74761 0.0672 0.0
H425 H 0.62459 0.8798 0.18365 0.0
H426 H 0.39787 0.60415 0.08944 0.0
H427 H 0.38656 0.69105 0.21547 0.0
H428 H 0.37572 0.83109 0.15756 0.0
Co429 Co 0.7905 0.52689 0.62907 0.0
C430 C 0.68132 0.5473 0.62592 0.0
C431 C 0.71428 0.58697 0.67047 0.0
C432 C 0.66349 0.59387 0.6718 0.0
N433 N 0.72574 0.55622 0.64234 0.0
N434 N 0.64296 0.56874 0.6438 0.0
H435 H 0.6764 0.52367 0.60221 0.0
H436 H 0.74022 0.6041 0.68897 0.0
C437 C 0.82601 0.56761 0.70249 0.0
O438 O 0.79505 0.53891 0.72079 0.0
N439 N 0.85433 0.49769 0.61513 0.0
C440 C 0.86076 0.4583 0.59263 0.0
C441 C 0.91063 0.44727 0.59045 0.0
C442 C 0.90072 0.50958 0.62673 0.0
N443 N 0.93561 0.47927 0.61204 0.0
C444 C 0.73607 0.44355 0.65428 0.0
C445 C 0.80978 0.40123 0.6963 0.0
C446 C 0.76777 0.37238 0.68723 0.0
C447 C 0.73006 0.39521 0.66689 0.0
C448 C 0.81489 0.44952 0.6822 0.0
N449 N 0.7784 0.47001 0.66101 0.0
H450 H 0.70842 0.45736 0.63579 0.0
H451 H 0.84938 0.46924 0.68673 0.0
H452 H 0.8312 0.43789 0.57932 0.0
H453 H 0.90905 0.53915 0.64586 0.0
O454 O 0.7616 0.49878 0.58597 0.0
O455 O 0.79627 0.57368 0.58848 0.0
O456 O 0.82603 0.5677 0.66749 0.0
C457 C 0.77465 0.53919 0.569 0.0
H458 H 0.64321 0.61588 0.69169 0.0
H459 H 0.92713 0.4168 0.5753 0.0
H460 H 0.83972 0.38608 0.71256 0.0
H461 H 0.69757 0.37496 0.65777 0.0
Co462 Co 1.00423 0.7924 0.12955 0.0
C463 C 0.98387 0.68302 0.12687 0.0
C464 C 0.94366 0.71647 0.17106 0.0
C465 C 0.93656 0.66566 0.17253 0.0
N466 N 0.97487 0.72764 0.14307 0.0
N467 N 0.96202 0.64483 0.14475 0.0
H468 H 1.00774 0.67787 0.10327 0.0
H469 H 0.92629 0.74262 0.18931 0.0
C470 C 0.96318 0.82853 0.20283 0.0
O471 O 0.99158 0.79771 0.22124 0.0
N472 N 0.03341 0.85626 0.11535 0.0
C473 C 0.07256 0.86276 0.09254 0.0
C474 C 0.08364 0.91269 0.09034 0.0
C475 C 0.02173 0.90266 0.1271 0.0
N476 N 0.05193 0.93761 0.11223 0.0
C477 C 0.08747 0.73867 0.15502 0.0
C478 C 0.1294 0.8131 0.19686 0.0
C479 C 0.15827 0.77105 0.1881 0.0
C480 C 0.13565 0.73299 0.16783 0.0
C481 C 0.08124 0.81781 0.18264 0.0
N482 N 0.06096 0.78096 0.16154 0.0
H483 H 0.07381 0.71073 0.1366 0.0
H484 H 0.06148 0.85226 0.18702 0.0
H485 H 0.09277 0.83322 0.07904 0.0
H486 H 0.99242 0.91097 0.14648 0.0
O487 O 0.03245 0.76312 0.08652 0.0
O488 O 0.95757 0.7975 0.08899 0.0
O489 O 0.96331 0.82822 0.16783 0.0
C490 C 0.99208 0.7758 0.06956 0.0
H491 H 0.91413 0.64558 0.19232 0.0
H492 H 0.11395 0.92927 0.07498 0.0
H493 H 0.14448 0.84333 0.21299 0.0
H494 H 0.156 0.70044 0.15895 0.0
Co495 Co 0.73697 1.00284 0.62954 0.0
C496 C 0.84607 0.98193 0.62589 0.0
C497 C 0.81315 0.94343 0.67116 0.0
C498 C 0.86394 0.93657 0.67232 0.0
N499 N 0.80164 0.97338 0.64263 0.0
N500 N 0.88446 0.96099 0.64389 0.0
H501 H 0.851 1.00523 0.60199 0.0
H502 H 0.78728 0.927 0.69015 0.0
C503 C 0.70009 0.96114 0.70251 0.0
O504 O 0.73005 0.99017 0.72127 0.0
N505 N 0.67322 0.03218 0.61576 0.0
C506 C 0.66699 0.07168 0.59335 0.0
C507 C 0.61715 0.08275 0.59121 0.0
C508 C 0.62672 0.02028 0.62735 0.0
N509 N 0.59199 0.05068 0.61273 0.0
C510 C 0.79137 0.0855 0.65561 0.0
C511 C 0.71668 0.12829 0.69675 0.0
C512 C 0.75893 0.15702 0.68788 0.0
C513 C 0.79718 0.13391 0.66809 0.0
C514 C 0.71184 0.07989 0.68282 0.0
N515 N 0.74874 0.05925 0.66194 0.0
H516 H 0.81946 0.07151 0.63742 0.0
H517 H 0.67722 0.06027 0.68715 0.0
H518 H 0.69664 0.09214 0.58009 0.0
H519 H 0.61821 0.99064 0.64641 0.0
O520 O 0.76627 0.03169 0.58672 0.0
O521 O 0.73167 0.95669 0.58855 0.0
O522 O 0.70109 0.9613 0.66751 0.0
C523 C 0.75342 0.99154 0.56939 0.0
H524 H 0.88424 0.91522 0.69249 0.0
H525 H 0.60077 0.11327 0.57612 0.0
H526 H 0.68635 0.14366 0.71264 0.0
H527 H 0.82996 0.15402 0.65923 0.0
C528 C 0.44483 0.25688 0.00661 0.0
C529 C 0.4904 0.25549 0.0254 0.0
H530 H 0.4089 0.26445 0.95414 0.0
C531 C 0.53493 0.2595 0.00552 0.0
H532 H 0.41 0.25388 0.02146 0.0
C533 C 0.53433 0.2644 0.96772 0.0
C534 C 0.48916 0.2664 0.94868 0.0
H535 H 0.57068 0.25822 0.01913 0.0
H536 H 0.56962 0.26725 0.95343 0.0
C537 C 0.44419 0.26304 0.96833 0.0
C538 C 0.26081 0.53553 0.4718 0.0
C539 C 0.25789 0.49081 0.45212 0.0
H540 H 0.26778 0.57064 0.52371 0.0
C541 C 0.26034 0.44535 0.47112 0.0
H542 H 0.25867 0.57119 0.45802 0.0
C543 C 0.26651 0.44503 0.50939 0.0
C544 C 0.26884 0.49017 0.52884 0.0
H545 H 0.25821 0.41038 0.45644 0.0
H546 H 0.26878 0.40982 0.52373 0.0
C547 C 0.26574 0.53521 0.50959 0.0
C548 C 0.08521 0.26098 0.97238 0.0
C549 C 0.03989 0.25856 0.95329 0.0
H550 H 0.12043 0.26982 0.02502 0.0
C551 C 0.99509 0.2622 0.97288 0.0
H552 H 0.12025 0.25832 0.95778 0.0
C553 C 0.99519 0.26768 0.01066 0.0
C554 C 0.0401 0.27063 0.02997 0.0
H555 H 0.95952 0.26015 0.95907 0.0
H556 H 0.95971 0.27018 0.02471 0.0
C557 C 0.08532 0.26769 0.01062 0.0
C558 C 0.2689 0.99865 0.47124 0.0
C559 C 0.27206 0.04371 0.45199 0.0
H560 H 0.26104 0.96257 0.52273 0.0
C561 C 0.26913 0.08882 0.47143 0.0
H562 H 0.27137 0.96323 0.45715 0.0
C563 C 0.26227 0.08843 0.50968 0.0
C564 C 0.25967 0.04293 0.52868 0.0
H565 H 0.27142 0.12405 0.45709 0.0
H566 H 0.25966 0.12337 0.52436 0.0
C567 C 0.26324 0.99827 0.509 0.0
C568 C 0.58299 0.76313 0.96964 0.0
C569 C 0.53774 0.76483 0.95045 0.0
H570 H 0.61805 0.75507 0.02237 0.0
C571 C 0.49288 0.76024 0.9699 0.0
H572 H 0.61806 0.76651 0.95516 0.0
C573 C 0.49287 0.75477 0.00769 0.0
C574 C 0.53773 0.75277 0.02709 0.0
H575 H 0.45736 0.76168 0.95598 0.0
H576 H 0.45741 0.75167 0.02174 0.0
C577 C 0.583 0.75642 0.00786 0.0
C578 C 0.76073 0.58799 0.47158 0.0
C579 C 0.75753 0.54283 0.45222 0.0
H580 H 0.76988 0.62263 0.52447 0.0
C581 C 0.75966 0.49781 0.47156 0.0
H582 H 0.75921 0.62318 0.45716 0.0
C583 C 0.76469 0.49751 0.50934 0.0
C584 C 0.76863 0.54221 0.52895 0.0
H585 H 0.75692 0.46238 0.45752 0.0
H586 H 0.76617 0.46184 0.52315 0.0
C587 C 0.76696 0.58766 0.50986 0.0
C588 C 0.94358 0.76725 0.01061 0.0
C589 C 0.98905 0.7693 0.02954 0.0
H590 H 0.90798 0.75883 0.95807 0.0
C591 C 0.03369 0.76535 0.0098 0.0
H592 H 0.90867 0.77017 0.02533 0.0
C593 C 0.03331 0.75997 0.97203 0.0
C594 C 0.98827 0.75745 0.95286 0.0
H595 H 0.06937 0.76713 0.0235 0.0
H596 H 0.06869 0.75726 0.95786 0.0
C597 C 0.94318 0.76064 0.97236 0.0
C598 C 0.76916 0.0344 0.47231 0.0
C599 C 0.77216 0.98965 0.45268 0.0
H600 H 0.76147 0.06961 0.52414 0.0
C601 C 0.76913 0.94422 0.4717 0.0
H602 H 0.77172 0.07004 0.45852 0.0
C603 C 0.76231 0.94397 0.50995 0.0
C604 C 0.75987 0.98914 0.52934 0.0
H605 H 0.7713 0.90923 0.45705 0.0
H606 H 0.7596 0.90879 0.5243 0.0
C607 C 0.76356 0.03415 0.51007 0.0
C608 C 0.56664 0.95128 0.0953 0.0
C609 C 0.56694 0.93371 0.13154 0.0
H610 H 0.56375 0.01513 0.05991 0.0
C611 C 0.56186 0.96813 0.16036 0.0
H612 H 0.57052 0.92551 0.07266 0.0
C613 C 0.55655 0.01912 0.15306 0.0
C614 C 0.55765 0.03679 0.11684 0.0
H615 H 0.56153 0.95544 0.18853 0.0
H616 H 0.553 0.04494 0.1757 0.0
C617 C 0.56283 1.00237 0.08805 0.0
C618 C 0.57362 0.56546 0.59961 0.0
C619 C 0.59074 0.56317 0.63588 0.0
H620 H 0.51029 0.56412 0.56388 0.0
C621 C 0.5562 0.55493 0.66429 0.0
H622 H 0.59951 0.5718 0.5773 0.0
C623 C 0.50546 0.54918 0.65653 0.0
C624 C 0.48822 0.5529 0.62034 0.0
H625 H 0.5686 0.55254 0.69244 0.0
H626 H 0.47948 0.54333 0.67886 0.0
C627 C 0.52277 0.56111 0.59198 0.0
C628 C 0.96893 0.52408 0.09326 0.0
C629 C 0.97686 0.48977 0.12172 0.0
H630 H 0.95883 0.60076 0.07838 0.0
C631 C 0.98063 0.50736 0.15785 0.0
H632 H 0.96588 0.51132 0.06521 0.0
C633 C 0.97522 0.55821 0.16547 0.0
C634 C 0.9673 0.59251 0.13697 0.0
H635 H 0.98628 0.48156 0.18024 0.0
H636 H 0.97762 0.57089 0.19357 0.0
C637 C 0.96494 0.57504 0.10075 0.0
C638 C 0.97111 0.97524 0.66414 0.0
C639 C 0.9367 0.96677 0.63583 0.0
H640 H 0.04771 0.9873 0.67851 0.0
C641 C 0.95397 0.96456 0.59952 0.0
H642 H 0.95862 0.9776 0.69232 0.0
C643 C 1.00481 0.96926 0.59174 0.0
C644 C 0.03923 0.97769 0.62 0.0
H645 H 0.92819 0.95806 0.57728 0.0
H646 H 0.01737 0.96636 0.56361 0.0
C647 C 0.02184 0.98129 0.65624 0.0
C648 C 0.56348 0.571 0.87907 0.0
C649 C 0.56095 0.58866 0.84292 0.0
H650 H 0.5626 0.50708 0.91442 0.0
C651 C 0.55269 0.55451 0.81435 0.0
H652 H 0.56985 0.59661 0.90149 0.0
C653 C 0.54716 0.50362 0.82183 0.0
C654 C 0.55116 0.48584 0.85789 0.0
H655 H 0.55013 0.56733 0.78629 0.0
H656 H 0.5413 0.47793 0.79937 0.0
C657 C 0.55938 0.52 0.88642 0.0
C658 C 0.97107 0.55692 0.31718 0.0
C659 C 0.93667 0.56557 0.34559 0.0
H660 H 0.04766 0.54497 0.30253 0.0
C661 C 0.95392 0.56813 0.38182 0.0
H662 H 0.95859 0.55428 0.28906 0.0
C663 C 1.00476 0.56367 0.38939 0.0
C664 C 0.03917 0.5551 0.36101 0.0
H665 H 0.92814 0.57476 0.40414 0.0
H666 H 0.01733 0.56689 0.41745 0.0
C667 C 0.02179 0.55109 0.32488 0.0
C668 C 0.96852 1.00362 0.89059 0.0
C669 C 0.97561 0.03816 0.86212 0.0
H670 H 0.95848 0.92685 0.90535 0.0
C671 C 0.97787 0.02091 0.82582 0.0
H672 H 0.96663 0.01613 0.91877 0.0
C673 C 0.97182 0.97014 0.8181 0.0
C674 C 0.96477 0.93561 0.84662 0.0
H675 H 0.98282 0.04692 0.80342 0.0
H676 H 0.97311 0.95771 0.78988 0.0
C677 C 0.96389 0.95275 0.88296 0.0
C678 C 0.52599 0.97171 0.38938 0.0
C679 C 0.49194 0.9803 0.36093 0.0
H680 H 0.60235 0.96018 0.40428 0.0
C681 C 0.50974 0.98396 0.3248 0.0
H682 H 0.51308 0.96874 0.41744 0.0
C683 C 0.5605 0.97773 0.3172 0.0
C684 C 0.59453 0.96903 0.34569 0.0
H685 H 0.48414 0.99007 0.3024 0.0
H686 H 0.57331 0.98009 0.28909 0.0
C687 C 0.57687 0.96685 0.3819 0.0
C688 C 0.47402 0.0536 0.81471 0.0
C689 C 0.46464 0.0883 0.84275 0.0
H690 H 0.48636 0.97688 0.80078 0.0
C691 C 0.46101 0.07137 0.87907 0.0
H692 H 0.4775 0.06581 0.78654 0.0
C693 C 0.46526 0.02058 0.88708 0.0
C694 C 0.47464 0.98588 0.85908 0.0
H695 H 0.4538 0.09737 0.90111 0.0
H696 H 0.46134 1.00828 0.9152 0.0
C697 C 0.4796 1.00295 0.82286 0.0
C698 C 0.45377 0.46602 0.38169 0.0
C699 C 0.4365 0.46923 0.3455 0.0
H700 H 0.51726 0.46657 0.41729 0.0
C701 C 0.4709 0.47835 0.31716 0.0
H702 H 0.42798 0.45901 0.40396 0.0
C703 C 0.52166 0.48401 0.32487 0.0
C704 C 0.53908 0.47933 0.36095 0.0
H705 H 0.45839 0.48148 0.28908 0.0
H706 H 0.54752 0.49051 0.30256 0.0
C707 C 0.50466 0.4703 0.38927 0.0
C708 C 0.0631 0.45319 0.88229 0.0
C709 C 0.06191 0.43575 0.84603 0.0
H710 H 0.06085 0.51687 0.91783 0.0
C711 C 0.05468 0.47002 0.81742 0.0
H712 H 0.06866 0.42748 0.90475 0.0
C713 C 0.04879 0.52084 0.82497 0.0
C714 C 0.05141 0.53839 0.86117 0.0
H715 H 0.05317 0.45734 0.78928 0.0
H716 H 0.04372 0.54666 0.80251 0.0
C717 C 0.05866 0.50411 0.88973 0.0
C718 C 0.02643 0.0632 0.38947 0.0
C719 C 0.99207 0.05469 0.36118 0.0
H720 H 0.10301 0.07451 0.40401 0.0
C721 C 1.00953 0.05107 0.32496 0.0
H722 H 1.01381 0.06612 0.4176 0.0
C723 C 0.06027 0.05719 0.31712 0.0
C724 C 0.09462 0.06574 0.34545 0.0
H725 H 0.98371 0.04501 0.30268 0.0
H726 H 0.07282 0.05482 0.28895 0.0
C727 C 0.07728 0.06795 0.38175 0.0
C728 C 0.41759 0.46289 0.13412 0.0
C729 C 0.46069 0.43338 0.1341 0.0
H730 H 0.38643 0.53561 0.12874 0.0
C731 C 0.50703 0.45701 0.12872 0.0
H732 H 0.3813 0.44618 0.138 0.0
C733 C 0.51003 0.50876 0.12333 0.0
C734 C 0.4667 0.53799 0.12273 0.0
H735 H 0.54106 0.43556 0.12903 0.0
H736 H 0.54611 0.52574 0.11896 0.0
C737 C 0.42054 0.5143 0.12843 0.0
C738 C 0.0561 0.47608 0.66377 0.0
C739 C 0.09056 0.46714 0.63544 0.0
H740 H 0.97951 0.48831 0.67826 0.0
C741 C 0.07339 0.46434 0.5992 0.0
H742 H 0.06851 0.47891 0.69189 0.0
C743 C 0.02259 0.46888 0.59153 0.0
C744 C 0.98811 0.47773 0.61982 0.0
H745 H 0.09921 0.45748 0.57694 0.0
H746 H 1.01009 0.4655 0.56346 0.0
C747 C 1.00542 0.48196 0.65597 0.0
C748 C 0.05016 1.00734 0.15642 0.0
C749 C 0.05362 0.99012 0.12016 0.0
H750 H 0.05372 0.07046 0.19248 0.0
C751 C 0.06171 0.0247 0.09185 0.0
H752 H 0.04442 0.98134 0.17871 0.0
C753 C 0.06614 0.07556 0.0996 0.0
C754 C 0.06404 0.09267 0.13593 0.0
H755 H 0.06449 1.01225 0.0637 0.0
H756 H 0.07233 0.1015 0.07733 0.0
C757 C 0.05598 0.05808 0.16428 0.0
C758 C 0.471 0.05501 0.66432 0.0
C759 C 0.43682 0.06312 0.63583 0.0
H760 H 0.54748 0.04324 0.67904 0.0
C761 C 0.45435 0.06496 0.59957 0.0
H762 H 0.45829 0.05295 0.69247 0.0
C763 C 0.50523 0.0603 0.59202 0.0
C764 C 0.53942 0.05223 0.62046 0.0
H765 H 0.42875 0.07119 0.57719 0.0
H766 H 0.51802 0.06297 0.56392 0.0
C767 C 0.52177 0.04895 0.65665 0.0
C768 C 0.78934 0.30902 0.19721 0.0
C769 C 0.8181 0.26535 0.19682 0.0
H770 H 0.71695 0.34111 0.19746 0.0
C771 C 0.79314 0.21918 0.1988 0.0
H772 H 0.80641 0.34545 0.19572 0.0
C773 C 0.74124 0.21667 0.19764 0.0
C774 C 0.71272 0.26034 0.19574 0.0
H775 H 0.81354 0.18457 0.20015 0.0
H776 H 0.72386 0.18033 0.19657 0.0
C777 C 0.73752 0.30651 0.19744 0.0
C778 C 0.2196 0.73734 0.69596 0.0
C779 C 0.26563 0.71239 0.69416 0.0
H780 H 0.18095 0.80629 0.69389 0.0
C781 C 0.30937 0.7412 0.69484 0.0
H782 H 0.18487 0.71697 0.69717 0.0
C783 C 0.30708 0.79308 0.69552 0.0
C784 C 0.26104 0.81799 0.69388 0.0
H785 H 0.34573 0.72414 0.69353 0.0
H786 H 0.3418 0.81346 0.69634 0.0
C787 C 0.2173 0.78921 0.69504 0.0
C788 C 0.79222 0.30531 0.78436 0.0
C789 C 0.81724 0.25936 0.78628 0.0
H790 H 0.72319 0.34373 0.78556 0.0
C791 C 0.78869 0.21548 0.78481 0.0
H792 H 0.8125 0.34013 0.78378 0.0
C793 C 0.73686 0.21758 0.78329 0.0
C794 C 0.7117 0.26354 0.78477 0.0
H795 H 0.8059 0.17919 0.78615 0.0
H796 H 0.71671 0.18276 0.78183 0.0
C797 C 0.74036 0.30741 0.78444 0.0
C798 C 0.31233 0.79156 0.28593 0.0
C799 C 0.26883 0.82055 0.28668 0.0
H800 H 0.34414 0.71915 0.28443 0.0
C801 C 0.22261 0.7958 0.28488 0.0
H802 H 0.34882 0.80847 0.28722 0.0
C803 C 0.21985 0.74393 0.28583 0.0
C804 C 0.26333 0.71495 0.28696 0.0
H805 H 0.18807 0.81632 0.28371 0.0
H806 H 0.18334 0.72703 0.287 0.0
C807 C 0.30959 0.73968 0.28529 0.0
C808 C 0.23529 0.80656 0.78378 0.0
C809 C 0.21 0.76061 0.78554 0.0
H810 H 0.30452 0.84491 0.7856 0.0
C811 C 0.23837 0.71672 0.78432 0.0
H812 H 0.21519 0.84138 0.783 0.0
C813 C 0.29023 0.71878 0.78327 0.0
C814 C 0.31555 0.76472 0.78502 0.0
H815 H 0.22098 0.68042 0.78555 0.0
H816 H 0.31028 0.68396 0.78207 0.0
C817 C 0.28716 0.80862 0.78433 0.0
C818 C 0.72286 0.23845 0.2858 0.0
C819 C 0.76908 0.21393 0.28773 0.0
H820 H 0.68362 0.30705 0.28747 0.0
C821 C 0.8126 0.24305 0.28684 0.0
H822 H 0.68832 0.21776 0.28478 0.0
C823 C 0.80988 0.2949 0.28582 0.0
C824 C 0.76362 0.31946 0.2873 0.0
H825 H 0.84907 0.22625 0.28822 0.0
H826 H 0.84445 0.31554 0.28482 0.0
C827 C 0.72013 0.2903 0.28638 0.0
C828 C 0.28967 0.72068 0.1969 0.0
C829 C 0.31843 0.76443 0.19562 0.0
H830 H 0.2174 0.68828 0.19867 0.0
C831 C 0.29357 0.81052 0.19686 0.0
H832 H 0.30677 0.6843 0.19602 0.0
C833 C 0.24171 0.81282 0.19595 0.0
C834 C 0.21295 0.76902 0.19526 0.0
H835 H 0.31404 0.84523 0.19743 0.0
H836 H 0.22463 0.84915 0.19431 0.0
C837 C 0.23782 0.72299 0.19749 0.0
C838 C 0.71722 0.24051 0.69493 0.0
C839 C 0.76099 0.21193 0.6944 0.0
H840 H 0.68471 0.31259 0.69636 0.0
C841 C 0.80697 0.23709 0.69635 0.0
H842 H 0.6809 0.22325 0.6935 0.0
C843 C 0.80925 0.28898 0.69545 0.0
C844 C 0.76551 0.31755 0.69416 0.0
H845 H 0.84169 0.21689 0.69765 0.0
H846 H 0.84562 0.30621 0.69441 0.0
C847 C 0.71947 0.2924 0.69563 0.0
C848 C 0.39271 0.14058 0.27691 0.0
C849 C 0.3639 0.105 0.25809 0.0
H850 H 0.44587 0.20002 0.27307 0.0
C851 C 0.36772 0.10251 0.21974 0.0
H852 H 0.3908 0.14349 0.30648 0.0
C853 C 0.39949 0.1347 0.20067 0.0
C854 C 0.4281 0.17049 0.2194 0.0
H855 H 0.34632 0.0755 0.20436 0.0
H856 H 0.40142 0.13156 0.1711 0.0
C857 C 0.4243 0.17306 0.25777 0.0
C858 C 0.4248 0.36223 0.71826 0.0
C859 C 0.42633 0.3599 0.7567 0.0
H860 H 0.39243 0.39593 0.67092 0.0
C861 C 0.39471 0.3913 0.77703 0.0
H862 H 0.44866 0.33874 0.70173 0.0
C863 C 0.3624 0.42421 0.75936 0.0
C864 C 0.36087 0.42653 0.72092 0.0
H865 H 0.39495 0.39066 0.8067 0.0
H866 H 0.33872 0.44789 0.77589 0.0
C867 C 0.39247 0.39511 0.7006 0.0
C868 C 0.13548 0.39755 0.27921 0.0
C869 C 0.16696 0.42967 0.25927 0.0
H870 H 0.07973 0.34053 0.2774 0.0
C871 C 0.16555 0.42806 0.2208 0.0
H872 H 0.13543 0.39782 0.30889 0.0
C873 C 0.1335 0.39513 0.20274 0.0
C874 C 0.10208 0.36296 0.2227 0.0
H875 H 0.18912 0.45229 0.20456 0.0
H876 H 0.13337 0.39503 0.17306 0.0
C877 C 0.10347 0.3646 0.26115 0.0
C878 C 0.10312 0.16646 0.72143 0.0
C879 C 0.10155 0.16708 0.75991 0.0
H880 H 0.13551 0.13485 0.67316 0.0
C881 C 0.1331 0.13474 0.77934 0.0
H882 H 0.07929 0.19069 0.70558 0.0
C883 C 0.16548 0.1027 0.76074 0.0
C884 C 0.16708 0.10211 0.72226 0.0
H885 H 0.13285 0.13407 0.80901 0.0
H886 H 0.18916 0.07831 0.77659 0.0
C887 C 0.13543 0.13435 0.70283 0.0
C888 C 0.63471 0.89419 0.70175 0.0
C889 C 0.66613 0.9261 0.72177 0.0
H890 H 0.57868 0.83741 0.70344 0.0
C891 C 0.66437 0.92437 0.76023 0.0
H892 H 0.63493 0.89456 0.67207 0.0
C893 C 0.63202 0.89154 0.77821 0.0
C894 C 0.60063 0.85958 0.75819 0.0
H895 H 0.68789 0.94846 0.77653 0.0
H896 H 0.63162 0.89135 0.80789 0.0
C897 C 0.60238 0.86133 0.71973 0.0
C898 C 0.6047 0.66855 0.25928 0.0
C899 C 0.60196 0.6676 0.22084 0.0
H900 H 0.63795 0.63826 0.30755 0.0
C901 C 0.63227 0.63386 0.2015 0.0
H902 H 0.58183 0.6939 0.27505 0.0
C903 C 0.66465 0.60203 0.22013 0.0
C904 C 0.66741 0.60299 0.25856 0.0
H905 H 0.63112 0.632 0.17187 0.0
H906 H 0.68737 0.57655 0.20434 0.0
C907 C 0.63694 0.63657 0.27791 0.0
C908 C 0.86148 0.60255 0.76074 0.0
C909 C 0.85996 0.60194 0.72227 0.0
H910 H 0.89405 0.63405 0.80889 0.0
C911 C 0.89165 0.6343 0.70272 0.0
H912 H 0.83776 0.57807 0.77668 0.0
C913 C 0.92395 0.66653 0.72119 0.0
C914 C 0.92544 0.66716 0.75967 0.0
H915 H 0.89163 0.63479 0.67304 0.0
H916 H 0.94782 0.69085 0.70525 0.0
C917 C 0.89385 0.63471 0.77921 0.0
C918 C 0.8976 0.895 0.20274 0.0
C919 C 0.92903 0.86286 0.22244 0.0
H920 H 0.84202 0.95193 0.205 0.0
C921 C 0.92774 0.86433 0.26091 0.0
H922 H 0.89766 0.89502 0.17306 0.0
C923 C 0.89578 0.89708 0.27923 0.0
C924 C 0.86428 0.92915 0.25952 0.0
H925 H 0.95149 0.84026 0.27697 0.0
H926 H 0.89588 0.89722 0.30891 0.0
C927 C 0.86562 0.92771 0.22105 0.0
loop_
_geom_bond_atom_site_label_1
_geom_bond_atom_site_label_2
_geom_bond_distance
_geom_bond_site_symmetry_2
_ccdc_geom_bond_type
Co0 N4 2.148 . S
Co0 N10 2.128 . S
Co0 N20 2.194 . S
Co0 O25 2.351 . S
Co0 O26 2.155 . S
Co0 O27 2.096 . S
C1 N4 1.301 . S
C1 N5 1.328 . S
C1 H6 0.930 . S
C2 C3 1.333 . S
C2 N4 1.317 . S
C2 H7 0.930 . S
C3 C2 1.333 . S
C3 N5 1.350 . S
C3 H29 0.931 . S
N4 Co0 2.148 . S
N4 C1 1.301 . S
N4 C2 1.317 . S
N5 C1 1.328 . S
N5 C3 1.350 . S
H6 C1 0.930 . S
H7 C2 0.930 . S
C8 O9 1.224 . S
C8 O27 1.247 . S
O9 C8 1.224 . S
N10 Co0 2.128 . S
N10 C11 1.355 . S
N10 C13 1.311 . S
C11 N10 1.355 . S
C11 C12 1.363 . S
C11 H23 0.929 . S
C12 C11 1.363 . S
C12 N14 1.375 . S
C12 H30 0.931 . S
C13 N10 1.311 . S
C13 N14 1.347 . S
C13 H24 0.929 . S
N14 C12 1.375 . S
N14 C13 1.347 . S
C15 C18 1.365 . S
C15 N20 1.328 . S
C15 H21 0.929 . S
C16 C17 1.362 . S
C16 C19 1.378 . S
C16 H31 0.929 . S
C17 C16 1.362 . S
C17 C18 1.366 . S
C18 C15 1.365 . S
C18 C17 1.366 . S
C18 H32 0.930 . S
C19 C16 1.378 . S
C19 N20 1.315 . S
C19 H22 0.930 . S
N20 Co0 2.194 . S
N20 C15 1.328 . S
N20 C19 1.315 . S
H21 C15 0.929 . S
H22 C19 0.930 . S
H23 C11 0.929 . S
H24 C13 0.929 . S
O25 Co0 2.351 . S
O25 C28 1.244 . S
O26 Co0 2.155 . S
O26 C28 1.240 . S
O27 Co0 2.096 . S
O27 C8 1.247 . S
C28 O25 1.244 . S
C28 O26 1.240 . S
H29 C3 0.931 . S
H30 C12 0.931 . S
H31 C16 0.929 . S
H32 C18 0.930 . S
Co33 N37 2.148 . S
Co33 N43 2.128 . S
Co33 N53 2.194 . S
Co33 O58 2.351 . S
Co33 O59 2.155 . S
Co33 O60 2.096 . S
C34 N37 1.301 . S
C34 N38 1.328 . S
C34 H39 0.930 . S
C35 C36 1.333 . S
C35 N37 1.317 . S
C35 H40 0.930 . S
C36 C35 1.333 . S
C36 N38 1.350 . S
C36 H62 0.931 . S
N37 Co33 2.148 . S
N37 C34 1.301 . S
N37 C35 1.317 . S
N38 C34 1.328 . S
N38 C36 1.350 . S
H39 C34 0.930 . S
H40 C35 0.930 . S
C41 O42 1.224 . S
C41 O60 1.247 . S
O42 C41 1.224 . S
N43 Co33 2.128 . S
N43 C44 1.355 . S
N43 C46 1.311 . S
C44 N43 1.355 . S
C44 C45 1.363 . S
C44 H56 0.929 . S
C45 C44 1.363 . S
C45 N47 1.375 . S
C45 H63 0.931 . S
C46 N43 1.311 . S
C46 N47 1.347 . S
C46 H57 0.929 . S
N47 C45 1.375 . S
N47 C46 1.347 . S
C48 C51 1.365 . S
C48 N53 1.328 . S
C48 H54 0.929 . S
C49 C50 1.362 . S
C49 C52 1.378 . S
C49 H64 0.929 . S
C50 C49 1.362 . S
C50 C51 1.366 . S
C51 C48 1.365 . S
C51 C50 1.366 . S
C51 H65 0.930 . S
C52 C49 1.378 . S
C52 N53 1.315 . S
C52 H55 0.930 . S
N53 Co33 2.194 . S
N53 C48 1.328 . S
N53 C52 1.315 . S
H54 C48 0.929 . S
H55 C52 0.930 . S
H56 C44 0.929 . S
H57 C46 0.929 . S
O58 Co33 2.351 . S
O58 C61 1.244 . S
O59 Co33 2.155 . S
O59 C61 1.240 . S
O60 Co33 2.096 . S
O60 C41 1.247 . S
C61 O58 1.244 . S
C61 O59 1.240 . S
H62 C36 0.931 . S
H63 C45 0.931 . S
H64 C49 0.929 . S
H65 C51 0.930 . S
Co66 N70 2.148 . S
Co66 N76 2.128 . S
Co66 N86 2.194 1_455 S
Co66 O91 2.351 1_455 S
Co66 O92 2.155 . S
Co66 O93 2.096 . S
C67 N70 1.301 . S
C67 N71 1.328 . S
C67 H72 0.930 1_455 S
C68 C69 1.333 . S
C68 N70 1.317 . S
C68 H73 0.930 . S
C69 C68 1.333 . S
C69 N71 1.350 . S
C69 H95 0.931 . S
N70 Co66 2.148 . S
N70 C67 1.301 . S
N70 C68 1.317 . S
N71 C67 1.328 . S
N71 C69 1.350 . S
H72 C67 0.930 1_655 S
H73 C68 0.930 . S
C74 O75 1.224 . S
C74 O93 1.247 . S
O75 C74 1.224 . S
N76 Co66 2.128 . S
N76 C77 1.355 1_455 S
N76 C79 1.311 . S
C77 N76 1.355 1_655 S
C77 C78 1.363 . S
C77 H89 0.929 . S
C78 C77 1.363 . S
C78 N80 1.372 1_655 S
C78 H96 0.931 . S
C79 N76 1.311 . S
C79 N80 1.349 . S
C79 H90 0.929 . S
N80 C78 1.372 1_455 S
N80 C79 1.349 . S
C81 C84 1.365 . S
C81 N86 1.328 . S
C81 H87 0.929 . S
C82 C83 1.362 . S
C82 C85 1.378 . S
C82 H97 0.929 . S
C83 C82 1.362 . S
C83 C84 1.366 . S
C84 C81 1.365 . S
C84 C83 1.366 . S
C84 H98 0.930 . S
C85 C82 1.378 . S
C85 N86 1.315 . S
C85 H88 0.930 . S
N86 Co66 2.194 1_655 S
N86 C81 1.328 . S
N86 C85 1.315 . S
H87 C81 0.929 . S
H88 C85 0.930 . S
H89 C77 0.929 . S
H90 C79 0.929 . S
O91 Co66 2.351 1_655 S
O91 C94 1.244 1_655 S
O92 Co66 2.155 . S
O92 C94 1.240 . S
O93 Co66 2.096 . S
O93 C74 1.247 . S
C94 O91 1.244 1_455 S
C94 O92 1.240 . S
H95 C69 0.931 . S
H96 C78 0.931 . S
H97 C82 0.929 . S
H98 C84 0.930 . S
Co99 N103 2.148 . S
Co99 N109 2.128 . S
Co99 N119 2.194 1_545 S
Co99 O124 2.351 1_545 S
Co99 O125 2.155 . S
Co99 O126 2.096 . S
C100 N103 1.301 . S
C100 N104 1.328 . S
C100 H105 0.930 1_545 S
C101 C102 1.333 . S
C101 N103 1.317 . S
C101 H106 0.930 . S
C102 C101 1.333 . S
C102 N104 1.350 . S
C102 H128 0.931 . S
N103 Co99 2.148 . S
N103 C100 1.301 . S
N103 C101 1.317 . S
N104 C100 1.328 . S
N104 C102 1.350 . S
H105 C100 0.930 1_565 S
H106 C101 0.930 . S
C107 O108 1.224 . S
C107 O126 1.247 . S
O108 C107 1.224 . S
N109 Co99 2.128 . S
N109 C110 1.355 1_545 S
N109 C112 1.311 . S
C110 N109 1.355 1_565 S
C110 C111 1.363 . S
C110 H122 0.929 . S
C111 C110 1.363 . S
C111 N113 1.375 1_565 S
C111 H129 0.931 . S
C112 N109 1.311 . S
C112 N113 1.347 . S
C112 H123 0.929 . S
N113 C111 1.375 1_545 S
N113 C112 1.347 . S
C114 C117 1.365 . S
C114 N119 1.328 . S
C114 H120 0.929 . S
C115 C116 1.362 . S
C115 C118 1.378 . S
C115 H130 0.929 . S
C116 C115 1.362 . S
C116 C117 1.366 . S
C117 C114 1.365 . S
C117 C116 1.366 . S
C117 H131 0.930 . S
C118 C115 1.378 . S
C118 N119 1.315 . S
C118 H121 0.930 . S
N119 Co99 2.194 1_565 S
N119 C114 1.328 . S
N119 C118 1.315 . S
H120 C114 0.929 . S
H121 C118 0.930 . S
H122 C110 0.929 . S
H123 C112 0.929 . S
O124 Co99 2.351 1_565 S
O124 C127 1.244 1_565 S
O125 Co99 2.155 . S
O125 C127 1.240 . S
O126 Co99 2.096 . S
O126 C107 1.247 . S
C127 O124 1.244 1_545 S
C127 O125 1.240 . S
H128 C102 0.931 . S
H129 C111 0.931 . S
H130 C115 0.929 . S
H131 C117 0.930 . S
Co132 N136 2.148 . S
Co132 N142 2.128 . S
Co132 N152 2.194 . S
Co132 O157 2.351 . S
Co132 O158 2.155 . S
Co132 O159 2.096 . S
C133 N136 1.301 . S
C133 N137 1.328 . S
C133 H138 0.930 . S
C134 C135 1.333 . S
C134 N136 1.317 . S
C134 H139 0.930 . S
C135 C134 1.333 . S
C135 N137 1.350 . S
C135 H161 0.931 . S
N136 Co132 2.148 . S
N136 C133 1.301 . S
N136 C134 1.317 . S
N137 C133 1.328 . S
N137 C135 1.350 . S
H138 C133 0.930 . S
H139 C134 0.930 . S
C140 O141 1.224 . S
C140 O159 1.247 . S
O141 C140 1.224 . S
N142 Co132 2.128 . S
N142 C143 1.355 . S
N142 C145 1.311 . S
C143 N142 1.355 . S
C143 C144 1.363 . S
C143 H155 0.929 . S
C144 C143 1.363 . S
C144 N146 1.375 . S
C144 H162 0.931 . S
C145 N142 1.311 . S
C145 N146 1.347 . S
C145 H156 0.929 . S
N146 C144 1.375 . S
N146 C145 1.347 . S
C147 C150 1.365 . S
C147 N152 1.328 . S
C147 H153 0.929 . S
C148 C149 1.362 . S
C148 C151 1.378 . S
C148 H163 0.929 . S
C149 C148 1.362 . S
C149 C150 1.366 . S
C150 C147 1.365 . S
C150 C149 1.366 . S
C150 H164 0.930 . S
C151 C148 1.378 . S
C151 N152 1.315 . S
C151 H154 0.930 . S
N152 Co132 2.194 . S
N152 C147 1.328 . S
N152 C151 1.315 . S
H153 C147 0.929 . S
H154 C151 0.930 . S
H155 C143 0.929 . S
H156 C145 0.929 . S
O157 Co132 2.351 . S
O157 C160 1.244 . S
O158 Co132 2.155 . S
O158 C160 1.240 . S
O159 Co132 2.096 . S
O159 C140 1.247 . S
C160 O157 1.244 . S
C160 O158 1.240 . S
H161 C135 0.931 . S
H162 C144 0.931 . S
H163 C148 0.929 . S
H164 C150 0.930 . S
Co165 N169 2.148 . S
Co165 N175 2.128 . S
Co165 N185 2.194 . S
Co165 O190 2.351 . S
Co165 O191 2.155 . S
Co165 O192 2.096 . S
C166 N169 1.301 . S
C166 N170 1.328 . S
C166 H171 0.930 . S
C167 C168 1.333 . S
C167 N169 1.317 . S
C167 H172 0.930 . S
C168 C167 1.333 . S
C168 N170 1.350 . S
C168 H194 0.931 . S
N169 Co165 2.148 . S
N169 C166 1.301 . S
N169 C167 1.317 . S
N170 C166 1.328 . S
N170 C168 1.350 . S
H171 C166 0.930 . S
H172 C167 0.930 . S
C173 O174 1.224 . S
C173 O192 1.247 . S
O174 C173 1.224 . S
N175 Co165 2.128 . S
N175 C176 1.355 . S
N175 C178 1.311 . S
C176 N175 1.355 . S
C176 C177 1.363 . S
C176 H188 0.929 . S
C177 C176 1.363 . S
C177 N179 1.375 . S
C177 H195 0.931 . S
C178 N175 1.311 . S
C178 N179 1.347 . S
C178 H189 0.929 . S
N179 C177 1.375 . S
N179 C178 1.347 . S
C180 C183 1.365 . S
C180 N185 1.328 . S
C180 H186 0.929 . S
C181 C182 1.362 . S
C181 C184 1.378 . S
C181 H196 0.929 . S
C182 C181 1.362 . S
C182 C183 1.366 . S
C183 C180 1.365 . S
C183 C182 1.366 . S
C183 H197 0.930 . S
C184 C181 1.378 . S
C184 N185 1.315 . S
C184 H187 0.930 . S
N185 Co165 2.194 . S
N185 C180 1.328 . S
N185 C184 1.315 . S
H186 C180 0.929 . S
H187 C184 0.930 . S
H188 C176 0.929 . S
H189 C178 0.929 . S
O190 Co165 2.351 . S
O190 C193 1.244 . S
O191 Co165 2.155 . S
O191 C193 1.240 . S
O192 Co165 2.096 . S
O192 C173 1.247 . S
C193 O190 1.244 . S
C193 O191 1.240 . S
H194 C168 0.931 . S
H195 C177 0.931 . S
H196 C181 0.929 . S
H197 C183 0.930 . S
Co198 N202 2.148 . S
Co198 N208 2.128 . S
Co198 N218 2.194 1_455 S
Co198 O223 2.351 1_455 S
Co198 O224 2.155 . S
Co198 O225 2.096 . S
C199 N202 1.301 . S
C199 N203 1.328 . S
C199 H204 0.930 1_455 S
C200 C201 1.333 . S
C200 N202 1.317 . S
C200 H205 0.930 . S
C201 C200 1.333 . S
C201 N203 1.350 . S
C201 H227 0.931 . S
N202 Co198 2.148 . S
N202 C199 1.301 . S
N202 C200 1.317 . S
N203 C199 1.328 . S
N203 C201 1.350 . S
H204 C199 0.930 1_655 S
H205 C200 0.930 . S
C206 O207 1.224 . S
C206 O225 1.247 . S
O207 C206 1.224 . S
N208 Co198 2.128 . S
N208 C209 1.355 1_455 S
N208 C211 1.311 . S
C209 N208 1.355 1_655 S
C209 C210 1.363 . S
C209 H221 0.929 . S
C210 C209 1.363 . S
C210 N212 1.375 1_655 S
C210 H228 0.931 . S
C211 N208 1.311 . S
C211 N212 1.347 . S
C211 H222 0.929 . S
N212 C210 1.375 1_455 S
N212 C211 1.347 . S
C213 C216 1.365 . S
C213 N218 1.328 . S
C213 H219 0.929 . S
C214 C215 1.362 . S
C214 C217 1.378 . S
C214 H229 0.929 . S
C215 C214 1.362 . S
C215 C216 1.366 . S
C216 C213 1.365 . S
C216 C215 1.366 . S
C216 H230 0.930 . S
C217 C214 1.378 . S
C217 N218 1.315 . S
C217 H220 0.930 . S
N218 Co198 2.194 1_655 S
N218 C213 1.328 . S
N218 C217 1.315 . S
H219 C213 0.929 . S
H220 C217 0.930 . S
H221 C209 0.929 . S
H222 C211 0.929 . S
O223 Co198 2.351 1_655 S
O223 C226 1.244 1_655 S
O224 Co198 2.155 . S
O224 C226 1.240 . S
O225 Co198 2.096 . S
O225 C206 1.247 . S
C226 O223 1.244 1_455 S
C226 O224 1.240 . S
H227 C201 0.931 . S
H228 C210 0.931 . S
H229 C214 0.929 . S
H230 C216 0.930 . S
Co231 N235 2.148 . S
Co231 N241 2.128 . S
Co231 N251 2.194 1_545 S
Co231 O256 2.351 1_545 S
Co231 O257 2.155 . S
Co231 O258 2.096 . S
C232 N235 1.301 . S
C232 N236 1.328 . S
C232 H237 0.930 1_545 S
C233 C234 1.333 . S
C233 N235 1.317 . S
C233 H238 0.930 . S
C234 C233 1.333 . S
C234 N236 1.350 . S
C234 H260 0.931 . S
N235 Co231 2.148 . S
N235 C232 1.301 . S
N235 C233 1.317 . S
N236 C232 1.328 . S
N236 C234 1.350 . S
H237 C232 0.930 1_565 S
H238 C233 0.930 . S
C239 O240 1.224 . S
C239 O258 1.247 . S
O240 C239 1.224 . S
N241 Co231 2.128 . S
N241 C242 1.355 1_545 S
N241 C244 1.311 . S
C242 N241 1.355 1_565 S
C242 C243 1.363 . S
C242 H254 0.929 . S
C243 C242 1.363 . S
C243 N245 1.372 1_565 S
C243 H261 0.931 . S
C244 N241 1.311 . S
C244 N245 1.349 . S
C244 H255 0.929 . S
N245 C243 1.372 1_545 S
N245 C244 1.349 . S
C246 C249 1.365 . S
C246 N251 1.328 . S
C246 H252 0.929 . S
C247 C248 1.362 . S
C247 C250 1.378 . S
C247 H262 0.929 . S
C248 C247 1.362 . S
C248 C249 1.366 . S
C249 C246 1.365 . S
C249 C248 1.366 . S
C249 H263 0.930 . S
C250 C247 1.378 . S
C250 N251 1.315 . S
C250 H253 0.930 . S
N251 Co231 2.194 1_565 S
N251 C246 1.328 . S
N251 C250 1.315 . S
H252 C246 0.929 . S
H253 C250 0.930 . S
H254 C242 0.929 . S
H255 C244 0.929 . S
O256 Co231 2.351 1_565 S
O256 C259 1.244 1_565 S
O257 Co231 2.155 . S
O257 C259 1.240 . S
O258 Co231 2.096 . S
O258 C239 1.247 . S
C259 O256 1.244 1_545 S
C259 O257 1.240 . S
H260 C234 0.931 . S
H261 C243 0.931 . S
H262 C247 0.929 . S
H263 C249 0.930 . S
Co264 N268 2.148 . S
Co264 N274 2.128 . S
Co264 N284 2.194 . S
Co264 O289 2.351 . S
Co264 O290 2.155 . S
Co264 O291 2.096 . S
C265 N268 1.301 . S
C265 N269 1.328 . S
C265 H270 0.930 . S
C266 C267 1.333 . S
C266 N268 1.317 . S
C266 H271 0.930 . S
C267 C266 1.333 . S
C267 N269 1.350 . S
C267 H293 0.931 . S
N268 Co264 2.148 . S
N268 C265 1.301 . S
N268 C266 1.317 . S
N269 C265 1.328 . S
N269 C267 1.350 . S
H270 C265 0.930 . S
H271 C266 0.930 . S
C272 O273 1.224 . S
C272 O291 1.247 . S
O273 C272 1.224 . S
N274 Co264 2.128 . S
N274 C275 1.355 . S
N274 C277 1.311 . S
C275 N274 1.355 . S
C275 C276 1.363 . S
C275 H287 0.929 . S
C276 C275 1.363 . S
C276 N278 1.375 . S
C276 H294 0.931 . S
C277 N274 1.311 . S
C277 N278 1.347 . S
C277 H288 0.929 . S
N278 C276 1.375 . S
N278 C277 1.347 . S
C279 C282 1.365 . S
C279 N284 1.328 . S
C279 H285 0.929 . S
C280 C281 1.362 . S
C280 C283 1.378 . S
C280 H295 0.929 . S
C281 C280 1.362 . S
C281 C282 1.366 . S
C282 C279 1.365 . S
C282 C281 1.366 . S
C282 H296 0.930 . S
C283 C280 1.378 . S
C283 N284 1.315 . S
C283 H286 0.930 . S
N284 Co264 2.194 . S
N284 C279 1.328 . S
N284 C283 1.315 . S
H285 C279 0.929 . S
H286 C283 0.930 . S
H287 C275 0.929 . S
H288 C277 0.929 . S
O289 Co264 2.351 . S
O289 C292 1.244 . S
O290 Co264 2.155 . S
O290 C292 1.240 . S
O291 Co264 2.096 . S
O291 C272 1.247 . S
C292 O289 1.244 . S
C292 O290 1.240 . S
H293 C267 0.931 . S
H294 C276 0.931 . S
H295 C280 0.929 . S
H296 C282 0.930 . S
Co297 N301 2.148 . S
Co297 N307 2.128 . S
Co297 N317 2.194 . S
Co297 O322 2.351 . S
Co297 O323 2.155 . S
Co297 O324 2.096 . S
C298 N301 1.301 . S
C298 N302 1.328 . S
C298 H303 0.930 . S
C299 C300 1.333 . S
C299 N301 1.317 . S
C299 H304 0.930 . S
C300 C299 1.333 . S
C300 N302 1.350 . S
C300 H326 0.931 . S
N301 Co297 2.148 . S
N301 C298 1.301 . S
N301 C299 1.317 . S
N302 C298 1.328 . S
N302 C300 1.350 . S
H303 C298 0.930 . S
H304 C299 0.930 . S
C305 O306 1.224 . S
C305 O324 1.247 . S
O306 C305 1.224 . S
N307 Co297 2.128 . S
N307 C308 1.355 . S
N307 C310 1.311 . S
C308 N307 1.355 . S
C308 C309 1.363 . S
C308 H320 0.929 . S
C309 C308 1.363 . S
C309 N311 1.375 . S
C309 H327 0.931 . S
C310 N307 1.311 . S
C310 N311 1.347 . S
C310 H321 0.929 . S
N311 C309 1.375 . S
N311 C310 1.347 . S
C312 C315 1.365 . S
C312 N317 1.328 . S
C312 H318 0.929 . S
C313 C314 1.362 . S
C313 C316 1.378 . S
C313 H328 0.929 . S
C314 C313 1.362 . S
C314 C315 1.366 . S
C315 C312 1.365 . S
C315 C314 1.366 . S
C315 H329 0.930 . S
C316 C313 1.378 . S
C316 N317 1.315 . S
C316 H319 0.930 . S
N317 Co297 2.194 . S
N317 C312 1.328 . S
N317 C316 1.315 . S
H318 C312 0.929 . S
H319 C316 0.930 . S
H320 C308 0.929 . S
H321 C310 0.929 . S
O322 Co297 2.351 . S
O322 C325 1.244 . S
O323 Co297 2.155 . S
O323 C325 1.240 . S
O324 Co297 2.096 . S
O324 C305 1.247 . S
C325 O322 1.244 . S
C325 O323 1.240 . S
H326 C300 0.931 . S
H327 C309 0.931 . S
H328 C313 0.929 . S
H329 C315 0.930 . S
Co330 N334 2.148 . S
Co330 N340 2.128 . S
Co330 N350 2.194 1_655 S
Co330 O355 2.351 1_655 S
Co330 O356 2.155 . S
Co330 O357 2.096 . S
C331 N334 1.301 . S
C331 N335 1.328 . S
C331 H336 0.930 1_655 S
C332 C333 1.333 . S
C332 N334 1.317 . S
C332 H337 0.930 . S
C333 C332 1.333 . S
C333 N335 1.350 . S
C333 H359 0.931 . S
N334 Co330 2.148 . S
N334 C331 1.301 . S
N334 C332 1.317 . S
N335 C331 1.328 . S
N335 C333 1.350 . S
H336 C331 0.930 1_455 S
H337 C332 0.930 . S
C338 O339 1.224 . S
C338 O357 1.247 . S
O339 C338 1.224 . S
N340 Co330 2.128 . S
N340 C341 1.355 1_655 S
N340 C343 1.311 . S
C341 N340 1.355 1_455 S
C341 C342 1.363 . S
C341 H353 0.929 . S
C342 C341 1.363 . S
C342 N344 1.372 1_455 S
C342 H360 0.931 . S
C343 N340 1.311 . S
C343 N344 1.349 . S
C343 H354 0.929 . S
N344 C342 1.372 1_655 S
N344 C343 1.349 . S
C345 C348 1.365 . S
C345 N350 1.328 . S
C345 H351 0.929 . S
C346 C347 1.362 . S
C346 C349 1.378 . S
C346 H361 0.929 . S
C347 C346 1.362 . S
C347 C348 1.366 . S
C348 C345 1.365 . S
C348 C347 1.366 . S
C348 H362 0.930 . S
C349 C346 1.378 . S
C349 N350 1.315 . S
C349 H352 0.930 . S
N350 Co330 2.194 1_455 S
N350 C345 1.328 . S
N350 C349 1.315 . S
H351 C345 0.929 . S
H352 C349 0.930 . S
H353 C341 0.929 . S
H354 C343 0.929 . S
O355 Co330 2.351 1_455 S
O355 C358 1.244 1_455 S
O356 Co330 2.155 . S
O356 C358 1.240 . S
O357 Co330 2.096 . S
O357 C338 1.247 . S
C358 O355 1.244 1_655 S
C358 O356 1.240 . S
H359 C333 0.931 . S
H360 C342 0.931 . S
H361 C346 0.929 . S
H362 C348 0.930 . S
Co363 N367 2.148 . S
Co363 N373 2.128 . S
Co363 N383 2.194 1_565 S
Co363 O388 2.351 1_565 S
Co363 O389 2.155 . S
Co363 O390 2.096 . S
C364 N367 1.301 . S
C364 N368 1.328 . S
C364 H369 0.930 1_565 S
C365 C366 1.333 . S
C365 N367 1.317 . S
C365 H370 0.930 . S
C366 C365 1.333 . S
C366 N368 1.350 . S
C366 H392 0.931 . S
N367 Co363 2.148 . S
N367 C364 1.301 . S
N367 C365 1.317 . S
N368 C364 1.328 . S
N368 C366 1.350 . S
H369 C364 0.930 1_545 S
H370 C365 0.930 . S
C371 O372 1.224 . S
C371 O390 1.247 . S
O372 C371 1.224 . S
N373 Co363 2.128 . S
N373 C374 1.355 1_565 S
N373 C376 1.311 . S
C374 N373 1.355 1_545 S
C374 C375 1.363 . S
C374 H386 0.929 . S
C375 C374 1.363 . S
C375 N377 1.375 1_545 S
C375 H393 0.931 . S
C376 N373 1.311 . S
C376 N377 1.347 . S
C376 H387 0.929 . S
N377 C375 1.375 1_565 S
N377 C376 1.347 . S
C378 C381 1.365 . S
C378 N383 1.328 . S
C378 H384 0.929 . S
C379 C380 1.362 . S
C379 C382 1.378 . S
C379 H394 0.929 . S
C380 C379 1.362 . S
C380 C381 1.366 . S
C381 C378 1.365 . S
C381 C380 1.366 . S
C381 H395 0.930 . S
C382 C379 1.378 . S
C382 N383 1.315 . S
C382 H385 0.930 . S
N383 Co363 2.194 1_545 S
N383 C378 1.328 . S
N383 C382 1.315 . S
H384 C378 0.929 . S
H385 C382 0.930 . S
H386 C374 0.929 . S
H387 C376 0.929 . S
O388 Co363 2.351 1_545 S
O388 C391 1.244 1_545 S
O389 Co363 2.155 . S
O389 C391 1.240 . S
O390 Co363 2.096 . S
O390 C371 1.247 . S
C391 O388 1.244 1_565 S
C391 O389 1.240 . S
H392 C366 0.931 . S
H393 C375 0.931 . S
H394 C379 0.929 . S
H395 C381 0.930 . S
Co396 N400 2.148 . S
Co396 N406 2.128 . S
Co396 N416 2.194 . S
Co396 O421 2.351 . S
Co396 O422 2.155 . S
Co396 O423 2.096 . S
C397 N400 1.301 . S
C397 N401 1.328 . S
C397 H402 0.930 . S
C398 C399 1.333 . S
C398 N400 1.317 . S
C398 H403 0.930 . S
C399 C398 1.333 . S
C399 N401 1.350 . S
C399 H425 0.931 . S
N400 Co396 2.148 . S
N400 C397 1.301 . S
N400 C398 1.317 . S
N401 C397 1.328 . S
N401 C399 1.350 . S
H402 C397 0.930 . S
H403 C398 0.930 . S
C404 O405 1.224 . S
C404 O423 1.247 . S
O405 C404 1.224 . S
N406 Co396 2.128 . S
N406 C407 1.355 . S
N406 C409 1.311 . S
C407 N406 1.355 . S
C407 C408 1.363 . S
C407 H419 0.929 . S
C408 C407 1.363 . S
C408 N410 1.375 . S
C408 H426 0.931 . S
C409 N406 1.311 . S
C409 N410 1.347 . S
C409 H420 0.929 . S
N410 C408 1.375 . S
N410 C409 1.347 . S
C411 C414 1.365 . S
C411 N416 1.328 . S
C411 H417 0.929 . S
C412 C413 1.362 . S
C412 C415 1.378 . S
C412 H427 0.929 . S
C413 C412 1.362 . S
C413 C414 1.366 . S
C414 C411 1.365 . S
C414 C413 1.366 . S
C414 H428 0.930 . S
C415 C412 1.378 . S
C415 N416 1.315 . S
C415 H418 0.930 . S
N416 Co396 2.194 . S
N416 C411 1.328 . S
N416 C415 1.315 . S
H417 C411 0.929 . S
H418 C415 0.930 . S
H419 C407 0.929 . S
H420 C409 0.929 . S
O421 Co396 2.351 . S
O421 C424 1.244 . S
O422 Co396 2.155 . S
O422 C424 1.240 . S
O423 Co396 2.096 . S
O423 C404 1.247 . S
C424 O421 1.244 . S
C424 O422 1.240 . S
H425 C399 0.931 . S
H426 C408 0.931 . S
H427 C412 0.929 . S
H428 C414 0.930 . S
Co429 N433 2.148 . S
Co429 N439 2.128 . S
Co429 N449 2.194 . S
Co429 O454 2.351 . S
Co429 O455 2.155 . S
Co429 O456 2.096 . S
C430 N433 1.301 . S
C430 N434 1.328 . S
C430 H435 0.930 . S
C431 C432 1.333 . S
C431 N433 1.317 . S
C431 H436 0.930 . S
C432 C431 1.333 . S
C432 N434 1.350 . S
C432 H458 0.931 . S
N433 Co429 2.148 . S
N433 C430 1.301 . S
N433 C431 1.317 . S
N434 C430 1.328 . S
N434 C432 1.350 . S
H435 C430 0.930 . S
H436 C431 0.930 . S
C437 O438 1.224 . S
C437 O456 1.247 . S
O438 C437 1.224 . S
N439 Co429 2.128 . S
N439 C440 1.355 . S
N439 C442 1.311 . S
C440 N439 1.355 . S
C440 C441 1.363 . S
C440 H452 0.929 . S
C441 C440 1.363 . S
C441 N443 1.375 . S
C441 H459 0.931 . S
C442 N439 1.311 . S
C442 N443 1.347 . S
C442 H453 0.929 . S
N443 C441 1.375 . S
N443 C442 1.347 . S
C444 C447 1.365 . S
C444 N449 1.328 . S
C444 H450 0.929 . S
C445 C446 1.362 . S
C445 C448 1.378 . S
C445 H460 0.929 . S
C446 C445 1.362 . S
C446 C447 1.366 . S
C447 C444 1.365 . S
C447 C446 1.366 . S
C447 H461 0.930 . S
C448 C445 1.378 . S
C448 N449 1.315 . S
C448 H451 0.930 . S
N449 Co429 2.194 . S
N449 C444 1.328 . S
N449 C448 1.315 . S
H450 C444 0.929 . S
H451 C448 0.930 . S
H452 C440 0.929 . S
H453 C442 0.929 . S
O454 Co429 2.351 . S
O454 C457 1.244 . S
O455 Co429 2.155 . S
O455 C457 1.240 . S
O456 Co429 2.096 . S
O456 C437 1.247 . S
C457 O454 1.244 . S
C457 O455 1.240 . S
H458 C432 0.931 . S
H459 C441 0.931 . S
H460 C445 0.929 . S
H461 C447 0.930 . S
Co462 N466 2.148 . S
Co462 N472 2.128 . S
Co462 N482 2.194 1_655 S
Co462 O487 2.351 1_655 S
Co462 O488 2.155 . S
Co462 O489 2.096 . S
C463 N466 1.301 . S
C463 N467 1.328 . S
C463 H468 0.930 1_655 S
C464 C465 1.333 . S
C464 N466 1.317 . S
C464 H469 0.930 . S
C465 C464 1.333 . S
C465 N467 1.350 . S
C465 H491 0.931 . S
N466 Co462 2.148 . S
N466 C463 1.301 . S
N466 C464 1.317 . S
N467 C463 1.328 . S
N467 C465 1.350 . S
H468 C463 0.930 1_455 S
H469 C464 0.930 . S
C470 O471 1.224 . S
C470 O489 1.247 . S
O471 C470 1.224 . S
N472 Co462 2.128 . S
N472 C473 1.355 1_655 S
N472 C475 1.311 . S
C473 N472 1.355 1_455 S
C473 C474 1.363 . S
C473 H485 0.929 . S
C474 C473 1.363 . S
C474 N476 1.375 1_455 S
C474 H492 0.931 . S
C475 N472 1.311 . S
C475 N476 1.347 . S
C475 H486 0.929 . S
N476 C474 1.375 1_655 S
N476 C475 1.347 . S
C477 C480 1.365 . S
C477 N482 1.328 . S
C477 H483 0.929 . S
C478 C479 1.362 . S
C478 C481 1.378 . S
C478 H493 0.929 . S
C479 C478 1.362 . S
C479 C480 1.366 . S
C480 C477 1.365 . S
C480 C479 1.366 . S
C480 H494 0.930 . S
C481 C478 1.378 . S
C481 N482 1.315 . S
C481 H484 0.930 . S
N482 Co462 2.194 1_455 S
N482 C477 1.328 . S
N482 C481 1.315 . S
H483 C477 0.929 . S
H484 C481 0.930 . S
H485 C473 0.929 . S
H486 C475 0.929 . S
O487 Co462 2.351 1_455 S
O487 C490 1.244 1_455 S
O488 Co462 2.155 . S
O488 C490 1.240 . S
O489 Co462 2.096 . S
O489 C470 1.247 . S
C490 O487 1.244 1_655 S
C490 O488 1.240 . S
H491 C465 0.931 . S
H492 C474 0.931 . S
H493 C478 0.929 . S
H494 C480 0.930 . S
Co495 N499 2.148 . S
Co495 N505 2.128 . S
Co495 N515 2.194 1_565 S
Co495 O520 2.351 1_565 S
Co495 O521 2.155 . S
Co495 O522 2.096 . S
C496 N499 1.301 . S
C496 N500 1.328 . S
C496 H501 0.930 1_565 S
C497 C498 1.333 . S
C497 N499 1.317 . S
C497 H502 0.930 . S
C498 C497 1.333 . S
C498 N500 1.350 . S
C498 H524 0.931 . S
N499 Co495 2.148 . S
N499 C496 1.301 . S
N499 C497 1.317 . S
N500 C496 1.328 . S
N500 C498 1.350 . S
H501 C496 0.930 1_545 S
H502 C497 0.930 . S
C503 O504 1.224 . S
C503 O522 1.247 . S
O504 C503 1.224 . S
N505 Co495 2.128 . S
N505 C506 1.355 1_565 S
N505 C508 1.311 . S
C506 N505 1.355 1_545 S
C506 C507 1.363 . S
C506 H518 0.929 . S
C507 C506 1.363 . S
C507 N509 1.372 1_545 S
C507 H525 0.931 . S
C508 N505 1.311 . S
C508 N509 1.349 . S
C508 H519 0.929 . S
N509 C507 1.372 1_565 S
N509 C508 1.349 . S
C510 C513 1.365 . S
C510 N515 1.328 . S
C510 H516 0.929 . S
C511 C512 1.362 . S
C511 C514 1.378 . S
C511 H526 0.929 . S
C512 C511 1.362 . S
C512 C513 1.366 . S
C513 C510 1.365 . S
C513 C512 1.366 . S
C513 H527 0.930 . S
C514 C511 1.378 . S
C514 N515 1.315 . S
C514 H517 0.930 . S
N515 Co495 2.194 1_545 S
N515 C510 1.328 . S
N515 C514 1.315 . S
H516 C510 0.929 . S
H517 C514 0.930 . S
H518 C506 0.929 . S
H519 C508 0.929 . S
O520 Co495 2.351 1_545 S
O520 C523 1.244 1_545 S
O521 Co495 2.155 . S
O521 C523 1.240 . S
O522 Co495 2.096 . S
O522 C503 1.247 . S
C523 O520 1.244 1_565 S
C523 O521 1.240 . S
H524 C498 0.931 . S
H525 C507 0.931 . S
H526 C511 0.929 . S
H527 C513 0.930 . S
C528 C529 1.387 . S
C528 H532 0.950 . S
C528 C537 1.390 1_554 S
C529 C528 1.387 . S
C529 C531 1.387 . S
H530 C537 0.950 . S
C531 C529 1.387 . S
C531 C533 1.390 1_554 S
C531 H535 0.950 . S
H532 C528 0.950 . S
C533 C531 1.390 1_556 S
C533 C534 1.387 . S
C533 H536 0.950 . S
C534 C533 1.387 . S
C534 C537 1.387 . S
H535 C531 0.950 . S
H536 C533 0.950 . S
C537 C528 1.390 1_556 S
C537 H530 0.950 . S
C537 C534 1.387 . S
C538 C539 1.387 . S
C538 H542 0.950 . S
C538 C547 1.390 . S
C539 C538 1.387 . S
C539 C541 1.387 . S
H540 C547 0.950 . S
C541 C539 1.387 . S
C541 C543 1.390 . S
C541 H545 0.950 . S
H542 C538 0.950 . S
C543 C541 1.390 . S
C543 C544 1.387 . S
C543 H546 0.950 . S
C544 C543 1.387 . S
C544 C547 1.387 . S
H545 C541 0.950 . S
H546 C543 0.950 . S
C547 C538 1.390 . S
C547 H540 0.950 . S
C547 C544 1.387 . S
C548 C549 1.387 . S
C548 H552 0.950 . S
C548 C557 1.390 1_556 S
C549 C548 1.387 . S
C549 C551 1.387 . S
H550 C557 0.950 . S
C551 C549 1.387 . S
C551 C553 1.390 1_556 S
C551 H555 0.950 1_455 S
H552 C548 0.950 . S
C553 C551 1.390 1_554 S
C553 C554 1.387 . S
C553 H556 0.950 1_455 S
C554 C553 1.387 . S
C554 C557 1.387 . S
H555 C551 0.950 1_655 S
H556 C553 0.950 1_655 S
C557 C548 1.390 1_554 S
C557 H550 0.950 . S
C557 C554 1.387 . S
C558 C559 1.387 . S
C558 H562 0.950 1_545 S
C558 C567 1.390 . S
C559 C558 1.387 . S
C559 C561 1.387 . S
H560 C567 0.950 1_565 S
C561 C559 1.387 . S
C561 C563 1.390 . S
C561 H565 0.950 . S
H562 C558 0.950 1_565 S
C563 C561 1.390 . S
C563 C564 1.387 . S
C563 H566 0.950 . S
C564 C563 1.387 . S
C564 C567 1.387 . S
H565 C561 0.950 . S
H566 C563 0.950 . S
C567 C558 1.390 . S
C567 H560 0.950 1_545 S
C567 C564 1.387 . S
C568 C569 1.387 . S
C568 H572 0.950 . S
C568 C577 1.390 1_556 S
C569 C568 1.387 . S
C569 C571 1.387 . S
H570 C577 0.950 . S
C571 C569 1.387 . S
C571 C573 1.390 1_556 S
C571 H575 0.950 . S
H572 C568 0.950 . S
C573 C571 1.390 1_554 S
C573 C574 1.387 . S
C573 H576 0.950 . S
C574 C573 1.387 . S
C574 C577 1.387 . S
H575 C571 0.950 . S
H576 C573 0.950 . S
C577 C568 1.390 1_554 S
C577 H570 0.950 . S
C577 C574 1.387 . S
C578 C579 1.387 . S
C578 H582 0.950 . S
C578 C587 1.390 . S
C579 C578 1.387 . S
C579 C581 1.387 . S
H580 C587 0.950 . S
C581 C579 1.387 . S
C581 C583 1.390 . S
C581 H585 0.950 . S
H582 C578 0.950 . S
C583 C581 1.390 . S
C583 C584 1.387 . S
C583 H586 0.950 . S
C584 C583 1.387 . S
C584 C587 1.387 . S
H585 C581 0.950 . S
H586 C583 0.950 . S
C587 C578 1.390 . S
C587 H580 0.950 . S
C587 C584 1.387 . S
C588 C589 1.387 . S
C588 H592 0.950 . S
C588 C597 1.390 1_554 S
C589 C588 1.387 . S
C589 C591 1.387 . S
H590 C597 0.950 . S
C591 C589 1.387 . S
C591 C593 1.390 1_554 S
C591 H595 0.950 1_655 S
H592 C588 0.950 . S
C593 C591 1.390 1_556 S
C593 C594 1.387 . S
C593 H596 0.950 1_655 S
C594 C593 1.387 . S
C594 C597 1.387 . S
H595 C591 0.950 1_455 S
H596 C593 0.950 1_455 S
C597 C588 1.390 1_556 S
C597 H590 0.950 . S
C597 C594 1.387 . S
C598 C599 1.387 . S
C598 H602 0.950 1_565 S
C598 C607 1.390 . S
C599 C598 1.387 . S
C599 C601 1.387 . S
H600 C607 0.950 1_545 S
C601 C599 1.387 . S
C601 C603 1.390 . S
C601 H605 0.950 . S
H602 C598 0.950 1_545 S
C603 C601 1.390 . S
C603 C604 1.387 . S
C603 H606 0.950 . S
C604 C603 1.387 . S
C604 C607 1.387 . S
H605 C601 0.950 . S
H606 C603 0.950 . S
C607 C598 1.390 . S
C607 H600 0.950 1_565 S
C607 C604 1.387 . S
C608 C609 1.387 . S
C608 H612 0.950 . S
C608 C617 1.390 . S
C609 C608 1.387 . S
C609 C611 1.387 . S
H610 C617 0.950 1_545 S
C611 C609 1.387 . S
C611 C613 1.390 1_565 S
C611 H615 0.950 . S
H612 C608 0.950 . S
C613 C611 1.390 1_545 S
C613 C614 1.387 . S
C613 H616 0.950 . S
C614 C613 1.387 . S
C614 C617 1.387 1_545 S
H615 C611 0.950 . S
H616 C613 0.950 . S
C617 C608 1.390 . S
C617 H610 0.950 1_565 S
C617 C614 1.387 1_565 S
C618 C619 1.387 . S
C618 H622 0.950 . S
C618 C627 1.390 . S
C619 C618 1.387 . S
C619 C621 1.387 . S
H620 C627 0.950 . S
C621 C619 1.387 . S
C621 C623 1.390 . S
C621 H625 0.950 . S
H622 C618 0.950 . S
C623 C621 1.390 . S
C623 C624 1.387 . S
C623 H626 0.950 . S
C624 C623 1.387 . S
C624 C627 1.387 . S
H625 C621 0.950 . S
H626 C623 0.950 . S
C627 C618 1.390 . S
C627 H620 0.950 . S
C627 C624 1.387 . S
C628 C629 1.387 1_655 S
C628 H632 0.950 . S
C628 C637 1.390 . S
C629 C628 1.387 1_455 S
C629 C631 1.387 1_455 S
H630 C637 0.950 . S
C631 C629 1.387 1_655 S
C631 C633 1.390 . S
C631 H635 0.950 1_655 S
H632 C628 0.950 . S
C633 C631 1.390 . S
C633 C634 1.387 . S
C633 H636 0.950 . S
C634 C633 1.387 . S
C634 C637 1.387 . S
H635 C631 0.950 1_455 S
H636 C633 0.950 . S
C637 C628 1.390 . S
C637 H630 0.950 . S
C637 C634 1.387 . S
C638 C639 1.387 . S
C638 H642 0.950 . S
C638 C647 1.388 1_665 S
C639 C638 1.387 . S
C639 C641 1.387 . S
H640 C647 0.951 . S
C641 C639 1.387 . S
C641 C643 1.390 . S
C641 H645 0.950 . S
H642 C638 0.950 . S
C643 C641 1.390 . S
C643 C644 1.387 1_655 S
C643 H646 0.950 1_655 S
C644 C643 1.387 1_455 S
C644 C647 1.388 1_565 S
H645 C641 0.950 . S
H646 C643 0.950 1_455 S
C647 C638 1.388 1_445 S
C647 H640 0.951 . S
C647 C644 1.388 1_545 S
C648 C649 1.387 . S
C648 H652 0.950 . S
C648 C657 1.390 . S
C649 C648 1.387 . S
C649 C651 1.387 . S
H650 C657 0.950 . S
C651 C649 1.387 . S
C651 C653 1.390 . S
C651 H655 0.950 . S
H652 C648 0.950 . S
C653 C651 1.390 . S
C653 C654 1.387 . S
C653 H656 0.950 . S
C654 C653 1.387 . S
C654 C657 1.387 . S
H655 C651 0.950 . S
H656 C653 0.950 . S
C657 C648 1.390 . S
C657 H650 0.950 . S
C657 C654 1.387 . S
C658 C659 1.387 . S
C658 H662 0.950 . S
C658 C667 1.390 1_655 S
C659 C658 1.387 . S
C659 C661 1.387 . S
H660 C667 0.950 . S
C661 C659 1.387 . S
C661 C663 1.390 . S
C661 H665 0.950 . S
H662 C658 0.950 . S
C663 C661 1.390 . S
C663 C664 1.387 1_655 S
C663 H666 0.950 1_655 S
C664 C663 1.387 1_455 S
C664 C667 1.387 . S
H665 C661 0.950 . S
H666 C663 0.950 1_455 S
C667 C658 1.390 1_455 S
C667 H660 0.950 . S
C667 C664 1.387 . S
C668 C669 1.388 1_565 S
C668 H672 0.950 1_565 S
C668 C677 1.390 1_455 S
C669 C668 1.388 1_545 S
C669 C671 1.387 1_455 S
H670 C677 0.950 . S
C671 C669 1.387 1_655 S
C671 C673 1.390 1_545 S
C671 H675 0.950 . S
H672 C668 0.950 1_545 S
C673 C671 1.390 1_565 S
C673 C674 1.387 . S
C673 H676 0.950 . S
C674 C673 1.387 . S
C674 C677 1.387 . S
H675 C671 0.950 . S
H676 C673 0.950 . S
C677 C668 1.390 1_655 S
C677 H670 0.950 . S
C677 C674 1.387 . S
C678 C679 1.387 1_565 S
C678 H682 0.950 . S
C678 C687 1.390 . S
C679 C678 1.387 1_545 S
C679 C681 1.388 . S
H680 C687 0.950 . S
C681 C679 1.388 . S
C681 C683 1.390 1_545 S
C681 H685 0.950 . S
H682 C678 0.950 . S
C683 C681 1.390 1_565 S
C683 C684 1.387 . S
C683 H686 0.950 . S
C684 C683 1.387 . S
C684 C687 1.387 . S
H685 C681 0.950 . S
H686 C683 0.950 . S
C687 C678 1.390 . S
C687 H680 0.950 . S
C687 C684 1.387 . S
C688 C689 1.387 . S
C688 H692 0.950 . S
C688 C697 1.396 . S
C689 C688 1.387 . S
C689 C691 1.387 . S
H690 C697 0.947 1_565 S
C691 C689 1.387 . S
C691 C693 1.390 . S
C691 H695 0.950 . S
H692 C688 0.950 . S
C693 C691 1.390 . S
C693 C694 1.387 1_545 S
C693 H696 0.950 1_545 S
C694 C693 1.387 1_565 S
C694 C697 1.385 1_565 S
H695 C691 0.950 . S
H696 C693 0.950 1_565 S
C697 C688 1.396 . S
C697 H690 0.947 1_545 S
C697 C694 1.385 1_545 S
C698 C699 1.387 . S
C698 H702 0.950 . S
C698 C707 1.390 . S
C699 C698 1.387 . S
C699 C701 1.387 . S
H700 C707 0.950 . S
C701 C699 1.387 . S
C701 C703 1.390 . S
C701 H705 0.950 . S
H702 C698 0.950 . S
C703 C701 1.390 . S
C703 C704 1.387 . S
C703 H706 0.950 . S
C704 C703 1.387 . S
C704 C707 1.387 . S
H705 C701 0.950 . S
H706 C703 0.950 . S
C707 C698 1.390 . S
C707 H700 0.950 . S
C707 C704 1.387 . S
C708 C709 1.387 . S
C708 H712 0.950 . S
C708 C717 1.390 . S
C709 C708 1.387 . S
C709 C711 1.387 . S
H710 C717 0.950 . S
C711 C709 1.387 . S
C711 C713 1.390 . S
C711 H715 0.950 . S
H712 C708 0.950 . S
C713 C711 1.390 . S
C713 C714 1.387 . S
C713 H716 0.950 1_455 S
C714 C713 1.387 . S
C714 C717 1.387 . S
H715 C711 0.950 . S
H716 C713 0.950 1_655 S
C717 C708 1.390 . S
C717 H710 0.950 . S
C717 C714 1.387 . S
C718 C719 1.389 1_455 S
C718 H722 0.950 1_455 S
C718 C727 1.390 . S
C719 C718 1.389 1_655 S
C719 C721 1.398 . S
H720 C727 0.950 . S
C721 C719 1.398 . S
C721 C723 1.370 1_655 S
C721 H725 0.961 1_545 S
H722 C718 0.950 1_655 S
C723 C721 1.370 1_455 S
C723 C724 1.387 . S
C723 H726 0.950 . S
C724 C723 1.387 . S
C724 C727 1.387 . S
H725 C721 0.961 1_565 S
H726 C723 0.950 . S
C727 C718 1.390 . S
C727 H720 0.950 . S
C727 C724 1.387 . S
C728 C729 1.387 . S
C728 H732 0.950 . S
C728 C737 1.390 . S
C729 C728 1.387 . S
C729 C731 1.387 . S
H730 C737 0.950 . S
C731 C729 1.387 . S
C731 C733 1.390 . S
C731 H735 0.950 . S
H732 C728 0.950 . S
C733 C731 1.390 . S
C733 C734 1.387 . S
C733 H736 0.950 . S
C734 C733 1.387 . S
C734 C737 1.387 . S
H735 C731 0.950 . S
H736 C733 0.950 . S
C737 C728 1.390 . S
C737 H730 0.950 . S
C737 C734 1.387 . S
C738 C739 1.387 . S
C738 H742 0.950 . S
C738 C747 1.380 1_455 S
C739 C738 1.387 . S
C739 C741 1.387 . S
H740 C747 0.955 . S
C741 C739 1.387 . S
C741 C743 1.390 . S
C741 H745 0.950 . S
H742 C738 0.950 . S
C743 C741 1.390 . S
C743 C744 1.387 1_455 S
C743 H746 0.950 1_455 S
C744 C743 1.387 1_655 S
C744 C747 1.392 . S
H745 C741 0.950 . S
H746 C743 0.950 1_655 S
C747 C738 1.380 1_655 S
C747 H740 0.955 . S
C747 C744 1.392 . S
C748 C749 1.377 1_545 S
C748 H752 0.939 1_545 S
C748 C757 1.411 1_655 S
C749 C748 1.377 1_565 S
C749 C751 1.387 1_665 S
H750 C757 0.950 . S
C751 C749 1.387 1_445 S
C751 C753 1.390 . S
C751 H755 0.950 1_545 S
H752 C748 0.939 1_565 S
C753 C751 1.390 . S
C753 C754 1.387 . S
C753 H756 0.950 . S
C754 C753 1.387 . S
C754 C757 1.387 . S
H755 C751 0.950 1_565 S
H756 C753 0.950 . S
C757 C748 1.411 1_455 S
C757 H750 0.950 . S
C757 C754 1.387 . S
C758 C759 1.387 . S
C758 H762 0.950 . S
C758 C767 1.390 1_545 S
C759 C758 1.387 . S
C759 C761 1.387 . S
H760 C767 0.950 . S
C761 C759 1.387 . S
C761 C763 1.390 . S
C761 H765 0.950 . S
H762 C758 0.950 . S
C763 C761 1.390 . S
C763 C764 1.385 1_545 S
C763 H766 0.950 . S
C764 C763 1.385 1_565 S
C764 C767 1.388 . S
H765 C761 0.950 . S
H766 C763 0.950 . S
C767 C758 1.390 1_565 S
C767 H760 0.950 . S
C767 C764 1.388 . S
C768 C769 1.387 . S
C768 H772 0.950 . S
C768 C777 1.390 . S
C769 C768 1.387 . S
C769 C771 1.387 . S
H770 C777 0.950 . S
C771 C769 1.387 . S
C771 C773 1.390 . S
C771 H775 0.950 . S
H772 C768 0.950 . S
C773 C771 1.390 . S
C773 C774 1.387 . S
C773 H776 0.950 . S
C774 C773 1.387 . S
C774 C777 1.387 . S
H775 C771 0.950 . S
H776 C773 0.950 . S
C777 C768 1.390 . S
C777 H770 0.950 . S
C777 C774 1.387 . S
C778 C779 1.387 . S
C778 H782 0.950 . S
C778 C787 1.390 . S
C779 C778 1.387 . S
C779 C781 1.387 . S
H780 C787 0.950 . S
C781 C779 1.387 . S
C781 C783 1.390 . S
C781 H785 0.950 . S
H782 C778 0.950 . S
C783 C781 1.390 . S
C783 C784 1.387 . S
C783 H786 0.950 . S
C784 C783 1.387 . S
C784 C787 1.387 . S
H785 C781 0.950 . S
H786 C783 0.950 . S
C787 C778 1.390 . S
C787 H780 0.950 . S
C787 C784 1.387 . S
C788 C789 1.387 . S
C788 H792 0.950 . S
C788 C797 1.390 . S
C789 C788 1.387 . S
C789 C791 1.387 . S
H790 C797 0.950 . S
C791 C789 1.387 . S
C791 C793 1.390 . S
C791 H795 0.950 . S
H792 C788 0.950 . S
C793 C791 1.390 . S
C793 C794 1.387 . S
C793 H796 0.950 . S
C794 C793 1.387 . S
C794 C797 1.387 . S
H795 C791 0.950 . S
H796 C793 0.950 . S
C797 C788 1.390 . S
C797 H790 0.950 . S
C797 C794 1.387 . S
C798 C799 1.387 . S
C798 H802 0.950 . S
C798 C807 1.390 . S
C799 C798 1.387 . S
C799 C801 1.387 . S
H800 C807 0.950 . S
C801 C799 1.387 . S
C801 C803 1.390 . S
C801 H805 0.950 . S
H802 C798 0.950 . S
C803 C801 1.390 . S
C803 C804 1.387 . S
C803 H806 0.950 . S
C804 C803 1.387 . S
C804 C807 1.387 . S
H805 C801 0.950 . S
H806 C803 0.950 . S
C807 C798 1.390 . S
C807 H800 0.950 . S
C807 C804 1.387 . S
C808 C809 1.387 . S
C808 H812 0.950 . S
C808 C817 1.390 . S
C809 C808 1.387 . S
C809 C811 1.387 . S
H810 C817 0.950 . S
C811 C809 1.387 . S
C811 C813 1.390 . S
C811 H815 0.950 . S
H812 C808 0.950 . S
C813 C811 1.390 . S
C813 C814 1.387 . S
C813 H816 0.950 . S
C814 C813 1.387 . S
C814 C817 1.387 . S
H815 C811 0.950 . S
H816 C813 0.950 . S
C817 C808 1.390 . S
C817 H810 0.950 . S
C817 C814 1.387 . S
C818 C819 1.387 . S
C818 H822 0.950 . S
C818 C827 1.390 . S
C819 C818 1.387 . S
C819 C821 1.387 . S
H820 C827 0.950 . S
C821 C819 1.387 . S
C821 C823 1.390 . S
C821 H825 0.950 . S
H822 C818 0.950 . S
C823 C821 1.390 . S
C823 C824 1.387 . S
C823 H826 0.950 . S
C824 C823 1.387 . S
C824 C827 1.387 . S
H825 C821 0.950 . S
H826 C823 0.950 . S
C827 C818 1.390 . S
C827 H820 0.950 . S
C827 C824 1.387 . S
C828 C829 1.387 . S
C828 H832 0.950 . S
C828 C837 1.390 . S
C829 C828 1.387 . S
C829 C831 1.387 . S
H830 C837 0.950 . S
C831 C829 1.387 . S
C831 C833 1.390 . S
C831 H835 0.950 . S
H832 C828 0.950 . S
C833 C831 1.390 . S
C833 C834 1.387 . S
C833 H836 0.950 . S
C834 C833 1.387 . S
C834 C837 1.387 . S
H835 C831 0.950 . S
H836 C833 0.950 . S
C837 C828 1.390 . S
C837 H830 0.950 . S
C837 C834 1.387 . S
C838 C839 1.387 . S
C838 H842 0.950 . S
C838 C847 1.390 . S
C839 C838 1.387 . S
C839 C841 1.387 . S
H840 C847 0.950 . S
C841 C839 1.387 . S
C841 C843 1.390 . S
C841 H845 0.950 . S
H842 C838 0.950 . S
C843 C841 1.390 . S
C843 C844 1.387 . S
C843 H846 0.950 . S
C844 C843 1.387 . S
C844 C847 1.387 . S
H845 C841 0.950 . S
H846 C843 0.950 . S
C847 C838 1.390 . S
C847 H840 0.950 . S
C847 C844 1.387 . S
C848 C849 1.387 . S
C848 H852 0.950 . S
C848 C857 1.390 . S
C849 C848 1.387 . S
C849 C851 1.387 . S
H850 C857 0.950 . S
C851 C849 1.387 . S
C851 C853 1.390 . S
C851 H855 0.950 . S
H852 C848 0.950 . S
C853 C851 1.390 . S
C853 C854 1.387 . S
C853 H856 0.950 . S
C854 C853 1.387 . S
C854 C857 1.387 . S
H855 C851 0.950 . S
H856 C853 0.950 . S
C857 C848 1.390 . S
C857 H850 0.950 . S
C857 C854 1.387 . S
C858 C859 1.387 . S
C858 H862 0.950 . S
C858 C867 1.390 . S
C859 C858 1.387 . S
C859 C861 1.387 . S
H860 C867 0.950 . S
C861 C859 1.387 . S
C861 C863 1.390 . S
C861 H865 0.950 . S
H862 C858 0.950 . S
C863 C861 1.390 . S
C863 C864 1.387 . S
C863 H866 0.950 . S
C864 C863 1.387 . S
C864 C867 1.387 . S
H865 C861 0.950 . S
H866 C863 0.950 . S
C867 C858 1.390 . S
C867 H860 0.950 . S
C867 C864 1.387 . S
C868 C869 1.387 . S
C868 H872 0.950 . S
C868 C877 1.390 . S
C869 C868 1.387 . S
C869 C871 1.387 . S
H870 C877 0.950 . S
C871 C869 1.387 . S
C871 C873 1.390 . S
C871 H875 0.950 . S
H872 C868 0.950 . S
C873 C871 1.390 . S
C873 C874 1.387 . S
C873 H876 0.950 . S
C874 C873 1.387 . S
C874 C877 1.387 . S
H875 C871 0.950 . S
H876 C873 0.950 . S
C877 C868 1.390 . S
C877 H870 0.950 . S
C877 C874 1.387 . S
C878 C879 1.387 . S
C878 H882 0.950 . S
C878 C887 1.390 . S
C879 C878 1.387 . S
C879 C881 1.387 . S
H880 C887 0.950 . S
C881 C879 1.387 . S
C881 C883 1.390 . S
C881 H885 0.950 . S
H882 C878 0.950 . S
C883 C881 1.390 . S
C883 C884 1.387 . S
C883 H886 0.950 . S
C884 C883 1.387 . S
C884 C887 1.387 . S
H885 C881 0.950 . S
H886 C883 0.950 . S
C887 C878 1.390 . S
C887 H880 0.950 . S
C887 C884 1.387 . S
C888 C889 1.387 . S
C888 H892 0.950 . S
C888 C897 1.390 . S
C889 C888 1.387 . S
C889 C891 1.387 . S
H890 C897 0.950 . S
C891 C889 1.387 . S
C891 C893 1.390 . S
C891 H895 0.950 . S
H892 C888 0.950 . S
C893 C891 1.390 . S
C893 C894 1.387 . S
C893 H896 0.950 . S
C894 C893 1.387 . S
C894 C897 1.387 . S
H895 C891 0.950 . S
H896 C893 0.950 . S
C897 C888 1.390 . S
C897 H890 0.950 . S
C897 C894 1.387 . S
C898 C899 1.387 . S
C898 H902 0.950 . S
C898 C907 1.390 . S
C899 C898 1.387 . S
C899 C901 1.387 . S
H900 C907 0.950 . S
C901 C899 1.387 . S
C901 C903 1.390 . S
C901 H905 0.950 . S
H902 C898 0.950 . S
C903 C901 1.390 . S
C903 C904 1.387 . S
C903 H906 0.950 . S
C904 C903 1.387 . S
C904 C907 1.387 . S
H905 C901 0.950 . S
H906 C903 0.950 . S
C907 C898 1.390 . S
C907 H900 0.950 . S
C907 C904 1.387 . S
C908 C909 1.387 . S
C908 H912 0.950 . S
C908 C917 1.390 . S
C909 C908 1.387 . S
C909 C911 1.387 . S
H910 C917 0.950 . S
C911 C909 1.387 . S
C911 C913 1.390 . S
C911 H915 0.950 . S
H912 C908 0.950 . S
C913 C911 1.390 . S
C913 C914 1.387 . S
C913 H916 0.950 . S
C914 C913 1.387 . S
C914 C917 1.387 . S
H915 C911 0.950 . S
H916 C913 0.950 . S
C917 C908 1.390 . S
C917 H910 0.950 . S
C917 C914 1.387 . S
C918 C919 1.387 . S
C918 H922 0.950 . S
C918 C927 1.390 . S
C919 C918 1.387 . S
C919 C921 1.387 . S
H920 C927 0.950 . S
C921 C919 1.387 . S
C921 C923 1.390 . S
C921 H925 0.950 . S
H922 C918 0.950 . S
C923 C921 1.390 . S
C923 C924 1.387 . S
C923 H926 0.950 . S
C924 C923 1.387 . S
C924 C927 1.387 . S
H925 C921 0.950 . S
H926 C923 0.950 . S
C927 C918 1.390 . S
C927 H920 0.950 . S
C927 C924 1.387 . S
C529 C28 1.587 . S
C534 C160 1.587 . S
C539 C193 1.588 . S
C544 C61 1.588 . S
C549 C226 1.585 . S
C554 C94 1.585 . S
C559 C259 1.586 . S
C564 C127 1.586 . S
C569 C292 1.588 . S
C574 C424 1.588 . S
C579 C325 1.588 . S
C584 C457 1.588 . S
C589 C490 1.587 . S
C594 C358 1.586 . S
C599 C391 1.585 . S
C604 C523 1.585 . S
C609 N401 1.420 . S
C614 N14 1.376 . S
C619 N434 1.426 . S
C624 N47 1.381 . S
C629 N80 1.371 . S
C634 N467 1.410 . S
C639 N500 1.405 . S
C644 N113 1.362 1_565 S
C649 N269 1.426 . S
C654 N146 1.381 . S
C659 N302 1.419 . S
C664 N179 1.373 . S
C669 N212 1.365 . S
C674 N335 1.404 . S
C679 N245 1.371 . S
C684 N368 1.410 . S
C689 N137 1.420 . S
C694 N278 1.376 . S
C699 N170 1.425 . S
C704 N311 1.378 . S
C709 N203 1.411 . S
C714 N344 1.368 1_455 S
C719 N377 1.362 1_545 S
C724 N236 1.404 . S
C729 N5 1.426 . S
C734 N410 1.380 . S
C739 N38 1.420 . S
C744 N443 1.376 . S
C749 N476 1.365 . S
C754 N71 1.404 . S
C759 N104 1.411 . S
C764 N509 1.371 . S
C769 C83 1.440 . S
C774 C17 1.438 . S
C779 C50 1.441 . S
C784 C116 1.438 . S
C789 C215 1.439 . S
C794 C149 1.437 . S
C799 C248 1.440 . S
C804 C182 1.438 . S
C809 C347 1.440 . S
C814 C281 1.438 . S
C819 C380 1.440 . S
C824 C314 1.438 . S
C829 C413 1.441 . S
C834 C479 1.438 . S
C839 C512 1.440 . S
C844 C446 1.438 . S
C849 C239 1.281 . S
C854 C8 1.278 . S
C859 C140 1.272 . S
C864 C41 1.273 . S
C869 C173 1.279 . S
C874 C74 1.281 . S
C879 C206 1.286 . S
C884 C107 1.291 . S
C889 C503 1.278 . S
C894 C272 1.280 . S
C899 C404 1.271 . S
C904 C305 1.269 . S
C909 C437 1.279 . S
C914 C338 1.281 . S
C919 C470 1.286 . S
C924 C371 1.292 . S
