# Generated by pormake.
# Topology fnp, (5)-cn, num edge types: 1
# Building blocks:
#     Node 0, Type 0, BuildingBlock: BEQFEK_clean_sbu_0, # of connection points: 5
#     Node 1, Type 0, BuildingBlock: BEQFEK_clean_sbu_0, # of connection points: 5
#     Node 2, Type 0, BuildingBlock: BEQFEK_clean_sbu_0, # of connection points: 5
#     Node 3, Type 0, BuildingBlock: BEQFEK_clean_sbu_0, # of connection points: 5
#     Node 4, Type 0, BuildingBlock: BEQFEK_clean_sbu_0, # of connection points: 5
#     Node 5, Type 0, BuildingBlock: BEQFEK_clean_sbu_0, # of connection points: 5
#     Node 6, Type 0, BuildingBlock: BEQFEK_clean_sbu_0, # of connection points: 5
#     Node 7, Type 0, BuildingBlock: BEQFEK_clean_sbu_0, # of connection points: 5
#     Node 8, Type 0, BuildingBlock: BEQFEK_clean_sbu_0, # of connection points: 5
#     Node 9, Type 0, BuildingBlock: BEQFEK_clean_sbu_0, # of connection points: 5
#     Node 10, Type 0, BuildingBlock: BEQFEK_clean_sbu_0, # of connection points: 5
#     Node 11, Type 0, BuildingBlock: BEQFEK_clean_sbu_0, # of connection points: 5
#     Node 12, Type 0, BuildingBlock: BEQFEK_clean_sbu_0, # of connection points: 5
#     Node 13, Type 0, BuildingBlock: BEQFEK_clean_sbu_0, # of connection points: 5
#     Node 14, Type 0, BuildingBlock: BEQFEK_clean_sbu_0, # of connection points: 5
#     Node 15, Type 0, BuildingBlock: BEQFEK_clean_sbu_0, # of connection points: 5
#     Node 16, Type 0, BuildingBlock: BEQFEK_clean_sbu_0, # of connection points: 5
#     Node 17, Type 0, BuildingBlock: BEQFEK_clean_sbu_0, # of connection points: 5
#     Node 18, Type 0, BuildingBlock: BEQFEK_clean_sbu_0, # of connection points: 5
#     Node 19, Type 0, BuildingBlock: BEQFEK_clean_sbu_0, # of connection points: 5
#     Node 20, Type 0, BuildingBlock: BEQFEK_clean_sbu_0, # of connection points: 5
#     Node 21, Type 0, BuildingBlock: BEQFEK_clean_sbu_0, # of connection points: 5
#     Node 22, Type 0, BuildingBlock: BEQFEK_clean_sbu_0, # of connection points: 5
#     Node 23, Type 0, BuildingBlock: BEQFEK_clean_sbu_0, # of connection points: 5
#     Edge 24, Type (0, 0), BuildingBlock: AJUNOK_clean_linker_0, # of connection points: 2
#     Edge 25, Type (0, 0), BuildingBlock: AJUNOK_clean_linker_0, # of connection points: 2
#     Edge 26, Type (0, 0), BuildingBlock: AJUNOK_clean_linker_0, # of connection points: 2
#     Edge 27, Type (0, 0), BuildingBlock: AJUNOK_clean_linker_0, # of connection points: 2
#     Edge 28, Type (0, 0), BuildingBlock: AJUNOK_clean_linker_0, # of connection points: 2
#     Edge 29, Type (0, 0), BuildingBlock: AJUNOK_clean_linker_0, # of connection points: 2
#     Edge 30, Type (0, 0), BuildingBlock: AJUNOK_clean_linker_0, # of connection points: 2
#     Edge 31, Type (0, 0), BuildingBlock: AJUNOK_clean_linker_0, # of connection points: 2
#     Edge 32, Type (0, 0), BuildingBlock: AJUNOK_clean_linker_0, # of connection points: 2
#     Edge 33, Type (0, 0), BuildingBlock: AJUNOK_clean_linker_0, # of connection points: 2
#     Edge 34, Type (0, 0), BuildingBlock: AJUNOK_clean_linker_0, # of connection points: 2
#     Edge 35, Type (0, 0), BuildingBlock: AJUNOK_clean_linker_0, # of connection points: 2
#     Edge 36, Type (0, 0), BuildingBlock: AJUNOK_clean_linker_0, # of connection points: 2
#     Edge 37, Type (0, 0), BuildingBlock: AJUNOK_clean_linker_0, # of connection points: 2
#     Edge 38, Type (0, 0), BuildingBlock: AJUNOK_clean_linker_0, # of connection points: 2
#     Edge 39, Type (0, 0), BuildingBlock: AJUNOK_clean_linker_0, # of connection points: 2
#     Edge 40, Type (0, 0), BuildingBlock: AJUNOK_clean_linker_0, # of connection points: 2
#     Edge 41, Type (0, 0), BuildingBlock: AJUNOK_clean_linker_0, # of connection points: 2
#     Edge 42, Type (0, 0), BuildingBlock: AJUNOK_clean_linker_0, # of connection points: 2
#     Edge 43, Type (0, 0), BuildingBlock: AJUNOK_clean_linker_0, # of connection points: 2
#     Edge 44, Type (0, 0), BuildingBlock: AJUNOK_clean_linker_0, # of connection points: 2
#     Edge 45, Type (0, 0), BuildingBlock: AJUNOK_clean_linker_0, # of connection points: 2
#     Edge 46, Type (0, 0), BuildingBlock: AJUNOK_clean_linker_0, # of connection points: 2
#     Edge 47, Type (0, 0), BuildingBlock: AJUNOK_clean_linker_0, # of connection points: 2
#     Edge 48, Type (0, 0), BuildingBlock: AJUNOK_clean_linker_0, # of connection points: 2
#     Edge 49, Type (0, 0), BuildingBlock: AJUNOK_clean_linker_0, # of connection points: 2
#     Edge 50, Type (0, 0), BuildingBlock: AJUNOK_clean_linker_0, # of connection points: 2
#     Edge 51, Type (0, 0), BuildingBlock: AJUNOK_clean_linker_0, # of connection points: 2
#     Edge 52, Type (0, 0), BuildingBlock: AJUNOK_clean_linker_0, # of connection points: 2
#     Edge 53, Type (0, 0), BuildingBlock: AJUNOK_clean_linker_0, # of connection points: 2
#     Edge 54, Type (0, 0), BuildingBlock: AJUNOK_clean_linker_0, # of connection points: 2
#     Edge 55, Type (0, 0), BuildingBlock: AJUNOK_clean_linker_0, # of connection points: 2
#     Edge 56, Type (0, 0), BuildingBlock: AJUNOK_clean_linker_0, # of connection points: 2
#     Edge 57, Type (0, 0), BuildingBlock: AJUNOK_clean_linker_0, # of connection points: 2
#     Edge 58, Type (0, 0), BuildingBlock: AJUNOK_clean_linker_0, # of connection points: 2
#     Edge 59, Type (0, 0), BuildingBlock: AJUNOK_clean_linker_0, # of connection points: 2
#     Edge 60, Type (0, 0), BuildingBlock: AJUNOK_clean_linker_0, # of connection points: 2
#     Edge 61, Type (0, 0), BuildingBlock: AJUNOK_clean_linker_0, # of connection points: 2
#     Edge 62, Type (0, 0), BuildingBlock: AJUNOK_clean_linker_0, # of connection points: 2
#     Edge 63, Type (0, 0), BuildingBlock: AJUNOK_clean_linker_0, # of connection points: 2
#     Edge 64, Type (0, 0), BuildingBlock: AJUNOK_clean_linker_0, # of connection points: 2
#     Edge 65, Type (0, 0), BuildingBlock: AJUNOK_clean_linker_0, # of connection points: 2
#     Edge 66, Type (0, 0), BuildingBlock: AJUNOK_clean_linker_0, # of connection points: 2
#     Edge 67, Type (0, 0), BuildingBlock: AJUNOK_clean_linker_0, # of connection points: 2
#     Edge 68, Type (0, 0), BuildingBlock: AJUNOK_clean_linker_0, # of connection points: 2
#     Edge 69, Type (0, 0), BuildingBlock: AJUNOK_clean_linker_0, # of connection points: 2
#     Edge 70, Type (0, 0), BuildingBlock: AJUNOK_clean_linker_0, # of connection points: 2
#     Edge 71, Type (0, 0), BuildingBlock: AJUNOK_clean_linker_0, # of connection points: 2
#     Edge 72, Type (0, 0), BuildingBlock: AJUNOK_clean_linker_0, # of connection points: 2
#     Edge 73, Type (0, 0), BuildingBlock: AJUNOK_clean_linker_0, # of connection points: 2
#     Edge 74, Type (0, 0), BuildingBlock: AJUNOK_clean_linker_0, # of connection points: 2
#     Edge 75, Type (0, 0), BuildingBlock: AJUNOK_clean_linker_0, # of connection points: 2
#     Edge 76, Type (0, 0), BuildingBlock: AJUNOK_clean_linker_0, # of connection points: 2
#     Edge 77, Type (0, 0), BuildingBlock: AJUNOK_clean_linker_0, # of connection points: 2
#     Edge 78, Type (0, 0), BuildingBlock: AJUNOK_clean_linker_0, # of connection points: 2
#     Edge 79, Type (0, 0), BuildingBlock: AJUNOK_clean_linker_0, # of connection points: 2
#     Edge 80, Type (0, 0), BuildingBlock: AJUNOK_clean_linker_0, # of connection points: 2
#     Edge 81, Type (0, 0), BuildingBlock: AJUNOK_clean_linker_0, # of connection points: 2
#     Edge 82, Type (0, 0), BuildingBlock: AJUNOK_clean_linker_0, # of connection points: 2
#     Edge 83, Type (0, 0), BuildingBlock: AJUNOK_clean_linker_0, # of connection points: 2
# Relax obj value: 0.586
# Max RMSD: 0.215
# Mean RMSD: 0.215
data_MOF--net-fnp--node1-BEQFEK_clean_sbu_0--edge1-AJUNOK_clean_linker_0
_symmetry_space_group_name_H-M    P1
_symmetry_Int_Tables_number       1
_symmetry_cell_setting            triclinic
loop_
_symmetry_equiv_pos_as_xyz
'x, y, z'
_cell_length_a     42.27661
_cell_length_b     42.815045
_cell_length_c     41.953238
_cell_angle_alpha  90.024231
_cell_angle_beta   89.837019
_cell_angle_gamma 90.156835
loop_
_atom_site_label
_atom_site_type_symbol
_atom_site_fract_x
_atom_site_fract_y
_atom_site_fract_z
_atom_type_partial_charge
Co0 Co 0.25581 0.19866 0.69678 0.0
Co1 Co 0.18758 0.20662 0.70093 0.0
C2 C 0.21824 0.23753 0.75009 0.0
O3 O 0.24279 0.23008 0.73366 0.0
O4 O 0.19161 0.22508 0.74345 0.0
C5 C 0.28535 0.16522 0.73361 0.0
O6 O 0.25803 0.17287 0.74631 0.0
C7 C 0.12004 0.19971 0.70594 0.0
C8 C 0.11182 0.17276 0.66179 0.0
C9 C 0.09837 0.17993 0.69106 0.0
N10 N 0.1455 0.20243 0.68695 0.0
N11 N 0.14009 0.18701 0.66026 0.0
C12 C 0.11703 0.21668 0.73698 0.0
H13 H 0.12871 0.23986 0.7351 0.0
H14 H 0.12942 0.20345 0.75591 0.0
H15 H 0.09184 0.22002 0.74362 0.0
C16 C 0.23845 0.13092 0.6863 0.0
N17 N 0.23082 0.16156 0.68938 0.0
N18 N 0.20221 0.16395 0.70028 0.0
C19 C 0.19099 0.13482 0.70676 0.0
C20 C 0.21374 0.11211 0.69834 0.0
C21 C 0.2673 0.12038 0.66849 0.0
H22 H 0.26355 0.09689 0.65791 0.0
H23 H 0.27296 0.13737 0.64931 0.0
H24 H 0.288 0.11965 0.68456 0.0
O25 O 0.2588 0.22443 0.65954 0.0
O26 O 0.21182 0.24069 0.67504 0.0
H27 H 0.1418 0.12343 0.70573 0.0
H28 H 0.16232 0.10928 0.7404 0.0
C29 C 0.16026 0.12914 0.72355 0.0
H30 H 0.15293 0.15033 0.73681 0.0
H31 H 0.15704 0.18342 0.64251 0.0
O32 O 0.29539 0.18005 0.70939 0.0
C33 C 0.23828 0.24599 0.6609 0.0
Co34 Co 0.90583 0.74735 0.2441 0.0
Co35 Co 0.87885 0.69998 0.19772 0.0
C36 C 0.85048 0.70456 0.26262 0.0
O37 O 0.86985 0.7267 0.26674 0.0
O38 O 0.85193 0.68922 0.23684 0.0
C39 C 0.93595 0.72578 0.29438 0.0
O40 O 0.92954 0.70147 0.27644 0.0
C41 C 0.87239 0.63678 0.18513 0.0
C42 C 0.85907 0.6306 0.13477 0.0
C43 C 0.86541 0.61449 0.16273 0.0
N44 N 0.86973 0.66503 0.17183 0.0
N45 N 0.86164 0.66146 0.1416 0.0
C46 C 0.88418 0.63099 0.21834 0.0
H47 H 0.89785 0.65124 0.22734 0.0
H48 H 0.89934 0.60987 0.21907 0.0
H49 H 0.86369 0.62688 0.2344 0.0
C50 C 0.96739 0.72609 0.21744 0.0
N51 N 0.93538 0.72489 0.21847 0.0
N52 N 0.92515 0.70167 0.20107 0.0
C53 C 0.95092 0.68676 0.18865 0.0
C54 C 0.97889 0.70165 0.19881 0.0
C55 C 0.98674 0.74895 0.23617 0.0
H56 H 0.97209 0.76909 0.24376 0.0
H57 H 0.99644 0.73712 0.25753 0.0
H58 H 1.00696 0.75773 0.2219 0.0
O59 O 0.88148 0.77816 0.21703 0.0
O60 O 0.86099 0.74248 0.18368 0.0
H61 H 0.97201 0.65574 0.15402 0.0
H62 H 0.94289 0.63825 0.18001 0.0
C63 C 0.94907 0.65958 0.16634 0.0
H64 H 0.93029 0.6636 0.14843 0.0
H65 H 0.85842 0.67983 0.12563 0.0
O66 O 0.92944 0.75332 0.28419 0.0
C67 C 0.86298 0.77092 0.19375 0.0
Co68 Co 0.33727 0.38917 0.74249 0.0
Co69 Co 0.38436 0.37169 0.6934 0.0
C70 C 0.3806 0.3338 0.7523 0.0
O71 O 0.35672 0.35022 0.75863 0.0
O72 O 0.39737 0.34059 0.72816 0.0
C73 C 0.37203 0.41658 0.78741 0.0
O74 O 0.39334 0.40421 0.76851 0.0
C75 C 0.4473 0.36939 0.67549 0.0
C76 C 0.45014 0.36768 0.62305 0.0
C77 C 0.4683 0.36878 0.65054 0.0
N78 N 0.41791 0.36792 0.66398 0.0
N79 N 0.41946 0.3668 0.63248 0.0
C80 C 0.45514 0.37512 0.70989 0.0
H81 H 0.4604 0.35248 0.72157 0.0
H82 H 0.4351 0.38636 0.7224 0.0
H83 H 0.47633 0.39031 0.71221 0.0
C84 C 0.35028 0.4523 0.72186 0.0
N85 N 0.35518 0.42138 0.7183 0.0
N86 N 0.38125 0.41632 0.70256 0.0
C87 C 0.39478 0.44472 0.69641 0.0
C88 C 0.37545 0.46868 0.70876 0.0
C89 C 0.32289 0.46586 0.73987 0.0
H90 H 0.30806 0.44728 0.75071 0.0
H91 H 0.3315 0.48224 0.75842 0.0
H92 H 0.30783 0.4794 0.72333 0.0
O93 O 0.3043 0.37023 0.71531 0.0
O94 O 0.34061 0.35493 0.67933 0.0
H95 H 0.42834 0.47384 0.67132 0.0
H96 H 0.44513 0.44235 0.69425 0.0
C97 C 0.42515 0.44912 0.67866 0.0
H98 H 0.42558 0.43376 0.65737 0.0
H99 H 0.39979 0.36648 0.61753 0.0
O100 O 0.34234 0.41099 0.78303 0.0
C101 C 0.31181 0.35519 0.6898 0.0
Co102 Co 0.69869 0.82832 0.19308 0.0
Co103 Co 0.70986 0.89556 0.20459 0.0
C104 C 0.73493 0.85886 0.2527 0.0
O105 O 0.72703 0.83639 0.23389 0.0
O106 O 0.72352 0.88599 0.24809 0.0
C107 C 0.65858 0.78379 0.21394 0.0
O108 O 0.64895 0.80924 0.2285 0.0
C109 C 0.70341 0.96243 0.21542 0.0
C110 C 0.70285 0.97946 0.16571 0.0
C111 C 0.69677 0.98842 0.19687 0.0
N112 N 0.71193 0.93896 0.19593 0.0
N113 N 0.71233 0.94952 0.16635 0.0
C114 C 0.69798 0.95887 0.25056 0.0
H115 H 0.69421 0.93414 0.25706 0.0
H116 H 0.67725 0.97272 0.25847 0.0
H117 H 0.71916 0.96747 0.26346 0.0
C118 C 0.6317 0.85043 0.1773 0.0
N119 N 0.66242 0.85517 0.18568 0.0
N120 N 0.66572 0.88355 0.19647 0.0
C121 C 0.63653 0.89711 0.19775 0.0
C122 C 0.61332 0.87649 0.18587 0.0
C123 C 0.62093 0.82289 0.15804 0.0
H124 H 0.64072 0.8142 0.14305 0.0
H125 H 0.61339 0.80353 0.17379 0.0
H126 H 0.60061 0.82936 0.14271 0.0
O127 O 0.7296 0.82976 0.15888 0.0
O128 O 0.74709 0.87265 0.18153 0.0
H129 H 0.63925 0.94693 0.19691 0.0
H130 H 0.60507 0.93197 0.21791 0.0
C131 C 0.63047 0.92815 0.21285 0.0
H132 H 0.64329 0.92943 0.23571 0.0
H133 H 0.71651 0.93557 0.14639 0.0
O134 O 0.68249 0.78565 0.19577 0.0
C135 C 0.7526 0.84771 0.16552 0.0
Co136 Co 0.25859 0.38451 0.89056 0.0
Co137 Co 0.18951 0.37468 0.89041 0.0
C138 C 0.22099 0.34513 0.83913 0.0
O139 O 0.24665 0.35363 0.8532 0.0
O140 O 0.19455 0.35658 0.84791 0.0
C141 C 0.30783 0.41824 0.86807 0.0
O142 O 0.28523 0.42738 0.84876 0.0
C143 C 0.1215 0.38106 0.88447 0.0
C144 C 0.10808 0.38907 0.9348 0.0
C145 C 0.09681 0.39078 0.90387 0.0
N146 N 0.14665 0.37545 0.90307 0.0
N147 N 0.13831 0.37956 0.93314 0.0
C148 C 0.12145 0.37662 0.84907 0.0
H149 H 0.13136 0.35337 0.84332 0.0
H150 H 0.13694 0.3943 0.83761 0.0
H151 H 0.09721 0.37803 0.83912 0.0
C152 C 0.24038 0.45375 0.89561 0.0
N153 N 0.23425 0.42252 0.89404 0.0
N154 N 0.20384 0.41828 0.89072 0.0
C155 C 0.18996 0.44679 0.88772 0.0
C156 C 0.21276 0.47058 0.88924 0.0
C157 C 0.27096 0.46741 0.90709 0.0
H158 H 0.28709 0.44909 0.91592 0.0
H159 H 0.28213 0.48154 0.88795 0.0
H160 H 0.26657 0.48283 0.92777 0.0
O161 O 0.25794 0.36051 0.92969 0.0
O162 O 0.21252 0.34022 0.91596 0.0
H163 H 0.14355 0.439 0.90596 0.0
H164 H 0.14867 0.47666 0.88831 0.0
C165 C 0.1551 0.45165 0.88615 0.0
H166 H 0.14646 0.44232 0.86321 0.0
H167 H 0.15389 0.37806 0.95232 0.0
O168 O 0.30237 0.3964 0.88744 0.0
C169 C 0.2391 0.33759 0.93013 0.0
Co170 Co 0.68983 0.74544 0.37207 0.0
Co171 Co 0.71078 0.69293 0.41354 0.0
C172 C 0.74304 0.7011 0.35201 0.0
O173 O 0.72745 0.72616 0.35062 0.0
O174 O 0.73709 0.6819 0.37421 0.0
C175 C 0.66155 0.72848 0.32023 0.0
O176 O 0.66983 0.7024 0.33433 0.0
C177 C 0.70982 0.62874 0.4251 0.0
C178 C 0.71586 0.62149 0.47675 0.0
C179 C 0.70945 0.60611 0.44836 0.0
N180 N 0.71582 0.65645 0.43868 0.0
N181 N 0.71977 0.65214 0.46965 0.0
C182 C 0.70309 0.62443 0.39021 0.0
H183 H 0.68991 0.64476 0.38077 0.0
H184 H 0.6895 0.6029 0.38516 0.0
H185 H 0.72589 0.62261 0.3772 0.0
C186 C 0.62532 0.7269 0.3939 0.0
N187 N 0.65721 0.72345 0.39399 0.0
N188 N 0.66481 0.69793 0.40907 0.0
C189 C 0.63738 0.68384 0.41868 0.0
C190 C 0.6111 0.70142 0.40883 0.0
C191 C 0.60841 0.75397 0.37921 0.0
H192 H 0.62502 0.77046 0.36763 0.0
H193 H 0.5906 0.74536 0.36192 0.0
H194 H 0.59556 0.767 0.39803 0.0
O195 O 0.71213 0.77387 0.40136 0.0
O196 O 0.7323 0.73404 0.42936 0.0
H197 H 0.6123 0.65169 0.44933 0.0
H198 H 0.64054 0.63485 0.42211 0.0
C199 C 0.63593 0.65478 0.43815 0.0
H200 H 0.65424 0.65536 0.45695 0.0
H201 H 0.72362 0.67009 0.486 0.0
O202 O 0.66854 0.75495 0.33269 0.0
C203 C 0.73138 0.76348 0.42246 0.0
Co204 Co 0.32923 0.17919 0.86715 0.0
Co205 Co 0.38349 0.20397 0.90562 0.0
C206 C 0.37615 0.22788 0.84019 0.0
O207 O 0.35218 0.21 0.83865 0.0
O208 O 0.39293 0.2276 0.8652 0.0
C209 C 0.33956 0.13428 0.82393 0.0
O210 O 0.36834 0.14268 0.83214 0.0
C211 C 0.44872 0.21173 0.92153 0.0
C212 C 0.45071 0.19891 0.97236 0.0
C213 C 0.46944 0.20469 0.94585 0.0
N214 N 0.41902 0.21031 0.93287 0.0
N215 N 0.42034 0.20345 0.96358 0.0
C216 C 0.45691 0.21377 0.88677 0.0
H217 H 0.45047 0.23726 0.87781 0.0
H218 H 0.44329 0.19599 0.87329 0.0
H219 H 0.4825 0.21023 0.8822 0.0
C220 C 0.34617 0.12001 0.89561 0.0
N221 N 0.35023 0.15128 0.89426 0.0
N222 N 0.37912 0.15871 0.90176 0.0
C223 C 0.39536 0.13156 0.90578 0.0
C224 C 0.37516 0.10576 0.90096 0.0
C225 C 0.31524 0.10398 0.88924 0.0
H226 H 0.29662 0.12095 0.88264 0.0
H227 H 0.31821 0.08601 0.87042 0.0
H228 H 0.30721 0.09196 0.91122 0.0
O229 O 0.30145 0.20574 0.89321 0.0
O230 O 0.34183 0.22499 0.92155 0.0
H231 H 0.43221 0.14392 0.93746 0.0
H232 H 0.437 0.1059 0.91972 0.0
C233 C 0.42916 0.13022 0.9153 0.0
H234 H 0.44385 0.14103 0.89632 0.0
H235 H 0.40053 0.19871 0.97769 0.0
O236 O 0.31573 0.14951 0.83492 0.0
C237 C 0.31212 0.22459 0.9144 0.0
Co238 Co 0.89299 0.81981 0.38278 0.0
Co239 Co 0.87864 0.8887 0.38932 0.0
C240 C 0.84839 0.85611 0.33609 0.0
O241 O 0.86044 0.83066 0.3469 0.0
O242 O 0.85708 0.88244 0.3476 0.0
C243 C 0.91658 0.75917 0.40183 0.0
O244 O 0.91495 0.76887 0.43146 0.0
C245 C 0.88176 0.95649 0.38333 0.0
C246 C 0.89177 0.96974 0.43322 0.0
C247 C 0.89161 0.98125 0.40234 0.0
N248 N 0.87804 0.93124 0.402 0.0
N249 N 0.88326 0.93949 0.43187 0.0
C250 C 0.87571 0.95642 0.34818 0.0
H251 H 0.85303 0.94425 0.34334 0.0
H252 H 0.89463 0.94321 0.33578 0.0
H253 H 0.87442 0.98051 0.33856 0.0
C254 C 0.96126 0.8425 0.38631 0.0
N255 N 0.92945 0.84698 0.38625 0.0
N256 N 0.92373 0.87693 0.38852 0.0
C257 C 0.95208 0.89239 0.38917 0.0
C258 C 0.97722 0.87111 0.38768 0.0
C259 C 0.9762 0.81114 0.38767 0.0
H260 H 0.96608 0.79833 0.40817 0.0
H261 H 0.97072 0.7985 0.3653 0.0
H262 H 1.00215 0.81238 0.39111 0.0
O263 O 0.86794 0.8175 0.42183 0.0
O264 O 0.84717 0.86427 0.41746 0.0
H265 H 0.94699 0.93683 0.41153 0.0
H266 H 0.98023 0.93453 0.38455 0.0
C267 C 0.95541 0.92706 0.38859 0.0
H268 H 0.94073 0.93631 0.36908 0.0
H269 H 0.88333 0.92393 0.45101 0.0
O270 O 0.90849 0.77696 0.37879 0.0
C271 C 0.84577 0.83633 0.42813 0.0
Co272 Co 0.73058 0.24082 0.18553 0.0
Co273 Co 0.68589 0.19425 0.21403 0.0
C274 C 0.75177 0.20064 0.24117 0.0
O275 O 0.75754 0.22007 0.21907 0.0
O276 O 0.72474 0.18762 0.24215 0.0
C277 C 0.77608 0.22946 0.14239 0.0
O278 O 0.76754 0.2011 0.15079 0.0
C279 C 0.67303 0.13134 0.22477 0.0
C280 C 0.62136 0.12633 0.23017 0.0
C281 C 0.6494 0.10957 0.22874 0.0
N282 N 0.66014 0.15979 0.22459 0.0
N283 N 0.62916 0.15695 0.22811 0.0
C284 C 0.7069 0.12493 0.21618 0.0
H285 H 0.71681 0.14418 0.20154 0.0
H286 H 0.70919 0.10277 0.20265 0.0
H287 H 0.72096 0.12283 0.23837 0.0
C288 C 0.70184 0.22022 0.1245 0.0
N289 N 0.70472 0.21824 0.15661 0.0
N290 N 0.68979 0.19363 0.16717 0.0
C291 C 0.6786 0.17765 0.14129 0.0
C292 C 0.68602 0.19402 0.11303 0.0
C293 C 0.71491 0.24651 0.10472 0.0
H294 H 0.72259 0.26632 0.1198 0.0
H295 H 0.73475 0.23781 0.08983 0.0
H296 H 0.69689 0.25573 0.08829 0.0
O297 O 0.7041 0.27108 0.21046 0.0
O298 O 0.66977 0.23637 0.23047 0.0
H299 H 0.65078 0.14091 0.11967 0.0
H300 H 0.67538 0.12915 0.15273 0.0
C301 C 0.66002 0.14796 0.14336 0.0
H302 H 0.64004 0.15099 0.16024 0.0
H303 H 0.61334 0.17558 0.22748 0.0
O304 O 0.76414 0.25319 0.1567 0.0
C305 C 0.68039 0.26453 0.22851 0.0
Co306 Co 0.83989 0.2178 0.6872 0.0
Co307 Co 0.89176 0.18172 0.71867 0.0
C308 C 0.87964 0.2457 0.74305 0.0
O309 O 0.85752 0.24643 0.72241 0.0
O310 O 0.89812 0.22228 0.74337 0.0
C311 C 0.85005 0.25818 0.63772 0.0
O312 O 0.87927 0.2525 0.64655 0.0
C313 C 0.95542 0.1647 0.7332 0.0
C314 C 0.95587 0.11355 0.72749 0.0
C315 C 0.97541 0.13924 0.73184 0.0
N316 N 0.92549 0.15472 0.73026 0.0
N317 N 0.92574 0.12395 0.72761 0.0
C318 C 0.96494 0.19842 0.73154 0.0
H319 H 0.96035 0.20934 0.75504 0.0
H320 H 0.95053 0.21075 0.71346 0.0
H321 H 0.9904 0.20144 0.72581 0.0
C322 C 0.86344 0.18624 0.62938 0.0
N323 N 0.86505 0.19156 0.66116 0.0
N324 N 0.89268 0.1834 0.67191 0.0
C325 C 0.91073 0.17509 0.64622 0.0
C326 C 0.89272 0.17677 0.61808 0.0
C327 C 0.83448 0.19101 0.60951 0.0
H328 H 0.81417 0.19896 0.62413 0.0
H329 H 0.83979 0.20781 0.5901 0.0
H330 H 0.82781 0.16863 0.59803 0.0
O331 O 0.80969 0.19105 0.71051 0.0
O332 O 0.84832 0.1653 0.73538 0.0
H333 H 0.94428 0.14159 0.66116 0.0
H334 H 0.95481 0.16126 0.62447 0.0
C335 C 0.94404 0.16427 0.64844 0.0
H336 H 0.95801 0.18134 0.66247 0.0
H337 H 0.90573 0.11042 0.72294 0.0
O338 O 0.82691 0.24746 0.65437 0.0
C339 C 0.81863 0.1709 0.73116 0.0
Co340 Co 0.888 0.33456 0.20424 0.0
Co341 Co 0.89193 0.40182 0.22117 0.0
C342 C 0.83716 0.36937 0.24547 0.0
O343 O 0.85013 0.34464 0.23433 0.0
O344 O 0.84826 0.39593 0.23764 0.0
C345 C 0.85722 0.30089 0.16339 0.0
O346 O 0.8432 0.32827 0.16319 0.0
C347 C 0.88058 0.4673 0.21662 0.0
C348 C 0.92817 0.48808 0.22174 0.0
C349 C 0.89719 0.49503 0.21361 0.0
N350 N 0.90085 0.44492 0.22568 0.0
N351 N 0.92916 0.45753 0.22941 0.0
C352 C 0.84746 0.46076 0.20571 0.0
H353 H 0.84609 0.43744 0.19429 0.0
H354 H 0.8391 0.47861 0.18856 0.0
H355 H 0.83147 0.46067 0.22673 0.0
C356 C 0.90344 0.35833 0.13726 0.0
N357 N 0.89828 0.3624 0.16909 0.0
N358 N 0.89686 0.39225 0.17539 0.0
C359 C 0.89948 0.40813 0.14721 0.0
C360 C 0.90259 0.38713 0.12157 0.0
C361 C 0.9109 0.32754 0.122 0.0
H362 H 0.91508 0.3092 0.14004 0.0
H363 H 0.89158 0.32075 0.10552 0.0
H364 H 0.93299 0.32934 0.10796 0.0
O365 O 0.92327 0.32818 0.2329 0.0
O366 O 0.91554 0.37452 0.25467 0.0
H367 H 0.91898 0.45161 0.163 0.0
H368 H 0.91176 0.44981 0.12081 0.0
C369 C 0.90252 0.44286 0.14458 0.0
H370 H 0.87912 0.45386 0.14811 0.0
H371 H 0.94954 0.44486 0.23466 0.0
O372 O 0.87817 0.2955 0.18411 0.0
C373 C 0.92577 0.34635 0.25666 0.0
Co374 Co 0.74707 0.36842 0.7009 0.0
Co375 Co 0.68073 0.38501 0.71841 0.0
C376 C 0.70709 0.32553 0.74406 0.0
O377 O 0.73277 0.33235 0.72956 0.0
O378 O 0.68287 0.3427 0.73994 0.0
C379 C 0.77633 0.33384 0.6595 0.0
O380 O 0.74731 0.32276 0.65965 0.0
C381 C 0.61503 0.37903 0.7087 0.0
C382 C 0.59647 0.42668 0.71591 0.0
C383 C 0.58841 0.3973 0.7044 0.0
N384 N 0.63792 0.39695 0.72117 0.0
N385 N 0.62664 0.42527 0.72616 0.0
C386 C 0.62077 0.34669 0.69615 0.0
H387 H 0.64619 0.34311 0.69091 0.0
H388 H 0.60695 0.34217 0.67418 0.0
H389 H 0.61349 0.32947 0.71454 0.0
C390 C 0.7263 0.38637 0.6343 0.0
N391 N 0.72084 0.38189 0.66595 0.0
N392 N 0.69093 0.38634 0.67217 0.0
C393 C 0.67602 0.39244 0.64392 0.0
C394 C 0.69762 0.39076 0.61822 0.0
C395 C 0.7586 0.39234 0.6207 0.0
H396 H 0.77713 0.39195 0.63915 0.0
H397 H 0.76386 0.37543 0.60135 0.0
H398 H 0.75962 0.41636 0.61098 0.0
O399 O 0.75789 0.40217 0.72987 0.0
O400 O 0.70947 0.41105 0.74824 0.0
H401 H 0.64032 0.41877 0.61885 0.0
H402 H 0.62553 0.38745 0.64332 0.0
C403 C 0.64356 0.40616 0.64172 0.0
H404 H 0.63982 0.42289 0.66147 0.0
H405 H 0.64016 0.44415 0.73408 0.0
O406 O 0.78443 0.35359 0.68046 0.0
C407 C 0.73959 0.41472 0.75024 0.0
Co408 Co 0.69384 0.32941 0.39195 0.0
Co409 Co 0.69048 0.39696 0.37814 0.0
C410 C 0.74508 0.36796 0.35283 0.0
O411 O 0.73159 0.34283 0.36263 0.0
O412 O 0.73444 0.39434 0.362 0.0
C413 C 0.7259 0.29548 0.43126 0.0
O414 O 0.73877 0.32343 0.43271 0.0
C415 C 0.69326 0.464 0.38144 0.0
C416 C 0.64464 0.47391 0.39777 0.0
C417 C 0.67484 0.48667 0.39635 0.0
N418 N 0.67526 0.43852 0.37674 0.0
N419 N 0.64598 0.44495 0.3855 0.0
C420 C 0.727 0.46613 0.37077 0.0
H421 H 0.72955 0.4548 0.34711 0.0
H422 H 0.74231 0.45324 0.38767 0.0
H423 H 0.73489 0.49081 0.36883 0.0
C424 C 0.67757 0.35011 0.45986 0.0
N425 N 0.68277 0.35522 0.42819 0.0
N426 N 0.68662 0.38507 0.42327 0.0
C427 C 0.68624 0.39979 0.45212 0.0
C428 C 0.68045 0.37823 0.47674 0.0
C429 C 0.67148 0.31855 0.47413 0.0
H430 H 0.66737 0.30077 0.45544 0.0
H431 H 0.69159 0.31185 0.48961 0.0
H432 H 0.65 0.31888 0.48912 0.0
O433 O 0.65902 0.32305 0.36276 0.0
O434 O 0.66885 0.36984 0.34325 0.0
H435 H 0.66926 0.44635 0.45026 0.0
H436 H 0.69736 0.44041 0.48112 0.0
C437 C 0.69139 0.43404 0.45629 0.0
H438 H 0.71055 0.44182 0.44014 0.0
H439 H 0.62774 0.4285 0.38635 0.0
O440 O 0.70509 0.29004 0.41037 0.0
C441 C 0.65818 0.342 0.33955 0.0
Co442 Co 0.74526 0.18432 0.89083 0.0
Co443 Co 0.67766 0.1779 0.87403 0.0
C444 C 0.70636 0.23252 0.84921 0.0
O445 O 0.73184 0.22011 0.85982 0.0
O446 O 0.67974 0.22144 0.85784 0.0
C447 C 0.775 0.21896 0.93077 0.0
O448 O 0.74607 0.23004 0.92914 0.0
C449 C 0.61019 0.18159 0.87427 0.0
C450 C 0.59791 0.13428 0.89099 0.0
C451 C 0.58624 0.16454 0.8891 0.0
N452 N 0.63544 0.16297 0.87044 0.0
N453 N 0.62756 0.1344 0.87928 0.0
C454 C 0.60897 0.21433 0.86182 0.0
H455 H 0.62079 0.21537 0.83818 0.0
H456 H 0.6221 0.23015 0.87804 0.0
H457 H 0.58419 0.2224 0.85916 0.0
C458 C 0.72239 0.16918 0.95778 0.0
N459 N 0.71795 0.1731 0.92589 0.0
N460 N 0.68774 0.17498 0.91991 0.0
C461 C 0.67201 0.17423 0.9484 0.0
C462 C 0.69345 0.17116 0.97375 0.0
C463 C 0.75387 0.16378 0.97313 0.0
H464 H 0.77252 0.1595 0.95509 0.0
H465 H 0.76011 0.18404 0.98839 0.0
H466 H 0.75273 0.14293 0.98867 0.0
O467 O 0.75424 0.14933 0.86344 0.0
O468 O 0.70782 0.15667 0.84084 0.0
H469 H 0.62757 0.15211 0.94287 0.0
H470 H 0.62893 0.17696 0.97661 0.0
C471 C 0.6369 0.17463 0.95157 0.0
H472 H 0.62731 0.19387 0.93702 0.0
H473 H 0.64348 0.11591 0.88087 0.0
O474 O 0.78345 0.19802 0.91123 0.0
C475 C 0.73656 0.14706 0.83916 0.0
Co476 Co 0.85831 0.23776 0.40741 0.0
Co477 Co 0.90594 0.19396 0.37874 0.0
C478 C 0.83926 0.19992 0.35111 0.0
O479 O 0.83045 0.21557 0.37517 0.0
O480 O 0.86779 0.19092 0.34948 0.0
C481 C 0.81327 0.22641 0.45021 0.0
O482 O 0.8227 0.19829 0.44206 0.0
C483 C 0.91351 0.12952 0.36747 0.0
C484 C 0.9645 0.12022 0.37214 0.0
C485 C 0.9352 0.10567 0.3701 0.0
N486 N 0.92886 0.157 0.36841 0.0
N487 N 0.95954 0.1514 0.37052 0.0
C488 C 0.87814 0.12629 0.36726 0.0
H489 H 0.86918 0.13376 0.34368 0.0
H490 H 0.86765 0.14144 0.38596 0.0
H491 H 0.87004 0.10192 0.37074 0.0
C492 C 0.88748 0.21836 0.46861 0.0
N493 N 0.88468 0.21637 0.43647 0.0
N494 N 0.90149 0.19314 0.42569 0.0
C495 C 0.91397 0.17808 0.45152 0.0
C496 C 0.90511 0.19348 0.47984 0.0
C497 C 0.87428 0.24425 0.48869 0.0
H498 H 0.86728 0.26447 0.47388 0.0
H499 H 0.85379 0.23543 0.50265 0.0
H500 H 0.89221 0.25244 0.50602 0.0
O501 O 0.88466 0.26785 0.38146 0.0
O502 O 0.92291 0.23624 0.36334 0.0
H503 H 0.95826 0.15873 0.43751 0.0
H504 H 0.94178 0.14168 0.47336 0.0
C505 C 0.9361 0.15108 0.4494 0.0
H506 H 0.92533 0.13256 0.43466 0.0
H507 H 0.97671 0.16864 0.37363 0.0
O508 O 0.82514 0.25044 0.43631 0.0
C509 C 0.90975 0.26339 0.36466 0.0
Co510 Co 0.83186 0.36127 0.906 0.0
Co511 Co 0.88685 0.39656 0.88017 0.0
C512 C 0.87423 0.33445 0.85226 0.0
O513 O 0.84932 0.33465 0.86931 0.0
O514 O 0.89456 0.3559 0.85632 0.0
C515 C 0.83955 0.31497 0.94689 0.0
O516 O 0.86857 0.32239 0.93846 0.0
C517 C 0.95096 0.4118 0.8635 0.0
C518 C 0.95542 0.46076 0.87897 0.0
C519 C 0.97287 0.43493 0.86972 0.0
N520 N 0.9219 0.42283 0.86978 0.0
N521 N 0.92457 0.4526 0.87775 0.0
C522 C 0.95845 0.37822 0.8567 0.0
H523 H 0.95041 0.36346 0.87691 0.0
H524 H 0.98414 0.37449 0.85284 0.0
H525 H 0.94612 0.37087 0.83465 0.0
C526 C 0.85328 0.3871 0.96814 0.0
N527 N 0.85663 0.38435 0.93608 0.0
N528 N 0.88447 0.39443 0.92723 0.0
C529 C 0.9007 0.40209 0.95435 0.0
C530 C 0.88148 0.39769 0.98149 0.0
C531 C 0.82407 0.37765 0.98609 0.0
H532 H 0.80469 0.37107 0.96973 0.0
H533 H 0.82973 0.35818 1.00255 0.0
H534 H 0.81523 0.39726 1.00068 0.0
O535 O 0.80378 0.38992 0.88348 0.0
O536 O 0.84507 0.41316 0.86009 0.0
H537 H 0.94066 0.42429 0.93235 0.0
H538 H 0.93776 0.42979 0.97507 0.0
C539 C 0.93415 0.41314 0.9551 0.0
H540 H 0.94975 0.39274 0.95909 0.0
H541 H 0.90577 0.46629 0.88577 0.0
O542 O 0.81616 0.32854 0.9335 0.0
C543 C 0.81493 0.40899 0.86282 0.0
Co544 Co 0.1893 0.70395 0.25424 0.0
Co545 Co 0.21521 0.68375 0.19191 0.0
C546 C 0.23745 0.74373 0.2139 0.0
O547 O 0.22235 0.73697 0.23941 0.0
O548 O 0.23363 0.7267 0.18946 0.0
C549 C 0.141 0.74355 0.25876 0.0
O550 O 0.14741 0.74298 0.22808 0.0
C551 C 0.22802 0.67807 0.12469 0.0
C552 C 0.21483 0.6291 0.11505 0.0
C553 C 0.22178 0.65725 0.10031 0.0
N554 N 0.22405 0.66332 0.15266 0.0
N555 N 0.21697 0.63379 0.14676 0.0
C556 C 0.23586 0.71205 0.12132 0.0
H557 H 0.25697 0.71758 0.13591 0.0
H558 H 0.21567 0.72628 0.12994 0.0
H559 H 0.24128 0.71839 0.09625 0.0
C560 C 0.12997 0.67666 0.22947 0.0
N561 N 0.16143 0.682 0.22643 0.0
N562 N 0.16938 0.68199 0.19644 0.0
C563 C 0.14234 0.67941 0.17896 0.0
C564 C 0.11604 0.67601 0.19948 0.0
C565 C 0.11279 0.67548 0.26077 0.0
H566 H 0.12954 0.67679 0.28102 0.0
H567 H 0.0953 0.69473 0.26216 0.0
H568 H 0.09947 0.65324 0.26265 0.0
O569 O 0.21559 0.67411 0.27606 0.0
O570 O 0.23993 0.66365 0.23005 0.0
H571 H 0.11713 0.68425 0.1345 0.0
H572 H 0.15702 0.70034 0.13507 0.0
C573 C 0.14159 0.68098 0.14341 0.0
H574 H 0.15121 0.65892 0.13353 0.0
H575 H 0.2108 0.61757 0.1643 0.0
O576 O 0.15886 0.72855 0.27795 0.0
C577 C 0.23831 0.66146 0.26072 0.0
Co578 Co 0.20162 0.88321 0.33263 0.0
Co579 Co 0.2157 0.89477 0.39957 0.0
C580 C 0.24868 0.84267 0.37365 0.0
O581 O 0.23783 0.85305 0.34727 0.0
O582 O 0.23763 0.85341 0.39962 0.0
C583 C 0.16661 0.83908 0.31617 0.0
O584 O 0.17614 0.83394 0.34547 0.0
C585 C 0.21795 0.89456 0.4683 0.0
C586 C 0.20884 0.9439 0.48059 0.0
C587 C 0.21171 0.91432 0.49358 0.0
N588 N 0.21813 0.91148 0.44137 0.0
N589 N 0.21313 0.94106 0.44886 0.0
C590 C 0.22352 0.86004 0.4696 0.0
H591 H 0.24737 0.85495 0.45984 0.0
H592 H 0.20592 0.84775 0.45455 0.0
H593 H 0.22241 0.85089 0.4943 0.0
C594 C 0.13505 0.89586 0.35239 0.0
N595 N 0.16635 0.8945 0.35908 0.0
N596 N 0.17048 0.89248 0.3897 0.0
C597 C 0.14134 0.8904 0.40373 0.0
C598 C 0.11733 0.89187 0.38032 0.0
C599 C 0.12256 0.90424 0.32008 0.0
H600 H 0.13963 0.9198 0.30765 0.0
H601 H 0.11962 0.88312 0.30519 0.0
H602 H 0.09927 0.916 0.32212 0.0
O603 O 0.22294 0.91992 0.31898 0.0
O604 O 0.24387 0.92079 0.36737 0.0
H605 H 0.14371 0.90624 0.45184 0.0
H606 H 0.11193 0.87871 0.4444 0.0
C607 C 0.13676 0.88489 0.43855 0.0
H608 H 0.1525 0.86568 0.44618 0.0
H609 H 0.21083 0.95897 0.43218 0.0
O610 O 0.17979 0.8606 0.29993 0.0
C611 C 0.24458 0.92903 0.33777 0.0
Co612 Co 0.21006 0.69033 0.80349 0.0
Co613 Co 0.20166 0.70146 0.87598 0.0
C614 C 0.25275 0.73486 0.84564 0.0
O615 O 0.24101 0.72523 0.81924 0.0
O616 O 0.24304 0.72353 0.87192 0.0
C617 C 0.24227 0.66644 0.74512 0.0
O618 O 0.24273 0.65693 0.71537 0.0
C619 C 0.20857 0.69608 0.94459 0.0
C620 C 0.15894 0.6981 0.96122 0.0
C621 C 0.18961 0.69272 0.97136 0.0
N622 N 0.1898 0.7019 0.91954 0.0
N623 N 0.16023 0.70367 0.92967 0.0
C624 C 0.24393 0.69483 0.94259 0.0
H625 H 0.25119 0.67597 0.92599 0.0
H626 H 0.25494 0.69131 0.96626 0.0
H627 H 0.25285 0.71717 0.93263 0.0
C628 C 0.20583 0.62149 0.82601 0.0
N629 N 0.20653 0.65302 0.83079 0.0
N630 N 0.20275 0.65832 0.86143 0.0
C631 C 0.19997 0.63052 0.87685 0.0
C632 C 0.20254 0.60582 0.85527 0.0
C633 C 0.20585 0.60646 0.79392 0.0
H634 H 0.1811 0.60158 0.78676 0.0
H635 H 0.21552 0.62216 0.77581 0.0
H636 H 0.21932 0.58425 0.7943 0.0
O637 O 0.16997 0.71354 0.80249 0.0
O638 O 0.17181 0.73 0.85234 0.0
H639 H 0.17251 0.64368 0.91758 0.0
H640 H 0.18347 0.60342 0.91732 0.0
C641 C 0.19173 0.62732 0.91137 0.0
H642 H 0.21289 0.63276 0.92575 0.0
H643 H 0.14083 0.70735 0.91482 0.0
O644 O 0.21722 0.67836 0.75687 0.0
C645 C 0.16112 0.73255 0.82402 0.0
Co646 Co 0.40198 0.70881 0.34101 0.0
Co647 Co 0.37373 0.6899 0.4035 0.0
C648 C 0.35419 0.75102 0.37861 0.0
O649 O 0.37214 0.74552 0.35459 0.0
O650 O 0.35437 0.73218 0.40198 0.0
C651 C 0.4564 0.74066 0.32868 0.0
O652 O 0.45315 0.74577 0.35943 0.0
C653 C 0.35995 0.68802 0.47075 0.0
C654 C 0.37128 0.6392 0.48293 0.0
C655 C 0.36533 0.66824 0.4962 0.0
N656 N 0.36376 0.67182 0.44362 0.0
N657 N 0.36965 0.64241 0.45102 0.0
C658 C 0.35254 0.72218 0.47213 0.0
H659 H 0.33103 0.72677 0.45787 0.0
H660 H 0.37241 0.73574 0.46165 0.0
H661 H 0.34809 0.73012 0.49692 0.0
C662 C 0.45959 0.6794 0.36834 0.0
N663 N 0.42847 0.68687 0.37034 0.0
N664 N 0.41987 0.68836 0.40011 0.0
C665 C 0.44647 0.68552 0.41822 0.0
C666 C 0.47294 0.67996 0.39861 0.0
C667 C 0.47677 0.67295 0.33771 0.0
H668 H 0.46084 0.67513 0.3169 0.0
H669 H 0.49756 0.68867 0.33529 0.0
H670 H 0.48571 0.64866 0.33794 0.0
O671 O 0.37326 0.67922 0.32101 0.0
O672 O 0.34986 0.66705 0.36697 0.0
H673 H 0.42807 0.67527 0.4645 0.0
H674 H 0.47031 0.68238 0.46352 0.0
C675 C 0.44712 0.6894 0.4535 0.0
H676 H 0.4428 0.71434 0.4591 0.0
H677 H 0.37534 0.62518 0.43437 0.0
O678 O 0.43406 0.72712 0.31347 0.0
C679 C 0.35121 0.66537 0.33634 0.0
Co680 Co 0.37959 0.89324 0.80815 0.0
Co681 Co 0.39013 0.87595 0.87944 0.0
C682 C 0.33577 0.84655 0.84786 0.0
O683 O 0.34378 0.8606 0.8218 0.0
O684 O 0.35032 0.85252 0.87365 0.0
C685 C 0.3544 0.92966 0.754 0.0
O686 O 0.35606 0.94291 0.72584 0.0
C687 C 0.38396 0.87489 0.94826 0.0
C688 C 0.4335 0.8828 0.96298 0.0
C689 C 0.40266 0.88225 0.97431 0.0
N690 N 0.40273 0.87322 0.92248 0.0
N691 N 0.43241 0.87693 0.93152 0.0
C692 C 0.34907 0.86877 0.94751 0.0
H693 H 0.34453 0.84659 0.93463 0.0
H694 H 0.33705 0.88769 0.93419 0.0
H695 H 0.33899 0.86673 0.97186 0.0
C696 C 0.39108 0.95918 0.83577 0.0
N697 N 0.38718 0.9276 0.8381 0.0
N698 N 0.38772 0.92 0.86843 0.0
C699 C 0.38946 0.94656 0.88609 0.0
C700 C 0.39137 0.97255 0.86623 0.0
C701 C 0.40011 0.97599 0.80586 0.0
H702 H 0.39335 0.96305 0.78443 0.0
H703 H 0.39 0.99986 0.8055 0.0
H704 H 0.42624 0.97816 0.80502 0.0
O705 O 0.41673 0.86597 0.80437 0.0
O706 O 0.42104 0.85023 0.85426 0.0
H707 H 0.39239 0.97131 0.93132 0.0
H708 H 0.37072 0.935 0.93151 0.0
C709 C 0.39149 0.94729 0.92159 0.0
H710 H 0.41337 0.93542 0.92913 0.0
H711 H 0.45163 0.87771 0.91588 0.0
O712 O 0.37618 0.91135 0.7633 0.0
C713 C 0.42878 0.84783 0.82497 0.0
Co714 Co 0.39682 0.86673 0.25405 0.0
Co715 Co 0.37331 0.8957 0.19437 0.0
C716 C 0.34413 0.83497 0.21448 0.0
O717 O 0.36242 0.83611 0.23858 0.0
O718 O 0.34697 0.85585 0.19308 0.0
C719 C 0.43802 0.823 0.2612 0.0
O720 O 0.42905 0.82076 0.23132 0.0
C721 C 0.36844 0.89908 0.1274 0.0
C722 C 0.36731 0.94939 0.11607 0.0
C723 C 0.36959 0.91997 0.10241 0.0
N724 N 0.3661 0.91516 0.15467 0.0
N725 N 0.36499 0.94529 0.14791 0.0
C726 C 0.3705 0.86415 0.12591 0.0
H727 H 0.3469 0.85443 0.13144 0.0
H728 H 0.38732 0.85548 0.14411 0.0
H729 H 0.37719 0.85522 0.1021 0.0
C730 C 0.45993 0.88659 0.22921 0.0
N731 N 0.42805 0.88463 0.22641 0.0
N732 N 0.41973 0.89148 0.19735 0.0
C733 C 0.44689 0.89585 0.17999 0.0
C734 C 0.4736 0.89234 0.19966 0.0
C735 C 0.47744 0.88598 0.26022 0.0
H736 H 0.49462 0.90563 0.26093 0.0
H737 H 0.46094 0.88805 0.28071 0.0
H738 H 0.49137 0.86422 0.26222 0.0
O739 O 0.37426 0.89951 0.2761 0.0
O740 O 0.3534 0.92027 0.23232 0.0
H741 H 0.43114 0.92087 0.13895 0.0
H742 H 0.47194 0.90822 0.13689 0.0
C743 C 0.44776 0.90185 0.14502 0.0
H744 H 0.44025 0.88027 0.13257 0.0
H745 H 0.36454 0.96301 0.16499 0.0
O746 O 0.42325 0.84122 0.28003 0.0
C747 C 0.35552 0.91881 0.26295 0.0
Co748 Co 0.21748 0.89735 0.78776 0.0
Co749 Co 0.20029 0.8791 0.7178 0.0
C750 C 0.25421 0.84624 0.74709 0.0
O751 O 0.24863 0.86141 0.77297 0.0
O752 O 0.23911 0.85301 0.72179 0.0
C753 C 0.24918 0.93409 0.83977 0.0
O754 O 0.249 0.94846 0.86742 0.0
C755 C 0.20218 0.87595 0.64893 0.0
C756 C 0.15164 0.88051 0.63641 0.0
C757 C 0.18181 0.87967 0.62343 0.0
N758 N 0.18491 0.8756 0.67578 0.0
N759 N 0.15468 0.87762 0.66819 0.0
C760 C 0.23744 0.87259 0.64825 0.0
H761 H 0.24704 0.87279 0.62364 0.0
H762 H 0.24391 0.85007 0.65952 0.0
H763 H 0.24851 0.89145 0.66256 0.0
C764 C 0.21094 0.96294 0.75913 0.0
N765 N 0.21104 0.93118 0.75706 0.0
N766 N 0.2056 0.92337 0.72724 0.0
C767 C 0.20309 0.94995 0.70953 0.0
C768 C 0.20663 0.97607 0.72906 0.0
C769 C 0.21092 0.98111 0.78952 0.0
H770 H 0.20148 0.96686 0.80939 0.0
H771 H 0.23526 0.98885 0.79476 0.0
H772 H 0.19627 1.00245 0.78704 0.0
O773 O 0.17844 0.87274 0.79495 0.0
O774 O 0.1698 0.85595 0.74593 0.0
H775 H 0.17486 0.93907 0.66884 0.0
H776 H 0.19681 0.97505 0.66519 0.0
C777 C 0.19759 0.95076 0.67436 0.0
H778 H 0.2169 0.93816 0.66206 0.0
H779 H 0.13629 0.87872 0.6848 0.0
O780 O 0.22559 0.91729 0.83152 0.0
C781 C 0.16401 0.85467 0.77574 0.0
Co782 Co 0.3766 0.68548 0.79109 0.0
Co783 Co 0.38624 0.70031 0.72075 0.0
C784 C 0.33611 0.73385 0.75094 0.0
O785 O 0.34705 0.72271 0.7771 0.0
O786 O 0.34585 0.72313 0.72449 0.0
C787 C 0.33895 0.65487 0.83947 0.0
O788 O 0.33331 0.6416 0.86712 0.0
C789 C 0.38054 0.70126 0.6525 0.0
C790 C 0.43045 0.70028 0.6366 0.0
C791 C 0.39953 0.69892 0.62577 0.0
N792 N 0.39937 0.70314 0.67808 0.0
N793 N 0.42917 0.70305 0.66852 0.0
C794 C 0.34512 0.70237 0.65413 0.0
H795 H 0.33785 0.72585 0.66254 0.0
H796 H 0.33632 0.68511 0.6718 0.0
H797 H 0.33392 0.69822 0.63068 0.0
C798 C 0.38303 0.61816 0.76531 0.0
N799 N 0.38091 0.64979 0.7621 0.0
N800 N 0.3828 0.65658 0.73163 0.0
C801 C 0.38431 0.6296 0.7146 0.0
C802 C 0.38414 0.60409 0.73526 0.0
C803 C 0.388 0.60135 0.79614 0.0
H804 H 0.38268 0.6162 0.81687 0.0
H805 H 0.3737 0.57959 0.79683 0.0
H806 H 0.41321 0.59438 0.79773 0.0
O807 O 0.41713 0.70678 0.79626 0.0
O808 O 0.41683 0.72593 0.74741 0.0
H809 H 0.40973 0.64199 0.67231 0.0
H810 H 0.39257 0.60369 0.6709 0.0
C811 C 0.38879 0.62798 0.67923 0.0
H812 H 0.36766 0.63762 0.66723 0.0
H813 H 0.44855 0.70356 0.68386 0.0
O814 O 0.36507 0.66885 0.83449 0.0
C815 C 0.42724 0.72649 0.77599 0.0
C816 C 0.29855 0.31094 0.65241 0.0
C817 C 0.28833 0.33293 0.67528 0.0
C818 C 0.28021 0.28455 0.64464 0.0
C819 C 0.25065 0.27886 0.6592 0.0
H820 H 0.32201 0.3127 0.64211 0.0
H821 H 0.29053 0.26714 0.62904 0.0
S822 S 0.20974 0.33275 0.71527 0.0
N823 N 0.24416 0.34976 0.70834 0.0
N824 N 0.20973 0.30055 0.69363 0.0
C825 C 0.23849 0.30258 0.67918 0.0
C826 C 0.25732 0.32939 0.68731 0.0
C827 C 0.81677 0.78544 0.1584 0.0
C828 C 0.83955 0.79459 0.18118 0.0
C829 C 0.79043 0.80426 0.15105 0.0
C830 C 0.78528 0.83338 0.16599 0.0
H831 H 0.81818 0.76264 0.14732 0.0
H832 H 0.77286 0.79486 0.13491 0.0
S833 S 0.84033 0.87089 0.22361 0.0
N834 N 0.85698 0.83691 0.21569 0.0
N835 N 0.80779 0.87204 0.202 0.0
C836 C 0.80931 0.84409 0.18673 0.0
C837 C 0.83621 0.82483 0.19429 0.0
C838 C 0.24127 0.27979 0.91881 0.0
C839 C 0.25321 0.30584 0.93553 0.0
C840 C 0.25947 0.25257 0.91442 0.0
C841 C 0.29053 0.24996 0.92654 0.0
H842 H 0.21874 0.28129 0.90667 0.0
H843 H 0.24976 0.23429 0.89949 0.0
S844 S 0.33031 0.30893 0.97778 0.0
N845 N 0.29618 0.32518 0.96855 0.0
N846 N 0.33022 0.27435 0.96035 0.0
C847 C 0.30141 0.27456 0.94608 0.0
C848 C 0.28283 0.3023 0.95056 0.0
C849 C 0.78627 0.83449 0.42515 0.0
C850 C 0.81456 0.82216 0.43758 0.0
C851 C 0.75844 0.81631 0.42321 0.0
C852 C 0.75746 0.78493 0.43371 0.0
H853 H 0.78627 0.85734 0.41409 0.0
H854 H 0.73825 0.82633 0.41115 0.0
S855 S 0.82323 0.74385 0.4746 0.0
N856 N 0.83825 0.77831 0.46534 0.0
N857 N 0.78631 0.74437 0.46192 0.0
C858 C 0.78457 0.77361 0.44948 0.0
C859 C 0.81293 0.79212 0.45135 0.0
C860 C 0.64048 0.29914 0.30242 0.0
C861 C 0.65619 0.32792 0.30679 0.0
C862 C 0.64633 0.28009 0.27562 0.0
C863 C 0.66854 0.28863 0.25193 0.0
H864 H 0.62504 0.29021 0.32097 0.0
H865 H 0.63484 0.25747 0.27469 0.0
S866 S 0.7136 0.36339 0.24999 0.0
N867 N 0.69275 0.36537 0.28323 0.0
N868 N 0.70391 0.32978 0.23332 0.0
C869 C 0.68253 0.31853 0.25472 0.0
C870 C 0.67632 0.33807 0.28192 0.0
C871 C 0.80479 0.1397 0.78049 0.0
C872 C 0.79467 0.15757 0.7542 0.0
C873 C 0.78453 0.13319 0.8064 0.0
C874 C 0.75307 0.14419 0.80746 0.0
H875 H 0.82921 0.13234 0.78218 0.0
H876 H 0.79443 0.12136 0.82688 0.0
S877 S 0.71293 0.18734 0.74231 0.0
N878 N 0.74934 0.18229 0.72901 0.0
N879 N 0.7117 0.17045 0.77765 0.0
C880 C 0.7417 0.15939 0.77996 0.0
C881 C 0.76235 0.16601 0.75347 0.0
C882 C 0.94153 0.28174 0.31682 0.0
C883 C 0.92036 0.28873 0.34191 0.0
C884 C 0.9459 0.30219 0.29077 0.0
C885 C 0.9297 0.3309 0.2886 0.0
H886 H 0.9532 0.25927 0.31602 0.0
H887 H 0.96049 0.29441 0.27105 0.0
S888 S 0.87454 0.36248 0.34968 0.0
N889 N 0.88545 0.32835 0.36418 0.0
N890 N 0.89377 0.36642 0.31563 0.0
C891 C 0.91061 0.33943 0.31483 0.0
C892 C 0.9059 0.31849 0.34126 0.0
C893 C 0.80599 0.43131 0.80798 0.0
C894 C 0.79324 0.42096 0.83724 0.0
C895 C 0.78727 0.43331 0.78035 0.0
C896 C 0.75485 0.42527 0.78063 0.0
H897 H 0.83119 0.43529 0.80557 0.0
H898 H 0.79897 0.43856 0.75797 0.0
S899 S 0.70824 0.40403 0.8526 0.0
N900 N 0.74475 0.40816 0.86587 0.0
N901 N 0.70982 0.41184 0.81409 0.0
C902 C 0.74101 0.41877 0.8105 0.0
C903 C 0.76012 0.41656 0.83869 0.0
C904 C 0.29698 0.65291 0.26526 0.0
C905 C 0.26675 0.65144 0.27939 0.0
C906 C 0.3246 0.65401 0.2839 0.0
C907 C 0.32336 0.65365 0.31757 0.0
H908 H 0.29936 0.65599 0.23974 0.0
H909 H 0.34695 0.65761 0.27172 0.0
S910 S 0.25055 0.64211 0.366 0.0
N911 N 0.23769 0.64374 0.32891 0.0
N912 N 0.28937 0.64586 0.3638 0.0
C913 C 0.29356 0.64833 0.33177 0.0
C914 C 0.26538 0.64726 0.31276 0.0
C915 C 0.27476 0.94677 0.28941 0.0
C916 C 0.27479 0.93957 0.32231 0.0
C917 C 0.30217 0.94377 0.27055 0.0
C918 C 0.33092 0.93368 0.28382 0.0
H919 H 0.25269 0.95172 0.27739 0.0
H920 H 0.29992 0.94643 0.24499 0.0
S921 S 0.34601 0.92109 0.37018 0.0
N922 N 0.30778 0.92855 0.36828 0.0
N923 N 0.35929 0.92366 0.33324 0.0
C924 C 0.33234 0.93115 0.31741 0.0
C925 C 0.30433 0.93399 0.33657 0.0
C926 C 0.15019 0.78926 0.83419 0.0
C927 C 0.14752 0.76321 0.81378 0.0
C928 C 0.15085 0.81987 0.8221 0.0
C929 C 0.14888 0.82576 0.78907 0.0
H930 H 0.15526 0.78605 0.85927 0.0
H931 H 0.15637 0.83864 0.83851 0.0
S932 S 0.13011 0.76656 0.72712 0.0
N933 N 0.13429 0.74605 0.76014 0.0
N934 N 0.1355 0.8034 0.73746 0.0
C935 C 0.14072 0.80036 0.76926 0.0
C936 C 0.14008 0.76915 0.7816 0.0
C937 C 0.44433 0.78202 0.76778 0.0
C938 C 0.44237 0.75584 0.78805 0.0
C939 C 0.44483 0.81252 0.78013 0.0
C940 C 0.44328 0.8181 0.81325 0.0
H941 H 0.44199 0.77925 0.74223 0.0
H942 H 0.44289 0.83171 0.76344 0.0
S943 S 0.44982 0.75758 0.87627 0.0
N944 N 0.44796 0.73755 0.8427 0.0
N945 N 0.44865 0.79472 0.86583 0.0
C946 C 0.44704 0.79217 0.83358 0.0
C947 C 0.44662 0.76106 0.82098 0.0
C948 C 0.24723 0.30954 0.79765 0.0
C949 C 0.22066 0.31778 0.81628 0.0
C950 C 0.24672 0.28324 0.77701 0.0
C951 C 0.21981 0.26361 0.77441 0.0
H952 H 0.26843 0.32376 0.79862 0.0
H953 H 0.26742 0.27869 0.76252 0.0
S954 S 0.14532 0.27268 0.82077 0.0
N955 N 0.16751 0.30231 0.83229 0.0
N956 N 0.16672 0.25358 0.7943 0.0
C957 C 0.19358 0.27111 0.79374 0.0
C958 C 0.19397 0.29788 0.81438 0.0
C959 C 0.79624 0.71975 0.33426 0.0
C960 C 0.7716 0.69786 0.33108 0.0
C961 C 0.82209 0.72038 0.31309 0.0
C962 C 0.82443 0.69967 0.28693 0.0
H963 H 0.79528 0.73704 0.35312 0.0
H964 H 0.84002 0.7381 0.31688 0.0
S965 S 0.76641 0.6368 0.26861 0.0
N966 N 0.7516 0.65389 0.30067 0.0
N967 N 0.79969 0.65545 0.26021 0.0
C968 C 0.80023 0.67698 0.28397 0.0
C969 C 0.77399 0.67604 0.30609 0.0
C970 C 0.40177 0.2781 0.82016 0.0
C971 C 0.3817 0.25213 0.81458 0.0
C972 C 0.40319 0.30373 0.79887 0.0
C973 C 0.38503 0.30432 0.7708 0.0
H974 H 0.4153 0.27946 0.842 0.0
H975 H 0.41748 0.32383 0.80516 0.0
S976 S 0.33035 0.24209 0.74342 0.0
N977 N 0.34454 0.22855 0.77733 0.0
N978 N 0.34736 0.27643 0.73793 0.0
C979 C 0.36601 0.27813 0.76421 0.0
C980 C 0.3644 0.25214 0.7858 0.0
C981 C 0.79902 0.88107 0.31361 0.0
C982 C 0.82003 0.85544 0.31395 0.0
C983 C 0.77112 0.88112 0.29519 0.0
C984 C 0.76241 0.85561 0.27571 0.0
H985 H 0.80391 0.90146 0.32807 0.0
H986 H 0.75648 0.90183 0.29591 0.0
S987 S 0.80961 0.78308 0.26618 0.0
N988 N 0.83009 0.80379 0.29224 0.0
N989 N 0.77821 0.80412 0.25727 0.0
C990 C 0.78315 0.82972 0.27572 0.0
C991 C 0.81164 0.82957 0.2948 0.0
C992 C 0.76492 0.18805 0.2991 0.0
C993 C 0.7752 0.19667 0.26817 0.0
C994 C 0.78557 0.18856 0.32573 0.0
C995 C 0.81779 0.19671 0.32259 0.0
H996 H 0.74032 0.18211 0.30312 0.0
H997 H 0.77614 0.18281 0.34904 0.0
S998 S 0.857 0.22173 0.24748 0.0
N999 N 0.82022 0.21424 0.23668 0.0
N1000 N 0.85875 0.21399 0.28598 0.0
C1001 C 0.82854 0.20462 0.29177 0.0
C1002 C 0.80743 0.20489 0.26487 0.0
C1003 C 0.85174 0.30848 0.80296 0.0
C1004 C 0.87709 0.31199 0.82449 0.0
C1005 C 0.85369 0.28864 0.776 0.0
C1006 C 0.88056 0.27 0.76966 0.0
H1007 H 0.83021 0.32169 0.80665 0.0
H1008 H 0.83353 0.28753 0.76026 0.0
S1009 S 0.95429 0.27142 0.8179 0.0
N1010 N 0.93089 0.29649 0.83637 0.0
N1011 N 0.93387 0.25783 0.78733 0.0
C1012 C 0.9063 0.27362 0.79089 0.0
C1013 C 0.90472 0.29481 0.81777 0.0
C1014 C 0.78135 0.39505 0.31318 0.0
C1015 C 0.76982 0.36695 0.32655 0.0
C1016 C 0.80192 0.3954 0.28662 0.0
C1017 C 0.8124 0.36768 0.27168 0.0
H1018 H 0.77417 0.41729 0.32309 0.0
H1019 H 0.80996 0.4179 0.27796 0.0
S1020 S 0.78951 0.28738 0.2968 0.0
N1021 N 0.77061 0.31026 0.32215 0.0
N1022 N 0.80938 0.31094 0.2728 0.0
C1023 C 0.80115 0.33929 0.28475 0.0
C1024 C 0.78 0.33892 0.31188 0.0
C1025 C 0.68177 0.27697 0.81749 0.0
C1026 C 0.70754 0.25677 0.82296 0.0
C1027 C 0.68145 0.29826 0.79163 0.0
C1028 C 0.70667 0.30024 0.76946 0.0
H1029 H 0.66161 0.27648 0.83347 0.0
H1030 H 0.6613 0.31363 0.78934 0.0
S1031 S 0.77799 0.24957 0.77038 0.0
N1032 N 0.75788 0.23854 0.80221 0.0
N1033 N 0.75722 0.27785 0.75386 0.0
C1034 C 0.73217 0.27943 0.77414 0.0
C1035 C 0.73261 0.258 0.80068 0.0
C1036 C 0.30911 0.79322 0.24035 0.0
C1037 C 0.31717 0.81123 0.21321 0.0
C1038 C 0.28267 0.77276 0.24082 0.0
C1039 C 0.26318 0.76843 0.21388 0.0
H1040 H 0.32326 0.79495 0.26168 0.0
H1041 H 0.27806 0.75947 0.26231 0.0
S1042 S 0.2733 0.8091 0.13638 0.0
N1043 N 0.30228 0.82306 0.15856 0.0
N1044 N 0.25409 0.78387 0.15909 0.0
C1045 C 0.27106 0.78585 0.18647 0.0
C1046 C 0.29751 0.8073 0.18621 0.0
C1047 C 0.27771 0.79658 0.39801 0.0
C1048 C 0.27591 0.81976 0.37427 0.0
C1049 C 0.30331 0.77539 0.39955 0.0
C1050 C 0.32901 0.77641 0.37777 0.0
H1051 H 0.25882 0.79442 0.41539 0.0
H1052 H 0.3025 0.75758 0.41781 0.0
S1053 S 0.33868 0.83637 0.31444 0.0
N1054 N 0.30398 0.84462 0.33051 0.0
N1055 N 0.35197 0.80532 0.33352 0.0
C1056 C 0.32809 0.80038 0.35464 0.0
C1057 C 0.30175 0.82181 0.3529 0.0
C1058 C 0.26356 0.7919 0.83542 0.0
C1059 C 0.27448 0.7627 0.84617 0.0
C1060 C 0.28257 0.81907 0.8372 0.0
C1061 C 0.31418 0.81819 0.84782 0.0
H1062 H 0.23972 0.79396 0.82625 0.0
H1063 H 0.27223 0.84065 0.82982 0.0
S1064 S 0.35343 0.74791 0.88133 0.0
N1065 N 0.31777 0.73533 0.8716 0.0
N1066 N 0.35459 0.78522 0.87136 0.0
C1067 C 0.32503 0.78913 0.85942 0.0
C1068 C 0.30509 0.76177 0.85923 0.0
C1069 C 0.32055 0.7881 0.76943 0.0
C1070 C 0.31411 0.76153 0.75071 0.0
C1071 C 0.302 0.81552 0.76718 0.0
C1072 C 0.27551 0.81769 0.74705 0.0
H1073 H 0.34068 0.78808 0.78534 0.0
H1074 H 0.30846 0.83525 0.78148 0.0
S1075 S 0.24816 0.75429 0.69295 0.0
N1076 N 0.27961 0.73937 0.71048 0.0
N1077 N 0.24403 0.78984 0.70768 0.0
C1078 C 0.26893 0.79115 0.72805 0.0
C1079 C 0.28826 0.76347 0.72966 0.0
C1080 C 0.96209 0.73529 0.37899 0.0
C1081 C 0.93258 0.73001 0.39362 0.0
C1082 C 0.96433 0.73342 0.34569 0.0
C1083 C 0.9394 0.72013 0.32843 0.0
H1084 H 0.9805 0.74746 0.39185 0.0
H1085 H 0.98437 0.74387 0.33353 0.0
S1086 S 0.87002 0.67857 0.36228 0.0
N1087 N 0.88678 0.69606 0.39306 0.0
N1088 N 0.89238 0.68701 0.33103 0.0
C1089 C 0.91538 0.7043 0.3452 0.0
C1090 C 0.91255 0.70873 0.37859 0.0
C1091 C 0.36581 0.45973 0.82287 0.0
C1092 C 0.38265 0.4324 0.81617 0.0
C1093 C 0.34292 0.4586 0.84681 0.0
C1094 C 0.33961 0.43105 0.86475 0.0
H1095 H 0.3641 0.47792 0.80503 0.0
H1096 H 0.32449 0.47613 0.84681 0.0
S1097 S 0.39805 0.36741 0.87121 0.0
N1098 N 0.40918 0.38799 0.83977 0.0
N1099 N 0.36704 0.38571 0.88627 0.0
C1100 C 0.36532 0.41047 0.86611 0.0
C1101 C 0.38806 0.41181 0.84135 0.0
C1102 C 0.67521 0.71974 0.26447 0.0
C1103 C 0.65209 0.72707 0.28728 0.0
C1104 C 0.67324 0.73257 0.23399 0.0
C1105 C 0.64882 0.75371 0.22716 0.0
H1106 H 0.69691 0.70818 0.27145 0.0
H1107 H 0.69387 0.73103 0.21869 0.0
S1108 S 0.57559 0.7658 0.27386 0.0
N1109 N 0.59904 0.74575 0.29762 0.0
N1110 N 0.59512 0.76968 0.23988 0.0
C1111 C 0.62183 0.75354 0.24671 0.0
C1112 C 0.62393 0.74089 0.27772 0.0
C1113 C 0.35246 0.12344 0.76982 0.0
C1114 C 0.33553 0.11326 0.79678 0.0
C1115 C 0.33573 0.1385 0.74563 0.0
C1116 C 0.3026 0.13929 0.74735 0.0
H1117 H 0.37769 0.12767 0.77135 0.0
H1118 H 0.34853 0.15284 0.72864 0.0
S1119 S 0.25158 0.09127 0.80029 0.0
N1120 N 0.28783 0.08684 0.81409 0.0
N1121 N 0.25501 0.11433 0.76892 0.0
C1122 C 0.28691 0.11858 0.76815 0.0
C1123 C 0.30444 0.10348 0.79212 0.0
C1124 C 0.28672 0.90774 0.8053 0.0
C1125 C 0.27698 0.93558 0.81906 0.0
C1126 C 0.31044 0.90686 0.78256 0.0
C1127 C 0.32674 0.93381 0.77417 0.0
H1128 H 0.27617 0.88645 0.81312 0.0
H1129 H 0.31677 0.88484 0.77181 0.0
S1130 S 0.31395 1.01315 0.80688 0.0
N1131 N 0.28762 0.99111 0.82556 0.0
N1132 N 0.33289 0.98983 0.7819 0.0
C1133 C 0.31823 0.96233 0.78834 0.0
C1134 C 0.29359 0.96308 0.81168 0.0
C1135 C 0.12172 0.79612 0.25443 0.0
C1136 C 0.11978 0.76765 0.27094 0.0
C1137 C 0.13457 0.82187 0.27012 0.0
C1138 C 0.14176 0.81957 0.30268 0.0
H1139 H 0.12119 0.7966 0.22861 0.0
H1140 H 0.14233 0.84172 0.25611 0.0
S1141 S 0.11374 0.75776 0.35791 0.0
N1142 N 0.10691 0.74391 0.3218 0.0
N1143 N 0.12894 0.79299 0.35272 0.0
C1144 C 0.12837 0.79493 0.32039 0.0
C1145 C 0.11609 0.76882 0.30396 0.0
C1146 C 0.28125 0.6881 0.7816 0.0
C1147 C 0.26968 0.66202 0.76564 0.0
C1148 C 0.30251 0.68497 0.80658 0.0
C1149 C 0.31448 0.65584 0.81504 0.0
H1150 H 0.27337 0.71116 0.77482 0.0
H1151 H 0.31009 0.70568 0.81907 0.0
S1152 S 0.29461 0.57999 0.77759 0.0
N1153 N 0.27349 0.60586 0.75764 0.0
N1154 N 0.31422 0.59994 0.80493 0.0
C1155 C 0.30414 0.62931 0.79841 0.0
C1156 C 0.28201 0.63249 0.77302 0.0
C1157 C 0.47664 0.81052 0.30322 0.0
C1158 C 0.46382 0.80386 0.27304 0.0
C1159 C 0.48842 0.78617 0.32171 0.0
C1160 C 0.48249 0.75563 0.31126 0.0
H1161 H 0.47375 0.83331 0.31408 0.0
H1162 H 0.4931 0.79082 0.34665 0.0
S1163 S 0.47378 0.73015 0.22803 0.0
N1164 N 0.46437 0.76761 0.22802 0.0
N1165 N 0.48487 0.72197 0.26484 0.0
C1166 C 0.48233 0.75068 0.27834 0.0
C1167 C 0.47103 0.77507 0.25876 0.0
C1168 C 0.82982 0.23317 0.94374 0.0
C1169 C 0.79771 0.23343 0.95223 0.0
C1170 C 0.84835 0.25939 0.95003 0.0
C1171 C 0.83412 0.28582 0.96365 0.0
H1172 H 0.83914 0.21553 0.92777 0.0
H1173 H 0.87113 0.26118 0.93823 0.0
S1174 S 0.75809 0.28869 1.00698 0.0
N1175 N 0.75792 0.25471 0.98829 0.0
N1176 N 0.79252 0.30507 0.99842 0.0
C1177 C 0.80571 0.28221 0.98032 0.0
C1178 C 0.78713 0.25536 0.97465 0.0
C1179 C 0.85416 0.31192 0.62612 0.0
C1180 C 0.84426 0.28285 0.6144 0.0
C1181 C 0.83116 0.33168 0.63887 0.0
C1182 C 0.799 0.3238 0.6354 0.0
H1183 H 0.87844 0.31528 0.63367 0.0
H1184 H 0.83859 0.35035 0.65462 0.0
S1185 S 0.76669 0.26584 0.57856 0.0
N1186 N 0.80495 0.25828 0.58056 0.0
N1187 N 0.76064 0.29624 0.60211 0.0
C1188 C 0.79068 0.30175 0.6121 0.0
C1189 C 0.81442 0.28167 0.60021 0.0
C1190 C 0.82584 0.28508 0.11674 0.0
C1191 C 0.84783 0.27706 0.14044 0.0
C1192 C 0.80439 0.26267 0.10609 0.0
C1193 C 0.80355 0.23376 0.12173 0.0
H1194 H 0.82217 0.30921 0.10994 0.0
H1195 H 0.78409 0.27058 0.09265 0.0
S1196 S 0.86943 0.19684 0.16473 0.0
N1197 N 0.87816 0.2345 0.164 0.0
N1198 N 0.83621 0.19295 0.14443 0.0
C1199 C 0.8317 0.22298 0.13511 0.0
C1200 C 0.85397 0.24532 0.1459 0.0
C1201 C 0.75843 0.27908 0.47672 0.0
C1202 C 0.73698 0.27094 0.45252 0.0
C1203 C 0.7818 0.25798 0.48551 0.0
C1204 C 0.78433 0.22987 0.46864 0.0
H1205 H 0.76025 0.30293 0.4852 0.0
H1206 H 0.80161 0.26662 0.49931 0.0
S1207 S 0.72241 0.19166 0.42059 0.0
N1208 N 0.71057 0.22819 0.42475 0.0
N1209 N 0.75538 0.18876 0.44142 0.0
C1210 C 0.75729 0.2181 0.45365 0.0
C1211 C 0.73342 0.23935 0.44446 0.0
C1212 C 0.18227 1.02714 0.709 0.0
C1213 C 0.20872 1.01025 0.71987 0.0
C1214 C 0.18424 0.05948 0.70152 0.0
C1215 C 0.21282 0.0767 0.70425 0.0
H1216 H 0.1597 1.01535 0.70662 0.0
H1217 H 0.16304 0.071 0.69331 0.0
S1218 S 0.28981 0.04188 0.7289 0.0
N1219 N 0.26466 1.01246 0.73127 0.0
N1220 N 0.26885 0.0721 0.71694 0.0
C1221 C 0.23966 0.05932 0.71402 0.0
C1222 C 0.23745 1.02661 0.722 0.0
C1223 C 0.06863 0.70816 0.18208 0.0
C1224 C 0.08091 0.67961 0.19328 0.0
C1225 C 1.0357 0.71448 0.18239 0.0
C1226 C 1.01333 0.69264 0.19406 0.0
H1227 H 0.08473 0.7264 0.17439 0.0
H1228 H 1.02776 0.73708 0.17413 0.0
S1229 S 1.0327 0.61334 0.22373 0.0
N1230 N 0.06749 0.62843 0.21424 0.0
N1231 N 1.00624 0.64043 0.21537 0.0
C1232 C 1.02521 0.66348 0.20389 0.0
C1233 C 0.05871 0.65702 0.2035 0.0
C1234 C 0.40573 0.5483 0.73885 0.0
C1235 C 0.38331 0.56967 0.72681 0.0
C1236 C 0.40438 0.51597 0.73137 0.0
C1237 C 0.38052 0.50352 0.71157 0.0
H1238 H 0.42443 0.55657 0.7543 0.0
H1239 H 0.42149 0.50042 0.7421 0.0
S1240 S 0.31629 0.54919 0.6737 0.0
N1241 N 0.33649 0.57551 0.69406 0.0
N1242 N 0.33446 0.51559 0.67957 0.0
C1243 C 0.35841 0.52474 0.699 0.0
C1244 C 0.35968 0.55746 0.70667 0.0
C1245 C 0.52833 0.91202 0.18068 0.0
C1246 C 0.50843 0.88769 0.1916 0.0
C1247 C 0.56174 0.90808 0.17785 0.0
C1248 C 0.57711 0.87984 0.18637 0.0
H1249 H 0.51816 0.93453 0.17509 0.0
H1250 H 0.5757 0.9276 0.16929 0.0
S1251 S 0.53498 0.80842 0.21416 0.0
N1252 N 0.50633 0.83367 0.20808 0.0
N1253 N 0.56816 0.82703 0.20565 0.0
C1254 C 0.55701 0.8553 0.19654 0.0
C1255 C 0.52316 0.85907 0.19851 0.0
C1256 C 0.22438 0.52895 0.89815 0.0
C1257 C 0.20937 0.50506 0.88051 0.0
C1258 C 0.22243 0.56079 0.88934 0.0
C1259 C 0.20424 0.57104 0.86314 0.0
H1260 H 0.23742 0.52347 0.91943 0.0
H1261 H 0.23536 0.57765 0.9035 0.0
S1262 S 0.15863 0.51853 0.80951 0.0
N1263 N 0.17645 0.49445 0.83429 0.0
N1264 N 0.16894 0.554 0.82093 0.0
C1265 C 0.18827 0.54755 0.84581 0.0
C1266 C 0.19161 0.5149 0.85379 0.0
C1267 C 0.55359 0.71603 0.42069 0.0
C1268 C 0.57594 0.69374 0.41015 0.0
C1269 C 0.52052 0.71072 0.41859 0.0
C1270 C 0.50799 0.68278 0.40591 0.0
H1271 H 0.56166 0.73808 0.43034 0.0
H1272 H 0.50462 0.72921 0.42584 0.0
S1273 S 0.55574 0.61559 0.37742 0.0
N1274 N 0.58249 0.64184 0.38782 0.0
N1275 N 0.52099 0.6315 0.38509 0.0
C1276 C 0.53001 0.65975 0.39669 0.0
C1277 C 0.56366 0.66524 0.39861 0.0
C1278 C 0.36243 0.04802 0.90642 0.0
C1279 C 0.38256 0.07169 0.89462 0.0
C1280 C 0.3655 1.01656 0.89689 0.0
C1281 C 0.38964 1.00664 0.87594 0.0
H1282 H 0.34365 0.05381 0.9229 0.0
H1283 H 0.34846 0.99978 0.90589 0.0
S1284 S 0.45043 0.05861 0.83978 0.0
N1285 N 0.4278 0.0826 0.86048 0.0
N1286 N 0.43577 1.02329 0.84566 0.0
C1287 C 0.41089 1.0298 0.86502 0.0
C1288 C 0.40699 0.06217 0.87377 0.0
C1289 C 0.06245 0.9012 0.40599 0.0
C1290 C 0.08157 0.88627 0.38282 0.0
C1291 C 1.02903 0.89663 0.40739 0.0
C1292 C 1.01286 0.87709 0.38554 0.0
H1293 H 0.0733 0.91686 0.42305 0.0
H1294 H 1.01577 0.90836 0.42597 0.0
S1295 S 0.05122 0.83245 0.32014 0.0
N1296 N 0.08093 0.84992 0.33835 0.0
N1297 N 1.01906 0.84375 0.33921 0.0
C1298 C 1.03165 0.8625 0.36208 0.0
C1299 C 0.06554 0.86647 0.36117 0.0
C1300 C 0.69849 0.15903 0.06539 0.0
C1301 C 0.68249 0.1851 0.07814 0.0
C1302 C 0.70083 0.1539 1.03198 0.0
C1303 C 0.68792 0.17496 1.00951 0.0
H1304 H 0.71031 0.14299 0.08133 0.0
H1305 H 0.71321 0.13334 1.02381 0.0
S1306 S 0.64102 0.24543 1.03044 0.0
N1307 N 0.64994 0.22995 0.06531 0.0
N1308 N 0.65759 0.22271 1.00338 0.0
C1309 C 0.67105 0.2006 1.02214 0.0
C1310 C 0.66758 0.20505 0.05606 0.0
C1311 C 0.92367 0.20443 0.5366 0.0
C1312 C 0.90847 0.18437 0.51463 0.0
C1313 C 0.92071 0.2003 0.57005 0.0
C1314 C 0.90235 0.17592 0.58324 0.0
H1315 H 0.93679 0.22444 0.52787 0.0
H1316 H 0.93133 0.21748 0.58569 0.0
S1317 S 0.85992 0.11531 0.53652 0.0
N1318 N 0.87604 0.13793 0.50899 0.0
N1319 N 0.8707 0.13007 0.57125 0.0
C1320 C 0.88853 0.15474 0.56155 0.0
C1321 C 0.89161 0.1589 0.52754 0.0
C1322 C 0.91452 0.38104 1.0296 0.0
C1323 C 0.88966 0.39905 1.01687 0.0
C1324 C 0.91957 0.37844 0.06299 0.0
C1325 C 0.89965 0.39316 0.08567 0.0
H1326 H 0.92976 0.36803 1.01363 0.0
H1327 H 0.93942 0.36469 0.07085 0.0
S1328 S 0.83378 0.44677 0.06488 0.0
N1329 N 0.84792 0.43571 1.02994 0.0
N1330 N 0.85514 0.42844 0.09187 0.0
C1331 C 0.8756 0.41238 0.07304 0.0
C1332 C 0.87112 0.41578 1.03908 0.0
C1333 C 0.70989 0.39731 0.52611 0.0
C1334 C 0.6829 0.38308 0.51276 0.0
C1335 C 0.71364 0.40122 0.55943 0.0
C1336 C 0.69141 0.38975 0.582 0.0
H1337 H 0.72872 0.40541 0.51061 0.0
H1338 H 0.73441 0.41364 0.56692 0.0
S1339 S 0.61544 0.35129 0.55968 0.0
N1340 N 0.63175 0.36019 0.52506 0.0
N1341 N 0.64083 0.36287 0.58707 0.0
C1342 C 0.66417 0.37535 0.56876 0.0
C1343 C 0.65958 0.37294 0.53462 0.0
C1344 C 0.89638 0.03798 0.41264 0.0
C1345 C 0.90389 1.01238 0.3932 0.0
C1346 C 0.90799 0.06777 0.4058 0.0
C1347 C 0.92745 0.07323 0.37911 0.0
H1348 H 0.88094 1.03507 0.4331 0.0
H1349 H 0.90066 0.08687 0.42096 0.0
S1350 S 0.95849 1.01362 0.32355 0.0
N1351 N 0.93571 0.99384 0.34846 0.0
N1352 N 0.9564 0.05049 0.33498 0.0
C1353 C 0.9366 0.04777 0.36039 0.0
C1354 C 0.92496 1.01718 0.36748 0.0
C1355 C 1.03932 0.39528 0.91278 0.0
C1356 C 0.06595 0.40404 0.89496 0.0
C1357 C 1.00953 0.40699 0.90541 0.0
C1358 C 1.00526 0.42805 0.88008 0.0
H1359 H 1.04135 0.37855 0.93205 0.0
H1360 H 0.98946 0.39833 0.91874 0.0
S1361 S 0.06779 0.46208 0.82907 0.0
N1362 N 0.0867 0.43811 0.85321 0.0
N1363 N 1.03001 0.45936 0.8389 0.0
C1364 C 1.03172 0.43835 0.86308 0.0
C1365 C 0.06229 0.42647 0.87061 0.0
C1366 C 0.66159 0.53947 0.4167 0.0
C1367 C 0.68424 0.51572 0.41335 0.0
C1368 C 0.66894 0.56757 0.43187 0.0
C1369 C 0.69954 0.57354 0.44327 0.0
H1370 H 0.63813 0.53677 0.40672 0.0
H1371 H 0.65108 0.58547 0.43277 0.0
S1372 S 0.76477 0.51667 0.4492 0.0
N1373 N 0.73627 0.4976 0.43062 0.0
N1374 N 0.75092 0.55213 0.45571 0.0
C1375 C 0.72157 0.54932 0.4429 0.0
C1376 C 0.71379 0.52004 0.42854 0.0
C1377 C 0.53327 0.15405 0.91274 0.0
C1378 C 0.55786 0.17554 0.90698 0.0
C1379 C 0.50606 0.16272 0.92947 0.0
C1380 C 0.50178 0.19345 0.94015 0.0
H1381 H 0.53469 0.1304 0.90367 0.0
H1382 H 0.48763 0.14558 0.93256 0.0
S1383 S 0.56132 0.25663 0.93938 0.0
N1384 N 0.57862 0.22722 0.9209 0.0
N1385 N 0.52552 0.24413 0.94868 0.0
C1386 C 0.52677 0.21456 0.93697 0.0
C1387 C 0.55524 0.20549 0.92114 0.0
C1388 C 0.89496 0.56489 0.15825 0.0
C1389 C 0.86784 0.5808 0.16865 0.0
C1390 C 0.90406 0.53678 0.17268 0.0
C1391 C 0.88632 0.52386 0.19789 0.0
H1392 H 0.91038 0.57533 0.14053 0.0
H1393 H 0.92556 0.52549 0.16462 0.0
S1394 S 0.81293 0.55637 0.23297 0.0
N1395 N 0.82269 0.58124 0.20449 0.0
N1396 N 0.84009 0.52873 0.23204 0.0
C1397 C 0.85847 0.53894 0.20752 0.0
C1398 C 0.84911 0.56731 0.19268 0.0
C1399 C 0.5461 0.35919 0.68982 0.0
C1400 C 0.55971 0.38895 0.68616 0.0
C1401 C 0.51821 0.35114 0.67403 0.0
C1402 C 0.50251 0.3728 0.65461 0.0
H1403 H 0.5561 0.34247 0.70627 0.0
H1404 H 0.50731 0.32878 0.67932 0.0
S1405 S 0.52921 0.45294 0.63525 0.0
N1406 N 0.55669 0.43932 0.65945 0.0
N1407 N 0.50311 0.42447 0.63101 0.0
C1408 C 0.51654 0.40202 0.64938 0.0
C1409 C 0.54526 0.41016 0.66514 0.0
C1410 C 0.67658 0.06104 0.24423 0.0
C1411 C 0.65413 0.07585 0.22483 0.0
C1412 C 0.68994 1.03251 0.23531 0.0
C1413 C 0.68096 1.0176 0.20689 0.0
H1414 H 0.68556 0.07275 0.26526 0.0
H1415 H 0.70856 1.02297 0.24999 0.0
S1416 S 0.62127 0.04598 0.14904 0.0
N1417 N 0.62241 0.07328 0.17683 0.0
N1418 N 0.64658 1.01888 0.1604 0.0
C1419 C 0.65726 1.03147 0.18811 0.0
C1420 C 0.64385 0.06068 0.19716 0.0
C1421 C 1.01607 0.14548 0.6901 0.0
C1422 C 1.0088 0.14157 0.72246 0.0
C1423 C 0.04515 0.15781 0.68052 0.0
C1424 C 0.06852 0.16575 0.70293 0.0
H1425 H 0.99859 0.14059 0.6721 0.0
H1426 H 0.04891 0.162 0.65532 0.0
S1427 S 0.06396 0.15021 0.79004 0.0
N1428 N 1.02829 0.14157 0.77664 0.0
N1429 N 0.08482 0.16086 0.7585 0.0
C1430 C 0.06281 0.15818 0.73519 0.0
C1431 C 1.03248 0.14695 0.745 0.0
C1432 C 0.40488 0.89405 0.06312 0.0
C1433 C 0.37824 0.91267 0.06927 0.0
C1434 C 0.41202 0.88396 1.03236 0.0
C1435 C 0.39315 0.89265 1.00645 0.0
H1436 H 0.4201 0.8867 0.0823 0.0
H1437 H 0.43243 0.86905 1.02889 0.0
S1438 S 0.3246 0.94689 1.00935 0.0
N1439 N 0.33512 0.94265 1.04697 0.0
N1440 N 0.34949 0.92534 0.98845 0.0
C1441 C 0.3677 0.91326 1.01198 0.0
C1442 C 0.36015 0.92307 1.04357 0.0
C1443 C 0.21308 0.91021 0.58352 0.0
C1444 C 0.1898 0.88753 0.59021 0.0
C1445 C 0.21996 0.919 0.5521 0.0
C1446 C 0.20375 0.90538 0.5265 0.0
H1447 H 0.22569 0.92168 0.60269 0.0
H1448 H 0.23817 0.93636 0.54778 0.0
S1449 S 0.13839 0.84758 0.53156 0.0
N1450 N 0.14915 0.8533 0.56892 0.0
N1451 N 0.16166 0.87022 0.50988 0.0
C1452 C 0.17969 0.88354 0.53294 0.0
C1453 C 0.17275 0.87457 0.56484 0.0
C1454 C 0.18652 0.69964 1.02988 0.0
C1455 C 0.19863 0.68308 1.00377 0.0
C1456 C 0.19405 0.69093 0.06102 0.0
C1457 C 0.21407 0.66542 0.06712 0.0
H1458 H 0.17123 0.71959 1.02622 0.0
H1459 H 0.18387 0.70421 0.08045 0.0
S1460 S 0.24825 0.61174 1.00718 0.0
N1461 N 0.22872 0.63784 0.98604 0.0
N1462 N 0.24356 0.62204 1.04485 0.0
C1463 C 0.22527 0.64785 1.04134 0.0
C1464 C 0.2175 0.65663 1.00954 0.0
C1465 C 0.3687 0.66773 0.58625 0.0
C1466 C 0.38991 0.69228 0.59286 0.0
C1467 C 0.36046 0.66032 0.55482 0.0
C1468 C 0.37316 0.67726 0.52917 0.0
H1469 H 0.35894 0.65374 0.60543 0.0
H1470 H 0.3442 0.64118 0.55054 0.0
S1471 S 0.43223 0.74155 0.53417 0.0
N1472 N 0.42478 0.7322 0.57159 0.0
N1473 N 0.41003 0.71799 0.51253 0.0
C1474 C 0.39508 0.70129 0.5356 0.0
C1475 C 0.40334 0.70881 0.56749 0.0
loop_
_geom_bond_atom_site_label_1
_geom_bond_atom_site_label_2
_geom_bond_distance
_geom_bond_site_symmetry_2
_ccdc_geom_bond_type
Co0 O3 1.970 . S
Co0 N17 1.989 . S
Co0 O25 1.967 . S
Co0 O32 1.920 . S
Co1 O4 1.966 . S
Co1 N10 2.022 . S
Co1 N18 1.993 . S
Co1 O26 1.941 . S
C2 O3 1.258 . S
C2 O4 1.263 . S
O3 Co0 1.970 . S
O3 C2 1.258 . S
O4 Co1 1.966 . S
O4 C2 1.263 . S
C5 O6 1.235 . S
C5 O32 1.289 . S
O6 C5 1.235 . S
C7 C9 1.400 . S
C7 N10 1.351 . S
C7 C12 1.501 . S
C8 C9 1.387 . S
C8 N11 1.341 . S
C9 C7 1.400 . S
C9 C8 1.387 . S
N10 Co1 2.022 . S
N10 C7 1.351 . S
N10 N11 1.365 . S
N11 C8 1.341 . S
N11 N10 1.365 . S
N11 H31 0.862 . S
C12 C7 1.501 . S
C12 H13 0.961 . S
C12 H14 0.961 . S
C12 H15 0.960 . S
H13 C12 0.961 . S
H14 C12 0.961 . S
H15 C12 0.960 . S
C16 N17 1.342 . S
C16 C20 1.401 . S
C16 C21 1.499 . S
N17 Co0 1.989 . S
N17 C16 1.342 . S
N17 N18 1.388 . S
N18 Co1 1.993 . S
N18 N17 1.388 . S
N18 C19 1.346 . S
C19 N18 1.346 . S
C19 C20 1.396 . S
C19 C29 1.510 . S
C20 C16 1.401 . S
C20 C19 1.396 . S
C21 C16 1.499 . S
C21 H22 0.959 . S
C21 H23 0.960 . S
C21 H24 0.961 . S
H22 C21 0.959 . S
H23 C21 0.960 . S
H24 C21 0.961 . S
O25 Co0 1.967 . S
O25 C33 1.258 . S
O26 Co1 1.941 . S
O26 C33 1.266 . S
H27 C29 0.959 . S
H28 C29 0.961 . S
C29 C19 1.510 . S
C29 H27 0.959 . S
C29 H28 0.961 . S
C29 H30 0.960 . S
H30 C29 0.960 . S
H31 N11 0.862 . S
O32 Co0 1.920 . S
O32 C5 1.289 . S
C33 O25 1.258 . S
C33 O26 1.266 . S
Co34 O37 1.970 . S
Co34 N51 1.989 . S
Co34 O59 1.967 . S
Co34 O66 1.920 . S
Co35 O38 1.966 . S
Co35 N44 2.022 . S
Co35 N52 1.993 . S
Co35 O60 1.941 . S
C36 O37 1.258 . S
C36 O38 1.263 . S
O37 Co34 1.970 . S
O37 C36 1.258 . S
O38 Co35 1.966 . S
O38 C36 1.263 . S
C39 O40 1.235 . S
C39 O66 1.289 . S
O40 C39 1.235 . S
C41 C43 1.400 . S
C41 N44 1.351 . S
C41 C46 1.501 . S
C42 C43 1.387 . S
C42 N45 1.341 . S
C43 C41 1.400 . S
C43 C42 1.387 . S
N44 Co35 2.022 . S
N44 C41 1.351 . S
N44 N45 1.365 . S
N45 C42 1.341 . S
N45 N44 1.365 . S
N45 H65 0.862 . S
C46 C41 1.501 . S
C46 H47 0.961 . S
C46 H48 0.961 . S
C46 H49 0.960 . S
H47 C46 0.961 . S
H48 C46 0.961 . S
H49 C46 0.960 . S
C50 N51 1.342 . S
C50 C54 1.401 . S
C50 C55 1.499 . S
N51 Co34 1.989 . S
N51 C50 1.342 . S
N51 N52 1.388 . S
N52 Co35 1.993 . S
N52 N51 1.388 . S
N52 C53 1.346 . S
C53 N52 1.346 . S
C53 C54 1.396 . S
C53 C63 1.510 . S
C54 C50 1.401 . S
C54 C53 1.396 . S
C55 C50 1.499 . S
C55 H56 0.959 . S
C55 H57 0.960 . S
C55 H58 0.961 . S
H56 C55 0.959 . S
H57 C55 0.960 . S
H58 C55 0.961 . S
O59 Co34 1.967 . S
O59 C67 1.258 . S
O60 Co35 1.941 . S
O60 C67 1.266 . S
H61 C63 0.959 . S
H62 C63 0.961 . S
C63 C53 1.510 . S
C63 H61 0.959 . S
C63 H62 0.961 . S
C63 H64 0.960 . S
H64 C63 0.960 . S
H65 N45 0.862 . S
O66 Co34 1.920 . S
O66 C39 1.289 . S
C67 O59 1.258 . S
C67 O60 1.266 . S
Co68 O71 1.970 . S
Co68 N85 1.989 . S
Co68 O93 1.967 . S
Co68 O100 1.920 . S
Co69 O72 1.966 . S
Co69 N78 2.022 . S
Co69 N86 1.993 . S
Co69 O94 1.941 . S
C70 O71 1.258 . S
C70 O72 1.263 . S
O71 Co68 1.970 . S
O71 C70 1.258 . S
O72 Co69 1.966 . S
O72 C70 1.263 . S
C73 O74 1.235 . S
C73 O100 1.289 . S
O74 C73 1.235 . S
C75 C77 1.400 . S
C75 N78 1.351 . S
C75 C80 1.501 . S
C76 C77 1.387 . S
C76 N79 1.341 . S
C77 C75 1.400 . S
C77 C76 1.387 . S
N78 Co69 2.022 . S
N78 C75 1.351 . S
N78 N79 1.365 . S
N79 C76 1.341 . S
N79 N78 1.365 . S
N79 H99 0.862 . S
C80 C75 1.501 . S
C80 H81 0.961 . S
C80 H82 0.961 . S
C80 H83 0.960 . S
H81 C80 0.961 . S
H82 C80 0.961 . S
H83 C80 0.960 . S
C84 N85 1.342 . S
C84 C88 1.401 . S
C84 C89 1.499 . S
N85 Co68 1.989 . S
N85 C84 1.342 . S
N85 N86 1.388 . S
N86 Co69 1.993 . S
N86 N85 1.388 . S
N86 C87 1.346 . S
C87 N86 1.346 . S
C87 C88 1.396 . S
C87 C97 1.510 . S
C88 C84 1.401 . S
C88 C87 1.396 . S
C89 C84 1.499 . S
C89 H90 0.959 . S
C89 H91 0.960 . S
C89 H92 0.961 . S
H90 C89 0.959 . S
H91 C89 0.960 . S
H92 C89 0.961 . S
O93 Co68 1.967 . S
O93 C101 1.258 . S
O94 Co69 1.941 . S
O94 C101 1.266 . S
H95 C97 0.959 . S
H96 C97 0.961 . S
C97 C87 1.510 . S
C97 H95 0.959 . S
C97 H96 0.961 . S
C97 H98 0.960 . S
H98 C97 0.960 . S
H99 N79 0.862 . S
O100 Co68 1.920 . S
O100 C73 1.289 . S
C101 O93 1.258 . S
C101 O94 1.266 . S
Co102 O105 1.970 . S
Co102 N119 1.989 . S
Co102 O127 1.967 . S
Co102 O134 1.920 . S
Co103 O106 1.966 . S
Co103 N112 2.022 . S
Co103 N120 1.993 . S
Co103 O128 1.941 . S
C104 O105 1.258 . S
C104 O106 1.263 . S
O105 Co102 1.970 . S
O105 C104 1.258 . S
O106 Co103 1.966 . S
O106 C104 1.263 . S
C107 O108 1.235 . S
C107 O134 1.289 . S
O108 C107 1.235 . S
C109 C111 1.400 . S
C109 N112 1.351 . S
C109 C114 1.501 . S
C110 C111 1.387 . S
C110 N113 1.341 . S
C111 C109 1.400 . S
C111 C110 1.387 . S
N112 Co103 2.022 . S
N112 C109 1.351 . S
N112 N113 1.365 . S
N113 C110 1.341 . S
N113 N112 1.365 . S
N113 H133 0.862 . S
C114 C109 1.501 . S
C114 H115 0.961 . S
C114 H116 0.961 . S
C114 H117 0.960 . S
H115 C114 0.961 . S
H116 C114 0.961 . S
H117 C114 0.960 . S
C118 N119 1.342 . S
C118 C122 1.401 . S
C118 C123 1.499 . S
N119 Co102 1.989 . S
N119 C118 1.342 . S
N119 N120 1.388 . S
N120 Co103 1.993 . S
N120 N119 1.388 . S
N120 C121 1.346 . S
C121 N120 1.346 . S
C121 C122 1.396 . S
C121 C131 1.510 . S
C122 C118 1.401 . S
C122 C121 1.396 . S
C123 C118 1.499 . S
C123 H124 0.959 . S
C123 H125 0.960 . S
C123 H126 0.961 . S
H124 C123 0.959 . S
H125 C123 0.960 . S
H126 C123 0.961 . S
O127 Co102 1.967 . S
O127 C135 1.258 . S
O128 Co103 1.941 . S
O128 C135 1.266 . S
H129 C131 0.959 . S
H130 C131 0.961 . S
C131 C121 1.510 . S
C131 H129 0.959 . S
C131 H130 0.961 . S
C131 H132 0.960 . S
H132 C131 0.960 . S
H133 N113 0.862 . S
O134 Co102 1.920 . S
O134 C107 1.289 . S
C135 O127 1.258 . S
C135 O128 1.266 . S
Co136 O139 1.970 . S
Co136 N153 1.989 . S
Co136 O161 1.967 . S
Co136 O168 1.920 . S
Co137 O140 1.966 . S
Co137 N146 2.022 . S
Co137 N154 1.993 . S
Co137 O162 1.941 . S
C138 O139 1.258 . S
C138 O140 1.263 . S
O139 Co136 1.970 . S
O139 C138 1.258 . S
O140 Co137 1.966 . S
O140 C138 1.263 . S
C141 O142 1.235 . S
C141 O168 1.289 . S
O142 C141 1.235 . S
C143 C145 1.400 . S
C143 N146 1.351 . S
C143 C148 1.501 . S
C144 C145 1.387 . S
C144 N147 1.341 . S
C145 C143 1.400 . S
C145 C144 1.387 . S
N146 Co137 2.022 . S
N146 C143 1.351 . S
N146 N147 1.365 . S
N147 C144 1.341 . S
N147 N146 1.365 . S
N147 H167 0.862 . S
C148 C143 1.501 . S
C148 H149 0.961 . S
C148 H150 0.961 . S
C148 H151 0.960 . S
H149 C148 0.961 . S
H150 C148 0.961 . S
H151 C148 0.960 . S
C152 N153 1.342 . S
C152 C156 1.401 . S
C152 C157 1.499 . S
N153 Co136 1.989 . S
N153 C152 1.342 . S
N153 N154 1.388 . S
N154 Co137 1.993 . S
N154 N153 1.388 . S
N154 C155 1.346 . S
C155 N154 1.346 . S
C155 C156 1.396 . S
C155 C165 1.510 . S
C156 C152 1.401 . S
C156 C155 1.396 . S
C157 C152 1.499 . S
C157 H158 0.959 . S
C157 H159 0.960 . S
C157 H160 0.961 . S
H158 C157 0.959 . S
H159 C157 0.960 . S
H160 C157 0.961 . S
O161 Co136 1.967 . S
O161 C169 1.258 . S
O162 Co137 1.941 . S
O162 C169 1.266 . S
H163 C165 0.959 . S
H164 C165 0.961 . S
C165 C155 1.510 . S
C165 H163 0.959 . S
C165 H164 0.961 . S
C165 H166 0.960 . S
H166 C165 0.960 . S
H167 N147 0.862 . S
O168 Co136 1.920 . S
O168 C141 1.289 . S
C169 O161 1.258 . S
C169 O162 1.266 . S
Co170 O173 1.970 . S
Co170 N187 1.989 . S
Co170 O195 1.967 . S
Co170 O202 1.920 . S
Co171 O174 1.966 . S
Co171 N180 2.022 . S
Co171 N188 1.993 . S
Co171 O196 1.941 . S
C172 O173 1.258 . S
C172 O174 1.263 . S
O173 Co170 1.970 . S
O173 C172 1.258 . S
O174 Co171 1.966 . S
O174 C172 1.263 . S
C175 O176 1.235 . S
C175 O202 1.289 . S
O176 C175 1.235 . S
C177 C179 1.400 . S
C177 N180 1.351 . S
C177 C182 1.501 . S
C178 C179 1.387 . S
C178 N181 1.341 . S
C179 C177 1.400 . S
C179 C178 1.387 . S
N180 Co171 2.022 . S
N180 C177 1.351 . S
N180 N181 1.365 . S
N181 C178 1.341 . S
N181 N180 1.365 . S
N181 H201 0.862 . S
C182 C177 1.501 . S
C182 H183 0.961 . S
C182 H184 0.961 . S
C182 H185 0.960 . S
H183 C182 0.961 . S
H184 C182 0.961 . S
H185 C182 0.960 . S
C186 N187 1.342 . S
C186 C190 1.401 . S
C186 C191 1.499 . S
N187 Co170 1.989 . S
N187 C186 1.342 . S
N187 N188 1.388 . S
N188 Co171 1.993 . S
N188 N187 1.388 . S
N188 C189 1.346 . S
C189 N188 1.346 . S
C189 C190 1.396 . S
C189 C199 1.510 . S
C190 C186 1.401 . S
C190 C189 1.396 . S
C191 C186 1.499 . S
C191 H192 0.959 . S
C191 H193 0.960 . S
C191 H194 0.961 . S
H192 C191 0.959 . S
H193 C191 0.960 . S
H194 C191 0.961 . S
O195 Co170 1.967 . S
O195 C203 1.258 . S
O196 Co171 1.941 . S
O196 C203 1.266 . S
H197 C199 0.959 . S
H198 C199 0.961 . S
C199 C189 1.510 . S
C199 H197 0.959 . S
C199 H198 0.961 . S
C199 H200 0.960 . S
H200 C199 0.960 . S
H201 N181 0.862 . S
O202 Co170 1.920 . S
O202 C175 1.289 . S
C203 O195 1.258 . S
C203 O196 1.266 . S
Co204 O207 1.970 . S
Co204 N221 1.989 . S
Co204 O229 1.967 . S
Co204 O236 1.920 . S
Co205 O208 1.966 . S
Co205 N214 2.022 . S
Co205 N222 1.993 . S
Co205 O230 1.941 . S
C206 O207 1.258 . S
C206 O208 1.263 . S
O207 Co204 1.970 . S
O207 C206 1.258 . S
O208 Co205 1.966 . S
O208 C206 1.263 . S
C209 O210 1.235 . S
C209 O236 1.289 . S
O210 C209 1.235 . S
C211 C213 1.400 . S
C211 N214 1.351 . S
C211 C216 1.501 . S
C212 C213 1.387 . S
C212 N215 1.341 . S
C213 C211 1.400 . S
C213 C212 1.387 . S
N214 Co205 2.022 . S
N214 C211 1.351 . S
N214 N215 1.365 . S
N215 C212 1.341 . S
N215 N214 1.365 . S
N215 H235 0.862 . S
C216 C211 1.501 . S
C216 H217 0.961 . S
C216 H218 0.961 . S
C216 H219 0.960 . S
H217 C216 0.961 . S
H218 C216 0.961 . S
H219 C216 0.960 . S
C220 N221 1.342 . S
C220 C224 1.401 . S
C220 C225 1.499 . S
N221 Co204 1.989 . S
N221 C220 1.342 . S
N221 N222 1.388 . S
N222 Co205 1.993 . S
N222 N221 1.388 . S
N222 C223 1.346 . S
C223 N222 1.346 . S
C223 C224 1.396 . S
C223 C233 1.510 . S
C224 C220 1.401 . S
C224 C223 1.396 . S
C225 C220 1.499 . S
C225 H226 0.959 . S
C225 H227 0.960 . S
C225 H228 0.961 . S
H226 C225 0.959 . S
H227 C225 0.960 . S
H228 C225 0.961 . S
O229 Co204 1.967 . S
O229 C237 1.258 . S
O230 Co205 1.941 . S
O230 C237 1.266 . S
H231 C233 0.959 . S
H232 C233 0.961 . S
C233 C223 1.510 . S
C233 H231 0.959 . S
C233 H232 0.961 . S
C233 H234 0.960 . S
H234 C233 0.960 . S
H235 N215 0.862 . S
O236 Co204 1.920 . S
O236 C209 1.289 . S
C237 O229 1.258 . S
C237 O230 1.266 . S
Co238 O241 1.970 . S
Co238 N255 1.989 . S
Co238 O263 1.967 . S
Co238 O270 1.920 . S
Co239 O242 1.966 . S
Co239 N248 2.022 . S
Co239 N256 1.993 . S
Co239 O264 1.941 . S
C240 O241 1.258 . S
C240 O242 1.263 . S
O241 Co238 1.970 . S
O241 C240 1.258 . S
O242 Co239 1.966 . S
O242 C240 1.263 . S
C243 O244 1.235 . S
C243 O270 1.289 . S
O244 C243 1.235 . S
C245 C247 1.400 . S
C245 N248 1.351 . S
C245 C250 1.501 . S
C246 C247 1.387 . S
C246 N249 1.341 . S
C247 C245 1.400 . S
C247 C246 1.387 . S
N248 Co239 2.022 . S
N248 C245 1.351 . S
N248 N249 1.365 . S
N249 C246 1.341 . S
N249 N248 1.365 . S
N249 H269 0.862 . S
C250 C245 1.501 . S
C250 H251 0.961 . S
C250 H252 0.961 . S
C250 H253 0.960 . S
H251 C250 0.961 . S
H252 C250 0.961 . S
H253 C250 0.960 . S
C254 N255 1.342 . S
C254 C258 1.401 . S
C254 C259 1.499 . S
N255 Co238 1.989 . S
N255 C254 1.342 . S
N255 N256 1.388 . S
N256 Co239 1.993 . S
N256 N255 1.388 . S
N256 C257 1.346 . S
C257 N256 1.346 . S
C257 C258 1.396 . S
C257 C267 1.510 . S
C258 C254 1.401 . S
C258 C257 1.396 . S
C259 C254 1.499 . S
C259 H260 0.959 . S
C259 H261 0.960 . S
C259 H262 0.961 . S
H260 C259 0.959 . S
H261 C259 0.960 . S
H262 C259 0.961 . S
O263 Co238 1.967 . S
O263 C271 1.258 . S
O264 Co239 1.941 . S
O264 C271 1.266 . S
H265 C267 0.959 . S
H266 C267 0.961 . S
C267 C257 1.510 . S
C267 H265 0.959 . S
C267 H266 0.961 . S
C267 H268 0.960 . S
H268 C267 0.960 . S
H269 N249 0.862 . S
O270 Co238 1.920 . S
O270 C243 1.289 . S
C271 O263 1.258 . S
C271 O264 1.266 . S
Co272 O275 1.970 . S
Co272 N289 1.989 . S
Co272 O297 1.967 . S
Co272 O304 1.920 . S
Co273 O276 1.966 . S
Co273 N282 2.022 . S
Co273 N290 1.993 . S
Co273 O298 1.941 . S
C274 O275 1.258 . S
C274 O276 1.263 . S
O275 Co272 1.970 . S
O275 C274 1.258 . S
O276 Co273 1.966 . S
O276 C274 1.263 . S
C277 O278 1.235 . S
C277 O304 1.289 . S
O278 C277 1.235 . S
C279 C281 1.400 . S
C279 N282 1.351 . S
C279 C284 1.501 . S
C280 C281 1.387 . S
C280 N283 1.341 . S
C281 C279 1.400 . S
C281 C280 1.387 . S
N282 Co273 2.022 . S
N282 C279 1.351 . S
N282 N283 1.365 . S
N283 C280 1.341 . S
N283 N282 1.365 . S
N283 H303 0.862 . S
C284 C279 1.501 . S
C284 H285 0.961 . S
C284 H286 0.961 . S
C284 H287 0.960 . S
H285 C284 0.961 . S
H286 C284 0.961 . S
H287 C284 0.960 . S
C288 N289 1.342 . S
C288 C292 1.401 . S
C288 C293 1.499 . S
N289 Co272 1.989 . S
N289 C288 1.342 . S
N289 N290 1.388 . S
N290 Co273 1.993 . S
N290 N289 1.388 . S
N290 C291 1.346 . S
C291 N290 1.346 . S
C291 C292 1.396 . S
C291 C301 1.510 . S
C292 C288 1.401 . S
C292 C291 1.396 . S
C293 C288 1.499 . S
C293 H294 0.959 . S
C293 H295 0.960 . S
C293 H296 0.961 . S
H294 C293 0.959 . S
H295 C293 0.960 . S
H296 C293 0.961 . S
O297 Co272 1.967 . S
O297 C305 1.258 . S
O298 Co273 1.941 . S
O298 C305 1.266 . S
H299 C301 0.959 . S
H300 C301 0.961 . S
C301 C291 1.510 . S
C301 H299 0.959 . S
C301 H300 0.961 . S
C301 H302 0.960 . S
H302 C301 0.960 . S
H303 N283 0.862 . S
O304 Co272 1.920 . S
O304 C277 1.289 . S
C305 O297 1.258 . S
C305 O298 1.266 . S
Co306 O309 1.970 . S
Co306 N323 1.989 . S
Co306 O331 1.967 . S
Co306 O338 1.920 . S
Co307 O310 1.966 . S
Co307 N316 2.022 . S
Co307 N324 1.993 . S
Co307 O332 1.941 . S
C308 O309 1.258 . S
C308 O310 1.263 . S
O309 Co306 1.970 . S
O309 C308 1.258 . S
O310 Co307 1.966 . S
O310 C308 1.263 . S
C311 O312 1.235 . S
C311 O338 1.289 . S
O312 C311 1.235 . S
C313 C315 1.400 . S
C313 N316 1.351 . S
C313 C318 1.501 . S
C314 C315 1.387 . S
C314 N317 1.341 . S
C315 C313 1.400 . S
C315 C314 1.387 . S
N316 Co307 2.022 . S
N316 C313 1.351 . S
N316 N317 1.365 . S
N317 C314 1.341 . S
N317 N316 1.365 . S
N317 H337 0.862 . S
C318 C313 1.501 . S
C318 H319 0.961 . S
C318 H320 0.961 . S
C318 H321 0.960 . S
H319 C318 0.961 . S
H320 C318 0.961 . S
H321 C318 0.960 . S
C322 N323 1.342 . S
C322 C326 1.401 . S
C322 C327 1.499 . S
N323 Co306 1.989 . S
N323 C322 1.342 . S
N323 N324 1.388 . S
N324 Co307 1.993 . S
N324 N323 1.388 . S
N324 C325 1.346 . S
C325 N324 1.346 . S
C325 C326 1.396 . S
C325 C335 1.510 . S
C326 C322 1.401 . S
C326 C325 1.396 . S
C327 C322 1.499 . S
C327 H328 0.959 . S
C327 H329 0.960 . S
C327 H330 0.961 . S
H328 C327 0.959 . S
H329 C327 0.960 . S
H330 C327 0.961 . S
O331 Co306 1.967 . S
O331 C339 1.258 . S
O332 Co307 1.941 . S
O332 C339 1.266 . S
H333 C335 0.959 . S
H334 C335 0.961 . S
C335 C325 1.510 . S
C335 H333 0.959 . S
C335 H334 0.961 . S
C335 H336 0.960 . S
H336 C335 0.960 . S
H337 N317 0.862 . S
O338 Co306 1.920 . S
O338 C311 1.289 . S
C339 O331 1.258 . S
C339 O332 1.266 . S
Co340 O343 1.970 . S
Co340 N357 1.989 . S
Co340 O365 1.967 . S
Co340 O372 1.920 . S
Co341 O344 1.966 . S
Co341 N350 2.022 . S
Co341 N358 1.993 . S
Co341 O366 1.941 . S
C342 O343 1.258 . S
C342 O344 1.263 . S
O343 Co340 1.970 . S
O343 C342 1.258 . S
O344 Co341 1.966 . S
O344 C342 1.263 . S
C345 O346 1.235 . S
C345 O372 1.289 . S
O346 C345 1.235 . S
C347 C349 1.400 . S
C347 N350 1.351 . S
C347 C352 1.501 . S
C348 C349 1.387 . S
C348 N351 1.341 . S
C349 C347 1.400 . S
C349 C348 1.387 . S
N350 Co341 2.022 . S
N350 C347 1.351 . S
N350 N351 1.365 . S
N351 C348 1.341 . S
N351 N350 1.365 . S
N351 H371 0.862 . S
C352 C347 1.501 . S
C352 H353 0.961 . S
C352 H354 0.961 . S
C352 H355 0.960 . S
H353 C352 0.961 . S
H354 C352 0.961 . S
H355 C352 0.960 . S
C356 N357 1.342 . S
C356 C360 1.401 . S
C356 C361 1.499 . S
N357 Co340 1.989 . S
N357 C356 1.342 . S
N357 N358 1.388 . S
N358 Co341 1.993 . S
N358 N357 1.388 . S
N358 C359 1.346 . S
C359 N358 1.346 . S
C359 C360 1.396 . S
C359 C369 1.510 . S
C360 C356 1.401 . S
C360 C359 1.396 . S
C361 C356 1.499 . S
C361 H362 0.959 . S
C361 H363 0.960 . S
C361 H364 0.961 . S
H362 C361 0.959 . S
H363 C361 0.960 . S
H364 C361 0.961 . S
O365 Co340 1.967 . S
O365 C373 1.258 . S
O366 Co341 1.941 . S
O366 C373 1.266 . S
H367 C369 0.959 . S
H368 C369 0.961 . S
C369 C359 1.510 . S
C369 H367 0.959 . S
C369 H368 0.961 . S
C369 H370 0.960 . S
H370 C369 0.960 . S
H371 N351 0.862 . S
O372 Co340 1.920 . S
O372 C345 1.289 . S
C373 O365 1.258 . S
C373 O366 1.266 . S
Co374 O377 1.970 . S
Co374 N391 1.989 . S
Co374 O399 1.967 . S
Co374 O406 1.920 . S
Co375 O378 1.966 . S
Co375 N384 2.022 . S
Co375 N392 1.993 . S
Co375 O400 1.941 . S
C376 O377 1.258 . S
C376 O378 1.263 . S
O377 Co374 1.970 . S
O377 C376 1.258 . S
O378 Co375 1.966 . S
O378 C376 1.263 . S
C379 O380 1.235 . S
C379 O406 1.289 . S
O380 C379 1.235 . S
C381 C383 1.400 . S
C381 N384 1.351 . S
C381 C386 1.501 . S
C382 C383 1.387 . S
C382 N385 1.341 . S
C383 C381 1.400 . S
C383 C382 1.387 . S
N384 Co375 2.022 . S
N384 C381 1.351 . S
N384 N385 1.365 . S
N385 C382 1.341 . S
N385 N384 1.365 . S
N385 H405 0.862 . S
C386 C381 1.501 . S
C386 H387 0.961 . S
C386 H388 0.961 . S
C386 H389 0.960 . S
H387 C386 0.961 . S
H388 C386 0.961 . S
H389 C386 0.960 . S
C390 N391 1.342 . S
C390 C394 1.401 . S
C390 C395 1.499 . S
N391 Co374 1.989 . S
N391 C390 1.342 . S
N391 N392 1.388 . S
N392 Co375 1.993 . S
N392 N391 1.388 . S
N392 C393 1.346 . S
C393 N392 1.346 . S
C393 C394 1.396 . S
C393 C403 1.510 . S
C394 C390 1.401 . S
C394 C393 1.396 . S
C395 C390 1.499 . S
C395 H396 0.959 . S
C395 H397 0.960 . S
C395 H398 0.961 . S
H396 C395 0.959 . S
H397 C395 0.960 . S
H398 C395 0.961 . S
O399 Co374 1.967 . S
O399 C407 1.258 . S
O400 Co375 1.941 . S
O400 C407 1.266 . S
H401 C403 0.959 . S
H402 C403 0.961 . S
C403 C393 1.510 . S
C403 H401 0.959 . S
C403 H402 0.961 . S
C403 H404 0.960 . S
H404 C403 0.960 . S
H405 N385 0.862 . S
O406 Co374 1.920 . S
O406 C379 1.289 . S
C407 O399 1.258 . S
C407 O400 1.266 . S
Co408 O411 1.970 . S
Co408 N425 1.989 . S
Co408 O433 1.967 . S
Co408 O440 1.920 . S
Co409 O412 1.966 . S
Co409 N418 2.022 . S
Co409 N426 1.993 . S
Co409 O434 1.941 . S
C410 O411 1.258 . S
C410 O412 1.263 . S
O411 Co408 1.970 . S
O411 C410 1.258 . S
O412 Co409 1.966 . S
O412 C410 1.263 . S
C413 O414 1.235 . S
C413 O440 1.289 . S
O414 C413 1.235 . S
C415 C417 1.400 . S
C415 N418 1.351 . S
C415 C420 1.501 . S
C416 C417 1.387 . S
C416 N419 1.341 . S
C417 C415 1.400 . S
C417 C416 1.387 . S
N418 Co409 2.022 . S
N418 C415 1.351 . S
N418 N419 1.365 . S
N419 C416 1.341 . S
N419 N418 1.365 . S
N419 H439 0.862 . S
C420 C415 1.501 . S
C420 H421 0.961 . S
C420 H422 0.961 . S
C420 H423 0.960 . S
H421 C420 0.961 . S
H422 C420 0.961 . S
H423 C420 0.960 . S
C424 N425 1.342 . S
C424 C428 1.401 . S
C424 C429 1.499 . S
N425 Co408 1.989 . S
N425 C424 1.342 . S
N425 N426 1.388 . S
N426 Co409 1.993 . S
N426 N425 1.388 . S
N426 C427 1.346 . S
C427 N426 1.346 . S
C427 C428 1.396 . S
C427 C437 1.510 . S
C428 C424 1.401 . S
C428 C427 1.396 . S
C429 C424 1.499 . S
C429 H430 0.959 . S
C429 H431 0.960 . S
C429 H432 0.961 . S
H430 C429 0.959 . S
H431 C429 0.960 . S
H432 C429 0.961 . S
O433 Co408 1.967 . S
O433 C441 1.258 . S
O434 Co409 1.941 . S
O434 C441 1.266 . S
H435 C437 0.959 . S
H436 C437 0.961 . S
C437 C427 1.510 . S
C437 H435 0.959 . S
C437 H436 0.961 . S
C437 H438 0.960 . S
H438 C437 0.960 . S
H439 N419 0.862 . S
O440 Co408 1.920 . S
O440 C413 1.289 . S
C441 O433 1.258 . S
C441 O434 1.266 . S
Co442 O445 1.970 . S
Co442 N459 1.989 . S
Co442 O467 1.967 . S
Co442 O474 1.920 . S
Co443 O446 1.966 . S
Co443 N452 2.022 . S
Co443 N460 1.993 . S
Co443 O468 1.941 . S
C444 O445 1.258 . S
C444 O446 1.263 . S
O445 Co442 1.970 . S
O445 C444 1.258 . S
O446 Co443 1.966 . S
O446 C444 1.263 . S
C447 O448 1.235 . S
C447 O474 1.289 . S
O448 C447 1.235 . S
C449 C451 1.400 . S
C449 N452 1.351 . S
C449 C454 1.501 . S
C450 C451 1.387 . S
C450 N453 1.341 . S
C451 C449 1.400 . S
C451 C450 1.387 . S
N452 Co443 2.022 . S
N452 C449 1.351 . S
N452 N453 1.365 . S
N453 C450 1.341 . S
N453 N452 1.365 . S
N453 H473 0.862 . S
C454 C449 1.501 . S
C454 H455 0.961 . S
C454 H456 0.961 . S
C454 H457 0.960 . S
H455 C454 0.961 . S
H456 C454 0.961 . S
H457 C454 0.960 . S
C458 N459 1.342 . S
C458 C462 1.401 . S
C458 C463 1.499 . S
N459 Co442 1.989 . S
N459 C458 1.342 . S
N459 N460 1.388 . S
N460 Co443 1.993 . S
N460 N459 1.388 . S
N460 C461 1.346 . S
C461 N460 1.346 . S
C461 C462 1.396 . S
C461 C471 1.510 . S
C462 C458 1.401 . S
C462 C461 1.396 . S
C463 C458 1.499 . S
C463 H464 0.959 . S
C463 H465 0.960 . S
C463 H466 0.961 . S
H464 C463 0.959 . S
H465 C463 0.960 . S
H466 C463 0.961 . S
O467 Co442 1.967 . S
O467 C475 1.258 . S
O468 Co443 1.941 . S
O468 C475 1.266 . S
H469 C471 0.959 . S
H470 C471 0.961 . S
C471 C461 1.510 . S
C471 H469 0.959 . S
C471 H470 0.961 . S
C471 H472 0.960 . S
H472 C471 0.960 . S
H473 N453 0.862 . S
O474 Co442 1.920 . S
O474 C447 1.289 . S
C475 O467 1.258 . S
C475 O468 1.266 . S
Co476 O479 1.970 . S
Co476 N493 1.989 . S
Co476 O501 1.967 . S
Co476 O508 1.920 . S
Co477 O480 1.966 . S
Co477 N486 2.022 . S
Co477 N494 1.993 . S
Co477 O502 1.941 . S
C478 O479 1.258 . S
C478 O480 1.263 . S
O479 Co476 1.970 . S
O479 C478 1.258 . S
O480 Co477 1.966 . S
O480 C478 1.263 . S
C481 O482 1.235 . S
C481 O508 1.289 . S
O482 C481 1.235 . S
C483 C485 1.400 . S
C483 N486 1.351 . S
C483 C488 1.501 . S
C484 C485 1.387 . S
C484 N487 1.341 . S
C485 C483 1.400 . S
C485 C484 1.387 . S
N486 Co477 2.022 . S
N486 C483 1.351 . S
N486 N487 1.365 . S
N487 C484 1.341 . S
N487 N486 1.365 . S
N487 H507 0.862 . S
C488 C483 1.501 . S
C488 H489 0.961 . S
C488 H490 0.961 . S
C488 H491 0.960 . S
H489 C488 0.961 . S
H490 C488 0.961 . S
H491 C488 0.960 . S
C492 N493 1.342 . S
C492 C496 1.401 . S
C492 C497 1.499 . S
N493 Co476 1.989 . S
N493 C492 1.342 . S
N493 N494 1.388 . S
N494 Co477 1.993 . S
N494 N493 1.388 . S
N494 C495 1.346 . S
C495 N494 1.346 . S
C495 C496 1.396 . S
C495 C505 1.510 . S
C496 C492 1.401 . S
C496 C495 1.396 . S
C497 C492 1.499 . S
C497 H498 0.959 . S
C497 H499 0.960 . S
C497 H500 0.961 . S
H498 C497 0.959 . S
H499 C497 0.960 . S
H500 C497 0.961 . S
O501 Co476 1.967 . S
O501 C509 1.258 . S
O502 Co477 1.941 . S
O502 C509 1.266 . S
H503 C505 0.959 . S
H504 C505 0.961 . S
C505 C495 1.510 . S
C505 H503 0.959 . S
C505 H504 0.961 . S
C505 H506 0.960 . S
H506 C505 0.960 . S
H507 N487 0.862 . S
O508 Co476 1.920 . S
O508 C481 1.289 . S
C509 O501 1.258 . S
C509 O502 1.266 . S
Co510 O513 1.970 . S
Co510 N527 1.989 . S
Co510 O535 1.967 . S
Co510 O542 1.920 . S
Co511 O514 1.966 . S
Co511 N520 2.022 . S
Co511 N528 1.993 . S
Co511 O536 1.941 . S
C512 O513 1.258 . S
C512 O514 1.263 . S
O513 Co510 1.970 . S
O513 C512 1.258 . S
O514 Co511 1.966 . S
O514 C512 1.263 . S
C515 O516 1.235 . S
C515 O542 1.289 . S
O516 C515 1.235 . S
C517 C519 1.400 . S
C517 N520 1.351 . S
C517 C522 1.501 . S
C518 C519 1.387 . S
C518 N521 1.341 . S
C519 C517 1.400 . S
C519 C518 1.387 . S
N520 Co511 2.022 . S
N520 C517 1.351 . S
N520 N521 1.365 . S
N521 C518 1.341 . S
N521 N520 1.365 . S
N521 H541 0.862 . S
C522 C517 1.501 . S
C522 H523 0.961 . S
C522 H524 0.961 . S
C522 H525 0.960 . S
H523 C522 0.961 . S
H524 C522 0.961 . S
H525 C522 0.960 . S
C526 N527 1.342 . S
C526 C530 1.401 . S
C526 C531 1.499 . S
N527 Co510 1.989 . S
N527 C526 1.342 . S
N527 N528 1.388 . S
N528 Co511 1.993 . S
N528 N527 1.388 . S
N528 C529 1.346 . S
C529 N528 1.346 . S
C529 C530 1.396 . S
C529 C539 1.510 . S
C530 C526 1.401 . S
C530 C529 1.396 . S
C531 C526 1.499 . S
C531 H532 0.959 . S
C531 H533 0.960 . S
C531 H534 0.961 . S
H532 C531 0.959 . S
H533 C531 0.960 . S
H534 C531 0.961 . S
O535 Co510 1.967 . S
O535 C543 1.258 . S
O536 Co511 1.941 . S
O536 C543 1.266 . S
H537 C539 0.959 . S
H538 C539 0.961 . S
C539 C529 1.510 . S
C539 H537 0.959 . S
C539 H538 0.961 . S
C539 H540 0.960 . S
H540 C539 0.960 . S
H541 N521 0.862 . S
O542 Co510 1.920 . S
O542 C515 1.289 . S
C543 O535 1.258 . S
C543 O536 1.266 . S
Co544 O547 1.970 . S
Co544 N561 1.989 . S
Co544 O569 1.967 . S
Co544 O576 1.920 . S
Co545 O548 1.966 . S
Co545 N554 2.022 . S
Co545 N562 1.993 . S
Co545 O570 1.941 . S
C546 O547 1.258 . S
C546 O548 1.263 . S
O547 Co544 1.970 . S
O547 C546 1.258 . S
O548 Co545 1.966 . S
O548 C546 1.263 . S
C549 O550 1.235 . S
C549 O576 1.289 . S
O550 C549 1.235 . S
C551 C553 1.400 . S
C551 N554 1.351 . S
C551 C556 1.501 . S
C552 C553 1.387 . S
C552 N555 1.341 . S
C553 C551 1.400 . S
C553 C552 1.387 . S
N554 Co545 2.022 . S
N554 C551 1.351 . S
N554 N555 1.365 . S
N555 C552 1.341 . S
N555 N554 1.365 . S
N555 H575 0.862 . S
C556 C551 1.501 . S
C556 H557 0.961 . S
C556 H558 0.961 . S
C556 H559 0.960 . S
H557 C556 0.961 . S
H558 C556 0.961 . S
H559 C556 0.960 . S
C560 N561 1.342 . S
C560 C564 1.401 . S
C560 C565 1.499 . S
N561 Co544 1.989 . S
N561 C560 1.342 . S
N561 N562 1.388 . S
N562 Co545 1.993 . S
N562 N561 1.388 . S
N562 C563 1.346 . S
C563 N562 1.346 . S
C563 C564 1.396 . S
C563 C573 1.510 . S
C564 C560 1.401 . S
C564 C563 1.396 . S
C565 C560 1.499 . S
C565 H566 0.959 . S
C565 H567 0.960 . S
C565 H568 0.961 . S
H566 C565 0.959 . S
H567 C565 0.960 . S
H568 C565 0.961 . S
O569 Co544 1.967 . S
O569 C577 1.258 . S
O570 Co545 1.941 . S
O570 C577 1.266 . S
H571 C573 0.959 . S
H572 C573 0.961 . S
C573 C563 1.510 . S
C573 H571 0.959 . S
C573 H572 0.961 . S
C573 H574 0.960 . S
H574 C573 0.960 . S
H575 N555 0.862 . S
O576 Co544 1.920 . S
O576 C549 1.289 . S
C577 O569 1.258 . S
C577 O570 1.266 . S
Co578 O581 1.970 . S
Co578 N595 1.989 . S
Co578 O603 1.967 . S
Co578 O610 1.920 . S
Co579 O582 1.966 . S
Co579 N588 2.022 . S
Co579 N596 1.993 . S
Co579 O604 1.941 . S
C580 O581 1.258 . S
C580 O582 1.263 . S
O581 Co578 1.970 . S
O581 C580 1.258 . S
O582 Co579 1.966 . S
O582 C580 1.263 . S
C583 O584 1.235 . S
C583 O610 1.289 . S
O584 C583 1.235 . S
C585 C587 1.400 . S
C585 N588 1.351 . S
C585 C590 1.501 . S
C586 C587 1.387 . S
C586 N589 1.341 . S
C587 C585 1.400 . S
C587 C586 1.387 . S
N588 Co579 2.022 . S
N588 C585 1.351 . S
N588 N589 1.365 . S
N589 C586 1.341 . S
N589 N588 1.365 . S
N589 H609 0.862 . S
C590 C585 1.501 . S
C590 H591 0.961 . S
C590 H592 0.961 . S
C590 H593 0.960 . S
H591 C590 0.961 . S
H592 C590 0.961 . S
H593 C590 0.960 . S
C594 N595 1.342 . S
C594 C598 1.401 . S
C594 C599 1.499 . S
N595 Co578 1.989 . S
N595 C594 1.342 . S
N595 N596 1.388 . S
N596 Co579 1.993 . S
N596 N595 1.388 . S
N596 C597 1.346 . S
C597 N596 1.346 . S
C597 C598 1.396 . S
C597 C607 1.510 . S
C598 C594 1.401 . S
C598 C597 1.396 . S
C599 C594 1.499 . S
C599 H600 0.959 . S
C599 H601 0.960 . S
C599 H602 0.961 . S
H600 C599 0.959 . S
H601 C599 0.960 . S
H602 C599 0.961 . S
O603 Co578 1.967 . S
O603 C611 1.258 . S
O604 Co579 1.941 . S
O604 C611 1.266 . S
H605 C607 0.959 . S
H606 C607 0.961 . S
C607 C597 1.510 . S
C607 H605 0.959 . S
C607 H606 0.961 . S
C607 H608 0.960 . S
H608 C607 0.960 . S
H609 N589 0.862 . S
O610 Co578 1.920 . S
O610 C583 1.289 . S
C611 O603 1.258 . S
C611 O604 1.266 . S
Co612 O615 1.970 . S
Co612 N629 1.989 . S
Co612 O637 1.967 . S
Co612 O644 1.920 . S
Co613 O616 1.966 . S
Co613 N622 2.022 . S
Co613 N630 1.993 . S
Co613 O638 1.941 . S
C614 O615 1.258 . S
C614 O616 1.263 . S
O615 Co612 1.970 . S
O615 C614 1.258 . S
O616 Co613 1.966 . S
O616 C614 1.263 . S
C617 O618 1.235 . S
C617 O644 1.289 . S
O618 C617 1.235 . S
C619 C621 1.400 . S
C619 N622 1.351 . S
C619 C624 1.501 . S
C620 C621 1.387 . S
C620 N623 1.341 . S
C621 C619 1.400 . S
C621 C620 1.387 . S
N622 Co613 2.022 . S
N622 C619 1.351 . S
N622 N623 1.365 . S
N623 C620 1.341 . S
N623 N622 1.365 . S
N623 H643 0.862 . S
C624 C619 1.501 . S
C624 H625 0.961 . S
C624 H626 0.961 . S
C624 H627 0.960 . S
H625 C624 0.961 . S
H626 C624 0.961 . S
H627 C624 0.960 . S
C628 N629 1.342 . S
C628 C632 1.401 . S
C628 C633 1.499 . S
N629 Co612 1.989 . S
N629 C628 1.342 . S
N629 N630 1.388 . S
N630 Co613 1.993 . S
N630 N629 1.388 . S
N630 C631 1.346 . S
C631 N630 1.346 . S
C631 C632 1.396 . S
C631 C641 1.510 . S
C632 C628 1.401 . S
C632 C631 1.396 . S
C633 C628 1.499 . S
C633 H634 0.959 . S
C633 H635 0.960 . S
C633 H636 0.961 . S
H634 C633 0.959 . S
H635 C633 0.960 . S
H636 C633 0.961 . S
O637 Co612 1.967 . S
O637 C645 1.258 . S
O638 Co613 1.941 . S
O638 C645 1.266 . S
H639 C641 0.959 . S
H640 C641 0.961 . S
C641 C631 1.510 . S
C641 H639 0.959 . S
C641 H640 0.961 . S
C641 H642 0.960 . S
H642 C641 0.960 . S
H643 N623 0.862 . S
O644 Co612 1.920 . S
O644 C617 1.289 . S
C645 O637 1.258 . S
C645 O638 1.266 . S
Co646 O649 1.970 . S
Co646 N663 1.989 . S
Co646 O671 1.967 . S
Co646 O678 1.920 . S
Co647 O650 1.966 . S
Co647 N656 2.022 . S
Co647 N664 1.993 . S
Co647 O672 1.941 . S
C648 O649 1.258 . S
C648 O650 1.263 . S
O649 Co646 1.970 . S
O649 C648 1.258 . S
O650 Co647 1.966 . S
O650 C648 1.263 . S
C651 O652 1.235 . S
C651 O678 1.289 . S
O652 C651 1.235 . S
C653 C655 1.400 . S
C653 N656 1.351 . S
C653 C658 1.501 . S
C654 C655 1.387 . S
C654 N657 1.341 . S
C655 C653 1.400 . S
C655 C654 1.387 . S
N656 Co647 2.022 . S
N656 C653 1.351 . S
N656 N657 1.365 . S
N657 C654 1.341 . S
N657 N656 1.365 . S
N657 H677 0.862 . S
C658 C653 1.501 . S
C658 H659 0.961 . S
C658 H660 0.961 . S
C658 H661 0.960 . S
H659 C658 0.961 . S
H660 C658 0.961 . S
H661 C658 0.960 . S
C662 N663 1.342 . S
C662 C666 1.401 . S
C662 C667 1.499 . S
N663 Co646 1.989 . S
N663 C662 1.342 . S
N663 N664 1.388 . S
N664 Co647 1.993 . S
N664 N663 1.388 . S
N664 C665 1.346 . S
C665 N664 1.346 . S
C665 C666 1.396 . S
C665 C675 1.510 . S
C666 C662 1.401 . S
C666 C665 1.396 . S
C667 C662 1.499 . S
C667 H668 0.959 . S
C667 H669 0.960 . S
C667 H670 0.961 . S
H668 C667 0.959 . S
H669 C667 0.960 . S
H670 C667 0.961 . S
O671 Co646 1.967 . S
O671 C679 1.258 . S
O672 Co647 1.941 . S
O672 C679 1.266 . S
H673 C675 0.959 . S
H674 C675 0.961 . S
C675 C665 1.510 . S
C675 H673 0.959 . S
C675 H674 0.961 . S
C675 H676 0.960 . S
H676 C675 0.960 . S
H677 N657 0.862 . S
O678 Co646 1.920 . S
O678 C651 1.289 . S
C679 O671 1.258 . S
C679 O672 1.266 . S
Co680 O683 1.970 . S
Co680 N697 1.989 . S
Co680 O705 1.967 . S
Co680 O712 1.920 . S
Co681 O684 1.966 . S
Co681 N690 2.022 . S
Co681 N698 1.993 . S
Co681 O706 1.941 . S
C682 O683 1.258 . S
C682 O684 1.263 . S
O683 Co680 1.970 . S
O683 C682 1.258 . S
O684 Co681 1.966 . S
O684 C682 1.263 . S
C685 O686 1.235 . S
C685 O712 1.289 . S
O686 C685 1.235 . S
C687 C689 1.400 . S
C687 N690 1.351 . S
C687 C692 1.501 . S
C688 C689 1.387 . S
C688 N691 1.341 . S
C689 C687 1.400 . S
C689 C688 1.387 . S
N690 Co681 2.022 . S
N690 C687 1.351 . S
N690 N691 1.365 . S
N691 C688 1.341 . S
N691 N690 1.365 . S
N691 H711 0.862 . S
C692 C687 1.501 . S
C692 H693 0.961 . S
C692 H694 0.961 . S
C692 H695 0.960 . S
H693 C692 0.961 . S
H694 C692 0.961 . S
H695 C692 0.960 . S
C696 N697 1.342 . S
C696 C700 1.401 . S
C696 C701 1.499 . S
N697 Co680 1.989 . S
N697 C696 1.342 . S
N697 N698 1.388 . S
N698 Co681 1.993 . S
N698 N697 1.388 . S
N698 C699 1.346 . S
C699 N698 1.346 . S
C699 C700 1.396 . S
C699 C709 1.510 . S
C700 C696 1.401 . S
C700 C699 1.396 . S
C701 C696 1.499 . S
C701 H702 0.959 . S
C701 H703 0.960 . S
C701 H704 0.961 . S
H702 C701 0.959 . S
H703 C701 0.960 . S
H704 C701 0.961 . S
O705 Co680 1.967 . S
O705 C713 1.258 . S
O706 Co681 1.941 . S
O706 C713 1.266 . S
H707 C709 0.959 . S
H708 C709 0.961 . S
C709 C699 1.510 . S
C709 H707 0.959 . S
C709 H708 0.961 . S
C709 H710 0.960 . S
H710 C709 0.960 . S
H711 N691 0.862 . S
O712 Co680 1.920 . S
O712 C685 1.289 . S
C713 O705 1.258 . S
C713 O706 1.266 . S
Co714 O717 1.970 . S
Co714 N731 1.989 . S
Co714 O739 1.967 . S
Co714 O746 1.920 . S
Co715 O718 1.966 . S
Co715 N724 2.022 . S
Co715 N732 1.993 . S
Co715 O740 1.941 . S
C716 O717 1.258 . S
C716 O718 1.263 . S
O717 Co714 1.970 . S
O717 C716 1.258 . S
O718 Co715 1.966 . S
O718 C716 1.263 . S
C719 O720 1.235 . S
C719 O746 1.289 . S
O720 C719 1.235 . S
C721 C723 1.400 . S
C721 N724 1.351 . S
C721 C726 1.501 . S
C722 C723 1.387 . S
C722 N725 1.341 . S
C723 C721 1.400 . S
C723 C722 1.387 . S
N724 Co715 2.022 . S
N724 C721 1.351 . S
N724 N725 1.365 . S
N725 C722 1.341 . S
N725 N724 1.365 . S
N725 H745 0.862 . S
C726 C721 1.501 . S
C726 H727 0.961 . S
C726 H728 0.961 . S
C726 H729 0.960 . S
H727 C726 0.961 . S
H728 C726 0.961 . S
H729 C726 0.960 . S
C730 N731 1.342 . S
C730 C734 1.401 . S
C730 C735 1.499 . S
N731 Co714 1.989 . S
N731 C730 1.342 . S
N731 N732 1.388 . S
N732 Co715 1.993 . S
N732 N731 1.388 . S
N732 C733 1.346 . S
C733 N732 1.346 . S
C733 C734 1.396 . S
C733 C743 1.510 . S
C734 C730 1.401 . S
C734 C733 1.396 . S
C735 C730 1.499 . S
C735 H736 0.959 . S
C735 H737 0.960 . S
C735 H738 0.961 . S
H736 C735 0.959 . S
H737 C735 0.960 . S
H738 C735 0.961 . S
O739 Co714 1.967 . S
O739 C747 1.258 . S
O740 Co715 1.941 . S
O740 C747 1.266 . S
H741 C743 0.959 . S
H742 C743 0.961 . S
C743 C733 1.510 . S
C743 H741 0.959 . S
C743 H742 0.961 . S
C743 H744 0.960 . S
H744 C743 0.960 . S
H745 N725 0.862 . S
O746 Co714 1.920 . S
O746 C719 1.289 . S
C747 O739 1.258 . S
C747 O740 1.266 . S
Co748 O751 1.970 . S
Co748 N765 1.989 . S
Co748 O773 1.967 . S
Co748 O780 1.920 . S
Co749 O752 1.966 . S
Co749 N758 2.022 . S
Co749 N766 1.993 . S
Co749 O774 1.941 . S
C750 O751 1.258 . S
C750 O752 1.263 . S
O751 Co748 1.970 . S
O751 C750 1.258 . S
O752 Co749 1.966 . S
O752 C750 1.263 . S
C753 O754 1.235 . S
C753 O780 1.289 . S
O754 C753 1.235 . S
C755 C757 1.400 . S
C755 N758 1.351 . S
C755 C760 1.501 . S
C756 C757 1.387 . S
C756 N759 1.341 . S
C757 C755 1.400 . S
C757 C756 1.387 . S
N758 Co749 2.022 . S
N758 C755 1.351 . S
N758 N759 1.365 . S
N759 C756 1.341 . S
N759 N758 1.365 . S
N759 H779 0.862 . S
C760 C755 1.501 . S
C760 H761 0.961 . S
C760 H762 0.961 . S
C760 H763 0.960 . S
H761 C760 0.961 . S
H762 C760 0.961 . S
H763 C760 0.960 . S
C764 N765 1.342 . S
C764 C768 1.401 . S
C764 C769 1.499 . S
N765 Co748 1.989 . S
N765 C764 1.342 . S
N765 N766 1.388 . S
N766 Co749 1.993 . S
N766 N765 1.388 . S
N766 C767 1.346 . S
C767 N766 1.346 . S
C767 C768 1.396 . S
C767 C777 1.510 . S
C768 C764 1.401 . S
C768 C767 1.396 . S
C769 C764 1.499 . S
C769 H770 0.959 . S
C769 H771 0.960 . S
C769 H772 0.961 . S
H770 C769 0.959 . S
H771 C769 0.960 . S
H772 C769 0.961 . S
O773 Co748 1.967 . S
O773 C781 1.258 . S
O774 Co749 1.941 . S
O774 C781 1.266 . S
H775 C777 0.959 . S
H776 C777 0.961 . S
C777 C767 1.510 . S
C777 H775 0.959 . S
C777 H776 0.961 . S
C777 H778 0.960 . S
H778 C777 0.960 . S
H779 N759 0.862 . S
O780 Co748 1.920 . S
O780 C753 1.289 . S
C781 O773 1.258 . S
C781 O774 1.266 . S
Co782 O785 1.970 . S
Co782 N799 1.989 . S
Co782 O807 1.967 . S
Co782 O814 1.920 . S
Co783 O786 1.966 . S
Co783 N792 2.022 . S
Co783 N800 1.993 . S
Co783 O808 1.941 . S
C784 O785 1.258 . S
C784 O786 1.263 . S
O785 Co782 1.970 . S
O785 C784 1.258 . S
O786 Co783 1.966 . S
O786 C784 1.263 . S
C787 O788 1.235 . S
C787 O814 1.289 . S
O788 C787 1.235 . S
C789 C791 1.400 . S
C789 N792 1.351 . S
C789 C794 1.501 . S
C790 C791 1.387 . S
C790 N793 1.341 . S
C791 C789 1.400 . S
C791 C790 1.387 . S
N792 Co783 2.022 . S
N792 C789 1.351 . S
N792 N793 1.365 . S
N793 C790 1.341 . S
N793 N792 1.365 . S
N793 H813 0.862 . S
C794 C789 1.501 . S
C794 H795 0.961 . S
C794 H796 0.961 . S
C794 H797 0.960 . S
H795 C794 0.961 . S
H796 C794 0.961 . S
H797 C794 0.960 . S
C798 N799 1.342 . S
C798 C802 1.401 . S
C798 C803 1.499 . S
N799 Co782 1.989 . S
N799 C798 1.342 . S
N799 N800 1.388 . S
N800 Co783 1.993 . S
N800 N799 1.388 . S
N800 C801 1.346 . S
C801 N800 1.346 . S
C801 C802 1.396 . S
C801 C811 1.510 . S
C802 C798 1.401 . S
C802 C801 1.396 . S
C803 C798 1.499 . S
C803 H804 0.959 . S
C803 H805 0.960 . S
C803 H806 0.961 . S
H804 C803 0.959 . S
H805 C803 0.960 . S
H806 C803 0.961 . S
O807 Co782 1.967 . S
O807 C815 1.258 . S
O808 Co783 1.941 . S
O808 C815 1.266 . S
H809 C811 0.959 . S
H810 C811 0.961 . S
C811 C801 1.510 . S
C811 H809 0.959 . S
C811 H810 0.961 . S
C811 H812 0.960 . S
H812 C811 0.960 . S
H813 N793 0.862 . S
O814 Co782 1.920 . S
O814 C787 1.289 . S
C815 O807 1.258 . S
C815 O808 1.266 . S
C816 C817 1.369 . S
C816 C818 1.419 . S
C816 H820 0.930 . S
C817 C816 1.369 . S
C817 C826 1.429 . S
C818 C816 1.419 . S
C818 C819 1.363 . S
C818 H821 0.929 . S
C819 C818 1.363 . S
C819 C825 1.428 . S
H820 C816 0.930 . S
H821 C818 0.929 . S
S822 N823 1.613 . S
S822 N824 1.610 . S
N823 S822 1.613 . S
N823 C826 1.350 . S
N824 S822 1.610 . S
N824 C825 1.351 . S
C825 C819 1.428 . S
C825 N824 1.351 . S
C825 C826 1.434 . S
C826 C817 1.429 . S
C826 N823 1.350 . S
C826 C825 1.434 . S
C827 C828 1.369 . S
C827 C829 1.419 . S
C827 H831 0.930 . S
C828 C827 1.369 . S
C828 C837 1.429 . S
C829 C827 1.419 . S
C829 C830 1.363 . S
C829 H832 0.929 . S
C830 C829 1.363 . S
C830 C836 1.428 . S
H831 C827 0.930 . S
H832 C829 0.929 . S
S833 N834 1.613 . S
S833 N835 1.610 . S
N834 S833 1.613 . S
N834 C837 1.350 . S
N835 S833 1.610 . S
N835 C836 1.351 . S
C836 C830 1.428 . S
C836 N835 1.351 . S
C836 C837 1.434 . S
C837 C828 1.429 . S
C837 N834 1.350 . S
C837 C836 1.434 . S
C838 C839 1.369 . S
C838 C840 1.419 . S
C838 H842 0.930 . S
C839 C838 1.369 . S
C839 C848 1.429 . S
C840 C838 1.419 . S
C840 C841 1.363 . S
C840 H843 0.929 . S
C841 C840 1.363 . S
C841 C847 1.428 . S
H842 C838 0.930 . S
H843 C840 0.929 . S
S844 N845 1.613 . S
S844 N846 1.610 . S
N845 S844 1.613 . S
N845 C848 1.350 . S
N846 S844 1.610 . S
N846 C847 1.351 . S
C847 C841 1.428 . S
C847 N846 1.351 . S
C847 C848 1.434 . S
C848 C839 1.429 . S
C848 N845 1.350 . S
C848 C847 1.434 . S
C849 C850 1.369 . S
C849 C851 1.419 . S
C849 H853 0.930 . S
C850 C849 1.369 . S
C850 C859 1.429 . S
C851 C849 1.419 . S
C851 C852 1.363 . S
C851 H854 0.929 . S
C852 C851 1.363 . S
C852 C858 1.428 . S
H853 C849 0.930 . S
H854 C851 0.929 . S
S855 N856 1.613 . S
S855 N857 1.610 . S
N856 S855 1.613 . S
N856 C859 1.350 . S
N857 S855 1.610 . S
N857 C858 1.351 . S
C858 C852 1.428 . S
C858 N857 1.351 . S
C858 C859 1.434 . S
C859 C850 1.429 . S
C859 N856 1.350 . S
C859 C858 1.434 . S
C860 C861 1.369 . S
C860 C862 1.419 . S
C860 H864 0.930 . S
C861 C860 1.369 . S
C861 C870 1.429 . S
C862 C860 1.419 . S
C862 C863 1.363 . S
C862 H865 0.929 . S
C863 C862 1.363 . S
C863 C869 1.428 . S
H864 C860 0.930 . S
H865 C862 0.929 . S
S866 N867 1.613 . S
S866 N868 1.610 . S
N867 S866 1.613 . S
N867 C870 1.350 . S
N868 S866 1.610 . S
N868 C869 1.351 . S
C869 C863 1.428 . S
C869 N868 1.351 . S
C869 C870 1.434 . S
C870 C861 1.429 . S
C870 N867 1.350 . S
C870 C869 1.434 . S
C871 C872 1.369 . S
C871 C873 1.419 . S
C871 H875 0.930 . S
C872 C871 1.369 . S
C872 C881 1.429 . S
C873 C871 1.419 . S
C873 C874 1.363 . S
C873 H876 0.929 . S
C874 C873 1.363 . S
C874 C880 1.428 . S
H875 C871 0.930 . S
H876 C873 0.929 . S
S877 N878 1.613 . S
S877 N879 1.610 . S
N878 S877 1.613 . S
N878 C881 1.350 . S
N879 S877 1.610 . S
N879 C880 1.351 . S
C880 C874 1.428 . S
C880 N879 1.351 . S
C880 C881 1.434 . S
C881 C872 1.429 . S
C881 N878 1.350 . S
C881 C880 1.434 . S
C882 C883 1.369 . S
C882 C884 1.419 . S
C882 H886 0.930 . S
C883 C882 1.369 . S
C883 C892 1.429 . S
C884 C882 1.419 . S
C884 C885 1.363 . S
C884 H887 0.929 . S
C885 C884 1.363 . S
C885 C891 1.428 . S
H886 C882 0.930 . S
H887 C884 0.929 . S
S888 N889 1.613 . S
S888 N890 1.610 . S
N889 S888 1.613 . S
N889 C892 1.350 . S
N890 S888 1.610 . S
N890 C891 1.351 . S
C891 C885 1.428 . S
C891 N890 1.351 . S
C891 C892 1.434 . S
C892 C883 1.429 . S
C892 N889 1.350 . S
C892 C891 1.434 . S
C893 C894 1.369 . S
C893 C895 1.419 . S
C893 H897 0.930 . S
C894 C893 1.369 . S
C894 C903 1.429 . S
C895 C893 1.419 . S
C895 C896 1.363 . S
C895 H898 0.929 . S
C896 C895 1.363 . S
C896 C902 1.428 . S
H897 C893 0.930 . S
H898 C895 0.929 . S
S899 N900 1.613 . S
S899 N901 1.610 . S
N900 S899 1.613 . S
N900 C903 1.350 . S
N901 S899 1.610 . S
N901 C902 1.351 . S
C902 C896 1.428 . S
C902 N901 1.351 . S
C902 C903 1.434 . S
C903 C894 1.429 . S
C903 N900 1.350 . S
C903 C902 1.434 . S
C904 C905 1.369 . S
C904 C906 1.419 . S
C904 H908 0.930 . S
C905 C904 1.369 . S
C905 C914 1.429 . S
C906 C904 1.419 . S
C906 C907 1.363 . S
C906 H909 0.929 . S
C907 C906 1.363 . S
C907 C913 1.428 . S
H908 C904 0.930 . S
H909 C906 0.929 . S
S910 N911 1.613 . S
S910 N912 1.610 . S
N911 S910 1.613 . S
N911 C914 1.350 . S
N912 S910 1.610 . S
N912 C913 1.351 . S
C913 C907 1.428 . S
C913 N912 1.351 . S
C913 C914 1.434 . S
C914 C905 1.429 . S
C914 N911 1.350 . S
C914 C913 1.434 . S
C915 C916 1.369 . S
C915 C917 1.419 . S
C915 H919 0.930 . S
C916 C915 1.369 . S
C916 C925 1.429 . S
C917 C915 1.419 . S
C917 C918 1.363 . S
C917 H920 0.929 . S
C918 C917 1.363 . S
C918 C924 1.428 . S
H919 C915 0.930 . S
H920 C917 0.929 . S
S921 N922 1.613 . S
S921 N923 1.610 . S
N922 S921 1.613 . S
N922 C925 1.350 . S
N923 S921 1.610 . S
N923 C924 1.351 . S
C924 C918 1.428 . S
C924 N923 1.351 . S
C924 C925 1.434 . S
C925 C916 1.429 . S
C925 N922 1.350 . S
C925 C924 1.434 . S
C926 C927 1.369 . S
C926 C928 1.419 . S
C926 H930 0.930 . S
C927 C926 1.369 . S
C927 C936 1.429 . S
C928 C926 1.419 . S
C928 C929 1.363 . S
C928 H931 0.929 . S
C929 C928 1.363 . S
C929 C935 1.428 . S
H930 C926 0.930 . S
H931 C928 0.929 . S
S932 N933 1.613 . S
S932 N934 1.610 . S
N933 S932 1.613 . S
N933 C936 1.350 . S
N934 S932 1.610 . S
N934 C935 1.351 . S
C935 C929 1.428 . S
C935 N934 1.351 . S
C935 C936 1.434 . S
C936 C927 1.429 . S
C936 N933 1.350 . S
C936 C935 1.434 . S
C937 C938 1.369 . S
C937 C939 1.419 . S
C937 H941 0.930 . S
C938 C937 1.369 . S
C938 C947 1.429 . S
C939 C937 1.419 . S
C939 C940 1.363 . S
C939 H942 0.929 . S
C940 C939 1.363 . S
C940 C946 1.428 . S
H941 C937 0.930 . S
H942 C939 0.929 . S
S943 N944 1.613 . S
S943 N945 1.610 . S
N944 S943 1.613 . S
N944 C947 1.350 . S
N945 S943 1.610 . S
N945 C946 1.351 . S
C946 C940 1.428 . S
C946 N945 1.351 . S
C946 C947 1.434 . S
C947 C938 1.429 . S
C947 N944 1.350 . S
C947 C946 1.434 . S
C948 C949 1.369 . S
C948 C950 1.419 . S
C948 H952 0.930 . S
C949 C948 1.369 . S
C949 C958 1.429 . S
C950 C948 1.419 . S
C950 C951 1.363 . S
C950 H953 0.929 . S
C951 C950 1.363 . S
C951 C957 1.428 . S
H952 C948 0.930 . S
H953 C950 0.929 . S
S954 N955 1.613 . S
S954 N956 1.610 . S
N955 S954 1.613 . S
N955 C958 1.350 . S
N956 S954 1.610 . S
N956 C957 1.351 . S
C957 C951 1.428 . S
C957 N956 1.351 . S
C957 C958 1.434 . S
C958 C949 1.429 . S
C958 N955 1.350 . S
C958 C957 1.434 . S
C959 C960 1.369 . S
C959 C961 1.419 . S
C959 H963 0.930 . S
C960 C959 1.369 . S
C960 C969 1.429 . S
C961 C959 1.419 . S
C961 C962 1.363 . S
C961 H964 0.929 . S
C962 C961 1.363 . S
C962 C968 1.428 . S
H963 C959 0.930 . S
H964 C961 0.929 . S
S965 N966 1.613 . S
S965 N967 1.610 . S
N966 S965 1.613 . S
N966 C969 1.350 . S
N967 S965 1.610 . S
N967 C968 1.351 . S
C968 C962 1.428 . S
C968 N967 1.351 . S
C968 C969 1.434 . S
C969 C960 1.429 . S
C969 N966 1.350 . S
C969 C968 1.434 . S
C970 C971 1.369 . S
C970 C972 1.419 . S
C970 H974 0.930 . S
C971 C970 1.369 . S
C971 C980 1.429 . S
C972 C970 1.419 . S
C972 C973 1.363 . S
C972 H975 0.929 . S
C973 C972 1.363 . S
C973 C979 1.428 . S
H974 C970 0.930 . S
H975 C972 0.929 . S
S976 N977 1.613 . S
S976 N978 1.610 . S
N977 S976 1.613 . S
N977 C980 1.350 . S
N978 S976 1.610 . S
N978 C979 1.351 . S
C979 C973 1.428 . S
C979 N978 1.351 . S
C979 C980 1.434 . S
C980 C971 1.429 . S
C980 N977 1.350 . S
C980 C979 1.434 . S
C981 C982 1.369 . S
C981 C983 1.419 . S
C981 H985 0.930 . S
C982 C981 1.369 . S
C982 C991 1.429 . S
C983 C981 1.419 . S
C983 C984 1.363 . S
C983 H986 0.929 . S
C984 C983 1.363 . S
C984 C990 1.428 . S
H985 C981 0.930 . S
H986 C983 0.929 . S
S987 N988 1.613 . S
S987 N989 1.610 . S
N988 S987 1.613 . S
N988 C991 1.350 . S
N989 S987 1.610 . S
N989 C990 1.351 . S
C990 C984 1.428 . S
C990 N989 1.351 . S
C990 C991 1.434 . S
C991 C982 1.429 . S
C991 N988 1.350 . S
C991 C990 1.434 . S
C992 C993 1.369 . S
C992 C994 1.419 . S
C992 H996 0.930 . S
C993 C992 1.369 . S
C993 C1002 1.429 . S
C994 C992 1.419 . S
C994 C995 1.363 . S
C994 H997 0.929 . S
C995 C994 1.363 . S
C995 C1001 1.428 . S
H996 C992 0.930 . S
H997 C994 0.929 . S
S998 N999 1.613 . S
S998 N1000 1.610 . S
N999 S998 1.613 . S
N999 C1002 1.350 . S
N1000 S998 1.610 . S
N1000 C1001 1.351 . S
C1001 C995 1.428 . S
C1001 N1000 1.351 . S
C1001 C1002 1.434 . S
C1002 C993 1.429 . S
C1002 N999 1.350 . S
C1002 C1001 1.434 . S
C1003 C1004 1.369 . S
C1003 C1005 1.419 . S
C1003 H1007 0.930 . S
C1004 C1003 1.369 . S
C1004 C1013 1.429 . S
C1005 C1003 1.419 . S
C1005 C1006 1.363 . S
C1005 H1008 0.929 . S
C1006 C1005 1.363 . S
C1006 C1012 1.428 . S
H1007 C1003 0.930 . S
H1008 C1005 0.929 . S
S1009 N1010 1.613 . S
S1009 N1011 1.610 . S
N1010 S1009 1.613 . S
N1010 C1013 1.350 . S
N1011 S1009 1.610 . S
N1011 C1012 1.351 . S
C1012 C1006 1.428 . S
C1012 N1011 1.351 . S
C1012 C1013 1.434 . S
C1013 C1004 1.429 . S
C1013 N1010 1.350 . S
C1013 C1012 1.434 . S
C1014 C1015 1.369 . S
C1014 C1016 1.419 . S
C1014 H1018 0.930 . S
C1015 C1014 1.369 . S
C1015 C1024 1.429 . S
C1016 C1014 1.419 . S
C1016 C1017 1.363 . S
C1016 H1019 0.929 . S
C1017 C1016 1.363 . S
C1017 C1023 1.428 . S
H1018 C1014 0.930 . S
H1019 C1016 0.929 . S
S1020 N1021 1.613 . S
S1020 N1022 1.610 . S
N1021 S1020 1.613 . S
N1021 C1024 1.350 . S
N1022 S1020 1.610 . S
N1022 C1023 1.351 . S
C1023 C1017 1.428 . S
C1023 N1022 1.351 . S
C1023 C1024 1.434 . S
C1024 C1015 1.429 . S
C1024 N1021 1.350 . S
C1024 C1023 1.434 . S
C1025 C1026 1.369 . S
C1025 C1027 1.419 . S
C1025 H1029 0.930 . S
C1026 C1025 1.369 . S
C1026 C1035 1.429 . S
C1027 C1025 1.419 . S
C1027 C1028 1.363 . S
C1027 H1030 0.929 . S
C1028 C1027 1.363 . S
C1028 C1034 1.428 . S
H1029 C1025 0.930 . S
H1030 C1027 0.929 . S
S1031 N1032 1.613 . S
S1031 N1033 1.610 . S
N1032 S1031 1.613 . S
N1032 C1035 1.350 . S
N1033 S1031 1.610 . S
N1033 C1034 1.351 . S
C1034 C1028 1.428 . S
C1034 N1033 1.351 . S
C1034 C1035 1.434 . S
C1035 C1026 1.429 . S
C1035 N1032 1.350 . S
C1035 C1034 1.434 . S
C1036 C1037 1.369 . S
C1036 C1038 1.419 . S
C1036 H1040 0.930 . S
C1037 C1036 1.369 . S
C1037 C1046 1.429 . S
C1038 C1036 1.419 . S
C1038 C1039 1.363 . S
C1038 H1041 0.929 . S
C1039 C1038 1.363 . S
C1039 C1045 1.428 . S
H1040 C1036 0.930 . S
H1041 C1038 0.929 . S
S1042 N1043 1.613 . S
S1042 N1044 1.610 . S
N1043 S1042 1.613 . S
N1043 C1046 1.350 . S
N1044 S1042 1.610 . S
N1044 C1045 1.351 . S
C1045 C1039 1.428 . S
C1045 N1044 1.351 . S
C1045 C1046 1.434 . S
C1046 C1037 1.429 . S
C1046 N1043 1.350 . S
C1046 C1045 1.434 . S
C1047 C1048 1.369 . S
C1047 C1049 1.419 . S
C1047 H1051 0.930 . S
C1048 C1047 1.369 . S
C1048 C1057 1.429 . S
C1049 C1047 1.419 . S
C1049 C1050 1.363 . S
C1049 H1052 0.929 . S
C1050 C1049 1.363 . S
C1050 C1056 1.428 . S
H1051 C1047 0.930 . S
H1052 C1049 0.929 . S
S1053 N1054 1.613 . S
S1053 N1055 1.610 . S
N1054 S1053 1.613 . S
N1054 C1057 1.350 . S
N1055 S1053 1.610 . S
N1055 C1056 1.351 . S
C1056 C1050 1.428 . S
C1056 N1055 1.351 . S
C1056 C1057 1.434 . S
C1057 C1048 1.429 . S
C1057 N1054 1.350 . S
C1057 C1056 1.434 . S
C1058 C1059 1.369 . S
C1058 C1060 1.419 . S
C1058 H1062 0.930 . S
C1059 C1058 1.369 . S
C1059 C1068 1.429 . S
C1060 C1058 1.419 . S
C1060 C1061 1.363 . S
C1060 H1063 0.929 . S
C1061 C1060 1.363 . S
C1061 C1067 1.428 . S
H1062 C1058 0.930 . S
H1063 C1060 0.929 . S
S1064 N1065 1.613 . S
S1064 N1066 1.610 . S
N1065 S1064 1.613 . S
N1065 C1068 1.350 . S
N1066 S1064 1.610 . S
N1066 C1067 1.351 . S
C1067 C1061 1.428 . S
C1067 N1066 1.351 . S
C1067 C1068 1.434 . S
C1068 C1059 1.429 . S
C1068 N1065 1.350 . S
C1068 C1067 1.434 . S
C1069 C1070 1.369 . S
C1069 C1071 1.419 . S
C1069 H1073 0.930 . S
C1070 C1069 1.369 . S
C1070 C1079 1.429 . S
C1071 C1069 1.419 . S
C1071 C1072 1.363 . S
C1071 H1074 0.929 . S
C1072 C1071 1.363 . S
C1072 C1078 1.428 . S
H1073 C1069 0.930 . S
H1074 C1071 0.929 . S
S1075 N1076 1.613 . S
S1075 N1077 1.610 . S
N1076 S1075 1.613 . S
N1076 C1079 1.350 . S
N1077 S1075 1.610 . S
N1077 C1078 1.351 . S
C1078 C1072 1.428 . S
C1078 N1077 1.351 . S
C1078 C1079 1.434 . S
C1079 C1070 1.429 . S
C1079 N1076 1.350 . S
C1079 C1078 1.434 . S
C1080 C1081 1.369 . S
C1080 C1082 1.419 . S
C1080 H1084 0.930 . S
C1081 C1080 1.369 . S
C1081 C1090 1.429 . S
C1082 C1080 1.419 . S
C1082 C1083 1.363 . S
C1082 H1085 0.929 . S
C1083 C1082 1.363 . S
C1083 C1089 1.428 . S
H1084 C1080 0.930 . S
H1085 C1082 0.929 . S
S1086 N1087 1.613 . S
S1086 N1088 1.610 . S
N1087 S1086 1.613 . S
N1087 C1090 1.350 . S
N1088 S1086 1.610 . S
N1088 C1089 1.351 . S
C1089 C1083 1.428 . S
C1089 N1088 1.351 . S
C1089 C1090 1.434 . S
C1090 C1081 1.429 . S
C1090 N1087 1.350 . S
C1090 C1089 1.434 . S
C1091 C1092 1.369 . S
C1091 C1093 1.419 . S
C1091 H1095 0.930 . S
C1092 C1091 1.369 . S
C1092 C1101 1.429 . S
C1093 C1091 1.419 . S
C1093 C1094 1.363 . S
C1093 H1096 0.929 . S
C1094 C1093 1.363 . S
C1094 C1100 1.428 . S
H1095 C1091 0.930 . S
H1096 C1093 0.929 . S
S1097 N1098 1.613 . S
S1097 N1099 1.610 . S
N1098 S1097 1.613 . S
N1098 C1101 1.350 . S
N1099 S1097 1.610 . S
N1099 C1100 1.351 . S
C1100 C1094 1.428 . S
C1100 N1099 1.351 . S
C1100 C1101 1.434 . S
C1101 C1092 1.429 . S
C1101 N1098 1.350 . S
C1101 C1100 1.434 . S
C1102 C1103 1.369 . S
C1102 C1104 1.419 . S
C1102 H1106 0.930 . S
C1103 C1102 1.369 . S
C1103 C1112 1.429 . S
C1104 C1102 1.419 . S
C1104 C1105 1.363 . S
C1104 H1107 0.929 . S
C1105 C1104 1.363 . S
C1105 C1111 1.428 . S
H1106 C1102 0.930 . S
H1107 C1104 0.929 . S
S1108 N1109 1.613 . S
S1108 N1110 1.610 . S
N1109 S1108 1.613 . S
N1109 C1112 1.350 . S
N1110 S1108 1.610 . S
N1110 C1111 1.351 . S
C1111 C1105 1.428 . S
C1111 N1110 1.351 . S
C1111 C1112 1.434 . S
C1112 C1103 1.429 . S
C1112 N1109 1.350 . S
C1112 C1111 1.434 . S
C1113 C1114 1.369 . S
C1113 C1115 1.419 . S
C1113 H1117 0.930 . S
C1114 C1113 1.369 . S
C1114 C1123 1.429 . S
C1115 C1113 1.419 . S
C1115 C1116 1.363 . S
C1115 H1118 0.929 . S
C1116 C1115 1.363 . S
C1116 C1122 1.428 . S
H1117 C1113 0.930 . S
H1118 C1115 0.929 . S
S1119 N1120 1.613 . S
S1119 N1121 1.610 . S
N1120 S1119 1.613 . S
N1120 C1123 1.350 . S
N1121 S1119 1.610 . S
N1121 C1122 1.351 . S
C1122 C1116 1.428 . S
C1122 N1121 1.351 . S
C1122 C1123 1.434 . S
C1123 C1114 1.429 . S
C1123 N1120 1.350 . S
C1123 C1122 1.434 . S
C1124 C1125 1.369 . S
C1124 C1126 1.419 . S
C1124 H1128 0.930 . S
C1125 C1124 1.369 . S
C1125 C1134 1.429 . S
C1126 C1124 1.419 . S
C1126 C1127 1.363 . S
C1126 H1129 0.929 . S
C1127 C1126 1.363 . S
C1127 C1133 1.428 . S
H1128 C1124 0.930 . S
H1129 C1126 0.929 . S
S1130 N1131 1.613 . S
S1130 N1132 1.610 . S
N1131 S1130 1.613 . S
N1131 C1134 1.350 . S
N1132 S1130 1.610 . S
N1132 C1133 1.351 . S
C1133 C1127 1.428 . S
C1133 N1132 1.351 . S
C1133 C1134 1.434 . S
C1134 C1125 1.429 . S
C1134 N1131 1.350 . S
C1134 C1133 1.434 . S
C1135 C1136 1.369 . S
C1135 C1137 1.419 . S
C1135 H1139 0.930 . S
C1136 C1135 1.369 . S
C1136 C1145 1.429 . S
C1137 C1135 1.419 . S
C1137 C1138 1.363 . S
C1137 H1140 0.929 . S
C1138 C1137 1.363 . S
C1138 C1144 1.428 . S
H1139 C1135 0.930 . S
H1140 C1137 0.929 . S
S1141 N1142 1.613 . S
S1141 N1143 1.610 . S
N1142 S1141 1.613 . S
N1142 C1145 1.350 . S
N1143 S1141 1.610 . S
N1143 C1144 1.351 . S
C1144 C1138 1.428 . S
C1144 N1143 1.351 . S
C1144 C1145 1.434 . S
C1145 C1136 1.429 . S
C1145 N1142 1.350 . S
C1145 C1144 1.434 . S
C1146 C1147 1.369 . S
C1146 C1148 1.419 . S
C1146 H1150 0.930 . S
C1147 C1146 1.369 . S
C1147 C1156 1.429 . S
C1148 C1146 1.419 . S
C1148 C1149 1.363 . S
C1148 H1151 0.929 . S
C1149 C1148 1.363 . S
C1149 C1155 1.428 . S
H1150 C1146 0.930 . S
H1151 C1148 0.929 . S
S1152 N1153 1.613 . S
S1152 N1154 1.610 . S
N1153 S1152 1.613 . S
N1153 C1156 1.350 . S
N1154 S1152 1.610 . S
N1154 C1155 1.351 . S
C1155 C1149 1.428 . S
C1155 N1154 1.351 . S
C1155 C1156 1.434 . S
C1156 C1147 1.429 . S
C1156 N1153 1.350 . S
C1156 C1155 1.434 . S
C1157 C1158 1.369 . S
C1157 C1159 1.419 . S
C1157 H1161 0.930 . S
C1158 C1157 1.369 . S
C1158 C1167 1.429 . S
C1159 C1157 1.419 . S
C1159 C1160 1.363 . S
C1159 H1162 0.929 . S
C1160 C1159 1.363 . S
C1160 C1166 1.428 . S
H1161 C1157 0.930 . S
H1162 C1159 0.929 . S
S1163 N1164 1.613 . S
S1163 N1165 1.610 . S
N1164 S1163 1.613 . S
N1164 C1167 1.350 . S
N1165 S1163 1.610 . S
N1165 C1166 1.351 . S
C1166 C1160 1.428 . S
C1166 N1165 1.351 . S
C1166 C1167 1.434 . S
C1167 C1158 1.429 . S
C1167 N1164 1.350 . S
C1167 C1166 1.434 . S
C1168 C1169 1.369 . S
C1168 C1170 1.419 . S
C1168 H1172 0.930 . S
C1169 C1168 1.369 . S
C1169 C1178 1.429 . S
C1170 C1168 1.419 . S
C1170 C1171 1.363 . S
C1170 H1173 0.929 . S
C1171 C1170 1.363 . S
C1171 C1177 1.428 . S
H1172 C1168 0.930 . S
H1173 C1170 0.929 . S
S1174 N1175 1.613 . S
S1174 N1176 1.610 . S
N1175 S1174 1.613 . S
N1175 C1178 1.350 . S
N1176 S1174 1.610 . S
N1176 C1177 1.351 . S
C1177 C1171 1.428 . S
C1177 N1176 1.351 . S
C1177 C1178 1.434 . S
C1178 C1169 1.429 . S
C1178 N1175 1.350 . S
C1178 C1177 1.434 . S
C1179 C1180 1.369 . S
C1179 C1181 1.419 . S
C1179 H1183 0.930 . S
C1180 C1179 1.369 . S
C1180 C1189 1.429 . S
C1181 C1179 1.419 . S
C1181 C1182 1.363 . S
C1181 H1184 0.929 . S
C1182 C1181 1.363 . S
C1182 C1188 1.428 . S
H1183 C1179 0.930 . S
H1184 C1181 0.929 . S
S1185 N1186 1.613 . S
S1185 N1187 1.610 . S
N1186 S1185 1.613 . S
N1186 C1189 1.350 . S
N1187 S1185 1.610 . S
N1187 C1188 1.351 . S
C1188 C1182 1.428 . S
C1188 N1187 1.351 . S
C1188 C1189 1.434 . S
C1189 C1180 1.429 . S
C1189 N1186 1.350 . S
C1189 C1188 1.434 . S
C1190 C1191 1.369 . S
C1190 C1192 1.419 . S
C1190 H1194 0.930 . S
C1191 C1190 1.369 . S
C1191 C1200 1.429 . S
C1192 C1190 1.419 . S
C1192 C1193 1.363 . S
C1192 H1195 0.929 . S
C1193 C1192 1.363 . S
C1193 C1199 1.428 . S
H1194 C1190 0.930 . S
H1195 C1192 0.929 . S
S1196 N1197 1.613 . S
S1196 N1198 1.610 . S
N1197 S1196 1.613 . S
N1197 C1200 1.350 . S
N1198 S1196 1.610 . S
N1198 C1199 1.351 . S
C1199 C1193 1.428 . S
C1199 N1198 1.351 . S
C1199 C1200 1.434 . S
C1200 C1191 1.429 . S
C1200 N1197 1.350 . S
C1200 C1199 1.434 . S
C1201 C1202 1.369 . S
C1201 C1203 1.419 . S
C1201 H1205 0.930 . S
C1202 C1201 1.369 . S
C1202 C1211 1.429 . S
C1203 C1201 1.419 . S
C1203 C1204 1.363 . S
C1203 H1206 0.929 . S
C1204 C1203 1.363 . S
C1204 C1210 1.428 . S
H1205 C1201 0.930 . S
H1206 C1203 0.929 . S
S1207 N1208 1.613 . S
S1207 N1209 1.610 . S
N1208 S1207 1.613 . S
N1208 C1211 1.350 . S
N1209 S1207 1.610 . S
N1209 C1210 1.351 . S
C1210 C1204 1.428 . S
C1210 N1209 1.351 . S
C1210 C1211 1.434 . S
C1211 C1202 1.429 . S
C1211 N1208 1.350 . S
C1211 C1210 1.434 . S
C1212 C1213 1.369 . S
C1212 C1214 1.419 1_565 S
C1212 H1216 0.930 . S
C1213 C1212 1.369 . S
C1213 C1222 1.429 . S
C1214 C1212 1.419 1_545 S
C1214 C1215 1.363 . S
C1214 H1217 0.929 . S
C1215 C1214 1.363 . S
C1215 C1221 1.428 . S
H1216 C1212 0.930 . S
H1217 C1214 0.929 . S
S1218 N1219 1.613 1_545 S
S1218 N1220 1.610 . S
N1219 S1218 1.613 1_565 S
N1219 C1222 1.350 . S
N1220 S1218 1.610 . S
N1220 C1221 1.351 . S
C1221 C1215 1.428 . S
C1221 N1220 1.351 . S
C1221 C1222 1.434 1_545 S
C1222 C1213 1.429 . S
C1222 N1219 1.350 . S
C1222 C1221 1.434 1_565 S
C1223 C1224 1.369 . S
C1223 C1225 1.419 1_455 S
C1223 H1227 0.930 . S
C1224 C1223 1.369 . S
C1224 C1233 1.429 . S
C1225 C1223 1.419 1_655 S
C1225 C1226 1.363 . S
C1225 H1228 0.929 . S
C1226 C1225 1.363 . S
C1226 C1232 1.428 . S
H1227 C1223 0.930 . S
H1228 C1225 0.929 . S
S1229 N1230 1.613 1_655 S
S1229 N1231 1.610 . S
N1230 S1229 1.613 1_455 S
N1230 C1233 1.350 . S
N1231 S1229 1.610 . S
N1231 C1232 1.351 . S
C1232 C1226 1.428 . S
C1232 N1231 1.351 . S
C1232 C1233 1.434 1_655 S
C1233 C1224 1.429 . S
C1233 N1230 1.350 . S
C1233 C1232 1.434 1_455 S
C1234 C1235 1.369 . S
C1234 C1236 1.419 . S
C1234 H1238 0.930 . S
C1235 C1234 1.369 . S
C1235 C1244 1.429 . S
C1236 C1234 1.419 . S
C1236 C1237 1.363 . S
C1236 H1239 0.929 . S
C1237 C1236 1.363 . S
C1237 C1243 1.428 . S
H1238 C1234 0.930 . S
H1239 C1236 0.929 . S
S1240 N1241 1.613 . S
S1240 N1242 1.610 . S
N1241 S1240 1.613 . S
N1241 C1244 1.350 . S
N1242 S1240 1.610 . S
N1242 C1243 1.351 . S
C1243 C1237 1.428 . S
C1243 N1242 1.351 . S
C1243 C1244 1.434 . S
C1244 C1235 1.429 . S
C1244 N1241 1.350 . S
C1244 C1243 1.434 . S
C1245 C1246 1.369 . S
C1245 C1247 1.419 . S
C1245 H1249 0.930 . S
C1246 C1245 1.369 . S
C1246 C1255 1.429 . S
C1247 C1245 1.419 . S
C1247 C1248 1.363 . S
C1247 H1250 0.929 . S
C1248 C1247 1.363 . S
C1248 C1254 1.428 . S
H1249 C1245 0.930 . S
H1250 C1247 0.929 . S
S1251 N1252 1.613 . S
S1251 N1253 1.610 . S
N1252 S1251 1.613 . S
N1252 C1255 1.350 . S
N1253 S1251 1.610 . S
N1253 C1254 1.351 . S
C1254 C1248 1.428 . S
C1254 N1253 1.351 . S
C1254 C1255 1.434 . S
C1255 C1246 1.429 . S
C1255 N1252 1.350 . S
C1255 C1254 1.434 . S
C1256 C1257 1.369 . S
C1256 C1258 1.419 . S
C1256 H1260 0.930 . S
C1257 C1256 1.369 . S
C1257 C1266 1.429 . S
C1258 C1256 1.419 . S
C1258 C1259 1.363 . S
C1258 H1261 0.929 . S
C1259 C1258 1.363 . S
C1259 C1265 1.428 . S
H1260 C1256 0.930 . S
H1261 C1258 0.929 . S
S1262 N1263 1.613 . S
S1262 N1264 1.610 . S
N1263 S1262 1.613 . S
N1263 C1266 1.350 . S
N1264 S1262 1.610 . S
N1264 C1265 1.351 . S
C1265 C1259 1.428 . S
C1265 N1264 1.351 . S
C1265 C1266 1.434 . S
C1266 C1257 1.429 . S
C1266 N1263 1.350 . S
C1266 C1265 1.434 . S
C1267 C1268 1.369 . S
C1267 C1269 1.419 . S
C1267 H1271 0.930 . S
C1268 C1267 1.369 . S
C1268 C1277 1.429 . S
C1269 C1267 1.419 . S
C1269 C1270 1.363 . S
C1269 H1272 0.929 . S
C1270 C1269 1.363 . S
C1270 C1276 1.428 . S
H1271 C1267 0.930 . S
H1272 C1269 0.929 . S
S1273 N1274 1.613 . S
S1273 N1275 1.610 . S
N1274 S1273 1.613 . S
N1274 C1277 1.350 . S
N1275 S1273 1.610 . S
N1275 C1276 1.351 . S
C1276 C1270 1.428 . S
C1276 N1275 1.351 . S
C1276 C1277 1.434 . S
C1277 C1268 1.429 . S
C1277 N1274 1.350 . S
C1277 C1276 1.434 . S
C1278 C1279 1.369 . S
C1278 C1280 1.419 1_545 S
C1278 H1282 0.930 . S
C1279 C1278 1.369 . S
C1279 C1288 1.429 . S
C1280 C1278 1.419 1_565 S
C1280 C1281 1.363 . S
C1280 H1283 0.929 . S
C1281 C1280 1.363 . S
C1281 C1287 1.428 . S
H1282 C1278 0.930 . S
H1283 C1280 0.929 . S
S1284 N1285 1.613 . S
S1284 N1286 1.610 1_545 S
N1285 S1284 1.613 . S
N1285 C1288 1.350 . S
N1286 S1284 1.610 1_565 S
N1286 C1287 1.351 . S
C1287 C1281 1.428 . S
C1287 N1286 1.351 . S
C1287 C1288 1.434 1_565 S
C1288 C1279 1.429 . S
C1288 N1285 1.350 . S
C1288 C1287 1.434 1_545 S
C1289 C1290 1.369 . S
C1289 C1291 1.419 1_455 S
C1289 H1293 0.930 . S
C1290 C1289 1.369 . S
C1290 C1299 1.429 . S
C1291 C1289 1.419 1_655 S
C1291 C1292 1.363 . S
C1291 H1294 0.929 . S
C1292 C1291 1.363 . S
C1292 C1298 1.428 . S
H1293 C1289 0.930 . S
H1294 C1291 0.929 . S
S1295 N1296 1.613 1_655 S
S1295 N1297 1.610 . S
N1296 S1295 1.613 1_455 S
N1296 C1299 1.350 . S
N1297 S1295 1.610 . S
N1297 C1298 1.351 . S
C1298 C1292 1.428 . S
C1298 N1297 1.351 . S
C1298 C1299 1.434 1_655 S
C1299 C1290 1.429 . S
C1299 N1296 1.350 . S
C1299 C1298 1.434 1_455 S
C1300 C1301 1.369 . S
C1300 C1302 1.419 1_554 S
C1300 H1304 0.930 . S
C1301 C1300 1.369 . S
C1301 C1310 1.429 . S
C1302 C1300 1.419 1_556 S
C1302 C1303 1.363 . S
C1302 H1305 0.929 . S
C1303 C1302 1.363 . S
C1303 C1309 1.428 . S
H1304 C1300 0.930 . S
H1305 C1302 0.929 . S
S1306 N1307 1.613 1_556 S
S1306 N1308 1.610 . S
N1307 S1306 1.613 1_554 S
N1307 C1310 1.350 . S
N1308 S1306 1.610 . S
N1308 C1309 1.351 . S
C1309 C1303 1.428 . S
C1309 N1308 1.351 . S
C1309 C1310 1.434 1_556 S
C1310 C1301 1.429 . S
C1310 N1307 1.350 . S
C1310 C1309 1.434 1_554 S
C1311 C1312 1.369 . S
C1311 C1313 1.419 . S
C1311 H1315 0.930 . S
C1312 C1311 1.369 . S
C1312 C1321 1.429 . S
C1313 C1311 1.419 . S
C1313 C1314 1.363 . S
C1313 H1316 0.929 . S
C1314 C1313 1.363 . S
C1314 C1320 1.428 . S
H1315 C1311 0.930 . S
H1316 C1313 0.929 . S
S1317 N1318 1.613 . S
S1317 N1319 1.610 . S
N1318 S1317 1.613 . S
N1318 C1321 1.350 . S
N1319 S1317 1.610 . S
N1319 C1320 1.351 . S
C1320 C1314 1.428 . S
C1320 N1319 1.351 . S
C1320 C1321 1.434 . S
C1321 C1312 1.429 . S
C1321 N1318 1.350 . S
C1321 C1320 1.434 . S
C1322 C1323 1.369 . S
C1322 C1324 1.419 1_556 S
C1322 H1326 0.930 . S
C1323 C1322 1.369 . S
C1323 C1332 1.429 . S
C1324 C1322 1.419 1_554 S
C1324 C1325 1.363 . S
C1324 H1327 0.929 . S
C1325 C1324 1.363 . S
C1325 C1331 1.428 . S
H1326 C1322 0.930 . S
H1327 C1324 0.929 . S
S1328 N1329 1.613 1_554 S
S1328 N1330 1.610 . S
N1329 S1328 1.613 1_556 S
N1329 C1332 1.350 . S
N1330 S1328 1.610 . S
N1330 C1331 1.351 . S
C1331 C1325 1.428 . S
C1331 N1330 1.351 . S
C1331 C1332 1.434 1_554 S
C1332 C1323 1.429 . S
C1332 N1329 1.350 . S
C1332 C1331 1.434 1_556 S
C1333 C1334 1.369 . S
C1333 C1335 1.419 . S
C1333 H1337 0.930 . S
C1334 C1333 1.369 . S
C1334 C1343 1.429 . S
C1335 C1333 1.419 . S
C1335 C1336 1.363 . S
C1335 H1338 0.929 . S
C1336 C1335 1.363 . S
C1336 C1342 1.428 . S
H1337 C1333 0.930 . S
H1338 C1335 0.929 . S
S1339 N1340 1.613 . S
S1339 N1341 1.610 . S
N1340 S1339 1.613 . S
N1340 C1343 1.350 . S
N1341 S1339 1.610 . S
N1341 C1342 1.351 . S
C1342 C1336 1.428 . S
C1342 N1341 1.351 . S
C1342 C1343 1.434 . S
C1343 C1334 1.429 . S
C1343 N1340 1.350 . S
C1343 C1342 1.434 . S
C1344 C1345 1.369 1_545 S
C1344 C1346 1.419 . S
C1344 H1348 0.930 . S
C1345 C1344 1.369 1_565 S
C1345 C1354 1.429 . S
C1346 C1344 1.419 . S
C1346 C1347 1.363 . S
C1346 H1349 0.929 . S
C1347 C1346 1.363 . S
C1347 C1353 1.428 1_545 S
H1348 C1344 0.930 . S
H1349 C1346 0.929 . S
S1350 N1351 1.613 . S
S1350 N1352 1.610 . S
N1351 S1350 1.613 . S
N1351 C1354 1.350 . S
N1352 S1350 1.610 . S
N1352 C1353 1.351 . S
C1353 C1347 1.428 1_565 S
C1353 N1352 1.351 . S
C1353 C1354 1.434 . S
C1354 C1345 1.429 . S
C1354 N1351 1.350 . S
C1354 C1353 1.434 . S
C1355 C1356 1.369 . S
C1355 C1357 1.419 1_455 S
C1355 H1359 0.930 . S
C1356 C1355 1.369 . S
C1356 C1365 1.429 . S
C1357 C1355 1.419 1_655 S
C1357 C1358 1.363 . S
C1357 H1360 0.929 . S
C1358 C1357 1.363 . S
C1358 C1364 1.428 . S
H1359 C1355 0.930 . S
H1360 C1357 0.929 . S
S1361 N1362 1.613 . S
S1361 N1363 1.610 1_455 S
N1362 S1361 1.613 . S
N1362 C1365 1.350 . S
N1363 S1361 1.610 1_655 S
N1363 C1364 1.351 . S
C1364 C1358 1.428 . S
C1364 N1363 1.351 . S
C1364 C1365 1.434 1_655 S
C1365 C1356 1.429 . S
C1365 N1362 1.350 . S
C1365 C1364 1.434 1_455 S
C1366 C1367 1.369 . S
C1366 C1368 1.419 . S
C1366 H1370 0.930 . S
C1367 C1366 1.369 . S
C1367 C1376 1.429 . S
C1368 C1366 1.419 . S
C1368 C1369 1.363 . S
C1368 H1371 0.929 . S
C1369 C1368 1.363 . S
C1369 C1375 1.428 . S
H1370 C1366 0.930 . S
H1371 C1368 0.929 . S
S1372 N1373 1.613 . S
S1372 N1374 1.610 . S
N1373 S1372 1.613 . S
N1373 C1376 1.350 . S
N1374 S1372 1.610 . S
N1374 C1375 1.351 . S
C1375 C1369 1.428 . S
C1375 N1374 1.351 . S
C1375 C1376 1.434 . S
C1376 C1367 1.429 . S
C1376 N1373 1.350 . S
C1376 C1375 1.434 . S
C1377 C1378 1.369 . S
C1377 C1379 1.419 . S
C1377 H1381 0.930 . S
C1378 C1377 1.369 . S
C1378 C1387 1.429 . S
C1379 C1377 1.419 . S
C1379 C1380 1.363 . S
C1379 H1382 0.929 . S
C1380 C1379 1.363 . S
C1380 C1386 1.428 . S
H1381 C1377 0.930 . S
H1382 C1379 0.929 . S
S1383 N1384 1.613 . S
S1383 N1385 1.610 . S
N1384 S1383 1.613 . S
N1384 C1387 1.350 . S
N1385 S1383 1.610 . S
N1385 C1386 1.351 . S
C1386 C1380 1.428 . S
C1386 N1385 1.351 . S
C1386 C1387 1.434 . S
C1387 C1378 1.429 . S
C1387 N1384 1.350 . S
C1387 C1386 1.434 . S
C1388 C1389 1.369 . S
C1388 C1390 1.419 . S
C1388 H1392 0.930 . S
C1389 C1388 1.369 . S
C1389 C1398 1.429 . S
C1390 C1388 1.419 . S
C1390 C1391 1.363 . S
C1390 H1393 0.929 . S
C1391 C1390 1.363 . S
C1391 C1397 1.428 . S
H1392 C1388 0.930 . S
H1393 C1390 0.929 . S
S1394 N1395 1.613 . S
S1394 N1396 1.610 . S
N1395 S1394 1.613 . S
N1395 C1398 1.350 . S
N1396 S1394 1.610 . S
N1396 C1397 1.351 . S
C1397 C1391 1.428 . S
C1397 N1396 1.351 . S
C1397 C1398 1.434 . S
C1398 C1389 1.429 . S
C1398 N1395 1.350 . S
C1398 C1397 1.434 . S
C1399 C1400 1.369 . S
C1399 C1401 1.419 . S
C1399 H1403 0.930 . S
C1400 C1399 1.369 . S
C1400 C1409 1.429 . S
C1401 C1399 1.419 . S
C1401 C1402 1.363 . S
C1401 H1404 0.929 . S
C1402 C1401 1.363 . S
C1402 C1408 1.428 . S
H1403 C1399 0.930 . S
H1404 C1401 0.929 . S
S1405 N1406 1.613 . S
S1405 N1407 1.610 . S
N1406 S1405 1.613 . S
N1406 C1409 1.350 . S
N1407 S1405 1.610 . S
N1407 C1408 1.351 . S
C1408 C1402 1.428 . S
C1408 N1407 1.351 . S
C1408 C1409 1.434 . S
C1409 C1400 1.429 . S
C1409 N1406 1.350 . S
C1409 C1408 1.434 . S
C1410 C1411 1.369 1_565 S
C1410 C1412 1.419 . S
C1410 H1414 0.930 . S
C1411 C1410 1.369 1_545 S
C1411 C1420 1.429 . S
C1412 C1410 1.419 . S
C1412 C1413 1.363 . S
C1412 H1415 0.929 . S
C1413 C1412 1.363 . S
C1413 C1419 1.428 1_565 S
H1414 C1410 0.930 . S
H1415 C1412 0.929 . S
S1416 N1417 1.613 . S
S1416 N1418 1.610 . S
N1417 S1416 1.613 . S
N1417 C1420 1.350 . S
N1418 S1416 1.610 . S
N1418 C1419 1.351 . S
C1419 C1413 1.428 1_545 S
C1419 N1418 1.351 . S
C1419 C1420 1.434 . S
C1420 C1411 1.429 . S
C1420 N1417 1.350 . S
C1420 C1419 1.434 . S
C1421 C1422 1.369 . S
C1421 C1423 1.429 . S
C1421 H1425 0.930 . S
C1422 C1421 1.369 . S
C1422 C1431 1.429 1_655 S
C1423 C1421 1.429 . S
C1423 C1424 1.351 1_655 S
C1423 H1426 0.930 . S
C1424 C1423 1.351 1_455 S
C1424 C1430 1.428 . S
H1425 C1421 0.930 . S
H1426 C1423 0.930 . S
S1427 N1428 1.613 . S
S1427 N1429 1.610 . S
N1428 S1427 1.613 . S
N1428 C1431 1.350 . S
N1429 S1427 1.610 . S
N1429 C1430 1.351 . S
C1430 C1424 1.428 . S
C1430 N1429 1.351 . S
C1430 C1431 1.434 . S
C1431 C1422 1.429 1_455 S
C1431 N1428 1.350 . S
C1431 C1430 1.434 . S
C1432 C1433 1.369 . S
C1432 C1434 1.419 1_554 S
C1432 H1436 0.930 . S
C1433 C1432 1.369 . S
C1433 C1442 1.429 . S
C1434 C1432 1.419 1_556 S
C1434 C1435 1.363 . S
C1434 H1437 0.929 . S
C1435 C1434 1.363 . S
C1435 C1441 1.428 . S
H1436 C1432 0.930 . S
H1437 C1434 0.929 . S
S1438 N1439 1.613 1_556 S
S1438 N1440 1.610 . S
N1439 S1438 1.613 1_554 S
N1439 C1442 1.350 . S
N1440 S1438 1.610 . S
N1440 C1441 1.351 . S
C1441 C1435 1.428 . S
C1441 N1440 1.351 . S
C1441 C1442 1.434 1_556 S
C1442 C1433 1.429 . S
C1442 N1439 1.350 . S
C1442 C1441 1.434 1_554 S
C1443 C1444 1.369 . S
C1443 C1445 1.419 . S
C1443 H1447 0.930 . S
C1444 C1443 1.369 . S
C1444 C1453 1.429 . S
C1445 C1443 1.419 . S
C1445 C1446 1.363 . S
C1445 H1448 0.929 . S
C1446 C1445 1.363 . S
C1446 C1452 1.428 . S
H1447 C1443 0.930 . S
H1448 C1445 0.929 . S
S1449 N1450 1.613 . S
S1449 N1451 1.610 . S
N1450 S1449 1.613 . S
N1450 C1453 1.350 . S
N1451 S1449 1.610 . S
N1451 C1452 1.351 . S
C1452 C1446 1.428 . S
C1452 N1451 1.351 . S
C1452 C1453 1.434 . S
C1453 C1444 1.429 . S
C1453 N1450 1.350 . S
C1453 C1452 1.434 . S
C1454 C1455 1.369 . S
C1454 C1456 1.419 1_556 S
C1454 H1458 0.930 . S
C1455 C1454 1.369 . S
C1455 C1464 1.429 . S
C1456 C1454 1.419 1_554 S
C1456 C1457 1.363 . S
C1456 H1459 0.929 . S
C1457 C1456 1.363 . S
C1457 C1463 1.428 . S
H1458 C1454 0.930 . S
H1459 C1456 0.929 . S
S1460 N1461 1.613 . S
S1460 N1462 1.610 1_556 S
N1461 S1460 1.613 . S
N1461 C1464 1.350 . S
N1462 S1460 1.610 1_554 S
N1462 C1463 1.351 . S
C1463 C1457 1.428 . S
C1463 N1462 1.351 . S
C1463 C1464 1.434 1_554 S
C1464 C1455 1.429 . S
C1464 N1461 1.350 . S
C1464 C1463 1.434 1_556 S
C1465 C1466 1.369 . S
C1465 C1467 1.419 . S
C1465 H1469 0.930 . S
C1466 C1465 1.369 . S
C1466 C1475 1.429 . S
C1467 C1465 1.419 . S
C1467 C1468 1.363 . S
C1467 H1470 0.929 . S
C1468 C1467 1.363 . S
C1468 C1474 1.428 . S
H1469 C1465 0.930 . S
H1470 C1467 0.929 . S
S1471 N1472 1.613 . S
S1471 N1473 1.610 . S
N1472 S1471 1.613 . S
N1472 C1475 1.350 . S
N1473 S1471 1.610 . S
N1473 C1474 1.351 . S
C1474 C1468 1.428 . S
C1474 N1473 1.351 . S
C1474 C1475 1.434 . S
C1475 C1466 1.429 . S
C1475 N1472 1.350 . S
C1475 C1474 1.434 . S
C817 C101 2.036 . S
C819 C33 2.035 . S
C828 C67 2.033 . S
C830 C135 2.033 . S
C839 C169 2.031 . S
C841 C237 2.031 . S
C850 C271 2.031 . S
C852 C203 2.031 . S
C861 C441 2.032 . S
C863 C305 2.033 . S
C872 C339 2.037 . S
C874 C475 2.036 . S
C883 C509 2.031 . S
C885 C373 2.031 . S
C894 C543 2.033 . S
C896 C407 2.033 . S
C905 C577 2.031 . S
C907 C679 2.031 . S
C916 C611 2.037 . S
C918 C747 2.036 . S
C927 C645 2.033 . S
C929 C781 2.032 . S
C938 C815 2.036 . S
C940 C713 2.035 . S
C949 C138 1.797 . S
C951 C2 1.797 . S
C960 C172 1.798 . S
C962 C36 1.798 . S
C971 C206 1.794 . S
C973 C70 1.795 . S
C982 C240 1.795 . S
C984 C104 1.795 . S
C993 C274 1.794 . S
C995 C478 1.795 . S
C1004 C512 1.798 . S
C1006 C308 1.798 . S
C1015 C410 1.796 . S
C1017 C342 1.796 . S
C1026 C444 1.795 . S
C1028 C376 1.795 . S
C1037 C716 1.799 . S
C1039 C546 1.798 . S
C1048 C580 1.794 . S
C1050 C648 1.795 . S
C1059 C614 1.794 . S
C1061 C682 1.795 . S
C1070 C784 1.795 . S
C1072 C750 1.795 . S
C1081 C243 0.884 . S
C1083 C39 0.858 . S
C1092 C73 0.870 . S
C1094 C141 0.867 . S
C1103 C175 0.875 . S
C1105 C107 0.866 . S
C1114 C209 0.884 . S
C1116 C5 0.858 . S
C1125 C753 0.856 . S
C1127 C685 0.878 . S
C1136 C549 0.882 . S
C1138 C583 0.859 . S
C1147 C617 0.884 . S
C1149 C787 0.858 . S
C1158 C719 0.869 . S
C1160 C651 0.868 . S
C1169 C447 0.861 . S
C1171 C515 0.874 . S
C1180 C311 0.868 . S
C1182 C379 0.872 . S
C1191 C345 0.883 . S
C1193 C277 0.858 . S
C1202 C413 0.875 . S
C1204 C481 0.864 . S
C1213 C768 2.317 . S
C1215 C20 2.316 . S
C1224 C564 2.320 . S
C1226 C54 2.318 . S
C1235 C802 2.315 . S
C1237 C88 2.318 . S
C1246 C734 2.316 . S
C1248 C122 2.317 . S
C1257 C156 2.316 . S
C1259 C632 2.319 . S
C1268 C190 2.316 . S
C1270 C666 2.319 . S
C1279 C224 2.316 . S
C1281 C700 2.317 . S
C1290 C598 2.318 . S
C1292 C258 2.316 . S
C1301 C292 2.319 . S
C1303 C462 2.316 . S
C1312 C496 2.315 . S
C1314 C326 2.318 . S
C1323 C530 2.320 . S
C1325 C360 2.316 . S
C1334 C428 2.319 . S
C1336 C394 2.318 . S
C1345 C247 1.664 . S
C1347 C485 1.670 . S
C1356 C145 1.665 . S
C1358 C519 1.670 . S
C1367 C417 1.666 . S
C1369 C179 1.670 . S
C1378 C451 1.664 . S
C1380 C213 1.669 . S
C1389 C43 1.667 . S
C1391 C349 1.669 . S
C1400 C383 1.671 . S
C1402 C77 1.665 . S
C1411 C281 1.664 . S
C1413 C111 1.670 . S
C1422 C315 1.670 . S
C1424 C9 1.666 . S
C1433 C723 1.669 . S
C1435 C689 1.665 . S
C1444 C757 1.669 . S
C1446 C587 1.667 . S
C1455 C621 1.666 . S
C1457 C553 1.668 . S
C1466 C791 1.670 . S
C1468 C655 1.667 . S
