# Generated by pormake.
# Topology crs, (6)-cn, num edge types: 1
# Building blocks:
#     Node 0, Type 0, BuildingBlock: CUWYAW_clean_sbu_0, # of connection points: 6
#     Node 1, Type 0, BuildingBlock: CUWYAW_clean_sbu_0, # of connection points: 6
#     Node 2, Type 0, BuildingBlock: CUWYAW_clean_sbu_0, # of connection points: 6
#     Node 3, Type 0, BuildingBlock: CUWYAW_clean_sbu_0, # of connection points: 6
#     Node 4, Type 0, BuildingBlock: CUWYAW_clean_sbu_0, # of connection points: 6
#     Node 5, Type 0, BuildingBlock: CUWYAW_clean_sbu_0, # of connection points: 6
#     Node 6, Type 0, BuildingBlock: CUWYAW_clean_sbu_0, # of connection points: 6
#     Node 7, Type 0, BuildingBlock: CUWYAW_clean_sbu_0, # of connection points: 6
#     Node 8, Type 0, BuildingBlock: CUWYAW_clean_sbu_0, # of connection points: 6
#     Node 9, Type 0, BuildingBlock: CUWYAW_clean_sbu_0, # of connection points: 6
#     Node 10, Type 0, BuildingBlock: CUWYAW_clean_sbu_0, # of connection points: 6
#     Node 11, Type 0, BuildingBlock: CUWYAW_clean_sbu_0, # of connection points: 6
#     Node 12, Type 0, BuildingBlock: CUWYAW_clean_sbu_0, # of connection points: 6
#     Node 13, Type 0, BuildingBlock: CUWYAW_clean_sbu_0, # of connection points: 6
#     Node 14, Type 0, BuildingBlock: CUWYAW_clean_sbu_0, # of connection points: 6
#     Node 15, Type 0, BuildingBlock: CUWYAW_clean_sbu_0, # of connection points: 6
#     Edge 16, Type (0, 0), BuildingBlock: CIFDUS_clean_linker_0, # of connection points: 2
#     Edge 17, Type (0, 0), BuildingBlock: CIFDUS_clean_linker_0, # of connection points: 2
#     Edge 18, Type (0, 0), BuildingBlock: CIFDUS_clean_linker_0, # of connection points: 2
#     Edge 19, Type (0, 0), BuildingBlock: CIFDUS_clean_linker_0, # of connection points: 2
#     Edge 20, Type (0, 0), BuildingBlock: CIFDUS_clean_linker_0, # of connection points: 2
#     Edge 21, Type (0, 0), BuildingBlock: CIFDUS_clean_linker_0, # of connection points: 2
#     Edge 22, Type (0, 0), BuildingBlock: CIFDUS_clean_linker_0, # of connection points: 2
#     Edge 23, Type (0, 0), BuildingBlock: CIFDUS_clean_linker_0, # of connection points: 2
#     Edge 24, Type (0, 0), BuildingBlock: CIFDUS_clean_linker_0, # of connection points: 2
#     Edge 25, Type (0, 0), BuildingBlock: CIFDUS_clean_linker_0, # of connection points: 2
#     Edge 26, Type (0, 0), BuildingBlock: CIFDUS_clean_linker_0, # of connection points: 2
#     Edge 27, Type (0, 0), BuildingBlock: CIFDUS_clean_linker_0, # of connection points: 2
#     Edge 28, Type (0, 0), BuildingBlock: CIFDUS_clean_linker_0, # of connection points: 2
#     Edge 29, Type (0, 0), BuildingBlock: CIFDUS_clean_linker_0, # of connection points: 2
#     Edge 30, Type (0, 0), BuildingBlock: CIFDUS_clean_linker_0, # of connection points: 2
#     Edge 31, Type (0, 0), BuildingBlock: CIFDUS_clean_linker_0, # of connection points: 2
#     Edge 32, Type (0, 0), BuildingBlock: CIFDUS_clean_linker_0, # of connection points: 2
#     Edge 33, Type (0, 0), BuildingBlock: CIFDUS_clean_linker_0, # of connection points: 2
#     Edge 34, Type (0, 0), BuildingBlock: CIFDUS_clean_linker_0, # of connection points: 2
#     Edge 35, Type (0, 0), BuildingBlock: CIFDUS_clean_linker_0, # of connection points: 2
#     Edge 36, Type (0, 0), BuildingBlock: CIFDUS_clean_linker_0, # of connection points: 2
#     Edge 37, Type (0, 0), BuildingBlock: CIFDUS_clean_linker_0, # of connection points: 2
#     Edge 38, Type (0, 0), BuildingBlock: CIFDUS_clean_linker_0, # of connection points: 2
#     Edge 39, Type (0, 0), BuildingBlock: CIFDUS_clean_linker_0, # of connection points: 2
#     Edge 40, Type (0, 0), BuildingBlock: CIFDUS_clean_linker_0, # of connection points: 2
#     Edge 41, Type (0, 0), BuildingBlock: CIFDUS_clean_linker_0, # of connection points: 2
#     Edge 42, Type (0, 0), BuildingBlock: CIFDUS_clean_linker_0, # of connection points: 2
#     Edge 43, Type (0, 0), BuildingBlock: CIFDUS_clean_linker_0, # of connection points: 2
#     Edge 44, Type (0, 0), BuildingBlock: CIFDUS_clean_linker_0, # of connection points: 2
#     Edge 45, Type (0, 0), BuildingBlock: CIFDUS_clean_linker_0, # of connection points: 2
#     Edge 46, Type (0, 0), BuildingBlock: CIFDUS_clean_linker_0, # of connection points: 2
#     Edge 47, Type (0, 0), BuildingBlock: CIFDUS_clean_linker_0, # of connection points: 2
#     Edge 48, Type (0, 0), BuildingBlock: CIFDUS_clean_linker_0, # of connection points: 2
#     Edge 49, Type (0, 0), BuildingBlock: CIFDUS_clean_linker_0, # of connection points: 2
#     Edge 50, Type (0, 0), BuildingBlock: CIFDUS_clean_linker_0, # of connection points: 2
#     Edge 51, Type (0, 0), BuildingBlock: CIFDUS_clean_linker_0, # of connection points: 2
#     Edge 52, Type (0, 0), BuildingBlock: CIFDUS_clean_linker_0, # of connection points: 2
#     Edge 53, Type (0, 0), BuildingBlock: CIFDUS_clean_linker_0, # of connection points: 2
#     Edge 54, Type (0, 0), BuildingBlock: CIFDUS_clean_linker_0, # of connection points: 2
#     Edge 55, Type (0, 0), BuildingBlock: CIFDUS_clean_linker_0, # of connection points: 2
#     Edge 56, Type (0, 0), BuildingBlock: CIFDUS_clean_linker_0, # of connection points: 2
#     Edge 57, Type (0, 0), BuildingBlock: CIFDUS_clean_linker_0, # of connection points: 2
#     Edge 58, Type (0, 0), BuildingBlock: CIFDUS_clean_linker_0, # of connection points: 2
#     Edge 59, Type (0, 0), BuildingBlock: CIFDUS_clean_linker_0, # of connection points: 2
#     Edge 60, Type (0, 0), BuildingBlock: CIFDUS_clean_linker_0, # of connection points: 2
#     Edge 61, Type (0, 0), BuildingBlock: CIFDUS_clean_linker_0, # of connection points: 2
#     Edge 62, Type (0, 0), BuildingBlock: CIFDUS_clean_linker_0, # of connection points: 2
#     Edge 63, Type (0, 0), BuildingBlock: CIFDUS_clean_linker_0, # of connection points: 2
# Relax obj value: 0.496
# Max RMSD: 0.381
# Mean RMSD: 0.316
data_MOF--net-crs--node1-CUWYAW_clean_sbu_0--edge1-CIFDUS_clean_linker_0
_symmetry_space_group_name_H-M    P1
_symmetry_Int_Tables_number       1
_symmetry_cell_setting            triclinic
loop_
_symmetry_equiv_pos_as_xyz
'x, y, z'
_cell_length_a     49.772183
_cell_length_b     52.212941
_cell_length_c     36.332099
_cell_angle_alpha  70.406605
_cell_angle_beta   72.114536
_cell_angle_gamma 60.973941
loop_
_atom_site_label
_atom_site_type_symbol
_atom_site_fract_x
_atom_site_fract_y
_atom_site_fract_z
_atom_type_partial_charge
C0 C 0.04831 1.03894 0.95024 0.0
Eu1 Eu -0.00716 1.04122 0.97878 0.0
C2 C 0.06237 0.05772 0.95205 0.0
C3 C 0.0521 0.08807 0.93167 0.0
C4 C 0.06292 0.10654 0.9369 0.0
C5 C 0.08395 0.09518 0.96289 0.0
C6 C 0.09478 0.06478 0.98265 0.0
C7 C 0.08439 0.0461 0.97682 0.0
C8 C 0.94882 0.05263 0.93958 0.0
C9 C 0.94784 0.10751 1.00049 0.0
C10 C 0.87291 0.0562 0.06571 0.0
Eu11 Eu 0.92704 0.05513 0.03027 0.0
C12 C 0.86292 1.03224 0.07403 0.0
C13 C 0.88024 1.00319 0.09486 0.0
C14 C 0.8755 0.97897 0.09521 0.0
C15 C 0.85338 0.98323 0.07475 0.0
C16 C 0.83468 1.01257 0.05605 0.0
C17 C 0.83947 1.03688 0.05564 0.0
C18 C -0.02798 0.04395 0.06787 0.0
C19 C -0.0292 0.98915 0.0063 0.0
O20 O 0.04183 1.02164 0.98396 0.0
O21 O 0.0261 0.05218 0.92903 0.0
O22 O -0.02179 1.03517 0.93088 0.0
O23 O 0.94448 0.06588 0.96587 0.0
O24 O -0.02385 0.08666 0.99136 0.0
O25 O 0.92281 0.10227 0.01024 0.0
O26 O 0.87854 0.06863 0.02813 0.0
O27 O 0.89436 0.05027 0.08485 0.0
O28 O 0.94306 0.0626 0.07573 0.0
O29 O -0.02475 1.03036 0.04272 0.0
O30 O 0.94298 1.0093 0.01889 0.0
O31 O -0.00417 0.99461 0.99398 0.0
H32 H 0.03511 0.09787 0.91237 0.0
H33 H 0.05411 0.12998 0.92151 0.0
H34 H 0.11131 0.05549 1.00248 0.0
H35 H 0.09304 1.02272 0.99232 0.0
H36 H 0.89876 0.99873 0.10907 0.0
H37 H 0.89045 0.95669 0.10968 0.0
H38 H 0.81678 1.01669 0.04102 0.0
H39 H 0.82589 0.05905 0.03937 0.0
C40 C -0.03162 0.26139 0.16282 0.0
Eu41 Eu 0.96401 0.2882 0.21395 0.0
C42 C -0.02907 0.24604 0.13372 0.0
C43 C 0.95073 0.26071 0.10598 0.0
C44 C 0.9519 0.24537 0.0801 0.0
C45 C -0.02639 0.21527 0.0812 0.0
C46 C -0.00544 0.20104 0.10802 0.0
C47 C -0.00692 0.21623 0.13425 0.0
C48 C 0.91876 0.34344 0.22363 0.0
C49 C 0.01691 0.31379 0.18803 0.0
C50 C 0.96144 0.35302 0.31292 0.0
Eu51 Eu -0.02853 0.31481 0.2737 0.0
C52 C -0.02962 0.35786 0.34412 0.0
C53 C 0.00175 0.34733 0.34674 0.0
C54 C 0.00941 0.35686 0.37223 0.0
C55 C -0.01418 0.377 0.3954 0.0
C56 C 0.95442 0.38596 0.39427 0.0
C57 C 0.94684 0.37648 0.36885 0.0
C58 C 0.01296 0.25576 0.2826 0.0
C59 C 0.92417 0.2824 0.30079 0.0
O60 O -0.024 0.24673 0.19797 0.0
O61 O 0.95837 0.29061 0.1554 0.0
O62 O 0.9137 0.32339 0.217 0.0
O63 O 0.94754 0.33417 0.22237 0.0
O64 O 0.00548 0.2983 0.18047 0.0
O65 O 0.00629 0.32428 0.22061 0.0
O66 O 0.94597 0.33659 0.32372 0.0
O67 O -0.01858 0.34915 0.27979 0.0
O68 O 0.00959 0.2734 0.30341 0.0
O69 O -0.00626 0.27032 0.25894 0.0
O70 O 0.93017 0.30321 0.3052 0.0
O71 O 0.93845 0.26951 0.27021 0.0
H72 H 0.93348 0.28375 0.10503 0.0
H73 H 0.93563 0.25688 0.05953 0.0
H74 H 0.01137 0.17778 0.10974 0.0
H75 H 0.00901 0.20455 0.15526 0.0
H76 H 0.02031 0.3328 0.32798 0.0
H77 H 0.03378 0.34929 0.37281 0.0
H78 H 0.93566 0.40179 0.41121 0.0
H79 H 0.92251 0.38496 0.36704 0.0
C80 C 0.69075 0.26433 0.43761 0.0
Eu81 Eu 0.71175 0.28265 0.47605 0.0
C82 C 0.67412 0.2462 0.44511 0.0
C83 C 0.67565 0.23537 0.4139 0.0
C84 C 0.66015 0.21785 0.42002 0.0
C85 C 0.64296 0.21092 0.4575 0.0
C86 C 0.64096 0.22225 0.48872 0.0
C87 C 0.6567 0.23975 0.48259 0.0
C88 C 0.76891 0.2832 0.44895 0.0
C89 C 0.73327 0.23529 0.5575 0.0
C90 C 0.74736 0.32299 0.56477 0.0
Eu91 Eu 0.72731 0.30231 0.5283 0.0
C92 C 0.76394 0.34162 0.55528 0.0
C93 C 0.76379 0.35259 0.58548 0.0
C94 C 0.78182 0.36792 0.57849 0.0
C95 C 0.80077 0.37206 0.54129 0.0
C96 C 0.79966 0.36232 0.51034 0.0
C97 C 0.78115 0.34727 0.5173 0.0
C98 C 0.67082 0.30048 0.55598 0.0
C99 C 0.70551 0.3494 0.44701 0.0
O100 O 0.67472 0.28963 0.44927 0.0
O101 O 0.71912 0.24988 0.44532 0.0
O102 O 0.74916 0.2906 0.42695 0.0
O103 O 0.75864 0.27417 0.48485 0.0
O104 O 0.71708 0.24309 0.52967 0.0
O105 O 0.74397 0.25335 0.55967 0.0
O106 O 0.76364 0.29694 0.55502 0.0
O107 O 0.71905 0.33663 0.55703 0.0
O108 O 0.69074 0.29328 0.57763 0.0
O109 O 0.6805 0.31028 0.52007 0.0
O110 O 0.72237 0.3414 0.47408 0.0
O111 O 0.69433 0.33156 0.44569 0.0
H112 H 0.68888 0.24043 0.38479 0.0
H113 H 0.66152 0.20974 0.39537 0.0
H114 H 0.62778 0.21712 0.51781 0.0
H115 H 0.65541 0.24814 0.50691 0.0
H116 H 0.75018 0.34881 0.61475 0.0
H117 H 0.78117 0.37624 0.60248 0.0
H118 H 0.81365 0.36558 0.48126 0.0
H119 H 0.78076 0.33951 0.49342 0.0
C120 C 0.70581 1.04191 0.64605 0.0
Eu121 Eu 0.71778 1.03611 0.7144 0.0
C122 C 0.68209 1.0411 0.63108 0.0
C123 C 0.66056 1.03034 0.65705 0.0
C124 C 0.63792 1.0299 0.6425 0.0
C125 C 0.63636 1.04028 0.60175 0.0
C126 C 0.65815 0.05089 0.57581 0.0
C127 C 0.68081 0.05136 0.59044 0.0
C128 C 0.70762 0.99578 0.78189 0.0
C129 C 0.66079 0.0852 0.76109 0.0
C130 C 0.73729 1.03951 0.85467 0.0
Eu131 Eu 0.7265 0.04415 0.78616 0.0
C132 C 0.76008 1.04255 0.86859 0.0
C133 C 0.78485 0.04779 0.84158 0.0
C134 C 0.806 0.05154 0.85477 0.0
C135 C 0.80264 0.05027 0.89515 0.0
C136 C 0.77763 0.04519 0.92212 0.0
C137 C 0.75654 1.04127 0.90889 0.0
C138 C 0.73615 0.08492 0.71928 0.0
C139 C 0.78462 0.99635 0.73721 0.0
O140 O 0.69654 0.06446 0.66201 0.0
O141 O 0.7237 1.01652 0.66651 0.0
O142 O 0.71814 0.99052 0.74674 0.0
O143 O 0.69932 1.02321 0.77965 0.0
O144 O 0.67526 0.07861 0.72627 0.0
O145 O 0.67404 0.06943 0.79268 0.0
O146 O 0.74794 1.01664 0.83864 0.0
O147 O 0.71836 0.06424 0.83451 0.0
O148 O 0.72569 0.08982 0.75462 0.0
O149 O 0.74475 0.05746 0.72095 0.0
O150 O 0.77144 1.00349 0.77209 0.0
O151 O 0.76994 1.01089 0.70668 0.0
H152 H 0.66128 1.0223 0.68854 0.0
H153 H 0.62172 1.02122 0.66315 0.0
H154 H 0.65733 0.05929 0.54437 0.0
H155 H 0.69726 0.05984 0.57007 0.0
H156 H 0.78769 0.04915 0.81028 0.0
H157 H 0.82484 0.05576 0.83328 0.0
H158 H 0.77468 0.04386 0.95342 0.0
H159 H 0.7374 1.03734 0.93006 0.0
C160 C 0.45768 0.75796 0.1849 0.0
Eu161 Eu 0.45985 0.78391 0.23285 0.0
C162 C 0.47222 0.73769 0.15743 0.0
C163 C 0.46103 0.74775 0.1218 0.0
C164 C 0.46676 0.72725 0.10053 0.0
C165 C 0.48364 0.69631 0.11477 0.0
C166 C 0.49778 0.68665 0.14808 0.0
C167 C 0.49206 0.70721 0.16935 0.0
C168 C 0.41659 0.84081 0.23868 0.0
C169 C 0.51236 0.80862 0.1997 0.0
C170 C 0.46473 0.85175 0.32133 0.0
Eu171 Eu 0.47024 0.81311 0.28618 0.0
C172 C 0.46894 0.8556 0.35728 0.0
C173 C 0.49857 0.84342 0.36734 0.0
C174 C 0.50225 0.85142 0.39801 0.0
C175 C 0.4764 0.87171 0.41909 0.0
C176 C 0.44664 0.88262 0.41008 0.0
C177 C 0.443 0.87468 0.3795 0.0
C178 C 0.51133 0.75369 0.29733 0.0
C179 C 0.42383 0.77973 0.32171 0.0
O180 O 0.45823 0.74612 0.22286 0.0
O181 O 0.45848 0.78424 0.17306 0.0
O182 O 0.41008 0.82033 0.23641 0.0
O183 O 0.44556 0.83092 0.23588 0.0
O184 O 0.50514 0.78719 0.20049 0.0
O185 O 0.49761 0.82552 0.22617 0.0
O186 O 0.44201 0.84465 0.32481 0.0
O187 O 0.48975 0.8388 0.29661 0.0
O188 O 0.50893 0.77216 0.31597 0.0
O189 O 0.4912 0.76748 0.27507 0.0
O190 O 0.42935 0.80196 0.32242 0.0
O191 O 0.43792 0.76516 0.29277 0.0
H192 H 0.44559 0.77117 0.11216 0.0
H193 H 0.45545 0.73542 0.07512 0.0
H194 H 0.51137 0.66296 0.15932 0.0
H195 H 0.50122 0.69895 0.1966 0.0
H196 H 0.51904 0.82861 0.35068 0.0
H197 H 0.52543 0.84242 0.40446 0.0
H198 H 0.42627 0.8987 0.42512 0.0
H199 H 0.41999 0.88461 0.37203 0.0
C200 C 0.17095 0.77565 0.4448 0.0
Eu201 Eu 0.20304 0.78562 0.4781 0.0
C202 C 0.15305 0.75855 0.45288 0.0
C203 C 0.14416 0.75716 0.42094 0.0
C204 C 0.13021 0.73833 0.42669 0.0
C205 C 0.12505 0.72062 0.46449 0.0
C206 C 0.13246 0.7232 0.497 0.0
C207 C 0.14662 0.74207 0.49116 0.0
C208 C 0.26282 0.77896 0.4494 0.0
C209 C 0.22455 0.73734 0.55991 0.0
C210 C 0.27193 0.8052 0.55454 0.0
Eu211 Eu 0.23201 0.80051 0.52863 0.0
C212 C 0.27421 0.83008 0.56175 0.0
C213 C 0.26419 0.83593 0.59993 0.0
C214 C 0.26736 0.85891 0.60695 0.0
C215 C 0.28093 0.87595 0.576 0.0
C216 C 0.29013 0.87076 0.53769 0.0
C217 C 0.2868 0.848 0.53057 0.0
C218 C 0.16937 0.82087 0.55569 0.0
C219 C 0.20354 0.85136 0.45181 0.0
O220 O 0.15879 0.79778 0.46288 0.0
O221 O 0.20107 0.75976 0.44396 0.0
O222 O 0.24228 0.78886 0.42728 0.0
O223 O 0.25122 0.77202 0.4854 0.0
O224 O 0.20843 0.74585 0.53152 0.0
O225 O 0.23808 0.75326 0.5618 0.0
O226 O 0.27464 0.80558 0.51734 0.0
O227 O 0.25004 0.79731 0.57819 0.0
O228 O 0.18791 0.82502 0.5692 0.0
O229 O 0.18485 0.80786 0.52738 0.0
O230 O 0.22118 0.8427 0.47849 0.0
O231 O 0.19081 0.83472 0.45011 0.0
H232 H 0.14892 0.76992 0.3913 0.0
H233 H 0.12422 0.73693 0.40138 0.0
H234 H 0.12862 0.7097 0.52638 0.0
H235 H 0.15344 0.74309 0.51606 0.0
H236 H 0.25453 0.82235 0.62452 0.0
H237 H 0.26062 0.86244 0.63682 0.0
H238 H 0.30085 0.88371 0.51357 0.0
H239 H 0.29474 0.84409 0.50081 0.0
C240 C 0.18743 0.55314 0.64877 0.0
Eu241 Eu 0.19797 0.54399 0.71911 0.0
C242 C 0.1724 0.54283 0.63144 0.0
C243 C 0.16234 0.52048 0.6543 0.0
C244 C 0.14392 0.51393 0.63994 0.0
C245 C 0.13545 0.5295 0.60241 0.0
C246 C 0.14718 0.55056 0.57853 0.0
C247 C 0.16545 0.55729 0.5931 0.0
C248 C 0.18197 0.50584 0.78626 0.0
C249 C 0.15047 0.59097 0.77344 0.0
C250 C 0.23353 0.53537 0.85925 0.0
Eu251 Eu 0.21793 0.54589 0.79161 0.0
C252 C 0.26127 0.52842 0.87356 0.0
C253 C 0.28991 0.5231 0.84768 0.0
C254 C 0.31561 0.51899 0.86075 0.0
C255 C 0.31298 0.52031 0.89985 0.0
C256 C 0.28447 0.52454 0.92606 0.0
C257 C 0.25878 0.52857 0.91295 0.0
C258 C 0.22315 0.58829 0.72402 0.0
C259 C 0.26684 0.49599 0.74013 0.0
O260 O 0.16867 0.57021 0.67388 0.0
O261 O 0.21355 0.53295 0.66108 0.0
O262 O 0.17567 0.51093 0.75173 0.0
O263 O 0.1943 0.52277 0.78305 0.0
O264 O 0.16191 0.58748 0.73663 0.0
O265 O 0.16548 0.57192 0.80283 0.0
O266 O 0.23494 0.5146 0.84536 0.0
O267 O 0.22114 0.5623 0.83713 0.0
O268 O 0.21878 0.59123 0.7597 0.0
O269 O 0.2285 0.56167 0.72546 0.0
O270 O 0.26214 0.50816 0.76947 0.0
O271 O 0.24654 0.50679 0.71623 0.0
H272 H 0.16759 0.50901 0.68388 0.0
H273 H 0.1352 0.49755 0.6588 0.0
H274 H 0.14068 0.56306 0.54968 0.0
H275 H 0.17302 0.57466 0.57515 0.0
H276 H 0.29211 0.52301 0.8171 0.0
H277 H 0.33714 0.51615 0.83971 0.0
H278 H 0.28188 0.52536 0.95641 0.0
H279 H 0.23676 0.53255 0.93327 0.0
C280 C 0.03034 0.55638 0.43101 0.0
Eu281 Eu -0.01705 0.54841 0.47902 0.0
C282 C 0.04752 0.5717 0.43336 0.0
C283 C 0.06501 0.58251 0.39933 0.0
C284 C 0.07992 0.5985 0.40191 0.0
C285 C 0.07794 0.60337 0.43878 0.0
C286 C 0.06074 0.59186 0.47283 0.0
C287 C 0.04509 0.57689 0.46988 0.0
C288 C 0.93088 0.55792 0.45747 0.0
C289 C 0.94024 0.60547 0.52146 0.0
C290 C 0.88102 0.539 0.58914 0.0
Eu291 Eu 0.9293 0.54742 0.54653 0.0
C292 C 0.87328 0.51463 0.59107 0.0
C293 C 0.89179 0.48472 0.60816 0.0
C294 C 0.8891 0.46106 0.60241 0.0
C295 C 0.86774 0.46674 0.57964 0.0
C296 C 0.84812 0.49671 0.56427 0.0
C297 C 0.85087 0.5204 0.56992 0.0
C298 C -0.01952 0.5368 0.57086 0.0
C299 C -0.02562 0.48875 0.50667 0.0
O300 O 0.03304 0.53183 0.45847 0.0
O301 O 0.0015 0.5739 0.4257 0.0
O302 O 0.95885 0.54285 0.44041 0.0
O303 O 0.93181 0.56862 0.48309 0.0
O304 O -0.03191 0.58893 0.50359 0.0
O305 O 0.91814 0.59592 0.53602 0.0
O306 O 0.87997 0.55845 0.555 0.0
O307 O 0.90571 0.53086 0.60375 0.0
O308 O 0.95211 0.55082 0.58817 0.0
O309 O -0.01915 0.52694 0.54317 0.0
O310 O 0.94709 0.50413 0.52679 0.0
O311 O -0.00476 0.49969 0.48932 0.0
H312 H 0.06656 0.57915 0.37076 0.0
H313 H 0.09231 0.60762 0.37487 0.0
H314 H 0.05903 0.59458 0.50184 0.0
H315 H 0.03069 0.56972 0.49611 0.0
H316 H 0.90949 0.47938 0.62441 0.0
H317 H 0.90468 0.4383 0.61454 0.0
H318 H 0.83067 0.50194 0.54769 0.0
H319 H 0.83634 0.54322 0.55636 0.0
C320 C 0.15315 0.28713 0.9741 0.0
Eu321 Eu 0.19701 0.29388 0.98934 0.0
C322 C 0.14774 0.26319 0.96933 0.0
C323 C 0.17012 0.24259 0.94617 0.0
C324 C 0.16403 0.22052 0.94143 0.0
C325 C 0.13566 0.21847 0.96013 0.0
C326 C 0.11355 0.2388 0.98378 0.0
C327 C 0.1195 0.26105 0.98817 0.0
C328 C 0.25653 0.27653 0.94915 0.0
C329 C 0.23283 0.23635 0.05703 0.0
C330 C 0.28274 0.3041 0.04578 0.0
Eu331 Eu 0.23992 0.2977 0.02765 0.0
C332 C 0.28702 0.32909 0.04961 0.0
C333 C 0.26918 0.34399 0.08076 0.0
C334 C 0.27367 0.36739 0.08425 0.0
C335 C 0.29609 0.37639 0.05674 0.0
C336 C 0.31389 0.36153 0.02555 0.0
C337 C 0.30943 0.33805 0.02209 0.0
C338 C 0.18082 0.31348 0.06926 0.0
C339 C 0.20585 0.35515 0.9593 0.0
O340 O 0.15542 0.28537 0.00979 0.0
O341 O 0.17337 0.2954 0.94668 0.0
O342 O 0.23235 0.28961 0.93221 0.0
O343 O 0.24868 0.27069 0.98637 0.0
O344 O 0.20875 0.25043 0.0382 0.0
O345 O 0.25207 0.24846 0.05144 0.0
O346 O 0.28298 0.30359 0.00998 0.0
O347 O 0.26138 0.29693 0.07208 0.0
O348 O 0.20568 0.30004 0.0849 0.0
O349 O 0.18771 0.32053 0.0318 0.0
O350 O 0.22903 0.34063 0.97954 0.0
O351 O 0.18665 0.34334 0.96263 0.0
H352 H 0.19223 0.24359 0.93163 0.0
H353 H 0.18157 0.20491 0.92336 0.0
H354 H 0.09139 0.23785 0.99823 0.0
H355 H 0.10195 0.27675 0.00615 0.0
H356 H 0.25183 0.33753 0.10265 0.0
H357 H 0.25996 0.37808 0.10895 0.0
H358 H 0.33115 0.36815 1.0037 0.0
H359 H 0.32353 0.32688 0.99787 0.0
C360 C 0.19052 0.04646 0.14889 0.0
Eu361 Eu 0.20326 1.04157 0.21604 0.0
C362 C 0.16686 0.0445 0.13544 0.0
C363 C 0.13757 0.04902 0.1594 0.0
C364 C 0.11537 0.04659 0.14661 0.0
C365 C 0.12224 1.03929 0.10989 0.0
C366 C 0.15166 1.03466 0.08601 0.0
C367 C 0.17381 1.03735 0.0987 0.0
C368 C 0.19842 1.00098 0.28557 0.0
C369 C 0.15007 0.09255 0.2643 0.0
C370 C 0.22969 0.04352 0.35709 0.0
Eu371 Eu 0.21953 0.04959 0.28783 0.0
C372 C 0.25043 0.04772 0.37379 0.0
C373 C 0.25496 0.07415 0.36045 0.0
C374 C 0.27535 0.07715 0.37628 0.0
C375 C 0.29184 0.05367 0.40532 0.0
C376 C 0.28704 1.0274 0.41882 0.0
C377 C 0.2664 1.02454 0.40333 0.0
C378 C 0.23496 0.08579 0.21767 0.0
C379 C 0.27115 1.00147 0.23576 0.0
O380 O 0.18096 0.0693 0.16455 0.0
O381 O 0.20934 1.02134 0.16874 0.0
O382 O 0.20339 0.99662 0.25058 0.0
O383 O 0.1917 1.02826 0.28269 0.0
O384 O 0.15834 0.0801 0.23394 0.0
O385 O 0.16834 0.08275 0.29071 0.0
O386 O 0.24304 1.02159 0.33847 0.0
O387 O 0.20828 0.0677 0.33932 0.0
O388 O 0.23971 0.08416 0.25175 0.0
O389 O 0.22458 0.06688 0.22356 0.0
O390 O 0.26019 1.00706 0.27164 0.0
O391 O 0.25561 1.01832 0.2062 0.0
H392 H 0.13195 0.05428 0.18804 0.0
H393 H 0.09296 0.04994 0.16574 0.0
H394 H 0.15737 1.02922 0.05748 0.0
H395 H 0.19641 1.03374 0.07995 0.0
H396 H 0.24309 0.09232 0.33748 0.0
H397 H 0.27893 0.09748 0.36498 0.0
H398 H 0.29933 1.00902 0.4413 0.0
H399 H 0.26315 1.00402 0.41411 0.0
C400 C 0.44587 0.2588 0.68543 0.0
Eu401 Eu 0.45513 0.28061 0.73282 0.0
C402 C 0.45762 0.24185 0.65414 0.0
C403 C 0.4528 0.25739 0.61504 0.0
C404 C 0.45652 0.24209 0.58745 0.0
C405 C 0.46474 0.21115 0.59877 0.0
C406 C 0.47155 0.19528 0.6369 0.0
C407 C 0.46813 0.21047 0.66436 0.0
C408 C 0.41511 0.33728 0.74248 0.0
C409 C 0.51162 0.301 0.69656 0.0
C410 C 0.48502 0.31966 0.83157 0.0
Eu411 Eu 0.47424 0.29954 0.78363 0.0
C412 C 0.47326 0.33701 0.86212 0.0
C413 C 0.49043 0.32611 0.89255 0.0
C414 C 0.48417 0.34433 0.91752 0.0
C415 C 0.46059 0.37381 0.91247 0.0
C416 C 0.44184 0.38398 0.88383 0.0
C417 C 0.44822 0.36572 0.85864 0.0
C418 C 0.51359 0.24279 0.77347 0.0
C419 C 0.4162 0.28192 0.81995 0.0
O420 O 0.45185 0.24409 0.7212 0.0
O421 O 0.44478 0.28573 0.67591 0.0
O422 O 0.40707 0.31774 0.74066 0.0
O423 O 0.4445 0.32687 0.73735 0.0
O424 O 0.50074 0.28267 0.69563 0.0
O425 O 0.49984 0.31548 0.72529 0.0
O426 O 0.48012 0.33441 0.79547 0.0
O427 O 0.48398 0.29363 0.84143 0.0
O428 O 0.52227 0.26225 0.77387 0.0
O429 O 0.4842 0.25346 0.77964 0.0
O430 O 0.4284 0.29937 0.82005 0.0
O431 O 0.42667 0.2674 0.79133 0.0
H432 H 0.44425 0.28162 0.60647 0.0
H433 H 0.45097 0.25469 0.5582 0.0
H434 H 0.47794 0.17135 0.64607 0.0
H435 H 0.4718 0.19785 0.69427 0.0
H436 H 0.50986 0.30403 0.89564 0.0
H437 H 0.49869 0.33584 0.93969 0.0
H438 H 0.42357 0.40668 0.87924 0.0
H439 H 0.43468 0.37456 0.83529 0.0
C440 C -0.02656 0.73839 0.68996 0.0
Eu441 Eu 0.96588 0.77732 0.72641 0.0
C442 C -0.02863 0.73536 0.65208 0.0
C443 C 0.94299 0.75041 0.63786 0.0
C444 C 0.93978 0.74234 0.60697 0.0
C445 C 0.96488 0.71923 0.58968 0.0
C446 C -0.00603 0.70609 0.60165 0.0
C447 C -0.00289 0.71399 0.63272 0.0
C448 C 0.92208 0.8353 0.71652 0.0
C449 C 0.01234 0.80955 0.68238 0.0
C450 C 0.96468 0.85302 0.80619 0.0
Eu451 Eu -0.02779 0.81414 0.76927 0.0
C452 C -0.03061 0.85813 0.84082 0.0
C453 C -0.00191 0.8423 0.8543 0.0
C454 C 0.00335 0.85138 0.88263 0.0
C455 C -0.01996 0.87644 0.89792 0.0
C456 C 0.95083 0.89111 0.88578 0.0
C457 C 0.94562 0.88204 0.85756 0.0
C458 C 0.01527 0.75559 0.77979 0.0
C459 C 0.92435 0.78275 0.81 0.0
O460 O -0.00366 0.74378 0.69063 0.0
O461 O 0.9473 0.75262 0.71203 0.0
O462 O 0.91797 0.81307 0.71505 0.0
O463 O 0.95025 0.82692 0.71765 0.0
O464 O 0.00627 0.78674 0.68643 0.0
O465 O -0.0029 0.82762 0.70744 0.0
O466 O 0.94373 0.84335 0.81137 0.0
O467 O -0.01078 0.8418 0.78006 0.0
O468 O 0.02075 0.7777 0.77839 0.0
O469 O -0.01304 0.76505 0.77873 0.0
O470 O 0.92891 0.80667 0.80534 0.0
O471 O 0.94253 0.76315 0.78768 0.0
H472 H 0.92277 0.76721 0.65196 0.0
H473 H 0.91721 0.75307 0.598 0.0
H474 H 0.0137 0.68805 0.58912 0.0
H475 H 0.01919 0.70207 0.6432 0.0
H476 H 0.0168 0.82369 0.84186 0.0
H477 H 0.02597 0.83936 0.89169 0.0
H478 H 0.93246 0.91075 0.89632 0.0
H479 H 0.92341 0.89473 0.84733 0.0
C480 C 0.67749 0.55539 0.15264 0.0
Eu481 Eu 0.69831 0.54373 0.21674 0.0
C482 C 0.66309 0.5446 0.13515 0.0
C483 C 0.65687 0.51946 0.15544 0.0
C484 C 0.63998 0.51169 0.13995 0.0
C485 C 0.62908 0.52898 0.104 0.0
C486 C 0.63582 0.55393 0.08372 0.0
C487 C 0.65267 0.56162 0.09918 0.0
C488 C 0.69482 0.50136 0.28423 0.0
C489 C 0.65117 0.59449 0.26797 0.0
C490 C 0.73235 0.53596 0.35799 0.0
Eu491 Eu 0.71924 0.54675 0.28878 0.0
C492 C 0.75589 0.53547 0.37509 0.0
C493 C 0.76529 0.55893 0.36176 0.0
C494 C 0.78807 0.5576 0.37812 0.0
C495 C 0.80205 0.5327 0.40774 0.0
C496 C 0.79247 0.50938 0.42114 0.0
C497 C 0.76947 0.51083 0.40507 0.0
C498 C 0.73304 0.58482 0.21988 0.0
C499 C 0.768 0.50031 0.23157 0.0
O500 O 0.6603 0.56649 0.18369 0.0
O501 O 0.70687 0.53889 0.15616 0.0
O502 O 0.69782 0.4986 0.24887 0.0
O503 O 0.68929 0.52801 0.28284 0.0
O504 O 0.66049 0.58668 0.23364 0.0
O505 O 0.66806 0.57974 0.29664 0.0
O506 O 0.74211 0.51503 0.33863 0.0
O507 O 0.71291 0.56224 0.34074 0.0
O508 O 0.73953 0.5814 0.25372 0.0
O509 O 0.7215 0.56693 0.22523 0.0
O510 O 0.75972 0.50597 0.26734 0.0
O511 O 0.75024 0.51657 0.20399 0.0
H512 H 0.66449 0.50629 0.18356 0.0
H513 H 0.63533 0.49226 0.15616 0.0
H514 H 0.62727 0.56811 0.05644 0.0
H515 H 0.65685 0.5814 0.08354 0.0
H516 H 0.75533 0.57811 0.33844 0.0
H517 H 0.79537 0.57569 0.36688 0.0
H518 H 0.80268 0.49011 0.4441 0.0
H519 H 0.76245 0.49256 0.41582 0.0
C520 C 0.67943 0.76649 0.94976 0.0
Eu521 Eu 0.70789 0.78316 0.97978 0.0
C522 C 0.6634 0.74678 0.9611 0.0
C523 C 0.67983 0.71782 0.95361 0.0
C524 C 0.66399 0.70089 0.9578 0.0
C525 C 0.63137 0.71271 0.96904 0.0
C526 C 0.61514 0.74071 0.97943 0.0
C527 C 0.63104 0.75771 0.97532 0.0
C528 C 0.7658 0.7811 0.94966 0.0
C529 C 0.73377 0.73422 0.05885 0.0
C530 C 0.75412 0.81802 0.06545 0.0
Eu531 Eu 0.72946 0.80071 0.03056 0.0
C532 C 0.77026 0.83694 0.0569 0.0
C533 C 0.76645 0.85038 0.08662 0.0
C534 C 0.78223 0.86769 0.08037 0.0
C535 C 0.80246 0.87161 0.04436 0.0
C536 C 0.80571 0.85867 0.01407 0.0
C537 C 0.78961 0.84141 0.02031 0.0
C538 C 0.67199 0.80161 0.0598 0.0
C539 C 0.70715 0.84829 0.94858 0.0
O540 O 0.66547 0.79061 0.96418 0.0
O541 O 0.7097 0.75348 0.94822 0.0
O542 O 0.74543 0.78833 0.9285 0.0
O543 O 0.75593 0.77278 0.98606 0.0
O544 O 0.71584 0.74305 0.03265 0.0
O545 O 0.74585 0.75145 0.06013 0.0
O546 O 0.76938 0.79356 0.0517 0.0
O547 O 0.72465 0.83193 0.06214 0.0
O548 O 0.69251 0.79273 0.08141 0.0
O549 O 0.68175 0.81116 0.02398 0.0
O550 O 0.72405 0.83984 0.97596 0.0
O551 O 0.69453 0.83151 0.94735 0.0
H552 H 0.70475 0.70872 0.94271 0.0
H553 H 0.67711 0.67908 0.95032 0.0
H554 H 0.58999 0.75029 0.9882 0.0
H555 H 0.61772 0.77996 0.98141 0.0
H556 H 0.7513 0.84739 0.11482 0.0
H557 H 0.7784 0.87821 0.10378 0.0
H558 H 0.82094 0.86153 0.98594 0.0
H559 H 0.79243 0.83143 0.99684 0.0
C560 C 0.53487 0.05831 0.42254 0.0
Eu561 Eu 0.48964 0.04724 0.47194 0.0
C562 C 0.55089 0.07436 0.4257 0.0
C563 C 0.57337 0.08026 0.3945 0.0
C564 C 0.58899 0.09492 0.39889 0.0
C565 C 0.58219 0.10369 0.43457 0.0
C566 C 0.55946 0.09782 0.46555 0.0
C567 C 0.54389 0.0834 0.46102 0.0
C568 C 0.44126 0.04799 0.45156 0.0
C569 C 0.44259 0.10458 0.51226 0.0
C570 C 0.39212 1.033 0.58788 0.0
Eu571 Eu 0.43855 1.04288 0.54028 0.0
C572 C 0.37958 1.01264 0.58916 0.0
C573 C 0.36095 1.00385 0.62371 0.0
C574 C 0.35101 0.98259 0.62539 0.0
C575 C 0.36013 0.9698 0.59268 0.0
C576 C 0.37859 0.9789 0.55806 0.0
C577 C 0.38813 1.00029 0.55626 0.0
C578 C 0.48631 1.04168 0.56248 0.0
C579 C 0.48897 0.98422 0.50347 0.0
O580 O 0.53923 1.03307 0.44903 0.0
O581 O 0.50557 0.07483 0.41874 0.0
O582 O 0.47004 1.03518 0.43502 0.0
O583 O 0.43901 0.06148 0.47609 0.0
O584 O 0.47076 0.0897 0.49367 0.0
O585 O 0.42251 0.0926 0.52758 0.0
O586 O 0.38874 0.05521 0.5565 0.0
O587 O 0.42025 1.0196 0.59625 0.0
O588 O 0.45744 0.05329 0.57953 0.0
O589 O 0.4893 1.02882 0.53658 0.0
O590 O 0.46012 0.99872 0.52106 0.0
O591 O 0.50801 0.99732 0.48767 0.0
H592 H 0.57887 0.07347 0.367 0.0
H593 H 0.60617 0.09959 0.37437 0.0
H594 H 0.55403 0.10396 0.49353 0.0
H595 H 0.52662 0.07897 0.48536 0.0
H596 H 0.35447 1.01311 0.64938 0.0
H597 H 0.33674 0.97575 0.65231 0.0
H598 H 0.38546 0.9696 0.53231 0.0
H599 H 0.40244 1.00696 0.5293 0.0
C600 C 0.53426 0.55913 0.90864 0.0
Eu601 Eu 0.48836 0.55009 0.95821 0.0
C602 C 0.54882 0.57735 0.90993 0.0
C603 C 0.55539 0.59727 0.87551 0.0
C604 C 0.56511 0.61766 0.87772 0.0
C605 C 0.56873 0.61818 0.91442 0.0
C606 C 0.56226 0.59796 0.94874 0.0
C607 C 0.55193 0.57817 0.94656 0.0
C608 C 0.43507 0.55965 0.9402 0.0
C609 C 0.45551 0.60244 0.009 0.0
C610 C 0.38384 0.55214 0.07599 0.0
Eu611 Eu 0.43653 0.54772 0.03023 0.0
C612 C 0.36949 0.53123 0.08517 0.0
C613 C 0.3848 0.50104 0.10444 0.0
C614 C 0.37642 0.47944 0.10332 0.0
C615 C 0.35259 0.48758 0.08299 0.0
C616 C 0.3357 0.51808 0.06637 0.0
C617 C 0.34402 0.53973 0.06759 0.0
C618 C 0.49539 0.51725 0.04674 0.0
C619 C 0.47496 0.49215 0.98777 0.0
O620 O 0.53837 0.53445 0.93665 0.0
O621 O 0.50536 0.57476 0.90265 0.0
O622 O 0.46259 0.54637 0.92055 0.0
O623 O 0.43694 0.56926 0.96653 0.0
O624 O 0.47516 0.59219 0.97782 0.0
O625 O 0.43763 0.58941 0.03365 0.0
O626 O 0.3859 0.56687 0.03895 0.0
O627 O 0.40946 0.54187 0.08984 0.0
O628 O 0.47318 0.5087 0.06515 0.0
O629 O 0.48471 0.54199 0.02258 0.0
O630 O 0.44742 0.50876 0.00604 0.0
O631 O 0.49771 0.5011 0.97343 0.0
H632 H 0.55211 0.59766 0.84716 0.0
H633 H 0.56928 0.6333 0.85078 0.0
H634 H 0.56523 0.59725 0.97742 0.0
H635 H 0.54562 0.56408 0.9738 0.0
H636 H 0.40453 0.49365 0.11831 0.0
H637 H 0.38943 0.45617 0.11708 0.0
H638 H 0.31732 0.525 0.05033 0.0
H639 H 0.33197 0.5628 0.05228 0.0
H640 H -0.00463 0.12222 0.98974 0.0
H641 H 0.89576 0.15329 0.02945 0.0
H642 H 0.89472 0.19185 0.0544 0.0
H643 H 0.92311 0.21246 0.07209 0.0
H644 H 0.0231 0.17866 0.03616 0.0
H645 H 0.02296 0.14515 1.00272 0.0
C646 C -0.02676 0.13776 1.0031 0.0
C647 C 0.94566 0.13474 0.0078 0.0
C648 C -0.027 0.15905 0.01864 0.0
C649 C 0.91731 0.15512 0.0253 0.0
C650 C 0.91675 0.17703 0.03989 0.0
C651 C 0.94476 0.19822 0.05618 0.0
C652 C -0.02692 0.19792 0.05666 0.0
C653 C 0.94459 0.17858 0.03777 0.0
C654 C 0.00107 0.17905 0.03647 0.0
C655 C 0.001 0.15996 0.01733 0.0
H656 H 0.80225 0.26336 0.38278 0.0
H657 H 0.80861 0.29235 0.47631 0.0
H658 H 0.85847 0.29406 0.43913 0.0
H659 H 0.89765 0.29156 0.37644 0.0
H660 H 0.89163 0.25864 0.28623 0.0
H661 H 0.84457 0.25366 0.32601 0.0
C662 C 0.8148 0.26961 0.39533 0.0
C663 C 0.80157 0.27844 0.43168 0.0
C664 C 0.84346 0.2699 0.37424 0.0
C665 C 0.81825 0.28592 0.44805 0.0
C666 C 0.84666 0.28693 0.42673 0.0
C667 C 0.88619 0.28299 0.36576 0.0
C668 C 0.89799 0.27592 0.32806 0.0
C669 C 0.85909 0.27973 0.3892 0.0
C670 C 0.88314 0.26437 0.31496 0.0
C671 C 0.85608 0.2616 0.33764 0.0
H672 H 0.73704 0.13658 0.71736 0.0
H673 H 0.74094 0.08691 0.64069 0.0
H674 H 0.73962 0.12916 0.5835 0.0
H675 H 0.73567 0.18154 0.55574 0.0
H676 H 0.73613 0.22817 0.63356 0.0
H677 H 0.73744 0.18603 0.6895 0.0
C678 C 0.73792 0.13481 0.68806 0.0
C679 C 0.73894 0.10862 0.68338 0.0
C680 C 0.73781 0.15886 0.65541 0.0
C681 C 0.74021 0.10674 0.64514 0.0
C682 C 0.73932 0.131 0.61247 0.0
C683 C 0.73629 0.18231 0.58491 0.0
C684 C 0.73589 0.20812 0.59026 0.0
C685 C 0.73784 0.15738 0.61726 0.0
C686 C 0.73677 0.20863 0.62831 0.0
C687 C 0.73738 0.18452 0.6605 0.0
H688 H 0.88517 0.08434 0.95561 0.0
H689 H 0.95821 1.0166 0.89386 0.0
H690 H 0.9196 1.00976 0.87525 0.0
H691 H 0.86531 1.02193 0.87746 0.0
H692 H 0.79145 0.08617 0.94369 0.0
H693 H 0.83003 0.09407 0.96191 0.0
C694 C 0.8925 0.06754 0.93911 0.0
C695 C 0.92448 0.0506 0.92698 0.0
C696 C 0.87006 0.06279 0.92974 0.0
C697 C 0.93374 1.02994 0.90374 0.0
C698 C 0.91168 1.02583 0.89324 0.0
C699 C 0.85767 1.03774 0.89578 0.0
C700 C 0.82567 0.05375 0.90873 0.0
C701 C 0.87984 1.04197 0.90624 0.0
C702 C 0.81604 0.07363 0.93328 0.0
C703 C 0.83805 0.07829 0.94346 0.0
H704 H 0.03356 1.0048 0.06346 0.0
H705 H -0.03324 0.09073 0.09048 0.0
H706 H 0.00774 0.09776 0.10304 0.0
H707 H 0.0621 0.07889 0.1088 0.0
H708 H 0.12965 0.9931 0.08245 0.0
H709 H 0.08902 0.9866 0.06698 0.0
C710 C 0.02816 1.02505 0.07192 0.0
C711 C -0.0027 0.04713 0.0761 0.0
C712 C 0.05191 1.02892 0.07939 0.0
C713 C -0.00964 0.07322 0.08744 0.0
C714 C 0.01378 0.07737 0.09447 0.0
C715 C 0.06787 0.05881 0.09959 0.0
C716 C 0.09859 1.0364 0.09708 0.0
C717 C 0.04453 0.05526 0.09091 0.0
C718 C 0.10605 1.01067 0.0845 0.0
C719 C 0.08283 1.00686 0.07597 0.0
H720 H 0.01658 0.46122 0.44808 0.0
H721 H 0.94182 0.45499 0.54425 0.0
H722 H 0.94144 0.41645 0.52105 0.0
H723 H 0.95802 0.38923 0.46871 0.0
H724 H 0.03036 0.39829 0.37 0.0
H725 H 0.03668 0.43024 0.39946 0.0
C726 C 0.00076 0.45088 0.46458 0.0
C727 C -0.02098 0.46114 0.49772 0.0
C728 C 0.00017 0.42928 0.4504 0.0
C729 C 0.95856 0.44764 0.51853 0.0
C730 C 0.9583 0.42564 0.50518 0.0
C731 C -0.02458 0.39793 0.45388 0.0
C732 C -0.00651 0.39155 0.41705 0.0
C733 C -0.02173 0.41707 0.47036 0.0
C734 C 0.01631 0.40257 0.39855 0.0
C735 C 0.01975 0.42111 0.41519 0.0
H736 H 0.64805 0.2898 0.63327 0.0
H737 H 0.623 0.31285 0.51914 0.0
H738 H 0.57135 0.31355 0.55221 0.0
H739 H 0.5328 0.30849 0.61512 0.0
H740 H 0.56 0.28849 0.72711 0.0
H741 H 0.61138 0.28534 0.69338 0.0
C742 C 0.63138 0.29506 0.61536 0.0
C743 C 0.63929 0.30146 0.57381 0.0
C744 C 0.60204 0.29584 0.6344 0.0
C745 C 0.61736 0.30808 0.55124 0.0
C746 C 0.58789 0.3084 0.57019 0.0
C747 C 0.55012 0.30339 0.63185 0.0
C748 C 0.54257 0.29883 0.67359 0.0
C749 C 0.57984 0.30246 0.61194 0.0
C750 C 0.56511 0.29232 0.69503 0.0
C751 C 0.59457 0.29049 0.67579 0.0
H752 H 0.70563 0.94411 0.78599 0.0
H753 H 0.70333 0.99495 0.85979 0.0
H754 H 0.70406 0.95366 0.91818 0.0
H755 H 0.70678 0.90178 0.94799 0.0
H756 H 0.70444 0.85417 0.87302 0.0
H757 H 0.70404 0.89523 0.81583 0.0
C758 C 0.70502 0.94632 0.81491 0.0
C759 C 0.70467 0.97254 0.8184 0.0
C760 C 0.70471 0.92284 0.84832 0.0
C761 C 0.70364 0.97504 0.85621 0.0
C762 C 0.70415 0.95134 0.8896 0.0
C763 C 0.70602 0.90055 0.91914 0.0
C764 C 0.7056 0.87478 0.91499 0.0
C765 C 0.70496 0.92492 0.88602 0.0
C766 C 0.70447 0.8737 0.87735 0.0
C767 C 0.70437 0.89719 0.84444 0.0
H768 H 0.12674 0.32498 0.04782 0.0
H769 H 0.16416 0.31553 0.14643 0.0
H770 H 0.11565 0.31782 0.19119 0.0
H771 H 0.06444 0.31763 0.20396 0.0
H772 H 0.02962 0.31935 0.1078 0.0
H773 H 0.07533 0.32382 0.06089 0.0
C774 C 0.12433 0.32314 0.07908 0.0
C775 C 0.14933 0.31946 0.09378 0.0
C776 C 0.09686 0.32267 0.10532 0.0
C777 C 0.14541 0.31811 0.13431 0.0
C778 C 0.11768 0.31929 0.16006 0.0
C779 C 0.06666 0.31941 0.17265 0.0
C780 C 0.04357 0.31843 0.15934 0.0
C781 C 0.09354 0.32081 0.14613 0.0
C782 C 0.04709 0.32011 0.11878 0.0
C783 C 0.07321 0.3227 0.09192 0.0
H784 H 0.69409 0.44936 0.28814 0.0
H785 H 0.69644 0.49803 0.3613 0.0
H786 H 0.7013 0.45499 0.41829 0.0
H787 H 0.70551 0.40252 0.447 0.0
H788 H 0.6985 0.35723 0.37274 0.0
H789 H 0.69473 0.39978 0.31688 0.0
C790 C 0.69553 0.45071 0.31658 0.0
C791 C 0.69541 0.47676 0.32024 0.0
C792 C 0.69746 0.42631 0.34919 0.0
C793 C 0.69693 0.47813 0.35749 0.0
C794 C 0.69964 0.45349 0.3901 0.0
C795 C 0.70303 0.40212 0.41861 0.0
C796 C 0.70221 0.3766 0.41426 0.0
C797 C 0.7001 0.42729 0.38629 0.0
C798 C 0.69888 0.37654 0.37724 0.0
C799 C 0.69683 0.40089 0.34508 0.0
H800 H 0.54776 1.02409 0.52665 0.0
H801 H 0.48103 0.06325 0.62339 0.0
H802 H 0.52118 0.06708 0.64314 0.0
H803 H 0.57513 0.059 0.63376 0.0
H804 H 0.64224 1.02207 0.53585 0.0
H805 H 0.60187 1.01888 0.51469 0.0
C806 C 0.54214 1.03342 0.55201 0.0
C807 C 0.51157 0.04313 0.57369 0.0
C808 C 0.56528 1.03635 0.56269 0.0
C809 C 0.50444 0.05545 0.6063 0.0
C810 C 0.52735 0.05778 0.61758 0.0
C811 C 0.58098 0.05006 0.60793 0.0
C812 C 0.61171 1.04026 0.58688 0.0
C813 C 0.55782 0.04821 0.59612 0.0
C814 C 0.61874 1.02964 0.55269 0.0
C815 C 0.59574 1.02761 0.54076 0.0
H816 H 0.01814 0.94932 0.9633 0.0
H817 H 0.92551 0.96901 0.03213 0.0
H818 H 0.92185 0.93244 0.00886 0.0
H819 H 0.942 0.90005 0.96193 0.0
H820 H 0.03326 0.88271 0.88965 0.0
H821 H 0.04073 0.91226 0.92205 0.0
C822 C -0.0025 0.94504 0.97406 0.0
C823 C -0.02793 0.96211 0.99935 0.0
C824 C -0.00483 0.92447 0.95956 0.0
C825 C 0.94544 0.95629 0.01273 0.0
C826 C 0.94322 0.93546 0.99918 0.0
C827 C 0.96366 0.90249 0.95349 0.0
C828 C -0.0132 0.88948 0.92292 0.0
C829 C -0.03253 0.92028 0.97141 0.0
C830 C 0.01503 0.89231 0.91313 0.0
C831 C 0.01924 0.90949 0.93142 0.0
H832 H 0.10867 0.13105 0.90707 0.0
H833 H 0.08167 0.10448 0.03346 0.0
H834 H 0.09534 0.14037 0.04404 0.0
H835 H 0.11387 0.18023 0.01683 0.0
H836 H 0.14223 0.20558 0.89038 0.0
H837 H 0.12932 0.16913 0.88018 0.0
C838 C 0.10591 0.13313 0.93689 0.0
C839 C 0.09415 0.11535 0.96945 0.0
C840 C 0.11404 0.15355 0.94264 0.0
C841 C 0.09095 0.11784 0.00803 0.0
C842 C 0.09858 0.13844 0.01403 0.0
C843 C 0.11716 0.17773 0.98709 0.0
C844 C 0.12884 0.19558 0.95438 0.0
C845 C 0.10995 0.15656 0.98151 0.0
C846 C 0.13344 0.19192 0.916 0.0
C847 C 0.12596 0.1712 0.91015 0.0
H848 H 0.63116 0.6305 0.31993 0.0
H849 H 0.60397 0.61985 0.22604 0.0
H850 H 0.55733 0.66712 0.22795 0.0
H851 H 0.52564 0.71362 0.25328 0.0
H852 H 0.55373 0.72452 0.34609 0.0
H853 H 0.59815 0.67548 0.34759 0.0
C854 C 0.61482 0.63831 0.30029 0.0
C855 C 0.62127 0.62163 0.27278 0.0
C856 C 0.58812 0.66589 0.30107 0.0
C857 C 0.59984 0.63229 0.24734 0.0
C858 C 0.57307 0.65941 0.24835 0.0
C859 C 0.54131 0.70503 0.27411 0.0
C860 C 0.53637 0.7227 0.29954 0.0
C861 C 0.5672 0.67673 0.2746 0.0
C862 C 0.55698 0.71137 0.3262 0.0
C863 C 0.58248 0.68329 0.32707 0.0
H864 H 0.33888 0.86868 0.56781 0.0
H865 H 0.24284 0.92712 0.60372 0.0
H866 H 0.25919 0.96096 0.61515 0.0
H867 H 0.30117 0.97477 0.61098 0.0
H868 H 0.39699 0.91485 0.57681 0.0
H869 H 0.38056 0.88033 0.56847 0.0
C870 C 0.32164 0.88886 0.57818 0.0
C871 C 0.28988 0.89595 0.58449 0.0
C872 C 0.33121 0.9077 0.58487 0.0
C873 C 0.26746 0.92165 0.59856 0.0
C874 C 0.2768 0.94083 0.60504 0.0
C875 C 0.31832 0.95386 0.60245 0.0
C876 C 0.35014 0.94734 0.59376 0.0
C877 C 0.30863 0.93418 0.5979 0.0
C878 C 0.37236 0.92039 0.5826 0.0
C879 C 0.363 0.9007 0.57804 0.0
H880 H 0.02891 0.70062 0.82967 0.0
H881 H 0.05788 0.7461 0.71276 0.0
H882 H 0.10059 0.69862 0.69937 0.0
H883 H 0.13126 0.64472 0.72194 0.0
H884 H 0.10693 0.59949 0.84155 0.0
H885 H 0.06113 0.64617 0.85323 0.0
C886 C 0.04449 0.69988 0.80122 0.0
C887 C 0.03999 0.72652 0.77185 0.0
C888 C 0.06997 0.67262 0.79445 0.0
C889 C 0.0606 0.72571 0.73542 0.0
C890 C 0.08513 0.69861 0.72787 0.0
C891 C 0.11573 0.64497 0.75045 0.0
C892 C 0.12219 0.61863 0.7807 0.0
C893 C 0.0902 0.67199 0.75728 0.0
C894 C 0.10233 0.61948 0.81777 0.0
C895 C 0.07616 0.64614 0.82442 0.0
H896 H 0.83612 0.36174 0.59241 0.0
H897 H 0.81221 0.41449 0.47744 0.0
H898 H 0.83788 0.44489 0.47568 0.0
H899 H 0.85678 0.4628 0.5129 0.0
H900 H 0.87257 0.41382 0.63235 0.0
H901 H 0.86019 0.37599 0.62633 0.0
C902 C 0.83642 0.37998 0.56695 0.0
C903 C 0.82132 0.38659 0.53582 0.0
C904 C 0.84908 0.39856 0.56735 0.0
C905 C 0.82325 0.40925 0.50211 0.0
C906 C 0.83747 0.42692 0.50134 0.0
C907 C 0.85752 0.44384 0.53761 0.0
C908 C 0.86488 0.44161 0.57338 0.0
C909 C 0.84876 0.42286 0.53481 0.0
C910 C 0.86699 0.41624 0.60448 0.0
C911 C 0.85964 0.39465 0.60123 0.0
H912 H 0.32864 0.97479 0.25744 0.0
H913 H 0.27106 0.9619 0.20405 0.0
H914 H 0.31042 0.91078 0.20146 0.0
H915 H 0.36044 0.86916 0.21607 0.0
H916 H 0.42175 0.88325 0.26093 0.0
H917 H 0.38197 0.93428 0.26533 0.0
C918 C 0.32504 0.96081 0.24484 0.0
C919 C 0.29712 0.97203 0.23081 0.0
C920 C 0.34831 0.93158 0.24231 0.0
C921 C 0.29259 0.95383 0.21452 0.0
C922 C 0.31497 0.92453 0.21328 0.0
C923 C 0.3651 0.88343 0.22677 0.0
C924 C 0.39359 0.87223 0.23925 0.0
C925 C 0.34278 0.91309 0.22737 0.0
C926 C 0.39966 0.89116 0.25211 0.0
C927 C 0.37698 0.9204 0.25438 0.0
H928 H 0.32773 0.47406 0.75039 0.0
H929 H 0.26391 0.45056 0.7258 0.0
H930 H 0.30389 0.39979 0.72535 0.0
H931 H 0.3561 0.36194 0.7322 0.0
H932 H 0.42299 0.38339 0.75256 0.0
H933 H 0.38294 0.43516 0.75394 0.0
C934 C 0.32287 0.45779 0.74458 0.0
C935 C 0.29301 0.46617 0.73764 0.0
C936 C 0.34644 0.42837 0.74352 0.0
C937 C 0.28685 0.4449 0.73038 0.0
C938 C 0.30963 0.41575 0.73038 0.0
C939 C 0.36211 0.37788 0.73683 0.0
C940 C 0.3924 0.36889 0.74233 0.0
C941 C 0.33939 0.40728 0.73688 0.0
C942 C 0.39977 0.38988 0.74815 0.0
C943 C 0.37686 0.4194 0.74902 0.0
H944 H 0.13312 0.79639 0.55093 0.0
H945 H 0.13301 0.85794 0.60586 0.0
H946 H 0.08269 0.8624 0.64739 0.0
H947 H 0.04125 0.84495 0.67302 0.0
H948 H 0.04233 0.78155 0.62041 0.0
H949 H 0.08921 0.78188 0.57325 0.0
C950 C 0.12168 0.81127 0.57137 0.0
C951 C 0.13672 0.82685 0.57529 0.0
C952 C 0.09297 0.81315 0.59605 0.0
C953 C 0.12188 0.84571 0.60231 0.0
C954 C 0.09313 0.8482 0.62621 0.0
C955 C 0.05139 0.83163 0.65081 0.0
C956 C 0.03823 0.81321 0.65052 0.0
C957 C 0.07881 0.83145 0.6241 0.0
C958 C 0.05195 0.79589 0.62158 0.0
C959 C 0.07887 0.796 0.59452 0.0
H960 H 0.19537 0.94977 0.29141 0.0
H961 H 0.19975 0.9985 0.36271 0.0
H962 H 0.20267 0.9564 0.42084 0.0
H963 H 0.20504 0.90438 0.45099 0.0
H964 H 0.19678 0.85926 0.37758 0.0
H965 H 0.19438 0.90102 0.32117 0.0
C966 C 0.19677 0.9514 0.31969 0.0
C967 C 0.19756 0.97727 0.3225 0.0
C968 C 0.19781 0.9275 0.35284 0.0
C969 C 0.19917 0.97889 0.35959 0.0
C970 C 0.2009 0.95472 0.39283 0.0
C971 C 0.20251 0.90387 0.42269 0.0
C972 C 0.20083 0.87857 0.41892 0.0
C973 C 0.20043 0.92869 0.38982 0.0
C974 C 0.19763 0.8784 0.38186 0.0
C975 C 0.19641 0.90231 0.34929 0.0
H976 H 0.91733 0.70413 0.60308 0.0
H977 H 0.0011 0.70259 0.5203 0.0
H978 H -0.00114 0.6693 0.48833 0.0
H979 H -0.02286 0.63529 0.49053 0.0
H980 H 0.89335 0.63699 0.57406 0.0
H981 H 0.89122 0.67611 0.59864 0.0
C982 C 0.93461 0.69725 0.57732 0.0
C983 C 0.95974 0.70529 0.56451 0.0
C984 C 0.93337 0.67785 0.5596 0.0
C985 C -0.01795 0.696 0.53127 0.0
C986 C -0.01926 0.67702 0.51303 0.0
C987 C 0.95809 0.64459 0.51363 0.0
C988 C 0.9357 0.63291 0.53081 0.0
C989 C 0.9572 0.66685 0.52803 0.0
C990 C 0.91097 0.64546 0.56039 0.0
C991 C 0.9098 0.66776 0.57463 0.0
H992 H 0.31938 0.73641 0.4252 0.0
H993 H 0.27265 0.82851 0.43587 0.0
H994 H 0.31971 0.83567 0.40216 0.0
H995 H 0.3727 0.81743 0.36328 0.0
H996 H 0.41812 0.7269 0.34604 0.0
H997 H 0.37363 0.71737 0.3884 0.0
C998 C 0.31987 0.75778 0.4209 0.0
C999 C 0.29279 0.7816 0.43429 0.0
C1000 C 0.34686 0.76212 0.39969 0.0
C1001 C 0.29332 0.80951 0.42724 0.0
C1002 C 0.32027 0.81373 0.40746 0.0
C1003 C 0.37313 0.79543 0.36946 0.0
C1004 C 0.39875 0.77289 0.35159 0.0
C1005 C 0.34699 0.79041 0.39278 0.0
C1006 C 0.39866 0.74467 0.35935 0.0
C1007 C 0.37318 0.73921 0.38353 0.0
H1008 H 0.26221 0.1233 0.20159 0.0
H1009 H 0.2051 0.10526 0.1547 0.0
H1010 H 0.19911 0.14996 0.10055 0.0
H1011 H 0.20853 0.19594 0.06788 0.0
H1012 H 0.26801 0.21157 0.11452 0.0
H1013 H 0.27459 0.16648 0.16682 0.0
C1014 C 0.24876 0.12893 0.17923 0.0
C1015 C 0.23418 0.11083 0.18219 0.0
C1016 C 0.24567 0.15456 0.14803 0.0
C1017 C 0.21679 0.11857 0.15298 0.0
C1018 C 0.21322 0.14431 0.1221 0.0
C1019 C 0.22311 0.18933 0.08931 0.0
C1020 C 0.23775 0.20735 0.08697 0.0
C1021 C 0.22729 0.16275 0.11949 0.0
C1022 C 0.2566 0.19824 0.11512 0.0
C1023 C 0.26034 0.17238 0.14533 0.0
H1024 H 0.79449 0.77724 0.87492 0.0
H1025 H 0.80816 0.78127 0.98389 0.0
H1026 H 0.85832 0.78355 0.95032 0.0
H1027 H 0.89802 0.78547 0.88829 0.0
H1028 H 0.88451 0.77666 0.78218 0.0
H1029 H 0.83465 0.77522 0.8161 0.0
C1030 C 0.8085 0.77844 0.89148 0.0
C1031 C 0.79749 0.77946 0.93169 0.0
C1032 C 0.83738 0.77897 0.87228 0.0
C1033 C 0.8161 0.78062 0.95284 0.0
C1034 C 0.84473 0.78198 0.93358 0.0
C1035 C 0.88406 0.78316 0.87289 0.0
C1036 C 0.89479 0.78123 0.83281 0.0
C1037 C 0.85555 0.78142 0.89309 0.0
C1038 C 0.87676 0.778 0.81309 0.0
C1039 C 0.84822 0.77723 0.83241 0.0
H1040 H 0.23772 0.6336 0.71633 0.0
H1041 H 0.21023 0.59796 0.6505 0.0
H1042 H 0.20727 0.64098 0.59391 0.0
H1043 H 0.21155 0.69005 0.56361 0.0
H1044 H 0.24275 0.72224 0.63027 0.0
H1045 H 0.24543 0.67951 0.68526 0.0
C1046 C 0.23131 0.63506 0.68948 0.0
C1047 C 0.22413 0.61253 0.68779 0.0
C1048 C 0.23031 0.65949 0.65693 0.0
C1049 C 0.21606 0.61482 0.6526 0.0
C1050 C 0.21424 0.63956 0.62027 0.0
C1051 C 0.21904 0.68764 0.5901 0.0
C1052 C 0.22685 0.70976 0.59237 0.0
C1053 C 0.22114 0.66226 0.6221 0.0
C1054 C 0.23665 0.70588 0.62713 0.0
C1055 C 0.23815 0.68133 0.65892 0.0
H1056 H 0.35143 1.01269 0.41032 0.0
H1057 H 0.28474 0.10008 0.43213 0.0
H1058 H 0.32455 0.10508 0.45186 0.0
H1059 H 0.37938 0.08566 0.45913 0.0
H1060 H 0.4465 0.99995 0.43202 0.0
H1061 H 0.4055 0.99284 0.41903 0.0
C1062 C 0.34553 1.03263 0.41993 0.0
C1063 C 0.31524 0.05596 0.41984 0.0
C1064 C 0.36869 1.03564 0.43021 0.0
C1065 C 0.308 0.08191 0.43175 0.0
C1066 C 0.33071 0.08474 0.44308 0.0
C1067 C 0.38483 0.06542 0.45058 0.0
C1068 C 0.41581 0.04352 0.44609 0.0
C1069 C 0.36129 0.06195 0.44182 0.0
C1070 C 0.42281 1.01732 0.43504 0.0
C1071 C 0.3994 1.01321 0.4277 0.0
H1072 H 0.83145 0.86988 0.09737 0.0
H1073 H 0.81067 0.91448 0.9792 0.0
H1074 H 0.82873 0.95127 0.97634 0.0
H1075 H 0.84338 0.97445 0.01121 0.0
H1076 H 0.8569 0.93291 0.1329 0.0
H1077 H 0.84883 0.89118 0.13057 0.0
C1078 C 0.83099 0.88761 0.07091 0.0
C1079 C 0.81906 0.88997 0.03896 0.0
C1080 C 0.83974 0.90943 0.07035 0.0
C1081 C 0.81964 0.91231 1.00428 0.0
C1082 C 0.82963 0.93351 1.00281 0.0
C1083 C 0.84432 0.95638 0.03732 0.0
C1084 C 0.85021 0.95709 0.07239 0.0
C1085 C 0.83844 0.93299 0.03635 0.0
C1086 C 0.8525 0.93295 0.10548 0.0
C1087 C 0.84772 0.90912 0.10428 0.0
H1088 H 0.66962 0.15757 0.43822 0.0
H1089 H 0.58217 0.22143 0.48905 0.0
H1090 H 0.55553 0.19264 0.48816 0.0
H1091 H 0.55678 0.15213 0.46673 0.0
H1092 H 0.6444 0.08915 0.41435 0.0
H1093 H 0.67147 0.11533 0.42113 0.0
C1094 C 0.64476 0.16496 0.4494 0.0
C1095 C 0.62766 0.19156 0.46322 0.0
C1096 C 0.62971 0.14885 0.44783 0.0
C1097 C 0.59565 0.20088 0.47836 0.0
C1098 C 0.58046 0.18461 0.47751 0.0
C1099 C 0.58185 0.14393 0.4573 0.0
C1100 C 0.5986 0.119 0.43971 0.0
C1101 C 0.59718 0.15901 0.46135 0.0
C1102 C 0.63101 0.10869 0.42725 0.0
C1103 C 0.64649 0.12345 0.43141 0.0
H1104 H 0.82455 0.47295 0.25657 0.0
H1105 H 0.7721 0.46348 0.19093 0.0
H1106 H 0.81349 0.41406 0.18377 0.0
H1107 H 0.86379 0.37268 0.19767 0.0
H1108 H 0.91958 0.38308 0.25681 0.0
H1109 H 0.87802 0.43276 0.26501 0.0
C1110 C 0.82245 0.46013 0.24034 0.0
C1111 C 0.79529 0.47194 0.22419 0.0
C1112 C 0.84687 0.43178 0.23542 0.0
C1113 C 0.7929 0.45513 0.20317 0.0
C1114 C 0.81647 0.42672 0.1993 0.0
C1115 C 0.86688 0.38585 0.2123 0.0
C1116 C 0.89449 0.37405 0.22722 0.0
C1117 C 0.84341 0.41471 0.21556 0.0
C1118 C 0.89839 0.39157 0.24547 0.0
C1119 C 0.87463 0.42 0.25008 0.0
H1120 H 0.05607 0.64146 0.48819 0.0
H1121 H 0.13291 0.6059 0.39599 0.0
H1122 H 0.15459 0.63855 0.39708 0.0
H1123 H 0.15055 0.67853 0.42214 0.0
H1124 H 0.07567 0.7121 0.51662 0.0
H1125 H 0.05544 0.6771 0.51855 0.0
C1126 C 0.07791 0.64022 0.46885 0.0
C1127 C 0.09251 0.62146 0.44159 0.0
C1128 C 0.09068 0.65848 0.47027 0.0
C1129 C 0.12062 0.62069 0.41648 0.0
C1130 C 0.13323 0.63914 0.41731 0.0
C1131 C 0.12973 0.67815 0.44307 0.0
C1132 C 0.11416 0.69803 0.46869 0.0
C1133 C 0.11816 0.65842 0.44361 0.0
C1134 C 0.08777 0.69702 0.49647 0.0
C1135 C 0.07608 0.67731 0.49726 0.0
H1136 H 0.59769 0.10264 0.78921 0.0
H1137 H 0.66809 0.13582 0.73241 0.0
H1138 H 0.62868 0.18739 0.73036 0.0
H1139 H 0.57472 0.22307 0.74521 0.0
H1140 H 0.50247 0.19216 0.79901 0.0
H1141 H 0.54174 0.13979 0.80137 0.0
C1142 C 0.60416 0.12129 0.7766 0.0
C1143 C 0.63567 0.11565 0.76143 0.0
C1144 C 0.58107 0.15119 0.77477 0.0
C1145 C 0.64396 0.13979 0.74455 0.0
C1146 C 0.62146 0.16925 0.74327 0.0
C1147 C 0.56752 0.20487 0.75736 0.0
C1148 C 0.53588 0.21132 0.77222 0.0
C1149 C 0.59003 0.1752 0.75833 0.0
C1150 C 0.52677 0.18764 0.78738 0.0
C1151 C 0.54924 0.15774 0.78889 0.0
H1152 H 0.75737 0.6242 0.20788 0.0
H1153 H 0.70838 0.60185 0.15311 0.0
H1154 H 0.70477 0.64554 0.09785 0.0
H1155 H 0.7138 0.69153 0.06635 0.0
H1156 H 0.76375 0.7127 0.12162 0.0
H1157 H 0.76871 0.66829 0.17497 0.0
C1158 C 0.74617 0.62871 0.18364 0.0
C1159 C 0.7332 0.60972 0.18462 0.0
C1160 C 0.74421 0.65388 0.15199 0.0
C1161 C 0.71869 0.61599 0.15301 0.0
C1162 C 0.71652 0.64107 0.12147 0.0
C1163 C 0.72602 0.6863 0.08986 0.0
C1164 C 0.73839 0.70567 0.08966 0.0
C1165 C 0.72894 0.6604 0.12077 0.0
C1166 C 0.75404 0.69838 0.12063 0.0
C1167 C 0.75686 0.6729 0.15138 0.0
H1168 H 0.9286 0.5122 0.44123 0.0
H1169 H 0.87075 0.59954 0.46825 0.0
H1170 H 0.82474 0.59849 0.45844 0.0
H1171 H 0.80209 0.57445 0.43643 0.0
H1172 H 0.85956 0.48603 0.41265 0.0
H1173 H 0.90456 0.48533 0.4279 0.0
C1174 C 0.90586 0.53096 0.44498 0.0
C1175 C 0.90298 0.55632 0.4543 0.0
C1176 C 0.87956 0.52989 0.44003 0.0
C1177 C 0.87341 0.58006 0.46041 0.0
C1178 C 0.84718 0.57943 0.45485 0.0
C1179 C 0.82444 0.55498 0.43495 0.0
C1180 C 0.82775 0.53058 0.42276 0.0
C1181 C 0.85013 0.55477 0.44375 0.0
C1182 C 0.85656 0.50513 0.42179 0.0
C1183 C 0.8823 0.50481 0.43023 0.0
H1184 H 0.07854 0.53788 0.64457 0.0
H1185 H 0.13735 0.51634 0.53414 0.0
H1186 H 0.09534 0.51333 0.51611 0.0
H1187 H 0.04108 0.51804 0.53195 0.0
H1188 H -0.01862 0.54623 0.63891 0.0
H1189 H 0.02484 0.54416 0.65908 0.0
C1190 C 0.08226 0.53215 0.61678 0.0
C1191 C 0.111 0.52681 0.59101 0.0
C1192 C 0.05791 0.53139 0.60628 0.0
C1193 C 0.11538 0.52026 0.55454 0.0
C1194 C 0.09145 0.51848 0.54435 0.0
C1195 C 0.03771 0.52376 0.55955 0.0
C1196 C 0.00803 0.53263 0.58362 0.0
C1197 C 0.0625 0.52415 0.56998 0.0
C1198 C 0.00395 0.5396 0.61965 0.0
C1199 C 0.02875 0.53853 0.63118 0.0
H1200 H 0.5607 0.7688 0.15796 0.0
H1201 H 0.52175 0.85952 0.17254 0.0
H1202 H 0.56594 0.86684 0.12563 0.0
H1203 H 0.61827 0.84585 0.08543 0.0
H1204 H 0.65863 0.75434 0.07413 0.0
H1205 H 0.61147 0.74889 0.11431 0.0
C1206 C 0.5617 0.79029 0.15047 0.0
C1207 C 0.53807 0.81351 0.16897 0.0
C1208 C 0.58756 0.79415 0.12403 0.0
C1209 C 0.53982 0.84115 0.15912 0.0
C1210 C 0.56506 0.84539 0.1322 0.0
C1211 C 0.61622 0.82507 0.09092 0.0
C1212 C 0.64143 0.80075 0.07626 0.0
C1213 C 0.58939 0.82187 0.11511 0.0
C1214 C 0.63915 0.77356 0.08442 0.0
C1215 C 0.6123 0.77037 0.10772 0.0
H1216 H 0.58194 0.51216 0.14498 0.0
H1217 H 0.63296 0.53002 0.02693 0.0
H1218 H 0.59835 0.52346 0.99939 0.0
H1219 H 0.55096 0.51677 0.00832 0.0
H1220 H 0.4986 0.50107 0.12543 0.0
H1221 H 0.53715 0.50103 0.15423 0.0
C1222 C 0.58588 0.51403 0.11332 0.0
C1223 C 0.60987 0.52187 0.08805 0.0
C1224 C 0.56573 0.51039 0.09759 0.0
C1225 C 0.61436 0.52454 0.04701 0.0
C1226 C 0.59467 0.52065 0.03122 0.0
C1227 C 0.54825 0.51318 0.04009 0.0
C1228 C 0.52197 0.50939 0.06465 0.0
C1229 C 0.56988 0.51425 0.05612 0.0
C1230 C 0.51888 0.50382 0.10596 0.0
C1231 C 0.54069 0.5042 0.12235 0.0
H1232 H 0.29669 0.48759 0.0891 0.0
H1233 H 0.3961 0.43523 0.06163 0.0
H1234 H 0.38744 0.3967 0.04985 0.0
H1235 H 0.35167 0.37731 0.04887 0.0
H1236 H 0.25221 0.42989 0.07522 0.0
H1237 H 0.26083 0.46889 0.08599 0.0
C1238 C 0.31641 0.46778 0.08041 0.0
C1239 C 0.34695 0.46412 0.07666 0.0
C1240 C 0.31127 0.44573 0.0736 0.0
C1241 C 0.37234 0.43827 0.06556 0.0
C1242 C 0.36742 0.41633 0.05852 0.0
C1243 C 0.33188 0.39749 0.05645 0.0
C1244 C 0.30136 0.40068 0.06132 0.0
C1245 C 0.337 0.41976 0.06265 0.0
C1246 C 0.27595 0.42674 0.07177 0.0
C1247 C 0.28085 0.44909 0.0778 0.0
H1248 H 0.02828 0.21501 0.23831 0.0
H1249 H 0.05278 0.22586 0.33444 0.0
H1250 H 0.0955 0.17586 0.33949 0.0
H1251 H 0.12812 0.13 0.3146 0.0
H1252 H 0.10491 0.11818 0.21814 0.0
H1253 H 0.05968 0.16693 0.21574 0.0
C1254 C 0.04282 0.20624 0.26054 0.0
C1255 C 0.03732 0.22429 0.28585 0.0
C1256 C 0.06776 0.17713 0.26333 0.0
C1257 C 0.05646 0.21258 0.31447 0.0
C1258 C 0.08099 0.18389 0.31744 0.0
C1259 C 0.11297 0.13778 0.29341 0.0
C1260 C 0.12017 0.12024 0.26661 0.0
C1261 C 0.08715 0.16608 0.29177 0.0
C1262 C 0.10014 0.13105 0.23922 0.0
C1263 C 0.07422 0.15909 0.23767 0.0
H1264 H 0.16722 0.39 0.90359 0.0
H1265 H 0.23757 0.38757 0.95226 0.0
H1266 H 0.23533 0.43435 0.90553 0.0
H1267 H 0.21511 0.47547 0.8482 0.0
H1268 H 0.14611 0.47705 0.79824 0.0
H1269 H 0.14602 0.4318 0.84766 0.0
C1270 C 0.18182 0.39983 0.9043 0.0
C1271 C 0.20242 0.38499 0.93183 0.0
C1272 C 0.18071 0.4269 0.87681 0.0
C1273 C 0.22138 0.3982 0.9317 0.0
C1274 C 0.22017 0.42512 0.90481 0.0
C1275 C 0.19961 0.46628 0.84866 0.0
C1276 C 0.18029 0.48009 0.81973 0.0
C1277 C 0.2001 0.43966 0.87695 0.0
C1278 C 0.16103 0.46717 0.82025 0.0
C1279 C 0.16103 0.44113 0.8485 0.0
H1280 H 0.28772 0.30929 0.93821 0.0
H1281 H 0.29522 0.23292 0.90802 0.0
H1282 H 0.34627 0.22675 0.86604 0.0
H1283 H 0.38772 0.24472 0.83599 0.0
H1284 H 0.38031 0.32003 0.86978 0.0
H1285 H 0.33096 0.32425 0.91355 0.0
C1286 C 0.30118 0.29053 0.92388 0.0
C1287 C 0.28845 0.27091 0.92726 0.0
C1288 C 0.33047 0.28705 0.90028 0.0
C1289 C 0.30502 0.24791 0.90631 0.0
C1290 C 0.3341 0.24447 0.88229 0.0
C1291 C 0.37547 0.26184 0.85325 0.0
C1292 C 0.38779 0.28206 0.84937 0.0
C1293 C 0.34695 0.26412 0.87874 0.0
C1294 C 0.37157 0.30407 0.87212 0.0
C1295 C 0.34318 0.30664 0.89711 0.0
H1296 H 0.43764 0.51676 0.91246 0.0
H1297 H 0.37293 0.59169 0.96657 0.0
H1298 H 0.32917 0.58336 0.96382 0.0
H1299 H 0.30954 0.55758 0.9401 0.0
H1300 H 0.37497 0.48289 0.88554 0.0
H1301 H 0.41849 0.48829 0.89447 0.0
C1302 C 0.41394 0.53129 0.92371 0.0
C1303 C 0.40837 0.55488 0.93961 0.0
C1304 C 0.38918 0.52641 0.92182 0.0
C1305 C 0.37768 0.57326 0.95451 0.0
C1306 C 0.35274 0.56855 0.95278 0.0
C1307 C 0.33333 0.54203 0.93103 0.0
C1308 C 0.33906 0.52013 0.91166 0.0
C1309 C 0.35822 0.54549 0.93587 0.0
C1310 C 0.37 0.50028 0.89983 0.0
C1311 C 0.39485 0.50336 0.9049 0.0
H1312 H 0.64066 0.69158 0.90626 0.0
H1313 H 0.58331 0.70093 0.02148 0.0
H1314 H 0.5565 0.67475 0.01314 0.0
H1315 H 0.5515 0.6473 0.9739 0.0
H1316 H 0.61234 0.63543 0.8607 0.0
H1317 H 0.63504 0.66541 0.867 0.0
C1318 C 0.62251 0.6876 0.92976 0.0
C1319 C 0.61438 0.69751 0.96475 0.0
C1320 C 0.60763 0.67245 0.92488 0.0
C1321 C 0.59008 0.69323 0.9944 0.0
C1322 C 0.57484 0.67828 0.98963 0.0
C1323 C 0.56991 0.65103 0.95072 0.0
C1324 C 0.58035 0.63879 0.91699 0.0
C1325 C 0.58377 0.66743 0.95514 0.0
C1326 C 0.60352 0.64475 0.88675 0.0
C1327 C 0.61682 0.66164 0.8905 0.0
H1328 H 0.91193 0.87906 0.75111 0.0
H1329 H 0.87686 0.86085 0.67262 0.0
H1330 H 0.83304 0.91052 0.66876 0.0
H1331 H 0.8026 0.95762 0.69124 0.0
H1332 H 0.83329 0.97401 0.77635 0.0
H1333 H 0.88078 0.92681 0.77426 0.0
C1334 C 0.89487 0.88626 0.73281 0.0
C1335 C 0.89771 0.86653 0.71183 0.0
C1336 C 0.86884 0.91446 0.73218 0.0
C1337 C 0.87518 0.87576 0.68883 0.0
C1338 C 0.85009 0.90412 0.68669 0.0
C1339 C 0.81996 0.95113 0.70879 0.0
C1340 C 0.81471 0.96946 0.73346 0.0
C1341 C 0.8464 0.92347 0.70869 0.0
C1342 C 0.83696 0.96034 0.75691 0.0
C1343 C 0.86406 0.93334 0.75577 0.0
H1344 H 0.42064 0.19239 0.61143 0.0
H1345 H 0.50252 0.1967 0.52931 0.0
H1346 H 0.49997 0.16736 0.49086 0.0
H1347 H 0.47759 0.1362 0.48547 0.0
H1348 H 0.39562 0.13192 0.56849 0.0
H1349 H 0.39446 0.16638 0.60114 0.0
C1350 C 0.43769 0.18707 0.58486 0.0
C1351 C 0.462 0.19606 0.57328 0.0
C1352 C 0.43596 0.17041 0.56313 0.0
C1353 C 0.48383 0.18963 0.53868 0.0
C1354 C 0.48235 0.17292 0.51685 0.0
C1355 C 0.45906 0.1433 0.51017 0.0
C1356 C 0.43696 0.13117 0.52479 0.0
C1357 C 0.45893 0.16261 0.52939 0.0
C1358 C 0.41294 0.14086 0.55657 0.0
C1359 C 0.41243 0.16034 0.57557 0.0
H1360 H 0.50776 0.38264 0.91935 0.0
H1361 H 0.40795 0.41273 0.95175 0.0
H1362 H 0.40423 0.45019 0.98173 0.0
H1363 H 0.42901 0.47601 0.995 0.0
H1364 H 0.52848 0.44823 0.95808 0.0
H1365 H 0.53281 0.40745 0.93456 0.0
C1366 C 0.48526 0.39701 0.9337 0.0
C1367 C 0.45818 0.39485 0.93363 0.0
C1368 C 0.4833 0.41874 0.95013 0.0
C1369 C 0.42908 0.41404 0.95146 0.0
C1370 C 0.427 0.43531 0.96872 0.0
C1371 C 0.45177 0.46082 0.98232 0.0
C1372 C 0.47845 0.46521 0.97821 0.0
C1373 C 0.45391 0.43812 0.96768 0.0
C1374 C 0.50762 0.44539 0.96149 0.0
C1375 C 0.51008 0.42215 0.94793 0.0
H1376 H 0.52219 0.88866 0.41083 0.0
H1377 H 0.43919 0.88379 0.49008 0.0
H1378 H 0.43872 0.91517 0.52736 0.0
H1379 H 0.45687 0.94986 0.53125 0.0
H1380 H 0.53956 0.95519 0.45163 0.0
H1381 H 0.54567 0.9168 0.42189 0.0
C1382 C 0.50455 0.89358 0.43704 0.0
C1383 C 0.48038 0.88438 0.44708 0.0
C1384 C 0.50417 0.91185 0.45828 0.0
C1385 C 0.45765 0.89118 0.48108 0.0
C1386 C 0.45735 0.90904 0.50254 0.0
C1387 C 0.47667 0.94213 0.50804 0.0
C1388 C 0.49735 0.9558 0.49326 0.0
C1389 C 0.4797 0.92051 0.49042 0.0
C1390 C 0.52311 0.94523 0.46349 0.0
C1391 C 0.52652 0.92339 0.44619 0.0
H1392 H 0.45006 0.60475 0.08374 0.0
H1393 H 0.4719 0.64775 0.96183 0.0
H1394 H 0.48471 0.67972 0.98338 0.0
H1395 H 0.48972 0.69515 0.03758 0.0
H1396 H 0.47031 0.64928 0.15891 0.0
H1397 H 0.45753 0.61806 0.13678 0.0
C1398 C 0.45696 0.62158 0.06189 0.0
C1399 C 0.45911 0.6246 0.02135 0.0
C1400 C 0.46549 0.63882 0.07439 0.0
C1401 C 0.46938 0.64558 0.99329 0.0
C1402 C 0.47698 0.6636 0.00559 0.0
C1403 C 0.48294 0.67813 0.05906 0.0
C1404 C 0.4811 0.67451 0.09984 0.0
C1405 C 0.47528 0.6603 0.04613 0.0
C1406 C 0.47251 0.65221 0.12733 0.0
C1407 C 0.46472 0.63461 0.11476 0.0
loop_
_geom_bond_atom_site_label_1
_geom_bond_atom_site_label_2
_geom_bond_distance
_geom_bond_site_symmetry_2
_ccdc_geom_bond_type
C0 Eu1 2.835 . S
C0 C2 1.500 . S
C0 O20 1.257 . S
C0 O21 1.260 . S
Eu1 C0 2.835 . S
Eu1 O20 2.473 . S
Eu1 O21 2.480 . S
Eu1 O22 2.430 1_455 S
Eu1 O23 2.670 1_455 S
Eu1 O24 2.394 1_455 S
Eu1 O29 2.355 1_546 S
Eu1 O31 2.374 1_545 S
C2 C0 1.500 . S
C2 C3 1.377 . S
C2 C7 1.377 . S
C3 C2 1.377 . S
C3 C4 1.395 . S
C3 H32 0.931 . S
C4 C3 1.395 . S
C4 C5 1.383 . S
C4 H33 0.931 . S
C5 C4 1.383 . S
C5 C6 1.394 . S
C6 C5 1.394 . S
C6 C7 1.378 . S
C6 H34 0.931 . S
C7 C2 1.377 . S
C7 C6 1.378 . S
C7 H35 0.931 . S
C8 O22 1.259 . S
C8 O23 1.270 . S
C9 O24 1.251 1_554 S
C9 O25 1.251 . S
C10 Eu11 2.835 . S
C10 C12 1.500 . S
C10 O26 1.257 . S
C10 O27 1.260 . S
Eu11 C10 2.835 . S
Eu11 O23 2.355 1_564 S
Eu11 O25 2.374 1_565 S
Eu11 O26 2.473 . S
Eu11 O27 2.480 . S
Eu11 O28 2.430 1_655 S
Eu11 O29 2.670 1_655 S
Eu11 O30 2.394 1_655 S
C12 C10 1.500 . S
C12 C13 1.377 . S
C12 C17 1.377 . S
C13 C12 1.377 . S
C13 C14 1.395 . S
C13 H36 0.931 . S
C14 C13 1.395 . S
C14 C15 1.383 . S
C14 H37 0.931 . S
C15 C14 1.383 . S
C15 C16 1.394 . S
C16 C15 1.394 . S
C16 C17 1.378 . S
C16 H38 0.931 . S
C17 C12 1.377 . S
C17 C16 1.378 . S
C17 H39 0.931 . S
C18 O28 1.259 . S
C18 O29 1.270 . S
C19 O30 1.251 1_556 S
C19 O31 1.251 . S
O20 C0 1.257 . S
O20 Eu1 2.473 . S
O21 C0 1.260 . S
O21 Eu1 2.480 . S
O22 Eu1 2.430 1_655 S
O22 C8 1.259 . S
O23 Eu1 2.670 1_655 S
O23 C8 1.270 . S
O23 Eu11 2.355 1_546 S
O24 Eu1 2.394 1_655 S
O24 C9 1.251 1_556 S
O25 C9 1.251 . S
O25 Eu11 2.374 1_545 S
O26 C10 1.257 . S
O26 Eu11 2.473 . S
O27 C10 1.260 . S
O27 Eu11 2.480 . S
O28 Eu11 2.430 1_455 S
O28 C18 1.259 . S
O29 Eu1 2.355 1_564 S
O29 Eu11 2.670 1_455 S
O29 C18 1.270 . S
O30 Eu11 2.394 1_455 S
O30 C19 1.251 1_554 S
O31 Eu1 2.374 1_565 S
O31 C19 1.251 . S
H32 C3 0.931 . S
H33 C4 0.931 . S
H34 C6 0.931 . S
H35 C7 0.931 . S
H36 C13 0.931 . S
H37 C14 0.931 . S
H38 C16 0.931 . S
H39 C17 0.931 . S
C40 Eu41 2.835 . S
C40 C42 1.500 1_655 S
C40 O60 1.257 1_655 S
C40 O61 1.260 . S
Eu41 C40 2.835 . S
Eu41 O60 2.473 1_655 S
Eu41 O61 2.480 . S
Eu41 O62 2.430 . S
Eu41 O63 2.670 . S
Eu41 O64 2.394 1_655 S
Eu41 O69 2.355 1_655 S
Eu41 O71 2.374 . S
C42 C40 1.500 1_455 S
C42 C43 1.377 1_455 S
C42 C47 1.377 . S
C43 C42 1.377 1_655 S
C43 C44 1.395 . S
C43 H72 0.931 . S
C44 C43 1.395 . S
C44 C45 1.383 1_655 S
C44 H73 0.931 . S
C45 C44 1.383 1_455 S
C45 C46 1.394 . S
C46 C45 1.394 . S
C46 C47 1.378 . S
C46 H74 0.931 . S
C47 C42 1.377 . S
C47 C46 1.378 . S
C47 H75 0.931 . S
C48 O62 1.259 . S
C48 O63 1.270 . S
C49 O64 1.251 . S
C49 O65 1.251 . S
C50 Eu51 2.835 . S
C50 C52 1.500 1_455 S
C50 O66 1.257 1_455 S
C50 O67 1.260 . S
Eu51 C50 2.835 . S
Eu51 O63 2.355 1_455 S
Eu51 O65 2.374 . S
Eu51 O66 2.473 1_455 S
Eu51 O67 2.480 . S
Eu51 O68 2.430 . S
Eu51 O69 2.670 . S
Eu51 O70 2.394 1_455 S
C52 C50 1.500 1_655 S
C52 C53 1.377 1_655 S
C52 C57 1.377 . S
C53 C52 1.377 1_455 S
C53 C54 1.395 . S
C53 H76 0.931 . S
C54 C53 1.395 . S
C54 C55 1.383 1_455 S
C54 H77 0.931 . S
C55 C54 1.383 1_655 S
C55 C56 1.394 . S
C56 C55 1.394 . S
C56 C57 1.378 . S
C56 H78 0.931 . S
C57 C52 1.377 . S
C57 C56 1.378 . S
C57 H79 0.931 . S
C58 O68 1.259 . S
C58 O69 1.270 . S
C59 O70 1.251 . S
C59 O71 1.251 . S
O60 C40 1.257 1_455 S
O60 Eu41 2.473 1_455 S
O61 C40 1.260 . S
O61 Eu41 2.480 . S
O62 Eu41 2.430 . S
O62 C48 1.259 . S
O63 Eu41 2.670 . S
O63 C48 1.270 . S
O63 Eu51 2.355 1_655 S
O64 Eu41 2.394 1_455 S
O64 C49 1.251 . S
O65 C49 1.251 . S
O65 Eu51 2.374 . S
O66 C50 1.257 1_655 S
O66 Eu51 2.473 1_655 S
O67 C50 1.260 . S
O67 Eu51 2.480 . S
O68 Eu51 2.430 . S
O68 C58 1.259 . S
O69 Eu41 2.355 1_455 S
O69 Eu51 2.670 . S
O69 C58 1.270 . S
O70 Eu51 2.394 1_655 S
O70 C59 1.251 . S
O71 Eu41 2.374 . S
O71 C59 1.251 . S
H72 C43 0.931 . S
H73 C44 0.931 . S
H74 C46 0.931 . S
H75 C47 0.931 . S
H76 C53 0.931 . S
H77 C54 0.931 . S
H78 C56 0.931 . S
H79 C57 0.931 . S
C80 Eu81 2.835 . S
C80 C82 1.500 . S
C80 O100 1.257 . S
C80 O101 1.260 . S
Eu81 C80 2.835 . S
Eu81 O100 2.473 . S
Eu81 O101 2.480 . S
Eu81 O102 2.430 . S
Eu81 O103 2.670 . S
Eu81 O104 2.394 . S
Eu81 O109 2.355 . S
Eu81 O111 2.374 . S
C82 C80 1.500 . S
C82 C83 1.377 . S
C82 C87 1.377 . S
C83 C82 1.377 . S
C83 C84 1.395 . S
C83 H112 0.931 . S
C84 C83 1.395 . S
C84 C85 1.383 . S
C84 H113 0.931 . S
C85 C84 1.383 . S
C85 C86 1.394 . S
C86 C85 1.394 . S
C86 C87 1.378 . S
C86 H114 0.931 . S
C87 C82 1.377 . S
C87 C86 1.378 . S
C87 H115 0.931 . S
C88 O102 1.259 . S
C88 O103 1.270 . S
C89 O104 1.251 . S
C89 O105 1.251 . S
C90 Eu91 2.835 . S
C90 C92 1.500 . S
C90 O106 1.257 . S
C90 O107 1.260 . S
Eu91 C90 2.835 . S
Eu91 O103 2.355 . S
Eu91 O105 2.374 . S
Eu91 O106 2.473 . S
Eu91 O107 2.480 . S
Eu91 O108 2.430 . S
Eu91 O109 2.670 . S
Eu91 O110 2.394 . S
C92 C90 1.500 . S
C92 C93 1.377 . S
C92 C97 1.377 . S
C93 C92 1.377 . S
C93 C94 1.395 . S
C93 H116 0.931 . S
C94 C93 1.395 . S
C94 C95 1.383 . S
C94 H117 0.931 . S
C95 C94 1.383 . S
C95 C96 1.394 . S
C96 C95 1.394 . S
C96 C97 1.378 . S
C96 H118 0.931 . S
C97 C92 1.377 . S
C97 C96 1.378 . S
C97 H119 0.931 . S
C98 O108 1.259 . S
C98 O109 1.270 . S
C99 O110 1.251 . S
C99 O111 1.251 . S
O100 C80 1.257 . S
O100 Eu81 2.473 . S
O101 C80 1.260 . S
O101 Eu81 2.480 . S
O102 Eu81 2.430 . S
O102 C88 1.259 . S
O103 Eu81 2.670 . S
O103 C88 1.270 . S
O103 Eu91 2.355 . S
O104 Eu81 2.394 . S
O104 C89 1.251 . S
O105 C89 1.251 . S
O105 Eu91 2.374 . S
O106 C90 1.257 . S
O106 Eu91 2.473 . S
O107 C90 1.260 . S
O107 Eu91 2.480 . S
O108 Eu91 2.430 . S
O108 C98 1.259 . S
O109 Eu81 2.355 . S
O109 Eu91 2.670 . S
O109 C98 1.270 . S
O110 Eu91 2.394 . S
O110 C99 1.251 . S
O111 Eu81 2.374 . S
O111 C99 1.251 . S
H112 C83 0.931 . S
H113 C84 0.931 . S
H114 C86 0.931 . S
H115 C87 0.931 . S
H116 C93 0.931 . S
H117 C94 0.931 . S
H118 C96 0.931 . S
H119 C97 0.931 . S
C120 Eu121 2.835 1_545 S
C120 C122 1.500 . S
C120 O140 1.257 . S
C120 O141 1.260 1_545 S
Eu121 C120 2.835 1_565 S
Eu121 O140 2.473 1_565 S
Eu121 O141 2.480 . S
Eu121 O142 2.430 . S
Eu121 O143 2.670 . S
Eu121 O144 2.394 1_565 S
Eu121 O149 2.355 1_565 S
Eu121 O151 2.374 . S
C122 C120 1.500 . S
C122 C123 1.377 1_545 S
C122 C127 1.377 . S
C123 C122 1.377 1_565 S
C123 C124 1.395 1_565 S
C123 H152 0.931 . S
C124 C123 1.395 1_545 S
C124 C125 1.383 . S
C124 H153 0.931 1_545 S
C125 C124 1.383 . S
C125 C126 1.394 . S
C126 C125 1.394 . S
C126 C127 1.378 . S
C126 H154 0.931 . S
C127 C122 1.377 . S
C127 C126 1.378 . S
C127 H155 0.931 . S
C128 O142 1.259 . S
C128 O143 1.270 . S
C129 O144 1.251 . S
C129 O145 1.251 . S
C130 Eu131 2.835 1_565 S
C130 C132 1.500 . S
C130 O146 1.257 . S
C130 O147 1.260 1_565 S
Eu131 C130 2.835 1_545 S
Eu131 O143 2.355 1_545 S
Eu131 O145 2.374 . S
Eu131 O146 2.473 1_545 S
Eu131 O147 2.480 . S
Eu131 O148 2.430 . S
Eu131 O149 2.670 . S
Eu131 O150 2.394 1_545 S
C132 C130 1.500 . S
C132 C133 1.377 1_565 S
C132 C137 1.377 . S
C133 C132 1.377 1_545 S
C133 C134 1.395 1_545 S
C133 H156 0.931 . S
C134 C133 1.395 1_565 S
C134 C135 1.383 . S
C134 H157 0.931 1_565 S
C135 C134 1.383 . S
C135 C136 1.394 . S
C136 C135 1.394 . S
C136 C137 1.378 . S
C136 H158 0.931 . S
C137 C132 1.377 . S
C137 C136 1.378 . S
C137 H159 0.931 . S
C138 O148 1.259 . S
C138 O149 1.270 . S
C139 O150 1.251 . S
C139 O151 1.251 . S
O140 C120 1.257 . S
O140 Eu121 2.473 1_545 S
O141 C120 1.260 1_565 S
O141 Eu121 2.480 . S
O142 Eu121 2.430 . S
O142 C128 1.259 . S
O143 Eu121 2.670 . S
O143 C128 1.270 . S
O143 Eu131 2.355 1_565 S
O144 Eu121 2.394 1_545 S
O144 C129 1.251 . S
O145 C129 1.251 . S
O145 Eu131 2.374 . S
O146 C130 1.257 . S
O146 Eu131 2.473 1_565 S
O147 C130 1.260 1_545 S
O147 Eu131 2.480 . S
O148 Eu131 2.430 . S
O148 C138 1.259 . S
O149 Eu121 2.355 1_545 S
O149 Eu131 2.670 . S
O149 C138 1.270 . S
O150 Eu131 2.394 1_565 S
O150 C139 1.251 . S
O151 Eu121 2.374 . S
O151 C139 1.251 . S
H152 C123 0.931 . S
H153 C124 0.931 1_565 S
H154 C126 0.931 . S
H155 C127 0.931 . S
H156 C133 0.931 . S
H157 C134 0.931 1_545 S
H158 C136 0.931 . S
H159 C137 0.931 . S
C160 Eu161 2.835 . S
C160 C162 1.500 . S
C160 O180 1.257 . S
C160 O181 1.260 . S
Eu161 C160 2.835 . S
Eu161 O180 2.473 . S
Eu161 O181 2.480 . S
Eu161 O182 2.430 . S
Eu161 O183 2.670 . S
Eu161 O184 2.394 . S
Eu161 O189 2.355 . S
Eu161 O191 2.374 . S
C162 C160 1.500 . S
C162 C163 1.377 . S
C162 C167 1.377 . S
C163 C162 1.377 . S
C163 C164 1.395 . S
C163 H192 0.931 . S
C164 C163 1.395 . S
C164 C165 1.383 . S
C164 H193 0.931 . S
C165 C164 1.383 . S
C165 C166 1.394 . S
C166 C165 1.394 . S
C166 C167 1.378 . S
C166 H194 0.931 . S
C167 C162 1.377 . S
C167 C166 1.378 . S
C167 H195 0.931 . S
C168 O182 1.259 . S
C168 O183 1.270 . S
C169 O184 1.251 . S
C169 O185 1.251 . S
C170 Eu171 2.835 . S
C170 C172 1.500 . S
C170 O186 1.257 . S
C170 O187 1.260 . S
Eu171 C170 2.835 . S
Eu171 O183 2.355 . S
Eu171 O185 2.374 . S
Eu171 O186 2.473 . S
Eu171 O187 2.480 . S
Eu171 O188 2.430 . S
Eu171 O189 2.670 . S
Eu171 O190 2.394 . S
C172 C170 1.500 . S
C172 C173 1.377 . S
C172 C177 1.377 . S
C173 C172 1.377 . S
C173 C174 1.395 . S
C173 H196 0.931 . S
C174 C173 1.395 . S
C174 C175 1.383 . S
C174 H197 0.931 . S
C175 C174 1.383 . S
C175 C176 1.394 . S
C176 C175 1.394 . S
C176 C177 1.378 . S
C176 H198 0.931 . S
C177 C172 1.377 . S
C177 C176 1.378 . S
C177 H199 0.931 . S
C178 O188 1.259 . S
C178 O189 1.270 . S
C179 O190 1.251 . S
C179 O191 1.251 . S
O180 C160 1.257 . S
O180 Eu161 2.473 . S
O181 C160 1.260 . S
O181 Eu161 2.480 . S
O182 Eu161 2.430 . S
O182 C168 1.259 . S
O183 Eu161 2.670 . S
O183 C168 1.270 . S
O183 Eu171 2.355 . S
O184 Eu161 2.394 . S
O184 C169 1.251 . S
O185 C169 1.251 . S
O185 Eu171 2.374 . S
O186 C170 1.257 . S
O186 Eu171 2.473 . S
O187 C170 1.260 . S
O187 Eu171 2.480 . S
O188 Eu171 2.430 . S
O188 C178 1.259 . S
O189 Eu161 2.355 . S
O189 Eu171 2.670 . S
O189 C178 1.270 . S
O190 Eu171 2.394 . S
O190 C179 1.251 . S
O191 Eu161 2.374 . S
O191 C179 1.251 . S
H192 C163 0.931 . S
H193 C164 0.931 . S
H194 C166 0.931 . S
H195 C167 0.931 . S
H196 C173 0.931 . S
H197 C174 0.931 . S
H198 C176 0.931 . S
H199 C177 0.931 . S
C200 Eu201 2.835 . S
C200 C202 1.500 . S
C200 O220 1.257 . S
C200 O221 1.260 . S
Eu201 C200 2.835 . S
Eu201 O220 2.473 . S
Eu201 O221 2.480 . S
Eu201 O222 2.430 . S
Eu201 O223 2.670 . S
Eu201 O224 2.394 . S
Eu201 O229 2.355 . S
Eu201 O231 2.374 . S
C202 C200 1.500 . S
C202 C203 1.377 . S
C202 C207 1.377 . S
C203 C202 1.377 . S
C203 C204 1.395 . S
C203 H232 0.931 . S
C204 C203 1.395 . S
C204 C205 1.383 . S
C204 H233 0.931 . S
C205 C204 1.383 . S
C205 C206 1.394 . S
C206 C205 1.394 . S
C206 C207 1.378 . S
C206 H234 0.931 . S
C207 C202 1.377 . S
C207 C206 1.378 . S
C207 H235 0.931 . S
C208 O222 1.259 . S
C208 O223 1.270 . S
C209 O224 1.251 . S
C209 O225 1.251 . S
C210 Eu211 2.835 . S
C210 C212 1.500 . S
C210 O226 1.257 . S
C210 O227 1.260 . S
Eu211 C210 2.835 . S
Eu211 O223 2.355 . S
Eu211 O225 2.374 . S
Eu211 O226 2.473 . S
Eu211 O227 2.480 . S
Eu211 O228 2.430 . S
Eu211 O229 2.670 . S
Eu211 O230 2.394 . S
C212 C210 1.500 . S
C212 C213 1.377 . S
C212 C217 1.377 . S
C213 C212 1.377 . S
C213 C214 1.395 . S
C213 H236 0.931 . S
C214 C213 1.395 . S
C214 C215 1.383 . S
C214 H237 0.931 . S
C215 C214 1.383 . S
C215 C216 1.394 . S
C216 C215 1.394 . S
C216 C217 1.378 . S
C216 H238 0.931 . S
C217 C212 1.377 . S
C217 C216 1.378 . S
C217 H239 0.931 . S
C218 O228 1.259 . S
C218 O229 1.270 . S
C219 O230 1.251 . S
C219 O231 1.251 . S
O220 C200 1.257 . S
O220 Eu201 2.473 . S
O221 C200 1.260 . S
O221 Eu201 2.480 . S
O222 Eu201 2.430 . S
O222 C208 1.259 . S
O223 Eu201 2.670 . S
O223 C208 1.270 . S
O223 Eu211 2.355 . S
O224 Eu201 2.394 . S
O224 C209 1.251 . S
O225 C209 1.251 . S
O225 Eu211 2.374 . S
O226 C210 1.257 . S
O226 Eu211 2.473 . S
O227 C210 1.260 . S
O227 Eu211 2.480 . S
O228 Eu211 2.430 . S
O228 C218 1.259 . S
O229 Eu201 2.355 . S
O229 Eu211 2.670 . S
O229 C218 1.270 . S
O230 Eu211 2.394 . S
O230 C219 1.251 . S
O231 Eu201 2.374 . S
O231 C219 1.251 . S
H232 C203 0.931 . S
H233 C204 0.931 . S
H234 C206 0.931 . S
H235 C207 0.931 . S
H236 C213 0.931 . S
H237 C214 0.931 . S
H238 C216 0.931 . S
H239 C217 0.931 . S
C240 Eu241 2.835 . S
C240 C242 1.500 . S
C240 O260 1.257 . S
C240 O261 1.260 . S
Eu241 C240 2.835 . S
Eu241 O260 2.473 . S
Eu241 O261 2.480 . S
Eu241 O262 2.430 . S
Eu241 O263 2.670 . S
Eu241 O264 2.394 . S
Eu241 O269 2.355 . S
Eu241 O271 2.374 . S
C242 C240 1.500 . S
C242 C243 1.377 . S
C242 C247 1.377 . S
C243 C242 1.377 . S
C243 C244 1.395 . S
C243 H272 0.931 . S
C244 C243 1.395 . S
C244 C245 1.383 . S
C244 H273 0.931 . S
C245 C244 1.383 . S
C245 C246 1.394 . S
C246 C245 1.394 . S
C246 C247 1.378 . S
C246 H274 0.931 . S
C247 C242 1.377 . S
C247 C246 1.378 . S
C247 H275 0.931 . S
C248 O262 1.259 . S
C248 O263 1.270 . S
C249 O264 1.251 . S
C249 O265 1.251 . S
C250 Eu251 2.835 . S
C250 C252 1.500 . S
C250 O266 1.257 . S
C250 O267 1.260 . S
Eu251 C250 2.835 . S
Eu251 O263 2.355 . S
Eu251 O265 2.374 . S
Eu251 O266 2.473 . S
Eu251 O267 2.480 . S
Eu251 O268 2.430 . S
Eu251 O269 2.670 . S
Eu251 O270 2.394 . S
C252 C250 1.500 . S
C252 C253 1.377 . S
C252 C257 1.377 . S
C253 C252 1.377 . S
C253 C254 1.395 . S
C253 H276 0.931 . S
C254 C253 1.395 . S
C254 C255 1.383 . S
C254 H277 0.931 . S
C255 C254 1.383 . S
C255 C256 1.394 . S
C256 C255 1.394 . S
C256 C257 1.378 . S
C256 H278 0.931 . S
C257 C252 1.377 . S
C257 C256 1.378 . S
C257 H279 0.931 . S
C258 O268 1.259 . S
C258 O269 1.270 . S
C259 O270 1.251 . S
C259 O271 1.251 . S
O260 C240 1.257 . S
O260 Eu241 2.473 . S
O261 C240 1.260 . S
O261 Eu241 2.480 . S
O262 Eu241 2.430 . S
O262 C248 1.259 . S
O263 Eu241 2.670 . S
O263 C248 1.270 . S
O263 Eu251 2.355 . S
O264 Eu241 2.394 . S
O264 C249 1.251 . S
O265 C249 1.251 . S
O265 Eu251 2.374 . S
O266 C250 1.257 . S
O266 Eu251 2.473 . S
O267 C250 1.260 . S
O267 Eu251 2.480 . S
O268 Eu251 2.430 . S
O268 C258 1.259 . S
O269 Eu241 2.355 . S
O269 Eu251 2.670 . S
O269 C258 1.270 . S
O270 Eu251 2.394 . S
O270 C259 1.251 . S
O271 Eu241 2.374 . S
O271 C259 1.251 . S
H272 C243 0.931 . S
H273 C244 0.931 . S
H274 C246 0.931 . S
H275 C247 0.931 . S
H276 C253 0.931 . S
H277 C254 0.931 . S
H278 C256 0.931 . S
H279 C257 0.931 . S
C280 Eu281 2.835 . S
C280 C282 1.500 . S
C280 O300 1.257 . S
C280 O301 1.260 . S
Eu281 C280 2.835 . S
Eu281 O300 2.473 . S
Eu281 O301 2.480 . S
Eu281 O302 2.430 1_455 S
Eu281 O303 2.670 1_455 S
Eu281 O304 2.394 1_455 S
Eu281 O309 2.355 . S
Eu281 O311 2.374 . S
C282 C280 1.500 . S
C282 C283 1.377 . S
C282 C287 1.377 . S
C283 C282 1.377 . S
C283 C284 1.395 . S
C283 H312 0.931 . S
C284 C283 1.395 . S
C284 C285 1.383 . S
C284 H313 0.931 . S
C285 C284 1.383 . S
C285 C286 1.394 . S
C286 C285 1.394 . S
C286 C287 1.378 . S
C286 H314 0.931 . S
C287 C282 1.377 . S
C287 C286 1.378 . S
C287 H315 0.931 . S
C288 O302 1.259 . S
C288 O303 1.270 . S
C289 O304 1.251 . S
C289 O305 1.251 . S
C290 Eu291 2.835 . S
C290 C292 1.500 . S
C290 O306 1.257 . S
C290 O307 1.260 . S
Eu291 C290 2.835 . S
Eu291 O303 2.355 . S
Eu291 O305 2.374 . S
Eu291 O306 2.473 . S
Eu291 O307 2.480 . S
Eu291 O308 2.430 1_655 S
Eu291 O309 2.670 1_655 S
Eu291 O310 2.394 1_655 S
C292 C290 1.500 . S
C292 C293 1.377 . S
C292 C297 1.377 . S
C293 C292 1.377 . S
C293 C294 1.395 . S
C293 H316 0.931 . S
C294 C293 1.395 . S
C294 C295 1.383 . S
C294 H317 0.931 . S
C295 C294 1.383 . S
C295 C296 1.394 . S
C296 C295 1.394 . S
C296 C297 1.378 . S
C296 H318 0.931 . S
C297 C292 1.377 . S
C297 C296 1.378 . S
C297 H319 0.931 . S
C298 O308 1.259 . S
C298 O309 1.270 . S
C299 O310 1.251 . S
C299 O311 1.251 . S
O300 C280 1.257 . S
O300 Eu281 2.473 . S
O301 C280 1.260 . S
O301 Eu281 2.480 . S
O302 Eu281 2.430 1_655 S
O302 C288 1.259 . S
O303 Eu281 2.670 1_655 S
O303 C288 1.270 . S
O303 Eu291 2.355 . S
O304 Eu281 2.394 1_655 S
O304 C289 1.251 . S
O305 C289 1.251 . S
O305 Eu291 2.374 . S
O306 C290 1.257 . S
O306 Eu291 2.473 . S
O307 C290 1.260 . S
O307 Eu291 2.480 . S
O308 Eu291 2.430 1_455 S
O308 C298 1.259 . S
O309 Eu281 2.355 . S
O309 Eu291 2.670 1_455 S
O309 C298 1.270 . S
O310 Eu291 2.394 1_455 S
O310 C299 1.251 . S
O311 Eu281 2.374 . S
O311 C299 1.251 . S
H312 C283 0.931 . S
H313 C284 0.931 . S
H314 C286 0.931 . S
H315 C287 0.931 . S
H316 C293 0.931 . S
H317 C294 0.931 . S
H318 C296 0.931 . S
H319 C297 0.931 . S
C320 Eu321 2.835 . S
C320 C322 1.500 . S
C320 O340 1.257 . S
C320 O341 1.260 . S
Eu321 C320 2.835 . S
Eu321 O340 2.473 . S
Eu321 O341 2.480 . S
Eu321 O342 2.430 . S
Eu321 O343 2.670 . S
Eu321 O344 2.394 1_556 S
Eu321 O349 2.355 1_556 S
Eu321 O351 2.374 . S
C322 C320 1.500 . S
C322 C323 1.377 . S
C322 C327 1.377 . S
C323 C322 1.377 . S
C323 C324 1.395 . S
C323 H352 0.931 . S
C324 C323 1.395 . S
C324 C325 1.383 . S
C324 H353 0.931 . S
C325 C324 1.383 . S
C325 C326 1.394 . S
C326 C325 1.394 . S
C326 C327 1.378 . S
C326 H354 0.931 1_556 S
C327 C322 1.377 . S
C327 C326 1.378 . S
C327 H355 0.931 1_556 S
C328 O342 1.259 . S
C328 O343 1.270 . S
C329 O344 1.251 . S
C329 O345 1.251 . S
C330 Eu331 2.835 . S
C330 C332 1.500 . S
C330 O346 1.257 . S
C330 O347 1.260 . S
Eu331 C330 2.835 . S
Eu331 O343 2.355 1_554 S
Eu331 O345 2.374 . S
Eu331 O346 2.473 . S
Eu331 O347 2.480 . S
Eu331 O348 2.430 . S
Eu331 O349 2.670 . S
Eu331 O350 2.394 1_554 S
C332 C330 1.500 . S
C332 C333 1.377 . S
C332 C337 1.377 . S
C333 C332 1.377 . S
C333 C334 1.395 . S
C333 H356 0.931 . S
C334 C333 1.395 . S
C334 C335 1.383 . S
C334 H357 0.931 . S
C335 C334 1.383 . S
C335 C336 1.394 . S
C336 C335 1.394 . S
C336 C337 1.378 . S
C336 H358 0.931 1_554 S
C337 C332 1.377 . S
C337 C336 1.378 . S
C337 H359 0.931 1_554 S
C338 O348 1.259 . S
C338 O349 1.270 . S
C339 O350 1.251 . S
C339 O351 1.251 . S
O340 C320 1.257 . S
O340 Eu321 2.473 . S
O341 C320 1.260 . S
O341 Eu321 2.480 . S
O342 Eu321 2.430 . S
O342 C328 1.259 . S
O343 Eu321 2.670 . S
O343 C328 1.270 . S
O343 Eu331 2.355 1_556 S
O344 Eu321 2.394 1_554 S
O344 C329 1.251 . S
O345 C329 1.251 . S
O345 Eu331 2.374 . S
O346 C330 1.257 . S
O346 Eu331 2.473 . S
O347 C330 1.260 . S
O347 Eu331 2.480 . S
O348 Eu331 2.430 . S
O348 C338 1.259 . S
O349 Eu321 2.355 1_554 S
O349 Eu331 2.670 . S
O349 C338 1.270 . S
O350 Eu331 2.394 1_556 S
O350 C339 1.251 . S
O351 Eu321 2.374 . S
O351 C339 1.251 . S
H352 C323 0.931 . S
H353 C324 0.931 . S
H354 C326 0.931 1_554 S
H355 C327 0.931 1_554 S
H356 C333 0.931 . S
H357 C334 0.931 . S
H358 C336 0.931 1_556 S
H359 C337 0.931 1_556 S
C360 Eu361 2.835 1_545 S
C360 C362 1.500 . S
C360 O380 1.257 . S
C360 O381 1.260 1_545 S
Eu361 C360 2.835 1_565 S
Eu361 O380 2.473 1_565 S
Eu361 O381 2.480 . S
Eu361 O382 2.430 . S
Eu361 O383 2.670 . S
Eu361 O384 2.394 1_565 S
Eu361 O389 2.355 1_565 S
Eu361 O391 2.374 . S
C362 C360 1.500 . S
C362 C363 1.377 1_545 S
C362 C367 1.377 . S
C363 C362 1.377 1_565 S
C363 C364 1.395 1_565 S
C363 H392 0.931 . S
C364 C363 1.395 1_545 S
C364 C365 1.383 . S
C364 H393 0.931 1_545 S
C365 C364 1.383 . S
C365 C366 1.394 . S
C366 C365 1.394 . S
C366 C367 1.378 . S
C366 H394 0.931 . S
C367 C362 1.377 . S
C367 C366 1.378 . S
C367 H395 0.931 . S
C368 O382 1.259 . S
C368 O383 1.270 . S
C369 O384 1.251 . S
C369 O385 1.251 . S
C370 Eu371 2.835 1_565 S
C370 C372 1.500 . S
C370 O386 1.257 . S
C370 O387 1.260 1_565 S
Eu371 C370 2.835 1_545 S
Eu371 O383 2.355 1_545 S
Eu371 O385 2.374 . S
Eu371 O386 2.473 1_545 S
Eu371 O387 2.480 . S
Eu371 O388 2.430 . S
Eu371 O389 2.670 . S
Eu371 O390 2.394 1_545 S
C372 C370 1.500 . S
C372 C373 1.377 1_565 S
C372 C377 1.377 . S
C373 C372 1.377 1_545 S
C373 C374 1.395 1_545 S
C373 H396 0.931 . S
C374 C373 1.395 1_565 S
C374 C375 1.383 . S
C374 H397 0.931 1_565 S
C375 C374 1.383 . S
C375 C376 1.394 . S
C376 C375 1.394 . S
C376 C377 1.378 . S
C376 H398 0.931 . S
C377 C372 1.377 . S
C377 C376 1.378 . S
C377 H399 0.931 . S
C378 O388 1.259 . S
C378 O389 1.270 . S
C379 O390 1.251 . S
C379 O391 1.251 . S
O380 C360 1.257 . S
O380 Eu361 2.473 1_545 S
O381 C360 1.260 1_565 S
O381 Eu361 2.480 . S
O382 Eu361 2.430 . S
O382 C368 1.259 . S
O383 Eu361 2.670 . S
O383 C368 1.270 . S
O383 Eu371 2.355 1_565 S
O384 Eu361 2.394 1_545 S
O384 C369 1.251 . S
O385 C369 1.251 . S
O385 Eu371 2.374 . S
O386 C370 1.257 . S
O386 Eu371 2.473 1_565 S
O387 C370 1.260 1_545 S
O387 Eu371 2.480 . S
O388 Eu371 2.430 . S
O388 C378 1.259 . S
O389 Eu361 2.355 1_545 S
O389 Eu371 2.670 . S
O389 C378 1.270 . S
O390 Eu371 2.394 1_565 S
O390 C379 1.251 . S
O391 Eu361 2.374 . S
O391 C379 1.251 . S
H392 C363 0.931 . S
H393 C364 0.931 1_565 S
H394 C366 0.931 . S
H395 C367 0.931 . S
H396 C373 0.931 . S
H397 C374 0.931 1_545 S
H398 C376 0.931 . S
H399 C377 0.931 . S
C400 Eu401 2.835 . S
C400 C402 1.500 . S
C400 O420 1.257 . S
C400 O421 1.260 . S
Eu401 C400 2.835 . S
Eu401 O420 2.473 . S
Eu401 O421 2.480 . S
Eu401 O422 2.430 . S
Eu401 O423 2.670 . S
Eu401 O424 2.394 . S
Eu401 O429 2.355 . S
Eu401 O431 2.374 . S
C402 C400 1.500 . S
C402 C403 1.377 . S
C402 C407 1.377 . S
C403 C402 1.377 . S
C403 C404 1.395 . S
C403 H432 0.931 . S
C404 C403 1.395 . S
C404 C405 1.383 . S
C404 H433 0.931 . S
C405 C404 1.383 . S
C405 C406 1.394 . S
C406 C405 1.394 . S
C406 C407 1.378 . S
C406 H434 0.931 . S
C407 C402 1.377 . S
C407 C406 1.378 . S
C407 H435 0.931 . S
C408 O422 1.259 . S
C408 O423 1.270 . S
C409 O424 1.251 . S
C409 O425 1.251 . S
C410 Eu411 2.835 . S
C410 C412 1.500 . S
C410 O426 1.257 . S
C410 O427 1.260 . S
Eu411 C410 2.835 . S
Eu411 O423 2.355 . S
Eu411 O425 2.374 . S
Eu411 O426 2.473 . S
Eu411 O427 2.480 . S
Eu411 O428 2.430 . S
Eu411 O429 2.670 . S
Eu411 O430 2.394 . S
C412 C410 1.500 . S
C412 C413 1.377 . S
C412 C417 1.377 . S
C413 C412 1.377 . S
C413 C414 1.395 . S
C413 H436 0.931 . S
C414 C413 1.395 . S
C414 C415 1.383 . S
C414 H437 0.931 . S
C415 C414 1.383 . S
C415 C416 1.394 . S
C416 C415 1.394 . S
C416 C417 1.378 . S
C416 H438 0.931 . S
C417 C412 1.377 . S
C417 C416 1.378 . S
C417 H439 0.931 . S
C418 O428 1.259 . S
C418 O429 1.270 . S
C419 O430 1.251 . S
C419 O431 1.251 . S
O420 C400 1.257 . S
O420 Eu401 2.473 . S
O421 C400 1.260 . S
O421 Eu401 2.480 . S
O422 Eu401 2.430 . S
O422 C408 1.259 . S
O423 Eu401 2.670 . S
O423 C408 1.270 . S
O423 Eu411 2.355 . S
O424 Eu401 2.394 . S
O424 C409 1.251 . S
O425 C409 1.251 . S
O425 Eu411 2.374 . S
O426 C410 1.257 . S
O426 Eu411 2.473 . S
O427 C410 1.260 . S
O427 Eu411 2.480 . S
O428 Eu411 2.430 . S
O428 C418 1.259 . S
O429 Eu401 2.355 . S
O429 Eu411 2.670 . S
O429 C418 1.270 . S
O430 Eu411 2.394 . S
O430 C419 1.251 . S
O431 Eu401 2.374 . S
O431 C419 1.251 . S
H432 C403 0.931 . S
H433 C404 0.931 . S
H434 C406 0.931 . S
H435 C407 0.931 . S
H436 C413 0.931 . S
H437 C414 0.931 . S
H438 C416 0.931 . S
H439 C417 0.931 . S
C440 Eu441 2.835 . S
C440 C442 1.500 1_655 S
C440 O460 1.257 1_655 S
C440 O461 1.260 . S
Eu441 C440 2.835 . S
Eu441 O460 2.473 1_655 S
Eu441 O461 2.480 . S
Eu441 O462 2.430 . S
Eu441 O463 2.670 . S
Eu441 O464 2.394 1_655 S
Eu441 O469 2.355 1_655 S
Eu441 O471 2.374 . S
C442 C440 1.500 1_455 S
C442 C443 1.377 1_455 S
C442 C447 1.377 . S
C443 C442 1.377 1_655 S
C443 C444 1.395 . S
C443 H472 0.931 . S
C444 C443 1.395 . S
C444 C445 1.383 1_655 S
C444 H473 0.931 . S
C445 C444 1.383 1_455 S
C445 C446 1.394 . S
C446 C445 1.394 . S
C446 C447 1.378 . S
C446 H474 0.931 . S
C447 C442 1.377 . S
C447 C446 1.378 . S
C447 H475 0.931 . S
C448 O462 1.259 . S
C448 O463 1.270 . S
C449 O464 1.251 . S
C449 O465 1.251 . S
C450 Eu451 2.835 . S
C450 C452 1.500 1_455 S
C450 O466 1.257 1_455 S
C450 O467 1.260 . S
Eu451 C450 2.835 . S
Eu451 O463 2.355 1_455 S
Eu451 O465 2.374 . S
Eu451 O466 2.473 1_455 S
Eu451 O467 2.480 . S
Eu451 O468 2.430 . S
Eu451 O469 2.670 . S
Eu451 O470 2.394 1_455 S
C452 C450 1.500 1_655 S
C452 C453 1.377 1_655 S
C452 C457 1.377 . S
C453 C452 1.377 1_455 S
C453 C454 1.395 . S
C453 H476 0.931 . S
C454 C453 1.395 . S
C454 C455 1.383 1_455 S
C454 H477 0.931 . S
C455 C454 1.383 1_655 S
C455 C456 1.394 . S
C456 C455 1.394 . S
C456 C457 1.378 . S
C456 H478 0.931 . S
C457 C452 1.377 . S
C457 C456 1.378 . S
C457 H479 0.931 . S
C458 O468 1.259 . S
C458 O469 1.270 . S
C459 O470 1.251 . S
C459 O471 1.251 . S
O460 C440 1.257 1_455 S
O460 Eu441 2.473 1_455 S
O461 C440 1.260 . S
O461 Eu441 2.480 . S
O462 Eu441 2.430 . S
O462 C448 1.259 . S
O463 Eu441 2.670 . S
O463 C448 1.270 . S
O463 Eu451 2.355 1_655 S
O464 Eu441 2.394 1_455 S
O464 C449 1.251 . S
O465 C449 1.251 . S
O465 Eu451 2.374 . S
O466 C450 1.257 1_655 S
O466 Eu451 2.473 1_655 S
O467 C450 1.260 . S
O467 Eu451 2.480 . S
O468 Eu451 2.430 . S
O468 C458 1.259 . S
O469 Eu441 2.355 1_455 S
O469 Eu451 2.670 . S
O469 C458 1.270 . S
O470 Eu451 2.394 1_655 S
O470 C459 1.251 . S
O471 Eu441 2.374 . S
O471 C459 1.251 . S
H472 C443 0.931 . S
H473 C444 0.931 . S
H474 C446 0.931 . S
H475 C447 0.931 . S
H476 C453 0.931 . S
H477 C454 0.931 . S
H478 C456 0.931 . S
H479 C457 0.931 . S
C480 Eu481 2.835 . S
C480 C482 1.500 . S
C480 O500 1.257 . S
C480 O501 1.260 . S
Eu481 C480 2.835 . S
Eu481 O500 2.473 . S
Eu481 O501 2.480 . S
Eu481 O502 2.430 . S
Eu481 O503 2.670 . S
Eu481 O504 2.394 . S
Eu481 O509 2.355 . S
Eu481 O511 2.374 . S
C482 C480 1.500 . S
C482 C483 1.377 . S
C482 C487 1.377 . S
C483 C482 1.377 . S
C483 C484 1.395 . S
C483 H512 0.931 . S
C484 C483 1.395 . S
C484 C485 1.383 . S
C484 H513 0.931 . S
C485 C484 1.383 . S
C485 C486 1.394 . S
C486 C485 1.394 . S
C486 C487 1.378 . S
C486 H514 0.931 . S
C487 C482 1.377 . S
C487 C486 1.378 . S
C487 H515 0.931 . S
C488 O502 1.259 . S
C488 O503 1.270 . S
C489 O504 1.251 . S
C489 O505 1.251 . S
C490 Eu491 2.835 . S
C490 C492 1.500 . S
C490 O506 1.257 . S
C490 O507 1.260 . S
Eu491 C490 2.835 . S
Eu491 O503 2.355 . S
Eu491 O505 2.374 . S
Eu491 O506 2.473 . S
Eu491 O507 2.480 . S
Eu491 O508 2.430 . S
Eu491 O509 2.670 . S
Eu491 O510 2.394 . S
C492 C490 1.500 . S
C492 C493 1.377 . S
C492 C497 1.377 . S
C493 C492 1.377 . S
C493 C494 1.395 . S
C493 H516 0.931 . S
C494 C493 1.395 . S
C494 C495 1.383 . S
C494 H517 0.931 . S
C495 C494 1.383 . S
C495 C496 1.394 . S
C496 C495 1.394 . S
C496 C497 1.378 . S
C496 H518 0.931 . S
C497 C492 1.377 . S
C497 C496 1.378 . S
C497 H519 0.931 . S
C498 O508 1.259 . S
C498 O509 1.270 . S
C499 O510 1.251 . S
C499 O511 1.251 . S
O500 C480 1.257 . S
O500 Eu481 2.473 . S
O501 C480 1.260 . S
O501 Eu481 2.480 . S
O502 Eu481 2.430 . S
O502 C488 1.259 . S
O503 Eu481 2.670 . S
O503 C488 1.270 . S
O503 Eu491 2.355 . S
O504 Eu481 2.394 . S
O504 C489 1.251 . S
O505 C489 1.251 . S
O505 Eu491 2.374 . S
O506 C490 1.257 . S
O506 Eu491 2.473 . S
O507 C490 1.260 . S
O507 Eu491 2.480 . S
O508 Eu491 2.430 . S
O508 C498 1.259 . S
O509 Eu481 2.355 . S
O509 Eu491 2.670 . S
O509 C498 1.270 . S
O510 Eu491 2.394 . S
O510 C499 1.251 . S
O511 Eu481 2.374 . S
O511 C499 1.251 . S
H512 C483 0.931 . S
H513 C484 0.931 . S
H514 C486 0.931 . S
H515 C487 0.931 . S
H516 C493 0.931 . S
H517 C494 0.931 . S
H518 C496 0.931 . S
H519 C497 0.931 . S
C520 Eu521 2.835 . S
C520 C522 1.500 . S
C520 O540 1.257 . S
C520 O541 1.260 . S
Eu521 C520 2.835 . S
Eu521 O540 2.473 . S
Eu521 O541 2.480 . S
Eu521 O542 2.430 . S
Eu521 O543 2.670 . S
Eu521 O544 2.394 1_556 S
Eu521 O549 2.355 1_556 S
Eu521 O551 2.374 . S
C522 C520 1.500 . S
C522 C523 1.377 . S
C522 C527 1.377 . S
C523 C522 1.377 . S
C523 C524 1.395 . S
C523 H552 0.931 . S
C524 C523 1.395 . S
C524 C525 1.383 . S
C524 H553 0.931 . S
C525 C524 1.383 . S
C525 C526 1.394 . S
C526 C525 1.394 . S
C526 C527 1.378 . S
C526 H554 0.931 1_556 S
C527 C522 1.377 . S
C527 C526 1.378 . S
C527 H555 0.931 1_556 S
C528 O542 1.259 . S
C528 O543 1.270 . S
C529 O544 1.251 . S
C529 O545 1.251 . S
C530 Eu531 2.835 . S
C530 C532 1.500 . S
C530 O546 1.257 . S
C530 O547 1.260 . S
Eu531 C530 2.835 . S
Eu531 O543 2.355 1_554 S
Eu531 O545 2.374 . S
Eu531 O546 2.473 . S
Eu531 O547 2.480 . S
Eu531 O548 2.430 . S
Eu531 O549 2.670 . S
Eu531 O550 2.394 1_554 S
C532 C530 1.500 . S
C532 C533 1.377 . S
C532 C537 1.377 . S
C533 C532 1.377 . S
C533 C534 1.395 . S
C533 H556 0.931 . S
C534 C533 1.395 . S
C534 C535 1.383 . S
C534 H557 0.931 . S
C535 C534 1.383 . S
C535 C536 1.394 . S
C536 C535 1.394 . S
C536 C537 1.378 . S
C536 H558 0.931 1_554 S
C537 C532 1.377 . S
C537 C536 1.378 . S
C537 H559 0.931 1_554 S
C538 O548 1.259 . S
C538 O549 1.270 . S
C539 O550 1.251 . S
C539 O551 1.251 . S
O540 C520 1.257 . S
O540 Eu521 2.473 . S
O541 C520 1.260 . S
O541 Eu521 2.480 . S
O542 Eu521 2.430 . S
O542 C528 1.259 . S
O543 Eu521 2.670 . S
O543 C528 1.270 . S
O543 Eu531 2.355 1_556 S
O544 Eu521 2.394 1_554 S
O544 C529 1.251 . S
O545 C529 1.251 . S
O545 Eu531 2.374 . S
O546 C530 1.257 . S
O546 Eu531 2.473 . S
O547 C530 1.260 . S
O547 Eu531 2.480 . S
O548 Eu531 2.430 . S
O548 C538 1.259 . S
O549 Eu521 2.355 1_554 S
O549 Eu531 2.670 . S
O549 C538 1.270 . S
O550 Eu531 2.394 1_556 S
O550 C539 1.251 . S
O551 Eu521 2.374 . S
O551 C539 1.251 . S
H552 C523 0.931 . S
H553 C524 0.931 . S
H554 C526 0.931 1_554 S
H555 C527 0.931 1_554 S
H556 C533 0.931 . S
H557 C534 0.931 . S
H558 C536 0.931 1_556 S
H559 C537 0.931 1_556 S
C560 Eu561 2.835 . S
C560 C562 1.500 . S
C560 O580 1.257 . S
C560 O581 1.260 . S
Eu561 C560 2.835 . S
Eu561 O580 2.473 . S
Eu561 O581 2.480 . S
Eu561 O582 2.430 . S
Eu561 O583 2.670 . S
Eu561 O584 2.394 . S
Eu561 O589 2.355 1_545 S
Eu561 O591 2.374 1_545 S
C562 C560 1.500 . S
C562 C563 1.377 . S
C562 C567 1.377 . S
C563 C562 1.377 . S
C563 C564 1.395 . S
C563 H592 0.931 . S
C564 C563 1.395 . S
C564 C565 1.383 . S
C564 H593 0.931 . S
C565 C564 1.383 . S
C565 C566 1.394 . S
C566 C565 1.394 . S
C566 C567 1.378 . S
C566 H594 0.931 . S
C567 C562 1.377 . S
C567 C566 1.378 . S
C567 H595 0.931 . S
C568 O582 1.259 . S
C568 O583 1.270 . S
C569 O584 1.251 . S
C569 O585 1.251 . S
C570 Eu571 2.835 . S
C570 C572 1.500 . S
C570 O586 1.257 . S
C570 O587 1.260 . S
Eu571 C570 2.835 . S
Eu571 O583 2.355 1_565 S
Eu571 O585 2.374 1_565 S
Eu571 O586 2.473 . S
Eu571 O587 2.480 . S
Eu571 O588 2.430 . S
Eu571 O589 2.670 . S
Eu571 O590 2.394 . S
C572 C570 1.500 . S
C572 C573 1.377 . S
C572 C577 1.377 . S
C573 C572 1.377 . S
C573 C574 1.395 . S
C573 H596 0.931 . S
C574 C573 1.395 . S
C574 C575 1.383 . S
C574 H597 0.931 . S
C575 C574 1.383 . S
C575 C576 1.394 . S
C576 C575 1.394 . S
C576 C577 1.378 . S
C576 H598 0.931 . S
C577 C572 1.377 . S
C577 C576 1.378 . S
C577 H599 0.931 . S
C578 O588 1.259 . S
C578 O589 1.270 . S
C579 O590 1.251 . S
C579 O591 1.251 . S
O580 C560 1.257 . S
O580 Eu561 2.473 . S
O581 C560 1.260 . S
O581 Eu561 2.480 . S
O582 Eu561 2.430 . S
O582 C568 1.259 . S
O583 Eu561 2.670 . S
O583 C568 1.270 . S
O583 Eu571 2.355 1_545 S
O584 Eu561 2.394 . S
O584 C569 1.251 . S
O585 C569 1.251 . S
O585 Eu571 2.374 1_545 S
O586 C570 1.257 . S
O586 Eu571 2.473 . S
O587 C570 1.260 . S
O587 Eu571 2.480 . S
O588 Eu571 2.430 . S
O588 C578 1.259 . S
O589 Eu561 2.355 1_565 S
O589 Eu571 2.670 . S
O589 C578 1.270 . S
O590 Eu571 2.394 . S
O590 C579 1.251 . S
O591 Eu561 2.374 1_565 S
O591 C579 1.251 . S
H592 C563 0.931 . S
H593 C564 0.931 . S
H594 C566 0.931 . S
H595 C567 0.931 . S
H596 C573 0.931 . S
H597 C574 0.931 . S
H598 C576 0.931 . S
H599 C577 0.931 . S
C600 Eu601 2.835 . S
C600 C602 1.500 . S
C600 O620 1.257 . S
C600 O621 1.260 . S
Eu601 C600 2.835 . S
Eu601 O620 2.473 . S
Eu601 O621 2.480 . S
Eu601 O622 2.430 . S
Eu601 O623 2.670 . S
Eu601 O624 2.394 . S
Eu601 O629 2.355 1_556 S
Eu601 O631 2.374 . S
C602 C600 1.500 . S
C602 C603 1.377 . S
C602 C607 1.377 . S
C603 C602 1.377 . S
C603 C604 1.395 . S
C603 H632 0.931 . S
C604 C603 1.395 . S
C604 C605 1.383 . S
C604 H633 0.931 . S
C605 C604 1.383 . S
C605 C606 1.394 . S
C606 C605 1.394 . S
C606 C607 1.378 . S
C606 H634 0.931 . S
C607 C602 1.377 . S
C607 C606 1.378 . S
C607 H635 0.931 . S
C608 O622 1.259 . S
C608 O623 1.270 . S
C609 O624 1.251 1_554 S
C609 O625 1.251 . S
C610 Eu611 2.835 . S
C610 C612 1.500 . S
C610 O626 1.257 . S
C610 O627 1.260 . S
Eu611 C610 2.835 . S
Eu611 O623 2.355 1_554 S
Eu611 O625 2.374 . S
Eu611 O626 2.473 . S
Eu611 O627 2.480 . S
Eu611 O628 2.430 . S
Eu611 O629 2.670 . S
Eu611 O630 2.394 . S
C612 C610 1.500 . S
C612 C613 1.377 . S
C612 C617 1.377 . S
C613 C612 1.377 . S
C613 C614 1.395 . S
C613 H636 0.931 . S
C614 C613 1.395 . S
C614 C615 1.383 . S
C614 H637 0.931 . S
C615 C614 1.383 . S
C615 C616 1.394 . S
C616 C615 1.394 . S
C616 C617 1.378 . S
C616 H638 0.931 . S
C617 C612 1.377 . S
C617 C616 1.378 . S
C617 H639 0.931 . S
C618 O628 1.259 . S
C618 O629 1.270 . S
C619 O630 1.251 1_556 S
C619 O631 1.251 . S
O620 C600 1.257 . S
O620 Eu601 2.473 . S
O621 C600 1.260 . S
O621 Eu601 2.480 . S
O622 Eu601 2.430 . S
O622 C608 1.259 . S
O623 Eu601 2.670 . S
O623 C608 1.270 . S
O623 Eu611 2.355 1_556 S
O624 Eu601 2.394 . S
O624 C609 1.251 1_556 S
O625 C609 1.251 . S
O625 Eu611 2.374 . S
O626 C610 1.257 . S
O626 Eu611 2.473 . S
O627 C610 1.260 . S
O627 Eu611 2.480 . S
O628 Eu611 2.430 . S
O628 C618 1.259 . S
O629 Eu601 2.355 1_554 S
O629 Eu611 2.670 . S
O629 C618 1.270 . S
O630 Eu611 2.394 . S
O630 C619 1.251 1_554 S
O631 Eu601 2.374 . S
O631 C619 1.251 . S
H632 C603 0.931 . S
H633 C604 0.931 . S
H634 C606 0.931 . S
H635 C607 0.931 . S
H636 C613 0.931 . S
H637 C614 0.931 . S
H638 C616 0.931 . S
H639 C617 0.931 . S
H640 C646 0.930 . S
H641 C649 0.930 . S
H642 C650 0.930 . S
H643 C651 0.930 . S
H644 C654 0.930 1_556 S
H645 C655 0.930 1_556 S
C646 H640 0.930 . S
C646 C647 1.355 1_455 S
C646 C648 1.415 . S
C647 C646 1.355 1_655 S
C647 C649 1.419 . S
C648 C646 1.415 . S
C648 C653 1.425 1_455 S
C648 C655 1.409 . S
C649 H641 0.930 . S
C649 C647 1.419 . S
C649 C650 1.362 . S
C650 H642 0.930 . S
C650 C649 1.362 . S
C650 C653 1.409 . S
C651 H643 0.930 . S
C651 C652 1.355 1_655 S
C651 C653 1.415 . S
C652 C651 1.355 1_455 S
C652 C654 1.419 . S
C653 C648 1.425 1_655 S
C653 C650 1.409 . S
C653 C651 1.415 . S
C654 H644 0.930 1_554 S
C654 C652 1.419 . S
C654 C655 1.362 . S
C655 H645 0.930 1_554 S
C655 C648 1.409 . S
C655 C654 1.362 . S
H656 C662 0.930 . S
H657 C665 0.930 . S
H658 C666 0.930 . S
H659 C667 0.930 . S
H660 C670 0.930 . S
H661 C671 0.930 . S
C662 H656 0.930 . S
C662 C663 1.355 . S
C662 C664 1.415 . S
C663 C662 1.355 . S
C663 C665 1.419 . S
C664 C662 1.415 . S
C664 C669 1.425 . S
C664 C671 1.409 . S
C665 H657 0.930 . S
C665 C663 1.419 . S
C665 C666 1.362 . S
C666 H658 0.930 . S
C666 C665 1.362 . S
C666 C669 1.409 . S
C667 H659 0.930 . S
C667 C668 1.355 . S
C667 C669 1.415 . S
C668 C667 1.355 . S
C668 C670 1.419 . S
C669 C664 1.425 . S
C669 C666 1.409 . S
C669 C667 1.415 . S
C670 H660 0.930 . S
C670 C668 1.419 . S
C670 C671 1.362 . S
C671 H661 0.930 . S
C671 C664 1.409 . S
C671 C670 1.362 . S
H672 C678 0.930 . S
H673 C681 0.930 . S
H674 C682 0.930 . S
H675 C683 0.930 . S
H676 C686 0.930 . S
H677 C687 0.930 . S
C678 H672 0.930 . S
C678 C679 1.355 . S
C678 C680 1.415 . S
C679 C678 1.355 . S
C679 C681 1.419 . S
C680 C678 1.415 . S
C680 C685 1.425 . S
C680 C687 1.409 . S
C681 H673 0.930 . S
C681 C679 1.419 . S
C681 C682 1.362 . S
C682 H674 0.930 . S
C682 C681 1.362 . S
C682 C685 1.409 . S
C683 H675 0.930 . S
C683 C684 1.355 . S
C683 C685 1.415 . S
C684 C683 1.355 . S
C684 C686 1.419 . S
C685 C680 1.425 . S
C685 C682 1.409 . S
C685 C683 1.415 . S
C686 H676 0.930 . S
C686 C684 1.419 . S
C686 C687 1.362 . S
C687 H677 0.930 . S
C687 C680 1.409 . S
C687 C686 1.362 . S
H688 C694 0.930 . S
H689 C697 0.923 . S
H690 C698 0.930 . S
H691 C699 0.930 . S
H692 C702 0.929 . S
H693 C703 0.930 . S
C694 H688 0.930 . S
C694 C695 1.355 . S
C694 C696 1.415 . S
C695 C694 1.355 . S
C695 C697 1.394 1_545 S
C696 C694 1.415 . S
C696 C701 1.425 1_545 S
C696 C703 1.409 . S
C697 H689 0.923 . S
C697 C695 1.394 1_565 S
C697 C698 1.395 . S
C698 H690 0.930 . S
C698 C697 1.395 . S
C698 C701 1.409 . S
C699 H691 0.930 . S
C699 C700 1.355 . S
C699 C701 1.415 . S
C700 C699 1.355 . S
C700 C702 1.416 1_565 S
C701 C696 1.425 1_565 S
C701 C698 1.409 . S
C701 C699 1.415 . S
C702 H692 0.929 . S
C702 C700 1.416 1_545 S
C702 C703 1.367 . S
C703 H693 0.930 . S
C703 C696 1.409 . S
C703 C702 1.367 . S
H704 C710 0.930 . S
H705 C713 0.930 . S
H706 C714 0.930 . S
H707 C715 0.930 . S
H708 C718 0.927 . S
H709 C719 0.930 . S
C710 H704 0.930 . S
C710 C711 1.355 . S
C710 C712 1.415 . S
C711 C710 1.355 . S
C711 C713 1.419 1_565 S
C712 C710 1.415 . S
C712 C717 1.425 1_565 S
C712 C719 1.409 . S
C713 H705 0.930 . S
C713 C711 1.419 1_545 S
C713 C714 1.362 . S
C714 H706 0.930 . S
C714 C713 1.362 . S
C714 C717 1.409 . S
C715 H707 0.930 . S
C715 C716 1.355 . S
C715 C717 1.415 . S
C716 C715 1.355 . S
C716 C718 1.406 1_545 S
C717 C712 1.425 1_545 S
C717 C714 1.409 . S
C717 C715 1.415 . S
C718 H708 0.927 . S
C718 C716 1.406 1_565 S
C718 C719 1.379 . S
C719 H709 0.930 . S
C719 C712 1.409 . S
C719 C718 1.379 . S
H720 C726 0.924 1_655 S
H721 C729 0.930 . S
H722 C730 0.930 . S
H723 C731 0.930 1_455 S
H724 C734 0.930 . S
H725 C735 0.930 . S
C726 H720 0.924 1_455 S
C726 C727 1.355 . S
C726 C728 1.415 1_455 S
C727 C726 1.355 . S
C727 C729 1.419 . S
C728 C726 1.415 1_655 S
C728 C733 1.425 1_655 S
C728 C735 1.409 . S
C729 H721 0.930 . S
C729 C727 1.419 . S
C729 C730 1.362 . S
C730 H722 0.930 . S
C730 C729 1.362 . S
C730 C733 1.409 . S
C731 H723 0.930 1_655 S
C731 C732 1.355 . S
C731 C733 1.415 1_655 S
C732 C731 1.355 . S
C732 C734 1.419 . S
C733 C728 1.425 1_455 S
C733 C730 1.409 . S
C733 C731 1.415 1_455 S
C734 H724 0.930 . S
C734 C732 1.419 . S
C734 C735 1.362 . S
C735 H725 0.930 . S
C735 C728 1.409 . S
C735 C734 1.362 . S
H736 C742 0.930 . S
H737 C745 0.930 . S
H738 C746 0.930 . S
H739 C747 0.930 . S
H740 C750 0.930 . S
H741 C751 0.930 . S
C742 H736 0.930 . S
C742 C743 1.355 . S
C742 C744 1.415 . S
C743 C742 1.355 . S
C743 C745 1.419 . S
C744 C742 1.415 . S
C744 C749 1.425 . S
C744 C751 1.409 . S
C745 H737 0.930 . S
C745 C743 1.419 . S
C745 C746 1.362 . S
C746 H738 0.930 . S
C746 C745 1.362 . S
C746 C749 1.409 . S
C747 H739 0.930 . S
C747 C748 1.355 . S
C747 C749 1.415 . S
C748 C747 1.355 . S
C748 C750 1.419 . S
C749 C744 1.425 . S
C749 C746 1.409 . S
C749 C747 1.415 . S
C750 H740 0.930 . S
C750 C748 1.419 . S
C750 C751 1.362 . S
C751 H741 0.930 . S
C751 C744 1.409 . S
C751 C750 1.362 . S
H752 C758 0.930 . S
H753 C761 0.930 . S
H754 C762 0.930 . S
H755 C763 0.930 . S
H756 C766 0.930 . S
H757 C767 0.930 . S
C758 H752 0.930 . S
C758 C759 1.355 . S
C758 C760 1.415 . S
C759 C758 1.355 . S
C759 C761 1.419 . S
C760 C758 1.415 . S
C760 C765 1.425 . S
C760 C767 1.409 . S
C761 H753 0.930 . S
C761 C759 1.419 . S
C761 C762 1.362 . S
C762 H754 0.930 . S
C762 C761 1.362 . S
C762 C765 1.409 . S
C763 H755 0.930 . S
C763 C764 1.355 . S
C763 C765 1.415 . S
C764 C763 1.355 . S
C764 C766 1.419 . S
C765 C760 1.425 . S
C765 C762 1.409 . S
C765 C763 1.415 . S
C766 H756 0.930 . S
C766 C764 1.419 . S
C766 C767 1.362 . S
C767 H757 0.930 . S
C767 C760 1.409 . S
C767 C766 1.362 . S
H768 C774 0.930 . S
H769 C777 0.930 . S
H770 C778 0.930 . S
H771 C779 0.930 . S
H772 C782 0.930 . S
H773 C783 0.930 . S
C774 H768 0.930 . S
C774 C775 1.355 . S
C774 C776 1.415 . S
C775 C774 1.355 . S
C775 C777 1.419 . S
C776 C774 1.415 . S
C776 C781 1.425 . S
C776 C783 1.409 . S
C777 H769 0.930 . S
C777 C775 1.419 . S
C777 C778 1.362 . S
C778 H770 0.930 . S
C778 C777 1.362 . S
C778 C781 1.409 . S
C779 H771 0.930 . S
C779 C780 1.355 . S
C779 C781 1.415 . S
C780 C779 1.355 . S
C780 C782 1.419 . S
C781 C776 1.425 . S
C781 C778 1.409 . S
C781 C779 1.415 . S
C782 H772 0.930 . S
C782 C780 1.419 . S
C782 C783 1.362 . S
C783 H773 0.930 . S
C783 C776 1.409 . S
C783 C782 1.362 . S
H784 C790 0.930 . S
H785 C793 0.930 . S
H786 C794 0.930 . S
H787 C795 0.930 . S
H788 C798 0.930 . S
H789 C799 0.930 . S
C790 H784 0.930 . S
C790 C791 1.355 . S
C790 C792 1.415 . S
C791 C790 1.355 . S
C791 C793 1.419 . S
C792 C790 1.415 . S
C792 C797 1.425 . S
C792 C799 1.409 . S
C793 H785 0.930 . S
C793 C791 1.419 . S
C793 C794 1.362 . S
C794 H786 0.930 . S
C794 C793 1.362 . S
C794 C797 1.409 . S
C795 H787 0.930 . S
C795 C796 1.355 . S
C795 C797 1.415 . S
C796 C795 1.355 . S
C796 C798 1.419 . S
C797 C792 1.425 . S
C797 C794 1.409 . S
C797 C795 1.415 . S
C798 H788 0.930 . S
C798 C796 1.419 . S
C798 C799 1.362 . S
C799 H789 0.930 . S
C799 C792 1.409 . S
C799 C798 1.362 . S
H800 C806 0.930 . S
H801 C809 0.930 . S
H802 C810 0.930 . S
H803 C811 0.930 . S
H804 C814 0.930 . S
H805 C815 0.930 . S
C806 H800 0.930 . S
C806 C807 1.355 . S
C806 C808 1.415 . S
C807 C806 1.355 . S
C807 C809 1.419 . S
C808 C806 1.415 . S
C808 C813 1.425 1_565 S
C808 C815 1.409 . S
C809 H801 0.930 . S
C809 C807 1.419 . S
C809 C810 1.362 1_565 S
C810 H802 0.930 . S
C810 C809 1.362 1_545 S
C810 C813 1.409 . S
C811 H803 0.930 . S
C811 C812 1.355 . S
C811 C813 1.415 . S
C812 C811 1.355 . S
C812 C814 1.419 . S
C813 C808 1.425 1_545 S
C813 C810 1.409 . S
C813 C811 1.415 . S
C814 H804 0.930 . S
C814 C812 1.419 . S
C814 C815 1.362 1_545 S
C815 H805 0.930 . S
C815 C808 1.409 . S
C815 C814 1.362 1_565 S
H816 C822 0.930 . S
H817 C825 0.930 . S
H818 C826 0.930 . S
H819 C827 0.930 . S
H820 C830 0.930 . S
H821 C831 0.930 . S
C822 H816 0.930 . S
C822 C823 1.355 . S
C822 C824 1.415 . S
C823 C822 1.355 . S
C823 C825 1.419 1_455 S
C824 C822 1.415 . S
C824 C829 1.425 1_455 S
C824 C831 1.409 . S
C825 H817 0.930 . S
C825 C823 1.419 1_655 S
C825 C826 1.362 . S
C826 H818 0.930 . S
C826 C825 1.362 . S
C826 C829 1.409 . S
C827 H819 0.930 . S
C827 C828 1.355 . S
C827 C829 1.415 . S
C828 C827 1.355 . S
C828 C830 1.419 1_655 S
C829 C824 1.425 1_655 S
C829 C826 1.409 . S
C829 C827 1.415 . S
C830 H820 0.930 . S
C830 C828 1.419 1_455 S
C830 C831 1.362 . S
C831 H821 0.930 . S
C831 C824 1.409 . S
C831 C830 1.362 . S
H832 C838 0.930 . S
H833 C841 0.930 . S
H834 C842 0.930 1_554 S
H835 C843 0.930 1_554 S
H836 C846 0.930 . S
H837 C847 0.930 . S
C838 H832 0.930 . S
C838 C839 1.355 . S
C838 C840 1.415 . S
C839 C838 1.355 . S
C839 C841 1.419 . S
C840 C838 1.415 . S
C840 C845 1.425 . S
C840 C847 1.409 . S
C841 H833 0.930 . S
C841 C839 1.419 . S
C841 C842 1.362 . S
C842 H834 0.930 1_556 S
C842 C841 1.362 . S
C842 C845 1.409 . S
C843 H835 0.930 1_556 S
C843 C844 1.355 . S
C843 C845 1.415 . S
C844 C843 1.355 . S
C844 C846 1.419 . S
C845 C840 1.425 . S
C845 C842 1.409 . S
C845 C843 1.415 . S
C846 H836 0.930 . S
C846 C844 1.419 . S
C846 C847 1.362 . S
C847 H837 0.930 . S
C847 C840 1.409 . S
C847 C846 1.362 . S
H848 C854 0.930 . S
H849 C857 0.930 . S
H850 C858 0.930 . S
H851 C859 0.930 . S
H852 C862 0.930 . S
H853 C863 0.930 . S
C854 H848 0.930 . S
C854 C855 1.355 . S
C854 C856 1.415 . S
C855 C854 1.355 . S
C855 C857 1.419 . S
C856 C854 1.415 . S
C856 C861 1.425 . S
C856 C863 1.409 . S
C857 H849 0.930 . S
C857 C855 1.419 . S
C857 C858 1.362 . S
C858 H850 0.930 . S
C858 C857 1.362 . S
C858 C861 1.409 . S
C859 H851 0.930 . S
C859 C860 1.355 . S
C859 C861 1.415 . S
C860 C859 1.355 . S
C860 C862 1.419 . S
C861 C856 1.425 . S
C861 C858 1.409 . S
C861 C859 1.415 . S
C862 H852 0.930 . S
C862 C860 1.419 . S
C862 C863 1.362 . S
C863 H853 0.930 . S
C863 C856 1.409 . S
C863 C862 1.362 . S
H864 C870 0.930 . S
H865 C873 0.930 . S
H866 C874 0.930 . S
H867 C875 0.930 . S
H868 C878 0.930 . S
H869 C879 0.930 . S
C870 H864 0.930 . S
C870 C871 1.355 . S
C870 C872 1.415 . S
C871 C870 1.355 . S
C871 C873 1.419 . S
C872 C870 1.415 . S
C872 C877 1.425 . S
C872 C879 1.409 . S
C873 H865 0.930 . S
C873 C871 1.419 . S
C873 C874 1.362 . S
C874 H866 0.930 . S
C874 C873 1.362 . S
C874 C877 1.409 . S
C875 H867 0.930 . S
C875 C876 1.355 . S
C875 C877 1.415 . S
C876 C875 1.355 . S
C876 C878 1.419 . S
C877 C872 1.425 . S
C877 C874 1.409 . S
C877 C875 1.415 . S
C878 H868 0.930 . S
C878 C876 1.419 . S
C878 C879 1.362 . S
C879 H869 0.930 . S
C879 C872 1.409 . S
C879 C878 1.362 . S
H880 C886 0.930 . S
H881 C889 0.930 . S
H882 C890 0.930 . S
H883 C891 0.930 . S
H884 C894 0.930 . S
H885 C895 0.930 . S
C886 H880 0.930 . S
C886 C887 1.355 . S
C886 C888 1.415 . S
C887 C886 1.355 . S
C887 C889 1.419 . S
C888 C886 1.415 . S
C888 C893 1.425 . S
C888 C895 1.409 . S
C889 H881 0.930 . S
C889 C887 1.419 . S
C889 C890 1.362 . S
C890 H882 0.930 . S
C890 C889 1.362 . S
C890 C893 1.409 . S
C891 H883 0.930 . S
C891 C892 1.355 . S
C891 C893 1.415 . S
C892 C891 1.355 . S
C892 C894 1.419 . S
C893 C888 1.425 . S
C893 C890 1.409 . S
C893 C891 1.415 . S
C894 H884 0.930 . S
C894 C892 1.419 . S
C894 C895 1.362 . S
C895 H885 0.930 . S
C895 C888 1.409 . S
C895 C894 1.362 . S
H896 C902 0.930 . S
H897 C905 0.930 . S
H898 C906 0.930 . S
H899 C907 0.930 . S
H900 C910 0.930 . S
H901 C911 0.930 . S
C902 H896 0.930 . S
C902 C903 1.355 . S
C902 C904 1.415 . S
C903 C902 1.355 . S
C903 C905 1.419 . S
C904 C902 1.415 . S
C904 C909 1.425 . S
C904 C911 1.409 . S
C905 H897 0.930 . S
C905 C903 1.419 . S
C905 C906 1.362 . S
C906 H898 0.930 . S
C906 C905 1.362 . S
C906 C909 1.409 . S
C907 H899 0.930 . S
C907 C908 1.355 . S
C907 C909 1.415 . S
C908 C907 1.355 . S
C908 C910 1.419 . S
C909 C904 1.425 . S
C909 C906 1.409 . S
C909 C907 1.415 . S
C910 H900 0.930 . S
C910 C908 1.419 . S
C910 C911 1.362 . S
C911 H901 0.930 . S
C911 C904 1.409 . S
C911 C910 1.362 . S
H912 C918 0.930 . S
H913 C921 0.930 . S
H914 C922 0.930 . S
H915 C923 0.930 . S
H916 C926 0.930 . S
H917 C927 0.930 . S
C918 H912 0.930 . S
C918 C919 1.355 . S
C918 C920 1.415 . S
C919 C918 1.355 . S
C919 C921 1.419 . S
C920 C918 1.415 . S
C920 C925 1.425 . S
C920 C927 1.409 . S
C921 H913 0.930 . S
C921 C919 1.419 . S
C921 C922 1.362 . S
C922 H914 0.930 . S
C922 C921 1.362 . S
C922 C925 1.409 . S
C923 H915 0.930 . S
C923 C924 1.355 . S
C923 C925 1.415 . S
C924 C923 1.355 . S
C924 C926 1.419 . S
C925 C920 1.425 . S
C925 C922 1.409 . S
C925 C923 1.415 . S
C926 H916 0.930 . S
C926 C924 1.419 . S
C926 C927 1.362 . S
C927 H917 0.930 . S
C927 C920 1.409 . S
C927 C926 1.362 . S
H928 C934 0.930 . S
H929 C937 0.930 . S
H930 C938 0.930 . S
H931 C939 0.930 . S
H932 C942 0.930 . S
H933 C943 0.930 . S
C934 H928 0.930 . S
C934 C935 1.355 . S
C934 C936 1.415 . S
C935 C934 1.355 . S
C935 C937 1.419 . S
C936 C934 1.415 . S
C936 C941 1.425 . S
C936 C943 1.409 . S
C937 H929 0.930 . S
C937 C935 1.419 . S
C937 C938 1.362 . S
C938 H930 0.930 . S
C938 C937 1.362 . S
C938 C941 1.409 . S
C939 H931 0.930 . S
C939 C940 1.355 . S
C939 C941 1.415 . S
C940 C939 1.355 . S
C940 C942 1.419 . S
C941 C936 1.425 . S
C941 C938 1.409 . S
C941 C939 1.415 . S
C942 H932 0.930 . S
C942 C940 1.419 . S
C942 C943 1.362 . S
C943 H933 0.930 . S
C943 C936 1.409 . S
C943 C942 1.362 . S
H944 C950 0.930 . S
H945 C953 0.930 . S
H946 C954 0.930 . S
H947 C955 0.930 . S
H948 C958 0.930 . S
H949 C959 0.930 . S
C950 H944 0.930 . S
C950 C951 1.355 . S
C950 C952 1.415 . S
C951 C950 1.355 . S
C951 C953 1.419 . S
C952 C950 1.415 . S
C952 C957 1.425 . S
C952 C959 1.409 . S
C953 H945 0.930 . S
C953 C951 1.419 . S
C953 C954 1.362 . S
C954 H946 0.930 . S
C954 C953 1.362 . S
C954 C957 1.409 . S
C955 H947 0.930 . S
C955 C956 1.355 . S
C955 C957 1.415 . S
C956 C955 1.355 . S
C956 C958 1.419 . S
C957 C952 1.425 . S
C957 C954 1.409 . S
C957 C955 1.415 . S
C958 H948 0.930 . S
C958 C956 1.419 . S
C958 C959 1.362 . S
C959 H949 0.930 . S
C959 C952 1.409 . S
C959 C958 1.362 . S
H960 C966 0.930 . S
H961 C969 0.930 . S
H962 C970 0.930 . S
H963 C971 0.930 . S
H964 C974 0.930 . S
H965 C975 0.930 . S
C966 H960 0.930 . S
C966 C967 1.355 . S
C966 C968 1.415 . S
C967 C966 1.355 . S
C967 C969 1.419 . S
C968 C966 1.415 . S
C968 C973 1.425 . S
C968 C975 1.409 . S
C969 H961 0.930 . S
C969 C967 1.419 . S
C969 C970 1.362 . S
C970 H962 0.930 . S
C970 C969 1.362 . S
C970 C973 1.409 . S
C971 H963 0.930 . S
C971 C972 1.355 . S
C971 C973 1.415 . S
C972 C971 1.355 . S
C972 C974 1.419 . S
C973 C968 1.425 . S
C973 C970 1.409 . S
C973 C971 1.415 . S
C974 H964 0.930 . S
C974 C972 1.419 . S
C974 C975 1.362 . S
C975 H965 0.930 . S
C975 C968 1.409 . S
C975 C974 1.362 . S
H976 C982 0.930 . S
H977 C985 0.930 . S
H978 C986 0.930 . S
H979 C987 0.930 . S
H980 C990 0.930 . S
H981 C991 0.930 . S
C982 H976 0.930 . S
C982 C983 1.355 . S
C982 C984 1.415 . S
C983 C982 1.355 . S
C983 C985 1.419 . S
C984 C982 1.415 . S
C984 C989 1.425 1_455 S
C984 C991 1.409 . S
C985 H977 0.930 . S
C985 C983 1.419 . S
C985 C986 1.362 1_455 S
C986 H978 0.930 . S
C986 C985 1.362 1_655 S
C986 C989 1.409 . S
C987 H979 0.930 . S
C987 C988 1.355 . S
C987 C989 1.415 . S
C988 C987 1.355 . S
C988 C990 1.419 . S
C989 C984 1.425 1_655 S
C989 C986 1.409 . S
C989 C987 1.415 . S
C990 H980 0.930 . S
C990 C988 1.419 . S
C990 C991 1.362 1_655 S
C991 H981 0.930 . S
C991 C984 1.409 . S
C991 C990 1.362 1_455 S
H992 C998 0.930 . S
H993 C1001 0.930 . S
H994 C1002 0.930 . S
H995 C1003 0.930 . S
H996 C1006 0.930 . S
H997 C1007 0.930 . S
C998 H992 0.930 . S
C998 C999 1.355 . S
C998 C1000 1.415 . S
C999 C998 1.355 . S
C999 C1001 1.419 . S
C1000 C998 1.415 . S
C1000 C1005 1.425 . S
C1000 C1007 1.409 . S
C1001 H993 0.930 . S
C1001 C999 1.419 . S
C1001 C1002 1.362 . S
C1002 H994 0.930 . S
C1002 C1001 1.362 . S
C1002 C1005 1.409 . S
C1003 H995 0.930 . S
C1003 C1004 1.355 . S
C1003 C1005 1.415 . S
C1004 C1003 1.355 . S
C1004 C1006 1.419 . S
C1005 C1000 1.425 . S
C1005 C1002 1.409 . S
C1005 C1003 1.415 . S
C1006 H996 0.930 . S
C1006 C1004 1.419 . S
C1006 C1007 1.362 . S
C1007 H997 0.930 . S
C1007 C1000 1.409 . S
C1007 C1006 1.362 . S
H1008 C1014 0.930 . S
H1009 C1017 0.930 . S
H1010 C1018 0.930 . S
H1011 C1019 0.930 . S
H1012 C1022 0.930 . S
H1013 C1023 0.930 . S
C1014 H1008 0.930 . S
C1014 C1015 1.355 . S
C1014 C1016 1.415 . S
C1015 C1014 1.355 . S
C1015 C1017 1.419 . S
C1016 C1014 1.415 . S
C1016 C1021 1.425 . S
C1016 C1023 1.409 . S
C1017 H1009 0.930 . S
C1017 C1015 1.419 . S
C1017 C1018 1.362 . S
C1018 H1010 0.930 . S
C1018 C1017 1.362 . S
C1018 C1021 1.409 . S
C1019 H1011 0.930 . S
C1019 C1020 1.355 . S
C1019 C1021 1.415 . S
C1020 C1019 1.355 . S
C1020 C1022 1.419 . S
C1021 C1016 1.425 . S
C1021 C1018 1.409 . S
C1021 C1019 1.415 . S
C1022 H1012 0.930 . S
C1022 C1020 1.419 . S
C1022 C1023 1.362 . S
C1023 H1013 0.930 . S
C1023 C1016 1.409 . S
C1023 C1022 1.362 . S
H1024 C1030 0.930 . S
H1025 C1033 0.930 . S
H1026 C1034 0.930 . S
H1027 C1035 0.930 . S
H1028 C1038 0.930 . S
H1029 C1039 0.930 . S
C1030 H1024 0.930 . S
C1030 C1031 1.355 . S
C1030 C1032 1.415 . S
C1031 C1030 1.355 . S
C1031 C1033 1.419 . S
C1032 C1030 1.415 . S
C1032 C1037 1.425 . S
C1032 C1039 1.409 . S
C1033 H1025 0.930 . S
C1033 C1031 1.419 . S
C1033 C1034 1.362 . S
C1034 H1026 0.930 . S
C1034 C1033 1.362 . S
C1034 C1037 1.409 . S
C1035 H1027 0.930 . S
C1035 C1036 1.355 . S
C1035 C1037 1.415 . S
C1036 C1035 1.355 . S
C1036 C1038 1.419 . S
C1037 C1032 1.425 . S
C1037 C1034 1.409 . S
C1037 C1035 1.415 . S
C1038 H1028 0.930 . S
C1038 C1036 1.419 . S
C1038 C1039 1.362 . S
C1039 H1029 0.930 . S
C1039 C1032 1.409 . S
C1039 C1038 1.362 . S
H1040 C1046 0.930 . S
H1041 C1049 0.930 . S
H1042 C1050 0.930 . S
H1043 C1051 0.930 . S
H1044 C1054 0.930 . S
H1045 C1055 0.930 . S
C1046 H1040 0.930 . S
C1046 C1047 1.355 . S
C1046 C1048 1.415 . S
C1047 C1046 1.355 . S
C1047 C1049 1.419 . S
C1048 C1046 1.415 . S
C1048 C1053 1.425 . S
C1048 C1055 1.409 . S
C1049 H1041 0.930 . S
C1049 C1047 1.419 . S
C1049 C1050 1.362 . S
C1050 H1042 0.930 . S
C1050 C1049 1.362 . S
C1050 C1053 1.409 . S
C1051 H1043 0.930 . S
C1051 C1052 1.355 . S
C1051 C1053 1.415 . S
C1052 C1051 1.355 . S
C1052 C1054 1.419 . S
C1053 C1048 1.425 . S
C1053 C1050 1.409 . S
C1053 C1051 1.415 . S
C1054 H1044 0.930 . S
C1054 C1052 1.419 . S
C1054 C1055 1.362 . S
C1055 H1045 0.930 . S
C1055 C1048 1.409 . S
C1055 C1054 1.362 . S
H1056 C1062 0.930 . S
H1057 C1065 0.930 . S
H1058 C1066 0.930 . S
H1059 C1067 0.930 . S
H1060 C1070 0.930 . S
H1061 C1071 0.930 . S
C1062 H1056 0.930 . S
C1062 C1063 1.355 . S
C1062 C1064 1.415 . S
C1063 C1062 1.355 . S
C1063 C1065 1.419 1_565 S
C1064 C1062 1.415 . S
C1064 C1069 1.425 1_565 S
C1064 C1071 1.409 . S
C1065 H1057 0.930 . S
C1065 C1063 1.419 1_545 S
C1065 C1066 1.362 . S
C1066 H1058 0.930 . S
C1066 C1065 1.362 . S
C1066 C1069 1.409 . S
C1067 H1059 0.930 . S
C1067 C1068 1.355 . S
C1067 C1069 1.415 . S
C1068 C1067 1.355 . S
C1068 C1070 1.419 1_545 S
C1069 C1064 1.425 1_545 S
C1069 C1066 1.409 . S
C1069 C1067 1.415 . S
C1070 H1060 0.930 . S
C1070 C1068 1.419 1_565 S
C1070 C1071 1.362 . S
C1071 H1061 0.930 . S
C1071 C1064 1.409 . S
C1071 C1070 1.362 . S
H1072 C1078 0.930 . S
H1073 C1081 0.930 . S
H1074 C1082 0.926 1_556 S
H1075 C1083 0.930 . S
H1076 C1086 0.930 . S
H1077 C1087 0.930 . S
C1078 H1072 0.930 . S
C1078 C1079 1.355 . S
C1078 C1080 1.415 . S
C1079 C1078 1.355 . S
C1079 C1081 1.419 1_554 S
C1080 C1078 1.415 . S
C1080 C1085 1.425 . S
C1080 C1087 1.409 . S
C1081 H1073 0.930 . S
C1081 C1079 1.419 1_556 S
C1081 C1082 1.359 1_556 S
C1082 H1074 0.926 1_554 S
C1082 C1081 1.359 1_554 S
C1082 C1085 1.417 . S
C1083 H1075 0.930 . S
C1083 C1084 1.355 . S
C1083 C1085 1.415 . S
C1084 C1083 1.355 . S
C1084 C1086 1.419 . S
C1085 C1080 1.425 . S
C1085 C1082 1.417 . S
C1085 C1083 1.415 . S
C1086 H1076 0.930 . S
C1086 C1084 1.419 . S
C1086 C1087 1.362 . S
C1087 H1077 0.930 . S
C1087 C1080 1.409 . S
C1087 C1086 1.362 . S
H1088 C1094 0.930 . S
H1089 C1097 0.930 . S
H1090 C1098 0.930 . S
H1091 C1099 0.930 . S
H1092 C1102 0.930 . S
H1093 C1103 0.930 . S
C1094 H1088 0.930 . S
C1094 C1095 1.355 . S
C1094 C1096 1.415 . S
C1095 C1094 1.355 . S
C1095 C1097 1.419 . S
C1096 C1094 1.415 . S
C1096 C1101 1.425 . S
C1096 C1103 1.409 . S
C1097 H1089 0.930 . S
C1097 C1095 1.419 . S
C1097 C1098 1.362 . S
C1098 H1090 0.930 . S
C1098 C1097 1.362 . S
C1098 C1101 1.409 . S
C1099 H1091 0.930 . S
C1099 C1100 1.355 . S
C1099 C1101 1.415 . S
C1100 C1099 1.355 . S
C1100 C1102 1.419 . S
C1101 C1096 1.425 . S
C1101 C1098 1.409 . S
C1101 C1099 1.415 . S
C1102 H1092 0.930 . S
C1102 C1100 1.419 . S
C1102 C1103 1.362 . S
C1103 H1093 0.930 . S
C1103 C1096 1.409 . S
C1103 C1102 1.362 . S
H1104 C1110 0.930 . S
H1105 C1113 0.930 . S
H1106 C1114 0.930 . S
H1107 C1115 0.930 . S
H1108 C1118 0.930 . S
H1109 C1119 0.930 . S
C1110 H1104 0.930 . S
C1110 C1111 1.355 . S
C1110 C1112 1.415 . S
C1111 C1110 1.355 . S
C1111 C1113 1.419 . S
C1112 C1110 1.415 . S
C1112 C1117 1.425 . S
C1112 C1119 1.409 . S
C1113 H1105 0.930 . S
C1113 C1111 1.419 . S
C1113 C1114 1.362 . S
C1114 H1106 0.930 . S
C1114 C1113 1.362 . S
C1114 C1117 1.409 . S
C1115 H1107 0.930 . S
C1115 C1116 1.355 . S
C1115 C1117 1.415 . S
C1116 C1115 1.355 . S
C1116 C1118 1.419 . S
C1117 C1112 1.425 . S
C1117 C1114 1.409 . S
C1117 C1115 1.415 . S
C1118 H1108 0.930 . S
C1118 C1116 1.419 . S
C1118 C1119 1.362 . S
C1119 H1109 0.930 . S
C1119 C1112 1.409 . S
C1119 C1118 1.362 . S
H1120 C1126 0.930 . S
H1121 C1129 0.930 . S
H1122 C1130 0.930 . S
H1123 C1131 0.930 . S
H1124 C1134 0.930 . S
H1125 C1135 0.930 . S
C1126 H1120 0.930 . S
C1126 C1127 1.355 . S
C1126 C1128 1.415 . S
C1127 C1126 1.355 . S
C1127 C1129 1.419 . S
C1128 C1126 1.415 . S
C1128 C1133 1.425 . S
C1128 C1135 1.409 . S
C1129 H1121 0.930 . S
C1129 C1127 1.419 . S
C1129 C1130 1.362 . S
C1130 H1122 0.930 . S
C1130 C1129 1.362 . S
C1130 C1133 1.409 . S
C1131 H1123 0.930 . S
C1131 C1132 1.355 . S
C1131 C1133 1.415 . S
C1132 C1131 1.355 . S
C1132 C1134 1.419 . S
C1133 C1128 1.425 . S
C1133 C1130 1.409 . S
C1133 C1131 1.415 . S
C1134 H1124 0.930 . S
C1134 C1132 1.419 . S
C1134 C1135 1.362 . S
C1135 H1125 0.930 . S
C1135 C1128 1.409 . S
C1135 C1134 1.362 . S
H1136 C1142 0.930 . S
H1137 C1145 0.930 . S
H1138 C1146 0.930 . S
H1139 C1147 0.930 . S
H1140 C1150 0.930 . S
H1141 C1151 0.930 . S
C1142 H1136 0.930 . S
C1142 C1143 1.355 . S
C1142 C1144 1.415 . S
C1143 C1142 1.355 . S
C1143 C1145 1.419 . S
C1144 C1142 1.415 . S
C1144 C1149 1.425 . S
C1144 C1151 1.409 . S
C1145 H1137 0.930 . S
C1145 C1143 1.419 . S
C1145 C1146 1.362 . S
C1146 H1138 0.930 . S
C1146 C1145 1.362 . S
C1146 C1149 1.409 . S
C1147 H1139 0.930 . S
C1147 C1148 1.355 . S
C1147 C1149 1.415 . S
C1148 C1147 1.355 . S
C1148 C1150 1.419 . S
C1149 C1144 1.425 . S
C1149 C1146 1.409 . S
C1149 C1147 1.415 . S
C1150 H1140 0.930 . S
C1150 C1148 1.419 . S
C1150 C1151 1.362 . S
C1151 H1141 0.930 . S
C1151 C1144 1.409 . S
C1151 C1150 1.362 . S
H1152 C1158 0.930 . S
H1153 C1161 0.930 . S
H1154 C1162 0.930 . S
H1155 C1163 0.930 . S
H1156 C1166 0.930 . S
H1157 C1167 0.930 . S
C1158 H1152 0.930 . S
C1158 C1159 1.355 . S
C1158 C1160 1.415 . S
C1159 C1158 1.355 . S
C1159 C1161 1.419 . S
C1160 C1158 1.415 . S
C1160 C1165 1.425 . S
C1160 C1167 1.409 . S
C1161 H1153 0.930 . S
C1161 C1159 1.419 . S
C1161 C1162 1.362 . S
C1162 H1154 0.930 . S
C1162 C1161 1.362 . S
C1162 C1165 1.409 . S
C1163 H1155 0.930 . S
C1163 C1164 1.355 . S
C1163 C1165 1.415 . S
C1164 C1163 1.355 . S
C1164 C1166 1.419 . S
C1165 C1160 1.425 . S
C1165 C1162 1.409 . S
C1165 C1163 1.415 . S
C1166 H1156 0.930 . S
C1166 C1164 1.419 . S
C1166 C1167 1.362 . S
C1167 H1157 0.930 . S
C1167 C1160 1.409 . S
C1167 C1166 1.362 . S
H1168 C1174 0.930 . S
H1169 C1177 0.930 . S
H1170 C1178 0.930 . S
H1171 C1179 0.930 . S
H1172 C1182 0.930 . S
H1173 C1183 0.930 . S
C1174 H1168 0.930 . S
C1174 C1175 1.355 . S
C1174 C1176 1.415 . S
C1175 C1174 1.355 . S
C1175 C1177 1.419 . S
C1176 C1174 1.415 . S
C1176 C1181 1.425 . S
C1176 C1183 1.409 . S
C1177 H1169 0.930 . S
C1177 C1175 1.419 . S
C1177 C1178 1.362 . S
C1178 H1170 0.930 . S
C1178 C1177 1.362 . S
C1178 C1181 1.409 . S
C1179 H1171 0.930 . S
C1179 C1180 1.355 . S
C1179 C1181 1.415 . S
C1180 C1179 1.355 . S
C1180 C1182 1.419 . S
C1181 C1176 1.425 . S
C1181 C1178 1.409 . S
C1181 C1179 1.415 . S
C1182 H1172 0.930 . S
C1182 C1180 1.419 . S
C1182 C1183 1.362 . S
C1183 H1173 0.930 . S
C1183 C1176 1.409 . S
C1183 C1182 1.362 . S
H1184 C1190 0.930 . S
H1185 C1193 0.930 . S
H1186 C1194 0.930 . S
H1187 C1195 0.930 . S
H1188 C1198 0.930 . S
H1189 C1199 0.930 . S
C1190 H1184 0.930 . S
C1190 C1191 1.355 . S
C1190 C1192 1.415 . S
C1191 C1190 1.355 . S
C1191 C1193 1.419 . S
C1192 C1190 1.415 . S
C1192 C1197 1.425 . S
C1192 C1199 1.409 . S
C1193 H1185 0.930 . S
C1193 C1191 1.419 . S
C1193 C1194 1.362 . S
C1194 H1186 0.930 . S
C1194 C1193 1.362 . S
C1194 C1197 1.409 . S
C1195 H1187 0.930 . S
C1195 C1196 1.355 . S
C1195 C1197 1.415 . S
C1196 C1195 1.355 . S
C1196 C1198 1.419 . S
C1197 C1192 1.425 . S
C1197 C1194 1.409 . S
C1197 C1195 1.415 . S
C1198 H1188 0.930 . S
C1198 C1196 1.419 . S
C1198 C1199 1.362 . S
C1199 H1189 0.930 . S
C1199 C1192 1.409 . S
C1199 C1198 1.362 . S
H1200 C1206 0.930 . S
H1201 C1209 0.930 . S
H1202 C1210 0.930 . S
H1203 C1211 0.930 . S
H1204 C1214 0.930 . S
H1205 C1215 0.930 . S
C1206 H1200 0.930 . S
C1206 C1207 1.355 . S
C1206 C1208 1.415 . S
C1207 C1206 1.355 . S
C1207 C1209 1.419 . S
C1208 C1206 1.415 . S
C1208 C1213 1.425 . S
C1208 C1215 1.409 . S
C1209 H1201 0.930 . S
C1209 C1207 1.419 . S
C1209 C1210 1.362 . S
C1210 H1202 0.930 . S
C1210 C1209 1.362 . S
C1210 C1213 1.409 . S
C1211 H1203 0.930 . S
C1211 C1212 1.355 . S
C1211 C1213 1.415 . S
C1212 C1211 1.355 . S
C1212 C1214 1.419 . S
C1213 C1208 1.425 . S
C1213 C1210 1.409 . S
C1213 C1211 1.415 . S
C1214 H1204 0.930 . S
C1214 C1212 1.419 . S
C1214 C1215 1.362 . S
C1215 H1205 0.930 . S
C1215 C1208 1.409 . S
C1215 C1214 1.362 . S
H1216 C1222 0.930 . S
H1217 C1225 0.930 . S
H1218 C1226 0.930 . S
H1219 C1227 0.930 . S
H1220 C1230 0.930 . S
H1221 C1231 0.930 . S
C1222 H1216 0.930 . S
C1222 C1223 1.355 . S
C1222 C1224 1.415 . S
C1223 C1222 1.355 . S
C1223 C1225 1.419 . S
C1224 C1222 1.415 . S
C1224 C1229 1.425 . S
C1224 C1231 1.409 . S
C1225 H1217 0.930 . S
C1225 C1223 1.419 . S
C1225 C1226 1.362 . S
C1226 H1218 0.930 . S
C1226 C1225 1.362 . S
C1226 C1229 1.409 . S
C1227 H1219 0.930 . S
C1227 C1228 1.355 . S
C1227 C1229 1.415 . S
C1228 C1227 1.355 . S
C1228 C1230 1.419 . S
C1229 C1224 1.425 . S
C1229 C1226 1.409 . S
C1229 C1227 1.415 . S
C1230 H1220 0.930 . S
C1230 C1228 1.419 . S
C1230 C1231 1.362 . S
C1231 H1221 0.930 . S
C1231 C1224 1.409 . S
C1231 C1230 1.362 . S
H1232 C1238 0.930 . S
H1233 C1241 0.930 . S
H1234 C1242 0.930 1_556 S
H1235 C1243 0.930 1_556 S
H1236 C1246 0.930 . S
H1237 C1247 0.930 . S
C1238 H1232 0.930 . S
C1238 C1239 1.355 . S
C1238 C1240 1.415 . S
C1239 C1238 1.355 . S
C1239 C1241 1.419 . S
C1240 C1238 1.415 . S
C1240 C1245 1.425 . S
C1240 C1247 1.409 . S
C1241 H1233 0.930 . S
C1241 C1239 1.419 . S
C1241 C1242 1.362 . S
C1242 H1234 0.930 1_554 S
C1242 C1241 1.362 . S
C1242 C1245 1.409 . S
C1243 H1235 0.930 1_554 S
C1243 C1244 1.355 . S
C1243 C1245 1.415 . S
C1244 C1243 1.355 . S
C1244 C1246 1.419 . S
C1245 C1240 1.425 . S
C1245 C1242 1.409 . S
C1245 C1243 1.415 . S
C1246 H1236 0.930 . S
C1246 C1244 1.419 . S
C1246 C1247 1.362 . S
C1247 H1237 0.930 . S
C1247 C1240 1.409 . S
C1247 C1246 1.362 . S
H1248 C1254 0.930 . S
H1249 C1257 0.930 . S
H1250 C1258 0.930 . S
H1251 C1259 0.930 . S
H1252 C1262 0.930 . S
H1253 C1263 0.930 . S
C1254 H1248 0.930 . S
C1254 C1255 1.355 . S
C1254 C1256 1.415 . S
C1255 C1254 1.355 . S
C1255 C1257 1.419 . S
C1256 C1254 1.415 . S
C1256 C1261 1.425 . S
C1256 C1263 1.409 . S
C1257 H1249 0.930 . S
C1257 C1255 1.419 . S
C1257 C1258 1.362 . S
C1258 H1250 0.930 . S
C1258 C1257 1.362 . S
C1258 C1261 1.409 . S
C1259 H1251 0.930 . S
C1259 C1260 1.355 . S
C1259 C1261 1.415 . S
C1260 C1259 1.355 . S
C1260 C1262 1.419 . S
C1261 C1256 1.425 . S
C1261 C1258 1.409 . S
C1261 C1259 1.415 . S
C1262 H1252 0.930 . S
C1262 C1260 1.419 . S
C1262 C1263 1.362 . S
C1263 H1253 0.930 . S
C1263 C1256 1.409 . S
C1263 C1262 1.362 . S
H1264 C1270 0.930 . S
H1265 C1273 0.930 . S
H1266 C1274 0.930 . S
H1267 C1275 0.930 . S
H1268 C1278 0.930 . S
H1269 C1279 0.930 . S
C1270 H1264 0.930 . S
C1270 C1271 1.355 . S
C1270 C1272 1.415 . S
C1271 C1270 1.355 . S
C1271 C1273 1.419 . S
C1272 C1270 1.415 . S
C1272 C1277 1.425 . S
C1272 C1279 1.409 . S
C1273 H1265 0.930 . S
C1273 C1271 1.419 . S
C1273 C1274 1.362 . S
C1274 H1266 0.930 . S
C1274 C1273 1.362 . S
C1274 C1277 1.409 . S
C1275 H1267 0.930 . S
C1275 C1276 1.355 . S
C1275 C1277 1.415 . S
C1276 C1275 1.355 . S
C1276 C1278 1.419 . S
C1277 C1272 1.425 . S
C1277 C1274 1.409 . S
C1277 C1275 1.415 . S
C1278 H1268 0.930 . S
C1278 C1276 1.419 . S
C1278 C1279 1.362 . S
C1279 H1269 0.930 . S
C1279 C1272 1.409 . S
C1279 C1278 1.362 . S
H1280 C1286 0.930 . S
H1281 C1289 0.930 . S
H1282 C1290 0.930 . S
H1283 C1291 0.930 . S
H1284 C1294 0.930 . S
H1285 C1295 0.930 . S
C1286 H1280 0.930 . S
C1286 C1287 1.355 . S
C1286 C1288 1.415 . S
C1287 C1286 1.355 . S
C1287 C1289 1.419 . S
C1288 C1286 1.415 . S
C1288 C1293 1.425 . S
C1288 C1295 1.409 . S
C1289 H1281 0.930 . S
C1289 C1287 1.419 . S
C1289 C1290 1.362 . S
C1290 H1282 0.930 . S
C1290 C1289 1.362 . S
C1290 C1293 1.409 . S
C1291 H1283 0.930 . S
C1291 C1292 1.355 . S
C1291 C1293 1.415 . S
C1292 C1291 1.355 . S
C1292 C1294 1.419 . S
C1293 C1288 1.425 . S
C1293 C1290 1.409 . S
C1293 C1291 1.415 . S
C1294 H1284 0.930 . S
C1294 C1292 1.419 . S
C1294 C1295 1.362 . S
C1295 H1285 0.930 . S
C1295 C1288 1.409 . S
C1295 C1294 1.362 . S
H1296 C1302 0.930 . S
H1297 C1305 0.930 . S
H1298 C1306 0.930 . S
H1299 C1307 0.930 . S
H1300 C1310 0.930 . S
H1301 C1311 0.930 . S
C1302 H1296 0.930 . S
C1302 C1303 1.355 . S
C1302 C1304 1.415 . S
C1303 C1302 1.355 . S
C1303 C1305 1.419 . S
C1304 C1302 1.415 . S
C1304 C1309 1.425 . S
C1304 C1311 1.409 . S
C1305 H1297 0.930 . S
C1305 C1303 1.419 . S
C1305 C1306 1.362 . S
C1306 H1298 0.930 . S
C1306 C1305 1.362 . S
C1306 C1309 1.409 . S
C1307 H1299 0.930 . S
C1307 C1308 1.355 . S
C1307 C1309 1.415 . S
C1308 C1307 1.355 . S
C1308 C1310 1.419 . S
C1309 C1304 1.425 . S
C1309 C1306 1.409 . S
C1309 C1307 1.415 . S
C1310 H1300 0.930 . S
C1310 C1308 1.419 . S
C1310 C1311 1.362 . S
C1311 H1301 0.930 . S
C1311 C1304 1.409 . S
C1311 C1310 1.362 . S
H1312 C1318 0.930 . S
H1313 C1321 0.912 1_554 S
H1314 C1322 0.930 1_554 S
H1315 C1323 0.930 . S
H1316 C1326 0.930 . S
H1317 C1327 0.930 . S
C1318 H1312 0.930 . S
C1318 C1319 1.355 . S
C1318 C1320 1.415 . S
C1319 C1318 1.355 . S
C1319 C1321 1.430 . S
C1320 C1318 1.415 . S
C1320 C1325 1.425 . S
C1320 C1327 1.409 . S
C1321 H1313 0.912 1_556 S
C1321 C1319 1.430 . S
C1321 C1322 1.370 . S
C1322 H1314 0.930 1_556 S
C1322 C1321 1.370 . S
C1322 C1325 1.409 . S
C1323 H1315 0.930 . S
C1323 C1324 1.355 . S
C1323 C1325 1.415 . S
C1324 C1323 1.355 . S
C1324 C1326 1.419 . S
C1325 C1320 1.425 . S
C1325 C1322 1.409 . S
C1325 C1323 1.415 . S
C1326 H1316 0.930 . S
C1326 C1324 1.419 . S
C1326 C1327 1.362 . S
C1327 H1317 0.930 . S
C1327 C1320 1.409 . S
C1327 C1326 1.362 . S
H1328 C1334 0.930 . S
H1329 C1337 0.930 . S
H1330 C1338 0.930 . S
H1331 C1339 0.930 . S
H1332 C1342 0.930 . S
H1333 C1343 0.930 . S
C1334 H1328 0.930 . S
C1334 C1335 1.355 . S
C1334 C1336 1.415 . S
C1335 C1334 1.355 . S
C1335 C1337 1.419 . S
C1336 C1334 1.415 . S
C1336 C1341 1.425 . S
C1336 C1343 1.409 . S
C1337 H1329 0.930 . S
C1337 C1335 1.419 . S
C1337 C1338 1.362 . S
C1338 H1330 0.930 . S
C1338 C1337 1.362 . S
C1338 C1341 1.409 . S
C1339 H1331 0.930 . S
C1339 C1340 1.355 . S
C1339 C1341 1.415 . S
C1340 C1339 1.355 . S
C1340 C1342 1.419 . S
C1341 C1336 1.425 . S
C1341 C1338 1.409 . S
C1341 C1339 1.415 . S
C1342 H1332 0.930 . S
C1342 C1340 1.419 . S
C1342 C1343 1.362 . S
C1343 H1333 0.930 . S
C1343 C1336 1.409 . S
C1343 C1342 1.362 . S
H1344 C1350 0.930 . S
H1345 C1353 0.930 . S
H1346 C1354 0.930 . S
H1347 C1355 0.930 . S
H1348 C1358 0.930 . S
H1349 C1359 0.930 . S
C1350 H1344 0.930 . S
C1350 C1351 1.355 . S
C1350 C1352 1.415 . S
C1351 C1350 1.355 . S
C1351 C1353 1.419 . S
C1352 C1350 1.415 . S
C1352 C1357 1.425 . S
C1352 C1359 1.409 . S
C1353 H1345 0.930 . S
C1353 C1351 1.419 . S
C1353 C1354 1.362 . S
C1354 H1346 0.930 . S
C1354 C1353 1.362 . S
C1354 C1357 1.409 . S
C1355 H1347 0.930 . S
C1355 C1356 1.355 . S
C1355 C1357 1.415 . S
C1356 C1355 1.355 . S
C1356 C1358 1.419 . S
C1357 C1352 1.425 . S
C1357 C1354 1.409 . S
C1357 C1355 1.415 . S
C1358 H1348 0.930 . S
C1358 C1356 1.419 . S
C1358 C1359 1.362 . S
C1359 H1349 0.930 . S
C1359 C1352 1.409 . S
C1359 C1358 1.362 . S
H1360 C1366 0.930 . S
H1361 C1369 0.930 . S
H1362 C1370 0.930 . S
H1363 C1371 0.930 . S
H1364 C1374 0.930 . S
H1365 C1375 0.930 . S
C1366 H1360 0.930 . S
C1366 C1367 1.355 . S
C1366 C1368 1.415 . S
C1367 C1366 1.355 . S
C1367 C1369 1.419 . S
C1368 C1366 1.415 . S
C1368 C1373 1.425 . S
C1368 C1375 1.409 . S
C1369 H1361 0.930 . S
C1369 C1367 1.419 . S
C1369 C1370 1.362 . S
C1370 H1362 0.930 . S
C1370 C1369 1.362 . S
C1370 C1373 1.409 . S
C1371 H1363 0.930 . S
C1371 C1372 1.355 . S
C1371 C1373 1.415 . S
C1372 C1371 1.355 . S
C1372 C1374 1.419 . S
C1373 C1368 1.425 . S
C1373 C1370 1.409 . S
C1373 C1371 1.415 . S
C1374 H1364 0.930 . S
C1374 C1372 1.419 . S
C1374 C1375 1.362 . S
C1375 H1365 0.930 . S
C1375 C1368 1.409 . S
C1375 C1374 1.362 . S
H1376 C1382 0.930 . S
H1377 C1385 0.930 . S
H1378 C1386 0.930 . S
H1379 C1387 0.930 . S
H1380 C1390 0.930 . S
H1381 C1391 0.930 . S
C1382 H1376 0.930 . S
C1382 C1383 1.355 . S
C1382 C1384 1.415 . S
C1383 C1382 1.355 . S
C1383 C1385 1.419 . S
C1384 C1382 1.415 . S
C1384 C1389 1.425 . S
C1384 C1391 1.409 . S
C1385 H1377 0.930 . S
C1385 C1383 1.419 . S
C1385 C1386 1.362 . S
C1386 H1378 0.930 . S
C1386 C1385 1.362 . S
C1386 C1389 1.409 . S
C1387 H1379 0.930 . S
C1387 C1388 1.355 . S
C1387 C1389 1.415 . S
C1388 C1387 1.355 . S
C1388 C1390 1.419 . S
C1389 C1384 1.425 . S
C1389 C1386 1.409 . S
C1389 C1387 1.415 . S
C1390 H1380 0.930 . S
C1390 C1388 1.419 . S
C1390 C1391 1.362 . S
C1391 H1381 0.930 . S
C1391 C1384 1.409 . S
C1391 C1390 1.362 . S
H1392 C1398 0.930 . S
H1393 C1401 0.930 1_556 S
H1394 C1402 0.932 . S
H1395 C1403 0.930 . S
H1396 C1406 0.930 . S
H1397 C1407 0.930 . S
C1398 H1392 0.930 . S
C1398 C1399 1.355 . S
C1398 C1400 1.415 . S
C1399 C1398 1.355 . S
C1399 C1401 1.419 . S
C1400 C1398 1.415 . S
C1400 C1405 1.425 . S
C1400 C1407 1.409 . S
C1401 H1393 0.930 1_554 S
C1401 C1399 1.419 . S
C1401 C1402 1.363 1_554 S
C1402 H1394 0.932 . S
C1402 C1401 1.363 1_556 S
C1402 C1405 1.407 1_556 S
C1403 H1395 0.930 . S
C1403 C1404 1.355 . S
C1403 C1405 1.415 . S
C1404 C1403 1.355 . S
C1404 C1406 1.419 . S
C1405 C1400 1.425 . S
C1405 C1402 1.407 1_554 S
C1405 C1403 1.415 . S
C1406 H1396 0.930 . S
C1406 C1404 1.419 . S
C1406 C1407 1.362 . S
C1407 H1397 0.930 . S
C1407 C1400 1.409 . S
C1407 C1406 1.362 . S
C647 C9 1.587 . S
C652 C45 1.531 . S
C663 C88 1.717 . S
C668 C59 1.643 . S
C679 C138 2.082 . S
C684 C89 2.185 . S
C695 C8 0.903 . S
C700 C135 0.951 . S
C711 C18 0.895 . S
C716 C365 0.968 . S
C727 C299 1.527 . S
C732 C55 1.437 . S
C743 C98 1.722 . S
C748 C409 1.646 . S
C759 C128 2.084 . S
C764 C539 2.186 . S
C775 C338 1.688 . S
C780 C49 1.699 . S
C791 C488 2.080 . S
C796 C99 2.187 . S
C807 C578 0.913 . S
C812 C125 1.002 . S
C823 C19 1.556 . S
C828 C455 1.494 . S
C839 C5 0.433 . S
C844 C325 0.401 . S
C855 C489 2.180 . S
C860 C178 2.122 . S
C871 C215 0.544 . S
C876 C575 0.570 . S
C887 C458 2.122 . S
C892 C249 2.179 . S
C903 C95 0.517 . S
C908 C295 0.634 . S
C919 C379 2.152 . S
C924 C168 2.152 . S
C935 C259 2.157 . S
C940 C408 2.165 . S
C951 C218 1.710 . S
C956 C449 1.709 . S
C967 C368 2.064 . S
C972 C219 2.188 . S
C983 C445 1.522 . S
C988 C289 1.578 . S
C999 C208 1.690 . S
C1004 C179 1.647 . S
C1015 C378 2.067 . S
C1020 C329 2.184 . S
C1031 C528 1.726 . S
C1036 C459 1.652 . S
C1047 C258 2.039 . S
C1052 C209 2.183 . S
C1063 C375 0.955 . S
C1068 C568 0.897 . S
C1079 C535 0.558 . S
C1084 C15 0.666 . S
C1095 C85 0.366 . S
C1100 C565 0.421 . S
C1111 C499 2.152 . S
C1116 C48 2.161 . S
C1127 C285 0.567 . S
C1132 C205 0.446 . S
C1143 C129 2.165 . S
C1148 C418 2.162 . S
C1159 C498 2.062 . S
C1164 C529 2.183 . S
C1175 C288 1.059 . S
C1180 C495 1.091 . S
C1191 C245 1.010 . S
C1196 C298 0.920 . S
C1207 C169 1.673 . S
C1212 C538 1.680 . S
C1223 C485 1.021 . S
C1228 C618 0.931 . S
C1239 C615 0.550 . S
C1244 C335 0.528 . S
C1255 C58 2.132 . S
C1260 C369 2.184 . S
C1271 C339 2.188 . S
C1276 C248 2.064 . S
C1287 C328 1.715 . S
C1292 C419 1.708 . S
C1303 C608 1.066 . S
C1308 C255 1.086 . S
C1319 C525 0.427 . S
C1324 C605 0.547 . S
C1335 C448 2.123 . S
C1340 C139 2.182 . S
C1351 C405 1.508 . S
C1356 C569 1.567 . S
C1367 C415 1.519 . S
C1372 C619 1.585 . S
C1383 C175 1.531 . S
C1388 C579 1.589 . S
C1399 C609 1.519 . S
C1404 C165 1.429 . S
