# Generated by pormake.
# Topology qtz-e, (6)-cn, num edge types: 1
# Building blocks:
#     Node 0, Type 0, BuildingBlock: LEVNOQ01_clean_sbu_1, # of connection points: 6
#     Node 1, Type 0, BuildingBlock: LEVNOQ01_clean_sbu_1, # of connection points: 6
#     Node 2, Type 0, BuildingBlock: LEVNOQ01_clean_sbu_1, # of connection points: 6
#     Node 3, Type 0, BuildingBlock: LEVNOQ01_clean_sbu_1, # of connection points: 6
#     Node 4, Type 0, BuildingBlock: LEVNOQ01_clean_sbu_1, # of connection points: 6
#     Node 5, Type 0, BuildingBlock: LEVNOQ01_clean_sbu_1, # of connection points: 6
#     Edge 6, Type (0, 0), BuildingBlock: FUNLAD_clean_linker_1, # of connection points: 2
#     Edge 7, Type (0, 0), BuildingBlock: FUNLAD_clean_linker_1, # of connection points: 2
#     Edge 8, Type (0, 0), BuildingBlock: FUNLAD_clean_linker_1, # of connection points: 2
#     Edge 9, Type (0, 0), BuildingBlock: FUNLAD_clean_linker_1, # of connection points: 2
#     Edge 10, Type (0, 0), BuildingBlock: FUNLAD_clean_linker_1, # of connection points: 2
#     Edge 11, Type (0, 0), BuildingBlock: FUNLAD_clean_linker_1, # of connection points: 2
#     Edge 12, Type (0, 0), BuildingBlock: FUNLAD_clean_linker_1, # of connection points: 2
#     Edge 13, Type (0, 0), BuildingBlock: FUNLAD_clean_linker_1, # of connection points: 2
#     Edge 14, Type (0, 0), BuildingBlock: FUNLAD_clean_linker_1, # of connection points: 2
#     Edge 15, Type (0, 0), BuildingBlock: FUNLAD_clean_linker_1, # of connection points: 2
#     Edge 16, Type (0, 0), BuildingBlock: FUNLAD_clean_linker_1, # of connection points: 2
#     Edge 17, Type (0, 0), BuildingBlock: FUNLAD_clean_linker_1, # of connection points: 2
#     Edge 18, Type (0, 0), BuildingBlock: FUNLAD_clean_linker_1, # of connection points: 2
#     Edge 19, Type (0, 0), BuildingBlock: FUNLAD_clean_linker_1, # of connection points: 2
#     Edge 20, Type (0, 0), BuildingBlock: FUNLAD_clean_linker_1, # of connection points: 2
#     Edge 21, Type (0, 0), BuildingBlock: FUNLAD_clean_linker_1, # of connection points: 2
#     Edge 22, Type (0, 0), BuildingBlock: FUNLAD_clean_linker_1, # of connection points: 2
#     Edge 23, Type (0, 0), BuildingBlock: FUNLAD_clean_linker_1, # of connection points: 2
# Relax obj value: 0.330
# Max RMSD: 0.227
# Mean RMSD: 0.227
data_MOF--net-qtz-e--node1-LEVNOQ01_clean_sbu_1--edge1-FUNLAD_clean_linker_1
_symmetry_space_group_name_H-M    P1
_symmetry_Int_Tables_number       1
_symmetry_cell_setting            triclinic
loop_
_symmetry_equiv_pos_as_xyz
'x, y, z'
_cell_length_a     29.695404
_cell_length_b     29.955117
_cell_length_c     33.07358
_cell_angle_alpha  90.384013
_cell_angle_beta   90.224859
_cell_angle_gamma 119.23589
loop_
_atom_site_label
_atom_site_type_symbol
_atom_site_fract_x
_atom_site_fract_y
_atom_site_fract_z
_atom_type_partial_charge
O0 O 0.28068 0.41092 0.05037 0.0
Mg1 Mg 0.27727 0.47045 0.01894 0.0
O2 O 0.24677 0.36753 -0.00505 0.0
Mg3 Mg 0.17374 0.37698 -0.01495 0.0
O4 O 0.20219 0.44865 0.02356 0.0
O5 O 0.26214 0.52018 0.05251 0.0
O6 O 0.10256 0.38634 0.97162 0.0
O7 O 0.13477 0.33186 0.04234 0.0
Mg8 Mg 0.06691 0.26556 0.9639 0.0
O9 O 0.14174 0.30582 0.94769 0.0
O10 O 0.03443 0.31357 0.95095 0.0
O11 O 0.07205 0.2532 0.02661 0.0
O12 O 0.09064 0.23144 0.91909 0.0
C13 C 0.26147 0.45876 0.92482 0.0
C14 C 0.27984 0.38056 0.02353 0.0
C15 C 0.21413 0.48797 0.04629 0.0
C16 C 0.05598 0.3612 0.95885 0.0
C17 C 0.10012 0.28719 0.05247 0.0
C18 C 0.13624 0.27023 0.92311 0.0
O19 O 0.29173 0.47919 0.95503 0.0
O20 O 0.21458 0.42397 0.92897 0.0
O21 O 0.77275 0.06713 0.35349 0.0
Mg22 Mg 0.757 0.06005 0.28979 0.0
O23 O 0.76962 0.13873 0.36729 0.0
Mg24 Mg 0.75928 0.17382 0.30949 0.0
O25 O 0.79146 0.1342 0.27432 0.0
O26 O 0.81743 0.08538 0.24562 0.0
O27 O 0.74973 0.20886 0.25088 0.0
O28 O 0.84563 0.24111 0.31382 0.0
Mg29 Mg 0.78279 0.26773 0.33679 0.0
O30 O 0.71504 0.20568 0.34948 0.0
O31 O 0.79294 0.28789 0.27451 0.0
O32 O 0.84371 0.27151 0.37262 0.0
O33 O 0.73459 0.28652 0.36559 0.0
C34 C 0.65413 0.06037 0.28662 0.0
C35 C 0.77444 0.10066 0.37842 0.0
C36 C 0.82243 0.13031 0.24996 0.0
C37 C 0.77287 0.25683 0.24514 0.0
C38 C 0.87014 0.27018 0.3435 0.0
C39 C 0.70365 0.23789 0.36699 0.0
O40 O 0.67713 0.03538 0.27698 0.0
O41 O 0.67824 0.10634 0.29974 0.0
O42 O 0.54622 0.8516 0.70292 0.0
Mg43 Mg 0.49277 0.78693 0.67002 0.0
O44 O 0.58477 0.8578 0.64606 0.0
Mg45 Mg 0.57558 0.77558 0.63581 0.0
O46 O 0.50493 0.72704 0.6779 0.0
O47 O 0.43692 0.7314 0.70285 0.0
O48 O 0.56954 0.69705 0.62121 0.0
O49 O 0.62608 0.78437 0.69102 0.0
Mg50 Mg 0.69042 0.78446 0.6113 0.0
O51 O 0.64487 0.81454 0.59696 0.0
O52 O 0.64402 0.70519 0.59869 0.0
O53 O 0.70584 0.80241 0.67392 0.0
O54 O 0.71839 0.83964 0.56545 0.0
C55 C 0.48897 0.78055 0.57822 0.0
C56 C 0.57475 0.87948 0.67517 0.0
C57 C 0.46317 0.70763 0.69944 0.0
C58 C 0.59664 0.67787 0.60741 0.0
C59 C 0.67214 0.79556 0.70036 0.0
C60 C 0.67767 0.84372 0.57093 0.0
O61 O 0.47231 0.79215 0.60959 0.0
O62 O 0.52479 0.76871 0.58036 0.0
O63 O 0.87427 0.69854 0.03066 0.0
Mg64 Mg 0.88632 0.69838 0.96706 0.0
O65 O 0.81043 0.6181 0.03659 0.0
Mg66 Mg 0.77802 0.58113 0.97486 0.0
O67 O 0.81357 0.65628 0.94643 0.0
O68 O 0.85952 0.73402 0.92448 0.0
O69 O 0.74438 0.54292 0.91336 0.0
O70 O 0.70301 0.58871 -0.01788 0.0
Mg71 Mg 0.67487 0.4874 -0.00202 0.0
O72 O 0.74807 0.50397 0.00645 0.0
O73 O 0.6655 0.48687 0.93399 0.0
O74 O 0.67017 0.54211 0.03515 0.0
O75 O 0.68189 0.42985 0.02519 0.0
C76 C 0.89917 0.60325 0.95516 0.0
C77 C 0.84391 0.66054 0.05216 0.0
C78 C 0.81614 0.69208 0.92435 0.0
C79 C 0.69784 0.50899 0.9058 0.0
C80 C 0.6685 0.57184 0.00925 0.0
C81 C 0.73102 0.46048 0.0242 0.0
O82 O 0.92061 0.65171 0.95187 0.0
O83 O 0.85147 0.57589 0.96378 0.0
O84 O 0.10787 0.6489 0.37318 0.0
Mg85 Mg 0.17525 0.66139 0.34161 0.0
O86 O 0.08625 0.69656 0.33532 0.0
Mg87 Mg 0.16458 0.76649 0.31738 0.0
O88 O 0.20975 0.73595 0.34648 0.0
O89 O 0.24627 0.69639 0.37499 0.0
O90 O 0.24128 0.82865 0.29499 0.0
O91 O 0.1737 0.80894 0.37776 0.0
Mg92 Mg 0.17114 0.87861 0.30373 0.0
O93 O 0.12303 0.8037 0.28797 0.0
O94 O 0.24518 0.90174 0.27738 0.0
O95 O 0.17129 0.88103 0.36773 0.0
O96 O 0.10616 0.86484 0.26964 0.0
C97 C 0.16032 0.68132 0.25024 0.0
C98 C 0.07375 0.65725 0.35717 0.0
C99 C 0.24552 0.73843 0.36934 0.0
C100 C 0.26559 0.87317 0.28031 0.0
C101 C 0.17496 0.84945 0.39119 0.0
C102 C 0.09382 0.81722 0.26894 0.0
O103 O 0.16793 0.65518 0.27706 0.0
O104 O 0.15738 0.72149 0.2588 0.0
O105 O 0.2448 0.15277 0.67094 0.0
Mg106 Mg 0.28483 0.18708 0.61723 0.0
O107 O 0.31734 0.16353 0.69893 0.0
Mg108 Mg 0.38272 0.17995 0.6546 0.0
O109 O 0.32843 0.15421 0.60039 0.0
O110 O 0.26448 0.14911 0.56209 0.0
O111 O 0.45114 0.19375 0.61479 0.0
O112 O 0.36757 0.09594 0.65782 0.0
Mg113 Mg 0.45717 0.15445 0.71238 0.0
O114 O 0.43455 0.20724 0.70937 0.0
O115 O 0.49563 0.1682 0.65459 0.0
O116 O 0.38614 0.08583 0.71983 0.0
O117 O 0.48637 0.21042 0.7584 0.0
C118 C 0.37954 0.2892 0.63447 0.0
C119 C 0.27031 0.1526 0.70167 0.0
C120 C 0.29986 0.13679 0.56835 0.0
C121 C 0.48841 0.18444 0.62086 0.0
C122 C 0.36869 0.06691 0.68532 0.0
C123 C 0.46228 0.23064 0.74047 0.0
O124 O 0.33348 0.26695 0.62125 0.0
O125 O 0.40167 0.26443 0.647 0.0
H126 H 0.13385 0.67678 0.18693 0.0
C127 C 0.15187 0.66265 0.20819 0.0
H128 H 0.18161 0.61254 0.21822 0.0
H129 H 0.06731 0.44196 0.09297 0.0
H130 H 0.02781 0.39793 0.15565 0.0
H131 H 0.0439 0.44648 0.21964 0.0
H132 H 0.0955 0.53904 0.22093 0.0
C133 C 0.16411 0.62691 0.19668 0.0
C134 C 0.14855 0.60016 0.15708 0.0
C135 C 0.1151 0.54648 0.15657 0.0
C136 C 0.10728 0.5183 0.12021 0.0
C137 C 0.07475 0.46462 0.12033 0.0
C138 C 0.05201 0.43911 0.15592 0.0
C139 C 0.06085 0.46647 0.19189 0.0
C140 C 0.09105 0.51959 0.19227 0.0
H141 H 0.18027 0.49083 0.10292 0.0
C142 C 0.17584 0.49263 0.07041 0.0
H143 H 0.14899 0.52075 0.02363 0.0
H144 H 0.21459 0.70316 0.14711 0.0
H145 H 0.25405 0.74537 0.08462 0.0
H146 H 0.23721 0.69612 0.02099 0.0
H147 H 0.18114 0.60414 0.0198 0.0
C148 C 0.14913 0.51446 0.05589 0.0
C149 C 0.13487 0.54338 0.0851 0.0
C150 C 0.16315 0.59755 0.08432 0.0
C151 C 0.17131 0.6261 0.12072 0.0
C152 C 0.2051 0.67965 0.12016 0.0
C153 C 0.22844 0.70442 0.08446 0.0
C154 C 0.21911 0.67668 0.04867 0.0
C155 C 0.18706 0.62384 0.04845 0.0
H156 H 0.55833 0.18809 0.59531 0.0
C157 C 0.52418 0.19112 0.58797 0.0
H158 H 0.47975 0.19828 0.54088 0.0
H159 H 0.71441 0.28752 0.46252 0.0
H160 H 0.73834 0.36111 0.50641 0.0
H161 H 0.67619 0.36231 0.55511 0.0
H162 H 0.58992 0.28971 0.56048 0.0
C163 C 0.51497 0.19798 0.54945 0.0
C164 C 0.55047 0.1999 0.51727 0.0
C165 C 0.6004 0.24299 0.5142 0.0
C166 C 0.63577 0.24271 0.48558 0.0
C167 C 0.68578 0.28588 0.4835 0.0
C168 C 0.70004 0.32838 0.50852 0.0
C169 C 0.66509 0.32902 0.53599 0.0
C170 C 0.61579 0.28696 0.53892 0.0
H171 H 0.62933 0.23144 0.38388 0.0
C172 C 0.65757 0.21972 0.39178 0.0
H173 H 0.68809 0.19413 0.43818 0.0
H174 H 0.45754 0.11149 0.51522 0.0
H175 H 0.43157 0.04085 0.46751 0.0
H176 H 0.49249 0.0416 0.41697 0.0
H177 H 0.57941 0.11308 0.4128 0.0
C178 C 0.65696 0.201 0.42852 0.0
C179 C 0.62049 0.20001 0.45935 0.0
C180 C 0.5702 0.15766 0.4616 0.0
C181 C 0.53512 0.15746 0.49077 0.0
C182 C 0.48533 0.11417 0.49297 0.0
C183 C 0.47014 0.07319 0.46612 0.0
C184 C 0.5044 0.07356 0.43755 0.0
C185 C 0.55407 0.11497 0.43536 0.0
H186 H 0.25439 0.47769 0.86148 0.0
C187 C 0.28105 0.47804 0.88425 0.0
H188 H 0.35813 0.49994 0.8995 0.0
H189 H 0.37056 0.55509 0.70286 0.0
H190 H 0.32395 0.46314 0.69077 0.0
H191 H 0.29058 0.40302 0.7478 0.0
H192 H 0.30339 0.43453 0.81718 0.0
C193 C 0.33177 0.49999 0.87659 0.0
C194 C 0.3545 0.53468 0.84184 0.0
C195 C 0.34618 0.5155 0.80161 0.0
C196 C 0.36534 0.55005 0.76877 0.0
C197 C 0.35659 0.53029 0.72881 0.0
C198 C 0.33003 0.47769 0.72151 0.0
C199 C 0.31126 0.44385 0.75363 0.0
C200 C 0.31893 0.46235 0.79328 0.0
H201 H 0.47436 0.64622 0.72653 0.0
C202 C 0.44743 0.6607 0.72279 0.0
H203 H 0.37621 0.6547 0.7399 0.0
H204 H 0.3801 0.58404 0.9157 0.0
H205 H 0.42913 0.67545 0.92736 0.0
H206 H 0.46231 0.73521 0.87021 0.0
H207 H 0.4465 0.70366 0.80101 0.0
C208 C 0.40279 0.63972 0.74309 0.0
C209 C 0.39208 0.60337 0.7764 0.0
C210 C 0.40267 0.62246 0.81662 0.0
C211 C 0.38397 0.58805 0.84945 0.0
C212 C 0.39388 0.60825 0.88944 0.0
C213 C 0.42191 0.66078 0.89663 0.0
C214 C 0.44052 0.69441 0.86448 0.0
C215 C 0.43105 0.67574 0.82489 0.0
H216 H 0.74473 0.25578 0.18294 0.0
C217 C 0.77544 0.27758 0.20466 0.0
H218 H 0.84327 0.34554 0.21834 0.0
H219 H 0.77251 0.35144 0.02541 0.0
H220 H 0.79262 0.28319 0.01157 0.0
H221 H 0.82241 0.24795 0.06634 0.0
H222 H 0.83147 0.28027 0.13536 0.0
C223 C 0.8131 0.32503 0.19627 0.0
C224 C 0.80917 0.35395 0.16173 0.0
C225 C 0.80564 0.33553 0.12172 0.0
C226 C 0.78949 0.35638 0.09018 0.0
C227 C 0.78453 0.33655 0.05048 0.0
C228 C 0.79622 0.2977 0.04216 0.0
C229 C 0.81293 0.27782 0.07301 0.0
C230 C 0.81763 0.29637 0.11245 0.0
H231 H 0.80701 0.47582 0.04809 0.0
C232 C 0.76609 0.44829 0.04691 0.0
H233 H 0.70571 0.37869 0.06888 0.0
H234 H 0.825 0.4065 0.23393 0.0
H235 H 0.81386 0.48022 0.24582 0.0
H236 H 0.78555 0.51628 0.19081 0.0
H237 H 0.76873 0.47884 0.12345 0.0
C238 C 0.74667 0.40632 0.06978 0.0
C239 C 0.77814 0.39604 0.09883 0.0
C240 C 0.7885 0.41914 0.13775 0.0
C241 C 0.80449 0.39818 0.16939 0.0
C242 C 0.81306 0.42079 0.20851 0.0
C243 C 0.8067 0.46321 0.21585 0.0
C244 C 0.79078 0.48351 0.18489 0.0
C245 C 0.7813 0.46164 0.14632 0.0
H246 H 0.49237 0.79339 0.51241 0.0
C247 C 0.46781 0.78366 0.53883 0.0
H248 H 0.39548 0.76594 0.56267 0.0
H249 H 0.32593 0.87628 0.43807 0.0
H250 H 0.31786 0.91077 0.50261 0.0
H251 H 0.34597 0.88838 0.56585 0.0
H252 H 0.38585 0.8348 0.56477 0.0
C253 C 0.41954 0.77658 0.53592 0.0
C254 C 0.39852 0.78631 0.4981 0.0
C255 C 0.37705 0.81958 0.49933 0.0
C256 C 0.35871 0.83084 0.46318 0.0
C257 C 0.33855 0.86501 0.46499 0.0
C258 C 0.33373 0.88509 0.50175 0.0
C259 C 0.34971 0.87257 0.53733 0.0
C260 C 0.37236 0.84137 0.53623 0.0
H261 H 0.26074 0.77899 0.42525 0.0
C262 C 0.27677 0.78273 0.39517 0.0
H263 H 0.34354 0.8109 0.36083 0.0
H264 H 0.4229 0.70954 0.487 0.0
H265 H 0.4247 0.67006 0.42367 0.0
H266 H 0.39873 0.69394 0.36011 0.0
H267 H 0.37009 0.75638 0.35977 0.0
C268 C 0.32809 0.80721 0.39105 0.0
C269 C 0.35967 0.80715 0.42617 0.0
C270 C 0.38091 0.77366 0.42497 0.0
C271 C 0.39861 0.76186 0.46123 0.0
C272 C 0.41304 0.72316 0.46005 0.0
C273 C 0.41332 0.69933 0.4239 0.0
C274 C 0.39848 0.71258 0.3882 0.0
C275 C 0.38206 0.74885 0.38855 0.0
H276 H 0.70591 0.51365 0.83877 0.0
C277 C 0.68039 0.49357 0.86366 0.0
H278 H 0.60865 0.43309 0.88165 0.0
H279 H 0.46665 0.38366 0.73591 0.0
H280 H 0.45158 0.45047 0.76444 0.0
H281 H 0.51057 0.51041 0.81632 0.0
H282 H 0.58499 0.50394 0.84005 0.0
C283 C 0.63332 0.45358 0.85659 0.0
C284 C 0.61195 0.43299 0.81606 0.0
C285 C 0.57 0.43847 0.80157 0.0
C286 C 0.53618 0.40417 0.77166 0.0
C287 C 0.49323 0.40885 0.75883 0.0
C288 C 0.4844 0.44707 0.77478 0.0
C289 C 0.51764 0.48086 0.80398 0.0
C290 C 0.56 0.47671 0.81741 0.0
H291 H 0.46809 0.28574 0.78589 0.0
C292 C 0.47165 0.28113 0.7536 0.0
H293 H 0.51292 0.31688 0.70121 0.0
H294 H 0.69231 0.41594 0.83444 0.0
H295 H 0.70957 0.35213 0.80375 0.0
H296 H 0.65365 0.29566 0.749 0.0
H297 H 0.57977 0.30221 0.72513 0.0
C298 C 0.50486 0.32196 0.73245 0.0
C299 C 0.54565 0.36579 0.75549 0.0
C300 C 0.59111 0.36427 0.76659 0.0
C301 C 0.62387 0.39738 0.79753 0.0
C302 C 0.66647 0.3921 0.81069 0.0
C303 C 0.67687 0.35566 0.79329 0.0
C304 C 0.64538 0.32386 0.7625 0.0
C305 C 0.603 0.32796 0.74915 0.0
H306 H 0.35284 0.38295 0.03886 0.0
C307 C 0.3308 0.38691 0.01417 0.0
H308 H 0.33527 0.42277 0.9583 0.0
H309 H 0.55727 0.57235 0.05082 0.0
H310 H 0.5057 0.59759 0.0913 0.0
H311 H 0.41152 0.55715 0.0807 0.0
H312 H 0.36867 0.49026 0.03013 0.0
C313 C 0.35611 0.416 -0.01765 0.0
C314 C 0.41317 0.44755 -0.01738 0.0
C315 C 0.43821 0.48931 0.01016 0.0
C316 C 0.49275 0.51452 0.01468 0.0
C317 C 0.51625 0.553 0.04492 0.0
C318 C 0.48703 0.56786 0.06855 0.0
C319 C 0.43403 0.54498 0.0627 0.0
C320 C 0.40977 0.50623 0.03386 0.0
H321 H 0.61179 0.5932 -0.01581 0.0
C322 C 0.61662 0.56287 -0.00224 0.0
H323 H 0.58253 0.48425 0.01156 0.0
H324 H 0.37687 0.37665 0.92149 0.0
H325 H 0.42833 0.35476 0.87725 0.0
H326 H 0.52244 0.39845 0.8838 0.0
H327 H 0.56733 0.46655 0.93418 0.0
C328 C 0.57621 0.51516 0.00123 0.0
C329 C 0.52212 0.49958 -0.00999 0.0
C330 C 0.49719 0.46149 0.95951 0.0
C331 C 0.44256 0.43562 0.95576 0.0
C332 C 0.41834 0.3972 0.92565 0.0
C333 C 0.44734 0.38436 0.90003 0.0
C334 C 0.50067 0.40926 0.90376 0.0
C335 C 0.52566 0.44766 0.93292 0.0
H336 H -0.00721 0.59765 0.36726 0.0
C337 C 0.0257 0.6104 0.34733 0.0
H338 H 0.06486 0.59137 0.30351 0.0
H339 H 0.93082 0.37185 0.39897 0.0
H340 H 0.96959 0.41809 0.46071 0.0
H341 H 0.02684 0.5115 0.46035 0.0
H342 H 0.04321 0.55884 0.39878 0.0
C343 C 0.03087 0.57729 0.32257 0.0
C344 C -0.00182 0.52079 0.32365 0.0
C345 C -0.00656 0.49326 0.35983 0.0
C346 C 0.96445 0.43893 0.35948 0.0
C347 C 0.95494 0.41271 0.39672 0.0
C348 C -0.02317 0.43886 0.43267 0.0
C349 C 0.00876 0.4914 0.4325 0.0
C350 C 0.01728 0.51837 0.39667 0.0
H351 H 0.95411 0.32651 0.34258 0.0
C352 C 0.91572 0.31918 0.33408 0.0
H353 H 0.86783 0.34866 0.31497 0.0
H354 H -0.0008 0.56104 0.24911 0.0
H355 H 0.96743 0.51354 0.18602 0.0
H356 H 0.92994 0.41968 0.18417 0.0
H357 H 0.92294 0.37274 0.24596 0.0
C358 C 0.90685 0.35711 0.32223 0.0
C359 C 0.94544 0.41219 0.32232 0.0
C360 C 0.95408 0.43962 0.28588 0.0
C361 C -0.02154 0.49381 0.28669 0.0
C362 C -0.01764 0.51985 0.25009 0.0
C363 C 0.96406 0.49307 0.21369 0.0
C364 C 0.94269 0.4402 0.21268 0.0
C365 C 0.93825 0.41369 0.24825 0.0
H366 H 0.36581 -0.00743 0.69234 0.0
C367 C 0.37925 0.02568 0.67287 0.0
H368 H 0.43453 0.07172 0.62986 0.0
H369 H 0.53288 0.94527 0.73008 0.0
H370 H 0.52637 -0.01123 0.78964 0.0
H371 H 0.4904 0.04742 0.78528 0.0
H372 H 0.45887 0.06087 0.72157 0.0
C373 C 0.41964 0.03759 0.64826 0.0
C374 C 0.45072 0.01072 0.64954 0.0
C375 C 0.47369 0.00728 0.68641 0.0
C376 C 0.49868 0.97717 0.68821 0.0
C377 C 0.516 0.96975 0.72629 0.0
C378 C 0.51237 -0.00557 0.76092 0.0
C379 C 0.49183 0.02716 0.75852 0.0
C380 C 0.47295 0.03384 0.72179 0.0
H381 H 0.60024 0.96273 0.67148 0.0
C382 C 0.56894 0.92425 0.6657 0.0
H383 H 0.49127 0.87626 0.64883 0.0
H384 H 0.4202 0.01792 0.5726 0.0
H385 H 0.43772 -0.01601 0.51146 0.0
H386 H 0.48666 0.93773 0.51379 0.0
H387 H 0.518 0.92335 0.57778 0.0
C388 C 0.52147 0.9153 0.65474 0.0
C389 C 0.50517 0.95479 0.65237 0.0
C390 C 0.48781 0.96347 0.61482 0.0
C391 C 0.46026 -0.0088 0.61338 0.0
C392 C 0.44229 -0.00188 0.57548 0.0
C393 C 0.45244 -0.02066 0.54007 0.0
C394 C 0.4798 0.95281 0.54143 0.0
C395 C 0.49705 0.94446 0.57831 0.0
H396 H 0.59694 0.60742 0.58897 0.0
C397 C 0.5743 0.62224 0.60389 0.0
H398 H 0.50661 0.60324 0.63727 0.0
H399 H 0.4109 0.37776 0.55867 0.0
H400 H 0.37092 0.41301 0.51446 0.0
H401 H 0.39477 0.50419 0.51926 0.0
H402 H 0.45927 0.56072 0.56794 0.0
C403 C 0.52999 0.58975 0.62181 0.0
C404 C 0.51268 0.53434 0.62146 0.0
C405 C 0.47363 0.50174 0.59398 0.0
C406 C 0.45854 0.44894 0.5923 0.0
C407 C 0.42179 0.41765 0.5627 0.0
C408 C 0.39904 0.43755 0.5368 0.0
C409 C 0.41259 0.4889 0.53942 0.0
C410 C 0.4496 0.52089 0.56751 0.0
H411 H 0.38447 0.36433 0.63828 0.0
C412 C 0.40722 0.34511 0.63449 0.0
H413 H 0.48012 0.35361 0.6198 0.0
H414 H 0.58917 0.58696 0.67772 0.0
H415 H 0.63416 0.55279 0.71747 0.0
H416 H 0.61213 0.46254 0.71063 0.0
H417 H 0.54147 0.40429 0.66693 0.0
C418 C 0.45715 0.37238 0.62461 0.0
C419 C 0.48098 0.42864 0.61946 0.0
C420 C 0.52298 0.46202 0.64446 0.0
C421 C 0.53789 0.51482 0.64641 0.0
C422 C 0.57763 0.5469 0.67379 0.0
C423 C 0.6037 0.52784 0.69685 0.0
C424 C 0.59095 0.47681 0.69327 0.0
C425 C 0.55042 0.44384 0.66802 0.0
H426 H -0.01359 0.36564 0.94191 0.0
C427 C 0.02534 0.38728 0.95422 0.0
H428 H 0.08142 0.45798 -0.02043 0.0
H429 H 0.94495 0.54069 0.88228 0.0
H430 H -0.00126 0.54442 0.82608 0.0
H431 H 0.05922 0.51047 0.83244 0.0
H432 H 0.06554 0.47182 0.89497 0.0
C433 C 0.04316 0.43583 0.96637 0.0
C434 C 0.00995 0.45974 0.96373 0.0
C435 C 0.00816 0.48378 0.92754 0.0
C436 C 0.97474 0.505 0.92443 0.0
C437 C 0.97132 0.526 0.88703 0.0
C438 C 0.00167 0.52796 0.85434 0.0
C439 C 0.03561 0.50872 0.85788 0.0
C440 C 0.03884 0.48665 0.89393 0.0
H441 H 0.97255 0.60254 0.94697 0.0
C442 C 0.93131 0.57851 0.95153 0.0
H443 H 0.87052 0.50367 0.96207 0.0
H444 H 0.00352 0.41458 0.03672 0.0
H445 H 0.95125 0.41219 0.09387 0.0
H446 H 0.8967 0.45312 0.09004 0.0
H447 H 0.89331 0.49573 0.02892 0.0
C448 C 0.91141 0.5278 0.9561 0.0
C449 C 0.94494 0.50395 0.95823 0.0
C450 C 0.94689 0.47984 -0.00548 0.0
C451 C -0.0208 0.45734 -0.00288 0.0
C452 C -0.02002 0.43277 0.03338 0.0
C453 C 0.95017 0.43109 0.06637 0.0
C454 C 0.91932 0.45398 0.06417 0.0
C455 C 0.9176 0.47818 0.0288 0.0
H456 H 0.33201 0.86232 0.26955 0.0
C457 C 0.31896 0.89055 0.26853 0.0
H458 H 0.34293 0.96944 0.26327 0.0
H459 H 0.54238 0.96366 0.34322 0.0
H460 H 0.49343 0.95115 0.40511 0.0
H461 H 0.40709 0.94337 0.40309 0.0
H462 H 0.36785 0.94608 0.33944 0.0
C463 C 0.35368 0.9396 0.26284 0.0
C464 C 0.40882 0.95361 0.26382 0.0
C465 C 0.43234 0.95534 0.30162 0.0
C466 C 0.48302 0.96219 0.30292 0.0
C467 C 0.50448 0.96028 0.34078 0.0
C468 C 0.47679 0.95274 0.37638 0.0
C469 C 0.42794 0.94806 0.37527 0.0
C470 C 0.40587 0.94961 0.33848 0.0
H471 H 0.58053 0.0596 0.29325 0.0
C472 C 0.59791 0.03685 0.28312 0.0
H473 H 0.58332 0.96622 0.25689 0.0
H474 H 0.37274 0.94762 0.18672 0.0
H475 H 0.41947 0.95463 0.1247 0.0
H476 H 0.5089 0.96962 0.12709 0.0
H477 H 0.55201 0.97718 0.19146 0.0
C478 C 0.56742 -0.01045 0.26857 0.0
C479 C 0.51104 0.97024 0.2666 0.0
C480 C 0.48681 0.96632 0.22879 0.0
C481 C 0.43544 0.95794 0.22739 0.0
C482 C 0.41177 0.95391 0.18933 0.0
C483 C 0.43818 0.95799 0.15359 0.0
C484 C 0.48856 0.96647 0.15494 0.0
C485 C 0.5129 0.97087 0.19203 0.0
H486 H 0.20876 0.14332 0.74265 0.0
C487 C 0.24811 0.14973 0.74168 0.0
H488 H 0.31803 0.17514 0.77411 0.0
H489 H 0.25994 0.33111 0.8575 0.0
H490 H 0.34617 0.38647 0.83227 0.0
H491 H 0.39346 0.35062 0.79574 0.0
H492 H 0.35592 0.25929 0.78508 0.0
C493 C 0.27797 0.16631 0.7751 0.0
C494 C 0.26028 0.18539 0.80961 0.0
C495 C 0.28393 0.23886 0.81688 0.0
C496 C 0.25669 0.2594 0.83835 0.0
C497 C 0.2794 0.3132 0.8426 0.0
C498 C 0.3286 0.34553 0.82778 0.0
C499 C 0.35539 0.32538 0.80724 0.0
C500 C 0.33333 0.27278 0.80136 0.0
H501 H 0.21717 0.28719 0.91832 0.0
C502 C 0.18017 0.27077 0.90269 0.0
H503 H 0.13437 0.22837 0.85334 0.0
H504 H 0.21298 0.08136 0.81054 0.0
H505 H 0.13126 0.02427 0.84274 0.0
H506 H 0.08403 0.05913 0.88112 0.0
H507 H 0.11798 0.15081 0.88758 0.0
C508 C 0.17212 0.24479 0.8679 0.0
C509 C 0.20684 0.2258 0.85344 0.0
C510 C 0.18694 0.17207 0.85116 0.0
C511 C 0.21387 0.15189 0.82921 0.0
C512 C 0.19313 0.09824 0.82652 0.0
C513 C 0.14661 0.06524 0.84502 0.0
C514 C 0.12004 0.08487 0.86662 0.0
C515 C 0.13982 0.1376 0.86986 0.0
H516 H 0.86124 0.21081 0.23027 0.0
C517 C 0.86249 0.17514 0.22923 0.0
H518 H 0.90155 0.13685 0.20798 0.0
H519 H -0.00443 0.27712 0.05731 0.0
H520 H 0.91498 0.21362 0.02614 0.0
H521 H 0.84422 0.15003 0.06788 0.0
H522 H 0.85339 0.15018 0.14096 0.0
C523 C 0.9003 0.17248 0.2095 0.0
C524 C 0.93854 0.21573 0.18563 0.0
C525 C 0.93225 0.21462 0.14319 0.0
C526 C 0.9733 0.25008 0.11915 0.0
C527 C 0.96602 0.2495 0.07677 0.0
C528 C 0.91986 0.21363 0.0586 0.0
C529 C 0.88001 0.1779 0.0821 0.0
C530 C 0.88584 0.17828 0.12396 0.0
H531 H 0.0672 0.23841 0.10478 0.0
C532 C 0.08315 0.27762 0.0944 0.0
H533 H 0.07953 0.34621 0.10032 0.0
H534 H 0.95785 0.23527 0.26677 0.0
H535 H 0.03597 0.30375 0.29742 0.0
H536 H 0.10822 0.36392 0.25499 0.0
H537 H 0.10259 0.356 0.18139 0.0
C538 C 0.06787 0.30838 0.11225 0.0
C539 C 0.02118 0.2844 0.13764 0.0
C540 C 0.02511 0.28994 0.18008 0.0
C541 C -0.01657 0.25539 0.20437 0.0
C542 C -0.01161 0.26069 0.24691 0.0
C543 C 0.03299 0.29977 0.26482 0.0
C544 C 0.07371 0.33366 0.24092 0.0
C545 C 0.07019 0.32869 0.19892 0.0
H546 H 0.67812 0.8831 0.51617 0.0
C547 C 0.67092 0.88142 0.54852 0.0
H548 H 0.67084 0.92311 0.60033 0.0
H549 H 0.84103 0.08805 0.48377 0.0
H550 H 0.89206 0.09436 0.54356 0.0
H551 H 0.85031 0.04441 0.6046 0.0
H552 H 0.7572 -0.01227 0.60615 0.0
C553 C 0.67173 0.92144 0.56752 0.0
C554 C 0.68958 0.9685 0.54371 0.0
C555 C 0.74299 0.00433 0.54469 0.0
C556 C 0.76696 0.03318 0.50973 0.0
C557 C 0.82107 0.06554 0.50985 0.0
C558 C 0.85067 0.06946 0.5439 0.0
C559 C 0.82715 0.04131 0.57827 0.0
C560 C 0.77389 0.00892 0.57879 0.0
H561 H 0.77119 0.11858 0.44267 0.0
C562 C 0.77278 0.09103 0.42196 0.0
H563 H 0.76009 0.01578 0.41458 0.0
H564 H 0.58524 0.91217 0.53719 0.0
H565 H 0.53348 0.90512 0.47735 0.0
H566 H 0.57465 0.95652 0.41675 0.0
H567 H 0.667 0.01391 0.41498 0.0
C568 C 0.76166 0.04481 0.43533 0.0
C569 C 0.73682 0.02677 0.47481 0.0
C570 C 0.68234 -0.00333 0.47609 0.0
C571 C 0.65863 0.96766 0.51092 0.0
C572 C 0.60458 0.93504 0.51105 0.0
C573 C 0.57467 0.93104 0.47723 0.0
C574 C 0.5978 0.95985 0.44306 0.0
C575 C 0.65096 -0.00752 0.44235 0.0
H576 H 0.72517 0.80818 0.75061 0.0
C577 C 0.68452 0.79079 0.74231 0.0
H578 H 0.60854 0.7338 0.75726 0.0
H579 H 0.77773 0.66813 0.82239 0.0
H580 H 0.76647 0.63373 0.75426 0.0
H581 H 0.70806 0.64279 0.7058 0.0
H582 H 0.66031 0.68612 0.72554 0.0
C583 C 0.64906 0.75448 0.76597 0.0
C584 C 0.66724 0.7332 0.79823 0.0
C585 C 0.6916 0.70443 0.78716 0.0
C586 C 0.72423 0.69835 0.81529 0.0
C587 C 0.75153 0.67304 0.80255 0.0
C588 C 0.7455 0.65317 0.76344 0.0
C589 C 0.71264 0.65826 0.73615 0.0
C590 C 0.68578 0.68345 0.74773 0.0
H591 H 0.73771 0.64791 0.89826 0.0
C592 C 0.77172 0.68555 0.9004 0.0
H593 H 0.80637 0.76323 0.88397 0.0
H594 H 0.6143 0.77764 0.83044 0.0
H595 H 0.61825 0.80495 0.90065 0.0
H596 H 0.67334 0.79272 0.95051 0.0
H597 H 0.72489 0.7533 0.93056 0.0
C598 C 0.77329 0.72513 0.88078 0.0
C599 C 0.73039 0.71949 0.8547 0.0
C600 C 0.70005 0.74163 0.86723 0.0
C601 C 0.66824 0.7485 0.83874 0.0
C602 C 0.63921 0.77192 0.85127 0.0
C603 C 0.64106 0.7875 0.89134 0.0
C604 C 0.67209 0.78061 0.91942 0.0
C605 C 0.70156 0.75815 0.90763 0.0
H606 H 0.02348 0.7952 0.23436 0.0
C607 C 0.04894 0.78125 0.24531 0.0
H608 H 0.06853 0.72213 0.23997 0.0
H609 H 0.83073 0.65168 0.1735 0.0
H610 H 0.80657 0.60914 0.23836 0.0
H611 H 0.87281 0.61222 0.28544 0.0
H612 H 0.96416 0.6589 0.26782 0.0
C613 C 0.04223 0.73612 0.23182 0.0
C614 C 0.00421 0.71125 0.19882 0.0
C615 C 0.95149 0.6823 0.20848 0.0
C616 C 0.91348 0.67905 0.18065 0.0
C617 C 0.86117 0.65343 0.1926 0.0
C618 C 0.84684 0.62929 0.22996 0.0
C619 C 0.88415 0.63116 0.25655 0.0
C620 C 0.93613 0.65798 0.24627 0.0
H621 H 0.84673 0.62404 0.10827 0.0
C622 C 0.85657 0.66083 0.09509 0.0
H623 H 0.90134 0.74058 0.09974 0.0
H624 H 0.10158 0.75737 0.16875 0.0
H625 H 0.1271 0.79189 0.101 0.0
H626 H 0.06176 0.78449 0.05104 0.0
H627 H 0.9712 0.74312 0.06828 0.0
C628 C 0.89126 0.70404 0.11351 0.0
C629 C 0.92894 0.70298 0.14246 0.0
C630 C -0.01839 0.72587 0.1309 0.0
C631 C 0.01923 0.72975 0.15926 0.0
C632 C 0.07177 0.75399 0.14795 0.0
C633 C 0.08679 0.7736 0.10926 0.0
C634 C 0.05 0.76943 0.08116 0.0
C635 C -0.00198 0.74577 0.0916 0.0
H636 H 0.28013 0.09183 0.51295 0.0
C637 C 0.30303 0.10035 0.54058 0.0
H638 H 0.3439 0.0765 0.57923 0.0
H639 H 0.17064 0.85893 0.51546 0.0
H640 H 0.1655 0.8485 0.58854 0.0
H641 H 0.22704 0.91765 0.63368 0.0
H642 H 0.29361 -0.00205 0.60604 0.0
C643 C 0.32389 0.07099 0.55057 0.0
C644 C 0.30793 0.02378 0.52618 0.0
C645 C 0.27198 0.97614 0.54284 0.0
C646 C 0.23714 0.93597 0.51687 0.0
C647 C 0.1984 0.89027 0.53402 0.0
C648 C 0.1951 0.88388 0.57582 0.0
C649 C 0.22973 0.92286 0.60125 0.0
C650 C 0.26759 0.96874 0.58511 0.0
H651 H 0.21205 0.84773 0.44853 0.0
C652 C 0.19284 0.86576 0.43301 0.0
H653 H 0.17969 0.92851 0.43089 0.0
H654 H 0.3811 0.10574 0.48557 0.0
H655 H 0.39402 0.1122 0.41264 0.0
H656 H 0.33786 0.03999 0.36748 0.0
H657 H 0.26802 0.96175 0.39484 0.0
C658 C 0.19765 0.90983 0.44724 0.0
C659 C 0.24069 0.94323 0.4746 0.0
C660 C 0.28297 -0.01286 0.45809 0.0
C661 C 0.31622 0.02791 0.48396 0.0
C662 C 0.35555 0.07332 0.46686 0.0
C663 C 0.36323 0.07744 0.4252 0.0
C664 C 0.33161 0.03683 0.3998 0.0
C665 C 0.29163 -0.00778 0.41586 0.0
loop_
_geom_bond_atom_site_label_1
_geom_bond_atom_site_label_2
_geom_bond_distance
_geom_bond_site_symmetry_2
_ccdc_geom_bond_type
O0 Mg1 1.990 . S
O0 C14 1.253 . S
Mg1 O0 1.990 . S
Mg1 O4 2.180 . S
Mg1 O5 2.117 . S
Mg1 O19 2.030 1_554 S
O2 Mg3 2.072 1_554 S
O2 C14 1.260 . S
Mg3 O2 2.072 1_556 S
Mg3 O4 2.099 1_556 S
Mg3 O6 2.079 . S
Mg3 O7 2.072 1_556 S
Mg3 O9 2.099 . S
Mg3 O20 2.079 . S
O4 Mg1 2.180 . S
O4 Mg3 2.099 1_554 S
O4 C15 1.279 . S
O5 Mg1 2.117 . S
O5 C15 1.250 . S
O6 Mg3 2.079 . S
O6 C16 1.264 . S
O7 Mg3 2.072 1_554 S
O7 C17 1.260 . S
Mg8 O9 2.180 . S
Mg8 O10 2.030 . S
Mg8 O11 1.990 1_556 S
Mg8 O12 2.117 . S
O9 Mg3 2.099 . S
O9 Mg8 2.180 . S
O9 C18 1.279 . S
O10 Mg8 2.030 . S
O10 C16 1.248 . S
O11 Mg8 1.990 1_554 S
O11 C17 1.253 . S
O12 Mg8 2.117 . S
O12 C18 1.250 . S
C13 O19 1.248 . S
C13 O20 1.264 . S
C14 O0 1.253 . S
C14 O2 1.260 . S
C15 O4 1.279 . S
C15 O5 1.250 . S
C16 O6 1.264 . S
C16 O10 1.248 . S
C17 O7 1.260 . S
C17 O11 1.253 . S
C18 O9 1.279 . S
C18 O12 1.250 . S
O19 Mg1 2.030 1_556 S
O19 C13 1.248 . S
O20 Mg3 2.079 . S
O20 C13 1.264 . S
O21 Mg22 1.990 . S
O21 C35 1.253 . S
Mg22 O21 1.990 . S
Mg22 O25 2.180 . S
Mg22 O26 2.117 . S
Mg22 O40 2.030 . S
O23 Mg24 2.072 . S
O23 C35 1.260 . S
Mg24 O23 2.072 . S
Mg24 O25 2.099 . S
Mg24 O27 2.079 . S
Mg24 O28 2.072 . S
Mg24 O30 2.099 . S
Mg24 O41 2.079 . S
O25 Mg22 2.180 . S
O25 Mg24 2.099 . S
O25 C36 1.279 . S
O26 Mg22 2.117 . S
O26 C36 1.250 . S
O27 Mg24 2.079 . S
O27 C37 1.264 . S
O28 Mg24 2.072 . S
O28 C38 1.260 . S
Mg29 O30 2.180 . S
Mg29 O31 2.030 . S
Mg29 O32 1.990 . S
Mg29 O33 2.117 . S
O30 Mg24 2.099 . S
O30 Mg29 2.180 . S
O30 C39 1.279 . S
O31 Mg29 2.030 . S
O31 C37 1.248 . S
O32 Mg29 1.990 . S
O32 C38 1.253 . S
O33 Mg29 2.117 . S
O33 C39 1.250 . S
C34 O40 1.248 . S
C34 O41 1.264 . S
C35 O21 1.253 . S
C35 O23 1.260 . S
C36 O25 1.279 . S
C36 O26 1.250 . S
C37 O27 1.264 . S
C37 O31 1.248 . S
C38 O28 1.260 . S
C38 O32 1.253 . S
C39 O30 1.279 . S
C39 O33 1.250 . S
O40 Mg22 2.030 . S
O40 C34 1.248 . S
O41 Mg24 2.079 . S
O41 C34 1.264 . S
O42 Mg43 1.990 . S
O42 C56 1.253 . S
Mg43 O42 1.990 . S
Mg43 O46 2.180 . S
Mg43 O47 2.117 . S
Mg43 O61 2.030 . S
O44 Mg45 2.072 . S
O44 C56 1.260 . S
Mg45 O44 2.072 . S
Mg45 O46 2.099 . S
Mg45 O48 2.079 . S
Mg45 O49 2.072 . S
Mg45 O51 2.099 . S
Mg45 O62 2.079 . S
O46 Mg43 2.180 . S
O46 Mg45 2.099 . S
O46 C57 1.279 . S
O47 Mg43 2.117 . S
O47 C57 1.250 . S
O48 Mg45 2.079 . S
O48 C58 1.264 . S
O49 Mg45 2.072 . S
O49 C59 1.260 . S
Mg50 O51 2.180 . S
Mg50 O52 2.030 . S
Mg50 O53 1.990 . S
Mg50 O54 2.117 . S
O51 Mg45 2.099 . S
O51 Mg50 2.180 . S
O51 C60 1.279 . S
O52 Mg50 2.030 . S
O52 C58 1.248 . S
O53 Mg50 1.990 . S
O53 C59 1.253 . S
O54 Mg50 2.117 . S
O54 C60 1.250 . S
C55 O61 1.248 . S
C55 O62 1.264 . S
C56 O42 1.253 . S
C56 O44 1.260 . S
C57 O46 1.279 . S
C57 O47 1.250 . S
C58 O48 1.264 . S
C58 O52 1.248 . S
C59 O49 1.260 . S
C59 O53 1.253 . S
C60 O51 1.279 . S
C60 O54 1.250 . S
O61 Mg43 2.030 . S
O61 C55 1.248 . S
O62 Mg45 2.079 . S
O62 C55 1.264 . S
O63 Mg64 1.990 1_554 S
O63 C77 1.253 . S
Mg64 O63 1.990 1_556 S
Mg64 O67 2.180 . S
Mg64 O68 2.117 . S
Mg64 O82 2.030 . S
O65 Mg66 2.072 1_554 S
O65 C77 1.260 . S
Mg66 O65 2.072 1_556 S
Mg66 O67 2.099 . S
Mg66 O69 2.079 . S
Mg66 O70 2.072 1_556 S
Mg66 O72 2.099 1_556 S
Mg66 O83 2.079 . S
O67 Mg64 2.180 . S
O67 Mg66 2.099 . S
O67 C78 1.279 . S
O68 Mg64 2.117 . S
O68 C78 1.250 . S
O69 Mg66 2.079 . S
O69 C79 1.264 . S
O70 Mg66 2.072 1_554 S
O70 C80 1.260 . S
Mg71 O72 2.180 . S
Mg71 O73 2.030 1_554 S
Mg71 O74 1.990 . S
Mg71 O75 2.117 . S
O72 Mg66 2.099 1_554 S
O72 Mg71 2.180 . S
O72 C81 1.279 . S
O73 Mg71 2.030 1_556 S
O73 C79 1.248 . S
O74 Mg71 1.990 . S
O74 C80 1.253 . S
O75 Mg71 2.117 . S
O75 C81 1.250 . S
C76 O82 1.248 . S
C76 O83 1.264 . S
C77 O63 1.253 . S
C77 O65 1.260 . S
C78 O67 1.279 . S
C78 O68 1.250 . S
C79 O69 1.264 . S
C79 O73 1.248 . S
C80 O70 1.260 . S
C80 O74 1.253 . S
C81 O72 1.279 . S
C81 O75 1.250 . S
O82 Mg64 2.030 . S
O82 C76 1.248 . S
O83 Mg66 2.079 . S
O83 C76 1.264 . S
O84 Mg85 1.990 . S
O84 C98 1.253 . S
Mg85 O84 1.990 . S
Mg85 O88 2.180 . S
Mg85 O89 2.117 . S
Mg85 O103 2.030 . S
O86 Mg87 2.072 . S
O86 C98 1.260 . S
Mg87 O86 2.072 . S
Mg87 O88 2.099 . S
Mg87 O90 2.079 . S
Mg87 O91 2.072 . S
Mg87 O93 2.099 . S
Mg87 O104 2.079 . S
O88 Mg85 2.180 . S
O88 Mg87 2.099 . S
O88 C99 1.279 . S
O89 Mg85 2.117 . S
O89 C99 1.250 . S
O90 Mg87 2.079 . S
O90 C100 1.264 . S
O91 Mg87 2.072 . S
O91 C101 1.260 . S
Mg92 O93 2.180 . S
Mg92 O94 2.030 . S
Mg92 O95 1.990 . S
Mg92 O96 2.117 . S
O93 Mg87 2.099 . S
O93 Mg92 2.180 . S
O93 C102 1.279 . S
O94 Mg92 2.030 . S
O94 C100 1.248 . S
O95 Mg92 1.990 . S
O95 C101 1.253 . S
O96 Mg92 2.117 . S
O96 C102 1.250 . S
C97 O103 1.248 . S
C97 O104 1.264 . S
C98 O84 1.253 . S
C98 O86 1.260 . S
C99 O88 1.279 . S
C99 O89 1.250 . S
C100 O90 1.264 . S
C100 O94 1.248 . S
C101 O91 1.260 . S
C101 O95 1.253 . S
C102 O93 1.279 . S
C102 O96 1.250 . S
O103 Mg85 2.030 . S
O103 C97 1.248 . S
O104 Mg87 2.079 . S
O104 C97 1.264 . S
O105 Mg106 1.990 . S
O105 C119 1.253 . S
Mg106 O105 1.990 . S
Mg106 O109 2.180 . S
Mg106 O110 2.117 . S
Mg106 O124 2.030 . S
O107 Mg108 2.072 . S
O107 C119 1.260 . S
Mg108 O107 2.072 . S
Mg108 O109 2.099 . S
Mg108 O111 2.079 . S
Mg108 O112 2.072 . S
Mg108 O114 2.099 . S
Mg108 O125 2.079 . S
O109 Mg106 2.180 . S
O109 Mg108 2.099 . S
O109 C120 1.279 . S
O110 Mg106 2.117 . S
O110 C120 1.250 . S
O111 Mg108 2.079 . S
O111 C121 1.264 . S
O112 Mg108 2.072 . S
O112 C122 1.260 . S
Mg113 O114 2.180 . S
Mg113 O115 2.030 . S
Mg113 O116 1.990 . S
Mg113 O117 2.117 . S
O114 Mg108 2.099 . S
O114 Mg113 2.180 . S
O114 C123 1.279 . S
O115 Mg113 2.030 . S
O115 C121 1.248 . S
O116 Mg113 1.990 . S
O116 C122 1.253 . S
O117 Mg113 2.117 . S
O117 C123 1.250 . S
C118 O124 1.248 . S
C118 O125 1.264 . S
C119 O105 1.253 . S
C119 O107 1.260 . S
C120 O109 1.279 . S
C120 O110 1.250 . S
C121 O111 1.264 . S
C121 O115 1.248 . S
C122 O112 1.260 . S
C122 O116 1.253 . S
C123 O114 1.279 . S
C123 O117 1.250 . S
O124 Mg106 2.030 . S
O124 C118 1.248 . S
O125 Mg108 2.079 . S
O125 C118 1.264 . S
H126 C127 0.951 . S
C127 H126 0.951 . S
C127 C133 1.265 . S
H128 C133 0.950 . S
H129 C137 0.949 . S
H130 C138 0.950 . S
H131 C139 0.951 . S
H132 C140 0.951 . S
C133 C127 1.265 . S
C133 H128 0.950 . S
C133 C134 1.478 . S
C134 C133 1.478 . S
C134 C135 1.397 . S
C134 C151 1.394 . S
C135 C134 1.397 . S
C135 C136 1.438 . S
C135 C140 1.429 . S
C136 C135 1.438 . S
C136 C137 1.428 . S
C136 C149 1.394 . S
C137 H129 0.949 . S
C137 C136 1.428 . S
C137 C138 1.345 . S
C138 H130 0.950 . S
C138 C137 1.345 . S
C138 C139 1.424 . S
C139 H131 0.951 . S
C139 C138 1.424 . S
C139 C140 1.347 . S
C140 H132 0.951 . S
C140 C135 1.429 . S
C140 C139 1.347 . S
H141 C142 0.951 . S
C142 H141 0.951 . S
C142 C148 1.265 . S
H143 C148 0.950 . S
H144 C152 0.949 . S
H145 C153 0.950 . S
H146 C154 0.951 . S
H147 C155 0.951 . S
C148 C142 1.265 . S
C148 H143 0.950 . S
C148 C149 1.478 . S
C149 C136 1.394 . S
C149 C148 1.478 . S
C149 C150 1.397 . S
C150 C149 1.397 . S
C150 C151 1.438 . S
C150 C155 1.429 . S
C151 C134 1.394 . S
C151 C150 1.438 . S
C151 C152 1.428 . S
C152 H144 0.949 . S
C152 C151 1.428 . S
C152 C153 1.345 . S
C153 H145 0.950 . S
C153 C152 1.345 . S
C153 C154 1.424 . S
C154 H146 0.951 . S
C154 C153 1.424 . S
C154 C155 1.347 . S
C155 H147 0.951 . S
C155 C150 1.429 . S
C155 C154 1.347 . S
H156 C157 0.951 . S
C157 H156 0.951 . S
C157 C163 1.265 . S
H158 C163 0.950 . S
H159 C167 0.949 . S
H160 C168 0.950 . S
H161 C169 0.951 . S
H162 C170 0.951 . S
C163 C157 1.265 . S
C163 H158 0.950 . S
C163 C164 1.478 . S
C164 C163 1.478 . S
C164 C165 1.397 . S
C164 C181 1.394 . S
C165 C164 1.397 . S
C165 C166 1.438 . S
C165 C170 1.429 . S
C166 C165 1.438 . S
C166 C167 1.428 . S
C166 C179 1.394 . S
C167 H159 0.949 . S
C167 C166 1.428 . S
C167 C168 1.345 . S
C168 H160 0.950 . S
C168 C167 1.345 . S
C168 C169 1.424 . S
C169 H161 0.951 . S
C169 C168 1.424 . S
C169 C170 1.347 . S
C170 H162 0.951 . S
C170 C165 1.429 . S
C170 C169 1.347 . S
H171 C172 0.951 . S
C172 H171 0.951 . S
C172 C178 1.265 . S
H173 C178 0.950 . S
H174 C182 0.949 . S
H175 C183 0.950 . S
H176 C184 0.951 . S
H177 C185 0.951 . S
C178 C172 1.265 . S
C178 H173 0.950 . S
C178 C179 1.478 . S
C179 C166 1.394 . S
C179 C178 1.478 . S
C179 C180 1.397 . S
C180 C179 1.397 . S
C180 C181 1.438 . S
C180 C185 1.429 . S
C181 C164 1.394 . S
C181 C180 1.438 . S
C181 C182 1.428 . S
C182 H174 0.949 . S
C182 C181 1.428 . S
C182 C183 1.345 . S
C183 H175 0.950 . S
C183 C182 1.345 . S
C183 C184 1.424 . S
C184 H176 0.951 . S
C184 C183 1.424 . S
C184 C185 1.347 . S
C185 H177 0.951 . S
C185 C180 1.429 . S
C185 C184 1.347 . S
H186 C187 0.951 . S
C187 H186 0.951 . S
C187 C193 1.265 . S
H188 C193 0.950 . S
H189 C197 0.949 . S
H190 C198 0.950 . S
H191 C199 0.951 . S
H192 C200 0.951 . S
C193 C187 1.265 . S
C193 H188 0.950 . S
C193 C194 1.478 . S
C194 C193 1.478 . S
C194 C195 1.397 . S
C194 C211 1.394 . S
C195 C194 1.397 . S
C195 C196 1.438 . S
C195 C200 1.429 . S
C196 C195 1.438 . S
C196 C197 1.428 . S
C196 C209 1.394 . S
C197 H189 0.949 . S
C197 C196 1.428 . S
C197 C198 1.345 . S
C198 H190 0.950 . S
C198 C197 1.345 . S
C198 C199 1.424 . S
C199 H191 0.951 . S
C199 C198 1.424 . S
C199 C200 1.347 . S
C200 H192 0.951 . S
C200 C195 1.429 . S
C200 C199 1.347 . S
H201 C202 0.951 . S
C202 H201 0.951 . S
C202 C208 1.265 . S
H203 C208 0.950 . S
H204 C212 0.949 . S
H205 C213 0.950 . S
H206 C214 0.951 . S
H207 C215 0.951 . S
C208 C202 1.265 . S
C208 H203 0.950 . S
C208 C209 1.478 . S
C209 C196 1.394 . S
C209 C208 1.478 . S
C209 C210 1.397 . S
C210 C209 1.397 . S
C210 C211 1.438 . S
C210 C215 1.429 . S
C211 C194 1.394 . S
C211 C210 1.438 . S
C211 C212 1.428 . S
C212 H204 0.949 . S
C212 C211 1.428 . S
C212 C213 1.345 . S
C213 H205 0.950 . S
C213 C212 1.345 . S
C213 C214 1.424 . S
C214 H206 0.951 . S
C214 C213 1.424 . S
C214 C215 1.347 . S
C215 H207 0.951 . S
C215 C210 1.429 . S
C215 C214 1.347 . S
H216 C217 0.951 . S
C217 H216 0.951 . S
C217 C223 1.265 . S
H218 C223 0.950 . S
H219 C227 0.949 . S
H220 C228 0.950 . S
H221 C229 0.951 . S
H222 C230 0.951 . S
C223 C217 1.265 . S
C223 H218 0.950 . S
C223 C224 1.478 . S
C224 C223 1.478 . S
C224 C225 1.397 . S
C224 C241 1.394 . S
C225 C224 1.397 . S
C225 C226 1.438 . S
C225 C230 1.429 . S
C226 C225 1.438 . S
C226 C227 1.428 . S
C226 C239 1.394 . S
C227 H219 0.949 . S
C227 C226 1.428 . S
C227 C228 1.345 . S
C228 H220 0.950 . S
C228 C227 1.345 . S
C228 C229 1.424 . S
C229 H221 0.951 . S
C229 C228 1.424 . S
C229 C230 1.347 . S
C230 H222 0.951 . S
C230 C225 1.429 . S
C230 C229 1.347 . S
H231 C232 0.951 . S
C232 H231 0.951 . S
C232 C238 1.265 . S
H233 C238 0.950 . S
H234 C242 0.949 . S
H235 C243 0.950 . S
H236 C244 0.951 . S
H237 C245 0.951 . S
C238 C232 1.265 . S
C238 H233 0.950 . S
C238 C239 1.478 . S
C239 C226 1.394 . S
C239 C238 1.478 . S
C239 C240 1.397 . S
C240 C239 1.397 . S
C240 C241 1.438 . S
C240 C245 1.429 . S
C241 C224 1.394 . S
C241 C240 1.438 . S
C241 C242 1.428 . S
C242 H234 0.949 . S
C242 C241 1.428 . S
C242 C243 1.345 . S
C243 H235 0.950 . S
C243 C242 1.345 . S
C243 C244 1.424 . S
C244 H236 0.951 . S
C244 C243 1.424 . S
C244 C245 1.347 . S
C245 H237 0.951 . S
C245 C240 1.429 . S
C245 C244 1.347 . S
H246 C247 0.951 . S
C247 H246 0.951 . S
C247 C253 1.265 . S
H248 C253 0.950 . S
H249 C257 0.949 . S
H250 C258 0.950 . S
H251 C259 0.951 . S
H252 C260 0.951 . S
C253 C247 1.265 . S
C253 H248 0.950 . S
C253 C254 1.478 . S
C254 C253 1.478 . S
C254 C255 1.397 . S
C254 C271 1.394 . S
C255 C254 1.397 . S
C255 C256 1.438 . S
C255 C260 1.429 . S
C256 C255 1.438 . S
C256 C257 1.428 . S
C256 C269 1.394 . S
C257 H249 0.949 . S
C257 C256 1.428 . S
C257 C258 1.345 . S
C258 H250 0.950 . S
C258 C257 1.345 . S
C258 C259 1.424 . S
C259 H251 0.951 . S
C259 C258 1.424 . S
C259 C260 1.347 . S
C260 H252 0.951 . S
C260 C255 1.429 . S
C260 C259 1.347 . S
H261 C262 0.951 . S
C262 H261 0.951 . S
C262 C268 1.265 . S
H263 C268 0.950 . S
H264 C272 0.949 . S
H265 C273 0.950 . S
H266 C274 0.951 . S
H267 C275 0.951 . S
C268 C262 1.265 . S
C268 H263 0.950 . S
C268 C269 1.478 . S
C269 C256 1.394 . S
C269 C268 1.478 . S
C269 C270 1.397 . S
C270 C269 1.397 . S
C270 C271 1.438 . S
C270 C275 1.429 . S
C271 C254 1.394 . S
C271 C270 1.438 . S
C271 C272 1.428 . S
C272 H264 0.949 . S
C272 C271 1.428 . S
C272 C273 1.345 . S
C273 H265 0.950 . S
C273 C272 1.345 . S
C273 C274 1.424 . S
C274 H266 0.951 . S
C274 C273 1.424 . S
C274 C275 1.347 . S
C275 H267 0.951 . S
C275 C270 1.429 . S
C275 C274 1.347 . S
H276 C277 0.951 . S
C277 H276 0.951 . S
C277 C283 1.265 . S
H278 C283 0.950 . S
H279 C287 0.949 . S
H280 C288 0.950 . S
H281 C289 0.951 . S
H282 C290 0.951 . S
C283 C277 1.265 . S
C283 H278 0.950 . S
C283 C284 1.478 . S
C284 C283 1.478 . S
C284 C285 1.397 . S
C284 C301 1.394 . S
C285 C284 1.397 . S
C285 C286 1.438 . S
C285 C290 1.429 . S
C286 C285 1.438 . S
C286 C287 1.428 . S
C286 C299 1.394 . S
C287 H279 0.949 . S
C287 C286 1.428 . S
C287 C288 1.345 . S
C288 H280 0.950 . S
C288 C287 1.345 . S
C288 C289 1.424 . S
C289 H281 0.951 . S
C289 C288 1.424 . S
C289 C290 1.347 . S
C290 H282 0.951 . S
C290 C285 1.429 . S
C290 C289 1.347 . S
H291 C292 0.951 . S
C292 H291 0.951 . S
C292 C298 1.265 . S
H293 C298 0.950 . S
H294 C302 0.949 . S
H295 C303 0.950 . S
H296 C304 0.951 . S
H297 C305 0.951 . S
C298 C292 1.265 . S
C298 H293 0.950 . S
C298 C299 1.478 . S
C299 C286 1.394 . S
C299 C298 1.478 . S
C299 C300 1.397 . S
C300 C299 1.397 . S
C300 C301 1.438 . S
C300 C305 1.429 . S
C301 C284 1.394 . S
C301 C300 1.438 . S
C301 C302 1.428 . S
C302 H294 0.949 . S
C302 C301 1.428 . S
C302 C303 1.345 . S
C303 H295 0.950 . S
C303 C302 1.345 . S
C303 C304 1.424 . S
C304 H296 0.951 . S
C304 C303 1.424 . S
C304 C305 1.347 . S
C305 H297 0.951 . S
C305 C300 1.429 . S
C305 C304 1.347 . S
H306 C307 0.951 . S
C307 H306 0.951 . S
C307 C313 1.265 . S
H308 C313 0.950 . S
H309 C317 0.949 . S
H310 C318 0.950 . S
H311 C319 0.951 . S
H312 C320 0.951 . S
C313 C307 1.265 . S
C313 H308 0.950 . S
C313 C314 1.478 . S
C314 C313 1.478 . S
C314 C315 1.397 . S
C314 C331 1.394 1_554 S
C315 C314 1.397 . S
C315 C316 1.438 . S
C315 C320 1.429 . S
C316 C315 1.438 . S
C316 C317 1.428 . S
C316 C329 1.394 . S
C317 H309 0.949 . S
C317 C316 1.428 . S
C317 C318 1.345 . S
C318 H310 0.950 . S
C318 C317 1.345 . S
C318 C319 1.424 . S
C319 H311 0.951 . S
C319 C318 1.424 . S
C319 C320 1.347 . S
C320 H312 0.951 . S
C320 C315 1.429 . S
C320 C319 1.347 . S
H321 C322 0.951 . S
C322 H321 0.951 . S
C322 C328 1.265 . S
H323 C328 0.950 . S
H324 C332 0.949 . S
H325 C333 0.950 . S
H326 C334 0.951 . S
H327 C335 0.951 . S
C328 C322 1.265 . S
C328 H323 0.950 . S
C328 C329 1.478 . S
C329 C316 1.394 . S
C329 C328 1.478 . S
C329 C330 1.397 1_554 S
C330 C329 1.397 1_556 S
C330 C331 1.438 . S
C330 C335 1.429 . S
C331 C314 1.394 1_556 S
C331 C330 1.438 . S
C331 C332 1.428 . S
C332 H324 0.949 . S
C332 C331 1.428 . S
C332 C333 1.345 . S
C333 H325 0.950 . S
C333 C332 1.345 . S
C333 C334 1.424 . S
C334 H326 0.951 . S
C334 C333 1.424 . S
C334 C335 1.347 . S
C335 H327 0.951 . S
C335 C330 1.429 . S
C335 C334 1.347 . S
H336 C337 0.951 . S
C337 H336 0.951 . S
C337 C343 1.265 . S
H338 C343 0.950 . S
H339 C347 0.949 . S
H340 C348 0.950 . S
H341 C349 0.951 . S
H342 C350 0.951 . S
C343 C337 1.265 . S
C343 H338 0.950 . S
C343 C344 1.478 . S
C344 C343 1.478 . S
C344 C345 1.397 . S
C344 C361 1.394 . S
C345 C344 1.397 . S
C345 C346 1.438 1_455 S
C345 C350 1.429 . S
C346 C345 1.438 1_655 S
C346 C347 1.428 . S
C346 C359 1.394 . S
C347 H339 0.949 . S
C347 C346 1.428 . S
C347 C348 1.345 1_655 S
C348 H340 0.950 . S
C348 C347 1.345 1_455 S
C348 C349 1.424 . S
C349 H341 0.951 . S
C349 C348 1.424 . S
C349 C350 1.347 . S
C350 H342 0.951 . S
C350 C345 1.429 . S
C350 C349 1.347 . S
H351 C352 0.951 . S
C352 H351 0.951 . S
C352 C358 1.265 . S
H353 C358 0.950 . S
H354 C362 0.949 . S
H355 C363 0.950 . S
H356 C364 0.951 . S
H357 C365 0.951 . S
C358 C352 1.265 . S
C358 H353 0.950 . S
C358 C359 1.478 . S
C359 C346 1.394 . S
C359 C358 1.478 . S
C359 C360 1.397 . S
C360 C359 1.397 . S
C360 C361 1.438 1_655 S
C360 C365 1.429 . S
C361 C344 1.394 . S
C361 C360 1.438 1_455 S
C361 C362 1.428 . S
C362 H354 0.949 . S
C362 C361 1.428 . S
C362 C363 1.345 1_455 S
C363 H355 0.950 . S
C363 C362 1.345 1_655 S
C363 C364 1.424 . S
C364 H356 0.951 . S
C364 C363 1.424 . S
C364 C365 1.347 . S
C365 H357 0.951 . S
C365 C360 1.429 . S
C365 C364 1.347 . S
H366 C367 0.951 . S
C367 H366 0.951 . S
C367 C373 1.265 . S
H368 C373 0.950 . S
H369 C377 0.949 . S
H370 C378 0.950 . S
H371 C379 0.951 . S
H372 C380 0.951 . S
C373 C367 1.265 . S
C373 H368 0.950 . S
C373 C374 1.478 . S
C374 C373 1.478 . S
C374 C375 1.397 . S
C374 C391 1.394 . S
C375 C374 1.397 . S
C375 C376 1.438 1_545 S
C375 C380 1.429 . S
C376 C375 1.438 1_565 S
C376 C377 1.428 . S
C376 C389 1.394 . S
C377 H369 0.949 . S
C377 C376 1.428 . S
C377 C378 1.345 1_565 S
C378 H370 0.950 . S
C378 C377 1.345 1_545 S
C378 C379 1.424 . S
C379 H371 0.951 . S
C379 C378 1.424 . S
C379 C380 1.347 . S
C380 H372 0.951 . S
C380 C375 1.429 . S
C380 C379 1.347 . S
H381 C382 0.951 . S
C382 H381 0.951 . S
C382 C388 1.265 . S
H383 C388 0.950 . S
H384 C392 0.949 . S
H385 C393 0.950 . S
H386 C394 0.951 . S
H387 C395 0.951 . S
C388 C382 1.265 . S
C388 H383 0.950 . S
C388 C389 1.478 . S
C389 C376 1.394 . S
C389 C388 1.478 . S
C389 C390 1.397 . S
C390 C389 1.397 . S
C390 C391 1.438 1_565 S
C390 C395 1.429 . S
C391 C374 1.394 . S
C391 C390 1.438 1_545 S
C391 C392 1.428 . S
C392 H384 0.949 . S
C392 C391 1.428 . S
C392 C393 1.345 1_545 S
C393 H385 0.950 . S
C393 C392 1.345 1_565 S
C393 C394 1.424 . S
C394 H386 0.951 . S
C394 C393 1.424 . S
C394 C395 1.347 . S
C395 H387 0.951 . S
C395 C390 1.429 . S
C395 C394 1.347 . S
H396 C397 0.951 . S
C397 H396 0.951 . S
C397 C403 1.265 . S
H398 C403 0.950 . S
H399 C407 0.949 . S
H400 C408 0.950 . S
H401 C409 0.951 . S
H402 C410 0.951 . S
C403 C397 1.265 . S
C403 H398 0.950 . S
C403 C404 1.478 . S
C404 C403 1.478 . S
C404 C405 1.397 . S
C404 C421 1.394 . S
C405 C404 1.397 . S
C405 C406 1.438 . S
C405 C410 1.429 . S
C406 C405 1.438 . S
C406 C407 1.428 . S
C406 C419 1.394 . S
C407 H399 0.949 . S
C407 C406 1.428 . S
C407 C408 1.345 . S
C408 H400 0.950 . S
C408 C407 1.345 . S
C408 C409 1.424 . S
C409 H401 0.951 . S
C409 C408 1.424 . S
C409 C410 1.347 . S
C410 H402 0.951 . S
C410 C405 1.429 . S
C410 C409 1.347 . S
H411 C412 0.951 . S
C412 H411 0.951 . S
C412 C418 1.265 . S
H413 C418 0.950 . S
H414 C422 0.949 . S
H415 C423 0.950 . S
H416 C424 0.951 . S
H417 C425 0.951 . S
C418 C412 1.265 . S
C418 H413 0.950 . S
C418 C419 1.478 . S
C419 C406 1.394 . S
C419 C418 1.478 . S
C419 C420 1.397 . S
C420 C419 1.397 . S
C420 C421 1.438 . S
C420 C425 1.429 . S
C421 C404 1.394 . S
C421 C420 1.438 . S
C421 C422 1.428 . S
C422 H414 0.949 . S
C422 C421 1.428 . S
C422 C423 1.345 . S
C423 H415 0.950 . S
C423 C422 1.345 . S
C423 C424 1.424 . S
C424 H416 0.951 . S
C424 C423 1.424 . S
C424 C425 1.347 . S
C425 H417 0.951 . S
C425 C420 1.429 . S
C425 C424 1.347 . S
H426 C427 0.951 . S
C427 H426 0.951 . S
C427 C433 1.265 . S
H428 C433 0.950 . S
H429 C437 0.949 . S
H430 C438 0.950 . S
H431 C439 0.951 . S
H432 C440 0.951 . S
C433 C427 1.265 . S
C433 H428 0.950 . S
C433 C434 1.478 . S
C434 C433 1.478 . S
C434 C435 1.397 . S
C434 C451 1.394 1_556 S
C435 C434 1.397 . S
C435 C436 1.438 1_455 S
C435 C440 1.429 . S
C436 C435 1.438 1_655 S
C436 C437 1.428 . S
C436 C449 1.394 . S
C437 H429 0.949 . S
C437 C436 1.428 . S
C437 C438 1.345 1_655 S
C438 H430 0.950 . S
C438 C437 1.345 1_455 S
C438 C439 1.424 . S
C439 H431 0.951 . S
C439 C438 1.424 . S
C439 C440 1.347 . S
C440 H432 0.951 . S
C440 C435 1.429 . S
C440 C439 1.347 . S
H441 C442 0.951 . S
C442 H441 0.951 . S
C442 C448 1.265 . S
H443 C448 0.950 . S
H444 C452 0.949 . S
H445 C453 0.950 . S
H446 C454 0.951 . S
H447 C455 0.951 . S
C448 C442 1.265 . S
C448 H443 0.950 . S
C448 C449 1.478 . S
C449 C436 1.394 . S
C449 C448 1.478 . S
C449 C450 1.397 1_556 S
C450 C449 1.397 1_554 S
C450 C451 1.438 1_655 S
C450 C455 1.429 . S
C451 C434 1.394 1_554 S
C451 C450 1.438 1_455 S
C451 C452 1.428 . S
C452 H444 0.949 . S
C452 C451 1.428 . S
C452 C453 1.345 1_455 S
C453 H445 0.950 . S
C453 C452 1.345 1_655 S
C453 C454 1.424 . S
C454 H446 0.951 . S
C454 C453 1.424 . S
C454 C455 1.347 . S
C455 H447 0.951 . S
C455 C450 1.429 . S
C455 C454 1.347 . S
H456 C457 0.951 . S
C457 H456 0.951 . S
C457 C463 1.265 . S
H458 C463 0.959 . S
H459 C467 0.949 . S
H460 C468 0.950 . S
H461 C469 0.951 . S
H462 C470 0.951 . S
C463 C457 1.265 . S
C463 H458 0.959 . S
C463 C464 1.478 . S
C464 C463 1.478 . S
C464 C465 1.397 1_565 S
C464 C481 1.394 . S
C465 C464 1.397 1_545 S
C465 C466 1.438 . S
C465 C470 1.429 . S
C466 C465 1.438 . S
C466 C467 1.428 . S
C466 C479 1.394 . S
C467 H459 0.949 . S
C467 C466 1.428 . S
C467 C468 1.345 . S
C468 H460 0.950 . S
C468 C467 1.345 . S
C468 C469 1.424 . S
C469 H461 0.951 . S
C469 C468 1.424 . S
C469 C470 1.347 . S
C470 H462 0.951 . S
C470 C465 1.429 . S
C470 C469 1.347 . S
H471 C472 0.951 . S
C472 H471 0.951 . S
C472 C478 1.265 . S
H473 C478 0.959 . S
H474 C482 0.949 . S
H475 C483 0.950 . S
H476 C484 0.951 . S
H477 C485 0.951 . S
C478 C472 1.265 . S
C478 H473 0.959 . S
C478 C479 1.478 . S
C479 C466 1.394 . S
C479 C478 1.478 . S
C479 C480 1.397 1_545 S
C480 C479 1.397 1_565 S
C480 C481 1.438 . S
C480 C485 1.429 . S
C481 C464 1.394 . S
C481 C480 1.438 . S
C481 C482 1.428 . S
C482 H474 0.949 . S
C482 C481 1.428 . S
C482 C483 1.345 . S
C483 H475 0.950 . S
C483 C482 1.345 . S
C483 C484 1.424 . S
C484 H476 0.951 . S
C484 C483 1.424 . S
C484 C485 1.347 . S
C485 H477 0.951 . S
C485 C480 1.429 . S
C485 C484 1.347 . S
H486 C487 0.951 . S
C487 H486 0.951 . S
C487 C493 1.265 . S
H488 C493 0.950 . S
H489 C497 0.949 . S
H490 C498 0.950 . S
H491 C499 0.951 . S
H492 C500 0.951 . S
C493 C487 1.265 . S
C493 H488 0.950 . S
C493 C494 1.478 . S
C494 C493 1.478 . S
C494 C495 1.397 . S
C494 C511 1.394 . S
C495 C494 1.397 . S
C495 C496 1.438 . S
C495 C500 1.429 . S
C496 C495 1.438 . S
C496 C497 1.428 . S
C496 C509 1.394 . S
C497 H489 0.949 . S
C497 C496 1.428 . S
C497 C498 1.345 . S
C498 H490 0.950 . S
C498 C497 1.345 . S
C498 C499 1.424 . S
C499 H491 0.951 . S
C499 C498 1.424 . S
C499 C500 1.347 . S
C500 H492 0.951 . S
C500 C495 1.429 . S
C500 C499 1.347 . S
H501 C502 0.951 . S
C502 H501 0.951 . S
C502 C508 1.265 . S
H503 C508 0.950 . S
H504 C512 0.949 . S
H505 C513 0.950 . S
H506 C514 0.951 . S
H507 C515 0.951 . S
C508 C502 1.265 . S
C508 H503 0.950 . S
C508 C509 1.478 . S
C509 C496 1.394 . S
C509 C508 1.478 . S
C509 C510 1.397 . S
C510 C509 1.397 . S
C510 C511 1.438 . S
C510 C515 1.429 . S
C511 C494 1.394 . S
C511 C510 1.438 . S
C511 C512 1.428 . S
C512 H504 0.949 . S
C512 C511 1.428 . S
C512 C513 1.345 . S
C513 H505 0.950 . S
C513 C512 1.345 . S
C513 C514 1.424 . S
C514 H506 0.951 . S
C514 C513 1.424 . S
C514 C515 1.347 . S
C515 H507 0.951 . S
C515 C510 1.429 . S
C515 C514 1.347 . S
H516 C517 0.951 . S
C517 H516 0.951 . S
C517 C523 1.265 . S
H518 C523 0.950 . S
H519 C527 0.949 1_455 S
H520 C528 0.950 . S
H521 C529 0.951 . S
H522 C530 0.951 . S
C523 C517 1.265 . S
C523 H518 0.950 . S
C523 C524 1.478 . S
C524 C523 1.478 . S
C524 C525 1.397 . S
C524 C541 1.394 1_655 S
C525 C524 1.397 . S
C525 C526 1.438 . S
C525 C530 1.429 . S
C526 C525 1.438 . S
C526 C527 1.428 . S
C526 C539 1.394 1_655 S
C527 H519 0.949 1_655 S
C527 C526 1.428 . S
C527 C528 1.345 . S
C528 H520 0.950 . S
C528 C527 1.345 . S
C528 C529 1.424 . S
C529 H521 0.951 . S
C529 C528 1.424 . S
C529 C530 1.347 . S
C530 H522 0.951 . S
C530 C525 1.429 . S
C530 C529 1.347 . S
H531 C532 0.951 . S
C532 H531 0.951 . S
C532 C538 1.265 . S
H533 C538 0.950 . S
H534 C542 0.949 1_655 S
H535 C543 0.950 . S
H536 C544 0.951 . S
H537 C545 0.951 . S
C538 C532 1.265 . S
C538 H533 0.950 . S
C538 C539 1.478 . S
C539 C526 1.394 1_455 S
C539 C538 1.478 . S
C539 C540 1.397 . S
C540 C539 1.397 . S
C540 C541 1.438 . S
C540 C545 1.429 . S
C541 C524 1.394 1_455 S
C541 C540 1.438 . S
C541 C542 1.428 . S
C542 H534 0.949 1_455 S
C542 C541 1.428 . S
C542 C543 1.345 . S
C543 H535 0.950 . S
C543 C542 1.345 . S
C543 C544 1.424 . S
C544 H536 0.951 . S
C544 C543 1.424 . S
C544 C545 1.347 . S
C545 H537 0.951 . S
C545 C540 1.429 . S
C545 C544 1.347 . S
H546 C547 0.951 . S
C547 H546 0.951 . S
C547 C553 1.265 . S
H548 C553 0.950 . S
H549 C557 0.949 . S
H550 C558 0.950 . S
H551 C559 0.951 . S
H552 C560 0.951 1_565 S
C553 C547 1.265 . S
C553 H548 0.950 . S
C553 C554 1.478 . S
C554 C553 1.478 . S
C554 C555 1.397 1_565 S
C554 C571 1.394 . S
C555 C554 1.397 1_545 S
C555 C556 1.438 . S
C555 C560 1.429 . S
C556 C555 1.438 . S
C556 C557 1.428 . S
C556 C569 1.394 . S
C557 H549 0.949 . S
C557 C556 1.428 . S
C557 C558 1.345 . S
C558 H550 0.950 . S
C558 C557 1.345 . S
C558 C559 1.424 . S
C559 H551 0.951 . S
C559 C558 1.424 . S
C559 C560 1.347 . S
C560 H552 0.951 1_545 S
C560 C555 1.429 . S
C560 C559 1.347 . S
H561 C562 0.951 . S
C562 H561 0.951 . S
C562 C568 1.265 . S
H563 C568 0.950 . S
H564 C572 0.949 . S
H565 C573 0.950 . S
H566 C574 0.951 . S
H567 C575 0.951 1_545 S
C568 C562 1.265 . S
C568 H563 0.950 . S
C568 C569 1.478 . S
C569 C556 1.394 . S
C569 C568 1.478 . S
C569 C570 1.397 1_545 S
C570 C569 1.397 1_565 S
C570 C571 1.437 . S
C570 C575 1.430 . S
C571 C554 1.394 . S
C571 C570 1.437 . S
C571 C572 1.428 . S
C572 H564 0.949 . S
C572 C571 1.428 . S
C572 C573 1.345 . S
C573 H565 0.950 . S
C573 C572 1.345 . S
C573 C574 1.424 . S
C574 H566 0.951 . S
C574 C573 1.424 . S
C574 C575 1.347 . S
C575 H567 0.951 1_565 S
C575 C570 1.430 . S
C575 C574 1.347 . S
H576 C577 0.951 . S
C577 H576 0.951 . S
C577 C583 1.265 . S
H578 C583 0.950 . S
H579 C587 0.949 . S
H580 C588 0.950 . S
H581 C589 0.951 . S
H582 C590 0.951 . S
C583 C577 1.265 . S
C583 H578 0.950 . S
C583 C584 1.478 . S
C584 C583 1.478 . S
C584 C585 1.397 . S
C584 C601 1.394 . S
C585 C584 1.397 . S
C585 C586 1.438 . S
C585 C590 1.429 . S
C586 C585 1.438 . S
C586 C587 1.428 . S
C586 C599 1.394 . S
C587 H579 0.949 . S
C587 C586 1.428 . S
C587 C588 1.345 . S
C588 H580 0.950 . S
C588 C587 1.345 . S
C588 C589 1.424 . S
C589 H581 0.951 . S
C589 C588 1.424 . S
C589 C590 1.347 . S
C590 H582 0.951 . S
C590 C585 1.429 . S
C590 C589 1.347 . S
H591 C592 0.951 . S
C592 H591 0.951 . S
C592 C598 1.265 . S
H593 C598 0.950 . S
H594 C602 0.949 . S
H595 C603 0.950 . S
H596 C604 0.951 . S
H597 C605 0.951 . S
C598 C592 1.265 . S
C598 H593 0.950 . S
C598 C599 1.478 . S
C599 C586 1.394 . S
C599 C598 1.478 . S
C599 C600 1.397 . S
C600 C599 1.397 . S
C600 C601 1.438 . S
C600 C605 1.429 . S
C601 C584 1.394 . S
C601 C600 1.438 . S
C601 C602 1.428 . S
C602 H594 0.949 . S
C602 C601 1.428 . S
C602 C603 1.345 . S
C603 H595 0.950 . S
C603 C602 1.345 . S
C603 C604 1.424 . S
C604 H596 0.951 . S
C604 C603 1.424 . S
C604 C605 1.347 . S
C605 H597 0.951 . S
C605 C600 1.429 . S
C605 C604 1.347 . S
H606 C607 0.951 . S
C607 H606 0.951 . S
C607 C613 1.265 . S
H608 C613 0.950 . S
H609 C617 0.949 . S
H610 C618 0.950 . S
H611 C619 0.951 . S
H612 C620 0.951 . S
C613 C607 1.265 . S
C613 H608 0.950 . S
C613 C614 1.478 . S
C614 C613 1.478 . S
C614 C615 1.397 1_455 S
C614 C631 1.394 . S
C615 C614 1.397 1_655 S
C615 C616 1.438 . S
C615 C620 1.429 . S
C616 C615 1.438 . S
C616 C617 1.428 . S
C616 C629 1.394 . S
C617 H609 0.949 . S
C617 C616 1.428 . S
C617 C618 1.345 . S
C618 H610 0.950 . S
C618 C617 1.345 . S
C618 C619 1.424 . S
C619 H611 0.951 . S
C619 C618 1.424 . S
C619 C620 1.347 . S
C620 H612 0.951 . S
C620 C615 1.429 . S
C620 C619 1.347 . S
H621 C622 0.951 . S
C622 H621 0.951 . S
C622 C628 1.265 . S
H623 C628 0.950 . S
H624 C632 0.949 . S
H625 C633 0.950 . S
H626 C634 0.951 . S
H627 C635 0.937 1_655 S
C628 C622 1.265 . S
C628 H623 0.950 . S
C628 C629 1.478 . S
C629 C616 1.394 . S
C629 C628 1.478 . S
C629 C630 1.397 1_655 S
C630 C629 1.397 1_455 S
C630 C631 1.438 . S
C630 C635 1.429 . S
C631 C614 1.394 . S
C631 C630 1.438 . S
C631 C632 1.428 . S
C632 H624 0.949 . S
C632 C631 1.428 . S
C632 C633 1.345 . S
C633 H625 0.950 . S
C633 C632 1.345 . S
C633 C634 1.424 . S
C634 H626 0.951 . S
C634 C633 1.424 . S
C634 C635 1.347 . S
C635 H627 0.937 1_455 S
C635 C630 1.429 . S
C635 C634 1.347 . S
H636 C637 0.951 . S
C637 H636 0.951 . S
C637 C643 1.265 . S
H638 C643 0.950 . S
H639 C647 0.949 . S
H640 C648 0.950 . S
H641 C649 0.951 . S
H642 C650 0.951 . S
C643 C637 1.265 . S
C643 H638 0.950 . S
C643 C644 1.478 . S
C644 C643 1.478 . S
C644 C645 1.397 1_545 S
C644 C661 1.394 . S
C645 C644 1.397 1_565 S
C645 C646 1.438 . S
C645 C650 1.429 . S
C646 C645 1.438 . S
C646 C647 1.428 . S
C646 C659 1.394 . S
C647 H639 0.949 . S
C647 C646 1.428 . S
C647 C648 1.345 . S
C648 H640 0.950 . S
C648 C647 1.345 . S
C648 C649 1.424 . S
C649 H641 0.951 . S
C649 C648 1.424 . S
C649 C650 1.347 . S
C650 H642 0.951 . S
C650 C645 1.429 . S
C650 C649 1.347 . S
H651 C652 0.951 . S
C652 H651 0.951 . S
C652 C658 1.265 . S
H653 C658 0.950 . S
H654 C662 0.949 . S
H655 C663 0.950 . S
H656 C664 0.951 . S
H657 C665 0.951 . S
C658 C652 1.265 . S
C658 H653 0.950 . S
C658 C659 1.478 . S
C659 C646 1.394 . S
C659 C658 1.478 . S
C659 C660 1.397 1_565 S
C660 C659 1.397 1_545 S
C660 C661 1.438 . S
C660 C665 1.429 . S
C661 C644 1.394 . S
C661 C660 1.438 . S
C661 C662 1.428 . S
C662 H654 0.949 . S
C662 C661 1.428 . S
C662 C663 1.345 . S
C663 H655 0.950 . S
C663 C662 1.345 . S
C663 C664 1.424 . S
C664 H656 0.951 . S
C664 C663 1.424 . S
C664 C665 1.347 . S
C665 H657 0.951 . S
C665 C660 1.429 . S
C665 C664 1.347 . S
C127 C97 0.943 . S
C142 C15 0.796 . S
C157 C121 0.840 . S
C172 C39 0.728 . S
C187 C13 0.899 . S
C202 C57 0.972 . S
C217 C37 0.865 . S
C232 C81 0.950 . S
C247 C55 0.948 . S
C262 C99 0.811 . S
C277 C79 0.958 . S
C292 C123 0.936 . S
C307 C14 1.140 . S
C322 C80 1.143 . S
C337 C98 1.143 . S
C352 C38 1.141 . S
C367 C122 1.143 . S
C382 C56 1.141 . S
C397 C58 1.126 . S
C412 C118 1.125 . S
C427 C16 1.125 . S
C442 C76 1.127 . S
C457 C100 1.107 . S
C472 C34 1.107 . S
C487 C119 1.036 . S
C502 C18 1.110 . S
C517 C36 1.128 . S
C532 C17 1.094 . S
C547 C60 1.049 . S
C562 C35 1.134 . S
C577 C59 1.106 . S
C592 C78 1.120 . S
C607 C102 0.995 . S
C622 C77 1.074 . S
C637 C120 0.996 . S
C652 C101 1.106 . S
