# Generated by pormake.
# Topology sxc, (6)-cn, num edge types: 1
# Building blocks:
#     Node 0, Type 0, BuildingBlock: BETDAH_clean_sbu_0, # of connection points: 6
#     Node 1, Type 0, BuildingBlock: BETDAH_clean_sbu_0, # of connection points: 6
#     Node 2, Type 0, BuildingBlock: BETDAH_clean_sbu_0, # of connection points: 6
#     Edge 3, Type (0, 0), BuildingBlock: XIVTED_clean_linker_0, # of connection points: 2
#     Edge 4, Type (0, 0), BuildingBlock: XIVTED_clean_linker_0, # of connection points: 2
#     Edge 5, Type (0, 0), BuildingBlock: XIVTED_clean_linker_0, # of connection points: 2
#     Edge 6, Type (0, 0), BuildingBlock: XIVTED_clean_linker_0, # of connection points: 2
#     Edge 7, Type (0, 0), BuildingBlock: XIVTED_clean_linker_0, # of connection points: 2
#     Edge 8, Type (0, 0), BuildingBlock: XIVTED_clean_linker_0, # of connection points: 2
#     Edge 9, Type (0, 0), BuildingBlock: XIVTED_clean_linker_0, # of connection points: 2
#     Edge 10, Type (0, 0), BuildingBlock: XIVTED_clean_linker_0, # of connection points: 2
#     Edge 11, Type (0, 0), BuildingBlock: XIVTED_clean_linker_0, # of connection points: 2
# Relax obj value: 0.319
# Max RMSD: 0.167
# Mean RMSD: 0.091
data_MOF--net-sxc--node1-BETDAH_clean_sbu_0--edge1-XIVTED_clean_linker_0
_symmetry_space_group_name_H-M    P1
_symmetry_Int_Tables_number       1
_symmetry_cell_setting            triclinic
loop_
_symmetry_equiv_pos_as_xyz
'x, y, z'
_cell_length_a     15.787682
_cell_length_b     16.329973
_cell_length_c     44.659
_cell_angle_alpha  94.693413
_cell_angle_beta   92.092933
_cell_angle_gamma 86.695275
loop_
_atom_site_label
_atom_site_type_symbol
_atom_site_fract_x
_atom_site_fract_y
_atom_site_fract_z
_atom_type_partial_charge
Ho0 Ho 0.19171 0.17686 0.00789 0.0
Ho1 Ho 1.01122 0.19603 0.01472 0.0
C2 C 0.10057 0.36754 0.01399 0.0
C3 C 0.34719 0.18851 0.99314 0.0
C4 C 0.39803 0.25988 0.99011 0.0
C5 C 0.36248 0.32936 0.97673 0.0
C6 C 0.4059 0.40164 0.97824 0.0
C7 C 0.48548 0.40598 0.99327 0.0
C8 C 0.52273 0.3351 0.00539 0.0
C9 C 0.47929 0.26259 0.00379 0.0
C10 C 0.14438 0.17071 0.06532 0.0
C11 C 0.10246 1.00535 0.00856 0.0
C12 C 0.85645 0.18365 0.03009 0.0
C13 C 0.80612 1.11176 0.03294 0.0
C14 C 0.84176 1.04263 0.04653 0.0
C15 C 0.79912 0.96986 0.0448 0.0
C16 C 0.72027 0.9646 0.02932 0.0
C17 C 0.68283 1.03511 0.01699 0.0
C18 C 0.72545 1.10813 0.01883 0.0
C19 C 1.05688 0.20509 0.9573 0.0
O20 O 0.16764 0.31837 0.00574 0.0
O21 O 1.03136 0.33361 0.02204 0.0
O22 O 0.32517 0.17945 0.02049 0.0
O23 O 0.28471 0.17698 0.97347 0.0
O24 O 0.20097 1.1208 0.05234 0.0
O25 O 0.11533 0.22209 0.04734 0.0
O26 O 1.03529 1.05449 0.01668 0.0
O27 O 0.17179 1.03928 0.00066 0.0
O28 O 0.87734 0.19406 0.00272 0.0
O29 O 0.91956 0.19468 0.04954 0.0
O30 O 0.99898 0.25238 0.97075 0.0
O31 O 0.08765 1.15282 0.97482 0.0
H32 H 0.29959 0.32913 0.9662 0.0
H33 H 0.37507 0.45533 0.96896 0.0
H34 H 0.58453 0.33627 0.01673 0.0
H35 H 0.50773 0.20962 0.01427 0.0
H36 H 0.90422 1.04349 0.05739 0.0
H37 H 0.83008 0.91649 0.05427 0.0
H38 H 0.62153 1.03327 0.00532 0.0
H39 H 0.69692 0.16078 0.00818 0.0
Ho40 Ho 0.07363 0.26829 0.34496 0.0
Ho41 Ho 0.08476 1.09722 0.3443 0.0
C42 C 0.90263 0.17267 0.34513 0.0
C43 C 1.02657 0.41525 0.33138 0.0
C44 C 0.99475 0.44041 0.30206 0.0
C45 C 0.9798 0.38018 0.27841 0.0
C46 C 0.96832 0.40212 0.24887 0.0
C47 C 0.96985 0.48486 0.24276 0.0
C48 C 0.97672 0.54558 0.26697 0.0
C49 C 0.98982 0.52339 0.29638 0.0
C50 C 0.09806 0.21975 0.40183 0.0
C51 C 0.25935 0.19076 0.34573 0.0
C52 C 0.12986 0.94359 0.34429 0.0
C53 C 0.17248 0.89815 0.31887 0.0
C54 C 0.17333 0.81237 0.31498 0.0
C55 C 0.1965 0.77175 0.28746 0.0
C56 C 0.21772 0.81662 0.26333 0.0
C57 C 0.22229 0.90218 0.26809 0.0
C58 C 0.20042 0.94252 0.29572 0.0
C59 C 1.06406 1.14738 0.28727 0.0
O60 O 0.94131 0.22804 0.33154 0.0
O61 O 0.94972 1.11653 0.35859 0.0
O62 O 0.97779 0.36874 0.34462 0.0
O63 O 0.10554 0.38725 0.33194 0.0
O64 O 0.1313 0.28239 0.39193 0.0
O65 O 1.04904 0.18788 0.38178 0.0
O66 O 0.22111 1.12824 0.35496 0.0
O67 O 0.21317 0.25333 0.33588 0.0
O68 O 1.05218 0.96982 0.33799 0.0
O69 O 0.1734 1.00074 0.35871 0.0
O70 O 1.02734 1.08745 0.29734 0.0
O71 O 0.11198 0.17802 0.30787 0.0
H72 H 0.98273 0.3157 0.28256 0.0
H73 H 0.96395 0.35426 0.23068 0.0
H74 H 0.97997 0.60984 0.26294 0.0
H75 H 1.00142 0.57055 0.31434 0.0
H76 H 0.15108 0.77735 0.33242 0.0
H77 H 0.19067 0.7058 0.28429 0.0
H78 H 0.23775 0.93822 0.24992 0.0
H79 H 0.19981 1.0091 0.29831 0.0
Ho80 Ho 0.11251 1.0915 0.68075 0.0
Ho81 Ho 0.08971 0.26591 0.67454 0.0
C82 C 0.92026 0.17547 0.67401 0.0
C83 C 0.10471 0.94049 0.69329 0.0
C84 C 1.03919 0.88169 0.68636 0.0
C85 C 1.03967 0.80955 0.70126 0.0
C86 C 0.97231 0.75764 0.69655 0.0
C87 C 0.90389 0.77764 0.67691 0.0
C88 C 0.90549 0.84876 0.66128 0.0
C89 C 0.97259 0.9004 0.66601 0.0
C90 C 0.11841 1.13236 0.62303 0.0
C91 C 0.28114 0.18244 0.6825 0.0
C92 C 0.10465 0.414 0.66019 0.0
C93 C 0.17929 0.46331 0.66407 0.0
C94 C 0.19374 0.52205 0.64396 0.0
C95 C 0.27098 0.56026 0.64535 0.0
C96 C 0.33451 0.53971 0.66682 0.0
C97 C 0.31854 0.48216 0.68733 0.0
C98 C 0.2417 0.44438 0.68597 0.0
C99 C 0.07948 0.22754 0.73224 0.0
O100 O 0.96907 1.1143 0.68415 0.0
O101 O 0.95444 0.23928 0.66402 0.0
O102 O 0.14332 0.96209 0.67008 0.0
O103 O 0.0823 1.00341 0.71182 0.0
O104 O 0.17023 1.07913 0.63493 0.0
O105 O 1.06536 0.16106 0.64209 0.0
O106 O 0.23275 0.24175 0.67109 0.0
O107 O 0.24627 1.12018 0.69322 0.0
O108 O 0.07067 0.39712 0.68503 0.0
O109 O 0.11372 0.34949 0.64105 0.0
O110 O 1.03107 0.28232 0.71962 0.0
O111 O 0.13402 0.19636 0.71388 0.0
H112 H 0.09086 0.79452 0.71704 0.0
H113 H 0.97283 0.70285 0.70871 0.0
H114 H 0.85307 0.86656 0.64643 0.0
H115 H 0.97129 0.95626 0.65442 0.0
H116 H 0.14645 0.53654 0.62672 0.0
H117 H 0.28145 0.60493 0.62942 0.0
H118 H 0.3667 0.46376 0.70373 0.0
H119 H 0.23229 0.39804 0.70139 0.0
H120 H 0.23276 0.46423 0.00024 0.0
H121 H 0.97023 0.90867 0.02228 0.0
H122 H 0.97242 0.49064 0.02649 0.0
H123 H 0.23076 0.88224 -0.00372 0.0
H124 H 0.96964 0.75824 0.02388 0.0
H125 H 0.23337 0.61468 -0.00125 0.0
C126 C 0.17544 0.50104 0.00573 0.0
C127 C 0.10245 0.46207 0.01352 0.0
C128 C 1.02717 0.78493 0.01779 0.0
C129 C 0.10262 0.63905 0.01178 0.0
C130 C 1.02759 0.87186 0.01686 0.0
C131 C 0.10062 0.91082 0.0091 0.0
C132 C 0.10048 0.73387 0.01095 0.0
C133 C 0.17243 0.85707 0.00235 0.0
C134 C 0.17588 0.58798 0.00486 0.0
C135 C 1.03071 0.51583 0.02038 0.0
N136 N 0.17044 0.77293 0.00344 0.0
N137 N 1.0327 0.59998 0.01933 0.0
H138 H 0.37195 1.07233 0.36652 0.0
H139 H 0.7899 0.28629 0.32151 0.0
H140 H 0.36447 0.30369 0.32602 0.0
H141 H 0.79795 1.06548 0.36859 0.0
H142 H 0.63486 0.29179 0.32192 0.0
H143 H 0.52697 1.06742 0.36653 0.0
C144 C 0.40271 1.12237 0.35766 0.0
C145 C 0.35434 0.1887 0.34628 0.0
C146 C 0.67033 0.24205 0.33216 0.0
C147 C 0.53348 0.18305 0.34612 0.0
C148 C 0.75922 0.23868 0.3319 0.0
C149 C 0.80771 0.17514 0.34501 0.0
C150 C 0.62864 0.1813 0.34554 0.0
C151 C 0.76364 1.11558 0.35818 0.0
C152 C 0.49162 1.11941 0.35768 0.0
C153 C 0.39862 0.25139 0.33508 0.0
N154 N 0.67694 1.12007 0.35807 0.0
N155 N 0.48532 0.24693 0.33524 0.0
H156 H 0.82279 0.71763 0.72263 0.0
H157 H 0.43057 0.56444 0.61881 0.0
H158 H 0.80944 0.73029 0.62638 0.0
H159 H 0.43104 0.59305 0.7158 0.0
H160 H 0.57409 0.61399 0.62043 0.0
H161 H 0.68606 0.65492 0.71968 0.0
C162 C 0.79175 0.70584 0.7008 0.0
C163 C 0.82718 0.72953 0.67472 0.0
C164 C 0.54262 0.60946 0.64132 0.0
C165 C 0.6698 0.65968 0.67126 0.0
C166 C 0.4605 0.58198 0.64041 0.0
C167 C 0.41886 0.57472 0.66722 0.0
C168 C 0.58325 0.62951 0.66923 0.0
C169 C 0.4612 0.59675 0.6946 0.0
C170 C 0.71322 0.67093 0.69916 0.0
C171 C 0.7836 0.71391 0.64707 0.0
N172 N 0.54111 0.62301 0.6949 0.0
N173 N 0.70678 0.68034 0.64607 0.0
H174 H 0.82412 1.05492 0.69283 0.0
H175 H 0.37738 0.30143 0.66277 0.0
H176 H 0.80078 0.29282 0.65681 0.0
H177 H 0.40052 1.06679 0.7012 0.0
H178 H 0.53214 0.29942 0.66047 0.0
H179 H 0.66928 1.05724 0.69552 0.0
C180 C 0.78661 1.10756 0.6854 0.0
C181 C 0.82601 0.1738 0.67459 0.0
C182 C 0.50343 0.2484 0.66946 0.0
C183 C 0.64803 0.17701 0.67774 0.0
C184 C 0.41485 0.24961 0.67086 0.0
C185 C 0.37541 0.1842 0.68222 0.0
C186 C 0.55343 0.18113 0.67939 0.0
C187 C 0.42776 1.11869 0.69229 0.0
C188 C 0.69803 1.10891 0.68699 0.0
C189 C 0.77362 0.24025 0.66528 0.0
N190 N 0.51374 1.11876 0.69056 0.0
N191 N 0.68771 0.24017 0.6671 0.0
H192 H 0.64391 0.89865 0.9776 0.0
H193 H 0.56424 0.47098 0.04465 0.0
H194 H 0.7086 0.84661 0.06913 0.0
H195 H 0.49687 0.52387 0.9534 0.0
H196 H 0.62044 0.60721 0.05369 0.0
H197 H 0.58861 0.76205 0.96842 0.0
C198 C 0.64546 0.85891 0.9959 0.0
C199 C 0.68078 0.88421 0.02422 0.0
C200 C 0.59368 0.58895 0.03165 0.0
C201 C 0.61913 0.72699 0.01366 0.0
C202 C 0.56232 0.51082 0.02637 0.0
C203 C 0.5259 0.48592 -0.00181 0.0
C204 C 0.58858 0.64273 0.00859 0.0
C205 C 0.52359 0.54085 0.97555 0.0
C206 C 0.61461 0.78058 0.99055 0.0
C207 C 0.68271 0.82936 0.04688 0.0
N208 N 0.55434 0.61673 0.98126 0.0
N209 N 0.65245 0.75331 0.0411 0.0
H210 H 0.89025 0.60691 0.21132 0.0
H211 H 0.13179 0.86855 0.21334 0.0
H212 H 0.08967 0.41605 0.20434 0.0
H213 H 0.29966 0.67115 0.24252 0.0
H214 H 0.07543 0.77479 0.17325 0.0
H215 H 0.97204 0.69118 0.18243 0.0
C216 C 0.94976 0.58112 0.20237 0.0
C217 C 0.9864 0.50746 0.21217 0.0
C218 C 0.12614 0.75217 0.18788 0.0
C219 C 0.08353 0.60545 0.18102 0.0
C220 C 0.15928 0.80614 0.21065 0.0
C221 C 0.21645 0.77575 0.23247 0.0
C222 C 0.14799 0.66746 0.18816 0.0
C223 C 0.25186 0.69558 0.22715 0.0
C224 C 0.99755 0.62966 0.18587 0.0
C225 C 1.06147 0.47515 0.1988 0.0
N226 N 0.21508 0.64325 0.20607 0.0
N227 N 0.10974 0.5259 0.1849 0.0
H228 H 1.01682 1.03861 0.24106 0.0
H229 H 0.0968 0.30336 0.10469 0.0
H230 H 0.13221 0.27147 0.25865 0.0
H231 H 0.15177 1.04112 0.09983 0.0
H232 H 0.07684 0.30199 0.15932 0.0
H233 H 1.03317 1.04738 0.1872 0.0
C234 C 1.04497 1.09208 0.23361 0.0
C235 C 0.07291 1.15462 0.2545 0.0
C236 C 0.09312 0.24496 0.14617 0.0
C237 C 0.09014 0.16559 0.19254 0.0
C238 C 0.10383 0.24555 0.11506 0.0
C239 C 0.12613 0.17218 0.09777 0.0
C240 C 0.10222 0.17014 0.15977 0.0
C241 C 0.135 1.09905 0.11234 0.0
C242 C 1.05441 1.09682 0.20283 0.0
C243 C 0.10952 0.22205 0.24335 0.0
N244 N 0.12223 1.09974 0.14234 0.0
N245 N 0.11635 0.22625 0.21308 0.0
H246 H 0.97448 1.15556 0.43351 0.0
H247 H 0.24901 1.11624 0.5844 0.0
H248 H 0.22435 0.2494 0.44386 0.0
H249 H 0.98096 0.1816 0.58782 0.0
H250 H 0.24371 1.13763 0.53051 0.0
H251 H 0.97749 1.13677 0.48779 0.0
C252 C 1.03014 0.1716 0.44715 0.0
C253 C 0.09928 0.20425 0.4342 0.0
C254 C 0.18611 1.14733 0.54308 0.0
C255 C 0.10363 0.18155 0.496 0.0
C256 C 0.18901 1.135 0.57377 0.0
C257 C 0.11538 1.14742 0.59061 0.0
C258 C 0.10849 0.16986 0.52881 0.0
C259 C 1.03928 0.17182 0.57569 0.0
C260 C 1.03156 0.16137 0.47809 0.0
C261 C 0.16963 0.22437 0.45296 0.0
N262 N 1.03753 0.18128 0.54556 0.0
N263 N 0.17042 0.21192 0.48279 0.0
H264 H 0.97416 0.30774 0.77257 0.0
H265 H 0.15867 1.09855 0.9199 0.0
H266 H 0.18512 1.12787 0.76729 0.0
H267 H 0.98233 0.31015 0.91933 0.0
H268 H 0.16866 1.09986 0.86471 0.0
H269 H 0.97355 0.29971 0.82653 0.0
C270 C 1.02064 0.2663 0.78279 0.0
C271 C 0.0801 0.21882 0.76524 0.0
C272 C 0.12807 1.14597 0.8768 0.0
C273 C 0.0798 0.20897 0.82794 0.0
C274 C 0.12236 1.14524 0.90826 0.0
C275 C 0.06909 0.20401 0.92431 0.0
C276 C 0.07978 0.20561 0.86142 0.0
C277 C 1.02376 0.2632 0.90806 0.0
C278 C 1.02038 0.26181 0.81381 0.0
C279 C 0.13833 0.16587 0.77998 0.0
N280 N 1.02989 0.26216 0.87778 0.0
N281 N 0.13678 0.16228 0.81052 0.0
loop_
_geom_bond_atom_site_label_1
_geom_bond_atom_site_label_2
_geom_bond_distance
_geom_bond_site_symmetry_2
_ccdc_geom_bond_type
Ho0 C3 2.811 . S
Ho0 O20 2.322 . S
Ho0 O22 2.378 . S
Ho0 O23 2.524 1_554 S
Ho0 O24 2.381 . S
Ho0 O25 2.669 1_455 S
Ho0 O27 2.346 1_545 S
Ho0 O31 2.305 1_554 S
Ho1 C12 2.811 1_556 S
Ho1 O21 2.345 1_565 S
Ho1 O25 2.305 1_566 S
Ho1 O26 2.322 . S
Ho1 O28 2.378 . S
Ho1 O29 2.524 1_556 S
Ho1 O30 2.381 . S
Ho1 O31 2.669 1_665 S
C2 O20 1.259 1_655 S
C2 O21 1.264 1_554 S
C3 Ho0 2.811 . S
C3 C4 1.488 . S
C3 O22 1.215 . S
C3 O23 1.289 1_554 S
C4 C3 1.488 . S
C4 C5 1.348 1_554 S
C4 C9 1.413 . S
C5 C4 1.348 1_556 S
C5 C6 1.442 . S
C5 H32 0.930 . S
C6 C5 1.442 . S
C6 C7 1.358 1_556 S
C6 H33 0.931 . S
C7 C6 1.358 1_554 S
C7 C8 1.347 . S
C8 C7 1.347 . S
C8 C9 1.403 . S
C8 H34 0.934 . S
C9 C4 1.413 . S
C9 C8 1.403 . S
C9 H35 0.930 . S
C10 O24 1.275 . S
C10 O25 1.256 1_455 S
C11 O26 1.259 1_455 S
C11 O27 1.268 1_556 S
C12 Ho1 2.811 1_554 S
C12 C13 1.488 . S
C12 O28 1.215 1_554 S
C12 O29 1.289 . S
C13 C12 1.488 . S
C13 C14 1.348 . S
C13 C18 1.413 1_554 S
C14 C13 1.348 . S
C14 C15 1.442 . S
C14 H36 0.930 . S
C15 C14 1.442 . S
C15 C16 1.381 . S
C15 H37 0.931 . S
C16 C15 1.381 . S
C16 C17 1.321 1_554 S
C17 C16 1.321 1_556 S
C17 C18 1.403 . S
C17 H38 0.934 . S
C18 C13 1.413 1_556 S
C18 C17 1.403 . S
C18 H39 0.930 . S
C19 O30 1.275 1_545 S
C19 O31 1.256 1_655 S
O20 Ho0 2.322 . S
O20 C2 1.259 1_455 S
O21 Ho1 2.345 1_545 S
O21 C2 1.264 1_556 S
O22 Ho0 2.378 . S
O22 C3 1.215 . S
O23 Ho0 2.524 1_556 S
O23 C3 1.289 1_556 S
O24 Ho0 2.381 . S
O24 C10 1.275 . S
O25 Ho0 2.669 1_655 S
O25 Ho1 2.305 1_544 S
O25 C10 1.256 1_655 S
O26 Ho1 2.322 . S
O26 C11 1.259 1_655 S
O27 Ho0 2.346 1_565 S
O27 C11 1.268 1_554 S
O28 Ho1 2.378 . S
O28 C12 1.215 1_556 S
O29 Ho1 2.524 1_554 S
O29 C12 1.289 . S
O30 Ho1 2.381 . S
O30 C19 1.275 1_565 S
O31 Ho0 2.305 1_556 S
O31 Ho1 2.669 1_445 S
O31 C19 1.256 1_455 S
H32 C5 0.930 . S
H33 C6 0.931 . S
H34 C8 0.934 . S
H35 C9 0.930 . S
H36 C14 0.930 . S
H37 C15 0.931 . S
H38 C17 0.934 . S
H39 C18 0.930 . S
Ho40 C43 2.811 . S
Ho40 O60 2.322 1_455 S
Ho40 O62 2.378 . S
Ho40 O63 2.524 . S
Ho40 O64 2.381 . S
Ho40 O65 2.669 . S
Ho40 O67 2.346 . S
Ho40 O71 2.305 . S
Ho41 C52 2.811 1_655 S
Ho41 O61 2.346 . S
Ho41 O65 2.305 1_665 S
Ho41 O66 2.322 1_655 S
Ho41 O68 2.378 1_655 S
Ho41 O69 2.524 1_655 S
Ho41 O70 2.381 1_655 S
Ho41 O71 2.669 1_665 S
C42 O60 1.259 . S
C42 O61 1.268 1_545 S
C43 Ho40 2.811 . S
C43 C44 1.488 1_455 S
C43 O62 1.215 . S
C43 O63 1.289 . S
C44 C43 1.488 1_655 S
C44 C45 1.348 . S
C44 C49 1.413 1_655 S
C45 C44 1.348 . S
C45 C46 1.442 . S
C45 H72 0.930 . S
C46 C45 1.442 . S
C46 C47 1.381 . S
C46 H73 0.931 . S
C47 C46 1.381 . S
C47 C48 1.321 . S
C48 C47 1.321 . S
C48 C49 1.403 1_655 S
C48 H74 0.934 . S
C49 C44 1.413 1_455 S
C49 C48 1.403 1_455 S
C49 H75 0.930 . S
C50 O64 1.275 . S
C50 O65 1.256 . S
C51 O66 1.259 1_545 S
C51 O67 1.268 . S
C52 Ho41 2.811 1_455 S
C52 C53 1.488 . S
C52 O68 1.215 . S
C52 O69 1.289 . S
C53 C52 1.488 . S
C53 C54 1.348 . S
C53 C58 1.413 . S
C54 C53 1.348 . S
C54 C55 1.442 . S
C54 H76 0.930 . S
C55 C54 1.442 . S
C55 C56 1.381 . S
C55 H77 0.931 . S
C56 C55 1.381 . S
C56 C57 1.321 . S
C57 C56 1.321 . S
C57 C58 1.403 . S
C57 H78 0.934 . S
C58 C53 1.413 . S
C58 C57 1.403 . S
C58 H79 0.930 . S
C59 O70 1.275 1_545 S
C59 O71 1.256 . S
O60 Ho40 2.322 1_655 S
O60 C42 1.259 . S
O61 Ho41 2.346 . S
O61 C42 1.268 1_565 S
O62 Ho40 2.378 . S
O62 C43 1.215 . S
O63 Ho40 2.524 . S
O63 C43 1.289 . S
O64 Ho40 2.381 . S
O64 C50 1.275 . S
O65 Ho40 2.669 . S
O65 Ho41 2.305 1_445 S
O65 C50 1.256 . S
O66 Ho41 2.322 1_455 S
O66 C51 1.259 1_565 S
O67 Ho40 2.346 . S
O67 C51 1.268 . S
O68 Ho41 2.378 1_455 S
O68 C52 1.215 . S
O69 Ho41 2.524 1_455 S
O69 C52 1.289 . S
O70 Ho41 2.381 1_455 S
O70 C59 1.275 1_565 S
O71 Ho40 2.305 . S
O71 Ho41 2.669 1_445 S
O71 C59 1.256 . S
H72 C45 0.930 . S
H73 C46 0.931 . S
H74 C48 0.934 . S
H75 C49 0.930 . S
H76 C54 0.930 . S
H77 C55 0.931 . S
H78 C57 0.934 . S
H79 C58 0.930 . S
Ho80 C83 2.811 1_455 S
Ho80 O100 2.322 1_455 S
Ho80 O102 2.378 1_455 S
Ho80 O103 2.524 1_455 S
Ho80 O104 2.381 . S
Ho80 O105 2.669 1_565 S
Ho80 O107 2.346 . S
Ho80 O111 2.305 . S
Ho81 C92 2.811 . S
Ho81 O101 2.346 1_455 S
Ho81 O105 2.305 . S
Ho81 O106 2.322 . S
Ho81 O108 2.378 . S
Ho81 O109 2.524 . S
Ho81 O110 2.381 . S
Ho81 O111 2.669 1_545 S
C82 O100 1.259 1_545 S
C82 O101 1.268 . S
C83 Ho80 2.811 1_655 S
C83 C84 1.488 . S
C83 O102 1.215 . S
C83 O103 1.289 . S
C84 C83 1.488 . S
C84 C85 1.348 . S
C84 C89 1.413 . S
C85 C84 1.348 . S
C85 C86 1.442 . S
C85 H112 0.930 . S
C86 C85 1.442 . S
C86 C87 1.381 . S
C86 H113 0.931 . S
C87 C86 1.381 . S
C87 C88 1.321 . S
C88 C87 1.321 . S
C88 C89 1.403 . S
C88 H114 0.934 . S
C89 C84 1.413 . S
C89 C88 1.403 . S
C89 H115 0.930 . S
C90 O104 1.275 . S
C90 O105 1.256 1_565 S
C91 O106 1.259 . S
C91 O107 1.268 1_545 S
C92 Ho81 2.811 . S
C92 C93 1.488 . S
C92 O108 1.215 . S
C92 O109 1.289 . S
C93 C92 1.488 . S
C93 C94 1.348 . S
C93 C98 1.413 . S
C94 C93 1.348 . S
C94 C95 1.442 . S
C94 H116 0.930 . S
C95 C94 1.442 . S
C95 C96 1.381 . S
C95 H117 0.931 . S
C96 C95 1.381 . S
C96 C97 1.321 . S
C97 C96 1.321 . S
C97 C98 1.403 . S
C97 H118 0.934 . S
C98 C93 1.413 . S
C98 C97 1.403 . S
C98 H119 0.930 . S
C99 O110 1.275 . S
C99 O111 1.256 1_545 S
O100 Ho80 2.322 1_655 S
O100 C82 1.259 1_565 S
O101 Ho81 2.346 1_655 S
O101 C82 1.268 . S
O102 Ho80 2.378 1_655 S
O102 C83 1.215 . S
O103 Ho80 2.524 1_655 S
O103 C83 1.289 . S
O104 Ho80 2.381 . S
O104 C90 1.275 . S
O105 Ho80 2.669 1_545 S
O105 Ho81 2.305 . S
O105 C90 1.256 1_545 S
O106 Ho81 2.322 . S
O106 C91 1.259 . S
O107 Ho80 2.346 . S
O107 C91 1.268 1_565 S
O108 Ho81 2.378 . S
O108 C92 1.215 . S
O109 Ho81 2.524 . S
O109 C92 1.289 . S
O110 Ho81 2.381 . S
O110 C99 1.275 . S
O111 Ho80 2.305 . S
O111 Ho81 2.669 1_565 S
O111 C99 1.256 1_565 S
H112 C85 0.930 . S
H113 C86 0.931 . S
H114 C88 0.934 . S
H115 C89 0.930 . S
H116 C94 0.930 . S
H117 C95 0.931 . S
H118 C97 0.934 . S
H119 C98 0.930 . S
H120 C126 0.930 . S
H121 C130 0.930 . S
H122 C135 0.929 . S
H123 C133 0.929 . S
H124 C128 0.929 . S
H125 C134 0.929 . S
C126 H120 0.930 . S
C126 C127 1.367 . S
C126 C134 1.378 . S
C127 C126 1.367 . S
C127 C135 1.432 1_454 S
C128 H124 0.929 . S
C128 C130 1.378 . S
C128 C132 1.322 1_656 S
C129 C132 1.468 . S
C129 C134 1.350 . S
C129 N137 1.427 1_454 S
C130 H121 0.930 . S
C130 C128 1.378 . S
C130 C131 1.336 1_656 S
C131 C130 1.336 1_454 S
C131 C133 1.468 . S
C132 C128 1.322 1_454 S
C132 C129 1.468 . S
C132 N136 1.453 . S
C133 H123 0.929 . S
C133 C131 1.468 . S
C133 N136 1.384 . S
C134 H125 0.929 . S
C134 C126 1.378 . S
C134 C129 1.350 . S
C135 H122 0.929 . S
C135 C127 1.432 1_656 S
C135 N137 1.384 . S
N136 C132 1.453 . S
N136 C133 1.384 . S
N137 C129 1.427 1_656 S
N137 C135 1.384 . S
H138 C144 0.930 . S
H139 C148 0.930 . S
H140 C153 0.929 . S
H141 C151 0.929 . S
H142 C146 0.929 . S
H143 C152 0.929 . S
C144 H138 0.930 . S
C144 C145 1.367 1_565 S
C144 C152 1.378 . S
C145 C144 1.367 1_545 S
C145 C153 1.433 . S
C146 H142 0.929 . S
C146 C148 1.378 . S
C146 C150 1.350 . S
C147 C150 1.463 . S
C147 C152 1.350 1_545 S
C147 N155 1.427 . S
C148 H139 0.930 . S
C148 C146 1.378 . S
C148 C149 1.367 . S
C149 C148 1.367 . S
C149 C151 1.433 1_545 S
C150 C146 1.350 . S
C150 C147 1.463 . S
C150 N154 1.427 1_545 S
C151 H141 0.929 . S
C151 C149 1.433 1_565 S
C151 N154 1.384 . S
C152 H143 0.929 . S
C152 C144 1.378 . S
C152 C147 1.350 1_565 S
C153 H140 0.929 . S
C153 C145 1.433 . S
C153 N155 1.384 . S
N154 C150 1.427 1_565 S
N154 C151 1.384 . S
N155 C147 1.427 . S
N155 C153 1.384 . S
H156 C162 0.930 . S
H157 C166 0.930 . S
H158 C171 0.929 . S
H159 C169 0.929 . S
H160 C164 0.929 . S
H161 C170 0.929 . S
C162 H156 0.930 . S
C162 C163 1.367 . S
C162 C170 1.378 . S
C163 C162 1.367 . S
C163 C171 1.433 . S
C164 H160 0.929 . S
C164 C166 1.378 . S
C164 C168 1.350 . S
C165 C168 1.463 . S
C165 C170 1.350 . S
C165 N173 1.427 . S
C166 H157 0.930 . S
C166 C164 1.378 . S
C166 C167 1.367 . S
C167 C166 1.367 . S
C167 C169 1.433 . S
C168 C164 1.350 . S
C168 C165 1.463 . S
C168 N172 1.427 . S
C169 H159 0.929 . S
C169 C167 1.433 . S
C169 N172 1.384 . S
C170 H161 0.929 . S
C170 C162 1.378 . S
C170 C165 1.350 . S
C171 H158 0.929 . S
C171 C163 1.433 . S
C171 N173 1.384 . S
N172 C168 1.427 . S
N172 C169 1.384 . S
N173 C165 1.427 . S
N173 C171 1.384 . S
H174 C180 0.930 . S
H175 C184 0.930 . S
H176 C189 0.929 . S
H177 C187 0.929 . S
H178 C182 0.929 . S
H179 C188 0.929 . S
C180 H174 0.930 . S
C180 C181 1.367 1_565 S
C180 C188 1.378 . S
C181 C180 1.367 1_545 S
C181 C189 1.433 . S
C182 H178 0.929 . S
C182 C184 1.378 . S
C182 C186 1.350 . S
C183 C186 1.463 . S
C183 C188 1.350 1_545 S
C183 N191 1.427 . S
C184 H175 0.930 . S
C184 C182 1.378 . S
C184 C185 1.367 . S
C185 C184 1.367 . S
C185 C187 1.433 1_545 S
C186 C182 1.350 . S
C186 C183 1.463 . S
C186 N190 1.427 1_545 S
C187 H177 0.929 . S
C187 C185 1.433 1_565 S
C187 N190 1.384 . S
C188 H179 0.929 . S
C188 C180 1.378 . S
C188 C183 1.350 1_565 S
C189 H176 0.929 . S
C189 C181 1.433 . S
C189 N191 1.384 . S
N190 C186 1.427 1_565 S
N190 C187 1.384 . S
N191 C183 1.427 . S
N191 C189 1.384 . S
H192 C198 0.930 . S
H193 C202 0.930 . S
H194 C207 0.929 . S
H195 C205 0.929 . S
H196 C200 0.929 . S
H197 C206 0.929 . S
C198 H192 0.930 . S
C198 C199 1.367 1_556 S
C198 C206 1.378 . S
C199 C198 1.367 1_554 S
C199 C207 1.433 . S
C200 H196 0.929 . S
C200 C202 1.378 . S
C200 C204 1.350 . S
C201 C204 1.463 . S
C201 C206 1.350 1_554 S
C201 N209 1.427 . S
C202 H193 0.930 . S
C202 C200 1.378 . S
C202 C203 1.391 . S
C203 C202 1.391 . S
C203 C205 1.406 1_554 S
C204 C200 1.350 . S
C204 C201 1.463 . S
C204 N208 1.427 1_554 S
C205 H195 0.929 . S
C205 C203 1.406 1_556 S
C205 N208 1.384 . S
C206 H197 0.929 . S
C206 C198 1.378 . S
C206 C201 1.350 1_556 S
C207 H194 0.929 . S
C207 C199 1.433 . S
C207 N209 1.384 . S
N208 C204 1.427 1_556 S
N208 C205 1.384 . S
N209 C201 1.427 . S
N209 C207 1.384 . S
H210 C216 0.930 . S
H211 C220 0.930 . S
H212 C225 0.929 . S
H213 C223 0.929 . S
H214 C218 0.929 . S
H215 C224 0.929 . S
C216 H210 0.930 . S
C216 C217 1.367 . S
C216 C224 1.378 . S
C217 C216 1.367 . S
C217 C225 1.433 . S
C218 H214 0.929 . S
C218 C220 1.378 . S
C218 C222 1.350 . S
C219 C222 1.463 . S
C219 C224 1.350 1_455 S
C219 N227 1.427 . S
C220 H211 0.930 . S
C220 C218 1.378 . S
C220 C221 1.367 . S
C221 C220 1.367 . S
C221 C223 1.433 . S
C222 C218 1.350 . S
C222 C219 1.463 . S
C222 N226 1.427 . S
C223 H213 0.929 . S
C223 C221 1.433 . S
C223 N226 1.384 . S
C224 H215 0.929 . S
C224 C216 1.378 . S
C224 C219 1.350 1_655 S
C225 H212 0.929 . S
C225 C217 1.433 . S
C225 N227 1.384 1_655 S
N226 C222 1.427 . S
N226 C223 1.384 . S
N227 C219 1.427 . S
N227 C225 1.384 1_455 S
H228 C234 0.930 . S
H229 C238 0.930 . S
H230 C243 0.929 . S
H231 C241 0.929 . S
H232 C236 0.929 . S
H233 C242 0.929 . S
C234 H228 0.930 . S
C234 C235 1.367 1_665 S
C234 C242 1.378 . S
C235 C234 1.367 1_445 S
C235 C243 1.433 . S
C236 H232 0.929 . S
C236 C238 1.378 . S
C236 C240 1.350 . S
C237 C240 1.463 . S
C237 C242 1.350 1_445 S
C237 N245 1.427 . S
C238 H229 0.930 . S
C238 C236 1.378 . S
C238 C239 1.367 . S
C239 C238 1.367 . S
C239 C241 1.433 1_445 S
C240 C236 1.350 . S
C240 C237 1.463 . S
C240 N244 1.427 1_445 S
C241 H231 0.929 . S
C241 C239 1.433 1_665 S
C241 N244 1.384 . S
C242 H233 0.929 . S
C242 C234 1.378 . S
C242 C237 1.350 1_665 S
C243 H230 0.929 . S
C243 C235 1.433 . S
C243 N245 1.384 . S
N244 C240 1.427 1_665 S
N244 C241 1.384 . S
N245 C237 1.427 . S
N245 C243 1.384 . S
H246 C252 0.930 1_565 S
H247 C256 0.930 . S
H248 C261 0.929 . S
H249 C259 0.929 . S
H250 C254 0.929 . S
H251 C260 0.929 . S
C252 H246 0.930 1_545 S
C252 C253 1.367 1_655 S
C252 C260 1.378 1_545 S
C253 C252 1.367 1_455 S
C253 C261 1.433 . S
C254 H250 0.929 . S
C254 C256 1.378 . S
C254 C258 1.350 . S
C255 C258 1.463 . S
C255 C260 1.350 1_445 S
C255 N263 1.427 . S
C256 H247 0.930 . S
C256 C254 1.378 . S
C256 C257 1.367 . S
C257 C256 1.367 . S
C257 C259 1.433 1_445 S
C258 C254 1.350 . S
C258 C255 1.463 . S
C258 N262 1.427 1_445 S
C259 H249 0.929 . S
C259 C257 1.433 1_665 S
C259 N262 1.384 . S
C260 H251 0.929 . S
C260 C252 1.378 1_565 S
C260 C255 1.350 1_665 S
C261 H248 0.929 . S
C261 C253 1.433 . S
C261 N263 1.384 . S
N262 C258 1.427 1_665 S
N262 C259 1.384 . S
N263 C255 1.427 . S
N263 C261 1.384 . S
H264 C270 0.928 1_655 S
H265 C274 0.930 . S
H266 C279 0.929 . S
H267 C277 0.929 . S
H268 C272 0.929 . S
H269 C278 0.929 . S
C270 H264 0.928 1_455 S
C270 C271 1.370 . S
C270 C278 1.377 1_455 S
C271 C270 1.370 . S
C271 C279 1.433 1_545 S
C272 H268 0.929 . S
C272 C274 1.378 . S
C272 C276 1.350 1_565 S
C273 C276 1.463 . S
C273 C278 1.350 1_455 S
C273 N281 1.427 1_545 S
C274 H265 0.930 . S
C274 C272 1.378 . S
C274 C275 1.367 1_565 S
C275 C274 1.367 1_545 S
C275 C277 1.433 1_455 S
C276 C272 1.350 1_545 S
C276 C273 1.463 . S
C276 N280 1.427 1_455 S
C277 H267 0.929 . S
C277 C275 1.433 1_655 S
C277 N280 1.384 . S
C278 H269 0.929 . S
C278 C270 1.377 1_655 S
C278 C273 1.350 1_655 S
C279 H266 0.929 . S
C279 C271 1.433 1_565 S
C279 N281 1.384 . S
N280 C276 1.427 1_655 S
N280 C277 1.384 . S
N281 C273 1.427 1_565 S
N281 C279 1.384 . S
C127 C2 4.886 1_455 S
C131 C11 4.880 1_554 S
C145 C51 3.062 . S
C149 C42 3.062 . S
C163 C87 0.591 . S
C167 C96 0.591 . S
C181 C82 2.998 . S
C185 C91 2.998 . S
C199 C16 0.653 . S
C203 C7 0.653 . S
C217 C47 0.811 . S
C221 C56 0.811 . S
C235 C59 1.460 . S
C239 C10 1.450 . S
C253 C50 1.477 . S
C257 C90 1.478 1_545 S
C271 C99 1.459 . S
C275 C19 1.479 1_455 S
