# Generated by pormake.
# Topology crb, (4)-cn, num edge types: 1
# Building blocks:
#     Node 0, Type 0, BuildingBlock: TATPOV_clean_sbu_0, # of connection points: 4
#     Node 1, Type 0, BuildingBlock: TATPOV_clean_sbu_0, # of connection points: 4
#     Node 2, Type 0, BuildingBlock: TATPOV_clean_sbu_0, # of connection points: 4
#     Node 3, Type 0, BuildingBlock: TATPOV_clean_sbu_0, # of connection points: 4
#     Node 4, Type 0, BuildingBlock: TATPOV_clean_sbu_0, # of connection points: 4
#     Node 5, Type 0, BuildingBlock: TATPOV_clean_sbu_0, # of connection points: 4
#     Node 6, Type 0, BuildingBlock: TATPOV_clean_sbu_0, # of connection points: 4
#     Node 7, Type 0, BuildingBlock: TATPOV_clean_sbu_0, # of connection points: 4
#     Edge 8, Type (0, 0), BuildingBlock: XUDNAN_clean_linker_2, # of connection points: 2
#     Edge 9, Type (0, 0), BuildingBlock: XUDNAN_clean_linker_2, # of connection points: 2
#     Edge 10, Type (0, 0), BuildingBlock: XUDNAN_clean_linker_2, # of connection points: 2
#     Edge 11, Type (0, 0), BuildingBlock: XUDNAN_clean_linker_2, # of connection points: 2
#     Edge 12, Type (0, 0), BuildingBlock: XUDNAN_clean_linker_2, # of connection points: 2
#     Edge 13, Type (0, 0), BuildingBlock: XUDNAN_clean_linker_2, # of connection points: 2
#     Edge 14, Type (0, 0), BuildingBlock: XUDNAN_clean_linker_2, # of connection points: 2
#     Edge 15, Type (0, 0), BuildingBlock: XUDNAN_clean_linker_2, # of connection points: 2
#     Edge 16, Type (0, 0), BuildingBlock: XUDNAN_clean_linker_2, # of connection points: 2
#     Edge 17, Type (0, 0), BuildingBlock: XUDNAN_clean_linker_2, # of connection points: 2
#     Edge 18, Type (0, 0), BuildingBlock: XUDNAN_clean_linker_2, # of connection points: 2
#     Edge 19, Type (0, 0), BuildingBlock: XUDNAN_clean_linker_2, # of connection points: 2
#     Edge 20, Type (0, 0), BuildingBlock: XUDNAN_clean_linker_2, # of connection points: 2
#     Edge 21, Type (0, 0), BuildingBlock: XUDNAN_clean_linker_2, # of connection points: 2
#     Edge 22, Type (0, 0), BuildingBlock: XUDNAN_clean_linker_2, # of connection points: 2
#     Edge 23, Type (0, 0), BuildingBlock: XUDNAN_clean_linker_2, # of connection points: 2
# Relax obj value: 0.016
# Max RMSD: 0.047
# Mean RMSD: 0.047
data_MOF--net-crb--node1-TATPOV_clean_sbu_0--edge1-XUDNAN_clean_linker_2
_symmetry_space_group_name_H-M    P1
_symmetry_Int_Tables_number       1
_symmetry_cell_setting            triclinic
loop_
_symmetry_equiv_pos_as_xyz
'x, y, z'
_cell_length_a     43.617744
_cell_length_b     40.725749
_cell_length_c     25.267215
_cell_angle_alpha  89.796417
_cell_angle_beta   89.830938
_cell_angle_gamma 90.032533
loop_
_atom_site_label
_atom_site_type_symbol
_atom_site_fract_x
_atom_site_fract_y
_atom_site_fract_z
_atom_type_partial_charge
Zn0 Zn 0.34322 0.35824 0.17807 0.0
Zn1 Zn 0.32512 0.32005 0.09463 0.0
O2 O 0.37127 0.31233 0.09762 0.0
O3 O 0.3865 0.34023 0.1674 0.0
O4 O 0.31189 0.29013 0.0355 0.0
O5 O 0.31357 0.33363 0.22621 0.0
O6 O 0.29996 0.30327 0.15827 0.0
C7 C 0.39247 0.32149 0.12875 0.0
C8 C 0.31798 0.39465 0.08845 0.0
O9 O 0.3148 0.36611 0.06889 0.0
O10 O 0.32916 0.39808 0.13443 0.0
C11 C 0.31007 0.29851 0.98705 0.0
O12 O 0.31678 0.32875 0.97299 0.0
C13 C 0.29758 0.31056 0.20714 0.0
Zn14 Zn 0.63864 0.3307 0.90471 0.0
Zn15 Zn 0.6697 0.31419 0.99455 0.0
O16 O 0.62499 0.30323 0.01041 0.0
O17 O 0.59848 0.31622 0.93951 0.0
O18 O 0.6892 0.302 0.06414 0.0
O19 O 0.66568 0.29887 0.86478 0.0
O20 O 0.69177 0.28699 0.93693 0.0
C21 C 0.59941 0.30545 0.9866 0.0
C22 C 0.66969 0.38523 0.95514 0.0
O23 O 0.67701 0.36358 0.98929 0.0
O24 O 0.65401 0.37751 0.91489 0.0
C25 C 0.71774 0.29894 0.07265 0.0
O26 O 0.73718 0.30312 0.03337 0.0
C27 C 0.6874 0.28365 0.88729 0.0
Zn28 Zn 0.63403 0.65124 0.14889 0.0
Zn29 Zn 0.66515 0.68593 0.07536 0.0
O30 O 0.61996 0.69827 0.06089 0.0
O31 O 0.59451 0.67062 0.12212 0.0
O32 O 0.68805 0.70911 0.01638 0.0
O33 O 0.65672 0.67565 0.20477 0.0
O34 O 0.6831 0.70408 0.14573 0.0
C35 C 0.5948 0.69027 0.08321 0.0
C36 C 0.66765 0.61001 0.07895 0.0
O37 O 0.67471 0.63766 0.05866 0.0
O38 O 0.65056 0.60869 0.11949 0.0
C39 C 0.67953 0.70101 0.97013 0.0
O40 O 0.65699 0.67981 0.96531 0.0
C41 C 0.67659 0.69732 0.19386 0.0
Zn42 Zn 0.3533 0.66104 0.85438 0.0
Zn43 Zn 0.32346 0.68277 0.94297 0.0
O44 O 0.36755 0.6974 0.95443 0.0
O45 O 0.3932 0.67929 0.88533 0.0
O46 O 0.30219 0.69836 0.00901 0.0
O47 O 0.32493 0.6899 0.81049 0.0
O48 O 0.30049 0.70571 0.88242 0.0
C49 C 0.39272 0.69408 0.92942 0.0
C50 C 0.32518 0.60934 0.91697 0.0
O51 O 0.31807 0.63308 0.94721 0.0
O52 O 0.33949 0.61463 0.87402 0.0
C53 C 0.31123 0.68797 0.05385 0.0
O54 O 0.33433 0.66731 0.05589 0.0
C55 C 0.30373 0.70636 0.83227 0.0
Zn56 Zn 0.8582 0.84241 0.65915 0.0
Zn57 Zn 0.8265 0.81586 0.57543 0.0
O58 O 0.86927 0.79864 0.56124 0.0
O59 O 0.89604 0.81951 0.62691 0.0
O60 O 0.79988 0.79713 0.51842 0.0
O61 O 0.82959 0.81819 0.71101 0.0
O62 O 0.80545 0.7985 0.64176 0.0
C63 C 0.89474 0.80257 0.58485 0.0
C64 C 0.8318 0.89046 0.58708 0.0
O65 O 0.82327 0.86479 0.56269 0.0
O66 O 0.84634 0.888 0.63035 0.0
C67 C 0.80558 0.79549 0.46913 0.0
O68 O 0.83205 0.80605 0.45085 0.0
C69 C 0.80829 0.80078 0.6917 0.0
Zn70 Zn 0.13729 0.83451 0.35315 0.0
Zn71 Zn 0.1647 0.81319 0.44324 0.0
O72 O 0.11989 0.79937 0.45461 0.0
O73 O 0.09765 0.81414 0.37995 0.0
O74 O 0.18588 0.79738 0.50946 0.0
O75 O 0.16647 0.80739 0.30993 0.0
O76 O 0.18827 0.78962 0.38311 0.0
C77 C 0.09617 0.80107 0.42547 0.0
C78 C 0.16326 0.88666 0.41564 0.0
O79 O 0.17047 0.86302 0.44628 0.0
O80 O 0.14916 0.88117 0.3728 0.0
C81 C 0.17728 0.80773 0.55454 0.0
O82 O 0.15436 0.82859 0.55723 0.0
C83 C 0.18651 0.78993 0.3327 0.0
Zn84 Zn 0.15468 0.13819 0.67465 0.0
Zn85 Zn 0.17849 0.17679 0.5976 0.0
O86 O 0.13368 0.19202 0.60185 0.0
O87 O 0.11493 0.16378 0.66914 0.0
O88 O 0.19581 0.20301 0.53615 0.0
O89 O 0.18814 0.15355 0.72269 0.0
O90 O 0.20532 0.18853 0.66269 0.0
C91 C 0.11156 0.18509 0.63299 0.0
C92 C 0.17474 0.10113 0.58581 0.0
O93 O 0.18265 0.12958 0.56967 0.0
O94 O 0.16164 0.09773 0.63026 0.0
C95 C 0.18385 0.19738 0.49119 0.0
O96 O 0.16101 0.17641 0.48838 0.0
C97 C 0.20662 0.17603 0.70904 0.0
Zn98 Zn 0.87171 0.17307 0.41647 0.0
Zn99 Zn 0.83711 0.19061 0.50047 0.0
O100 O 0.88067 0.20528 0.52074 0.0
O101 O 0.90945 0.19018 0.45341 0.0
O102 O 0.81202 0.20353 0.5646 0.0
O103 O 0.84706 0.20283 0.36983 0.0
O104 O 0.81659 0.21454 0.43685 0.0
C105 C 0.90691 0.20312 0.4987 0.0
C106 C 0.84154 0.11849 0.46756 0.0
O107 O 0.8326 0.14051 0.49971 0.0
O108 O 0.85767 0.12604 0.42756 0.0
C109 C 0.82016 0.19245 0.60959 0.0
O110 O 0.84436 0.17333 0.61239 0.0
C111 C 0.82363 0.21733 0.38792 0.0
H112 H 0.31761 0.45951 0.11859 0.0
H113 H 0.30427 0.39601 0.98288 0.0
H114 H 0.30024 0.44456 0.92498 0.0
H115 H 0.26504 0.52595 0.0726 0.0
H116 H 0.28938 0.5577 0.0989 0.0
H117 H 0.28785 0.51801 0.13064 0.0
H118 H 0.34684 0.51286 0.12158 0.0
H119 H 0.34853 0.55232 0.08952 0.0
H120 H 0.36433 0.51676 0.05711 0.0
H121 H 0.30533 0.49916 0.88018 0.0
H122 H 0.31431 0.55676 0.85284 0.0
H123 H 0.32104 0.5852 0.01768 0.0
C124 C 0.31317 0.45581 0.07689 0.0
C125 C 0.31134 0.42388 0.05534 0.0
C126 C 0.30569 0.42015 1.00046 0.0
C127 C 0.30337 0.44762 0.96715 0.0
C128 C 0.30618 0.47869 0.98941 0.0
C129 C 0.3104 0.48299 0.04314 0.0
C130 C 0.31406 0.519 0.0566 0.0
C131 C 0.28749 0.53086 0.09176 0.0
C132 C 0.3453 0.5256 0.08273 0.0
C133 C 0.3124 0.53411 0.00183 0.0
C134 C 0.30781 0.51043 0.96361 0.0
C135 C 0.30822 0.51804 0.90978 0.0
C136 C 0.31349 0.55073 0.89461 0.0
C137 C 0.31793 0.57537 0.93317 0.0
C138 C 0.31698 0.56694 0.98742 0.0
H139 H 0.41908 0.31212 0.03223 0.0
H140 H 0.43815 0.31099 0.20054 0.0
H141 H 0.49273 0.29913 0.18162 0.0
H142 H 0.47578 0.24927 0.99096 0.0
H143 H 0.48587 0.27162 0.93171 0.0
H144 H 0.44763 0.27465 0.9585 0.0
H145 H 0.45287 0.33799 0.96215 0.0
H146 H 0.49103 0.33517 0.93542 0.0
H147 H 0.4846 0.35592 0.99737 0.0
H148 H 0.5454 0.29132 0.1445 0.0
H149 H 0.59326 0.29374 0.0927 0.0
H150 H 0.54045 0.30372 0.94808 0.0
C151 C 0.43464 0.30848 0.06507 0.0
C152 C 0.42446 0.31189 0.11787 0.0
C153 C 0.44557 0.30818 0.15985 0.0
C154 C 0.47651 0.30127 0.14947 0.0
C155 C 0.48595 0.29854 0.09689 0.0
C156 C 0.46569 0.30232 0.05534 0.0
C157 C 0.48227 0.30217 0.00255 0.0
C158 C 0.47229 0.27266 0.96896 0.0
C159 C 0.47741 0.33475 0.97265 0.0
C160 C 0.51511 0.2985 0.02094 0.0
C161 C 0.51662 0.29567 0.0754 0.0
C162 C 0.5445 0.29327 0.10181 0.0
C163 C 0.57159 0.29464 0.07193 0.0
C164 C 0.57066 0.29895 0.01624 0.0
C165 C 0.54195 0.30023 0.9905 0.0
H166 H 0.67342 0.41658 0.04982 0.0
H167 H 0.68208 0.43221 0.88065 0.0
H168 H 0.6903 0.49156 0.89579 0.0
H169 H 0.62831 0.4846 0.07186 0.0
H170 H 0.64398 0.49452 0.13578 0.0
H171 H 0.64486 0.45285 0.11266 0.0
H172 H 0.70377 0.45118 0.12563 0.0
H173 H 0.70307 0.49296 0.14896 0.0
H174 H 0.72747 0.48188 0.09416 0.0
H175 H 0.69305 0.54955 0.92879 0.0
H176 H 0.68492 0.60198 0.97567 0.0
H177 H 0.67057 0.54855 0.12257 0.0
C178 C 0.678 0.43239 0.01615 0.0
C179 C 0.67766 0.41992 0.96415 0.0
C180 C 0.68255 0.4414 0.92081 0.0
C181 C 0.6874 0.47505 0.92907 0.0
C182 C 0.68696 0.48676 0.98086 0.0
C183 C 0.68216 0.46609 0.02365 0.0
C184 C 0.67861 0.48525 0.07451 0.0
C185 C 0.64707 0.47893 0.10017 0.0
C186 C 0.7048 0.47735 0.11309 0.0
C187 C 0.68119 0.51997 0.05346 0.0
C188 C 0.68686 0.52032 0.99961 0.0
C189 C 0.6889 0.54959 0.97104 0.0
C190 C 0.6843 0.57924 0.99801 0.0
C191 C 0.67707 0.57927 0.0527 0.0
C192 C 0.67613 0.54925 0.08078 0.0
H193 H 0.45179 0.68541 0.89324 0.0
H194 H 0.39916 0.72634 0.02341 0.0
H195 H 0.44696 0.73746 0.07156 0.0
H196 H 0.50358 0.64337 0.96866 0.0
H197 H 0.53666 0.65076 0.92736 0.0
H198 H 0.49897 0.6511 0.89882 0.0
H199 H 0.50844 0.70973 0.86212 0.0
H200 H 0.54633 0.70952 0.89045 0.0
H201 H 0.51987 0.74199 0.90658 0.0
H202 H 0.49843 0.73482 0.11216 0.0
H203 H 0.55114 0.72124 0.14044 0.0
H204 H 0.57179 0.68509 0.98336 0.0
C205 C 0.45036 0.69761 0.93117 0.0
C206 C 0.42166 0.70504 0.95442 0.0
C207 C 0.42081 0.72047 0.0046 0.0
C208 C 0.44788 0.72701 0.03227 0.0
C209 C 0.47571 0.71843 0.00902 0.0
C210 C 0.47725 0.70448 0.95929 0.0
C211 C 0.50991 0.69493 0.94544 0.0
C212 C 0.51241 0.65785 0.93446 0.0
C213 C 0.52184 0.71526 0.89835 0.0
C214 C 0.52618 0.70422 0.99616 0.0
C215 C 0.50602 0.71804 0.0321 0.0
C216 C 0.51468 0.725 0.08391 0.0
C217 C 0.54455 0.71717 0.09968 0.0
C218 C 0.56545 0.70298 0.06359 0.0
C219 C 0.55641 0.69707 0.01093 0.0
H220 H 0.83794 0.95167 0.63228 0.0
H221 H 0.81455 0.90274 0.48533 0.0
H222 H 0.81065 0.95632 0.4406 0.0
H223 H 0.78672 0.02341 0.61152 0.0
H224 H 0.81354 0.05156 0.64103 0.0
H225 H 0.81217 0.00942 0.66295 0.0
H226 H 0.87018 0.00338 0.64292 0.0
H227 H 0.8717 0.04538 0.62077 0.0
H228 H 0.88435 0.01295 0.57755 0.0
H229 H 0.81601 0.01385 0.40891 0.0
H230 H 0.82566 0.07303 0.39423 0.0
H231 H 0.84151 0.08581 0.56222 0.0
C232 C 0.83152 0.95229 0.59092 0.0
C233 C 0.82661 0.92297 0.56234 0.0
C234 C 0.81831 0.92482 0.5082 0.0
C235 C 0.81604 0.95515 0.48234 0.0
C236 C 0.82159 0.98351 0.51133 0.0
C237 C 0.82865 0.98247 0.5646 0.0
C238 C 0.83439 0.01667 0.58596 0.0
C239 C 0.81026 0.0258 0.62785 0.0
C240 C 0.8671 0.01976 0.60808 0.0
C241 C 0.83045 0.03687 0.53596 0.0
C242 C 0.82312 0.01719 0.49336 0.0
C243 C 0.82103 0.02968 0.44209 0.0
C244 C 0.82666 0.06319 0.43408 0.0
C245 C 0.8338 0.08382 0.47721 0.0
C246 C 0.8353 0.07059 0.52885 0.0
H247 H 0.07323 0.80824 0.52531 0.0
H248 H 0.05117 0.77061 0.3698 0.0
H249 H 0.99848 0.75815 0.40002 0.0
H250 H 0.02146 0.75284 0.60507 0.0
H251 H 0.01093 0.78574 0.64904 0.0
H252 H 0.0485 0.78513 0.6191 0.0
H253 H 0.03933 0.84346 0.58108 0.0
H254 H 0.00183 0.84422 0.61067 0.0
H255 H 0.00611 0.85096 0.54049 0.0
H256 H 0.94723 0.75605 0.44284 0.0
H257 H 0.89995 0.76828 0.49236 0.0
H258 H 0.95415 0.81038 0.61913 0.0
C259 C 0.05755 0.79627 0.49837 0.0
C260 C 0.06624 0.78975 0.4456 0.0
C261 C 0.0449 0.7754 0.41056 0.0
C262 C 0.01503 0.7681 0.42748 0.0
C263 C 0.00682 0.77562 0.47939 0.0
C264 C 0.0274 0.78953 0.51434 0.0
C265 C 0.01161 0.79959 0.56529 0.0
C266 C 0.02385 0.77962 0.61241 0.0
C267 C 0.01491 0.83675 0.5749 0.0
C268 C 0.97878 0.79031 0.55273 0.0
C269 C 0.9767 0.77575 0.50355 0.0
C270 C 0.94859 0.76702 0.48172 0.0
C271 C 0.92182 0.77413 0.51021 0.0
C272 C 0.92327 0.7903 0.55974 0.0
C273 C 0.95225 0.79768 0.5817 0.0
H274 H 0.17404 0.03639 0.61514 0.0
H275 H 0.18466 0.10056 0.47877 0.0
H276 H 0.18662 0.05209 0.42028 0.0
H277 H 0.22492 0.97051 0.56607 0.0
H278 H 0.20124 0.93862 0.59426 0.0
H279 H 0.20319 0.97828 0.62552 0.0
H280 H 0.14403 0.98323 0.62028 0.0
H281 H 0.14191 0.94375 0.58882 0.0
H282 H 0.12536 0.97923 0.55706 0.0
H283 H 0.18094 0.99714 0.37615 0.0
H284 H 0.17236 0.93936 0.35019 0.0
H285 H 0.16867 0.91101 0.51574 0.0
C286 C 0.17724 0.04024 0.57305 0.0
C287 C 0.17914 0.07222 0.55145 0.0
C288 C 0.18333 0.07626 0.49619 0.0
C289 C 0.18442 0.04889 0.46266 0.0
C290 C 0.18184 0.01771 0.48517 0.0
C291 C 0.17884 0.01323 0.53918 0.0
C292 C 0.1756 0.97723 0.55326 0.0
C293 C 0.20287 0.96547 0.58675 0.0
C294 C 0.1449 0.97048 0.5815 0.0
C295 C 0.17627 0.9622 0.49861 0.0
C296 C 0.17987 0.98595 0.45983 0.0
C297 C 0.17874 0.97826 0.40617 0.0
C298 C 0.17373 0.94545 0.39181 0.0
C299 C 0.17025 0.92077 0.43098 0.0
C300 C 0.17193 0.92929 0.48498 0.0
H301 H 0.96485 0.21052 0.45884 0.0
H302 H 0.91247 0.2152 0.60488 0.0
H303 H 0.96055 0.2205 0.65539 0.0
H304 H 0.02089 0.16064 0.50289 0.0
H305 H 0.05229 0.17965 0.46777 0.0
H306 H 0.01401 0.18299 0.44235 0.0
H307 H 0.0184 0.24645 0.4422 0.0
H308 H 0.05693 0.24331 0.46736 0.0
H309 H 0.02881 0.26748 0.50219 0.0
H310 H 0.01358 0.21331 0.6905 0.0
H311 H 0.06761 0.19822 0.70701 0.0
H312 H 0.08592 0.20141 0.5384 0.0
C313 C 0.96344 0.21372 0.5013 0.0
C314 C 0.93492 0.21245 0.52792 0.0
C315 C 0.93403 0.21636 0.58358 0.0
C316 C 0.96125 0.2194 0.61261 0.0
C317 C 0.98908 0.21921 0.5853 0.0
C318 C 0.99033 0.21712 0.53074 0.0
C319 C 0.02309 0.21424 0.51123 0.0
C320 C 0.02782 0.1825 0.47922 0.0
C321 C 0.03235 0.24469 0.47884 0.0
C322 C 0.03995 0.21302 0.56345 0.0
C323 C 0.01997 0.21632 0.60573 0.0
C324 C 0.02959 0.21175 0.65781 0.0
C325 C 0.06025 0.20305 0.66682 0.0
C326 C 0.08092 0.19928 0.624 0.0
C327 C 0.07078 0.20521 0.57189 0.0
H328 H 0.22892 0.24466 0.48177 0.0
H329 H 0.16689 0.18432 0.38951 0.0
H330 H 0.18841 0.20755 0.30727 0.0
H331 H 0.22552 0.31652 0.39577 0.0
H332 H 0.26542 0.32659 0.4046 0.0
H333 H 0.24466 0.30579 0.45656 0.0
H334 H 0.28509 0.25919 0.45647 0.0
H335 H 0.30593 0.2798 0.40447 0.0
H336 H 0.29349 0.23797 0.39564 0.0
H337 H 0.21812 0.23527 0.23482 0.0
H338 H 0.2528 0.26735 0.1771 0.0
H339 H 0.2947 0.31088 0.31591 0.0
C340 C 0.21974 0.23648 0.44429 0.0
C341 C 0.1962 0.21262 0.4422 0.0
C342 C 0.18486 0.20259 0.39227 0.0
C343 C 0.19695 0.21562 0.34523 0.0
C344 C 0.22027 0.23886 0.34865 0.0
C345 C 0.23143 0.2494 0.39683 0.0
C346 C 0.25675 0.27452 0.38929 0.0
C347 C 0.24753 0.30783 0.41296 0.0
C348 C 0.28711 0.26212 0.41286 0.0
C349 C 0.25827 0.27614 0.32938 0.0
C350 C 0.23705 0.25534 0.30674 0.0
C351 C 0.23468 0.25184 0.25206 0.0
C352 C 0.25454 0.27012 0.2196 0.0
C353 C 0.27639 0.29177 0.24187 0.0
C354 C 0.27808 0.2948 0.29757 0.0
H355 H 0.7761 0.28218 0.1028 0.0
H356 H 0.68414 0.29688 0.16443 0.0
H357 H 0.7021 0.28211 0.25397 0.0
H358 H 0.7929 0.21197 0.17929 0.0
H359 H 0.83264 0.22238 0.18921 0.0
H360 H 0.81297 0.23672 0.13108 0.0
H361 H 0.82754 0.29669 0.15433 0.0
H362 H 0.84716 0.2825 0.21275 0.0
H363 H 0.81735 0.31294 0.21828 0.0
H364 H 0.72988 0.26329 0.33665 0.0
H365 H 0.76449 0.23896 0.40369 0.0
H366 H 0.83761 0.23605 0.28687 0.0
C367 C 0.75979 0.28266 0.13518 0.0
C368 C 0.72874 0.29081 0.12656 0.0
C369 C 0.70807 0.29074 0.17001 0.0
C370 C 0.71807 0.28252 0.22111 0.0
C371 C 0.74881 0.27443 0.22819 0.0
C372 C 0.76933 0.27435 0.18634 0.0
C373 C 0.80071 0.26294 0.2038 0.0
C374 C 0.81035 0.23165 0.17409 0.0
C375 C 0.8246 0.29041 0.19688 0.0
C376 C 0.79451 0.25598 0.26172 0.0
C377 C 0.76458 0.26317 0.27535 0.0
C378 C 0.75343 0.25776 0.32649 0.0
C379 C 0.77326 0.24403 0.36436 0.0
C380 C 0.80374 0.23557 0.35059 0.0
C381 C 0.81446 0.24224 0.29878 0.0
H382 H 0.81039 0.78246 0.36198 0.0
H383 H 0.74693 0.77904 0.49488 0.0
H384 H 0.70693 0.75704 0.43678 0.0
H385 H 0.75392 0.80542 0.26151 0.0
H386 H 0.77067 0.77988 0.21099 0.0
H387 H 0.7945 0.79703 0.26209 0.0
H388 H 0.81358 0.73878 0.2869 0.0
H389 H 0.7899 0.72148 0.23582 0.0
H390 H 0.78603 0.70728 0.30316 0.0
H391 H 0.67467 0.73342 0.36771 0.0
H392 H 0.6512 0.70793 0.28982 0.0
H393 H 0.73412 0.72627 0.19878 0.0
C394 C 0.78801 0.7773 0.37869 0.0
C395 C 0.78184 0.78254 0.43307 0.0
C396 C 0.75231 0.77523 0.45348 0.0
C397 C 0.72934 0.76282 0.42075 0.0
C398 C 0.73614 0.75785 0.3676 0.0
C399 C 0.76466 0.76475 0.34644 0.0
C400 C 0.76592 0.75577 0.28814 0.0
C401 C 0.77158 0.78636 0.25365 0.0
C402 C 0.7903 0.72925 0.27793 0.0
C403 C 0.73375 0.74239 0.28029 0.0
C404 C 0.71709 0.74407 0.32682 0.0
C405 C 0.68734 0.73213 0.3309 0.0
C406 C 0.67427 0.71759 0.28642 0.0
C407 C 0.69083 0.71514 0.23827 0.0
C408 C 0.72084 0.72819 0.2349 0.0
H409 H 0.19004 0.78832 0.22476 0.0
H410 H 0.23195 0.74781 0.36634 0.0
H411 H 0.26826 0.71651 0.31045 0.0
H412 H 0.1957 0.71574 0.14475 0.0
H413 H 0.20403 0.73837 0.08498 0.0
H414 H 0.1812 0.75686 0.13633 0.0
H415 H 0.21884 0.8061 0.13989 0.0
H416 H 0.24182 0.78774 0.08863 0.0
H417 H 0.25906 0.79861 0.1509 0.0
H418 H 0.3004 0.69017 0.23812 0.0
H419 H 0.32569 0.67124 0.15606 0.0
H420 H 0.26235 0.72983 0.06306 0.0
C421 C 0.20673 0.77279 0.24425 0.0
C422 C 0.20809 0.77049 0.30003 0.0
C423 C 0.23044 0.74995 0.3237 0.0
C424 C 0.25114 0.73208 0.29228 0.0
C425 C 0.24917 0.73508 0.23737 0.0
C426 C 0.2275 0.75494 0.21365 0.0
C427 C 0.23031 0.7544 0.15398 0.0
C428 C 0.20107 0.74051 0.12853 0.0
C429 C 0.23797 0.78875 0.13208 0.0
C430 C 0.25705 0.73115 0.14763 0.0
C431 C 0.26761 0.72018 0.19609 0.0
C432 C 0.29228 0.69859 0.19999 0.0
C433 C 0.30649 0.68799 0.15314 0.0
C434 C 0.29602 0.69905 0.10309 0.0
C435 C 0.27093 0.72089 0.10062 0.0
H436 H 0.22686 0.76647 0.56254 0.0
H437 H 0.16311 0.82361 0.65704 0.0
H438 H 0.18899 0.80475 0.73844 0.0
H439 H 0.2315 0.69746 0.6502 0.0
H440 H 0.27176 0.6906 0.6384 0.0
H441 H 0.24843 0.70899 0.58766 0.0
H442 H 0.28533 0.75885 0.58332 0.0
H443 H 0.30876 0.74062 0.63411 0.0
H444 H 0.2936 0.78141 0.64286 0.0
H445 H 0.2214 0.77874 0.8098 0.0
H446 H 0.25795 0.74782 0.86542 0.0
H447 H 0.30068 0.70834 0.72382 0.0
C448 C 0.21832 0.77508 0.60031 0.0
C449 C 0.19291 0.79652 0.60335 0.0
C450 C 0.18253 0.80719 0.65364 0.0
C451 C 0.19709 0.79662 0.70014 0.0
C452 C 0.22205 0.77547 0.69569 0.0
C453 C 0.23261 0.76486 0.64705 0.0
C454 C 0.25976 0.74201 0.6531 0.0
C455 C 0.25241 0.70774 0.63104 0.0
C456 C 0.28856 0.75661 0.62679 0.0
C457 C 0.26273 0.74128 0.71277 0.0
C458 C 0.2408 0.76073 0.73665 0.0
C459 C 0.23875 0.76351 0.79152 0.0
C460 C 0.25961 0.74584 0.82278 0.0
C461 C 0.28227 0.72568 0.79909 0.0
C462 C 0.28378 0.72362 0.74328 0.0
H463 H 0.29022 0.31041 0.88553 0.0
H464 H 0.30661 0.23202 0.99891 0.0
H465 H 0.28748 0.19161 0.93463 0.0
H466 H 0.22032 0.27997 0.83899 0.0
H467 H 0.22613 0.29205 0.771 0.0
H468 H 0.24456 0.31453 0.82316 0.0
H469 H 0.29741 0.3044 0.77909 0.0
H470 H 0.2791 0.28177 0.72675 0.0
H471 H 0.30932 0.26299 0.76477 0.0
H472 H 0.26259 0.16055 0.86303 0.0
H473 H 0.23147 0.14045 0.78878 0.0
H474 H 0.23071 0.23825 0.72005 0.0
C475 C 0.29031 0.28467 0.89641 0.0
C476 C 0.30005 0.27433 0.94716 0.0
C477 C 0.29927 0.24051 0.9603 0.0
C478 C 0.28862 0.21734 0.92394 0.0
C479 C 0.27885 0.22834 0.87455 0.0
C480 C 0.27954 0.26116 0.86061 0.0
C481 C 0.26531 0.26661 0.80652 0.0
C482 C 0.23743 0.28964 0.81017 0.0
C483 C 0.28922 0.27972 0.76694 0.0
C484 C 0.25577 0.23182 0.79301 0.0
C485 C 0.26423 0.21017 0.83264 0.0
C486 C 0.2562 0.17713 0.83137 0.0
C487 C 0.23846 0.16598 0.78911 0.0
C488 C 0.22889 0.18777 0.74858 0.0
C489 C 0.23827 0.22097 0.74994 0.0
H490 H 0.68906 0.27932 0.77925 0.0
H491 H 0.73483 0.24424 0.92096 0.0
H492 H 0.77264 0.21499 0.86517 0.0
H493 H 0.70079 0.20615 0.69889 0.0
H494 H 0.70714 0.22961 0.63922 0.0
H495 H 0.68254 0.24552 0.69045 0.0
H496 H 0.71536 0.29853 0.6941 0.0
H497 H 0.74016 0.28273 0.64316 0.0
H498 H 0.75603 0.29541 0.70563 0.0
H499 H 0.80678 0.19167 0.79332 0.0
H500 H 0.83464 0.17644 0.71186 0.0
H501 H 0.76685 0.22816 0.61771 0.0
C502 C 0.70673 0.26511 0.79877 0.0
C503 C 0.70883 0.26393 0.85462 0.0
C504 C 0.73264 0.24539 0.87831 0.0
C505 C 0.75421 0.2287 0.84693 0.0
C506 C 0.75168 0.23085 0.79198 0.0
C507 C 0.72848 0.24855 0.76816 0.0
C508 C 0.73157 0.24833 0.70844 0.0
C509 C 0.70386 0.23139 0.68275 0.0
C510 C 0.73605 0.28333 0.68657 0.0
C511 C 0.76038 0.22802 0.70223 0.0
C512 C 0.77152 0.21795 0.75082 0.0
C513 C 0.79817 0.19932 0.75509 0.0
C514 C 0.81386 0.19081 0.70852 0.0
C515 C 0.80298 0.20111 0.6583 0.0
C516 C 0.7758 0.21988 0.6554 0.0
H517 H 0.72983 0.74227 0.96405 0.0
H518 H 0.66432 0.68906 0.86753 0.0
H519 H 0.69022 0.70891 0.78696 0.0
H520 H 0.73654 0.81329 0.87771 0.0
H521 H 0.77705 0.81843 0.88891 0.0
H522 H 0.7532 0.80046 0.93964 0.0
H523 H 0.78836 0.74923 0.94201 0.0
H524 H 0.81226 0.767 0.89118 0.0
H525 H 0.79562 0.72693 0.88176 0.0
H526 H 0.72299 0.73336 0.71703 0.0
H527 H 0.76062 0.762 0.66087 0.0
H528 H 0.80562 0.79995 0.80122 0.0
C529 C 0.72087 0.73494 0.92596 0.0
C530 C 0.69499 0.71409 0.92221 0.0
C531 C 0.68407 0.70497 0.87157 0.0
C532 C 0.69863 0.71611 0.82547 0.0
C533 C 0.72412 0.7364 0.83049 0.0
C534 C 0.73519 0.74585 0.8793 0.0
C535 C 0.76318 0.76772 0.87317 0.0
C536 C 0.75712 0.80201 0.89622 0.0
C537 C 0.79153 0.75176 0.89853 0.0
C538 C 0.76606 0.76897 0.81332 0.0
C539 C 0.74324 0.75068 0.78968 0.0
C540 C 0.74097 0.74783 0.735 0.0
C541 C 0.76253 0.76422 0.70343 0.0
C542 C 0.78616 0.7833 0.72649 0.0
C543 C 0.78788 0.78558 0.78232 0.0
loop_
_geom_bond_atom_site_label_1
_geom_bond_atom_site_label_2
_geom_bond_distance
_geom_bond_site_symmetry_2
_ccdc_geom_bond_type
Zn0 O3 2.031 . S
Zn0 O5 2.049 . S
Zn0 O10 2.067 . S
Zn1 O2 1.961 1_554 S
Zn1 O4 1.980 1_554 S
Zn1 O6 2.008 . S
Zn1 O9 1.943 1_554 S
O2 Zn1 1.961 1_556 S
O2 C7 1.254 1_556 S
O3 Zn0 2.031 . S
O3 C7 1.269 . S
O4 Zn1 1.980 1_556 S
O4 C11 1.262 . S
O5 Zn0 2.049 . S
O5 C13 1.260 . S
O6 Zn1 2.008 . S
O6 C13 1.257 . S
C7 O2 1.254 1_554 S
C7 O3 1.269 . S
C8 O9 1.250 1_554 S
C8 O10 1.270 . S
O9 Zn1 1.943 1_556 S
O9 C8 1.250 1_556 S
O10 Zn0 2.067 . S
O10 C8 1.270 . S
C11 O4 1.262 . S
C11 O12 1.232 . S
O12 C11 1.232 . S
C13 O5 1.260 . S
C13 O6 1.257 . S
Zn14 O17 2.031 . S
Zn14 O19 2.049 . S
Zn14 O24 2.067 . S
Zn15 O16 1.962 . S
Zn15 O18 1.986 . S
Zn15 O20 1.996 1_554 S
Zn15 O23 1.943 . S
O16 Zn15 1.962 . S
O16 C21 1.254 . S
O17 Zn14 2.031 . S
O17 C21 1.269 1_556 S
O18 Zn15 1.986 . S
O18 C25 1.262 . S
O19 Zn14 2.049 . S
O19 C27 1.260 . S
O20 Zn15 1.996 1_556 S
O20 C27 1.257 . S
C21 O16 1.254 . S
C21 O17 1.269 1_554 S
C22 O23 1.249 . S
C22 O24 1.270 1_554 S
O23 Zn15 1.943 . S
O23 C22 1.249 . S
O24 Zn14 2.067 . S
O24 C22 1.270 1_556 S
C25 O18 1.262 . S
C25 O26 1.232 . S
O26 C25 1.232 . S
C27 O19 1.260 . S
C27 O20 1.257 . S
Zn28 O31 2.031 . S
Zn28 O33 2.049 . S
Zn28 O38 2.067 . S
Zn29 O30 1.961 1_554 S
Zn29 O32 1.980 1_554 S
Zn29 O34 2.008 . S
Zn29 O37 1.943 1_554 S
O30 Zn29 1.961 1_556 S
O30 C35 1.254 1_556 S
O31 Zn28 2.031 . S
O31 C35 1.269 . S
O32 Zn29 1.980 1_556 S
O32 C39 1.262 . S
O33 Zn28 2.049 . S
O33 C41 1.260 . S
O34 Zn29 2.008 . S
O34 C41 1.257 . S
C35 O30 1.254 1_554 S
C35 O31 1.269 . S
C36 O37 1.250 1_554 S
C36 O38 1.270 . S
O37 Zn29 1.943 1_556 S
O37 C36 1.250 1_556 S
O38 Zn28 2.067 . S
O38 C36 1.270 . S
C39 O32 1.262 . S
C39 O40 1.232 . S
O40 C39 1.232 . S
C41 O33 1.260 . S
C41 O34 1.257 . S
Zn42 O45 2.031 . S
Zn42 O47 2.049 . S
Zn42 O52 2.067 . S
Zn43 O44 1.962 . S
Zn43 O46 1.986 . S
Zn43 O48 1.996 1_554 S
Zn43 O51 1.943 . S
O44 Zn43 1.962 . S
O44 C49 1.254 . S
O45 Zn42 2.031 . S
O45 C49 1.269 1_556 S
O46 Zn43 1.986 . S
O46 C53 1.262 . S
O47 Zn42 2.049 . S
O47 C55 1.260 . S
O48 Zn43 1.996 1_556 S
O48 C55 1.257 . S
C49 O44 1.254 . S
C49 O45 1.269 1_554 S
C50 O51 1.249 . S
C50 O52 1.270 1_554 S
O51 Zn43 1.943 . S
O51 C50 1.249 . S
O52 Zn42 2.067 . S
O52 C50 1.270 1_556 S
C53 O46 1.262 . S
C53 O54 1.232 . S
O54 C53 1.232 . S
C55 O47 1.260 . S
C55 O48 1.257 . S
Zn56 O59 2.031 . S
Zn56 O61 2.049 . S
Zn56 O66 2.067 . S
Zn57 O58 1.962 . S
Zn57 O60 1.986 . S
Zn57 O62 1.996 . S
Zn57 O65 1.943 . S
O58 Zn57 1.962 . S
O58 C63 1.254 . S
O59 Zn56 2.031 . S
O59 C63 1.269 . S
O60 Zn57 1.986 . S
O60 C67 1.262 . S
O61 Zn56 2.049 . S
O61 C69 1.260 . S
O62 Zn57 1.996 . S
O62 C69 1.257 . S
C63 O58 1.254 . S
C63 O59 1.269 . S
C64 O65 1.249 . S
C64 O66 1.270 . S
O65 Zn57 1.943 . S
O65 C64 1.249 . S
O66 Zn56 2.067 . S
O66 C64 1.270 . S
C67 O60 1.262 . S
C67 O68 1.232 . S
O68 C67 1.232 . S
C69 O61 1.260 . S
C69 O62 1.257 . S
Zn70 O73 2.031 . S
Zn70 O75 2.049 . S
Zn70 O80 2.067 . S
Zn71 O72 1.962 . S
Zn71 O74 1.986 . S
Zn71 O76 1.996 . S
Zn71 O79 1.943 . S
O72 Zn71 1.962 . S
O72 C77 1.254 . S
O73 Zn70 2.031 . S
O73 C77 1.269 . S
O74 Zn71 1.986 . S
O74 C81 1.262 . S
O75 Zn70 2.049 . S
O75 C83 1.260 . S
O76 Zn71 1.996 . S
O76 C83 1.257 . S
C77 O72 1.254 . S
C77 O73 1.269 . S
C78 O79 1.249 . S
C78 O80 1.270 . S
O79 Zn71 1.943 . S
O79 C78 1.249 . S
O80 Zn70 2.067 . S
O80 C78 1.270 . S
C81 O74 1.262 . S
C81 O82 1.232 . S
O82 C81 1.232 . S
C83 O75 1.260 . S
C83 O76 1.257 . S
Zn84 O87 2.031 . S
Zn84 O89 2.049 . S
Zn84 O94 2.067 . S
Zn85 O86 1.962 . S
Zn85 O88 1.986 . S
Zn85 O90 1.996 . S
Zn85 O93 1.943 . S
O86 Zn85 1.962 . S
O86 C91 1.254 . S
O87 Zn84 2.031 . S
O87 C91 1.269 . S
O88 Zn85 1.986 . S
O88 C95 1.262 . S
O89 Zn84 2.049 . S
O89 C97 1.260 . S
O90 Zn85 1.996 . S
O90 C97 1.257 . S
C91 O86 1.254 . S
C91 O87 1.269 . S
C92 O93 1.249 . S
C92 O94 1.270 . S
O93 Zn85 1.943 . S
O93 C92 1.249 . S
O94 Zn84 2.067 . S
O94 C92 1.270 . S
C95 O88 1.262 . S
C95 O96 1.232 . S
O96 C95 1.232 . S
C97 O89 1.260 . S
C97 O90 1.257 . S
Zn98 O101 2.031 . S
Zn98 O103 2.049 . S
Zn98 O108 2.067 . S
Zn99 O100 1.962 . S
Zn99 O102 1.986 . S
Zn99 O104 1.996 . S
Zn99 O107 1.943 . S
O100 Zn99 1.962 . S
O100 C105 1.254 . S
O101 Zn98 2.031 . S
O101 C105 1.269 . S
O102 Zn99 1.986 . S
O102 C109 1.262 . S
O103 Zn98 2.049 . S
O103 C111 1.260 . S
O104 Zn99 1.996 . S
O104 C111 1.257 . S
C105 O100 1.254 . S
C105 O101 1.269 . S
C106 O107 1.249 . S
C106 O108 1.270 . S
O107 Zn99 1.943 . S
O107 C106 1.249 . S
O108 Zn98 2.067 . S
O108 C106 1.270 . S
C109 O102 1.262 . S
C109 O110 1.232 . S
O110 C109 1.232 . S
C111 O103 1.260 . S
C111 O104 1.257 . S
H112 C124 0.930 . S
H113 C126 0.930 . S
H114 C127 0.930 . S
H115 C131 0.959 . S
H116 C131 0.959 . S
H117 C131 0.961 . S
H118 C132 0.960 . S
H119 C132 0.961 . S
H120 C132 0.959 . S
H121 C135 0.929 . S
H122 C136 0.931 . S
H123 C138 0.930 . S
C124 H112 0.930 . S
C124 C125 1.399 . S
C124 C129 1.399 . S
C125 C124 1.399 . S
C125 C126 1.376 1_554 S
C126 H113 0.930 . S
C126 C125 1.376 1_556 S
C126 C127 1.388 . S
C127 H114 0.930 . S
C127 C126 1.388 . S
C127 C128 1.389 . S
C128 C127 1.389 . S
C128 C129 1.394 1_556 S
C128 C134 1.465 . S
C129 C124 1.399 . S
C129 C128 1.394 1_554 S
C129 C130 1.516 . S
C130 C129 1.516 . S
C130 C131 1.502 . S
C130 C132 1.561 . S
C130 C133 1.526 . S
C131 H115 0.959 . S
C131 H116 0.959 . S
C131 H117 0.961 . S
C131 C130 1.502 . S
C132 H118 0.960 . S
C132 H119 0.961 . S
C132 H120 0.959 . S
C132 C130 1.561 . S
C133 C130 1.526 . S
C133 C134 1.384 1_554 S
C133 C138 1.390 . S
C134 C128 1.465 . S
C134 C133 1.384 1_556 S
C134 C135 1.409 . S
C135 H121 0.929 . S
C135 C134 1.409 . S
C135 C136 1.385 . S
C136 H122 0.931 . S
C136 C135 1.385 . S
C136 C137 1.389 1_556 S
C137 C136 1.389 1_554 S
C137 C138 1.387 . S
C138 H123 0.930 . S
C138 C133 1.390 . S
C138 C137 1.387 . S
H139 C151 0.930 1_556 S
H140 C153 0.930 . S
H141 C154 0.930 . S
H142 C158 0.959 . S
H143 C158 0.959 . S
H144 C158 0.961 . S
H145 C159 0.960 . S
H146 C159 0.961 . S
H147 C159 0.959 . S
H148 C162 0.929 . S
H149 C163 0.931 . S
H150 C165 0.930 . S
C151 H139 0.930 1_554 S
C151 C152 1.399 . S
C151 C156 1.399 . S
C152 C151 1.399 . S
C152 C153 1.376 . S
C153 H140 0.930 . S
C153 C152 1.376 . S
C153 C154 1.388 . S
C154 H141 0.930 . S
C154 C153 1.388 . S
C154 C155 1.390 . S
C155 C154 1.390 . S
C155 C156 1.394 . S
C155 C161 1.465 . S
C156 C151 1.399 . S
C156 C155 1.394 . S
C156 C157 1.516 1_554 S
C157 C156 1.516 1_556 S
C157 C158 1.502 1_556 S
C157 C159 1.561 . S
C157 C160 1.526 1_556 S
C158 H142 0.959 . S
C158 H143 0.959 . S
C158 H144 0.961 . S
C158 C157 1.502 1_554 S
C159 H145 0.960 . S
C159 H146 0.961 . S
C159 H147 0.959 . S
C159 C157 1.561 . S
C160 C157 1.526 1_554 S
C160 C161 1.396 . S
C160 C165 1.390 . S
C161 C155 1.465 . S
C161 C160 1.396 . S
C161 C162 1.399 . S
C162 H148 0.929 . S
C162 C161 1.399 . S
C162 C163 1.385 . S
C163 H149 0.931 . S
C163 C162 1.385 . S
C163 C164 1.389 . S
C164 C163 1.389 . S
C164 C165 1.387 . S
C165 H150 0.930 . S
C165 C160 1.390 . S
C165 C164 1.387 . S
H166 C178 0.930 . S
H167 C180 0.930 . S
H168 C181 0.930 . S
H169 C185 0.959 . S
H170 C185 0.959 . S
H171 C185 0.961 . S
H172 C186 0.960 . S
H173 C186 0.961 . S
H174 C186 0.959 . S
H175 C189 0.929 . S
H176 C190 0.931 . S
H177 C192 0.930 . S
C178 H166 0.930 . S
C178 C179 1.399 . S
C178 C183 1.399 . S
C179 C178 1.399 . S
C179 C180 1.376 1_554 S
C180 H167 0.930 . S
C180 C179 1.376 1_556 S
C180 C181 1.388 . S
C181 H168 0.930 . S
C181 C180 1.388 . S
C181 C182 1.390 1_556 S
C182 C181 1.390 1_554 S
C182 C183 1.394 . S
C182 C188 1.465 . S
C183 C178 1.399 . S
C183 C182 1.394 . S
C183 C184 1.516 . S
C184 C183 1.516 . S
C184 C185 1.502 . S
C184 C186 1.561 . S
C184 C187 1.526 . S
C185 H169 0.959 . S
C185 H170 0.959 . S
C185 H171 0.961 . S
C185 C184 1.502 . S
C186 H172 0.960 . S
C186 H173 0.961 . S
C186 H174 0.959 . S
C186 C184 1.561 . S
C187 C184 1.526 . S
C187 C188 1.396 . S
C187 C192 1.390 . S
C188 C182 1.465 . S
C188 C187 1.396 . S
C188 C189 1.399 1_554 S
C189 H175 0.929 . S
C189 C188 1.399 1_556 S
C189 C190 1.385 . S
C190 H176 0.931 . S
C190 C189 1.385 . S
C190 C191 1.389 1_556 S
C191 C190 1.389 1_554 S
C191 C192 1.387 . S
C192 H177 0.930 . S
C192 C187 1.390 . S
C192 C191 1.387 . S
H193 C205 0.930 . S
H194 C207 0.930 . S
H195 C208 0.930 . S
H196 C212 0.959 . S
H197 C212 0.959 . S
H198 C212 0.961 . S
H199 C213 0.960 . S
H200 C213 0.961 . S
H201 C213 0.959 . S
H202 C216 0.929 . S
H203 C217 0.931 . S
H204 C219 0.930 1_556 S
C205 H193 0.930 . S
C205 C206 1.399 . S
C205 C210 1.399 . S
C206 C205 1.399 . S
C206 C207 1.376 . S
C207 H194 0.930 . S
C207 C206 1.376 . S
C207 C208 1.388 . S
C208 H195 0.930 . S
C208 C207 1.388 . S
C208 C209 1.390 . S
C209 C208 1.390 . S
C209 C210 1.394 . S
C209 C215 1.465 . S
C210 C205 1.399 . S
C210 C209 1.394 . S
C210 C211 1.516 . S
C211 C210 1.516 . S
C211 C212 1.502 1_554 S
C211 C213 1.561 . S
C211 C214 1.526 . S
C212 H196 0.959 . S
C212 H197 0.959 . S
C212 H198 0.961 . S
C212 C211 1.502 1_556 S
C213 H199 0.960 . S
C213 H200 0.961 . S
C213 H201 0.959 . S
C213 C211 1.561 . S
C214 C211 1.526 . S
C214 C215 1.396 . S
C214 C219 1.390 . S
C215 C209 1.465 . S
C215 C214 1.396 . S
C215 C216 1.399 . S
C216 H202 0.929 . S
C216 C215 1.399 . S
C216 C217 1.385 . S
C217 H203 0.931 . S
C217 C216 1.385 . S
C217 C218 1.389 . S
C218 C217 1.389 . S
C218 C219 1.387 . S
C219 H204 0.930 1_554 S
C219 C214 1.390 . S
C219 C218 1.387 . S
H220 C232 0.930 . S
H221 C234 0.930 . S
H222 C235 0.930 . S
H223 C239 0.962 . S
H224 C239 0.979 . S
H225 C239 0.940 1_565 S
H226 C240 0.959 1_565 S
H227 C240 0.962 . S
H228 C240 0.959 . S
H229 C243 0.929 . S
H230 C244 0.931 . S
H231 C246 0.930 . S
C232 H220 0.930 . S
C232 C233 1.399 . S
C232 C237 1.399 . S
C233 C232 1.399 . S
C233 C234 1.376 . S
C234 H221 0.930 . S
C234 C233 1.376 . S
C234 C235 1.388 . S
C235 H222 0.930 . S
C235 C234 1.388 . S
C235 C236 1.390 . S
C236 C235 1.390 . S
C236 C237 1.394 . S
C236 C242 1.465 1_565 S
C237 C232 1.399 . S
C237 C236 1.394 . S
C237 C238 1.517 1_565 S
C238 C237 1.517 1_545 S
C238 C239 1.502 . S
C238 C240 1.561 . S
C238 C241 1.525 . S
C239 H223 0.962 . S
C239 H224 0.979 . S
C239 H225 0.940 1_545 S
C239 C238 1.502 . S
C240 H226 0.959 1_545 S
C240 H227 0.962 . S
C240 H228 0.959 . S
C240 C238 1.561 . S
C241 C238 1.525 . S
C241 C242 1.396 . S
C241 C246 1.390 . S
C242 C236 1.465 1_545 S
C242 C241 1.396 . S
C242 C243 1.399 . S
C243 H229 0.929 . S
C243 C242 1.399 . S
C243 C244 1.385 . S
C244 H230 0.931 . S
C244 C243 1.385 . S
C244 C245 1.389 . S
C245 C244 1.389 . S
C245 C246 1.387 . S
C246 H231 0.930 . S
C246 C241 1.390 . S
C246 C245 1.387 . S
H247 C259 0.930 . S
H248 C261 0.930 . S
H249 C262 0.930 . S
H250 C266 0.959 . S
H251 C266 0.958 . S
H252 C266 0.962 1_455 S
H253 C267 0.960 1_455 S
H254 C267 0.961 . S
H255 C267 0.959 . S
H256 C270 0.929 . S
H257 C271 0.931 . S
H258 C273 0.930 . S
C259 H247 0.930 . S
C259 C260 1.399 . S
C259 C264 1.399 . S
C260 C259 1.399 . S
C260 C261 1.376 . S
C261 H248 0.930 . S
C261 C260 1.376 . S
C261 C262 1.388 . S
C262 H249 0.930 . S
C262 C261 1.388 . S
C262 C263 1.390 . S
C263 C262 1.390 . S
C263 C264 1.394 . S
C263 C269 1.465 1_455 S
C264 C259 1.399 . S
C264 C263 1.394 . S
C264 C265 1.499 1_455 S
C265 C264 1.499 1_655 S
C265 C266 1.502 . S
C265 C267 1.563 . S
C265 C268 1.543 . S
C266 H250 0.959 . S
C266 H251 0.958 . S
C266 H252 0.962 1_655 S
C266 C265 1.502 . S
C267 H253 0.960 1_655 S
C267 H254 0.961 . S
C267 H255 0.959 . S
C267 C265 1.563 . S
C268 C265 1.543 . S
C268 C269 1.396 . S
C268 C273 1.390 . S
C269 C263 1.465 1_655 S
C269 C268 1.396 . S
C269 C270 1.399 . S
C270 H256 0.929 . S
C270 C269 1.399 . S
C270 C271 1.385 . S
C271 H257 0.931 . S
C271 C270 1.385 . S
C271 C272 1.389 . S
C272 C271 1.389 . S
C272 C273 1.387 . S
C273 H258 0.930 . S
C273 C268 1.390 . S
C273 C272 1.387 . S
H274 C286 0.930 . S
H275 C288 0.930 . S
H276 C289 0.930 . S
H277 C293 0.962 . S
H278 C293 0.978 . S
H279 C293 0.940 1_545 S
H280 C294 0.959 1_545 S
H281 C294 0.962 . S
H282 C294 0.959 . S
H283 C297 0.929 . S
H284 C298 0.931 . S
H285 C300 0.930 . S
C286 H274 0.930 . S
C286 C287 1.399 . S
C286 C291 1.399 . S
C287 C286 1.399 . S
C287 C288 1.376 . S
C288 H275 0.930 . S
C288 C287 1.376 . S
C288 C289 1.388 . S
C289 H276 0.930 . S
C289 C288 1.388 . S
C289 C290 1.390 . S
C290 C289 1.390 . S
C290 C291 1.394 . S
C290 C296 1.465 1_545 S
C291 C286 1.399 . S
C291 C290 1.394 . S
C291 C292 1.517 1_545 S
C292 C291 1.517 1_565 S
C292 C293 1.502 . S
C292 C294 1.561 . S
C292 C295 1.525 . S
C293 H277 0.962 . S
C293 H278 0.978 . S
C293 H279 0.940 1_565 S
C293 C292 1.502 . S
C294 H280 0.959 1_565 S
C294 H281 0.962 . S
C294 H282 0.959 . S
C294 C292 1.561 . S
C295 C292 1.525 . S
C295 C296 1.396 . S
C295 C300 1.390 . S
C296 C290 1.465 1_565 S
C296 C295 1.396 . S
C296 C297 1.399 . S
C297 H283 0.929 . S
C297 C296 1.399 . S
C297 C298 1.385 . S
C298 H284 0.931 . S
C298 C297 1.385 . S
C298 C299 1.389 . S
C299 C298 1.389 . S
C299 C300 1.387 . S
C300 H285 0.930 . S
C300 C295 1.390 . S
C300 C299 1.387 . S
H301 C313 0.930 . S
H302 C315 0.930 . S
H303 C316 0.930 . S
H304 C320 0.962 . S
H305 C320 0.959 1_455 S
H306 C320 0.961 . S
H307 C321 0.968 . S
H308 C321 0.954 1_455 S
H309 C321 0.958 1_455 S
H310 C324 0.929 . S
H311 C325 0.931 . S
H312 C327 0.930 . S
C313 H301 0.930 . S
C313 C314 1.399 . S
C313 C318 1.399 . S
C314 C313 1.399 . S
C314 C315 1.376 . S
C315 H302 0.930 . S
C315 C314 1.376 . S
C315 C316 1.388 . S
C316 H303 0.930 . S
C316 C315 1.388 . S
C316 C317 1.390 . S
C317 C316 1.390 . S
C317 C318 1.394 . S
C317 C323 1.465 1_655 S
C318 C313 1.399 . S
C318 C317 1.394 . S
C318 C319 1.516 . S
C319 C318 1.516 . S
C319 C320 1.502 . S
C319 C321 1.561 . S
C319 C322 1.526 1_655 S
C320 H304 0.962 . S
C320 H305 0.959 1_655 S
C320 H306 0.961 . S
C320 C319 1.502 . S
C321 H307 0.968 . S
C321 H308 0.954 1_655 S
C321 H309 0.958 1_655 S
C321 C319 1.561 . S
C322 C319 1.526 1_455 S
C322 C323 1.396 . S
C322 C327 1.390 . S
C323 C317 1.465 1_455 S
C323 C322 1.396 . S
C323 C324 1.399 . S
C324 H310 0.929 . S
C324 C323 1.399 . S
C324 C325 1.385 . S
C325 H311 0.931 . S
C325 C324 1.385 . S
C325 C326 1.389 . S
C326 C325 1.389 . S
C326 C327 1.387 . S
C327 H312 0.930 . S
C327 C322 1.390 . S
C327 C326 1.387 . S
H328 C340 0.930 . S
H329 C342 0.930 . S
H330 C343 0.930 . S
H331 C347 0.959 . S
H332 C347 0.959 . S
H333 C347 0.961 . S
H334 C348 0.960 . S
H335 C348 0.961 . S
H336 C348 0.959 . S
H337 C351 0.929 . S
H338 C352 0.931 . S
H339 C354 0.930 . S
C340 H328 0.930 . S
C340 C341 1.399 . S
C340 C345 1.399 . S
C341 C340 1.399 . S
C341 C342 1.376 . S
C342 H329 0.930 . S
C342 C341 1.376 . S
C342 C343 1.388 . S
C343 H330 0.930 . S
C343 C342 1.388 . S
C343 C344 1.390 . S
C344 C343 1.390 . S
C344 C345 1.394 . S
C344 C350 1.465 . S
C345 C340 1.399 . S
C345 C344 1.394 . S
C345 C346 1.516 . S
C346 C345 1.516 . S
C346 C347 1.502 . S
C346 C348 1.561 . S
C346 C349 1.526 . S
C347 H331 0.959 . S
C347 H332 0.959 . S
C347 H333 0.961 . S
C347 C346 1.502 . S
C348 H334 0.960 . S
C348 H335 0.961 . S
C348 H336 0.959 . S
C348 C346 1.561 . S
C349 C346 1.526 . S
C349 C350 1.396 . S
C349 C354 1.390 . S
C350 C344 1.465 . S
C350 C349 1.396 . S
C350 C351 1.399 . S
C351 H337 0.929 . S
C351 C350 1.399 . S
C351 C352 1.385 . S
C352 H338 0.931 . S
C352 C351 1.385 . S
C352 C353 1.389 . S
C353 C352 1.389 . S
C353 C354 1.387 . S
C354 H339 0.930 . S
C354 C349 1.390 . S
C354 C353 1.387 . S
H355 C367 0.930 . S
H356 C369 0.930 . S
H357 C370 0.930 . S
H358 C374 0.959 . S
H359 C374 0.959 . S
H360 C374 0.961 . S
H361 C375 0.960 . S
H362 C375 0.961 . S
H363 C375 0.959 . S
H364 C378 0.929 . S
H365 C379 0.931 . S
H366 C381 0.930 . S
C367 H355 0.930 . S
C367 C368 1.399 . S
C367 C372 1.399 . S
C368 C367 1.399 . S
C368 C369 1.376 . S
C369 H356 0.930 . S
C369 C368 1.376 . S
C369 C370 1.388 . S
C370 H357 0.930 . S
C370 C369 1.388 . S
C370 C371 1.390 . S
C371 C370 1.390 . S
C371 C372 1.394 . S
C371 C377 1.465 . S
C372 C367 1.399 . S
C372 C371 1.394 . S
C372 C373 1.516 . S
C373 C372 1.516 . S
C373 C374 1.502 . S
C373 C375 1.561 . S
C373 C376 1.526 . S
C374 H358 0.959 . S
C374 H359 0.959 . S
C374 H360 0.961 . S
C374 C373 1.502 . S
C375 H361 0.960 . S
C375 H362 0.961 . S
C375 H363 0.959 . S
C375 C373 1.561 . S
C376 C373 1.526 . S
C376 C377 1.396 . S
C376 C381 1.390 . S
C377 C371 1.465 . S
C377 C376 1.396 . S
C377 C378 1.399 . S
C378 H364 0.929 . S
C378 C377 1.399 . S
C378 C379 1.385 . S
C379 H365 0.931 . S
C379 C378 1.385 . S
C379 C380 1.389 . S
C380 C379 1.389 . S
C380 C381 1.387 . S
C381 H366 0.930 . S
C381 C376 1.390 . S
C381 C380 1.387 . S
H382 C394 0.930 . S
H383 C396 0.930 . S
H384 C397 0.930 . S
H385 C401 0.959 . S
H386 C401 0.959 . S
H387 C401 0.961 . S
H388 C402 0.960 . S
H389 C402 0.961 . S
H390 C402 0.959 . S
H391 C405 0.929 . S
H392 C406 0.931 . S
H393 C408 0.930 . S
C394 H382 0.930 . S
C394 C395 1.399 . S
C394 C399 1.399 . S
C395 C394 1.399 . S
C395 C396 1.376 . S
C396 H383 0.930 . S
C396 C395 1.376 . S
C396 C397 1.388 . S
C397 H384 0.930 . S
C397 C396 1.388 . S
C397 C398 1.390 . S
C398 C397 1.390 . S
C398 C399 1.394 . S
C398 C404 1.465 . S
C399 C394 1.399 . S
C399 C398 1.394 . S
C399 C400 1.516 . S
C400 C399 1.516 . S
C400 C401 1.502 . S
C400 C402 1.561 . S
C400 C403 1.526 . S
C401 H385 0.959 . S
C401 H386 0.959 . S
C401 H387 0.961 . S
C401 C400 1.502 . S
C402 H388 0.960 . S
C402 H389 0.961 . S
C402 H390 0.959 . S
C402 C400 1.561 . S
C403 C400 1.526 . S
C403 C404 1.396 . S
C403 C408 1.390 . S
C404 C398 1.465 . S
C404 C403 1.396 . S
C404 C405 1.399 . S
C405 H391 0.929 . S
C405 C404 1.399 . S
C405 C406 1.385 . S
C406 H392 0.931 . S
C406 C405 1.385 . S
C406 C407 1.389 . S
C407 C406 1.389 . S
C407 C408 1.387 . S
C408 H393 0.930 . S
C408 C403 1.390 . S
C408 C407 1.387 . S
H409 C421 0.930 . S
H410 C423 0.930 . S
H411 C424 0.930 . S
H412 C428 0.959 . S
H413 C428 0.959 . S
H414 C428 0.961 . S
H415 C429 0.960 . S
H416 C429 0.961 . S
H417 C429 0.959 . S
H418 C432 0.929 . S
H419 C433 0.931 . S
H420 C435 0.930 . S
C421 H409 0.930 . S
C421 C422 1.399 . S
C421 C426 1.399 . S
C422 C421 1.399 . S
C422 C423 1.376 . S
C423 H410 0.930 . S
C423 C422 1.376 . S
C423 C424 1.388 . S
C424 H411 0.930 . S
C424 C423 1.388 . S
C424 C425 1.390 . S
C425 C424 1.390 . S
C425 C426 1.394 . S
C425 C431 1.465 . S
C426 C421 1.399 . S
C426 C425 1.394 . S
C426 C427 1.516 . S
C427 C426 1.516 . S
C427 C428 1.502 . S
C427 C429 1.561 . S
C427 C430 1.526 . S
C428 H412 0.959 . S
C428 H413 0.959 . S
C428 H414 0.961 . S
C428 C427 1.502 . S
C429 H415 0.960 . S
C429 H416 0.961 . S
C429 H417 0.959 . S
C429 C427 1.561 . S
C430 C427 1.526 . S
C430 C431 1.396 . S
C430 C435 1.390 . S
C431 C425 1.465 . S
C431 C430 1.396 . S
C431 C432 1.399 . S
C432 H418 0.929 . S
C432 C431 1.399 . S
C432 C433 1.385 . S
C433 H419 0.931 . S
C433 C432 1.385 . S
C433 C434 1.389 . S
C434 C433 1.389 . S
C434 C435 1.387 . S
C435 H420 0.930 . S
C435 C430 1.390 . S
C435 C434 1.387 . S
H436 C448 0.930 . S
H437 C450 0.930 . S
H438 C451 0.930 . S
H439 C455 0.959 . S
H440 C455 0.959 . S
H441 C455 0.961 . S
H442 C456 0.960 . S
H443 C456 0.961 . S
H444 C456 0.959 . S
H445 C459 0.929 . S
H446 C460 0.931 . S
H447 C462 0.930 . S
C448 H436 0.930 . S
C448 C449 1.399 . S
C448 C453 1.399 . S
C449 C448 1.399 . S
C449 C450 1.376 . S
C450 H437 0.930 . S
C450 C449 1.376 . S
C450 C451 1.388 . S
C451 H438 0.930 . S
C451 C450 1.388 . S
C451 C452 1.390 . S
C452 C451 1.390 . S
C452 C453 1.394 . S
C452 C458 1.465 . S
C453 C448 1.399 . S
C453 C452 1.394 . S
C453 C454 1.516 . S
C454 C453 1.516 . S
C454 C455 1.502 . S
C454 C456 1.561 . S
C454 C457 1.526 . S
C455 H439 0.959 . S
C455 H440 0.959 . S
C455 H441 0.961 . S
C455 C454 1.502 . S
C456 H442 0.960 . S
C456 H443 0.961 . S
C456 H444 0.959 . S
C456 C454 1.561 . S
C457 C454 1.526 . S
C457 C458 1.396 . S
C457 C462 1.390 . S
C458 C452 1.465 . S
C458 C457 1.396 . S
C458 C459 1.399 . S
C459 H445 0.929 . S
C459 C458 1.399 . S
C459 C460 1.385 . S
C460 H446 0.931 . S
C460 C459 1.385 . S
C460 C461 1.389 . S
C461 C460 1.389 . S
C461 C462 1.387 . S
C462 H447 0.930 . S
C462 C457 1.390 . S
C462 C461 1.387 . S
H463 C475 0.930 . S
H464 C477 0.930 . S
H465 C478 0.930 . S
H466 C482 0.959 . S
H467 C482 0.959 . S
H468 C482 0.961 . S
H469 C483 0.960 . S
H470 C483 0.961 . S
H471 C483 0.959 . S
H472 C486 0.929 . S
H473 C487 0.931 . S
H474 C489 0.930 . S
C475 H463 0.930 . S
C475 C476 1.399 . S
C475 C480 1.399 . S
C476 C475 1.399 . S
C476 C477 1.376 . S
C477 H464 0.930 . S
C477 C476 1.376 . S
C477 C478 1.388 . S
C478 H465 0.930 . S
C478 C477 1.388 . S
C478 C479 1.390 . S
C479 C478 1.390 . S
C479 C480 1.394 . S
C479 C485 1.465 . S
C480 C475 1.399 . S
C480 C479 1.394 . S
C480 C481 1.516 . S
C481 C480 1.516 . S
C481 C482 1.502 . S
C481 C483 1.561 . S
C481 C484 1.526 . S
C482 H466 0.959 . S
C482 H467 0.959 . S
C482 H468 0.961 . S
C482 C481 1.502 . S
C483 H469 0.960 . S
C483 H470 0.961 . S
C483 H471 0.959 . S
C483 C481 1.561 . S
C484 C481 1.526 . S
C484 C485 1.396 . S
C484 C489 1.390 . S
C485 C479 1.465 . S
C485 C484 1.396 . S
C485 C486 1.399 . S
C486 H472 0.929 . S
C486 C485 1.399 . S
C486 C487 1.385 . S
C487 H473 0.931 . S
C487 C486 1.385 . S
C487 C488 1.389 . S
C488 C487 1.389 . S
C488 C489 1.387 . S
C489 H474 0.930 . S
C489 C484 1.390 . S
C489 C488 1.387 . S
H490 C502 0.930 . S
H491 C504 0.930 . S
H492 C505 0.930 . S
H493 C509 0.959 . S
H494 C509 0.959 . S
H495 C509 0.961 . S
H496 C510 0.960 . S
H497 C510 0.961 . S
H498 C510 0.959 . S
H499 C513 0.929 . S
H500 C514 0.931 . S
H501 C516 0.930 . S
C502 H490 0.930 . S
C502 C503 1.399 . S
C502 C507 1.399 . S
C503 C502 1.399 . S
C503 C504 1.376 . S
C504 H491 0.930 . S
C504 C503 1.376 . S
C504 C505 1.388 . S
C505 H492 0.930 . S
C505 C504 1.388 . S
C505 C506 1.390 . S
C506 C505 1.390 . S
C506 C507 1.394 . S
C506 C512 1.465 . S
C507 C502 1.399 . S
C507 C506 1.394 . S
C507 C508 1.516 . S
C508 C507 1.516 . S
C508 C509 1.502 . S
C508 C510 1.561 . S
C508 C511 1.526 . S
C509 H493 0.959 . S
C509 H494 0.959 . S
C509 H495 0.961 . S
C509 C508 1.502 . S
C510 H496 0.960 . S
C510 H497 0.961 . S
C510 H498 0.959 . S
C510 C508 1.561 . S
C511 C508 1.526 . S
C511 C512 1.396 . S
C511 C516 1.390 . S
C512 C506 1.465 . S
C512 C511 1.396 . S
C512 C513 1.399 . S
C513 H499 0.929 . S
C513 C512 1.399 . S
C513 C514 1.385 . S
C514 H500 0.931 . S
C514 C513 1.385 . S
C514 C515 1.389 . S
C515 C514 1.389 . S
C515 C516 1.387 . S
C516 H501 0.930 . S
C516 C511 1.390 . S
C516 C515 1.387 . S
H517 C529 0.930 . S
H518 C531 0.930 . S
H519 C532 0.930 . S
H520 C536 0.959 . S
H521 C536 0.959 . S
H522 C536 0.961 . S
H523 C537 0.960 . S
H524 C537 0.961 . S
H525 C537 0.959 . S
H526 C540 0.929 . S
H527 C541 0.931 . S
H528 C543 0.930 . S
C529 H517 0.930 . S
C529 C530 1.399 . S
C529 C534 1.399 . S
C530 C529 1.399 . S
C530 C531 1.376 . S
C531 H518 0.930 . S
C531 C530 1.376 . S
C531 C532 1.388 . S
C532 H519 0.930 . S
C532 C531 1.388 . S
C532 C533 1.390 . S
C533 C532 1.390 . S
C533 C534 1.394 . S
C533 C539 1.465 . S
C534 C529 1.399 . S
C534 C533 1.394 . S
C534 C535 1.516 . S
C535 C534 1.516 . S
C535 C536 1.502 . S
C535 C537 1.561 . S
C535 C538 1.526 . S
C536 H520 0.959 . S
C536 H521 0.959 . S
C536 H522 0.961 . S
C536 C535 1.502 . S
C537 H523 0.960 . S
C537 H524 0.961 . S
C537 H525 0.959 . S
C537 C535 1.561 . S
C538 C535 1.526 . S
C538 C539 1.396 . S
C538 C543 1.390 . S
C539 C533 1.465 . S
C539 C538 1.396 . S
C539 C540 1.399 . S
C540 H526 0.929 . S
C540 C539 1.399 . S
C540 C541 1.385 . S
C541 H527 0.931 . S
C541 C540 1.385 . S
C541 C542 1.389 . S
C542 C541 1.389 . S
C542 C543 1.387 . S
C543 H528 0.930 . S
C543 C538 1.390 . S
C543 C542 1.387 . S
C125 C8 1.467 . S
C137 C50 1.427 . S
C152 C7 1.451 . S
C164 C21 1.453 . S
C179 C22 1.447 . S
C191 C36 1.460 . S
C206 C49 1.464 . S
C218 C35 1.441 . S
C233 C64 1.463 . S
C245 C106 1.430 . S
C260 C77 1.455 . S
C272 C63 1.449 . S
C287 C92 1.469 . S
C299 C78 1.426 . S
C314 C105 1.472 . S
C326 C91 1.435 . S
C341 C95 1.459 . S
C353 C13 1.342 . S
C368 C25 1.444 . S
C380 C111 1.346 . S
C395 C67 1.459 . S
C407 C41 1.299 . S
C422 C83 1.403 . S
C434 C53 1.444 . S
C449 C81 1.454 . S
C461 C55 1.370 . S
C476 C11 1.452 . S
C488 C97 1.315 . S
C503 C27 1.400 . S
C515 C109 1.446 . S
C530 C39 1.440 . S
C542 C69 1.407 . S
