# Generated by pormake.
# Topology vba, (4)-cn, num edge types: 1
# Building blocks:
#     Node 0, Type 0, BuildingBlock: GALJAG_clean_sbu_0, # of connection points: 4
#     Node 1, Type 0, BuildingBlock: GALJAG_clean_sbu_0, # of connection points: 4
#     Node 2, Type 0, BuildingBlock: GALJAG_clean_sbu_0, # of connection points: 4
#     Node 3, Type 0, BuildingBlock: GALJAG_clean_sbu_0, # of connection points: 4
#     Node 4, Type 0, BuildingBlock: GALJAG_clean_sbu_0, # of connection points: 4
#     Node 5, Type 0, BuildingBlock: GALJAG_clean_sbu_0, # of connection points: 4
#     Node 6, Type 0, BuildingBlock: GALJAG_clean_sbu_0, # of connection points: 4
#     Node 7, Type 0, BuildingBlock: GALJAG_clean_sbu_0, # of connection points: 4
#     Node 8, Type 0, BuildingBlock: GALJAG_clean_sbu_0, # of connection points: 4
#     Node 9, Type 0, BuildingBlock: GALJAG_clean_sbu_0, # of connection points: 4
#     Node 10, Type 0, BuildingBlock: GALJAG_clean_sbu_0, # of connection points: 4
#     Node 11, Type 0, BuildingBlock: GALJAG_clean_sbu_0, # of connection points: 4
#     Node 12, Type 0, BuildingBlock: GALJAG_clean_sbu_0, # of connection points: 4
#     Node 13, Type 0, BuildingBlock: GALJAG_clean_sbu_0, # of connection points: 4
#     Node 14, Type 0, BuildingBlock: GALJAG_clean_sbu_0, # of connection points: 4
#     Node 15, Type 0, BuildingBlock: GALJAG_clean_sbu_0, # of connection points: 4
#     Node 16, Type 0, BuildingBlock: GALJAG_clean_sbu_0, # of connection points: 4
#     Node 17, Type 0, BuildingBlock: GALJAG_clean_sbu_0, # of connection points: 4
#     Node 18, Type 0, BuildingBlock: GALJAG_clean_sbu_0, # of connection points: 4
#     Node 19, Type 0, BuildingBlock: GALJAG_clean_sbu_0, # of connection points: 4
#     Node 20, Type 0, BuildingBlock: GALJAG_clean_sbu_0, # of connection points: 4
#     Node 21, Type 0, BuildingBlock: GALJAG_clean_sbu_0, # of connection points: 4
#     Node 22, Type 0, BuildingBlock: GALJAG_clean_sbu_0, # of connection points: 4
#     Node 23, Type 0, BuildingBlock: GALJAG_clean_sbu_0, # of connection points: 4
#     Node 24, Type 0, BuildingBlock: GALJAG_clean_sbu_0, # of connection points: 4
#     Node 25, Type 0, BuildingBlock: GALJAG_clean_sbu_0, # of connection points: 4
#     Node 26, Type 0, BuildingBlock: GALJAG_clean_sbu_0, # of connection points: 4
#     Node 27, Type 0, BuildingBlock: GALJAG_clean_sbu_0, # of connection points: 4
#     Node 28, Type 0, BuildingBlock: GALJAG_clean_sbu_0, # of connection points: 4
#     Node 29, Type 0, BuildingBlock: GALJAG_clean_sbu_0, # of connection points: 4
#     Node 30, Type 0, BuildingBlock: GALJAG_clean_sbu_0, # of connection points: 4
#     Node 31, Type 0, BuildingBlock: GALJAG_clean_sbu_0, # of connection points: 4
#     Edge 32, Type (0, 0), BuildingBlock: OJICUG_clean_linker_0, # of connection points: 2
#     Edge 33, Type (0, 0), BuildingBlock: OJICUG_clean_linker_0, # of connection points: 2
#     Edge 34, Type (0, 0), BuildingBlock: OJICUG_clean_linker_0, # of connection points: 2
#     Edge 35, Type (0, 0), BuildingBlock: OJICUG_clean_linker_0, # of connection points: 2
#     Edge 36, Type (0, 0), BuildingBlock: OJICUG_clean_linker_0, # of connection points: 2
#     Edge 37, Type (0, 0), BuildingBlock: OJICUG_clean_linker_0, # of connection points: 2
#     Edge 38, Type (0, 0), BuildingBlock: OJICUG_clean_linker_0, # of connection points: 2
#     Edge 39, Type (0, 0), BuildingBlock: OJICUG_clean_linker_0, # of connection points: 2
#     Edge 40, Type (0, 0), BuildingBlock: OJICUG_clean_linker_0, # of connection points: 2
#     Edge 41, Type (0, 0), BuildingBlock: OJICUG_clean_linker_0, # of connection points: 2
#     Edge 42, Type (0, 0), BuildingBlock: OJICUG_clean_linker_0, # of connection points: 2
#     Edge 43, Type (0, 0), BuildingBlock: OJICUG_clean_linker_0, # of connection points: 2
#     Edge 44, Type (0, 0), BuildingBlock: OJICUG_clean_linker_0, # of connection points: 2
#     Edge 45, Type (0, 0), BuildingBlock: OJICUG_clean_linker_0, # of connection points: 2
#     Edge 46, Type (0, 0), BuildingBlock: OJICUG_clean_linker_0, # of connection points: 2
#     Edge 47, Type (0, 0), BuildingBlock: OJICUG_clean_linker_0, # of connection points: 2
#     Edge 48, Type (0, 0), BuildingBlock: OJICUG_clean_linker_0, # of connection points: 2
#     Edge 49, Type (0, 0), BuildingBlock: OJICUG_clean_linker_0, # of connection points: 2
#     Edge 50, Type (0, 0), BuildingBlock: OJICUG_clean_linker_0, # of connection points: 2
#     Edge 51, Type (0, 0), BuildingBlock: OJICUG_clean_linker_0, # of connection points: 2
#     Edge 52, Type (0, 0), BuildingBlock: OJICUG_clean_linker_0, # of connection points: 2
#     Edge 53, Type (0, 0), BuildingBlock: OJICUG_clean_linker_0, # of connection points: 2
#     Edge 54, Type (0, 0), BuildingBlock: OJICUG_clean_linker_0, # of connection points: 2
#     Edge 55, Type (0, 0), BuildingBlock: OJICUG_clean_linker_0, # of connection points: 2
#     Edge 56, Type (0, 0), BuildingBlock: OJICUG_clean_linker_0, # of connection points: 2
#     Edge 57, Type (0, 0), BuildingBlock: OJICUG_clean_linker_0, # of connection points: 2
#     Edge 58, Type (0, 0), BuildingBlock: OJICUG_clean_linker_0, # of connection points: 2
#     Edge 59, Type (0, 0), BuildingBlock: OJICUG_clean_linker_0, # of connection points: 2
#     Edge 60, Type (0, 0), BuildingBlock: OJICUG_clean_linker_0, # of connection points: 2
#     Edge 61, Type (0, 0), BuildingBlock: OJICUG_clean_linker_0, # of connection points: 2
#     Edge 62, Type (0, 0), BuildingBlock: OJICUG_clean_linker_0, # of connection points: 2
#     Edge 63, Type (0, 0), BuildingBlock: OJICUG_clean_linker_0, # of connection points: 2
#     Edge 64, Type (0, 0), BuildingBlock: OJICUG_clean_linker_0, # of connection points: 2
#     Edge 65, Type (0, 0), BuildingBlock: OJICUG_clean_linker_0, # of connection points: 2
#     Edge 66, Type (0, 0), BuildingBlock: OJICUG_clean_linker_0, # of connection points: 2
#     Edge 67, Type (0, 0), BuildingBlock: OJICUG_clean_linker_0, # of connection points: 2
#     Edge 68, Type (0, 0), BuildingBlock: OJICUG_clean_linker_0, # of connection points: 2
#     Edge 69, Type (0, 0), BuildingBlock: OJICUG_clean_linker_0, # of connection points: 2
#     Edge 70, Type (0, 0), BuildingBlock: OJICUG_clean_linker_0, # of connection points: 2
#     Edge 71, Type (0, 0), BuildingBlock: OJICUG_clean_linker_0, # of connection points: 2
#     Edge 72, Type (0, 0), BuildingBlock: OJICUG_clean_linker_0, # of connection points: 2
#     Edge 73, Type (0, 0), BuildingBlock: OJICUG_clean_linker_0, # of connection points: 2
#     Edge 74, Type (0, 0), BuildingBlock: OJICUG_clean_linker_0, # of connection points: 2
#     Edge 75, Type (0, 0), BuildingBlock: OJICUG_clean_linker_0, # of connection points: 2
#     Edge 76, Type (0, 0), BuildingBlock: OJICUG_clean_linker_0, # of connection points: 2
#     Edge 77, Type (0, 0), BuildingBlock: OJICUG_clean_linker_0, # of connection points: 2
#     Edge 78, Type (0, 0), BuildingBlock: OJICUG_clean_linker_0, # of connection points: 2
#     Edge 79, Type (0, 0), BuildingBlock: OJICUG_clean_linker_0, # of connection points: 2
#     Edge 80, Type (0, 0), BuildingBlock: OJICUG_clean_linker_0, # of connection points: 2
#     Edge 81, Type (0, 0), BuildingBlock: OJICUG_clean_linker_0, # of connection points: 2
#     Edge 82, Type (0, 0), BuildingBlock: OJICUG_clean_linker_0, # of connection points: 2
#     Edge 83, Type (0, 0), BuildingBlock: OJICUG_clean_linker_0, # of connection points: 2
#     Edge 84, Type (0, 0), BuildingBlock: OJICUG_clean_linker_0, # of connection points: 2
#     Edge 85, Type (0, 0), BuildingBlock: OJICUG_clean_linker_0, # of connection points: 2
#     Edge 86, Type (0, 0), BuildingBlock: OJICUG_clean_linker_0, # of connection points: 2
#     Edge 87, Type (0, 0), BuildingBlock: OJICUG_clean_linker_0, # of connection points: 2
#     Edge 88, Type (0, 0), BuildingBlock: OJICUG_clean_linker_0, # of connection points: 2
#     Edge 89, Type (0, 0), BuildingBlock: OJICUG_clean_linker_0, # of connection points: 2
#     Edge 90, Type (0, 0), BuildingBlock: OJICUG_clean_linker_0, # of connection points: 2
#     Edge 91, Type (0, 0), BuildingBlock: OJICUG_clean_linker_0, # of connection points: 2
#     Edge 92, Type (0, 0), BuildingBlock: OJICUG_clean_linker_0, # of connection points: 2
#     Edge 93, Type (0, 0), BuildingBlock: OJICUG_clean_linker_0, # of connection points: 2
#     Edge 94, Type (0, 0), BuildingBlock: OJICUG_clean_linker_0, # of connection points: 2
#     Edge 95, Type (0, 0), BuildingBlock: OJICUG_clean_linker_0, # of connection points: 2
# Relax obj value: 0.079
# Max RMSD: 0.280
# Mean RMSD: 0.277
data_MOF--net-vba--node1-GALJAG_clean_sbu_0--edge1-OJICUG_clean_linker_0
_symmetry_space_group_name_H-M    P1
_symmetry_Int_Tables_number       1
_symmetry_cell_setting            triclinic
loop_
_symmetry_equiv_pos_as_xyz
'x, y, z'
_cell_length_a     15.583796
_cell_length_b     69.252701
_cell_length_c     38.852161
_cell_angle_alpha  90.016228
_cell_angle_beta   89.875471
_cell_angle_gamma 89.332072
loop_
_atom_site_label
_atom_site_type_symbol
_atom_site_fract_x
_atom_site_fract_y
_atom_site_fract_z
_atom_type_partial_charge
In0 In 0.23793 0.04292 0.04165 0.0
O1 O 0.31639 0.06581 0.01361 0.0
O2 O 0.37817 0.03913 0.02374 0.0
C3 C 0.24249 0.05161 0.10975 0.0
C4 C 0.24427 0.00489 0.02321 0.0
C5 C 0.09242 0.0626 0.02251 0.0
O6 O 0.21134 0.03619 0.09823 0.0
O7 O 0.27595 0.06227 0.08712 0.0
O8 O 0.09814 0.05349 0.0505 0.0
O9 O 0.15595 0.06003 1.00286 0.0
C10 C 0.38195 0.0553 0.00903 0.0
O11 O 0.26409 0.01093 0.05271 0.0
O12 O 0.21433 0.01784 1.00354 0.0
In13 In 0.88187 0.17352 0.01739 0.0
O14 O 0.93919 0.18626 0.9681 0.0
O15 O 0.80757 0.17817 0.9681 0.0
C16 C 0.01085 0.18165 0.06114 0.0
C17 C 0.75111 0.19663 0.04002 0.0
C18 C 0.90865 0.13472 0.01206 0.0
O19 O 0.00192 0.19032 0.03265 0.0
O20 O 0.95488 0.16908 0.06746 0.0
O21 O 0.85766 0.14188 0.03427 0.0
O22 O 0.94151 0.14698 0.99215 0.0
C23 C 0.86915 0.18544 0.95169 0.0
O24 O 0.73738 0.17993 0.02806 0.0
O25 O 0.82944 0.20052 0.04328 0.0
In26 In 0.28397 0.21 0.23713 0.0
O27 O 0.39168 0.22634 0.2135 0.0
O28 O 0.29627 0.24271 0.2415 0.0
C29 C 0.15468 0.19083 0.26492 0.0
C30 C 0.38942 0.20136 0.28913 0.0
C31 C 0.23002 0.20249 0.17328 0.0
O32 O 0.2228 0.18292 0.25395 0.0
O33 O 0.15018 0.20915 0.26242 0.0
O34 O 0.20143 0.21655 0.19093 0.0
O35 O 0.2893 0.19249 0.18734 0.0
C36 C 0.36662 0.24267 0.22474 0.0
O37 O 0.33464 0.21499 0.29033 0.0
O38 O 0.39211 0.19181 0.26113 0.0
In39 In 0.97728 0.08321 0.28653 0.0
O40 O 0.84572 0.07397 0.26588 0.0
O41 O 0.9414 0.05253 0.27713 0.0
C42 C 0.99117 0.12169 0.2906 0.0
C43 C 0.94517 0.07608 0.35297 0.0
C44 C 0.09648 0.07594 0.23771 0.0
O45 O 0.9341 0.11389 0.27211 0.0
O46 O 0.03928 0.11004 0.30686 0.0
O47 O 0.10276 0.06882 0.2677 0.0
O48 O 0.0321 0.08686 0.23303 0.0
C49 C 0.8654 0.05614 0.26776 0.0
O50 O 0.02019 0.07371 0.34062 0.0
O51 O 0.88986 0.08265 0.33219 0.0
In52 In 0.61553 0.92826 0.98541 0.0
O53 O 0.47431 0.92726 1.00315 0.0
O54 O 0.50451 0.94523 0.96095 0.0
C55 C 0.686 0.89204 0.98343 0.0
C56 C 0.63733 0.94266 0.04908 0.0
C57 C 0.7076 0.94319 0.93335 0.0
O58 O 0.60826 0.89493 0.97485 0.0
O59 O 0.72434 0.90704 0.99284 0.0
O60 O 0.7249 0.94643 0.96462 0.0
O61 O 0.64243 0.93285 0.92837 0.0
C62 C 0.44888 0.94033 0.98274 0.0
O63 O 0.63394 0.95348 0.02295 0.0
O64 O 0.63396 0.92484 0.04278 0.0
In65 In 0.99346 0.79053 0.95799 0.0
O66 O 0.06076 0.78983 0.00923 0.0
O67 O 0.12696 0.80357 0.96789 0.0
C68 C 0.97243 0.78858 0.88937 0.0
C69 C 0.00404 0.75235 0.97168 0.0
C70 C 0.8854 0.82079 0.97151 0.0
O71 O 0.91471 0.78433 0.9109 0.0
O72 O 0.04265 0.79403 0.90247 0.0
O73 O 0.96349 0.8224 0.9636 0.0
O74 O 0.85996 0.80349 0.97358 0.0
C75 C 0.12718 0.79841 0.99921 0.0
O76 O 0.04246 0.76031 0.94692 0.0
O77 O 0.9557 0.76355 0.98913 0.0
In78 In 0.82308 0.80797 0.6862 0.0
O79 O 0.88197 0.7943 0.63764 0.0
O80 O 0.7981 0.81873 0.63223 0.0
C81 C 0.88408 0.79503 0.74639 0.0
C82 C 0.68425 0.78558 0.68783 0.0
C83 C 0.86893 0.84403 0.70147 0.0
O84 O 0.93059 0.79441 0.71945 0.0
O85 O 0.80894 0.8016 0.74217 0.0
O86 O 0.79046 0.83946 0.69889 0.0
O87 O 0.92246 0.83071 0.69455 0.0
C88 C 0.84224 0.80572 0.61748 0.0
O89 O 0.67856 0.80368 0.69309 0.0
O90 O 0.75899 0.77925 0.68136 0.0
In91 In 0.05122 0.95115 0.76953 0.0
O92 O 0.0706 0.95991 0.71401 0.0
O93 O 0.1593 0.93955 0.73769 0.0
C94 C 0.94166 0.95503 0.82121 0.0
C95 C 0.1517 0.97935 0.79012 0.0
C96 C 0.98585 0.9174 0.75293 0.0
O97 O 0.9239 0.96158 0.79131 0.0
O98 O 0.01494 0.94697 0.82463 0.0
O99 O 0.05284 0.91873 0.77163 0.0
O100 O 0.95098 0.93327 0.74354 0.0
C101 C 0.13673 0.94892 0.71097 0.0
O102 O 0.16513 0.96182 0.79891 0.0
O103 O 0.08581 0.98253 0.7715 0.0
In104 In 0.26111 0.54678 0.5491 0.0
O105 O 0.34485 0.5694 0.52248 0.0
O106 O 0.40104 0.54197 0.53076 0.0
C107 C 0.24992 0.54121 0.61804 0.0
C108 C 0.24435 0.5118 0.51903 0.0
C109 C 0.13433 0.57332 0.53874 0.0
O110 O 0.19411 0.5358 0.59672 0.0
O111 O 0.31415 0.54943 0.60462 0.0
O112 O 0.18713 0.57419 0.56317 0.0
O113 O 0.14408 0.55881 0.51932 0.0
C114 C 0.40778 0.55828 0.51674 0.0
O115 O 0.25859 0.51399 0.55069 0.0
O116 O 0.23162 0.52738 0.50283 0.0
In117 In 0.89949 0.68086 0.50588 0.0
O118 O 0.87755 0.70661 0.46929 0.0
O119 O 0.95353 0.68323 0.45105 0.0
C120 C 0.99864 0.6972 0.55561 0.0
C121 C 0.72747 0.68614 0.50578 0.0
C122 C 0.93895 0.64268 0.51337 0.0
O123 O 0.02835 0.69246 0.52648 0.0
O124 O 0.91935 0.69451 0.55884 0.0
O125 O 0.89907 0.65227 0.53602 0.0
O126 O 0.95536 0.65206 0.48644 0.0
C127 C 0.91613 0.69901 0.44407 0.0
O128 O 0.7649 0.67446 0.48562 0.0
O129 O 0.77594 0.69337 0.52817 0.0
In130 In 0.29636 0.70635 0.73525 0.0
O131 O 0.27291 0.71818 0.78978 0.0
O132 O 0.38353 0.70015 0.77973 0.0
C133 C 0.20442 0.70901 0.67728 0.0
C134 C 0.41293 0.73159 0.71484 0.0
C135 C 0.23882 0.67121 0.74849 0.0
O136 O 0.17865 0.71696 0.70518 0.0
O137 O 0.27606 0.70017 0.6791 0.0
O138 O 0.3136 0.67382 0.73606 0.0
O139 O 0.19359 0.68634 0.75328 0.0
C140 C 0.33974 0.70964 0.80164 0.0
O141 O 0.42499 0.71343 0.71198 0.0
O142 O 0.34142 0.73684 0.7278 0.0
In143 In 0.07099 0.56197 0.8151 0.0
O144 O 0.11322 0.55251 0.86973 0.0
O145 O 0.0254 0.57619 0.86394 0.0
C146 C 0.148 0.54685 0.75922 0.0
C147 C 0.93323 0.5394 0.81202 0.0
C148 C 0.11899 0.59738 0.79655 0.0
O149 O 0.18782 0.5477 0.78777 0.0
O150 O 0.0712 0.55285 0.75992 0.0
O151 O 0.04097 0.59229 0.79543 0.0
O152 O 0.17098 0.58487 0.80834 0.0
C153 C 0.06503 0.56504 0.88431 0.0
O154 O 0.92959 0.55714 0.80363 0.0
O155 O 0.0061 0.53333 0.82189 0.0
In156 In 0.62796 0.44259 0.49636 0.0
O157 O 0.48336 0.43769 0.48944 0.0
O158 O 0.53525 0.4652 0.47699 0.0
C159 C 0.7111 0.40788 0.49704 0.0
C160 C 0.60847 0.45341 0.56304 0.0
C161 C 0.71185 0.4594 0.44373 0.0
O162 O 0.635 0.40959 0.48599 0.0
O163 O 0.74271 0.42333 0.50814 0.0
O164 O 0.72734 0.46355 0.47488 0.0
O165 O 0.65471 0.44682 0.43938 0.0
C166 C 0.46931 0.45491 0.4797 0.0
O167 O 0.66912 0.45972 0.54463 0.0
O168 O 0.56094 0.44143 0.54824 0.0
In169 In 0.02644 0.30812 0.48038 0.0
O170 O 0.03909 0.30831 0.53741 0.0
O171 O 0.14081 0.32108 0.50706 0.0
C172 C 0.97747 0.30297 0.41624 0.0
C173 C 0.10993 0.27467 0.47948 0.0
C174 C 0.92166 0.33849 0.48749 0.0
O175 O 0.9366 0.29592 0.44165 0.0
O176 O 0.04399 0.31273 0.42351 0.0
O177 O 0.99795 0.33981 0.47601 0.0
O178 O 0.89767 0.32152 0.49567 0.0
C179 C 0.11158 0.31662 0.53666 0.0
O180 O 0.13852 0.29002 0.46588 0.0
O181 O 0.03597 0.27606 0.49367 0.0
In182 In 0.75284 0.32613 0.22968 0.0
O183 O 0.80761 0.31918 0.17647 0.0
O184 O 0.7105 0.34116 0.18173 0.0
C185 C 0.82906 0.3089 0.28279 0.0
C186 C 0.61747 0.3029 0.22554 0.0
C187 C 0.80679 0.36093 0.24837 0.0
O188 O 0.86592 0.30985 0.25364 0.0
O189 O 0.75387 0.31593 0.28421 0.0
O190 O 0.72746 0.3568 0.24924 0.0
O191 O 0.85648 0.34764 0.23783 0.0
C192 C 0.75827 0.33137 0.16178 0.0
O193 O 0.61084 0.31946 0.23958 0.0
O194 O 0.69157 0.29841 0.21457 0.0
In195 In 0.01609 0.47109 0.2722 0.0
O196 O 0.14569 0.47721 0.29508 0.0
O197 O 0.07119 0.50097 0.27466 0.0
C198 C 0.94978 0.43605 0.27055 0.0
C199 C 0.06069 0.46886 0.20581 0.0
C200 C 0.91773 0.47849 0.32681 0.0
O201 O 0.02551 0.43888 0.28168 0.0
O202 O 0.90919 0.45092 0.26017 0.0
O203 O 0.89428 0.48367 0.29669 0.0
O204 O 0.99142 0.47065 0.32887 0.0
C205 C 0.14011 0.49525 0.28903 0.0
O206 O 0.99958 0.48004 0.21557 0.0
O207 O 0.09793 0.45948 0.22959 0.0
In208 In 0.77419 0.04453 0.55015 0.0
O209 O 0.76505 0.04446 0.49287 0.0
O210 O 0.87546 0.0579 0.51642 0.0
C211 C 0.73526 0.03893 0.61572 0.0
C212 C 0.86093 0.0118 0.54538 0.0
C213 C 0.68335 0.07691 0.54629 0.0
O214 O 0.68799 0.03281 0.59137 0.0
O215 O 0.80265 0.04788 0.60662 0.0
O216 O 0.76024 0.07627 0.55739 0.0
O217 O 0.65049 0.06072 0.53817 0.0
C218 C 0.83529 0.0535 0.48895 0.0
O219 O 0.89205 0.02719 0.55796 0.0
O220 O 0.7827 0.01277 0.53564 0.0
In221 In 0.4844 0.18673 0.49402 0.0
O222 O 0.54712 0.19692 0.44413 0.0
O223 O 0.45392 0.17459 0.44128 0.0
C224 C 0.55988 0.20192 0.54974 0.0
C225 C 0.3512 0.21134 0.48986 0.0
C226 C 0.53238 0.15072 0.51075 0.0
O227 O 0.59709 0.20132 0.52065 0.0
O228 O 0.48429 0.19547 0.55013 0.0
O229 O 0.45337 0.15556 0.51035 0.0
O230 O 0.58386 0.16373 0.50168 0.0
C231 C 0.50324 0.18585 0.42522 0.0
O232 O 0.34046 0.19428 0.50114 0.0
O233 O 0.42748 0.21549 0.48206 0.0
In234 In 0.80248 0.20321 0.74088 0.0
O235 O 0.93746 0.21189 0.72698 0.0
O236 O 0.84669 0.23386 0.74326 0.0
C237 C 0.738 0.1681 0.74769 0.0
C238 C 0.82505 0.20349 0.80837 0.0
C239 C 0.72986 0.2095 0.67996 0.0
O240 O 0.81583 0.17054 0.73852 0.0
O241 O 0.6936 0.18339 0.75203 0.0
O242 O 0.69611 0.21597 0.70766 0.0
O243 O 0.8002 0.20027 0.68344 0.0
C244 C 0.92286 0.22963 0.7339 0.0
O245 O 0.75969 0.21176 0.79478 0.0
O246 O 0.8779 0.19559 0.78768 0.0
In247 In 0.54519 0.06036 0.81087 0.0
O248 O 0.40355 0.05453 0.80083 0.0
O249 O 0.48386 0.03178 0.82082 0.0
C250 C 0.60071 0.09509 0.79189 0.0
C251 C 0.54482 0.06393 0.87962 0.0
C252 C 0.61432 0.04451 0.7545 0.0
O253 O 0.52133 0.091 0.79138 0.0
O254 O 0.65008 0.08194 0.80329 0.0
O255 O 0.65551 0.04463 0.78279 0.0
O256 O 0.5395 0.05172 0.75562 0.0
C257 C 0.40996 0.03707 0.81081 0.0
O258 O 0.59345 0.05166 0.86458 0.0
O259 O 0.50127 0.07468 0.85976 0.0
In260 In 0.24599 0.92945 0.50744 0.0
O261 O 0.09916 0.93471 0.50527 0.0
O262 O 0.18495 0.95794 0.51612 0.0
C263 C 0.30193 0.893 0.49918 0.0
C264 C 0.26233 0.93295 0.57562 0.0
C265 C 0.31327 0.94402 0.44951 0.0
O266 O 0.22318 0.89741 0.49486 0.0
O267 O 0.34956 0.90687 0.50766 0.0
O268 O 0.35297 0.94443 0.47797 0.0
O269 O 0.24013 0.93628 0.4505 0.0
C270 C 0.10842 0.95235 0.51365 0.0
O271 O 0.30334 0.94368 0.55502 0.0
O272 O 0.21885 0.91979 0.56171 0.0
In273 In 0.54389 0.78635 0.45106 0.0
O274 O 0.57869 0.75548 0.43846 0.0
O275 O 0.48968 0.7603 0.47963 0.0
C276 C 0.45821 0.8185 0.47105 0.0
C277 C 0.683 0.79007 0.4915 0.0
C278 C 0.50514 0.78742 0.38362 0.0
O279 O 0.53357 0.81841 0.45918 0.0
O280 O 0.42411 0.80202 0.47334 0.0
O281 O 0.4511 0.78432 0.40721 0.0
O282 O 0.58146 0.78996 0.39393 0.0
C283 C 0.53358 0.74824 0.46216 0.0
O284 O 0.6145 0.78217 0.50102 0.0
O285 O 0.68303 0.7963 0.46076 0.0
In286 In 0.30263 0.81631 0.19022 0.0
O287 O 0.35231 0.80349 0.13941 0.0
O288 O 0.26539 0.82754 0.1377 0.0
C289 C 0.37849 0.80205 0.24687 0.0
C290 C 0.16472 0.79369 0.19404 0.0
C291 C 0.34692 0.85267 0.20416 0.0
O292 O 0.41797 0.80212 0.21819 0.0
O293 O 0.30292 0.8088 0.24614 0.0
O294 O 0.26914 0.84742 0.20522 0.0
O295 O 0.40032 0.83977 0.19491 0.0
C296 C 0.30721 0.81488 0.12108 0.0
O297 O 0.15974 0.81157 0.20128 0.0
O298 O 0.23828 0.78768 0.18503 0.0
In299 In 0.52684 0.96289 0.25534 0.0
O300 O 0.50574 0.97072 0.1995 0.0
O301 O 0.61719 0.95357 0.2143 0.0
C302 C 0.4617 0.9634 0.31828 0.0
C303 C 0.62614 0.99319 0.26262 0.0
C304 C 0.46436 0.92818 0.24436 0.0
O305 O 0.42028 0.97046 0.29279 0.0
O306 O 0.53651 0.95679 0.31172 0.0
O307 O 0.54028 0.93066 0.25568 0.0
O308 O 0.41933 0.94343 0.23951 0.0
C309 C 0.57388 0.96156 0.19034 0.0
O310 O 0.65175 0.97606 0.26947 0.0
O311 O 0.54791 0.99505 0.25348 0.0
In312 In 0.75411 0.54719 0.04901 0.0
O313 O 0.76239 0.51466 0.05655 0.0
O314 O 0.73018 0.52436 0.00652 0.0
C315 C 0.62593 0.57371 0.03913 0.0
C316 C 0.89667 0.55908 0.01412 0.0
C317 C 0.74125 0.54428 0.11834 0.0
O318 O 0.68426 0.57536 0.06132 0.0
O319 O 0.63074 0.55836 0.02138 0.0
O320 O 0.686 0.53806 0.09747 0.0
O321 O 0.80584 0.55206 0.10425 0.0
C322 C 0.74847 0.51015 0.02571 0.0
O323 O 0.82716 0.56847 0.01513 0.0
O324 O 0.89782 0.54451 0.03356 0.0
In325 In 0.38387 0.68126 0.00921 0.0
O326 O 0.36348 0.70584 0.97012 0.0
O327 O 0.44584 0.68277 0.95549 0.0
C328 C 0.48473 0.69816 0.05785 0.0
C329 C 0.21314 0.68975 0.01087 0.0
C330 C 0.42077 0.64263 0.01726 0.0
O331 O 0.51299 0.69377 0.02829 0.0
O332 O 0.40647 0.69463 0.0621 0.0
O333 O 0.4257 0.65121 0.98881 0.0
O334 O 0.39166 0.65311 0.04121 0.0
C335 C 0.40692 0.69803 0.94644 0.0
O336 O 0.2657 0.69595 0.03269 0.0
O337 O 0.24496 0.67744 0.99034 0.0
In338 In 0.78367 0.71211 0.23592 0.0
O339 O 0.76593 0.72277 0.29144 0.0
O340 O 0.87571 0.70501 0.27827 0.0
C341 C 0.69242 0.71364 0.17771 0.0
C342 C 0.89558 0.73857 0.21676 0.0
C343 C 0.72601 0.67724 0.25002 0.0
O344 O 0.66551 0.72175 0.20531 0.0
O345 O 0.76529 0.70533 0.17984 0.0
O346 O 0.79985 0.67971 0.23659 0.0
O347 O 0.68134 0.69243 0.25534 0.0
C348 C 0.8341 0.71401 0.30154 0.0
O349 O 0.90973 0.72056 0.21251 0.0
O350 O 0.82365 0.74312 0.23025 0.0
In351 In 0.56614 0.56746 0.31646 0.0
O352 O 0.61184 0.55591 0.36932 0.0
O353 O 0.52814 0.58048 0.36755 0.0
C354 C 0.64139 0.55254 0.25981 0.0
C355 C 0.42459 0.54612 0.3127 0.0
C356 C 0.61154 0.60323 0.29904 0.0
O357 O 0.68245 0.5535 0.28803 0.0
O358 O 0.56445 0.55834 0.26118 0.0
O359 O 0.53362 0.59808 0.29897 0.0
O360 O 0.66483 0.59058 0.30932 0.0
C361 C 0.56751 0.56829 0.38602 0.0
O362 O 0.42361 0.56397 0.30516 0.0
O363 O 0.49653 0.53937 0.3222 0.0
In364 In 0.1243 0.43623 0.99867 0.0
O365 O 0.12944 0.46122 0.03808 0.0
O366 O 0.14187 0.43254 0.05653 0.0
C367 C 0.21181 0.45327 0.94712 0.0
C368 C 0.95654 0.44641 0.99038 0.0
C369 C 0.19767 0.40027 0.99372 0.0
O370 O 0.2314 0.4557 0.97847 0.0
O371 O 0.14807 0.44251 0.94209 0.0
O372 O 0.1171 0.40267 0.99114 0.0
O373 O 0.23819 0.41563 0.99883 0.0
C374 C 0.13569 0.45021 0.06386 0.0
O375 O 0.98061 0.43415 0.01255 0.0
O376 O 0.01516 0.45149 0.9701 0.0
In377 In 0.51573 0.29952 0.98778 0.0
O378 O 0.6096 0.27596 1.00121 0.0
O379 O 0.47875 0.27063 0.0145 0.0
C380 C 0.39936 0.329 0.98643 0.0
C381 C 0.61792 0.31736 0.03195 0.0
C382 C 0.51198 0.29036 0.9208 0.0
O383 O 0.47306 0.32954 0.97282 0.0
O384 O 0.3815 0.31295 1.00062 0.0
O385 O 0.45769 0.28433 0.9424 0.0
O386 O 0.57 0.30099 0.93316 0.0
C387 C 0.55632 0.26465 0.01468 0.0
O388 O 0.54111 0.31308 0.03889 0.0
O389 O 0.64425 0.31284 1.00205 0.0
In390 In 0.31488 0.31268 0.73332 0.0
O391 O 0.34216 0.30976 0.67559 0.0
O392 O 0.23589 0.3272 0.69344 0.0
C393 C 0.40197 0.29604 0.78382 0.0
C394 C 0.19114 0.28655 0.73506 0.0
C395 C 0.36813 0.34779 0.75035 0.0
O396 O 0.4345 0.29701 0.75375 0.0
O397 O 0.32729 0.30313 0.78744 0.0
O398 O 0.29243 0.34222 0.75712 0.0
O399 O 0.41561 0.33567 0.73468 0.0
C400 C 0.27661 0.32013 0.6681 0.0
O401 O 0.18115 0.30325 0.7483 0.0
O402 O 0.26414 0.28313 0.72167 0.0
In403 In 0.52774 0.46253 0.77599 0.0
O404 O 0.4827 0.47241 0.7224 0.0
O405 O 0.60486 0.45819 0.72751 0.0
C406 C 0.42702 0.46926 0.83082 0.0
C407 C 0.65162 0.48701 0.79287 0.0
C408 C 0.48453 0.42533 0.77343 0.0
O409 O 0.40384 0.47423 0.80067 0.0
O410 O 0.50133 0.46181 0.83292 0.0
O411 O 0.56 0.4303 0.78174 0.0
O412 O 0.43336 0.43903 0.76643 0.0
C413 C 0.55029 0.46596 0.70772 0.0
O414 O 0.66009 0.46887 0.79696 0.0
O415 O 0.57999 0.49263 0.78083 0.0
C416 C 0.21005 0.0448 0.17179 0.0
C417 C 0.22495 0.05822 0.14534 0.0
H418 H 0.16036 0.0401 0.22271 0.0
C419 C 0.20899 0.0779 0.15177 0.0
H420 H 0.22137 0.02953 0.16742 0.0
C421 C 0.17179 0.08384 0.1829 0.0
C422 C 0.15265 0.0703 0.20863 0.0
H423 H 0.21894 0.08855 0.13176 0.0
H424 H 0.15436 0.09891 0.18627 0.0
C425 C 0.17545 0.05084 0.20342 0.0
C426 C 0.16754 0.17739 0.13509 0.0
C427 C 0.18761 0.19682 0.14096 0.0
H428 H 0.09372 0.15741 0.10541 0.0
C429 C 0.15553 0.211 0.11839 0.0
H430 H 0.19041 0.16623 0.15245 0.0
C431 C 0.10227 0.2059 0.09094 0.0
C432 C 0.07762 0.18663 0.08646 0.0
H433 H 0.1696 0.2261 0.12262 0.0
H434 H 0.07636 0.21716 0.07448 0.0
C435 C 0.11179 0.17238 0.1084 0.0
C436 C 0.90883 0.95519 0.884 0.0
C437 C 0.87937 0.95516 0.84986 0.0
H438 H 0.87678 0.95197 0.93729 0.0
C439 C 0.79127 0.95311 0.84354 0.0
H440 H 0.97651 0.95677 0.88952 0.0
C441 C 0.7344 0.94987 0.87086 0.0
C442 C 0.76451 0.94918 0.90493 0.0
H443 H 0.76713 0.9529 0.81742 0.0
H444 H 0.66736 0.94739 0.86527 0.0
C445 C 0.85175 0.9525 0.91131 0.0
C446 C 0.99776 0.79404 0.79231 0.0
C447 C 0.914 0.79003 0.7813 0.0
H448 H 0.08239 0.79698 0.83566 0.0
C449 C 0.85327 0.78388 0.80552 0.0
H450 H 0.04542 0.79902 0.77413 0.0
C451 C 0.87406 0.78269 0.84028 0.0
C452 C 0.95596 0.78784 0.85186 0.0
H453 H 0.78824 0.78067 0.79771 0.0
H454 H 0.82452 0.77843 0.85825 0.0
C455 C 0.01855 0.79305 0.82748 0.0
C456 C 0.2896 0.54806 0.68007 0.0
C457 C 0.23519 0.53943 0.65573 0.0
H458 H 0.30551 0.55677 0.73292 0.0
C459 C 0.16019 0.53044 0.66746 0.0
H460 H 0.34792 0.55506 0.67185 0.0
C461 C 0.13622 0.53146 0.70202 0.0
C462 C 0.18714 0.54122 0.72596 0.0
H463 H 0.11714 0.52348 0.64959 0.0
H464 H 0.07506 0.52552 0.70972 0.0
C465 C 0.26583 0.54888 0.71504 0.0
C466 C 0.01491 0.70985 0.61586 0.0
C467 C 0.05289 0.70308 0.58514 0.0
H468 H 0.03304 0.71737 0.66899 0.0
C469 C 0.14212 0.70008 0.58427 0.0
H470 H 0.94623 0.71232 0.61735 0.0
C471 C 0.19151 0.70273 0.61395 0.0
C472 C 0.15307 0.7087 0.64508 0.0
H473 H 0.17333 0.69482 0.5611 0.0
H474 H 0.2597 0.69957 0.61273 0.0
C475 C 0.06457 0.71277 0.64546 0.0
C476 C 0.77318 0.47317 0.35266 0.0
C477 C 0.85951 0.4782 0.35684 0.0
H478 H 0.65891 0.46289 0.37713 0.0
C479 C 0.89368 0.47918 0.39025 0.0
H480 H 0.74569 0.47202 0.32717 0.0
C481 C 0.84378 0.47427 0.41886 0.0
C482 C 0.75961 0.46774 0.41444 0.0
H483 H 0.96034 0.48288 0.3941 0.0
H484 H 0.87283 0.47442 0.44417 0.0
C485 C 0.72395 0.46774 0.3812 0.0
C486 C 0.82491 0.29624 0.34235 0.0
C487 C 0.87334 0.30306 0.31452 0.0
H488 H 0.82066 0.29055 0.39634 0.0
C489 C 0.95998 0.3076 0.31948 0.0
H490 H 0.75785 0.2927 0.3391 0.0
C491 C 0.99559 0.30682 0.3525 0.0
C492 C 0.94531 0.30115 0.38074 0.0
H493 H 0.99823 0.3131 0.29841 0.0
H494 H 0.06118 0.3114 0.35612 0.0
C495 C 0.86082 0.2951 0.37511 0.0
C496 C 0.76624 0.04231 0.67892 0.0
C497 C 0.7099 0.03708 0.6523 0.0
H498 H 0.78058 0.04821 0.73292 0.0
C499 C 0.62625 0.03145 0.66079 0.0
H500 H 0.83134 0.04659 0.67314 0.0
C501 C 0.59738 0.03251 0.69477 0.0
C502 C 0.65193 0.03887 0.72108 0.0
H503 H 0.58144 0.02725 0.64095 0.0
H504 H 0.5309 0.02923 0.70025 0.0
C505 C 0.73761 0.04305 0.71315 0.0
C506 C 0.69405 0.20635 0.58389 0.0
C507 C 0.60418 0.20733 0.5819 0.0
H508 H 0.80429 0.20617 0.61674 0.0
C509 C 0.55667 0.21128 0.61197 0.0
H510 H 0.73229 0.20325 0.56119 0.0
C511 C 0.59798 0.21327 0.64372 0.0
C512 C 0.68737 0.21093 0.64604 0.0
H513 H 0.48725 0.21215 0.61115 0.0
H514 H 0.55954 0.21554 0.66666 0.0
C515 C 0.73518 0.20794 0.61572 0.0
C516 C 0.29786 0.95503 0.38846 0.0
C517 C 0.35072 0.95117 0.41699 0.0
H518 H 0.29159 0.96247 0.33494 0.0
C519 C 0.43987 0.95314 0.41351 0.0
H520 H 0.22883 0.95372 0.39049 0.0
C521 C 0.47578 0.95785 0.38161 0.0
C522 C 0.4231 0.9611 0.3528 0.0
H523 H 0.48211 0.95025 0.43505 0.0
H524 H 0.54498 0.9585 0.3793 0.0
C525 C 0.33368 0.96015 0.35674 0.0
C526 C 0.39083 0.78629 0.33923 0.0
C527 C 0.47781 0.78889 0.34718 0.0
H528 H 0.29233 0.78819 0.30132 0.0
C529 C 0.53489 0.79387 0.32055 0.0
H530 H 0.3451 0.78228 0.35894 0.0
C531 C 0.50423 0.79707 0.28695 0.0
C532 C 0.41615 0.79552 0.27981 0.0
H533 H 0.60236 0.79589 0.3259 0.0
H534 H 0.54841 0.80169 0.26712 0.0
C535 C 0.36044 0.78965 0.3061 0.0
C536 C 0.78137 0.55235 0.17992 0.0
C537 C 0.7259 0.5436 0.15612 0.0
H538 H 0.79902 0.56166 0.23238 0.0
C539 C 0.64986 0.53529 0.16839 0.0
H540 H 0.8405 0.55884 0.17128 0.0
C541 C 0.6264 0.53695 0.20292 0.0
C542 C 0.67883 0.54669 0.22634 0.0
H543 H 0.60588 0.52828 0.15096 0.0
H544 H 0.5648 0.53141 0.21101 0.0
C545 C 0.75811 0.5538 0.21491 0.0
C546 C 0.55164 0.7159 0.14624 0.0
C547 C 0.64058 0.71241 0.14569 0.0
H548 H 0.43267 0.71411 0.11884 0.0
C549 C 0.67887 0.70604 0.11476 0.0
H550 H 0.52016 0.72078 0.16961 0.0
C551 C 0.62896 0.70246 0.0855 0.0
C552 C 0.53943 0.70488 0.08667 0.0
H553 H 0.74736 0.70328 0.11342 0.0
H554 H 0.66006 0.69692 0.06251 0.0
C555 C 0.50156 0.71204 0.11714 0.0
C556 C 0.28029 0.46648 0.85656 0.0
C557 C 0.36867 0.46928 0.86091 0.0
H558 H 0.16124 0.45894 0.88062 0.0
C559 C 0.40282 0.46905 0.8944 0.0
H560 H 0.25241 0.46639 0.83104 0.0
C561 C 0.3505 0.46512 0.92282 0.0
C562 C 0.26345 0.46085 0.91819 0.0
H563 H 0.47085 0.47113 0.89847 0.0
H564 H 0.37934 0.46427 0.94813 0.0
C565 C 0.22832 0.46207 0.88491 0.0
C566 C 0.40407 0.27754 0.83781 0.0
C567 C 0.44823 0.28916 0.81434 0.0
H568 H 0.39133 0.26841 0.88998 0.0
C569 C 0.52393 0.29825 0.82468 0.0
H570 H 0.34509 0.27055 0.83033 0.0
C571 C 0.54972 0.2974 0.8592 0.0
C572 C 0.50014 0.28735 0.88347 0.0
H573 H 0.558 0.30756 0.80704 0.0
H574 H 0.60424 0.30581 0.86731 0.0
C575 C 0.43021 0.27649 0.87201 0.0
C576 C 0.29499 0.98272 0.97608 0.0
C577 C 0.27321 0.98554 0.01089 0.0
H578 H 0.36782 0.96592 0.93962 0.0
C579 C 0.29511 0.97101 0.0347 0.0
H580 H 0.27964 0.99369 0.95712 0.0
C581 C 0.3441 0.95487 0.02452 0.0
C582 C 0.37391 0.95312 0.99044 0.0
H583 H 0.27939 0.97276 0.0617 0.0
H584 H 0.36532 0.94475 0.04408 0.0
C585 C 0.3456 0.96678 0.96603 0.0
C586 C 0.65923 0.24664 0.05122 0.0
C587 C 0.58701 0.2462 0.02973 0.0
H588 H 0.76571 0.23107 0.07248 0.0
C589 C 0.55911 0.22829 0.01723 0.0
H590 H 0.68232 0.26028 0.06104 0.0
C591 C 0.60786 0.21138 0.0235 0.0
C592 C 0.68485 0.21224 0.04241 0.0
H593 H 0.50441 0.22763 1.00013 0.0
H594 H 0.58936 0.19807 0.01108 0.0
C595 C 0.7071 0.22987 0.05772 0.0
C596 C 0.40914 0.27634 0.24192 0.0
C597 C 0.4219 0.25979 0.22142 0.0
H598 H 0.46154 0.30323 0.2594 0.0
C599 C 0.49454 0.25867 0.20008 0.0
H600 H 0.35374 0.27755 0.25869 0.0
C601 C 0.55575 0.27314 0.20066 0.0
C602 C 0.54594 0.28916 0.22252 0.0
H603 H 0.50596 0.24621 0.18375 0.0
H604 H 0.61227 0.27144 0.18459 0.0
C605 C 0.47081 0.29098 0.24242 0.0
C606 C 0.65722 0.0287 0.25771 0.0
C607 C 0.68588 0.0096 0.26322 0.0
H608 H 0.69183 0.05862 0.25458 0.0
C609 C 0.77374 0.00604 0.26825 0.0
H610 H 0.5898 0.03184 0.25351 0.0
C611 C 0.83165 0.02119 0.26831 0.0
C612 C 0.80331 0.04034 0.2636 0.0
H613 H 0.79811 0.9915 0.27218 0.0
H614 H 0.89882 0.01785 0.27274 0.0
C615 C 0.71554 0.04399 0.25804 0.0
C616 C 0.10964 0.70337 0.96829 0.0
C617 C 0.13424 0.70103 1.00284 0.0
H618 H 0.04842 0.72181 0.9312 0.0
C619 C 0.0979 0.71341 0.02779 0.0
H620 H 0.13717 0.69423 0.94839 0.0
C621 C 0.0453 0.72902 0.01794 0.0
C622 C 0.02999 0.73273 0.98293 0.0
H623 H 0.11615 0.71203 0.05457 0.0
H624 H 0.02454 0.73929 0.03737 0.0
C625 C 0.05902 0.71923 0.95838 0.0
C626 C 0.53139 0.77877 0.704 0.0
C627 C 0.61132 0.77226 0.6916 0.0
H628 H 0.40558 0.77096 0.72106 0.0
C629 C 0.62344 0.75245 0.6849 0.0
H630 H 0.52021 0.79394 0.7094 0.0
C631 C 0.55819 0.73933 0.6916 0.0
C632 C 0.4793 0.7457 0.70516 0.0
H633 H 0.68424 0.74698 0.6752 0.0
H634 H 0.57034 0.72412 0.68686 0.0
C635 C 0.46592 0.7656 0.71073 0.0
C636 C 0.19981 0.01375 0.78643 0.0
C637 C 0.21262 0.99483 0.79875 0.0
H638 H 0.25216 0.04211 0.78077 0.0
C639 C 0.28736 0.99048 0.81743 0.0
H640 H 0.14267 0.01754 0.772 0.0
C641 C 0.3498 0.00449 0.82236 0.0
C642 C 0.33885 0.02318 0.80879 0.0
H643 H 0.29895 0.97608 0.82739 0.0
H644 H 0.40782 1.0005 0.83606 0.0
C645 C 0.26238 0.02782 0.79146 0.0
C646 C 0.36766 0.4801 0.45923 0.0
C647 C 0.38422 0.4643 0.48095 0.0
H648 H 0.30521 0.50757 0.45383 0.0
C649 C 0.3332 0.46179 0.51038 0.0
H650 H 0.40658 0.48234 0.43646 0.0
C651 C 0.27667 0.47651 0.52088 0.0
C652 C 0.26939 0.49363 0.50161 0.0
H653 H 0.3454 0.44982 0.52772 0.0
H654 H 0.24623 0.4754 0.54589 0.0
C655 C 0.30951 0.49457 0.46925 0.0
C656 C 0.55691 0.72425 0.50887 0.0
C657 C 0.54994 0.72823 0.47354 0.0
H658 H 0.61972 0.70703 0.54733 0.0
C659 C 0.58097 0.71457 0.44973 0.0
H660 H 0.53381 0.7346 0.52776 0.0
C661 C 0.62821 0.69851 0.46096 0.0
C662 C 0.6472 0.69626 0.4961 0.0
H663 H 0.57622 0.71731 0.42234 0.0
H664 H 0.65913 0.68941 0.44181 0.0
C665 C 0.60611 0.70845 0.5201 0.0
C666 C 0.86868 0.50666 0.81745 0.0
C667 C 0.85925 0.52633 0.8091 0.0
H668 H 0.8104 0.47882 0.81898 0.0
C669 C 0.77972 0.53313 0.79691 0.0
H670 H 0.92916 0.50099 0.827 0.0
C671 C 0.71158 0.5204 0.79241 0.0
C672 C 0.72175 0.50064 0.79994 0.0
H673 H 0.7705 0.54821 0.79034 0.0
H674 H 0.65142 0.526 0.78241 0.0
C675 C 0.80066 0.49395 0.81288 0.0
C676 C 0.23881 0.25651 0.45985 0.0
C677 C 0.1636 0.25689 0.47977 0.0
H678 H 0.35541 0.24182 0.44733 0.0
C679 C 0.14563 0.24102 0.50118 0.0
H680 H 0.25429 0.26833 0.44275 0.0
C681 C 0.20454 0.22551 0.50374 0.0
C682 C 0.28195 0.22585 0.48509 0.0
H683 H 0.088 0.24094 0.5168 0.0
H684 H 0.19134 0.21375 0.52126 0.0
C685 C 0.29707 0.24127 0.46252 0.0
C686 C 0.2036 0.52833 0.28877 0.0
C687 C 0.21048 0.50861 0.29711 0.0
H688 H 0.26599 0.55576 0.28732 0.0
C689 C 0.28645 0.50163 0.31222 0.0
H690 H 0.14567 0.53414 0.27718 0.0
C691 C 0.35505 0.51398 0.31802 0.0
C692 C 0.34916 0.53359 0.30885 0.0
H693 H 0.29356 0.48653 0.31906 0.0
H694 H 0.41333 0.50807 0.32917 0.0
C695 C 0.27236 0.54072 0.29461 0.0
C696 C 0.95505 0.9648 0.51009 0.0
C697 C 0.03818 0.96561 0.5239 0.0
H698 H 0.83195 0.97913 0.50601 0.0
C699 C 0.05773 0.98027 0.54746 0.0
H700 H 0.93842 0.95354 0.49203 0.0
C701 C 0.99782 0.99449 0.55567 0.0
C702 C 0.91653 0.99461 0.54034 0.0
H703 H 0.12069 0.98108 0.55911 0.0
H704 H 0.01667 0.00583 0.57323 0.0
C705 C 0.8944 0.97936 0.51816 0.0
C706 C 0.07386 0.23956 0.72147 0.0
C707 C 0.99092 0.24432 0.73309 0.0
H708 H 0.20218 0.2492 0.71298 0.0
C709 C 0.97419 0.26312 0.74527 0.0
H710 H 0.08874 0.22518 0.71202 0.0
C711 C 0.03929 0.27683 0.74612 0.0
C712 C 0.12228 0.27205 0.7346 0.0
H713 H 0.91095 0.26721 0.75455 0.0
H714 H 0.02452 0.29118 0.75574 0.0
C715 C 0.13882 0.25331 0.72211 0.0
C716 C 0.0132 0.78617 0.21149 0.0
C717 C 0.0922 0.78023 0.19735 0.0
H718 H 0.88839 0.77759 0.22865 0.0
C719 C 0.10366 0.7608 0.18772 0.0
H720 H 0.00254 0.80106 0.2191 0.0
C721 C 0.03881 0.74743 0.19317 0.0
C722 C 0.96084 0.75317 0.20835 0.0
H723 H 0.16363 0.75577 0.17654 0.0
H724 H 0.05056 0.73249 0.1861 0.0
C725 C 0.94798 0.77274 0.21694 0.0
C726 C 0.83687 0.45939 0.02692 0.0
C727 C 0.878 0.45855 0.99471 0.0
H728 H 0.76205 0.47657 0.06197 0.0
C729 C 0.85759 0.47278 0.97006 0.0
H730 H 0.85117 0.44872 0.04654 0.0
C731 C 0.80563 0.48872 0.97884 0.0
C732 C 0.77403 0.49079 0.01255 0.0
H733 H 0.88811 0.47254 0.94498 0.0
H734 H 0.79782 0.5003 0.96033 0.0
C735 C 0.7859 0.47543 0.03582 0.0
C736 C 0.49997 0.04486 0.9688 0.0
C737 C 0.44568 0.05956 0.98174 0.0
H738 H 0.57568 0.03478 0.92601 0.0
C739 C 0.44024 0.07714 0.96381 0.0
H740 H 0.50553 0.03113 0.98202 0.0
C741 C 0.48013 0.07918 0.9318 0.0
C742 C 0.52662 0.06373 0.91707 0.0
H743 H 0.3995 0.0888 0.97316 0.0
H744 H 0.46917 0.09239 0.91744 0.0
C745 C 0.54027 0.04694 0.93669 0.0
C746 C 0.93055 0.19343 0.894 0.0
C747 C 0.85915 0.19209 0.91584 0.0
H748 H 0.97527 0.19808 0.84253 0.0
C749 C 0.77698 0.19636 0.90275 0.0
H750 H 0.99452 0.19025 0.90345 0.0
C751 C 0.76608 0.20126 0.8681 0.0
C752 C 0.83701 0.20156 0.84585 0.0
H753 H 0.72087 0.19559 0.91919 0.0
H754 H 0.70188 0.2039 0.85841 0.0
C755 C 0.91945 0.19791 0.8592 0.0
C756 C 0.46477 0.17351 0.3667 0.0
C757 C 0.4958 0.18848 0.38757 0.0
H758 H 0.40933 0.1658 0.31806 0.0
C759 C 0.50469 0.207 0.37336 0.0
H760 H 0.45686 0.15913 0.37713 0.0
C761 C 0.47532 0.21088 0.34006 0.0
C762 C 0.43942 0.19619 0.32 0.0
H763 H 0.52747 0.21885 0.38894 0.0
H764 H 0.47647 0.2256 0.33064 0.0
C765 C 0.43791 0.17728 0.33293 0.0
C766 C 0.80688 0.06041 0.4273 0.0
C767 C 0.86578 0.05916 0.45444 0.0
H768 H 0.78605 0.06699 0.37432 0.0
C769 C 0.95244 0.06349 0.44817 0.0
H770 H 0.73969 0.05725 0.43137 0.0
C771 C 0.97961 0.06879 0.41504 0.0
C772 C 0.91995 0.07031 0.38811 0.0
H773 H 0.99915 0.06257 0.46872 0.0
H774 H 0.04665 0.07194 0.41062 0.0
C775 C 0.83345 0.06611 0.39464 0.0
C776 C 0.58055 0.9658 0.09307 0.0
C777 C 0.63321 0.94988 0.0846 0.0
H778 H 0.5187 0.98187 0.13364 0.0
C779 C 0.6715 0.93903 0.11096 0.0
H780 H 0.54926 0.97417 0.07305 0.0
C781 C 0.65522 0.94357 0.14531 0.0
C782 C 0.59844 0.95873 0.15398 0.0
H783 H 0.71185 0.92663 0.10498 0.0
H784 H 0.68394 0.93455 0.16505 0.0
C785 C 0.56245 0.97007 0.12761 0.0
C786 C 0.23231 0.78783 0.0434 0.0
C787 C 0.19602 0.80284 0.02375 0.0
H788 H 0.30059 0.78001 0.08923 0.0
C789 C 0.21172 0.82203 0.03302 0.0
H790 H 0.21988 0.7729 0.03688 0.0
C791 C 0.25592 0.82612 0.06349 0.0
C792 C 0.28675 0.81106 0.08459 0.0
H793 H 0.18302 0.8338 0.01853 0.0
H794 H 0.2606 0.84101 0.07182 0.0
C795 C 0.27873 0.79191 0.07327 0.0
C796 C 0.80721 0.81689 0.55795 0.0
C797 C 0.83012 0.80176 0.58041 0.0
H798 H 0.74517 0.82486 0.51065 0.0
C799 C 0.82117 0.78261 0.56918 0.0
H800 H 0.81283 0.83178 0.56612 0.0
C801 C 0.78041 0.7787 0.53791 0.0
C802 C 0.75093 0.79385 0.51684 0.0
H803 H 0.83711 0.77067 0.58612 0.0
H804 H 0.76597 0.76386 0.53144 0.0
C805 C 0.76888 0.81295 0.52615 0.0
C806 C 0.22358 0.95675 0.62108 0.0
C807 C 0.24863 0.93786 0.61204 0.0
H808 H 0.16534 0.97503 0.65951 0.0
C809 C 0.24311 0.92311 0.63661 0.0
H810 H 0.22586 0.96827 0.60226 0.0
C811 C 0.21091 0.92707 0.66947 0.0
C812 C 0.18041 0.94567 0.67778 0.0
H813 H 0.26068 0.90839 0.62995 0.0
H814 H 0.20523 0.91532 0.68772 0.0
C815 C 0.18816 0.96057 0.65356 0.0
C816 C 0.46933 0.5803 0.47233 0.0
C817 C 0.47048 0.56223 0.48875 0.0
H818 H 0.50072 0.59643 0.42717 0.0
C819 C 0.51892 0.54709 0.47376 0.0
H820 H 0.43297 0.59228 0.48315 0.0
C821 C 0.55811 0.54948 0.44143 0.0
C822 C 0.5493 0.56704 0.42354 0.0
H823 H 0.52083 0.53294 0.48565 0.0
H824 H 0.58913 0.53716 0.42932 0.0
C825 C 0.50812 0.58266 0.44013 0.0
C826 C 0.93309 0.70124 0.34702 0.0
C827 C 0.86127 0.71273 0.33819 0.0
H828 H 0.00718 0.68808 0.38725 0.0
C829 C 0.81368 0.72156 0.36478 0.0
H830 H 0.97154 0.69425 0.32727 0.0
C831 C 0.83517 0.7182 0.39941 0.0
C832 C 0.90418 0.7058 0.40809 0.0
H833 H 0.75811 0.73049 0.35889 0.0
H834 H 0.79488 0.72446 0.41934 0.0
C835 C 0.95392 0.69774 0.38147 0.0
C836 C 0.33075 0.71607 0.89904 0.0
C837 C 0.39878 0.70391 0.90978 0.0
H838 H 0.258 0.72739 0.85644 0.0
C839 C 0.45127 0.69526 0.88462 0.0
H840 H 0.28846 0.7228 0.91781 0.0
C841 C 0.43397 0.69795 0.84961 0.0
C842 C 0.36312 0.70919 0.83877 0.0
H843 H 0.50389 0.68578 0.89197 0.0
H844 H 0.47443 0.69052 0.83103 0.0
C845 C 0.31288 0.71862 0.86388 0.0
C846 C 0.05489 0.54855 0.94213 0.0
C847 C 0.0438 0.56514 0.92165 0.0
H848 H 0.01756 0.53366 0.98825 0.0
C849 C 0.9979 0.58096 0.93545 0.0
H850 H 0.08957 0.53609 0.9322 0.0
C851 C 0.95681 0.57958 0.96735 0.0
C852 C 0.96071 0.56237 0.98639 0.0
H853 H 0.9887 0.59402 0.9205 0.0
H854 H 0.91695 0.59157 0.97596 0.0
C855 C 0.01367 0.54718 0.97429 0.0
C856 C 0.50922 0.45938 0.61261 0.0
C857 C 0.59323 0.45918 0.59921 0.0
H858 H 0.42934 0.46241 0.65747 0.0
C859 C 0.6619 0.46326 0.6212 0.0
H860 H 0.45504 0.4564 0.59608 0.0
C861 C 0.64727 0.46624 0.65641 0.0
C862 C 0.56351 0.46582 0.67002 0.0
H863 H 0.72716 0.46316 0.61154 0.0
H864 H 0.70176 0.46839 0.6732 0.0
C865 C 0.49436 0.46296 0.64762 0.0
C866 C 0.11347 0.32641 0.59773 0.0
C867 C 0.15889 0.32019 0.56862 0.0
H868 H 0.11616 0.33184 0.65162 0.0
C869 C 0.24666 0.31556 0.57145 0.0
H870 H 0.04576 0.33003 0.59606 0.0
C871 C 0.28711 0.31606 0.60369 0.0
C872 C 0.24054 0.32173 0.63309 0.0
H873 H 0.28251 0.31055 0.5492 0.0
H874 H 0.35367 0.31155 0.60577 0.0
C875 C 0.1541 0.32745 0.6295 0.0
C876 C 0.64358 0.34045 0.07886 0.0
C877 C 0.67356 0.32495 0.05892 0.0
H878 H 0.65043 0.35523 0.12686 0.0
C879 C 0.74474 0.31407 0.0701 0.0
H880 H 0.5884 0.34892 0.07064 0.0
C881 C 0.77929 0.31733 0.10282 0.0
C882 C 0.74322 0.33162 0.1243 0.0
H883 H 0.76783 0.30185 0.05515 0.0
H884 H 0.82886 0.30764 0.11233 0.0
C885 C 0.679 0.34396 0.11109 0.0
C886 C 0.05407 0.47745 0.14252 0.0
C887 C 0.08518 0.46564 0.16927 0.0
H888 H 0.04783 0.48212 0.08782 0.0
C889 C 0.13898 0.44986 0.16091 0.0
H890 H 0.01271 0.48973 0.14816 0.0
C891 C 0.15813 0.44542 0.12669 0.0
C892 C 0.12553 0.45686 0.09988 0.0
H893 H 0.16423 0.44044 0.18081 0.0
H894 H 0.19703 0.43272 0.12116 0.0
C895 C 0.07479 0.47319 0.10807 0.0
C896 C 0.98877 0.1073 0.98429 0.0
C897 C 0.93851 0.11421 0.01189 0.0
H898 H 0.07495 0.08537 0.96563 0.0
C899 C 0.92802 0.10227 0.04084 0.0
H900 H 0.99782 0.11606 0.9615 0.0
C901 C 0.97269 0.08455 0.04324 0.0
C902 C 0.02838 0.07841 0.01668 0.0
H903 H 0.88996 0.10717 0.06257 0.0
H904 H 0.9679 0.0763 0.06684 0.0
C905 C 0.03291 0.08963 0.98661 0.0
C906 C 0.10486 0.16805 0.3086 0.0
C907 C 0.08681 0.17854 0.2786 0.0
H908 H 0.08695 0.14173 0.33624 0.0
C909 C 0.02277 0.17201 0.25621 0.0
H910 H 0.15545 0.17263 0.32577 0.0
C911 C 0.98394 0.15412 0.26193 0.0
C912 C 0.00976 0.14257 0.28989 0.0
H913 H 0.00974 0.17964 0.23241 0.0
H914 H 0.94042 0.14857 0.24272 0.0
C915 C 0.06647 0.15023 0.31427 0.0
C916 C 0.86988 0.85584 0.98433 0.0
C917 C 0.83019 0.83823 0.97698 0.0
H918 H 0.85604 0.88613 0.99232 0.0
C919 C 0.74035 0.83812 0.97277 0.0
H920 H 0.93875 0.8565 0.98783 0.0
C921 C 0.69199 0.85548 0.97488 0.0
C922 C 0.73272 0.87312 0.98176 0.0
H923 H 0.70797 0.82478 0.96685 0.0
H924 H 0.62328 0.85512 0.97091 0.0
C925 C 0.82207 0.87292 0.98689 0.0
C926 C 0.98083 0.86479 0.72759 0.0
C927 C 0.89743 0.86298 0.71434 0.0
H928 H 0.0733 0.88327 0.75082 0.0
C929 C 0.84213 0.87913 0.71467 0.0
H930 H 0.02468 0.85253 0.728 0.0
C931 C 0.87054 0.89687 0.72743 0.0
C932 C 0.95396 0.8986 0.74077 0.0
H933 H 0.77743 0.87811 0.70475 0.0
H934 H 0.8272 0.90921 0.72695 0.0
C935 C 0.00851 0.88235 0.74095 0.0
C936 C 0.0032 0.61146 0.49218 0.0
C937 C 0.97526 0.62315 0.51971 0.0
H938 H 0.07366 0.58603 0.47672 0.0
C939 C 0.99189 0.61706 0.55355 0.0
H940 H 0.99135 0.61583 0.46583 0.0
C941 C 0.04071 0.60035 0.55969 0.0
C942 C 0.07176 0.58909 0.53217 0.0
H943 H 0.97164 0.62582 0.57527 0.0
H944 H 0.05646 0.59653 0.586 0.0
C945 C 0.05005 0.5944 0.49839 0.0
C946 C 0.2654 0.63661 0.76399 0.0
C947 C 0.20758 0.65202 0.75889 0.0
H948 H 0.28262 0.60734 0.78049 0.0
C949 C 0.1199 0.64927 0.76577 0.0
H950 H 0.33333 0.63836 0.7591 0.0
C951 C 0.09066 0.63146 0.77772 0.0
C952 C 0.14881 0.61621 0.78362 0.0
H953 H 0.07386 0.66091 0.76204 0.0
H954 H 0.02282 0.62973 0.78284 0.0
C955 C 0.23638 0.61893 0.7765 0.0
C956 C 0.85262 0.39076 0.49686 0.0
C957 C 0.76267 0.38974 0.49546 0.0
H958 H 0.97259 0.37547 0.49505 0.0
C959 C 0.72449 0.37153 0.49217 0.0
H960 H 0.88416 0.40455 0.49926 0.0
C961 C 0.77568 0.35468 0.49048 0.0
C962 C 0.86577 0.35586 0.49115 0.0
H963 H 0.65533 0.37031 0.49108 0.0
H964 H 0.74495 0.34081 0.48787 0.0
C965 C 0.90343 0.37408 0.49435 0.0
C966 C 0.92875 0.38194 0.26451 0.0
C967 C 0.84069 0.38 0.25762 0.0
H968 H 0.0322 0.40123 0.27454 0.0
C969 C 0.78771 0.3965 0.25751 0.0
H970 H 0.97098 0.36941 0.26501 0.0
C971 C 0.82309 0.41474 0.26253 0.0
C972 C 0.9117 0.41671 0.2683 0.0
H973 H 0.71971 0.39538 0.25226 0.0
H974 H 0.7813 0.42733 0.2613 0.0
C975 C 0.96383 0.40012 0.27007 0.0
C976 C 0.55368 0.09685 0.52881 0.0
C977 C 0.63932 0.09567 0.54022 0.0
H978 H 0.45124 0.11543 0.51084 0.0
C979 C 0.68614 0.11275 0.54368 0.0
H980 H 0.51605 0.08391 0.5259 0.0
C981 C 0.64993 0.13048 0.53462 0.0
C982 C 0.5654 0.13172 0.52232 0.0
H983 H 0.75212 0.11241 0.55241 0.0
H984 H 0.68885 0.14328 0.53693 0.0
C985 C 0.51662 0.11483 0.52022 0.0
C986 C 0.58001 0.12934 0.7724 0.0
C987 C 0.63485 0.11358 0.77908 0.0
H988 H 0.56989 0.15898 0.75709 0.0
C989 C 0.72349 0.11554 0.77324 0.0
H990 H 0.51146 0.12822 0.77649 0.0
C991 C 0.75686 0.13303 0.7616 0.0
C992 C 0.70236 0.14897 0.75599 0.0
H993 H 0.76732 0.10357 0.77783 0.0
H994 H 0.82554 0.13421 0.758 0.0
C995 C 0.61352 0.14691 0.76121 0.0
C996 C 0.2872 0.85716 0.48786 0.0
C997 C 0.33869 0.87339 0.49372 0.0
H998 H 0.28466 0.82669 0.47661 0.0
C999 C 0.42833 0.871 0.49384 0.0
H1000 H 0.21791 0.85856 0.48775 0.0
C1001 C 0.46593 0.85305 0.48726 0.0
C1002 C 0.41515 0.83687 0.48078 0.0
H1003 H 0.47008 0.88314 0.49835 0.0
H1004 H 0.53535 0.85192 0.48693 0.0
C1005 C 0.32526 0.83895 0.48168 0.0
C1006 C 0.49082 0.89331 0.2319 0.0
C1007 C 0.43268 0.90882 0.23524 0.0
H1008 H 0.50926 0.86356 0.21897 0.0
C1009 C 0.34526 0.90578 0.22841 0.0
H1010 H 0.55861 0.89522 0.23678 0.0
C1011 C 0.31666 0.8875 0.21846 0.0
C1012 C 0.3753 0.87209 0.2146 0.0
H1013 H 0.29903 0.91751 0.23075 0.0
H1014 H 0.24901 0.88548 0.21344 0.0
C1015 C 0.46257 0.87519 0.22145 0.0
C1016 C 0.48632 0.61783 0.05646 0.0
C1017 C 0.45983 0.62318 0.02321 0.0
H1018 H 0.56018 0.59812 0.08732 0.0
C1019 C 0.48081 0.61084 0.99552 0.0
H1020 H 0.47188 0.62703 0.07832 0.0
C1021 C 0.53007 0.59395 1.00083 0.0
C1022 C 0.5612 0.58937 0.0338 0.0
H1023 H 0.46161 0.61459 0.96956 0.0
H1024 H 0.54794 0.58511 0.9789 0.0
C1025 C 0.53728 0.60129 0.0616 0.0
C1026 C 0.75407 0.64268 0.26493 0.0
C1027 C 0.69572 0.65809 0.261 0.0
H1028 H 0.77316 0.61335 0.28065 0.0
C1029 C 0.60891 0.65533 0.26946 0.0
H1030 H 0.82139 0.64443 0.25882 0.0
C1031 C 0.58103 0.63747 0.28168 0.0
C1032 C 0.63982 0.62219 0.28626 0.0
H1033 H 0.56252 0.667 0.26668 0.0
H1034 H 0.51381 0.6357 0.28794 0.0
C1035 C 0.72652 0.62495 0.27769 0.0
C1036 C 0.331 0.38157 0.98046 0.0
C1037 C 0.24421 0.38142 0.99027 0.0
H1038 H 0.44611 0.36545 0.97119 0.0
C1039 C 0.2065 0.36353 0.99802 0.0
H1040 H 0.3622 0.39503 0.97417 0.0
C1041 C 0.25589 0.34628 0.99689 0.0
C1042 C 0.34316 0.34662 0.98725 0.0
H1043 H 0.13984 0.36295 0.00583 0.0
H1044 H 0.22602 0.33275 1.00361 0.0
C1045 C 0.37928 0.36451 0.97868 0.0
C1046 C 0.51591 0.39008 0.76478 0.0
C1047 C 0.45669 0.4051 0.77084 0.0
H1048 H 0.53386 0.36005 0.75305 0.0
C1049 C 0.36866 0.40092 0.77217 0.0
H1050 H 0.58403 0.39295 0.76355 0.0
C1051 C 0.34003 0.38215 0.76667 0.0
C1052 C 0.3988 0.36727 0.75908 0.0
H1053 H 0.32161 0.41225 0.777 0.0
H1054 H 0.27172 0.37944 0.76727 0.0
C1055 C 0.4871 0.37132 0.7586 0.0
loop_
_geom_bond_atom_site_label_1
_geom_bond_atom_site_label_2
_geom_bond_distance
_geom_bond_site_symmetry_2
_ccdc_geom_bond_type
In0 O1 2.296 1_554 S
In0 O2 2.329 1_554 S
In0 O6 2.265 . S
In0 O7 2.323 . S
In0 O8 2.265 . S
In0 O9 2.326 1_554 S
In0 O11 2.293 . S
In0 O12 2.326 1_554 S
O1 In0 2.296 1_556 S
O1 C10 1.240 . S
O2 In0 2.329 1_556 S
O2 C10 1.252 . S
C3 O6 1.252 . S
C3 O7 1.260 . S
C4 O11 1.240 . S
C4 O12 1.245 1_554 S
C5 O8 1.252 . S
C5 O9 1.260 1_554 S
O6 In0 2.265 . S
O6 C3 1.252 . S
O7 In0 2.323 . S
O7 C3 1.260 . S
O8 In0 2.265 . S
O8 C5 1.252 . S
O9 In0 2.326 1_556 S
O9 C5 1.260 1_556 S
C10 O1 1.240 . S
C10 O2 1.252 . S
O11 In0 2.293 . S
O11 C4 1.240 . S
O12 In0 2.326 1_556 S
O12 C4 1.245 1_556 S
In13 O14 2.296 1_654 S
In13 O15 2.329 1_554 S
In13 O19 2.265 1_655 S
In13 O20 2.323 1_655 S
In13 O21 2.265 . S
In13 O22 2.326 1_654 S
In13 O24 2.293 . S
In13 O25 2.326 1_554 S
O14 In13 2.296 1_456 S
O14 C23 1.240 1_455 S
O15 In13 2.329 1_556 S
O15 C23 1.252 . S
C16 O19 1.252 . S
C16 O20 1.260 . S
C17 O24 1.240 . S
C17 O25 1.245 1_554 S
C18 O21 1.252 1_455 S
C18 O22 1.260 1_554 S
O19 In13 2.265 1_455 S
O19 C16 1.252 . S
O20 In13 2.323 1_455 S
O20 C16 1.260 . S
O21 In13 2.265 . S
O21 C18 1.252 1_655 S
O22 In13 2.326 1_456 S
O22 C18 1.260 1_556 S
C23 O14 1.240 1_655 S
C23 O15 1.252 . S
O24 In13 2.293 . S
O24 C17 1.240 . S
O25 In13 2.326 1_556 S
O25 C17 1.245 1_556 S
In26 O27 2.294 . S
In26 O28 2.326 . S
In26 O32 2.266 . S
In26 O33 2.326 . S
In26 O34 2.266 . S
In26 O35 2.326 . S
In26 O37 2.294 . S
In26 O38 2.326 . S
O27 In26 2.294 . S
O27 C36 1.240 . S
O28 In26 2.326 . S
O28 C36 1.252 . S
C29 O32 1.252 . S
C29 O33 1.260 . S
C30 O37 1.240 . S
C30 O38 1.252 . S
C31 O34 1.252 . S
C31 O35 1.260 . S
O32 In26 2.266 . S
O32 C29 1.252 . S
O33 In26 2.326 . S
O33 C29 1.260 . S
O34 In26 2.266 . S
O34 C31 1.252 . S
O35 In26 2.326 . S
O35 C31 1.260 . S
C36 O27 1.240 . S
C36 O28 1.252 . S
O37 In26 2.294 . S
O37 C30 1.240 . S
O38 In26 2.326 . S
O38 C30 1.252 . S
In39 O40 2.302 . S
In39 O41 2.330 . S
In39 O45 2.268 . S
In39 O46 2.320 1_655 S
In39 O47 2.259 1_655 S
In39 O48 2.324 1_655 S
In39 O50 2.291 1_655 S
In39 O51 2.330 . S
O40 In39 2.302 . S
O40 C49 1.240 . S
O41 In39 2.330 . S
O41 C49 1.252 . S
C42 O45 1.252 1_455 S
C42 O46 1.260 . S
C43 O50 1.240 1_655 S
C43 O51 1.252 . S
C44 O47 1.252 . S
C44 O48 1.260 . S
O45 In39 2.268 . S
O45 C42 1.252 1_655 S
O46 In39 2.320 1_455 S
O46 C42 1.260 . S
O47 In39 2.259 1_455 S
O47 C44 1.252 . S
O48 In39 2.324 1_455 S
O48 C44 1.260 . S
C49 O40 1.240 . S
C49 O41 1.252 . S
O50 In39 2.291 1_455 S
O50 C43 1.240 1_455 S
O51 In39 2.330 . S
O51 C43 1.252 . S
In52 O53 2.293 . S
In52 O54 2.326 1_556 S
In52 O58 2.265 . S
In52 O59 2.326 1_556 S
In52 O60 2.265 . S
In52 O61 2.323 . S
In52 O63 2.296 1_556 S
In52 O64 2.329 1_556 S
O53 In52 2.293 . S
O53 C62 1.240 . S
O54 In52 2.326 1_554 S
O54 C62 1.245 1_554 S
C55 O58 1.252 . S
C55 O59 1.260 1_556 S
C56 O63 1.240 . S
C56 O64 1.252 . S
C57 O60 1.252 . S
C57 O61 1.260 . S
O58 In52 2.265 . S
O58 C55 1.252 . S
O59 In52 2.326 1_554 S
O59 C55 1.260 1_554 S
O60 In52 2.265 . S
O60 C57 1.252 . S
O61 In52 2.323 . S
O61 C57 1.260 . S
C62 O53 1.240 . S
C62 O54 1.245 1_556 S
O63 In52 2.296 1_554 S
O63 C56 1.240 . S
O64 In52 2.329 1_554 S
O64 C56 1.252 . S
In65 O66 2.296 1_456 S
In65 O67 2.329 1_556 S
In65 O71 2.265 1_455 S
In65 O72 2.323 1_455 S
In65 O73 2.265 . S
In65 O74 2.326 1_456 S
In65 O76 2.293 . S
In65 O77 2.326 1_556 S
O66 In65 2.296 1_654 S
O66 C75 1.240 1_655 S
O67 In65 2.329 1_554 S
O67 C75 1.252 . S
C68 O71 1.252 . S
C68 O72 1.260 . S
C69 O76 1.240 . S
C69 O77 1.245 1_556 S
C70 O73 1.252 1_655 S
C70 O74 1.260 1_556 S
O71 In65 2.265 1_655 S
O71 C68 1.252 . S
O72 In65 2.323 1_655 S
O72 C68 1.260 . S
O73 In65 2.265 . S
O73 C70 1.252 1_455 S
O74 In65 2.326 1_654 S
O74 C70 1.260 1_554 S
C75 O66 1.240 1_455 S
C75 O67 1.252 . S
O76 In65 2.293 . S
O76 C69 1.240 . S
O77 In65 2.326 1_554 S
O77 C69 1.245 1_554 S
In78 O79 2.294 . S
In78 O80 2.326 . S
In78 O84 2.266 . S
In78 O85 2.326 . S
In78 O86 2.266 . S
In78 O87 2.326 . S
In78 O89 2.294 . S
In78 O90 2.326 . S
O79 In78 2.294 . S
O79 C88 1.240 . S
O80 In78 2.326 . S
O80 C88 1.252 . S
C81 O84 1.252 . S
C81 O85 1.260 . S
C82 O89 1.240 . S
C82 O90 1.252 . S
C83 O86 1.252 . S
C83 O87 1.260 . S
O84 In78 2.266 . S
O84 C81 1.252 . S
O85 In78 2.326 . S
O85 C81 1.260 . S
O86 In78 2.266 . S
O86 C83 1.252 . S
O87 In78 2.326 . S
O87 C83 1.260 . S
C88 O79 1.240 . S
C88 O80 1.252 . S
O89 In78 2.294 . S
O89 C82 1.240 . S
O90 In78 2.326 . S
O90 C82 1.252 . S
In91 O92 2.291 1_455 S
In91 O93 2.330 . S
In91 O97 2.259 1_455 S
In91 O98 2.324 1_455 S
In91 O99 2.268 . S
In91 O100 2.320 1_455 S
In91 O102 2.302 . S
In91 O103 2.330 . S
O92 In91 2.291 1_655 S
O92 C101 1.240 1_655 S
O93 In91 2.330 . S
O93 C101 1.252 . S
C94 O97 1.252 . S
C94 O98 1.260 . S
C95 O102 1.240 . S
C95 O103 1.252 . S
C96 O99 1.252 1_655 S
C96 O100 1.260 . S
O97 In91 2.259 1_655 S
O97 C94 1.252 . S
O98 In91 2.324 1_655 S
O98 C94 1.260 . S
O99 In91 2.268 . S
O99 C96 1.252 1_455 S
O100 In91 2.320 1_655 S
O100 C96 1.260 . S
C101 O92 1.240 1_455 S
C101 O93 1.252 . S
O102 In91 2.302 . S
O102 C95 1.240 . S
O103 In91 2.330 . S
O103 C95 1.252 . S
In104 O105 2.294 . S
In104 O106 2.326 . S
In104 O110 2.266 . S
In104 O111 2.326 . S
In104 O112 2.266 . S
In104 O113 2.326 . S
In104 O115 2.294 . S
In104 O116 2.326 . S
O105 In104 2.294 . S
O105 C114 1.240 . S
O106 In104 2.326 . S
O106 C114 1.252 . S
C107 O110 1.252 . S
C107 O111 1.260 . S
C108 O115 1.240 . S
C108 O116 1.252 . S
C109 O112 1.252 . S
C109 O113 1.260 . S
O110 In104 2.266 . S
O110 C107 1.252 . S
O111 In104 2.326 . S
O111 C107 1.260 . S
O112 In104 2.266 . S
O112 C109 1.252 . S
O113 In104 2.326 . S
O113 C109 1.260 . S
C114 O105 1.240 . S
C114 O106 1.252 . S
O115 In104 2.294 . S
O115 C108 1.240 . S
O116 In104 2.326 . S
O116 C108 1.252 . S
In117 O118 2.294 1_655 S
In117 O119 2.326 . S
In117 O123 2.266 1_655 S
In117 O124 2.326 1_655 S
In117 O125 2.266 . S
In117 O126 2.326 1_655 S
In117 O128 2.294 . S
In117 O129 2.326 . S
O118 In117 2.294 1_455 S
O118 C127 1.240 1_455 S
O119 In117 2.326 . S
O119 C127 1.252 . S
C120 O123 1.252 . S
C120 O124 1.260 . S
C121 O128 1.240 . S
C121 O129 1.252 . S
C122 O125 1.252 1_455 S
C122 O126 1.260 . S
O123 In117 2.266 1_455 S
O123 C120 1.252 . S
O124 In117 2.326 1_455 S
O124 C120 1.260 . S
O125 In117 2.266 . S
O125 C122 1.252 1_655 S
O126 In117 2.326 1_455 S
O126 C122 1.260 . S
C127 O118 1.240 1_655 S
C127 O119 1.252 . S
O128 In117 2.294 . S
O128 C121 1.240 . S
O129 In117 2.326 . S
O129 C121 1.252 . S
In130 O131 2.294 . S
In130 O132 2.326 . S
In130 O136 2.266 . S
In130 O137 2.326 . S
In130 O138 2.266 . S
In130 O139 2.326 . S
In130 O141 2.294 . S
In130 O142 2.326 . S
O131 In130 2.294 . S
O131 C140 1.240 . S
O132 In130 2.326 . S
O132 C140 1.252 . S
C133 O136 1.252 . S
C133 O137 1.260 . S
C134 O141 1.240 . S
C134 O142 1.252 . S
C135 O138 1.252 . S
C135 O139 1.260 . S
O136 In130 2.266 . S
O136 C133 1.252 . S
O137 In130 2.326 . S
O137 C133 1.260 . S
O138 In130 2.266 . S
O138 C135 1.252 . S
O139 In130 2.326 . S
O139 C135 1.260 . S
C140 O131 1.240 . S
C140 O132 1.252 . S
O141 In130 2.294 . S
O141 C134 1.240 . S
O142 In130 2.326 . S
O142 C134 1.252 . S
In143 O144 2.294 1_655 S
In143 O145 2.326 . S
In143 O149 2.266 1_655 S
In143 O150 2.326 1_655 S
In143 O151 2.266 . S
In143 O152 2.326 1_655 S
In143 O154 2.294 . S
In143 O155 2.326 . S
O144 In143 2.294 1_455 S
O144 C153 1.240 1_455 S
O145 In143 2.326 . S
O145 C153 1.252 . S
C146 O149 1.252 . S
C146 O150 1.260 . S
C147 O154 1.240 . S
C147 O155 1.252 . S
C148 O151 1.252 1_455 S
C148 O152 1.260 . S
O149 In143 2.266 1_455 S
O149 C146 1.252 . S
O150 In143 2.326 1_455 S
O150 C146 1.260 . S
O151 In143 2.266 . S
O151 C148 1.252 1_655 S
O152 In143 2.326 1_455 S
O152 C148 1.260 . S
C153 O144 1.240 1_655 S
C153 O145 1.252 . S
O154 In143 2.294 . S
O154 C147 1.240 . S
O155 In143 2.326 . S
O155 C147 1.252 . S
In156 O157 2.294 . S
In156 O158 2.326 . S
In156 O162 2.266 . S
In156 O163 2.326 . S
In156 O164 2.266 . S
In156 O165 2.326 . S
In156 O167 2.294 . S
In156 O168 2.326 . S
O157 In156 2.294 . S
O157 C166 1.240 . S
O158 In156 2.326 . S
O158 C166 1.252 . S
C159 O162 1.252 . S
C159 O163 1.260 . S
C160 O167 1.240 . S
C160 O168 1.252 . S
C161 O164 1.252 . S
C161 O165 1.260 . S
O162 In156 2.266 . S
O162 C159 1.252 . S
O163 In156 2.326 . S
O163 C159 1.260 . S
O164 In156 2.266 . S
O164 C161 1.252 . S
O165 In156 2.326 . S
O165 C161 1.260 . S
C166 O157 1.240 . S
C166 O158 1.252 . S
O167 In156 2.294 . S
O167 C160 1.240 . S
O168 In156 2.326 . S
O168 C160 1.252 . S
In169 O170 2.294 1_455 S
In169 O171 2.326 . S
In169 O175 2.266 1_455 S
In169 O176 2.326 1_455 S
In169 O177 2.266 . S
In169 O178 2.326 1_455 S
In169 O180 2.294 . S
In169 O181 2.326 . S
O170 In169 2.294 1_655 S
O170 C179 1.240 1_655 S
O171 In169 2.326 . S
O171 C179 1.252 . S
C172 O175 1.252 . S
C172 O176 1.260 . S
C173 O180 1.240 . S
C173 O181 1.252 . S
C174 O177 1.252 1_655 S
C174 O178 1.260 . S
O175 In169 2.266 1_655 S
O175 C172 1.252 . S
O176 In169 2.326 1_655 S
O176 C172 1.260 . S
O177 In169 2.266 . S
O177 C174 1.252 1_455 S
O178 In169 2.326 1_655 S
O178 C174 1.260 . S
C179 O170 1.240 1_455 S
C179 O171 1.252 . S
O180 In169 2.294 . S
O180 C173 1.240 . S
O181 In169 2.326 . S
O181 C173 1.252 . S
In182 O183 2.294 . S
In182 O184 2.326 . S
In182 O188 2.266 . S
In182 O189 2.326 . S
In182 O190 2.266 . S
In182 O191 2.326 . S
In182 O193 2.294 . S
In182 O194 2.326 . S
O183 In182 2.294 . S
O183 C192 1.240 . S
O184 In182 2.326 . S
O184 C192 1.252 . S
C185 O188 1.252 . S
C185 O189 1.260 . S
C186 O193 1.240 . S
C186 O194 1.252 . S
C187 O190 1.252 . S
C187 O191 1.260 . S
O188 In182 2.266 . S
O188 C185 1.252 . S
O189 In182 2.326 . S
O189 C185 1.260 . S
O190 In182 2.266 . S
O190 C187 1.252 . S
O191 In182 2.326 . S
O191 C187 1.260 . S
C192 O183 1.240 . S
C192 O184 1.252 . S
O193 In182 2.294 . S
O193 C186 1.240 . S
O194 In182 2.326 . S
O194 C186 1.252 . S
In195 O196 2.294 . S
In195 O197 2.326 . S
In195 O201 2.266 . S
In195 O202 2.326 1_455 S
In195 O203 2.266 1_455 S
In195 O204 2.326 1_455 S
In195 O206 2.294 1_455 S
In195 O207 2.326 . S
O196 In195 2.294 . S
O196 C205 1.240 . S
O197 In195 2.326 . S
O197 C205 1.252 . S
C198 O201 1.252 1_655 S
C198 O202 1.260 . S
C199 O206 1.240 1_455 S
C199 O207 1.252 . S
C200 O203 1.252 . S
C200 O204 1.260 . S
O201 In195 2.266 . S
O201 C198 1.252 1_455 S
O202 In195 2.326 1_655 S
O202 C198 1.260 . S
O203 In195 2.266 1_655 S
O203 C200 1.252 . S
O204 In195 2.326 1_655 S
O204 C200 1.260 . S
C205 O196 1.240 . S
C205 O197 1.252 . S
O206 In195 2.294 1_655 S
O206 C199 1.240 1_655 S
O207 In195 2.326 . S
O207 C199 1.252 . S
In208 O209 2.294 . S
In208 O210 2.326 . S
In208 O214 2.266 . S
In208 O215 2.326 . S
In208 O216 2.266 . S
In208 O217 2.326 . S
In208 O219 2.294 . S
In208 O220 2.326 . S
O209 In208 2.294 . S
O209 C218 1.240 . S
O210 In208 2.326 . S
O210 C218 1.252 . S
C211 O214 1.252 . S
C211 O215 1.260 . S
C212 O219 1.240 . S
C212 O220 1.252 . S
C213 O216 1.252 . S
C213 O217 1.260 . S
O214 In208 2.266 . S
O214 C211 1.252 . S
O215 In208 2.326 . S
O215 C211 1.260 . S
O216 In208 2.266 . S
O216 C213 1.252 . S
O217 In208 2.326 . S
O217 C213 1.260 . S
C218 O209 1.240 . S
C218 O210 1.252 . S
O219 In208 2.294 . S
O219 C212 1.240 . S
O220 In208 2.326 . S
O220 C212 1.252 . S
In221 O222 2.294 . S
In221 O223 2.326 . S
In221 O227 2.266 . S
In221 O228 2.326 . S
In221 O229 2.266 . S
In221 O230 2.326 . S
In221 O232 2.294 . S
In221 O233 2.326 . S
O222 In221 2.294 . S
O222 C231 1.240 . S
O223 In221 2.326 . S
O223 C231 1.252 . S
C224 O227 1.252 . S
C224 O228 1.260 . S
C225 O232 1.240 . S
C225 O233 1.252 . S
C226 O229 1.252 . S
C226 O230 1.260 . S
O227 In221 2.266 . S
O227 C224 1.252 . S
O228 In221 2.326 . S
O228 C224 1.260 . S
O229 In221 2.266 . S
O229 C226 1.252 . S
O230 In221 2.326 . S
O230 C226 1.260 . S
C231 O222 1.240 . S
C231 O223 1.252 . S
O232 In221 2.294 . S
O232 C225 1.240 . S
O233 In221 2.326 . S
O233 C225 1.252 . S
In234 O235 2.294 . S
In234 O236 2.326 . S
In234 O240 2.266 . S
In234 O241 2.326 . S
In234 O242 2.266 . S
In234 O243 2.326 . S
In234 O245 2.294 . S
In234 O246 2.326 . S
O235 In234 2.294 . S
O235 C244 1.240 . S
O236 In234 2.326 . S
O236 C244 1.252 . S
C237 O240 1.252 . S
C237 O241 1.260 . S
C238 O245 1.240 . S
C238 O246 1.252 . S
C239 O242 1.252 . S
C239 O243 1.260 . S
O240 In234 2.266 . S
O240 C237 1.252 . S
O241 In234 2.326 . S
O241 C237 1.260 . S
O242 In234 2.266 . S
O242 C239 1.252 . S
O243 In234 2.326 . S
O243 C239 1.260 . S
C244 O235 1.240 . S
C244 O236 1.252 . S
O245 In234 2.294 . S
O245 C238 1.240 . S
O246 In234 2.326 . S
O246 C238 1.252 . S
In247 O248 2.294 . S
In247 O249 2.326 . S
In247 O253 2.266 . S
In247 O254 2.326 . S
In247 O255 2.266 . S
In247 O256 2.326 . S
In247 O258 2.294 . S
In247 O259 2.326 . S
O248 In247 2.294 . S
O248 C257 1.240 . S
O249 In247 2.326 . S
O249 C257 1.252 . S
C250 O253 1.252 . S
C250 O254 1.260 . S
C251 O258 1.240 . S
C251 O259 1.252 . S
C252 O255 1.252 . S
C252 O256 1.260 . S
O253 In247 2.266 . S
O253 C250 1.252 . S
O254 In247 2.326 . S
O254 C250 1.260 . S
O255 In247 2.266 . S
O255 C252 1.252 . S
O256 In247 2.326 . S
O256 C252 1.260 . S
C257 O248 1.240 . S
C257 O249 1.252 . S
O258 In247 2.294 . S
O258 C251 1.240 . S
O259 In247 2.326 . S
O259 C251 1.252 . S
In260 O261 2.294 . S
In260 O262 2.326 . S
In260 O266 2.266 . S
In260 O267 2.326 . S
In260 O268 2.266 . S
In260 O269 2.326 . S
In260 O271 2.294 . S
In260 O272 2.326 . S
O261 In260 2.294 . S
O261 C270 1.240 . S
O262 In260 2.326 . S
O262 C270 1.252 . S
C263 O266 1.252 . S
C263 O267 1.260 . S
C264 O271 1.240 . S
C264 O272 1.252 . S
C265 O268 1.252 . S
C265 O269 1.260 . S
O266 In260 2.266 . S
O266 C263 1.252 . S
O267 In260 2.326 . S
O267 C263 1.260 . S
O268 In260 2.266 . S
O268 C265 1.252 . S
O269 In260 2.326 . S
O269 C265 1.260 . S
C270 O261 1.240 . S
C270 O262 1.252 . S
O271 In260 2.294 . S
O271 C264 1.240 . S
O272 In260 2.326 . S
O272 C264 1.252 . S
In273 O274 2.294 . S
In273 O275 2.326 . S
In273 O279 2.266 . S
In273 O280 2.326 . S
In273 O281 2.266 . S
In273 O282 2.326 . S
In273 O284 2.294 . S
In273 O285 2.326 . S
O274 In273 2.294 . S
O274 C283 1.240 . S
O275 In273 2.326 . S
O275 C283 1.252 . S
C276 O279 1.252 . S
C276 O280 1.260 . S
C277 O284 1.240 . S
C277 O285 1.252 . S
C278 O281 1.252 . S
C278 O282 1.260 . S
O279 In273 2.266 . S
O279 C276 1.252 . S
O280 In273 2.326 . S
O280 C276 1.260 . S
O281 In273 2.266 . S
O281 C278 1.252 . S
O282 In273 2.326 . S
O282 C278 1.260 . S
C283 O274 1.240 . S
C283 O275 1.252 . S
O284 In273 2.294 . S
O284 C277 1.240 . S
O285 In273 2.326 . S
O285 C277 1.252 . S
In286 O287 2.294 . S
In286 O288 2.326 . S
In286 O292 2.266 . S
In286 O293 2.326 . S
In286 O294 2.266 . S
In286 O295 2.326 . S
In286 O297 2.294 . S
In286 O298 2.326 . S
O287 In286 2.294 . S
O287 C296 1.240 . S
O288 In286 2.326 . S
O288 C296 1.252 . S
C289 O292 1.252 . S
C289 O293 1.260 . S
C290 O297 1.240 . S
C290 O298 1.252 . S
C291 O294 1.252 . S
C291 O295 1.260 . S
O292 In286 2.266 . S
O292 C289 1.252 . S
O293 In286 2.326 . S
O293 C289 1.260 . S
O294 In286 2.266 . S
O294 C291 1.252 . S
O295 In286 2.326 . S
O295 C291 1.260 . S
C296 O287 1.240 . S
C296 O288 1.252 . S
O297 In286 2.294 . S
O297 C290 1.240 . S
O298 In286 2.326 . S
O298 C290 1.252 . S
In299 O300 2.294 . S
In299 O301 2.326 . S
In299 O305 2.266 . S
In299 O306 2.326 . S
In299 O307 2.266 . S
In299 O308 2.326 . S
In299 O310 2.294 . S
In299 O311 2.326 . S
O300 In299 2.294 . S
O300 C309 1.240 . S
O301 In299 2.326 . S
O301 C309 1.252 . S
C302 O305 1.252 . S
C302 O306 1.260 . S
C303 O310 1.240 . S
C303 O311 1.252 . S
C304 O307 1.252 . S
C304 O308 1.260 . S
O305 In299 2.266 . S
O305 C302 1.252 . S
O306 In299 2.326 . S
O306 C302 1.260 . S
O307 In299 2.266 . S
O307 C304 1.252 . S
O308 In299 2.326 . S
O308 C304 1.260 . S
C309 O300 1.240 . S
C309 O301 1.252 . S
O310 In299 2.294 . S
O310 C303 1.240 . S
O311 In299 2.326 . S
O311 C303 1.252 . S
In312 O313 2.293 . S
In312 O314 2.326 1_554 S
In312 O318 2.265 . S
In312 O319 2.326 1_554 S
In312 O320 2.265 . S
In312 O321 2.323 . S
In312 O323 2.296 1_554 S
In312 O324 2.329 1_554 S
O313 In312 2.293 . S
O313 C322 1.240 . S
O314 In312 2.326 1_556 S
O314 C322 1.245 1_556 S
C315 O318 1.252 . S
C315 O319 1.260 1_554 S
C316 O323 1.240 . S
C316 O324 1.252 . S
C317 O320 1.252 . S
C317 O321 1.260 . S
O318 In312 2.265 . S
O318 C315 1.252 . S
O319 In312 2.326 1_556 S
O319 C315 1.260 1_556 S
O320 In312 2.265 . S
O320 C317 1.252 . S
O321 In312 2.323 . S
O321 C317 1.260 . S
C322 O313 1.240 . S
C322 O314 1.245 1_554 S
O323 In312 2.296 1_556 S
O323 C316 1.240 . S
O324 In312 2.329 1_556 S
O324 C316 1.252 . S
In325 O326 2.296 1_554 S
In325 O327 2.329 1_554 S
In325 O331 2.265 . S
In325 O332 2.323 . S
In325 O333 2.265 . S
In325 O334 2.326 1_554 S
In325 O336 2.293 . S
In325 O337 2.326 1_554 S
O326 In325 2.296 1_556 S
O326 C335 1.240 . S
O327 In325 2.329 1_556 S
O327 C335 1.252 . S
C328 O331 1.252 . S
C328 O332 1.260 . S
C329 O336 1.240 . S
C329 O337 1.245 1_554 S
C330 O333 1.252 . S
C330 O334 1.260 1_554 S
O331 In325 2.265 . S
O331 C328 1.252 . S
O332 In325 2.323 . S
O332 C328 1.260 . S
O333 In325 2.265 . S
O333 C330 1.252 . S
O334 In325 2.326 1_556 S
O334 C330 1.260 1_556 S
C335 O326 1.240 . S
C335 O327 1.252 . S
O336 In325 2.293 . S
O336 C329 1.240 . S
O337 In325 2.326 1_556 S
O337 C329 1.245 1_556 S
In338 O339 2.294 . S
In338 O340 2.326 . S
In338 O344 2.266 . S
In338 O345 2.326 . S
In338 O346 2.266 . S
In338 O347 2.326 . S
In338 O349 2.294 . S
In338 O350 2.326 . S
O339 In338 2.294 . S
O339 C348 1.240 . S
O340 In338 2.326 . S
O340 C348 1.252 . S
C341 O344 1.252 . S
C341 O345 1.260 . S
C342 O349 1.240 . S
C342 O350 1.252 . S
C343 O346 1.252 . S
C343 O347 1.260 . S
O344 In338 2.266 . S
O344 C341 1.252 . S
O345 In338 2.326 . S
O345 C341 1.260 . S
O346 In338 2.266 . S
O346 C343 1.252 . S
O347 In338 2.326 . S
O347 C343 1.260 . S
C348 O339 1.240 . S
C348 O340 1.252 . S
O349 In338 2.294 . S
O349 C342 1.240 . S
O350 In338 2.326 . S
O350 C342 1.252 . S
In351 O352 2.294 . S
In351 O353 2.326 . S
In351 O357 2.266 . S
In351 O358 2.326 . S
In351 O359 2.266 . S
In351 O360 2.326 . S
In351 O362 2.294 . S
In351 O363 2.326 . S
O352 In351 2.294 . S
O352 C361 1.240 . S
O353 In351 2.326 . S
O353 C361 1.252 . S
C354 O357 1.252 . S
C354 O358 1.260 . S
C355 O362 1.240 . S
C355 O363 1.252 . S
C356 O359 1.252 . S
C356 O360 1.260 . S
O357 In351 2.266 . S
O357 C354 1.252 . S
O358 In351 2.326 . S
O358 C354 1.260 . S
O359 In351 2.266 . S
O359 C356 1.252 . S
O360 In351 2.326 . S
O360 C356 1.260 . S
C361 O352 1.240 . S
C361 O353 1.252 . S
O362 In351 2.294 . S
O362 C355 1.240 . S
O363 In351 2.326 . S
O363 C355 1.252 . S
In364 O365 2.296 1_556 S
In364 O366 2.329 1_556 S
In364 O370 2.265 . S
In364 O371 2.323 . S
In364 O372 2.265 . S
In364 O373 2.326 1_556 S
In364 O375 2.293 . S
In364 O376 2.326 1_556 S
O365 In364 2.296 1_554 S
O365 C374 1.240 . S
O366 In364 2.329 1_554 S
O366 C374 1.252 . S
C367 O370 1.252 . S
C367 O371 1.260 . S
C368 O375 1.240 . S
C368 O376 1.245 1_556 S
C369 O372 1.252 . S
C369 O373 1.260 1_556 S
O370 In364 2.265 . S
O370 C367 1.252 . S
O371 In364 2.323 . S
O371 C367 1.260 . S
O372 In364 2.265 . S
O372 C369 1.252 . S
O373 In364 2.326 1_554 S
O373 C369 1.260 1_554 S
C374 O365 1.240 . S
C374 O366 1.252 . S
O375 In364 2.293 . S
O375 C368 1.240 . S
O376 In364 2.326 1_554 S
O376 C368 1.245 1_554 S
In377 O378 2.293 . S
In377 O379 2.326 1_556 S
In377 O383 2.265 . S
In377 O384 2.326 1_556 S
In377 O385 2.265 . S
In377 O386 2.323 . S
In377 O388 2.296 1_556 S
In377 O389 2.329 1_556 S
O378 In377 2.293 . S
O378 C387 1.240 . S
O379 In377 2.326 1_554 S
O379 C387 1.245 1_554 S
C380 O383 1.252 . S
C380 O384 1.260 1_556 S
C381 O388 1.240 . S
C381 O389 1.252 . S
C382 O385 1.252 . S
C382 O386 1.260 . S
O383 In377 2.265 . S
O383 C380 1.252 . S
O384 In377 2.326 1_554 S
O384 C380 1.260 1_554 S
O385 In377 2.265 . S
O385 C382 1.252 . S
O386 In377 2.323 . S
O386 C382 1.260 . S
C387 O378 1.240 . S
C387 O379 1.245 1_556 S
O388 In377 2.296 1_554 S
O388 C381 1.240 . S
O389 In377 2.329 1_554 S
O389 C381 1.252 . S
In390 O391 2.294 . S
In390 O392 2.326 . S
In390 O396 2.266 . S
In390 O397 2.326 . S
In390 O398 2.266 . S
In390 O399 2.326 . S
In390 O401 2.294 . S
In390 O402 2.326 . S
O391 In390 2.294 . S
O391 C400 1.240 . S
O392 In390 2.326 . S
O392 C400 1.252 . S
C393 O396 1.252 . S
C393 O397 1.260 . S
C394 O401 1.240 . S
C394 O402 1.252 . S
C395 O398 1.252 . S
C395 O399 1.260 . S
O396 In390 2.266 . S
O396 C393 1.252 . S
O397 In390 2.326 . S
O397 C393 1.260 . S
O398 In390 2.266 . S
O398 C395 1.252 . S
O399 In390 2.326 . S
O399 C395 1.260 . S
C400 O391 1.240 . S
C400 O392 1.252 . S
O401 In390 2.294 . S
O401 C394 1.240 . S
O402 In390 2.326 . S
O402 C394 1.252 . S
In403 O404 2.294 . S
In403 O405 2.326 . S
In403 O409 2.266 . S
In403 O410 2.326 . S
In403 O411 2.266 . S
In403 O412 2.326 . S
In403 O414 2.294 . S
In403 O415 2.326 . S
O404 In403 2.294 . S
O404 C413 1.240 . S
O405 In403 2.326 . S
O405 C413 1.252 . S
C406 O409 1.252 . S
C406 O410 1.260 . S
C407 O414 1.240 . S
C407 O415 1.252 . S
C408 O411 1.252 . S
C408 O412 1.260 . S
O409 In403 2.266 . S
O409 C406 1.252 . S
O410 In403 2.326 . S
O410 C406 1.260 . S
O411 In403 2.266 . S
O411 C408 1.252 . S
O412 In403 2.326 . S
O412 C408 1.260 . S
C413 O404 1.240 . S
C413 O405 1.252 . S
O414 In403 2.294 . S
O414 C407 1.240 . S
O415 In403 2.326 . S
O415 C407 1.252 . S
C416 C417 1.387 . S
C416 H420 0.950 . S
C416 C425 1.390 . S
C417 C416 1.387 . S
C417 C419 1.387 . S
H418 C425 0.950 . S
C419 C417 1.387 . S
C419 C421 1.390 . S
C419 H423 0.950 . S
H420 C416 0.950 . S
C421 C419 1.390 . S
C421 C422 1.387 . S
C421 H424 0.950 . S
C422 C421 1.387 . S
C422 C425 1.387 . S
H423 C419 0.950 . S
H424 C421 0.950 . S
C425 C416 1.390 . S
C425 H418 0.950 . S
C425 C422 1.387 . S
C426 C427 1.387 . S
C426 H430 0.950 . S
C426 C435 1.390 . S
C427 C426 1.387 . S
C427 C429 1.387 . S
H428 C435 0.950 . S
C429 C427 1.387 . S
C429 C431 1.390 . S
C429 H433 0.950 . S
H430 C426 0.950 . S
C431 C429 1.390 . S
C431 C432 1.387 . S
C431 H434 0.950 . S
C432 C431 1.387 . S
C432 C435 1.387 . S
H433 C429 0.950 . S
H434 C431 0.950 . S
C435 C426 1.390 . S
C435 H428 0.950 . S
C435 C432 1.387 . S
C436 C437 1.387 . S
C436 H440 0.950 . S
C436 C445 1.390 . S
C437 C436 1.387 . S
C437 C439 1.387 . S
H438 C445 0.950 . S
C439 C437 1.387 . S
C439 C441 1.390 . S
C439 H443 0.950 . S
H440 C436 0.950 . S
C441 C439 1.390 . S
C441 C442 1.387 . S
C441 H444 0.950 . S
C442 C441 1.387 . S
C442 C445 1.387 . S
H443 C439 0.950 . S
H444 C441 0.950 . S
C445 C436 1.390 . S
C445 H438 0.950 . S
C445 C442 1.387 . S
C446 C447 1.387 . S
C446 H450 0.950 . S
C446 C455 1.390 . S
C447 C446 1.387 . S
C447 C449 1.387 . S
H448 C455 0.950 . S
C449 C447 1.387 . S
C449 C451 1.390 . S
C449 H453 0.950 . S
H450 C446 0.950 . S
C451 C449 1.390 . S
C451 C452 1.387 . S
C451 H454 0.950 . S
C452 C451 1.387 . S
C452 C455 1.387 . S
H453 C449 0.950 . S
H454 C451 0.950 . S
C455 C446 1.390 . S
C455 H448 0.950 . S
C455 C452 1.387 . S
C456 C457 1.387 . S
C456 H460 0.950 . S
C456 C465 1.390 . S
C457 C456 1.387 . S
C457 C459 1.387 . S
H458 C465 0.950 . S
C459 C457 1.387 . S
C459 C461 1.390 . S
C459 H463 0.950 . S
H460 C456 0.950 . S
C461 C459 1.390 . S
C461 C462 1.387 . S
C461 H464 0.950 . S
C462 C461 1.387 . S
C462 C465 1.387 . S
H463 C459 0.950 . S
H464 C461 0.950 . S
C465 C456 1.390 . S
C465 H458 0.950 . S
C465 C462 1.387 . S
C466 C467 1.387 . S
C466 H470 0.950 . S
C466 C475 1.390 . S
C467 C466 1.387 . S
C467 C469 1.387 . S
H468 C475 0.950 . S
C469 C467 1.387 . S
C469 C471 1.390 . S
C469 H473 0.950 . S
H470 C466 0.950 . S
C471 C469 1.390 . S
C471 C472 1.387 . S
C471 H474 0.950 . S
C472 C471 1.387 . S
C472 C475 1.387 . S
H473 C469 0.950 . S
H474 C471 0.950 . S
C475 C466 1.390 . S
C475 H468 0.950 . S
C475 C472 1.387 . S
C476 C477 1.387 . S
C476 H480 0.950 . S
C476 C485 1.390 . S
C477 C476 1.387 . S
C477 C479 1.387 . S
H478 C485 0.950 . S
C479 C477 1.387 . S
C479 C481 1.390 . S
C479 H483 0.950 . S
H480 C476 0.950 . S
C481 C479 1.390 . S
C481 C482 1.387 . S
C481 H484 0.950 . S
C482 C481 1.387 . S
C482 C485 1.387 . S
H483 C479 0.950 . S
H484 C481 0.950 . S
C485 C476 1.390 . S
C485 H478 0.950 . S
C485 C482 1.387 . S
C486 C487 1.387 . S
C486 H490 0.950 . S
C486 C495 1.390 . S
C487 C486 1.387 . S
C487 C489 1.387 . S
H488 C495 0.950 . S
C489 C487 1.387 . S
C489 C491 1.390 . S
C489 H493 0.950 . S
H490 C486 0.950 . S
C491 C489 1.390 . S
C491 C492 1.387 . S
C491 H494 0.950 . S
C492 C491 1.387 . S
C492 C495 1.387 . S
H493 C489 0.950 . S
H494 C491 0.950 . S
C495 C486 1.390 . S
C495 H488 0.950 . S
C495 C492 1.387 . S
C496 C497 1.387 . S
C496 H500 0.950 . S
C496 C505 1.390 . S
C497 C496 1.387 . S
C497 C499 1.387 . S
H498 C505 0.950 . S
C499 C497 1.387 . S
C499 C501 1.390 . S
C499 H503 0.950 . S
H500 C496 0.950 . S
C501 C499 1.390 . S
C501 C502 1.387 . S
C501 H504 0.950 . S
C502 C501 1.387 . S
C502 C505 1.387 . S
H503 C499 0.950 . S
H504 C501 0.950 . S
C505 C496 1.390 . S
C505 H498 0.950 . S
C505 C502 1.387 . S
C506 C507 1.387 . S
C506 H510 0.950 . S
C506 C515 1.390 . S
C507 C506 1.387 . S
C507 C509 1.387 . S
H508 C515 0.950 . S
C509 C507 1.387 . S
C509 C511 1.390 . S
C509 H513 0.950 . S
H510 C506 0.950 . S
C511 C509 1.390 . S
C511 C512 1.387 . S
C511 H514 0.950 . S
C512 C511 1.387 . S
C512 C515 1.387 . S
H513 C509 0.950 . S
H514 C511 0.950 . S
C515 C506 1.390 . S
C515 H508 0.950 . S
C515 C512 1.387 . S
C516 C517 1.387 . S
C516 H520 0.950 . S
C516 C525 1.390 . S
C517 C516 1.387 . S
C517 C519 1.387 . S
H518 C525 0.950 . S
C519 C517 1.387 . S
C519 C521 1.390 . S
C519 H523 0.950 . S
H520 C516 0.950 . S
C521 C519 1.390 . S
C521 C522 1.387 . S
C521 H524 0.950 . S
C522 C521 1.387 . S
C522 C525 1.387 . S
H523 C519 0.950 . S
H524 C521 0.950 . S
C525 C516 1.390 . S
C525 H518 0.950 . S
C525 C522 1.387 . S
C526 C527 1.387 . S
C526 H530 0.950 . S
C526 C535 1.390 . S
C527 C526 1.387 . S
C527 C529 1.387 . S
H528 C535 0.950 . S
C529 C527 1.387 . S
C529 C531 1.390 . S
C529 H533 0.950 . S
H530 C526 0.950 . S
C531 C529 1.390 . S
C531 C532 1.387 . S
C531 H534 0.950 . S
C532 C531 1.387 . S
C532 C535 1.387 . S
H533 C529 0.950 . S
H534 C531 0.950 . S
C535 C526 1.390 . S
C535 H528 0.950 . S
C535 C532 1.387 . S
C536 C537 1.387 . S
C536 H540 0.950 . S
C536 C545 1.390 . S
C537 C536 1.387 . S
C537 C539 1.387 . S
H538 C545 0.950 . S
C539 C537 1.387 . S
C539 C541 1.390 . S
C539 H543 0.950 . S
H540 C536 0.950 . S
C541 C539 1.390 . S
C541 C542 1.387 . S
C541 H544 0.950 . S
C542 C541 1.387 . S
C542 C545 1.387 . S
H543 C539 0.950 . S
H544 C541 0.950 . S
C545 C536 1.390 . S
C545 H538 0.950 . S
C545 C542 1.387 . S
C546 C547 1.387 . S
C546 H550 0.950 . S
C546 C555 1.390 . S
C547 C546 1.387 . S
C547 C549 1.387 . S
H548 C555 0.950 . S
C549 C547 1.387 . S
C549 C551 1.390 . S
C549 H553 0.950 . S
H550 C546 0.950 . S
C551 C549 1.390 . S
C551 C552 1.387 . S
C551 H554 0.950 . S
C552 C551 1.387 . S
C552 C555 1.387 . S
H553 C549 0.950 . S
H554 C551 0.950 . S
C555 C546 1.390 . S
C555 H548 0.950 . S
C555 C552 1.387 . S
C556 C557 1.387 . S
C556 H560 0.950 . S
C556 C565 1.390 . S
C557 C556 1.387 . S
C557 C559 1.387 . S
H558 C565 0.950 . S
C559 C557 1.387 . S
C559 C561 1.390 . S
C559 H563 0.950 . S
H560 C556 0.950 . S
C561 C559 1.390 . S
C561 C562 1.387 . S
C561 H564 0.950 . S
C562 C561 1.387 . S
C562 C565 1.387 . S
H563 C559 0.950 . S
H564 C561 0.950 . S
C565 C556 1.390 . S
C565 H558 0.950 . S
C565 C562 1.387 . S
C566 C567 1.387 . S
C566 H570 0.950 . S
C566 C575 1.390 . S
C567 C566 1.387 . S
C567 C569 1.387 . S
H568 C575 0.950 . S
C569 C567 1.387 . S
C569 C571 1.390 . S
C569 H573 0.950 . S
H570 C566 0.950 . S
C571 C569 1.390 . S
C571 C572 1.387 . S
C571 H574 0.950 . S
C572 C571 1.387 . S
C572 C575 1.387 . S
H573 C569 0.950 . S
H574 C571 0.950 . S
C575 C566 1.390 . S
C575 H568 0.950 . S
C575 C572 1.387 . S
C576 C577 1.387 . S
C576 H580 0.950 . S
C576 C585 1.390 1_545 S
C577 C576 1.387 . S
C577 C579 1.387 1_554 S
H578 C585 0.950 . S
C579 C577 1.387 1_556 S
C579 C581 1.390 1_545 S
C579 H583 0.950 . S
H580 C576 0.950 . S
C581 C579 1.390 1_565 S
C581 C582 1.387 . S
C581 H584 0.950 . S
C582 C581 1.387 . S
C582 C585 1.387 1_556 S
H583 C579 0.950 . S
H584 C581 0.950 . S
C585 C576 1.390 1_565 S
C585 H578 0.950 . S
C585 C582 1.387 1_554 S
C586 C587 1.387 . S
C586 H590 0.950 . S
C586 C595 1.390 . S
C587 C586 1.387 . S
C587 C589 1.387 1_556 S
H588 C595 0.950 . S
C589 C587 1.387 1_554 S
C589 C591 1.390 . S
C589 H593 0.950 . S
H590 C586 0.950 . S
C591 C589 1.390 . S
C591 C592 1.387 . S
C591 H594 0.950 . S
C592 C591 1.387 . S
C592 C595 1.387 1_554 S
H593 C589 0.950 . S
H594 C591 0.950 . S
C595 C586 1.390 . S
C595 H588 0.950 . S
C595 C592 1.387 1_556 S
C596 C597 1.387 . S
C596 H600 0.950 . S
C596 C605 1.390 . S
C597 C596 1.387 . S
C597 C599 1.387 . S
H598 C605 0.950 . S
C599 C597 1.387 . S
C599 C601 1.390 . S
C599 H603 0.950 . S
H600 C596 0.950 . S
C601 C599 1.390 . S
C601 C602 1.387 . S
C601 H604 0.950 . S
C602 C601 1.387 . S
C602 C605 1.387 . S
H603 C599 0.950 . S
H604 C601 0.950 . S
C605 C596 1.390 . S
C605 H598 0.950 . S
C605 C602 1.387 . S
C606 C607 1.387 . S
C606 H610 0.950 . S
C606 C615 1.390 1_565 S
C607 C606 1.387 . S
C607 C609 1.387 . S
H608 C615 0.950 . S
C609 C607 1.387 . S
C609 C611 1.390 1_565 S
C609 H613 0.950 . S
H610 C606 0.950 . S
C611 C609 1.390 1_545 S
C611 C612 1.387 . S
C611 H614 0.950 . S
C612 C611 1.387 . S
C612 C615 1.387 . S
H613 C609 0.950 . S
H614 C611 0.950 . S
C615 C606 1.390 1_545 S
C615 H608 0.950 . S
C615 C612 1.387 . S
C616 C617 1.387 1_556 S
C616 H620 0.950 . S
C616 C625 1.390 . S
C617 C616 1.387 1_554 S
C617 C619 1.387 . S
H618 C625 0.950 . S
C619 C617 1.387 . S
C619 C621 1.390 . S
C619 H623 0.950 . S
H620 C616 0.950 . S
C621 C619 1.390 . S
C621 C622 1.387 1_554 S
C621 H624 0.950 . S
C622 C621 1.387 1_556 S
C622 C625 1.387 . S
H623 C619 0.950 . S
H624 C621 0.950 . S
C625 C616 1.390 . S
C625 H618 0.950 . S
C625 C622 1.387 . S
C626 C627 1.387 . S
C626 H630 0.950 . S
C626 C635 1.390 . S
C627 C626 1.387 . S
C627 C629 1.387 . S
H628 C635 0.950 . S
C629 C627 1.387 . S
C629 C631 1.390 . S
C629 H633 0.950 . S
H630 C626 0.950 . S
C631 C629 1.390 . S
C631 C632 1.387 . S
C631 H634 0.950 . S
C632 C631 1.387 . S
C632 C635 1.387 . S
H633 C629 0.950 . S
H634 C631 0.950 . S
C635 C626 1.390 . S
C635 H628 0.950 . S
C635 C632 1.387 . S
C636 C637 1.387 . S
C636 H640 0.950 . S
C636 C645 1.390 1_565 S
C637 C636 1.387 . S
C637 C639 1.387 . S
H638 C645 0.950 . S
C639 C637 1.387 . S
C639 C641 1.390 1_565 S
C639 H643 0.950 . S
H640 C636 0.950 . S
C641 C639 1.390 1_545 S
C641 C642 1.387 . S
C641 H644 0.950 . S
C642 C641 1.387 . S
C642 C645 1.387 . S
H643 C639 0.950 . S
H644 C641 0.950 . S
C645 C636 1.390 1_545 S
C645 H638 0.950 . S
C645 C642 1.387 . S
C646 C647 1.387 . S
C646 H650 0.950 . S
C646 C655 1.390 . S
C647 C646 1.387 . S
C647 C649 1.387 . S
H648 C655 0.950 . S
C649 C647 1.387 . S
C649 C651 1.390 . S
C649 H653 0.950 . S
H650 C646 0.950 . S
C651 C649 1.390 . S
C651 C652 1.387 . S
C651 H654 0.950 . S
C652 C651 1.387 . S
C652 C655 1.387 . S
H653 C649 0.950 . S
H654 C651 0.950 . S
C655 C646 1.390 . S
C655 H648 0.950 . S
C655 C652 1.387 . S
C656 C657 1.387 . S
C656 H660 0.950 . S
C656 C665 1.390 . S
C657 C656 1.387 . S
C657 C659 1.387 . S
H658 C665 0.950 . S
C659 C657 1.387 . S
C659 C661 1.390 . S
C659 H663 0.950 . S
H660 C656 0.950 . S
C661 C659 1.390 . S
C661 C662 1.387 . S
C661 H664 0.950 . S
C662 C661 1.387 . S
C662 C665 1.387 . S
H663 C659 0.950 . S
H664 C661 0.950 . S
C665 C656 1.390 . S
C665 H658 0.950 . S
C665 C662 1.387 . S
C666 C667 1.387 . S
C666 H670 0.950 . S
C666 C675 1.390 . S
C667 C666 1.387 . S
C667 C669 1.387 . S
H668 C675 0.950 . S
C669 C667 1.387 . S
C669 C671 1.390 . S
C669 H673 0.950 . S
H670 C666 0.950 . S
C671 C669 1.390 . S
C671 C672 1.387 . S
C671 H674 0.950 . S
C672 C671 1.387 . S
C672 C675 1.387 . S
H673 C669 0.950 . S
H674 C671 0.950 . S
C675 C666 1.390 . S
C675 H668 0.950 . S
C675 C672 1.387 . S
C676 C677 1.387 . S
C676 H680 0.950 . S
C676 C685 1.390 . S
C677 C676 1.387 . S
C677 C679 1.387 . S
H678 C685 0.950 . S
C679 C677 1.387 . S
C679 C681 1.390 . S
C679 H683 0.950 . S
H680 C676 0.950 . S
C681 C679 1.390 . S
C681 C682 1.387 . S
C681 H684 0.950 . S
C682 C681 1.387 . S
C682 C685 1.387 . S
H683 C679 0.950 . S
H684 C681 0.950 . S
C685 C676 1.390 . S
C685 H678 0.950 . S
C685 C682 1.387 . S
C686 C687 1.387 . S
C686 H690 0.950 . S
C686 C695 1.390 . S
C687 C686 1.387 . S
C687 C689 1.387 . S
H688 C695 0.950 . S
C689 C687 1.387 . S
C689 C691 1.390 . S
C689 H693 0.950 . S
H690 C686 0.950 . S
C691 C689 1.390 . S
C691 C692 1.387 . S
C691 H694 0.950 . S
C692 C691 1.387 . S
C692 C695 1.387 . S
H693 C689 0.950 . S
H694 C691 0.950 . S
C695 C686 1.390 . S
C695 H688 0.950 . S
C695 C692 1.387 . S
C696 C697 1.387 . S
C696 H700 0.950 . S
C696 C705 1.390 1_465 S
C697 C696 1.387 . S
C697 C699 1.387 . S
H698 C705 0.950 . S
C699 C697 1.387 . S
C699 C701 1.390 1_465 S
C699 H703 0.950 . S
H700 C696 0.950 . S
C701 C699 1.390 1_645 S
C701 C702 1.387 . S
C701 H704 0.950 . S
C702 C701 1.387 . S
C702 C705 1.387 . S
H703 C699 0.950 . S
H704 C701 0.950 . S
C705 C696 1.390 1_645 S
C705 H698 0.950 . S
C705 C702 1.387 . S
C706 C707 1.387 1_455 S
C706 H710 0.950 . S
C706 C715 1.390 . S
C707 C706 1.387 1_655 S
C707 C709 1.387 . S
H708 C715 0.950 . S
C709 C707 1.387 . S
C709 C711 1.390 . S
C709 H713 0.950 . S
H710 C706 0.950 . S
C711 C709 1.390 . S
C711 C712 1.387 1_655 S
C711 H714 0.950 . S
C712 C711 1.387 1_455 S
C712 C715 1.387 . S
H713 C709 0.950 . S
H714 C711 0.950 . S
C715 C706 1.390 . S
C715 H708 0.950 . S
C715 C712 1.387 . S
C716 C717 1.387 . S
C716 H720 0.950 . S
C716 C725 1.390 1_455 S
C717 C716 1.387 . S
C717 C719 1.387 . S
H718 C725 0.950 . S
C719 C717 1.387 . S
C719 C721 1.390 1_455 S
C719 H723 0.950 . S
H720 C716 0.950 . S
C721 C719 1.390 1_655 S
C721 C722 1.387 . S
C721 H724 0.950 . S
C722 C721 1.387 . S
C722 C725 1.387 . S
H723 C719 0.950 . S
H724 C721 0.950 . S
C725 C716 1.390 1_655 S
C725 H718 0.950 . S
C725 C722 1.387 . S
C726 C727 1.387 1_554 S
C726 H730 0.950 . S
C726 C735 1.390 1_455 S
C727 C726 1.387 1_556 S
C727 C729 1.387 . S
H728 C735 0.950 . S
C729 C727 1.387 . S
C729 C731 1.390 1_455 S
C729 H733 0.950 . S
H730 C726 0.950 . S
C731 C729 1.390 1_655 S
C731 C732 1.387 1_556 S
C731 H734 0.950 . S
C732 C731 1.387 1_554 S
C732 C735 1.387 . S
H733 C729 0.950 . S
H734 C731 0.950 . S
C735 C726 1.390 1_655 S
C735 H728 0.950 . S
C735 C732 1.387 . S
C736 C737 1.387 . S
C736 H740 0.950 . S
C736 C745 1.390 . S
C737 C736 1.387 . S
C737 C739 1.387 . S
H738 C745 0.950 . S
C739 C737 1.387 . S
C739 C741 1.390 . S
C739 H743 0.950 . S
H740 C736 0.950 . S
C741 C739 1.390 . S
C741 C742 1.387 . S
C741 H744 0.950 . S
C742 C741 1.387 . S
C742 C745 1.387 . S
H743 C739 0.950 . S
H744 C741 0.950 . S
C745 C736 1.390 . S
C745 H738 0.950 . S
C745 C742 1.387 . S
C746 C747 1.387 . S
C746 H750 0.950 . S
C746 C755 1.390 . S
C747 C746 1.387 . S
C747 C749 1.387 . S
H748 C755 0.950 . S
C749 C747 1.387 . S
C749 C751 1.390 . S
C749 H753 0.950 . S
H750 C746 0.950 . S
C751 C749 1.390 . S
C751 C752 1.387 . S
C751 H754 0.950 . S
C752 C751 1.387 . S
C752 C755 1.387 . S
H753 C749 0.950 . S
H754 C751 0.950 . S
C755 C746 1.390 . S
C755 H748 0.950 . S
C755 C752 1.387 . S
C756 C757 1.387 . S
C756 H760 0.950 . S
C756 C765 1.390 . S
C757 C756 1.387 . S
C757 C759 1.387 . S
H758 C765 0.950 . S
C759 C757 1.387 . S
C759 C761 1.390 . S
C759 H763 0.950 . S
H760 C756 0.950 . S
C761 C759 1.390 . S
C761 C762 1.387 . S
C761 H764 0.950 . S
C762 C761 1.387 . S
C762 C765 1.387 . S
H763 C759 0.950 . S
H764 C761 0.950 . S
C765 C756 1.390 . S
C765 H758 0.950 . S
C765 C762 1.387 . S
C766 C767 1.387 . S
C766 H770 0.950 . S
C766 C775 1.390 . S
C767 C766 1.387 . S
C767 C769 1.387 . S
H768 C775 0.950 . S
C769 C767 1.387 . S
C769 C771 1.390 . S
C769 H773 0.950 . S
H770 C766 0.950 . S
C771 C769 1.390 . S
C771 C772 1.387 . S
C771 H774 0.950 . S
C772 C771 1.387 . S
C772 C775 1.387 . S
H773 C769 0.950 . S
H774 C771 0.950 . S
C775 C766 1.390 . S
C775 H768 0.950 . S
C775 C772 1.387 . S
C776 C777 1.387 . S
C776 H780 0.950 . S
C776 C785 1.390 . S
C777 C776 1.387 . S
C777 C779 1.387 . S
H778 C785 0.950 . S
C779 C777 1.387 . S
C779 C781 1.390 . S
C779 H783 0.950 . S
H780 C776 0.950 . S
C781 C779 1.390 . S
C781 C782 1.387 . S
C781 H784 0.950 . S
C782 C781 1.387 . S
C782 C785 1.387 . S
H783 C779 0.950 . S
H784 C781 0.950 . S
C785 C776 1.390 . S
C785 H778 0.950 . S
C785 C782 1.387 . S
C786 C787 1.387 . S
C786 H790 0.950 . S
C786 C795 1.390 . S
C787 C786 1.387 . S
C787 C789 1.387 . S
H788 C795 0.950 . S
C789 C787 1.387 . S
C789 C791 1.390 . S
C789 H793 0.950 . S
H790 C786 0.950 . S
C791 C789 1.390 . S
C791 C792 1.387 . S
C791 H794 0.950 . S
C792 C791 1.387 . S
C792 C795 1.387 . S
H793 C789 0.950 . S
H794 C791 0.950 . S
C795 C786 1.390 . S
C795 H788 0.950 . S
C795 C792 1.387 . S
C796 C797 1.387 . S
C796 H800 0.950 . S
C796 C805 1.390 . S
C797 C796 1.387 . S
C797 C799 1.387 . S
H798 C805 0.950 . S
C799 C797 1.387 . S
C799 C801 1.390 . S
C799 H803 0.950 . S
H800 C796 0.950 . S
C801 C799 1.390 . S
C801 C802 1.387 . S
C801 H804 0.950 . S
C802 C801 1.387 . S
C802 C805 1.387 . S
H803 C799 0.950 . S
H804 C801 0.950 . S
C805 C796 1.390 . S
C805 H798 0.950 . S
C805 C802 1.387 . S
C806 C807 1.387 . S
C806 H810 0.950 . S
C806 C815 1.390 . S
C807 C806 1.387 . S
C807 C809 1.387 . S
H808 C815 0.950 . S
C809 C807 1.387 . S
C809 C811 1.390 . S
C809 H813 0.950 . S
H810 C806 0.950 . S
C811 C809 1.390 . S
C811 C812 1.387 . S
C811 H814 0.950 . S
C812 C811 1.387 . S
C812 C815 1.387 . S
H813 C809 0.950 . S
H814 C811 0.950 . S
C815 C806 1.390 . S
C815 H808 0.950 . S
C815 C812 1.387 . S
C816 C817 1.387 . S
C816 H820 0.950 . S
C816 C825 1.390 . S
C817 C816 1.387 . S
C817 C819 1.387 . S
H818 C825 0.950 . S
C819 C817 1.387 . S
C819 C821 1.390 . S
C819 H823 0.950 . S
H820 C816 0.950 . S
C821 C819 1.390 . S
C821 C822 1.387 . S
C821 H824 0.950 . S
C822 C821 1.387 . S
C822 C825 1.387 . S
H823 C819 0.950 . S
H824 C821 0.950 . S
C825 C816 1.390 . S
C825 H818 0.950 . S
C825 C822 1.387 . S
C826 C827 1.387 . S
C826 H830 0.950 . S
C826 C835 1.390 . S
C827 C826 1.387 . S
C827 C829 1.387 . S
H828 C835 0.950 . S
C829 C827 1.387 . S
C829 C831 1.390 . S
C829 H833 0.950 . S
H830 C826 0.950 . S
C831 C829 1.390 . S
C831 C832 1.387 . S
C831 H834 0.950 . S
C832 C831 1.387 . S
C832 C835 1.387 . S
H833 C829 0.950 . S
H834 C831 0.950 . S
C835 C826 1.390 . S
C835 H828 0.950 . S
C835 C832 1.387 . S
C836 C837 1.387 . S
C836 H840 0.950 . S
C836 C845 1.390 . S
C837 C836 1.387 . S
C837 C839 1.387 . S
H838 C845 0.950 . S
C839 C837 1.387 . S
C839 C841 1.390 . S
C839 H843 0.950 . S
H840 C836 0.950 . S
C841 C839 1.390 . S
C841 C842 1.387 . S
C841 H844 0.950 . S
C842 C841 1.387 . S
C842 C845 1.387 . S
H843 C839 0.950 . S
H844 C841 0.950 . S
C845 C836 1.390 . S
C845 H838 0.950 . S
C845 C842 1.387 . S
C846 C847 1.387 . S
C846 H850 0.950 . S
C846 C855 1.390 . S
C847 C846 1.387 . S
C847 C849 1.387 . S
H848 C855 0.950 . S
C849 C847 1.387 . S
C849 C851 1.390 . S
C849 H853 0.950 . S
H850 C846 0.950 . S
C851 C849 1.390 . S
C851 C852 1.387 . S
C851 H854 0.950 . S
C852 C851 1.387 . S
C852 C855 1.387 . S
H853 C849 0.950 . S
H854 C851 0.950 . S
C855 C846 1.390 . S
C855 H848 0.950 . S
C855 C852 1.387 . S
C856 C857 1.387 . S
C856 H860 0.950 . S
C856 C865 1.390 . S
C857 C856 1.387 . S
C857 C859 1.387 . S
H858 C865 0.950 . S
C859 C857 1.387 . S
C859 C861 1.390 . S
C859 H863 0.950 . S
H860 C856 0.950 . S
C861 C859 1.390 . S
C861 C862 1.387 . S
C861 H864 0.950 . S
C862 C861 1.387 . S
C862 C865 1.387 . S
H863 C859 0.950 . S
H864 C861 0.950 . S
C865 C856 1.390 . S
C865 H858 0.950 . S
C865 C862 1.387 . S
C866 C867 1.387 . S
C866 H870 0.950 . S
C866 C875 1.390 . S
C867 C866 1.387 . S
C867 C869 1.387 . S
H868 C875 0.950 . S
C869 C867 1.387 . S
C869 C871 1.390 . S
C869 H873 0.950 . S
H870 C866 0.950 . S
C871 C869 1.390 . S
C871 C872 1.387 . S
C871 H874 0.950 . S
C872 C871 1.387 . S
C872 C875 1.387 . S
H873 C869 0.950 . S
H874 C871 0.950 . S
C875 C866 1.390 . S
C875 H868 0.950 . S
C875 C872 1.387 . S
C876 C877 1.387 . S
C876 H880 0.950 . S
C876 C885 1.390 . S
C877 C876 1.387 . S
C877 C879 1.387 . S
H878 C885 0.950 . S
C879 C877 1.387 . S
C879 C881 1.390 . S
C879 H883 0.950 . S
H880 C876 0.950 . S
C881 C879 1.390 . S
C881 C882 1.387 . S
C881 H884 0.950 . S
C882 C881 1.387 . S
C882 C885 1.387 . S
H883 C879 0.950 . S
H884 C881 0.950 . S
C885 C876 1.390 . S
C885 H878 0.950 . S
C885 C882 1.387 . S
C886 C887 1.387 . S
C886 H890 0.950 . S
C886 C895 1.390 . S
C887 C886 1.387 . S
C887 C889 1.387 . S
H888 C895 0.950 . S
C889 C887 1.387 . S
C889 C891 1.390 . S
C889 H893 0.950 . S
H890 C886 0.950 . S
C891 C889 1.390 . S
C891 C892 1.387 . S
C891 H894 0.950 . S
C892 C891 1.387 . S
C892 C895 1.387 . S
H893 C889 0.950 . S
H894 C891 0.950 . S
C895 C886 1.390 . S
C895 H888 0.950 . S
C895 C892 1.387 . S
C896 C897 1.387 1_556 S
C896 H900 0.950 . S
C896 C905 1.390 . S
C897 C896 1.387 1_554 S
C897 C899 1.387 . S
H898 C905 0.950 . S
C899 C897 1.387 . S
C899 C901 1.390 . S
C899 H903 0.950 . S
H900 C896 0.950 . S
C901 C899 1.390 . S
C901 C902 1.387 . S
C901 H904 0.950 . S
C902 C901 1.387 . S
C902 C905 1.387 1_554 S
H903 C899 0.950 . S
H904 C901 0.950 . S
C905 C896 1.390 . S
C905 H898 0.950 . S
C905 C902 1.387 1_556 S
C906 C907 1.387 . S
C906 H910 0.950 . S
C906 C915 1.390 . S
C907 C906 1.387 . S
C907 C909 1.387 . S
H908 C915 0.950 . S
C909 C907 1.387 . S
C909 C911 1.390 . S
C909 H913 0.950 . S
H910 C906 0.950 . S
C911 C909 1.390 . S
C911 C912 1.387 . S
C911 H914 0.950 . S
C912 C911 1.387 . S
C912 C915 1.387 . S
H913 C909 0.950 . S
H914 C911 0.950 . S
C915 C906 1.390 . S
C915 H908 0.950 . S
C915 C912 1.387 . S
C916 C917 1.387 . S
C916 H920 0.950 . S
C916 C925 1.390 . S
C917 C916 1.387 . S
C917 C919 1.387 1_556 S
H918 C925 0.950 . S
C919 C917 1.387 1_554 S
C919 C921 1.390 . S
C919 H923 0.950 . S
H920 C916 0.950 . S
C921 C919 1.390 . S
C921 C922 1.387 1_554 S
C921 H924 0.950 . S
C922 C921 1.387 1_556 S
C922 C925 1.387 . S
H923 C919 0.950 . S
H924 C921 0.950 . S
C925 C916 1.390 . S
C925 H918 0.950 . S
C925 C922 1.387 . S
C926 C927 1.387 . S
C926 H930 0.950 . S
C926 C935 1.390 . S
C927 C926 1.387 . S
C927 C929 1.387 . S
H928 C935 0.950 . S
C929 C927 1.387 . S
C929 C931 1.390 . S
C929 H933 0.950 . S
H930 C926 0.950 . S
C931 C929 1.390 . S
C931 C932 1.387 . S
C931 H934 0.950 . S
C932 C931 1.387 . S
C932 C935 1.387 . S
H933 C929 0.950 . S
H934 C931 0.950 . S
C935 C926 1.390 . S
C935 H928 0.950 . S
C935 C932 1.387 . S
C936 C937 1.387 . S
C936 H940 0.950 . S
C936 C945 1.390 . S
C937 C936 1.387 . S
C937 C939 1.387 . S
H938 C945 0.950 . S
C939 C937 1.387 . S
C939 C941 1.390 . S
C939 H943 0.950 . S
H940 C936 0.950 . S
C941 C939 1.390 . S
C941 C942 1.387 . S
C941 H944 0.950 . S
C942 C941 1.387 . S
C942 C945 1.387 . S
H943 C939 0.950 . S
H944 C941 0.950 . S
C945 C936 1.390 . S
C945 H938 0.950 . S
C945 C942 1.387 . S
C946 C947 1.387 . S
C946 H950 0.950 . S
C946 C955 1.390 . S
C947 C946 1.387 . S
C947 C949 1.387 . S
H948 C955 0.950 . S
C949 C947 1.387 . S
C949 C951 1.390 . S
C949 H953 0.950 . S
H950 C946 0.950 . S
C951 C949 1.390 . S
C951 C952 1.387 . S
C951 H954 0.950 . S
C952 C951 1.387 . S
C952 C955 1.387 . S
H953 C949 0.950 . S
H954 C951 0.950 . S
C955 C946 1.390 . S
C955 H948 0.950 . S
C955 C952 1.387 . S
C956 C957 1.387 . S
C956 H960 0.950 . S
C956 C965 1.390 . S
C957 C956 1.387 . S
C957 C959 1.387 . S
H958 C965 0.950 . S
C959 C957 1.387 . S
C959 C961 1.390 . S
C959 H963 0.950 . S
H960 C956 0.950 . S
C961 C959 1.390 . S
C961 C962 1.387 . S
C961 H964 0.950 . S
C962 C961 1.387 . S
C962 C965 1.387 . S
H963 C959 0.950 . S
H964 C961 0.950 . S
C965 C956 1.390 . S
C965 H958 0.950 . S
C965 C962 1.387 . S
C966 C967 1.387 . S
C966 H970 0.950 . S
C966 C975 1.390 . S
C967 C966 1.387 . S
C967 C969 1.387 . S
H968 C975 0.950 . S
C969 C967 1.387 . S
C969 C971 1.390 . S
C969 H973 0.950 . S
H970 C966 0.950 . S
C971 C969 1.390 . S
C971 C972 1.387 . S
C971 H974 0.950 . S
C972 C971 1.387 . S
C972 C975 1.387 . S
H973 C969 0.950 . S
H974 C971 0.950 . S
C975 C966 1.390 . S
C975 H968 0.950 . S
C975 C972 1.387 . S
C976 C977 1.387 . S
C976 H980 0.950 . S
C976 C985 1.390 . S
C977 C976 1.387 . S
C977 C979 1.387 . S
H978 C985 0.950 . S
C979 C977 1.387 . S
C979 C981 1.390 . S
C979 H983 0.950 . S
H980 C976 0.950 . S
C981 C979 1.390 . S
C981 C982 1.387 . S
C981 H984 0.950 . S
C982 C981 1.387 . S
C982 C985 1.387 . S
H983 C979 0.950 . S
H984 C981 0.950 . S
C985 C976 1.390 . S
C985 H978 0.950 . S
C985 C982 1.387 . S
C986 C987 1.387 . S
C986 H990 0.950 . S
C986 C995 1.390 . S
C987 C986 1.387 . S
C987 C989 1.387 . S
H988 C995 0.950 . S
C989 C987 1.387 . S
C989 C991 1.390 . S
C989 H993 0.950 . S
H990 C986 0.950 . S
C991 C989 1.390 . S
C991 C992 1.387 . S
C991 H994 0.950 . S
C992 C991 1.387 . S
C992 C995 1.387 . S
H993 C989 0.950 . S
H994 C991 0.950 . S
C995 C986 1.390 . S
C995 H988 0.950 . S
C995 C992 1.387 . S
C996 C997 1.387 . S
C996 H1000 0.950 . S
C996 C1005 1.390 . S
C997 C996 1.387 . S
C997 C999 1.387 . S
H998 C1005 0.950 . S
C999 C997 1.387 . S
C999 C1001 1.390 . S
C999 H1003 0.950 . S
H1000 C996 0.950 . S
C1001 C999 1.390 . S
C1001 C1002 1.387 . S
C1001 H1004 0.950 . S
C1002 C1001 1.387 . S
C1002 C1005 1.387 . S
H1003 C999 0.950 . S
H1004 C1001 0.950 . S
C1005 C996 1.390 . S
C1005 H998 0.950 . S
C1005 C1002 1.387 . S
C1006 C1007 1.387 . S
C1006 H1010 0.950 . S
C1006 C1015 1.390 . S
C1007 C1006 1.387 . S
C1007 C1009 1.387 . S
H1008 C1015 0.950 . S
C1009 C1007 1.387 . S
C1009 C1011 1.390 . S
C1009 H1013 0.950 . S
H1010 C1006 0.950 . S
C1011 C1009 1.390 . S
C1011 C1012 1.387 . S
C1011 H1014 0.950 . S
C1012 C1011 1.387 . S
C1012 C1015 1.387 . S
H1013 C1009 0.950 . S
H1014 C1011 0.950 . S
C1015 C1006 1.390 . S
C1015 H1008 0.950 . S
C1015 C1012 1.387 . S
C1016 C1017 1.387 . S
C1016 H1020 0.950 . S
C1016 C1025 1.390 . S
C1017 C1016 1.387 . S
C1017 C1019 1.387 1_554 S
H1018 C1025 0.950 . S
C1019 C1017 1.387 1_556 S
C1019 C1021 1.390 . S
C1019 H1023 0.950 . S
H1020 C1016 0.950 . S
C1021 C1019 1.390 . S
C1021 C1022 1.387 1_556 S
C1021 H1024 0.950 . S
C1022 C1021 1.387 1_554 S
C1022 C1025 1.387 . S
H1023 C1019 0.950 . S
H1024 C1021 0.950 . S
C1025 C1016 1.390 . S
C1025 H1018 0.950 . S
C1025 C1022 1.387 . S
C1026 C1027 1.387 . S
C1026 H1030 0.950 . S
C1026 C1035 1.390 . S
C1027 C1026 1.387 . S
C1027 C1029 1.387 . S
H1028 C1035 0.950 . S
C1029 C1027 1.387 . S
C1029 C1031 1.390 . S
C1029 H1033 0.950 . S
H1030 C1026 0.950 . S
C1031 C1029 1.390 . S
C1031 C1032 1.387 . S
C1031 H1034 0.950 . S
C1032 C1031 1.387 . S
C1032 C1035 1.387 . S
H1033 C1029 0.950 . S
H1034 C1031 0.950 . S
C1035 C1026 1.390 . S
C1035 H1028 0.950 . S
C1035 C1032 1.387 . S
C1036 C1037 1.387 . S
C1036 H1040 0.950 . S
C1036 C1045 1.390 . S
C1037 C1036 1.387 . S
C1037 C1039 1.387 1_556 S
H1038 C1045 0.950 . S
C1039 C1037 1.387 1_554 S
C1039 C1041 1.390 . S
C1039 H1043 0.950 . S
H1040 C1036 0.950 . S
C1041 C1039 1.390 . S
C1041 C1042 1.387 1_554 S
C1041 H1044 0.950 . S
C1042 C1041 1.387 1_556 S
C1042 C1045 1.387 . S
H1043 C1039 0.950 . S
H1044 C1041 0.950 . S
C1045 C1036 1.390 . S
C1045 H1038 0.950 . S
C1045 C1042 1.387 . S
C1046 C1047 1.387 . S
C1046 H1050 0.950 . S
C1046 C1055 1.390 . S
C1047 C1046 1.387 . S
C1047 C1049 1.387 . S
H1048 C1055 0.950 . S
C1049 C1047 1.387 . S
C1049 C1051 1.390 . S
C1049 H1053 0.950 . S
H1050 C1046 0.950 . S
C1051 C1049 1.390 . S
C1051 C1052 1.387 . S
C1051 H1054 0.950 . S
C1052 C1051 1.387 . S
C1052 C1055 1.387 . S
H1053 C1049 0.950 . S
H1054 C1051 0.950 . S
C1055 C1046 1.390 . S
C1055 H1048 0.950 . S
C1055 C1052 1.387 . S
C417 C3 1.625 . S
C422 C44 1.619 . S
C427 C31 1.618 . S
C432 C16 1.618 . S
C437 C94 1.619 . S
C442 C57 1.618 . S
C447 C81 1.622 . S
C452 C68 1.621 . S
C457 C107 1.640 . S
C462 C146 1.641 . S
C467 C120 1.640 . S
C472 C133 1.641 . S
C477 C200 1.641 . S
C482 C161 1.640 . S
C487 C185 1.641 . S
C492 C172 1.640 . S
C497 C211 1.640 . S
C502 C252 1.641 . S
C507 C224 1.636 . S
C512 C239 1.637 . S
C517 C265 1.636 . S
C522 C302 1.637 . S
C527 C278 1.640 . S
C532 C289 1.641 . S
C537 C317 1.622 . S
C542 C354 1.615 . S
C547 C341 1.622 . S
C552 C328 1.622 . S
C557 C406 1.622 . S
C562 C367 1.622 . S
C567 C393 1.619 . S
C572 C382 1.618 . S
C577 C4 1.362 . S
C582 C62 1.362 . S
C587 C387 1.359 . S
C592 C17 1.359 . S
C597 C36 1.369 . S
C602 C186 1.369 . S
C607 C303 1.369 . S
C612 C49 1.369 . S
C617 C329 1.359 . S
C622 C69 1.359 . S
C627 C82 1.366 . S
C632 C134 1.366 . S
C637 C95 1.369 . S
C642 C257 1.369 . S
C647 C166 1.362 . S
C652 C108 1.362 . S
C657 C283 1.365 . S
C662 C121 1.365 . S
C667 C147 1.369 . S
C672 C407 1.369 . S
C677 C173 1.362 . S
C682 C225 1.362 . S
C687 C205 1.366 . S
C692 C355 1.367 . S
C697 C270 1.362 . S
C702 C212 1.362 . S
C707 C244 1.367 . S
C712 C394 1.368 . S
C717 C290 1.369 . S
C722 C342 1.369 . S
C727 C368 1.362 . S
C732 C322 1.362 . S
C737 C10 1.536 . S
C742 C251 1.539 . S
C747 C23 1.537 . S
C752 C238 1.539 . S
C757 C231 1.536 . S
C762 C30 1.536 . S
C767 C218 1.532 . S
C772 C43 1.532 . S
C777 C56 1.540 . S
C782 C309 1.544 . S
C787 C75 1.540 . S
C792 C296 1.543 . S
C797 C88 1.532 . S
C802 C277 1.531 . S
C807 C264 1.536 . S
C812 C101 1.536 . S
C817 C114 1.536 . S
C822 C361 1.536 . S
C827 C348 1.536 . S
C832 C127 1.536 . S
C837 C335 1.536 . S
C842 C140 1.539 . S
C847 C153 1.536 . S
C852 C316 1.539 . S
C857 C160 1.536 . S
C862 C413 1.536 . S
C867 C179 1.536 . S
C872 C400 1.536 . S
C877 C381 1.540 . S
C882 C192 1.543 . S
C887 C199 1.540 . S
C892 C374 1.544 . S
C897 C18 1.452 . S
C902 C5 1.452 . S
C907 C29 1.448 . S
C912 C42 1.448 . S
C917 C70 1.452 . S
C922 C55 1.452 . S
C927 C83 1.446 . S
C932 C96 1.446 . S
C937 C122 1.448 . S
C942 C109 1.448 . S
C947 C135 1.444 . S
C952 C148 1.444 . S
C957 C159 1.446 . S
C962 C174 1.446 . S
C967 C187 1.444 . S
C972 C198 1.444 . S
C977 C213 1.446 . S
C982 C226 1.446 . S
C987 C250 1.447 . S
C992 C237 1.447 . S
C997 C263 1.446 . S
C1002 C276 1.446 . S
C1007 C304 1.444 . S
C1012 C291 1.444 . S
C1017 C330 1.450 . S
C1022 C315 1.450 . S
C1027 C343 1.448 . S
C1032 C356 1.448 . S
C1037 C369 1.452 . S
C1042 C380 1.452 . S
C1047 C408 1.448 . S
C1052 C395 1.448 . S
