# Generated by pormake.
# Topology noo, (5)-cn, num edge types: 1
# Building blocks:
#     Node 0, Type 0, BuildingBlock: XOMCOT_clean_sbu_1, # of connection points: 5
#     Node 1, Type 0, BuildingBlock: XOMCOT_clean_sbu_1, # of connection points: 5
#     Node 2, Type 0, BuildingBlock: XOMCOT_clean_sbu_1, # of connection points: 5
#     Node 3, Type 0, BuildingBlock: XOMCOT_clean_sbu_1, # of connection points: 5
#     Node 4, Type 0, BuildingBlock: XOMCOT_clean_sbu_1, # of connection points: 5
#     Node 5, Type 0, BuildingBlock: XOMCOT_clean_sbu_1, # of connection points: 5
#     Node 6, Type 0, BuildingBlock: XOMCOT_clean_sbu_1, # of connection points: 5
#     Node 7, Type 0, BuildingBlock: XOMCOT_clean_sbu_1, # of connection points: 5
#     Edge 8, Type (0, 0), BuildingBlock: KIFKEQ_clean_linker_1, # of connection points: 2
#     Edge 9, Type (0, 0), BuildingBlock: KIFKEQ_clean_linker_1, # of connection points: 2
#     Edge 10, Type (0, 0), BuildingBlock: KIFKEQ_clean_linker_1, # of connection points: 2
#     Edge 11, Type (0, 0), BuildingBlock: KIFKEQ_clean_linker_1, # of connection points: 2
#     Edge 12, Type (0, 0), BuildingBlock: KIFKEQ_clean_linker_1, # of connection points: 2
#     Edge 13, Type (0, 0), BuildingBlock: KIFKEQ_clean_linker_1, # of connection points: 2
#     Edge 14, Type (0, 0), BuildingBlock: KIFKEQ_clean_linker_1, # of connection points: 2
#     Edge 15, Type (0, 0), BuildingBlock: KIFKEQ_clean_linker_1, # of connection points: 2
#     Edge 16, Type (0, 0), BuildingBlock: KIFKEQ_clean_linker_1, # of connection points: 2
#     Edge 17, Type (0, 0), BuildingBlock: KIFKEQ_clean_linker_1, # of connection points: 2
#     Edge 18, Type (0, 0), BuildingBlock: KIFKEQ_clean_linker_1, # of connection points: 2
#     Edge 19, Type (0, 0), BuildingBlock: KIFKEQ_clean_linker_1, # of connection points: 2
#     Edge 20, Type (0, 0), BuildingBlock: KIFKEQ_clean_linker_1, # of connection points: 2
#     Edge 21, Type (0, 0), BuildingBlock: KIFKEQ_clean_linker_1, # of connection points: 2
#     Edge 22, Type (0, 0), BuildingBlock: KIFKEQ_clean_linker_1, # of connection points: 2
#     Edge 23, Type (0, 0), BuildingBlock: KIFKEQ_clean_linker_1, # of connection points: 2
#     Edge 24, Type (0, 0), BuildingBlock: KIFKEQ_clean_linker_1, # of connection points: 2
#     Edge 25, Type (0, 0), BuildingBlock: KIFKEQ_clean_linker_1, # of connection points: 2
#     Edge 26, Type (0, 0), BuildingBlock: KIFKEQ_clean_linker_1, # of connection points: 2
#     Edge 27, Type (0, 0), BuildingBlock: KIFKEQ_clean_linker_1, # of connection points: 2
# Relax obj value: 0.064
# Max RMSD: 0.100
# Mean RMSD: 0.100
data_MOF--net-noo--node1-XOMCOT_clean_sbu_1--edge1-KIFKEQ_clean_linker_1
_symmetry_space_group_name_H-M    P1
_symmetry_Int_Tables_number       1
_symmetry_cell_setting            triclinic
loop_
_symmetry_equiv_pos_as_xyz
'x, y, z'
_cell_length_a     42.027889
_cell_length_b     42.066322
_cell_length_c     26.384163
_cell_angle_alpha  89.941865
_cell_angle_beta   89.961051
_cell_angle_gamma 89.879047
loop_
_atom_site_label
_atom_site_type_symbol
_atom_site_fract_x
_atom_site_fract_y
_atom_site_fract_z
_atom_type_partial_charge
C0 C 0.43685 0.26436 0.98918 0.0
C1 C 0.42134 0.29309 0.9868 0.0
N2 N 0.3967 0.29251 1.0196 0.0
N3 N 0.42227 0.24567 1.02352 0.0
C4 C 0.39764 0.26327 0.04097 0.0
H5 H 0.45823 0.25793 0.96875 0.0
Co6 Co 0.43663 0.20536 0.04277 0.0
C7 C 0.41295 0.21183 0.15203 0.0
O8 O 0.44034 0.22342 0.16665 0.0
N9 N 0.45027 0.16412 0.06182 0.0
C10 C 0.46609 0.1231 0.1089 0.0
C11 C 0.4587 0.1548 0.10902 0.0
C12 C 0.4534 0.13744 1.0334 0.0
N13 N 0.46272 0.11221 0.06139 0.0
O14 O 0.40337 0.1871 1.001 0.0
H15 H 0.46033 0.17003 0.14163 0.0
H16 H 0.44855 0.13622 0.99323 0.0
O17 O 0.40851 0.20514 0.10494 0.0
C18 C 0.41559 0.18666 0.95643 0.0
O19 O 0.44542 0.1956 0.9518 0.0
N20 N 0.47278 0.2244 0.07532 0.0
C21 C 0.53032 0.25749 0.08858 0.0
C22 C 0.50107 0.27152 0.10146 0.0
C23 C 0.47271 0.25471 0.0944 0.0
C24 C 0.50126 0.21032 0.06389 0.0
C25 C 0.53006 0.22589 0.07183 0.0
H26 H 0.45057 0.26695 0.10175 0.0
H27 H 0.50214 0.18769 0.04477 0.0
H28 H 0.38116 0.25504 0.06956 0.0
H29 H 0.42861 0.3133 0.96423 0.0
H30 H 0.47389 0.10917 0.14113 0.0
H31 H 0.4997 0.29604 0.11367 0.0
H32 H 0.55188 0.21365 0.06195 0.0
C33 C 0.74466 0.44048 0.99914 0.0
C34 C 0.71547 0.4258 1.00025 0.0
N35 N 0.71777 0.39989 1.03003 0.0
N36 N 0.76514 0.42416 1.02876 0.0
C37 C 0.74822 0.39915 0.04627 0.0
H38 H 0.7503 0.46244 0.97979 0.0
Co39 Co 0.80667 0.43688 0.04399 0.0
C40 C 0.80182 0.41206 0.15286 0.0
O41 O 0.79152 0.4395 0.16965 0.0
N42 N 0.84886 0.44866 0.05831 0.0
C43 C 0.89338 0.46207 0.09845 0.0
C44 C 0.8625 0.45233 0.10436 0.0
C45 C 0.87204 0.45659 1.02495 0.0
N46 N 0.89924 0.46457 0.04865 0.0
O47 O 0.82248 0.40319 1.00047 0.0
H48 H 0.85066 0.44964 0.14029 0.0
H49 H 0.8688 0.45759 0.98433 0.0
O50 O 0.80807 0.40845 0.10545 0.0
C51 C 0.8205 0.414 0.95513 0.0
O52 O 0.8099 0.44318 0.94908 0.0
N53 N 0.79027 0.47359 0.07944 0.0
C54 C 0.75968 0.53231 0.09632 0.0
C55 C 0.74473 0.50353 0.10886 0.0
C56 C 0.76036 0.47461 0.10028 0.0
C57 C 0.80549 0.50163 0.06934 0.0
C58 C 0.79117 0.53093 0.07899 0.0
H59 H 0.74735 0.45297 0.1076 0.0
H60 H 0.82795 0.50206 0.04972 0.0
H61 H 0.75754 0.38153 0.07225 0.0
H62 H 0.69408 0.43379 0.98123 0.0
H63 H 0.90993 0.46813 0.12834 0.0
H64 H 0.72031 0.50298 0.12184 0.0
H65 H 0.80421 0.55232 0.0697 0.0
C66 C 0.57897 0.74447 0.99245 0.0
C67 C 0.59537 0.71623 0.99476 0.0
N68 N 0.61939 0.7196 1.02802 0.0
N69 N 0.59234 0.76545 1.02461 0.0
C70 C 0.61739 0.7498 0.04506 0.0
H71 H 0.5575 0.74889 0.97096 0.0
Co72 Co 0.57425 0.80483 0.04042 0.0
C73 C 0.59564 0.80368 0.1514 0.0
O74 O 0.56813 0.79225 0.16593 0.0
N75 N 0.55628 0.84506 0.05579 0.0
C76 C 0.53015 0.88344 0.0965 0.0
C77 C 0.54395 0.85409 0.10096 0.0
C78 C 0.54983 0.86986 1.02448 0.0
N79 N 0.53389 0.89327 0.04853 0.0
O80 O 0.60661 0.82517 0.99913 0.0
H81 H 0.54294 0.83969 0.13454 0.0
H82 H 0.55523 0.8703 0.98444 0.0
O83 O 0.60093 0.80872 0.10395 0.0
C84 C 0.59563 0.82344 0.95386 0.0
O85 O 0.56715 0.81111 0.94793 0.0
N86 N 0.53945 0.78338 0.07245 0.0
C87 C 0.48527 0.74603 0.08859 0.0
C88 C 0.51523 0.7355 0.10467 0.0
C89 C 0.54203 0.75441 0.09601 0.0
C90 C 0.51017 0.79366 0.05669 0.0
C91 C 0.48281 0.77587 0.06565 0.0
H92 H 0.56506 0.74497 0.10628 0.0
H93 H 0.5079 0.8147 1.03352 0.0
H94 H 0.63255 0.75952 0.0743 0.0
H95 H 0.58952 0.69457 0.97473 0.0
H96 H 0.51744 0.89625 0.12581 0.0
H97 H 0.51812 0.71225 0.12176 0.0
H98 H 0.46024 0.78428 0.05092 0.0
C99 C 0.26487 0.57287 0.98822 0.0
C100 C 0.29433 0.58697 0.98753 0.0
N101 N 0.29341 0.61241 1.01839 0.0
N102 N 0.24567 0.58907 1.02007 0.0
C103 C 0.26354 0.61351 1.03708 0.0
H104 H 0.25845 0.55096 0.96944 0.0
Co105 Co 0.20573 0.57467 0.04041 0.0
C106 C 0.21164 0.60226 0.14766 0.0
O107 O 0.2234 0.5758 0.16605 0.0
N108 N 0.16494 0.56061 0.06036 0.0
C109 C 0.12376 0.5459 0.10795 0.0
C110 C 0.15532 0.55399 0.10813 0.0
C111 C 0.13874 0.55551 1.03162 0.0
N112 N 0.11342 0.5469 0.05985 0.0
O113 O 0.18654 0.60653 0.99677 0.0
H114 H 0.17023 0.55427 0.14126 0.0
H115 H 0.13791 0.55834 0.99094 0.0
O116 O 0.20477 0.60439 0.10024 0.0
C117 C 0.18554 0.59367 0.9528 0.0
O118 O 0.19575 0.56424 0.94841 0.0
N119 N 0.22566 0.54009 0.07557 0.0
C120 C 0.26158 0.48462 0.09132 0.0
C121 C 0.2735 0.51442 0.1054 0.0
C122 C 0.25542 0.54181 0.09664 0.0
C123 C 0.21343 0.51096 0.06345 0.0
C124 C 0.23066 0.48305 0.07183 0.0
H125 H 0.26637 0.56453 0.10396 0.0
H126 H 0.19136 0.50912 0.04278 0.0
H127 H 0.25573 0.6303 0.06555 0.0
H128 H 0.31521 0.57845 0.96765 0.0
H129 H 0.10961 0.53917 0.14053 0.0
H130 H 0.29736 0.51678 0.12041 0.0
H131 H 0.22082 0.4607 0.05892 0.0
C132 C 0.93635 0.24787 0.60192 0.0
C133 C 0.9201 0.21965 0.60399 0.0
N134 N 0.89565 0.22107 0.57094 0.0
N135 N 0.92239 0.26706 0.56762 0.0
C136 C 0.89736 0.25035 0.54988 0.0
H137 H 0.95805 0.25341 0.62202 0.0
Co138 Co 0.93943 0.30581 0.54751 0.0
C139 C 0.91395 0.30223 0.43882 0.0
O140 O 0.94071 0.29057 0.42134 0.0
N141 N 0.9565 0.34539 0.52784 0.0
C142 C 0.98183 0.38269 0.48366 0.0
C143 C 0.96889 0.35286 0.48201 0.0
C144 C 0.96182 0.37152 0.55649 0.0
N145 N 0.97735 0.3943 0.53049 0.0
O146 O 0.90795 0.32695 0.58958 0.0
H147 H 0.97019 0.33715 0.44991 0.0
H148 H 0.95562 0.3736 0.59609 0.0
O149 O 0.91083 0.30826 0.4864 0.0
C150 C 0.9195 0.32673 0.63454 0.0
O151 O 0.9486 0.31579 0.6404 0.0
N152 N 0.97314 0.28362 0.51415 0.0
C153 C 0.02667 0.2458 0.49473 0.0
C154 C 0.99622 0.23538 0.48116 0.0
C155 C 0.96976 0.25449 0.49158 0.0
C156 C 1.00284 0.29376 0.52771 0.0
C157 C 0.02987 0.27572 0.51709 0.0
H158 H 0.94642 0.24511 0.48344 0.0
H159 H 1.00573 0.31503 0.55013 0.0
H160 H 0.88157 0.25901 0.52063 0.0
H161 H 0.92703 0.19907 0.62602 0.0
H162 H 0.99392 0.39485 0.45304 0.0
H163 H 0.99276 0.21207 0.46468 0.0
H164 H 0.05286 0.28406 0.52999 0.0
C165 C 0.76754 0.93743 0.59044 0.0
C166 C 0.79615 0.92186 0.58644 0.0
N167 N 0.79266 0.89784 0.55328 0.0
N168 N 0.74616 0.92349 0.55956 0.0
C169 C 0.76202 0.89899 0.53798 0.0
H170 H 0.76302 0.9587 0.61231 0.0
Co171 Co 0.70609 0.94083 0.54675 0.0
C172 C 0.70333 0.92177 0.43503 0.0
O173 O 0.71125 0.95057 0.42104 0.0
N174 N 0.66518 0.95848 0.53463 0.0
C175 C 0.62586 0.98694 0.50053 0.0
C176 C 0.65555 0.97449 0.4928 0.0
C177 C 0.64031 0.96131 0.56713 0.0
N178 N 0.61638 0.97873 0.54727 0.0
O179 O 0.68726 0.90754 0.58812 0.0
H180 H 0.66976 0.97914 0.45982 0.0
H181 H 0.64008 0.95214 0.60538 0.0
O182 O 0.7013 0.91492 0.48255 0.0
C183 C 0.69044 0.91745 0.63381 0.0
O184 O 0.70274 0.94585 0.64041 0.0
N185 N 0.72618 0.97606 0.51479 0.0
C186 C 0.76212 0.03079 0.49659 0.0
C187 C 0.77173 1.00137 0.47686 0.0
C188 C 0.75362 0.97421 0.48685 0.0
C189 C 0.71696 1.00464 0.53457 0.0
C190 C 0.73399 0.0323 0.52479 0.0
H191 H 0.76243 0.95147 0.47391 0.0
H192 H 0.69737 0.00592 0.56102 0.0
H193 H 0.75201 0.88358 0.50935 0.0
H194 H 0.81806 0.92818 0.60543 0.0
H195 H 0.61247 1.00151 0.47422 0.0
H196 H 0.79375 0.99913 0.4558 0.0
H197 H 0.72648 0.05427 0.5426 0.0
C198 C 0.07449 0.7648 0.59373 0.0
C199 C 0.0899 0.79361 0.59422 0.0
N200 N 0.11499 0.7917 0.56261 0.0
N201 N 0.08954 0.74509 0.56128 0.0
C202 C 0.11455 0.76194 0.54368 0.0
H203 H 0.05275 0.75907 0.61366 0.0
Co204 Co 0.07461 0.70528 0.54198 0.0
C205 C 0.09881 0.7123 0.43291 0.0
O206 O 0.07198 0.72473 0.41713 0.0
N207 N 0.06017 0.66466 0.52276 0.0
C208 C 0.03824 0.6257 0.47784 0.0
C209 C 0.05033 0.6559 0.476 0.0
C210 C 0.05423 0.63898 0.55222 0.0
N211 N 0.04072 0.61521 0.52574 0.0
O212 O 0.10789 0.68598 0.58255 0.0
H213 H 0.05008 0.67099 0.44301 0.0
H214 H 0.05822 0.63806 0.59263 0.0
O215 O 0.10227 0.70477 0.47985 0.0
C216 C 0.09657 0.68476 0.6276 0.0
O217 O 0.06743 0.69518 0.63505 0.0
N218 N 0.03858 0.72509 0.51003 0.0
C219 C 0.98102 0.75799 0.49462 0.0
C220 C 0.01031 0.77189 0.48176 0.0
C221 C 0.03872 0.75515 0.48993 0.0
C222 C 0.01008 0.7114 0.5222 0.0
C223 C 0.98132 0.72674 0.51294 0.0
H224 H 0.06091 0.76725 0.4826 0.0
H225 H 0.00914 0.68919 0.54256 0.0
H226 H 0.13108 0.75329 0.51539 0.0
H227 H 0.08282 0.81456 0.61522 0.0
H228 H 0.02789 0.61261 0.44664 0.0
H229 H 0.01162 0.79621 0.46854 0.0
H230 H 0.95952 0.7146 0.52295 0.0
C231 C 0.24615 0.07231 0.59362 0.0
C232 C 0.21664 0.08628 0.59115 0.0
N233 N 0.21833 0.11092 0.55871 0.0
N234 N 0.26621 0.08778 0.56222 0.0
C235 C 0.24871 0.11168 0.54216 0.0
H236 H 0.25216 0.05103 0.6146 0.0
Co237 Co 0.30724 0.07348 0.54725 0.0
C238 C 0.30465 0.09388 0.43602 0.0
O239 O 0.29584 0.0653 0.42229 0.0
N240 N 0.34902 0.05944 0.53313 0.0
C241 C 0.39048 0.03693 0.49474 0.0
C242 C 0.36056 0.04916 0.48814 0.0
C243 C 0.37285 0.05356 0.56645 0.0
N244 N 0.39808 0.03962 0.54394 0.0
O245 O 0.32418 0.10786 0.58818 0.0
H246 H 0.34766 0.04843 0.45305 0.0
H247 H 0.37122 0.05772 0.60679 0.0
O248 O 0.30899 0.10006 0.48333 0.0
C249 C 0.32195 0.09775 0.63393 0.0
O250 O 0.31152 0.06863 0.64092 0.0
N251 N 0.28947 0.03652 0.51537 0.0
C252 C 0.25695 0.97873 0.50238 0.0
C253 C 0.24355 0.00755 0.48589 0.0
C254 C 0.26012 0.03606 0.4927 0.0
C255 C 0.30298 0.00842 0.53025 0.0
C256 C 0.28782 0.97946 0.52235 0.0
H257 H 0.24836 0.05798 0.48234 0.0
H258 H 0.32468 0.00805 0.55199 0.0
H259 H 0.25737 0.12799 0.51359 0.0
H260 H 0.19531 0.07837 0.61037 0.0
H261 H 0.40528 0.02614 0.46585 0.0
H262 H 0.2196 0.00859 0.47095 0.0
H263 H 0.29968 0.95799 0.53487 0.0
H264 H 0.56581 0.94275 1.00851 0.0
H265 H 0.47222 0.90838 0.04524 0.0
H266 H 0.54425 0.99665 0.99732 0.0
H267 H 0.45023 0.96163 1.03266 0.0
H268 H 0.44487 0.05991 0.11157 0.0
H269 H 0.45909 1.00528 0.09217 0.0
H270 H 0.50693 0.0365 0.95592 0.0
H271 H 0.49246 0.09186 0.97608 0.0
C272 C 0.54042 0.94662 1.01193 0.0
C273 C 0.52056 0.92186 1.02801 0.0
C274 C 0.52804 0.97734 1.00554 0.0
C275 C 0.49562 0.98345 1.01505 0.0
C276 C 0.47538 0.95778 1.02601 0.0
C277 C 0.48782 0.92734 1.0329 0.0
C278 C 0.45802 0.05502 0.07713 0.0
C279 C 0.46776 0.07995 0.04549 0.0
C280 C 0.46594 0.02372 0.06565 0.0
C281 C 0.48404 0.01651 1.02232 0.0
C282 C 0.49297 0.04137 0.98957 0.0
C283 C 0.48459 0.0729 1.00084 0.0
H284 H 0.95237 0.43299 1.02399 0.0
H285 H 0.90984 0.52601 1.02972 0.0
H286 H 1.00493 0.45696 1.01101 0.0
H287 H 0.96223 0.55039 1.01683 0.0
H288 H 0.05929 0.56601 0.10405 0.0
H289 H 1.0055 0.54862 0.08378 0.0
H290 H 0.04205 0.49352 0.95846 0.0
H291 H 0.09625 0.51151 0.97885 0.0
C292 C 0.95431 0.45855 1.02022 0.0
C293 C 0.92748 0.47784 1.0273 0.0
C294 C 0.98422 0.47229 1.01282 0.0
C295 C 0.98763 0.50554 1.01326 0.0
C296 C 0.96026 0.52471 1.01653 0.0
C297 C 0.93038 0.51091 1.02352 0.0
C298 C 0.05567 0.55066 0.07165 0.0
C299 C 0.08171 0.53987 0.04319 0.0
C300 C 0.02493 0.54092 0.0597 0.0
C301 C 0.0196 0.51978 1.01943 0.0
C302 C 0.04555 0.50987 0.98964 0.0
C303 C 0.0764 0.52018 1.0011 0.0
H304 H 0.0349 0.42017 0.51628 0.0
H305 H 0.94295 0.43692 0.58361 0.0
H306 H 0.05003 0.47522 0.53318 0.0
H307 H 0.95773 0.49254 0.59978 0.0
H308 H 0.98412 0.58855 0.50678 0.0
H309 H 0.96837 0.53398 0.52617 0.0
H310 H 0.05744 0.51906 0.60422 0.0
H311 H 0.07282 0.57427 0.58552 0.0
C312 C 0.01825 0.43562 0.5357 0.0
C313 C 0.98775 0.42471 0.5483 0.0
C314 C 0.02694 0.46693 0.54578 0.0
C315 C 1.00501 0.48801 0.56775 0.0
C316 C 0.97505 0.47662 0.58294 0.0
C317 C 0.96662 0.44499 0.57381 0.0
C318 C 0.9999 0.57375 0.52913 0.0
C319 C 0.02972 0.58518 0.54431 0.0
C320 C 0.99082 0.54273 0.54063 0.0
C321 C 0.01173 0.52243 0.56667 0.0
C322 C 0.04093 0.53438 0.58423 0.0
C323 C 0.04969 0.56577 0.57364 0.0
H324 H 0.59076 0.03708 0.54714 0.0
H325 H 0.57542 0.94099 0.59807 0.0
H326 H 0.53594 0.05068 0.56818 0.0
H327 H 0.52 0.95438 0.61917 0.0
H328 H 0.42442 0.98231 0.52968 0.0
H329 H 0.4783 0.96639 0.55271 0.0
H330 H 0.491 0.0554 0.63164 0.0
H331 H 0.4365 0.07109 0.6085 0.0
C332 C 0.57572 0.01916 0.56426 0.0
C333 C 0.5869 0.98795 0.57039 0.0
C334 C 0.54446 0.02696 0.5768 0.0
C335 C 0.52363 1.00353 0.59503 0.0
C336 C 0.53558 0.97286 0.60501 0.0
C337 C 0.56716 0.9652 0.59314 0.0
C338 C 0.43851 0.99799 0.55319 0.0
C339 C 0.42676 0.02801 0.56683 0.0
C340 C 0.46919 0.98881 0.56684 0.0
C341 C 0.48892 0.00973 0.59377 0.0
C342 C 0.47628 0.03887 0.61076 0.0
C343 C 0.44523 0.04783 0.59771 0.0
H344 H 0.32314 0.4816 0.05906 0.0
H345 H 0.24723 0.42306 0.11782 0.0
H346 H 0.3555 0.43436 0.04508 0.0
H347 H 0.27962 0.3755 0.10278 0.0
H348 H 0.36303 0.30145 0.10689 0.0
H349 H 0.33052 0.34757 0.12918 0.0
H350 H 0.35101 0.38966 0.98355 0.0
H351 H 0.38283 0.34356 0.96075 0.0
C352 C 0.31358 0.4587 0.06999 0.0
C353 C 0.28258 0.45612 0.08964 0.0
C354 C 0.33199 0.43158 0.0613 0.0
C355 C 0.31994 0.4012 0.07221 0.0
C356 C 0.28954 0.39861 0.09405 0.0
C357 C 0.27097 0.4258 0.10242 0.0
C358 C 0.36027 0.32027 0.07927 0.0
C359 C 0.37587 0.31876 1.03206 0.0
C360 C 0.34172 0.34677 0.09221 0.0
C361 C 0.33858 0.37242 0.05841 0.0
C362 C 0.35356 0.37059 1.01089 0.0
C363 C 0.37184 0.3441 0.99782 0.0
H364 H 0.54876 0.30689 0.15103 0.0
H365 H 0.5799 0.25221 1.02117 0.0
H366 H 0.59541 0.34106 0.14179 0.0
H367 H 0.62689 0.28519 1.01425 0.0
H368 H 0.72156 0.33642 0.04495 0.0
H369 H 0.67761 0.30036 0.06576 0.0
H370 H 0.61279 0.38006 0.06914 0.0
H371 H 0.65659 0.41592 0.04798 0.0
C372 C 0.5655 0.30188 0.12088 0.0
C373 C 0.5603 0.27655 0.087 0.0
C374 C 0.5923 0.32137 0.11584 0.0
C375 C 0.61477 0.31562 0.07745 0.0
C376 C 0.61021 0.28983 0.0447 0.0
C377 C 0.58322 0.27075 0.04905 0.0
C378 C 0.69796 0.34615 0.05061 0.0
C379 C 0.69236 0.37885 0.0444 0.0
C380 C 0.67287 0.3256 0.06234 0.0
C381 C 0.64187 0.3375 0.06913 0.0
C382 C 0.6365 0.37032 0.06452 0.0
C383 C 0.66145 0.39075 0.05188 0.0
H384 H 0.68211 0.72455 0.04897 0.0
H385 H 0.60354 0.65879 0.04753 0.0
H386 H 0.71819 0.68115 0.07378 0.0
H387 H 0.63926 0.61566 0.07292 0.0
H388 H 0.71038 0.55197 0.15861 0.0
H389 H 0.67692 0.59918 0.14866 0.0
H390 H 0.73469 0.6299 1.02278 0.0
H391 H 0.76689 0.58233 1.03017 0.0
C392 C 0.67258 0.70091 0.05464 0.0
C393 C 0.64023 0.69484 0.04581 0.0
C394 C 0.69311 0.67616 0.0687 0.0
C395 C 0.68143 0.64513 0.07535 0.0
C396 C 0.64883 0.6394 0.06849 0.0
C397 C 0.62849 0.66395 0.05345 0.0
C398 C 0.71602 0.56868 0.12872 0.0
C399 C 0.74155 0.56297 0.09527 0.0
C400 C 0.69695 0.59583 0.12333 0.0
C401 C 0.70337 0.61818 0.08509 0.0
C402 C 0.72955 0.6133 0.05312 0.0
C403 C 0.74818 0.58595 0.05775 0.0
H404 H 0.29578 0.67607 1.02912 0.0
H405 H 0.35103 0.59033 0.04503 0.0
H406 H 0.34228 0.70778 0.05212 0.0
H407 H 0.39703 0.6213 0.0712 0.0
H408 H 0.48259 0.6862 0.05096 0.0
H409 H 0.43571 0.65365 1.03794 0.0
H410 H 0.37806 0.72464 0.11349 0.0
H411 H 0.42517 0.75797 0.12369 0.0
C412 C 0.31788 0.66412 1.03831 0.0
C413 C 0.32016 0.63097 1.03455 0.0
C414 C 0.34449 0.68215 0.05194 0.0
C415 C 0.37375 0.66725 0.06326 0.0
C416 C 0.37536 0.63383 0.06139 0.0
C417 C 0.34901 0.61598 0.04662 0.0
C418 C 0.45997 0.69451 0.06561 0.0
C419 C 0.45748 0.72447 0.08852 0.0
C420 C 0.43296 0.67582 0.05828 0.0
C421 C 0.40279 0.68638 0.07451 0.0
C422 C 0.40064 0.71592 0.09945 0.0
C423 C 0.42765 0.7349 0.10588 0.0
H424 H 0.82536 0.03272 0.51794 0.0
H425 H 0.74624 0.09227 0.47381 0.0
H426 H 0.85792 0.07994 0.53147 0.0
H427 H 0.77893 0.13964 0.48757 0.0
H428 H 0.86235 0.21407 0.48284 0.0
H429 H 0.83065 0.1682 0.45746 0.0
H430 H 0.85131 0.12269 0.60034 0.0
H431 H 0.88198 0.16866 0.62667 0.0
C432 C 0.81522 0.05586 0.50977 0.0
C433 C 0.78328 0.05887 0.49489 0.0
C434 C 0.83372 0.08286 0.51807 0.0
C435 C 0.82075 0.11336 0.51117 0.0
C436 C 0.78947 0.11638 0.49312 0.0
C437 C 0.7708 0.08934 0.48537 0.0
C438 C 0.85978 0.19459 0.50928 0.0
C439 C 0.87507 0.1951 0.55679 0.0
C440 C 0.84177 0.16823 0.49449 0.0
C441 C 0.83904 0.14176 0.5266 0.0
C442 C 0.85367 0.14252 0.57437 0.0
C443 C 0.87127 0.16892 0.58941 0.0
H444 H 0.93095 0.7534 0.56108 0.0
H445 H 0.96257 0.80621 0.42949 0.0
H446 H 0.88317 0.78546 0.56475 0.0
H447 H 0.915 0.83969 0.43561 0.0
H448 H 0.85292 0.91461 0.53139 0.0
H449 H 0.89672 0.87923 0.50776 0.0
H450 H 0.83252 0.79927 0.51072 0.0
H451 H 0.7885 0.83497 0.53386 0.0
C452 C 0.92756 0.77129 0.53207 0.0
C453 C 0.95082 0.7768 0.49454 0.0
C454 C 0.90008 0.78983 0.53453 0.0
C455 C 0.89534 0.81487 0.50033 0.0
C456 C 0.91819 0.82045 0.46246 0.0
C457 C 0.94552 0.80141 0.45928 0.0
C458 C 0.84818 0.88951 0.52649 0.0
C459 C 0.81752 0.87734 0.53497 0.0
C460 C 0.8731 0.86937 0.51246 0.0
C461 C 0.86794 0.83658 0.50748 0.0
C462 C 0.83706 0.8245 0.5144 0.0
C463 C 0.81195 0.84481 0.52749 0.0
H464 H 0.20932 0.95872 0.43744 0.0
H465 H 0.26013 0.93094 0.57327 0.0
H466 H 0.17497 0.9122 0.44706 0.0
H467 H 0.22731 0.88392 0.58018 0.0
H468 H 0.17821 0.78783 0.54601 0.0
H469 H 0.21417 0.83182 0.52467 0.0
H470 H 0.13446 0.89667 0.52378 0.0
H471 H 0.09873 0.85285 0.54599 0.0
C472 C 0.2135 0.94275 0.46894 0.0
C473 C 0.23782 0.94884 0.50435 0.0
C474 C 0.19394 0.91602 0.47414 0.0
C475 C 0.19876 0.8945 0.51413 0.0
C476 C 0.2235 0.89992 0.54853 0.0
C477 C 0.24252 0.92688 0.54411 0.0
C478 C 0.16848 0.81146 0.54085 0.0
C479 C 0.13588 0.81713 0.54812 0.0
C480 C 0.18894 0.83652 0.52871 0.0
C481 C 0.17694 0.86748 0.52242 0.0
C482 C 0.14418 0.87294 0.52802 0.0
C483 C 0.12387 0.84802 0.54123 0.0
H484 H 0.08602 0.25772 0.45653 0.0
H485 H 0.03004 0.18553 0.53077 0.0
H486 H 0.13328 0.22404 0.46355 0.0
H487 H 0.07708 0.15258 0.54034 0.0
H488 H 0.16117 0.08914 0.52995 0.0
H489 H 0.11518 0.12046 0.50397 0.0
H490 H 0.16995 0.20658 0.52389 0.0
H491 H 0.21643 0.17455 0.54677 0.0
C492 C 0.08387 0.23449 0.47395 0.0
C493 C 0.05441 0.22408 0.49276 0.0
C494 C 0.11096 0.21529 0.47848 0.0
C495 C 0.10926 0.18552 0.50282 0.0
C496 C 0.07943 0.17495 0.52039 0.0
C497 C 0.05234 0.19387 0.51503 0.0
C498 C 0.16324 0.11477 0.52833 0.0
C499 C 0.19202 0.1296 0.54083 0.0
C500 C 0.1369 0.13281 0.51373 0.0
C501 C 0.13847 0.16622 0.51252 0.0
C502 C 0.16777 0.18095 0.52369 0.0
C503 C 0.19438 0.16274 0.53717 0.0
H504 H 0.35559 0.17978 0.1429 0.0
H505 H 0.41966 0.21931 0.25399 0.0
H506 H 0.3237 0.15687 0.2113 0.0
H507 H 0.38947 0.1951 0.32137 0.0
H508 H 0.32686 0.15589 0.44336 0.0
H509 H 0.34654 0.18957 0.37445 0.0
H510 H 0.32518 0.11508 0.26695 0.0
H511 H 0.30414 0.08285 0.33442 0.0
C512 C 0.36277 0.18381 0.18178 0.0
C513 C 0.39047 0.20117 0.19254 0.0
C514 C 0.34468 0.17034 0.22126 0.0
C515 C 0.35406 0.17348 0.27254 0.0
C516 C 0.38092 0.19221 0.28298 0.0
C517 C 0.3986 0.20597 0.2438 0.0
C518 C 0.32592 0.14705 0.40486 0.0
C519 C 0.31407 0.11648 0.39489 0.0
C520 C 0.33749 0.16624 0.36513 0.0
C521 C 0.33792 0.1552 0.31445 0.0
C522 C 0.32497 0.12503 0.30475 0.0
C523 C 0.31308 0.1062 0.34407 0.0
H524 H 0.85101 0.36885 0.14819 0.0
H525 H 0.77627 0.40298 0.24626 0.0
H526 H 0.87375 0.3389 0.21884 0.0
H527 H 0.79811 0.37232 0.31642 0.0
H528 H 0.87192 0.35246 0.44336 0.0
H529 H 0.84118 0.37473 0.3731 0.0
H530 H 0.87126 0.2969 0.27742 0.0
H531 H 0.90271 0.27555 0.347 0.0
C532 C 0.83885 0.36912 0.1844 0.0
C533 C 0.81188 0.38835 0.19155 0.0
C534 C 0.8519 0.35197 0.22519 0.0
C535 C 0.8381 0.35337 0.27403 0.0
C536 C 0.80998 0.37116 0.28004 0.0
C537 C 0.7972 0.3885 0.23952 0.0
C538 C 0.8713 0.33978 0.40766 0.0
C539 C 0.88985 0.31233 0.40078 0.0
C540 C 0.85369 0.35254 0.36712 0.0
C541 C 0.85394 0.33795 0.31886 0.0
C542 C 0.87102 0.30938 0.31328 0.0
C543 C 0.88882 0.2969 0.35349 0.0
H544 H 0.70413 0.9326 0.33343 0.0
H545 H 0.68098 0.85977 0.44283 0.0
H546 H 0.6833 0.90028 0.26608 0.0
H547 H 0.66134 0.82605 0.37397 0.0
H548 H 0.58781 0.79756 0.25335 0.0
H549 H 0.61801 0.82157 0.32073 0.0
H550 H 0.68526 0.85787 0.21102 0.0
H551 H 0.65347 0.83501 0.14248 0.0
C552 C 0.69508 0.90931 0.34323 0.0
C553 C 0.69391 0.8991 0.39413 0.0
C554 C 0.68335 0.89042 0.30398 0.0
C555 C 0.6703 0.86033 0.31385 0.0
C556 C 0.67054 0.84934 0.36459 0.0
C557 C 0.68205 0.86855 0.40427 0.0
C558 C 0.60917 0.81045 0.24321 0.0
C559 C 0.6178 0.8147 0.19199 0.0
C560 C 0.62685 0.82406 0.2824 0.0
C561 C 0.65416 0.84215 0.27202 0.0
C562 C 0.66395 0.84484 0.22084 0.0
C563 C 0.6459 0.83145 0.18132 0.0
H564 H 0.14293 0.66386 0.43709 0.0
H565 H 0.10656 0.73739 0.33868 0.0
H566 H 0.17344 0.64188 0.36646 0.0
H567 H 0.13768 0.71622 0.26856 0.0
H568 H 0.16001 0.64248 0.14237 0.0
H569 H 0.13661 0.67269 0.21222 0.0
H570 H 0.21572 0.64626 0.30813 0.0
H571 H 0.2383 0.61537 0.23888 0.0
C572 C 0.14215 0.67587 0.40077 0.0
C573 C 0.12218 0.70229 0.39358 0.0
C574 C 0.15967 0.66327 0.36003 0.0
C575 C 0.15788 0.67697 0.31117 0.0
C576 C 0.13919 0.70447 0.30501 0.0
C577 C 0.12153 0.71683 0.3455 0.0
C578 C 0.17276 0.64386 0.17797 0.0
C579 C 0.20097 0.62648 0.18504 0.0
C580 C 0.15933 0.66114 0.21828 0.0
C581 C 0.17395 0.66167 0.26651 0.0
C582 C 0.20324 0.64585 0.27225 0.0
C583 C 0.21643 0.6284 0.23224 0.0
H584 H 0.5731 0.82445 0.8576 0.0
H585 H 0.65669 0.84819 0.94476 0.0
H586 H 0.59844 0.84326 0.7812 0.0
H587 H 0.68284 0.86651 0.86679 0.0
H588 H 0.70013 0.93394 0.73187 0.0
H589 H 0.68036 0.90903 0.80805 0.0
H590 H 0.63766 0.83473 0.71808 0.0
H591 H 0.65688 0.86068 0.64052 0.0
C592 C 0.59714 0.83348 0.86056 0.0
C593 C 0.61274 0.83495 0.90781 0.0
C594 C 0.61187 0.844 0.81618 0.0
C595 C 0.64285 0.85633 0.81721 0.0
C596 C 0.65879 0.85747 0.8644 0.0
C597 C 0.64389 0.84693 0.90921 0.0
C598 C 0.68661 0.91219 0.72791 0.0
C599 C 0.67982 0.89956 0.67963 0.0
C600 C 0.67553 0.89764 0.77209 0.0
C601 C 0.65728 0.8698 0.76977 0.0
C602 C 0.65125 0.85645 0.72151 0.0
C603 C 0.6624 0.87117 0.67693 0.0
H604 H 0.07064 0.64348 0.69306 0.0
H605 H 0.15826 0.69297 0.66186 0.0
H606 H 0.09241 0.62379 0.77249 0.0
H607 H 0.18039 0.67318 0.74281 0.0
H608 H 0.18592 0.6573 0.92432 0.0
H609 H 0.16729 0.67948 0.84272 0.0
H610 H 0.1365 0.58605 0.79685 0.0
H611 H 0.15482 0.56426 0.87686 0.0
C612 C 0.09486 0.64974 0.70294 0.0
C613 C 0.11293 0.66935 0.67089 0.0
C614 C 0.10728 0.63857 0.74862 0.0
C615 C 0.13806 0.64705 0.76418 0.0
C616 C 0.15648 0.66648 0.73199 0.0
C617 C 0.14408 0.67735 0.68539 0.0
C618 C 0.17479 0.64175 0.89691 0.0
C619 C 0.17167 0.60908 0.90716 0.0
C620 C 0.16457 0.6543 0.85002 0.0
C621 C 0.15057 0.63445 0.81322 0.0
C622 C 0.14707 0.60201 0.82427 0.0
C623 C 0.15758 0.58954 0.87029 0.0
H624 H 0.30598 0.08501 0.73118 0.0
H625 H 0.35874 0.15239 0.6408 0.0
H626 H 0.32525 0.10954 0.80803 0.0
H627 H 0.37757 0.17799 0.71883 0.0
H628 H 0.44006 0.18174 0.86168 0.0
H629 H 0.41438 0.16532 0.78431 0.0
H630 H 0.32589 0.15313 0.8654 0.0
H631 H 0.35225 0.16912 0.94443 0.0
C632 C 0.32145 0.10546 0.72762 0.0
C633 C 0.33118 0.11642 0.67955 0.0
C634 C 0.33225 0.11981 0.77208 0.0
C635 C 0.3532 0.1457 0.77014 0.0
C636 C 0.36184 0.15772 0.72195 0.0
C637 C 0.3509 0.14327 0.67711 0.0
C638 C 0.41505 0.17569 0.86345 0.0
C639 C 0.39831 0.1766 0.90977 0.0
C640 C 0.40017 0.16657 0.8185 0.0
C641 C 0.36792 0.15804 0.81801 0.0
C642 C 0.35088 0.15927 0.86424 0.0
C643 C 0.36592 0.16845 0.90964 0.0
H644 H 0.94301 0.33245 0.72975 0.0
H645 H 0.85636 0.34547 0.64421 0.0
H646 H 0.91622 0.34899 0.80636 0.0
H647 H 0.82893 0.36167 0.72229 0.0
H648 H 0.80641 0.42838 0.85761 0.0
H649 H 0.82733 0.40497 0.78073 0.0
H650 H 0.87811 0.33517 0.86982 0.0
H651 H 0.85758 0.35954 0.94782 0.0
C652 C 0.91804 0.33868 0.7272 0.0
C653 C 0.90191 0.33772 0.68041 0.0
C654 C 0.90253 0.34787 0.77165 0.0
C655 C 0.87024 0.35643 0.77108 0.0
C656 C 0.8539 0.35544 0.72427 0.0
C657 C 0.86957 0.34619 0.67941 0.0
C658 C 0.82187 0.40786 0.86109 0.0
C659 C 0.83064 0.39611 0.90916 0.0
C660 C 0.83365 0.39419 0.81664 0.0
C661 C 0.85466 0.36825 0.81863 0.0
C662 C 0.86237 0.35549 0.86671 0.0
C663 C 0.85044 0.36924 0.91151 0.0
loop_
_geom_bond_atom_site_label_1
_geom_bond_atom_site_label_2
_geom_bond_distance
_geom_bond_site_symmetry_2
_ccdc_geom_bond_type
C0 C1 1.351 . S
C0 N3 1.368 . S
C0 H5 0.931 . S
C1 C0 1.351 . S
C1 N2 1.373 1_556 S
C1 H29 0.930 . S
N2 C1 1.373 1_554 S
N2 C4 1.340 . S
N3 C0 1.368 . S
N3 C4 1.321 1_556 S
N3 Co6 2.135 1_556 S
C4 N2 1.340 . S
C4 N3 1.321 1_554 S
C4 H28 0.930 . S
H5 C0 0.931 . S
Co6 N3 2.135 1_554 S
Co6 N9 2.121 . S
Co6 O14 2.055 1_554 S
Co6 O17 2.039 . S
Co6 N20 2.140 . S
C7 O8 1.227 . S
C7 O17 1.265 . S
O8 C7 1.227 . S
N9 Co6 2.121 . S
N9 C11 1.375 . S
N9 C12 1.313 1_554 S
C10 C11 1.338 . S
C10 N13 1.377 . S
C10 H30 0.930 . S
C11 N9 1.375 . S
C11 C10 1.338 . S
C11 H15 0.931 . S
C12 N9 1.313 1_556 S
C12 N13 1.344 1_556 S
C12 H16 0.930 . S
N13 C10 1.377 . S
N13 C12 1.344 1_554 S
O14 Co6 2.055 1_556 S
O14 C18 1.253 . S
H15 C11 0.931 . S
H16 C12 0.930 . S
O17 Co6 2.039 . S
O17 C7 1.265 . S
C18 O14 1.253 . S
C18 O19 1.227 . S
O19 C18 1.227 . S
N20 Co6 2.140 . S
N20 C23 1.346 . S
N20 C24 1.345 1_554 S
C21 C22 1.387 . S
C21 C25 1.391 1_554 S
C22 C21 1.387 . S
C22 C23 1.369 . S
C22 H31 0.929 . S
C23 N20 1.346 . S
C23 C22 1.369 . S
C23 H26 0.928 . S
C24 N20 1.345 1_556 S
C24 C25 1.371 . S
C24 H27 0.931 . S
C25 C21 1.391 1_556 S
C25 C24 1.371 . S
C25 H32 0.930 . S
H26 C23 0.928 . S
H27 C24 0.931 . S
H28 C4 0.930 . S
H29 C1 0.930 . S
H30 C10 0.930 . S
H31 C22 0.929 . S
H32 C25 0.930 . S
C33 C34 1.351 . S
C33 N36 1.368 . S
C33 H38 0.931 . S
C34 C33 1.351 . S
C34 N35 1.373 1_556 S
C34 H62 0.930 . S
N35 C34 1.373 1_554 S
N35 C37 1.340 . S
N36 C33 1.368 . S
N36 C37 1.321 1_556 S
N36 Co39 2.135 1_556 S
C37 N35 1.340 . S
C37 N36 1.321 1_554 S
C37 H61 0.930 . S
H38 C33 0.931 . S
Co39 N36 2.135 1_554 S
Co39 N42 2.121 . S
Co39 O47 2.055 1_554 S
Co39 O50 2.039 . S
Co39 N53 2.140 . S
C40 O41 1.227 . S
C40 O50 1.265 . S
O41 C40 1.227 . S
N42 Co39 2.121 . S
N42 C44 1.375 . S
N42 C45 1.313 1_554 S
C43 C44 1.338 . S
C43 N46 1.377 . S
C43 H63 0.930 . S
C44 N42 1.375 . S
C44 C43 1.338 . S
C44 H48 0.931 . S
C45 N42 1.313 1_556 S
C45 N46 1.344 1_556 S
C45 H49 0.930 . S
N46 C43 1.377 . S
N46 C45 1.344 1_554 S
O47 Co39 2.055 1_556 S
O47 C51 1.253 . S
H48 C44 0.931 . S
H49 C45 0.930 . S
O50 Co39 2.039 . S
O50 C40 1.265 . S
C51 O47 1.253 . S
C51 O52 1.227 . S
O52 C51 1.227 . S
N53 Co39 2.140 . S
N53 C56 1.346 . S
N53 C57 1.345 1_554 S
C54 C55 1.387 . S
C54 C58 1.391 1_554 S
C55 C54 1.387 . S
C55 C56 1.369 . S
C55 H64 0.929 . S
C56 N53 1.346 . S
C56 C55 1.369 . S
C56 H59 0.928 . S
C57 N53 1.345 1_556 S
C57 C58 1.371 . S
C57 H60 0.931 . S
C58 C54 1.391 1_556 S
C58 C57 1.371 . S
C58 H65 0.930 . S
H59 C56 0.928 . S
H60 C57 0.931 . S
H61 C37 0.930 . S
H62 C34 0.930 . S
H63 C43 0.930 . S
H64 C55 0.929 . S
H65 C58 0.930 . S
C66 C67 1.351 . S
C66 N69 1.368 . S
C66 H71 0.931 . S
C67 C66 1.351 . S
C67 N68 1.373 1_556 S
C67 H95 0.930 . S
N68 C67 1.373 1_554 S
N68 C70 1.340 . S
N69 C66 1.368 . S
N69 C70 1.321 1_556 S
N69 Co72 2.135 1_556 S
C70 N68 1.340 . S
C70 N69 1.321 1_554 S
C70 H94 0.930 . S
H71 C66 0.931 . S
Co72 N69 2.135 1_554 S
Co72 N75 2.121 . S
Co72 O80 2.055 1_554 S
Co72 O83 2.039 . S
Co72 N86 2.140 . S
C73 O74 1.227 . S
C73 O83 1.265 . S
O74 C73 1.227 . S
N75 Co72 2.121 . S
N75 C77 1.375 . S
N75 C78 1.313 1_554 S
C76 C77 1.338 . S
C76 N79 1.377 . S
C76 H96 0.930 . S
C77 N75 1.375 . S
C77 C76 1.338 . S
C77 H81 0.931 . S
C78 N75 1.313 1_556 S
C78 N79 1.344 1_556 S
C78 H82 0.930 . S
N79 C76 1.377 . S
N79 C78 1.344 1_554 S
O80 Co72 2.055 1_556 S
O80 C84 1.253 . S
H81 C77 0.931 . S
H82 C78 0.930 . S
O83 Co72 2.039 . S
O83 C73 1.265 . S
C84 O80 1.253 . S
C84 O85 1.227 . S
O85 C84 1.227 . S
N86 Co72 2.140 . S
N86 C89 1.346 . S
N86 C90 1.345 1_554 S
C87 C88 1.387 . S
C87 C91 1.391 1_554 S
C88 C87 1.387 . S
C88 C89 1.369 . S
C88 H97 0.929 . S
C89 N86 1.346 . S
C89 C88 1.369 . S
C89 H92 0.928 . S
C90 N86 1.345 1_556 S
C90 C91 1.371 . S
C90 H93 0.931 . S
C91 C87 1.391 1_556 S
C91 C90 1.371 . S
C91 H98 0.930 . S
H92 C89 0.928 . S
H93 C90 0.931 . S
H94 C70 0.930 . S
H95 C67 0.930 . S
H96 C76 0.930 . S
H97 C88 0.929 . S
H98 C91 0.930 . S
C99 C100 1.351 . S
C99 N102 1.368 . S
C99 H104 0.931 . S
C100 C99 1.351 . S
C100 N101 1.373 1_556 S
C100 H128 0.930 . S
N101 C100 1.373 1_554 S
N101 C103 1.340 . S
N102 C99 1.368 . S
N102 C103 1.321 1_556 S
N102 Co105 2.135 1_556 S
C103 N101 1.340 . S
C103 N102 1.321 1_554 S
C103 H127 0.930 . S
H104 C99 0.931 . S
Co105 N102 2.135 1_554 S
Co105 N108 2.121 . S
Co105 O113 2.055 1_554 S
Co105 O116 2.039 . S
Co105 N119 2.140 . S
C106 O107 1.227 . S
C106 O116 1.265 . S
O107 C106 1.227 . S
N108 Co105 2.121 . S
N108 C110 1.375 . S
N108 C111 1.313 1_554 S
C109 C110 1.338 . S
C109 N112 1.377 . S
C109 H129 0.930 . S
C110 N108 1.375 . S
C110 C109 1.338 . S
C110 H114 0.931 . S
C111 N108 1.313 1_556 S
C111 N112 1.344 1_556 S
C111 H115 0.930 . S
N112 C109 1.377 . S
N112 C111 1.344 1_554 S
O113 Co105 2.055 1_556 S
O113 C117 1.253 . S
H114 C110 0.931 . S
H115 C111 0.930 . S
O116 Co105 2.039 . S
O116 C106 1.265 . S
C117 O113 1.253 . S
C117 O118 1.227 . S
O118 C117 1.227 . S
N119 Co105 2.140 . S
N119 C122 1.346 . S
N119 C123 1.345 1_554 S
C120 C121 1.387 . S
C120 C124 1.391 1_554 S
C121 C120 1.387 . S
C121 C122 1.369 . S
C121 H130 0.929 . S
C122 N119 1.346 . S
C122 C121 1.369 . S
C122 H125 0.928 . S
C123 N119 1.345 1_556 S
C123 C124 1.371 . S
C123 H126 0.931 . S
C124 C120 1.391 1_556 S
C124 C123 1.371 . S
C124 H131 0.930 . S
H125 C122 0.928 . S
H126 C123 0.931 . S
H127 C103 0.930 . S
H128 C100 0.930 . S
H129 C109 0.930 . S
H130 C121 0.929 . S
H131 C124 0.930 . S
C132 C133 1.351 . S
C132 N135 1.368 . S
C132 H137 0.931 . S
C133 C132 1.351 . S
C133 N134 1.373 . S
C133 H161 0.930 . S
N134 C133 1.373 . S
N134 C136 1.340 . S
N135 C132 1.368 . S
N135 C136 1.321 . S
N135 Co138 2.135 . S
C136 N134 1.340 . S
C136 N135 1.321 . S
C136 H160 0.930 . S
H137 C132 0.931 . S
Co138 N135 2.135 . S
Co138 N141 2.121 . S
Co138 O146 2.055 . S
Co138 O149 2.039 . S
Co138 N152 2.140 . S
C139 O140 1.227 . S
C139 O149 1.265 . S
O140 C139 1.227 . S
N141 Co138 2.121 . S
N141 C143 1.375 . S
N141 C144 1.313 . S
C142 C143 1.338 . S
C142 N145 1.377 . S
C142 H162 0.930 . S
C143 N141 1.375 . S
C143 C142 1.338 . S
C143 H147 0.931 . S
C144 N141 1.313 . S
C144 N145 1.344 . S
C144 H148 0.930 . S
N145 C142 1.377 . S
N145 C144 1.344 . S
O146 Co138 2.055 . S
O146 C150 1.253 . S
H147 C143 0.931 . S
H148 C144 0.930 . S
O149 Co138 2.039 . S
O149 C139 1.265 . S
C150 O146 1.253 . S
C150 O151 1.227 . S
O151 C150 1.227 . S
N152 Co138 2.140 . S
N152 C155 1.346 . S
N152 C156 1.345 . S
C153 C154 1.387 1_455 S
C153 C157 1.391 . S
C154 C153 1.387 1_655 S
C154 C155 1.369 . S
C154 H163 0.929 . S
C155 N152 1.346 . S
C155 C154 1.369 . S
C155 H158 0.928 . S
C156 N152 1.345 . S
C156 C157 1.371 1_655 S
C156 H159 0.931 . S
C157 C153 1.391 . S
C157 C156 1.371 1_455 S
C157 H164 0.930 . S
H158 C155 0.928 . S
H159 C156 0.931 . S
H160 C136 0.930 . S
H161 C133 0.930 . S
H162 C142 0.930 . S
H163 C154 0.929 . S
H164 C157 0.930 . S
C165 C166 1.351 . S
C165 N168 1.368 . S
C165 H170 0.931 . S
C166 C165 1.351 . S
C166 N167 1.373 . S
C166 H194 0.930 . S
N167 C166 1.373 . S
N167 C169 1.340 . S
N168 C165 1.368 . S
N168 C169 1.321 . S
N168 Co171 2.135 . S
C169 N167 1.340 . S
C169 N168 1.321 . S
C169 H193 0.930 . S
H170 C165 0.931 . S
Co171 N168 2.135 . S
Co171 N174 2.121 . S
Co171 O179 2.055 . S
Co171 O182 2.039 . S
Co171 N185 2.140 . S
C172 O173 1.227 . S
C172 O182 1.265 . S
O173 C172 1.227 . S
N174 Co171 2.121 . S
N174 C176 1.375 . S
N174 C177 1.313 . S
C175 C176 1.338 . S
C175 N178 1.377 . S
C175 H195 0.930 . S
C176 N174 1.375 . S
C176 C175 1.338 . S
C176 H180 0.931 . S
C177 N174 1.313 . S
C177 N178 1.344 . S
C177 H181 0.930 . S
N178 C175 1.377 . S
N178 C177 1.344 . S
O179 Co171 2.055 . S
O179 C183 1.253 . S
H180 C176 0.931 . S
H181 C177 0.930 . S
O182 Co171 2.039 . S
O182 C172 1.265 . S
C183 O179 1.253 . S
C183 O184 1.227 . S
O184 C183 1.227 . S
N185 Co171 2.140 . S
N185 C188 1.346 . S
N185 C189 1.345 . S
C186 C187 1.387 1_545 S
C186 C190 1.391 . S
C187 C186 1.387 1_565 S
C187 C188 1.369 . S
C187 H196 0.929 . S
C188 N185 1.346 . S
C188 C187 1.369 . S
C188 H191 0.928 . S
C189 N185 1.345 . S
C189 C190 1.371 1_565 S
C189 H192 0.931 . S
C190 C186 1.391 . S
C190 C189 1.371 1_545 S
C190 H197 0.930 . S
H191 C188 0.928 . S
H192 C189 0.931 . S
H193 C169 0.930 . S
H194 C166 0.930 . S
H195 C175 0.930 . S
H196 C187 0.929 . S
H197 C190 0.930 . S
C198 C199 1.351 . S
C198 N201 1.368 . S
C198 H203 0.931 . S
C199 C198 1.351 . S
C199 N200 1.373 . S
C199 H227 0.930 . S
N200 C199 1.373 . S
N200 C202 1.340 . S
N201 C198 1.368 . S
N201 C202 1.321 . S
N201 Co204 2.135 . S
C202 N200 1.340 . S
C202 N201 1.321 . S
C202 H226 0.930 . S
H203 C198 0.931 . S
Co204 N201 2.135 . S
Co204 N207 2.121 . S
Co204 O212 2.055 . S
Co204 O215 2.039 . S
Co204 N218 2.140 . S
C205 O206 1.227 . S
C205 O215 1.265 . S
O206 C205 1.227 . S
N207 Co204 2.121 . S
N207 C209 1.375 . S
N207 C210 1.313 . S
C208 C209 1.338 . S
C208 N211 1.377 . S
C208 H228 0.930 . S
C209 N207 1.375 . S
C209 C208 1.338 . S
C209 H213 0.931 . S
C210 N207 1.313 . S
C210 N211 1.344 . S
C210 H214 0.930 . S
N211 C208 1.377 . S
N211 C210 1.344 . S
O212 Co204 2.055 . S
O212 C216 1.253 . S
H213 C209 0.931 . S
H214 C210 0.930 . S
O215 Co204 2.039 . S
O215 C205 1.265 . S
C216 O212 1.253 . S
C216 O217 1.227 . S
O217 C216 1.227 . S
N218 Co204 2.140 . S
N218 C221 1.346 . S
N218 C222 1.345 . S
C219 C220 1.387 1_655 S
C219 C223 1.391 . S
C220 C219 1.387 1_455 S
C220 C221 1.369 . S
C220 H229 0.929 . S
C221 N218 1.346 . S
C221 C220 1.369 . S
C221 H224 0.928 . S
C222 N218 1.345 . S
C222 C223 1.371 1_455 S
C222 H225 0.931 . S
C223 C219 1.391 . S
C223 C222 1.371 1_655 S
C223 H230 0.930 . S
H224 C221 0.928 . S
H225 C222 0.931 . S
H226 C202 0.930 . S
H227 C199 0.930 . S
H228 C208 0.930 . S
H229 C220 0.929 . S
H230 C223 0.930 . S
C231 C232 1.351 . S
C231 N234 1.368 . S
C231 H236 0.931 . S
C232 C231 1.351 . S
C232 N233 1.373 . S
C232 H260 0.930 . S
N233 C232 1.373 . S
N233 C235 1.340 . S
N234 C231 1.368 . S
N234 C235 1.321 . S
N234 Co237 2.135 . S
C235 N233 1.340 . S
C235 N234 1.321 . S
C235 H259 0.930 . S
H236 C231 0.931 . S
Co237 N234 2.135 . S
Co237 N240 2.121 . S
Co237 O245 2.055 . S
Co237 O248 2.039 . S
Co237 N251 2.140 . S
C238 O239 1.227 . S
C238 O248 1.265 . S
O239 C238 1.227 . S
N240 Co237 2.121 . S
N240 C242 1.375 . S
N240 C243 1.313 . S
C241 C242 1.338 . S
C241 N244 1.377 . S
C241 H261 0.930 . S
C242 N240 1.375 . S
C242 C241 1.338 . S
C242 H246 0.931 . S
C243 N240 1.313 . S
C243 N244 1.344 . S
C243 H247 0.930 . S
N244 C241 1.377 . S
N244 C243 1.344 . S
O245 Co237 2.055 . S
O245 C249 1.253 . S
H246 C242 0.931 . S
H247 C243 0.930 . S
O248 Co237 2.039 . S
O248 C238 1.265 . S
C249 O245 1.253 . S
C249 O250 1.227 . S
O250 C249 1.227 . S
N251 Co237 2.140 . S
N251 C254 1.346 . S
N251 C255 1.345 . S
C252 C253 1.387 1_565 S
C252 C256 1.391 . S
C253 C252 1.387 1_545 S
C253 C254 1.369 . S
C253 H262 0.929 . S
C254 N251 1.346 . S
C254 C253 1.369 . S
C254 H257 0.928 . S
C255 N251 1.345 . S
C255 C256 1.371 1_545 S
C255 H258 0.931 . S
C256 C252 1.391 . S
C256 C255 1.371 1_565 S
C256 H263 0.930 . S
H257 C254 0.928 . S
H258 C255 0.931 . S
H259 C235 0.930 . S
H260 C232 0.930 . S
H261 C241 0.930 . S
H262 C253 0.929 . S
H263 C256 0.930 . S
H264 C272 0.950 . S
H265 C277 0.950 . S
H266 C274 0.950 . S
H267 C276 0.950 . S
H268 C278 0.950 . S
H269 C280 0.950 . S
H270 C282 0.950 . S
H271 C283 0.950 . S
C272 H264 0.950 . S
C272 C273 1.386 . S
C272 C274 1.391 . S
C273 C272 1.386 . S
C273 C277 1.393 1_556 S
C274 H266 0.950 . S
C274 C272 1.391 . S
C274 C275 1.400 . S
C275 C274 1.400 . S
C275 C276 1.398 1_556 S
C275 C281 1.491 1_565 S
C276 H267 0.950 . S
C276 C275 1.398 1_554 S
C276 C277 1.391 . S
C277 H265 0.950 . S
C277 C273 1.393 1_554 S
C277 C276 1.391 . S
C278 H268 0.950 . S
C278 C279 1.386 1_554 S
C278 C280 1.391 . S
C279 C278 1.386 1_556 S
C279 C283 1.393 . S
C280 H269 0.950 . S
C280 C278 1.391 . S
C280 C281 1.400 1_554 S
C281 C275 1.491 1_545 S
C281 C280 1.400 1_556 S
C281 C282 1.398 . S
C282 H270 0.950 . S
C282 C281 1.398 . S
C282 C283 1.391 . S
C283 H271 0.950 . S
C283 C279 1.393 . S
C283 C282 1.391 . S
H284 C292 0.950 . S
H285 C297 0.950 . S
H286 C294 0.950 . S
H287 C296 0.950 . S
H288 C298 0.950 . S
H289 C300 0.950 . S
H290 C302 0.950 . S
H291 C303 0.950 . S
C292 H284 0.950 . S
C292 C293 1.386 . S
C292 C294 1.391 . S
C293 C292 1.386 . S
C293 C297 1.393 1_556 S
C294 H286 0.950 . S
C294 C292 1.391 . S
C294 C295 1.400 . S
C295 C294 1.400 . S
C295 C296 1.398 1_556 S
C295 C301 1.491 1_655 S
C296 H287 0.950 . S
C296 C295 1.398 1_554 S
C296 C297 1.391 . S
C297 H285 0.950 . S
C297 C293 1.393 1_554 S
C297 C296 1.391 . S
C298 H288 0.950 . S
C298 C299 1.386 1_554 S
C298 C300 1.391 . S
C299 C298 1.386 1_556 S
C299 C303 1.393 . S
C300 H289 0.950 . S
C300 C298 1.391 . S
C300 C301 1.400 1_554 S
C301 C295 1.491 1_455 S
C301 C300 1.400 1_556 S
C301 C302 1.398 . S
C302 H290 0.950 . S
C302 C301 1.398 . S
C302 C303 1.391 . S
C303 H291 0.950 . S
C303 C299 1.393 . S
C303 C302 1.391 . S
H304 C312 0.950 1_455 S
H305 C317 0.950 . S
H306 C314 0.950 . S
H307 C316 0.950 . S
H308 C318 0.950 1_655 S
H309 C320 0.950 . S
H310 C322 0.950 . S
H311 C323 0.950 . S
C312 H304 0.950 1_655 S
C312 C313 1.386 . S
C312 C314 1.391 1_655 S
C313 C312 1.386 . S
C313 C317 1.393 . S
C314 H306 0.950 . S
C314 C312 1.391 1_455 S
C314 C315 1.400 1_455 S
C315 C314 1.400 1_655 S
C315 C316 1.398 . S
C315 C321 1.491 1_655 S
C316 H307 0.950 . S
C316 C315 1.398 . S
C316 C317 1.391 . S
C317 H305 0.950 . S
C317 C313 1.393 . S
C317 C316 1.391 . S
C318 H308 0.950 1_455 S
C318 C319 1.386 . S
C318 C320 1.391 1_455 S
C319 C318 1.386 . S
C319 C323 1.393 . S
C320 H309 0.950 . S
C320 C318 1.391 1_655 S
C320 C321 1.400 1_655 S
C321 C315 1.491 1_455 S
C321 C320 1.400 1_455 S
C321 C322 1.398 . S
C322 H310 0.950 . S
C322 C321 1.398 . S
C322 C323 1.391 . S
C323 H311 0.950 . S
C323 C319 1.393 . S
C323 C322 1.391 . S
H324 C332 0.961 . S
H325 C337 0.950 . S
H326 C334 0.950 . S
H327 C336 0.950 . S
H328 C338 0.961 . S
H329 C340 0.950 . S
H330 C342 0.950 . S
H331 C343 0.950 . S
C332 H324 0.961 . S
C332 C333 1.368 1_545 S
C332 C334 1.398 . S
C333 C332 1.368 1_565 S
C333 C337 1.393 . S
C334 H326 0.950 . S
C334 C332 1.398 . S
C334 C335 1.400 1_545 S
C335 C334 1.400 1_565 S
C335 C336 1.398 . S
C335 C341 1.491 1_565 S
C336 H327 0.950 . S
C336 C335 1.398 . S
C336 C337 1.391 . S
C337 H325 0.950 . S
C337 C333 1.393 . S
C337 C336 1.391 . S
C338 H328 0.961 . S
C338 C339 1.368 1_565 S
C338 C340 1.398 . S
C339 C338 1.368 1_545 S
C339 C343 1.393 . S
C340 H329 0.950 . S
C340 C338 1.398 . S
C340 C341 1.400 1_565 S
C341 C335 1.491 1_545 S
C341 C340 1.400 1_545 S
C341 C342 1.398 . S
C342 H330 0.950 . S
C342 C341 1.398 . S
C342 C343 1.391 . S
C343 H331 0.950 . S
C343 C339 1.393 . S
C343 C342 1.391 . S
H344 C352 0.950 . S
H345 C357 0.950 . S
H346 C354 0.950 . S
H347 C356 0.950 . S
H348 C358 0.950 . S
H349 C360 0.950 . S
H350 C362 0.950 . S
H351 C363 0.950 . S
C352 H344 0.950 . S
C352 C353 1.386 1_556 S
C352 C354 1.391 . S
C353 C352 1.386 1_554 S
C353 C357 1.393 . S
C354 H346 0.950 . S
C354 C352 1.391 . S
C354 C355 1.400 1_556 S
C355 C354 1.400 1_554 S
C355 C356 1.398 . S
C355 C361 1.491 . S
C356 H347 0.950 . S
C356 C355 1.398 . S
C356 C357 1.391 . S
C357 H345 0.950 . S
C357 C353 1.393 . S
C357 C356 1.391 . S
C358 H348 0.950 . S
C358 C359 1.386 . S
C358 C360 1.391 . S
C359 C358 1.386 . S
C359 C363 1.393 1_554 S
C360 H349 0.950 . S
C360 C358 1.391 . S
C360 C361 1.400 . S
C361 C355 1.491 . S
C361 C360 1.400 . S
C361 C362 1.398 1_554 S
C362 H350 0.950 . S
C362 C361 1.398 1_556 S
C362 C363 1.391 . S
C363 H351 0.950 . S
C363 C359 1.393 1_556 S
C363 C362 1.391 . S
H364 C372 0.950 . S
H365 C377 0.950 . S
H366 C374 0.950 . S
H367 C376 0.950 . S
H368 C378 0.950 . S
H369 C380 0.950 . S
H370 C382 0.950 . S
H371 C383 0.950 . S
C372 H364 0.950 . S
C372 C373 1.386 . S
C372 C374 1.391 . S
C373 C372 1.386 . S
C373 C377 1.393 1_554 S
C374 H366 0.950 . S
C374 C372 1.391 . S
C374 C375 1.400 . S
C375 C374 1.400 . S
C375 C376 1.398 1_554 S
C375 C381 1.491 . S
C376 H367 0.950 . S
C376 C375 1.398 1_556 S
C376 C377 1.391 . S
C377 H365 0.950 . S
C377 C373 1.393 1_556 S
C377 C376 1.391 . S
C378 H368 0.950 . S
C378 C379 1.386 1_556 S
C378 C380 1.391 . S
C379 C378 1.386 1_554 S
C379 C383 1.393 . S
C380 H369 0.950 . S
C380 C378 1.391 . S
C380 C381 1.400 1_556 S
C381 C375 1.491 . S
C381 C380 1.400 1_554 S
C381 C382 1.398 . S
C382 H370 0.950 . S
C382 C381 1.398 . S
C382 C383 1.391 . S
C383 H371 0.950 . S
C383 C379 1.393 . S
C383 C382 1.391 . S
H384 C392 0.950 . S
H385 C397 0.950 . S
H386 C394 0.950 . S
H387 C396 0.950 . S
H388 C398 0.950 . S
H389 C400 0.950 . S
H390 C402 0.950 . S
H391 C403 0.950 . S
C392 H384 0.950 . S
C392 C393 1.386 1_556 S
C392 C394 1.391 . S
C393 C392 1.386 1_554 S
C393 C397 1.393 . S
C394 H386 0.950 . S
C394 C392 1.391 . S
C394 C395 1.400 1_556 S
C395 C394 1.400 1_554 S
C395 C396 1.398 . S
C395 C401 1.491 . S
C396 H387 0.950 . S
C396 C395 1.398 . S
C396 C397 1.391 . S
C397 H385 0.950 . S
C397 C393 1.393 . S
C397 C396 1.391 . S
C398 H388 0.950 . S
C398 C399 1.386 . S
C398 C400 1.391 . S
C399 C398 1.386 . S
C399 C403 1.393 1_554 S
C400 H389 0.950 . S
C400 C398 1.391 . S
C400 C401 1.400 . S
C401 C395 1.491 . S
C401 C400 1.400 . S
C401 C402 1.398 1_554 S
C402 H390 0.950 . S
C402 C401 1.398 1_556 S
C402 C403 1.391 . S
C403 H391 0.950 . S
C403 C399 1.393 1_556 S
C403 C402 1.391 . S
H404 C412 0.950 . S
H405 C417 0.950 . S
H406 C414 0.950 . S
H407 C416 0.950 . S
H408 C418 0.950 . S
H409 C420 0.950 . S
H410 C422 0.950 1_556 S
H411 C423 0.950 1_556 S
C412 H404 0.950 . S
C412 C413 1.386 . S
C412 C414 1.391 . S
C413 C412 1.386 . S
C413 C417 1.393 . S
C414 H406 0.950 . S
C414 C412 1.391 . S
C414 C415 1.400 . S
C415 C414 1.400 . S
C415 C416 1.398 . S
C415 C421 1.491 . S
C416 H407 0.950 . S
C416 C415 1.398 . S
C416 C417 1.391 . S
C417 H405 0.950 . S
C417 C413 1.393 . S
C417 C416 1.391 . S
C418 H408 0.950 . S
C418 C419 1.386 . S
C418 C420 1.391 . S
C419 C418 1.386 . S
C419 C423 1.393 . S
C420 H409 0.950 . S
C420 C418 1.391 . S
C420 C421 1.400 . S
C421 C415 1.491 . S
C421 C420 1.400 . S
C421 C422 1.398 . S
C422 H410 0.950 1_554 S
C422 C421 1.398 . S
C422 C423 1.391 . S
C423 H411 0.950 1_554 S
C423 C419 1.393 . S
C423 C422 1.391 . S
H424 C432 0.950 . S
H425 C437 0.950 . S
H426 C434 0.950 . S
H427 C436 0.950 . S
H428 C438 0.950 . S
H429 C440 0.950 . S
H430 C442 0.950 . S
H431 C443 0.950 . S
C432 H424 0.950 . S
C432 C433 1.386 . S
C432 C434 1.391 . S
C433 C432 1.386 . S
C433 C437 1.393 . S
C434 H426 0.950 . S
C434 C432 1.391 . S
C434 C435 1.400 . S
C435 C434 1.400 . S
C435 C436 1.398 . S
C435 C441 1.491 . S
C436 H427 0.950 . S
C436 C435 1.398 . S
C436 C437 1.391 . S
C437 H425 0.950 . S
C437 C433 1.393 . S
C437 C436 1.391 . S
C438 H428 0.950 . S
C438 C439 1.386 . S
C438 C440 1.391 . S
C439 C438 1.386 . S
C439 C443 1.393 . S
C440 H429 0.950 . S
C440 C438 1.391 . S
C440 C441 1.400 . S
C441 C435 1.491 . S
C441 C440 1.400 . S
C441 C442 1.398 . S
C442 H430 0.950 . S
C442 C441 1.398 . S
C442 C443 1.391 . S
C443 H431 0.950 . S
C443 C439 1.393 . S
C443 C442 1.391 . S
H444 C452 0.950 . S
H445 C457 0.950 . S
H446 C454 0.950 . S
H447 C456 0.950 . S
H448 C458 0.950 . S
H449 C460 0.950 . S
H450 C462 0.950 . S
H451 C463 0.950 . S
C452 H444 0.950 . S
C452 C453 1.386 . S
C452 C454 1.391 . S
C453 C452 1.386 . S
C453 C457 1.393 . S
C454 H446 0.950 . S
C454 C452 1.391 . S
C454 C455 1.400 . S
C455 C454 1.400 . S
C455 C456 1.398 . S
C455 C461 1.491 . S
C456 H447 0.950 . S
C456 C455 1.398 . S
C456 C457 1.391 . S
C457 H445 0.950 . S
C457 C453 1.393 . S
C457 C456 1.391 . S
C458 H448 0.950 . S
C458 C459 1.386 . S
C458 C460 1.391 . S
C459 C458 1.386 . S
C459 C463 1.393 . S
C460 H449 0.950 . S
C460 C458 1.391 . S
C460 C461 1.400 . S
C461 C455 1.491 . S
C461 C460 1.400 . S
C461 C462 1.398 . S
C462 H450 0.950 . S
C462 C461 1.398 . S
C462 C463 1.391 . S
C463 H451 0.950 . S
C463 C459 1.393 . S
C463 C462 1.391 . S
H464 C472 0.950 . S
H465 C477 0.950 . S
H466 C474 0.950 . S
H467 C476 0.950 . S
H468 C478 0.950 . S
H469 C480 0.950 . S
H470 C482 0.950 . S
H471 C483 0.950 . S
C472 H464 0.950 . S
C472 C473 1.386 . S
C472 C474 1.391 . S
C473 C472 1.386 . S
C473 C477 1.393 . S
C474 H466 0.950 . S
C474 C472 1.391 . S
C474 C475 1.400 . S
C475 C474 1.400 . S
C475 C476 1.398 . S
C475 C481 1.491 . S
C476 H467 0.950 . S
C476 C475 1.398 . S
C476 C477 1.391 . S
C477 H465 0.950 . S
C477 C473 1.393 . S
C477 C476 1.391 . S
C478 H468 0.950 . S
C478 C479 1.386 . S
C478 C480 1.391 . S
C479 C478 1.386 . S
C479 C483 1.393 . S
C480 H469 0.950 . S
C480 C478 1.391 . S
C480 C481 1.400 . S
C481 C475 1.491 . S
C481 C480 1.400 . S
C481 C482 1.398 . S
C482 H470 0.950 . S
C482 C481 1.398 . S
C482 C483 1.391 . S
C483 H471 0.950 . S
C483 C479 1.393 . S
C483 C482 1.391 . S
H484 C492 0.950 . S
H485 C497 0.950 . S
H486 C494 0.950 . S
H487 C496 0.950 . S
H488 C498 0.950 . S
H489 C500 0.950 . S
H490 C502 0.950 . S
H491 C503 0.950 . S
C492 H484 0.950 . S
C492 C493 1.386 . S
C492 C494 1.391 . S
C493 C492 1.386 . S
C493 C497 1.393 . S
C494 H486 0.950 . S
C494 C492 1.391 . S
C494 C495 1.400 . S
C495 C494 1.400 . S
C495 C496 1.398 . S
C495 C501 1.491 . S
C496 H487 0.950 . S
C496 C495 1.398 . S
C496 C497 1.391 . S
C497 H485 0.950 . S
C497 C493 1.393 . S
C497 C496 1.391 . S
C498 H488 0.950 . S
C498 C499 1.386 . S
C498 C500 1.391 . S
C499 C498 1.386 . S
C499 C503 1.393 . S
C500 H489 0.950 . S
C500 C498 1.391 . S
C500 C501 1.400 . S
C501 C495 1.491 . S
C501 C500 1.400 . S
C501 C502 1.398 . S
C502 H490 0.950 . S
C502 C501 1.398 . S
C502 C503 1.391 . S
C503 H491 0.950 . S
C503 C499 1.393 . S
C503 C502 1.391 . S
H504 C512 0.950 . S
H505 C517 0.950 . S
H506 C514 0.950 . S
H507 C516 0.950 . S
H508 C518 0.950 . S
H509 C520 0.950 . S
H510 C522 0.950 . S
H511 C523 0.950 . S
C512 H504 0.950 . S
C512 C513 1.386 . S
C512 C514 1.391 . S
C513 C512 1.386 . S
C513 C517 1.393 . S
C514 H506 0.950 . S
C514 C512 1.391 . S
C514 C515 1.400 . S
C515 C514 1.400 . S
C515 C516 1.398 . S
C515 C521 1.491 . S
C516 H507 0.950 . S
C516 C515 1.398 . S
C516 C517 1.391 . S
C517 H505 0.950 . S
C517 C513 1.393 . S
C517 C516 1.391 . S
C518 H508 0.950 . S
C518 C519 1.386 . S
C518 C520 1.391 . S
C519 C518 1.386 . S
C519 C523 1.393 . S
C520 H509 0.950 . S
C520 C518 1.391 . S
C520 C521 1.400 . S
C521 C515 1.491 . S
C521 C520 1.400 . S
C521 C522 1.398 . S
C522 H510 0.950 . S
C522 C521 1.398 . S
C522 C523 1.391 . S
C523 H511 0.950 . S
C523 C519 1.393 . S
C523 C522 1.391 . S
H524 C532 0.950 . S
H525 C537 0.950 . S
H526 C534 0.950 . S
H527 C536 0.950 . S
H528 C538 0.950 . S
H529 C540 0.950 . S
H530 C542 0.950 . S
H531 C543 0.950 . S
C532 H524 0.950 . S
C532 C533 1.386 . S
C532 C534 1.391 . S
C533 C532 1.386 . S
C533 C537 1.393 . S
C534 H526 0.950 . S
C534 C532 1.391 . S
C534 C535 1.400 . S
C535 C534 1.400 . S
C535 C536 1.398 . S
C535 C541 1.491 . S
C536 H527 0.950 . S
C536 C535 1.398 . S
C536 C537 1.391 . S
C537 H525 0.950 . S
C537 C533 1.393 . S
C537 C536 1.391 . S
C538 H528 0.950 . S
C538 C539 1.386 . S
C538 C540 1.391 . S
C539 C538 1.386 . S
C539 C543 1.393 . S
C540 H529 0.950 . S
C540 C538 1.391 . S
C540 C541 1.400 . S
C541 C535 1.491 . S
C541 C540 1.400 . S
C541 C542 1.398 . S
C542 H530 0.950 . S
C542 C541 1.398 . S
C542 C543 1.391 . S
C543 H531 0.950 . S
C543 C539 1.393 . S
C543 C542 1.391 . S
H544 C552 0.950 . S
H545 C557 0.950 . S
H546 C554 0.950 . S
H547 C556 0.950 . S
H548 C558 0.950 . S
H549 C560 0.950 . S
H550 C562 0.950 . S
H551 C563 0.950 . S
C552 H544 0.950 . S
C552 C553 1.386 . S
C552 C554 1.391 . S
C553 C552 1.386 . S
C553 C557 1.393 . S
C554 H546 0.950 . S
C554 C552 1.391 . S
C554 C555 1.400 . S
C555 C554 1.400 . S
C555 C556 1.398 . S
C555 C561 1.491 . S
C556 H547 0.950 . S
C556 C555 1.398 . S
C556 C557 1.391 . S
C557 H545 0.950 . S
C557 C553 1.393 . S
C557 C556 1.391 . S
C558 H548 0.950 . S
C558 C559 1.386 . S
C558 C560 1.391 . S
C559 C558 1.386 . S
C559 C563 1.393 . S
C560 H549 0.950 . S
C560 C558 1.391 . S
C560 C561 1.400 . S
C561 C555 1.491 . S
C561 C560 1.400 . S
C561 C562 1.398 . S
C562 H550 0.950 . S
C562 C561 1.398 . S
C562 C563 1.391 . S
C563 H551 0.950 . S
C563 C559 1.393 . S
C563 C562 1.391 . S
H564 C572 0.950 . S
H565 C577 0.950 . S
H566 C574 0.950 . S
H567 C576 0.950 . S
H568 C578 0.950 . S
H569 C580 0.950 . S
H570 C582 0.950 . S
H571 C583 0.950 . S
C572 H564 0.950 . S
C572 C573 1.386 . S
C572 C574 1.391 . S
C573 C572 1.386 . S
C573 C577 1.393 . S
C574 H566 0.950 . S
C574 C572 1.391 . S
C574 C575 1.400 . S
C575 C574 1.400 . S
C575 C576 1.398 . S
C575 C581 1.491 . S
C576 H567 0.950 . S
C576 C575 1.398 . S
C576 C577 1.391 . S
C577 H565 0.950 . S
C577 C573 1.393 . S
C577 C576 1.391 . S
C578 H568 0.950 . S
C578 C579 1.386 . S
C578 C580 1.391 . S
C579 C578 1.386 . S
C579 C583 1.393 . S
C580 H569 0.950 . S
C580 C578 1.391 . S
C580 C581 1.400 . S
C581 C575 1.491 . S
C581 C580 1.400 . S
C581 C582 1.398 . S
C582 H570 0.950 . S
C582 C581 1.398 . S
C582 C583 1.391 . S
C583 H571 0.950 . S
C583 C579 1.393 . S
C583 C582 1.391 . S
H584 C592 0.950 . S
H585 C597 0.950 . S
H586 C594 0.950 . S
H587 C596 0.950 . S
H588 C598 0.950 . S
H589 C600 0.950 . S
H590 C602 0.950 . S
H591 C603 0.950 . S
C592 H584 0.950 . S
C592 C593 1.386 . S
C592 C594 1.391 . S
C593 C592 1.386 . S
C593 C597 1.393 . S
C594 H586 0.950 . S
C594 C592 1.391 . S
C594 C595 1.400 . S
C595 C594 1.400 . S
C595 C596 1.398 . S
C595 C601 1.491 . S
C596 H587 0.950 . S
C596 C595 1.398 . S
C596 C597 1.391 . S
C597 H585 0.950 . S
C597 C593 1.393 . S
C597 C596 1.391 . S
C598 H588 0.950 . S
C598 C599 1.386 . S
C598 C600 1.391 . S
C599 C598 1.386 . S
C599 C603 1.393 . S
C600 H589 0.950 . S
C600 C598 1.391 . S
C600 C601 1.400 . S
C601 C595 1.491 . S
C601 C600 1.400 . S
C601 C602 1.398 . S
C602 H590 0.950 . S
C602 C601 1.398 . S
C602 C603 1.391 . S
C603 H591 0.950 . S
C603 C599 1.393 . S
C603 C602 1.391 . S
H604 C612 0.950 . S
H605 C617 0.950 . S
H606 C614 0.950 . S
H607 C616 0.950 . S
H608 C618 0.950 . S
H609 C620 0.950 . S
H610 C622 0.950 . S
H611 C623 0.950 . S
C612 H604 0.950 . S
C612 C613 1.386 . S
C612 C614 1.391 . S
C613 C612 1.386 . S
C613 C617 1.393 . S
C614 H606 0.950 . S
C614 C612 1.391 . S
C614 C615 1.400 . S
C615 C614 1.400 . S
C615 C616 1.398 . S
C615 C621 1.491 . S
C616 H607 0.950 . S
C616 C615 1.398 . S
C616 C617 1.391 . S
C617 H605 0.950 . S
C617 C613 1.393 . S
C617 C616 1.391 . S
C618 H608 0.950 . S
C618 C619 1.386 . S
C618 C620 1.391 . S
C619 C618 1.386 . S
C619 C623 1.393 . S
C620 H609 0.950 . S
C620 C618 1.391 . S
C620 C621 1.400 . S
C621 C615 1.491 . S
C621 C620 1.400 . S
C621 C622 1.398 . S
C622 H610 0.950 . S
C622 C621 1.398 . S
C622 C623 1.391 . S
C623 H611 0.950 . S
C623 C619 1.393 . S
C623 C622 1.391 . S
H624 C632 0.950 . S
H625 C637 0.950 . S
H626 C634 0.950 . S
H627 C636 0.950 . S
H628 C638 0.950 . S
H629 C640 0.950 . S
H630 C642 0.950 . S
H631 C643 0.950 . S
C632 H624 0.950 . S
C632 C633 1.386 . S
C632 C634 1.391 . S
C633 C632 1.386 . S
C633 C637 1.393 . S
C634 H626 0.950 . S
C634 C632 1.391 . S
C634 C635 1.400 . S
C635 C634 1.400 . S
C635 C636 1.398 . S
C635 C641 1.491 . S
C636 H627 0.950 . S
C636 C635 1.398 . S
C636 C637 1.391 . S
C637 H625 0.950 . S
C637 C633 1.393 . S
C637 C636 1.391 . S
C638 H628 0.950 . S
C638 C639 1.386 . S
C638 C640 1.391 . S
C639 C638 1.386 . S
C639 C643 1.393 . S
C640 H629 0.950 . S
C640 C638 1.391 . S
C640 C641 1.400 . S
C641 C635 1.491 . S
C641 C640 1.400 . S
C641 C642 1.398 . S
C642 H630 0.950 . S
C642 C641 1.398 . S
C642 C643 1.391 . S
C643 H631 0.950 . S
C643 C639 1.393 . S
C643 C642 1.391 . S
H644 C652 0.950 . S
H645 C657 0.950 . S
H646 C654 0.950 . S
H647 C656 0.950 . S
H648 C658 0.950 . S
H649 C660 0.950 . S
H650 C662 0.950 . S
H651 C663 0.950 . S
C652 H644 0.950 . S
C652 C653 1.386 . S
C652 C654 1.391 . S
C653 C652 1.386 . S
C653 C657 1.393 . S
C654 H646 0.950 . S
C654 C652 1.391 . S
C654 C655 1.400 . S
C655 C654 1.400 . S
C655 C656 1.398 . S
C655 C661 1.491 . S
C656 H647 0.950 . S
C656 C655 1.398 . S
C656 C657 1.391 . S
C657 H645 0.950 . S
C657 C653 1.393 . S
C657 C656 1.391 . S
C658 H648 0.950 . S
C658 C659 1.386 . S
C658 C660 1.391 . S
C659 C658 1.386 . S
C659 C663 1.393 . S
C660 H649 0.950 . S
C660 C658 1.391 . S
C660 C661 1.400 . S
C661 C655 1.491 . S
C661 C660 1.400 . S
C661 C662 1.398 . S
C662 H650 0.950 . S
C662 C661 1.398 . S
C662 C663 1.391 . S
C663 H651 0.950 . S
C663 C659 1.393 . S
C663 C662 1.391 . S
C273 N79 1.304 1_556 S
C279 N13 1.284 1_556 S
C293 N46 1.300 1_556 S
C299 N112 1.289 1_556 S
C313 N145 1.281 . S
C319 N211 1.304 . S
C333 N178 1.280 . S
C339 N244 1.306 . S
C353 C120 1.556 . S
C359 N2 1.503 . S
C373 C21 1.554 . S
C379 N35 1.497 . S
C393 N68 1.512 . S
C399 C54 1.556 . S
C413 N101 1.515 . S
C419 C87 1.555 . S
C433 C186 1.556 . S
C439 N134 1.507 . S
C453 C219 1.556 . S
C459 N167 1.511 . S
C473 C252 1.554 . S
C479 N200 1.495 . S
C493 C153 1.555 . S
C499 N233 1.514 . S
C513 C7 1.507 . S
C519 C238 1.507 . S
C533 C40 1.507 . S
C539 C139 1.510 . S
C553 C172 1.507 . S
C559 C73 1.506 . S
C573 C205 1.507 . S
C579 C106 1.510 . S
C593 C84 1.447 . S
C599 C183 1.451 . S
C613 C216 1.451 . S
C619 C117 1.451 . S
C633 C249 1.445 . S
C639 C18 1.447 . S
C653 C150 1.449 . S
C659 C51 1.452 . S
