# Generated by pormake.
# Topology wni, (7)-cn, num edge types: 1
# Building blocks:
#     Node 0, Type 0, BuildingBlock: NUHQUE_clean_sbu_2, # of connection points: 7
#     Node 1, Type 0, BuildingBlock: NUHQUE_clean_sbu_2, # of connection points: 7
#     Node 2, Type 0, BuildingBlock: NUHQUE_clean_sbu_2, # of connection points: 7
#     Node 3, Type 0, BuildingBlock: NUHQUE_clean_sbu_2, # of connection points: 7
#     Node 4, Type 0, BuildingBlock: NUHQUE_clean_sbu_2, # of connection points: 7
#     Node 5, Type 0, BuildingBlock: NUHQUE_clean_sbu_2, # of connection points: 7
#     Edge 6, Type (0, 0), BuildingBlock: KIFKEQ_clean_linker_1, # of connection points: 2
#     Edge 7, Type (0, 0), BuildingBlock: KIFKEQ_clean_linker_1, # of connection points: 2
#     Edge 8, Type (0, 0), BuildingBlock: KIFKEQ_clean_linker_1, # of connection points: 2
#     Edge 9, Type (0, 0), BuildingBlock: KIFKEQ_clean_linker_1, # of connection points: 2
#     Edge 10, Type (0, 0), BuildingBlock: KIFKEQ_clean_linker_1, # of connection points: 2
#     Edge 11, Type (0, 0), BuildingBlock: KIFKEQ_clean_linker_1, # of connection points: 2
#     Edge 12, Type (0, 0), BuildingBlock: KIFKEQ_clean_linker_1, # of connection points: 2
#     Edge 13, Type (0, 0), BuildingBlock: KIFKEQ_clean_linker_1, # of connection points: 2
#     Edge 14, Type (0, 0), BuildingBlock: KIFKEQ_clean_linker_1, # of connection points: 2
#     Edge 15, Type (0, 0), BuildingBlock: KIFKEQ_clean_linker_1, # of connection points: 2
#     Edge 16, Type (0, 0), BuildingBlock: KIFKEQ_clean_linker_1, # of connection points: 2
#     Edge 17, Type (0, 0), BuildingBlock: KIFKEQ_clean_linker_1, # of connection points: 2
#     Edge 18, Type (0, 0), BuildingBlock: KIFKEQ_clean_linker_1, # of connection points: 2
#     Edge 19, Type (0, 0), BuildingBlock: KIFKEQ_clean_linker_1, # of connection points: 2
#     Edge 20, Type (0, 0), BuildingBlock: KIFKEQ_clean_linker_1, # of connection points: 2
#     Edge 21, Type (0, 0), BuildingBlock: KIFKEQ_clean_linker_1, # of connection points: 2
#     Edge 22, Type (0, 0), BuildingBlock: KIFKEQ_clean_linker_1, # of connection points: 2
#     Edge 23, Type (0, 0), BuildingBlock: KIFKEQ_clean_linker_1, # of connection points: 2
#     Edge 24, Type (0, 0), BuildingBlock: KIFKEQ_clean_linker_1, # of connection points: 2
#     Edge 25, Type (0, 0), BuildingBlock: KIFKEQ_clean_linker_1, # of connection points: 2
#     Edge 26, Type (0, 0), BuildingBlock: KIFKEQ_clean_linker_1, # of connection points: 2
# Relax obj value: 0.269
# Max RMSD: 0.304
# Mean RMSD: 0.304
data_MOF--net-wni--node1-NUHQUE_clean_sbu_2--edge1-KIFKEQ_clean_linker_1
_symmetry_space_group_name_H-M    P1
_symmetry_Int_Tables_number       1
_symmetry_cell_setting            triclinic
loop_
_symmetry_equiv_pos_as_xyz
'x, y, z'
_cell_length_a     35.925954
_cell_length_b     35.867951
_cell_length_c     31.16023
_cell_angle_alpha  90.175857
_cell_angle_beta   89.929794
_cell_angle_gamma 120.31014
loop_
_atom_site_label
_atom_site_type_symbol
_atom_site_fract_x
_atom_site_fract_y
_atom_site_fract_z
_atom_type_partial_charge
O0 O 0.29318 0.50001 0.01444 0.0
Tb1 Tb 0.27242 0.46496 0.07437 0.0
Eu2 Eu 0.18083 0.39528 0.12931 0.0
C3 C 0.30462 0.54101 0.0123 0.0
O4 O 0.29843 0.55973 0.04561 0.0
C5 C 0.23047 0.36623 0.06904 0.0
O6 O 0.13816 0.36484 0.18726 0.0
C7 C 0.13512 0.39839 0.06635 0.0
C8 C 0.12322 0.38706 0.20712 0.0
O9 O 0.13352 0.42528 0.19212 0.0
C10 C 0.23342 0.49586 0.14475 0.0
C11 C 0.10566 0.41284 0.0511 0.0
C12 C 0.09844 0.4114 0.00675 0.0
C13 C 0.06778 0.42064 0.98974 0.0
C14 C 0.04513 0.43243 0.01826 0.0
C15 C 0.05273 0.43543 0.06277 0.0
C16 C 0.08328 0.42551 0.07918 0.0
O17 O 0.23688 0.4003 0.04727 0.0
O18 O 0.21589 0.36076 0.10867 0.0
O19 O 0.34227 0.49373 0.07467 0.0
O20 O 0.30704 0.45798 0.12924 0.0
C21 C 0.34544 0.48041 0.11241 0.0
O22 O 0.21904 0.45862 0.16416 0.0
O23 O 0.24487 0.5005 0.1042 0.0
O24 O 0.12015 0.36689 0.09449 0.0
O25 O 0.17577 0.42772 0.0723 0.0
H26 H 0.11681 0.40267 0.98559 0.0
H27 H 1.02102 0.43919 0.00591 0.0
H28 H 0.08888 0.42665 0.11344 0.0
O29 O 0.52405 0.7945 0.69408 0.0
Tb30 Tb 0.57048 0.81656 0.74591 0.0
Eu31 Eu 0.6398 0.78679 0.79366 0.0
C32 C 0.53329 0.81505 0.65728 0.0
O33 O 0.57271 0.84699 0.65044 0.0
C34 C 0.66777 0.86608 0.73477 0.0
O35 O 0.6768 0.77479 0.84533 0.0
C36 C 0.62878 0.73694 0.72841 0.0
C37 C 0.66966 0.77684 0.88651 0.0
O38 O 0.64181 0.78844 0.89821 0.0
C39 C 0.54029 0.74571 0.81726 0.0
C40 C 0.61323 0.69244 0.71351 0.0
C41 C 0.61434 0.68611 0.66925 0.0
C42 C 0.60491 0.64585 0.65252 0.0
C43 C 0.59279 0.61143 0.68119 0.0
C44 C 0.5901 0.61655 0.72569 0.0
C45 C 0.60052 0.65752 0.74184 0.0
O46 O 0.63215 0.83868 0.71476 0.0
O47 O 0.67466 0.85688 0.77373 0.0
O48 O 0.55524 0.86817 0.7445 0.0
O49 O 0.57854 0.85663 0.80267 0.0
C50 C 0.56499 0.88026 0.78421 0.0
O51 O 0.57946 0.76222 0.83307 0.0
O52 O 0.53284 0.75527 0.77866 0.0
O53 O 0.6639 0.75509 0.75194 0.0
O54 O 0.60014 0.74749 0.74001 0.0
H55 H 0.62324 0.71315 0.64795 0.0
H56 H 0.58573 0.58028 0.66899 0.0
H57 H 0.59985 0.66249 0.77609 0.0
O58 O 0.24648 0.73944 0.35562 0.0
Tb59 Tb 0.22423 0.76168 0.40912 0.0
Eu60 Eu 0.24692 0.85554 0.46054 0.0
C61 C 0.22421 0.72624 0.3198 0.0
O62 O 0.19051 0.73097 0.31487 0.0
C63 C 0.16848 0.80342 0.40034 0.0
O64 O 0.25642 0.90007 0.51633 0.0
C65 C 0.29627 0.89891 0.39657 0.0
C66 C 0.29591 0.92576 0.53045 0.0
O67 O 0.32779 0.92406 0.51171 0.0
C68 C 0.29459 0.80378 0.48006 0.0
C69 C 0.3407 0.9274 0.38144 0.0
C70 C 0.34637 0.93985 0.33827 0.0
C71 C 0.38767 0.96668 0.32155 0.0
C72 C 0.42353 0.9816 0.34862 0.0
C73 C 0.41882 0.96978 0.39221 0.0
C74 C 0.37692 0.94222 0.40845 0.0
O75 O 0.19652 0.79694 0.37944 0.0
O76 O 0.17724 0.81876 0.43976 0.0
O77 O 0.17639 0.693 0.40821 0.0
O78 O 0.18598 0.72801 0.46622 0.0
C79 C 0.16433 0.69012 0.44792 0.0
O80 O 0.27323 0.82054 0.49809 0.0
O81 O 0.28695 0.78969 0.4402 0.0
O82 O 0.28008 0.91511 0.42367 0.0
O83 O 0.28428 0.85841 0.40419 0.0
H84 H 0.31848 0.92819 0.31743 0.0
H85 H 0.45516 1.00381 0.33573 0.0
H86 H 0.37248 0.93218 0.44167 0.0
O87 O 0.51225 0.2878 0.98062 0.0
Tb88 Tb 0.47175 0.26494 0.92405 0.0
Eu89 Eu 0.40302 0.16865 0.87251 0.0
C90 C 0.50151 0.30438 0.01266 0.0
O91 O 0.46438 0.30323 0.01121 0.0
C92 C 0.37351 0.21889 0.93119 0.0
O93 O 0.36915 0.12369 0.81654 0.0
C94 C 0.40839 0.12535 0.93655 0.0
C95 C 0.37807 0.13751 0.77667 0.0
O96 O 0.40486 0.17875 0.76971 0.0
C97 C 0.50416 0.22434 0.8556 0.0
C98 C 0.42608 0.0985 0.95147 0.0
C99 C 0.42011 0.08626 0.99472 0.0
C100 C 0.43618 0.06085 0.01145 0.0
C101 C 0.45886 0.04812 0.98404 0.0
C102 C 0.46463 0.0594 0.94034 0.0
C103 C 0.44795 0.08468 0.92404 0.0
O104 O 0.40823 0.22663 0.9524 0.0
O105 O 0.36761 0.20325 0.89195 0.0
O106 O 0.49103 0.33319 0.92354 0.0
O107 O 0.46721 0.29717 0.86588 0.0
C108 C 0.48244 0.33522 0.88349 0.0
O109 O 0.466 0.20448 0.83715 0.0
O110 O 0.50981 0.24005 0.8948 0.0
O111 O 0.3772 0.10846 0.90804 0.0
O112 O 0.43576 0.1666 0.93051 0.0
H113 H 0.40203 0.09598 0.01517 0.0
H114 H 0.47159 0.02866 0.99659 0.0
H115 H 0.45214 0.09371 0.89046 0.0
O116 O 0.74547 0.22321 0.6534 0.0
Tb117 Tb 0.76852 0.21599 0.59145 0.0
Eu118 Eu 0.86149 0.23764 0.53872 0.0
C119 C 0.74103 0.25659 0.66221 0.0
O120 O 0.75543 0.28871 0.63486 0.0
C121 C 0.80928 0.15853 0.59857 0.0
O122 O 0.90448 0.2494 0.48117 0.0
C123 C 0.90733 0.28712 0.60174 0.0
C124 C 0.92024 0.2868 0.46145 0.0
O125 O 0.91048 0.31511 0.47635 0.0
C126 C 0.81053 0.28631 0.5221 0.0
C127 C 0.93738 0.3317 0.61581 0.0
C128 C 0.94933 0.33829 0.65921 0.0
C129 C 0.97979 0.37945 0.67482 0.0
C130 C 0.99705 0.41428 0.64596 0.0
C131 C 0.98403 0.40872 0.60279 0.0
C132 C 0.95468 0.36698 0.58746 0.0
O133 O 0.80217 0.18598 0.62001 0.0
O134 O 0.82501 0.16786 0.55934 0.0
O135 O 0.73552 0.166 0.54185 0.0
O136 O 0.69942 0.18559 0.58022 0.0
C137 C 0.69711 0.15991 0.54958 0.0
O138 O 0.82443 0.26294 0.50306 0.0
O139 O 0.79886 0.27983 0.56259 0.0
O140 O 0.92185 0.26963 0.57422 0.0
O141 O 0.86695 0.27611 0.59527 0.0
H142 H 0.93453 0.31091 0.68074 0.0
H143 H 1.02162 0.44608 0.65659 0.0
H144 H 0.94501 0.3621 0.55404 0.0
O145 O 0.79856 0.51353 0.3071 0.0
Tb146 Tb 0.82082 0.55851 0.25403 0.0
Eu147 Eu 0.79693 0.6309 0.20416 0.0
C148 C 0.82008 0.52331 0.34342 0.0
O149 O 0.85301 0.56251 0.34893 0.0
C150 C 0.87593 0.65657 0.26299 0.0
O151 O 0.78795 0.66852 0.15089 0.0
C152 C 0.74788 0.62476 0.26833 0.0
C153 C 0.78643 0.65805 0.1101 0.0
O154 O 0.79321 0.62652 0.09944 0.0
C155 C 0.74791 0.53023 0.18492 0.0
C156 C 0.70293 0.60896 0.2813 0.0
C157 C 0.69501 0.61237 0.32477 0.0
C158 C 0.65349 0.60083 0.33936 0.0
C159 C 0.61955 0.58403 0.30944 0.0
C160 C 0.62648 0.57868 0.26607 0.0
C161 C 0.66857 0.59206 0.25174 0.0
O162 O 0.84778 0.62183 0.28372 0.0
O163 O 0.86686 0.66346 0.22397 0.0
O164 O 0.87029 0.54037 0.25536 0.0
O165 O 0.85712 0.56075 0.19621 0.0
C166 C 0.88041 0.54699 0.215 0.0
O167 O 0.76811 0.56868 0.16713 0.0
O168 O 0.75783 0.523 0.22348 0.0
O169 O 0.76562 0.65804 0.24234 0.0
O170 O 0.75911 0.59584 0.26023 0.0
H171 H 0.7217 0.62429 0.34713 0.0
H172 H 0.58744 0.57596 0.31933 0.0
H173 H 0.67447 0.589 0.21814 0.0
H174 H 0.61313 0.61512 0.19512 0.0
H175 H 0.55424 0.50006 0.27261 0.0
H176 H 0.54528 0.5891 0.15623 0.0
H177 H 0.48693 0.4729 0.23292 0.0
H178 H 0.36 0.46526 0.19511 0.0
H179 H 0.42941 0.48654 0.22862 0.0
H180 H 0.49363 0.53926 0.10776 0.0
H181 H 0.42448 0.51946 0.07509 0.0
C182 C 0.58597 0.58365 0.20286 0.0
C183 C 0.58879 0.55957 0.23675 0.0
C184 C 0.54698 0.56863 0.18068 0.0
C185 C 0.51015 0.52901 0.19173 0.0
C186 C 0.51406 0.50399 0.22417 0.0
C187 C 0.55278 0.51924 0.24657 0.0
C188 C 0.389 0.48123 0.17581 0.0
C189 C 0.38686 0.49081 0.13261 0.0
C190 C 0.42886 0.49323 0.19484 0.0
C191 C 0.46746 0.51473 0.17097 0.0
C192 C 0.46491 0.52347 0.12744 0.0
C193 C 0.42516 0.51183 0.10859 0.0
H194 H 0.54108 0.93296 0.74614 0.0
H195 H 0.57091 0.90054 0.86968 0.0
H196 H 0.52241 0.98253 0.78045 0.0
H197 H 0.55103 0.94922 0.90443 0.0
H198 H 0.54024 0.06078 0.95521 0.0
H199 H 0.56957 0.02259 0.91567 0.0
H200 H 0.46596 0.97943 0.82351 0.0
H201 H 0.43725 0.01844 0.86281 0.0
C202 C 0.54385 0.93664 0.78071 0.0
C203 C 0.55737 0.91284 0.80529 0.0
C204 C 0.53283 0.96485 0.80043 0.0
C205 C 0.53486 0.96982 0.8453 0.0
C206 C 0.54956 0.94675 0.86976 0.0
C207 C 0.5608 0.91865 0.84994 0.0
C208 C 0.5241 0.04358 0.92614 0.0
C209 C 0.48626 0.04237 0.91226 0.0
C210 C 0.54073 0.02141 0.90363 0.0
C211 C 0.51986 0.99728 0.86668 0.0
C212 C 0.48319 0.99791 0.8516 0.0
C213 C 0.46668 0.02033 0.87406 0.0
H214 H 0.14453 0.67522 0.53331 0.0
H215 H 0.11372 0.61242 0.40954 0.0
H216 H 0.09664 0.60603 0.56767 0.0
H217 H 0.06469 0.54351 0.44342 0.0
H218 H 0.02506 0.42123 0.5254 0.0
H219 H 0.06556 0.48933 0.48638 0.0
H220 H 0.02399 0.55138 0.57833 0.0
H221 H 0.98493 0.48376 0.6177 0.0
C222 C 0.12699 0.6467 0.51345 0.0
C223 C 0.13292 0.64916 0.46885 0.0
C224 C 0.09931 0.60699 0.53303 0.0
C225 C 0.07665 0.5689 0.50837 0.0
C226 C 0.08202 0.57183 0.46356 0.0
C227 C 0.10991 0.61144 0.44409 0.0
C228 C 0.02405 0.44931 0.53665 0.0
C229 C 1.00222 0.44737 0.5747 0.0
C230 C 0.04725 0.48842 0.51438 0.0
C231 C 0.04871 0.52626 0.52952 0.0
C232 C 0.02468 0.52338 0.56629 0.0
C233 C 1.00192 0.48452 0.58866 0.0
H234 H 0.53318 0.58933 0.79357 0.0
H235 H 0.61628 0.5571 0.72211 0.0
H236 H 0.50399 0.52096 0.83289 0.0
H237 H 0.58635 0.48883 0.7602 0.0
H238 H 0.48691 0.3503 0.79709 0.0
H239 H 0.51274 0.41995 0.76145 0.0
H240 H 0.52845 0.48155 0.88466 0.0
H241 H 0.50306 0.41209 0.92022 0.0
C242 C 0.54561 0.56803 0.78664 0.0
C243 C 0.57655 0.57842 0.75417 0.0
C244 C 0.5287 0.52877 0.80891 0.0
C245 C 0.54217 0.49909 0.79886 0.0
C246 C 0.57445 0.51045 0.76782 0.0
C247 C 0.59165 0.54968 0.74607 0.0
C248 C 0.49537 0.37863 0.81644 0.0
C249 C 0.49314 0.37586 0.86135 0.0
C250 C 0.51041 0.41852 0.79614 0.0
C251 C 0.52295 0.45629 0.82033 0.0
C252 C 0.5189 0.45306 0.86518 0.0
C253 C 0.50448 0.41332 0.88548 0.0
H254 H 0.42726 0.99783 0.47594 0.0
H255 H 0.49945 0.98432 0.37213 0.0
H256 H 0.49351 0.03791 0.51722 0.0
H257 H 0.56584 0.02732 0.41156 0.0
H258 H 0.68147 0.09053 0.49935 0.0
H259 H 0.61295 0.03746 0.4667 0.0
H260 H 0.55322 0.10679 0.5183 0.0
H261 H 0.62078 0.15779 0.55256 0.0
C262 C 0.45713 1.00299 0.46202 0.0
C263 C 0.45793 0.98849 0.42024 0.0
C264 C 0.49542 0.02673 0.48543 0.0
C265 C 0.53559 0.03705 0.46751 0.0
C266 C 0.53588 0.02022 0.42677 0.0
C267 C 0.49762 0.99596 0.40373 0.0
C268 C 0.65352 0.09415 0.50364 0.0
C269 C 0.65642 0.12829 0.5283 0.0
C270 C 0.61418 0.06383 0.48485 0.0
C271 C 0.57705 0.06746 0.48974 0.0
C272 C 0.58044 0.10196 0.51448 0.0
C273 C 0.61946 0.13168 0.53377 0.0
H274 H 0.9668 0.40822 0.05954 0.0
H275 H 0.08298 0.49393 0.12951 0.0
H276 H 0.92864 0.43881 0.09656 0.0
H277 H 0.04405 0.52392 0.16767 0.0
H278 H 0.93679 0.52808 0.25336 0.0
H279 H 0.9804 0.5014 0.21947 0.0
H280 H 0.93392 0.51222 0.09509 0.0
H281 H 0.89052 0.53925 0.12904 0.0
C282 C 0.98419 0.43352 0.08301 0.0
C283 C 0.02821 0.44919 0.09096 0.0
C284 C 0.9623 0.45112 0.10412 0.0
C285 C 0.98357 0.48442 0.1343 0.0
C286 C 0.02689 0.49842 0.14434 0.0
C287 C 0.04908 0.48106 0.12274 0.0
C288 C 0.93637 0.52529 0.21871 0.0
C289 C 0.91018 0.53558 0.19378 0.0
C290 C 0.96142 0.51013 0.19936 0.0
C291 C 0.96027 0.50433 0.1547 0.0
C292 C 0.93503 0.51587 0.12967 0.0
C293 C 0.91043 0.53161 0.149 0.0
H294 H 0.30656 0.22394 0.89429 0.0
H295 H 0.37179 0.2393 0.01505 0.0
H296 H 0.26292 0.25093 0.9277 0.0
H297 H 0.32932 0.26696 0.04787 0.0
H298 H 0.23401 0.29824 0.10558 0.0
H299 H 0.25971 0.25353 0.07209 0.0
H300 H 0.27794 0.32118 0.95243 0.0
H301 H 0.25163 0.36483 0.98534 0.0
C302 C 0.3112 0.2325 0.92801 0.0
C303 C 0.34298 0.22988 0.95181 0.0
C304 C 0.2864 0.24822 0.94714 0.0
C305 C 0.29276 0.26144 0.99048 0.0
C306 C 0.3231 0.2567 0.01464 0.0
C307 C 0.34784 0.24117 0.99558 0.0
C308 C 0.24281 0.30299 0.07195 0.0
C309 C 0.2411 0.3354 0.04833 0.0
C310 C 0.25777 0.27755 0.05278 0.0
C311 C 0.27117 0.28387 0.00955 0.0
C312 C 0.26747 0.31494 0.98556 0.0
C313 C 0.25269 0.34033 0.00467 0.0
H314 H 0.78704 0.13544 0.68203 0.0
H315 H 0.80557 0.08696 0.56162 0.0
H316 H 0.76046 0.06499 0.71442 0.0
H317 H 0.77939 1.01612 0.5945 0.0
H318 H 0.7348 0.93905 0.77121 0.0
H319 H 0.77725 1.01031 0.73815 0.0
H320 H 0.70883 0.95912 0.61885 0.0
H321 H 0.66725 0.88829 0.65141 0.0
C322 C 0.78607 0.1099 0.66256 0.0
C323 C 0.79811 0.11682 0.61904 0.0
C324 C 0.77112 0.06948 0.68134 0.0
C325 C 0.76762 0.03477 0.6571 0.0
C326 C 0.78125 0.04207 0.61397 0.0
C327 C 0.79647 0.08272 0.59517 0.0
C328 C 0.7294 0.94292 0.73774 0.0
C329 C 0.69736 0.90807 0.71411 0.0
C330 C 0.75353 0.98378 0.71885 0.0
C331 C 0.74631 0.99054 0.67587 0.0
C332 C 0.71564 0.95511 0.65181 0.0
C333 C 0.69147 0.91447 0.67069 0.0
H334 H 0.89863 0.65614 0.34631 0.0
H335 H 0.94862 0.72369 0.22659 0.0
H336 H 0.96931 0.69851 0.37899 0.0
H337 H 1.0197 0.76696 0.25977 0.0
H338 H 0.14603 0.78073 0.31673 0.0
H339 H 0.07547 0.75216 0.28394 0.0
H340 H 0.02509 0.76959 0.40351 0.0
H341 H 0.096 0.79765 0.43678 0.0
C342 C 0.9246 0.68048 0.32705 0.0
C343 C 0.918 0.68619 0.28363 0.0
C344 C 0.96516 0.70511 0.34599 0.0
C345 C 1.00032 0.73611 0.32204 0.0
C346 C 0.9934 0.743 0.27901 0.0
C347 C 0.95263 0.7184 0.26004 0.0
C348 C 0.1201 0.77894 0.33604 0.0
C349 C 0.12663 0.79111 0.37958 0.0
C350 C 0.07961 0.76285 0.31704 0.0
C351 C 0.04446 0.75836 0.34107 0.0
C352 C 0.05136 0.77214 0.3842 0.0
C353 C 0.09205 0.78847 0.40323 0.0
H354 H 0.96619 0.24893 0.43318 0.0
H355 H 0.93801 0.34953 0.40309 0.0
H356 H 1.01643 0.27155 0.37253 0.0
H357 H 0.98613 0.37079 0.342 0.0
H358 H 0.10765 0.43327 0.26609 0.0
H359 H 0.05974 0.40709 0.32743 0.0
H360 H 0.02562 0.27609 0.29611 0.0
H361 H 0.07564 0.30298 0.23524 0.0
C362 C 0.97035 0.2755 0.41334 0.0
C363 C 0.94852 0.29775 0.42325 0.0
C364 C 0.99901 0.2884 0.37845 0.0
C365 C 1.00605 0.32354 0.35254 0.0
C366 C 0.98279 0.34453 0.36181 0.0
C367 C 0.95481 0.33209 0.3968 0.0
C368 C 0.09007 0.39885 0.27228 0.0
C369 C 0.09518 0.37017 0.24554 0.0
C370 C 0.06221 0.38371 0.3074 0.0
C371 C 0.03793 0.33926 0.3165 0.0
C372 C 0.04385 0.31053 0.29033 0.0
C373 C 0.07238 0.32588 0.25531 0.0
H374 H 0.73184 0.75491 0.87435 0.0
H375 H 0.6549 0.76837 0.97307 0.0
H376 H 0.76388 0.7301 0.92791 0.0
H377 H 0.68582 0.74235 0.02632 0.0
H378 H 0.77315 0.7265 0.1199 0.0
H379 H 0.74891 0.75868 0.06592 0.0
H380 H 0.74554 0.6687 0.97128 0.0
H381 H 0.77101 0.63754 0.02484 0.0
C382 C 0.72176 0.75262 0.90748 0.0
C383 C 0.69074 0.76363 0.91933 0.0
C384 C 0.73995 0.73809 0.93822 0.0
C385 C 0.72742 0.73397 0.9816 0.0
C386 C 0.69684 0.74566 0.99345 0.0
C387 C 0.67884 0.76038 0.96277 0.0
C388 C 0.76759 0.71383 0.08747 0.0
C389 C 0.77402 0.67937 0.07679 0.0
C390 C 0.75337 0.7321 0.05652 0.0
C391 C 0.74498 0.71625 0.01411 0.0
C392 C 0.7522 0.68227 0.00334 0.0
C393 C 0.76661 0.66417 0.03422 0.0
H394 H 0.31855 0.05062 0.7781 0.0
H395 H 0.40023 0.15444 0.69213 0.0
H396 H 0.29589 0.99939 0.71814 0.0
H397 H 0.37766 0.10339 0.63262 0.0
H398 H 0.37417 0.99236 0.55497 0.0
H399 H 0.39063 0.04311 0.6138 0.0
H400 H 0.25556 0.98036 0.64655 0.0
H401 H 0.23882 0.9292 0.58711 0.0
C402 C 0.33137 0.0626 0.74642 0.0
C403 C 0.36139 0.10666 0.74003 0.0
C404 C 0.31824 0.03327 0.71206 0.0
C405 C 0.33523 0.04728 0.67069 0.0
C406 C 0.36439 0.09147 0.66419 0.0
C407 C 0.37715 0.12079 0.69834 0.0
C408 C 0.34785 0.98928 0.57458 0.0
C409 C 0.30513 0.95667 0.56626 0.0
C410 C 0.35731 0.01861 0.6082 0.0
C411 C 0.3244 1.01592 0.63476 0.0
C412 C 0.28163 0.98313 0.62675 0.0
C413 C 0.27204 0.954 0.59261 0.0
H414 H 0.32281 0.62185 0.98915 0.0
H415 H 0.34985 0.52075 0.95604 0.0
H416 H 0.3777 0.67011 0.93792 0.0
H417 H 0.40511 0.56931 0.90565 0.0
H418 H 0.54045 0.69444 0.88166 0.0
H419 H 0.47876 0.64198 0.9239 0.0
H420 H 0.39521 0.674 0.85367 0.0
H421 H 0.45667 0.72595 0.81074 0.0
C422 C 0.33994 0.60975 0.97045 0.0
C423 C 0.33219 0.56765 0.97669 0.0
C424 C 0.37123 0.6373 0.9412 0.0
C425 C 0.39572 0.62336 0.91837 0.0
C426 C 0.38677 0.58076 0.92324 0.0
C427 C 0.35496 0.55297 0.95184 0.0
C428 C 0.50892 0.69023 0.8752 0.0
C429 C 0.5033 0.71421 0.84296 0.0
C430 C 0.47367 0.66007 0.89911 0.0
C431 C 0.43242 0.65402 0.89174 0.0
C432 C 0.42679 0.6782 0.85981 0.0
C433 C 0.46187 0.70774 0.83529 0.0
H434 H 0.3098 0.81522 0.56624 0.0
H435 H 0.35746 0.78924 0.44912 0.0
H436 H 0.36714 0.81361 0.60652 0.0
H437 H 0.415 0.78789 0.48965 0.0
H438 H 0.54001 0.8492 0.57721 0.0
H439 H 0.48135 0.84328 0.53249 0.0
H440 H 0.38853 0.75781 0.62552 0.0
H441 H 0.4468 0.7634 0.67012 0.0
C442 C 0.33244 0.8091 0.5491 0.0
C443 C 0.32904 0.80229 0.50451 0.0
C444 C 0.36508 0.80791 0.57221 0.0
C445 C 0.39532 0.80043 0.55117 0.0
C446 C 0.39215 0.79385 0.50658 0.0
C447 C 0.35911 0.79445 0.48349 0.0
C448 C 0.50706 0.82863 0.58779 0.0
C449 C 0.49809 0.80703 0.62735 0.0
C450 C 0.47353 0.82518 0.56215 0.0
C451 C 0.43052 0.80046 0.57585 0.0
C452 C 0.42148 0.77753 0.61452 0.0
C453 C 0.45488 0.78057 0.63989 0.0
H454 H 0.22712 0.50332 0.23124 0.0
H455 H 0.24387 0.57121 0.1119 0.0
H456 H 0.22948 0.56342 0.27046 0.0
H457 H 0.24592 0.63127 0.15139 0.0
H458 H 0.18614 0.69477 0.24171 0.0
H459 H 0.19175 0.64159 0.19709 0.0
H460 H 0.28494 0.64275 0.28521 0.0
H461 H 0.27969 0.69591 0.32969 0.0
C462 C 0.23142 0.53109 0.21339 0.0
C463 C 0.23544 0.53257 0.16849 0.0
C464 C 0.23302 0.56559 0.23587 0.0
C465 C 0.23812 0.60203 0.21392 0.0
C466 C 0.24189 0.60348 0.16902 0.0
C467 C 0.24089 0.5692 0.14653 0.0
C468 C 0.20837 0.68423 0.25117 0.0
C469 C 0.2322 0.69931 0.28941 0.0
C470 C 0.21162 0.65389 0.22558 0.0
C471 C 0.23841 0.63779 0.23805 0.0
C472 C 0.26362 0.65426 0.27522 0.0
C473 C 0.26077 0.6849 0.30051 0.0
H474 H 0.57687 0.30655 0.03148 0.0
H475 H 0.50039 0.36416 0.06603 0.0
H476 H 0.6356 0.35914 0.07697 0.0
H477 H 0.55932 0.4169 0.11081 0.0
H478 H 0.6985 0.53697 0.12268 0.0
H479 H 0.63626 0.47841 0.08614 0.0
H480 H 0.65179 0.38477 0.15859 0.0
H481 H 0.71387 0.44344 0.19591 0.0
C482 C 0.57235 0.32996 0.04927 0.0
C483 C 0.53416 0.33142 0.04499 0.0
C484 C 0.60588 0.35992 0.07531 0.0
C485 C 0.60197 0.39219 0.0969 0.0
C486 C 0.56315 0.39251 0.09409 0.0
C487 C 0.52939 0.36216 0.06867 0.0
C488 C 0.68874 0.50392 0.13079 0.0
C489 C 0.71105 0.49473 0.16208 0.0
C490 C 0.65295 0.47048 0.11014 0.0
C491 C 0.63925 0.42724 0.11983 0.0
C492 C 0.66183 0.41792 0.15065 0.0
C493 C 0.69719 0.45143 0.17197 0.0
H494 H 0.72918 0.32095 0.69441 0.0
H495 H 0.68871 0.18606 0.71075 0.0
H496 H 0.67441 0.31323 0.74613 0.0
H497 H 0.63387 0.1785 0.76183 0.0
H498 H 0.50373 0.1756 0.78819 0.0
H499 H 0.5655 0.18431 0.74709 0.0
H500 H 0.65108 0.29262 0.8269 0.0
H501 H 0.58925 0.28362 0.86865 0.0
C502 C 0.70914 0.28991 0.70953 0.0
C503 C 0.71305 0.25406 0.69824 0.0
C504 C 0.67793 0.28556 0.73917 0.0
C505 C 0.64977 0.24517 0.7575 0.0
C506 C 0.65498 0.20986 0.74775 0.0
C507 C 0.68654 0.21433 0.71867 0.0
C508 C 0.53571 0.20114 0.79712 0.0
C509 C 0.54169 0.22896 0.83158 0.0
C510 C 0.57104 0.20592 0.7738 0.0
C511 C 0.61294 0.23904 0.78401 0.0
C512 C 0.61903 0.26688 0.81845 0.0
C513 C 0.58371 0.2616 0.84234 0.0
H514 H 0.8189 0.29986 0.43568 0.0
H515 H 0.79873 0.35094 0.55368 0.0
H516 H 0.81668 0.35689 0.39549 0.0
H517 H 0.7968 0.40829 0.51318 0.0
H518 H 0.85652 0.53147 0.42257 0.0
H519 H 0.85095 0.47341 0.46804 0.0
H520 H 0.76099 0.37889 0.37848 0.0
H521 H 0.76625 0.43658 0.33312 0.0
C522 C 0.8139 0.32318 0.45305 0.0
C523 C 0.80888 0.32081 0.49785 0.0
C524 C 0.81237 0.35567 0.42998 0.0
C525 C 0.8063 0.38679 0.45125 0.0
C526 C 0.8016 0.38471 0.49606 0.0
C527 C 0.80255 0.35181 0.51915 0.0
C528 C 0.83502 0.49829 0.41294 0.0
C529 C 0.8121 0.48865 0.37407 0.0
C530 C 0.83177 0.4651 0.43903 0.0
C531 C 0.80592 0.42175 0.42646 0.0
C532 C 0.7816 0.41209 0.38859 0.0
C533 C 0.78445 0.44517 0.36278 0.0
H534 H 0.98431 0.32178 0.73026 0.0
H535 H 1.00766 0.45246 0.72498 0.0
H536 H 1.00441 0.3318 0.80491 0.0
H537 H 0.03418 0.46458 0.79743 0.0
H538 H 0.04161 0.46718 0.94059 0.0
H539 H 1.01877 0.45566 0.86691 0.0
H540 H 0.05576 0.35837 0.85521 0.0
H541 H 0.07228 0.36527 0.93082 0.0
C542 C 0.99387 0.35281 0.74468 0.0
C543 C 0.99387 0.3861 0.72084 0.0
C544 C 1.00665 0.359 0.78771 0.0
C545 C 1.02141 0.3992 0.80804 0.0
C546 C 1.02225 0.43275 0.78388 0.0
C547 C 1.0079 0.42605 0.7414 0.0
C548 C 0.04385 0.44242 0.92284 0.0
C549 C 0.05825 0.41672 0.94261 0.0
C550 C 0.03166 0.4365 0.87971 0.0
C551 C 0.03513 0.40591 0.85419 0.0
C552 C 0.0513 0.38148 0.87352 0.0
C553 C 0.06194 0.38626 0.91713 0.0
H554 H 0.55913 0.57248 0.60288 0.0
H555 H 0.66132 0.70596 0.59456 0.0
H556 H 0.57224 0.56107 0.52962 0.0
H557 H 0.66975 0.69627 0.51941 0.0
H558 H 0.70971 0.6623 0.39675 0.0
H559 H 0.69775 0.67142 0.47104 0.0
H560 H 0.56532 0.56755 0.45955 0.0
H561 H 0.57935 0.55404 0.38735 0.0
C562 C 0.58424 0.59966 0.58554 0.0
C563 C 0.60954 0.64006 0.60558 0.0
C564 C 0.59111 0.59332 0.54268 0.0
C565 C 0.62232 0.6276 0.51777 0.0
C566 C 0.64625 0.6685 0.53732 0.0
C567 C 0.64055 0.67442 0.58064 0.0
C568 C 0.67835 0.64039 0.41021 0.0
C569 C 0.6457 0.60718 0.38532 0.0
C570 C 0.67103 0.64645 0.45301 0.0
C571 C 0.63029 0.62063 0.47203 0.0
C572 C 0.59746 0.58781 0.44694 0.0
C573 C 0.60529 0.58066 0.40465 0.0
H574 H 0.4183 0.98266 0.04458 0.0
H575 H 0.43613 0.10684 0.08223 0.0
H576 H 0.40664 0.95997 0.11939 0.0
H577 H 0.42251 0.08307 0.15684 0.0
H578 H 0.34707 1.00109 0.27647 0.0
H579 H 0.35839 0.02398 0.2012 0.0
H580 H 0.45293 0.98407 0.1886 0.0
H581 H 0.44186 0.96154 0.26384 0.0
C582 C 0.42008 1.0053 0.0687 0.0
C583 C 0.42847 0.04677 0.05718 0.0
C584 C 0.41311 0.99211 0.11154 0.0
C585 C 0.41365 0.01977 0.14379 0.0
C586 C 0.42147 0.06097 0.13246 0.0
C587 C 0.42912 0.07446 0.08968 0.0
C588 C 0.37009 0.99708 0.25747 0.0
C589 C 0.39362 0.9796 0.27582 0.0
C590 C 0.37677 1.01041 0.21462 0.0
C591 C 0.40653 1.00577 0.18921 0.0
C592 C 0.42962 0.98776 0.20745 0.0
C593 C 0.42347 0.97512 0.25044 0.0
loop_
_geom_bond_atom_site_label_1
_geom_bond_atom_site_label_2
_geom_bond_distance
_geom_bond_site_symmetry_2
_ccdc_geom_bond_type
O0 Tb1 2.292 1_556 S
O0 C3 1.255 . S
Tb1 O0 2.292 1_554 S
Tb1 O17 2.326 . S
Tb1 O19 2.500 . S
Tb1 O20 2.473 . S
Tb1 O23 2.324 . S
Eu2 O6 2.292 . S
Eu2 C7 2.852 . S
Eu2 O18 2.324 . S
Eu2 O22 2.326 . S
Eu2 O24 2.500 . S
Eu2 O25 2.473 . S
C3 O0 1.255 . S
C3 O4 1.247 . S
O4 C3 1.247 . S
C5 O17 1.242 . S
C5 O18 1.258 . S
O6 Eu2 2.292 . S
O6 C8 1.255 . S
C7 Eu2 2.852 . S
C7 C11 1.503 . S
C7 O24 1.273 . S
C7 O25 1.257 . S
C8 O6 1.255 . S
C8 O9 1.247 . S
O9 C8 1.247 . S
C10 O22 1.242 . S
C10 O23 1.258 . S
C11 C7 1.503 . S
C11 C12 1.379 . S
C11 C16 1.392 . S
C12 C11 1.379 . S
C12 C13 1.404 1_554 S
C12 H26 0.929 1_554 S
C13 C12 1.404 1_556 S
C13 C14 1.389 . S
C14 C13 1.389 . S
C14 C15 1.399 1_556 S
C14 H27 0.931 . S
C15 C14 1.399 1_554 S
C15 C16 1.390 . S
C16 C11 1.392 . S
C16 C15 1.390 . S
C16 H28 0.929 . S
O17 Tb1 2.326 . S
O17 C5 1.242 . S
O18 Eu2 2.324 . S
O18 C5 1.258 . S
O19 Tb1 2.500 . S
O19 C21 1.273 . S
O20 Tb1 2.473 . S
O20 C21 1.257 . S
C21 O19 1.273 . S
C21 O20 1.257 . S
O22 Eu2 2.326 . S
O22 C10 1.242 . S
O23 Tb1 2.324 . S
O23 C10 1.258 . S
O24 Eu2 2.500 . S
O24 C7 1.273 . S
O25 Eu2 2.473 . S
O25 C7 1.257 . S
H26 C12 0.929 1_556 S
H27 C14 0.931 . S
H28 C16 0.929 . S
O29 Tb30 2.292 . S
O29 C32 1.255 . S
Tb30 O29 2.292 . S
Tb30 O46 2.326 . S
Tb30 O48 2.500 . S
Tb30 O49 2.473 . S
Tb30 O52 2.324 . S
Eu31 O35 2.292 . S
Eu31 C36 2.852 . S
Eu31 O47 2.324 . S
Eu31 O51 2.326 . S
Eu31 O53 2.500 . S
Eu31 O54 2.473 . S
C32 O29 1.255 . S
C32 O33 1.247 . S
O33 C32 1.247 . S
C34 O46 1.242 . S
C34 O47 1.258 . S
O35 Eu31 2.292 . S
O35 C37 1.255 . S
C36 Eu31 2.852 . S
C36 C40 1.503 . S
C36 O53 1.273 . S
C36 O54 1.257 . S
C37 O35 1.255 . S
C37 O38 1.247 . S
O38 C37 1.247 . S
C39 O51 1.242 . S
C39 O52 1.258 . S
C40 C36 1.503 . S
C40 C41 1.379 . S
C40 C45 1.392 . S
C41 C40 1.379 . S
C41 C42 1.404 . S
C41 H55 0.929 . S
C42 C41 1.404 . S
C42 C43 1.389 . S
C43 C42 1.389 . S
C43 C44 1.399 . S
C43 H56 0.931 . S
C44 C43 1.399 . S
C44 C45 1.390 . S
C45 C40 1.392 . S
C45 C44 1.390 . S
C45 H57 0.929 . S
O46 Tb30 2.326 . S
O46 C34 1.242 . S
O47 Eu31 2.324 . S
O47 C34 1.258 . S
O48 Tb30 2.500 . S
O48 C50 1.273 . S
O49 Tb30 2.473 . S
O49 C50 1.257 . S
C50 O48 1.273 . S
C50 O49 1.257 . S
O51 Eu31 2.326 . S
O51 C39 1.242 . S
O52 Tb30 2.324 . S
O52 C39 1.258 . S
O53 Eu31 2.500 . S
O53 C36 1.273 . S
O54 Eu31 2.473 . S
O54 C36 1.257 . S
H55 C41 0.929 . S
H56 C43 0.931 . S
H57 C45 0.929 . S
O58 Tb59 2.292 . S
O58 C61 1.255 . S
Tb59 O58 2.292 . S
Tb59 O75 2.326 . S
Tb59 O77 2.500 . S
Tb59 O78 2.473 . S
Tb59 O81 2.324 . S
Eu60 O64 2.292 . S
Eu60 C65 2.852 . S
Eu60 O76 2.324 . S
Eu60 O80 2.326 . S
Eu60 O82 2.500 . S
Eu60 O83 2.473 . S
C61 O58 1.255 . S
C61 O62 1.247 . S
O62 C61 1.247 . S
C63 O75 1.242 . S
C63 O76 1.258 . S
O64 Eu60 2.292 . S
O64 C66 1.255 . S
C65 Eu60 2.852 . S
C65 C69 1.503 . S
C65 O82 1.273 . S
C65 O83 1.257 . S
C66 O64 1.255 . S
C66 O67 1.247 . S
O67 C66 1.247 . S
C68 O80 1.242 . S
C68 O81 1.258 . S
C69 C65 1.503 . S
C69 C70 1.379 . S
C69 C74 1.392 . S
C70 C69 1.379 . S
C70 C71 1.404 . S
C70 H84 0.929 . S
C71 C70 1.404 . S
C71 C72 1.389 . S
C72 C71 1.389 . S
C72 C73 1.399 . S
C72 H85 0.931 . S
C73 C72 1.399 . S
C73 C74 1.390 . S
C74 C69 1.392 . S
C74 C73 1.390 . S
C74 H86 0.929 . S
O75 Tb59 2.326 . S
O75 C63 1.242 . S
O76 Eu60 2.324 . S
O76 C63 1.258 . S
O77 Tb59 2.500 . S
O77 C79 1.273 . S
O78 Tb59 2.473 . S
O78 C79 1.257 . S
C79 O77 1.273 . S
C79 O78 1.257 . S
O80 Eu60 2.326 . S
O80 C68 1.242 . S
O81 Tb59 2.324 . S
O81 C68 1.258 . S
O82 Eu60 2.500 . S
O82 C65 1.273 . S
O83 Eu60 2.473 . S
O83 C65 1.257 . S
H84 C70 0.929 . S
H85 C72 0.931 . S
H86 C74 0.929 . S
O87 Tb88 2.292 1_554 S
O87 C90 1.255 . S
Tb88 O87 2.292 1_556 S
Tb88 O104 2.326 . S
Tb88 O106 2.500 . S
Tb88 O107 2.473 . S
Tb88 O110 2.324 . S
Eu89 O93 2.292 . S
Eu89 C94 2.852 . S
Eu89 O105 2.324 . S
Eu89 O109 2.326 . S
Eu89 O111 2.500 . S
Eu89 O112 2.473 . S
C90 O87 1.255 . S
C90 O91 1.247 . S
O91 C90 1.247 . S
C92 O104 1.242 . S
C92 O105 1.258 . S
O93 Eu89 2.292 . S
O93 C95 1.255 . S
C94 Eu89 2.852 . S
C94 C98 1.503 . S
C94 O111 1.273 . S
C94 O112 1.257 . S
C95 O93 1.255 . S
C95 O96 1.247 . S
O96 C95 1.247 . S
C97 O109 1.242 . S
C97 O110 1.258 . S
C98 C94 1.503 . S
C98 C99 1.379 . S
C98 C103 1.392 . S
C99 C98 1.379 . S
C99 C100 1.404 1_556 S
C99 H113 0.929 1_556 S
C100 C99 1.404 1_554 S
C100 C101 1.389 . S
C101 C100 1.389 . S
C101 C102 1.399 1_554 S
C101 H114 0.931 . S
C102 C101 1.399 1_556 S
C102 C103 1.390 . S
C103 C98 1.392 . S
C103 C102 1.390 . S
C103 H115 0.929 . S
O104 Tb88 2.326 . S
O104 C92 1.242 . S
O105 Eu89 2.324 . S
O105 C92 1.258 . S
O106 Tb88 2.500 . S
O106 C108 1.273 . S
O107 Tb88 2.473 . S
O107 C108 1.257 . S
C108 O106 1.273 . S
C108 O107 1.257 . S
O109 Eu89 2.326 . S
O109 C97 1.242 . S
O110 Tb88 2.324 . S
O110 C97 1.258 . S
O111 Eu89 2.500 . S
O111 C94 1.273 . S
O112 Eu89 2.473 . S
O112 C94 1.257 . S
H113 C99 0.929 1_554 S
H114 C101 0.931 . S
H115 C103 0.929 . S
O116 Tb117 2.292 . S
O116 C119 1.255 . S
Tb117 O116 2.292 . S
Tb117 O133 2.326 . S
Tb117 O135 2.500 . S
Tb117 O136 2.473 . S
Tb117 O139 2.324 . S
Eu118 O122 2.292 . S
Eu118 C123 2.852 . S
Eu118 O134 2.324 . S
Eu118 O138 2.326 . S
Eu118 O140 2.500 . S
Eu118 O141 2.473 . S
C119 O116 1.255 . S
C119 O120 1.247 . S
O120 C119 1.247 . S
C121 O133 1.242 . S
C121 O134 1.258 . S
O122 Eu118 2.292 . S
O122 C124 1.255 . S
C123 Eu118 2.852 . S
C123 C127 1.503 . S
C123 O140 1.273 . S
C123 O141 1.257 . S
C124 O122 1.255 . S
C124 O125 1.247 . S
O125 C124 1.247 . S
C126 O138 1.242 . S
C126 O139 1.258 . S
C127 C123 1.503 . S
C127 C128 1.379 . S
C127 C132 1.392 . S
C128 C127 1.379 . S
C128 C129 1.404 . S
C128 H142 0.929 . S
C129 C128 1.404 . S
C129 C130 1.389 . S
C130 C129 1.389 . S
C130 C131 1.399 . S
C130 H143 0.931 . S
C131 C130 1.399 . S
C131 C132 1.390 . S
C132 C127 1.392 . S
C132 C131 1.390 . S
C132 H144 0.929 . S
O133 Tb117 2.326 . S
O133 C121 1.242 . S
O134 Eu118 2.324 . S
O134 C121 1.258 . S
O135 Tb117 2.500 . S
O135 C137 1.273 . S
O136 Tb117 2.473 . S
O136 C137 1.257 . S
C137 O135 1.273 . S
C137 O136 1.257 . S
O138 Eu118 2.326 . S
O138 C126 1.242 . S
O139 Tb117 2.324 . S
O139 C126 1.258 . S
O140 Eu118 2.500 . S
O140 C123 1.273 . S
O141 Eu118 2.473 . S
O141 C123 1.257 . S
H142 C128 0.929 . S
H143 C130 0.931 . S
H144 C132 0.929 . S
O145 Tb146 2.292 . S
O145 C148 1.255 . S
Tb146 O145 2.292 . S
Tb146 O162 2.326 . S
Tb146 O164 2.500 . S
Tb146 O165 2.473 . S
Tb146 O168 2.324 . S
Eu147 O151 2.292 . S
Eu147 C152 2.852 . S
Eu147 O163 2.324 . S
Eu147 O167 2.326 . S
Eu147 O169 2.500 . S
Eu147 O170 2.473 . S
C148 O145 1.255 . S
C148 O149 1.247 . S
O149 C148 1.247 . S
C150 O162 1.242 . S
C150 O163 1.258 . S
O151 Eu147 2.292 . S
O151 C153 1.255 . S
C152 Eu147 2.852 . S
C152 C156 1.503 . S
C152 O169 1.273 . S
C152 O170 1.257 . S
C153 O151 1.255 . S
C153 O154 1.247 . S
O154 C153 1.247 . S
C155 O167 1.242 . S
C155 O168 1.258 . S
C156 C152 1.503 . S
C156 C157 1.379 . S
C156 C161 1.392 . S
C157 C156 1.379 . S
C157 C158 1.404 . S
C157 H171 0.929 . S
C158 C157 1.404 . S
C158 C159 1.389 . S
C159 C158 1.389 . S
C159 C160 1.399 . S
C159 H172 0.931 . S
C160 C159 1.399 . S
C160 C161 1.390 . S
C161 C156 1.392 . S
C161 C160 1.390 . S
C161 H173 0.929 . S
O162 Tb146 2.326 . S
O162 C150 1.242 . S
O163 Eu147 2.324 . S
O163 C150 1.258 . S
O164 Tb146 2.500 . S
O164 C166 1.273 . S
O165 Tb146 2.473 . S
O165 C166 1.257 . S
C166 O164 1.273 . S
C166 O165 1.257 . S
O167 Eu147 2.326 . S
O167 C155 1.242 . S
O168 Tb146 2.324 . S
O168 C155 1.258 . S
O169 Eu147 2.500 . S
O169 C152 1.273 . S
O170 Eu147 2.473 . S
O170 C152 1.257 . S
H171 C157 0.929 . S
H172 C159 0.931 . S
H173 C161 0.929 . S
H174 C182 0.950 . S
H175 C187 0.950 . S
H176 C184 0.950 . S
H177 C186 0.950 . S
H178 C188 0.950 . S
H179 C190 0.950 . S
H180 C192 0.950 . S
H181 C193 0.950 . S
C182 H174 0.950 . S
C182 C183 1.386 . S
C182 C184 1.391 . S
C183 C182 1.386 . S
C183 C187 1.393 . S
C184 H176 0.950 . S
C184 C182 1.391 . S
C184 C185 1.400 . S
C185 C184 1.400 . S
C185 C186 1.398 . S
C185 C191 1.491 . S
C186 H177 0.950 . S
C186 C185 1.398 . S
C186 C187 1.391 . S
C187 H175 0.950 . S
C187 C183 1.393 . S
C187 C186 1.391 . S
C188 H178 0.950 . S
C188 C189 1.386 . S
C188 C190 1.391 . S
C189 C188 1.386 . S
C189 C193 1.393 . S
C190 H179 0.950 . S
C190 C188 1.391 . S
C190 C191 1.400 . S
C191 C185 1.491 . S
C191 C190 1.400 . S
C191 C192 1.398 . S
C192 H180 0.950 . S
C192 C191 1.398 . S
C192 C193 1.391 . S
C193 H181 0.950 . S
C193 C189 1.393 . S
C193 C192 1.391 . S
H194 C202 0.950 . S
H195 C207 0.950 . S
H196 C204 0.950 . S
H197 C206 0.950 . S
H198 C208 0.950 1_545 S
H199 C210 0.950 . S
H200 C212 0.950 . S
H201 C213 0.950 . S
C202 H194 0.950 . S
C202 C203 1.386 . S
C202 C204 1.391 . S
C203 C202 1.386 . S
C203 C207 1.393 . S
C204 H196 0.950 . S
C204 C202 1.391 . S
C204 C205 1.400 . S
C205 C204 1.400 . S
C205 C206 1.398 . S
C205 C211 1.491 . S
C206 H197 0.950 . S
C206 C205 1.398 . S
C206 C207 1.391 . S
C207 H195 0.950 . S
C207 C203 1.393 . S
C207 C206 1.391 . S
C208 H198 0.950 1_565 S
C208 C209 1.386 . S
C208 C210 1.391 . S
C209 C208 1.386 . S
C209 C213 1.393 . S
C210 H199 0.950 . S
C210 C208 1.391 . S
C210 C211 1.400 . S
C211 C205 1.491 . S
C211 C210 1.400 . S
C211 C212 1.398 . S
C212 H200 0.950 . S
C212 C211 1.398 . S
C212 C213 1.391 . S
C213 H201 0.950 . S
C213 C209 1.393 . S
C213 C212 1.391 . S
H214 C222 0.950 . S
H215 C227 0.950 . S
H216 C224 0.950 . S
H217 C226 0.950 . S
H218 C228 0.950 . S
H219 C230 0.950 . S
H220 C232 0.950 . S
H221 C233 0.950 . S
C222 H214 0.950 . S
C222 C223 1.386 . S
C222 C224 1.391 . S
C223 C222 1.386 . S
C223 C227 1.393 . S
C224 H216 0.950 . S
C224 C222 1.391 . S
C224 C225 1.400 . S
C225 C224 1.400 . S
C225 C226 1.398 . S
C225 C231 1.491 . S
C226 H217 0.950 . S
C226 C225 1.398 . S
C226 C227 1.391 . S
C227 H215 0.950 . S
C227 C223 1.393 . S
C227 C226 1.391 . S
C228 H218 0.950 . S
C228 C229 1.386 . S
C228 C230 1.391 . S
C229 C228 1.386 . S
C229 C233 1.393 . S
C230 H219 0.950 . S
C230 C228 1.391 . S
C230 C231 1.400 . S
C231 C225 1.491 . S
C231 C230 1.400 . S
C231 C232 1.398 . S
C232 H220 0.950 . S
C232 C231 1.398 . S
C232 C233 1.391 . S
C233 H221 0.950 . S
C233 C229 1.393 . S
C233 C232 1.391 . S
H234 C242 0.950 . S
H235 C247 0.950 . S
H236 C244 0.950 . S
H237 C246 0.950 . S
H238 C248 0.950 . S
H239 C250 0.950 . S
H240 C252 0.950 . S
H241 C253 0.950 . S
C242 H234 0.950 . S
C242 C243 1.386 . S
C242 C244 1.391 . S
C243 C242 1.386 . S
C243 C247 1.393 . S
C244 H236 0.950 . S
C244 C242 1.391 . S
C244 C245 1.400 . S
C245 C244 1.400 . S
C245 C246 1.398 . S
C245 C251 1.491 . S
C246 H237 0.950 . S
C246 C245 1.398 . S
C246 C247 1.391 . S
C247 H235 0.950 . S
C247 C243 1.393 . S
C247 C246 1.391 . S
C248 H238 0.950 . S
C248 C249 1.386 . S
C248 C250 1.391 . S
C249 C248 1.386 . S
C249 C253 1.393 . S
C250 H239 0.950 . S
C250 C248 1.391 . S
C250 C251 1.400 . S
C251 C245 1.491 . S
C251 C250 1.400 . S
C251 C252 1.398 . S
C252 H240 0.950 . S
C252 C251 1.398 . S
C252 C253 1.391 . S
C253 H241 0.950 . S
C253 C249 1.393 . S
C253 C252 1.391 . S
H254 C262 0.950 . S
H255 C267 0.950 1_565 S
H256 C264 0.950 . S
H257 C266 0.950 . S
H258 C268 0.950 . S
H259 C270 0.950 . S
H260 C272 0.950 . S
H261 C273 0.950 . S
C262 H254 0.950 . S
C262 C263 1.386 . S
C262 C264 1.391 . S
C263 C262 1.386 . S
C263 C267 1.393 . S
C264 H256 0.950 . S
C264 C262 1.391 . S
C264 C265 1.400 . S
C265 C264 1.400 . S
C265 C266 1.398 . S
C265 C271 1.491 . S
C266 H257 0.950 . S
C266 C265 1.398 . S
C266 C267 1.391 . S
C267 H255 0.950 1_545 S
C267 C263 1.393 . S
C267 C266 1.391 . S
C268 H258 0.950 . S
C268 C269 1.386 . S
C268 C270 1.391 . S
C269 C268 1.386 . S
C269 C273 1.393 . S
C270 H259 0.950 . S
C270 C268 1.391 . S
C270 C271 1.400 . S
C271 C265 1.491 . S
C271 C270 1.400 . S
C271 C272 1.398 . S
C272 H260 0.950 . S
C272 C271 1.398 . S
C272 C273 1.391 . S
C273 H261 0.950 . S
C273 C269 1.393 . S
C273 C272 1.391 . S
H274 C282 0.950 . S
H275 C287 0.950 1_455 S
H276 C284 0.950 . S
H277 C286 0.950 . S
H278 C288 0.950 . S
H279 C290 0.950 . S
H280 C292 0.950 . S
H281 C293 0.950 . S
C282 H274 0.950 . S
C282 C283 1.386 . S
C282 C284 1.391 . S
C283 C282 1.386 . S
C283 C287 1.393 . S
C284 H276 0.950 . S
C284 C282 1.391 . S
C284 C285 1.400 . S
C285 C284 1.400 . S
C285 C286 1.398 . S
C285 C291 1.491 . S
C286 H277 0.950 . S
C286 C285 1.398 . S
C286 C287 1.391 . S
C287 H275 0.950 1_655 S
C287 C283 1.393 . S
C287 C286 1.391 . S
C288 H278 0.950 . S
C288 C289 1.386 . S
C288 C290 1.391 . S
C289 C288 1.386 . S
C289 C293 1.393 . S
C290 H279 0.950 . S
C290 C288 1.391 . S
C290 C291 1.400 . S
C291 C285 1.491 . S
C291 C290 1.400 . S
C291 C292 1.398 . S
C292 H280 0.950 . S
C292 C291 1.398 . S
C292 C293 1.391 . S
C293 H281 0.950 . S
C293 C289 1.393 . S
C293 C292 1.391 . S
H294 C302 0.950 . S
H295 C307 0.950 . S
H296 C304 0.950 . S
H297 C306 0.950 . S
H298 C308 0.950 . S
H299 C310 0.950 . S
H300 C312 0.950 . S
H301 C313 0.950 . S
C302 H294 0.950 . S
C302 C303 1.386 . S
C302 C304 1.391 . S
C303 C302 1.386 . S
C303 C307 1.393 1_556 S
C304 H296 0.950 . S
C304 C302 1.391 . S
C304 C305 1.400 . S
C305 C304 1.400 . S
C305 C306 1.398 1_556 S
C305 C311 1.491 1_556 S
C306 H297 0.950 . S
C306 C305 1.398 1_554 S
C306 C307 1.391 . S
C307 H295 0.950 . S
C307 C303 1.393 1_554 S
C307 C306 1.391 . S
C308 H298 0.950 . S
C308 C309 1.386 . S
C308 C310 1.391 . S
C309 C308 1.386 . S
C309 C313 1.393 1_554 S
C310 H299 0.950 . S
C310 C308 1.391 . S
C310 C311 1.400 . S
C311 C305 1.491 1_554 S
C311 C310 1.400 . S
C311 C312 1.398 1_554 S
C312 H300 0.950 . S
C312 C311 1.398 1_556 S
C312 C313 1.391 . S
C313 H301 0.950 . S
C313 C309 1.393 1_556 S
C313 C312 1.391 . S
H314 C322 0.950 . S
H315 C327 0.950 . S
H316 C324 0.950 . S
H317 C326 0.950 . S
H318 C328 0.950 . S
H319 C330 0.950 . S
H320 C332 0.950 . S
H321 C333 0.950 . S
C322 H314 0.950 . S
C322 C323 1.386 . S
C322 C324 1.391 . S
C323 C322 1.386 . S
C323 C327 1.393 . S
C324 H316 0.950 . S
C324 C322 1.391 . S
C324 C325 1.400 . S
C325 C324 1.400 . S
C325 C326 1.398 . S
C325 C331 1.491 1_545 S
C326 H317 0.950 . S
C326 C325 1.398 . S
C326 C327 1.391 . S
C327 H315 0.950 . S
C327 C323 1.393 . S
C327 C326 1.391 . S
C328 H318 0.950 . S
C328 C329 1.386 . S
C328 C330 1.391 . S
C329 C328 1.386 . S
C329 C333 1.393 . S
C330 H319 0.950 . S
C330 C328 1.391 . S
C330 C331 1.400 . S
C331 C325 1.491 1_565 S
C331 C330 1.400 . S
C331 C332 1.398 . S
C332 H320 0.950 . S
C332 C331 1.398 . S
C332 C333 1.391 . S
C333 H321 0.950 . S
C333 C329 1.393 . S
C333 C332 1.391 . S
H334 C342 0.950 . S
H335 C347 0.950 . S
H336 C344 0.950 . S
H337 C346 0.950 . S
H338 C348 0.950 . S
H339 C350 0.950 . S
H340 C352 0.950 . S
H341 C353 0.950 . S
C342 H334 0.950 . S
C342 C343 1.386 . S
C342 C344 1.391 . S
C343 C342 1.386 . S
C343 C347 1.393 . S
C344 H336 0.950 . S
C344 C342 1.391 . S
C344 C345 1.400 . S
C345 C344 1.400 . S
C345 C346 1.398 . S
C345 C351 1.491 1_655 S
C346 H337 0.950 . S
C346 C345 1.398 . S
C346 C347 1.391 . S
C347 H335 0.950 . S
C347 C343 1.393 . S
C347 C346 1.391 . S
C348 H338 0.950 . S
C348 C349 1.386 . S
C348 C350 1.391 . S
C349 C348 1.386 . S
C349 C353 1.393 . S
C350 H339 0.950 . S
C350 C348 1.391 . S
C350 C351 1.400 . S
C351 C345 1.491 1_455 S
C351 C350 1.400 . S
C351 C352 1.398 . S
C352 H340 0.950 . S
C352 C351 1.398 . S
C352 C353 1.391 . S
C353 H341 0.950 . S
C353 C349 1.393 . S
C353 C352 1.391 . S
H354 C362 0.950 . S
H355 C367 0.950 . S
H356 C364 0.950 . S
H357 C366 0.950 . S
H358 C368 0.950 . S
H359 C370 0.950 . S
H360 C372 0.950 . S
H361 C373 0.950 . S
C362 H354 0.950 . S
C362 C363 1.386 . S
C362 C364 1.391 . S
C363 C362 1.386 . S
C363 C367 1.393 . S
C364 H356 0.950 . S
C364 C362 1.391 . S
C364 C365 1.400 . S
C365 C364 1.400 . S
C365 C366 1.398 . S
C365 C371 1.491 1_655 S
C366 H357 0.950 . S
C366 C365 1.398 . S
C366 C367 1.391 . S
C367 H355 0.950 . S
C367 C363 1.393 . S
C367 C366 1.391 . S
C368 H358 0.950 . S
C368 C369 1.386 . S
C368 C370 1.391 . S
C369 C368 1.386 . S
C369 C373 1.393 . S
C370 H359 0.950 . S
C370 C368 1.391 . S
C370 C371 1.400 . S
C371 C365 1.491 1_455 S
C371 C370 1.400 . S
C371 C372 1.398 . S
C372 H360 0.950 . S
C372 C371 1.398 . S
C372 C373 1.391 . S
C373 H361 0.950 . S
C373 C369 1.393 . S
C373 C372 1.391 . S
H374 C382 0.950 . S
H375 C387 0.950 . S
H376 C384 0.950 . S
H377 C386 0.950 1_554 S
H378 C388 0.950 . S
H379 C390 0.950 . S
H380 C392 0.950 1_556 S
H381 C393 0.950 . S
C382 H374 0.950 . S
C382 C383 1.386 . S
C382 C384 1.391 . S
C383 C382 1.386 . S
C383 C387 1.393 . S
C384 H376 0.950 . S
C384 C382 1.391 . S
C384 C385 1.400 . S
C385 C384 1.400 . S
C385 C386 1.398 . S
C385 C391 1.491 1_556 S
C386 H377 0.950 1_556 S
C386 C385 1.398 . S
C386 C387 1.391 . S
C387 H375 0.950 . S
C387 C383 1.393 . S
C387 C386 1.391 . S
C388 H378 0.950 . S
C388 C389 1.386 . S
C388 C390 1.391 . S
C389 C388 1.386 . S
C389 C393 1.393 . S
C390 H379 0.950 . S
C390 C388 1.391 . S
C390 C391 1.400 . S
C391 C385 1.491 1_554 S
C391 C390 1.400 . S
C391 C392 1.398 . S
C392 H380 0.950 1_554 S
C392 C391 1.398 . S
C392 C393 1.391 . S
C393 H381 0.950 . S
C393 C389 1.393 . S
C393 C392 1.391 . S
H394 C402 0.950 . S
H395 C407 0.950 . S
H396 C404 0.950 . S
H397 C406 0.950 . S
H398 C408 0.950 . S
H399 C410 0.950 . S
H400 C412 0.950 . S
H401 C413 0.950 . S
C402 H394 0.950 . S
C402 C403 1.386 . S
C402 C404 1.391 . S
C403 C402 1.386 . S
C403 C407 1.393 . S
C404 H396 0.950 . S
C404 C402 1.391 . S
C404 C405 1.400 . S
C405 C404 1.400 . S
C405 C406 1.398 . S
C405 C411 1.491 1_545 S
C406 H397 0.950 . S
C406 C405 1.398 . S
C406 C407 1.391 . S
C407 H395 0.950 . S
C407 C403 1.393 . S
C407 C406 1.391 . S
C408 H398 0.950 . S
C408 C409 1.386 . S
C408 C410 1.391 . S
C409 C408 1.386 . S
C409 C413 1.393 . S
C410 H399 0.950 . S
C410 C408 1.391 . S
C410 C411 1.400 . S
C411 C405 1.491 1_565 S
C411 C410 1.400 . S
C411 C412 1.398 . S
C412 H400 0.950 . S
C412 C411 1.398 . S
C412 C413 1.391 . S
C413 H401 0.950 . S
C413 C409 1.393 . S
C413 C412 1.391 . S
H414 C422 0.950 . S
H415 C427 0.950 . S
H416 C424 0.950 . S
H417 C426 0.950 . S
H418 C428 0.950 . S
H419 C430 0.950 . S
H420 C432 0.950 . S
H421 C433 0.950 . S
C422 H414 0.950 . S
C422 C423 1.386 . S
C422 C424 1.391 . S
C423 C422 1.386 . S
C423 C427 1.393 . S
C424 H416 0.950 . S
C424 C422 1.391 . S
C424 C425 1.400 . S
C425 C424 1.400 . S
C425 C426 1.398 . S
C425 C431 1.491 . S
C426 H417 0.950 . S
C426 C425 1.398 . S
C426 C427 1.391 . S
C427 H415 0.950 . S
C427 C423 1.393 . S
C427 C426 1.391 . S
C428 H418 0.950 . S
C428 C429 1.386 . S
C428 C430 1.391 . S
C429 C428 1.386 . S
C429 C433 1.393 . S
C430 H419 0.950 . S
C430 C428 1.391 . S
C430 C431 1.400 . S
C431 C425 1.491 . S
C431 C430 1.400 . S
C431 C432 1.398 . S
C432 H420 0.950 . S
C432 C431 1.398 . S
C432 C433 1.391 . S
C433 H421 0.950 . S
C433 C429 1.393 . S
C433 C432 1.391 . S
H434 C442 0.950 . S
H435 C447 0.950 . S
H436 C444 0.950 . S
H437 C446 0.950 . S
H438 C448 0.950 . S
H439 C450 0.950 . S
H440 C452 0.950 . S
H441 C453 0.950 . S
C442 H434 0.950 . S
C442 C443 1.386 . S
C442 C444 1.391 . S
C443 C442 1.386 . S
C443 C447 1.393 . S
C444 H436 0.950 . S
C444 C442 1.391 . S
C444 C445 1.400 . S
C445 C444 1.400 . S
C445 C446 1.398 . S
C445 C451 1.491 . S
C446 H437 0.950 . S
C446 C445 1.398 . S
C446 C447 1.391 . S
C447 H435 0.950 . S
C447 C443 1.393 . S
C447 C446 1.391 . S
C448 H438 0.950 . S
C448 C449 1.386 . S
C448 C450 1.391 . S
C449 C448 1.386 . S
C449 C453 1.393 . S
C450 H439 0.950 . S
C450 C448 1.391 . S
C450 C451 1.400 . S
C451 C445 1.491 . S
C451 C450 1.400 . S
C451 C452 1.398 . S
C452 H440 0.950 . S
C452 C451 1.398 . S
C452 C453 1.391 . S
C453 H441 0.950 . S
C453 C449 1.393 . S
C453 C452 1.391 . S
H454 C462 0.950 . S
H455 C467 0.950 . S
H456 C464 0.950 . S
H457 C466 0.950 . S
H458 C468 0.950 . S
H459 C470 0.950 . S
H460 C472 0.950 . S
H461 C473 0.950 . S
C462 H454 0.950 . S
C462 C463 1.386 . S
C462 C464 1.391 . S
C463 C462 1.386 . S
C463 C467 1.393 . S
C464 H456 0.950 . S
C464 C462 1.391 . S
C464 C465 1.400 . S
C465 C464 1.400 . S
C465 C466 1.398 . S
C465 C471 1.491 . S
C466 H457 0.950 . S
C466 C465 1.398 . S
C466 C467 1.391 . S
C467 H455 0.950 . S
C467 C463 1.393 . S
C467 C466 1.391 . S
C468 H458 0.950 . S
C468 C469 1.386 . S
C468 C470 1.391 . S
C469 C468 1.386 . S
C469 C473 1.393 . S
C470 H459 0.950 . S
C470 C468 1.391 . S
C470 C471 1.400 . S
C471 C465 1.491 . S
C471 C470 1.400 . S
C471 C472 1.398 . S
C472 H460 0.950 . S
C472 C471 1.398 . S
C472 C473 1.391 . S
C473 H461 0.950 . S
C473 C469 1.393 . S
C473 C472 1.391 . S
H474 C482 0.950 . S
H475 C487 0.950 . S
H476 C484 0.950 . S
H477 C486 0.950 . S
H478 C488 0.950 . S
H479 C490 0.950 . S
H480 C492 0.950 . S
H481 C493 0.950 . S
C482 H474 0.950 . S
C482 C483 1.386 . S
C482 C484 1.391 . S
C483 C482 1.386 . S
C483 C487 1.393 . S
C484 H476 0.950 . S
C484 C482 1.391 . S
C484 C485 1.400 . S
C485 C484 1.400 . S
C485 C486 1.398 . S
C485 C491 1.491 . S
C486 H477 0.950 . S
C486 C485 1.398 . S
C486 C487 1.391 . S
C487 H475 0.950 . S
C487 C483 1.393 . S
C487 C486 1.391 . S
C488 H478 0.950 . S
C488 C489 1.386 . S
C488 C490 1.391 . S
C489 C488 1.386 . S
C489 C493 1.393 . S
C490 H479 0.950 . S
C490 C488 1.391 . S
C490 C491 1.400 . S
C491 C485 1.491 . S
C491 C490 1.400 . S
C491 C492 1.398 . S
C492 H480 0.950 . S
C492 C491 1.398 . S
C492 C493 1.391 . S
C493 H481 0.950 . S
C493 C489 1.393 . S
C493 C492 1.391 . S
H494 C502 0.950 . S
H495 C507 0.950 . S
H496 C504 0.950 . S
H497 C506 0.950 . S
H498 C508 0.950 . S
H499 C510 0.950 . S
H500 C512 0.950 . S
H501 C513 0.950 . S
C502 H494 0.950 . S
C502 C503 1.386 . S
C502 C504 1.391 . S
C503 C502 1.386 . S
C503 C507 1.393 . S
C504 H496 0.950 . S
C504 C502 1.391 . S
C504 C505 1.400 . S
C505 C504 1.400 . S
C505 C506 1.398 . S
C505 C511 1.491 . S
C506 H497 0.950 . S
C506 C505 1.398 . S
C506 C507 1.391 . S
C507 H495 0.950 . S
C507 C503 1.393 . S
C507 C506 1.391 . S
C508 H498 0.950 . S
C508 C509 1.386 . S
C508 C510 1.391 . S
C509 C508 1.386 . S
C509 C513 1.393 . S
C510 H499 0.950 . S
C510 C508 1.391 . S
C510 C511 1.400 . S
C511 C505 1.491 . S
C511 C510 1.400 . S
C511 C512 1.398 . S
C512 H500 0.950 . S
C512 C511 1.398 . S
C512 C513 1.391 . S
C513 H501 0.950 . S
C513 C509 1.393 . S
C513 C512 1.391 . S
H514 C522 0.950 . S
H515 C527 0.950 . S
H516 C524 0.950 . S
H517 C526 0.950 . S
H518 C528 0.950 . S
H519 C530 0.950 . S
H520 C532 0.950 . S
H521 C533 0.950 . S
C522 H514 0.950 . S
C522 C523 1.386 . S
C522 C524 1.391 . S
C523 C522 1.386 . S
C523 C527 1.393 . S
C524 H516 0.950 . S
C524 C522 1.391 . S
C524 C525 1.400 . S
C525 C524 1.400 . S
C525 C526 1.398 . S
C525 C531 1.491 . S
C526 H517 0.950 . S
C526 C525 1.398 . S
C526 C527 1.391 . S
C527 H515 0.950 . S
C527 C523 1.393 . S
C527 C526 1.391 . S
C528 H518 0.950 . S
C528 C529 1.386 . S
C528 C530 1.391 . S
C529 C528 1.386 . S
C529 C533 1.393 . S
C530 H519 0.950 . S
C530 C528 1.391 . S
C530 C531 1.400 . S
C531 C525 1.491 . S
C531 C530 1.400 . S
C531 C532 1.398 . S
C532 H520 0.950 . S
C532 C531 1.398 . S
C532 C533 1.391 . S
C533 H521 0.950 . S
C533 C529 1.393 . S
C533 C532 1.391 . S
H534 C542 0.950 . S
H535 C547 0.950 . S
H536 C544 0.950 . S
H537 C546 0.950 . S
H538 C548 0.950 . S
H539 C550 0.950 . S
H540 C552 0.950 . S
H541 C553 0.950 . S
C542 H534 0.950 . S
C542 C543 1.386 . S
C542 C544 1.391 . S
C543 C542 1.386 . S
C543 C547 1.393 . S
C544 H536 0.950 . S
C544 C542 1.391 . S
C544 C545 1.400 . S
C545 C544 1.400 . S
C545 C546 1.398 . S
C545 C551 1.491 1_655 S
C546 H537 0.950 . S
C546 C545 1.398 . S
C546 C547 1.391 . S
C547 H535 0.950 . S
C547 C543 1.393 . S
C547 C546 1.391 . S
C548 H538 0.950 . S
C548 C549 1.386 . S
C548 C550 1.391 . S
C549 C548 1.386 . S
C549 C553 1.393 . S
C550 H539 0.950 . S
C550 C548 1.391 . S
C550 C551 1.400 . S
C551 C545 1.491 1_455 S
C551 C550 1.400 . S
C551 C552 1.398 . S
C552 H540 0.950 . S
C552 C551 1.398 . S
C552 C553 1.391 . S
C553 H541 0.950 . S
C553 C549 1.393 . S
C553 C552 1.391 . S
H554 C562 0.950 . S
H555 C567 0.950 . S
H556 C564 0.950 . S
H557 C566 0.950 . S
H558 C568 0.950 . S
H559 C570 0.950 . S
H560 C572 0.950 . S
H561 C573 0.950 . S
C562 H554 0.950 . S
C562 C563 1.386 . S
C562 C564 1.391 . S
C563 C562 1.386 . S
C563 C567 1.393 . S
C564 H556 0.950 . S
C564 C562 1.391 . S
C564 C565 1.400 . S
C565 C564 1.400 . S
C565 C566 1.398 . S
C565 C571 1.491 . S
C566 H557 0.950 . S
C566 C565 1.398 . S
C566 C567 1.391 . S
C567 H555 0.950 . S
C567 C563 1.393 . S
C567 C566 1.391 . S
C568 H558 0.950 . S
C568 C569 1.386 . S
C568 C570 1.391 . S
C569 C568 1.386 . S
C569 C573 1.393 . S
C570 H559 0.950 . S
C570 C568 1.391 . S
C570 C571 1.400 . S
C571 C565 1.491 . S
C571 C570 1.400 . S
C571 C572 1.398 . S
C572 H560 0.950 . S
C572 C571 1.398 . S
C572 C573 1.391 . S
C573 H561 0.950 . S
C573 C569 1.393 . S
C573 C572 1.391 . S
H574 C582 0.950 . S
H575 C587 0.950 . S
H576 C584 0.950 . S
H577 C586 0.950 . S
H578 C588 0.950 . S
H579 C590 0.950 . S
H580 C592 0.950 . S
H581 C593 0.950 . S
C582 H574 0.950 . S
C582 C583 1.386 . S
C582 C584 1.391 1_545 S
C583 C582 1.386 . S
C583 C587 1.393 . S
C584 H576 0.950 . S
C584 C582 1.391 1_565 S
C584 C585 1.400 1_565 S
C585 C584 1.400 1_545 S
C585 C586 1.398 . S
C585 C591 1.491 1_545 S
C586 H577 0.950 . S
C586 C585 1.398 . S
C586 C587 1.391 . S
C587 H575 0.950 . S
C587 C583 1.393 . S
C587 C586 1.391 . S
C588 H578 0.950 . S
C588 C589 1.386 . S
C588 C590 1.391 1_565 S
C589 C588 1.386 . S
C589 C593 1.393 . S
C590 H579 0.950 . S
C590 C588 1.391 1_545 S
C590 C591 1.400 1_545 S
C591 C585 1.491 1_565 S
C591 C590 1.400 1_565 S
C591 C592 1.398 . S
C592 H580 0.950 . S
C592 C591 1.398 . S
C592 C593 1.391 . S
C593 H581 0.950 . S
C593 C589 1.393 . S
C593 C592 1.391 . S
C183 C160 1.513 . S
C189 C21 1.481 . S
C203 C50 1.479 . S
C209 C102 1.512 1_565 S
C223 C79 1.490 . S
C229 C131 1.527 1_455 S
C243 C44 1.518 . S
C249 C108 1.471 . S
C263 C73 1.514 1_545 S
C269 C137 1.483 . S
C283 C15 1.522 1_655 S
C289 C166 1.494 . S
C303 C92 2.483 . S
C309 C5 2.482 . S
C323 C121 2.474 . S
C329 C34 2.475 . S
C343 C150 2.481 . S
C349 C63 2.481 . S
C363 C124 2.012 . S
C369 C8 2.010 . S
C383 C37 2.001 . S
C389 C153 2.009 . S
C403 C95 2.008 . S
C409 C66 2.013 . S
C423 C3 1.085 . S
C429 C39 1.149 . S
C443 C68 1.130 . S
C449 C32 1.103 . S
C463 C10 1.126 . S
C469 C61 1.114 . S
C483 C90 1.096 . S
C489 C155 1.134 . S
C503 C119 1.085 . S
C509 C97 1.148 . S
C523 C126 1.134 . S
C529 C148 1.126 . S
C543 C129 1.423 . S
C549 C13 1.420 . S
C563 C42 1.459 . S
C569 C158 1.456 . S
C583 C100 1.454 . S
C589 C71 1.443 . S
