# Generated by pormake.
# Topology ooa, (5)-cn, num edge types: 1
# Building blocks:
#     Node 0, Type 0, BuildingBlock: BEQFEK_clean_sbu_0, # of connection points: 5
#     Node 1, Type 0, BuildingBlock: BEQFEK_clean_sbu_0, # of connection points: 5
#     Node 2, Type 0, BuildingBlock: BEQFEK_clean_sbu_0, # of connection points: 5
#     Node 3, Type 0, BuildingBlock: BEQFEK_clean_sbu_0, # of connection points: 5
#     Node 4, Type 0, BuildingBlock: BEQFEK_clean_sbu_0, # of connection points: 5
#     Node 5, Type 0, BuildingBlock: BEQFEK_clean_sbu_0, # of connection points: 5
#     Node 6, Type 0, BuildingBlock: BEQFEK_clean_sbu_0, # of connection points: 5
#     Node 7, Type 0, BuildingBlock: BEQFEK_clean_sbu_0, # of connection points: 5
#     Edge 8, Type (0, 0), BuildingBlock: MIFKUJ_clean_linker_0, # of connection points: 2
#     Edge 9, Type (0, 0), BuildingBlock: MIFKUJ_clean_linker_0, # of connection points: 2
#     Edge 10, Type (0, 0), BuildingBlock: MIFKUJ_clean_linker_0, # of connection points: 2
#     Edge 11, Type (0, 0), BuildingBlock: MIFKUJ_clean_linker_0, # of connection points: 2
#     Edge 12, Type (0, 0), BuildingBlock: MIFKUJ_clean_linker_0, # of connection points: 2
#     Edge 13, Type (0, 0), BuildingBlock: MIFKUJ_clean_linker_0, # of connection points: 2
#     Edge 14, Type (0, 0), BuildingBlock: MIFKUJ_clean_linker_0, # of connection points: 2
#     Edge 15, Type (0, 0), BuildingBlock: MIFKUJ_clean_linker_0, # of connection points: 2
#     Edge 16, Type (0, 0), BuildingBlock: MIFKUJ_clean_linker_0, # of connection points: 2
#     Edge 17, Type (0, 0), BuildingBlock: MIFKUJ_clean_linker_0, # of connection points: 2
#     Edge 18, Type (0, 0), BuildingBlock: MIFKUJ_clean_linker_0, # of connection points: 2
#     Edge 19, Type (0, 0), BuildingBlock: MIFKUJ_clean_linker_0, # of connection points: 2
#     Edge 20, Type (0, 0), BuildingBlock: MIFKUJ_clean_linker_0, # of connection points: 2
#     Edge 21, Type (0, 0), BuildingBlock: MIFKUJ_clean_linker_0, # of connection points: 2
#     Edge 22, Type (0, 0), BuildingBlock: MIFKUJ_clean_linker_0, # of connection points: 2
#     Edge 23, Type (0, 0), BuildingBlock: MIFKUJ_clean_linker_0, # of connection points: 2
#     Edge 24, Type (0, 0), BuildingBlock: MIFKUJ_clean_linker_0, # of connection points: 2
#     Edge 25, Type (0, 0), BuildingBlock: MIFKUJ_clean_linker_0, # of connection points: 2
#     Edge 26, Type (0, 0), BuildingBlock: MIFKUJ_clean_linker_0, # of connection points: 2
#     Edge 27, Type (0, 0), BuildingBlock: MIFKUJ_clean_linker_0, # of connection points: 2
# Relax obj value: 0.491
# Max RMSD: 0.270
# Mean RMSD: 0.270
data_MOF--net-ooa--node1-BEQFEK_clean_sbu_0--edge1-MIFKUJ_clean_linker_0
_symmetry_space_group_name_H-M    P1
_symmetry_Int_Tables_number       1
_symmetry_cell_setting            triclinic
loop_
_symmetry_equiv_pos_as_xyz
'x, y, z'
_cell_length_a     35.131747
_cell_length_b     57.924056
_cell_length_c     60.144883
_cell_angle_alpha  90.032811
_cell_angle_beta   90.000989
_cell_angle_gamma 89.999763
loop_
_atom_site_label
_atom_site_type_symbol
_atom_site_fract_x
_atom_site_fract_y
_atom_site_fract_z
_atom_type_partial_charge
Co0 Co 0.15048 0.12561 0.05159 0.0
Co1 Co 0.17736 0.16068 0.08822 0.0
C2 C 0.18191 0.10992 0.09565 0.0
O3 O 0.16742 0.1066 0.07657 0.0
O4 O 0.18873 0.1302 0.10289 0.0
C5 C 0.12982 0.08328 0.03056 0.0
O6 O 0.15677 0.07473 0.04325 0.0
C7 C 0.18237 0.18468 0.13124 0.0
C8 C 0.19632 0.22028 0.12087 0.0
C9 C 0.18906 0.20675 0.13937 0.0
N10 N 0.18569 0.18516 0.10897 0.0
N11 N 0.19426 0.20646 0.1029 0.0
C12 C 0.16972 0.16394 0.14408 0.0
H13 H 0.15031 0.15323 0.13381 0.0
H14 H 0.15508 0.16906 0.15968 0.0
H15 H 0.19501 0.15337 0.14837 0.0
C16 C 0.079 0.15047 0.05696 0.0
N17 N 0.11583 0.14747 0.06208 0.0
N18 N 0.12574 0.16207 0.07783 0.0
C19 C 0.09499 0.17503 0.08315 0.0
C20 C 0.06448 0.16789 0.07015 0.0
C21 C 0.05816 0.13688 0.03958 0.0
H22 H 0.05521 0.11873 0.04523 0.0
H23 H 0.02945 0.14402 0.03619 0.0
H24 H 0.0748 0.13693 0.02391 0.0
O25 O 0.19397 0.14052 0.03703 0.0
O26 O 0.21378 0.16521 0.06286 0.0
H27 H 0.11521 0.20699 0.09633 0.0
H28 H 0.06572 0.20109 0.10241 0.0
C29 C 0.09444 0.19331 0.10069 0.0
H30 H 0.10318 0.18571 0.11681 0.0
H31 H 0.19797 0.21165 0.08642 0.0
O32 O 0.12404 0.10491 0.03055 0.0
C33 C 0.21693 0.15609 0.04361 0.0
Co34 Co 0.34349 0.87987 0.0539 0.0
Co35 Co 0.32437 0.84141 0.08894 0.0
C36 C 0.31747 0.89163 0.09992 0.0
O37 O 0.32972 0.89698 0.08077 0.0
O38 O 0.31226 0.87068 0.10557 0.0
C39 C 0.35308 0.92355 0.03322 0.0
O40 O 0.32421 0.92928 0.04597 0.0
C41 C 0.3309 0.81362 0.13012 0.0
C42 C 0.30479 0.78078 0.11938 0.0
C43 C 0.32137 0.79155 0.13757 0.0
N44 N 0.32047 0.81555 0.10865 0.0
N45 N 0.30509 0.7958 0.10234 0.0
C46 C 0.34839 0.83289 0.1432 0.0
H47 H 0.34589 0.84951 0.13435 0.0
H48 H 0.37916 0.8294 0.14554 0.0
H49 H 0.33471 0.83429 0.15978 0.0
C50 C 0.41602 0.85521 0.05248 0.0
N51 N 0.38094 0.85811 0.06088 0.0
N52 N 0.37397 0.84196 0.07571 0.0
C53 C 0.40478 0.82802 0.07705 0.0
C54 C 0.4322 0.836 0.0623 0.0
C55 C 0.43375 0.87082 0.03554 0.0
H56 H 0.43377 0.88879 0.04195 0.0
H57 H 0.46346 0.86575 0.03162 0.0
H58 H 0.41646 0.87048 0.02011 0.0
O59 O 0.29873 0.86467 0.04065 0.0
O60 O 0.2851 0.83725 0.06524 0.0
H61 H 0.38273 0.79533 0.08735 0.0
H62 H 0.43415 0.79734 0.0883 0.0
C63 C 0.40713 0.80683 0.09114 0.0
H64 H 0.40527 0.81182 0.1089 0.0
H65 H 0.29443 0.79266 0.08645 0.0
O66 O 0.3645 0.90275 0.03302 0.0
C67 C 0.27832 0.84775 0.04702 0.0
Co68 Co 0.15126 0.36677 0.45772 0.0
Co69 Co 0.17698 0.33704 0.41675 0.0
C70 C 0.1748 0.38791 0.41364 0.0
O71 O 0.16379 0.38822 0.43373 0.0
O72 O 0.1816 0.3689 0.40373 0.0
C73 C 0.13704 0.40624 0.4837 0.0
O74 O 0.17166 0.41156 0.47721 0.0
C75 C 0.18497 0.31493 0.37235 0.0
C76 C 0.19624 0.27881 0.38216 0.0
C77 C 0.19088 0.29287 0.3638 0.0
N78 N 0.18605 0.31374 0.39471 0.0
N79 N 0.19309 0.29213 0.4004 0.0
C80 C 0.18071 0.33703 0.35971 0.0
H81 H 0.19852 0.35061 0.36745 0.0
H82 H 0.15057 0.34273 0.36044 0.0
H83 H 0.18965 0.33515 0.34213 0.0
C84 C 0.08379 0.33775 0.45421 0.0
N85 N 0.11864 0.34377 0.44721 0.0
N86 N 0.1273 0.33214 0.42912 0.0
C87 C 0.09725 0.31864 0.4237 0.0
C88 C 0.06898 0.3216 0.43965 0.0
C89 C 0.06389 0.34904 0.47334 0.0
H90 H 0.08302 0.34937 0.48802 0.0
H91 H 0.05731 0.36709 0.46869 0.0
H92 H 0.03697 0.34022 0.47778 0.0
O93 O 0.1977 0.35325 0.46994 0.0
O94 O 0.21699 0.33297 0.44059 0.0
H95 H 0.11419 0.28846 0.40596 0.0
H96 H 0.0659 0.29738 0.4005 0.0
C97 C 0.09533 0.3036 0.40353 0.0
H98 H 0.10566 0.3133 0.38882 0.0
H99 H 0.19517 0.2864 0.4168 0.0
O100 O 0.12396 0.38635 0.47919 0.0
C101 C 0.2217 0.33993 0.46059 0.0
Co102 Co 0.32821 0.62421 0.45106 0.0
Co103 Co 0.31296 0.65997 0.41331 0.0
C104 C 0.28434 0.61268 0.40901 0.0
O105 O 0.29557 0.60915 0.42876 0.0
O106 O 0.29121 0.6316 0.39906 0.0
C107 C 0.36075 0.58175 0.45755 0.0
O108 O 0.3582 0.58301 0.4358 0.0
C109 C 0.31482 0.6836 0.37032 0.0
C110 C 0.30917 0.72022 0.38008 0.0
C111 C 0.3135 0.70585 0.36183 0.0
N112 N 0.31126 0.68477 0.39253 0.0
N113 N 0.3077 0.70669 0.39826 0.0
C114 C 0.32278 0.66172 0.35793 0.0
H115 H 0.33843 0.64942 0.36872 0.0
H116 H 0.33965 0.66517 0.34268 0.0
H117 H 0.29539 0.65363 0.35306 0.0
C118 C 0.40672 0.63993 0.44428 0.0
N119 N 0.36983 0.63981 0.43834 0.0
N120 N 0.36422 0.65517 0.42259 0.0
C121 C 0.39776 0.6656 0.41798 0.0
C122 C 0.42574 0.65603 0.43145 0.0
C123 C 0.42253 0.62702 0.4638 0.0
H124 H 0.40138 0.62659 0.47747 0.0
H125 H 0.42899 0.60905 0.45868 0.0
H126 H 0.44914 0.63504 0.47006 0.0
O127 O 0.29708 0.64615 0.46793 0.0
O128 O 0.28054 0.66889 0.43959 0.0
H129 H 0.38562 0.69998 0.40733 0.0
H130 H 0.43297 0.69012 0.40029 0.0
C131 C 0.40266 0.68493 0.40178 0.0
H132 H 0.39198 0.67949 0.38525 0.0
H133 H 0.30489 0.71244 0.41465 0.0
O134 O 0.34819 0.59844 0.4692 0.0
C135 C 0.27811 0.663 0.46002 0.0
Co136 Co 0.83476 0.88255 0.94287 0.0
Co137 Co 0.82131 0.84321 0.90786 0.0
C138 C 0.80258 0.8922 0.89762 0.0
O139 O 0.81236 0.89808 0.91712 0.0
O140 O 0.80494 0.87139 0.89091 0.0
C141 C 0.83958 0.92722 0.96352 0.0
O142 O 0.81053 0.93241 0.95071 0.0
C143 C 0.8275 0.81725 0.86612 0.0
C144 C 0.81581 0.78153 0.87698 0.0
C145 C 0.82429 0.79473 0.85842 0.0
N146 N 0.82094 0.81735 0.88813 0.0
N147 N 0.81392 0.79594 0.89453 0.0
C148 C 0.83934 0.83815 0.85325 0.0
H149 H 0.85545 0.85015 0.86415 0.0
H150 H 0.85714 0.83329 0.83874 0.0
H151 H 0.81355 0.84725 0.8472 0.0
C152 C 0.91234 0.86397 0.94155 0.0
N153 N 0.8763 0.86431 0.93408 0.0
N154 N 0.87111 0.84717 0.92003 0.0
C155 C 0.90387 0.83505 0.91851 0.0
C156 C 0.93101 0.84546 0.93197 0.0
C157 C 0.92755 0.87999 0.95897 0.0
H158 H 0.92466 0.89807 0.95313 0.0
H159 H 0.9579 0.87648 0.9628 0.0
H160 H 0.91045 0.87814 0.97438 0.0
O161 O 0.79646 0.86346 0.95779 0.0
O162 O 0.78377 0.83673 0.93225 0.0
H163 H 0.8881 0.80013 0.91175 0.0
H164 H 0.9379 0.80636 0.90683 0.0
C165 C 0.90849 0.81323 0.9055 0.0
H166 H 0.90179 0.81658 0.88778 0.0
H167 H 0.80803 0.79117 0.91088 0.0
O168 O 0.85277 0.90679 0.96334 0.0
C169 C 0.77791 0.84583 0.95129 0.0
Co170 Co 0.65812 0.1259 0.95246 0.0
Co171 Co 0.67977 0.16075 0.91463 0.0
C172 C 0.68924 0.11015 0.90819 0.0
O173 O 0.67659 0.10691 0.92772 0.0
O174 O 0.69286 0.13043 0.90025 0.0
C175 C 0.64442 0.08342 0.9748 0.0
O176 O 0.67366 0.07634 0.96302 0.0
C177 C 0.68052 0.18355 0.87102 0.0
C178 C 0.69142 0.2199 0.88019 0.0
C179 C 0.68464 0.20554 0.86221 0.0
N180 N 0.68479 0.18486 0.8932 0.0
N181 N 0.69154 0.20661 0.89856 0.0
C182 C 0.66943 0.16199 0.85894 0.0
H183 H 0.6506 0.15129 0.86957 0.0
H184 H 0.65468 0.16604 0.8431 0.0
H185 H 0.69545 0.15184 0.8552 0.0
C186 C 0.58438 0.14875 0.94838 0.0
N187 N 0.62073 0.14608 0.94201 0.0
N188 N 0.62871 0.16077 0.92599 0.0
C189 C 0.59716 0.17342 0.92173 0.0
C190 C 0.56829 0.16617 0.93586 0.0
C191 C 0.56538 0.13469 0.9661 0.0
H192 H 0.58165 0.13628 0.98183 0.0
H193 H 0.56548 0.11624 0.96111 0.0
H194 H 0.53552 0.14019 0.96898 0.0
O195 O 0.69963 0.14331 0.96641 0.0
O196 O 0.71695 0.16716 0.93922 0.0
H197 H 0.6147 0.20638 0.90962 0.0
H198 H 0.56554 0.19942 0.90373 0.0
C199 C 0.59483 0.19234 0.9049 0.0
H200 H 0.60366 0.18562 0.88842 0.0
H201 H 0.69549 0.21245 0.91483 0.0
O202 O 0.63472 0.10452 0.97398 0.0
C203 C 0.72095 0.15927 0.9589 0.0
Co204 Co 0.84516 0.63003 0.54135 0.0
Co205 Co 0.82338 0.6603 0.58278 0.0
C206 C 0.81382 0.61034 0.58486 0.0
O207 O 0.8241 0.60981 0.56462 0.0
O208 O 0.81363 0.62915 0.59579 0.0
C209 C 0.89645 0.59664 0.53159 0.0
O210 O 0.90273 0.60143 0.55262 0.0
C211 C 0.81749 0.6829 0.62697 0.0
C212 C 0.8146 0.71959 0.61709 0.0
C213 C 0.8163 0.70525 0.63549 0.0
N214 N 0.81736 0.68414 0.60461 0.0
N215 N 0.81525 0.70612 0.59887 0.0
C216 C 0.81689 0.66066 0.63964 0.0
H217 H 0.79675 0.64849 0.63169 0.0
H218 H 0.84568 0.65278 0.63925 0.0
H219 H 0.80784 0.66324 0.65712 0.0
C220 C 0.91701 0.65532 0.54637 0.0
N221 N 0.88122 0.65082 0.55288 0.0
N222 N 0.87402 0.66203 0.57142 0.0
C223 C 0.90598 0.67322 0.57786 0.0
C224 C 0.9343 0.66911 0.56221 0.0
C225 C 0.93369 0.64793 0.52456 0.0
H226 H 0.91084 0.64451 0.51227 0.0
H227 H 0.95075 0.63203 0.52692 0.0
H228 H 0.953 0.6615 0.51801 0.0
O229 O 0.80354 0.64715 0.52787 0.0
O230 O 0.78504 0.6664 0.55814 0.0
H231 H 0.89611 0.70344 0.5973 0.0
H232 H 0.94032 0.689 0.60354 0.0
C233 C 0.90995 0.68634 0.59915 0.0
H234 H 0.89546 0.6769 0.61277 0.0
H235 H 0.81516 0.71195 0.58245 0.0
O236 O 0.8708 0.60777 0.52119 0.0
C237 C 0.78082 0.66097 0.53763 0.0
Co238 Co 0.66261 0.37674 0.55377 0.0
Co239 Co 0.687 0.3383 0.5878 0.0
C240 C 0.70371 0.3881 0.59625 0.0
O241 O 0.68786 0.3932 0.57798 0.0
O242 O 0.70641 0.36724 0.60274 0.0
C243 C 0.6217 0.4169 0.54692 0.0
O244 O 0.62281 0.4159 0.56872 0.0
C245 C 0.68319 0.3119 0.62956 0.0
C246 C 0.70818 0.27846 0.61968 0.0
C247 C 0.69214 0.29 0.6376 0.0
N248 N 0.69309 0.31299 0.60797 0.0
N249 N 0.70803 0.29294 0.60218 0.0
C250 C 0.66673 0.33185 0.64217 0.0
H251 H 0.67156 0.34828 0.63329 0.0
H252 H 0.63552 0.32951 0.64379 0.0
H253 H 0.67934 0.33286 0.65907 0.0
C254 C 0.58865 0.35398 0.55862 0.0
N255 N 0.62512 0.35671 0.56486 0.0
N256 N 0.63456 0.34026 0.57892 0.0
C257 C 0.60406 0.32627 0.58176 0.0
C258 C 0.57397 0.33482 0.56925 0.0
C259 C 0.56945 0.36785 0.54082 0.0
H260 H 0.58889 0.37002 0.52645 0.0
H261 H 0.56232 0.38514 0.54753 0.0
H262 H 0.54271 0.35963 0.53503 0.0
O263 O 0.70055 0.35905 0.53643 0.0
O264 O 0.71885 0.33233 0.56082 0.0
H265 H 0.62958 0.29352 0.5888 0.0
H266 H 0.57822 0.29388 0.59139 0.0
C267 C 0.60472 0.30391 0.59417 0.0
H268 H 0.60762 0.30746 0.61219 0.0
H269 H 0.71807 0.28913 0.58627 0.0
O270 O 0.63795 0.4011 0.53571 0.0
C271 C 0.72107 0.34169 0.54163 0.0
H272 H 0.07264 0.095 0.00179 0.0
H273 H 0.02119 0.07009 0.98852 0.0
H274 H 0.07213 0.01199 0.0221 0.0
H275 H 0.12362 0.03665 0.03523 0.0
H276 H 0.04299 0.99948 0.9824 0.0
H277 H 0.00296 0.04384 0.04628 0.0
H278 H 0.99226 0.08015 0.06678 0.0
H279 H 0.91243 0.10212 0.01716 0.0
H280 H 0.92337 0.06624 0.99596 0.0
H281 H 0.89587 0.92202 0.99424 0.0
H282 H 0.94151 0.95125 0.00609 0.0
H283 H 0.8803 0.00302 0.96897 0.0
H284 H 0.83353 0.97398 0.95766 0.0
H285 H 0.91287 0.02073 0.00743 0.0
H286 H 0.95102 0.9754 0.94436 0.0
H287 H 0.96103 0.93862 0.92452 0.0
H288 H 0.04385 0.9182 0.97319 0.0
H289 H 0.03384 0.95472 0.99354 0.0
C290 C 0.07323 0.07683 0.00602 0.0
C291 C 0.10214 0.06779 0.01965 0.0
C292 C 0.04376 0.06266 0.99848 0.0
C293 C 0.04255 0.0393 0.00466 0.0
C294 C 0.07251 0.02998 0.01717 0.0
C295 C 0.10202 0.0441 0.02463 0.0
C296 C 0.00897 0.02484 0.99948 0.0
C297 C 0.0146 0.00406 0.98798 0.0
C298 C 0.97179 0.03111 0.0064 0.0
C299 C 0.96436 0.05245 0.01939 0.0
C300 C 0.98333 0.0565 0.03963 0.0
C301 C 0.97726 0.07703 0.05135 0.0
C302 C 0.95183 0.0935 0.04318 0.0
C303 C 0.93227 0.08942 0.02335 0.0
C304 C 0.93842 0.06899 0.01146 0.0
C305 C 0.89152 0.93973 0.98905 0.0
C306 C 0.86166 0.94561 0.97458 0.0
C307 C 0.91766 0.9564 0.9958 0.0
C308 C 0.91483 0.97911 0.98785 0.0
C309 C 0.88313 0.98552 0.9751 0.0
C310 C 0.85652 0.96888 0.96861 0.0
C311 C 0.94713 0.99521 0.99075 0.0
C312 C 0.94122 0.01628 0.0017 0.0
C313 C 0.98412 0.98927 0.98331 0.0
C314 C 0.99152 0.96776 0.97054 0.0
C315 C 0.97134 0.96306 0.95084 0.0
C316 C 0.97697 0.94225 0.93952 0.0
C317 C 0.00305 0.92608 0.9476 0.0
C318 C 0.02368 0.93075 0.96695 0.0
C319 C 0.01806 0.95152 0.97837 0.0
H320 H 0.00725 0.90993 0.93887 0.0
H321 H 0.94717 0.10939 0.05226 0.0
H322 H 0.64244 0.03693 0.96783 0.0
H323 H 0.5916 0.01044 0.97836 0.0
H324 H 0.53644 0.06493 0.01524 0.0
H325 H 0.58652 0.0918 0.00403 0.0
H326 H 0.56159 0.99358 0.01467 0.0
H327 H 0.44117 0.06105 0.00939 0.0
H328 H 0.42962 0.09902 0.99205 0.0
H329 H 0.50635 0.08191 0.93899 0.0
H330 H 0.51818 0.0438 0.95592 0.0
H331 H 0.35178 0.9699 0.04152 0.0
H332 H 0.40029 0.99803 0.03096 0.0
H333 H 0.4567 0.94632 0.99117 0.0
H334 H 0.40902 0.91787 0.00224 0.0
H335 H 0.43022 0.01686 0.99409 0.0
H336 H 0.55255 0.95038 0.99919 0.0
H337 H 0.56537 0.9123 0.016 0.0
H338 H 0.48516 0.92676 0.06805 0.0
H339 H 0.47256 0.96512 0.05187 0.0
C340 C 0.61986 0.0432 0.97851 0.0
C341 C 0.61818 0.06652 0.98486 0.0
C342 C 0.59078 0.02802 0.9845 0.0
C343 C 0.55973 0.03586 0.9971 0.0
C344 C 0.55961 0.05868 0.00499 0.0
C345 C 0.58837 0.07397 0.99871 0.0
C346 C 0.52661 0.02049 0.00078 0.0
C347 C 0.53294 0.99858 0.00997 0.0
C348 C 0.4891 0.02719 0.99494 0.0
C349 C 0.48084 0.04966 0.98407 0.0
C350 C 0.45536 0.06533 0.99395 0.0
C351 C 0.44879 0.08688 0.9842 0.0
C352 C 0.46725 0.09287 0.96444 0.0
C353 C 0.49213 0.07727 0.95432 0.0
C354 C 0.49881 0.0557 0.96399 0.0
C355 C 0.37407 0.96463 0.03015 0.0
C356 C 0.37703 0.94158 0.02302 0.0
C357 C 0.40176 0.98074 0.02413 0.0
C358 C 0.43262 0.97408 0.01079 0.0
C359 C 0.43362 0.95164 0.00196 0.0
C360 C 0.40627 0.93544 0.00821 0.0
C361 C 0.46532 0.98988 0.00777 0.0
C362 C 0.45889 0.01188 0.99879 0.0
C363 C 0.50281 0.98322 0.01369 0.0
C364 C 0.51129 0.96054 0.02414 0.0
C365 C 0.53785 0.9455 0.01431 0.0
C366 C 0.54507 0.92386 0.02372 0.0
C367 C 0.52594 0.91707 0.04301 0.0
C368 C 0.49986 0.93201 0.05306 0.0
C369 C 0.49271 0.95371 0.04379 0.0
H370 H 0.53139 0.90026 0.05019 0.0
H371 H 0.46232 0.10959 0.95697 0.0
H372 H 0.9714 0.58929 0.538 0.0
H373 H 0.00957 0.55702 0.52425 0.0
H374 H 0.91253 0.53113 0.4881 0.0
H375 H 0.87432 0.56412 0.50123 0.0
H376 H 0.95219 0.50094 0.52349 0.0
H377 H 0.97278 0.5435 0.45678 0.0
H378 H 0.99001 0.57663 0.43313 0.0
H379 H 0.10292 0.57659 0.46044 0.0
H380 H 0.0862 0.54371 0.48456 0.0
H381 H 0.05946 0.40458 0.48549 0.0
H382 H 0.01596 0.43679 0.49049 0.0
H383 H 0.11113 0.48196 0.50362 0.0
H384 H 0.15506 0.44985 0.49748 0.0
H385 H 0.06663 0.5015 0.47529 0.0
H386 H 0.04595 0.4629 0.54488 0.0
H387 H 0.03036 0.43048 0.56982 0.0
H388 H 0.91989 0.42458 0.53979 0.0
H389 H 0.93502 0.45678 0.51446 0.0
C390 C 0.95847 0.57702 0.52668 0.0
C391 C 0.92005 0.57908 0.52061 0.0
C392 C 0.9803 0.55869 0.5188 0.0
C393 C 0.96382 0.54186 0.50513 0.0
C394 C 0.9257 0.54417 0.49847 0.0
C395 C 0.90403 0.56295 0.50591 0.0
C396 C 0.98554 0.52067 0.5003 0.0
C397 C 0.97679 0.50084 0.51261 0.0
C398 C 0.01821 0.52097 0.48664 0.0
C399 C 0.02805 0.54126 0.47269 0.0
C400 C 0.00111 0.55076 0.458 0.0
C401 C 0.01084 0.56945 0.44444 0.0
C402 C 0.0475 0.57875 0.44532 0.0
C403 C 0.07451 0.5694 0.45979 0.0
C404 C 0.06491 0.55072 0.47341 0.0
C405 C 0.07118 0.42124 0.48981 0.0
C406 C 0.11076 0.42466 0.49101 0.0
C407 C 0.04617 0.4397 0.49272 0.0
C408 C 0.06019 0.46184 0.49753 0.0
C409 C 0.09965 0.46506 0.49978 0.0
C410 C 0.12472 0.44666 0.49645 0.0
C411 C 0.03397 0.48187 0.49903 0.0
C412 C 0.0419 0.50148 0.48609 0.0
C413 C 0.00086 0.48155 0.51246 0.0
C414 C 0.99182 0.46206 0.52757 0.0
C415 C 0.01848 0.45454 0.54345 0.0
C416 C 0.00969 0.43624 0.55769 0.0
C417 C 0.97421 0.42542 0.55634 0.0
C418 C 0.9474 0.43294 0.54078 0.0
C419 C 0.95606 0.45122 0.52648 0.0
H420 H 0.96745 0.41126 0.56739 0.0
H421 H 0.05502 0.59316 0.43474 0.0
H422 H 0.38613 0.54276 0.43721 0.0
H423 H 0.42914 0.51373 0.45229 0.0
H424 H 0.4282 0.54856 0.51573 0.0
H425 H 0.38545 0.57802 0.5006 0.0
H426 H 0.49943 0.54019 0.5015 0.0
H427 H 0.38404 0.49667 0.50866 0.0
H428 H 0.32386 0.47895 0.49631 0.0
H429 H 0.3845 0.43808 0.44841 0.0
H430 H 0.44507 0.45583 0.46025 0.0
H431 H 0.59148 0.45524 0.566 0.0
H432 H 0.54766 0.48288 0.54939 0.0
H433 H 0.55427 0.44657 0.48685 0.0
H434 H 0.5981 0.41851 0.5035 0.0
H435 H 0.48104 0.4553 0.49923 0.0
H436 H 0.59633 0.49832 0.49219 0.0
H437 H 0.65666 0.51601 0.50437 0.0
H438 H 0.59619 0.55773 0.55167 0.0
H439 H 0.53554 0.5401 0.53995 0.0
C440 C 0.39463 0.54411 0.45447 0.0
C441 C 0.38256 0.56273 0.46771 0.0
C442 C 0.41908 0.52741 0.46309 0.0
C443 C 0.4317 0.52895 0.48514 0.0
C444 C 0.41871 0.5471 0.49865 0.0
C445 C 0.39418 0.56383 0.49003 0.0
C446 C 0.46063 0.51259 0.49354 0.0
C447 C 0.49518 0.52163 0.50135 0.0
C448 C 0.45553 0.48837 0.49249 0.0
C449 C 0.41909 0.47778 0.4852 0.0
C450 C 0.38454 0.48409 0.49534 0.0
C451 C 0.35035 0.474 0.48846 0.0
C452 C 0.35035 0.45745 0.47156 0.0
C453 C 0.38455 0.45093 0.46149 0.0
C454 C 0.41883 0.46099 0.46829 0.0
C455 C 0.58395 0.45322 0.54864 0.0
C456 C 0.59819 0.4347 0.53604 0.0
C457 C 0.55903 0.46911 0.53915 0.0
C458 C 0.54797 0.46684 0.51686 0.0
C459 C 0.56259 0.4486 0.50408 0.0
C460 C 0.58774 0.43269 0.51357 0.0
C461 C 0.51962 0.48294 0.50741 0.0
C462 C 0.48526 0.47386 0.49933 0.0
C463 C 0.52489 0.50713 0.50815 0.0
C464 C 0.5614 0.51771 0.51532 0.0
C465 C 0.59592 0.51112 0.50532 0.0
C466 C 0.63018 0.52118 0.51211 0.0
C467 C 0.63029 0.53796 0.52881 0.0
C468 C 0.5961 0.54474 0.53873 0.0
C469 C 0.56176 0.53474 0.532 0.0
H470 H 0.65685 0.54571 0.53403 0.0
H471 H 0.32385 0.44962 0.46633 0.0
H472 H 0.35962 0.92901 0.11063 0.0
H473 H 0.33502 0.96597 0.12415 0.0
H474 H 0.2244 0.93526 0.1333 0.0
H475 H 0.24935 0.89792 0.12055 0.0
H476 H 0.24739 0.97275 0.09499 0.0
H477 H 0.24119 0.9551 0.17357 0.0
H478 H 0.26867 0.94314 0.20947 0.0
H479 H 0.34599 0.00051 0.20746 0.0
H480 H 0.31937 0.0126 0.17134 0.0
H481 H 0.14052 0.07098 0.0994 0.0
H482 H 0.16272 0.0334 0.11218 0.0
H483 H 0.26924 0.06384 0.13256 0.0
H484 H 0.24644 0.10194 0.12023 0.0
H485 H 0.24908 0.02627 0.15944 0.0
H486 H 0.26429 0.04309 0.08288 0.0
H487 H 0.24817 0.05494 0.04467 0.0
H488 H 0.16734 0.99955 0.03994 0.0
H489 H 0.1823 0.9877 0.07834 0.0
C490 C 0.33059 0.92988 0.11667 0.0
C491 C 0.30631 0.91073 0.11465 0.0
C492 C 0.31663 0.95095 0.12444 0.0
C493 C 0.27803 0.95325 0.12986 0.0
C494 C 0.25446 0.93365 0.1296 0.0
C495 C 0.2687 0.91237 0.12233 0.0
C496 C 0.26093 0.97653 0.12965 0.0
C497 C 0.24684 0.98429 0.10922 0.0
C498 C 0.26255 0.99185 0.14791 0.0
C499 C 0.27857 0.9846 0.16961 0.0
C500 C 0.26436 0.96501 0.18064 0.0
C501 C 0.2797 0.95824 0.20107 0.0
C502 C 0.30914 0.97101 0.21071 0.0
C503 C 0.32322 0.99061 0.19996 0.0
C504 C 0.30799 0.99744 0.17952 0.0
C505 C 0.1682 0.06981 0.10727 0.0
C506 C 0.19198 0.08924 0.10864 0.0
C507 C 0.18088 0.04833 0.11454 0.0
C508 C 0.21794 0.04574 0.12283 0.0
C509 C 0.24056 0.06548 0.12613 0.0
C510 C 0.22756 0.0872 0.11912 0.0
C511 C 0.23429 0.02222 0.12487 0.0
C512 C 0.24887 0.01457 0.14535 0.0
C513 C 0.23437 0.00701 0.10641 0.0
C514 C 0.22407 0.01469 0.08362 0.0
C515 C 0.24265 0.03364 0.07383 0.0
C516 C 0.23383 0.04031 0.0521 0.0
C517 C 0.20676 0.028 0.03989 0.0
C518 C 0.18831 0.00907 0.04942 0.0
C519 C 0.19687 0.00241 0.07119 0.0
H520 H 0.20004 0.03315 0.02304 0.0
H521 H 0.32097 0.96575 0.22653 0.0
H522 H 0.21776 0.39829 0.37639 0.0
H523 H 0.23218 0.43713 0.36199 0.0
H524 H 0.15906 0.46696 0.41201 0.0
H525 H 0.14428 0.42882 0.426 0.0
H526 H 0.1511 0.49 0.37503 0.0
H527 H 0.2557 0.46068 0.41934 0.0
H528 H 0.30768 0.43369 0.4285 0.0
H529 H 0.36217 0.44889 0.36632 0.0
H530 H 0.30998 0.47559 0.35654 0.0
H531 H 0.2259 0.58823 0.4256 0.0
H532 H 0.2023 0.55111 0.41237 0.0
H533 H 0.27619 0.55552 0.35524 0.0
H534 H 0.2996 0.59327 0.36844 0.0
H535 H 0.28558 0.51513 0.38158 0.0
H536 H 0.18277 0.55454 0.34546 0.0
H537 H 0.13117 0.5833 0.34307 0.0
H538 H 0.07359 0.55086 0.39773 0.0
H539 H 0.12496 0.52202 0.40058 0.0
C540 C 0.20427 0.41316 0.38395 0.0
C541 C 0.18028 0.41049 0.4025 0.0
C542 C 0.21263 0.43532 0.3758 0.0
C543 C 0.19699 0.45502 0.38606 0.0
C544 C 0.17145 0.45212 0.40374 0.0
C545 C 0.16324 0.43021 0.41185 0.0
C546 C 0.20897 0.47885 0.38009 0.0
C547 C 0.18057 0.49546 0.3762 0.0
C548 C 0.24748 0.48601 0.38128 0.0
C549 C 0.27864 0.46981 0.38704 0.0
C550 C 0.27855 0.45807 0.40751 0.0
C551 C 0.30809 0.44288 0.41284 0.0
C552 C 0.33818 0.43956 0.398 0.0
C553 C 0.33878 0.45143 0.37778 0.0
C554 C 0.30919 0.46655 0.3723 0.0
C555 C 0.23611 0.58166 0.40981 0.0
C556 C 0.26424 0.5936 0.39791 0.0
C557 C 0.22262 0.56046 0.40225 0.0
C558 C 0.23731 0.55059 0.38275 0.0
C559 C 0.26428 0.56295 0.37023 0.0
C560 C 0.27738 0.58452 0.37765 0.0
C561 C 0.22754 0.52628 0.37744 0.0
C562 C 0.25633 0.50958 0.37933 0.0
C563 C 0.18926 0.5191 0.37521 0.0
C564 C 0.15775 0.53608 0.37319 0.0
C565 C 0.15914 0.55355 0.35698 0.0
C566 C 0.12991 0.56987 0.35555 0.0
C567 C 0.0991 0.56889 0.37022 0.0
C568 C 0.0974 0.55155 0.38632 0.0
C569 C 0.12651 0.53516 0.3878 0.0
H570 H 0.07656 0.58158 0.36911 0.0
H571 H 0.36107 0.42783 0.4022 0.0
H572 H 0.83755 0.91391 0.86305 0.0
H573 H 0.81969 0.95203 0.84826 0.0
H574 H 0.71664 0.95029 0.8873 0.0
H575 H 0.7344 0.91248 0.90183 0.0
H576 H 0.70571 0.9734 0.84835 0.0
H577 H 0.80204 0.96907 0.90776 0.0
H578 H 0.86549 0.95795 0.92175 0.0
H579 H 0.9186 0.99903 0.87117 0.0
H580 H 0.85552 0.00965 0.85626 0.0
H581 H 0.65909 0.06747 0.91212 0.0
H582 H 0.67994 0.03202 0.89436 0.0
H583 H 0.76414 0.06992 0.85704 0.0
H584 H 0.74289 0.10604 0.87492 0.0
H585 H 0.79375 0.03189 0.87983 0.0
H586 H 0.69515 0.04495 0.8282 0.0
H587 H 0.63124 0.05607 0.81513 0.0
H588 H 0.58192 1.0 0.85183 0.0
H589 H 0.64543 0.98873 0.86542 0.0
C590 C 0.81029 0.92131 0.86755 0.0
C591 C 0.78703 0.91036 0.88332 0.0
C592 C 0.80026 0.9431 0.85928 0.0
C593 C 0.76708 0.95414 0.86692 0.0
C594 C 0.74229 0.94212 0.8811 0.0
C595 C 0.75235 0.9205 0.88938 0.0
C596 C 0.76045 0.97918 0.86338 0.0
C597 C 0.72508 0.98626 0.85497 0.0
C598 C 0.78631 0.99605 0.87139 0.0
C599 C 0.82409 0.98987 0.88067 0.0
C600 C 0.82724 0.97558 0.8995 0.0
C601 C 0.86312 0.96937 0.90761 0.0
C602 C 0.896 0.97783 0.89741 0.0
C603 C 0.8931 0.99246 0.87903 0.0
C604 C 0.85731 0.99848 0.87067 0.0
C605 C 0.68168 0.06842 0.89989 0.0
C606 C 0.69952 0.08953 0.895 0.0
C607 C 0.69339 0.04811 0.8896 0.0
C608 C 0.72334 0.04832 0.8742 0.0
C609 C 0.74075 0.06944 0.86876 0.0
C610 C 0.72856 0.09001 0.87891 0.0
C611 C 0.73815 0.02593 0.86588 0.0
C612 C 0.77498 0.01928 0.87222 0.0
C613 C 0.71357 0.00945 0.85608 0.0
C614 C 0.67518 0.01599 0.84784 0.0
C615 C 0.67068 0.03505 0.83358 0.0
C616 C 0.6345 0.04138 0.82607 0.0
C617 C 0.60255 0.02875 0.83264 0.0
C618 C 0.60671 0.00974 0.84672 0.0
C619 C 0.64283 0.00334 0.85429 0.0
H620 H 0.57456 0.03369 0.82681 0.0
H621 H 0.92373 0.97305 0.90374 0.0
H622 H 0.77493 0.39271 0.61446 0.0
H623 H 0.80385 0.4292 0.62704 0.0
H624 H 0.69569 0.4635 0.61876 0.0
H625 H 0.66724 0.42747 0.60643 0.0
H626 H 0.81117 0.46488 0.60053 0.0
H627 H 0.68581 0.50991 0.64885 0.0
H628 H 0.64069 0.50006 0.67874 0.0
H629 H 0.71566 0.44654 0.70155 0.0
H630 H 0.76157 0.45628 0.67203 0.0
H631 H 0.78155 0.57388 0.56433 0.0
H632 H 0.77135 0.53531 0.57903 0.0
H633 H 0.81194 0.55738 0.64331 0.0
H634 H 0.82151 0.59674 0.62861 0.0
H635 H 0.75117 0.52633 0.64621 0.0
H636 H 0.87182 0.52862 0.61225 0.0
H637 H 0.91752 0.54013 0.5832 0.0
H638 H 0.85827 0.49838 0.53545 0.0
H639 H 0.81163 0.48698 0.56407 0.0
C640 C 0.75718 0.40789 0.61626 0.0
C641 C 0.71894 0.40739 0.60951 0.0
C642 C 0.77371 0.42873 0.62329 0.0
C643 C 0.75195 0.44914 0.62399 0.0
C644 C 0.71303 0.44803 0.61884 0.0
C645 C 0.69676 0.42742 0.61164 0.0
C646 C 0.77017 0.47222 0.62625 0.0
C647 C 0.79863 0.47818 0.6109 0.0
C648 C 0.75464 0.48959 0.64018 0.0
C649 C 0.72719 0.48383 0.65815 0.0
C650 C 0.69288 0.49617 0.66034 0.0
C651 C 0.6671 0.49056 0.6772 0.0
C652 C 0.67529 0.47268 0.69202 0.0
C653 C 0.70931 0.46037 0.69003 0.0
C654 C 0.7352 0.4659 0.67321 0.0
C655 C 0.78794 0.57067 0.58168 0.0
C656 C 0.80283 0.58822 0.59526 0.0
C657 C 0.7822 0.54858 0.59005 0.0
C658 C 0.79191 0.54331 0.61208 0.0
C659 C 0.80467 0.56107 0.62618 0.0
C660 C 0.81003 0.58349 0.61781 0.0
C661 C 0.78993 0.51889 0.61948 0.0
C662 C 0.76462 0.51281 0.63651 0.0
C663 C 0.80894 0.50131 0.60745 0.0
C664 C 0.83813 0.50697 0.59037 0.0
C665 C 0.86849 0.52188 0.59556 0.0
C666 C 0.89451 0.52843 0.57915 0.0
C667 C 0.89072 0.52004 0.5575 0.0
C668 C 0.86112 0.50487 0.55224 0.0
C669 C 0.83491 0.49832 0.56858 0.0
H670 H 0.91066 0.52536 0.54482 0.0
H671 H 0.65527 0.46836 0.70505 0.0
H672 H 0.22873 0.14279 0.00058 0.0
H673 H 0.28408 0.15053 0.97735 0.0
H674 H 0.33339 0.19171 0.02971 0.0
H675 H 0.27765 0.18432 0.05311 0.0
H676 H 0.34607 0.21085 0.98883 0.0
H677 H 0.35977 0.13652 0.02318 0.0
H678 H 0.34245 0.09666 0.03337 0.0
H679 H 0.33817 0.07786 0.96435 0.0
H680 H 0.35487 0.11773 0.95373 0.0
H681 H 0.54409 0.19659 0.96671 0.0
H682 H 0.47832 0.20164 0.97917 0.0
H683 H 0.43945 0.15898 0.92485 0.0
H684 H 0.50555 0.15371 0.91266 0.0
H685 H 0.41807 0.14205 0.96354 0.0
H686 H 0.41221 0.21644 0.92972 0.0
H687 H 0.43374 0.25588 0.92087 0.0
H688 H 0.42738 0.27436 0.98991 0.0
H689 H 0.40633 0.23493 0.99925 0.0
C690 C 0.25112 0.15369 0.00716 0.0
C691 C 0.24892 0.16271 0.02886 0.0
C692 C 0.28279 0.15806 0.99382 0.0
C693 C 0.31311 0.17138 0.00193 0.0
C694 C 0.31031 0.18133 0.02316 0.0
C695 C 0.27849 0.17703 0.03653 0.0
C696 C 0.34859 0.17371 0.98876 0.0
C697 C 0.36204 0.19584 0.98339 0.0
C698 C 0.36894 0.15408 0.9813 0.0
C699 C 0.358 0.13021 0.98765 0.0
C700 C 0.35465 0.12397 0.01016 0.0
C701 C 0.34505 0.10135 0.01602 0.0
C702 C 0.33906 0.08476 0.99952 0.0
C703 C 0.34267 0.09075 0.97712 0.0
C704 C 0.35217 0.11336 0.97117 0.0
C705 C 0.52123 0.18924 0.9569 0.0
C706 C 0.52943 0.1751 0.9386 0.0
C707 C 0.48369 0.19207 0.96402 0.0
C708 C 0.45386 0.18076 0.9529 0.0
C709 C 0.46198 0.16795 0.93361 0.0
C710 C 0.49958 0.1651 0.92652 0.0
C711 C 0.41574 0.1792 0.96343 0.0
C712 C 0.40187 0.15712 0.96853 0.0
C713 C 0.39536 0.19887 0.97076 0.0
C714 C 0.40792 0.22265 0.9652 0.0
C715 C 0.41568 0.22885 0.94305 0.0
C716 C 0.42775 0.25123 0.93794 0.0
C717 C 0.43199 0.26761 0.95482 0.0
C718 C 0.42409 0.26166 0.97685 0.0
C719 C 0.41203 0.2393 0.98206 0.0
H720 H 0.44134 0.28492 0.95083 0.0
H721 H 0.33176 0.06724 0.00409 0.0
H722 H 0.00029 0.86017 0.91823 0.0
H723 H 0.06182 0.85138 0.93566 0.0
H724 H 0.00626 0.80363 0.98012 0.0
H725 H 0.94484 0.81221 0.9624 0.0
H726 H 0.04734 0.83838 0.00152 0.0
H727 H 0.06695 0.78219 0.94509 0.0
H728 H 0.06948 0.76664 0.90697 0.0
H729 H 0.15703 0.81531 0.89015 0.0
H730 H 0.15462 0.83143 0.92809 0.0
H731 H 0.2213 0.81734 0.05769 0.0
H732 H 0.164 0.80874 0.03606 0.0
H733 H 0.20311 0.85382 0.98378 0.0
H734 H 0.26041 0.86245 0.00515 0.0
H735 H 0.16946 0.81422 0.9672 0.0
H736 H 0.14247 0.87406 0.0208 0.0
H737 H 0.13976 0.89104 0.05838 0.0
H738 H 0.06538 0.83656 0.07973 0.0
H739 H 0.0681 0.81908 0.04231 0.0
C740 C 0.00166 0.84718 0.93116 0.0
C741 C 0.96836 0.83654 0.93885 0.0
C742 C 0.03663 0.84221 0.94113 0.0
C743 C 0.03855 0.82677 0.95911 0.0
C744 C 0.00536 0.81546 0.96619 0.0
C745 C 0.97048 0.82023 0.95602 0.0
C746 C 0.07417 0.82472 0.97211 0.0
C747 C 0.07388 0.83254 0.99419 0.0
C748 C 0.10888 0.8177 0.96231 0.0
C749 C 0.11036 0.80816 0.93941 0.0
C750 C 0.08649 0.78975 0.93321 0.0
C751 C 0.08796 0.78079 0.91164 0.0
C752 C 0.11334 0.79002 0.89613 0.0
C753 C 0.13736 0.8082 0.90218 0.0
C754 C 0.13598 0.81723 0.92373 0.0
C755 C 0.21794 0.82522 0.04148 0.0
C756 C 0.24525 0.84081 0.03327 0.0
C757 C 0.18518 0.82029 0.02915 0.0
C758 C 0.1792 0.83081 0.00842 0.0
C759 C 0.20721 0.8455 0.99974 0.0
C760 C 0.23983 0.85053 0.01207 0.0
C761 C 0.14257 0.82806 0.9965 0.0
C762 C 0.14273 0.81954 0.97463 0.0
C763 C 0.10767 0.8346 0.0064 0.0
C764 C 0.10588 0.84511 0.02887 0.0
C765 C 0.1258 0.8656 0.03357 0.0
C766 C 0.12422 0.87533 0.05482 0.0
C767 C 0.10252 0.86484 0.07146 0.0
C768 C 0.08225 0.84463 0.06684 0.0
C769 C 0.0838 0.83481 0.04562 0.0
H770 H 0.10131 0.8724 0.0879 0.0
H771 H 0.11445 0.78305 0.87944 0.0
H772 H 0.50557 0.34455 0.5876 0.0
H773 H 0.44329 0.33631 0.57095 0.0
H774 H 0.49779 0.29494 0.52049 0.0
H775 H 0.56002 0.30302 0.53736 0.0
H776 H 0.45581 0.33214 0.504 0.0
H777 H 0.43776 0.26936 0.5549 0.0
H778 H 0.43597 0.25069 0.59171 0.0
H779 H 0.34856 0.29765 0.61281 0.0
H780 H 0.3502 0.31684 0.57623 0.0
H781 H 0.28306 0.31491 0.44571 0.0
H782 H 0.34176 0.30623 0.46598 0.0
H783 H 0.29757 0.3411 0.52386 0.0
H784 H 0.23883 0.34964 0.50393 0.0
H785 H 0.33501 0.30248 0.53572 0.0
H786 H 0.35827 0.36885 0.49043 0.0
H787 H 0.36015 0.39175 0.45589 0.0
H788 H 0.43742 0.34284 0.42685 0.0
H789 H 0.4357 0.31952 0.46119 0.0
C790 C 0.50389 0.3328 0.57361 0.0
C791 C 0.53717 0.32403 0.56392 0.0
C792 C 0.46843 0.3282 0.56403 0.0
C793 C 0.46596 0.315 0.54448 0.0
C794 C 0.4991 0.30506 0.53562 0.0
C795 C 0.53449 0.30947 0.54535 0.0
C796 C 0.42992 0.31449 0.53167 0.0
C797 C 0.42957 0.3251 0.51069 0.0
C798 C 0.39547 0.30622 0.54084 0.0
C799 C 0.39431 0.29465 0.56284 0.0
C800 C 0.41836 0.27583 0.56744 0.0
C801 C 0.41733 0.26513 0.58826 0.0
C802 C 0.39222 0.27301 0.6046 0.0
C803 C 0.36801 0.29157 0.60014 0.0
C804 C 0.36895 0.30235 0.57935 0.0
C805 C 0.28567 0.32055 0.46282 0.0
C806 C 0.25632 0.33315 0.47311 0.0
C807 C 0.31927 0.31561 0.47436 0.0
C808 C 0.32417 0.32322 0.49637 0.0
C809 C 0.29439 0.33503 0.50692 0.0
C810 C 0.26088 0.34001 0.49541 0.0
C811 C 0.36101 0.32004 0.50805 0.0
C812 C 0.36144 0.309 0.52884 0.0
C813 C 0.3955 0.32842 0.49899 0.0
C814 C 0.39647 0.34229 0.47826 0.0
C815 C 0.37539 0.36287 0.4766 0.0
C816 C 0.37649 0.37596 0.45709 0.0
C817 C 0.39878 0.36871 0.43915 0.0
C818 C 0.4201 0.3484 0.44074 0.0
C819 C 0.41911 0.33526 0.46023 0.0
H820 H 0.39961 0.37886 0.42406 0.0
H821 H 0.39147 0.2647 0.62071 0.0
H822 H 0.96745 0.71187 0.56654 0.0
H823 H 0.03465 0.72123 0.55915 0.0
H824 H 0.05853 0.64864 0.55015 0.0
H825 H 0.99289 0.63944 0.55895 0.0
H826 H 0.11775 0.66643 0.56514 0.0
H827 H 0.0292 0.68769 0.50609 0.0
H828 H 0.97532 0.70957 0.49033 0.0
H829 H 0.0323 0.77335 0.50521 0.0
H830 H 0.08634 0.75178 0.52129 0.0
H831 H 0.20578 0.67415 0.44906 0.0
H832 H 0.15479 0.68531 0.47433 0.0
H833 H 0.2357 0.68983 0.52829 0.0
H834 H 0.28618 0.67654 0.50323 0.0
H835 H 0.13129 0.7164 0.49869 0.0
H836 H 0.19617 0.67485 0.57658 0.0
H837 H 0.24365 0.64536 0.5871 0.0
H838 H 0.22417 0.60962 0.52555 0.0
H839 H 0.17636 0.63878 0.51481 0.0
C840 C 0.98759 0.69801 0.56374 0.0
C841 C 0.97514 0.67501 0.56279 0.0
C842 C 0.0258 0.70333 0.55931 0.0
C843 C 0.05158 0.68571 0.55345 0.0
C844 C 0.03945 0.66263 0.55448 0.0
C845 C 0.00175 0.65736 0.55928 0.0
C846 C 0.08956 0.69072 0.54361 0.0
C847 C 0.12088 0.67766 0.55081 0.0
C848 C 0.0938 0.70521 0.5248 0.0
C849 C 0.06148 0.71818 0.51513 0.0
C850 C 0.0301 0.70638 0.50609 0.0
C851 C -0.00044 0.71872 0.49711 0.0
C852 C 0.00033 0.74284 0.49684 0.0
C853 C 0.0317 0.75467 0.50549 0.0
C854 C 0.06227 0.74241 0.51455 0.0
C855 C 0.2127 0.67786 0.46626 0.0
C856 C 0.24962 0.6742 0.47434 0.0
C857 C 0.18356 0.68435 0.48074 0.0
C858 C 0.19101 0.68791 0.50347 0.0
C859 C 0.22882 0.68643 0.51105 0.0
C860 C 0.25772 0.67902 0.49672 0.0
C861 C 0.15854 0.69073 0.5192 0.0
C862 C 0.12859 0.70563 0.51337 0.0
C863 C 0.15467 0.67678 0.53845 0.0
C864 C 0.18321 0.65915 0.54478 0.0
C865 C 0.20206 0.66068 0.56532 0.0
C866 C 0.22899 0.64403 0.57132 0.0
C867 C 0.23704 0.62569 0.55696 0.0
C868 C 0.21803 0.62389 0.53662 0.0
C869 C 0.19103 0.64046 0.53057 0.0
H870 H 0.25793 0.61284 0.56162 0.0
H871 H 0.97667 0.75237 0.48987 0.0
H872 H 0.4513 0.81515 0.02378 0.0
H873 H 0.51577 0.80751 0.01029 0.0
H874 H 0.56136 0.82817 0.0739 0.0
H875 H 0.49649 0.83586 0.08737 0.0
H876 H 0.58903 0.85349 0.03977 0.0
H877 H 0.5742 0.77319 0.05527 0.0
H878 H 0.54195 0.7354 0.0548 0.0
H879 H 0.54655 0.73442 0.98347 0.0
H880 H 0.57833 0.77237 0.98348 0.0
H881 H 0.7733 0.84949 0.99631 0.0
H882 H 0.71959 0.83916 0.02004 0.0
H883 H 0.65958 0.8123 0.96301 0.0
H884 H 0.71405 0.82178 0.93928 0.0
H885 H 0.64335 0.78707 0.99842 0.0
H886 H 0.64593 0.86836 0.98188 0.0
H887 H 0.67342 0.9075 0.9802 0.0
H888 H 0.68655 0.90784 0.05118 0.0
H889 H 0.65957 0.86855 0.05324 0.0
C890 C 0.47509 0.81718 0.03509 0.0
C891 C 0.46934 0.82592 0.05656 0.0
C892 C 0.51185 0.81279 0.02742 0.0
C893 C 0.54338 0.81716 0.04113 0.0
C894 C 0.53738 0.82455 0.06312 0.0
C895 C 0.50048 0.82882 0.07084 0.0
C896 C 0.58206 0.8176 0.03131 0.0
C897 C 0.60144 0.83876 0.03127 0.0
C898 C 0.5974 0.79865 0.01946 0.0
C899 C 0.57849 0.77572 0.01939 0.0
C900 C 0.5681 0.76501 0.03947 0.0
C901 C 0.54994 0.74353 0.03929 0.0
C902 C 0.54216 0.73253 0.01911 0.0
C903 C 0.5526 0.74296 0.99908 0.0
C904 C 0.57075 0.76444 0.99917 0.0
C905 C 0.74889 0.84106 0.98888 0.0
C906 C 0.74759 0.83674 0.96589 0.0
C907 C 0.71818 0.83521 0.00246 0.0
C908 C 0.68515 0.8255 0.99323 0.0
C909 C 0.6847 0.81989 0.97049 0.0
C910 C 0.71578 0.82536 0.95693 0.0
C911 C 0.65014 0.82299 0.00684 0.0
C912 C 0.63135 0.80159 0.00741 0.0
C913 C 0.6348 0.84184 0.0189 0.0
C914 C 0.65121 0.86541 0.01768 0.0
C915 C 0.65498 0.87671 0.99711 0.0
C916 C 0.67041 0.89893 0.99609 0.0
C917 C 0.68184 0.91012 0.01557 0.0
C918 C 0.67777 0.89913 0.03611 0.0
C919 C 0.66241 0.87689 0.03721 0.0
H920 H 0.69376 0.92733 0.01475 0.0
H921 H 0.52808 0.71591 0.01901 0.0
H922 H 0.78962 0.17687 0.94594 0.0
H923 H 0.84437 0.18549 0.96988 0.0
H924 H 0.77707 0.16992 0.0279 0.0
H925 H 0.7226 0.16068 0.00412 0.0
H926 H 0.83201 0.21096 0.03074 0.0
H927 H 0.82132 0.12884 0.01331 0.0
H928 H 0.81569 0.09551 0.98799 0.0
H929 H 0.91867 0.11578 0.95486 0.0
H930 H 0.9245 0.14949 0.97976 0.0
H931 H 0.00345 0.14439 0.08497 0.0
H932 H 0.93798 0.14992 0.07219 0.0
H933 H 0.97092 0.21337 0.04 0.0
H934 H 0.03667 0.20778 0.05286 0.0
H935 H 0.93054 0.14976 0.02591 0.0
H936 H 0.88297 0.24495 0.03402 0.0
H937 H 0.88915 0.27743 0.06032 0.0
H938 H 0.90349 0.22979 0.11434 0.0
H939 H 0.89683 0.19704 0.08844 0.0
C940 C 0.78629 0.17576 0.96381 0.0
C941 C 0.75205 0.16788 0.97318 0.0
C942 C 0.8175 0.18072 0.97743 0.0
C943 C 0.81458 0.17833 0.0006 0.0
C944 C 0.7797 0.17199 0.01006 0.0
C945 C 0.74877 0.16655 0.99645 0.0
C946 C 0.84899 0.17937 0.01466 0.0
C947 C 0.85374 0.1977 0.02969 0.0
C948 C 0.87688 0.16186 0.0134 0.0
C949 C 0.87301 0.14187 0.99816 0.0
C950 C 0.84244 0.12638 0.00041 0.0
C951 C 0.83929 0.10738 0.98619 0.0
C952 C 0.86672 0.10359 0.96976 0.0
C953 C 0.89737 0.11879 0.96753 0.0
C954 C 0.90059 0.13785 0.98168 0.0
C955 C 0.99619 0.16009 0.07615 0.0
C956 C 0.02469 0.17576 0.06995 0.0
C957 C 0.95896 0.16315 0.0687 0.0
C958 C 0.94977 0.18194 0.05502 0.0
C959 C 0.97743 0.19886 0.05069 0.0
C960 C 0.01485 0.19575 0.05812 0.0
C961 C 0.91396 0.18144 0.04209 0.0
C962 C 0.90901 0.16315 0.02706 0.0
C963 C 0.88609 0.19899 0.04344 0.0
C964 C 0.88982 0.21854 0.05922 0.0
C965 C 0.88732 0.24141 0.05152 0.0
C966 C 0.89092 0.25987 0.06636 0.0
C967 C 0.89685 0.25568 0.08897 0.0
C968 C 0.89907 0.23302 0.09681 0.0
C969 C 0.89548 0.2145 0.08204 0.0
H970 H 0.89963 0.26999 0.10043 0.0
H971 H 0.86432 0.08881 0.95882 0.0
H972 H 0.71208 0.67481 0.55435 0.0
H973 H 0.6533 0.68126 0.53329 0.0
H974 H 0.71469 0.67208 0.47186 0.0
H975 H 0.77337 0.66527 0.49272 0.0
H976 H 0.65441 0.70737 0.47066 0.0
H977 H 0.67832 0.62722 0.49004 0.0
H978 H 0.69321 0.5961 0.51663 0.0
H979 H 0.59217 0.61205 0.55375 0.0
H980 H 0.57703 0.64355 0.52755 0.0
H981 H 0.48786 0.62965 0.42472 0.0
H982 H 0.5521 0.63695 0.43878 0.0
H983 H 0.51686 0.70447 0.46118 0.0
H984 H 0.45264 0.69724 0.44657 0.0
H985 H 0.56518 0.64194 0.48162 0.0
H986 H 0.59792 0.73855 0.46759 0.0
H987 H 0.58526 0.76909 0.43999 0.0
H988 H 0.57498 0.71798 0.3886 0.0
H989 H 0.58808 0.68717 0.41583 0.0
C990 C 0.71325 0.67476 0.53636 0.0
C991 C 0.74719 0.66924 0.52518 0.0
C992 C 0.67969 0.67846 0.52437 0.0
C993 C 0.67974 0.67701 0.50106 0.0
C994 C 0.71415 0.67334 0.48983 0.0
C995 C 0.74756 0.66929 0.50179 0.0
C996 C 0.64347 0.67591 0.4886 0.0
C997 C 0.63466 0.69319 0.47309 0.0
C998 C 0.61825 0.65716 0.49154 0.0
C999 C 0.62684 0.63793 0.50703 0.0
C1000 C 0.65945 0.62421 0.50398 0.0
C1001 C 0.66791 0.6065 0.51896 0.0
C1002 C 0.64378 0.60221 0.53695 0.0
C1003 C 0.61093 0.61548 0.53986 0.0
C1004 C 0.60239 0.63326 0.52495 0.0
C1005 C 0.49437 0.64636 0.43189 0.0
C1006 C 0.46574 0.66298 0.43446 0.0
C1007 C 0.53088 0.65046 0.44008 0.0
C1008 C 0.53926 0.6712 0.45116 0.0
C1009 C 0.5112 0.68845 0.45248 0.0
C1010 C 0.47463 0.68438 0.44409 0.0
C1011 C 0.5757 0.67342 0.46347 0.0
C1012 C 0.58459 0.65628 0.47914 0.0
C1013 C 0.60102 0.69218 0.46042 0.0
C1014 C 0.59359 0.71055 0.44382 0.0
C1015 C 0.59309 0.73384 0.45039 0.0
C1016 C 0.58582 0.7512 0.43481 0.0
C1017 C 0.57919 0.74547 0.41257 0.0
C1018 C 0.57996 0.72238 0.40585 0.0
C1019 C 0.58725 0.70496 0.42136 0.0
H1020 H 0.57354 0.75893 0.40054 0.0
H1021 H 0.65051 0.5886 0.54861 0.0
H1022 H 0.01061 0.33256 0.412 0.0
H1023 H 0.94271 0.32843 0.42076 0.0
H1024 H 0.97157 0.28855 0.47897 0.0
H1025 H 0.03914 0.29223 0.46984 0.0
H1026 H 0.9039 0.27491 0.46305 0.0
H1027 H 0.96197 0.34866 0.48407 0.0
H1028 H 0.99608 0.38528 0.47744 0.0
H1029 H 0.91539 0.40346 0.4268 0.0
H1030 H 0.88032 0.36715 0.43351 0.0
H1031 H 0.778 0.31019 0.54864 0.0
H1032 H 0.82909 0.29956 0.52314 0.0
H1033 H 0.77944 0.34259 0.47229 0.0
H1034 H 0.72872 0.35375 0.49787 0.0
H1035 H 0.85103 0.35286 0.47769 0.0
H1036 H 0.78309 0.28242 0.46735 0.0
H1037 H 0.74874 0.24724 0.47873 0.0
H1038 H 0.84889 0.22236 0.51188 0.0
H1039 H 0.88372 0.25753 0.50098 0.0
C1040 C 0.00218 0.32201 0.42603 0.0
C1041 C 0.02974 0.31267 0.44028 0.0
C1042 C 0.96351 0.31988 0.4312 0.0
C1043 C 0.95212 0.30867 0.45084 0.0
C1044 C 0.97962 0.29732 0.46378 0.0
C1045 C 0.01819 0.29933 0.45853 0.0
C1046 C 0.91295 0.3115 0.45973 0.0
C1047 C 0.89217 0.29191 0.46621 0.0
C1048 C 0.89738 0.33368 0.46359 0.0
C1049 C 0.91891 0.35514 0.45907 0.0
C1050 C 0.95173 0.36041 0.47141 0.0
C1051 C 0.97116 0.38112 0.46769 0.0
C1052 C 0.95818 0.39657 0.45155 0.0
C1053 C 0.92551 0.39143 0.43923 0.0
C1054 C 0.90574 0.37086 0.44305 0.0
C1055 C 0.77756 0.31712 0.53192 0.0
C1056 C 0.74945 0.33303 0.5254 0.0
C1057 C 0.80669 0.31086 0.51726 0.0
C1058 C 0.808 0.32011 0.49569 0.0
C1059 C 0.77902 0.33521 0.48884 0.0
C1060 C 0.75007 0.34161 0.50352 0.0
C1061 C 0.84184 0.31626 0.48133 0.0
C1062 C 0.86189 0.33575 0.47396 0.0
C1063 C 0.85674 0.29399 0.47695 0.0
C1064 C 0.83596 0.2727 0.48343 0.0
C1065 C 0.79773 0.26952 0.47719 0.0
C1066 C 0.77818 0.24956 0.48354 0.0
C1067 C 0.7966 0.23259 0.49604 0.0
C1068 C 0.83465 0.23552 0.50219 0.0
C1069 C 0.85433 0.25545 0.49589 0.0
H1070 H 0.78141 0.21716 0.50095 0.0
H1071 H 0.9733 0.41258 0.44869 0.0
H1072 H 0.23412 0.2588 0.34581 0.0
H1073 H 0.23279 0.24407 0.30777 0.0
H1074 H 0.14562 0.29356 0.29095 0.0
H1075 H 0.14517 0.30734 0.32936 0.0
H1076 H 0.12884 0.25424 0.27301 0.0
H1077 H 0.24106 0.30053 0.27489 0.0
H1078 H 0.30287 0.3144 0.28899 0.0
H1079 H 0.35167 0.24735 0.27822 0.0
H1080 H 0.28998 0.23298 0.26434 0.0
H1081 H 0.1566 0.24615 0.15486 0.0
H1082 H 0.15569 0.26042 0.19328 0.0
H1083 H 0.21944 0.20071 0.21441 0.0
H1084 H 0.22 0.18622 0.17605 0.0
H1085 H 0.24797 0.24557 0.22947 0.0
H1086 H 0.13271 0.2004 0.22687 0.0
H1087 H 0.07062 0.18877 0.2114 0.0
H1088 H 0.02743 0.25727 0.22189 0.0
H1089 H 0.08952 0.26941 0.2371 0.0
C1090 C 0.21477 0.26661 0.33397 0.0
C1091 C 0.19074 0.28481 0.3404 0.0
C1092 C 0.21421 0.25827 0.31218 0.0
C1093 C 0.1898 0.26809 0.29627 0.0
C1094 C 0.1651 0.28592 0.3028 0.0
C1095 C 0.16537 0.29409 0.3247 0.0
C1096 C 0.18962 0.25944 0.27298 0.0
C1097 C 0.15486 0.25267 0.26342 0.0
C1098 C 0.2236 0.25704 0.26047 0.0
C1099 C 0.26079 0.26562 0.26877 0.0
C1100 C 0.26489 0.28869 0.27569 0.0
C1101 C 0.29992 0.29665 0.28362 0.0
C1102 C 0.33115 0.28175 0.28456 0.0
C1103 C 0.32744 0.25887 0.27751 0.0
C1104 C 0.29246 0.25081 0.26959 0.0
C1105 C 0.17023 0.23604 0.16775 0.0
C1106 C 0.18791 0.21496 0.16261 0.0
C1107 C 0.16962 0.24416 0.18964 0.0
C1108 C 0.18731 0.23152 0.20664 0.0
C1109 C 0.20549 0.21062 0.20149 0.0
C1110 C 0.20552 0.2023 0.17966 0.0
C1111 C 0.18735 0.24036 0.22973 0.0
C1112 C 0.22205 0.24719 0.23916 0.0
C1113 C 0.1533 0.24317 0.24196 0.0
C1114 C 0.1159 0.23587 0.2329 0.0
C1115 C 0.1101 0.21304 0.22568 0.0
C1116 C 0.07487 0.20635 0.217 0.0
C1117 C 0.04512 0.22229 0.2156 0.0
C1118 C 0.05052 0.24495 0.22294 0.0
C1119 C 0.08571 0.25174 0.23161 0.0
H1120 H 0.01787 0.21707 0.20888 0.0
H1121 H 0.35825 0.28795 0.2907 0.0
H1122 H 0.27705 0.75761 0.15497 0.0
H1123 H 0.27867 0.74142 0.19229 0.0
H1124 H 0.37252 0.78616 0.20912 0.0
H1125 H 0.3734 0.80084 0.17132 0.0
H1126 H 0.38365 0.74725 0.22782 0.0
H1127 H 0.27652 0.79798 0.22454 0.0
H1128 H 0.21669 0.81396 0.20962 0.0
H1129 H 0.16085 0.74898 0.22043 0.0
H1130 H 0.22052 0.73252 0.23514 0.0
H1131 H 0.35304 0.74257 0.34583 0.0
H1132 H 0.35717 0.75575 0.30715 0.0
H1133 H 0.28393 0.69986 0.28674 0.0
H1134 H 0.27976 0.68661 0.32535 0.0
H1135 H 0.26281 0.74441 0.27045 0.0
H1136 H 0.37347 0.69518 0.27553 0.0
H1137 H 0.43392 0.68205 0.29208 0.0
H1138 H 0.48371 0.74856 0.27995 0.0
H1139 H 0.42333 0.76221 0.26363 0.0
C1140 C 0.29827 0.76395 0.16652 0.0
C1141 C 0.32401 0.78138 0.16023 0.0
C1142 C 0.2989 0.7548 0.18798 0.0
C1143 C 0.3248 0.76315 0.20383 0.0
C1144 C 0.35171 0.77974 0.19735 0.0
C1145 C 0.3516 0.78857 0.17572 0.0
C1146 C 0.32352 0.75476 0.22719 0.0
C1147 C 0.35727 0.74692 0.23719 0.0
C1148 C 0.28908 0.75408 0.23946 0.0
C1149 C 0.25308 0.76396 0.23075 0.0
C1150 C 0.25155 0.78706 0.2236 0.0
C1151 C 0.21766 0.79621 0.2152 0.0
C1152 C 0.18501 0.78248 0.21402 0.0
C1153 C 0.18617 0.75959 0.22132 0.0
C1154 C 0.22001 0.75034 0.22971 0.0
C1155 C 0.33801 0.73306 0.33304 0.0
C1156 C 0.31659 0.71338 0.33846 0.0
C1157 C 0.3405 0.74053 0.311 0.0
C1158 C 0.32114 0.72862 0.29412 0.0
C1159 C 0.29929 0.70915 0.29955 0.0
C1160 C 0.29721 0.7015 0.32154 0.0
C1161 C 0.32276 0.73688 0.27087 0.0
C1162 C 0.28908 0.74475 0.26097 0.0
C1163 C 0.35735 0.73805 0.25891 0.0
C1164 C 0.39375 0.72978 0.26855 0.0
C1165 C 0.3972 0.70707 0.27656 0.0
C1166 C 0.43147 0.69952 0.28587 0.0
C1167 C 0.4626 0.71448 0.28711 0.0
C1168 C 0.45956 0.737 0.279 0.0
C1169 C 0.42533 0.74465 0.2697 0.0
H1170 H 0.48911 0.7086 0.29433 0.0
H1171 H 0.1588 0.78959 0.20751 0.0
H1172 H 0.78154 0.74269 0.65353 0.0
H1173 H 0.78724 0.75747 0.69151 0.0
H1174 H 0.8628 0.70138 0.70802 0.0
H1175 H 0.85841 0.687 0.66985 0.0
H1176 H 0.8047 0.70908 0.73992 0.0
H1177 H 0.90041 0.75142 0.70057 0.0
H1178 H 0.92581 0.77577 0.67042 0.0
H1179 H 0.84841 0.83004 0.68834 0.0
H1180 H 0.82212 0.80587 0.71841 0.0
H1181 H 0.85761 0.75476 0.84489 0.0
H1182 H 0.86062 0.73907 0.80711 0.0
H1183 H 0.79968 0.79853 0.78259 0.0
H1184 H 0.79733 0.81443 0.82021 0.0
H1185 H 0.85426 0.78784 0.7547 0.0
H1186 H 0.75567 0.7453 0.79226 0.0
H1187 H 0.72851 0.72109 0.82201 0.0
H1188 H 0.80899 0.66748 0.80709 0.0
H1189 H 0.83696 0.69151 0.77743 0.0
C1190 C 0.79927 0.73346 0.66527 0.0
C1191 C 0.81858 0.71328 0.65885 0.0
C1192 C 0.80254 0.74194 0.68694 0.0
C1193 C 0.82538 0.73047 0.70256 0.0
C1194 C 0.8447 0.71031 0.69625 0.0
C1195 C 0.84173 0.70195 0.6745 0.0
C1196 C 0.82911 0.73966 0.72546 0.0
C1197 C 0.81608 0.72616 0.74324 0.0
C1198 C 0.84323 0.76211 0.72964 0.0
C1199 C 0.85904 0.77673 0.71161 0.0
C1200 C 0.88856 0.76846 0.69796 0.0
C1201 C 0.90317 0.78225 0.68091 0.0
C1202 C 0.88867 0.80442 0.67743 0.0
C1203 C 0.85958 0.81286 0.69104 0.0
C1204 C 0.84484 0.79913 0.7081 0.0
C1205 C 0.84512 0.76452 0.83137 0.0
C1206 C 0.82768 0.78593 0.83541 0.0
C1207 C 0.8467 0.75551 0.80982 0.0
C1208 C 0.82995 0.76747 0.792 0.0
C1209 C 0.81296 0.78903 0.79602 0.0
C1210 C 0.8118 0.79817 0.81752 0.0
C1211 C 0.82937 0.75739 0.76926 0.0
C1212 C 0.84303 0.77072 0.75147 0.0
C1213 C 0.81555 0.73482 0.76504 0.0
C1214 C 0.79865 0.7203 0.78279 0.0
C1215 C 0.76774 0.72841 0.79543 0.0
C1216 C 0.75218 0.71471 0.81226 0.0
C1217 C 0.76708 0.69278 0.81648 0.0
C1218 C 0.79751 0.68448 0.80383 0.0
C1219 C 0.81321 0.69813 0.787 0.0
H1220 H 0.75499 0.6822 0.82952 0.0
H1221 H 0.90002 0.81507 0.66422 0.0
H1222 H 0.73553 0.25681 0.65716 0.0
H1223 H 0.72983 0.24104 0.69474 0.0
H1224 H 0.63332 0.28511 0.70713 0.0
H1225 H 0.63725 0.29994 0.66933 0.0
H1226 H 0.69458 0.28641 0.7404 0.0
H1227 H 0.61387 0.23328 0.70088 0.0
H1228 H 0.59824 0.20546 0.67121 0.0
H1229 H 0.68889 0.16115 0.69292 0.0
H1230 H 0.70544 0.1889 0.72253 0.0
H1231 H 0.64606 0.2424 0.8459 0.0
H1232 H 0.64296 0.25559 0.80731 0.0
H1233 H 0.71593 0.19924 0.78744 0.0
H1234 H 0.71754 0.18547 0.82593 0.0
H1235 H 0.66477 0.20457 0.7574 0.0
H1236 H 0.74863 0.25685 0.79518 0.0
H1237 H 0.7681 0.28445 0.82427 0.0
H1238 H 0.67747 0.33012 0.80532 0.0
H1239 H 0.65715 0.30264 0.77629 0.0
C1240 C 0.71291 0.26309 0.6678 0.0
C1241 C 0.68773 0.28034 0.66036 0.0
C1242 C 0.70975 0.25405 0.68927 0.0
C1243 C 0.68139 0.26211 0.70371 0.0
C1244 C 0.65575 0.27895 0.69628 0.0
C1245 C 0.6585 0.28771 0.6747 0.0
C1246 C 0.67914 0.25337 0.72679 0.0
C1247 C 0.68752 0.26861 0.74421 0.0
C1248 C 0.67106 0.23 0.73156 0.0
C1249 C 0.66115 0.21329 0.71377 0.0
C1250 C 0.63072 0.21772 0.69919 0.0
C1251 C 0.62164 0.20194 0.68242 0.0
C1252 C 0.64263 0.18158 0.68014 0.0
C1253 C 0.67269 0.17694 0.69468 0.0
C1254 C 0.68192 0.19268 0.71147 0.0
C1255 C 0.66122 0.2328 0.83322 0.0
C1256 C 0.68189 0.2129 0.83878 0.0
C1257 C 0.65964 0.2404 0.8112 0.0
C1258 C 0.67984 0.22869 0.79445 0.0
C1259 C 0.70008 0.20857 0.80001 0.0
C1260 C 0.70098 0.2007 0.82198 0.0
C1261 C 0.68039 0.2376 0.77125 0.0
C1262 C 0.67176 0.22241 0.75373 0.0
C1263 C 0.68888 0.26098 0.76633 0.0
C1264 C 0.70115 0.27759 0.78371 0.0
C1265 C 0.7327 0.27271 0.79731 0.0
C1266 C 0.74391 0.28834 0.81378 0.0
C1267 C 0.72397 0.309 0.81668 0.0
C1268 C 0.69285 0.3141 0.80308 0.0
C1269 C 0.68149 0.29851 0.7866 0.0
H1270 H 0.73269 0.32107 0.82944 0.0
H1271 H 0.63554 0.16938 0.66715 0.0
loop_
_geom_bond_atom_site_label_1
_geom_bond_atom_site_label_2
_geom_bond_distance
_geom_bond_site_symmetry_2
_ccdc_geom_bond_type
Co0 O3 1.970 . S
Co0 N17 1.989 . S
Co0 O25 1.967 . S
Co0 O32 1.920 . S
Co1 O4 1.966 . S
Co1 N10 2.022 . S
Co1 N18 1.993 . S
Co1 O26 1.941 . S
C2 O3 1.258 . S
C2 O4 1.263 . S
O3 Co0 1.970 . S
O3 C2 1.258 . S
O4 Co1 1.966 . S
O4 C2 1.263 . S
C5 O6 1.235 . S
C5 O32 1.289 . S
O6 C5 1.235 . S
C7 C9 1.400 . S
C7 N10 1.351 . S
C7 C12 1.501 . S
C8 C9 1.387 . S
C8 N11 1.341 . S
C9 C7 1.400 . S
C9 C8 1.387 . S
N10 Co1 2.022 . S
N10 C7 1.351 . S
N10 N11 1.365 . S
N11 C8 1.341 . S
N11 N10 1.365 . S
N11 H31 0.862 . S
C12 C7 1.501 . S
C12 H13 0.961 . S
C12 H14 0.961 . S
C12 H15 0.960 . S
H13 C12 0.961 . S
H14 C12 0.961 . S
H15 C12 0.960 . S
C16 N17 1.342 . S
C16 C20 1.401 . S
C16 C21 1.499 . S
N17 Co0 1.989 . S
N17 C16 1.342 . S
N17 N18 1.388 . S
N18 Co1 1.993 . S
N18 N17 1.388 . S
N18 C19 1.346 . S
C19 N18 1.346 . S
C19 C20 1.396 . S
C19 C29 1.510 . S
C20 C16 1.401 . S
C20 C19 1.396 . S
C21 C16 1.499 . S
C21 H22 0.959 . S
C21 H23 0.960 1_455 S
C21 H24 0.961 1_455 S
H22 C21 0.959 . S
H23 C21 0.960 1_655 S
H24 C21 0.961 1_655 S
O25 Co0 1.967 . S
O25 C33 1.258 . S
O26 Co1 1.941 . S
O26 C33 1.266 . S
H27 C29 0.959 . S
H28 C29 0.961 . S
C29 C19 1.510 . S
C29 H27 0.959 . S
C29 H28 0.961 . S
C29 H30 0.960 . S
H30 C29 0.960 . S
H31 N11 0.862 . S
O32 Co0 1.920 . S
O32 C5 1.289 . S
C33 O25 1.258 . S
C33 O26 1.266 . S
Co34 O37 1.970 . S
Co34 N51 1.989 . S
Co34 O59 1.967 . S
Co34 O66 1.920 . S
Co35 O38 1.966 . S
Co35 N44 2.022 . S
Co35 N52 1.993 . S
Co35 O60 1.941 . S
C36 O37 1.258 . S
C36 O38 1.263 . S
O37 Co34 1.970 . S
O37 C36 1.258 . S
O38 Co35 1.966 . S
O38 C36 1.263 . S
C39 O40 1.235 . S
C39 O66 1.289 . S
O40 C39 1.235 . S
C41 C43 1.400 . S
C41 N44 1.351 . S
C41 C46 1.501 . S
C42 C43 1.387 . S
C42 N45 1.341 . S
C43 C41 1.400 . S
C43 C42 1.387 . S
N44 Co35 2.022 . S
N44 C41 1.351 . S
N44 N45 1.365 . S
N45 C42 1.341 . S
N45 N44 1.365 . S
N45 H65 0.862 . S
C46 C41 1.501 . S
C46 H47 0.961 . S
C46 H48 0.961 . S
C46 H49 0.960 . S
H47 C46 0.961 . S
H48 C46 0.961 . S
H49 C46 0.960 . S
C50 N51 1.342 . S
C50 C54 1.401 . S
C50 C55 1.499 . S
N51 Co34 1.989 . S
N51 C50 1.342 . S
N51 N52 1.388 . S
N52 Co35 1.993 . S
N52 N51 1.388 . S
N52 C53 1.346 . S
C53 N52 1.346 . S
C53 C54 1.396 . S
C53 C63 1.510 . S
C54 C50 1.401 . S
C54 C53 1.396 . S
C55 C50 1.499 . S
C55 H56 0.959 . S
C55 H57 0.960 . S
C55 H58 0.961 . S
H56 C55 0.959 . S
H57 C55 0.960 . S
H58 C55 0.961 . S
O59 Co34 1.967 . S
O59 C67 1.258 . S
O60 Co35 1.941 . S
O60 C67 1.266 . S
H61 C63 0.959 . S
H62 C63 0.961 . S
C63 C53 1.510 . S
C63 H61 0.959 . S
C63 H62 0.961 . S
C63 H64 0.960 . S
H64 C63 0.960 . S
H65 N45 0.862 . S
O66 Co34 1.920 . S
O66 C39 1.289 . S
C67 O59 1.258 . S
C67 O60 1.266 . S
Co68 O71 1.970 . S
Co68 N85 1.989 . S
Co68 O93 1.967 . S
Co68 O100 1.920 . S
Co69 O72 1.966 . S
Co69 N78 2.022 . S
Co69 N86 1.993 . S
Co69 O94 1.941 . S
C70 O71 1.258 . S
C70 O72 1.263 . S
O71 Co68 1.970 . S
O71 C70 1.258 . S
O72 Co69 1.966 . S
O72 C70 1.263 . S
C73 O74 1.235 . S
C73 O100 1.289 . S
O74 C73 1.235 . S
C75 C77 1.400 . S
C75 N78 1.351 . S
C75 C80 1.501 . S
C76 C77 1.387 . S
C76 N79 1.341 . S
C77 C75 1.400 . S
C77 C76 1.387 . S
N78 Co69 2.022 . S
N78 C75 1.351 . S
N78 N79 1.365 . S
N79 C76 1.341 . S
N79 N78 1.365 . S
N79 H99 0.862 . S
C80 C75 1.501 . S
C80 H81 0.961 . S
C80 H82 0.961 . S
C80 H83 0.960 . S
H81 C80 0.961 . S
H82 C80 0.961 . S
H83 C80 0.960 . S
C84 N85 1.342 . S
C84 C88 1.401 . S
C84 C89 1.499 . S
N85 Co68 1.989 . S
N85 C84 1.342 . S
N85 N86 1.388 . S
N86 Co69 1.993 . S
N86 N85 1.388 . S
N86 C87 1.346 . S
C87 N86 1.346 . S
C87 C88 1.396 . S
C87 C97 1.510 . S
C88 C84 1.401 . S
C88 C87 1.396 . S
C89 C84 1.499 . S
C89 H90 0.959 . S
C89 H91 0.960 1_455 S
C89 H92 0.961 1_455 S
H90 C89 0.959 . S
H91 C89 0.960 1_655 S
H92 C89 0.961 1_655 S
O93 Co68 1.967 . S
O93 C101 1.258 . S
O94 Co69 1.941 . S
O94 C101 1.266 . S
H95 C97 0.959 . S
H96 C97 0.961 . S
C97 C87 1.510 . S
C97 H95 0.959 . S
C97 H96 0.961 . S
C97 H98 0.960 . S
H98 C97 0.960 . S
H99 N79 0.862 . S
O100 Co68 1.920 . S
O100 C73 1.289 . S
C101 O93 1.258 . S
C101 O94 1.266 . S
Co102 O105 1.970 . S
Co102 N119 1.989 . S
Co102 O127 1.967 . S
Co102 O134 1.920 . S
Co103 O106 1.966 . S
Co103 N112 2.022 . S
Co103 N120 1.993 . S
Co103 O128 1.941 . S
C104 O105 1.258 . S
C104 O106 1.263 . S
O105 Co102 1.970 . S
O105 C104 1.258 . S
O106 Co103 1.966 . S
O106 C104 1.263 . S
C107 O108 1.235 . S
C107 O134 1.289 . S
O108 C107 1.235 . S
C109 C111 1.400 . S
C109 N112 1.351 . S
C109 C114 1.501 . S
C110 C111 1.387 . S
C110 N113 1.341 . S
C111 C109 1.400 . S
C111 C110 1.387 . S
N112 Co103 2.022 . S
N112 C109 1.351 . S
N112 N113 1.365 . S
N113 C110 1.341 . S
N113 N112 1.365 . S
N113 H133 0.862 . S
C114 C109 1.501 . S
C114 H115 0.961 . S
C114 H116 0.961 . S
C114 H117 0.960 . S
H115 C114 0.961 . S
H116 C114 0.961 . S
H117 C114 0.960 . S
C118 N119 1.342 . S
C118 C122 1.401 . S
C118 C123 1.499 . S
N119 Co102 1.989 . S
N119 C118 1.342 . S
N119 N120 1.388 . S
N120 Co103 1.993 . S
N120 N119 1.388 . S
N120 C121 1.346 . S
C121 N120 1.346 . S
C121 C122 1.396 . S
C121 C131 1.510 . S
C122 C118 1.401 . S
C122 C121 1.396 . S
C123 C118 1.499 . S
C123 H124 0.959 . S
C123 H125 0.960 . S
C123 H126 0.961 . S
H124 C123 0.959 . S
H125 C123 0.960 . S
H126 C123 0.961 . S
O127 Co102 1.967 . S
O127 C135 1.258 . S
O128 Co103 1.941 . S
O128 C135 1.266 . S
H129 C131 0.959 . S
H130 C131 0.961 . S
C131 C121 1.510 . S
C131 H129 0.959 . S
C131 H130 0.961 . S
C131 H132 0.960 . S
H132 C131 0.960 . S
H133 N113 0.862 . S
O134 Co102 1.920 . S
O134 C107 1.289 . S
C135 O127 1.258 . S
C135 O128 1.266 . S
Co136 O139 1.970 . S
Co136 N153 1.989 . S
Co136 O161 1.967 . S
Co136 O168 1.920 . S
Co137 O140 1.966 . S
Co137 N146 2.022 . S
Co137 N154 1.993 . S
Co137 O162 1.941 . S
C138 O139 1.258 . S
C138 O140 1.263 . S
O139 Co136 1.970 . S
O139 C138 1.258 . S
O140 Co137 1.966 . S
O140 C138 1.263 . S
C141 O142 1.235 . S
C141 O168 1.289 . S
O142 C141 1.235 . S
C143 C145 1.400 . S
C143 N146 1.351 . S
C143 C148 1.501 . S
C144 C145 1.387 . S
C144 N147 1.341 . S
C145 C143 1.400 . S
C145 C144 1.387 . S
N146 Co137 2.022 . S
N146 C143 1.351 . S
N146 N147 1.365 . S
N147 C144 1.341 . S
N147 N146 1.365 . S
N147 H167 0.862 . S
C148 C143 1.501 . S
C148 H149 0.961 . S
C148 H150 0.961 . S
C148 H151 0.960 . S
H149 C148 0.961 . S
H150 C148 0.961 . S
H151 C148 0.960 . S
C152 N153 1.342 . S
C152 C156 1.401 . S
C152 C157 1.499 . S
N153 Co136 1.989 . S
N153 C152 1.342 . S
N153 N154 1.388 . S
N154 Co137 1.993 . S
N154 N153 1.388 . S
N154 C155 1.346 . S
C155 N154 1.346 . S
C155 C156 1.396 . S
C155 C165 1.510 . S
C156 C152 1.401 . S
C156 C155 1.396 . S
C157 C152 1.499 . S
C157 H158 0.959 . S
C157 H159 0.960 1_655 S
C157 H160 0.961 1_655 S
H158 C157 0.959 . S
H159 C157 0.960 1_455 S
H160 C157 0.961 1_455 S
O161 Co136 1.967 . S
O161 C169 1.258 . S
O162 Co137 1.941 . S
O162 C169 1.266 . S
H163 C165 0.959 . S
H164 C165 0.961 . S
C165 C155 1.510 . S
C165 H163 0.959 . S
C165 H164 0.961 . S
C165 H166 0.960 . S
H166 C165 0.960 . S
H167 N147 0.862 . S
O168 Co136 1.920 . S
O168 C141 1.289 . S
C169 O161 1.258 . S
C169 O162 1.266 . S
Co170 O173 1.970 . S
Co170 N187 1.989 . S
Co170 O195 1.967 . S
Co170 O202 1.920 . S
Co171 O174 1.966 . S
Co171 N180 2.022 . S
Co171 N188 1.993 . S
Co171 O196 1.941 . S
C172 O173 1.258 . S
C172 O174 1.263 . S
O173 Co170 1.970 . S
O173 C172 1.258 . S
O174 Co171 1.966 . S
O174 C172 1.263 . S
C175 O176 1.235 . S
C175 O202 1.289 . S
O176 C175 1.235 . S
C177 C179 1.400 . S
C177 N180 1.351 . S
C177 C182 1.501 . S
C178 C179 1.387 . S
C178 N181 1.341 . S
C179 C177 1.400 . S
C179 C178 1.387 . S
N180 Co171 2.022 . S
N180 C177 1.351 . S
N180 N181 1.365 . S
N181 C178 1.341 . S
N181 N180 1.365 . S
N181 H201 0.862 . S
C182 C177 1.501 . S
C182 H183 0.961 . S
C182 H184 0.961 . S
C182 H185 0.960 . S
H183 C182 0.961 . S
H184 C182 0.961 . S
H185 C182 0.960 . S
C186 N187 1.342 . S
C186 C190 1.401 . S
C186 C191 1.499 . S
N187 Co170 1.989 . S
N187 C186 1.342 . S
N187 N188 1.388 . S
N188 Co171 1.993 . S
N188 N187 1.388 . S
N188 C189 1.346 . S
C189 N188 1.346 . S
C189 C190 1.396 . S
C189 C199 1.510 . S
C190 C186 1.401 . S
C190 C189 1.396 . S
C191 C186 1.499 . S
C191 H192 0.959 . S
C191 H193 0.960 . S
C191 H194 0.961 . S
H192 C191 0.959 . S
H193 C191 0.960 . S
H194 C191 0.961 . S
O195 Co170 1.967 . S
O195 C203 1.258 . S
O196 Co171 1.941 . S
O196 C203 1.266 . S
H197 C199 0.959 . S
H198 C199 0.961 . S
C199 C189 1.510 . S
C199 H197 0.959 . S
C199 H198 0.961 . S
C199 H200 0.960 . S
H200 C199 0.960 . S
H201 N181 0.862 . S
O202 Co170 1.920 . S
O202 C175 1.289 . S
C203 O195 1.258 . S
C203 O196 1.266 . S
Co204 O207 1.970 . S
Co204 N221 1.989 . S
Co204 O229 1.967 . S
Co204 O236 1.920 . S
Co205 O208 1.966 . S
Co205 N214 2.022 . S
Co205 N222 1.993 . S
Co205 O230 1.941 . S
C206 O207 1.258 . S
C206 O208 1.263 . S
O207 Co204 1.970 . S
O207 C206 1.258 . S
O208 Co205 1.966 . S
O208 C206 1.263 . S
C209 O210 1.235 . S
C209 O236 1.289 . S
O210 C209 1.235 . S
C211 C213 1.400 . S
C211 N214 1.351 . S
C211 C216 1.501 . S
C212 C213 1.387 . S
C212 N215 1.341 . S
C213 C211 1.400 . S
C213 C212 1.387 . S
N214 Co205 2.022 . S
N214 C211 1.351 . S
N214 N215 1.365 . S
N215 C212 1.341 . S
N215 N214 1.365 . S
N215 H235 0.862 . S
C216 C211 1.501 . S
C216 H217 0.961 . S
C216 H218 0.961 . S
C216 H219 0.960 . S
H217 C216 0.961 . S
H218 C216 0.961 . S
H219 C216 0.960 . S
C220 N221 1.342 . S
C220 C224 1.401 . S
C220 C225 1.499 . S
N221 Co204 1.989 . S
N221 C220 1.342 . S
N221 N222 1.388 . S
N222 Co205 1.993 . S
N222 N221 1.388 . S
N222 C223 1.346 . S
C223 N222 1.346 . S
C223 C224 1.396 . S
C223 C233 1.510 . S
C224 C220 1.401 . S
C224 C223 1.396 . S
C225 C220 1.499 . S
C225 H226 0.959 . S
C225 H227 0.960 1_655 S
C225 H228 0.961 1_655 S
H226 C225 0.959 . S
H227 C225 0.960 1_455 S
H228 C225 0.961 1_455 S
O229 Co204 1.967 . S
O229 C237 1.258 . S
O230 Co205 1.941 . S
O230 C237 1.266 . S
H231 C233 0.959 . S
H232 C233 0.961 . S
C233 C223 1.510 . S
C233 H231 0.959 . S
C233 H232 0.961 . S
C233 H234 0.960 . S
H234 C233 0.960 . S
H235 N215 0.862 . S
O236 Co204 1.920 . S
O236 C209 1.289 . S
C237 O229 1.258 . S
C237 O230 1.266 . S
Co238 O241 1.970 . S
Co238 N255 1.989 . S
Co238 O263 1.967 . S
Co238 O270 1.920 . S
Co239 O242 1.966 . S
Co239 N248 2.022 . S
Co239 N256 1.993 . S
Co239 O264 1.941 . S
C240 O241 1.258 . S
C240 O242 1.263 . S
O241 Co238 1.970 . S
O241 C240 1.258 . S
O242 Co239 1.966 . S
O242 C240 1.263 . S
C243 O244 1.235 . S
C243 O270 1.289 . S
O244 C243 1.235 . S
C245 C247 1.400 . S
C245 N248 1.351 . S
C245 C250 1.501 . S
C246 C247 1.387 . S
C246 N249 1.341 . S
C247 C245 1.400 . S
C247 C246 1.387 . S
N248 Co239 2.022 . S
N248 C245 1.351 . S
N248 N249 1.365 . S
N249 C246 1.341 . S
N249 N248 1.365 . S
N249 H269 0.862 . S
C250 C245 1.501 . S
C250 H251 0.961 . S
C250 H252 0.961 . S
C250 H253 0.960 . S
H251 C250 0.961 . S
H252 C250 0.961 . S
H253 C250 0.960 . S
C254 N255 1.342 . S
C254 C258 1.401 . S
C254 C259 1.499 . S
N255 Co238 1.989 . S
N255 C254 1.342 . S
N255 N256 1.388 . S
N256 Co239 1.993 . S
N256 N255 1.388 . S
N256 C257 1.346 . S
C257 N256 1.346 . S
C257 C258 1.396 . S
C257 C267 1.510 . S
C258 C254 1.401 . S
C258 C257 1.396 . S
C259 C254 1.499 . S
C259 H260 0.959 . S
C259 H261 0.960 . S
C259 H262 0.961 . S
H260 C259 0.959 . S
H261 C259 0.960 . S
H262 C259 0.961 . S
O263 Co238 1.967 . S
O263 C271 1.258 . S
O264 Co239 1.941 . S
O264 C271 1.266 . S
H265 C267 0.959 . S
H266 C267 0.961 . S
C267 C257 1.510 . S
C267 H265 0.959 . S
C267 H266 0.961 . S
C267 H268 0.960 . S
H268 C267 0.960 . S
H269 N249 0.862 . S
O270 Co238 1.920 . S
O270 C243 1.289 . S
C271 O263 1.258 . S
C271 O264 1.266 . S
H272 C290 0.951 . S
H273 C292 0.951 1_656 S
H274 C294 0.950 . S
H275 C295 0.950 . S
H276 C297 0.950 . S
H277 C300 0.950 . S
H278 C301 0.950 . S
H279 C303 0.950 . S
H280 C304 0.945 . S
H281 C305 0.951 . S
H282 C307 0.951 1_454 S
H283 C309 0.950 . S
H284 C310 0.950 . S
H285 C312 0.950 . S
H286 C315 0.950 . S
H287 C316 0.950 . S
H288 C318 0.950 . S
H289 C319 0.945 . S
C290 H272 0.951 . S
C290 C291 1.366 . S
C290 C292 1.388 . S
C291 C290 1.366 . S
C291 C295 1.385 . S
C292 H273 0.951 1_454 S
C292 C290 1.388 . S
C292 C293 1.366 . S
C293 C292 1.366 . S
C293 C294 1.414 . S
C293 C296 1.499 . S
C294 H274 0.950 . S
C294 C293 1.414 . S
C294 C295 1.374 . S
C295 H275 0.950 . S
C295 C291 1.385 . S
C295 C294 1.374 . S
C296 C293 1.499 . S
C296 C297 1.373 1_554 S
C296 C298 1.389 1_455 S
C297 H276 0.950 . S
C297 C296 1.373 1_556 S
C297 C313 1.377 1_545 S
C298 C296 1.389 1_655 S
C298 C299 1.524 . S
C298 C312 1.377 1_545 S
C299 C298 1.524 . S
C299 C300 1.397 . S
C299 C304 1.363 . S
C300 H277 0.950 . S
C300 C299 1.397 . S
C300 C301 1.334 . S
C301 H278 0.950 . S
C301 C300 1.334 . S
C301 C302 1.287 . S
C302 C301 1.287 . S
C302 C303 1.524 . S
C302 H321 0.913 . S
C303 H279 0.950 . S
C303 C302 1.524 . S
C303 C304 1.415 . S
C304 H280 0.945 . S
C304 C299 1.363 . S
C304 C303 1.415 . S
C305 H281 0.951 . S
C305 C306 1.366 . S
C305 C307 1.388 . S
C306 C305 1.366 . S
C306 C310 1.385 . S
C307 H282 0.951 1_656 S
C307 C305 1.388 . S
C307 C308 1.366 . S
C308 C307 1.366 . S
C308 C309 1.414 . S
C308 C311 1.499 . S
C309 H283 0.950 . S
C309 C308 1.414 . S
C309 C310 1.374 . S
C310 H284 0.950 . S
C310 C306 1.385 . S
C310 C309 1.374 . S
C311 C308 1.499 . S
C311 C312 1.373 1_556 S
C311 C313 1.389 1_655 S
C312 H285 0.950 . S
C312 C298 1.377 1_565 S
C312 C311 1.373 1_554 S
C313 C297 1.377 1_565 S
C313 C311 1.389 1_455 S
C313 C314 1.524 . S
C314 C313 1.524 . S
C314 C315 1.397 . S
C314 C319 1.363 . S
C315 H286 0.950 . S
C315 C314 1.397 . S
C315 C316 1.334 . S
C316 H287 0.950 . S
C316 C315 1.334 . S
C316 C317 1.287 . S
C317 C316 1.287 . S
C317 C318 1.524 . S
C317 H320 0.999 . S
C318 H288 0.950 . S
C318 C317 1.524 . S
C318 C319 1.415 . S
C319 H289 0.945 . S
C319 C314 1.363 . S
C319 C318 1.415 . S
H320 C317 0.999 . S
H321 C302 0.913 . S
H322 C340 0.951 . S
H323 C342 0.951 . S
H324 C344 0.950 . S
H325 C345 0.951 . S
H326 C347 0.950 . S
H327 C350 0.950 . S
H328 C351 0.950 . S
H329 C353 0.950 . S
H330 C354 0.950 . S
H331 C355 0.951 . S
H332 C357 0.951 . S
H333 C359 0.950 . S
H334 C360 0.951 . S
H335 C362 0.950 . S
H336 C365 0.950 . S
H337 C366 0.950 . S
H338 C368 0.950 . S
H339 C369 0.950 . S
C340 H322 0.951 . S
C340 C341 1.366 . S
C340 C342 1.388 . S
C341 C340 1.366 . S
C341 C345 1.383 1_556 S
C342 H323 0.951 . S
C342 C340 1.388 . S
C342 C343 1.366 . S
C343 C342 1.366 . S
C343 C344 1.414 1_556 S
C343 C346 1.499 . S
C344 H324 0.950 . S
C344 C343 1.414 1_554 S
C344 C345 1.374 . S
C345 H325 0.951 . S
C345 C341 1.383 1_554 S
C345 C344 1.374 . S
C346 C343 1.499 . S
C346 C347 1.373 1_556 S
C346 C348 1.389 . S
C347 H326 0.950 . S
C347 C346 1.373 1_554 S
C347 C363 1.377 1_545 S
C348 C346 1.389 . S
C348 C349 1.524 . S
C348 C362 1.377 1_545 S
C349 C348 1.524 . S
C349 C350 1.397 . S
C349 C354 1.363 . S
C350 H327 0.950 . S
C350 C349 1.397 . S
C350 C351 1.334 . S
C351 H328 0.950 . S
C351 C350 1.334 . S
C351 C352 1.287 . S
C352 C351 1.287 . S
C352 C353 1.524 . S
C352 H371 0.913 . S
C353 H329 0.950 . S
C353 C352 1.524 . S
C353 C354 1.415 . S
C354 H330 0.950 . S
C354 C349 1.363 . S
C354 C353 1.415 . S
C355 H331 0.951 . S
C355 C356 1.366 . S
C355 C357 1.388 . S
C356 C355 1.366 . S
C356 C360 1.383 1_554 S
C357 H332 0.951 . S
C357 C355 1.388 . S
C357 C358 1.366 . S
C358 C357 1.366 . S
C358 C359 1.414 1_554 S
C358 C361 1.499 . S
C359 H333 0.950 . S
C359 C358 1.414 1_556 S
C359 C360 1.374 . S
C360 H334 0.951 . S
C360 C356 1.383 1_556 S
C360 C359 1.374 . S
C361 C358 1.499 . S
C361 C362 1.373 1_554 S
C361 C363 1.389 . S
C362 H335 0.950 . S
C362 C348 1.377 1_565 S
C362 C361 1.373 1_556 S
C363 C347 1.377 1_565 S
C363 C361 1.389 . S
C363 C364 1.524 . S
C364 C363 1.524 . S
C364 C365 1.397 . S
C364 C369 1.363 . S
C365 H336 0.950 . S
C365 C364 1.397 . S
C365 C366 1.334 . S
C366 H337 0.950 . S
C366 C365 1.334 . S
C366 C367 1.287 . S
C367 C366 1.287 . S
C367 C368 1.524 . S
C367 H370 0.999 . S
C368 H338 0.950 . S
C368 C367 1.524 . S
C368 C369 1.415 . S
C369 H339 0.950 . S
C369 C364 1.363 . S
C369 C368 1.415 . S
H370 C367 0.999 . S
H371 C352 0.913 . S
H372 C390 0.951 . S
H373 C392 0.951 1_455 S
H374 C394 0.950 . S
H375 C395 0.950 . S
H376 C397 0.950 . S
H377 C400 0.950 . S
H378 C401 0.950 . S
H379 C403 0.950 . S
H380 C404 0.950 . S
H381 C405 0.951 . S
H382 C407 0.951 1_655 S
H383 C409 0.950 . S
H384 C410 0.950 . S
H385 C412 0.950 . S
H386 C415 0.950 . S
H387 C416 0.950 . S
H388 C418 0.950 . S
H389 C419 0.950 . S
C390 H372 0.951 . S
C390 C391 1.366 . S
C390 C392 1.388 . S
C391 C390 1.366 . S
C391 C395 1.385 . S
C392 H373 0.951 1_655 S
C392 C390 1.388 . S
C392 C393 1.366 . S
C393 C392 1.366 . S
C393 C394 1.414 . S
C393 C396 1.499 . S
C394 H374 0.950 . S
C394 C393 1.414 . S
C394 C395 1.374 . S
C395 H375 0.950 . S
C395 C391 1.385 . S
C395 C394 1.374 . S
C396 C393 1.499 . S
C396 C397 1.373 . S
C396 C398 1.389 1_655 S
C397 H376 0.950 . S
C397 C396 1.373 . S
C397 C413 1.377 . S
C398 C396 1.389 1_455 S
C398 C399 1.524 . S
C398 C412 1.377 . S
C399 C398 1.524 . S
C399 C400 1.397 1_455 S
C399 C404 1.363 . S
C400 H377 0.950 . S
C400 C399 1.397 1_655 S
C400 C401 1.334 . S
C401 H378 0.950 . S
C401 C400 1.334 . S
C401 C402 1.287 1_655 S
C402 C401 1.287 1_455 S
C402 C403 1.524 . S
C402 H421 0.913 . S
C403 H379 0.950 . S
C403 C402 1.524 . S
C403 C404 1.415 . S
C404 H380 0.950 . S
C404 C399 1.363 . S
C404 C403 1.415 . S
C405 H381 0.951 . S
C405 C406 1.366 . S
C405 C407 1.388 . S
C406 C405 1.366 . S
C406 C410 1.385 . S
C407 H382 0.951 1_455 S
C407 C405 1.388 . S
C407 C408 1.366 . S
C408 C407 1.366 . S
C408 C409 1.414 . S
C408 C411 1.499 . S
C409 H383 0.950 . S
C409 C408 1.414 . S
C409 C410 1.374 . S
C410 H384 0.950 . S
C410 C406 1.385 . S
C410 C409 1.374 . S
C411 C408 1.499 . S
C411 C412 1.373 . S
C411 C413 1.389 1_455 S
C412 H385 0.950 . S
C412 C398 1.377 . S
C412 C411 1.373 . S
C413 C397 1.377 . S
C413 C411 1.389 1_655 S
C413 C414 1.524 . S
C414 C413 1.524 . S
C414 C415 1.397 1_655 S
C414 C419 1.363 . S
C415 H386 0.950 . S
C415 C414 1.397 1_455 S
C415 C416 1.334 . S
C416 H387 0.950 . S
C416 C415 1.334 . S
C416 C417 1.287 1_455 S
C417 C416 1.287 1_655 S
C417 C418 1.524 . S
C417 H420 0.999 . S
C418 H388 0.950 . S
C418 C417 1.524 . S
C418 C419 1.415 . S
C419 H389 0.950 . S
C419 C414 1.363 . S
C419 C418 1.415 . S
H420 C417 0.999 . S
H421 C402 0.913 . S
H422 C440 0.951 . S
H423 C442 0.951 . S
H424 C444 0.950 . S
H425 C445 0.950 . S
H426 C447 0.950 . S
H427 C450 0.950 . S
H428 C451 0.950 . S
H429 C453 0.950 . S
H430 C454 0.950 . S
H431 C455 0.951 . S
H432 C457 0.951 . S
H433 C459 0.950 . S
H434 C460 0.950 . S
H435 C462 0.950 . S
H436 C465 0.950 . S
H437 C466 0.950 . S
H438 C468 0.950 . S
H439 C469 0.950 . S
C440 H422 0.951 . S
C440 C441 1.366 . S
C440 C442 1.388 . S
C441 C440 1.366 . S
C441 C445 1.385 . S
C442 H423 0.951 . S
C442 C440 1.388 . S
C442 C443 1.366 . S
C443 C442 1.366 . S
C443 C444 1.414 . S
C443 C446 1.499 . S
C444 H424 0.950 . S
C444 C443 1.414 . S
C444 C445 1.374 . S
C445 H425 0.950 . S
C445 C441 1.385 . S
C445 C444 1.374 . S
C446 C443 1.499 . S
C446 C447 1.373 . S
C446 C448 1.389 . S
C447 H426 0.950 . S
C447 C446 1.373 . S
C447 C463 1.377 . S
C448 C446 1.389 . S
C448 C449 1.524 . S
C448 C462 1.377 . S
C449 C448 1.524 . S
C449 C450 1.397 . S
C449 C454 1.363 . S
C450 H427 0.950 . S
C450 C449 1.397 . S
C450 C451 1.334 . S
C451 H428 0.950 . S
C451 C450 1.334 . S
C451 C452 1.287 . S
C452 C451 1.287 . S
C452 C453 1.524 . S
C452 H471 0.913 . S
C453 H429 0.950 . S
C453 C452 1.524 . S
C453 C454 1.415 . S
C454 H430 0.950 . S
C454 C449 1.363 . S
C454 C453 1.415 . S
C455 H431 0.951 . S
C455 C456 1.366 . S
C455 C457 1.388 . S
C456 C455 1.366 . S
C456 C460 1.385 . S
C457 H432 0.951 . S
C457 C455 1.388 . S
C457 C458 1.366 . S
C458 C457 1.366 . S
C458 C459 1.414 . S
C458 C461 1.499 . S
C459 H433 0.950 . S
C459 C458 1.414 . S
C459 C460 1.374 . S
C460 H434 0.950 . S
C460 C456 1.385 . S
C460 C459 1.374 . S
C461 C458 1.499 . S
C461 C462 1.373 . S
C461 C463 1.389 . S
C462 H435 0.950 . S
C462 C448 1.377 . S
C462 C461 1.373 . S
C463 C447 1.377 . S
C463 C461 1.389 . S
C463 C464 1.524 . S
C464 C463 1.524 . S
C464 C465 1.397 . S
C464 C469 1.363 . S
C465 H436 0.950 . S
C465 C464 1.397 . S
C465 C466 1.334 . S
C466 H437 0.950 . S
C466 C465 1.334 . S
C466 C467 1.287 . S
C467 C466 1.287 . S
C467 C468 1.524 . S
C467 H470 0.999 . S
C468 H438 0.950 . S
C468 C467 1.524 . S
C468 C469 1.415 . S
C469 H439 0.950 . S
C469 C464 1.363 . S
C469 C468 1.415 . S
H470 C467 0.999 . S
H471 C452 0.913 . S
H472 C490 0.951 . S
H473 C492 0.951 . S
H474 C494 0.950 . S
H475 C495 0.950 . S
H476 C497 0.950 . S
H477 C500 0.950 . S
H478 C501 0.950 . S
H479 C503 0.950 . S
H480 C504 0.950 . S
H481 C505 0.951 . S
H482 C507 0.951 . S
H483 C509 0.950 . S
H484 C510 0.950 . S
H485 C512 0.950 . S
H486 C515 0.950 . S
H487 C516 0.950 . S
H488 C518 0.950 . S
H489 C519 0.950 . S
C490 H472 0.951 . S
C490 C491 1.366 . S
C490 C492 1.388 . S
C491 C490 1.366 . S
C491 C495 1.385 . S
C492 H473 0.951 . S
C492 C490 1.388 . S
C492 C493 1.366 . S
C493 C492 1.366 . S
C493 C494 1.414 . S
C493 C496 1.499 . S
C494 H474 0.950 . S
C494 C493 1.414 . S
C494 C495 1.374 . S
C495 H475 0.950 . S
C495 C491 1.385 . S
C495 C494 1.374 . S
C496 C493 1.499 . S
C496 C497 1.373 . S
C496 C498 1.389 . S
C497 H476 0.950 . S
C497 C496 1.373 . S
C497 C513 1.377 1_565 S
C498 C496 1.389 . S
C498 C499 1.524 . S
C498 C512 1.377 1_565 S
C499 C498 1.524 . S
C499 C500 1.397 . S
C499 C504 1.363 1_565 S
C500 H477 0.950 . S
C500 C499 1.397 . S
C500 C501 1.334 . S
C501 H478 0.950 . S
C501 C500 1.334 . S
C501 C502 1.287 . S
C502 C501 1.287 . S
C502 C503 1.524 1_565 S
C502 H521 0.913 . S
C503 H479 0.950 . S
C503 C502 1.524 1_545 S
C503 C504 1.415 . S
C504 H480 0.950 . S
C504 C499 1.363 1_545 S
C504 C503 1.415 . S
C505 H481 0.951 . S
C505 C506 1.366 . S
C505 C507 1.388 . S
C506 C505 1.366 . S
C506 C510 1.385 . S
C507 H482 0.951 . S
C507 C505 1.388 . S
C507 C508 1.366 . S
C508 C507 1.366 . S
C508 C509 1.414 . S
C508 C511 1.499 . S
C509 H483 0.950 . S
C509 C508 1.414 . S
C509 C510 1.374 . S
C510 H484 0.950 . S
C510 C506 1.385 . S
C510 C509 1.374 . S
C511 C508 1.499 . S
C511 C512 1.373 . S
C511 C513 1.389 . S
C512 H485 0.950 . S
C512 C498 1.377 1_545 S
C512 C511 1.373 . S
C513 C497 1.377 1_545 S
C513 C511 1.389 . S
C513 C514 1.524 . S
C514 C513 1.524 . S
C514 C515 1.397 . S
C514 C519 1.363 1_545 S
C515 H486 0.950 . S
C515 C514 1.397 . S
C515 C516 1.334 . S
C516 H487 0.950 . S
C516 C515 1.334 . S
C516 C517 1.287 . S
C517 C516 1.287 . S
C517 C518 1.524 1_545 S
C517 H520 0.999 . S
C518 H488 0.950 . S
C518 C517 1.524 1_565 S
C518 C519 1.415 . S
C519 H489 0.950 . S
C519 C514 1.363 1_565 S
C519 C518 1.415 . S
H520 C517 0.999 . S
H521 C502 0.913 . S
H522 C540 0.951 . S
H523 C542 0.951 . S
H524 C544 0.950 . S
H525 C545 0.950 . S
H526 C547 0.950 . S
H527 C550 0.950 . S
H528 C551 0.950 . S
H529 C553 0.950 . S
H530 C554 0.950 . S
H531 C555 0.951 . S
H532 C557 0.951 . S
H533 C559 0.950 . S
H534 C560 0.950 . S
H535 C562 0.950 . S
H536 C565 0.950 . S
H537 C566 0.950 . S
H538 C568 0.950 . S
H539 C569 0.950 . S
C540 H522 0.951 . S
C540 C541 1.366 . S
C540 C542 1.388 . S
C541 C540 1.366 . S
C541 C545 1.385 . S
C542 H523 0.951 . S
C542 C540 1.388 . S
C542 C543 1.366 . S
C543 C542 1.366 . S
C543 C544 1.414 . S
C543 C546 1.499 . S
C544 H524 0.950 . S
C544 C543 1.414 . S
C544 C545 1.374 . S
C545 H525 0.950 . S
C545 C541 1.385 . S
C545 C544 1.374 . S
C546 C543 1.499 . S
C546 C547 1.373 . S
C546 C548 1.389 . S
C547 H526 0.950 . S
C547 C546 1.373 . S
C547 C563 1.377 . S
C548 C546 1.389 . S
C548 C549 1.524 . S
C548 C562 1.377 . S
C549 C548 1.524 . S
C549 C550 1.397 . S
C549 C554 1.363 . S
C550 H527 0.950 . S
C550 C549 1.397 . S
C550 C551 1.334 . S
C551 H528 0.950 . S
C551 C550 1.334 . S
C551 C552 1.287 . S
C552 C551 1.287 . S
C552 C553 1.524 . S
C552 H571 0.913 . S
C553 H529 0.950 . S
C553 C552 1.524 . S
C553 C554 1.415 . S
C554 H530 0.950 . S
C554 C549 1.363 . S
C554 C553 1.415 . S
C555 H531 0.951 . S
C555 C556 1.366 . S
C555 C557 1.388 . S
C556 C555 1.366 . S
C556 C560 1.385 . S
C557 H532 0.951 . S
C557 C555 1.388 . S
C557 C558 1.366 . S
C558 C557 1.366 . S
C558 C559 1.414 . S
C558 C561 1.499 . S
C559 H533 0.950 . S
C559 C558 1.414 . S
C559 C560 1.374 . S
C560 H534 0.950 . S
C560 C556 1.385 . S
C560 C559 1.374 . S
C561 C558 1.499 . S
C561 C562 1.373 . S
C561 C563 1.389 . S
C562 H535 0.950 . S
C562 C548 1.377 . S
C562 C561 1.373 . S
C563 C547 1.377 . S
C563 C561 1.389 . S
C563 C564 1.524 . S
C564 C563 1.524 . S
C564 C565 1.397 . S
C564 C569 1.363 . S
C565 H536 0.950 . S
C565 C564 1.397 . S
C565 C566 1.334 . S
C566 H537 0.950 . S
C566 C565 1.334 . S
C566 C567 1.287 . S
C567 C566 1.287 . S
C567 C568 1.524 . S
C567 H570 0.999 . S
C568 H538 0.950 . S
C568 C567 1.524 . S
C568 C569 1.415 . S
C569 H539 0.950 . S
C569 C564 1.363 . S
C569 C568 1.415 . S
H570 C567 0.999 . S
H571 C552 0.913 . S
H572 C590 0.951 . S
H573 C592 0.951 . S
H574 C594 0.950 . S
H575 C595 0.950 . S
H576 C597 0.950 . S
H577 C600 0.950 . S
H578 C601 0.950 . S
H579 C603 0.950 . S
H580 C604 0.950 . S
H581 C605 0.951 . S
H582 C607 0.951 . S
H583 C609 0.950 . S
H584 C610 0.950 . S
H585 C612 0.950 . S
H586 C615 0.950 . S
H587 C616 0.950 . S
H588 C618 0.950 . S
H589 C619 0.950 . S
C590 H572 0.951 . S
C590 C591 1.366 . S
C590 C592 1.388 . S
C591 C590 1.366 . S
C591 C595 1.385 . S
C592 H573 0.951 . S
C592 C590 1.388 . S
C592 C593 1.366 . S
C593 C592 1.366 . S
C593 C594 1.414 . S
C593 C596 1.499 . S
C594 H574 0.950 . S
C594 C593 1.414 . S
C594 C595 1.374 . S
C595 H575 0.950 . S
C595 C591 1.385 . S
C595 C594 1.374 . S
C596 C593 1.499 . S
C596 C597 1.373 . S
C596 C598 1.412 . S
C597 H576 0.950 . S
C597 C596 1.373 . S
C597 C613 1.354 1_565 S
C598 C596 1.412 . S
C598 C599 1.524 . S
C598 C612 1.354 1_565 S
C599 C598 1.524 . S
C599 C600 1.394 . S
C599 C604 1.365 1_565 S
C600 H577 0.950 . S
C600 C599 1.394 . S
C600 C601 1.334 . S
C601 H578 0.950 . S
C601 C600 1.334 . S
C601 C602 1.320 . S
C602 C601 1.320 . S
C602 C603 1.491 1_565 S
C602 H621 0.916 . S
C603 H579 0.950 . S
C603 C602 1.491 1_545 S
C603 C604 1.415 . S
C604 H580 0.950 . S
C604 C599 1.365 1_545 S
C604 C603 1.415 . S
C605 H581 0.951 . S
C605 C606 1.366 . S
C605 C607 1.388 . S
C606 C605 1.366 . S
C606 C610 1.385 . S
C607 H582 0.951 . S
C607 C605 1.388 . S
C607 C608 1.366 . S
C608 C607 1.366 . S
C608 C609 1.414 . S
C608 C611 1.499 . S
C609 H583 0.950 . S
C609 C608 1.414 . S
C609 C610 1.374 . S
C610 H584 0.950 . S
C610 C606 1.385 . S
C610 C609 1.374 . S
C611 C608 1.499 . S
C611 C612 1.373 . S
C611 C613 1.412 . S
C612 H585 0.950 . S
C612 C598 1.354 1_545 S
C612 C611 1.373 . S
C613 C597 1.354 1_545 S
C613 C611 1.412 . S
C613 C614 1.524 . S
C614 C613 1.524 . S
C614 C615 1.394 . S
C614 C619 1.365 1_545 S
C615 H586 0.950 . S
C615 C614 1.394 . S
C615 C616 1.334 . S
C616 H587 0.950 . S
C616 C615 1.334 . S
C616 C617 1.320 . S
C617 C616 1.320 . S
C617 C618 1.491 1_545 S
C617 H620 0.999 . S
C618 H588 0.950 . S
C618 C617 1.491 1_565 S
C618 C619 1.415 . S
C619 H589 0.950 . S
C619 C614 1.365 1_565 S
C619 C618 1.415 . S
H620 C617 0.999 . S
H621 C602 0.916 . S
H622 C640 0.951 . S
H623 C642 0.951 . S
H624 C644 0.950 . S
H625 C645 0.950 . S
H626 C647 0.950 . S
H627 C650 0.950 . S
H628 C651 0.950 . S
H629 C653 0.950 . S
H630 C654 0.950 . S
H631 C655 0.951 . S
H632 C657 0.951 . S
H633 C659 0.950 . S
H634 C660 0.950 . S
H635 C662 0.950 . S
H636 C665 0.950 . S
H637 C666 0.950 . S
H638 C668 0.950 . S
H639 C669 0.950 . S
C640 H622 0.951 . S
C640 C641 1.366 . S
C640 C642 1.388 . S
C641 C640 1.366 . S
C641 C645 1.385 . S
C642 H623 0.951 . S
C642 C640 1.388 . S
C642 C643 1.366 . S
C643 C642 1.366 . S
C643 C644 1.414 . S
C643 C646 1.499 . S
C644 H624 0.950 . S
C644 C643 1.414 . S
C644 C645 1.374 . S
C645 H625 0.950 . S
C645 C641 1.385 . S
C645 C644 1.374 . S
C646 C643 1.499 . S
C646 C647 1.373 . S
C646 C648 1.389 . S
C647 H626 0.950 . S
C647 C646 1.373 . S
C647 C663 1.377 . S
C648 C646 1.389 . S
C648 C649 1.524 . S
C648 C662 1.377 . S
C649 C648 1.524 . S
C649 C650 1.397 . S
C649 C654 1.363 . S
C650 H627 0.950 . S
C650 C649 1.397 . S
C650 C651 1.334 . S
C651 H628 0.950 . S
C651 C650 1.334 . S
C651 C652 1.287 . S
C652 C651 1.287 . S
C652 C653 1.524 . S
C652 H671 0.913 . S
C653 H629 0.950 . S
C653 C652 1.524 . S
C653 C654 1.415 . S
C654 H630 0.950 . S
C654 C649 1.363 . S
C654 C653 1.415 . S
C655 H631 0.951 . S
C655 C656 1.366 . S
C655 C657 1.388 . S
C656 C655 1.366 . S
C656 C660 1.385 . S
C657 H632 0.951 . S
C657 C655 1.388 . S
C657 C658 1.366 . S
C658 C657 1.366 . S
C658 C659 1.414 . S
C658 C661 1.499 . S
C659 H633 0.950 . S
C659 C658 1.414 . S
C659 C660 1.374 . S
C660 H634 0.950 . S
C660 C656 1.385 . S
C660 C659 1.374 . S
C661 C658 1.499 . S
C661 C662 1.373 . S
C661 C663 1.389 . S
C662 H635 0.950 . S
C662 C648 1.377 . S
C662 C661 1.373 . S
C663 C647 1.377 . S
C663 C661 1.389 . S
C663 C664 1.524 . S
C664 C663 1.524 . S
C664 C665 1.397 . S
C664 C669 1.363 . S
C665 H636 0.950 . S
C665 C664 1.397 . S
C665 C666 1.334 . S
C666 H637 0.950 . S
C666 C665 1.334 . S
C666 C667 1.287 . S
C667 C666 1.287 . S
C667 C668 1.524 . S
C667 H670 0.999 . S
C668 H638 0.950 . S
C668 C667 1.524 . S
C668 C669 1.415 . S
C669 H639 0.950 . S
C669 C664 1.363 . S
C669 C668 1.415 . S
H670 C667 0.999 . S
H671 C652 0.913 . S
H672 C690 0.951 . S
H673 C692 0.951 1_556 S
H674 C694 0.950 . S
H675 C695 0.950 . S
H676 C697 0.950 . S
H677 C700 0.950 . S
H678 C701 0.950 . S
H679 C703 0.950 . S
H680 C704 0.950 . S
H681 C705 0.951 . S
H682 C707 0.951 . S
H683 C709 0.950 . S
H684 C710 0.950 . S
H685 C712 0.950 . S
H686 C715 0.950 . S
H687 C716 0.950 . S
H688 C718 0.950 . S
H689 C719 0.950 . S
C690 H672 0.951 . S
C690 C691 1.366 . S
C690 C692 1.388 . S
C691 C690 1.366 . S
C691 C695 1.385 . S
C692 H673 0.951 1_554 S
C692 C690 1.388 . S
C692 C693 1.366 . S
C693 C692 1.366 . S
C693 C694 1.414 . S
C693 C696 1.499 . S
C694 H674 0.950 . S
C694 C693 1.414 . S
C694 C695 1.374 . S
C695 H675 0.950 . S
C695 C691 1.385 . S
C695 C694 1.374 . S
C696 C693 1.499 . S
C696 C697 1.373 . S
C696 C698 1.389 1_554 S
C697 H676 0.950 . S
C697 C696 1.373 . S
C697 C713 1.377 1_554 S
C698 C696 1.389 1_556 S
C698 C699 1.524 . S
C698 C712 1.377 . S
C699 C698 1.524 . S
C699 C700 1.397 1_556 S
C699 C704 1.363 . S
C700 H677 0.950 . S
C700 C699 1.397 1_554 S
C700 C701 1.334 . S
C701 H678 0.950 . S
C701 C700 1.334 . S
C701 C702 1.287 1_554 S
C702 C701 1.287 1_556 S
C702 C703 1.524 . S
C702 H721 0.913 . S
C703 H679 0.950 . S
C703 C702 1.524 . S
C703 C704 1.415 . S
C704 H680 0.950 . S
C704 C699 1.363 . S
C704 C703 1.415 . S
C705 H681 0.951 . S
C705 C706 1.366 . S
C705 C707 1.388 . S
C706 C705 1.366 . S
C706 C710 1.385 . S
C707 H682 0.951 . S
C707 C705 1.388 . S
C707 C708 1.366 . S
C708 C707 1.366 . S
C708 C709 1.414 . S
C708 C711 1.499 . S
C709 H683 0.950 . S
C709 C708 1.414 . S
C709 C710 1.374 . S
C710 H684 0.950 . S
C710 C706 1.385 . S
C710 C709 1.374 . S
C711 C708 1.499 . S
C711 C712 1.373 . S
C711 C713 1.389 . S
C712 H685 0.950 . S
C712 C698 1.377 . S
C712 C711 1.373 . S
C713 C697 1.377 1_556 S
C713 C711 1.389 . S
C713 C714 1.524 . S
C714 C713 1.524 . S
C714 C715 1.397 . S
C714 C719 1.363 1_556 S
C715 H686 0.950 . S
C715 C714 1.397 . S
C715 C716 1.334 . S
C716 H687 0.950 . S
C716 C715 1.334 . S
C716 C717 1.287 . S
C717 C716 1.287 . S
C717 C718 1.524 1_556 S
C717 H720 0.999 . S
C718 H688 0.950 . S
C718 C717 1.524 1_554 S
C718 C719 1.415 . S
C719 H689 0.950 . S
C719 C714 1.363 1_554 S
C719 C718 1.415 . S
H720 C717 0.999 . S
H721 C702 0.913 . S
H722 C740 0.951 . S
H723 C742 0.951 . S
H724 C744 0.950 . S
H725 C745 0.950 . S
H726 C747 0.956 . S
H727 C750 0.950 . S
H728 C751 0.950 . S
H729 C753 0.950 . S
H730 C754 0.950 . S
H731 C755 0.951 . S
H732 C757 0.951 . S
H733 C759 0.950 1_556 S
H734 C760 0.950 . S
H735 C762 0.950 . S
H736 C765 0.950 . S
H737 C766 0.950 . S
H738 C768 0.950 . S
H739 C769 0.950 . S
C740 H722 0.951 . S
C740 C741 1.366 . S
C740 C742 1.388 . S
C741 C740 1.366 . S
C741 C745 1.385 . S
C742 H723 0.951 . S
C742 C740 1.388 . S
C742 C743 1.366 . S
C743 C742 1.366 . S
C743 C744 1.414 . S
C743 C746 1.499 . S
C744 H724 0.950 . S
C744 C743 1.414 . S
C744 C745 1.374 . S
C745 H725 0.950 . S
C745 C741 1.385 . S
C745 C744 1.374 . S
C746 C743 1.499 . S
C746 C747 1.373 . S
C746 C748 1.389 . S
C747 H726 0.956 . S
C747 C746 1.373 . S
C747 C763 1.377 1_556 S
C748 C746 1.389 . S
C748 C749 1.524 . S
C748 C762 1.377 . S
C749 C748 1.524 . S
C749 C750 1.397 . S
C749 C754 1.363 . S
C750 H727 0.950 . S
C750 C749 1.397 . S
C750 C751 1.334 . S
C751 H728 0.950 . S
C751 C750 1.334 . S
C751 C752 1.287 . S
C752 C751 1.287 . S
C752 C753 1.524 . S
C752 H771 0.913 . S
C753 H729 0.950 . S
C753 C752 1.524 . S
C753 C754 1.415 . S
C754 H730 0.950 . S
C754 C749 1.363 . S
C754 C753 1.415 . S
C755 H731 0.951 . S
C755 C756 1.366 . S
C755 C757 1.388 . S
C756 C755 1.366 . S
C756 C760 1.385 . S
C757 H732 0.951 . S
C757 C755 1.388 . S
C757 C758 1.366 . S
C758 C757 1.366 . S
C758 C759 1.414 . S
C758 C761 1.500 1_554 S
C759 H733 0.950 1_554 S
C759 C758 1.414 . S
C759 C760 1.374 . S
C760 H734 0.950 . S
C760 C756 1.385 . S
C760 C759 1.374 . S
C761 C758 1.500 1_556 S
C761 C762 1.372 . S
C761 C763 1.390 1_556 S
C762 H735 0.950 . S
C762 C748 1.377 . S
C762 C761 1.372 . S
C763 C747 1.377 1_554 S
C763 C761 1.390 1_554 S
C763 C764 1.524 . S
C764 C763 1.524 . S
C764 C765 1.397 . S
C764 C769 1.363 . S
C765 H736 0.950 . S
C765 C764 1.397 . S
C765 C766 1.334 . S
C766 H737 0.950 . S
C766 C765 1.334 . S
C766 C767 1.287 . S
C767 C766 1.287 . S
C767 C768 1.524 . S
C767 H770 0.999 . S
C768 H738 0.950 . S
C768 C767 1.524 . S
C768 C769 1.415 . S
C769 H739 0.950 . S
C769 C764 1.363 . S
C769 C768 1.415 . S
H770 C767 0.999 . S
H771 C752 0.913 . S
H772 C790 0.951 . S
H773 C792 0.951 . S
H774 C794 0.950 . S
H775 C795 0.950 . S
H776 C797 0.950 . S
H777 C800 0.950 . S
H778 C801 0.950 . S
H779 C803 0.950 . S
H780 C804 0.950 . S
H781 C805 0.951 . S
H782 C807 0.951 . S
H783 C809 0.950 . S
H784 C810 0.950 . S
H785 C812 0.950 . S
H786 C815 0.950 . S
H787 C816 0.950 . S
H788 C818 0.950 . S
H789 C819 0.950 . S
C790 H772 0.951 . S
C790 C791 1.366 . S
C790 C792 1.388 . S
C791 C790 1.366 . S
C791 C795 1.385 . S
C792 H773 0.951 . S
C792 C790 1.388 . S
C792 C793 1.366 . S
C793 C792 1.366 . S
C793 C794 1.414 . S
C793 C796 1.499 . S
C794 H774 0.950 . S
C794 C793 1.414 . S
C794 C795 1.374 . S
C795 H775 0.950 . S
C795 C791 1.385 . S
C795 C794 1.374 . S
C796 C793 1.499 . S
C796 C797 1.373 . S
C796 C798 1.389 . S
C797 H776 0.950 . S
C797 C796 1.373 . S
C797 C813 1.377 . S
C798 C796 1.389 . S
C798 C799 1.524 . S
C798 C812 1.377 . S
C799 C798 1.524 . S
C799 C800 1.397 . S
C799 C804 1.363 . S
C800 H777 0.950 . S
C800 C799 1.397 . S
C800 C801 1.334 . S
C801 H778 0.950 . S
C801 C800 1.334 . S
C801 C802 1.287 . S
C802 C801 1.287 . S
C802 C803 1.524 . S
C802 H821 0.913 . S
C803 H779 0.950 . S
C803 C802 1.524 . S
C803 C804 1.415 . S
C804 H780 0.950 . S
C804 C799 1.363 . S
C804 C803 1.415 . S
C805 H781 0.951 . S
C805 C806 1.366 . S
C805 C807 1.388 . S
C806 C805 1.366 . S
C806 C810 1.385 . S
C807 H782 0.951 . S
C807 C805 1.388 . S
C807 C808 1.366 . S
C808 C807 1.366 . S
C808 C809 1.414 . S
C808 C811 1.499 . S
C809 H783 0.950 . S
C809 C808 1.414 . S
C809 C810 1.374 . S
C810 H784 0.950 . S
C810 C806 1.385 . S
C810 C809 1.374 . S
C811 C808 1.499 . S
C811 C812 1.373 . S
C811 C813 1.389 . S
C812 H785 0.950 . S
C812 C798 1.377 . S
C812 C811 1.373 . S
C813 C797 1.377 . S
C813 C811 1.389 . S
C813 C814 1.524 . S
C814 C813 1.524 . S
C814 C815 1.397 . S
C814 C819 1.363 . S
C815 H786 0.950 . S
C815 C814 1.397 . S
C815 C816 1.334 . S
C816 H787 0.950 . S
C816 C815 1.334 . S
C816 C817 1.287 . S
C817 C816 1.287 . S
C817 C818 1.524 . S
C817 H820 0.999 . S
C818 H788 0.950 . S
C818 C817 1.524 . S
C818 C819 1.415 . S
C819 H789 0.950 . S
C819 C814 1.363 . S
C819 C818 1.415 . S
H820 C817 0.999 . S
H821 C802 0.913 . S
H822 C840 0.951 . S
H823 C842 0.951 . S
H824 C844 0.950 . S
H825 C845 0.950 . S
H826 C847 0.950 . S
H827 C850 0.950 . S
H828 C851 0.950 . S
H829 C853 0.950 . S
H830 C854 0.950 . S
H831 C855 0.951 . S
H832 C857 0.951 . S
H833 C859 0.950 . S
H834 C860 0.950 . S
H835 C862 0.950 . S
H836 C865 0.950 . S
H837 C866 0.950 . S
H838 C868 0.950 . S
H839 C869 0.950 . S
C840 H822 0.951 . S
C840 C841 1.366 . S
C840 C842 1.388 . S
C841 C840 1.366 . S
C841 C845 1.385 . S
C842 H823 0.951 . S
C842 C840 1.388 . S
C842 C843 1.366 . S
C843 C842 1.366 . S
C843 C844 1.414 . S
C843 C846 1.499 . S
C844 H824 0.950 . S
C844 C843 1.414 . S
C844 C845 1.374 . S
C845 H825 0.950 . S
C845 C841 1.385 . S
C845 C844 1.374 . S
C846 C843 1.499 . S
C846 C847 1.373 . S
C846 C848 1.389 . S
C847 H826 0.950 . S
C847 C846 1.373 . S
C847 C863 1.377 . S
C848 C846 1.389 . S
C848 C849 1.524 . S
C848 C862 1.377 . S
C849 C848 1.524 . S
C849 C850 1.397 . S
C849 C854 1.363 . S
C850 H827 0.950 . S
C850 C849 1.397 . S
C850 C851 1.334 . S
C851 H828 0.950 . S
C851 C850 1.334 . S
C851 C852 1.287 . S
C852 C851 1.287 . S
C852 C853 1.524 . S
C852 H871 0.913 . S
C853 H829 0.950 . S
C853 C852 1.524 . S
C853 C854 1.415 . S
C854 H830 0.950 . S
C854 C849 1.363 . S
C854 C853 1.415 . S
C855 H831 0.951 . S
C855 C856 1.366 . S
C855 C857 1.388 . S
C856 C855 1.366 . S
C856 C860 1.385 . S
C857 H832 0.951 . S
C857 C855 1.388 . S
C857 C858 1.366 . S
C858 C857 1.366 . S
C858 C859 1.414 . S
C858 C861 1.499 . S
C859 H833 0.950 . S
C859 C858 1.414 . S
C859 C860 1.374 . S
C860 H834 0.950 . S
C860 C856 1.385 . S
C860 C859 1.374 . S
C861 C858 1.499 . S
C861 C862 1.373 . S
C861 C863 1.389 . S
C862 H835 0.950 . S
C862 C848 1.377 . S
C862 C861 1.373 . S
C863 C847 1.377 . S
C863 C861 1.389 . S
C863 C864 1.524 . S
C864 C863 1.524 . S
C864 C865 1.397 . S
C864 C869 1.363 . S
C865 H836 0.950 . S
C865 C864 1.397 . S
C865 C866 1.334 . S
C866 H837 0.950 . S
C866 C865 1.334 . S
C866 C867 1.287 . S
C867 C866 1.287 . S
C867 C868 1.524 . S
C867 H870 0.999 . S
C868 H838 0.950 . S
C868 C867 1.524 . S
C868 C869 1.415 . S
C869 H839 0.950 . S
C869 C864 1.363 . S
C869 C868 1.415 . S
H870 C867 0.999 . S
H871 C852 0.913 . S
H872 C890 0.951 . S
H873 C892 0.951 . S
H874 C894 0.950 . S
H875 C895 0.950 . S
H876 C897 0.950 . S
H877 C900 0.950 . S
H878 C901 0.950 . S
H879 C903 0.950 . S
H880 C904 0.950 . S
H881 C905 0.951 . S
H882 C907 0.951 1_554 S
H883 C909 0.950 . S
H884 C910 0.950 . S
H885 C912 0.950 . S
H886 C915 0.901 1_556 S
H887 C916 0.950 . S
H888 C918 0.950 . S
H889 C919 0.950 . S
C890 H872 0.951 . S
C890 C891 1.366 . S
C890 C892 1.388 . S
C891 C890 1.366 . S
C891 C895 1.385 . S
C892 H873 0.951 . S
C892 C890 1.388 . S
C892 C893 1.366 . S
C893 C892 1.366 . S
C893 C894 1.414 . S
C893 C896 1.499 . S
C894 H874 0.950 . S
C894 C893 1.414 . S
C894 C895 1.374 . S
C895 H875 0.950 . S
C895 C891 1.385 . S
C895 C894 1.374 . S
C896 C893 1.499 . S
C896 C897 1.373 . S
C896 C898 1.389 . S
C897 H876 0.950 . S
C897 C896 1.373 . S
C897 C913 1.377 . S
C898 C896 1.389 . S
C898 C899 1.524 1_554 S
C898 C912 1.377 1_554 S
C899 C898 1.524 1_556 S
C899 C900 1.397 1_556 S
C899 C904 1.363 . S
C900 H877 0.950 . S
C900 C899 1.397 1_554 S
C900 C901 1.334 . S
C901 H878 0.950 . S
C901 C900 1.334 . S
C901 C902 1.287 1_554 S
C902 C901 1.287 1_556 S
C902 C903 1.524 . S
C902 H921 0.913 . S
C903 H879 0.950 . S
C903 C902 1.524 . S
C903 C904 1.415 . S
C904 H880 0.950 . S
C904 C899 1.363 . S
C904 C903 1.415 . S
C905 H881 0.951 . S
C905 C906 1.366 . S
C905 C907 1.388 . S
C906 C905 1.366 . S
C906 C910 1.385 . S
C907 H882 0.951 1_556 S
C907 C905 1.388 . S
C907 C908 1.366 . S
C908 C907 1.366 . S
C908 C909 1.414 . S
C908 C911 1.522 . S
C909 H883 0.950 . S
C909 C908 1.414 . S
C909 C910 1.374 . S
C910 H884 0.950 . S
C910 C906 1.385 . S
C910 C909 1.374 . S
C911 C908 1.522 . S
C911 C912 1.390 . S
C911 C913 1.348 1_556 S
C912 H885 0.950 . S
C912 C898 1.377 1_556 S
C912 C911 1.390 . S
C913 C897 1.377 . S
C913 C911 1.348 1_554 S
C913 C914 1.524 . S
C914 C913 1.524 . S
C914 C915 1.397 . S
C914 C919 1.363 . S
C915 H886 0.901 1_554 S
C915 C914 1.397 . S
C915 C916 1.334 . S
C916 H887 0.950 . S
C916 C915 1.334 . S
C916 C917 1.287 . S
C917 C916 1.287 . S
C917 C918 1.524 . S
C917 H920 0.999 . S
C918 H888 0.950 . S
C918 C917 1.524 . S
C918 C919 1.415 . S
C919 H889 0.950 . S
C919 C914 1.363 . S
C919 C918 1.415 . S
H920 C917 0.999 . S
H921 C902 0.913 . S
H922 C940 0.951 . S
H923 C942 0.951 . S
H924 C944 0.950 1_554 S
H925 C945 0.950 . S
H926 C947 0.950 . S
H927 C950 0.950 . S
H928 C951 0.950 . S
H929 C953 0.950 . S
H930 C954 0.950 . S
H931 C955 0.951 . S
H932 C957 0.951 . S
H933 C959 0.950 . S
H934 C960 0.950 . S
H935 C962 0.959 . S
H936 C965 0.950 . S
H937 C966 0.950 . S
H938 C968 0.950 . S
H939 C969 0.950 . S
C940 H922 0.951 . S
C940 C941 1.366 . S
C940 C942 1.388 . S
C941 C940 1.366 . S
C941 C945 1.385 . S
C942 H923 0.951 . S
C942 C940 1.388 . S
C942 C943 1.366 . S
C943 C942 1.366 . S
C943 C944 1.414 . S
C943 C946 1.499 1_556 S
C944 H924 0.950 1_556 S
C944 C943 1.414 . S
C944 C945 1.374 . S
C945 H925 0.950 . S
C945 C941 1.385 . S
C945 C944 1.374 . S
C946 C943 1.499 1_554 S
C946 C947 1.372 . S
C946 C948 1.390 1_554 S
C947 H926 0.950 . S
C947 C946 1.372 . S
C947 C963 1.377 . S
C948 C946 1.390 1_556 S
C948 C949 1.524 . S
C948 C962 1.377 1_556 S
C949 C948 1.524 . S
C949 C950 1.397 . S
C949 C954 1.363 . S
C950 H927 0.950 . S
C950 C949 1.397 . S
C950 C951 1.334 . S
C951 H928 0.950 . S
C951 C950 1.334 . S
C951 C952 1.287 . S
C952 C951 1.287 . S
C952 C953 1.524 . S
C952 H971 0.913 . S
C953 H929 0.950 . S
C953 C952 1.524 . S
C953 C954 1.415 . S
C954 H930 0.950 . S
C954 C949 1.363 . S
C954 C953 1.415 . S
C955 H931 0.951 . S
C955 C956 1.366 . S
C955 C957 1.388 . S
C956 C955 1.366 . S
C956 C960 1.385 . S
C957 H932 0.951 . S
C957 C955 1.388 . S
C957 C958 1.366 . S
C958 C957 1.366 . S
C958 C959 1.414 . S
C958 C961 1.499 . S
C959 H933 0.950 . S
C959 C958 1.414 . S
C959 C960 1.374 . S
C960 H934 0.950 . S
C960 C956 1.385 . S
C960 C959 1.374 . S
C961 C958 1.499 . S
C961 C962 1.373 . S
C961 C963 1.389 . S
C962 H935 0.959 . S
C962 C948 1.377 1_554 S
C962 C961 1.373 . S
C963 C947 1.377 . S
C963 C961 1.389 . S
C963 C964 1.524 . S
C964 C963 1.524 . S
C964 C965 1.397 . S
C964 C969 1.363 . S
C965 H936 0.950 . S
C965 C964 1.397 . S
C965 C966 1.334 . S
C966 H937 0.950 . S
C966 C965 1.334 . S
C966 C967 1.287 . S
C967 C966 1.287 . S
C967 C968 1.524 . S
C967 H970 0.999 . S
C968 H938 0.950 . S
C968 C967 1.524 . S
C968 C969 1.415 . S
C969 H939 0.950 . S
C969 C964 1.363 . S
C969 C968 1.415 . S
H970 C967 0.999 . S
H971 C952 0.913 . S
H972 C990 0.951 . S
H973 C992 0.951 . S
H974 C994 0.950 . S
H975 C995 0.950 . S
H976 C997 0.950 . S
H977 C1000 0.950 . S
H978 C1001 0.950 . S
H979 C1003 0.950 . S
H980 C1004 0.950 . S
H981 C1005 0.951 . S
H982 C1007 0.951 . S
H983 C1009 0.950 . S
H984 C1010 0.950 . S
H985 C1012 0.950 . S
H986 C1015 0.950 . S
H987 C1016 0.950 . S
H988 C1018 0.950 . S
H989 C1019 0.950 . S
C990 H972 0.951 . S
C990 C991 1.366 . S
C990 C992 1.388 . S
C991 C990 1.366 . S
C991 C995 1.385 . S
C992 H973 0.951 . S
C992 C990 1.388 . S
C992 C993 1.366 . S
C993 C992 1.366 . S
C993 C994 1.414 . S
C993 C996 1.499 . S
C994 H974 0.950 . S
C994 C993 1.414 . S
C994 C995 1.374 . S
C995 H975 0.950 . S
C995 C991 1.385 . S
C995 C994 1.374 . S
C996 C993 1.499 . S
C996 C997 1.373 . S
C996 C998 1.389 . S
C997 H976 0.950 . S
C997 C996 1.373 . S
C997 C1013 1.377 . S
C998 C996 1.389 . S
C998 C999 1.524 . S
C998 C1012 1.377 . S
C999 C998 1.524 . S
C999 C1000 1.397 . S
C999 C1004 1.363 . S
C1000 H977 0.950 . S
C1000 C999 1.397 . S
C1000 C1001 1.334 . S
C1001 H978 0.950 . S
C1001 C1000 1.334 . S
C1001 C1002 1.287 . S
C1002 C1001 1.287 . S
C1002 C1003 1.524 . S
C1002 H1021 0.913 . S
C1003 H979 0.950 . S
C1003 C1002 1.524 . S
C1003 C1004 1.415 . S
C1004 H980 0.950 . S
C1004 C999 1.363 . S
C1004 C1003 1.415 . S
C1005 H981 0.951 . S
C1005 C1006 1.366 . S
C1005 C1007 1.388 . S
C1006 C1005 1.366 . S
C1006 C1010 1.385 . S
C1007 H982 0.951 . S
C1007 C1005 1.388 . S
C1007 C1008 1.366 . S
C1008 C1007 1.366 . S
C1008 C1009 1.414 . S
C1008 C1011 1.499 . S
C1009 H983 0.950 . S
C1009 C1008 1.414 . S
C1009 C1010 1.374 . S
C1010 H984 0.950 . S
C1010 C1006 1.385 . S
C1010 C1009 1.374 . S
C1011 C1008 1.499 . S
C1011 C1012 1.373 . S
C1011 C1013 1.389 . S
C1012 H985 0.950 . S
C1012 C998 1.377 . S
C1012 C1011 1.373 . S
C1013 C997 1.377 . S
C1013 C1011 1.389 . S
C1013 C1014 1.524 . S
C1014 C1013 1.524 . S
C1014 C1015 1.397 . S
C1014 C1019 1.363 . S
C1015 H986 0.950 . S
C1015 C1014 1.397 . S
C1015 C1016 1.334 . S
C1016 H987 0.950 . S
C1016 C1015 1.334 . S
C1016 C1017 1.287 . S
C1017 C1016 1.287 . S
C1017 C1018 1.524 . S
C1017 H1020 0.999 . S
C1018 H988 0.950 . S
C1018 C1017 1.524 . S
C1018 C1019 1.415 . S
C1019 H989 0.950 . S
C1019 C1014 1.363 . S
C1019 C1018 1.415 . S
H1020 C1017 0.999 . S
H1021 C1002 0.913 . S
H1022 C1040 0.951 . S
H1023 C1042 0.951 . S
H1024 C1044 0.950 . S
H1025 C1045 0.950 . S
H1026 C1047 0.950 . S
H1027 C1050 0.950 . S
H1028 C1051 0.950 . S
H1029 C1053 0.950 . S
H1030 C1054 0.950 . S
H1031 C1055 0.951 . S
H1032 C1057 0.951 . S
H1033 C1059 0.950 . S
H1034 C1060 0.950 . S
H1035 C1062 0.950 . S
H1036 C1065 0.950 . S
H1037 C1066 0.950 . S
H1038 C1068 0.950 . S
H1039 C1069 0.950 . S
C1040 H1022 0.951 . S
C1040 C1041 1.366 . S
C1040 C1042 1.388 . S
C1041 C1040 1.366 . S
C1041 C1045 1.385 . S
C1042 H1023 0.951 . S
C1042 C1040 1.388 . S
C1042 C1043 1.366 . S
C1043 C1042 1.366 . S
C1043 C1044 1.414 . S
C1043 C1046 1.499 . S
C1044 H1024 0.950 . S
C1044 C1043 1.414 . S
C1044 C1045 1.374 . S
C1045 H1025 0.950 . S
C1045 C1041 1.385 . S
C1045 C1044 1.374 . S
C1046 C1043 1.499 . S
C1046 C1047 1.373 . S
C1046 C1048 1.389 . S
C1047 H1026 0.950 . S
C1047 C1046 1.373 . S
C1047 C1063 1.377 . S
C1048 C1046 1.389 . S
C1048 C1049 1.524 . S
C1048 C1062 1.377 . S
C1049 C1048 1.524 . S
C1049 C1050 1.397 . S
C1049 C1054 1.363 . S
C1050 H1027 0.950 . S
C1050 C1049 1.397 . S
C1050 C1051 1.334 . S
C1051 H1028 0.950 . S
C1051 C1050 1.334 . S
C1051 C1052 1.287 . S
C1052 C1051 1.287 . S
C1052 C1053 1.524 . S
C1052 H1071 0.913 . S
C1053 H1029 0.950 . S
C1053 C1052 1.524 . S
C1053 C1054 1.415 . S
C1054 H1030 0.950 . S
C1054 C1049 1.363 . S
C1054 C1053 1.415 . S
C1055 H1031 0.951 . S
C1055 C1056 1.366 . S
C1055 C1057 1.388 . S
C1056 C1055 1.366 . S
C1056 C1060 1.385 . S
C1057 H1032 0.951 . S
C1057 C1055 1.388 . S
C1057 C1058 1.366 . S
C1058 C1057 1.366 . S
C1058 C1059 1.414 . S
C1058 C1061 1.499 . S
C1059 H1033 0.950 . S
C1059 C1058 1.414 . S
C1059 C1060 1.374 . S
C1060 H1034 0.950 . S
C1060 C1056 1.385 . S
C1060 C1059 1.374 . S
C1061 C1058 1.499 . S
C1061 C1062 1.373 . S
C1061 C1063 1.389 . S
C1062 H1035 0.950 . S
C1062 C1048 1.377 . S
C1062 C1061 1.373 . S
C1063 C1047 1.377 . S
C1063 C1061 1.389 . S
C1063 C1064 1.524 . S
C1064 C1063 1.524 . S
C1064 C1065 1.397 . S
C1064 C1069 1.363 . S
C1065 H1036 0.950 . S
C1065 C1064 1.397 . S
C1065 C1066 1.334 . S
C1066 H1037 0.950 . S
C1066 C1065 1.334 . S
C1066 C1067 1.287 . S
C1067 C1066 1.287 . S
C1067 C1068 1.524 . S
C1067 H1070 0.999 . S
C1068 H1038 0.950 . S
C1068 C1067 1.524 . S
C1068 C1069 1.415 . S
C1069 H1039 0.950 . S
C1069 C1064 1.363 . S
C1069 C1068 1.415 . S
H1070 C1067 0.999 . S
H1071 C1052 0.913 . S
H1072 C1090 0.951 . S
H1073 C1092 0.951 . S
H1074 C1094 0.950 . S
H1075 C1095 0.950 . S
H1076 C1097 0.950 . S
H1077 C1100 0.950 . S
H1078 C1101 0.950 . S
H1079 C1103 0.950 . S
H1080 C1104 0.950 . S
H1081 C1105 0.951 . S
H1082 C1107 0.951 . S
H1083 C1109 0.950 . S
H1084 C1110 0.950 . S
H1085 C1112 0.950 . S
H1086 C1115 0.950 . S
H1087 C1116 0.950 . S
H1088 C1118 0.950 . S
H1089 C1119 0.950 . S
C1090 H1072 0.951 . S
C1090 C1091 1.366 . S
C1090 C1092 1.388 . S
C1091 C1090 1.366 . S
C1091 C1095 1.385 . S
C1092 H1073 0.951 . S
C1092 C1090 1.388 . S
C1092 C1093 1.366 . S
C1093 C1092 1.366 . S
C1093 C1094 1.414 . S
C1093 C1096 1.499 . S
C1094 H1074 0.950 . S
C1094 C1093 1.414 . S
C1094 C1095 1.374 . S
C1095 H1075 0.950 . S
C1095 C1091 1.385 . S
C1095 C1094 1.374 . S
C1096 C1093 1.499 . S
C1096 C1097 1.373 . S
C1096 C1098 1.389 . S
C1097 H1076 0.950 . S
C1097 C1096 1.373 . S
C1097 C1113 1.377 . S
C1098 C1096 1.389 . S
C1098 C1099 1.524 . S
C1098 C1112 1.377 . S
C1099 C1098 1.524 . S
C1099 C1100 1.397 . S
C1099 C1104 1.363 . S
C1100 H1077 0.950 . S
C1100 C1099 1.397 . S
C1100 C1101 1.334 . S
C1101 H1078 0.950 . S
C1101 C1100 1.334 . S
C1101 C1102 1.287 . S
C1102 C1101 1.287 . S
C1102 C1103 1.524 . S
C1102 H1121 0.913 . S
C1103 H1079 0.950 . S
C1103 C1102 1.524 . S
C1103 C1104 1.415 . S
C1104 H1080 0.950 . S
C1104 C1099 1.363 . S
C1104 C1103 1.415 . S
C1105 H1081 0.951 . S
C1105 C1106 1.366 . S
C1105 C1107 1.388 . S
C1106 C1105 1.366 . S
C1106 C1110 1.385 . S
C1107 H1082 0.951 . S
C1107 C1105 1.388 . S
C1107 C1108 1.366 . S
C1108 C1107 1.366 . S
C1108 C1109 1.414 . S
C1108 C1111 1.499 . S
C1109 H1083 0.950 . S
C1109 C1108 1.414 . S
C1109 C1110 1.374 . S
C1110 H1084 0.950 . S
C1110 C1106 1.385 . S
C1110 C1109 1.374 . S
C1111 C1108 1.499 . S
C1111 C1112 1.373 . S
C1111 C1113 1.389 . S
C1112 H1085 0.950 . S
C1112 C1098 1.377 . S
C1112 C1111 1.373 . S
C1113 C1097 1.377 . S
C1113 C1111 1.389 . S
C1113 C1114 1.524 . S
C1114 C1113 1.524 . S
C1114 C1115 1.397 . S
C1114 C1119 1.363 . S
C1115 H1086 0.950 . S
C1115 C1114 1.397 . S
C1115 C1116 1.334 1_455 S
C1116 H1087 0.950 . S
C1116 C1115 1.334 1_655 S
C1116 C1117 1.287 . S
C1117 C1116 1.287 . S
C1117 C1118 1.524 . S
C1117 H1120 0.999 . S
C1118 H1088 0.950 . S
C1118 C1117 1.524 . S
C1118 C1119 1.415 1_655 S
C1119 H1089 0.950 . S
C1119 C1114 1.363 . S
C1119 C1118 1.415 1_455 S
H1120 C1117 0.999 . S
H1121 C1102 0.913 . S
H1122 C1140 0.951 . S
H1123 C1142 0.951 . S
H1124 C1144 0.950 . S
H1125 C1145 0.950 . S
H1126 C1147 0.950 . S
H1127 C1150 0.950 . S
H1128 C1151 0.950 . S
H1129 C1153 0.950 . S
H1130 C1154 0.950 . S
H1131 C1155 0.951 . S
H1132 C1157 0.951 . S
H1133 C1159 0.950 . S
H1134 C1160 0.950 . S
H1135 C1162 0.950 . S
H1136 C1165 0.950 . S
H1137 C1166 0.950 . S
H1138 C1168 0.950 . S
H1139 C1169 0.950 . S
C1140 H1122 0.951 . S
C1140 C1141 1.366 . S
C1140 C1142 1.388 . S
C1141 C1140 1.366 . S
C1141 C1145 1.385 . S
C1142 H1123 0.951 . S
C1142 C1140 1.388 . S
C1142 C1143 1.366 . S
C1143 C1142 1.366 . S
C1143 C1144 1.414 . S
C1143 C1146 1.499 . S
C1144 H1124 0.950 . S
C1144 C1143 1.414 . S
C1144 C1145 1.374 . S
C1145 H1125 0.950 . S
C1145 C1141 1.385 . S
C1145 C1144 1.374 . S
C1146 C1143 1.499 . S
C1146 C1147 1.373 . S
C1146 C1148 1.389 . S
C1147 H1126 0.950 . S
C1147 C1146 1.373 . S
C1147 C1163 1.377 . S
C1148 C1146 1.389 . S
C1148 C1149 1.524 . S
C1148 C1162 1.377 . S
C1149 C1148 1.524 . S
C1149 C1150 1.397 . S
C1149 C1154 1.363 . S
C1150 H1127 0.950 . S
C1150 C1149 1.397 . S
C1150 C1151 1.334 . S
C1151 H1128 0.950 . S
C1151 C1150 1.334 . S
C1151 C1152 1.287 . S
C1152 C1151 1.287 . S
C1152 C1153 1.524 . S
C1152 H1171 0.913 . S
C1153 H1129 0.950 . S
C1153 C1152 1.524 . S
C1153 C1154 1.415 . S
C1154 H1130 0.950 . S
C1154 C1149 1.363 . S
C1154 C1153 1.415 . S
C1155 H1131 0.951 . S
C1155 C1156 1.366 . S
C1155 C1157 1.388 . S
C1156 C1155 1.366 . S
C1156 C1160 1.385 . S
C1157 H1132 0.951 . S
C1157 C1155 1.388 . S
C1157 C1158 1.366 . S
C1158 C1157 1.366 . S
C1158 C1159 1.414 . S
C1158 C1161 1.499 . S
C1159 H1133 0.950 . S
C1159 C1158 1.414 . S
C1159 C1160 1.374 . S
C1160 H1134 0.950 . S
C1160 C1156 1.385 . S
C1160 C1159 1.374 . S
C1161 C1158 1.499 . S
C1161 C1162 1.373 . S
C1161 C1163 1.389 . S
C1162 H1135 0.950 . S
C1162 C1148 1.377 . S
C1162 C1161 1.373 . S
C1163 C1147 1.377 . S
C1163 C1161 1.389 . S
C1163 C1164 1.524 . S
C1164 C1163 1.524 . S
C1164 C1165 1.397 . S
C1164 C1169 1.363 . S
C1165 H1136 0.950 . S
C1165 C1164 1.397 . S
C1165 C1166 1.334 . S
C1166 H1137 0.950 . S
C1166 C1165 1.334 . S
C1166 C1167 1.287 . S
C1167 C1166 1.287 . S
C1167 C1168 1.524 . S
C1167 H1170 0.999 . S
C1168 H1138 0.950 . S
C1168 C1167 1.524 . S
C1168 C1169 1.415 . S
C1169 H1139 0.950 . S
C1169 C1164 1.363 . S
C1169 C1168 1.415 . S
H1170 C1167 0.999 . S
H1171 C1152 0.913 . S
H1172 C1190 0.951 . S
H1173 C1192 0.951 . S
H1174 C1194 0.950 . S
H1175 C1195 0.950 . S
H1176 C1197 0.950 . S
H1177 C1200 0.950 . S
H1178 C1201 0.950 . S
H1179 C1203 0.950 . S
H1180 C1204 0.950 . S
H1181 C1205 0.951 . S
H1182 C1207 0.951 . S
H1183 C1209 0.950 . S
H1184 C1210 0.950 . S
H1185 C1212 0.950 . S
H1186 C1215 0.950 . S
H1187 C1216 0.950 . S
H1188 C1218 0.950 . S
H1189 C1219 0.950 . S
C1190 H1172 0.951 . S
C1190 C1191 1.366 . S
C1190 C1192 1.388 . S
C1191 C1190 1.366 . S
C1191 C1195 1.385 . S
C1192 H1173 0.951 . S
C1192 C1190 1.388 . S
C1192 C1193 1.366 . S
C1193 C1192 1.366 . S
C1193 C1194 1.414 . S
C1193 C1196 1.499 . S
C1194 H1174 0.950 . S
C1194 C1193 1.414 . S
C1194 C1195 1.374 . S
C1195 H1175 0.950 . S
C1195 C1191 1.385 . S
C1195 C1194 1.374 . S
C1196 C1193 1.499 . S
C1196 C1197 1.373 . S
C1196 C1198 1.389 . S
C1197 H1176 0.950 . S
C1197 C1196 1.373 . S
C1197 C1213 1.377 . S
C1198 C1196 1.389 . S
C1198 C1199 1.524 . S
C1198 C1212 1.377 . S
C1199 C1198 1.524 . S
C1199 C1200 1.397 . S
C1199 C1204 1.363 . S
C1200 H1177 0.950 . S
C1200 C1199 1.397 . S
C1200 C1201 1.334 . S
C1201 H1178 0.950 . S
C1201 C1200 1.334 . S
C1201 C1202 1.287 . S
C1202 C1201 1.287 . S
C1202 C1203 1.524 . S
C1202 H1221 0.913 . S
C1203 H1179 0.950 . S
C1203 C1202 1.524 . S
C1203 C1204 1.415 . S
C1204 H1180 0.950 . S
C1204 C1199 1.363 . S
C1204 C1203 1.415 . S
C1205 H1181 0.951 . S
C1205 C1206 1.366 . S
C1205 C1207 1.388 . S
C1206 C1205 1.366 . S
C1206 C1210 1.385 . S
C1207 H1182 0.951 . S
C1207 C1205 1.388 . S
C1207 C1208 1.366 . S
C1208 C1207 1.366 . S
C1208 C1209 1.414 . S
C1208 C1211 1.499 . S
C1209 H1183 0.950 . S
C1209 C1208 1.414 . S
C1209 C1210 1.374 . S
C1210 H1184 0.950 . S
C1210 C1206 1.385 . S
C1210 C1209 1.374 . S
C1211 C1208 1.499 . S
C1211 C1212 1.373 . S
C1211 C1213 1.389 . S
C1212 H1185 0.950 . S
C1212 C1198 1.377 . S
C1212 C1211 1.373 . S
C1213 C1197 1.377 . S
C1213 C1211 1.389 . S
C1213 C1214 1.524 . S
C1214 C1213 1.524 . S
C1214 C1215 1.397 . S
C1214 C1219 1.363 . S
C1215 H1186 0.950 . S
C1215 C1214 1.397 . S
C1215 C1216 1.334 . S
C1216 H1187 0.950 . S
C1216 C1215 1.334 . S
C1216 C1217 1.287 . S
C1217 C1216 1.287 . S
C1217 C1218 1.524 . S
C1217 H1220 0.999 . S
C1218 H1188 0.950 . S
C1218 C1217 1.524 . S
C1218 C1219 1.415 . S
C1219 H1189 0.950 . S
C1219 C1214 1.363 . S
C1219 C1218 1.415 . S
H1220 C1217 0.999 . S
H1221 C1202 0.913 . S
H1222 C1240 0.951 . S
H1223 C1242 0.951 . S
H1224 C1244 0.950 . S
H1225 C1245 0.950 . S
H1226 C1247 0.950 . S
H1227 C1250 0.950 . S
H1228 C1251 0.950 . S
H1229 C1253 0.950 . S
H1230 C1254 0.950 . S
H1231 C1255 0.951 . S
H1232 C1257 0.951 . S
H1233 C1259 0.950 . S
H1234 C1260 0.950 . S
H1235 C1262 0.950 . S
H1236 C1265 0.950 . S
H1237 C1266 0.950 . S
H1238 C1268 0.950 . S
H1239 C1269 0.950 . S
C1240 H1222 0.951 . S
C1240 C1241 1.366 . S
C1240 C1242 1.388 . S
C1241 C1240 1.366 . S
C1241 C1245 1.385 . S
C1242 H1223 0.951 . S
C1242 C1240 1.388 . S
C1242 C1243 1.366 . S
C1243 C1242 1.366 . S
C1243 C1244 1.414 . S
C1243 C1246 1.499 . S
C1244 H1224 0.950 . S
C1244 C1243 1.414 . S
C1244 C1245 1.374 . S
C1245 H1225 0.950 . S
C1245 C1241 1.385 . S
C1245 C1244 1.374 . S
C1246 C1243 1.499 . S
C1246 C1247 1.373 . S
C1246 C1248 1.389 . S
C1247 H1226 0.950 . S
C1247 C1246 1.373 . S
C1247 C1263 1.377 . S
C1248 C1246 1.389 . S
C1248 C1249 1.524 . S
C1248 C1262 1.377 . S
C1249 C1248 1.524 . S
C1249 C1250 1.397 . S
C1249 C1254 1.363 . S
C1250 H1227 0.950 . S
C1250 C1249 1.397 . S
C1250 C1251 1.334 . S
C1251 H1228 0.950 . S
C1251 C1250 1.334 . S
C1251 C1252 1.287 . S
C1252 C1251 1.287 . S
C1252 C1253 1.524 . S
C1252 H1271 0.913 . S
C1253 H1229 0.950 . S
C1253 C1252 1.524 . S
C1253 C1254 1.415 . S
C1254 H1230 0.950 . S
C1254 C1249 1.363 . S
C1254 C1253 1.415 . S
C1255 H1231 0.951 . S
C1255 C1256 1.366 . S
C1255 C1257 1.388 . S
C1256 C1255 1.366 . S
C1256 C1260 1.385 . S
C1257 H1232 0.951 . S
C1257 C1255 1.388 . S
C1257 C1258 1.366 . S
C1258 C1257 1.366 . S
C1258 C1259 1.414 . S
C1258 C1261 1.499 . S
C1259 H1233 0.950 . S
C1259 C1258 1.414 . S
C1259 C1260 1.374 . S
C1260 H1234 0.950 . S
C1260 C1256 1.385 . S
C1260 C1259 1.374 . S
C1261 C1258 1.499 . S
C1261 C1262 1.373 . S
C1261 C1263 1.389 . S
C1262 H1235 0.950 . S
C1262 C1248 1.377 . S
C1262 C1261 1.373 . S
C1263 C1247 1.377 . S
C1263 C1261 1.389 . S
C1263 C1264 1.524 . S
C1264 C1263 1.524 . S
C1264 C1265 1.397 . S
C1264 C1269 1.363 . S
C1265 H1236 0.950 . S
C1265 C1264 1.397 . S
C1265 C1266 1.334 . S
C1266 H1237 0.950 . S
C1266 C1265 1.334 . S
C1266 C1267 1.287 . S
C1267 C1266 1.287 . S
C1267 C1268 1.524 . S
C1267 H1270 0.999 . S
C1268 H1238 0.950 . S
C1268 C1267 1.524 . S
C1268 C1269 1.415 . S
C1269 H1239 0.950 . S
C1269 C1264 1.363 . S
C1269 C1268 1.415 . S
H1270 C1267 0.999 . S
H1271 C1252 0.913 . S
C291 C5 0.577 . S
C306 C141 0.577 . S
C341 C175 0.576 . S
C356 C39 0.576 . S
C391 C209 0.573 . S
C406 C73 0.573 . S
C441 C107 0.574 . S
C456 C243 0.574 . S
C491 C36 1.790 . S
C506 C2 1.791 . S
C541 C70 1.791 . S
C556 C104 1.790 . S
C591 C138 1.791 . S
C606 C172 1.790 . S
C641 C240 1.790 . S
C656 C206 1.791 . S
C691 C33 1.349 . S
C706 C190 1.300 . S
C741 C156 1.300 1_455 S
C756 C67 1.349 . S
C791 C258 1.300 . S
C806 C101 1.349 . S
C841 C224 1.301 1_455 S
C856 C135 1.348 . S
C891 C54 1.301 . S
C906 C169 1.349 . S
C941 C203 1.349 . S
C956 C20 1.300 1_655 S
C991 C237 1.349 . S
C1006 C122 1.301 . S
C1041 C88 1.301 1_655 S
C1056 C271 1.348 . S
C1091 C77 1.295 . S
C1106 C9 1.294 . S
C1141 C43 1.295 . S
C1156 C111 1.294 . S
C1191 C213 1.295 . S
C1206 C145 1.295 . S
C1241 C247 1.295 . S
C1256 C179 1.295 . S
