# Generated by pormake.
# Topology wme, (6)-cn, num edge types: 1
# Building blocks:
#     Node 0, Type 0, BuildingBlock: JUFBIX_clean_sbu_0, # of connection points: 6
#     Node 1, Type 0, BuildingBlock: JUFBIX_clean_sbu_0, # of connection points: 6
#     Node 2, Type 0, BuildingBlock: JUFBIX_clean_sbu_0, # of connection points: 6
#     Node 3, Type 0, BuildingBlock: JUFBIX_clean_sbu_0, # of connection points: 6
#     Node 4, Type 0, BuildingBlock: JUFBIX_clean_sbu_0, # of connection points: 6
#     Node 5, Type 0, BuildingBlock: JUFBIX_clean_sbu_0, # of connection points: 6
#     Node 6, Type 0, BuildingBlock: JUFBIX_clean_sbu_0, # of connection points: 6
#     Node 7, Type 0, BuildingBlock: JUFBIX_clean_sbu_0, # of connection points: 6
#     Node 8, Type 0, BuildingBlock: JUFBIX_clean_sbu_0, # of connection points: 6
#     Node 9, Type 0, BuildingBlock: JUFBIX_clean_sbu_0, # of connection points: 6
#     Node 10, Type 0, BuildingBlock: JUFBIX_clean_sbu_0, # of connection points: 6
#     Node 11, Type 0, BuildingBlock: JUFBIX_clean_sbu_0, # of connection points: 6
#     Edge 12, Type (0, 0), None
#     Edge 13, Type (0, 0), None
#     Edge 14, Type (0, 0), None
#     Edge 15, Type (0, 0), None
#     Edge 16, Type (0, 0), None
#     Edge 17, Type (0, 0), None
#     Edge 18, Type (0, 0), None
#     Edge 19, Type (0, 0), None
#     Edge 20, Type (0, 0), None
#     Edge 21, Type (0, 0), None
#     Edge 22, Type (0, 0), None
#     Edge 23, Type (0, 0), None
#     Edge 24, Type (0, 0), None
#     Edge 25, Type (0, 0), None
#     Edge 26, Type (0, 0), None
#     Edge 27, Type (0, 0), None
#     Edge 28, Type (0, 0), None
#     Edge 29, Type (0, 0), None
#     Edge 30, Type (0, 0), None
#     Edge 31, Type (0, 0), None
#     Edge 32, Type (0, 0), None
#     Edge 33, Type (0, 0), None
#     Edge 34, Type (0, 0), None
#     Edge 35, Type (0, 0), None
#     Edge 36, Type (0, 0), None
#     Edge 37, Type (0, 0), None
#     Edge 38, Type (0, 0), None
#     Edge 39, Type (0, 0), None
#     Edge 40, Type (0, 0), None
#     Edge 41, Type (0, 0), None
#     Edge 42, Type (0, 0), None
#     Edge 43, Type (0, 0), None
#     Edge 44, Type (0, 0), None
#     Edge 45, Type (0, 0), None
#     Edge 46, Type (0, 0), None
#     Edge 47, Type (0, 0), None
# Relax obj value: 0.363
# Max RMSD: 0.256
# Mean RMSD: 0.256
data_MOF--net-wme--node1-JUFBIX_clean_sbu_0--edge1-none
_symmetry_space_group_name_H-M    P1
_symmetry_Int_Tables_number       1
_symmetry_cell_setting            triclinic
loop_
_symmetry_equiv_pos_as_xyz
'x, y, z'
_cell_length_a     16.690197
_cell_length_b     16.689573
_cell_length_c     22.800189
_cell_angle_alpha  90.000392
_cell_angle_beta   89.999718
_cell_angle_gamma 120.00092
loop_
_atom_site_label
_atom_site_type_symbol
_atom_site_fract_x
_atom_site_fract_y
_atom_site_fract_z
_atom_type_partial_charge
Co0 Co 0.2222 0.39496 0.13261 0.0
C1 C 0.25454 0.28092 0.05272 0.0
Co2 Co 0.28044 0.3177 0.17145 0.0
C3 C 0.19907 0.55884 0.11776 0.0
C4 C 0.0762 0.43375 0.0963 0.0
N5 N 0.168 0.46787 0.10599 0.0
N6 N 0.13045 0.58073 0.11762 0.0
C7 C 0.05305 0.50171 0.10443 0.0
H8 H 0.26904 0.60621 0.13213 0.0
H9 H 1.02638 0.36227 0.08705 0.0
C10 C 0.25998 0.42147 0.25469 0.0
N11 N 0.31417 0.23503 0.2061 0.0
C12 C 0.30847 0.162 0.17586 0.0
C13 C 0.26917 0.19582 0.25673 0.0
N14 N 0.24843 0.08004 0.20076 0.0
C15 C 0.22457 0.10113 0.25206 0.0
C16 C 0.41474 0.48976 0.12987 0.0
O17 O 0.21106 0.43066 0.21471 0.0
O18 O 0.30648 0.38357 0.24109 0.0
O19 O 0.40534 0.41003 0.14303 0.0
O20 O 0.34316 0.49821 0.12803 0.0
O21 O 0.25653 0.24901 0.10191 0.0
H22 H 0.25011 0.23096 0.28864 0.0
H23 H 0.33476 0.16748 0.13172 0.0
O24 O 0.24167 0.35167 0.05184 0.0
O25 O 0.10036 0.29251 0.13705 0.0
O26 O 0.15504 0.23526 0.19966 0.0
C27 C 0.08589 0.23603 0.1776 0.0
H28 H 0.98457 0.49337 0.10093 0.0
H29 H 0.1728 0.05185 0.28178 0.0
Co30 Co 0.8951 0.16005 0.65146 0.0
C31 C 0.85005 0.23505 0.75032 0.0
Co32 Co 0.93457 0.3025 0.64965 0.0
C33 C 0.87416 0.97666 0.67938 0.0
C34 C 0.74889 0.98064 0.67614 0.0
N35 N 0.84138 0.03362 0.66669 0.0
N36 N 0.80505 0.8903 0.69322 0.0
C37 C 0.7262 0.89249 0.69063 0.0
H38 H 0.94656 0.99689 0.67591 0.0
H39 H 0.70019 1.00504 0.67478 0.0
C40 C 1.00888 0.24689 0.55776 0.0
N41 N 0.96387 0.42313 0.63508 0.0
C42 C 0.9021 0.45295 0.63068 0.0
C43 C 1.04475 0.49494 0.61689 0.0
N44 N 0.94051 0.53966 0.60968 0.0
C45 C 1.03088 0.56716 0.60217 0.0
C46 C 0.06487 0.26709 0.69387 0.0
O47 O 0.97288 0.16682 0.58245 0.0
O48 O 0.97728 0.29954 0.5724 0.0
O49 O 0.05506 0.33475 0.67644 0.0
O50 O 0.9953 0.18646 0.69684 0.0
O51 O 0.90204 0.31229 0.72678 0.0
H52 H 0.10895 0.49411 0.61324 0.0
H53 H 0.83032 0.41276 0.64384 0.0
O54 O 0.82957 0.16205 0.72153 0.0
O55 O 0.79198 0.1283 0.60342 0.0
O56 O 0.80848 0.26158 0.625 0.0
C57 C 0.75662 0.17893 0.60818 0.0
H58 H 0.65742 0.83442 0.69812 0.0
H59 H 0.08367 0.63516 0.58774 0.0
Co60 Co 0.68484 0.84323 0.13261 0.0
C61 C 0.79886 0.98958 0.05271 0.0
Co62 Co 0.76209 0.97873 0.17144 0.0
C63 C 0.52096 0.65622 0.11777 0.0
C64 C 0.64603 0.65842 0.09631 0.0
N65 N 0.61193 0.71611 0.106 0.0
N66 N 0.49906 0.5657 0.11764 0.0
C67 C 0.57808 0.56732 0.10444 0.0
H68 H 0.4736 0.67883 0.13214 0.0
H69 H 0.71751 0.68009 0.08706 0.0
C70 C 0.65833 0.85452 0.2547 0.0
N71 N 0.84477 0.09515 0.20608 0.0
C72 C 0.91781 0.16246 0.17584 0.0
C73 C 0.88398 0.08936 0.25671 0.0
N74 N 0.99976 0.18432 0.20072 0.0
C75 C 0.97867 0.13941 0.25203 0.0
C76 C 0.59004 0.94097 0.12986 0.0
O77 O 0.64914 0.7964 0.21472 0.0
O78 O 0.69623 0.93891 0.24108 0.0
O79 O 0.66976 1.01131 0.14301 0.0
O80 O 0.58159 0.86094 0.12803 0.0
O81 O 0.83078 1.0235 0.1019 0.0
H82 H 0.84882 0.03517 0.28863 0.0
H83 H 0.91233 0.18328 0.1317 0.0
O84 O 0.72812 0.90596 0.05184 0.0
O85 O 0.78728 0.82382 0.13705 0.0
O86 O 0.84453 0.93578 0.19966 0.0
C87 C 0.84376 0.86584 0.17761 0.0
H88 H 0.5864 0.50717 0.10093 0.0
H89 H 1.02794 0.13692 0.28176 0.0
Co90 Co 0.91975 0.75106 0.65148 0.0
C91 C 0.84475 0.63098 0.75033 0.0
Co92 Co 0.77727 0.64808 0.64967 0.0
C93 C 0.10313 0.9135 0.67938 0.0
C94 C 0.09915 0.78425 0.67613 0.0
N95 N 1.04616 0.82376 0.66669 0.0
N96 N 0.18948 0.93074 0.69321 0.0
C97 C 0.18729 0.8497 0.69062 0.0
H98 H 0.08289 0.96567 0.67592 0.0
H99 H 0.07474 0.71114 0.67476 0.0
C100 C 0.83287 0.77802 0.55779 0.0
N101 N 0.65664 0.55676 0.63511 0.0
C102 C 0.62683 0.46516 0.63071 0.0
C103 C 0.58483 0.56583 0.61693 0.0
N104 N 0.54012 0.41686 0.6097 0.0
C105 C 0.51262 0.47973 0.60221 0.0
C106 C 0.81274 0.8138 0.69394 0.0
O107 O 0.91295 0.82208 0.58247 0.0
O108 O 0.78021 0.69377 0.57243 0.0
O109 O 0.74506 0.73634 0.6765 0.0
O110 O 0.89337 0.82486 0.69687 0.0
O111 O 0.76752 0.60575 0.7268 0.0
H112 H 0.58566 0.63086 0.61328 0.0
H113 H 0.66702 0.43358 0.64386 0.0
O114 O 0.91775 0.68352 0.72154 0.0
O115 O 0.95147 0.67968 0.60342 0.0
O116 O 0.81817 0.5629 0.62499 0.0
C117 C 0.90081 0.59369 0.60816 0.0
H118 H 0.24536 0.83899 0.6981 0.0
H119 H 0.44462 0.46452 0.58778 0.0
Co120 Co 0.23657 0.85761 0.13261 0.0
C121 C 0.09021 0.82528 0.05272 0.0
Co122 Co 0.10107 0.79936 0.17144 0.0
C123 C 0.42358 0.88073 0.11777 0.0
C124 C 0.42137 1.0036 0.09629 0.0
N125 N 0.36368 0.9118 0.10599 0.0
N126 N 0.51409 0.94935 0.11763 0.0
C127 C 0.51247 1.02674 0.10443 0.0
H128 H 0.40097 0.81076 0.13215 0.0
H129 H 0.39971 0.05341 0.08703 0.0
C130 C 0.22528 0.81981 0.25469 0.0
N131 N 0.98466 0.76563 0.20609 0.0
C132 C 0.91735 0.77135 0.17585 0.0
C133 C 0.99044 0.81062 0.25672 0.0
N134 N 0.89547 0.83142 0.20074 0.0
C135 C 0.94037 0.85524 0.25204 0.0
C136 C 0.13882 0.66506 0.12986 0.0
O137 O 0.2834 0.86873 0.21471 0.0
O138 O 0.1409 0.77331 0.24108 0.0
O139 O 0.06849 0.67445 0.14301 0.0
O140 O 0.21885 0.73664 0.12802 0.0
O141 O 0.0563 0.82328 0.10191 0.0
H142 H 1.04463 0.82966 0.28864 0.0
H143 H 0.89654 0.74505 0.1317 0.0
O144 O 0.17382 0.83815 0.05184 0.0
O145 O 0.25599 0.97945 0.13705 0.0
O146 O 0.14403 0.92476 0.19966 0.0
C147 C 0.21398 0.99391 0.17761 0.0
H148 H 0.57262 0.09522 0.1009 0.0
H149 H 0.94285 0.90699 0.28178 0.0
Co150 Co 0.32874 0.18469 0.65147 0.0
C151 C 0.4488 0.22977 0.75033 0.0
Co152 Co 0.4317 0.14519 0.64967 0.0
C153 C 0.16629 0.20564 0.67928 0.0
C154 C 0.29558 0.33091 0.67615 0.0
N155 N 0.25606 0.23842 0.66668 0.0
N156 N 0.14906 0.27478 0.69304 0.0
C157 C 0.23011 0.35362 0.69057 0.0
H158 H 0.11412 0.13325 0.67579 0.0
H159 H 0.3687 0.3796 0.67485 0.0
C160 C 0.30178 0.07086 0.55778 0.0
N161 N 0.52299 0.11585 0.63512 0.0
C162 C 0.61459 0.17762 0.63076 0.0
C163 C 0.51391 0.03498 0.6169 0.0
N164 N 0.66289 0.13918 0.60981 0.0
C165 C 0.60001 0.04883 0.60222 0.0
C166 C 0.26598 1.01494 0.69394 0.0
O167 O 0.25772 0.10688 0.58247 0.0
O168 O 0.38602 0.10245 0.57243 0.0
O169 O 0.34343 1.02471 0.67649 0.0
O170 O 0.25493 0.08451 0.69687 0.0
O171 O 0.47402 0.17775 0.72679 0.0
H172 H 0.44887 0.9708 0.6132 0.0
H173 H 0.64618 0.2494 0.64392 0.0
O174 O 0.39627 0.25024 0.72154 0.0
O175 O 0.40012 0.28779 0.60342 0.0
O176 O 0.51689 0.27127 0.62499 0.0
C177 C 0.48611 0.32313 0.60817 0.0
H178 H 0.24082 0.4224 0.69809 0.0
H179 H 0.61521 0.99605 0.58775 0.0
Co180 Co 0.76693 0.90467 0.42366 0.0
C181 C 0.65609 0.83553 0.31825 0.0
Co182 Co 0.66495 0.76277 0.41841 0.0
C183 C 0.92878 0.0868 0.40025 0.0
C184 C 0.7999 0.08411 0.40122 0.0
N185 N 0.83857 1.03051 0.41113 0.0
N186 N 0.94676 0.17289 0.38563 0.0
C187 C 0.8663 0.17201 0.38732 0.0
H188 H 0.98016 0.06551 0.40362 0.0
H189 H 0.72686 0.05992 0.40055 0.0
C190 C 0.79208 0.81842 0.51524 0.0
N191 N 0.57353 0.64221 0.43186 0.0
C192 C 0.48184 0.61211 0.43524 0.0
C193 C 0.583 0.57204 0.45297 0.0
N194 N 0.434 0.52707 0.45875 0.0
C195 C 0.49714 0.50066 0.46868 0.0
C196 C 0.8317 0.79901 0.38174 0.0
O197 O 0.8355 0.89984 0.49313 0.0
O198 O 0.70915 0.76464 0.4976 0.0
O199 O 0.75227 0.73038 0.39423 0.0
O200 O 0.84393 0.88025 0.38038 0.0
O201 O 0.62629 0.75522 0.33865 0.0
H202 H 0.64827 0.57388 0.4585 0.0
H203 H 0.45009 0.65134 0.42036 0.0
O204 O 0.70393 0.90431 0.35179 0.0
O205 O 0.69188 0.93349 0.46998 0.0
O206 O 0.5783 0.8028 0.44132 0.0
C207 C 0.60675 0.88343 0.46116 0.0
H208 H 0.85639 0.23017 0.3782 0.0
H209 H 0.48225 0.43382 0.48527 0.0
Co210 Co 0.89829 0.75073 0.91217 0.0
C211 C 0.85185 0.63035 0.81401 0.0
Co212 Co 0.94022 0.64856 0.91404 0.0
C213 C 0.87437 0.91291 0.88363 0.0
C214 C 0.7509 0.78243 0.88754 0.0
N215 N 0.84366 0.82353 0.89678 0.0
N216 N 0.80379 0.92817 0.86969 0.0
C217 C 0.72613 0.84625 0.8727 0.0
H218 H 0.94641 0.96622 0.88659 0.0
H219 H 0.70329 0.7091 0.88907 0.0
C220 C 1.01982 0.78256 1.00358 0.0
N221 N 0.9667 0.55455 0.92848 0.0
C222 C 0.90302 0.46311 0.93291 0.0
C223 C 1.0459 0.56163 0.94831 0.0
N224 N 0.93876 0.41311 0.95544 0.0
C225 C 1.02928 0.47489 0.96403 0.0
C226 C 0.06825 0.81376 0.86828 0.0
O227 O 0.97696 0.82135 0.98051 0.0
O228 O 0.99024 0.69792 0.99055 0.0
O229 O 0.05991 0.73625 0.88486 0.0
O230 O 0.99778 0.8235 0.86596 0.0
O231 O 0.90365 0.6047 0.83738 0.0
H232 H 0.11085 0.62582 0.9524 0.0
H233 H 0.83182 0.43296 0.91874 0.0
O234 O 0.83164 0.68286 0.8429 0.0
O235 O 0.79643 0.68105 0.96114 0.0
O236 O 0.81296 0.56409 0.94089 0.0
C237 C 0.76082 0.59506 0.95711 0.0
H238 H 0.65672 0.83377 0.86519 0.0
H239 H 0.08089 0.45838 0.97885 0.0
Co240 Co 0.17514 0.87828 0.42364 0.0
C241 C 0.24427 0.83656 0.31825 0.0
Co242 Co 0.31703 0.9182 0.4184 0.0
C243 C 0.99299 0.85798 0.4003 0.0
C244 C 0.99572 0.7318 0.40118 0.0
N245 N 0.04931 0.82407 0.41112 0.0
N246 N 0.90689 0.78985 0.38573 0.0
C247 C 0.9078 0.71028 0.38734 0.0
H248 H 1.01427 0.93064 0.40369 0.0
H249 H 1.01994 0.68297 0.40046 0.0
C250 C 0.26138 0.98968 0.51523 0.0
N251 N 0.43758 0.94736 0.43184 0.0
C252 C 0.46771 0.88579 0.43519 0.0
C253 C 0.50773 1.027 0.45298 0.0
N254 N 0.55278 0.92302 0.45866 0.0
C255 C 0.57914 1.01255 0.46866 0.0
C256 C 0.28079 0.04871 0.38173 0.0
O257 O 0.17996 0.95169 0.49311 0.0
O258 O 0.31516 0.96053 0.49759 0.0
O259 O 0.34941 0.0379 0.39422 0.0
O260 O 0.19955 0.97969 0.38036 0.0
O261 O 0.32459 0.88708 0.33864 0.0
H262 H 0.50585 0.09041 0.45856 0.0
H263 H 0.42847 0.8148 0.42031 0.0
O264 O 0.1755 0.81564 0.35178 0.0
O265 O 0.14632 0.77442 0.46996 0.0
O266 O 0.27701 0.79152 0.44131 0.0
C267 C 0.19637 0.73934 0.46115 0.0
H268 H 0.84965 0.64222 0.37819 0.0
H269 H 0.64594 0.06448 0.48529 0.0
Co270 Co 0.32909 0.16356 0.91217 0.0
C271 C 0.44944 0.2375 0.81401 0.0
Co272 Co 0.43124 0.30765 0.91404 0.0
C273 C 0.1669 0.97745 0.88372 0.0
C274 C 0.2974 0.98449 0.88752 0.0
N275 N 0.25629 0.03613 0.8968 0.0
N276 N 0.15165 0.89159 0.86984 0.0
C277 C 0.23358 0.89587 0.87274 0.0
H278 H 0.11358 0.99616 0.8867 0.0
H279 H 0.37074 1.01024 0.88899 0.0
C280 C 0.29726 0.25326 1.00358 0.0
N281 N 0.52523 0.42815 0.92847 0.0
C282 C 0.61667 0.45592 0.93286 0.0
C283 C 0.51814 0.50027 0.94833 0.0
N284 N 0.66667 0.5417 0.95534 0.0
C285 C 0.60488 0.5704 0.96401 0.0
C286 C 0.26604 0.27048 0.86829 0.0
O287 O 0.25847 0.1716 0.98052 0.0
O288 O 0.3819 0.30831 0.99056 0.0
O289 O 0.34355 0.33966 0.88487 0.0
O290 O 0.2563 0.19027 0.86597 0.0
O291 O 0.47509 0.31495 0.83738 0.0
H292 H 0.45394 0.50099 0.95246 0.0
H293 H 0.64682 0.41487 0.9187 0.0
O294 O 0.39694 0.16478 0.8429 0.0
O295 O 0.39877 0.13138 0.96113 0.0
O296 O 0.51572 0.26487 0.94088 0.0
C297 C 0.48475 0.18175 0.9571 0.0
H298 H 0.24605 0.83895 0.86519 0.0
H299 H 0.62138 0.63851 0.97887 0.0
Co300 Co 0.20151 0.31286 0.42364 0.0
C301 C 0.24324 0.42372 0.31825 0.0
Co302 Co 0.16158 0.41484 0.41839 0.0
C303 C 0.22182 0.15103 0.4003 0.0
C304 C 0.348 0.27993 0.40119 0.0
N305 N 0.25573 0.24125 0.41113 0.0
N306 N 0.28994 0.13305 0.38573 0.0
C307 C 0.36951 0.21353 0.38734 0.0
H308 H 0.14916 0.09964 0.40368 0.0
H309 H 0.39682 0.35298 0.40048 0.0
C310 C 0.09007 0.28769 0.51522 0.0
N311 N 0.13242 0.50623 0.43183 0.0
C312 C 0.19399 0.59793 0.43518 0.0
C313 C 0.05278 0.49674 0.45295 0.0
N314 N 0.15677 0.64577 0.45864 0.0
C315 C 0.06724 0.58261 0.46863 0.0
C316 C 1.03111 0.24809 0.38169 0.0
O317 O 0.12809 0.24428 0.49311 0.0
O318 O 0.11923 0.37063 0.49758 0.0
O319 O 1.04189 0.3275 0.3942 0.0
O320 O 0.10012 0.23585 0.38035 0.0
O321 O 0.19272 0.45351 0.33864 0.0
H322 H 0.98937 0.43146 0.45852 0.0
H323 H 0.26498 0.62968 0.4203 0.0
O324 O 0.26417 0.37588 0.35178 0.0
O325 O 0.30537 0.38791 0.46997 0.0
O326 O 0.28826 0.50151 0.44133 0.0
C327 C 0.34042 0.47305 0.46117 0.0
H328 H 0.43758 0.22345 0.37819 0.0
H329 H 1.01531 0.5975 0.48525 0.0
Co330 Co 0.91625 0.18152 0.91216 0.0
C331 C 0.84232 0.22795 0.814 0.0
Co332 Co 0.77215 0.13956 0.91403 0.0
C333 C 0.10236 0.20545 0.88372 0.0
C334 C 0.09532 0.32892 0.88754 0.0
N335 N 1.04368 0.23617 0.8968 0.0
N336 N 0.18821 0.27606 0.86986 0.0
C337 C 0.18394 0.35371 0.87276 0.0
H338 H 0.08364 0.13341 0.8867 0.0
H339 H 0.06958 0.37652 0.88901 0.0
C340 C 0.82653 0.05997 1.00357 0.0
N341 N 0.65164 0.11304 0.92844 0.0
C342 C 0.62387 0.17672 0.93283 0.0
C343 C 0.57952 0.03384 0.9483 0.0
N344 N 0.5381 0.14095 0.95531 0.0
C345 C 0.50939 0.05045 0.96399 0.0
C346 C 0.80936 1.01158 0.86823 0.0
O347 O 0.90819 0.10285 0.98051 0.0
O348 O 0.77146 0.08952 0.99053 0.0
O349 O 0.74016 1.01986 0.88483 0.0
O350 O 0.88957 0.08204 0.86595 0.0
O351 O 0.76488 0.17615 0.83737 0.0
H352 H 0.57879 0.96891 0.95244 0.0
H353 H 0.66493 0.24792 0.91867 0.0
O354 O 0.91504 0.24817 0.84289 0.0
O355 O 0.94841 0.28338 0.96112 0.0
O356 O 0.8149 0.26681 0.9409 0.0
C357 C 0.89801 0.31896 0.95711 0.0
H358 H 0.24086 0.42311 0.86521 0.0
H359 H 0.44128 0.99885 0.97885 0.0
loop_
_geom_bond_atom_site_label_1
_geom_bond_atom_site_label_2
_geom_bond_distance
_geom_bond_site_symmetry_2
_ccdc_geom_bond_type
Co0 N5 2.057 . S
Co0 O17 2.021 . S
Co0 O20 2.062 . S
Co0 O24 2.117 . S
Co0 O25 2.020 . S
C1 O21 1.259 . S
C1 O24 1.258 . S
Co2 N11 2.057 . S
Co2 O18 2.117 . S
Co2 O19 2.020 . S
Co2 O21 2.021 . S
Co2 O26 2.062 . S
C3 N5 1.316 . S
C3 N6 1.347 . S
C3 H8 0.931 . S
C4 N5 1.375 . S
C4 C7 1.350 . S
C4 H9 0.930 1_554 S
N5 Co0 2.057 . S
N5 C3 1.316 . S
N5 C4 1.375 . S
N6 C3 1.347 . S
N6 C7 1.373 . S
C7 C4 1.350 . S
C7 N6 1.373 . S
C7 H28 0.931 1_554 S
H8 C3 0.931 . S
H9 C4 0.930 1_556 S
C10 O17 1.259 . S
C10 O18 1.258 . S
N11 Co2 2.057 . S
N11 C12 1.316 . S
N11 C13 1.375 . S
C12 N11 1.316 . S
C12 N14 1.347 . S
C12 H23 0.931 . S
C13 N11 1.375 . S
C13 C15 1.350 . S
C13 H22 0.930 . S
N14 C12 1.347 . S
N14 C15 1.373 . S
C15 C13 1.350 . S
C15 N14 1.373 . S
C15 H29 0.931 . S
C16 O19 1.256 . S
C16 O20 1.255 . S
O17 Co0 2.021 . S
O17 C10 1.259 . S
O18 Co2 2.117 . S
O18 C10 1.258 . S
O19 Co2 2.020 . S
O19 C16 1.256 . S
O20 Co0 2.062 . S
O20 C16 1.255 . S
O21 C1 1.259 . S
O21 Co2 2.021 . S
H22 C13 0.930 . S
H23 C12 0.931 . S
O24 Co0 2.117 . S
O24 C1 1.258 . S
O25 Co0 2.020 . S
O25 C27 1.256 . S
O26 Co2 2.062 . S
O26 C27 1.255 . S
C27 O25 1.256 . S
C27 O26 1.255 . S
H28 C7 0.931 1_556 S
H29 C15 0.931 . S
Co30 N35 2.057 1_545 S
Co30 O47 2.021 . S
Co30 O50 2.062 . S
Co30 O54 2.117 . S
Co30 O55 2.020 . S
C31 O51 1.259 . S
C31 O54 1.258 . S
Co32 N41 2.057 . S
Co32 O48 2.117 . S
Co32 O49 2.020 1_655 S
Co32 O51 2.021 . S
Co32 O56 2.062 . S
C33 N35 1.316 . S
C33 N36 1.347 . S
C33 H38 0.931 . S
C34 N35 1.375 . S
C34 C37 1.350 . S
C34 H39 0.930 . S
N35 Co30 2.057 1_565 S
N35 C33 1.316 . S
N35 C34 1.375 . S
N36 C33 1.347 . S
N36 C37 1.373 . S
C37 C34 1.350 . S
C37 N36 1.373 . S
C37 H58 0.931 . S
H38 C33 0.931 . S
H39 C34 0.930 . S
C40 O47 1.259 . S
C40 O48 1.258 . S
N41 Co32 2.057 . S
N41 C42 1.316 . S
N41 C43 1.375 . S
C42 N41 1.316 . S
C42 N44 1.347 . S
C42 H53 0.931 . S
C43 N41 1.375 . S
C43 C45 1.350 . S
C43 H52 0.930 . S
N44 C42 1.347 . S
N44 C45 1.373 . S
C45 C43 1.350 . S
C45 N44 1.373 . S
C45 H59 0.931 . S
C46 O49 1.256 . S
C46 O50 1.255 1_455 S
O47 Co30 2.021 . S
O47 C40 1.259 . S
O48 Co32 2.117 . S
O48 C40 1.258 . S
O49 Co32 2.020 1_455 S
O49 C46 1.256 . S
O50 Co30 2.062 . S
O50 C46 1.255 1_655 S
O51 C31 1.259 . S
O51 Co32 2.021 . S
H52 C43 0.930 . S
H53 C42 0.931 . S
O54 Co30 2.117 . S
O54 C31 1.258 . S
O55 Co30 2.020 . S
O55 C57 1.256 . S
O56 Co32 2.062 . S
O56 C57 1.255 . S
C57 O55 1.256 . S
C57 O56 1.255 . S
H58 C37 0.931 . S
H59 C45 0.931 . S
Co60 N65 2.057 . S
Co60 O77 2.021 . S
Co60 O80 2.062 . S
Co60 O84 2.117 . S
Co60 O85 2.020 . S
C61 O81 1.259 . S
C61 O84 1.258 . S
Co62 N71 2.057 1_565 S
Co62 O78 2.117 . S
Co62 O79 2.020 . S
Co62 O81 2.021 . S
Co62 O86 2.062 . S
C63 N65 1.316 . S
C63 N66 1.347 . S
C63 H68 0.931 . S
C64 N65 1.375 . S
C64 C67 1.350 . S
C64 H69 0.930 1_554 S
N65 Co60 2.057 . S
N65 C63 1.316 . S
N65 C64 1.375 . S
N66 C63 1.347 . S
N66 C67 1.373 . S
C67 C64 1.350 . S
C67 N66 1.373 . S
C67 H88 0.931 1_554 S
H68 C63 0.931 . S
H69 C64 0.930 1_556 S
C70 O77 1.259 . S
C70 O78 1.258 . S
N71 Co62 2.057 1_545 S
N71 C72 1.316 . S
N71 C73 1.375 . S
C72 N71 1.316 . S
C72 N74 1.347 . S
C72 H83 0.931 . S
C73 N71 1.375 . S
C73 C75 1.350 . S
C73 H82 0.930 . S
N74 C72 1.347 . S
N74 C75 1.373 . S
C75 C73 1.350 . S
C75 N74 1.373 . S
C75 H89 0.931 . S
C76 O79 1.256 . S
C76 O80 1.255 . S
O77 Co60 2.021 . S
O77 C70 1.259 . S
O78 Co62 2.117 . S
O78 C70 1.258 . S
O79 Co62 2.020 . S
O79 C76 1.256 . S
O80 Co60 2.062 . S
O80 C76 1.255 . S
O81 C61 1.259 . S
O81 Co62 2.021 . S
H82 C73 0.930 . S
H83 C72 0.931 . S
O84 Co60 2.117 . S
O84 C61 1.258 . S
O85 Co60 2.020 . S
O85 C87 1.256 . S
O86 Co62 2.062 . S
O86 C87 1.255 . S
C87 O85 1.256 . S
C87 O86 1.255 . S
H88 C67 0.931 1_556 S
H89 C75 0.931 . S
Co90 N95 2.057 1_655 S
Co90 O107 2.021 . S
Co90 O110 2.062 . S
Co90 O114 2.117 . S
Co90 O115 2.020 . S
C91 O111 1.259 . S
C91 O114 1.258 . S
Co92 N101 2.057 . S
Co92 O108 2.117 . S
Co92 O109 2.020 . S
Co92 O111 2.021 . S
Co92 O116 2.062 . S
C93 N95 1.316 . S
C93 N96 1.347 . S
C93 H98 0.931 . S
C94 N95 1.375 . S
C94 C97 1.350 . S
C94 H99 0.930 . S
N95 Co90 2.057 1_455 S
N95 C93 1.316 . S
N95 C94 1.375 . S
N96 C93 1.347 . S
N96 C97 1.373 . S
C97 C94 1.350 . S
C97 N96 1.373 . S
C97 H118 0.931 . S
H98 C93 0.931 . S
H99 C94 0.930 . S
C100 O107 1.259 . S
C100 O108 1.258 . S
N101 Co92 2.057 . S
N101 C102 1.316 . S
N101 C103 1.375 . S
C102 N101 1.316 . S
C102 N104 1.347 . S
C102 H113 0.931 . S
C103 N101 1.375 . S
C103 C105 1.350 . S
C103 H112 0.930 . S
N104 C102 1.347 . S
N104 C105 1.373 . S
C105 C103 1.350 . S
C105 N104 1.373 . S
C105 H119 0.931 . S
C106 O109 1.256 . S
C106 O110 1.255 . S
O107 Co90 2.021 . S
O107 C100 1.259 . S
O108 Co92 2.117 . S
O108 C100 1.258 . S
O109 Co92 2.020 . S
O109 C106 1.256 . S
O110 Co90 2.062 . S
O110 C106 1.255 . S
O111 C91 1.259 . S
O111 Co92 2.021 . S
H112 C103 0.930 . S
H113 C102 0.931 . S
O114 Co90 2.117 . S
O114 C91 1.258 . S
O115 Co90 2.020 . S
O115 C117 1.256 . S
O116 Co92 2.062 . S
O116 C117 1.255 . S
C117 O115 1.256 . S
C117 O116 1.255 . S
H118 C97 0.931 . S
H119 C105 0.931 . S
Co120 N125 2.057 . S
Co120 O137 2.021 . S
Co120 O140 2.062 . S
Co120 O144 2.117 . S
Co120 O145 2.020 . S
C121 O141 1.259 . S
C121 O144 1.258 . S
Co122 N131 2.057 1_455 S
Co122 O138 2.117 . S
Co122 O139 2.020 . S
Co122 O141 2.021 . S
Co122 O146 2.062 . S
C123 N125 1.316 . S
C123 N126 1.347 . S
C123 H128 0.931 . S
C124 N125 1.375 . S
C124 C127 1.350 . S
C124 H129 0.930 1_554 S
N125 Co120 2.057 . S
N125 C123 1.316 . S
N125 C124 1.375 . S
N126 C123 1.347 . S
N126 C127 1.373 . S
C127 C124 1.350 . S
C127 N126 1.373 . S
C127 H148 0.931 1_554 S
H128 C123 0.931 . S
H129 C124 0.930 1_556 S
C130 O137 1.259 . S
C130 O138 1.258 . S
N131 Co122 2.057 1_655 S
N131 C132 1.316 . S
N131 C133 1.375 . S
C132 N131 1.316 . S
C132 N134 1.347 . S
C132 H143 0.931 . S
C133 N131 1.375 . S
C133 C135 1.350 . S
C133 H142 0.930 . S
N134 C132 1.347 . S
N134 C135 1.373 . S
C135 C133 1.350 . S
C135 N134 1.373 . S
C135 H149 0.931 . S
C136 O139 1.256 . S
C136 O140 1.255 . S
O137 Co120 2.021 . S
O137 C130 1.259 . S
O138 Co122 2.117 . S
O138 C130 1.258 . S
O139 Co122 2.020 . S
O139 C136 1.256 . S
O140 Co120 2.062 . S
O140 C136 1.255 . S
O141 C121 1.259 . S
O141 Co122 2.021 . S
H142 C133 0.930 . S
H143 C132 0.931 . S
O144 Co120 2.117 . S
O144 C121 1.258 . S
O145 Co120 2.020 . S
O145 C147 1.256 . S
O146 Co122 2.062 . S
O146 C147 1.255 . S
C147 O145 1.256 . S
C147 O146 1.255 . S
H148 C127 0.931 1_556 S
H149 C135 0.931 . S
Co150 N155 2.057 . S
Co150 O167 2.021 . S
Co150 O170 2.062 . S
Co150 O174 2.117 . S
Co150 O175 2.020 . S
C151 O171 1.259 . S
C151 O174 1.258 . S
Co152 N161 2.057 . S
Co152 O168 2.117 . S
Co152 O169 2.020 1_545 S
Co152 O171 2.021 . S
Co152 O176 2.062 . S
C153 N155 1.316 . S
C153 N156 1.347 . S
C153 H158 0.931 . S
C154 N155 1.375 . S
C154 C157 1.350 . S
C154 H159 0.930 . S
N155 Co150 2.057 . S
N155 C153 1.316 . S
N155 C154 1.375 . S
N156 C153 1.347 . S
N156 C157 1.373 . S
C157 C154 1.350 . S
C157 N156 1.373 . S
C157 H178 0.931 . S
H158 C153 0.931 . S
H159 C154 0.930 . S
C160 O167 1.259 . S
C160 O168 1.258 . S
N161 Co152 2.057 . S
N161 C162 1.316 . S
N161 C163 1.375 . S
C162 N161 1.316 . S
C162 N164 1.347 . S
C162 H173 0.931 . S
C163 N161 1.375 . S
C163 C165 1.350 . S
C163 H172 0.930 . S
N164 C162 1.347 . S
N164 C165 1.373 . S
C165 C163 1.350 . S
C165 N164 1.373 . S
C165 H179 0.931 . S
C166 O169 1.256 . S
C166 O170 1.255 1_565 S
O167 Co150 2.021 . S
O167 C160 1.259 . S
O168 Co152 2.117 . S
O168 C160 1.258 . S
O169 Co152 2.020 1_565 S
O169 C166 1.256 . S
O170 Co150 2.062 . S
O170 C166 1.255 1_545 S
O171 C151 1.259 . S
O171 Co152 2.021 . S
H172 C163 0.930 . S
H173 C162 0.931 . S
O174 Co150 2.117 . S
O174 C151 1.258 . S
O175 Co150 2.020 . S
O175 C177 1.256 . S
O176 Co152 2.062 . S
O176 C177 1.255 . S
C177 O175 1.256 . S
C177 O176 1.255 . S
H178 C157 0.931 . S
H179 C165 0.931 . S
Co180 N185 2.057 1_565 S
Co180 O197 2.021 . S
Co180 O200 2.062 . S
Co180 O204 2.117 . S
Co180 O205 2.020 . S
C181 O201 1.259 . S
C181 O204 1.258 . S
Co182 N191 2.057 . S
Co182 O198 2.117 . S
Co182 O199 2.020 . S
Co182 O201 2.021 . S
Co182 O206 2.062 . S
C183 N185 1.316 . S
C183 N186 1.347 . S
C183 H188 0.931 . S
C184 N185 1.375 . S
C184 C187 1.350 . S
C184 H189 0.930 . S
N185 Co180 2.057 1_545 S
N185 C183 1.316 . S
N185 C184 1.375 . S
N186 C183 1.347 . S
N186 C187 1.373 . S
C187 C184 1.350 . S
C187 N186 1.373 . S
C187 H208 0.931 . S
H188 C183 0.931 . S
H189 C184 0.930 . S
C190 O197 1.259 . S
C190 O198 1.258 . S
N191 Co182 2.057 . S
N191 C192 1.316 . S
N191 C193 1.375 . S
C192 N191 1.316 . S
C192 N194 1.347 . S
C192 H203 0.931 . S
C193 N191 1.375 . S
C193 C195 1.350 . S
C193 H202 0.930 . S
N194 C192 1.347 . S
N194 C195 1.373 . S
C195 C193 1.350 . S
C195 N194 1.373 . S
C195 H209 0.931 . S
C196 O199 1.256 . S
C196 O200 1.255 . S
O197 Co180 2.021 . S
O197 C190 1.259 . S
O198 Co182 2.117 . S
O198 C190 1.258 . S
O199 Co182 2.020 . S
O199 C196 1.256 . S
O200 Co180 2.062 . S
O200 C196 1.255 . S
O201 C181 1.259 . S
O201 Co182 2.021 . S
H202 C193 0.930 . S
H203 C192 0.931 . S
O204 Co180 2.117 . S
O204 C181 1.258 . S
O205 Co180 2.020 . S
O205 C207 1.256 . S
O206 Co182 2.062 . S
O206 C207 1.255 . S
C207 O205 1.256 . S
C207 O206 1.255 . S
H208 C187 0.931 . S
H209 C195 0.931 . S
Co210 N215 2.057 . S
Co210 O227 2.021 . S
Co210 O230 2.062 . S
Co210 O234 2.117 . S
Co210 O235 2.020 . S
C211 O231 1.259 . S
C211 O234 1.258 . S
Co212 N221 2.057 . S
Co212 O228 2.117 . S
Co212 O229 2.020 1_655 S
Co212 O231 2.021 . S
Co212 O236 2.062 . S
C213 N215 1.316 . S
C213 N216 1.347 . S
C213 H218 0.931 . S
C214 N215 1.375 . S
C214 C217 1.350 . S
C214 H219 0.930 . S
N215 Co210 2.057 . S
N215 C213 1.316 . S
N215 C214 1.375 . S
N216 C213 1.347 . S
N216 C217 1.373 . S
C217 C214 1.350 . S
C217 N216 1.373 . S
C217 H238 0.931 . S
H218 C213 0.931 . S
H219 C214 0.930 . S
C220 O227 1.259 . S
C220 O228 1.258 . S
N221 Co212 2.057 . S
N221 C222 1.316 . S
N221 C223 1.375 . S
C222 N221 1.316 . S
C222 N224 1.347 . S
C222 H233 0.931 . S
C223 N221 1.375 . S
C223 C225 1.350 . S
C223 H232 0.930 . S
N224 C222 1.347 . S
N224 C225 1.373 . S
C225 C223 1.350 . S
C225 N224 1.373 . S
C225 H239 0.931 . S
C226 O229 1.256 . S
C226 O230 1.255 1_455 S
O227 Co210 2.021 . S
O227 C220 1.259 . S
O228 Co212 2.117 . S
O228 C220 1.258 . S
O229 Co212 2.020 1_455 S
O229 C226 1.256 . S
O230 Co210 2.062 . S
O230 C226 1.255 1_655 S
O231 C211 1.259 . S
O231 Co212 2.021 . S
H232 C223 0.930 . S
H233 C222 0.931 . S
O234 Co210 2.117 . S
O234 C211 1.258 . S
O235 Co210 2.020 . S
O235 C237 1.256 . S
O236 Co212 2.062 . S
O236 C237 1.255 . S
C237 O235 1.256 . S
C237 O236 1.255 . S
H238 C217 0.931 . S
H239 C225 0.931 . S
Co240 N245 2.057 1_455 S
Co240 O257 2.021 . S
Co240 O260 2.062 . S
Co240 O264 2.117 . S
Co240 O265 2.020 . S
C241 O261 1.259 . S
C241 O264 1.258 . S
Co242 N251 2.057 . S
Co242 O258 2.117 . S
Co242 O259 2.020 1_565 S
Co242 O261 2.021 . S
Co242 O266 2.062 . S
C243 N245 1.316 . S
C243 N246 1.347 . S
C243 H248 0.931 . S
C244 N245 1.375 . S
C244 C247 1.350 . S
C244 H249 0.930 . S
N245 Co240 2.057 1_655 S
N245 C243 1.316 . S
N245 C244 1.375 . S
N246 C243 1.347 . S
N246 C247 1.373 . S
C247 C244 1.350 . S
C247 N246 1.373 . S
C247 H268 0.931 . S
H248 C243 0.931 . S
H249 C244 0.930 . S
C250 O257 1.259 . S
C250 O258 1.258 . S
N251 Co242 2.057 . S
N251 C252 1.316 . S
N251 C253 1.375 . S
C252 N251 1.316 . S
C252 N254 1.347 . S
C252 H263 0.931 . S
C253 N251 1.375 . S
C253 C255 1.350 . S
C253 H262 0.930 . S
N254 C252 1.347 . S
N254 C255 1.373 . S
C255 C253 1.350 . S
C255 N254 1.373 . S
C255 H269 0.931 . S
C256 O259 1.256 . S
C256 O260 1.255 1_545 S
O257 Co240 2.021 . S
O257 C250 1.259 . S
O258 Co242 2.117 . S
O258 C250 1.258 . S
O259 Co242 2.020 1_545 S
O259 C256 1.256 . S
O260 Co240 2.062 . S
O260 C256 1.255 1_565 S
O261 C241 1.259 . S
O261 Co242 2.021 . S
H262 C253 0.930 . S
H263 C252 0.931 . S
O264 Co240 2.117 . S
O264 C241 1.258 . S
O265 Co240 2.020 . S
O265 C267 1.256 . S
O266 Co242 2.062 . S
O266 C267 1.255 . S
C267 O265 1.256 . S
C267 O266 1.255 . S
H268 C247 0.931 . S
H269 C255 0.931 . S
Co270 N275 2.057 1_545 S
Co270 O287 2.021 . S
Co270 O290 2.062 . S
Co270 O294 2.117 . S
Co270 O295 2.020 . S
C271 O291 1.259 . S
C271 O294 1.258 . S
Co272 N281 2.057 . S
Co272 O288 2.117 . S
Co272 O289 2.020 . S
Co272 O291 2.021 . S
Co272 O296 2.062 . S
C273 N275 1.316 . S
C273 N276 1.347 . S
C273 H278 0.931 . S
C274 N275 1.375 . S
C274 C277 1.350 . S
C274 H279 0.930 . S
N275 Co270 2.057 1_565 S
N275 C273 1.316 . S
N275 C274 1.375 . S
N276 C273 1.347 . S
N276 C277 1.373 . S
C277 C274 1.350 . S
C277 N276 1.373 . S
C277 H298 0.931 . S
H278 C273 0.931 . S
H279 C274 0.930 . S
C280 O287 1.259 . S
C280 O288 1.258 . S
N281 Co272 2.057 . S
N281 C282 1.316 . S
N281 C283 1.375 . S
C282 N281 1.316 . S
C282 N284 1.347 . S
C282 H293 0.931 . S
C283 N281 1.375 . S
C283 C285 1.350 . S
C283 H292 0.930 . S
N284 C282 1.347 . S
N284 C285 1.373 . S
C285 C283 1.350 . S
C285 N284 1.373 . S
C285 H299 0.931 . S
C286 O289 1.256 . S
C286 O290 1.255 . S
O287 Co270 2.021 . S
O287 C280 1.259 . S
O288 Co272 2.117 . S
O288 C280 1.258 . S
O289 Co272 2.020 . S
O289 C286 1.256 . S
O290 Co270 2.062 . S
O290 C286 1.255 . S
O291 C271 1.259 . S
O291 Co272 2.021 . S
H292 C283 0.930 . S
H293 C282 0.931 . S
O294 Co270 2.117 . S
O294 C271 1.258 . S
O295 Co270 2.020 . S
O295 C297 1.256 . S
O296 Co272 2.062 . S
O296 C297 1.255 . S
C297 O295 1.256 . S
C297 O296 1.255 . S
H298 C277 0.931 . S
H299 C285 0.931 . S
Co300 N305 2.057 . S
Co300 O317 2.021 . S
Co300 O320 2.062 . S
Co300 O324 2.117 . S
Co300 O325 2.020 . S
C301 O321 1.259 . S
C301 O324 1.258 . S
Co302 N311 2.057 . S
Co302 O318 2.117 . S
Co302 O319 2.020 1_455 S
Co302 O321 2.021 . S
Co302 O326 2.062 . S
C303 N305 1.316 . S
C303 N306 1.347 . S
C303 H308 0.931 . S
C304 N305 1.375 . S
C304 C307 1.350 . S
C304 H309 0.930 . S
N305 Co300 2.057 . S
N305 C303 1.316 . S
N305 C304 1.375 . S
N306 C303 1.347 . S
N306 C307 1.373 . S
C307 C304 1.350 . S
C307 N306 1.373 . S
C307 H328 0.931 . S
H308 C303 0.931 . S
H309 C304 0.930 . S
C310 O317 1.259 . S
C310 O318 1.258 . S
N311 Co302 2.057 . S
N311 C312 1.316 . S
N311 C313 1.375 . S
C312 N311 1.316 . S
C312 N314 1.347 . S
C312 H323 0.931 . S
C313 N311 1.375 . S
C313 C315 1.350 . S
C313 H322 0.930 . S
N314 C312 1.347 . S
N314 C315 1.373 . S
C315 C313 1.350 . S
C315 N314 1.373 . S
C315 H329 0.931 . S
C316 O319 1.256 . S
C316 O320 1.255 1_655 S
O317 Co300 2.021 . S
O317 C310 1.259 . S
O318 Co302 2.117 . S
O318 C310 1.258 . S
O319 Co302 2.020 1_655 S
O319 C316 1.256 . S
O320 Co300 2.062 . S
O320 C316 1.255 1_455 S
O321 C301 1.259 . S
O321 Co302 2.021 . S
H322 C313 0.930 . S
H323 C312 0.931 . S
O324 Co300 2.117 . S
O324 C301 1.258 . S
O325 Co300 2.020 . S
O325 C327 1.256 . S
O326 Co302 2.062 . S
O326 C327 1.255 . S
C327 O325 1.256 . S
C327 O326 1.255 . S
H328 C307 0.931 . S
H329 C315 0.931 . S
Co330 N335 2.057 1_655 S
Co330 O347 2.021 . S
Co330 O350 2.062 . S
Co330 O354 2.117 . S
Co330 O355 2.020 . S
C331 O351 1.259 . S
C331 O354 1.258 . S
Co332 N341 2.057 . S
Co332 O348 2.117 . S
Co332 O349 2.020 1_545 S
Co332 O351 2.021 . S
Co332 O356 2.062 . S
C333 N335 1.316 . S
C333 N336 1.347 . S
C333 H338 0.931 . S
C334 N335 1.375 . S
C334 C337 1.350 . S
C334 H339 0.930 . S
N335 Co330 2.057 1_455 S
N335 C333 1.316 . S
N335 C334 1.375 . S
N336 C333 1.347 . S
N336 C337 1.373 . S
C337 C334 1.350 . S
C337 N336 1.373 . S
C337 H358 0.931 . S
H338 C333 0.931 . S
H339 C334 0.930 . S
C340 O347 1.259 . S
C340 O348 1.258 . S
N341 Co332 2.057 . S
N341 C342 1.316 . S
N341 C343 1.375 . S
C342 N341 1.316 . S
C342 N344 1.347 . S
C342 H353 0.931 . S
C343 N341 1.375 . S
C343 C345 1.350 . S
C343 H352 0.930 . S
N344 C342 1.347 . S
N344 C345 1.373 . S
C345 C343 1.350 . S
C345 N344 1.373 . S
C345 H359 0.931 . S
C346 O349 1.256 . S
C346 O350 1.255 1_565 S
O347 Co330 2.021 . S
O347 C340 1.259 . S
O348 Co332 2.117 . S
O348 C340 1.258 . S
O349 Co332 2.020 1_565 S
O349 C346 1.256 . S
O350 Co330 2.062 . S
O350 C346 1.255 1_545 S
O351 C331 1.259 . S
O351 Co332 2.021 . S
H352 C343 0.930 . S
H353 C342 0.931 . S
O354 Co330 2.117 . S
O354 C331 1.258 . S
O355 Co330 2.020 . S
O355 C357 1.256 . S
O356 Co332 2.062 . S
O356 C357 1.255 . S
C357 O355 1.256 . S
C357 O356 1.255 . S
H358 C337 0.931 . S
H359 C345 0.931 . S
C147 N14 2.235 1_565 S
N156 C46 1.050 . S
N74 C27 2.235 1_655 S
C106 N36 1.050 . S
N134 C87 2.235 . S
N96 C166 1.051 . S
N246 C196 1.050 . S
C226 N276 1.050 . S
N306 C256 1.050 . S
C286 N336 1.050 . S
C316 N186 1.050 . S
N216 C346 1.050 . S
C136 N6 1.915 . S
C57 N164 2.061 . S
N66 C16 1.915 . S
C117 N44 2.061 . S
C76 N126 1.915 . S
N104 C177 2.061 . S
N254 C207 2.059 . S
C237 N284 2.063 . S
C267 N314 2.059 . S
N344 C297 2.062 . S
C327 N194 2.059 . S
N224 C357 2.062 . S
C301 C10 1.700 . S
C31 C331 1.655 . S
C70 C181 1.700 . S
C91 C211 1.655 . S
C130 C241 1.700 . S
C271 C151 1.655 . S
C280 C1 2.971 1_556 S
C310 C40 3.138 1_455 S
C61 C340 2.971 1_564 S
C100 C190 3.138 . S
C220 C121 2.971 1_656 S
C250 C160 3.138 1_565 S
