# Generated by pormake.
# Topology uof, (4)-cn, num edge types: 1
# Building blocks:
#     Node 0, Type 0, BuildingBlock: TATPOV_clean_sbu_0, # of connection points: 4
#     Node 1, Type 0, BuildingBlock: TATPOV_clean_sbu_0, # of connection points: 4
#     Node 2, Type 0, BuildingBlock: TATPOV_clean_sbu_0, # of connection points: 4
#     Node 3, Type 0, BuildingBlock: TATPOV_clean_sbu_0, # of connection points: 4
#     Node 4, Type 0, BuildingBlock: TATPOV_clean_sbu_0, # of connection points: 4
#     Node 5, Type 0, BuildingBlock: TATPOV_clean_sbu_0, # of connection points: 4
#     Node 6, Type 0, BuildingBlock: TATPOV_clean_sbu_0, # of connection points: 4
#     Node 7, Type 0, BuildingBlock: TATPOV_clean_sbu_0, # of connection points: 4
#     Node 8, Type 0, BuildingBlock: TATPOV_clean_sbu_0, # of connection points: 4
#     Node 9, Type 0, BuildingBlock: TATPOV_clean_sbu_0, # of connection points: 4
#     Node 10, Type 0, BuildingBlock: TATPOV_clean_sbu_0, # of connection points: 4
#     Node 11, Type 0, BuildingBlock: TATPOV_clean_sbu_0, # of connection points: 4
#     Edge 12, Type (0, 0), BuildingBlock: OJICUG_clean_linker_0, # of connection points: 2
#     Edge 13, Type (0, 0), BuildingBlock: OJICUG_clean_linker_0, # of connection points: 2
#     Edge 14, Type (0, 0), BuildingBlock: OJICUG_clean_linker_0, # of connection points: 2
#     Edge 15, Type (0, 0), BuildingBlock: OJICUG_clean_linker_0, # of connection points: 2
#     Edge 16, Type (0, 0), BuildingBlock: OJICUG_clean_linker_0, # of connection points: 2
#     Edge 17, Type (0, 0), BuildingBlock: OJICUG_clean_linker_0, # of connection points: 2
#     Edge 18, Type (0, 0), BuildingBlock: OJICUG_clean_linker_0, # of connection points: 2
#     Edge 19, Type (0, 0), BuildingBlock: OJICUG_clean_linker_0, # of connection points: 2
#     Edge 20, Type (0, 0), BuildingBlock: OJICUG_clean_linker_0, # of connection points: 2
#     Edge 21, Type (0, 0), BuildingBlock: OJICUG_clean_linker_0, # of connection points: 2
#     Edge 22, Type (0, 0), BuildingBlock: OJICUG_clean_linker_0, # of connection points: 2
#     Edge 23, Type (0, 0), BuildingBlock: OJICUG_clean_linker_0, # of connection points: 2
#     Edge 24, Type (0, 0), BuildingBlock: OJICUG_clean_linker_0, # of connection points: 2
#     Edge 25, Type (0, 0), BuildingBlock: OJICUG_clean_linker_0, # of connection points: 2
#     Edge 26, Type (0, 0), BuildingBlock: OJICUG_clean_linker_0, # of connection points: 2
#     Edge 27, Type (0, 0), BuildingBlock: OJICUG_clean_linker_0, # of connection points: 2
#     Edge 28, Type (0, 0), BuildingBlock: OJICUG_clean_linker_0, # of connection points: 2
#     Edge 29, Type (0, 0), BuildingBlock: OJICUG_clean_linker_0, # of connection points: 2
#     Edge 30, Type (0, 0), BuildingBlock: OJICUG_clean_linker_0, # of connection points: 2
#     Edge 31, Type (0, 0), BuildingBlock: OJICUG_clean_linker_0, # of connection points: 2
#     Edge 32, Type (0, 0), BuildingBlock: OJICUG_clean_linker_0, # of connection points: 2
#     Edge 33, Type (0, 0), BuildingBlock: OJICUG_clean_linker_0, # of connection points: 2
#     Edge 34, Type (0, 0), BuildingBlock: OJICUG_clean_linker_0, # of connection points: 2
#     Edge 35, Type (0, 0), BuildingBlock: OJICUG_clean_linker_0, # of connection points: 2
# Relax obj value: 0.211
# Max RMSD: 0.182
# Mean RMSD: 0.182
data_MOF--net-uof--node1-TATPOV_clean_sbu_0--edge1-OJICUG_clean_linker_0
_symmetry_space_group_name_H-M    P1
_symmetry_Int_Tables_number       1
_symmetry_cell_setting            triclinic
loop_
_symmetry_equiv_pos_as_xyz
'x, y, z'
_cell_length_a     23.575853
_cell_length_b     23.225079
_cell_length_c     44.873181
_cell_angle_alpha  90.208414
_cell_angle_beta   89.774252
_cell_angle_gamma 120.51057
loop_
_atom_site_label
_atom_site_type_symbol
_atom_site_fract_x
_atom_site_fract_y
_atom_site_fract_z
_atom_type_partial_charge
Zn0 Zn 0.20265 0.33507 0.18905 0.0
Zn1 Zn 0.19633 0.31912 0.24737 0.0
O2 O 0.1234 0.34206 0.23661 0.0
O3 O 0.14215 0.37077 0.18928 0.0
O4 O 0.19603 0.30167 0.29206 0.0
O5 O 0.29959 0.39335 0.1901 0.0
O6 O 0.29526 0.38596 0.239 0.0
C7 C 0.10859 0.36151 0.21268 0.0
C8 C 0.1582 0.2016 0.20519 0.0
O9 O 0.17045 0.22784 0.231 0.0
O10 O 0.16542 0.23675 0.18245 0.0
C11 C 0.15337 0.24691 0.30418 0.0
O12 O 0.10237 0.20362 0.28849 0.0
C13 C 0.32858 0.40753 0.21498 0.0
Zn14 Zn 0.8635 0.25554 0.54732 0.0
Zn15 Zn 0.8739 0.20817 0.60042 0.0
O16 O 0.78837 0.12861 0.58115 0.0
O17 O 0.78225 0.16979 0.53776 0.0
O18 O 0.88784 0.19004 0.64368 0.0
O19 O 0.86327 0.3353 0.5646 0.0
O20 O 0.88998 0.30282 0.60538 0.0
C21 C 0.76094 0.12114 0.55564 0.0
C22 C -0.02254 0.24008 0.55398 0.0
O23 O 0.9521 0.21529 0.57913 0.0
O24 O 0.95056 0.26228 0.53672 0.0
C25 C 0.94551 0.23147 0.65334 0.0
O26 O -0.01153 0.27604 0.63478 0.0
C27 C 0.88361 0.34638 0.59119 0.0
Zn28 Zn 0.63205 0.87302 0.87068 0.0
Zn29 Zn 0.64549 0.88469 0.9294 0.0
O30 O 0.62397 0.78717 0.91965 0.0
O31 O 0.59614 0.77523 0.87223 0.0
O32 O 0.65865 0.90496 0.97427 0.0
O33 O 0.57493 0.91262 0.8701 0.0
O34 O 0.57978 0.91574 0.91906 0.0
C35 C 0.60526 0.75155 0.89585 0.0
C36 C 0.76333 0.96245 0.88788 0.0
O37 O 0.73635 0.94986 0.91345 0.0
O38 O 0.72946 0.9337 0.86497 0.0
C39 C 0.71443 0.92652 0.98671 0.0
O40 O 0.7618 0.92567 0.97157 0.0
C41 C 0.5594 0.92724 0.89478 0.0
Zn42 Zn 0.73261 0.63295 0.1815 0.0
Zn43 Zn 0.74568 0.64563 0.24103 0.0
O44 O 0.82116 0.62879 0.22699 0.0
O45 O 0.80277 0.60991 0.17877 0.0
O46 O 0.74953 0.662 0.28598 0.0
O47 O 0.63818 0.5639 0.18591 0.0
O48 O 0.64798 0.57322 0.23469 0.0
C49 C 0.83689 0.61575 0.20149 0.0
C50 C 0.76661 0.76218 0.20146 0.0
O51 O 0.76266 0.73525 0.22655 0.0
O52 O 0.7571 0.72918 0.17764 0.0
C53 C 0.79177 0.71746 0.29774 0.0
O54 O 0.84069 0.7619 0.28136 0.0
C55 C 0.61252 0.54776 0.21156 0.0
Zn56 Zn 0.07457 0.72443 0.55796 0.0
Zn57 Zn 0.05653 0.76648 0.60941 0.0
O58 O 0.14461 0.84666 0.59155 0.0
O59 O 0.15893 0.80662 0.54934 0.0
O60 O 0.04245 0.78002 0.65338 0.0
O61 O 0.06848 0.64008 0.57221 0.0
O62 O 0.03309 0.66849 0.61167 0.0
C63 C 0.17668 0.85496 0.56719 0.0
C64 C 0.96169 0.74401 0.56138 0.0
O65 O -0.01837 0.76469 0.58766 0.0
O66 O -0.00852 0.72322 0.54493 0.0
C67 C -0.00055 0.79375 0.66266 0.0
O68 O 0.97026 0.81266 0.64344 0.0
C69 C 0.04079 0.62557 0.59742 0.0
Zn70 Zn 0.33313 0.10509 0.86266 0.0
Zn71 Zn 0.32071 0.10213 0.92299 0.0
O72 O 0.33692 0.19656 0.91113 0.0
O73 O 0.35613 0.20016 0.86278 0.0
O74 O 0.30527 0.08501 0.96794 0.0
O75 O 0.40083 0.07854 0.8661 0.0
O76 O 0.39254 0.07843 0.91498 0.0
C77 C 0.35009 0.22737 0.88611 0.0
C78 C 0.20576 0.00794 0.8822 0.0
O79 O 0.23275 0.02967 0.90739 0.0
O80 O 0.23798 0.03293 0.85844 0.0
C81 C 0.24832 0.06323 0.97932 0.0
O82 O 0.20207 0.06288 0.96294 0.0
C83 C 0.41735 0.06884 0.89153 0.0
Zn84 Zn 0.60145 0.72342 0.51958 0.0
Zn85 Zn 0.66221 0.76547 0.46787 0.0
O86 O 0.65345 0.84555 0.48518 0.0
O87 O 0.59937 0.80608 0.52745 0.0
O88 O 0.69169 0.77892 0.42418 0.0
O89 O 0.5238 0.63914 0.50461 0.0
O90 O 0.58719 0.66788 0.46502 0.0
C91 C 0.62945 0.85404 0.50944 0.0
C92 C 0.73384 0.74326 0.51663 0.0
O93 O 0.73453 0.76355 0.49031 0.0
O94 O 0.68324 0.72256 0.53302 0.0
C95 C 0.74902 0.79343 0.41549 0.0
O96 O 0.7965 0.8133 0.43515 0.0
C97 C 0.53661 0.62496 0.47922 0.0
Zn98 Zn 0.86268 0.63321 0.89716 0.0
Zn99 Zn 0.86243 0.64622 0.83781 0.0
O100 O 0.77044 0.63017 0.85198 0.0
O101 O 0.76986 0.61122 0.90016 0.0
O102 O 0.87429 0.66264 0.79288 0.0
O103 O 0.88685 0.5633 0.89261 0.0
O104 O 0.88713 0.57323 0.84386 0.0
C105 C 0.74175 0.61739 0.87748 0.0
C106 C 0.95887 0.76227 0.87753 0.0
O107 O 0.93571 0.73566 0.85236 0.0
O108 O 0.93519 0.72911 0.90124 0.0
C109 C 0.88637 0.7178 0.78129 0.0
O110 O 0.88144 0.76176 0.79791 0.0
C111 C 0.89645 0.54722 0.86693 0.0
Zn112 Zn 0.20218 0.86986 0.20879 0.0
Zn113 Zn 0.20071 0.8817 0.15013 0.0
O114 O 0.12442 0.78425 0.1597 0.0
O115 O 0.14014 0.77214 0.20711 0.0
O116 O 0.20785 0.90214 0.10533 0.0
O117 O 0.29882 0.90917 0.20951 0.0
O118 O 0.2974 0.91251 0.16056 0.0
C119 C 0.10737 0.74857 0.18343 0.0
C120 C 0.16117 0.95989 0.19179 0.0
O121 O 0.17551 0.9472 0.1662 0.0
O122 O 0.16588 0.93087 0.21464 0.0
C123 C 0.17351 0.92363 0.09298 0.0
O124 O 0.12517 0.92246 0.10815 0.0
C125 C 0.32912 0.92386 0.18489 0.0
Zn126 Zn 0.34088 0.25516 0.52711 0.0
Zn127 Zn 0.28421 0.20728 0.47414 0.0
O128 O 0.2892 0.12778 0.49419 0.0
O129 O 0.33644 0.17006 0.53753 0.0
O130 O 0.2554 0.18966 0.43047 0.0
O131 O 0.42165 0.3346 0.51047 0.0
O132 O 0.3628 0.30211 0.46954 0.0
C133 C 0.30902 0.12093 0.51985 0.0
C134 C 0.21199 0.24083 0.51943 0.0
O135 O 0.21301 0.21607 0.4943 0.0
O136 O 0.26055 0.26236 0.53703 0.0
C137 C 0.19771 0.17309 0.42164 0.0
O138 O 0.14993 0.15291 0.44129 0.0
C139 C 0.41269 0.34567 0.48387 0.0
Zn140 Zn 0.09567 0.33749 0.89117 0.0
Zn141 Zn 0.08767 0.32081 0.83278 0.0
O142 O 0.18351 0.34531 0.84463 0.0
O143 O 0.19195 0.37363 0.89202 0.0
O144 O 0.0745 0.30403 0.78773 0.0
O145 O 0.05628 0.39505 0.88941 0.0
O146 O 0.05307 0.38589 0.84055 0.0
C147 C 0.21705 0.36466 0.8688 0.0
C148 C 0.00863 0.2032 0.87482 0.0
O149 O 0.02362 0.22884 0.84896 0.0
O150 O 0.03485 0.23913 0.89763 0.0
C151 C 0.01499 0.26957 0.77873 0.0
O152 O 0.96728 0.24807 0.79848 0.0
C153 C 0.04086 0.40782 0.86437 0.0
Zn154 Zn 0.7331 0.10327 0.21788 0.0
Zn155 Zn 0.74327 0.10156 0.1576 0.0
O156 O 0.82108 0.19578 0.17014 0.0
O157 O 0.80462 0.19849 0.21846 0.0
O158 O 0.74224 0.08556 0.11255 0.0
O159 O 0.63875 0.07609 0.21434 0.0
O160 O 0.64745 0.07703 0.16547 0.0
C161 C 0.83827 0.22613 0.19533 0.0
C162 C 0.76451 0.00724 0.19781 0.0
O163 O 0.75917 0.02917 0.17273 0.0
O164 O 0.75689 0.03168 0.22169 0.0
C165 C 0.77778 0.06432 0.10104 0.0
O166 O 0.82364 0.0639 0.11741 0.0
C167 C 0.61276 0.06672 0.18885 0.0
C168 C 0.93134 0.3013 0.22883 0.0
C169 C 0.90546 0.28438 0.1997 0.0
H170 H 0.01747 0.33984 0.2561 0.0
C171 C 0.94867 0.31247 0.17551 0.0
H172 H 0.89943 0.28198 0.24815 0.0
C173 C 0.01668 0.34776 0.18025 0.0
C174 C 0.04247 0.35367 0.2092 0.0
H175 H 0.93043 0.3017 0.15285 0.0
H176 H 0.04855 0.36314 0.16087 0.0
C177 C -0.00069 0.33486 0.23354 0.0
C178 C 0.70912 0.04228 0.51276 0.0
C179 C 0.71389 0.05351 0.54386 0.0
H180 H 0.67914 0.97042 0.4773 0.0
C181 C 0.68121 -0.00156 0.56288 0.0
H182 H 0.7338 0.08361 0.49734 0.0
C183 C 0.64825 0.93355 0.5512 0.0
C184 C 0.64891 0.92214 0.52027 0.0
H185 H 0.68373 0.0053 0.58683 0.0
H186 H 0.62647 0.89222 0.56674 0.0
C187 C 0.67779 0.97733 0.50112 0.0
C188 C 0.63569 0.67118 0.91686 0.0
C189 C 0.61412 0.69294 0.89265 0.0
H190 H 0.69117 0.62699 0.93099 0.0
C191 C 0.61826 0.67088 0.86377 0.0
H192 H 0.63224 0.6861 0.93938 0.0
C193 C 0.65413 0.63886 0.85874 0.0
C194 C 0.68451 0.6264 0.88261 0.0
H195 H 0.60075 0.68526 0.84452 0.0
H196 H 0.66312 0.62969 0.836 0.0
C197 C 0.66989 0.63742 0.91189 0.0
C198 C 0.94565 0.63638 0.2203 0.0
C199 C 0.90291 0.62417 0.1964 0.0
H200 H 0.04538 0.68233 0.23463 0.0
C201 C 0.92856 0.63501 0.16713 0.0
H202 H 0.92747 0.62732 0.24301 0.0
C203 C -0.00347 0.66848 0.16224 0.0
C204 C 0.03983 0.69009 0.18651 0.0
H205 H 0.89689 0.62472 0.14801 0.0
H206 H 0.01494 0.68334 0.13975 0.0
C207 C 0.01353 0.66807 0.21534 0.0
C208 C 0.28278 0.04336 0.56305 0.0
C209 C 0.28878 0.05369 0.5319 0.0
H210 H 0.24227 0.97247 0.59881 0.0
C211 C 0.26681 -0.00185 0.51311 0.0
H212 H 0.29913 0.08507 0.57829 0.0
C213 C 0.23585 0.93361 0.52508 0.0
C214 C 0.22437 0.92302 0.55606 0.0
H215 H 0.27083 0.00432 0.48914 0.0
H216 H 0.21665 0.89185 0.50971 0.0
C217 C 0.25015 0.97875 0.57496 0.0
C218 C 0.33434 0.30455 0.8531 0.0
C219 C 0.34157 0.28598 0.88215 0.0
H220 H 0.2887 0.345 0.82579 0.0
C221 C 0.32532 0.31297 0.90644 0.0
H222 H 0.34787 0.28614 0.83374 0.0
C223 C 0.29317 0.34883 0.90174 0.0
C224 C 0.27503 0.35645 0.8727 0.0
H225 H 0.33144 0.30093 0.92906 0.0
H226 H 0.27569 0.36327 0.92111 0.0
C227 C 0.30054 0.33871 0.8484 0.0
C228 C 0.50672 0.49741 0.24108 0.0
C229 C 0.54001 0.50638 0.21383 0.0
H230 H 0.41313 0.45939 0.26297 0.0
C231 C 0.50306 0.48155 0.1876 0.0
H232 H 0.53389 0.51638 0.26166 0.0
C233 C 0.43491 0.45072 0.18826 0.0
C234 C 0.40133 0.44288 0.21524 0.0
H235 H 0.52679 0.4873 0.1662 0.0
H236 H 0.40859 0.4328 0.16741 0.0
C237 C 0.43775 0.46552 0.24179 0.0
C238 C 0.02587 0.51448 0.61006 0.0
C239 C -0.00119 0.55489 0.60477 0.0
H240 H 0.00804 0.41455 0.61152 0.0
C241 C 0.93066 0.52544 0.60033 0.0
H242 H 0.07846 0.5365 0.61305 0.0
C243 C 0.89086 0.45612 0.59826 0.0
C244 C 0.91851 0.41565 0.6018 0.0
H245 H 0.90926 0.55619 0.59572 0.0
H246 H 0.8396 0.43444 0.5921 0.0
C247 C -0.01448 0.44501 0.60925 0.0
C248 C 0.4809 0.02326 0.86692 0.0
C249 C 0.45856 0.03783 0.89335 0.0
H250 H 0.52852 0.97607 0.84667 0.0
C251 C 0.47016 0.01618 0.92069 0.0
H252 H 0.47282 0.039 0.84544 0.0
C253 C 0.50248 0.97956 0.92141 0.0
C254 C 0.52315 0.96367 0.89478 0.0
H255 H 0.45314 0.02627 0.94143 0.0
H256 H 0.51077 0.96333 0.94271 0.0
C257 C 0.5124 0.98643 0.86761 0.0
C258 C 0.43904 0.51454 0.46689 0.0
C259 C 0.50692 0.55438 0.47131 0.0
H260 H 0.35619 0.41499 0.46575 0.0
C261 C 0.54537 0.52428 0.47447 0.0
H262 H 0.40867 0.53704 0.46491 0.0
C263 C 0.51537 0.45488 0.47617 0.0
C264 C 0.44696 0.415 0.47349 0.0
H265 H 0.59787 0.55457 0.47843 0.0
H266 H 0.54492 0.43266 0.48139 0.0
C267 C 0.40935 0.44502 0.4673 0.0
C268 C 0.95311 0.49767 0.83765 0.0
C269 C 0.92703 0.50532 0.86466 0.0
H270 H 0.01042 0.46101 0.8162 0.0
C271 C 0.93715 0.47889 0.89085 0.0
H272 H 0.94641 0.51783 0.81711 0.0
C273 C -0.02541 0.4482 0.89043 0.0
C274 C 0.00245 0.44208 0.86375 0.0
H275 H 0.91764 0.48345 0.91206 0.0
H276 H -0.01842 0.4292 0.91126 0.0
C277 C -0.0097 0.46587 0.83717 0.0
C278 C 0.43506 0.983 0.21235 0.0
C279 C 0.40179 0.96042 0.18508 0.0
H280 H 0.52698 0.03577 0.23477 0.0
C281 C 0.43859 0.97682 0.15852 0.0
H282 H 0.40839 0.97226 0.23323 0.0
C283 C 0.50752 0.01378 0.15942 0.0
C284 C 0.54051 0.03527 0.18686 0.0
H285 H 0.41426 0.96075 0.13714 0.0
H286 H 0.53483 0.02429 0.13874 0.0
C287 C 0.50336 0.02016 0.21321 0.0
C288 C 0.14392 0.04809 0.16981 0.0
C289 C 0.14596 0.01361 0.19506 0.0
H290 H 0.1452 0.13474 0.15323 0.0
C291 C 0.1405 0.03563 0.22352 0.0
H292 H 0.14694 0.03167 0.14754 0.0
C293 C 0.13953 0.09475 0.22677 0.0
C294 C 0.1439 0.13259 0.2016 0.0
H295 H 0.14091 0.00947 0.24338 0.0
H296 H 0.13922 0.11264 0.24907 0.0
C297 C 0.14279 0.10712 0.17306 0.0
C298 C 0.05371 0.24298 0.51477 0.0
C299 C 0.03856 0.24279 0.54503 0.0
H300 H 0.12073 0.24168 0.48292 0.0
C301 C 0.0817 0.244 0.56683 0.0
H302 H 0.02102 0.24193 0.49759 0.0
C303 C 0.13909 0.24498 0.55848 0.0
C304 C 0.1534 0.24336 0.52823 0.0
H305 H 0.07117 0.24436 0.59033 0.0
H306 H 0.17144 0.24546 0.57568 0.0
C307 C 0.11045 0.24255 0.50642 0.0
C308 C 0.9296 0.10875 0.90682 0.0
C309 C 0.95407 0.13409 0.87831 0.0
H310 H 0.84966 0.03376 0.93223 0.0
C311 C 0.92046 0.09626 0.85309 0.0
H312 H 0.95491 0.13633 0.92669 0.0
C313 C 0.86008 0.03744 0.85626 0.0
C314 C 0.83248 0.0157 0.88469 0.0
H315 H 0.93866 0.11406 0.83081 0.0
H316 H 0.83338 0.01138 0.83636 0.0
C317 C 0.86918 0.05001 0.90999 0.0
C318 C 0.77646 0.91864 0.17218 0.0
C319 C 0.77473 0.94986 0.19878 0.0
H320 H 0.77574 0.83476 0.15215 0.0
C321 C 0.77803 0.92282 0.22619 0.0
H322 H 0.77461 0.93864 0.15067 0.0
C323 C 0.77889 0.86334 0.22701 0.0
C324 C 0.77623 0.82983 0.20043 0.0
H325 H 0.77748 0.94618 0.24704 0.0
H326 H 0.77886 0.84229 0.24852 0.0
C327 C 0.77713 0.85909 0.173 0.0
C328 C 0.80189 0.74357 0.55893 0.0
C329 C 0.79213 0.74363 0.52811 0.0
H330 H 0.86413 0.7445 0.59368 0.0
C331 C 0.8385 0.74398 0.50829 0.0
H332 H 0.7669 0.74358 0.57466 0.0
C333 C 0.89352 0.74357 0.51914 0.0
C334 C 0.90355 0.74405 0.54996 0.0
H335 H 0.83189 0.74376 0.4844 0.0
H336 H 0.9285 0.74358 0.50341 0.0
C337 C 0.85755 0.74441 0.56979 0.0
C338 C 0.1084 0.92322 0.85343 0.0
C339 C 0.13836 0.9502 0.88096 0.0
H340 H 0.0274 0.84264 0.83076 0.0
C341 C 0.10521 0.91863 0.90742 0.0
H342 H 0.13247 0.9468 0.83267 0.0
C343 C 0.04513 0.85893 0.90635 0.0
C344 C 0.01707 0.82984 0.8788 0.0
H345 H 0.12677 0.93853 0.92902 0.0
H346 H 0.02198 0.83442 0.9271 0.0
C347 C 0.04817 0.86357 0.85236 0.0
C348 C 0.12322 0.15848 0.37876 0.0
C349 C 0.18704 0.18861 0.39076 0.0
H350 H 0.0626 0.15296 0.34206 0.0
C351 C 0.23965 0.23849 0.37409 0.0
H352 H 0.08158 0.12024 0.39111 0.0
C353 C 0.22851 0.25861 0.34636 0.0
C354 C 0.16468 0.22841 0.33435 0.0
H355 H 0.28931 0.2634 0.38282 0.0
H356 H 0.2701 0.29733 0.33417 0.0
C357 C 0.11229 0.17755 0.35074 0.0
C358 C 0.91557 0.20175 0.70738 0.0
C359 C 0.96359 0.23523 0.68532 0.0
H360 H 0.89411 0.18648 0.75407 0.0
C361 C 0.02953 0.27706 0.69423 0.0
H362 H 0.86442 0.16933 0.70135 0.0
C363 C 0.04672 0.28688 0.72444 0.0
C364 C -0.00166 0.2555 0.74655 0.0
H365 H 0.06798 0.30348 0.67783 0.0
H366 H 0.09767 0.32045 0.73044 0.0
C367 C 0.9327 0.21196 0.73764 0.0
C368 C 0.80485 0.01327 0.05789 0.0
C369 C 0.76216 0.03163 0.07117 0.0
H370 H 0.82316 0.96559 1.02126 0.0
C371 C 0.70259 0.01381 0.05666 0.0
H372 H 0.85095 0.02575 0.06846 0.0
C373 C 0.68607 0.97815 1.02966 0.0
C374 C 0.729 0.96 1.01639 0.0
H375 H 0.66819 0.02648 0.06637 0.0
H376 H 0.64001 0.96553 1.01901 0.0
C377 C 0.78867 0.9783 1.03085 0.0
C378 C 0.7175 0.70565 0.34055 0.0
C379 C 0.78112 0.73585 0.32817 0.0
H380 H 0.65716 0.70161 0.37731 0.0
C381 C 0.83373 0.78702 0.3443 0.0
H382 H 0.67575 0.66671 0.32855 0.0
C383 C 0.82317 0.80657 0.37241 0.0
C384 C 0.75949 0.77671 0.3847 0.0
H385 H 0.88325 0.8116 0.3353 0.0
H386 H 0.86493 0.84517 0.38454 0.0
C387 C 0.70671 0.72633 0.36833 0.0
C388 C -0.02199 0.72759 0.7098 0.0
C389 C -0.02613 0.77718 0.69368 0.0
H390 H 0.95199 0.66854 0.74961 0.0
C391 C 0.93978 0.80629 0.70648 0.0
H392 H 0.00309 0.70345 0.70043 0.0
C393 C 0.91106 0.78675 0.73482 0.0
C394 C 0.91417 0.73632 0.75069 0.0
H395 H 0.9353 0.84427 0.69456 0.0
H396 H 0.88581 0.81071 0.74418 0.0
C397 C 0.94791 0.70689 0.73782 0.0
C398 C 0.151 0.97571 0.04907 0.0
C399 C 0.19249 0.95748 0.06344 0.0
H400 H 0.13618 0.02354 1.01169 0.0
C401 C 0.25373 0.9761 0.05025 0.0
H402 H 0.10367 0.96263 0.0586 0.0
C403 C 0.27294 0.0122 1.02343 0.0
C404 C 0.2311 0.02998 1.00901 0.0
H405 H 0.28725 0.96355 0.06084 0.0
H406 H 0.32015 0.02526 1.01378 0.0
C407 C 0.16988 0.01111 1.02219 0.0
loop_
_geom_bond_atom_site_label_1
_geom_bond_atom_site_label_2
_geom_bond_distance
_geom_bond_site_symmetry_2
_ccdc_geom_bond_type
Zn0 O3 2.031 . S
Zn0 O5 2.049 . S
Zn0 O10 2.067 . S
Zn1 O2 1.962 . S
Zn1 O4 1.986 . S
Zn1 O6 1.996 . S
Zn1 O9 1.943 . S
O2 Zn1 1.962 . S
O2 C7 1.254 . S
O3 Zn0 2.031 . S
O3 C7 1.269 . S
O4 Zn1 1.986 . S
O4 C11 1.262 . S
O5 Zn0 2.049 . S
O5 C13 1.260 . S
O6 Zn1 1.996 . S
O6 C13 1.257 . S
C7 O2 1.254 . S
C7 O3 1.269 . S
C8 O9 1.249 . S
C8 O10 1.270 . S
O9 Zn1 1.943 . S
O9 C8 1.249 . S
O10 Zn0 2.067 . S
O10 C8 1.270 . S
C11 O4 1.262 . S
C11 O12 1.232 . S
O12 C11 1.232 . S
C13 O5 1.260 . S
C13 O6 1.257 . S
Zn14 O17 2.031 . S
Zn14 O19 2.049 . S
Zn14 O24 2.067 1_655 S
Zn15 O16 1.962 . S
Zn15 O18 1.986 . S
Zn15 O20 1.996 . S
Zn15 O23 1.943 1_655 S
O16 Zn15 1.962 . S
O16 C21 1.254 . S
O17 Zn14 2.031 . S
O17 C21 1.269 . S
O18 Zn15 1.986 . S
O18 C25 1.262 . S
O19 Zn14 2.049 . S
O19 C27 1.260 . S
O20 Zn15 1.996 . S
O20 C27 1.257 . S
C21 O16 1.254 . S
C21 O17 1.269 . S
C22 O23 1.249 . S
C22 O24 1.270 . S
O23 Zn15 1.943 1_455 S
O23 C22 1.249 . S
O24 Zn14 2.067 1_455 S
O24 C22 1.270 . S
C25 O18 1.262 . S
C25 O26 1.232 . S
O26 C25 1.232 . S
C27 O19 1.260 . S
C27 O20 1.257 . S
Zn28 O31 2.031 . S
Zn28 O33 2.049 . S
Zn28 O38 2.067 1_565 S
Zn29 O30 1.962 . S
Zn29 O32 1.986 . S
Zn29 O34 1.996 . S
Zn29 O37 1.943 1_565 S
O30 Zn29 1.962 . S
O30 C35 1.254 . S
O31 Zn28 2.031 . S
O31 C35 1.269 . S
O32 Zn29 1.986 . S
O32 C39 1.262 . S
O33 Zn28 2.049 . S
O33 C41 1.260 . S
O34 Zn29 1.996 . S
O34 C41 1.257 . S
C35 O30 1.254 . S
C35 O31 1.269 . S
C36 O37 1.249 . S
C36 O38 1.270 . S
O37 Zn29 1.943 1_545 S
O37 C36 1.249 . S
O38 Zn28 2.067 1_545 S
O38 C36 1.270 . S
C39 O32 1.262 . S
C39 O40 1.232 . S
O40 C39 1.232 . S
C41 O33 1.260 . S
C41 O34 1.257 . S
Zn42 O45 2.031 . S
Zn42 O47 2.049 . S
Zn42 O52 2.067 . S
Zn43 O44 1.962 . S
Zn43 O46 1.986 . S
Zn43 O48 1.996 . S
Zn43 O51 1.943 . S
O44 Zn43 1.962 . S
O44 C49 1.254 . S
O45 Zn42 2.031 . S
O45 C49 1.269 . S
O46 Zn43 1.986 . S
O46 C53 1.262 . S
O47 Zn42 2.049 . S
O47 C55 1.260 . S
O48 Zn43 1.996 . S
O48 C55 1.257 . S
C49 O44 1.254 . S
C49 O45 1.269 . S
C50 O51 1.249 . S
C50 O52 1.270 . S
O51 Zn43 1.943 . S
O51 C50 1.249 . S
O52 Zn42 2.067 . S
O52 C50 1.270 . S
C53 O46 1.262 . S
C53 O54 1.232 . S
O54 C53 1.232 . S
C55 O47 1.260 . S
C55 O48 1.257 . S
Zn56 O59 2.031 . S
Zn56 O61 2.049 . S
Zn56 O66 2.067 1_455 S
Zn57 O58 1.962 . S
Zn57 O60 1.986 . S
Zn57 O62 1.996 . S
Zn57 O65 1.943 1_455 S
O58 Zn57 1.962 . S
O58 C63 1.254 . S
O59 Zn56 2.031 . S
O59 C63 1.269 . S
O60 Zn57 1.986 . S
O60 C67 1.262 . S
O61 Zn56 2.049 . S
O61 C69 1.260 . S
O62 Zn57 1.996 . S
O62 C69 1.257 . S
C63 O58 1.254 . S
C63 O59 1.269 . S
C64 O65 1.249 . S
C64 O66 1.270 . S
O65 Zn57 1.943 1_655 S
O65 C64 1.249 . S
O66 Zn56 2.067 1_655 S
O66 C64 1.270 . S
C67 O60 1.262 . S
C67 O68 1.232 . S
O68 C67 1.232 . S
C69 O61 1.260 . S
C69 O62 1.257 . S
Zn70 O73 2.031 . S
Zn70 O75 2.049 . S
Zn70 O80 2.067 1_545 S
Zn71 O72 1.962 . S
Zn71 O74 1.986 . S
Zn71 O76 1.996 . S
Zn71 O79 1.943 1_545 S
O72 Zn71 1.962 . S
O72 C77 1.254 . S
O73 Zn70 2.031 . S
O73 C77 1.269 . S
O74 Zn71 1.986 . S
O74 C81 1.262 . S
O75 Zn70 2.049 . S
O75 C83 1.260 . S
O76 Zn71 1.996 . S
O76 C83 1.257 . S
C77 O72 1.254 . S
C77 O73 1.269 . S
C78 O79 1.249 . S
C78 O80 1.270 . S
O79 Zn71 1.943 1_565 S
O79 C78 1.249 . S
O80 Zn70 2.067 1_565 S
O80 C78 1.270 . S
C81 O74 1.262 . S
C81 O82 1.232 . S
O82 C81 1.232 . S
C83 O75 1.260 . S
C83 O76 1.257 . S
Zn84 O87 2.031 . S
Zn84 O89 2.049 . S
Zn84 O94 2.067 . S
Zn85 O86 1.962 . S
Zn85 O88 1.986 . S
Zn85 O90 1.996 . S
Zn85 O93 1.943 . S
O86 Zn85 1.962 . S
O86 C91 1.254 . S
O87 Zn84 2.031 . S
O87 C91 1.269 . S
O88 Zn85 1.986 . S
O88 C95 1.262 . S
O89 Zn84 2.049 . S
O89 C97 1.260 . S
O90 Zn85 1.996 . S
O90 C97 1.257 . S
C91 O86 1.254 . S
C91 O87 1.269 . S
C92 O93 1.249 . S
C92 O94 1.270 . S
O93 Zn85 1.943 . S
O93 C92 1.249 . S
O94 Zn84 2.067 . S
O94 C92 1.270 . S
C95 O88 1.262 . S
C95 O96 1.232 . S
O96 C95 1.232 . S
C97 O89 1.260 . S
C97 O90 1.257 . S
Zn98 O101 2.031 . S
Zn98 O103 2.049 . S
Zn98 O108 2.067 1_655 S
Zn99 O100 1.962 . S
Zn99 O102 1.986 . S
Zn99 O104 1.996 . S
Zn99 O107 1.943 1_655 S
O100 Zn99 1.962 . S
O100 C105 1.254 . S
O101 Zn98 2.031 . S
O101 C105 1.269 . S
O102 Zn99 1.986 . S
O102 C109 1.262 . S
O103 Zn98 2.049 . S
O103 C111 1.260 . S
O104 Zn99 1.996 . S
O104 C111 1.257 . S
C105 O100 1.254 . S
C105 O101 1.269 . S
C106 O107 1.249 . S
C106 O108 1.270 . S
O107 Zn99 1.943 1_455 S
O107 C106 1.249 . S
O108 Zn98 2.067 1_455 S
O108 C106 1.270 . S
C109 O102 1.262 . S
C109 O110 1.232 . S
O110 C109 1.232 . S
C111 O103 1.260 . S
C111 O104 1.257 . S
Zn112 O115 2.031 . S
Zn112 O117 2.049 . S
Zn112 O122 2.067 1_565 S
Zn113 O114 1.962 . S
Zn113 O116 1.986 . S
Zn113 O118 1.996 . S
Zn113 O121 1.943 1_565 S
O114 Zn113 1.962 . S
O114 C119 1.254 . S
O115 Zn112 2.031 . S
O115 C119 1.269 . S
O116 Zn113 1.986 . S
O116 C123 1.262 . S
O117 Zn112 2.049 . S
O117 C125 1.260 . S
O118 Zn113 1.996 . S
O118 C125 1.257 . S
C119 O114 1.254 . S
C119 O115 1.269 . S
C120 O121 1.249 . S
C120 O122 1.270 . S
O121 Zn113 1.943 1_545 S
O121 C120 1.249 . S
O122 Zn112 2.067 1_545 S
O122 C120 1.270 . S
C123 O116 1.262 . S
C123 O124 1.232 . S
O124 C123 1.232 . S
C125 O117 1.260 . S
C125 O118 1.257 . S
Zn126 O129 2.031 . S
Zn126 O131 2.049 . S
Zn126 O136 2.067 . S
Zn127 O128 1.962 . S
Zn127 O130 1.986 . S
Zn127 O132 1.996 . S
Zn127 O135 1.943 . S
O128 Zn127 1.962 . S
O128 C133 1.254 . S
O129 Zn126 2.031 . S
O129 C133 1.269 . S
O130 Zn127 1.986 . S
O130 C137 1.262 . S
O131 Zn126 2.049 . S
O131 C139 1.260 . S
O132 Zn127 1.996 . S
O132 C139 1.257 . S
C133 O128 1.254 . S
C133 O129 1.269 . S
C134 O135 1.249 . S
C134 O136 1.270 . S
O135 Zn127 1.943 . S
O135 C134 1.249 . S
O136 Zn126 2.067 . S
O136 C134 1.270 . S
C137 O130 1.262 . S
C137 O138 1.232 . S
O138 C137 1.232 . S
C139 O131 1.260 . S
C139 O132 1.257 . S
Zn140 O143 2.031 . S
Zn140 O145 2.049 . S
Zn140 O150 2.067 1_455 S
Zn141 O142 1.962 . S
Zn141 O144 1.986 . S
Zn141 O146 1.996 . S
Zn141 O149 1.943 1_455 S
O142 Zn141 1.962 . S
O142 C147 1.254 . S
O143 Zn140 2.031 . S
O143 C147 1.269 . S
O144 Zn141 1.986 . S
O144 C151 1.262 . S
O145 Zn140 2.049 . S
O145 C153 1.260 . S
O146 Zn141 1.996 . S
O146 C153 1.257 . S
C147 O142 1.254 . S
C147 O143 1.269 . S
C148 O149 1.249 . S
C148 O150 1.270 . S
O149 Zn141 1.943 1_655 S
O149 C148 1.249 . S
O150 Zn140 2.067 1_655 S
O150 C148 1.270 . S
C151 O144 1.262 . S
C151 O152 1.232 . S
O152 C151 1.232 . S
C153 O145 1.260 . S
C153 O146 1.257 . S
Zn154 O157 2.031 . S
Zn154 O159 2.049 . S
Zn154 O164 2.067 1_545 S
Zn155 O156 1.962 . S
Zn155 O158 1.986 . S
Zn155 O160 1.996 . S
Zn155 O163 1.943 1_545 S
O156 Zn155 1.962 . S
O156 C161 1.254 . S
O157 Zn154 2.031 . S
O157 C161 1.269 . S
O158 Zn155 1.986 . S
O158 C165 1.262 . S
O159 Zn154 2.049 . S
O159 C167 1.260 . S
O160 Zn155 1.996 . S
O160 C167 1.257 . S
C161 O156 1.254 . S
C161 O157 1.269 . S
C162 O163 1.249 . S
C162 O164 1.270 . S
O163 Zn155 1.943 1_565 S
O163 C162 1.249 . S
O164 Zn154 2.067 1_565 S
O164 C162 1.270 . S
C165 O158 1.262 . S
C165 O166 1.232 . S
O166 C165 1.232 . S
C167 O159 1.260 . S
C167 O160 1.257 . S
C168 C169 1.387 . S
C168 H172 0.950 . S
C168 C177 1.390 1_655 S
C169 C168 1.387 . S
C169 C171 1.387 . S
H170 C177 0.950 . S
C171 C169 1.387 . S
C171 C173 1.390 1_655 S
C171 H175 0.950 . S
H172 C168 0.950 . S
C173 C171 1.390 1_455 S
C173 C174 1.387 . S
C173 H176 0.950 . S
C174 C173 1.387 . S
C174 C177 1.387 . S
H175 C171 0.950 . S
H176 C173 0.950 . S
C177 C168 1.390 1_455 S
C177 H170 0.950 . S
C177 C174 1.387 . S
C178 C179 1.387 . S
C178 H182 0.950 . S
C178 C187 1.390 1_545 S
C179 C178 1.387 . S
C179 C181 1.387 . S
H180 C187 0.950 . S
C181 C179 1.387 . S
C181 C183 1.390 1_545 S
C181 H185 0.950 . S
H182 C178 0.950 . S
C183 C181 1.390 1_565 S
C183 C184 1.387 . S
C183 H186 0.950 . S
C184 C183 1.387 . S
C184 C187 1.387 . S
H185 C181 0.950 . S
H186 C183 0.950 . S
C187 C178 1.390 1_565 S
C187 H180 0.950 . S
C187 C184 1.387 . S
C188 C189 1.387 . S
C188 H192 0.950 . S
C188 C197 1.390 . S
C189 C188 1.387 . S
C189 C191 1.387 . S
H190 C197 0.950 . S
C191 C189 1.387 . S
C191 C193 1.390 . S
C191 H195 0.950 . S
H192 C188 0.950 . S
C193 C191 1.390 . S
C193 C194 1.387 . S
C193 H196 0.950 . S
C194 C193 1.387 . S
C194 C197 1.387 . S
H195 C191 0.950 . S
H196 C193 0.950 . S
C197 C188 1.390 . S
C197 H190 0.950 . S
C197 C194 1.387 . S
C198 C199 1.387 . S
C198 H202 0.950 . S
C198 C207 1.390 1_655 S
C199 C198 1.387 . S
C199 C201 1.387 . S
H200 C207 0.950 . S
C201 C199 1.387 . S
C201 C203 1.390 1_655 S
C201 H205 0.950 . S
H202 C198 0.950 . S
C203 C201 1.390 1_455 S
C203 C204 1.387 . S
C203 H206 0.950 . S
C204 C203 1.387 . S
C204 C207 1.387 . S
H205 C201 0.950 . S
H206 C203 0.950 . S
C207 C198 1.390 1_455 S
C207 H200 0.950 . S
C207 C204 1.387 . S
C208 C209 1.387 . S
C208 H212 0.950 . S
C208 C217 1.390 1_545 S
C209 C208 1.387 . S
C209 C211 1.387 . S
H210 C217 0.950 . S
C211 C209 1.387 . S
C211 C213 1.390 1_545 S
C211 H215 0.950 . S
H212 C208 0.950 . S
C213 C211 1.390 1_565 S
C213 C214 1.387 . S
C213 H216 0.950 . S
C214 C213 1.387 . S
C214 C217 1.387 . S
H215 C211 0.950 . S
H216 C213 0.950 . S
C217 C208 1.390 1_565 S
C217 H210 0.950 . S
C217 C214 1.387 . S
C218 C219 1.387 . S
C218 H222 0.950 . S
C218 C227 1.390 . S
C219 C218 1.387 . S
C219 C221 1.387 . S
H220 C227 0.950 . S
C221 C219 1.387 . S
C221 C223 1.390 . S
C221 H225 0.950 . S
H222 C218 0.950 . S
C223 C221 1.390 . S
C223 C224 1.387 . S
C223 H226 0.950 . S
C224 C223 1.387 . S
C224 C227 1.387 . S
H225 C221 0.950 . S
H226 C223 0.950 . S
C227 C218 1.390 . S
C227 H220 0.950 . S
C227 C224 1.387 . S
C228 C229 1.387 . S
C228 H232 0.950 . S
C228 C237 1.390 . S
C229 C228 1.387 . S
C229 C231 1.387 . S
H230 C237 0.950 . S
C231 C229 1.387 . S
C231 C233 1.390 . S
C231 H235 0.950 . S
H232 C228 0.950 . S
C233 C231 1.390 . S
C233 C234 1.387 . S
C233 H236 0.950 . S
C234 C233 1.387 . S
C234 C237 1.387 . S
H235 C231 0.950 . S
H236 C233 0.950 . S
C237 C228 1.390 . S
C237 H230 0.950 . S
C237 C234 1.387 . S
C238 C239 1.387 . S
C238 H242 0.950 . S
C238 C247 1.390 1_455 S
C239 C238 1.387 . S
C239 C241 1.387 . S
H240 C247 0.950 . S
C241 C239 1.387 . S
C241 C243 1.390 1_455 S
C241 H245 0.950 . S
H242 C238 0.950 . S
C243 C241 1.390 1_655 S
C243 C244 1.387 . S
C243 H246 0.950 . S
C244 C243 1.387 . S
C244 C247 1.387 . S
H245 C241 0.950 . S
H246 C243 0.950 . S
C247 C238 1.390 1_655 S
C247 H240 0.950 . S
C247 C244 1.387 . S
C248 C249 1.387 . S
C248 H252 0.950 . S
C248 C257 1.390 1_545 S
C249 C248 1.387 . S
C249 C251 1.387 . S
H250 C257 0.950 . S
C251 C249 1.387 . S
C251 C253 1.390 1_545 S
C251 H255 0.950 . S
H252 C248 0.950 . S
C253 C251 1.390 1_565 S
C253 C254 1.387 . S
C253 H256 0.950 . S
C254 C253 1.387 . S
C254 C257 1.387 . S
H255 C251 0.950 . S
H256 C253 0.950 . S
C257 C248 1.390 1_565 S
C257 H250 0.950 . S
C257 C254 1.387 . S
C258 C259 1.387 . S
C258 H262 0.950 . S
C258 C267 1.390 . S
C259 C258 1.387 . S
C259 C261 1.387 . S
H260 C267 0.950 . S
C261 C259 1.387 . S
C261 C263 1.390 . S
C261 H265 0.950 . S
H262 C258 0.950 . S
C263 C261 1.390 . S
C263 C264 1.387 . S
C263 H266 0.950 . S
C264 C263 1.387 . S
C264 C267 1.387 . S
H265 C261 0.950 . S
H266 C263 0.950 . S
C267 C258 1.390 . S
C267 H260 0.950 . S
C267 C264 1.387 . S
C268 C269 1.387 . S
C268 H272 0.950 . S
C268 C277 1.390 1_655 S
C269 C268 1.387 . S
C269 C271 1.387 . S
H270 C277 0.950 . S
C271 C269 1.387 . S
C271 C273 1.390 1_655 S
C271 H275 0.950 . S
H272 C268 0.950 . S
C273 C271 1.390 1_455 S
C273 C274 1.387 . S
C273 H276 0.950 . S
C274 C273 1.387 . S
C274 C277 1.387 . S
H275 C271 0.950 . S
H276 C273 0.950 . S
C277 C268 1.390 1_455 S
C277 H270 0.950 . S
C277 C274 1.387 . S
C278 C279 1.387 . S
C278 H282 0.950 . S
C278 C287 1.390 1_565 S
C279 C278 1.387 . S
C279 C281 1.387 . S
H280 C287 0.950 . S
C281 C279 1.387 . S
C281 C283 1.390 1_565 S
C281 H285 0.950 . S
H282 C278 0.950 . S
C283 C281 1.390 1_545 S
C283 C284 1.387 . S
C283 H286 0.950 . S
C284 C283 1.387 . S
C284 C287 1.387 . S
H285 C281 0.950 . S
H286 C283 0.950 . S
C287 C278 1.390 1_545 S
C287 H280 0.950 . S
C287 C284 1.387 . S
C288 C289 1.387 . S
C288 H292 0.950 . S
C288 C297 1.390 . S
C289 C288 1.387 . S
C289 C291 1.387 . S
H290 C297 0.950 . S
C291 C289 1.387 . S
C291 C293 1.390 . S
C291 H295 0.950 . S
H292 C288 0.950 . S
C293 C291 1.390 . S
C293 C294 1.387 . S
C293 H296 0.950 . S
C294 C293 1.387 . S
C294 C297 1.387 . S
H295 C291 0.950 . S
H296 C293 0.950 . S
C297 C288 1.390 . S
C297 H290 0.950 . S
C297 C294 1.387 . S
C298 C299 1.387 . S
C298 H302 0.950 . S
C298 C307 1.390 . S
C299 C298 1.387 . S
C299 C301 1.387 . S
H300 C307 0.950 . S
C301 C299 1.387 . S
C301 C303 1.390 . S
C301 H305 0.950 . S
H302 C298 0.950 . S
C303 C301 1.390 . S
C303 C304 1.387 . S
C303 H306 0.950 . S
C304 C303 1.387 . S
C304 C307 1.387 . S
H305 C301 0.950 . S
H306 C303 0.950 . S
C307 C298 1.390 . S
C307 H300 0.950 . S
C307 C304 1.387 . S
C308 C309 1.387 . S
C308 H312 0.950 . S
C308 C317 1.390 . S
C309 C308 1.387 . S
C309 C311 1.387 . S
H310 C317 0.950 . S
C311 C309 1.387 . S
C311 C313 1.390 . S
C311 H315 0.950 . S
H312 C308 0.950 . S
C313 C311 1.390 . S
C313 C314 1.387 . S
C313 H316 0.950 . S
C314 C313 1.387 . S
C314 C317 1.387 . S
H315 C311 0.950 . S
H316 C313 0.950 . S
C317 C308 1.390 . S
C317 H310 0.950 . S
C317 C314 1.387 . S
C318 C319 1.387 . S
C318 H322 0.950 . S
C318 C327 1.390 . S
C319 C318 1.387 . S
C319 C321 1.387 . S
H320 C327 0.950 . S
C321 C319 1.387 . S
C321 C323 1.390 . S
C321 H325 0.950 . S
H322 C318 0.950 . S
C323 C321 1.390 . S
C323 C324 1.387 . S
C323 H326 0.950 . S
C324 C323 1.387 . S
C324 C327 1.387 . S
H325 C321 0.950 . S
H326 C323 0.950 . S
C327 C318 1.390 . S
C327 H320 0.950 . S
C327 C324 1.387 . S
C328 C329 1.387 . S
C328 H332 0.950 . S
C328 C337 1.390 . S
C329 C328 1.387 . S
C329 C331 1.387 . S
H330 C337 0.950 . S
C331 C329 1.387 . S
C331 C333 1.390 . S
C331 H335 0.950 . S
H332 C328 0.950 . S
C333 C331 1.390 . S
C333 C334 1.387 . S
C333 H336 0.950 . S
C334 C333 1.387 . S
C334 C337 1.387 . S
H335 C331 0.950 . S
H336 C333 0.950 . S
C337 C328 1.390 . S
C337 H330 0.950 . S
C337 C334 1.387 . S
C338 C339 1.387 . S
C338 H342 0.950 . S
C338 C347 1.390 . S
C339 C338 1.387 . S
C339 C341 1.387 . S
H340 C347 0.950 . S
C341 C339 1.387 . S
C341 C343 1.390 . S
C341 H345 0.950 . S
H342 C338 0.950 . S
C343 C341 1.390 . S
C343 C344 1.387 . S
C343 H346 0.950 . S
C344 C343 1.387 . S
C344 C347 1.387 . S
H345 C341 0.950 . S
H346 C343 0.950 . S
C347 C338 1.390 . S
C347 H340 0.950 . S
C347 C344 1.387 . S
C348 C349 1.387 . S
C348 H352 0.950 . S
C348 C357 1.390 . S
C349 C348 1.387 . S
C349 C351 1.387 . S
H350 C357 0.950 . S
C351 C349 1.387 . S
C351 C353 1.390 . S
C351 H355 0.950 . S
H352 C348 0.950 . S
C353 C351 1.390 . S
C353 C354 1.387 . S
C353 H356 0.950 . S
C354 C353 1.387 . S
C354 C357 1.387 . S
H355 C351 0.950 . S
H356 C353 0.950 . S
C357 C348 1.390 . S
C357 H350 0.950 . S
C357 C354 1.387 . S
C358 C359 1.387 . S
C358 H362 0.950 . S
C358 C367 1.390 . S
C359 C358 1.387 . S
C359 C361 1.387 1_655 S
H360 C367 0.950 . S
C361 C359 1.387 1_455 S
C361 C363 1.390 . S
C361 H365 0.950 . S
H362 C358 0.950 . S
C363 C361 1.390 . S
C363 C364 1.387 . S
C363 H366 0.950 . S
C364 C363 1.387 . S
C364 C367 1.387 1_455 S
H365 C361 0.950 . S
H366 C363 0.950 . S
C367 C358 1.390 . S
C367 H360 0.950 . S
C367 C364 1.387 1_655 S
C368 C369 1.387 . S
C368 H372 0.950 . S
C368 C377 1.390 1_544 S
C369 C368 1.387 . S
C369 C371 1.387 . S
H370 C377 0.950 . S
C371 C369 1.387 . S
C371 C373 1.390 1_544 S
C371 H375 0.950 . S
H372 C368 0.950 . S
C373 C371 1.390 1_566 S
C373 C374 1.387 . S
C373 H376 0.950 . S
C374 C373 1.387 . S
C374 C377 1.387 . S
H375 C371 0.950 . S
H376 C373 0.950 . S
C377 C368 1.390 1_566 S
C377 H370 0.950 . S
C377 C374 1.387 . S
C378 C379 1.387 . S
C378 H382 0.950 . S
C378 C387 1.390 . S
C379 C378 1.387 . S
C379 C381 1.387 . S
H380 C387 0.950 . S
C381 C379 1.387 . S
C381 C383 1.390 . S
C381 H385 0.950 . S
H382 C378 0.950 . S
C383 C381 1.390 . S
C383 C384 1.387 . S
C383 H386 0.950 . S
C384 C383 1.387 . S
C384 C387 1.387 . S
H385 C381 0.950 . S
H386 C383 0.950 . S
C387 C378 1.390 . S
C387 H380 0.950 . S
C387 C384 1.387 . S
C388 C389 1.387 1_655 S
C388 H392 0.950 . S
C388 C397 1.390 . S
C389 C388 1.387 1_455 S
C389 C391 1.387 . S
H390 C397 0.950 . S
C391 C389 1.387 . S
C391 C393 1.390 . S
C391 H395 0.950 . S
H392 C388 0.950 . S
C393 C391 1.390 . S
C393 C394 1.387 1_455 S
C393 H396 0.950 . S
C394 C393 1.387 1_655 S
C394 C397 1.387 . S
H395 C391 0.950 . S
H396 C393 0.950 . S
C397 C388 1.390 . S
C397 H390 0.950 . S
C397 C394 1.387 . S
C398 C399 1.387 . S
C398 H402 0.950 . S
C398 C407 1.390 1_564 S
C399 C398 1.387 . S
C399 C401 1.387 . S
H400 C407 0.950 . S
C401 C399 1.387 . S
C401 C403 1.390 1_564 S
C401 H405 0.950 . S
H402 C398 0.950 . S
C403 C401 1.390 1_546 S
C403 C404 1.387 . S
C403 H406 0.950 . S
C404 C403 1.387 . S
C404 C407 1.387 . S
H405 C401 0.950 . S
H406 C403 0.950 . S
C407 C398 1.390 1_546 S
C407 H400 0.950 . S
C407 C404 1.387 . S
C169 C161 1.464 . S
C174 C7 1.463 . S
C179 C21 1.463 . S
C184 C91 1.463 . S
C189 C35 1.463 . S
C194 C105 1.465 . S
C199 C49 1.463 . S
C204 C119 1.464 . S
C209 C133 1.463 . S
C214 C63 1.463 . S
C219 C77 1.465 . S
C224 C147 1.465 . S
C229 C55 1.400 . S
C234 C13 1.400 . S
C239 C69 1.401 . S
C244 C27 1.401 . S
C249 C83 1.401 . S
C254 C41 1.401 . S
C259 C97 1.400 . S
C264 C139 1.400 . S
C269 C111 1.403 . S
C274 C153 1.403 . S
C279 C125 1.401 . S
C284 C167 1.401 . S
C289 C120 0.801 . S
C294 C8 0.803 . S
C299 C22 0.803 . S
C304 C134 0.803 . S
C309 C148 0.801 . S
C314 C36 0.799 . S
C319 C162 0.800 . S
C324 C50 0.802 . S
C329 C92 0.800 . S
C334 C64 0.800 . S
C339 C78 0.803 . S
C344 C106 0.801 . S
C349 C137 1.562 . S
C354 C11 1.562 . S
C359 C25 1.562 . S
C364 C151 1.562 . S
C369 C165 1.562 . S
C374 C39 1.563 . S
C379 C53 1.562 . S
C384 C95 1.562 . S
C389 C67 1.562 . S
C394 C109 1.562 . S
C399 C123 1.562 . S
C404 C81 1.562 . S
