# Generated by pormake.
# Topology wle, (5)-cn, num edge types: 1
# Building blocks:
#     Node 0, Type 0, BuildingBlock: XOMCOT_clean_sbu_0, # of connection points: 5
#     Node 1, Type 0, BuildingBlock: XOMCOT_clean_sbu_0, # of connection points: 5
#     Node 2, Type 0, BuildingBlock: XOMCOT_clean_sbu_0, # of connection points: 5
#     Node 3, Type 0, BuildingBlock: XOMCOT_clean_sbu_0, # of connection points: 5
#     Node 4, Type 0, BuildingBlock: XOMCOT_clean_sbu_0, # of connection points: 5
#     Node 5, Type 0, BuildingBlock: XOMCOT_clean_sbu_0, # of connection points: 5
#     Node 6, Type 0, BuildingBlock: XOMCOT_clean_sbu_0, # of connection points: 5
#     Node 7, Type 0, BuildingBlock: XOMCOT_clean_sbu_0, # of connection points: 5
#     Node 8, Type 0, BuildingBlock: XOMCOT_clean_sbu_0, # of connection points: 5
#     Node 9, Type 0, BuildingBlock: XOMCOT_clean_sbu_0, # of connection points: 5
#     Node 10, Type 0, BuildingBlock: XOMCOT_clean_sbu_0, # of connection points: 5
#     Node 11, Type 0, BuildingBlock: XOMCOT_clean_sbu_0, # of connection points: 5
#     Node 12, Type 0, BuildingBlock: XOMCOT_clean_sbu_0, # of connection points: 5
#     Node 13, Type 0, BuildingBlock: XOMCOT_clean_sbu_0, # of connection points: 5
#     Node 14, Type 0, BuildingBlock: XOMCOT_clean_sbu_0, # of connection points: 5
#     Node 15, Type 0, BuildingBlock: XOMCOT_clean_sbu_0, # of connection points: 5
#     Node 16, Type 0, BuildingBlock: XOMCOT_clean_sbu_0, # of connection points: 5
#     Node 17, Type 0, BuildingBlock: XOMCOT_clean_sbu_0, # of connection points: 5
#     Node 18, Type 0, BuildingBlock: XOMCOT_clean_sbu_0, # of connection points: 5
#     Node 19, Type 0, BuildingBlock: XOMCOT_clean_sbu_0, # of connection points: 5
#     Node 20, Type 0, BuildingBlock: XOMCOT_clean_sbu_0, # of connection points: 5
#     Node 21, Type 0, BuildingBlock: XOMCOT_clean_sbu_0, # of connection points: 5
#     Node 22, Type 0, BuildingBlock: XOMCOT_clean_sbu_0, # of connection points: 5
#     Node 23, Type 0, BuildingBlock: XOMCOT_clean_sbu_0, # of connection points: 5
#     Node 24, Type 0, BuildingBlock: XOMCOT_clean_sbu_0, # of connection points: 5
#     Node 25, Type 0, BuildingBlock: XOMCOT_clean_sbu_0, # of connection points: 5
#     Node 26, Type 0, BuildingBlock: XOMCOT_clean_sbu_0, # of connection points: 5
#     Node 27, Type 0, BuildingBlock: XOMCOT_clean_sbu_0, # of connection points: 5
#     Node 28, Type 0, BuildingBlock: XOMCOT_clean_sbu_0, # of connection points: 5
#     Node 29, Type 0, BuildingBlock: XOMCOT_clean_sbu_0, # of connection points: 5
#     Node 30, Type 0, BuildingBlock: XOMCOT_clean_sbu_0, # of connection points: 5
#     Node 31, Type 0, BuildingBlock: XOMCOT_clean_sbu_0, # of connection points: 5
#     Node 32, Type 0, BuildingBlock: XOMCOT_clean_sbu_0, # of connection points: 5
#     Node 33, Type 0, BuildingBlock: XOMCOT_clean_sbu_0, # of connection points: 5
#     Node 34, Type 0, BuildingBlock: XOMCOT_clean_sbu_0, # of connection points: 5
#     Node 35, Type 0, BuildingBlock: XOMCOT_clean_sbu_0, # of connection points: 5
#     Edge 36, Type (0, 0), BuildingBlock: CIFDUS_clean_linker_0, # of connection points: 2
#     Edge 37, Type (0, 0), BuildingBlock: CIFDUS_clean_linker_0, # of connection points: 2
#     Edge 38, Type (0, 0), BuildingBlock: CIFDUS_clean_linker_0, # of connection points: 2
#     Edge 39, Type (0, 0), BuildingBlock: CIFDUS_clean_linker_0, # of connection points: 2
#     Edge 40, Type (0, 0), BuildingBlock: CIFDUS_clean_linker_0, # of connection points: 2
#     Edge 41, Type (0, 0), BuildingBlock: CIFDUS_clean_linker_0, # of connection points: 2
#     Edge 42, Type (0, 0), BuildingBlock: CIFDUS_clean_linker_0, # of connection points: 2
#     Edge 43, Type (0, 0), BuildingBlock: CIFDUS_clean_linker_0, # of connection points: 2
#     Edge 44, Type (0, 0), BuildingBlock: CIFDUS_clean_linker_0, # of connection points: 2
#     Edge 45, Type (0, 0), BuildingBlock: CIFDUS_clean_linker_0, # of connection points: 2
#     Edge 46, Type (0, 0), BuildingBlock: CIFDUS_clean_linker_0, # of connection points: 2
#     Edge 47, Type (0, 0), BuildingBlock: CIFDUS_clean_linker_0, # of connection points: 2
#     Edge 48, Type (0, 0), BuildingBlock: CIFDUS_clean_linker_0, # of connection points: 2
#     Edge 49, Type (0, 0), BuildingBlock: CIFDUS_clean_linker_0, # of connection points: 2
#     Edge 50, Type (0, 0), BuildingBlock: CIFDUS_clean_linker_0, # of connection points: 2
#     Edge 51, Type (0, 0), BuildingBlock: CIFDUS_clean_linker_0, # of connection points: 2
#     Edge 52, Type (0, 0), BuildingBlock: CIFDUS_clean_linker_0, # of connection points: 2
#     Edge 53, Type (0, 0), BuildingBlock: CIFDUS_clean_linker_0, # of connection points: 2
#     Edge 54, Type (0, 0), BuildingBlock: CIFDUS_clean_linker_0, # of connection points: 2
#     Edge 55, Type (0, 0), BuildingBlock: CIFDUS_clean_linker_0, # of connection points: 2
#     Edge 56, Type (0, 0), BuildingBlock: CIFDUS_clean_linker_0, # of connection points: 2
#     Edge 57, Type (0, 0), BuildingBlock: CIFDUS_clean_linker_0, # of connection points: 2
#     Edge 58, Type (0, 0), BuildingBlock: CIFDUS_clean_linker_0, # of connection points: 2
#     Edge 59, Type (0, 0), BuildingBlock: CIFDUS_clean_linker_0, # of connection points: 2
#     Edge 60, Type (0, 0), BuildingBlock: CIFDUS_clean_linker_0, # of connection points: 2
#     Edge 61, Type (0, 0), BuildingBlock: CIFDUS_clean_linker_0, # of connection points: 2
#     Edge 62, Type (0, 0), BuildingBlock: CIFDUS_clean_linker_0, # of connection points: 2
#     Edge 63, Type (0, 0), BuildingBlock: CIFDUS_clean_linker_0, # of connection points: 2
#     Edge 64, Type (0, 0), BuildingBlock: CIFDUS_clean_linker_0, # of connection points: 2
#     Edge 65, Type (0, 0), BuildingBlock: CIFDUS_clean_linker_0, # of connection points: 2
#     Edge 66, Type (0, 0), BuildingBlock: CIFDUS_clean_linker_0, # of connection points: 2
#     Edge 67, Type (0, 0), BuildingBlock: CIFDUS_clean_linker_0, # of connection points: 2
#     Edge 68, Type (0, 0), BuildingBlock: CIFDUS_clean_linker_0, # of connection points: 2
#     Edge 69, Type (0, 0), BuildingBlock: CIFDUS_clean_linker_0, # of connection points: 2
#     Edge 70, Type (0, 0), BuildingBlock: CIFDUS_clean_linker_0, # of connection points: 2
#     Edge 71, Type (0, 0), BuildingBlock: CIFDUS_clean_linker_0, # of connection points: 2
#     Edge 72, Type (0, 0), BuildingBlock: CIFDUS_clean_linker_0, # of connection points: 2
#     Edge 73, Type (0, 0), BuildingBlock: CIFDUS_clean_linker_0, # of connection points: 2
#     Edge 74, Type (0, 0), BuildingBlock: CIFDUS_clean_linker_0, # of connection points: 2
#     Edge 75, Type (0, 0), BuildingBlock: CIFDUS_clean_linker_0, # of connection points: 2
#     Edge 76, Type (0, 0), BuildingBlock: CIFDUS_clean_linker_0, # of connection points: 2
#     Edge 77, Type (0, 0), BuildingBlock: CIFDUS_clean_linker_0, # of connection points: 2
#     Edge 78, Type (0, 0), BuildingBlock: CIFDUS_clean_linker_0, # of connection points: 2
#     Edge 79, Type (0, 0), BuildingBlock: CIFDUS_clean_linker_0, # of connection points: 2
#     Edge 80, Type (0, 0), BuildingBlock: CIFDUS_clean_linker_0, # of connection points: 2
#     Edge 81, Type (0, 0), BuildingBlock: CIFDUS_clean_linker_0, # of connection points: 2
#     Edge 82, Type (0, 0), BuildingBlock: CIFDUS_clean_linker_0, # of connection points: 2
#     Edge 83, Type (0, 0), BuildingBlock: CIFDUS_clean_linker_0, # of connection points: 2
#     Edge 84, Type (0, 0), BuildingBlock: CIFDUS_clean_linker_0, # of connection points: 2
#     Edge 85, Type (0, 0), BuildingBlock: CIFDUS_clean_linker_0, # of connection points: 2
#     Edge 86, Type (0, 0), BuildingBlock: CIFDUS_clean_linker_0, # of connection points: 2
#     Edge 87, Type (0, 0), BuildingBlock: CIFDUS_clean_linker_0, # of connection points: 2
#     Edge 88, Type (0, 0), BuildingBlock: CIFDUS_clean_linker_0, # of connection points: 2
#     Edge 89, Type (0, 0), BuildingBlock: CIFDUS_clean_linker_0, # of connection points: 2
#     Edge 90, Type (0, 0), BuildingBlock: CIFDUS_clean_linker_0, # of connection points: 2
#     Edge 91, Type (0, 0), BuildingBlock: CIFDUS_clean_linker_0, # of connection points: 2
#     Edge 92, Type (0, 0), BuildingBlock: CIFDUS_clean_linker_0, # of connection points: 2
#     Edge 93, Type (0, 0), BuildingBlock: CIFDUS_clean_linker_0, # of connection points: 2
#     Edge 94, Type (0, 0), BuildingBlock: CIFDUS_clean_linker_0, # of connection points: 2
#     Edge 95, Type (0, 0), BuildingBlock: CIFDUS_clean_linker_0, # of connection points: 2
#     Edge 96, Type (0, 0), BuildingBlock: CIFDUS_clean_linker_0, # of connection points: 2
#     Edge 97, Type (0, 0), BuildingBlock: CIFDUS_clean_linker_0, # of connection points: 2
#     Edge 98, Type (0, 0), BuildingBlock: CIFDUS_clean_linker_0, # of connection points: 2
#     Edge 99, Type (0, 0), BuildingBlock: CIFDUS_clean_linker_0, # of connection points: 2
#     Edge 100, Type (0, 0), BuildingBlock: CIFDUS_clean_linker_0, # of connection points: 2
#     Edge 101, Type (0, 0), BuildingBlock: CIFDUS_clean_linker_0, # of connection points: 2
#     Edge 102, Type (0, 0), BuildingBlock: CIFDUS_clean_linker_0, # of connection points: 2
#     Edge 103, Type (0, 0), BuildingBlock: CIFDUS_clean_linker_0, # of connection points: 2
#     Edge 104, Type (0, 0), BuildingBlock: CIFDUS_clean_linker_0, # of connection points: 2
#     Edge 105, Type (0, 0), BuildingBlock: CIFDUS_clean_linker_0, # of connection points: 2
#     Edge 106, Type (0, 0), BuildingBlock: CIFDUS_clean_linker_0, # of connection points: 2
#     Edge 107, Type (0, 0), BuildingBlock: CIFDUS_clean_linker_0, # of connection points: 2
#     Edge 108, Type (0, 0), BuildingBlock: CIFDUS_clean_linker_0, # of connection points: 2
#     Edge 109, Type (0, 0), BuildingBlock: CIFDUS_clean_linker_0, # of connection points: 2
#     Edge 110, Type (0, 0), BuildingBlock: CIFDUS_clean_linker_0, # of connection points: 2
#     Edge 111, Type (0, 0), BuildingBlock: CIFDUS_clean_linker_0, # of connection points: 2
#     Edge 112, Type (0, 0), BuildingBlock: CIFDUS_clean_linker_0, # of connection points: 2
#     Edge 113, Type (0, 0), BuildingBlock: CIFDUS_clean_linker_0, # of connection points: 2
#     Edge 114, Type (0, 0), BuildingBlock: CIFDUS_clean_linker_0, # of connection points: 2
#     Edge 115, Type (0, 0), BuildingBlock: CIFDUS_clean_linker_0, # of connection points: 2
#     Edge 116, Type (0, 0), BuildingBlock: CIFDUS_clean_linker_0, # of connection points: 2
#     Edge 117, Type (0, 0), BuildingBlock: CIFDUS_clean_linker_0, # of connection points: 2
#     Edge 118, Type (0, 0), BuildingBlock: CIFDUS_clean_linker_0, # of connection points: 2
#     Edge 119, Type (0, 0), BuildingBlock: CIFDUS_clean_linker_0, # of connection points: 2
#     Edge 120, Type (0, 0), BuildingBlock: CIFDUS_clean_linker_0, # of connection points: 2
#     Edge 121, Type (0, 0), BuildingBlock: CIFDUS_clean_linker_0, # of connection points: 2
#     Edge 122, Type (0, 0), BuildingBlock: CIFDUS_clean_linker_0, # of connection points: 2
#     Edge 123, Type (0, 0), BuildingBlock: CIFDUS_clean_linker_0, # of connection points: 2
#     Edge 124, Type (0, 0), BuildingBlock: CIFDUS_clean_linker_0, # of connection points: 2
#     Edge 125, Type (0, 0), BuildingBlock: CIFDUS_clean_linker_0, # of connection points: 2
# Relax obj value: 0.396
# Max RMSD: 0.262
# Mean RMSD: 0.262
data_MOF--net-wle--node1-XOMCOT_clean_sbu_0--edge1-CIFDUS_clean_linker_0
_symmetry_space_group_name_H-M    P1
_symmetry_Int_Tables_number       1
_symmetry_cell_setting            triclinic
loop_
_symmetry_equiv_pos_as_xyz
'x, y, z'
_cell_length_a     87.304204
_cell_length_b     87.346636
_cell_length_c     25.480119
_cell_angle_alpha  90.018412
_cell_angle_beta   89.969163
_cell_angle_gamma 119.98665
loop_
_atom_site_label
_atom_site_type_symbol
_atom_site_fract_x
_atom_site_fract_y
_atom_site_fract_z
_atom_type_partial_charge
Co0 Co 0.26272 0.10034 0.11667 0.0
C1 C 0.2432 0.10578 0.20258 0.0
C2 C 0.24458 0.12081 0.13469 0.0
C3 C 0.23733 0.12551 0.17552 0.0
N4 N 0.24807 0.10824 0.15157 0.0
N5 N 0.23663 0.11613 0.21841 0.0
H6 H 0.24533 0.09738 0.22872 0.0
H7 H 0.24806 0.12692 0.09633 0.0
C8 C 0.23464 0.09318 0.03333 0.0
O9 O 0.22229 0.09 0.06811 0.0
N10 N 0.2776 0.0929 0.08241 0.0
C11 C 0.28295 0.0818 0.10025 0.0
C12 C 0.29529 0.08213 0.06576 0.0
C13 C 0.28674 0.09984 0.03782 0.0
N14 N 0.29774 0.0936 0.02679 0.0
C15 C 0.25037 0.07261 0.19177 0.0
C16 C 0.22561 0.0455 0.13041 0.0
C17 C 0.22833 0.04192 0.18216 0.0
C18 C 0.24086 0.05577 0.21279 0.0
C19 C 0.23558 0.06273 0.11057 0.0
N20 N 0.24749 0.0762 0.14172 0.0
H21 H 0.26029 0.08274 0.21632 0.0
H22 H 0.23399 0.06488 0.06987 0.0
H23 H 0.27884 0.07459 0.1368 0.0
H24 H 0.28573 0.10973 0.01491 0.0
O25 O 0.27919 0.10939 0.1745 0.0
O26 O 0.28053 0.12469 0.10379 0.0
O27 O 0.24995 0.09642 0.04789 0.0
C28 C 0.28745 0.12406 0.14832 0.0
H29 H 0.23402 0.13591 0.1746 0.0
H30 H 0.30259 0.07521 0.07057 0.0
H31 H 0.21629 0.035 0.1051 0.0
H32 H 0.24338 0.05362 0.25298 0.0
Co33 Co 0.89252 0.15547 0.12693 0.0
C34 C 0.88526 0.12886 0.20886 0.0
C35 C 0.86867 0.11731 0.14182 0.0
C36 C 0.86248 0.10514 0.18211 0.0
N37 N 0.88313 0.13219 0.15834 0.0
N38 N 0.87289 0.1125 0.22444 0.0
H39 H 0.89427 0.13877 0.23583 0.0
H40 H 0.86216 0.11594 0.10458 0.0
C41 C 0.89564 0.13404 0.03535 0.0
O42 O 0.89351 0.12068 0.06421 0.0
N43 N 0.9014 0.17861 0.09652 0.0
C44 C 0.91323 0.19448 0.11651 0.0
C45 C 0.9141 0.2075 0.0839 0.0
C46 C 0.89518 0.18213 0.05256 0.0
N47 N 0.90262 0.19967 0.044 0.0
C48 C 0.92076 0.16844 0.2014 0.0
C49 C 0.94643 0.1696 0.13557 0.0
C50 C 0.95099 0.17564 0.18731 0.0
C51 C 0.93785 0.17487 0.22042 0.0
C52 C 0.92907 0.16309 0.11812 0.0
N53 N 0.91636 0.16241 0.15106 0.0
H54 H 0.91118 0.16882 0.22722 0.0
H55 H 0.92627 0.15923 0.07763 0.0
H56 H 0.92022 0.19654 0.15314 0.0
H57 H 0.88505 0.172 0.02811 0.0
O58 O 0.88399 0.1627 0.18687 0.0
O59 O 0.86875 0.15063 0.11429 0.0
O60 O 0.89612 0.14759 0.05595 0.0
C61 C 0.86951 0.15745 0.16016 0.0
H62 H 0.85051 0.09237 0.18137 0.0
H63 H 0.9219 0.22161 0.09046 0.0
H64 H 0.95626 0.17011 0.10854 0.0
H65 H 0.94088 0.17986 0.26023 0.0
Co66 Co 0.84009 0.73818 0.11171 0.0
C67 C 0.86527 0.75924 0.19393 0.0
C68 C 0.87887 0.76192 0.12176 0.0
C69 C 0.89122 0.77024 0.16108 0.0
N70 N 0.86256 0.75531 0.14236 0.0
N71 N 0.8826 0.76844 0.20675 0.0
H72 H 0.8548 0.75386 0.22246 0.0
H73 H 0.88163 0.75985 0.08182 0.0
C74 C 0.85627 0.76432 0.01842 0.0
O75 O 0.86623 0.77851 0.04643 0.0
N76 N 0.81789 0.72078 0.08179 0.0
C77 C 0.80154 0.71332 0.10269 0.0
C78 C 0.79034 0.69891 0.07228 0.0
C79 C 0.81647 0.71093 0.03955 0.0
N80 N 0.79987 0.69737 0.03303 0.0
C81 C 0.82433 0.75008 0.18741 0.0
C82 C 0.81989 0.77325 0.12452 0.0
C83 C 0.81596 0.77243 0.17827 0.0
C84 C 0.81804 0.76042 0.20947 0.0
C85 C 0.82639 0.76271 0.10401 0.0
N86 N 0.82932 0.75186 0.13595 0.0
H87 H 0.82541 0.74078 0.21262 0.0
H88 H 0.82878 0.76327 0.06247 0.0
H89 H 0.7982 0.71734 0.13905 0.0
H90 H 0.82766 0.71319 0.01563 0.0
O91 O 0.83535 0.72304 0.17203 0.0
O92 O 0.8491 0.7223 0.09988 0.0
O93 O 0.84624 0.74948 0.04037 0.0
C94 C 0.84257 0.71559 0.14554 0.0
H95 H 0.90539 0.77626 0.15656 0.0
H96 H 0.77655 0.68967 0.08039 0.0
H97 H 0.81785 0.78185 0.09841 0.0
H98 H 0.81521 0.7592 0.25112 0.0
Co99 Co 0.10308 0.25352 0.3937 0.0
C100 C 0.12054 0.24431 0.30949 0.0
C101 C 0.10424 0.22169 0.35684 0.0
C102 C 0.10978 0.21625 0.31349 0.0
N103 N 0.1108 0.23934 0.35411 0.0
N104 N 0.11999 0.23053 0.28378 0.0
H105 H 0.12665 0.25745 0.29309 0.0
H106 H 0.09493 0.21303 0.38565 0.0
C107 C 0.09124 0.22622 0.48449 0.0
O108 O 0.07743 0.21355 0.46035 0.0
N109 N 0.09592 0.26793 0.43233 0.0
C110 C 0.08617 0.27481 0.41415 0.0
C111 C 0.08793 0.28785 0.44816 0.0
C112 C 0.10355 0.27688 0.47671 0.0
N113 N 0.09902 0.28927 0.48726 0.0
C114 C 0.07555 0.23295 0.32139 0.0
C115 C 0.04736 0.22287 0.38899 0.0
C116 C 0.04395 0.21765 0.33612 0.0
C117 C 0.0584 0.22269 0.30246 0.0
C118 C 0.06482 0.23293 0.40658 0.0
N119 N 0.07868 0.2376 0.37304 0.0
H120 H 0.08637 0.23748 0.29395 0.0
H121 H 0.0672 0.23725 0.44702 0.0
H122 H 0.07932 0.27148 0.37689 0.0
H123 H 0.11309 0.27506 0.49878 0.0
O124 O 0.10984 0.27026 0.3365 0.0
O125 O 0.12724 0.27194 0.40247 0.0
O126 O 0.1016 0.24077 0.4613 0.0
C127 C 0.12496 0.27914 0.36074 0.0
H128 H 0.10587 0.20275 0.30334 0.0
H129 H 0.0825 0.29647 0.44222 0.0
H130 H 0.03666 0.21969 0.41626 0.0
H131 H 0.05656 0.21894 0.26145 0.0
Co132 Co 0.7416 0.84786 0.39511 0.0
C133 C 0.7506 0.87407 0.3096 0.0
C134 C 0.77317 0.88062 0.3576 0.0
C135 C 0.77862 0.89165 0.3144 0.0
N136 N 0.75557 0.86941 0.35433 0.0
N137 N 0.76437 0.88745 0.28433 0.0
H138 H 0.73749 0.8669 0.29296 0.0
H139 H 0.78175 0.87999 0.38689 0.0
C140 C 0.76817 0.86488 0.48743 0.0
O141 O 0.78066 0.86215 0.46916 0.0
N142 N 0.72745 0.82659 0.4354 0.0
C143 C 0.72104 0.80984 0.41881 0.0
C144 C 0.70837 0.79862 0.45378 0.0
C145 C 0.7185 0.82538 0.47978 0.0
N146 N 0.70665 0.80841 0.49192 0.0
C147 C 0.76196 0.84026 0.3247 0.0
C148 C 0.77136 0.82195 0.39358 0.0
C149 C 0.77536 0.82229 0.34004 0.0
C150 C 0.77083 0.8319 0.30575 0.0
C151 C 0.76252 0.83066 0.41108 0.0
N152 N 0.75793 0.83969 0.37668 0.0
H153 H 0.75741 0.84638 0.29674 0.0
H154 H 0.7586 0.82941 0.45182 0.0
H155 H 0.72452 0.80613 0.38208 0.0
H156 H 0.72 0.83679 0.50089 0.0
O157 O 0.72522 0.83701 0.33766 0.0
O158 O 0.7228 0.8531 0.40127 0.0
O159 O 0.75402 0.86035 0.46154 0.0
C160 C 0.71598 0.84319 0.36003 0.0
H161 H 0.79212 0.90138 0.30461 0.0
H162 H 0.70018 0.78446 0.44924 0.0
H163 H 0.77453 0.81456 0.42139 0.0
H164 H 0.77312 0.83207 0.26391 0.0
Co165 Co 0.14327 0.89073 0.37803 0.0
C166 C 0.11534 0.87144 0.29855 0.0
C167 C 0.10868 0.88712 0.34758 0.0
C168 C 0.09729 0.88125 0.30525 0.0
N169 N 0.1203 0.88125 0.34305 0.0
N170 N 0.10162 0.87148 0.27439 0.0
H171 H 0.12275 0.86597 0.28056 0.0
H172 H 0.10928 0.89637 0.3765 0.0
C173 C 0.12877 0.90346 0.46923 0.0
O174 O 0.12899 0.91657 0.44346 0.0
N175 N 0.166 0.89975 0.41183 0.0
C176 C 0.18194 0.91047 0.39011 0.0
C177 C 0.19483 0.91115 0.42263 0.0
C178 C 0.16936 0.89375 0.45663 0.0
N179 N 0.1869 0.90052 0.46419 0.0
C180 C 0.14735 0.91611 0.30117 0.0
C181 C 0.16665 0.94594 0.36183 0.0
C182 C 0.16382 0.94783 0.30868 0.0
C183 C 0.15377 0.9327 0.27851 0.0
C184 C 0.15961 0.92903 0.38336 0.0
N185 N 0.15004 0.91433 0.35308 0.0
H186 H 0.14087 0.90466 0.27611 0.0
H187 H 0.16243 0.92773 0.42391 0.0
H188 H 0.18399 0.91662 0.35194 0.0
H189 H 0.15914 0.88401 0.48177 0.0
O190 O 0.15243 0.88338 0.32014 0.0
O191 O 0.13891 0.86718 0.39046 0.0
O192 O 0.13321 0.89312 0.44701 0.0
C193 C 0.14734 0.86887 0.34679 0.0
H194 H 0.0874 0.88485 0.29613 0.0
H195 H 0.20889 0.91802 0.4146 0.0
H196 H 0.17463 0.95741 0.38608 0.0
H197 H 0.15179 0.93367 0.23693 0.0
Co198 Co 0.73814 0.89364 0.89486 0.0
C199 C 0.75994 0.89122 0.81065 0.0
C200 C 0.75808 0.87508 0.87618 0.0
C201 C 0.7659 0.87128 0.83489 0.0
N202 N 0.75445 0.88771 0.861 0.0
N203 N 0.76686 0.88133 0.79339 0.0
H204 H 0.7578 0.89992 0.78581 0.0
H205 H 0.75412 0.86817 0.91331 0.0
C206 C 0.76677 0.90309 0.97748 0.0
O207 O 0.77889 0.90604 0.94212 0.0
N208 N 0.72146 0.89901 0.92764 0.0
C209 C 0.71168 0.90497 0.90369 0.0
C210 C 0.69843 0.90292 0.93739 0.0
C211 C 0.71412 0.89348 0.97545 0.0
N212 N 0.70005 0.89573 0.98234 0.0
C213 C 0.74716 0.92087 0.81946 0.0
C214 C 0.77207 0.94916 0.87702 0.0
C215 C 0.76779 0.95208 0.8264 0.0
C216 C 0.75524 0.93766 0.79764 0.0
C217 C 0.76349 0.93196 0.89783 0.0
N218 N 0.75142 0.91793 0.86861 0.0
H219 H 0.73739 0.91023 0.79598 0.0
H220 H 0.76633 0.93029 0.93776 0.0
H221 H 0.71326 0.90933 0.86336 0.0
H222 H 0.71805 0.88663 1.0029 0.0
O223 O 0.72208 0.88295 0.83686 0.0
O224 O 0.72202 0.86879 0.90885 0.0
O225 O 0.75121 0.89926 0.96366 0.0
C226 C 0.71486 0.86841 0.86377 0.0
H227 H 0.76922 0.86089 0.83429 0.0
H228 H 0.68796 0.90577 0.92881 0.0
H229 H 0.78148 0.96011 0.90085 0.0
H230 H 0.75157 0.93933 0.75833 0.0
Co231 Co 0.09528 0.83941 0.88564 0.0
C232 C 0.09961 0.8606 0.79228 0.0
C233 C 0.11341 0.87743 0.85705 0.0
C234 C 0.11829 0.88749 0.8116 0.0
N235 N 0.10149 0.86053 0.84484 0.0
N236 N 0.10967 0.87672 0.77099 0.0
H237 H 0.09266 0.84883 0.7688 0.0
H238 H 0.11943 0.88181 0.89525 0.0
C239 C 0.08814 0.86144 0.96601 0.0
O240 O 0.08476 0.87032 0.93076 0.0
N241 N 0.08954 0.81842 0.92509 0.0
C242 C 0.07968 0.80146 0.90977 0.0
C243 C 0.08231 0.79096 0.94477 0.0
C244 C 0.09798 0.81804 0.96882 0.0
N245 N 0.09399 0.80145 0.98158 0.0
C246 C 0.06645 0.82126 0.81485 0.0
C247 C 0.04042 0.82177 0.87486 0.0
C248 C 0.03639 0.8152 0.82336 0.0
C249 C 0.04968 0.8148 0.79373 0.0
C250 C 0.05759 0.82838 0.89438 0.0
N251 N 0.07063 0.82885 0.86345 0.0
H252 H 0.07614 0.82033 0.7911 0.0
H253 H 0.0601 0.83281 0.93445 0.0
H254 H 0.0721 0.79711 0.87389 0.0
H255 H 0.1076 0.82986 0.98906 0.0
O256 O 0.10416 0.83109 0.82965 0.0
O257 O 0.12012 0.84757 0.89637 0.0
O258 O 0.09165 0.8495 0.95227 0.0
C259 C 0.11926 0.83897 0.85384 0.0
H260 H 0.12869 0.90114 0.80803 0.0
H261 H 0.07702 0.77685 0.94109 0.0
H262 H 0.03039 0.82171 0.90003 0.0
H263 H 0.04737 0.80989 0.75383 0.0
Co264 Co 0.15829 0.25761 0.89817 0.0
C265 C 0.13621 0.24246 0.80488 0.0
C266 C 0.11988 0.2388 0.87155 0.0
C267 C 0.10943 0.23385 0.82684 0.0
N268 N 0.13671 0.24395 0.85767 0.0
N269 N 0.11989 0.23635 0.78507 0.0
H270 H 0.14776 0.2474 0.78035 0.0
H271 H 0.11573 0.23994 0.91066 0.0
C272 C 0.13544 0.22852 0.97732 0.0
O273 O 0.12719 0.21636 0.94129 0.0
N274 N 0.17989 0.27161 0.93692 0.0
C275 C 0.19637 0.27575 0.92248 0.0
C276 C 0.20822 0.28798 0.95726 0.0
C277 C 0.18191 0.28143 0.97992 0.0
N278 N 0.19912 0.29164 0.9931 0.0
C279 C 0.1737 0.24423 0.82553 0.0
C280 C 0.1746 0.21944 0.89058 0.0
C281 C 0.18028 0.22077 0.83846 0.0
C282 C 0.17996 0.23351 0.80606 0.0
C283 C 0.16821 0.23036 0.90841 0.0
N284 N 0.1671 0.24209 0.87529 0.0
H285 H 0.17469 0.25464 0.80064 0.0
H286 H 0.16475 0.22963 0.94922 0.0
H287 H 0.1997 0.27094 0.88771 0.0
H288 H 0.17103 0.28152 0.99997 0.0
O289 O 0.16753 0.27509 0.84254 0.0
O290 O 0.15176 0.27533 0.91034 0.0
O291 O 0.14752 0.24405 0.96465 0.0
C292 C 0.16037 0.2829 0.86771 0.0
H293 H 0.09566 0.2303 0.82476 0.0
H294 H 0.22249 0.29443 0.95452 0.0
H295 H 0.17516 0.21011 0.91738 0.0
H296 H 0.18506 0.23558 0.76634 0.0
Co297 Co 0.88618 0.74317 0.60581 0.0
C298 C 0.87305 0.7569 0.69103 0.0
C299 C 0.88699 0.77666 0.63258 0.0
C300 C 0.88387 0.78452 0.67503 0.0
N301 N 0.88045 0.75932 0.64278 0.0
N302 N 0.87526 0.77209 0.71197 0.0
H303 H 0.86791 0.74476 0.71313 0.0
H304 H 0.89479 0.78361 0.59882 0.0
C305 C 0.89972 0.76917 0.51187 0.0
O306 O 0.91515 0.78027 0.53228 0.0
N307 N 0.89153 0.72691 0.5697 0.0
C308 C 0.90036 0.7193 0.58985 0.0
C309 C 0.89895 0.70647 0.5557 0.0
C310 C 0.88459 0.71843 0.52408 0.0
N311 N 0.88896 0.70585 0.51446 0.0
C312 C 0.91447 0.76267 0.67682 0.0
C313 C 0.94188 0.76808 0.61109 0.0
C314 C 0.94555 0.77333 0.66378 0.0
C315 C 0.9316 0.77073 0.69649 0.0
C316 C 0.92446 0.76017 0.59277 0.0
N317 N 0.91097 0.75772 0.62541 0.0
H318 H 0.90389 0.75952 0.70413 0.0
H319 H 0.92175 0.75548 0.5527 0.0
H320 H 0.90672 0.72234 0.62787 0.0
H321 H 0.876 0.721 0.49961 0.0
O322 O 0.87868 0.72735 0.66517 0.0
O323 O 0.86142 0.72601 0.59923 0.0
O324 O 0.88823 0.75559 0.537 0.0
C325 C 0.86327 0.71909 0.6423 0.0
H326 H 0.88857 0.79849 0.67962 0.0
H327 H 0.90405 0.69759 0.56231 0.0
H328 H 0.95229 0.76968 0.58461 0.0
H329 H 0.93371 0.77396 0.73788 0.0
Co330 Co 0.25816 0.15054 0.61828 0.0
C331 C 0.25162 0.12416 0.70141 0.0
C332 C 0.22899 0.11553 0.65178 0.0
C333 C 0.22421 0.10443 0.69475 0.0
N334 N 0.24617 0.12812 0.65628 0.0
N335 N 0.23848 0.10997 0.72592 0.0
H336 H 0.26441 0.13245 0.71914 0.0
H337 H 0.22007 0.11531 0.62209 0.0
C338 C 0.23253 0.13279 0.52368 0.0
O339 O 0.21895 0.13381 0.54137 0.0
N340 N 0.27034 0.17277 0.58101 0.0
C341 C 0.27425 0.18875 0.59977 0.0
C342 C 0.28609 0.20157 0.56627 0.0
C343 C 0.28007 0.17606 0.537 0.0
N344 N 0.28987 0.19358 0.5271 0.0
C345 C 0.23516 0.15341 0.69118 0.0
C346 C 0.2227 0.17005 0.62617 0.0
C347 C 0.21805 0.16797 0.67959 0.0
C348 C 0.22402 0.159 0.71164 0.0
C349 C 0.23358 0.1638 0.60686 0.0
N350 N 0.23973 0.15564 0.63937 0.0
H351 H 0.24073 0.14792 0.71787 0.0
H352 H 0.23781 0.16636 0.56635 0.0
H353 H 0.26964 0.19097 0.63685 0.0
H354 H 0.28065 0.16588 0.51438 0.0
O355 O 0.27436 0.16187 0.67623 0.0
O356 O 0.27857 0.14809 0.60919 0.0
O357 O 0.24664 0.13829 0.55062 0.0
C358 C 0.28473 0.15751 0.65154 0.0
H359 H 0.21104 0.09378 0.70384 0.0
H360 H 0.29238 0.2157 0.57232 0.0
H361 H 0.21873 0.17721 0.60001 0.0
H362 H 0.22064 0.1568 0.7529 0.0
Co363 Co 0.84121 0.10265 0.61124 0.0
C364 C 0.86279 0.10643 0.7042 0.0
C365 C 0.87753 0.12703 0.64856 0.0
C366 C 0.88724 0.13075 0.69418 0.0
N367 N 0.8623 0.11157 0.65445 0.0
N368 N 0.87789 0.11782 0.72931 0.0
H369 H 0.85164 0.09545 0.72327 0.0
H370 H 0.88092 0.13551 0.6145 0.0
C371 C 0.86778 0.1018 0.53382 0.0
O372 O 0.88036 0.10663 0.56885 0.0
N373 N 0.81994 0.09374 0.56842 0.0
C374 C 0.81044 0.07721 0.54901 0.0
C375 C 0.79801 0.07655 0.51463 0.0
C376 C 0.8133 0.10299 0.54435 0.0
N377 N 0.79987 0.0928 0.51139 0.0
C378 C 0.81808 0.07198 0.66812 0.0
C379 C 0.83647 0.054 0.65728 0.0
C380 C 0.82111 0.04661 0.68841 0.0
C381 C 0.812 0.05595 0.69369 0.0
C382 C 0.84226 0.07034 0.63256 0.0
N383 N 0.83303 0.07905 0.63825 0.0
H384 H 0.81077 0.07888 0.67263 0.0
H385 H 0.85433 0.07611 0.61006 0.0
H386 H 0.81281 0.06643 0.55715 0.0
H387 H 0.81877 0.11709 0.5483 0.0
O388 O 0.83117 0.11058 0.66455 0.0
O389 O 0.84691 0.12671 0.59683 0.0
O390 O 0.8524 0.09877 0.54702 0.0
C391 C 0.83801 0.12546 0.63927 0.0
H392 H 0.89983 0.14252 0.70161 0.0
H393 H 0.78867 0.06503 0.49266 0.0
H394 H 0.84391 0.04724 0.65197 0.0
H395 H 0.80034 0.05108 0.71817 0.0
Co396 Co 0.92611 0.4401 0.44803 0.0
C397 C 0.91102 0.45476 0.52296 0.0
C398 C 0.89239 0.4405 0.46219 0.0
C399 C 0.88393 0.44459 0.50097 0.0
N400 N 0.90938 0.44664 0.47647 0.0
N401 N 0.89568 0.45329 0.53942 0.0
H402 H 0.92266 0.46006 0.54744 0.0
H403 H 0.88599 0.43218 0.42874 0.0
C404 C 0.90308 0.42675 0.3477 0.0
O405 O 0.89093 0.41144 0.36645 0.0
N406 N 0.9431 0.4342 0.42021 0.0
C407 C 0.95089 0.4267 0.44746 0.0
C408 C 0.96544 0.42897 0.41995 0.0
C409 C 0.95292 0.44086 0.37648 0.0
N410 N 0.96663 0.43785 0.37552 0.0
C411 C 0.90278 0.41201 0.51592 0.0
C412 C 0.90071 0.38459 0.45667 0.0
C413 C 0.89254 0.38077 0.50632 0.0
C414 C 0.89325 0.39482 0.53505 0.0
C415 C 0.90941 0.40195 0.43784 0.0
N416 N 0.91052 0.41549 0.46757 0.0
H417 H 0.90438 0.42256 0.54129 0.0
H418 H 0.91582 0.40457 0.39996 0.0
H419 H 0.94699 0.4211 0.48634 0.0
H420 H 0.95102 0.44908 0.34844 0.0
O421 O 0.9403 0.44806 0.51121 0.0
O422 O 0.94357 0.46457 0.44114 0.0
O423 O 0.91598 0.43776 0.37589 0.0
C424 C 0.94932 0.46316 0.48692 0.0
H425 H 0.8699 0.43995 0.50321 0.0
H426 H 0.97493 0.4252 0.4327 0.0
H427 H 0.90102 0.37449 0.43293 0.0
H428 H 0.88688 0.39283 0.57282 0.0
Co429 Co 0.56085 0.48652 0.43801 0.0
C430 C 0.54583 0.46345 0.53078 0.0
C431 C 0.55037 0.44925 0.47028 0.0
C432 C 0.54409 0.43858 0.51435 0.0
N433 N 0.55186 0.4651 0.48099 0.0
N434 N 0.54122 0.44763 0.55214 0.0
H435 H 0.54544 0.47389 0.5524 0.0
H436 H 0.55334 0.44535 0.4333 0.0
C437 C 0.57203 0.46769 0.35679 0.0
O438 O 0.58231 0.4651 0.38876 0.0
N439 N 0.56907 0.50756 0.39613 0.0
C440 C 0.57941 0.52448 0.41117 0.0
C441 C 0.57765 0.53525 0.37494 0.0
C442 C 0.56127 0.50823 0.35143 0.0
N443 N 0.56602 0.52495 0.33773 0.0
C444 C 0.58761 0.49498 0.51413 0.0
C445 C 0.61617 0.50759 0.44673 0.0
C446 C 0.61904 0.50781 0.50104 0.0
C447 C 0.60444 0.50128 0.53466 0.0
C448 C 0.59893 0.50103 0.42766 0.0
N449 N 0.58486 0.49442 0.46133 0.0
H450 H 0.57683 0.49102 0.5412 0.0
H451 H 0.59694 0.50159 0.386 0.0
H452 H 0.5865 0.5286 0.44798 0.0
H453 H 0.55122 0.49652 0.33184 0.0
O454 O 0.5542 0.49772 0.49163 0.0
O455 O 0.5369 0.48136 0.42645 0.0
O456 O 0.56294 0.47453 0.37299 0.0
C457 C 0.53908 0.49115 0.4674 0.0
H458 H 0.54165 0.4252 0.5181 0.0
H459 H 0.58331 0.54941 0.37838 0.0
H460 H 0.62715 0.51291 0.41943 0.0
H461 H 0.60597 0.50118 0.57682 0.0
Co462 Co 0.50606 0.06964 0.45688 0.0
C463 C 0.53216 0.07866 0.54314 0.0
C464 C 0.53907 0.10124 0.49494 0.0
C465 C 0.54974 0.10663 0.53909 0.0
N466 N 0.52783 0.08364 0.49762 0.0
N467 N 0.54528 0.09236 0.56945 0.0
H468 H 0.52482 0.06557 0.55971 0.0
H469 H 0.53869 0.10988 0.46541 0.0
C470 C 0.52209 0.09733 0.36651 0.0
O471 O 0.5194 0.10953 0.38723 0.0
N472 N 0.48437 0.05532 0.41793 0.0
C473 C 0.46795 0.05009 0.43584 0.0
C474 C 0.45584 0.03785 0.40177 0.0
C475 C 0.48201 0.04575 0.37381 0.0
N476 N 0.46463 0.03502 0.36293 0.0
C477 C 0.49894 0.08968 0.53091 0.0
C478 C 0.48242 0.10167 0.46369 0.0
C479 C 0.48451 0.10682 0.51666 0.0
C480 C 0.49293 0.10063 0.55027 0.0
C481 C 0.48893 0.09087 0.44571 0.0
N482 N 0.49756 0.08544 0.47893 0.0
H483 H 0.50465 0.08447 0.55814 0.0
H484 H 0.4869 0.08672 0.40509 0.0
H485 H 0.46499 0.05426 0.47257 0.0
H486 H 0.49274 0.04617 0.35137 0.0
O487 O 0.49614 0.05244 0.51302 0.0
O488 O 0.51226 0.0518 0.44637 0.0
O489 O 0.51791 0.08292 0.39046 0.0
C490 C 0.50322 0.04435 0.48852 0.0
H491 H 0.55941 0.12011 0.54915 0.0
H492 H 0.44162 0.03081 0.40684 0.0
H493 H 0.47553 0.10564 0.43649 0.0
H494 H 0.49494 0.1042 0.59141 0.0
Co495 Co 0.76848 0.5923 0.71857 0.0
C496 C 0.78709 0.58545 0.63199 0.0
C497 C 0.77362 0.56297 0.68244 0.0
C498 C 0.77966 0.55812 0.63904 0.0
N499 N 0.77814 0.58012 0.67791 0.0
N500 N 0.78806 0.57228 0.60733 0.0
H501 H 0.79147 0.59822 0.61431 0.0
H502 H 0.76532 0.55414 0.71285 0.0
C503 C 0.76096 0.56587 0.81111 0.0
O504 O 0.74639 0.5523 0.7933 0.0
N505 N 0.759 0.60447 0.75849 0.0
C506 C 0.74712 0.60895 0.74182 0.0
C507 C 0.74587 0.61975 0.77883 0.0
C508 C 0.76499 0.61274 0.80484 0.0
N509 N 0.7572 0.62223 0.81824 0.0
C510 C 0.74173 0.57115 0.64567 0.0
C511 C 0.71344 0.55764 0.7142 0.0
C512 C 0.71016 0.55442 0.66016 0.0
C513 C 0.72466 0.56109 0.62598 0.0
C514 C 0.7308 0.56792 0.73228 0.0
N515 N 0.74471 0.57449 0.69809 0.0
H516 H 0.75256 0.57716 0.61815 0.0
H517 H 0.73299 0.57136 0.77341 0.0
H518 H 0.74045 0.60527 0.7043 0.0
H519 H 0.77535 0.61237 0.82709 0.0
O520 O 0.77338 0.60903 0.66209 0.0
O521 O 0.79167 0.6124 0.7273 0.0
O522 O 0.76933 0.58017 0.78485 0.0
C523 C 0.78837 0.619 0.68602 0.0
H524 H 0.77731 0.54498 0.63033 0.0
H525 H 0.73803 0.62616 0.77538 0.0
H526 H 0.70267 0.55278 0.74216 0.0
H527 H 0.72287 0.5595 0.58389 0.0
Co528 Co 0.4091 0.1835 0.72608 0.0
C529 C 0.42879 0.20871 0.64136 0.0
C530 C 0.42573 0.22168 0.70843 0.0
C531 C 0.43142 0.23332 0.66681 0.0
N532 N 0.42415 0.2062 0.69269 0.0
N533 N 0.43322 0.22507 0.62454 0.0
H534 H 0.42676 0.19826 0.61485 0.0
H535 H 0.4213 0.22379 0.74601 0.0
C536 C 0.43517 0.20429 0.81549 0.0
O537 O 0.44669 0.21722 0.78588 0.0
N538 N 0.39364 0.16105 0.75868 0.0
C539 C 0.38709 0.14467 0.73873 0.0
C540 C 0.37389 0.13287 0.77169 0.0
C541 C 0.38444 0.15906 0.80298 0.0
N542 N 0.37215 0.14202 0.81172 0.0
C543 C 0.42191 0.168 0.65199 0.0
C544 C 0.44501 0.16433 0.71761 0.0
C545 C 0.44273 0.15788 0.66613 0.0
C546 C 0.4311 0.15993 0.63315 0.0
C547 C 0.43565 0.17253 0.73489 0.0
N548 N 0.42432 0.17445 0.70203 0.0
H549 H 0.41239 0.16852 0.62627 0.0
H550 H 0.43719 0.17665 0.77524 0.0
H551 H 0.39083 0.1416 0.70144 0.0
H552 H 0.38619 0.17005 0.8269 0.0
O553 O 0.39315 0.17676 0.66711 0.0
O554 O 0.39143 0.19024 0.73862 0.0
O555 O 0.42133 0.19127 0.796 0.0
C556 C 0.38478 0.18304 0.69351 0.0
H557 H 0.43265 0.24628 0.66651 0.0
H558 H 0.36548 0.11884 0.76485 0.0
H559 H 0.45377 0.16284 0.74456 0.0
H560 H 0.42852 0.15467 0.5936 0.0
Co561 Co 0.82311 0.23072 0.72975 0.0
C562 C 0.79592 0.21427 0.64658 0.0
C563 C 0.78947 0.22949 0.69838 0.0
C564 C 0.7777 0.22373 0.65688 0.0
N565 N 0.8011 0.22373 0.69162 0.0
N566 N 0.78186 0.21419 0.6244 0.0
H567 H 0.80311 0.20874 0.62758 0.0
H568 H 0.78996 0.23812 0.7293 0.0
C569 C 0.80945 0.24418 0.82004 0.0
O570 O 0.81197 0.25842 0.79523 0.0
N571 N 0.84451 0.23681 0.76798 0.0
C572 C 0.86128 0.24522 0.75005 0.0
C573 C 0.87181 0.24292 0.78589 0.0
C574 C 0.84501 0.22942 0.8138 0.0
N575 N 0.86147 0.23279 0.82563 0.0
C576 C 0.82954 0.25851 0.65884 0.0
C577 C 0.85196 0.28649 0.7219 0.0
C578 C 0.84873 0.29002 0.6704 0.0
C579 C 0.83689 0.27562 0.63956 0.0
C580 C 0.84356 0.2691 0.74066 0.0
N581 N 0.83244 0.25531 0.70919 0.0
H582 H 0.82179 0.24779 0.63226 0.0
H583 H 0.84627 0.26673 0.7803 0.0
H584 H 0.86534 0.25157 0.71213 0.0
H585 H 0.83329 0.2208 0.83623 0.0
O586 O 0.83231 0.22357 0.67158 0.0
O587 O 0.81642 0.20627 0.73756 0.0
O588 O 0.81237 0.23282 0.7975 0.0
C589 C 0.82546 0.20826 0.6949 0.0
H590 H 0.76734 0.22687 0.6502 0.0
H591 H 0.8857 0.24723 0.78107 0.0
H592 H 0.86121 0.29692 0.74742 0.0
H593 H 0.83336 0.27729 0.60018 0.0
Co594 Co 0.40758 0.22992 0.2331 0.0
C595 C 0.42915 0.22939 0.14446 0.0
C596 C 0.4246 0.20952 0.20128 0.0
C597 C 0.43217 0.20678 0.15735 0.0
N598 N 0.42284 0.22384 0.19345 0.0
N599 N 0.43497 0.2193 0.12159 0.0
H600 H 0.4279 0.2394 0.12345 0.0
H601 H 0.41963 0.20095 0.23519 0.0
C602 C 0.43515 0.23382 0.31433 0.0
O603 O 0.4463 0.23446 0.27868 0.0
N604 N 0.39189 0.23542 0.27151 0.0
C605 C 0.38459 0.24501 0.25526 0.0
C606 C 0.37096 0.24193 0.28887 0.0
C607 C 0.38268 0.22669 0.31448 0.0
N608 N 0.36964 0.23023 0.32579 0.0
C609 C 0.41837 0.2598 0.16638 0.0
C610 C 0.4456 0.28464 0.22734 0.0
C611 C 0.4425 0.28954 0.17787 0.0
C612 C 0.42853 0.27695 0.1477 0.0
C613 C 0.43519 0.26714 0.24444 0.0
N614 N 0.42208 0.25476 0.21326 0.0
H615 H 0.4077 0.25047 0.142 0.0
H616 H 0.43779 0.26386 0.2828 0.0
H617 H 0.38796 0.25263 0.21946 0.0
H618 H 0.38488 0.21712 0.33502 0.0
O619 O 0.39111 0.22163 0.17501 0.0
O620 O 0.39056 0.2051 0.24159 0.0
O621 O 0.42062 0.23295 0.30119 0.0
C622 C 0.38337 0.20639 0.1984 0.0
H623 H 0.43448 0.19584 0.1511 0.0
H624 H 0.36192 0.24691 0.28399 0.0
H625 H 0.45611 0.29416 0.25224 0.0
H626 H 0.42536 0.28036 0.10992 0.0
Co627 Co 0.76738 0.17899 0.23831 0.0
C628 C 0.78655 0.20373 0.15129 0.0
C629 C 0.77131 0.21246 0.19395 0.0
C630 C 0.77706 0.22203 0.14797 0.0
N631 N 0.77695 0.20063 0.19583 0.0
N632 N 0.78639 0.21626 0.12052 0.0
H633 H 0.79247 0.19603 0.13934 0.0
H634 H 0.76217 0.21309 0.2208 0.0
C635 C 0.75679 0.19768 0.32273 0.0
O636 O 0.74454 0.19854 0.29523 0.0
N637 N 0.75834 0.15762 0.27953 0.0
C638 C 0.74671 0.14106 0.26388 0.0
C639 C 0.74706 0.12933 0.29931 0.0
C640 C 0.7657 0.15576 0.32382 0.0
N641 N 0.75912 0.13861 0.33673 0.0
C642 C 0.74131 0.1726 0.16168 0.0
C643 C 0.71226 0.15864 0.22743 0.0
C644 C 0.70975 0.15948 0.17326 0.0
C645 C 0.72463 0.16678 0.1405 0.0
C646 C 0.72933 0.16487 0.2472 0.0
N647 N 0.74363 0.17202 0.21442 0.0
H648 H 0.75243 0.17732 0.13527 0.0
H649 H 0.73102 0.16358 0.28869 0.0
H650 H 0.73936 0.1377 0.22747 0.0
H651 H 0.7768 0.16667 0.34329 0.0
O652 O 0.77357 0.16746 0.18438 0.0
O653 O 0.7909 0.18316 0.25051 0.0
O654 O 0.76602 0.1914 0.30342 0.0
C655 C 0.78843 0.17322 0.20975 0.0
H656 H 0.77318 0.23128 0.13387 0.0
H657 H 0.73965 0.11507 0.29621 0.0
H658 H 0.70112 0.15272 0.25412 0.0
H659 H 0.72344 0.16783 0.09853 0.0
Co660 Co 0.82394 0.59348 0.21788 0.0
C661 C 0.79934 0.57447 0.13076 0.0
C662 C 0.78535 0.57452 0.1996 0.0
C663 C 0.77347 0.56741 0.15862 0.0
N664 N 0.80158 0.57872 0.18226 0.0
N665 N 0.78236 0.56754 0.11514 0.0
H666 H 0.81003 0.57735 0.10423 0.0
H667 H 0.78252 0.57746 0.23845 0.0
C668 C 0.80292 0.56579 0.30216 0.0
O669 O 0.79441 0.55296 0.26818 0.0
N670 N 0.84604 0.60856 0.25304 0.0
C671 C 0.86257 0.61342 0.23706 0.0
C672 C 0.87441 0.62657 0.26996 0.0
C673 C 0.848 0.6188 0.29492 0.0
N674 N 0.86518 0.63003 0.30592 0.0
C675 C 0.83888 0.57979 0.14504 0.0
C676 C 0.84166 0.55631 0.21121 0.0
C677 C 0.84693 0.55739 0.15865 0.0
C678 C 0.84565 0.56949 0.12575 0.0
C679 C 0.83485 0.5669 0.22902 0.0
N680 N 0.83289 0.57801 0.19546 0.0
H681 H 0.83884 0.5895 0.11911 0.0
H682 H 0.83173 0.5664 0.27005 0.0
H683 H 0.86585 0.60845 0.20254 0.0
H684 H 0.83702 0.61845 0.31569 0.0
O685 O 0.83185 0.60977 0.15931 0.0
O686 O 0.81732 0.6112 0.22873 0.0
O687 O 0.81464 0.58114 0.28687 0.0
C688 C 0.82536 0.61813 0.1848 0.0
H689 H 0.75963 0.56365 0.15994 0.0
H690 H 0.88866 0.6337 0.26593 0.0
H691 H 0.84285 0.54743 0.23839 0.0
H692 H 0.85031 0.57139 0.08556 0.0
Co693 Co 0.5594 0.07056 0.96312 0.0
C694 C 0.54765 0.08483 0.04935 0.0
C695 C 0.53981 0.09039 0.97568 0.0
C696 C 0.53384 0.09688 0.01546 0.0
N697 N 0.549 0.0833 0.99699 0.0
N698 N 0.53889 0.09342 0.06198 0.0
H699 H 0.55184 0.07864 0.07798 0.0
H700 H 0.53701 0.09035 0.93438 0.0
C701 C 0.56593 0.09755 0.87617 0.0
O702 O 0.57185 0.11083 0.90936 0.0
N703 N 0.56943 0.05755 0.93113 0.0
C704 C 0.58219 0.05491 0.95132 0.0
C705 C 0.58359 0.04266 0.92089 0.0
C706 C 0.56311 0.04679 0.88917 0.0
N707 N 0.57149 0.03746 0.88212 0.0
C708 C 0.58703 0.0898 0.03728 0.0
C709 C 0.61366 0.10878 0.96579 0.0
C710 C 0.6178 0.11041 0.01944 0.0
C711 C 0.60416 0.10083 0.05528 0.0
C712 C 0.59624 0.09758 0.9494 0.0
N713 N 0.58304 0.08852 0.98511 0.0
H714 H 0.57729 0.08139 0.06543 0.0
H715 H 0.59368 0.09548 0.90788 0.0
H716 H 0.58935 0.06076 0.9872 0.0
H717 H 0.55215 0.04535 0.86564 0.0
O718 O 0.55257 0.0546 0.02294 0.0
O719 O 0.53619 0.05074 0.95239 0.0
O720 O 0.56111 0.08197 0.89252 0.0
C721 C 0.53802 0.04471 0.99712 0.0
H722 H 0.5261 0.10331 0.01026 0.0
H723 H 0.59212 0.03722 0.9286 0.0
H724 H 0.62387 0.11566 0.93659 0.0
H725 H 0.60683 0.10098 0.09684 0.0
Co726 Co 0.92209 0.48314 0.93797 0.0
C727 C 0.91158 0.45608 0.02129 0.0
C728 C 0.89078 0.44836 0.9652 0.0
C729 C 0.88453 0.43657 0.00656 0.0
N730 N 0.90775 0.46077 0.97472 0.0
N731 N 0.89759 0.44167 0.0421 0.0
H732 H 0.92396 0.46374 0.04179 0.0
H733 H 0.88293 0.44845 0.93271 0.0
C734 C 0.89573 0.46838 0.845 0.0
O735 O 0.88344 0.47103 0.86536 0.0
N736 N 0.93667 0.50507 0.90114 0.0
C737 C 0.94351 0.52157 0.92043 0.0
C738 C 0.95691 0.53306 0.88764 0.0
C739 C 0.94601 0.5067 0.85735 0.0
N740 N 0.95862 0.52365 0.84832 0.0
C741 C 0.90067 0.48878 0.01035 0.0
C742 C 0.89173 0.50855 0.94608 0.0
C743 C 0.88624 0.50601 0.99877 0.0
C744 C 0.89062 0.49571 0.03061 0.0
C745 C 0.90164 0.50112 0.92706 0.0
N746 N 0.90579 0.49115 0.95898 0.0
H747 H 0.90488 0.48204 0.03696 0.0
H748 H 0.90633 0.50376 0.88699 0.0
H749 H 0.93993 0.52483 0.95774 0.0
H750 H 0.94437 0.49548 0.8348 0.0
O751 O 0.9382 0.49268 0.99656 0.0
O752 O 0.94078 0.47771 0.92991 0.0
O753 O 0.90984 0.47213 0.87003 0.0
C754 C 0.94738 0.48668 0.97286 0.0
H755 H 0.87104 0.426 0.01203 0.0
H756 H 0.96564 0.54702 0.8947 0.0
H757 H 0.88898 0.51673 0.92026 0.0
H758 H 0.88665 0.49326 0.07142 0.0
Co759 Co 0.51323 0.43687 0.94727 0.0
C760 C 0.54146 0.45576 0.02607 0.0
C761 C 0.5479 0.44002 0.97673 0.0
C762 C 0.55947 0.44596 0.01871 0.0
N763 N 0.5363 0.44591 0.98165 0.0
N764 N 0.55527 0.45578 0.04982 0.0
H765 H 0.53418 0.46133 0.04427 0.0
H766 H 0.5473 0.43085 0.94761 0.0
C767 C 0.52701 0.42366 0.85573 0.0
O768 O 0.52747 0.41101 0.88221 0.0
N769 N 0.49041 0.4284 0.91449 0.0
C770 C 0.47462 0.41871 0.93831 0.0
C771 C 0.4619 0.41978 0.90928 0.0
C772 C 0.48711 0.43524 0.87135 0.0
N773 N 0.46981 0.43022 0.86743 0.0
C774 C 0.50893 0.41113 0.02312 0.0
C775 C 0.48944 0.38153 0.96179 0.0
C776 C 0.49259 0.37932 0.01457 0.0
C777 C 0.50277 0.39447 0.04492 0.0
C778 C 0.49622 0.39855 0.94113 0.0
N779 N 0.50599 0.41311 0.97164 0.0
H780 H 0.51572 0.4225 0.04835 0.0
H781 H 0.49321 0.40002 0.90092 0.0
H782 H 0.47272 0.41252 0.97635 0.0
H783 H 0.49734 0.44511 0.84655 0.0
O784 O 0.50464 0.4445 0.00582 0.0
O785 O 0.51814 0.46065 0.93536 0.0
O786 O 0.52262 0.43407 0.87766 0.0
C787 C 0.50996 0.4591 0.97943 0.0
H788 H 0.56947 0.44246 0.02722 0.0
H789 H 0.44811 0.41422 0.91977 0.0
H790 H 0.4813 0.37028 0.93702 0.0
H791 H 0.50575 0.39355 0.08564 0.0
Co792 Co 0.59305 0.76494 0.78413 0.0
C793 C 0.57701 0.77399 0.87256 0.0
C794 C 0.57094 0.78182 0.79966 0.0
C795 C 0.56385 0.7869 0.83998 0.0
N796 N 0.57877 0.77321 0.82005 0.0
N797 N 0.56765 0.7819 0.88602 0.0
H798 H 0.5836 0.77009 0.90074 0.0
H799 H 0.57095 0.78491 0.75861 0.0
C800 C 0.56487 0.75624 0.69962 0.0
O801 O 0.55177 0.7497 0.73351 0.0
N802 N 0.60762 0.75724 0.74914 0.0
C803 C 0.61217 0.74549 0.76643 0.0
C804 C 0.62516 0.74621 0.73398 0.0
C805 C 0.61789 0.76501 0.70691 0.0
N806 N 0.62884 0.75862 0.6969 0.0
C807 C 0.57611 0.7366 0.85744 0.0
C808 C 0.55681 0.71001 0.78623 0.0
C809 C 0.55522 0.70591 0.83992 0.0
C810 C 0.56524 0.71947 0.87553 0.0
C811 C 0.56793 0.72744 0.76975 0.0
N812 N 0.57684 0.74066 0.80547 0.0
H813 H 0.58453 0.74641 0.88542 0.0
H814 H 0.56978 0.73008 0.72821 0.0
H815 H 0.60711 0.73763 0.80168 0.0
H816 H 0.61781 0.77563 0.68533 0.0
O817 O 0.60921 0.7725 0.84304 0.0
O818 O 0.61141 0.78904 0.77422 0.0
O819 O 0.58079 0.76233 0.71493 0.0
C820 C 0.61803 0.78744 0.81819 0.0
H821 H 0.55682 0.79409 0.83548 0.0
H822 H 0.63208 0.73893 0.73919 0.0
H823 H 0.54969 0.69984 0.75713 0.0
H824 H 0.56523 0.7168 0.91704 0.0
Co825 Co 0.22359 0.82246 0.77177 0.0
C826 C 0.2091 0.79709 0.86055 0.0
C827 C 0.22596 0.79175 0.81228 0.0
C828 C 0.22138 0.78113 0.85634 0.0
N829 N 0.21836 0.80192 0.81508 0.0
N830 N 0.21078 0.78455 0.88657 0.0
H831 H 0.2023 0.80348 0.87677 0.0
H832 H 0.23515 0.79275 0.78238 0.0
C833 C 0.23402 0.80589 0.68027 0.0
O834 O 0.24965 0.8097 0.69793 0.0
N835 N 0.22832 0.84269 0.7293 0.0
C836 C 0.238 0.8598 0.74337 0.0
C837 C 0.23473 0.86984 0.70841 0.0
C838 C 0.21917 0.8425 0.6865 0.0
N839 N 0.22275 0.85893 0.67293 0.0
C840 C 0.25331 0.83307 0.83789 0.0
C841 C 0.27934 0.85052 0.76317 0.0
C842 C 0.28425 0.85031 0.81543 0.0
C843 C 0.27097 0.84146 0.85293 0.0
C844 C 0.2614 0.84175 0.74963 0.0
N845 N 0.24866 0.83282 0.78668 0.0
H846 H 0.24328 0.82711 0.86788 0.0
H847 H 0.25775 0.84237 0.70948 0.0
H848 H 0.24595 0.86452 0.77856 0.0
H849 H 0.20934 0.83045 0.66769 0.0
O850 O 0.21741 0.83302 0.82885 0.0
O851 O 0.19894 0.81499 0.76805 0.0
O852 O 0.22389 0.80974 0.70621 0.0
C853 C 0.20165 0.82529 0.80802 0.0
H854 H 0.22603 0.77209 0.86626 0.0
H855 H 0.23983 0.88393 0.71126 0.0
H856 H 0.28922 0.85743 0.73317 0.0
H857 H 0.27416 0.84153 0.89404 0.0
Co858 Co 0.16846 0.401 0.78861 0.0
C859 C 0.19036 0.4162 0.88226 0.0
C860 C 0.20683 0.42013 0.81572 0.0
C861 C 0.21723 0.42516 0.86053 0.0
N862 N 0.18994 0.41477 0.82945 0.0
N863 N 0.20669 0.42249 0.90222 0.0
H864 H 0.17877 0.41113 0.90664 0.0
H865 H 0.21107 0.41911 0.77665 0.0
C866 C 0.19133 0.43006 0.70936 0.0
O867 O 0.19941 0.44233 0.7452 0.0
N868 N 0.14697 0.38691 0.74948 0.0
C869 C 0.13045 0.38275 0.76348 0.0
C870 C 0.1187 0.37056 0.7284 0.0
C871 C 0.14508 0.37714 0.70646 0.0
N872 N 0.12791 0.36695 0.69281 0.0
C873 C 0.15285 0.41445 0.86032 0.0
C874 C 0.15184 0.43894 0.79418 0.0
C875 C 0.14602 0.4377 0.84611 0.0
C876 C 0.14637 0.42508 0.87904 0.0
C877 C 0.15835 0.42806 0.77705 0.0
N878 N 0.15952 0.41649 0.8107 0.0
H879 H 0.15193 0.40416 0.88563 0.0
H880 H 0.16185 0.42868 0.73631 0.0
H881 H 0.12702 0.38754 0.79809 0.0
H882 H 0.15603 0.37709 0.68668 0.0
O883 O 0.15913 0.38357 0.84437 0.0
O884 O 0.1751 0.38335 0.77707 0.0
O885 O 0.17935 0.41451 0.72218 0.0
C886 C 0.16641 0.37579 0.81958 0.0
H887 H 0.23105 0.42889 0.86272 0.0
H888 H 0.10443 0.36412 0.73071 0.0
H889 H 0.15132 0.44819 0.76695 0.0
H890 H 0.14118 0.42305 0.91864 0.0
Co891 Co 0.43041 0.92038 0.05603 0.0
C892 C 0.44681 0.91264 0.96551 0.0
C893 C 0.42787 0.88903 0.00471 0.0
C894 C 0.43266 0.88441 0.95825 0.0
N895 N 0.43674 0.90678 0.00929 0.0
N896 N 0.44443 0.89932 0.93323 0.0
H897 H 0.4549 0.92642 0.95562 0.0
H898 H 0.41743 0.88012 0.03079 0.0
C899 C 0.44516 0.90977 0.13437 0.0
O900 O 0.43009 0.89561 0.12256 0.0
N901 N 0.42403 0.93437 0.10108 0.0
C902 C 0.41457 0.94197 0.08589 0.0
C903 C 0.41735 0.95513 0.1209 0.0
C904 C 0.43237 0.9431 0.14537 0.0
N905 N 0.42878 0.95603 0.15804 0.0
C906 C 0.40753 0.91399 0.96738 0.0
C907 C 0.3773 0.89024 0.02114 0.0
C908 C 0.37618 0.89265 0.96708 0.0
C909 C 0.39152 0.90493 0.9403 0.0
C910 C 0.39355 0.89946 0.04652 0.0
N911 N 0.4083 0.91098 0.01956 0.0
H912 H 0.41941 0.92285 0.94606 0.0
H913 H 0.39457 0.89712 0.08773 0.0
H914 H 0.40743 0.93934 0.0493 0.0
H915 H 0.44178 0.94087 0.16602 0.0
O916 O 0.44315 0.94153 0.01105 0.0
O917 O 0.45625 0.937 0.07447 0.0
O918 O 0.44997 0.92387 0.10677 0.0
C919 C 0.4574 0.94729 0.03653 0.0
H920 H 0.42678 0.87119 0.94222 0.0
H921 H 0.4125 0.96428 0.11653 0.0
H922 H 0.36576 0.88113 0.04357 0.0
H923 H 0.3913 0.90704 0.89849 0.0
Co924 Co 0.07197 0.51376 0.05954 0.0
C925 C 0.08183 0.54169 0.97932 0.0
C926 C 0.10372 0.54771 0.02975 0.0
C927 C 0.10969 0.55939 0.988 0.0
N928 N 0.08622 0.5364 0.02393 0.0
N929 N 0.09586 0.55548 0.95632 0.0
H930 H 0.06902 0.53459 0.96079 0.0
H931 H 0.11195 0.54666 0.05947 0.0
C932 C 0.0974 0.52815 0.15518 0.0
O933 O 0.10991 0.52565 0.13588 0.0
N934 N 0.05752 0.49136 0.0941 0.0
C935 C 0.05101 0.47535 0.07132 0.0
C936 C 0.0374 0.46302 0.10167 0.0
C937 C 0.04786 0.48858 0.13802 0.0
N938 N 0.03548 0.47139 0.14337 0.0
C939 C 0.09424 0.50895 0.9881 0.0
C940 C 0.10287 0.48903 0.05283 0.0
C941 C 0.10867 0.49175 1.00048 0.0
C942 C 0.10447 0.50214 0.96838 0.0
C943 C 0.09281 0.49633 0.07127 0.0
N944 N 0.08878 0.50635 0.03917 0.0
H945 H 0.09015 0.51581 0.96142 0.0
H946 H 0.0878 0.49345 0.111 0.0
H947 H 0.05494 0.47306 0.03318 0.0
H948 H 0.04869 0.49909 0.16257 0.0
O949 O 0.05624 0.5044 0.99982 0.0
O950 O 0.0529 0.51857 0.06732 0.0
O951 O 0.08356 0.52454 0.12883 0.0
C952 C 0.04662 0.50982 0.02388 0.0
H953 H 0.12329 0.56929 0.98012 0.0
H954 H 0.02886 0.44919 0.09229 0.0
H955 H 0.10543 0.48075 0.07877 0.0
H956 H 0.10868 0.50469 0.92777 0.0
Co957 Co 0.48456 0.55806 0.06129 0.0
C958 C 0.45655 0.54036 0.98167 0.0
C959 C 0.4469 0.54917 0.04512 0.0
C960 C 0.43455 0.54322 0.00507 0.0
N961 N 0.46094 0.54768 0.03006 0.0
N962 N 0.44087 0.53799 0.96484 0.0
H963 H 0.46516 0.53784 0.95733 0.0
H964 H 0.44585 0.55498 0.08116 0.0
C965 C 0.47007 0.56849 0.15915 0.0
O966 O 0.46665 0.57998 0.13664 0.0
N967 N 0.50797 0.56798 0.09101 0.0
C968 C 0.52344 0.58014 0.06949 0.0
C969 C 0.5371 0.58091 0.0987 0.0
C970 C 0.51239 0.56131 0.13209 0.0
N971 N 0.53008 0.56892 0.13771 0.0
C972 C 0.48754 0.58338 0.98619 0.0
C973 C 0.50388 0.61282 0.05011 0.0
C974 C 0.50177 0.61504 0.99651 0.0
C975 C 0.4931 0.59998 0.96484 0.0
C976 C 0.4979 0.59584 0.07012 0.0
N977 N 0.48986 0.58138 0.03814 0.0
H978 H 0.48209 0.57218 0.96011 0.0
H979 H 0.5006 0.5944 0.11066 0.0
H980 H 0.52471 0.58723 0.03346 0.0
H981 H 0.5028 0.55038 0.15543 0.0
O982 O 0.49321 0.55111 1.00092 0.0
O983 O 0.48117 0.53488 0.07225 0.0
O984 O 0.47586 0.56 0.13282 0.0
C985 C 0.48878 0.53664 0.0271 0.0
H986 H 0.42249 0.54386 0.0043 0.0
H987 H 0.55106 0.58883 0.08984 0.0
H988 H 0.51085 0.62412 0.0758 0.0
H989 H 0.49108 0.60102 0.92335 0.0
Co990 Co 0.0735 0.56329 0.56608 0.0
C991 C 0.08466 0.54898 0.47817 0.0
C992 C 0.09842 0.54926 0.54771 0.0
C993 C 0.10455 0.54356 0.50622 0.0
N994 N 0.08632 0.5533 0.52967 0.0
N995 N 0.09601 0.54367 0.46227 0.0
H996 H 0.07524 0.54967 0.45232 0.0
H997 H 0.10257 0.55016 0.58796 0.0
C998 C 0.10224 0.57419 0.65049 0.0
O999 O 0.11549 0.58261 0.61769 0.0
N1000 N 0.06028 0.57259 0.6012 0.0
C1001 C 0.05591 0.58429 0.58214 0.0
C1002 C 0.04331 0.5844 0.61451 0.0
C1003 C 0.05022 0.56564 0.64434 0.0
N1004 N 0.03962 0.57251 0.65322 0.0
C1005 C 0.09315 0.58933 0.48855 0.0
C1006 C 0.10859 0.61833 0.55412 0.0
C1007 C 0.1117 0.62087 0.49978 0.0
C1008 C 0.10409 0.60595 0.4673 0.0
C1009 C 0.0979 0.60123 0.57409 0.0
N1010 N 0.09048 0.58692 0.54132 0.0
H1011 H 0.08624 0.57856 0.46175 0.0
H1012 H 0.09498 0.59959 0.6156 0.0
H1013 H 0.06067 0.59137 0.54551 0.0
H1014 H 0.04998 0.55503 0.66694 0.0
O1015 O 0.05673 0.55604 0.50916 0.0
O1016 O 0.05427 0.53975 0.57898 0.0
O1017 O 0.08629 0.5661 0.63423 0.0
C1018 C 0.04751 0.54143 0.53536 0.0
H1019 H 0.11474 0.53997 0.50826 0.0
H1020 H 0.03647 0.59169 0.60786 0.0
H1021 H 0.11377 0.62945 0.58083 0.0
H1022 H 0.10613 0.607 0.42525 0.0
Co1023 Co 0.43426 0.50586 0.56067 0.0
C1024 C 0.44711 0.53364 0.47864 0.0
C1025 C 0.43452 0.53965 0.54084 0.0
C1026 C 0.4384 0.55172 0.50087 0.0
N1027 N 0.43987 0.52816 0.52679 0.0
N1028 N 0.44623 0.54782 0.46161 0.0
H1029 H 0.45158 0.52651 0.45435 0.0
H1030 H 0.42739 0.53891 0.57612 0.0
C1031 C 0.42209 0.51805 0.65979 0.0
O1032 O 0.40679 0.51524 0.64203 0.0
N1033 N 0.42897 0.48383 0.59353 0.0
C1034 C 0.42055 0.4678 0.5704 0.0
C1035 C 0.42352 0.45625 0.59946 0.0
C1036 C 0.43687 0.48184 0.6364 0.0
N1037 N 0.4337 0.46512 0.64079 0.0
C1038 C 0.40594 0.49718 0.49068 0.0
C1039 C 0.37841 0.47791 0.55931 0.0
C1040 C 0.3745 0.47936 0.5066 0.0
C1041 C 0.38865 0.48906 0.47223 0.0
C1042 C 0.39604 0.486 0.57596 0.0
N1043 N 0.40952 0.49599 0.5421 0.0
H1044 H 0.41655 0.50388 0.46282 0.0
H1045 H 0.39888 0.48398 0.61584 0.0
H1046 H 0.41389 0.46506 0.5329 0.0
H1047 H 0.44599 0.49268 0.66106 0.0
O1048 O 0.44188 0.49839 0.49922 0.0
O1049 O 0.459 0.51353 0.56626 0.0
O1050 O 0.43248 0.51519 0.63145 0.0
C1051 C 0.45732 0.50547 0.52191 0.0
H1052 H 0.43507 0.5621 0.50007 0.0
H1053 H 0.41937 0.44267 0.58954 0.0
H1054 H 0.36801 0.47046 0.58748 0.0
H1055 H 0.38655 0.48993 0.43073 0.0
Co1056 Co 0.49807 0.92777 0.56602 0.0
C1057 C 0.47761 0.92397 0.46963 0.0
C1058 C 0.46675 0.89936 0.51069 0.0
C1059 C 0.45882 0.89638 0.46201 0.0
N1060 N 0.47874 0.9167 0.51538 0.0
N1061 N 0.46585 0.9119 0.43611 0.0
H1062 H 0.48647 0.9375 0.45828 0.0
H1063 H 0.46479 0.88926 0.5385 0.0
C1064 C 0.47677 0.89584 0.64258 0.0
O1065 O 0.47836 0.88357 0.61758 0.0
N1066 N 0.51721 0.93905 0.61548 0.0
C1067 C 0.53456 0.9461 0.60508 0.0
C1068 C 0.54403 0.95781 0.64455 0.0
C1069 C 0.51634 0.94639 0.66098 0.0
N1070 N 0.53254 0.95821 0.67939 0.0
C1071 C 0.51028 0.91389 0.48752 0.0
C1072 C 0.52059 0.89484 0.55022 0.0
C1073 C 0.52325 0.89535 0.49576 0.0
C1074 C 0.51802 0.90503 0.4645 0.0
C1075 C 0.51294 0.90424 0.57202 0.0
N1076 N 0.50744 0.91317 0.54035 0.0
H1077 H 0.50693 0.92175 0.46263 0.0
H1078 H 0.51184 0.90468 0.61417 0.0
H1079 H 0.5399 0.94419 0.56896 0.0
H1080 H 0.50399 0.94417 0.6775 0.0
O1081 O 0.51095 0.94771 0.51984 0.0
O1082 O 0.49168 0.94543 0.58065 0.0
O1083 O 0.48323 0.91142 0.62393 0.0
C1084 C 0.50286 0.95478 0.54414 0.0
H1085 H 0.44935 0.88363 0.44594 0.0
H1086 H 0.5582 0.96655 0.6446 0.0
H1087 H 0.52485 0.88774 0.57561 0.0
H1088 H 0.52 0.90584 0.42237 0.0
Co1089 Co 0.22375 0.40479 0.29257 0.0
C1090 C 0.20623 0.41382 0.37715 0.0
C1091 C 0.22264 0.4365 0.33022 0.0
C1092 C 0.2171 0.4419 0.37365 0.0
N1093 N 0.21598 0.41884 0.33254 0.0
N1094 N 0.20684 0.42757 0.40314 0.0
H1095 H 0.2001 0.40063 0.3933 0.0
H1096 H 0.232 0.44521 0.30162 0.0
C1097 C 0.23576 0.43256 0.20246 0.0
O1098 O 0.24947 0.44532 0.22668 0.0
N1099 N 0.2311 0.39063 0.25358 0.0
C1100 C 0.24104 0.3839 0.27135 0.0
C1101 C 0.2394 0.37099 0.23704 0.0
C1102 C 0.22352 0.38173 0.2091 0.0
N1103 N 0.22822 0.36949 0.19815 0.0
C1104 C 0.25066 0.42367 0.36742 0.0
C1105 C 0.27941 0.43599 0.30077 0.0
C1106 C 0.28226 0.43955 0.35468 0.0
C1107 C 0.26763 0.43328 0.38805 0.0
C1108 C 0.26209 0.42607 0.28173 0.0
N1109 N 0.24797 0.42045 0.31485 0.0
H1110 H 0.23959 0.41837 0.39415 0.0
H1111 H 0.26005 0.4226 0.24058 0.0
H1112 H 0.24792 0.38724 0.30855 0.0
H1113 H 0.21388 0.38348 0.18727 0.0
O1114 O 0.21668 0.38775 0.34891 0.0
O1115 O 0.19957 0.38644 0.28259 0.0
O1116 O 0.22557 0.41791 0.22543 0.0
C1117 C 0.20164 0.37903 0.3242 0.0
H1118 H 0.22106 0.45539 0.38402 0.0
H1119 H 0.24496 0.36247 0.24265 0.0
H1120 H 0.29044 0.44032 0.27395 0.0
H1121 H 0.26929 0.43564 0.42996 0.0
Co1122 Co 0.58959 0.81223 0.28389 0.0
C1123 C 0.58197 0.78543 0.36662 0.0
C1124 C 0.55928 0.77805 0.31818 0.0
C1125 C 0.55417 0.7669 0.36114 0.0
N1126 N 0.57671 0.78991 0.32208 0.0
N1127 N 0.56848 0.77168 0.39163 0.0
H1128 H 0.59494 0.79319 0.38381 0.0
H1129 H 0.55053 0.77844 0.28896 0.0
C1130 C 0.56301 0.79735 0.19125 0.0
O1131 O 0.55176 0.80185 0.20938 0.0
N1132 N 0.60272 0.8342 0.24575 0.0
C1133 C 0.61038 0.85058 0.26662 0.0
C1134 C 0.62228 0.86236 0.23095 0.0
C1135 C 0.61 0.83622 0.19771 0.0
N1136 N 0.62198 0.85328 0.18782 0.0
C1137 C 0.56815 0.81634 0.36011 0.0
C1138 C 0.55869 0.8369 0.3017 0.0
C1139 C 0.55354 0.83348 0.35453 0.0
C1140 C 0.55821 0.82289 0.38349 0.0
C1141 C 0.56837 0.82969 0.2793 0.0
N1142 N 0.57276 0.81925 0.30826 0.0
H1143 H 0.57292 0.80968 0.38506 0.0
H1144 H 0.5728 0.83302 0.23916 0.0
H1145 H 0.60832 0.85355 0.30634 0.0
H1146 H 0.60773 0.82531 0.17247 0.0
O1147 O 0.60632 0.82268 0.3405 0.0
O1148 O 0.60902 0.80811 0.2729 0.0
O1149 O 0.57666 0.80016 0.21732 0.0
C1150 C 0.61581 0.81736 0.31532 0.0
H1151 H 0.5408 0.7568 0.37075 0.0
H1152 H 0.6311 0.87636 0.2371 0.0
H1153 H 0.55561 0.84537 0.27833 0.0
H1154 H 0.55513 0.82054 0.42494 0.0
Co1155 Co 0.17281 0.76919 0.27459 0.0
C1156 C 0.1988 0.7767 0.35906 0.0
C1157 C 0.21112 0.79287 0.29184 0.0
C1158 C 0.22323 0.79859 0.33246 0.0
N1159 N 0.19579 0.779 0.3085 0.0
N1160 N 0.21534 0.78847 0.37498 0.0
H1161 H 0.18886 0.76734 0.38501 0.0
H1162 H 0.21301 0.79913 0.25392 0.0
C1163 C 0.19525 0.76426 0.19196 0.0
O1164 O 0.20482 0.76196 0.22746 0.0
N1165 N 0.15 0.75984 0.24155 0.0
C1166 C 0.13412 0.74773 0.26083 0.0
C1167 C 0.12113 0.7469 0.22833 0.0
C1168 C 0.1465 0.76628 0.19801 0.0
N1169 N 0.12895 0.75869 0.18913 0.0
C1170 C 0.16017 0.74138 0.35015 0.0
C1171 C 0.15817 0.71517 0.28523 0.0
C1172 C 0.15302 0.71117 0.33788 0.0
C1173 C 0.1541 0.72454 0.37037 0.0
C1174 C 0.16451 0.7324 0.26666 0.0
N1175 N 0.16593 0.74545 0.29946 0.0
H1176 H 0.15978 0.75106 0.37548 0.0
H1177 H 0.16747 0.73484 0.22549 0.0
H1178 H 0.13201 0.74064 0.29729 0.0
H1179 H 0.15663 0.77679 0.17453 0.0
O1180 O 0.1644 0.77728 0.33273 0.0
O1181 O 0.17728 0.7928 0.26121 0.0
O1182 O 0.1823 0.76625 0.20562 0.0
C1183 C 0.16961 0.7917 0.30586 0.0
H1184 H 0.23634 0.81011 0.33178 0.0
H1185 H 0.10702 0.73901 0.23484 0.0
H1186 H 0.15704 0.70501 0.25849 0.0
H1187 H 0.14954 0.72184 0.41067 0.0
H1188 H 0.3554 0.10939 0.85458 0.0
H1189 H 0.35778 0.15994 0.85707 0.0
H1190 H 0.33481 0.14926 0.92382 0.0
H1191 H 0.31428 0.12582 0.98219 0.0
H1192 H 0.31107 0.07494 0.97979 0.0
H1193 H 0.3341 0.08546 0.91231 0.0
C1194 C 0.3508 0.118 0.86956 0.0
C1195 C 0.35848 0.1355 0.85116 0.0
C1196 C 0.33743 0.11173 0.90794 0.0
C1197 C 0.35245 0.14655 0.87126 0.0
C1198 C 0.33917 0.14041 0.90918 0.0
C1199 C 0.31839 0.11692 0.96641 0.0
C1200 C 0.31088 0.09957 0.98583 0.0
C1201 C 0.33161 0.12305 0.92786 0.0
C1202 C 0.31673 0.08838 0.96577 0.0
C1203 C 0.32985 0.09438 0.92708 0.0
H1204 H 0.89343 0.24602 0.8719 0.0
H1205 H 0.84047 0.20112 0.87199 0.0
H1206 H 0.84862 0.18703 0.94005 0.0
H1207 H 0.87073 0.18717 0.99904 0.0
H1208 H 0.92388 0.23154 0.99923 0.0
H1209 H 0.91576 0.24611 0.93158 0.0
C1210 C 0.88372 0.23313 0.88671 0.0
C1211 C 0.86634 0.22475 0.86695 0.0
C1212 C 0.88854 0.22497 0.92581 0.0
C1213 C 0.85385 0.2081 0.887 0.0
C1214 C 0.85853 0.19992 0.9257 0.0
C1215 C 0.88061 0.19992 0.98385 0.0
C1216 C 0.89793 0.20819 1.00381 0.0
C1217 C 0.87583 0.20819 0.94522 0.0
C1218 C 0.91044 0.22495 0.98465 0.0
C1219 C 0.90582 0.23324 0.94587 0.0
H1220 H 0.76731 0.67768 0.99151 0.0
H1221 H 0.81985 0.68467 0.99162 0.0
H1222 H 0.81103 0.66149 0.92616 0.0
H1223 H 0.78882 0.64005 0.86636 0.0
H1224 H 0.73602 0.63233 0.86635 0.0
H1225 H 0.74446 0.65488 0.93442 0.0
C1226 C 0.77674 0.674 0.9775 0.0
C1227 C 0.79427 0.68312 0.99586 0.0
C1228 C 0.77155 0.66053 0.93982 0.0
C1229 C 0.8064 0.67823 0.9772 0.0
C1230 C 0.80133 0.66484 0.94003 0.0
C1231 C 0.77905 0.64303 0.88184 0.0
C1232 C 0.76181 0.6345 0.86119 0.0
C1233 C 0.784 0.65603 0.9207 0.0
C1234 C 0.74943 0.63884 0.88113 0.0
C1235 C 0.75424 0.6517 0.92016 0.0
H1236 H 0.14208 0.34786 0.65544 0.0
H1237 H 0.09713 0.35548 0.64068 0.0
H1238 H 0.08383 0.33155 0.57655 0.0
H1239 H 0.08484 0.30826 0.52556 0.0
H1240 H 0.13042 0.30146 0.53812 0.0
H1241 H 0.14345 0.32509 0.60263 0.0
C1242 C 0.12951 0.34448 0.63766 0.0
C1243 C 0.12063 0.35349 0.65283 0.0
C1244 C 0.12194 0.33069 0.60083 0.0
C1245 C 0.10416 0.34865 0.63009 0.0
C1246 C 0.09657 0.33499 0.59333 0.0
C1247 C 0.09768 0.31201 0.542 0.0
C1248 C 0.10651 0.30294 0.52681 0.0
C1249 C 0.1053 0.32586 0.57859 0.0
C1250 C 0.12307 0.30788 0.54943 0.0
C1251 C 0.13067 0.32156 0.58611 0.0
H1252 H 0.64725 0.79177 0.65833 0.0
H1253 H 0.6425 0.74024 0.65038 0.0
H1254 H 0.66687 0.75137 0.5874 0.0
H1255 H 0.68934 0.7757 0.53421 0.0
H1256 H 0.69318 0.82691 0.5401 0.0
H1257 H 0.66949 0.81597 0.60468 0.0
C1258 C 0.65136 0.78289 0.64233 0.0
C1259 C 0.64295 0.76514 0.65882 0.0
C1260 C 0.66534 0.78937 0.6061 0.0
C1261 C 0.6488 0.75397 0.6386 0.0
C1262 C 0.6627 0.76032 0.60248 0.0
C1263 C 0.68494 0.78446 0.54929 0.0
C1264 C 0.69315 0.80213 0.53205 0.0
C1265 C 0.67106 0.778 0.58591 0.0
C1266 C 0.68741 0.81334 0.55295 0.0
C1267 C 0.6737 0.80704 0.58966 0.0
H1268 H 0.23553 0.89043 0.62473 0.0
H1269 H 0.18968 0.83822 0.63364 0.0
H1270 H 0.17433 0.84663 0.57019 0.0
H1271 H 0.17385 0.86888 0.51216 0.0
H1272 H 0.21942 0.92124 0.50478 0.0
H1273 H 0.23486 0.91279 0.5682 0.0
C1274 C 0.22214 0.88091 0.61312 0.0
C1275 C 0.21387 0.8637 0.63398 0.0
C1276 C 0.21328 0.88591 0.57707 0.0
C1277 C 0.19656 0.85147 0.61773 0.0
C1278 C 0.18767 0.85632 0.58173 0.0
C1279 C 0.18705 0.87851 0.52502 0.0
C1280 C 0.19546 0.89569 0.50391 0.0
C1281 C 0.19588 0.87352 0.56128 0.0
C1282 C 0.21272 0.9079 0.52018 0.0
C1283 C 0.22154 0.90308 0.55647 0.0
H1284 H 0.65719 0.8735 0.19322 0.0
H1285 H 0.61369 0.84746 0.08542 0.0
H1286 H 0.63421 0.85902 0.01076 0.0
H1287 H 0.66469 0.87659 0.97669 0.0
H1288 H 0.70835 0.90035 0.08483 0.0
H1289 H 0.68775 0.8897 0.15929 0.0
C1290 C 0.65229 0.87052 0.15327 0.0
C1291 C 0.63404 0.85993 0.14434 0.0
C1292 C 0.6642 0.87679 0.11097 0.0
C1293 C 0.62773 0.85568 0.09274 0.0
C1294 C 0.63943 0.86229 0.0503 0.0
C1295 C 0.66959 0.8795 0.01664 0.0
C1296 C 0.6879 0.88943 0.02567 0.0
C1297 C 0.65769 0.87289 0.05896 0.0
C1298 C 0.69426 0.89279 0.07737 0.0
C1299 C 0.68251 0.88673 0.11973 0.0
H1300 H 0.08099 0.76939 0.02696 0.0
H1301 H 0.12649 0.82199 0.02451 0.0
H1302 H 0.14125 0.8133 0.08878 0.0
H1303 H 0.1415 0.79082 0.14524 0.0
H1304 H 0.09667 0.7379 0.14619 0.0
H1305 H 0.08147 0.74663 0.08265 0.0
C1306 C 0.09417 0.77892 0.04021 0.0
C1307 C 0.10248 0.79635 0.0209 0.0
C1308 C 0.10277 0.77377 0.07678 0.0
C1309 C 0.11952 0.80859 0.03919 0.0
C1310 C 0.1281 0.80359 0.07569 0.0
C1311 C 0.12852 0.78111 0.13102 0.0
C1312 C 0.12029 0.76369 0.15024 0.0
C1313 C 0.11989 0.78621 0.09456 0.0
C1314 C 0.10326 0.75141 0.13228 0.0
C1315 C 0.09458 0.75639 0.09585 0.0
H1316 H 0.18497 0.31072 0.03073 0.0
H1317 H 0.23014 0.30338 0.0442 0.0
H1318 H 0.24354 0.32744 0.10796 0.0
H1319 H 0.24251 0.35068 0.1592 0.0
H1320 H 0.19668 0.35712 0.14791 0.0
H1321 H 0.18362 0.33346 0.08357 0.0
C1322 C 0.19762 0.31418 0.04815 0.0
C1323 C 0.20651 0.30521 0.03276 0.0
C1324 C 0.20524 0.32802 0.08477 0.0
C1325 C 0.22309 0.31017 0.05499 0.0
C1326 C 0.23074 0.3239 0.09154 0.0
C1327 C 0.22961 0.34685 0.14305 0.0
C1328 C 0.22072 0.35583 0.15857 0.0
C1329 C 0.22196 0.33296 0.10657 0.0
C1330 C 0.20409 0.35078 0.13635 0.0
C1331 C 0.19647 0.33708 0.09976 0.0
H1332 H 0.90515 0.68892 0.47549 0.0
H1333 H 0.85845 0.69358 0.45921 0.0
H1334 H 0.84706 0.67057 0.39215 0.0
H1335 H 0.84994 0.64849 0.33995 0.0
H1336 H 0.89626 0.6433 0.35755 0.0
H1337 H 0.90818 0.66708 0.42262 0.0
C1338 C 0.89243 0.68484 0.45751 0.0
C1339 C 0.88268 0.69298 0.47265 0.0
C1340 C 0.88585 0.67143 0.41942 0.0
C1341 C 0.86637 0.68775 0.44805 0.0
C1342 C 0.85976 0.67446 0.40996 0.0
C1343 C 0.86255 0.65242 0.35845 0.0
C1344 C 0.87213 0.64401 0.34432 0.0
C1345 C 0.8693 0.66609 0.39574 0.0
C1346 C 0.88867 0.64961 0.36763 0.0
C1347 C 0.89546 0.66315 0.40492 0.0
H1348 H 0.3492 0.24224 0.36771 0.0
H1349 H 0.35801 0.1978 0.3691 0.0
H1350 H 0.3339 0.18245 0.43117 0.0
H1351 H 0.3102 0.18149 0.48522 0.0
H1352 H 0.3006 0.22535 0.48212 0.0
H1353 H 0.32495 0.24094 0.42008 0.0
C1354 C 0.34579 0.22915 0.38123 0.0
C1355 C 0.35559 0.22133 0.36372 0.0
C1356 C 0.33166 0.22021 0.41648 0.0
C1357 C 0.35105 0.20441 0.38241 0.0
C1358 C 0.33709 0.19548 0.41765 0.0
C1359 C 0.31323 0.19433 0.47035 0.0
C1360 C 0.30353 0.20221 0.48814 0.0
C1361 C 0.32727 0.20323 0.43484 0.0
C1362 C 0.30794 0.21906 0.46932 0.0
C1363 C 0.32184 0.22796 0.4338 0.0
H1364 H 0.79569 0.12138 0.52156 0.0
H1365 H 0.78358 0.07713 0.42007 0.0
H1366 H 0.7689 0.08689 0.35882 0.0
H1367 H 0.7607 0.10863 0.3315 0.0
H1368 H 0.77349 0.15353 0.43022 0.0
H1369 H 0.787 0.14307 0.49458 0.0
C1370 C 0.78993 0.11391 0.48597 0.0
C1371 C 0.79077 0.09848 0.47586 0.0
C1372 C 0.7817 0.11976 0.45016 0.0
C1373 C 0.78296 0.08887 0.42967 0.0
C1374 C 0.77464 0.09451 0.39423 0.0
C1375 C 0.76615 0.11598 0.36747 0.0
C1376 C 0.766 0.13181 0.37615 0.0
C1377 C 0.77402 0.10998 0.40389 0.0
C1378 C 0.77352 0.14136 0.42253 0.0
C1379 C 0.78122 0.13537 0.45933 0.0
H1380 H 0.03753 0.47472 0.24777 0.0
H1381 H 0.001 0.45214 0.11921 0.0
H1382 H 0.97597 0.44012 0.18029 0.0
H1383 H 0.96456 0.43587 0.27096 0.0
H1384 H 0.00115 0.45641 0.39997 0.0
H1385 H 0.02616 0.46945 0.33871 0.0
C1386 C 0.02405 0.46715 0.23356 0.0
C1387 C 0.02096 0.46421 0.17954 0.0
C1388 C 0.00983 0.45994 0.269 0.0
C1389 C 0.00355 0.45433 0.16091 0.0
C1390 C 0.98929 0.44755 0.19571 0.0
C1391 C 0.97805 0.44322 0.28524 0.0
C1392 C 0.98117 0.44524 0.33943 0.0
C1393 C 0.99228 0.45023 0.24986 0.0
C1394 C -0.0014 0.45463 0.35819 0.0
C1395 C 0.01283 0.46211 0.32326 0.0
H1396 H 0.57926 0.55721 0.29277 0.0
H1397 H 0.53348 0.50471 0.29439 0.0
H1398 H 0.51878 0.51371 0.23141 0.0
H1399 H 0.5183 0.53642 0.17749 0.0
H1400 H 0.56301 0.58938 0.17732 0.0
H1401 H 0.57869 0.58026 0.23813 0.0
C1402 C 0.56606 0.54776 0.27952 0.0
C1403 C 0.55767 0.53026 0.29845 0.0
C1404 C 0.55739 0.5531 0.24368 0.0
C1405 C 0.54058 0.51816 0.28013 0.0
C1406 C 0.53199 0.52333 0.24431 0.0
C1407 C 0.53136 0.54607 0.19124 0.0
C1408 C 0.53938 0.56361 0.17339 0.0
C1409 C 0.54019 0.54077 0.22622 0.0
C1410 C 0.55657 0.57578 0.19041 0.0
C1411 C 0.5655 0.57058 0.22528 0.0
H1412 H 0.47724 0.01503 0.32075 0.0
H1413 H 0.43371 0.02508 0.31419 0.0
H1414 H 0.41847 0.0011 0.25112 0.0
H1415 H 0.41708 0.97679 0.19956 0.0
H1416 H 0.46087 0.96697 0.20406 0.0
H1417 H 0.47616 0.99097 0.26665 0.0
C1418 C 0.46455 0.01211 0.30489 0.0
C1419 C 0.45662 0.02184 0.32223 0.0
C1420 C 0.45574 0.99813 0.26881 0.0
C1421 C 0.44002 0.0177 0.30187 0.0
C1422 C 0.4313 0.00398 0.26578 0.0
C1423 C 0.43002 0.97993 0.21379 0.0
C1424 C 0.43763 0.96987 0.19684 0.0
C1425 C 0.43894 0.994 0.24931 0.0
C1426 C 0.45437 0.97412 0.21671 0.0
C1427 C 0.46329 0.98804 0.2523 0.0
H1428 H 0.56405 0.9783 0.72738 0.0
H1429 H 0.51021 0.96802 0.72347 0.0
H1430 H 0.51759 0.99147 0.78638 0.0
H1431 H 0.53943 0.01569 0.8405 0.0
H1432 H 0.59356 0.02718 0.84167 0.0
H1433 H 0.58598 0.00266 0.78131 0.0
C1434 C 0.55392 0.9812 0.7399 0.0
C1435 C 0.5366 0.97126 0.72001 0.0
C1436 C 0.55833 0.99509 0.7754 0.0
C1437 C 0.52362 0.97511 0.738 0.0
C1438 C 0.52785 0.98873 0.77384 0.0
C1439 C 0.54963 0.013 0.82703 0.0
C1440 C 0.56707 0.02334 0.84528 0.0
C1441 C 0.5452 -0.00105 0.79225 0.0
C1442 C 0.58002 0.01936 0.82843 0.0
C1443 C 0.5757 0.00537 0.79384 0.0
H1444 H 0.97778 0.55673 0.80955 0.0
H1445 H 0.97201 0.50471 0.80274 0.0
H1446 H 0.99666 0.51537 0.74179 0.0
H1447 H 0.02007 0.53941 0.69081 0.0
H1448 H 0.02664 0.59167 0.69846 0.0
H1449 H 0.00159 0.58102 0.75904 0.0
C1450 C 0.98196 0.54775 0.79495 0.0
C1451 C 0.97288 0.52991 0.81069 0.0
C1452 C 0.99639 0.55403 0.76026 0.0
C1453 C 0.97841 0.51841 0.79076 0.0
C1454 C 0.99268 0.52454 0.75618 0.0
C1455 C 0.01622 0.54855 0.70632 0.0
C1456 C 0.02531 0.56636 0.69049 0.0
C1457 C 0.0018 0.54232 0.74086 0.0
C1458 C 0.01981 0.5779 0.70992 0.0
C1459 C 0.00551 0.57181 0.74459 0.0
H1460 H 0.47474 0.43449 0.76342 0.0
H1461 H 0.4478 0.44223 0.89341 0.0
H1462 H 0.43478 0.45475 0.83451 0.0
H1463 H 0.43065 0.46307 0.74515 0.0
H1464 H 0.45563 0.45322 0.61427 0.0
H1465 H 0.46997 0.44207 0.6737 0.0
C1466 C 0.46602 0.43896 0.77851 0.0
C1467 C 0.46212 0.4374 0.83236 0.0
C1468 C 0.45828 0.44576 0.74419 0.0
C1469 C 0.45076 0.44311 0.85188 0.0
C1470 C 0.4434 0.45034 0.81831 0.0
C1471 C 0.43929 0.4585 0.73011 0.0
C1472 C 0.44221 0.45891 0.67594 0.0
C1473 C 0.44699 0.45166 0.76436 0.0
C1474 C 0.45325 0.45288 0.65609 0.0
C1475 C 0.46141 0.44655 0.68997 0.0
H1476 H 0.31062 0.15304 0.0931 0.0
H1477 H 0.30294 0.12742 0.24344 0.0
H1478 H 0.33234 0.15028 0.27129 0.0
H1479 H 0.36026 0.17737 0.25279 0.0
H1480 H 0.36797 0.20327 0.103 0.0
H1481 H 0.33857 0.18032 0.07476 0.0
C1482 C 0.31533 0.15256 0.13211 0.0
C1483 C 0.30463 0.13862 0.16624 0.0
C1484 C 0.33231 0.16564 0.14769 0.0
C1485 C 0.31094 0.13805 0.21648 0.0
C1486 C 0.32777 0.15107 0.23238 0.0
C1487 C 0.35558 0.17788 0.21375 0.0
C1488 C 0.36627 0.19187 0.17984 0.0
C1489 C 0.3386 0.16484 0.19817 0.0
C1490 C 0.35996 0.19255 0.1297 0.0
C1491 C 0.34315 0.17949 0.11362 0.0
H1492 H 0.81735 0.17872 0.26418 0.0
H1493 H 0.78953 0.15749 0.11845 0.0
H1494 H 0.81187 0.15002 0.0913 0.0
H1495 H 0.83956 0.15013 0.10826 0.0
H1496 H 0.86742 0.17141 0.25393 0.0
H1497 H 0.84465 0.17812 0.28211 0.0
C1498 C 0.8162 0.1725 0.22641 0.0
C1499 C 0.8019 0.16875 0.19319 0.0
C1500 C 0.82902 0.16818 0.21123 0.0
C1501 C 0.80046 0.16052 0.14465 0.0
C1502 C 0.81321 0.15625 0.12913 0.0
C1503 C 0.84059 0.15611 0.14636 0.0
C1504 C 0.85515 0.16028 0.17897 0.0
C1505 C 0.82756 0.16006 0.16206 0.0
C1506 C 0.85633 0.16807 0.22814 0.0
C1507 C 0.84335 0.17196 0.2442 0.0
H1508 H 0.82368 0.64255 0.24536 0.0
H1509 H 0.83568 0.63334 0.08818 0.0
H1510 H 0.84342 0.66342 0.06311 0.0
H1511 H 0.8463 0.69206 0.08585 0.0
H1512 H 0.83424 0.7011 0.24319 0.0
H1513 H 0.82735 0.67136 0.26872 0.0
C1514 C 0.82782 0.64706 0.20546 0.0
C1515 C 0.8289 0.63574 0.1684 0.0
C1516 C 0.8325 0.66438 0.19171 0.0
C1517 C 0.83463 0.64184 0.11719 0.0
C1518 C 0.83913 0.65903 0.10297 0.0
C1519 C 0.84245 0.68762 0.12595 0.0
C1520 C 0.84085 0.69873 0.16272 0.0
C1521 C 0.83816 0.67041 0.13998 0.0
C1522 C 0.8356 0.69275 0.2143 0.0
C1523 C 0.83155 0.67574 0.2288 0.0
H1524 H 0.1535 0.30265 0.4162 0.0
H1525 H 0.12603 0.29628 0.26995 0.0
H1526 H 0.14704 0.32698 0.24668 0.0
H1527 H 0.17305 0.3556 0.26834 0.0
H1528 H 0.20039 0.36186 0.41481 0.0
H1529 H 0.17939 0.3312 0.43793 0.0
C1530 C 0.15221 0.30791 0.37897 0.0
C1531 C 0.13833 0.29719 0.34462 0.0
C1532 C 0.16415 0.32558 0.36627 0.0
C1533 C 0.13667 0.30427 0.29691 0.0
C1534 C 0.14862 0.32182 0.28371 0.0
C1535 C 0.17431 0.3503 0.30556 0.0
C1536 C 0.18818 0.36099 0.34 0.0
C1537 C 0.16233 0.33262 0.31826 0.0
C1538 C 0.18978 0.3539 0.38775 0.0
C1539 C 0.17783 0.33636 0.40089 0.0
H1540 H 0.69175 0.84784 0.41234 0.0
H1541 H 0.69985 0.82661 0.26876 0.0
H1542 H 0.6692 0.81619 0.24294 0.0
H1543 H 0.64013 0.8129 0.26187 0.0
H1544 H 0.63213 0.83396 0.40603 0.0
H1545 H 0.66278 0.84451 0.43132 0.0
C1546 C 0.68687 0.84109 0.37513 0.0
C1547 C 0.69802 0.83809 0.34228 0.0
C1548 C 0.66924 0.83493 0.36103 0.0
C1549 C 0.69148 0.82912 0.29456 0.0
C1550 C 0.67397 0.82311 0.27991 0.0
C1551 C 0.64506 0.81967 0.29901 0.0
C1552 C 0.6339 0.82259 0.33217 0.0
C1553 C 0.66271 0.82584 0.31305 0.0
C1554 C 0.64048 0.83152 0.37993 0.0
C1555 C 0.658 0.83761 0.39432 0.0
H1556 H 0.14437 0.84151 0.40436 0.0
H1557 H 0.16095 0.86646 0.25269 0.0
H1558 H 0.16998 0.84511 0.22744 0.0
H1559 H 0.17312 0.8194 0.24859 0.0
H1560 H 0.15651 0.79448 0.40033 0.0
H1561 H 0.14771 0.81598 0.42574 0.0
C1562 C 0.14983 0.84219 0.36561 0.0
C1563 C 0.15188 0.85545 0.33027 0.0
C1564 C 0.15515 0.83003 0.35165 0.0
C1565 C 0.15918 0.85632 0.28048 0.0
C1566 C 0.16439 0.84416 0.26611 0.0
C1567 C 0.16772 0.81877 0.2874 0.0
C1568 C 0.16553 0.80543 0.32264 0.0
C1569 C 0.1625 0.83102 0.30147 0.0
C1570 C 0.15836 0.80466 0.37257 0.0
C1571 C 0.15327 0.8169 0.38705 0.0
H1572 H 0.69128 0.84051 0.92238 0.0
H1573 H 0.70088 0.86235 0.76595 0.0
H1574 H 0.67157 0.83929 0.73853 0.0
H1575 H 0.64286 0.81384 0.75973 0.0
H1576 H 0.63281 0.79154 0.91547 0.0
H1577 H 0.66264 0.81401 0.94274 0.0
C1578 C 0.68703 0.84002 0.88213 0.0
C1579 C 0.69818 0.85308 0.84622 0.0
C1580 C 0.67002 0.82688 0.86681 0.0
C1581 C 0.69249 0.85244 0.79431 0.0
C1582 C 0.67572 0.83933 0.77865 0.0
C1583 C 0.64714 0.81398 0.79978 0.0
C1584 C 0.63563 0.80126 0.8358 0.0
C1585 C 0.66428 0.82669 0.81479 0.0
C1586 C 0.64145 0.80133 0.88721 0.0
C1587 C 0.65849 0.81411 0.90272 0.0
H1588 H 0.14927 0.84723 0.90767 0.0
H1589 H 0.12226 0.82538 0.76117 0.0
H1590 H 0.1453 0.81892 0.73499 0.0
H1591 H 0.17249 0.8187 0.7545 0.0
H1592 H 0.20008 0.84072 0.89995 0.0
H1593 H 0.17729 0.8478 0.92616 0.0
C1594 C 0.14856 0.84124 0.86979 0.0
C1595 C 0.13411 0.83677 0.83637 0.0
C1596 C 0.16178 0.83739 0.8552 0.0
C1597 C 0.13324 0.8289 0.78758 0.0
C1598 C 0.14637 0.82515 0.77266 0.0
C1599 C 0.17346 0.82492 0.79218 0.0
C1600 C 0.18777 0.829 0.82562 0.0
C1601 C 0.16054 0.82913 0.80643 0.0
C1602 C 0.18907 0.83736 0.87378 0.0
C1603 C 0.1761 0.84145 0.88864 0.0
H1604 H 0.15036 0.3034 0.92012 0.0
H1605 H 0.17535 0.3007 0.7769 0.0
H1606 H 0.17968 0.32947 0.74996 0.0
H1607 H 0.17643 0.35529 0.76734 0.0
H1608 H 0.15142 0.35801 0.91048 0.0
H1609 H 0.1471 0.32924 0.93749 0.0
C1610 C 0.15669 0.30907 0.88288 0.0
C1611 C 0.1625 0.29995 0.85045 0.0
C1612 C 0.1592 0.3256 0.86787 0.0
C1613 C 0.17076 0.30749 0.80251 0.0
C1614 C 0.17326 0.32392 0.78715 0.0
C1615 C 0.1701 0.34963 0.80459 0.0
C1616 C 0.16428 0.35875 0.83698 0.0
C1617 C 0.16758 0.3331 0.81961 0.0
C1618 C 0.15601 0.35122 0.88491 0.0
C1619 C 0.15352 0.33478 0.90031 0.0
H1620 H 0.8159 0.6439 0.74142 0.0
H1621 H 0.78803 0.63541 0.59488 0.0
H1622 H 0.80808 0.66623 0.56999 0.0
H1623 H 0.83403 0.69528 0.58921 0.0
H1624 H 0.86181 0.70339 0.73584 0.0
H1625 H 0.84104 0.673 0.76184 0.0
C1626 C 0.81425 0.64874 0.70387 0.0
C1627 C 0.80064 0.63737 0.66973 0.0
C1628 C 0.82567 0.66643 0.69018 0.0
C1629 C 0.79849 0.64391 0.62164 0.0
C1630 C 0.80991 0.66152 0.60751 0.0
C1631 C 0.83537 0.69047 0.62719 0.0
C1632 C 0.8494 0.70157 0.66065 0.0
C1633 C 0.82357 0.67289 0.64147 0.0
C1634 C 0.8511 0.69511 0.70946 0.0
C1635 C 0.83929 0.67771 0.72423 0.0
H1636 H 0.31071 0.15866 0.59224 0.0
H1637 H 0.29993 0.17094 0.74711 0.0
H1638 H 0.33068 0.18139 0.7728 0.0
H1639 H 0.36019 0.18577 0.75171 0.0
H1640 H 0.37039 0.17316 0.59639 0.0
H1641 H 0.34023 0.16433 0.56998 0.0
C1642 C 0.31505 0.16354 0.63175 0.0
C1643 C 0.30307 0.1638 0.66807 0.0
C1644 C 0.33263 0.1696 0.64587 0.0
C1645 C 0.30894 0.17051 0.71869 0.0
C1646 C 0.32649 0.1765 0.73328 0.0
C1647 C 0.35588 0.18135 0.71186 0.0
C1648 C 0.36745 0.18008 0.67599 0.0
C1649 C 0.33841 0.176 0.69722 0.0
C1650 C 0.36168 0.1742 0.62466 0.0
C1651 C 0.34444 0.16909 0.60962 0.0
H1652 H 0.81731 0.17778 0.74428 0.0
H1653 H 0.84055 0.2071 0.60204 0.0
H1654 H 0.8468 0.18414 0.57224 0.0
H1655 H 0.84592 0.15581 0.58741 0.0
H1656 H 0.82279 0.12695 0.73054 0.0
H1657 H 0.81636 0.14974 0.75931 0.0
C1658 C 0.82363 0.1791 0.70657 0.0
C1659 C 0.8284 0.19405 0.67531 0.0
C1660 C 0.82733 0.166 0.69005 0.0
C1661 C 0.83672 0.19567 0.62678 0.0
C1662 C 0.84034 0.18257 0.60978 0.0
C1663 C 0.83956 0.15459 0.62498 0.0
C1664 C 0.83488 0.13975 0.65683 0.0
C1665 C 0.8358 0.16773 0.64127 0.0
C1666 C 0.82653 0.13825 0.70527 0.0
C1667 C 0.82281 0.15125 0.72176 0.0
H1668 H 0.97303 0.49215 0.43421 0.0
H1669 H 0.96429 0.46547 0.58308 0.0
H1670 H 0.99422 0.48737 0.61109 0.0
H1671 H 0.0231 0.5135 0.59173 0.0
H1672 H 0.03167 0.53961 0.44184 0.0
H1673 H 0.0015 0.51828 0.41539 0.0
C1674 C 0.97756 0.49121 0.47307 0.0
C1675 C 0.96646 0.47728 0.50668 0.0
C1676 C 0.9948 0.50357 0.48832 0.0
C1677 C 0.9726 0.47615 0.55664 0.0
C1678 C 0.98972 0.48859 0.57251 0.0
C1679 C 0.01839 0.51444 0.55314 0.0
C1680 C 0.02961 0.52801 0.51859 0.0
C1681 C 0.001 0.50221 0.53835 0.0
C1682 C 0.02329 0.52922 0.46901 0.0
C1683 C 0.00604 0.51708 0.45394 0.0
H1684 H 0.50915 0.48415 0.41525 0.0
H1685 H 0.53844 0.50752 0.55753 0.0
H1686 H 0.51616 0.51493 0.58527 0.0
H1687 H 0.48821 0.51427 0.57004 0.0
H1688 H 0.45852 0.49064 0.4286 0.0
H1689 H 0.48128 0.48402 0.39918 0.0
C1690 C 0.51061 0.4908 0.45242 0.0
C1691 C 0.52535 0.49519 0.48446 0.0
C1692 C 0.49779 0.4951 0.46802 0.0
C1693 C 0.52718 0.50396 0.53224 0.0
C1694 C 0.51447 0.50823 0.54808 0.0
C1695 C 0.48678 0.50784 0.53249 0.0
C1696 C 0.47174 0.50299 0.50144 0.0
C1697 C 0.49974 0.50385 0.51632 0.0
C1698 C 0.47002 0.49454 0.45312 0.0
C1699 C 0.48298 0.49069 0.43641 0.0
H1700 H 0.48874 0.97275 0.59096 0.0
H1701 H 0.52274 0.97566 0.46352 0.0
H1702 H 0.52599 0.00388 0.43598 0.0
H1703 H 0.51859 0.02711 0.44661 0.0
H1704 H 0.48457 0.02455 0.57341 0.0
H1705 H 0.48188 0.99662 0.60293 0.0
C1706 C 0.4969 0.97959 0.55725 0.0
C1707 C 0.50545 0.97215 0.52914 0.0
C1708 C 0.49865 0.99575 0.54155 0.0
C1709 C 0.51604 0.98116 0.48574 0.0
C1710 C 0.51787 0.99725 0.46993 0.0
C1711 C 0.51059 0.02048 0.4808 0.0
C1712 C 0.50171 0.02779 0.50772 0.0
C1713 C 0.50913 0.00457 0.49731 0.0
C1714 C 0.49148 0.01911 0.55203 0.0
C1715 C 0.48995 0.00318 0.56885 0.0
H1716 H 0.48429 0.97088 0.1 0.0
H1717 H 0.46555 0.96115 0.94001 0.0
H1718 H 0.48903 0.9903 0.91409 0.0
H1719 H 0.51356 0.01901 0.93697 0.0
H1720 H 0.53317 0.03006 0.09574 0.0
H1721 H 0.51067 2e-05 0.12228 0.0
C1722 C 0.48563 0.97513 0.05943 0.0
C1723 C 0.47325 0.96398 0.02193 0.0
C1724 C 0.49908 0.99219 0.04478 0.0
C1725 C 0.4749 0.96959 0.96956 0.0
C1726 C 0.48828 0.98626 0.95468 0.0
C1727 C 0.5129 0.01492 0.97752 0.0
C1728 C 0.52478 0.02678 0.01455 0.0
C1729 C 0.50016 0.99778 0.99209 0.0
C1730 C 0.52402 0.02115 0.06663 0.0
C1731 C 0.5112 0.00399 0.08172 0.0
H1732 H 0.02202 0.51394 0.07639 0.0
H1733 H 0.03114 0.49472 0.93036 0.0
H1734 H 0.00085 0.48519 0.90256 0.0
H1735 H 0.97184 0.48227 0.92012 0.0
H1736 H 0.96284 0.5015 0.06633 0.0
H1737 H 0.99307 0.51092 0.09408 0.0
C1738 C 0.01744 0.5078 0.03826 0.0
C1739 C 0.02881 0.50514 0.00528 0.0
C1740 C 1e-05 0.50219 0.02292 0.0
C1741 C 0.02264 0.49698 0.95632 0.0
C1742 C 0.00532 0.49147 0.94052 0.0
C1743 C 0.97644 0.48836 0.95828 0.0
C1744 C 0.96512 0.49111 0.9913 0.0
C1745 C 0.99387 0.49392 0.97366 0.0
C1746 C 0.97131 0.49921 0.04032 0.0
C1747 C 0.98859 0.50465 0.05611 0.0
H1748 H 0.48571 0.50893 0.08231 0.0
H1749 H 0.50226 0.53477 0.9318 0.0
H1750 H 0.51091 0.51327 0.90439 0.0
H1751 H 0.51367 0.48715 0.92358 0.0
H1752 H 0.49701 0.46151 0.07438 0.0
H1753 H 0.48863 0.48314 0.10164 0.0
C1754 C 0.4911 0.50981 0.04333 0.0
C1755 C 0.49325 0.52333 0.00894 0.0
C1756 C 0.49616 0.49757 0.02819 0.0
C1757 C 0.50042 0.52442 0.95884 0.0
C1758 C 0.50541 0.51218 0.94327 0.0
C1759 C 0.50835 0.48639 0.96257 0.0
C1760 C 0.50602 0.47282 0.99705 0.0
C1761 C 0.50338 0.49874 0.97773 0.0
C1762 C 0.49894 0.47187 0.04721 0.0
C1763 C 0.49411 0.48418 0.06275 0.0
H1764 H 0.25713 0.09788 0.95334 0.0
H1765 H 0.2048 0.08933 0.98425 0.0
H1766 H 0.20072 0.09227 0.89039 0.0
H1767 H 0.21299 0.09944 0.80018 0.0
H1768 H 0.26569 0.10892 0.77153 0.0
H1769 H 0.26866 0.10341 0.86398 0.0
C1770 C 0.24475 0.09653 0.93978 0.0
C1771 C 0.23133 0.09349 0.97614 0.0
C1772 C 0.2426 0.09847 0.88604 0.0
C1773 C 0.21538 0.0917 0.95735 0.0
C1774 C 0.21305 0.09342 0.90362 0.0
C1775 C 0.22496 0.09993 0.81406 0.0
C1776 C 0.23913 0.10457 0.77902 0.0
C1777 C 0.22668 0.09707 0.86766 0.0
C1778 C 0.25468 0.10547 0.79779 0.0
C1779 C 0.25637 0.10234 0.85061 0.0
H1780 H 0.88151 0.105 0.97108 0.0
H1781 H 0.91129 0.16202 0.96911 0.0
H1782 H 0.9095 0.16198 0.87371 0.0
H1783 H 0.89737 0.14604 0.79156 0.0
H1784 H 0.86666 0.08911 0.79209 0.0
H1785 H 0.87082 0.08882 0.88699 0.0
C1786 C 0.88788 0.11738 0.94962 0.0
C1787 C 0.8965 0.13348 0.97728 0.0
C1788 C 0.88642 0.1173 0.89445 0.0
C1789 C 0.9045 0.14943 0.94889 0.0
C1790 C 0.90346 0.14944 0.89425 0.0
C1791 C 0.89185 0.13353 0.81209 0.0
C1792 C 0.88166 0.11762 0.78452 0.0
C1793 C 0.89413 0.13349 0.8667 0.0
C1794 C 0.87438 0.10157 0.81233 0.0
C1795 C 0.87681 0.1014 0.86663 0.0
H1796 H 0.84909 0.74945 0.77495 0.0
H1797 H 0.89599 0.80085 0.77195 0.0
H1798 H 0.8937 0.80384 0.86667 0.0
H1799 H 0.87964 0.79059 0.95207 0.0
H1800 H 0.83269 0.73894 0.95294 0.0
H1801 H 0.83381 0.73735 0.85815 0.0
C1802 C 0.85872 0.76135 0.79504 0.0
C1803 C 0.8727 0.77483 0.76642 0.0
C1804 C 0.85743 0.76289 0.84952 0.0
C1805 C 0.88498 0.79031 0.79286 0.0
C1806 C 0.88376 0.79197 0.8472 0.0
C1807 C 0.86955 0.7791 0.93144 0.0
C1808 C 0.85629 0.76482 0.96006 0.0
C1809 C 0.87023 0.77817 0.87621 0.0
C1810 C 0.84327 0.75006 0.9324 0.0
C1811 C 0.84383 0.7491 0.87793 0.0
H1812 H 0.11746 0.25066 0.54573 0.0
H1813 H 0.07146 0.19849 0.55183 0.0
H1814 H 0.07569 0.19719 0.64649 0.0
H1815 H 0.09275 0.21116 0.72836 0.0
H1816 H 0.13854 0.26328 0.71917 0.0
H1817 H 0.13395 0.26442 0.62523 0.0
C1818 C 0.10833 0.23892 0.56746 0.0
C1819 C 0.09418 0.22467 0.54135 0.0
C1820 C 0.11075 0.23833 0.62169 0.0
C1821 C 0.08253 0.20964 0.57067 0.0
C1822 C 0.0849 0.20892 0.62493 0.0
C1823 C 0.10156 0.22275 0.70558 0.0
C1824 C 0.11602 0.23708 0.73046 0.0
C1825 C 0.09894 0.22324 0.65101 0.0
C1826 C 0.12746 0.25203 0.70069 0.0
C1827 C 0.12484 0.25269 0.64701 0.0
H1828 H 0.75469 0.88907 0.70552 0.0
H1829 H 0.78808 0.86884 0.75888 0.0
H1830 H 0.79296 0.86334 0.66783 0.0
H1831 H 0.786 0.8625 0.57291 0.0
H1832 H 0.75219 0.88262 0.52263 0.0
H1833 H 0.7497 0.89043 0.61261 0.0
C1834 C 0.76339 0.88385 0.69773 0.0
C1835 C 0.77098 0.8794 0.73955 0.0
C1836 C 0.76609 0.8807 0.6455 0.0
C1837 C 0.78187 0.87222 0.72774 0.0
C1838 C 0.78473 0.86914 0.67558 0.0
C1839 C 0.7784 0.86892 0.58164 0.0
C1840 C 0.76926 0.87192 0.54106 0.0
C1841 C 0.77668 0.87308 0.63407 0.0
C1842 C 0.75928 0.88006 0.55309 0.0
C1843 C 0.7578 0.8845 0.60461 0.0
H1844 H 0.11196 0.90358 0.71222 0.0
H1845 H 0.11732 0.85717 0.70672 0.0
H1846 H 0.12336 0.86123 0.61283 0.0
H1847 H 0.12679 0.87755 0.53235 0.0
H1848 H 0.12125 0.92396 0.53475 0.0
H1849 H 0.11548 0.92028 0.62935 0.0
C1850 C 0.11455 0.89449 0.69021 0.0
C1851 C 0.11406 0.88002 0.71611 0.0
C1852 C 0.11784 0.89681 0.63569 0.0
C1853 C 0.11738 0.86824 0.6874 0.0
C1854 C 0.12087 0.87057 0.63377 0.0
C1855 C 0.12427 0.88688 0.55329 0.0
C1856 C 0.12443 0.901 0.52618 0.0
C1857 C 0.121 0.88471 0.60745 0.0
C1858 C 0.12114 0.91292 0.55441 0.0
C1859 C 0.1179 0.91086 0.60863 0.0
H1860 H 0.78917 0.89645 0.20867 0.0
H1861 H 0.73828 0.89115 0.24127 0.0
H1862 H 0.73521 0.897 0.14925 0.0
H1863 H 0.74586 0.90125 0.05892 0.0
H1864 H 0.79631 0.90564 0.02438 0.0
H1865 H 0.80086 0.90287 0.11793 0.0
C1866 C 0.77761 0.89696 0.19577 0.0
C1867 C 0.76392 0.8933 0.23172 0.0
C1868 C 0.77581 0.90004 0.14245 0.0
C1869 C 0.74889 0.89376 0.21425 0.0
C1870 C 0.74714 0.8971 0.16168 0.0
C1871 C 0.75793 0.90172 0.07168 0.0
C1872 C 0.77064 0.90346 0.03441 0.0
C1873 C 0.76033 0.89985 0.12526 0.0
C1874 C 0.78628 0.90427 0.05206 0.0
C1875 C 0.78887 0.90262 0.10559 0.0
H1876 H 0.09385 0.88859 0.19977 0.0
H1877 H 0.09764 0.84199 0.22886 0.0
H1878 H 0.09258 0.8342 0.13587 0.0
H1879 H 0.0893 0.84171 0.04619 0.0
H1880 H 0.08641 0.88875 0.01465 0.0
H1881 H 0.08863 0.89519 0.10894 0.0
C1882 C 0.09315 0.87654 0.18583 0.0
C1883 C 0.09609 0.86583 0.22114 0.0
C1884 C 0.09057 0.87233 0.13195 0.0
C1885 C 0.09548 0.85042 0.20237 0.0
C1886 C 0.09262 0.846 0.14926 0.0
C1887 C 0.08907 0.85336 0.05968 0.0
C1888 C 0.08787 0.86483 0.02312 0.0
C1889 C 0.09055 0.85706 0.1136 0.0
C1890 C 0.08737 0.87972 0.04177 0.0
C1891 C 0.08868 0.88342 0.09572 0.0
H1892 H 0.15354 0.2493 0.05978 0.0
H1893 H 0.10741 0.19925 0.02257 0.0
H1894 H 0.09924 0.19465 0.11572 0.0
H1895 H 0.10415 0.20608 0.20703 0.0
H1896 H 0.15006 0.25647 0.24178 0.0
H1897 H 0.15938 0.2597 0.15017 0.0
C1898 C 0.14171 0.23729 0.07182 0.0
C1899 C 0.13102 0.2247 0.03394 0.0
C1900 C 0.13704 0.23485 0.1251 0.0
C1901 C 0.11588 0.20918 0.05073 0.0
C1902 C 0.11118 0.20657 0.10402 0.0
C1903 C 0.11636 0.21758 0.19466 0.0
C1904 C 0.12639 0.23107 0.23118 0.0
C1905 C 0.12152 0.21946 0.1415 0.0
C1906 C 0.14206 0.24601 0.21437 0.0
C1907 C 0.14739 0.24786 0.16201 0.0
H1908 H 0.92041 0.7779 0.42467 0.0
H1909 H 0.86883 0.76596 0.47901 0.0
H1910 H 0.85977 0.767 0.38896 0.0
H1911 H 0.86569 0.76909 0.29527 0.0
H1912 H 0.91593 0.77725 0.23898 0.0
H1913 H 0.92651 0.78053 0.32904 0.0
C1914 C 0.90731 0.77585 0.41662 0.0
C1915 C 0.8953 0.77197 0.45818 0.0
C1916 C 0.90193 0.77572 0.3644 0.0
C1917 C 0.87826 0.76898 0.44748 0.0
C1918 C 0.87308 0.76955 0.39606 0.0
C1919 C 0.8789 0.77138 0.30218 0.0
C1920 C 0.88974 0.77246 0.2596 0.0
C1921 C 0.88466 0.77247 0.35416 0.0
C1922 C 0.90712 0.77623 0.27032 0.0
C1923 C 0.9132 0.77801 0.3221 0.0
H1924 H 0.24958 0.11019 0.30758 0.0
H1925 H 0.21459 0.12792 0.2502 0.0
H1926 H 0.20882 0.13335 0.34049 0.0
H1927 H 0.21501 0.13439 0.43614 0.0
H1928 H 0.25057 0.11691 0.49052 0.0
H1929 H 0.25436 0.10956 0.40113 0.0
C1930 C 0.24038 0.11488 0.31444 0.0
C1931 C 0.23249 0.11855 0.27175 0.0
C1932 C 0.23717 0.11798 0.36624 0.0
C1933 C 0.22099 0.12512 0.28211 0.0
C1934 C 0.21762 0.12814 0.33382 0.0
C1935 C 0.22331 0.12866 0.42839 0.0
C1936 C 0.23249 0.1262 0.47001 0.0
C1937 C 0.22579 0.12479 0.3763 0.0
C1938 C 0.2434 0.119 0.45925 0.0
C1939 C 0.24563 0.11483 0.40808 0.0
H1940 H 0.84433 0.08859 0.4529 0.0
H1941 H 0.90027 0.11599 0.48656 0.0
H1942 H 0.90684 0.12063 0.39273 0.0
H1943 H 0.89665 0.1193 0.30147 0.0
H1944 H 0.8407 0.09206 0.26882 0.0
H1945 H 0.83423 0.08482 0.36156 0.0
C1946 C 0.85798 0.09538 0.43979 0.0
C1947 C 0.87178 0.10207 0.47697 0.0
C1948 C 0.86168 0.09813 0.38578 0.0
C1949 C 0.88937 0.11068 0.45901 0.0
C1950 C 0.89315 0.11345 0.40527 0.0
C1951 C 0.88306 0.11165 0.31469 0.0
C1952 C 0.8692 0.10633 0.27812 0.0
C1953 C 0.87941 0.10762 0.36838 0.0
C1954 C 0.85164 0.0962 0.29578 0.0
C1955 C 0.84792 0.09216 0.349 0.0
H1956 H 0.88423 0.40556 0.2645 0.0
H1957 H 0.92048 0.45981 0.30746 0.0
H1958 H 0.92173 0.46902 0.2171 0.0
H1959 H 0.91333 0.46196 0.12598 0.0
H1960 H 0.87762 0.40822 0.07915 0.0
H1961 H 0.87514 0.39853 0.17091 0.0
C1962 C 0.89225 0.41939 0.25404 0.0
C1963 C 0.90231 0.43192 0.29283 0.0
C1964 C 0.8931 0.4247 0.20132 0.0
C1965 C 0.91271 0.44981 0.27855 0.0
C1966 C 0.91346 0.45515 0.22677 0.0
C1967 C 0.90522 0.44807 0.13555 0.0
C1968 C 0.89596 0.43577 0.0957 0.0
C1969 C 0.90392 0.4427 0.18784 0.0
C1970 C 0.88495 0.41791 0.10921 0.0
C1971 C 0.88356 0.4124 0.16159 0.0
H1972 H 0.56709 0.48536 0.27829 0.0
H1973 H 0.57652 0.44216 0.30724 0.0
H1974 H 0.57366 0.43541 0.21284 0.0
H1975 H 0.56611 0.44059 0.12294 0.0
H1976 H 0.55725 0.48434 0.0964 0.0
H1977 H 0.56227 0.49211 0.18919 0.0
C1978 C 0.56848 0.47442 0.26409 0.0
C1979 C 0.57164 0.46403 0.29982 0.0
C1980 C 0.56692 0.47075 0.21018 0.0
C1981 C 0.57395 0.45026 0.28053 0.0
C1982 C 0.57229 0.4464 0.2266 0.0
C1983 C 0.56568 0.45205 0.13728 0.0
C1984 C 0.56113 0.46179 0.10274 0.0
C1985 C 0.56849 0.45641 0.19109 0.0
C1986 C 0.56047 0.4765 0.12221 0.0
C1987 C 0.56334 0.48095 0.17526 0.0
H1988 H 0.55521 0.09325 0.15225 0.0
H1989 H 0.51408 0.1021 0.09169 0.0
H1990 H 0.50673 0.10643 0.18086 0.0
H1991 H 0.51035 0.10524 0.27722 0.0
H1992 H 0.54935 0.09313 0.33604 0.0
H1993 H 0.55905 0.09237 0.24652 0.0
C1994 C 0.54447 0.0959 0.15806 0.0
C1995 C 0.53506 0.097 0.11458 0.0
C1996 C 0.53993 0.09782 0.20955 0.0
C1997 C 0.52162 0.10112 0.12383 0.0
C1998 C 0.51733 0.10354 0.17507 0.0
C1999 C 0.5212 0.1028 0.27021 0.0
C2000 C 0.52933 0.09948 0.31295 0.0
C2001 C 0.5262 0.10164 0.21834 0.0
C2002 C 0.54305 0.09587 0.30362 0.0
C2003 C 0.54852 0.09535 0.25249 0.0
H2004 H 0.74233 0.54708 0.8978 0.0
H2005 H 0.79488 0.58462 0.84411 0.0
H2006 H 0.80621 0.58785 0.93306 0.0
H2007 H 0.80101 0.58193 0.02637 0.0
H2008 H 0.74875 0.5449 0.08298 0.0
H2009 H 0.73746 0.53978 0.99287 0.0
C2010 C 0.7563 0.5557 0.90555 0.0
C2011 C 0.76772 0.56559 0.86428 0.0
C2012 C 0.76274 0.55783 0.95743 0.0
C2013 C 0.78577 0.5769 0.8751 0.0
C2014 C 0.79228 0.57881 0.92604 0.0
C2015 C 0.78722 0.57244 0.01931 0.0
C2016 C 0.7758 0.56379 0.06178 0.0
C2017 C 0.78085 0.56961 0.9676 0.0
C2018 C 0.75784 0.55189 0.05125 0.0
C2019 C 0.75139 0.54889 0.99963 0.0
H2020 H 0.45076 0.23309 0.88032 0.0
H2021 H 0.42375 0.1761 0.88029 0.0
H2022 H 0.42293 0.17576 0.97594 0.0
H2023 H 0.42709 0.1914 0.05914 0.0
H2024 H 0.45244 0.24824 0.06024 0.0
H2025 H 0.45673 0.24894 0.96509 0.0
C2026 C 0.44504 0.22065 0.90139 0.0
C2027 C 0.43733 0.20465 0.87323 0.0
C2028 C 0.44411 0.22051 0.95668 0.0
C2029 C 0.42973 0.1886 0.90104 0.0
C2030 C 0.42921 0.18838 0.95578 0.0
C2031 C 0.43391 0.20396 0.03878 0.0
C2032 C 0.43942 0.21974 0.06679 0.0
C2033 C 0.43596 0.20422 0.98399 0.0
C2034 C 0.44795 0.2359 0.03949 0.0
C2035 C 0.45041 0.2363 0.98509 0.0
H2036 H 0.80447 0.21686 0.88196 0.0
H2037 H 0.80331 0.26567 0.88552 0.0
H2038 H 0.7966 0.26168 0.97959 0.0
H2039 H 0.79145 0.24434 0.06119 0.0
H2040 H 0.79217 0.19522 0.05382 0.0
H2041 H 0.79916 0.19972 0.96158 0.0
C2042 C 0.80271 0.22666 0.90302 0.0
C2043 C 0.80438 0.24154 0.87641 0.0
C2044 C 0.79902 0.22438 0.95692 0.0
C2045 C 0.80204 0.25405 0.90479 0.0
C2046 C 0.79827 0.2518 0.9587 0.0
C2047 C 0.79307 0.23458 0.03952 0.0
C2048 C 0.79139 0.21955 0.06561 0.0
C2049 C 0.79679 0.23702 0.98529 0.0
C2050 C 0.79372 0.20716 0.03625 0.0
C2051 C 0.79755 0.20959 0.98281 0.0
H2052 H 0.42272 0.24448 0.39579 0.0
H2053 H 0.4557 0.22204 0.36005 0.0
H2054 H 0.45877 0.21804 0.45386 0.0
H2055 H 0.45021 0.219 0.54613 0.0
H2056 H 0.41812 0.24246 0.58085 0.0
H2057 H 0.41669 0.24813 0.48767 0.0
C2058 C 0.43073 0.23887 0.40855 0.0
C2059 C 0.43885 0.23342 0.37097 0.0
C2060 C 0.43256 0.23676 0.46246 0.0
C2061 C 0.44935 0.22638 0.38815 0.0
C2062 C 0.45103 0.224 0.4418 0.0
C2063 C 0.44312 0.22555 0.53312 0.0
C2064 C 0.4343 0.2303 0.57033 0.0
C2065 C 0.44243 0.22886 0.47929 0.0
C2066 C 0.4252 0.23886 0.55316 0.0
C2067 C 0.42426 0.24198 0.4998 0.0
H2068 H 0.76558 0.18216 0.39875 0.0
H2069 H 0.75238 0.22299 0.37359 0.0
H2070 H 0.75774 0.23107 0.46693 0.0
H2071 H 0.76823 0.22761 0.5544 0.0
H2072 H 0.78028 0.18582 0.57759 0.0
H2073 H 0.77326 0.17697 0.4862 0.0
C2074 C 0.76392 0.19287 0.41357 0.0
C2075 C 0.75896 0.20221 0.3792 0.0
C2076 C 0.7668 0.19723 0.46692 0.0
C2077 C 0.75633 0.2157 0.3993 0.0
C2078 C 0.75941 0.22031 0.45259 0.0
C2079 C 0.76897 0.21636 0.53967 0.0
C2080 C 0.77504 0.20755 0.57269 0.0
C2081 C 0.76489 0.2113 0.48668 0.0
C2082 C 0.77599 0.19304 0.55282 0.0
C2083 C 0.77195 0.18794 0.50055 0.0
H2084 H 0.77406 0.54605 0.53505 0.0
H2085 H 0.8156 0.59983 0.56004 0.0
H2086 H 0.82444 0.60211 0.46813 0.0
H2087 H 0.81941 0.58952 0.38029 0.0
H2088 H 0.77741 0.53603 0.35287 0.0
H2089 H 0.76985 0.53284 0.44642 0.0
C2090 C 0.78523 0.55815 0.52053 0.0
C2091 C 0.79417 0.57279 0.55436 0.0
C2092 C 0.79008 0.55944 0.46726 0.0
C2093 C 0.80844 0.58846 0.53471 0.0
C2094 C 0.81351 0.58975 0.48221 0.0
C2095 C 0.80864 0.57708 0.39454 0.0
C2096 C 0.79893 0.56305 0.35928 0.0
C2097 C 0.80424 0.57544 0.448 0.0
C2098 C 0.7851 0.54705 0.37895 0.0
C2099 C 0.78075 0.54524 0.43247 0.0
H2100 H 0.55643 0.11803 0.64405 0.0
H2101 H 0.54648 0.06515 0.6154 0.0
H2102 H 0.55246 0.06233 0.7073 0.0
H2103 H 0.55904 0.07416 0.79666 0.0
H2104 H 0.56928 0.12708 0.82676 0.0
H2105 H 0.5649 0.13066 0.73359 0.0
C2106 C 0.55587 0.10602 0.65768 0.0
C2107 C 0.55085 0.09176 0.62263 0.0
C2108 C 0.55928 0.10443 0.71105 0.0
C2109 C 0.55003 0.07623 0.64144 0.0
C2110 C 0.55349 0.07461 0.69407 0.0
C2111 C 0.56039 0.08654 0.783 0.0
C2112 C 0.56436 0.10029 0.81906 0.0
C2113 C 0.55783 0.0885 0.72942 0.0
C2114 C 0.56621 0.11625 0.80014 0.0
C2115 C 0.56367 0.1183 0.74676 0.0
H2116 H 0.90628 0.44345 0.62444 0.0
H2117 H 0.87589 0.46724 0.57418 0.0
H2118 H 0.87133 0.47256 0.66638 0.0
H2119 H 0.87843 0.47255 0.76118 0.0
H2120 H 0.90973 0.44913 0.80781 0.0
H2121 H 0.91146 0.44147 0.71713 0.0
C2122 C 0.89872 0.44988 0.6337 0.0
C2123 C 0.89178 0.45537 0.59292 0.0
C2124 C 0.89633 0.4529 0.68613 0.0
C2125 C 0.88148 0.4631 0.60523 0.0
C2126 C 0.87893 0.46614 0.65779 0.0
C2127 C 0.88532 0.46547 0.75142 0.0
C2128 C 0.89405 0.46152 0.79107 0.0
C2129 C 0.88659 0.46138 0.69862 0.0
C2130 C 0.90304 0.45246 0.77794 0.0
C2131 C 0.90407 0.44809 0.7261 0.0
H2132 H 0.54889 0.42764 0.61634 0.0
H2133 H 0.52055 0.45625 0.6082 0.0
H2134 H 0.5136 0.45118 0.70142 0.0
H2135 H 0.51686 0.44012 0.78582 0.0
H2136 H 0.54456 0.4109 0.79637 0.0
H2137 H 0.55047 0.41466 0.7017 0.0
C2138 C 0.54096 0.43248 0.63494 0.0
C2139 C 0.5354 0.44248 0.6055 0.0
C2140 C 0.5371 0.42961 0.68903 0.0
C2141 C 0.52522 0.44878 0.63017 0.0
C2142 C 0.52124 0.44588 0.68346 0.0
C2143 C 0.52423 0.43457 0.76762 0.0
C2144 C 0.53046 0.42545 0.79837 0.0
C2145 C 0.52741 0.43664 0.71344 0.0
C2146 C 0.53969 0.41808 0.7737 0.0
C2147 C 0.54307 0.42022 0.71956 0.0
H2148 H 0.54295 0.76133 0.46599 0.0
H2149 H 0.59555 0.77042 0.43765 0.0
H2150 H 0.59872 0.7657 0.5305 0.0
H2151 H 0.58745 0.76101 0.62015 0.0
H2152 H 0.5349 0.75189 0.65038 0.0
H2153 H 0.5307 0.75439 0.55625 0.0
C2154 C 0.55494 0.76189 0.47997 0.0
C2155 C 0.56906 0.76632 0.44488 0.0
C2156 C 0.55674 0.75934 0.53377 0.0
C2157 C 0.5846 0.76722 0.46389 0.0
C2158 C 0.58641 0.76454 0.51697 0.0
C2159 C 0.57502 0.7595 0.60631 0.0
C2160 C 0.56158 0.75647 0.64248 0.0
C2161 C 0.57273 0.76097 0.55239 0.0
C2162 C 0.54549 0.75429 0.62351 0.0
C2163 C 0.5431 0.75575 0.56966 0.0
H2164 H 0.19588 0.77928 0.46399 0.0
H2165 H 0.24963 0.80459 0.40732 0.0
H2166 H 0.2605 0.81088 0.49789 0.0
H2167 H 0.25452 0.81062 0.59345 0.0
H2168 H 0.20039 0.78538 0.64692 0.0
H2169 H 0.18991 0.77709 0.55724 0.0
C2170 C 0.20998 0.7858 0.47093 0.0
C2171 C 0.22188 0.79137 0.42839 0.0
C2172 C 0.21609 0.78934 0.52284 0.0
C2173 C 0.24014 0.80028 0.43908 0.0
C2174 C 0.24636 0.80381 0.49094 0.0
C2175 C 0.24045 0.80298 0.58544 0.0
C2176 C 0.22825 0.79862 0.62683 0.0
C2177 C 0.23444 0.79858 0.53322 0.0
C2178 C 0.21005 0.78894 0.61579 0.0
C2179 C 0.20403 0.78425 0.56447 0.0
H2180 H 0.22259 0.45216 0.47961 0.0
H2181 H 0.17693 0.4015 0.44553 0.0
H2182 H 0.16762 0.39839 0.53713 0.0
H2183 H 0.17338 0.40902 0.62726 0.0
H2184 H 0.21924 0.45936 0.66377 0.0
H2185 H 0.22742 0.46378 0.57061 0.0
C2186 C 0.21043 0.44062 0.49209 0.0
C2187 C 0.20047 0.42702 0.45579 0.0
C2188 C 0.20528 0.43881 0.54522 0.0
C2189 C 0.18488 0.41203 0.47278 0.0
C2190 C 0.17956 0.41026 0.52512 0.0
C2191 C 0.18515 0.42104 0.61507 0.0
C2192 C 0.19577 0.43377 0.65274 0.0
C2193 C 0.18983 0.42339 0.56181 0.0
C2194 C 0.21084 0.44932 0.63577 0.0
C2195 C 0.21554 0.45183 0.58248 0.0
H2196 H 0.45844 0.88881 0.35665 0.0
H2197 H 0.47005 0.94187 0.39132 0.0
H2198 H 0.46837 0.94737 0.29802 0.0
H2199 H 0.46167 0.93637 0.20705 0.0
H2200 H 0.44721 0.88235 0.17462 0.0
H2201 H 0.45284 0.87824 0.26582 0.0
C2202 C 0.46042 0.90151 0.34394 0.0
C2203 C 0.46415 0.91482 0.38114 0.0
C2204 C 0.45931 0.90454 0.29029 0.0
C2205 C 0.46715 0.93138 0.36359 0.0
C2206 C 0.46623 0.93455 0.31018 0.0
C2207 C 0.4599 0.92378 0.21976 0.0
C2208 C 0.45372 0.90959 0.18424 0.0
C2209 C 0.46214 0.92116 0.27314 0.0
C2210 C 0.4519 0.89346 0.20131 0.0
C2211 C 0.4549 0.89102 0.25361 0.0
H2212 H 0.11014 0.51978 0.24208 0.0
H2213 H 0.08654 0.55032 0.19031 0.0
H2214 H 0.08492 0.55855 0.28078 0.0
H2215 H 0.08889 0.55606 0.37409 0.0
H2216 H 0.11023 0.52378 0.42873 0.0
H2217 H 0.11437 0.51751 0.33775 0.0
C2218 C 0.10493 0.52847 0.25075 0.0
C2219 C 0.09856 0.53454 0.2096 0.0
C2220 C 0.1035 0.53271 0.30332 0.0
C2221 C 0.09153 0.54551 0.22132 0.0
C2222 C 0.09056 0.55018 0.27303 0.0
C2223 C 0.0942 0.54742 0.36653 0.0
C2224 C 0.09894 0.54018 0.40868 0.0
C2225 C 0.09619 0.54359 0.31435 0.0
C2226 C 0.10644 0.52956 0.39735 0.0
C2227 C 0.10876 0.52591 0.34522 0.0
H2228 H 0.47018 0.54778 0.39561 0.0
H2229 H 0.43135 0.56431 0.40875 0.0
H2230 H 0.43606 0.57351 0.31667 0.0
H2231 H 0.4497 0.57464 0.22973 0.0
H2232 H 0.48717 0.5562 0.21888 0.0
H2233 H 0.48424 0.54972 0.31182 0.0
C2234 C 0.46266 0.55332 0.37844 0.0
C2235 C 0.45028 0.5551 0.40914 0.0
C2236 C 0.46505 0.55809 0.32529 0.0
C2237 C 0.44105 0.56282 0.38633 0.0
C2238 C 0.44362 0.56795 0.33341 0.0
C2239 C 0.45728 0.56932 0.2479 0.0
C2240 C 0.46848 0.56572 0.21687 0.0
C2241 C 0.45536 0.56533 0.30209 0.0
C2242 C 0.47824 0.55885 0.24121 0.0
C2243 C 0.47664 0.55519 0.29467 0.0
H2244 H 0.12218 0.56658 0.88414 0.0
H2245 H 0.06971 0.55825 0.9098 0.0
H2246 H 0.06752 0.56418 0.81742 0.0
H2247 H 0.07943 0.56942 0.72857 0.0
H2248 H 0.13193 0.57814 0.70074 0.0
H2249 H 0.13533 0.57464 0.79493 0.0
C2250 C 0.11044 0.56646 0.86972 0.0
C2251 C 0.09603 0.56179 0.90382 0.0
C2252 C 0.10922 0.56978 0.81614 0.0
C2253 C 0.08085 0.56154 0.88428 0.0
C2254 C 0.0796 0.56494 0.83146 0.0
C2255 C 0.09167 0.57062 0.74302 0.0
C2256 C 0.10531 0.57376 0.70759 0.0
C2257 C 0.0935 0.56862 0.79686 0.0
C2258 C 0.12121 0.57565 0.72718 0.0
C2259 C 0.12312 0.57361 0.781 0.0
H2260 H 0.46026 0.54561 0.8767 0.0
H2261 H 0.40658 0.5219 0.93267 0.0
H2262 H 0.39568 0.51469 0.84205 0.0
H2263 H 0.40165 0.51385 0.7467 0.0
H2264 H 0.45578 0.53676 0.69448 0.0
H2265 H 0.46622 0.54538 0.78391 0.0
C2266 C 0.44614 0.53861 0.86946 0.0
C2267 C 0.43425 0.53397 0.91168 0.0
C2268 C 0.44005 0.53439 0.81771 0.0
C2269 C 0.41602 0.52555 0.90094 0.0
C2270 C 0.4098 0.5214 0.84913 0.0
C2271 C 0.41571 0.52092 0.75497 0.0
C2272 C 0.4279 0.5246 0.7139 0.0
C2273 C 0.42171 0.52561 0.80713 0.0
C2274 C 0.44609 0.53364 0.72529 0.0
C2275 C 0.45211 0.53859 0.77648 0.0
H2276 H 0.44766 0.87486 0.87551 0.0
H2277 H 0.45455 0.92737 0.86813 0.0
H2278 H 0.46454 0.93038 0.77818 0.0
H2279 H 0.4714 0.91855 0.70145 0.0
H2280 H 0.46472 0.86614 0.70511 0.0
H2281 H 0.45409 0.86251 0.79597 0.0
C2282 C 0.45126 0.88692 0.85417 0.0
C2283 C 0.45053 0.90093 0.87952 0.0
C2284 C 0.45686 0.88855 0.80143 0.0
C2285 C 0.45535 0.91649 0.85089 0.0
C2286 C 0.46092 0.91819 0.79889 0.0
C2287 C 0.46759 0.90624 0.72175 0.0
C2288 C 0.46893 0.89265 0.69618 0.0
C2289 C 0.46175 0.90436 0.77386 0.0
C2290 C 0.4638 0.87682 0.72357 0.0
C2291 C 0.4578 0.87478 0.77567 0.0
H2292 H 0.20948 0.40812 0.14137 0.0
H2293 H 0.25536 0.46038 0.13515 0.0
H2294 H 0.25095 0.46172 0.04061 0.0
H2295 H 0.23381 0.44774 0.95885 0.0
H2296 H 0.18813 0.39555 0.96822 0.0
H2297 H 0.19286 0.39439 0.06204 0.0
C2298 C 0.21855 0.41988 0.11964 0.0
C2299 C 0.23272 0.43414 0.14569 0.0
C2300 C 0.21602 0.4205 0.06549 0.0
C2301 C 0.24428 0.44922 0.11637 0.0
C2302 C 0.24181 0.44996 0.06217 0.0
C2303 C 0.22505 0.43613 0.98165 0.0
C2304 C 0.21058 0.42179 0.95685 0.0
C2305 C 0.22775 0.43563 0.03616 0.0
C2306 C 0.19921 0.40682 0.98664 0.0
C2307 C 0.20191 0.40614 0.04025 0.0
H2308 H 0.56865 0.76572 0.97564 0.0
H2309 H 0.55782 0.80572 0.91687 0.0
H2310 H 0.55313 0.81247 0.00628 0.0
H2311 H 0.55451 0.80873 0.10229 0.0
H2312 H 0.56832 0.77079 0.15978 0.0
H2313 H 0.56957 0.76164 0.06996 0.0
C2314 C 0.56546 0.77606 0.98196 0.0
C2315 C 0.56389 0.78532 0.93886 0.0
C2316 C 0.56328 0.78026 0.03366 0.0
C2317 C 0.55913 0.79828 0.94869 0.0
C2318 C 0.55651 0.80223 1.00008 0.0
C2319 C 0.55742 0.79821 0.09498 0.0
C2320 C 0.56113 0.79028 0.13747 0.0
C2321 C 0.55882 0.7935 0.04298 0.0
C2322 C 0.56532 0.77698 0.12762 0.0
C2323 C 0.56611 0.77181 0.0763 0.0
H2324 H 0.22715 0.77619 0.96231 0.0
H2325 H 0.18028 0.77917 0.92927 0.0
H2326 H 0.17082 0.77199 0.02046 0.0
H2327 H 0.17671 0.76682 0.11029 0.0
H2328 H 0.22382 0.76441 0.14556 0.0
H2329 H 0.23218 0.76911 0.05267 0.0
C2330 C 0.21472 0.77494 0.97492 0.0
C2331 C 0.20447 0.77832 0.93902 0.0
C2332 C 0.20945 0.77101 0.02784 0.0
C2333 C 0.1885 0.77686 0.9562 0.0
C2334 C 0.18307 0.77272 0.00832 0.0
C2335 C 0.18877 0.76718 0.09784 0.0
C2336 C 0.19968 0.76538 0.13517 0.0
C2337 C 0.1936 0.77011 0.04466 0.0
C2338 C 0.21517 0.76578 0.11786 0.0
C2339 C 0.21999 0.76853 0.0647 0.0
H2340 H 0.19872 0.97097 0.30941 0.0
H2341 H 0.1493 0.96318 0.24854 0.0
H2342 H 0.16496 0.9914 0.20131 0.0
H2343 H 0.19291 0.01848 0.17838 0.0
H2344 H 0.24222 0.02518 0.23733 0.0
H2345 H 0.22645 0.99712 0.28391 0.0
C2346 C 0.1914 0.9756 0.28629 0.0
C2347 C 0.17295 0.9653 0.28297 0.0
C2348 C 0.20049 0.99152 0.25853 0.0
C2349 C 0.16356 0.97109 0.25186 0.0
C2350 C 0.17249 0.98714 0.22477 0.0
C2351 C 0.20016 0.01363 0.20084 0.0
C2352 C 0.21865 0.02393 0.20485 0.0
C2353 C 0.19099 0.99745 0.22769 0.0
C2354 C 0.22794 0.01758 0.23431 0.0
C2355 C 0.21895 0.00156 0.26096 0.0
H2356 H 0.96268 0.17034 0.28085 0.0
H2357 H 0.98083 0.1996 0.13598 0.0
H2358 H 0.01111 0.21503 0.16919 0.0
H2359 H 0.03204 0.22132 0.24072 0.0
H2360 H 0.01431 0.1915 0.38496 0.0
H2361 H 0.9841 0.17561 0.35121 0.0
C2362 C 0.97329 0.18008 0.25657 0.0
C2363 C 0.96952 0.18384 0.20605 0.0
C2364 C 0.99066 0.18898 0.27603 0.0
C2365 C 0.98341 0.19632 0.17474 0.0
C2366 C 0.0007 0.20525 0.19387 0.0
C2367 C 0.02169 0.21112 0.2646 0.0
C2368 C 0.02555 0.20766 0.31542 0.0
C2369 C 0.00443 0.2018 0.24462 0.0
C2370 C 0.01175 0.19468 0.34605 0.0
C2371 C 0.99447 0.18546 0.32661 0.0
H2372 H 0.80054 0.83133 0.26447 0.0
H2373 H 0.76579 0.78838 0.36632 0.0
H2374 H 0.77494 0.76913 0.32432 0.0
H2375 H 0.79156 0.76406 0.25603 0.0
H2376 H 0.82691 0.80707 0.15513 0.0
H2377 H 0.81806 0.82649 0.19778 0.0
C2378 C 0.795 0.81776 0.27754 0.0
C2379 C 0.78252 0.81132 0.31855 0.0
C2380 C 0.80011 0.80667 0.25265 0.0
C2381 C 0.77563 0.79378 0.33546 0.0
C2382 C 0.78069 0.78269 0.31102 0.0
C2383 C 0.79755 0.77774 0.24369 0.0
C2384 C 0.80993 0.78405 0.20237 0.0
C2385 C 0.79276 0.78895 0.26922 0.0
C2386 C 0.81715 0.80173 0.1862 0.0
C2387 C 0.81225 0.81292 0.21099 0.0
H2388 H 0.78691 0.02104 0.70047 0.0
H2389 H 0.84007 0.03323 0.73745 0.0
H2390 H 0.82837 0.00533 0.78568 0.0
H2391 H 0.8027 0.97735 0.81772 0.0
H2392 H 0.74991 0.96667 0.78269 0.0
H2393 H 0.76183 0.99448 0.73508 0.0
C2394 C 0.79601 0.0178 0.71968 0.0
C2395 C 0.81435 0.02933 0.71557 0.0
C2396 C 0.78923 0.00207 0.74831 0.0
C2397 C 0.82588 0.02454 0.73945 0.0
C2398 C 0.8192 0.00867 0.76752 0.0
C2399 C 0.79389 0.98131 0.80026 0.0
C2400 C 0.77548 0.96998 0.8034 0.0
C2401 C 0.80086 0.99736 0.77246 0.0
C2402 C 0.76414 0.97513 0.78031 0.0
C2403 C 0.77093 0.99099 0.75301 0.0
H2404 H 0.96306 0.80076 0.7315 0.0
H2405 H 0.96784 0.76039 0.64782 0.0
H2406 H 0.99592 0.76928 0.69165 0.0
H2407 H 0.01838 0.78764 0.75593 0.0
H2408 H 0.01446 0.82895 0.83723 0.0
H2409 H 0.98625 0.81993 0.79403 0.0
C2410 C 0.97029 0.79395 0.72282 0.0
C2411 C 0.96341 0.77997 0.68638 0.0
C2412 C 0.98634 0.79902 0.74852 0.0
C2413 C 0.97298 0.77136 0.67508 0.0
C2414 C 0.98893 0.77631 0.70056 0.0
C2415 C 0.01154 0.79488 0.76381 0.0
C2416 C 0.01866 0.80903 0.79976 0.0
C2417 C 0.99564 0.79001 0.73763 0.0
C2418 C 0.00923 0.81785 0.81041 0.0
C2419 C 0.99319 0.81284 0.78523 0.0
H2420 H 0.22325 0.18349 0.77554 0.0
H2421 H 0.19107 0.1714 0.63614 0.0
H2422 H 0.17618 0.18623 0.6738 0.0
H2423 H 0.17278 0.20318 0.74573 0.0
H2424 H 0.20432 0.21412 0.88581 0.0
H2425 H 0.21848 0.19843 0.84917 0.0
C2426 C 0.2127 0.18367 0.75364 0.0
C2427 C 0.20829 0.17624 0.70298 0.0
C2428 C 0.20399 0.1919 0.77584 0.0
C2429 C 0.19493 0.17717 0.67487 0.0
C2430 C 0.18631 0.18555 0.69653 0.0
C2431 C 0.18271 0.20204 0.76823 0.0
C2432 C 0.18757 0.20983 0.81829 0.0
C2433 C 0.19084 0.19307 0.74682 0.0
C2434 C 0.20027 0.2081 0.84741 0.0
C2435 C 0.20845 0.19926 0.82631 0.0
H2436 H 0.85663 0.30003 0.56704 0.0
H2437 H 0.86185 0.32189 0.7229 0.0
H2438 H 0.87704 0.35151 0.68621 0.0
H2439 H 0.88844 0.37109 0.61051 0.0
H2440 H 0.87721 0.34876 0.454 0.0
H2441 H 0.86458 0.31934 0.49111 0.0
C2442 C 0.8605 0.31107 0.59345 0.0
C2443 C 0.85786 0.30834 0.64814 0.0
C2444 C 0.86826 0.32809 0.57198 0.0
C2445 C 0.86389 0.32326 0.68091 0.0
C2446 C 0.87245 0.34032 0.65987 0.0
C2447 C 0.88283 0.35992 0.58396 0.0
C2448 C 0.88401 0.36252 0.52903 0.0
C2449 C 0.87459 0.34286 0.60544 0.0
C2450 C 0.87708 0.34753 0.49625 0.0
C2451 C 0.86962 0.33056 0.51747 0.0
H2452 H 0.69679 0.5318 0.57661 0.0
H2453 H 0.68243 0.55798 0.69448 0.0
H2454 H 0.65322 0.54592 0.65543 0.0
H2455 H 0.63223 0.52917 0.58597 0.0
H2456 H 0.64635 0.5034 0.46651 0.0
H2457 H 0.67555 0.51483 0.5067 0.0
C2458 C 0.68731 0.53494 0.5937 0.0
C2459 C 0.69187 0.54576 0.63868 0.0
C2460 C 0.67062 0.52833 0.57021 0.0
C2461 C 0.67926 0.54942 0.66062 0.0
C2462 C 0.66259 0.54271 0.6379 0.0
C2463 C 0.64162 0.52588 0.56895 0.0
C2464 C 0.63708 0.51534 0.5235 0.0
C2465 C 0.65821 0.5323 0.5925 0.0
C2466 C 0.64957 0.5116 0.50124 0.0
C2467 C 0.66619 0.518 0.52446 0.0
H2468 H 0.45889 0.16109 0.57226 0.0
H2469 H 0.44553 0.13209 0.71799 0.0
H2470 H 0.45719 0.11373 0.68446 0.0
H2471 H 0.46963 0.10494 0.6124 0.0
H2472 H 0.48406 0.13455 0.46744 0.0
H2473 H 0.47286 0.15322 0.50141 0.0
C2474 C 0.45859 0.15077 0.59667 0.0
C2475 C 0.45135 0.14794 0.6475 0.0
C2476 C 0.46519 0.14019 0.57701 0.0
C2477 C 0.45122 0.13467 0.67898 0.0
C2478 C 0.45773 0.12407 0.65965 0.0
C2479 C 0.47065 0.11565 0.58838 0.0
C2480 C 0.47771 0.11826 0.53729 0.0
C2481 C 0.46457 0.1266 0.60855 0.0
C2482 C 0.47844 0.13199 0.50652 0.0
C2483 C 0.47219 0.1428 0.5261 0.0
H2484 H 0.45773 0.29911 0.08208 0.0
H2485 H 0.45142 0.32054 0.22767 0.0
H2486 H 0.46668 0.35033 0.19009 0.0
H2487 H 0.4798 0.36971 0.11418 0.0
H2488 H 0.48736 0.3485 0.96947 0.0
H2489 H 0.47306 0.31899 0.00806 0.0
C2490 C 0.4598 0.31035 0.10558 0.0
C2491 C 0.45339 0.30771 0.15736 0.0
C2492 C 0.46851 0.32735 0.08369 0.0
C2493 C 0.45634 0.32232 0.1878 0.0
C2494 C 0.46493 0.3393 0.1662 0.0
C2495 C 0.47872 0.35877 0.09121 0.0
C2496 C 0.48465 0.36143 0.03874 0.0
C2497 C 0.47083 0.34191 0.11395 0.0
C2498 C 0.48265 0.34687 0.00954 0.0
C2499 C 0.47461 0.32999 0.03172 0.0
H2500 H 0.63038 0.1315 0.10589 0.0
H2501 H 0.64688 0.11149 0.97572 0.0
H2502 H 0.67676 0.12522 0.0114 0.0
H2503 H 0.69756 0.14104 0.08224 0.0
H2504 H 0.68141 0.16123 0.21281 0.0
H2505 H 0.65178 0.14866 0.17519 0.0
C2506 C 0.64054 0.13019 0.08528 0.0
C2507 C 0.63637 0.12047 0.03819 0.0
C2508 C 0.65763 0.13785 0.10653 0.0
C2509 C 0.64975 0.1191 0.01158 0.0
C2510 C 0.6668 0.12679 0.03226 0.0
C2511 C 0.68769 0.143 0.10216 0.0
C2512 C 0.69176 0.15211 0.15033 0.0
C2513 C 0.6708 0.13595 0.08005 0.0
C2514 C 0.6786 0.15408 0.17607 0.0
C2515 C 0.66169 0.14702 0.15437 0.0
H2516 H 0.84046 0.54062 0.06451 0.0
H2517 H 0.87094 0.55061 0.20656 0.0
H2518 H 0.88558 0.53545 0.16962 0.0
H2519 H 0.89092 0.52096 0.09545 0.0
H2520 H 0.86035 0.51064 0.95336 0.0
H2521 H 0.84501 0.525 0.99125 0.0
C2522 C 0.85032 0.53948 0.08738 0.0
C2523 C 0.85464 0.54679 0.13817 0.0
C2524 C 0.85886 0.53098 0.06561 0.0
C2525 C 0.86722 0.54495 0.16764 0.0
C2526 C 0.87572 0.53643 0.14634 0.0
C2527 C 0.8807 0.52155 0.07294 0.0
C2528 C 0.87678 0.51465 0.02159 0.0
C2529 C 0.87178 0.52958 0.09518 0.0
C2530 C 0.8638 0.51601 0.99268 0.0
C2531 C 0.85492 0.5241 0.01448 0.0
H2532 H 0.51929 0.62567 0.90381 0.0
H2533 H 0.50244 0.64461 0.0358 0.0
H2534 H 0.51663 0.67422 0.99723 0.0
H2535 H 0.53444 0.69477 0.9271 0.0
H2536 H 0.55165 0.67567 0.7963 0.0
H2537 H 0.53596 0.64582 0.83234 0.0
C2538 C 0.51842 0.63618 0.9238 0.0
C2539 C 0.50976 0.6329 0.97259 0.0
C2540 C 0.52653 0.65308 0.90139 0.0
C2541 C 0.50916 0.64681 0.99847 0.0
C2542 C 0.51718 0.6637 0.97629 0.0
C2543 C 0.53476 0.68407 0.90649 0.0
C2544 C 0.54427 0.68749 0.85915 0.0
C2545 C 0.52603 0.66701 0.928 0.0
C2546 C 0.54428 0.67341 0.83243 0.0
C2547 C 0.53546 0.65636 0.85329 0.0
H2548 H 0.36197 0.90343 0.88989 0.0
H2549 H 0.35234 0.85765 0.98031 0.0
H2550 H 0.3236 0.84025 0.9385 0.0
H2551 H 0.30059 0.83837 0.87979 0.0
H2552 H 0.30982 0.88387 0.78906 0.0
H2553 H 0.33961 0.90088 0.826 0.0
C2554 C 0.35369 0.88959 0.89991 0.0
C2555 C 0.3592 0.88196 0.93885 0.0
C2556 C 0.33716 0.87958 0.87544 0.0
C2557 C 0.34825 0.864 0.9515 0.0
C2558 C 0.33186 0.85398 0.92731 0.0
C2559 C 0.30917 0.85199 0.86795 0.0
C2560 C 0.303 0.85992 0.83219 0.0
C2561 C 0.32608 0.86171 0.88991 0.0
C2562 C 0.31433 0.87746 0.81636 0.0
C2563 C 0.33129 0.88722 0.8378 0.0
H2564 H 0.15252 0.45461 0.93985 0.0
H2565 H 0.12296 0.44533 0.79624 0.0
H2566 H 0.10917 0.46161 0.83107 0.0
H2567 H 0.10426 0.47687 0.90388 0.0
H2568 H 0.13405 0.48664 0.04736 0.0
H2569 H 0.14863 0.47124 0.01148 0.0
C2570 C 0.14305 0.45617 0.91622 0.0
C2571 C 0.13871 0.44873 0.86563 0.0
C2572 C 0.13507 0.46539 0.93666 0.0
C2573 C 0.12665 0.45107 0.83508 0.0
C2574 C 0.11866 0.46025 0.85513 0.0
C2575 C 0.11418 0.47595 0.92709 0.0
C2576 C 0.11805 0.48295 0.9783 0.0
C2577 C 0.12263 0.46729 0.90604 0.0
C2578 C 0.13064 0.4812 0.00812 0.0
C2579 C 0.13906 0.4725 0.98751 0.0
H2580 H 0.16088 0.70046 0.42901 0.0
H2581 H 0.12691 0.68114 0.29328 0.0
H2582 H 0.11108 0.6516 0.33187 0.0
H2583 H 0.10568 0.63202 0.40607 0.0
H2584 H 0.1406 0.65047 0.54026 0.0
H2585 H 0.15684 0.67991 0.50115 0.0
C2586 C 0.1501 0.68971 0.4078 0.0
C2587 C 0.14503 0.69292 0.35842 0.0
C2588 C 0.14103 0.67278 0.43031 0.0
C2589 C 0.13116 0.67892 0.33104 0.0
C2590 C 0.12201 0.66209 0.35332 0.0
C2591 C 0.1171 0.64226 0.42651 0.0
C2592 C 0.12189 0.63886 0.47616 0.0
C2593 C 0.12669 0.65896 0.40318 0.0
C2594 C 0.13639 0.65267 0.50243 0.0
C2595 C 0.14581 0.66949 0.47985 0.0
H2596 H 0.29503 0.4296 0.43651 0.0
H2597 H 0.30982 0.47112 0.32246 0.0
H2598 H 0.33933 0.48765 0.36171 0.0
H2599 H 0.36058 0.49032 0.4288 0.0
H2600 H 0.34651 0.44746 0.53814 0.0
H2601 H 0.31676 0.43181 0.50178 0.0
C2602 C 0.30474 0.4423 0.42042 0.0
C2603 C 0.30032 0.44921 0.37686 0.0
C2604 C 0.32165 0.45158 0.44279 0.0
C2605 C 0.31302 0.46553 0.35578 0.0
C2606 C 0.32981 0.475 0.3784 0.0
C2607 C 0.35116 0.47745 0.4444 0.0
C2608 C 0.35598 0.47017 0.48633 0.0
C2609 C 0.33425 0.46814 0.42191 0.0
C2610 C 0.34325 0.45365 0.50666 0.0
C2611 C 0.32623 0.44454 0.48543 0.0
H2612 H 0.56399 0.8683 0.35431 0.0
H2613 H 0.52438 0.81818 0.41743 0.0
H2614 H 0.51214 0.833 0.47009 0.0
H2615 H 0.5128 0.8604 0.49828 0.0
H2616 H 0.5525 0.91037 0.43463 0.0
H2617 H 0.56481 0.89553 0.38272 0.0
C2618 C 0.5525 0.86063 0.37896 0.0
C2619 C 0.54496 0.84221 0.38164 0.0
C2620 C 0.54577 0.86925 0.40972 0.0
C2621 C 0.53033 0.83241 0.41465 0.0
C2622 C 0.5234 0.84087 0.44492 0.0
C2623 C 0.52431 0.86798 0.47363 0.0
C2624 C 0.53185 0.8864 0.47036 0.0
C2625 C 0.5311 0.85931 0.44313 0.0
C2626 C 0.54657 0.89615 0.43772 0.0
C2627 C 0.55353 0.88768 0.40785 0.0
loop_
_geom_bond_atom_site_label_1
_geom_bond_atom_site_label_2
_geom_bond_distance
_geom_bond_site_symmetry_2
_ccdc_geom_bond_type
Co0 N4 2.148 . S
Co0 N10 2.128 . S
Co0 N20 2.194 . S
Co0 O25 2.351 . S
Co0 O26 2.155 . S
Co0 O27 2.096 . S
C1 N4 1.301 . S
C1 N5 1.328 . S
C1 H6 0.930 . S
C2 C3 1.333 . S
C2 N4 1.317 . S
C2 H7 0.930 . S
C3 C2 1.333 . S
C3 N5 1.350 . S
C3 H29 0.931 . S
N4 Co0 2.148 . S
N4 C1 1.301 . S
N4 C2 1.317 . S
N5 C1 1.328 . S
N5 C3 1.350 . S
H6 C1 0.930 . S
H7 C2 0.930 . S
C8 O9 1.224 . S
C8 O27 1.247 . S
O9 C8 1.224 . S
N10 Co0 2.128 . S
N10 C11 1.355 . S
N10 C13 1.311 . S
C11 N10 1.355 . S
C11 C12 1.363 . S
C11 H23 0.929 . S
C12 C11 1.363 . S
C12 N14 1.375 . S
C12 H30 0.931 . S
C13 N10 1.311 . S
C13 N14 1.347 . S
C13 H24 0.929 . S
N14 C12 1.375 . S
N14 C13 1.347 . S
C15 C18 1.365 . S
C15 N20 1.328 . S
C15 H21 0.929 . S
C16 C17 1.362 . S
C16 C19 1.378 . S
C16 H31 0.929 . S
C17 C16 1.362 . S
C17 C18 1.366 . S
C18 C15 1.365 . S
C18 C17 1.366 . S
C18 H32 0.930 . S
C19 C16 1.378 . S
C19 N20 1.315 . S
C19 H22 0.930 . S
N20 Co0 2.194 . S
N20 C15 1.328 . S
N20 C19 1.315 . S
H21 C15 0.929 . S
H22 C19 0.930 . S
H23 C11 0.929 . S
H24 C13 0.929 . S
O25 Co0 2.351 . S
O25 C28 1.244 . S
O26 Co0 2.155 . S
O26 C28 1.240 . S
O27 Co0 2.096 . S
O27 C8 1.247 . S
C28 O25 1.244 . S
C28 O26 1.240 . S
H29 C3 0.931 . S
H30 C12 0.931 . S
H31 C16 0.929 . S
H32 C18 0.930 . S
Co33 N37 2.148 . S
Co33 N43 2.128 . S
Co33 N53 2.194 . S
Co33 O58 2.351 . S
Co33 O59 2.155 . S
Co33 O60 2.096 . S
C34 N37 1.301 . S
C34 N38 1.328 . S
C34 H39 0.930 . S
C35 C36 1.333 . S
C35 N37 1.317 . S
C35 H40 0.930 . S
C36 C35 1.333 . S
C36 N38 1.350 . S
C36 H62 0.931 . S
N37 Co33 2.148 . S
N37 C34 1.301 . S
N37 C35 1.317 . S
N38 C34 1.328 . S
N38 C36 1.350 . S
H39 C34 0.930 . S
H40 C35 0.930 . S
C41 O42 1.224 . S
C41 O60 1.247 . S
O42 C41 1.224 . S
N43 Co33 2.128 . S
N43 C44 1.355 . S
N43 C46 1.311 . S
C44 N43 1.355 . S
C44 C45 1.363 . S
C44 H56 0.929 . S
C45 C44 1.363 . S
C45 N47 1.375 . S
C45 H63 0.931 . S
C46 N43 1.311 . S
C46 N47 1.347 . S
C46 H57 0.929 . S
N47 C45 1.375 . S
N47 C46 1.347 . S
C48 C51 1.365 . S
C48 N53 1.328 . S
C48 H54 0.929 . S
C49 C50 1.362 . S
C49 C52 1.378 . S
C49 H64 0.929 . S
C50 C49 1.362 . S
C50 C51 1.366 . S
C51 C48 1.365 . S
C51 C50 1.366 . S
C51 H65 0.930 . S
C52 C49 1.378 . S
C52 N53 1.315 . S
C52 H55 0.930 . S
N53 Co33 2.194 . S
N53 C48 1.328 . S
N53 C52 1.315 . S
H54 C48 0.929 . S
H55 C52 0.930 . S
H56 C44 0.929 . S
H57 C46 0.929 . S
O58 Co33 2.351 . S
O58 C61 1.244 . S
O59 Co33 2.155 . S
O59 C61 1.240 . S
O60 Co33 2.096 . S
O60 C41 1.247 . S
C61 O58 1.244 . S
C61 O59 1.240 . S
H62 C36 0.931 . S
H63 C45 0.931 . S
H64 C49 0.929 . S
H65 C51 0.930 . S
Co66 N70 2.148 . S
Co66 N76 2.128 . S
Co66 N86 2.194 . S
Co66 O91 2.351 . S
Co66 O92 2.155 . S
Co66 O93 2.096 . S
C67 N70 1.301 . S
C67 N71 1.328 . S
C67 H72 0.930 . S
C68 C69 1.333 . S
C68 N70 1.317 . S
C68 H73 0.930 . S
C69 C68 1.333 . S
C69 N71 1.350 . S
C69 H95 0.931 . S
N70 Co66 2.148 . S
N70 C67 1.301 . S
N70 C68 1.317 . S
N71 C67 1.328 . S
N71 C69 1.350 . S
H72 C67 0.930 . S
H73 C68 0.930 . S
C74 O75 1.224 . S
C74 O93 1.247 . S
O75 C74 1.224 . S
N76 Co66 2.128 . S
N76 C77 1.355 . S
N76 C79 1.311 . S
C77 N76 1.355 . S
C77 C78 1.363 . S
C77 H89 0.929 . S
C78 C77 1.363 . S
C78 N80 1.375 . S
C78 H96 0.931 . S
C79 N76 1.311 . S
C79 N80 1.347 . S
C79 H90 0.929 . S
N80 C78 1.375 . S
N80 C79 1.347 . S
C81 C84 1.365 . S
C81 N86 1.328 . S
C81 H87 0.929 . S
C82 C83 1.362 . S
C82 C85 1.378 . S
C82 H97 0.929 . S
C83 C82 1.362 . S
C83 C84 1.366 . S
C84 C81 1.365 . S
C84 C83 1.366 . S
C84 H98 0.930 . S
C85 C82 1.378 . S
C85 N86 1.315 . S
C85 H88 0.930 . S
N86 Co66 2.194 . S
N86 C81 1.328 . S
N86 C85 1.315 . S
H87 C81 0.929 . S
H88 C85 0.930 . S
H89 C77 0.929 . S
H90 C79 0.929 . S
O91 Co66 2.351 . S
O91 C94 1.244 . S
O92 Co66 2.155 . S
O92 C94 1.240 . S
O93 Co66 2.096 . S
O93 C74 1.247 . S
C94 O91 1.244 . S
C94 O92 1.240 . S
H95 C69 0.931 . S
H96 C78 0.931 . S
H97 C82 0.929 . S
H98 C84 0.930 . S
Co99 N103 2.148 . S
Co99 N109 2.128 . S
Co99 N119 2.194 . S
Co99 O124 2.351 . S
Co99 O125 2.155 . S
Co99 O126 2.096 . S
C100 N103 1.301 . S
C100 N104 1.328 . S
C100 H105 0.930 . S
C101 C102 1.333 . S
C101 N103 1.317 . S
C101 H106 0.930 . S
C102 C101 1.333 . S
C102 N104 1.350 . S
C102 H128 0.931 . S
N103 Co99 2.148 . S
N103 C100 1.301 . S
N103 C101 1.317 . S
N104 C100 1.328 . S
N104 C102 1.350 . S
H105 C100 0.930 . S
H106 C101 0.930 . S
C107 O108 1.224 . S
C107 O126 1.247 . S
O108 C107 1.224 . S
N109 Co99 2.128 . S
N109 C110 1.355 . S
N109 C112 1.311 . S
C110 N109 1.355 . S
C110 C111 1.363 . S
C110 H122 0.929 . S
C111 C110 1.363 . S
C111 N113 1.375 . S
C111 H129 0.931 . S
C112 N109 1.311 . S
C112 N113 1.347 . S
C112 H123 0.929 . S
N113 C111 1.375 . S
N113 C112 1.347 . S
C114 C117 1.365 . S
C114 N119 1.328 . S
C114 H120 0.929 . S
C115 C116 1.362 . S
C115 C118 1.378 . S
C115 H130 0.929 . S
C116 C115 1.362 . S
C116 C117 1.366 . S
C117 C114 1.365 . S
C117 C116 1.366 . S
C117 H131 0.930 . S
C118 C115 1.378 . S
C118 N119 1.315 . S
C118 H121 0.930 . S
N119 Co99 2.194 . S
N119 C114 1.328 . S
N119 C118 1.315 . S
H120 C114 0.929 . S
H121 C118 0.930 . S
H122 C110 0.929 . S
H123 C112 0.929 . S
O124 Co99 2.351 . S
O124 C127 1.244 . S
O125 Co99 2.155 . S
O125 C127 1.240 . S
O126 Co99 2.096 . S
O126 C107 1.247 . S
C127 O124 1.244 . S
C127 O125 1.240 . S
H128 C102 0.931 . S
H129 C111 0.931 . S
H130 C115 0.929 . S
H131 C117 0.930 . S
Co132 N136 2.148 . S
Co132 N142 2.128 . S
Co132 N152 2.194 . S
Co132 O157 2.351 . S
Co132 O158 2.155 . S
Co132 O159 2.096 . S
C133 N136 1.301 . S
C133 N137 1.328 . S
C133 H138 0.930 . S
C134 C135 1.333 . S
C134 N136 1.317 . S
C134 H139 0.930 . S
C135 C134 1.333 . S
C135 N137 1.350 . S
C135 H161 0.931 . S
N136 Co132 2.148 . S
N136 C133 1.301 . S
N136 C134 1.317 . S
N137 C133 1.328 . S
N137 C135 1.350 . S
H138 C133 0.930 . S
H139 C134 0.930 . S
C140 O141 1.224 . S
C140 O159 1.247 . S
O141 C140 1.224 . S
N142 Co132 2.128 . S
N142 C143 1.355 . S
N142 C145 1.311 . S
C143 N142 1.355 . S
C143 C144 1.363 . S
C143 H155 0.929 . S
C144 C143 1.363 . S
C144 N146 1.375 . S
C144 H162 0.931 . S
C145 N142 1.311 . S
C145 N146 1.347 . S
C145 H156 0.929 . S
N146 C144 1.375 . S
N146 C145 1.347 . S
C147 C150 1.365 . S
C147 N152 1.328 . S
C147 H153 0.929 . S
C148 C149 1.362 . S
C148 C151 1.378 . S
C148 H163 0.929 . S
C149 C148 1.362 . S
C149 C150 1.366 . S
C150 C147 1.365 . S
C150 C149 1.366 . S
C150 H164 0.930 . S
C151 C148 1.378 . S
C151 N152 1.315 . S
C151 H154 0.930 . S
N152 Co132 2.194 . S
N152 C147 1.328 . S
N152 C151 1.315 . S
H153 C147 0.929 . S
H154 C151 0.930 . S
H155 C143 0.929 . S
H156 C145 0.929 . S
O157 Co132 2.351 . S
O157 C160 1.244 . S
O158 Co132 2.155 . S
O158 C160 1.240 . S
O159 Co132 2.096 . S
O159 C140 1.247 . S
C160 O157 1.244 . S
C160 O158 1.240 . S
H161 C135 0.931 . S
H162 C144 0.931 . S
H163 C148 0.929 . S
H164 C150 0.930 . S
Co165 N169 2.148 . S
Co165 N175 2.128 . S
Co165 N185 2.194 . S
Co165 O190 2.351 . S
Co165 O191 2.155 . S
Co165 O192 2.096 . S
C166 N169 1.301 . S
C166 N170 1.328 . S
C166 H171 0.930 . S
C167 C168 1.333 . S
C167 N169 1.317 . S
C167 H172 0.930 . S
C168 C167 1.333 . S
C168 N170 1.350 . S
C168 H194 0.931 . S
N169 Co165 2.148 . S
N169 C166 1.301 . S
N169 C167 1.317 . S
N170 C166 1.328 . S
N170 C168 1.350 . S
H171 C166 0.930 . S
H172 C167 0.930 . S
C173 O174 1.224 . S
C173 O192 1.247 . S
O174 C173 1.224 . S
N175 Co165 2.128 . S
N175 C176 1.355 . S
N175 C178 1.311 . S
C176 N175 1.355 . S
C176 C177 1.363 . S
C176 H188 0.929 . S
C177 C176 1.363 . S
C177 N179 1.375 . S
C177 H195 0.931 . S
C178 N175 1.311 . S
C178 N179 1.347 . S
C178 H189 0.929 . S
N179 C177 1.375 . S
N179 C178 1.347 . S
C180 C183 1.365 . S
C180 N185 1.328 . S
C180 H186 0.929 . S
C181 C182 1.362 . S
C181 C184 1.378 . S
C181 H196 0.929 . S
C182 C181 1.362 . S
C182 C183 1.366 . S
C183 C180 1.365 . S
C183 C182 1.366 . S
C183 H197 0.930 . S
C184 C181 1.378 . S
C184 N185 1.315 . S
C184 H187 0.930 . S
N185 Co165 2.194 . S
N185 C180 1.328 . S
N185 C184 1.315 . S
H186 C180 0.929 . S
H187 C184 0.930 . S
H188 C176 0.929 . S
H189 C178 0.929 . S
O190 Co165 2.351 . S
O190 C193 1.244 . S
O191 Co165 2.155 . S
O191 C193 1.240 . S
O192 Co165 2.096 . S
O192 C173 1.247 . S
C193 O190 1.244 . S
C193 O191 1.240 . S
H194 C168 0.931 . S
H195 C177 0.931 . S
H196 C181 0.929 . S
H197 C183 0.930 . S
Co198 N202 2.148 . S
Co198 N208 2.128 . S
Co198 N218 2.194 . S
Co198 O223 2.351 . S
Co198 O224 2.155 . S
Co198 O225 2.096 . S
C199 N202 1.301 . S
C199 N203 1.328 . S
C199 H204 0.930 . S
C200 C201 1.333 . S
C200 N202 1.317 . S
C200 H205 0.930 . S
C201 C200 1.333 . S
C201 N203 1.350 . S
C201 H227 0.931 . S
N202 Co198 2.148 . S
N202 C199 1.301 . S
N202 C200 1.317 . S
N203 C199 1.328 . S
N203 C201 1.350 . S
H204 C199 0.930 . S
H205 C200 0.930 . S
C206 O207 1.224 . S
C206 O225 1.247 . S
O207 C206 1.224 . S
N208 Co198 2.128 . S
N208 C209 1.355 . S
N208 C211 1.311 . S
C209 N208 1.355 . S
C209 C210 1.363 . S
C209 H221 0.929 . S
C210 C209 1.363 . S
C210 N212 1.375 . S
C210 H228 0.931 . S
C211 N208 1.311 . S
C211 N212 1.347 . S
C211 H222 0.929 . S
N212 C210 1.375 . S
N212 C211 1.347 . S
C213 C216 1.365 . S
C213 N218 1.328 . S
C213 H219 0.929 . S
C214 C215 1.362 . S
C214 C217 1.378 . S
C214 H229 0.929 . S
C215 C214 1.362 . S
C215 C216 1.366 . S
C216 C213 1.365 . S
C216 C215 1.366 . S
C216 H230 0.930 . S
C217 C214 1.378 . S
C217 N218 1.315 . S
C217 H220 0.930 . S
N218 Co198 2.194 . S
N218 C213 1.328 . S
N218 C217 1.315 . S
H219 C213 0.929 . S
H220 C217 0.930 . S
H221 C209 0.929 . S
H222 C211 0.929 . S
O223 Co198 2.351 . S
O223 C226 1.244 . S
O224 Co198 2.155 . S
O224 C226 1.240 . S
O225 Co198 2.096 . S
O225 C206 1.247 . S
C226 O223 1.244 . S
C226 O224 1.240 . S
H227 C201 0.931 . S
H228 C210 0.931 . S
H229 C214 0.929 . S
H230 C216 0.930 . S
Co231 N235 2.148 . S
Co231 N241 2.128 . S
Co231 N251 2.194 . S
Co231 O256 2.351 . S
Co231 O257 2.155 . S
Co231 O258 2.096 . S
C232 N235 1.301 . S
C232 N236 1.328 . S
C232 H237 0.930 . S
C233 C234 1.333 . S
C233 N235 1.317 . S
C233 H238 0.930 . S
C234 C233 1.333 . S
C234 N236 1.350 . S
C234 H260 0.931 . S
N235 Co231 2.148 . S
N235 C232 1.301 . S
N235 C233 1.317 . S
N236 C232 1.328 . S
N236 C234 1.350 . S
H237 C232 0.930 . S
H238 C233 0.930 . S
C239 O240 1.224 . S
C239 O258 1.247 . S
O240 C239 1.224 . S
N241 Co231 2.128 . S
N241 C242 1.355 . S
N241 C244 1.311 . S
C242 N241 1.355 . S
C242 C243 1.363 . S
C242 H254 0.929 . S
C243 C242 1.363 . S
C243 N245 1.375 . S
C243 H261 0.931 . S
C244 N241 1.311 . S
C244 N245 1.347 . S
C244 H255 0.929 . S
N245 C243 1.375 . S
N245 C244 1.347 . S
C246 C249 1.365 . S
C246 N251 1.328 . S
C246 H252 0.929 . S
C247 C248 1.362 . S
C247 C250 1.378 . S
C247 H262 0.929 . S
C248 C247 1.362 . S
C248 C249 1.366 . S
C249 C246 1.365 . S
C249 C248 1.366 . S
C249 H263 0.930 . S
C250 C247 1.378 . S
C250 N251 1.315 . S
C250 H253 0.930 . S
N251 Co231 2.194 . S
N251 C246 1.328 . S
N251 C250 1.315 . S
H252 C246 0.929 . S
H253 C250 0.930 . S
H254 C242 0.929 . S
H255 C244 0.929 . S
O256 Co231 2.351 . S
O256 C259 1.244 . S
O257 Co231 2.155 . S
O257 C259 1.240 . S
O258 Co231 2.096 . S
O258 C239 1.247 . S
C259 O256 1.244 . S
C259 O257 1.240 . S
H260 C234 0.931 . S
H261 C243 0.931 . S
H262 C247 0.929 . S
H263 C249 0.930 . S
Co264 N268 2.148 . S
Co264 N274 2.128 . S
Co264 N284 2.194 . S
Co264 O289 2.351 . S
Co264 O290 2.155 . S
Co264 O291 2.096 . S
C265 N268 1.301 . S
C265 N269 1.328 . S
C265 H270 0.930 . S
C266 C267 1.333 . S
C266 N268 1.317 . S
C266 H271 0.930 . S
C267 C266 1.333 . S
C267 N269 1.350 . S
C267 H293 0.931 . S
N268 Co264 2.148 . S
N268 C265 1.301 . S
N268 C266 1.317 . S
N269 C265 1.328 . S
N269 C267 1.350 . S
H270 C265 0.930 . S
H271 C266 0.930 . S
C272 O273 1.224 . S
C272 O291 1.247 . S
O273 C272 1.224 . S
N274 Co264 2.128 . S
N274 C275 1.355 . S
N274 C277 1.311 . S
C275 N274 1.355 . S
C275 C276 1.363 . S
C275 H287 0.929 . S
C276 C275 1.363 . S
C276 N278 1.375 . S
C276 H294 0.931 . S
C277 N274 1.311 . S
C277 N278 1.347 . S
C277 H288 0.929 . S
N278 C276 1.375 . S
N278 C277 1.347 . S
C279 C282 1.365 . S
C279 N284 1.328 . S
C279 H285 0.929 . S
C280 C281 1.362 . S
C280 C283 1.378 . S
C280 H295 0.929 . S
C281 C280 1.362 . S
C281 C282 1.366 . S
C282 C279 1.365 . S
C282 C281 1.366 . S
C282 H296 0.930 . S
C283 C280 1.378 . S
C283 N284 1.315 . S
C283 H286 0.930 . S
N284 Co264 2.194 . S
N284 C279 1.328 . S
N284 C283 1.315 . S
H285 C279 0.929 . S
H286 C283 0.930 . S
H287 C275 0.929 . S
H288 C277 0.929 . S
O289 Co264 2.351 . S
O289 C292 1.244 . S
O290 Co264 2.155 . S
O290 C292 1.240 . S
O291 Co264 2.096 . S
O291 C272 1.247 . S
C292 O289 1.244 . S
C292 O290 1.240 . S
H293 C267 0.931 . S
H294 C276 0.931 . S
H295 C280 0.929 . S
H296 C282 0.930 . S
Co297 N301 2.148 . S
Co297 N307 2.128 . S
Co297 N317 2.194 . S
Co297 O322 2.351 . S
Co297 O323 2.155 . S
Co297 O324 2.096 . S
C298 N301 1.301 . S
C298 N302 1.328 . S
C298 H303 0.930 . S
C299 C300 1.333 . S
C299 N301 1.317 . S
C299 H304 0.930 . S
C300 C299 1.333 . S
C300 N302 1.350 . S
C300 H326 0.931 . S
N301 Co297 2.148 . S
N301 C298 1.301 . S
N301 C299 1.317 . S
N302 C298 1.328 . S
N302 C300 1.350 . S
H303 C298 0.930 . S
H304 C299 0.930 . S
C305 O306 1.224 . S
C305 O324 1.247 . S
O306 C305 1.224 . S
N307 Co297 2.128 . S
N307 C308 1.355 . S
N307 C310 1.311 . S
C308 N307 1.355 . S
C308 C309 1.363 . S
C308 H320 0.929 . S
C309 C308 1.363 . S
C309 N311 1.375 . S
C309 H327 0.931 . S
C310 N307 1.311 . S
C310 N311 1.347 . S
C310 H321 0.929 . S
N311 C309 1.375 . S
N311 C310 1.347 . S
C312 C315 1.365 . S
C312 N317 1.328 . S
C312 H318 0.929 . S
C313 C314 1.362 . S
C313 C316 1.378 . S
C313 H328 0.929 . S
C314 C313 1.362 . S
C314 C315 1.366 . S
C315 C312 1.365 . S
C315 C314 1.366 . S
C315 H329 0.930 . S
C316 C313 1.378 . S
C316 N317 1.315 . S
C316 H319 0.930 . S
N317 Co297 2.194 . S
N317 C312 1.328 . S
N317 C316 1.315 . S
H318 C312 0.929 . S
H319 C316 0.930 . S
H320 C308 0.929 . S
H321 C310 0.929 . S
O322 Co297 2.351 . S
O322 C325 1.244 . S
O323 Co297 2.155 . S
O323 C325 1.240 . S
O324 Co297 2.096 . S
O324 C305 1.247 . S
C325 O322 1.244 . S
C325 O323 1.240 . S
H326 C300 0.931 . S
H327 C309 0.931 . S
H328 C313 0.929 . S
H329 C315 0.930 . S
Co330 N334 2.148 . S
Co330 N340 2.128 . S
Co330 N350 2.194 . S
Co330 O355 2.351 . S
Co330 O356 2.155 . S
Co330 O357 2.096 . S
C331 N334 1.301 . S
C331 N335 1.328 . S
C331 H336 0.930 . S
C332 C333 1.333 . S
C332 N334 1.317 . S
C332 H337 0.930 . S
C333 C332 1.333 . S
C333 N335 1.350 . S
C333 H359 0.931 . S
N334 Co330 2.148 . S
N334 C331 1.301 . S
N334 C332 1.317 . S
N335 C331 1.328 . S
N335 C333 1.350 . S
H336 C331 0.930 . S
H337 C332 0.930 . S
C338 O339 1.224 . S
C338 O357 1.247 . S
O339 C338 1.224 . S
N340 Co330 2.128 . S
N340 C341 1.355 . S
N340 C343 1.311 . S
C341 N340 1.355 . S
C341 C342 1.363 . S
C341 H353 0.929 . S
C342 C341 1.363 . S
C342 N344 1.375 . S
C342 H360 0.931 . S
C343 N340 1.311 . S
C343 N344 1.347 . S
C343 H354 0.929 . S
N344 C342 1.375 . S
N344 C343 1.347 . S
C345 C348 1.365 . S
C345 N350 1.328 . S
C345 H351 0.929 . S
C346 C347 1.362 . S
C346 C349 1.378 . S
C346 H361 0.929 . S
C347 C346 1.362 . S
C347 C348 1.366 . S
C348 C345 1.365 . S
C348 C347 1.366 . S
C348 H362 0.930 . S
C349 C346 1.378 . S
C349 N350 1.315 . S
C349 H352 0.930 . S
N350 Co330 2.194 . S
N350 C345 1.328 . S
N350 C349 1.315 . S
H351 C345 0.929 . S
H352 C349 0.930 . S
H353 C341 0.929 . S
H354 C343 0.929 . S
O355 Co330 2.351 . S
O355 C358 1.244 . S
O356 Co330 2.155 . S
O356 C358 1.240 . S
O357 Co330 2.096 . S
O357 C338 1.247 . S
C358 O355 1.244 . S
C358 O356 1.240 . S
H359 C333 0.931 . S
H360 C342 0.931 . S
H361 C346 0.929 . S
H362 C348 0.930 . S
Co363 N367 2.148 . S
Co363 N373 2.128 . S
Co363 N383 2.194 . S
Co363 O388 2.351 . S
Co363 O389 2.155 . S
Co363 O390 2.096 . S
C364 N367 1.301 . S
C364 N368 1.328 . S
C364 H369 0.930 . S
C365 C366 1.333 . S
C365 N367 1.317 . S
C365 H370 0.930 . S
C366 C365 1.333 . S
C366 N368 1.350 . S
C366 H392 0.931 . S
N367 Co363 2.148 . S
N367 C364 1.301 . S
N367 C365 1.317 . S
N368 C364 1.328 . S
N368 C366 1.350 . S
H369 C364 0.930 . S
H370 C365 0.930 . S
C371 O372 1.224 . S
C371 O390 1.247 . S
O372 C371 1.224 . S
N373 Co363 2.128 . S
N373 C374 1.355 . S
N373 C376 1.311 . S
C374 N373 1.355 . S
C374 C375 1.363 . S
C374 H386 0.929 . S
C375 C374 1.363 . S
C375 N377 1.375 . S
C375 H393 0.931 . S
C376 N373 1.311 . S
C376 N377 1.347 . S
C376 H387 0.929 . S
N377 C375 1.375 . S
N377 C376 1.347 . S
C378 C381 1.365 . S
C378 N383 1.328 . S
C378 H384 0.929 . S
C379 C380 1.362 . S
C379 C382 1.378 . S
C379 H394 0.929 . S
C380 C379 1.362 . S
C380 C381 1.366 . S
C381 C378 1.365 . S
C381 C380 1.366 . S
C381 H395 0.930 . S
C382 C379 1.378 . S
C382 N383 1.315 . S
C382 H385 0.930 . S
N383 Co363 2.194 . S
N383 C378 1.328 . S
N383 C382 1.315 . S
H384 C378 0.929 . S
H385 C382 0.930 . S
H386 C374 0.929 . S
H387 C376 0.929 . S
O388 Co363 2.351 . S
O388 C391 1.244 . S
O389 Co363 2.155 . S
O389 C391 1.240 . S
O390 Co363 2.096 . S
O390 C371 1.247 . S
C391 O388 1.244 . S
C391 O389 1.240 . S
H392 C366 0.931 . S
H393 C375 0.931 . S
H394 C379 0.929 . S
H395 C381 0.930 . S
Co396 N400 2.148 . S
Co396 N406 2.128 . S
Co396 N416 2.194 . S
Co396 O421 2.351 . S
Co396 O422 2.155 . S
Co396 O423 2.096 . S
C397 N400 1.301 . S
C397 N401 1.328 . S
C397 H402 0.930 . S
C398 C399 1.333 . S
C398 N400 1.317 . S
C398 H403 0.930 . S
C399 C398 1.333 . S
C399 N401 1.350 . S
C399 H425 0.931 . S
N400 Co396 2.148 . S
N400 C397 1.301 . S
N400 C398 1.317 . S
N401 C397 1.328 . S
N401 C399 1.350 . S
H402 C397 0.930 . S
H403 C398 0.930 . S
C404 O405 1.224 . S
C404 O423 1.247 . S
O405 C404 1.224 . S
N406 Co396 2.128 . S
N406 C407 1.355 . S
N406 C409 1.311 . S
C407 N406 1.355 . S
C407 C408 1.363 . S
C407 H419 0.929 . S
C408 C407 1.363 . S
C408 N410 1.375 . S
C408 H426 0.931 . S
C409 N406 1.311 . S
C409 N410 1.347 . S
C409 H420 0.929 . S
N410 C408 1.375 . S
N410 C409 1.347 . S
C411 C414 1.365 . S
C411 N416 1.328 . S
C411 H417 0.929 . S
C412 C413 1.362 . S
C412 C415 1.378 . S
C412 H427 0.929 . S
C413 C412 1.362 . S
C413 C414 1.366 . S
C414 C411 1.365 . S
C414 C413 1.366 . S
C414 H428 0.930 . S
C415 C412 1.378 . S
C415 N416 1.315 . S
C415 H418 0.930 . S
N416 Co396 2.194 . S
N416 C411 1.328 . S
N416 C415 1.315 . S
H417 C411 0.929 . S
H418 C415 0.930 . S
H419 C407 0.929 . S
H420 C409 0.929 . S
O421 Co396 2.351 . S
O421 C424 1.244 . S
O422 Co396 2.155 . S
O422 C424 1.240 . S
O423 Co396 2.096 . S
O423 C404 1.247 . S
C424 O421 1.244 . S
C424 O422 1.240 . S
H425 C399 0.931 . S
H426 C408 0.931 . S
H427 C412 0.929 . S
H428 C414 0.930 . S
Co429 N433 2.148 . S
Co429 N439 2.128 . S
Co429 N449 2.194 . S
Co429 O454 2.351 . S
Co429 O455 2.155 . S
Co429 O456 2.096 . S
C430 N433 1.301 . S
C430 N434 1.328 . S
C430 H435 0.930 . S
C431 C432 1.333 . S
C431 N433 1.317 . S
C431 H436 0.930 . S
C432 C431 1.333 . S
C432 N434 1.350 . S
C432 H458 0.931 . S
N433 Co429 2.148 . S
N433 C430 1.301 . S
N433 C431 1.317 . S
N434 C430 1.328 . S
N434 C432 1.350 . S
H435 C430 0.930 . S
H436 C431 0.930 . S
C437 O438 1.224 . S
C437 O456 1.247 . S
O438 C437 1.224 . S
N439 Co429 2.128 . S
N439 C440 1.355 . S
N439 C442 1.311 . S
C440 N439 1.355 . S
C440 C441 1.363 . S
C440 H452 0.929 . S
C441 C440 1.363 . S
C441 N443 1.375 . S
C441 H459 0.931 . S
C442 N439 1.311 . S
C442 N443 1.347 . S
C442 H453 0.929 . S
N443 C441 1.375 . S
N443 C442 1.347 . S
C444 C447 1.365 . S
C444 N449 1.328 . S
C444 H450 0.929 . S
C445 C446 1.362 . S
C445 C448 1.378 . S
C445 H460 0.929 . S
C446 C445 1.362 . S
C446 C447 1.366 . S
C447 C444 1.365 . S
C447 C446 1.366 . S
C447 H461 0.930 . S
C448 C445 1.378 . S
C448 N449 1.315 . S
C448 H451 0.930 . S
N449 Co429 2.194 . S
N449 C444 1.328 . S
N449 C448 1.315 . S
H450 C444 0.929 . S
H451 C448 0.930 . S
H452 C440 0.929 . S
H453 C442 0.929 . S
O454 Co429 2.351 . S
O454 C457 1.244 . S
O455 Co429 2.155 . S
O455 C457 1.240 . S
O456 Co429 2.096 . S
O456 C437 1.247 . S
C457 O454 1.244 . S
C457 O455 1.240 . S
H458 C432 0.931 . S
H459 C441 0.931 . S
H460 C445 0.929 . S
H461 C447 0.930 . S
Co462 N466 2.148 . S
Co462 N472 2.128 . S
Co462 N482 2.194 . S
Co462 O487 2.351 . S
Co462 O488 2.155 . S
Co462 O489 2.096 . S
C463 N466 1.301 . S
C463 N467 1.328 . S
C463 H468 0.930 . S
C464 C465 1.333 . S
C464 N466 1.317 . S
C464 H469 0.930 . S
C465 C464 1.333 . S
C465 N467 1.350 . S
C465 H491 0.931 . S
N466 Co462 2.148 . S
N466 C463 1.301 . S
N466 C464 1.317 . S
N467 C463 1.328 . S
N467 C465 1.350 . S
H468 C463 0.930 . S
H469 C464 0.930 . S
C470 O471 1.224 . S
C470 O489 1.247 . S
O471 C470 1.224 . S
N472 Co462 2.128 . S
N472 C473 1.355 . S
N472 C475 1.311 . S
C473 N472 1.355 . S
C473 C474 1.363 . S
C473 H485 0.929 . S
C474 C473 1.363 . S
C474 N476 1.375 . S
C474 H492 0.931 . S
C475 N472 1.311 . S
C475 N476 1.347 . S
C475 H486 0.929 . S
N476 C474 1.375 . S
N476 C475 1.347 . S
C477 C480 1.365 . S
C477 N482 1.328 . S
C477 H483 0.929 . S
C478 C479 1.362 . S
C478 C481 1.378 . S
C478 H493 0.929 . S
C479 C478 1.362 . S
C479 C480 1.366 . S
C480 C477 1.365 . S
C480 C479 1.366 . S
C480 H494 0.930 . S
C481 C478 1.378 . S
C481 N482 1.315 . S
C481 H484 0.930 . S
N482 Co462 2.194 . S
N482 C477 1.328 . S
N482 C481 1.315 . S
H483 C477 0.929 . S
H484 C481 0.930 . S
H485 C473 0.929 . S
H486 C475 0.929 . S
O487 Co462 2.351 . S
O487 C490 1.244 . S
O488 Co462 2.155 . S
O488 C490 1.240 . S
O489 Co462 2.096 . S
O489 C470 1.247 . S
C490 O487 1.244 . S
C490 O488 1.240 . S
H491 C465 0.931 . S
H492 C474 0.931 . S
H493 C478 0.929 . S
H494 C480 0.930 . S
Co495 N499 2.148 . S
Co495 N505 2.128 . S
Co495 N515 2.194 . S
Co495 O520 2.351 . S
Co495 O521 2.155 . S
Co495 O522 2.096 . S
C496 N499 1.301 . S
C496 N500 1.328 . S
C496 H501 0.930 . S
C497 C498 1.333 . S
C497 N499 1.317 . S
C497 H502 0.930 . S
C498 C497 1.333 . S
C498 N500 1.350 . S
C498 H524 0.931 . S
N499 Co495 2.148 . S
N499 C496 1.301 . S
N499 C497 1.317 . S
N500 C496 1.328 . S
N500 C498 1.350 . S
H501 C496 0.930 . S
H502 C497 0.930 . S
C503 O504 1.224 . S
C503 O522 1.247 . S
O504 C503 1.224 . S
N505 Co495 2.128 . S
N505 C506 1.355 . S
N505 C508 1.311 . S
C506 N505 1.355 . S
C506 C507 1.363 . S
C506 H518 0.929 . S
C507 C506 1.363 . S
C507 N509 1.375 . S
C507 H525 0.931 . S
C508 N505 1.311 . S
C508 N509 1.347 . S
C508 H519 0.929 . S
N509 C507 1.375 . S
N509 C508 1.347 . S
C510 C513 1.365 . S
C510 N515 1.328 . S
C510 H516 0.929 . S
C511 C512 1.362 . S
C511 C514 1.378 . S
C511 H526 0.929 . S
C512 C511 1.362 . S
C512 C513 1.366 . S
C513 C510 1.365 . S
C513 C512 1.366 . S
C513 H527 0.930 . S
C514 C511 1.378 . S
C514 N515 1.315 . S
C514 H517 0.930 . S
N515 Co495 2.194 . S
N515 C510 1.328 . S
N515 C514 1.315 . S
H516 C510 0.929 . S
H517 C514 0.930 . S
H518 C506 0.929 . S
H519 C508 0.929 . S
O520 Co495 2.351 . S
O520 C523 1.244 . S
O521 Co495 2.155 . S
O521 C523 1.240 . S
O522 Co495 2.096 . S
O522 C503 1.247 . S
C523 O520 1.244 . S
C523 O521 1.240 . S
H524 C498 0.931 . S
H525 C507 0.931 . S
H526 C511 0.929 . S
H527 C513 0.930 . S
Co528 N532 2.148 . S
Co528 N538 2.128 . S
Co528 N548 2.194 . S
Co528 O553 2.351 . S
Co528 O554 2.155 . S
Co528 O555 2.096 . S
C529 N532 1.301 . S
C529 N533 1.328 . S
C529 H534 0.930 . S
C530 C531 1.333 . S
C530 N532 1.317 . S
C530 H535 0.930 . S
C531 C530 1.333 . S
C531 N533 1.350 . S
C531 H557 0.931 . S
N532 Co528 2.148 . S
N532 C529 1.301 . S
N532 C530 1.317 . S
N533 C529 1.328 . S
N533 C531 1.350 . S
H534 C529 0.930 . S
H535 C530 0.930 . S
C536 O537 1.224 . S
C536 O555 1.247 . S
O537 C536 1.224 . S
N538 Co528 2.128 . S
N538 C539 1.355 . S
N538 C541 1.311 . S
C539 N538 1.355 . S
C539 C540 1.363 . S
C539 H551 0.929 . S
C540 C539 1.363 . S
C540 N542 1.375 . S
C540 H558 0.931 . S
C541 N538 1.311 . S
C541 N542 1.347 . S
C541 H552 0.929 . S
N542 C540 1.375 . S
N542 C541 1.347 . S
C543 C546 1.365 . S
C543 N548 1.328 . S
C543 H549 0.929 . S
C544 C545 1.362 . S
C544 C547 1.378 . S
C544 H559 0.929 . S
C545 C544 1.362 . S
C545 C546 1.366 . S
C546 C543 1.365 . S
C546 C545 1.366 . S
C546 H560 0.930 . S
C547 C544 1.378 . S
C547 N548 1.315 . S
C547 H550 0.930 . S
N548 Co528 2.194 . S
N548 C543 1.328 . S
N548 C547 1.315 . S
H549 C543 0.929 . S
H550 C547 0.930 . S
H551 C539 0.929 . S
H552 C541 0.929 . S
O553 Co528 2.351 . S
O553 C556 1.244 . S
O554 Co528 2.155 . S
O554 C556 1.240 . S
O555 Co528 2.096 . S
O555 C536 1.247 . S
C556 O553 1.244 . S
C556 O554 1.240 . S
H557 C531 0.931 . S
H558 C540 0.931 . S
H559 C544 0.929 . S
H560 C546 0.930 . S
Co561 N565 2.148 . S
Co561 N571 2.128 . S
Co561 N581 2.194 . S
Co561 O586 2.351 . S
Co561 O587 2.155 . S
Co561 O588 2.096 . S
C562 N565 1.301 . S
C562 N566 1.328 . S
C562 H567 0.930 . S
C563 C564 1.333 . S
C563 N565 1.317 . S
C563 H568 0.930 . S
C564 C563 1.333 . S
C564 N566 1.350 . S
C564 H590 0.931 . S
N565 Co561 2.148 . S
N565 C562 1.301 . S
N565 C563 1.317 . S
N566 C562 1.328 . S
N566 C564 1.350 . S
H567 C562 0.930 . S
H568 C563 0.930 . S
C569 O570 1.224 . S
C569 O588 1.247 . S
O570 C569 1.224 . S
N571 Co561 2.128 . S
N571 C572 1.355 . S
N571 C574 1.311 . S
C572 N571 1.355 . S
C572 C573 1.363 . S
C572 H584 0.929 . S
C573 C572 1.363 . S
C573 N575 1.375 . S
C573 H591 0.931 . S
C574 N571 1.311 . S
C574 N575 1.347 . S
C574 H585 0.929 . S
N575 C573 1.375 . S
N575 C574 1.347 . S
C576 C579 1.365 . S
C576 N581 1.328 . S
C576 H582 0.929 . S
C577 C578 1.362 . S
C577 C580 1.378 . S
C577 H592 0.929 . S
C578 C577 1.362 . S
C578 C579 1.366 . S
C579 C576 1.365 . S
C579 C578 1.366 . S
C579 H593 0.930 . S
C580 C577 1.378 . S
C580 N581 1.315 . S
C580 H583 0.930 . S
N581 Co561 2.194 . S
N581 C576 1.328 . S
N581 C580 1.315 . S
H582 C576 0.929 . S
H583 C580 0.930 . S
H584 C572 0.929 . S
H585 C574 0.929 . S
O586 Co561 2.351 . S
O586 C589 1.244 . S
O587 Co561 2.155 . S
O587 C589 1.240 . S
O588 Co561 2.096 . S
O588 C569 1.247 . S
C589 O586 1.244 . S
C589 O587 1.240 . S
H590 C564 0.931 . S
H591 C573 0.931 . S
H592 C577 0.929 . S
H593 C579 0.930 . S
Co594 N598 2.148 . S
Co594 N604 2.128 . S
Co594 N614 2.194 . S
Co594 O619 2.351 . S
Co594 O620 2.155 . S
Co594 O621 2.096 . S
C595 N598 1.301 . S
C595 N599 1.328 . S
C595 H600 0.930 . S
C596 C597 1.333 . S
C596 N598 1.317 . S
C596 H601 0.930 . S
C597 C596 1.333 . S
C597 N599 1.350 . S
C597 H623 0.931 . S
N598 Co594 2.148 . S
N598 C595 1.301 . S
N598 C596 1.317 . S
N599 C595 1.328 . S
N599 C597 1.350 . S
H600 C595 0.930 . S
H601 C596 0.930 . S
C602 O603 1.224 . S
C602 O621 1.247 . S
O603 C602 1.224 . S
N604 Co594 2.128 . S
N604 C605 1.355 . S
N604 C607 1.311 . S
C605 N604 1.355 . S
C605 C606 1.363 . S
C605 H617 0.929 . S
C606 C605 1.363 . S
C606 N608 1.375 . S
C606 H624 0.931 . S
C607 N604 1.311 . S
C607 N608 1.347 . S
C607 H618 0.929 . S
N608 C606 1.375 . S
N608 C607 1.347 . S
C609 C612 1.365 . S
C609 N614 1.328 . S
C609 H615 0.929 . S
C610 C611 1.362 . S
C610 C613 1.378 . S
C610 H625 0.929 . S
C611 C610 1.362 . S
C611 C612 1.366 . S
C612 C609 1.365 . S
C612 C611 1.366 . S
C612 H626 0.930 . S
C613 C610 1.378 . S
C613 N614 1.315 . S
C613 H616 0.930 . S
N614 Co594 2.194 . S
N614 C609 1.328 . S
N614 C613 1.315 . S
H615 C609 0.929 . S
H616 C613 0.930 . S
H617 C605 0.929 . S
H618 C607 0.929 . S
O619 Co594 2.351 . S
O619 C622 1.244 . S
O620 Co594 2.155 . S
O620 C622 1.240 . S
O621 Co594 2.096 . S
O621 C602 1.247 . S
C622 O619 1.244 . S
C622 O620 1.240 . S
H623 C597 0.931 . S
H624 C606 0.931 . S
H625 C610 0.929 . S
H626 C612 0.930 . S
Co627 N631 2.148 . S
Co627 N637 2.128 . S
Co627 N647 2.194 . S
Co627 O652 2.351 . S
Co627 O653 2.155 . S
Co627 O654 2.096 . S
C628 N631 1.301 . S
C628 N632 1.328 . S
C628 H633 0.930 . S
C629 C630 1.333 . S
C629 N631 1.317 . S
C629 H634 0.930 . S
C630 C629 1.333 . S
C630 N632 1.350 . S
C630 H656 0.931 . S
N631 Co627 2.148 . S
N631 C628 1.301 . S
N631 C629 1.317 . S
N632 C628 1.328 . S
N632 C630 1.350 . S
H633 C628 0.930 . S
H634 C629 0.930 . S
C635 O636 1.224 . S
C635 O654 1.247 . S
O636 C635 1.224 . S
N637 Co627 2.128 . S
N637 C638 1.355 . S
N637 C640 1.311 . S
C638 N637 1.355 . S
C638 C639 1.363 . S
C638 H650 0.929 . S
C639 C638 1.363 . S
C639 N641 1.375 . S
C639 H657 0.931 . S
C640 N637 1.311 . S
C640 N641 1.347 . S
C640 H651 0.929 . S
N641 C639 1.375 . S
N641 C640 1.347 . S
C642 C645 1.365 . S
C642 N647 1.328 . S
C642 H648 0.929 . S
C643 C644 1.362 . S
C643 C646 1.378 . S
C643 H658 0.929 . S
C644 C643 1.362 . S
C644 C645 1.366 . S
C645 C642 1.365 . S
C645 C644 1.366 . S
C645 H659 0.930 . S
C646 C643 1.378 . S
C646 N647 1.315 . S
C646 H649 0.930 . S
N647 Co627 2.194 . S
N647 C642 1.328 . S
N647 C646 1.315 . S
H648 C642 0.929 . S
H649 C646 0.930 . S
H650 C638 0.929 . S
H651 C640 0.929 . S
O652 Co627 2.351 . S
O652 C655 1.244 . S
O653 Co627 2.155 . S
O653 C655 1.240 . S
O654 Co627 2.096 . S
O654 C635 1.247 . S
C655 O652 1.244 . S
C655 O653 1.240 . S
H656 C630 0.931 . S
H657 C639 0.931 . S
H658 C643 0.929 . S
H659 C645 0.930 . S
Co660 N664 2.148 . S
Co660 N670 2.128 . S
Co660 N680 2.194 . S
Co660 O685 2.351 . S
Co660 O686 2.155 . S
Co660 O687 2.096 . S
C661 N664 1.301 . S
C661 N665 1.328 . S
C661 H666 0.930 . S
C662 C663 1.333 . S
C662 N664 1.317 . S
C662 H667 0.930 . S
C663 C662 1.333 . S
C663 N665 1.350 . S
C663 H689 0.931 . S
N664 Co660 2.148 . S
N664 C661 1.301 . S
N664 C662 1.317 . S
N665 C661 1.328 . S
N665 C663 1.350 . S
H666 C661 0.930 . S
H667 C662 0.930 . S
C668 O669 1.224 . S
C668 O687 1.247 . S
O669 C668 1.224 . S
N670 Co660 2.128 . S
N670 C671 1.355 . S
N670 C673 1.311 . S
C671 N670 1.355 . S
C671 C672 1.363 . S
C671 H683 0.929 . S
C672 C671 1.363 . S
C672 N674 1.375 . S
C672 H690 0.931 . S
C673 N670 1.311 . S
C673 N674 1.347 . S
C673 H684 0.929 . S
N674 C672 1.375 . S
N674 C673 1.347 . S
C675 C678 1.365 . S
C675 N680 1.328 . S
C675 H681 0.929 . S
C676 C677 1.362 . S
C676 C679 1.378 . S
C676 H691 0.929 . S
C677 C676 1.362 . S
C677 C678 1.366 . S
C678 C675 1.365 . S
C678 C677 1.366 . S
C678 H692 0.930 . S
C679 C676 1.378 . S
C679 N680 1.315 . S
C679 H682 0.930 . S
N680 Co660 2.194 . S
N680 C675 1.328 . S
N680 C679 1.315 . S
H681 C675 0.929 . S
H682 C679 0.930 . S
H683 C671 0.929 . S
H684 C673 0.929 . S
O685 Co660 2.351 . S
O685 C688 1.244 . S
O686 Co660 2.155 . S
O686 C688 1.240 . S
O687 Co660 2.096 . S
O687 C668 1.247 . S
C688 O685 1.244 . S
C688 O686 1.240 . S
H689 C663 0.931 . S
H690 C672 0.931 . S
H691 C676 0.929 . S
H692 C678 0.930 . S
Co693 N697 2.148 1_556 S
Co693 N703 2.128 . S
Co693 N713 2.194 . S
Co693 O718 2.351 1_556 S
Co693 O719 2.155 . S
Co693 O720 2.096 . S
C694 N697 1.301 . S
C694 N698 1.328 . S
C694 H699 0.930 . S
C695 C696 1.333 . S
C695 N697 1.317 . S
C695 H700 0.930 1_554 S
C696 C695 1.333 . S
C696 N698 1.350 . S
C696 H722 0.931 . S
N697 Co693 2.148 1_554 S
N697 C694 1.301 . S
N697 C695 1.317 . S
N698 C694 1.328 . S
N698 C696 1.350 . S
H699 C694 0.930 . S
H700 C695 0.930 1_556 S
C701 O702 1.224 . S
C701 O720 1.247 . S
O702 C701 1.224 . S
N703 Co693 2.128 . S
N703 C704 1.355 . S
N703 C706 1.311 . S
C704 N703 1.355 . S
C704 C705 1.363 . S
C704 H716 0.929 . S
C705 C704 1.363 . S
C705 N707 1.375 . S
C705 H723 0.931 . S
C706 N703 1.311 . S
C706 N707 1.347 . S
C706 H717 0.929 . S
N707 C705 1.375 . S
N707 C706 1.347 . S
C708 C711 1.365 . S
C708 N713 1.328 1_554 S
C708 H714 0.929 . S
C709 C710 1.362 1_556 S
C709 C712 1.378 . S
C709 H724 0.929 . S
C710 C709 1.362 1_554 S
C710 C711 1.366 . S
C711 C708 1.365 . S
C711 C710 1.366 . S
C711 H725 0.930 . S
C712 C709 1.378 . S
C712 N713 1.315 . S
C712 H715 0.930 . S
N713 Co693 2.194 . S
N713 C708 1.328 1_556 S
N713 C712 1.315 . S
H714 C708 0.929 . S
H715 C712 0.930 . S
H716 C704 0.929 . S
H717 C706 0.929 . S
O718 Co693 2.351 1_554 S
O718 C721 1.244 . S
O719 Co693 2.155 . S
O719 C721 1.240 1_556 S
O720 Co693 2.096 . S
O720 C701 1.247 . S
C721 O718 1.244 . S
C721 O719 1.240 1_554 S
H722 C696 0.931 . S
H723 C705 0.931 . S
H724 C709 0.929 . S
H725 C711 0.930 . S
Co726 N730 2.148 1_556 S
Co726 N736 2.128 . S
Co726 N746 2.194 . S
Co726 O751 2.351 1_556 S
Co726 O752 2.155 . S
Co726 O753 2.096 . S
C727 N730 1.301 . S
C727 N731 1.328 . S
C727 H732 0.930 . S
C728 C729 1.333 . S
C728 N730 1.317 . S
C728 H733 0.930 1_554 S
C729 C728 1.333 . S
C729 N731 1.350 . S
C729 H755 0.931 . S
N730 Co726 2.148 1_554 S
N730 C727 1.301 . S
N730 C728 1.317 . S
N731 C727 1.328 . S
N731 C729 1.350 . S
H732 C727 0.930 . S
H733 C728 0.930 1_556 S
C734 O735 1.224 . S
C734 O753 1.247 . S
O735 C734 1.224 . S
N736 Co726 2.128 . S
N736 C737 1.355 . S
N736 C739 1.311 . S
C737 N736 1.355 . S
C737 C738 1.363 . S
C737 H749 0.929 . S
C738 C737 1.363 . S
C738 N740 1.375 . S
C738 H756 0.931 . S
C739 N736 1.311 . S
C739 N740 1.347 . S
C739 H750 0.929 . S
N740 C738 1.375 . S
N740 C739 1.347 . S
C741 C744 1.365 . S
C741 N746 1.328 1_554 S
C741 H747 0.929 . S
C742 C743 1.362 1_556 S
C742 C745 1.378 . S
C742 H757 0.929 . S
C743 C742 1.362 1_554 S
C743 C744 1.366 . S
C744 C741 1.365 . S
C744 C743 1.366 . S
C744 H758 0.930 . S
C745 C742 1.378 . S
C745 N746 1.315 . S
C745 H748 0.930 . S
N746 Co726 2.194 . S
N746 C741 1.328 1_556 S
N746 C745 1.315 . S
H747 C741 0.929 . S
H748 C745 0.930 . S
H749 C737 0.929 . S
H750 C739 0.929 . S
O751 Co726 2.351 1_554 S
O751 C754 1.244 . S
O752 Co726 2.155 . S
O752 C754 1.240 1_556 S
O753 Co726 2.096 . S
O753 C734 1.247 . S
C754 O751 1.244 . S
C754 O752 1.240 1_554 S
H755 C729 0.931 . S
H756 C738 0.931 . S
H757 C742 0.929 . S
H758 C744 0.930 . S
Co759 N763 2.148 1_556 S
Co759 N769 2.128 . S
Co759 N779 2.194 . S
Co759 O784 2.351 1_556 S
Co759 O785 2.155 . S
Co759 O786 2.096 . S
C760 N763 1.301 . S
C760 N764 1.328 . S
C760 H765 0.930 . S
C761 C762 1.333 . S
C761 N763 1.317 . S
C761 H766 0.930 1_554 S
C762 C761 1.333 . S
C762 N764 1.350 . S
C762 H788 0.931 . S
N763 Co759 2.148 1_554 S
N763 C760 1.301 . S
N763 C761 1.317 . S
N764 C760 1.328 . S
N764 C762 1.350 . S
H765 C760 0.930 . S
H766 C761 0.930 1_556 S
C767 O768 1.224 . S
C767 O786 1.247 . S
O768 C767 1.224 . S
N769 Co759 2.128 . S
N769 C770 1.355 . S
N769 C772 1.311 . S
C770 N769 1.355 . S
C770 C771 1.363 . S
C770 H782 0.929 . S
C771 C770 1.363 . S
C771 N773 1.375 . S
C771 H789 0.931 . S
C772 N769 1.311 . S
C772 N773 1.347 . S
C772 H783 0.929 . S
N773 C771 1.375 . S
N773 C772 1.347 . S
C774 C777 1.365 . S
C774 N779 1.328 1_554 S
C774 H780 0.929 . S
C775 C776 1.362 1_556 S
C775 C778 1.378 . S
C775 H790 0.929 . S
C776 C775 1.362 1_554 S
C776 C777 1.366 . S
C777 C774 1.365 . S
C777 C776 1.366 . S
C777 H791 0.930 . S
C778 C775 1.378 . S
C778 N779 1.315 . S
C778 H781 0.930 . S
N779 Co759 2.194 . S
N779 C774 1.328 1_556 S
N779 C778 1.315 . S
H780 C774 0.929 . S
H781 C778 0.930 . S
H782 C770 0.929 . S
H783 C772 0.929 . S
O784 Co759 2.351 1_554 S
O784 C787 1.244 . S
O785 Co759 2.155 . S
O785 C787 1.240 1_556 S
O786 Co759 2.096 . S
O786 C767 1.247 . S
C787 O784 1.244 . S
C787 O785 1.240 1_554 S
H788 C762 0.931 . S
H789 C771 0.931 . S
H790 C775 0.929 . S
H791 C777 0.930 . S
Co792 N796 2.148 . S
Co792 N802 2.128 . S
Co792 N812 2.194 . S
Co792 O817 2.351 . S
Co792 O818 2.155 . S
Co792 O819 2.096 . S
C793 N796 1.301 . S
C793 N797 1.328 . S
C793 H798 0.930 . S
C794 C795 1.333 . S
C794 N796 1.317 . S
C794 H799 0.930 . S
C795 C794 1.333 . S
C795 N797 1.350 . S
C795 H821 0.931 . S
N796 Co792 2.148 . S
N796 C793 1.301 . S
N796 C794 1.317 . S
N797 C793 1.328 . S
N797 C795 1.350 . S
H798 C793 0.930 . S
H799 C794 0.930 . S
C800 O801 1.224 . S
C800 O819 1.247 . S
O801 C800 1.224 . S
N802 Co792 2.128 . S
N802 C803 1.355 . S
N802 C805 1.311 . S
C803 N802 1.355 . S
C803 C804 1.363 . S
C803 H815 0.929 . S
C804 C803 1.363 . S
C804 N806 1.375 . S
C804 H822 0.931 . S
C805 N802 1.311 . S
C805 N806 1.347 . S
C805 H816 0.929 . S
N806 C804 1.375 . S
N806 C805 1.347 . S
C807 C810 1.365 . S
C807 N812 1.328 . S
C807 H813 0.929 . S
C808 C809 1.362 . S
C808 C811 1.378 . S
C808 H823 0.929 . S
C809 C808 1.362 . S
C809 C810 1.366 . S
C810 C807 1.365 . S
C810 C809 1.366 . S
C810 H824 0.930 . S
C811 C808 1.378 . S
C811 N812 1.315 . S
C811 H814 0.930 . S
N812 Co792 2.194 . S
N812 C807 1.328 . S
N812 C811 1.315 . S
H813 C807 0.929 . S
H814 C811 0.930 . S
H815 C803 0.929 . S
H816 C805 0.929 . S
O817 Co792 2.351 . S
O817 C820 1.244 . S
O818 Co792 2.155 . S
O818 C820 1.240 . S
O819 Co792 2.096 . S
O819 C800 1.247 . S
C820 O817 1.244 . S
C820 O818 1.240 . S
H821 C795 0.931 . S
H822 C804 0.931 . S
H823 C808 0.929 . S
H824 C810 0.930 . S
Co825 N829 2.148 . S
Co825 N835 2.128 . S
Co825 N845 2.194 . S
Co825 O850 2.351 . S
Co825 O851 2.155 . S
Co825 O852 2.096 . S
C826 N829 1.301 . S
C826 N830 1.328 . S
C826 H831 0.930 . S
C827 C828 1.333 . S
C827 N829 1.317 . S
C827 H832 0.930 . S
C828 C827 1.333 . S
C828 N830 1.350 . S
C828 H854 0.931 . S
N829 Co825 2.148 . S
N829 C826 1.301 . S
N829 C827 1.317 . S
N830 C826 1.328 . S
N830 C828 1.350 . S
H831 C826 0.930 . S
H832 C827 0.930 . S
C833 O834 1.224 . S
C833 O852 1.247 . S
O834 C833 1.224 . S
N835 Co825 2.128 . S
N835 C836 1.355 . S
N835 C838 1.311 . S
C836 N835 1.355 . S
C836 C837 1.363 . S
C836 H848 0.929 . S
C837 C836 1.363 . S
C837 N839 1.375 . S
C837 H855 0.931 . S
C838 N835 1.311 . S
C838 N839 1.347 . S
C838 H849 0.929 . S
N839 C837 1.375 . S
N839 C838 1.347 . S
C840 C843 1.365 . S
C840 N845 1.328 . S
C840 H846 0.929 . S
C841 C842 1.362 . S
C841 C844 1.378 . S
C841 H856 0.929 . S
C842 C841 1.362 . S
C842 C843 1.366 . S
C843 C840 1.365 . S
C843 C842 1.366 . S
C843 H857 0.930 . S
C844 C841 1.378 . S
C844 N845 1.315 . S
C844 H847 0.930 . S
N845 Co825 2.194 . S
N845 C840 1.328 . S
N845 C844 1.315 . S
H846 C840 0.929 . S
H847 C844 0.930 . S
H848 C836 0.929 . S
H849 C838 0.929 . S
O850 Co825 2.351 . S
O850 C853 1.244 . S
O851 Co825 2.155 . S
O851 C853 1.240 . S
O852 Co825 2.096 . S
O852 C833 1.247 . S
C853 O850 1.244 . S
C853 O851 1.240 . S
H854 C828 0.931 . S
H855 C837 0.931 . S
H856 C841 0.929 . S
H857 C843 0.930 . S
Co858 N862 2.148 . S
Co858 N868 2.128 . S
Co858 N878 2.194 . S
Co858 O883 2.351 . S
Co858 O884 2.155 . S
Co858 O885 2.096 . S
C859 N862 1.301 . S
C859 N863 1.328 . S
C859 H864 0.930 . S
C860 C861 1.333 . S
C860 N862 1.317 . S
C860 H865 0.930 . S
C861 C860 1.333 . S
C861 N863 1.350 . S
C861 H887 0.931 . S
N862 Co858 2.148 . S
N862 C859 1.301 . S
N862 C860 1.317 . S
N863 C859 1.328 . S
N863 C861 1.350 . S
H864 C859 0.930 . S
H865 C860 0.930 . S
C866 O867 1.224 . S
C866 O885 1.247 . S
O867 C866 1.224 . S
N868 Co858 2.128 . S
N868 C869 1.355 . S
N868 C871 1.311 . S
C869 N868 1.355 . S
C869 C870 1.363 . S
C869 H881 0.929 . S
C870 C869 1.363 . S
C870 N872 1.375 . S
C870 H888 0.931 . S
C871 N868 1.311 . S
C871 N872 1.347 . S
C871 H882 0.929 . S
N872 C870 1.375 . S
N872 C871 1.347 . S
C873 C876 1.365 . S
C873 N878 1.328 . S
C873 H879 0.929 . S
C874 C875 1.362 . S
C874 C877 1.378 . S
C874 H889 0.929 . S
C875 C874 1.362 . S
C875 C876 1.366 . S
C876 C873 1.365 . S
C876 C875 1.366 . S
C876 H890 0.930 . S
C877 C874 1.378 . S
C877 N878 1.315 . S
C877 H880 0.930 . S
N878 Co858 2.194 . S
N878 C873 1.328 . S
N878 C877 1.315 . S
H879 C873 0.929 . S
H880 C877 0.930 . S
H881 C869 0.929 . S
H882 C871 0.929 . S
O883 Co858 2.351 . S
O883 C886 1.244 . S
O884 Co858 2.155 . S
O884 C886 1.240 . S
O885 Co858 2.096 . S
O885 C866 1.247 . S
C886 O883 1.244 . S
C886 O884 1.240 . S
H887 C861 0.931 . S
H888 C870 0.931 . S
H889 C874 0.929 . S
H890 C876 0.930 . S
Co891 N895 2.148 1_554 S
Co891 N901 2.128 . S
Co891 N911 2.194 . S
Co891 O916 2.351 1_554 S
Co891 O917 2.155 . S
Co891 O918 2.096 . S
C892 N895 1.301 . S
C892 N896 1.328 . S
C892 H897 0.930 . S
C893 C894 1.333 . S
C893 N895 1.317 . S
C893 H898 0.930 1_556 S
C894 C893 1.333 . S
C894 N896 1.350 . S
C894 H920 0.931 . S
N895 Co891 2.148 1_556 S
N895 C892 1.301 . S
N895 C893 1.317 . S
N896 C892 1.328 . S
N896 C894 1.350 . S
H897 C892 0.930 . S
H898 C893 0.930 1_554 S
C899 O900 1.224 . S
C899 O918 1.247 . S
O900 C899 1.224 . S
N901 Co891 2.128 . S
N901 C902 1.355 . S
N901 C904 1.311 . S
C902 N901 1.355 . S
C902 C903 1.363 . S
C902 H914 0.929 . S
C903 C902 1.363 . S
C903 N905 1.375 . S
C903 H921 0.931 . S
C904 N901 1.311 . S
C904 N905 1.347 . S
C904 H915 0.929 . S
N905 C903 1.375 . S
N905 C904 1.347 . S
C906 C909 1.365 . S
C906 N911 1.328 1_556 S
C906 H912 0.929 . S
C907 C908 1.362 1_554 S
C907 C910 1.378 . S
C907 H922 0.929 . S
C908 C907 1.362 1_556 S
C908 C909 1.366 . S
C909 C906 1.365 . S
C909 C908 1.366 . S
C909 H923 0.930 . S
C910 C907 1.378 . S
C910 N911 1.315 . S
C910 H913 0.930 . S
N911 Co891 2.194 . S
N911 C906 1.328 1_554 S
N911 C910 1.315 . S
H912 C906 0.929 . S
H913 C910 0.930 . S
H914 C902 0.929 . S
H915 C904 0.929 . S
O916 Co891 2.351 1_556 S
O916 C919 1.244 . S
O917 Co891 2.155 . S
O917 C919 1.240 1_554 S
O918 Co891 2.096 . S
O918 C899 1.247 . S
C919 O916 1.244 . S
C919 O917 1.240 1_556 S
H920 C894 0.931 . S
H921 C903 0.931 . S
H922 C907 0.929 . S
H923 C909 0.930 . S
Co924 N928 2.148 1_554 S
Co924 N934 2.128 . S
Co924 N944 2.194 . S
Co924 O949 2.351 1_554 S
Co924 O950 2.155 . S
Co924 O951 2.096 . S
C925 N928 1.301 . S
C925 N929 1.328 . S
C925 H930 0.930 . S
C926 C927 1.333 . S
C926 N928 1.317 . S
C926 H931 0.930 1_556 S
C927 C926 1.333 . S
C927 N929 1.350 . S
C927 H953 0.931 . S
N928 Co924 2.148 1_556 S
N928 C925 1.301 . S
N928 C926 1.317 . S
N929 C925 1.328 . S
N929 C927 1.350 . S
H930 C925 0.930 . S
H931 C926 0.930 1_554 S
C932 O933 1.224 . S
C932 O951 1.247 . S
O933 C932 1.224 . S
N934 Co924 2.128 . S
N934 C935 1.355 . S
N934 C937 1.311 . S
C935 N934 1.355 . S
C935 C936 1.363 . S
C935 H947 0.929 . S
C936 C935 1.363 . S
C936 N938 1.375 . S
C936 H954 0.931 . S
C937 N934 1.311 . S
C937 N938 1.347 . S
C937 H948 0.929 . S
N938 C936 1.375 . S
N938 C937 1.347 . S
C939 C942 1.365 . S
C939 N944 1.328 1_556 S
C939 H945 0.929 . S
C940 C941 1.362 1_554 S
C940 C943 1.378 . S
C940 H955 0.929 . S
C941 C940 1.362 1_556 S
C941 C942 1.366 . S
C942 C939 1.365 . S
C942 C941 1.366 . S
C942 H956 0.930 . S
C943 C940 1.378 . S
C943 N944 1.315 . S
C943 H946 0.930 . S
N944 Co924 2.194 . S
N944 C939 1.328 1_554 S
N944 C943 1.315 . S
H945 C939 0.929 . S
H946 C943 0.930 . S
H947 C935 0.929 . S
H948 C937 0.929 . S
O949 Co924 2.351 1_556 S
O949 C952 1.244 . S
O950 Co924 2.155 . S
O950 C952 1.240 1_554 S
O951 Co924 2.096 . S
O951 C932 1.247 . S
C952 O949 1.244 . S
C952 O950 1.240 1_556 S
H953 C927 0.931 . S
H954 C936 0.931 . S
H955 C940 0.929 . S
H956 C942 0.930 . S
Co957 N961 2.148 1_554 S
Co957 N967 2.128 . S
Co957 N977 2.194 . S
Co957 O982 2.351 1_554 S
Co957 O983 2.155 . S
Co957 O984 2.096 . S
C958 N961 1.301 . S
C958 N962 1.328 . S
C958 H963 0.930 . S
C959 C960 1.333 . S
C959 N961 1.317 . S
C959 H964 0.930 1_556 S
C960 C959 1.333 . S
C960 N962 1.350 . S
C960 H986 0.931 . S
N961 Co957 2.148 1_556 S
N961 C958 1.301 . S
N961 C959 1.317 . S
N962 C958 1.328 . S
N962 C960 1.350 . S
H963 C958 0.930 . S
H964 C959 0.930 1_554 S
C965 O966 1.224 . S
C965 O984 1.247 . S
O966 C965 1.224 . S
N967 Co957 2.128 . S
N967 C968 1.355 . S
N967 C970 1.311 . S
C968 N967 1.355 . S
C968 C969 1.363 . S
C968 H980 0.929 . S
C969 C968 1.363 . S
C969 N971 1.375 . S
C969 H987 0.931 . S
C970 N967 1.311 . S
C970 N971 1.347 . S
C970 H981 0.929 . S
N971 C969 1.375 . S
N971 C970 1.347 . S
C972 C975 1.365 . S
C972 N977 1.328 1_556 S
C972 H978 0.929 . S
C973 C974 1.362 1_554 S
C973 C976 1.378 . S
C973 H988 0.929 . S
C974 C973 1.362 1_556 S
C974 C975 1.366 . S
C975 C972 1.365 . S
C975 C974 1.366 . S
C975 H989 0.930 . S
C976 C973 1.378 . S
C976 N977 1.315 . S
C976 H979 0.930 . S
N977 Co957 2.194 . S
N977 C972 1.328 1_554 S
N977 C976 1.315 . S
H978 C972 0.929 . S
H979 C976 0.930 . S
H980 C968 0.929 . S
H981 C970 0.929 . S
O982 Co957 2.351 1_556 S
O982 C985 1.244 . S
O983 Co957 2.155 . S
O983 C985 1.240 1_554 S
O984 Co957 2.096 . S
O984 C965 1.247 . S
C985 O982 1.244 . S
C985 O983 1.240 1_556 S
H986 C960 0.931 . S
H987 C969 0.931 . S
H988 C973 0.929 . S
H989 C975 0.930 . S
Co990 N994 2.148 . S
Co990 N1000 2.128 . S
Co990 N1010 2.194 . S
Co990 O1015 2.351 . S
Co990 O1016 2.155 . S
Co990 O1017 2.096 . S
C991 N994 1.301 . S
C991 N995 1.328 . S
C991 H996 0.930 . S
C992 C993 1.333 . S
C992 N994 1.317 . S
C992 H997 0.930 . S
C993 C992 1.333 . S
C993 N995 1.350 . S
C993 H1019 0.931 . S
N994 Co990 2.148 . S
N994 C991 1.301 . S
N994 C992 1.317 . S
N995 C991 1.328 . S
N995 C993 1.350 . S
H996 C991 0.930 . S
H997 C992 0.930 . S
C998 O999 1.224 . S
C998 O1017 1.247 . S
O999 C998 1.224 . S
N1000 Co990 2.128 . S
N1000 C1001 1.355 . S
N1000 C1003 1.311 . S
C1001 N1000 1.355 . S
C1001 C1002 1.363 . S
C1001 H1013 0.929 . S
C1002 C1001 1.363 . S
C1002 N1004 1.375 . S
C1002 H1020 0.931 . S
C1003 N1000 1.311 . S
C1003 N1004 1.347 . S
C1003 H1014 0.929 . S
N1004 C1002 1.375 . S
N1004 C1003 1.347 . S
C1005 C1008 1.365 . S
C1005 N1010 1.328 . S
C1005 H1011 0.929 . S
C1006 C1007 1.362 . S
C1006 C1009 1.378 . S
C1006 H1021 0.929 . S
C1007 C1006 1.362 . S
C1007 C1008 1.366 . S
C1008 C1005 1.365 . S
C1008 C1007 1.366 . S
C1008 H1022 0.930 . S
C1009 C1006 1.378 . S
C1009 N1010 1.315 . S
C1009 H1012 0.930 . S
N1010 Co990 2.194 . S
N1010 C1005 1.328 . S
N1010 C1009 1.315 . S
H1011 C1005 0.929 . S
H1012 C1009 0.930 . S
H1013 C1001 0.929 . S
H1014 C1003 0.929 . S
O1015 Co990 2.351 . S
O1015 C1018 1.244 . S
O1016 Co990 2.155 . S
O1016 C1018 1.240 . S
O1017 Co990 2.096 . S
O1017 C998 1.247 . S
C1018 O1015 1.244 . S
C1018 O1016 1.240 . S
H1019 C993 0.931 . S
H1020 C1002 0.931 . S
H1021 C1006 0.929 . S
H1022 C1008 0.930 . S
Co1023 N1027 2.148 . S
Co1023 N1033 2.128 . S
Co1023 N1043 2.194 . S
Co1023 O1048 2.351 . S
Co1023 O1049 2.155 . S
Co1023 O1050 2.096 . S
C1024 N1027 1.301 . S
C1024 N1028 1.328 . S
C1024 H1029 0.930 . S
C1025 C1026 1.333 . S
C1025 N1027 1.317 . S
C1025 H1030 0.930 . S
C1026 C1025 1.333 . S
C1026 N1028 1.350 . S
C1026 H1052 0.931 . S
N1027 Co1023 2.148 . S
N1027 C1024 1.301 . S
N1027 C1025 1.317 . S
N1028 C1024 1.328 . S
N1028 C1026 1.350 . S
H1029 C1024 0.930 . S
H1030 C1025 0.930 . S
C1031 O1032 1.224 . S
C1031 O1050 1.247 . S
O1032 C1031 1.224 . S
N1033 Co1023 2.128 . S
N1033 C1034 1.355 . S
N1033 C1036 1.311 . S
C1034 N1033 1.355 . S
C1034 C1035 1.363 . S
C1034 H1046 0.929 . S
C1035 C1034 1.363 . S
C1035 N1037 1.375 . S
C1035 H1053 0.931 . S
C1036 N1033 1.311 . S
C1036 N1037 1.347 . S
C1036 H1047 0.929 . S
N1037 C1035 1.375 . S
N1037 C1036 1.347 . S
C1038 C1041 1.365 . S
C1038 N1043 1.328 . S
C1038 H1044 0.929 . S
C1039 C1040 1.362 . S
C1039 C1042 1.378 . S
C1039 H1054 0.929 . S
C1040 C1039 1.362 . S
C1040 C1041 1.366 . S
C1041 C1038 1.365 . S
C1041 C1040 1.366 . S
C1041 H1055 0.930 . S
C1042 C1039 1.378 . S
C1042 N1043 1.315 . S
C1042 H1045 0.930 . S
N1043 Co1023 2.194 . S
N1043 C1038 1.328 . S
N1043 C1042 1.315 . S
H1044 C1038 0.929 . S
H1045 C1042 0.930 . S
H1046 C1034 0.929 . S
H1047 C1036 0.929 . S
O1048 Co1023 2.351 . S
O1048 C1051 1.244 . S
O1049 Co1023 2.155 . S
O1049 C1051 1.240 . S
O1050 Co1023 2.096 . S
O1050 C1031 1.247 . S
C1051 O1048 1.244 . S
C1051 O1049 1.240 . S
H1052 C1026 0.931 . S
H1053 C1035 0.931 . S
H1054 C1039 0.929 . S
H1055 C1041 0.930 . S
Co1056 N1060 2.148 . S
Co1056 N1066 2.128 . S
Co1056 N1076 2.194 . S
Co1056 O1081 2.351 . S
Co1056 O1082 2.155 . S
Co1056 O1083 2.096 . S
C1057 N1060 1.301 . S
C1057 N1061 1.328 . S
C1057 H1062 0.930 . S
C1058 C1059 1.333 . S
C1058 N1060 1.317 . S
C1058 H1063 0.930 . S
C1059 C1058 1.333 . S
C1059 N1061 1.350 . S
C1059 H1085 0.931 . S
N1060 Co1056 2.148 . S
N1060 C1057 1.301 . S
N1060 C1058 1.317 . S
N1061 C1057 1.328 . S
N1061 C1059 1.350 . S
H1062 C1057 0.930 . S
H1063 C1058 0.930 . S
C1064 O1065 1.224 . S
C1064 O1083 1.247 . S
O1065 C1064 1.224 . S
N1066 Co1056 2.128 . S
N1066 C1067 1.355 . S
N1066 C1069 1.311 . S
C1067 N1066 1.355 . S
C1067 C1068 1.363 . S
C1067 H1079 0.929 . S
C1068 C1067 1.363 . S
C1068 N1070 1.375 . S
C1068 H1086 0.931 . S
C1069 N1066 1.311 . S
C1069 N1070 1.347 . S
C1069 H1080 0.929 . S
N1070 C1068 1.375 . S
N1070 C1069 1.347 . S
C1071 C1074 1.365 . S
C1071 N1076 1.328 . S
C1071 H1077 0.929 . S
C1072 C1073 1.362 . S
C1072 C1075 1.378 . S
C1072 H1087 0.929 . S
C1073 C1072 1.362 . S
C1073 C1074 1.366 . S
C1074 C1071 1.365 . S
C1074 C1073 1.366 . S
C1074 H1088 0.930 . S
C1075 C1072 1.378 . S
C1075 N1076 1.315 . S
C1075 H1078 0.930 . S
N1076 Co1056 2.194 . S
N1076 C1071 1.328 . S
N1076 C1075 1.315 . S
H1077 C1071 0.929 . S
H1078 C1075 0.930 . S
H1079 C1067 0.929 . S
H1080 C1069 0.929 . S
O1081 Co1056 2.351 . S
O1081 C1084 1.244 . S
O1082 Co1056 2.155 . S
O1082 C1084 1.240 . S
O1083 Co1056 2.096 . S
O1083 C1064 1.247 . S
C1084 O1081 1.244 . S
C1084 O1082 1.240 . S
H1085 C1059 0.931 . S
H1086 C1068 0.931 . S
H1087 C1072 0.929 . S
H1088 C1074 0.930 . S
Co1089 N1093 2.148 . S
Co1089 N1099 2.128 . S
Co1089 N1109 2.194 . S
Co1089 O1114 2.351 . S
Co1089 O1115 2.155 . S
Co1089 O1116 2.096 . S
C1090 N1093 1.301 . S
C1090 N1094 1.328 . S
C1090 H1095 0.930 . S
C1091 C1092 1.333 . S
C1091 N1093 1.317 . S
C1091 H1096 0.930 . S
C1092 C1091 1.333 . S
C1092 N1094 1.350 . S
C1092 H1118 0.931 . S
N1093 Co1089 2.148 . S
N1093 C1090 1.301 . S
N1093 C1091 1.317 . S
N1094 C1090 1.328 . S
N1094 C1092 1.350 . S
H1095 C1090 0.930 . S
H1096 C1091 0.930 . S
C1097 O1098 1.224 . S
C1097 O1116 1.247 . S
O1098 C1097 1.224 . S
N1099 Co1089 2.128 . S
N1099 C1100 1.355 . S
N1099 C1102 1.311 . S
C1100 N1099 1.355 . S
C1100 C1101 1.363 . S
C1100 H1112 0.929 . S
C1101 C1100 1.363 . S
C1101 N1103 1.375 . S
C1101 H1119 0.931 . S
C1102 N1099 1.311 . S
C1102 N1103 1.347 . S
C1102 H1113 0.929 . S
N1103 C1101 1.375 . S
N1103 C1102 1.347 . S
C1104 C1107 1.365 . S
C1104 N1109 1.328 . S
C1104 H1110 0.929 . S
C1105 C1106 1.362 . S
C1105 C1108 1.378 . S
C1105 H1120 0.929 . S
C1106 C1105 1.362 . S
C1106 C1107 1.366 . S
C1107 C1104 1.365 . S
C1107 C1106 1.366 . S
C1107 H1121 0.930 . S
C1108 C1105 1.378 . S
C1108 N1109 1.315 . S
C1108 H1111 0.930 . S
N1109 Co1089 2.194 . S
N1109 C1104 1.328 . S
N1109 C1108 1.315 . S
H1110 C1104 0.929 . S
H1111 C1108 0.930 . S
H1112 C1100 0.929 . S
H1113 C1102 0.929 . S
O1114 Co1089 2.351 . S
O1114 C1117 1.244 . S
O1115 Co1089 2.155 . S
O1115 C1117 1.240 . S
O1116 Co1089 2.096 . S
O1116 C1097 1.247 . S
C1117 O1114 1.244 . S
C1117 O1115 1.240 . S
H1118 C1092 0.931 . S
H1119 C1101 0.931 . S
H1120 C1105 0.929 . S
H1121 C1107 0.930 . S
Co1122 N1126 2.148 . S
Co1122 N1132 2.128 . S
Co1122 N1142 2.194 . S
Co1122 O1147 2.351 . S
Co1122 O1148 2.155 . S
Co1122 O1149 2.096 . S
C1123 N1126 1.301 . S
C1123 N1127 1.328 . S
C1123 H1128 0.930 . S
C1124 C1125 1.333 . S
C1124 N1126 1.317 . S
C1124 H1129 0.930 . S
C1125 C1124 1.333 . S
C1125 N1127 1.350 . S
C1125 H1151 0.931 . S
N1126 Co1122 2.148 . S
N1126 C1123 1.301 . S
N1126 C1124 1.317 . S
N1127 C1123 1.328 . S
N1127 C1125 1.350 . S
H1128 C1123 0.930 . S
H1129 C1124 0.930 . S
C1130 O1131 1.224 . S
C1130 O1149 1.247 . S
O1131 C1130 1.224 . S
N1132 Co1122 2.128 . S
N1132 C1133 1.355 . S
N1132 C1135 1.311 . S
C1133 N1132 1.355 . S
C1133 C1134 1.363 . S
C1133 H1145 0.929 . S
C1134 C1133 1.363 . S
C1134 N1136 1.375 . S
C1134 H1152 0.931 . S
C1135 N1132 1.311 . S
C1135 N1136 1.347 . S
C1135 H1146 0.929 . S
N1136 C1134 1.375 . S
N1136 C1135 1.347 . S
C1137 C1140 1.365 . S
C1137 N1142 1.328 . S
C1137 H1143 0.929 . S
C1138 C1139 1.362 . S
C1138 C1141 1.378 . S
C1138 H1153 0.929 . S
C1139 C1138 1.362 . S
C1139 C1140 1.366 . S
C1140 C1137 1.365 . S
C1140 C1139 1.366 . S
C1140 H1154 0.930 . S
C1141 C1138 1.378 . S
C1141 N1142 1.315 . S
C1141 H1144 0.930 . S
N1142 Co1122 2.194 . S
N1142 C1137 1.328 . S
N1142 C1141 1.315 . S
H1143 C1137 0.929 . S
H1144 C1141 0.930 . S
H1145 C1133 0.929 . S
H1146 C1135 0.929 . S
O1147 Co1122 2.351 . S
O1147 C1150 1.244 . S
O1148 Co1122 2.155 . S
O1148 C1150 1.240 . S
O1149 Co1122 2.096 . S
O1149 C1130 1.247 . S
C1150 O1147 1.244 . S
C1150 O1148 1.240 . S
H1151 C1125 0.931 . S
H1152 C1134 0.931 . S
H1153 C1138 0.929 . S
H1154 C1140 0.930 . S
Co1155 N1159 2.148 . S
Co1155 N1165 2.128 . S
Co1155 N1175 2.194 . S
Co1155 O1180 2.351 . S
Co1155 O1181 2.155 . S
Co1155 O1182 2.096 . S
C1156 N1159 1.301 . S
C1156 N1160 1.328 . S
C1156 H1161 0.930 . S
C1157 C1158 1.333 . S
C1157 N1159 1.317 . S
C1157 H1162 0.930 . S
C1158 C1157 1.333 . S
C1158 N1160 1.350 . S
C1158 H1184 0.931 . S
N1159 Co1155 2.148 . S
N1159 C1156 1.301 . S
N1159 C1157 1.317 . S
N1160 C1156 1.328 . S
N1160 C1158 1.350 . S
H1161 C1156 0.930 . S
H1162 C1157 0.930 . S
C1163 O1164 1.224 . S
C1163 O1182 1.247 . S
O1164 C1163 1.224 . S
N1165 Co1155 2.128 . S
N1165 C1166 1.355 . S
N1165 C1168 1.311 . S
C1166 N1165 1.355 . S
C1166 C1167 1.363 . S
C1166 H1178 0.929 . S
C1167 C1166 1.363 . S
C1167 N1169 1.375 . S
C1167 H1185 0.931 . S
C1168 N1165 1.311 . S
C1168 N1169 1.347 . S
C1168 H1179 0.929 . S
N1169 C1167 1.375 . S
N1169 C1168 1.347 . S
C1170 C1173 1.365 . S
C1170 N1175 1.328 . S
C1170 H1176 0.929 . S
C1171 C1172 1.362 . S
C1171 C1174 1.378 . S
C1171 H1186 0.929 . S
C1172 C1171 1.362 . S
C1172 C1173 1.366 . S
C1173 C1170 1.365 . S
C1173 C1172 1.366 . S
C1173 H1187 0.930 . S
C1174 C1171 1.378 . S
C1174 N1175 1.315 . S
C1174 H1177 0.930 . S
N1175 Co1155 2.194 . S
N1175 C1170 1.328 . S
N1175 C1174 1.315 . S
H1176 C1170 0.929 . S
H1177 C1174 0.930 . S
H1178 C1166 0.929 . S
H1179 C1168 0.929 . S
O1180 Co1155 2.351 . S
O1180 C1183 1.244 . S
O1181 Co1155 2.155 . S
O1181 C1183 1.240 . S
O1182 Co1155 2.096 . S
O1182 C1163 1.247 . S
C1183 O1180 1.244 . S
C1183 O1181 1.240 . S
H1184 C1158 0.931 . S
H1185 C1167 0.931 . S
H1186 C1171 0.929 . S
H1187 C1173 0.930 . S
H1188 C1194 0.930 . S
H1189 C1197 0.930 . S
H1190 C1198 0.930 . S
H1191 C1199 0.930 . S
H1192 C1202 0.930 . S
H1193 C1203 0.930 . S
C1194 H1188 0.930 . S
C1194 C1195 1.355 . S
C1194 C1196 1.415 . S
C1195 C1194 1.355 . S
C1195 C1197 1.419 . S
C1196 C1194 1.415 . S
C1196 C1201 1.425 . S
C1196 C1203 1.409 . S
C1197 H1189 0.930 . S
C1197 C1195 1.419 . S
C1197 C1198 1.362 . S
C1198 H1190 0.930 . S
C1198 C1197 1.362 . S
C1198 C1201 1.409 . S
C1199 H1191 0.930 . S
C1199 C1200 1.355 . S
C1199 C1201 1.415 . S
C1200 C1199 1.355 . S
C1200 C1202 1.419 . S
C1201 C1196 1.425 . S
C1201 C1198 1.409 . S
C1201 C1199 1.415 . S
C1202 H1192 0.930 . S
C1202 C1200 1.419 . S
C1202 C1203 1.362 . S
C1203 H1193 0.930 . S
C1203 C1196 1.409 . S
C1203 C1202 1.362 . S
H1204 C1210 0.930 . S
H1205 C1213 0.930 . S
H1206 C1214 0.930 . S
H1207 C1215 0.930 . S
H1208 C1218 0.930 . S
H1209 C1219 0.930 . S
C1210 H1204 0.930 . S
C1210 C1211 1.355 . S
C1210 C1212 1.415 . S
C1211 C1210 1.355 . S
C1211 C1213 1.419 . S
C1212 C1210 1.415 . S
C1212 C1217 1.425 . S
C1212 C1219 1.409 . S
C1213 H1205 0.930 . S
C1213 C1211 1.419 . S
C1213 C1214 1.362 . S
C1214 H1206 0.930 . S
C1214 C1213 1.362 . S
C1214 C1217 1.409 . S
C1215 H1207 0.930 . S
C1215 C1216 1.355 . S
C1215 C1217 1.415 . S
C1216 C1215 1.355 . S
C1216 C1218 1.419 . S
C1217 C1212 1.425 . S
C1217 C1214 1.409 . S
C1217 C1215 1.415 . S
C1218 H1208 0.930 . S
C1218 C1216 1.419 . S
C1218 C1219 1.362 . S
C1219 H1209 0.930 . S
C1219 C1212 1.409 . S
C1219 C1218 1.362 . S
H1220 C1226 0.930 . S
H1221 C1229 0.930 . S
H1222 C1230 0.930 1_554 S
H1223 C1231 0.930 . S
H1224 C1234 0.930 . S
H1225 C1235 0.930 . S
C1226 H1220 0.930 . S
C1226 C1227 1.355 . S
C1226 C1228 1.415 . S
C1227 C1226 1.355 . S
C1227 C1229 1.419 1_556 S
C1228 C1226 1.415 . S
C1228 C1233 1.425 . S
C1228 C1235 1.409 . S
C1229 H1221 0.930 . S
C1229 C1227 1.419 1_554 S
C1229 C1230 1.362 1_554 S
C1230 H1222 0.930 1_556 S
C1230 C1229 1.362 1_556 S
C1230 C1233 1.409 . S
C1231 H1223 0.930 . S
C1231 C1232 1.355 . S
C1231 C1233 1.415 . S
C1232 C1231 1.355 . S
C1232 C1234 1.419 . S
C1233 C1228 1.425 . S
C1233 C1230 1.409 . S
C1233 C1231 1.415 . S
C1234 H1224 0.930 . S
C1234 C1232 1.419 . S
C1234 C1235 1.362 . S
C1235 H1225 0.930 . S
C1235 C1228 1.409 . S
C1235 C1234 1.362 . S
H1236 C1242 0.930 . S
H1237 C1245 0.930 . S
H1238 C1246 0.930 . S
H1239 C1247 0.930 . S
H1240 C1250 0.930 . S
H1241 C1251 0.930 . S
C1242 H1236 0.930 . S
C1242 C1243 1.355 . S
C1242 C1244 1.415 . S
C1243 C1242 1.355 . S
C1243 C1245 1.419 . S
C1244 C1242 1.415 . S
C1244 C1249 1.425 . S
C1244 C1251 1.409 . S
C1245 H1237 0.930 . S
C1245 C1243 1.419 . S
C1245 C1246 1.362 . S
C1246 H1238 0.930 . S
C1246 C1245 1.362 . S
C1246 C1249 1.409 . S
C1247 H1239 0.930 . S
C1247 C1248 1.355 . S
C1247 C1249 1.415 . S
C1248 C1247 1.355 . S
C1248 C1250 1.419 . S
C1249 C1244 1.425 . S
C1249 C1246 1.409 . S
C1249 C1247 1.415 . S
C1250 H1240 0.930 . S
C1250 C1248 1.419 . S
C1250 C1251 1.362 . S
C1251 H1241 0.930 . S
C1251 C1244 1.409 . S
C1251 C1250 1.362 . S
H1252 C1258 0.930 . S
H1253 C1261 0.930 . S
H1254 C1262 0.930 . S
H1255 C1263 0.930 . S
H1256 C1266 0.930 . S
H1257 C1267 0.930 . S
C1258 H1252 0.930 . S
C1258 C1259 1.355 . S
C1258 C1260 1.415 . S
C1259 C1258 1.355 . S
C1259 C1261 1.419 . S
C1260 C1258 1.415 . S
C1260 C1265 1.425 . S
C1260 C1267 1.409 . S
C1261 H1253 0.930 . S
C1261 C1259 1.419 . S
C1261 C1262 1.362 . S
C1262 H1254 0.930 . S
C1262 C1261 1.362 . S
C1262 C1265 1.409 . S
C1263 H1255 0.930 . S
C1263 C1264 1.355 . S
C1263 C1265 1.415 . S
C1264 C1263 1.355 . S
C1264 C1266 1.419 . S
C1265 C1260 1.425 . S
C1265 C1262 1.409 . S
C1265 C1263 1.415 . S
C1266 H1256 0.930 . S
C1266 C1264 1.419 . S
C1266 C1267 1.362 . S
C1267 H1257 0.930 . S
C1267 C1260 1.409 . S
C1267 C1266 1.362 . S
H1268 C1274 0.930 . S
H1269 C1277 0.930 . S
H1270 C1278 0.930 . S
H1271 C1279 0.930 . S
H1272 C1282 0.930 . S
H1273 C1283 0.930 . S
C1274 H1268 0.930 . S
C1274 C1275 1.355 . S
C1274 C1276 1.415 . S
C1275 C1274 1.355 . S
C1275 C1277 1.419 . S
C1276 C1274 1.415 . S
C1276 C1281 1.425 . S
C1276 C1283 1.409 . S
C1277 H1269 0.930 . S
C1277 C1275 1.419 . S
C1277 C1278 1.362 . S
C1278 H1270 0.930 . S
C1278 C1277 1.362 . S
C1278 C1281 1.409 . S
C1279 H1271 0.930 . S
C1279 C1280 1.355 . S
C1279 C1281 1.415 . S
C1280 C1279 1.355 . S
C1280 C1282 1.419 . S
C1281 C1276 1.425 . S
C1281 C1278 1.409 . S
C1281 C1279 1.415 . S
C1282 H1272 0.930 . S
C1282 C1280 1.419 . S
C1282 C1283 1.362 . S
C1283 H1273 0.930 . S
C1283 C1276 1.409 . S
C1283 C1282 1.362 . S
H1284 C1290 0.930 . S
H1285 C1293 0.930 . S
H1286 C1294 0.930 . S
H1287 C1295 0.930 1_556 S
H1288 C1298 0.930 . S
H1289 C1299 0.930 . S
C1290 H1284 0.930 . S
C1290 C1291 1.355 . S
C1290 C1292 1.415 . S
C1291 C1290 1.355 . S
C1291 C1293 1.419 . S
C1292 C1290 1.415 . S
C1292 C1297 1.425 . S
C1292 C1299 1.409 . S
C1293 H1285 0.930 . S
C1293 C1291 1.419 . S
C1293 C1294 1.362 . S
C1294 H1286 0.930 . S
C1294 C1293 1.362 . S
C1294 C1297 1.409 . S
C1295 H1287 0.930 1_554 S
C1295 C1296 1.355 . S
C1295 C1297 1.415 . S
C1296 C1295 1.355 . S
C1296 C1298 1.419 . S
C1297 C1292 1.425 . S
C1297 C1294 1.409 . S
C1297 C1295 1.415 . S
C1298 H1288 0.930 . S
C1298 C1296 1.419 . S
C1298 C1299 1.362 . S
C1299 H1289 0.930 . S
C1299 C1292 1.409 . S
C1299 C1298 1.362 . S
H1300 C1306 0.930 . S
H1301 C1309 0.930 . S
H1302 C1310 0.930 . S
H1303 C1311 0.930 . S
H1304 C1314 0.930 . S
H1305 C1315 0.930 . S
C1306 H1300 0.930 . S
C1306 C1307 1.355 . S
C1306 C1308 1.415 . S
C1307 C1306 1.355 . S
C1307 C1309 1.419 . S
C1308 C1306 1.415 . S
C1308 C1313 1.425 . S
C1308 C1315 1.409 . S
C1309 H1301 0.930 . S
C1309 C1307 1.419 . S
C1309 C1310 1.362 . S
C1310 H1302 0.930 . S
C1310 C1309 1.362 . S
C1310 C1313 1.409 . S
C1311 H1303 0.930 . S
C1311 C1312 1.355 . S
C1311 C1313 1.415 . S
C1312 C1311 1.355 . S
C1312 C1314 1.419 . S
C1313 C1308 1.425 . S
C1313 C1310 1.409 . S
C1313 C1311 1.415 . S
C1314 H1304 0.930 . S
C1314 C1312 1.419 . S
C1314 C1315 1.362 . S
C1315 H1305 0.930 . S
C1315 C1308 1.409 . S
C1315 C1314 1.362 . S
H1316 C1322 0.930 . S
H1317 C1325 0.930 . S
H1318 C1326 0.930 . S
H1319 C1327 0.930 . S
H1320 C1330 0.930 . S
H1321 C1331 0.930 . S
C1322 H1316 0.930 . S
C1322 C1323 1.355 . S
C1322 C1324 1.415 . S
C1323 C1322 1.355 . S
C1323 C1325 1.419 . S
C1324 C1322 1.415 . S
C1324 C1329 1.425 . S
C1324 C1331 1.409 . S
C1325 H1317 0.930 . S
C1325 C1323 1.419 . S
C1325 C1326 1.362 . S
C1326 H1318 0.930 . S
C1326 C1325 1.362 . S
C1326 C1329 1.409 . S
C1327 H1319 0.930 . S
C1327 C1328 1.355 . S
C1327 C1329 1.415 . S
C1328 C1327 1.355 . S
C1328 C1330 1.419 . S
C1329 C1324 1.425 . S
C1329 C1326 1.409 . S
C1329 C1327 1.415 . S
C1330 H1320 0.930 . S
C1330 C1328 1.419 . S
C1330 C1331 1.362 . S
C1331 H1321 0.930 . S
C1331 C1324 1.409 . S
C1331 C1330 1.362 . S
H1332 C1338 0.930 . S
H1333 C1341 0.930 . S
H1334 C1342 0.930 . S
H1335 C1343 0.930 . S
H1336 C1346 0.930 . S
H1337 C1347 0.930 . S
C1338 H1332 0.930 . S
C1338 C1339 1.355 . S
C1338 C1340 1.415 . S
C1339 C1338 1.355 . S
C1339 C1341 1.419 . S
C1340 C1338 1.415 . S
C1340 C1345 1.425 . S
C1340 C1347 1.409 . S
C1341 H1333 0.930 . S
C1341 C1339 1.419 . S
C1341 C1342 1.362 . S
C1342 H1334 0.930 . S
C1342 C1341 1.362 . S
C1342 C1345 1.409 . S
C1343 H1335 0.930 . S
C1343 C1344 1.355 . S
C1343 C1345 1.415 . S
C1344 C1343 1.355 . S
C1344 C1346 1.419 . S
C1345 C1340 1.425 . S
C1345 C1342 1.409 . S
C1345 C1343 1.415 . S
C1346 H1336 0.930 . S
C1346 C1344 1.419 . S
C1346 C1347 1.362 . S
C1347 H1337 0.930 . S
C1347 C1340 1.409 . S
C1347 C1346 1.362 . S
H1348 C1354 0.930 . S
H1349 C1357 0.930 . S
H1350 C1358 0.930 . S
H1351 C1359 0.930 . S
H1352 C1362 0.930 . S
H1353 C1363 0.930 . S
C1354 H1348 0.930 . S
C1354 C1355 1.355 . S
C1354 C1356 1.415 . S
C1355 C1354 1.355 . S
C1355 C1357 1.419 . S
C1356 C1354 1.415 . S
C1356 C1361 1.425 . S
C1356 C1363 1.409 . S
C1357 H1349 0.930 . S
C1357 C1355 1.419 . S
C1357 C1358 1.362 . S
C1358 H1350 0.930 . S
C1358 C1357 1.362 . S
C1358 C1361 1.409 . S
C1359 H1351 0.930 . S
C1359 C1360 1.355 . S
C1359 C1361 1.415 . S
C1360 C1359 1.355 . S
C1360 C1362 1.419 . S
C1361 C1356 1.425 . S
C1361 C1358 1.409 . S
C1361 C1359 1.415 . S
C1362 H1352 0.930 . S
C1362 C1360 1.419 . S
C1362 C1363 1.362 . S
C1363 H1353 0.930 . S
C1363 C1356 1.409 . S
C1363 C1362 1.362 . S
H1364 C1370 0.930 . S
H1365 C1373 0.930 . S
H1366 C1374 0.930 . S
H1367 C1375 0.930 . S
H1368 C1378 0.930 . S
H1369 C1379 0.930 . S
C1370 H1364 0.930 . S
C1370 C1371 1.355 . S
C1370 C1372 1.415 . S
C1371 C1370 1.355 . S
C1371 C1373 1.419 . S
C1372 C1370 1.415 . S
C1372 C1377 1.425 . S
C1372 C1379 1.409 . S
C1373 H1365 0.930 . S
C1373 C1371 1.419 . S
C1373 C1374 1.362 . S
C1374 H1366 0.930 . S
C1374 C1373 1.362 . S
C1374 C1377 1.409 . S
C1375 H1367 0.930 . S
C1375 C1376 1.355 . S
C1375 C1377 1.415 . S
C1376 C1375 1.355 . S
C1376 C1378 1.419 . S
C1377 C1372 1.425 . S
C1377 C1374 1.409 . S
C1377 C1375 1.415 . S
C1378 H1368 0.930 . S
C1378 C1376 1.419 . S
C1378 C1379 1.362 . S
C1379 H1369 0.930 . S
C1379 C1372 1.409 . S
C1379 C1378 1.362 . S
H1380 C1386 0.930 . S
H1381 C1389 0.930 . S
H1382 C1390 0.930 . S
H1383 C1391 0.930 . S
H1384 C1394 0.930 . S
H1385 C1395 0.930 . S
C1386 H1380 0.930 . S
C1386 C1387 1.355 . S
C1386 C1388 1.415 . S
C1387 C1386 1.355 . S
C1387 C1389 1.419 . S
C1388 C1386 1.415 . S
C1388 C1393 1.425 1_455 S
C1388 C1395 1.409 . S
C1389 H1381 0.930 . S
C1389 C1387 1.419 . S
C1389 C1390 1.362 1_455 S
C1390 H1382 0.930 . S
C1390 C1389 1.362 1_655 S
C1390 C1393 1.409 . S
C1391 H1383 0.930 . S
C1391 C1392 1.355 . S
C1391 C1393 1.415 . S
C1392 C1391 1.355 . S
C1392 C1394 1.419 . S
C1393 C1388 1.425 1_655 S
C1393 C1390 1.409 . S
C1393 C1391 1.415 . S
C1394 H1384 0.930 . S
C1394 C1392 1.419 . S
C1394 C1395 1.362 1_655 S
C1395 H1385 0.930 . S
C1395 C1388 1.409 . S
C1395 C1394 1.362 1_455 S
H1396 C1402 0.930 . S
H1397 C1405 0.930 . S
H1398 C1406 0.930 . S
H1399 C1407 0.930 . S
H1400 C1410 0.930 . S
H1401 C1411 0.930 . S
C1402 H1396 0.930 . S
C1402 C1403 1.355 . S
C1402 C1404 1.415 . S
C1403 C1402 1.355 . S
C1403 C1405 1.419 . S
C1404 C1402 1.415 . S
C1404 C1409 1.425 . S
C1404 C1411 1.409 . S
C1405 H1397 0.930 . S
C1405 C1403 1.419 . S
C1405 C1406 1.362 . S
C1406 H1398 0.930 . S
C1406 C1405 1.362 . S
C1406 C1409 1.409 . S
C1407 H1399 0.930 . S
C1407 C1408 1.355 . S
C1407 C1409 1.415 . S
C1408 C1407 1.355 . S
C1408 C1410 1.419 . S
C1409 C1404 1.425 . S
C1409 C1406 1.409 . S
C1409 C1407 1.415 . S
C1410 H1400 0.930 . S
C1410 C1408 1.419 . S
C1410 C1411 1.362 . S
C1411 H1401 0.930 . S
C1411 C1404 1.409 . S
C1411 C1410 1.362 . S
H1412 C1418 0.930 . S
H1413 C1421 0.930 . S
H1414 C1422 0.930 1_565 S
H1415 C1423 0.930 . S
H1416 C1426 0.930 . S
H1417 C1427 0.930 1_545 S
C1418 H1412 0.930 . S
C1418 C1419 1.355 . S
C1418 C1420 1.415 . S
C1419 C1418 1.355 . S
C1419 C1421 1.419 . S
C1420 C1418 1.415 . S
C1420 C1425 1.425 1_545 S
C1420 C1427 1.409 1_545 S
C1421 H1413 0.930 . S
C1421 C1419 1.419 . S
C1421 C1422 1.362 . S
C1422 H1414 0.930 1_545 S
C1422 C1421 1.362 . S
C1422 C1425 1.409 1_545 S
C1423 H1415 0.930 . S
C1423 C1424 1.355 . S
C1423 C1425 1.415 . S
C1424 C1423 1.355 . S
C1424 C1426 1.419 . S
C1425 C1420 1.425 1_565 S
C1425 C1422 1.409 1_565 S
C1425 C1423 1.415 . S
C1426 H1416 0.930 . S
C1426 C1424 1.419 . S
C1426 C1427 1.362 . S
C1427 H1417 0.930 1_565 S
C1427 C1420 1.409 1_565 S
C1427 C1426 1.362 . S
H1428 C1434 0.930 . S
H1429 C1437 0.930 . S
H1430 C1438 0.944 . S
H1431 C1439 0.930 . S
H1432 C1442 0.930 . S
H1433 C1443 0.942 . S
C1434 H1428 0.930 . S
C1434 C1435 1.355 . S
C1434 C1436 1.415 . S
C1435 C1434 1.355 . S
C1435 C1437 1.419 . S
C1436 C1434 1.415 . S
C1436 C1441 1.425 1_565 S
C1436 C1443 1.409 . S
C1437 H1429 0.930 . S
C1437 C1435 1.419 . S
C1437 C1438 1.350 1_565 S
C1438 H1430 0.944 . S
C1438 C1437 1.350 1_545 S
C1438 C1441 1.409 . S
C1439 H1431 0.930 . S
C1439 C1440 1.355 . S
C1439 C1441 1.415 . S
C1440 C1439 1.355 . S
C1440 C1442 1.419 . S
C1441 C1436 1.425 1_545 S
C1441 C1438 1.409 . S
C1441 C1439 1.415 . S
C1442 H1432 0.930 . S
C1442 C1440 1.419 . S
C1442 C1443 1.351 1_545 S
C1443 H1433 0.942 . S
C1443 C1436 1.409 . S
C1443 C1442 1.351 1_565 S
H1444 C1450 0.930 . S
H1445 C1453 0.930 . S
H1446 C1454 0.914 1_455 S
H1447 C1455 0.930 . S
H1448 C1458 0.930 . S
H1449 C1459 0.915 1_655 S
C1450 H1444 0.930 . S
C1450 C1451 1.355 . S
C1450 C1452 1.415 . S
C1451 C1450 1.355 . S
C1451 C1453 1.419 . S
C1452 C1450 1.415 . S
C1452 C1457 1.425 1_655 S
C1452 C1459 1.409 1_655 S
C1453 H1445 0.930 . S
C1453 C1451 1.419 . S
C1453 C1454 1.362 . S
C1454 H1446 0.914 1_655 S
C1454 C1453 1.362 . S
C1454 C1457 1.409 1_655 S
C1455 H1447 0.930 . S
C1455 C1456 1.355 . S
C1455 C1457 1.415 . S
C1456 C1455 1.355 . S
C1456 C1458 1.419 . S
C1457 C1452 1.425 1_455 S
C1457 C1454 1.409 1_455 S
C1457 C1455 1.415 . S
C1458 H1448 0.930 . S
C1458 C1456 1.419 . S
C1458 C1459 1.362 . S
C1459 H1449 0.915 1_455 S
C1459 C1452 1.409 1_455 S
C1459 C1458 1.362 . S
H1460 C1466 0.930 . S
H1461 C1469 0.930 . S
H1462 C1470 0.930 . S
H1463 C1471 0.930 . S
H1464 C1474 0.930 . S
H1465 C1475 0.930 . S
C1466 H1460 0.930 . S
C1466 C1467 1.355 . S
C1466 C1468 1.415 . S
C1467 C1466 1.355 . S
C1467 C1469 1.419 . S
C1468 C1466 1.415 . S
C1468 C1473 1.425 . S
C1468 C1475 1.409 . S
C1469 H1461 0.930 . S
C1469 C1467 1.419 . S
C1469 C1470 1.362 . S
C1470 H1462 0.930 . S
C1470 C1469 1.362 . S
C1470 C1473 1.409 . S
C1471 H1463 0.930 . S
C1471 C1472 1.355 . S
C1471 C1473 1.415 . S
C1472 C1471 1.355 . S
C1472 C1474 1.419 . S
C1473 C1468 1.425 . S
C1473 C1470 1.409 . S
C1473 C1471 1.415 . S
C1474 H1464 0.930 . S
C1474 C1472 1.419 . S
C1474 C1475 1.362 . S
C1475 H1465 0.930 . S
C1475 C1468 1.409 . S
C1475 C1474 1.362 . S
H1476 C1482 0.930 . S
H1477 C1485 0.930 . S
H1478 C1486 0.930 . S
H1479 C1487 0.930 . S
H1480 C1490 0.930 . S
H1481 C1491 0.930 . S
C1482 H1476 0.930 . S
C1482 C1483 1.355 . S
C1482 C1484 1.415 . S
C1483 C1482 1.355 . S
C1483 C1485 1.419 . S
C1484 C1482 1.415 . S
C1484 C1489 1.425 . S
C1484 C1491 1.409 . S
C1485 H1477 0.930 . S
C1485 C1483 1.419 . S
C1485 C1486 1.362 . S
C1486 H1478 0.930 . S
C1486 C1485 1.362 . S
C1486 C1489 1.409 . S
C1487 H1479 0.930 . S
C1487 C1488 1.355 . S
C1487 C1489 1.415 . S
C1488 C1487 1.355 . S
C1488 C1490 1.419 . S
C1489 C1484 1.425 . S
C1489 C1486 1.409 . S
C1489 C1487 1.415 . S
C1490 H1480 0.930 . S
C1490 C1488 1.419 . S
C1490 C1491 1.362 . S
C1491 H1481 0.930 . S
C1491 C1484 1.409 . S
C1491 C1490 1.362 . S
H1492 C1498 0.930 . S
H1493 C1501 0.930 . S
H1494 C1502 0.930 . S
H1495 C1503 0.930 . S
H1496 C1506 0.930 . S
H1497 C1507 0.930 . S
C1498 H1492 0.930 . S
C1498 C1499 1.355 . S
C1498 C1500 1.415 . S
C1499 C1498 1.355 . S
C1499 C1501 1.419 . S
C1500 C1498 1.415 . S
C1500 C1505 1.425 . S
C1500 C1507 1.409 . S
C1501 H1493 0.930 . S
C1501 C1499 1.419 . S
C1501 C1502 1.362 . S
C1502 H1494 0.930 . S
C1502 C1501 1.362 . S
C1502 C1505 1.409 . S
C1503 H1495 0.930 . S
C1503 C1504 1.355 . S
C1503 C1505 1.415 . S
C1504 C1503 1.355 . S
C1504 C1506 1.419 . S
C1505 C1500 1.425 . S
C1505 C1502 1.409 . S
C1505 C1503 1.415 . S
C1506 H1496 0.930 . S
C1506 C1504 1.419 . S
C1506 C1507 1.362 . S
C1507 H1497 0.930 . S
C1507 C1500 1.409 . S
C1507 C1506 1.362 . S
H1508 C1514 0.930 . S
H1509 C1517 0.930 . S
H1510 C1518 0.930 . S
H1511 C1519 0.930 . S
H1512 C1522 0.930 . S
H1513 C1523 0.930 . S
C1514 H1508 0.930 . S
C1514 C1515 1.355 . S
C1514 C1516 1.415 . S
C1515 C1514 1.355 . S
C1515 C1517 1.419 . S
C1516 C1514 1.415 . S
C1516 C1521 1.425 . S
C1516 C1523 1.409 . S
C1517 H1509 0.930 . S
C1517 C1515 1.419 . S
C1517 C1518 1.362 . S
C1518 H1510 0.930 . S
C1518 C1517 1.362 . S
C1518 C1521 1.409 . S
C1519 H1511 0.930 . S
C1519 C1520 1.355 . S
C1519 C1521 1.415 . S
C1520 C1519 1.355 . S
C1520 C1522 1.419 . S
C1521 C1516 1.425 . S
C1521 C1518 1.409 . S
C1521 C1519 1.415 . S
C1522 H1512 0.930 . S
C1522 C1520 1.419 . S
C1522 C1523 1.362 . S
C1523 H1513 0.930 . S
C1523 C1516 1.409 . S
C1523 C1522 1.362 . S
H1524 C1530 0.930 . S
H1525 C1533 0.930 . S
H1526 C1534 0.930 . S
H1527 C1535 0.930 . S
H1528 C1538 0.930 . S
H1529 C1539 0.930 . S
C1530 H1524 0.930 . S
C1530 C1531 1.355 . S
C1530 C1532 1.415 . S
C1531 C1530 1.355 . S
C1531 C1533 1.419 . S
C1532 C1530 1.415 . S
C1532 C1537 1.425 . S
C1532 C1539 1.409 . S
C1533 H1525 0.930 . S
C1533 C1531 1.419 . S
C1533 C1534 1.362 . S
C1534 H1526 0.930 . S
C1534 C1533 1.362 . S
C1534 C1537 1.409 . S
C1535 H1527 0.930 . S
C1535 C1536 1.355 . S
C1535 C1537 1.415 . S
C1536 C1535 1.355 . S
C1536 C1538 1.419 . S
C1537 C1532 1.425 . S
C1537 C1534 1.409 . S
C1537 C1535 1.415 . S
C1538 H1528 0.930 . S
C1538 C1536 1.419 . S
C1538 C1539 1.362 . S
C1539 H1529 0.930 . S
C1539 C1532 1.409 . S
C1539 C1538 1.362 . S
H1540 C1546 0.930 . S
H1541 C1549 0.930 . S
H1542 C1550 0.930 . S
H1543 C1551 0.930 . S
H1544 C1554 0.930 . S
H1545 C1555 0.930 . S
C1546 H1540 0.930 . S
C1546 C1547 1.355 . S
C1546 C1548 1.415 . S
C1547 C1546 1.355 . S
C1547 C1549 1.419 . S
C1548 C1546 1.415 . S
C1548 C1553 1.425 . S
C1548 C1555 1.409 . S
C1549 H1541 0.930 . S
C1549 C1547 1.419 . S
C1549 C1550 1.362 . S
C1550 H1542 0.930 . S
C1550 C1549 1.362 . S
C1550 C1553 1.409 . S
C1551 H1543 0.930 . S
C1551 C1552 1.355 . S
C1551 C1553 1.415 . S
C1552 C1551 1.355 . S
C1552 C1554 1.419 . S
C1553 C1548 1.425 . S
C1553 C1550 1.409 . S
C1553 C1551 1.415 . S
C1554 H1544 0.930 . S
C1554 C1552 1.419 . S
C1554 C1555 1.362 . S
C1555 H1545 0.930 . S
C1555 C1548 1.409 . S
C1555 C1554 1.362 . S
H1556 C1562 0.930 . S
H1557 C1565 0.930 . S
H1558 C1566 0.930 . S
H1559 C1567 0.930 . S
H1560 C1570 0.930 . S
H1561 C1571 0.930 . S
C1562 H1556 0.930 . S
C1562 C1563 1.355 . S
C1562 C1564 1.415 . S
C1563 C1562 1.355 . S
C1563 C1565 1.419 . S
C1564 C1562 1.415 . S
C1564 C1569 1.425 . S
C1564 C1571 1.409 . S
C1565 H1557 0.930 . S
C1565 C1563 1.419 . S
C1565 C1566 1.362 . S
C1566 H1558 0.930 . S
C1566 C1565 1.362 . S
C1566 C1569 1.409 . S
C1567 H1559 0.930 . S
C1567 C1568 1.355 . S
C1567 C1569 1.415 . S
C1568 C1567 1.355 . S
C1568 C1570 1.419 . S
C1569 C1564 1.425 . S
C1569 C1566 1.409 . S
C1569 C1567 1.415 . S
C1570 H1560 0.930 . S
C1570 C1568 1.419 . S
C1570 C1571 1.362 . S
C1571 H1561 0.930 . S
C1571 C1564 1.409 . S
C1571 C1570 1.362 . S
H1572 C1578 0.930 . S
H1573 C1581 0.930 . S
H1574 C1582 0.930 . S
H1575 C1583 0.930 . S
H1576 C1586 0.930 . S
H1577 C1587 0.930 . S
C1578 H1572 0.930 . S
C1578 C1579 1.355 . S
C1578 C1580 1.415 . S
C1579 C1578 1.355 . S
C1579 C1581 1.419 . S
C1580 C1578 1.415 . S
C1580 C1585 1.425 . S
C1580 C1587 1.409 . S
C1581 H1573 0.930 . S
C1581 C1579 1.419 . S
C1581 C1582 1.362 . S
C1582 H1574 0.930 . S
C1582 C1581 1.362 . S
C1582 C1585 1.409 . S
C1583 H1575 0.930 . S
C1583 C1584 1.355 . S
C1583 C1585 1.415 . S
C1584 C1583 1.355 . S
C1584 C1586 1.419 . S
C1585 C1580 1.425 . S
C1585 C1582 1.409 . S
C1585 C1583 1.415 . S
C1586 H1576 0.930 . S
C1586 C1584 1.419 . S
C1586 C1587 1.362 . S
C1587 H1577 0.930 . S
C1587 C1580 1.409 . S
C1587 C1586 1.362 . S
H1588 C1594 0.930 . S
H1589 C1597 0.930 . S
H1590 C1598 0.930 . S
H1591 C1599 0.930 . S
H1592 C1602 0.930 . S
H1593 C1603 0.930 . S
C1594 H1588 0.930 . S
C1594 C1595 1.355 . S
C1594 C1596 1.415 . S
C1595 C1594 1.355 . S
C1595 C1597 1.419 . S
C1596 C1594 1.415 . S
C1596 C1601 1.425 . S
C1596 C1603 1.409 . S
C1597 H1589 0.930 . S
C1597 C1595 1.419 . S
C1597 C1598 1.362 . S
C1598 H1590 0.930 . S
C1598 C1597 1.362 . S
C1598 C1601 1.409 . S
C1599 H1591 0.930 . S
C1599 C1600 1.355 . S
C1599 C1601 1.415 . S
C1600 C1599 1.355 . S
C1600 C1602 1.419 . S
C1601 C1596 1.425 . S
C1601 C1598 1.409 . S
C1601 C1599 1.415 . S
C1602 H1592 0.930 . S
C1602 C1600 1.419 . S
C1602 C1603 1.362 . S
C1603 H1593 0.930 . S
C1603 C1596 1.409 . S
C1603 C1602 1.362 . S
H1604 C1610 0.930 . S
H1605 C1613 0.930 . S
H1606 C1614 0.930 . S
H1607 C1615 0.930 . S
H1608 C1618 0.930 . S
H1609 C1619 0.930 . S
C1610 H1604 0.930 . S
C1610 C1611 1.355 . S
C1610 C1612 1.415 . S
C1611 C1610 1.355 . S
C1611 C1613 1.419 . S
C1612 C1610 1.415 . S
C1612 C1617 1.425 . S
C1612 C1619 1.409 . S
C1613 H1605 0.930 . S
C1613 C1611 1.419 . S
C1613 C1614 1.362 . S
C1614 H1606 0.930 . S
C1614 C1613 1.362 . S
C1614 C1617 1.409 . S
C1615 H1607 0.930 . S
C1615 C1616 1.355 . S
C1615 C1617 1.415 . S
C1616 C1615 1.355 . S
C1616 C1618 1.419 . S
C1617 C1612 1.425 . S
C1617 C1614 1.409 . S
C1617 C1615 1.415 . S
C1618 H1608 0.930 . S
C1618 C1616 1.419 . S
C1618 C1619 1.362 . S
C1619 H1609 0.930 . S
C1619 C1612 1.409 . S
C1619 C1618 1.362 . S
H1620 C1626 0.930 . S
H1621 C1629 0.930 . S
H1622 C1630 0.930 . S
H1623 C1631 0.930 . S
H1624 C1634 0.930 . S
H1625 C1635 0.930 . S
C1626 H1620 0.930 . S
C1626 C1627 1.355 . S
C1626 C1628 1.415 . S
C1627 C1626 1.355 . S
C1627 C1629 1.419 . S
C1628 C1626 1.415 . S
C1628 C1633 1.425 . S
C1628 C1635 1.409 . S
C1629 H1621 0.930 . S
C1629 C1627 1.419 . S
C1629 C1630 1.362 . S
C1630 H1622 0.930 . S
C1630 C1629 1.362 . S
C1630 C1633 1.409 . S
C1631 H1623 0.930 . S
C1631 C1632 1.355 . S
C1631 C1633 1.415 . S
C1632 C1631 1.355 . S
C1632 C1634 1.419 . S
C1633 C1628 1.425 . S
C1633 C1630 1.409 . S
C1633 C1631 1.415 . S
C1634 H1624 0.930 . S
C1634 C1632 1.419 . S
C1634 C1635 1.362 . S
C1635 H1625 0.930 . S
C1635 C1628 1.409 . S
C1635 C1634 1.362 . S
H1636 C1642 0.930 . S
H1637 C1645 0.930 . S
H1638 C1646 0.930 . S
H1639 C1647 0.930 . S
H1640 C1650 0.930 . S
H1641 C1651 0.930 . S
C1642 H1636 0.930 . S
C1642 C1643 1.355 . S
C1642 C1644 1.415 . S
C1643 C1642 1.355 . S
C1643 C1645 1.419 . S
C1644 C1642 1.415 . S
C1644 C1649 1.425 . S
C1644 C1651 1.409 . S
C1645 H1637 0.930 . S
C1645 C1643 1.419 . S
C1645 C1646 1.362 . S
C1646 H1638 0.930 . S
C1646 C1645 1.362 . S
C1646 C1649 1.409 . S
C1647 H1639 0.930 . S
C1647 C1648 1.355 . S
C1647 C1649 1.415 . S
C1648 C1647 1.355 . S
C1648 C1650 1.419 . S
C1649 C1644 1.425 . S
C1649 C1646 1.409 . S
C1649 C1647 1.415 . S
C1650 H1640 0.930 . S
C1650 C1648 1.419 . S
C1650 C1651 1.362 . S
C1651 H1641 0.930 . S
C1651 C1644 1.409 . S
C1651 C1650 1.362 . S
H1652 C1658 0.930 . S
H1653 C1661 0.930 . S
H1654 C1662 0.930 . S
H1655 C1663 0.930 . S
H1656 C1666 0.930 . S
H1657 C1667 0.930 . S
C1658 H1652 0.930 . S
C1658 C1659 1.355 . S
C1658 C1660 1.415 . S
C1659 C1658 1.355 . S
C1659 C1661 1.419 . S
C1660 C1658 1.415 . S
C1660 C1665 1.425 . S
C1660 C1667 1.409 . S
C1661 H1653 0.930 . S
C1661 C1659 1.419 . S
C1661 C1662 1.362 . S
C1662 H1654 0.930 . S
C1662 C1661 1.362 . S
C1662 C1665 1.409 . S
C1663 H1655 0.930 . S
C1663 C1664 1.355 . S
C1663 C1665 1.415 . S
C1664 C1663 1.355 . S
C1664 C1666 1.419 . S
C1665 C1660 1.425 . S
C1665 C1662 1.409 . S
C1665 C1663 1.415 . S
C1666 H1656 0.930 . S
C1666 C1664 1.419 . S
C1666 C1667 1.362 . S
C1667 H1657 0.930 . S
C1667 C1660 1.409 . S
C1667 C1666 1.362 . S
H1668 C1674 0.930 . S
H1669 C1677 0.930 . S
H1670 C1678 0.930 . S
H1671 C1679 0.930 . S
H1672 C1682 0.930 . S
H1673 C1683 0.930 . S
C1674 H1668 0.930 . S
C1674 C1675 1.355 . S
C1674 C1676 1.415 1_655 S
C1675 C1674 1.355 . S
C1675 C1677 1.419 . S
C1676 C1674 1.415 1_455 S
C1676 C1681 1.425 1_455 S
C1676 C1683 1.409 . S
C1677 H1669 0.930 . S
C1677 C1675 1.419 . S
C1677 C1678 1.362 . S
C1678 H1670 0.930 . S
C1678 C1677 1.362 . S
C1678 C1681 1.409 . S
C1679 H1671 0.930 . S
C1679 C1680 1.355 . S
C1679 C1681 1.415 1_455 S
C1680 C1679 1.355 . S
C1680 C1682 1.419 . S
C1681 C1676 1.425 1_655 S
C1681 C1678 1.409 . S
C1681 C1679 1.415 1_655 S
C1682 H1672 0.930 . S
C1682 C1680 1.419 . S
C1682 C1683 1.362 . S
C1683 H1673 0.930 . S
C1683 C1676 1.409 . S
C1683 C1682 1.362 . S
H1684 C1690 0.930 . S
H1685 C1693 0.930 . S
H1686 C1694 0.930 . S
H1687 C1695 0.930 . S
H1688 C1698 0.930 . S
H1689 C1699 0.930 . S
C1690 H1684 0.930 . S
C1690 C1691 1.355 . S
C1690 C1692 1.415 . S
C1691 C1690 1.355 . S
C1691 C1693 1.419 . S
C1692 C1690 1.415 . S
C1692 C1697 1.425 . S
C1692 C1699 1.409 . S
C1693 H1685 0.930 . S
C1693 C1691 1.419 . S
C1693 C1694 1.362 . S
C1694 H1686 0.930 . S
C1694 C1693 1.362 . S
C1694 C1697 1.409 . S
C1695 H1687 0.930 . S
C1695 C1696 1.355 . S
C1695 C1697 1.415 . S
C1696 C1695 1.355 . S
C1696 C1698 1.419 . S
C1697 C1692 1.425 . S
C1697 C1694 1.409 . S
C1697 C1695 1.415 . S
C1698 H1688 0.930 . S
C1698 C1696 1.419 . S
C1698 C1699 1.362 . S
C1699 H1689 0.930 . S
C1699 C1692 1.409 . S
C1699 C1698 1.362 . S
H1700 C1706 0.930 . S
H1701 C1709 0.930 . S
H1702 C1710 0.930 . S
H1703 C1711 0.930 . S
H1704 C1714 0.930 . S
H1705 C1715 0.930 . S
C1706 H1700 0.930 . S
C1706 C1707 1.355 . S
C1706 C1708 1.415 . S
C1707 C1706 1.355 . S
C1707 C1709 1.419 . S
C1708 C1706 1.415 . S
C1708 C1713 1.425 1_565 S
C1708 C1715 1.409 . S
C1709 H1701 0.930 . S
C1709 C1707 1.419 . S
C1709 C1710 1.362 1_565 S
C1710 H1702 0.930 . S
C1710 C1709 1.362 1_545 S
C1710 C1713 1.409 . S
C1711 H1703 0.930 . S
C1711 C1712 1.355 . S
C1711 C1713 1.415 . S
C1712 C1711 1.355 . S
C1712 C1714 1.419 . S
C1713 C1708 1.425 1_545 S
C1713 C1710 1.409 . S
C1713 C1711 1.415 . S
C1714 H1704 0.930 . S
C1714 C1712 1.419 . S
C1714 C1715 1.362 1_545 S
C1715 H1705 0.930 . S
C1715 C1708 1.409 . S
C1715 C1714 1.362 1_565 S
H1716 C1722 0.930 . S
H1717 C1725 0.917 1_545 S
H1718 C1726 0.930 . S
H1719 C1727 0.930 . S
H1720 C1730 0.917 1_565 S
H1721 C1731 0.930 . S
C1722 H1716 0.930 . S
C1722 C1723 1.355 1_554 S
C1722 C1724 1.415 . S
C1723 C1722 1.355 1_556 S
C1723 C1725 1.419 . S
C1724 C1722 1.415 . S
C1724 C1729 1.425 1_564 S
C1724 C1731 1.409 . S
C1725 H1717 0.917 1_565 S
C1725 C1723 1.419 . S
C1725 C1726 1.362 1_565 S
C1726 H1718 0.930 . S
C1726 C1725 1.362 1_545 S
C1726 C1729 1.409 . S
C1727 H1719 0.930 . S
C1727 C1728 1.355 1_556 S
C1727 C1729 1.415 . S
C1728 C1727 1.355 1_554 S
C1728 C1730 1.419 . S
C1729 C1724 1.425 1_546 S
C1729 C1726 1.409 . S
C1729 C1727 1.415 . S
C1730 H1720 0.917 1_545 S
C1730 C1728 1.419 . S
C1730 C1731 1.362 1_545 S
C1731 H1721 0.930 . S
C1731 C1724 1.409 . S
C1731 C1730 1.362 1_565 S
H1732 C1738 0.930 1_554 S
H1733 C1741 0.930 . S
H1734 C1742 0.930 . S
H1735 C1743 0.930 1_556 S
H1736 C1746 0.930 . S
H1737 C1747 0.930 . S
C1738 H1732 0.930 1_556 S
C1738 C1739 1.355 . S
C1738 C1740 1.415 1_556 S
C1739 C1738 1.355 . S
C1739 C1741 1.419 1_455 S
C1740 C1738 1.415 1_554 S
C1740 C1745 1.425 1_454 S
C1740 C1747 1.409 . S
C1741 H1733 0.930 . S
C1741 C1739 1.419 1_655 S
C1741 C1742 1.362 . S
C1742 H1734 0.930 . S
C1742 C1741 1.362 . S
C1742 C1745 1.409 . S
C1743 H1735 0.930 1_554 S
C1743 C1744 1.355 . S
C1743 C1745 1.415 1_554 S
C1744 C1743 1.355 . S
C1744 C1746 1.419 1_655 S
C1745 C1740 1.425 1_656 S
C1745 C1742 1.409 . S
C1745 C1743 1.415 1_556 S
C1746 H1736 0.930 . S
C1746 C1744 1.419 1_455 S
C1746 C1747 1.362 . S
C1747 H1737 0.930 . S
C1747 C1740 1.409 . S
C1747 C1746 1.362 . S
H1748 C1754 0.930 . S
H1749 C1757 0.930 . S
H1750 C1758 0.930 . S
H1751 C1759 0.930 . S
H1752 C1762 0.930 . S
H1753 C1763 0.930 . S
C1754 H1748 0.930 . S
C1754 C1755 1.355 1_554 S
C1754 C1756 1.415 . S
C1755 C1754 1.355 1_556 S
C1755 C1757 1.419 . S
C1756 C1754 1.415 . S
C1756 C1761 1.425 1_554 S
C1756 C1763 1.409 . S
C1757 H1749 0.930 . S
C1757 C1755 1.419 . S
C1757 C1758 1.362 . S
C1758 H1750 0.930 . S
C1758 C1757 1.362 . S
C1758 C1761 1.409 . S
C1759 H1751 0.930 . S
C1759 C1760 1.355 1_556 S
C1759 C1761 1.415 . S
C1760 C1759 1.355 1_554 S
C1760 C1762 1.419 . S
C1761 C1756 1.425 1_556 S
C1761 C1758 1.409 . S
C1761 C1759 1.415 . S
C1762 H1752 0.930 . S
C1762 C1760 1.419 . S
C1762 C1763 1.362 . S
C1763 H1753 0.930 . S
C1763 C1756 1.409 . S
C1763 C1762 1.362 . S
H1764 C1770 0.930 . S
H1765 C1773 0.930 1_554 S
H1766 C1774 0.930 . S
H1767 C1775 0.930 . S
H1768 C1778 0.930 . S
H1769 C1779 0.930 . S
C1770 H1764 0.930 . S
C1770 C1771 1.355 . S
C1770 C1772 1.415 . S
C1771 C1770 1.355 . S
C1771 C1773 1.419 . S
C1772 C1770 1.415 . S
C1772 C1777 1.425 . S
C1772 C1779 1.409 . S
C1773 H1765 0.930 1_556 S
C1773 C1771 1.419 . S
C1773 C1774 1.362 . S
C1774 H1766 0.930 . S
C1774 C1773 1.362 . S
C1774 C1777 1.409 . S
C1775 H1767 0.930 . S
C1775 C1776 1.355 . S
C1775 C1777 1.415 . S
C1776 C1775 1.355 . S
C1776 C1778 1.419 . S
C1777 C1772 1.425 . S
C1777 C1774 1.409 . S
C1777 C1775 1.415 . S
C1778 H1768 0.930 . S
C1778 C1776 1.419 . S
C1778 C1779 1.362 . S
C1779 H1769 0.930 . S
C1779 C1772 1.409 . S
C1779 C1778 1.362 . S
H1780 C1786 0.930 . S
H1781 C1789 0.930 . S
H1782 C1790 0.930 . S
H1783 C1791 0.930 . S
H1784 C1794 0.930 . S
H1785 C1795 0.930 . S
C1786 H1780 0.930 . S
C1786 C1787 1.355 . S
C1786 C1788 1.415 . S
C1787 C1786 1.355 . S
C1787 C1789 1.419 . S
C1788 C1786 1.415 . S
C1788 C1793 1.425 . S
C1788 C1795 1.409 . S
C1789 H1781 0.930 . S
C1789 C1787 1.419 . S
C1789 C1790 1.362 . S
C1790 H1782 0.930 . S
C1790 C1789 1.362 . S
C1790 C1793 1.409 . S
C1791 H1783 0.930 . S
C1791 C1792 1.355 . S
C1791 C1793 1.415 . S
C1792 C1791 1.355 . S
C1792 C1794 1.419 . S
C1793 C1788 1.425 . S
C1793 C1790 1.409 . S
C1793 C1791 1.415 . S
C1794 H1784 0.930 . S
C1794 C1792 1.419 . S
C1794 C1795 1.362 . S
C1795 H1785 0.930 . S
C1795 C1788 1.409 . S
C1795 C1794 1.362 . S
H1796 C1802 0.930 . S
H1797 C1805 0.930 . S
H1798 C1806 0.930 . S
H1799 C1807 0.930 . S
H1800 C1810 0.930 1_554 S
H1801 C1811 0.930 . S
C1802 H1796 0.930 . S
C1802 C1803 1.355 . S
C1802 C1804 1.415 . S
C1803 C1802 1.355 . S
C1803 C1805 1.419 . S
C1804 C1802 1.415 . S
C1804 C1809 1.425 . S
C1804 C1811 1.409 . S
C1805 H1797 0.930 . S
C1805 C1803 1.419 . S
C1805 C1806 1.362 . S
C1806 H1798 0.930 . S
C1806 C1805 1.362 . S
C1806 C1809 1.409 . S
C1807 H1799 0.930 . S
C1807 C1808 1.355 . S
C1807 C1809 1.415 . S
C1808 C1807 1.355 . S
C1808 C1810 1.419 . S
C1809 C1804 1.425 . S
C1809 C1806 1.409 . S
C1809 C1807 1.415 . S
C1810 H1800 0.930 1_556 S
C1810 C1808 1.419 . S
C1810 C1811 1.362 . S
C1811 H1801 0.930 . S
C1811 C1804 1.409 . S
C1811 C1810 1.362 . S
H1812 C1818 0.930 . S
H1813 C1821 0.930 . S
H1814 C1822 0.930 . S
H1815 C1823 0.930 . S
H1816 C1826 0.930 . S
H1817 C1827 0.930 . S
C1818 H1812 0.930 . S
C1818 C1819 1.355 . S
C1818 C1820 1.415 . S
C1819 C1818 1.355 . S
C1819 C1821 1.419 . S
C1820 C1818 1.415 . S
C1820 C1825 1.425 . S
C1820 C1827 1.409 . S
C1821 H1813 0.930 . S
C1821 C1819 1.419 . S
C1821 C1822 1.362 . S
C1822 H1814 0.930 . S
C1822 C1821 1.362 . S
C1822 C1825 1.409 . S
C1823 H1815 0.930 . S
C1823 C1824 1.355 . S
C1823 C1825 1.415 . S
C1824 C1823 1.355 . S
C1824 C1826 1.419 . S
C1825 C1820 1.425 . S
C1825 C1822 1.409 . S
C1825 C1823 1.415 . S
C1826 H1816 0.930 . S
C1826 C1824 1.419 . S
C1826 C1827 1.362 . S
C1827 H1817 0.930 . S
C1827 C1820 1.409 . S
C1827 C1826 1.362 . S
H1828 C1834 0.930 . S
H1829 C1837 0.930 . S
H1830 C1838 0.930 . S
H1831 C1839 0.930 . S
H1832 C1842 0.930 . S
H1833 C1843 0.930 . S
C1834 H1828 0.930 . S
C1834 C1835 1.355 . S
C1834 C1836 1.415 . S
C1835 C1834 1.355 . S
C1835 C1837 1.419 . S
C1836 C1834 1.415 . S
C1836 C1841 1.425 . S
C1836 C1843 1.409 . S
C1837 H1829 0.930 . S
C1837 C1835 1.419 . S
C1837 C1838 1.362 . S
C1838 H1830 0.930 . S
C1838 C1837 1.362 . S
C1838 C1841 1.409 . S
C1839 H1831 0.930 . S
C1839 C1840 1.355 . S
C1839 C1841 1.415 . S
C1840 C1839 1.355 . S
C1840 C1842 1.419 . S
C1841 C1836 1.425 . S
C1841 C1838 1.409 . S
C1841 C1839 1.415 . S
C1842 H1832 0.930 . S
C1842 C1840 1.419 . S
C1842 C1843 1.362 . S
C1843 H1833 0.930 . S
C1843 C1836 1.409 . S
C1843 C1842 1.362 . S
H1844 C1850 0.930 . S
H1845 C1853 0.930 . S
H1846 C1854 0.930 . S
H1847 C1855 0.930 . S
H1848 C1858 0.930 . S
H1849 C1859 0.930 . S
C1850 H1844 0.930 . S
C1850 C1851 1.355 . S
C1850 C1852 1.415 . S
C1851 C1850 1.355 . S
C1851 C1853 1.419 . S
C1852 C1850 1.415 . S
C1852 C1857 1.425 . S
C1852 C1859 1.409 . S
C1853 H1845 0.930 . S
C1853 C1851 1.419 . S
C1853 C1854 1.362 . S
C1854 H1846 0.930 . S
C1854 C1853 1.362 . S
C1854 C1857 1.409 . S
C1855 H1847 0.930 . S
C1855 C1856 1.355 . S
C1855 C1857 1.415 . S
C1856 C1855 1.355 . S
C1856 C1858 1.419 . S
C1857 C1852 1.425 . S
C1857 C1854 1.409 . S
C1857 C1855 1.415 . S
C1858 H1848 0.930 . S
C1858 C1856 1.419 . S
C1858 C1859 1.362 . S
C1859 H1849 0.930 . S
C1859 C1852 1.409 . S
C1859 C1858 1.362 . S
H1860 C1866 0.930 . S
H1861 C1869 0.930 . S
H1862 C1870 0.930 . S
H1863 C1871 0.930 . S
H1864 C1874 0.930 1_556 S
H1865 C1875 0.930 . S
C1866 H1860 0.930 . S
C1866 C1867 1.355 . S
C1866 C1868 1.415 . S
C1867 C1866 1.355 . S
C1867 C1869 1.419 . S
C1868 C1866 1.415 . S
C1868 C1873 1.425 . S
C1868 C1875 1.409 . S
C1869 H1861 0.930 . S
C1869 C1867 1.419 . S
C1869 C1870 1.362 . S
C1870 H1862 0.930 . S
C1870 C1869 1.362 . S
C1870 C1873 1.409 . S
C1871 H1863 0.930 . S
C1871 C1872 1.355 . S
C1871 C1873 1.415 . S
C1872 C1871 1.355 . S
C1872 C1874 1.419 . S
C1873 C1868 1.425 . S
C1873 C1870 1.409 . S
C1873 C1871 1.415 . S
C1874 H1864 0.930 1_554 S
C1874 C1872 1.419 . S
C1874 C1875 1.362 . S
C1875 H1865 0.930 . S
C1875 C1868 1.409 . S
C1875 C1874 1.362 . S
H1876 C1882 0.930 . S
H1877 C1885 0.930 . S
H1878 C1886 0.930 . S
H1879 C1887 0.930 . S
H1880 C1890 0.931 . S
H1881 C1891 0.930 . S
C1882 H1876 0.930 . S
C1882 C1883 1.355 . S
C1882 C1884 1.415 . S
C1883 C1882 1.355 . S
C1883 C1885 1.419 . S
C1884 C1882 1.415 . S
C1884 C1889 1.425 . S
C1884 C1891 1.409 . S
C1885 H1877 0.930 . S
C1885 C1883 1.419 . S
C1885 C1886 1.362 . S
C1886 H1878 0.930 . S
C1886 C1885 1.362 . S
C1886 C1889 1.409 . S
C1887 H1879 0.930 . S
C1887 C1888 1.355 . S
C1887 C1889 1.415 . S
C1888 C1887 1.355 . S
C1888 C1890 1.419 1_554 S
C1889 C1884 1.425 . S
C1889 C1886 1.409 . S
C1889 C1887 1.415 . S
C1890 H1880 0.931 . S
C1890 C1888 1.419 1_556 S
C1890 C1891 1.362 1_556 S
C1891 H1881 0.930 . S
C1891 C1884 1.409 . S
C1891 C1890 1.362 1_554 S
H1892 C1898 0.930 . S
H1893 C1901 0.930 . S
H1894 C1902 0.930 . S
H1895 C1903 0.930 . S
H1896 C1906 0.930 . S
H1897 C1907 0.930 . S
C1898 H1892 0.930 . S
C1898 C1899 1.355 . S
C1898 C1900 1.415 . S
C1899 C1898 1.355 . S
C1899 C1901 1.419 . S
C1900 C1898 1.415 . S
C1900 C1905 1.425 . S
C1900 C1907 1.409 . S
C1901 H1893 0.930 . S
C1901 C1899 1.419 . S
C1901 C1902 1.362 . S
C1902 H1894 0.930 . S
C1902 C1901 1.362 . S
C1902 C1905 1.409 . S
C1903 H1895 0.930 . S
C1903 C1904 1.355 . S
C1903 C1905 1.415 . S
C1904 C1903 1.355 . S
C1904 C1906 1.419 . S
C1905 C1900 1.425 . S
C1905 C1902 1.409 . S
C1905 C1903 1.415 . S
C1906 H1896 0.930 . S
C1906 C1904 1.419 . S
C1906 C1907 1.362 . S
C1907 H1897 0.930 . S
C1907 C1900 1.409 . S
C1907 C1906 1.362 . S
H1908 C1914 0.930 . S
H1909 C1917 0.930 . S
H1910 C1918 0.930 . S
H1911 C1919 0.930 . S
H1912 C1922 0.930 . S
H1913 C1923 0.930 . S
C1914 H1908 0.930 . S
C1914 C1915 1.355 . S
C1914 C1916 1.415 . S
C1915 C1914 1.355 . S
C1915 C1917 1.419 . S
C1916 C1914 1.415 . S
C1916 C1921 1.425 . S
C1916 C1923 1.409 . S
C1917 H1909 0.930 . S
C1917 C1915 1.419 . S
C1917 C1918 1.362 . S
C1918 H1910 0.930 . S
C1918 C1917 1.362 . S
C1918 C1921 1.409 . S
C1919 H1911 0.930 . S
C1919 C1920 1.355 . S
C1919 C1921 1.415 . S
C1920 C1919 1.355 . S
C1920 C1922 1.419 . S
C1921 C1916 1.425 . S
C1921 C1918 1.409 . S
C1921 C1919 1.415 . S
C1922 H1912 0.930 . S
C1922 C1920 1.419 . S
C1922 C1923 1.362 . S
C1923 H1913 0.930 . S
C1923 C1916 1.409 . S
C1923 C1922 1.362 . S
H1924 C1930 0.930 . S
H1925 C1933 0.930 . S
H1926 C1934 0.930 . S
H1927 C1935 0.930 . S
H1928 C1938 0.930 . S
H1929 C1939 0.930 . S
C1930 H1924 0.930 . S
C1930 C1931 1.355 . S
C1930 C1932 1.415 . S
C1931 C1930 1.355 . S
C1931 C1933 1.419 . S
C1932 C1930 1.415 . S
C1932 C1937 1.425 . S
C1932 C1939 1.409 . S
C1933 H1925 0.930 . S
C1933 C1931 1.419 . S
C1933 C1934 1.362 . S
C1934 H1926 0.930 . S
C1934 C1933 1.362 . S
C1934 C1937 1.409 . S
C1935 H1927 0.930 . S
C1935 C1936 1.355 . S
C1935 C1937 1.415 . S
C1936 C1935 1.355 . S
C1936 C1938 1.419 . S
C1937 C1932 1.425 . S
C1937 C1934 1.409 . S
C1937 C1935 1.415 . S
C1938 H1928 0.930 . S
C1938 C1936 1.419 . S
C1938 C1939 1.362 . S
C1939 H1929 0.930 . S
C1939 C1932 1.409 . S
C1939 C1938 1.362 . S
H1940 C1946 0.930 . S
H1941 C1949 0.930 . S
H1942 C1950 0.930 . S
H1943 C1951 0.930 . S
H1944 C1954 0.930 . S
H1945 C1955 0.930 . S
C1946 H1940 0.930 . S
C1946 C1947 1.355 . S
C1946 C1948 1.415 . S
C1947 C1946 1.355 . S
C1947 C1949 1.419 . S
C1948 C1946 1.415 . S
C1948 C1953 1.425 . S
C1948 C1955 1.409 . S
C1949 H1941 0.930 . S
C1949 C1947 1.419 . S
C1949 C1950 1.362 . S
C1950 H1942 0.930 . S
C1950 C1949 1.362 . S
C1950 C1953 1.409 . S
C1951 H1943 0.930 . S
C1951 C1952 1.355 . S
C1951 C1953 1.415 . S
C1952 C1951 1.355 . S
C1952 C1954 1.419 . S
C1953 C1948 1.425 . S
C1953 C1950 1.409 . S
C1953 C1951 1.415 . S
C1954 H1944 0.930 . S
C1954 C1952 1.419 . S
C1954 C1955 1.362 . S
C1955 H1945 0.930 . S
C1955 C1948 1.409 . S
C1955 C1954 1.362 . S
H1956 C1962 0.930 . S
H1957 C1965 0.930 . S
H1958 C1966 0.930 . S
H1959 C1967 0.930 . S
H1960 C1970 0.930 . S
H1961 C1971 0.930 . S
C1962 H1956 0.930 . S
C1962 C1963 1.355 . S
C1962 C1964 1.415 . S
C1963 C1962 1.355 . S
C1963 C1965 1.419 . S
C1964 C1962 1.415 . S
C1964 C1969 1.425 . S
C1964 C1971 1.409 . S
C1965 H1957 0.930 . S
C1965 C1963 1.419 . S
C1965 C1966 1.362 . S
C1966 H1958 0.930 . S
C1966 C1965 1.362 . S
C1966 C1969 1.409 . S
C1967 H1959 0.930 . S
C1967 C1968 1.355 . S
C1967 C1969 1.415 . S
C1968 C1967 1.355 . S
C1968 C1970 1.419 . S
C1969 C1964 1.425 . S
C1969 C1966 1.409 . S
C1969 C1967 1.415 . S
C1970 H1960 0.930 . S
C1970 C1968 1.419 . S
C1970 C1971 1.362 . S
C1971 H1961 0.930 . S
C1971 C1964 1.409 . S
C1971 C1970 1.362 . S
H1972 C1978 0.930 . S
H1973 C1981 0.930 . S
H1974 C1982 0.930 . S
H1975 C1983 0.930 . S
H1976 C1986 0.930 . S
H1977 C1987 0.930 . S
C1978 H1972 0.930 . S
C1978 C1979 1.355 . S
C1978 C1980 1.415 . S
C1979 C1978 1.355 . S
C1979 C1981 1.419 . S
C1980 C1978 1.415 . S
C1980 C1985 1.425 . S
C1980 C1987 1.409 . S
C1981 H1973 0.930 . S
C1981 C1979 1.419 . S
C1981 C1982 1.362 . S
C1982 H1974 0.930 . S
C1982 C1981 1.362 . S
C1982 C1985 1.409 . S
C1983 H1975 0.930 . S
C1983 C1984 1.355 . S
C1983 C1985 1.415 . S
C1984 C1983 1.355 . S
C1984 C1986 1.419 . S
C1985 C1980 1.425 . S
C1985 C1982 1.409 . S
C1985 C1983 1.415 . S
C1986 H1976 0.930 . S
C1986 C1984 1.419 . S
C1986 C1987 1.362 . S
C1987 H1977 0.930 . S
C1987 C1980 1.409 . S
C1987 C1986 1.362 . S
H1988 C1994 0.930 . S
H1989 C1997 0.930 . S
H1990 C1998 0.930 . S
H1991 C1999 0.930 . S
H1992 C2002 0.930 . S
H1993 C2003 0.930 . S
C1994 H1988 0.930 . S
C1994 C1995 1.355 . S
C1994 C1996 1.415 . S
C1995 C1994 1.355 . S
C1995 C1997 1.419 . S
C1996 C1994 1.415 . S
C1996 C2001 1.425 . S
C1996 C2003 1.409 . S
C1997 H1989 0.930 . S
C1997 C1995 1.419 . S
C1997 C1998 1.362 . S
C1998 H1990 0.930 . S
C1998 C1997 1.362 . S
C1998 C2001 1.409 . S
C1999 H1991 0.930 . S
C1999 C2000 1.355 . S
C1999 C2001 1.415 . S
C2000 C1999 1.355 . S
C2000 C2002 1.419 . S
C2001 C1996 1.425 . S
C2001 C1998 1.409 . S
C2001 C1999 1.415 . S
C2002 H1992 0.930 . S
C2002 C2000 1.419 . S
C2002 C2003 1.362 . S
C2003 H1993 0.930 . S
C2003 C1996 1.409 . S
C2003 C2002 1.362 . S
H2004 C2010 0.930 . S
H2005 C2013 0.930 . S
H2006 C2014 0.930 . S
H2007 C2015 0.930 . S
H2008 C2018 0.930 . S
H2009 C2019 0.930 . S
C2010 H2004 0.930 . S
C2010 C2011 1.355 . S
C2010 C2012 1.415 . S
C2011 C2010 1.355 . S
C2011 C2013 1.419 . S
C2012 C2010 1.415 . S
C2012 C2017 1.425 . S
C2012 C2019 1.409 . S
C2013 H2005 0.930 . S
C2013 C2011 1.419 . S
C2013 C2014 1.362 . S
C2014 H2006 0.930 . S
C2014 C2013 1.362 . S
C2014 C2017 1.409 . S
C2015 H2007 0.930 . S
C2015 C2016 1.355 1_556 S
C2015 C2017 1.415 . S
C2016 C2015 1.355 1_554 S
C2016 C2018 1.419 . S
C2017 C2012 1.425 . S
C2017 C2014 1.409 . S
C2017 C2015 1.415 . S
C2018 H2008 0.930 . S
C2018 C2016 1.419 . S
C2018 C2019 1.362 1_554 S
C2019 H2009 0.930 . S
C2019 C2012 1.409 . S
C2019 C2018 1.362 1_556 S
H2020 C2026 0.930 . S
H2021 C2029 0.930 . S
H2022 C2030 0.930 . S
H2023 C2031 0.930 1_554 S
H2024 C2034 0.932 . S
H2025 C2035 0.930 . S
C2026 H2020 0.930 . S
C2026 C2027 1.355 . S
C2026 C2028 1.415 . S
C2027 C2026 1.355 . S
C2027 C2029 1.419 . S
C2028 C2026 1.415 . S
C2028 C2033 1.425 . S
C2028 C2035 1.409 . S
C2029 H2021 0.930 . S
C2029 C2027 1.419 . S
C2029 C2030 1.362 . S
C2030 H2022 0.930 . S
C2030 C2029 1.362 . S
C2030 C2033 1.409 . S
C2031 H2023 0.930 1_556 S
C2031 C2032 1.355 1_556 S
C2031 C2033 1.415 . S
C2032 C2031 1.355 1_554 S
C2032 C2034 1.419 1_554 S
C2033 C2028 1.425 . S
C2033 C2030 1.409 . S
C2033 C2031 1.415 . S
C2034 H2024 0.932 . S
C2034 C2032 1.419 1_556 S
C2034 C2035 1.362 . S
C2035 H2025 0.930 . S
C2035 C2028 1.409 . S
C2035 C2034 1.362 . S
H2036 C2042 0.930 . S
H2037 C2045 0.930 . S
H2038 C2046 0.930 . S
H2039 C2047 0.920 1_554 S
H2040 C2050 0.930 . S
H2041 C2051 0.930 . S
C2042 H2036 0.930 . S
C2042 C2043 1.355 . S
C2042 C2044 1.415 . S
C2043 C2042 1.355 . S
C2043 C2045 1.419 . S
C2044 C2042 1.415 . S
C2044 C2049 1.425 . S
C2044 C2051 1.409 . S
C2045 H2037 0.930 . S
C2045 C2043 1.419 . S
C2045 C2046 1.362 . S
C2046 H2038 0.930 . S
C2046 C2045 1.362 . S
C2046 C2049 1.409 . S
C2047 H2039 0.920 1_556 S
C2047 C2048 1.350 1_556 S
C2047 C2049 1.429 . S
C2048 C2047 1.350 1_554 S
C2048 C2050 1.419 1_554 S
C2049 C2044 1.425 . S
C2049 C2046 1.409 . S
C2049 C2047 1.429 . S
C2050 H2040 0.930 . S
C2050 C2048 1.419 1_556 S
C2050 C2051 1.362 . S
C2051 H2041 0.930 . S
C2051 C2044 1.409 . S
C2051 C2050 1.362 . S
H2052 C2058 0.930 . S
H2053 C2061 0.930 . S
H2054 C2062 0.930 . S
H2055 C2063 0.930 . S
H2056 C2066 0.930 . S
H2057 C2067 0.930 . S
C2058 H2052 0.930 . S
C2058 C2059 1.355 . S
C2058 C2060 1.415 . S
C2059 C2058 1.355 . S
C2059 C2061 1.419 . S
C2060 C2058 1.415 . S
C2060 C2065 1.425 . S
C2060 C2067 1.409 . S
C2061 H2053 0.930 . S
C2061 C2059 1.419 . S
C2061 C2062 1.362 . S
C2062 H2054 0.930 . S
C2062 C2061 1.362 . S
C2062 C2065 1.409 . S
C2063 H2055 0.930 . S
C2063 C2064 1.355 . S
C2063 C2065 1.415 . S
C2064 C2063 1.355 . S
C2064 C2066 1.419 . S
C2065 C2060 1.425 . S
C2065 C2062 1.409 . S
C2065 C2063 1.415 . S
C2066 H2056 0.930 . S
C2066 C2064 1.419 . S
C2066 C2067 1.362 . S
C2067 H2057 0.930 . S
C2067 C2060 1.409 . S
C2067 C2066 1.362 . S
H2068 C2074 0.930 . S
H2069 C2077 0.930 . S
H2070 C2078 0.930 . S
H2071 C2079 0.930 . S
H2072 C2082 0.930 . S
H2073 C2083 0.930 . S
C2074 H2068 0.930 . S
C2074 C2075 1.355 . S
C2074 C2076 1.415 . S
C2075 C2074 1.355 . S
C2075 C2077 1.419 . S
C2076 C2074 1.415 . S
C2076 C2081 1.425 . S
C2076 C2083 1.409 . S
C2077 H2069 0.930 . S
C2077 C2075 1.419 . S
C2077 C2078 1.362 . S
C2078 H2070 0.930 . S
C2078 C2077 1.362 . S
C2078 C2081 1.409 . S
C2079 H2071 0.930 . S
C2079 C2080 1.355 . S
C2079 C2081 1.415 . S
C2080 C2079 1.355 . S
C2080 C2082 1.419 . S
C2081 C2076 1.425 . S
C2081 C2078 1.409 . S
C2081 C2079 1.415 . S
C2082 H2072 0.930 . S
C2082 C2080 1.419 . S
C2082 C2083 1.362 . S
C2083 H2073 0.930 . S
C2083 C2076 1.409 . S
C2083 C2082 1.362 . S
H2084 C2090 0.930 . S
H2085 C2093 0.930 . S
H2086 C2094 0.930 . S
H2087 C2095 0.930 . S
H2088 C2098 0.930 . S
H2089 C2099 0.930 . S
C2090 H2084 0.930 . S
C2090 C2091 1.355 . S
C2090 C2092 1.415 . S
C2091 C2090 1.355 . S
C2091 C2093 1.419 . S
C2092 C2090 1.415 . S
C2092 C2097 1.425 . S
C2092 C2099 1.409 . S
C2093 H2085 0.930 . S
C2093 C2091 1.419 . S
C2093 C2094 1.362 . S
C2094 H2086 0.930 . S
C2094 C2093 1.362 . S
C2094 C2097 1.409 . S
C2095 H2087 0.930 . S
C2095 C2096 1.355 . S
C2095 C2097 1.415 . S
C2096 C2095 1.355 . S
C2096 C2098 1.419 . S
C2097 C2092 1.425 . S
C2097 C2094 1.409 . S
C2097 C2095 1.415 . S
C2098 H2088 0.930 . S
C2098 C2096 1.419 . S
C2098 C2099 1.362 . S
C2099 H2089 0.930 . S
C2099 C2092 1.409 . S
C2099 C2098 1.362 . S
H2100 C2106 0.930 . S
H2101 C2109 0.930 . S
H2102 C2110 0.930 . S
H2103 C2111 0.930 . S
H2104 C2114 0.930 . S
H2105 C2115 0.930 . S
C2106 H2100 0.930 . S
C2106 C2107 1.355 . S
C2106 C2108 1.415 . S
C2107 C2106 1.355 . S
C2107 C2109 1.419 . S
C2108 C2106 1.415 . S
C2108 C2113 1.425 . S
C2108 C2115 1.409 . S
C2109 H2101 0.930 . S
C2109 C2107 1.419 . S
C2109 C2110 1.362 . S
C2110 H2102 0.930 . S
C2110 C2109 1.362 . S
C2110 C2113 1.409 . S
C2111 H2103 0.930 . S
C2111 C2112 1.355 . S
C2111 C2113 1.415 . S
C2112 C2111 1.355 . S
C2112 C2114 1.419 . S
C2113 C2108 1.425 . S
C2113 C2110 1.409 . S
C2113 C2111 1.415 . S
C2114 H2104 0.930 . S
C2114 C2112 1.419 . S
C2114 C2115 1.362 . S
C2115 H2105 0.930 . S
C2115 C2108 1.409 . S
C2115 C2114 1.362 . S
H2116 C2122 0.930 . S
H2117 C2125 0.930 . S
H2118 C2126 0.930 . S
H2119 C2127 0.930 . S
H2120 C2130 0.930 . S
H2121 C2131 0.930 . S
C2122 H2116 0.930 . S
C2122 C2123 1.355 . S
C2122 C2124 1.415 . S
C2123 C2122 1.355 . S
C2123 C2125 1.419 . S
C2124 C2122 1.415 . S
C2124 C2129 1.425 . S
C2124 C2131 1.409 . S
C2125 H2117 0.930 . S
C2125 C2123 1.419 . S
C2125 C2126 1.362 . S
C2126 H2118 0.930 . S
C2126 C2125 1.362 . S
C2126 C2129 1.409 . S
C2127 H2119 0.930 . S
C2127 C2128 1.355 . S
C2127 C2129 1.415 . S
C2128 C2127 1.355 . S
C2128 C2130 1.419 . S
C2129 C2124 1.425 . S
C2129 C2126 1.409 . S
C2129 C2127 1.415 . S
C2130 H2120 0.930 . S
C2130 C2128 1.419 . S
C2130 C2131 1.362 . S
C2131 H2121 0.930 . S
C2131 C2124 1.409 . S
C2131 C2130 1.362 . S
H2132 C2138 0.930 . S
H2133 C2141 0.930 . S
H2134 C2142 0.930 . S
H2135 C2143 0.930 . S
H2136 C2146 0.930 . S
H2137 C2147 0.930 . S
C2138 H2132 0.930 . S
C2138 C2139 1.355 . S
C2138 C2140 1.415 . S
C2139 C2138 1.355 . S
C2139 C2141 1.419 . S
C2140 C2138 1.415 . S
C2140 C2145 1.425 . S
C2140 C2147 1.409 . S
C2141 H2133 0.930 . S
C2141 C2139 1.419 . S
C2141 C2142 1.362 . S
C2142 H2134 0.930 . S
C2142 C2141 1.362 . S
C2142 C2145 1.409 . S
C2143 H2135 0.930 . S
C2143 C2144 1.355 . S
C2143 C2145 1.415 . S
C2144 C2143 1.355 . S
C2144 C2146 1.419 . S
C2145 C2140 1.425 . S
C2145 C2142 1.409 . S
C2145 C2143 1.415 . S
C2146 H2136 0.930 . S
C2146 C2144 1.419 . S
C2146 C2147 1.362 . S
C2147 H2137 0.930 . S
C2147 C2140 1.409 . S
C2147 C2146 1.362 . S
H2148 C2154 0.930 . S
H2149 C2157 0.930 . S
H2150 C2158 0.930 . S
H2151 C2159 0.930 . S
H2152 C2162 0.930 . S
H2153 C2163 0.930 . S
C2154 H2148 0.930 . S
C2154 C2155 1.355 . S
C2154 C2156 1.415 . S
C2155 C2154 1.355 . S
C2155 C2157 1.419 . S
C2156 C2154 1.415 . S
C2156 C2161 1.425 . S
C2156 C2163 1.409 . S
C2157 H2149 0.930 . S
C2157 C2155 1.419 . S
C2157 C2158 1.362 . S
C2158 H2150 0.930 . S
C2158 C2157 1.362 . S
C2158 C2161 1.409 . S
C2159 H2151 0.930 . S
C2159 C2160 1.355 . S
C2159 C2161 1.415 . S
C2160 C2159 1.355 . S
C2160 C2162 1.419 . S
C2161 C2156 1.425 . S
C2161 C2158 1.409 . S
C2161 C2159 1.415 . S
C2162 H2152 0.930 . S
C2162 C2160 1.419 . S
C2162 C2163 1.362 . S
C2163 H2153 0.930 . S
C2163 C2156 1.409 . S
C2163 C2162 1.362 . S
H2164 C2170 0.930 . S
H2165 C2173 0.930 . S
H2166 C2174 0.930 . S
H2167 C2175 0.930 . S
H2168 C2178 0.930 . S
H2169 C2179 0.930 . S
C2170 H2164 0.930 . S
C2170 C2171 1.355 . S
C2170 C2172 1.415 . S
C2171 C2170 1.355 . S
C2171 C2173 1.419 . S
C2172 C2170 1.415 . S
C2172 C2177 1.425 . S
C2172 C2179 1.409 . S
C2173 H2165 0.930 . S
C2173 C2171 1.419 . S
C2173 C2174 1.362 . S
C2174 H2166 0.930 . S
C2174 C2173 1.362 . S
C2174 C2177 1.409 . S
C2175 H2167 0.930 . S
C2175 C2176 1.355 . S
C2175 C2177 1.415 . S
C2176 C2175 1.355 . S
C2176 C2178 1.419 . S
C2177 C2172 1.425 . S
C2177 C2174 1.409 . S
C2177 C2175 1.415 . S
C2178 H2168 0.930 . S
C2178 C2176 1.419 . S
C2178 C2179 1.362 . S
C2179 H2169 0.930 . S
C2179 C2172 1.409 . S
C2179 C2178 1.362 . S
H2180 C2186 0.930 . S
H2181 C2189 0.930 . S
H2182 C2190 0.930 . S
H2183 C2191 0.930 . S
H2184 C2194 0.930 . S
H2185 C2195 0.930 . S
C2186 H2180 0.930 . S
C2186 C2187 1.355 . S
C2186 C2188 1.415 . S
C2187 C2186 1.355 . S
C2187 C2189 1.419 . S
C2188 C2186 1.415 . S
C2188 C2193 1.425 . S
C2188 C2195 1.409 . S
C2189 H2181 0.930 . S
C2189 C2187 1.419 . S
C2189 C2190 1.362 . S
C2190 H2182 0.930 . S
C2190 C2189 1.362 . S
C2190 C2193 1.409 . S
C2191 H2183 0.930 . S
C2191 C2192 1.355 . S
C2191 C2193 1.415 . S
C2192 C2191 1.355 . S
C2192 C2194 1.419 . S
C2193 C2188 1.425 . S
C2193 C2190 1.409 . S
C2193 C2191 1.415 . S
C2194 H2184 0.930 . S
C2194 C2192 1.419 . S
C2194 C2195 1.362 . S
C2195 H2185 0.930 . S
C2195 C2188 1.409 . S
C2195 C2194 1.362 . S
H2196 C2202 0.930 . S
H2197 C2205 0.930 . S
H2198 C2206 0.930 . S
H2199 C2207 0.930 . S
H2200 C2210 0.930 . S
H2201 C2211 0.930 . S
C2202 H2196 0.930 . S
C2202 C2203 1.355 . S
C2202 C2204 1.415 . S
C2203 C2202 1.355 . S
C2203 C2205 1.419 . S
C2204 C2202 1.415 . S
C2204 C2209 1.425 . S
C2204 C2211 1.409 . S
C2205 H2197 0.930 . S
C2205 C2203 1.419 . S
C2205 C2206 1.362 . S
C2206 H2198 0.930 . S
C2206 C2205 1.362 . S
C2206 C2209 1.409 . S
C2207 H2199 0.930 . S
C2207 C2208 1.355 . S
C2207 C2209 1.415 . S
C2208 C2207 1.355 . S
C2208 C2210 1.419 . S
C2209 C2204 1.425 . S
C2209 C2206 1.409 . S
C2209 C2207 1.415 . S
C2210 H2200 0.930 . S
C2210 C2208 1.419 . S
C2210 C2211 1.362 . S
C2211 H2201 0.930 . S
C2211 C2204 1.409 . S
C2211 C2210 1.362 . S
H2212 C2218 0.930 . S
H2213 C2221 0.930 . S
H2214 C2222 0.930 . S
H2215 C2223 0.930 . S
H2216 C2226 0.930 . S
H2217 C2227 0.930 . S
C2218 H2212 0.930 . S
C2218 C2219 1.355 . S
C2218 C2220 1.415 . S
C2219 C2218 1.355 . S
C2219 C2221 1.419 . S
C2220 C2218 1.415 . S
C2220 C2225 1.425 . S
C2220 C2227 1.409 . S
C2221 H2213 0.930 . S
C2221 C2219 1.419 . S
C2221 C2222 1.362 . S
C2222 H2214 0.930 . S
C2222 C2221 1.362 . S
C2222 C2225 1.409 . S
C2223 H2215 0.930 . S
C2223 C2224 1.355 . S
C2223 C2225 1.415 . S
C2224 C2223 1.355 . S
C2224 C2226 1.419 . S
C2225 C2220 1.425 . S
C2225 C2222 1.409 . S
C2225 C2223 1.415 . S
C2226 H2216 0.930 . S
C2226 C2224 1.419 . S
C2226 C2227 1.362 . S
C2227 H2217 0.930 . S
C2227 C2220 1.409 . S
C2227 C2226 1.362 . S
H2228 C2234 0.930 . S
H2229 C2237 0.930 . S
H2230 C2238 0.930 . S
H2231 C2239 0.930 . S
H2232 C2242 0.930 . S
H2233 C2243 0.930 . S
C2234 H2228 0.930 . S
C2234 C2235 1.355 . S
C2234 C2236 1.415 . S
C2235 C2234 1.355 . S
C2235 C2237 1.419 . S
C2236 C2234 1.415 . S
C2236 C2241 1.425 . S
C2236 C2243 1.409 . S
C2237 H2229 0.930 . S
C2237 C2235 1.419 . S
C2237 C2238 1.362 . S
C2238 H2230 0.930 . S
C2238 C2237 1.362 . S
C2238 C2241 1.409 . S
C2239 H2231 0.930 . S
C2239 C2240 1.355 . S
C2239 C2241 1.415 . S
C2240 C2239 1.355 . S
C2240 C2242 1.419 . S
C2241 C2236 1.425 . S
C2241 C2238 1.409 . S
C2241 C2239 1.415 . S
C2242 H2232 0.930 . S
C2242 C2240 1.419 . S
C2242 C2243 1.362 . S
C2243 H2233 0.930 . S
C2243 C2236 1.409 . S
C2243 C2242 1.362 . S
H2244 C2250 0.930 . S
H2245 C2253 0.930 . S
H2246 C2254 0.930 . S
H2247 C2255 0.930 . S
H2248 C2258 0.930 . S
H2249 C2259 0.930 . S
C2250 H2244 0.930 . S
C2250 C2251 1.355 . S
C2250 C2252 1.415 . S
C2251 C2250 1.355 . S
C2251 C2253 1.419 . S
C2252 C2250 1.415 . S
C2252 C2257 1.425 . S
C2252 C2259 1.409 . S
C2253 H2245 0.930 . S
C2253 C2251 1.419 . S
C2253 C2254 1.362 . S
C2254 H2246 0.930 . S
C2254 C2253 1.362 . S
C2254 C2257 1.409 . S
C2255 H2247 0.930 . S
C2255 C2256 1.355 . S
C2255 C2257 1.415 . S
C2256 C2255 1.355 . S
C2256 C2258 1.419 . S
C2257 C2252 1.425 . S
C2257 C2254 1.409 . S
C2257 C2255 1.415 . S
C2258 H2248 0.930 . S
C2258 C2256 1.419 . S
C2258 C2259 1.362 . S
C2259 H2249 0.930 . S
C2259 C2252 1.409 . S
C2259 C2258 1.362 . S
H2260 C2266 0.930 . S
H2261 C2269 0.930 . S
H2262 C2270 0.930 . S
H2263 C2271 0.930 . S
H2264 C2274 0.930 . S
H2265 C2275 0.930 . S
C2266 H2260 0.930 . S
C2266 C2267 1.355 . S
C2266 C2268 1.415 . S
C2267 C2266 1.355 . S
C2267 C2269 1.419 . S
C2268 C2266 1.415 . S
C2268 C2273 1.425 . S
C2268 C2275 1.409 . S
C2269 H2261 0.930 . S
C2269 C2267 1.419 . S
C2269 C2270 1.362 . S
C2270 H2262 0.930 . S
C2270 C2269 1.362 . S
C2270 C2273 1.409 . S
C2271 H2263 0.930 . S
C2271 C2272 1.355 . S
C2271 C2273 1.415 . S
C2272 C2271 1.355 . S
C2272 C2274 1.419 . S
C2273 C2268 1.425 . S
C2273 C2270 1.409 . S
C2273 C2271 1.415 . S
C2274 H2264 0.930 . S
C2274 C2272 1.419 . S
C2274 C2275 1.362 . S
C2275 H2265 0.930 . S
C2275 C2268 1.409 . S
C2275 C2274 1.362 . S
H2276 C2282 0.930 . S
H2277 C2285 0.930 . S
H2278 C2286 0.930 . S
H2279 C2287 0.930 . S
H2280 C2290 0.930 . S
H2281 C2291 0.930 . S
C2282 H2276 0.930 . S
C2282 C2283 1.355 . S
C2282 C2284 1.415 . S
C2283 C2282 1.355 . S
C2283 C2285 1.419 . S
C2284 C2282 1.415 . S
C2284 C2289 1.425 . S
C2284 C2291 1.409 . S
C2285 H2277 0.930 . S
C2285 C2283 1.419 . S
C2285 C2286 1.362 . S
C2286 H2278 0.930 . S
C2286 C2285 1.362 . S
C2286 C2289 1.409 . S
C2287 H2279 0.930 . S
C2287 C2288 1.355 . S
C2287 C2289 1.415 . S
C2288 C2287 1.355 . S
C2288 C2290 1.419 . S
C2289 C2284 1.425 . S
C2289 C2286 1.409 . S
C2289 C2287 1.415 . S
C2290 H2280 0.930 . S
C2290 C2288 1.419 . S
C2290 C2291 1.362 . S
C2291 H2281 0.930 . S
C2291 C2284 1.409 . S
C2291 C2290 1.362 . S
H2292 C2298 0.930 . S
H2293 C2301 0.930 . S
H2294 C2302 0.930 . S
H2295 C2303 0.930 . S
H2296 C2306 0.926 1_556 S
H2297 C2307 0.930 . S
C2298 H2292 0.930 . S
C2298 C2299 1.355 . S
C2298 C2300 1.415 . S
C2299 C2298 1.355 . S
C2299 C2301 1.419 . S
C2300 C2298 1.415 . S
C2300 C2305 1.425 . S
C2300 C2307 1.409 . S
C2301 H2293 0.930 . S
C2301 C2299 1.419 . S
C2301 C2302 1.362 . S
C2302 H2294 0.930 . S
C2302 C2301 1.362 . S
C2302 C2305 1.409 . S
C2303 H2295 0.930 . S
C2303 C2304 1.355 1_554 S
C2303 C2305 1.415 . S
C2304 C2303 1.355 1_556 S
C2304 C2306 1.417 1_556 S
C2305 C2300 1.425 . S
C2305 C2302 1.409 . S
C2305 C2303 1.415 . S
C2306 H2296 0.926 1_554 S
C2306 C2304 1.417 1_554 S
C2306 C2307 1.368 . S
C2307 H2297 0.930 . S
C2307 C2300 1.409 . S
C2307 C2306 1.368 . S
H2308 C2314 0.930 . S
H2309 C2317 0.930 . S
H2310 C2318 0.930 . S
H2311 C2319 0.930 . S
H2312 C2322 0.930 . S
H2313 C2323 0.930 . S
C2314 H2308 0.930 . S
C2314 C2315 1.355 1_554 S
C2314 C2316 1.415 . S
C2315 C2314 1.355 1_556 S
C2315 C2317 1.419 . S
C2316 C2314 1.415 . S
C2316 C2321 1.425 . S
C2316 C2323 1.409 . S
C2317 H2309 0.930 . S
C2317 C2315 1.419 . S
C2317 C2318 1.362 1_556 S
C2318 H2310 0.930 . S
C2318 C2317 1.362 1_554 S
C2318 C2321 1.409 . S
C2319 H2311 0.930 . S
C2319 C2320 1.355 . S
C2319 C2321 1.415 . S
C2320 C2319 1.355 . S
C2320 C2322 1.419 . S
C2321 C2316 1.425 . S
C2321 C2318 1.409 . S
C2321 C2319 1.415 . S
C2322 H2312 0.930 . S
C2322 C2320 1.419 . S
C2322 C2323 1.362 . S
C2323 H2313 0.930 . S
C2323 C2316 1.409 . S
C2323 C2322 1.362 . S
H2324 C2330 0.930 . S
H2325 C2333 0.930 . S
H2326 C2334 0.930 . S
H2327 C2335 0.930 . S
H2328 C2338 0.930 . S
H2329 C2339 0.930 . S
C2330 H2324 0.930 . S
C2330 C2331 1.355 1_554 S
C2330 C2332 1.415 . S
C2331 C2330 1.355 1_556 S
C2331 C2333 1.419 . S
C2332 C2330 1.415 . S
C2332 C2337 1.425 . S
C2332 C2339 1.409 . S
C2333 H2325 0.930 . S
C2333 C2331 1.419 . S
C2333 C2334 1.362 1_556 S
C2334 H2326 0.930 . S
C2334 C2333 1.362 1_554 S
C2334 C2337 1.409 . S
C2335 H2327 0.930 . S
C2335 C2336 1.355 . S
C2335 C2337 1.415 . S
C2336 C2335 1.355 . S
C2336 C2338 1.419 . S
C2337 C2332 1.425 . S
C2337 C2334 1.409 . S
C2337 C2335 1.415 . S
C2338 H2328 0.930 . S
C2338 C2336 1.419 . S
C2338 C2339 1.362 . S
C2339 H2329 0.930 . S
C2339 C2332 1.409 . S
C2339 C2338 1.362 . S
H2340 C2346 0.930 . S
H2341 C2349 0.930 . S
H2342 C2350 0.930 . S
H2343 C2351 0.930 . S
H2344 C2354 0.930 . S
H2345 C2355 0.930 . S
C2346 H2340 0.930 . S
C2346 C2347 1.355 . S
C2346 C2348 1.415 1_565 S
C2347 C2346 1.355 . S
C2347 C2349 1.419 . S
C2348 C2346 1.415 1_545 S
C2348 C2353 1.425 1_545 S
C2348 C2355 1.409 . S
C2349 H2341 0.930 . S
C2349 C2347 1.419 . S
C2349 C2350 1.362 . S
C2350 H2342 0.930 . S
C2350 C2349 1.362 . S
C2350 C2353 1.409 . S
C2351 H2343 0.930 . S
C2351 C2352 1.355 . S
C2351 C2353 1.415 1_545 S
C2352 C2351 1.355 . S
C2352 C2354 1.419 . S
C2353 C2348 1.425 1_565 S
C2353 C2350 1.409 . S
C2353 C2351 1.415 1_565 S
C2354 H2344 0.930 . S
C2354 C2352 1.419 . S
C2354 C2355 1.362 . S
C2355 H2345 0.930 . S
C2355 C2348 1.409 . S
C2355 C2354 1.362 . S
H2356 C2362 0.930 . S
H2357 C2365 0.930 . S
H2358 C2366 0.936 1_455 S
H2359 C2367 0.930 . S
H2360 C2370 0.930 . S
H2361 C2371 0.936 1_655 S
C2362 H2356 0.930 . S
C2362 C2363 1.355 . S
C2362 C2364 1.415 . S
C2363 C2362 1.355 . S
C2363 C2365 1.419 . S
C2364 C2362 1.415 . S
C2364 C2369 1.425 1_655 S
C2364 C2371 1.409 1_655 S
C2365 H2357 0.930 . S
C2365 C2363 1.419 . S
C2365 C2366 1.362 . S
C2366 H2358 0.936 1_655 S
C2366 C2365 1.362 . S
C2366 C2369 1.409 1_655 S
C2367 H2359 0.930 . S
C2367 C2368 1.355 . S
C2367 C2369 1.415 . S
C2368 C2367 1.355 . S
C2368 C2370 1.419 . S
C2369 C2364 1.425 1_455 S
C2369 C2366 1.409 1_455 S
C2369 C2367 1.415 . S
C2370 H2360 0.930 . S
C2370 C2368 1.419 . S
C2370 C2371 1.362 . S
C2371 H2361 0.936 1_455 S
C2371 C2364 1.409 1_455 S
C2371 C2370 1.362 . S
H2372 C2378 0.930 . S
H2373 C2381 0.930 . S
H2374 C2382 0.930 . S
H2375 C2383 0.930 . S
H2376 C2386 0.930 . S
H2377 C2387 0.930 . S
C2378 H2372 0.930 . S
C2378 C2379 1.355 . S
C2378 C2380 1.415 . S
C2379 C2378 1.355 . S
C2379 C2381 1.419 . S
C2380 C2378 1.415 . S
C2380 C2385 1.425 . S
C2380 C2387 1.409 . S
C2381 H2373 0.930 . S
C2381 C2379 1.419 . S
C2381 C2382 1.362 . S
C2382 H2374 0.930 . S
C2382 C2381 1.362 . S
C2382 C2385 1.409 . S
C2383 H2375 0.930 . S
C2383 C2384 1.355 . S
C2383 C2385 1.415 . S
C2384 C2383 1.355 . S
C2384 C2386 1.419 . S
C2385 C2380 1.425 . S
C2385 C2382 1.409 . S
C2385 C2383 1.415 . S
C2386 H2376 0.930 . S
C2386 C2384 1.419 . S
C2386 C2387 1.362 . S
C2387 H2377 0.930 . S
C2387 C2380 1.409 . S
C2387 C2386 1.362 . S
H2388 C2394 0.930 . S
H2389 C2397 0.930 . S
H2390 C2398 0.974 . S
H2391 C2399 0.930 . S
H2392 C2402 0.930 . S
H2393 C2403 0.974 . S
C2394 H2388 0.930 . S
C2394 C2395 1.355 . S
C2394 C2396 1.415 . S
C2395 C2394 1.355 . S
C2395 C2397 1.419 . S
C2396 C2394 1.415 . S
C2396 C2401 1.425 1_545 S
C2396 C2403 1.409 1_545 S
C2397 H2389 0.930 . S
C2397 C2395 1.419 . S
C2397 C2398 1.362 . S
C2398 H2390 0.974 . S
C2398 C2397 1.362 . S
C2398 C2401 1.409 1_545 S
C2399 H2391 0.930 . S
C2399 C2400 1.355 . S
C2399 C2401 1.415 . S
C2400 C2399 1.355 . S
C2400 C2402 1.419 . S
C2401 C2396 1.425 1_565 S
C2401 C2398 1.409 1_565 S
C2401 C2399 1.415 . S
C2402 H2392 0.930 . S
C2402 C2400 1.419 . S
C2402 C2403 1.362 . S
C2403 H2393 0.974 . S
C2403 C2396 1.409 1_565 S
C2403 C2402 1.362 . S
H2404 C2410 0.930 . S
H2405 C2413 0.930 . S
H2406 C2414 0.930 . S
H2407 C2415 0.930 . S
H2408 C2418 0.930 . S
H2409 C2419 0.930 . S
C2410 H2404 0.930 . S
C2410 C2411 1.355 . S
C2410 C2412 1.389 1_655 S
C2411 C2410 1.355 . S
C2411 C2413 1.419 . S
C2412 C2410 1.389 1_455 S
C2412 C2417 1.445 1_455 S
C2412 C2419 1.426 . S
C2413 H2405 0.930 . S
C2413 C2411 1.419 . S
C2413 C2414 1.362 . S
C2414 H2406 0.930 . S
C2414 C2413 1.362 . S
C2414 C2417 1.426 . S
C2415 H2407 0.930 . S
C2415 C2416 1.355 . S
C2415 C2417 1.389 1_455 S
C2416 C2415 1.355 . S
C2416 C2418 1.419 . S
C2417 C2412 1.445 1_655 S
C2417 C2414 1.426 . S
C2417 C2415 1.389 1_655 S
C2418 H2408 0.930 . S
C2418 C2416 1.419 . S
C2418 C2419 1.362 . S
C2419 H2409 0.930 . S
C2419 C2412 1.426 . S
C2419 C2418 1.362 . S
H2420 C2426 0.930 . S
H2421 C2429 0.930 . S
H2422 C2430 0.930 . S
H2423 C2431 0.930 . S
H2424 C2434 0.930 . S
H2425 C2435 0.930 . S
C2426 H2420 0.930 . S
C2426 C2427 1.355 . S
C2426 C2428 1.415 . S
C2427 C2426 1.355 . S
C2427 C2429 1.419 . S
C2428 C2426 1.415 . S
C2428 C2433 1.425 . S
C2428 C2435 1.409 . S
C2429 H2421 0.930 . S
C2429 C2427 1.419 . S
C2429 C2430 1.362 . S
C2430 H2422 0.930 . S
C2430 C2429 1.362 . S
C2430 C2433 1.409 . S
C2431 H2423 0.930 . S
C2431 C2432 1.355 . S
C2431 C2433 1.415 . S
C2432 C2431 1.355 . S
C2432 C2434 1.419 . S
C2433 C2428 1.425 . S
C2433 C2430 1.409 . S
C2433 C2431 1.415 . S
C2434 H2424 0.930 . S
C2434 C2432 1.419 . S
C2434 C2435 1.362 . S
C2435 H2425 0.930 . S
C2435 C2428 1.409 . S
C2435 C2434 1.362 . S
H2436 C2442 0.930 . S
H2437 C2445 0.930 . S
H2438 C2446 0.930 . S
H2439 C2447 0.930 . S
H2440 C2450 0.930 . S
H2441 C2451 0.930 . S
C2442 H2436 0.930 . S
C2442 C2443 1.355 . S
C2442 C2444 1.415 . S
C2443 C2442 1.355 . S
C2443 C2445 1.419 . S
C2444 C2442 1.415 . S
C2444 C2449 1.425 . S
C2444 C2451 1.409 . S
C2445 H2437 0.930 . S
C2445 C2443 1.419 . S
C2445 C2446 1.362 . S
C2446 H2438 0.930 . S
C2446 C2445 1.362 . S
C2446 C2449 1.409 . S
C2447 H2439 0.930 . S
C2447 C2448 1.355 . S
C2447 C2449 1.415 . S
C2448 C2447 1.355 . S
C2448 C2450 1.419 . S
C2449 C2444 1.425 . S
C2449 C2446 1.409 . S
C2449 C2447 1.415 . S
C2450 H2440 0.930 . S
C2450 C2448 1.419 . S
C2450 C2451 1.362 . S
C2451 H2441 0.930 . S
C2451 C2444 1.409 . S
C2451 C2450 1.362 . S
H2452 C2458 0.930 . S
H2453 C2461 0.930 . S
H2454 C2462 0.930 . S
H2455 C2463 0.930 . S
H2456 C2466 0.930 . S
H2457 C2467 0.930 . S
C2458 H2452 0.930 . S
C2458 C2459 1.355 . S
C2458 C2460 1.415 . S
C2459 C2458 1.355 . S
C2459 C2461 1.419 . S
C2460 C2458 1.415 . S
C2460 C2465 1.425 . S
C2460 C2467 1.409 . S
C2461 H2453 0.930 . S
C2461 C2459 1.419 . S
C2461 C2462 1.362 . S
C2462 H2454 0.930 . S
C2462 C2461 1.362 . S
C2462 C2465 1.409 . S
C2463 H2455 0.930 . S
C2463 C2464 1.355 . S
C2463 C2465 1.415 . S
C2464 C2463 1.355 . S
C2464 C2466 1.419 . S
C2465 C2460 1.425 . S
C2465 C2462 1.409 . S
C2465 C2463 1.415 . S
C2466 H2456 0.930 . S
C2466 C2464 1.419 . S
C2466 C2467 1.362 . S
C2467 H2457 0.930 . S
C2467 C2460 1.409 . S
C2467 C2466 1.362 . S
H2468 C2474 0.930 . S
H2469 C2477 0.930 . S
H2470 C2478 0.930 . S
H2471 C2479 0.930 . S
H2472 C2482 0.930 . S
H2473 C2483 0.930 . S
C2474 H2468 0.930 . S
C2474 C2475 1.355 . S
C2474 C2476 1.415 . S
C2475 C2474 1.355 . S
C2475 C2477 1.419 . S
C2476 C2474 1.415 . S
C2476 C2481 1.425 . S
C2476 C2483 1.409 . S
C2477 H2469 0.930 . S
C2477 C2475 1.419 . S
C2477 C2478 1.362 . S
C2478 H2470 0.930 . S
C2478 C2477 1.362 . S
C2478 C2481 1.409 . S
C2479 H2471 0.930 . S
C2479 C2480 1.355 . S
C2479 C2481 1.415 . S
C2480 C2479 1.355 . S
C2480 C2482 1.419 . S
C2481 C2476 1.425 . S
C2481 C2478 1.409 . S
C2481 C2479 1.415 . S
C2482 H2472 0.930 . S
C2482 C2480 1.419 . S
C2482 C2483 1.362 . S
C2483 H2473 0.930 . S
C2483 C2476 1.409 . S
C2483 C2482 1.362 . S
H2484 C2490 0.930 . S
H2485 C2493 0.930 . S
H2486 C2494 0.930 . S
H2487 C2495 0.930 . S
H2488 C2498 0.930 . S
H2489 C2499 0.930 . S
C2490 H2484 0.930 . S
C2490 C2491 1.355 . S
C2490 C2492 1.415 . S
C2491 C2490 1.355 . S
C2491 C2493 1.419 . S
C2492 C2490 1.415 . S
C2492 C2497 1.425 . S
C2492 C2499 1.409 . S
C2493 H2485 0.930 . S
C2493 C2491 1.419 . S
C2493 C2494 1.362 . S
C2494 H2486 0.930 . S
C2494 C2493 1.362 . S
C2494 C2497 1.409 . S
C2495 H2487 0.930 . S
C2495 C2496 1.355 . S
C2495 C2497 1.415 . S
C2496 C2495 1.355 . S
C2496 C2498 1.419 . S
C2497 C2492 1.425 . S
C2497 C2494 1.409 . S
C2497 C2495 1.415 . S
C2498 H2488 0.930 . S
C2498 C2496 1.419 . S
C2498 C2499 1.362 . S
C2499 H2489 0.930 . S
C2499 C2492 1.409 . S
C2499 C2498 1.362 . S
H2500 C2506 0.930 . S
H2501 C2509 0.930 . S
H2502 C2510 0.930 . S
H2503 C2511 0.930 . S
H2504 C2514 0.930 . S
H2505 C2515 0.930 . S
C2506 H2500 0.930 . S
C2506 C2507 1.355 . S
C2506 C2508 1.415 . S
C2507 C2506 1.355 . S
C2507 C2509 1.419 . S
C2508 C2506 1.415 . S
C2508 C2513 1.425 . S
C2508 C2515 1.409 . S
C2509 H2501 0.930 . S
C2509 C2507 1.419 . S
C2509 C2510 1.362 . S
C2510 H2502 0.930 . S
C2510 C2509 1.362 . S
C2510 C2513 1.409 . S
C2511 H2503 0.930 . S
C2511 C2512 1.355 . S
C2511 C2513 1.415 . S
C2512 C2511 1.355 . S
C2512 C2514 1.419 . S
C2513 C2508 1.425 . S
C2513 C2510 1.409 . S
C2513 C2511 1.415 . S
C2514 H2504 0.930 . S
C2514 C2512 1.419 . S
C2514 C2515 1.362 . S
C2515 H2505 0.930 . S
C2515 C2508 1.409 . S
C2515 C2514 1.362 . S
H2516 C2522 0.930 . S
H2517 C2525 0.930 . S
H2518 C2526 0.930 . S
H2519 C2527 0.930 . S
H2520 C2530 0.930 1_556 S
H2521 C2531 0.930 1_556 S
C2522 H2516 0.930 . S
C2522 C2523 1.355 . S
C2522 C2524 1.415 . S
C2523 C2522 1.355 . S
C2523 C2525 1.419 . S
C2524 C2522 1.415 . S
C2524 C2529 1.425 . S
C2524 C2531 1.409 . S
C2525 H2517 0.930 . S
C2525 C2523 1.419 . S
C2525 C2526 1.362 . S
C2526 H2518 0.930 . S
C2526 C2525 1.362 . S
C2526 C2529 1.409 . S
C2527 H2519 0.930 . S
C2527 C2528 1.355 . S
C2527 C2529 1.415 . S
C2528 C2527 1.355 . S
C2528 C2530 1.419 . S
C2529 C2524 1.425 . S
C2529 C2526 1.409 . S
C2529 C2527 1.415 . S
C2530 H2520 0.930 1_554 S
C2530 C2528 1.419 . S
C2530 C2531 1.362 . S
C2531 H2521 0.930 1_554 S
C2531 C2524 1.409 . S
C2531 C2530 1.362 . S
H2532 C2538 0.930 . S
H2533 C2541 0.930 . S
H2534 C2542 0.930 . S
H2535 C2543 0.930 . S
H2536 C2546 0.930 . S
H2537 C2547 0.930 . S
C2538 H2532 0.930 . S
C2538 C2539 1.355 . S
C2538 C2540 1.415 . S
C2539 C2538 1.355 . S
C2539 C2541 1.419 . S
C2540 C2538 1.415 . S
C2540 C2545 1.425 . S
C2540 C2547 1.409 . S
C2541 H2533 0.930 . S
C2541 C2539 1.419 . S
C2541 C2542 1.362 . S
C2542 H2534 0.930 . S
C2542 C2541 1.362 . S
C2542 C2545 1.409 . S
C2543 H2535 0.930 . S
C2543 C2544 1.355 . S
C2543 C2545 1.415 . S
C2544 C2543 1.355 . S
C2544 C2546 1.419 . S
C2545 C2540 1.425 . S
C2545 C2542 1.409 . S
C2545 C2543 1.415 . S
C2546 H2536 0.930 . S
C2546 C2544 1.419 . S
C2546 C2547 1.362 . S
C2547 H2537 0.930 . S
C2547 C2540 1.409 . S
C2547 C2546 1.362 . S
H2548 C2554 0.930 . S
H2549 C2557 0.930 . S
H2550 C2558 0.930 . S
H2551 C2559 0.930 . S
H2552 C2562 0.930 . S
H2553 C2563 0.930 . S
C2554 H2548 0.930 . S
C2554 C2555 1.355 . S
C2554 C2556 1.415 . S
C2555 C2554 1.355 . S
C2555 C2557 1.419 . S
C2556 C2554 1.415 . S
C2556 C2561 1.425 . S
C2556 C2563 1.409 . S
C2557 H2549 0.930 . S
C2557 C2555 1.419 . S
C2557 C2558 1.362 . S
C2558 H2550 0.930 . S
C2558 C2557 1.362 . S
C2558 C2561 1.409 . S
C2559 H2551 0.930 . S
C2559 C2560 1.355 . S
C2559 C2561 1.415 . S
C2560 C2559 1.355 . S
C2560 C2562 1.419 . S
C2561 C2556 1.425 . S
C2561 C2558 1.409 . S
C2561 C2559 1.415 . S
C2562 H2552 0.930 . S
C2562 C2560 1.419 . S
C2562 C2563 1.362 . S
C2563 H2553 0.930 . S
C2563 C2556 1.409 . S
C2563 C2562 1.362 . S
H2564 C2570 0.930 . S
H2565 C2573 0.930 . S
H2566 C2574 0.930 . S
H2567 C2575 0.930 . S
H2568 C2578 0.930 . S
H2569 C2579 0.930 . S
C2570 H2564 0.930 . S
C2570 C2571 1.355 . S
C2570 C2572 1.415 . S
C2571 C2570 1.355 . S
C2571 C2573 1.419 . S
C2572 C2570 1.415 . S
C2572 C2577 1.425 . S
C2572 C2579 1.409 . S
C2573 H2565 0.930 . S
C2573 C2571 1.419 . S
C2573 C2574 1.362 . S
C2574 H2566 0.930 . S
C2574 C2573 1.362 . S
C2574 C2577 1.409 . S
C2575 H2567 0.930 . S
C2575 C2576 1.355 . S
C2575 C2577 1.415 . S
C2576 C2575 1.355 . S
C2576 C2578 1.419 . S
C2577 C2572 1.425 . S
C2577 C2574 1.409 . S
C2577 C2575 1.415 . S
C2578 H2568 0.930 . S
C2578 C2576 1.419 . S
C2578 C2579 1.362 . S
C2579 H2569 0.930 . S
C2579 C2572 1.409 . S
C2579 C2578 1.362 . S
H2580 C2586 0.930 . S
H2581 C2589 0.930 . S
H2582 C2590 0.930 . S
H2583 C2591 0.930 . S
H2584 C2594 0.930 . S
H2585 C2595 0.930 . S
C2586 H2580 0.930 . S
C2586 C2587 1.355 . S
C2586 C2588 1.415 . S
C2587 C2586 1.355 . S
C2587 C2589 1.419 . S
C2588 C2586 1.415 . S
C2588 C2593 1.425 . S
C2588 C2595 1.409 . S
C2589 H2581 0.930 . S
C2589 C2587 1.419 . S
C2589 C2590 1.362 . S
C2590 H2582 0.930 . S
C2590 C2589 1.362 . S
C2590 C2593 1.409 . S
C2591 H2583 0.930 . S
C2591 C2592 1.355 . S
C2591 C2593 1.415 . S
C2592 C2591 1.355 . S
C2592 C2594 1.419 . S
C2593 C2588 1.425 . S
C2593 C2590 1.409 . S
C2593 C2591 1.415 . S
C2594 H2584 0.930 . S
C2594 C2592 1.419 . S
C2594 C2595 1.362 . S
C2595 H2585 0.930 . S
C2595 C2588 1.409 . S
C2595 C2594 1.362 . S
H2596 C2602 0.930 . S
H2597 C2605 0.930 . S
H2598 C2606 0.930 . S
H2599 C2607 0.930 . S
H2600 C2610 0.930 . S
H2601 C2611 0.930 . S
C2602 H2596 0.930 . S
C2602 C2603 1.355 . S
C2602 C2604 1.415 . S
C2603 C2602 1.355 . S
C2603 C2605 1.419 . S
C2604 C2602 1.415 . S
C2604 C2609 1.425 . S
C2604 C2611 1.409 . S
C2605 H2597 0.930 . S
C2605 C2603 1.419 . S
C2605 C2606 1.362 . S
C2606 H2598 0.930 . S
C2606 C2605 1.362 . S
C2606 C2609 1.409 . S
C2607 H2599 0.930 . S
C2607 C2608 1.355 . S
C2607 C2609 1.415 . S
C2608 C2607 1.355 . S
C2608 C2610 1.419 . S
C2609 C2604 1.425 . S
C2609 C2606 1.409 . S
C2609 C2607 1.415 . S
C2610 H2600 0.930 . S
C2610 C2608 1.419 . S
C2610 C2611 1.362 . S
C2611 H2601 0.930 . S
C2611 C2604 1.409 . S
C2611 C2610 1.362 . S
H2612 C2618 0.930 . S
H2613 C2621 0.930 . S
H2614 C2622 0.930 . S
H2615 C2623 0.930 . S
H2616 C2626 0.930 . S
H2617 C2627 0.930 . S
C2618 H2612 0.930 . S
C2618 C2619 1.355 . S
C2618 C2620 1.415 . S
C2619 C2618 1.355 . S
C2619 C2621 1.419 . S
C2620 C2618 1.415 . S
C2620 C2625 1.425 . S
C2620 C2627 1.409 . S
C2621 H2613 0.930 . S
C2621 C2619 1.419 . S
C2621 C2622 1.362 . S
C2622 H2614 0.930 . S
C2622 C2621 1.362 . S
C2622 C2625 1.409 . S
C2623 H2615 0.930 . S
C2623 C2624 1.355 . S
C2623 C2625 1.415 . S
C2624 C2623 1.355 . S
C2624 C2626 1.419 . S
C2625 C2620 1.425 . S
C2625 C2622 1.409 . S
C2625 C2623 1.415 . S
C2626 H2616 0.930 . S
C2626 C2624 1.419 . S
C2626 C2627 1.362 . S
C2627 H2617 0.930 . S
C2627 C2620 1.409 . S
C2627 C2626 1.362 . S
C1195 N542 0.829 . S
C1200 N14 0.862 1_556 S
C1211 N575 0.861 . S
C1216 N47 0.894 1_556 S
C1227 N80 0.778 1_556 S
C1232 N509 0.780 . S
C1243 N872 0.900 . S
C1248 N113 0.868 . S
C1259 N806 0.926 . S
C1264 N146 0.901 . S
C1275 N839 0.871 . S
C1280 N179 0.902 . S
C1291 N1136 0.941 . S
C1296 N212 0.924 1_554 S
C1307 N245 0.864 1_554 S
C1312 N1169 0.896 . S
C1323 N278 0.836 1_554 S
C1328 N1103 0.806 . S
C1339 N311 0.787 . S
C1344 N674 0.809 . S
C1355 N608 0.921 . S
C1360 N344 0.939 . S
C1371 N377 0.935 . S
C1376 N641 0.913 . S
C1387 N938 0.803 . S
C1392 N410 0.784 . S
C1403 N443 0.795 . S
C1408 N971 0.821 . S
C1419 N476 0.871 . S
C1424 N905 0.838 . S
C1435 N1070 0.822 . S
C1440 N707 0.854 . S
C1451 N740 0.855 . S
C1456 N1004 0.888 . S
C1467 N773 0.780 . S
C1472 N1037 0.795 . S
C1483 C28 0.788 . S
C1488 C622 0.788 . S
C1499 C655 0.825 . S
C1504 C61 0.825 . S
C1515 C688 0.845 . S
C1520 C94 0.845 . S
C1531 C127 0.863 . S
C1536 C1117 0.863 . S
C1547 C160 0.785 . S
C1552 C1150 0.785 . S
C1563 C193 0.711 . S
C1568 C1183 0.711 . S
C1579 C226 0.815 . S
C1584 C820 0.815 . S
C1595 C259 0.786 . S
C1600 C853 0.786 . S
C1611 C292 0.670 . S
C1616 C886 0.670 . S
C1627 C523 0.768 . S
C1632 C325 0.768 . S
C1643 C358 0.864 . S
C1648 C556 0.864 . S
C1659 C589 0.736 . S
C1664 C391 0.736 . S
C1675 C424 0.638 . S
C1680 C1018 0.638 . S
C1691 C457 0.709 . S
C1696 C1051 0.709 . S
C1707 C1084 0.779 . S
C1712 C490 0.779 . S
C1723 C919 0.852 . S
C1728 C721 0.852 . S
C1739 C952 0.821 . S
C1744 C754 0.821 . S
C1755 C985 0.839 . S
C1760 C787 0.839 . S
C1771 C8 1.570 1_556 S
C1776 N335 1.549 . S
C1787 C41 1.519 1_556 S
C1792 N368 1.582 . S
C1803 N302 1.567 . S
C1808 C74 1.538 1_556 S
C1819 C107 1.568 . S
C1824 N269 1.552 . S
C1835 N203 1.569 . S
C1840 C140 1.536 . S
C1851 N236 1.569 . S
C1856 C173 1.543 . S
C1867 N137 1.551 . S
C1872 C206 1.566 1_554 S
C1883 N170 1.555 . S
C1888 C239 1.559 1_554 S
C1899 C272 1.555 1_554 S
C1904 N104 1.561 . S
C1915 C305 1.561 . S
C1920 N71 1.554 . S
C1931 N5 1.573 . S
C1936 C338 1.530 . S
C1947 C371 1.571 . S
C1952 N38 1.549 . S
C1963 C404 1.540 . S
C1968 N731 1.566 . S
C1979 C437 1.568 . S
C1984 N764 1.552 . S
C1995 N698 1.552 . S
C2000 C470 1.563 . S
C2011 C503 1.528 . S
C2016 N665 1.574 . S
C2027 C536 1.516 . S
C2032 N599 1.584 . S
C2043 C569 1.529 . S
C2048 N632 1.577 . S
C2059 C602 1.570 . S
C2064 N533 1.550 . S
C2075 C635 1.567 . S
C2080 N566 1.553 . S
C2091 N500 1.553 . S
C2096 C668 1.566 . S
C2107 N467 1.552 . S
C2112 C701 1.565 . S
C2123 N401 1.560 . S
C2128 C734 1.550 . S
C2139 N434 1.553 . S
C2144 C767 1.567 . S
C2155 N1127 1.581 . S
C2160 C800 1.522 . S
C2171 N1160 1.580 . S
C2176 C833 1.518 . S
C2187 N1094 1.556 . S
C2192 C866 1.562 . S
C2203 N1061 1.581 . S
C2208 C899 1.521 . S
C2219 C932 1.543 . S
C2224 N995 1.564 . S
C2235 N1028 1.576 . S
C2240 C965 1.525 . S
C2251 N929 1.579 . S
C2256 C998 1.525 . S
C2267 N962 1.563 . S
C2272 C1031 1.545 . S
C2283 N896 1.581 . S
C2288 C1064 1.522 . S
C2299 C1097 1.556 . S
C2304 N863 1.560 . S
C2315 N797 1.580 . S
C2320 C1130 1.519 . S
C2331 N830 1.549 . S
C2336 C1163 1.571 . S
C2347 C182 1.113 . S
C2352 C17 1.127 . S
C2363 C50 1.158 . S
C2368 C116 1.129 . S
C2379 C149 1.167 . S
C2384 C83 1.143 . S
C2395 C380 1.126 . S
C2400 C215 1.155 . S
C2411 C314 1.143 . S
C2416 C248 1.117 . S
C2427 C347 1.121 . S
C2432 C281 1.149 . S
C2443 C578 1.171 . S
C2448 C413 1.161 . S
C2459 C512 1.169 . S
C2464 C446 1.147 . S
C2475 C545 1.167 . S
C2480 C479 1.166 . S
C2491 C611 1.152 . S
C2496 C776 1.124 . S
C2507 C710 1.166 . S
C2512 C644 1.140 . S
C2523 C677 1.169 . S
C2528 C743 1.164 . S
C2539 C974 1.120 . S
C2544 C809 1.148 . S
C2555 C908 1.143 . S
C2560 C842 1.167 . S
C2571 C875 1.134 . S
C2576 C941 1.114 . S
C2587 C1172 1.140 . S
C2592 C1007 1.116 . S
C2603 C1106 1.124 . S
C2608 C1040 1.152 . S
C2619 C1139 1.115 . S
C2624 C1073 1.120 . S
