# Generated by pormake.
# Topology uou, (4)-cn, num edge types: 1
# Building blocks:
#     Node 0, Type 0, BuildingBlock: ICAMEG_clean_sbu_1, # of connection points: 4
#     Node 1, Type 0, BuildingBlock: ICAMEG_clean_sbu_1, # of connection points: 4
#     Node 2, Type 0, BuildingBlock: ICAMEG_clean_sbu_1, # of connection points: 4
#     Node 3, Type 0, BuildingBlock: ICAMEG_clean_sbu_1, # of connection points: 4
#     Node 4, Type 0, BuildingBlock: ICAMEG_clean_sbu_1, # of connection points: 4
#     Node 5, Type 0, BuildingBlock: ICAMEG_clean_sbu_1, # of connection points: 4
#     Node 6, Type 0, BuildingBlock: ICAMEG_clean_sbu_1, # of connection points: 4
#     Node 7, Type 0, BuildingBlock: ICAMEG_clean_sbu_1, # of connection points: 4
#     Node 8, Type 0, BuildingBlock: ICAMEG_clean_sbu_1, # of connection points: 4
#     Node 9, Type 0, BuildingBlock: ICAMEG_clean_sbu_1, # of connection points: 4
#     Node 10, Type 0, BuildingBlock: ICAMEG_clean_sbu_1, # of connection points: 4
#     Node 11, Type 0, BuildingBlock: ICAMEG_clean_sbu_1, # of connection points: 4
#     Node 12, Type 0, BuildingBlock: ICAMEG_clean_sbu_1, # of connection points: 4
#     Node 13, Type 0, BuildingBlock: ICAMEG_clean_sbu_1, # of connection points: 4
#     Node 14, Type 0, BuildingBlock: ICAMEG_clean_sbu_1, # of connection points: 4
#     Node 15, Type 0, BuildingBlock: ICAMEG_clean_sbu_1, # of connection points: 4
#     Edge 16, Type (0, 0), BuildingBlock: TEMPAE_clean_linker_10, # of connection points: 2
#     Edge 17, Type (0, 0), BuildingBlock: TEMPAE_clean_linker_10, # of connection points: 2
#     Edge 18, Type (0, 0), BuildingBlock: TEMPAE_clean_linker_10, # of connection points: 2
#     Edge 19, Type (0, 0), BuildingBlock: TEMPAE_clean_linker_10, # of connection points: 2
#     Edge 20, Type (0, 0), BuildingBlock: TEMPAE_clean_linker_10, # of connection points: 2
#     Edge 21, Type (0, 0), BuildingBlock: TEMPAE_clean_linker_10, # of connection points: 2
#     Edge 22, Type (0, 0), BuildingBlock: TEMPAE_clean_linker_10, # of connection points: 2
#     Edge 23, Type (0, 0), BuildingBlock: TEMPAE_clean_linker_10, # of connection points: 2
#     Edge 24, Type (0, 0), BuildingBlock: TEMPAE_clean_linker_10, # of connection points: 2
#     Edge 25, Type (0, 0), BuildingBlock: TEMPAE_clean_linker_10, # of connection points: 2
#     Edge 26, Type (0, 0), BuildingBlock: TEMPAE_clean_linker_10, # of connection points: 2
#     Edge 27, Type (0, 0), BuildingBlock: TEMPAE_clean_linker_10, # of connection points: 2
#     Edge 28, Type (0, 0), BuildingBlock: TEMPAE_clean_linker_10, # of connection points: 2
#     Edge 29, Type (0, 0), BuildingBlock: TEMPAE_clean_linker_10, # of connection points: 2
#     Edge 30, Type (0, 0), BuildingBlock: TEMPAE_clean_linker_10, # of connection points: 2
#     Edge 31, Type (0, 0), BuildingBlock: TEMPAE_clean_linker_10, # of connection points: 2
#     Edge 32, Type (0, 0), BuildingBlock: TEMPAE_clean_linker_10, # of connection points: 2
#     Edge 33, Type (0, 0), BuildingBlock: TEMPAE_clean_linker_10, # of connection points: 2
#     Edge 34, Type (0, 0), BuildingBlock: TEMPAE_clean_linker_10, # of connection points: 2
#     Edge 35, Type (0, 0), BuildingBlock: TEMPAE_clean_linker_10, # of connection points: 2
#     Edge 36, Type (0, 0), BuildingBlock: TEMPAE_clean_linker_10, # of connection points: 2
#     Edge 37, Type (0, 0), BuildingBlock: TEMPAE_clean_linker_10, # of connection points: 2
#     Edge 38, Type (0, 0), BuildingBlock: TEMPAE_clean_linker_10, # of connection points: 2
#     Edge 39, Type (0, 0), BuildingBlock: TEMPAE_clean_linker_10, # of connection points: 2
#     Edge 40, Type (0, 0), BuildingBlock: TEMPAE_clean_linker_10, # of connection points: 2
#     Edge 41, Type (0, 0), BuildingBlock: TEMPAE_clean_linker_10, # of connection points: 2
#     Edge 42, Type (0, 0), BuildingBlock: TEMPAE_clean_linker_10, # of connection points: 2
#     Edge 43, Type (0, 0), BuildingBlock: TEMPAE_clean_linker_10, # of connection points: 2
#     Edge 44, Type (0, 0), BuildingBlock: TEMPAE_clean_linker_10, # of connection points: 2
#     Edge 45, Type (0, 0), BuildingBlock: TEMPAE_clean_linker_10, # of connection points: 2
#     Edge 46, Type (0, 0), BuildingBlock: TEMPAE_clean_linker_10, # of connection points: 2
#     Edge 47, Type (0, 0), BuildingBlock: TEMPAE_clean_linker_10, # of connection points: 2
# Relax obj value: 0.027
# Max RMSD: 0.082
# Mean RMSD: 0.082
data_MOF--net-uou--node1-ICAMEG_clean_sbu_1--edge1-TEMPAE_clean_linker_10
_symmetry_space_group_name_H-M    P1
_symmetry_Int_Tables_number       1
_symmetry_cell_setting            triclinic
loop_
_symmetry_equiv_pos_as_xyz
'x, y, z'
_cell_length_a     42.227918
_cell_length_b     40.788214
_cell_length_c     59.078574
_cell_angle_alpha  89.990736
_cell_angle_beta   90.019509
_cell_angle_gamma 90.012444
loop_
_atom_site_label
_atom_site_type_symbol
_atom_site_fract_x
_atom_site_fract_y
_atom_site_fract_z
_atom_type_partial_charge
Co0 Co 0.02805 0.06164 0.12805 0.0
Co1 Co 0.10021 0.09512 0.14369 0.0
O2 O 0.07477 0.06246 0.12702 0.0
C3 C 0.04072 0.05974 0.07804 0.0
O4 O 0.06291 0.08207 0.08021 0.0
C5 C 0.13832 0.032 0.14726 0.0
O6 O 0.11635 0.01445 0.13728 0.0
O7 O 0.07818 0.08387 0.17254 0.0
O8 O 0.02851 0.07244 0.16113 0.0
H9 H 0.11556 0.18875 0.19792 0.0
H10 H 0.06303 0.00458 0.10974 0.0
O11 O 0.02561 0.04958 0.09528 0.0
H12 H 0.99877 0.96064 0.17247 0.0
H13 H 0.9195 0.01775 0.10943 0.0
H14 H 0.97947 0.10428 0.14898 0.0
H15 H 0.99599 0.01921 0.16225 0.0
H16 H 0.97787 0.01787 0.10887 0.0
O17 O 0.13418 0.06242 0.15094 0.0
H18 H 0.08481 0.14788 0.17643 0.0
H19 H 0.16919 0.11146 0.14646 0.0
H20 H 0.92108 0.10488 0.15019 0.0
H21 H 0.06619 0.94571 0.11907 0.0
H22 H 0.8907 0.0614 0.1303 0.0
H23 H 0.03403 0.92342 0.15074 0.0
O24 O 0.02586 0.10918 0.11984 0.0
H25 H 0.15478 0.07114 0.06967 0.0
H26 H 0.11652 0.15801 0.1208 0.0
H27 H 0.14242 0.1732 0.08495 0.0
H28 H 0.16193 0.12962 0.05913 0.0
H29 H 0.12837 0.05704 0.10544 0.0
H30 H 0.20087 0.15171 0.16781 0.0
H31 H 0.17405 0.19083 0.19369 0.0
O32 O 0.06841 0.12962 0.13744 0.0
C33 C 0.04902 0.07797 0.17653 0.0
C34 C 0.12753 0.17185 0.18669 0.0
C35 C 0.1754 0.15105 0.1698 0.0
N36 N 0.12511 0.12729 0.16018 0.0
C37 C 0.11023 0.14865 0.17446 0.0
C38 C 0.15732 0.12822 0.15782 0.0
C39 C 0.16034 0.173 0.18431 0.0
C40 C 0.04897 0.99504 0.12353 0.0
N41 N 0.02982 0.01541 0.13574 0.0
C42 C 0.05086 0.96169 0.12874 0.0
C43 C 0.03282 0.94921 0.14652 0.0
C44 C 0.01309 0.97008 0.15874 0.0
C45 C 0.01183 0.00328 0.15303 0.0
C46 C 0.93247 0.03682 0.11818 0.0
C47 C 0.96642 0.08517 0.14039 0.0
C48 C 0.96554 0.03709 0.11784 0.0
N49 N 0.98209 0.06101 0.12895 0.0
C50 C 0.93336 0.08568 0.14109 0.0
C51 C 0.91633 0.0613 0.1299 0.0
C52 C 0.04256 0.13325 0.12673 0.0
C53 C 0.14664 0.09037 0.08087 0.0
C54 C 0.12494 0.13884 0.1097 0.0
C55 C 0.13962 0.14763 0.08941 0.0
C56 C 0.15057 0.12317 0.07494 0.0
N57 N 0.12144 0.10659 0.11555 0.0
C58 C 0.13187 0.0825 0.10132 0.0
Co59 Co 0.47782 0.93708 0.12637 0.0
Co60 Co 0.40797 0.90325 0.14414 0.0
O61 O 0.43122 0.9364 0.12657 0.0
C62 C 0.46387 0.94318 0.07683 0.0
O63 O 0.44428 0.91823 0.07812 0.0
C64 C 0.36735 0.96462 0.14691 0.0
O65 O 0.38863 0.98262 0.13655 0.0
O66 O 0.43052 0.91715 0.17217 0.0
O67 O 0.47978 0.92149 0.15852 0.0
H68 H 0.39908 0.81231 0.2012 0.0
H69 H 0.44317 0.9968 0.11229 0.0
O70 O 0.47805 0.95345 0.09445 0.0
H71 H 0.50862 0.03108 0.17724 0.0
H72 H 0.58515 0.98384 0.10775 0.0
H73 H 0.52759 0.89151 0.14256 0.0
H74 H 0.51063 0.97423 0.16324 0.0
H75 H 0.52679 0.98347 0.10881 0.0
O76 O 0.37267 0.93455 0.15119 0.0
H77 H 0.42703 0.85359 0.17819 0.0
H78 H 0.34007 0.88321 0.14834 0.0
H79 H 0.58597 0.89105 0.14207 0.0
H80 H 0.44073 0.05409 0.12551 0.0
H81 H 0.61516 0.93745 0.12456 0.0
H82 H 0.47353 0.07153 0.15828 0.0
O83 O 0.47863 0.89083 0.11538 0.0
H84 H 0.35087 0.92116 0.07027 0.0
H85 H 0.39331 0.83854 0.12307 0.0
H86 H 0.36726 0.8205 0.08792 0.0
H87 H 0.34565 0.86194 0.06126 0.0
H88 H 0.37745 0.93812 0.1054 0.0
H89 H 0.31116 0.84248 0.17122 0.0
H90 H 0.34071 0.80655 0.1978 0.0
O91 O 0.44131 0.86987 0.13799 0.0
C92 C 0.46043 0.91903 0.17501 0.0
C93 C 0.38594 0.82775 0.18963 0.0
C94 C 0.3366 0.84471 0.17282 0.0
N95 N 0.38528 0.87066 0.16181 0.0
C96 C 0.40166 0.85113 0.17651 0.0
C97 C 0.35311 0.8678 0.15996 0.0
C98 C 0.35319 0.82456 0.18773 0.0
C99 C 0.45759 0.00422 0.12651 0.0
N100 N 0.47679 0.98207 0.1371 0.0
C101 C 0.45607 0.03669 0.13394 0.0
C102 C 0.47446 0.04645 0.15234 0.0
C103 C 0.49411 0.02376 0.163 0.0
C104 C 0.49499 0.99151 0.1551 0.0
C105 C 0.57271 0.96349 0.11544 0.0
C106 C 0.5401 0.91186 0.13499 0.0
C107 C 0.53965 0.96308 0.11602 0.0
N108 N 0.52377 0.93754 0.12581 0.0
C109 C 0.57317 0.91143 0.13472 0.0
C110 C 0.58953 0.93746 0.12488 0.0
C111 C 0.46425 0.86649 0.12421 0.0
C112 C 0.35993 0.90285 0.08185 0.0
C113 C 0.38395 0.85678 0.11162 0.0
C114 C 0.3692 0.84638 0.09172 0.0
C115 C 0.35708 0.86963 0.07677 0.0
N116 N 0.3864 0.88943 0.11663 0.0
C117 C 0.37482 0.91234 0.10192 0.0
Co118 Co 0.5268 0.9421 0.38035 0.0
Co119 Co 0.59731 0.9026 0.36887 0.0
O120 O 0.57303 0.938 0.38326 0.0
C121 C 0.53555 0.94465 0.43055 0.0
O122 O 0.55477 0.9194 0.42937 0.0
C123 C 0.63463 0.96143 0.35436 0.0
O124 O 0.60849 0.97735 0.34942 0.0
O125 O 0.5784 0.91303 0.33873 0.0
O126 O 0.52893 0.92911 0.34774 0.0
H127 H 0.6119 0.80485 0.31813 0.0
H128 H 0.56557 0.99705 0.3979 0.0
O129 O 0.52315 0.95633 0.41265 0.0
H130 H 0.50904 0.04186 0.33172 0.0
H131 H 0.42075 0.9954 0.39355 0.0
H132 H 0.47674 0.90218 0.3586 0.0
H133 H 0.50049 0.98465 0.34379 0.0
H134 H 0.47882 0.99068 0.39646 0.0
O135 O 0.63347 0.93275 0.36271 0.0
H136 H 0.58188 0.84922 0.33662 0.0
H137 H 0.66487 0.88101 0.37076 0.0
H138 H 0.41865 0.90614 0.35507 0.0
H139 H 0.5746 0.05453 0.3866 0.0
H140 H 0.39027 0.953 0.37264 0.0
H141 H 0.5463 0.07725 0.35323 0.0
O142 O 0.52046 0.89529 0.38968 0.0
H143 H 0.64879 0.93006 0.44314 0.0
H144 H 0.6059 0.84106 0.39567 0.0
H145 H 0.62732 0.82813 0.43346 0.0
H146 H 0.64902 0.8728 0.45746 0.0
H147 H 0.62687 0.94195 0.4053 0.0
H148 H 0.6959 0.83721 0.35249 0.0
H149 H 0.66938 0.79865 0.32602 0.0
O150 O 0.56289 0.87084 0.37456 0.0
C151 C 0.55007 0.92082 0.33341 0.0
C152 C 0.62374 0.8215 0.32962 0.0
C153 C 0.67088 0.83967 0.34889 0.0
N154 N 0.62156 0.86772 0.35473 0.0
C155 C 0.60685 0.84667 0.34014 0.0
C156 C 0.6532 0.86451 0.35912 0.0
C157 C 0.65598 0.81803 0.33405 0.0
C158 C 0.55309 0.00681 0.38341 0.0
N159 N 0.5327 0.98746 0.37141 0.0
C160 C 0.55833 0.03936 0.37707 0.0
C161 C 0.54247 0.05208 0.35834 0.0
C162 C 0.52158 0.03223 0.34625 0.0
C163 C 0.51696 0.99981 0.35308 0.0
C164 C 0.43284 0.97488 0.38581 0.0
C165 C 0.46457 0.92274 0.36618 0.0
C166 C 0.46571 0.972 0.38747 0.0
N167 N 0.48117 0.94623 0.37763 0.0
C168 C 0.43167 0.92481 0.36418 0.0
C169 C 0.41576 0.95109 0.37406 0.0
C170 C 0.53595 0.86969 0.38407 0.0
C171 C 0.63949 0.91037 0.43281 0.0
C172 C 0.6152 0.86066 0.40603 0.0
C173 C 0.62737 0.85317 0.4274 0.0
C174 C 0.63956 0.87824 0.44085 0.0
N175 N 0.61526 0.89223 0.39825 0.0
C176 C 0.62716 0.91694 0.41134 0.0
Co177 Co 0.9723 0.06378 0.38355 0.0
Co178 Co 0.90216 0.09602 0.36429 0.0
O179 O 0.92598 0.06498 0.38297 0.0
C180 C 0.98724 0.0662 0.43237 0.0
O181 O 0.00466 0.09199 0.42765 0.0
C182 C 0.8554 0.05404 0.34089 0.0
O183 O 0.8665 0.06558 0.3217 0.0
O184 O 0.92562 0.08131 0.33672 0.0
O185 O 0.97469 0.07415 0.35048 0.0
H186 H 0.8896 0.18181 0.30387 0.0
H187 H 0.93549 0.00762 0.40138 0.0
O188 O 0.97083 0.05272 0.41677 0.0
H189 H 1.00153 0.96153 0.34037 0.0
H190 H 0.07889 0.017 0.40467 0.0
H191 H 0.02292 0.10615 0.36493 0.0
H192 H 0.00476 0.0202 0.35004 0.0
H193 H 0.02052 0.01854 0.40377 0.0
O194 O 0.86884 0.06167 0.35949 0.0
H195 H 0.91898 0.14277 0.32782 0.0
H196 H 0.83379 0.11523 0.361 0.0
H197 H 0.08132 0.1055 0.36535 0.0
H198 H 0.93184 0.94866 0.39252 0.0
H199 H 0.10969 0.06069 0.38534 0.0
H200 H 0.96497 0.92526 0.36178 0.0
O201 O 0.97362 0.11167 0.39078 0.0
H202 H 0.84254 0.07932 0.437 0.0
H203 H 0.88723 0.16136 0.38467 0.0
H204 H 0.8601 0.17979 0.41932 0.0
H205 H 0.83735 0.13865 0.44572 0.0
H206 H 0.87028 0.06191 0.40231 0.0
H207 H 0.80349 0.15396 0.33738 0.0
H208 H 0.83141 0.1876 0.30857 0.0
O209 O 0.93425 0.13092 0.3691 0.0
C210 C 0.9554 0.07737 0.33399 0.0
C211 C 0.87715 0.16729 0.31636 0.0
C212 C 0.82883 0.15167 0.33517 0.0
N213 N 0.87816 0.12668 0.34578 0.0
C214 C 0.89367 0.14512 0.32997 0.0
C215 C 0.84613 0.12977 0.34849 0.0
C216 C 0.84451 0.17053 0.31901 0.0
C217 C 0.95014 0.99759 0.38808 0.0
N218 N 0.97037 0.01737 0.37628 0.0
C219 C 0.9479 0.9642 0.38309 0.0
C220 C 0.96646 0.95109 0.36583 0.0
C221 C 0.98695 0.97143 0.3538 0.0
C222 C 0.98856 0.0047 0.35926 0.0
C223 C 0.06681 0.03664 0.39589 0.0
C224 C 0.0351 0.08655 0.37363 0.0
C225 C 0.03376 0.03765 0.39532 0.0
N226 N 0.01831 0.0624 0.38427 0.0
C227 C 0.06817 0.08631 0.37383 0.0
C228 C 0.08407 0.06116 0.38504 0.0
C229 C 0.95843 0.13525 0.38161 0.0
C230 C 0.85226 0.09749 0.4256 0.0
C231 C 0.87761 0.14326 0.39613 0.0
C232 C 0.86216 0.15387 0.4157 0.0
C233 C 0.84939 0.13078 0.43049 0.0
N234 N 0.88016 0.11056 0.39136 0.0
C235 C 0.86789 0.08778 0.40587 0.0
Co236 Co 0.97748 0.9366 0.88383 0.0
Co237 Co 0.90756 0.90405 0.86574 0.0
O238 O 0.93092 0.93562 0.8845 0.0
C239 C 0.99425 0.93877 0.93238 0.0
O240 O 0.0108 0.91204 0.92864 0.0
C241 C 0.86601 0.96486 0.86672 0.0
O242 O 0.88752 0.9823 0.87731 0.0
O243 O 0.92868 0.92204 0.83833 0.0
O244 O 0.9786 0.92259 0.85117 0.0
H245 H 0.89818 0.81982 0.80401 0.0
H246 H 0.94375 0.9957 0.90024 0.0
O247 O 0.97765 0.95113 0.91645 0.0
H248 H 0.00541 0.03291 0.83419 0.0
H249 H 0.0854 0.98392 0.90041 0.0
H250 H 0.02686 0.89153 0.86651 0.0
H251 H 0.00804 0.97537 0.84677 0.0
H252 H 0.027 0.98319 0.90064 0.0
O253 O 0.87149 0.93527 0.86116 0.0
H254 H 0.92623 0.85893 0.82871 0.0
H255 H 0.83989 0.88313 0.86162 0.0
H256 H 0.08524 0.8913 0.86589 0.0
H257 H 0.9408 0.0536 0.88843 0.0
H258 H 0.11491 0.93774 0.88294 0.0
H259 H 0.9717 0.07252 0.85513 0.0
O260 O 0.97821 0.88976 0.8934 0.0
H261 H 0.85263 0.912 0.94117 0.0
H262 H 0.89484 0.83672 0.88332 0.0
H263 H 0.87012 0.81409 0.91769 0.0
H264 H 0.8486 0.85182 0.94687 0.0
H265 H 0.87792 0.93358 0.90674 0.0
H266 H 0.81088 0.84456 0.83708 0.0
H267 H 0.84007 0.81245 0.8081 0.0
O268 O 0.94179 0.87062 0.86937 0.0
C269 C 0.95849 0.92308 0.83504 0.0
C270 C 0.8852 0.83361 0.81661 0.0
C271 C 0.83621 0.84752 0.83515 0.0
N272 N 0.8848 0.87318 0.8467 0.0
C273 C 0.90098 0.85575 0.83069 0.0
C274 C 0.85277 0.86941 0.84896 0.0
C275 C 0.8526 0.82951 0.8189 0.0
C276 C 0.95743 0.00378 0.88583 0.0
N277 N 0.97598 0.98212 0.87422 0.0
C278 C 0.95559 0.03658 0.87918 0.0
C279 C 0.97291 0.04718 0.86048 0.0
C280 C 0.99179 0.02495 0.84871 0.0
C281 C 0.99305 0.99234 0.85585 0.0
C282 C 0.07274 0.96357 0.89291 0.0
C283 C 0.03959 0.91186 0.87393 0.0
C284 C 0.03968 0.96302 0.89297 0.0
N285 N 0.02351 0.93737 0.88354 0.0
C286 C 0.07265 0.91158 0.87354 0.0
C287 C 0.08928 0.93764 0.88311 0.0
C288 C 0.96424 0.86612 0.88344 0.0
C289 C 0.8617 0.8953 0.9285 0.0
C290 C 0.88556 0.85336 0.89591 0.0
C291 C 0.87155 0.84037 0.91535 0.0
C292 C 0.8595 0.86154 0.93171 0.0
N293 N 0.88735 0.88654 0.89273 0.0
C294 C 0.87589 0.90741 0.90885 0.0
Co295 Co 0.52554 0.06298 0.88183 0.0
Co296 Co 0.59579 0.0942 0.86317 0.0
O297 O 0.57209 0.06366 0.88251 0.0
C298 C 0.50835 0.06312 0.93025 0.0
O299 O 0.49149 0.08935 0.92566 0.0
C300 C 0.6367 0.03299 0.86539 0.0
O301 O 0.61511 0.01631 0.87645 0.0
O302 O 0.57441 0.07554 0.83605 0.0
O303 O 0.52451 0.0755 0.84893 0.0
H304 H 0.60603 0.17618 0.80008 0.0
H305 H 0.5588 0.00446 0.89971 0.0
O306 O 0.52531 0.05009 0.91477 0.0
H307 H 0.49735 0.96457 0.83428 0.0
H308 H 0.41733 0.01692 0.89914 0.0
H309 H 0.47641 0.10757 0.86353 0.0
H310 H 0.49499 0.02267 0.84554 0.0
H311 H 0.47573 0.01735 0.89947 0.0
O312 O 0.63146 0.06234 0.85912 0.0
H313 H 0.57757 0.13832 0.82544 0.0
H314 H 0.66373 0.11399 0.8586 0.0
H315 H 0.41804 0.10809 0.86281 0.0
H316 H 0.56146 0.94601 0.88922 0.0
H317 H 0.38809 0.06252 0.88071 0.0
H318 H 0.53067 0.92574 0.85624 0.0
O319 O 0.52503 0.11023 0.89032 0.0
H320 H 0.65053 0.08824 0.93881 0.0
H321 H 0.60964 0.16195 0.8795 0.0
H322 H 0.63469 0.18549 0.91345 0.0
H323 H 0.65555 0.14855 0.94337 0.0
H324 H 0.62493 0.06577 0.90477 0.0
H325 H 0.69314 0.1513 0.8334 0.0
H326 H 0.66425 0.18286 0.80395 0.0
O327 O 0.56199 0.12818 0.86626 0.0
C328 C 0.54459 0.07452 0.83282 0.0
C329 C 0.61888 0.16263 0.81288 0.0
C330 C 0.66777 0.14864 0.83156 0.0
N331 N 0.61889 0.12407 0.84359 0.0
C332 C 0.60287 0.1412 0.82733 0.0
C333 C 0.65098 0.12746 0.84574 0.0
C334 C 0.65154 0.16634 0.81505 0.0
C335 C 0.54515 0.99579 0.88543 0.0
N336 N 0.52681 0.01702 0.87326 0.0
C337 C 0.54684 0.96268 0.87953 0.0
C338 C 0.52959 0.95133 0.86101 0.0
C339 C 0.51092 0.97311 0.84867 0.0
C340 C 0.50981 0.00605 0.85507 0.0
C341 C 0.43011 0.03689 0.89126 0.0
C342 C 0.46357 0.08763 0.87133 0.0
C343 C 0.46318 0.03726 0.89137 0.0
N344 N 0.4795 0.06244 0.88148 0.0
C345 C 0.43051 0.08806 0.87088 0.0
C346 C 0.41372 0.06249 0.88092 0.0
C347 C 0.53932 0.13337 0.88003 0.0
C348 C 0.64175 0.10459 0.92582 0.0
C349 C 0.61862 0.14565 0.89241 0.0
C350 C 0.63282 0.15916 0.91161 0.0
C351 C 0.64451 0.13843 0.92839 0.0
N352 N 0.61629 0.1124 0.88986 0.0
C353 C 0.62739 0.09197 0.90638 0.0
Co354 Co 0.47374 0.06471 0.62545 0.0
Co355 Co 0.40422 0.09722 0.64438 0.0
O356 O 0.42721 0.06627 0.62493 0.0
C357 C 0.4905 0.06451 0.57694 0.0
O358 O 0.5078 0.09049 0.58141 0.0
C359 C 0.36229 0.03677 0.64234 0.0
O360 O 0.3836 0.01967 0.63131 0.0
O361 O 0.42541 0.07803 0.67139 0.0
O362 O 0.47523 0.07717 0.65836 0.0
H363 H 0.39592 0.17917 0.70762 0.0
H364 H 0.43932 0.00681 0.60771 0.0
O365 O 0.4735 0.0518 0.59252 0.0
H366 H 0.50052 0.96578 0.67291 0.0
H367 H 0.58098 0.01666 0.60774 0.0
H368 H 0.52378 0.10835 0.64359 0.0
H369 H 0.50385 0.02383 0.66163 0.0
H370 H 0.5226 0.0182 0.60761 0.0
O371 O 0.36799 0.06607 0.6485 0.0
H372 H 0.4235 0.14082 0.68212 0.0
H373 H 0.33671 0.11837 0.64917 0.0
H374 H 0.58216 0.10776 0.64413 0.0
H375 H 0.43569 0.94843 0.61822 0.0
H376 H 0.61116 0.06167 0.6261 0.0
H377 H 0.46634 0.92758 0.6511 0.0
O378 O 0.47503 0.11196 0.61696 0.0
H379 H 0.34883 0.09254 0.56895 0.0
H380 H 0.3916 0.16528 0.62815 0.0
H381 H 0.36681 0.18939 0.59429 0.0
H382 H 0.345 0.15295 0.56443 0.0
H383 H 0.37421 0.06948 0.60289 0.0
H384 H 0.30816 0.15618 0.67451 0.0
H385 H 0.33782 0.18704 0.70392 0.0
O386 O 0.43864 0.13052 0.64123 0.0
C387 C 0.45522 0.07642 0.67454 0.0
C388 C 0.38275 0.16592 0.69484 0.0
C389 C 0.33349 0.15299 0.67627 0.0
N390 N 0.38181 0.12748 0.66407 0.0
C391 C 0.39825 0.14422 0.68031 0.0
C392 C 0.34979 0.13152 0.66202 0.0
C393 C 0.35015 0.17031 0.69276 0.0
C394 C 0.45291 0.99789 0.62193 0.0
N395 N 0.47171 0.01877 0.63403 0.0
C396 C 0.45068 0.96482 0.62785 0.0
C397 C 0.46786 0.95315 0.64631 0.0
C398 C 0.48701 0.97457 0.65858 0.0
C399 C 0.48866 0.00749 0.65216 0.0
C400 C 0.56862 0.03686 0.61568 0.0
C401 C 0.53621 0.08818 0.63574 0.0
C402 C 0.53556 0.03785 0.61567 0.0
N403 N 0.51977 0.06331 0.62563 0.0
C404 C 0.56928 0.08799 0.63609 0.0
C405 C 0.58553 0.06212 0.62597 0.0
C406 C 0.46124 0.13533 0.62734 0.0
C407 C 0.35803 0.10868 0.58192 0.0
C408 C 0.38222 0.1492 0.61526 0.0
C409 C 0.36816 0.16303 0.59611 0.0
C410 C 0.35594 0.14257 0.57937 0.0
N411 N 0.38391 0.1159 0.61778 0.0
C412 C 0.37228 0.09573 0.6013 0.0
Co413 Co 0.02147 0.93695 0.62801 0.0
Co414 Co 0.09341 0.9063 0.6429 0.0
O415 O 0.06798 0.93842 0.62611 0.0
C416 C 0.03215 0.94514 0.57841 0.0
O417 O 0.05278 0.92107 0.5791 0.0
C418 C 0.13315 0.96847 0.64296 0.0
O419 O 0.11098 0.98587 0.63306 0.0
O420 O 0.07333 0.92142 0.6715 0.0
O421 O 0.02281 0.92014 0.66004 0.0
H422 H 0.10898 0.81767 0.70095 0.0
H423 H 0.05218 0.99887 0.6137 0.0
O424 O 0.01813 0.95429 0.59639 0.0
H425 H 0.99117 0.02714 0.68213 0.0
H426 H 0.91097 0.97893 0.61414 0.0
H427 H 0.97504 0.88867 0.64557 0.0
H428 H 0.99044 0.97081 0.66704 0.0
H429 H 0.9693 0.98132 0.61298 0.0
O430 O 0.12861 0.93843 0.64776 0.0
H431 H 0.07832 0.85768 0.67863 0.0
H432 H 0.16189 0.88763 0.64433 0.0
H433 H 0.91679 0.88541 0.64726 0.0
H434 H 0.05328 0.05564 0.62807 0.0
H435 H 0.88434 0.93076 0.63146 0.0
H436 H 0.0227 0.07006 0.66257 0.0
O437 O 0.02191 0.89117 0.61636 0.0
H438 H 0.14354 0.92226 0.56635 0.0
H439 H 0.10719 0.84099 0.62237 0.0
H440 H 0.13035 0.82205 0.58644 0.0
H441 H 0.14889 0.8628 0.55814 0.0
H442 H 0.11985 0.94011 0.60232 0.0
H443 H 0.19349 0.84823 0.66649 0.0
H444 H 0.16701 0.81276 0.69496 0.0
O445 O 0.06009 0.87194 0.63891 0.0
C446 C 0.04372 0.92112 0.67561 0.0
C447 C 0.12078 0.83292 0.68855 0.0
C448 C 0.16821 0.85009 0.66923 0.0
N449 N 0.11821 0.87484 0.66007 0.0
C450 C 0.10353 0.85558 0.67582 0.0
C451 C 0.15019 0.87244 0.65678 0.0
C452 C 0.15334 0.8302 0.68519 0.0
C453 C 0.0387 0.005 0.62866 0.0
N454 N 0.02138 0.98151 0.63954 0.0
C455 C 0.03946 0.03716 0.63674 0.0
C456 C 0.02231 0.04523 0.65611 0.0
C457 C 0.00464 0.02116 0.6671 0.0
C458 C 0.00443 0.98926 0.65852 0.0
C459 C 0.92485 0.95903 0.62111 0.0
C460 C 0.96111 0.90858 0.63876 0.0
C461 C 0.95789 0.9602 0.62044 0.0
N462 N 0.97558 0.93523 0.6293 0.0
C463 C 0.92812 0.90656 0.63972 0.0
C464 C 0.90992 0.932 0.63083 0.0
C465 C 0.03718 0.86746 0.62521 0.0
C466 C 0.13581 0.90425 0.57862 0.0
C467 C 0.11521 0.85894 0.6102 0.0
C468 C 0.12833 0.84803 0.58986 0.0
C469 C 0.13873 0.8709 0.574 0.0
N470 N 0.11265 0.89173 0.61473 0.0
C471 C 0.12257 0.91425 0.59915 0.0
Co472 Co 0.52837 0.565 0.12737 0.0
Co473 Co 0.59931 0.59793 0.14217 0.0
O474 O 0.57485 0.56466 0.1258 0.0
C475 C 0.53954 0.55683 0.07779 0.0
O476 O 0.55968 0.58134 0.07853 0.0
C477 C 0.6359 0.53734 0.15403 0.0
O478 O 0.60963 0.52154 0.1588 0.0
O479 O 0.57947 0.58336 0.17107 0.0
O480 O 0.52903 0.58212 0.1593 0.0
H481 H 0.61366 0.68797 0.19931 0.0
H482 H 0.56182 0.50426 0.11398 0.0
O483 O 0.52574 0.54728 0.09577 0.0
H484 H 0.49991 0.47442 0.18169 0.0
H485 H 0.41912 0.51988 0.11314 0.0
H486 H 0.48058 0.61213 0.14448 0.0
H487 H 0.49747 0.53047 0.16617 0.0
H488 H 0.4775 0.51907 0.11229 0.0
O489 O 0.635 0.56663 0.14673 0.0
H490 H 0.58367 0.64658 0.17774 0.0
H491 H 0.66706 0.61916 0.14231 0.0
H492 H 0.42225 0.61381 0.14587 0.0
H493 H 0.5647 0.44778 0.12881 0.0
H494 H 0.39111 0.56744 0.13011 0.0
H495 H 0.53366 0.43259 0.16294 0.0
O496 O 0.52771 0.61075 0.11547 0.0
H497 H 0.65164 0.57934 0.06695 0.0
H498 H 0.61017 0.6627 0.11961 0.0
H499 H 0.63274 0.68009 0.08305 0.0
H500 H 0.65374 0.63827 0.05644 0.0
H501 H 0.62855 0.56299 0.10361 0.0
H502 H 0.69804 0.65998 0.16369 0.0
H503 H 0.6713 0.69486 0.19236 0.0
O504 O 0.56527 0.63132 0.13797 0.0
C505 C 0.54979 0.58273 0.175 0.0
C506 C 0.62559 0.67294 0.18685 0.0
C507 C 0.67294 0.65721 0.16688 0.0
N508 N 0.62356 0.63048 0.15875 0.0
C509 C 0.60871 0.64948 0.17456 0.0
C510 C 0.65529 0.63404 0.15489 0.0
C511 C 0.65792 0.67678 0.18295 0.0
C512 C 0.54804 0.49774 0.12872 0.0
N513 N 0.52941 0.52059 0.13912 0.0
C514 C 0.54985 0.46576 0.13709 0.0
C515 C 0.53245 0.45727 0.15626 0.0
C516 C 0.51353 0.48073 0.16679 0.0
C517 C 0.5123 0.51246 0.15795 0.0
C518 C 0.43242 0.54021 0.12008 0.0
C519 C 0.46722 0.59179 0.13768 0.0
C520 C 0.46549 0.53994 0.11959 0.0
N521 N 0.48245 0.56546 0.12842 0.0
C522 C 0.43418 0.59291 0.13847 0.0
C523 C 0.41672 0.5669 0.12961 0.0
C524 C 0.54231 0.635 0.12422 0.0
C525 C 0.64263 0.5978 0.07842 0.0
C526 C 0.61911 0.64432 0.10809 0.0
C527 C 0.63196 0.65434 0.08744 0.0
C528 C 0.64376 0.63086 0.07252 0.0
N529 N 0.61809 0.61183 0.11376 0.0
C530 C 0.62963 0.58869 0.09923 0.0
Co531 Co 0.97382 0.43834 0.1255 0.0
Co532 Co 0.90399 0.40142 0.14236 0.0
O533 O 0.92768 0.43389 0.12474 0.0
C534 C 0.9919 0.43401 0.07717 0.0
O535 O 0.0108 0.4099 0.08307 0.0
C536 C 0.85562 0.44134 0.1657 0.0
O537 O 0.86646 0.42932 0.18482 0.0
O538 O 0.92585 0.41546 0.17079 0.0
O539 O 0.97441 0.43083 0.15903 0.0
H540 H 0.89098 0.31188 0.20009 0.0
H541 H 0.9334 0.48998 0.10523 0.0
O542 O 0.9737 0.44699 0.09192 0.0
H543 H 0.99524 0.54597 0.16456 0.0
H544 H 0.07862 0.49041 0.10556 0.0
H545 H 0.02565 0.40137 0.14747 0.0
H546 H 0.00297 0.48705 0.15703 0.0
H547 H 0.02046 0.48507 0.10484 0.0
O548 O 0.86957 0.43459 0.14713 0.0
H549 H 0.92043 0.35282 0.17774 0.0
H550 H 0.83596 0.38068 0.14383 0.0
H551 H 0.08388 0.4059 0.14873 0.0
H552 H 0.9253 0.54909 0.11185 0.0
H553 H 0.11074 0.45066 0.12765 0.0
H554 H 0.95625 0.57745 0.14177 0.0
O555 O 0.97902 0.39012 0.11992 0.0
H556 H 0.84672 0.41941 0.0688 0.0
H557 H 0.89226 0.33664 0.12022 0.0
H558 H 0.86712 0.31887 0.08461 0.0
H559 H 0.84397 0.36038 0.05867 0.0
H560 H 0.87246 0.43618 0.10444 0.0
H561 H 0.80555 0.34007 0.16581 0.0
H562 H 0.83307 0.30532 0.19419 0.0
O563 O 0.93723 0.36789 0.13765 0.0
C564 C 0.95445 0.42417 0.17462 0.0
C565 C 0.87869 0.32692 0.18781 0.0
C566 C 0.83076 0.34273 0.16857 0.0
N567 N 0.87997 0.36928 0.15961 0.0
C568 C 0.89525 0.35019 0.17514 0.0
C569 C 0.84811 0.36571 0.15619 0.0
C570 C 0.84621 0.32324 0.18449 0.0
C571 C 0.94701 0.50216 0.11825 0.0
N572 N 0.96842 0.48498 0.13092 0.0
C573 C 0.94229 0.53563 0.12193 0.0
C574 C 0.95965 0.55152 0.13874 0.0
C575 C 0.98148 0.53387 0.15156 0.0
C576 C 0.98556 0.50044 0.14738 0.0
C577 C 0.0672 0.47081 0.11482 0.0
C578 C 0.03717 0.42096 0.1383 0.0
C579 C 0.03427 0.46764 0.11447 0.0
N580 N 0.01966 0.44293 0.12613 0.0
C581 C 0.07015 0.42339 0.13906 0.0
C582 C 0.0852 0.4485 0.12722 0.0
C583 C 0.96365 0.36548 0.12748 0.0
C584 C 0.85661 0.40108 0.08 0.0
C585 C 0.88241 0.3549 0.10897 0.0
C586 C 0.86811 0.34466 0.08886 0.0
C587 C 0.85512 0.36796 0.07432 0.0
N588 N 0.8836 0.38743 0.11451 0.0
C589 C 0.87111 0.41042 0.10025 0.0
Co590 Co 0.03053 0.43937 0.38257 0.0
Co591 Co 0.09805 0.40154 0.36261 0.0
O592 O 0.07682 0.43388 0.38215 0.0
C593 C 0.01433 0.43578 0.43116 0.0
O594 O 0.99511 0.41177 0.42561 0.0
C595 C 0.14019 0.46163 0.36097 0.0
O596 O 0.11823 0.48028 0.36991 0.0
O597 O 0.07601 0.41934 0.33544 0.0
O598 O 0.0277 0.43087 0.34918 0.0
H599 H 0.1017 0.31618 0.30131 0.0
H600 H 0.07001 0.49163 0.40307 0.0
O601 O 0.03225 0.4485 0.41611 0.0
H602 H 0.01091 0.54596 0.34164 0.0
H603 H 0.92794 0.49459 0.40411 0.0
H604 H 0.97682 0.40268 0.36267 0.0
H605 H 0.00318 0.4872 0.34948 0.0
H606 H 0.98596 0.48785 0.40352 0.0
O607 O 0.13485 0.43149 0.35698 0.0
H608 H 0.07612 0.35645 0.32645 0.0
H609 H 0.16477 0.37831 0.35696 0.0
H610 H 0.9187 0.40856 0.36277 0.0
H611 H 0.07795 0.55067 0.39618 0.0
H612 H 0.89389 0.45478 0.38361 0.0
H613 H 0.04842 0.5782 0.36517 0.0
O614 O 0.02497 0.39151 0.38874 0.0
H615 H 0.15846 0.40899 0.43586 0.0
H616 H 0.10866 0.33417 0.38081 0.0
H617 H 0.13462 0.31138 0.41469 0.0
H618 H 0.15993 0.34887 0.44246 0.0
H619 H 0.1319 0.43077 0.40193 0.0
H620 H 0.19133 0.33849 0.33199 0.0
H621 H 0.15974 0.30699 0.30397 0.0
O622 O 0.06318 0.36968 0.36728 0.0
C623 C 0.04673 0.42613 0.3327 0.0
C624 C 0.11573 0.3297 0.31348 0.0
C625 C 0.16603 0.34226 0.33068 0.0
N626 N 0.11886 0.36966 0.34324 0.0
C627 C 0.10136 0.35251 0.3278 0.0
C628 C 0.15085 0.36486 0.34473 0.0
C629 C 0.14829 0.32458 0.31497 0.0
C630 C 0.05686 0.50346 0.38967 0.0
N631 N 0.03633 0.48584 0.37656 0.0
C632 C 0.06156 0.53689 0.38579 0.0
C633 C 0.04503 0.55231 0.36837 0.0
C634 C 0.02404 0.53422 0.35512 0.0
C635 C 0.01996 0.50084 0.3595 0.0
C636 C 0.93847 0.47437 0.39495 0.0
C637 C 0.96621 0.42289 0.37174 0.0
C638 C 0.97131 0.47043 0.39455 0.0
N639 N 0.98479 0.44491 0.38303 0.0
C640 C 0.93328 0.42609 0.37175 0.0
C641 C 0.91938 0.45202 0.38345 0.0
C642 C 0.03848 0.36703 0.37944 0.0
C643 C 0.14769 0.39239 0.42382 0.0
C644 C 0.11956 0.3507 0.39281 0.0
C645 C 0.13427 0.33762 0.41196 0.0
C646 C 0.14846 0.35866 0.42753 0.0
N647 N 0.11915 0.38381 0.38916 0.0
C648 C 0.13275 0.40459 0.40447 0.0
Co649 Co 0.47759 0.5696 0.38123 0.0
Co650 Co 0.40563 0.59638 0.36338 0.0
O651 O 0.43114 0.56569 0.38138 0.0
C652 C 0.46422 0.56039 0.43058 0.0
O653 O 0.44261 0.58349 0.4295 0.0
C654 C 0.36839 0.53256 0.36275 0.0
O655 O 0.39029 0.51652 0.37397 0.0
O656 O 0.42853 0.58185 0.33572 0.0
O657 O 0.47785 0.58644 0.34919 0.0
H658 H 0.39067 0.68337 0.30408 0.0
H659 H 0.44883 0.50611 0.39421 0.0
O660 O 0.47954 0.55218 0.41292 0.0
H661 H 0.51651 0.48138 0.32838 0.0
H662 H 0.58893 0.53357 0.3991 0.0
H663 H 0.52269 0.6205 0.36558 0.0
H664 H 0.51334 0.53759 0.34352 0.0
H665 H 0.53081 0.52799 0.39809 0.0
O666 O 0.37225 0.56253 0.35745 0.0
H667 H 0.42129 0.64521 0.32792 0.0
H668 H 0.3366 0.6117 0.3591 0.0
H669 H 0.58074 0.62695 0.36606 0.0
H670 H 0.45157 0.44943 0.37977 0.0
H671 H 0.61429 0.58328 0.38292 0.0
H672 H 0.48554 0.4368 0.34657 0.0
O673 O 0.47383 0.61524 0.39289 0.0
H674 H 0.35085 0.57943 0.43823 0.0
H675 H 0.38731 0.66127 0.38264 0.0
H676 H 0.36064 0.67975 0.41743 0.0
H677 H 0.34203 0.63869 0.44549 0.0
H678 H 0.37798 0.56206 0.40343 0.0
H679 H 0.30506 0.64921 0.33539 0.0
H680 H 0.33211 0.68552 0.30772 0.0
O681 O 0.43707 0.63237 0.36841 0.0
C682 C 0.45836 0.58386 0.33277 0.0
C683 C 0.37861 0.66773 0.31612 0.0
C684 C 0.33057 0.64854 0.33367 0.0
N685 N 0.38082 0.62639 0.34501 0.0
C686 C 0.39584 0.64613 0.32971 0.0
C687 C 0.34857 0.62727 0.34701 0.0
C688 C 0.34576 0.66891 0.31816 0.0
C689 C 0.46375 0.50076 0.37982 0.0
N690 N 0.48078 0.52516 0.36969 0.0
C691 C 0.46518 0.46864 0.37169 0.0
C692 C 0.48422 0.46158 0.35306 0.0
C693 C 0.50158 0.48658 0.34283 0.0
C694 C 0.49958 0.51841 0.35143 0.0
C695 C 0.57458 0.55275 0.39169 0.0
C696 C 0.53712 0.60132 0.37286 0.0
C697 C 0.54163 0.54978 0.39113 0.0
N698 N 0.52336 0.57383 0.38169 0.0
C699 C 0.56998 0.60514 0.37312 0.0
C700 C 0.58879 0.58064 0.3826 0.0
C701 C 0.45825 0.63811 0.38327 0.0
C702 C 0.35858 0.59755 0.42603 0.0
C703 C 0.37924 0.64318 0.3947 0.0
C704 C 0.36414 0.65383 0.4144 0.0
C705 C 0.35371 0.6308 0.43013 0.0
N706 N 0.38367 0.61047 0.39065 0.0
C707 C 0.37377 0.58781 0.40614 0.0
Co708 Co 0.47752 0.43813 0.88253 0.0
Co709 Co 0.40806 0.40586 0.86325 0.0
O710 O 0.43099 0.43651 0.88297 0.0
C711 C 0.49406 0.43725 0.93114 0.0
O712 O 0.51133 0.41135 0.92644 0.0
C713 C 0.36589 0.46611 0.86579 0.0
O714 O 0.38706 0.4831 0.87705 0.0
O715 O 0.4292 0.42559 0.83643 0.0
O716 O 0.47905 0.4263 0.84946 0.0
H717 H 0.3999 0.32507 0.79927 0.0
H718 H 0.443 0.49562 0.90073 0.0
O719 O 0.47722 0.45038 0.91562 0.0
H720 H 0.5044 0.538 0.83606 0.0
H721 H 0.5847 0.48582 0.90096 0.0
H722 H 0.52761 0.39493 0.86401 0.0
H723 H 0.50773 0.47973 0.84681 0.0
H724 H 0.52632 0.48426 0.90095 0.0
O725 O 0.37176 0.43697 0.85937 0.0
H726 H 0.42741 0.36303 0.82512 0.0
H727 H 0.3406 0.38459 0.85826 0.0
H728 H 0.586 0.39555 0.8636 0.0
H729 H 0.43935 0.5542 0.89075 0.0
H730 H 0.61494 0.44124 0.88218 0.0
H731 H 0.47012 0.57573 0.85815 0.0
O732 O 0.47883 0.39073 0.89059 0.0
H733 H 0.35273 0.409 0.93871 0.0
H734 H 0.39559 0.33746 0.87888 0.0
H735 H 0.37089 0.31267 0.91253 0.0
H736 H 0.34904 0.34851 0.94271 0.0
H737 H 0.37802 0.43275 0.90496 0.0
H738 H 0.31212 0.34716 0.83259 0.0
H739 H 0.34182 0.31695 0.80291 0.0
O740 O 0.44254 0.37258 0.8661 0.0
C741 C 0.45901 0.42729 0.83328 0.0
C742 C 0.3867 0.33803 0.81218 0.0
C743 C 0.33743 0.35046 0.83086 0.0
N744 N 0.38571 0.37589 0.84329 0.0
C745 C 0.40217 0.35952 0.8269 0.0
C746 C 0.35369 0.37171 0.8453 0.0
C747 C 0.35412 0.33351 0.81421 0.0
C748 C 0.45663 0.50483 0.88662 0.0
N749 N 0.4755 0.48422 0.87437 0.0
C750 C 0.45439 0.53801 0.881 0.0
C751 C 0.47163 0.55007 0.86269 0.0
C752 C 0.49084 0.52891 0.85028 0.0
C753 C 0.4925 0.49588 0.85639 0.0
C754 C 0.57237 0.46581 0.89278 0.0
C755 C 0.54002 0.41493 0.8721 0.0
C756 C 0.53931 0.4648 0.89271 0.0
N757 N 0.52355 0.43956 0.88243 0.0
C758 C 0.57309 0.41514 0.87182 0.0
C759 C 0.58931 0.44078 0.88225 0.0
C760 C 0.46508 0.36753 0.88 0.0
C761 C 0.36195 0.39312 0.9256 0.0
C762 C 0.38618 0.35329 0.89191 0.0
C763 C 0.37218 0.33907 0.91094 0.0
C764 C 0.35994 0.35919 0.92786 0.0
N765 N 0.38779 0.38663 0.88967 0.0
C766 C 0.37614 0.40647 0.90633 0.0
Co767 Co 0.02477 0.5637 0.88138 0.0
Co768 Co 0.0964 0.59471 0.86598 0.0
O769 O 0.07132 0.56233 0.8828 0.0
C770 C 0.03638 0.55479 0.93088 0.0
O771 O 0.05665 0.57919 0.93028 0.0
C772 C 0.13627 0.53265 0.86522 0.0
O773 O 0.11435 0.51509 0.87526 0.0
O774 O 0.07566 0.58012 0.83746 0.0
O775 O 0.0254 0.58095 0.84948 0.0
H776 H 0.11073 0.68437 0.80853 0.0
H777 H 0.05594 0.50168 0.89499 0.0
O778 O 0.02216 0.54586 0.91291 0.0
H779 H 0.99361 0.47414 0.82701 0.0
H780 H 0.9147 0.52114 0.89611 0.0
H781 H 0.97784 0.61203 0.86459 0.0
H782 H 0.99305 0.53026 0.84245 0.0
H783 H 0.97305 0.51895 0.89668 0.0
O784 O 0.13151 0.56268 0.86052 0.0
H785 H 0.08055 0.64399 0.83086 0.0
H786 H 0.16486 0.61339 0.86395 0.0
H787 H 0.91955 0.6151 0.86352 0.0
H788 H 0.05689 0.44511 0.88026 0.0
H789 H 0.88756 0.56942 0.87936 0.0
H790 H 0.02563 0.43106 0.84598 0.0
O791 O 0.02528 0.60939 0.89326 0.0
H792 H 0.14795 0.57749 0.94196 0.0
H793 H 0.11089 0.65966 0.88682 0.0
H794 H 0.13486 0.67802 0.92264 0.0
H795 H 0.15377 0.6368 0.95049 0.0
H796 H 0.12345 0.56023 0.90613 0.0
H797 H 0.19599 0.65315 0.84176 0.0
H798 H 0.16889 0.68914 0.81391 0.0
O799 O 0.06319 0.62896 0.87061 0.0
C800 C 0.04595 0.58048 0.83367 0.0
C801 C 0.1228 0.66889 0.82066 0.0
C802 C 0.17065 0.65135 0.83929 0.0
N803 N 0.12084 0.62647 0.84881 0.0
C804 C 0.10582 0.64602 0.83339 0.0
C805 C 0.15289 0.62879 0.85175 0.0
C806 C 0.15543 0.67153 0.82367 0.0
C807 C 0.04217 0.49572 0.88013 0.0
N808 N 0.02458 0.51929 0.86957 0.0
C809 C 0.04284 0.46366 0.87184 0.0
C810 C 0.02532 0.4558 0.85259 0.0
C811 C 0.00737 0.47996 0.84193 0.0
C812 C 0.00726 0.51175 0.85071 0.0
C813 C 0.92837 0.54118 0.88913 0.0
C814 C 0.9641 0.59198 0.87143 0.0
C815 C 0.96143 0.54012 0.88946 0.0
N816 N 0.97886 0.56527 0.88057 0.0
C817 C 0.93109 0.59389 0.87081 0.0
C818 C 0.91316 0.56827 0.87972 0.0
C819 C 0.04032 0.63324 0.88436 0.0
C820 C 0.14006 0.59569 0.92988 0.0
C821 C 0.11905 0.64151 0.89879 0.0
C822 C 0.13264 0.65209 0.91907 0.0
C823 C 0.14324 0.62897 0.93468 0.0
N824 N 0.11625 0.60881 0.89407 0.0
C825 C 0.12636 0.58603 0.90942 0.0
Co826 Co 0.98015 0.56445 0.62706 0.0
Co827 Co 0.90826 0.59467 0.64245 0.0
O828 O 0.93362 0.56266 0.62551 0.0
C829 C 0.96912 0.55597 0.57746 0.0
O830 O 0.9486 0.58014 0.57807 0.0
C831 C 0.86862 0.5324 0.64265 0.0
O832 O 0.89059 0.51511 0.63244 0.0
O833 O 0.92892 0.57983 0.67094 0.0
O834 O 0.97921 0.58145 0.65902 0.0
H835 H 0.89309 0.68342 0.70044 0.0
H836 H 0.94953 0.50228 0.61319 0.0
O837 O 0.98313 0.5469 0.59547 0.0
H838 H 0.01179 0.47476 0.68122 0.0
H839 H 0.09068 0.52307 0.61256 0.0
H840 H 0.02655 0.61314 0.64411 0.0
H841 H 0.01198 0.531 0.66595 0.0
H842 H 0.03236 0.5203 0.61181 0.0
O843 O 0.87329 0.56236 0.64762 0.0
H844 H 0.92364 0.64355 0.67795 0.0
H845 H 0.83969 0.6129 0.64439 0.0
H846 H 0.0848 0.61678 0.64538 0.0
H847 H 0.94894 0.44559 0.62774 0.0
H848 H 0.11729 0.57152 0.62952 0.0
H849 H 0.98016 0.43156 0.66204 0.0
O850 O 0.97926 0.6102 0.61531 0.0
H851 H 0.85727 0.57826 0.56619 0.0
H852 H 0.8936 0.65983 0.622 0.0
H853 H 0.86973 0.67857 0.58624 0.0
H854 H 0.8512 0.63767 0.55805 0.0
H855 H 0.88164 0.56061 0.60197 0.0
H856 H 0.80821 0.65214 0.66675 0.0
H857 H 0.83494 0.68789 0.69493 0.0
O858 O 0.94131 0.6292 0.63813 0.0
C859 C 0.95861 0.58052 0.67479 0.0
C860 C 0.88119 0.66804 0.68817 0.0
C861 C 0.83355 0.65046 0.66928 0.0
N862 N 0.88354 0.62604 0.65975 0.0
C863 C 0.89837 0.64546 0.67534 0.0
C864 C 0.8515 0.6282 0.65672 0.0
C865 C 0.84856 0.67052 0.68508 0.0
C866 C 0.96328 0.49632 0.62806 0.0
N867 N 0.98066 0.51996 0.63873 0.0
C868 C 0.96281 0.46419 0.63625 0.0
C869 C 0.98032 0.45635 0.6555 0.0
C870 C 0.99805 0.48058 0.66628 0.0
C871 C 0.99795 0.51243 0.6576 0.0
C872 C 0.07679 0.54293 0.61955 0.0
C873 C 0.0405 0.59327 0.63727 0.0
C874 C 0.04374 0.54154 0.61912 0.0
N875 N 0.02604 0.56646 0.62801 0.0
C876 C 0.07349 0.5955 0.63799 0.0
C877 C 0.0917 0.57011 0.62907 0.0
C878 C 0.96403 0.63383 0.6243 0.0
C879 C 0.86499 0.59633 0.57842 0.0
C880 C 0.88557 0.64181 0.60989 0.0
C881 C 0.87206 0.65261 0.58964 0.0
C882 C 0.86166 0.62966 0.57384 0.0
N883 N 0.8885 0.60905 0.61439 0.0
C884 C 0.87861 0.58644 0.59886 0.0
Co885 Co 0.52685 0.43912 0.62509 0.0
Co886 Co 0.59626 0.40603 0.64384 0.0
O887 O 0.57338 0.43713 0.62441 0.0
C888 C 0.50978 0.439 0.57657 0.0
O889 O 0.49241 0.41313 0.5812 0.0
C890 C 0.63888 0.46601 0.64151 0.0
O891 O 0.61775 0.48332 0.63044 0.0
O892 O 0.5755 0.42553 0.67089 0.0
O893 O 0.52556 0.42692 0.65809 0.0
H894 H 0.6044 0.32429 0.70724 0.0
H895 H 0.56169 0.49652 0.60703 0.0
O896 O 0.5269 0.45178 0.59207 0.0
H897 H 0.50126 0.53868 0.67222 0.0
H898 H 0.41989 0.48795 0.60749 0.0
H899 H 0.47659 0.39612 0.64363 0.0
H900 H 0.49736 0.48056 0.66119 0.0
H901 H 0.47825 0.4859 0.60719 0.0
O902 O 0.63283 0.43682 0.64776 0.0
H903 H 0.57694 0.36282 0.68178 0.0
H904 H 0.66361 0.38418 0.64836 0.0
H905 H 0.41823 0.39723 0.64434 0.0
H906 H 0.56591 0.55496 0.61729 0.0
H907 H 0.38947 0.44339 0.62618 0.0
H908 H 0.53563 0.57637 0.65015 0.0
O909 O 0.52506 0.39182 0.61678 0.0
H910 H 0.65096 0.40984 0.56815 0.0
H911 H 0.60807 0.33778 0.62769 0.0
H912 H 0.63229 0.31328 0.59377 0.0
H913 H 0.65416 0.34938 0.56374 0.0
H914 H 0.62615 0.43329 0.60216 0.0
H915 H 0.69204 0.34619 0.67366 0.0
H916 H 0.66237 0.31578 0.70328 0.0
O917 O 0.56152 0.37306 0.64092 0.0
C918 C 0.54573 0.42745 0.67418 0.0
C919 C 0.61757 0.33733 0.69436 0.0
C920 C 0.66676 0.34965 0.67553 0.0
N921 N 0.61857 0.37562 0.6635 0.0
C922 C 0.60214 0.35914 0.67985 0.0
C923 C 0.65053 0.37123 0.66131 0.0
C924 C 0.6501 0.33259 0.69215 0.0
C925 C 0.54827 0.50569 0.62125 0.0
N926 N 0.52935 0.4851 0.63348 0.0
C927 C 0.55083 0.53879 0.62702 0.0
C928 C 0.53386 0.55078 0.64548 0.0
C929 C 0.5146 0.52964 0.65788 0.0
C930 C 0.51262 0.49669 0.65161 0.0
C931 C 0.43214 0.46772 0.61549 0.0
C932 C 0.46427 0.41632 0.63572 0.0
C933 C 0.46519 0.46644 0.61539 0.0
N934 N 0.48085 0.44094 0.62543 0.0
C935 C 0.43121 0.41681 0.63617 0.0
C936 C 0.41509 0.44271 0.62597 0.0
C937 C 0.53874 0.36838 0.62716 0.0
C938 C 0.64174 0.39384 0.5812 0.0
C939 C 0.61749 0.35372 0.61473 0.0
C940 C 0.63122 0.33966 0.59555 0.0
C941 C 0.64347 0.35993 0.57871 0.0
N942 N 0.61615 0.38704 0.6172 0.0
C943 C 0.62781 0.40702 0.60061 0.0
C944 C 0.32274 0.00261 0.13711 0.0
C945 C 0.33467 0.97688 0.15032 0.0
C946 C 0.29046 0.011 0.13789 0.0
C947 C 0.26977 0.99354 0.15246 0.0
C948 C 0.282 0.96849 0.16653 0.0
C949 C 0.31422 0.96033 0.16518 0.0
C950 C 0.27826 0.03775 0.12252 0.0
C951 C 0.26091 0.94973 0.1826 0.0
C952 C 0.19128 0.03459 0.16583 0.0
C953 C 0.17059 0.01875 0.15076 0.0
C954 C 0.22338 0.02593 0.16707 0.0
C955 C 0.23525 0.00112 0.15267 0.0
C956 C 0.21428 0.98423 0.13797 0.0
C957 C 0.1821 0.99309 0.13732 0.0
C958 C 0.24476 0.0441 0.18328 0.0
C959 C 0.22611 0.95777 0.12224 0.0
H960 H 0.33832 0.01528 0.12545 0.0
H961 H 0.32331 0.94047 0.17551 0.0
H962 H 0.26057 0.02742 0.1106 0.0
H963 H 0.26609 0.05691 0.1326 0.0
H964 H 0.29749 0.04947 0.11257 0.0
H965 H 0.27443 0.9322 0.19327 0.0
H966 H 0.24804 0.96698 0.19383 0.0
H967 H 0.24287 0.93584 0.17288 0.0
H968 H 0.18249 0.05439 0.17634 0.0
H969 H 0.16633 0.981 0.12549 0.0
H970 H 0.26253 0.05845 0.17363 0.0
H971 H 0.25794 0.02647 0.19404 0.0
H972 H 0.23142 0.06114 0.19441 0.0
H973 H 0.24341 0.96837 0.11015 0.0
H974 H 0.20662 0.94616 0.11247 0.0
H975 H 0.23863 0.93847 0.13199 0.0
C976 C 0.67068 0.00969 0.34773 0.0
C977 C 0.66628 0.97579 0.34998 0.0
C978 C 0.70126 0.02293 0.34503 0.0
C979 C 0.72785 0.00169 0.34431 0.0
C980 C 0.72332 0.96743 0.3458 0.0
C981 C 0.6927 0.95497 0.34868 0.0
C982 C 0.70524 0.05964 0.34363 0.0
C983 C 0.75091 0.94387 0.34489 0.0
C984 C 0.80698 0.0319 0.32152 0.0
C985 C 0.82368 0.03839 0.34157 0.0
C986 C 0.77567 0.02021 0.32211 0.0
C987 C 0.76063 0.01509 0.34324 0.0
C988 C 0.77745 0.02131 0.36352 0.0
C989 C 0.80875 0.0327 0.36244 0.0
C990 C 0.75862 0.01344 0.30013 0.0
C991 C 0.76231 0.01612 0.3864 0.0
H992 H 0.65037 0.02588 0.34871 0.0
H993 H 0.68953 0.92868 0.35003 0.0
H994 H 0.71904 0.06844 0.35842 0.0
H995 H 0.71881 0.06628 0.32821 0.0
H996 H 0.68216 0.07269 0.34329 0.0
H997 H 0.74316 0.91784 0.34499 0.0
H998 H 0.76518 0.94828 0.32942 0.0
H999 H 0.76666 0.94798 0.35965 0.0
H1000 H 0.81823 0.03634 0.30532 0.0
H1001 H 0.82128 0.03783 0.37805 0.0
H1002 H 0.73675 0.02844 0.29914 0.0
H1003 H 0.7513 0.98733 0.29943 0.0
H1004 H 0.77354 0.01888 0.28511 0.0
H1005 H 0.74027 0.03081 0.3877 0.0
H1006 H 0.77828 0.02307 0.40056 0.0
H1007 H 0.7556 0.98999 0.38845 0.0
C1008 C 0.82182 0.00306 0.87726 0.0
C1009 C 0.83323 0.97718 0.86397 0.0
C1010 C 0.78962 0.01185 0.87672 0.0
C1011 C 0.76849 0.99454 0.86239 0.0
C1012 C 0.78014 0.9692 0.84835 0.0
C1013 C 0.81229 0.96077 0.84937 0.0
C1014 C 0.77802 0.039 0.89197 0.0
C1015 C 0.75852 0.95049 0.83259 0.0
C1016 C 0.68071 0.9953 0.87713 0.0
C1017 C 0.66941 0.02033 0.86302 0.0
C1018 C 0.7129 0.98644 0.87698 0.0
C1019 C 0.73413 0.00277 0.86219 0.0
C1020 C 0.72258 0.02717 0.84732 0.0
C1021 C 0.69044 0.03572 0.84797 0.0
C1022 C 0.72438 0.96031 0.89311 0.0
C1023 C 0.74431 0.0448 0.83106 0.0
H1024 H 0.83778 0.01568 0.88868 0.0
H1025 H 0.82095 0.94084 0.83892 0.0
H1026 H 0.76607 0.05824 0.88181 0.0
H1027 H 0.76028 0.02915 0.90404 0.0
H1028 H 0.79755 0.05052 0.90176 0.0
H1029 H 0.77154 0.93222 0.82221 0.0
H1030 H 0.74012 0.93746 0.84252 0.0
H1031 H 0.74611 0.96771 0.82108 0.0
H1032 H 0.66468 0.98349 0.88891 0.0
H1033 H 0.68187 0.05497 0.8369 0.0
H1034 H 0.742 0.97096 0.90495 0.0
H1035 H 0.73643 0.94045 0.88362 0.0
H1036 H 0.70477 0.94943 0.90315 0.0
H1037 H 0.76262 0.05852 0.84064 0.0
H1038 H 0.73135 0.06232 0.82003 0.0
H1039 H 0.75683 0.02682 0.82018 0.0
C1040 C 0.17666 0.00731 0.63216 0.0
C1041 C 0.16569 0.98142 0.64562 0.0
C1042 C 0.20881 0.01634 0.63238 0.0
C1043 C 0.23029 0.9993 0.6466 0.0
C1044 C 0.21903 0.97405 0.66089 0.0
C1045 C 0.18694 0.96535 0.66016 0.0
C1046 C 0.22001 0.04336 0.61685 0.0
C1047 C 0.24101 0.95565 0.67656 0.0
C1048 C 0.31776 0.99948 0.63102 0.0
C1049 C 0.32946 0.02456 0.64491 0.0
C1050 C 0.28552 0.99088 0.63146 0.0
C1051 C 0.26464 0.00752 0.64633 0.0
C1052 C 0.27657 0.03206 0.66094 0.0
C1053 C 0.30876 0.04034 0.65999 0.0
C1054 C 0.27361 0.96462 0.61559 0.0
C1055 C 0.25522 0.05 0.67728 0.0
H1056 H 0.16044 0.01962 0.62076 0.0
H1057 H 0.17858 0.9454 0.67073 0.0
H1058 H 0.23231 0.06265 0.62674 0.0
H1059 H 0.23735 0.03336 0.60455 0.0
H1060 H 0.20021 0.05483 0.60733 0.0
H1061 H 0.22823 0.93764 0.68731 0.0
H1062 H 0.25911 0.94235 0.66651 0.0
H1063 H 0.25378 0.97308 0.68772 0.0
H1064 H 0.33354 0.98738 0.61921 0.0
H1065 H 0.31764 0.05965 0.67089 0.0
H1066 H 0.25563 0.97514 0.60397 0.0
H1067 H 0.26185 0.94481 0.62534 0.0
H1068 H 0.29294 0.95368 0.60532 0.0
H1069 H 0.23667 0.0635 0.6678 0.0
H1070 H 0.26842 0.06775 0.68798 0.0
H1071 H 0.24298 0.03223 0.68849 0.0
C1072 C 0.80887 0.46241 0.14412 0.0
C1073 C 0.82388 0.45688 0.16499 0.0
C1074 C 0.77766 0.47409 0.14307 0.0
C1075 C 0.76106 0.48077 0.16336 0.0
C1076 C 0.77615 0.47566 0.18448 0.0
C1077 C 0.80735 0.46367 0.18505 0.0
C1078 C 0.76243 0.47923 0.1202 0.0
C1079 C 0.75935 0.48293 0.20647 0.0
C1080 C 0.69436 0.54237 0.15839 0.0
C1081 C 0.66742 0.52218 0.15756 0.0
C1082 C 0.72476 0.5292 0.16083 0.0
C1083 C 0.72857 0.49486 0.16234 0.0
C1084 C 0.70152 0.47423 0.16194 0.0
C1085 C 0.67116 0.48817 0.15968 0.0
C1086 C 0.75288 0.55212 0.16138 0.0
C1087 C 0.70474 0.43745 0.16339 0.0
H1088 H 0.82127 0.45699 0.12851 0.0
H1089 H 0.81868 0.45937 0.20124 0.0
H1090 H 0.74008 0.46502 0.1191 0.0
H1091 H 0.75627 0.50547 0.11798 0.0
H1092 H 0.77815 0.4717 0.10605 0.0
H1093 H 0.77418 0.47714 0.22148 0.0
H1094 H 0.75272 0.50923 0.20714 0.0
H1095 H 0.73711 0.46853 0.20751 0.0
H1096 H 0.69177 0.56871 0.15711 0.0
H1097 H 0.65048 0.47245 0.15906 0.0
H1098 H 0.76839 0.54737 0.14659 0.0
H1099 H 0.7672 0.54767 0.17682 0.0
H1100 H 0.74572 0.57833 0.16108 0.0
H1101 H 0.71837 0.4283 0.14863 0.0
H1102 H 0.68139 0.4249 0.16372 0.0
H1103 H 0.71815 0.43057 0.17882 0.0
C1104 C 0.32501 0.49375 0.37377 0.0
C1105 C 0.33644 0.51842 0.35943 0.0
C1106 C 0.29302 0.48417 0.37303 0.0
C1107 C 0.2722 0.49932 0.35737 0.0
C1108 C 0.28402 0.52313 0.34215 0.0
C1109 C 0.31591 0.5325 0.34345 0.0
C1110 C 0.28122 0.45879 0.38961 0.0
C1111 C 0.26277 0.53946 0.32494 0.0
C1112 C 0.19447 0.4562 0.34472 0.0
C1113 C 0.17309 0.47363 0.35837 0.0
C1114 C 0.22664 0.46465 0.34391 0.0
C1115 C 0.23786 0.49096 0.35729 0.0
C1116 C 0.2163 0.50916 0.37073 0.0
C1117 C 0.18409 0.50042 0.37098 0.0
C1118 C 0.24872 0.44504 0.32905 0.0
C1119 C 0.22743 0.53727 0.38533 0.0
H1120 H 0.34065 0.48302 0.38629 0.0
H1121 H 0.32464 0.55151 0.33224 0.0
H1122 H 0.26336 0.47 0.40101 0.0
H1123 H 0.26937 0.43845 0.38047 0.0
H1124 H 0.30063 0.44845 0.40012 0.0
H1125 H 0.27609 0.556 0.31342 0.0
H1126 H 0.2504 0.52069 0.31462 0.0
H1127 H 0.24434 0.55403 0.33375 0.0
H1128 H 0.1861 0.43555 0.33483 0.0
H1129 H 0.16777 0.51379 0.38171 0.0
H1130 H 0.26684 0.43267 0.33964 0.0
H1131 H 0.26146 0.46158 0.31724 0.0
H1132 H 0.23601 0.42614 0.31901 0.0
H1133 H 0.24497 0.52826 0.39786 0.0
H1134 H 0.20764 0.54921 0.39457 0.0
H1135 H 0.23947 0.55598 0.37477 0.0
C1136 C 0.19002 0.53639 0.84801 0.0
C1137 C 0.16889 0.51997 0.86244 0.0
C1138 C 0.2222 0.52802 0.84727 0.0
C1139 C 0.23366 0.50272 0.86144 0.0
C1140 C 0.21231 0.48531 0.87554 0.0
C1141 C 0.18009 0.49403 0.87578 0.0
C1142 C 0.24405 0.54684 0.83175 0.0
C1143 C 0.22371 0.4582 0.89092 0.0
C1144 C 0.31246 0.46249 0.84795 0.0
C1145 C 0.333 0.47818 0.8632 0.0
C1146 C 0.28022 0.47056 0.84697 0.0
C1147 C 0.26808 0.49481 0.8617 0.0
C1148 C 0.2888 0.5114 0.87673 0.0
C1149 C 0.3211 0.503 0.87721 0.0
C1150 C 0.25905 0.45267 0.83047 0.0
C1151 C 0.27668 0.53738 0.89273 0.0
H1152 H 0.18151 0.55638 0.83755 0.0
H1153 H 0.16396 0.48143 0.8871 0.0
H1154 H 0.26201 0.56018 0.8419 0.0
H1155 H 0.25698 0.52968 0.8205 0.0
H1156 H 0.23112 0.56486 0.82109 0.0
H1157 H 0.204 0.44642 0.90035 0.0
H1158 H 0.2362 0.43915 0.88093 0.0
H1159 H 0.24095 0.46821 0.9033 0.0
H1160 H 0.3215 0.44339 0.83694 0.0
H1161 H 0.33676 0.51505 0.88914 0.0
H1162 H 0.24669 0.47049 0.81937 0.0
H1163 H 0.24059 0.43887 0.83984 0.0
H1164 H 0.27241 0.43519 0.81967 0.0
H1165 H 0.26475 0.55718 0.88308 0.0
H1166 H 0.29591 0.54838 0.90307 0.0
H1167 H 0.25879 0.52656 0.90429 0.0
C1168 C 0.69239 0.46174 0.65916 0.0
C1169 C 0.67185 0.47784 0.64412 0.0
C1170 C 0.72466 0.46971 0.66018 0.0
C1171 C 0.73683 0.49428 0.64571 0.0
C1172 C 0.71612 0.51123 0.63087 0.0
C1173 C 0.6838 0.50293 0.63033 0.0
C1174 C 0.74581 0.45142 0.67648 0.0
C1175 C 0.72828 0.53755 0.61514 0.0
C1176 C 0.81485 0.53562 0.65989 0.0
C1177 C 0.83601 0.51957 0.64529 0.0
C1178 C 0.78269 0.52718 0.66052 0.0
C1179 C 0.77125 0.5022 0.64608 0.0
C1180 C 0.79264 0.48514 0.63181 0.0
C1181 C 0.82485 0.49392 0.63167 0.0
C1182 C 0.76081 0.54562 0.67624 0.0
C1183 C 0.78127 0.45838 0.61614 0.0
H1184 H 0.68332 0.44243 0.66998 0.0
H1185 H 0.66815 0.51529 0.61856 0.0
H1186 H 0.76431 0.43789 0.66697 0.0
H1187 H 0.75813 0.46897 0.68781 0.0
H1188 H 0.73245 0.43364 0.68706 0.0
H1189 H 0.70907 0.54875 0.60488 0.0
H1190 H 0.74016 0.55716 0.625 0.0
H1191 H 0.74621 0.527 0.6035 0.0
H1192 H 0.82334 0.55539 0.67057 0.0
H1193 H 0.841 0.48161 0.62022 0.0
H1194 H 0.74786 0.52818 0.68728 0.0
H1195 H 0.74286 0.55919 0.66622 0.0
H1196 H 0.77371 0.5634 0.6871 0.0
H1197 H 0.76875 0.43911 0.62591 0.0
H1198 H 0.80101 0.44681 0.60662 0.0
H1199 H 0.76408 0.46866 0.60383 0.0
C1200 C 1.00059 0.06785 0.30732 0.0
C1201 C 0.96896 0.07738 0.31074 0.0
C1202 C 0.01429 0.06806 0.28571 0.0
C1203 C 0.99626 0.07882 0.26695 0.0
C1204 C 0.96446 0.08892 0.27023 0.0
C1205 C 0.95108 0.08779 0.29204 0.0
C1206 C 0.04806 0.05649 0.28294 0.0
C1207 C 0.94462 0.10104 0.25069 0.0
C1208 C 0.04168 0.10499 0.21416 0.0
C1209 C 0.03773 0.07759 0.20017 0.0
C1210 C 0.028 0.10595 0.23587 0.0
C1211 C 0.01053 0.07858 0.24385 0.0
C1212 C 0.0073 0.05053 0.22993 0.0
C1213 C 0.02076 0.05051 0.20823 0.0
C1214 C 0.0317 0.13645 0.25009 0.0
C1215 C 0.98961 0.02051 0.23795 0.0
H1216 H 0.01484 0.06004 0.32157 0.0
H1217 H 0.92676 0.09552 0.29447 0.0
H1218 H 0.04891 0.03563 0.2709 0.0
H1219 H 0.0628 0.07641 0.27571 0.0
H1220 H 0.05876 0.04855 0.29922 0.0
H1221 H 0.92074 0.10925 0.25617 0.0
H1222 H 0.95674 0.12178 0.24216 0.0
H1223 H 0.94178 0.08126 0.23796 0.0
H1224 H 0.05455 0.12606 0.20785 0.0
H1225 H 0.01823 0.02909 0.1976 0.0
H1226 H 0.04359 0.13036 0.2663 0.0
H1227 H 0.00803 0.14655 0.25432 0.0
H1228 H 0.04569 0.15573 0.24134 0.0
H1229 H 1.00049 0.01107 0.25376 0.0
H1230 H 0.9896 0.00056 0.22514 0.0
H1231 H 0.96472 0.02699 0.24192 0.0
C1232 C 0.50653 0.92331 0.20153 0.0
C1233 C 0.47399 0.91772 0.19824 0.0
C1234 C 0.52 0.92308 0.22322 0.0
C1235 C 0.5007 0.91635 0.24221 0.0
C1236 C 0.46801 0.9098 0.23906 0.0
C1237 C 0.45498 0.91081 0.21713 0.0
C1238 C 0.55483 0.93069 0.22583 0.0
C1239 C 0.44677 0.90199 0.25888 0.0
C1240 C 0.54172 0.89101 0.29698 0.0
C1241 C 0.54041 0.92015 0.30944 0.0
C1242 C 0.52869 0.88927 0.27508 0.0
C1243 C 0.51457 0.91753 0.26541 0.0
C1244 C 0.51412 0.94726 0.27778 0.0
C1245 C 0.52683 0.9481 0.2997 0.0
C1246 C 0.52932 0.85704 0.26255 0.0
C1247 C 0.50002 0.97815 0.26793 0.0
H1248 H 0.52167 0.92825 0.18714 0.0
H1249 H 0.42993 0.90608 0.2148 0.0
H1250 H 0.5579 0.95281 0.23653 0.0
H1251 H 0.56703 0.91015 0.23451 0.0
H1252 H 0.56665 0.93506 0.2093 0.0
H1253 H 0.42232 0.89564 0.25349 0.0
H1254 H 0.45667 0.88118 0.26869 0.0
H1255 H 0.44562 0.92338 0.27045 0.0
H1256 H 0.55183 0.86928 0.30465 0.0
H1257 H 0.52619 0.97071 0.30927 0.0
H1258 H 0.54174 0.85997 0.24613 0.0
H1259 H 0.50476 0.84909 0.25873 0.0
H1260 H 0.54129 0.8374 0.27238 0.0
H1261 H 0.51198 0.98433 0.25175 0.0
H1262 H 0.50217 0.99941 0.27959 0.0
H1263 H 0.47459 0.97423 0.26408 0.0
C1264 C 0.0073 0.90008 0.70535 0.0
C1265 C 0.03268 0.92039 0.69929 0.0
C1266 C 0.99545 0.8999 0.72754 0.0
C1267 C 0.00853 0.92148 0.74383 0.0
C1268 C 0.03403 0.94229 0.73769 0.0
C1269 C 0.04619 0.94107 0.71555 0.0
C1270 C 0.96901 0.87654 0.73355 0.0
C1271 C 0.04797 0.96635 0.75436 0.0
C1272 C 0.95649 0.94136 0.79466 0.0
C1273 C 0.97072 0.92251 0.81165 0.0
C1274 C 0.96899 0.94187 0.7726 0.0
C1275 C 0.9956 0.9221 0.7673 0.0
C1276 C 0.00958 0.90249 0.78437 0.0
C1277 C 0.99731 0.9034 0.80644 0.0
C1278 C 0.954 0.96385 0.75505 0.0
C1279 C 0.03724 0.88022 0.77928 0.0
H1280 H 0.99693 0.88401 0.69274 0.0
H1281 H 0.06554 0.95708 0.71072 0.0
H1282 H 0.97612 0.86109 0.74816 0.0
H1283 H 0.94767 0.8905 0.73873 0.0
H1284 H 0.96253 0.86025 0.71921 0.0
H1285 H 0.06708 0.98147 0.74674 0.0
H1286 H 0.02915 0.9829 0.76076 0.0
H1287 H 0.0578 0.95308 0.76917 0.0
H1288 H 0.9361 0.95637 0.79879 0.0
H1289 H 0.00818 0.88863 0.81958 0.0
H1290 H 0.94449 0.9489 0.74093 0.0
H1291 H 0.97212 0.98053 0.7478 0.0
H1292 H 0.93444 0.97886 0.76216 0.0
H1293 H 0.03085 0.86298 0.76548 0.0
H1294 H 0.04474 0.86578 0.7943 0.0
H1295 H 0.05772 0.89487 0.7733 0.0
C1296 C 0.49419 0.09515 0.7033 0.0
C1297 C 0.4677 0.07602 0.69785 0.0
C1298 C 0.50685 0.09507 0.72526 0.0
C1299 C 0.49338 0.07442 0.74195 0.0
C1300 C 0.46688 0.05461 0.73639 0.0
C1301 C 0.45397 0.05612 0.71447 0.0
C1302 C 0.53435 0.11742 0.73066 0.0
C1303 C 0.45246 0.03156 0.75352 0.0
C1304 C 0.54554 0.05462 0.79278 0.0
C1305 C 0.53222 0.07468 0.80947 0.0
C1306 C 0.53265 0.05366 0.77083 0.0
C1307 C 0.50664 0.07417 0.76533 0.0
C1308 C 0.49362 0.09498 0.7821 0.0
C1309 C 0.50621 0.09453 0.80407 0.0
C1310 C 0.54657 0.03042 0.75362 0.0
C1311 C 0.46665 0.11805 0.77677 0.0
H1312 H 0.50467 0.11071 0.69044 0.0
H1313 H 0.43368 0.04108 0.71013 0.0
H1314 H 0.528 0.13389 0.74491 0.0
H1315 H 0.55509 0.10275 0.73613 0.0
H1316 H 0.54143 0.1327 0.71594 0.0
H1317 H 0.43295 0.01666 0.7462 0.0
H1318 H 0.4709 0.01477 0.76021 0.0
H1319 H 0.44301 0.04565 0.76807 0.0
H1320 H 0.56545 0.03904 0.79708 0.0
H1321 H 0.49606 0.11021 0.81699 0.0
H1322 H 0.5563 0.04441 0.73911 0.0
H1323 H 0.52776 0.0141 0.74688 0.0
H1324 H 0.56575 0.01502 0.76088 0.0
H1325 H 0.47338 0.13445 0.76256 0.0
H1326 H 0.45994 0.1334 0.79154 0.0
H1327 H 0.44557 0.10394 0.77127 0.0
C1328 C 0.51226 0.60443 0.20374 0.0
C1329 C 0.53827 0.58448 0.19855 0.0
C1330 C 0.49958 0.60527 0.22569 0.0
C1331 C 0.51251 0.58473 0.24266 0.0
C1332 C 0.53878 0.5644 0.23745 0.0
C1333 C 0.55171 0.56495 0.2155 0.0
C1334 C 0.47231 0.62809 0.23067 0.0
C1335 C 0.55265 0.54147 0.25488 0.0
C1336 C 0.4975 0.60465 0.30463 0.0
C1337 C 0.47127 0.5848 0.30953 0.0
C1338 C 0.51088 0.6052 0.28289 0.0
C1339 C 0.49842 0.58452 0.26581 0.0
C1340 C 0.47213 0.56409 0.27077 0.0
C1341 C 0.45852 0.5649 0.2925 0.0
C1342 C 0.53816 0.62812 0.27813 0.0
C1343 C 0.45871 0.54103 0.25324 0.0
H1344 H 0.50194 0.61963 0.1906 0.0
H1345 H 0.57156 0.5492 0.21135 0.0
H1346 H 0.45107 0.6137 0.2355 0.0
H1347 H 0.47829 0.64416 0.24522 0.0
H1348 H 0.46616 0.64375 0.21593 0.0
H1349 H 0.57268 0.52686 0.24803 0.0
H1350 H 0.56117 0.55557 0.26973 0.0
H1351 H 0.53408 0.52439 0.26103 0.0
H1352 H 0.50731 0.62016 0.3178 0.0
H1353 H 0.43851 0.54922 0.29637 0.0
H1354 H 0.53205 0.64465 0.26386 0.0
H1355 H 0.55934 0.6139 0.27298 0.0
H1356 H 0.54444 0.64333 0.29308 0.0
H1357 H 0.44965 0.55516 0.23857 0.0
H1358 H 0.43914 0.52575 0.26007 0.0
H1359 H 0.47764 0.52459 0.24684 0.0
C1360 C 0.00387 0.44179 0.30535 0.0
C1361 C 0.03343 0.4271 0.30939 0.0
C1362 C 0.99033 0.44206 0.28365 0.0
C1363 C 0.00611 0.42621 0.26559 0.0
C1364 C 0.03573 0.41092 0.26955 0.0
C1365 C 0.04928 0.412 0.2913 0.0
C1366 C 0.95918 0.4595 0.28006 0.0
C1367 C 0.05294 0.39302 0.25087 0.0
C1368 C 0.9566 0.40209 0.21423 0.0
C1369 C 0.96581 0.42577 0.19834 0.0
C1370 C 0.96978 0.40166 0.23611 0.0
C1371 C 0.99185 0.42618 0.24248 0.0
C1372 C 1.00029 0.45083 0.22674 0.0
C1373 C 0.98755 0.45001 0.20481 0.0
C1374 C 0.96071 0.37448 0.2522 0.0
C1375 C 0.02284 0.4781 0.23304 0.0
H1376 H 0.99119 0.45324 0.31915 0.0
H1377 H 0.07194 0.40029 0.29422 0.0
H1378 H 0.96174 0.47828 0.26658 0.0
H1379 H 0.94092 0.44182 0.2743 0.0
H1380 H 0.95053 0.4717 0.29569 0.0
H1381 H 0.07499 0.38104 0.25696 0.0
H1382 H 0.03727 0.37403 0.24342 0.0
H1383 H 0.05918 0.41038 0.23713 0.0
H1384 H 0.93994 0.38321 0.20933 0.0
H1385 H 0.99445 0.46861 0.19277 0.0
H1386 H 0.94998 0.38489 0.26775 0.0
H1387 H 0.98221 0.36079 0.25745 0.0
H1388 H 0.94365 0.35696 0.24453 0.0
H1389 H 0.01416 0.491 0.24837 0.0
H1390 H 0.02573 0.4963 0.2192 0.0
H1391 H 0.04643 0.46777 0.23718 0.0
C1392 C 0.54795 0.4472 0.71425 0.0
C1393 C 0.53356 0.42784 0.6976 0.0
C1394 C 0.53557 0.44847 0.73634 0.0
C1395 C 0.50895 0.42894 0.74203 0.0
C1396 C 0.49479 0.40885 0.7253 0.0
C1397 C 0.50692 0.40902 0.70319 0.0
C1398 C 0.55072 0.47097 0.75349 0.0
C1399 C 0.46713 0.38678 0.73082 0.0
C1400 C 0.4971 0.40782 0.80414 0.0
C1401 C 0.47136 0.42779 0.80993 0.0
C1402 C 0.5093 0.40767 0.78205 0.0
C1403 C 0.49621 0.42896 0.76558 0.0
C1404 C 0.47056 0.44968 0.77151 0.0
C1405 C 0.45802 0.44837 0.79355 0.0
C1406 C 0.53586 0.38434 0.77626 0.0
C1407 C 0.45662 0.47346 0.75466 0.0
H1408 H 0.56838 0.46198 0.70983 0.0
H1409 H 0.49594 0.39385 0.69031 0.0
H1410 H 0.53267 0.48787 0.76058 0.0
H1411 H 0.56036 0.45645 0.76779 0.0
H1412 H 0.57022 0.48576 0.74607 0.0
H1413 H 0.45951 0.37188 0.71605 0.0
H1414 H 0.47358 0.36997 0.74486 0.0
H1415 H 0.4467 0.40163 0.73664 0.0
H1416 H 0.50725 0.39172 0.81683 0.0
H1417 H 0.4383 0.46404 0.79815 0.0
H1418 H 0.55698 0.39825 0.77059 0.0
H1419 H 0.52859 0.36824 0.76203 0.0
H1420 H 0.54273 0.36869 0.79085 0.0
H1421 H 0.47552 0.48951 0.74776 0.0
H1422 H 0.43792 0.48911 0.76228 0.0
H1423 H 0.44622 0.45988 0.74019 0.0
C1424 C 0.00811 0.6016 0.80485 0.0
C1425 C 0.0343 0.58193 0.81014 0.0
C1426 C 0.99563 0.60236 0.78284 0.0
C1427 C 0.00896 0.58206 0.76591 0.0
C1428 C 0.03531 0.56193 0.77123 0.0
C1429 C 0.04803 0.56254 0.79324 0.0
C1430 C 0.96824 0.62499 0.77771 0.0
C1431 C 0.04962 0.53925 0.75383 0.0
C1432 C 0.95681 0.56201 0.71511 0.0
C1433 C 0.97016 0.58194 0.69835 0.0
C1434 C 0.9695 0.56141 0.73712 0.0
C1435 C 0.99541 0.58207 0.7426 0.0
C1436 C 0.00832 0.60292 0.7258 0.0
C1437 C 0.9959 0.60215 0.70378 0.0
C1438 C 0.95567 0.53815 0.75437 0.0
C1439 C 0.03521 0.62611 0.7311 0.0
H1440 H 0.99758 0.61671 0.81794 0.0
H1441 H 0.06803 0.54701 0.79744 0.0
H1442 H 0.97445 0.64144 0.76343 0.0
H1443 H 0.94729 0.61049 0.77242 0.0
H1444 H 0.96155 0.64026 0.79253 0.0
H1445 H 0.06941 0.52447 0.76085 0.0
H1446 H 0.03119 0.52234 0.74725 0.0
H1447 H 0.05861 0.5536 0.73924 0.0
H1448 H 0.93716 0.54607 0.71079 0.0
H1449 H 0.00613 0.61767 0.69079 0.0
H1450 H 0.94639 0.55208 0.76906 0.0
H1451 H 0.97444 0.52156 0.76083 0.0
H1452 H 0.93618 0.52304 0.74725 0.0
H1453 H 0.02865 0.64219 0.7455 0.0
H1454 H 0.04156 0.64177 0.71639 0.0
H1455 H 0.05648 0.61203 0.73628 0.0
C1456 C 0.00488 0.17478 0.11003 0.0
C1457 C 0.03184 0.16749 0.12295 0.0
C1458 C 0.99443 0.20737 0.10755 0.0
C1459 C 0.01107 0.23305 0.11853 0.0
C1460 C 0.03879 0.2259 0.13097 0.0
C1461 C 0.0489 0.19339 0.13289 0.0
C1462 C 0.96499 0.21423 0.09386 0.0
C1463 C 0.05695 0.25236 0.14334 0.0
C1464 C 0.99726 0.32387 0.10713 0.0
C1465 C 0.9764 0.33192 0.12472 0.0
C1466 C 0.00783 0.2914 0.10422 0.0
C1467 C 0.99772 0.26675 0.11953 0.0
C1468 C 0.97672 0.27486 0.13729 0.0
C1469 C 0.96622 0.30718 0.13956 0.0
C1470 C 0.02991 0.28347 0.08491 0.0
C1471 C 0.96593 0.24958 0.15435 0.0
H1472 H 0.99171 0.15506 0.10211 0.0
H1473 H 0.06989 0.18832 0.14282 0.0
H1474 H 0.94548 0.22166 0.10533 0.0
H1475 H 0.9692 0.23485 0.08198 0.0
H1476 H 0.95718 0.19244 0.08405 0.0
H1477 H 0.07924 0.24303 0.15098 0.0
H1478 H 0.06288 0.27275 0.13167 0.0
H1479 H 0.042 0.26267 0.15705 0.0
H1480 H 0.00491 0.34278 0.09546 0.0
H1481 H 0.95024 0.31315 0.15329 0.0
H1482 H 0.02031 0.26276 0.07484 0.0
H1483 H 0.05322 0.27559 0.09166 0.0
H1484 H 0.03365 0.3048 0.07352 0.0
H1485 H 0.95474 0.22851 0.14559 0.0
H1486 H 0.94872 0.25973 0.16673 0.0
H1487 H 0.98667 0.24 0.16381 0.0
C1488 C 0.49928 0.82565 0.10415 0.0
C1489 C 0.47496 0.83249 0.11962 0.0
C1490 C 0.50997 0.79329 0.10088 0.0
C1491 C 0.49628 0.76744 0.1136 0.0
C1492 C 0.47103 0.77412 0.12859 0.0
C1493 C 0.46064 0.80639 0.13131 0.0
C1494 C 0.53666 0.78692 0.08449 0.0
C1495 C 0.45604 0.74744 0.14278 0.0
C1496 C 0.50855 0.67624 0.10348 0.0
C1497 C 0.5316 0.66904 0.11985 0.0
C1498 C 0.49809 0.70866 0.10015 0.0
C1499 C 0.51064 0.73419 0.11374 0.0
C1500 C 0.53457 0.72714 0.12974 0.0
C1501 C 0.54481 0.69482 0.1325 0.0
C1502 C 0.47287 0.71544 0.08267 0.0
C1503 C 0.54827 0.75345 0.14489 0.0
H1504 H 0.51028 0.84554 0.09487 0.0
H1505 H 0.44169 0.81113 0.14323 0.0
H1506 H 0.55851 0.78081 0.09402 0.0
H1507 H 0.53101 0.76561 0.07354 0.0
H1508 H 0.54159 0.80854 0.0736 0.0
H1509 H 0.43519 0.75636 0.15245 0.0
H1510 H 0.44843 0.72671 0.13193 0.0
H1511 H 0.4737 0.73775 0.15499 0.0
H1512 H 0.49847 0.65658 0.09346 0.0
H1513 H 0.56275 0.68974 0.14514 0.0
H1514 H 0.47954 0.73691 0.07216 0.0
H1515 H 0.45027 0.72151 0.09126 0.0
H1516 H 0.46879 0.69404 0.0714 0.0
H1517 H 0.55681 0.77443 0.13464 0.0
H1518 H 0.56824 0.74428 0.15538 0.0
H1519 H 0.52957 0.76285 0.15638 0.0
C1520 C 0.45434 0.69735 0.37329 0.0
C1521 C 0.46636 0.67289 0.38766 0.0
C1522 C 0.46299 0.73023 0.37591 0.0
C1523 C 0.48386 0.73916 0.39358 0.0
C1524 C 0.49465 0.715 0.409 0.0
C1525 C 0.48602 0.68201 0.40573 0.0
C1526 C 0.45144 0.755 0.35876 0.0
C1527 C 0.51646 0.72375 0.42831 0.0
C1528 C 0.53802 0.80928 0.37832 0.0
C1529 C 0.52265 0.83647 0.38798 0.0
C1530 C 0.5261 0.77756 0.38071 0.0
C1531 C 0.4982 0.77245 0.39341 0.0
C1532 C 0.48298 0.79944 0.40393 0.0
C1533 C 0.49525 0.8313 0.40092 0.0
C1534 C 0.54283 0.74966 0.36881 0.0
C1535 C 0.45348 0.79471 0.41794 0.0
H1536 H 0.43896 0.69074 0.35933 0.0
H1537 H 0.49502 0.66337 0.41713 0.0
H1538 H 0.44162 0.7769 0.36737 0.0
H1539 H 0.47165 0.76333 0.34821 0.0
H1540 H 0.43298 0.74472 0.34738 0.0
H1541 H 0.51838 0.70356 0.44087 0.0
H1542 H 0.54047 0.72902 0.42162 0.0
H1543 H 0.50802 0.74619 0.43705 0.0
H1544 H 0.55925 0.8127 0.36834 0.0
H1545 H 0.48337 0.85205 0.40861 0.0
H1546 H 0.52683 0.7386 0.35601 0.0
H1547 H 0.54907 0.73015 0.3811 0.0
H1548 H 0.56484 0.75773 0.36013 0.0
H1549 H 0.43355 0.7873 0.40682 0.0
H1550 H 0.44662 0.81741 0.42709 0.0
H1551 H 0.45706 0.77472 0.43042 0.0
C1552 C 0.0028 0.32638 0.39903 0.0
C1553 C 0.0257 0.33348 0.38254 0.0
C1554 C 0.99166 0.29414 0.40204 0.0
C1555 C 0.00344 0.26868 0.38805 0.0
C1556 C 0.02669 0.27572 0.37156 0.0
C1557 C 0.03754 0.30787 0.36907 0.0
C1558 C 0.96701 0.28737 0.41992 0.0
C1559 C 0.03954 0.24944 0.35602 0.0
C1560 C 0.99413 0.17748 0.3995 0.0
C1561 C 0.96908 0.16958 0.38488 0.0
C1562 C 0.00451 0.2101 0.40179 0.0
C1563 C 0.98972 0.23517 0.38897 0.0
C1564 C 0.96386 0.22745 0.37476 0.0
C1565 C 0.95384 0.1949 0.37296 0.0
C1566 C 0.03199 0.21757 0.41729 0.0
C1567 C 0.94772 0.25331 0.3605 0.0
H1568 H 0.99372 0.3459 0.40963 0.0
H1569 H 0.05521 0.31291 0.35624 0.0
H1570 H 0.94456 0.2796 0.41177 0.0
H1571 H 0.97485 0.26693 0.43098 0.0
H1572 H 0.96217 0.30922 0.4306 0.0
H1573 H 0.05855 0.25877 0.34473 0.0
H1574 H 0.04916 0.22875 0.36607 0.0
H1575 H 0.02014 0.23957 0.34534 0.0
H1576 H 0.00589 0.15821 0.40892 0.0
H1577 H 0.93436 0.1893 0.36165 0.0
H1578 H 0.02633 0.23879 0.42831 0.0
H1579 H 0.05301 0.22437 0.40705 0.0
H1580 H 0.03832 0.19628 0.42812 0.0
H1581 H 0.94051 0.27441 0.37115 0.0
H1582 H 0.92643 0.2437 0.35166 0.0
H1583 H 0.96452 0.26269 0.34759 0.0
C1584 C 0.0453 0.69319 0.87693 0.0
C1585 C 0.02995 0.66751 0.88839 0.0
C1586 C 0.03513 0.72564 0.87905 0.0
C1587 C 0.00903 0.7329 0.89314 0.0
C1588 C 0.99418 0.70745 0.90556 0.0
C1589 C 0.00473 0.67493 0.90296 0.0
C1590 C 0.05142 0.75193 0.86525 0.0
C1591 C 0.96648 0.71442 0.92095 0.0
C1592 C 0.99714 0.824 0.90393 0.0
C1593 C 0.97498 0.83192 0.8871 0.0
C1594 C 0.00737 0.79146 0.90696 0.0
C1595 C 0.9954 0.76648 0.89264 0.0
C1596 C 0.97253 0.77426 0.87601 0.0
C1597 C 0.96255 0.80674 0.87352 0.0
C1598 C 0.03156 0.78394 0.92503 0.0
C1599 C 0.95948 0.74849 0.86015 0.0
H1600 H 0.06493 0.68796 0.86569 0.0
H1601 H 0.99287 0.65535 0.91201 0.0
H1602 H 0.03471 0.76179 0.85245 0.0
H1603 H 0.05865 0.77263 0.87626 0.0
H1604 H 0.07272 0.74256 0.85631 0.0
H1605 H 0.96013 0.69286 0.9315 0.0
H1606 H 0.9719 0.73543 0.93224 0.0
H1607 H 0.94555 0.72133 0.91064 0.0
H1608 H 0.00665 0.8432 0.91464 0.0
H1609 H 0.94535 0.81241 0.86048 0.0
H1610 H 0.05431 0.77693 0.91699 0.0
H1611 H 0.02367 0.76283 0.93544 0.0
H1612 H 0.03588 0.80525 0.93633 0.0
H1613 H 0.9788 0.73893 0.84927 0.0
H1614 H 0.94042 0.75822 0.84906 0.0
H1615 H 0.94989 0.72749 0.86991 0.0
C1616 C 0.4994 0.32487 0.89869 0.0
C1617 C 0.47597 0.33322 0.88287 0.0
C1618 C 0.5096 0.29221 0.90106 0.0
C1619 C 0.49617 0.26752 0.88718 0.0
C1620 C 0.47213 0.27573 0.87153 0.0
C1621 C 0.46236 0.30835 0.86958 0.0
C1622 C 0.53523 0.28424 0.91799 0.0
C1623 C 0.45739 0.25022 0.85623 0.0
C1624 C 0.54333 0.19274 0.8703 0.0
C1625 C 0.52887 0.1678 0.88306 0.0
C1626 C 0.53372 0.22542 0.87223 0.0
C1627 C 0.509 0.23361 0.88732 0.0
C1628 C 0.49479 0.20885 0.90073 0.0
C1629 C 0.50483 0.17614 0.8984 0.0
C1630 C 0.54931 0.25099 0.85743 0.0
C1631 C 0.46841 0.21679 0.91706 0.0
H1632 H 0.50992 0.34382 0.90912 0.0
H1633 H 0.44421 0.31434 0.85728 0.0
H1634 H 0.52768 0.26363 0.92899 0.0
H1635 H 0.55692 0.27624 0.90895 0.0
H1636 H 0.5413 0.3056 0.92882 0.0
H1637 H 0.43767 0.26033 0.84591 0.0
H1638 H 0.47563 0.24027 0.84459 0.0
H1639 H 0.4482 0.22943 0.86639 0.0
H1640 H 0.56196 0.18675 0.85839 0.0
H1641 H 0.49364 0.15713 0.90842 0.0
H1642 H 0.55789 0.27177 0.86788 0.0
H1643 H 0.53174 0.26097 0.84528 0.0
H1644 H 0.5696 0.24094 0.84769 0.0
H1645 H 0.47541 0.23743 0.92822 0.0
H1646 H 0.46191 0.19542 0.92776 0.0
H1647 H 0.44711 0.22471 0.90751 0.0
C1648 C 0.49606 0.17759 0.60868 0.0
C1649 C 0.47224 0.16958 0.62428 0.0
C1650 C 0.50657 0.21014 0.60628 0.0
C1651 C 0.49305 0.23508 0.61989 0.0
C1652 C 0.46855 0.22723 0.63526 0.0
C1653 C 0.45847 0.19471 0.63724 0.0
C1654 C 0.53268 0.21772 0.58965 0.0
C1655 C 0.45371 0.253 0.65028 0.0
C1656 C 0.5411 0.30906 0.63725 0.0
C1657 C 0.52747 0.3342 0.62422 0.0
C1658 C 0.53088 0.27658 0.63531 0.0
C1659 C 0.50638 0.26879 0.61992 0.0
C1660 C 0.49296 0.29376 0.60627 0.0
C1661 C 0.5036 0.32627 0.60863 0.0
C1662 C 0.54563 0.25078 0.65037 0.0
C1663 C 0.46684 0.28624 0.58962 0.0
H1664 H 0.50671 0.15844 0.5985 0.0
H1665 H 0.44002 0.18898 0.64935 0.0
H1666 H 0.52572 0.2385 0.5786 0.0
H1667 H 0.5543 0.22529 0.59895 0.0
H1668 H 0.53861 0.19629 0.57885 0.0
H1669 H 0.43351 0.24322 0.66027 0.0
H1670 H 0.47172 0.26268 0.66221 0.0
H1671 H 0.44516 0.27392 0.63996 0.0
H1672 H 0.55958 0.31472 0.64936 0.0
H1673 H 0.49306 0.34544 0.5984 0.0
H1674 H 0.55424 0.22988 0.64006 0.0
H1675 H 0.52754 0.24106 0.66223 0.0
H1676 H 0.56575 0.26053 0.66044 0.0
H1677 H 0.47382 0.26552 0.57853 0.0
H1678 H 0.4609 0.30772 0.57886 0.0
H1679 H 0.44522 0.2786 0.5989 0.0
C1680 C 0.00374 0.8254 0.60507 0.0
C1681 C 0.02715 0.83314 0.62105 0.0
C1682 C 0.99381 0.79278 0.60193 0.0
C1683 C 0.00733 0.76755 0.6153 0.0
C1684 C 0.03158 0.77514 0.63094 0.0
C1685 C 0.04126 0.8077 0.63352 0.0
C1686 C 0.96817 0.78544 0.58487 0.0
C1687 C 0.04633 0.74911 0.6458 0.0
C1688 C 0.95945 0.69355 0.63259 0.0
C1689 C 0.97397 0.66821 0.62026 0.0
C1690 C 0.96918 0.72612 0.63029 0.0
C1691 C 0.99392 0.73387 0.6151 0.0
C1692 C 0.00785 0.70877 0.60184 0.0
C1693 C 0.99784 0.67611 0.60468 0.0
C1694 C 0.95397 0.75201 0.64504 0.0
C1695 C 0.03401 0.71628 0.58524 0.0
H1696 H 0.99294 0.84481 0.5952 0.0
H1697 H 0.05948 0.81321 0.64587 0.0
H1698 H 0.97515 0.76442 0.57404 0.0
H1699 H 0.94611 0.77838 0.59382 0.0
H1700 H 0.96297 0.80687 0.57387 0.0
H1701 H 0.06632 0.75876 0.65606 0.0
H1702 H 0.02817 0.73909 0.65749 0.0
H1703 H 0.05513 0.72845 0.63535 0.0
H1704 H 0.94086 0.68793 0.64462 0.0
H1705 H 0.00899 0.65679 0.59493 0.0
H1706 H 0.94551 0.77278 0.63455 0.0
H1707 H 0.97175 0.76188 0.65708 0.0
H1708 H 0.93365 0.74226 0.65491 0.0
H1709 H 0.02742 0.73746 0.57443 0.0
H1710 H 0.0395 0.69498 0.5742 0.0
H1711 H 0.05581 0.72315 0.59459 0.0
C1712 C 0.98801 0.98957 0.956 0.0
C1713 C 0.99901 0.95724 0.95378 0.0
C1714 C 0.9947 0.00817 0.97547 0.0
C1715 C 0.01268 0.99408 0.99323 0.0
C1716 C 0.02352 0.96136 0.9912 0.0
C1717 C 0.01662 0.94339 0.97152 0.0
C1718 C 0.98267 0.04295 0.97699 0.0
C1719 C 0.04249 0.9453 0.00982 0.0
C1720 C 0.05372 0.04794 0.03721 0.0
C1721 C 0.03306 0.04508 0.05568 0.0
C1722 C 0.04714 0.03199 0.01657 0.0
C1723 C 0.01916 0.01299 0.01435 0.0
C1724 C 0.99784 0.01087 0.03275 0.0
C1725 C 0.00506 0.02683 0.05312 0.0
C1726 C 0.07049 0.03478 0.99734 0.0
C1727 C 0.96765 0.99112 0.03111 0.0
H1728 H 0.97463 0.00062 0.94232 0.0
H1729 H 0.02527 0.91848 0.96999 0.0
H1730 H 0.96689 0.04558 0.9919 0.0
H1731 H 0.00281 0.06005 0.97944 0.0
H1732 H 0.96939 0.05045 0.9616 0.0
H1733 H 0.04955 0.91982 0.00551 0.0
H1734 H 0.06419 0.9598 0.0133 0.0
H1735 H 0.02843 0.94474 0.02568 0.0
H1736 H 0.0754 0.06192 0.03904 0.0
H1737 H 0.98871 0.02474 0.06717 0.0
H1738 H 0.05836 0.04361 0.98184 0.0
H1739 H 0.08045 0.01025 0.99344 0.0
H1740 H 0.09033 0.05171 1.00134 0.0
H1741 H 0.95341 0.9994 0.0164 0.0
H1742 H 0.9529 0.99315 0.04661 0.0
H1743 H 0.97343 0.96489 0.02833 0.0
C1744 C 0.51911 0.01603 0.95659 0.0
C1745 C 0.50354 0.04574 0.95209 0.0
C1746 C 0.51281 0.99819 0.97645 0.0
C1747 C 0.49032 0.01024 0.99218 0.0
C1748 C 0.47473 0.04031 0.98781 0.0
C1749 C 0.48158 0.0577 0.96789 0.0
C1750 C 0.53016 0.96639 0.9806 0.0
C1751 C 0.45065 0.05405 0.00415 0.0
C1752 C 0.45318 0.95215 0.03531 0.0
C1753 C 0.47053 0.95962 0.05489 0.0
C1754 C 0.45951 0.96821 0.01469 0.0
C1755 C 0.48387 0.9921 0.01361 0.0
C1756 C 0.50166 0.9994 0.03325 0.0
C1757 C 0.49472 0.98322 0.05359 0.0
C1758 C 0.4399 0.9599 0.99411 0.0
C1759 C 0.52794 0.02454 0.03286 0.0
H1760 H 0.53601 0.00648 0.94446 0.0
H1761 H 0.46928 0.08053 0.96457 0.0
H1762 H 0.54378 0.96796 0.99662 0.0
H1763 H 0.51293 0.94604 0.98251 0.0
H1764 H 0.54674 0.96023 0.96664 0.0
H1765 H 0.44015 0.07743 0.99807 0.0
H1766 H 0.43129 0.03606 0.00681 0.0
H1767 H 0.46189 0.05847 0.02085 0.0
H1768 H 0.43446 0.934 0.03613 0.0
H1769 H 0.50844 0.98915 0.06853 0.0
H1770 H 0.45552 0.95171 0.98011 0.0
H1771 H 0.42719 0.98208 0.98813 0.0
H1772 H 0.42225 0.94034 0.99759 0.0
H1773 H 0.54567 0.018 0.01976 0.0
H1774 H 0.54021 0.02664 0.04944 0.0
H1775 H 0.5182 0.04892 0.0283 0.0
C1776 C 0.47927 0.01719 0.5509 0.0
C1777 C 0.49488 0.04698 0.55512 0.0
C1778 C 0.48529 0.99913 0.53108 0.0
C1779 C 0.50749 0.01106 0.51511 0.0
C1780 C 0.52306 0.04124 0.51916 0.0
C1781 C 0.51652 0.05884 0.53905 0.0
C1782 C 0.468 0.9672 0.52729 0.0
C1783 C 0.54684 0.05487 0.50255 0.0
C1784 C 0.54512 0.95297 0.47223 0.0
C1785 C 0.52788 0.9603 0.45258 0.0
C1786 C 0.53848 0.96894 0.49283 0.0
C1787 C 0.51387 0.99256 0.49381 0.0
C1788 C 0.49599 0.99948 0.47413 0.0
C1789 C 0.50326 0.98339 0.45381 0.0
C1790 C 0.55817 0.96102 0.51344 0.0
C1791 C 0.46943 0.02429 0.47443 0.0
H1792 H 0.46262 0.00772 0.56323 0.0
H1793 H 0.52882 0.08173 0.54214 0.0
H1794 H 0.45432 0.96838 0.51127 0.0
H1795 H 0.48528 0.94687 0.52555 0.0
H1796 H 0.45149 0.96128 0.54134 0.0
H1797 H 0.55722 0.07846 0.50833 0.0
H1798 H 0.56631 0.037 0.49996 0.0
H1799 H 0.53539 0.05885 0.48587 0.0
H1800 H 0.56419 0.93522 0.47144 0.0
H1801 H 0.48957 0.98909 0.43881 0.0
H1802 H 0.54263 0.95323 0.52759 0.0
H1803 H 0.57102 0.98329 0.5191 0.0
H1804 H 0.57571 0.94131 0.51011 0.0
H1805 H 0.45196 0.01786 0.48773 0.0
H1806 H 0.45692 0.02584 0.45792 0.0
H1807 H 0.47898 0.04889 0.47863 0.0
C1808 C 1.00019 0.98539 0.55602 0.0
C1809 C 0.0247 0.96213 0.55679 0.0
C1810 C 0.9928 0.00214 0.53596 0.0
C1811 C 0.01044 0.99572 0.5161 0.0
C1812 C 0.03509 0.97214 0.51667 0.0
C1813 C 0.04189 0.95555 0.53699 0.0
C1814 C 0.96624 0.02695 0.53609 0.0
C1815 C 0.05453 0.96472 0.49585 0.0
C1816 C 0.97542 0.0198 0.45903 0.0
C1817 C 0.99113 0.04943 0.45453 0.0
C1818 C 0.98132 0.00214 0.47903 0.0
C1819 C 0.00353 0.01431 0.49492 0.0
C1820 C 0.01903 0.04448 0.49067 0.0
C1821 C 0.01259 0.06168 0.47059 0.0
C1822 C 0.96411 0.97021 0.48303 0.0
C1823 C 0.04283 0.05835 0.50718 0.0
H1824 H 0.98663 0.99063 0.57117 0.0
H1825 H 0.06087 0.93768 0.53741 0.0
H1826 H 0.97564 0.05157 0.53178 0.0
H1827 H 0.9484 0.02054 0.52302 0.0
H1828 H 0.9542 0.02842 0.55277 0.0
H1829 H 0.0725 0.94534 0.49896 0.0
H1830 H 0.03885 0.95668 0.48185 0.0
H1831 H 0.06686 0.98726 0.4901 0.0
H1832 H 0.95887 0.01004 0.44672 0.0
H1833 H 0.02496 0.08448 0.4673 0.0
H1834 H 0.95095 0.97129 0.49926 0.0
H1835 H 0.98143 0.94987 0.48442 0.0
H1836 H 0.94715 0.96439 0.46922 0.0
H1837 H 0.03162 0.06188 0.52398 0.0
H1838 H 0.0527 0.0822 0.50146 0.0
H1839 H 0.06265 0.0408 0.50948 0.0
C1840 C 0.5072 0.51732 0.05502 0.0
C1841 C 0.53211 0.54011 0.05607 0.0
C1842 C 0.49972 0.50096 0.03481 0.0
C1843 C 0.5177 0.50726 0.01509 0.0
C1844 C 0.54279 0.53035 0.01594 0.0
C1845 C 0.54962 0.5466 0.03639 0.0
C1846 C 0.47267 0.47672 0.03464 0.0
C1847 C 0.56265 0.53758 0.99529 0.0
C1848 C 0.5193 0.44148 0.96942 0.0
C1849 C 0.49823 0.45414 0.95324 0.0
C1850 C 0.5258 0.4585 0.98956 0.0
C1851 C 0.51079 0.48893 0.99377 0.0
C1852 C 0.48904 0.50159 0.97773 0.0
C1853 C 0.48304 0.48408 0.95766 0.0
C1854 C 0.5491 0.44409 0.00622 0.0
C1855 C 0.47237 0.53382 0.98166 0.0
H1856 H 0.49335 0.5122 0.07006 0.0
H1857 H 0.56891 0.56411 0.03702 0.0
H1858 H 0.45517 0.48359 0.02145 0.0
H1859 H 0.48165 0.45194 0.03033 0.0
H1860 H 0.46034 0.47539 0.05122 0.0
H1861 H 0.58091 0.55661 0.99861 0.0
H1862 H 0.57467 0.51487 0.98955 0.0
H1863 H 0.54731 0.54601 0.9812 0.0
H1864 H 0.53124 0.41843 0.9662 0.0
H1865 H 0.46682 0.49417 0.94527 0.0
H1866 H 0.53753 0.44057 0.0229 0.0
H1867 H 0.56914 0.4613 0.00879 0.0
H1868 H 0.55871 0.42015 1.00048 0.0
H1869 H 0.45889 0.5329 0.99777 0.0
H1870 H 0.45578 0.54007 0.96771 0.0
H1871 H 0.49004 0.55381 0.98328 0.0
C1872 C 0.01884 0.43855 0.03948 0.0
C1873 C 0.99603 0.45013 0.0548 0.0
C1874 C 0.02541 0.45546 0.0193 0.0
C1875 C 0.00872 0.48465 0.0142 0.0
C1876 C 0.98517 0.49609 0.02932 0.0
C1877 C 0.97911 0.47872 0.04942 0.0
C1878 C 0.05061 0.44236 1.00359 0.0
C1879 C 0.9667 0.52699 0.02445 0.0
C1880 C 0.04572 0.54479 0.97241 0.0
C1881 C 0.02947 0.53722 0.95237 0.0
C1882 C 0.03917 0.52796 0.99269 0.0
C1883 C 0.01575 0.50304 0.99294 0.0
C1884 C 0.99921 0.49541 0.9728 0.0
C1885 C 0.00629 0.51249 0.95281 0.0
C1886 C 0.0574 0.53673 0.01382 0.0
C1887 C 0.97402 0.46911 0.97233 0.0
H1888 H 0.03212 0.41656 0.04346 0.0
H1889 H 0.96151 0.48799 0.06114 0.0
H1890 H 0.04044 0.43792 0.98655 0.0
H1891 H 0.06975 0.46077 1.0016 0.0
H1892 H 0.06121 0.41914 0.00986 0.0
H1893 H 0.94883 0.53234 0.03774 0.0
H1894 H 0.98312 0.54815 0.02318 0.0
H1895 H 0.95438 0.52479 0.00792 0.0
H1896 H 0.06367 0.56379 0.97226 0.0
H1897 H 0.99351 0.50638 0.93747 0.0
H1898 H 0.07034 0.51491 0.02015 0.0
H1899 H 0.04079 0.54445 0.02735 0.0
H1900 H 0.07471 0.55679 0.01086 0.0
H1901 H 0.98443 0.4452 0.97731 0.0
H1902 H 0.96302 0.46642 0.95534 0.0
H1903 H 0.95516 0.47491 0.98476 0.0
C1904 C 0.96006 0.54602 0.5359 0.0
C1905 C 0.9766 0.53887 0.55589 0.0
C1906 C 0.96702 0.52947 0.51559 0.0
C1907 C 0.99116 0.50532 0.51524 0.0
C1908 C 0.00811 0.49826 0.53531 0.0
C1909 C 1.00059 0.515 0.55534 0.0
C1910 C 0.94832 0.53759 0.49454 0.0
C1911 C 0.03408 0.47279 0.53568 0.0
C1912 C 0.98854 0.44013 0.46922 0.0
C1913 C 0.01066 0.45207 0.45351 0.0
C1914 C 0.9821 0.45713 0.48937 0.0
C1915 C 0.99823 0.48681 0.49405 0.0
C1916 C 0.02115 0.49861 0.47855 0.0
C1917 C 0.02708 0.48113 0.45848 0.0
C1918 C 0.95758 0.44363 0.50548 0.0
C1919 C 0.03902 0.53002 0.48299 0.0
H1920 H 0.9415 0.56436 0.53613 0.0
H1921 H 0.01363 0.50928 0.57064 0.0
H1922 H 0.96457 0.54543 0.48081 0.0
H1923 H 0.93567 0.51543 0.48847 0.0
H1924 H 0.9307 0.55735 0.49749 0.0
H1925 H 0.04559 0.47081 0.55254 0.0
H1926 H 0.02424 0.44847 0.53108 0.0
H1927 H 0.05243 0.47892 0.52294 0.0
H1928 H 0.97566 0.41776 0.46558 0.0
H1929 H 0.04412 0.49067 0.44644 0.0
H1930 H 0.93805 0.46157 0.50755 0.0
H1931 H 0.96825 0.43972 0.52243 0.0
H1932 H 0.94741 0.42005 0.49951 0.0
H1933 H 0.02216 0.5508 0.48419 0.0
H1934 H 0.05655 0.53553 0.4695 0.0
H1935 H 0.05162 0.52844 0.49944 0.0
C1936 C 0.52022 0.48651 0.55049 0.0
C1937 C 0.50539 0.45627 0.55463 0.0
C1938 C 0.51403 0.50434 0.53059 0.0
C1939 C 0.49247 0.4917 0.51441 0.0
C1940 C 0.4778 0.461 0.51833 0.0
C1941 C 0.48446 0.44368 0.53833 0.0
C1942 C 0.53032 0.53687 0.52698 0.0
C1943 C 0.45477 0.44657 0.5015 0.0
C1944 C 0.45352 0.54942 0.47185 0.0
C1945 C 0.47146 0.5435 0.45229 0.0
C1946 C 0.46026 0.53298 0.49226 0.0
C1947 C 0.4856 0.51021 0.49316 0.0
C1948 C 0.50397 0.50444 0.47355 0.0
C1949 C 0.49664 0.52102 0.4534 0.0
C1950 C 0.44004 0.5397 0.5128 0.0
C1951 C 0.53125 0.48049 0.47376 0.0
H1952 H 0.53632 0.49656 0.56299 0.0
H1953 H 0.4728 0.42041 0.54133 0.0
H1954 H 0.54406 0.53633 0.51098 0.0
H1955 H 0.5124 0.55661 0.52531 0.0
H1956 H 0.5466 0.5432 0.54109 0.0
H1957 H 0.44533 0.42246 0.50706 0.0
H1958 H 0.43459 0.4636 0.49894 0.0
H1959 H 0.46651 0.44338 0.48485 0.0
H1960 H 0.43403 0.56668 0.47118 0.0
H1961 H 0.51078 0.51627 0.43846 0.0
H1962 H 0.4551 0.54812 0.52705 0.0
H1963 H 0.42818 0.51678 0.51833 0.0
H1964 H 0.42163 0.55856 0.50948 0.0
H1965 H 0.54852 0.4874 0.48708 0.0
H1966 H 0.54379 0.47947 0.45724 0.0
H1967 H 0.52246 0.45556 0.47788 0.0
loop_
_geom_bond_atom_site_label_1
_geom_bond_atom_site_label_2
_geom_bond_distance
_geom_bond_site_symmetry_2
_ccdc_geom_bond_type
Co0 O2 2.143 . S
Co0 O8 2.074 . S
Co0 O11 2.093 . S
Co0 O24 2.097 . S
Co0 N41 2.151 . S
Co0 N49 2.214 1_455 S
Co1 O2 2.160 . S
Co1 O7 2.058 . S
Co1 O17 2.057 . S
Co1 O32 2.037 . S
Co1 N36 2.145 . S
Co1 N57 2.257 . S
O2 Co0 2.143 . S
O2 Co1 2.160 . S
C3 O4 1.278 . S
C3 O11 1.224 . S
O4 C3 1.278 . S
C5 O6 1.245 . S
C5 O17 1.232 . S
O6 C5 1.245 . S
O7 Co1 2.058 . S
O7 C33 1.269 . S
O8 Co0 2.074 . S
O8 C33 1.257 . S
H9 C34 0.930 . S
H10 C40 0.930 . S
O11 Co0 2.093 . S
O11 C3 1.224 . S
H12 C44 0.929 . S
H13 C46 0.930 . S
H14 C47 0.930 . S
H15 C45 0.929 1_545 S
H16 C48 0.928 . S
O17 Co1 2.057 . S
O17 C5 1.232 . S
H18 C37 0.929 . S
H19 C38 0.929 . S
H20 C50 0.931 . S
H21 C42 0.929 . S
H22 C51 0.930 . S
H23 C43 0.927 1_655 S
O24 Co0 2.097 . S
O24 C52 1.214 . S
H25 C53 0.929 . S
H26 C54 0.929 . S
H27 C55 0.930 . S
H28 C56 0.929 . S
H29 C58 0.930 . S
H30 C35 0.930 . S
H31 C39 0.930 . S
O32 Co1 2.037 . S
O32 C52 1.234 . S
C33 O7 1.269 . S
C33 O8 1.257 . S
C34 H9 0.930 . S
C34 C37 1.388 . S
C34 C39 1.418 . S
C35 H30 0.930 . S
C35 C38 1.404 . S
C35 C39 1.353 . S
N36 Co1 2.145 . S
N36 C37 1.397 . S
N36 C38 1.334 . S
C37 H18 0.929 . S
C37 C34 1.388 . S
C37 N36 1.397 . S
C38 H19 0.929 . S
C38 C35 1.404 . S
C38 N36 1.334 . S
C39 H31 0.930 . S
C39 C34 1.418 . S
C39 C35 1.353 . S
C40 H10 0.930 . S
C40 N41 1.330 1_565 S
C40 C42 1.446 . S
N41 Co0 2.151 . S
N41 C40 1.330 1_545 S
N41 C45 1.418 1_445 S
C42 H21 0.929 . S
C42 C40 1.446 . S
C42 C43 1.339 . S
C43 H23 0.927 1_455 S
C43 C42 1.339 . S
C43 C44 1.262 1_455 S
C44 H12 0.929 . S
C44 C43 1.262 1_655 S
C44 C45 1.251 . S
C45 H15 0.929 1_565 S
C45 N41 1.418 1_665 S
C45 C44 1.251 . S
C46 H13 0.930 . S
C46 C48 1.406 . S
C46 C51 1.261 . S
C47 H14 0.930 . S
C47 N49 1.325 . S
C47 C50 1.357 . S
C48 H16 0.928 . S
C48 C46 1.406 . S
C48 N49 1.261 . S
N49 Co0 2.214 1_655 S
N49 C47 1.325 . S
N49 C48 1.261 . S
C50 H20 0.931 . S
C50 C47 1.357 . S
C50 C51 1.312 . S
C51 H22 0.930 . S
C51 C46 1.261 . S
C51 C50 1.312 . S
C52 O24 1.214 . S
C52 O32 1.234 . S
C53 H25 0.929 . S
C53 C56 1.391 . S
C53 C58 1.391 . S
C54 H26 0.929 . S
C54 C55 1.390 . S
C54 N57 1.391 . S
C55 H27 0.930 . S
C55 C54 1.390 . S
C55 C56 1.392 . S
C56 H28 0.929 . S
C56 C53 1.391 . S
C56 C55 1.392 . S
N57 Co1 2.257 . S
N57 C54 1.391 . S
N57 C58 1.388 . S
C58 H29 0.930 . S
C58 C53 1.391 . S
C58 N57 1.388 . S
Co59 O61 2.143 . S
Co59 O67 2.074 . S
Co59 O70 2.093 . S
Co59 O83 2.097 . S
Co59 N100 2.151 . S
Co59 N108 2.214 . S
Co60 O61 2.160 . S
Co60 O66 2.058 . S
Co60 O76 2.057 . S
Co60 O91 2.037 . S
Co60 N95 2.145 . S
Co60 N116 2.257 . S
O61 Co59 2.143 . S
O61 Co60 2.160 . S
C62 O63 1.278 . S
C62 O70 1.224 . S
O63 C62 1.278 . S
C64 O65 1.245 . S
C64 O76 1.232 . S
O65 C64 1.245 . S
O66 Co60 2.058 . S
O66 C92 1.269 . S
O67 Co59 2.074 . S
O67 C92 1.257 . S
H68 C93 0.930 . S
H69 C99 0.930 . S
O70 Co59 2.093 . S
O70 C62 1.224 . S
H71 C103 0.929 . S
H72 C105 0.930 . S
H73 C106 0.930 . S
H74 C104 0.929 1_565 S
H75 C107 0.928 . S
O76 Co60 2.057 . S
O76 C64 1.232 . S
H77 C96 0.929 . S
H78 C97 0.929 . S
H79 C109 0.931 . S
H80 C101 0.929 . S
H81 C110 0.930 . S
H82 C102 0.931 . S
O83 Co59 2.097 . S
O83 C111 1.214 . S
H84 C112 0.929 . S
H85 C113 0.929 . S
H86 C114 0.930 . S
H87 C115 0.929 . S
H88 C117 0.930 . S
H89 C94 0.930 . S
H90 C98 0.930 . S
O91 Co60 2.037 . S
O91 C111 1.234 . S
C92 O66 1.269 . S
C92 O67 1.257 . S
C93 H68 0.930 . S
C93 C96 1.388 . S
C93 C98 1.418 . S
C94 H89 0.930 . S
C94 C97 1.404 . S
C94 C98 1.353 . S
N95 Co60 2.145 . S
N95 C96 1.397 . S
N95 C97 1.334 . S
C96 H77 0.929 . S
C96 C93 1.388 . S
C96 N95 1.397 . S
C97 H78 0.929 . S
C97 C94 1.404 . S
C97 N95 1.334 . S
C98 H90 0.930 . S
C98 C93 1.418 . S
C98 C94 1.353 . S
C99 H69 0.930 . S
C99 N100 1.330 1_545 S
C99 C101 1.446 . S
N100 Co59 2.151 . S
N100 C99 1.330 1_565 S
N100 C104 1.418 1_565 S
C101 H80 0.929 . S
C101 C99 1.446 . S
C101 C102 1.332 . S
C102 H82 0.931 . S
C102 C101 1.332 . S
C102 C103 1.267 . S
C103 H71 0.929 . S
C103 C102 1.267 . S
C103 C104 1.251 . S
C104 H74 0.929 1_545 S
C104 N100 1.418 1_545 S
C104 C103 1.251 . S
C105 H72 0.930 . S
C105 C107 1.406 . S
C105 C110 1.261 . S
C106 H73 0.930 . S
C106 N108 1.325 . S
C106 C109 1.357 . S
C107 H75 0.928 . S
C107 C105 1.406 . S
C107 N108 1.261 . S
N108 Co59 2.214 . S
N108 C106 1.325 . S
N108 C107 1.261 . S
C109 H79 0.931 . S
C109 C106 1.357 . S
C109 C110 1.312 . S
C110 H81 0.930 . S
C110 C105 1.261 . S
C110 C109 1.312 . S
C111 O83 1.214 . S
C111 O91 1.234 . S
C112 H84 0.929 . S
C112 C115 1.391 . S
C112 C117 1.391 . S
C113 H85 0.929 . S
C113 C114 1.390 . S
C113 N116 1.391 . S
C114 H86 0.930 . S
C114 C113 1.390 . S
C114 C115 1.392 . S
C115 H87 0.929 . S
C115 C112 1.391 . S
C115 C114 1.392 . S
N116 Co60 2.257 . S
N116 C113 1.391 . S
N116 C117 1.388 . S
C117 H88 0.930 . S
C117 C112 1.391 . S
C117 N116 1.388 . S
Co118 O120 2.143 . S
Co118 O126 2.074 . S
Co118 O129 2.093 . S
Co118 O142 2.097 . S
Co118 N159 2.151 . S
Co118 N167 2.214 . S
Co119 O120 2.160 . S
Co119 O125 2.058 . S
Co119 O135 2.057 . S
Co119 O150 2.037 . S
Co119 N154 2.145 . S
Co119 N175 2.257 . S
O120 Co118 2.143 . S
O120 Co119 2.160 . S
C121 O122 1.278 . S
C121 O129 1.224 . S
O122 C121 1.278 . S
C123 O124 1.245 . S
C123 O135 1.232 . S
O124 C123 1.245 . S
O125 Co119 2.058 . S
O125 C151 1.269 . S
O126 Co118 2.074 . S
O126 C151 1.257 . S
H127 C152 0.930 . S
H128 C158 0.930 . S
O129 Co118 2.093 . S
O129 C121 1.224 . S
H130 C162 0.929 . S
H131 C164 0.930 . S
H132 C165 0.930 . S
H133 C163 0.929 1_565 S
H134 C166 0.928 . S
O135 Co119 2.057 . S
O135 C123 1.232 . S
H136 C155 0.929 . S
H137 C156 0.929 . S
H138 C168 0.931 . S
H139 C160 0.929 . S
H140 C169 0.930 . S
H141 C161 0.931 . S
O142 Co118 2.097 . S
O142 C170 1.214 . S
H143 C171 0.929 . S
H144 C172 0.929 . S
H145 C173 0.930 . S
H146 C174 0.929 . S
H147 C176 0.930 . S
H148 C153 0.930 . S
H149 C157 0.930 . S
O150 Co119 2.037 . S
O150 C170 1.234 . S
C151 O125 1.269 . S
C151 O126 1.257 . S
C152 H127 0.930 . S
C152 C155 1.388 . S
C152 C157 1.418 . S
C153 H148 0.930 . S
C153 C156 1.404 . S
C153 C157 1.353 . S
N154 Co119 2.145 . S
N154 C155 1.397 . S
N154 C156 1.334 . S
C155 H136 0.929 . S
C155 C152 1.388 . S
C155 N154 1.397 . S
C156 H137 0.929 . S
C156 C153 1.404 . S
C156 N154 1.334 . S
C157 H149 0.930 . S
C157 C152 1.418 . S
C157 C153 1.353 . S
C158 H128 0.930 . S
C158 N159 1.330 1_545 S
C158 C160 1.446 . S
N159 Co118 2.151 . S
N159 C158 1.330 1_565 S
N159 C163 1.418 1_565 S
C160 H139 0.929 . S
C160 C158 1.446 . S
C160 C161 1.332 . S
C161 H141 0.931 . S
C161 C160 1.332 . S
C161 C162 1.267 . S
C162 H130 0.929 . S
C162 C161 1.267 . S
C162 C163 1.251 . S
C163 H133 0.929 1_545 S
C163 N159 1.418 1_545 S
C163 C162 1.251 . S
C164 H131 0.930 . S
C164 C166 1.406 . S
C164 C169 1.261 . S
C165 H132 0.930 . S
C165 N167 1.325 . S
C165 C168 1.357 . S
C166 H134 0.928 . S
C166 C164 1.406 . S
C166 N167 1.261 . S
N167 Co118 2.214 . S
N167 C165 1.325 . S
N167 C166 1.261 . S
C168 H138 0.931 . S
C168 C165 1.357 . S
C168 C169 1.312 . S
C169 H140 0.930 . S
C169 C164 1.261 . S
C169 C168 1.312 . S
C170 O142 1.214 . S
C170 O150 1.234 . S
C171 H143 0.929 . S
C171 C174 1.391 . S
C171 C176 1.391 . S
C172 H144 0.929 . S
C172 C173 1.390 . S
C172 N175 1.391 . S
C173 H145 0.930 . S
C173 C172 1.390 . S
C173 C174 1.392 . S
C174 H146 0.929 . S
C174 C171 1.391 . S
C174 C173 1.392 . S
N175 Co119 2.257 . S
N175 C172 1.391 . S
N175 C176 1.388 . S
C176 H147 0.930 . S
C176 C171 1.391 . S
C176 N175 1.388 . S
Co177 O179 2.143 . S
Co177 O185 2.074 . S
Co177 O188 2.093 . S
Co177 O201 2.097 . S
Co177 N218 2.151 . S
Co177 N226 2.214 1_655 S
Co178 O179 2.160 . S
Co178 O184 2.058 . S
Co178 O194 2.057 . S
Co178 O209 2.037 . S
Co178 N213 2.145 . S
Co178 N234 2.257 . S
O179 Co177 2.143 . S
O179 Co178 2.160 . S
C180 O181 1.278 . S
C180 O188 1.224 . S
O181 C180 1.278 . S
C182 O183 1.245 . S
C182 O194 1.232 . S
O183 C182 1.245 . S
O184 Co178 2.058 . S
O184 C210 1.269 . S
O185 Co177 2.074 . S
O185 C210 1.257 . S
H186 C211 0.930 . S
H187 C217 0.930 . S
O188 Co177 2.093 . S
O188 C180 1.224 . S
H189 C221 0.929 . S
H190 C223 0.930 . S
H191 C224 0.930 . S
H192 C222 0.929 1_545 S
H193 C225 0.928 . S
O194 Co178 2.057 . S
O194 C182 1.232 . S
H195 C214 0.929 . S
H196 C215 0.929 . S
H197 C227 0.931 . S
H198 C219 0.929 . S
H199 C228 0.930 . S
H200 C220 0.927 1_455 S
O201 Co177 2.097 . S
O201 C229 1.214 . S
H202 C230 0.929 . S
H203 C231 0.929 . S
H204 C232 0.930 . S
H205 C233 0.929 . S
H206 C235 0.930 . S
H207 C212 0.930 . S
H208 C216 0.930 . S
O209 Co178 2.037 . S
O209 C229 1.234 . S
C210 O184 1.269 . S
C210 O185 1.257 . S
C211 H186 0.930 . S
C211 C214 1.388 . S
C211 C216 1.418 . S
C212 H207 0.930 . S
C212 C215 1.404 . S
C212 C216 1.353 . S
N213 Co178 2.145 . S
N213 C214 1.397 . S
N213 C215 1.334 . S
C214 H195 0.929 . S
C214 C211 1.388 . S
C214 N213 1.397 . S
C215 H196 0.929 . S
C215 C212 1.404 . S
C215 N213 1.334 . S
C216 H208 0.930 . S
C216 C211 1.418 . S
C216 C212 1.353 . S
C217 H187 0.930 . S
C217 N218 1.330 1_565 S
C217 C219 1.446 . S
N218 Co177 2.151 . S
N218 C217 1.330 1_545 S
N218 C222 1.418 1_645 S
C219 H198 0.929 . S
C219 C217 1.446 . S
C219 C220 1.339 . S
C220 H200 0.927 1_655 S
C220 C219 1.339 . S
C220 C221 1.262 1_655 S
C221 H189 0.929 . S
C221 C220 1.262 1_455 S
C221 C222 1.251 . S
C222 H192 0.929 1_565 S
C222 N218 1.418 1_465 S
C222 C221 1.251 . S
C223 H190 0.930 . S
C223 C225 1.406 . S
C223 C228 1.261 . S
C224 H191 0.930 . S
C224 N226 1.325 . S
C224 C227 1.357 . S
C225 H193 0.928 . S
C225 C223 1.406 . S
C225 N226 1.261 . S
N226 Co177 2.214 1_455 S
N226 C224 1.325 . S
N226 C225 1.261 . S
C227 H197 0.931 . S
C227 C224 1.357 . S
C227 C228 1.312 . S
C228 H199 0.930 . S
C228 C223 1.261 . S
C228 C227 1.312 . S
C229 O201 1.214 . S
C229 O209 1.234 . S
C230 H202 0.929 . S
C230 C233 1.391 . S
C230 C235 1.391 . S
C231 H203 0.929 . S
C231 C232 1.390 . S
C231 N234 1.391 . S
C232 H204 0.930 . S
C232 C231 1.390 . S
C232 C233 1.392 . S
C233 H205 0.929 . S
C233 C230 1.391 . S
C233 C232 1.392 . S
N234 Co178 2.257 . S
N234 C231 1.391 . S
N234 C235 1.388 . S
C235 H206 0.930 . S
C235 C230 1.391 . S
C235 N234 1.388 . S
Co236 O238 2.143 . S
Co236 O244 2.074 . S
Co236 O247 2.093 . S
Co236 O260 2.097 . S
Co236 N277 2.151 . S
Co236 N285 2.214 1_655 S
Co237 O238 2.160 . S
Co237 O243 2.058 . S
Co237 O253 2.057 . S
Co237 O268 2.037 . S
Co237 N272 2.145 . S
Co237 N293 2.257 . S
O238 Co236 2.143 . S
O238 Co237 2.160 . S
C239 O240 1.278 . S
C239 O247 1.224 . S
O240 C239 1.278 . S
C241 O242 1.245 . S
C241 O253 1.232 . S
O242 C241 1.245 . S
O243 Co237 2.058 . S
O243 C269 1.269 . S
O244 Co236 2.074 . S
O244 C269 1.257 . S
H245 C270 0.930 . S
H246 C276 0.930 . S
O247 Co236 2.093 . S
O247 C239 1.224 . S
H248 C280 0.929 . S
H249 C282 0.930 . S
H250 C283 0.930 . S
H251 C281 0.929 1_565 S
H252 C284 0.928 . S
O253 Co237 2.057 . S
O253 C241 1.232 . S
H254 C273 0.929 . S
H255 C274 0.929 . S
H256 C286 0.931 . S
H257 C278 0.929 . S
H258 C287 0.930 . S
H259 C279 0.927 1_455 S
O260 Co236 2.097 . S
O260 C288 1.214 . S
H261 C289 0.929 . S
H262 C290 0.929 . S
H263 C291 0.930 . S
H264 C292 0.929 . S
H265 C294 0.930 . S
H266 C271 0.930 . S
H267 C275 0.930 . S
O268 Co237 2.037 . S
O268 C288 1.234 . S
C269 O243 1.269 . S
C269 O244 1.257 . S
C270 H245 0.930 . S
C270 C273 1.388 . S
C270 C275 1.418 . S
C271 H266 0.930 . S
C271 C274 1.404 . S
C271 C275 1.353 . S
N272 Co237 2.145 . S
N272 C273 1.397 . S
N272 C274 1.334 . S
C273 H254 0.929 . S
C273 C270 1.388 . S
C273 N272 1.397 . S
C274 H255 0.929 . S
C274 C271 1.404 . S
C274 N272 1.334 . S
C275 H267 0.930 . S
C275 C270 1.418 . S
C275 C271 1.353 . S
C276 H246 0.930 . S
C276 N277 1.330 1_545 S
C276 C278 1.446 . S
N277 Co236 2.151 . S
N277 C276 1.330 1_565 S
N277 C281 1.418 1_665 S
C278 H257 0.929 . S
C278 C276 1.446 . S
C278 C279 1.339 . S
C279 H259 0.927 1_655 S
C279 C278 1.339 . S
C279 C280 1.262 1_655 S
C280 H248 0.929 . S
C280 C279 1.262 1_455 S
C280 C281 1.251 . S
C281 H251 0.929 1_545 S
C281 N277 1.418 1_445 S
C281 C280 1.251 . S
C282 H249 0.930 . S
C282 C284 1.406 . S
C282 C287 1.261 . S
C283 H250 0.930 . S
C283 N285 1.325 . S
C283 C286 1.357 . S
C284 H252 0.928 . S
C284 C282 1.406 . S
C284 N285 1.261 . S
N285 Co236 2.214 1_455 S
N285 C283 1.325 . S
N285 C284 1.261 . S
C286 H256 0.931 . S
C286 C283 1.357 . S
C286 C287 1.312 . S
C287 H258 0.930 . S
C287 C282 1.261 . S
C287 C286 1.312 . S
C288 O260 1.214 . S
C288 O268 1.234 . S
C289 H261 0.929 . S
C289 C292 1.391 . S
C289 C294 1.391 . S
C290 H262 0.929 . S
C290 C291 1.390 . S
C290 N293 1.391 . S
C291 H263 0.930 . S
C291 C290 1.390 . S
C291 C292 1.392 . S
C292 H264 0.929 . S
C292 C289 1.391 . S
C292 C291 1.392 . S
N293 Co237 2.257 . S
N293 C290 1.391 . S
N293 C294 1.388 . S
C294 H265 0.930 . S
C294 C289 1.391 . S
C294 N293 1.388 . S
Co295 O297 2.143 . S
Co295 O303 2.074 . S
Co295 O306 2.093 . S
Co295 O319 2.097 . S
Co295 N336 2.151 . S
Co295 N344 2.214 . S
Co296 O297 2.160 . S
Co296 O302 2.058 . S
Co296 O312 2.057 . S
Co296 O327 2.037 . S
Co296 N331 2.145 . S
Co296 N352 2.257 . S
O297 Co295 2.143 . S
O297 Co296 2.160 . S
C298 O299 1.278 . S
C298 O306 1.224 . S
O299 C298 1.278 . S
C300 O301 1.245 . S
C300 O312 1.232 . S
O301 C300 1.245 . S
O302 Co296 2.058 . S
O302 C328 1.269 . S
O303 Co295 2.074 . S
O303 C328 1.257 . S
H304 C329 0.930 . S
H305 C335 0.930 . S
O306 Co295 2.093 . S
O306 C298 1.224 . S
H307 C339 0.929 . S
H308 C341 0.930 . S
H309 C342 0.930 . S
H310 C340 0.929 1_545 S
H311 C343 0.928 . S
O312 Co296 2.057 . S
O312 C300 1.232 . S
H313 C332 0.929 . S
H314 C333 0.929 . S
H315 C345 0.931 . S
H316 C337 0.929 . S
H317 C346 0.930 . S
H318 C338 0.931 . S
O319 Co295 2.097 . S
O319 C347 1.214 . S
H320 C348 0.929 . S
H321 C349 0.929 . S
H322 C350 0.930 . S
H323 C351 0.929 . S
H324 C353 0.930 . S
H325 C330 0.930 . S
H326 C334 0.930 . S
O327 Co296 2.037 . S
O327 C347 1.234 . S
C328 O302 1.269 . S
C328 O303 1.257 . S
C329 H304 0.930 . S
C329 C332 1.388 . S
C329 C334 1.418 . S
C330 H325 0.930 . S
C330 C333 1.404 . S
C330 C334 1.353 . S
N331 Co296 2.145 . S
N331 C332 1.397 . S
N331 C333 1.334 . S
C332 H313 0.929 . S
C332 C329 1.388 . S
C332 N331 1.397 . S
C333 H314 0.929 . S
C333 C330 1.404 . S
C333 N331 1.334 . S
C334 H326 0.930 . S
C334 C329 1.418 . S
C334 C330 1.353 . S
C335 H305 0.930 . S
C335 N336 1.330 1_565 S
C335 C337 1.446 . S
N336 Co295 2.151 . S
N336 C335 1.330 1_545 S
N336 C340 1.418 1_545 S
C337 H316 0.929 . S
C337 C335 1.446 . S
C337 C338 1.332 . S
C338 H318 0.931 . S
C338 C337 1.332 . S
C338 C339 1.267 . S
C339 H307 0.929 . S
C339 C338 1.267 . S
C339 C340 1.251 . S
C340 H310 0.929 1_565 S
C340 N336 1.418 1_565 S
C340 C339 1.251 . S
C341 H308 0.930 . S
C341 C343 1.406 . S
C341 C346 1.261 . S
C342 H309 0.930 . S
C342 N344 1.325 . S
C342 C345 1.357 . S
C343 H311 0.928 . S
C343 C341 1.406 . S
C343 N344 1.261 . S
N344 Co295 2.214 . S
N344 C342 1.325 . S
N344 C343 1.261 . S
C345 H315 0.931 . S
C345 C342 1.357 . S
C345 C346 1.312 . S
C346 H317 0.930 . S
C346 C341 1.261 . S
C346 C345 1.312 . S
C347 O319 1.214 . S
C347 O327 1.234 . S
C348 H320 0.929 . S
C348 C351 1.391 . S
C348 C353 1.391 . S
C349 H321 0.929 . S
C349 C350 1.390 . S
C349 N352 1.391 . S
C350 H322 0.930 . S
C350 C349 1.390 . S
C350 C351 1.392 . S
C351 H323 0.929 . S
C351 C348 1.391 . S
C351 C350 1.392 . S
N352 Co296 2.257 . S
N352 C349 1.391 . S
N352 C353 1.388 . S
C353 H324 0.930 . S
C353 C348 1.391 . S
C353 N352 1.388 . S
Co354 O356 2.143 . S
Co354 O362 2.074 . S
Co354 O365 2.093 . S
Co354 O378 2.097 . S
Co354 N395 2.151 . S
Co354 N403 2.214 . S
Co355 O356 2.160 . S
Co355 O361 2.058 . S
Co355 O371 2.057 . S
Co355 O386 2.037 . S
Co355 N390 2.145 . S
Co355 N411 2.257 . S
O356 Co354 2.143 . S
O356 Co355 2.160 . S
C357 O358 1.278 . S
C357 O365 1.224 . S
O358 C357 1.278 . S
C359 O360 1.245 . S
C359 O371 1.232 . S
O360 C359 1.245 . S
O361 Co355 2.058 . S
O361 C387 1.269 . S
O362 Co354 2.074 . S
O362 C387 1.257 . S
H363 C388 0.930 . S
H364 C394 0.930 . S
O365 Co354 2.093 . S
O365 C357 1.224 . S
H366 C398 0.929 . S
H367 C400 0.930 . S
H368 C401 0.930 . S
H369 C399 0.929 1_545 S
H370 C402 0.928 . S
O371 Co355 2.057 . S
O371 C359 1.232 . S
H372 C391 0.929 . S
H373 C392 0.929 . S
H374 C404 0.931 . S
H375 C396 0.929 . S
H376 C405 0.930 . S
H377 C397 0.931 . S
O378 Co354 2.097 . S
O378 C406 1.214 . S
H379 C407 0.929 . S
H380 C408 0.929 . S
H381 C409 0.930 . S
H382 C410 0.929 . S
H383 C412 0.930 . S
H384 C389 0.930 . S
H385 C393 0.930 . S
O386 Co355 2.037 . S
O386 C406 1.234 . S
C387 O361 1.269 . S
C387 O362 1.257 . S
C388 H363 0.930 . S
C388 C391 1.388 . S
C388 C393 1.418 . S
C389 H384 0.930 . S
C389 C392 1.404 . S
C389 C393 1.353 . S
N390 Co355 2.145 . S
N390 C391 1.397 . S
N390 C392 1.334 . S
C391 H372 0.929 . S
C391 C388 1.388 . S
C391 N390 1.397 . S
C392 H373 0.929 . S
C392 C389 1.404 . S
C392 N390 1.334 . S
C393 H385 0.930 . S
C393 C388 1.418 . S
C393 C389 1.353 . S
C394 H364 0.930 . S
C394 N395 1.330 1_565 S
C394 C396 1.446 . S
N395 Co354 2.151 . S
N395 C394 1.330 1_545 S
N395 C399 1.418 1_545 S
C396 H375 0.929 . S
C396 C394 1.446 . S
C396 C397 1.332 . S
C397 H377 0.931 . S
C397 C396 1.332 . S
C397 C398 1.267 . S
C398 H366 0.929 . S
C398 C397 1.267 . S
C398 C399 1.251 . S
C399 H369 0.929 1_565 S
C399 N395 1.418 1_565 S
C399 C398 1.251 . S
C400 H367 0.930 . S
C400 C402 1.406 . S
C400 C405 1.261 . S
C401 H368 0.930 . S
C401 N403 1.325 . S
C401 C404 1.357 . S
C402 H370 0.928 . S
C402 C400 1.406 . S
C402 N403 1.261 . S
N403 Co354 2.214 . S
N403 C401 1.325 . S
N403 C402 1.261 . S
C404 H374 0.931 . S
C404 C401 1.357 . S
C404 C405 1.312 . S
C405 H376 0.930 . S
C405 C400 1.261 . S
C405 C404 1.312 . S
C406 O378 1.214 . S
C406 O386 1.234 . S
C407 H379 0.929 . S
C407 C410 1.391 . S
C407 C412 1.391 . S
C408 H380 0.929 . S
C408 C409 1.390 . S
C408 N411 1.391 . S
C409 H381 0.930 . S
C409 C408 1.390 . S
C409 C410 1.392 . S
C410 H382 0.929 . S
C410 C407 1.391 . S
C410 C409 1.392 . S
N411 Co355 2.257 . S
N411 C408 1.391 . S
N411 C412 1.388 . S
C412 H383 0.930 . S
C412 C407 1.391 . S
C412 N411 1.388 . S
Co413 O415 2.143 . S
Co413 O421 2.074 . S
Co413 O424 2.093 . S
Co413 O437 2.097 . S
Co413 N454 2.151 . S
Co413 N462 2.214 1_455 S
Co414 O415 2.160 . S
Co414 O420 2.058 . S
Co414 O430 2.057 . S
Co414 O445 2.037 . S
Co414 N449 2.145 . S
Co414 N470 2.257 . S
O415 Co413 2.143 . S
O415 Co414 2.160 . S
C416 O417 1.278 . S
C416 O424 1.224 . S
O417 C416 1.278 . S
C418 O419 1.245 . S
C418 O430 1.232 . S
O419 C418 1.245 . S
O420 Co414 2.058 . S
O420 C446 1.269 . S
O421 Co413 2.074 . S
O421 C446 1.257 . S
H422 C447 0.930 . S
H423 C453 0.930 . S
O424 Co413 2.093 . S
O424 C416 1.224 . S
H425 C457 0.929 . S
H426 C459 0.930 . S
H427 C460 0.930 . S
H428 C458 0.929 1_565 S
H429 C461 0.928 . S
O430 Co414 2.057 . S
O430 C418 1.232 . S
H431 C450 0.929 . S
H432 C451 0.929 . S
H433 C463 0.931 . S
H434 C455 0.929 . S
H435 C464 0.930 . S
H436 C456 0.927 1_655 S
O437 Co413 2.097 . S
O437 C465 1.214 . S
H438 C466 0.929 . S
H439 C467 0.929 . S
H440 C468 0.930 . S
H441 C469 0.929 . S
H442 C471 0.930 . S
H443 C448 0.930 . S
H444 C452 0.930 . S
O445 Co414 2.037 . S
O445 C465 1.234 . S
C446 O420 1.269 . S
C446 O421 1.257 . S
C447 H422 0.930 . S
C447 C450 1.388 . S
C447 C452 1.418 . S
C448 H443 0.930 . S
C448 C451 1.404 . S
C448 C452 1.353 . S
N449 Co414 2.145 . S
N449 C450 1.397 . S
N449 C451 1.334 . S
C450 H431 0.929 . S
C450 C447 1.388 . S
C450 N449 1.397 . S
C451 H432 0.929 . S
C451 C448 1.404 . S
C451 N449 1.334 . S
C452 H444 0.930 . S
C452 C447 1.418 . S
C452 C448 1.353 . S
C453 H423 0.930 . S
C453 N454 1.330 1_545 S
C453 C455 1.446 . S
N454 Co413 2.151 . S
N454 C453 1.330 1_565 S
N454 C458 1.418 1_465 S
C455 H434 0.929 . S
C455 C453 1.446 . S
C455 C456 1.339 . S
C456 H436 0.927 1_455 S
C456 C455 1.339 . S
C456 C457 1.262 1_455 S
C457 H425 0.929 . S
C457 C456 1.262 1_655 S
C457 C458 1.251 . S
C458 H428 0.929 1_545 S
C458 N454 1.418 1_645 S
C458 C457 1.251 . S
C459 H426 0.930 . S
C459 C461 1.406 . S
C459 C464 1.261 . S
C460 H427 0.930 . S
C460 N462 1.325 . S
C460 C463 1.357 . S
C461 H429 0.928 . S
C461 C459 1.406 . S
C461 N462 1.261 . S
N462 Co413 2.214 1_655 S
N462 C460 1.325 . S
N462 C461 1.261 . S
C463 H433 0.931 . S
C463 C460 1.357 . S
C463 C464 1.312 . S
C464 H435 0.930 . S
C464 C459 1.261 . S
C464 C463 1.312 . S
C465 O437 1.214 . S
C465 O445 1.234 . S
C466 H438 0.929 . S
C466 C469 1.391 . S
C466 C471 1.391 . S
C467 H439 0.929 . S
C467 C468 1.390 . S
C467 N470 1.391 . S
C468 H440 0.930 . S
C468 C467 1.390 . S
C468 C469 1.392 . S
C469 H441 0.929 . S
C469 C466 1.391 . S
C469 C468 1.392 . S
N470 Co414 2.257 . S
N470 C467 1.391 . S
N470 C471 1.388 . S
C471 H442 0.930 . S
C471 C466 1.391 . S
C471 N470 1.388 . S
Co472 O474 2.143 . S
Co472 O480 2.074 . S
Co472 O483 2.093 . S
Co472 O496 2.097 . S
Co472 N513 2.151 . S
Co472 N521 2.214 . S
Co473 O474 2.160 . S
Co473 O479 2.058 . S
Co473 O489 2.057 . S
Co473 O504 2.037 . S
Co473 N508 2.145 . S
Co473 N529 2.257 . S
O474 Co472 2.143 . S
O474 Co473 2.160 . S
C475 O476 1.278 . S
C475 O483 1.224 . S
O476 C475 1.278 . S
C477 O478 1.245 . S
C477 O489 1.232 . S
O478 C477 1.245 . S
O479 Co473 2.058 . S
O479 C505 1.269 . S
O480 Co472 2.074 . S
O480 C505 1.257 . S
H481 C506 0.930 . S
H482 C512 0.930 . S
O483 Co472 2.093 . S
O483 C475 1.224 . S
H484 C516 0.929 . S
H485 C518 0.930 . S
H486 C519 0.930 . S
H487 C517 0.929 . S
H488 C520 0.928 . S
O489 Co473 2.057 . S
O489 C477 1.232 . S
H490 C509 0.929 . S
H491 C510 0.929 . S
H492 C522 0.931 . S
H493 C514 0.929 . S
H494 C523 0.930 . S
H495 C515 0.931 . S
O496 Co472 2.097 . S
O496 C524 1.214 . S
H497 C525 0.929 . S
H498 C526 0.929 . S
H499 C527 0.930 . S
H500 C528 0.929 . S
H501 C530 0.930 . S
H502 C507 0.930 . S
H503 C511 0.930 . S
O504 Co473 2.037 . S
O504 C524 1.234 . S
C505 O479 1.269 . S
C505 O480 1.257 . S
C506 H481 0.930 . S
C506 C509 1.388 . S
C506 C511 1.418 . S
C507 H502 0.930 . S
C507 C510 1.404 . S
C507 C511 1.353 . S
N508 Co473 2.145 . S
N508 C509 1.397 . S
N508 C510 1.334 . S
C509 H490 0.929 . S
C509 C506 1.388 . S
C509 N508 1.397 . S
C510 H491 0.929 . S
C510 C507 1.404 . S
C510 N508 1.334 . S
C511 H503 0.930 . S
C511 C506 1.418 . S
C511 C507 1.353 . S
C512 H482 0.930 . S
C512 N513 1.330 . S
C512 C514 1.446 . S
N513 Co472 2.151 . S
N513 C512 1.330 . S
N513 C517 1.418 . S
C514 H493 0.929 . S
C514 C512 1.446 . S
C514 C515 1.332 . S
C515 H495 0.931 . S
C515 C514 1.332 . S
C515 C516 1.267 . S
C516 H484 0.929 . S
C516 C515 1.267 . S
C516 C517 1.251 . S
C517 H487 0.929 . S
C517 N513 1.418 . S
C517 C516 1.251 . S
C518 H485 0.930 . S
C518 C520 1.406 . S
C518 C523 1.261 . S
C519 H486 0.930 . S
C519 N521 1.325 . S
C519 C522 1.357 . S
C520 H488 0.928 . S
C520 C518 1.406 . S
C520 N521 1.261 . S
N521 Co472 2.214 . S
N521 C519 1.325 . S
N521 C520 1.261 . S
C522 H492 0.931 . S
C522 C519 1.357 . S
C522 C523 1.312 . S
C523 H494 0.930 . S
C523 C518 1.261 . S
C523 C522 1.312 . S
C524 O496 1.214 . S
C524 O504 1.234 . S
C525 H497 0.929 . S
C525 C528 1.391 . S
C525 C530 1.391 . S
C526 H498 0.929 . S
C526 C527 1.390 . S
C526 N529 1.391 . S
C527 H499 0.930 . S
C527 C526 1.390 . S
C527 C528 1.392 . S
C528 H500 0.929 . S
C528 C525 1.391 . S
C528 C527 1.392 . S
N529 Co473 2.257 . S
N529 C526 1.391 . S
N529 C530 1.388 . S
C530 H501 0.930 . S
C530 C525 1.391 . S
C530 N529 1.388 . S
Co531 O533 2.143 . S
Co531 O539 2.074 . S
Co531 O542 2.093 . S
Co531 O555 2.097 . S
Co531 N572 2.151 . S
Co531 N580 2.214 1_655 S
Co532 O533 2.160 . S
Co532 O538 2.058 . S
Co532 O548 2.057 . S
Co532 O563 2.037 . S
Co532 N567 2.145 . S
Co532 N588 2.257 . S
O533 Co531 2.143 . S
O533 Co532 2.160 . S
C534 O535 1.278 . S
C534 O542 1.224 . S
O535 C534 1.278 . S
C536 O537 1.245 . S
C536 O548 1.232 . S
O537 C536 1.245 . S
O538 Co532 2.058 . S
O538 C564 1.269 . S
O539 Co531 2.074 . S
O539 C564 1.257 . S
H540 C565 0.930 . S
H541 C571 0.930 . S
O542 Co531 2.093 . S
O542 C534 1.224 . S
H543 C575 0.929 . S
H544 C577 0.930 . S
H545 C578 0.930 . S
H546 C576 0.929 . S
H547 C579 0.928 . S
O548 Co532 2.057 . S
O548 C536 1.232 . S
H549 C568 0.929 . S
H550 C569 0.929 . S
H551 C581 0.931 . S
H552 C573 0.929 . S
H553 C582 0.930 . S
H554 C574 0.927 1_455 S
O555 Co531 2.097 . S
O555 C583 1.214 . S
H556 C584 0.929 . S
H557 C585 0.929 . S
H558 C586 0.930 . S
H559 C587 0.929 . S
H560 C589 0.930 . S
H561 C566 0.930 . S
H562 C570 0.930 . S
O563 Co532 2.037 . S
O563 C583 1.234 . S
C564 O538 1.269 . S
C564 O539 1.257 . S
C565 H540 0.930 . S
C565 C568 1.388 . S
C565 C570 1.418 . S
C566 H561 0.930 . S
C566 C569 1.404 . S
C566 C570 1.353 . S
N567 Co532 2.145 . S
N567 C568 1.397 . S
N567 C569 1.334 . S
C568 H549 0.929 . S
C568 C565 1.388 . S
C568 N567 1.397 . S
C569 H550 0.929 . S
C569 C566 1.404 . S
C569 N567 1.334 . S
C570 H562 0.930 . S
C570 C565 1.418 . S
C570 C566 1.353 . S
C571 H541 0.930 . S
C571 N572 1.330 . S
C571 C573 1.446 . S
N572 Co531 2.151 . S
N572 C571 1.330 . S
N572 C576 1.418 1_655 S
C573 H552 0.929 . S
C573 C571 1.446 . S
C573 C574 1.339 . S
C574 H554 0.927 1_655 S
C574 C573 1.339 . S
C574 C575 1.262 1_655 S
C575 H543 0.929 . S
C575 C574 1.262 1_455 S
C575 C576 1.251 . S
C576 H546 0.929 . S
C576 N572 1.418 1_455 S
C576 C575 1.251 . S
C577 H544 0.930 . S
C577 C579 1.406 . S
C577 C582 1.261 . S
C578 H545 0.930 . S
C578 N580 1.325 . S
C578 C581 1.357 . S
C579 H547 0.928 . S
C579 C577 1.406 . S
C579 N580 1.261 . S
N580 Co531 2.214 1_455 S
N580 C578 1.325 . S
N580 C579 1.261 . S
C581 H551 0.931 . S
C581 C578 1.357 . S
C581 C582 1.312 . S
C582 H553 0.930 . S
C582 C577 1.261 . S
C582 C581 1.312 . S
C583 O555 1.214 . S
C583 O563 1.234 . S
C584 H556 0.929 . S
C584 C587 1.391 . S
C584 C589 1.391 . S
C585 H557 0.929 . S
C585 C586 1.390 . S
C585 N588 1.391 . S
C586 H558 0.930 . S
C586 C585 1.390 . S
C586 C587 1.392 . S
C587 H559 0.929 . S
C587 C584 1.391 . S
C587 C586 1.392 . S
N588 Co532 2.257 . S
N588 C585 1.391 . S
N588 C589 1.388 . S
C589 H560 0.930 . S
C589 C584 1.391 . S
C589 N588 1.388 . S
Co590 O592 2.143 . S
Co590 O598 2.074 . S
Co590 O601 2.093 . S
Co590 O614 2.097 . S
Co590 N631 2.151 . S
Co590 N639 2.214 1_455 S
Co591 O592 2.160 . S
Co591 O597 2.058 . S
Co591 O607 2.057 . S
Co591 O622 2.037 . S
Co591 N626 2.145 . S
Co591 N647 2.257 . S
O592 Co590 2.143 . S
O592 Co591 2.160 . S
C593 O594 1.278 . S
C593 O601 1.224 . S
O594 C593 1.278 . S
C595 O596 1.245 . S
C595 O607 1.232 . S
O596 C595 1.245 . S
O597 Co591 2.058 . S
O597 C623 1.269 . S
O598 Co590 2.074 . S
O598 C623 1.257 . S
H599 C624 0.930 . S
H600 C630 0.930 . S
O601 Co590 2.093 . S
O601 C593 1.224 . S
H602 C634 0.929 . S
H603 C636 0.930 . S
H604 C637 0.930 . S
H605 C635 0.929 . S
H606 C638 0.928 . S
O607 Co591 2.057 . S
O607 C595 1.232 . S
H608 C627 0.929 . S
H609 C628 0.929 . S
H610 C640 0.931 . S
H611 C632 0.929 . S
H612 C641 0.930 . S
H613 C633 0.927 1_655 S
O614 Co590 2.097 . S
O614 C642 1.214 . S
H615 C643 0.929 . S
H616 C644 0.929 . S
H617 C645 0.930 . S
H618 C646 0.929 . S
H619 C648 0.930 . S
H620 C625 0.930 . S
H621 C629 0.930 . S
O622 Co591 2.037 . S
O622 C642 1.234 . S
C623 O597 1.269 . S
C623 O598 1.257 . S
C624 H599 0.930 . S
C624 C627 1.388 . S
C624 C629 1.418 . S
C625 H620 0.930 . S
C625 C628 1.404 . S
C625 C629 1.353 . S
N626 Co591 2.145 . S
N626 C627 1.397 . S
N626 C628 1.334 . S
C627 H608 0.929 . S
C627 C624 1.388 . S
C627 N626 1.397 . S
C628 H609 0.929 . S
C628 C625 1.404 . S
C628 N626 1.334 . S
C629 H621 0.930 . S
C629 C624 1.418 . S
C629 C625 1.353 . S
C630 H600 0.930 . S
C630 N631 1.330 . S
C630 C632 1.446 . S
N631 Co590 2.151 . S
N631 C630 1.330 . S
N631 C635 1.418 1_455 S
C632 H611 0.929 . S
C632 C630 1.446 . S
C632 C633 1.339 . S
C633 H613 0.927 1_455 S
C633 C632 1.339 . S
C633 C634 1.262 1_455 S
C634 H602 0.929 . S
C634 C633 1.262 1_655 S
C634 C635 1.251 . S
C635 H605 0.929 . S
C635 N631 1.418 1_655 S
C635 C634 1.251 . S
C636 H603 0.930 . S
C636 C638 1.406 . S
C636 C641 1.261 . S
C637 H604 0.930 . S
C637 N639 1.325 . S
C637 C640 1.357 . S
C638 H606 0.928 . S
C638 C636 1.406 . S
C638 N639 1.261 . S
N639 Co590 2.214 1_655 S
N639 C637 1.325 . S
N639 C638 1.261 . S
C640 H610 0.931 . S
C640 C637 1.357 . S
C640 C641 1.312 . S
C641 H612 0.930 . S
C641 C636 1.261 . S
C641 C640 1.312 . S
C642 O614 1.214 . S
C642 O622 1.234 . S
C643 H615 0.929 . S
C643 C646 1.391 . S
C643 C648 1.391 . S
C644 H616 0.929 . S
C644 C645 1.390 . S
C644 N647 1.391 . S
C645 H617 0.930 . S
C645 C644 1.390 . S
C645 C646 1.392 . S
C646 H618 0.929 . S
C646 C643 1.391 . S
C646 C645 1.392 . S
N647 Co591 2.257 . S
N647 C644 1.391 . S
N647 C648 1.388 . S
C648 H619 0.930 . S
C648 C643 1.391 . S
C648 N647 1.388 . S
Co649 O651 2.143 . S
Co649 O657 2.074 . S
Co649 O660 2.093 . S
Co649 O673 2.097 . S
Co649 N690 2.151 . S
Co649 N698 2.214 . S
Co650 O651 2.160 . S
Co650 O656 2.058 . S
Co650 O666 2.057 . S
Co650 O681 2.037 . S
Co650 N685 2.145 . S
Co650 N706 2.257 . S
O651 Co649 2.143 . S
O651 Co650 2.160 . S
C652 O653 1.278 . S
C652 O660 1.224 . S
O653 C652 1.278 . S
C654 O655 1.245 . S
C654 O666 1.232 . S
O655 C654 1.245 . S
O656 Co650 2.058 . S
O656 C682 1.269 . S
O657 Co649 2.074 . S
O657 C682 1.257 . S
H658 C683 0.930 . S
H659 C689 0.930 . S
O660 Co649 2.093 . S
O660 C652 1.224 . S
H661 C693 0.929 . S
H662 C695 0.930 . S
H663 C696 0.930 . S
H664 C694 0.929 . S
H665 C697 0.928 . S
O666 Co650 2.057 . S
O666 C654 1.232 . S
H667 C686 0.929 . S
H668 C687 0.929 . S
H669 C699 0.931 . S
H670 C691 0.929 . S
H671 C700 0.930 . S
H672 C692 0.931 . S
O673 Co649 2.097 . S
O673 C701 1.214 . S
H674 C702 0.929 . S
H675 C703 0.929 . S
H676 C704 0.930 . S
H677 C705 0.929 . S
H678 C707 0.930 . S
H679 C684 0.930 . S
H680 C688 0.930 . S
O681 Co650 2.037 . S
O681 C701 1.234 . S
C682 O656 1.269 . S
C682 O657 1.257 . S
C683 H658 0.930 . S
C683 C686 1.388 . S
C683 C688 1.418 . S
C684 H679 0.930 . S
C684 C687 1.404 . S
C684 C688 1.353 . S
N685 Co650 2.145 . S
N685 C686 1.397 . S
N685 C687 1.334 . S
C686 H667 0.929 . S
C686 C683 1.388 . S
C686 N685 1.397 . S
C687 H668 0.929 . S
C687 C684 1.404 . S
C687 N685 1.334 . S
C688 H680 0.930 . S
C688 C683 1.418 . S
C688 C684 1.353 . S
C689 H659 0.930 . S
C689 N690 1.330 . S
C689 C691 1.446 . S
N690 Co649 2.151 . S
N690 C689 1.330 . S
N690 C694 1.418 . S
C691 H670 0.929 . S
C691 C689 1.446 . S
C691 C692 1.332 . S
C692 H672 0.931 . S
C692 C691 1.332 . S
C692 C693 1.267 . S
C693 H661 0.929 . S
C693 C692 1.267 . S
C693 C694 1.251 . S
C694 H664 0.929 . S
C694 N690 1.418 . S
C694 C693 1.251 . S
C695 H662 0.930 . S
C695 C697 1.406 . S
C695 C700 1.261 . S
C696 H663 0.930 . S
C696 N698 1.325 . S
C696 C699 1.357 . S
C697 H665 0.928 . S
C697 C695 1.406 . S
C697 N698 1.261 . S
N698 Co649 2.214 . S
N698 C696 1.325 . S
N698 C697 1.261 . S
C699 H669 0.931 . S
C699 C696 1.357 . S
C699 C700 1.312 . S
C700 H671 0.930 . S
C700 C695 1.261 . S
C700 C699 1.312 . S
C701 O673 1.214 . S
C701 O681 1.234 . S
C702 H674 0.929 . S
C702 C705 1.391 . S
C702 C707 1.391 . S
C703 H675 0.929 . S
C703 C704 1.390 . S
C703 N706 1.391 . S
C704 H676 0.930 . S
C704 C703 1.390 . S
C704 C705 1.392 . S
C705 H677 0.929 . S
C705 C702 1.391 . S
C705 C704 1.392 . S
N706 Co650 2.257 . S
N706 C703 1.391 . S
N706 C707 1.388 . S
C707 H678 0.930 . S
C707 C702 1.391 . S
C707 N706 1.388 . S
Co708 O710 2.143 . S
Co708 O716 2.074 . S
Co708 O719 2.093 . S
Co708 O732 2.097 . S
Co708 N749 2.151 . S
Co708 N757 2.214 . S
Co709 O710 2.160 . S
Co709 O715 2.058 . S
Co709 O725 2.057 . S
Co709 O740 2.037 . S
Co709 N744 2.145 . S
Co709 N765 2.257 . S
O710 Co708 2.143 . S
O710 Co709 2.160 . S
C711 O712 1.278 . S
C711 O719 1.224 . S
O712 C711 1.278 . S
C713 O714 1.245 . S
C713 O725 1.232 . S
O714 C713 1.245 . S
O715 Co709 2.058 . S
O715 C741 1.269 . S
O716 Co708 2.074 . S
O716 C741 1.257 . S
H717 C742 0.930 . S
H718 C748 0.930 . S
O719 Co708 2.093 . S
O719 C711 1.224 . S
H720 C752 0.929 . S
H721 C754 0.930 . S
H722 C755 0.930 . S
H723 C753 0.929 . S
H724 C756 0.928 . S
O725 Co709 2.057 . S
O725 C713 1.232 . S
H726 C745 0.929 . S
H727 C746 0.929 . S
H728 C758 0.931 . S
H729 C750 0.929 . S
H730 C759 0.930 . S
H731 C751 0.931 . S
O732 Co708 2.097 . S
O732 C760 1.214 . S
H733 C761 0.929 . S
H734 C762 0.929 . S
H735 C763 0.930 . S
H736 C764 0.929 . S
H737 C766 0.930 . S
H738 C743 0.930 . S
H739 C747 0.930 . S
O740 Co709 2.037 . S
O740 C760 1.234 . S
C741 O715 1.269 . S
C741 O716 1.257 . S
C742 H717 0.930 . S
C742 C745 1.388 . S
C742 C747 1.418 . S
C743 H738 0.930 . S
C743 C746 1.404 . S
C743 C747 1.353 . S
N744 Co709 2.145 . S
N744 C745 1.397 . S
N744 C746 1.334 . S
C745 H726 0.929 . S
C745 C742 1.388 . S
C745 N744 1.397 . S
C746 H727 0.929 . S
C746 C743 1.404 . S
C746 N744 1.334 . S
C747 H739 0.930 . S
C747 C742 1.418 . S
C747 C743 1.353 . S
C748 H718 0.930 . S
C748 N749 1.330 . S
C748 C750 1.446 . S
N749 Co708 2.151 . S
N749 C748 1.330 . S
N749 C753 1.418 . S
C750 H729 0.929 . S
C750 C748 1.446 . S
C750 C751 1.332 . S
C751 H731 0.931 . S
C751 C750 1.332 . S
C751 C752 1.267 . S
C752 H720 0.929 . S
C752 C751 1.267 . S
C752 C753 1.251 . S
C753 H723 0.929 . S
C753 N749 1.418 . S
C753 C752 1.251 . S
C754 H721 0.930 . S
C754 C756 1.406 . S
C754 C759 1.261 . S
C755 H722 0.930 . S
C755 N757 1.325 . S
C755 C758 1.357 . S
C756 H724 0.928 . S
C756 C754 1.406 . S
C756 N757 1.261 . S
N757 Co708 2.214 . S
N757 C755 1.325 . S
N757 C756 1.261 . S
C758 H728 0.931 . S
C758 C755 1.357 . S
C758 C759 1.312 . S
C759 H730 0.930 . S
C759 C754 1.261 . S
C759 C758 1.312 . S
C760 O732 1.214 . S
C760 O740 1.234 . S
C761 H733 0.929 . S
C761 C764 1.391 . S
C761 C766 1.391 . S
C762 H734 0.929 . S
C762 C763 1.390 . S
C762 N765 1.391 . S
C763 H735 0.930 . S
C763 C762 1.390 . S
C763 C764 1.392 . S
C764 H736 0.929 . S
C764 C761 1.391 . S
C764 C763 1.392 . S
N765 Co709 2.257 . S
N765 C762 1.391 . S
N765 C766 1.388 . S
C766 H737 0.930 . S
C766 C761 1.391 . S
C766 N765 1.388 . S
Co767 O769 2.143 . S
Co767 O775 2.074 . S
Co767 O778 2.093 . S
Co767 O791 2.097 . S
Co767 N808 2.151 . S
Co767 N816 2.214 1_455 S
Co768 O769 2.160 . S
Co768 O774 2.058 . S
Co768 O784 2.057 . S
Co768 O799 2.037 . S
Co768 N803 2.145 . S
Co768 N824 2.257 . S
O769 Co767 2.143 . S
O769 Co768 2.160 . S
C770 O771 1.278 . S
C770 O778 1.224 . S
O771 C770 1.278 . S
C772 O773 1.245 . S
C772 O784 1.232 . S
O773 C772 1.245 . S
O774 Co768 2.058 . S
O774 C800 1.269 . S
O775 Co767 2.074 . S
O775 C800 1.257 . S
H776 C801 0.930 . S
H777 C807 0.930 . S
O778 Co767 2.093 . S
O778 C770 1.224 . S
H779 C811 0.929 . S
H780 C813 0.930 . S
H781 C814 0.930 . S
H782 C812 0.929 . S
H783 C815 0.928 . S
O784 Co768 2.057 . S
O784 C772 1.232 . S
H785 C804 0.929 . S
H786 C805 0.929 . S
H787 C817 0.931 . S
H788 C809 0.929 . S
H789 C818 0.930 . S
H790 C810 0.927 1_655 S
O791 Co767 2.097 . S
O791 C819 1.214 . S
H792 C820 0.929 . S
H793 C821 0.929 . S
H794 C822 0.930 . S
H795 C823 0.929 . S
H796 C825 0.930 . S
H797 C802 0.930 . S
H798 C806 0.930 . S
O799 Co768 2.037 . S
O799 C819 1.234 . S
C800 O774 1.269 . S
C800 O775 1.257 . S
C801 H776 0.930 . S
C801 C804 1.388 . S
C801 C806 1.418 . S
C802 H797 0.930 . S
C802 C805 1.404 . S
C802 C806 1.353 . S
N803 Co768 2.145 . S
N803 C804 1.397 . S
N803 C805 1.334 . S
C804 H785 0.929 . S
C804 C801 1.388 . S
C804 N803 1.397 . S
C805 H786 0.929 . S
C805 C802 1.404 . S
C805 N803 1.334 . S
C806 H798 0.930 . S
C806 C801 1.418 . S
C806 C802 1.353 . S
C807 H777 0.930 . S
C807 N808 1.330 . S
C807 C809 1.446 . S
N808 Co767 2.151 . S
N808 C807 1.330 . S
N808 C812 1.418 1_455 S
C809 H788 0.929 . S
C809 C807 1.446 . S
C809 C810 1.339 . S
C810 H790 0.927 1_455 S
C810 C809 1.339 . S
C810 C811 1.262 1_455 S
C811 H779 0.929 . S
C811 C810 1.262 1_655 S
C811 C812 1.251 . S
C812 H782 0.929 . S
C812 N808 1.418 1_655 S
C812 C811 1.251 . S
C813 H780 0.930 . S
C813 C815 1.406 . S
C813 C818 1.261 . S
C814 H781 0.930 . S
C814 N816 1.325 . S
C814 C817 1.357 . S
C815 H783 0.928 . S
C815 C813 1.406 . S
C815 N816 1.261 . S
N816 Co767 2.214 1_655 S
N816 C814 1.325 . S
N816 C815 1.261 . S
C817 H787 0.931 . S
C817 C814 1.357 . S
C817 C818 1.312 . S
C818 H789 0.930 . S
C818 C813 1.261 . S
C818 C817 1.312 . S
C819 O791 1.214 . S
C819 O799 1.234 . S
C820 H792 0.929 . S
C820 C823 1.391 . S
C820 C825 1.391 . S
C821 H793 0.929 . S
C821 C822 1.390 . S
C821 N824 1.391 . S
C822 H794 0.930 . S
C822 C821 1.390 . S
C822 C823 1.392 . S
C823 H795 0.929 . S
C823 C820 1.391 . S
C823 C822 1.392 . S
N824 Co768 2.257 . S
N824 C821 1.391 . S
N824 C825 1.388 . S
C825 H796 0.930 . S
C825 C820 1.391 . S
C825 N824 1.388 . S
Co826 O828 2.143 . S
Co826 O834 2.074 . S
Co826 O837 2.093 . S
Co826 O850 2.097 . S
Co826 N867 2.151 . S
Co826 N875 2.214 1_655 S
Co827 O828 2.160 . S
Co827 O833 2.058 . S
Co827 O843 2.057 . S
Co827 O858 2.037 . S
Co827 N862 2.145 . S
Co827 N883 2.257 . S
O828 Co826 2.143 . S
O828 Co827 2.160 . S
C829 O830 1.278 . S
C829 O837 1.224 . S
O830 C829 1.278 . S
C831 O832 1.245 . S
C831 O843 1.232 . S
O832 C831 1.245 . S
O833 Co827 2.058 . S
O833 C859 1.269 . S
O834 Co826 2.074 . S
O834 C859 1.257 . S
H835 C860 0.930 . S
H836 C866 0.930 . S
O837 Co826 2.093 . S
O837 C829 1.224 . S
H838 C870 0.929 . S
H839 C872 0.930 . S
H840 C873 0.930 . S
H841 C871 0.929 . S
H842 C874 0.928 . S
O843 Co827 2.057 . S
O843 C831 1.232 . S
H844 C863 0.929 . S
H845 C864 0.929 . S
H846 C876 0.931 . S
H847 C868 0.929 . S
H848 C877 0.930 . S
H849 C869 0.927 1_455 S
O850 Co826 2.097 . S
O850 C878 1.214 . S
H851 C879 0.929 . S
H852 C880 0.929 . S
H853 C881 0.930 . S
H854 C882 0.929 . S
H855 C884 0.930 . S
H856 C861 0.930 . S
H857 C865 0.930 . S
O858 Co827 2.037 . S
O858 C878 1.234 . S
C859 O833 1.269 . S
C859 O834 1.257 . S
C860 H835 0.930 . S
C860 C863 1.388 . S
C860 C865 1.418 . S
C861 H856 0.930 . S
C861 C864 1.404 . S
C861 C865 1.353 . S
N862 Co827 2.145 . S
N862 C863 1.397 . S
N862 C864 1.334 . S
C863 H844 0.929 . S
C863 C860 1.388 . S
C863 N862 1.397 . S
C864 H845 0.929 . S
C864 C861 1.404 . S
C864 N862 1.334 . S
C865 H857 0.930 . S
C865 C860 1.418 . S
C865 C861 1.353 . S
C866 H836 0.930 . S
C866 N867 1.330 . S
C866 C868 1.446 . S
N867 Co826 2.151 . S
N867 C866 1.330 . S
N867 C871 1.418 1_655 S
C868 H847 0.929 . S
C868 C866 1.446 . S
C868 C869 1.339 . S
C869 H849 0.927 1_655 S
C869 C868 1.339 . S
C869 C870 1.262 1_655 S
C870 H838 0.929 . S
C870 C869 1.262 1_455 S
C870 C871 1.251 . S
C871 H841 0.929 . S
C871 N867 1.418 1_455 S
C871 C870 1.251 . S
C872 H839 0.930 . S
C872 C874 1.406 . S
C872 C877 1.261 . S
C873 H840 0.930 . S
C873 N875 1.325 . S
C873 C876 1.357 . S
C874 H842 0.928 . S
C874 C872 1.406 . S
C874 N875 1.261 . S
N875 Co826 2.214 1_455 S
N875 C873 1.325 . S
N875 C874 1.261 . S
C876 H846 0.931 . S
C876 C873 1.357 . S
C876 C877 1.312 . S
C877 H848 0.930 . S
C877 C872 1.261 . S
C877 C876 1.312 . S
C878 O850 1.214 . S
C878 O858 1.234 . S
C879 H851 0.929 . S
C879 C882 1.391 . S
C879 C884 1.391 . S
C880 H852 0.929 . S
C880 C881 1.390 . S
C880 N883 1.391 . S
C881 H853 0.930 . S
C881 C880 1.390 . S
C881 C882 1.392 . S
C882 H854 0.929 . S
C882 C879 1.391 . S
C882 C881 1.392 . S
N883 Co827 2.257 . S
N883 C880 1.391 . S
N883 C884 1.388 . S
C884 H855 0.930 . S
C884 C879 1.391 . S
C884 N883 1.388 . S
Co885 O887 2.143 . S
Co885 O893 2.074 . S
Co885 O896 2.093 . S
Co885 O909 2.097 . S
Co885 N926 2.151 . S
Co885 N934 2.214 . S
Co886 O887 2.160 . S
Co886 O892 2.058 . S
Co886 O902 2.057 . S
Co886 O917 2.037 . S
Co886 N921 2.145 . S
Co886 N942 2.257 . S
O887 Co885 2.143 . S
O887 Co886 2.160 . S
C888 O889 1.278 . S
C888 O896 1.224 . S
O889 C888 1.278 . S
C890 O891 1.245 . S
C890 O902 1.232 . S
O891 C890 1.245 . S
O892 Co886 2.058 . S
O892 C918 1.269 . S
O893 Co885 2.074 . S
O893 C918 1.257 . S
H894 C919 0.930 . S
H895 C925 0.930 . S
O896 Co885 2.093 . S
O896 C888 1.224 . S
H897 C929 0.929 . S
H898 C931 0.930 . S
H899 C932 0.930 . S
H900 C930 0.929 . S
H901 C933 0.928 . S
O902 Co886 2.057 . S
O902 C890 1.232 . S
H903 C922 0.929 . S
H904 C923 0.929 . S
H905 C935 0.931 . S
H906 C927 0.929 . S
H907 C936 0.930 . S
H908 C928 0.931 . S
O909 Co885 2.097 . S
O909 C937 1.214 . S
H910 C938 0.929 . S
H911 C939 0.929 . S
H912 C940 0.930 . S
H913 C941 0.929 . S
H914 C943 0.930 . S
H915 C920 0.930 . S
H916 C924 0.930 . S
O917 Co886 2.037 . S
O917 C937 1.234 . S
C918 O892 1.269 . S
C918 O893 1.257 . S
C919 H894 0.930 . S
C919 C922 1.388 . S
C919 C924 1.418 . S
C920 H915 0.930 . S
C920 C923 1.404 . S
C920 C924 1.353 . S
N921 Co886 2.145 . S
N921 C922 1.397 . S
N921 C923 1.334 . S
C922 H903 0.929 . S
C922 C919 1.388 . S
C922 N921 1.397 . S
C923 H904 0.929 . S
C923 C920 1.404 . S
C923 N921 1.334 . S
C924 H916 0.930 . S
C924 C919 1.418 . S
C924 C920 1.353 . S
C925 H895 0.930 . S
C925 N926 1.330 . S
C925 C927 1.446 . S
N926 Co885 2.151 . S
N926 C925 1.330 . S
N926 C930 1.418 . S
C927 H906 0.929 . S
C927 C925 1.446 . S
C927 C928 1.332 . S
C928 H908 0.931 . S
C928 C927 1.332 . S
C928 C929 1.267 . S
C929 H897 0.929 . S
C929 C928 1.267 . S
C929 C930 1.251 . S
C930 H900 0.929 . S
C930 N926 1.418 . S
C930 C929 1.251 . S
C931 H898 0.930 . S
C931 C933 1.406 . S
C931 C936 1.261 . S
C932 H899 0.930 . S
C932 N934 1.325 . S
C932 C935 1.357 . S
C933 H901 0.928 . S
C933 C931 1.406 . S
C933 N934 1.261 . S
N934 Co885 2.214 . S
N934 C932 1.325 . S
N934 C933 1.261 . S
C935 H905 0.931 . S
C935 C932 1.357 . S
C935 C936 1.312 . S
C936 H907 0.930 . S
C936 C931 1.261 . S
C936 C935 1.312 . S
C937 O909 1.214 . S
C937 O917 1.234 . S
C938 H910 0.929 . S
C938 C941 1.391 . S
C938 C943 1.391 . S
C939 H911 0.929 . S
C939 C940 1.390 . S
C939 N942 1.391 . S
C940 H912 0.930 . S
C940 C939 1.390 . S
C940 C941 1.392 . S
C941 H913 0.929 . S
C941 C938 1.391 . S
C941 C940 1.392 . S
N942 Co886 2.257 . S
N942 C939 1.391 . S
N942 C943 1.388 . S
C943 H914 0.930 . S
C943 C938 1.391 . S
C943 N942 1.388 . S
C944 C945 1.391 . S
C944 C946 1.394 . S
C944 H960 0.931 . S
C945 C944 1.391 . S
C945 C949 1.376 . S
C946 C944 1.394 . S
C946 C947 1.369 . S
C946 C950 1.531 1_565 S
C947 C946 1.369 . S
C947 C948 1.410 . S
C947 C955 1.503 . S
C948 C947 1.410 . S
C948 C949 1.392 . S
C948 C951 1.511 . S
C949 C945 1.376 . S
C949 C948 1.392 . S
C949 H961 0.929 . S
C950 C946 1.531 1_545 S
C950 H962 0.960 . S
C950 H963 0.962 . S
C950 H964 0.960 . S
C951 C948 1.511 . S
C951 H965 0.961 . S
C951 H966 0.961 . S
C951 H967 0.961 . S
C952 C953 1.370 . S
C952 C954 1.363 . S
C952 H968 0.931 . S
C953 C952 1.370 . S
C953 C957 1.408 1_545 S
C954 C952 1.363 . S
C954 C955 1.371 1_545 S
C954 C958 1.524 . S
C955 C947 1.503 . S
C955 C954 1.371 1_565 S
C955 C956 1.402 . S
C956 C955 1.402 . S
C956 C957 1.404 . S
C956 C959 1.539 . S
C957 C953 1.408 1_565 S
C957 C956 1.404 . S
C957 H969 0.930 . S
C958 C954 1.524 . S
C958 H970 0.956 . S
C958 H971 0.961 . S
C958 H972 0.961 . S
C959 C956 1.539 . S
C959 H973 0.958 . S
C959 H974 0.961 . S
C959 H975 0.960 . S
H960 C944 0.931 . S
H961 C949 0.929 . S
H962 C950 0.960 . S
H963 C950 0.962 . S
H964 C950 0.960 . S
H965 C951 0.961 . S
H966 C951 0.961 . S
H967 C951 0.961 . S
H968 C952 0.931 . S
H969 C957 0.930 . S
H970 C958 0.956 . S
H971 C958 0.961 . S
H972 C958 0.961 . S
H973 C959 0.958 . S
H974 C959 0.961 . S
H975 C959 0.960 . S
C976 C977 1.391 1_545 S
C976 C978 1.394 . S
C976 H992 0.931 . S
C977 C976 1.391 1_565 S
C977 C981 1.376 . S
C978 C976 1.394 . S
C978 C979 1.380 . S
C978 C982 1.531 . S
C979 C978 1.380 . S
C979 C980 1.391 1_545 S
C979 C987 1.508 . S
C980 C979 1.391 1_565 S
C980 C981 1.392 . S
C980 C983 1.511 . S
C981 C977 1.376 . S
C981 C980 1.392 . S
C981 H993 0.929 . S
C982 C978 1.531 . S
C982 H994 0.960 . S
C982 H995 0.962 . S
C982 H996 0.960 . S
C983 C980 1.511 . S
C983 H997 0.961 . S
C983 H998 0.961 . S
C983 H999 0.961 . S
C984 C985 1.375 . S
C984 C986 1.362 1_545 S
C984 H1000 0.928 1_545 S
C985 C984 1.375 . S
C985 C989 1.408 . S
C986 C984 1.362 1_565 S
C986 C987 1.370 1_565 S
C986 C990 1.524 . S
C987 C979 1.508 . S
C987 C986 1.370 1_545 S
C987 C988 1.403 . S
C988 C987 1.403 . S
C988 C989 1.404 . S
C988 C991 1.539 . S
C989 C985 1.408 . S
C989 C988 1.404 . S
C989 H1001 0.930 . S
C990 C986 1.524 . S
C990 H1002 0.956 . S
C990 H1003 0.961 . S
C990 H1004 0.961 . S
C991 C988 1.539 . S
C991 H1005 0.958 . S
C991 H1006 0.961 . S
C991 H1007 0.960 . S
H992 C976 0.931 . S
H993 C981 0.929 . S
H994 C982 0.960 . S
H995 C982 0.962 . S
H996 C982 0.960 . S
H997 C983 0.961 . S
H998 C983 0.961 . S
H999 C983 0.961 . S
H1000 C984 0.928 1_565 S
H1001 C989 0.930 . S
H1002 C990 0.956 . S
H1003 C990 0.961 . S
H1004 C990 0.961 . S
H1005 C991 0.958 . S
H1006 C991 0.961 . S
H1007 C991 0.960 . S
C1008 C1009 1.391 1_545 S
C1008 C1010 1.394 . S
C1008 H1024 0.931 . S
C1009 C1008 1.391 1_565 S
C1009 C1013 1.376 . S
C1010 C1008 1.394 . S
C1010 C1011 1.369 1_545 S
C1010 C1014 1.531 . S
C1011 C1010 1.369 1_565 S
C1011 C1012 1.410 . S
C1011 C1019 1.503 1_565 S
C1012 C1011 1.410 . S
C1012 C1013 1.392 . S
C1012 C1015 1.511 . S
C1013 C1009 1.376 . S
C1013 C1012 1.392 . S
C1013 H1025 0.929 . S
C1014 C1010 1.531 . S
C1014 H1026 0.960 . S
C1014 H1027 0.962 . S
C1014 H1028 0.960 . S
C1015 C1012 1.511 . S
C1015 H1029 0.961 . S
C1015 H1030 0.961 . S
C1015 H1031 0.961 . S
C1016 C1017 1.370 . S
C1016 C1018 1.363 . S
C1016 H1032 0.931 . S
C1017 C1016 1.370 . S
C1017 C1021 1.408 . S
C1018 C1016 1.363 . S
C1018 C1019 1.370 . S
C1018 C1022 1.524 . S
C1019 C1011 1.503 1_545 S
C1019 C1018 1.370 . S
C1019 C1020 1.403 . S
C1020 C1019 1.403 . S
C1020 C1021 1.404 . S
C1020 C1023 1.539 1_545 S
C1021 C1017 1.408 . S
C1021 C1020 1.404 . S
C1021 H1033 0.930 . S
C1022 C1018 1.524 . S
C1022 H1034 0.956 . S
C1022 H1035 0.961 1_545 S
C1022 H1036 0.961 . S
C1023 C1020 1.539 1_565 S
C1023 H1037 0.958 1_565 S
C1023 H1038 0.961 . S
C1023 H1039 0.960 . S
H1024 C1008 0.931 . S
H1025 C1013 0.929 . S
H1026 C1014 0.960 . S
H1027 C1014 0.962 . S
H1028 C1014 0.960 . S
H1029 C1015 0.961 . S
H1030 C1015 0.961 . S
H1031 C1015 0.961 . S
H1032 C1016 0.931 . S
H1033 C1021 0.930 . S
H1034 C1022 0.956 . S
H1035 C1022 0.961 1_565 S
H1036 C1022 0.961 . S
H1037 C1023 0.958 1_545 S
H1038 C1023 0.961 . S
H1039 C1023 0.960 . S
C1040 C1041 1.391 1_545 S
C1040 C1042 1.394 . S
C1040 H1056 0.931 . S
C1041 C1040 1.391 1_565 S
C1041 C1045 1.376 . S
C1042 C1040 1.394 . S
C1042 C1043 1.369 1_545 S
C1042 C1046 1.531 . S
C1043 C1042 1.369 1_565 S
C1043 C1044 1.410 . S
C1043 C1051 1.503 1_565 S
C1044 C1043 1.410 . S
C1044 C1045 1.392 . S
C1044 C1047 1.511 . S
C1045 C1041 1.376 . S
C1045 C1044 1.392 . S
C1045 H1057 0.929 . S
C1046 C1042 1.531 . S
C1046 H1058 0.960 . S
C1046 H1059 0.962 . S
C1046 H1060 0.960 . S
C1047 C1044 1.511 . S
C1047 H1061 0.961 . S
C1047 H1062 0.961 . S
C1047 H1063 0.961 . S
C1048 C1049 1.370 . S
C1048 C1050 1.363 . S
C1048 H1064 0.931 . S
C1049 C1048 1.370 . S
C1049 C1053 1.408 . S
C1050 C1048 1.363 . S
C1050 C1051 1.370 . S
C1050 C1054 1.524 . S
C1051 C1043 1.503 1_545 S
C1051 C1050 1.370 . S
C1051 C1052 1.403 . S
C1052 C1051 1.403 . S
C1052 C1053 1.404 . S
C1052 C1055 1.539 1_545 S
C1053 C1049 1.408 . S
C1053 C1052 1.404 . S
C1053 H1065 0.930 . S
C1054 C1050 1.524 . S
C1054 H1066 0.956 . S
C1054 H1067 0.961 1_545 S
C1054 H1068 0.961 . S
C1055 C1052 1.539 1_565 S
C1055 H1069 0.958 1_565 S
C1055 H1070 0.961 . S
C1055 H1071 0.960 . S
H1056 C1040 0.931 . S
H1057 C1045 0.929 . S
H1058 C1046 0.960 . S
H1059 C1046 0.962 . S
H1060 C1046 0.960 . S
H1061 C1047 0.961 . S
H1062 C1047 0.961 . S
H1063 C1047 0.961 . S
H1064 C1048 0.931 . S
H1065 C1053 0.930 . S
H1066 C1054 0.956 . S
H1067 C1054 0.961 1_565 S
H1068 C1054 0.961 . S
H1069 C1055 0.958 1_545 S
H1070 C1055 0.961 . S
H1071 C1055 0.960 . S
C1072 C1073 1.391 . S
C1072 C1074 1.394 . S
C1072 H1088 0.931 . S
C1073 C1072 1.391 . S
C1073 C1077 1.376 . S
C1074 C1072 1.394 . S
C1074 C1075 1.369 . S
C1074 C1078 1.531 . S
C1075 C1074 1.369 . S
C1075 C1076 1.410 . S
C1075 C1083 1.503 . S
C1076 C1075 1.410 . S
C1076 C1077 1.392 . S
C1076 C1079 1.511 . S
C1077 C1073 1.376 . S
C1077 C1076 1.392 . S
C1077 H1089 0.929 . S
C1078 C1074 1.531 . S
C1078 H1090 0.960 . S
C1078 H1091 0.962 . S
C1078 H1092 0.960 . S
C1079 C1076 1.511 . S
C1079 H1093 0.961 . S
C1079 H1094 0.961 . S
C1079 H1095 0.961 . S
C1080 C1081 1.370 . S
C1080 C1082 1.363 . S
C1080 H1096 0.931 . S
C1081 C1080 1.370 . S
C1081 C1085 1.408 . S
C1082 C1080 1.363 . S
C1082 C1083 1.370 . S
C1082 C1086 1.524 . S
C1083 C1075 1.503 . S
C1083 C1082 1.370 . S
C1083 C1084 1.403 . S
C1084 C1083 1.403 . S
C1084 C1085 1.404 . S
C1084 C1087 1.539 . S
C1085 C1081 1.408 . S
C1085 C1084 1.404 . S
C1085 H1097 0.930 . S
C1086 C1082 1.524 . S
C1086 H1098 0.956 . S
C1086 H1099 0.961 . S
C1086 H1100 0.961 . S
C1087 C1084 1.539 . S
C1087 H1101 0.958 . S
C1087 H1102 0.961 . S
C1087 H1103 0.960 . S
H1088 C1072 0.931 . S
H1089 C1077 0.929 . S
H1090 C1078 0.960 . S
H1091 C1078 0.962 . S
H1092 C1078 0.960 . S
H1093 C1079 0.961 . S
H1094 C1079 0.961 . S
H1095 C1079 0.961 . S
H1096 C1080 0.931 . S
H1097 C1085 0.930 . S
H1098 C1086 0.956 . S
H1099 C1086 0.961 . S
H1100 C1086 0.961 . S
H1101 C1087 0.958 . S
H1102 C1087 0.961 . S
H1103 C1087 0.960 . S
C1104 C1105 1.391 . S
C1104 C1106 1.394 . S
C1104 H1120 0.931 . S
C1105 C1104 1.391 . S
C1105 C1109 1.376 . S
C1106 C1104 1.394 . S
C1106 C1107 1.369 . S
C1106 C1110 1.531 . S
C1107 C1106 1.369 . S
C1107 C1108 1.410 . S
C1107 C1115 1.503 . S
C1108 C1107 1.410 . S
C1108 C1109 1.392 . S
C1108 C1111 1.511 . S
C1109 C1105 1.376 . S
C1109 C1108 1.392 . S
C1109 H1121 0.929 . S
C1110 C1106 1.531 . S
C1110 H1122 0.960 . S
C1110 H1123 0.962 . S
C1110 H1124 0.960 . S
C1111 C1108 1.511 . S
C1111 H1125 0.961 . S
C1111 H1126 0.961 . S
C1111 H1127 0.961 . S
C1112 C1113 1.370 . S
C1112 C1114 1.363 . S
C1112 H1128 0.931 . S
C1113 C1112 1.370 . S
C1113 C1117 1.408 . S
C1114 C1112 1.363 . S
C1114 C1115 1.370 . S
C1114 C1118 1.524 . S
C1115 C1107 1.503 . S
C1115 C1114 1.370 . S
C1115 C1116 1.403 . S
C1116 C1115 1.403 . S
C1116 C1117 1.404 . S
C1116 C1119 1.539 . S
C1117 C1113 1.408 . S
C1117 C1116 1.404 . S
C1117 H1129 0.930 . S
C1118 C1114 1.524 . S
C1118 H1130 0.956 . S
C1118 H1131 0.961 . S
C1118 H1132 0.961 . S
C1119 C1116 1.539 . S
C1119 H1133 0.958 . S
C1119 H1134 0.961 . S
C1119 H1135 0.960 . S
H1120 C1104 0.931 . S
H1121 C1109 0.929 . S
H1122 C1110 0.960 . S
H1123 C1110 0.962 . S
H1124 C1110 0.960 . S
H1125 C1111 0.961 . S
H1126 C1111 0.961 . S
H1127 C1111 0.961 . S
H1128 C1112 0.931 . S
H1129 C1117 0.930 . S
H1130 C1118 0.956 . S
H1131 C1118 0.961 . S
H1132 C1118 0.961 . S
H1133 C1119 0.958 . S
H1134 C1119 0.961 . S
H1135 C1119 0.960 . S
C1136 C1137 1.391 . S
C1136 C1138 1.394 . S
C1136 H1152 0.931 . S
C1137 C1136 1.391 . S
C1137 C1141 1.376 . S
C1138 C1136 1.394 . S
C1138 C1139 1.369 . S
C1138 C1142 1.531 . S
C1139 C1138 1.369 . S
C1139 C1140 1.410 . S
C1139 C1147 1.503 . S
C1140 C1139 1.410 . S
C1140 C1141 1.392 . S
C1140 C1143 1.511 . S
C1141 C1137 1.376 . S
C1141 C1140 1.392 . S
C1141 H1153 0.929 . S
C1142 C1138 1.531 . S
C1142 H1154 0.960 . S
C1142 H1155 0.962 . S
C1142 H1156 0.960 . S
C1143 C1140 1.511 . S
C1143 H1157 0.961 . S
C1143 H1158 0.961 . S
C1143 H1159 0.961 . S
C1144 C1145 1.370 . S
C1144 C1146 1.363 . S
C1144 H1160 0.931 . S
C1145 C1144 1.370 . S
C1145 C1149 1.408 . S
C1146 C1144 1.363 . S
C1146 C1147 1.370 . S
C1146 C1150 1.524 . S
C1147 C1139 1.503 . S
C1147 C1146 1.370 . S
C1147 C1148 1.403 . S
C1148 C1147 1.403 . S
C1148 C1149 1.404 . S
C1148 C1151 1.539 . S
C1149 C1145 1.408 . S
C1149 C1148 1.404 . S
C1149 H1161 0.930 . S
C1150 C1146 1.524 . S
C1150 H1162 0.956 . S
C1150 H1163 0.961 . S
C1150 H1164 0.961 . S
C1151 C1148 1.539 . S
C1151 H1165 0.958 . S
C1151 H1166 0.961 . S
C1151 H1167 0.960 . S
H1152 C1136 0.931 . S
H1153 C1141 0.929 . S
H1154 C1142 0.960 . S
H1155 C1142 0.962 . S
H1156 C1142 0.960 . S
H1157 C1143 0.961 . S
H1158 C1143 0.961 . S
H1159 C1143 0.961 . S
H1160 C1144 0.931 . S
H1161 C1149 0.930 . S
H1162 C1150 0.956 . S
H1163 C1150 0.961 . S
H1164 C1150 0.961 . S
H1165 C1151 0.958 . S
H1166 C1151 0.961 . S
H1167 C1151 0.960 . S
C1168 C1169 1.391 . S
C1168 C1170 1.394 . S
C1168 H1184 0.931 . S
C1169 C1168 1.391 . S
C1169 C1173 1.376 . S
C1170 C1168 1.394 . S
C1170 C1171 1.369 . S
C1170 C1174 1.531 . S
C1171 C1170 1.369 . S
C1171 C1172 1.410 . S
C1171 C1179 1.503 . S
C1172 C1171 1.410 . S
C1172 C1173 1.392 . S
C1172 C1175 1.511 . S
C1173 C1169 1.376 . S
C1173 C1172 1.392 . S
C1173 H1185 0.929 . S
C1174 C1170 1.531 . S
C1174 H1186 0.960 . S
C1174 H1187 0.962 . S
C1174 H1188 0.960 . S
C1175 C1172 1.511 . S
C1175 H1189 0.961 . S
C1175 H1190 0.961 . S
C1175 H1191 0.961 . S
C1176 C1177 1.370 . S
C1176 C1178 1.363 . S
C1176 H1192 0.931 . S
C1177 C1176 1.370 . S
C1177 C1181 1.408 . S
C1178 C1176 1.363 . S
C1178 C1179 1.370 . S
C1178 C1182 1.524 . S
C1179 C1171 1.503 . S
C1179 C1178 1.370 . S
C1179 C1180 1.403 . S
C1180 C1179 1.403 . S
C1180 C1181 1.404 . S
C1180 C1183 1.539 . S
C1181 C1177 1.408 . S
C1181 C1180 1.404 . S
C1181 H1193 0.930 . S
C1182 C1178 1.524 . S
C1182 H1194 0.956 . S
C1182 H1195 0.961 . S
C1182 H1196 0.961 . S
C1183 C1180 1.539 . S
C1183 H1197 0.958 . S
C1183 H1198 0.961 . S
C1183 H1199 0.960 . S
H1184 C1168 0.931 . S
H1185 C1173 0.929 . S
H1186 C1174 0.960 . S
H1187 C1174 0.962 . S
H1188 C1174 0.960 . S
H1189 C1175 0.961 . S
H1190 C1175 0.961 . S
H1191 C1175 0.961 . S
H1192 C1176 0.931 . S
H1193 C1181 0.930 . S
H1194 C1182 0.956 . S
H1195 C1182 0.961 . S
H1196 C1182 0.961 . S
H1197 C1183 0.958 . S
H1198 C1183 0.961 . S
H1199 C1183 0.960 . S
C1200 C1201 1.391 . S
C1200 C1202 1.394 1_655 S
C1200 H1216 0.931 1_655 S
C1201 C1200 1.391 . S
C1201 C1205 1.376 . S
C1202 C1200 1.394 1_455 S
C1202 C1203 1.369 1_455 S
C1202 C1206 1.531 . S
C1203 C1202 1.369 1_655 S
C1203 C1204 1.410 . S
C1203 C1211 1.503 1_655 S
C1204 C1203 1.410 . S
C1204 C1205 1.392 . S
C1204 C1207 1.511 . S
C1205 C1201 1.376 . S
C1205 C1204 1.392 . S
C1205 H1217 0.929 . S
C1206 C1202 1.531 . S
C1206 H1218 0.960 . S
C1206 H1219 0.962 . S
C1206 H1220 0.960 . S
C1207 C1204 1.511 . S
C1207 H1221 0.961 . S
C1207 H1222 0.961 . S
C1207 H1223 0.961 . S
C1208 C1209 1.370 . S
C1208 C1210 1.363 . S
C1208 H1224 0.931 . S
C1209 C1208 1.370 . S
C1209 C1213 1.408 . S
C1210 C1208 1.363 . S
C1210 C1211 1.370 . S
C1210 C1214 1.524 . S
C1211 C1203 1.503 1_455 S
C1211 C1210 1.370 . S
C1211 C1212 1.403 . S
C1212 C1211 1.403 . S
C1212 C1213 1.404 . S
C1212 C1215 1.539 1_455 S
C1213 C1209 1.408 . S
C1213 C1212 1.404 . S
C1213 H1225 0.930 . S
C1214 C1210 1.524 . S
C1214 H1226 0.956 . S
C1214 H1227 0.961 1_455 S
C1214 H1228 0.961 . S
C1215 C1212 1.539 1_655 S
C1215 H1229 0.958 1_645 S
C1215 H1230 0.961 1_545 S
C1215 H1231 0.960 . S
H1216 C1200 0.931 1_455 S
H1217 C1205 0.929 . S
H1218 C1206 0.960 . S
H1219 C1206 0.962 . S
H1220 C1206 0.960 . S
H1221 C1207 0.961 . S
H1222 C1207 0.961 . S
H1223 C1207 0.961 . S
H1224 C1208 0.931 . S
H1225 C1213 0.930 . S
H1226 C1214 0.956 . S
H1227 C1214 0.961 1_655 S
H1228 C1214 0.961 . S
H1229 C1215 0.958 1_465 S
H1230 C1215 0.961 1_565 S
H1231 C1215 0.960 . S
C1232 C1233 1.391 . S
C1232 C1234 1.394 . S
C1232 H1248 0.931 . S
C1233 C1232 1.391 . S
C1233 C1237 1.376 . S
C1234 C1232 1.394 . S
C1234 C1235 1.369 . S
C1234 C1238 1.531 . S
C1235 C1234 1.369 . S
C1235 C1236 1.410 . S
C1235 C1243 1.503 . S
C1236 C1235 1.410 . S
C1236 C1237 1.392 . S
C1236 C1239 1.511 . S
C1237 C1233 1.376 . S
C1237 C1236 1.392 . S
C1237 H1249 0.929 . S
C1238 C1234 1.531 . S
C1238 H1250 0.960 . S
C1238 H1251 0.962 . S
C1238 H1252 0.960 . S
C1239 C1236 1.511 . S
C1239 H1253 0.961 . S
C1239 H1254 0.961 . S
C1239 H1255 0.961 . S
C1240 C1241 1.370 . S
C1240 C1242 1.363 . S
C1240 H1256 0.931 . S
C1241 C1240 1.370 . S
C1241 C1245 1.408 . S
C1242 C1240 1.363 . S
C1242 C1243 1.370 . S
C1242 C1246 1.524 . S
C1243 C1235 1.503 . S
C1243 C1242 1.370 . S
C1243 C1244 1.403 . S
C1244 C1243 1.403 . S
C1244 C1245 1.404 . S
C1244 C1247 1.539 . S
C1245 C1241 1.408 . S
C1245 C1244 1.404 . S
C1245 H1257 0.930 . S
C1246 C1242 1.524 . S
C1246 H1258 0.956 . S
C1246 H1259 0.961 . S
C1246 H1260 0.961 . S
C1247 C1244 1.539 . S
C1247 H1261 0.958 1_565 S
C1247 H1262 0.961 1_565 S
C1247 H1263 0.960 . S
H1248 C1232 0.931 . S
H1249 C1237 0.929 . S
H1250 C1238 0.960 . S
H1251 C1238 0.962 . S
H1252 C1238 0.960 . S
H1253 C1239 0.961 . S
H1254 C1239 0.961 . S
H1255 C1239 0.961 . S
H1256 C1240 0.931 . S
H1257 C1245 0.930 . S
H1258 C1246 0.956 . S
H1259 C1246 0.961 . S
H1260 C1246 0.961 . S
H1261 C1247 0.958 1_545 S
H1262 C1247 0.961 1_545 S
H1263 C1247 0.960 . S
C1264 C1265 1.391 . S
C1264 C1266 1.394 1_455 S
C1264 H1280 0.940 . S
C1265 C1264 1.391 . S
C1265 C1269 1.376 . S
C1266 C1264 1.394 1_655 S
C1266 C1267 1.369 1_655 S
C1266 C1270 1.531 . S
C1267 C1266 1.369 1_455 S
C1267 C1268 1.410 . S
C1267 C1275 1.503 1_455 S
C1268 C1267 1.410 . S
C1268 C1269 1.392 . S
C1268 C1271 1.511 . S
C1269 C1265 1.376 . S
C1269 C1268 1.392 . S
C1269 H1281 0.929 . S
C1270 C1266 1.531 . S
C1270 H1282 0.960 . S
C1270 H1283 0.962 . S
C1270 H1284 0.960 . S
C1271 C1268 1.511 . S
C1271 H1285 0.961 . S
C1271 H1286 0.961 . S
C1271 H1287 0.961 . S
C1272 C1273 1.370 . S
C1272 C1274 1.363 . S
C1272 H1288 0.931 . S
C1273 C1272 1.370 . S
C1273 C1277 1.408 . S
C1274 C1272 1.363 . S
C1274 C1275 1.370 . S
C1274 C1278 1.524 . S
C1275 C1267 1.503 1_655 S
C1275 C1274 1.370 . S
C1275 C1276 1.403 1_655 S
C1276 C1275 1.403 1_455 S
C1276 C1277 1.404 1_455 S
C1276 C1279 1.539 . S
C1277 C1273 1.408 . S
C1277 C1276 1.404 1_655 S
C1277 H1289 0.930 . S
C1278 C1274 1.524 . S
C1278 H1290 0.956 . S
C1278 H1291 0.961 . S
C1278 H1292 0.961 . S
C1279 C1276 1.539 . S
C1279 H1293 0.958 . S
C1279 H1294 0.961 . S
C1279 H1295 0.960 . S
H1280 C1264 0.940 . S
H1281 C1269 0.929 . S
H1282 C1270 0.960 . S
H1283 C1270 0.962 . S
H1284 C1270 0.960 . S
H1285 C1271 0.961 . S
H1286 C1271 0.961 . S
H1287 C1271 0.961 . S
H1288 C1272 0.931 . S
H1289 C1277 0.930 . S
H1290 C1278 0.956 . S
H1291 C1278 0.961 . S
H1292 C1278 0.961 . S
H1293 C1279 0.958 . S
H1294 C1279 0.961 . S
H1295 C1279 0.960 . S
C1296 C1297 1.391 . S
C1296 C1298 1.394 . S
C1296 H1312 0.931 . S
C1297 C1296 1.391 . S
C1297 C1301 1.376 . S
C1298 C1296 1.394 . S
C1298 C1299 1.369 . S
C1298 C1302 1.531 . S
C1299 C1298 1.369 . S
C1299 C1300 1.410 . S
C1299 C1307 1.503 . S
C1300 C1299 1.410 . S
C1300 C1301 1.392 . S
C1300 C1303 1.511 . S
C1301 C1297 1.376 . S
C1301 C1300 1.392 . S
C1301 H1313 0.929 . S
C1302 C1298 1.531 . S
C1302 H1314 0.960 . S
C1302 H1315 0.962 . S
C1302 H1316 0.960 . S
C1303 C1300 1.511 . S
C1303 H1317 0.961 . S
C1303 H1318 0.961 . S
C1303 H1319 0.961 . S
C1304 C1305 1.370 . S
C1304 C1306 1.363 . S
C1304 H1320 0.931 . S
C1305 C1304 1.370 . S
C1305 C1309 1.408 . S
C1306 C1304 1.363 . S
C1306 C1307 1.370 . S
C1306 C1310 1.524 . S
C1307 C1299 1.503 . S
C1307 C1306 1.370 . S
C1307 C1308 1.403 . S
C1308 C1307 1.403 . S
C1308 C1309 1.404 . S
C1308 C1311 1.539 . S
C1309 C1305 1.408 . S
C1309 C1308 1.404 . S
C1309 H1321 0.930 . S
C1310 C1306 1.524 . S
C1310 H1322 0.956 . S
C1310 H1323 0.961 . S
C1310 H1324 0.961 . S
C1311 C1308 1.539 . S
C1311 H1325 0.958 . S
C1311 H1326 0.961 . S
C1311 H1327 0.960 . S
H1312 C1296 0.931 . S
H1313 C1301 0.929 . S
H1314 C1302 0.960 . S
H1315 C1302 0.962 . S
H1316 C1302 0.960 . S
H1317 C1303 0.961 . S
H1318 C1303 0.961 . S
H1319 C1303 0.961 . S
H1320 C1304 0.931 . S
H1321 C1309 0.930 . S
H1322 C1310 0.956 . S
H1323 C1310 0.961 . S
H1324 C1310 0.961 . S
H1325 C1311 0.958 . S
H1326 C1311 0.961 . S
H1327 C1311 0.960 . S
C1328 C1329 1.391 . S
C1328 C1330 1.394 . S
C1328 H1344 0.931 . S
C1329 C1328 1.391 . S
C1329 C1333 1.376 . S
C1330 C1328 1.394 . S
C1330 C1331 1.369 . S
C1330 C1334 1.531 . S
C1331 C1330 1.369 . S
C1331 C1332 1.410 . S
C1331 C1339 1.503 . S
C1332 C1331 1.410 . S
C1332 C1333 1.392 . S
C1332 C1335 1.511 . S
C1333 C1329 1.376 . S
C1333 C1332 1.392 . S
C1333 H1345 0.929 . S
C1334 C1330 1.531 . S
C1334 H1346 0.960 . S
C1334 H1347 0.962 . S
C1334 H1348 0.960 . S
C1335 C1332 1.511 . S
C1335 H1349 0.961 . S
C1335 H1350 0.961 . S
C1335 H1351 0.961 . S
C1336 C1337 1.370 . S
C1336 C1338 1.363 . S
C1336 H1352 0.931 . S
C1337 C1336 1.370 . S
C1337 C1341 1.408 . S
C1338 C1336 1.363 . S
C1338 C1339 1.370 . S
C1338 C1342 1.524 . S
C1339 C1331 1.503 . S
C1339 C1338 1.370 . S
C1339 C1340 1.403 . S
C1340 C1339 1.403 . S
C1340 C1341 1.404 . S
C1340 C1343 1.539 . S
C1341 C1337 1.408 . S
C1341 C1340 1.404 . S
C1341 H1353 0.930 . S
C1342 C1338 1.524 . S
C1342 H1354 0.956 . S
C1342 H1355 0.961 . S
C1342 H1356 0.961 . S
C1343 C1340 1.539 . S
C1343 H1357 0.958 . S
C1343 H1358 0.961 . S
C1343 H1359 0.960 . S
H1344 C1328 0.931 . S
H1345 C1333 0.929 . S
H1346 C1334 0.960 . S
H1347 C1334 0.962 . S
H1348 C1334 0.960 . S
H1349 C1335 0.961 . S
H1350 C1335 0.961 . S
H1351 C1335 0.961 . S
H1352 C1336 0.931 . S
H1353 C1341 0.930 . S
H1354 C1342 0.956 . S
H1355 C1342 0.961 . S
H1356 C1342 0.961 . S
H1357 C1343 0.958 . S
H1358 C1343 0.961 . S
H1359 C1343 0.960 . S
C1360 C1361 1.391 . S
C1360 C1362 1.394 1_455 S
C1360 H1376 0.931 1_455 S
C1361 C1360 1.391 . S
C1361 C1365 1.376 . S
C1362 C1360 1.394 1_655 S
C1362 C1363 1.369 1_655 S
C1362 C1366 1.531 . S
C1363 C1362 1.369 1_455 S
C1363 C1364 1.410 . S
C1363 C1371 1.503 1_455 S
C1364 C1363 1.410 . S
C1364 C1365 1.392 . S
C1364 C1367 1.511 . S
C1365 C1361 1.376 . S
C1365 C1364 1.392 . S
C1365 H1377 0.929 . S
C1366 C1362 1.531 . S
C1366 H1378 0.960 . S
C1366 H1379 0.962 . S
C1366 H1380 0.960 . S
C1367 C1364 1.511 . S
C1367 H1381 0.961 . S
C1367 H1382 0.961 . S
C1367 H1383 0.961 . S
C1368 C1369 1.370 . S
C1368 C1370 1.363 . S
C1368 H1384 0.931 . S
C1369 C1368 1.370 . S
C1369 C1373 1.408 . S
C1370 C1368 1.363 . S
C1370 C1371 1.370 . S
C1370 C1374 1.524 . S
C1371 C1363 1.503 1_655 S
C1371 C1370 1.370 . S
C1371 C1372 1.398 1_655 S
C1372 C1371 1.398 1_455 S
C1372 C1373 1.391 1_455 S
C1372 C1375 1.559 . S
C1373 C1369 1.408 . S
C1373 C1372 1.391 1_655 S
C1373 H1385 0.930 . S
C1374 C1370 1.524 . S
C1374 H1386 0.956 . S
C1374 H1387 0.961 . S
C1374 H1388 0.961 . S
C1375 C1372 1.559 . S
C1375 H1389 0.958 . S
C1375 H1390 0.961 . S
C1375 H1391 0.960 . S
H1376 C1360 0.931 1_655 S
H1377 C1365 0.929 . S
H1378 C1366 0.960 . S
H1379 C1366 0.962 . S
H1380 C1366 0.960 . S
H1381 C1367 0.961 . S
H1382 C1367 0.961 . S
H1383 C1367 0.961 . S
H1384 C1368 0.931 . S
H1385 C1373 0.930 . S
H1386 C1374 0.956 . S
H1387 C1374 0.961 . S
H1388 C1374 0.961 . S
H1389 C1375 0.958 . S
H1390 C1375 0.961 . S
H1391 C1375 0.960 . S
C1392 C1393 1.391 . S
C1392 C1394 1.394 . S
C1392 H1408 0.931 . S
C1393 C1392 1.391 . S
C1393 C1397 1.376 . S
C1394 C1392 1.394 . S
C1394 C1395 1.369 . S
C1394 C1398 1.531 . S
C1395 C1394 1.369 . S
C1395 C1396 1.410 . S
C1395 C1403 1.503 . S
C1396 C1395 1.410 . S
C1396 C1397 1.392 . S
C1396 C1399 1.511 . S
C1397 C1393 1.376 . S
C1397 C1396 1.392 . S
C1397 H1409 0.929 . S
C1398 C1394 1.531 . S
C1398 H1410 0.960 . S
C1398 H1411 0.962 . S
C1398 H1412 0.960 . S
C1399 C1396 1.511 . S
C1399 H1413 0.961 . S
C1399 H1414 0.961 . S
C1399 H1415 0.961 . S
C1400 C1401 1.370 . S
C1400 C1402 1.363 . S
C1400 H1416 0.931 . S
C1401 C1400 1.370 . S
C1401 C1405 1.408 . S
C1402 C1400 1.363 . S
C1402 C1403 1.370 . S
C1402 C1406 1.524 . S
C1403 C1395 1.503 . S
C1403 C1402 1.370 . S
C1403 C1404 1.403 . S
C1404 C1403 1.403 . S
C1404 C1405 1.404 . S
C1404 C1407 1.539 . S
C1405 C1401 1.408 . S
C1405 C1404 1.404 . S
C1405 H1417 0.930 . S
C1406 C1402 1.524 . S
C1406 H1418 0.956 . S
C1406 H1419 0.961 . S
C1406 H1420 0.961 . S
C1407 C1404 1.539 . S
C1407 H1421 0.958 . S
C1407 H1422 0.961 . S
C1407 H1423 0.960 . S
H1408 C1392 0.931 . S
H1409 C1397 0.929 . S
H1410 C1398 0.960 . S
H1411 C1398 0.962 . S
H1412 C1398 0.960 . S
H1413 C1399 0.961 . S
H1414 C1399 0.961 . S
H1415 C1399 0.961 . S
H1416 C1400 0.931 . S
H1417 C1405 0.930 . S
H1418 C1406 0.956 . S
H1419 C1406 0.961 . S
H1420 C1406 0.961 . S
H1421 C1407 0.958 . S
H1422 C1407 0.961 . S
H1423 C1407 0.960 . S
C1424 C1425 1.391 . S
C1424 C1426 1.394 1_455 S
C1424 H1440 0.931 1_455 S
C1425 C1424 1.391 . S
C1425 C1429 1.376 . S
C1426 C1424 1.394 1_655 S
C1426 C1427 1.369 1_655 S
C1426 C1430 1.531 . S
C1427 C1426 1.369 1_455 S
C1427 C1428 1.410 . S
C1427 C1435 1.503 1_455 S
C1428 C1427 1.410 . S
C1428 C1429 1.392 . S
C1428 C1431 1.511 . S
C1429 C1425 1.376 . S
C1429 C1428 1.392 . S
C1429 H1441 0.929 . S
C1430 C1426 1.531 . S
C1430 H1442 0.960 . S
C1430 H1443 0.962 . S
C1430 H1444 0.960 . S
C1431 C1428 1.511 . S
C1431 H1445 0.961 . S
C1431 H1446 0.961 . S
C1431 H1447 0.961 . S
C1432 C1433 1.370 . S
C1432 C1434 1.363 . S
C1432 H1448 0.931 . S
C1433 C1432 1.370 . S
C1433 C1437 1.408 . S
C1434 C1432 1.363 . S
C1434 C1435 1.370 . S
C1434 C1438 1.524 . S
C1435 C1427 1.503 1_655 S
C1435 C1434 1.370 . S
C1435 C1436 1.403 . S
C1436 C1435 1.403 . S
C1436 C1437 1.404 . S
C1436 C1439 1.539 1_655 S
C1437 C1433 1.408 . S
C1437 C1436 1.404 . S
C1437 H1449 0.930 . S
C1438 C1434 1.524 . S
C1438 H1450 0.956 . S
C1438 H1451 0.992 . S
C1438 H1452 0.961 . S
C1439 C1436 1.539 1_455 S
C1439 H1453 0.947 1_455 S
C1439 H1454 0.961 . S
C1439 H1455 0.960 . S
H1440 C1424 0.931 1_655 S
H1441 C1429 0.929 . S
H1442 C1430 0.960 . S
H1443 C1430 0.962 . S
H1444 C1430 0.960 . S
H1445 C1431 0.961 . S
H1446 C1431 0.961 . S
H1447 C1431 0.961 . S
H1448 C1432 0.931 . S
H1449 C1437 0.930 . S
H1450 C1438 0.956 . S
H1451 C1438 0.992 . S
H1452 C1438 0.961 . S
H1453 C1439 0.947 1_655 S
H1454 C1439 0.961 . S
H1455 C1439 0.960 . S
C1456 C1457 1.391 1_655 S
C1456 C1458 1.394 . S
C1456 H1472 0.931 . S
C1457 C1456 1.391 1_455 S
C1457 C1461 1.376 . S
C1458 C1456 1.394 . S
C1458 C1459 1.369 1_655 S
C1458 C1462 1.531 . S
C1459 C1458 1.369 1_455 S
C1459 C1460 1.410 . S
C1459 C1467 1.503 1_455 S
C1460 C1459 1.410 . S
C1460 C1461 1.392 . S
C1460 C1463 1.511 . S
C1461 C1457 1.376 . S
C1461 C1460 1.392 . S
C1461 H1473 0.929 . S
C1462 C1458 1.531 . S
C1462 H1474 0.960 . S
C1462 H1475 0.962 . S
C1462 H1476 0.960 . S
C1463 C1460 1.511 . S
C1463 H1477 0.961 . S
C1463 H1478 0.961 . S
C1463 H1479 0.961 . S
C1464 C1465 1.370 . S
C1464 C1466 1.363 . S
C1464 H1480 0.931 . S
C1465 C1464 1.370 . S
C1465 C1469 1.408 . S
C1466 C1464 1.363 . S
C1466 C1467 1.370 . S
C1466 C1470 1.524 . S
C1467 C1459 1.503 1_655 S
C1467 C1466 1.370 . S
C1467 C1468 1.405 . S
C1468 C1467 1.405 . S
C1468 C1469 1.410 . S
C1468 C1471 1.530 1_655 S
C1469 C1465 1.408 . S
C1469 C1468 1.410 . S
C1469 H1481 0.930 . S
C1470 C1466 1.524 . S
C1470 H1482 0.956 . S
C1470 H1483 0.961 1_655 S
C1470 H1484 0.961 . S
C1471 C1468 1.530 1_455 S
C1471 H1485 0.958 1_455 S
C1471 H1486 0.961 . S
C1471 H1487 0.960 . S
H1472 C1456 0.931 . S
H1473 C1461 0.929 . S
H1474 C1462 0.960 . S
H1475 C1462 0.962 . S
H1476 C1462 0.960 . S
H1477 C1463 0.961 . S
H1478 C1463 0.961 . S
H1479 C1463 0.961 . S
H1480 C1464 0.931 . S
H1481 C1469 0.930 . S
H1482 C1470 0.956 . S
H1483 C1470 0.961 1_455 S
H1484 C1470 0.961 . S
H1485 C1471 0.958 1_655 S
H1486 C1471 0.961 . S
H1487 C1471 0.960 . S
C1488 C1489 1.391 . S
C1488 C1490 1.394 . S
C1488 H1504 0.931 . S
C1489 C1488 1.391 . S
C1489 C1493 1.376 . S
C1490 C1488 1.394 . S
C1490 C1491 1.369 . S
C1490 C1494 1.531 . S
C1491 C1490 1.369 . S
C1491 C1492 1.410 . S
C1491 C1499 1.503 . S
C1492 C1491 1.410 . S
C1492 C1493 1.392 . S
C1492 C1495 1.511 . S
C1493 C1489 1.376 . S
C1493 C1492 1.392 . S
C1493 H1505 0.929 . S
C1494 C1490 1.531 . S
C1494 H1506 0.960 . S
C1494 H1507 0.962 . S
C1494 H1508 0.960 . S
C1495 C1492 1.511 . S
C1495 H1509 0.961 . S
C1495 H1510 0.961 . S
C1495 H1511 0.961 . S
C1496 C1497 1.370 . S
C1496 C1498 1.363 . S
C1496 H1512 0.931 . S
C1497 C1496 1.370 . S
C1497 C1501 1.408 . S
C1498 C1496 1.363 . S
C1498 C1499 1.370 . S
C1498 C1502 1.524 . S
C1499 C1491 1.503 . S
C1499 C1498 1.370 . S
C1499 C1500 1.403 . S
C1500 C1499 1.403 . S
C1500 C1501 1.404 . S
C1500 C1503 1.539 . S
C1501 C1497 1.408 . S
C1501 C1500 1.404 . S
C1501 H1513 0.930 . S
C1502 C1498 1.524 . S
C1502 H1514 0.956 . S
C1502 H1515 0.961 . S
C1502 H1516 0.961 . S
C1503 C1500 1.539 . S
C1503 H1517 0.958 . S
C1503 H1518 0.961 . S
C1503 H1519 0.960 . S
H1504 C1488 0.931 . S
H1505 C1493 0.929 . S
H1506 C1494 0.960 . S
H1507 C1494 0.962 . S
H1508 C1494 0.960 . S
H1509 C1495 0.961 . S
H1510 C1495 0.961 . S
H1511 C1495 0.961 . S
H1512 C1496 0.931 . S
H1513 C1501 0.930 . S
H1514 C1502 0.956 . S
H1515 C1502 0.961 . S
H1516 C1502 0.961 . S
H1517 C1503 0.958 . S
H1518 C1503 0.961 . S
H1519 C1503 0.960 . S
C1520 C1521 1.391 . S
C1520 C1522 1.394 . S
C1520 H1536 0.931 . S
C1521 C1520 1.391 . S
C1521 C1525 1.376 . S
C1522 C1520 1.394 . S
C1522 C1523 1.369 . S
C1522 C1526 1.531 . S
C1523 C1522 1.369 . S
C1523 C1524 1.410 . S
C1523 C1531 1.503 . S
C1524 C1523 1.410 . S
C1524 C1525 1.392 . S
C1524 C1527 1.511 . S
C1525 C1521 1.376 . S
C1525 C1524 1.392 . S
C1525 H1537 0.929 . S
C1526 C1522 1.531 . S
C1526 H1538 0.960 . S
C1526 H1539 0.962 . S
C1526 H1540 0.960 . S
C1527 C1524 1.511 . S
C1527 H1541 0.961 . S
C1527 H1542 0.961 . S
C1527 H1543 0.961 . S
C1528 C1529 1.370 . S
C1528 C1530 1.363 . S
C1528 H1544 0.931 . S
C1529 C1528 1.370 . S
C1529 C1533 1.408 . S
C1530 C1528 1.363 . S
C1530 C1531 1.370 . S
C1530 C1534 1.524 . S
C1531 C1523 1.503 . S
C1531 C1530 1.370 . S
C1531 C1532 1.403 . S
C1532 C1531 1.403 . S
C1532 C1533 1.404 . S
C1532 C1535 1.539 . S
C1533 C1529 1.408 . S
C1533 C1532 1.404 . S
C1533 H1545 0.930 . S
C1534 C1530 1.524 . S
C1534 H1546 0.956 . S
C1534 H1547 0.961 . S
C1534 H1548 0.961 . S
C1535 C1532 1.539 . S
C1535 H1549 0.958 . S
C1535 H1550 0.961 . S
C1535 H1551 0.960 . S
H1536 C1520 0.931 . S
H1537 C1525 0.929 . S
H1538 C1526 0.960 . S
H1539 C1526 0.962 . S
H1540 C1526 0.960 . S
H1541 C1527 0.961 . S
H1542 C1527 0.961 . S
H1543 C1527 0.961 . S
H1544 C1528 0.931 . S
H1545 C1533 0.930 . S
H1546 C1534 0.956 . S
H1547 C1534 0.961 . S
H1548 C1534 0.961 . S
H1549 C1535 0.958 . S
H1550 C1535 0.961 . S
H1551 C1535 0.960 . S
C1552 C1553 1.391 1_655 S
C1552 C1554 1.394 . S
C1552 H1568 0.931 . S
C1553 C1552 1.391 1_455 S
C1553 C1557 1.376 . S
C1554 C1552 1.394 . S
C1554 C1555 1.369 1_655 S
C1554 C1558 1.531 . S
C1555 C1554 1.369 1_455 S
C1555 C1556 1.410 . S
C1555 C1563 1.503 1_455 S
C1556 C1555 1.410 . S
C1556 C1557 1.392 . S
C1556 C1559 1.511 . S
C1557 C1553 1.376 . S
C1557 C1556 1.392 . S
C1557 H1569 0.929 . S
C1558 C1554 1.531 . S
C1558 H1570 0.960 . S
C1558 H1571 0.962 . S
C1558 H1572 0.960 . S
C1559 C1556 1.511 . S
C1559 H1573 0.961 . S
C1559 H1574 0.961 . S
C1559 H1575 0.961 . S
C1560 C1561 1.370 . S
C1560 C1562 1.363 . S
C1560 H1576 0.931 . S
C1561 C1560 1.370 . S
C1561 C1565 1.408 . S
C1562 C1560 1.363 . S
C1562 C1563 1.370 . S
C1562 C1566 1.524 . S
C1563 C1555 1.503 1_655 S
C1563 C1562 1.370 . S
C1563 C1564 1.403 1_655 S
C1564 C1563 1.403 1_455 S
C1564 C1565 1.404 1_455 S
C1564 C1567 1.539 . S
C1565 C1561 1.408 . S
C1565 C1564 1.404 1_655 S
C1565 H1577 0.932 . S
C1566 C1562 1.524 . S
C1566 H1578 0.956 . S
C1566 H1579 0.961 . S
C1566 H1580 0.961 . S
C1567 C1564 1.539 . S
C1567 H1581 0.958 . S
C1567 H1582 0.961 . S
C1567 H1583 0.960 . S
H1568 C1552 0.931 . S
H1569 C1557 0.929 . S
H1570 C1558 0.960 . S
H1571 C1558 0.962 . S
H1572 C1558 0.960 . S
H1573 C1559 0.961 . S
H1574 C1559 0.961 . S
H1575 C1559 0.961 . S
H1576 C1560 0.931 . S
H1577 C1565 0.932 . S
H1578 C1566 0.956 . S
H1579 C1566 0.961 . S
H1580 C1566 0.961 . S
H1581 C1567 0.958 . S
H1582 C1567 0.961 . S
H1583 C1567 0.960 . S
C1584 C1585 1.391 . S
C1584 C1586 1.394 . S
C1584 H1600 0.931 . S
C1585 C1584 1.391 . S
C1585 C1589 1.376 1_455 S
C1586 C1584 1.394 . S
C1586 C1587 1.354 1_455 S
C1586 C1590 1.531 . S
C1587 C1586 1.354 1_655 S
C1587 C1588 1.418 . S
C1587 C1595 1.508 . S
C1588 C1587 1.418 . S
C1588 C1589 1.392 . S
C1588 C1591 1.511 . S
C1589 C1585 1.376 1_655 S
C1589 C1588 1.392 . S
C1589 H1601 0.929 . S
C1590 C1586 1.531 . S
C1590 H1602 0.960 . S
C1590 H1603 0.962 . S
C1590 H1604 0.960 . S
C1591 C1588 1.511 . S
C1591 H1605 0.961 . S
C1591 H1606 0.961 . S
C1591 H1607 0.961 . S
C1592 C1593 1.370 1_455 S
C1592 C1594 1.363 . S
C1592 H1608 0.931 . S
C1593 C1592 1.370 1_655 S
C1593 C1597 1.408 . S
C1594 C1592 1.363 . S
C1594 C1595 1.370 1_455 S
C1594 C1598 1.524 . S
C1595 C1587 1.508 . S
C1595 C1594 1.370 1_655 S
C1595 C1596 1.403 . S
C1596 C1595 1.403 . S
C1596 C1597 1.404 . S
C1596 C1599 1.539 . S
C1597 C1593 1.408 . S
C1597 C1596 1.404 . S
C1597 H1609 0.930 . S
C1598 C1594 1.524 . S
C1598 H1610 0.956 . S
C1598 H1611 0.961 . S
C1598 H1612 0.961 . S
C1599 C1596 1.539 . S
C1599 H1613 0.958 . S
C1599 H1614 0.961 . S
C1599 H1615 0.960 . S
H1600 C1584 0.931 . S
H1601 C1589 0.929 . S
H1602 C1590 0.960 . S
H1603 C1590 0.962 . S
H1604 C1590 0.960 . S
H1605 C1591 0.961 . S
H1606 C1591 0.961 . S
H1607 C1591 0.961 . S
H1608 C1592 0.931 . S
H1609 C1597 0.930 . S
H1610 C1598 0.956 . S
H1611 C1598 0.961 . S
H1612 C1598 0.961 . S
H1613 C1599 0.958 . S
H1614 C1599 0.961 . S
H1615 C1599 0.960 . S
C1616 C1617 1.391 . S
C1616 C1618 1.394 . S
C1616 H1632 0.931 . S
C1617 C1616 1.391 . S
C1617 C1621 1.376 . S
C1618 C1616 1.394 . S
C1618 C1619 1.369 . S
C1618 C1622 1.531 . S
C1619 C1618 1.369 . S
C1619 C1620 1.410 . S
C1619 C1627 1.503 . S
C1620 C1619 1.410 . S
C1620 C1621 1.392 . S
C1620 C1623 1.511 . S
C1621 C1617 1.376 . S
C1621 C1620 1.392 . S
C1621 H1633 0.929 . S
C1622 C1618 1.531 . S
C1622 H1634 0.960 . S
C1622 H1635 0.962 . S
C1622 H1636 0.960 . S
C1623 C1620 1.511 . S
C1623 H1637 0.961 . S
C1623 H1638 0.961 . S
C1623 H1639 0.961 . S
C1624 C1625 1.370 . S
C1624 C1626 1.363 . S
C1624 H1640 0.931 . S
C1625 C1624 1.370 . S
C1625 C1629 1.408 . S
C1626 C1624 1.363 . S
C1626 C1627 1.370 . S
C1626 C1630 1.524 . S
C1627 C1619 1.503 . S
C1627 C1626 1.370 . S
C1627 C1628 1.403 . S
C1628 C1627 1.403 . S
C1628 C1629 1.404 . S
C1628 C1631 1.539 . S
C1629 C1625 1.408 . S
C1629 C1628 1.404 . S
C1629 H1641 0.930 . S
C1630 C1626 1.524 . S
C1630 H1642 0.956 . S
C1630 H1643 0.961 . S
C1630 H1644 0.961 . S
C1631 C1628 1.539 . S
C1631 H1645 0.958 . S
C1631 H1646 0.961 . S
C1631 H1647 0.960 . S
H1632 C1616 0.931 . S
H1633 C1621 0.929 . S
H1634 C1622 0.960 . S
H1635 C1622 0.962 . S
H1636 C1622 0.960 . S
H1637 C1623 0.961 . S
H1638 C1623 0.961 . S
H1639 C1623 0.961 . S
H1640 C1624 0.931 . S
H1641 C1629 0.930 . S
H1642 C1630 0.956 . S
H1643 C1630 0.961 . S
H1644 C1630 0.961 . S
H1645 C1631 0.958 . S
H1646 C1631 0.961 . S
H1647 C1631 0.960 . S
C1648 C1649 1.391 . S
C1648 C1650 1.394 . S
C1648 H1664 0.931 . S
C1649 C1648 1.391 . S
C1649 C1653 1.376 . S
C1650 C1648 1.394 . S
C1650 C1651 1.369 . S
C1650 C1654 1.531 . S
C1651 C1650 1.369 . S
C1651 C1652 1.410 . S
C1651 C1659 1.503 . S
C1652 C1651 1.410 . S
C1652 C1653 1.392 . S
C1652 C1655 1.511 . S
C1653 C1649 1.376 . S
C1653 C1652 1.392 . S
C1653 H1665 0.929 . S
C1654 C1650 1.531 . S
C1654 H1666 0.960 . S
C1654 H1667 0.962 . S
C1654 H1668 0.960 . S
C1655 C1652 1.511 . S
C1655 H1669 0.961 . S
C1655 H1670 0.961 . S
C1655 H1671 0.961 . S
C1656 C1657 1.370 . S
C1656 C1658 1.363 . S
C1656 H1672 0.931 . S
C1657 C1656 1.370 . S
C1657 C1661 1.408 . S
C1658 C1656 1.363 . S
C1658 C1659 1.370 . S
C1658 C1662 1.524 . S
C1659 C1651 1.503 . S
C1659 C1658 1.370 . S
C1659 C1660 1.403 . S
C1660 C1659 1.403 . S
C1660 C1661 1.404 . S
C1660 C1663 1.539 . S
C1661 C1657 1.408 . S
C1661 C1660 1.404 . S
C1661 H1673 0.930 . S
C1662 C1658 1.524 . S
C1662 H1674 0.956 . S
C1662 H1675 0.961 . S
C1662 H1676 0.961 . S
C1663 C1660 1.539 . S
C1663 H1677 0.958 . S
C1663 H1678 0.961 . S
C1663 H1679 0.960 . S
H1664 C1648 0.931 . S
H1665 C1653 0.929 . S
H1666 C1654 0.960 . S
H1667 C1654 0.962 . S
H1668 C1654 0.960 . S
H1669 C1655 0.961 . S
H1670 C1655 0.961 . S
H1671 C1655 0.961 . S
H1672 C1656 0.931 . S
H1673 C1661 0.930 . S
H1674 C1662 0.956 . S
H1675 C1662 0.961 . S
H1676 C1662 0.961 . S
H1677 C1663 0.958 . S
H1678 C1663 0.961 . S
H1679 C1663 0.960 . S
C1680 C1681 1.391 1_655 S
C1680 C1682 1.394 . S
C1680 H1696 0.931 . S
C1681 C1680 1.391 1_455 S
C1681 C1685 1.376 . S
C1682 C1680 1.394 . S
C1682 C1683 1.369 1_655 S
C1682 C1686 1.531 . S
C1683 C1682 1.369 1_455 S
C1683 C1684 1.410 . S
C1683 C1691 1.503 1_455 S
C1684 C1683 1.410 . S
C1684 C1685 1.392 . S
C1684 C1687 1.511 . S
C1685 C1681 1.376 . S
C1685 C1684 1.392 . S
C1685 H1697 0.929 . S
C1686 C1682 1.531 . S
C1686 H1698 0.960 . S
C1686 H1699 0.962 . S
C1686 H1700 0.960 . S
C1687 C1684 1.511 . S
C1687 H1701 0.961 . S
C1687 H1702 0.961 . S
C1687 H1703 0.961 . S
C1688 C1689 1.370 . S
C1688 C1690 1.363 . S
C1688 H1704 0.931 . S
C1689 C1688 1.370 . S
C1689 C1693 1.408 . S
C1690 C1688 1.363 . S
C1690 C1691 1.370 . S
C1690 C1694 1.524 . S
C1691 C1683 1.503 1_655 S
C1691 C1690 1.370 . S
C1691 C1692 1.403 1_655 S
C1692 C1691 1.403 1_455 S
C1692 C1693 1.404 1_455 S
C1692 C1695 1.539 . S
C1693 C1689 1.408 . S
C1693 C1692 1.404 1_655 S
C1693 H1705 0.930 1_655 S
C1694 C1690 1.524 . S
C1694 H1706 0.956 . S
C1694 H1707 0.961 . S
C1694 H1708 0.961 . S
C1695 C1692 1.539 . S
C1695 H1709 0.958 . S
C1695 H1710 0.961 . S
C1695 H1711 0.960 . S
H1696 C1680 0.931 . S
H1697 C1685 0.929 . S
H1698 C1686 0.960 . S
H1699 C1686 0.962 . S
H1700 C1686 0.960 . S
H1701 C1687 0.961 . S
H1702 C1687 0.961 . S
H1703 C1687 0.961 . S
H1704 C1688 0.931 . S
H1705 C1693 0.930 1_455 S
H1706 C1694 0.956 . S
H1707 C1694 0.961 . S
H1708 C1694 0.961 . S
H1709 C1695 0.958 . S
H1710 C1695 0.961 . S
H1711 C1695 0.960 . S
C1712 C1713 1.391 . S
C1712 C1714 1.394 1_665 S
C1712 H1728 0.931 1_655 S
C1713 C1712 1.391 . S
C1713 C1717 1.376 . S
C1714 C1712 1.394 1_445 S
C1714 C1715 1.369 1_445 S
C1714 C1718 1.531 . S
C1715 C1714 1.369 1_665 S
C1715 C1716 1.410 . S
C1715 C1723 1.503 1_666 S
C1716 C1715 1.410 . S
C1716 C1717 1.392 . S
C1716 C1719 1.511 1_556 S
C1717 C1713 1.376 . S
C1717 C1716 1.392 . S
C1717 H1729 0.929 . S
C1718 C1714 1.531 . S
C1718 H1730 0.960 . S
C1718 H1731 0.962 . S
C1718 H1732 0.960 . S
C1719 C1716 1.511 1_554 S
C1719 H1733 0.961 . S
C1719 H1734 0.961 . S
C1719 H1735 0.961 . S
C1720 C1721 1.370 . S
C1720 C1722 1.363 1_545 S
C1720 H1736 0.931 1_545 S
C1721 C1720 1.370 . S
C1721 C1725 1.408 . S
C1722 C1720 1.363 1_565 S
C1722 C1723 1.370 1_565 S
C1722 C1726 1.524 . S
C1723 C1715 1.503 1_444 S
C1723 C1722 1.370 1_545 S
C1723 C1724 1.403 1_455 S
C1724 C1723 1.403 1_655 S
C1724 C1725 1.404 1_655 S
C1724 C1727 1.539 . S
C1725 C1721 1.408 . S
C1725 C1724 1.404 1_455 S
C1725 H1737 0.930 1_455 S
C1726 C1722 1.524 . S
C1726 H1738 0.957 1_554 S
C1726 H1739 0.961 . S
C1726 H1740 0.961 . S
C1727 C1724 1.539 . S
C1727 H1741 0.958 1_554 S
C1727 H1742 0.961 . S
C1727 H1743 0.960 1_554 S
H1728 C1712 0.931 1_455 S
H1729 C1717 0.929 . S
H1730 C1718 0.960 . S
H1731 C1718 0.962 . S
H1732 C1718 0.960 . S
H1733 C1719 0.961 . S
H1734 C1719 0.961 . S
H1735 C1719 0.961 . S
H1736 C1720 0.931 1_565 S
H1737 C1725 0.930 1_655 S
H1738 C1726 0.957 1_556 S
H1739 C1726 0.961 . S
H1740 C1726 0.961 . S
H1741 C1727 0.958 1_556 S
H1742 C1727 0.961 . S
H1743 C1727 0.960 1_556 S
C1744 C1745 1.391 1_565 S
C1744 C1746 1.394 . S
C1744 H1760 0.931 . S
C1745 C1744 1.391 1_545 S
C1745 C1749 1.376 . S
C1746 C1744 1.394 . S
C1746 C1747 1.369 1_565 S
C1746 C1750 1.531 . S
C1747 C1746 1.369 1_545 S
C1747 C1748 1.410 . S
C1747 C1755 1.503 1_546 S
C1748 C1747 1.410 . S
C1748 C1749 1.392 . S
C1748 C1751 1.511 1_556 S
C1749 C1745 1.376 . S
C1749 C1748 1.392 . S
C1749 H1761 0.929 . S
C1750 C1746 1.531 . S
C1750 H1762 0.960 . S
C1750 H1763 0.962 . S
C1750 H1764 0.960 . S
C1751 C1748 1.511 1_554 S
C1751 H1765 0.961 . S
C1751 H1766 0.961 . S
C1751 H1767 0.961 . S
C1752 C1753 1.370 . S
C1752 C1754 1.363 . S
C1752 H1768 0.931 . S
C1753 C1752 1.370 . S
C1753 C1757 1.408 . S
C1754 C1752 1.363 . S
C1754 C1755 1.370 . S
C1754 C1758 1.524 1_565 S
C1755 C1747 1.503 1_564 S
C1755 C1754 1.370 . S
C1755 C1756 1.403 . S
C1756 C1755 1.403 . S
C1756 C1757 1.404 . S
C1756 C1759 1.539 . S
C1757 C1753 1.408 . S
C1757 C1756 1.404 . S
C1757 H1769 0.930 . S
C1758 C1754 1.524 1_545 S
C1758 H1770 0.956 1_554 S
C1758 H1771 0.961 1_554 S
C1758 H1772 0.961 . S
C1759 C1756 1.539 . S
C1759 H1773 0.958 . S
C1759 H1774 0.961 . S
C1759 H1775 0.960 . S
H1760 C1744 0.931 . S
H1761 C1749 0.929 . S
H1762 C1750 0.960 . S
H1763 C1750 0.962 . S
H1764 C1750 0.960 . S
H1765 C1751 0.961 . S
H1766 C1751 0.961 . S
H1767 C1751 0.961 . S
H1768 C1752 0.931 . S
H1769 C1757 0.930 . S
H1770 C1758 0.956 1_556 S
H1771 C1758 0.961 1_556 S
H1772 C1758 0.961 . S
H1773 C1759 0.958 . S
H1774 C1759 0.961 . S
H1775 C1759 0.960 . S
C1776 C1777 1.391 . S
C1776 C1778 1.394 1_545 S
C1776 H1792 0.931 1_545 S
C1777 C1776 1.391 . S
C1777 C1781 1.376 . S
C1778 C1776 1.394 1_565 S
C1778 C1779 1.365 1_565 S
C1778 C1782 1.531 . S
C1779 C1778 1.365 1_545 S
C1779 C1780 1.420 . S
C1779 C1787 1.498 1_545 S
C1780 C1779 1.420 . S
C1780 C1781 1.392 . S
C1780 C1783 1.511 . S
C1781 C1777 1.376 . S
C1781 C1780 1.392 . S
C1781 H1793 0.929 . S
C1782 C1778 1.531 . S
C1782 H1794 0.960 . S
C1782 H1795 0.962 . S
C1782 H1796 0.960 . S
C1783 C1780 1.511 . S
C1783 H1797 0.961 . S
C1783 H1798 0.961 . S
C1783 H1799 0.961 . S
C1784 C1785 1.370 . S
C1784 C1786 1.363 1_565 S
C1784 H1800 0.931 1_565 S
C1785 C1784 1.370 . S
C1785 C1789 1.408 . S
C1786 C1784 1.363 1_545 S
C1786 C1787 1.370 1_545 S
C1786 C1790 1.524 . S
C1787 C1779 1.498 1_565 S
C1787 C1786 1.370 1_565 S
C1787 C1788 1.403 . S
C1788 C1787 1.403 . S
C1788 C1789 1.404 . S
C1788 C1791 1.539 . S
C1789 C1785 1.408 . S
C1789 C1788 1.404 . S
C1789 H1801 0.930 . S
C1790 C1786 1.524 . S
C1790 H1802 0.956 . S
C1790 H1803 0.961 . S
C1790 H1804 0.961 . S
C1791 C1788 1.539 . S
C1791 H1805 0.958 . S
C1791 H1806 0.961 . S
C1791 H1807 0.960 . S
H1792 C1776 0.931 1_565 S
H1793 C1781 0.929 . S
H1794 C1782 0.960 . S
H1795 C1782 0.962 . S
H1796 C1782 0.960 . S
H1797 C1783 0.961 . S
H1798 C1783 0.961 . S
H1799 C1783 0.961 . S
H1800 C1784 0.931 1_545 S
H1801 C1789 0.930 . S
H1802 C1790 0.956 . S
H1803 C1790 0.961 . S
H1804 C1790 0.961 . S
H1805 C1791 0.958 . S
H1806 C1791 0.961 . S
H1807 C1791 0.960 . S
C1808 C1809 1.391 1_655 S
C1808 C1810 1.394 . S
C1808 H1824 0.931 . S
C1809 C1808 1.391 1_455 S
C1809 C1813 1.376 . S
C1810 C1808 1.394 . S
C1810 C1811 1.380 1_655 S
C1810 C1814 1.531 . S
C1811 C1810 1.380 1_455 S
C1811 C1812 1.406 1_565 S
C1811 C1819 1.498 1_465 S
C1812 C1811 1.406 1_545 S
C1812 C1813 1.392 1_545 S
C1812 C1815 1.511 . S
C1813 C1809 1.376 . S
C1813 C1812 1.392 1_565 S
C1813 H1825 0.929 . S
C1814 C1810 1.531 . S
C1814 H1826 0.960 . S
C1814 H1827 0.962 . S
C1814 H1828 0.960 . S
C1815 C1812 1.511 . S
C1815 H1829 0.961 . S
C1815 H1830 0.961 . S
C1815 H1831 0.961 . S
C1816 C1817 1.370 . S
C1816 C1818 1.363 1_545 S
C1816 H1832 0.931 1_545 S
C1817 C1816 1.370 . S
C1817 C1821 1.408 . S
C1818 C1816 1.363 1_565 S
C1818 C1819 1.370 1_565 S
C1818 C1822 1.524 1_655 S
C1819 C1811 1.498 1_645 S
C1819 C1818 1.370 1_545 S
C1819 C1820 1.403 . S
C1820 C1819 1.403 . S
C1820 C1821 1.404 . S
C1820 C1823 1.539 . S
C1821 C1817 1.408 . S
C1821 C1820 1.404 . S
C1821 H1833 0.930 . S
C1822 C1818 1.524 1_455 S
C1822 H1834 0.956 . S
C1822 H1835 0.961 . S
C1822 H1836 0.961 . S
C1823 C1820 1.539 . S
C1823 H1837 0.958 . S
C1823 H1838 0.961 . S
C1823 H1839 0.960 . S
H1824 C1808 0.931 . S
H1825 C1813 0.929 . S
H1826 C1814 0.960 . S
H1827 C1814 0.962 . S
H1828 C1814 0.960 . S
H1829 C1815 0.961 . S
H1830 C1815 0.961 . S
H1831 C1815 0.961 . S
H1832 C1816 0.931 1_565 S
H1833 C1821 0.930 . S
H1834 C1822 0.956 . S
H1835 C1822 0.961 . S
H1836 C1822 0.961 . S
H1837 C1823 0.958 . S
H1838 C1823 0.961 . S
H1839 C1823 0.960 . S
C1840 C1841 1.391 . S
C1840 C1842 1.394 . S
C1840 H1856 0.931 . S
C1841 C1840 1.391 . S
C1841 C1845 1.376 . S
C1842 C1840 1.394 . S
C1842 C1843 1.369 . S
C1842 C1846 1.531 . S
C1843 C1842 1.369 . S
C1843 C1844 1.410 . S
C1843 C1851 1.503 1_554 S
C1844 C1843 1.410 . S
C1844 C1845 1.392 . S
C1844 C1847 1.511 . S
C1845 C1841 1.376 . S
C1845 C1844 1.392 . S
C1845 H1857 0.929 . S
C1846 C1842 1.531 . S
C1846 H1858 0.960 1_554 S
C1846 H1859 0.962 . S
C1846 H1860 0.960 . S
C1847 C1844 1.511 . S
C1847 H1861 0.961 . S
C1847 H1862 0.961 . S
C1847 H1863 0.961 . S
C1848 C1849 1.370 . S
C1848 C1850 1.363 . S
C1848 H1864 0.931 . S
C1849 C1848 1.370 . S
C1849 C1853 1.408 . S
C1850 C1848 1.363 . S
C1850 C1851 1.370 . S
C1850 C1854 1.524 1_556 S
C1851 C1843 1.503 1_556 S
C1851 C1850 1.370 . S
C1851 C1852 1.403 . S
C1852 C1851 1.403 . S
C1852 C1853 1.404 . S
C1852 C1855 1.539 . S
C1853 C1849 1.408 . S
C1853 C1852 1.404 . S
C1853 H1865 0.930 . S
C1854 C1850 1.524 1_554 S
C1854 H1866 0.956 . S
C1854 H1867 0.961 . S
C1854 H1868 0.961 . S
C1855 C1852 1.539 . S
C1855 H1869 0.958 . S
C1855 H1870 0.961 . S
C1855 H1871 0.960 . S
H1856 C1840 0.931 . S
H1857 C1845 0.929 . S
H1858 C1846 0.960 1_556 S
H1859 C1846 0.962 . S
H1860 C1846 0.960 . S
H1861 C1847 0.961 . S
H1862 C1847 0.961 . S
H1863 C1847 0.961 . S
H1864 C1848 0.931 . S
H1865 C1853 0.930 . S
H1866 C1854 0.956 . S
H1867 C1854 0.961 . S
H1868 C1854 0.961 . S
H1869 C1855 0.958 . S
H1870 C1855 0.961 . S
H1871 C1855 0.960 . S
C1872 C1873 1.391 . S
C1872 C1874 1.394 . S
C1872 H1888 0.931 . S
C1873 C1872 1.391 . S
C1873 C1877 1.376 . S
C1874 C1872 1.394 . S
C1874 C1875 1.369 . S
C1874 C1878 1.531 1_554 S
C1875 C1874 1.369 . S
C1875 C1876 1.410 . S
C1875 C1883 1.501 1_654 S
C1876 C1875 1.410 . S
C1876 C1877 1.392 . S
C1876 C1879 1.511 . S
C1877 C1873 1.376 . S
C1877 C1876 1.392 . S
C1877 H1889 0.929 . S
C1878 C1874 1.531 1_556 S
C1878 H1890 0.960 . S
C1878 H1891 0.962 . S
C1878 H1892 0.960 . S
C1879 C1876 1.511 . S
C1879 H1893 0.961 1_655 S
C1879 H1894 0.961 1_655 S
C1879 H1895 0.961 . S
C1880 C1881 1.370 . S
C1880 C1882 1.363 . S
C1880 H1896 0.931 . S
C1881 C1880 1.370 . S
C1881 C1885 1.408 1_455 S
C1882 C1880 1.363 . S
C1882 C1883 1.377 . S
C1882 C1886 1.522 . S
C1883 C1875 1.501 1_456 S
C1883 C1882 1.377 . S
C1883 C1884 1.398 1_455 S
C1884 C1883 1.398 1_655 S
C1884 C1885 1.404 . S
C1884 C1887 1.539 . S
C1885 C1881 1.408 1_655 S
C1885 C1884 1.404 . S
C1885 H1897 0.930 . S
C1886 C1882 1.522 . S
C1886 H1898 0.956 1_556 S
C1886 H1899 0.964 1_556 S
C1886 H1900 0.959 . S
C1887 C1884 1.539 . S
C1887 H1901 0.958 . S
C1887 H1902 0.961 . S
C1887 H1903 0.960 . S
H1888 C1872 0.931 . S
H1889 C1877 0.929 . S
H1890 C1878 0.960 . S
H1891 C1878 0.962 . S
H1892 C1878 0.960 . S
H1893 C1879 0.961 1_455 S
H1894 C1879 0.961 1_455 S
H1895 C1879 0.961 . S
H1896 C1880 0.931 . S
H1897 C1885 0.930 . S
H1898 C1886 0.956 1_554 S
H1899 C1886 0.964 1_554 S
H1900 C1886 0.959 . S
H1901 C1887 0.958 . S
H1902 C1887 0.961 . S
H1903 C1887 0.960 . S
C1904 C1905 1.391 . S
C1904 C1906 1.394 . S
C1904 H1920 0.931 . S
C1905 C1904 1.391 . S
C1905 C1909 1.376 1_655 S
C1906 C1904 1.394 . S
C1906 C1907 1.369 . S
C1906 C1910 1.531 . S
C1907 C1906 1.369 . S
C1907 C1908 1.410 1_655 S
C1907 C1915 1.503 1_655 S
C1908 C1907 1.410 1_455 S
C1908 C1909 1.392 . S
C1908 C1911 1.511 . S
C1909 C1905 1.376 1_455 S
C1909 C1908 1.392 . S
C1909 H1921 0.929 . S
C1910 C1906 1.531 . S
C1910 H1922 0.960 . S
C1910 H1923 0.962 . S
C1910 H1924 0.960 . S
C1911 C1908 1.511 . S
C1911 H1925 0.961 . S
C1911 H1926 0.961 . S
C1911 H1927 0.961 . S
C1912 C1913 1.370 . S
C1912 C1914 1.363 . S
C1912 H1928 0.931 . S
C1913 C1912 1.370 . S
C1913 C1917 1.408 . S
C1914 C1912 1.363 . S
C1914 C1915 1.370 . S
C1914 C1918 1.524 . S
C1915 C1907 1.503 1_455 S
C1915 C1914 1.370 . S
C1915 C1916 1.403 . S
C1916 C1915 1.403 . S
C1916 C1917 1.405 . S
C1916 C1919 1.538 1_455 S
C1917 C1913 1.408 . S
C1917 C1916 1.405 . S
C1917 H1929 0.930 . S
C1918 C1914 1.524 . S
C1918 H1930 0.957 . S
C1918 H1931 0.961 . S
C1918 H1932 0.961 . S
C1919 C1916 1.538 1_655 S
C1919 H1933 0.958 . S
C1919 H1934 0.961 . S
C1919 H1935 0.960 . S
H1920 C1904 0.931 . S
H1921 C1909 0.929 . S
H1922 C1910 0.960 . S
H1923 C1910 0.962 . S
H1924 C1910 0.960 . S
H1925 C1911 0.961 . S
H1926 C1911 0.961 . S
H1927 C1911 0.961 . S
H1928 C1912 0.931 . S
H1929 C1917 0.930 . S
H1930 C1918 0.957 . S
H1931 C1918 0.961 . S
H1932 C1918 0.961 . S
H1933 C1919 0.958 . S
H1934 C1919 0.961 . S
H1935 C1919 0.960 . S
C1936 C1937 1.391 . S
C1936 C1938 1.394 . S
C1936 H1952 0.931 . S
C1937 C1936 1.391 . S
C1937 C1941 1.376 . S
C1938 C1936 1.394 . S
C1938 C1939 1.369 . S
C1938 C1942 1.531 . S
C1939 C1938 1.369 . S
C1939 C1940 1.410 . S
C1939 C1947 1.503 . S
C1940 C1939 1.410 . S
C1940 C1941 1.392 . S
C1940 C1943 1.511 . S
C1941 C1937 1.376 . S
C1941 C1940 1.392 . S
C1941 H1953 0.929 . S
C1942 C1938 1.531 . S
C1942 H1954 0.960 . S
C1942 H1955 0.962 . S
C1942 H1956 0.960 . S
C1943 C1940 1.511 . S
C1943 H1957 0.961 . S
C1943 H1958 0.961 . S
C1943 H1959 0.961 . S
C1944 C1945 1.370 . S
C1944 C1946 1.363 . S
C1944 H1960 0.931 . S
C1945 C1944 1.370 . S
C1945 C1949 1.408 . S
C1946 C1944 1.363 . S
C1946 C1947 1.370 . S
C1946 C1950 1.524 . S
C1947 C1939 1.503 . S
C1947 C1946 1.370 . S
C1947 C1948 1.403 . S
C1948 C1947 1.403 . S
C1948 C1949 1.404 . S
C1948 C1951 1.539 . S
C1949 C1945 1.408 . S
C1949 C1948 1.404 . S
C1949 H1961 0.930 . S
C1950 C1946 1.524 . S
C1950 H1962 0.956 . S
C1950 H1963 0.961 . S
C1950 H1964 0.961 . S
C1951 C1948 1.539 . S
C1951 H1965 0.958 . S
C1951 H1966 0.961 . S
C1951 H1967 0.960 . S
H1952 C1936 0.931 . S
H1953 C1941 0.929 . S
H1954 C1942 0.960 . S
H1955 C1942 0.962 . S
H1956 C1942 0.960 . S
H1957 C1943 0.961 . S
H1958 C1943 0.961 . S
H1959 C1943 0.961 . S
H1960 C1944 0.931 . S
H1961 C1949 0.930 . S
H1962 C1950 0.956 . S
H1963 C1950 0.961 . S
H1964 C1950 0.961 . S
H1965 C1951 0.958 . S
H1966 C1951 0.961 . S
H1967 C1951 0.960 . S
C945 C64 1.543 . S
C953 C5 1.558 . S
C977 C123 1.557 . S
C985 C182 1.553 . S
C1009 C241 1.548 . S
C1017 C300 1.556 . S
C1041 C418 1.550 . S
C1049 C359 1.556 . S
C1073 C536 1.543 . S
C1081 C477 1.557 . S
C1105 C654 1.549 . S
C1113 C595 1.556 . S
C1137 C772 1.551 . S
C1145 C713 1.554 . S
C1169 C890 1.548 . S
C1177 C831 1.555 . S
C1201 C210 1.575 . S
C1209 C33 1.573 . S
C1233 C92 1.575 . S
C1241 C151 1.572 . S
C1265 C446 1.568 . S
C1273 C269 1.568 . S
C1297 C387 1.567 . S
C1305 C328 1.568 . S
C1329 C505 1.563 . S
C1337 C682 1.575 . S
C1361 C623 1.576 . S
C1369 C564 1.572 . S
C1393 C918 1.571 . S
C1401 C741 1.575 . S
C1425 C800 1.565 . S
C1433 C859 1.568 . S
C1457 C52 1.567 . S
C1465 C583 1.574 . S
C1489 C111 1.565 . S
C1497 C524 1.574 . S
C1521 C701 1.562 . S
C1529 C170 1.575 . S
C1553 C642 1.565 . S
C1561 C229 1.574 . S
C1585 C819 1.576 . S
C1593 C288 1.568 . S
C1617 C760 1.561 . S
C1625 C347 1.573 . S
C1649 C406 1.560 . S
C1657 C937 1.573 . S
C1681 C465 1.560 . S
C1689 C878 1.573 . S
C1713 C239 1.552 . S
C1721 C3 1.541 . S
C1745 C298 1.551 . S
C1753 C62 1.542 . S
C1777 C357 1.553 . S
C1785 C121 1.541 . S
C1809 C416 1.546 . S
C1817 C180 1.543 . S
C1841 C475 1.543 . S
C1849 C711 1.544 . S
C1873 C534 1.551 . S
C1881 C770 1.541 . S
C1905 C829 1.536 . S
C1913 C593 1.548 . S
C1937 C888 1.552 . S
C1945 C652 1.541 . S
