# Generated by pormake.
# Topology xfg, (7)-cn, num edge types: 1
# Building blocks:
#     Node 0, Type 0, BuildingBlock: NUHQUE_clean_sbu_2, # of connection points: 7
#     Node 1, Type 0, BuildingBlock: NUHQUE_clean_sbu_2, # of connection points: 7
#     Node 2, Type 0, BuildingBlock: NUHQUE_clean_sbu_2, # of connection points: 7
#     Node 3, Type 0, BuildingBlock: NUHQUE_clean_sbu_2, # of connection points: 7
#     Node 4, Type 0, BuildingBlock: NUHQUE_clean_sbu_2, # of connection points: 7
#     Node 5, Type 0, BuildingBlock: NUHQUE_clean_sbu_2, # of connection points: 7
#     Node 6, Type 0, BuildingBlock: NUHQUE_clean_sbu_2, # of connection points: 7
#     Node 7, Type 0, BuildingBlock: NUHQUE_clean_sbu_2, # of connection points: 7
#     Node 8, Type 0, BuildingBlock: NUHQUE_clean_sbu_2, # of connection points: 7
#     Node 9, Type 0, BuildingBlock: NUHQUE_clean_sbu_2, # of connection points: 7
#     Node 10, Type 0, BuildingBlock: NUHQUE_clean_sbu_2, # of connection points: 7
#     Node 11, Type 0, BuildingBlock: NUHQUE_clean_sbu_2, # of connection points: 7
#     Node 12, Type 0, BuildingBlock: NUHQUE_clean_sbu_2, # of connection points: 7
#     Node 13, Type 0, BuildingBlock: NUHQUE_clean_sbu_2, # of connection points: 7
#     Node 14, Type 0, BuildingBlock: NUHQUE_clean_sbu_2, # of connection points: 7
#     Node 15, Type 0, BuildingBlock: NUHQUE_clean_sbu_2, # of connection points: 7
#     Edge 16, Type (0, 0), BuildingBlock: MIFKUJ_clean_linker_0, # of connection points: 2
#     Edge 17, Type (0, 0), BuildingBlock: MIFKUJ_clean_linker_0, # of connection points: 2
#     Edge 18, Type (0, 0), BuildingBlock: MIFKUJ_clean_linker_0, # of connection points: 2
#     Edge 19, Type (0, 0), BuildingBlock: MIFKUJ_clean_linker_0, # of connection points: 2
#     Edge 20, Type (0, 0), BuildingBlock: MIFKUJ_clean_linker_0, # of connection points: 2
#     Edge 21, Type (0, 0), BuildingBlock: MIFKUJ_clean_linker_0, # of connection points: 2
#     Edge 22, Type (0, 0), BuildingBlock: MIFKUJ_clean_linker_0, # of connection points: 2
#     Edge 23, Type (0, 0), BuildingBlock: MIFKUJ_clean_linker_0, # of connection points: 2
#     Edge 24, Type (0, 0), BuildingBlock: MIFKUJ_clean_linker_0, # of connection points: 2
#     Edge 25, Type (0, 0), BuildingBlock: MIFKUJ_clean_linker_0, # of connection points: 2
#     Edge 26, Type (0, 0), BuildingBlock: MIFKUJ_clean_linker_0, # of connection points: 2
#     Edge 27, Type (0, 0), BuildingBlock: MIFKUJ_clean_linker_0, # of connection points: 2
#     Edge 28, Type (0, 0), BuildingBlock: MIFKUJ_clean_linker_0, # of connection points: 2
#     Edge 29, Type (0, 0), BuildingBlock: MIFKUJ_clean_linker_0, # of connection points: 2
#     Edge 30, Type (0, 0), BuildingBlock: MIFKUJ_clean_linker_0, # of connection points: 2
#     Edge 31, Type (0, 0), BuildingBlock: MIFKUJ_clean_linker_0, # of connection points: 2
#     Edge 32, Type (0, 0), BuildingBlock: MIFKUJ_clean_linker_0, # of connection points: 2
#     Edge 33, Type (0, 0), BuildingBlock: MIFKUJ_clean_linker_0, # of connection points: 2
#     Edge 34, Type (0, 0), BuildingBlock: MIFKUJ_clean_linker_0, # of connection points: 2
#     Edge 35, Type (0, 0), BuildingBlock: MIFKUJ_clean_linker_0, # of connection points: 2
#     Edge 36, Type (0, 0), BuildingBlock: MIFKUJ_clean_linker_0, # of connection points: 2
#     Edge 37, Type (0, 0), BuildingBlock: MIFKUJ_clean_linker_0, # of connection points: 2
#     Edge 38, Type (0, 0), BuildingBlock: MIFKUJ_clean_linker_0, # of connection points: 2
#     Edge 39, Type (0, 0), BuildingBlock: MIFKUJ_clean_linker_0, # of connection points: 2
#     Edge 40, Type (0, 0), BuildingBlock: MIFKUJ_clean_linker_0, # of connection points: 2
#     Edge 41, Type (0, 0), BuildingBlock: MIFKUJ_clean_linker_0, # of connection points: 2
#     Edge 42, Type (0, 0), BuildingBlock: MIFKUJ_clean_linker_0, # of connection points: 2
#     Edge 43, Type (0, 0), BuildingBlock: MIFKUJ_clean_linker_0, # of connection points: 2
#     Edge 44, Type (0, 0), BuildingBlock: MIFKUJ_clean_linker_0, # of connection points: 2
#     Edge 45, Type (0, 0), BuildingBlock: MIFKUJ_clean_linker_0, # of connection points: 2
#     Edge 46, Type (0, 0), BuildingBlock: MIFKUJ_clean_linker_0, # of connection points: 2
#     Edge 47, Type (0, 0), BuildingBlock: MIFKUJ_clean_linker_0, # of connection points: 2
#     Edge 48, Type (0, 0), BuildingBlock: MIFKUJ_clean_linker_0, # of connection points: 2
#     Edge 49, Type (0, 0), BuildingBlock: MIFKUJ_clean_linker_0, # of connection points: 2
#     Edge 50, Type (0, 0), BuildingBlock: MIFKUJ_clean_linker_0, # of connection points: 2
#     Edge 51, Type (0, 0), BuildingBlock: MIFKUJ_clean_linker_0, # of connection points: 2
#     Edge 52, Type (0, 0), BuildingBlock: MIFKUJ_clean_linker_0, # of connection points: 2
#     Edge 53, Type (0, 0), BuildingBlock: MIFKUJ_clean_linker_0, # of connection points: 2
#     Edge 54, Type (0, 0), BuildingBlock: MIFKUJ_clean_linker_0, # of connection points: 2
#     Edge 55, Type (0, 0), BuildingBlock: MIFKUJ_clean_linker_0, # of connection points: 2
#     Edge 56, Type (0, 0), BuildingBlock: MIFKUJ_clean_linker_0, # of connection points: 2
#     Edge 57, Type (0, 0), BuildingBlock: MIFKUJ_clean_linker_0, # of connection points: 2
#     Edge 58, Type (0, 0), BuildingBlock: MIFKUJ_clean_linker_0, # of connection points: 2
#     Edge 59, Type (0, 0), BuildingBlock: MIFKUJ_clean_linker_0, # of connection points: 2
#     Edge 60, Type (0, 0), BuildingBlock: MIFKUJ_clean_linker_0, # of connection points: 2
#     Edge 61, Type (0, 0), BuildingBlock: MIFKUJ_clean_linker_0, # of connection points: 2
#     Edge 62, Type (0, 0), BuildingBlock: MIFKUJ_clean_linker_0, # of connection points: 2
#     Edge 63, Type (0, 0), BuildingBlock: MIFKUJ_clean_linker_0, # of connection points: 2
#     Edge 64, Type (0, 0), BuildingBlock: MIFKUJ_clean_linker_0, # of connection points: 2
#     Edge 65, Type (0, 0), BuildingBlock: MIFKUJ_clean_linker_0, # of connection points: 2
#     Edge 66, Type (0, 0), BuildingBlock: MIFKUJ_clean_linker_0, # of connection points: 2
#     Edge 67, Type (0, 0), BuildingBlock: MIFKUJ_clean_linker_0, # of connection points: 2
#     Edge 68, Type (0, 0), BuildingBlock: MIFKUJ_clean_linker_0, # of connection points: 2
#     Edge 69, Type (0, 0), BuildingBlock: MIFKUJ_clean_linker_0, # of connection points: 2
#     Edge 70, Type (0, 0), BuildingBlock: MIFKUJ_clean_linker_0, # of connection points: 2
#     Edge 71, Type (0, 0), BuildingBlock: MIFKUJ_clean_linker_0, # of connection points: 2
# Relax obj value: 0.097
# Max RMSD: 0.187
# Mean RMSD: 0.187
data_MOF--net-xfg--node1-NUHQUE_clean_sbu_2--edge1-MIFKUJ_clean_linker_0
_symmetry_space_group_name_H-M    P1
_symmetry_Int_Tables_number       1
_symmetry_cell_setting            triclinic
loop_
_symmetry_equiv_pos_as_xyz
'x, y, z'
_cell_length_a     42.697511
_cell_length_b     42.559236
_cell_length_c     85.828139
_cell_angle_alpha  90.024139
_cell_angle_beta   89.978348
_cell_angle_gamma 89.790088
loop_
_atom_site_label
_atom_site_type_symbol
_atom_site_fract_x
_atom_site_fract_y
_atom_site_fract_z
_atom_type_partial_charge
O0 O 0.28047 0.09556 0.02033 0.0
Tb1 Tb 0.29623 0.07555 0.04229 0.0
Eu2 Eu 0.33327 0.11155 0.07276 0.0
C3 C 0.29974 0.10428 0.00917 0.0
O4 O 0.32991 0.10581 0.01194 0.0
C5 C 0.37293 0.07776 0.04373 0.0
O6 O 0.35212 0.09961 0.09634 0.0
C7 C 0.32227 0.17188 0.07106 0.0
C8 C 0.35124 0.07007 0.10068 0.0
O9 O 0.34328 0.04864 0.09041 0.0
C10 C 0.26296 0.08618 0.07368 0.0
C11 C 0.30478 0.2023 0.07329 0.0
C12 C 0.3014 0.2207 0.05981 0.0
C13 C 0.28792 0.25073 0.06034 0.0
C14 C 0.27592 0.26193 0.07448 0.0
C15 C 0.27964 0.24523 0.08841 0.0
C16 C 0.29463 0.21513 0.08789 0.0
O17 O 0.34629 0.07288 0.03631 0.0
O18 O 0.37389 0.09204 0.05755 0.0
O19 O 0.27055 0.0364 0.03235 0.0
O20 O 0.30288 0.02757 0.05073 0.0
C21 C 0.28319 0.01486 0.04104 0.0
O22 O 0.29029 0.0842 0.08059 0.0
O23 O 0.26213 0.09466 0.05897 0.0
O24 O 0.33844 0.15905 0.08245 0.0
O25 O 0.31276 0.1516 0.06043 0.0
H26 H 0.31113 0.21218 0.04892 0.0
H27 H 0.26475 0.28486 0.07482 0.0
H28 H 0.29832 0.20209 0.09856 0.0
O29 O 0.67102 0.53688 0.26992 0.0
Tb30 Tb 0.69311 0.55612 0.29057 0.0
Eu31 Eu 0.6646 0.58692 0.32412 0.0
C32 C 0.65455 0.55413 0.26019 0.0
O33 O 0.6471 0.5831 0.26394 0.0
C34 C 0.69134 0.62915 0.2953 0.0
O35 O 0.67807 0.59903 0.34859 0.0
C36 C 0.60362 0.58343 0.32187 0.0
C37 C 0.70658 0.59217 0.35327 0.0
O38 O 0.72719 0.58216 0.34302 0.0
C39 C 0.68609 0.51403 0.32068 0.0
C40 C 0.57249 0.56714 0.32344 0.0
C41 C 0.55477 0.56561 0.30966 0.0
C42 C 0.52419 0.55415 0.3097 0.0
C43 C 0.51128 0.54254 0.32348 0.0
C44 C 0.52773 0.54288 0.33758 0.0
C45 C 0.55861 0.55605 0.33767 0.0
O46 O 0.68076 0.60576 0.28677 0.0
O47 O 0.69057 0.62641 0.3107 0.0
O48 O 0.73229 0.54438 0.27558 0.0
O49 O 0.7418 0.56321 0.29806 0.0
C50 C 0.75422 0.55284 0.28515 0.0
O51 O 0.68577 0.53931 0.32945 0.0
O52 O 0.68147 0.51587 0.30553 0.0
O53 O 0.61781 0.59571 0.33402 0.0
O54 O 0.62302 0.57443 0.31072 0.0
H55 H 0.56429 0.57488 0.29888 0.0
H56 H 0.48755 0.53345 0.32323 0.0
H57 H 0.57155 0.55743 0.34849 0.0
O58 O 0.24117 0.92662 0.52019 0.0
Tb59 Tb 0.22566 0.94904 0.54168 0.0
Eu60 Eu 0.18946 0.91575 0.57271 0.0
C61 C 0.22192 0.92103 0.50854 0.0
O62 O 0.19164 0.9241 0.51064 0.0
C63 C 0.14878 0.94608 0.54338 0.0
O64 O 0.17208 0.92637 0.59663 0.0
C65 C 0.20752 0.85734 0.57318 0.0
C66 C 0.16208 0.95448 0.60041 0.0
O67 O 0.15799 0.97578 0.58953 0.0
C68 C 0.25792 0.94316 0.57334 0.0
C69 C 0.21791 0.82371 0.57341 0.0
C70 C 0.22074 0.8082 0.55907 0.0
C71 C 0.23079 0.77697 0.55839 0.0
C72 C 0.23827 0.76071 0.57203 0.0
C73 C 0.23552 0.77498 0.58667 0.0
C74 C 0.2253 0.8069 0.58738 0.0
O75 O 0.17548 0.95189 0.5362 0.0
O76 O 0.14794 0.93156 0.55712 0.0
O77 O 0.25073 0.98715 0.53044 0.0
O78 O 0.22047 0.99762 0.5495 0.0
C79 C 0.23927 1.00942 0.53912 0.0
O80 O 0.23017 0.94718 0.57966 0.0
O81 O 0.25917 0.93196 0.5591 0.0
O82 O 0.18699 0.86869 0.58315 0.0
O83 O 0.2163 0.87717 0.56218 0.0
H84 H 0.21471 0.8203 0.54835 0.0
H85 H 0.24566 0.73631 0.57124 0.0
H86 H 0.22307 0.81841 0.59858 0.0
O87 O 0.85107 0.48392 0.76967 0.0
Tb88 Tb 0.83066 0.4685 0.79136 0.0
Eu89 Eu 0.86745 0.43549 0.82276 0.0
C90 C 0.84371 0.46843 0.75697 0.0
O91 O 0.82508 0.44404 0.75799 0.0
C92 C 0.83768 0.39496 0.79381 0.0
O93 O 0.85298 0.41699 0.84588 0.0
C94 C 0.9285 0.43917 0.82091 0.0
C95 C 0.82336 0.42093 0.84935 0.0
O96 O 0.80432 0.43155 0.83851 0.0
C97 C 0.84177 0.50767 0.82211 0.0
C98 C 0.95834 0.45775 0.8223 0.0
C99 C 0.97504 0.46192 0.80835 0.0
C100 C 1.00394 0.47711 0.80812 0.0
C101 C 0.01667 0.48868 0.82194 0.0
C102 C 1.00153 0.48485 0.83633 0.0
C103 C 0.97211 0.46874 0.83655 0.0
O104 O 0.8444 0.42002 0.78547 0.0
O105 O 0.84204 0.39591 0.80911 0.0
O106 O 0.79045 0.48973 0.78006 0.0
O107 O 0.78263 0.45453 0.7973 0.0
C108 C 0.76934 0.47391 0.78754 0.0
O109 O 0.84606 0.48204 0.83036 0.0
O110 O 0.84389 0.50724 0.80682 0.0
O111 O 0.91395 0.42868 0.83335 0.0
O112 O 0.90934 0.44593 0.80928 0.0
H113 H 0.96574 0.45275 0.79751 0.0
H114 H 0.03953 0.49971 0.82154 0.0
H115 H 0.9602 0.465 0.84752 0.0
O116 O 0.73395 0.92835 0.9826 0.0
Tb117 Tb 0.72547 0.95107 0.96043 0.0
Eu118 Eu 0.68964 0.91008 0.93155 0.0
C119 C 0.71811 0.93801 0.99484 0.0
O120 O 0.69645 0.9597 0.99311 0.0
C121 C 0.64867 0.94534 0.95928 0.0
O122 O 0.66903 0.92236 0.90847 0.0
C123 C 0.70825 0.85185 0.93106 0.0
C124 C 0.66739 0.95222 0.90483 0.0
O125 O 0.67346 0.97324 0.91563 0.0
C126 C 0.7579 0.93888 0.92947 0.0
C127 C 0.71888 0.81832 0.93113 0.0
C128 C 0.72053 0.80281 0.94553 0.0
C129 C 0.73204 0.77205 0.94657 0.0
C130 C 0.7424 0.75654 0.93312 0.0
C131 C 0.7409 0.77087 0.91844 0.0
C132 C 0.7286 0.80196 0.91741 0.0
O133 O 0.67506 0.95759 0.96433 0.0
O134 O 0.64841 0.92419 0.94784 0.0
O135 O 0.75248 0.98865 0.9711 0.0
O136 O 0.72121 0.99945 0.95252 0.0
C137 C 0.74094 1.01102 0.9625 0.0
O138 O 0.73001 0.94096 0.92311 0.0
O139 O 0.75946 0.93087 0.94417 0.0
O140 O 0.6875 0.86286 0.92112 0.0
O141 O 0.71716 0.87198 0.9419 0.0
H142 H 0.71282 0.81473 0.95604 0.0
H143 H 0.75093 0.73255 0.93403 0.0
H144 H 0.72754 0.81357 0.90619 0.0
O145 O 0.33811 0.49579 0.73346 0.0
Tb146 Tb 0.32595 0.47671 0.71096 0.0
Eu147 Eu 0.36124 0.43907 0.68161 0.0
C148 C 0.35883 0.48299 0.74281 0.0
O149 O 0.37637 0.45959 0.73789 0.0
C150 C 0.33036 0.40134 0.7117 0.0
O151 O 0.34982 0.42108 0.65788 0.0
C152 C 0.42142 0.44882 0.68417 0.0
C153 C 0.32016 0.41963 0.65402 0.0
O154 O 0.29882 0.42443 0.66481 0.0
C155 C 0.33844 0.5099 0.68016 0.0
C156 C 0.45176 0.46634 0.6823 0.0
C157 C 0.46841 0.47146 0.69616 0.0
C158 C 0.49793 0.48548 0.6961 0.0
C159 C 0.51111 0.49538 0.68204 0.0
C160 C 0.49604 0.49029 0.66777 0.0
C161 C 0.46605 0.47527 0.66784 0.0
O162 O 0.33118 0.42818 0.71948 0.0
O163 O 0.33942 0.39988 0.69687 0.0
O164 O 0.2841 0.50224 0.71767 0.0
O165 O 0.27973 0.46405 0.70183 0.0
C166 C 0.2646 0.48577 0.7095 0.0
O167 O 0.33488 0.48251 0.67344 0.0
O168 O 0.34725 0.51032 0.6948 0.0
O169 O 0.40915 0.43261 0.67265 0.0
O170 O 0.40063 0.45885 0.69446 0.0
H171 H 0.45868 0.46364 0.70718 0.0
H172 H 0.53431 0.50574 0.68212 0.0
H173 H 0.45424 0.47056 0.65693 0.0
O174 O 0.78141 0.10279 0.48255 0.0
Tb175 Tb 0.79586 0.07841 0.46149 0.0
Eu176 Eu 0.83298 0.11325 0.43128 0.0
C177 C 0.80133 0.10981 0.4937 0.0
O178 O 0.83152 0.10738 0.49107 0.0
C179 C 0.87272 0.08088 0.46047 0.0
O180 O 0.85462 0.1 0.40854 0.0
C181 C 0.81617 0.17197 0.43023 0.0
C182 C 0.85467 0.07026 0.40457 0.0
O183 O 0.84579 0.04922 0.41486 0.0
C184 C 0.76358 0.08697 0.42994 0.0
C185 C 0.80658 0.20582 0.43011 0.0
C186 C 0.8046 0.22121 0.44453 0.0
C187 C 0.79372 0.25216 0.44554 0.0
C188 C 0.78466 0.26811 0.43201 0.0
C189 C 0.78593 0.25379 0.41729 0.0
C190 C 0.79759 0.2224 0.41632 0.0
O191 O 0.84582 0.07252 0.46676 0.0
O192 O 0.8738 0.0981 0.44752 0.0
O193 O 0.77099 0.042 0.47404 0.0
O194 O 0.79607 0.02971 0.45347 0.0
C195 C 0.77901 0.01906 0.46486 0.0
O196 O 0.79127 0.08382 0.42344 0.0
O197 O 0.76232 0.09654 0.44446 0.0
O198 O 0.8358 0.15976 0.42007 0.0
O199 O 0.80762 0.1528 0.44155 0.0
H200 H 0.81123 0.20892 0.4551 0.0
H201 H 0.77682 0.29232 0.43293 0.0
H202 H 0.79847 0.21068 0.40513 0.0
O203 O 0.17386 0.53565 0.23385 0.0
Tb204 Tb 0.1958 0.55555 0.21333 0.0
Eu205 Eu 0.15395 0.58461 0.18064 0.0
C206 C 0.17124 0.55348 0.24632 0.0
O207 O 0.17909 0.58321 0.24536 0.0
C208 C 0.18553 0.62735 0.20805 0.0
O209 O 0.17109 0.60135 0.15749 0.0
C210 C 0.09253 0.5834 0.18164 0.0
C211 C 0.19909 0.59182 0.15323 0.0
O212 O 0.21615 0.57548 0.16307 0.0
C213 C 0.18407 0.51195 0.1831 0.0
C214 C 0.06426 0.56213 0.18097 0.0
C215 C 0.05009 0.55448 0.19534 0.0
C216 C 0.0236 0.53516 0.19605 0.0
C217 C 0.01309 0.52124 0.18224 0.0
C218 C 0.02136 0.53333 0.16757 0.0
C219 C 0.04841 0.55306 0.1669 0.0
O220 O 0.17753 0.60316 0.2166 0.0
O221 O 0.1798 0.62599 0.19289 0.0
O222 O 0.23397 0.54995 0.22966 0.0
O223 O 0.24454 0.56492 0.20656 0.0
C224 C 0.25614 0.55808 0.2202 0.0
O225 O 0.17173 0.53519 0.17494 0.0
O226 O 0.19069 0.51447 0.19808 0.0
O227 O 0.10831 0.58965 0.16886 0.0
O228 O 0.11083 0.58095 0.194 0.0
H229 H 0.0588 0.56513 0.20594 0.0
H230 H 0.9951 0.50343 0.18298 0.0
H231 H 0.05626 0.56209 0.15578 0.0
O232 O 0.78345 0.60017 0.52183 0.0
Tb233 Tb 0.79855 0.57591 0.54276 0.0
Eu234 Eu 0.83332 0.61496 0.57235 0.0
C235 C 0.80312 0.61246 0.51176 0.0
O236 O 0.83303 0.61409 0.51515 0.0
C237 C 0.87499 0.57985 0.5444 0.0
O238 O 0.85164 0.6028 0.59585 0.0
C239 C 0.82406 0.67547 0.57042 0.0
C240 C 0.852 0.57297 0.59963 0.0
O241 O 0.84585 0.55196 0.58884 0.0
C242 C 0.76271 0.58817 0.57376 0.0
C243 C 0.80747 0.70646 0.57224 0.0
C244 C 0.80314 0.72336 0.55837 0.0
C245 C 0.7911 0.75396 0.55839 0.0
C246 C 0.78211 0.76767 0.57254 0.0
C247 C 0.78488 0.75164 0.58675 0.0
C248 C 0.79851 0.72087 0.58667 0.0
O249 O 0.84862 0.57387 0.537 0.0
O250 O 0.87515 0.59501 0.55798 0.0
O251 O 0.77675 0.53713 0.53041 0.0
O252 O 0.80345 0.52751 0.55085 0.0
C253 C 0.78722 0.51516 0.53957 0.0
O254 O 0.78968 0.58935 0.58107 0.0
O255 O 0.76177 0.59246 0.55863 0.0
O256 O 0.83938 0.6624 0.58203 0.0
O257 O 0.81446 0.65531 0.55974 0.0
H258 H 0.80997 0.71275 0.54739 0.0
H259 H 0.77358 0.79172 0.57261 0.0
H260 H 0.80181 0.7084 0.59754 0.0
O261 O 0.1821 0.0319 0.77106 0.0
Tb262 Tb 0.20188 0.05118 0.7922 0.0
Eu263 Eu 0.1597 0.08505 0.82188 0.0
C264 C 0.16594 0.04853 0.76097 0.0
O265 O 0.15557 0.07659 0.76476 0.0
C266 C 0.1936 0.12681 0.79362 0.0
O267 O 0.17077 0.10297 0.84568 0.0
C268 C 0.09941 0.07562 0.81943 0.0
C269 C 0.20037 0.10509 0.84961 0.0
O270 O 0.22189 0.10035 0.8389 0.0
C271 C 0.18929 0.01477 0.82325 0.0
C272 C 0.06931 0.05791 0.82183 0.0
C273 C 0.05111 0.05326 0.80837 0.0
C274 C 0.02102 0.04028 0.80918 0.0
C275 C 1.00975 0.02968 0.82355 0.0
C276 C 0.02607 0.03499 0.83741 0.0
C277 C 0.05621 0.04945 0.83661 0.0
O278 O 0.19713 0.10067 0.78555 0.0
O279 O 0.18092 0.12663 0.80781 0.0
O280 O 0.24078 0.03241 0.77899 0.0
O281 O 0.25049 0.05668 0.80012 0.0
C282 C 0.26278 0.04214 0.78819 0.0
O283 O 0.18512 0.04136 0.83079 0.0
O284 O 0.18648 0.01393 0.80801 0.0
O285 O 0.11197 0.09202 0.8308 0.0
O286 O 0.12001 0.06532 0.8091 0.0
H287 H 0.05966 0.0619 0.79727 0.0
H288 H 0.98678 0.01889 0.82413 0.0
H289 H 0.06881 0.05461 0.84725 0.0
O290 O 0.73093 0.42643 0.01848 0.0
Tb291 Tb 0.71889 0.44372 0.04134 0.0
Eu292 Eu 0.68761 0.41357 0.07388 0.0
C293 C 0.71641 0.43895 0.0065 0.0
O294 O 0.69471 0.46033 0.00902 0.0
C295 C 0.64566 0.44025 0.04471 0.0
O296 O 0.67423 0.42915 0.09781 0.0
C297 C 0.69093 0.35219 0.07239 0.0
C298 C 0.6775 0.45901 0.10125 0.0
O299 O 0.68459 0.47895 0.09012 0.0
C300 C 0.76034 0.43239 0.07064 0.0
C301 C 0.70927 0.32198 0.07372 0.0
C302 C 0.71389 0.3057 0.05966 0.0
C303 C 0.729 0.27664 0.0593 0.0
C304 C 0.74002 0.26316 0.07305 0.0
C305 C 0.73546 0.27768 0.08754 0.0
C306 C 0.71953 0.3074 0.08793 0.0
O307 O 0.66991 0.43146 0.03621 0.0
O308 O 0.64772 0.43842 0.06013 0.0
O309 O 0.74038 0.48544 0.0316 0.0
O310 O 0.70484 0.49102 0.04883 0.0
C311 C 0.72415 0.50564 0.03957 0.0
O312 O 0.73509 0.43465 0.0793 0.0
O313 O 0.75776 0.42623 0.05568 0.0
O314 O 0.68079 0.36718 0.08482 0.0
O315 O 0.69758 0.37113 0.06066 0.0
H316 H 0.70506 0.31538 0.04881 0.0
H317 H 0.75111 0.24017 0.0725 0.0
H318 H 0.71532 0.31888 0.09899 0.0
O319 O 0.35475 0.98503 0.27107 0.0
Tb320 Tb 0.32577 0.97567 0.29135 0.0
Eu321 Eu 0.36265 0.93854 0.32131 0.0
C322 C 0.35183 0.96692 0.25873 0.0
O323 O 0.33562 0.94091 0.25995 0.0
C324 C 0.32595 0.89828 0.29374 0.0
O325 O 0.35154 0.92003 0.34503 0.0
C326 C 0.42238 0.95146 0.31946 0.0
C327 C 0.322 0.91848 0.34918 0.0
O328 O 0.30029 0.92368 0.33862 0.0
C329 C 0.33537 1.00862 0.32289 0.0
C330 C 0.45213 0.96971 0.32193 0.0
C331 C 0.46983 0.97568 0.30842 0.0
C332 C 0.49949 0.98969 0.3092 0.0
C333 C 0.51065 0.99997 0.32367 0.0
C334 C 0.49511 0.99285 0.33756 0.0
C335 C 0.46546 0.97746 0.33675 0.0
O336 O 0.31623 0.92538 0.28805 0.0
O337 O 0.34527 0.89712 0.30591 0.0
O338 O 0.29338 0.99817 0.27536 0.0
O339 O 0.27658 0.98339 0.29751 0.0
C340 C 0.26889 0.99611 0.28426 0.0
O341 O 0.33361 0.98077 0.32941 0.0
O342 O 0.34323 1.01039 0.30813 0.0
O343 O 0.41042 0.93396 0.33058 0.0
O344 O 0.40153 0.96135 0.30918 0.0
H345 H 0.46125 0.96731 0.29729 0.0
H346 H 0.53306 1.01183 0.32431 0.0
H347 H 0.45342 0.97107 0.34738 0.0
O348 O 0.24469 0.43431 0.48391 0.0
Tb349 Tb 0.22641 0.45191 0.46203 0.0
Eu350 Eu 0.19098 0.41304 0.43241 0.0
C351 C 0.22839 0.41685 0.49356 0.0
O352 O 0.20117 0.40558 0.48922 0.0
C353 C 0.15106 0.44628 0.46155 0.0
O354 O 0.1712 0.42458 0.40912 0.0
C355 C 0.19873 0.3522 0.43444 0.0
C356 C 0.17173 0.45403 0.40469 0.0
O357 O 0.17973 0.4757 0.41484 0.0
C358 C 0.2618 0.43956 0.43088 0.0
C359 C 0.21663 0.32198 0.43216 0.0
C360 C 0.22468 0.30597 0.44589 0.0
C361 C 0.23745 0.27567 0.44554 0.0
C362 C 0.24356 0.26128 0.4312 0.0
C363 C 0.23603 0.27599 0.4171 0.0
C364 C 0.22216 0.30664 0.41753 0.0
O365 O 0.17741 0.44772 0.46954 0.0
O366 O 0.1506 0.43519 0.44703 0.0
O367 O 0.24915 0.49307 0.47157 0.0
O368 O 0.215 0.49915 0.4537 0.0
C369 C 0.23429 0.51344 0.46306 0.0
O370 O 0.23506 0.43731 0.42339 0.0
O371 O 0.26254 0.4348 0.446 0.0
O372 O 0.18376 0.36565 0.42283 0.0
O373 O 0.20831 0.37226 0.44518 0.0
H374 H 0.21968 0.31667 0.4571 0.0
H375 H 0.25281 0.23749 0.43099 0.0
H376 H 0.21513 0.3179 0.40677 0.0
O377 O 0.8489 0.98545 0.23424 0.0
Tb378 Tb 0.82716 0.97067 0.21264 0.0
Eu379 Eu 0.86123 0.93968 0.18046 0.0
C380 C 0.8428 0.9688 0.24678 0.0
O381 O 0.82534 0.9436 0.2454 0.0
C382 C 0.83319 0.89762 0.20884 0.0
O383 O 0.84768 0.92273 0.15691 0.0
C384 C 0.92225 0.94284 0.18278 0.0
C385 C 0.81806 0.92545 0.15314 0.0
O386 O 0.79796 0.93462 0.16383 0.0
C387 C 0.83587 1.01215 0.18213 0.0
C388 C 0.9524 0.96101 0.18156 0.0
C389 C 0.96771 0.96712 0.19575 0.0
C390 C 0.9979 0.97946 0.19605 0.0
C391 C 0.01292 0.9873 0.18217 0.0
C392 C 0.99931 0.98135 0.16762 0.0
C393 C 0.96853 0.96808 0.16729 0.0
O394 O 0.84199 0.92189 0.21724 0.0
O395 O 0.83531 0.89972 0.19349 0.0
O396 O 0.78757 0.98567 0.22658 0.0
O397 O 0.77877 0.9592 0.20599 0.0
C398 C 0.76601 0.97319 0.21796 0.0
O399 O 0.84025 0.98681 0.17362 0.0
O400 O 0.83749 1.01109 0.19749 0.0
O401 O 0.90801 0.93237 0.17024 0.0
O402 O 0.90277 0.94982 0.19425 0.0
H403 H 0.95697 0.96027 0.20669 0.0
H404 H 0.03643 0.99687 0.18275 0.0
H405 H 0.95795 0.96224 0.1562 0.0
O406 O 0.28141 0.5938 0.98436 0.0
Tb407 Tb 0.30405 0.57721 0.96338 0.0
Eu408 Eu 0.33506 0.61238 0.93118 0.0
C409 C 0.29283 0.61555 0.99357 0.0
O410 O 0.31631 0.6331 0.98898 0.0
C411 C 0.37618 0.58518 0.96036 0.0
O412 O 0.35467 0.59531 0.90857 0.0
C413 C 0.33427 0.67393 0.93221 0.0
C414 C 0.34632 0.56707 0.90413 0.0
O415 O 0.32919 0.54978 0.91347 0.0
C416 C 0.26216 0.58688 0.9329 0.0
C417 C 0.31542 0.70395 0.93156 0.0
C418 C 0.31006 0.71898 0.94591 0.0
C419 C 0.29469 0.7479 0.94672 0.0
C420 C 0.28426 0.76245 0.93311 0.0
C421 C 0.28934 0.7491 0.91838 0.0
C422 C 0.30553 0.7196 0.91757 0.0
O423 O 0.35155 0.59379 0.96859 0.0
O424 O 0.37443 0.5869 0.94496 0.0
O425 O 0.29566 0.53744 0.97834 0.0
O426 O 0.31501 0.52895 0.95585 0.0
C427 C 0.30571 0.51601 0.96884 0.0
O428 O 0.28697 0.59374 0.92446 0.0
O429 O 0.26339 0.5858 0.94825 0.0
O430 O 0.34075 0.65813 0.91944 0.0
O431 O 0.33029 0.65557 0.94446 0.0
H432 H 0.3185 0.70847 0.95663 0.0
H433 H 0.27321 0.7854 0.93398 0.0
H434 H 0.31027 0.70909 0.90632 0.0
O435 O 0.67215 0.04141 0.73477 0.0
Tb436 Tb 0.69323 0.05625 0.71303 0.0
Eu437 Eu 0.65957 0.08758 0.68067 0.0
C438 C 0.67925 0.05753 0.74735 0.0
O439 O 0.69751 0.08214 0.74597 0.0
C440 C 0.68744 0.12932 0.70938 0.0
O441 O 0.67258 0.10244 0.65663 0.0
C442 C 0.59866 0.08233 0.683 0.0
C443 C 0.70234 0.10109 0.6529 0.0
O444 O 0.72294 0.09463 0.66383 0.0
C445 C 0.68523 0.01547 0.68251 0.0
C446 C 0.56981 0.06246 0.68079 0.0
C447 C 0.55364 0.05407 0.69447 0.0
C448 C 0.52513 0.03774 0.69393 0.0
C449 C 0.51386 0.02771 0.67944 0.0
C450 C 0.52691 0.03832 0.66547 0.0
C451 C 0.55548 0.05563 0.66608 0.0
O452 O 0.67858 0.10496 0.71772 0.0
O453 O 0.68487 0.12762 0.69401 0.0
O454 O 0.73333 0.04062 0.72638 0.0
O455 O 0.74126 0.06849 0.70616 0.0
C456 C 0.75449 0.0539 0.71781 0.0
O457 O 0.68201 0.04099 0.67402 0.0
O458 O 0.682 0.01635 0.69778 0.0
O459 O 0.61251 0.0954 0.67095 0.0
O460 O 0.61845 0.07426 0.69416 0.0
H461 H 0.56241 0.06226 0.70559 0.0
H462 H 0.4927 0.01374 0.6789 0.0
H463 H 0.56571 0.06445 0.65541 0.0
H464 H 0.25899 0.1123 0.86168 0.0
H465 H 0.27409 0.111 0.88912 0.0
H466 H 0.17724 0.0994 0.90228 0.0
H467 H 0.16189 0.1015 0.87491 0.0
H468 H 0.20359 0.14006 0.92053 0.0
H469 H 0.22879 0.03735 0.90318 0.0
H470 H 0.25193 0.99632 0.88642 0.0
H471 H 0.34417 0.02969 0.89725 0.0
H472 H 0.32157 0.07123 0.91391 0.0
H473 H 0.23955 0.09747 0.99891 0.0
H474 H 0.22121 0.09699 0.97198 0.0
H475 H 0.31477 0.11717 0.95596 0.0
H476 H 0.33349 0.11721 0.98286 0.0
H477 H 0.28767 0.06909 0.93958 0.0
H478 H 0.25774 0.17457 0.95638 0.0
H479 H 0.231 0.21268 0.97357 0.0
H480 H 0.14277 0.16831 0.9643 0.0
H481 H 0.16904 0.12982 0.94716 0.0
C482 C 0.2409 0.10975 0.87043 0.0
C483 C 0.20926 0.1071 0.86616 0.0
C484 C 0.24958 0.10869 0.88609 0.0
C485 C 0.22684 0.10454 0.89771 0.0
C486 C 0.19517 0.10252 0.89348 0.0
C487 C 0.18644 0.10384 0.87784 0.0
C488 C 0.23602 0.10321 0.91432 0.0
C489 C 0.22167 0.12421 0.92473 0.0
C490 C 0.25968 0.08257 0.91977 0.0
C491 C 0.27344 0.05764 0.9097 0.0
C492 C 0.254 0.03614 0.90189 0.0
C493 C 0.26702 1.01274 0.89242 0.0
C494 C 0.29949 1.01044 0.89074 0.0
C495 C 0.31901 0.03152 0.89855 0.0
C496 C 0.30611 0.05498 0.90802 0.0
C497 C 0.25619 0.10221 0.98969 0.0
C498 C 0.28796 0.10756 0.99305 0.0
C499 C 0.24565 0.10189 0.9743 0.0
C500 C 0.26661 0.10722 0.96199 0.0
C501 C 0.29824 0.11298 0.9653 0.0
C502 C 0.30883 0.11323 0.9807 0.0
C503 C 0.25567 0.10641 0.94564 0.0
C504 C 0.26959 0.08487 0.93532 0.0
C505 C 0.23111 0.12602 0.94032 0.0
C506 C 0.21538 0.1492 0.95061 0.0
C507 C 0.23267 0.17284 0.95809 0.0
C508 C 0.2176 0.19453 0.9678 0.0
C509 C 0.18523 0.19288 0.97005 0.0
C510 C 0.16784 0.16957 0.96256 0.0
C511 C 0.1828 0.14785 0.95283 0.0
H512 H 0.17361 0.20969 0.97757 0.0
H513 H 0.30953 0.99229 0.88342 0.0
H514 H 0.66849 0.51847 0.11216 0.0
H515 H 0.66597 0.53521 0.13936 0.0
H516 H 0.68467 0.44023 0.15429 0.0
H517 H 0.68559 0.42299 0.12712 0.0
H518 H 0.63253 0.46645 0.1677 0.0
H519 H 0.74964 0.50211 0.17638 0.0
H520 H 0.79743 0.528 0.16659 0.0
H521 H 0.74121 0.59775 0.14358 0.0
H522 H 0.69324 0.57326 0.154 0.0
H523 H 0.66211 0.49449 0.24905 0.0
H524 H 0.66442 0.47838 0.22171 0.0
H525 H 0.6416 0.57288 0.20747 0.0
H526 H 0.63897 0.58921 0.23474 0.0
H527 H 0.69719 0.54735 0.19389 0.0
H528 H 0.58878 0.51939 0.20252 0.0
H529 H 0.54568 0.49255 0.21618 0.0
H530 H 0.58853 0.40309 0.20676 0.0
H531 H 0.63213 0.42945 0.19323 0.0
C532 C 0.6723 0.50123 0.12126 0.0
C533 C 0.67682 0.4694 0.11758 0.0
C534 C 0.6715 0.51095 0.13679 0.0
C535 C 0.67614 0.48916 0.14883 0.0
C536 C 0.68141 0.45747 0.14514 0.0
C537 C 0.68162 0.44763 0.12964 0.0
C538 C 0.67122 0.49849 0.16522 0.0
C539 C 0.64682 0.484 0.17346 0.0
C540 C 0.68967 0.5215 0.17269 0.0
C541 C 0.7179 0.53518 0.16544 0.0
C542 C 0.74752 0.5228 0.1691 0.0
C543 C 0.77464 0.53753 0.16367 0.0
C544 C 0.77235 0.56432 0.15433 0.0
C545 C 0.74294 0.5768 0.15067 0.0
C546 C 0.71578 0.56259 0.1564 0.0
C547 C 0.65694 0.51169 0.24011 0.0
C548 C 0.65044 0.54313 0.24403 0.0
C549 C 0.65829 0.50245 0.22452 0.0
C550 C 0.6533 0.52453 0.21266 0.0
C551 C 0.64558 0.5556 0.21652 0.0
C552 C 0.64388 0.56479 0.2321 0.0
C553 C 0.65816 0.51573 0.19622 0.0
C554 C 0.68272 0.53003 0.18806 0.0
C555 C 0.64008 0.49228 0.1889 0.0
C556 C 0.61385 0.47641 0.197 0.0
C557 C 0.58915 0.49401 0.20348 0.0
C558 C 0.5646 0.47888 0.21117 0.0
C559 C 0.56441 0.44614 0.21237 0.0
C560 C 0.58873 0.42845 0.20584 0.0
C561 C 0.61335 0.44347 0.19815 0.0
H562 H 0.54538 0.43447 0.21833 0.0
H563 H 0.79336 0.57546 0.14998 0.0
H564 H 0.26332 0.91706 0.36177 0.0
H565 H 0.24932 0.91919 0.38933 0.0
H566 H 0.34726 0.91982 0.40173 0.0
H567 H 0.36148 0.91712 0.3742 0.0
H568 H 0.31661 0.88084 0.41968 0.0
H569 H 0.30355 0.98677 0.40411 0.0
H570 H 0.28532 0.03169 0.38835 0.0
H571 H 0.18987 1.00923 0.39924 0.0
H572 H 0.20746 0.96389 0.4149 0.0
H573 H 0.28323 0.92134 0.49913 0.0
H574 H 0.30287 0.92159 0.47236 0.0
H575 H 0.20847 0.91266 0.45508 0.0
H576 H 0.18858 0.91264 0.48174 0.0
H577 H 0.24132 0.95965 0.44025 0.0
H578 H 0.25825 0.85013 0.45467 0.0
H579 H 0.2799 0.80776 0.47111 0.0
H580 H 0.37302 0.84187 0.46298 0.0
H581 H 0.35187 0.88462 0.44662 0.0
C582 C 0.28189 0.91738 0.37036 0.0
C583 C 0.31351 0.91682 0.36581 0.0
C584 C 0.27385 0.91895 0.3861 0.0
C585 C 0.29726 0.92023 0.39756 0.0
C586 C 0.32884 0.919 0.39306 0.0
C587 C 0.33691 0.91732 0.37733 0.0
C588 C 0.2887 0.92169 0.41425 0.0
C589 C 0.30053 0.89841 0.42422 0.0
C590 C 0.26764 0.94456 0.42014 0.0
C591 C 0.25685 0.97167 0.41058 0.0
C592 C 0.27865 0.99119 0.40303 0.0
C593 C 0.26844 0.0168 0.39414 0.0
C594 C 0.23646 0.02326 0.39277 0.0
C595 C 0.21464 1.00417 0.40031 0.0
C596 C 0.22472 0.97853 0.4092 0.0
C597 C 0.26667 0.91895 0.48965 0.0
C598 C 0.23433 0.91691 0.49258 0.0
C599 C 0.27794 0.91918 0.47436 0.0
C600 C 0.25709 0.91717 0.46175 0.0
C601 C 0.22491 0.91441 0.46465 0.0
C602 C 0.21363 0.91416 0.47991 0.0
C603 C 0.26865 0.91835 0.4455 0.0
C604 C 0.25749 0.94224 0.43566 0.0
C605 C 0.29081 0.89646 0.43978 0.0
C606 C 0.30346 0.8707 0.44956 0.0
C607 C 0.28332 0.8487 0.45648 0.0
C608 C 0.29551 0.8246 0.46577 0.0
C609 C 0.32781 0.82217 0.46812 0.0
C610 C 0.34801 0.84379 0.46117 0.0
C611 C 0.33594 0.86793 0.45188 0.0
H612 H 0.3372 0.8035 0.47531 0.0
H613 H 0.22861 0.04308 0.38588 0.0
H614 H 0.85364 0.5136 0.61146 0.0
H615 H 0.85223 0.49833 0.63884 0.0
H616 H 0.84993 0.59599 0.65238 0.0
H617 H 0.85217 0.61151 0.62502 0.0
H618 H 0.89153 0.56469 0.66894 0.0
H619 H 0.77783 0.54889 0.66141 0.0
H620 H 0.73027 0.52878 0.64855 0.0
H621 H 0.771 0.43665 0.64603 0.0
H622 H 0.81825 0.45587 0.65959 0.0
H623 H 0.85391 0.52928 0.74864 0.0
H624 H 0.85836 0.54961 0.72207 0.0
H625 H 0.85747 0.45474 0.70418 0.0
H626 H 0.85157 0.43452 0.73062 0.0
H627 H 0.81529 0.4883 0.69025 0.0
H628 H 0.92449 0.50407 0.7033 0.0
H629 H 0.96865 0.52475 0.71869 0.0
H630 H 0.93633 0.61908 0.71078 0.0
H631 H 0.8918 0.59894 0.69548 0.0
C632 C 0.85298 0.53182 0.62027 0.0
C633 C 0.85326 0.56372 0.61612 0.0
C634 C 0.85171 0.52307 0.63589 0.0
C635 C 0.85031 0.54605 0.64759 0.0
C636 C 0.8508 0.57793 0.64349 0.0
C637 C 0.8523 0.58672 0.62787 0.0
C638 C 0.85065 0.53674 0.66413 0.0
C639 C 0.87461 0.54832 0.67371 0.0
C640 C 0.82895 0.51506 0.67023 0.0
C641 C 0.80165 0.50389 0.66123 0.0
C642 C 0.77674 0.52444 0.65794 0.0
C643 C 0.7498 0.51319 0.6506 0.0
C644 C 0.7478 0.48164 0.64621 0.0
C645 C 0.77263 0.46113 0.64934 0.0
C646 C 0.79937 0.4721 0.65698 0.0
C647 C 0.8554 0.51283 0.73903 0.0
C648 C 0.85226 0.48041 0.74156 0.0
C649 C 0.85801 0.52443 0.72388 0.0
C650 C 0.85831 0.50366 0.71117 0.0
C651 C 0.85708 0.47116 0.71384 0.0
C652 C 0.85381 0.45964 0.72891 0.0
C653 C 0.85674 0.51554 0.69503 0.0
C654 C 0.83232 0.50464 0.68555 0.0
C655 C 0.87803 0.53792 0.6891 0.0
C656 C 0.90466 0.54998 0.69839 0.0
C657 C 0.92666 0.52921 0.70496 0.0
C658 C 0.95179 0.54083 0.71364 0.0
C659 C 0.95524 0.5732 0.71575 0.0
C660 C 0.93361 0.59401 0.70916 0.0
C661 C 0.90845 0.58251 0.70047 0.0
H662 H 0.97472 0.58216 0.72246 0.0
H663 H 0.72691 0.47305 0.6405 0.0
H664 H 0.68321 0.94113 0.02119 0.0
H665 H 0.70167 0.9353 0.04794 0.0
H666 H 0.7938 0.91083 0.031 0.0
H667 H 0.77508 0.91555 0.00414 0.0
H668 H 0.78083 0.87785 0.05608 0.0
H669 H 0.77637 0.98615 0.04224 0.0
H670 H 0.75287 0.03512 0.03217 0.0
H671 H 0.68371 0.03297 0.06848 0.0
H672 H 0.70653 0.98374 0.07865 0.0
H673 H 0.85543 0.9153 0.12786 0.0
H674 H 0.83993 0.91595 0.10049 0.0
H675 H 0.74375 0.93175 0.11395 0.0
H676 H 0.75911 0.93177 0.14137 0.0
H677 H 0.76258 0.9704 0.09018 0.0
H678 H 0.76876 0.85909 0.10298 0.0
H679 H 0.79707 0.81303 0.11338 0.0
H680 H 0.86867 0.82457 0.07873 0.0
H681 H 0.84096 0.87096 0.06824 0.0
C682 C 0.70724 0.93393 0.02318 0.0
C683 C 0.72783 0.92909 0.01066 0.0
C684 C 0.7178 0.93081 0.03845 0.0
C685 C 0.74932 0.92354 0.04142 0.0
C686 C 0.76945 0.91672 0.02893 0.0
C687 C 0.75872 0.91935 0.01361 0.0
C688 C 0.76147 0.92464 0.05752 0.0
C689 C 0.77714 0.89821 0.06347 0.0
C690 C 0.75672 0.9513 0.06715 0.0
C691 C 0.743 0.98105 0.06112 0.0
C692 C 0.75601 0.99599 0.04801 0.0
C693 C 0.74284 0.02382 0.0423 0.0
C694 C 0.71678 0.03711 0.04967 0.0
C695 C 0.7039 0.02264 0.06279 0.0
C696 C 0.71695 0.99478 0.06853 0.0
C697 C 0.83093 0.91862 0.12501 0.0
C698 C 0.80841 0.92319 0.13674 0.0
C699 C 0.82215 0.91905 0.10938 0.0
C700 C 0.79069 0.92361 0.10527 0.0
C701 C 0.76816 0.92817 0.11695 0.0
C702 C 0.77694 0.92792 0.13258 0.0
C703 C 0.78108 0.92335 0.08878 0.0
C704 C 0.76615 0.95006 0.08275 0.0
C705 C 0.78699 0.89724 0.07902 0.0
C706 C 0.80287 0.86853 0.08487 0.0
C707 C 0.79055 0.85179 0.09759 0.0
C708 C 0.8065 0.82566 0.10351 0.0
C709 C 0.83466 0.8159 0.09673 0.0
C710 C 0.84684 0.83215 0.08396 0.0
C711 C 0.831 0.85832 0.078 0.0
H712 H 0.84703 0.79572 0.10136 0.0
H713 H 0.70659 0.05864 0.04522 0.0
H714 H 0.39871 0.55368 0.88742 0.0
H715 H 0.40115 0.53908 0.85979 0.0
H716 H 0.30063 0.54979 0.85638 0.0
H717 H 0.29824 0.56197 0.8842 0.0
H718 H 0.31409 0.50309 0.84086 0.0
H719 H 0.35502 0.60564 0.84135 0.0
H720 H 0.3879 0.65027 0.84942 0.0
H721 H 0.47042 0.6002 0.83492 0.0
H722 H 0.43803 0.55508 0.82693 0.0
H723 H 0.31467 0.51758 0.75795 0.0
H724 H 0.31313 0.53148 0.78548 0.0
H725 H 0.40145 0.48427 0.79271 0.0
H726 H 0.40316 0.46978 0.76501 0.0
H727 H 0.39332 0.54986 0.80558 0.0
H728 H 0.34123 0.44657 0.80431 0.0
H729 H 0.30071 0.41064 0.79427 0.0
H730 H 0.22885 0.47604 0.80778 0.0
H731 H 0.26896 0.51241 0.8178 0.0
C732 C 0.3773 0.55268 0.88067 0.0
C733 C 0.34834 0.55869 0.88769 0.0
C734 C 0.37863 0.54467 0.86491 0.0
C735 C 0.35111 0.54384 0.85588 0.0
C736 C 0.32217 0.5501 0.86305 0.0
C737 C 0.32079 0.55714 0.87888 0.0
C738 C 0.35238 0.53594 0.83906 0.0
C739 C 0.33126 0.51365 0.83317 0.0
C740 C 0.37447 0.54985 0.82888 0.0
C741 C 0.39413 0.57685 0.83369 0.0
C742 C 0.3802 0.60404 0.83999 0.0
C743 C 0.39874 0.62945 0.84453 0.0
C744 C 0.43124 0.62804 0.84272 0.0
C745 C 0.44525 0.60124 0.83634 0.0
C746 C 0.42681 0.57575 0.83178 0.0
C747 C 0.33397 0.51032 0.76532 0.0
C748 C 0.35919 0.4927 0.7593 0.0
C749 C 0.33289 0.51814 0.78106 0.0
C750 C 0.35707 0.50871 0.79103 0.0
C751 C 0.38259 0.49165 0.78509 0.0
C752 C 0.38352 0.48342 0.76932 0.0
C753 C 0.35556 0.51683 0.80768 0.0
C754 C 0.37644 0.53931 0.81344 0.0
C755 C 0.33216 0.50442 0.81753 0.0
C756 C 0.30811 0.48225 0.81172 0.0
C757 C 0.3168 0.45332 0.80507 0.0
C758 C 0.2939 0.43287 0.79941 0.0
C759 C 0.26223 0.44107 0.80038 0.0
C760 C 0.25338 0.46969 0.80706 0.0
C761 C 0.27618 0.49019 0.81276 0.0
H762 H 0.24455 0.42524 0.79595 0.0
H763 H 0.44556 0.64773 0.84624 0.0
H764 H 0.6649 0.09949 0.62716 0.0
H765 H 0.68146 0.09926 0.59987 0.0
H766 H 0.77807 0.10476 0.61427 0.0
H767 H 0.76179 0.10483 0.64158 0.0
H768 H 0.7614 0.14899 0.59223 0.0
H769 H 0.75324 0.03848 0.60044 0.0
H770 H 0.72867 0.98836 0.60793 0.0
H771 H 0.65767 1.00185 0.57315 0.0
H772 H 0.68155 0.05231 0.56558 0.0
H773 H 0.83611 0.11949 0.51995 0.0
H774 H 0.8179 0.11845 0.54688 0.0
H775 H 0.72267 0.10773 0.53105 0.0
H776 H 0.7407 0.10833 0.504 0.0
H777 H 0.73765 0.06533 0.55379 0.0
H778 H 0.7469 0.17692 0.54605 0.0
H779 H 0.77321 0.2263 0.5388 0.0
H780 H 0.84396 0.20939 0.57338 0.0
H781 H 0.8183 0.1597 0.58068 0.0
C782 C 0.68966 0.10078 0.62451 0.0
C783 C 0.71208 0.10248 0.63647 0.0
C784 C 0.69906 0.1003 0.60894 0.0
C785 C 0.73095 0.10172 0.60514 0.0
C786 C 0.75335 0.10354 0.61704 0.0
C787 C 0.74401 0.1037 0.6326 0.0
C788 C 0.74089 0.10341 0.58872 0.0
C789 C 0.75659 0.13052 0.58385 0.0
C790 C 0.73384 0.07953 0.57782 0.0
C791 C 0.719 0.04945 0.58256 0.0
C792 C 0.73216 0.031 0.59451 0.0
C793 C 0.71842 1.00245 0.59874 0.0
C794 C 0.69159 0.99197 0.59105 0.0
C795 C 0.67844 1.01002 0.57911 0.0
C796 C 0.69208 0.03859 0.57484 0.0
C797 C 0.81122 0.11743 0.52216 0.0
C798 C 0.78985 0.11406 0.50982 0.0
C799 C 0.80086 0.1168 0.53757 0.0
C800 C 0.76893 0.11308 0.54094 0.0
C801 C 0.74742 0.11053 0.52867 0.0
C802 C 0.75776 0.11114 0.51323 0.0
C803 C 0.75821 0.11099 0.5573 0.0
C804 C 0.74234 0.08382 0.56216 0.0
C805 C 0.76525 0.13471 0.56827 0.0
C806 C 0.78085 0.16445 0.56379 0.0
C807 C 0.76823 0.18359 0.552 0.0
C808 C 0.78299 0.21167 0.54791 0.0
C809 C 0.81028 0.22094 0.5556 0.0
C810 C 0.82285 0.20217 0.56741 0.0
C811 C 0.80819 0.17406 0.57154 0.0
H812 H 0.82166 0.2427 0.55242 0.0
H813 H 0.68105 0.96983 0.59431 0.0
H814 H 0.17006 0.49107 0.25425 0.0
H815 H 0.17082 0.46932 0.2807 0.0
H816 H 0.16323 0.56285 0.29975 0.0
H817 H 0.16239 0.58472 0.27353 0.0
H818 H 0.21312 0.52652 0.31226 0.0
H819 H 0.10103 0.51631 0.30022 0.0
H820 H 0.05843 0.49649 0.28348 0.0
H821 H 0.09029 0.4018 0.29074 0.0
H822 H 0.13325 0.4211 0.30737 0.0
H823 H 0.17452 0.51204 0.39126 0.0
H824 H 0.17644 0.52402 0.36346 0.0
H825 H 0.16815 0.42531 0.3527 0.0
H826 H 0.16551 0.41318 0.38044 0.0
H827 H 0.13133 0.45759 0.33478 0.0
H828 H 0.23812 0.46261 0.34846 0.0
H829 H 0.28595 0.4772 0.36279 0.0
H830 H 0.27105 0.57417 0.35111 0.0
H831 H 0.22287 0.56026 0.33687 0.0
C832 C 0.16794 0.50691 0.26407 0.0
C833 C 0.16632 0.5396 0.26184 0.0
C834 C 0.16856 0.49449 0.27914 0.0
C835 C 0.16741 0.5146 0.29209 0.0
C836 C 0.16451 0.54706 0.28986 0.0
C837 C 0.16382 0.55945 0.27487 0.0
C838 C 0.16978 0.50222 0.30807 0.0
C839 C 0.19517 0.51168 0.3173 0.0
C840 C 0.14712 0.48167 0.31427 0.0
C841 C 0.12049 0.47015 0.30486 0.0
C842 C 0.09896 0.49128 0.29819 0.0
C843 C 0.07477 0.48014 0.28874 0.0
C844 C 0.07183 0.44793 0.28597 0.0
C845 C 0.09271 0.42674 0.29285 0.0
C846 C 0.11693 0.43776 0.3023 0.0
C847 C 0.17282 0.49292 0.38297 0.0
C848 C 0.16976 0.4617 0.38801 0.0
C849 C 0.1743 0.49976 0.36711 0.0
C850 C 0.17303 0.47546 0.35606 0.0
C851 C 0.16932 0.44435 0.36106 0.0
C852 C 0.16767 0.43751 0.37691 0.0
C853 C 0.17416 0.48277 0.33927 0.0
C854 C 0.14952 0.47225 0.32983 0.0
C855 C 0.19804 0.50171 0.3328 0.0
C856 C 0.22663 0.51039 0.3417 0.0
C857 C 0.24481 0.4871 0.34908 0.0
C858 C 0.27206 0.49523 0.35716 0.0
C859 C 0.2815 0.52659 0.35788 0.0
C860 C 0.26369 0.54988 0.35054 0.0
C861 C 0.23642 0.54188 0.34246 0.0
H862 H 0.30265 0.53282 0.36409 0.0
H863 H 0.0535 0.43936 0.27845 0.0
H864 H 0.76286 0.57828 0.36675 0.0
H865 H 0.776 0.57981 0.39438 0.0
H866 H 0.68096 0.6069 0.40531 0.0
H867 H 0.66784 0.60618 0.37763 0.0
H868 H 0.71818 0.64425 0.41918 0.0
H869 H 0.71061 0.5324 0.41932 0.0
H870 H 0.71821 0.47647 0.41262 0.0
H871 H 0.81794 0.488 0.41507 0.0
H872 H 0.81089 0.54388 0.42203 0.0
H873 H 0.74303 0.61983 0.50162 0.0
H874 H 0.72483 0.61877 0.4746 0.0
H875 H 0.8205 0.61486 0.45857 0.0
H876 H 0.83897 0.61626 0.48552 0.0
H877 H 0.78018 0.56478 0.44816 0.0
H878 H 0.7817 0.6786 0.45166 0.0
H879 H 0.76745 0.72968 0.46332 0.0
H880 H 0.66994 0.70963 0.45642 0.0
H881 H 0.6836 0.65825 0.4449 0.0
C882 C 0.74473 0.58454 0.37503 0.0
C883 C 0.71446 0.59267 0.37 0.0
C884 C 0.75217 0.58495 0.39086 0.0
C885 C 0.7294 0.59322 0.40194 0.0
C886 C 0.69892 0.6005 0.39695 0.0
C887 C 0.6915 0.60025 0.38112 0.0
C888 C 0.73832 0.59765 0.41846 0.0
C889 C 0.73126 0.62657 0.42558 0.0
C890 C 0.75571 0.57487 0.42681 0.0
C891 C 0.76023 0.54233 0.42105 0.0
C892 C 0.73416 0.52308 0.41824 0.0
C893 C 0.73836 0.49131 0.4146 0.0
C894 C 0.76854 0.47864 0.41355 0.0
C895 C 0.79459 0.49779 0.41599 0.0
C896 C 0.7905 0.52947 0.41984 0.0
C897 C 0.7602 0.6195 0.49233 0.0
C898 C 0.7924 0.618 0.49567 0.0
C899 C 0.74977 0.61891 0.47693 0.0
C900 C 0.77138 0.61662 0.46469 0.0
C901 C 0.80355 0.61662 0.46793 0.0
C902 C 0.81402 0.61762 0.48332 0.0
C903 C 0.76041 0.61136 0.44862 0.0
C904 C 0.76708 0.5823 0.44166 0.0
C905 C 0.74186 0.6336 0.44063 0.0
C906 C 0.73367 0.66447 0.44756 0.0
C907 C 0.75721 0.68497 0.45276 0.0
C908 C 0.74924 0.714 0.45931 0.0
C909 C 0.71781 0.72286 0.46065 0.0
C910 C 0.69427 0.70273 0.4554 0.0
C911 C 0.70212 0.67367 0.44884 0.0
H912 H 0.71169 0.74535 0.46571 0.0
H913 H 0.77174 0.45405 0.41072 0.0
H914 H 0.12599 0.99943 0.61447 0.0
H915 H 0.12726 0.01497 0.64197 0.0
H916 H 0.20024 0.94656 0.65056 0.0
H917 H 0.1976 0.92981 0.62348 0.0
H918 H 0.1637 0.9447 0.67324 0.0
H919 H 0.21517 0.02768 0.64734 0.0
H920 H 0.22268 0.06865 0.6274 0.0
H921 H 0.14218 0.11851 0.6446 0.0
H922 H 0.13394 0.0776 0.66455 0.0
H923 H 0.20502 1.00684 0.74692 0.0
H924 H 0.2064 0.99187 0.71958 0.0
H925 H 0.12586 0.05071 0.71059 0.0
H926 H 0.12537 0.06715 0.738 0.0
H927 H 0.16923 0.05714 0.68823 0.0
H928 H 0.1224 0.9662 0.71522 0.0
H929 H 0.12417 0.92425 0.73506 0.0
H930 H 0.20982 0.88896 0.71536 0.0
H931 H 0.20869 0.93083 0.6955 0.0
C932 C 0.14203 0.98762 0.62232 0.0
C933 C 0.16149 0.96334 0.61695 0.0
C934 C 0.14299 0.99665 0.63797 0.0
C935 C 0.16424 0.98229 0.6483 0.0
C936 C 0.18356 0.95791 0.64287 0.0
C937 C 0.182 0.94834 0.62738 0.0
C938 C 0.16619 0.99237 0.66481 0.0
C939 C 0.16523 0.9693 0.67647 0.0
C940 C 0.16857 0.02439 0.6691 0.0
C941 C 0.17379 0.04945 0.65736 0.0
C942 C 0.19898 0.04732 0.64683 0.0
C943 C 0.20338 0.07053 0.63553 0.0
C944 C 0.18288 0.09613 0.63471 0.0
C945 C 0.15802 0.09865 0.64525 0.0
C946 C 0.15351 0.07548 0.65657 0.0
C947 C 0.18732 0.01634 0.73919 0.0
C948 C 0.1647 0.03777 0.74465 0.0
C949 C 0.18817 1.00774 0.72354 0.0
C950 C 0.1658 0.01959 0.7131 0.0
C951 C 0.14324 0.04113 0.71849 0.0
C952 C 0.14281 0.05033 0.73413 0.0
C953 C 0.16591 1.00952 0.69657 0.0
C954 C 0.16753 0.0326 0.68492 0.0
C955 C 0.16551 0.97739 0.69227 0.0
C956 C 0.1655 0.9517 0.70394 0.0
C957 C 0.1416 0.94949 0.71514 0.0
C958 C 0.14251 0.92575 0.72639 0.0
C959 C 0.16711 0.90398 0.72648 0.0
C960 C 0.19078 0.90581 0.71528 0.0
C961 C 0.18997 0.9295 0.70401 0.0
H962 H 0.16781 0.88568 0.73523 0.0
H963 H 0.18628 0.11405 0.62594 0.0
H964 H 0.69014 0.46024 0.97962 0.0
H965 H 0.70959 0.45286 0.95317 0.0
H966 H 0.78497 0.39494 0.97057 0.0
H967 H 0.76583 0.40247 0.99721 0.0
H968 H 0.80478 0.44173 0.95037 0.0
H969 H 0.72508 0.36109 0.95134 0.0
H970 H 0.67189 0.34015 0.95536 0.0
H971 H 0.63535 0.40535 0.92174 0.0
H972 H 0.68826 0.42691 0.91765 0.0
H973 H 0.85472 0.396 0.87419 0.0
H974 H 0.83824 0.39678 0.90151 0.0
H975 H 0.75319 0.44528 0.88851 0.0
H976 H 0.76896 0.4437 0.86127 0.0
H977 H 0.74031 0.39958 0.90714 0.0
H978 H 0.81465 0.48341 0.90666 0.0
H979 H 0.86535 0.50967 0.90253 0.0
H980 H 0.90942 0.44603 0.93462 0.0
H981 H 0.85902 0.41913 0.93881 0.0
C982 C 0.71067 0.44566 0.97783 0.0
C983 C 0.72651 0.43196 0.99048 0.0
C984 C 0.72168 0.4414 0.96271 0.0
C985 C 0.74855 0.4232 0.95997 0.0
C986 C 0.76415 0.40903 0.97252 0.0
C987 C 0.75311 0.41324 0.98768 0.0
C988 C 0.761 0.42022 0.94403 0.0
C989 C 0.79102 0.43196 0.94092 0.0
C990 C 0.74243 0.40856 0.93172 0.0
C991 C 0.71059 0.39574 0.93428 0.0
C992 C 0.70566 0.37112 0.9449 0.0
C993 C 0.67557 0.35911 0.94717 0.0
C994 C 0.65025 0.37145 0.93883 0.0
C995 C 0.65497 0.39582 0.92819 0.0
C996 C 0.685 0.4079 0.92588 0.0
C997 C 0.83241 0.40657 0.87719 0.0
C998 C 0.81294 0.41946 0.86563 0.0
C999 C 0.8232 0.40731 0.89278 0.0
C1000 C 0.79466 0.42135 0.89701 0.0
C1001 C 0.77527 0.43423 0.88546 0.0
C1002 C 0.78425 0.43317 0.8699 0.0
C1003 C 0.78402 0.42143 0.91336 0.0
C1004 C 0.75432 0.40909 0.91657 0.0
C1005 C 0.80261 0.43329 0.92566 0.0
C1006 C 0.83312 0.44896 0.92288 0.0
C1007 C 0.83521 0.47476 0.91269 0.0
C1008 C 0.86389 0.48984 0.91038 0.0
C1009 C 0.89062 0.47945 0.91826 0.0
C1010 C 0.88871 0.454 0.92849 0.0
C1011 C 0.86009 0.43884 0.93085 0.0
H1012 H 0.91278 0.49119 0.91648 0.0
H1013 H 0.62698 0.3621 0.94059 0.0
H1014 H 0.36757 0.10839 0.1249 0.0
H1015 H 0.3683 0.09517 0.15265 0.0
H1016 H 0.34061 1.00029 0.14179 0.0
H1017 H 0.33975 1.01323 0.11408 0.0
H1018 H 0.30708 0.02681 0.1668 0.0
H1019 H 0.41444 0.0137 0.14945 0.0
H1020 H 0.46224 0.03277 0.13644 0.0
H1021 H 0.4688 0.10837 0.16942 0.0
H1022 H 0.42073 0.08994 0.1825 0.0
H1023 H 0.34627 0.93587 0.23118 0.0
H1024 H 0.34787 0.95842 0.20512 0.0
H1025 H 0.37501 0.04789 0.22434 0.0
H1026 H 0.37325 0.02553 0.25067 0.0
H1027 H 0.40695 0.03125 0.19636 0.0
H1028 H 0.30299 0.04033 0.21586 0.0
H1029 H 0.25397 0.02285 0.22824 0.0
H1030 H 0.23908 0.95699 0.1911 0.0
H1031 H 0.28838 0.9736 0.17864 0.0
C1032 C 0.36185 0.08466 0.12841 0.0
C1033 C 0.35392 0.06175 0.1173 0.0
C1034 C 0.36214 0.07721 0.14425 0.0
C1035 C 0.35453 0.04677 0.14921 0.0
C1036 C 0.34643 0.02394 0.13816 0.0
C1037 C 0.34628 0.0313 0.12234 0.0
C1038 C 0.35612 0.03822 0.16587 0.0
C1039 C 0.3289 0.02753 0.17327 0.0
C1040 C 0.38443 0.04019 0.17434 0.0
C1041 C 0.41394 0.05058 0.16688 0.0
C1042 C 0.42605 0.03444 0.1539 0.0
C1043 C 0.45316 0.04513 0.14651 0.0
C1044 C 0.46852 0.0718 0.15209 0.0
C1045 C 0.45687 0.08772 0.16512 0.0
C1046 C 0.42972 0.07714 0.17253 0.0
C1047 C 0.35312 0.96022 0.22991 0.0
C1048 C 0.35932 0.979 0.24303 0.0
C1049 C 0.35385 0.97308 0.215 0.0
C1050 C 0.3609 1.00493 0.21289 0.0
C1051 C 0.36928 0.02329 0.2258 0.0
C1052 C 0.36837 1.01044 0.24081 0.0
C1053 C 0.35807 0.01899 0.19722 0.0
C1054 C 0.38501 0.03081 0.18999 0.0
C1055 C 0.3294 0.01816 0.18893 0.0
C1056 C 0.29965 1.008 0.19639 0.0
C1057 C 0.28948 0.02187 0.21041 0.0
C1058 C 0.2616 1.01215 0.21744 0.0
C1059 C 0.24346 0.98876 0.21049 0.0
C1060 C 0.25317 0.97508 0.19648 0.0
C1061 C 0.2811 0.98464 0.18944 0.0
H1062 H 0.22185 0.98133 0.21592 0.0
H1063 H 0.48947 0.08009 0.14633 0.0
H1064 H 0.26178 0.41031 0.64212 0.0
H1065 H 0.24623 0.41166 0.61469 0.0
H1066 H 0.34193 0.42915 0.60127 0.0
H1067 H 0.35783 0.42753 0.62866 0.0
H1068 H 0.29268 0.46872 0.58608 0.0
H1069 H 0.32193 0.36028 0.59626 0.0
H1070 H 0.31962 0.31231 0.61233 0.0
H1071 H 0.22012 0.30759 0.60548 0.0
H1072 H 0.22184 0.3558 0.58951 0.0
H1073 H 0.28464 0.43429 0.50577 0.0
H1074 H 0.29959 0.43571 0.53319 0.0
H1075 H 0.21005 0.39663 0.54591 0.0
H1076 H 0.19507 0.3946 0.51843 0.0
H1077 H 0.25538 0.36959 0.56198 0.0
H1078 H 0.22497 0.47504 0.55051 0.0
H1079 H 0.22422 0.52566 0.53654 0.0
H1080 H 0.32157 0.53914 0.54701 0.0
H1081 H 0.32303 0.48838 0.56088 0.0
C1082 C 0.27953 0.41426 0.63333 0.0
C1083 C 0.31105 0.41841 0.63749 0.0
C1084 C 0.27059 0.41524 0.61772 0.0
C1085 C 0.29298 0.42061 0.60607 0.0
C1086 C 0.32438 0.42516 0.61017 0.0
C1087 C 0.33342 0.42382 0.62577 0.0
C1088 C 0.28382 0.41948 0.58955 0.0
C1089 C 0.28491 0.44706 0.58066 0.0
C1090 C 0.2729 0.39136 0.58279 0.0
C1091 C 0.27199 0.36164 0.59176 0.0
C1092 C 0.29957 0.34901 0.5982 0.0
C1093 C 0.29836 0.32181 0.6073 0.0
C1094 C 0.26973 0.30693 0.60994 0.0
C1095 C 0.24228 0.31913 0.60341 0.0
C1096 C 0.24336 0.34635 0.59431 0.0
C1097 C 0.26821 0.4257 0.51438 0.0
C1098 C 0.23865 0.41434 0.50994 0.0
C1099 C 0.2767 0.4268 0.53006 0.0
C1100 C 0.25568 0.41686 0.54159 0.0
C1101 C 0.22654 0.40456 0.53717 0.0
C1102 C 0.21808 0.4033 0.52147 0.0
C1103 C 0.26432 0.41889 0.55825 0.0
C1104 C 0.26315 0.39139 0.56724 0.0
C1105 C 0.27484 0.44728 0.5651 0.0
C1106 C 0.27419 0.47768 0.55659 0.0
C1107 C 0.24631 0.48862 0.5497 0.0
C1108 C 0.24574 0.51739 0.54183 0.0
C1109 C 0.27285 0.53556 0.54085 0.0
C1110 C 0.30059 0.52502 0.54776 0.0
C1111 C 0.3013 0.49625 0.55563 0.0
H1112 H 0.27234 0.55784 0.53477 0.0
H1113 H 0.26882 0.28593 0.61703 0.0
H1114 H 0.87042 0.02471 0.25481 0.0
H1115 H 0.87629 0.0461 0.28122 0.0
H1116 H 0.83814 0.96072 0.30037 0.0
H1117 H 0.83241 0.93919 0.27427 0.0
H1118 H 0.80771 0.01472 0.31057 0.0
H1119 H 0.91218 0.97404 0.30418 0.0
H1120 H 0.96367 0.9684 0.29154 0.0
H1121 H 0.98155 0.06663 0.29856 0.0
H1122 H 0.9297 0.073 0.31092 0.0
H1123 H 0.83899 0.01473 0.39092 0.0
H1124 H 0.83861 1.00271 0.36311 0.0
H1125 H 0.87671 0.09422 0.35305 0.0
H1126 H 0.87704 0.10661 0.38091 0.0
H1127 H 0.90626 0.04517 0.33708 0.0
H1128 H 0.80249 0.08353 0.34644 0.0
H1129 H 0.75025 0.08768 0.35859 0.0
H1130 H 0.73096 0.99188 0.34638 0.0
H1131 H 0.78323 0.98691 0.33441 0.0
C1132 C 0.8638 1.01034 0.26467 0.0
C1133 C 0.8507 0.98041 0.26247 0.0
C1134 C 0.86712 0.02259 0.27971 0.0
C1135 C 0.85735 1.00501 0.29265 0.0
C1136 C 0.84551 0.97469 0.29048 0.0
C1137 C 0.84236 0.96243 0.27555 0.0
C1138 C 0.85782 0.01846 0.30848 0.0
C1139 C 0.82925 0.02121 0.31644 0.0
C1140 C 0.88587 0.02778 0.31584 0.0
C1141 C 0.91685 0.0241 0.30824 0.0
C1142 C 0.92689 0.99453 0.30283 0.0
C1143 C 0.9562 0.99118 0.29577 0.0
C1144 C 0.97588 0.01716 0.29421 0.0
C1145 C 0.96626 0.04654 0.29973 0.0
C1146 C 0.93689 0.05005 0.30675 0.0
C1147 C 0.84766 0.03218 0.38282 0.0
C1148 C 0.85811 0.06159 0.38807 0.0
C1149 C 0.84711 0.02539 0.36695 0.0
C1150 C 0.85716 0.04781 0.3561 0.0
C1151 C 0.86865 0.07677 0.3613 0.0
C1152 C 0.86892 0.08372 0.37719 0.0
C1153 C 0.85624 0.04053 0.33933 0.0
C1154 C 0.88466 0.0391 0.33116 0.0
C1155 C 0.82801 0.03218 0.33181 0.0
C1156 C 0.79697 0.03479 0.3396 0.0
C1157 C 0.78731 0.0632 0.34653 0.0
C1158 C 0.75762 0.06574 0.35334 0.0
C1159 C 0.73732 0.04007 0.35323 0.0
C1160 C 0.74672 1.01174 0.34643 0.0
C1161 C 0.77636 1.00907 0.33963 0.0
H1162 H 0.71423 0.04211 0.35831 0.0
H1163 H 0.99859 0.01452 0.28876 0.0
H1164 H 0.28315 0.56388 0.01088 0.0
H1165 H 0.26847 0.56083 0.0382 0.0
H1166 H 0.26572 0.66217 0.04075 0.0
H1167 H 0.28287 0.66519 0.01341 0.0
H1168 H 0.28964 0.64096 0.06605 0.0
H1169 H 0.19684 0.61209 0.03717 0.0
H1170 H 0.16646 0.58183 0.01791 0.0
H1171 H 0.18754 0.49633 0.04236 0.0
H1172 H 0.21834 0.52602 0.06166 0.0
H1173 H 0.18444 0.63903 0.13304 0.0
H1174 H 0.20109 0.64371 0.10572 0.0
H1175 H 0.25189 0.5563 0.10954 0.0
H1176 H 0.23641 0.55205 0.13694 0.0
H1177 H 0.20198 0.57131 0.08159 0.0
H1178 H 0.29899 0.5986 0.10818 0.0
H1179 H 0.32769 0.62773 0.12847 0.0
H1180 H 0.29662 0.71516 0.10874 0.0
H1181 H 0.26725 0.68642 0.08847 0.0
C1182 C 0.27928 0.58554 0.01725 0.0
C1183 C 0.28352 0.61481 0.01004 0.0
C1184 C 0.27071 0.58377 0.03286 0.0
C1185 C 0.26486 0.61125 0.04143 0.0
C1186 C 0.26975 0.64063 0.03432 0.0
C1187 C 0.27939 0.6424 0.01874 0.0
C1188 C 0.254 0.60909 0.05783 0.0
C1189 C 0.27015 0.62608 0.06933 0.0
C1190 C 0.22899 0.58909 0.0623 0.0
C1191 C 0.21007 0.57128 0.0508 0.0
C1192 C 0.1951 0.58683 0.0384 0.0
C1193 C 0.1778 0.56977 0.02747 0.0
C1194 C 0.17512 0.53718 0.02889 0.0
C1195 C 0.18964 0.52158 0.04127 0.0
C1196 C 0.20698 0.53851 0.05221 0.0
C1197 C 0.19933 0.621 0.12804 0.0
C1198 C 0.20946 0.59539 0.13704 0.0
C1199 C 0.20872 0.62364 0.11251 0.0
C1200 C 0.22766 0.60034 0.10578 0.0
C1201 C 0.23733 0.57449 0.11466 0.0
C1202 C 0.22867 0.57225 0.13027 0.0
C1203 C 0.2376 0.60312 0.08946 0.0
C1204 C 0.22128 0.58628 0.0781 0.0
C1205 C 0.26237 0.62306 0.08511 0.0
C1206 C 0.2807 0.64041 0.09694 0.0
C1207 C 0.29809 0.62404 0.10825 0.0
C1208 C 0.3145 0.64046 0.11973 0.0
C1209 C 0.3139 0.67328 0.11992 0.0
C1210 C 0.29701 0.68973 0.10858 0.0
C1211 C 0.2805 0.67339 0.0971 0.0
H1212 H 0.32659 0.68597 0.12883 0.0
H1213 H 0.16175 0.52402 0.02041 0.0
H1214 H 0.65547 0.91482 0.87964 0.0
H1215 H 0.65555 0.93026 0.85219 0.0
H1216 H 0.67616 0.02582 0.86544 0.0
H1217 H 0.67548 1.01079 0.89282 0.0
H1218 H 0.6309 0.02487 0.84526 0.0
H1219 H 0.7324 0.97884 0.849 0.0
H1220 H 0.77305 0.93908 0.85438 0.0
H1221 H 0.7303 0.87614 0.82164 0.0
H1222 H 0.68919 0.91551 0.81614 0.0
H1223 H 0.68587 0.08889 0.77466 0.0
H1224 H 0.67911 0.06828 0.80088 0.0
H1225 H 0.64783 0.97985 0.78196 0.0
H1226 H 0.65495 1.0003 0.75547 0.0
H1227 H 0.69514 0.9738 0.80422 0.0
H1228 H 0.59556 0.02831 0.7997 0.0
H1229 H 0.56144 0.07395 0.79435 0.0
H1230 H 0.60914 0.12733 0.8295 0.0
H1231 H 0.64373 0.08214 0.83494 0.0
C1232 C 0.65976 0.93917 0.87669 0.0
C1233 C 0.6651 0.96169 0.88838 0.0
C1234 C 0.66016 0.94786 0.86101 0.0
C1235 C 0.66613 0.97911 0.85681 0.0
C1236 C 0.67142 1.00158 0.86846 0.0
C1237 C 0.67085 0.99298 0.88411 0.0
C1238 C 0.6652 0.98896 0.84032 0.0
C1239 C 0.64516 0.01383 0.83632 0.0
C1240 C 0.68344 0.97419 0.82864 0.0
C1241 C 0.70741 0.94996 0.83234 0.0
C1242 C 0.73139 0.95636 0.84311 0.0
C1243 C 0.75461 0.93393 0.84613 0.0
C1244 C 0.75418 0.90502 0.83841 0.0
C1245 C 0.73054 0.89851 0.82764 0.0
C1246 C 0.70729 0.92088 0.82456 0.0
C1247 C 0.67715 0.06518 0.77603 0.0
C1248 C 0.67101 0.04615 0.76302 0.0
C1249 C 0.67319 0.05349 0.79104 0.0
C1250 C 0.66278 0.02265 0.79332 0.0
C1251 C 0.65582 1.00377 0.78038 0.0
C1252 C 0.65971 0.01552 0.76529 0.0
C1253 C 0.66104 1.00982 0.80927 0.0
C1254 C 0.68057 0.98442 0.81316 0.0
C1255 C 0.6431 0.02471 0.82099 0.0
C1256 C 0.62232 0.05189 0.81766 0.0
C1257 C 0.59889 0.04985 0.80621 0.0
C1258 C 0.57944 0.07563 0.80318 0.0
C1259 C 0.58314 0.10353 0.81156 0.0
C1260 C 0.60628 0.10571 0.82301 0.0
C1261 C 0.62577 0.08001 0.82609 0.0
H1262 H 0.56806 0.12346 0.8092 0.0
H1263 H 0.77223 0.88772 0.84072 0.0
H1264 H 0.15902 0.48757 0.15593 0.0
H1265 H 0.17445 0.4395 0.1419 0.0
H1266 H 0.24459 0.42044 0.17668 0.0
H1267 H 0.22862 0.46777 0.19105 0.0
H1268 H 0.26029 0.41967 0.13883 0.0
H1269 H 0.19605 0.37619 0.18132 0.0
H1270 H 0.14674 0.37381 0.19626 0.0
H1271 H 0.09595 0.35315 0.15433 0.0
H1272 H 0.14493 0.35592 0.13912 0.0
H1273 H 0.31571 0.27259 0.11125 0.0
H1274 H 0.2994 0.31492 0.12901 0.0
H1275 H 0.20365 0.3031 0.11426 0.0
H1276 H 0.21993 0.26038 0.09695 0.0
H1277 H 0.20009 0.32047 0.14218 0.0
H1278 H 0.25517 0.36154 0.09931 0.0
H1279 H 0.29787 0.36937 0.08039 0.0
H1280 H 0.35843 0.40078 0.11712 0.0
H1281 H 0.31623 0.39256 0.13633 0.0
C1282 C 0.17755 0.47306 0.1607 0.0
C1283 C 0.1923 0.48171 0.17478 0.0
C1284 C 0.18644 0.44551 0.15261 0.0
C1285 C 0.21082 0.42612 0.15814 0.0
C1286 C 0.22573 0.43481 0.1721 0.0
C1287 C 0.21637 0.46191 0.18039 0.0
C1288 C 0.22079 0.39693 0.14938 0.0
C1289 C 0.24749 0.39779 0.13979 0.0
C1290 C 0.20334 0.36869 0.14989 0.0
C1291 C 0.17407 0.36659 0.15908 0.0
C1292 C 0.17432 0.37144 0.17527 0.0
C1293 C 0.14645 0.36996 0.18379 0.0
C1294 C 0.11822 0.36342 0.17624 0.0
C1295 C 0.11782 0.35825 0.16016 0.0
C1296 C 0.14563 0.35975 0.15159 0.0
C1297 C 0.29101 0.27802 0.11235 0.0
C1298 C 0.2691 0.26231 0.10291 0.0
C1299 C 0.28167 0.30289 0.12228 0.0
C1300 C 0.25018 0.31325 0.12288 0.0
C1301 C 0.22806 0.29609 0.11419 0.0
C1302 C 0.23737 0.27121 0.10436 0.0
C1303 C 0.24043 0.34259 0.13183 0.0
C1304 C 0.21343 0.34203 0.14132 0.0
C1305 C 0.25699 0.37152 0.13074 0.0
C1306 C 0.28266 0.37599 0.11931 0.0
C1307 C 0.2777 0.36977 0.10339 0.0
C1308 C 0.30179 0.37433 0.0926 0.0
C1309 C 0.33088 0.38546 0.09756 0.0
C1310 C 0.33591 0.39206 0.11331 0.0
C1311 C 0.31192 0.38743 0.12416 0.0
H1312 H 0.34948 0.38906 0.08918 0.0
H1313 H 0.09666 0.36229 0.18286 0.0
H1314 H 0.50367 0.48404 0.34058 0.0
H1315 H 0.46071 0.46735 0.35749 0.0
H1316 H 0.46595 0.55501 0.38235 0.0
H1317 H 0.50848 0.57246 0.36489 0.0
H1318 H 0.45542 0.49294 0.40141 0.0
H1319 H 0.41528 0.55304 0.35765 0.0
H1320 H 0.40858 0.56468 0.32972 0.0
H1321 H 0.36752 0.47389 0.32255 0.0
H1322 H 0.37484 0.4613 0.35036 0.0
H1323 H 0.31051 0.47548 0.44158 0.0
H1324 H 0.35667 0.49381 0.42754 0.0
H1325 H 0.3272 0.44212 0.38686 0.0
H1326 H 0.27945 0.42627 0.40058 0.0
H1327 H 0.35149 0.48756 0.37583 0.0
H1328 H 0.39433 0.42205 0.41565 0.0
H1329 H 0.40381 0.40241 0.44228 0.0
H1330 H 0.44196 0.49179 0.45541 0.0
H1331 H 0.43238 0.51208 0.4289 0.0
C1332 C 0.49649 0.49947 0.34998 0.0
C1333 C 0.51015 0.52957 0.3514 0.0
C1334 C 0.47151 0.48997 0.35956 0.0
C1335 C 0.45949 0.50993 0.37117 0.0
C1336 C 0.47458 0.53905 0.3735 0.0
C1337 C 0.49934 0.5489 0.36363 0.0
C1338 C 0.43027 0.50087 0.38012 0.0
C1339 C 0.4326 0.49222 0.39588 0.0
C1340 C 0.40048 0.49836 0.37284 0.0
C1341 C 0.39607 0.50604 0.35609 0.0
C1342 C 0.40525 0.53535 0.3501 0.0
C1343 C 0.40128 0.54216 0.33428 0.0
C1344 C 0.38775 0.52 0.32436 0.0
C1345 C 0.37811 0.491 0.33024 0.0
C1346 C 0.38221 0.484 0.34603 0.0
C1347 C 0.31395 0.46782 0.42967 0.0
C1348 C 0.29122 0.44898 0.42235 0.0
C1349 C 0.3408 0.47814 0.42158 0.0
C1350 C 0.34683 0.46883 0.40605 0.0
C1351 C 0.3239 0.44993 0.39875 0.0
C1352 C 0.29644 0.44056 0.40668 0.0
C1353 C 0.37629 0.47924 0.39734 0.0
C1354 C 0.37414 0.48815 0.38152 0.0
C1355 C 0.40651 0.48078 0.4044 0.0
C1356 C 0.41234 0.46867 0.42034 0.0
C1357 C 0.40457 0.43756 0.42424 0.0
C1358 C 0.40998 0.42631 0.43931 0.0
C1359 C 0.42339 0.44587 0.45054 0.0
C1360 C 0.43152 0.47669 0.44671 0.0
C1361 C 0.42614 0.48807 0.43166 0.0
H1362 H 0.42756 0.43712 0.4622 0.0
H1363 H 0.38466 0.52533 0.31213 0.0
H1364 H 0.28688 0.77705 0.60612 0.0
H1365 H 0.30506 0.73537 0.62386 0.0
H1366 H 0.22076 0.68302 0.61479 0.0
H1367 H 0.20262 0.72471 0.5973 0.0
H1368 H 0.23527 0.67352 0.64378 0.0
H1369 H 0.29146 0.66687 0.5962 0.0
H1370 H 0.32477 0.68398 0.57436 0.0
H1371 H 0.40079 0.70071 0.60601 0.0
H1372 H 0.36773 0.68415 0.6281 0.0
H1373 H 0.30131 0.51583 0.65425 0.0
H1374 H 0.28448 0.56388 0.64086 0.0
H1375 H 0.33833 0.61952 0.67298 0.0
H1376 H 0.35449 0.57144 0.68685 0.0
H1377 H 0.3405 0.62812 0.63364 0.0
H1378 H 0.2781 0.63181 0.68165 0.0
H1379 H 0.24304 0.60668 0.70075 0.0
H1380 H 0.17616 0.58806 0.66458 0.0
H1381 H 0.21117 0.61255 0.64521 0.0
C1382 C 0.27173 0.75721 0.60839 0.0
C1383 C 0.24288 0.75472 0.60056 0.0
C1384 C 0.28239 0.73299 0.61835 0.0
C1385 C 0.26462 0.70541 0.62065 0.0
C1386 C 0.23509 0.70377 0.6134 0.0
C1387 C 0.22454 0.72787 0.60345 0.0
C1388 C 0.27715 0.67772 0.62989 0.0
C1389 C 0.25833 0.66382 0.64149 0.0
C1390 C 0.30716 0.66423 0.62703 0.0
C1391 C 0.32697 0.67472 0.61384 0.0
C1392 C 0.31516 0.67454 0.59853 0.0
C1393 C 0.33402 0.68407 0.5861 0.0
C1394 C 0.36484 0.69354 0.5888 0.0
C1395 C 0.37688 0.69346 0.60394 0.0
C1396 C 0.35808 0.68402 0.61643 0.0
C1397 C 0.30973 0.53823 0.6585 0.0
C1398 C 0.32937 0.53955 0.6717 0.0
C1399 C 0.3 0.56578 0.65079 0.0
C1400 C 0.31005 0.5955 0.65584 0.0
C1401 C 0.33019 0.59695 0.66881 0.0
C1402 C 0.33939 0.56939 0.67677 0.0
C1403 C 0.29896 0.62482 0.64766 0.0
C1404 C 0.3178 0.63853 0.6361 0.0
C1405 C 0.26876 0.63767 0.65028 0.0
C1406 C 0.2474 0.62368 0.66197 0.0
C1407 C 0.25606 0.62209 0.67775 0.0
C1408 C 0.23618 0.60801 0.68863 0.0
C1409 C 0.20743 0.59569 0.68388 0.0
C1410 C 0.19846 0.59756 0.66825 0.0
C1411 C 0.2183 0.61155 0.65731 0.0
H1412 H 0.1921 0.58475 0.69231 0.0
H1413 H 0.37944 0.70085 0.57916 0.0
H1414 H 0.24254 0.60439 0.90348 0.0
H1415 H 0.19489 0.58848 0.88953 0.0
H1416 H 0.16642 0.53331 0.92907 0.0
H1417 H 0.21346 0.54999 0.94331 0.0
H1418 H 0.16604 0.50223 0.89594 0.0
H1419 H 0.12775 0.59297 0.92535 0.0
H1420 H 0.13007 0.64869 0.93316 0.0
H1421 H 0.12125 0.67686 0.88532 0.0
H1422 H 0.11933 0.62127 0.87721 0.0
H1423 H 0.02054 0.45398 0.86334 0.0
H1424 H 0.06044 0.47178 0.88202 0.0
H1425 H 0.06508 0.56103 0.85833 0.0
H1426 H 0.02412 0.54405 0.84056 0.0
H1427 H 0.07776 0.57476 0.88483 0.0
H1428 H 0.12035 0.49357 0.85339 0.0
H1429 H 0.12575 0.44136 0.84119 0.0
H1430 H 0.13519 0.39887 0.88632 0.0
H1431 H 0.12946 0.45084 0.89881 0.0
C1432 C 0.22603 0.58912 0.90931 0.0
C1433 C 0.23201 0.57875 0.92465 0.0
C1434 C 0.19871 0.57996 0.90127 0.0
C1435 C 0.17683 0.55951 0.90814 0.0
C1436 C 0.18277 0.54903 0.92342 0.0
C1437 C 0.20969 0.55881 0.93162 0.0
C1438 C 0.14805 0.5489 0.89936 0.0
C1439 C 0.14645 0.51791 0.89374 0.0
C1440 C 0.123 0.56958 0.89575 0.0
C1441 C 0.12366 0.60296 0.90067 0.0
C1442 C 0.12655 0.61104 0.91649 0.0
C1443 C 0.12774 0.6426 0.92097 0.0
C1444 C 0.12588 0.6663 0.90974 0.0
C1445 C 0.12271 0.65848 0.89401 0.0
C1446 C 0.12153 0.62696 0.88947 0.0
C1447 C 0.02921 0.4778 0.86252 0.0
C1448 C 0.01879 0.4975 0.85039 0.0
C1449 C 0.05275 0.48786 0.87303 0.0
C1450 C 0.06715 0.51766 0.8715 0.0
C1451 C 0.05507 0.53793 0.86 0.0
C1452 C 0.03132 0.52815 0.84976 0.0
C1453 C 0.09525 0.52761 0.88131 0.0
C1454 C 0.09697 0.55867 0.88707 0.0
C1455 C 0.12113 0.50735 0.88444 0.0
C1456 C 0.12402 0.47601 0.87704 0.0
C1457 C 0.12327 0.47305 0.86072 0.0
C1458 C 0.12645 0.44352 0.85375 0.0
C1459 C 0.13068 0.4168 0.86298 0.0
C1460 C 0.13181 0.41958 0.87919 0.0
C1461 C 0.12859 0.44906 0.88622 0.0
H1462 H 0.13319 0.39396 0.85756 0.0
H1463 H 0.12683 0.69072 0.91323 0.0
H1464 H 0.79218 0.54656 0.81598 0.0
H1465 H 0.77437 0.59241 0.83073 0.0
H1466 H 0.85465 0.58351 0.86103 0.0
H1467 H 0.87038 0.53565 0.84718 0.0
H1468 H 0.81419 0.60002 0.87831 0.0
H1469 H 0.83838 0.64593 0.82856 0.0
H1470 H 0.83568 0.65285 0.80005 0.0
H1471 H 0.73664 0.66966 0.8031 0.0
H1472 H 0.7387 0.66252 0.83161 0.0
H1473 H 0.80024 0.74939 0.91368 0.0
H1474 H 0.81757 0.70786 0.8959 0.0
H1475 H 0.72528 0.70474 0.87564 0.0
H1476 H 0.70802 0.74691 0.89341 0.0
H1477 H 0.77006 0.6953 0.85329 0.0
H1478 H 0.75028 0.65141 0.9046 0.0
H1479 H 0.75758 0.64679 0.93304 0.0
H1480 H 0.85579 0.62973 0.92646 0.0
H1481 H 0.84924 0.63453 0.89801 0.0
C1482 C 0.80614 0.5546 0.82573 0.0
C1483 C 0.83292 0.53757 0.83028 0.0
C1484 C 0.79609 0.58125 0.83415 0.0
C1485 C 0.81336 0.59277 0.84698 0.0
C1486 C 0.84048 0.57572 0.85132 0.0
C1487 C 0.84976 0.54832 0.84329 0.0
C1488 C 0.80276 0.62146 0.85625 0.0
C1489 C 0.80517 0.62094 0.87264 0.0
C1490 C 0.78994 0.6491 0.84931 0.0
C1491 C 0.78866 0.65338 0.83219 0.0
C1492 C 0.81601 0.65092 0.82313 0.0
C1493 C 0.81459 0.65491 0.80697 0.0
C1494 C 0.786 0.6616 0.79976 0.0
C1495 C 0.75877 0.66442 0.8087 0.0
C1496 C 0.76005 0.66044 0.82485 0.0
C1497 C 0.78387 0.74055 0.90511 0.0
C1498 C 0.75282 0.75193 0.90486 0.0
C1499 C 0.79369 0.71635 0.89506 0.0
C1500 C 0.77267 0.70227 0.88456 0.0
C1501 C 0.74208 0.71486 0.88363 0.0
C1502 C 0.73224 0.73928 0.8937 0.0
C1503 C 0.78232 0.67379 0.8751 0.0
C1504 C 0.77942 0.67433 0.85878 0.0
C1505 C 0.79551 0.64649 0.88205 0.0
C1506 C 0.7993 0.64359 0.89918 0.0
C1507 C 0.77347 0.64688 0.90922 0.0
C1508 C 0.77745 0.64421 0.92534 0.0
C1509 C 0.8071 0.63808 0.93155 0.0
C1510 C 0.83284 0.63452 0.92165 0.0
C1511 C 0.829 0.63717 0.90553 0.0
H1512 H 0.8101 0.63603 0.94403 0.0
H1513 H 0.78495 0.66468 0.78726 0.0
H1514 H 0.71975 0.62662 0.58839 0.0
H1515 H 0.67175 0.61144 0.60231 0.0
H1516 H 0.69182 0.5139 0.59276 0.0
H1517 H 0.73916 0.52935 0.57846 0.0
H1518 H 0.63276 0.52063 0.58985 0.0
H1519 H 0.70436 0.55545 0.62842 0.0
H1520 H 0.73966 0.59112 0.6426 0.0
H1521 H 0.66276 0.65375 0.65174 0.0
H1522 H 0.62709 0.61864 0.63742 0.0
H1523 H 0.53044 0.45319 0.64784 0.0
H1524 H 0.5731 0.47025 0.63066 0.0
H1525 H 0.54903 0.56697 0.63977 0.0
H1526 H 0.5069 0.54975 0.65716 0.0
H1527 H 0.60914 0.56158 0.64262 0.0
H1528 H 0.53837 0.52792 0.60253 0.0
H1529 H 0.50325 0.49088 0.58908 0.0
H1530 H 0.57936 0.42559 0.58349 0.0
H1531 H 0.61484 0.46209 0.59709 0.0
C1532 C 0.71384 0.60196 0.58927 0.0
C1533 C 0.73344 0.5792 0.58238 0.0
C1534 C 0.68635 0.59317 0.59733 0.0
C1535 C 0.67781 0.56126 0.59898 0.0
C1536 C 0.69739 0.53864 0.59184 0.0
C1537 C 0.7247 0.54746 0.5837 0.0
C1538 C 0.64888 0.55128 0.6081 0.0
C1539 C 0.62797 0.52946 0.60146 0.0
C1540 C 0.64157 0.56298 0.62324 0.0
C1541 C 0.66306 0.5844 0.63174 0.0
C1542 C 0.69499 0.57688 0.63339 0.0
C1543 C 0.71508 0.59702 0.64145 0.0
C1544 C 0.70346 0.62471 0.64806 0.0
C1545 C 0.67174 0.6323 0.6466 0.0
C1546 C 0.65157 0.61226 0.63851 0.0
C1547 C 0.53331 0.47806 0.64561 0.0
C1548 C 0.51424 0.49999 0.65349 0.0
C1549 C 0.55811 0.48795 0.63586 0.0
C1550 C 0.56472 0.52017 0.63362 0.0
C1551 C 0.54488 0.54203 0.6411 0.0
C1552 C 0.52022 0.53214 0.65087 0.0
C1553 C 0.59306 0.53109 0.62431 0.0
C1554 C 0.6139 0.553 0.63095 0.0
C1555 C 0.6004 0.51947 0.60922 0.0
C1556 C 0.57918 0.49761 0.60095 0.0
C1557 C 0.54756 0.50557 0.59852 0.0
C1558 C 0.5276 0.48469 0.59086 0.0
C1559 C 0.53905 0.45587 0.58547 0.0
C1560 C 0.57051 0.44791 0.58769 0.0
C1561 C 0.59056 0.4687 0.59536 0.0
H1562 H 0.52355 0.43973 0.57954 0.0
H1563 H 0.71904 0.64025 0.65431 0.0
H1564 H 0.67232 0.49627 0.35051 0.0
H1565 H 0.6869 0.44775 0.364 0.0
H1566 H 0.73142 0.41335 0.3223 0.0
H1567 H 0.71525 0.46142 0.30838 0.0
H1568 H 0.69281 0.36601 0.34249 0.0
H1569 H 0.80132 0.42234 0.35065 0.0
H1570 H 0.82481 0.47529 0.35174 0.0
H1571 H 0.75166 0.50614 0.38249 0.0
H1572 H 0.72898 0.45275 0.38242 0.0
H1573 H 0.81553 0.26961 0.38948 0.0
H1574 H 0.79875 0.3102 0.37059 0.0
H1575 H 0.71341 0.32395 0.39648 0.0
H1576 H 0.72948 0.28334 0.41493 0.0
H1577 H 0.7766 0.38019 0.38199 0.0
H1578 H 0.67395 0.31468 0.37579 0.0
H1579 H 0.6523 0.26184 0.37091 0.0
H1580 H 0.71527 0.2497 0.33231 0.0
H1581 H 0.73763 0.30227 0.33721 0.0
C1582 C 0.6849 0.47828 0.34411 0.0
C1583 C 0.6927 0.48298 0.32833 0.0
C1584 C 0.69346 0.45053 0.3519 0.0
C1585 C 0.71108 0.42703 0.34437 0.0
C1586 C 0.71801 0.43108 0.32845 0.0
C1587 C 0.70872 0.45862 0.32049 0.0
C1588 C 0.72357 0.3994 0.35344 0.0
C1589 C 0.71105 0.36923 0.35113 0.0
C1590 C 0.74781 0.40301 0.36458 0.0
C1591 C 0.76346 0.43371 0.36646 0.0
C1592 C 0.79069 0.44026 0.35791 0.0
C1593 C 0.8039 0.47028 0.35841 0.0
C1594 C 0.7898 0.49399 0.36727 0.0
C1595 C 0.76273 0.48761 0.37581 0.0
C1596 C 0.7499 0.4574 0.37568 0.0
C1597 C 0.79276 0.28056 0.39083 0.0
C1598 C 0.7738 0.27283 0.40371 0.0
C1599 C 0.78333 0.30412 0.38014 0.0
C1600 C 0.75469 0.32033 0.38203 0.0
C1601 C 0.73539 0.31177 0.39456 0.0
C1602 C 0.74466 0.28836 0.40513 0.0
C1603 C 0.74499 0.34693 0.37146 0.0
C1604 C 0.75827 0.37694 0.3734 0.0
C1605 C 0.72134 0.34322 0.36003 0.0
C1606 C 0.70757 0.31209 0.35694 0.0
C1607 C 0.68325 0.30061 0.36633 0.0
C1608 C 0.67088 0.27074 0.36357 0.0
C1609 C 0.68246 0.25238 0.35133 0.0
C1610 C 0.70639 0.26389 0.34182 0.0
C1611 C 0.71896 0.29367 0.3446 0.0
H1612 H 0.67286 0.22926 0.34921 0.0
H1613 H 0.79976 0.51734 0.36747 0.0
H1614 H 0.7785 0.42093 0.10066 0.0
H1615 H 0.82719 0.43594 0.11361 0.0
H1616 H 0.86153 0.47538 0.07069 0.0
H1617 H 0.81328 0.45853 0.05737 0.0
H1618 H 0.91045 0.44511 0.0904 0.0
H1619 H 0.82958 0.53167 0.09746 0.0
H1620 H 0.77319 0.53998 0.10265 0.0
H1621 H 0.78008 0.48319 0.14385 0.0
H1622 H 0.83674 0.4762 0.13938 0.0
H1623 H 0.0306 0.5251 0.13498 0.0
H1624 H 0.99083 0.51118 0.11537 0.0
H1625 H 0.92022 0.51064 0.15143 0.0
H1626 H 0.95751 0.52978 0.16961 0.0
H1627 H 0.8898 0.52473 0.13129 0.0
H1628 H 0.9655 0.43892 0.12921 0.0
H1629 H 0.01713 0.41417 0.12479 0.0
H1630 H 0.01811 0.44927 0.07789 0.0
H1631 H 0.96659 0.47442 0.08209 0.0
C1632 C 0.79657 0.43234 0.09387 0.0
C1633 C 0.7917 0.43864 0.07795 0.0
C1634 C 0.82449 0.44113 0.10134 0.0
C1635 C 0.84805 0.45767 0.09333 0.0
C1636 C 0.84391 0.46278 0.07724 0.0
C1637 C 0.81618 0.45316 0.06961 0.0
C1638 C 0.87507 0.47216 0.10216 0.0
C1639 C 0.90614 0.4627 0.0993 0.0
C1640 C 0.86973 0.49455 0.11405 0.0
C1641 C 0.83736 0.50382 0.11821 0.0
C1642 C 0.81918 0.52184 0.10788 0.0
C1643 C 0.78719 0.52629 0.1107 0.0
C1644 C 0.77309 0.51233 0.12365 0.0
C1645 C 0.79109 0.49446 0.13398 0.0
C1646 C 0.82324 0.49073 0.13147 0.0
C1647 C 1.00644 0.52261 0.13858 0.0
C1648 C 0.99816 0.52733 0.15434 0.0
C1649 C 0.98349 0.51383 0.12735 0.0
C1650 C 0.95176 0.50829 0.13162 0.0
C1651 C 0.94381 0.51434 0.14723 0.0
C1652 C 0.96598 0.52463 0.15803 0.0
C1653 C 0.9263 0.49653 0.12047 0.0
C1654 C 0.89501 0.50696 0.12263 0.0
C1655 C 0.93149 0.47371 0.10852 0.0
C1656 C 0.96247 0.45887 0.10603 0.0
C1657 C 0.97685 0.44149 0.11799 0.0
C1658 C 1.00606 0.42738 0.11552 0.0
C1659 C 0.02094 0.43025 0.10109 0.0
C1660 C 1.0066 0.44715 0.08908 0.0
C1661 C 0.97741 0.46133 0.09149 0.0
H1662 H 0.04354 0.4193 0.0992 0.0
H1663 H 0.74821 0.51526 0.12566 0.0
H1664 H 0.72611 0.77424 0.59172 0.0
H1665 H 0.70999 0.81594 0.60964 0.0
H1666 H 0.8009 0.81325 0.6313 0.0
H1667 H 0.81752 0.77169 0.61294 0.0
H1668 H 0.74528 0.82256 0.65288 0.0
H1669 H 0.7893 0.86246 0.6051 0.0
H1670 H 0.79229 0.86686 0.5766 0.0
H1671 H 0.70002 0.90723 0.57541 0.0
H1672 H 0.6956 0.90117 0.60387 0.0
H1673 H 0.7263 0.96965 0.69227 0.0
H1674 H 0.74444 0.92322 0.67805 0.0
H1675 H 0.68071 0.94535 0.64055 0.0
H1676 H 0.66493 0.99332 0.6542 0.0
H1677 H 0.72544 0.92501 0.62719 0.0
H1678 H 0.67425 0.87906 0.67118 0.0
H1679 H 0.66265 0.86958 0.69894 0.0
H1680 H 0.75745 0.83916 0.70644 0.0
H1681 H 0.7697 0.84878 0.67876 0.0
C1682 C 0.74244 0.78171 0.60063 0.0
C1683 C 0.77309 0.76911 0.60092 0.0
C1684 C 0.73322 0.80591 0.61082 0.0
C1685 C 0.75421 0.8183 0.6218 0.0
C1686 C 0.78414 0.80424 0.62297 0.0
C1687 C 0.79358 0.78014 0.61256 0.0
C1688 C 0.74546 0.84728 0.63108 0.0
C1689 C 0.74133 0.84508 0.6473 0.0
C1690 C 0.73898 0.87661 0.62382 0.0
C1691 C 0.74193 0.88084 0.60668 0.0
C1692 C 0.7694 0.8718 0.59878 0.0
C1693 C 0.77138 0.87463 0.58259 0.0
C1694 C 0.74642 0.88741 0.57417 0.0
C1695 C 0.71934 0.89725 0.58193 0.0
C1696 C 0.71701 0.89391 0.5981 0.0
C1697 C 0.71595 0.96442 0.68105 0.0
C1698 C 0.69385 0.98519 0.6745 0.0
C1699 C 0.72619 0.93748 0.67288 0.0
C1700 C 0.71366 0.92953 0.65815 0.0
C1701 C 0.69118 0.95031 0.65176 0.0
C1702 C 0.68183 0.97783 0.65968 0.0
C1703 C 0.72444 0.90048 0.64917 0.0
C1704 C 0.72915 0.90261 0.63292 0.0
C1705 C 0.73023 0.87077 0.65631 0.0
C1706 C 0.72296 0.86494 0.67294 0.0
C1707 C 0.69266 0.87052 0.67877 0.0
C1708 C 0.68597 0.8651 0.69449 0.0
C1709 C 0.70932 0.85386 0.70446 0.0
C1710 C 0.7394 0.84792 0.69872 0.0
C1711 C 0.74623 0.85332 0.68301 0.0
H1712 H 0.7041 0.84968 0.71662 0.0
H1713 H 0.74808 0.88971 0.56163 0.0
H1714 H 0.98288 0.07248 0.85137 0.0
H1715 H 0.93992 0.05596 0.86818 0.0
H1716 H 0.98178 0.96395 0.87221 0.0
H1717 H 0.02406 0.98034 0.85457 0.0
H1718 H 0.92475 0.95415 0.86811 0.0
H1719 H 0.97393 0.02279 0.90423 0.0
H1720 H 0.99823 0.07143 0.91401 0.0
H1721 H 0.91269 0.12209 0.90572 0.0
H1722 H 0.88799 0.07381 0.89572 0.0
H1723 H 0.8188 0.91997 0.93464 0.0
H1724 H 0.86644 0.93566 0.92055 0.0
H1725 H 0.81122 0.99543 0.89076 0.0
H1726 H 0.76335 0.97882 0.90436 0.0
H1727 H 0.87579 0.01956 0.90934 0.0
H1728 H 0.82857 0.9462 0.87241 0.0
H1729 H 0.80639 0.89455 0.86568 0.0
H1730 H 0.89264 0.84954 0.87863 0.0
H1731 H 0.91503 0.90086 0.88593 0.0
C1732 C 0.98377 0.04918 0.85644 0.0
C1733 C 1.00788 0.02826 0.85207 0.0
C1734 C 0.95883 0.03951 0.86605 0.0
C1735 C 0.95717 1.00858 0.87191 0.0
C1736 C 0.98202 0.98796 0.86804 0.0
C1737 C 1.00678 0.99756 0.85819 0.0
C1738 C 0.92873 0.99741 0.88109 0.0
C1739 C 0.91452 0.96849 0.87724 0.0
C1740 C 0.91448 0.01566 0.89309 0.0
C1741 C 0.92921 0.04474 0.89909 0.0
C1742 C 0.96038 0.04435 0.90439 0.0
C1743 C 0.97421 0.07185 0.90999 0.0
C1744 C 0.95704 0.09985 0.91045 0.0
C1745 C 0.92597 0.10039 0.90535 0.0
C1746 C 0.91203 0.07296 0.89973 0.0
C1747 C 0.81671 0.9363 0.92502 0.0
C1748 C 0.78702 0.94796 0.92065 0.0
C1749 C 0.84407 0.94529 0.91696 0.0
C1750 C 0.84267 0.96679 0.90452 0.0
C1751 C 0.81311 0.97877 0.90026 0.0
C1752 C 0.78565 0.96913 0.90803 0.0
C1753 C 0.872 0.97694 0.8961 0.0
C1754 C 0.88629 1.00547 0.90017 0.0
C1755 C 0.88664 0.9581 0.88456 0.0
C1756 C 0.8733 0.92734 0.87996 0.0
C1757 C 0.84266 0.92527 0.87405 0.0
C1758 C 0.83007 0.89606 0.87008 0.0
C1759 C 0.84806 0.86879 0.87175 0.0
C1760 C 0.8787 0.87068 0.87738 0.0
C1761 C 0.89133 0.89981 0.88145 0.0
H1762 H 0.83828 0.84621 0.86865 0.0
H1763 H 0.9678 0.12111 0.91479 0.0
H1764 H 0.79502 0.05881 0.19146 0.0
H1765 H 0.77839 0.10587 0.1769 0.0
H1766 H 0.84216 0.08185 0.13987 0.0
H1767 H 0.85774 0.03402 0.15401 0.0
H1768 H 0.83816 0.15343 0.15454 0.0
H1769 H 0.78605 0.07012 0.12693 0.0
H1770 H 0.75376 0.02238 0.12499 0.0
H1771 H 0.67677 0.07089 0.14658 0.0
H1772 H 0.70891 0.11879 0.14893 0.0
H1773 H 0.795 0.25759 0.09301 0.0
H1774 H 0.81213 0.21531 0.11013 0.0
H1775 H 0.71978 0.21115 0.13033 0.0
H1776 H 0.70214 0.25288 0.11242 0.0
H1777 H 0.73795 0.1538 0.12532 0.0
H1778 H 0.79159 0.24011 0.15019 0.0
H1779 H 0.826 0.28653 0.15105 0.0
H1780 H 0.90249 0.23133 0.13332 0.0
H1781 H 0.86845 0.18468 0.13218 0.0
C1782 C 0.80572 0.06366 0.18027 0.0
C1783 C 0.82788 0.04251 0.17399 0.0
C1784 C 0.79605 0.09058 0.1719 0.0
C1785 C 0.80886 0.09763 0.15719 0.0
C1786 C 0.83176 0.07709 0.15113 0.0
C1787 C 0.84069 0.04968 0.15926 0.0
C1788 C 0.79806 0.12606 0.14809 0.0
C1789 C 0.81635 0.15344 0.14807 0.0
C1790 C 0.76946 0.12651 0.13971 0.0
C1791 C 0.75006 0.09784 0.13837 0.0
C1792 C 0.7624 0.07047 0.13148 0.0
C1793 C 0.74409 0.04341 0.13025 0.0
C1794 C 0.71327 0.04356 0.13573 0.0
C1795 C 0.70069 0.07079 0.1424 0.0
C1796 C 0.71894 0.09789 0.14369 0.0
C1797 C 0.77853 0.2485 0.10148 0.0
C1798 C 0.74727 0.25946 0.10149 0.0
C1799 C 0.7884 0.224 0.11134 0.0
C1800 C 0.76763 0.20974 0.12194 0.0
C1801 C 0.7366 0.22149 0.12242 0.0
C1802 C 0.72657 0.24593 0.11236 0.0
C1803 C 0.77797 0.18174 0.13175 0.0
C1804 C 0.75961 0.1542 0.1319 0.0
C1805 C 0.80682 0.18104 0.1401 0.0
C1806 C 0.82741 0.20897 0.14102 0.0
C1807 C 0.81571 0.23791 0.14642 0.0
C1808 C 0.83515 0.26426 0.14696 0.0
C1809 C 0.86639 0.26189 0.14222 0.0
C1810 C 0.87829 0.23314 0.13698 0.0
C1811 C 0.85895 0.20673 0.13642 0.0
H1812 H 0.88139 0.28232 0.14262 0.0
H1813 H 0.69911 0.02261 0.13474 0.0
H1814 H 0.75629 0.07275 0.39873 0.0
H1815 H 0.70844 0.05748 0.38495 0.0
H1816 H 0.65586 0.06567 0.42759 0.0
H1817 H 0.70359 0.08108 0.44145 0.0
H1818 H 0.63897 1.01286 0.41257 0.0
H1819 H 0.64989 0.1215 0.39808 0.0
H1820 H 0.67783 0.16755 0.38763 0.0
H1821 H 0.68888 0.12084 0.3436 0.0
H1822 H 0.66113 0.07445 0.35382 0.0
H1823 H 0.49576 0.04556 0.3562 0.0
H1824 H 0.53861 0.06187 0.3736 0.0
H1825 H 0.58354 0.97217 0.36679 0.0
H1826 H 0.54052 0.95572 0.3499 0.0
H1827 H 0.602 0.06768 0.36497 0.0
H1828 H 0.61542 0.95202 0.39041 0.0
H1829 H 0.58607 0.90771 0.40185 0.0
H1830 H 0.52551 0.97267 0.42569 0.0
H1831 H 0.55414 0.01727 0.41405 0.0
C1832 C 0.73456 0.07146 0.40521 0.0
C1833 C 0.73408 0.07836 0.42128 0.0
C1834 C 0.70702 0.06276 0.39725 0.0
C1835 C 0.67807 0.06046 0.40508 0.0
C1836 C 0.67762 0.06715 0.42115 0.0
C1837 C 0.70508 0.07616 0.4291 0.0
C1838 C 0.64848 0.05076 0.39661 0.0
C1839 C 0.63109 0.02501 0.40217 0.0
C1840 C 0.63745 0.06634 0.38302 0.0
C1841 C 0.65365 0.09441 0.37676 0.0
C1842 C 0.65839 0.121 0.38619 0.0
C1843 C 0.67415 0.14718 0.3803 0.0
C1844 C 0.68516 0.14711 0.36497 0.0
C1845 C 0.68032 0.12088 0.35547 0.0
C1846 C 0.66451 0.09467 0.3613 0.0
C1847 C 0.51391 0.02872 0.35912 0.0
C1848 C 0.51375 0.99871 0.35216 0.0
C1849 C 0.53884 0.03829 0.36886 0.0
C1850 C 0.56453 0.01824 0.37186 0.0
C1851 C 0.56384 0.98792 0.36528 0.0
C1852 C 0.5389 0.97833 0.35565 0.0
C1853 C 0.59296 0.02954 0.38081 0.0
C1854 C 0.61006 0.0556 0.37535 0.0
C1855 C 0.60388 0.01432 0.39446 0.0
C1856 C 0.58661 0.98776 0.4013 0.0
C1857 C 0.59576 0.95673 0.39806 0.0
C1858 C 0.57922 0.93162 0.40452 0.0
C1859 C 0.55389 0.93737 0.41446 0.0
C1860 C 0.545 0.96825 0.41791 0.0
C1861 C 0.56123 0.99343 0.41131 0.0
H1862 H 0.5412 0.91791 0.41952 0.0
H1863 H 0.69738 0.16738 0.36043 0.0
H1864 H 0.20045 0.22762 0.40637 0.0
H1865 H 0.21736 0.18467 0.38925 0.0
H1866 H 0.30322 0.23394 0.37972 0.0
H1867 H 0.28616 0.27702 0.39693 0.0
H1868 H 0.28313 0.20264 0.35358 0.0
H1869 H 0.29839 0.1768 0.40737 0.0
H1870 H 0.28329 0.16795 0.43475 0.0
H1871 H 0.22039 0.09484 0.42057 0.0
H1872 H 0.2344 0.10385 0.39307 0.0
H1873 H 0.36117 0.0679 0.32163 0.0
H1874 H 0.34627 0.11479 0.33642 0.0
H1875 H 0.27142 0.06283 0.3582 0.0
H1876 H 0.28859 0.01533 0.34459 0.0
H1877 H 0.28796 0.09763 0.3784 0.0
H1878 H 0.26752 0.12659 0.32457 0.0
H1879 H 0.28129 0.1356 0.297 0.0
H1880 H 0.35169 0.20181 0.3108 0.0
H1881 H 0.33852 0.19298 0.33845 0.0
C1882 C 0.22232 0.22999 0.40008 0.0
C1883 C 0.24141 0.25645 0.4027 0.0
C1884 C 0.23233 0.20501 0.39048 0.0
C1885 C 0.26197 0.2054 0.38326 0.0
C1886 C 0.28028 0.23271 0.38507 0.0
C1887 C 0.2703 0.25769 0.39478 0.0
C1888 C 0.27441 0.17682 0.37463 0.0
C1889 C 0.28437 0.17972 0.35907 0.0
C1890 C 0.27582 0.14648 0.38153 0.0
C1891 C 0.2672 0.14127 0.3981 0.0
C1892 C 0.28105 0.15909 0.41006 0.0
C1893 C 0.27271 0.15403 0.42561 0.0
C1894 C 0.25087 0.13088 0.42939 0.0
C1895 C 0.23725 0.11281 0.41763 0.0
C1896 C 0.24535 0.11793 0.40205 0.0
C1897 C 0.34158 0.0665 0.32962 0.0
C1898 C 0.32608 0.0377 0.33182 0.0
C1899 C 0.33262 0.09368 0.338 0.0
C1900 C 0.3067 0.09351 0.34829 0.0
C1901 C 0.29138 0.06443 0.35047 0.0
C1902 C 0.30117 0.03701 0.34257 0.0
C1903 C 0.29579 0.12292 0.357 0.0
C1904 C 0.28639 0.12033 0.37272 0.0
C1905 C 0.2945 0.15347 0.35017 0.0
C1906 C 0.30222 0.15891 0.33356 0.0
C1907 C 0.28601 0.14297 0.32171 0.0
C1908 C 0.2937 0.14805 0.30608 0.0
C1909 C 0.3174 0.1692 0.30216 0.0
C1910 C 0.33337 0.18541 0.31385 0.0
C1911 C 0.32578 0.1804 0.3295 0.0
H1912 H 0.32333 0.17308 0.29005 0.0
H1913 H 0.24458 0.12684 0.44143 0.0
H1914 H 0.99114 0.02229 0.14256 0.0
H1915 H 0.03244 0.04115 0.12466 0.0
H1916 H 0.09768 0.97538 0.14479 0.0
H1917 H 0.0566 0.95575 0.16202 0.0
H1918 H 0.11609 0.04525 0.14426 0.0
H1919 H 0.08101 0.95823 0.11205 0.0
H1920 H 0.0413 0.92881 0.09722 0.0
H1921 H 0.02438 1.00958 0.06842 0.0
H1922 H 0.0637 0.03965 0.08326 0.0
H1923 H 0.25793 0.0575 0.10225 0.0
H1924 H 0.21095 0.04055 0.11599 0.0
H1925 H 0.15353 0.07732 0.07887 0.0
H1926 H 0.2009 0.09313 0.06469 0.0
H1927 H 0.12738 0.02683 0.08748 0.0
H1928 H 0.16252 0.11382 0.11714 0.0
H1929 H 0.19979 0.14682 0.13168 0.0
H1930 H 0.21305 0.07297 0.16514 0.0
H1931 H 0.17617 0.03933 0.15067 0.0
C1932 C 0.01389 1.01096 0.1427 0.0
C1933 C 0.0202 0.98712 0.15367 0.0
C1934 C 0.03773 0.0221 0.1326 0.0
C1935 C 0.06856 1.01005 0.13344 0.0
C1936 C 0.07437 0.98535 0.14389 0.0
C1937 C 0.0506 0.97386 0.15365 0.0
C1938 C 0.09531 0.02374 0.12411 0.0
C1939 C 0.11865 0.04103 0.13186 0.0
C1940 C 0.09847 0.01933 0.10782 0.0
C1941 C 0.07495 1.0013 0.09889 0.0
C1942 C 0.06856 0.96982 0.10267 0.0
C1943 C 0.0462 0.953 0.09424 0.0
C1944 C 0.03024 0.96735 0.08192 0.0
C1945 C 0.0367 0.99852 0.07798 0.0
C1946 C 0.05903 0.01546 0.0864 0.0
C1947 C 0.23535 0.06221 0.09698 0.0
C1948 C 0.23353 0.07703 0.08232 0.0
C1949 C 0.2082 0.0526 0.10497 0.0
C1950 C 0.17803 0.05807 0.09882 0.0
C1951 C 0.17618 0.07272 0.08408 0.0
C1952 C 0.20344 0.08197 0.07596 0.0
C1953 C 0.14878 0.04809 0.10764 0.0
C1954 C 0.12491 0.03145 0.09985 0.0
C1955 C 0.14478 0.05371 0.12388 0.0
C1956 C 0.16676 0.07394 0.13273 0.0
C1957 C 0.17352 0.10454 0.12755 0.0
C1958 C 0.19456 0.12337 0.13578 0.0
C1959 C 0.20884 0.11197 0.1493 0.0
C1960 C 0.202 0.08175 0.15465 0.0
C1961 C 0.181 0.0628 0.14644 0.0
H1962 H 0.22514 0.12658 0.15565 0.0
H1963 H 0.01294 0.95429 0.0754 0.0
H1964 H 0.32224 0.77158 0.8927 0.0
H1965 H 0.30558 0.81364 0.87481 0.0
H1966 H 0.21469 0.81538 0.89677 0.0
H1967 H 0.23062 0.77243 0.91371 0.0
H1968 H 0.20306 0.82945 0.87016 0.0
H1969 H 0.28096 0.87164 0.90408 0.0
H1970 H 0.33218 0.87804 0.91702 0.0
H1971 H 0.37653 0.89098 0.87261 0.0
H1972 H 0.32565 0.88451 0.85938 0.0
H1973 H 0.17934 1.00024 0.85426 0.0
H1974 H 0.19548 0.95264 0.86849 0.0
H1975 H 0.23745 0.91574 0.82667 0.0
H1976 H 0.22048 0.96262 0.81226 0.0
H1977 H 0.27358 0.92035 0.86235 0.0
H1978 H 0.1872 0.87852 0.82999 0.0
H1979 H 0.13234 0.8803 0.82102 0.0
H1980 H 0.10035 0.87392 0.86835 0.0
H1981 H 0.15507 0.87273 0.8776 0.0
C1982 C 0.29835 0.78014 0.89328 0.0
C1983 C 0.2778 0.76821 0.90465 0.0
C1984 C 0.28894 0.80491 0.88326 0.0
C1985 C 0.25891 0.81897 0.88453 0.0
C1986 C 0.23796 0.80562 0.89531 0.0
C1987 C 0.24713 0.78071 0.90506 0.0
C1988 C 0.24916 0.84771 0.87507 0.0
C1989 C 0.21875 0.84918 0.86861 0.0
C1990 C 0.26887 0.87429 0.87286 0.0
C1991 C 0.2996 0.87712 0.88073 0.0
C1992 C 0.3017 0.8755 0.89707 0.0
C1993 C 0.33063 0.87922 0.90445 0.0
C1994 C 0.35758 0.88473 0.89564 0.0
C1995 C 0.35565 0.8866 0.87942 0.0
C1996 C 0.32679 0.88293 0.87197 0.0
C1997 C 0.1918 0.98192 0.84804 0.0
C1998 C 0.1983 0.98538 0.83201 0.0
C1999 C 0.20107 0.95465 0.85622 0.0
C2000 C 0.21768 0.93034 0.84871 0.0
C2001 C 0.22456 0.93393 0.83278 0.0
C2002 C 0.21467 0.96081 0.82451 0.0
C2003 C 0.22812 0.9014 0.85746 0.0
C2004 C 0.25838 0.90021 0.86386 0.0
C2005 C 0.20799 0.87558 0.86009 0.0
C2006 C 0.1752 0.87598 0.85449 0.0
C2007 C 0.16847 0.8779 0.83849 0.0
C2008 C 0.1374 0.87871 0.83335 0.0
C2009 C 0.11287 0.87734 0.84411 0.0
C2010 C 0.11936 0.87506 0.86003 0.0
C2011 C 0.15039 0.87431 0.86522 0.0
H2012 H 0.08884 0.87796 0.84011 0.0
H2013 H 0.37993 0.88767 0.90139 0.0
H2014 H 0.53174 0.99611 0.64085 0.0
H2015 H 0.4887 0.97987 0.62339 0.0
H2016 H 0.42971 0.05222 0.6428 0.0
H2017 H 0.47272 0.06914 0.65964 0.0
H2018 H 0.40512 0.98508 0.64355 0.0
H2019 H 0.44749 0.06478 0.6091 0.0
H2020 H 0.48947 0.08912 0.59356 0.0
H2021 H 0.4996 1.00421 0.56695 0.0
H2022 H 0.45794 0.9792 0.58252 0.0
H2023 H 0.26329 0.97591 0.6009 0.0
H2024 H 0.31078 0.99225 0.61449 0.0
H2025 H 0.36725 0.94706 0.57929 0.0
H2026 H 0.31962 0.93186 0.56528 0.0
H2027 H 0.39582 0.99706 0.58627 0.0
H2028 H 0.35496 0.91648 0.61849 0.0
H2029 H 0.31515 0.888 0.63371 0.0
H2030 H 0.30532 0.96709 0.66442 0.0
H2031 H 0.34484 0.99622 0.64927 0.0
C2032 C 0.51014 1.00952 0.64082 0.0
C2033 C 0.50619 0.03463 0.65137 0.0
C2034 C 0.48526 0.99987 0.63102 0.0
C2035 C 0.45559 0.01457 0.63181 0.0
C2036 C 0.45213 0.04034 0.6419 0.0
C2037 C 0.47703 0.05037 0.65137 0.0
C2038 C 0.42764 1.0024 0.62287 0.0
C2039 C 0.40298 0.98796 0.63104 0.0
C2040 C 0.42498 1.00499 0.60646 0.0
C2041 C 0.44991 0.02 0.5971 0.0
C2042 C 0.4589 0.05119 0.60005 0.0
C2043 C 0.48258 0.06514 0.59121 0.0
C2044 C 0.49727 0.04819 0.57931 0.0
C2045 C 0.48824 0.01728 0.5762 0.0
C2046 C 0.46459 1.00322 0.58502 0.0
C2047 C 0.28578 0.96931 0.59603 0.0
C2048 C 0.28732 0.95231 0.58195 0.0
C2049 C 0.31318 0.97854 0.60393 0.0
C2050 C 0.34322 0.97053 0.59826 0.0
C2051 C 0.34474 0.9537 0.58411 0.0
C2052 C 0.3173 0.94481 0.57608 0.0
C2053 C 0.37276 0.97997 0.60695 0.0
C2054 C 0.39781 0.99389 0.59877 0.0
C2055 C 0.37611 0.97619 0.62334 0.0
C2056 C 0.35268 0.95864 0.63266 0.0
C2057 C 0.3442 0.92787 0.62845 0.0
C2058 C 0.32169 0.9116 0.63706 0.0
C2059 C 0.30765 0.92576 0.65 0.0
C2060 C 0.3162 0.95617 0.65439 0.0
C2061 C 0.33869 0.97256 0.6458 0.0
H2062 H 0.2902 0.91315 0.65665 0.0
H2063 H 0.51559 0.05902 0.57247 0.0
H2064 H 0.64053 1.00191 0.97398 0.0
H2065 H 0.59543 0.02345 0.98753 0.0
H2066 H 0.5429 0.93989 0.97698 0.0
H2067 H 0.5883 0.91858 0.96251 0.0
H2068 H 0.50352 0.98533 0.97581 0.0
H2069 H 0.57849 0.9624 0.01635 0.0
H2070 H 0.62991 0.96494 0.0294 0.0
H2071 H 0.62293 0.06549 0.03168 0.0
H2072 H 0.57154 0.06358 0.01857 0.0
H2073 H 0.37869 0.02265 0.02762 0.0
H2074 H 0.42369 0.99981 0.01437 0.0
H2075 H 0.47954 0.07968 0.02756 0.0
H2076 H 0.43451 0.10149 0.04205 0.0
H2077 H 0.51755 0.03573 0.02739 0.0
H2078 H 0.44385 0.05978 0.98666 0.0
H2079 H 0.39296 0.05851 0.97304 0.0
H2080 H 0.39819 0.95788 0.97029 0.0
H2081 H 0.44893 0.95853 0.98403 0.0
C2082 C 0.61951 0.98777 0.97445 0.0
C2083 C 0.61882 0.95802 0.96704 0.0
C2084 C 0.59339 1.00022 0.98251 0.0
C2085 C 0.5652 0.98331 0.98407 0.0
C2086 C 0.56403 0.95381 0.97633 0.0
C2087 C 0.59024 0.94145 0.96795 0.0
C2088 C 0.53732 0.99671 0.99346 0.0
C2089 C 0.50677 0.99585 0.9872 0.0
C2090 C 0.54062 1.01171 0.00827 0.0
C2091 C 0.57128 1.01284 0.01637 0.0
C2092 C 0.58798 0.98505 0.01959 0.0
C2093 C 0.61712 0.98638 0.027 0.0
C2094 C 0.62973 0.01536 0.03132 0.0
C2095 C 0.61315 0.04307 0.02832 0.0
C2096 C 0.58398 0.04187 0.02093 0.0
C2097 C 0.40052 0.03555 0.02778 0.0
C2098 C 0.40235 0.06431 0.03598 0.0
C2099 C 0.42657 0.02248 0.01987 0.0
C2100 C 0.4557 0.03809 0.01909 0.0
C2101 C 0.4578 0.06668 0.02758 0.0
C2102 C 0.43178 0.07938 0.03596 0.0
C2103 C 0.4836 0.0244 0.00974 0.0
C2104 C 0.5142 0.02522 0.01601 0.0
C2105 C 0.4804 1.00959 0.99486 0.0
C2106 C 0.45005 1.0092 0.98649 0.0
C2107 C 0.43407 0.03739 0.98321 0.0
C2108 C 0.40526 0.03677 0.97546 0.0
C2109 C 0.39233 1.00813 0.97083 0.0
C2110 C 0.40822 0.98005 0.97389 0.0
C2111 C 0.43701 0.98052 0.98164 0.0
H2112 H 0.37002 1.00771 0.96485 0.0
H2113 H 0.65231 0.01632 0.03701 0.0
H2114 H 0.73208 0.67514 0.30654 0.0
H2115 H 0.75701 0.71836 0.29236 0.0
H2116 H 0.70586 0.69306 0.25096 0.0
H2117 H 0.68253 0.64883 0.26487 0.0
H2118 H 0.75685 0.70979 0.24072 0.0
H2119 H 0.69268 0.76528 0.27832 0.0
H2120 H 0.67403 0.77864 0.30474 0.0
H2121 H 0.76732 0.80481 0.31803 0.0
H2122 H 0.78654 0.79139 0.29172 0.0
H2123 H 0.79373 0.85066 0.19756 0.0
H2124 H 0.7695 0.80702 0.21169 0.0
H2125 H 0.81968 0.83348 0.25322 0.0
H2126 H 0.8422 0.87818 0.23933 0.0
H2127 H 0.76947 0.8159 0.26347 0.0
H2128 H 0.83351 0.76055 0.22568 0.0
H2129 H 0.85197 0.74683 0.19928 0.0
H2130 H 0.75866 0.72017 0.18629 0.0
H2131 H 0.73962 0.73396 0.21257 0.0
C2132 C 0.72576 0.67894 0.29446 0.0
C2133 C 0.70465 0.65819 0.28711 0.0
C2134 C 0.74006 0.70414 0.28624 0.0
C2135 C 0.73328 0.71044 0.27034 0.0
C2136 C 0.71206 0.68962 0.26307 0.0
C2137 C 0.6983 0.6641 0.27119 0.0
C2138 C 0.74841 0.73781 0.2612 0.0
C2139 C 0.75906 0.73303 0.24576 0.0
C2140 C 0.75268 0.76862 0.2674 0.0
C2141 C 0.74106 0.7771 0.28311 0.0
C2142 C 0.70921 0.7738 0.2869 0.0
C2143 C 0.69854 0.78138 0.30185 0.0
C2144 C 0.71949 0.79249 0.31306 0.0
C2145 C 0.75113 0.79618 0.30933 0.0
C2146 C 0.76191 0.78864 0.29441 0.0
C2147 C 0.79999 0.84703 0.20965 0.0
C2148 C 0.8205 0.86831 0.21706 0.0
C2149 C 0.7861 0.82156 0.21786 0.0
C2150 C 0.79279 0.81545 0.23378 0.0
C2151 C 0.81353 0.83675 0.24109 0.0
C2152 C 0.82681 0.86257 0.23299 0.0
C2153 C 0.77789 0.78794 0.24295 0.0
C2154 C 0.76728 0.79268 0.25841 0.0
C2155 C 0.77362 0.7571 0.23675 0.0
C2156 C 0.78512 0.74855 0.22103 0.0
C2157 C 0.81694 0.75187 0.21717 0.0
C2158 C 0.82749 0.74407 0.20223 0.0
C2159 C 0.80649 0.73271 0.1911 0.0
C2160 C 0.7749 0.729 0.19491 0.0
C2161 C 0.76422 0.73675 0.20983 0.0
H2162 H 0.8147 0.72674 0.17954 0.0
H2163 H 0.7112 0.79829 0.32463 0.0
H2164 H 0.93656 0.09634 0.45625 0.0
H2165 H 0.98244 0.07517 0.47017 0.0
H2166 H 0.92205 0.01485 0.49694 0.0
H2167 H 0.87671 0.0367 0.48375 0.0
H2168 H 0.96261 0.03058 0.51584 0.0
H2169 H 0.97601 0.99171 0.46329 0.0
H2170 H 0.98196 0.99671 0.4348 0.0
H2171 H 0.06389 0.05348 0.44125 0.0
H2172 H 0.05822 0.04908 0.46978 0.0
H2173 H 0.08486 0.93156 0.54812 0.0
H2174 H 0.03895 0.95273 0.53424 0.0
H2175 H 0.09948 1.01167 0.50677 0.0
H2176 H 0.14483 0.98958 0.51985 0.0
H2177 H 0.05875 0.99669 0.48821 0.0
H2178 H 0.04547 0.03585 0.5407 0.0
H2179 H 0.0397 0.031 0.5692 0.0
H2180 H 0.95778 0.97414 0.56295 0.0
H2181 H 0.96327 0.97839 0.53441 0.0
C2182 C 0.93299 0.07861 0.46511 0.0
C2183 C 0.90227 0.0686 0.46865 0.0
C2184 C 0.95955 0.0661 0.47309 0.0
C2185 C 0.95663 0.04251 0.48472 0.0
C2186 C 0.92588 0.03284 0.48824 0.0
C2187 C 0.89953 0.04554 0.48048 0.0
C2188 C 0.98482 0.02781 0.49333 0.0
C2189 C 0.98339 0.02292 0.50963 0.0
C2190 C 0.01291 0.01797 0.48577 0.0
C2191 C 0.01652 0.02031 0.46865 0.0
C2192 C 0.99521 1.00537 0.45862 0.0
C2193 C 0.99854 1.00809 0.44247 0.0
C2194 C 0.02324 0.02547 0.43622 0.0
C2195 C 0.04474 0.04006 0.4461 0.0
C2196 C 0.0415 0.03744 0.46226 0.0
C2197 C 0.08844 0.94898 0.53911 0.0
C2198 C 0.11919 0.95846 0.53529 0.0
C2199 C 0.06187 0.96152 0.53115 0.0
C2200 C 0.0648 0.98474 0.51934 0.0
C2201 C 0.09559 0.99395 0.5156 0.0
C2202 C 0.12196 0.98111 0.52328 0.0
C2203 C 0.0366 0.9995 0.51074 0.0
C2204 C 0.038 1.00438 0.49444 0.0
C2205 C 1.00852 1.0094 0.51831 0.0
C2206 C 1.00495 1.00721 0.53544 0.0
C2207 C 0.02631 0.02222 0.54542 0.0
C2208 C 0.02308 0.01958 0.56157 0.0
C2209 C 0.99843 1.00221 0.56788 0.0
C2210 C 0.97688 0.98755 0.55805 0.0
C2211 C 0.98002 0.99009 0.54189 0.0
H2212 H 0.996 1.00016 0.5804 0.0
H2213 H 0.02575 0.02757 0.42371 0.0
H2214 H 0.68879 0.14249 0.74097 0.0
H2215 H 0.71427 0.1853 0.75488 0.0
H2216 H 0.74288 0.22585 0.7112 0.0
H2217 H 0.71812 0.182 0.69716 0.0
H2218 H 0.78952 0.23313 0.73025 0.0
H2219 H 0.68055 0.25683 0.73696 0.0
H2220 H 0.62563 0.24691 0.74434 0.0
H2221 H 0.65395 0.22888 0.79151 0.0
H2222 H 0.7091 0.23831 0.78437 0.0
H2223 H 0.83526 0.38219 0.76218 0.0
H2224 H 0.81051 0.33866 0.74842 0.0
H2225 H 0.78446 0.29719 0.79228 0.0
H2226 H 0.80889 0.34141 0.80618 0.0
H2227 H 0.73673 0.29012 0.77331 0.0
H2228 H 0.84557 0.26651 0.76657 0.0
H2229 H 0.90048 0.27652 0.75921 0.0
H2230 H 0.87219 0.29466 0.71205 0.0
H2231 H 0.81705 0.28512 0.71917 0.0
C2232 C 0.70038 0.1604 0.73418 0.0
C2233 C 0.70097 0.15815 0.71772 0.0
C2234 C 0.71493 0.18545 0.74227 0.0
C2235 C 0.73058 0.20992 0.73436 0.0
C2236 C 0.73117 0.2078 0.71788 0.0
C2237 C 0.71661 0.18258 0.70975 0.0
C2238 C 0.74658 0.23702 0.74323 0.0
C2239 C 0.77755 0.2458 0.73948 0.0
C2240 C 0.73209 0.25369 0.75577 0.0
C2241 C 0.69898 0.24797 0.76009 0.0
C2242 C 0.67509 0.25052 0.74888 0.0
C2243 C 0.64391 0.24502 0.75303 0.0
C2244 C 0.63632 0.23718 0.76837 0.0
C2245 C 0.65987 0.2349 0.77962 0.0
C2246 C 0.69109 0.24035 0.77553 0.0
C2247 C 0.82449 0.36385 0.76904 0.0
C2248 C 0.82456 0.36589 0.78551 0.0
C2249 C 0.81031 0.33846 0.76103 0.0
C2250 C 0.7955 0.31359 0.76904 0.0
C2251 C 0.79554 0.31554 0.78553 0.0
C2252 C 0.80989 0.34098 0.79358 0.0
C2253 C 0.77958 0.28633 0.76027 0.0
C2254 C 0.74865 0.27749 0.76406 0.0
C2255 C 0.79408 0.26964 0.74775 0.0
C2256 C 0.82716 0.27543 0.74344 0.0
C2257 C 0.85104 0.27287 0.75466 0.0
C2258 C 0.8822 0.27841 0.75052 0.0
C2259 C 0.88981 0.28631 0.73518 0.0
C2260 C 0.86626 0.28859 0.72393 0.0
C2261 C 0.83505 0.28309 0.72801 0.0
H2262 H 0.91395 0.2906 0.73201 0.0
H2263 H 0.61217 0.23294 0.77156 0.0
H2264 H 0.24007 0.13161 0.77177 0.0
H2265 H 0.2619 0.17769 0.75895 0.0
H2266 H 0.19844 0.23732 0.78446 0.0
H2267 H 0.17668 0.19067 0.79782 0.0
H2268 H 0.20386 0.25537 0.75179 0.0
H2269 H 0.27259 0.23776 0.79454 0.0
H2270 H 0.30664 0.20688 0.812 0.0
H2271 H 0.3674 0.18478 0.77362 0.0
H2272 H 0.33343 0.2152 0.75587 0.0
H2273 H 0.28726 0.3998 0.7355 0.0
H2274 H 0.26398 0.35479 0.74893 0.0
H2275 H 0.31991 0.29172 0.72121 0.0
H2276 H 0.34255 0.33699 0.70719 0.0
H2277 H 0.31786 0.27631 0.75541 0.0
H2278 H 0.24866 0.29338 0.71264 0.0
H2279 H 0.21471 0.32443 0.69522 0.0
H2280 H 0.15491 0.3479 0.73377 0.0
H2281 H 0.18883 0.31731 0.7515 0.0
C2282 C 0.23045 0.1544 0.77476 0.0
C2283 C 0.20623 0.15678 0.786 0.0
C2284 C 0.24324 0.18108 0.76734 0.0
C2285 C 0.23222 0.21166 0.77053 0.0
C2286 C 0.20767 0.21431 0.78159 0.0
C2287 C 0.19521 0.18744 0.78935 0.0
C2288 C 0.24695 0.24022 0.76244 0.0
C2289 C 0.2287 0.2601 0.75286 0.0
C2290 C 0.27964 0.24668 0.76324 0.0
C2291 C 0.30028 0.2285 0.77384 0.0
C2292 C 0.29307 0.2261 0.78979 0.0
C2293 C 0.31238 0.20872 0.79975 0.0
C2294 C 0.33912 0.1938 0.79391 0.0
C2295 C 0.34665 0.19632 0.77811 0.0
C2296 C 0.32739 0.21366 0.7681 0.0
C2297 C 0.29487 0.37642 0.7322 0.0
C2298 C 0.3172 0.37257 0.72014 0.0
C2299 C 0.28129 0.35044 0.73995 0.0
C2300 C 0.28989 0.31927 0.73631 0.0
C2301 C 0.31261 0.31523 0.72445 0.0
C2302 C 0.32561 0.34132 0.71634 0.0
C2303 C 0.2748 0.29137 0.74475 0.0
C2304 C 0.293 0.27162 0.75439 0.0
C2305 C 0.24208 0.28508 0.74402 0.0
C2306 C 0.22151 0.30338 0.73344 0.0
C2307 C 0.22845 0.30542 0.71744 0.0
C2308 C 0.20918 0.32288 0.7075 0.0
C2309 C 0.18273 0.33823 0.7134 0.0
C2310 C 0.17545 0.33604 0.72924 0.0
C2311 C 0.19468 0.31862 0.73924 0.0
H2312 H 0.16783 0.35174 0.70568 0.0
H2313 H 0.35405 0.18035 0.80164 0.0
H2314 H 0.18114 0.69199 0.20132 0.0
H2315 H 0.20384 0.73632 0.21568 0.0
H2316 H 0.24895 0.67143 0.24714 0.0
H2317 H 0.22422 0.62768 0.23358 0.0
H2318 H 0.2379 0.71459 0.26422 0.0
H2319 H 0.28572 0.72366 0.21344 0.0
H2320 H 0.28657 0.72894 0.1848 0.0
H2321 H 0.2338 0.81478 0.18808 0.0
H2322 H 0.23241 0.80985 0.21671 0.0
H2323 H 0.33931 0.83358 0.29842 0.0
H2324 H 0.31816 0.788 0.28418 0.0
H2325 H 0.26202 0.8501 0.25599 0.0
H2326 H 0.28335 0.89505 0.26969 0.0
H2327 H 0.28043 0.80811 0.2374 0.0
H2328 H 0.23375 0.79818 0.28856 0.0
H2329 H 0.23534 0.79307 0.31718 0.0
H2330 H 0.28936 0.70818 0.31295 0.0
H2331 H 0.28836 0.71299 0.2843 0.0
C2332 C 0.19595 0.68712 0.21127 0.0
C2333 C 0.20053 0.65573 0.21611 0.0
C2334 C 0.20949 0.7128 0.21954 0.0
C2335 C 0.22941 0.70829 0.23265 0.0
C2336 C 0.23396 0.67672 0.23732 0.0
C2337 C 0.2197 0.65126 0.22938 0.0
C2338 C 0.24504 0.73573 0.24166 0.0
C2339 C 0.24755 0.73464 0.25813 0.0
C2340 C 0.25764 0.76308 0.23436 0.0
C2341 C 0.25872 0.76622 0.21719 0.0
C2342 C 0.27421 0.74358 0.20803 0.0
C2343 C 0.27478 0.74652 0.19181 0.0
C2344 C 0.26018 0.77213 0.18462 0.0
C2345 C 0.24507 0.79494 0.19365 0.0
C2346 C 0.24441 0.7921 0.20988 0.0
C2347 C 0.32242 0.83762 0.28922 0.0
C2348 C 0.31335 0.86874 0.28551 0.0
C2349 C 0.30999 0.81123 0.28102 0.0
C2350 C 0.28767 0.81471 0.26883 0.0
C2351 C 0.27899 0.84582 0.26513 0.0
C2352 C 0.29138 0.87196 0.2732 0.0
C2353 C 0.27325 0.78678 0.25983 0.0
C2354 C 0.27091 0.78787 0.2434 0.0
C2355 C 0.26114 0.75932 0.26714 0.0
C2356 C 0.26119 0.75608 0.28431 0.0
C2357 C 0.24605 0.77849 0.29375 0.0
C2358 C 0.24685 0.77565 0.30997 0.0
C2359 C 0.2625 0.75036 0.31688 0.0
C2360 C 0.27727 0.72777 0.30758 0.0
C2361 C 0.27657 0.73052 0.29135 0.0
H2362 H 0.26314 0.74823 0.32944 0.0
H2363 H 0.26061 0.77434 0.17206 0.0
H2364 H 0.88044 0.53071 0.52392 0.0
H2365 H 0.92628 0.50934 0.51068 0.0
H2366 H 0.98461 0.57784 0.53329 0.0
H2367 H 0.93818 0.59935 0.54698 0.0
H2368 H 1.00151 0.57051 0.50139 0.0
H2369 H 0.9882 0.50173 0.5446 0.0
H2370 H 0.95916 0.4672 0.56252 0.0
H2371 H 0.93679 0.40546 0.52457 0.0
H2372 H 0.96542 0.43987 0.50637 0.0
H2373 H 0.14741 0.49277 0.48361 0.0
H2374 H 0.1019 0.51501 0.49699 0.0
H2375 H 0.04144 0.4521 0.47192 0.0
H2376 H 0.08732 0.4302 0.45796 0.0
H2377 H 0.02609 0.45674 0.50524 0.0
H2378 H 0.03926 0.52567 0.46204 0.0
H2379 H 0.06847 0.5601 0.44415 0.0
H2380 H 0.09139 0.62145 0.48217 0.0
H2381 H 0.06261 0.58711 0.50035 0.0
C2382 C 0.9029 0.54151 0.52621 0.0
C2383 C 0.90494 0.56711 0.53672 0.0
C2384 C 0.92947 0.52896 0.51855 0.0
C2385 C 0.95965 0.54149 0.52079 0.0
C2386 C 0.96195 0.56735 0.53116 0.0
C2387 C 0.9352 0.57967 0.53913 0.0
C2388 C 0.98817 0.52714 0.51238 0.0
C2389 C 1.00702 0.54572 0.50251 0.0
C2390 C 0.99567 0.4945 0.51321 0.0
C2391 C 0.97871 0.47353 0.5241 0.0
C2392 C 0.97691 0.4809 0.54006 0.0
C2393 C 0.96056 0.46134 0.55027 0.0
C2394 C 0.94607 0.4342 0.54468 0.0
C2395 C 0.94801 0.42651 0.52888 0.0
C2396 C 0.96433 0.44602 0.51861 0.0
C2397 C 0.12452 0.48343 0.48084 0.0
C2398 C 0.12164 0.45932 0.46955 0.0
C2399 C 0.0982 0.49642 0.48858 0.0
C2400 C 0.06758 0.48558 0.4857 0.0
C2401 C 0.06448 0.46118 0.47456 0.0
C2402 C 0.09092 0.44864 0.46646 0.0
C2403 C 0.03935 0.50009 0.49424 0.0
C2404 C 0.02058 0.48153 0.50414 0.0
C2405 C 0.03196 0.53274 0.49345 0.0
C2406 C 0.04907 0.55363 0.48259 0.0
C2407 C 0.05075 0.54636 0.46662 0.0
C2408 C 0.06718 0.56589 0.45642 0.0
C2409 C 0.08187 0.5929 0.46203 0.0
C2410 C 0.08004 0.60049 0.47785 0.0
C2411 C 0.06363 0.58102 0.48811 0.0
H2412 H 0.0946 0.60798 0.45412 0.0
H2413 H 0.9334 0.41909 0.55261 0.0
H2414 H 0.59167 0.4682 0.05724 0.0
H2415 H 0.54728 0.49257 0.04354 0.0
H2416 H 0.58851 0.46716 0.99948 0.0
H2417 H 0.63287 0.4433 0.01308 0.0
H2418 H 0.56629 0.52169 0.99525 0.0
H2419 H 0.51782 0.43089 0.01728 0.0
H2420 H 0.50078 0.3936 0.03754 0.0
H2421 H 0.45063 0.46747 0.06091 0.0
H2422 H 0.46769 0.50531 0.04088 0.0
H2423 H 0.43053 0.55781 0.94808 0.0
H2424 H 0.47486 0.53383 0.96192 0.0
H2425 H 0.43263 0.55866 0.00585 0.0
H2426 H 0.38799 0.58166 0.99207 0.0
H2427 H 0.45564 0.50557 0.0104 0.0
H2428 H 0.50392 0.59576 0.98767 0.0
H2429 H 0.51974 0.63206 0.96672 0.0
H2430 H 0.56934 0.55728 0.94377 0.0
H2431 H 0.55353 0.52044 0.9645 0.0
C2432 C 0.59124 0.4674 0.04463 0.0
C2433 C 0.61643 0.4533 0.03648 0.0
C2434 C 0.56546 0.48144 0.03668 0.0
C2435 C 0.5635 0.4819 0.02018 0.0
C2436 C 0.58867 0.46766 0.01209 0.0
C2437 C 0.61435 0.45369 0.02001 0.0
C2438 C 0.53607 0.49755 0.01133 0.0
C2439 C 0.54212 0.5175 0.9985 0.0
C2440 C 0.50396 0.49345 0.01541 0.0
C2441 C 0.49442 0.47102 0.02771 0.0
C2442 C 0.50347 0.43926 0.02684 0.0
C2443 C 0.49372 0.418 0.03826 0.0
C2444 C 0.47473 0.42818 0.05054 0.0
C2445 C 0.46542 0.45964 0.05142 0.0
C2446 C 0.47512 0.481 0.04004 0.0
C2447 C 0.43072 0.55854 0.96069 0.0
C2448 C 0.40522 0.57227 0.96875 0.0
C2449 C 0.4565 0.54478 0.96873 0.0
C2450 C 0.45825 0.54442 0.98523 0.0
C2451 C 0.43271 0.5582 0.99324 0.0
C2452 C 0.40691 0.57174 0.98522 0.0
C2453 C 0.48579 0.52914 0.99416 0.0
C2454 C 0.47978 0.50943 0.00706 0.0
C2455 C 0.5179 0.53327 0.99007 0.0
C2456 C 0.52728 0.55528 0.97755 0.0
C2457 C 0.51801 0.58701 0.97809 0.0
C2458 C 0.52702 0.60769 0.96627 0.0
C2459 C 0.54547 0.59697 0.9539 0.0
C2460 C 0.55501 0.56554 0.95335 0.0
C2461 C 0.54606 0.54476 0.96513 0.0
H2462 H 0.55244 0.61302 0.94477 0.0
H2463 H 0.46716 0.41168 0.05934 0.0
H2464 H 0.24157 0.77122 0.95985 0.0
H2465 H 0.23844 0.80958 0.98105 0.0
H2466 H 0.33841 0.80261 0.98769 0.0
H2467 H 0.34145 0.7636 0.96671 0.0
H2468 H 0.30732 0.815 0.01533 0.0
H2469 H 0.31134 0.85369 0.96316 0.0
H2470 H 0.29444 0.85634 0.93575 0.0
H2471 H 0.2045 0.89142 0.94999 0.0
H2472 H 0.22041 0.88778 0.97758 0.0
H2473 H 0.33027 0.97226 0.04308 0.0
H2474 H 0.33168 0.92054 0.03073 0.0
H2475 H 0.23422 0.93059 0.01808 0.0
H2476 H 0.23356 0.98326 0.02951 0.0
H2477 H 0.26603 0.91524 0.99396 0.0
H2478 H 0.26483 0.87598 0.04727 0.0
H2479 H 0.28525 0.87359 0.07414 0.0
H2480 H 0.3747 0.84283 0.05693 0.0
H2481 H 0.35491 0.84538 0.02995 0.0
C2482 C 0.26266 0.77719 0.96619 0.0
C2483 C 0.29177 0.76487 0.96163 0.0
C2484 C 0.26089 0.79902 0.97826 0.0
C2485 C 0.2883 0.80934 0.98567 0.0
C2486 C 0.31703 0.79495 0.98208 0.0
C2487 C 0.31875 0.77275 0.97011 0.0
C2488 C 0.28757 0.83813 0.99529 0.0
C2489 C 0.29835 0.83698 0.01071 0.0
C2490 C 0.27622 0.86681 0.98911 0.0
C2491 C 0.26696 0.8701 0.97248 0.0
C2492 C 0.28787 0.86175 0.96047 0.0
C2493 C 0.27847 0.86342 0.94489 0.0
C2494 C 0.24844 0.87408 0.94112 0.0
C2495 C 0.22775 0.88312 0.95293 0.0
C2496 C 0.23691 0.88117 0.96855 0.0
C2497 C 0.30895 0.96291 0.03807 0.0
C2498 C 0.28172 0.98137 0.03729 0.0
C2499 C 0.30974 0.93335 0.03102 0.0
C2500 C 0.28295 0.92145 0.02358 0.0
C2501 C 0.25519 0.93928 0.02371 0.0
C2502 C 0.25469 0.96918 0.03034 0.0
C2503 C 0.28447 0.89202 0.01435 0.0
C2504 C 0.27441 0.8932 0.99878 0.0
C2505 C 0.29694 0.86361 0.02035 0.0
C2506 C 0.30842 0.86099 0.0366 0.0
C2507 C 0.28886 0.86874 0.04923 0.0
C2508 C 0.30033 0.86738 0.06447 0.0
C2509 C 0.33126 0.85809 0.06723 0.0
C2510 C 0.35074 0.85 0.05477 0.0
C2511 C 0.33939 0.85133 0.03951 0.0
H2512 H 0.34012 0.85715 0.07904 0.0
H2513 H 0.24122 0.87536 0.92905 0.0
H2514 H 0.0392 0.53969 0.22771 0.0
H2515 H 1.0026 0.54749 0.24957 0.0
H2516 H 0.9247 0.53628 0.21816 0.0
H2517 H 0.95972 0.53065 0.19666 0.0
H2518 H 0.92064 0.59032 0.23426 0.0
H2519 H 0.94278 0.47967 0.24326 0.0
H2520 H 0.97318 0.43258 0.25057 0.0
H2521 H 0.99647 0.47484 0.29448 0.0
H2522 H 0.96639 0.52238 0.28734 0.0
H2523 H 0.77945 0.53236 0.25823 0.0
H2524 H 0.8339 0.535 0.24997 0.0
H2525 H 0.85959 0.57505 0.2943 0.0
H2526 H 0.80434 0.57265 0.30274 0.0
H2527 H 0.90039 0.52082 0.27946 0.0
H2528 H 0.85912 0.62506 0.26973 0.0
H2529 H 0.81846 0.66202 0.26055 0.0
H2530 H 0.82437 0.62274 0.21456 0.0
H2531 H 0.86463 0.58521 0.2235 0.0
C2532 C 0.01428 0.53879 0.22546 0.0
C2533 C 1.00284 0.53447 0.21017 0.0
C2534 C 0.99342 0.54305 0.23802 0.0
C2535 C 0.96092 0.54292 0.23542 0.0
C2536 C 0.94967 0.53685 0.22044 0.0
C2537 C 0.97013 0.53303 0.20805 0.0
C2538 C 0.93766 0.55096 0.24763 0.0
C2539 C 0.91654 0.57546 0.24432 0.0
C2540 C 0.93263 0.53204 0.26093 0.0
C2541 C 0.95282 0.50475 0.26466 0.0
C2542 C 0.9549 0.47918 0.25434 0.0
C2543 C 0.97188 0.45233 0.25849 0.0
C2544 C 0.98667 0.45071 0.27298 0.0
C2545 C 0.98496 0.47614 0.28326 0.0
C2546 C 0.96799 0.50305 0.27916 0.0
C2547 C 0.79663 0.54154 0.26631 0.0
C2548 C 0.78772 0.5525 0.28108 0.0
C2549 C 0.82772 0.54302 0.26157 0.0
C2550 C 0.85057 0.55547 0.27149 0.0
C2551 C 0.84213 0.56543 0.28651 0.0
C2552 C 0.81071 0.56409 0.29128 0.0
C2553 C 0.88276 0.55887 0.26546 0.0
C2554 C 0.90546 0.53674 0.26992 0.0
C2555 C 0.88877 0.5792 0.2528 0.0
C2556 C 0.865 0.60233 0.24731 0.0
C2557 C 0.85168 0.62423 0.25767 0.0
C2558 C 0.82869 0.64528 0.25251 0.0
C2559 C 0.81888 0.64477 0.23698 0.0
C2560 C 0.83204 0.62319 0.22658 0.0
C2561 C 0.85501 0.60206 0.23168 0.0
H2562 H 0.80108 0.66109 0.23301 0.0
H2563 H 0.9992 0.42961 0.27629 0.0
H2564 H 0.28395 0.03673 0.52146 0.0
H2565 H 0.28353 0.09034 0.51123 0.0
H2566 H 0.19922 0.11041 0.53716 0.0
H2567 H 0.19989 0.05677 0.54773 0.0
H2568 H 0.19756 0.121 0.50323 0.0
H2569 H 0.25771 0.1481 0.54838 0.0
H2570 H 0.30041 0.13967 0.56726 0.0
H2571 H 0.3684 0.15018 0.53077 0.0
H2572 H 0.32607 0.15822 0.51162 0.0
H2573 H 0.19521 0.27051 0.46918 0.0
H2574 H 0.1964 0.23307 0.49073 0.0
H2575 H 0.28734 0.20041 0.47579 0.0
H2576 H 0.28664 0.23836 0.45437 0.0
H2577 H 0.28148 0.20089 0.50799 0.0
H2578 H 0.22657 0.16415 0.46296 0.0
H2579 H 0.18744 0.16617 0.44188 0.0
H2580 H 0.11325 0.16783 0.47568 0.0
H2581 H 0.15206 0.16627 0.49699 0.0
C2582 C 0.26583 0.05286 0.52529 0.0
C2583 C 0.24203 0.04287 0.53538 0.0
C2584 C 0.26559 0.08337 0.51946 0.0
C2585 C 0.24137 0.10416 0.5235 0.0
C2586 C 0.21813 0.09461 0.53401 0.0
C2587 C 0.21867 0.06416 0.54008 0.0
C2588 C 0.2392 0.13477 0.51557 0.0
C2589 C 0.2153 0.13899 0.50458 0.0
C2590 C 0.26313 0.1574 0.517 0.0
C2591 C 0.2887 0.15369 0.52856 0.0
C2592 C 0.28177 0.14852 0.54437 0.0
C2593 C 0.3059 0.1438 0.55512 0.0
C2594 C 0.3371 0.14437 0.55022 0.0
C2595 C 0.34422 0.14978 0.53456 0.0
C2596 C 0.32017 0.15449 0.52375 0.0
C2597 C 0.21593 0.25611 0.47079 0.0
C2598 C 0.2408 0.2572 0.46006 0.0
C2599 C 0.21646 0.23462 0.48304 0.0
C2600 C 0.24179 0.21383 0.4847 0.0
C2601 C 0.26761 0.21633 0.47468 0.0
C2602 C 0.26708 0.2378 0.4624 0.0
C2603 C 0.23981 0.18715 0.49563 0.0
C2604 C 0.26309 0.18348 0.50701 0.0
C2605 C 0.21567 0.16456 0.49434 0.0
C2606 C 0.19223 0.16554 0.48157 0.0
C2607 C 0.20192 0.16524 0.4659 0.0
C2608 C 0.17981 0.16625 0.45391 0.0
C2609 C 0.14787 0.16725 0.45744 0.0
C2610 C 0.138 0.16715 0.47297 0.0
C2611 C 0.16005 0.1662 0.48501 0.0
H2612 H 0.13077 0.168 0.44814 0.0
H2613 H 0.35576 0.14063 0.55855 0.0
H2614 H 0.51278 0.43709 0.71537 0.0
H2615 H 0.55263 0.43685 0.73581 0.0
H2616 H 0.5658 0.53659 0.72955 0.0
H2617 H 0.52666 0.53657 0.7087 0.0
H2618 H 0.61862 0.5064 0.72635 0.0
H2619 H 0.5349 0.50263 0.76417 0.0
H2620 H 0.48684 0.48133 0.77605 0.0
H2621 H 0.53269 0.39254 0.78319 0.0
H2622 H 0.58089 0.41316 0.77117 0.0
H2623 H 0.73814 0.52631 0.77937 0.0
H2624 H 0.68541 0.52979 0.76854 0.0
H2625 H 0.67332 0.43012 0.77557 0.0
H2626 H 0.72583 0.427 0.78726 0.0
H2627 H 0.61881 0.45975 0.7793 0.0
H2628 H 0.69947 0.45957 0.74054 0.0
H2629 H 0.74765 0.4768 0.72722 0.0
H2630 H 0.70748 0.56829 0.72008 0.0
H2631 H 0.65924 0.55176 0.73356 0.0
C2632 C 0.52356 0.45909 0.71871 0.0
C2633 C 0.51687 0.48684 0.71048 0.0
C2634 C 0.54624 0.45897 0.73043 0.0
C2635 C 0.56215 0.48673 0.73427 0.0
C2636 C 0.55387 0.51488 0.72675 0.0
C2637 C 0.53155 0.5149 0.71488 0.0
C2638 C 0.59029 0.48569 0.74438 0.0
C2639 C 0.61844 0.49687 0.73807 0.0
C2640 C 0.59041 0.47172 0.75936 0.0
C2641 C 0.56145 0.4594 0.76667 0.0
C2642 C 0.53467 0.4785 0.76817 0.0
C2643 C 0.50741 0.46656 0.77495 0.0
C2644 C 0.5067 0.43559 0.78034 0.0
C2645 C 0.53327 0.41652 0.779 0.0
C2646 C 0.56058 0.42834 0.77223 0.0
C2647 C 0.72385 0.50533 0.77898 0.0
C2648 C 0.73585 0.47637 0.78402 0.0
C2649 C 0.69386 0.50727 0.77271 0.0
C2650 C 0.67581 0.48005 0.77082 0.0
C2651 C 0.68695 0.45138 0.77684 0.0
C2652 C 0.71683 0.44959 0.78352 0.0
C2653 C 0.64677 0.48126 0.76137 0.0
C2654 C 0.61872 0.46974 0.76767 0.0
C2655 C 0.64669 0.49442 0.74621 0.0
C2656 C 0.67585 0.50451 0.73821 0.0
C2657 C 0.70102 0.48344 0.73625 0.0
C2658 C 0.72832 0.49307 0.72865 0.0
C2659 C 0.73066 0.52364 0.72284 0.0
C2660 C 0.70567 0.54464 0.72461 0.0
C2661 C 0.67834 0.53515 0.73222 0.0
H2662 H 0.7518 0.53103 0.71694 0.0
H2663 H 0.48557 0.42639 0.78558 0.0
H2664 H 0.69096 0.04883 0.96601 0.0
H2665 H 0.68956 0.09943 0.97925 0.0
H2666 H 0.79056 0.09819 0.98264 0.0
H2667 H 0.79149 0.04584 0.97068 0.0
H2668 H 0.76821 0.11188 0.0089 0.0
H2669 H 0.74197 0.15036 0.95684 0.0
H2670 H 0.71018 0.14977 0.93284 0.0
H2671 H 0.62736 0.1697 0.95952 0.0
H2672 H 0.65858 0.17006 0.98369 0.0
H2673 H 0.78162 0.25787 0.04411 0.0
H2674 H 0.78484 0.21936 0.02292 0.0
H2675 H 0.68389 0.21415 0.02168 0.0
H2676 H 0.68075 0.25375 0.04236 0.0
H2677 H 0.70661 0.2058 0.99332 0.0
H2678 H 0.72677 0.16388 0.04409 0.0
H2679 H 0.75309 0.16118 0.06964 0.0
H2680 H 0.84114 0.14358 0.04702 0.0
H2681 H 0.81543 0.14675 0.02131 0.0
C2682 C 0.71288 0.05986 0.96921 0.0
C2683 C 0.74141 0.044 0.96717 0.0
C2684 C 0.7121 0.08888 0.97673 0.0
C2685 C 0.74002 0.10316 0.98165 0.0
C2686 C 0.76872 0.08775 0.9789 0.0
C2687 C 0.76935 0.05808 0.97196 0.0
C2688 C 0.73919 0.13248 0.99101 0.0
C2689 C 0.75539 0.13267 0.00524 0.0
C2690 C 0.72107 0.15909 0.98671 0.0
C2691 C 0.70263 0.16018 0.97207 0.0
C2692 C 0.71699 0.15464 0.95758 0.0
C2693 C 0.69906 0.1543 0.94395 0.0
C2694 C 0.66678 0.15968 0.94465 0.0
C2695 C 0.65237 0.16557 0.95898 0.0
C2696 C 0.67018 0.16593 0.97264 0.0
C2697 C 0.76022 0.2491 0.03894 0.0
C2698 C 0.73097 0.25845 0.04476 0.0
C2699 C 0.76202 0.22707 0.02694 0.0
C2700 C 0.7346 0.21337 0.02101 0.0
C2701 C 0.70531 0.22437 0.02611 0.0
C2702 C 0.70351 0.2469 0.0379 0.0
C2703 C 0.73649 0.18536 0.01083 0.0
C2704 C 0.72009 0.18524 0.99667 0.0
C2705 C 0.75384 0.15845 0.01532 0.0
C2706 C 0.76924 0.1559 0.03078 0.0
C2707 C 0.75178 0.15961 0.04457 0.0
C2708 C 0.76658 0.158 0.05907 0.0
C2709 C 0.79878 0.15229 0.05995 0.0
C2710 C 0.81621 0.14806 0.04632 0.0
C2711 C 0.80154 0.14977 0.03178 0.0
H2712 H 0.8102 0.15108 0.07119 0.0
H2713 H 0.65293 0.15929 0.9341 0.0
H2714 H 0.22972 0.5365 0.71704 0.0
H2715 H 0.17843 0.53575 0.72968 0.0
H2716 H 0.1735 0.43536 0.72288 0.0
H2717 H 0.22441 0.43632 0.70968 0.0
H2718 H 0.11655 0.46001 0.72161 0.0
H2719 H 0.20278 0.46528 0.7567 0.0
H2720 H 0.25143 0.48487 0.76872 0.0
H2721 H 0.20665 0.57317 0.77855 0.0
H2722 H 0.15784 0.55426 0.76642 0.0
H2723 H 0.02214 0.42897 0.78931 0.0
H2724 H 0.06036 0.43115 0.76807 0.0
H2725 H 0.06566 0.53191 0.77319 0.0
H2726 H 0.02823 0.52956 0.79478 0.0
H2727 H 0.12162 0.50586 0.77469 0.0
H2728 H 0.03219 0.49411 0.73992 0.0
H2729 H 0.98476 0.46744 0.73029 0.0
H2730 H 0.03788 0.38302 0.72247 0.0
H2731 H 0.08554 0.40908 0.73218 0.0
C2732 C 0.21709 0.5145 0.71774 0.0
C2733 C 0.23083 0.48645 0.71249 0.0
C2734 C 0.188 0.51402 0.72509 0.0
C2735 C 0.17266 0.48536 0.72764 0.0
C2736 C 0.18507 0.4577 0.72112 0.0
C2737 C 0.21402 0.45827 0.7135 0.0
C2738 C 0.14549 0.48398 0.73834 0.0
C2739 C 0.11765 0.46991 0.73325 0.0
C2740 C 0.14707 0.49665 0.75358 0.0
C2741 C 0.17674 0.50847 0.76047 0.0
C2742 C 0.20341 0.48901 0.76126 0.0
C2743 C 0.23099 0.49995 0.76813 0.0
C2744 C 0.23215 0.53026 0.77436 0.0
C2745 C 0.20574 0.54971 0.7737 0.0
C2746 C 0.17811 0.53889 0.76683 0.0
C2747 C 0.03091 0.45162 0.78559 0.0
C2748 C 0.02241 0.47911 0.79361 0.0
C2749 C 0.05266 0.45287 0.77344 0.0
C2750 C 0.06573 0.48174 0.76896 0.0
C2751 C 0.05589 0.5094 0.77646 0.0
C2752 C 0.03453 0.50809 0.78874 0.0
C2753 C 0.09223 0.48285 0.75782 0.0
C2754 C 0.12025 0.49649 0.76295 0.0
C2755 C 0.091 0.46898 0.74284 0.0
C2756 C 0.06237 0.4535 0.73687 0.0
C2757 C 0.0337 0.46982 0.73622 0.0
C2758 C 1.00679 0.45482 0.73073 0.0
C2759 C 1.0083 0.42355 0.72579 0.0
C2760 C 0.03674 0.40724 0.72629 0.0
C2761 C 0.06371 0.42213 0.73176 0.0
H2762 H 0.98744 0.41197 0.72156 0.0
H2763 H 0.25347 0.53864 0.77974 0.0
H2764 H 0.80483 0.96814 0.45024 0.0
H2765 H 0.8093 0.91483 0.46106 0.0
H2766 H 0.75256 0.94282 0.50031 0.0
H2767 H 0.74781 0.99567 0.48959 0.0
H2768 H 0.81387 0.91826 0.50755 0.0
H2769 H 0.72143 0.89623 0.47597 0.0
H2770 H 0.69409 0.89425 0.45069 0.0
H2771 H 0.76332 0.82988 0.43315 0.0
H2772 H 0.79132 0.83183 0.4583 0.0
H2773 H 0.74523 0.79519 0.5493 0.0
H2774 H 0.74738 0.83235 0.52769 0.0
H2775 H 0.83432 0.79122 0.51216 0.0
H2776 H 0.83364 0.75521 0.53436 0.0
H2777 H 0.76896 0.81736 0.48924 0.0
H2778 H 0.86186 0.83926 0.52139 0.0
H2779 H 0.88946 0.84393 0.54651 0.0
H2780 H 0.82144 0.91153 0.56211 0.0
H2781 H 0.79268 0.90617 0.53733 0.0
C2782 C 0.79261 0.96255 0.46094 0.0
C2783 C 0.77612 0.98588 0.46916 0.0
C2784 C 0.7953 0.93226 0.46711 0.0
C2785 C 0.78153 0.92524 0.48152 0.0
C2786 C 0.7635 0.94802 0.48921 0.0
C2787 C 0.76067 0.97809 0.48304 0.0
C2788 C 0.78771 0.89519 0.48943 0.0
C2789 C 0.80434 0.89612 0.50347 0.0
C2790 C 0.77596 0.86635 0.48383 0.0
C2791 C 0.7586 0.86439 0.46894 0.0
C2792 C 0.7309 0.88178 0.46669 0.0
C2793 C 0.71528 0.88065 0.45239 0.0
C2794 C 0.727 0.86201 0.44031 0.0
C2795 C 0.75429 0.84433 0.44252 0.0
C2796 C 0.77002 0.84541 0.4568 0.0
C2797 C 0.76482 0.79392 0.5413 0.0
C2798 C 0.78957 0.7726 0.54377 0.0
C2799 C 0.76576 0.81487 0.52885 0.0
C2800 C 0.7911 0.81449 0.5185 0.0
C2801 C 0.81462 0.79175 0.52012 0.0
C2802 C 0.81405 0.77111 0.53277 0.0
C2803 C 0.79457 0.8407 0.5075 0.0
C2804 C 0.77951 0.83924 0.49299 0.0
C2805 C 0.80808 0.86917 0.51255 0.0
C2806 C 0.82479 0.8718 0.52763 0.0
C2807 C 0.8524 0.85456 0.53031 0.0
C2808 C 0.86829 0.85739 0.54448 0.0
C2809 C 0.85707 0.87782 0.55596 0.0
C2810 C 0.82997 0.89552 0.55327 0.0
C2811 C 0.81378 0.89247 0.53919 0.0
H2812 H 0.86946 0.88009 0.5669 0.0
H2813 H 0.71492 0.86123 0.42923 0.0
H2814 H 0.53754 0.53264 0.28022 0.0
H2815 H 0.50055 0.52885 0.2582 0.0
H2816 H 0.42963 0.57489 0.28589 0.0
H2817 H 0.46611 0.57902 0.3076 0.0
H2818 H 0.41728 0.50988 0.27332 0.0
H2819 H 0.45647 0.61575 0.25977 0.0
H2820 H 0.49799 0.65164 0.25085 0.0
H2821 H 0.51088 0.59592 0.2096 0.0
H2822 H 0.46963 0.55948 0.2184 0.0
H2823 H 0.27834 0.56779 0.24893 0.0
H2824 H 0.33191 0.56157 0.25799 0.0
H2825 H 0.36211 0.54039 0.21112 0.0
H2826 H 0.3079 0.54799 0.20181 0.0
H2827 H 0.40451 0.57667 0.22637 0.0
H2828 H 0.35331 0.48017 0.2373 0.0
H2829 H 0.31115 0.44529 0.24648 0.0
H2830 H 0.32132 0.48143 0.29291 0.0
H2831 H 0.3631 0.51688 0.28399 0.0
C2832 C 0.51425 0.54254 0.28138 0.0
C2833 C 0.50438 0.55567 0.29561 0.0
C2834 C 0.49326 0.54033 0.26887 0.0
C2835 C 0.46247 0.5514 0.27057 0.0
C2836 C 0.45332 0.56609 0.28446 0.0
C2837 C 0.47409 0.56832 0.29684 0.0
C2838 C 0.43818 0.54523 0.25882 0.0
C2839 C 0.4145 0.52415 0.26293 0.0
C2840 C 0.43548 0.56293 0.24499 0.0
C2841 C 0.46037 0.58467 0.23985 0.0
C2842 C 0.46843 0.61095 0.2489 0.0
C2843 C 0.49183 0.63145 0.24383 0.0
C2844 C 0.50716 0.62599 0.22969 0.0
C2845 C 0.49906 0.60007 0.22057 0.0
C2846 C 0.47567 0.5795 0.22558 0.0
C2847 C 0.29645 0.56215 0.24051 0.0
C2848 C 0.2892 0.55811 0.22473 0.0
C2849 C 0.32699 0.55832 0.24571 0.0
C2850 C 0.35076 0.5494 0.23531 0.0
C2851 C 0.34394 0.54682 0.21934 0.0
C2852 C 0.31317 0.55128 0.21404 0.0
C2853 C 0.38243 0.54297 0.24155 0.0
C2854 C 0.40759 0.56137 0.23636 0.0
C2855 C 0.38657 0.5227 0.25448 0.0
C2856 C 0.36145 0.5012 0.25994 0.0
C2857 C 0.34647 0.48079 0.24945 0.0
C2858 C 0.32261 0.46091 0.25461 0.0
C2859 C 0.31357 0.46114 0.27026 0.0
C2860 C 0.32837 0.48123 0.28079 0.0
C2861 C 0.3522 0.50117 0.27569 0.0
H2862 H 0.29509 0.44574 0.27423 0.0
H2863 H 0.52525 0.64191 0.22579 0.0
H2864 H 0.74646 0.48604 0.52029 0.0
H2865 H 0.75007 0.43216 0.51042 0.0
H2866 H 0.83144 0.41567 0.53907 0.0
H2867 H 0.8274 0.46945 0.54937 0.0
H2868 H 0.83427 0.40438 0.50325 0.0
H2869 H 0.77883 0.37658 0.55022 0.0
H2870 H 0.73674 0.38465 0.5695 0.0
H2871 H 0.66752 0.36922 0.53406 0.0
H2872 H 0.70922 0.36153 0.5145 0.0
H2873 H 0.83939 0.25618 0.46769 0.0
H2874 H 0.83988 0.29132 0.49034 0.0
H2875 H 0.74538 0.32066 0.47981 0.0
H2876 H 0.74462 0.28528 0.4574 0.0
H2877 H 0.75567 0.32016 0.51115 0.0
H2878 H 0.80323 0.35972 0.46448 0.0
H2879 H 0.83975 0.358 0.44224 0.0
H2880 H 0.91793 0.35801 0.4737 0.0
H2881 H 0.88176 0.35915 0.49617 0.0
C2882 C 0.76462 0.47065 0.52477 0.0
C2883 C 0.78649 0.48163 0.53565 0.0
C2884 C 0.76671 0.44002 0.51911 0.0
C2885 C 0.79099 0.42016 0.52407 0.0
C2886 C 0.8125 0.43077 0.53521 0.0
C2887 C 0.81002 0.46129 0.54113 0.0
C2888 C 0.79463 0.38907 0.51673 0.0
C2889 C 0.81781 0.38545 0.50531 0.0
C2890 C 0.77228 0.36518 0.51907 0.0
C2891 C 0.74716 0.36856 0.5309 0.0
C2892 C 0.75463 0.37501 0.54653 0.0
C2893 C 0.73084 0.37952 0.5575 0.0
C2894 C 0.69947 0.37747 0.553 0.0
C2895 C 0.69183 0.37077 0.53753 0.0
C2896 C 0.71554 0.36626 0.5265 0.0
C2897 C 0.81844 0.26944 0.47052 0.0
C2898 C 0.79216 0.26855 0.4607 0.0
C2899 C 0.81876 0.28949 0.48341 0.0
C2900 C 0.79283 0.30887 0.48658 0.0
C2901 C 0.76563 0.30593 0.47755 0.0
C2902 C 0.76533 0.28599 0.46467 0.0
C2903 C 0.79537 0.33536 0.49763 0.0
C2904 C 0.77306 0.33839 0.50955 0.0
C2905 C 0.81796 0.35924 0.49544 0.0
C2906 C 0.83982 0.35904 0.482 0.0
C2907 C 0.82821 0.35909 0.46666 0.0
C2908 C 0.84883 0.35825 0.45401 0.0
C2909 C 0.88114 0.35778 0.45656 0.0
C2910 C 0.89289 0.35827 0.47176 0.0
C2911 C 0.87234 0.35899 0.48445 0.0
H2912 H 0.89708 0.35713 0.44675 0.0
H2913 H 0.68108 0.38106 0.56151 0.0
H2914 H 0.46104 0.04044 0.69456 0.0
H2915 H 0.42681 0.04215 0.71671 0.0
H2916 H 0.50603 0.03716 0.74775 0.0
H2917 H 0.54125 0.03194 0.72525 0.0
H2918 H 0.45482 1.00428 0.75904 0.0
H2919 H 0.47277 0.10853 0.74054 0.0
H2920 H 0.47887 0.14895 0.72019 0.0
H2921 H 0.38364 0.13506 0.70578 0.0
H2922 H 0.37706 0.09427 0.72588 0.0
H2923 H 0.31371 0.06185 0.80526 0.0
H2924 H 0.36846 0.06468 0.79602 0.0
H2925 H 0.34043 0.02481 0.75201 0.0
H2926 H 0.28666 0.02118 0.76113 0.0
H2927 H 0.37775 0.09166 0.75544 0.0
H2928 H 0.37238 0.97493 0.76544 0.0
H2929 H 0.36311 0.93257 0.78452 0.0
H2930 H 0.43249 0.97214 0.8149 0.0
H2931 H 0.4418 0.01496 0.79603 0.0
C2932 C 0.47164 0.03835 0.70596 0.0
C2933 C 0.50433 0.03584 0.70791 0.0
C2934 C 0.45179 0.04009 0.71872 0.0
C2935 C 0.46392 0.04095 0.73386 0.0
C2936 C 0.49627 0.0371 0.73611 0.0
C2937 C 0.51635 0.03442 0.72321 0.0
C2938 C 0.44216 0.04697 0.74698 0.0
C2939 C 0.43864 0.02397 0.75857 0.0
C2940 C 0.42103 0.07277 0.74645 0.0
C2941 C 0.42441 0.09839 0.7348 0.0
C2942 C 0.45311 0.11413 0.73305 0.0
C2943 C 0.45667 0.13707 0.72154 0.0
C2944 C 0.43165 0.1446 0.71172 0.0
C2945 C 0.40297 0.12929 0.71343 0.0
C2946 C 0.39928 0.10632 0.72492 0.0
C2947 C 0.31952 0.05326 0.79373 0.0
C2948 C 0.2961 0.04126 0.78391 0.0
C2949 C 0.35059 0.05498 0.78848 0.0
C2950 C 0.35816 0.045 0.77336 0.0
C2951 C 0.33488 0.03255 0.76373 0.0
C2952 C 0.30422 0.03041 0.76899 0.0
C2953 C 0.38986 0.04835 0.76685 0.0
C2954 C 0.39506 0.07304 0.75642 0.0
C2955 C 0.4124 0.02429 0.76842 0.0
C2956 C 0.40764 0.9981 0.77943 0.0
C2957 C 0.38556 0.97458 0.77622 0.0
C2958 C 0.38029 0.95053 0.78698 0.0
C2959 C 0.39717 0.94969 0.80092 0.0
C2960 C 0.41942 0.97284 0.8041 0.0
C2961 C 0.42471 0.99699 0.79338 0.0
H2962 H 0.39303 0.93108 0.80926 0.0
H2963 H 0.43449 0.16228 0.70277 0.0
H2964 H 0.77279 0.53927 0.02863 0.0
H2965 H 0.77127 0.5928 0.0183 0.0
H2966 H 0.67403 0.60084 0.03138 0.0
H2967 H 0.67571 0.54729 0.04219 0.0
H2968 H 0.69065 0.61187 0.99815 0.0
H2969 H 0.71701 0.64545 0.04964 0.0
H2970 H 0.74708 0.64353 0.07413 0.0
H2971 H 0.83126 0.66633 0.04927 0.0
H2972 H 0.80177 0.66789 0.02457 0.0
H2973 H 0.68237 0.76292 0.96581 0.0
H2974 H 0.67915 0.72522 0.98734 0.0
H2975 H 0.77753 0.70429 0.98218 0.0
H2976 H 0.78075 0.7417 0.96054 0.0
H2977 H 0.75526 0.70322 0.01403 0.0
H2978 H 0.73209 0.66388 0.96283 0.0
H2979 H 0.70445 0.66402 0.93761 0.0
H2980 H 0.61713 0.64776 0.96097 0.0
H2981 H 0.644 0.64895 0.98642 0.0
C2982 C 0.75136 0.55281 0.0297 0.0
C2983 C 0.72442 0.53944 0.03625 0.0
C2984 C 0.75051 0.58329 0.02379 0.0
C2985 C 0.72255 0.60063 0.02411 0.0
C2986 C 0.69582 0.58775 0.03113 0.0
C2987 C 0.69686 0.55738 0.03738 0.0
C2988 C 0.72095 0.63096 0.0158 0.0
C2989 C 0.70404 0.6322 1.00182 0.0
C2990 C 0.73941 0.65686 0.02038 0.0
C2991 C 0.75719 0.6566 0.03523 0.0
C2992 C 0.74197 0.64986 0.04938 0.0
C2993 C 0.75891 0.64886 0.0633 0.0
C2994 C 0.79107 0.65476 0.06325 0.0
C2995 C 0.80634 0.66177 0.04928 0.0
C2996 C 0.78951 0.66276 0.03532 0.0
C2997 C 0.70347 0.75098 0.96962 0.0
C2998 C 0.73173 0.75487 0.96151 0.0
C2999 C 0.70161 0.72949 0.98187 0.0
C3000 C 0.72805 0.71187 0.98621 0.0
C3001 C 0.75692 0.71775 0.979 0.0
C3002 C 0.75869 0.73892 0.96662 0.0
C3003 C 0.72469 0.68422 0.99646 0.0
C3004 C 0.7411 0.68326 0.01061 0.0
C3005 C 0.70609 0.6583 0.99193 0.0
C3006 C 0.68999 0.6571 0.97659 0.0
C3007 C 0.70694 0.66081 0.96263 0.0
C3008 C 0.69143 0.6606 0.94829 0.0
C3009 C 0.6591 0.65595 0.9477 0.0
C3010 C 0.64218 0.6515 0.96146 0.0
C3011 C 0.65751 0.65207 0.97585 0.0
H3012 H 0.64716 0.6557 0.93658 0.0
H3013 H 0.80415 0.65393 0.07405 0.0
H3014 H 0.24997 0.98956 0.25466 0.0
H3015 H 0.19675 0.99006 0.24477 0.0
H3016 H 0.16185 1.01166 0.29081 0.0
H3017 H 0.21567 1.00855 0.30105 0.0
H3018 H 0.12477 0.97147 0.27777 0.0
H3019 H 0.16786 0.0691 0.26017 0.0
H3020 H 0.20833 0.10246 0.24815 0.0
H3021 H 0.19759 0.0533 0.20479 0.0
H3022 H 0.1575 0.01928 0.21661 0.0
H3023 H 0.99034 0.01752 0.22159 0.0
H3024 H 0.02817 0.02393 0.24312 0.0
H3025 H 0.08489 0.94944 0.22382 0.0
H3026 H 0.04744 0.94294 0.20258 0.0
H3027 H 0.10276 0.02774 0.22833 0.0
H3028 H 0.07275 0.92187 0.24921 0.0
H3029 H 0.03402 0.88667 0.26133 0.0
H3030 H 0.02041 0.95286 0.29851 0.0
H3031 H 0.05841 0.98887 0.28632 0.0
C3032 C 0.231 0.99485 0.26265 0.0
C3033 C 0.23678 0.99972 0.27853 0.0
C3034 C 0.20055 0.99525 0.25698 0.0
C3035 C 0.1753 1.00207 0.26692 0.0
C3036 C 0.18101 1.00679 0.28289 0.0
C3037 C 0.21163 1.00527 0.2887 0.0
C3038 C 0.14311 1.00335 0.26047 0.0
C3039 C 0.11979 0.98439 0.26715 0.0
C3040 C 0.13639 0.02029 0.24664 0.0
C3041 C 0.15956 0.04169 0.23929 0.0
C3042 C 0.17409 0.06544 0.24807 0.0
C3043 C 0.19703 0.08441 0.24129 0.0
C3044 C 0.20548 0.08003 0.22571 0.0
C3045 C 0.19092 0.05676 0.21684 0.0
C3046 C 0.16805 0.03765 0.22357 0.0
C3047 C 1.01038 1.00191 0.22235 0.0
C3048 C 0.01629 0.97983 0.21055 0.0
C3049 C 0.0318 1.00549 0.23459 0.0
C3050 C 0.0589 0.98675 0.23511 0.0
C3051 C 0.06372 0.96358 0.22377 0.0
C3052 C 0.04252 0.96004 0.21162 0.0
C3053 C 0.08536 0.99496 0.24528 0.0
C3054 C 0.10755 0.01581 0.23925 0.0
C3055 C 0.09104 0.97974 0.25959 0.0
C3056 C 0.06785 0.95833 0.26668 0.0
C3057 C 0.06102 0.9292 0.25978 0.0
C3058 C 0.03928 0.90905 0.2667 0.0
C3059 C 0.02452 0.91765 0.28061 0.0
C3060 C 0.03161 0.94635 0.28766 0.0
C3061 C 0.05318 0.96666 0.28074 0.0
H3062 H 1.00777 0.90199 0.28597 0.0
H3063 H 0.22334 0.09465 0.22051 0.0
H3064 H 0.18057 0.75606 0.54257 0.0
H3065 H 0.18079 0.71756 0.52128 0.0
H3066 H 0.28172 0.72042 0.51998 0.0
H3067 H 0.28156 0.75825 0.54167 0.0
H3068 H 0.24146 0.71454 0.48825 0.0
H3069 H 0.26864 0.66868 0.53844 0.0
H3070 H 0.26131 0.66319 0.56681 0.0
H3071 H 0.16714 0.63137 0.55946 0.0
H3072 H 0.17374 0.63741 0.53102 0.0
H3073 H 0.28315 0.5478 0.47316 0.0
H3074 H 0.28065 0.6003 0.48486 0.0
H3075 H 0.18199 0.60553 0.47438 0.0
H3076 H 0.18467 0.55346 0.46206 0.0
H3077 H 0.21973 0.60922 0.51069 0.0
H3078 H 0.19547 0.65474 0.45916 0.0
H3079 H 0.20683 0.65946 0.43108 0.0
H3080 H 0.30032 0.68986 0.44149 0.0
H3081 H 0.28959 0.68477 0.46966 0.0
C3082 C 0.20268 0.74916 0.53736 0.0
C3083 C 0.23104 0.7599 0.54355 0.0
C3084 C 0.20279 0.72733 0.52525 0.0
C3085 C 0.23126 0.71643 0.51913 0.0
C3086 C 0.25958 0.72897 0.52451 0.0
C3087 C 0.25949 0.75035 0.53685 0.0
C3088 C 0.23144 0.68837 0.50915 0.0
C3089 C 0.23674 0.69151 0.49311 0.0
C3090 C 0.22535 0.65846 0.5156 0.0
C3091 C 0.22152 0.65394 0.53264 0.0
C3092 C 0.24627 0.66083 0.54289 0.0
C3093 C 0.24227 0.65757 0.55897 0.0
C3094 C 0.21373 0.64705 0.56494 0.0
C3095 C 0.1892 0.63961 0.55482 0.0
C3096 C 0.19305 0.64296 0.53871 0.0
C3097 C 0.26124 0.56073 0.47285 0.0
C3098 C 0.2342 0.54705 0.46659 0.0
C3099 C 0.25981 0.59049 0.47957 0.0
C3100 C 0.2312 0.60659 0.48035 0.0
C3101 C 0.20434 0.59349 0.47361 0.0
C3102 C 0.20594 0.56397 0.46652 0.0
C3103 C 0.22909 0.63542 0.48972 0.0
C3104 C 0.22387 0.63232 0.50576 0.0
C3105 C 0.2356 0.66519 0.48329 0.0
C3106 C 0.24184 0.66906 0.46645 0.0
C3107 C 0.21852 0.66216 0.45544 0.0
C3108 C 0.22482 0.66495 0.43952 0.0
C3109 C 0.25431 0.67487 0.4345 0.0
C3110 C 0.2775 0.68214 0.4454 0.0
C3111 C 0.27132 0.67934 0.46134 0.0
H3112 H 0.25917 0.67698 0.42217 0.0
H3113 H 0.21066 0.64457 0.5774 0.0
H3114 H 0.71472 0.95838 0.19991 0.0
H3115 H 0.65937 0.95828 0.20845 0.0
H3116 H 0.68816 0.98666 0.25449 0.0
H3117 H 0.74255 0.98761 0.24608 0.0
H3118 H 0.64451 0.92581 0.24789 0.0
H3119 H 0.66331 0.04151 0.24199 0.0
H3120 H 0.67697 0.08642 0.22516 0.0
H3121 H 0.60319 0.06157 0.19351 0.0
H3122 H 0.58943 0.01622 0.2101 0.0
H3123 H 0.56256 0.97913 0.3094 0.0
H3124 H 0.59785 0.97485 0.28759 0.0
H3125 H 0.52152 0.99113 0.25568 0.0
H3126 H 0.48565 0.99813 0.27786 0.0
H3127 H 0.5766 0.02071 0.24642 0.0
H3128 H 0.54727 0.91651 0.26073 0.0
H3129 H 0.53591 0.87375 0.27925 0.0
H3130 H 0.63099 0.87582 0.29548 0.0
H3131 H 0.64284 0.91886 0.27724 0.0
C3132 C 0.709 0.96473 0.21179 0.0
C3133 C 0.73273 0.97308 0.22234 0.0
C3134 C 0.67757 0.96471 0.21662 0.0
C3135 C 0.66996 0.97258 0.23205 0.0
C3136 C 0.69371 0.98069 0.24251 0.0
C3137 C 0.72473 0.98125 0.23768 0.0
C3138 C 0.63759 0.97164 0.23796 0.0
C3139 C 0.62919 0.94618 0.24735 0.0
C3140 C 0.61761 0.99805 0.23697 0.0
C3141 C 0.62564 0.02536 0.22714 0.0
C3142 C 0.65022 0.0455 0.23137 0.0
C3143 C 0.65793 0.07104 0.22189 0.0
C3144 C 0.64103 0.07678 0.20824 0.0
C3145 C 0.61631 0.05704 0.20407 0.0
C3146 C 0.60856 0.03142 0.21349 0.0
C3147 C 0.55306 0.98289 0.29786 0.0
C3148 C 0.52103 0.98927 0.29551 0.0
C3149 C 0.57336 0.97977 0.28532 0.0
C3150 C 0.56216 0.98172 0.27001 0.0
C3151 C 0.53051 0.98909 0.26744 0.0
C3152 C 0.51004 0.99285 0.28012 0.0
C3153 C 0.58415 0.97536 0.25702 0.0
C3154 C 0.59075 0.9995 0.24638 0.0
C3155 C 0.60266 0.94762 0.25692 0.0
C3156 C 0.59595 0.92088 0.26754 0.0
C3157 C 0.56576 0.90784 0.26824 0.0
C3158 C 0.55923 0.88358 0.27872 0.0
C3159 C 0.58272 0.87205 0.28852 0.0
C3160 C 0.61283 0.8847 0.28784 0.0
C3161 C 0.6195 0.90897 0.2774 0.0
H3162 H 0.57758 0.85333 0.29665 0.0
H3163 H 0.64703 0.09657 0.20092 0.0
H3164 H 0.29263 0.49178 0.99692 0.0
H3165 H 0.29565 0.43731 0.00515 0.0
H3166 H 0.32448 0.40963 0.95896 0.0
H3167 H 0.3219 0.46515 0.95051 0.0
H3168 H 0.26898 0.37378 0.97818 0.0
H3169 H 0.37835 0.40307 0.9787 0.0
H3170 H 0.42319 0.43773 0.98423 0.0
H3171 H 0.40012 0.43733 0.03291 0.0
H3172 H 0.35473 0.40332 0.02766 0.0
H3173 H 0.28081 0.23658 0.02905 0.0
H3174 H 0.28916 0.27195 0.00685 0.0
H3175 H 0.3064 0.34849 0.0387 0.0
H3176 H 0.3005 0.3134 0.06059 0.0
H3177 H 0.34956 0.34734 0.01768 0.0
H3178 H 0.23529 0.33789 0.01786 0.0
H3179 H 0.18581 0.30848 0.01554 0.0
H3180 H 0.21225 0.27753 0.96974 0.0
H3181 H 0.26203 0.30662 0.97186 0.0
C3182 C 0.29957 0.47422 0.98843 0.0
C3183 C 0.30715 0.4826 0.97308 0.0
C3184 C 0.30127 0.44312 0.99318 0.0
C3185 C 0.3104 0.41969 0.98267 0.0
C3186 C 0.31742 0.42762 0.96719 0.0
C3187 C 0.31603 0.45914 0.96241 0.0
C3188 C 0.31281 0.38728 0.98856 0.0
C3189 C 0.2871 0.36729 0.98645 0.0
C3190 C 0.33608 0.37953 0.99961 0.0
C3191 C 0.36312 0.40053 0.00275 0.0
C3192 C 0.38264 0.4106 0.99056 0.0
C3193 C 0.40817 0.43012 0.99365 0.0
C3194 C 0.41452 0.43959 0.00891 0.0
C3195 C 0.3952 0.42986 0.0211 0.0
C3196 C 0.36959 0.41045 0.01807 0.0
C3197 C 0.28654 0.26093 0.03128 0.0
C3198 C 0.2898 0.2721 0.04665 0.0
C3199 C 0.29105 0.28114 0.01858 0.0
C3200 C 0.2985 0.31284 0.02111 0.0
C3201 C 0.30092 0.32406 0.03643 0.0
C3202 C 0.29697 0.30396 0.049 0.0
C3203 C 0.30463 0.33495 0.00814 0.0
C3204 C 0.33207 0.35291 0.00893 0.0
C3205 C 0.28235 0.34147 0.99636 0.0
C3206 C 0.25253 0.32399 0.99511 0.0
C3207 C 0.23064 0.3246 0.00735 0.0
C3208 C 0.20253 0.30805 0.00606 0.0
C3209 C 0.19596 0.29103 0.99253 0.0
C3210 C 0.21742 0.29065 0.98023 0.0
C3211 C 0.24557 0.30716 0.98147 0.0
H3212 H 0.17419 0.27823 0.99155 0.0
H3213 H 0.43446 0.45435 0.0113 0.0
H3214 H 0.77907 0.03615 0.74524 0.0
H3215 H 0.83342 0.03901 0.75359 0.0
H3216 H 0.85997 0.07544 0.70863 0.0
H3217 H 0.80468 0.07339 0.70017 0.0
H3218 H 0.89493 0.01385 0.72929 0.0
H3219 H 0.87121 0.12608 0.72533 0.0
H3220 H 0.83611 0.17177 0.72873 0.0
H3221 H 0.82992 0.15285 0.77776 0.0
H3222 H 0.86448 0.10671 0.77461 0.0
H3223 H 0.03364 0.02967 0.77794 0.0
H3224 H 0.99741 0.03647 0.75593 0.0
H3225 H 0.92339 0.06085 0.78805 0.0
H3226 H 0.95929 0.05608 0.80967 0.0
H3227 H 0.92306 0.10035 0.76532 0.0
H3228 H 0.93109 0.98685 0.77052 0.0
H3229 H 0.9579 0.93541 0.77022 0.0
H3230 H 0.98626 0.95069 0.72283 0.0
H3231 H 0.95992 1.00244 0.72292 0.0
C3232 C 0.79641 0.04462 0.73705 0.0
C3233 C 0.78779 0.05457 0.72206 0.0
C3234 C 0.82741 0.04624 0.74185 0.0
C3235 C 0.85045 0.05747 0.73172 0.0
C3236 C 0.84228 0.06677 0.71656 0.0
C3237 C 0.81088 0.06563 0.71179 0.0
C3238 C 0.88267 0.05991 0.73767 0.0
C3239 C 0.90192 0.03322 0.73673 0.0
C3240 C 0.89084 0.08479 0.74775 0.0
C3241 C 0.87032 0.1128 0.74969 0.0
C3242 C 0.86214 0.13149 0.73681 0.0
C3243 C 0.84237 0.15751 0.7387 0.0
C3244 C 0.83076 0.16519 0.75344 0.0
C3245 C 0.83893 0.14689 0.76634 0.0
C3246 C 0.85863 0.12082 0.76451 0.0
C3247 C 1.00966 0.03661 0.78025 0.0
C3248 C 0.99935 0.04196 0.79562 0.0
C3249 C 0.98896 0.04031 0.76768 0.0
C3250 C 0.95768 0.04923 0.77034 0.0
C3251 C 0.94745 0.05418 0.78566 0.0
C3252 C 0.96799 0.05088 0.7981 0.0
C3253 C 0.93491 0.05364 0.75747 0.0
C3254 C 0.91728 0.08159 0.75726 0.0
C3255 C 0.92766 0.02945 0.74674 0.0
C3256 C 0.94406 0.99872 0.74682 0.0
C3257 C 0.94339 0.9794 0.7601 0.0
C3258 C 0.95841 0.95016 0.75996 0.0
C3259 C 0.97391 0.93986 0.74654 0.0
C3260 C 0.97436 0.95876 0.73323 0.0
C3261 C 0.95942 0.98805 0.73333 0.0
H3262 H 0.98547 0.91718 0.74644 0.0
H3263 H 0.81548 0.18535 0.75488 0.0
loop_
_geom_bond_atom_site_label_1
_geom_bond_atom_site_label_2
_geom_bond_distance
_geom_bond_site_symmetry_2
_ccdc_geom_bond_type
O0 Tb1 2.292 . S
O0 C3 1.255 1_554 S
Tb1 O0 2.292 . S
Tb1 O17 2.326 . S
Tb1 O19 2.500 . S
Tb1 O20 2.473 . S
Tb1 O23 2.324 . S
Eu2 O6 2.292 . S
Eu2 C7 2.852 . S
Eu2 O18 2.324 . S
Eu2 O22 2.326 . S
Eu2 O24 2.500 . S
Eu2 O25 2.473 . S
C3 O0 1.255 1_556 S
C3 O4 1.247 . S
O4 C3 1.247 . S
C5 O17 1.242 . S
C5 O18 1.258 . S
O6 Eu2 2.292 . S
O6 C8 1.255 . S
C7 Eu2 2.852 . S
C7 C11 1.503 . S
C7 O24 1.273 . S
C7 O25 1.257 . S
C8 O6 1.255 . S
C8 O9 1.247 . S
O9 C8 1.247 . S
C10 O22 1.242 . S
C10 O23 1.258 . S
C11 C7 1.503 . S
C11 C12 1.379 . S
C11 C16 1.392 . S
C12 C11 1.379 . S
C12 C13 1.404 . S
C12 H26 0.929 . S
C13 C12 1.404 . S
C13 C14 1.389 . S
C14 C13 1.389 . S
C14 C15 1.399 . S
C14 H27 0.931 . S
C15 C14 1.399 . S
C15 C16 1.390 . S
C16 C11 1.392 . S
C16 C15 1.390 . S
C16 H28 0.929 . S
O17 Tb1 2.326 . S
O17 C5 1.242 . S
O18 Eu2 2.324 . S
O18 C5 1.258 . S
O19 Tb1 2.500 . S
O19 C21 1.273 . S
O20 Tb1 2.473 . S
O20 C21 1.257 . S
C21 O19 1.273 . S
C21 O20 1.257 . S
O22 Eu2 2.326 . S
O22 C10 1.242 . S
O23 Tb1 2.324 . S
O23 C10 1.258 . S
O24 Eu2 2.500 . S
O24 C7 1.273 . S
O25 Eu2 2.473 . S
O25 C7 1.257 . S
H26 C12 0.929 . S
H27 C14 0.931 . S
H28 C16 0.929 . S
O29 Tb30 2.292 . S
O29 C32 1.255 . S
Tb30 O29 2.292 . S
Tb30 O46 2.326 . S
Tb30 O48 2.500 . S
Tb30 O49 2.473 . S
Tb30 O52 2.324 . S
Eu31 O35 2.292 . S
Eu31 C36 2.852 . S
Eu31 O47 2.324 . S
Eu31 O51 2.326 . S
Eu31 O53 2.500 . S
Eu31 O54 2.473 . S
C32 O29 1.255 . S
C32 O33 1.247 . S
O33 C32 1.247 . S
C34 O46 1.242 . S
C34 O47 1.258 . S
O35 Eu31 2.292 . S
O35 C37 1.255 . S
C36 Eu31 2.852 . S
C36 C40 1.503 . S
C36 O53 1.273 . S
C36 O54 1.257 . S
C37 O35 1.255 . S
C37 O38 1.247 . S
O38 C37 1.247 . S
C39 O51 1.242 . S
C39 O52 1.258 . S
C40 C36 1.503 . S
C40 C41 1.379 . S
C40 C45 1.392 . S
C41 C40 1.379 . S
C41 C42 1.404 . S
C41 H55 0.929 . S
C42 C41 1.404 . S
C42 C43 1.389 . S
C43 C42 1.389 . S
C43 C44 1.399 . S
C43 H56 0.931 . S
C44 C43 1.399 . S
C44 C45 1.390 . S
C45 C40 1.392 . S
C45 C44 1.390 . S
C45 H57 0.929 . S
O46 Tb30 2.326 . S
O46 C34 1.242 . S
O47 Eu31 2.324 . S
O47 C34 1.258 . S
O48 Tb30 2.500 . S
O48 C50 1.273 . S
O49 Tb30 2.473 . S
O49 C50 1.257 . S
C50 O48 1.273 . S
C50 O49 1.257 . S
O51 Eu31 2.326 . S
O51 C39 1.242 . S
O52 Tb30 2.324 . S
O52 C39 1.258 . S
O53 Eu31 2.500 . S
O53 C36 1.273 . S
O54 Eu31 2.473 . S
O54 C36 1.257 . S
H55 C41 0.929 . S
H56 C43 0.931 . S
H57 C45 0.929 . S
O58 Tb59 2.292 . S
O58 C61 1.255 . S
Tb59 O58 2.292 . S
Tb59 O75 2.326 . S
Tb59 O77 2.500 . S
Tb59 O78 2.473 . S
Tb59 O81 2.324 . S
Eu60 O64 2.292 . S
Eu60 C65 2.852 . S
Eu60 O76 2.324 . S
Eu60 O80 2.326 . S
Eu60 O82 2.500 . S
Eu60 O83 2.473 . S
C61 O58 1.255 . S
C61 O62 1.247 . S
O62 C61 1.247 . S
C63 O75 1.242 . S
C63 O76 1.258 . S
O64 Eu60 2.292 . S
O64 C66 1.255 . S
C65 Eu60 2.852 . S
C65 C69 1.503 . S
C65 O82 1.273 . S
C65 O83 1.257 . S
C66 O64 1.255 . S
C66 O67 1.247 . S
O67 C66 1.247 . S
C68 O80 1.242 . S
C68 O81 1.258 . S
C69 C65 1.503 . S
C69 C70 1.379 . S
C69 C74 1.392 . S
C70 C69 1.379 . S
C70 C71 1.404 . S
C70 H84 0.929 . S
C71 C70 1.404 . S
C71 C72 1.389 . S
C72 C71 1.389 . S
C72 C73 1.399 . S
C72 H85 0.931 . S
C73 C72 1.399 . S
C73 C74 1.390 . S
C74 C69 1.392 . S
C74 C73 1.390 . S
C74 H86 0.929 . S
O75 Tb59 2.326 . S
O75 C63 1.242 . S
O76 Eu60 2.324 . S
O76 C63 1.258 . S
O77 Tb59 2.500 . S
O77 C79 1.273 . S
O78 Tb59 2.473 . S
O78 C79 1.257 . S
C79 O77 1.273 . S
C79 O78 1.257 . S
O80 Eu60 2.326 . S
O80 C68 1.242 . S
O81 Tb59 2.324 . S
O81 C68 1.258 . S
O82 Eu60 2.500 . S
O82 C65 1.273 . S
O83 Eu60 2.473 . S
O83 C65 1.257 . S
H84 C70 0.929 . S
H85 C72 0.931 . S
H86 C74 0.929 . S
O87 Tb88 2.292 . S
O87 C90 1.255 . S
Tb88 O87 2.292 . S
Tb88 O104 2.326 . S
Tb88 O106 2.500 . S
Tb88 O107 2.473 . S
Tb88 O110 2.324 . S
Eu89 O93 2.292 . S
Eu89 C94 2.852 . S
Eu89 O105 2.324 . S
Eu89 O109 2.326 . S
Eu89 O111 2.500 . S
Eu89 O112 2.473 . S
C90 O87 1.255 . S
C90 O91 1.247 . S
O91 C90 1.247 . S
C92 O104 1.242 . S
C92 O105 1.258 . S
O93 Eu89 2.292 . S
O93 C95 1.255 . S
C94 Eu89 2.852 . S
C94 C98 1.503 . S
C94 O111 1.273 . S
C94 O112 1.257 . S
C95 O93 1.255 . S
C95 O96 1.247 . S
O96 C95 1.247 . S
C97 O109 1.242 . S
C97 O110 1.258 . S
C98 C94 1.503 . S
C98 C99 1.379 . S
C98 C103 1.392 . S
C99 C98 1.379 . S
C99 C100 1.404 . S
C99 H113 0.929 . S
C100 C99 1.404 . S
C100 C101 1.394 . S
C101 C100 1.394 . S
C101 C102 1.402 . S
C101 H114 0.923 1_655 S
C102 C101 1.402 . S
C102 C103 1.390 . S
C103 C98 1.392 . S
C103 C102 1.390 . S
C103 H115 0.929 . S
O104 Tb88 2.326 . S
O104 C92 1.242 . S
O105 Eu89 2.324 . S
O105 C92 1.258 . S
O106 Tb88 2.500 . S
O106 C108 1.273 . S
O107 Tb88 2.473 . S
O107 C108 1.257 . S
C108 O106 1.273 . S
C108 O107 1.257 . S
O109 Eu89 2.326 . S
O109 C97 1.242 . S
O110 Tb88 2.324 . S
O110 C97 1.258 . S
O111 Eu89 2.500 . S
O111 C94 1.273 . S
O112 Eu89 2.473 . S
O112 C94 1.257 . S
H113 C99 0.929 . S
H114 C101 0.923 1_455 S
H115 C103 0.929 . S
O116 Tb117 2.292 . S
O116 C119 1.255 1_556 S
Tb117 O116 2.292 . S
Tb117 O133 2.326 . S
Tb117 O135 2.500 . S
Tb117 O136 2.473 . S
Tb117 O139 2.324 . S
Eu118 O122 2.292 . S
Eu118 C123 2.852 . S
Eu118 O134 2.324 . S
Eu118 O138 2.326 . S
Eu118 O140 2.500 . S
Eu118 O141 2.473 . S
C119 O116 1.255 1_554 S
C119 O120 1.247 . S
O120 C119 1.247 . S
C121 O133 1.242 . S
C121 O134 1.258 . S
O122 Eu118 2.292 . S
O122 C124 1.255 . S
C123 Eu118 2.852 . S
C123 C127 1.503 . S
C123 O140 1.273 . S
C123 O141 1.257 . S
C124 O122 1.255 . S
C124 O125 1.247 . S
O125 C124 1.247 . S
C126 O138 1.242 . S
C126 O139 1.258 . S
C127 C123 1.503 . S
C127 C128 1.379 . S
C127 C132 1.392 . S
C128 C127 1.379 . S
C128 C129 1.404 . S
C128 H142 0.929 . S
C129 C128 1.404 . S
C129 C130 1.389 . S
C130 C129 1.389 . S
C130 C131 1.399 . S
C130 H143 0.931 . S
C131 C130 1.399 . S
C131 C132 1.390 . S
C132 C127 1.392 . S
C132 C131 1.390 . S
C132 H144 0.929 . S
O133 Tb117 2.326 . S
O133 C121 1.242 . S
O134 Eu118 2.324 . S
O134 C121 1.258 . S
O135 Tb117 2.500 . S
O135 C137 1.273 . S
O136 Tb117 2.473 . S
O136 C137 1.257 . S
C137 O135 1.273 . S
C137 O136 1.257 . S
O138 Eu118 2.326 . S
O138 C126 1.242 . S
O139 Tb117 2.324 . S
O139 C126 1.258 . S
O140 Eu118 2.500 . S
O140 C123 1.273 . S
O141 Eu118 2.473 . S
O141 C123 1.257 . S
H142 C128 0.929 . S
H143 C130 0.931 . S
H144 C132 0.929 . S
O145 Tb146 2.292 . S
O145 C148 1.255 . S
Tb146 O145 2.292 . S
Tb146 O162 2.326 . S
Tb146 O164 2.500 . S
Tb146 O165 2.473 . S
Tb146 O168 2.324 . S
Eu147 O151 2.292 . S
Eu147 C152 2.852 . S
Eu147 O163 2.324 . S
Eu147 O167 2.326 . S
Eu147 O169 2.500 . S
Eu147 O170 2.473 . S
C148 O145 1.255 . S
C148 O149 1.247 . S
O149 C148 1.247 . S
C150 O162 1.242 . S
C150 O163 1.258 . S
O151 Eu147 2.292 . S
O151 C153 1.255 . S
C152 Eu147 2.852 . S
C152 C156 1.503 . S
C152 O169 1.273 . S
C152 O170 1.257 . S
C153 O151 1.255 . S
C153 O154 1.247 . S
O154 C153 1.247 . S
C155 O167 1.242 . S
C155 O168 1.258 . S
C156 C152 1.503 . S
C156 C157 1.379 . S
C156 C161 1.392 . S
C157 C156 1.379 . S
C157 C158 1.404 . S
C157 H171 0.929 . S
C158 C157 1.404 . S
C158 C159 1.389 . S
C159 C158 1.389 . S
C159 C160 1.399 . S
C159 H172 0.931 . S
C160 C159 1.399 . S
C160 C161 1.390 . S
C161 C156 1.392 . S
C161 C160 1.390 . S
C161 H173 0.929 . S
O162 Tb146 2.326 . S
O162 C150 1.242 . S
O163 Eu147 2.324 . S
O163 C150 1.258 . S
O164 Tb146 2.500 . S
O164 C166 1.273 . S
O165 Tb146 2.473 . S
O165 C166 1.257 . S
C166 O164 1.273 . S
C166 O165 1.257 . S
O167 Eu147 2.326 . S
O167 C155 1.242 . S
O168 Tb146 2.324 . S
O168 C155 1.258 . S
O169 Eu147 2.500 . S
O169 C152 1.273 . S
O170 Eu147 2.473 . S
O170 C152 1.257 . S
H171 C157 0.929 . S
H172 C159 0.931 . S
H173 C161 0.929 . S
O174 Tb175 2.292 . S
O174 C177 1.255 . S
Tb175 O174 2.292 . S
Tb175 O191 2.326 . S
Tb175 O193 2.500 . S
Tb175 O194 2.473 . S
Tb175 O197 2.324 . S
Eu176 O180 2.292 . S
Eu176 C181 2.852 . S
Eu176 O192 2.324 . S
Eu176 O196 2.326 . S
Eu176 O198 2.500 . S
Eu176 O199 2.473 . S
C177 O174 1.255 . S
C177 O178 1.247 . S
O178 C177 1.247 . S
C179 O191 1.242 . S
C179 O192 1.258 . S
O180 Eu176 2.292 . S
O180 C182 1.255 . S
C181 Eu176 2.852 . S
C181 C185 1.503 . S
C181 O198 1.273 . S
C181 O199 1.257 . S
C182 O180 1.255 . S
C182 O183 1.247 . S
O183 C182 1.247 . S
C184 O196 1.242 . S
C184 O197 1.258 . S
C185 C181 1.503 . S
C185 C186 1.379 . S
C185 C190 1.392 . S
C186 C185 1.379 . S
C186 C187 1.404 . S
C186 H200 0.929 . S
C187 C186 1.404 . S
C187 C188 1.389 . S
C188 C187 1.389 . S
C188 C189 1.399 . S
C188 H201 0.931 . S
C189 C188 1.399 . S
C189 C190 1.390 . S
C190 C185 1.392 . S
C190 C189 1.390 . S
C190 H202 0.929 . S
O191 Tb175 2.326 . S
O191 C179 1.242 . S
O192 Eu176 2.324 . S
O192 C179 1.258 . S
O193 Tb175 2.500 . S
O193 C195 1.273 . S
O194 Tb175 2.473 . S
O194 C195 1.257 . S
C195 O193 1.273 . S
C195 O194 1.257 . S
O196 Eu176 2.326 . S
O196 C184 1.242 . S
O197 Tb175 2.324 . S
O197 C184 1.258 . S
O198 Eu176 2.500 . S
O198 C181 1.273 . S
O199 Eu176 2.473 . S
O199 C181 1.257 . S
H200 C186 0.929 . S
H201 C188 0.931 . S
H202 C190 0.929 . S
O203 Tb204 2.292 . S
O203 C206 1.255 . S
Tb204 O203 2.292 . S
Tb204 O220 2.326 . S
Tb204 O222 2.500 . S
Tb204 O223 2.473 . S
Tb204 O226 2.324 . S
Eu205 O209 2.292 . S
Eu205 C210 2.852 . S
Eu205 O221 2.324 . S
Eu205 O225 2.326 . S
Eu205 O227 2.500 . S
Eu205 O228 2.473 . S
C206 O203 1.255 . S
C206 O207 1.247 . S
O207 C206 1.247 . S
C208 O220 1.242 . S
C208 O221 1.258 . S
O209 Eu205 2.292 . S
O209 C211 1.255 . S
C210 Eu205 2.852 . S
C210 C214 1.503 . S
C210 O227 1.273 . S
C210 O228 1.257 . S
C211 O209 1.255 . S
C211 O212 1.247 . S
O212 C211 1.247 . S
C213 O225 1.242 . S
C213 O226 1.258 . S
C214 C210 1.503 . S
C214 C215 1.379 . S
C214 C219 1.392 . S
C215 C214 1.379 . S
C215 C216 1.404 . S
C215 H229 0.929 . S
C216 C215 1.404 . S
C216 C217 1.394 . S
C217 C216 1.394 . S
C217 C218 1.402 . S
C217 H230 0.923 1_455 S
C218 C217 1.402 . S
C218 C219 1.390 . S
C219 C214 1.392 . S
C219 C218 1.390 . S
C219 H231 0.929 . S
O220 Tb204 2.326 . S
O220 C208 1.242 . S
O221 Eu205 2.324 . S
O221 C208 1.258 . S
O222 Tb204 2.500 . S
O222 C224 1.273 . S
O223 Tb204 2.473 . S
O223 C224 1.257 . S
C224 O222 1.273 . S
C224 O223 1.257 . S
O225 Eu205 2.326 . S
O225 C213 1.242 . S
O226 Tb204 2.324 . S
O226 C213 1.258 . S
O227 Eu205 2.500 . S
O227 C210 1.273 . S
O228 Eu205 2.473 . S
O228 C210 1.257 . S
H229 C215 0.929 . S
H230 C217 0.923 1_655 S
H231 C219 0.929 . S
O232 Tb233 2.292 . S
O232 C235 1.255 . S
Tb233 O232 2.292 . S
Tb233 O249 2.326 . S
Tb233 O251 2.500 . S
Tb233 O252 2.473 . S
Tb233 O255 2.324 . S
Eu234 O238 2.292 . S
Eu234 C239 2.852 . S
Eu234 O250 2.324 . S
Eu234 O254 2.326 . S
Eu234 O256 2.500 . S
Eu234 O257 2.473 . S
C235 O232 1.255 . S
C235 O236 1.247 . S
O236 C235 1.247 . S
C237 O249 1.242 . S
C237 O250 1.258 . S
O238 Eu234 2.292 . S
O238 C240 1.255 . S
C239 Eu234 2.852 . S
C239 C243 1.503 . S
C239 O256 1.273 . S
C239 O257 1.257 . S
C240 O238 1.255 . S
C240 O241 1.247 . S
O241 C240 1.247 . S
C242 O254 1.242 . S
C242 O255 1.258 . S
C243 C239 1.503 . S
C243 C244 1.379 . S
C243 C248 1.392 . S
C244 C243 1.379 . S
C244 C245 1.404 . S
C244 H258 0.929 . S
C245 C244 1.404 . S
C245 C246 1.389 . S
C246 C245 1.389 . S
C246 C247 1.399 . S
C246 H259 0.931 . S
C247 C246 1.399 . S
C247 C248 1.390 . S
C248 C243 1.392 . S
C248 C247 1.390 . S
C248 H260 0.929 . S
O249 Tb233 2.326 . S
O249 C237 1.242 . S
O250 Eu234 2.324 . S
O250 C237 1.258 . S
O251 Tb233 2.500 . S
O251 C253 1.273 . S
O252 Tb233 2.473 . S
O252 C253 1.257 . S
C253 O251 1.273 . S
C253 O252 1.257 . S
O254 Eu234 2.326 . S
O254 C242 1.242 . S
O255 Tb233 2.324 . S
O255 C242 1.258 . S
O256 Eu234 2.500 . S
O256 C239 1.273 . S
O257 Eu234 2.473 . S
O257 C239 1.257 . S
H258 C244 0.929 . S
H259 C246 0.931 . S
H260 C248 0.929 . S
O261 Tb262 2.292 . S
O261 C264 1.255 . S
Tb262 O261 2.292 . S
Tb262 O278 2.326 . S
Tb262 O280 2.500 . S
Tb262 O281 2.473 . S
Tb262 O284 2.324 1_545 S
Eu263 O267 2.292 . S
Eu263 C268 2.852 . S
Eu263 O279 2.324 . S
Eu263 O283 2.326 . S
Eu263 O285 2.500 . S
Eu263 O286 2.473 . S
C264 O261 1.255 . S
C264 O265 1.247 . S
O265 C264 1.247 . S
C266 O278 1.242 . S
C266 O279 1.258 . S
O267 Eu263 2.292 . S
O267 C269 1.255 . S
C268 Eu263 2.852 . S
C268 C272 1.503 . S
C268 O285 1.273 . S
C268 O286 1.257 . S
C269 O267 1.255 . S
C269 O270 1.247 . S
O270 C269 1.247 . S
C271 O283 1.242 . S
C271 O284 1.258 1_545 S
C272 C268 1.503 . S
C272 C273 1.379 . S
C272 C277 1.392 . S
C273 C272 1.379 . S
C273 C274 1.404 . S
C273 H287 0.929 . S
C274 C273 1.404 . S
C274 C275 1.394 . S
C275 C274 1.394 . S
C275 C276 1.402 . S
C275 H288 0.923 1_455 S
C276 C275 1.402 . S
C276 C277 1.390 . S
C277 C272 1.392 . S
C277 C276 1.390 . S
C277 H289 0.929 . S
O278 Tb262 2.326 . S
O278 C266 1.242 . S
O279 Eu263 2.324 . S
O279 C266 1.258 . S
O280 Tb262 2.500 . S
O280 C282 1.273 . S
O281 Tb262 2.473 . S
O281 C282 1.257 . S
C282 O280 1.273 . S
C282 O281 1.257 . S
O283 Eu263 2.326 . S
O283 C271 1.242 . S
O284 Tb262 2.324 1_565 S
O284 C271 1.258 1_565 S
O285 Eu263 2.500 . S
O285 C268 1.273 . S
O286 Eu263 2.473 . S
O286 C268 1.257 . S
H287 C273 0.929 . S
H288 C275 0.923 1_655 S
H289 C277 0.929 . S
O290 Tb291 2.292 . S
O290 C293 1.255 1_554 S
Tb291 O290 2.292 . S
Tb291 O307 2.326 . S
Tb291 O309 2.500 . S
Tb291 O310 2.473 . S
Tb291 O313 2.324 . S
Eu292 O296 2.292 . S
Eu292 C297 2.852 . S
Eu292 O308 2.324 . S
Eu292 O312 2.326 . S
Eu292 O314 2.500 . S
Eu292 O315 2.473 . S
C293 O290 1.255 1_556 S
C293 O294 1.247 . S
O294 C293 1.247 . S
C295 O307 1.242 . S
C295 O308 1.258 . S
O296 Eu292 2.292 . S
O296 C298 1.255 . S
C297 Eu292 2.852 . S
C297 C301 1.503 . S
C297 O314 1.273 . S
C297 O315 1.257 . S
C298 O296 1.255 . S
C298 O299 1.247 . S
O299 C298 1.247 . S
C300 O312 1.242 . S
C300 O313 1.258 . S
C301 C297 1.503 . S
C301 C302 1.379 . S
C301 C306 1.392 . S
C302 C301 1.379 . S
C302 C303 1.404 . S
C302 H316 0.929 . S
C303 C302 1.404 . S
C303 C304 1.389 . S
C304 C303 1.389 . S
C304 C305 1.399 . S
C304 H317 0.931 . S
C305 C304 1.399 . S
C305 C306 1.390 . S
C306 C301 1.392 . S
C306 C305 1.390 . S
C306 H318 0.929 . S
O307 Tb291 2.326 . S
O307 C295 1.242 . S
O308 Eu292 2.324 . S
O308 C295 1.258 . S
O309 Tb291 2.500 . S
O309 C311 1.273 . S
O310 Tb291 2.473 . S
O310 C311 1.257 . S
C311 O309 1.273 . S
C311 O310 1.257 . S
O312 Eu292 2.326 . S
O312 C300 1.242 . S
O313 Tb291 2.324 . S
O313 C300 1.258 . S
O314 Eu292 2.500 . S
O314 C297 1.273 . S
O315 Eu292 2.473 . S
O315 C297 1.257 . S
H316 C302 0.929 . S
H317 C304 0.931 . S
H318 C306 0.929 . S
O319 Tb320 2.292 . S
O319 C322 1.255 . S
Tb320 O319 2.292 . S
Tb320 O336 2.326 . S
Tb320 O338 2.500 . S
Tb320 O339 2.473 . S
Tb320 O342 2.324 1_565 S
Eu321 O325 2.292 . S
Eu321 C326 2.852 . S
Eu321 O337 2.324 . S
Eu321 O341 2.326 . S
Eu321 O343 2.500 . S
Eu321 O344 2.473 . S
C322 O319 1.255 . S
C322 O323 1.247 . S
O323 C322 1.247 . S
C324 O336 1.242 . S
C324 O337 1.258 . S
O325 Eu321 2.292 . S
O325 C327 1.255 . S
C326 Eu321 2.852 . S
C326 C330 1.503 . S
C326 O343 1.273 . S
C326 O344 1.257 . S
C327 O325 1.255 . S
C327 O328 1.247 . S
O328 C327 1.247 . S
C329 O341 1.242 . S
C329 O342 1.258 1_565 S
C330 C326 1.503 . S
C330 C331 1.379 . S
C330 C335 1.392 . S
C331 C330 1.379 . S
C331 C332 1.404 . S
C331 H345 0.929 . S
C332 C331 1.404 . S
C332 C333 1.389 . S
C333 C332 1.389 . S
C333 C334 1.399 . S
C333 H346 0.931 . S
C334 C333 1.399 . S
C334 C335 1.390 . S
C335 C330 1.392 . S
C335 C334 1.390 . S
C335 H347 0.929 . S
O336 Tb320 2.326 . S
O336 C324 1.242 . S
O337 Eu321 2.324 . S
O337 C324 1.258 . S
O338 Tb320 2.500 . S
O338 C340 1.273 . S
O339 Tb320 2.473 . S
O339 C340 1.257 . S
C340 O338 1.273 . S
C340 O339 1.257 . S
O341 Eu321 2.326 . S
O341 C329 1.242 . S
O342 Tb320 2.324 1_545 S
O342 C329 1.258 1_545 S
O343 Eu321 2.500 . S
O343 C326 1.273 . S
O344 Eu321 2.473 . S
O344 C326 1.257 . S
H345 C331 0.929 . S
H346 C333 0.931 . S
H347 C335 0.929 . S
O348 Tb349 2.292 . S
O348 C351 1.255 . S
Tb349 O348 2.292 . S
Tb349 O365 2.326 . S
Tb349 O367 2.500 . S
Tb349 O368 2.473 . S
Tb349 O371 2.324 . S
Eu350 O354 2.292 . S
Eu350 C355 2.852 . S
Eu350 O366 2.324 . S
Eu350 O370 2.326 . S
Eu350 O372 2.500 . S
Eu350 O373 2.473 . S
C351 O348 1.255 . S
C351 O352 1.247 . S
O352 C351 1.247 . S
C353 O365 1.242 . S
C353 O366 1.258 . S
O354 Eu350 2.292 . S
O354 C356 1.255 . S
C355 Eu350 2.852 . S
C355 C359 1.503 . S
C355 O372 1.273 . S
C355 O373 1.257 . S
C356 O354 1.255 . S
C356 O357 1.247 . S
O357 C356 1.247 . S
C358 O370 1.242 . S
C358 O371 1.258 . S
C359 C355 1.503 . S
C359 C360 1.379 . S
C359 C364 1.392 . S
C360 C359 1.379 . S
C360 C361 1.404 . S
C360 H374 0.929 . S
C361 C360 1.404 . S
C361 C362 1.389 . S
C362 C361 1.389 . S
C362 C363 1.399 . S
C362 H375 0.931 . S
C363 C362 1.399 . S
C363 C364 1.390 . S
C364 C359 1.392 . S
C364 C363 1.390 . S
C364 H376 0.929 . S
O365 Tb349 2.326 . S
O365 C353 1.242 . S
O366 Eu350 2.324 . S
O366 C353 1.258 . S
O367 Tb349 2.500 . S
O367 C369 1.273 . S
O368 Tb349 2.473 . S
O368 C369 1.257 . S
C369 O367 1.273 . S
C369 O368 1.257 . S
O370 Eu350 2.326 . S
O370 C358 1.242 . S
O371 Tb349 2.324 . S
O371 C358 1.258 . S
O372 Eu350 2.500 . S
O372 C355 1.273 . S
O373 Eu350 2.473 . S
O373 C355 1.257 . S
H374 C360 0.929 . S
H375 C362 0.931 . S
H376 C364 0.929 . S
O377 Tb378 2.292 . S
O377 C380 1.255 . S
Tb378 O377 2.292 . S
Tb378 O394 2.326 . S
Tb378 O396 2.500 . S
Tb378 O397 2.473 . S
Tb378 O400 2.324 1_565 S
Eu379 O383 2.292 . S
Eu379 C384 2.852 . S
Eu379 O395 2.324 . S
Eu379 O399 2.326 . S
Eu379 O401 2.500 . S
Eu379 O402 2.473 . S
C380 O377 1.255 . S
C380 O381 1.247 . S
O381 C380 1.247 . S
C382 O394 1.242 . S
C382 O395 1.258 . S
O383 Eu379 2.292 . S
O383 C385 1.255 . S
C384 Eu379 2.852 . S
C384 C388 1.503 . S
C384 O401 1.273 . S
C384 O402 1.257 . S
C385 O383 1.255 . S
C385 O386 1.247 . S
O386 C385 1.247 . S
C387 O399 1.242 . S
C387 O400 1.258 1_565 S
C388 C384 1.503 . S
C388 C389 1.379 . S
C388 C393 1.392 . S
C389 C388 1.379 . S
C389 C390 1.404 . S
C389 H403 0.929 . S
C390 C389 1.404 . S
C390 C391 1.394 . S
C391 C390 1.394 . S
C391 C392 1.402 . S
C391 H404 0.923 1_655 S
C392 C391 1.402 . S
C392 C393 1.390 . S
C393 C388 1.392 . S
C393 C392 1.390 . S
C393 H405 0.929 . S
O394 Tb378 2.326 . S
O394 C382 1.242 . S
O395 Eu379 2.324 . S
O395 C382 1.258 . S
O396 Tb378 2.500 . S
O396 C398 1.273 . S
O397 Tb378 2.473 . S
O397 C398 1.257 . S
C398 O396 1.273 . S
C398 O397 1.257 . S
O399 Eu379 2.326 . S
O399 C387 1.242 . S
O400 Tb378 2.324 1_545 S
O400 C387 1.258 1_545 S
O401 Eu379 2.500 . S
O401 C384 1.273 . S
O402 Eu379 2.473 . S
O402 C384 1.257 . S
H403 C389 0.929 . S
H404 C391 0.923 1_455 S
H405 C393 0.929 . S
O406 Tb407 2.292 . S
O406 C409 1.255 1_556 S
Tb407 O406 2.292 . S
Tb407 O423 2.326 . S
Tb407 O425 2.500 . S
Tb407 O426 2.473 . S
Tb407 O429 2.324 . S
Eu408 O412 2.292 . S
Eu408 C413 2.852 . S
Eu408 O424 2.324 . S
Eu408 O428 2.326 . S
Eu408 O430 2.500 . S
Eu408 O431 2.473 . S
C409 O406 1.255 1_554 S
C409 O410 1.247 . S
O410 C409 1.247 . S
C411 O423 1.242 . S
C411 O424 1.258 . S
O412 Eu408 2.292 . S
O412 C414 1.255 . S
C413 Eu408 2.852 . S
C413 C417 1.503 . S
C413 O430 1.273 . S
C413 O431 1.257 . S
C414 O412 1.255 . S
C414 O415 1.247 . S
O415 C414 1.247 . S
C416 O428 1.242 . S
C416 O429 1.258 . S
C417 C413 1.503 . S
C417 C418 1.379 . S
C417 C422 1.392 . S
C418 C417 1.379 . S
C418 C419 1.404 . S
C418 H432 0.929 . S
C419 C418 1.404 . S
C419 C420 1.389 . S
C420 C419 1.389 . S
C420 C421 1.399 . S
C420 H433 0.931 . S
C421 C420 1.399 . S
C421 C422 1.390 . S
C422 C417 1.392 . S
C422 C421 1.390 . S
C422 H434 0.929 . S
O423 Tb407 2.326 . S
O423 C411 1.242 . S
O424 Eu408 2.324 . S
O424 C411 1.258 . S
O425 Tb407 2.500 . S
O425 C427 1.273 . S
O426 Tb407 2.473 . S
O426 C427 1.257 . S
C427 O425 1.273 . S
C427 O426 1.257 . S
O428 Eu408 2.326 . S
O428 C416 1.242 . S
O429 Tb407 2.324 . S
O429 C416 1.258 . S
O430 Eu408 2.500 . S
O430 C413 1.273 . S
O431 Eu408 2.473 . S
O431 C413 1.257 . S
H432 C418 0.929 . S
H433 C420 0.931 . S
H434 C422 0.929 . S
O435 Tb436 2.292 . S
O435 C438 1.255 . S
Tb436 O435 2.292 . S
Tb436 O452 2.326 . S
Tb436 O454 2.500 . S
Tb436 O455 2.473 . S
Tb436 O458 2.324 1_545 S
Eu437 O441 2.292 . S
Eu437 C442 2.852 . S
Eu437 O453 2.324 . S
Eu437 O457 2.326 . S
Eu437 O459 2.500 . S
Eu437 O460 2.473 . S
C438 O435 1.255 . S
C438 O439 1.247 . S
O439 C438 1.247 . S
C440 O452 1.242 . S
C440 O453 1.258 . S
O441 Eu437 2.292 . S
O441 C443 1.255 . S
C442 Eu437 2.852 . S
C442 C446 1.503 . S
C442 O459 1.273 . S
C442 O460 1.257 . S
C443 O441 1.255 . S
C443 O444 1.247 . S
O444 C443 1.247 . S
C445 O457 1.242 . S
C445 O458 1.258 1_545 S
C446 C442 1.503 . S
C446 C447 1.379 . S
C446 C451 1.392 . S
C447 C446 1.379 . S
C447 C448 1.404 . S
C447 H461 0.929 . S
C448 C447 1.404 . S
C448 C449 1.389 . S
C449 C448 1.389 . S
C449 C450 1.399 . S
C449 H462 0.931 . S
C450 C449 1.399 . S
C450 C451 1.390 . S
C451 C446 1.392 . S
C451 C450 1.390 . S
C451 H463 0.929 . S
O452 Tb436 2.326 . S
O452 C440 1.242 . S
O453 Eu437 2.324 . S
O453 C440 1.258 . S
O454 Tb436 2.500 . S
O454 C456 1.273 . S
O455 Tb436 2.473 . S
O455 C456 1.257 . S
C456 O454 1.273 . S
C456 O455 1.257 . S
O457 Eu437 2.326 . S
O457 C445 1.242 . S
O458 Tb436 2.324 1_565 S
O458 C445 1.258 1_565 S
O459 Eu437 2.500 . S
O459 C442 1.273 . S
O460 Eu437 2.473 . S
O460 C442 1.257 . S
H461 C447 0.929 . S
H462 C449 0.931 . S
H463 C451 0.929 . S
H464 C482 0.951 . S
H465 C484 0.951 . S
H466 C486 0.950 . S
H467 C487 0.950 . S
H468 C489 0.950 . S
H469 C492 0.950 . S
H470 C493 0.950 . S
H471 C495 0.950 . S
H472 C496 0.950 . S
H473 C497 0.951 . S
H474 C499 0.951 . S
H475 C501 0.950 . S
H476 C502 0.950 . S
H477 C504 0.950 . S
H478 C507 0.950 . S
H479 C508 0.950 . S
H480 C510 0.950 . S
H481 C511 0.950 . S
C482 H464 0.951 . S
C482 C483 1.366 . S
C482 C484 1.388 . S
C483 C482 1.366 . S
C483 C487 1.385 . S
C484 H465 0.951 . S
C484 C482 1.388 . S
C484 C485 1.366 . S
C485 C484 1.366 . S
C485 C486 1.414 . S
C485 C488 1.499 . S
C486 H466 0.950 . S
C486 C485 1.414 . S
C486 C487 1.374 . S
C487 H467 0.950 . S
C487 C483 1.385 . S
C487 C486 1.374 . S
C488 C485 1.499 . S
C488 C489 1.373 . S
C488 C490 1.389 . S
C489 H468 0.950 . S
C489 C488 1.373 . S
C489 C505 1.377 . S
C490 C488 1.389 . S
C490 C491 1.524 . S
C490 C504 1.377 . S
C491 C490 1.524 . S
C491 C492 1.397 . S
C491 C496 1.363 . S
C492 H469 0.950 . S
C492 C491 1.397 . S
C492 C493 1.334 1_545 S
C493 H470 0.950 . S
C493 C492 1.334 1_565 S
C493 C494 1.287 . S
C494 C493 1.287 . S
C494 C495 1.524 1_565 S
C494 H513 0.913 . S
C495 H471 0.950 . S
C495 C494 1.524 1_545 S
C495 C496 1.415 . S
C496 H472 0.950 . S
C496 C491 1.363 . S
C496 C495 1.415 . S
C497 H473 0.951 . S
C497 C498 1.366 . S
C497 C499 1.388 . S
C498 C497 1.366 . S
C498 C502 1.385 . S
C499 H474 0.951 . S
C499 C497 1.388 . S
C499 C500 1.366 . S
C500 C499 1.366 . S
C500 C501 1.414 . S
C500 C503 1.499 . S
C501 H475 0.950 . S
C501 C500 1.414 . S
C501 C502 1.374 . S
C502 H476 0.950 . S
C502 C498 1.385 . S
C502 C501 1.374 . S
C503 C500 1.499 . S
C503 C504 1.373 . S
C503 C505 1.389 . S
C504 H477 0.950 . S
C504 C490 1.377 . S
C504 C503 1.373 . S
C505 C489 1.377 . S
C505 C503 1.389 . S
C505 C506 1.524 . S
C506 C505 1.524 . S
C506 C507 1.397 . S
C506 C511 1.363 . S
C507 H478 0.950 . S
C507 C506 1.397 . S
C507 C508 1.334 . S
C508 H479 0.950 . S
C508 C507 1.334 . S
C508 C509 1.287 . S
C509 C508 1.287 . S
C509 C510 1.524 . S
C509 H512 0.999 . S
C510 H480 0.950 . S
C510 C509 1.524 . S
C510 C511 1.415 . S
C511 H481 0.950 . S
C511 C506 1.363 . S
C511 C510 1.415 . S
H512 C509 0.999 . S
H513 C494 0.913 . S
H514 C532 0.951 . S
H515 C534 0.951 . S
H516 C536 0.950 . S
H517 C537 0.950 . S
H518 C539 0.950 . S
H519 C542 0.950 . S
H520 C543 0.950 . S
H521 C545 0.950 . S
H522 C546 0.950 . S
H523 C547 0.951 . S
H524 C549 0.951 . S
H525 C551 0.950 . S
H526 C552 0.950 . S
H527 C554 0.950 . S
H528 C557 0.950 . S
H529 C558 0.950 . S
H530 C560 0.950 . S
H531 C561 0.950 . S
C532 H514 0.951 . S
C532 C533 1.366 . S
C532 C534 1.388 . S
C533 C532 1.366 . S
C533 C537 1.385 . S
C534 H515 0.951 . S
C534 C532 1.388 . S
C534 C535 1.366 . S
C535 C534 1.366 . S
C535 C536 1.414 . S
C535 C538 1.499 . S
C536 H516 0.950 . S
C536 C535 1.414 . S
C536 C537 1.374 . S
C537 H517 0.950 . S
C537 C533 1.385 . S
C537 C536 1.374 . S
C538 C535 1.499 . S
C538 C539 1.373 . S
C538 C540 1.389 . S
C539 H518 0.950 . S
C539 C538 1.373 . S
C539 C555 1.377 . S
C540 C538 1.389 . S
C540 C541 1.524 . S
C540 C554 1.377 . S
C541 C540 1.524 . S
C541 C542 1.397 . S
C541 C546 1.363 . S
C542 H519 0.950 . S
C542 C541 1.397 . S
C542 C543 1.334 . S
C543 H520 0.950 . S
C543 C542 1.334 . S
C543 C544 1.287 . S
C544 C543 1.287 . S
C544 C545 1.524 . S
C544 H563 0.913 . S
C545 H521 0.950 . S
C545 C544 1.524 . S
C545 C546 1.415 . S
C546 H522 0.950 . S
C546 C541 1.363 . S
C546 C545 1.415 . S
C547 H523 0.951 . S
C547 C548 1.366 . S
C547 C549 1.388 . S
C548 C547 1.366 . S
C548 C552 1.385 . S
C549 H524 0.951 . S
C549 C547 1.388 . S
C549 C550 1.366 . S
C550 C549 1.366 . S
C550 C551 1.414 . S
C550 C553 1.499 . S
C551 H525 0.950 . S
C551 C550 1.414 . S
C551 C552 1.374 . S
C552 H526 0.950 . S
C552 C548 1.385 . S
C552 C551 1.374 . S
C553 C550 1.499 . S
C553 C554 1.373 . S
C553 C555 1.389 . S
C554 H527 0.950 . S
C554 C540 1.377 . S
C554 C553 1.373 . S
C555 C539 1.377 . S
C555 C553 1.389 . S
C555 C556 1.524 . S
C556 C555 1.524 . S
C556 C557 1.397 . S
C556 C561 1.363 . S
C557 H528 0.950 . S
C557 C556 1.397 . S
C557 C558 1.334 . S
C558 H529 0.950 . S
C558 C557 1.334 . S
C558 C559 1.287 . S
C559 C558 1.287 . S
C559 C560 1.524 . S
C559 H562 0.999 . S
C560 H530 0.950 . S
C560 C559 1.524 . S
C560 C561 1.415 . S
C561 H531 0.950 . S
C561 C556 1.363 . S
C561 C560 1.415 . S
H562 C559 0.999 . S
H563 C544 0.913 . S
H564 C582 0.951 . S
H565 C584 0.951 . S
H566 C586 0.950 . S
H567 C587 0.950 . S
H568 C589 0.950 . S
H569 C592 0.950 . S
H570 C593 0.950 . S
H571 C595 0.950 . S
H572 C596 0.950 . S
H573 C597 0.951 . S
H574 C599 0.951 . S
H575 C601 0.950 . S
H576 C602 0.950 . S
H577 C604 0.950 . S
H578 C607 0.950 . S
H579 C608 0.950 . S
H580 C610 0.950 . S
H581 C611 0.950 . S
C582 H564 0.951 . S
C582 C583 1.366 . S
C582 C584 1.388 . S
C583 C582 1.366 . S
C583 C587 1.385 . S
C584 H565 0.951 . S
C584 C582 1.388 . S
C584 C585 1.366 . S
C585 C584 1.366 . S
C585 C586 1.414 . S
C585 C588 1.499 . S
C586 H566 0.950 . S
C586 C585 1.414 . S
C586 C587 1.374 . S
C587 H567 0.950 . S
C587 C583 1.385 . S
C587 C586 1.374 . S
C588 C585 1.499 . S
C588 C589 1.373 . S
C588 C590 1.389 . S
C589 H568 0.950 . S
C589 C588 1.373 . S
C589 C605 1.377 . S
C590 C588 1.389 . S
C590 C591 1.524 . S
C590 C604 1.377 . S
C591 C590 1.524 . S
C591 C592 1.397 . S
C591 C596 1.363 . S
C592 H569 0.950 . S
C592 C591 1.397 . S
C592 C593 1.334 1_565 S
C593 H570 0.950 . S
C593 C592 1.334 1_545 S
C593 C594 1.287 . S
C594 C593 1.287 . S
C594 C595 1.524 1_545 S
C594 H613 0.913 . S
C595 H571 0.950 . S
C595 C594 1.524 1_565 S
C595 C596 1.415 . S
C596 H572 0.950 . S
C596 C591 1.363 . S
C596 C595 1.415 . S
C597 H573 0.951 . S
C597 C598 1.366 . S
C597 C599 1.388 . S
C598 C597 1.366 . S
C598 C602 1.385 . S
C599 H574 0.951 . S
C599 C597 1.388 . S
C599 C600 1.366 . S
C600 C599 1.366 . S
C600 C601 1.414 . S
C600 C603 1.499 . S
C601 H575 0.950 . S
C601 C600 1.414 . S
C601 C602 1.374 . S
C602 H576 0.950 . S
C602 C598 1.385 . S
C602 C601 1.374 . S
C603 C600 1.499 . S
C603 C604 1.373 . S
C603 C605 1.389 . S
C604 H577 0.950 . S
C604 C590 1.377 . S
C604 C603 1.373 . S
C605 C589 1.377 . S
C605 C603 1.389 . S
C605 C606 1.524 . S
C606 C605 1.524 . S
C606 C607 1.397 . S
C606 C611 1.363 . S
C607 H578 0.950 . S
C607 C606 1.397 . S
C607 C608 1.334 . S
C608 H579 0.950 . S
C608 C607 1.334 . S
C608 C609 1.287 . S
C609 C608 1.287 . S
C609 C610 1.524 . S
C609 H612 0.999 . S
C610 H580 0.950 . S
C610 C609 1.524 . S
C610 C611 1.415 . S
C611 H581 0.950 . S
C611 C606 1.363 . S
C611 C610 1.415 . S
H612 C609 0.999 . S
H613 C594 0.913 . S
H614 C632 0.951 . S
H615 C634 0.951 . S
H616 C636 0.950 . S
H617 C637 0.950 . S
H618 C639 0.950 . S
H619 C642 0.950 . S
H620 C643 0.950 . S
H621 C645 0.950 . S
H622 C646 0.950 . S
H623 C647 0.951 . S
H624 C649 0.951 . S
H625 C651 0.950 . S
H626 C652 0.950 . S
H627 C654 0.950 . S
H628 C657 0.950 . S
H629 C658 0.950 . S
H630 C660 0.950 . S
H631 C661 0.950 . S
C632 H614 0.951 . S
C632 C633 1.366 . S
C632 C634 1.388 . S
C633 C632 1.366 . S
C633 C637 1.385 . S
C634 H615 0.951 . S
C634 C632 1.388 . S
C634 C635 1.366 . S
C635 C634 1.366 . S
C635 C636 1.414 . S
C635 C638 1.499 . S
C636 H616 0.950 . S
C636 C635 1.414 . S
C636 C637 1.374 . S
C637 H617 0.950 . S
C637 C633 1.385 . S
C637 C636 1.374 . S
C638 C635 1.499 . S
C638 C639 1.373 . S
C638 C640 1.389 . S
C639 H618 0.950 . S
C639 C638 1.373 . S
C639 C655 1.377 . S
C640 C638 1.389 . S
C640 C641 1.524 . S
C640 C654 1.377 . S
C641 C640 1.524 . S
C641 C642 1.397 . S
C641 C646 1.363 . S
C642 H619 0.950 . S
C642 C641 1.397 . S
C642 C643 1.334 . S
C643 H620 0.950 . S
C643 C642 1.334 . S
C643 C644 1.287 . S
C644 C643 1.287 . S
C644 C645 1.524 . S
C644 H663 0.913 . S
C645 H621 0.950 . S
C645 C644 1.524 . S
C645 C646 1.415 . S
C646 H622 0.950 . S
C646 C641 1.363 . S
C646 C645 1.415 . S
C647 H623 0.951 . S
C647 C648 1.366 . S
C647 C649 1.388 . S
C648 C647 1.366 . S
C648 C652 1.385 . S
C649 H624 0.951 . S
C649 C647 1.388 . S
C649 C650 1.366 . S
C650 C649 1.366 . S
C650 C651 1.414 . S
C650 C653 1.499 . S
C651 H625 0.950 . S
C651 C650 1.414 . S
C651 C652 1.374 . S
C652 H626 0.950 . S
C652 C648 1.385 . S
C652 C651 1.374 . S
C653 C650 1.499 . S
C653 C654 1.373 . S
C653 C655 1.389 . S
C654 H627 0.950 . S
C654 C640 1.377 . S
C654 C653 1.373 . S
C655 C639 1.377 . S
C655 C653 1.389 . S
C655 C656 1.524 . S
C656 C655 1.524 . S
C656 C657 1.397 . S
C656 C661 1.363 . S
C657 H628 0.950 . S
C657 C656 1.397 . S
C657 C658 1.334 . S
C658 H629 0.950 . S
C658 C657 1.334 . S
C658 C659 1.287 . S
C659 C658 1.287 . S
C659 C660 1.524 . S
C659 H662 0.999 . S
C660 H630 0.950 . S
C660 C659 1.524 . S
C660 C661 1.415 . S
C661 H631 0.950 . S
C661 C656 1.363 . S
C661 C660 1.415 . S
H662 C659 0.999 . S
H663 C644 0.913 . S
H664 C682 0.951 . S
H665 C684 0.951 . S
H666 C686 0.950 . S
H667 C687 0.950 . S
H668 C689 0.950 . S
H669 C692 0.950 . S
H670 C693 0.950 . S
H671 C695 0.950 . S
H672 C696 0.950 . S
H673 C697 0.951 . S
H674 C699 0.951 . S
H675 C701 0.950 . S
H676 C702 0.950 . S
H677 C704 0.950 . S
H678 C707 0.950 . S
H679 C708 0.950 . S
H680 C710 0.950 . S
H681 C711 0.950 . S
C682 H664 0.951 . S
C682 C683 1.366 . S
C682 C684 1.388 . S
C683 C682 1.366 . S
C683 C687 1.385 . S
C684 H665 0.951 . S
C684 C682 1.388 . S
C684 C685 1.366 . S
C685 C684 1.366 . S
C685 C686 1.414 . S
C685 C688 1.499 . S
C686 H666 0.950 . S
C686 C685 1.414 . S
C686 C687 1.374 . S
C687 H667 0.950 . S
C687 C683 1.385 . S
C687 C686 1.374 . S
C688 C685 1.499 . S
C688 C689 1.373 . S
C688 C690 1.389 . S
C689 H668 0.950 . S
C689 C688 1.373 . S
C689 C705 1.377 . S
C690 C688 1.389 . S
C690 C691 1.524 . S
C690 C704 1.377 . S
C691 C690 1.524 . S
C691 C692 1.397 . S
C691 C696 1.363 . S
C692 H669 0.950 . S
C692 C691 1.397 . S
C692 C693 1.334 1_565 S
C693 H670 0.950 . S
C693 C692 1.334 1_545 S
C693 C694 1.287 . S
C694 C693 1.287 . S
C694 C695 1.524 . S
C694 H713 0.913 . S
C695 H671 0.950 . S
C695 C694 1.524 . S
C695 C696 1.415 1_545 S
C696 H672 0.950 . S
C696 C691 1.363 . S
C696 C695 1.415 1_565 S
C697 H673 0.951 . S
C697 C698 1.366 . S
C697 C699 1.388 . S
C698 C697 1.366 . S
C698 C702 1.385 . S
C699 H674 0.951 . S
C699 C697 1.388 . S
C699 C700 1.366 . S
C700 C699 1.366 . S
C700 C701 1.414 . S
C700 C703 1.499 . S
C701 H675 0.950 . S
C701 C700 1.414 . S
C701 C702 1.374 . S
C702 H676 0.950 . S
C702 C698 1.385 . S
C702 C701 1.374 . S
C703 C700 1.499 . S
C703 C704 1.373 . S
C703 C705 1.389 . S
C704 H677 0.950 . S
C704 C690 1.377 . S
C704 C703 1.373 . S
C705 C689 1.377 . S
C705 C703 1.389 . S
C705 C706 1.524 . S
C706 C705 1.524 . S
C706 C707 1.397 . S
C706 C711 1.363 . S
C707 H678 0.950 . S
C707 C706 1.397 . S
C707 C708 1.334 . S
C708 H679 0.950 . S
C708 C707 1.334 . S
C708 C709 1.287 . S
C709 C708 1.287 . S
C709 C710 1.524 . S
C709 H712 0.999 . S
C710 H680 0.950 . S
C710 C709 1.524 . S
C710 C711 1.415 . S
C711 H681 0.950 . S
C711 C706 1.363 . S
C711 C710 1.415 . S
H712 C709 0.999 . S
H713 C694 0.913 . S
H714 C732 0.951 . S
H715 C734 0.951 . S
H716 C736 0.950 . S
H717 C737 0.950 . S
H718 C739 0.950 . S
H719 C742 0.950 . S
H720 C743 0.950 . S
H721 C745 0.950 . S
H722 C746 0.950 . S
H723 C747 0.951 . S
H724 C749 0.951 . S
H725 C751 0.950 . S
H726 C752 0.950 . S
H727 C754 0.950 . S
H728 C757 0.950 . S
H729 C758 0.950 . S
H730 C760 0.950 . S
H731 C761 0.950 . S
C732 H714 0.951 . S
C732 C733 1.366 . S
C732 C734 1.388 . S
C733 C732 1.366 . S
C733 C737 1.385 . S
C734 H715 0.951 . S
C734 C732 1.388 . S
C734 C735 1.366 . S
C735 C734 1.366 . S
C735 C736 1.414 . S
C735 C738 1.499 . S
C736 H716 0.950 . S
C736 C735 1.414 . S
C736 C737 1.374 . S
C737 H717 0.950 . S
C737 C733 1.385 . S
C737 C736 1.374 . S
C738 C735 1.499 . S
C738 C739 1.373 . S
C738 C740 1.389 . S
C739 H718 0.950 . S
C739 C738 1.373 . S
C739 C755 1.377 . S
C740 C738 1.389 . S
C740 C741 1.524 . S
C740 C754 1.377 . S
C741 C740 1.524 . S
C741 C742 1.397 . S
C741 C746 1.363 . S
C742 H719 0.950 . S
C742 C741 1.397 . S
C742 C743 1.334 . S
C743 H720 0.950 . S
C743 C742 1.334 . S
C743 C744 1.287 . S
C744 C743 1.287 . S
C744 C745 1.524 . S
C744 H763 0.913 . S
C745 H721 0.950 . S
C745 C744 1.524 . S
C745 C746 1.415 . S
C746 H722 0.950 . S
C746 C741 1.363 . S
C746 C745 1.415 . S
C747 H723 0.951 . S
C747 C748 1.366 . S
C747 C749 1.388 . S
C748 C747 1.366 . S
C748 C752 1.385 . S
C749 H724 0.951 . S
C749 C747 1.388 . S
C749 C750 1.366 . S
C750 C749 1.366 . S
C750 C751 1.414 . S
C750 C753 1.499 . S
C751 H725 0.950 . S
C751 C750 1.414 . S
C751 C752 1.374 . S
C752 H726 0.950 . S
C752 C748 1.385 . S
C752 C751 1.374 . S
C753 C750 1.499 . S
C753 C754 1.373 . S
C753 C755 1.389 . S
C754 H727 0.950 . S
C754 C740 1.377 . S
C754 C753 1.373 . S
C755 C739 1.377 . S
C755 C753 1.389 . S
C755 C756 1.524 . S
C756 C755 1.524 . S
C756 C757 1.397 . S
C756 C761 1.363 . S
C757 H728 0.950 . S
C757 C756 1.397 . S
C757 C758 1.334 . S
C758 H729 0.950 . S
C758 C757 1.334 . S
C758 C759 1.287 . S
C759 C758 1.287 . S
C759 C760 1.524 . S
C759 H762 0.999 . S
C760 H730 0.950 . S
C760 C759 1.524 . S
C760 C761 1.415 . S
C761 H731 0.950 . S
C761 C756 1.363 . S
C761 C760 1.415 . S
H762 C759 0.999 . S
H763 C744 0.913 . S
H764 C782 0.951 . S
H765 C784 0.951 . S
H766 C786 0.950 . S
H767 C787 0.950 . S
H768 C789 0.950 . S
H769 C792 0.947 1_545 S
H770 C793 0.950 . S
H771 C795 0.950 . S
H772 C796 0.950 . S
H773 C797 0.951 . S
H774 C799 0.951 . S
H775 C801 0.950 . S
H776 C802 0.950 . S
H777 C804 0.950 . S
H778 C807 0.950 . S
H779 C808 0.950 . S
H780 C810 0.950 . S
H781 C811 0.950 . S
C782 H764 0.951 . S
C782 C783 1.366 . S
C782 C784 1.388 . S
C783 C782 1.366 . S
C783 C787 1.385 . S
C784 H765 0.951 . S
C784 C782 1.388 . S
C784 C785 1.366 . S
C785 C784 1.366 . S
C785 C786 1.414 . S
C785 C788 1.499 . S
C786 H766 0.950 . S
C786 C785 1.414 . S
C786 C787 1.374 . S
C787 H767 0.950 . S
C787 C783 1.385 . S
C787 C786 1.374 . S
C788 C785 1.499 . S
C788 C789 1.373 . S
C788 C790 1.389 . S
C789 H768 0.950 . S
C789 C788 1.373 . S
C789 C805 1.377 . S
C790 C788 1.389 . S
C790 C791 1.524 . S
C790 C804 1.377 . S
C791 C790 1.524 . S
C791 C792 1.392 1_545 S
C791 C796 1.363 . S
C792 H769 0.947 1_565 S
C792 C791 1.392 1_565 S
C792 C793 1.341 . S
C793 H770 0.950 . S
C793 C792 1.341 . S
C793 C794 1.287 . S
C794 C793 1.287 . S
C794 C795 1.524 . S
C794 H813 0.913 . S
C795 H771 0.950 . S
C795 C794 1.524 . S
C795 C796 1.415 1_565 S
C796 H772 0.950 . S
C796 C791 1.363 . S
C796 C795 1.415 1_545 S
C797 H773 0.951 . S
C797 C798 1.366 . S
C797 C799 1.388 . S
C798 C797 1.366 . S
C798 C802 1.385 . S
C799 H774 0.951 . S
C799 C797 1.388 . S
C799 C800 1.366 . S
C800 C799 1.366 . S
C800 C801 1.414 . S
C800 C803 1.499 . S
C801 H775 0.950 . S
C801 C800 1.414 . S
C801 C802 1.374 . S
C802 H776 0.950 . S
C802 C798 1.385 . S
C802 C801 1.374 . S
C803 C800 1.499 . S
C803 C804 1.373 . S
C803 C805 1.389 . S
C804 H777 0.950 . S
C804 C790 1.377 . S
C804 C803 1.373 . S
C805 C789 1.377 . S
C805 C803 1.389 . S
C805 C806 1.524 . S
C806 C805 1.524 . S
C806 C807 1.397 . S
C806 C811 1.363 . S
C807 H778 0.950 . S
C807 C806 1.397 . S
C807 C808 1.334 . S
C808 H779 0.950 . S
C808 C807 1.334 . S
C808 C809 1.287 . S
C809 C808 1.287 . S
C809 C810 1.524 . S
C809 H812 0.999 . S
C810 H780 0.950 . S
C810 C809 1.524 . S
C810 C811 1.415 . S
C811 H781 0.950 . S
C811 C806 1.363 . S
C811 C810 1.415 . S
H812 C809 0.999 . S
H813 C794 0.913 . S
H814 C832 0.951 . S
H815 C834 0.951 . S
H816 C836 0.950 . S
H817 C837 0.950 . S
H818 C839 0.950 . S
H819 C842 0.950 . S
H820 C843 0.950 . S
H821 C845 0.950 . S
H822 C846 0.950 . S
H823 C847 0.951 . S
H824 C849 0.951 . S
H825 C851 0.950 . S
H826 C852 0.950 . S
H827 C854 0.950 . S
H828 C857 0.950 . S
H829 C858 0.950 . S
H830 C860 0.950 . S
H831 C861 0.950 . S
C832 H814 0.951 . S
C832 C833 1.366 . S
C832 C834 1.388 . S
C833 C832 1.366 . S
C833 C837 1.385 . S
C834 H815 0.951 . S
C834 C832 1.388 . S
C834 C835 1.366 . S
C835 C834 1.366 . S
C835 C836 1.414 . S
C835 C838 1.499 . S
C836 H816 0.950 . S
C836 C835 1.414 . S
C836 C837 1.374 . S
C837 H817 0.950 . S
C837 C833 1.385 . S
C837 C836 1.374 . S
C838 C835 1.499 . S
C838 C839 1.373 . S
C838 C840 1.389 . S
C839 H818 0.950 . S
C839 C838 1.373 . S
C839 C855 1.377 . S
C840 C838 1.389 . S
C840 C841 1.524 . S
C840 C854 1.377 . S
C841 C840 1.524 . S
C841 C842 1.397 . S
C841 C846 1.363 . S
C842 H819 0.950 . S
C842 C841 1.397 . S
C842 C843 1.334 . S
C843 H820 0.950 . S
C843 C842 1.334 . S
C843 C844 1.287 . S
C844 C843 1.287 . S
C844 C845 1.524 . S
C844 H863 0.913 . S
C845 H821 0.950 . S
C845 C844 1.524 . S
C845 C846 1.415 . S
C846 H822 0.950 . S
C846 C841 1.363 . S
C846 C845 1.415 . S
C847 H823 0.951 . S
C847 C848 1.366 . S
C847 C849 1.388 . S
C848 C847 1.366 . S
C848 C852 1.385 . S
C849 H824 0.951 . S
C849 C847 1.388 . S
C849 C850 1.366 . S
C850 C849 1.366 . S
C850 C851 1.414 . S
C850 C853 1.499 . S
C851 H825 0.950 . S
C851 C850 1.414 . S
C851 C852 1.374 . S
C852 H826 0.950 . S
C852 C848 1.385 . S
C852 C851 1.374 . S
C853 C850 1.499 . S
C853 C854 1.373 . S
C853 C855 1.389 . S
C854 H827 0.950 . S
C854 C840 1.377 . S
C854 C853 1.373 . S
C855 C839 1.377 . S
C855 C853 1.389 . S
C855 C856 1.524 . S
C856 C855 1.524 . S
C856 C857 1.397 . S
C856 C861 1.363 . S
C857 H828 0.950 . S
C857 C856 1.397 . S
C857 C858 1.334 . S
C858 H829 0.950 . S
C858 C857 1.334 . S
C858 C859 1.287 . S
C859 C858 1.287 . S
C859 C860 1.524 . S
C859 H862 0.999 . S
C860 H830 0.950 . S
C860 C859 1.524 . S
C860 C861 1.415 . S
C861 H831 0.950 . S
C861 C856 1.363 . S
C861 C860 1.415 . S
H862 C859 0.999 . S
H863 C844 0.913 . S
H864 C882 0.951 . S
H865 C884 0.951 . S
H866 C886 0.950 . S
H867 C887 0.950 . S
H868 C889 0.950 . S
H869 C892 0.950 . S
H870 C893 0.950 . S
H871 C895 0.950 . S
H872 C896 0.950 . S
H873 C897 0.951 . S
H874 C899 0.951 . S
H875 C901 0.950 . S
H876 C902 0.950 . S
H877 C904 0.950 . S
H878 C907 0.950 . S
H879 C908 0.950 . S
H880 C910 0.950 . S
H881 C911 0.950 . S
C882 H864 0.951 . S
C882 C883 1.366 . S
C882 C884 1.388 . S
C883 C882 1.366 . S
C883 C887 1.385 . S
C884 H865 0.951 . S
C884 C882 1.388 . S
C884 C885 1.366 . S
C885 C884 1.366 . S
C885 C886 1.414 . S
C885 C888 1.499 . S
C886 H866 0.950 . S
C886 C885 1.414 . S
C886 C887 1.374 . S
C887 H867 0.950 . S
C887 C883 1.385 . S
C887 C886 1.374 . S
C888 C885 1.499 . S
C888 C889 1.373 . S
C888 C890 1.389 . S
C889 H868 0.950 . S
C889 C888 1.373 . S
C889 C905 1.377 . S
C890 C888 1.389 . S
C890 C891 1.524 . S
C890 C904 1.377 . S
C891 C890 1.524 . S
C891 C892 1.397 . S
C891 C896 1.363 . S
C892 H869 0.950 . S
C892 C891 1.397 . S
C892 C893 1.334 . S
C893 H870 0.950 . S
C893 C892 1.334 . S
C893 C894 1.287 . S
C894 C893 1.287 . S
C894 C895 1.524 . S
C894 H913 0.913 . S
C895 H871 0.950 . S
C895 C894 1.524 . S
C895 C896 1.415 . S
C896 H872 0.950 . S
C896 C891 1.363 . S
C896 C895 1.415 . S
C897 H873 0.951 . S
C897 C898 1.366 . S
C897 C899 1.388 . S
C898 C897 1.366 . S
C898 C902 1.385 . S
C899 H874 0.951 . S
C899 C897 1.388 . S
C899 C900 1.366 . S
C900 C899 1.366 . S
C900 C901 1.414 . S
C900 C903 1.499 . S
C901 H875 0.950 . S
C901 C900 1.414 . S
C901 C902 1.374 . S
C902 H876 0.950 . S
C902 C898 1.385 . S
C902 C901 1.374 . S
C903 C900 1.499 . S
C903 C904 1.373 . S
C903 C905 1.389 . S
C904 H877 0.950 . S
C904 C890 1.377 . S
C904 C903 1.373 . S
C905 C889 1.377 . S
C905 C903 1.389 . S
C905 C906 1.524 . S
C906 C905 1.524 . S
C906 C907 1.397 . S
C906 C911 1.363 . S
C907 H878 0.950 . S
C907 C906 1.397 . S
C907 C908 1.334 . S
C908 H879 0.950 . S
C908 C907 1.334 . S
C908 C909 1.287 . S
C909 C908 1.287 . S
C909 C910 1.524 . S
C909 H912 0.999 . S
C910 H880 0.950 . S
C910 C909 1.524 . S
C910 C911 1.415 . S
C911 H881 0.950 . S
C911 C906 1.363 . S
C911 C910 1.415 . S
H912 C909 0.999 . S
H913 C894 0.913 . S
H914 C932 0.951 . S
H915 C934 0.951 . S
H916 C936 0.950 . S
H917 C937 0.950 . S
H918 C939 0.950 . S
H919 C942 0.950 . S
H920 C943 0.950 . S
H921 C945 0.950 . S
H922 C946 0.950 . S
H923 C947 0.951 . S
H924 C949 0.951 1_565 S
H925 C951 0.950 . S
H926 C952 0.950 . S
H927 C954 0.950 . S
H928 C957 0.950 . S
H929 C958 0.950 . S
H930 C960 0.950 . S
H931 C961 0.950 . S
C932 H914 0.951 . S
C932 C933 1.366 . S
C932 C934 1.388 . S
C933 C932 1.366 . S
C933 C937 1.385 . S
C934 H915 0.951 . S
C934 C932 1.388 . S
C934 C935 1.366 . S
C935 C934 1.366 . S
C935 C936 1.414 . S
C935 C938 1.499 . S
C936 H916 0.950 . S
C936 C935 1.414 . S
C936 C937 1.374 . S
C937 H917 0.950 . S
C937 C933 1.385 . S
C937 C936 1.374 . S
C938 C935 1.499 . S
C938 C939 1.373 . S
C938 C940 1.389 1_565 S
C939 H918 0.950 . S
C939 C938 1.373 . S
C939 C955 1.377 . S
C940 C938 1.389 1_545 S
C940 C941 1.524 . S
C940 C954 1.377 . S
C941 C940 1.524 . S
C941 C942 1.397 . S
C941 C946 1.363 . S
C942 H919 0.950 . S
C942 C941 1.397 . S
C942 C943 1.334 . S
C943 H920 0.950 . S
C943 C942 1.334 . S
C943 C944 1.287 . S
C944 C943 1.287 . S
C944 C945 1.524 . S
C944 H963 0.913 . S
C945 H921 0.950 . S
C945 C944 1.524 . S
C945 C946 1.415 . S
C946 H922 0.950 . S
C946 C941 1.363 . S
C946 C945 1.415 . S
C947 H923 0.951 . S
C947 C948 1.366 . S
C947 C949 1.388 . S
C948 C947 1.366 . S
C948 C952 1.385 . S
C949 H924 0.951 1_545 S
C949 C947 1.388 . S
C949 C950 1.366 . S
C950 C949 1.366 . S
C950 C951 1.414 . S
C950 C953 1.499 1_545 S
C951 H925 0.950 . S
C951 C950 1.414 . S
C951 C952 1.374 . S
C952 H926 0.950 . S
C952 C948 1.385 . S
C952 C951 1.374 . S
C953 C950 1.499 1_565 S
C953 C954 1.373 1_565 S
C953 C955 1.389 . S
C954 H927 0.950 . S
C954 C940 1.377 . S
C954 C953 1.373 1_545 S
C955 C939 1.377 . S
C955 C953 1.389 . S
C955 C956 1.524 . S
C956 C955 1.524 . S
C956 C957 1.397 . S
C956 C961 1.363 . S
C957 H928 0.950 . S
C957 C956 1.397 . S
C957 C958 1.334 . S
C958 H929 0.950 . S
C958 C957 1.334 . S
C958 C959 1.287 . S
C959 C958 1.287 . S
C959 C960 1.524 . S
C959 H962 0.999 . S
C960 H930 0.950 . S
C960 C959 1.524 . S
C960 C961 1.415 . S
C961 H931 0.950 . S
C961 C956 1.363 . S
C961 C960 1.415 . S
H962 C959 0.999 . S
H963 C944 0.913 . S
H964 C982 0.951 . S
H965 C984 0.951 . S
H966 C986 0.950 . S
H967 C987 0.950 . S
H968 C989 0.950 . S
H969 C992 0.950 . S
H970 C993 0.950 . S
H971 C995 0.950 . S
H972 C996 0.950 . S
H973 C997 0.951 . S
H974 C999 0.951 . S
H975 C1001 0.950 . S
H976 C1002 0.950 . S
H977 C1004 0.950 . S
H978 C1007 0.950 . S
H979 C1008 0.950 . S
H980 C1010 0.950 . S
H981 C1011 0.950 . S
C982 H964 0.951 . S
C982 C983 1.366 . S
C982 C984 1.388 . S
C983 C982 1.366 . S
C983 C987 1.385 . S
C984 H965 0.951 . S
C984 C982 1.388 . S
C984 C985 1.366 . S
C985 C984 1.366 . S
C985 C986 1.414 . S
C985 C988 1.499 . S
C986 H966 0.950 . S
C986 C985 1.414 . S
C986 C987 1.374 . S
C987 H967 0.950 . S
C987 C983 1.385 . S
C987 C986 1.374 . S
C988 C985 1.499 . S
C988 C989 1.373 . S
C988 C990 1.389 . S
C989 H968 0.950 . S
C989 C988 1.373 . S
C989 C1005 1.377 . S
C990 C988 1.389 . S
C990 C991 1.524 . S
C990 C1004 1.377 . S
C991 C990 1.524 . S
C991 C992 1.397 . S
C991 C996 1.363 . S
C992 H969 0.950 . S
C992 C991 1.397 . S
C992 C993 1.334 . S
C993 H970 0.950 . S
C993 C992 1.334 . S
C993 C994 1.287 . S
C994 C993 1.287 . S
C994 C995 1.524 . S
C994 H1013 0.913 . S
C995 H971 0.950 . S
C995 C994 1.524 . S
C995 C996 1.415 . S
C996 H972 0.950 . S
C996 C991 1.363 . S
C996 C995 1.415 . S
C997 H973 0.951 . S
C997 C998 1.366 . S
C997 C999 1.388 . S
C998 C997 1.366 . S
C998 C1002 1.385 . S
C999 H974 0.951 . S
C999 C997 1.388 . S
C999 C1000 1.366 . S
C1000 C999 1.366 . S
C1000 C1001 1.414 . S
C1000 C1003 1.499 . S
C1001 H975 0.950 . S
C1001 C1000 1.414 . S
C1001 C1002 1.374 . S
C1002 H976 0.950 . S
C1002 C998 1.385 . S
C1002 C1001 1.374 . S
C1003 C1000 1.499 . S
C1003 C1004 1.373 . S
C1003 C1005 1.389 . S
C1004 H977 0.950 . S
C1004 C990 1.377 . S
C1004 C1003 1.373 . S
C1005 C989 1.377 . S
C1005 C1003 1.389 . S
C1005 C1006 1.524 . S
C1006 C1005 1.524 . S
C1006 C1007 1.397 . S
C1006 C1011 1.363 . S
C1007 H978 0.950 . S
C1007 C1006 1.397 . S
C1007 C1008 1.334 . S
C1008 H979 0.950 . S
C1008 C1007 1.334 . S
C1008 C1009 1.287 . S
C1009 C1008 1.287 . S
C1009 C1010 1.524 . S
C1009 H1012 0.999 . S
C1010 H980 0.950 . S
C1010 C1009 1.524 . S
C1010 C1011 1.415 . S
C1011 H981 0.950 . S
C1011 C1006 1.363 . S
C1011 C1010 1.415 . S
H1012 C1009 0.999 . S
H1013 C994 0.913 . S
H1014 C1032 0.951 . S
H1015 C1034 0.951 . S
H1016 C1036 0.950 . S
H1017 C1037 0.950 . S
H1018 C1039 0.950 . S
H1019 C1042 0.950 . S
H1020 C1043 0.950 . S
H1021 C1045 0.950 . S
H1022 C1046 0.950 . S
H1023 C1047 0.951 . S
H1024 C1049 0.951 . S
H1025 C1051 0.950 . S
H1026 C1052 0.950 1_545 S
H1027 C1054 0.950 . S
H1028 C1057 0.950 . S
H1029 C1058 0.960 . S
H1030 C1060 0.950 . S
H1031 C1061 0.950 . S
C1032 H1014 0.951 . S
C1032 C1033 1.366 . S
C1032 C1034 1.388 . S
C1033 C1032 1.366 . S
C1033 C1037 1.385 . S
C1034 H1015 0.951 . S
C1034 C1032 1.388 . S
C1034 C1035 1.366 . S
C1035 C1034 1.366 . S
C1035 C1036 1.414 . S
C1035 C1038 1.499 . S
C1036 H1016 0.950 . S
C1036 C1035 1.414 . S
C1036 C1037 1.374 . S
C1037 H1017 0.950 . S
C1037 C1033 1.385 . S
C1037 C1036 1.374 . S
C1038 C1035 1.499 . S
C1038 C1039 1.373 . S
C1038 C1040 1.389 . S
C1039 H1018 0.950 . S
C1039 C1038 1.373 . S
C1039 C1055 1.377 . S
C1040 C1038 1.389 . S
C1040 C1041 1.524 . S
C1040 C1054 1.377 . S
C1041 C1040 1.524 . S
C1041 C1042 1.397 . S
C1041 C1046 1.363 . S
C1042 H1019 0.950 . S
C1042 C1041 1.397 . S
C1042 C1043 1.334 . S
C1043 H1020 0.950 . S
C1043 C1042 1.334 . S
C1043 C1044 1.287 . S
C1044 C1043 1.287 . S
C1044 C1045 1.524 . S
C1044 H1063 0.913 . S
C1045 H1021 0.950 . S
C1045 C1044 1.524 . S
C1045 C1046 1.415 . S
C1046 H1022 0.950 . S
C1046 C1041 1.363 . S
C1046 C1045 1.415 . S
C1047 H1023 0.951 . S
C1047 C1048 1.366 . S
C1047 C1049 1.388 . S
C1048 C1047 1.366 . S
C1048 C1052 1.385 . S
C1049 H1024 0.951 . S
C1049 C1047 1.388 . S
C1049 C1050 1.366 . S
C1050 C1049 1.366 . S
C1050 C1051 1.414 1_565 S
C1050 C1053 1.499 1_565 S
C1051 H1025 0.950 . S
C1051 C1050 1.414 1_545 S
C1051 C1052 1.374 1_545 S
C1052 H1026 0.950 1_565 S
C1052 C1048 1.385 . S
C1052 C1051 1.374 1_565 S
C1053 C1050 1.499 1_545 S
C1053 C1054 1.373 . S
C1053 C1055 1.389 . S
C1054 H1027 0.950 . S
C1054 C1040 1.377 . S
C1054 C1053 1.373 . S
C1055 C1039 1.377 . S
C1055 C1053 1.389 . S
C1055 C1056 1.524 1_545 S
C1056 C1055 1.524 1_565 S
C1056 C1057 1.397 1_565 S
C1056 C1061 1.363 . S
C1057 H1028 0.950 . S
C1057 C1056 1.397 1_545 S
C1057 C1058 1.340 . S
C1058 H1029 0.960 . S
C1058 C1057 1.340 . S
C1058 C1059 1.271 1_545 S
C1059 C1058 1.271 1_565 S
C1059 C1060 1.524 . S
C1059 H1062 0.999 . S
C1060 H1030 0.950 . S
C1060 C1059 1.524 . S
C1060 C1061 1.415 . S
C1061 H1031 0.950 . S
C1061 C1056 1.363 . S
C1061 C1060 1.415 . S
H1062 C1059 0.999 . S
H1063 C1044 0.913 . S
H1064 C1082 0.951 . S
H1065 C1084 0.951 . S
H1066 C1086 0.950 . S
H1067 C1087 0.950 . S
H1068 C1089 0.950 . S
H1069 C1092 0.950 . S
H1070 C1093 0.950 . S
H1071 C1095 0.950 . S
H1072 C1096 0.950 . S
H1073 C1097 0.951 . S
H1074 C1099 0.951 . S
H1075 C1101 0.950 . S
H1076 C1102 0.950 . S
H1077 C1104 0.950 . S
H1078 C1107 0.950 . S
H1079 C1108 0.950 . S
H1080 C1110 0.950 . S
H1081 C1111 0.950 . S
C1082 H1064 0.951 . S
C1082 C1083 1.366 . S
C1082 C1084 1.388 . S
C1083 C1082 1.366 . S
C1083 C1087 1.385 . S
C1084 H1065 0.951 . S
C1084 C1082 1.388 . S
C1084 C1085 1.366 . S
C1085 C1084 1.366 . S
C1085 C1086 1.414 . S
C1085 C1088 1.499 . S
C1086 H1066 0.950 . S
C1086 C1085 1.414 . S
C1086 C1087 1.374 . S
C1087 H1067 0.950 . S
C1087 C1083 1.385 . S
C1087 C1086 1.374 . S
C1088 C1085 1.499 . S
C1088 C1089 1.373 . S
C1088 C1090 1.389 . S
C1089 H1068 0.950 . S
C1089 C1088 1.373 . S
C1089 C1105 1.377 . S
C1090 C1088 1.389 . S
C1090 C1091 1.524 . S
C1090 C1104 1.377 . S
C1091 C1090 1.524 . S
C1091 C1092 1.397 . S
C1091 C1096 1.363 . S
C1092 H1069 0.950 . S
C1092 C1091 1.397 . S
C1092 C1093 1.334 . S
C1093 H1070 0.950 . S
C1093 C1092 1.334 . S
C1093 C1094 1.287 . S
C1094 C1093 1.287 . S
C1094 C1095 1.524 . S
C1094 H1113 0.913 . S
C1095 H1071 0.950 . S
C1095 C1094 1.524 . S
C1095 C1096 1.415 . S
C1096 H1072 0.950 . S
C1096 C1091 1.363 . S
C1096 C1095 1.415 . S
C1097 H1073 0.951 . S
C1097 C1098 1.366 . S
C1097 C1099 1.388 . S
C1098 C1097 1.366 . S
C1098 C1102 1.385 . S
C1099 H1074 0.951 . S
C1099 C1097 1.388 . S
C1099 C1100 1.366 . S
C1100 C1099 1.366 . S
C1100 C1101 1.414 . S
C1100 C1103 1.499 . S
C1101 H1075 0.950 . S
C1101 C1100 1.414 . S
C1101 C1102 1.374 . S
C1102 H1076 0.950 . S
C1102 C1098 1.385 . S
C1102 C1101 1.374 . S
C1103 C1100 1.499 . S
C1103 C1104 1.373 . S
C1103 C1105 1.389 . S
C1104 H1077 0.950 . S
C1104 C1090 1.377 . S
C1104 C1103 1.373 . S
C1105 C1089 1.377 . S
C1105 C1103 1.389 . S
C1105 C1106 1.524 . S
C1106 C1105 1.524 . S
C1106 C1107 1.397 . S
C1106 C1111 1.363 . S
C1107 H1078 0.950 . S
C1107 C1106 1.397 . S
C1107 C1108 1.334 . S
C1108 H1079 0.950 . S
C1108 C1107 1.334 . S
C1108 C1109 1.287 . S
C1109 C1108 1.287 . S
C1109 C1110 1.524 . S
C1109 H1112 0.999 . S
C1110 H1080 0.950 . S
C1110 C1109 1.524 . S
C1110 C1111 1.415 . S
C1111 H1081 0.950 . S
C1111 C1106 1.363 . S
C1111 C1110 1.415 . S
H1112 C1109 0.999 . S
H1113 C1094 0.913 . S
H1114 C1132 0.951 1_545 S
H1115 C1134 0.951 . S
H1116 C1136 0.950 . S
H1117 C1137 0.950 . S
H1118 C1139 0.950 1_565 S
H1119 C1142 0.950 . S
H1120 C1143 0.950 . S
H1121 C1145 0.950 . S
H1122 C1146 0.950 . S
H1123 C1147 0.951 . S
H1124 C1149 0.951 . S
H1125 C1151 0.950 . S
H1126 C1152 0.950 . S
H1127 C1154 0.950 . S
H1128 C1157 0.950 . S
H1129 C1158 0.950 . S
H1130 C1160 0.950 . S
H1131 C1161 0.950 . S
C1132 H1114 0.951 1_565 S
C1132 C1133 1.366 . S
C1132 C1134 1.388 1_565 S
C1133 C1132 1.366 . S
C1133 C1137 1.385 . S
C1134 H1115 0.951 . S
C1134 C1132 1.388 1_545 S
C1134 C1135 1.366 1_545 S
C1135 C1134 1.366 1_565 S
C1135 C1136 1.414 . S
C1135 C1138 1.499 1_565 S
C1136 H1116 0.950 . S
C1136 C1135 1.414 . S
C1136 C1137 1.374 . S
C1137 H1117 0.950 . S
C1137 C1133 1.385 . S
C1137 C1136 1.374 . S
C1138 C1135 1.499 1_545 S
C1138 C1139 1.373 . S
C1138 C1140 1.389 . S
C1139 H1118 0.950 1_545 S
C1139 C1138 1.373 . S
C1139 C1155 1.377 . S
C1140 C1138 1.389 . S
C1140 C1141 1.524 . S
C1140 C1154 1.377 . S
C1141 C1140 1.524 . S
C1141 C1142 1.397 1_545 S
C1141 C1146 1.363 . S
C1142 H1119 0.950 . S
C1142 C1141 1.397 1_565 S
C1142 C1143 1.334 . S
C1143 H1120 0.950 . S
C1143 C1142 1.334 . S
C1143 C1144 1.287 1_565 S
C1144 C1143 1.287 1_545 S
C1144 C1145 1.524 . S
C1144 H1163 0.913 1_545 S
C1145 H1121 0.950 . S
C1145 C1144 1.524 . S
C1145 C1146 1.415 . S
C1146 H1122 0.950 . S
C1146 C1141 1.363 . S
C1146 C1145 1.415 . S
C1147 H1123 0.951 . S
C1147 C1148 1.366 . S
C1147 C1149 1.388 . S
C1148 C1147 1.366 . S
C1148 C1152 1.385 . S
C1149 H1124 0.951 . S
C1149 C1147 1.388 . S
C1149 C1150 1.366 . S
C1150 C1149 1.366 . S
C1150 C1151 1.414 . S
C1150 C1153 1.499 . S
C1151 H1125 0.950 . S
C1151 C1150 1.414 . S
C1151 C1152 1.374 . S
C1152 H1126 0.950 . S
C1152 C1148 1.385 . S
C1152 C1151 1.374 . S
C1153 C1150 1.499 . S
C1153 C1154 1.373 . S
C1153 C1155 1.389 . S
C1154 H1127 0.950 . S
C1154 C1140 1.377 . S
C1154 C1153 1.373 . S
C1155 C1139 1.377 . S
C1155 C1153 1.389 . S
C1155 C1156 1.524 . S
C1156 C1155 1.524 . S
C1156 C1157 1.397 . S
C1156 C1161 1.363 1_545 S
C1157 H1128 0.950 . S
C1157 C1156 1.397 . S
C1157 C1158 1.334 . S
C1158 H1129 0.950 . S
C1158 C1157 1.334 . S
C1158 C1159 1.287 . S
C1159 C1158 1.287 . S
C1159 C1160 1.524 1_545 S
C1159 H1162 0.999 . S
C1160 H1130 0.950 . S
C1160 C1159 1.524 1_565 S
C1160 C1161 1.415 . S
C1161 H1131 0.950 . S
C1161 C1156 1.363 1_565 S
C1161 C1160 1.415 . S
H1162 C1159 0.999 . S
H1163 C1144 0.913 1_565 S
H1164 C1182 0.951 . S
H1165 C1184 0.951 . S
H1166 C1186 0.950 . S
H1167 C1187 0.950 . S
H1168 C1189 0.950 . S
H1169 C1192 0.950 . S
H1170 C1193 0.950 . S
H1171 C1195 0.950 . S
H1172 C1196 0.950 . S
H1173 C1197 0.951 . S
H1174 C1199 0.951 . S
H1175 C1201 0.950 . S
H1176 C1202 0.950 . S
H1177 C1204 0.950 . S
H1178 C1207 0.950 . S
H1179 C1208 0.950 . S
H1180 C1210 0.950 . S
H1181 C1211 0.950 . S
C1182 H1164 0.951 . S
C1182 C1183 1.366 . S
C1182 C1184 1.388 . S
C1183 C1182 1.366 . S
C1183 C1187 1.385 . S
C1184 H1165 0.951 . S
C1184 C1182 1.388 . S
C1184 C1185 1.366 . S
C1185 C1184 1.366 . S
C1185 C1186 1.414 . S
C1185 C1188 1.499 . S
C1186 H1166 0.950 . S
C1186 C1185 1.414 . S
C1186 C1187 1.374 . S
C1187 H1167 0.950 . S
C1187 C1183 1.385 . S
C1187 C1186 1.374 . S
C1188 C1185 1.499 . S
C1188 C1189 1.373 . S
C1188 C1190 1.389 . S
C1189 H1168 0.950 . S
C1189 C1188 1.373 . S
C1189 C1205 1.377 . S
C1190 C1188 1.389 . S
C1190 C1191 1.524 . S
C1190 C1204 1.377 . S
C1191 C1190 1.524 . S
C1191 C1192 1.397 . S
C1191 C1196 1.363 . S
C1192 H1169 0.950 . S
C1192 C1191 1.397 . S
C1192 C1193 1.334 . S
C1193 H1170 0.950 . S
C1193 C1192 1.334 . S
C1193 C1194 1.287 . S
C1194 C1193 1.287 . S
C1194 C1195 1.524 . S
C1194 H1213 0.913 . S
C1195 H1171 0.950 . S
C1195 C1194 1.524 . S
C1195 C1196 1.415 . S
C1196 H1172 0.950 . S
C1196 C1191 1.363 . S
C1196 C1195 1.415 . S
C1197 H1173 0.951 . S
C1197 C1198 1.366 . S
C1197 C1199 1.388 . S
C1198 C1197 1.366 . S
C1198 C1202 1.385 . S
C1199 H1174 0.951 . S
C1199 C1197 1.388 . S
C1199 C1200 1.366 . S
C1200 C1199 1.366 . S
C1200 C1201 1.414 . S
C1200 C1203 1.499 . S
C1201 H1175 0.950 . S
C1201 C1200 1.414 . S
C1201 C1202 1.374 . S
C1202 H1176 0.950 . S
C1202 C1198 1.385 . S
C1202 C1201 1.374 . S
C1203 C1200 1.499 . S
C1203 C1204 1.373 . S
C1203 C1205 1.389 . S
C1204 H1177 0.950 . S
C1204 C1190 1.377 . S
C1204 C1203 1.373 . S
C1205 C1189 1.377 . S
C1205 C1203 1.389 . S
C1205 C1206 1.524 . S
C1206 C1205 1.524 . S
C1206 C1207 1.397 . S
C1206 C1211 1.363 . S
C1207 H1178 0.950 . S
C1207 C1206 1.397 . S
C1207 C1208 1.334 . S
C1208 H1179 0.950 . S
C1208 C1207 1.334 . S
C1208 C1209 1.287 . S
C1209 C1208 1.287 . S
C1209 C1210 1.524 . S
C1209 H1212 0.999 . S
C1210 H1180 0.950 . S
C1210 C1209 1.524 . S
C1210 C1211 1.415 . S
C1211 H1181 0.950 . S
C1211 C1206 1.363 . S
C1211 C1210 1.415 . S
H1212 C1209 0.999 . S
H1213 C1194 0.913 . S
H1214 C1232 0.951 . S
H1215 C1234 0.951 . S
H1216 C1236 0.950 . S
H1217 C1237 0.950 . S
H1218 C1239 0.950 1_545 S
H1219 C1242 0.950 . S
H1220 C1243 0.950 . S
H1221 C1245 0.950 . S
H1222 C1246 0.950 . S
H1223 C1247 0.951 . S
H1224 C1249 0.951 . S
H1225 C1251 0.950 . S
H1226 C1252 0.950 1_565 S
H1227 C1254 0.950 . S
H1228 C1257 0.950 . S
H1229 C1258 0.950 . S
H1230 C1260 0.950 . S
H1231 C1261 0.950 . S
C1232 H1214 0.951 . S
C1232 C1233 1.366 . S
C1232 C1234 1.388 . S
C1233 C1232 1.366 . S
C1233 C1237 1.385 . S
C1234 H1215 0.951 . S
C1234 C1232 1.388 . S
C1234 C1235 1.366 . S
C1235 C1234 1.366 . S
C1235 C1236 1.414 . S
C1235 C1238 1.499 . S
C1236 H1216 0.950 . S
C1236 C1235 1.414 . S
C1236 C1237 1.374 . S
C1237 H1217 0.950 . S
C1237 C1233 1.385 . S
C1237 C1236 1.374 . S
C1238 C1235 1.499 . S
C1238 C1239 1.373 . S
C1238 C1240 1.389 . S
C1239 H1218 0.950 1_565 S
C1239 C1238 1.373 . S
C1239 C1255 1.377 1_565 S
C1240 C1238 1.389 . S
C1240 C1241 1.524 . S
C1240 C1254 1.377 . S
C1241 C1240 1.524 . S
C1241 C1242 1.397 . S
C1241 C1246 1.363 . S
C1242 H1219 0.950 . S
C1242 C1241 1.397 . S
C1242 C1243 1.334 . S
C1243 H1220 0.950 . S
C1243 C1242 1.334 . S
C1243 C1244 1.287 . S
C1244 C1243 1.287 . S
C1244 C1245 1.524 . S
C1244 H1263 0.913 . S
C1245 H1221 0.950 . S
C1245 C1244 1.524 . S
C1245 C1246 1.415 . S
C1246 H1222 0.950 . S
C1246 C1241 1.363 . S
C1246 C1245 1.415 . S
C1247 H1223 0.951 . S
C1247 C1248 1.366 . S
C1247 C1249 1.388 . S
C1248 C1247 1.366 . S
C1248 C1252 1.385 . S
C1249 H1224 0.951 . S
C1249 C1247 1.388 . S
C1249 C1250 1.366 . S
C1250 C1249 1.366 . S
C1250 C1251 1.414 1_545 S
C1250 C1253 1.499 1_545 S
C1251 H1225 0.950 . S
C1251 C1250 1.414 1_565 S
C1251 C1252 1.374 1_565 S
C1252 H1226 0.950 1_545 S
C1252 C1248 1.385 . S
C1252 C1251 1.374 1_545 S
C1253 C1250 1.499 1_565 S
C1253 C1254 1.373 . S
C1253 C1255 1.389 1_565 S
C1254 H1227 0.950 . S
C1254 C1240 1.377 . S
C1254 C1253 1.373 . S
C1255 C1239 1.377 1_545 S
C1255 C1253 1.389 1_545 S
C1255 C1256 1.524 . S
C1256 C1255 1.524 . S
C1256 C1257 1.397 . S
C1256 C1261 1.363 . S
C1257 H1228 0.950 . S
C1257 C1256 1.397 . S
C1257 C1258 1.334 . S
C1258 H1229 0.950 . S
C1258 C1257 1.334 . S
C1258 C1259 1.287 . S
C1259 C1258 1.287 . S
C1259 C1260 1.524 . S
C1259 H1262 0.999 . S
C1260 H1230 0.950 . S
C1260 C1259 1.524 . S
C1260 C1261 1.415 . S
C1261 H1231 0.950 . S
C1261 C1256 1.363 . S
C1261 C1260 1.415 . S
H1262 C1259 0.999 . S
H1263 C1244 0.913 . S
H1264 C1282 0.951 . S
H1265 C1284 0.951 . S
H1266 C1286 0.950 . S
H1267 C1287 0.950 . S
H1268 C1289 0.950 . S
H1269 C1292 0.950 . S
H1270 C1293 0.950 . S
H1271 C1295 0.950 . S
H1272 C1296 0.950 . S
H1273 C1297 0.951 . S
H1274 C1299 0.951 . S
H1275 C1301 0.950 . S
H1276 C1302 0.950 . S
H1277 C1304 0.950 . S
H1278 C1307 0.950 . S
H1279 C1308 0.950 . S
H1280 C1310 0.950 . S
H1281 C1311 0.950 . S
C1282 H1264 0.951 . S
C1282 C1283 1.366 . S
C1282 C1284 1.388 . S
C1283 C1282 1.366 . S
C1283 C1287 1.385 . S
C1284 H1265 0.951 . S
C1284 C1282 1.388 . S
C1284 C1285 1.366 . S
C1285 C1284 1.366 . S
C1285 C1286 1.414 . S
C1285 C1288 1.499 . S
C1286 H1266 0.950 . S
C1286 C1285 1.414 . S
C1286 C1287 1.374 . S
C1287 H1267 0.950 . S
C1287 C1283 1.385 . S
C1287 C1286 1.374 . S
C1288 C1285 1.499 . S
C1288 C1289 1.373 . S
C1288 C1290 1.389 . S
C1289 H1268 0.950 . S
C1289 C1288 1.373 . S
C1289 C1305 1.377 . S
C1290 C1288 1.389 . S
C1290 C1291 1.524 . S
C1290 C1304 1.377 . S
C1291 C1290 1.524 . S
C1291 C1292 1.397 . S
C1291 C1296 1.363 . S
C1292 H1269 0.950 . S
C1292 C1291 1.397 . S
C1292 C1293 1.334 . S
C1293 H1270 0.950 . S
C1293 C1292 1.334 . S
C1293 C1294 1.287 . S
C1294 C1293 1.287 . S
C1294 C1295 1.524 . S
C1294 H1313 0.913 . S
C1295 H1271 0.950 . S
C1295 C1294 1.524 . S
C1295 C1296 1.415 . S
C1296 H1272 0.950 . S
C1296 C1291 1.363 . S
C1296 C1295 1.415 . S
C1297 H1273 0.951 . S
C1297 C1298 1.366 . S
C1297 C1299 1.388 . S
C1298 C1297 1.366 . S
C1298 C1302 1.385 . S
C1299 H1274 0.951 . S
C1299 C1297 1.388 . S
C1299 C1300 1.366 . S
C1300 C1299 1.366 . S
C1300 C1301 1.414 . S
C1300 C1303 1.499 . S
C1301 H1275 0.950 . S
C1301 C1300 1.414 . S
C1301 C1302 1.374 . S
C1302 H1276 0.950 . S
C1302 C1298 1.385 . S
C1302 C1301 1.374 . S
C1303 C1300 1.499 . S
C1303 C1304 1.373 . S
C1303 C1305 1.389 . S
C1304 H1277 0.950 . S
C1304 C1290 1.377 . S
C1304 C1303 1.373 . S
C1305 C1289 1.377 . S
C1305 C1303 1.389 . S
C1305 C1306 1.524 . S
C1306 C1305 1.524 . S
C1306 C1307 1.397 . S
C1306 C1311 1.363 . S
C1307 H1278 0.950 . S
C1307 C1306 1.397 . S
C1307 C1308 1.334 . S
C1308 H1279 0.950 . S
C1308 C1307 1.334 . S
C1308 C1309 1.287 . S
C1309 C1308 1.287 . S
C1309 C1310 1.524 . S
C1309 H1312 0.999 . S
C1310 H1280 0.950 . S
C1310 C1309 1.524 . S
C1310 C1311 1.415 . S
C1311 H1281 0.950 . S
C1311 C1306 1.363 . S
C1311 C1310 1.415 . S
H1312 C1309 0.999 . S
H1313 C1294 0.913 . S
H1314 C1332 0.951 . S
H1315 C1334 0.951 . S
H1316 C1336 0.950 . S
H1317 C1337 0.950 . S
H1318 C1339 0.950 . S
H1319 C1342 0.950 . S
H1320 C1343 0.950 . S
H1321 C1345 0.950 . S
H1322 C1346 0.950 . S
H1323 C1347 0.951 . S
H1324 C1349 0.951 . S
H1325 C1351 0.950 . S
H1326 C1352 0.950 . S
H1327 C1354 0.950 . S
H1328 C1357 0.950 . S
H1329 C1358 0.950 . S
H1330 C1360 0.950 . S
H1331 C1361 0.950 . S
C1332 H1314 0.951 . S
C1332 C1333 1.366 . S
C1332 C1334 1.388 . S
C1333 C1332 1.366 . S
C1333 C1337 1.385 . S
C1334 H1315 0.951 . S
C1334 C1332 1.388 . S
C1334 C1335 1.366 . S
C1335 C1334 1.366 . S
C1335 C1336 1.414 . S
C1335 C1338 1.499 . S
C1336 H1316 0.950 . S
C1336 C1335 1.414 . S
C1336 C1337 1.374 . S
C1337 H1317 0.950 . S
C1337 C1333 1.385 . S
C1337 C1336 1.374 . S
C1338 C1335 1.499 . S
C1338 C1339 1.373 . S
C1338 C1340 1.389 . S
C1339 H1318 0.950 . S
C1339 C1338 1.373 . S
C1339 C1355 1.377 . S
C1340 C1338 1.389 . S
C1340 C1341 1.524 . S
C1340 C1354 1.377 . S
C1341 C1340 1.524 . S
C1341 C1342 1.397 . S
C1341 C1346 1.363 . S
C1342 H1319 0.950 . S
C1342 C1341 1.397 . S
C1342 C1343 1.334 . S
C1343 H1320 0.950 . S
C1343 C1342 1.334 . S
C1343 C1344 1.287 . S
C1344 C1343 1.287 . S
C1344 C1345 1.524 . S
C1344 H1363 0.913 . S
C1345 H1321 0.950 . S
C1345 C1344 1.524 . S
C1345 C1346 1.415 . S
C1346 H1322 0.950 . S
C1346 C1341 1.363 . S
C1346 C1345 1.415 . S
C1347 H1323 0.951 . S
C1347 C1348 1.366 . S
C1347 C1349 1.388 . S
C1348 C1347 1.366 . S
C1348 C1352 1.385 . S
C1349 H1324 0.951 . S
C1349 C1347 1.388 . S
C1349 C1350 1.366 . S
C1350 C1349 1.366 . S
C1350 C1351 1.414 . S
C1350 C1353 1.499 . S
C1351 H1325 0.950 . S
C1351 C1350 1.414 . S
C1351 C1352 1.374 . S
C1352 H1326 0.950 . S
C1352 C1348 1.385 . S
C1352 C1351 1.374 . S
C1353 C1350 1.499 . S
C1353 C1354 1.373 . S
C1353 C1355 1.389 . S
C1354 H1327 0.950 . S
C1354 C1340 1.377 . S
C1354 C1353 1.373 . S
C1355 C1339 1.377 . S
C1355 C1353 1.389 . S
C1355 C1356 1.524 . S
C1356 C1355 1.524 . S
C1356 C1357 1.397 . S
C1356 C1361 1.363 . S
C1357 H1328 0.950 . S
C1357 C1356 1.397 . S
C1357 C1358 1.334 . S
C1358 H1329 0.950 . S
C1358 C1357 1.334 . S
C1358 C1359 1.287 . S
C1359 C1358 1.287 . S
C1359 C1360 1.524 . S
C1359 H1362 0.999 . S
C1360 H1330 0.950 . S
C1360 C1359 1.524 . S
C1360 C1361 1.415 . S
C1361 H1331 0.950 . S
C1361 C1356 1.363 . S
C1361 C1360 1.415 . S
H1362 C1359 0.999 . S
H1363 C1344 0.913 . S
H1364 C1382 0.951 . S
H1365 C1384 0.951 . S
H1366 C1386 0.950 . S
H1367 C1387 0.950 . S
H1368 C1389 0.950 . S
H1369 C1392 0.950 . S
H1370 C1393 0.950 . S
H1371 C1395 0.950 . S
H1372 C1396 0.950 . S
H1373 C1397 0.951 . S
H1374 C1399 0.951 . S
H1375 C1401 0.950 . S
H1376 C1402 0.950 . S
H1377 C1404 0.950 . S
H1378 C1407 0.950 . S
H1379 C1408 0.950 . S
H1380 C1410 0.950 . S
H1381 C1411 0.950 . S
C1382 H1364 0.951 . S
C1382 C1383 1.366 . S
C1382 C1384 1.388 . S
C1383 C1382 1.366 . S
C1383 C1387 1.385 . S
C1384 H1365 0.951 . S
C1384 C1382 1.388 . S
C1384 C1385 1.366 . S
C1385 C1384 1.366 . S
C1385 C1386 1.414 . S
C1385 C1388 1.499 . S
C1386 H1366 0.950 . S
C1386 C1385 1.414 . S
C1386 C1387 1.374 . S
C1387 H1367 0.950 . S
C1387 C1383 1.385 . S
C1387 C1386 1.374 . S
C1388 C1385 1.499 . S
C1388 C1389 1.373 . S
C1388 C1390 1.389 . S
C1389 H1368 0.950 . S
C1389 C1388 1.373 . S
C1389 C1405 1.377 . S
C1390 C1388 1.389 . S
C1390 C1391 1.524 . S
C1390 C1404 1.377 . S
C1391 C1390 1.524 . S
C1391 C1392 1.397 . S
C1391 C1396 1.363 . S
C1392 H1369 0.950 . S
C1392 C1391 1.397 . S
C1392 C1393 1.334 . S
C1393 H1370 0.950 . S
C1393 C1392 1.334 . S
C1393 C1394 1.287 . S
C1394 C1393 1.287 . S
C1394 C1395 1.524 . S
C1394 H1413 0.913 . S
C1395 H1371 0.950 . S
C1395 C1394 1.524 . S
C1395 C1396 1.415 . S
C1396 H1372 0.950 . S
C1396 C1391 1.363 . S
C1396 C1395 1.415 . S
C1397 H1373 0.951 . S
C1397 C1398 1.366 . S
C1397 C1399 1.388 . S
C1398 C1397 1.366 . S
C1398 C1402 1.385 . S
C1399 H1374 0.951 . S
C1399 C1397 1.388 . S
C1399 C1400 1.366 . S
C1400 C1399 1.366 . S
C1400 C1401 1.414 . S
C1400 C1403 1.499 . S
C1401 H1375 0.950 . S
C1401 C1400 1.414 . S
C1401 C1402 1.374 . S
C1402 H1376 0.950 . S
C1402 C1398 1.385 . S
C1402 C1401 1.374 . S
C1403 C1400 1.499 . S
C1403 C1404 1.373 . S
C1403 C1405 1.389 . S
C1404 H1377 0.950 . S
C1404 C1390 1.377 . S
C1404 C1403 1.373 . S
C1405 C1389 1.377 . S
C1405 C1403 1.389 . S
C1405 C1406 1.524 . S
C1406 C1405 1.524 . S
C1406 C1407 1.397 . S
C1406 C1411 1.363 . S
C1407 H1378 0.950 . S
C1407 C1406 1.397 . S
C1407 C1408 1.334 . S
C1408 H1379 0.950 . S
C1408 C1407 1.334 . S
C1408 C1409 1.287 . S
C1409 C1408 1.287 . S
C1409 C1410 1.524 . S
C1409 H1412 0.999 . S
C1410 H1380 0.950 . S
C1410 C1409 1.524 . S
C1410 C1411 1.415 . S
C1411 H1381 0.950 . S
C1411 C1406 1.363 . S
C1411 C1410 1.415 . S
H1412 C1409 0.999 . S
H1413 C1394 0.913 . S
H1414 C1432 0.951 . S
H1415 C1434 0.951 . S
H1416 C1436 0.950 . S
H1417 C1437 0.950 . S
H1418 C1439 0.950 . S
H1419 C1442 0.950 . S
H1420 C1443 0.950 . S
H1421 C1445 0.950 . S
H1422 C1446 0.950 . S
H1423 C1447 0.951 . S
H1424 C1449 0.951 . S
H1425 C1451 0.950 . S
H1426 C1452 0.950 . S
H1427 C1454 0.950 . S
H1428 C1457 0.950 . S
H1429 C1458 0.950 . S
H1430 C1460 0.950 . S
H1431 C1461 0.950 . S
C1432 H1414 0.951 . S
C1432 C1433 1.366 . S
C1432 C1434 1.388 . S
C1433 C1432 1.366 . S
C1433 C1437 1.385 . S
C1434 H1415 0.951 . S
C1434 C1432 1.388 . S
C1434 C1435 1.366 . S
C1435 C1434 1.366 . S
C1435 C1436 1.414 . S
C1435 C1438 1.499 . S
C1436 H1416 0.950 . S
C1436 C1435 1.414 . S
C1436 C1437 1.374 . S
C1437 H1417 0.950 . S
C1437 C1433 1.385 . S
C1437 C1436 1.374 . S
C1438 C1435 1.499 . S
C1438 C1439 1.373 . S
C1438 C1440 1.389 . S
C1439 H1418 0.950 . S
C1439 C1438 1.373 . S
C1439 C1455 1.377 . S
C1440 C1438 1.389 . S
C1440 C1441 1.524 . S
C1440 C1454 1.377 . S
C1441 C1440 1.524 . S
C1441 C1442 1.397 . S
C1441 C1446 1.363 . S
C1442 H1419 0.950 . S
C1442 C1441 1.397 . S
C1442 C1443 1.334 . S
C1443 H1420 0.950 . S
C1443 C1442 1.334 . S
C1443 C1444 1.287 . S
C1444 C1443 1.287 . S
C1444 C1445 1.524 . S
C1444 H1463 0.913 . S
C1445 H1421 0.950 . S
C1445 C1444 1.524 . S
C1445 C1446 1.415 . S
C1446 H1422 0.950 . S
C1446 C1441 1.363 . S
C1446 C1445 1.415 . S
C1447 H1423 0.951 . S
C1447 C1448 1.366 . S
C1447 C1449 1.388 . S
C1448 C1447 1.366 . S
C1448 C1452 1.385 . S
C1449 H1424 0.951 . S
C1449 C1447 1.388 . S
C1449 C1450 1.366 . S
C1450 C1449 1.366 . S
C1450 C1451 1.414 . S
C1450 C1453 1.499 . S
C1451 H1425 0.950 . S
C1451 C1450 1.414 . S
C1451 C1452 1.374 . S
C1452 H1426 0.950 . S
C1452 C1448 1.385 . S
C1452 C1451 1.374 . S
C1453 C1450 1.499 . S
C1453 C1454 1.373 . S
C1453 C1455 1.389 . S
C1454 H1427 0.950 . S
C1454 C1440 1.377 . S
C1454 C1453 1.373 . S
C1455 C1439 1.377 . S
C1455 C1453 1.389 . S
C1455 C1456 1.524 . S
C1456 C1455 1.524 . S
C1456 C1457 1.397 . S
C1456 C1461 1.363 . S
C1457 H1428 0.950 . S
C1457 C1456 1.397 . S
C1457 C1458 1.334 . S
C1458 H1429 0.950 . S
C1458 C1457 1.334 . S
C1458 C1459 1.287 . S
C1459 C1458 1.287 . S
C1459 C1460 1.524 . S
C1459 H1462 0.999 . S
C1460 H1430 0.950 . S
C1460 C1459 1.524 . S
C1460 C1461 1.415 . S
C1461 H1431 0.950 . S
C1461 C1456 1.363 . S
C1461 C1460 1.415 . S
H1462 C1459 0.999 . S
H1463 C1444 0.913 . S
H1464 C1482 0.951 . S
H1465 C1484 0.951 . S
H1466 C1486 0.950 . S
H1467 C1487 0.950 . S
H1468 C1489 0.950 . S
H1469 C1492 0.950 . S
H1470 C1493 0.950 . S
H1471 C1495 0.950 . S
H1472 C1496 0.950 . S
H1473 C1497 0.951 . S
H1474 C1499 0.951 . S
H1475 C1501 0.950 . S
H1476 C1502 0.950 . S
H1477 C1504 0.950 . S
H1478 C1507 0.950 . S
H1479 C1508 0.950 . S
H1480 C1510 0.950 . S
H1481 C1511 0.950 . S
C1482 H1464 0.951 . S
C1482 C1483 1.366 . S
C1482 C1484 1.388 . S
C1483 C1482 1.366 . S
C1483 C1487 1.385 . S
C1484 H1465 0.951 . S
C1484 C1482 1.388 . S
C1484 C1485 1.366 . S
C1485 C1484 1.366 . S
C1485 C1486 1.414 . S
C1485 C1488 1.499 . S
C1486 H1466 0.950 . S
C1486 C1485 1.414 . S
C1486 C1487 1.374 . S
C1487 H1467 0.950 . S
C1487 C1483 1.385 . S
C1487 C1486 1.374 . S
C1488 C1485 1.499 . S
C1488 C1489 1.373 . S
C1488 C1490 1.389 . S
C1489 H1468 0.950 . S
C1489 C1488 1.373 . S
C1489 C1505 1.377 . S
C1490 C1488 1.389 . S
C1490 C1491 1.524 . S
C1490 C1504 1.377 . S
C1491 C1490 1.524 . S
C1491 C1492 1.397 . S
C1491 C1496 1.363 . S
C1492 H1469 0.950 . S
C1492 C1491 1.397 . S
C1492 C1493 1.334 . S
C1493 H1470 0.950 . S
C1493 C1492 1.334 . S
C1493 C1494 1.287 . S
C1494 C1493 1.287 . S
C1494 C1495 1.524 . S
C1494 H1513 0.913 . S
C1495 H1471 0.950 . S
C1495 C1494 1.524 . S
C1495 C1496 1.415 . S
C1496 H1472 0.950 . S
C1496 C1491 1.363 . S
C1496 C1495 1.415 . S
C1497 H1473 0.951 . S
C1497 C1498 1.366 . S
C1497 C1499 1.388 . S
C1498 C1497 1.366 . S
C1498 C1502 1.385 . S
C1499 H1474 0.951 . S
C1499 C1497 1.388 . S
C1499 C1500 1.366 . S
C1500 C1499 1.366 . S
C1500 C1501 1.414 . S
C1500 C1503 1.499 . S
C1501 H1475 0.950 . S
C1501 C1500 1.414 . S
C1501 C1502 1.374 . S
C1502 H1476 0.950 . S
C1502 C1498 1.385 . S
C1502 C1501 1.374 . S
C1503 C1500 1.499 . S
C1503 C1504 1.373 . S
C1503 C1505 1.389 . S
C1504 H1477 0.950 . S
C1504 C1490 1.377 . S
C1504 C1503 1.373 . S
C1505 C1489 1.377 . S
C1505 C1503 1.389 . S
C1505 C1506 1.524 . S
C1506 C1505 1.524 . S
C1506 C1507 1.397 . S
C1506 C1511 1.363 . S
C1507 H1478 0.950 . S
C1507 C1506 1.397 . S
C1507 C1508 1.334 . S
C1508 H1479 0.950 . S
C1508 C1507 1.334 . S
C1508 C1509 1.287 . S
C1509 C1508 1.287 . S
C1509 C1510 1.524 . S
C1509 H1512 0.999 . S
C1510 H1480 0.950 . S
C1510 C1509 1.524 . S
C1510 C1511 1.415 . S
C1511 H1481 0.950 . S
C1511 C1506 1.363 . S
C1511 C1510 1.415 . S
H1512 C1509 0.999 . S
H1513 C1494 0.913 . S
H1514 C1532 0.951 . S
H1515 C1534 0.951 . S
H1516 C1536 0.950 . S
H1517 C1537 0.950 . S
H1518 C1539 0.950 . S
H1519 C1542 0.950 . S
H1520 C1543 0.950 . S
H1521 C1545 0.950 . S
H1522 C1546 0.950 . S
H1523 C1547 0.951 . S
H1524 C1549 0.951 . S
H1525 C1551 0.950 . S
H1526 C1552 0.950 . S
H1527 C1554 0.950 . S
H1528 C1557 0.950 . S
H1529 C1558 0.950 . S
H1530 C1560 0.950 . S
H1531 C1561 0.950 . S
C1532 H1514 0.951 . S
C1532 C1533 1.366 . S
C1532 C1534 1.388 . S
C1533 C1532 1.366 . S
C1533 C1537 1.385 . S
C1534 H1515 0.951 . S
C1534 C1532 1.388 . S
C1534 C1535 1.366 . S
C1535 C1534 1.366 . S
C1535 C1536 1.414 . S
C1535 C1538 1.499 . S
C1536 H1516 0.950 . S
C1536 C1535 1.414 . S
C1536 C1537 1.374 . S
C1537 H1517 0.950 . S
C1537 C1533 1.385 . S
C1537 C1536 1.374 . S
C1538 C1535 1.499 . S
C1538 C1539 1.373 . S
C1538 C1540 1.389 . S
C1539 H1518 0.950 . S
C1539 C1538 1.373 . S
C1539 C1555 1.377 . S
C1540 C1538 1.389 . S
C1540 C1541 1.524 . S
C1540 C1554 1.377 . S
C1541 C1540 1.524 . S
C1541 C1542 1.397 . S
C1541 C1546 1.363 . S
C1542 H1519 0.950 . S
C1542 C1541 1.397 . S
C1542 C1543 1.334 . S
C1543 H1520 0.950 . S
C1543 C1542 1.334 . S
C1543 C1544 1.287 . S
C1544 C1543 1.287 . S
C1544 C1545 1.524 . S
C1544 H1563 0.913 . S
C1545 H1521 0.950 . S
C1545 C1544 1.524 . S
C1545 C1546 1.415 . S
C1546 H1522 0.950 . S
C1546 C1541 1.363 . S
C1546 C1545 1.415 . S
C1547 H1523 0.951 . S
C1547 C1548 1.366 . S
C1547 C1549 1.388 . S
C1548 C1547 1.366 . S
C1548 C1552 1.385 . S
C1549 H1524 0.951 . S
C1549 C1547 1.388 . S
C1549 C1550 1.366 . S
C1550 C1549 1.366 . S
C1550 C1551 1.414 . S
C1550 C1553 1.499 . S
C1551 H1525 0.950 . S
C1551 C1550 1.414 . S
C1551 C1552 1.374 . S
C1552 H1526 0.950 . S
C1552 C1548 1.385 . S
C1552 C1551 1.374 . S
C1553 C1550 1.499 . S
C1553 C1554 1.373 . S
C1553 C1555 1.389 . S
C1554 H1527 0.950 . S
C1554 C1540 1.377 . S
C1554 C1553 1.373 . S
C1555 C1539 1.377 . S
C1555 C1553 1.389 . S
C1555 C1556 1.524 . S
C1556 C1555 1.524 . S
C1556 C1557 1.397 . S
C1556 C1561 1.363 . S
C1557 H1528 0.950 . S
C1557 C1556 1.397 . S
C1557 C1558 1.334 . S
C1558 H1529 0.950 . S
C1558 C1557 1.334 . S
C1558 C1559 1.287 . S
C1559 C1558 1.287 . S
C1559 C1560 1.524 . S
C1559 H1562 0.999 . S
C1560 H1530 0.950 . S
C1560 C1559 1.524 . S
C1560 C1561 1.415 . S
C1561 H1531 0.950 . S
C1561 C1556 1.363 . S
C1561 C1560 1.415 . S
H1562 C1559 0.999 . S
H1563 C1544 0.913 . S
H1564 C1582 0.951 . S
H1565 C1584 0.951 . S
H1566 C1586 0.950 . S
H1567 C1587 0.950 . S
H1568 C1589 0.950 . S
H1569 C1592 0.950 . S
H1570 C1593 0.950 . S
H1571 C1595 0.950 . S
H1572 C1596 0.950 . S
H1573 C1597 0.951 . S
H1574 C1599 0.951 . S
H1575 C1601 0.950 . S
H1576 C1602 0.950 . S
H1577 C1604 0.950 . S
H1578 C1607 0.950 . S
H1579 C1608 0.950 . S
H1580 C1610 0.950 . S
H1581 C1611 0.950 . S
C1582 H1564 0.951 . S
C1582 C1583 1.366 . S
C1582 C1584 1.388 . S
C1583 C1582 1.366 . S
C1583 C1587 1.385 . S
C1584 H1565 0.951 . S
C1584 C1582 1.388 . S
C1584 C1585 1.366 . S
C1585 C1584 1.366 . S
C1585 C1586 1.414 . S
C1585 C1588 1.499 . S
C1586 H1566 0.950 . S
C1586 C1585 1.414 . S
C1586 C1587 1.374 . S
C1587 H1567 0.950 . S
C1587 C1583 1.385 . S
C1587 C1586 1.374 . S
C1588 C1585 1.499 . S
C1588 C1589 1.373 . S
C1588 C1590 1.389 . S
C1589 H1568 0.950 . S
C1589 C1588 1.373 . S
C1589 C1605 1.377 . S
C1590 C1588 1.389 . S
C1590 C1591 1.524 . S
C1590 C1604 1.377 . S
C1591 C1590 1.524 . S
C1591 C1592 1.397 . S
C1591 C1596 1.363 . S
C1592 H1569 0.950 . S
C1592 C1591 1.397 . S
C1592 C1593 1.334 . S
C1593 H1570 0.950 . S
C1593 C1592 1.334 . S
C1593 C1594 1.287 . S
C1594 C1593 1.287 . S
C1594 C1595 1.524 . S
C1594 H1613 0.913 . S
C1595 H1571 0.950 . S
C1595 C1594 1.524 . S
C1595 C1596 1.415 . S
C1596 H1572 0.950 . S
C1596 C1591 1.363 . S
C1596 C1595 1.415 . S
C1597 H1573 0.951 . S
C1597 C1598 1.366 . S
C1597 C1599 1.388 . S
C1598 C1597 1.366 . S
C1598 C1602 1.385 . S
C1599 H1574 0.951 . S
C1599 C1597 1.388 . S
C1599 C1600 1.366 . S
C1600 C1599 1.366 . S
C1600 C1601 1.414 . S
C1600 C1603 1.499 . S
C1601 H1575 0.950 . S
C1601 C1600 1.414 . S
C1601 C1602 1.374 . S
C1602 H1576 0.950 . S
C1602 C1598 1.385 . S
C1602 C1601 1.374 . S
C1603 C1600 1.499 . S
C1603 C1604 1.373 . S
C1603 C1605 1.389 . S
C1604 H1577 0.950 . S
C1604 C1590 1.377 . S
C1604 C1603 1.373 . S
C1605 C1589 1.377 . S
C1605 C1603 1.389 . S
C1605 C1606 1.524 . S
C1606 C1605 1.524 . S
C1606 C1607 1.397 . S
C1606 C1611 1.363 . S
C1607 H1578 0.950 . S
C1607 C1606 1.397 . S
C1607 C1608 1.334 . S
C1608 H1579 0.950 . S
C1608 C1607 1.334 . S
C1608 C1609 1.287 . S
C1609 C1608 1.287 . S
C1609 C1610 1.524 . S
C1609 H1612 0.999 . S
C1610 H1580 0.950 . S
C1610 C1609 1.524 . S
C1610 C1611 1.415 . S
C1611 H1581 0.950 . S
C1611 C1606 1.363 . S
C1611 C1610 1.415 . S
H1612 C1609 0.999 . S
H1613 C1594 0.913 . S
H1614 C1632 0.951 . S
H1615 C1634 0.951 . S
H1616 C1636 0.950 . S
H1617 C1637 0.950 . S
H1618 C1639 0.950 . S
H1619 C1642 0.950 . S
H1620 C1643 0.950 . S
H1621 C1645 0.950 . S
H1622 C1646 0.950 . S
H1623 C1647 0.951 . S
H1624 C1649 0.951 . S
H1625 C1651 0.950 . S
H1626 C1652 0.950 . S
H1627 C1654 0.950 . S
H1628 C1657 0.950 . S
H1629 C1658 0.950 . S
H1630 C1660 0.950 . S
H1631 C1661 0.950 . S
C1632 H1614 0.951 . S
C1632 C1633 1.366 . S
C1632 C1634 1.388 . S
C1633 C1632 1.366 . S
C1633 C1637 1.385 . S
C1634 H1615 0.951 . S
C1634 C1632 1.388 . S
C1634 C1635 1.366 . S
C1635 C1634 1.366 . S
C1635 C1636 1.414 . S
C1635 C1638 1.499 . S
C1636 H1616 0.950 . S
C1636 C1635 1.414 . S
C1636 C1637 1.374 . S
C1637 H1617 0.950 . S
C1637 C1633 1.385 . S
C1637 C1636 1.374 . S
C1638 C1635 1.499 . S
C1638 C1639 1.373 . S
C1638 C1640 1.389 . S
C1639 H1618 0.950 . S
C1639 C1638 1.373 . S
C1639 C1655 1.377 . S
C1640 C1638 1.389 . S
C1640 C1641 1.524 . S
C1640 C1654 1.377 . S
C1641 C1640 1.524 . S
C1641 C1642 1.397 . S
C1641 C1646 1.363 . S
C1642 H1619 0.950 . S
C1642 C1641 1.397 . S
C1642 C1643 1.334 . S
C1643 H1620 0.950 . S
C1643 C1642 1.334 . S
C1643 C1644 1.287 . S
C1644 C1643 1.287 . S
C1644 C1645 1.524 . S
C1644 H1663 0.913 . S
C1645 H1621 0.950 . S
C1645 C1644 1.524 . S
C1645 C1646 1.415 . S
C1646 H1622 0.950 . S
C1646 C1641 1.363 . S
C1646 C1645 1.415 . S
C1647 H1623 0.951 . S
C1647 C1648 1.366 . S
C1647 C1649 1.388 . S
C1648 C1647 1.366 . S
C1648 C1652 1.385 . S
C1649 H1624 0.951 . S
C1649 C1647 1.388 . S
C1649 C1650 1.366 . S
C1650 C1649 1.366 . S
C1650 C1651 1.414 . S
C1650 C1653 1.499 . S
C1651 H1625 0.950 . S
C1651 C1650 1.414 . S
C1651 C1652 1.374 . S
C1652 H1626 0.950 . S
C1652 C1648 1.385 . S
C1652 C1651 1.374 . S
C1653 C1650 1.499 . S
C1653 C1654 1.373 . S
C1653 C1655 1.389 . S
C1654 H1627 0.950 . S
C1654 C1640 1.377 . S
C1654 C1653 1.373 . S
C1655 C1639 1.377 . S
C1655 C1653 1.389 . S
C1655 C1656 1.524 . S
C1656 C1655 1.524 . S
C1656 C1657 1.397 . S
C1656 C1661 1.363 . S
C1657 H1628 0.950 . S
C1657 C1656 1.397 . S
C1657 C1658 1.334 . S
C1658 H1629 0.950 . S
C1658 C1657 1.334 . S
C1658 C1659 1.287 . S
C1659 C1658 1.287 . S
C1659 C1660 1.524 . S
C1659 H1662 0.999 1_655 S
C1660 H1630 0.950 . S
C1660 C1659 1.524 . S
C1660 C1661 1.415 . S
C1661 H1631 0.950 . S
C1661 C1656 1.363 . S
C1661 C1660 1.415 . S
H1662 C1659 0.999 1_455 S
H1663 C1644 0.913 . S
H1664 C1682 0.951 . S
H1665 C1684 0.951 . S
H1666 C1686 0.950 . S
H1667 C1687 0.950 . S
H1668 C1689 0.950 . S
H1669 C1692 0.950 . S
H1670 C1693 0.950 . S
H1671 C1695 0.950 . S
H1672 C1696 0.950 . S
H1673 C1697 0.951 . S
H1674 C1699 0.951 . S
H1675 C1701 0.950 . S
H1676 C1702 0.950 . S
H1677 C1704 0.950 . S
H1678 C1707 0.950 . S
H1679 C1708 0.950 . S
H1680 C1710 0.950 . S
H1681 C1711 0.950 . S
C1682 H1664 0.951 . S
C1682 C1683 1.366 . S
C1682 C1684 1.388 . S
C1683 C1682 1.366 . S
C1683 C1687 1.385 . S
C1684 H1665 0.951 . S
C1684 C1682 1.388 . S
C1684 C1685 1.366 . S
C1685 C1684 1.366 . S
C1685 C1686 1.414 . S
C1685 C1688 1.499 . S
C1686 H1666 0.950 . S
C1686 C1685 1.414 . S
C1686 C1687 1.374 . S
C1687 H1667 0.950 . S
C1687 C1683 1.385 . S
C1687 C1686 1.374 . S
C1688 C1685 1.499 . S
C1688 C1689 1.373 . S
C1688 C1690 1.389 . S
C1689 H1668 0.950 . S
C1689 C1688 1.373 . S
C1689 C1705 1.377 . S
C1690 C1688 1.389 . S
C1690 C1691 1.524 . S
C1690 C1704 1.377 . S
C1691 C1690 1.524 . S
C1691 C1692 1.397 . S
C1691 C1696 1.363 . S
C1692 H1669 0.950 . S
C1692 C1691 1.397 . S
C1692 C1693 1.334 . S
C1693 H1670 0.950 . S
C1693 C1692 1.334 . S
C1693 C1694 1.287 . S
C1694 C1693 1.287 . S
C1694 C1695 1.524 . S
C1694 H1713 0.913 . S
C1695 H1671 0.950 . S
C1695 C1694 1.524 . S
C1695 C1696 1.415 . S
C1696 H1672 0.950 . S
C1696 C1691 1.363 . S
C1696 C1695 1.415 . S
C1697 H1673 0.951 . S
C1697 C1698 1.366 . S
C1697 C1699 1.388 . S
C1698 C1697 1.366 . S
C1698 C1702 1.385 . S
C1699 H1674 0.951 . S
C1699 C1697 1.388 . S
C1699 C1700 1.366 . S
C1700 C1699 1.366 . S
C1700 C1701 1.414 . S
C1700 C1703 1.499 . S
C1701 H1675 0.950 . S
C1701 C1700 1.414 . S
C1701 C1702 1.374 . S
C1702 H1676 0.950 . S
C1702 C1698 1.385 . S
C1702 C1701 1.374 . S
C1703 C1700 1.499 . S
C1703 C1704 1.373 . S
C1703 C1705 1.389 . S
C1704 H1677 0.950 . S
C1704 C1690 1.377 . S
C1704 C1703 1.373 . S
C1705 C1689 1.377 . S
C1705 C1703 1.389 . S
C1705 C1706 1.524 . S
C1706 C1705 1.524 . S
C1706 C1707 1.397 . S
C1706 C1711 1.363 . S
C1707 H1678 0.950 . S
C1707 C1706 1.397 . S
C1707 C1708 1.334 . S
C1708 H1679 0.950 . S
C1708 C1707 1.334 . S
C1708 C1709 1.287 . S
C1709 C1708 1.287 . S
C1709 C1710 1.524 . S
C1709 H1712 0.999 . S
C1710 H1680 0.950 . S
C1710 C1709 1.524 . S
C1710 C1711 1.415 . S
C1711 H1681 0.950 . S
C1711 C1706 1.363 . S
C1711 C1710 1.415 . S
H1712 C1709 0.999 . S
H1713 C1694 0.913 . S
H1714 C1732 0.951 . S
H1715 C1734 0.951 . S
H1716 C1736 0.950 . S
H1717 C1737 0.950 . S
H1718 C1739 0.950 . S
H1719 C1742 0.950 . S
H1720 C1743 0.950 . S
H1721 C1745 0.950 . S
H1722 C1746 0.950 . S
H1723 C1747 0.951 . S
H1724 C1749 0.951 . S
H1725 C1751 0.950 . S
H1726 C1752 0.950 . S
H1727 C1754 0.950 . S
H1728 C1757 0.950 . S
H1729 C1758 0.950 . S
H1730 C1760 0.950 . S
H1731 C1761 0.950 . S
C1732 H1714 0.951 . S
C1732 C1733 1.366 . S
C1732 C1734 1.388 . S
C1733 C1732 1.366 . S
C1733 C1737 1.385 1_545 S
C1734 H1715 0.951 . S
C1734 C1732 1.388 . S
C1734 C1735 1.366 1_545 S
C1735 C1734 1.366 1_565 S
C1735 C1736 1.414 . S
C1735 C1738 1.499 . S
C1736 H1716 0.950 . S
C1736 C1735 1.414 . S
C1736 C1737 1.374 . S
C1737 H1717 0.950 . S
C1737 C1733 1.385 1_565 S
C1737 C1736 1.374 . S
C1738 C1735 1.499 . S
C1738 C1739 1.373 . S
C1738 C1740 1.389 . S
C1739 H1718 0.950 . S
C1739 C1738 1.373 . S
C1739 C1755 1.377 . S
C1740 C1738 1.389 . S
C1740 C1741 1.524 1_565 S
C1740 C1754 1.377 . S
C1741 C1740 1.524 1_545 S
C1741 C1742 1.397 . S
C1741 C1746 1.363 . S
C1742 H1719 0.950 . S
C1742 C1741 1.397 . S
C1742 C1743 1.334 . S
C1743 H1720 0.950 . S
C1743 C1742 1.334 . S
C1743 C1744 1.287 . S
C1744 C1743 1.287 . S
C1744 C1745 1.524 . S
C1744 H1763 0.913 . S
C1745 H1721 0.950 . S
C1745 C1744 1.524 . S
C1745 C1746 1.415 . S
C1746 H1722 0.950 . S
C1746 C1741 1.363 . S
C1746 C1745 1.415 . S
C1747 H1723 0.951 . S
C1747 C1748 1.366 . S
C1747 C1749 1.388 . S
C1748 C1747 1.366 . S
C1748 C1752 1.385 . S
C1749 H1724 0.951 . S
C1749 C1747 1.388 . S
C1749 C1750 1.366 . S
C1750 C1749 1.366 . S
C1750 C1751 1.414 . S
C1750 C1753 1.499 . S
C1751 H1725 0.950 . S
C1751 C1750 1.414 . S
C1751 C1752 1.374 . S
C1752 H1726 0.950 . S
C1752 C1748 1.385 . S
C1752 C1751 1.374 . S
C1753 C1750 1.499 . S
C1753 C1754 1.373 . S
C1753 C1755 1.389 . S
C1754 H1727 0.950 . S
C1754 C1740 1.377 . S
C1754 C1753 1.373 . S
C1755 C1739 1.377 . S
C1755 C1753 1.389 . S
C1755 C1756 1.524 . S
C1756 C1755 1.524 . S
C1756 C1757 1.397 . S
C1756 C1761 1.363 . S
C1757 H1728 0.950 . S
C1757 C1756 1.397 . S
C1757 C1758 1.334 . S
C1758 H1729 0.950 . S
C1758 C1757 1.334 . S
C1758 C1759 1.287 . S
C1759 C1758 1.287 . S
C1759 C1760 1.524 . S
C1759 H1762 0.999 . S
C1760 H1730 0.950 . S
C1760 C1759 1.524 . S
C1760 C1761 1.415 . S
C1761 H1731 0.950 . S
C1761 C1756 1.363 . S
C1761 C1760 1.415 . S
H1762 C1759 0.999 . S
H1763 C1744 0.913 . S
H1764 C1782 0.951 . S
H1765 C1784 0.951 . S
H1766 C1786 0.950 . S
H1767 C1787 0.950 . S
H1768 C1789 0.950 . S
H1769 C1792 0.950 . S
H1770 C1793 0.950 . S
H1771 C1795 0.950 . S
H1772 C1796 0.950 . S
H1773 C1797 0.951 . S
H1774 C1799 0.951 . S
H1775 C1801 0.950 . S
H1776 C1802 0.950 . S
H1777 C1804 0.950 . S
H1778 C1807 0.950 . S
H1779 C1808 0.950 . S
H1780 C1810 0.950 . S
H1781 C1811 0.950 . S
C1782 H1764 0.951 . S
C1782 C1783 1.366 . S
C1782 C1784 1.388 . S
C1783 C1782 1.366 . S
C1783 C1787 1.385 . S
C1784 H1765 0.951 . S
C1784 C1782 1.388 . S
C1784 C1785 1.366 . S
C1785 C1784 1.366 . S
C1785 C1786 1.414 . S
C1785 C1788 1.499 . S
C1786 H1766 0.950 . S
C1786 C1785 1.414 . S
C1786 C1787 1.374 . S
C1787 H1767 0.950 . S
C1787 C1783 1.385 . S
C1787 C1786 1.374 . S
C1788 C1785 1.499 . S
C1788 C1789 1.373 . S
C1788 C1790 1.389 . S
C1789 H1768 0.950 . S
C1789 C1788 1.373 . S
C1789 C1805 1.377 . S
C1790 C1788 1.389 . S
C1790 C1791 1.524 . S
C1790 C1804 1.377 . S
C1791 C1790 1.524 . S
C1791 C1792 1.397 . S
C1791 C1796 1.363 . S
C1792 H1769 0.950 . S
C1792 C1791 1.397 . S
C1792 C1793 1.334 . S
C1793 H1770 0.950 . S
C1793 C1792 1.334 . S
C1793 C1794 1.287 . S
C1794 C1793 1.287 . S
C1794 C1795 1.524 . S
C1794 H1813 0.913 . S
C1795 H1771 0.950 . S
C1795 C1794 1.524 . S
C1795 C1796 1.415 . S
C1796 H1772 0.950 . S
C1796 C1791 1.363 . S
C1796 C1795 1.415 . S
C1797 H1773 0.951 . S
C1797 C1798 1.366 . S
C1797 C1799 1.388 . S
C1798 C1797 1.366 . S
C1798 C1802 1.385 . S
C1799 H1774 0.951 . S
C1799 C1797 1.388 . S
C1799 C1800 1.366 . S
C1800 C1799 1.366 . S
C1800 C1801 1.414 . S
C1800 C1803 1.499 . S
C1801 H1775 0.950 . S
C1801 C1800 1.414 . S
C1801 C1802 1.374 . S
C1802 H1776 0.950 . S
C1802 C1798 1.385 . S
C1802 C1801 1.374 . S
C1803 C1800 1.499 . S
C1803 C1804 1.373 . S
C1803 C1805 1.389 . S
C1804 H1777 0.950 . S
C1804 C1790 1.377 . S
C1804 C1803 1.373 . S
C1805 C1789 1.377 . S
C1805 C1803 1.389 . S
C1805 C1806 1.524 . S
C1806 C1805 1.524 . S
C1806 C1807 1.397 . S
C1806 C1811 1.363 . S
C1807 H1778 0.950 . S
C1807 C1806 1.397 . S
C1807 C1808 1.334 . S
C1808 H1779 0.950 . S
C1808 C1807 1.334 . S
C1808 C1809 1.287 . S
C1809 C1808 1.287 . S
C1809 C1810 1.524 . S
C1809 H1812 0.999 . S
C1810 H1780 0.950 . S
C1810 C1809 1.524 . S
C1810 C1811 1.415 . S
C1811 H1781 0.950 . S
C1811 C1806 1.363 . S
C1811 C1810 1.415 . S
H1812 C1809 0.999 . S
H1813 C1794 0.913 . S
H1814 C1832 0.951 . S
H1815 C1834 0.951 . S
H1816 C1836 0.950 . S
H1817 C1837 0.950 . S
H1818 C1839 0.950 . S
H1819 C1842 0.950 . S
H1820 C1843 0.950 . S
H1821 C1845 0.950 . S
H1822 C1846 0.950 . S
H1823 C1847 0.951 . S
H1824 C1849 0.951 . S
H1825 C1851 0.950 . S
H1826 C1852 0.950 . S
H1827 C1854 0.950 . S
H1828 C1857 0.950 . S
H1829 C1858 0.950 . S
H1830 C1860 0.950 . S
H1831 C1861 0.950 1_545 S
C1832 H1814 0.951 . S
C1832 C1833 1.366 . S
C1832 C1834 1.388 . S
C1833 C1832 1.366 . S
C1833 C1837 1.385 . S
C1834 H1815 0.951 . S
C1834 C1832 1.388 . S
C1834 C1835 1.366 . S
C1835 C1834 1.366 . S
C1835 C1836 1.414 . S
C1835 C1838 1.499 . S
C1836 H1816 0.950 . S
C1836 C1835 1.414 . S
C1836 C1837 1.374 . S
C1837 H1817 0.950 . S
C1837 C1833 1.385 . S
C1837 C1836 1.374 . S
C1838 C1835 1.499 . S
C1838 C1839 1.373 . S
C1838 C1840 1.389 . S
C1839 H1818 0.950 . S
C1839 C1838 1.373 . S
C1839 C1855 1.377 . S
C1840 C1838 1.389 . S
C1840 C1841 1.524 . S
C1840 C1854 1.377 . S
C1841 C1840 1.524 . S
C1841 C1842 1.397 . S
C1841 C1846 1.363 . S
C1842 H1819 0.950 . S
C1842 C1841 1.397 . S
C1842 C1843 1.334 . S
C1843 H1820 0.950 . S
C1843 C1842 1.334 . S
C1843 C1844 1.287 . S
C1844 C1843 1.287 . S
C1844 C1845 1.524 . S
C1844 H1863 0.913 . S
C1845 H1821 0.950 . S
C1845 C1844 1.524 . S
C1845 C1846 1.415 . S
C1846 H1822 0.950 . S
C1846 C1841 1.363 . S
C1846 C1845 1.415 . S
C1847 H1823 0.951 . S
C1847 C1848 1.366 . S
C1847 C1849 1.388 1_565 S
C1848 C1847 1.366 . S
C1848 C1852 1.385 . S
C1849 H1824 0.951 . S
C1849 C1847 1.388 1_545 S
C1849 C1850 1.366 . S
C1850 C1849 1.366 . S
C1850 C1851 1.414 . S
C1850 C1853 1.499 . S
C1851 H1825 0.950 . S
C1851 C1850 1.414 . S
C1851 C1852 1.374 1_545 S
C1852 H1826 0.950 . S
C1852 C1848 1.385 . S
C1852 C1851 1.374 1_565 S
C1853 C1850 1.499 . S
C1853 C1854 1.373 . S
C1853 C1855 1.389 . S
C1854 H1827 0.950 . S
C1854 C1840 1.377 . S
C1854 C1853 1.373 . S
C1855 C1839 1.377 . S
C1855 C1853 1.389 . S
C1855 C1856 1.524 1_545 S
C1856 C1855 1.524 1_565 S
C1856 C1857 1.397 . S
C1856 C1861 1.363 . S
C1857 H1828 0.950 . S
C1857 C1856 1.397 . S
C1857 C1858 1.334 . S
C1858 H1829 0.950 . S
C1858 C1857 1.334 . S
C1858 C1859 1.287 . S
C1859 C1858 1.287 . S
C1859 C1860 1.524 . S
C1859 H1862 0.999 . S
C1860 H1830 0.950 . S
C1860 C1859 1.524 . S
C1860 C1861 1.415 . S
C1861 H1831 0.950 1_565 S
C1861 C1856 1.363 . S
C1861 C1860 1.415 . S
H1862 C1859 0.999 . S
H1863 C1844 0.913 . S
H1864 C1882 0.951 . S
H1865 C1884 0.951 . S
H1866 C1886 0.950 . S
H1867 C1887 0.950 . S
H1868 C1889 0.950 . S
H1869 C1892 0.950 . S
H1870 C1893 0.950 . S
H1871 C1895 0.950 . S
H1872 C1896 0.950 . S
H1873 C1897 0.951 . S
H1874 C1899 0.951 . S
H1875 C1901 0.950 . S
H1876 C1902 0.950 . S
H1877 C1904 0.950 . S
H1878 C1907 0.950 . S
H1879 C1908 0.950 . S
H1880 C1910 0.950 . S
H1881 C1911 0.950 . S
C1882 H1864 0.951 . S
C1882 C1883 1.366 . S
C1882 C1884 1.388 . S
C1883 C1882 1.366 . S
C1883 C1887 1.385 . S
C1884 H1865 0.951 . S
C1884 C1882 1.388 . S
C1884 C1885 1.366 . S
C1885 C1884 1.366 . S
C1885 C1886 1.414 . S
C1885 C1888 1.499 . S
C1886 H1866 0.950 . S
C1886 C1885 1.414 . S
C1886 C1887 1.374 . S
C1887 H1867 0.950 . S
C1887 C1883 1.385 . S
C1887 C1886 1.374 . S
C1888 C1885 1.499 . S
C1888 C1889 1.373 . S
C1888 C1890 1.389 . S
C1889 H1868 0.950 . S
C1889 C1888 1.373 . S
C1889 C1905 1.377 . S
C1890 C1888 1.389 . S
C1890 C1891 1.524 . S
C1890 C1904 1.377 . S
C1891 C1890 1.524 . S
C1891 C1892 1.397 . S
C1891 C1896 1.363 . S
C1892 H1869 0.950 . S
C1892 C1891 1.397 . S
C1892 C1893 1.334 . S
C1893 H1870 0.950 . S
C1893 C1892 1.334 . S
C1893 C1894 1.287 . S
C1894 C1893 1.287 . S
C1894 C1895 1.524 . S
C1894 H1913 0.913 . S
C1895 H1871 0.950 . S
C1895 C1894 1.524 . S
C1895 C1896 1.415 . S
C1896 H1872 0.950 . S
C1896 C1891 1.363 . S
C1896 C1895 1.415 . S
C1897 H1873 0.951 . S
C1897 C1898 1.366 . S
C1897 C1899 1.388 . S
C1898 C1897 1.366 . S
C1898 C1902 1.385 . S
C1899 H1874 0.951 . S
C1899 C1897 1.388 . S
C1899 C1900 1.366 . S
C1900 C1899 1.366 . S
C1900 C1901 1.414 . S
C1900 C1903 1.499 . S
C1901 H1875 0.950 . S
C1901 C1900 1.414 . S
C1901 C1902 1.374 . S
C1902 H1876 0.950 . S
C1902 C1898 1.385 . S
C1902 C1901 1.374 . S
C1903 C1900 1.499 . S
C1903 C1904 1.373 . S
C1903 C1905 1.389 . S
C1904 H1877 0.950 . S
C1904 C1890 1.377 . S
C1904 C1903 1.373 . S
C1905 C1889 1.377 . S
C1905 C1903 1.389 . S
C1905 C1906 1.524 . S
C1906 C1905 1.524 . S
C1906 C1907 1.397 . S
C1906 C1911 1.363 . S
C1907 H1878 0.950 . S
C1907 C1906 1.397 . S
C1907 C1908 1.334 . S
C1908 H1879 0.950 . S
C1908 C1907 1.334 . S
C1908 C1909 1.287 . S
C1909 C1908 1.287 . S
C1909 C1910 1.524 . S
C1909 H1912 0.999 . S
C1910 H1880 0.950 . S
C1910 C1909 1.524 . S
C1910 C1911 1.415 . S
C1911 H1881 0.950 . S
C1911 C1906 1.363 . S
C1911 C1910 1.415 . S
H1912 C1909 0.999 . S
H1913 C1894 0.913 . S
H1914 C1932 0.951 1_655 S
H1915 C1934 0.951 . S
H1916 C1936 0.950 . S
H1917 C1937 0.950 . S
H1918 C1939 0.950 . S
H1919 C1942 0.950 . S
H1920 C1943 0.950 . S
H1921 C1945 0.950 . S
H1922 C1946 0.950 . S
H1923 C1947 0.951 . S
H1924 C1949 0.951 . S
H1925 C1951 0.950 . S
H1926 C1952 0.950 . S
H1927 C1954 0.950 . S
H1928 C1957 0.950 . S
H1929 C1958 0.950 . S
H1930 C1960 0.950 . S
H1931 C1961 0.950 . S
C1932 H1914 0.951 1_455 S
C1932 C1933 1.366 1_545 S
C1932 C1934 1.388 . S
C1933 C1932 1.366 1_565 S
C1933 C1937 1.385 . S
C1934 H1915 0.951 . S
C1934 C1932 1.388 . S
C1934 C1935 1.366 . S
C1935 C1934 1.366 . S
C1935 C1936 1.414 1_545 S
C1935 C1938 1.499 . S
C1936 H1916 0.950 . S
C1936 C1935 1.414 1_565 S
C1936 C1937 1.374 . S
C1937 H1917 0.950 . S
C1937 C1933 1.385 . S
C1937 C1936 1.374 . S
C1938 C1935 1.499 . S
C1938 C1939 1.373 . S
C1938 C1940 1.389 . S
C1939 H1918 0.950 . S
C1939 C1938 1.373 . S
C1939 C1955 1.377 . S
C1940 C1938 1.389 . S
C1940 C1941 1.524 1_545 S
C1940 C1954 1.377 . S
C1941 C1940 1.524 1_565 S
C1941 C1942 1.397 . S
C1941 C1946 1.363 1_565 S
C1942 H1919 0.950 . S
C1942 C1941 1.397 . S
C1942 C1943 1.334 . S
C1943 H1920 0.950 . S
C1943 C1942 1.334 . S
C1943 C1944 1.287 . S
C1944 C1943 1.287 . S
C1944 C1945 1.524 . S
C1944 H1963 0.913 . S
C1945 H1921 0.950 . S
C1945 C1944 1.524 . S
C1945 C1946 1.415 1_565 S
C1946 H1922 0.950 . S
C1946 C1941 1.363 1_545 S
C1946 C1945 1.415 1_545 S
C1947 H1923 0.951 . S
C1947 C1948 1.366 . S
C1947 C1949 1.388 . S
C1948 C1947 1.366 . S
C1948 C1952 1.385 . S
C1949 H1924 0.951 . S
C1949 C1947 1.388 . S
C1949 C1950 1.366 . S
C1950 C1949 1.366 . S
C1950 C1951 1.414 . S
C1950 C1953 1.499 . S
C1951 H1925 0.950 . S
C1951 C1950 1.414 . S
C1951 C1952 1.374 . S
C1952 H1926 0.950 . S
C1952 C1948 1.385 . S
C1952 C1951 1.374 . S
C1953 C1950 1.499 . S
C1953 C1954 1.373 . S
C1953 C1955 1.389 . S
C1954 H1927 0.950 . S
C1954 C1940 1.377 . S
C1954 C1953 1.373 . S
C1955 C1939 1.377 . S
C1955 C1953 1.389 . S
C1955 C1956 1.524 . S
C1956 C1955 1.524 . S
C1956 C1957 1.397 . S
C1956 C1961 1.363 . S
C1957 H1928 0.950 . S
C1957 C1956 1.397 . S
C1957 C1958 1.334 . S
C1958 H1929 0.950 . S
C1958 C1957 1.334 . S
C1958 C1959 1.287 . S
C1959 C1958 1.287 . S
C1959 C1960 1.524 . S
C1959 H1962 0.999 . S
C1960 H1930 0.950 . S
C1960 C1959 1.524 . S
C1960 C1961 1.415 . S
C1961 H1931 0.950 . S
C1961 C1956 1.363 . S
C1961 C1960 1.415 . S
H1962 C1959 0.999 . S
H1963 C1944 0.913 . S
H1964 C1982 0.951 . S
H1965 C1984 0.951 . S
H1966 C1986 0.950 . S
H1967 C1987 0.950 . S
H1968 C1989 0.950 . S
H1969 C1992 0.950 . S
H1970 C1993 0.950 . S
H1971 C1995 0.950 . S
H1972 C1996 0.950 . S
H1973 C1997 0.951 . S
H1974 C1999 0.951 . S
H1975 C2001 0.950 . S
H1976 C2002 0.950 . S
H1977 C2004 0.950 . S
H1978 C2007 0.950 . S
H1979 C2008 0.950 . S
H1980 C2010 0.950 . S
H1981 C2011 0.950 . S
C1982 H1964 0.951 . S
C1982 C1983 1.366 . S
C1982 C1984 1.388 . S
C1983 C1982 1.366 . S
C1983 C1987 1.385 . S
C1984 H1965 0.951 . S
C1984 C1982 1.388 . S
C1984 C1985 1.366 . S
C1985 C1984 1.366 . S
C1985 C1986 1.414 . S
C1985 C1988 1.499 . S
C1986 H1966 0.950 . S
C1986 C1985 1.414 . S
C1986 C1987 1.374 . S
C1987 H1967 0.950 . S
C1987 C1983 1.385 . S
C1987 C1986 1.374 . S
C1988 C1985 1.499 . S
C1988 C1989 1.373 . S
C1988 C1990 1.389 . S
C1989 H1968 0.950 . S
C1989 C1988 1.373 . S
C1989 C2005 1.377 . S
C1990 C1988 1.389 . S
C1990 C1991 1.524 . S
C1990 C2004 1.377 . S
C1991 C1990 1.524 . S
C1991 C1992 1.397 . S
C1991 C1996 1.363 . S
C1992 H1969 0.950 . S
C1992 C1991 1.397 . S
C1992 C1993 1.334 . S
C1993 H1970 0.950 . S
C1993 C1992 1.334 . S
C1993 C1994 1.287 . S
C1994 C1993 1.287 . S
C1994 C1995 1.524 . S
C1994 H2013 0.913 . S
C1995 H1971 0.950 . S
C1995 C1994 1.524 . S
C1995 C1996 1.415 . S
C1996 H1972 0.950 . S
C1996 C1991 1.363 . S
C1996 C1995 1.415 . S
C1997 H1973 0.951 . S
C1997 C1998 1.366 . S
C1997 C1999 1.388 . S
C1998 C1997 1.366 . S
C1998 C2002 1.385 . S
C1999 H1974 0.951 . S
C1999 C1997 1.388 . S
C1999 C2000 1.366 . S
C2000 C1999 1.366 . S
C2000 C2001 1.414 . S
C2000 C2003 1.499 . S
C2001 H1975 0.950 . S
C2001 C2000 1.414 . S
C2001 C2002 1.374 . S
C2002 H1976 0.950 . S
C2002 C1998 1.385 . S
C2002 C2001 1.374 . S
C2003 C2000 1.499 . S
C2003 C2004 1.373 . S
C2003 C2005 1.389 . S
C2004 H1977 0.950 . S
C2004 C1990 1.377 . S
C2004 C2003 1.373 . S
C2005 C1989 1.377 . S
C2005 C2003 1.389 . S
C2005 C2006 1.524 . S
C2006 C2005 1.524 . S
C2006 C2007 1.397 . S
C2006 C2011 1.363 . S
C2007 H1978 0.950 . S
C2007 C2006 1.397 . S
C2007 C2008 1.334 . S
C2008 H1979 0.950 . S
C2008 C2007 1.334 . S
C2008 C2009 1.287 . S
C2009 C2008 1.287 . S
C2009 C2010 1.524 . S
C2009 H2012 0.999 . S
C2010 H1980 0.950 . S
C2010 C2009 1.524 . S
C2010 C2011 1.415 . S
C2011 H1981 0.950 . S
C2011 C2006 1.363 . S
C2011 C2010 1.415 . S
H2012 C2009 0.999 . S
H2013 C1994 0.913 . S
H2014 C2032 0.951 . S
H2015 C2034 0.951 . S
H2016 C2036 0.950 . S
H2017 C2037 0.950 . S
H2018 C2039 0.950 . S
H2019 C2042 0.950 . S
H2020 C2043 0.950 . S
H2021 C2045 0.949 . S
H2022 C2046 0.950 . S
H2023 C2047 0.951 . S
H2024 C2049 0.951 . S
H2025 C2051 0.950 . S
H2026 C2052 0.950 . S
H2027 C2054 0.950 . S
H2028 C2057 0.950 . S
H2029 C2058 0.950 . S
H2030 C2060 0.950 . S
H2031 C2061 0.950 . S
C2032 H2014 0.951 . S
C2032 C2033 1.366 1_565 S
C2032 C2034 1.388 . S
C2033 C2032 1.366 1_545 S
C2033 C2037 1.385 . S
C2034 H2015 0.951 . S
C2034 C2032 1.388 . S
C2034 C2035 1.366 . S
C2035 C2034 1.366 . S
C2035 C2036 1.414 1_565 S
C2035 C2038 1.499 . S
C2036 H2016 0.950 . S
C2036 C2035 1.414 1_545 S
C2036 C2037 1.374 . S
C2037 H2017 0.950 . S
C2037 C2033 1.385 . S
C2037 C2036 1.374 . S
C2038 C2035 1.499 . S
C2038 C2039 1.373 . S
C2038 C2040 1.389 . S
C2039 H2018 0.950 . S
C2039 C2038 1.373 . S
C2039 C2055 1.377 . S
C2040 C2038 1.389 . S
C2040 C2041 1.524 . S
C2040 C2054 1.377 . S
C2041 C2040 1.524 . S
C2041 C2042 1.397 1_565 S
C2041 C2046 1.363 . S
C2042 H2019 0.950 . S
C2042 C2041 1.397 1_545 S
C2042 C2043 1.334 . S
C2043 H2020 0.950 . S
C2043 C2042 1.334 . S
C2043 C2044 1.287 . S
C2044 C2043 1.287 . S
C2044 C2045 1.525 1_545 S
C2044 H2063 0.913 . S
C2045 H2021 0.949 . S
C2045 C2044 1.525 1_565 S
C2045 C2046 1.414 . S
C2046 H2022 0.950 . S
C2046 C2041 1.363 . S
C2046 C2045 1.414 . S
C2047 H2023 0.951 . S
C2047 C2048 1.366 . S
C2047 C2049 1.388 . S
C2048 C2047 1.366 . S
C2048 C2052 1.385 . S
C2049 H2024 0.951 . S
C2049 C2047 1.388 . S
C2049 C2050 1.366 . S
C2050 C2049 1.366 . S
C2050 C2051 1.414 . S
C2050 C2053 1.499 . S
C2051 H2025 0.950 . S
C2051 C2050 1.414 . S
C2051 C2052 1.374 . S
C2052 H2026 0.950 . S
C2052 C2048 1.385 . S
C2052 C2051 1.374 . S
C2053 C2050 1.499 . S
C2053 C2054 1.373 . S
C2053 C2055 1.389 . S
C2054 H2027 0.950 . S
C2054 C2040 1.377 . S
C2054 C2053 1.373 . S
C2055 C2039 1.377 . S
C2055 C2053 1.389 . S
C2055 C2056 1.524 . S
C2056 C2055 1.524 . S
C2056 C2057 1.397 . S
C2056 C2061 1.363 . S
C2057 H2028 0.950 . S
C2057 C2056 1.397 . S
C2057 C2058 1.334 . S
C2058 H2029 0.950 . S
C2058 C2057 1.334 . S
C2058 C2059 1.287 . S
C2059 C2058 1.287 . S
C2059 C2060 1.524 . S
C2059 H2062 0.999 . S
C2060 H2030 0.950 . S
C2060 C2059 1.524 . S
C2060 C2061 1.415 . S
C2061 H2031 0.950 . S
C2061 C2056 1.363 . S
C2061 C2060 1.415 . S
H2062 C2059 0.999 . S
H2063 C2044 0.913 . S
H2064 C2082 0.951 . S
H2065 C2084 0.951 1_545 S
H2066 C2086 0.950 . S
H2067 C2087 0.950 . S
H2068 C2089 0.950 . S
H2069 C2092 0.950 . S
H2070 C2093 0.950 . S
H2071 C2095 0.950 . S
H2072 C2096 0.950 . S
H2073 C2097 0.951 . S
H2074 C2099 0.951 1_565 S
H2075 C2101 0.950 . S
H2076 C2102 0.950 . S
H2077 C2104 0.950 . S
H2078 C2107 0.950 . S
H2079 C2108 0.950 . S
H2080 C2110 0.950 . S
H2081 C2111 0.950 . S
C2082 H2064 0.951 . S
C2082 C2083 1.366 . S
C2082 C2084 1.388 . S
C2083 C2082 1.366 . S
C2083 C2087 1.385 . S
C2084 H2065 0.951 1_565 S
C2084 C2082 1.388 . S
C2084 C2085 1.366 . S
C2085 C2084 1.366 . S
C2085 C2086 1.414 . S
C2085 C2088 1.499 . S
C2086 H2066 0.950 . S
C2086 C2085 1.414 . S
C2086 C2087 1.374 . S
C2087 H2067 0.950 . S
C2087 C2083 1.385 . S
C2087 C2086 1.374 . S
C2088 C2085 1.499 . S
C2088 C2089 1.373 . S
C2088 C2090 1.389 1_566 S
C2089 H2068 0.950 . S
C2089 C2088 1.373 . S
C2089 C2105 1.377 . S
C2090 C2088 1.389 1_544 S
C2090 C2091 1.524 . S
C2090 C2104 1.377 . S
C2091 C2090 1.524 . S
C2091 C2092 1.397 1_545 S
C2091 C2096 1.363 . S
C2092 H2069 0.950 . S
C2092 C2091 1.397 1_565 S
C2092 C2093 1.334 . S
C2093 H2070 0.950 . S
C2093 C2092 1.334 . S
C2093 C2094 1.287 1_565 S
C2094 C2093 1.287 1_545 S
C2094 C2095 1.524 . S
C2094 H2113 0.913 . S
C2095 H2071 0.950 . S
C2095 C2094 1.524 . S
C2095 C2096 1.415 . S
C2096 H2072 0.950 . S
C2096 C2091 1.363 . S
C2096 C2095 1.415 . S
C2097 H2073 0.951 . S
C2097 C2098 1.366 . S
C2097 C2099 1.388 . S
C2098 C2097 1.366 . S
C2098 C2102 1.385 . S
C2099 H2074 0.951 1_545 S
C2099 C2097 1.388 . S
C2099 C2100 1.366 . S
C2100 C2099 1.366 . S
C2100 C2101 1.414 . S
C2100 C2103 1.499 . S
C2101 H2075 0.950 . S
C2101 C2100 1.414 . S
C2101 C2102 1.374 . S
C2102 H2076 0.950 . S
C2102 C2098 1.385 . S
C2102 C2101 1.374 . S
C2103 C2100 1.499 . S
C2103 C2104 1.373 . S
C2103 C2105 1.389 1_544 S
C2104 H2077 0.950 . S
C2104 C2090 1.377 . S
C2104 C2103 1.373 . S
C2105 C2089 1.377 . S
C2105 C2103 1.389 1_566 S
C2105 C2106 1.524 . S
C2106 C2105 1.524 . S
C2106 C2107 1.397 1_565 S
C2106 C2111 1.363 . S
C2107 H2078 0.950 . S
C2107 C2106 1.397 1_545 S
C2107 C2108 1.334 . S
C2108 H2079 0.950 . S
C2108 C2107 1.334 . S
C2108 C2109 1.287 1_545 S
C2109 C2108 1.287 1_565 S
C2109 C2110 1.524 . S
C2109 H2112 0.999 . S
C2110 H2080 0.950 . S
C2110 C2109 1.524 . S
C2110 C2111 1.415 . S
C2111 H2081 0.950 . S
C2111 C2106 1.363 . S
C2111 C2110 1.415 . S
H2112 C2109 0.999 . S
H2113 C2094 0.913 . S
H2114 C2132 0.951 . S
H2115 C2134 0.951 . S
H2116 C2136 0.950 . S
H2117 C2137 0.950 . S
H2118 C2139 0.950 . S
H2119 C2142 0.950 . S
H2120 C2143 0.950 . S
H2121 C2145 0.950 . S
H2122 C2146 0.950 . S
H2123 C2147 0.951 . S
H2124 C2149 0.951 . S
H2125 C2151 0.950 . S
H2126 C2152 0.950 . S
H2127 C2154 0.950 . S
H2128 C2157 0.950 . S
H2129 C2158 0.950 . S
H2130 C2160 0.950 . S
H2131 C2161 0.950 . S
C2132 H2114 0.951 . S
C2132 C2133 1.366 . S
C2132 C2134 1.388 . S
C2133 C2132 1.366 . S
C2133 C2137 1.385 . S
C2134 H2115 0.951 . S
C2134 C2132 1.388 . S
C2134 C2135 1.366 . S
C2135 C2134 1.366 . S
C2135 C2136 1.414 . S
C2135 C2138 1.499 . S
C2136 H2116 0.950 . S
C2136 C2135 1.414 . S
C2136 C2137 1.374 . S
C2137 H2117 0.950 . S
C2137 C2133 1.385 . S
C2137 C2136 1.374 . S
C2138 C2135 1.499 . S
C2138 C2139 1.373 . S
C2138 C2140 1.389 . S
C2139 H2118 0.950 . S
C2139 C2138 1.373 . S
C2139 C2155 1.377 . S
C2140 C2138 1.389 . S
C2140 C2141 1.524 . S
C2140 C2154 1.377 . S
C2141 C2140 1.524 . S
C2141 C2142 1.397 . S
C2141 C2146 1.363 . S
C2142 H2119 0.950 . S
C2142 C2141 1.397 . S
C2142 C2143 1.334 . S
C2143 H2120 0.950 . S
C2143 C2142 1.334 . S
C2143 C2144 1.287 . S
C2144 C2143 1.287 . S
C2144 C2145 1.524 . S
C2144 H2163 0.913 . S
C2145 H2121 0.950 . S
C2145 C2144 1.524 . S
C2145 C2146 1.415 . S
C2146 H2122 0.950 . S
C2146 C2141 1.363 . S
C2146 C2145 1.415 . S
C2147 H2123 0.951 . S
C2147 C2148 1.366 . S
C2147 C2149 1.388 . S
C2148 C2147 1.366 . S
C2148 C2152 1.385 . S
C2149 H2124 0.951 . S
C2149 C2147 1.388 . S
C2149 C2150 1.366 . S
C2150 C2149 1.366 . S
C2150 C2151 1.414 . S
C2150 C2153 1.499 . S
C2151 H2125 0.950 . S
C2151 C2150 1.414 . S
C2151 C2152 1.374 . S
C2152 H2126 0.950 . S
C2152 C2148 1.385 . S
C2152 C2151 1.374 . S
C2153 C2150 1.499 . S
C2153 C2154 1.373 . S
C2153 C2155 1.389 . S
C2154 H2127 0.950 . S
C2154 C2140 1.377 . S
C2154 C2153 1.373 . S
C2155 C2139 1.377 . S
C2155 C2153 1.389 . S
C2155 C2156 1.524 . S
C2156 C2155 1.524 . S
C2156 C2157 1.397 . S
C2156 C2161 1.363 . S
C2157 H2128 0.950 . S
C2157 C2156 1.397 . S
C2157 C2158 1.334 . S
C2158 H2129 0.950 . S
C2158 C2157 1.334 . S
C2158 C2159 1.287 . S
C2159 C2158 1.287 . S
C2159 C2160 1.524 . S
C2159 H2162 0.999 . S
C2160 H2130 0.950 . S
C2160 C2159 1.524 . S
C2160 C2161 1.415 . S
C2161 H2131 0.950 . S
C2161 C2156 1.363 . S
C2161 C2160 1.415 . S
H2162 C2159 0.999 . S
H2163 C2144 0.913 . S
H2164 C2182 0.951 . S
H2165 C2184 0.951 . S
H2166 C2186 0.950 1_565 S
H2167 C2187 0.950 . S
H2168 C2189 0.950 . S
H2169 C2192 0.950 1_565 S
H2170 C2193 0.951 1_565 S
H2171 C2195 0.950 . S
H2172 C2196 0.950 . S
H2173 C2197 0.951 . S
H2174 C2199 0.951 . S
H2175 C2201 0.950 1_545 S
H2176 C2202 0.950 . S
H2177 C2204 0.950 . S
H2178 C2207 0.950 1_545 S
H2179 C2208 0.951 1_545 S
H2180 C2210 0.950 . S
H2181 C2211 0.950 . S
C2182 H2164 0.951 . S
C2182 C2183 1.366 . S
C2182 C2184 1.388 . S
C2183 C2182 1.366 . S
C2183 C2187 1.385 . S
C2184 H2165 0.951 . S
C2184 C2182 1.388 . S
C2184 C2185 1.366 . S
C2185 C2184 1.366 . S
C2185 C2186 1.414 . S
C2185 C2188 1.499 . S
C2186 H2166 0.950 1_545 S
C2186 C2185 1.414 . S
C2186 C2187 1.374 . S
C2187 H2167 0.950 . S
C2187 C2183 1.385 . S
C2187 C2186 1.374 . S
C2188 C2185 1.499 . S
C2188 C2189 1.373 . S
C2188 C2190 1.389 . S
C2189 H2168 0.950 . S
C2189 C2188 1.373 . S
C2189 C2205 1.377 1_645 S
C2190 C2188 1.389 . S
C2190 C2191 1.524 . S
C2190 C2204 1.377 1_645 S
C2191 C2190 1.524 . S
C2191 C2192 1.397 . S
C2191 C2196 1.363 1_655 S
C2192 H2169 0.950 1_545 S
C2192 C2191 1.397 . S
C2192 C2193 1.334 . S
C2193 H2170 0.951 1_545 S
C2193 C2192 1.334 . S
C2193 C2194 1.287 . S
C2194 C2193 1.287 . S
C2194 C2195 1.524 1_655 S
C2194 H2213 0.913 . S
C2195 H2171 0.950 . S
C2195 C2194 1.524 1_455 S
C2195 C2196 1.415 . S
C2196 H2172 0.950 . S
C2196 C2191 1.363 1_455 S
C2196 C2195 1.415 . S
C2197 H2173 0.951 . S
C2197 C2198 1.366 . S
C2197 C2199 1.388 . S
C2198 C2197 1.366 . S
C2198 C2202 1.385 . S
C2199 H2174 0.951 . S
C2199 C2197 1.388 . S
C2199 C2200 1.366 . S
C2200 C2199 1.366 . S
C2200 C2201 1.414 . S
C2200 C2203 1.499 . S
C2201 H2175 0.950 1_565 S
C2201 C2200 1.414 . S
C2201 C2202 1.374 . S
C2202 H2176 0.950 . S
C2202 C2198 1.385 . S
C2202 C2201 1.374 . S
C2203 C2200 1.499 . S
C2203 C2204 1.373 . S
C2203 C2205 1.389 . S
C2204 H2177 0.950 . S
C2204 C2190 1.377 1_465 S
C2204 C2203 1.373 . S
C2205 C2189 1.377 1_465 S
C2205 C2203 1.389 . S
C2205 C2206 1.524 . S
C2206 C2205 1.524 . S
C2206 C2207 1.397 . S
C2206 C2211 1.363 1_455 S
C2207 H2178 0.950 1_565 S
C2207 C2206 1.397 . S
C2207 C2208 1.334 . S
C2208 H2179 0.951 1_565 S
C2208 C2207 1.334 . S
C2208 C2209 1.287 . S
C2209 C2208 1.287 . S
C2209 C2210 1.524 1_455 S
C2209 H2212 0.999 . S
C2210 H2180 0.950 . S
C2210 C2209 1.524 1_655 S
C2210 C2211 1.415 . S
C2211 H2181 0.950 . S
C2211 C2206 1.363 1_655 S
C2211 C2210 1.415 . S
H2212 C2209 0.999 . S
H2213 C2194 0.913 . S
H2214 C2232 0.951 . S
H2215 C2234 0.951 . S
H2216 C2236 0.950 . S
H2217 C2237 0.950 . S
H2218 C2239 0.950 . S
H2219 C2242 0.950 . S
H2220 C2243 0.950 . S
H2221 C2245 0.950 . S
H2222 C2246 0.950 . S
H2223 C2247 0.951 . S
H2224 C2249 0.951 . S
H2225 C2251 0.950 . S
H2226 C2252 0.950 . S
H2227 C2254 0.950 . S
H2228 C2257 0.950 . S
H2229 C2258 0.950 . S
H2230 C2260 0.950 . S
H2231 C2261 0.950 . S
C2232 H2214 0.951 . S
C2232 C2233 1.366 . S
C2232 C2234 1.388 . S
C2233 C2232 1.366 . S
C2233 C2237 1.385 . S
C2234 H2215 0.951 . S
C2234 C2232 1.388 . S
C2234 C2235 1.366 . S
C2235 C2234 1.366 . S
C2235 C2236 1.414 . S
C2235 C2238 1.499 . S
C2236 H2216 0.950 . S
C2236 C2235 1.414 . S
C2236 C2237 1.374 . S
C2237 H2217 0.950 . S
C2237 C2233 1.385 . S
C2237 C2236 1.374 . S
C2238 C2235 1.499 . S
C2238 C2239 1.373 . S
C2238 C2240 1.389 . S
C2239 H2218 0.950 . S
C2239 C2238 1.373 . S
C2239 C2255 1.377 . S
C2240 C2238 1.389 . S
C2240 C2241 1.524 . S
C2240 C2254 1.377 . S
C2241 C2240 1.524 . S
C2241 C2242 1.397 . S
C2241 C2246 1.363 . S
C2242 H2219 0.950 . S
C2242 C2241 1.397 . S
C2242 C2243 1.334 . S
C2243 H2220 0.950 . S
C2243 C2242 1.334 . S
C2243 C2244 1.287 . S
C2244 C2243 1.287 . S
C2244 C2245 1.524 . S
C2244 H2263 0.913 . S
C2245 H2221 0.950 . S
C2245 C2244 1.524 . S
C2245 C2246 1.415 . S
C2246 H2222 0.950 . S
C2246 C2241 1.363 . S
C2246 C2245 1.415 . S
C2247 H2223 0.951 . S
C2247 C2248 1.366 . S
C2247 C2249 1.388 . S
C2248 C2247 1.366 . S
C2248 C2252 1.385 . S
C2249 H2224 0.951 . S
C2249 C2247 1.388 . S
C2249 C2250 1.366 . S
C2250 C2249 1.366 . S
C2250 C2251 1.414 . S
C2250 C2253 1.499 . S
C2251 H2225 0.950 . S
C2251 C2250 1.414 . S
C2251 C2252 1.374 . S
C2252 H2226 0.950 . S
C2252 C2248 1.385 . S
C2252 C2251 1.374 . S
C2253 C2250 1.499 . S
C2253 C2254 1.373 . S
C2253 C2255 1.389 . S
C2254 H2227 0.950 . S
C2254 C2240 1.377 . S
C2254 C2253 1.373 . S
C2255 C2239 1.377 . S
C2255 C2253 1.389 . S
C2255 C2256 1.524 . S
C2256 C2255 1.524 . S
C2256 C2257 1.397 . S
C2256 C2261 1.363 . S
C2257 H2228 0.950 . S
C2257 C2256 1.397 . S
C2257 C2258 1.334 . S
C2258 H2229 0.950 . S
C2258 C2257 1.334 . S
C2258 C2259 1.287 . S
C2259 C2258 1.287 . S
C2259 C2260 1.524 . S
C2259 H2262 0.999 . S
C2260 H2230 0.950 . S
C2260 C2259 1.524 . S
C2260 C2261 1.415 . S
C2261 H2231 0.950 . S
C2261 C2256 1.363 . S
C2261 C2260 1.415 . S
H2262 C2259 0.999 . S
H2263 C2244 0.913 . S
H2264 C2282 0.951 . S
H2265 C2284 0.951 . S
H2266 C2286 0.950 . S
H2267 C2287 0.950 . S
H2268 C2289 0.950 . S
H2269 C2292 0.950 . S
H2270 C2293 0.950 . S
H2271 C2295 0.950 . S
H2272 C2296 0.950 . S
H2273 C2297 0.951 . S
H2274 C2299 0.951 . S
H2275 C2301 0.950 . S
H2276 C2302 0.950 . S
H2277 C2304 0.950 . S
H2278 C2307 0.950 . S
H2279 C2308 0.950 . S
H2280 C2310 0.950 . S
H2281 C2311 0.950 . S
C2282 H2264 0.951 . S
C2282 C2283 1.366 . S
C2282 C2284 1.388 . S
C2283 C2282 1.366 . S
C2283 C2287 1.385 . S
C2284 H2265 0.951 . S
C2284 C2282 1.388 . S
C2284 C2285 1.366 . S
C2285 C2284 1.366 . S
C2285 C2286 1.414 . S
C2285 C2288 1.499 . S
C2286 H2266 0.950 . S
C2286 C2285 1.414 . S
C2286 C2287 1.374 . S
C2287 H2267 0.950 . S
C2287 C2283 1.385 . S
C2287 C2286 1.374 . S
C2288 C2285 1.499 . S
C2288 C2289 1.373 . S
C2288 C2290 1.389 . S
C2289 H2268 0.950 . S
C2289 C2288 1.373 . S
C2289 C2305 1.377 . S
C2290 C2288 1.389 . S
C2290 C2291 1.524 . S
C2290 C2304 1.377 . S
C2291 C2290 1.524 . S
C2291 C2292 1.397 . S
C2291 C2296 1.363 . S
C2292 H2269 0.950 . S
C2292 C2291 1.397 . S
C2292 C2293 1.334 . S
C2293 H2270 0.950 . S
C2293 C2292 1.334 . S
C2293 C2294 1.287 . S
C2294 C2293 1.287 . S
C2294 C2295 1.524 . S
C2294 H2313 0.913 . S
C2295 H2271 0.950 . S
C2295 C2294 1.524 . S
C2295 C2296 1.415 . S
C2296 H2272 0.950 . S
C2296 C2291 1.363 . S
C2296 C2295 1.415 . S
C2297 H2273 0.951 . S
C2297 C2298 1.366 . S
C2297 C2299 1.388 . S
C2298 C2297 1.366 . S
C2298 C2302 1.385 . S
C2299 H2274 0.951 . S
C2299 C2297 1.388 . S
C2299 C2300 1.366 . S
C2300 C2299 1.366 . S
C2300 C2301 1.414 . S
C2300 C2303 1.499 . S
C2301 H2275 0.950 . S
C2301 C2300 1.414 . S
C2301 C2302 1.374 . S
C2302 H2276 0.950 . S
C2302 C2298 1.385 . S
C2302 C2301 1.374 . S
C2303 C2300 1.499 . S
C2303 C2304 1.373 . S
C2303 C2305 1.389 . S
C2304 H2277 0.950 . S
C2304 C2290 1.377 . S
C2304 C2303 1.373 . S
C2305 C2289 1.377 . S
C2305 C2303 1.389 . S
C2305 C2306 1.524 . S
C2306 C2305 1.524 . S
C2306 C2307 1.397 . S
C2306 C2311 1.363 . S
C2307 H2278 0.950 . S
C2307 C2306 1.397 . S
C2307 C2308 1.334 . S
C2308 H2279 0.950 . S
C2308 C2307 1.334 . S
C2308 C2309 1.287 . S
C2309 C2308 1.287 . S
C2309 C2310 1.524 . S
C2309 H2312 0.999 . S
C2310 H2280 0.950 . S
C2310 C2309 1.524 . S
C2310 C2311 1.415 . S
C2311 H2281 0.950 . S
C2311 C2306 1.363 . S
C2311 C2310 1.415 . S
H2312 C2309 0.999 . S
H2313 C2294 0.913 . S
H2314 C2332 0.951 . S
H2315 C2334 0.951 . S
H2316 C2336 0.950 . S
H2317 C2337 0.950 . S
H2318 C2339 0.950 . S
H2319 C2342 0.950 . S
H2320 C2343 0.950 . S
H2321 C2345 0.950 . S
H2322 C2346 0.950 . S
H2323 C2347 0.951 . S
H2324 C2349 0.951 . S
H2325 C2351 0.950 . S
H2326 C2352 0.950 . S
H2327 C2354 0.950 . S
H2328 C2357 0.950 . S
H2329 C2358 0.950 . S
H2330 C2360 0.950 . S
H2331 C2361 0.950 . S
C2332 H2314 0.951 . S
C2332 C2333 1.366 . S
C2332 C2334 1.388 . S
C2333 C2332 1.366 . S
C2333 C2337 1.385 . S
C2334 H2315 0.951 . S
C2334 C2332 1.388 . S
C2334 C2335 1.366 . S
C2335 C2334 1.366 . S
C2335 C2336 1.414 . S
C2335 C2338 1.499 . S
C2336 H2316 0.950 . S
C2336 C2335 1.414 . S
C2336 C2337 1.374 . S
C2337 H2317 0.950 . S
C2337 C2333 1.385 . S
C2337 C2336 1.374 . S
C2338 C2335 1.499 . S
C2338 C2339 1.373 . S
C2338 C2340 1.389 . S
C2339 H2318 0.950 . S
C2339 C2338 1.373 . S
C2339 C2355 1.377 . S
C2340 C2338 1.389 . S
C2340 C2341 1.524 . S
C2340 C2354 1.377 . S
C2341 C2340 1.524 . S
C2341 C2342 1.397 . S
C2341 C2346 1.363 . S
C2342 H2319 0.950 . S
C2342 C2341 1.397 . S
C2342 C2343 1.334 . S
C2343 H2320 0.950 . S
C2343 C2342 1.334 . S
C2343 C2344 1.287 . S
C2344 C2343 1.287 . S
C2344 C2345 1.524 . S
C2344 H2363 0.913 . S
C2345 H2321 0.950 . S
C2345 C2344 1.524 . S
C2345 C2346 1.415 . S
C2346 H2322 0.950 . S
C2346 C2341 1.363 . S
C2346 C2345 1.415 . S
C2347 H2323 0.951 . S
C2347 C2348 1.366 . S
C2347 C2349 1.388 . S
C2348 C2347 1.366 . S
C2348 C2352 1.385 . S
C2349 H2324 0.951 . S
C2349 C2347 1.388 . S
C2349 C2350 1.366 . S
C2350 C2349 1.366 . S
C2350 C2351 1.414 . S
C2350 C2353 1.499 . S
C2351 H2325 0.950 . S
C2351 C2350 1.414 . S
C2351 C2352 1.374 . S
C2352 H2326 0.950 . S
C2352 C2348 1.385 . S
C2352 C2351 1.374 . S
C2353 C2350 1.499 . S
C2353 C2354 1.373 . S
C2353 C2355 1.389 . S
C2354 H2327 0.950 . S
C2354 C2340 1.377 . S
C2354 C2353 1.373 . S
C2355 C2339 1.377 . S
C2355 C2353 1.389 . S
C2355 C2356 1.524 . S
C2356 C2355 1.524 . S
C2356 C2357 1.397 . S
C2356 C2361 1.363 . S
C2357 H2328 0.950 . S
C2357 C2356 1.397 . S
C2357 C2358 1.334 . S
C2358 H2329 0.950 . S
C2358 C2357 1.334 . S
C2358 C2359 1.287 . S
C2359 C2358 1.287 . S
C2359 C2360 1.524 . S
C2359 H2362 0.999 . S
C2360 H2330 0.950 . S
C2360 C2359 1.524 . S
C2360 C2361 1.415 . S
C2361 H2331 0.950 . S
C2361 C2356 1.363 . S
C2361 C2360 1.415 . S
H2362 C2359 0.999 . S
H2363 C2344 0.913 . S
H2364 C2382 0.951 . S
H2365 C2384 0.951 . S
H2366 C2386 0.950 . S
H2367 C2387 0.950 . S
H2368 C2389 0.950 . S
H2369 C2392 0.950 . S
H2370 C2393 0.950 . S
H2371 C2395 0.950 . S
H2372 C2396 0.950 . S
H2373 C2397 0.951 . S
H2374 C2399 0.951 . S
H2375 C2401 0.950 . S
H2376 C2402 0.950 . S
H2377 C2404 0.950 . S
H2378 C2407 0.950 . S
H2379 C2408 0.950 . S
H2380 C2410 0.950 . S
H2381 C2411 0.950 . S
C2382 H2364 0.951 . S
C2382 C2383 1.366 . S
C2382 C2384 1.388 . S
C2383 C2382 1.366 . S
C2383 C2387 1.385 . S
C2384 H2365 0.951 . S
C2384 C2382 1.388 . S
C2384 C2385 1.366 . S
C2385 C2384 1.366 . S
C2385 C2386 1.414 . S
C2385 C2388 1.499 . S
C2386 H2366 0.950 . S
C2386 C2385 1.414 . S
C2386 C2387 1.374 . S
C2387 H2367 0.950 . S
C2387 C2383 1.385 . S
C2387 C2386 1.374 . S
C2388 C2385 1.499 . S
C2388 C2389 1.373 . S
C2388 C2390 1.389 . S
C2389 H2368 0.950 . S
C2389 C2388 1.373 . S
C2389 C2405 1.377 1_655 S
C2390 C2388 1.389 . S
C2390 C2391 1.524 . S
C2390 C2404 1.377 1_655 S
C2391 C2390 1.524 . S
C2391 C2392 1.397 . S
C2391 C2396 1.363 . S
C2392 H2369 0.950 . S
C2392 C2391 1.397 . S
C2392 C2393 1.334 . S
C2393 H2370 0.950 . S
C2393 C2392 1.334 . S
C2393 C2394 1.287 . S
C2394 C2393 1.287 . S
C2394 C2395 1.524 . S
C2394 H2413 0.913 . S
C2395 H2371 0.950 . S
C2395 C2394 1.524 . S
C2395 C2396 1.415 . S
C2396 H2372 0.950 . S
C2396 C2391 1.363 . S
C2396 C2395 1.415 . S
C2397 H2373 0.951 . S
C2397 C2398 1.366 . S
C2397 C2399 1.388 . S
C2398 C2397 1.366 . S
C2398 C2402 1.385 . S
C2399 H2374 0.951 . S
C2399 C2397 1.388 . S
C2399 C2400 1.366 . S
C2400 C2399 1.366 . S
C2400 C2401 1.414 . S
C2400 C2403 1.499 . S
C2401 H2375 0.950 . S
C2401 C2400 1.414 . S
C2401 C2402 1.374 . S
C2402 H2376 0.950 . S
C2402 C2398 1.385 . S
C2402 C2401 1.374 . S
C2403 C2400 1.499 . S
C2403 C2404 1.373 . S
C2403 C2405 1.389 . S
C2404 H2377 0.950 . S
C2404 C2390 1.377 1_455 S
C2404 C2403 1.373 . S
C2405 C2389 1.377 1_455 S
C2405 C2403 1.389 . S
C2405 C2406 1.524 . S
C2406 C2405 1.524 . S
C2406 C2407 1.397 . S
C2406 C2411 1.363 . S
C2407 H2378 0.950 . S
C2407 C2406 1.397 . S
C2407 C2408 1.334 . S
C2408 H2379 0.950 . S
C2408 C2407 1.334 . S
C2408 C2409 1.287 . S
C2409 C2408 1.287 . S
C2409 C2410 1.524 . S
C2409 H2412 0.999 . S
C2410 H2380 0.950 . S
C2410 C2409 1.524 . S
C2410 C2411 1.415 . S
C2411 H2381 0.950 . S
C2411 C2406 1.363 . S
C2411 C2410 1.415 . S
H2412 C2409 0.999 . S
H2413 C2394 0.913 . S
H2414 C2432 0.951 . S
H2415 C2434 0.951 . S
H2416 C2436 0.978 . S
H2417 C2437 0.950 1_556 S
H2418 C2439 0.950 . S
H2419 C2442 0.950 . S
H2420 C2443 0.950 . S
H2421 C2445 0.950 . S
H2422 C2446 0.950 . S
H2423 C2447 0.951 . S
H2424 C2449 0.951 . S
H2425 C2451 0.978 . S
H2426 C2452 0.950 1_554 S
H2427 C2454 0.950 . S
H2428 C2457 0.950 . S
H2429 C2458 0.950 . S
H2430 C2460 0.950 . S
H2431 C2461 0.950 . S
C2432 H2414 0.951 . S
C2432 C2433 1.366 . S
C2432 C2434 1.388 . S
C2433 C2432 1.366 . S
C2433 C2437 1.385 . S
C2434 H2415 0.951 . S
C2434 C2432 1.388 . S
C2434 C2435 1.366 . S
C2435 C2434 1.366 . S
C2435 C2436 1.395 1_554 S
C2435 C2438 1.499 . S
C2436 H2416 0.978 . S
C2436 C2435 1.395 1_556 S
C2436 C2437 1.365 1_556 S
C2437 H2417 0.950 1_554 S
C2437 C2433 1.385 . S
C2437 C2436 1.365 1_554 S
C2438 C2435 1.499 . S
C2438 C2439 1.373 1_554 S
C2438 C2440 1.389 . S
C2439 H2418 0.950 . S
C2439 C2438 1.373 1_556 S
C2439 C2455 1.377 . S
C2440 C2438 1.389 . S
C2440 C2441 1.524 . S
C2440 C2454 1.377 . S
C2441 C2440 1.524 . S
C2441 C2442 1.397 . S
C2441 C2446 1.363 . S
C2442 H2419 0.950 . S
C2442 C2441 1.397 . S
C2442 C2443 1.334 . S
C2443 H2420 0.950 . S
C2443 C2442 1.334 . S
C2443 C2444 1.287 . S
C2444 C2443 1.287 . S
C2444 C2445 1.524 . S
C2444 H2463 0.913 . S
C2445 H2421 0.950 . S
C2445 C2444 1.524 . S
C2445 C2446 1.415 . S
C2446 H2422 0.950 . S
C2446 C2441 1.363 . S
C2446 C2445 1.415 . S
C2447 H2423 0.951 . S
C2447 C2448 1.366 . S
C2447 C2449 1.388 . S
C2448 C2447 1.366 . S
C2448 C2452 1.385 . S
C2449 H2424 0.951 . S
C2449 C2447 1.388 . S
C2449 C2450 1.366 . S
C2450 C2449 1.366 . S
C2450 C2451 1.395 1_556 S
C2450 C2453 1.499 . S
C2451 H2425 0.978 . S
C2451 C2450 1.395 1_554 S
C2451 C2452 1.365 1_554 S
C2452 H2426 0.950 1_556 S
C2452 C2448 1.385 . S
C2452 C2451 1.365 1_556 S
C2453 C2450 1.499 . S
C2453 C2454 1.373 1_556 S
C2453 C2455 1.389 . S
C2454 H2427 0.950 . S
C2454 C2440 1.377 . S
C2454 C2453 1.373 1_554 S
C2455 C2439 1.377 . S
C2455 C2453 1.389 . S
C2455 C2456 1.524 . S
C2456 C2455 1.524 . S
C2456 C2457 1.397 . S
C2456 C2461 1.363 . S
C2457 H2428 0.950 . S
C2457 C2456 1.397 . S
C2457 C2458 1.334 . S
C2458 H2429 0.950 . S
C2458 C2457 1.334 . S
C2458 C2459 1.287 . S
C2459 C2458 1.287 . S
C2459 C2460 1.524 . S
C2459 H2462 0.999 . S
C2460 H2430 0.950 . S
C2460 C2459 1.524 . S
C2460 C2461 1.415 . S
C2461 H2431 0.950 . S
C2461 C2456 1.363 . S
C2461 C2460 1.415 . S
H2462 C2459 0.999 . S
H2463 C2444 0.913 . S
H2464 C2482 0.951 . S
H2465 C2484 0.951 . S
H2466 C2486 0.950 . S
H2467 C2487 0.950 . S
H2468 C2489 0.950 . S
H2469 C2492 0.950 . S
H2470 C2493 0.950 . S
H2471 C2495 0.950 . S
H2472 C2496 0.950 . S
H2473 C2497 0.951 . S
H2474 C2499 0.951 . S
H2475 C2501 0.950 . S
H2476 C2502 0.950 . S
H2477 C2504 0.950 . S
H2478 C2507 0.950 . S
H2479 C2508 0.950 . S
H2480 C2510 0.950 . S
H2481 C2511 0.950 . S
C2482 H2464 0.951 . S
C2482 C2483 1.366 . S
C2482 C2484 1.388 . S
C2483 C2482 1.366 . S
C2483 C2487 1.385 . S
C2484 H2465 0.951 . S
C2484 C2482 1.388 . S
C2484 C2485 1.366 . S
C2485 C2484 1.366 . S
C2485 C2486 1.414 . S
C2485 C2488 1.499 . S
C2486 H2466 0.950 . S
C2486 C2485 1.414 . S
C2486 C2487 1.374 . S
C2487 H2467 0.950 . S
C2487 C2483 1.385 . S
C2487 C2486 1.374 . S
C2488 C2485 1.499 . S
C2488 C2489 1.373 1_556 S
C2488 C2490 1.389 . S
C2489 H2468 0.950 . S
C2489 C2488 1.373 1_554 S
C2489 C2505 1.377 . S
C2490 C2488 1.389 . S
C2490 C2491 1.524 . S
C2490 C2504 1.377 . S
C2491 C2490 1.524 . S
C2491 C2492 1.397 . S
C2491 C2496 1.363 . S
C2492 H2469 0.950 . S
C2492 C2491 1.397 . S
C2492 C2493 1.334 . S
C2493 H2470 0.950 . S
C2493 C2492 1.334 . S
C2493 C2494 1.287 . S
C2494 C2493 1.287 . S
C2494 C2495 1.524 . S
C2494 H2513 0.913 . S
C2495 H2471 0.950 . S
C2495 C2494 1.524 . S
C2495 C2496 1.415 . S
C2496 H2472 0.950 . S
C2496 C2491 1.363 . S
C2496 C2495 1.415 . S
C2497 H2473 0.951 . S
C2497 C2498 1.366 . S
C2497 C2499 1.388 . S
C2498 C2497 1.366 . S
C2498 C2502 1.385 . S
C2499 H2474 0.951 . S
C2499 C2497 1.388 . S
C2499 C2500 1.366 . S
C2500 C2499 1.366 . S
C2500 C2501 1.414 . S
C2500 C2503 1.499 . S
C2501 H2475 0.950 . S
C2501 C2500 1.414 . S
C2501 C2502 1.374 . S
C2502 H2476 0.950 . S
C2502 C2498 1.385 . S
C2502 C2501 1.374 . S
C2503 C2500 1.499 . S
C2503 C2504 1.373 1_554 S
C2503 C2505 1.389 . S
C2504 H2477 0.950 . S
C2504 C2490 1.377 . S
C2504 C2503 1.373 1_556 S
C2505 C2489 1.377 . S
C2505 C2503 1.389 . S
C2505 C2506 1.524 . S
C2506 C2505 1.524 . S
C2506 C2507 1.397 . S
C2506 C2511 1.363 . S
C2507 H2478 0.950 . S
C2507 C2506 1.397 . S
C2507 C2508 1.334 . S
C2508 H2479 0.950 . S
C2508 C2507 1.334 . S
C2508 C2509 1.287 . S
C2509 C2508 1.287 . S
C2509 C2510 1.524 . S
C2509 H2512 0.999 . S
C2510 H2480 0.950 . S
C2510 C2509 1.524 . S
C2510 C2511 1.415 . S
C2511 H2481 0.950 . S
C2511 C2506 1.363 . S
C2511 C2510 1.415 . S
H2512 C2509 0.999 . S
H2513 C2494 0.913 . S
H2514 C2532 0.924 1_455 S
H2515 C2534 0.951 . S
H2516 C2536 0.950 . S
H2517 C2537 0.950 . S
H2518 C2539 0.950 . S
H2519 C2542 0.950 . S
H2520 C2543 0.950 . S
H2521 C2545 0.950 . S
H2522 C2546 0.950 . S
H2523 C2547 0.951 . S
H2524 C2549 0.951 . S
H2525 C2551 0.950 . S
H2526 C2552 0.950 . S
H2527 C2554 0.950 . S
H2528 C2557 0.950 . S
H2529 C2558 0.950 . S
H2530 C2560 0.950 . S
H2531 C2561 0.950 . S
C2532 H2514 0.924 1_655 S
C2532 C2533 1.365 1_655 S
C2532 C2534 1.416 . S
C2533 C2532 1.365 1_455 S
C2533 C2537 1.373 1_455 S
C2534 H2515 0.951 . S
C2534 C2532 1.416 . S
C2534 C2535 1.366 . S
C2535 C2534 1.366 . S
C2535 C2536 1.414 . S
C2535 C2538 1.499 . S
C2536 H2516 0.950 . S
C2536 C2535 1.414 . S
C2536 C2537 1.374 . S
C2537 H2517 0.950 . S
C2537 C2533 1.373 1_655 S
C2537 C2536 1.374 . S
C2538 C2535 1.499 . S
C2538 C2539 1.373 . S
C2538 C2540 1.389 . S
C2539 H2518 0.950 . S
C2539 C2538 1.373 . S
C2539 C2555 1.377 . S
C2540 C2538 1.389 . S
C2540 C2541 1.524 . S
C2540 C2554 1.377 . S
C2541 C2540 1.524 . S
C2541 C2542 1.397 . S
C2541 C2546 1.363 . S
C2542 H2519 0.950 . S
C2542 C2541 1.397 . S
C2542 C2543 1.334 . S
C2543 H2520 0.950 . S
C2543 C2542 1.334 . S
C2543 C2544 1.287 . S
C2544 C2543 1.287 . S
C2544 C2545 1.524 . S
C2544 H2563 0.913 . S
C2545 H2521 0.950 . S
C2545 C2544 1.524 . S
C2545 C2546 1.415 . S
C2546 H2522 0.950 . S
C2546 C2541 1.363 . S
C2546 C2545 1.415 . S
C2547 H2523 0.951 . S
C2547 C2548 1.366 . S
C2547 C2549 1.388 . S
C2548 C2547 1.366 . S
C2548 C2552 1.385 . S
C2549 H2524 0.951 . S
C2549 C2547 1.388 . S
C2549 C2550 1.366 . S
C2550 C2549 1.366 . S
C2550 C2551 1.414 . S
C2550 C2553 1.499 . S
C2551 H2525 0.950 . S
C2551 C2550 1.414 . S
C2551 C2552 1.374 . S
C2552 H2526 0.950 . S
C2552 C2548 1.385 . S
C2552 C2551 1.374 . S
C2553 C2550 1.499 . S
C2553 C2554 1.373 . S
C2553 C2555 1.389 . S
C2554 H2527 0.950 . S
C2554 C2540 1.377 . S
C2554 C2553 1.373 . S
C2555 C2539 1.377 . S
C2555 C2553 1.389 . S
C2555 C2556 1.524 . S
C2556 C2555 1.524 . S
C2556 C2557 1.397 . S
C2556 C2561 1.363 . S
C2557 H2528 0.950 . S
C2557 C2556 1.397 . S
C2557 C2558 1.334 . S
C2558 H2529 0.950 . S
C2558 C2557 1.334 . S
C2558 C2559 1.287 . S
C2559 C2558 1.287 . S
C2559 C2560 1.524 . S
C2559 H2562 0.999 . S
C2560 H2530 0.950 . S
C2560 C2559 1.524 . S
C2560 C2561 1.415 . S
C2561 H2531 0.950 . S
C2561 C2556 1.363 . S
C2561 C2560 1.415 . S
H2562 C2559 0.999 . S
H2563 C2544 0.913 . S
H2564 C2582 0.951 . S
H2565 C2584 0.951 . S
H2566 C2586 0.950 . S
H2567 C2587 0.950 . S
H2568 C2589 0.950 . S
H2569 C2592 0.950 . S
H2570 C2593 0.950 . S
H2571 C2595 0.950 . S
H2572 C2596 0.950 . S
H2573 C2597 0.951 . S
H2574 C2599 0.951 . S
H2575 C2601 0.950 . S
H2576 C2602 0.950 . S
H2577 C2604 0.950 . S
H2578 C2607 0.950 . S
H2579 C2608 0.950 . S
H2580 C2610 0.950 . S
H2581 C2611 0.950 . S
C2582 H2564 0.951 . S
C2582 C2583 1.366 . S
C2582 C2584 1.388 . S
C2583 C2582 1.366 . S
C2583 C2587 1.385 . S
C2584 H2565 0.951 . S
C2584 C2582 1.388 . S
C2584 C2585 1.366 . S
C2585 C2584 1.366 . S
C2585 C2586 1.414 . S
C2585 C2588 1.499 . S
C2586 H2566 0.950 . S
C2586 C2585 1.414 . S
C2586 C2587 1.374 . S
C2587 H2567 0.950 . S
C2587 C2583 1.385 . S
C2587 C2586 1.374 . S
C2588 C2585 1.499 . S
C2588 C2589 1.373 . S
C2588 C2590 1.389 . S
C2589 H2568 0.950 . S
C2589 C2588 1.373 . S
C2589 C2605 1.377 . S
C2590 C2588 1.389 . S
C2590 C2591 1.524 . S
C2590 C2604 1.377 . S
C2591 C2590 1.524 . S
C2591 C2592 1.397 . S
C2591 C2596 1.363 . S
C2592 H2569 0.950 . S
C2592 C2591 1.397 . S
C2592 C2593 1.334 . S
C2593 H2570 0.950 . S
C2593 C2592 1.334 . S
C2593 C2594 1.287 . S
C2594 C2593 1.287 . S
C2594 C2595 1.524 . S
C2594 H2613 0.913 . S
C2595 H2571 0.950 . S
C2595 C2594 1.524 . S
C2595 C2596 1.415 . S
C2596 H2572 0.950 . S
C2596 C2591 1.363 . S
C2596 C2595 1.415 . S
C2597 H2573 0.951 . S
C2597 C2598 1.366 . S
C2597 C2599 1.388 . S
C2598 C2597 1.366 . S
C2598 C2602 1.385 . S
C2599 H2574 0.951 . S
C2599 C2597 1.388 . S
C2599 C2600 1.366 . S
C2600 C2599 1.366 . S
C2600 C2601 1.414 . S
C2600 C2603 1.499 . S
C2601 H2575 0.950 . S
C2601 C2600 1.414 . S
C2601 C2602 1.374 . S
C2602 H2576 0.950 . S
C2602 C2598 1.385 . S
C2602 C2601 1.374 . S
C2603 C2600 1.499 . S
C2603 C2604 1.373 . S
C2603 C2605 1.389 . S
C2604 H2577 0.950 . S
C2604 C2590 1.377 . S
C2604 C2603 1.373 . S
C2605 C2589 1.377 . S
C2605 C2603 1.389 . S
C2605 C2606 1.524 . S
C2606 C2605 1.524 . S
C2606 C2607 1.397 . S
C2606 C2611 1.363 . S
C2607 H2578 0.950 . S
C2607 C2606 1.397 . S
C2607 C2608 1.334 . S
C2608 H2579 0.950 . S
C2608 C2607 1.334 . S
C2608 C2609 1.287 . S
C2609 C2608 1.287 . S
C2609 C2610 1.524 . S
C2609 H2612 0.999 . S
C2610 H2580 0.950 . S
C2610 C2609 1.524 . S
C2610 C2611 1.415 . S
C2611 H2581 0.950 . S
C2611 C2606 1.363 . S
C2611 C2610 1.415 . S
H2612 C2609 0.999 . S
H2613 C2594 0.913 . S
H2614 C2632 0.951 . S
H2615 C2634 0.951 . S
H2616 C2636 0.950 . S
H2617 C2637 0.950 . S
H2618 C2639 0.950 . S
H2619 C2642 0.950 . S
H2620 C2643 0.950 . S
H2621 C2645 0.950 . S
H2622 C2646 0.950 . S
H2623 C2647 0.951 . S
H2624 C2649 0.951 . S
H2625 C2651 0.950 . S
H2626 C2652 0.950 . S
H2627 C2654 0.950 . S
H2628 C2657 0.950 . S
H2629 C2658 0.950 . S
H2630 C2660 0.950 . S
H2631 C2661 0.950 . S
C2632 H2614 0.951 . S
C2632 C2633 1.366 . S
C2632 C2634 1.388 . S
C2633 C2632 1.366 . S
C2633 C2637 1.385 . S
C2634 H2615 0.951 . S
C2634 C2632 1.388 . S
C2634 C2635 1.366 . S
C2635 C2634 1.366 . S
C2635 C2636 1.414 . S
C2635 C2638 1.499 . S
C2636 H2616 0.950 . S
C2636 C2635 1.414 . S
C2636 C2637 1.374 . S
C2637 H2617 0.950 . S
C2637 C2633 1.385 . S
C2637 C2636 1.374 . S
C2638 C2635 1.499 . S
C2638 C2639 1.373 . S
C2638 C2640 1.389 . S
C2639 H2618 0.950 . S
C2639 C2638 1.373 . S
C2639 C2655 1.377 . S
C2640 C2638 1.389 . S
C2640 C2641 1.524 . S
C2640 C2654 1.377 . S
C2641 C2640 1.524 . S
C2641 C2642 1.397 . S
C2641 C2646 1.363 . S
C2642 H2619 0.950 . S
C2642 C2641 1.397 . S
C2642 C2643 1.334 . S
C2643 H2620 0.950 . S
C2643 C2642 1.334 . S
C2643 C2644 1.287 . S
C2644 C2643 1.287 . S
C2644 C2645 1.524 . S
C2644 H2663 0.913 . S
C2645 H2621 0.950 . S
C2645 C2644 1.524 . S
C2645 C2646 1.415 . S
C2646 H2622 0.950 . S
C2646 C2641 1.363 . S
C2646 C2645 1.415 . S
C2647 H2623 0.951 . S
C2647 C2648 1.366 . S
C2647 C2649 1.388 . S
C2648 C2647 1.366 . S
C2648 C2652 1.385 . S
C2649 H2624 0.951 . S
C2649 C2647 1.388 . S
C2649 C2650 1.366 . S
C2650 C2649 1.366 . S
C2650 C2651 1.414 . S
C2650 C2653 1.499 . S
C2651 H2625 0.950 . S
C2651 C2650 1.414 . S
C2651 C2652 1.374 . S
C2652 H2626 0.950 . S
C2652 C2648 1.385 . S
C2652 C2651 1.374 . S
C2653 C2650 1.499 . S
C2653 C2654 1.373 . S
C2653 C2655 1.389 . S
C2654 H2627 0.950 . S
C2654 C2640 1.377 . S
C2654 C2653 1.373 . S
C2655 C2639 1.377 . S
C2655 C2653 1.389 . S
C2655 C2656 1.524 . S
C2656 C2655 1.524 . S
C2656 C2657 1.397 . S
C2656 C2661 1.363 . S
C2657 H2628 0.950 . S
C2657 C2656 1.397 . S
C2657 C2658 1.334 . S
C2658 H2629 0.950 . S
C2658 C2657 1.334 . S
C2658 C2659 1.287 . S
C2659 C2658 1.287 . S
C2659 C2660 1.524 . S
C2659 H2662 0.999 . S
C2660 H2630 0.950 . S
C2660 C2659 1.524 . S
C2660 C2661 1.415 . S
C2661 H2631 0.950 . S
C2661 C2656 1.363 . S
C2661 C2660 1.415 . S
H2662 C2659 0.999 . S
H2663 C2644 0.913 . S
H2664 C2682 0.951 . S
H2665 C2684 0.951 . S
H2666 C2686 0.950 . S
H2667 C2687 0.950 . S
H2668 C2689 0.950 . S
H2669 C2692 0.950 . S
H2670 C2693 0.950 . S
H2671 C2695 0.950 . S
H2672 C2696 0.950 . S
H2673 C2697 0.951 . S
H2674 C2699 0.951 . S
H2675 C2701 0.950 . S
H2676 C2702 0.950 . S
H2677 C2704 0.953 . S
H2678 C2707 0.950 . S
H2679 C2708 0.950 . S
H2680 C2710 0.950 . S
H2681 C2711 0.950 . S
C2682 H2664 0.951 . S
C2682 C2683 1.366 . S
C2682 C2684 1.388 . S
C2683 C2682 1.366 . S
C2683 C2687 1.385 . S
C2684 H2665 0.951 . S
C2684 C2682 1.388 . S
C2684 C2685 1.366 . S
C2685 C2684 1.366 . S
C2685 C2686 1.414 . S
C2685 C2688 1.499 . S
C2686 H2666 0.950 . S
C2686 C2685 1.414 . S
C2686 C2687 1.374 . S
C2687 H2667 0.950 . S
C2687 C2683 1.385 . S
C2687 C2686 1.374 . S
C2688 C2685 1.499 . S
C2688 C2689 1.373 1_556 S
C2688 C2690 1.389 . S
C2689 H2668 0.950 . S
C2689 C2688 1.373 1_554 S
C2689 C2705 1.377 . S
C2690 C2688 1.389 . S
C2690 C2691 1.524 . S
C2690 C2704 1.383 . S
C2691 C2690 1.524 . S
C2691 C2692 1.397 . S
C2691 C2696 1.363 . S
C2692 H2669 0.950 . S
C2692 C2691 1.397 . S
C2692 C2693 1.334 . S
C2693 H2670 0.950 . S
C2693 C2692 1.334 . S
C2693 C2694 1.287 . S
C2694 C2693 1.287 . S
C2694 C2695 1.524 . S
C2694 H2713 0.913 . S
C2695 H2671 0.950 . S
C2695 C2694 1.524 . S
C2695 C2696 1.415 . S
C2696 H2672 0.950 . S
C2696 C2691 1.363 . S
C2696 C2695 1.415 . S
C2697 H2673 0.951 . S
C2697 C2698 1.366 . S
C2697 C2699 1.388 . S
C2698 C2697 1.366 . S
C2698 C2702 1.385 . S
C2699 H2674 0.951 . S
C2699 C2697 1.388 . S
C2699 C2700 1.366 . S
C2700 C2699 1.366 . S
C2700 C2701 1.414 . S
C2700 C2703 1.499 . S
C2701 H2675 0.950 . S
C2701 C2700 1.414 . S
C2701 C2702 1.374 . S
C2702 H2676 0.950 . S
C2702 C2698 1.385 . S
C2702 C2701 1.374 . S
C2703 C2700 1.499 . S
C2703 C2704 1.364 1_554 S
C2703 C2705 1.389 . S
C2704 H2677 0.953 . S
C2704 C2690 1.383 . S
C2704 C2703 1.364 1_556 S
C2705 C2689 1.377 . S
C2705 C2703 1.389 . S
C2705 C2706 1.524 . S
C2706 C2705 1.524 . S
C2706 C2707 1.397 . S
C2706 C2711 1.363 . S
C2707 H2678 0.950 . S
C2707 C2706 1.397 . S
C2707 C2708 1.334 . S
C2708 H2679 0.950 . S
C2708 C2707 1.334 . S
C2708 C2709 1.287 . S
C2709 C2708 1.287 . S
C2709 C2710 1.524 . S
C2709 H2712 0.999 . S
C2710 H2680 0.950 . S
C2710 C2709 1.524 . S
C2710 C2711 1.415 . S
C2711 H2681 0.950 . S
C2711 C2706 1.363 . S
C2711 C2710 1.415 . S
H2712 C2709 0.999 . S
H2713 C2694 0.913 . S
H2714 C2732 0.951 . S
H2715 C2734 0.951 . S
H2716 C2736 0.950 . S
H2717 C2737 0.950 . S
H2718 C2739 0.950 . S
H2719 C2742 0.950 . S
H2720 C2743 0.950 . S
H2721 C2745 0.950 . S
H2722 C2746 0.950 . S
H2723 C2747 0.951 . S
H2724 C2749 0.951 . S
H2725 C2751 0.950 . S
H2726 C2752 0.950 . S
H2727 C2754 0.950 . S
H2728 C2757 0.950 . S
H2729 C2758 0.950 1_655 S
H2730 C2760 0.950 . S
H2731 C2761 0.950 . S
C2732 H2714 0.951 . S
C2732 C2733 1.366 . S
C2732 C2734 1.388 . S
C2733 C2732 1.366 . S
C2733 C2737 1.385 . S
C2734 H2715 0.951 . S
C2734 C2732 1.388 . S
C2734 C2735 1.366 . S
C2735 C2734 1.366 . S
C2735 C2736 1.414 . S
C2735 C2738 1.499 . S
C2736 H2716 0.950 . S
C2736 C2735 1.414 . S
C2736 C2737 1.374 . S
C2737 H2717 0.950 . S
C2737 C2733 1.385 . S
C2737 C2736 1.374 . S
C2738 C2735 1.499 . S
C2738 C2739 1.373 . S
C2738 C2740 1.389 . S
C2739 H2718 0.950 . S
C2739 C2738 1.373 . S
C2739 C2755 1.377 . S
C2740 C2738 1.389 . S
C2740 C2741 1.524 . S
C2740 C2754 1.377 . S
C2741 C2740 1.524 . S
C2741 C2742 1.397 . S
C2741 C2746 1.363 . S
C2742 H2719 0.950 . S
C2742 C2741 1.397 . S
C2742 C2743 1.334 . S
C2743 H2720 0.950 . S
C2743 C2742 1.334 . S
C2743 C2744 1.287 . S
C2744 C2743 1.287 . S
C2744 C2745 1.524 . S
C2744 H2763 0.913 . S
C2745 H2721 0.950 . S
C2745 C2744 1.524 . S
C2745 C2746 1.415 . S
C2746 H2722 0.950 . S
C2746 C2741 1.363 . S
C2746 C2745 1.415 . S
C2747 H2723 0.951 . S
C2747 C2748 1.360 1_455 S
C2747 C2749 1.388 . S
C2748 C2747 1.360 1_655 S
C2748 C2752 1.379 1_655 S
C2749 H2724 0.951 . S
C2749 C2747 1.388 . S
C2749 C2750 1.366 . S
C2750 C2749 1.366 . S
C2750 C2751 1.414 . S
C2750 C2753 1.499 . S
C2751 H2725 0.950 . S
C2751 C2750 1.414 . S
C2751 C2752 1.374 . S
C2752 H2726 0.950 . S
C2752 C2748 1.379 1_455 S
C2752 C2751 1.374 . S
C2753 C2750 1.499 . S
C2753 C2754 1.373 . S
C2753 C2755 1.389 . S
C2754 H2727 0.950 . S
C2754 C2740 1.377 . S
C2754 C2753 1.373 . S
C2755 C2739 1.377 . S
C2755 C2753 1.389 . S
C2755 C2756 1.524 . S
C2756 C2755 1.524 . S
C2756 C2757 1.397 . S
C2756 C2761 1.363 . S
C2757 H2728 0.950 . S
C2757 C2756 1.397 . S
C2757 C2758 1.334 . S
C2758 H2729 0.950 1_455 S
C2758 C2757 1.334 . S
C2758 C2759 1.287 . S
C2759 C2758 1.287 . S
C2759 C2760 1.524 . S
C2759 H2762 0.999 . S
C2760 H2730 0.950 . S
C2760 C2759 1.524 . S
C2760 C2761 1.415 . S
C2761 H2731 0.950 . S
C2761 C2756 1.363 . S
C2761 C2760 1.415 . S
H2762 C2759 0.999 . S
H2763 C2744 0.913 . S
H2764 C2782 0.951 . S
H2765 C2784 0.951 . S
H2766 C2786 0.950 . S
H2767 C2787 0.950 . S
H2768 C2789 0.950 . S
H2769 C2792 0.950 . S
H2770 C2793 0.950 . S
H2771 C2795 0.950 . S
H2772 C2796 0.950 . S
H2773 C2797 0.951 . S
H2774 C2799 0.951 . S
H2775 C2801 0.950 . S
H2776 C2802 0.950 . S
H2777 C2804 0.950 . S
H2778 C2807 0.950 . S
H2779 C2808 0.950 . S
H2780 C2810 0.950 . S
H2781 C2811 0.950 . S
C2782 H2764 0.951 . S
C2782 C2783 1.366 . S
C2782 C2784 1.388 . S
C2783 C2782 1.366 . S
C2783 C2787 1.385 . S
C2784 H2765 0.951 . S
C2784 C2782 1.388 . S
C2784 C2785 1.366 . S
C2785 C2784 1.366 . S
C2785 C2786 1.414 . S
C2785 C2788 1.499 . S
C2786 H2766 0.950 . S
C2786 C2785 1.414 . S
C2786 C2787 1.374 . S
C2787 H2767 0.950 . S
C2787 C2783 1.385 . S
C2787 C2786 1.374 . S
C2788 C2785 1.499 . S
C2788 C2789 1.373 . S
C2788 C2790 1.389 . S
C2789 H2768 0.950 . S
C2789 C2788 1.373 . S
C2789 C2805 1.377 . S
C2790 C2788 1.389 . S
C2790 C2791 1.524 . S
C2790 C2804 1.377 . S
C2791 C2790 1.524 . S
C2791 C2792 1.397 . S
C2791 C2796 1.363 . S
C2792 H2769 0.950 . S
C2792 C2791 1.397 . S
C2792 C2793 1.334 . S
C2793 H2770 0.950 . S
C2793 C2792 1.334 . S
C2793 C2794 1.287 . S
C2794 C2793 1.287 . S
C2794 C2795 1.524 . S
C2794 H2813 0.913 . S
C2795 H2771 0.950 . S
C2795 C2794 1.524 . S
C2795 C2796 1.415 . S
C2796 H2772 0.950 . S
C2796 C2791 1.363 . S
C2796 C2795 1.415 . S
C2797 H2773 0.951 . S
C2797 C2798 1.366 . S
C2797 C2799 1.388 . S
C2798 C2797 1.366 . S
C2798 C2802 1.385 . S
C2799 H2774 0.951 . S
C2799 C2797 1.388 . S
C2799 C2800 1.366 . S
C2800 C2799 1.366 . S
C2800 C2801 1.414 . S
C2800 C2803 1.499 . S
C2801 H2775 0.950 . S
C2801 C2800 1.414 . S
C2801 C2802 1.374 . S
C2802 H2776 0.950 . S
C2802 C2798 1.385 . S
C2802 C2801 1.374 . S
C2803 C2800 1.499 . S
C2803 C2804 1.373 . S
C2803 C2805 1.389 . S
C2804 H2777 0.950 . S
C2804 C2790 1.377 . S
C2804 C2803 1.373 . S
C2805 C2789 1.377 . S
C2805 C2803 1.389 . S
C2805 C2806 1.524 . S
C2806 C2805 1.524 . S
C2806 C2807 1.397 . S
C2806 C2811 1.363 . S
C2807 H2778 0.950 . S
C2807 C2806 1.397 . S
C2807 C2808 1.334 . S
C2808 H2779 0.950 . S
C2808 C2807 1.334 . S
C2808 C2809 1.287 . S
C2809 C2808 1.287 . S
C2809 C2810 1.524 . S
C2809 H2812 0.999 . S
C2810 H2780 0.950 . S
C2810 C2809 1.524 . S
C2810 C2811 1.415 . S
C2811 H2781 0.950 . S
C2811 C2806 1.363 . S
C2811 C2810 1.415 . S
H2812 C2809 0.999 . S
H2813 C2794 0.913 . S
H2814 C2832 0.951 . S
H2815 C2834 0.951 . S
H2816 C2836 0.950 . S
H2817 C2837 0.950 . S
H2818 C2839 0.950 . S
H2819 C2842 0.950 . S
H2820 C2843 0.950 . S
H2821 C2845 0.950 . S
H2822 C2846 0.950 . S
H2823 C2847 0.951 . S
H2824 C2849 0.951 . S
H2825 C2851 0.950 . S
H2826 C2852 0.950 . S
H2827 C2854 0.950 . S
H2828 C2857 0.950 . S
H2829 C2858 0.950 . S
H2830 C2860 0.950 . S
H2831 C2861 0.950 . S
C2832 H2814 0.951 . S
C2832 C2833 1.366 . S
C2832 C2834 1.388 . S
C2833 C2832 1.366 . S
C2833 C2837 1.385 . S
C2834 H2815 0.951 . S
C2834 C2832 1.388 . S
C2834 C2835 1.366 . S
C2835 C2834 1.366 . S
C2835 C2836 1.414 . S
C2835 C2838 1.499 . S
C2836 H2816 0.950 . S
C2836 C2835 1.414 . S
C2836 C2837 1.374 . S
C2837 H2817 0.950 . S
C2837 C2833 1.385 . S
C2837 C2836 1.374 . S
C2838 C2835 1.499 . S
C2838 C2839 1.373 . S
C2838 C2840 1.389 . S
C2839 H2818 0.950 . S
C2839 C2838 1.373 . S
C2839 C2855 1.377 . S
C2840 C2838 1.389 . S
C2840 C2841 1.524 . S
C2840 C2854 1.377 . S
C2841 C2840 1.524 . S
C2841 C2842 1.397 . S
C2841 C2846 1.363 . S
C2842 H2819 0.950 . S
C2842 C2841 1.397 . S
C2842 C2843 1.334 . S
C2843 H2820 0.950 . S
C2843 C2842 1.334 . S
C2843 C2844 1.287 . S
C2844 C2843 1.287 . S
C2844 C2845 1.524 . S
C2844 H2863 0.913 . S
C2845 H2821 0.950 . S
C2845 C2844 1.524 . S
C2845 C2846 1.415 . S
C2846 H2822 0.950 . S
C2846 C2841 1.363 . S
C2846 C2845 1.415 . S
C2847 H2823 0.951 . S
C2847 C2848 1.366 . S
C2847 C2849 1.388 . S
C2848 C2847 1.366 . S
C2848 C2852 1.385 . S
C2849 H2824 0.951 . S
C2849 C2847 1.388 . S
C2849 C2850 1.366 . S
C2850 C2849 1.366 . S
C2850 C2851 1.414 . S
C2850 C2853 1.499 . S
C2851 H2825 0.950 . S
C2851 C2850 1.414 . S
C2851 C2852 1.374 . S
C2852 H2826 0.950 . S
C2852 C2848 1.385 . S
C2852 C2851 1.374 . S
C2853 C2850 1.499 . S
C2853 C2854 1.373 . S
C2853 C2855 1.389 . S
C2854 H2827 0.950 . S
C2854 C2840 1.377 . S
C2854 C2853 1.373 . S
C2855 C2839 1.377 . S
C2855 C2853 1.389 . S
C2855 C2856 1.524 . S
C2856 C2855 1.524 . S
C2856 C2857 1.397 . S
C2856 C2861 1.363 . S
C2857 H2828 0.950 . S
C2857 C2856 1.397 . S
C2857 C2858 1.334 . S
C2858 H2829 0.950 . S
C2858 C2857 1.334 . S
C2858 C2859 1.287 . S
C2859 C2858 1.287 . S
C2859 C2860 1.524 . S
C2859 H2862 0.999 . S
C2860 H2830 0.950 . S
C2860 C2859 1.524 . S
C2860 C2861 1.415 . S
C2861 H2831 0.950 . S
C2861 C2856 1.363 . S
C2861 C2860 1.415 . S
H2862 C2859 0.999 . S
H2863 C2844 0.913 . S
H2864 C2882 0.951 . S
H2865 C2884 0.951 . S
H2866 C2886 0.950 . S
H2867 C2887 0.950 . S
H2868 C2889 0.950 . S
H2869 C2892 0.950 . S
H2870 C2893 0.950 . S
H2871 C2895 0.950 . S
H2872 C2896 0.950 . S
H2873 C2897 0.951 . S
H2874 C2899 0.951 . S
H2875 C2901 0.950 . S
H2876 C2902 0.950 . S
H2877 C2904 0.950 . S
H2878 C2907 0.950 . S
H2879 C2908 0.950 . S
H2880 C2910 0.950 . S
H2881 C2911 0.950 . S
C2882 H2864 0.951 . S
C2882 C2883 1.366 . S
C2882 C2884 1.388 . S
C2883 C2882 1.366 . S
C2883 C2887 1.385 . S
C2884 H2865 0.951 . S
C2884 C2882 1.388 . S
C2884 C2885 1.366 . S
C2885 C2884 1.366 . S
C2885 C2886 1.414 . S
C2885 C2888 1.499 . S
C2886 H2866 0.950 . S
C2886 C2885 1.414 . S
C2886 C2887 1.374 . S
C2887 H2867 0.950 . S
C2887 C2883 1.385 . S
C2887 C2886 1.374 . S
C2888 C2885 1.499 . S
C2888 C2889 1.373 . S
C2888 C2890 1.389 . S
C2889 H2868 0.950 . S
C2889 C2888 1.373 . S
C2889 C2905 1.377 . S
C2890 C2888 1.389 . S
C2890 C2891 1.524 . S
C2890 C2904 1.377 . S
C2891 C2890 1.524 . S
C2891 C2892 1.397 . S
C2891 C2896 1.363 . S
C2892 H2869 0.950 . S
C2892 C2891 1.397 . S
C2892 C2893 1.334 . S
C2893 H2870 0.950 . S
C2893 C2892 1.334 . S
C2893 C2894 1.287 . S
C2894 C2893 1.287 . S
C2894 C2895 1.524 . S
C2894 H2913 0.913 . S
C2895 H2871 0.950 . S
C2895 C2894 1.524 . S
C2895 C2896 1.415 . S
C2896 H2872 0.950 . S
C2896 C2891 1.363 . S
C2896 C2895 1.415 . S
C2897 H2873 0.951 . S
C2897 C2898 1.366 . S
C2897 C2899 1.388 . S
C2898 C2897 1.366 . S
C2898 C2902 1.385 . S
C2899 H2874 0.951 . S
C2899 C2897 1.388 . S
C2899 C2900 1.366 . S
C2900 C2899 1.366 . S
C2900 C2901 1.414 . S
C2900 C2903 1.499 . S
C2901 H2875 0.950 . S
C2901 C2900 1.414 . S
C2901 C2902 1.374 . S
C2902 H2876 0.950 . S
C2902 C2898 1.385 . S
C2902 C2901 1.374 . S
C2903 C2900 1.499 . S
C2903 C2904 1.373 . S
C2903 C2905 1.389 . S
C2904 H2877 0.950 . S
C2904 C2890 1.377 . S
C2904 C2903 1.373 . S
C2905 C2889 1.377 . S
C2905 C2903 1.389 . S
C2905 C2906 1.524 . S
C2906 C2905 1.524 . S
C2906 C2907 1.397 . S
C2906 C2911 1.363 . S
C2907 H2878 0.950 . S
C2907 C2906 1.397 . S
C2907 C2908 1.334 . S
C2908 H2879 0.950 . S
C2908 C2907 1.334 . S
C2908 C2909 1.287 . S
C2909 C2908 1.287 . S
C2909 C2910 1.524 . S
C2909 H2912 0.999 . S
C2910 H2880 0.950 . S
C2910 C2909 1.524 . S
C2910 C2911 1.415 . S
C2911 H2881 0.950 . S
C2911 C2906 1.363 . S
C2911 C2910 1.415 . S
H2912 C2909 0.999 . S
H2913 C2894 0.913 . S
H2914 C2932 0.951 . S
H2915 C2934 0.951 . S
H2916 C2936 0.950 . S
H2917 C2937 0.950 . S
H2918 C2939 0.966 . S
H2919 C2942 0.950 . S
H2920 C2943 0.950 . S
H2921 C2945 0.950 . S
H2922 C2946 0.950 . S
H2923 C2947 0.951 . S
H2924 C2949 0.951 . S
H2925 C2951 0.950 . S
H2926 C2952 0.950 . S
H2927 C2954 0.950 . S
H2928 C2957 0.950 . S
H2929 C2958 0.950 . S
H2930 C2960 0.950 . S
H2931 C2961 0.950 1_545 S
C2932 H2914 0.951 . S
C2932 C2933 1.366 . S
C2932 C2934 1.388 . S
C2933 C2932 1.366 . S
C2933 C2937 1.385 . S
C2934 H2915 0.951 . S
C2934 C2932 1.388 . S
C2934 C2935 1.366 . S
C2935 C2934 1.366 . S
C2935 C2936 1.414 . S
C2935 C2938 1.499 . S
C2936 H2916 0.950 . S
C2936 C2935 1.414 . S
C2936 C2937 1.374 . S
C2937 H2917 0.950 . S
C2937 C2933 1.385 . S
C2937 C2936 1.374 . S
C2938 C2935 1.499 . S
C2938 C2939 1.373 . S
C2938 C2940 1.389 . S
C2939 H2918 0.966 . S
C2939 C2938 1.373 . S
C2939 C2955 1.377 . S
C2940 C2938 1.389 . S
C2940 C2941 1.524 . S
C2940 C2954 1.377 . S
C2941 C2940 1.524 . S
C2941 C2942 1.397 . S
C2941 C2946 1.363 . S
C2942 H2919 0.950 . S
C2942 C2941 1.397 . S
C2942 C2943 1.334 . S
C2943 H2920 0.950 . S
C2943 C2942 1.334 . S
C2943 C2944 1.287 . S
C2944 C2943 1.287 . S
C2944 C2945 1.524 . S
C2944 H2963 0.913 . S
C2945 H2921 0.950 . S
C2945 C2944 1.524 . S
C2945 C2946 1.415 . S
C2946 H2922 0.950 . S
C2946 C2941 1.363 . S
C2946 C2945 1.415 . S
C2947 H2923 0.951 . S
C2947 C2948 1.366 . S
C2947 C2949 1.388 . S
C2948 C2947 1.366 . S
C2948 C2952 1.385 . S
C2949 H2924 0.951 . S
C2949 C2947 1.388 . S
C2949 C2950 1.366 . S
C2950 C2949 1.366 . S
C2950 C2951 1.414 . S
C2950 C2953 1.499 . S
C2951 H2925 0.950 . S
C2951 C2950 1.414 . S
C2951 C2952 1.374 . S
C2952 H2926 0.950 . S
C2952 C2948 1.385 . S
C2952 C2951 1.374 . S
C2953 C2950 1.499 . S
C2953 C2954 1.373 . S
C2953 C2955 1.389 . S
C2954 H2927 0.950 . S
C2954 C2940 1.377 . S
C2954 C2953 1.373 . S
C2955 C2939 1.377 . S
C2955 C2953 1.389 . S
C2955 C2956 1.524 1_545 S
C2956 C2955 1.524 1_565 S
C2956 C2957 1.397 . S
C2956 C2961 1.363 . S
C2957 H2928 0.950 . S
C2957 C2956 1.397 . S
C2957 C2958 1.334 . S
C2958 H2929 0.950 . S
C2958 C2957 1.334 . S
C2958 C2959 1.287 . S
C2959 C2958 1.287 . S
C2959 C2960 1.524 . S
C2959 H2962 0.999 . S
C2960 H2930 0.950 . S
C2960 C2959 1.524 . S
C2960 C2961 1.415 . S
C2961 H2931 0.950 1_565 S
C2961 C2956 1.363 . S
C2961 C2960 1.415 . S
H2962 C2959 0.999 . S
H2963 C2944 0.913 . S
H2964 C2982 0.951 . S
H2965 C2984 0.951 . S
H2966 C2986 0.950 . S
H2967 C2987 0.950 . S
H2968 C2989 0.950 . S
H2969 C2992 0.950 . S
H2970 C2993 0.950 . S
H2971 C2995 0.950 . S
H2972 C2996 0.950 . S
H2973 C2997 0.951 . S
H2974 C2999 0.951 . S
H2975 C3001 0.950 . S
H2976 C3002 0.950 . S
H2977 C3004 0.950 . S
H2978 C3007 0.950 . S
H2979 C3008 0.950 . S
H2980 C3010 0.950 . S
H2981 C3011 0.950 . S
C2982 H2964 0.951 . S
C2982 C2983 1.366 . S
C2982 C2984 1.388 . S
C2983 C2982 1.366 . S
C2983 C2987 1.385 . S
C2984 H2965 0.951 . S
C2984 C2982 1.388 . S
C2984 C2985 1.366 . S
C2985 C2984 1.366 . S
C2985 C2986 1.414 . S
C2985 C2988 1.499 . S
C2986 H2966 0.950 . S
C2986 C2985 1.414 . S
C2986 C2987 1.374 . S
C2987 H2967 0.950 . S
C2987 C2983 1.385 . S
C2987 C2986 1.374 . S
C2988 C2985 1.499 . S
C2988 C2989 1.373 1_554 S
C2988 C2990 1.389 . S
C2989 H2968 0.950 . S
C2989 C2988 1.373 1_556 S
C2989 C3005 1.377 . S
C2990 C2988 1.389 . S
C2990 C2991 1.524 . S
C2990 C3004 1.377 . S
C2991 C2990 1.524 . S
C2991 C2992 1.397 . S
C2991 C2996 1.363 . S
C2992 H2969 0.950 . S
C2992 C2991 1.397 . S
C2992 C2993 1.334 . S
C2993 H2970 0.950 . S
C2993 C2992 1.334 . S
C2993 C2994 1.287 . S
C2994 C2993 1.287 . S
C2994 C2995 1.524 . S
C2994 H3013 0.913 . S
C2995 H2971 0.950 . S
C2995 C2994 1.524 . S
C2995 C2996 1.415 . S
C2996 H2972 0.950 . S
C2996 C2991 1.363 . S
C2996 C2995 1.415 . S
C2997 H2973 0.951 . S
C2997 C2998 1.366 . S
C2997 C2999 1.388 . S
C2998 C2997 1.366 . S
C2998 C3002 1.385 . S
C2999 H2974 0.951 . S
C2999 C2997 1.388 . S
C2999 C3000 1.366 . S
C3000 C2999 1.366 . S
C3000 C3001 1.414 . S
C3000 C3003 1.499 . S
C3001 H2975 0.950 . S
C3001 C3000 1.414 . S
C3001 C3002 1.374 . S
C3002 H2976 0.950 . S
C3002 C2998 1.385 . S
C3002 C3001 1.374 . S
C3003 C3000 1.499 . S
C3003 C3004 1.373 1_556 S
C3003 C3005 1.389 . S
C3004 H2977 0.950 . S
C3004 C2990 1.377 . S
C3004 C3003 1.373 1_554 S
C3005 C2989 1.377 . S
C3005 C3003 1.389 . S
C3005 C3006 1.524 . S
C3006 C3005 1.524 . S
C3006 C3007 1.397 . S
C3006 C3011 1.363 . S
C3007 H2978 0.950 . S
C3007 C3006 1.397 . S
C3007 C3008 1.334 . S
C3008 H2979 0.950 . S
C3008 C3007 1.334 . S
C3008 C3009 1.287 . S
C3009 C3008 1.287 . S
C3009 C3010 1.524 . S
C3009 H3012 0.999 . S
C3010 H2980 0.950 . S
C3010 C3009 1.524 . S
C3010 C3011 1.415 . S
C3011 H2981 0.950 . S
C3011 C3006 1.363 . S
C3011 C3010 1.415 . S
H3012 C3009 0.999 . S
H3013 C2994 0.913 . S
H3014 C3032 0.951 . S
H3015 C3034 0.951 . S
H3016 C3036 0.950 . S
H3017 C3037 0.950 . S
H3018 C3039 0.950 . S
H3019 C3042 0.950 . S
H3020 C3043 0.950 . S
H3021 C3045 0.950 . S
H3022 C3046 0.950 . S
H3023 C3047 0.951 1_655 S
H3024 C3049 0.951 . S
H3025 C3051 0.950 . S
H3026 C3052 0.950 . S
H3027 C3054 0.950 . S
H3028 C3057 0.950 . S
H3029 C3058 0.950 . S
H3030 C3060 0.950 . S
H3031 C3061 0.950 . S
C3032 H3014 0.951 . S
C3032 C3033 1.366 . S
C3032 C3034 1.388 . S
C3033 C3032 1.366 . S
C3033 C3037 1.385 . S
C3034 H3015 0.951 . S
C3034 C3032 1.388 . S
C3034 C3035 1.366 . S
C3035 C3034 1.366 . S
C3035 C3036 1.414 . S
C3035 C3038 1.499 . S
C3036 H3016 0.950 . S
C3036 C3035 1.414 . S
C3036 C3037 1.374 . S
C3037 H3017 0.950 . S
C3037 C3033 1.385 . S
C3037 C3036 1.374 . S
C3038 C3035 1.499 . S
C3038 C3039 1.373 . S
C3038 C3040 1.389 . S
C3039 H3018 0.950 . S
C3039 C3038 1.373 . S
C3039 C3055 1.377 . S
C3040 C3038 1.389 . S
C3040 C3041 1.541 . S
C3040 C3054 1.377 . S
C3041 C3040 1.541 . S
C3041 C3042 1.374 1_565 S
C3041 C3046 1.368 . S
C3042 H3019 0.950 . S
C3042 C3041 1.374 1_545 S
C3042 C3043 1.334 . S
C3043 H3020 0.950 . S
C3043 C3042 1.334 . S
C3043 C3044 1.287 . S
C3044 C3043 1.287 . S
C3044 C3045 1.524 . S
C3044 H3063 0.913 . S
C3045 H3021 0.950 . S
C3045 C3044 1.524 . S
C3045 C3046 1.415 1_545 S
C3046 H3022 0.950 . S
C3046 C3041 1.368 . S
C3046 C3045 1.415 1_565 S
C3047 H3023 0.951 1_455 S
C3047 C3048 1.365 1_455 S
C3047 C3049 1.388 . S
C3048 C3047 1.365 1_655 S
C3048 C3052 1.374 1_655 S
C3049 H3024 0.951 . S
C3049 C3047 1.388 . S
C3049 C3050 1.366 . S
C3050 C3049 1.366 . S
C3050 C3051 1.414 . S
C3050 C3053 1.499 . S
C3051 H3025 0.950 . S
C3051 C3050 1.414 . S
C3051 C3052 1.374 . S
C3052 H3026 0.950 . S
C3052 C3048 1.374 1_455 S
C3052 C3051 1.374 . S
C3053 C3050 1.499 . S
C3053 C3054 1.373 . S
C3053 C3055 1.389 . S
C3054 H3027 0.950 . S
C3054 C3040 1.377 . S
C3054 C3053 1.373 . S
C3055 C3039 1.377 . S
C3055 C3053 1.389 . S
C3055 C3056 1.524 . S
C3056 C3055 1.524 . S
C3056 C3057 1.397 . S
C3056 C3061 1.363 . S
C3057 H3028 0.950 . S
C3057 C3056 1.397 . S
C3057 C3058 1.334 . S
C3058 H3029 0.950 . S
C3058 C3057 1.334 . S
C3058 C3059 1.287 . S
C3059 C3058 1.287 . S
C3059 C3060 1.524 . S
C3059 H3062 0.999 . S
C3060 H3030 0.950 . S
C3060 C3059 1.524 . S
C3060 C3061 1.415 . S
C3061 H3031 0.950 . S
C3061 C3056 1.363 . S
C3061 C3060 1.415 . S
H3062 C3059 0.999 . S
H3063 C3044 0.913 . S
H3064 C3082 0.951 . S
H3065 C3084 0.951 . S
H3066 C3086 0.950 . S
H3067 C3087 0.950 . S
H3068 C3089 0.950 . S
H3069 C3092 0.950 . S
H3070 C3093 0.950 . S
H3071 C3095 0.950 . S
H3072 C3096 0.950 . S
H3073 C3097 0.951 . S
H3074 C3099 0.951 . S
H3075 C3101 0.950 . S
H3076 C3102 0.950 . S
H3077 C3104 0.950 . S
H3078 C3107 0.950 . S
H3079 C3108 0.950 . S
H3080 C3110 0.950 . S
H3081 C3111 0.950 . S
C3082 H3064 0.951 . S
C3082 C3083 1.366 . S
C3082 C3084 1.388 . S
C3083 C3082 1.366 . S
C3083 C3087 1.385 . S
C3084 H3065 0.951 . S
C3084 C3082 1.388 . S
C3084 C3085 1.366 . S
C3085 C3084 1.366 . S
C3085 C3086 1.414 . S
C3085 C3088 1.499 . S
C3086 H3066 0.950 . S
C3086 C3085 1.414 . S
C3086 C3087 1.374 . S
C3087 H3067 0.950 . S
C3087 C3083 1.385 . S
C3087 C3086 1.374 . S
C3088 C3085 1.499 . S
C3088 C3089 1.373 . S
C3088 C3090 1.389 . S
C3089 H3068 0.950 . S
C3089 C3088 1.373 . S
C3089 C3105 1.377 . S
C3090 C3088 1.389 . S
C3090 C3091 1.524 . S
C3090 C3104 1.377 . S
C3091 C3090 1.524 . S
C3091 C3092 1.397 . S
C3091 C3096 1.363 . S
C3092 H3069 0.950 . S
C3092 C3091 1.397 . S
C3092 C3093 1.334 . S
C3093 H3070 0.950 . S
C3093 C3092 1.334 . S
C3093 C3094 1.287 . S
C3094 C3093 1.287 . S
C3094 C3095 1.524 . S
C3094 H3113 0.913 . S
C3095 H3071 0.950 . S
C3095 C3094 1.524 . S
C3095 C3096 1.415 . S
C3096 H3072 0.950 . S
C3096 C3091 1.363 . S
C3096 C3095 1.415 . S
C3097 H3073 0.951 . S
C3097 C3098 1.366 . S
C3097 C3099 1.388 . S
C3098 C3097 1.366 . S
C3098 C3102 1.385 . S
C3099 H3074 0.951 . S
C3099 C3097 1.388 . S
C3099 C3100 1.366 . S
C3100 C3099 1.366 . S
C3100 C3101 1.414 . S
C3100 C3103 1.499 . S
C3101 H3075 0.950 . S
C3101 C3100 1.414 . S
C3101 C3102 1.374 . S
C3102 H3076 0.950 . S
C3102 C3098 1.385 . S
C3102 C3101 1.374 . S
C3103 C3100 1.499 . S
C3103 C3104 1.373 . S
C3103 C3105 1.389 . S
C3104 H3077 0.950 . S
C3104 C3090 1.377 . S
C3104 C3103 1.373 . S
C3105 C3089 1.377 . S
C3105 C3103 1.389 . S
C3105 C3106 1.524 . S
C3106 C3105 1.524 . S
C3106 C3107 1.397 . S
C3106 C3111 1.363 . S
C3107 H3078 0.950 . S
C3107 C3106 1.397 . S
C3107 C3108 1.334 . S
C3108 H3079 0.950 . S
C3108 C3107 1.334 . S
C3108 C3109 1.287 . S
C3109 C3108 1.287 . S
C3109 C3110 1.524 . S
C3109 H3112 0.999 . S
C3110 H3080 0.950 . S
C3110 C3109 1.524 . S
C3110 C3111 1.415 . S
C3111 H3081 0.950 . S
C3111 C3106 1.363 . S
C3111 C3110 1.415 . S
H3112 C3109 0.999 . S
H3113 C3094 0.913 . S
H3114 C3132 0.951 . S
H3115 C3134 0.951 . S
H3116 C3136 0.950 . S
H3117 C3137 0.950 . S
H3118 C3139 0.950 . S
H3119 C3142 0.950 . S
H3120 C3143 0.950 . S
H3121 C3145 0.950 . S
H3122 C3146 0.950 . S
H3123 C3147 0.951 . S
H3124 C3149 0.951 . S
H3125 C3151 0.950 . S
H3126 C3152 0.950 . S
H3127 C3154 0.950 1_545 S
H3128 C3157 0.950 . S
H3129 C3158 0.950 . S
H3130 C3160 0.950 . S
H3131 C3161 0.950 . S
C3132 H3114 0.951 . S
C3132 C3133 1.366 . S
C3132 C3134 1.388 . S
C3133 C3132 1.366 . S
C3133 C3137 1.385 . S
C3134 H3115 0.951 . S
C3134 C3132 1.388 . S
C3134 C3135 1.366 . S
C3135 C3134 1.366 . S
C3135 C3136 1.414 . S
C3135 C3138 1.499 . S
C3136 H3116 0.950 . S
C3136 C3135 1.414 . S
C3136 C3137 1.374 . S
C3137 H3117 0.950 . S
C3137 C3133 1.385 . S
C3137 C3136 1.374 . S
C3138 C3135 1.499 . S
C3138 C3139 1.373 . S
C3138 C3140 1.389 . S
C3139 H3118 0.950 . S
C3139 C3138 1.373 . S
C3139 C3155 1.377 . S
C3140 C3138 1.389 . S
C3140 C3141 1.524 1_565 S
C3140 C3154 1.377 . S
C3141 C3140 1.524 1_545 S
C3141 C3142 1.397 . S
C3141 C3146 1.363 . S
C3142 H3119 0.950 . S
C3142 C3141 1.397 . S
C3142 C3143 1.334 . S
C3143 H3120 0.950 . S
C3143 C3142 1.334 . S
C3143 C3144 1.287 . S
C3144 C3143 1.287 . S
C3144 C3145 1.524 . S
C3144 H3163 0.913 . S
C3145 H3121 0.950 . S
C3145 C3144 1.524 . S
C3145 C3146 1.415 . S
C3146 H3122 0.950 . S
C3146 C3141 1.363 . S
C3146 C3145 1.415 . S
C3147 H3123 0.951 . S
C3147 C3148 1.366 . S
C3147 C3149 1.388 . S
C3148 C3147 1.366 . S
C3148 C3152 1.385 . S
C3149 H3124 0.951 . S
C3149 C3147 1.388 . S
C3149 C3150 1.366 . S
C3150 C3149 1.366 . S
C3150 C3151 1.414 . S
C3150 C3153 1.499 . S
C3151 H3125 0.950 . S
C3151 C3150 1.414 . S
C3151 C3152 1.374 . S
C3152 H3126 0.950 . S
C3152 C3148 1.385 . S
C3152 C3151 1.374 . S
C3153 C3150 1.499 . S
C3153 C3154 1.373 . S
C3153 C3155 1.389 . S
C3154 H3127 0.950 1_565 S
C3154 C3140 1.377 . S
C3154 C3153 1.373 . S
C3155 C3139 1.377 . S
C3155 C3153 1.389 . S
C3155 C3156 1.524 . S
C3156 C3155 1.524 . S
C3156 C3157 1.397 . S
C3156 C3161 1.363 . S
C3157 H3128 0.950 . S
C3157 C3156 1.397 . S
C3157 C3158 1.334 . S
C3158 H3129 0.950 . S
C3158 C3157 1.334 . S
C3158 C3159 1.287 . S
C3159 C3158 1.287 . S
C3159 C3160 1.524 . S
C3159 H3162 0.999 . S
C3160 H3130 0.950 . S
C3160 C3159 1.524 . S
C3160 C3161 1.415 . S
C3161 H3131 0.950 . S
C3161 C3156 1.363 . S
C3161 C3160 1.415 . S
H3162 C3159 0.999 . S
H3163 C3144 0.913 . S
H3164 C3182 0.951 . S
H3165 C3184 0.951 1_554 S
H3166 C3186 0.950 . S
H3167 C3187 0.950 . S
H3168 C3189 0.950 . S
H3169 C3192 0.973 . S
H3170 C3193 0.950 1_556 S
H3171 C3195 0.950 . S
H3172 C3196 0.950 . S
H3173 C3197 0.951 . S
H3174 C3199 0.957 1_556 S
H3175 C3201 0.950 . S
H3176 C3202 0.950 . S
H3177 C3204 0.950 . S
H3178 C3207 0.950 . S
H3179 C3208 0.950 . S
H3180 C3210 0.950 . S
H3181 C3211 0.950 . S
C3182 H3164 0.951 . S
C3182 C3183 1.366 . S
C3182 C3184 1.388 . S
C3183 C3182 1.366 . S
C3183 C3187 1.385 . S
C3184 H3165 0.951 1_556 S
C3184 C3182 1.388 . S
C3184 C3185 1.366 . S
C3185 C3184 1.366 . S
C3185 C3186 1.414 . S
C3185 C3188 1.499 . S
C3186 H3166 0.950 . S
C3186 C3185 1.414 . S
C3186 C3187 1.374 . S
C3187 H3167 0.950 . S
C3187 C3183 1.385 . S
C3187 C3186 1.374 . S
C3188 C3185 1.499 . S
C3188 C3189 1.373 . S
C3188 C3190 1.389 1_556 S
C3189 H3168 0.950 . S
C3189 C3188 1.373 . S
C3189 C3205 1.407 . S
C3190 C3188 1.389 1_554 S
C3190 C3191 1.524 . S
C3190 C3204 1.377 . S
C3191 C3190 1.524 . S
C3191 C3192 1.378 1_554 S
C3191 C3196 1.363 . S
C3192 H3169 0.973 . S
C3192 C3191 1.378 1_556 S
C3192 C3193 1.330 1_556 S
C3193 H3170 0.950 1_554 S
C3193 C3192 1.330 1_554 S
C3193 C3194 1.287 . S
C3194 C3193 1.287 . S
C3194 C3195 1.524 . S
C3194 H3213 0.913 . S
C3195 H3171 0.950 . S
C3195 C3194 1.524 . S
C3195 C3196 1.415 . S
C3196 H3172 0.950 . S
C3196 C3191 1.363 . S
C3196 C3195 1.415 . S
C3197 H3173 0.951 . S
C3197 C3198 1.366 . S
C3197 C3199 1.388 . S
C3198 C3197 1.366 . S
C3198 C3202 1.385 . S
C3199 H3174 0.957 1_554 S
C3199 C3197 1.388 . S
C3199 C3200 1.366 . S
C3200 C3199 1.366 . S
C3200 C3201 1.414 . S
C3200 C3203 1.499 . S
C3201 H3175 0.950 . S
C3201 C3200 1.414 . S
C3201 C3202 1.374 . S
C3202 H3176 0.950 . S
C3202 C3198 1.385 . S
C3202 C3201 1.374 . S
C3203 C3200 1.499 . S
C3203 C3204 1.373 . S
C3203 C3205 1.345 1_554 S
C3204 H3177 0.950 . S
C3204 C3190 1.377 . S
C3204 C3203 1.373 . S
C3205 C3189 1.407 . S
C3205 C3203 1.345 1_556 S
C3205 C3206 1.540 . S
C3206 C3205 1.540 . S
C3206 C3207 1.397 1_556 S
C3206 C3211 1.363 . S
C3207 H3178 0.950 . S
C3207 C3206 1.397 1_554 S
C3207 C3208 1.334 . S
C3208 H3179 0.950 . S
C3208 C3207 1.334 . S
C3208 C3209 1.287 1_554 S
C3209 C3208 1.287 1_556 S
C3209 C3210 1.524 . S
C3209 H3212 0.999 . S
C3210 H3180 0.950 . S
C3210 C3209 1.524 . S
C3210 C3211 1.415 . S
C3211 H3181 0.950 . S
C3211 C3206 1.363 . S
C3211 C3210 1.415 . S
H3212 C3209 0.999 . S
H3213 C3194 0.913 . S
H3214 C3232 0.951 . S
H3215 C3234 0.951 . S
H3216 C3236 0.950 . S
H3217 C3237 0.950 . S
H3218 C3239 0.950 1_565 S
H3219 C3242 0.950 . S
H3220 C3243 0.950 . S
H3221 C3245 0.950 . S
H3222 C3246 0.950 . S
H3223 C3247 0.951 1_455 S
H3224 C3249 0.951 . S
H3225 C3251 0.950 . S
H3226 C3252 0.950 . S
H3227 C3254 0.950 . S
H3228 C3257 0.950 . S
H3229 C3258 0.950 . S
H3230 C3260 0.950 . S
H3231 C3261 0.950 . S
C3232 H3214 0.951 . S
C3232 C3233 1.366 . S
C3232 C3234 1.388 . S
C3233 C3232 1.366 . S
C3233 C3237 1.385 . S
C3234 H3215 0.951 . S
C3234 C3232 1.388 . S
C3234 C3235 1.366 . S
C3235 C3234 1.366 . S
C3235 C3236 1.414 . S
C3235 C3238 1.499 . S
C3236 H3216 0.950 . S
C3236 C3235 1.414 . S
C3236 C3237 1.374 . S
C3237 H3217 0.950 . S
C3237 C3233 1.385 . S
C3237 C3236 1.374 . S
C3238 C3235 1.499 . S
C3238 C3239 1.373 . S
C3238 C3240 1.389 . S
C3239 H3218 0.950 1_545 S
C3239 C3238 1.373 . S
C3239 C3255 1.377 . S
C3240 C3238 1.389 . S
C3240 C3241 1.524 . S
C3240 C3254 1.377 . S
C3241 C3240 1.524 . S
C3241 C3242 1.397 . S
C3241 C3246 1.363 . S
C3242 H3219 0.950 . S
C3242 C3241 1.397 . S
C3242 C3243 1.334 . S
C3243 H3220 0.950 . S
C3243 C3242 1.334 . S
C3243 C3244 1.287 . S
C3244 C3243 1.287 . S
C3244 C3245 1.524 . S
C3244 H3263 0.913 . S
C3245 H3221 0.950 . S
C3245 C3244 1.524 . S
C3245 C3246 1.415 . S
C3246 H3222 0.950 . S
C3246 C3241 1.363 . S
C3246 C3245 1.415 . S
C3247 H3223 0.951 1_655 S
C3247 C3248 1.365 1_655 S
C3247 C3249 1.388 . S
C3248 C3247 1.365 1_455 S
C3248 C3252 1.373 1_455 S
C3249 H3224 0.951 . S
C3249 C3247 1.388 . S
C3249 C3250 1.366 . S
C3250 C3249 1.366 . S
C3250 C3251 1.414 . S
C3250 C3253 1.499 . S
C3251 H3225 0.950 . S
C3251 C3250 1.414 . S
C3251 C3252 1.374 . S
C3252 H3226 0.950 . S
C3252 C3248 1.373 1_655 S
C3252 C3251 1.374 . S
C3253 C3250 1.499 . S
C3253 C3254 1.373 . S
C3253 C3255 1.389 . S
C3254 H3227 0.950 . S
C3254 C3240 1.377 . S
C3254 C3253 1.373 . S
C3255 C3239 1.377 . S
C3255 C3253 1.389 . S
C3255 C3256 1.524 1_545 S
C3256 C3255 1.524 1_565 S
C3256 C3257 1.397 . S
C3256 C3261 1.363 . S
C3257 H3228 0.950 . S
C3257 C3256 1.397 . S
C3257 C3258 1.334 . S
C3258 H3229 0.950 . S
C3258 C3257 1.334 . S
C3258 C3259 1.287 . S
C3259 C3258 1.287 . S
C3259 C3260 1.524 . S
C3259 H3262 0.999 . S
C3260 H3230 0.950 . S
C3260 C3259 1.524 . S
C3260 C3261 1.415 . S
C3261 H3231 0.950 . S
C3261 C3256 1.363 . S
C3261 C3260 1.415 . S
H3262 C3259 0.999 . S
H3263 C3244 0.913 . S
C483 C269 0.963 . S
C498 C3 0.980 . S
C533 C298 0.963 . S
C548 C32 0.980 . S
C583 C327 0.963 . S
C598 C61 0.980 . S
C633 C240 0.963 . S
C648 C90 0.980 . S
C683 C119 0.979 . S
C698 C385 0.963 . S
C733 C414 0.962 . S
C748 C148 0.979 . S
C783 C443 0.962 . S
C798 C177 0.980 . S
C833 C206 0.980 . S
C848 C356 0.963 . S
C883 C37 0.962 . S
C898 C235 0.980 . S
C933 C66 0.964 . S
C948 C264 0.980 . S
C983 C293 0.979 . S
C998 C95 0.962 . S
C1033 C8 0.963 . S
C1048 C322 0.980 . S
C1083 C153 0.963 . S
C1098 C351 0.979 . S
C1133 C380 0.980 . S
C1148 C182 0.962 . S
C1183 C409 0.980 . S
C1198 C211 0.964 . S
C1233 C124 0.962 . S
C1248 C438 0.979 . S
C1283 C213 2.305 . S
C1298 C15 2.359 . S
C1333 C44 2.359 . S
C1348 C358 2.305 . S
C1383 C73 2.359 . S
C1398 C155 2.306 . S
C1433 C416 2.305 . S
C1448 C102 2.359 1_455 S
C1483 C97 2.305 . S
C1498 C131 2.359 . S
C1533 C242 2.305 . S
C1548 C160 2.359 . S
C1583 C39 2.305 . S
C1598 C189 2.359 . S
C1633 C300 2.305 . S
C1648 C218 2.359 1_655 S
C1683 C247 2.359 . S
C1698 C445 2.305 1_565 S
C1733 C276 2.359 1_655 S
C1748 C126 2.305 . S
C1783 C387 2.305 1_545 S
C1798 C305 2.359 . S
C1833 C184 2.305 . S
C1848 C334 2.359 . S
C1883 C363 2.359 . S
C1898 C329 2.305 1_545 S
C1933 C392 2.359 1_455 S
C1948 C10 2.305 . S
C1983 C421 2.359 . S
C1998 C271 2.305 1_565 S
C2033 C450 2.359 . S
C2048 C68 2.305 . S
C2083 C121 2.448 . S
C2098 C5 2.448 . S
C2133 C34 2.448 . S
C2148 C382 2.448 . S
C2183 C179 2.448 . S
C2198 C63 2.448 . S
C2233 C440 2.448 . S
C2248 C92 2.448 . S
C2283 C266 2.448 . S
C2298 C150 2.448 . S
C2333 C208 2.448 . S
C2348 C324 2.448 . S
C2383 C237 2.448 . S
C2398 C353 2.448 . S
C2433 C295 2.448 . S
C2448 C411 2.448 . S
C2483 C419 1.249 . S
C2498 C21 1.249 1_565 S
C2533 C216 1.256 . S
C2548 C50 1.249 . S
C2583 C79 1.249 1_545 S
C2598 C361 1.249 . S
C2633 C158 1.247 . S
C2648 C108 1.250 . S
C2683 C137 1.249 1_545 S
C2698 C303 1.249 . S
C2733 C166 1.251 . S
C2748 C100 1.255 . S
C2783 C195 1.250 1_565 S
C2798 C245 1.249 . S
C2833 C42 1.248 . S
C2848 C224 1.250 . S
C2883 C253 1.249 . S
C2898 C187 1.249 . S
C2933 C448 1.249 . S
C2948 C282 1.250 . S
C2983 C311 1.249 . S
C2998 C129 1.249 . S
C3033 C340 1.251 . S
C3048 C390 1.256 . S
C3083 C71 1.249 . S
C3098 C369 1.249 . S
C3133 C398 1.250 . S
C3148 C332 1.249 . S
C3183 C427 1.249 . S
C3198 C13 1.247 . S
C3233 C456 1.249 . S
C3248 C274 1.256 . S
