# Generated by pormake.
# Topology yfb, (5)-cn, num edge types: 1
# Building blocks:
#     Node 0, Type 0, BuildingBlock: BEQFEK_clean_sbu_0, # of connection points: 5
#     Node 1, Type 0, BuildingBlock: BEQFEK_clean_sbu_0, # of connection points: 5
#     Node 2, Type 0, BuildingBlock: BEQFEK_clean_sbu_0, # of connection points: 5
#     Node 3, Type 0, BuildingBlock: BEQFEK_clean_sbu_0, # of connection points: 5
#     Node 4, Type 0, BuildingBlock: BEQFEK_clean_sbu_0, # of connection points: 5
#     Node 5, Type 0, BuildingBlock: BEQFEK_clean_sbu_0, # of connection points: 5
#     Node 6, Type 0, BuildingBlock: BEQFEK_clean_sbu_0, # of connection points: 5
#     Node 7, Type 0, BuildingBlock: BEQFEK_clean_sbu_0, # of connection points: 5
#     Node 8, Type 0, BuildingBlock: BEQFEK_clean_sbu_0, # of connection points: 5
#     Node 9, Type 0, BuildingBlock: BEQFEK_clean_sbu_0, # of connection points: 5
#     Node 10, Type 0, BuildingBlock: BEQFEK_clean_sbu_0, # of connection points: 5
#     Node 11, Type 0, BuildingBlock: BEQFEK_clean_sbu_0, # of connection points: 5
#     Node 12, Type 0, BuildingBlock: BEQFEK_clean_sbu_0, # of connection points: 5
#     Node 13, Type 0, BuildingBlock: BEQFEK_clean_sbu_0, # of connection points: 5
#     Node 14, Type 0, BuildingBlock: BEQFEK_clean_sbu_0, # of connection points: 5
#     Node 15, Type 0, BuildingBlock: BEQFEK_clean_sbu_0, # of connection points: 5
#     Edge 16, Type (0, 0), BuildingBlock: OJICUG_clean_linker_0, # of connection points: 2
#     Edge 17, Type (0, 0), BuildingBlock: OJICUG_clean_linker_0, # of connection points: 2
#     Edge 18, Type (0, 0), BuildingBlock: OJICUG_clean_linker_0, # of connection points: 2
#     Edge 19, Type (0, 0), BuildingBlock: OJICUG_clean_linker_0, # of connection points: 2
#     Edge 20, Type (0, 0), BuildingBlock: OJICUG_clean_linker_0, # of connection points: 2
#     Edge 21, Type (0, 0), BuildingBlock: OJICUG_clean_linker_0, # of connection points: 2
#     Edge 22, Type (0, 0), BuildingBlock: OJICUG_clean_linker_0, # of connection points: 2
#     Edge 23, Type (0, 0), BuildingBlock: OJICUG_clean_linker_0, # of connection points: 2
#     Edge 24, Type (0, 0), BuildingBlock: OJICUG_clean_linker_0, # of connection points: 2
#     Edge 25, Type (0, 0), BuildingBlock: OJICUG_clean_linker_0, # of connection points: 2
#     Edge 26, Type (0, 0), BuildingBlock: OJICUG_clean_linker_0, # of connection points: 2
#     Edge 27, Type (0, 0), BuildingBlock: OJICUG_clean_linker_0, # of connection points: 2
#     Edge 28, Type (0, 0), BuildingBlock: OJICUG_clean_linker_0, # of connection points: 2
#     Edge 29, Type (0, 0), BuildingBlock: OJICUG_clean_linker_0, # of connection points: 2
#     Edge 30, Type (0, 0), BuildingBlock: OJICUG_clean_linker_0, # of connection points: 2
#     Edge 31, Type (0, 0), BuildingBlock: OJICUG_clean_linker_0, # of connection points: 2
#     Edge 32, Type (0, 0), BuildingBlock: OJICUG_clean_linker_0, # of connection points: 2
#     Edge 33, Type (0, 0), BuildingBlock: OJICUG_clean_linker_0, # of connection points: 2
#     Edge 34, Type (0, 0), BuildingBlock: OJICUG_clean_linker_0, # of connection points: 2
#     Edge 35, Type (0, 0), BuildingBlock: OJICUG_clean_linker_0, # of connection points: 2
#     Edge 36, Type (0, 0), BuildingBlock: OJICUG_clean_linker_0, # of connection points: 2
#     Edge 37, Type (0, 0), BuildingBlock: OJICUG_clean_linker_0, # of connection points: 2
#     Edge 38, Type (0, 0), BuildingBlock: OJICUG_clean_linker_0, # of connection points: 2
#     Edge 39, Type (0, 0), BuildingBlock: OJICUG_clean_linker_0, # of connection points: 2
#     Edge 40, Type (0, 0), BuildingBlock: OJICUG_clean_linker_0, # of connection points: 2
#     Edge 41, Type (0, 0), BuildingBlock: OJICUG_clean_linker_0, # of connection points: 2
#     Edge 42, Type (0, 0), BuildingBlock: OJICUG_clean_linker_0, # of connection points: 2
#     Edge 43, Type (0, 0), BuildingBlock: OJICUG_clean_linker_0, # of connection points: 2
#     Edge 44, Type (0, 0), BuildingBlock: OJICUG_clean_linker_0, # of connection points: 2
#     Edge 45, Type (0, 0), BuildingBlock: OJICUG_clean_linker_0, # of connection points: 2
#     Edge 46, Type (0, 0), BuildingBlock: OJICUG_clean_linker_0, # of connection points: 2
#     Edge 47, Type (0, 0), BuildingBlock: OJICUG_clean_linker_0, # of connection points: 2
#     Edge 48, Type (0, 0), BuildingBlock: OJICUG_clean_linker_0, # of connection points: 2
#     Edge 49, Type (0, 0), BuildingBlock: OJICUG_clean_linker_0, # of connection points: 2
#     Edge 50, Type (0, 0), BuildingBlock: OJICUG_clean_linker_0, # of connection points: 2
#     Edge 51, Type (0, 0), BuildingBlock: OJICUG_clean_linker_0, # of connection points: 2
#     Edge 52, Type (0, 0), BuildingBlock: OJICUG_clean_linker_0, # of connection points: 2
#     Edge 53, Type (0, 0), BuildingBlock: OJICUG_clean_linker_0, # of connection points: 2
#     Edge 54, Type (0, 0), BuildingBlock: OJICUG_clean_linker_0, # of connection points: 2
#     Edge 55, Type (0, 0), BuildingBlock: OJICUG_clean_linker_0, # of connection points: 2
# Relax obj value: 0.647
# Max RMSD: 0.213
# Mean RMSD: 0.213
data_MOF--net-yfb--node1-BEQFEK_clean_sbu_0--edge1-OJICUG_clean_linker_0
_symmetry_space_group_name_H-M    P1
_symmetry_Int_Tables_number       1
_symmetry_cell_setting            triclinic
loop_
_symmetry_equiv_pos_as_xyz
'x, y, z'
_cell_length_a     36.384473
_cell_length_b     36.389694
_cell_length_c     32.062335
_cell_angle_alpha  89.992505
_cell_angle_beta   90.042437
_cell_angle_gamma 89.967107
loop_
_atom_site_label
_atom_site_type_symbol
_atom_site_fract_x
_atom_site_fract_y
_atom_site_fract_z
_atom_type_partial_charge
Co0 Co 0.71674 0.13666 0.13635 0.0
Co1 Co 0.67423 0.07372 0.09134 0.0
C2 C 0.64867 0.15394 0.09178 0.0
O3 O 0.67361 0.16403 0.11676 0.0
O4 O 0.64709 0.12074 0.07966 0.0
C5 C 0.72494 0.19096 0.19834 0.0
O6 O 0.68974 0.18461 0.2039 0.0
C7 C 0.60278 0.0414 0.07431 0.0
C8 C 0.61481 0.99518 0.03213 0.0
C9 C 0.58596 0.01548 0.04874 0.0
N10 N 0.63955 0.03728 0.07204 0.0
N11 N 0.64656 0.00926 0.04705 0.0
C12 C 0.58436 0.06943 0.10131 0.0
H13 H 0.60241 0.0768 0.12797 0.0
H14 H 0.55771 0.05884 0.11309 0.0
H15 H 0.57903 0.09466 0.08284 0.0
C16 C 0.72518 0.0823 0.20043 0.0
N17 N 0.70694 0.09384 0.16648 0.0
N18 N 0.68949 0.06614 0.14908 0.0
C19 C 0.69538 0.03582 0.17297 0.0
C20 C 0.71825 0.04523 0.2065 0.0
C21 C 0.75458 0.10472 0.22103 0.0
H22 H 0.77267 0.11686 0.19692 0.0
H23 H 0.74162 0.12712 0.23923 0.0
H24 H 0.77225 0.08856 0.24208 0.0
O25 O 0.74828 0.12266 0.08887 0.0
O26 O 0.71999 0.07664 0.05555 0.0
H27 H 0.70133 0.98902 0.13361 0.0
H28 H 0.68792 0.97824 0.18657 0.0
C29 C 0.68424 0.99792 0.16043 0.0
H30 H 0.65514 0.99808 0.15002 0.0
H31 H 0.67295 1.00091 0.03854 0.0
O32 O 0.74254 0.17262 0.17116 0.0
C33 C 0.74716 0.09874 0.0598 0.0
Co34 Co 0.38031 0.71656 0.13877 0.0
Co35 Co 0.44368 0.6738 0.09468 0.0
C36 C 0.36354 0.64799 0.09512 0.0
O37 O 0.35317 0.6731 0.11972 0.0
O38 O 0.39681 0.64646 0.08326 0.0
C39 C 0.32543 0.7258 0.20012 0.0
O40 O 0.33145 0.69063 0.20639 0.0
C41 C 0.47622 0.60231 0.07792 0.0
C42 C 0.52249 0.61445 0.0359 0.0
C43 C 0.50219 0.58555 0.05235 0.0
N44 N 0.4803 0.63909 0.07577 0.0
N45 N 0.50837 0.64615 0.05089 0.0
C46 C 0.44814 0.5838 0.10478 0.0
H47 H 0.44073 0.60175 0.13149 0.0
H48 H 0.45874 0.55711 0.11649 0.0
H49 H 0.42295 0.57854 0.08623 0.0
C50 C 0.43445 0.72571 0.20312 0.0
N51 N 0.42314 0.70724 0.16925 0.0
N52 N 0.45099 0.68968 0.15226 0.0
C53 C 0.48114 0.69575 0.17635 0.0
C54 C 0.4715 0.71885 0.20957 0.0
C55 C 0.41179 0.75513 0.22336 0.0
H56 H 0.38935 0.74219 0.24149 0.0
H57 H 0.4278 0.77293 0.24439 0.0
H58 H 0.3997 0.77308 0.19904 0.0
O59 O 0.39422 0.74751 0.09077 0.0
O60 O 0.44053 0.71911 0.05813 0.0
H61 H 0.53855 0.68798 0.19074 0.0
H62 H 0.51899 0.65539 0.15382 0.0
C63 C 0.51914 0.68446 0.16431 0.0
H64 H 0.52839 0.7016 0.13769 0.0
H65 H 0.51669 0.67256 0.04243 0.0
O66 O 0.34416 0.74287 0.17288 0.0
C67 C 0.41819 0.74616 0.0618 0.0
Co68 Co 0.80224 0.38013 0.13604 0.0
Co69 Co 0.84455 0.44329 0.09127 0.0
C70 C 0.87038 0.36313 0.09179 0.0
O71 O 0.84557 0.35294 0.11682 0.0
O72 O 0.87177 0.39633 0.07963 0.0
C73 C 0.7939 0.32581 0.198 0.0
O74 O 0.82908 0.33218 0.20377 0.0
C75 C 0.91593 0.47572 0.07484 0.0
C76 C 0.90409 0.52168 0.0322 0.0
C77 C 0.93286 0.50149 0.04921 0.0
N78 N 0.87918 0.47979 0.07221 0.0
N79 N 0.87227 0.50765 0.04696 0.0
C80 C 0.93422 0.44781 0.10217 0.0
H81 H 0.91603 0.44055 0.12871 0.0
H82 H 0.96081 0.45846 0.11412 0.0
H83 H 0.93967 0.4225 0.08391 0.0
C84 C 0.79333 0.43447 0.20009 0.0
N85 N 0.81171 0.42301 0.16624 0.0
N86 N 0.82901 0.45081 0.14888 0.0
C87 C 0.82282 0.48112 0.17265 0.0
C88 C 0.79994 0.4716 0.20609 0.0
C89 C 0.76412 0.41183 0.2207 0.0
H90 H 0.74602 0.39964 0.1966 0.0
H91 H 0.77726 0.38949 0.23885 0.0
H92 H 0.74643 0.42785 0.24183 0.0
O93 O 0.77094 0.39396 0.08818 0.0
O94 O 0.79905 0.44023 0.05514 0.0
H95 H 0.81658 0.52782 0.13315 0.0
H96 H 0.82981 0.53879 0.18613 0.0
C97 C 0.83369 0.51909 0.16005 0.0
H98 H 0.86281 0.51914 0.14976 0.0
H99 H 0.84592 0.5159 0.03812 0.0
O100 O 0.77639 0.3441 0.17067 0.0
C101 C 0.77206 0.41789 0.05912 0.0
Co102 Co 0.13645 0.80275 0.1338 0.0
Co103 Co 0.0728 0.84374 0.08815 0.0
C104 C 0.15234 0.87116 0.08909 0.0
O105 O 0.16269 0.84647 0.11426 0.0
O106 O 0.11919 0.87219 0.07655 0.0
C107 C 0.19086 0.7956 0.19626 0.0
O108 O 0.18443 0.83083 0.20149 0.0
C109 C 0.03526 0.91344 0.07475 0.0
C110 C 1.0 0.90165 1.02047 0.0
C111 C 0.01334 0.9304 0.04464 0.0
N112 N 0.03525 0.87683 0.06809 0.0
N113 N 0.01346 0.86994 0.03606 0.0
C114 C 0.05989 0.93184 0.10579 0.0
H115 H 0.07768 0.91152 0.12183 0.0
H116 H 0.04294 0.94558 0.1299 0.0
H117 H 0.07695 0.95301 0.09011 0.0
C118 C 0.08191 0.79314 0.19738 0.0
N119 N 0.09322 0.81159 0.16351 0.0
N120 N 0.06521 0.82841 0.14587 0.0
C121 C 0.0349 0.82185 0.1695 0.0
C122 C 0.04466 0.79923 0.20313 0.0
C123 C 0.10492 0.76429 0.2182 0.0
H124 H 0.11758 0.74641 0.19422 0.0
H125 H 0.12693 0.77777 0.23653 0.0
H126 H 0.08906 0.74633 0.23918 0.0
O127 O 0.12368 0.77077 0.08624 0.0
O128 O 0.07721 0.79801 0.05255 0.0
H129 H 0.98855 0.81498 0.1296 0.0
H130 H 0.97704 0.82783 0.18255 0.0
C131 C 0.99682 0.83213 0.15665 0.0
H132 H 0.99631 0.86128 0.14646 0.0
H133 H 0.01016 0.844 1.0227 0.0
O134 O 0.17277 0.7778 0.16903 0.0
C135 C 0.09995 0.77138 0.05695 0.0
Co136 Co 0.71566 0.38014 0.41295 0.0
Co137 Co 0.67335 0.44346 0.45761 0.0
C138 C 0.64741 0.36333 0.45696 0.0
O139 O 0.67222 0.35303 0.43195 0.0
O140 O 0.64611 0.39654 0.46911 0.0
C141 C 0.72476 0.32546 0.35132 0.0
O142 O 0.68955 0.33142 0.34522 0.0
C143 C 0.60188 0.47594 0.47401 0.0
C144 C 0.61372 0.52201 0.51647 0.0
C145 C 0.58494 0.5018 0.49957 0.0
N146 N 0.63864 0.48 0.47658 0.0
N147 N 0.64554 0.50793 0.50172 0.0
C148 C 0.58358 0.44799 0.44678 0.0
H149 H 0.60174 0.44067 0.42023 0.0
H150 H 0.55697 0.45863 0.43484 0.0
H151 H 0.57817 0.42272 0.46513 0.0
C152 C 0.72475 0.43447 0.34887 0.0
N153 N 0.70632 0.42306 0.38271 0.0
N154 N 0.68904 0.45093 0.40003 0.0
C155 C 0.69532 0.48122 0.37626 0.0
C156 C 0.71822 0.47162 0.34286 0.0
C157 C 0.75389 0.41173 0.32825 0.0
H158 H 0.77206 0.3996 0.35235 0.0
H159 H 0.7407 0.38933 0.31027 0.0
H160 H 0.77152 0.42766 0.30699 0.0
O161 O 0.74677 0.39391 0.46096 0.0
O162 O 0.71876 0.4403 0.4939 0.0
H163 H 0.68838 0.53888 0.36272 0.0
H164 H 0.6554 0.51934 0.39916 0.0
C165 C 0.6845 0.51922 0.38883 0.0
H166 H 0.70166 0.52793 0.4157 0.0
H167 H 0.67189 0.5162 0.5105 0.0
O168 O 0.74189 0.34409 0.37862 0.0
C169 C 0.74568 0.41784 0.49 0.0
Co170 Co 0.13628 0.71619 0.411 0.0
Co171 Co 0.07313 0.67358 0.45561 0.0
C172 C 0.15347 0.64817 0.45556 0.0
O173 O 0.1637 0.67309 0.43064 0.0
O174 O 0.1202 0.64662 0.46745 0.0
C175 C 0.19148 0.7255 0.34994 0.0
O176 O 0.18596 0.69021 0.34397 0.0
C177 C 0.04103 0.60194 0.47255 0.0
C178 C 0.99458 0.61387 0.51441 0.0
C179 C 0.01508 0.58506 0.49803 0.0
N180 N 0.03674 0.63871 0.47469 0.0
N181 N 0.00859 0.64564 0.49948 0.0
C182 C 0.06927 0.58358 0.44576 0.0
H183 H 0.07666 0.60159 0.41911 0.0
H184 H 0.05884 0.55686 0.43398 0.0
H185 H 0.09444 0.5784 0.4644 0.0
C186 C 0.08223 0.72439 0.34644 0.0
N187 N 0.09362 0.70624 0.38052 0.0
N188 N 0.0658 0.68889 0.39782 0.0
C189 C 0.03557 0.69485 0.37381 0.0
C190 C 0.04514 0.7176 0.34025 0.0
C191 C 0.10481 0.75362 0.32581 0.0
H192 H 0.11664 0.77199 0.34988 0.0
H193 H 0.12744 0.74054 0.30809 0.0
H194 H 0.08881 0.77104 0.30434 0.0
O195 O 0.12188 0.74759 0.45846 0.0
O196 O 0.07575 0.71932 0.49152 0.0
H197 H 0.98864 0.70125 0.41287 0.0
H198 H 0.978 0.68749 0.35998 0.0
C199 C 0.99758 0.68392 0.38625 0.0
H200 H 0.9976 0.65491 0.39692 0.0
H201 H 1.00008 0.67201 0.50788 0.0
O202 O 0.17232 0.74255 0.37682 0.0
C203 C 0.09785 0.7465 0.48739 0.0
Co204 Co 0.80206 0.13599 0.41382 0.0
Co205 Co 0.843 0.07237 0.45951 0.0
C206 C 0.87014 0.15201 0.45931 0.0
O207 O 0.84548 0.16239 0.43409 0.0
O208 O 0.87127 0.11881 0.47161 0.0
C209 C 0.79494 0.191 0.35203 0.0
O210 O 0.83026 0.18491 0.34703 0.0
C211 C 0.91274 0.03496 0.47325 0.0
C212 C 0.90071 0.99938 0.52716 0.0
C213 C 0.92958 0.0129 0.50333 0.0
N214 N 0.87609 0.03484 0.47963 0.0
N215 N 0.86906 0.01287 0.51143 0.0
C216 C 0.93128 0.05976 0.44253 0.0
H217 H 0.91102 0.0776 0.42647 0.0
H218 H 0.94517 0.04295 0.4184 0.0
H219 H 0.95234 0.07676 0.45849 0.0
C220 C 0.79335 0.08179 0.34969 0.0
N221 N 0.81147 0.09301 0.38385 0.0
N222 N 0.82813 0.06497 0.40159 0.0
C223 C 0.82173 0.0347 0.37781 0.0
C224 C 0.79943 0.04453 0.34393 0.0
C225 C 0.7647 0.10484 0.32859 0.0
H226 H 0.74641 0.1172 0.35238 0.0
H227 H 0.77835 0.12707 0.31079 0.0
H228 H 0.74712 0.08907 0.3071 0.0
O229 O 0.76965 0.12266 0.46079 0.0
O230 O 0.79694 0.07634 0.49463 0.0
H231 H 0.81445 0.98841 0.41767 0.0
H232 H 0.82754 0.97681 0.36482 0.0
C233 C 0.83178 0.99658 0.39075 0.0
H234 H 0.86087 0.99596 0.40116 0.0
H235 H 0.84305 0.00944 0.52454 0.0
O236 O 0.7771 0.1724 0.37874 0.0
C237 C 0.77013 0.09883 0.48996 0.0
Co238 Co 0.38023 0.80378 0.4162 0.0
Co239 Co 0.44387 0.84455 0.462 0.0
C240 C 0.36418 0.87176 0.46153 0.0
O241 O 0.35386 0.84734 0.43602 0.0
O242 O 0.39733 0.87269 0.47406 0.0
C243 C 0.32546 0.79646 0.35409 0.0
O244 O 0.33145 0.83177 0.34899 0.0
C245 C 0.48117 0.91434 0.47536 0.0
C246 C 0.5167 0.90261 0.52945 0.0
C247 C 0.50319 0.93133 0.50535 0.0
N248 N 0.48131 0.87773 0.48203 0.0
N249 N 0.50324 0.87087 0.51395 0.0
C250 C 0.45638 0.9327 0.44444 0.0
H251 H 0.43846 0.91238 0.42864 0.0
H252 H 0.4732 0.94633 0.42014 0.0
H253 H 0.43944 0.95397 0.46017 0.0
C254 C 0.43459 0.79472 0.35229 0.0
N255 N 0.42333 0.81291 0.38637 0.0
N256 N 0.45137 0.82949 0.40418 0.0
C257 C 0.48169 0.82293 0.38055 0.0
C258 C 0.47188 0.80064 0.34668 0.0
C259 C 0.41152 0.76618 0.33109 0.0
H260 H 0.39902 0.74793 0.35482 0.0
H261 H 0.38941 0.77991 0.31313 0.0
H262 H 0.42732 0.74853 0.30971 0.0
O263 O 0.3933 0.77165 0.4636 0.0
O264 O 0.43982 0.79869 0.49734 0.0
H265 H 0.52784 0.81549 0.42064 0.0
H266 H 0.53964 0.82846 0.36781 0.0
C267 C 0.51981 0.83282 0.39364 0.0
H268 H 0.52049 0.86192 0.40397 0.0
H269 H 0.50668 0.84494 0.52728 0.0
O270 O 0.34392 0.77873 0.38108 0.0
C271 C 0.41711 0.77209 0.49283 0.0
Co272 Co 0.30243 0.87923 0.91292 0.0
Co273 Co 0.34415 0.94288 0.95747 0.0
C274 C 0.37022 0.8628 0.9583 0.0
O275 O 0.34563 0.85233 0.9331 0.0
O276 O 0.37142 0.89611 0.97009 0.0
C277 C 0.29518 0.82465 0.85115 0.0
O278 O 0.3303 0.83149 0.8457 0.0
C279 C 0.41542 0.97556 0.9741 0.0
C280 C 0.40337 0.02177 1.01628 0.0
C281 C 0.43224 1.00152 0.99961 0.0
N282 N 0.37865 0.97959 0.97647 0.0
N283 N 0.37162 1.00761 1.00145 0.0
C284 C 0.43384 0.9475 0.94712 0.0
H285 H 0.41572 0.94 0.92056 0.0
H286 H 0.46042 0.95813 0.9352 0.0
H287 H 0.4393 0.92233 0.96565 0.0
C288 C 0.29328 0.93307 0.84858 0.0
N289 N 0.31196 0.92186 0.88236 0.0
N290 N 0.32908 0.94987 0.89956 0.0
C291 C 0.32256 0.98004 0.87565 0.0
C292 C 0.29966 0.97021 0.8423 0.0
C293 C 0.26355 0.91042 0.82891 0.0
H294 H 0.2462 0.89807 0.85358 0.0
H295 H 0.27619 0.8882 0.81015 0.0
H296 H 0.24512 0.92651 0.80864 0.0
O297 O 0.27049 0.8935 0.95998 0.0
O298 O 0.29818 0.94013 0.99288 0.0
H299 H 0.32906 0.03771 0.86194 0.0
H300 H 0.36192 0.01858 0.89889 0.0
C301 C 0.33291 0.01817 0.88819 0.0
H302 H 0.31543 0.02683 0.91479 0.0
H303 H 0.34523 0.01588 1.01006 0.0
O304 O 0.27725 0.84274 0.87825 0.0
C305 C 0.27121 0.91777 0.98869 0.0
Co306 Co 0.63735 0.30179 0.91313 0.0
Co307 Co 0.5743 0.34415 0.95832 0.0
C308 C 0.65446 0.36995 0.95726 0.0
O309 O 0.66461 0.34512 0.93219 0.0
O310 O 0.62131 0.37133 0.96957 0.0
C311 C 0.69189 0.29279 0.85129 0.0
O312 O 0.68605 0.32805 0.84543 0.0
C313 C 0.54193 0.41557 0.97591 0.0
C314 C 0.49577 0.40324 1.01803 0.0
C315 C 0.51604 0.43221 1.00169 0.0
N316 N 0.53783 0.37879 0.97783 0.0
N317 N 0.50985 0.3716 1.00278 0.0
C318 C 0.56991 0.43421 0.94904 0.0
H319 H 0.57722 0.4164 0.92218 0.0
H320 H 0.55929 0.46097 0.93757 0.0
H321 H 0.59517 0.43936 0.96752 0.0
C322 C 0.58276 0.29314 0.8492 0.0
N323 N 0.5943 0.31134 0.88316 0.0
N324 N 0.56654 0.32862 0.90069 0.0
C325 C 0.53617 0.32256 0.87694 0.0
C326 C 0.54561 0.29982 0.84333 0.0
C327 C 0.60537 0.26407 0.82828 0.0
H328 H 0.61758 0.24577 0.85218 0.0
H329 H 0.6277 0.2773 0.81026 0.0
H330 H 0.58929 0.24657 0.80699 0.0
O331 O 0.62378 0.27056 0.96107 0.0
O332 O 0.57765 0.29863 0.99442 0.0
H333 H 0.48944 0.3161 0.91628 0.0
H334 H 0.47853 0.32993 0.86349 0.0
C335 C 0.49823 0.33346 0.88964 0.0
H336 H 0.49826 0.36246 0.90035 0.0
H337 H 0.50153 0.34516 1.01107 0.0
O338 O 0.67322 0.27561 0.8785 0.0
C339 C 0.60002 0.27165 0.99028 0.0
Co340 Co 0.21839 0.63556 0.91416 0.0
Co341 Co 0.17518 0.57294 0.95892 0.0
C342 C 0.1496 0.65309 0.9571 0.0
O343 O 0.17492 0.66303 0.93257 0.0
O344 O 0.14781 0.61998 0.96948 0.0
C345 C 0.2273 0.6893 0.85181 0.0
O346 O 0.19219 0.68277 0.84575 0.0
C347 C 0.10368 0.5406 0.97531 0.0
C348 C 0.11549 0.49472 1.01809 0.0
C349 C 0.08673 0.51486 1.00098 0.0
N350 N 0.14043 0.53656 0.97802 0.0
N351 N 0.14731 0.50874 1.00335 0.0
C352 C 0.08539 0.56841 0.94785 0.0
H353 H 0.10358 0.57556 0.92127 0.0
H354 H 0.05881 0.5577 0.93595 0.0
H355 H 0.07993 0.59377 0.96599 0.0
C356 C 0.22727 0.58075 0.85045 0.0
N357 N 0.20905 0.59246 0.88431 0.0
N358 N 0.19123 0.56494 0.90157 0.0
C359 C 0.19687 0.53458 0.87771 0.0
C360 C 0.22003 0.54375 0.84438 0.0
C361 C 0.25637 0.60319 0.82938 0.0
H362 H 0.27481 0.61532 0.85319 0.0
H363 H 0.24313 0.6256 0.81146 0.0
H364 H 0.27366 0.5871 0.80787 0.0
O365 O 0.24909 0.62216 0.96261 0.0
O366 O 0.22028 0.57639 0.99574 0.0
H367 H 0.18876 0.47712 0.86386 0.0
H368 H 0.15562 0.49747 0.89956 0.0
C369 C 0.1849 0.49685 0.88991 0.0
H370 H 0.20132 0.48766 0.91718 0.0
H371 H 0.17366 0.50051 1.01225 0.0
O372 O 0.24466 0.67122 0.87944 0.0
C373 C 0.24743 0.59856 0.99197 0.0
Co374 Co 0.88113 0.21432 0.9136 0.0
Co375 Co 0.9449 0.17287 0.95848 0.0
C376 C 0.86522 0.14587 0.95831 0.0
O377 O 0.85478 0.17071 0.93337 0.0
O378 O 0.89847 0.1446 0.97044 0.0
C379 C 0.82608 0.22208 0.85188 0.0
O380 O 0.83213 0.18681 0.8464 0.0
C381 C 0.98224 0.10298 0.97147 0.0
C382 C 0.01801 0.11464 0.02536 0.0
C383 C 1.00434 0.08595 1.00135 0.0
N384 N 0.98246 0.13959 0.97812 0.0
N385 N 1.00456 0.1464 1.0099 0.0
C386 C 0.95726 0.08465 0.94075 0.0
H387 H 0.93952 0.10505 0.92476 0.0
H388 H 0.97392 0.07065 0.91658 0.0
H389 H 0.94014 0.06369 0.95671 0.0
C390 C 0.93522 0.22371 0.84946 0.0
N391 N 0.92407 0.20526 0.8834 0.0
N392 N 0.95212 0.18825 0.90072 0.0
C393 C 0.98228 0.19468 0.87681 0.0
C394 C 0.9724 0.21742 0.84333 0.0
C395 C 0.91223 0.25275 0.82897 0.0
H396 H 0.89988 0.27065 0.85315 0.0
H397 H 0.88998 0.23945 0.81085 0.0
H398 H 0.92804 0.27067 0.80791 0.0
O399 O 0.89451 0.24617 0.96104 0.0
O400 O 0.94102 0.21856 0.99424 0.0
H401 H 0.02896 0.20123 0.91629 0.0
H402 H 0.04002 0.18842 0.86321 0.0
C403 C 0.02041 0.18418 0.88929 0.0
H404 H 0.02083 0.15501 0.89939 0.0
H405 H 1.00808 0.17233 1.0232 0.0
O406 O 0.84467 0.23962 0.87888 0.0
C407 C 0.91845 0.24536 0.9901 0.0
Co408 Co 0.29957 0.6359 0.63599 0.0
Co409 Co 0.34256 0.57332 0.59071 0.0
C410 C 0.368 0.65357 0.59267 0.0
O411 O 0.34292 0.66348 0.61755 0.0
O412 O 0.36964 0.62049 0.58012 0.0
C413 C 0.28963 0.69022 0.69789 0.0
O414 O 0.32492 0.68474 0.70401 0.0
C415 C 0.4142 0.54121 0.57382 0.0
C416 C 0.40235 0.49514 0.53135 0.0
C417 C 0.43112 0.5154 0.54817 0.0
N418 N 0.37744 0.53706 0.57137 0.0
N419 N 0.37054 0.50914 0.54621 0.0
C420 C 0.43252 0.56913 0.60106 0.0
H421 H 0.41443 0.57631 0.62773 0.0
H422 H 0.45919 0.55853 0.61284 0.0
H423 H 0.43778 0.59446 0.58278 0.0
C424 C 0.29128 0.58102 0.69977 0.0
N425 N 0.30922 0.59277 0.66575 0.0
N426 N 0.32673 0.56519 0.64812 0.0
C427 C 0.32103 0.53474 0.6718 0.0
C428 C 0.29825 0.54391 0.70546 0.0
C429 C 0.26259 0.60357 0.72142 0.0
H430 H 0.24362 0.61552 0.698 0.0
H431 H 0.27615 0.62611 0.73879 0.0
H432 H 0.2458 0.58759 0.7435 0.0
O433 O 0.26881 0.62244 0.58759 0.0
O434 O 0.29733 0.57667 0.55413 0.0
H435 H 0.31567 0.48813 0.63202 0.0
H436 H 0.32874 0.47711 0.68506 0.0
C437 C 0.33249 0.49696 0.65911 0.0
H438 H 0.36167 0.49733 0.64903 0.0
H439 H 0.34418 0.50079 0.53756 0.0
O440 O 0.27279 0.67138 0.67052 0.0
C441 C 0.27023 0.5989 0.55817 0.0
Co442 Co 0.88017 0.3013 0.63661 0.0
Co443 Co 0.94328 0.34333 0.59124 0.0
C444 C 0.86309 0.3692 0.59187 0.0
O445 O 0.8529 0.34449 0.61707 0.0
O446 O 0.89626 0.37048 0.57962 0.0
C447 C 0.82548 0.29272 0.69834 0.0
O448 O 0.83139 0.32798 0.70403 0.0
C449 C 0.97556 0.41477 0.57377 0.0
C450 C 0.0217 0.40258 0.53156 0.0
C451 C 1.00142 0.4315 0.54803 0.0
N452 N 0.9797 0.37799 0.57171 0.0
N453 N 1.00768 0.37089 0.54671 0.0
C454 C 0.94757 0.43332 0.60072 0.0
H455 H 0.94027 0.41541 0.62749 0.0
H456 H 0.95817 0.46003 0.61232 0.0
H457 H 0.9223 0.43855 0.58226 0.0
C458 C 0.93461 0.29285 0.70062 0.0
N459 N 0.9231 0.31105 0.66664 0.0
N460 N 0.95092 0.32815 0.64902 0.0
C461 C 0.98129 0.32197 0.67273 0.0
C462 C 0.97179 0.29936 0.70642 0.0
C463 C 0.912 0.26374 0.72144 0.0
H464 H 0.89986 0.24548 0.69746 0.0
H465 H 0.88962 0.27694 0.73943 0.0
H466 H 0.92806 0.24618 0.74269 0.0
O467 O 0.89404 0.26967 0.58913 0.0
O468 O 0.94018 0.29749 0.55558 0.0
H469 H 0.02787 0.31501 0.63325 0.0
H470 H 0.03902 0.32891 0.68595 0.0
C471 C 0.01927 0.33253 0.65985 0.0
H472 H 0.01941 0.36149 0.64902 0.0
H473 H 0.01603 0.34447 0.53832 0.0
O474 O 0.84418 0.27537 0.6713 0.0
C475 C 0.9179 0.27049 0.56002 0.0
Co476 Co 0.21166 0.8798 0.63673 0.0
Co477 Co 0.17142 0.94394 0.59131 0.0
C478 C 0.14416 0.86428 0.59011 0.0
O479 O 0.16841 0.85364 0.61569 0.0
O480 O 0.14332 0.89758 0.57814 0.0
C481 C 0.21836 0.82414 0.69796 0.0
O482 O 0.183 0.83006 0.70276 0.0
C483 C 0.10172 0.98138 0.5777 0.0
C484 C 0.11379 0.01733 0.52413 0.0
C485 C 0.08491 1.00361 0.54779 0.0
N486 N 0.13838 0.9816 0.57142 0.0
N487 N 0.14543 1.00378 0.53982 0.0
C488 C 0.08316 0.95628 0.60809 0.0
H489 H 0.10341 0.93831 0.62398 0.0
H490 H 0.06918 0.97285 0.63237 0.0
H491 H 0.06215 0.93939 0.59187 0.0
C492 C 0.22047 0.93345 0.70128 0.0
N493 N 0.20213 0.92251 0.66715 0.0
N494 N 0.18588 0.95081 0.64944 0.0
C495 C 0.19281 0.98097 0.67319 0.0
C496 C 0.21494 0.97079 0.70709 0.0
C497 C 0.2493 0.91021 0.72179 0.0
H498 H 0.2672 0.89784 0.69764 0.0
H499 H 0.23583 0.88801 0.73982 0.0
H500 H 0.26731 0.92589 0.74288 0.0
O501 O 0.24454 0.89363 0.59032 0.0
O502 O 0.21779 0.94042 0.55675 0.0
H503 H 0.20162 0.02707 0.63344 0.0
H504 H 0.18801 0.03897 0.68602 0.0
C505 C 0.18373 0.01927 0.66003 0.0
H506 H 0.1548 0.02049 0.64909 0.0
H507 H 0.17147 1.00733 0.52679 0.0
O508 O 0.2363 0.843 0.67157 0.0
C509 C 0.24448 0.91782 0.56151 0.0
Co510 Co 0.63593 0.21506 0.63554 0.0
Co511 Co 0.57203 0.17379 0.59076 0.0
C512 C 0.65168 0.14659 0.59085 0.0
O513 O 0.66218 0.17134 0.61584 0.0
O514 O 0.61843 0.14545 0.57871 0.0
C515 C 0.69099 0.22269 0.6972 0.0
O516 O 0.68482 0.18746 0.70271 0.0
C517 C 0.5346 0.10397 0.578 0.0
C518 C 0.49873 0.11562 0.52418 0.0
C519 C 0.51242 0.08694 0.54822 0.0
N520 N 0.53441 0.14057 0.57126 0.0
N521 N 0.51226 0.14738 0.53952 0.0
C522 C 0.55961 0.08565 0.60873 0.0
H523 H 0.57745 0.10602 0.62456 0.0
H524 H 0.54297 0.0718 0.63302 0.0
H525 H 0.57663 0.06456 0.59281 0.0
C526 C 0.58193 0.22456 0.69982 0.0
N527 N 0.593 0.20617 0.6658 0.0
N528 N 0.56491 0.18926 0.64851 0.0
C529 C 0.53479 0.19572 0.67249 0.0
C530 C 0.54475 0.21837 0.706 0.0
C531 C 0.60504 0.25338 0.7205 0.0
H532 H 0.62727 0.23987 0.73849 0.0
H533 H 0.58932 0.27122 0.74175 0.0
H534 H 0.61742 0.27138 0.69644 0.0
O535 O 0.6226 0.24685 0.58798 0.0
O536 O 0.57597 0.2194 0.5549 0.0
H537 H 0.48809 0.20226 0.63301 0.0
H538 H 0.47705 0.18967 0.68618 0.0
C539 C 0.49664 0.18528 0.6601 0.0
H540 H 0.49616 0.15608 0.65014 0.0
H541 H 0.50874 0.1733 0.52616 0.0
O542 O 0.67246 0.2403 0.67017 0.0
C543 C 0.59864 0.24609 0.55893 0.0
C544 C 0.7202 0.01906 0.27808 0.0
C545 C 0.73688 0.0223 0.23877 0.0
H546 H 0.72823 0.02117 0.34432 0.0
C547 C 0.77523 0.01754 0.23618 0.0
H548 H 0.69077 0.02271 0.28113 0.0
C549 C 0.79685 0.01803 0.27254 0.0
C550 C 0.78026 0.0219 0.31184 0.0
H551 H 0.78885 0.02002 0.20627 0.0
H552 H 0.82636 0.02089 0.26945 0.0
C553 C 0.7418 0.01816 0.31445 0.0
C554 C 0.49839 0.79774 0.27533 0.0
C555 C 0.49453 0.78131 0.31473 0.0
H556 H 0.49645 0.78951 0.20913 0.0
C557 C 0.49823 0.74286 0.31757 0.0
H558 H 0.49553 0.82724 0.27209 0.0
C559 C 0.49738 0.72111 0.28133 0.0
C560 C 0.4942 0.73765 0.2419 0.0
H561 H 0.49521 0.72942 0.34753 0.0
H562 H 0.49376 0.6917 0.28455 0.0
C563 C 0.49891 0.77598 0.2391 0.0
C564 C 0.77567 0.4986 0.31376 0.0
C565 C 0.73727 0.49444 0.31086 0.0
H566 H 0.8269 0.49459 0.28087 0.0
C567 C 0.72082 0.49812 0.27144 0.0
H568 H 0.78912 0.49578 0.34376 0.0
C569 C 0.7426 0.49882 0.23524 0.0
C570 C 0.78098 0.49445 0.23813 0.0
H571 H 0.69135 0.49495 0.26815 0.0
H572 H 0.72913 0.49616 0.20525 0.0
C573 C 0.79745 0.49792 0.27757 0.0
C574 C 0.01897 0.71989 0.26865 0.0
C575 C 0.02231 0.73644 0.30804 0.0
H576 H 0.02102 0.72812 0.20244 0.0
C577 C 0.01775 0.77479 0.31081 0.0
H578 H 0.02248 0.69046 0.26546 0.0
C579 C 0.01827 0.79652 0.27455 0.0
C580 C 0.022 0.78004 0.23517 0.0
H581 H 0.02032 0.78832 0.34077 0.0
H582 H 0.02126 0.82601 0.27776 0.0
C583 C 0.01811 0.74161 0.23238 0.0
C584 C 0.29587 0.99592 0.77057 0.0
C585 C 0.28016 0.99286 0.81042 0.0
H586 H 0.28624 0.99374 0.7046 0.0
C587 C 0.24188 0.99759 0.81418 0.0
H588 H 0.32521 0.99225 0.76662 0.0
C589 C 0.21939 0.99706 0.7785 0.0
C590 C 0.23501 0.99321 0.73868 0.0
H591 H 0.22899 0.99519 0.84451 0.0
H592 H 0.18996 0.99426 0.7825 0.0
C593 C 0.2734 0.9968 0.73488 0.0
C594 C 0.51827 0.24264 0.81393 0.0
C595 C 0.5227 0.28101 0.81121 0.0
H596 H 0.52182 0.19147 0.78081 0.0
C597 C 0.51918 0.2976 0.77185 0.0
H598 H 0.52099 0.22909 0.84387 0.0
C599 C 0.51829 0.27593 0.73555 0.0
C600 C 0.52228 0.2375 0.73827 0.0
H601 H 0.52259 0.32704 0.76868 0.0
H602 H 0.52104 0.28946 0.70562 0.0
C603 C 0.51874 0.22096 0.77764 0.0
C604 C 0.29739 0.51688 0.77663 0.0
C605 C 0.27999 0.52082 0.73778 0.0
H606 H 0.29069 0.51869 0.84305 0.0
C607 C 0.24152 0.51671 0.73605 0.0
H608 H 0.32693 0.51995 0.77902 0.0
C609 C 0.22062 0.51736 0.7729 0.0
C610 C 0.23807 0.52075 0.8118 0.0
H611 H 0.22736 0.51968 0.7065 0.0
H612 H 0.19112 0.52081 0.77054 0.0
C613 C 0.27648 0.51615 0.81348 0.0
C614 C 0.99849 0.22017 0.77175 0.0
C615 C 0.99496 0.23659 0.81119 0.0
H616 H 0.99629 0.22851 0.70556 0.0
C617 C 0.99906 0.27499 0.81406 0.0
H618 H 0.99534 0.19071 0.76848 0.0
C619 C 0.99825 0.29679 0.77786 0.0
C620 C 0.9947 0.28035 0.73843 0.0
H621 H 0.99634 0.28842 0.84406 0.0
H622 H 0.9949 0.32623 0.78116 0.0
C623 C 0.99905 0.24197 0.73554 0.0
C624 C 0.49437 0.97381 1.01622 0.0
C625 C 0.47181 1.005 1.01139 0.0
H626 H 0.54778 0.95274 0.03182 0.0
C627 C 0.48697 0.0397 1.0199 0.0
H628 H 0.48348 0.94649 1.01165 0.0
C629 C 0.52384 0.04321 0.03212 0.0
C630 C 0.54639 0.01202 0.03695 0.0
H631 H 0.47042 0.06428 1.01652 0.0
H632 H 0.53473 0.07052 0.03671 0.0
C633 C 0.53123 0.97732 0.02844 0.0
C634 C 0.5438 0.49416 1.01889 0.0
C635 C 0.5126 0.47168 1.01392 0.0
H636 H 0.5649 0.54741 0.03497 0.0
C637 C 0.47792 0.48679 1.02272 0.0
H638 H 0.57111 0.48329 1.0141 0.0
C639 C 0.47443 0.52355 0.03533 0.0
C640 C 0.50563 0.54604 0.04028 0.0
H641 H 0.45333 0.4703 1.01924 0.0
H642 H 0.44712 0.53441 0.04009 0.0
C643 C 0.54031 0.53092 0.03151 0.0
C644 C 0.03186 0.47691 1.02114 0.0
C645 C 0.04712 0.51153 1.01249 0.0
H646 H 0.98398 0.44628 0.03784 0.0
C647 C 0.02462 0.5428 1.01695 0.0
H648 H 0.04837 0.45228 1.01803 0.0
C649 C 0.98772 0.53944 0.02897 0.0
C650 C 0.97246 0.50482 0.03763 0.0
H651 H 0.0356 0.57007 1.01224 0.0
H652 H 0.97121 0.56407 0.03208 0.0
C653 C 0.99496 0.47355 0.03315 0.0
C654 C 1.00782 0.01874 0.98108 0.0
C655 C 1.007 0.04605 1.01206 0.0
H656 H 0.0103 0.96118 0.9671 0.0
C657 C 1.00822 0.03495 0.05411 0.0
H658 H 1.0081 0.02605 0.94843 0.0
C659 C 0.00972 0.99761 0.0649 0.0
C660 C 0.01058 0.97029 0.03392 0.0
H661 H 1.00726 0.05518 0.07888 0.0
H662 H 0.00942 0.99032 0.09755 0.0
C663 C 0.00934 0.9814 0.99186 0.0
C664 C 0.48595 0.47738 0.52786 0.0
C665 C 0.47071 0.51203 0.53652 0.0
H666 H 0.53379 0.44667 0.51107 0.0
C667 C 0.49321 0.54326 0.53196 0.0
H668 H 0.46945 0.45277 0.53104 0.0
C669 C 0.5301 0.53984 0.51985 0.0
C670 C 0.54534 0.50519 0.51119 0.0
H671 H 0.48226 0.57055 0.53667 0.0
H672 H 0.54661 0.56444 0.51668 0.0
C673 C 0.52284 0.47396 0.51575 0.0
C674 C 0.03948 0.48617 0.52723 0.0
C675 C 1.00482 0.47102 0.53597 0.0
H676 H 0.07022 0.53386 0.51007 0.0
C677 C 0.97359 0.49353 0.53111 0.0
H678 H 0.06409 0.46966 0.53062 0.0
C679 C 0.97704 0.53033 0.51867 0.0
C680 C 0.0117 0.5455 0.50995 0.0
H681 H 0.9463 0.48265 0.53587 0.0
H682 H 0.95242 0.54684 0.51529 0.0
C683 C 0.04292 0.52298 0.51479 0.0
C684 C 0.9803 0.00863 0.55647 0.0
C685 C 0.96942 0.01012 0.51433 0.0
H686 H 0.0247 1.00711 0.60025 0.0
C687 C 0.99693 0.00946 0.48357 0.0
H688 H 0.95994 0.00944 0.58108 0.0
C689 C 0.03421 1.00788 0.49464 0.0
C690 C 0.04508 1.00639 0.53677 0.0
H691 H 0.98982 0.00936 0.45086 0.0
H692 H 0.05458 1.00707 0.47003 0.0
C693 C 0.01758 1.00704 0.56754 0.0
C694 C 0.50668 0.99851 0.48492 0.0
C695 C 0.50597 0.97124 0.51596 0.0
H696 H 0.50908 0.05604 0.47079 0.0
C697 C 0.50742 0.9824 0.55798 0.0
H698 H 0.50681 0.99117 0.45228 0.0
C699 C 0.50899 0.01976 0.56868 0.0
C700 C 0.50967 0.04703 0.53763 0.0
H701 H 0.50657 0.96222 0.5828 0.0
H702 H 0.50887 0.02711 0.60131 0.0
C703 C 0.50824 0.03586 0.49561 0.0
C704 C 0.59942 0.20487 1.00594 0.0
C705 C 0.60089 0.2412 1.02062 0.0
H706 H 0.61202 0.14838 1.01769 0.0
C707 C 0.61185 0.24769 0.06191 0.0
H708 H 0.59141 0.1993 0.974 0.0
C709 C 0.62459 0.21861 0.08675 0.0
C710 C 0.62605 0.18253 0.07082 0.0
H711 H 0.61375 0.27554 0.07366 0.0
H712 H 0.63562 0.22476 0.11736 0.0
C713 C 0.61133 0.17573 0.031 0.0
C714 C 0.27015 0.61118 0.06391 0.0
C715 C 0.27733 0.59952 1.02302 0.0
H716 H 0.2922 0.63571 0.11936 0.0
C717 C 0.3139 0.59753 1.00927 0.0
H718 H 0.2421 0.61348 0.07493 0.0
C719 C 0.34265 0.60966 0.03476 0.0
C720 C 0.33522 0.62512 0.07407 0.0
H721 H 0.32 0.58898 0.97765 0.0
H722 H 0.37025 0.60995 1.02209 0.0
C723 C 0.29886 0.62413 0.08917 0.0
C724 C 0.90731 0.2695 0.06178 0.0
C725 C 0.91764 0.27593 1.02028 0.0
H726 H 0.8842 0.29248 0.11751 0.0
C727 C 0.91872 0.31221 1.00542 0.0
H728 H 0.90575 0.24168 0.07368 0.0
C729 C 0.90704 0.34137 0.03057 0.0
C730 C 0.89293 0.33462 0.07065 0.0
H731 H 0.92627 0.31773 0.97333 0.0
H732 H 0.90602 0.36868 1.01715 0.0
C733 C 0.89477 0.2986 0.0867 0.0
C734 C 0.24603 0.90837 0.06024 0.0
C735 C 0.24021 0.91767 1.0183 0.0
H736 H 0.22229 0.88635 0.11612 0.0
C737 C 0.20414 0.91829 1.00268 0.0
H738 H 0.27367 0.90718 0.07276 0.0
C739 C 0.17465 0.907 0.02753 0.0
C740 C 0.18085 0.89379 0.06813 0.0
H741 H 0.19909 0.92506 0.97026 0.0
H742 H 0.14758 0.90545 1.01355 0.0
C743 C 0.2166 0.89625 0.0849 0.0
C744 C 0.61038 0.3419 0.51803 0.0
C745 C 0.62473 0.33495 0.47809 0.0
H746 H 0.59078 0.31854 0.57524 0.0
C747 C 0.62292 0.29887 0.46222 0.0
H748 H 0.61136 0.36926 0.53129 0.0
C749 C 0.61019 0.26991 0.48721 0.0
C750 C 0.59962 0.27653 0.52859 0.0
H751 H 0.63367 0.2926 0.43153 0.0
H752 H 0.61179 0.24204 0.47547 0.0
C753 C 0.5985 0.31287 0.54324 0.0
C754 C 0.21815 0.62418 0.46125 0.0
C755 C 0.1819 0.62548 0.4767 0.0
H756 H 0.27496 0.61327 0.47499 0.0
C757 C 0.17472 0.61043 0.51625 0.0
H758 H 0.2246 0.63545 0.43085 0.0
C759 C 0.20362 0.59833 0.54158 0.0
C760 C 0.24009 0.59994 0.52742 0.0
H761 H 0.14722 0.61097 0.52919 0.0
H762 H 0.19772 0.59005 0.57335 0.0
C763 C 0.24699 0.61125 0.48634 0.0
C764 C 0.89524 0.21627 0.46376 0.0
C765 C 0.8928 0.18048 0.48037 0.0
H766 H 0.90653 0.27325 0.47605 0.0
C767 C 0.9063 0.1741 0.52082 0.0
H768 H 0.88514 0.2221 0.43265 0.0
C769 C 0.91793 0.20346 0.54569 0.0
C770 C 0.91736 0.23959 0.53024 0.0
H771 H 0.90478 0.14698 0.53466 0.0
H772 H 0.92497 0.19827 0.57801 0.0
C773 C 0.9077 0.24557 0.48844 0.0
C774 C 0.34144 0.90603 0.52399 0.0
C775 C 0.33562 0.89408 0.48283 0.0
H776 H 0.31649 0.92292 0.58144 0.0
C777 C 0.30012 0.89742 0.46558 0.0
H778 H 0.36831 0.90371 0.53834 0.0
C779 C 0.27053 0.90933 0.49016 0.0
C780 C 0.27591 0.91742 0.53248 0.0
H781 H 0.29474 0.88847 0.43394 0.0
H782 H 0.24306 0.90897 0.47711 0.0
C783 C 0.31177 0.91704 0.54874 0.0
C784 C 0.41864 0.81283 0.04547 0.0
C785 C 0.41757 0.77638 0.03113 0.0
H786 H 0.40587 0.86916 0.03294 0.0
C787 C 0.40723 0.76951 0.98971 0.0
H788 H 0.42618 0.81869 0.07749 0.0
C789 C 0.39466 0.79833 0.96437 0.0
C790 C 0.39277 0.83453 0.97991 0.0
H791 H 0.40565 0.74156 0.9782 0.0
H792 H 0.38409 0.79188 0.93364 0.0
C793 C 0.40691 0.84171 1.01991 0.0
C794 C 0.74816 0.40659 0.98738 0.0
C795 C 0.74163 0.41728 0.02874 0.0
H796 H 0.72526 0.38317 0.93175 0.0
C797 C 0.7053 0.41877 0.04336 0.0
H798 H 0.77602 0.4047 0.97567 0.0
C799 C 0.67617 0.40708 1.01816 0.0
C800 C 0.683 0.39255 0.97828 0.0
H801 H 0.6997 0.4266 0.07534 0.0
H802 H 0.6488 0.40635 0.03143 0.0
C803 C 0.71909 0.39405 0.9624 0.0
C804 C 0.11267 0.74706 0.98573 0.0
C805 C 0.10118 0.74078 0.02686 0.0
H806 H 0.13704 0.72382 0.93084 0.0
C807 C 0.09943 0.70453 0.04174 0.0
H808 H 0.11479 0.77485 0.97385 0.0
C809 C 0.11155 0.67524 1.01705 0.0
C810 C 0.12676 0.68182 0.97745 0.0
H811 H 0.09101 0.69913 0.07357 0.0
H812 H 0.112 0.64795 0.03054 0.0
C813 C 0.12562 0.71783 0.96128 0.0
C814 C 0.81409 0.09823 0.04493 0.0
C815 C 0.77787 0.09907 0.02978 0.0
H816 H 0.87058 0.111 0.03347 0.0
C817 C 0.77166 0.10878 0.98804 0.0
H818 H 0.81945 0.09114 0.0772 0.0
C819 C 0.80087 0.12106 0.96313 0.0
C820 C 0.8368 0.12325 0.97946 0.0
H821 H 0.7439 0.11015 0.97588 0.0
H822 H 0.79489 0.13123 0.9321 0.0
C823 C 0.84336 0.10966 1.01983 0.0
C824 C 0.40498 0.74749 0.56407 0.0
C825 C 0.41597 0.74134 0.52273 0.0
H826 H 0.38111 0.72411 0.61917 0.0
C827 C 0.41739 0.70516 0.50761 0.0
H828 H 0.40313 0.77523 0.57615 0.0
C829 C 0.40543 0.67582 0.5323 0.0
C830 C 0.39069 0.68229 0.57216 0.0
H831 H 0.42543 0.69987 0.47563 0.0
H832 H 0.40471 0.6486 0.51866 0.0
C833 C 0.39217 0.71821 0.58852 0.0
C834 C 0.81242 0.41844 0.50585 0.0
C835 C 0.77606 0.41707 0.52043 0.0
H836 H 0.86887 0.40572 0.51776 0.0
C837 C 0.76948 0.40623 0.56173 0.0
H838 H 0.81806 0.42636 0.4739 0.0
C839 C 0.7985 0.39348 0.58667 0.0
C840 C 0.8346 0.39188 0.57082 0.0
H841 H 0.74161 0.40442 0.57341 0.0
H842 H 0.79227 0.38254 0.61729 0.0
C843 C 0.8415 0.40651 0.531 0.0
C844 C 0.10677 0.77104 0.55939 0.0
C845 C 0.09804 0.77727 0.51736 0.0
H846 H 0.12825 0.79414 0.61592 0.0
C847 C 0.09797 0.81348 0.50215 0.0
H848 H 0.10752 0.7433 0.57164 0.0
C849 C 0.1092 0.84267 0.52752 0.0
C850 C 0.12179 0.83603 0.56829 0.0
H851 H 0.09163 0.81886 0.46968 0.0
H852 H 0.11114 0.86984 0.51389 0.0
C853 C 0.11884 0.80016 0.58459 0.0
C854 C 0.71582 0.12113 0.58629 0.0
C855 C 0.68006 0.12395 0.56963 0.0
H856 H 0.77275 0.10954 0.57404 0.0
C857 C 0.67368 0.111 0.52896 0.0
H858 H 0.72163 0.13084 0.61755 0.0
C859 C 0.70304 0.0995 0.504 0.0
C860 C 0.73913 0.09962 0.51957 0.0
H861 H 0.6466 0.11286 0.51505 0.0
H862 H 0.69787 0.09285 0.47157 0.0
C863 C 0.74509 0.10875 0.56153 0.0
C864 C 0.73837 0.29059 0.21792 0.0
C865 C 0.77679 0.29256 0.21491 0.0
H866 H 0.69125 0.25559 0.21648 0.0
C867 C 0.79778 0.2604 0.21878 0.0
H868 H 0.72174 0.31525 0.21582 0.0
C869 C 0.78038 0.2263 0.21844 0.0
C870 C 0.74197 0.22431 0.21512 0.0
H871 H 0.8275 0.26131 0.21707 0.0
H872 H 0.79701 0.20163 0.21673 0.0
C873 C 0.72096 0.25649 0.21846 0.0
C874 C 0.2561 0.79938 0.21787 0.0
C875 C 0.22388 0.77854 0.21392 0.0
H876 H 0.3149 0.79822 0.21682 0.0
C877 C 0.22562 0.74016 0.21777 0.0
H878 H 0.25537 0.82907 0.21552 0.0
C879 C 0.25962 0.72256 0.21925 0.0
C880 C 0.29196 0.7433 0.216 0.0
H881 H 0.2009 0.72366 0.21564 0.0
H882 H 0.26039 0.69282 0.21792 0.0
C883 C 0.29012 0.78176 0.21848 0.0
C884 C 0.78087 0.29061 0.33236 0.0
C885 C 0.74238 0.29229 0.3348 0.0
H886 H 0.82827 0.25596 0.3345 0.0
C887 C 0.72174 0.25997 0.33064 0.0
H888 H 0.79725 0.31539 0.33469 0.0
C889 C 0.73944 0.226 0.33122 0.0
C890 C 0.77783 0.22429 0.33511 0.0
H891 H 0.69199 0.26064 0.33189 0.0
H892 H 0.723 0.20121 0.33265 0.0
C893 C 0.79858 0.25664 0.33209 0.0
C894 C 0.26018 0.79966 0.33243 0.0
C895 C 0.29259 0.7791 0.33647 0.0
H896 H 0.20139 0.79801 0.33326 0.0
C897 C 0.29123 0.74071 0.33265 0.0
H898 H 0.26062 0.82936 0.33474 0.0
C899 C 0.2574 0.72281 0.33109 0.0
C900 C 0.22484 0.74327 0.3342 0.0
H901 H 0.3161 0.72441 0.33485 0.0
H902 H 0.25692 0.69307 0.33242 0.0
C903 C 0.22633 0.78176 0.33171 0.0
C904 C 0.24035 0.78871 0.83041 0.0
C905 C 0.27869 0.79104 0.83442 0.0
H906 H 0.1935 0.75335 0.8313 0.0
C907 C 0.3 0.759 0.83185 0.0
H908 H 0.22351 0.81326 0.83153 0.0
C909 C 0.28286 0.72476 0.83247 0.0
C910 C 0.24441 0.72251 0.8348 0.0
H911 H 0.32966 0.76018 0.83439 0.0
H912 H 0.29965 0.70027 0.8352 0.0
C913 C 0.22323 0.75446 0.83014 0.0
C914 C 0.79134 0.27784 0.83145 0.0
C915 C 0.79289 0.23943 0.83501 0.0
H916 H 0.75689 0.32542 0.83239 0.0
C917 C 0.76046 0.21883 0.83167 0.0
H918 H 0.8162 0.29417 0.83314 0.0
C919 C 0.72655 0.23668 0.83194 0.0
C920 C 0.72502 0.27514 0.8347 0.0
H921 H 0.76103 0.18913 0.83381 0.0
H922 H 0.7017 0.22038 0.83403 0.0
C923 C 0.75744 0.29568 0.83087 0.0
C924 C 0.29184 0.75552 0.71952 0.0
C925 C 0.27151 0.72308 0.71455 0.0
H926 H 0.29012 0.81428 0.71837 0.0
C927 C 0.23299 0.72443 0.71638 0.0
H928 H 0.3216 0.7551 0.71879 0.0
C929 C 0.21499 0.75825 0.71685 0.0
C930 C 0.23552 0.7908 0.71467 0.0
H931 H 0.21683 0.69956 0.71343 0.0
H932 H 0.18533 0.75874 0.71395 0.0
C933 C 0.27387 0.78935 0.71915 0.0
C934 C 0.7905 0.23684 0.71767 0.0
C935 C 0.79221 0.27529 0.7148 0.0
H936 H 0.75585 0.18946 0.71573 0.0
C937 C 0.75985 0.296 0.71834 0.0
H938 H 0.8153 0.22041 0.7158 0.0
C939 C 0.72588 0.27834 0.7176 0.0
C940 C 0.72419 0.23993 0.71415 0.0
H941 H 0.76053 0.32573 0.71674 0.0
H942 H 0.70109 0.29479 0.7157 0.0
C943 C 0.75652 0.21917 0.71778 0.0
loop_
_geom_bond_atom_site_label_1
_geom_bond_atom_site_label_2
_geom_bond_distance
_geom_bond_site_symmetry_2
_ccdc_geom_bond_type
Co0 O3 1.970 . S
Co0 N17 1.989 . S
Co0 O25 1.967 . S
Co0 O32 1.920 . S
Co1 O4 1.966 . S
Co1 N10 2.022 . S
Co1 N18 1.993 . S
Co1 O26 1.941 . S
C2 O3 1.258 . S
C2 O4 1.263 . S
O3 Co0 1.970 . S
O3 C2 1.258 . S
O4 Co1 1.966 . S
O4 C2 1.263 . S
C5 O6 1.235 . S
C5 O32 1.289 . S
O6 C5 1.235 . S
C7 C9 1.400 1_545 S
C7 N10 1.351 . S
C7 C12 1.501 . S
C8 C9 1.387 . S
C8 N11 1.341 . S
C9 C7 1.400 1_565 S
C9 C8 1.387 . S
N10 Co1 2.022 . S
N10 C7 1.351 . S
N10 N11 1.365 1_545 S
N11 C8 1.341 . S
N11 N10 1.365 1_565 S
N11 H31 0.862 . S
C12 C7 1.501 . S
C12 H13 0.961 . S
C12 H14 0.961 . S
C12 H15 0.960 . S
H13 C12 0.961 . S
H14 C12 0.961 . S
H15 C12 0.960 . S
C16 N17 1.342 . S
C16 C20 1.401 . S
C16 C21 1.499 . S
N17 Co0 1.989 . S
N17 C16 1.342 . S
N17 N18 1.388 . S
N18 Co1 1.993 . S
N18 N17 1.388 . S
N18 C19 1.346 . S
C19 N18 1.346 . S
C19 C20 1.396 . S
C19 C29 1.510 . S
C20 C16 1.401 . S
C20 C19 1.396 . S
C21 C16 1.499 . S
C21 H22 0.959 . S
C21 H23 0.960 . S
C21 H24 0.961 . S
H22 C21 0.959 . S
H23 C21 0.960 . S
H24 C21 0.961 . S
O25 Co0 1.967 . S
O25 C33 1.258 . S
O26 Co1 1.941 . S
O26 C33 1.266 . S
H27 C29 0.959 . S
H28 C29 0.961 . S
C29 C19 1.510 . S
C29 H27 0.959 . S
C29 H28 0.961 . S
C29 H30 0.960 . S
H30 C29 0.960 . S
H31 N11 0.862 . S
O32 Co0 1.920 . S
O32 C5 1.289 . S
C33 O25 1.258 . S
C33 O26 1.266 . S
Co34 O37 1.970 . S
Co34 N51 1.989 . S
Co34 O59 1.967 . S
Co34 O66 1.920 . S
Co35 O38 1.966 . S
Co35 N44 2.022 . S
Co35 N52 1.993 . S
Co35 O60 1.941 . S
C36 O37 1.258 . S
C36 O38 1.263 . S
O37 Co34 1.970 . S
O37 C36 1.258 . S
O38 Co35 1.966 . S
O38 C36 1.263 . S
C39 O40 1.235 . S
C39 O66 1.289 . S
O40 C39 1.235 . S
C41 C43 1.400 . S
C41 N44 1.351 . S
C41 C46 1.501 . S
C42 C43 1.387 . S
C42 N45 1.341 . S
C43 C41 1.400 . S
C43 C42 1.387 . S
N44 Co35 2.022 . S
N44 C41 1.351 . S
N44 N45 1.365 . S
N45 C42 1.341 . S
N45 N44 1.365 . S
N45 H65 0.862 . S
C46 C41 1.501 . S
C46 H47 0.961 . S
C46 H48 0.961 . S
C46 H49 0.960 . S
H47 C46 0.961 . S
H48 C46 0.961 . S
H49 C46 0.960 . S
C50 N51 1.342 . S
C50 C54 1.401 . S
C50 C55 1.499 . S
N51 Co34 1.989 . S
N51 C50 1.342 . S
N51 N52 1.388 . S
N52 Co35 1.993 . S
N52 N51 1.388 . S
N52 C53 1.346 . S
C53 N52 1.346 . S
C53 C54 1.396 . S
C53 C63 1.510 . S
C54 C50 1.401 . S
C54 C53 1.396 . S
C55 C50 1.499 . S
C55 H56 0.959 . S
C55 H57 0.960 . S
C55 H58 0.961 . S
H56 C55 0.959 . S
H57 C55 0.960 . S
H58 C55 0.961 . S
O59 Co34 1.967 . S
O59 C67 1.258 . S
O60 Co35 1.941 . S
O60 C67 1.266 . S
H61 C63 0.959 . S
H62 C63 0.961 . S
C63 C53 1.510 . S
C63 H61 0.959 . S
C63 H62 0.961 . S
C63 H64 0.960 . S
H64 C63 0.960 . S
H65 N45 0.862 . S
O66 Co34 1.920 . S
O66 C39 1.289 . S
C67 O59 1.258 . S
C67 O60 1.266 . S
Co68 O71 1.970 . S
Co68 N85 1.989 . S
Co68 O93 1.967 . S
Co68 O100 1.920 . S
Co69 O72 1.966 . S
Co69 N78 2.022 . S
Co69 N86 1.993 . S
Co69 O94 1.941 . S
C70 O71 1.258 . S
C70 O72 1.263 . S
O71 Co68 1.970 . S
O71 C70 1.258 . S
O72 Co69 1.966 . S
O72 C70 1.263 . S
C73 O74 1.235 . S
C73 O100 1.289 . S
O74 C73 1.235 . S
C75 C77 1.400 . S
C75 N78 1.351 . S
C75 C80 1.501 . S
C76 C77 1.387 . S
C76 N79 1.341 . S
C77 C75 1.400 . S
C77 C76 1.387 . S
N78 Co69 2.022 . S
N78 C75 1.351 . S
N78 N79 1.365 . S
N79 C76 1.341 . S
N79 N78 1.365 . S
N79 H99 0.862 . S
C80 C75 1.501 . S
C80 H81 0.961 . S
C80 H82 0.961 . S
C80 H83 0.960 . S
H81 C80 0.961 . S
H82 C80 0.961 . S
H83 C80 0.960 . S
C84 N85 1.342 . S
C84 C88 1.401 . S
C84 C89 1.499 . S
N85 Co68 1.989 . S
N85 C84 1.342 . S
N85 N86 1.388 . S
N86 Co69 1.993 . S
N86 N85 1.388 . S
N86 C87 1.346 . S
C87 N86 1.346 . S
C87 C88 1.396 . S
C87 C97 1.510 . S
C88 C84 1.401 . S
C88 C87 1.396 . S
C89 C84 1.499 . S
C89 H90 0.959 . S
C89 H91 0.960 . S
C89 H92 0.961 . S
H90 C89 0.959 . S
H91 C89 0.960 . S
H92 C89 0.961 . S
O93 Co68 1.967 . S
O93 C101 1.258 . S
O94 Co69 1.941 . S
O94 C101 1.266 . S
H95 C97 0.959 . S
H96 C97 0.961 . S
C97 C87 1.510 . S
C97 H95 0.959 . S
C97 H96 0.961 . S
C97 H98 0.960 . S
H98 C97 0.960 . S
H99 N79 0.862 . S
O100 Co68 1.920 . S
O100 C73 1.289 . S
C101 O93 1.258 . S
C101 O94 1.266 . S
Co102 O105 1.970 . S
Co102 N119 1.989 . S
Co102 O127 1.967 . S
Co102 O134 1.920 . S
Co103 O106 1.966 . S
Co103 N112 2.022 . S
Co103 N120 1.993 . S
Co103 O128 1.941 . S
C104 O105 1.258 . S
C104 O106 1.263 . S
O105 Co102 1.970 . S
O105 C104 1.258 . S
O106 Co103 1.966 . S
O106 C104 1.263 . S
C107 O108 1.235 . S
C107 O134 1.289 . S
O108 C107 1.235 . S
C109 C111 1.400 1_455 S
C109 N112 1.351 . S
C109 C114 1.501 . S
C110 C111 1.387 . S
C110 N113 1.341 . S
C111 C109 1.400 1_655 S
C111 C110 1.387 . S
N112 Co103 2.022 . S
N112 C109 1.351 . S
N112 N113 1.365 1_455 S
N113 C110 1.341 . S
N113 N112 1.365 1_655 S
N113 H133 0.862 . S
C114 C109 1.501 . S
C114 H115 0.961 . S
C114 H116 0.961 . S
C114 H117 0.960 . S
H115 C114 0.961 . S
H116 C114 0.961 . S
H117 C114 0.960 . S
C118 N119 1.342 . S
C118 C122 1.401 . S
C118 C123 1.499 . S
N119 Co102 1.989 . S
N119 C118 1.342 . S
N119 N120 1.388 . S
N120 Co103 1.993 . S
N120 N119 1.388 . S
N120 C121 1.346 . S
C121 N120 1.346 . S
C121 C122 1.396 . S
C121 C131 1.510 . S
C122 C118 1.401 . S
C122 C121 1.396 . S
C123 C118 1.499 . S
C123 H124 0.959 . S
C123 H125 0.960 . S
C123 H126 0.961 . S
H124 C123 0.959 . S
H125 C123 0.960 . S
H126 C123 0.961 . S
O127 Co102 1.967 . S
O127 C135 1.258 . S
O128 Co103 1.941 . S
O128 C135 1.266 . S
H129 C131 0.959 . S
H130 C131 0.961 . S
C131 C121 1.510 . S
C131 H129 0.959 . S
C131 H130 0.961 . S
C131 H132 0.960 . S
H132 C131 0.960 . S
H133 N113 0.862 . S
O134 Co102 1.920 . S
O134 C107 1.289 . S
C135 O127 1.258 . S
C135 O128 1.266 . S
Co136 O139 1.970 . S
Co136 N153 1.989 . S
Co136 O161 1.967 . S
Co136 O168 1.920 . S
Co137 O140 1.966 . S
Co137 N146 2.022 . S
Co137 N154 1.993 . S
Co137 O162 1.941 . S
C138 O139 1.258 . S
C138 O140 1.263 . S
O139 Co136 1.970 . S
O139 C138 1.258 . S
O140 Co137 1.966 . S
O140 C138 1.263 . S
C141 O142 1.235 . S
C141 O168 1.289 . S
O142 C141 1.235 . S
C143 C145 1.400 . S
C143 N146 1.351 . S
C143 C148 1.501 . S
C144 C145 1.387 . S
C144 N147 1.341 . S
C145 C143 1.400 . S
C145 C144 1.387 . S
N146 Co137 2.022 . S
N146 C143 1.351 . S
N146 N147 1.365 . S
N147 C144 1.341 . S
N147 N146 1.365 . S
N147 H167 0.862 . S
C148 C143 1.501 . S
C148 H149 0.961 . S
C148 H150 0.961 . S
C148 H151 0.960 . S
H149 C148 0.961 . S
H150 C148 0.961 . S
H151 C148 0.960 . S
C152 N153 1.342 . S
C152 C156 1.401 . S
C152 C157 1.499 . S
N153 Co136 1.989 . S
N153 C152 1.342 . S
N153 N154 1.388 . S
N154 Co137 1.993 . S
N154 N153 1.388 . S
N154 C155 1.346 . S
C155 N154 1.346 . S
C155 C156 1.396 . S
C155 C165 1.510 . S
C156 C152 1.401 . S
C156 C155 1.396 . S
C157 C152 1.499 . S
C157 H158 0.959 . S
C157 H159 0.960 . S
C157 H160 0.961 . S
H158 C157 0.959 . S
H159 C157 0.960 . S
H160 C157 0.961 . S
O161 Co136 1.967 . S
O161 C169 1.258 . S
O162 Co137 1.941 . S
O162 C169 1.266 . S
H163 C165 0.959 . S
H164 C165 0.961 . S
C165 C155 1.510 . S
C165 H163 0.959 . S
C165 H164 0.961 . S
C165 H166 0.960 . S
H166 C165 0.960 . S
H167 N147 0.862 . S
O168 Co136 1.920 . S
O168 C141 1.289 . S
C169 O161 1.258 . S
C169 O162 1.266 . S
Co170 O173 1.970 . S
Co170 N187 1.989 . S
Co170 O195 1.967 . S
Co170 O202 1.920 . S
Co171 O174 1.966 . S
Co171 N180 2.022 . S
Co171 N188 1.993 . S
Co171 O196 1.941 . S
C172 O173 1.258 . S
C172 O174 1.263 . S
O173 Co170 1.970 . S
O173 C172 1.258 . S
O174 Co171 1.966 . S
O174 C172 1.263 . S
C175 O176 1.235 . S
C175 O202 1.289 . S
O176 C175 1.235 . S
C177 C179 1.400 1_455 S
C177 N180 1.351 . S
C177 C182 1.501 . S
C178 C179 1.387 . S
C178 N181 1.341 . S
C179 C177 1.400 1_655 S
C179 C178 1.387 . S
N180 Co171 2.022 . S
N180 C177 1.351 . S
N180 N181 1.365 1_455 S
N181 C178 1.341 . S
N181 N180 1.365 1_655 S
N181 H201 0.862 . S
C182 C177 1.501 . S
C182 H183 0.961 . S
C182 H184 0.961 . S
C182 H185 0.960 . S
H183 C182 0.961 . S
H184 C182 0.961 . S
H185 C182 0.960 . S
C186 N187 1.342 . S
C186 C190 1.401 . S
C186 C191 1.499 . S
N187 Co170 1.989 . S
N187 C186 1.342 . S
N187 N188 1.388 . S
N188 Co171 1.993 . S
N188 N187 1.388 . S
N188 C189 1.346 . S
C189 N188 1.346 . S
C189 C190 1.396 . S
C189 C199 1.510 . S
C190 C186 1.401 . S
C190 C189 1.396 . S
C191 C186 1.499 . S
C191 H192 0.959 . S
C191 H193 0.960 . S
C191 H194 0.961 . S
H192 C191 0.959 . S
H193 C191 0.960 . S
H194 C191 0.961 . S
O195 Co170 1.967 . S
O195 C203 1.258 . S
O196 Co171 1.941 . S
O196 C203 1.266 . S
H197 C199 0.959 . S
H198 C199 0.961 . S
C199 C189 1.510 . S
C199 H197 0.959 . S
C199 H198 0.961 . S
C199 H200 0.960 . S
H200 C199 0.960 . S
H201 N181 0.862 . S
O202 Co170 1.920 . S
O202 C175 1.289 . S
C203 O195 1.258 . S
C203 O196 1.266 . S
Co204 O207 1.970 . S
Co204 N221 1.989 . S
Co204 O229 1.967 . S
Co204 O236 1.920 . S
Co205 O208 1.966 . S
Co205 N214 2.022 . S
Co205 N222 1.993 . S
Co205 O230 1.941 . S
C206 O207 1.258 . S
C206 O208 1.263 . S
O207 Co204 1.970 . S
O207 C206 1.258 . S
O208 Co205 1.966 . S
O208 C206 1.263 . S
C209 O210 1.235 . S
C209 O236 1.289 . S
O210 C209 1.235 . S
C211 C213 1.400 1_545 S
C211 N214 1.351 . S
C211 C216 1.501 . S
C212 C213 1.387 . S
C212 N215 1.341 . S
C213 C211 1.400 1_565 S
C213 C212 1.387 . S
N214 Co205 2.022 . S
N214 C211 1.351 . S
N214 N215 1.365 1_545 S
N215 C212 1.341 . S
N215 N214 1.365 1_565 S
N215 H235 0.862 . S
C216 C211 1.501 . S
C216 H217 0.961 . S
C216 H218 0.961 . S
C216 H219 0.960 . S
H217 C216 0.961 . S
H218 C216 0.961 . S
H219 C216 0.960 . S
C220 N221 1.342 . S
C220 C224 1.401 . S
C220 C225 1.499 . S
N221 Co204 1.989 . S
N221 C220 1.342 . S
N221 N222 1.388 . S
N222 Co205 1.993 . S
N222 N221 1.388 . S
N222 C223 1.346 . S
C223 N222 1.346 . S
C223 C224 1.396 . S
C223 C233 1.510 . S
C224 C220 1.401 . S
C224 C223 1.396 . S
C225 C220 1.499 . S
C225 H226 0.959 . S
C225 H227 0.960 . S
C225 H228 0.961 . S
H226 C225 0.959 . S
H227 C225 0.960 . S
H228 C225 0.961 . S
O229 Co204 1.967 . S
O229 C237 1.258 . S
O230 Co205 1.941 . S
O230 C237 1.266 . S
H231 C233 0.959 . S
H232 C233 0.961 . S
C233 C223 1.510 . S
C233 H231 0.959 . S
C233 H232 0.961 . S
C233 H234 0.960 . S
H234 C233 0.960 . S
H235 N215 0.862 . S
O236 Co204 1.920 . S
O236 C209 1.289 . S
C237 O229 1.258 . S
C237 O230 1.266 . S
Co238 O241 1.970 . S
Co238 N255 1.989 . S
Co238 O263 1.967 . S
Co238 O270 1.920 . S
Co239 O242 1.966 . S
Co239 N248 2.022 . S
Co239 N256 1.993 . S
Co239 O264 1.941 . S
C240 O241 1.258 . S
C240 O242 1.263 . S
O241 Co238 1.970 . S
O241 C240 1.258 . S
O242 Co239 1.966 . S
O242 C240 1.263 . S
C243 O244 1.235 . S
C243 O270 1.289 . S
O244 C243 1.235 . S
C245 C247 1.400 . S
C245 N248 1.351 . S
C245 C250 1.501 . S
C246 C247 1.387 . S
C246 N249 1.341 . S
C247 C245 1.400 . S
C247 C246 1.387 . S
N248 Co239 2.022 . S
N248 C245 1.351 . S
N248 N249 1.365 . S
N249 C246 1.341 . S
N249 N248 1.365 . S
N249 H269 0.862 . S
C250 C245 1.501 . S
C250 H251 0.961 . S
C250 H252 0.961 . S
C250 H253 0.960 . S
H251 C250 0.961 . S
H252 C250 0.961 . S
H253 C250 0.960 . S
C254 N255 1.342 . S
C254 C258 1.401 . S
C254 C259 1.499 . S
N255 Co238 1.989 . S
N255 C254 1.342 . S
N255 N256 1.388 . S
N256 Co239 1.993 . S
N256 N255 1.388 . S
N256 C257 1.346 . S
C257 N256 1.346 . S
C257 C258 1.396 . S
C257 C267 1.510 . S
C258 C254 1.401 . S
C258 C257 1.396 . S
C259 C254 1.499 . S
C259 H260 0.959 . S
C259 H261 0.960 . S
C259 H262 0.961 . S
H260 C259 0.959 . S
H261 C259 0.960 . S
H262 C259 0.961 . S
O263 Co238 1.967 . S
O263 C271 1.258 . S
O264 Co239 1.941 . S
O264 C271 1.266 . S
H265 C267 0.959 . S
H266 C267 0.961 . S
C267 C257 1.510 . S
C267 H265 0.959 . S
C267 H266 0.961 . S
C267 H268 0.960 . S
H268 C267 0.960 . S
H269 N249 0.862 . S
O270 Co238 1.920 . S
O270 C243 1.289 . S
C271 O263 1.258 . S
C271 O264 1.266 . S
Co272 O275 1.970 . S
Co272 N289 1.989 . S
Co272 O297 1.967 . S
Co272 O304 1.920 . S
Co273 O276 1.966 . S
Co273 N282 2.022 . S
Co273 N290 1.993 . S
Co273 O298 1.941 . S
C274 O275 1.258 . S
C274 O276 1.263 . S
O275 Co272 1.970 . S
O275 C274 1.258 . S
O276 Co273 1.966 . S
O276 C274 1.263 . S
C277 O278 1.235 . S
C277 O304 1.289 . S
O278 C277 1.235 . S
C279 C281 1.400 1_565 S
C279 N282 1.351 . S
C279 C284 1.501 . S
C280 C281 1.387 . S
C280 N283 1.341 . S
C281 C279 1.400 1_545 S
C281 C280 1.387 . S
N282 Co273 2.022 . S
N282 C279 1.351 . S
N282 N283 1.365 1_565 S
N283 C280 1.341 . S
N283 N282 1.365 1_545 S
N283 H303 0.862 . S
C284 C279 1.501 . S
C284 H285 0.961 . S
C284 H286 0.961 . S
C284 H287 0.960 . S
H285 C284 0.961 . S
H286 C284 0.961 . S
H287 C284 0.960 . S
C288 N289 1.342 . S
C288 C292 1.401 . S
C288 C293 1.499 . S
N289 Co272 1.989 . S
N289 C288 1.342 . S
N289 N290 1.388 . S
N290 Co273 1.993 . S
N290 N289 1.388 . S
N290 C291 1.346 . S
C291 N290 1.346 . S
C291 C292 1.396 . S
C291 C301 1.510 . S
C292 C288 1.401 . S
C292 C291 1.396 . S
C293 C288 1.499 . S
C293 H294 0.959 . S
C293 H295 0.960 . S
C293 H296 0.961 . S
H294 C293 0.959 . S
H295 C293 0.960 . S
H296 C293 0.961 . S
O297 Co272 1.967 . S
O297 C305 1.258 . S
O298 Co273 1.941 . S
O298 C305 1.266 . S
H299 C301 0.959 . S
H300 C301 0.961 . S
C301 C291 1.510 . S
C301 H299 0.959 . S
C301 H300 0.961 . S
C301 H302 0.960 . S
H302 C301 0.960 . S
H303 N283 0.862 . S
O304 Co272 1.920 . S
O304 C277 1.289 . S
C305 O297 1.258 . S
C305 O298 1.266 . S
Co306 O309 1.970 . S
Co306 N323 1.989 . S
Co306 O331 1.967 . S
Co306 O338 1.920 . S
Co307 O310 1.966 . S
Co307 N316 2.022 . S
Co307 N324 1.993 . S
Co307 O332 1.941 . S
C308 O309 1.258 . S
C308 O310 1.263 . S
O309 Co306 1.970 . S
O309 C308 1.258 . S
O310 Co307 1.966 . S
O310 C308 1.263 . S
C311 O312 1.235 . S
C311 O338 1.289 . S
O312 C311 1.235 . S
C313 C315 1.400 . S
C313 N316 1.351 . S
C313 C318 1.501 . S
C314 C315 1.387 . S
C314 N317 1.341 . S
C315 C313 1.400 . S
C315 C314 1.387 . S
N316 Co307 2.022 . S
N316 C313 1.351 . S
N316 N317 1.365 . S
N317 C314 1.341 . S
N317 N316 1.365 . S
N317 H337 0.862 . S
C318 C313 1.501 . S
C318 H319 0.961 . S
C318 H320 0.961 . S
C318 H321 0.960 . S
H319 C318 0.961 . S
H320 C318 0.961 . S
H321 C318 0.960 . S
C322 N323 1.342 . S
C322 C326 1.401 . S
C322 C327 1.499 . S
N323 Co306 1.989 . S
N323 C322 1.342 . S
N323 N324 1.388 . S
N324 Co307 1.993 . S
N324 N323 1.388 . S
N324 C325 1.346 . S
C325 N324 1.346 . S
C325 C326 1.396 . S
C325 C335 1.510 . S
C326 C322 1.401 . S
C326 C325 1.396 . S
C327 C322 1.499 . S
C327 H328 0.959 . S
C327 H329 0.960 . S
C327 H330 0.961 . S
H328 C327 0.959 . S
H329 C327 0.960 . S
H330 C327 0.961 . S
O331 Co306 1.967 . S
O331 C339 1.258 . S
O332 Co307 1.941 . S
O332 C339 1.266 . S
H333 C335 0.959 . S
H334 C335 0.961 . S
C335 C325 1.510 . S
C335 H333 0.959 . S
C335 H334 0.961 . S
C335 H336 0.960 . S
H336 C335 0.960 . S
H337 N317 0.862 . S
O338 Co306 1.920 . S
O338 C311 1.289 . S
C339 O331 1.258 . S
C339 O332 1.266 . S
Co340 O343 1.970 . S
Co340 N357 1.989 . S
Co340 O365 1.967 . S
Co340 O372 1.920 . S
Co341 O344 1.966 . S
Co341 N350 2.022 . S
Co341 N358 1.993 . S
Co341 O366 1.941 . S
C342 O343 1.258 . S
C342 O344 1.263 . S
O343 Co340 1.970 . S
O343 C342 1.258 . S
O344 Co341 1.966 . S
O344 C342 1.263 . S
C345 O346 1.235 . S
C345 O372 1.289 . S
O346 C345 1.235 . S
C347 C349 1.400 . S
C347 N350 1.351 . S
C347 C352 1.501 . S
C348 C349 1.387 . S
C348 N351 1.341 . S
C349 C347 1.400 . S
C349 C348 1.387 . S
N350 Co341 2.022 . S
N350 C347 1.351 . S
N350 N351 1.365 . S
N351 C348 1.341 . S
N351 N350 1.365 . S
N351 H371 0.862 . S
C352 C347 1.501 . S
C352 H353 0.961 . S
C352 H354 0.961 . S
C352 H355 0.960 . S
H353 C352 0.961 . S
H354 C352 0.961 . S
H355 C352 0.960 . S
C356 N357 1.342 . S
C356 C360 1.401 . S
C356 C361 1.499 . S
N357 Co340 1.989 . S
N357 C356 1.342 . S
N357 N358 1.388 . S
N358 Co341 1.993 . S
N358 N357 1.388 . S
N358 C359 1.346 . S
C359 N358 1.346 . S
C359 C360 1.396 . S
C359 C369 1.510 . S
C360 C356 1.401 . S
C360 C359 1.396 . S
C361 C356 1.499 . S
C361 H362 0.959 . S
C361 H363 0.960 . S
C361 H364 0.961 . S
H362 C361 0.959 . S
H363 C361 0.960 . S
H364 C361 0.961 . S
O365 Co340 1.967 . S
O365 C373 1.258 . S
O366 Co341 1.941 . S
O366 C373 1.266 . S
H367 C369 0.959 . S
H368 C369 0.961 . S
C369 C359 1.510 . S
C369 H367 0.959 . S
C369 H368 0.961 . S
C369 H370 0.960 . S
H370 C369 0.960 . S
H371 N351 0.862 . S
O372 Co340 1.920 . S
O372 C345 1.289 . S
C373 O365 1.258 . S
C373 O366 1.266 . S
Co374 O377 1.970 . S
Co374 N391 1.989 . S
Co374 O399 1.967 . S
Co374 O406 1.920 . S
Co375 O378 1.966 . S
Co375 N384 2.022 . S
Co375 N392 1.993 . S
Co375 O400 1.941 . S
C376 O377 1.258 . S
C376 O378 1.263 . S
O377 Co374 1.970 . S
O377 C376 1.258 . S
O378 Co375 1.966 . S
O378 C376 1.263 . S
C379 O380 1.235 . S
C379 O406 1.289 . S
O380 C379 1.235 . S
C381 C383 1.400 1_655 S
C381 N384 1.351 . S
C381 C386 1.501 . S
C382 C383 1.387 . S
C382 N385 1.341 . S
C383 C381 1.400 1_455 S
C383 C382 1.387 . S
N384 Co375 2.022 . S
N384 C381 1.351 . S
N384 N385 1.365 1_655 S
N385 C382 1.341 . S
N385 N384 1.365 1_455 S
N385 H405 0.862 . S
C386 C381 1.501 . S
C386 H387 0.961 . S
C386 H388 0.961 . S
C386 H389 0.960 . S
H387 C386 0.961 . S
H388 C386 0.961 . S
H389 C386 0.960 . S
C390 N391 1.342 . S
C390 C394 1.401 . S
C390 C395 1.499 . S
N391 Co374 1.989 . S
N391 C390 1.342 . S
N391 N392 1.388 . S
N392 Co375 1.993 . S
N392 N391 1.388 . S
N392 C393 1.346 . S
C393 N392 1.346 . S
C393 C394 1.396 . S
C393 C403 1.510 . S
C394 C390 1.401 . S
C394 C393 1.396 . S
C395 C390 1.499 . S
C395 H396 0.959 . S
C395 H397 0.960 . S
C395 H398 0.961 . S
H396 C395 0.959 . S
H397 C395 0.960 . S
H398 C395 0.961 . S
O399 Co374 1.967 . S
O399 C407 1.258 . S
O400 Co375 1.941 . S
O400 C407 1.266 . S
H401 C403 0.959 . S
H402 C403 0.961 . S
C403 C393 1.510 . S
C403 H401 0.959 . S
C403 H402 0.961 . S
C403 H404 0.960 . S
H404 C403 0.960 . S
H405 N385 0.862 . S
O406 Co374 1.920 . S
O406 C379 1.289 . S
C407 O399 1.258 . S
C407 O400 1.266 . S
Co408 O411 1.970 . S
Co408 N425 1.989 . S
Co408 O433 1.967 . S
Co408 O440 1.920 . S
Co409 O412 1.966 . S
Co409 N418 2.022 . S
Co409 N426 1.993 . S
Co409 O434 1.941 . S
C410 O411 1.258 . S
C410 O412 1.263 . S
O411 Co408 1.970 . S
O411 C410 1.258 . S
O412 Co409 1.966 . S
O412 C410 1.263 . S
C413 O414 1.235 . S
C413 O440 1.289 . S
O414 C413 1.235 . S
C415 C417 1.400 . S
C415 N418 1.351 . S
C415 C420 1.501 . S
C416 C417 1.387 . S
C416 N419 1.341 . S
C417 C415 1.400 . S
C417 C416 1.387 . S
N418 Co409 2.022 . S
N418 C415 1.351 . S
N418 N419 1.365 . S
N419 C416 1.341 . S
N419 N418 1.365 . S
N419 H439 0.862 . S
C420 C415 1.501 . S
C420 H421 0.961 . S
C420 H422 0.961 . S
C420 H423 0.960 . S
H421 C420 0.961 . S
H422 C420 0.961 . S
H423 C420 0.960 . S
C424 N425 1.342 . S
C424 C428 1.401 . S
C424 C429 1.499 . S
N425 Co408 1.989 . S
N425 C424 1.342 . S
N425 N426 1.388 . S
N426 Co409 1.993 . S
N426 N425 1.388 . S
N426 C427 1.346 . S
C427 N426 1.346 . S
C427 C428 1.396 . S
C427 C437 1.510 . S
C428 C424 1.401 . S
C428 C427 1.396 . S
C429 C424 1.499 . S
C429 H430 0.959 . S
C429 H431 0.960 . S
C429 H432 0.961 . S
H430 C429 0.959 . S
H431 C429 0.960 . S
H432 C429 0.961 . S
O433 Co408 1.967 . S
O433 C441 1.258 . S
O434 Co409 1.941 . S
O434 C441 1.266 . S
H435 C437 0.959 . S
H436 C437 0.961 . S
C437 C427 1.510 . S
C437 H435 0.959 . S
C437 H436 0.961 . S
C437 H438 0.960 . S
H438 C437 0.960 . S
H439 N419 0.862 . S
O440 Co408 1.920 . S
O440 C413 1.289 . S
C441 O433 1.258 . S
C441 O434 1.266 . S
Co442 O445 1.970 . S
Co442 N459 1.989 . S
Co442 O467 1.967 . S
Co442 O474 1.920 . S
Co443 O446 1.966 . S
Co443 N452 2.022 . S
Co443 N460 1.993 . S
Co443 O468 1.941 . S
C444 O445 1.258 . S
C444 O446 1.263 . S
O445 Co442 1.970 . S
O445 C444 1.258 . S
O446 Co443 1.966 . S
O446 C444 1.263 . S
C447 O448 1.235 . S
C447 O474 1.289 . S
O448 C447 1.235 . S
C449 C451 1.400 1_655 S
C449 N452 1.351 . S
C449 C454 1.501 . S
C450 C451 1.387 . S
C450 N453 1.341 . S
C451 C449 1.400 1_455 S
C451 C450 1.387 . S
N452 Co443 2.022 . S
N452 C449 1.351 . S
N452 N453 1.365 1_655 S
N453 C450 1.341 . S
N453 N452 1.365 1_455 S
N453 H473 0.862 . S
C454 C449 1.501 . S
C454 H455 0.961 . S
C454 H456 0.961 . S
C454 H457 0.960 . S
H455 C454 0.961 . S
H456 C454 0.961 . S
H457 C454 0.960 . S
C458 N459 1.342 . S
C458 C462 1.401 . S
C458 C463 1.499 . S
N459 Co442 1.989 . S
N459 C458 1.342 . S
N459 N460 1.388 . S
N460 Co443 1.993 . S
N460 N459 1.388 . S
N460 C461 1.346 . S
C461 N460 1.346 . S
C461 C462 1.396 . S
C461 C471 1.510 . S
C462 C458 1.401 . S
C462 C461 1.396 . S
C463 C458 1.499 . S
C463 H464 0.959 . S
C463 H465 0.960 . S
C463 H466 0.961 . S
H464 C463 0.959 . S
H465 C463 0.960 . S
H466 C463 0.961 . S
O467 Co442 1.967 . S
O467 C475 1.258 . S
O468 Co443 1.941 . S
O468 C475 1.266 . S
H469 C471 0.959 . S
H470 C471 0.961 . S
C471 C461 1.510 . S
C471 H469 0.959 . S
C471 H470 0.961 . S
C471 H472 0.960 . S
H472 C471 0.960 . S
H473 N453 0.862 . S
O474 Co442 1.920 . S
O474 C447 1.289 . S
C475 O467 1.258 . S
C475 O468 1.266 . S
Co476 O479 1.970 . S
Co476 N493 1.989 . S
Co476 O501 1.967 . S
Co476 O508 1.920 . S
Co477 O480 1.966 . S
Co477 N486 2.022 . S
Co477 N494 1.993 . S
Co477 O502 1.941 . S
C478 O479 1.258 . S
C478 O480 1.263 . S
O479 Co476 1.970 . S
O479 C478 1.258 . S
O480 Co477 1.966 . S
O480 C478 1.263 . S
C481 O482 1.235 . S
C481 O508 1.289 . S
O482 C481 1.235 . S
C483 C485 1.400 1_565 S
C483 N486 1.351 . S
C483 C488 1.501 . S
C484 C485 1.387 . S
C484 N487 1.341 . S
C485 C483 1.400 1_545 S
C485 C484 1.387 . S
N486 Co477 2.022 . S
N486 C483 1.351 . S
N486 N487 1.365 1_565 S
N487 C484 1.341 . S
N487 N486 1.365 1_545 S
N487 H507 0.862 . S
C488 C483 1.501 . S
C488 H489 0.961 . S
C488 H490 0.961 . S
C488 H491 0.960 . S
H489 C488 0.961 . S
H490 C488 0.961 . S
H491 C488 0.960 . S
C492 N493 1.342 . S
C492 C496 1.401 . S
C492 C497 1.499 . S
N493 Co476 1.989 . S
N493 C492 1.342 . S
N493 N494 1.388 . S
N494 Co477 1.993 . S
N494 N493 1.388 . S
N494 C495 1.346 . S
C495 N494 1.346 . S
C495 C496 1.396 . S
C495 C505 1.510 . S
C496 C492 1.401 . S
C496 C495 1.396 . S
C497 C492 1.499 . S
C497 H498 0.959 . S
C497 H499 0.960 . S
C497 H500 0.961 . S
H498 C497 0.959 . S
H499 C497 0.960 . S
H500 C497 0.961 . S
O501 Co476 1.967 . S
O501 C509 1.258 . S
O502 Co477 1.941 . S
O502 C509 1.266 . S
H503 C505 0.959 . S
H504 C505 0.961 . S
C505 C495 1.510 . S
C505 H503 0.959 . S
C505 H504 0.961 . S
C505 H506 0.960 . S
H506 C505 0.960 . S
H507 N487 0.862 . S
O508 Co476 1.920 . S
O508 C481 1.289 . S
C509 O501 1.258 . S
C509 O502 1.266 . S
Co510 O513 1.970 . S
Co510 N527 1.989 . S
Co510 O535 1.967 . S
Co510 O542 1.920 . S
Co511 O514 1.966 . S
Co511 N520 2.022 . S
Co511 N528 1.993 . S
Co511 O536 1.941 . S
C512 O513 1.258 . S
C512 O514 1.263 . S
O513 Co510 1.970 . S
O513 C512 1.258 . S
O514 Co511 1.966 . S
O514 C512 1.263 . S
C515 O516 1.235 . S
C515 O542 1.289 . S
O516 C515 1.235 . S
C517 C519 1.400 . S
C517 N520 1.351 . S
C517 C522 1.501 . S
C518 C519 1.387 . S
C518 N521 1.341 . S
C519 C517 1.400 . S
C519 C518 1.387 . S
N520 Co511 2.022 . S
N520 C517 1.351 . S
N520 N521 1.365 . S
N521 C518 1.341 . S
N521 N520 1.365 . S
N521 H541 0.862 . S
C522 C517 1.501 . S
C522 H523 0.961 . S
C522 H524 0.961 . S
C522 H525 0.960 . S
H523 C522 0.961 . S
H524 C522 0.961 . S
H525 C522 0.960 . S
C526 N527 1.342 . S
C526 C530 1.401 . S
C526 C531 1.499 . S
N527 Co510 1.989 . S
N527 C526 1.342 . S
N527 N528 1.388 . S
N528 Co511 1.993 . S
N528 N527 1.388 . S
N528 C529 1.346 . S
C529 N528 1.346 . S
C529 C530 1.396 . S
C529 C539 1.510 . S
C530 C526 1.401 . S
C530 C529 1.396 . S
C531 C526 1.499 . S
C531 H532 0.959 . S
C531 H533 0.960 . S
C531 H534 0.961 . S
H532 C531 0.959 . S
H533 C531 0.960 . S
H534 C531 0.961 . S
O535 Co510 1.967 . S
O535 C543 1.258 . S
O536 Co511 1.941 . S
O536 C543 1.266 . S
H537 C539 0.959 . S
H538 C539 0.961 . S
C539 C529 1.510 . S
C539 H537 0.959 . S
C539 H538 0.961 . S
C539 H540 0.960 . S
H540 C539 0.960 . S
H541 N521 0.862 . S
O542 Co510 1.920 . S
O542 C515 1.289 . S
C543 O535 1.258 . S
C543 O536 1.266 . S
C544 C545 1.387 . S
C544 H548 0.950 . S
C544 C553 1.390 . S
C545 C544 1.387 . S
C545 C547 1.387 . S
H546 C553 0.950 . S
C547 C545 1.387 . S
C547 C549 1.390 . S
C547 H551 0.950 . S
H548 C544 0.950 . S
C549 C547 1.390 . S
C549 C550 1.387 . S
C549 H552 0.950 . S
C550 C549 1.387 . S
C550 C553 1.387 . S
H551 C547 0.950 . S
H552 C549 0.950 . S
C553 C544 1.390 . S
C553 H546 0.950 . S
C553 C550 1.387 . S
C554 C555 1.387 . S
C554 H558 0.950 . S
C554 C563 1.390 . S
C555 C554 1.387 . S
C555 C557 1.387 . S
H556 C563 0.950 . S
C557 C555 1.387 . S
C557 C559 1.390 . S
C557 H561 0.950 . S
H558 C554 0.950 . S
C559 C557 1.390 . S
C559 C560 1.387 . S
C559 H562 0.950 . S
C560 C559 1.387 . S
C560 C563 1.387 . S
H561 C557 0.950 . S
H562 C559 0.950 . S
C563 C554 1.390 . S
C563 H556 0.950 . S
C563 C560 1.387 . S
C564 C565 1.387 . S
C564 H568 0.950 . S
C564 C573 1.390 . S
C565 C564 1.387 . S
C565 C567 1.387 . S
H566 C573 0.950 . S
C567 C565 1.387 . S
C567 C569 1.390 . S
C567 H571 0.950 . S
H568 C564 0.950 . S
C569 C567 1.390 . S
C569 C570 1.387 . S
C569 H572 0.950 . S
C570 C569 1.387 . S
C570 C573 1.387 . S
H571 C567 0.950 . S
H572 C569 0.950 . S
C573 C564 1.390 . S
C573 H566 0.950 . S
C573 C570 1.387 . S
C574 C575 1.387 . S
C574 H578 0.950 . S
C574 C583 1.390 . S
C575 C574 1.387 . S
C575 C577 1.387 . S
H576 C583 0.950 . S
C577 C575 1.387 . S
C577 C579 1.390 . S
C577 H581 0.950 . S
H578 C574 0.950 . S
C579 C577 1.390 . S
C579 C580 1.387 . S
C579 H582 0.950 . S
C580 C579 1.387 . S
C580 C583 1.387 . S
H581 C577 0.950 . S
H582 C579 0.950 . S
C583 C574 1.390 . S
C583 H576 0.950 . S
C583 C580 1.387 . S
C584 C585 1.387 . S
C584 H588 0.950 . S
C584 C593 1.390 . S
C585 C584 1.387 . S
C585 C587 1.387 . S
H586 C593 0.950 . S
C587 C585 1.387 . S
C587 C589 1.390 . S
C587 H591 0.950 . S
H588 C584 0.950 . S
C589 C587 1.390 . S
C589 C590 1.387 . S
C589 H592 0.950 . S
C590 C589 1.387 . S
C590 C593 1.387 . S
H591 C587 0.950 . S
H592 C589 0.950 . S
C593 C584 1.390 . S
C593 H586 0.950 . S
C593 C590 1.387 . S
C594 C595 1.387 . S
C594 H598 0.950 . S
C594 C603 1.390 . S
C595 C594 1.387 . S
C595 C597 1.387 . S
H596 C603 0.950 . S
C597 C595 1.387 . S
C597 C599 1.390 . S
C597 H601 0.950 . S
H598 C594 0.950 . S
C599 C597 1.390 . S
C599 C600 1.387 . S
C599 H602 0.950 . S
C600 C599 1.387 . S
C600 C603 1.387 . S
H601 C597 0.950 . S
H602 C599 0.950 . S
C603 C594 1.390 . S
C603 H596 0.950 . S
C603 C600 1.387 . S
C604 C605 1.387 . S
C604 H608 0.950 . S
C604 C613 1.390 . S
C605 C604 1.387 . S
C605 C607 1.387 . S
H606 C613 0.950 . S
C607 C605 1.387 . S
C607 C609 1.390 . S
C607 H611 0.950 . S
H608 C604 0.950 . S
C609 C607 1.390 . S
C609 C610 1.387 . S
C609 H612 0.950 . S
C610 C609 1.387 . S
C610 C613 1.387 . S
H611 C607 0.950 . S
H612 C609 0.950 . S
C613 C604 1.390 . S
C613 H606 0.950 . S
C613 C610 1.387 . S
C614 C615 1.387 . S
C614 H618 0.950 . S
C614 C623 1.390 . S
C615 C614 1.387 . S
C615 C617 1.387 . S
H616 C623 0.950 . S
C617 C615 1.387 . S
C617 C619 1.390 . S
C617 H621 0.950 . S
H618 C614 0.950 . S
C619 C617 1.390 . S
C619 C620 1.387 . S
C619 H622 0.950 . S
C620 C619 1.387 . S
C620 C623 1.387 . S
H621 C617 0.950 . S
H622 C619 0.950 . S
C623 C614 1.390 . S
C623 H616 0.950 . S
C623 C620 1.387 . S
C624 C625 1.387 1_565 S
C624 H628 0.950 . S
C624 C633 1.390 1_556 S
C625 C624 1.387 1_545 S
C625 C627 1.387 . S
H626 C633 0.950 . S
C627 C625 1.387 . S
C627 C629 1.390 1_556 S
C627 H631 0.950 . S
H628 C624 0.950 . S
C629 C627 1.390 1_554 S
C629 C630 1.387 1_545 S
C629 H632 0.950 . S
C630 C629 1.387 1_565 S
C630 C633 1.387 . S
H631 C627 0.950 . S
H632 C629 0.950 . S
C633 C624 1.390 1_554 S
C633 H626 0.950 . S
C633 C630 1.387 . S
C634 C635 1.387 1_554 S
C634 H638 0.950 . S
C634 C643 1.390 . S
C635 C634 1.387 1_556 S
C635 C637 1.387 . S
H636 C643 0.950 . S
C637 C635 1.387 . S
C637 C639 1.390 . S
C637 H641 0.950 . S
H638 C634 0.950 . S
C639 C637 1.390 . S
C639 C640 1.387 1_556 S
C639 H642 0.950 . S
C640 C639 1.387 1_554 S
C640 C643 1.387 . S
H641 C637 0.950 . S
H642 C639 0.950 . S
C643 C634 1.390 . S
C643 H636 0.950 . S
C643 C640 1.387 . S
C644 C645 1.387 . S
C644 H648 0.950 . S
C644 C653 1.390 1_456 S
C645 C644 1.387 . S
C645 C647 1.387 . S
H646 C653 0.950 . S
C647 C645 1.387 . S
C647 C649 1.390 1_456 S
C647 H651 0.950 . S
H648 C644 0.950 . S
C649 C647 1.390 1_654 S
C649 C650 1.387 . S
C649 H652 0.950 . S
C650 C649 1.387 . S
C650 C653 1.387 . S
H651 C647 0.950 . S
H652 C649 0.950 . S
C653 C644 1.390 1_654 S
C653 H646 0.950 . S
C653 C650 1.387 . S
C654 C655 1.391 1_655 S
C654 H658 0.950 . S
C654 C663 1.386 1_545 S
C655 C654 1.391 1_455 S
C655 C657 1.387 1_556 S
H656 C663 0.950 . S
C657 C655 1.387 1_554 S
C657 C659 1.386 1_545 S
C657 H661 0.950 . S
H658 C654 0.950 . S
C659 C657 1.386 1_565 S
C659 C660 1.391 1_455 S
C659 H662 0.950 . S
C660 C659 1.391 1_655 S
C660 C663 1.387 1_554 S
H661 C657 0.950 . S
H662 C659 0.950 . S
C663 C654 1.386 1_565 S
C663 H656 0.950 . S
C663 C660 1.387 1_556 S
C664 C665 1.387 . S
C664 H668 0.950 . S
C664 C673 1.390 . S
C665 C664 1.387 . S
C665 C667 1.387 . S
H666 C673 0.950 . S
C667 C665 1.387 . S
C667 C669 1.390 . S
C667 H671 0.950 . S
H668 C664 0.950 . S
C669 C667 1.390 . S
C669 C670 1.387 . S
C669 H672 0.950 . S
C670 C669 1.387 . S
C670 C673 1.387 . S
H671 C667 0.950 . S
H672 C669 0.950 . S
C673 C664 1.390 . S
C673 H666 0.950 . S
C673 C670 1.387 . S
C674 C675 1.387 . S
C674 H678 0.950 . S
C674 C683 1.390 . S
C675 C674 1.387 . S
C675 C677 1.387 1_455 S
H676 C683 0.950 . S
C677 C675 1.387 1_655 S
C677 C679 1.390 . S
C677 H681 0.950 . S
H678 C674 0.950 . S
C679 C677 1.390 . S
C679 C680 1.387 . S
C679 H682 0.950 . S
C680 C679 1.387 . S
C680 C683 1.387 1_655 S
H681 C677 0.950 . S
H682 C679 0.950 . S
C683 C674 1.390 . S
C683 H676 0.950 . S
C683 C680 1.387 1_455 S
C684 C685 1.387 . S
C684 H688 0.950 . S
C684 C693 1.390 1_655 S
C685 C684 1.387 . S
C685 C687 1.387 1_565 S
H686 C693 0.950 . S
C687 C685 1.387 1_545 S
C687 C689 1.390 1_655 S
C687 H691 0.950 . S
H688 C684 0.950 . S
C689 C687 1.390 1_455 S
C689 C690 1.387 . S
C689 H692 0.950 . S
C690 C689 1.387 . S
C690 C693 1.387 1_545 S
H691 C687 0.950 . S
H692 C689 0.950 . S
C693 C684 1.390 1_455 S
C693 H686 0.950 . S
C693 C690 1.387 1_565 S
C694 C695 1.387 . S
C694 H698 0.950 . S
C694 C703 1.390 1_565 S
C695 C694 1.387 . S
C695 C697 1.387 . S
H696 C703 0.950 . S
C697 C695 1.387 . S
C697 C699 1.390 1_565 S
C697 H701 0.950 . S
H698 C694 0.950 . S
C699 C697 1.390 1_545 S
C699 C700 1.387 . S
C699 H702 0.950 . S
C700 C699 1.387 . S
C700 C703 1.387 . S
H701 C697 0.950 . S
H702 C699 0.950 . S
C703 C694 1.390 1_545 S
C703 H696 0.950 . S
C703 C700 1.387 . S
C704 C705 1.387 . S
C704 H708 0.950 . S
C704 C713 1.390 . S
C705 C704 1.387 . S
C705 C707 1.387 1_556 S
H706 C713 0.950 . S
C707 C705 1.387 1_554 S
C707 C709 1.390 . S
C707 H711 0.950 . S
H708 C704 0.950 . S
C709 C707 1.390 . S
C709 C710 1.387 . S
C709 H712 0.950 . S
C710 C709 1.387 . S
C710 C713 1.387 1_554 S
H711 C707 0.950 . S
H712 C709 0.950 . S
C713 C704 1.390 . S
C713 H706 0.950 . S
C713 C710 1.387 1_556 S
C714 C715 1.387 1_554 S
C714 H718 0.950 . S
C714 C723 1.390 . S
C715 C714 1.387 1_556 S
C715 C717 1.387 . S
H716 C723 0.950 . S
C717 C715 1.387 . S
C717 C719 1.390 . S
C717 H721 0.950 . S
H718 C714 0.950 . S
C719 C717 1.390 . S
C719 C720 1.387 1_556 S
C719 H722 0.950 . S
C720 C719 1.387 1_554 S
C720 C723 1.387 . S
H721 C717 0.950 . S
H722 C719 0.950 . S
C723 C714 1.390 . S
C723 H716 0.950 . S
C723 C720 1.387 . S
C724 C725 1.387 1_554 S
C724 H728 0.950 . S
C724 C733 1.390 . S
C725 C724 1.387 1_556 S
C725 C727 1.387 . S
H726 C733 0.950 . S
C727 C725 1.387 . S
C727 C729 1.390 . S
C727 H731 0.950 . S
H728 C724 0.950 . S
C729 C727 1.390 . S
C729 C730 1.387 1_556 S
C729 H732 0.950 . S
C730 C729 1.387 1_554 S
C730 C733 1.387 . S
H731 C727 0.950 . S
H732 C729 0.950 . S
C733 C724 1.390 . S
C733 H726 0.950 . S
C733 C730 1.387 . S
C734 C735 1.387 1_554 S
C734 H738 0.950 . S
C734 C743 1.390 . S
C735 C734 1.387 1_556 S
C735 C737 1.387 . S
H736 C743 0.950 . S
C737 C735 1.387 . S
C737 C739 1.390 . S
C737 H741 0.950 . S
H738 C734 0.950 . S
C739 C737 1.390 . S
C739 C740 1.387 1_556 S
C739 H742 0.950 . S
C740 C739 1.387 1_554 S
C740 C743 1.387 . S
H741 C737 0.950 . S
H742 C739 0.950 . S
C743 C734 1.390 . S
C743 H736 0.950 . S
C743 C740 1.387 . S
C744 C745 1.387 . S
C744 H748 0.950 . S
C744 C753 1.390 . S
C745 C744 1.387 . S
C745 C747 1.387 . S
H746 C753 0.950 . S
C747 C745 1.387 . S
C747 C749 1.390 . S
C747 H751 0.950 . S
H748 C744 0.950 . S
C749 C747 1.390 . S
C749 C750 1.387 . S
C749 H752 0.950 . S
C750 C749 1.387 . S
C750 C753 1.387 . S
H751 C747 0.950 . S
H752 C749 0.950 . S
C753 C744 1.390 . S
C753 H746 0.950 . S
C753 C750 1.387 . S
C754 C755 1.387 . S
C754 H758 0.950 . S
C754 C763 1.390 . S
C755 C754 1.387 . S
C755 C757 1.387 . S
H756 C763 0.950 . S
C757 C755 1.387 . S
C757 C759 1.390 . S
C757 H761 0.950 . S
H758 C754 0.950 . S
C759 C757 1.390 . S
C759 C760 1.387 . S
C759 H762 0.950 . S
C760 C759 1.387 . S
C760 C763 1.387 . S
H761 C757 0.950 . S
H762 C759 0.950 . S
C763 C754 1.390 . S
C763 H756 0.950 . S
C763 C760 1.387 . S
C764 C765 1.387 . S
C764 H768 0.950 . S
C764 C773 1.390 . S
C765 C764 1.387 . S
C765 C767 1.387 . S
H766 C773 0.950 . S
C767 C765 1.387 . S
C767 C769 1.390 . S
C767 H771 0.950 . S
H768 C764 0.950 . S
C769 C767 1.390 . S
C769 C770 1.387 . S
C769 H772 0.950 . S
C770 C769 1.387 . S
C770 C773 1.387 . S
H771 C767 0.950 . S
H772 C769 0.950 . S
C773 C764 1.390 . S
C773 H766 0.950 . S
C773 C770 1.387 . S
C774 C775 1.387 . S
C774 H778 0.950 . S
C774 C783 1.390 . S
C775 C774 1.387 . S
C775 C777 1.387 . S
H776 C783 0.950 . S
C777 C775 1.387 . S
C777 C779 1.390 . S
C777 H781 0.950 . S
H778 C774 0.950 . S
C779 C777 1.390 . S
C779 C780 1.387 . S
C779 H782 0.950 . S
C780 C779 1.387 . S
C780 C783 1.387 . S
H781 C777 0.950 . S
H782 C779 0.950 . S
C783 C774 1.390 . S
C783 H776 0.950 . S
C783 C780 1.387 . S
C784 C785 1.387 . S
C784 H788 0.950 . S
C784 C793 1.390 . S
C785 C784 1.387 . S
C785 C787 1.387 1_554 S
H786 C793 0.950 . S
C787 C785 1.387 1_556 S
C787 C789 1.390 . S
C787 H791 0.950 . S
H788 C784 0.950 . S
C789 C787 1.390 . S
C789 C790 1.387 . S
C789 H792 0.950 . S
C790 C789 1.387 . S
C790 C793 1.387 1_556 S
H791 C787 0.950 . S
H792 C789 0.950 . S
C793 C784 1.390 . S
C793 H786 0.950 . S
C793 C790 1.387 1_554 S
C794 C795 1.387 1_556 S
C794 H798 0.950 . S
C794 C803 1.390 . S
C795 C794 1.387 1_554 S
C795 C797 1.387 . S
H796 C803 0.950 . S
C797 C795 1.387 . S
C797 C799 1.390 . S
C797 H801 0.950 . S
H798 C794 0.950 . S
C799 C797 1.390 . S
C799 C800 1.387 1_554 S
C799 H802 0.950 . S
C800 C799 1.387 1_556 S
C800 C803 1.387 . S
H801 C797 0.950 . S
H802 C799 0.950 . S
C803 C794 1.390 . S
C803 H796 0.950 . S
C803 C800 1.387 . S
C804 C805 1.387 1_556 S
C804 H808 0.950 . S
C804 C813 1.390 . S
C805 C804 1.387 1_554 S
C805 C807 1.387 . S
H806 C813 0.950 . S
C807 C805 1.387 . S
C807 C809 1.390 . S
C807 H811 0.950 . S
H808 C804 0.950 . S
C809 C807 1.390 . S
C809 C810 1.387 1_554 S
C809 H812 0.950 . S
C810 C809 1.387 1_556 S
C810 C813 1.387 . S
H811 C807 0.950 . S
H812 C809 0.950 . S
C813 C804 1.390 . S
C813 H806 0.950 . S
C813 C810 1.387 . S
C814 C815 1.387 . S
C814 H818 0.950 . S
C814 C823 1.390 . S
C815 C814 1.387 . S
C815 C817 1.387 1_554 S
H816 C823 0.950 . S
C817 C815 1.387 1_556 S
C817 C819 1.390 . S
C817 H821 0.950 . S
H818 C814 0.950 . S
C819 C817 1.390 . S
C819 C820 1.387 . S
C819 H822 0.950 . S
C820 C819 1.387 . S
C820 C823 1.387 1_556 S
H821 C817 0.950 . S
H822 C819 0.950 . S
C823 C814 1.390 . S
C823 H816 0.950 . S
C823 C820 1.387 1_554 S
C824 C825 1.387 . S
C824 H828 0.950 . S
C824 C833 1.390 . S
C825 C824 1.387 . S
C825 C827 1.387 . S
H826 C833 0.950 . S
C827 C825 1.387 . S
C827 C829 1.390 . S
C827 H831 0.950 . S
H828 C824 0.950 . S
C829 C827 1.390 . S
C829 C830 1.387 . S
C829 H832 0.950 . S
C830 C829 1.387 . S
C830 C833 1.387 . S
H831 C827 0.950 . S
H832 C829 0.950 . S
C833 C824 1.390 . S
C833 H826 0.950 . S
C833 C830 1.387 . S
C834 C835 1.387 . S
C834 H838 0.950 . S
C834 C843 1.390 . S
C835 C834 1.387 . S
C835 C837 1.387 . S
H836 C843 0.950 . S
C837 C835 1.387 . S
C837 C839 1.390 . S
C837 H841 0.950 . S
H838 C834 0.950 . S
C839 C837 1.390 . S
C839 C840 1.387 . S
C839 H842 0.950 . S
C840 C839 1.387 . S
C840 C843 1.387 . S
H841 C837 0.950 . S
H842 C839 0.950 . S
C843 C834 1.390 . S
C843 H836 0.950 . S
C843 C840 1.387 . S
C844 C845 1.387 . S
C844 H848 0.950 . S
C844 C853 1.390 . S
C845 C844 1.387 . S
C845 C847 1.387 . S
H846 C853 0.950 . S
C847 C845 1.387 . S
C847 C849 1.390 . S
C847 H851 0.950 . S
H848 C844 0.950 . S
C849 C847 1.390 . S
C849 C850 1.387 . S
C849 H852 0.950 . S
C850 C849 1.387 . S
C850 C853 1.387 . S
H851 C847 0.950 . S
H852 C849 0.950 . S
C853 C844 1.390 . S
C853 H846 0.950 . S
C853 C850 1.387 . S
C854 C855 1.387 . S
C854 H858 0.950 . S
C854 C863 1.390 . S
C855 C854 1.387 . S
C855 C857 1.387 . S
H856 C863 0.950 . S
C857 C855 1.387 . S
C857 C859 1.390 . S
C857 H861 0.950 . S
H858 C854 0.950 . S
C859 C857 1.390 . S
C859 C860 1.387 . S
C859 H862 0.950 . S
C860 C859 1.387 . S
C860 C863 1.387 . S
H861 C857 0.950 . S
H862 C859 0.950 . S
C863 C854 1.390 . S
C863 H856 0.950 . S
C863 C860 1.387 . S
C864 C865 1.387 . S
C864 H868 0.950 . S
C864 C873 1.390 . S
C865 C864 1.387 . S
C865 C867 1.387 . S
H866 C873 0.950 . S
C867 C865 1.387 . S
C867 C869 1.390 . S
C867 H871 0.950 . S
H868 C864 0.950 . S
C869 C867 1.390 . S
C869 C870 1.387 . S
C869 H872 0.950 . S
C870 C869 1.387 . S
C870 C873 1.387 . S
H871 C867 0.950 . S
H872 C869 0.950 . S
C873 C864 1.390 . S
C873 H866 0.950 . S
C873 C870 1.387 . S
C874 C875 1.387 . S
C874 H878 0.950 . S
C874 C883 1.390 . S
C875 C874 1.387 . S
C875 C877 1.387 . S
H876 C883 0.950 . S
C877 C875 1.387 . S
C877 C879 1.390 . S
C877 H881 0.950 . S
H878 C874 0.950 . S
C879 C877 1.390 . S
C879 C880 1.387 . S
C879 H882 0.950 . S
C880 C879 1.387 . S
C880 C883 1.387 . S
H881 C877 0.950 . S
H882 C879 0.950 . S
C883 C874 1.390 . S
C883 H876 0.950 . S
C883 C880 1.387 . S
C884 C885 1.387 . S
C884 H888 0.950 . S
C884 C893 1.390 . S
C885 C884 1.387 . S
C885 C887 1.387 . S
H886 C893 0.950 . S
C887 C885 1.387 . S
C887 C889 1.390 . S
C887 H891 0.950 . S
H888 C884 0.950 . S
C889 C887 1.390 . S
C889 C890 1.387 . S
C889 H892 0.950 . S
C890 C889 1.387 . S
C890 C893 1.387 . S
H891 C887 0.950 . S
H892 C889 0.950 . S
C893 C884 1.390 . S
C893 H886 0.950 . S
C893 C890 1.387 . S
C894 C895 1.387 . S
C894 H898 0.950 . S
C894 C903 1.390 . S
C895 C894 1.387 . S
C895 C897 1.387 . S
H896 C903 0.950 . S
C897 C895 1.387 . S
C897 C899 1.390 . S
C897 H901 0.950 . S
H898 C894 0.950 . S
C899 C897 1.390 . S
C899 C900 1.387 . S
C899 H902 0.950 . S
C900 C899 1.387 . S
C900 C903 1.387 . S
H901 C897 0.950 . S
H902 C899 0.950 . S
C903 C894 1.390 . S
C903 H896 0.950 . S
C903 C900 1.387 . S
C904 C905 1.387 . S
C904 H908 0.950 . S
C904 C913 1.390 . S
C905 C904 1.387 . S
C905 C907 1.387 . S
H906 C913 0.950 . S
C907 C905 1.387 . S
C907 C909 1.390 . S
C907 H911 0.950 . S
H908 C904 0.950 . S
C909 C907 1.390 . S
C909 C910 1.387 . S
C909 H912 0.950 . S
C910 C909 1.387 . S
C910 C913 1.387 . S
H911 C907 0.950 . S
H912 C909 0.950 . S
C913 C904 1.390 . S
C913 H906 0.950 . S
C913 C910 1.387 . S
C914 C915 1.387 . S
C914 H918 0.950 . S
C914 C923 1.390 . S
C915 C914 1.387 . S
C915 C917 1.387 . S
H916 C923 0.950 . S
C917 C915 1.387 . S
C917 C919 1.390 . S
C917 H921 0.950 . S
H918 C914 0.950 . S
C919 C917 1.390 . S
C919 C920 1.387 . S
C919 H922 0.950 . S
C920 C919 1.387 . S
C920 C923 1.387 . S
H921 C917 0.950 . S
H922 C919 0.950 . S
C923 C914 1.390 . S
C923 H916 0.950 . S
C923 C920 1.387 . S
C924 C925 1.387 . S
C924 H928 0.950 . S
C924 C933 1.390 . S
C925 C924 1.387 . S
C925 C927 1.387 . S
H926 C933 0.950 . S
C927 C925 1.387 . S
C927 C929 1.390 . S
C927 H931 0.950 . S
H928 C924 0.950 . S
C929 C927 1.390 . S
C929 C930 1.387 . S
C929 H932 0.950 . S
C930 C929 1.387 . S
C930 C933 1.387 . S
H931 C927 0.950 . S
H932 C929 0.950 . S
C933 C924 1.390 . S
C933 H926 0.950 . S
C933 C930 1.387 . S
C934 C935 1.387 . S
C934 H938 0.950 . S
C934 C943 1.390 . S
C935 C934 1.387 . S
C935 C937 1.387 . S
H936 C943 0.950 . S
C937 C935 1.387 . S
C937 C939 1.390 . S
C937 H941 0.950 . S
H938 C934 0.950 . S
C939 C937 1.390 . S
C939 C940 1.387 . S
C939 H942 0.950 . S
C940 C939 1.387 . S
C940 C943 1.387 . S
H941 C937 0.950 . S
H942 C939 0.950 . S
C943 C934 1.390 . S
C943 H936 0.950 . S
C943 C940 1.387 . S
C545 C20 1.784 . S
C550 C224 1.784 . S
C555 C258 1.781 . S
C560 C54 1.781 . S
C565 C156 1.781 . S
C570 C88 1.781 . S
C575 C190 1.784 . S
C580 C122 1.784 . S
C585 C292 1.781 . S
C590 C496 1.781 . S
C595 C326 1.781 . S
C600 C530 1.781 . S
C605 C428 1.784 . S
C610 C360 1.784 . S
C615 C394 1.781 . S
C620 C462 1.781 . S
C625 C281 2.582 . S
C630 C9 2.582 . S
C635 C315 2.583 . S
C640 C43 2.583 . S
C645 C349 2.584 . S
C650 C77 2.584 . S
C655 C383 2.582 . S
C660 C111 2.582 . S
C665 C417 2.584 . S
C670 C145 2.584 . S
C675 C451 2.584 . S
C680 C179 2.584 . S
C685 C213 2.582 . S
C690 C485 2.582 . S
C695 C247 2.584 . S
C700 C519 2.584 . S
C705 C339 1.234 . S
C710 C2 1.298 . S
C715 C373 1.232 . S
C720 C36 1.300 . S
C725 C407 1.230 . S
C730 C70 1.299 . S
C735 C305 1.230 . S
C740 C104 1.300 . S
C745 C138 1.297 . S
C750 C543 1.232 . S
C755 C172 1.300 . S
C760 C441 1.230 . S
C765 C206 1.299 . S
C770 C475 1.229 . S
C775 C240 1.299 . S
C780 C509 1.234 . S
C785 C67 1.229 . S
C790 C274 1.299 . S
C795 C101 1.234 . S
C800 C308 1.299 . S
C805 C135 1.234 . S
C810 C342 1.298 . S
C815 C33 1.230 . S
C820 C376 1.300 . S
C825 C271 1.232 . S
C830 C410 1.300 . S
C835 C169 1.231 . S
C840 C444 1.297 . S
C845 C203 1.234 . S
C850 C478 1.298 . S
C855 C512 1.298 . S
C860 C237 1.233 . S
C865 C73 0.597 . S
C870 C5 0.597 . S
C875 C107 0.608 . S
C880 C39 0.608 . S
C885 C141 0.608 . S
C890 C209 0.608 . S
C895 C243 0.597 . S
C900 C175 0.597 . S
C905 C277 0.608 . S
C910 C345 0.608 . S
C915 C379 0.597 . S
C920 C311 0.597 . S
C925 C413 0.608 . S
C930 C481 0.608 . S
C935 C447 0.608 . S
C940 C515 0.608 . S
