# Generated by pormake.
# Topology umr, (4)-cn, num edge types: 1
# Building blocks:
#     Node 0, Type 0, BuildingBlock: TATPOV_clean_sbu_0, # of connection points: 4
#     Node 1, Type 0, BuildingBlock: TATPOV_clean_sbu_0, # of connection points: 4
#     Node 2, Type 0, BuildingBlock: TATPOV_clean_sbu_0, # of connection points: 4
#     Node 3, Type 0, BuildingBlock: TATPOV_clean_sbu_0, # of connection points: 4
#     Node 4, Type 0, BuildingBlock: TATPOV_clean_sbu_0, # of connection points: 4
#     Node 5, Type 0, BuildingBlock: TATPOV_clean_sbu_0, # of connection points: 4
#     Node 6, Type 0, BuildingBlock: TATPOV_clean_sbu_0, # of connection points: 4
#     Node 7, Type 0, BuildingBlock: TATPOV_clean_sbu_0, # of connection points: 4
#     Node 8, Type 0, BuildingBlock: TATPOV_clean_sbu_0, # of connection points: 4
#     Node 9, Type 0, BuildingBlock: TATPOV_clean_sbu_0, # of connection points: 4
#     Node 10, Type 0, BuildingBlock: TATPOV_clean_sbu_0, # of connection points: 4
#     Node 11, Type 0, BuildingBlock: TATPOV_clean_sbu_0, # of connection points: 4
#     Node 12, Type 0, BuildingBlock: TATPOV_clean_sbu_0, # of connection points: 4
#     Node 13, Type 0, BuildingBlock: TATPOV_clean_sbu_0, # of connection points: 4
#     Node 14, Type 0, BuildingBlock: TATPOV_clean_sbu_0, # of connection points: 4
#     Node 15, Type 0, BuildingBlock: TATPOV_clean_sbu_0, # of connection points: 4
#     Node 16, Type 0, BuildingBlock: TATPOV_clean_sbu_0, # of connection points: 4
#     Node 17, Type 0, BuildingBlock: TATPOV_clean_sbu_0, # of connection points: 4
#     Node 18, Type 0, BuildingBlock: TATPOV_clean_sbu_0, # of connection points: 4
#     Node 19, Type 0, BuildingBlock: TATPOV_clean_sbu_0, # of connection points: 4
#     Node 20, Type 0, BuildingBlock: TATPOV_clean_sbu_0, # of connection points: 4
#     Node 21, Type 0, BuildingBlock: TATPOV_clean_sbu_0, # of connection points: 4
#     Node 22, Type 0, BuildingBlock: TATPOV_clean_sbu_0, # of connection points: 4
#     Node 23, Type 0, BuildingBlock: TATPOV_clean_sbu_0, # of connection points: 4
#     Node 24, Type 0, BuildingBlock: TATPOV_clean_sbu_0, # of connection points: 4
#     Node 25, Type 0, BuildingBlock: TATPOV_clean_sbu_0, # of connection points: 4
#     Node 26, Type 0, BuildingBlock: TATPOV_clean_sbu_0, # of connection points: 4
#     Node 27, Type 0, BuildingBlock: TATPOV_clean_sbu_0, # of connection points: 4
#     Node 28, Type 0, BuildingBlock: TATPOV_clean_sbu_0, # of connection points: 4
#     Node 29, Type 0, BuildingBlock: TATPOV_clean_sbu_0, # of connection points: 4
#     Node 30, Type 0, BuildingBlock: TATPOV_clean_sbu_0, # of connection points: 4
#     Node 31, Type 0, BuildingBlock: TATPOV_clean_sbu_0, # of connection points: 4
#     Edge 32, Type (0, 0), BuildingBlock: OJICUG_clean_linker_0, # of connection points: 2
#     Edge 33, Type (0, 0), BuildingBlock: OJICUG_clean_linker_0, # of connection points: 2
#     Edge 34, Type (0, 0), BuildingBlock: OJICUG_clean_linker_0, # of connection points: 2
#     Edge 35, Type (0, 0), BuildingBlock: OJICUG_clean_linker_0, # of connection points: 2
#     Edge 36, Type (0, 0), BuildingBlock: OJICUG_clean_linker_0, # of connection points: 2
#     Edge 37, Type (0, 0), BuildingBlock: OJICUG_clean_linker_0, # of connection points: 2
#     Edge 38, Type (0, 0), BuildingBlock: OJICUG_clean_linker_0, # of connection points: 2
#     Edge 39, Type (0, 0), BuildingBlock: OJICUG_clean_linker_0, # of connection points: 2
#     Edge 40, Type (0, 0), BuildingBlock: OJICUG_clean_linker_0, # of connection points: 2
#     Edge 41, Type (0, 0), BuildingBlock: OJICUG_clean_linker_0, # of connection points: 2
#     Edge 42, Type (0, 0), BuildingBlock: OJICUG_clean_linker_0, # of connection points: 2
#     Edge 43, Type (0, 0), BuildingBlock: OJICUG_clean_linker_0, # of connection points: 2
#     Edge 44, Type (0, 0), BuildingBlock: OJICUG_clean_linker_0, # of connection points: 2
#     Edge 45, Type (0, 0), BuildingBlock: OJICUG_clean_linker_0, # of connection points: 2
#     Edge 46, Type (0, 0), BuildingBlock: OJICUG_clean_linker_0, # of connection points: 2
#     Edge 47, Type (0, 0), BuildingBlock: OJICUG_clean_linker_0, # of connection points: 2
#     Edge 48, Type (0, 0), BuildingBlock: OJICUG_clean_linker_0, # of connection points: 2
#     Edge 49, Type (0, 0), BuildingBlock: OJICUG_clean_linker_0, # of connection points: 2
#     Edge 50, Type (0, 0), BuildingBlock: OJICUG_clean_linker_0, # of connection points: 2
#     Edge 51, Type (0, 0), BuildingBlock: OJICUG_clean_linker_0, # of connection points: 2
#     Edge 52, Type (0, 0), BuildingBlock: OJICUG_clean_linker_0, # of connection points: 2
#     Edge 53, Type (0, 0), BuildingBlock: OJICUG_clean_linker_0, # of connection points: 2
#     Edge 54, Type (0, 0), BuildingBlock: OJICUG_clean_linker_0, # of connection points: 2
#     Edge 55, Type (0, 0), BuildingBlock: OJICUG_clean_linker_0, # of connection points: 2
#     Edge 56, Type (0, 0), BuildingBlock: OJICUG_clean_linker_0, # of connection points: 2
#     Edge 57, Type (0, 0), BuildingBlock: OJICUG_clean_linker_0, # of connection points: 2
#     Edge 58, Type (0, 0), BuildingBlock: OJICUG_clean_linker_0, # of connection points: 2
#     Edge 59, Type (0, 0), BuildingBlock: OJICUG_clean_linker_0, # of connection points: 2
#     Edge 60, Type (0, 0), BuildingBlock: OJICUG_clean_linker_0, # of connection points: 2
#     Edge 61, Type (0, 0), BuildingBlock: OJICUG_clean_linker_0, # of connection points: 2
#     Edge 62, Type (0, 0), BuildingBlock: OJICUG_clean_linker_0, # of connection points: 2
#     Edge 63, Type (0, 0), BuildingBlock: OJICUG_clean_linker_0, # of connection points: 2
#     Edge 64, Type (0, 0), BuildingBlock: OJICUG_clean_linker_0, # of connection points: 2
#     Edge 65, Type (0, 0), BuildingBlock: OJICUG_clean_linker_0, # of connection points: 2
#     Edge 66, Type (0, 0), BuildingBlock: OJICUG_clean_linker_0, # of connection points: 2
#     Edge 67, Type (0, 0), BuildingBlock: OJICUG_clean_linker_0, # of connection points: 2
#     Edge 68, Type (0, 0), BuildingBlock: OJICUG_clean_linker_0, # of connection points: 2
#     Edge 69, Type (0, 0), BuildingBlock: OJICUG_clean_linker_0, # of connection points: 2
#     Edge 70, Type (0, 0), BuildingBlock: OJICUG_clean_linker_0, # of connection points: 2
#     Edge 71, Type (0, 0), BuildingBlock: OJICUG_clean_linker_0, # of connection points: 2
#     Edge 72, Type (0, 0), BuildingBlock: OJICUG_clean_linker_0, # of connection points: 2
#     Edge 73, Type (0, 0), BuildingBlock: OJICUG_clean_linker_0, # of connection points: 2
#     Edge 74, Type (0, 0), BuildingBlock: OJICUG_clean_linker_0, # of connection points: 2
#     Edge 75, Type (0, 0), BuildingBlock: OJICUG_clean_linker_0, # of connection points: 2
#     Edge 76, Type (0, 0), BuildingBlock: OJICUG_clean_linker_0, # of connection points: 2
#     Edge 77, Type (0, 0), BuildingBlock: OJICUG_clean_linker_0, # of connection points: 2
#     Edge 78, Type (0, 0), BuildingBlock: OJICUG_clean_linker_0, # of connection points: 2
#     Edge 79, Type (0, 0), BuildingBlock: OJICUG_clean_linker_0, # of connection points: 2
#     Edge 80, Type (0, 0), BuildingBlock: OJICUG_clean_linker_0, # of connection points: 2
#     Edge 81, Type (0, 0), BuildingBlock: OJICUG_clean_linker_0, # of connection points: 2
#     Edge 82, Type (0, 0), BuildingBlock: OJICUG_clean_linker_0, # of connection points: 2
#     Edge 83, Type (0, 0), BuildingBlock: OJICUG_clean_linker_0, # of connection points: 2
#     Edge 84, Type (0, 0), BuildingBlock: OJICUG_clean_linker_0, # of connection points: 2
#     Edge 85, Type (0, 0), BuildingBlock: OJICUG_clean_linker_0, # of connection points: 2
#     Edge 86, Type (0, 0), BuildingBlock: OJICUG_clean_linker_0, # of connection points: 2
#     Edge 87, Type (0, 0), BuildingBlock: OJICUG_clean_linker_0, # of connection points: 2
#     Edge 88, Type (0, 0), BuildingBlock: OJICUG_clean_linker_0, # of connection points: 2
#     Edge 89, Type (0, 0), BuildingBlock: OJICUG_clean_linker_0, # of connection points: 2
#     Edge 90, Type (0, 0), BuildingBlock: OJICUG_clean_linker_0, # of connection points: 2
#     Edge 91, Type (0, 0), BuildingBlock: OJICUG_clean_linker_0, # of connection points: 2
#     Edge 92, Type (0, 0), BuildingBlock: OJICUG_clean_linker_0, # of connection points: 2
#     Edge 93, Type (0, 0), BuildingBlock: OJICUG_clean_linker_0, # of connection points: 2
#     Edge 94, Type (0, 0), BuildingBlock: OJICUG_clean_linker_0, # of connection points: 2
#     Edge 95, Type (0, 0), BuildingBlock: OJICUG_clean_linker_0, # of connection points: 2
# Relax obj value: 0.100
# Max RMSD: 0.120
# Mean RMSD: 0.120
data_MOF--net-umr--node1-TATPOV_clean_sbu_0--edge1-OJICUG_clean_linker_0
_symmetry_space_group_name_H-M    P1
_symmetry_Int_Tables_number       1
_symmetry_cell_setting            triclinic
loop_
_symmetry_equiv_pos_as_xyz
'x, y, z'
_cell_length_a     61.129268
_cell_length_b     61.533062
_cell_length_c     19.20202
_cell_angle_alpha  89.801083
_cell_angle_beta   90.214693
_cell_angle_gamma 90.025736
loop_
_atom_site_label
_atom_site_type_symbol
_atom_site_fract_x
_atom_site_fract_y
_atom_site_fract_z
_atom_type_partial_charge
Zn0 Zn 0.19022 0.25306 0.06144 0.0
Zn1 Zn 0.17867 0.29459 0.07062 0.0
O2 O 0.17066 0.2887 0.96866 0.0
O3 O 0.17999 0.25408 0.96362 0.0
O4 O 0.16667 0.32436 0.09642 0.0
O5 O 0.16945 0.24134 0.1302 0.0
O6 O 0.16081 0.27584 0.13999 0.0
C7 C 0.17213 0.27093 0.93519 0.0
C8 C 0.22677 0.28127 0.08928 0.0
O9 O 0.21254 0.29633 0.08267 0.0
O10 O 0.221 0.26152 0.08646 0.0
C11 C 0.15085 0.33331 0.06397 0.0
O12 O 0.14351 0.32433 0.00648 0.0
C13 C 0.15787 0.25601 0.15725 0.0
Zn14 Zn 0.01191 0.91354 0.21329 0.0
Zn15 Zn 0.97047 0.90754 0.23883 0.0
O16 O 0.9772 0.88744 0.15617 0.0
O17 O 0.01308 0.88707 0.15474 0.0
O18 O 0.94082 0.89777 0.27489 0.0
O19 O 0.02335 0.91133 0.30933 0.0
O20 O 0.98886 0.90305 0.32742 0.0
C21 C 0.99505 0.88011 0.13138 0.0
C22 C 0.98372 0.95061 0.17763 0.0
O23 O 0.96849 0.93971 0.20684 0.0
O24 O 1.00271 0.9425 0.1721 0.0
C25 C 0.92542 0.88893 0.24037 0.0
O26 O 0.9272 0.88729 0.17243 0.0
C27 C 1.0084 0.90511 0.34986 0.0
Zn28 Zn 0.35405 0.76131 0.45864 0.0
Zn29 Zn 0.36083 0.72025 0.4825 0.0
O30 O 0.3811 0.72798 0.40022 0.0
O31 O 0.38067 0.76364 0.40084 0.0
O32 O 0.37073 0.69065 0.51854 0.0
O33 O 0.35604 0.77215 0.55478 0.0
O34 O 0.36507 0.73797 0.57186 0.0
C35 C 0.38817 0.7461 0.37674 0.0
C36 C 0.31713 0.73322 0.42222 0.0
O37 O 0.32836 0.71812 0.45091 0.0
O38 O 0.32506 0.7522 0.41681 0.0
C39 C 0.38411 0.67784 0.4889 0.0
O40 O 0.39078 0.68237 0.42553 0.0
C41 C 0.36261 0.75721 0.59483 0.0
Zn42 Zn 0.5464 0.0331 0.92085 0.0
Zn43 Zn 0.5615 0.07149 0.90174 0.0
O44 O 0.53559 0.07458 0.83305 0.0
O45 O 0.52316 0.04133 0.84876 0.0
O46 O 0.57891 0.09967 0.90087 0.0
O47 O 0.5413 0.03555 0.02272 0.0
O48 O 0.55214 0.06928 0.00742 0.0
C49 C 0.52211 0.05949 0.81726 0.0
C50 C 0.58542 0.02918 0.85147 0.0
O51 O 0.58288 0.04977 0.8538 0.0
O52 O 0.57258 0.01711 0.88562 0.0
C53 C 0.59536 0.10017 0.94177 0.0
O54 O 0.5997 0.08287 -0.02031 0.0
C55 C 0.54497 0.05422 0.04725 0.0
Zn56 Zn 0.18845 0.76347 0.40732 0.0
Zn57 Zn 0.17681 0.72193 0.40006 0.0
O58 O 0.16867 0.72824 0.50147 0.0
O59 O 0.17852 0.76276 0.50515 0.0
O60 O 0.16486 0.69213 0.37449 0.0
O61 O 0.16736 0.77493 0.33869 0.0
O62 O 0.15881 0.74037 0.32998 0.0
C63 C 0.17038 0.74616 0.53412 0.0
C64 C 0.22486 0.73524 0.38004 0.0
O65 O 0.21067 0.72021 0.38804 0.0
O66 O 0.21909 0.755 0.38183 0.0
C67 C 0.15344 0.67962 0.41276 0.0
O68 O 0.15042 0.6847 0.47841 0.0
C69 C 0.15574 0.76014 0.31218 0.0
Zn70 Zn 0.5454 0.98483 0.53525 0.0
Zn71 Zn 0.56009 0.94625 0.55369 0.0
O72 O 0.53431 0.94322 0.62233 0.0
O73 O 0.52213 0.97657 0.60671 0.0
O74 O 0.57712 0.91785 0.5524 0.0
O75 O 0.54017 0.98282 0.43317 0.0
O76 O 0.55045 0.94892 0.44823 0.0
C77 C 0.52095 0.95839 0.638 0.0
C78 C 0.58467 0.98808 0.60505 0.0
O79 O 0.58192 0.96752 0.60221 0.0
O80 O 0.57184 1.00037 0.57136 0.0
C81 C 0.59267 0.91726 0.50842 0.0
O82 O 0.59645 0.93461 0.47022 0.0
C83 C 0.54348 0.96413 0.40847 0.0
Zn84 Zn 0.35609 0.25629 0.00643 0.0
Zn85 Zn 0.36214 0.29759 -0.01779 0.0
O86 O 0.38274 0.29043 0.06453 0.0
O87 O 0.38288 0.25477 0.06447 0.0
O88 O 0.37138 0.32726 0.94497 0.0
O89 O 0.35818 0.24536 0.91039 0.0
O90 O 0.36667 0.27968 0.89356 0.0
C91 C 0.39014 0.27248 0.0883 0.0
C92 C 0.31882 0.28383 0.0429 0.0
O93 O 0.32973 0.29913 0.01419 0.0
O94 O 0.32704 0.26497 0.04802 0.0
C95 C 0.38511 0.34012 0.97311 0.0
O96 O 0.39256 0.33566 0.03582 0.0
C97 C 0.36457 0.26039 0.87055 0.0
Zn98 Zn 0.0126 0.07891 0.1559 0.0
Zn99 Zn 0.97063 0.08971 0.14673 0.0
O100 O 0.97686 0.09792 0.24817 0.0
O101 O 0.01179 0.08894 0.2536 0.0
O102 O 0.94017 0.10081 0.12185 0.0
O103 O 0.02373 0.09987 0.0869 0.0
O104 O 0.98886 0.10797 0.07681 0.0
C105 C 0.99483 0.09666 0.28172 0.0
C106 C 0.98497 0.04213 0.12899 0.0
O107 O 0.9696 0.05601 0.13555 0.0
O108 O 1.00475 0.0482 0.13137 0.0
C109 C 0.92965 0.1147 0.15753 0.0
O110 O 0.93758 0.12083 0.21802 0.0
C111 C 1.00876 0.11122 0.05973 0.0
Zn112 Zn 0.84853 0.76301 0.94474 0.0
Zn113 Zn 0.85311 0.72165 0.9163 0.0
O114 O 0.87205 0.72743 0.00278 0.0
O115 O 0.87455 0.76293 0.00727 0.0
O116 O 0.86319 0.69239 0.87917 0.0
O117 O 0.85171 0.77508 0.84967 0.0
O118 O 0.85812 0.74054 0.82957 0.0
C119 C 0.87987 0.74449 0.03095 0.0
C120 C 0.80997 0.73532 0.97428 0.0
O121 O 0.82058 0.72 0.94502 0.0
O122 O 0.81874 0.75389 -0.01848 0.0
C123 C 0.87466 0.67862 0.9128 0.0
O124 O 0.87844 0.68183 -0.02063 0.0
C125 C 0.85703 0.76015 0.8082 0.0
Zn126 Zn 1.00526 0.09168 0.71014 0.0
Zn127 Zn 0.04657 0.09833 0.68338 0.0
O128 O 0.03964 0.11821 0.76639 0.0
O129 O 1.00377 0.11811 0.76891 0.0
O130 O 0.07616 0.10858 0.64768 0.0
O131 O 0.99365 0.09378 0.61421 0.0
O132 O 0.02791 0.10281 0.59525 0.0
C133 C 0.02178 0.1253 0.79172 0.0
C134 C 0.03411 0.05504 0.74501 0.0
O135 O 0.04906 0.06613 0.71506 0.0
O136 O 0.01503 0.06289 0.75123 0.0
C137 C 0.09023 0.11923 0.68271 0.0
O138 O 0.08693 0.12231 0.74952 0.0
C139 C 1.00833 0.10044 0.57339 0.0
Zn140 Zn 0.66862 0.25974 0.50507 0.0
Zn141 Zn 0.66285 0.30114 0.47867 0.0
O142 O 0.64248 0.29491 0.5617 0.0
O143 O 0.64236 0.25924 0.56509 0.0
O144 O 0.65393 0.33091 0.44167 0.0
O145 O 0.66511 0.24858 0.40956 0.0
O146 O 0.65686 0.28292 0.39144 0.0
C147 C 0.63503 0.27718 0.58672 0.0
C148 C 0.70667 0.28688 0.53619 0.0
O149 O 0.69564 0.30218 0.50786 0.0
O150 O 0.69825 0.26817 0.54325 0.0
C151 C 0.64185 0.34455 0.47306 0.0
O152 O 0.63631 0.34077 0.53801 0.0
C153 C 0.65836 0.26345 0.36952 0.0
Zn154 Zn 0.48015 0.9848 0.03337 0.0
Zn155 Zn 0.46554 0.94626 0.05374 0.0
O156 O 0.49173 0.94411 0.1213 0.0
O157 O 0.50368 0.97749 0.10541 0.0
O158 O 0.44995 0.91707 0.0584 0.0
O159 O 0.48522 0.98193 0.93156 0.0
O160 O 0.47442 0.94821 0.94748 0.0
C161 C 0.50499 0.95937 0.13697 0.0
C162 C 0.44113 0.98831 0.10373 0.0
O163 O 0.44385 0.96773 0.10203 0.0
O164 O 0.4537 1.00039 0.06858 0.0
C165 C 0.42976 0.91547 0.04255 0.0
O166 O 0.41894 0.9331 0.02483 0.0
C167 C 0.48157 0.96321 0.90735 0.0
Zn168 Zn 0.83372 0.25098 0.53716 0.0
Zn169 Zn 0.84769 0.29179 0.55238 0.0
O170 O 0.85583 0.28689 0.4501 0.0
O171 O 0.84472 0.25286 0.4406 0.0
O172 O 0.86243 0.31973 0.58344 0.0
O173 O 0.85309 0.23695 0.60614 0.0
O174 O 0.8634 0.27082 0.62079 0.0
C175 C 0.85361 0.26956 0.41465 0.0
C176 C 0.79905 0.28153 0.56843 0.0
O177 O 0.81407 0.29589 0.56413 0.0
O178 O 0.80365 0.26156 0.5622 0.0
C179 C 0.86878 0.33626 0.54905 0.0
O180 O 0.86436 0.33758 0.48217 0.0
C181 C 0.86508 0.25071 0.63639 0.0
Zn182 Zn 0.4815 0.03346 0.42021 0.0
Zn183 Zn 0.46693 0.07209 0.40016 0.0
O184 O 0.49306 0.07423 0.33286 0.0
O185 O 0.50508 0.04088 0.34897 0.0
O186 O 0.45154 0.10135 0.39612 0.0
O187 O 0.48653 0.03618 0.52225 0.0
O188 O 0.47585 0.06996 0.50649 0.0
C189 C 0.50636 0.05901 0.3175 0.0
C190 C 0.44219 0.03026 0.34962 0.0
O191 O 0.44493 0.05084 0.35174 0.0
O192 O 0.45494 0.0181 0.38407 0.0
C193 C 0.43152 0.10301 0.41345 0.0
O194 O 0.42081 0.08541 0.43197 0.0
C195 C 0.48294 0.05488 0.54661 0.0
Zn196 Zn 0.67956 0.7625 0.00215 0.0
Zn197 Zn 0.67005 0.72014 0.0115 0.0
O198 O 0.6604 0.72557 0.91102 0.0
O199 O 0.66796 0.76065 0.90571 0.0
O200 O 0.66018 0.68983 0.04032 0.0
O201 O 0.65875 0.77275 0.07312 0.0
O202 O 0.65124 0.73788 0.07984 0.0
C203 C 0.66044 0.74357 0.87801 0.0
C204 C 0.71769 0.73618 0.02519 0.0
O205 O 0.70409 0.72049 0.02004 0.0
O206 O 0.71098 0.75564 0.02338 0.0
C207 C 0.64306 0.68113 0.01475 0.0
O208 O 0.63319 0.69071 0.9621 0.0
C209 C 0.64749 0.75743 0.09816 0.0
Zn210 Zn 1.00501 0.92745 0.76873 0.0
Zn211 Zn 0.04662 0.91598 0.77584 0.0
O212 O 0.03959 0.908 0.67495 0.0
O213 O 1.0049 0.91785 0.67055 0.0
O214 O 0.07705 0.90392 0.79426 0.0
O215 O 0.9939 0.90642 0.83749 0.0
O216 O 0.02867 0.89782 0.84685 0.0
C217 C 0.02158 0.90976 0.64186 0.0
C218 C 0.03334 0.96375 0.7953 0.0
O219 O 0.04848 0.94967 0.7876 0.0
O220 O 0.01347 0.95794 0.79388 0.0
C221 C 0.08432 0.90409 0.85649 0.0
O222 O 0.07281 0.91398 0.90459 0.0
C223 C 1.00876 0.89482 0.86423 0.0
Zn224 Zn 0.65916 0.75186 0.44995 0.0
Zn225 Zn 0.65345 0.79288 0.47441 0.0
O226 O 0.63442 0.78524 0.38979 0.0
O227 O 0.63309 0.74968 0.38836 0.0
O228 O 0.64255 0.82298 0.49963 0.0
O229 O 0.65644 0.74135 0.54661 0.0
O230 O 0.64858 0.77572 0.56522 0.0
C231 C 0.62697 0.76773 0.36361 0.0
C232 C 0.69705 0.7796 0.41719 0.0
O233 O 0.6861 0.79482 0.44568 0.0
O234 O 0.68866 0.76083 0.41092 0.0
C235 C 0.64174 0.8384 0.45546 0.0
O236 O 0.64978 0.83527 0.39292 0.0
C237 C 0.65054 0.75625 0.58742 0.0
Zn238 Zn 0.52265 0.41921 0.7415 0.0
Zn239 Zn 0.48058 0.41662 0.77952 0.0
O240 O 0.48115 0.39965 0.68821 0.0
O241 O 0.51651 0.3967 0.66969 0.0
O242 O 0.45191 0.40862 0.82731 0.0
O243 O 0.53666 0.41002 0.83022 0.0
O244 O 0.50182 0.40588 0.85501 0.0
C245 C 0.49701 0.39215 0.65287 0.0
C246 C 0.49774 0.46045 0.73406 0.0
O247 O 0.48168 0.44985 0.75982 0.0
O248 O 0.51569 0.45082 0.72203 0.0
C249 C 0.43669 0.39725 0.80033 0.0
O250 O 0.43753 0.39266 0.73364 0.0
C251 C 0.52193 0.4038 0.87158 0.0
Zn252 Zn 0.84062 0.25596 -0.00955 0.0
Zn253 Zn 0.84684 0.21507 0.023 0.0
O254 O 0.86604 0.21998 0.93678 0.0
O255 O 0.86648 0.25555 0.92803 0.0
O256 O 0.85733 0.18611 0.06203 0.0
O257 O 0.8446 0.26877 0.08409 0.0
O258 O 0.85352 0.23485 0.10662 0.0
C259 C 0.87334 0.23722 0.90822 0.0
C260 C 0.80267 0.22767 0.96556 0.0
O261 O 0.81386 0.21294 -0.00366 0.0
O262 O 0.81091 0.24633 0.95531 0.0
C263 C 0.86619 0.1711 0.02652 0.0
O264 O 0.86645 0.17278 0.9583 0.0
C265 C 0.85199 0.25463 0.12569 0.0
Zn266 Zn 1.00936 0.58464 0.28355 0.0
Zn267 Zn 0.05149 0.59502 0.29548 0.0
O268 O 0.04612 0.6034 0.19358 0.0
O269 O 1.01105 0.5951 0.18614 0.0
O270 O 0.08152 0.60653 0.32338 0.0
O271 O 0.99778 0.60527 0.35242 0.0
O272 O 0.0327 0.61293 0.36411 0.0
C273 C 0.02833 0.60252 0.15898 0.0
C274 C 0.03683 0.54753 0.31165 0.0
O275 O 0.05242 0.56127 0.30641 0.0
O276 O 0.01713 0.55382 0.30794 0.0
C277 C 0.09326 0.61903 0.28602 0.0
O278 O 0.08724 0.62305 0.22152 0.0
C279 C 0.01278 0.61632 0.38051 0.0
Zn280 Zn 0.67637 0.26279 0.95088 0.0
Zn281 Zn 0.66173 0.22276 0.94634 0.0
O282 O 0.6546 0.23116 0.04673 0.0
O283 O 0.66752 0.26464 0.04917 0.0
O284 O 0.64707 0.19342 0.93298 0.0
O285 O 0.65588 0.27518 0.88258 0.0
O286 O 0.64502 0.24128 0.87259 0.0
C287 C 0.65803 0.24891 0.07887 0.0
C288 C 0.7106 0.23203 0.92466 0.0
O289 O 0.69541 0.21807 0.93405 0.0
O290 O 0.70622 0.25214 0.92485 0.0
C291 C 0.64894 0.17744 0.97469 0.0
O292 O 0.66195 0.17924 0.029 0.0
C293 C 0.64343 0.26126 0.85506 0.0
Zn294 Zn 1.00646 0.41994 0.2284 0.0
Zn295 Zn 0.04792 0.41278 0.20175 0.0
O296 O 0.04105 0.39256 0.28412 0.0
O297 O 1.00518 0.39343 0.28766 0.0
O298 O 0.07713 0.40219 0.16488 0.0
O299 O 0.99486 0.41777 0.13234 0.0
O300 O 0.02909 0.40847 0.11436 0.0
C301 C 0.02309 0.38568 0.30951 0.0
C302 C 0.03591 0.45621 0.26263 0.0
O303 O 0.0508 0.4449 0.23348 0.0
O304 O 0.01669 0.44865 0.26836 0.0
C305 C 0.09229 0.39309 0.19995 0.0
O306 O 0.09062 0.39205 0.26807 0.0
C307 C 1.00957 0.4109 0.0921 0.0
Zn308 Zn 0.82704 0.75142 0.39565 0.0
Zn309 Zn 0.83735 0.79373 0.38172 0.0
O310 O 0.84665 0.78882 0.48278 0.0
O311 O 0.83911 0.75382 0.49156 0.0
O312 O 0.84884 0.82343 0.35165 0.0
O313 O 0.84724 0.74016 0.32419 0.0
O314 O 0.85542 0.77481 0.31446 0.0
C315 C 0.84665 0.77116 0.5175 0.0
C316 C 0.78942 0.77882 0.36978 0.0
O317 O 0.80327 0.79436 0.37254 0.0
O318 O 0.7958 0.75928 0.37464 0.0
C319 C 0.86468 0.83267 0.38306 0.0
O320 O 0.87187 0.8243 0.44184 0.0
C321 C 0.85866 0.75506 0.29737 0.0
Zn322 Zn 0.52332 0.59384 0.71067 0.0
Zn323 Zn 0.48053 0.59969 0.67523 0.0
O324 O 0.48047 0.6127 0.77279 0.0
O325 O 0.51582 0.61073 0.79573 0.0
O326 O 0.45192 0.60864 0.62831 0.0
O327 O 0.53668 0.60999 0.63208 0.0
O328 O 0.50184 0.6153 0.6089 0.0
C329 C 0.49672 0.61667 0.81234 0.0
C330 C 0.4983 0.55357 0.69192 0.0
O331 O 0.48191 0.56587 0.67928 0.0
O332 O 0.51693 0.56175 0.70457 0.0
C333 C 0.437 0.62003 0.65646 0.0
O334 O 0.43826 0.62422 0.72338 0.0
C335 C 0.52196 0.61883 0.59552 0.0
Zn336 Zn 0.34385 0.26084 0.4495 0.0
Zn337 Zn 0.35659 0.22005 0.44783 0.0
O338 O 0.3643 0.22895 0.5473 0.0
O339 O 0.3526 0.26285 0.54825 0.0
O340 O 0.36906 0.18946 0.4394 0.0
O341 O 0.36521 0.27159 0.38142 0.0
O342 O 0.37429 0.23714 0.37302 0.0
C343 C 0.36154 0.24692 0.57872 0.0
C344 C 0.30811 0.23179 0.42507 0.0
O345 O 0.32266 0.21724 0.43591 0.0
O346 O 0.31347 0.25166 0.42316 0.0
C347 C 0.38971 0.18743 0.43318 0.0
O348 O 0.40192 0.20501 0.43338 0.0
C349 C 0.37698 0.25696 0.355 0.0
Zn350 Zn 0.50208 0.60304 0.22944 0.0
Zn351 Zn 0.54408 0.60545 0.1914 0.0
O352 O 0.5437 0.62247 0.28252 0.0
O353 O 0.50837 0.62551 0.30138 0.0
O354 O 0.57279 0.61334 0.14437 0.0
O355 O 0.48812 0.61227 0.14059 0.0
O356 O 0.52296 0.61623 0.11551 0.0
C357 C 0.52789 0.63001 0.31804 0.0
C358 C 0.5268 0.56171 0.23678 0.0
O359 O 0.5429 0.57226 0.21111 0.0
O360 O 0.50888 0.57138 0.24883 0.0
C361 C 0.58933 0.62217 0.17316 0.0
O362 O 0.5898 0.62411 0.24126 0.0
C363 C 0.50284 0.61836 0.09902 0.0
Zn364 Zn 0.17736 0.75849 0.96157 0.0
Zn365 Zn 0.16936 0.79913 0.9341 0.0
O366 O 0.14993 0.79125 0.0177 0.0
O367 O 0.15107 0.75565 0.02118 0.0
O368 O 0.1573 0.82844 0.90322 0.0
O369 O 0.17519 0.74726 0.86568 0.0
O370 O 0.1648 0.78092 0.84547 0.0
C371 C 0.14328 0.77331 0.04342 0.0
C372 C 0.21358 0.78811 -0.00587 0.0
O373 O 0.20195 0.8026 0.96379 0.0
O374 O 0.20615 0.769 0.00172 0.0
C375 C 0.15008 0.84248 0.94581 0.0
O376 O 0.15265 0.83907 0.01293 0.0
C377 C 0.16778 0.76149 0.82447 0.0
Zn378 Zn 0.01512 0.42956 0.67355 0.0
Zn379 Zn 0.973 0.41971 0.66416 0.0
O380 O 0.97909 0.41187 0.76613 0.0
O381 O 0.0143 0.41969 0.77154 0.0
O382 O 0.94237 0.40859 0.64165 0.0
O383 O 0.02591 0.40844 0.60505 0.0
O384 O 0.99086 0.4012 0.59448 0.0
C385 C 0.99705 0.41266 0.79988 0.0
C386 C 0.98818 0.46696 0.64588 0.0
O387 O 0.97246 0.45342 0.65208 0.0
O388 O 1.00781 0.46043 0.64867 0.0
C389 C 0.93637 0.39052 0.66784 0.0
O390 O 0.94926 0.38087 0.71328 0.0
C391 C 1.0107 0.39751 0.57767 0.0
Zn392 Zn 0.341 0.75793 0.01595 0.0
Zn393 Zn 0.35392 0.79866 0.01647 0.0
O394 O 0.36133 0.78927 0.91736 0.0
O395 O 0.34929 0.75548 0.91715 0.0
O396 O 0.36658 0.82924 0.02316 0.0
O397 O 0.36267 0.74741 0.08391 0.0
O398 O 0.37181 0.78187 0.09187 0.0
C399 C 0.35834 0.77125 0.88635 0.0
C400 C 0.30549 0.78716 0.04064 0.0
O401 O 0.32003 0.80164 0.029 0.0
O402 O 0.31079 0.76728 0.04284 0.0
C403 C 0.38729 0.83119 0.02809 0.0
O404 O 0.39939 0.81354 0.02787 0.0
C405 C 0.37453 0.76207 0.11012 0.0
Zn406 Zn 0.0185 0.595 0.73087 0.0
Zn407 Zn 0.97692 0.60149 0.75901 0.0
O408 O 0.98313 0.6216 0.67589 0.0
O409 O 0.019 0.62138 0.67074 0.0
O410 O 0.94749 0.61129 0.79672 0.0
O411 O 0.03035 0.59761 0.8266 0.0
O412 O 0.99603 0.60635 0.84565 0.0
C413 C 1.00085 0.6287 0.64938 0.0
C414 C 0.98954 0.55823 0.69796 0.0
O415 O 0.97458 0.56935 0.72748 0.0
O416 O 1.00864 0.56604 0.69172 0.0
C417 C 0.93321 0.62214 0.76303 0.0
O418 O 0.9361 0.62565 0.69617 0.0
C419 C 0.01568 0.60432 0.86723 0.0
Zn420 Zn 0.17977 0.25957 0.50766 0.0
Zn421 Zn 0.17267 0.21858 0.53646 0.0
O422 O 0.15277 0.22531 0.45256 0.0
O423 O 0.1532 0.26094 0.44792 0.0
O424 O 0.1618 0.18949 0.57359 0.0
O425 O 0.17753 0.2714 0.60302 0.0
O426 O 0.16801 0.2375 0.62309 0.0
C427 C 0.14574 0.24303 0.4262 0.0
C428 C 0.21643 0.2304 0.47556 0.0
O429 O 0.20516 0.21571 0.50607 0.0
O430 O 0.20867 0.24939 0.4681 0.0
C431 C 0.15057 0.17584 0.53888 0.0
O432 O 0.14765 0.17909 0.47183 0.0
C433 C 0.17047 0.25699 0.6441 0.0
Zn434 Zn 0.50137 0.42821 0.25987 0.0
Zn435 Zn 0.54423 0.42255 0.2949 0.0
O436 O 0.54409 0.40953 0.19748 0.0
O437 O 0.50873 0.41132 0.17473 0.0
O438 O 0.5731 0.41374 0.3403 0.0
O439 O 0.48829 0.41203 0.3388 0.0
O440 O 0.52318 0.40685 0.36189 0.0
C441 C 0.52784 0.40545 0.15808 0.0
C442 C 0.52626 0.46857 0.2784 0.0
O443 O 0.5427 0.45634 0.29098 0.0
O444 O 0.50765 0.46033 0.26579 0.0
C445 C 0.58815 0.40292 0.3106 0.0
O446 O 0.58674 0.39932 0.24335 0.0
C447 C 0.50307 0.40327 0.37536 0.0
C448 C 0.28687 0.2715 0.11256 0.0
C449 C 0.29599 0.28693 0.0669 0.0
H450 H 0.25782 0.25804 0.1566 0.0
C451 C 0.28237 0.30326 0.03913 0.0
H452 H 0.29693 0.25895 0.13604 0.0
C453 C 0.25971 0.30282 0.05167 0.0
C454 C 0.25049 0.28602 0.09195 0.0
H455 H 0.28894 0.31541 0.00402 0.0
H456 H 0.2493 0.31453 0.02545 0.0
C457 C 0.26443 0.27102 0.12473 0.0
C458 C 0.99577 0.98256 0.10779 0.0
C459 C 0.98037 0.9733 0.15333 0.0
H460 H 1.00886 0.0116 0.06318 0.0
C461 C 0.96374 0.98659 0.18038 0.0
H462 H 1.00854 0.97275 0.08482 0.0
C463 C 0.96384 0.00909 0.16722 0.0
C464 C 0.98059 0.01849 0.12703 0.0
H465 H 0.95159 0.9799 0.21533 0.0
H466 H 0.95189 0.01927 0.19286 0.0
C467 C 0.9959 1.00485 0.09499 0.0
C468 C 0.26223 0.74529 0.3419 0.0
C469 C 0.24855 0.7305 0.37645 0.0
H470 H 0.29463 0.75734 0.32813 0.0
C471 C 0.25808 0.71396 0.41724 0.0
H472 H 0.25536 0.75807 0.30955 0.0
C473 C 0.28083 0.71362 0.42856 0.0
C474 C 0.29421 0.72981 0.39906 0.0
H475 H 0.24788 0.70241 0.44477 0.0
H476 H 0.28767 0.70173 0.46418 0.0
C477 C 0.28475 0.74491 0.35287 0.0
C478 C 0.60003 0.03118 0.73075 0.0
C479 C 0.59752 0.01923 0.79278 0.0
H480 H 0.59842 0.03022 0.61947 0.0
C481 C 0.59963 0.99647 0.78998 0.0
H482 H 0.59894 0.04875 0.73092 0.0
C483 C 0.59956 0.9858 0.72571 0.0
C484 C 0.59712 0.9978 0.6637 0.0
H485 H 0.5983 0.98679 0.83701 0.0
H486 H 0.59811 0.96826 0.72556 0.0
C487 C 0.5997 0.02051 0.66649 0.0
C488 C 0.75531 0.74836 0.05438 0.0
C489 C 0.74162 0.73248 0.02526 0.0
H490 H 0.7875 0.76141 0.06213 0.0
C491 C 0.75108 0.71548 -0.01314 0.0
H492 H 0.74854 0.76153 0.0848 0.0
C493 C 0.77366 0.71549 0.97303 0.0
C494 C 0.78701 0.73248 -0.00237 0.0
H495 H 0.74087 0.70308 0.96348 0.0
H496 H 0.78039 0.70297 0.93991 0.0
C497 C 0.77768 0.74833 0.04096 0.0
C498 C 0.05422 0.99663 0.75449 0.0
C499 C 0.038 0.98733 0.79707 0.0
H500 H 0.0658 0.02572 0.70403 0.0
C501 C 0.02316 1.00106 0.83094 0.0
H502 H 0.06577 0.98638 0.72735 0.0
C503 C 0.02313 0.02332 0.81759 0.0
C504 C 0.03788 0.03247 0.76971 0.0
H505 H 1.01061 0.99438 0.86453 0.0
H506 H 1.01067 0.0332 0.84197 0.0
C507 C 0.05416 0.01911 0.74083 0.0
C508 C 0.73927 0.27455 0.60321 0.0
C509 C 0.7299 0.28969 0.55696 0.0
H510 H 0.7686 0.2605 0.64401 0.0
C511 C 0.74356 0.30517 0.52493 0.0
H512 H 0.72921 0.26266 0.62983 0.0
C513 C 0.76639 0.30403 0.53384 0.0
C514 C 0.7757 0.28739 0.5747 0.0
H515 H 0.7368 0.31706 0.48915 0.0
H516 H 0.77675 0.31496 0.50436 0.0
C517 C 0.76187 0.27336 0.61172 0.0
C518 C 0.42705 0.02118 0.16485 0.0
C519 C 0.42922 0.99841 0.16266 0.0
H520 H 0.42861 0.04961 0.22834 0.0
C521 C 0.42695 0.98666 0.22517 0.0
H522 H 0.42821 0.03072 0.11748 0.0
C523 C 0.42737 0.99754 0.28909 0.0
C524 C 0.42982 0.02028 0.29116 0.0
H525 H 0.42811 0.96909 0.22554 0.0
H526 H 0.42876 0.98798 0.33639 0.0
C527 C 0.42724 0.03206 0.22878 0.0
C528 C 0.73329 0.79961 0.41981 0.0
C529 C 0.72002 0.78272 0.39405 0.0
H530 H 0.7661 0.81189 0.43131 0.0
C531 C 0.72949 0.76708 0.35029 0.0
H532 H 0.72646 0.81196 0.45337 0.0
C533 C 0.75192 0.76708 0.33774 0.0
C534 C 0.76553 0.78279 0.36816 0.0
H535 H 0.71973 0.75409 0.32828 0.0
H536 H 0.7588 0.754 0.30716 0.0
C537 C 0.75595 0.79965 0.40685 0.0
C538 C 0.51478 0.49468 0.69055 0.0
C539 C 0.49632 0.4841 0.71819 0.0
H540 H 0.52958 0.52457 0.65982 0.0
C541 C 0.47737 0.49648 0.73097 0.0
H542 H 0.52962 0.48581 0.67902 0.0
C543 C 0.47732 0.51908 0.71886 0.0
C544 C 0.49628 0.52958 0.69448 0.0
H545 H 0.46282 0.48882 0.75174 0.0
H546 H 0.46286 0.52842 0.73147 0.0
C547 C 0.51477 0.51702 0.67921 0.0
C548 C 0.74292 0.21045 0.96778 0.0
C549 C 0.73394 0.22579 0.92125 0.0
H550 H 0.77213 0.19889 0.01887 0.0
C551 C 0.74811 0.2387 0.88143 0.0
H552 H 0.73231 0.20043 -0.00041 0.0
C553 C 0.77062 0.23788 0.89245 0.0
C554 C 0.77959 0.2242 0.94391 0.0
H555 H 0.74165 0.25056 0.84488 0.0
H556 H 0.78091 0.24899 0.86335 0.0
C557 C 0.76567 0.20966 -0.02091 0.0
C558 C 0.02504 0.48817 0.33355 0.0
C559 C 0.03995 0.47872 0.28703 0.0
H560 H 0.01281 0.51734 0.37905 0.0
C561 C 0.05673 0.49175 0.25919 0.0
H562 H 0.01218 0.47855 0.35715 0.0
C563 C 0.0572 0.51422 0.27254 0.0
C564 C 0.04087 0.52384 0.31374 0.0
H565 H 0.06852 0.48492 0.22344 0.0
H566 H 0.06919 0.52424 0.24623 0.0
C567 C 0.02546 0.51041 0.34655 0.0
C568 C 0.27032 0.24047 0.38698 0.0
C569 C 0.28446 0.22659 0.42377 0.0
H570 H 0.23773 0.25216 0.37371 0.0
C571 C 0.27546 0.21107 0.46946 0.0
H572 H 0.27675 0.25246 0.35101 0.0
C573 C 0.25285 0.21099 0.48311 0.0
C574 C 0.23908 0.22643 0.45116 0.0
H575 H 0.28603 0.20028 0.4989 0.0
H576 H 0.24647 0.19999 0.52225 0.0
C577 C 0.24794 0.24037 0.40039 0.0
C578 C 0.54723 0.50311 0.25216 0.0
C579 C 0.5282 0.49256 0.27584 0.0
H580 H 0.56179 0.5334 0.22 0.0
C581 C 0.50963 0.50509 0.29053 0.0
H582 H 0.56175 0.4938 0.24002 0.0
C583 C 0.50963 0.52743 0.27935 0.0
C584 C 0.52817 0.53804 0.25244 0.0
H585 H 0.49478 0.4975 0.30938 0.0
H586 H 0.49474 0.53628 0.29041 0.0
C587 C 0.54718 0.52571 0.24019 0.0
C588 C 0.26798 0.77877 0.08126 0.0
C589 C 0.28188 0.79242 0.04293 0.0
H590 H 0.23549 0.76712 0.09671 0.0
C591 C 0.27255 0.80768 -0.0032 0.0
H592 H 0.27468 0.76697 0.11758 0.0
C593 C 0.24985 0.80768 -0.01575 0.0
C594 C 0.23631 0.7924 0.01774 0.0
H595 H 0.28292 0.81829 0.96618 0.0
H596 H 0.2432 0.81841 0.94469 0.0
C597 C 0.24552 0.77878 0.06894 0.0
C598 C 0.96801 0.50033 0.68548 0.0
C599 C 0.98442 0.49072 0.64463 0.0
H600 H 0.95668 0.52954 0.73505 0.0
C601 C 1.00014 0.50412 0.61321 0.0
H602 H 0.95577 0.49033 0.71074 0.0
C603 C 1.00071 0.52631 0.62717 0.0
C604 C 0.98564 0.53572 0.67325 0.0
H605 H 0.01287 0.49721 0.581 0.0
H606 H 0.01376 0.5359 0.60453 0.0
C607 C 0.96861 0.52273 0.69976 0.0
C608 C 0.1714 0.28668 0.81569 0.0
C609 C 0.16643 0.26959 0.86134 0.0
H610 H 0.17673 0.29602 0.70967 0.0
C611 C 0.15951 0.24953 0.83462 0.0
H612 H 0.17679 0.30227 0.83545 0.0
C613 C 0.15951 0.2459 0.76333 0.0
C614 C 0.16658 0.26225 0.71761 0.0
H615 H 0.15533 0.2362 0.86914 0.0
H616 H 0.15515 0.22989 0.74455 0.0
C617 C 0.17154 0.28301 0.74396 0.0
C618 C 0.9816 0.87969 0.94766 0.0
C619 C 1.00323 0.88042 0.92301 0.0
H620 H 0.96138 0.8772 0.03757 0.0
C621 C 0.0199 0.87089 0.96314 0.0
H622 H 0.96817 0.88591 0.91648 0.0
C623 C 0.01582 0.86534 0.03231 0.0
C624 C 0.99534 0.87017 0.06172 0.0
H625 H 0.03658 0.87029 0.94435 0.0
H626 H 0.02961 0.86104 0.0652 0.0
C627 C 0.97761 0.87433 0.01703 0.0
C628 C 0.39493 0.73003 0.26147 0.0
C629 C 0.39855 0.74726 0.30773 0.0
H630 H 0.38409 0.72146 0.15955 0.0
C631 C 0.40323 0.76799 0.2802 0.0
H632 H 0.39222 0.71367 0.28061 0.0
C633 C 0.39795 0.77265 0.21104 0.0
C634 C 0.38889 0.75633 0.16913 0.0
H635 H 0.40713 0.78142 0.31443 0.0
H636 H 0.39835 0.78941 0.19359 0.0
C637 C 0.38991 0.7346 0.19212 0.0
C638 C 0.49472 0.04332 0.73556 0.0
C639 C 0.5077 0.06125 0.75474 0.0
H640 H 0.47673 0.02741 0.65473 0.0
C641 C 0.50926 0.07891 0.70806 0.0
H642 H 0.4929 0.02948 0.77007 0.0
C643 C 0.49955 0.07779 0.64161 0.0
C644 C 0.48841 0.05889 0.62067 0.0
H645 H 0.51911 0.09296 0.72104 0.0
H646 H 0.50217 0.09095 0.60499 0.0
C647 C 0.48541 0.04208 0.66925 0.0
C648 C 0.15763 0.77231 0.70394 0.0
C649 C 0.16412 0.75604 0.75089 0.0
H650 H 0.15415 0.78158 0.5974 0.0
C651 C 0.16876 0.73506 0.72585 0.0
H652 H 0.15355 0.7885 0.72168 0.0
C653 C 0.16887 0.73104 0.65434 0.0
C654 C 0.16449 0.748 0.60757 0.0
H655 H 0.17348 0.72209 0.7611 0.0
H656 H 0.17399 0.71524 0.63574 0.0
C657 C 0.15789 0.76834 0.63284 0.0
C658 C 0.48412 0.97588 0.78466 0.0
C659 C 0.48706 0.95911 0.83348 0.0
H660 H 0.49171 0.9884 0.684 0.0
C661 C 0.49823 0.94021 0.81309 0.0
H662 H 0.47544 0.99056 0.79877 0.0
C663 C 0.50801 0.93904 0.74697 0.0
C664 C 0.50649 0.95666 0.70009 0.0
H665 H 0.50082 0.92708 0.84992 0.0
H666 H 0.51787 0.92498 0.73444 0.0
C667 C 0.49349 0.97459 0.71868 0.0
C668 C 0.4056 0.25101 0.18546 0.0
C669 C 0.40065 0.27161 0.1574 0.0
H670 H 0.40102 0.22972 0.27246 0.0
C671 C 0.39691 0.2889 0.20322 0.0
H672 H 0.40963 0.23755 0.15159 0.0
C673 C 0.39198 0.28443 0.27259 0.0
C674 C 0.39121 0.26274 0.29603 0.0
H675 H 0.394 0.30519 0.18369 0.0
H676 H 0.38605 0.29757 0.30478 0.0
C677 C 0.40042 0.24644 0.25463 0.0
C678 C 0.98237 0.09907 0.47246 0.0
C679 C 1.00331 0.10377 0.49923 0.0
H680 H 0.96305 0.09348 0.38077 0.0
C681 C 0.02007 0.10988 0.45349 0.0
H682 H 0.96906 0.09461 0.50672 0.0
C683 C 0.01659 0.10923 0.38208 0.0
C684 C 0.99628 0.10262 0.35522 0.0
H685 H 0.03625 0.11399 0.47253 0.0
H686 H 0.03019 0.11275 0.34775 0.0
C687 C 0.97885 0.09858 0.4006 0.0
C688 C 0.8922 0.76329 0.13744 0.0
C689 C 0.88756 0.74355 0.10371 0.0
H690 H 0.88576 0.7828 0.22685 0.0
C691 C 0.88135 0.72555 0.14427 0.0
H692 H 0.89798 0.77722 0.10814 0.0
C693 C 0.87413 0.72877 0.21222 0.0
C694 C 0.87369 0.74987 0.24 0.0
H695 H 0.87852 0.70983 0.12057 0.0
H696 H 0.86654 0.71529 0.23937 0.0
C697 C 0.88488 0.76658 0.20523 0.0
C698 C 0.03569 0.12621 0.97527 0.0
C699 C 0.01413 0.12553 0.00055 0.0
H700 H 0.05565 0.12843 0.8847 0.0
C701 C 0.99733 0.13489 0.96056 0.0
H702 H 0.04921 0.12009 0.00625 0.0
C703 C 1.00119 0.14018 0.89104 0.0
C704 C 0.02161 0.13532 0.86127 0.0
H705 H 0.98071 0.13555 -0.02018 0.0
H706 H 0.9873 0.14433 0.85839 0.0
C707 C 0.03947 0.13133 0.90559 0.0
C708 C 0.61715 0.25665 0.68126 0.0
C709 C 0.6237 0.2769 0.65416 0.0
H710 H 0.6189 0.23533 0.76918 0.0
C711 C 0.62763 0.29406 0.70041 0.0
H712 H 0.61301 0.24336 0.6467 0.0
C713 C 0.63097 0.28947 0.77077 0.0
C714 C 0.63011 0.26782 0.79449 0.0
H715 H 0.63185 0.31011 0.6813 0.0
H716 H 0.63713 0.30232 0.80395 0.0
C717 C 0.62071 0.25197 0.75144 0.0
C718 C 0.53193 0.97586 0.21947 0.0
C719 C 0.51927 0.95778 0.19973 0.0
H720 H 0.54954 0.99186 0.30098 0.0
C721 C 0.5178 0.94005 0.24616 0.0
H722 H 0.53365 0.98974 0.1851 0.0
C723 C 0.52726 0.94123 0.31291 0.0
C724 C 0.53805 0.96026 0.33437 0.0
H725 H 0.50821 0.92586 0.23271 0.0
H726 H 0.52474 0.92797 0.34925 0.0
C727 C 0.54101 0.97715 0.28607 0.0
C728 C 0.86586 0.24478 0.24325 0.0
C729 C 0.85731 0.26057 0.19791 0.0
H730 H 0.87194 0.23574 0.34889 0.0
C731 C 0.85209 0.28129 0.22391 0.0
H732 H 0.8705 0.22885 0.22459 0.0
C733 C 0.8532 0.28532 0.29541 0.0
C734 C 0.85944 0.26861 0.34104 0.0
H735 H 0.84576 0.29388 0.18984 0.0
H736 H 0.84733 0.3007 0.31526 0.0
C737 C 0.86687 0.24877 0.31429 0.0
C738 C 0.53349 0.04266 0.23606 0.0
C739 C 0.52071 0.06068 0.25522 0.0
H740 H 0.55119 0.02666 0.15523 0.0
C741 C 0.5192 0.07836 0.20862 0.0
H742 H 0.53525 0.02883 0.27061 0.0
C743 C 0.52873 0.07719 0.14219 0.0
C744 C 0.53963 0.05821 0.12123 0.0
H745 H 0.50951 0.0925 0.22162 0.0
H746 H 0.52615 0.09039 0.10561 0.0
C747 C 0.54263 0.04137 0.16976 0.0
C748 C 0.6461 0.76525 0.77959 0.0
C749 C 0.65298 0.74502 0.80566 0.0
H750 H 0.63957 0.78459 0.68967 0.0
C751 C 0.6554 0.72745 0.76019 0.0
H752 H 0.6437 0.77895 0.81404 0.0
C753 C 0.65313 0.73071 0.68858 0.0
C754 C 0.64831 0.75154 0.66211 0.0
H755 H 0.66057 0.71168 0.77937 0.0
H756 H 0.65644 0.71725 0.65397 0.0
C757 C 0.64372 0.76848 0.7084 0.0
C758 C 0.03415 0.90595 0.45131 0.0
C759 C 0.01307 0.90206 0.42434 0.0
H760 H 0.05354 0.91113 0.54304 0.0
C761 C 0.99592 0.89712 0.47004 0.0
H762 H 0.04775 0.90952 0.41711 0.0
C763 C 0.99927 0.89808 0.54147 0.0
C764 C 0.01984 0.90382 0.56839 0.0
H765 H 0.9796 0.89368 0.45086 0.0
H766 H 0.98545 0.89542 0.57566 0.0
C767 C 0.03753 0.90674 0.52318 0.0
C768 C 0.61494 0.74779 0.25899 0.0
C769 C 0.61856 0.76791 0.29164 0.0
H770 H 0.62224 0.72835 0.17014 0.0
C771 C 0.62325 0.78612 0.24999 0.0
H772 H 0.61024 0.73364 0.28919 0.0
C773 C 0.63036 0.78307 0.18187 0.0
C774 C 0.63212 0.76192 0.15513 0.0
H775 H 0.62515 0.80209 0.27287 0.0
H776 H 0.63693 0.79689 0.15379 0.0
C777 C 0.62212 0.74469 0.19098 0.0
C778 C 0.4753 0.39197 0.54408 0.0
C779 C 0.49331 0.38403 0.58194 0.0
H780 H 0.46439 0.40459 0.44613 0.0
C781 C 0.51124 0.37544 0.54568 0.0
H782 H 0.46102 0.39824 0.57056 0.0
C783 C 0.51337 0.37947 0.47471 0.0
C784 C 0.49731 0.39158 0.43955 0.0
H785 H 0.52506 0.36857 0.57358 0.0
H786 H 0.5286 0.37524 0.44941 0.0
C787 C 0.47734 0.39583 0.47276 0.0
C788 C 0.88814 0.25978 0.73929 0.0
C789 C 0.87779 0.244 0.69813 0.0
H790 H 0.8964 0.26925 0.84284 0.0
C791 C 0.87546 0.22279 0.72466 0.0
H792 H 0.89104 0.27602 0.71938 0.0
C793 C 0.87864 0.21889 0.79554 0.0
C794 C 0.88388 0.23629 0.83961 0.0
H795 H 0.8684 0.20998 0.69319 0.0
H796 H 0.87348 0.20337 0.81669 0.0
C797 C 0.89142 0.25582 0.81002 0.0
C798 C 1.00756 0.61556 0.05701 0.0
C799 C 0.02748 0.60831 0.08514 0.0
H800 H 0.9883 0.62021 0.96559 0.0
C801 C 0.04481 0.60309 0.04071 0.0
H802 H 0.99406 0.61995 0.09058 0.0
C803 C 0.04145 0.603 0.96873 0.0
C804 C 0.02077 0.60826 0.94095 0.0
H805 H 0.0603 0.59744 0.06156 0.0
H806 H 0.0546 0.59758 0.93536 0.0
C807 C 1.00424 0.6156 -0.0145 0.0
C808 C 0.65617 0.23742 0.27016 0.0
C809 C 0.65384 0.25866 0.29605 0.0
H810 H 0.65888 0.21751 0.17922 0.0
C811 C 0.64892 0.27571 0.24997 0.0
H812 H 0.65963 0.22391 0.30477 0.0
C813 C 0.64852 0.27202 0.17874 0.0
C814 C 0.65281 0.2512 0.15259 0.0
H815 H 0.64665 0.29217 0.26843 0.0
H816 H 0.64606 0.2857 0.1439 0.0
C817 C 0.65555 0.23369 0.19857 0.0
C818 C 0.99874 0.37467 0.47773 0.0
C819 C 0.01576 0.38338 0.51811 0.0
H820 H 0.98838 0.36647 0.37499 0.0
C821 C 0.03727 0.38253 0.49253 0.0
H822 H 0.98213 0.37413 0.49717 0.0
C823 C 0.04086 0.37808 0.42238 0.0
C824 C 0.02284 0.3749 0.37807 0.0
H825 H 0.05095 0.38813 0.52374 0.0
H826 H 0.05705 0.38093 0.40144 0.0
C827 C 1.0024 0.37003 0.40775 0.0
C828 C 0.86467 0.74789 0.68793 0.0
C829 C 0.85932 0.76482 0.73351 0.0
H830 H 0.86503 0.73691 0.58282 0.0
C831 C 0.85364 0.78531 0.70615 0.0
H832 H 0.86954 0.73206 0.70735 0.0
C833 C 0.8512 0.78812 0.63434 0.0
C834 C 0.85431 0.77043 0.58972 0.0
H835 H 0.84969 0.79873 0.74021 0.0
H836 H 0.84531 0.80355 0.61441 0.0
C837 C 0.86209 0.75066 0.61664 0.0
C838 C 0.47795 0.61748 -0.00405 0.0
C839 C 0.49725 0.62503 0.02774 0.0
H840 H 0.46238 0.60925 0.89943 0.0
C841 C 0.51308 0.6356 -0.01272 0.0
H842 H 0.46536 0.60951 0.02632 0.0
C843 C 0.51126 0.63561 0.91519 0.0
C844 C 0.49366 0.62496 0.88293 0.0
H845 H 0.52784 0.64206 0.01083 0.0
H846 H 0.52476 0.64189 0.88468 0.0
C847 C 0.47616 0.61744 0.92341 0.0
C848 C 0.36526 0.23148 0.69799 0.0
C849 C 0.36703 0.24922 0.65243 0.0
H850 H 0.36297 0.22116 0.80414 0.0
C851 C 0.37115 0.27004 0.679 0.0
H852 H 0.36212 0.21528 0.67839 0.0
C853 C 0.3717 0.27342 0.75039 0.0
C854 C 0.36791 0.25606 0.79628 0.0
H855 H 0.37289 0.28391 0.64455 0.0
H856 H 0.37389 0.28985 0.76932 0.0
C857 C 0.36559 0.2349 0.76973 0.0
C858 C 0.54768 0.62619 0.49802 0.0
C859 C 0.52775 0.63054 0.53138 0.0
H860 H 0.56391 0.62371 0.40012 0.0
C861 C 0.51173 0.64274 0.49636 0.0
H862 H 0.56059 0.61735 0.52456 0.0
C863 C 0.51383 0.64677 0.42537 0.0
C864 C 0.53168 0.63809 0.38896 0.0
H865 H 0.49655 0.64704 0.52178 0.0
H866 H 0.50002 0.6537 0.39759 0.0
C867 C 0.54969 0.63006 0.42669 0.0
C868 C 0.14088 0.78689 0.22687 0.0
C869 C 0.14153 0.76546 0.25246 0.0
H870 H 0.13929 0.80677 0.13584 0.0
C871 C 0.13256 0.74872 0.21195 0.0
H872 H 0.14669 0.80034 0.25818 0.0
C873 C 0.1279 0.75254 0.14189 0.0
C874 C 0.13285 0.7729 0.11235 0.0
H875 H 0.13188 0.73218 0.23135 0.0
H876 H 0.12416 0.73873 0.10904 0.0
C877 C 0.13632 0.79065 0.15671 0.0
C878 C 0.0181 0.40026 0.90214 0.0
C879 C 0.99809 0.40721 0.87394 0.0
H880 H 0.03735 0.39576 -0.00633 0.0
C881 C 0.98066 0.41217 0.91829 0.0
H882 H 0.03169 0.39605 0.86866 0.0
C883 C 0.98395 0.41223 -0.00973 0.0
C884 C 1.00466 0.40719 0.01816 0.0
H885 H 0.96508 0.41756 0.89739 0.0
H886 H 0.97069 0.41739 0.02359 0.0
C887 C 0.02136 0.40018 0.97367 0.0
C888 C 0.36274 0.78636 0.76694 0.0
C889 C 0.36392 0.76868 0.81292 0.0
H890 H 0.36131 0.79655 0.66048 0.0
C891 C 0.36779 0.74774 0.78702 0.0
H892 H 0.35982 0.80265 0.78601 0.0
C893 C 0.36875 0.74423 0.71575 0.0
C894 C 0.3656 0.76159 0.66929 0.0
H895 H 0.36909 0.7339 0.82183 0.0
H896 H 0.37075 0.72774 0.69725 0.0
C897 C 0.36346 0.78282 0.69531 0.0
C898 C 0.02075 0.64444 0.54967 0.0
C899 C 1.00056 0.6391 0.58022 0.0
H900 H 0.04083 0.64069 0.45973 0.0
C901 C 0.98252 0.63513 0.53663 0.0
H902 H 0.03473 0.64858 0.58186 0.0
C903 C 0.98602 0.63051 0.46654 0.0
C904 C 1.00745 0.6303 0.44021 0.0
H905 H 0.9665 0.63186 0.55824 0.0
H906 H 0.97244 0.62436 0.43602 0.0
C907 C 0.02432 0.63967 0.47975 0.0
C908 C 0.1437 0.22907 0.24294 0.0
C909 C 0.14385 0.25046 0.21695 0.0
H910 H 0.14256 0.20932 0.33431 0.0
C911 C 0.13449 0.26705 0.25696 0.0
H912 H 0.14983 0.21571 0.21205 0.0
C913 C 0.12987 0.26323 0.32695 0.0
C914 C 0.13528 0.24305 0.35703 0.0
H915 H 0.13343 0.28353 0.23724 0.0
H916 H 0.12577 0.277 0.35944 0.0
C917 C 0.13921 0.22531 0.31306 0.0
C918 C 0.51337 0.38649 0.05517 0.0
C919 C 0.53094 0.39714 0.08755 0.0
H920 H 0.49689 0.38002 0.95941 0.0
C921 C 0.54851 0.40462 0.04725 0.0
H922 H 0.49985 0.38022 0.08559 0.0
C923 C 0.54678 0.40458 0.97471 0.0
C924 C 0.5275 0.39706 0.94278 0.0
H925 H 0.56227 0.4128 0.07136 0.0
H926 H 0.55941 0.41254 0.94447 0.0
C927 C 0.51163 0.38648 -0.01692 0.0
C928 C 0.1222 0.36241 0.05829 0.0
C929 C 0.13838 0.3513 0.09652 0.0
H930 H 0.09527 0.38458 0.0605 0.0
C931 C 0.14084 0.35599 0.1678 0.0
H932 H 0.11993 0.35929 0.00325 0.0
C933 C 0.12651 0.37038 0.20095 0.0
C934 C 0.10957 0.38058 0.1634 0.0
H935 H 0.15313 0.34773 0.19885 0.0
H936 H 0.12823 0.37288 0.2565 0.0
C937 C 0.10806 0.37696 0.09121 0.0
C938 C 0.89368 0.86143 0.38529 0.0
C939 C 0.87755 0.85 0.34806 0.0
H940 H 0.92114 0.88293 0.38091 0.0
C941 C 0.87571 0.85352 0.27582 0.0
H942 H 0.89548 0.85921 0.44101 0.0
C943 C 0.89062 0.86702 0.24104 0.0
C944 C 0.90754 0.87745 0.27784 0.0
H945 H 0.86349 0.84495 0.2455 0.0
H946 H 0.88938 0.86858 0.18496 0.0
C947 C 0.90841 0.87507 0.35071 0.0
C948 C 0.41044 0.64658 0.49872 0.0
C949 C 0.39495 0.66032 0.52992 0.0
H950 H 0.43563 0.62283 0.51387 0.0
C951 C 0.3916 0.65861 0.60221 0.0
H952 H 0.41338 0.64736 0.44318 0.0
C953 C 0.40446 0.6446 0.64287 0.0
C954 C 0.42087 0.63184 0.61223 0.0
H955 H 0.37976 0.66885 0.62808 0.0
H956 H 0.40211 0.64446 0.69876 0.0
C957 C 0.4232 0.63246 0.53935 0.0
C958 C 0.61924 0.15662 0.91267 0.0
C959 C 0.63568 0.15745 0.96419 0.0
H960 H 0.59352 0.138 0.86528 0.0
C961 C 0.63891 0.13919 0.00709 0.0
H962 H 0.61627 0.17042 0.87877 0.0
C963 C 0.62594 0.12062 -0.00087 0.0
C964 C 0.6093 0.11986 0.94836 0.0
H965 H 0.65141 0.13923 0.04721 0.0
H966 H 0.62887 0.10692 0.03346 0.0
C967 C 0.60614 0.13805 0.905 0.0
C968 C 0.12468 0.64514 0.27693 0.0
C969 C 0.11122 0.63186 0.31829 0.0
H970 H 0.1488 0.67034 0.2741 0.0
C971 C 0.11361 0.63273 0.39116 0.0
H972 H 0.12337 0.64482 0.22067 0.0
C973 C 0.12811 0.64753 0.42195 0.0
C974 C 0.1407 0.66165 0.38059 0.0
H975 H 0.10353 0.62272 0.42468 0.0
H976 H 0.12884 0.64844 0.47823 0.0
C977 C 0.13932 0.65978 0.30767 0.0
C978 C 0.61649 0.86049 0.53063 0.0
C979 C 0.63018 0.85895 0.47202 0.0
H980 H 0.5937 0.87998 0.58793 0.0
C981 C 0.63186 0.87694 0.42716 0.0
H982 H 0.61475 0.84688 0.56613 0.0
C983 C 0.61995 0.8959 0.43994 0.0
C984 C 0.60585 0.89729 0.49749 0.0
H985 H 0.64225 0.87635 0.38165 0.0
H986 H 0.62154 0.90935 0.40377 0.0
C987 C 0.60434 0.87941 0.543 0.0
C988 C 0.40416 0.37282 0.81668 0.0
C989 C 0.4208 0.38572 0.84589 0.0
H990 H 0.37961 0.34858 0.83385 0.0
C991 C 0.42365 0.38544 0.91866 0.0
H992 H 0.40141 0.37271 0.76093 0.0
C993 C 0.41122 0.37147 0.96056 0.0
C994 C 0.39553 0.35756 0.93079 0.0
H995 H 0.43628 0.39519 0.94307 0.0
H996 H 0.41458 0.37093 0.01596 0.0
C997 C 0.39162 0.35897 0.85863 0.0
C998 C 0.88352 0.1553 0.13418 0.0
C999 C 0.87955 0.15415 0.06205 0.0
H1000 H 0.90234 0.14369 0.22091 0.0
C1001 C 0.89035 0.13807 0.02332 0.0
H1002 H 0.87545 0.16741 0.16577 0.0
C1003 C 0.90573 0.12434 0.05514 0.0
C1004 C 0.91077 0.12649 0.12635 0.0
H1005 H 0.88761 0.13663 0.96777 0.0
H1006 H 0.91442 0.11277 0.02311 0.0
C1007 C 0.899 0.14169 0.16586 0.0
C1008 C 0.88648 0.66082 0.80145 0.0
C1009 C 0.88687 0.6615 0.8747 0.0
H1010 H 0.90067 0.64777 0.70873 0.0
C1011 C 0.90083 0.64716 0.91071 0.0
H1012 H 0.87588 0.67156 0.77193 0.0
C1013 C 0.91502 0.63345 0.87437 0.0
C1014 C 0.91566 0.63381 0.80112 0.0
H1015 H 0.90148 0.64714 0.96709 0.0
H1016 H 0.92619 0.62329 0.9039 0.0
C1017 C 0.90074 0.64717 0.76511 0.0
C1018 C 0.12406 0.14462 0.53831 0.0
C1019 C 0.13779 0.15877 0.57573 0.0
H1020 H 0.09848 0.12087 0.54253 0.0
C1021 C 0.13746 0.15789 0.64897 0.0
H1022 H 0.12395 0.14475 0.48191 0.0
C1023 C 0.12278 0.14422 0.68383 0.0
C1024 C 0.10812 0.13103 0.64633 0.0
H1025 H 0.14786 0.16848 0.67955 0.0
H1026 H 0.12234 0.14465 0.74019 0.0
C1027 C 0.10943 0.13089 0.57317 0.0
C1028 C 0.62052 0.378 0.32097 0.0
C1029 C 0.60463 0.39102 0.35321 0.0
H1030 H 0.64495 0.35336 0.3334 0.0
C1031 C 0.60311 0.39057 0.42632 0.0
H1032 H 0.62226 0.37802 0.26486 0.0
C1033 C 0.6161 0.37633 0.46573 0.0
C1034 C 0.63098 0.36227 0.43302 0.0
H1035 H 0.59112 0.40042 0.45301 0.0
H1036 H 0.61376 0.37569 0.52159 0.0
C1037 C 0.63357 0.36383 0.36039 0.0
C1038 C 0.42049 0.85444 0.0468 0.0
C1039 C 0.39788 0.85285 0.03363 0.0
H1040 H 0.44822 0.8753 0.0605 0.0
C1041 C 0.38574 0.87208 0.02516 0.0
H1042 H 0.43035 0.83998 0.0539 0.0
C1043 C 0.39606 0.8924 0.02866 0.0
C1044 C 0.41871 0.89396 0.04123 0.0
H1045 H 0.36832 0.87146 0.015 0.0
H1046 H 0.38626 0.90688 0.02118 0.0
C1047 C 0.43076 0.87473 0.05078 0.0
C1048 C 0.90764 0.38391 0.57586 0.0
C1049 C 0.91681 0.37885 0.64125 0.0
H1050 H 0.88526 0.37439 0.49505 0.0
C1051 C 0.90849 0.36099 0.67846 0.0
H1052 H 0.91372 0.39754 0.54579 0.0
C1053 C 0.89213 0.34789 0.64981 0.0
C1054 C 0.88381 0.35212 0.58269 0.0
H1055 H 0.91509 0.35672 0.72912 0.0
H1056 H 0.88667 0.33388 0.67934 0.0
C1057 C 0.89138 0.37059 0.54668 0.0
C1058 C 0.38793 0.14655 0.43489 0.0
C1059 C 0.4001 0.16574 0.42617 0.0
H1060 H 0.38827 0.11174 0.43784 0.0
C1061 C 0.42257 0.16408 0.41135 0.0
H1062 H 0.3706 0.14723 0.44629 0.0
C1063 C 0.43268 0.14376 0.40604 0.0
C1064 C 0.42061 0.12457 0.41591 0.0
H1065 H 0.43245 0.17852 0.40399 0.0
H1066 H 0.45003 0.14313 0.39512 0.0
C1067 C 0.39808 0.1262 0.43008 0.0
C1068 C 0.6144 0.65203 0.02003 0.0
C1069 C 0.63199 0.66297 0.05168 0.0
H1070 H 0.58744 0.63023 0.03296 0.0
C1071 C 0.63711 0.65814 0.12154 0.0
H1072 H 0.61009 0.65527 0.96622 0.0
C1073 C 0.62395 0.64391 0.16022 0.0
C1074 C 0.60554 0.634 0.12966 0.0
H1075 H 0.65054 0.66628 0.14758 0.0
H1076 H 0.62767 0.64141 0.21486 0.0
C1077 C 0.60143 0.63761 0.05839 0.0
C1078 C 0.11038 0.88981 0.94684 0.0
C1079 C 0.10353 0.89067 0.87686 0.0
H1080 H 0.13056 0.87418 0.02329 0.0
C1081 C 0.11394 0.87712 0.82834 0.0
H1082 H 0.10284 0.90009 -0.01438 0.0
C1083 C 0.12992 0.8622 0.85005 0.0
C1084 C 0.13584 0.8605 0.92078 0.0
H1085 H 0.10914 0.87739 0.77399 0.0
H1086 H 0.13696 0.85141 0.81176 0.0
C1087 C 0.12632 0.87492 0.96851 0.0
loop_
_geom_bond_atom_site_label_1
_geom_bond_atom_site_label_2
_geom_bond_distance
_geom_bond_site_symmetry_2
_ccdc_geom_bond_type
Zn0 O3 2.031 1_554 S
Zn0 O5 2.049 . S
Zn0 O10 2.067 . S
Zn1 O2 1.962 1_554 S
Zn1 O4 1.986 . S
Zn1 O6 1.996 . S
Zn1 O9 1.943 . S
O2 Zn1 1.962 1_556 S
O2 C7 1.254 . S
O3 Zn0 2.031 1_556 S
O3 C7 1.269 . S
O4 Zn1 1.986 . S
O4 C11 1.262 . S
O5 Zn0 2.049 . S
O5 C13 1.260 . S
O6 Zn1 1.996 . S
O6 C13 1.257 . S
C7 O2 1.254 . S
C7 O3 1.269 . S
C8 O9 1.249 . S
C8 O10 1.270 . S
O9 Zn1 1.943 . S
O9 C8 1.249 . S
O10 Zn0 2.067 . S
O10 C8 1.270 . S
C11 O4 1.262 . S
C11 O12 1.232 . S
O12 C11 1.232 . S
C13 O5 1.260 . S
C13 O6 1.257 . S
Zn14 O17 2.031 . S
Zn14 O19 2.049 . S
Zn14 O24 2.067 . S
Zn15 O16 1.962 . S
Zn15 O18 1.986 . S
Zn15 O20 1.996 . S
Zn15 O23 1.943 . S
O16 Zn15 1.962 . S
O16 C21 1.254 . S
O17 Zn14 2.031 . S
O17 C21 1.269 . S
O18 Zn15 1.986 . S
O18 C25 1.262 . S
O19 Zn14 2.049 . S
O19 C27 1.260 . S
O20 Zn15 1.996 . S
O20 C27 1.257 . S
C21 O16 1.254 . S
C21 O17 1.269 . S
C22 O23 1.249 . S
C22 O24 1.270 . S
O23 Zn15 1.943 . S
O23 C22 1.249 . S
O24 Zn14 2.067 . S
O24 C22 1.270 . S
C25 O18 1.262 . S
C25 O26 1.232 . S
O26 C25 1.232 . S
C27 O19 1.260 . S
C27 O20 1.257 . S
Zn28 O31 2.031 . S
Zn28 O33 2.049 . S
Zn28 O38 2.067 . S
Zn29 O30 1.962 . S
Zn29 O32 1.986 . S
Zn29 O34 1.996 . S
Zn29 O37 1.943 . S
O30 Zn29 1.962 . S
O30 C35 1.254 . S
O31 Zn28 2.031 . S
O31 C35 1.269 . S
O32 Zn29 1.986 . S
O32 C39 1.262 . S
O33 Zn28 2.049 . S
O33 C41 1.260 . S
O34 Zn29 1.996 . S
O34 C41 1.257 . S
C35 O30 1.254 . S
C35 O31 1.269 . S
C36 O37 1.249 . S
C36 O38 1.270 . S
O37 Zn29 1.943 . S
O37 C36 1.249 . S
O38 Zn28 2.067 . S
O38 C36 1.270 . S
C39 O32 1.262 . S
C39 O40 1.232 . S
O40 C39 1.232 . S
C41 O33 1.260 . S
C41 O34 1.257 . S
Zn42 O45 2.031 . S
Zn42 O47 2.049 . S
Zn42 O52 2.067 . S
Zn43 O44 1.962 . S
Zn43 O46 1.986 . S
Zn43 O48 1.996 . S
Zn43 O51 1.943 . S
O44 Zn43 1.962 . S
O44 C49 1.254 . S
O45 Zn42 2.031 . S
O45 C49 1.269 . S
O46 Zn43 1.986 . S
O46 C53 1.262 . S
O47 Zn42 2.049 . S
O47 C55 1.260 . S
O48 Zn43 1.996 . S
O48 C55 1.257 . S
C49 O44 1.254 . S
C49 O45 1.269 . S
C50 O51 1.249 . S
C50 O52 1.270 . S
O51 Zn43 1.943 . S
O51 C50 1.249 . S
O52 Zn42 2.067 . S
O52 C50 1.270 . S
C53 O46 1.262 . S
C53 O54 1.232 . S
O54 C53 1.232 . S
C55 O47 1.260 . S
C55 O48 1.257 . S
Zn56 O59 2.031 . S
Zn56 O61 2.049 . S
Zn56 O66 2.067 . S
Zn57 O58 1.962 . S
Zn57 O60 1.986 . S
Zn57 O62 1.996 . S
Zn57 O65 1.943 . S
O58 Zn57 1.962 . S
O58 C63 1.254 . S
O59 Zn56 2.031 . S
O59 C63 1.269 . S
O60 Zn57 1.986 . S
O60 C67 1.262 . S
O61 Zn56 2.049 . S
O61 C69 1.260 . S
O62 Zn57 1.996 . S
O62 C69 1.257 . S
C63 O58 1.254 . S
C63 O59 1.269 . S
C64 O65 1.249 . S
C64 O66 1.270 . S
O65 Zn57 1.943 . S
O65 C64 1.249 . S
O66 Zn56 2.067 . S
O66 C64 1.270 . S
C67 O60 1.262 . S
C67 O68 1.232 . S
O68 C67 1.232 . S
C69 O61 1.260 . S
C69 O62 1.257 . S
Zn70 O73 2.031 . S
Zn70 O75 2.049 . S
Zn70 O80 2.067 . S
Zn71 O72 1.962 . S
Zn71 O74 1.986 . S
Zn71 O76 1.996 . S
Zn71 O79 1.943 . S
O72 Zn71 1.962 . S
O72 C77 1.254 . S
O73 Zn70 2.031 . S
O73 C77 1.269 . S
O74 Zn71 1.986 . S
O74 C81 1.262 . S
O75 Zn70 2.049 . S
O75 C83 1.260 . S
O76 Zn71 1.996 . S
O76 C83 1.257 . S
C77 O72 1.254 . S
C77 O73 1.269 . S
C78 O79 1.249 . S
C78 O80 1.270 . S
O79 Zn71 1.943 . S
O79 C78 1.249 . S
O80 Zn70 2.067 . S
O80 C78 1.270 . S
C81 O74 1.262 . S
C81 O82 1.232 . S
O82 C81 1.232 . S
C83 O75 1.260 . S
C83 O76 1.257 . S
Zn84 O87 2.031 1_556 S
Zn84 O89 2.049 . S
Zn84 O94 2.067 . S
Zn85 O86 1.962 1_556 S
Zn85 O88 1.986 . S
Zn85 O90 1.996 . S
Zn85 O93 1.943 . S
O86 Zn85 1.962 1_554 S
O86 C91 1.254 . S
O87 Zn84 2.031 1_554 S
O87 C91 1.269 . S
O88 Zn85 1.986 . S
O88 C95 1.262 . S
O89 Zn84 2.049 . S
O89 C97 1.260 . S
O90 Zn85 1.996 . S
O90 C97 1.257 . S
C91 O86 1.254 . S
C91 O87 1.269 . S
C92 O93 1.249 . S
C92 O94 1.270 . S
O93 Zn85 1.943 . S
O93 C92 1.249 . S
O94 Zn84 2.067 . S
O94 C92 1.270 . S
C95 O88 1.262 . S
C95 O96 1.232 . S
O96 C95 1.232 . S
C97 O89 1.260 . S
C97 O90 1.257 . S
Zn98 O101 2.031 . S
Zn98 O103 2.049 . S
Zn98 O108 2.067 . S
Zn99 O100 1.962 . S
Zn99 O102 1.986 . S
Zn99 O104 1.996 . S
Zn99 O107 1.943 . S
O100 Zn99 1.962 . S
O100 C105 1.254 . S
O101 Zn98 2.031 . S
O101 C105 1.269 . S
O102 Zn99 1.986 . S
O102 C109 1.262 . S
O103 Zn98 2.049 . S
O103 C111 1.260 . S
O104 Zn99 1.996 . S
O104 C111 1.257 . S
C105 O100 1.254 . S
C105 O101 1.269 . S
C106 O107 1.249 . S
C106 O108 1.270 . S
O107 Zn99 1.943 . S
O107 C106 1.249 . S
O108 Zn98 2.067 . S
O108 C106 1.270 . S
C109 O102 1.262 . S
C109 O110 1.232 . S
O110 C109 1.232 . S
C111 O103 1.260 . S
C111 O104 1.257 . S
Zn112 O115 2.031 1_556 S
Zn112 O117 2.049 . S
Zn112 O122 2.067 . S
Zn113 O114 1.962 1_556 S
Zn113 O116 1.986 . S
Zn113 O118 1.996 . S
Zn113 O121 1.943 . S
O114 Zn113 1.962 1_554 S
O114 C119 1.254 . S
O115 Zn112 2.031 1_554 S
O115 C119 1.269 . S
O116 Zn113 1.986 . S
O116 C123 1.262 . S
O117 Zn112 2.049 . S
O117 C125 1.260 . S
O118 Zn113 1.996 . S
O118 C125 1.257 . S
C119 O114 1.254 . S
C119 O115 1.269 . S
C120 O121 1.249 . S
C120 O122 1.270 . S
O121 Zn113 1.943 . S
O121 C120 1.249 . S
O122 Zn112 2.067 . S
O122 C120 1.270 . S
C123 O116 1.262 . S
C123 O124 1.232 . S
O124 C123 1.232 . S
C125 O117 1.260 . S
C125 O118 1.257 . S
Zn126 O129 2.031 . S
Zn126 O131 2.049 . S
Zn126 O136 2.067 . S
Zn127 O128 1.962 . S
Zn127 O130 1.986 . S
Zn127 O132 1.996 . S
Zn127 O135 1.943 . S
O128 Zn127 1.962 . S
O128 C133 1.254 . S
O129 Zn126 2.031 . S
O129 C133 1.269 . S
O130 Zn127 1.986 . S
O130 C137 1.262 . S
O131 Zn126 2.049 . S
O131 C139 1.260 . S
O132 Zn127 1.996 . S
O132 C139 1.257 . S
C133 O128 1.254 . S
C133 O129 1.269 . S
C134 O135 1.249 . S
C134 O136 1.270 . S
O135 Zn127 1.943 . S
O135 C134 1.249 . S
O136 Zn126 2.067 . S
O136 C134 1.270 . S
C137 O130 1.262 . S
C137 O138 1.232 . S
O138 C137 1.232 . S
C139 O131 1.260 . S
C139 O132 1.257 . S
Zn140 O143 2.031 . S
Zn140 O145 2.049 . S
Zn140 O150 2.067 . S
Zn141 O142 1.962 . S
Zn141 O144 1.986 . S
Zn141 O146 1.996 . S
Zn141 O149 1.943 . S
O142 Zn141 1.962 . S
O142 C147 1.254 . S
O143 Zn140 2.031 . S
O143 C147 1.269 . S
O144 Zn141 1.986 . S
O144 C151 1.262 . S
O145 Zn140 2.049 . S
O145 C153 1.260 . S
O146 Zn141 1.996 . S
O146 C153 1.257 . S
C147 O142 1.254 . S
C147 O143 1.269 . S
C148 O149 1.249 . S
C148 O150 1.270 . S
O149 Zn141 1.943 . S
O149 C148 1.249 . S
O150 Zn140 2.067 . S
O150 C148 1.270 . S
C151 O144 1.262 . S
C151 O152 1.232 . S
O152 C151 1.232 . S
C153 O145 1.260 . S
C153 O146 1.257 . S
Zn154 O157 2.031 . S
Zn154 O159 2.049 . S
Zn154 O164 2.067 . S
Zn155 O156 1.962 . S
Zn155 O158 1.986 . S
Zn155 O160 1.996 . S
Zn155 O163 1.943 . S
O156 Zn155 1.962 . S
O156 C161 1.254 . S
O157 Zn154 2.031 . S
O157 C161 1.269 . S
O158 Zn155 1.986 . S
O158 C165 1.262 . S
O159 Zn154 2.049 . S
O159 C167 1.260 . S
O160 Zn155 1.996 . S
O160 C167 1.257 . S
C161 O156 1.254 . S
C161 O157 1.269 . S
C162 O163 1.249 . S
C162 O164 1.270 . S
O163 Zn155 1.943 . S
O163 C162 1.249 . S
O164 Zn154 2.067 . S
O164 C162 1.270 . S
C165 O158 1.262 . S
C165 O166 1.232 . S
O166 C165 1.232 . S
C167 O159 1.260 . S
C167 O160 1.257 . S
Zn168 O171 2.031 . S
Zn168 O173 2.049 . S
Zn168 O178 2.067 . S
Zn169 O170 1.962 . S
Zn169 O172 1.986 . S
Zn169 O174 1.996 . S
Zn169 O177 1.943 . S
O170 Zn169 1.962 . S
O170 C175 1.254 . S
O171 Zn168 2.031 . S
O171 C175 1.269 . S
O172 Zn169 1.986 . S
O172 C179 1.262 . S
O173 Zn168 2.049 . S
O173 C181 1.260 . S
O174 Zn169 1.996 . S
O174 C181 1.257 . S
C175 O170 1.254 . S
C175 O171 1.269 . S
C176 O177 1.249 . S
C176 O178 1.270 . S
O177 Zn169 1.943 . S
O177 C176 1.249 . S
O178 Zn168 2.067 . S
O178 C176 1.270 . S
C179 O172 1.262 . S
C179 O180 1.232 . S
O180 C179 1.232 . S
C181 O173 1.260 . S
C181 O174 1.257 . S
Zn182 O185 2.031 . S
Zn182 O187 2.049 . S
Zn182 O192 2.067 . S
Zn183 O184 1.962 . S
Zn183 O186 1.986 . S
Zn183 O188 1.996 . S
Zn183 O191 1.943 . S
O184 Zn183 1.962 . S
O184 C189 1.254 . S
O185 Zn182 2.031 . S
O185 C189 1.269 . S
O186 Zn183 1.986 . S
O186 C193 1.262 . S
O187 Zn182 2.049 . S
O187 C195 1.260 . S
O188 Zn183 1.996 . S
O188 C195 1.257 . S
C189 O184 1.254 . S
C189 O185 1.269 . S
C190 O191 1.249 . S
C190 O192 1.270 . S
O191 Zn183 1.943 . S
O191 C190 1.249 . S
O192 Zn182 2.067 . S
O192 C190 1.270 . S
C193 O186 1.262 . S
C193 O194 1.232 . S
O194 C193 1.232 . S
C195 O187 1.260 . S
C195 O188 1.257 . S
Zn196 O199 2.031 1_554 S
Zn196 O201 2.049 . S
Zn196 O206 2.067 . S
Zn197 O198 1.962 1_554 S
Zn197 O200 1.986 . S
Zn197 O202 1.996 . S
Zn197 O205 1.943 . S
O198 Zn197 1.962 1_556 S
O198 C203 1.254 . S
O199 Zn196 2.031 1_556 S
O199 C203 1.269 . S
O200 Zn197 1.986 . S
O200 C207 1.262 . S
O201 Zn196 2.049 . S
O201 C209 1.260 . S
O202 Zn197 1.996 . S
O202 C209 1.257 . S
C203 O198 1.254 . S
C203 O199 1.269 . S
C204 O205 1.249 . S
C204 O206 1.270 . S
O205 Zn197 1.943 . S
O205 C204 1.249 . S
O206 Zn196 2.067 . S
O206 C204 1.270 . S
C207 O200 1.262 . S
C207 O208 1.232 . S
O208 C207 1.232 . S
C209 O201 1.260 . S
C209 O202 1.257 . S
Zn210 O213 2.031 . S
Zn210 O215 2.049 . S
Zn210 O220 2.067 . S
Zn211 O212 1.962 . S
Zn211 O214 1.986 . S
Zn211 O216 1.996 . S
Zn211 O219 1.943 . S
O212 Zn211 1.962 . S
O212 C217 1.254 . S
O213 Zn210 2.031 . S
O213 C217 1.269 . S
O214 Zn211 1.986 . S
O214 C221 1.262 . S
O215 Zn210 2.049 . S
O215 C223 1.260 . S
O216 Zn211 1.996 . S
O216 C223 1.257 . S
C217 O212 1.254 . S
C217 O213 1.269 . S
C218 O219 1.249 . S
C218 O220 1.270 . S
O219 Zn211 1.943 . S
O219 C218 1.249 . S
O220 Zn210 2.067 . S
O220 C218 1.270 . S
C221 O214 1.262 . S
C221 O222 1.232 . S
O222 C221 1.232 . S
C223 O215 1.260 . S
C223 O216 1.257 . S
Zn224 O227 2.031 . S
Zn224 O229 2.049 . S
Zn224 O234 2.067 . S
Zn225 O226 1.962 . S
Zn225 O228 1.986 . S
Zn225 O230 1.996 . S
Zn225 O233 1.943 . S
O226 Zn225 1.962 . S
O226 C231 1.254 . S
O227 Zn224 2.031 . S
O227 C231 1.269 . S
O228 Zn225 1.986 . S
O228 C235 1.262 . S
O229 Zn224 2.049 . S
O229 C237 1.260 . S
O230 Zn225 1.996 . S
O230 C237 1.257 . S
C231 O226 1.254 . S
C231 O227 1.269 . S
C232 O233 1.249 . S
C232 O234 1.270 . S
O233 Zn225 1.943 . S
O233 C232 1.249 . S
O234 Zn224 2.067 . S
O234 C232 1.270 . S
C235 O228 1.262 . S
C235 O236 1.232 . S
O236 C235 1.232 . S
C237 O229 1.260 . S
C237 O230 1.257 . S
Zn238 O241 2.031 . S
Zn238 O243 2.049 . S
Zn238 O248 2.067 . S
Zn239 O240 1.962 . S
Zn239 O242 1.986 . S
Zn239 O244 1.996 . S
Zn239 O247 1.943 . S
O240 Zn239 1.962 . S
O240 C245 1.254 . S
O241 Zn238 2.031 . S
O241 C245 1.269 . S
O242 Zn239 1.986 . S
O242 C249 1.262 . S
O243 Zn238 2.049 . S
O243 C251 1.260 . S
O244 Zn239 1.996 . S
O244 C251 1.257 . S
C245 O240 1.254 . S
C245 O241 1.269 . S
C246 O247 1.249 . S
C246 O248 1.270 . S
O247 Zn239 1.943 . S
O247 C246 1.249 . S
O248 Zn238 2.067 . S
O248 C246 1.270 . S
C249 O242 1.262 . S
C249 O250 1.232 . S
O250 C249 1.232 . S
C251 O243 1.260 . S
C251 O244 1.257 . S
Zn252 O255 2.031 1_554 S
Zn252 O257 2.049 . S
Zn252 O262 2.067 . S
Zn253 O254 1.962 1_554 S
Zn253 O256 1.986 . S
Zn253 O258 1.996 . S
Zn253 O261 1.943 . S
O254 Zn253 1.962 1_556 S
O254 C259 1.254 . S
O255 Zn252 2.031 1_556 S
O255 C259 1.269 . S
O256 Zn253 1.986 . S
O256 C263 1.262 . S
O257 Zn252 2.049 . S
O257 C265 1.260 . S
O258 Zn253 1.996 . S
O258 C265 1.257 . S
C259 O254 1.254 . S
C259 O255 1.269 . S
C260 O261 1.249 . S
C260 O262 1.270 . S
O261 Zn253 1.943 . S
O261 C260 1.249 . S
O262 Zn252 2.067 . S
O262 C260 1.270 . S
C263 O256 1.262 . S
C263 O264 1.232 . S
O264 C263 1.232 . S
C265 O257 1.260 . S
C265 O258 1.257 . S
Zn266 O269 2.031 . S
Zn266 O271 2.049 . S
Zn266 O276 2.067 . S
Zn267 O268 1.962 . S
Zn267 O270 1.986 . S
Zn267 O272 1.996 . S
Zn267 O275 1.943 . S
O268 Zn267 1.962 . S
O268 C273 1.254 . S
O269 Zn266 2.031 . S
O269 C273 1.269 . S
O270 Zn267 1.986 . S
O270 C277 1.262 . S
O271 Zn266 2.049 . S
O271 C279 1.260 . S
O272 Zn267 1.996 . S
O272 C279 1.257 . S
C273 O268 1.254 . S
C273 O269 1.269 . S
C274 O275 1.249 . S
C274 O276 1.270 . S
O275 Zn267 1.943 . S
O275 C274 1.249 . S
O276 Zn266 2.067 . S
O276 C274 1.270 . S
C277 O270 1.262 . S
C277 O278 1.232 . S
O278 C277 1.232 . S
C279 O271 1.260 . S
C279 O272 1.257 . S
Zn280 O283 2.031 1_556 S
Zn280 O285 2.049 . S
Zn280 O290 2.067 . S
Zn281 O282 1.962 1_556 S
Zn281 O284 1.986 . S
Zn281 O286 1.996 . S
Zn281 O289 1.943 . S
O282 Zn281 1.962 1_554 S
O282 C287 1.254 . S
O283 Zn280 2.031 1_554 S
O283 C287 1.269 . S
O284 Zn281 1.986 . S
O284 C291 1.262 . S
O285 Zn280 2.049 . S
O285 C293 1.260 . S
O286 Zn281 1.996 . S
O286 C293 1.257 . S
C287 O282 1.254 . S
C287 O283 1.269 . S
C288 O289 1.249 . S
C288 O290 1.270 . S
O289 Zn281 1.943 . S
O289 C288 1.249 . S
O290 Zn280 2.067 . S
O290 C288 1.270 . S
C291 O284 1.262 . S
C291 O292 1.232 . S
O292 C291 1.232 . S
C293 O285 1.260 . S
C293 O286 1.257 . S
Zn294 O297 2.031 . S
Zn294 O299 2.049 . S
Zn294 O304 2.067 . S
Zn295 O296 1.962 . S
Zn295 O298 1.986 . S
Zn295 O300 1.996 . S
Zn295 O303 1.943 . S
O296 Zn295 1.962 . S
O296 C301 1.254 . S
O297 Zn294 2.031 . S
O297 C301 1.269 . S
O298 Zn295 1.986 . S
O298 C305 1.262 . S
O299 Zn294 2.049 . S
O299 C307 1.260 . S
O300 Zn295 1.996 . S
O300 C307 1.257 . S
C301 O296 1.254 . S
C301 O297 1.269 . S
C302 O303 1.249 . S
C302 O304 1.270 . S
O303 Zn295 1.943 . S
O303 C302 1.249 . S
O304 Zn294 2.067 . S
O304 C302 1.270 . S
C305 O298 1.262 . S
C305 O306 1.232 . S
O306 C305 1.232 . S
C307 O299 1.260 . S
C307 O300 1.257 . S
Zn308 O311 2.031 . S
Zn308 O313 2.049 . S
Zn308 O318 2.067 . S
Zn309 O310 1.962 . S
Zn309 O312 1.986 . S
Zn309 O314 1.996 . S
Zn309 O317 1.943 . S
O310 Zn309 1.962 . S
O310 C315 1.254 . S
O311 Zn308 2.031 . S
O311 C315 1.269 . S
O312 Zn309 1.986 . S
O312 C319 1.262 . S
O313 Zn308 2.049 . S
O313 C321 1.260 . S
O314 Zn309 1.996 . S
O314 C321 1.257 . S
C315 O310 1.254 . S
C315 O311 1.269 . S
C316 O317 1.249 . S
C316 O318 1.270 . S
O317 Zn309 1.943 . S
O317 C316 1.249 . S
O318 Zn308 2.067 . S
O318 C316 1.270 . S
C319 O312 1.262 . S
C319 O320 1.232 . S
O320 C319 1.232 . S
C321 O313 1.260 . S
C321 O314 1.257 . S
Zn322 O325 2.031 . S
Zn322 O327 2.049 . S
Zn322 O332 2.067 . S
Zn323 O324 1.962 . S
Zn323 O326 1.986 . S
Zn323 O328 1.996 . S
Zn323 O331 1.943 . S
O324 Zn323 1.962 . S
O324 C329 1.254 . S
O325 Zn322 2.031 . S
O325 C329 1.269 . S
O326 Zn323 1.986 . S
O326 C333 1.262 . S
O327 Zn322 2.049 . S
O327 C335 1.260 . S
O328 Zn323 1.996 . S
O328 C335 1.257 . S
C329 O324 1.254 . S
C329 O325 1.269 . S
C330 O331 1.249 . S
C330 O332 1.270 . S
O331 Zn323 1.943 . S
O331 C330 1.249 . S
O332 Zn322 2.067 . S
O332 C330 1.270 . S
C333 O326 1.262 . S
C333 O334 1.232 . S
O334 C333 1.232 . S
C335 O327 1.260 . S
C335 O328 1.257 . S
Zn336 O339 2.031 . S
Zn336 O341 2.049 . S
Zn336 O346 2.067 . S
Zn337 O338 1.962 . S
Zn337 O340 1.986 . S
Zn337 O342 1.996 . S
Zn337 O345 1.943 . S
O338 Zn337 1.962 . S
O338 C343 1.254 . S
O339 Zn336 2.031 . S
O339 C343 1.269 . S
O340 Zn337 1.986 . S
O340 C347 1.262 . S
O341 Zn336 2.049 . S
O341 C349 1.260 . S
O342 Zn337 1.996 . S
O342 C349 1.257 . S
C343 O338 1.254 . S
C343 O339 1.269 . S
C344 O345 1.249 . S
C344 O346 1.270 . S
O345 Zn337 1.943 . S
O345 C344 1.249 . S
O346 Zn336 2.067 . S
O346 C344 1.270 . S
C347 O340 1.262 . S
C347 O348 1.232 . S
O348 C347 1.232 . S
C349 O341 1.260 . S
C349 O342 1.257 . S
Zn350 O353 2.031 . S
Zn350 O355 2.049 . S
Zn350 O360 2.067 . S
Zn351 O352 1.962 . S
Zn351 O354 1.986 . S
Zn351 O356 1.996 . S
Zn351 O359 1.943 . S
O352 Zn351 1.962 . S
O352 C357 1.254 . S
O353 Zn350 2.031 . S
O353 C357 1.269 . S
O354 Zn351 1.986 . S
O354 C361 1.262 . S
O355 Zn350 2.049 . S
O355 C363 1.260 . S
O356 Zn351 1.996 . S
O356 C363 1.257 . S
C357 O352 1.254 . S
C357 O353 1.269 . S
C358 O359 1.249 . S
C358 O360 1.270 . S
O359 Zn351 1.943 . S
O359 C358 1.249 . S
O360 Zn350 2.067 . S
O360 C358 1.270 . S
C361 O354 1.262 . S
C361 O362 1.232 . S
O362 C361 1.232 . S
C363 O355 1.260 . S
C363 O356 1.257 . S
Zn364 O367 2.031 1_556 S
Zn364 O369 2.049 . S
Zn364 O374 2.067 . S
Zn365 O366 1.962 1_556 S
Zn365 O368 1.986 . S
Zn365 O370 1.996 . S
Zn365 O373 1.943 . S
O366 Zn365 1.962 1_554 S
O366 C371 1.254 . S
O367 Zn364 2.031 1_554 S
O367 C371 1.269 . S
O368 Zn365 1.986 . S
O368 C375 1.262 . S
O369 Zn364 2.049 . S
O369 C377 1.260 . S
O370 Zn365 1.996 . S
O370 C377 1.257 . S
C371 O366 1.254 . S
C371 O367 1.269 . S
C372 O373 1.249 . S
C372 O374 1.270 . S
O373 Zn365 1.943 . S
O373 C372 1.249 . S
O374 Zn364 2.067 . S
O374 C372 1.270 . S
C375 O368 1.262 . S
C375 O376 1.232 . S
O376 C375 1.232 . S
C377 O369 1.260 . S
C377 O370 1.257 . S
Zn378 O381 2.031 . S
Zn378 O383 2.049 . S
Zn378 O388 2.067 . S
Zn379 O380 1.962 . S
Zn379 O382 1.986 . S
Zn379 O384 1.996 . S
Zn379 O387 1.943 . S
O380 Zn379 1.962 . S
O380 C385 1.254 . S
O381 Zn378 2.031 . S
O381 C385 1.269 . S
O382 Zn379 1.986 . S
O382 C389 1.262 . S
O383 Zn378 2.049 . S
O383 C391 1.260 . S
O384 Zn379 1.996 . S
O384 C391 1.257 . S
C385 O380 1.254 . S
C385 O381 1.269 . S
C386 O387 1.249 . S
C386 O388 1.270 . S
O387 Zn379 1.943 . S
O387 C386 1.249 . S
O388 Zn378 2.067 . S
O388 C386 1.270 . S
C389 O382 1.262 . S
C389 O390 1.232 . S
O390 C389 1.232 . S
C391 O383 1.260 . S
C391 O384 1.257 . S
Zn392 O395 2.031 1_554 S
Zn392 O397 2.049 . S
Zn392 O402 2.067 . S
Zn393 O394 1.962 1_554 S
Zn393 O396 1.986 . S
Zn393 O398 1.996 . S
Zn393 O401 1.943 . S
O394 Zn393 1.962 1_556 S
O394 C399 1.254 . S
O395 Zn392 2.031 1_556 S
O395 C399 1.269 . S
O396 Zn393 1.986 . S
O396 C403 1.262 . S
O397 Zn392 2.049 . S
O397 C405 1.260 . S
O398 Zn393 1.996 . S
O398 C405 1.257 . S
C399 O394 1.254 . S
C399 O395 1.269 . S
C400 O401 1.249 . S
C400 O402 1.270 . S
O401 Zn393 1.943 . S
O401 C400 1.249 . S
O402 Zn392 2.067 . S
O402 C400 1.270 . S
C403 O396 1.262 . S
C403 O404 1.232 . S
O404 C403 1.232 . S
C405 O397 1.260 . S
C405 O398 1.257 . S
Zn406 O409 2.031 . S
Zn406 O411 2.049 . S
Zn406 O416 2.067 . S
Zn407 O408 1.962 . S
Zn407 O410 1.986 . S
Zn407 O412 1.996 . S
Zn407 O415 1.943 . S
O408 Zn407 1.962 . S
O408 C413 1.254 . S
O409 Zn406 2.031 . S
O409 C413 1.269 . S
O410 Zn407 1.986 . S
O410 C417 1.262 . S
O411 Zn406 2.049 . S
O411 C419 1.260 . S
O412 Zn407 1.996 . S
O412 C419 1.257 . S
C413 O408 1.254 . S
C413 O409 1.269 . S
C414 O415 1.249 . S
C414 O416 1.270 . S
O415 Zn407 1.943 . S
O415 C414 1.249 . S
O416 Zn406 2.067 . S
O416 C414 1.270 . S
C417 O410 1.262 . S
C417 O418 1.232 . S
O418 C417 1.232 . S
C419 O411 1.260 . S
C419 O412 1.257 . S
Zn420 O423 2.031 . S
Zn420 O425 2.049 . S
Zn420 O430 2.067 . S
Zn421 O422 1.962 . S
Zn421 O424 1.986 . S
Zn421 O426 1.996 . S
Zn421 O429 1.943 . S
O422 Zn421 1.962 . S
O422 C427 1.254 . S
O423 Zn420 2.031 . S
O423 C427 1.269 . S
O424 Zn421 1.986 . S
O424 C431 1.262 . S
O425 Zn420 2.049 . S
O425 C433 1.260 . S
O426 Zn421 1.996 . S
O426 C433 1.257 . S
C427 O422 1.254 . S
C427 O423 1.269 . S
C428 O429 1.249 . S
C428 O430 1.270 . S
O429 Zn421 1.943 . S
O429 C428 1.249 . S
O430 Zn420 2.067 . S
O430 C428 1.270 . S
C431 O424 1.262 . S
C431 O432 1.232 . S
O432 C431 1.232 . S
C433 O425 1.260 . S
C433 O426 1.257 . S
Zn434 O437 2.031 . S
Zn434 O439 2.049 . S
Zn434 O444 2.067 . S
Zn435 O436 1.962 . S
Zn435 O438 1.986 . S
Zn435 O440 1.996 . S
Zn435 O443 1.943 . S
O436 Zn435 1.962 . S
O436 C441 1.254 . S
O437 Zn434 2.031 . S
O437 C441 1.269 . S
O438 Zn435 1.986 . S
O438 C445 1.262 . S
O439 Zn434 2.049 . S
O439 C447 1.260 . S
O440 Zn435 1.996 . S
O440 C447 1.257 . S
C441 O436 1.254 . S
C441 O437 1.269 . S
C442 O443 1.249 . S
C442 O444 1.270 . S
O443 Zn435 1.943 . S
O443 C442 1.249 . S
O444 Zn434 2.067 . S
O444 C442 1.270 . S
C445 O438 1.262 . S
C445 O446 1.232 . S
O446 C445 1.232 . S
C447 O439 1.260 . S
C447 O440 1.257 . S
C448 C449 1.387 . S
C448 H452 0.950 . S
C448 C457 1.390 1_556 S
C449 C448 1.387 . S
C449 C451 1.387 . S
H450 C457 0.950 . S
C451 C449 1.387 . S
C451 C453 1.390 1_556 S
C451 H455 0.950 . S
H452 C448 0.950 . S
C453 C451 1.390 1_554 S
C453 C454 1.387 . S
C453 H456 0.950 . S
C454 C453 1.387 . S
C454 C457 1.387 . S
H455 C451 0.950 . S
H456 C453 0.950 . S
C457 C448 1.390 1_554 S
C457 H450 0.950 . S
C457 C454 1.387 . S
C458 C459 1.387 . S
C458 H462 0.950 . S
C458 C467 1.390 1_565 S
C459 C458 1.387 . S
C459 C461 1.387 . S
H460 C467 0.950 . S
C461 C459 1.387 . S
C461 C463 1.390 1_565 S
C461 H465 0.950 . S
H462 C458 0.950 . S
C463 C461 1.390 1_545 S
C463 C464 1.387 . S
C463 H466 0.950 . S
C464 C463 1.387 . S
C464 C467 1.387 . S
H465 C461 0.950 . S
H466 C463 0.950 . S
C467 C458 1.390 1_545 S
C467 H460 0.950 . S
C467 C464 1.387 . S
C468 C469 1.387 . S
C468 H472 0.950 . S
C468 C477 1.390 . S
C469 C468 1.387 . S
C469 C471 1.387 . S
H470 C477 0.950 . S
C471 C469 1.387 . S
C471 C473 1.390 . S
C471 H475 0.950 . S
H472 C468 0.950 . S
C473 C471 1.390 . S
C473 C474 1.387 . S
C473 H476 0.950 . S
C474 C473 1.387 . S
C474 C477 1.387 . S
H475 C471 0.950 . S
H476 C473 0.950 . S
C477 C468 1.390 . S
C477 H470 0.950 . S
C477 C474 1.387 . S
C478 C479 1.387 . S
C478 H482 0.950 . S
C478 C487 1.390 1_545 S
C479 C478 1.387 . S
C479 C481 1.387 . S
H480 C487 0.950 . S
C481 C479 1.387 . S
C481 C483 1.390 1_545 S
C481 H485 0.950 . S
H482 C478 0.950 . S
C483 C481 1.390 1_565 S
C483 C484 1.387 . S
C483 H486 0.950 . S
C484 C483 1.387 . S
C484 C487 1.387 . S
H485 C481 0.950 . S
H486 C483 0.950 . S
C487 C478 1.390 1_565 S
C487 H480 0.950 . S
C487 C484 1.387 . S
C488 C489 1.387 . S
C488 H492 0.950 . S
C488 C497 1.390 1_554 S
C489 C488 1.387 . S
C489 C491 1.387 . S
H490 C497 0.950 . S
C491 C489 1.387 . S
C491 C493 1.390 1_554 S
C491 H495 0.950 . S
H492 C488 0.950 . S
C493 C491 1.390 1_556 S
C493 C494 1.387 . S
C493 H496 0.950 . S
C494 C493 1.387 . S
C494 C497 1.387 . S
H495 C491 0.950 . S
H496 C493 0.950 . S
C497 C488 1.390 1_556 S
C497 H490 0.950 . S
C497 C494 1.387 . S
C498 C499 1.387 . S
C498 H502 0.950 . S
C498 C507 1.390 1_565 S
C499 C498 1.387 . S
C499 C501 1.387 . S
H500 C507 0.950 . S
C501 C499 1.387 . S
C501 C503 1.390 1_565 S
C501 H505 0.950 . S
H502 C498 0.950 . S
C503 C501 1.390 1_545 S
C503 C504 1.387 . S
C503 H506 0.950 . S
C504 C503 1.387 . S
C504 C507 1.387 . S
H505 C501 0.950 . S
H506 C503 0.950 . S
C507 C498 1.390 1_545 S
C507 H500 0.950 . S
C507 C504 1.387 . S
C508 C509 1.387 . S
C508 H512 0.950 . S
C508 C517 1.390 . S
C509 C508 1.387 . S
C509 C511 1.387 . S
H510 C517 0.950 . S
C511 C509 1.387 . S
C511 C513 1.390 . S
C511 H515 0.950 . S
H512 C508 0.950 . S
C513 C511 1.390 . S
C513 C514 1.387 . S
C513 H516 0.950 . S
C514 C513 1.387 . S
C514 C517 1.387 . S
H515 C511 0.950 . S
H516 C513 0.950 . S
C517 C508 1.390 . S
C517 H510 0.950 . S
C517 C514 1.387 . S
C518 C519 1.387 . S
C518 H522 0.950 . S
C518 C527 1.390 1_565 S
C519 C518 1.387 . S
C519 C521 1.387 . S
H520 C527 0.950 . S
C521 C519 1.387 . S
C521 C523 1.390 1_565 S
C521 H525 0.950 . S
H522 C518 0.950 . S
C523 C521 1.390 1_545 S
C523 C524 1.387 . S
C523 H526 0.950 . S
C524 C523 1.387 . S
C524 C527 1.387 . S
H525 C521 0.950 . S
H526 C523 0.950 . S
C527 C518 1.390 1_545 S
C527 H520 0.950 . S
C527 C524 1.387 . S
C528 C529 1.387 . S
C528 H532 0.950 . S
C528 C537 1.390 . S
C529 C528 1.387 . S
C529 C531 1.387 . S
H530 C537 0.950 . S
C531 C529 1.387 . S
C531 C533 1.390 . S
C531 H535 0.950 . S
H532 C528 0.950 . S
C533 C531 1.390 . S
C533 C534 1.387 . S
C533 H536 0.950 . S
C534 C533 1.387 . S
C534 C537 1.387 . S
H535 C531 0.950 . S
H536 C533 0.950 . S
C537 C528 1.390 . S
C537 H530 0.950 . S
C537 C534 1.387 . S
C538 C539 1.387 . S
C538 H542 0.950 . S
C538 C547 1.390 . S
C539 C538 1.387 . S
C539 C541 1.387 . S
H540 C547 0.950 . S
C541 C539 1.387 . S
C541 C543 1.390 . S
C541 H545 0.950 . S
H542 C538 0.950 . S
C543 C541 1.390 . S
C543 C544 1.387 . S
C543 H546 0.950 . S
C544 C543 1.387 . S
C544 C547 1.387 . S
H545 C541 0.950 . S
H546 C543 0.950 . S
C547 C538 1.390 . S
C547 H540 0.950 . S
C547 C544 1.387 . S
C548 C549 1.387 . S
C548 H552 0.950 . S
C548 C557 1.390 1_556 S
C549 C548 1.387 . S
C549 C551 1.387 . S
H550 C557 0.950 . S
C551 C549 1.387 . S
C551 C553 1.390 1_556 S
C551 H555 0.950 . S
H552 C548 0.950 . S
C553 C551 1.390 1_554 S
C553 C554 1.387 . S
C553 H556 0.950 . S
C554 C553 1.387 . S
C554 C557 1.387 . S
H555 C551 0.950 . S
H556 C553 0.950 . S
C557 C548 1.390 1_554 S
C557 H550 0.950 . S
C557 C554 1.387 . S
C558 C559 1.387 . S
C558 H562 0.950 . S
C558 C567 1.390 . S
C559 C558 1.387 . S
C559 C561 1.387 . S
H560 C567 0.950 . S
C561 C559 1.387 . S
C561 C563 1.390 . S
C561 H565 0.950 . S
H562 C558 0.950 . S
C563 C561 1.390 . S
C563 C564 1.387 . S
C563 H566 0.950 . S
C564 C563 1.387 . S
C564 C567 1.387 . S
H565 C561 0.950 . S
H566 C563 0.950 . S
C567 C558 1.390 . S
C567 H560 0.950 . S
C567 C564 1.387 . S
C568 C569 1.387 . S
C568 H572 0.950 . S
C568 C577 1.390 . S
C569 C568 1.387 . S
C569 C571 1.387 . S
H570 C577 0.950 . S
C571 C569 1.387 . S
C571 C573 1.390 . S
C571 H575 0.950 . S
H572 C568 0.950 . S
C573 C571 1.390 . S
C573 C574 1.387 . S
C573 H576 0.950 . S
C574 C573 1.387 . S
C574 C577 1.387 . S
H575 C571 0.950 . S
H576 C573 0.950 . S
C577 C568 1.390 . S
C577 H570 0.950 . S
C577 C574 1.387 . S
C578 C579 1.387 . S
C578 H582 0.950 . S
C578 C587 1.390 . S
C579 C578 1.387 . S
C579 C581 1.387 . S
H580 C587 0.950 . S
C581 C579 1.387 . S
C581 C583 1.390 . S
C581 H585 0.950 . S
H582 C578 0.950 . S
C583 C581 1.390 . S
C583 C584 1.387 . S
C583 H586 0.950 . S
C584 C583 1.387 . S
C584 C587 1.387 . S
H585 C581 0.950 . S
H586 C583 0.950 . S
C587 C578 1.390 . S
C587 H580 0.950 . S
C587 C584 1.387 . S
C588 C589 1.387 . S
C588 H592 0.950 . S
C588 C597 1.390 1_554 S
C589 C588 1.387 . S
C589 C591 1.387 . S
H590 C597 0.950 . S
C591 C589 1.387 . S
C591 C593 1.390 1_554 S
C591 H595 0.950 . S
H592 C588 0.950 . S
C593 C591 1.390 1_556 S
C593 C594 1.387 . S
C593 H596 0.950 . S
C594 C593 1.387 . S
C594 C597 1.387 . S
H595 C591 0.950 . S
H596 C593 0.950 . S
C597 C588 1.390 1_556 S
C597 H590 0.950 . S
C597 C594 1.387 . S
C598 C599 1.387 . S
C598 H602 0.950 . S
C598 C607 1.390 . S
C599 C598 1.387 . S
C599 C601 1.387 . S
H600 C607 0.950 . S
C601 C599 1.387 . S
C601 C603 1.390 . S
C601 H605 0.950 . S
H602 C598 0.950 . S
C603 C601 1.390 . S
C603 C604 1.387 . S
C603 H606 0.950 . S
C604 C603 1.387 . S
C604 C607 1.387 . S
H605 C601 0.950 . S
H606 C603 0.950 . S
C607 C598 1.390 . S
C607 H600 0.950 . S
C607 C604 1.387 . S
C608 C609 1.387 . S
C608 H612 0.950 . S
C608 C617 1.390 . S
C609 C608 1.387 . S
C609 C611 1.387 . S
H610 C617 0.950 . S
C611 C609 1.387 . S
C611 C613 1.390 . S
C611 H615 0.950 . S
H612 C608 0.950 . S
C613 C611 1.390 . S
C613 C614 1.387 . S
C613 H616 0.950 . S
C614 C613 1.387 . S
C614 C617 1.387 . S
H615 C611 0.950 . S
H616 C613 0.950 . S
C617 C608 1.390 . S
C617 H610 0.950 . S
C617 C614 1.387 . S
C618 C619 1.387 . S
C618 H622 0.950 . S
C618 C627 1.390 1_455 S
C619 C618 1.387 . S
C619 C621 1.387 . S
H620 C627 0.950 . S
C621 C619 1.387 . S
C621 C623 1.390 1_455 S
C621 H625 0.950 . S
H622 C618 0.950 . S
C623 C621 1.390 1_655 S
C623 C624 1.387 . S
C623 H626 0.950 . S
C624 C623 1.387 . S
C624 C627 1.387 . S
H625 C621 0.950 . S
H626 C623 0.950 . S
C627 C618 1.390 1_655 S
C627 H620 0.950 . S
C627 C624 1.387 . S
C628 C629 1.387 . S
C628 H632 0.950 . S
C628 C637 1.390 . S
C629 C628 1.387 . S
C629 C631 1.387 . S
H630 C637 0.950 . S
C631 C629 1.387 . S
C631 C633 1.390 . S
C631 H635 0.950 . S
H632 C628 0.950 . S
C633 C631 1.390 . S
C633 C634 1.387 . S
C633 H636 0.950 . S
C634 C633 1.387 . S
C634 C637 1.387 . S
H635 C631 0.950 . S
H636 C633 0.950 . S
C637 C628 1.390 . S
C637 H630 0.950 . S
C637 C634 1.387 . S
C638 C639 1.387 . S
C638 H642 0.950 . S
C638 C647 1.390 . S
C639 C638 1.387 . S
C639 C641 1.387 . S
H640 C647 0.950 . S
C641 C639 1.387 . S
C641 C643 1.390 . S
C641 H645 0.950 . S
H642 C638 0.950 . S
C643 C641 1.390 . S
C643 C644 1.387 . S
C643 H646 0.950 . S
C644 C643 1.387 . S
C644 C647 1.387 . S
H645 C641 0.950 . S
H646 C643 0.950 . S
C647 C638 1.390 . S
C647 H640 0.950 . S
C647 C644 1.387 . S
C648 C649 1.387 . S
C648 H652 0.950 . S
C648 C657 1.390 . S
C649 C648 1.387 . S
C649 C651 1.387 . S
H650 C657 0.950 . S
C651 C649 1.387 . S
C651 C653 1.390 . S
C651 H655 0.950 . S
H652 C648 0.950 . S
C653 C651 1.390 . S
C653 C654 1.387 . S
C653 H656 0.950 . S
C654 C653 1.387 . S
C654 C657 1.387 . S
H655 C651 0.950 . S
H656 C653 0.950 . S
C657 C648 1.390 . S
C657 H650 0.950 . S
C657 C654 1.387 . S
C658 C659 1.387 . S
C658 H662 0.950 . S
C658 C667 1.390 . S
C659 C658 1.387 . S
C659 C661 1.387 . S
H660 C667 0.950 . S
C661 C659 1.387 . S
C661 C663 1.390 . S
C661 H665 0.950 1_556 S
H662 C658 0.950 . S
C663 C661 1.390 . S
C663 C664 1.387 . S
C663 H666 0.950 . S
C664 C663 1.387 . S
C664 C667 1.387 . S
H665 C661 0.950 1_554 S
H666 C663 0.950 . S
C667 C658 1.390 . S
C667 H660 0.950 . S
C667 C664 1.387 . S
C668 C669 1.387 . S
C668 H672 0.950 . S
C668 C677 1.390 . S
C669 C668 1.387 . S
C669 C671 1.387 . S
H670 C677 0.950 . S
C671 C669 1.387 . S
C671 C673 1.390 . S
C671 H675 0.950 . S
H672 C668 0.950 . S
C673 C671 1.390 . S
C673 C674 1.387 . S
C673 H676 0.950 . S
C674 C673 1.387 . S
C674 C677 1.387 . S
H675 C671 0.950 . S
H676 C673 0.950 . S
C677 C668 1.390 . S
C677 H670 0.950 . S
C677 C674 1.387 . S
C678 C679 1.387 . S
C678 H682 0.950 . S
C678 C687 1.390 1_455 S
C679 C678 1.387 . S
C679 C681 1.387 . S
H680 C687 0.950 . S
C681 C679 1.387 . S
C681 C683 1.390 1_455 S
C681 H685 0.950 . S
H682 C678 0.950 . S
C683 C681 1.390 1_655 S
C683 C684 1.387 . S
C683 H686 0.950 . S
C684 C683 1.387 . S
C684 C687 1.387 . S
H685 C681 0.950 . S
H686 C683 0.950 . S
C687 C678 1.390 1_655 S
C687 H680 0.950 . S
C687 C684 1.387 . S
C688 C689 1.387 . S
C688 H692 0.950 . S
C688 C697 1.390 . S
C689 C688 1.387 . S
C689 C691 1.387 . S
H690 C697 0.950 . S
C691 C689 1.387 . S
C691 C693 1.390 . S
C691 H695 0.950 . S
H692 C688 0.950 . S
C693 C691 1.390 . S
C693 C694 1.387 . S
C693 H696 0.950 . S
C694 C693 1.387 . S
C694 C697 1.387 . S
H695 C691 0.950 . S
H696 C693 0.950 . S
C697 C688 1.390 . S
C697 H690 0.950 . S
C697 C694 1.387 . S
C698 C699 1.387 . S
C698 H702 0.950 . S
C698 C707 1.390 1_655 S
C699 C698 1.387 . S
C699 C701 1.387 . S
H700 C707 0.950 . S
C701 C699 1.387 . S
C701 C703 1.390 1_655 S
C701 H705 0.950 . S
H702 C698 0.950 . S
C703 C701 1.390 1_455 S
C703 C704 1.387 . S
C703 H706 0.950 . S
C704 C703 1.387 . S
C704 C707 1.387 . S
H705 C701 0.950 . S
H706 C703 0.950 . S
C707 C698 1.390 1_455 S
C707 H700 0.950 . S
C707 C704 1.387 . S
C708 C709 1.387 . S
C708 H712 0.950 . S
C708 C717 1.390 . S
C709 C708 1.387 . S
C709 C711 1.387 . S
H710 C717 0.950 . S
C711 C709 1.387 . S
C711 C713 1.390 . S
C711 H715 0.950 . S
H712 C708 0.950 . S
C713 C711 1.390 . S
C713 C714 1.387 . S
C713 H716 0.950 . S
C714 C713 1.387 . S
C714 C717 1.387 . S
H715 C711 0.950 . S
H716 C713 0.950 . S
C717 C708 1.390 . S
C717 H710 0.950 . S
C717 C714 1.387 . S
C718 C719 1.387 . S
C718 H722 0.950 . S
C718 C727 1.390 . S
C719 C718 1.387 . S
C719 C721 1.387 . S
H720 C727 0.950 . S
C721 C719 1.387 . S
C721 C723 1.390 . S
C721 H725 0.950 . S
H722 C718 0.950 . S
C723 C721 1.390 . S
C723 C724 1.387 . S
C723 H726 0.950 . S
C724 C723 1.387 . S
C724 C727 1.387 . S
H725 C721 0.950 . S
H726 C723 0.950 . S
C727 C718 1.390 . S
C727 H720 0.950 . S
C727 C724 1.387 . S
C728 C729 1.387 . S
C728 H732 0.950 . S
C728 C737 1.390 . S
C729 C728 1.387 . S
C729 C731 1.387 . S
H730 C737 0.950 . S
C731 C729 1.387 . S
C731 C733 1.390 . S
C731 H735 0.950 . S
H732 C728 0.950 . S
C733 C731 1.390 . S
C733 C734 1.387 . S
C733 H736 0.950 . S
C734 C733 1.387 . S
C734 C737 1.387 . S
H735 C731 0.950 . S
H736 C733 0.950 . S
C737 C728 1.390 . S
C737 H730 0.950 . S
C737 C734 1.387 . S
C738 C739 1.387 . S
C738 H742 0.950 . S
C738 C747 1.390 . S
C739 C738 1.387 . S
C739 C741 1.387 . S
H740 C747 0.950 . S
C741 C739 1.387 . S
C741 C743 1.390 . S
C741 H745 0.950 . S
H742 C738 0.950 . S
C743 C741 1.390 . S
C743 C744 1.387 . S
C743 H746 0.950 . S
C744 C743 1.387 . S
C744 C747 1.387 . S
H745 C741 0.950 . S
H746 C743 0.950 . S
C747 C738 1.390 . S
C747 H740 0.950 . S
C747 C744 1.387 . S
C748 C749 1.387 . S
C748 H752 0.950 . S
C748 C757 1.390 . S
C749 C748 1.387 . S
C749 C751 1.387 . S
H750 C757 0.950 . S
C751 C749 1.387 . S
C751 C753 1.390 . S
C751 H755 0.950 . S
H752 C748 0.950 . S
C753 C751 1.390 . S
C753 C754 1.387 . S
C753 H756 0.950 . S
C754 C753 1.387 . S
C754 C757 1.387 . S
H755 C751 0.950 . S
H756 C753 0.950 . S
C757 C748 1.390 . S
C757 H750 0.950 . S
C757 C754 1.387 . S
C758 C759 1.387 . S
C758 H762 0.950 . S
C758 C767 1.390 1_655 S
C759 C758 1.387 . S
C759 C761 1.387 . S
H760 C767 0.950 . S
C761 C759 1.387 . S
C761 C763 1.390 1_655 S
C761 H765 0.950 . S
H762 C758 0.950 . S
C763 C761 1.390 1_455 S
C763 C764 1.387 . S
C763 H766 0.950 . S
C764 C763 1.387 . S
C764 C767 1.387 . S
H765 C761 0.950 . S
H766 C763 0.950 . S
C767 C758 1.390 1_455 S
C767 H760 0.950 . S
C767 C764 1.387 . S
C768 C769 1.387 . S
C768 H772 0.950 . S
C768 C777 1.390 . S
C769 C768 1.387 . S
C769 C771 1.387 . S
H770 C777 0.950 . S
C771 C769 1.387 . S
C771 C773 1.390 . S
C771 H775 0.950 . S
H772 C768 0.950 . S
C773 C771 1.390 . S
C773 C774 1.387 . S
C773 H776 0.950 . S
C774 C773 1.387 . S
C774 C777 1.387 . S
H775 C771 0.950 . S
H776 C773 0.950 . S
C777 C768 1.390 . S
C777 H770 0.950 . S
C777 C774 1.387 . S
C778 C779 1.387 . S
C778 H782 0.950 . S
C778 C787 1.390 . S
C779 C778 1.387 . S
C779 C781 1.387 . S
H780 C787 0.950 . S
C781 C779 1.387 . S
C781 C783 1.390 . S
C781 H785 0.950 . S
H782 C778 0.950 . S
C783 C781 1.390 . S
C783 C784 1.387 . S
C783 H786 0.950 . S
C784 C783 1.387 . S
C784 C787 1.387 . S
H785 C781 0.950 . S
H786 C783 0.950 . S
C787 C778 1.390 . S
C787 H780 0.950 . S
C787 C784 1.387 . S
C788 C789 1.387 . S
C788 H792 0.950 . S
C788 C797 1.390 . S
C789 C788 1.387 . S
C789 C791 1.387 . S
H790 C797 0.950 . S
C791 C789 1.387 . S
C791 C793 1.390 . S
C791 H795 0.950 . S
H792 C788 0.950 . S
C793 C791 1.390 . S
C793 C794 1.387 . S
C793 H796 0.950 . S
C794 C793 1.387 . S
C794 C797 1.387 . S
H795 C791 0.950 . S
H796 C793 0.950 . S
C797 C788 1.390 . S
C797 H790 0.950 . S
C797 C794 1.387 . S
C798 C799 1.387 . S
C798 H802 0.950 . S
C798 C807 1.390 1_455 S
C799 C798 1.387 . S
C799 C801 1.387 . S
H800 C807 0.950 . S
C801 C799 1.387 . S
C801 C803 1.390 1_455 S
C801 H805 0.950 . S
H802 C798 0.950 . S
C803 C801 1.390 1_655 S
C803 C804 1.387 . S
C803 H806 0.950 . S
C804 C803 1.387 . S
C804 C807 1.387 . S
H805 C801 0.950 . S
H806 C803 0.950 . S
C807 C798 1.390 1_655 S
C807 H800 0.950 . S
C807 C804 1.387 . S
C808 C809 1.387 . S
C808 H812 0.950 . S
C808 C817 1.390 . S
C809 C808 1.387 . S
C809 C811 1.387 . S
H810 C817 0.950 . S
C811 C809 1.387 . S
C811 C813 1.390 . S
C811 H815 0.950 . S
H812 C808 0.950 . S
C813 C811 1.390 . S
C813 C814 1.387 . S
C813 H816 0.950 . S
C814 C813 1.387 . S
C814 C817 1.387 . S
H815 C811 0.950 . S
H816 C813 0.950 . S
C817 C808 1.390 . S
C817 H810 0.950 . S
C817 C814 1.387 . S
C818 C819 1.387 . S
C818 H822 0.950 . S
C818 C827 1.390 . S
C819 C818 1.387 . S
C819 C821 1.387 1_655 S
H820 C827 0.950 . S
C821 C819 1.387 1_455 S
C821 C823 1.390 . S
C821 H825 0.950 . S
H822 C818 0.950 . S
C823 C821 1.390 . S
C823 C824 1.387 . S
C823 H826 0.950 . S
C824 C823 1.387 . S
C824 C827 1.387 1_455 S
H825 C821 0.950 . S
H826 C823 0.950 . S
C827 C818 1.390 . S
C827 H820 0.950 . S
C827 C824 1.387 1_655 S
C828 C829 1.387 . S
C828 H832 0.950 . S
C828 C837 1.390 . S
C829 C828 1.387 . S
C829 C831 1.387 . S
H830 C837 0.950 . S
C831 C829 1.387 . S
C831 C833 1.390 . S
C831 H835 0.950 . S
H832 C828 0.950 . S
C833 C831 1.390 . S
C833 C834 1.387 . S
C833 H836 0.950 . S
C834 C833 1.387 . S
C834 C837 1.387 . S
H835 C831 0.950 . S
H836 C833 0.950 . S
C837 C828 1.390 . S
C837 H830 0.950 . S
C837 C834 1.387 . S
C838 C839 1.387 . S
C838 H842 0.950 . S
C838 C847 1.390 . S
C839 C838 1.387 . S
C839 C841 1.387 . S
H840 C847 0.950 . S
C841 C839 1.387 . S
C841 C843 1.390 . S
C841 H845 0.950 . S
H842 C838 0.950 . S
C843 C841 1.390 . S
C843 C844 1.387 . S
C843 H846 0.950 . S
C844 C843 1.387 . S
C844 C847 1.387 . S
H845 C841 0.950 . S
H846 C843 0.950 . S
C847 C838 1.390 . S
C847 H840 0.950 . S
C847 C844 1.387 . S
C848 C849 1.387 . S
C848 H852 0.950 . S
C848 C857 1.390 . S
C849 C848 1.387 . S
C849 C851 1.387 . S
H850 C857 0.950 . S
C851 C849 1.387 . S
C851 C853 1.390 . S
C851 H855 0.950 . S
H852 C848 0.950 . S
C853 C851 1.390 . S
C853 C854 1.387 . S
C853 H856 0.950 . S
C854 C853 1.387 . S
C854 C857 1.387 . S
H855 C851 0.950 . S
H856 C853 0.950 . S
C857 C848 1.390 . S
C857 H850 0.950 . S
C857 C854 1.387 . S
C858 C859 1.387 . S
C858 H862 0.950 . S
C858 C867 1.390 . S
C859 C858 1.387 . S
C859 C861 1.387 . S
H860 C867 0.950 . S
C861 C859 1.387 . S
C861 C863 1.390 . S
C861 H865 0.950 . S
H862 C858 0.950 . S
C863 C861 1.390 . S
C863 C864 1.387 . S
C863 H866 0.950 . S
C864 C863 1.387 . S
C864 C867 1.387 . S
H865 C861 0.950 . S
H866 C863 0.950 . S
C867 C858 1.390 . S
C867 H860 0.950 . S
C867 C864 1.387 . S
C868 C869 1.387 . S
C868 H872 0.950 . S
C868 C877 1.390 . S
C869 C868 1.387 . S
C869 C871 1.387 . S
H870 C877 0.950 . S
C871 C869 1.387 . S
C871 C873 1.390 . S
C871 H875 0.950 . S
H872 C868 0.950 . S
C873 C871 1.390 . S
C873 C874 1.387 . S
C873 H876 0.950 . S
C874 C873 1.387 . S
C874 C877 1.387 . S
H875 C871 0.950 . S
H876 C873 0.950 . S
C877 C868 1.390 . S
C877 H870 0.950 . S
C877 C874 1.387 . S
C878 C879 1.387 . S
C878 H882 0.950 . S
C878 C887 1.390 1_655 S
C879 C878 1.387 . S
C879 C881 1.387 . S
H880 C887 0.950 . S
C881 C879 1.387 . S
C881 C883 1.390 1_655 S
C881 H885 0.950 . S
H882 C878 0.950 . S
C883 C881 1.390 1_455 S
C883 C884 1.387 . S
C883 H886 0.950 . S
C884 C883 1.387 . S
C884 C887 1.387 . S
H885 C881 0.950 . S
H886 C883 0.950 . S
C887 C878 1.390 1_455 S
C887 H880 0.950 . S
C887 C884 1.387 . S
C888 C889 1.387 . S
C888 H892 0.950 . S
C888 C897 1.390 . S
C889 C888 1.387 . S
C889 C891 1.387 . S
H890 C897 0.950 . S
C891 C889 1.387 . S
C891 C893 1.390 . S
C891 H895 0.950 . S
H892 C888 0.950 . S
C893 C891 1.390 . S
C893 C894 1.387 . S
C893 H896 0.950 . S
C894 C893 1.387 . S
C894 C897 1.387 . S
H895 C891 0.950 . S
H896 C893 0.950 . S
C897 C888 1.390 . S
C897 H890 0.950 . S
C897 C894 1.387 . S
C898 C899 1.387 . S
C898 H902 0.950 . S
C898 C907 1.390 1_655 S
C899 C898 1.387 . S
C899 C901 1.387 . S
H900 C907 0.950 . S
C901 C899 1.387 . S
C901 C903 1.390 1_655 S
C901 H905 0.950 . S
H902 C898 0.950 . S
C903 C901 1.390 1_455 S
C903 C904 1.387 . S
C903 H906 0.950 . S
C904 C903 1.387 . S
C904 C907 1.387 . S
H905 C901 0.950 . S
H906 C903 0.950 . S
C907 C898 1.390 1_455 S
C907 H900 0.950 . S
C907 C904 1.387 . S
C908 C909 1.387 . S
C908 H912 0.950 . S
C908 C917 1.390 . S
C909 C908 1.387 . S
C909 C911 1.387 . S
H910 C917 0.950 . S
C911 C909 1.387 . S
C911 C913 1.390 . S
C911 H915 0.950 . S
H912 C908 0.950 . S
C913 C911 1.390 . S
C913 C914 1.387 . S
C913 H916 0.950 . S
C914 C913 1.387 . S
C914 C917 1.387 . S
H915 C911 0.950 . S
H916 C913 0.950 . S
C917 C908 1.390 . S
C917 H910 0.950 . S
C917 C914 1.387 . S
C918 C919 1.387 . S
C918 H922 0.950 . S
C918 C927 1.390 . S
C919 C918 1.387 . S
C919 C921 1.387 . S
H920 C927 0.950 . S
C921 C919 1.387 . S
C921 C923 1.390 . S
C921 H925 0.950 . S
H922 C918 0.950 . S
C923 C921 1.390 . S
C923 C924 1.387 . S
C923 H926 0.950 . S
C924 C923 1.387 . S
C924 C927 1.387 . S
H925 C921 0.950 . S
H926 C923 0.950 . S
C927 C918 1.390 . S
C927 H920 0.950 . S
C927 C924 1.387 . S
C928 C929 1.387 . S
C928 H932 0.965 . S
C928 C937 1.390 . S
C929 C928 1.387 . S
C929 C931 1.387 . S
H930 C937 0.950 . S
C931 C929 1.387 . S
C931 C933 1.390 . S
C931 H935 0.950 . S
H932 C928 0.965 . S
C933 C931 1.390 . S
C933 C934 1.387 . S
C933 H936 0.950 . S
C934 C933 1.387 . S
C934 C937 1.387 . S
H935 C931 0.950 . S
H936 C933 0.950 . S
C937 C928 1.390 . S
C937 H930 0.950 . S
C937 C934 1.387 . S
C938 C939 1.387 . S
C938 H942 0.950 . S
C938 C947 1.390 . S
C939 C938 1.387 . S
C939 C941 1.387 . S
H940 C947 0.950 . S
C941 C939 1.387 . S
C941 C943 1.390 . S
C941 H945 0.950 . S
H942 C938 0.950 . S
C943 C941 1.390 . S
C943 C944 1.387 . S
C943 H946 0.950 . S
C944 C943 1.387 . S
C944 C947 1.387 . S
H945 C941 0.950 . S
H946 C943 0.950 . S
C947 C938 1.390 . S
C947 H940 0.950 . S
C947 C944 1.387 . S
C948 C949 1.387 . S
C948 H952 0.950 . S
C948 C957 1.390 . S
C949 C948 1.387 . S
C949 C951 1.387 . S
H950 C957 0.950 . S
C951 C949 1.387 . S
C951 C953 1.390 . S
C951 H955 0.950 . S
H952 C948 0.950 . S
C953 C951 1.390 . S
C953 C954 1.387 . S
C953 H956 0.950 . S
C954 C953 1.387 . S
C954 C957 1.387 . S
H955 C951 0.950 . S
H956 C953 0.950 . S
C957 C948 1.390 . S
C957 H950 0.950 . S
C957 C954 1.387 . S
C958 C959 1.387 . S
C958 H962 0.950 . S
C958 C967 1.390 . S
C959 C958 1.387 . S
C959 C961 1.387 . S
H960 C967 0.950 . S
C961 C959 1.387 . S
C961 C963 1.390 . S
C961 H965 0.950 . S
H962 C958 0.950 . S
C963 C961 1.390 . S
C963 C964 1.387 . S
C963 H966 0.950 . S
C964 C963 1.387 . S
C964 C967 1.387 . S
H965 C961 0.950 . S
H966 C963 0.950 . S
C967 C958 1.390 . S
C967 H960 0.950 . S
C967 C964 1.387 . S
C968 C969 1.387 . S
C968 H972 0.950 . S
C968 C977 1.390 . S
C969 C968 1.387 . S
C969 C971 1.387 . S
H970 C977 0.950 . S
C971 C969 1.387 . S
C971 C973 1.390 . S
C971 H975 0.950 . S
H972 C968 0.950 . S
C973 C971 1.390 . S
C973 C974 1.387 . S
C973 H976 0.950 . S
C974 C973 1.387 . S
C974 C977 1.387 . S
H975 C971 0.950 . S
H976 C973 0.950 . S
C977 C968 1.390 . S
C977 H970 0.950 . S
C977 C974 1.387 . S
C978 C979 1.387 . S
C978 H982 0.950 . S
C978 C987 1.390 . S
C979 C978 1.387 . S
C979 C981 1.387 . S
H980 C987 0.950 . S
C981 C979 1.387 . S
C981 C983 1.390 . S
C981 H985 0.950 . S
H982 C978 0.950 . S
C983 C981 1.390 . S
C983 C984 1.387 . S
C983 H986 0.950 . S
C984 C983 1.387 . S
C984 C987 1.387 . S
H985 C981 0.950 . S
H986 C983 0.950 . S
C987 C978 1.390 . S
C987 H980 0.950 . S
C987 C984 1.387 . S
C988 C989 1.387 . S
C988 H992 0.950 . S
C988 C997 1.390 . S
C989 C988 1.387 . S
C989 C991 1.387 . S
H990 C997 0.950 . S
C991 C989 1.387 . S
C991 C993 1.390 . S
C991 H995 0.950 . S
H992 C988 0.950 . S
C993 C991 1.390 . S
C993 C994 1.387 . S
C993 H996 0.950 . S
C994 C993 1.387 . S
C994 C997 1.387 . S
H995 C991 0.950 . S
H996 C993 0.950 . S
C997 C988 1.390 . S
C997 H990 0.950 . S
C997 C994 1.387 . S
C998 C999 1.387 . S
C998 H1002 0.950 . S
C998 C1007 1.390 . S
C999 C998 1.387 . S
C999 C1001 1.387 . S
H1000 C1007 0.950 . S
C1001 C999 1.387 . S
C1001 C1003 1.390 . S
C1001 H1005 0.950 . S
H1002 C998 0.950 . S
C1003 C1001 1.390 . S
C1003 C1004 1.387 . S
C1003 H1006 0.950 . S
C1004 C1003 1.387 . S
C1004 C1007 1.387 . S
H1005 C1001 0.950 . S
H1006 C1003 0.950 . S
C1007 C998 1.390 . S
C1007 H1000 0.950 . S
C1007 C1004 1.387 . S
C1008 C1009 1.387 . S
C1008 H1012 0.950 . S
C1008 C1017 1.390 . S
C1009 C1008 1.387 . S
C1009 C1011 1.387 . S
H1010 C1017 0.950 . S
C1011 C1009 1.387 . S
C1011 C1013 1.390 . S
C1011 H1015 0.950 . S
H1012 C1008 0.950 . S
C1013 C1011 1.390 . S
C1013 C1014 1.387 . S
C1013 H1016 0.950 . S
C1014 C1013 1.387 . S
C1014 C1017 1.387 . S
H1015 C1011 0.950 . S
H1016 C1013 0.950 . S
C1017 C1008 1.390 . S
C1017 H1010 0.950 . S
C1017 C1014 1.387 . S
C1018 C1019 1.387 . S
C1018 H1022 0.950 . S
C1018 C1027 1.390 . S
C1019 C1018 1.387 . S
C1019 C1021 1.387 . S
H1020 C1027 0.950 . S
C1021 C1019 1.387 . S
C1021 C1023 1.390 . S
C1021 H1025 0.950 . S
H1022 C1018 0.950 . S
C1023 C1021 1.390 . S
C1023 C1024 1.387 . S
C1023 H1026 0.950 . S
C1024 C1023 1.387 . S
C1024 C1027 1.387 . S
H1025 C1021 0.950 . S
H1026 C1023 0.950 . S
C1027 C1018 1.390 . S
C1027 H1020 0.950 . S
C1027 C1024 1.387 . S
C1028 C1029 1.387 . S
C1028 H1032 0.950 . S
C1028 C1037 1.390 . S
C1029 C1028 1.387 . S
C1029 C1031 1.387 . S
H1030 C1037 0.950 . S
C1031 C1029 1.387 . S
C1031 C1033 1.390 . S
C1031 H1035 0.950 . S
H1032 C1028 0.950 . S
C1033 C1031 1.390 . S
C1033 C1034 1.387 . S
C1033 H1036 0.950 . S
C1034 C1033 1.387 . S
C1034 C1037 1.387 . S
H1035 C1031 0.950 . S
H1036 C1033 0.950 . S
C1037 C1028 1.390 . S
C1037 H1030 0.950 . S
C1037 C1034 1.387 . S
C1038 C1039 1.387 . S
C1038 H1042 0.950 . S
C1038 C1047 1.390 . S
C1039 C1038 1.387 . S
C1039 C1041 1.387 . S
H1040 C1047 0.950 . S
C1041 C1039 1.387 . S
C1041 C1043 1.390 . S
C1041 H1045 0.950 . S
H1042 C1038 0.950 . S
C1043 C1041 1.390 . S
C1043 C1044 1.387 . S
C1043 H1046 0.950 . S
C1044 C1043 1.387 . S
C1044 C1047 1.387 . S
H1045 C1041 0.950 . S
H1046 C1043 0.950 . S
C1047 C1038 1.390 . S
C1047 H1040 0.950 . S
C1047 C1044 1.387 . S
C1048 C1049 1.387 . S
C1048 H1052 0.950 . S
C1048 C1057 1.390 . S
C1049 C1048 1.387 . S
C1049 C1051 1.387 . S
H1050 C1057 0.950 . S
C1051 C1049 1.387 . S
C1051 C1053 1.390 . S
C1051 H1055 0.950 . S
H1052 C1048 0.950 . S
C1053 C1051 1.390 . S
C1053 C1054 1.387 . S
C1053 H1056 0.950 . S
C1054 C1053 1.387 . S
C1054 C1057 1.387 . S
H1055 C1051 0.950 . S
H1056 C1053 0.950 . S
C1057 C1048 1.390 . S
C1057 H1050 0.950 . S
C1057 C1054 1.387 . S
C1058 C1059 1.387 . S
C1058 H1062 0.950 . S
C1058 C1067 1.390 . S
C1059 C1058 1.387 . S
C1059 C1061 1.387 . S
H1060 C1067 0.950 . S
C1061 C1059 1.387 . S
C1061 C1063 1.390 . S
C1061 H1065 0.950 . S
H1062 C1058 0.950 . S
C1063 C1061 1.390 . S
C1063 C1064 1.387 . S
C1063 H1066 0.950 . S
C1064 C1063 1.387 . S
C1064 C1067 1.387 . S
H1065 C1061 0.950 . S
H1066 C1063 0.950 . S
C1067 C1058 1.390 . S
C1067 H1060 0.950 . S
C1067 C1064 1.387 . S
C1068 C1069 1.387 . S
C1068 H1072 0.956 . S
C1068 C1077 1.390 . S
C1069 C1068 1.387 . S
C1069 C1071 1.387 . S
H1070 C1077 0.950 . S
C1071 C1069 1.387 . S
C1071 C1073 1.390 . S
C1071 H1075 0.950 . S
H1072 C1068 0.956 . S
C1073 C1071 1.390 . S
C1073 C1074 1.387 . S
C1073 H1076 0.950 . S
C1074 C1073 1.387 . S
C1074 C1077 1.387 . S
H1075 C1071 0.950 . S
H1076 C1073 0.950 . S
C1077 C1068 1.390 . S
C1077 H1070 0.950 . S
C1077 C1074 1.387 . S
C1078 C1079 1.387 . S
C1078 H1082 0.950 . S
C1078 C1087 1.390 . S
C1079 C1078 1.387 . S
C1079 C1081 1.387 . S
H1080 C1087 0.950 . S
C1081 C1079 1.387 . S
C1081 C1083 1.390 . S
C1081 H1085 0.950 . S
H1082 C1078 0.950 . S
C1083 C1081 1.390 . S
C1083 C1084 1.387 . S
C1083 H1086 0.950 . S
C1084 C1083 1.387 . S
C1084 C1087 1.387 . S
H1085 C1081 0.950 . S
H1086 C1083 0.950 . S
C1087 C1078 1.390 . S
C1087 H1080 0.950 . S
C1087 C1084 1.387 . S
C449 C92 1.289 . S
C454 C8 1.289 . S
C459 C22 1.289 . S
C464 C106 1.289 . S
C469 C64 1.289 . S
C474 C36 1.289 . S
C479 C50 1.289 . S
C484 C78 1.289 . S
C489 C204 1.289 . S
C494 C120 1.289 . S
C499 C218 1.289 . S
C504 C134 1.289 . S
C509 C148 1.289 . S
C514 C176 1.289 . S
C519 C162 1.289 . S
C524 C190 1.289 . S
C529 C232 1.289 . S
C534 C316 1.289 . S
C539 C246 1.289 . S
C544 C330 1.289 . S
C549 C288 1.289 . S
C554 C260 1.289 . S
C559 C302 1.289 . S
C564 C274 1.289 . S
C569 C344 1.289 . S
C574 C428 1.289 . S
C579 C442 1.289 . S
C584 C358 1.289 . S
C589 C400 1.289 . S
C594 C372 1.289 . S
C599 C386 1.289 . S
C604 C414 1.289 . S
C609 C7 1.403 . S
C614 C433 1.347 . S
C619 C223 1.343 1_554 S
C624 C21 1.402 . S
C629 C35 1.403 . S
C634 C405 1.347 . S
C639 C49 1.403 . S
C644 C195 1.347 . S
C649 C377 1.347 . S
C654 C63 1.403 . S
C659 C167 1.347 1_556 S
C664 C77 1.403 . S
C669 C91 1.401 . S
C674 C349 1.343 . S
C679 C139 1.347 . S
C684 C105 1.403 . S
C689 C119 1.402 . S
C694 C321 1.343 . S
C699 C111 1.347 1_556 S
C704 C133 1.403 . S
C709 C147 1.402 . S
C714 C293 1.343 . S
C719 C161 1.402 . S
C724 C83 1.343 . S
C729 C265 1.347 . S
C734 C175 1.403 . S
C739 C189 1.403 . S
C744 C55 1.347 1_554 S
C749 C203 1.403 . S
C754 C237 1.347 . S
C759 C27 1.347 . S
C764 C217 1.403 . S
C769 C231 1.402 . S
C774 C209 1.347 . S
C779 C245 1.402 . S
C784 C447 1.343 . S
C789 C181 1.343 . S
C794 C259 1.402 . S
C799 C273 1.402 . S
C804 C419 1.343 1_554 S
C809 C153 1.343 . S
C814 C287 1.402 . S
C819 C391 1.347 . S
C824 C301 1.402 . S
C829 C125 1.343 . S
C834 C315 1.402 . S
C839 C363 1.347 1_556 S
C844 C329 1.403 . S
C849 C343 1.401 . S
C854 C97 1.343 . S
C859 C335 1.343 . S
C864 C357 1.401 . S
C869 C69 1.345 . S
C874 C371 1.401 . S
C879 C385 1.403 . S
C884 C307 1.347 1_556 S
C889 C399 1.401 . S
C894 C41 1.344 . S
C899 C413 1.403 . S
C904 C279 1.347 . S
C909 C13 1.343 . S
C914 C427 1.401 . S
C919 C441 1.403 . S
C924 C251 1.347 1_554 S
C929 C11 1.353 . S
C934 C305 1.352 . S
C939 C319 1.353 . S
C944 C25 1.352 . S
C949 C39 1.353 . S
C954 C333 1.352 . S
C959 C291 1.352 . S
C964 C53 1.353 . S
C969 C277 1.353 . S
C974 C67 1.352 . S
C979 C235 1.353 . S
C984 C81 1.353 . S
C989 C249 1.353 . S
C994 C95 1.352 . S
C999 C263 1.352 . S
C1004 C109 1.353 . S
C1009 C123 1.353 . S
C1014 C417 1.352 . S
C1019 C431 1.352 . S
C1024 C137 1.353 . S
C1029 C445 1.352 . S
C1034 C151 1.353 . S
C1039 C403 1.352 . S
C1044 C165 1.353 . S
C1049 C389 1.353 . S
C1054 C179 1.352 . S
C1059 C347 1.353 . S
C1064 C193 1.352 . S
C1069 C207 1.352 . S
C1074 C361 1.353 . S
C1079 C221 1.353 . S
C1084 C375 1.352 . S
