# Generated by pormake.
# Topology wkt, (7)-cn, num edge types: 1
# Building blocks:
#     Node 0, Type 0, BuildingBlock: HICVOG_clean_sbu_0, # of connection points: 7
#     Node 1, Type 0, BuildingBlock: HICVOG_clean_sbu_0, # of connection points: 7
#     Node 2, Type 0, BuildingBlock: HICVOG_clean_sbu_0, # of connection points: 7
#     Node 3, Type 0, BuildingBlock: HICVOG_clean_sbu_0, # of connection points: 7
#     Node 4, Type 0, BuildingBlock: HICVOG_clean_sbu_0, # of connection points: 7
#     Node 5, Type 0, BuildingBlock: HICVOG_clean_sbu_0, # of connection points: 7
#     Node 6, Type 0, BuildingBlock: HICVOG_clean_sbu_0, # of connection points: 7
#     Node 7, Type 0, BuildingBlock: HICVOG_clean_sbu_0, # of connection points: 7
#     Node 8, Type 0, BuildingBlock: HICVOG_clean_sbu_0, # of connection points: 7
#     Node 9, Type 0, BuildingBlock: HICVOG_clean_sbu_0, # of connection points: 7
#     Node 10, Type 0, BuildingBlock: HICVOG_clean_sbu_0, # of connection points: 7
#     Node 11, Type 0, BuildingBlock: HICVOG_clean_sbu_0, # of connection points: 7
#     Edge 12, Type (0, 0), BuildingBlock: EZIPEK_clean_linker_0, # of connection points: 2
#     Edge 13, Type (0, 0), BuildingBlock: EZIPEK_clean_linker_0, # of connection points: 2
#     Edge 14, Type (0, 0), BuildingBlock: EZIPEK_clean_linker_0, # of connection points: 2
#     Edge 15, Type (0, 0), BuildingBlock: EZIPEK_clean_linker_0, # of connection points: 2
#     Edge 16, Type (0, 0), BuildingBlock: EZIPEK_clean_linker_0, # of connection points: 2
#     Edge 17, Type (0, 0), BuildingBlock: EZIPEK_clean_linker_0, # of connection points: 2
#     Edge 18, Type (0, 0), BuildingBlock: EZIPEK_clean_linker_0, # of connection points: 2
#     Edge 19, Type (0, 0), BuildingBlock: EZIPEK_clean_linker_0, # of connection points: 2
#     Edge 20, Type (0, 0), BuildingBlock: EZIPEK_clean_linker_0, # of connection points: 2
#     Edge 21, Type (0, 0), BuildingBlock: EZIPEK_clean_linker_0, # of connection points: 2
#     Edge 22, Type (0, 0), BuildingBlock: EZIPEK_clean_linker_0, # of connection points: 2
#     Edge 23, Type (0, 0), BuildingBlock: EZIPEK_clean_linker_0, # of connection points: 2
#     Edge 24, Type (0, 0), BuildingBlock: EZIPEK_clean_linker_0, # of connection points: 2
#     Edge 25, Type (0, 0), BuildingBlock: EZIPEK_clean_linker_0, # of connection points: 2
#     Edge 26, Type (0, 0), BuildingBlock: EZIPEK_clean_linker_0, # of connection points: 2
#     Edge 27, Type (0, 0), BuildingBlock: EZIPEK_clean_linker_0, # of connection points: 2
#     Edge 28, Type (0, 0), BuildingBlock: EZIPEK_clean_linker_0, # of connection points: 2
#     Edge 29, Type (0, 0), BuildingBlock: EZIPEK_clean_linker_0, # of connection points: 2
#     Edge 30, Type (0, 0), BuildingBlock: EZIPEK_clean_linker_0, # of connection points: 2
#     Edge 31, Type (0, 0), BuildingBlock: EZIPEK_clean_linker_0, # of connection points: 2
#     Edge 32, Type (0, 0), BuildingBlock: EZIPEK_clean_linker_0, # of connection points: 2
#     Edge 33, Type (0, 0), BuildingBlock: EZIPEK_clean_linker_0, # of connection points: 2
#     Edge 34, Type (0, 0), BuildingBlock: EZIPEK_clean_linker_0, # of connection points: 2
#     Edge 35, Type (0, 0), BuildingBlock: EZIPEK_clean_linker_0, # of connection points: 2
#     Edge 36, Type (0, 0), BuildingBlock: EZIPEK_clean_linker_0, # of connection points: 2
#     Edge 37, Type (0, 0), BuildingBlock: EZIPEK_clean_linker_0, # of connection points: 2
#     Edge 38, Type (0, 0), BuildingBlock: EZIPEK_clean_linker_0, # of connection points: 2
#     Edge 39, Type (0, 0), BuildingBlock: EZIPEK_clean_linker_0, # of connection points: 2
#     Edge 40, Type (0, 0), BuildingBlock: EZIPEK_clean_linker_0, # of connection points: 2
#     Edge 41, Type (0, 0), BuildingBlock: EZIPEK_clean_linker_0, # of connection points: 2
#     Edge 42, Type (0, 0), BuildingBlock: EZIPEK_clean_linker_0, # of connection points: 2
#     Edge 43, Type (0, 0), BuildingBlock: EZIPEK_clean_linker_0, # of connection points: 2
#     Edge 44, Type (0, 0), BuildingBlock: EZIPEK_clean_linker_0, # of connection points: 2
#     Edge 45, Type (0, 0), BuildingBlock: EZIPEK_clean_linker_0, # of connection points: 2
#     Edge 46, Type (0, 0), BuildingBlock: EZIPEK_clean_linker_0, # of connection points: 2
#     Edge 47, Type (0, 0), BuildingBlock: EZIPEK_clean_linker_0, # of connection points: 2
#     Edge 48, Type (0, 0), BuildingBlock: EZIPEK_clean_linker_0, # of connection points: 2
#     Edge 49, Type (0, 0), BuildingBlock: EZIPEK_clean_linker_0, # of connection points: 2
#     Edge 50, Type (0, 0), BuildingBlock: EZIPEK_clean_linker_0, # of connection points: 2
#     Edge 51, Type (0, 0), BuildingBlock: EZIPEK_clean_linker_0, # of connection points: 2
#     Edge 52, Type (0, 0), BuildingBlock: EZIPEK_clean_linker_0, # of connection points: 2
#     Edge 53, Type (0, 0), BuildingBlock: EZIPEK_clean_linker_0, # of connection points: 2
# Relax obj value: 0.244
# Max RMSD: 0.216
# Mean RMSD: 0.216
data_MOF--net-wkt--node1-HICVOG_clean_sbu_0--edge1-EZIPEK_clean_linker_0
_symmetry_space_group_name_H-M    P1
_symmetry_Int_Tables_number       1
_symmetry_cell_setting            triclinic
loop_
_symmetry_equiv_pos_as_xyz
'x, y, z'
_cell_length_a     24.91353
_cell_length_b     24.897466
_cell_length_c     40.668913
_cell_angle_alpha  89.842119
_cell_angle_beta   90.074063
_cell_angle_gamma 120.00201
loop_
_atom_site_label
_atom_site_type_symbol
_atom_site_fract_x
_atom_site_fract_y
_atom_site_fract_z
_atom_type_partial_charge
Zn0 Zn 0.40043 0.47109 0.08823 0.0
C1 C 0.3732 0.30525 0.12899 0.0
N2 N 0.33455 0.31275 0.14936 0.0
C3 C 0.34014 0.36734 0.13963 0.0
N4 N 0.38077 0.39355 0.11459 0.0
N5 N 0.40056 0.3542 0.10748 0.0
C6 C 0.44812 0.28671 0.03908 0.0
O7 O 0.40626 0.30113 1.03012 0.0
O8 O 0.38881 0.54336 0.11181 0.0
Zn9 Zn 0.47169 0.38542 0.07942 0.0
N10 N 0.33697 0.43719 0.05623 0.0
C11 C 0.25187 0.35857 1.02662 0.0
C12 C 0.29639 0.37597 0.0513 0.0
C13 C 0.33843 0.48096 1.03619 0.0
N14 N 0.25127 0.40316 1.00754 0.0
C15 C 0.29391 0.46428 1.01173 0.0
O16 O 0.46826 0.42708 1.03598 0.0
C17 C 0.48317 0.48345 1.03135 0.0
O18 O 0.47697 0.51297 0.05543 0.0
H19 H 0.29904 0.34118 0.0659 0.0
H20 H 0.37348 0.5287 0.04008 0.0
C21 C 0.59513 0.48278 0.09518 0.0
C22 C 0.63828 0.53412 0.11314 0.0
C23 C 0.56491 0.51211 0.15495 0.0
C24 C 0.52164 0.46159 0.13685 0.0
N25 N 0.5369 0.44842 0.10688 0.0
N26 N 0.62241 0.54797 0.14251 0.0
H27 H 0.60752 0.47111 0.07195 0.0
C28 C 0.42662 0.60234 0.10933 0.0
O29 O 0.48038 0.62083 0.09507 0.0
O30 O 0.48486 0.3161 0.06264 0.0
H31 H 0.47668 0.43286 0.14721 0.0
H32 H 0.21843 0.3102 1.02249 0.0
H33 H 0.55284 0.52282 0.1786 0.0
Zn34 Zn 0.08761 0.45565 0.23275 0.0
C35 C 0.97107 0.31979 0.28923 0.0
N36 N 1.02014 0.31347 0.29773 0.0
C37 C 0.06514 0.35187 0.27699 0.0
N38 N 0.04316 0.37993 0.25637 0.0
N39 N 0.98392 0.35979 0.26379 0.0
C40 C 0.79442 0.35227 0.26374 0.0
O41 O 0.77544 0.30036 0.24753 0.0
O42 O 0.17213 0.47087 0.21757 0.0
Zn43 Zn 0.92559 0.38346 0.23927 0.0
N44 N 0.08473 0.51607 0.26253 0.0
C45 C 0.04981 0.53618 0.31346 0.0
C46 C 0.05668 0.49609 0.29249 0.0
C47 C 0.10774 0.5759 0.25341 0.0
N48 N 0.07377 0.5961 0.30453 0.0
C49 C 0.10279 0.61674 0.27517 0.0
O50 O 0.96606 0.4583 0.20548 0.0
C51 C 1.00666 0.4686 0.18334 0.0
O52 O 0.04996 0.45712 0.18904 0.0
H53 H 0.04192 0.45008 0.30115 0.0
H54 H 0.13136 0.59188 0.23004 0.0
C55 C 0.85735 0.33165 0.1825 0.0
C56 C 0.81529 0.28451 0.16213 0.0
C57 C 0.82733 0.21103 0.19382 0.0
C58 C 0.86669 0.25802 0.21518 0.0
N59 N 0.8801 0.31711 0.20927 0.0
N60 N 0.80184 0.22519 0.16808 0.0
H61 H 0.86917 0.37914 0.17814 0.0
C62 C 0.16743 0.42514 0.2012 0.0
O63 O 0.11274 0.37455 0.20004 0.0
O64 O 0.85328 0.39098 0.26562 0.0
H65 H 0.8852 0.24748 0.2365 0.0
H66 H 1.02765 0.52034 0.33716 0.0
H67 H 0.81578 0.16355 0.19814 0.0
Zn68 Zn 0.60484 0.93978 0.42243 0.0
C69 C 0.76204 0.07791 0.4681 0.0
N70 N 0.75361 0.03046 0.48788 0.0
C71 C 0.69852 0.98275 0.4777 0.0
N72 N 0.67366 0.99897 0.45293 0.0
N73 N 0.71339 0.05842 0.44682 0.0
C74 C 0.79177 0.18026 0.38597 0.0
O75 O 0.8025 0.13544 0.39414 0.0
O76 O 0.53192 0.8526 0.44397 0.0
Zn77 Zn 0.68313 0.09771 0.41778 0.0
N78 N 0.65568 0.92501 0.39216 0.0
C79 C 0.7505 0.96677 0.36193 0.0
C80 C 0.71231 0.97403 0.38421 0.0
C81 C 0.63526 0.86923 0.37788 0.0
N82 N 0.72971 0.91116 0.34726 0.0
C83 C 0.67297 0.86257 0.35469 0.0
O84 O 0.64978 0.05337 0.37385 0.0
C85 C 0.59453 1.01222 0.36718 0.0
O86 O 0.56244 0.97336 0.38968 0.0
H87 H 0.72792 1.01887 0.39462 0.0
H88 H 0.58933 0.8313 0.38356 0.0
C89 C 0.58121 0.118 0.4299 0.0
C90 C 0.52947 0.11026 0.44731 0.0
C91 C 0.55155 0.06157 0.49068 0.0
C92 C 0.6032 0.06943 0.47353 0.0
N93 N 0.61664 0.09647 0.44311 0.0
N94 N 0.5155 0.08203 0.47716 0.0
H95 H 0.59278 0.14041 0.40611 0.0
C96 C 0.47408 0.82557 0.43559 0.0
O97 O 0.45753 0.85287 0.41336 0.0
O98 O 0.74595 0.181 0.39918 0.0
H99 H 0.63221 0.05439 0.48501 0.0
H100 H 0.79556 1.00546 0.35568 0.0
H101 H 0.5405 0.03993 0.51464 0.0
Zn102 Zn 0.61385 0.643 0.56451 0.0
C103 C 0.74921 0.66721 0.62161 0.0
N104 N 0.75476 0.72228 0.62999 0.0
C105 C 0.71691 0.72848 0.60852 0.0
N106 N 0.68951 0.67831 0.58818 0.0
N107 N 0.71059 0.64035 0.59587 0.0
C108 C 0.65173 0.42613 0.5953 0.0
O109 O 0.59801 0.40977 0.58149 0.0
O110 O 0.59508 0.70951 0.54983 0.0
Zn111 Zn 0.68574 0.55832 0.57154 0.0
N112 N 0.55431 0.57771 0.59373 0.0
C113 C 0.5333 0.50446 0.63709 0.0
C114 C 0.5737 0.54729 0.61435 0.0
C115 C 0.49429 0.56329 0.59388 0.0
N116 N 0.47328 0.48964 0.63691 0.0
C117 C 0.45288 0.51739 0.6155 0.0
O118 O 0.6077 0.51929 0.53956 0.0
C119 C 0.59942 0.54953 0.51644 0.0
O120 O 0.61479 0.60571 0.52093 0.0
H121 H 0.61956 0.55447 0.6135 0.0
H122 H 0.47856 0.58548 0.57648 0.0
C123 C 0.73437 0.53759 0.51613 0.0
C124 C 0.77829 0.54608 0.49251 0.0
C125 C 0.84461 0.64747 0.51302 0.0
C126 C 0.80123 0.63769 0.53736 0.0
N127 N 0.74788 0.58219 0.53882 0.0
N128 N 0.83257 0.60118 0.49144 0.0
H129 H 0.69054 0.49462 0.51744 0.0
C130 C 0.63703 0.74596 0.52995 0.0
O131 O 0.68601 0.73955 0.52656 0.0
O132 O 0.69186 0.4846 0.59687 0.0
H133 H 0.80986 0.67372 0.55472 0.0
H134 H 0.54895 0.48128 0.65384 0.0
H135 H 0.88772 0.69109 0.5115 0.0
Zn136 Zn 0.1284 0.69005 0.74939 0.0
C137 C 0.98308 0.69414 0.79564 0.0
N138 N 1.02936 0.73373 0.81554 0.0
C139 C 0.07798 0.7276 0.80595 0.0
N140 N 0.06368 0.6869 0.78105 0.0
N141 N 1.0038 0.66523 0.77485 0.0
C142 C 0.85335 0.55638 0.70672 0.0
O143 O 0.86715 0.51488 0.69626 0.0
O144 O 0.20573 0.68084 0.76954 0.0
Zn145 Zn 0.95734 0.59092 0.74947 0.0
N146 N 0.1495 0.76686 0.72676 0.0
C147 C 0.10813 0.827 0.70364 0.0
C148 C 0.09999 0.77464 0.72041 0.0
C149 C 0.20599 0.80707 0.71423 0.0
N150 N 0.16458 0.86725 0.69115 0.0
C151 C 0.21331 0.85793 0.69563 0.0
O152 O 0.99634 0.58379 0.70695 0.0
C153 C 0.04784 0.59778 0.69368 0.0
O154 O 0.09877 0.63221 0.70861 0.0
H155 H 0.05408 0.74051 0.72815 0.0
H156 H 0.2436 0.79746 0.71678 0.0
C157 C 0.9248 0.46665 0.76684 0.0
C158 C 0.92888 0.42198 0.78594 0.0
C159 C 0.98144 0.49573 0.82749 0.0
C160 C 0.97886 0.54064 0.80819 0.0
N161 N 0.94982 0.52526 0.77836 0.0
N162 N 0.95668 0.43727 0.81585 0.0
H163 H 0.90436 0.45562 0.74253 0.0
C164 C 0.26407 0.71768 0.77528 0.0
O165 O 0.28693 0.77758 0.77134 0.0
O166 O 0.87913 0.58716 0.73263 0.0
H167 H 1.00021 0.5874 0.81717 0.0
H168 H 0.06929 0.83416 0.69935 0.0
H169 H 1.00427 0.50756 0.85117 0.0
Zn170 Zn 0.42263 0.97438 0.8949 0.0
C171 C 0.40601 0.0831 0.958 0.0
N172 N 0.34918 0.03456 0.96496 0.0
C173 C 0.34189 0.9913 0.94299 0.0
N174 N 0.39254 1.01371 0.923 0.0
N175 N 0.43303 0.07113 0.93224 0.0
C176 C 0.64012 0.2332 0.92809 0.0
O177 O 0.66107 0.19853 0.91568 0.0
O178 O 0.35317 0.89314 0.87855 0.0
Zn179 Zn 0.51133 0.12527 0.90537 0.0
N180 N 0.47772 0.96396 0.92351 0.0
C181 C 0.54207 0.99251 0.9708 0.0
C182 C 0.51702 1.00872 0.94459 0.0
C183 C 0.46377 0.90466 0.92693 0.0
N184 N 0.52628 0.93226 0.97487 0.0
C185 C 0.4867 0.88687 0.95398 0.0
O186 O 0.55391 0.08531 0.87668 0.0
C187 C 0.52471 0.05319 0.85138 0.0
O188 O 0.46622 1.01929 0.85311 0.0
H189 H 0.52704 0.05597 0.94198 0.0
H190 H 0.43332 0.87278 0.90878 0.0
C191 C 0.52638 0.19555 0.85153 0.0
C192 C 0.51263 0.22271 0.82539 0.0
C193 C 0.40557 0.15076 0.83299 0.0
C194 C 0.41994 0.12492 0.85968 0.0
N195 N 0.48022 0.14992 0.86899 0.0
N196 N 0.45213 0.1996 0.81673 0.0
H197 H 0.57349 0.21176 0.85911 0.0
C198 C 0.30926 0.89792 0.86591 0.0
O199 O 0.31202 0.95199 0.86734 0.0
O200 O 0.58098 0.21123 0.92811 0.0
H201 H 0.38356 0.08673 0.87328 0.0
H202 H 0.57304 0.02724 0.98805 0.0
H203 H 0.35793 0.13269 0.82548 0.0
Zn204 Zn 0.57297 0.65049 0.83708 0.0
C205 C 0.7399 0.68503 0.79807 0.0
N206 N 0.72909 0.7191 0.77611 0.0
C207 C 0.67116 0.70647 0.78381 0.0
N208 N 0.64682 0.66698 0.80942 0.0
N209 N 0.68997 0.65345 0.81835 0.0
C210 C 0.76092 0.58647 0.89256 0.0
O211 O 0.71688 0.56991 0.91457 0.0
O212 O 0.50378 0.66998 0.81487 0.0
Zn213 Zn 0.6692 0.5864 0.84805 0.0
N214 N 0.612 0.7128 0.86933 0.0
C215 C 0.6939 0.79328 0.89987 0.0
C216 C 0.67376 0.74793 0.8755 0.0
C217 C 0.5699 0.71738 0.88788 0.0
N218 N 0.65131 0.80105 0.91685 0.0
C219 C 0.58947 0.76399 0.91121 0.0
O220 O 0.61932 0.58206 0.88945 0.0
C221 C 0.56304 0.56801 0.89394 0.0
O222 O 0.53283 0.57435 0.87006 0.0
H223 H 0.707 0.74134 0.86171 0.0
H224 H 0.52125 0.68684 0.8829 0.0
C225 C 0.64167 0.47681 0.8129 0.0
C226 C 0.61828 0.4377 0.78513 0.0
C227 C 0.55004 0.47689 0.77529 0.0
C228 C 0.57435 0.51596 0.80233 0.0
N229 N 0.62056 0.51601 0.82014 0.0
N230 N 0.57256 0.43904 0.76732 0.0
H231 H 0.67892 0.47947 0.82769 0.0
C232 C 0.444 0.63722 0.81657 0.0
O233 O 0.41959 0.58198 0.83014 0.0
O234 O 0.75014 0.59295 0.86269 0.0
H235 H 0.55867 0.54821 0.80803 0.0
H236 H 0.7428 0.82251 0.90495 0.0
H237 H 0.51408 0.47718 0.76048 0.0
Zn238 Zn 0.1235 0.67337 1.0051 0.0
C239 C 1.01301 0.68511 0.93861 0.0
N240 N 0.06068 0.74107 0.92968 0.0
C241 C 0.10634 0.75023 0.95096 0.0
N242 N 0.0858 0.70101 0.97227 0.0
N243 N 1.02759 0.66033 0.96409 0.0
C244 C 0.84324 0.46814 0.98246 0.0
O245 O 0.85324 0.45999 1.01331 0.0
O246 O 0.20507 0.74066 1.02475 0.0
Zn247 Zn 0.96286 0.59367 0.99297 0.0
N248 N 0.133 0.61291 0.98055 0.0
C249 C 0.09431 0.53253 0.94078 0.0
C250 C 0.08432 0.56855 0.96329 0.0
C251 C 0.19074 0.62192 0.97683 0.0
N252 N 0.15231 0.5415 0.93705 0.0
C253 C 0.20174 0.58555 0.95427 0.0
O254 O 0.98762 0.55121 1.02912 0.0
C255 C 1.0268 0.57829 0.05218 0.0
O256 O 0.07489 0.63083 0.04714 0.0
H257 H 0.03845 0.56217 0.96632 0.0
H258 H 0.22658 0.65771 0.99151 0.0
C259 C 0.88544 0.62429 1.03109 0.0
C260 C 0.87549 0.66097 0.05343 0.0
C261 C 0.98059 0.7387 0.05017 0.0
C262 C 0.99125 0.701 1.0292 0.0
N263 N 0.94335 0.64491 1.01966 0.0
N264 N 0.92294 0.71737 0.06239 0.0
H265 H 0.84855 0.57844 1.02446 0.0
C266 C 0.20517 0.78651 1.03852 0.0
O267 O 0.15666 0.79343 1.03441 0.0
O268 O 0.88147 0.52026 0.96859 0.0
H269 H 1.03781 0.71607 1.02145 0.0
H270 H 0.05628 0.49742 0.92654 0.0
H271 H 1.01828 0.78335 0.05777 0.0
Zn272 Zn 0.41679 0.93975 0.17651 0.0
C273 C 0.39219 0.07623 0.13474 0.0
N274 N 0.35458 0.03003 0.11438 0.0
C275 C 0.36675 0.98424 0.12177 0.0
N276 N 0.40914 1.00023 0.1461 0.0
N277 N 0.42526 0.05829 0.15411 0.0
C278 C 0.44731 0.17602 0.21233 0.0
O279 O 0.39747 0.12132 0.20948 0.0
O280 O 0.41424 0.85736 0.15613 0.0
Zn281 Zn 0.49656 0.10756 0.18177 0.0
N282 N 0.3501 0.92408 0.20586 0.0
C283 C 0.30818 0.97412 0.23841 0.0
C284 C 0.35406 0.97695 0.21783 0.0
C285 C 0.30319 0.86795 0.21504 0.0
N286 N 0.2611 0.918 0.2476 0.0
C287 C 0.25795 0.86515 0.23649 0.0
O288 O 0.50687 0.06606 0.22351 0.0
C289 C 0.50747 1.01672 0.23142 0.0
O290 O 0.48828 0.97182 0.21104 0.0
H291 H 0.39307 1.02107 0.21168 0.0
H292 H 0.30216 0.82624 0.20679 0.0
C293 C 0.59834 0.18409 0.1383 0.0
C294 C 0.63338 0.192 0.10946 0.0
C295 C 0.59514 0.08322 0.10882 0.0
C296 C 0.56124 0.07613 0.13725 0.0
N297 N 0.56269 0.12641 0.15112 0.0
N298 N 0.63017 0.14058 0.09568 0.0
H299 H 0.59714 0.22251 0.14988 0.0
C300 C 0.37266 0.80099 0.14934 0.0
O301 O 0.3139 0.78458 0.15194 0.0
O302 O 0.49752 0.18425 0.19969 0.0
H303 H 0.5313 0.03036 0.14727 0.0
H304 H 0.31081 1.01605 0.24769 0.0
H305 H 0.59334 0.04339 0.09712 0.0
Zn306 Zn 0.39151 0.46238 0.33749 0.0
C307 C 0.37201 0.33248 0.2759 0.0
N308 N 0.31615 0.32461 0.26731 0.0
C309 C 0.30767 0.36126 0.28874 0.0
N310 N 0.35726 0.38959 0.30976 0.0
N311 N 0.39725 0.37135 0.3014 0.0
C312 C 0.58731 0.37638 0.31855 0.0
O313 O 0.59616 0.39565 0.34915 0.0
O314 O 0.3275 0.48148 0.35671 0.0
Zn315 Zn 0.46475 0.37396 0.32939 0.0
N316 N 0.4527 0.52552 0.30807 0.0
C317 C 0.50156 0.5518 0.25521 0.0
C318 C 0.45515 0.51007 0.27608 0.0
C319 C 0.49461 0.58225 0.3195 0.0
N320 N 0.54272 0.60876 0.26654 0.0
C321 C 0.53993 0.62484 0.29805 0.0
O322 O 0.50975 0.44236 0.36434 0.0
C323 C 0.48532 0.45983 0.3863 0.0
O324 O 0.43553 0.46058 0.38026 0.0
H325 H 0.42098 0.46617 0.26624 0.0
H326 H 0.49201 0.59434 0.34478 0.0
C327 C 0.43509 0.26704 0.36826 0.0
C328 C 0.39929 0.22058 0.39093 0.0
C329 C 0.32182 0.2484 0.3889 0.0
C330 C 0.35868 0.29646 0.36741 0.0
N331 N 0.4143 0.30444 0.35719 0.0
N332 N 0.34344 0.21196 0.40074 0.0
H333 H 0.4804 0.2757 0.36097 0.0
C334 C 0.28628 0.43709 0.37375 0.0
O335 O 0.28475 0.38363 0.37337 0.0
O336 O 0.53563 0.36321 0.30455 0.0
H337 H 0.34332 0.3277 0.35963 0.0
H338 H 0.50424 0.5395 0.23004 0.0
H339 H 0.27754 0.24163 0.39705 0.0
Zn340 Zn 0.12495 0.48971 0.50835 0.0
C341 C 0.99328 0.32417 0.46819 0.0
N342 N 0.04054 0.33317 0.44852 0.0
C343 C 0.08499 0.39189 0.45559 0.0
N344 N 0.06717 0.41859 0.47875 0.0
N345 N 1.00909 0.3762 0.4862 0.0
C346 C 0.86481 0.30372 0.55597 0.0
O347 O 0.88857 0.34925 0.57734 0.0
O348 O 0.20882 0.56951 0.48714 0.0
Zn349 Zn 0.95548 0.39615 0.51071 0.0
N350 N 0.14121 0.44375 0.54086 0.0
C351 C 0.096 0.35796 0.57811 0.0
C352 C 0.09033 0.39165 0.55234 0.0
C353 C 0.19744 0.46384 0.55456 0.0
N354 N 0.15232 0.3778 0.59168 0.0
C355 C 0.20294 0.42976 0.58038 0.0
O356 O 0.99195 0.45119 0.55136 0.0
C357 C 0.04044 0.50081 0.56023 0.0
O358 O 0.08833 0.52657 0.54163 0.0
H359 H 0.04499 0.3774 0.54268 0.0
H360 H 0.23709 0.50617 0.54596 0.0
C361 C 0.87389 0.41694 0.46985 0.0
C362 C 0.85915 0.43683 0.44028 0.0
C363 C 0.96692 0.50109 0.42977 0.0
C364 C 0.98069 0.48114 0.45894 0.0
N365 N 0.93391 0.43837 0.47796 0.0
N366 N 0.90682 0.47857 0.42115 0.0
H367 H 0.83864 0.38252 0.48572 0.0
C368 C 0.26574 0.58345 0.48242 0.0
O369 O 0.28166 0.54163 0.4889 0.0
O370 O 0.88292 0.3141 0.52622 0.0
H371 H 1.02839 0.49753 0.46562 0.0
H372 H 0.05607 0.31676 0.58748 0.0
H373 H 1.00368 0.53401 0.41399 0.0
Zn374 Zn 0.60023 0.93931 0.66693 0.0
C375 C 0.72736 0.05142 0.60505 0.0
N376 N 0.73639 1.00426 0.59594 0.0
C377 C 0.69979 0.95777 0.61692 0.0
N378 N 0.6708 0.97758 0.63821 0.0
N379 N 0.68814 0.036 0.63058 0.0
C380 C 0.67217 0.21487 0.64839 0.0
O381 O 0.64938 0.20213 0.67831 0.0
O382 O 0.57769 0.85414 0.68371 0.0
Zn383 Zn 0.68136 0.09773 0.65977 0.0
N384 N 0.53698 0.94185 0.63994 0.0
C385 C 0.5106 0.96835 0.58821 0.0
C386 C 0.55028 0.95766 0.60758 0.0
C387 C 0.48386 0.93432 0.65319 0.0
N388 N 0.45791 0.96147 0.60156 0.0
C389 C 0.44348 0.94423 0.63349 0.0
O390 O 0.60866 0.06737 0.69385 0.0
C391 C 0.60223 0.0301 0.71718 0.0
O392 O 0.61074 0.98483 0.71098 0.0
H393 H 0.59152 0.96248 0.59651 0.0
H394 H 0.47303 0.92073 0.67863 0.0
C395 C 0.78499 0.17624 0.70162 0.0
C396 C 0.8309 0.18672 0.7247 0.0
C397 C 0.8103 0.08405 0.71859 0.0
C398 C 0.76263 0.07266 0.69684 0.0
N399 N 0.75124 0.11907 0.68837 0.0
N400 N 0.84305 0.14079 0.73247 0.0
H401 H 0.77408 0.21208 0.69555 0.0
C402 C 0.62303 0.85626 0.69918 0.0
O403 O 0.67728 0.9071 0.69709 0.0
O404 O 0.68949 0.17885 0.63527 0.0
H405 H 0.73458 0.02669 0.68734 0.0
H406 H 0.52124 0.98121 0.56267 0.0
H407 H 0.81985 0.04754 0.72521 0.0
C408 C 0.38959 0.65353 0.15223 0.0
C409 C 0.41022 0.65166 0.11981 0.0
C410 C 0.41645 0.75347 0.109 0.0
C411 C 0.38934 0.75163 0.13999 0.0
N412 N 0.34391 0.69498 0.19011 0.0
N413 N 0.43369 0.69699 0.06546 0.0
C414 C 0.37376 0.69993 0.16114 0.0
C415 C 0.42139 0.7012 0.09781 0.0
N416 N 0.38935 0.61379 0.17545 0.0
N417 N 0.43764 0.8054 0.08998 0.0
H418 H 0.43322 0.65818 0.05558 0.0
H419 H 0.43803 0.72889 0.0476 0.0
H420 H 0.43203 0.84285 0.09625 0.0
H421 H 0.46579 0.81372 0.06961 0.0
H422 H 0.38321 0.61818 0.20042 0.0
H423 H 0.40182 0.58056 0.17024 0.0
H424 H 0.32418 0.65496 0.20454 0.0
H425 H 0.33569 0.72956 0.19884 0.0
C426 C 0.7281 0.40483 0.26452 0.0
C427 C 0.7451 0.36336 0.27924 0.0
C428 C 0.65278 0.32424 0.31559 0.0
C429 C 0.6376 0.36794 0.30218 0.0
N430 N 0.665 0.45464 0.26617 0.0
N431 N 0.72664 0.28785 0.32113 0.0
C432 C 0.67633 0.40932 0.27712 0.0
C433 C 0.70808 0.32435 0.30543 0.0
N434 N 0.76038 0.4387 0.2377 0.0
N435 N 0.61255 0.28051 0.33723 0.0
H436 H 0.76406 0.28373 0.31308 0.0
H437 H 0.70809 0.26517 0.3433 0.0
H438 H 0.57129 0.27797 0.34454 0.0
H439 H 0.61695 0.24362 0.346 0.0
H440 H 0.74633 0.46367 0.22297 0.0
H441 H 0.79995 0.43913 0.229 0.0
H442 H 0.69489 0.49093 0.25088 0.0
H443 H 0.62694 0.45805 0.27395 0.0
C444 C 0.35878 0.69218 0.49394 0.0
C445 C 0.31656 0.64772 0.47097 0.0
C446 C 0.38509 0.71472 0.42602 0.0
C447 C 0.42397 0.76217 0.44872 0.0
N448 N 0.43965 0.79875 0.50456 0.0
N449 N 0.28532 0.6229 0.41463 0.0
C450 C 0.40872 0.75138 0.4828 0.0
C451 C 0.32862 0.66109 0.43687 0.0
N452 N 0.3518 0.67764 0.52664 0.0
N453 N 0.40361 0.71947 0.394 0.0
H454 H 0.24375 0.58421 0.42178 0.0
H455 H 0.2877 0.63287 0.38961 0.0
H456 H 0.44538 0.75616 0.38538 0.0
H457 H 0.38114 0.68408 0.37687 0.0
H458 H 0.3848 0.70421 0.54428 0.0
H459 H 0.31474 0.63671 0.53585 0.0
H460 H 0.42595 0.79675 0.52893 0.0
H461 H 0.47617 0.84201 0.49762 0.0
C462 C 0.69266 0.37794 0.63811 0.0
C463 C 0.66486 0.37505 0.60703 0.0
C464 C 0.64542 0.26689 0.60122 0.0
C465 C 0.67673 0.27168 0.63129 0.0
N466 N 0.74424 0.33897 0.67366 0.0
N467 N 0.62909 0.3199 0.55548 0.0
C468 C 0.70482 0.32959 0.64812 0.0
C469 C 0.64559 0.32043 0.58758 0.0
N470 N 0.70355 0.42446 0.65941 0.0
N471 N 0.61246 0.21046 0.58631 0.0
H472 H 0.63074 0.35807 0.54391 0.0
H473 H 0.62103 0.28437 0.53923 0.0
H474 H 0.61144 0.17056 0.59503 0.0
H475 H 0.58242 0.20222 0.56667 0.0
H476 H 0.71713 0.42492 0.68367 0.0
H477 H 0.69225 0.45853 0.6541 0.0
H478 H 0.77102 0.38193 0.68489 0.0
H479 H 0.75527 0.30553 0.68116 0.0
C480 C 0.35985 0.70604 0.7644 0.0
C481 C 0.3085 0.69424 0.78502 0.0
C482 C 0.35193 0.6544 0.82758 0.0
C483 C 0.40027 0.66119 0.80593 0.0
N484 N 0.44218 0.68384 0.75112 0.0
N485 N 0.25273 0.65047 0.83522 0.0
C486 C 0.40229 0.68499 0.77374 0.0
C487 C 0.30359 0.6659 0.81618 0.0
N488 N 0.36821 0.73735 0.73549 0.0
N489 N 0.35395 0.63991 0.85984 0.0
H490 H 0.21804 0.66001 0.82839 0.0
H491 H 0.24238 0.6246 0.85673 0.0
H492 H 0.39047 0.63611 0.86984 0.0
H493 H 0.32331 0.63812 0.87769 0.0
H494 H 0.4087 0.75526 0.72161 0.0
H495 H 0.33596 0.74844 0.72614 0.0
H496 H 0.44148 0.69352 0.72626 0.0
H497 H 0.47236 0.66753 0.75659 0.0
C498 C 0.74185 0.33598 0.92082 0.0
C499 C 0.68722 0.29874 0.93984 0.0
C500 C 0.72884 0.38344 0.98116 0.0
C501 C 0.7877 0.41475 0.96502 0.0
N502 N 0.85144 0.41319 0.92084 0.0
N503 N 0.63386 0.286 0.9913 0.0
C504 C 0.79433 0.38922 0.93504 0.0
C505 C 0.68181 0.32255 0.97074 0.0
N506 N 0.74325 0.3217 0.88854 0.0
N507 N 0.7171 0.41257 1.0062 0.0
H508 H 0.59955 0.24112 0.9853 0.0
H509 H 0.63124 0.2981 1.0155 0.0
H510 H 0.74917 0.45745 1.01372 0.0
H511 H 0.67347 0.39519 1.01685 0.0
H512 H 0.7794 0.34991 0.87273 0.0
H513 H 0.70516 0.28585 0.87658 0.0
H514 H 0.86047 0.39208 0.9012 0.0
H515 H 0.89105 0.45128 0.93024 0.0
C516 C 0.42345 0.12974 1.0135 0.0
C517 C 0.43412 0.13925 0.97923 0.0
C518 C 0.47699 0.25043 0.98854 0.0
C519 C 0.45209 0.23771 1.02073 0.0
N520 N 0.38263 0.15942 0.0588 0.0
N521 N 0.45828 0.2098 0.93358 0.0
C522 C 0.42081 0.17588 1.03224 0.0
C523 C 0.45897 0.20026 0.96644 0.0
N524 N 0.41367 0.07609 1.02798 0.0
N525 N 0.51489 0.31011 0.9786 0.0
H526 H 0.43554 0.17286 0.91763 0.0
H527 H 0.47191 0.25309 0.92319 0.0
H528 H 0.52819 0.34742 0.9945 0.0
H529 H 0.53764 0.32126 0.95597 0.0
H530 H 0.40892 0.06948 0.05338 0.0
H531 H 0.41758 0.04204 1.01503 0.0
H532 H 0.35427 0.11326 0.06583 0.0
H533 H 0.3739 0.19102 0.07092 0.0
C534 C 0.28142 0.45407 0.193 0.0
C535 C 0.21927 0.427 0.18141 0.0
C536 C 0.2394 0.36709 0.14058 0.0
C537 C 0.30038 0.39123 0.15282 0.0
N538 N 0.38308 0.46275 0.18776 0.0
N539 N 0.15231 0.38357 0.13444 0.0
C540 C 0.32272 0.43691 0.17797 0.0
C541 C 0.20256 0.39168 0.15207 0.0
N542 N 0.30097 0.49575 0.21816 0.0
N543 N 0.21504 0.31835 0.1192 0.0
H544 H 0.12688 0.40483 0.14104 0.0
H545 H 0.14107 0.36278 0.11133 0.0
H546 H 0.23946 0.29713 0.11099 0.0
H547 H 0.16857 0.29514 0.11219 0.0
H548 H 0.34385 0.51402 0.22956 0.0
H549 H 0.2752 0.51458 0.22742 0.0
H550 H 0.40485 0.49921 0.20419 0.0
H551 H 0.41301 0.44886 0.17841 0.0
C552 C 0.84855 0.28238 0.35428 0.0
C553 C 0.82235 0.21707 0.3558 0.0
C554 C 0.88091 0.21921 0.30719 0.0
C555 C 0.91107 0.28489 0.30685 0.0
N556 N 0.91213 0.37791 0.32409 0.0
N557 N 0.79122 0.12382 0.32468 0.0
C558 C 0.89105 0.31621 0.32847 0.0
C559 C 0.83141 0.18566 0.32929 0.0
N560 N 0.83234 0.31188 0.37701 0.0
N561 N 0.90109 0.18861 0.28738 0.0
H562 H 0.75213 0.09875 0.33938 0.0
H563 H 0.79233 0.09957 0.30409 0.0
H564 H 0.93545 0.21084 0.26962 0.0
H565 H 0.88597 0.14149 0.28988 0.0
H566 H 0.85609 0.35959 0.38069 0.0
H567 H 0.79367 0.28825 0.39202 0.0
H568 H 0.89745 0.40357 0.33762 0.0
H569 H 0.9395 0.40222 0.30416 0.0
C570 C 0.6959 0.8815 0.47271 0.0
C571 C 0.67402 0.91769 0.48827 0.0
C572 C 0.60536 0.82888 0.5234 0.0
C573 C 0.63489 0.79679 0.5112 0.0
N574 N 0.67931 0.77843 0.46307 0.0
N575 N 0.60482 0.92635 0.52629 0.0
C576 C 0.67138 0.81885 0.48231 0.0
C577 C 0.62715 0.89122 0.51277 0.0
N578 N 0.74193 0.90753 0.44968 0.0
N579 N 0.55449 0.79876 0.54316 0.0
H580 H 0.6196 0.97172 0.51887 0.0
H581 H 0.57331 0.91191 0.54554 0.0
H582 H 0.53203 0.7512 0.54731 0.0
H583 H 0.52955 0.81852 0.55246 0.0
H584 H 0.76437 0.88517 0.44018 0.0
H585 H 0.76105 0.95333 0.44177 0.0
H586 H 0.70079 0.79013 0.44015 0.0
H587 H 0.65715 0.73098 0.46821 0.0
C588 C 0.73935 0.59942 0.66956 0.0
C589 C 0.77453 0.6363 0.6424 0.0
C590 C 0.85992 0.61858 0.6567 0.0
C591 C 0.8246 0.58098 0.68368 0.0
N592 N 0.72833 0.5277 0.7132 0.0
N593 N 0.87342 0.69507 0.61562 0.0
C594 C 0.76376 0.56963 0.68957 0.0
C595 C 0.83607 0.64938 0.63727 0.0
N596 N 0.68422 0.59592 0.67726 0.0
N597 N 0.91618 0.62449 0.64935 0.0
H598 H 0.85854 0.721 0.60226 0.0
H599 H 0.92079 0.71198 0.61324 0.0
H600 H 0.93745 0.60604 0.66381 0.0
H601 H 0.94014 0.64396 0.62759 0.0
H602 H 0.65912 0.5755 0.69857 0.0
H603 H 0.66541 0.61796 0.66354 0.0
H604 H 0.68178 0.5129 0.71729 0.0
H605 H 0.74414 0.50294 0.72694 0.0
C606 C 0.17803 0.82846 0.80643 0.0
C607 C 0.14151 0.76738 0.81877 0.0
C608 C 0.22476 0.785 0.85749 0.0
C609 C 0.25877 0.84745 0.84636 0.0
N610 N 0.2807 0.91723 0.80092 0.0
N611 N 0.12646 0.68807 0.85784 0.0
C612 C 0.2393 0.86549 0.81786 0.0
C613 C 0.16433 0.74529 0.84442 0.0
N614 N 0.15301 0.85299 0.78551 0.0
N615 N 0.25077 0.7628 0.87926 0.0
H616 H 0.08226 0.65792 0.84883 0.0
H617 H 0.13652 0.67194 0.87928 0.0
H618 H 0.2952 0.78929 0.88868 0.0
H619 H 0.23085 0.71635 0.88591 0.0
H620 H 0.17555 0.89956 0.77863 0.0
H621 H 0.10737 0.8283 0.77754 0.0
H622 H 0.27049 0.93005 0.77848 0.0
H623 H 0.32749 0.94288 0.80735 0.0
C624 C 0.85483 0.66774 0.92154 0.0
C625 C 0.82576 0.61143 0.90361 0.0
C626 C 0.92162 0.6063 0.90594 0.0
C627 C 0.94869 0.65977 0.92628 0.0
N628 N 0.93685 0.73406 0.95884 0.0
N629 N 0.82761 0.52304 0.88124 0.0
C630 C 0.91417 0.68853 0.93554 0.0
C631 C 0.85816 0.57953 0.89639 0.0
N632 N 0.82674 0.70277 0.92418 0.0
N633 N 0.95689 0.58169 0.89554 0.0
H634 H 0.78123 0.50245 0.87413 0.0
H635 H 0.84665 0.49486 0.87703 0.0
H636 H 1.00315 0.59974 0.90235 0.0
H637 H 0.94169 0.54575 0.87869 0.0
H638 H 0.84877 0.74752 0.93376 0.0
H639 H 0.78348 0.68973 0.914 0.0
H640 H 0.91061 0.75133 0.96955 0.0
H641 H 0.9799 0.75038 0.96988 0.0
C642 C 0.35633 0.9071 0.07907 0.0
C643 C 0.33118 0.92192 0.10661 0.0
C644 C 0.22896 0.83231 0.095 0.0
C645 C 0.25152 0.8242 0.06446 0.0
N646 N 0.3401 0.83616 1.03424 0.0
N647 N 0.24457 0.89867 0.14177 0.0
C648 C 0.31645 0.85591 0.05858 0.0
C649 C 0.26802 0.88366 0.11523 0.0
N650 N 0.41749 0.94464 0.07135 0.0
N651 N 0.17089 0.78886 0.10525 0.0
H652 H 0.27245 0.93403 0.15807 0.0
H653 H 0.19738 0.87844 0.14664 0.0
H654 H 0.14268 0.74885 0.09175 0.0
H655 H 0.15341 0.78857 0.12853 0.0
H656 H 0.43747 0.94205 0.04939 0.0
H657 H 0.44817 0.98064 0.0866 0.0
H658 H 0.38727 0.85379 1.03037 0.0
H659 H 0.31264 0.7976 1.0198 0.0
C660 C 0.4431 0.32127 0.23632 0.0
C661 C 0.39852 0.29591 0.26197 0.0
C662 C 0.40613 0.20173 0.26181 0.0
C663 C 0.44357 0.22322 0.23319 0.0
N664 N 0.5185 0.31258 0.20251 0.0
N665 N 0.33421 0.21071 0.29811 0.0
C666 C 0.46863 0.28588 0.22315 0.0
C667 C 0.37969 0.23608 0.27476 0.0
N668 N 0.45828 0.37773 0.22323 0.0
N669 N 0.39887 0.14991 0.27758 0.0
H670 H 0.3137 0.23444 0.30825 0.0
H671 H 0.31343 0.16464 0.3057 0.0
H672 H 0.42131 0.12627 0.26978 0.0
H673 H 0.37708 0.13471 0.30027 0.0
H674 H 0.48484 0.39587 0.2021 0.0
H675 H 0.4403 0.40469 0.23206 0.0
H676 H 0.54308 0.35983 0.19725 0.0
H677 H 0.54006 0.28931 0.19325 0.0
C678 C 0.19195 0.40791 0.45073 0.0
C679 C 0.14634 0.42161 0.43941 0.0
C680 C 0.20647 0.46795 0.38901 0.0
C681 C 0.24698 0.44599 0.3983 0.0
N682 N 0.29391 0.4199 0.44261 0.0
N683 N 0.10978 0.46701 0.3992 0.0
C684 C 0.24458 0.42379 0.43075 0.0
C685 C 0.15428 0.45368 0.40926 0.0
N686 N 0.18295 0.37627 0.47961 0.0
N687 N 0.21889 0.50385 0.36155 0.0
H688 H 0.0727 0.45973 0.41414 0.0
H689 H 0.10783 0.48286 0.37578 0.0
H690 H 0.25797 0.51711 0.34713 0.0
H691 H 0.19449 0.52599 0.35482 0.0
H692 H 0.21062 0.35838 0.48753 0.0
H693 H 0.14529 0.36481 0.49502 0.0
H694 H 0.29796 0.40919 0.46691 0.0
H695 H 0.33417 0.43407 0.42885 0.0
C696 C 0.8248 0.1549 0.60177 0.0
C697 C 0.76279 0.1154 0.59155 0.0
C698 C 0.76573 0.20108 0.55969 0.0
C699 C 0.82914 0.23883 0.56798 0.0
N700 N 0.92245 0.24856 0.59164 0.0
N701 N 0.67579 0.09744 0.55787 0.0
C702 C 0.85959 0.2149 0.58761 0.0
C703 C 0.73367 0.13754 0.5696 0.0
N704 N 0.84999 0.13593 0.62585 0.0
N705 N 0.73603 0.22658 0.54312 0.0
H706 H 0.65162 0.0507 0.56432 0.0
H707 H 0.65339 0.10908 0.54008 0.0
H708 H 0.7584 0.27289 0.53562 0.0
H709 H 0.6887 0.20337 0.5383 0.0
H710 H 0.89192 0.16546 0.63739 0.0
H711 H 0.82658 0.09188 0.63634 0.0
H712 H 0.94816 0.23081 0.60256 0.0
H713 H 0.94987 0.29244 0.58138 0.0
C714 C 0.64124 0.83404 0.75616 0.0
C715 C 0.61426 0.81034 0.7251 0.0
C716 C 0.60165 0.70925 0.74031 0.0
C717 C 0.64176 0.73811 0.76742 0.0
N718 N 0.70161 0.82857 0.80109 0.0
N719 N 0.55586 0.72212 0.69009 0.0
C720 C 0.66113 0.80034 0.77574 0.0
C721 C 0.58951 0.74646 0.71808 0.0
N722 N 0.64708 0.88865 0.76692 0.0
N723 N 0.57661 0.64684 0.7357 0.0
H724 H 0.54261 0.74725 0.67498 0.0
H725 H 0.54038 0.67726 0.68183 0.0
H726 H 0.58529 0.61918 0.75165 0.0
H727 H 0.54456 0.62144 0.71751 0.0
H728 H 0.66155 0.90581 0.79058 0.0
H729 H 0.63041 0.9129 0.75336 0.0
H730 H 0.72279 0.87594 0.80581 0.0
H731 H 0.71776 0.80551 0.8159 0.0
C732 C 0.54385 0.49244 0.97889 0.0
C733 C 0.5081 0.51233 0.9972 0.0
C734 C 0.49879 0.56215 0.94583 0.0
C735 C 0.53435 0.54161 0.92773 0.0
N736 N 0.57129 0.46896 0.92588 0.0
N737 N 0.47323 0.58722 0.99903 0.0
C738 C 0.5515 0.50184 0.94409 0.0
C739 C 0.49144 0.55301 0.98096 0.0
N740 N 0.57579 0.46934 0.99526 0.0
N741 N 0.46856 0.58718 0.92951 0.0
H742 H 0.47443 0.58845 1.02452 0.0
H743 H 0.46612 0.62173 0.98902 0.0
H744 H 0.46746 0.58937 0.90406 0.0
H745 H 0.4371 0.59729 0.94074 0.0
H746 H 0.60881 0.4614 0.98409 0.0
H747 H 0.57525 0.46567 1.02071 0.0
H748 H 0.5785 0.43442 0.93575 0.0
H749 H 0.57285 0.47049 0.90023 0.0
C750 C 0.9994 0.45977 0.12111 0.0
C751 C 1.0049 0.49457 0.14994 0.0
C752 C 1.01678 0.58086 0.11454 0.0
C753 C 1.01711 0.54831 0.08578 0.0
N754 N 1.01926 0.46043 0.06255 0.0
N755 N 1.02838 0.59223 0.17388 0.0
C756 C 1.01076 0.48849 0.08931 0.0
C757 C 1.01576 0.55607 0.14655 0.0
N758 N 0.98227 0.39856 0.12408 0.0
N759 N 1.01568 0.63495 0.11133 0.0
H760 H 1.02721 0.57573 0.19759 0.0
H761 H 0.0449 0.63975 0.17289 0.0
H762 H 1.01576 0.6544 0.08862 0.0
H763 H 1.00864 0.65751 0.13095 0.0
H764 H 0.97154 0.36886 0.10411 0.0
H765 H 0.97358 0.3759 0.14671 0.0
H766 H 1.02256 0.42044 0.06399 0.0
H767 H 1.02895 0.48014 0.03912 0.0
C768 C 0.50119 0.95723 0.28506 0.0
C769 C 0.53093 1.01241 0.26547 0.0
C770 C 0.59215 0.06761 0.3144 0.0
C771 C 0.56953 1.01117 0.33264 0.0
N772 N 0.51278 0.89891 0.32963 0.0
N773 N 0.61993 0.11531 0.26061 0.0
C774 C 0.52696 0.95492 0.31636 0.0
C775 C 0.58102 0.06603 0.27988 0.0
N776 N 0.44677 0.90755 0.27489 0.0
N777 N 0.62172 0.12357 0.32996 0.0
H778 H 0.6166 0.11466 0.23503 0.0
H779 H 0.66013 0.15329 0.26973 0.0
H780 H 0.6265 0.12824 0.35535 0.0
H781 H 0.63366 0.16494 0.3178 0.0
H782 H 0.4208 0.86878 0.28971 0.0
H783 H 0.42388 0.90761 0.2535 0.0
H784 H 0.48634 0.85713 0.31724 0.0
H785 H 0.5334 0.89428 0.35089 0.0
C786 C 0.48459 0.44693 0.44866 0.0
C787 C 0.51571 0.48047 0.41972 0.0
C788 C 0.60534 0.55142 0.45411 0.0
C789 C 0.57227 0.52111 0.48332 0.0
N790 N 0.47606 0.4456 0.50826 0.0
N791 N 0.60173 0.57097 0.39575 0.0
C792 C 0.51087 0.46999 0.48052 0.0
C793 C 0.57519 0.53427 0.42272 0.0
N794 N 0.43019 0.39204 0.44573 0.0
N795 N 0.66641 0.59617 0.45631 0.0
H796 H 0.58132 0.56014 0.37251 0.0
H797 H 0.64093 0.61485 0.39688 0.0
H798 H 0.69061 0.60896 0.4785 0.0
H799 H 0.6947 0.6171 0.43602 0.0
H800 H 0.40856 0.36168 0.46527 0.0
H801 H 0.40911 0.37414 0.42315 0.0
H802 H 0.42873 0.41385 0.50787 0.0
H803 H 0.4933 0.46083 0.53184 0.0
C804 C 1.02338 0.50915 0.6544 0.0
C805 C 0.04763 0.5736 0.65956 0.0
C806 C 0.06018 0.5897 0.59914 0.0
C807 C 0.04241 0.52629 0.5944 0.0
N808 N 1.01726 0.42804 0.61935 0.0
N809 N 0.09266 0.67648 0.63674 0.0
C810 C 1.0264 0.48665 0.62253 0.0
C811 C 0.06747 0.61423 0.63186 0.0
N812 N 0.99649 0.46872 0.67998 0.0
N813 N 0.0666 0.62574 0.57235 0.0
H814 H 0.09585 0.69595 0.65983 0.0
H815 H 0.11366 0.70917 0.61814 0.0
H816 H 0.0599 0.60911 0.54832 0.0
H817 H 0.07267 0.67016 0.57382 0.0
H818 H 0.96983 0.42088 0.67688 0.0
H819 H 0.99676 0.48313 0.70403 0.0
H820 H 1.01326 0.39992 0.63929 0.0
H821 H 1.01928 0.40913 0.597 0.0
C822 C 0.59713 0.10353 0.80134 0.0
C823 C 0.55591 0.04976 0.81981 0.0
C824 C 0.54273 0.98517 0.77096 0.0
C825 C 0.5848 0.03833 0.75218 0.0
N826 N 0.6572 0.14874 0.75148 0.0
N827 N 0.50761 0.93897 0.82488 0.0
C828 C 0.61301 0.09781 0.7679 0.0
C829 C 0.53439 0.99062 0.80531 0.0
N830 N 0.6225 0.16015 0.81609 0.0
N831 N 0.50707 0.92946 0.75571 0.0
H832 H 0.50337 0.94137 0.8503 0.0
H833 H 0.49671 0.89504 0.8167 0.0
H834 H 0.50822 0.92313 0.73053 0.0
H835 H 0.47095 0.89113 0.76739 0.0
H836 H 0.64384 0.20237 0.80368 0.0
H837 H 0.62327 0.16482 0.84147 0.0
H838 H 0.68065 0.19341 0.76093 0.0
H839 H 0.67397 0.14655 0.72853 0.0
C840 C 0.33387 0.13485 0.14325 0.0
C841 C 0.39068 0.13657 0.13637 0.0
C842 C 0.43874 0.24995 0.12892 0.0
C843 C 0.38027 0.2473 0.13069 0.0
N844 N 0.26896 0.17929 0.1314 0.0
N845 N 0.49111 0.19509 0.11153 0.0
C846 C 0.32692 0.18748 0.13586 0.0
C847 C 0.44175 0.19408 0.12641 0.0
N848 N 0.28614 0.08289 0.1571 0.0
N849 N 0.49196 0.30538 0.13099 0.0
H850 H 0.49223 0.15456 0.10666 0.0
H851 H 0.52621 0.23486 0.10035 0.0
H852 H 0.49108 0.34543 0.13662 0.0
H853 H 0.53566 0.30943 0.13157 0.0
H854 H 0.24578 0.08106 0.16555 0.0
H855 H 0.28976 0.04416 0.16337 0.0
H856 H 0.22896 0.13583 0.13194 0.0
H857 H 0.2612 0.21428 0.12286 0.0
C858 C 0.24388 0.41828 0.28782 0.0
C859 C 0.24678 0.36254 0.2891 0.0
C860 C 0.13425 0.30385 0.27664 0.0
C861 C 0.12975 0.35851 0.2781 0.0
N862 N 0.18077 0.46759 0.28938 0.0
N863 N 0.18852 0.25127 0.29485 0.0
C864 C 0.18494 0.41574 0.28496 0.0
C865 C 0.19009 0.30516 0.28636 0.0
N866 N 0.29747 0.47378 0.28918 0.0
N867 N 0.08558 0.25037 0.26471 0.0
H868 H 0.22682 0.25039 0.30455 0.0
H869 H 0.14758 0.2087 0.29635 0.0
H870 H 0.04513 0.24796 0.25586 0.0
H871 H 0.08829 0.21067 0.25999 0.0
H872 H 0.30081 0.51694 0.28705 0.0
H873 H 0.34015 0.4766 0.29066 0.0
H874 H 0.21761 0.51184 0.29377 0.0
H875 H 0.13832 0.46508 0.2904 0.0
C876 C 0.87491 0.25564 0.46257 0.0
C877 C 0.93323 0.26177 0.47015 0.0
C878 C 0.88075 0.14699 0.4715 0.0
C879 C 0.82102 0.14167 0.46883 0.0
N880 N 0.76416 0.19629 0.4719 0.0
N881 N 0.98794 0.2104 0.48886 0.0
C882 C 0.81896 0.19767 0.46747 0.0
C883 C 0.93492 0.2065 0.47682 0.0
N884 N 0.87272 0.30413 0.44877 0.0
N885 N 0.88701 0.09608 0.46694 0.0
H886 H 1.02772 0.25265 0.49388 0.0
H887 H 0.99003 0.17181 0.4971 0.0
H888 H 0.85025 0.0529 0.4603 0.0
H889 H 0.92999 0.09859 0.46569 0.0
H890 H 0.83122 0.30189 0.44252 0.0
H891 H 0.91266 0.34369 0.44068 0.0
H892 H 0.76098 0.23632 0.4738 0.0
H893 H 0.72374 0.15564 0.47789 0.0
C894 C 0.76239 0.84515 0.60791 0.0
C895 C 0.70868 0.78526 0.60901 0.0
C896 C 0.64558 0.83674 0.61554 0.0
C897 C 0.70031 0.89638 0.61751 0.0
N898 N 0.81103 0.95196 0.62563 0.0
N899 N 0.59942 0.72407 0.61924 0.0
C900 C 0.75866 0.89883 0.6165 0.0
C901 C 0.65022 0.78113 0.61438 0.0
N902 N 0.81742 0.85147 0.59753 0.0
N903 N 0.58925 0.83313 0.61459 0.0
H904 H 0.60289 0.68434 0.6218 0.0
H905 H 0.55458 0.71585 0.62248 0.0
H906 H 0.58472 0.87225 0.61549 0.0
H907 H 0.54733 0.79229 0.61136 0.0
H908 H 0.8566 0.89444 0.59302 0.0
H909 H 0.82202 0.81403 0.58984 0.0
H910 H 0.85396 0.95479 0.62838 0.0
H911 H 0.81003 0.99058 0.63464 0.0
C912 C 0.85831 0.74358 0.80079 0.0
C913 C 0.80161 0.68612 0.79914 0.0
C914 C 0.8633 0.63355 0.79892 0.0
C915 C 0.91981 0.69043 0.79539 0.0
N916 N 0.96662 0.80043 0.78513 0.0
N917 N 0.75493 0.57888 0.78446 0.0
C918 C 0.91601 0.7458 0.79422 0.0
C919 C 0.80545 0.63175 0.79475 0.0
N920 N 0.85761 0.79625 0.80926 0.0
N921 N 0.86407 0.58152 0.80811 0.0
H922 H 0.71436 0.57815 0.77727 0.0
H923 H 0.75659 0.53874 0.77954 0.0
H924 H 0.90489 0.58327 0.81512 0.0
H925 H 0.82382 0.54015 0.81356 0.0
H926 H 0.89788 0.83829 0.81378 0.0
H927 H 0.81691 0.79628 0.8152 0.0
H928 H 0.9651 0.841 0.78109 0.0
H929 H 1.00775 0.80313 0.77757 0.0
C930 C 0.16913 0.86844 0.94728 0.0
C931 C 0.16863 0.81119 0.95104 0.0
C932 C 0.28389 0.87228 0.95119 0.0
C933 C 0.28343 0.92758 0.94271 0.0
N934 N 0.22268 0.97374 0.92621 0.0
N935 N 0.22787 0.75927 0.95077 0.0
C936 C 0.22509 0.92403 0.93875 0.0
C937 C 0.22689 0.81338 0.95141 0.0
N938 N 0.11677 0.871 0.95393 0.0
N939 N 0.33844 0.8763 0.96014 0.0
H940 H 0.18762 0.7169 0.94735 0.0
H941 H 0.26822 0.75677 0.94972 0.0
H942 H 0.37887 0.91887 0.96308 0.0
H943 H 0.34258 0.83851 0.9674 0.0
H944 H 0.11578 0.91234 0.95452 0.0
H945 H 0.07672 0.83324 0.9632 0.0
H946 H 0.18127 0.97176 0.91964 0.0
H947 H 0.2622 1.01471 0.91905 0.0
C948 C 0.77029 0.64659 0.05961 0.0
C949 C 0.81692 0.63464 0.07104 0.0
C950 C 0.74913 0.56531 0.11387 0.0
C951 C 0.70074 0.57264 0.10043 0.0
N952 N 0.66192 0.61808 0.06127 0.0
N953 N 0.85343 0.58326 0.10769 0.0
C954 C 0.71042 0.6131 0.07362 0.0
C955 C 0.80737 0.59469 0.09807 0.0
N956 N 0.78374 0.69015 1.03559 0.0
N957 N 0.73905 0.53 0.14154 0.0
H958 H 0.89788 0.60636 0.0977 0.0
H959 H 0.84745 0.549 0.1244 0.0
H960 H 0.69584 0.5047 0.1528 0.0
H961 H 0.77389 0.52808 0.15469 0.0
H962 H 0.75359 0.70523 1.02799 0.0
H963 H 0.82715 0.71446 1.02438 0.0
H964 H 0.66367 0.64073 0.03943 0.0
H965 H 0.61831 0.59728 0.07233 0.0
C966 C 0.23282 0.7815 0.27618 0.0
C967 C 0.21283 0.80591 0.25061 0.0
C968 C 0.1133 0.71063 0.24796 0.0
C969 C 0.13781 0.68305 0.26908 0.0
N970 N 0.22116 0.68926 0.3025 0.0
N971 N 0.13578 0.79652 0.21155 0.0
C972 C 0.19739 0.71776 0.28338 0.0
C973 C 0.15315 0.77159 0.23651 0.0
N974 N 0.28547 0.81946 0.2935 0.0
N975 N 0.05206 0.67883 0.23944 0.0
H976 H 0.16323 0.84233 0.20372 0.0
H977 H 0.09581 0.77108 0.1976 0.0
H978 H 1.02184 0.63392 0.24781 0.0
H979 H 1.03018 0.69849 0.22636 0.0
H980 H 0.29919 0.80538 0.31447 0.0
H981 H 0.31251 0.86689 0.28876 0.0
H982 H 0.26718 0.71092 0.31016 0.0
H983 H 0.1962 0.64245 0.30896 0.0
C984 C 0.41474 0.13018 0.39584 0.0
C985 C 0.42641 0.18829 0.40783 0.0
C986 C 0.50011 0.19128 0.44826 0.0
C987 C 0.49221 0.13558 0.43447 0.0
N988 N 0.44534 0.05177 0.39532 0.0
N989 N 0.47927 0.27617 0.44412 0.0
C990 C 0.45019 0.10466 0.40836 0.0
C991 C 0.46838 0.21917 0.43395 0.0
N992 N 0.36941 0.09962 0.37282 0.0
N993 N 0.5381 0.21735 0.47491 0.0
H994 H 0.45413 0.29647 0.43548 0.0
H995 H 0.51471 0.305 0.46004 0.0
H996 H 0.56571 0.20076 0.48477 0.0
H997 H 0.54058 0.25386 0.48848 0.0
H998 H 0.35473 0.05473 0.36483 0.0
H999 H 0.34318 0.11787 0.36298 0.0
H1000 H 0.42103 0.03069 0.37394 0.0
H1001 H 0.4681 0.02982 0.40515 0.0
C1002 C 0.29448 0.50052 0.61389 0.0
C1003 C 0.26378 0.44735 0.59358 0.0
C1004 C 0.35533 0.43638 0.59114 0.0
C1005 C 0.38658 0.49057 0.61068 0.0
N1006 N 0.38658 0.56855 0.64551 0.0
N1007 N 0.25904 0.35868 0.56661 0.0
C1008 C 0.35626 0.52098 0.62364 0.0
C1009 C 0.29222 0.41301 0.58363 0.0
N1010 N 0.26466 0.53168 0.62312 0.0
N1011 N 0.38705 0.40939 0.57841 0.0
H1012 H 0.2139 0.34217 0.55829 0.0
H1013 H 0.27453 0.32758 0.56211 0.0
H1014 H 0.43321 0.42406 0.58393 0.0
H1015 H 0.36915 0.37421 0.56098 0.0
H1016 H 0.28613 0.57443 0.6349 0.0
H1017 H 0.21799 0.51549 0.61801 0.0
H1018 H 0.36596 0.58995 0.65799 0.0
H1019 H 0.4322 0.58437 0.65292 0.0
C1020 C 0.83072 0.25023 0.77124 0.0
C1021 C 0.86097 0.24463 0.74311 0.0
C1022 C 0.94358 0.35158 0.74884 0.0
C1023 C 0.90739 0.35998 0.77291 0.0
N1024 N 0.81475 0.31967 0.80598 0.0
N1025 N 0.94447 0.28877 0.70372 0.0
C1026 C 0.85062 0.30986 0.78411 0.0
C1027 C 0.91725 0.29487 0.73155 0.0
N1028 N 0.78392 0.19852 0.78589 0.0
N1029 N 1.00343 0.3971 0.74326 0.0
H1030 H 0.92713 0.24697 0.69102 0.0
H1031 H 0.98202 0.3259 0.69217 0.0
H1032 H 1.02431 0.43921 0.75585 0.0
H1033 H 1.03386 0.39121 0.72819 0.0
H1034 H 0.76426 0.19949 0.80831 0.0
H1035 H 0.76817 0.15382 0.77698 0.0
H1036 H 0.76966 0.28591 0.8121 0.0
H1037 H 0.82832 0.36301 0.8162 0.0
C1038 C 0.4942 0.77462 0.91114 0.0
C1039 C 0.54375 0.7744 0.92858 0.0
C1040 C 0.51691 0.81289 0.97726 0.0
C1041 C 0.4763 0.82246 0.95702 0.0
N1042 N 0.39397 0.76533 0.91853 0.0
N1043 N 0.58255 0.76659 0.98191 0.0
C1044 C 0.45236 0.78432 0.92934 0.0
C1045 C 0.54864 0.78439 0.96316 0.0
N1046 N 0.49104 0.77417 0.87759 0.0
N1047 N 0.52697 0.83401 1.00876 0.0
H1048 H 0.60361 0.74311 0.97197 0.0
H1049 H 0.58484 0.76978 1.00745 0.0
H1050 H 0.50094 0.85215 1.01891 0.0
H1051 H 0.56049 0.83418 1.02413 0.0
H1052 H 0.45654 0.77813 0.86511 0.0
H1053 H 0.52659 0.77855 0.86237 0.0
H1054 H 0.37538 0.73785 0.89774 0.0
H1055 H 0.3648 0.77646 0.93147 0.0
C1056 C 0.59432 0.33993 0.75772 0.0
C1057 C 0.63564 0.38938 0.77793 0.0
C1058 C 0.61513 0.32419 0.82409 0.0
C1059 C 0.56259 0.27593 0.80741 0.0
N1060 N 0.52252 0.22876 0.75423 0.0
N1061 N 0.71944 0.40742 0.81366 0.0
C1062 C 0.55869 0.28033 0.77253 0.0
C1063 C 0.65916 0.37257 0.80471 0.0
N1064 N 0.58622 0.35183 0.72598 0.0
N1065 N 0.61935 0.32991 0.85748 0.0
H1066 H 0.75056 0.44347 0.79853 0.0
H1067 H 0.73751 0.39634 0.83405 0.0
H1068 H 0.5824 0.30359 0.87325 0.0
H1069 H 0.65706 0.36733 0.86886 0.0
H1070 H 0.55274 0.31915 0.71036 0.0
H1071 H 0.61346 0.39612 0.71598 0.0
H1072 H 0.5202 0.22928 0.72868 0.0
H1073 H 0.49959 0.18445 0.7646 0.0
C1074 C 0.30034 0.61085 0.9812 0.0
C1075 C 0.26202 0.58588 0.95358 0.0
C1076 C 0.28464 0.50142 0.95582 0.0
C1077 C 0.29345 0.51188 0.9903 0.0
N1078 N 0.30269 0.57935 1.03628 0.0
N1079 N 0.24128 0.52028 0.90647 0.0
C1080 C 0.30164 0.56851 1.00335 0.0
C1081 C 0.26365 0.53623 0.93763 0.0
N1082 N 0.32969 0.67261 0.98754 0.0
N1083 N 0.2967 0.45955 0.94091 0.0
H1084 H 0.22753 0.5471 0.89305 0.0
H1085 H 0.2349 0.48044 0.89466 0.0
H1086 H 0.31514 0.43612 0.95375 0.0
H1087 H 0.2947 0.45315 0.91555 0.0
H1088 H 0.35918 0.6921 1.00763 0.0
H1089 H 0.32613 0.70317 0.97136 0.0
H1090 H 0.30505 0.61968 0.04534 0.0
H1091 H 0.29293 0.54569 0.05417 0.0
C1092 C 0.78401 0.27314 0.10323 0.0
C1093 C 0.78322 0.29661 0.13505 0.0
C1094 C 0.69424 0.30446 0.11759 0.0
C1095 C 0.68012 0.25474 0.09659 0.0
N1096 N 0.72829 0.23545 0.05111 0.0
N1097 N 0.73946 0.34471 0.17042 0.0
C1098 C 0.73212 0.25616 0.08241 0.0
C1099 C 0.74068 0.31823 0.14135 0.0
N1100 N 0.83121 0.26338 0.09441 0.0
N1101 N 0.65997 0.33304 0.11649 0.0
H1102 H 0.77035 0.35325 0.1895 0.0
H1103 H 0.70465 0.35476 0.17617 0.0
H1104 H 0.62561 0.3207 0.09865 0.0
H1105 H 0.66985 0.37143 0.13096 0.0
H1106 H 0.83188 0.2421 0.07254 0.0
H1107 H 0.8696 0.27654 0.10959 0.0
H1108 H 0.76522 0.23623 1.03872 0.0
H1109 H 0.68784 0.22086 1.03737 0.0
C1110 C 0.60257 0.79512 0.31153 0.0
C1111 C 0.64803 0.80589 0.33553 0.0
C1112 C 0.63251 0.70248 0.32749 0.0
C1113 C 0.58014 0.68859 0.30836 0.0
N1114 N 0.51192 0.71862 0.28231 0.0
N1115 N 0.70768 0.77213 0.36726 0.0
C1116 C 0.56447 0.7342 0.29998 0.0
C1117 C 0.6644 0.76057 0.34349 0.0
N1118 N 0.5965 0.84333 0.29974 0.0
N1119 N 0.65064 0.65923 0.32927 0.0
H1120 H 0.73308 0.81526 0.3786 0.0
H1121 H 0.71594 0.73831 0.37712 0.0
H1122 H 0.69101 0.66614 0.34079 0.0
H1123 H 0.69101 0.66614 0.34079 0.0
H1124 H 0.56796 0.83927 0.28005 0.0
H1125 H 0.62441 0.88894 0.30771 0.0
H1126 H 0.49441 0.74843 0.27882 0.0
H1127 H 0.48328 0.67428 0.27289 0.0
C1128 C 0.79046 0.46842 0.41566 0.0
C1129 C 0.79417 0.42084 0.43217 0.0
C1130 C 0.7508 0.43513 0.48095 0.0
C1131 C 0.76751 0.49594 0.46941 0.0
N1132 N 0.78351 0.56195 0.42215 0.0
N1133 N 0.72345 0.33148 0.46301 0.0
C1134 C 0.77967 0.50958 0.43513 0.0
C1135 C 0.75189 0.39367 0.45788 0.0
N1136 N 0.80268 0.4762 0.38285 0.0
N1137 N 0.74412 0.41984 0.5135 0.0
H1138 H 0.72893 0.30289 0.44622 0.0
H1139 H 0.69196 0.30969 0.48215 0.0
H1140 H 0.75138 0.45084 0.53238 0.0
H1141 H 0.73867 0.37765 0.5217 0.0
H1142 H 0.80064 0.50993 0.36862 0.0
H1143 H 0.81232 0.44564 0.37002 0.0
H1144 H 0.79529 0.57581 0.39782 0.0
H1145 H 0.77417 0.59139 0.4361 0.0
C1146 C 0.27107 0.86445 0.64559 0.0
C1147 C 0.26871 0.8921 0.67536 0.0
C1148 C 0.37924 0.96625 0.67201 0.0
C1149 C 0.38302 0.93023 0.64609 0.0
N1150 N 0.33377 0.84118 0.60994 0.0
N1151 N 0.31597 0.97325 0.71538 0.0
C1152 C 0.32923 0.8789 0.63285 0.0
C1153 C 0.3215 0.94478 0.68802 0.0
N1154 N 0.21755 0.82424 0.62968 0.0
N1155 N 0.43047 1.02084 0.68078 0.0
H1156 H 0.27276 0.96148 0.72518 0.0
H1157 H 0.3534 1.00747 0.72841 0.0
H1158 H 0.47311 0.03798 0.66895 0.0
H1159 H 0.43002 0.05137 0.69805 0.0
H1160 H 0.21672 0.80722 0.6062 0.0
H1161 H 0.17398 0.81351 0.63845 0.0
H1162 H 0.29614 0.79919 0.60247 0.0
H1163 H 0.37576 0.84849 0.60047 0.0
loop_
_geom_bond_atom_site_label_1
_geom_bond_atom_site_label_2
_geom_bond_distance
_geom_bond_site_symmetry_2
_ccdc_geom_bond_type
Zn0 N4 2.020 . S
Zn0 O8 2.019 . S
Zn0 N10 2.119 1_554 S
Zn0 O18 1.975 1_554 S
C1 N2 1.334 . S
C1 N5 1.336 . S
N2 C1 1.334 . S
N2 C3 1.334 . S
C3 N2 1.334 . S
C3 N4 1.336 . S
N4 Zn0 2.020 . S
N4 C3 1.336 . S
N4 N5 1.354 . S
N5 C1 1.336 . S
N5 N4 1.354 . S
N5 Zn9 2.020 . S
C6 O7 1.244 . S
C6 O30 1.257 . S
O7 C6 1.244 . S
O8 Zn0 2.019 . S
O8 C28 1.257 . S
Zn9 N5 2.020 . S
Zn9 O16 1.975 1_554 S
Zn9 N25 2.119 . S
Zn9 O30 2.019 1_554 S
N10 Zn0 2.119 1_556 S
N10 C12 1.334 . S
N10 C13 1.328 . S
C11 C12 1.391 . S
C11 N14 1.329 . S
C11 H32 0.930 . S
C12 N10 1.334 . S
C12 C11 1.391 . S
C12 H19 0.930 . S
C13 N10 1.328 . S
C13 C15 1.392 . S
C13 H20 0.930 1_556 S
N14 C11 1.329 . S
N14 C15 1.331 . S
C15 C13 1.392 . S
C15 N14 1.331 . S
O16 Zn9 1.975 1_556 S
O16 C17 1.252 . S
C17 O16 1.252 . S
C17 O18 1.252 . S
O18 Zn0 1.975 1_556 S
O18 C17 1.252 . S
H19 C12 0.930 . S
H20 C13 0.930 1_554 S
C21 C22 1.392 . S
C21 N25 1.328 . S
C21 H27 0.930 . S
C22 C21 1.392 . S
C22 N26 1.331 . S
C23 C24 1.391 . S
C23 N26 1.329 . S
C23 H33 0.930 . S
C24 C23 1.391 . S
C24 N25 1.334 . S
C24 H31 0.930 . S
N25 Zn9 2.119 . S
N25 C21 1.328 . S
N25 C24 1.334 . S
N26 C22 1.331 . S
N26 C23 1.329 . S
H27 C21 0.930 . S
C28 O8 1.257 . S
C28 O29 1.244 . S
O29 C28 1.244 . S
O30 C6 1.257 . S
O30 Zn9 2.019 1_556 S
H31 C24 0.930 . S
H32 C11 0.930 . S
H33 C23 0.930 . S
Zn34 N38 2.020 1_455 S
Zn34 O42 2.019 . S
Zn34 N44 2.119 . S
Zn34 O52 1.975 1_455 S
C35 N36 1.334 . S
C35 N39 1.336 . S
N36 C35 1.334 . S
N36 C37 1.334 1_655 S
C37 N36 1.334 1_455 S
C37 N38 1.336 1_455 S
N38 Zn34 2.020 1_655 S
N38 C37 1.336 1_655 S
N38 N39 1.354 . S
N39 C35 1.336 . S
N39 N38 1.354 . S
N39 Zn43 2.020 . S
C40 O41 1.244 . S
C40 O64 1.257 . S
O41 C40 1.244 . S
O42 Zn34 2.019 . S
O42 C62 1.257 . S
Zn43 N39 2.020 . S
Zn43 O50 1.975 . S
Zn43 N59 2.119 . S
Zn43 O64 2.019 . S
N44 Zn34 2.119 . S
N44 C46 1.334 . S
N44 C47 1.328 . S
C45 C46 1.391 . S
C45 N48 1.329 . S
C45 H66 0.930 . S
C46 N44 1.334 . S
C46 C45 1.391 . S
C46 H53 0.930 1_455 S
C47 N44 1.328 . S
C47 C49 1.392 . S
C47 H54 0.930 . S
N48 C45 1.329 . S
N48 C49 1.331 . S
C49 C47 1.392 . S
C49 N48 1.331 . S
O50 Zn43 1.975 . S
O50 C51 1.252 . S
C51 O50 1.252 . S
C51 O52 1.252 . S
O52 Zn34 1.975 1_655 S
O52 C51 1.252 . S
H53 C46 0.930 1_655 S
H54 C47 0.930 . S
C55 C56 1.392 . S
C55 N59 1.328 . S
C55 H61 0.930 . S
C56 C55 1.392 . S
C56 N60 1.331 . S
C57 C58 1.391 . S
C57 N60 1.329 . S
C57 H67 0.930 . S
C58 C57 1.391 . S
C58 N59 1.334 . S
C58 H65 0.930 . S
N59 Zn43 2.119 . S
N59 C55 1.328 . S
N59 C58 1.334 . S
N60 C56 1.331 . S
N60 C57 1.329 . S
H61 C55 0.930 . S
C62 O42 1.257 . S
C62 O63 1.244 . S
O63 C62 1.244 . S
O64 C40 1.257 . S
O64 Zn43 2.019 . S
H65 C58 0.930 . S
H66 C45 0.930 . S
H67 C57 0.930 . S
Zn68 N72 2.020 . S
Zn68 O76 2.019 . S
Zn68 N78 2.119 . S
Zn68 O86 1.975 . S
C69 N70 1.334 1_545 S
C69 N73 1.336 1_545 S
N70 C69 1.334 1_565 S
N70 C71 1.334 . S
C71 N70 1.334 . S
C71 N72 1.336 . S
N72 Zn68 2.020 . S
N72 C71 1.336 . S
N72 N73 1.354 . S
N73 C69 1.336 1_565 S
N73 N72 1.354 . S
N73 Zn77 2.020 1_565 S
C74 O75 1.244 . S
C74 O98 1.257 . S
O75 C74 1.244 . S
O76 Zn68 2.019 . S
O76 C96 1.257 . S
Zn77 N73 2.020 1_545 S
Zn77 O84 1.975 1_545 S
Zn77 N93 2.119 . S
Zn77 O98 2.019 . S
N78 Zn68 2.119 . S
N78 C80 1.334 . S
N78 C81 1.328 . S
C79 C80 1.391 . S
C79 N82 1.329 . S
C79 H100 0.930 . S
C80 N78 1.334 . S
C80 C79 1.391 . S
C80 H87 0.930 . S
C81 N78 1.328 . S
C81 C83 1.392 . S
C81 H88 0.930 . S
N82 C79 1.329 . S
N82 C83 1.331 . S
C83 C81 1.392 . S
C83 N82 1.331 . S
O84 Zn77 1.975 1_565 S
O84 C85 1.252 . S
C85 O84 1.252 . S
C85 O86 1.252 . S
O86 Zn68 1.975 . S
O86 C85 1.252 . S
H87 C80 0.930 . S
H88 C81 0.930 . S
C89 C90 1.392 . S
C89 N93 1.328 . S
C89 H95 0.930 . S
C90 C89 1.392 . S
C90 N94 1.331 . S
C91 C92 1.391 . S
C91 N94 1.329 . S
C91 H101 0.930 . S
C92 C91 1.391 . S
C92 N93 1.334 . S
C92 H99 0.930 1_545 S
N93 Zn77 2.119 . S
N93 C89 1.328 . S
N93 C92 1.334 . S
N94 C90 1.331 . S
N94 C91 1.329 . S
H95 C89 0.930 . S
C96 O76 1.257 . S
C96 O97 1.244 . S
O97 C96 1.244 . S
O98 C74 1.257 . S
O98 Zn77 2.019 . S
H99 C92 0.930 1_565 S
H100 C79 0.930 . S
H101 C91 0.930 . S
Zn102 N106 2.020 . S
Zn102 O110 2.019 . S
Zn102 N112 2.119 . S
Zn102 O120 1.975 . S
C103 N104 1.334 . S
C103 N107 1.336 . S
N104 C103 1.334 . S
N104 C105 1.334 . S
C105 N104 1.334 . S
C105 N106 1.336 . S
N106 Zn102 2.020 . S
N106 C105 1.336 . S
N106 N107 1.354 . S
N107 C103 1.336 . S
N107 N106 1.354 . S
N107 Zn111 2.020 . S
C108 O109 1.244 . S
C108 O132 1.257 . S
O109 C108 1.244 . S
O110 Zn102 2.019 . S
O110 C130 1.257 . S
Zn111 N107 2.020 . S
Zn111 O118 1.975 . S
Zn111 N127 2.119 . S
Zn111 O132 2.019 . S
N112 Zn102 2.119 . S
N112 C114 1.334 . S
N112 C115 1.328 . S
C113 C114 1.391 . S
C113 N116 1.329 . S
C113 H134 0.930 . S
C114 N112 1.334 . S
C114 C113 1.391 . S
C114 H121 0.930 . S
C115 N112 1.328 . S
C115 C117 1.392 . S
C115 H122 0.930 . S
N116 C113 1.329 . S
N116 C117 1.331 . S
C117 C115 1.392 . S
C117 N116 1.331 . S
O118 Zn111 1.975 . S
O118 C119 1.252 . S
C119 O118 1.252 . S
C119 O120 1.252 . S
O120 Zn102 1.975 . S
O120 C119 1.252 . S
H121 C114 0.930 . S
H122 C115 0.930 . S
C123 C124 1.392 . S
C123 N127 1.328 . S
C123 H129 0.930 . S
C124 C123 1.392 . S
C124 N128 1.331 . S
C125 C126 1.391 . S
C125 N128 1.329 . S
C125 H135 0.930 . S
C126 C125 1.391 . S
C126 N127 1.334 . S
C126 H133 0.930 . S
N127 Zn111 2.119 . S
N127 C123 1.328 . S
N127 C126 1.334 . S
N128 C124 1.331 . S
N128 C125 1.329 . S
H129 C123 0.930 . S
C130 O110 1.257 . S
C130 O131 1.244 . S
O131 C130 1.244 . S
O132 C108 1.257 . S
O132 Zn111 2.019 . S
H133 C126 0.930 . S
H134 C113 0.930 . S
H135 C125 0.930 . S
Zn136 N140 2.020 . S
Zn136 O144 2.019 . S
Zn136 N146 2.119 . S
Zn136 O154 1.975 . S
C137 N138 1.334 1_655 S
C137 N141 1.336 1_655 S
N138 C137 1.334 1_455 S
N138 C139 1.334 . S
C139 N138 1.334 . S
C139 N140 1.336 . S
N140 Zn136 2.020 . S
N140 C139 1.336 . S
N140 N141 1.354 . S
N141 C137 1.336 1_455 S
N141 N140 1.354 . S
N141 Zn145 2.020 1_455 S
C142 O143 1.244 . S
C142 O166 1.257 . S
O143 C142 1.244 . S
O144 Zn136 2.019 . S
O144 C164 1.257 . S
Zn145 N141 2.020 1_655 S
Zn145 O152 1.975 1_655 S
Zn145 N161 2.119 . S
Zn145 O166 2.019 . S
N146 Zn136 2.119 . S
N146 C148 1.334 . S
N146 C149 1.328 . S
C147 C148 1.391 . S
C147 N150 1.329 . S
C147 H168 0.930 . S
C148 N146 1.334 . S
C148 C147 1.391 . S
C148 H155 0.930 . S
C149 N146 1.328 . S
C149 C151 1.392 . S
C149 H156 0.930 . S
N150 C147 1.329 . S
N150 C151 1.331 . S
C151 C149 1.392 . S
C151 N150 1.331 . S
O152 Zn145 1.975 1_455 S
O152 C153 1.252 . S
C153 O152 1.252 . S
C153 O154 1.252 . S
O154 Zn136 1.975 . S
O154 C153 1.252 . S
H155 C148 0.930 . S
H156 C149 0.930 . S
C157 C158 1.392 . S
C157 N161 1.328 . S
C157 H163 0.930 . S
C158 C157 1.392 . S
C158 N162 1.331 . S
C159 C160 1.391 . S
C159 N162 1.329 . S
C159 H169 0.930 . S
C160 C159 1.391 . S
C160 N161 1.334 . S
C160 H167 0.930 1_655 S
N161 Zn145 2.119 . S
N161 C157 1.328 . S
N161 C160 1.334 . S
N162 C158 1.331 . S
N162 C159 1.329 . S
H163 C157 0.930 . S
C164 O144 1.257 . S
C164 O165 1.244 . S
O165 C164 1.244 . S
O166 C142 1.257 . S
O166 Zn145 2.019 . S
H167 C160 0.930 1_455 S
H168 C147 0.930 . S
H169 C159 0.930 . S
Zn170 N174 2.020 1_565 S
Zn170 O178 2.019 . S
Zn170 N180 2.119 . S
Zn170 O188 1.975 1_565 S
C171 N172 1.334 . S
C171 N175 1.336 . S
N172 C171 1.334 . S
N172 C173 1.334 1_545 S
C173 N172 1.334 1_565 S
C173 N174 1.336 1_565 S
N174 Zn170 2.020 1_545 S
N174 C173 1.336 1_545 S
N174 N175 1.354 . S
N175 C171 1.336 . S
N175 N174 1.354 . S
N175 Zn179 2.020 . S
C176 O177 1.244 . S
C176 O200 1.257 . S
O177 C176 1.244 . S
O178 Zn170 2.019 . S
O178 C198 1.257 . S
Zn179 N175 2.020 . S
Zn179 O186 1.975 . S
Zn179 N195 2.119 . S
Zn179 O200 2.019 . S
N180 Zn170 2.119 . S
N180 C182 1.334 . S
N180 C183 1.328 . S
C181 C182 1.391 . S
C181 N184 1.329 . S
C181 H202 0.930 . S
C182 N180 1.334 . S
C182 C181 1.391 . S
C182 H189 0.930 1_565 S
C183 N180 1.328 . S
C183 C185 1.392 . S
C183 H190 0.930 . S
N184 C181 1.329 . S
N184 C185 1.331 . S
C185 C183 1.392 . S
C185 N184 1.331 . S
O186 Zn179 1.975 . S
O186 C187 1.252 . S
C187 O186 1.252 . S
C187 O188 1.252 . S
O188 Zn170 1.975 1_545 S
O188 C187 1.252 . S
H189 C182 0.930 1_545 S
H190 C183 0.930 . S
C191 C192 1.392 . S
C191 N195 1.328 . S
C191 H197 0.930 . S
C192 C191 1.392 . S
C192 N196 1.331 . S
C193 C194 1.391 . S
C193 N196 1.329 . S
C193 H203 0.930 . S
C194 C193 1.391 . S
C194 N195 1.334 . S
C194 H201 0.930 . S
N195 Zn179 2.119 . S
N195 C191 1.328 . S
N195 C194 1.334 . S
N196 C192 1.331 . S
N196 C193 1.329 . S
H197 C191 0.930 . S
C198 O178 1.257 . S
C198 O199 1.244 . S
O199 C198 1.244 . S
O200 C176 1.257 . S
O200 Zn179 2.019 . S
H201 C194 0.930 . S
H202 C181 0.930 . S
H203 C193 0.930 . S
Zn204 N208 2.020 . S
Zn204 O212 2.019 . S
Zn204 N214 2.119 . S
Zn204 O222 1.975 . S
C205 N206 1.334 . S
C205 N209 1.336 . S
N206 C205 1.334 . S
N206 C207 1.334 . S
C207 N206 1.334 . S
C207 N208 1.336 . S
N208 Zn204 2.020 . S
N208 C207 1.336 . S
N208 N209 1.354 . S
N209 C205 1.336 . S
N209 N208 1.354 . S
N209 Zn213 2.020 . S
C210 O211 1.244 . S
C210 O234 1.257 . S
O211 C210 1.244 . S
O212 Zn204 2.019 . S
O212 C232 1.257 . S
Zn213 N209 2.020 . S
Zn213 O220 1.975 . S
Zn213 N229 2.119 . S
Zn213 O234 2.019 . S
N214 Zn204 2.119 . S
N214 C216 1.334 . S
N214 C217 1.328 . S
C215 C216 1.391 . S
C215 N218 1.329 . S
C215 H236 0.930 . S
C216 N214 1.334 . S
C216 C215 1.391 . S
C216 H223 0.930 . S
C217 N214 1.328 . S
C217 C219 1.392 . S
C217 H224 0.930 . S
N218 C215 1.329 . S
N218 C219 1.331 . S
C219 C217 1.392 . S
C219 N218 1.331 . S
O220 Zn213 1.975 . S
O220 C221 1.252 . S
C221 O220 1.252 . S
C221 O222 1.252 . S
O222 Zn204 1.975 . S
O222 C221 1.252 . S
H223 C216 0.930 . S
H224 C217 0.930 . S
C225 C226 1.392 . S
C225 N229 1.328 . S
C225 H231 0.930 . S
C226 C225 1.392 . S
C226 N230 1.331 . S
C227 C228 1.391 . S
C227 N230 1.329 . S
C227 H237 0.930 . S
C228 C227 1.391 . S
C228 N229 1.334 . S
C228 H235 0.930 . S
N229 Zn213 2.119 . S
N229 C225 1.328 . S
N229 C228 1.334 . S
N230 C226 1.331 . S
N230 C227 1.329 . S
H231 C225 0.930 . S
C232 O212 1.257 . S
C232 O233 1.244 . S
O233 C232 1.244 . S
O234 C210 1.257 . S
O234 Zn213 2.019 . S
H235 C228 0.930 . S
H236 C215 0.930 . S
H237 C227 0.930 . S
Zn238 N242 2.020 1_455 S
Zn238 O246 2.019 1_556 S
Zn238 N248 2.119 . S
Zn238 O256 1.975 1_456 S
C239 N240 1.334 . S
C239 N243 1.336 . S
N240 C239 1.334 . S
N240 C241 1.334 1_655 S
C241 N240 1.334 1_455 S
C241 N242 1.336 1_455 S
N242 Zn238 2.020 1_655 S
N242 C241 1.336 1_655 S
N242 N243 1.354 . S
N243 C239 1.336 . S
N243 N242 1.354 . S
N243 Zn247 2.020 . S
C244 O245 1.244 . S
C244 O268 1.257 . S
O245 C244 1.244 . S
O246 Zn238 2.019 1_554 S
O246 C266 1.257 . S
Zn247 N243 2.020 . S
Zn247 O254 1.975 1_556 S
Zn247 N263 2.119 1_556 S
Zn247 O268 2.019 . S
N248 Zn238 2.119 . S
N248 C250 1.334 . S
N248 C251 1.328 . S
C249 C250 1.391 . S
C249 N252 1.329 . S
C249 H270 0.930 . S
C250 N248 1.334 . S
C250 C249 1.391 . S
C250 H257 0.930 1_455 S
C251 N248 1.328 . S
C251 C253 1.392 . S
C251 H258 0.930 . S
N252 C249 1.329 . S
N252 C253 1.331 . S
C253 C251 1.392 . S
C253 N252 1.331 . S
O254 Zn247 1.975 1_554 S
O254 C255 1.252 . S
C255 O254 1.252 . S
C255 O256 1.252 . S
O256 Zn238 1.975 1_654 S
O256 C255 1.252 . S
H257 C250 0.930 1_655 S
H258 C251 0.930 . S
C259 C260 1.392 . S
C259 N263 1.328 . S
C259 H265 0.930 1_554 S
C260 C259 1.392 . S
C260 N264 1.331 . S
C261 C262 1.391 . S
C261 N264 1.329 . S
C261 H271 0.930 . S
C262 C261 1.391 . S
C262 N263 1.334 . S
C262 H269 0.930 . S
N263 Zn247 2.119 1_554 S
N263 C259 1.328 . S
N263 C262 1.334 . S
N264 C260 1.331 . S
N264 C261 1.329 . S
H265 C259 0.930 1_556 S
C266 O246 1.257 . S
C266 O267 1.244 . S
O267 C266 1.244 . S
O268 C244 1.257 . S
O268 Zn247 2.019 . S
H269 C262 0.930 . S
H270 C249 0.930 . S
H271 C261 0.930 . S
Zn272 N276 2.020 . S
Zn272 O280 2.019 . S
Zn272 N282 2.119 . S
Zn272 O290 1.975 . S
C273 N274 1.334 1_545 S
C273 N277 1.336 1_545 S
N274 C273 1.334 1_565 S
N274 C275 1.334 . S
C275 N274 1.334 . S
C275 N276 1.336 . S
N276 Zn272 2.020 . S
N276 C275 1.336 . S
N276 N277 1.354 . S
N277 C273 1.336 1_565 S
N277 N276 1.354 . S
N277 Zn281 2.020 1_565 S
C278 O279 1.244 . S
C278 O302 1.257 . S
O279 C278 1.244 . S
O280 Zn272 2.019 . S
O280 C300 1.257 . S
Zn281 N277 2.020 1_545 S
Zn281 O288 1.975 1_545 S
Zn281 N297 2.119 . S
Zn281 O302 2.019 . S
N282 Zn272 2.119 . S
N282 C284 1.334 . S
N282 C285 1.328 . S
C283 C284 1.391 . S
C283 N286 1.329 . S
C283 H304 0.930 . S
C284 N282 1.334 . S
C284 C283 1.391 . S
C284 H291 0.930 . S
C285 N282 1.328 . S
C285 C287 1.392 . S
C285 H292 0.930 . S
N286 C283 1.329 . S
N286 C287 1.331 . S
C287 C285 1.392 . S
C287 N286 1.331 . S
O288 Zn281 1.975 1_565 S
O288 C289 1.252 . S
C289 O288 1.252 . S
C289 O290 1.252 . S
O290 Zn272 1.975 . S
O290 C289 1.252 . S
H291 C284 0.930 . S
H292 C285 0.930 . S
C293 C294 1.392 . S
C293 N297 1.328 . S
C293 H299 0.930 . S
C294 C293 1.392 . S
C294 N298 1.331 . S
C295 C296 1.391 . S
C295 N298 1.329 . S
C295 H305 0.930 . S
C296 C295 1.391 . S
C296 N297 1.334 . S
C296 H303 0.930 1_545 S
N297 Zn281 2.119 . S
N297 C293 1.328 . S
N297 C296 1.334 . S
N298 C294 1.331 . S
N298 C295 1.329 . S
H299 C293 0.930 . S
C300 O280 1.257 . S
C300 O301 1.244 . S
O301 C300 1.244 . S
O302 C278 1.257 . S
O302 Zn281 2.019 . S
H303 C296 0.930 1_565 S
H304 C283 0.930 . S
H305 C295 0.930 . S
Zn306 N310 2.020 . S
Zn306 O314 2.019 . S
Zn306 N316 2.119 . S
Zn306 O324 1.975 . S
C307 N308 1.334 . S
C307 N311 1.336 . S
N308 C307 1.334 . S
N308 C309 1.334 . S
C309 N308 1.334 . S
C309 N310 1.336 . S
N310 Zn306 2.020 . S
N310 C309 1.336 . S
N310 N311 1.354 . S
N311 C307 1.336 . S
N311 N310 1.354 . S
N311 Zn315 2.020 . S
C312 O313 1.244 . S
C312 O336 1.257 . S
O313 C312 1.244 . S
O314 Zn306 2.019 . S
O314 C334 1.257 . S
Zn315 N311 2.020 . S
Zn315 O322 1.975 . S
Zn315 N331 2.119 . S
Zn315 O336 2.019 . S
N316 Zn306 2.119 . S
N316 C318 1.334 . S
N316 C319 1.328 . S
C317 C318 1.391 . S
C317 N320 1.329 . S
C317 H338 0.930 . S
C318 N316 1.334 . S
C318 C317 1.391 . S
C318 H325 0.930 . S
C319 N316 1.328 . S
C319 C321 1.392 . S
C319 H326 0.930 . S
N320 C317 1.329 . S
N320 C321 1.331 . S
C321 C319 1.392 . S
C321 N320 1.331 . S
O322 Zn315 1.975 . S
O322 C323 1.252 . S
C323 O322 1.252 . S
C323 O324 1.252 . S
O324 Zn306 1.975 . S
O324 C323 1.252 . S
H325 C318 0.930 . S
H326 C319 0.930 . S
C327 C328 1.392 . S
C327 N331 1.328 . S
C327 H333 0.930 . S
C328 C327 1.392 . S
C328 N332 1.331 . S
C329 C330 1.391 . S
C329 N332 1.329 . S
C329 H339 0.930 . S
C330 C329 1.391 . S
C330 N331 1.334 . S
C330 H337 0.930 . S
N331 Zn315 2.119 . S
N331 C327 1.328 . S
N331 C330 1.334 . S
N332 C328 1.331 . S
N332 C329 1.329 . S
H333 C327 0.930 . S
C334 O314 1.257 . S
C334 O335 1.244 . S
O335 C334 1.244 . S
O336 C312 1.257 . S
O336 Zn315 2.019 . S
H337 C330 0.930 . S
H338 C317 0.930 . S
H339 C329 0.930 . S
Zn340 N344 2.020 . S
Zn340 O348 2.019 . S
Zn340 N350 2.119 . S
Zn340 O358 1.975 . S
C341 N342 1.334 1_655 S
C341 N345 1.336 1_655 S
N342 C341 1.334 1_455 S
N342 C343 1.334 . S
C343 N342 1.334 . S
C343 N344 1.336 . S
N344 Zn340 2.020 . S
N344 C343 1.336 . S
N344 N345 1.354 . S
N345 C341 1.336 1_455 S
N345 N344 1.354 . S
N345 Zn349 2.020 1_455 S
C346 O347 1.244 . S
C346 O370 1.257 . S
O347 C346 1.244 . S
O348 Zn340 2.019 . S
O348 C368 1.257 . S
Zn349 N345 2.020 1_655 S
Zn349 O356 1.975 1_655 S
Zn349 N365 2.119 . S
Zn349 O370 2.019 . S
N350 Zn340 2.119 . S
N350 C352 1.334 . S
N350 C353 1.328 . S
C351 C352 1.391 . S
C351 N354 1.329 . S
C351 H372 0.930 . S
C352 N350 1.334 . S
C352 C351 1.391 . S
C352 H359 0.930 . S
C353 N350 1.328 . S
C353 C355 1.392 . S
C353 H360 0.930 . S
N354 C351 1.329 . S
N354 C355 1.331 . S
C355 C353 1.392 . S
C355 N354 1.331 . S
O356 Zn349 1.975 1_455 S
O356 C357 1.252 . S
C357 O356 1.252 . S
C357 O358 1.252 . S
O358 Zn340 1.975 . S
O358 C357 1.252 . S
H359 C352 0.930 . S
H360 C353 0.930 . S
C361 C362 1.392 . S
C361 N365 1.328 . S
C361 H367 0.930 . S
C362 C361 1.392 . S
C362 N366 1.331 . S
C363 C364 1.391 . S
C363 N366 1.329 . S
C363 H373 0.930 . S
C364 C363 1.391 . S
C364 N365 1.334 . S
C364 H371 0.930 1_655 S
N365 Zn349 2.119 . S
N365 C361 1.328 . S
N365 C364 1.334 . S
N366 C362 1.331 . S
N366 C363 1.329 . S
H367 C361 0.930 . S
C368 O348 1.257 . S
C368 O369 1.244 . S
O369 C368 1.244 . S
O370 C346 1.257 . S
O370 Zn349 2.019 . S
H371 C364 0.930 1_455 S
H372 C351 0.930 . S
H373 C363 0.930 . S
Zn374 N378 2.020 1_565 S
Zn374 O382 2.019 . S
Zn374 N384 2.119 . S
Zn374 O392 1.975 1_565 S
C375 N376 1.334 . S
C375 N379 1.336 . S
N376 C375 1.334 . S
N376 C377 1.334 1_545 S
C377 N376 1.334 1_565 S
C377 N378 1.336 1_565 S
N378 Zn374 2.020 1_545 S
N378 C377 1.336 1_545 S
N378 N379 1.354 . S
N379 C375 1.336 . S
N379 N378 1.354 . S
N379 Zn383 2.020 . S
C380 O381 1.244 . S
C380 O404 1.257 . S
O381 C380 1.244 . S
O382 Zn374 2.019 . S
O382 C402 1.257 . S
Zn383 N379 2.020 . S
Zn383 O390 1.975 . S
Zn383 N399 2.119 . S
Zn383 O404 2.019 . S
N384 Zn374 2.119 . S
N384 C386 1.334 . S
N384 C387 1.328 . S
C385 C386 1.391 . S
C385 N388 1.329 . S
C385 H406 0.930 . S
C386 N384 1.334 . S
C386 C385 1.391 . S
C386 H393 0.930 1_565 S
C387 N384 1.328 . S
C387 C389 1.392 . S
C387 H394 0.930 . S
N388 C385 1.329 . S
N388 C389 1.331 . S
C389 C387 1.392 . S
C389 N388 1.331 . S
O390 Zn383 1.975 . S
O390 C391 1.252 . S
C391 O390 1.252 . S
C391 O392 1.252 . S
O392 Zn374 1.975 1_545 S
O392 C391 1.252 . S
H393 C386 0.930 1_545 S
H394 C387 0.930 . S
C395 C396 1.392 . S
C395 N399 1.328 . S
C395 H401 0.930 . S
C396 C395 1.392 . S
C396 N400 1.331 . S
C397 C398 1.391 . S
C397 N400 1.329 . S
C397 H407 0.930 . S
C398 C397 1.391 . S
C398 N399 1.334 . S
C398 H405 0.930 . S
N399 Zn383 2.119 . S
N399 C395 1.328 . S
N399 C398 1.334 . S
N400 C396 1.331 . S
N400 C397 1.329 . S
H401 C395 0.930 . S
C402 O382 1.257 . S
C402 O403 1.244 . S
O403 C402 1.244 . S
O404 C380 1.257 . S
O404 Zn383 2.019 . S
H405 C398 0.930 . S
H406 C385 0.930 . S
H407 C397 0.930 . S
C408 C409 1.363 . S
C408 C414 1.379 . S
C408 N416 1.356 . S
C409 C408 1.363 . S
C409 C415 1.363 . S
C410 C411 1.363 . S
C410 C415 1.379 . S
C410 N417 1.356 . S
C411 C410 1.363 . S
C411 C414 1.363 . S
N412 C414 1.356 . S
N412 H424 0.984 . S
N412 H425 0.985 . S
N413 C415 1.356 . S
N413 H418 0.984 . S
N413 H419 0.985 . S
C414 C408 1.379 . S
C414 C411 1.363 . S
C414 N412 1.356 . S
C415 C409 1.363 . S
C415 C410 1.379 . S
C415 N413 1.356 . S
N416 C408 1.356 . S
N416 H422 0.984 . S
N416 H423 0.984 . S
N417 C410 1.356 . S
N417 H420 0.984 . S
N417 H421 0.985 . S
H418 N413 0.984 . S
H419 N413 0.985 . S
H420 N417 0.984 . S
H421 N417 0.985 . S
H422 N416 0.984 . S
H423 N416 0.984 . S
H424 N412 0.984 . S
H425 N412 0.985 . S
C426 C427 1.363 . S
C426 C432 1.379 . S
C426 N434 1.356 . S
C427 C426 1.363 . S
C427 C433 1.363 . S
C428 C429 1.363 . S
C428 C433 1.379 . S
C428 N435 1.356 . S
C429 C428 1.363 . S
C429 C432 1.363 . S
N430 C432 1.356 . S
N430 H442 0.984 . S
N430 H443 0.985 . S
N431 C433 1.356 . S
N431 H436 0.984 . S
N431 H437 0.985 . S
C432 C426 1.379 . S
C432 C429 1.363 . S
C432 N430 1.356 . S
C433 C427 1.363 . S
C433 C428 1.379 . S
C433 N431 1.356 . S
N434 C426 1.356 . S
N434 H440 0.984 . S
N434 H441 0.984 . S
N435 C428 1.356 . S
N435 H438 0.984 . S
N435 H439 0.985 . S
H436 N431 0.984 . S
H437 N431 0.985 . S
H438 N435 0.984 . S
H439 N435 0.985 . S
H440 N434 0.984 . S
H441 N434 0.984 . S
H442 N430 0.984 . S
H443 N430 0.985 . S
C444 C445 1.363 . S
C444 C450 1.379 . S
C444 N452 1.356 . S
C445 C444 1.363 . S
C445 C451 1.363 . S
C446 C447 1.363 . S
C446 C451 1.379 . S
C446 N453 1.356 . S
C447 C446 1.363 . S
C447 C450 1.363 . S
N448 C450 1.356 . S
N448 H460 0.984 . S
N448 H461 0.985 . S
N449 C451 1.356 . S
N449 H454 0.984 . S
N449 H455 0.985 . S
C450 C444 1.379 . S
C450 C447 1.363 . S
C450 N448 1.356 . S
C451 C445 1.363 . S
C451 C446 1.379 . S
C451 N449 1.356 . S
N452 C444 1.356 . S
N452 H458 0.984 . S
N452 H459 0.984 . S
N453 C446 1.356 . S
N453 H456 0.984 . S
N453 H457 0.985 . S
H454 N449 0.984 . S
H455 N449 0.985 . S
H456 N453 0.984 . S
H457 N453 0.985 . S
H458 N452 0.984 . S
H459 N452 0.984 . S
H460 N448 0.984 . S
H461 N448 0.985 . S
C462 C463 1.363 . S
C462 C468 1.379 . S
C462 N470 1.356 . S
C463 C462 1.363 . S
C463 C469 1.363 . S
C464 C465 1.363 . S
C464 C469 1.379 . S
C464 N471 1.356 . S
C465 C464 1.363 . S
C465 C468 1.363 . S
N466 C468 1.356 . S
N466 H478 0.984 . S
N466 H479 0.985 . S
N467 C469 1.356 . S
N467 H472 0.984 . S
N467 H473 0.985 . S
C468 C462 1.379 . S
C468 C465 1.363 . S
C468 N466 1.356 . S
C469 C463 1.363 . S
C469 C464 1.379 . S
C469 N467 1.356 . S
N470 C462 1.356 . S
N470 H476 0.984 . S
N470 H477 0.984 . S
N471 C464 1.356 . S
N471 H474 0.984 . S
N471 H475 0.985 . S
H472 N467 0.984 . S
H473 N467 0.985 . S
H474 N471 0.984 . S
H475 N471 0.985 . S
H476 N470 0.984 . S
H477 N470 0.984 . S
H478 N466 0.984 . S
H479 N466 0.985 . S
C480 C481 1.363 . S
C480 C486 1.379 . S
C480 N488 1.356 . S
C481 C480 1.363 . S
C481 C487 1.363 . S
C482 C483 1.363 . S
C482 C487 1.379 . S
C482 N489 1.356 . S
C483 C482 1.363 . S
C483 C486 1.363 . S
N484 C486 1.356 . S
N484 H496 0.984 . S
N484 H497 0.985 . S
N485 C487 1.356 . S
N485 H490 0.984 . S
N485 H491 0.985 . S
C486 C480 1.379 . S
C486 C483 1.363 . S
C486 N484 1.356 . S
C487 C481 1.363 . S
C487 C482 1.379 . S
C487 N485 1.356 . S
N488 C480 1.356 . S
N488 H494 0.984 . S
N488 H495 0.984 . S
N489 C482 1.356 . S
N489 H492 0.984 . S
N489 H493 0.985 . S
H490 N485 0.984 . S
H491 N485 0.985 . S
H492 N489 0.984 . S
H493 N489 0.985 . S
H494 N488 0.984 . S
H495 N488 0.984 . S
H496 N484 0.984 . S
H497 N484 0.985 . S
C498 C499 1.363 . S
C498 C504 1.379 . S
C498 N506 1.356 . S
C499 C498 1.363 . S
C499 C505 1.363 . S
C500 C501 1.363 . S
C500 C505 1.379 . S
C500 N507 1.356 . S
C501 C500 1.363 . S
C501 C504 1.363 . S
N502 C504 1.356 . S
N502 H514 0.984 . S
N502 H515 0.985 . S
N503 C505 1.356 . S
N503 H508 0.984 . S
N503 H509 0.985 . S
C504 C498 1.379 . S
C504 C501 1.363 . S
C504 N502 1.356 . S
C505 C499 1.363 . S
C505 C500 1.379 . S
C505 N503 1.356 . S
N506 C498 1.356 . S
N506 H512 0.984 . S
N506 H513 0.984 . S
N507 C500 1.356 . S
N507 H510 0.984 . S
N507 H511 0.985 . S
H508 N503 0.984 . S
H509 N503 0.985 . S
H510 N507 0.984 . S
H511 N507 0.985 . S
H512 N506 0.984 . S
H513 N506 0.984 . S
H514 N502 0.984 . S
H515 N502 0.985 . S
C516 C517 1.363 . S
C516 C522 1.379 . S
C516 N524 1.356 . S
C517 C516 1.363 . S
C517 C523 1.363 . S
C518 C519 1.363 . S
C518 C523 1.379 . S
C518 N525 1.356 . S
C519 C518 1.363 . S
C519 C522 1.363 . S
N520 C522 1.356 . S
N520 H532 0.984 . S
N520 H533 0.985 . S
N521 C523 1.356 . S
N521 H526 0.984 . S
N521 H527 0.985 . S
C522 C516 1.379 . S
C522 C519 1.363 . S
C522 N520 1.356 . S
C523 C517 1.363 . S
C523 C518 1.379 . S
C523 N521 1.356 . S
N524 C516 1.356 . S
N524 H530 0.984 . S
N524 H531 0.984 . S
N525 C518 1.356 . S
N525 H528 0.984 . S
N525 H529 0.985 . S
H526 N521 0.984 . S
H527 N521 0.985 . S
H528 N525 0.984 . S
H529 N525 0.985 . S
H530 N524 0.984 . S
H531 N524 0.984 . S
H532 N520 0.984 . S
H533 N520 0.985 . S
C534 C535 1.363 . S
C534 C540 1.379 . S
C534 N542 1.356 . S
C535 C534 1.363 . S
C535 C541 1.363 . S
C536 C537 1.363 . S
C536 C541 1.379 . S
C536 N543 1.356 . S
C537 C536 1.363 . S
C537 C540 1.363 . S
N538 C540 1.356 . S
N538 H550 0.984 . S
N538 H551 0.985 . S
N539 C541 1.356 . S
N539 H544 0.984 . S
N539 H545 0.985 . S
C540 C534 1.379 . S
C540 C537 1.363 . S
C540 N538 1.356 . S
C541 C535 1.363 . S
C541 C536 1.379 . S
C541 N539 1.356 . S
N542 C534 1.356 . S
N542 H548 0.984 . S
N542 H549 0.984 . S
N543 C536 1.356 . S
N543 H546 0.984 . S
N543 H547 0.985 . S
H544 N539 0.984 . S
H545 N539 0.985 . S
H546 N543 0.984 . S
H547 N543 0.985 . S
H548 N542 0.984 . S
H549 N542 0.984 . S
H550 N538 0.984 . S
H551 N538 0.985 . S
C552 C553 1.363 . S
C552 C558 1.379 . S
C552 N560 1.356 . S
C553 C552 1.363 . S
C553 C559 1.363 . S
C554 C555 1.363 . S
C554 C559 1.379 . S
C554 N561 1.356 . S
C555 C554 1.363 . S
C555 C558 1.363 . S
N556 C558 1.356 . S
N556 H568 0.984 . S
N556 H569 0.985 . S
N557 C559 1.356 . S
N557 H562 0.984 . S
N557 H563 0.985 . S
C558 C552 1.379 . S
C558 C555 1.363 . S
C558 N556 1.356 . S
C559 C553 1.363 . S
C559 C554 1.379 . S
C559 N557 1.356 . S
N560 C552 1.356 . S
N560 H566 0.984 . S
N560 H567 0.984 . S
N561 C554 1.356 . S
N561 H564 0.984 . S
N561 H565 0.985 . S
H562 N557 0.984 . S
H563 N557 0.985 . S
H564 N561 0.984 . S
H565 N561 0.985 . S
H566 N560 0.984 . S
H567 N560 0.984 . S
H568 N556 0.984 . S
H569 N556 0.985 . S
C570 C571 1.363 . S
C570 C576 1.379 . S
C570 N578 1.356 . S
C571 C570 1.363 . S
C571 C577 1.363 . S
C572 C573 1.363 . S
C572 C577 1.379 . S
C572 N579 1.356 . S
C573 C572 1.363 . S
C573 C576 1.363 . S
N574 C576 1.356 . S
N574 H586 0.984 . S
N574 H587 0.985 . S
N575 C577 1.356 . S
N575 H580 0.984 . S
N575 H581 0.985 . S
C576 C570 1.379 . S
C576 C573 1.363 . S
C576 N574 1.356 . S
C577 C571 1.363 . S
C577 C572 1.379 . S
C577 N575 1.356 . S
N578 C570 1.356 . S
N578 H584 0.984 . S
N578 H585 0.984 . S
N579 C572 1.356 . S
N579 H582 0.984 . S
N579 H583 0.985 . S
H580 N575 0.984 . S
H581 N575 0.985 . S
H582 N579 0.984 . S
H583 N579 0.985 . S
H584 N578 0.984 . S
H585 N578 0.984 . S
H586 N574 0.984 . S
H587 N574 0.985 . S
C588 C589 1.363 . S
C588 C594 1.379 . S
C588 N596 1.356 . S
C589 C588 1.363 . S
C589 C595 1.363 . S
C590 C591 1.363 . S
C590 C595 1.379 . S
C590 N597 1.356 . S
C591 C590 1.363 . S
C591 C594 1.363 . S
N592 C594 1.356 . S
N592 H604 0.984 . S
N592 H605 0.985 . S
N593 C595 1.356 . S
N593 H598 0.984 . S
N593 H599 0.985 . S
C594 C588 1.379 . S
C594 C591 1.363 . S
C594 N592 1.356 . S
C595 C589 1.363 . S
C595 C590 1.379 . S
C595 N593 1.356 . S
N596 C588 1.356 . S
N596 H602 0.984 . S
N596 H603 0.984 . S
N597 C590 1.356 . S
N597 H600 0.984 . S
N597 H601 0.985 . S
H598 N593 0.984 . S
H599 N593 0.985 . S
H600 N597 0.984 . S
H601 N597 0.985 . S
H602 N596 0.984 . S
H603 N596 0.984 . S
H604 N592 0.984 . S
H605 N592 0.985 . S
C606 C607 1.363 . S
C606 C612 1.379 . S
C606 N614 1.356 . S
C607 C606 1.363 . S
C607 C613 1.363 . S
C608 C609 1.363 . S
C608 C613 1.379 . S
C608 N615 1.356 . S
C609 C608 1.363 . S
C609 C612 1.363 . S
N610 C612 1.356 . S
N610 H622 0.984 . S
N610 H623 0.985 . S
N611 C613 1.356 . S
N611 H616 0.984 . S
N611 H617 0.985 . S
C612 C606 1.379 . S
C612 C609 1.363 . S
C612 N610 1.356 . S
C613 C607 1.363 . S
C613 C608 1.379 . S
C613 N611 1.356 . S
N614 C606 1.356 . S
N614 H620 0.984 . S
N614 H621 0.984 . S
N615 C608 1.356 . S
N615 H618 0.984 . S
N615 H619 0.985 . S
H616 N611 0.984 . S
H617 N611 0.985 . S
H618 N615 0.984 . S
H619 N615 0.985 . S
H620 N614 0.984 . S
H621 N614 0.984 . S
H622 N610 0.984 . S
H623 N610 0.985 . S
C624 C625 1.363 . S
C624 C630 1.379 . S
C624 N632 1.356 . S
C625 C624 1.363 . S
C625 C631 1.363 . S
C626 C627 1.363 . S
C626 C631 1.379 . S
C626 N633 1.356 . S
C627 C626 1.363 . S
C627 C630 1.363 . S
N628 C630 1.356 . S
N628 H640 0.984 . S
N628 H641 0.985 . S
N629 C631 1.356 . S
N629 H634 0.984 . S
N629 H635 0.985 . S
C630 C624 1.379 . S
C630 C627 1.363 . S
C630 N628 1.356 . S
C631 C625 1.363 . S
C631 C626 1.379 . S
C631 N629 1.356 . S
N632 C624 1.356 . S
N632 H638 0.984 . S
N632 H639 0.984 . S
N633 C626 1.356 . S
N633 H636 0.984 . S
N633 H637 0.985 . S
H634 N629 0.984 . S
H635 N629 0.985 . S
H636 N633 0.984 . S
H637 N633 0.985 . S
H638 N632 0.984 . S
H639 N632 0.984 . S
H640 N628 0.984 . S
H641 N628 0.985 . S
C642 C643 1.363 . S
C642 C648 1.379 . S
C642 N650 1.356 . S
C643 C642 1.363 . S
C643 C649 1.363 . S
C644 C645 1.363 . S
C644 C649 1.379 . S
C644 N651 1.356 . S
C645 C644 1.363 . S
C645 C648 1.363 . S
N646 C648 1.356 . S
N646 H658 0.984 1_554 S
N646 H659 0.985 . S
N647 C649 1.356 . S
N647 H652 0.984 . S
N647 H653 0.985 . S
C648 C642 1.379 . S
C648 C645 1.363 . S
C648 N646 1.356 . S
C649 C643 1.363 . S
C649 C644 1.379 . S
C649 N647 1.356 . S
N650 C642 1.356 . S
N650 H656 0.984 . S
N650 H657 0.984 . S
N651 C644 1.356 . S
N651 H654 0.984 . S
N651 H655 0.985 . S
H652 N647 0.984 . S
H653 N647 0.985 . S
H654 N651 0.984 . S
H655 N651 0.985 . S
H656 N650 0.984 . S
H657 N650 0.984 . S
H658 N646 0.984 1_556 S
H659 N646 0.985 . S
C660 C661 1.363 . S
C660 C666 1.379 . S
C660 N668 1.356 . S
C661 C660 1.363 . S
C661 C667 1.363 . S
C662 C663 1.363 . S
C662 C667 1.379 . S
C662 N669 1.356 . S
C663 C662 1.363 . S
C663 C666 1.363 . S
N664 C666 1.356 . S
N664 H676 0.984 . S
N664 H677 0.985 . S
N665 C667 1.356 . S
N665 H670 0.984 . S
N665 H671 0.985 . S
C666 C660 1.379 . S
C666 C663 1.363 . S
C666 N664 1.356 . S
C667 C661 1.363 . S
C667 C662 1.379 . S
C667 N665 1.356 . S
N668 C660 1.356 . S
N668 H674 0.984 . S
N668 H675 0.984 . S
N669 C662 1.356 . S
N669 H672 0.984 . S
N669 H673 0.985 . S
H670 N665 0.984 . S
H671 N665 0.985 . S
H672 N669 0.984 . S
H673 N669 0.985 . S
H674 N668 0.984 . S
H675 N668 0.984 . S
H676 N664 0.984 . S
H677 N664 0.985 . S
C678 C679 1.363 . S
C678 C684 1.379 . S
C678 N686 1.356 . S
C679 C678 1.363 . S
C679 C685 1.363 . S
C680 C681 1.363 . S
C680 C685 1.379 . S
C680 N687 1.356 . S
C681 C680 1.363 . S
C681 C684 1.363 . S
N682 C684 1.356 . S
N682 H694 0.984 . S
N682 H695 0.985 . S
N683 C685 1.356 . S
N683 H688 0.984 . S
N683 H689 0.985 . S
C684 C678 1.379 . S
C684 C681 1.363 . S
C684 N682 1.356 . S
C685 C679 1.363 . S
C685 C680 1.379 . S
C685 N683 1.356 . S
N686 C678 1.356 . S
N686 H692 0.984 . S
N686 H693 0.984 . S
N687 C680 1.356 . S
N687 H690 0.984 . S
N687 H691 0.985 . S
H688 N683 0.984 . S
H689 N683 0.985 . S
H690 N687 0.984 . S
H691 N687 0.985 . S
H692 N686 0.984 . S
H693 N686 0.984 . S
H694 N682 0.984 . S
H695 N682 0.985 . S
C696 C697 1.363 . S
C696 C702 1.379 . S
C696 N704 1.356 . S
C697 C696 1.363 . S
C697 C703 1.363 . S
C698 C699 1.363 . S
C698 C703 1.379 . S
C698 N705 1.356 . S
C699 C698 1.363 . S
C699 C702 1.363 . S
N700 C702 1.356 . S
N700 H712 0.984 . S
N700 H713 0.985 . S
N701 C703 1.356 . S
N701 H706 0.984 . S
N701 H707 0.985 . S
C702 C696 1.379 . S
C702 C699 1.363 . S
C702 N700 1.356 . S
C703 C697 1.363 . S
C703 C698 1.379 . S
C703 N701 1.356 . S
N704 C696 1.356 . S
N704 H710 0.984 . S
N704 H711 0.984 . S
N705 C698 1.356 . S
N705 H708 0.984 . S
N705 H709 0.985 . S
H706 N701 0.984 . S
H707 N701 0.985 . S
H708 N705 0.984 . S
H709 N705 0.985 . S
H710 N704 0.984 . S
H711 N704 0.984 . S
H712 N700 0.984 . S
H713 N700 0.985 . S
C714 C715 1.363 . S
C714 C720 1.379 . S
C714 N722 1.356 . S
C715 C714 1.363 . S
C715 C721 1.363 . S
C716 C717 1.363 . S
C716 C721 1.379 . S
C716 N723 1.356 . S
C717 C716 1.363 . S
C717 C720 1.363 . S
N718 C720 1.356 . S
N718 H730 0.984 . S
N718 H731 0.985 . S
N719 C721 1.356 . S
N719 H724 0.984 . S
N719 H725 0.985 . S
C720 C714 1.379 . S
C720 C717 1.363 . S
C720 N718 1.356 . S
C721 C715 1.363 . S
C721 C716 1.379 . S
C721 N719 1.356 . S
N722 C714 1.356 . S
N722 H728 0.984 . S
N722 H729 0.984 . S
N723 C716 1.356 . S
N723 H726 0.984 . S
N723 H727 0.985 . S
H724 N719 0.984 . S
H725 N719 0.985 . S
H726 N723 0.984 . S
H727 N723 0.985 . S
H728 N722 0.984 . S
H729 N722 0.984 . S
H730 N718 0.984 . S
H731 N718 0.985 . S
C732 C733 1.363 . S
C732 C738 1.379 . S
C732 N740 1.356 . S
C733 C732 1.363 . S
C733 C739 1.363 . S
C734 C735 1.363 . S
C734 C739 1.379 . S
C734 N741 1.356 . S
C735 C734 1.363 . S
C735 C738 1.363 . S
N736 C738 1.356 . S
N736 H748 0.984 . S
N736 H749 0.985 . S
N737 C739 1.356 . S
N737 H742 0.984 . S
N737 H743 0.985 . S
C738 C732 1.379 . S
C738 C735 1.363 . S
C738 N736 1.356 . S
C739 C733 1.363 . S
C739 C734 1.379 . S
C739 N737 1.356 . S
N740 C732 1.356 . S
N740 H746 0.984 . S
N740 H747 0.984 . S
N741 C734 1.356 . S
N741 H744 0.984 . S
N741 H745 0.985 . S
H742 N737 0.984 . S
H743 N737 0.985 . S
H744 N741 0.984 . S
H745 N741 0.985 . S
H746 N740 0.984 . S
H747 N740 0.984 . S
H748 N736 0.984 . S
H749 N736 0.985 . S
C750 C751 1.363 . S
C750 C756 1.379 . S
C750 N758 1.356 . S
C751 C750 1.363 . S
C751 C757 1.363 . S
C752 C753 1.363 . S
C752 C757 1.379 . S
C752 N759 1.356 . S
C753 C752 1.363 . S
C753 C756 1.363 . S
N754 C756 1.356 . S
N754 H766 0.984 . S
N754 H767 0.985 . S
N755 C757 1.356 . S
N755 H760 0.984 . S
N755 H761 0.985 . S
C756 C750 1.379 . S
C756 C753 1.363 . S
C756 N754 1.356 . S
C757 C751 1.363 . S
C757 C752 1.379 . S
C757 N755 1.356 . S
N758 C750 1.356 . S
N758 H764 0.984 . S
N758 H765 0.984 . S
N759 C752 1.356 . S
N759 H762 0.984 . S
N759 H763 0.985 . S
H760 N755 0.984 . S
H761 N755 0.985 . S
H762 N759 0.984 . S
H763 N759 0.985 . S
H764 N758 0.984 . S
H765 N758 0.984 . S
H766 N754 0.984 . S
H767 N754 0.985 . S
C768 C769 1.363 . S
C768 C774 1.379 . S
C768 N776 1.356 . S
C769 C768 1.363 . S
C769 C775 1.363 . S
C770 C771 1.363 . S
C770 C775 1.379 . S
C770 N777 1.356 . S
C771 C770 1.363 . S
C771 C774 1.363 . S
N772 C774 1.356 . S
N772 H784 0.984 . S
N772 H785 0.985 . S
N773 C775 1.356 . S
N773 H778 0.984 . S
N773 H779 0.985 1_565 S
C774 C768 1.379 . S
C774 C771 1.363 . S
C774 N772 1.356 . S
C775 C769 1.363 . S
C775 C770 1.379 . S
C775 N773 1.356 . S
N776 C768 1.356 . S
N776 H782 0.984 . S
N776 H783 0.984 . S
N777 C770 1.356 . S
N777 H780 0.984 . S
N777 H781 0.985 1_565 S
H778 N773 0.984 . S
H779 N773 0.985 1_545 S
H780 N777 0.984 . S
H781 N777 0.985 1_545 S
H782 N776 0.984 . S
H783 N776 0.984 . S
H784 N772 0.984 . S
H785 N772 0.985 . S
C786 C787 1.363 . S
C786 C792 1.379 . S
C786 N794 1.356 . S
C787 C786 1.363 . S
C787 C793 1.363 . S
C788 C789 1.363 . S
C788 C793 1.379 . S
C788 N795 1.356 . S
C789 C788 1.363 . S
C789 C792 1.363 . S
N790 C792 1.356 . S
N790 H802 0.984 . S
N790 H803 0.985 . S
N791 C793 1.356 . S
N791 H796 0.984 . S
N791 H797 0.985 . S
C792 C786 1.379 . S
C792 C789 1.363 . S
C792 N790 1.356 . S
C793 C787 1.363 . S
C793 C788 1.379 . S
C793 N791 1.356 . S
N794 C786 1.356 . S
N794 H800 0.984 . S
N794 H801 0.984 . S
N795 C788 1.356 . S
N795 H798 0.984 . S
N795 H799 0.985 . S
H796 N791 0.984 . S
H797 N791 0.985 . S
H798 N795 0.984 . S
H799 N795 0.985 . S
H800 N794 0.984 . S
H801 N794 0.984 . S
H802 N790 0.984 . S
H803 N790 0.985 . S
C804 C805 1.363 . S
C804 C810 1.379 . S
C804 N812 1.356 . S
C805 C804 1.363 . S
C805 C811 1.363 . S
C806 C807 1.363 . S
C806 C811 1.379 . S
C806 N813 1.356 . S
C807 C806 1.363 . S
C807 C810 1.363 . S
N808 C810 1.356 . S
N808 H820 0.984 . S
N808 H821 0.985 . S
N809 C811 1.356 . S
N809 H814 0.984 . S
N809 H815 0.985 . S
C810 C804 1.379 . S
C810 C807 1.363 . S
C810 N808 1.356 . S
C811 C805 1.363 . S
C811 C806 1.379 . S
C811 N809 1.356 . S
N812 C804 1.356 . S
N812 H818 0.984 . S
N812 H819 0.984 . S
N813 C806 1.356 . S
N813 H816 0.984 . S
N813 H817 0.985 . S
H814 N809 0.984 . S
H815 N809 0.985 . S
H816 N813 0.984 . S
H817 N813 0.985 . S
H818 N812 0.984 . S
H819 N812 0.984 . S
H820 N808 0.984 . S
H821 N808 0.985 . S
C822 C823 1.363 . S
C822 C828 1.379 . S
C822 N830 1.356 . S
C823 C822 1.363 . S
C823 C829 1.363 . S
C824 C825 1.363 . S
C824 C829 1.379 . S
C824 N831 1.356 . S
C825 C824 1.363 . S
C825 C828 1.363 . S
N826 C828 1.356 . S
N826 H838 0.984 . S
N826 H839 0.985 . S
N827 C829 1.356 . S
N827 H832 0.984 . S
N827 H833 0.985 1_545 S
C828 C822 1.379 . S
C828 C825 1.363 . S
C828 N826 1.356 . S
C829 C823 1.363 . S
C829 C824 1.379 . S
C829 N827 1.356 . S
N830 C822 1.356 . S
N830 H836 0.984 . S
N830 H837 0.984 . S
N831 C824 1.356 . S
N831 H834 0.984 . S
N831 H835 0.985 1_545 S
H832 N827 0.984 . S
H833 N827 0.985 1_565 S
H834 N831 0.984 . S
H835 N831 0.985 1_565 S
H836 N830 0.984 . S
H837 N830 0.984 . S
H838 N826 0.984 . S
H839 N826 0.985 . S
C840 C841 1.363 . S
C840 C846 1.379 . S
C840 N848 1.356 . S
C841 C840 1.363 . S
C841 C847 1.363 . S
C842 C843 1.363 . S
C842 C847 1.379 . S
C842 N849 1.356 . S
C843 C842 1.363 . S
C843 C846 1.363 . S
N844 C846 1.356 . S
N844 H856 0.984 . S
N844 H857 0.985 . S
N845 C847 1.356 . S
N845 H850 0.984 . S
N845 H851 0.985 . S
C846 C840 1.379 . S
C846 C843 1.363 . S
C846 N844 1.356 . S
C847 C841 1.363 . S
C847 C842 1.379 . S
C847 N845 1.356 . S
N848 C840 1.356 . S
N848 H854 0.984 . S
N848 H855 0.984 . S
N849 C842 1.356 . S
N849 H852 0.984 . S
N849 H853 0.985 . S
H850 N845 0.984 . S
H851 N845 0.985 . S
H852 N849 0.984 . S
H853 N849 0.985 . S
H854 N848 0.984 . S
H855 N848 0.984 . S
H856 N844 0.984 . S
H857 N844 0.985 . S
C858 C859 1.363 . S
C858 C864 1.379 . S
C858 N866 1.356 . S
C859 C858 1.363 . S
C859 C865 1.363 . S
C860 C861 1.363 . S
C860 C865 1.379 . S
C860 N867 1.356 . S
C861 C860 1.363 . S
C861 C864 1.363 . S
N862 C864 1.356 . S
N862 H874 0.984 . S
N862 H875 0.985 . S
N863 C865 1.356 . S
N863 H868 0.984 . S
N863 H869 0.985 . S
C864 C858 1.379 . S
C864 C861 1.363 . S
C864 N862 1.356 . S
C865 C859 1.363 . S
C865 C860 1.379 . S
C865 N863 1.356 . S
N866 C858 1.356 . S
N866 H872 0.984 . S
N866 H873 0.984 . S
N867 C860 1.356 . S
N867 H870 0.984 . S
N867 H871 0.985 . S
H868 N863 0.984 . S
H869 N863 0.985 . S
H870 N867 0.984 . S
H871 N867 0.985 . S
H872 N866 0.984 . S
H873 N866 0.984 . S
H874 N862 0.984 . S
H875 N862 0.985 . S
C876 C877 1.363 . S
C876 C882 1.379 . S
C876 N884 1.356 . S
C877 C876 1.363 . S
C877 C883 1.363 . S
C878 C879 1.363 . S
C878 C883 1.379 . S
C878 N885 1.356 . S
C879 C878 1.363 . S
C879 C882 1.363 . S
N880 C882 1.356 . S
N880 H892 0.984 . S
N880 H893 0.985 . S
N881 C883 1.356 . S
N881 H886 0.984 . S
N881 H887 0.985 . S
C882 C876 1.379 . S
C882 C879 1.363 . S
C882 N880 1.356 . S
C883 C877 1.363 . S
C883 C878 1.379 . S
C883 N881 1.356 . S
N884 C876 1.356 . S
N884 H890 0.984 . S
N884 H891 0.984 . S
N885 C878 1.356 . S
N885 H888 0.984 . S
N885 H889 0.985 . S
H886 N881 0.984 . S
H887 N881 0.985 . S
H888 N885 0.984 . S
H889 N885 0.985 . S
H890 N884 0.984 . S
H891 N884 0.984 . S
H892 N880 0.984 . S
H893 N880 0.985 . S
C894 C895 1.363 . S
C894 C900 1.379 . S
C894 N902 1.356 . S
C895 C894 1.363 . S
C895 C901 1.363 . S
C896 C897 1.363 . S
C896 C901 1.379 . S
C896 N903 1.356 . S
C897 C896 1.363 . S
C897 C900 1.363 . S
N898 C900 1.356 . S
N898 H910 0.984 . S
N898 H911 0.985 . S
N899 C901 1.356 . S
N899 H904 0.984 . S
N899 H905 0.985 . S
C900 C894 1.379 . S
C900 C897 1.363 . S
C900 N898 1.356 . S
C901 C895 1.363 . S
C901 C896 1.379 . S
C901 N899 1.356 . S
N902 C894 1.356 . S
N902 H908 0.984 . S
N902 H909 0.984 . S
N903 C896 1.356 . S
N903 H906 0.984 . S
N903 H907 0.985 . S
H904 N899 0.984 . S
H905 N899 0.985 . S
H906 N903 0.984 . S
H907 N903 0.985 . S
H908 N902 0.984 . S
H909 N902 0.984 . S
H910 N898 0.984 . S
H911 N898 0.985 . S
C912 C913 1.363 . S
C912 C918 1.379 . S
C912 N920 1.356 . S
C913 C912 1.363 . S
C913 C919 1.363 . S
C914 C915 1.363 . S
C914 C919 1.379 . S
C914 N921 1.356 . S
C915 C914 1.363 . S
C915 C918 1.363 . S
N916 C918 1.356 . S
N916 H928 0.984 . S
N916 H929 0.985 . S
N917 C919 1.356 . S
N917 H922 0.984 . S
N917 H923 0.985 . S
C918 C912 1.379 . S
C918 C915 1.363 . S
C918 N916 1.356 . S
C919 C913 1.363 . S
C919 C914 1.379 . S
C919 N917 1.356 . S
N920 C912 1.356 . S
N920 H926 0.984 . S
N920 H927 0.984 . S
N921 C914 1.356 . S
N921 H924 0.984 . S
N921 H925 0.985 . S
H922 N917 0.984 . S
H923 N917 0.985 . S
H924 N921 0.984 . S
H925 N921 0.985 . S
H926 N920 0.984 . S
H927 N920 0.984 . S
H928 N916 0.984 . S
H929 N916 0.985 . S
C930 C931 1.363 . S
C930 C936 1.379 . S
C930 N938 1.356 . S
C931 C930 1.363 . S
C931 C937 1.363 . S
C932 C933 1.363 . S
C932 C937 1.379 . S
C932 N939 1.356 . S
C933 C932 1.363 . S
C933 C936 1.363 . S
N934 C936 1.356 . S
N934 H946 0.984 . S
N934 H947 0.985 . S
N935 C937 1.356 . S
N935 H940 0.984 . S
N935 H941 0.985 . S
C936 C930 1.379 . S
C936 C933 1.363 . S
C936 N934 1.356 . S
C937 C931 1.363 . S
C937 C932 1.379 . S
C937 N935 1.356 . S
N938 C930 1.356 . S
N938 H944 0.984 . S
N938 H945 0.984 . S
N939 C932 1.356 . S
N939 H942 0.984 . S
N939 H943 0.985 . S
H940 N935 0.984 . S
H941 N935 0.985 . S
H942 N939 0.984 . S
H943 N939 0.985 . S
H944 N938 0.984 . S
H945 N938 0.984 . S
H946 N934 0.984 . S
H947 N934 0.985 . S
C948 C949 1.385 . S
C948 C954 1.384 . S
C948 N956 1.334 1_554 S
C949 C948 1.385 . S
C949 C955 1.363 . S
C950 C951 1.363 . S
C950 C955 1.379 . S
C950 N957 1.356 . S
C951 C950 1.363 . S
C951 C954 1.363 . S
N952 C954 1.356 1_556 S
N952 H964 0.984 . S
N952 H965 0.997 . S
N953 C955 1.356 . S
N953 H958 0.984 . S
N953 H959 0.985 . S
C954 C948 1.384 . S
C954 C951 1.363 . S
C954 N952 1.356 1_554 S
C955 C949 1.363 . S
C955 C950 1.379 . S
C955 N953 1.356 . S
N956 C948 1.334 1_556 S
N956 H962 0.984 . S
N956 H963 0.984 . S
N957 C950 1.356 . S
N957 H960 0.984 . S
N957 H961 0.985 . S
H958 N953 0.984 . S
H959 N953 0.985 . S
H960 N957 0.984 . S
H961 N957 0.985 . S
H962 N956 0.984 . S
H963 N956 0.984 . S
H964 N952 0.984 . S
H965 N952 0.997 . S
C966 C967 1.363 . S
C966 C972 1.379 . S
C966 N974 1.356 . S
C967 C966 1.363 . S
C967 C973 1.363 . S
C968 C969 1.363 . S
C968 C973 1.379 . S
C968 N975 1.356 . S
C969 C968 1.363 . S
C969 C972 1.363 . S
N970 C972 1.356 . S
N970 H982 0.984 . S
N970 H983 0.985 . S
N971 C973 1.356 . S
N971 H976 0.984 . S
N971 H977 0.985 . S
C972 C966 1.379 . S
C972 C969 1.363 . S
C972 N970 1.356 . S
C973 C967 1.363 . S
C973 C968 1.379 . S
C973 N971 1.356 . S
N974 C966 1.356 . S
N974 H980 0.984 . S
N974 H981 0.984 . S
N975 C968 1.356 . S
N975 H978 0.984 . S
N975 H979 0.985 . S
H976 N971 0.984 . S
H977 N971 0.985 . S
H978 N975 0.984 . S
H979 N975 0.985 . S
H980 N974 0.984 . S
H981 N974 0.984 . S
H982 N970 0.984 . S
H983 N970 0.985 . S
C984 C985 1.363 . S
C984 C990 1.379 . S
C984 N992 1.356 . S
C985 C984 1.363 . S
C985 C991 1.363 . S
C986 C987 1.363 . S
C986 C991 1.379 . S
C986 N993 1.356 . S
C987 C986 1.363 . S
C987 C990 1.363 . S
N988 C990 1.356 . S
N988 H1000 0.984 . S
N988 H1001 0.985 . S
N989 C991 1.356 . S
N989 H994 0.984 . S
N989 H995 0.985 . S
C990 C984 1.379 . S
C990 C987 1.363 . S
C990 N988 1.356 . S
C991 C985 1.363 . S
C991 C986 1.379 . S
C991 N989 1.356 . S
N992 C984 1.356 . S
N992 H998 0.984 . S
N992 H999 0.984 . S
N993 C986 1.356 . S
N993 H996 0.984 . S
N993 H997 0.985 . S
H994 N989 0.984 . S
H995 N989 0.985 . S
H996 N993 0.984 . S
H997 N993 0.985 . S
H998 N992 0.984 . S
H999 N992 0.984 . S
H1000 N988 0.984 . S
H1001 N988 0.985 . S
C1002 C1003 1.363 . S
C1002 C1008 1.379 . S
C1002 N1010 1.356 . S
C1003 C1002 1.363 . S
C1003 C1009 1.363 . S
C1004 C1005 1.363 . S
C1004 C1009 1.379 . S
C1004 N1011 1.356 . S
C1005 C1004 1.363 . S
C1005 C1008 1.363 . S
N1006 C1008 1.356 . S
N1006 H1018 0.984 . S
N1006 H1019 0.985 . S
N1007 C1009 1.356 . S
N1007 H1012 0.984 . S
N1007 H1013 0.985 . S
C1008 C1002 1.379 . S
C1008 C1005 1.363 . S
C1008 N1006 1.356 . S
C1009 C1003 1.363 . S
C1009 C1004 1.379 . S
C1009 N1007 1.356 . S
N1010 C1002 1.356 . S
N1010 H1016 0.984 . S
N1010 H1017 0.984 . S
N1011 C1004 1.356 . S
N1011 H1014 0.984 . S
N1011 H1015 0.985 . S
H1012 N1007 0.984 . S
H1013 N1007 0.985 . S
H1014 N1011 0.984 . S
H1015 N1011 0.985 . S
H1016 N1010 0.984 . S
H1017 N1010 0.984 . S
H1018 N1006 0.984 . S
H1019 N1006 0.985 . S
C1020 C1021 1.363 . S
C1020 C1026 1.379 . S
C1020 N1028 1.356 . S
C1021 C1020 1.363 . S
C1021 C1027 1.363 . S
C1022 C1023 1.363 . S
C1022 C1027 1.379 . S
C1022 N1029 1.356 . S
C1023 C1022 1.363 . S
C1023 C1026 1.363 . S
N1024 C1026 1.356 . S
N1024 H1036 0.984 . S
N1024 H1037 0.985 . S
N1025 C1027 1.356 . S
N1025 H1030 0.984 . S
N1025 H1031 0.985 . S
C1026 C1020 1.379 . S
C1026 C1023 1.363 . S
C1026 N1024 1.356 . S
C1027 C1021 1.363 . S
C1027 C1022 1.379 . S
C1027 N1025 1.356 . S
N1028 C1020 1.356 . S
N1028 H1034 0.984 . S
N1028 H1035 0.984 . S
N1029 C1022 1.356 . S
N1029 H1032 0.984 . S
N1029 H1033 0.985 . S
H1030 N1025 0.984 . S
H1031 N1025 0.985 . S
H1032 N1029 0.984 . S
H1033 N1029 0.985 . S
H1034 N1028 0.984 . S
H1035 N1028 0.984 . S
H1036 N1024 0.984 . S
H1037 N1024 0.985 . S
C1038 C1039 1.363 . S
C1038 C1044 1.379 . S
C1038 N1046 1.356 . S
C1039 C1038 1.363 . S
C1039 C1045 1.363 . S
C1040 C1041 1.363 . S
C1040 C1045 1.379 . S
C1040 N1047 1.356 . S
C1041 C1040 1.363 . S
C1041 C1044 1.363 . S
N1042 C1044 1.356 . S
N1042 H1054 0.984 . S
N1042 H1055 0.985 . S
N1043 C1045 1.356 . S
N1043 H1048 0.984 . S
N1043 H1049 0.985 . S
C1044 C1038 1.379 . S
C1044 C1041 1.363 . S
C1044 N1042 1.356 . S
C1045 C1039 1.363 . S
C1045 C1040 1.379 . S
C1045 N1043 1.356 . S
N1046 C1038 1.356 . S
N1046 H1052 0.984 . S
N1046 H1053 0.984 . S
N1047 C1040 1.356 . S
N1047 H1050 0.984 . S
N1047 H1051 0.985 . S
H1048 N1043 0.984 . S
H1049 N1043 0.985 . S
H1050 N1047 0.984 . S
H1051 N1047 0.985 . S
H1052 N1046 0.984 . S
H1053 N1046 0.984 . S
H1054 N1042 0.984 . S
H1055 N1042 0.985 . S
C1056 C1057 1.363 . S
C1056 C1062 1.379 . S
C1056 N1064 1.356 . S
C1057 C1056 1.363 . S
C1057 C1063 1.363 . S
C1058 C1059 1.363 . S
C1058 C1063 1.379 . S
C1058 N1065 1.356 . S
C1059 C1058 1.363 . S
C1059 C1062 1.363 . S
N1060 C1062 1.356 . S
N1060 H1072 0.984 . S
N1060 H1073 0.985 . S
N1061 C1063 1.356 . S
N1061 H1066 0.984 . S
N1061 H1067 0.985 . S
C1062 C1056 1.379 . S
C1062 C1059 1.363 . S
C1062 N1060 1.356 . S
C1063 C1057 1.363 . S
C1063 C1058 1.379 . S
C1063 N1061 1.356 . S
N1064 C1056 1.356 . S
N1064 H1070 0.984 . S
N1064 H1071 0.984 . S
N1065 C1058 1.356 . S
N1065 H1068 0.984 . S
N1065 H1069 0.985 . S
H1066 N1061 0.984 . S
H1067 N1061 0.985 . S
H1068 N1065 0.984 . S
H1069 N1065 0.985 . S
H1070 N1064 0.984 . S
H1071 N1064 0.984 . S
H1072 N1060 0.984 . S
H1073 N1060 0.985 . S
C1074 C1075 1.363 . S
C1074 C1080 1.378 1_556 S
C1074 N1082 1.356 1_556 S
C1075 C1074 1.363 . S
C1075 C1081 1.363 . S
C1076 C1077 1.363 . S
C1076 C1081 1.379 . S
C1076 N1083 1.356 . S
C1077 C1076 1.363 . S
C1077 C1080 1.361 1_556 S
N1078 C1080 1.359 . S
N1078 H1090 0.984 . S
N1078 H1091 0.985 . S
N1079 C1081 1.356 . S
N1079 H1084 0.984 . S
N1079 H1085 0.985 . S
C1080 C1074 1.378 1_554 S
C1080 C1077 1.361 1_554 S
C1080 N1078 1.359 . S
C1081 C1075 1.363 . S
C1081 C1076 1.379 . S
C1081 N1079 1.356 . S
N1082 C1074 1.356 1_554 S
N1082 H1088 0.984 . S
N1082 H1089 0.984 . S
N1083 C1076 1.356 . S
N1083 H1086 0.984 . S
N1083 H1087 0.985 . S
H1084 N1079 0.984 . S
H1085 N1079 0.985 . S
H1086 N1083 0.984 . S
H1087 N1083 0.985 . S
H1088 N1082 0.984 . S
H1089 N1082 0.984 . S
H1090 N1078 0.984 . S
H1091 N1078 0.985 . S
C1092 C1093 1.363 . S
C1092 C1098 1.379 . S
C1092 N1100 1.356 . S
C1093 C1092 1.363 . S
C1093 C1099 1.363 . S
C1094 C1095 1.363 . S
C1094 C1099 1.379 . S
C1094 N1101 1.356 . S
C1095 C1094 1.363 . S
C1095 C1098 1.363 . S
N1096 C1098 1.356 . S
N1096 H1108 0.984 . S
N1096 H1109 0.985 . S
N1097 C1099 1.356 . S
N1097 H1102 0.984 . S
N1097 H1103 0.985 . S
C1098 C1092 1.379 . S
C1098 C1095 1.363 . S
C1098 N1096 1.356 . S
C1099 C1093 1.363 . S
C1099 C1094 1.379 . S
C1099 N1097 1.356 . S
N1100 C1092 1.356 . S
N1100 H1106 0.984 . S
N1100 H1107 0.984 . S
N1101 C1094 1.356 . S
N1101 H1104 0.984 . S
N1101 H1105 0.985 . S
H1102 N1097 0.984 . S
H1103 N1097 0.985 . S
H1104 N1101 0.984 . S
H1105 N1101 0.985 . S
H1106 N1100 0.984 . S
H1107 N1100 0.984 . S
H1108 N1096 0.984 . S
H1109 N1096 0.985 . S
C1110 C1111 1.363 . S
C1110 C1116 1.379 . S
C1110 N1118 1.356 . S
C1111 C1110 1.363 . S
C1111 C1117 1.363 . S
C1112 C1113 1.363 . S
C1112 C1117 1.379 . S
C1112 N1119 1.356 . S
C1113 C1112 1.363 . S
C1113 C1116 1.363 . S
N1114 C1116 1.356 . S
N1114 H1126 0.984 . S
N1114 H1127 0.985 . S
N1115 C1117 1.356 . S
N1115 H1120 0.984 . S
N1115 H1121 0.985 . S
C1116 C1110 1.379 . S
C1116 C1113 1.363 . S
C1116 N1114 1.356 . S
C1117 C1111 1.363 . S
C1117 C1112 1.379 . S
C1117 N1115 1.356 . S
N1118 C1110 1.356 . S
N1118 H1124 0.984 . S
N1118 H1125 0.984 . S
N1119 C1112 1.356 . S
N1119 H1122 0.984 . S
N1119 H1123 0.985 . S
H1120 N1115 0.984 . S
H1121 N1115 0.985 . S
H1122 N1119 0.984 . S
H1123 N1119 0.985 . S
H1124 N1118 0.984 . S
H1125 N1118 0.984 . S
H1126 N1114 0.984 . S
H1127 N1114 0.985 . S
C1128 C1129 1.363 . S
C1128 C1134 1.379 . S
C1128 N1136 1.356 . S
C1129 C1128 1.363 . S
C1129 C1135 1.363 . S
C1130 C1131 1.363 . S
C1130 C1135 1.379 . S
C1130 N1137 1.356 . S
C1131 C1130 1.363 . S
C1131 C1134 1.363 . S
N1132 C1134 1.356 . S
N1132 H1144 0.984 . S
N1132 H1145 0.985 . S
N1133 C1135 1.356 . S
N1133 H1138 0.984 . S
N1133 H1139 0.985 . S
C1134 C1128 1.379 . S
C1134 C1131 1.363 . S
C1134 N1132 1.356 . S
C1135 C1129 1.363 . S
C1135 C1130 1.379 . S
C1135 N1133 1.356 . S
N1136 C1128 1.356 . S
N1136 H1142 0.984 . S
N1136 H1143 0.984 . S
N1137 C1130 1.356 . S
N1137 H1140 0.984 . S
N1137 H1141 0.985 . S
H1138 N1133 0.984 . S
H1139 N1133 0.985 . S
H1140 N1137 0.984 . S
H1141 N1137 0.985 . S
H1142 N1136 0.984 . S
H1143 N1136 0.984 . S
H1144 N1132 0.984 . S
H1145 N1132 0.985 . S
C1146 C1147 1.363 . S
C1146 C1152 1.379 . S
C1146 N1154 1.356 . S
C1147 C1146 1.363 . S
C1147 C1153 1.363 . S
C1148 C1149 1.363 . S
C1148 C1153 1.379 . S
C1148 N1155 1.356 . S
C1149 C1148 1.363 . S
C1149 C1152 1.363 . S
N1150 C1152 1.356 . S
N1150 H1162 0.984 . S
N1150 H1163 0.985 . S
N1151 C1153 1.356 . S
N1151 H1156 0.984 . S
N1151 H1157 0.985 . S
C1152 C1146 1.379 . S
C1152 C1149 1.363 . S
C1152 N1150 1.356 . S
C1153 C1147 1.363 . S
C1153 C1148 1.379 . S
C1153 N1151 1.356 . S
N1154 C1146 1.356 . S
N1154 H1160 0.984 . S
N1154 H1161 0.984 . S
N1155 C1148 1.356 . S
N1155 H1158 0.984 . S
N1155 H1159 0.985 . S
H1156 N1151 0.984 . S
H1157 N1151 0.985 . S
H1158 N1155 0.984 . S
H1159 N1155 0.985 . S
H1160 N1154 0.984 . S
H1161 N1154 0.984 . S
H1162 N1150 0.984 . S
H1163 N1150 0.985 . S
C409 C28 1.840 . S
C411 C300 1.840 . S
C427 C40 1.839 . S
C429 C312 1.839 . S
C445 C368 1.840 . S
C447 C96 1.840 . S
C463 C108 1.840 . S
C465 C380 1.840 . S
C481 C164 1.839 . S
C483 C232 1.839 . S
C499 C176 1.839 . S
C501 C244 1.839 . S
C517 C171 1.484 . S
C519 C6 1.511 . S
C535 C62 1.511 . S
C537 C3 1.485 . S
C553 C74 1.511 . S
C555 C35 1.485 . S
C571 C71 1.485 . S
C573 C130 1.511 . S
C589 C103 1.485 . S
C591 C142 1.511 . S
C607 C139 1.485 . S
C609 C198 1.511 . S
C625 C210 1.511 . S
C627 C239 1.484 . S
C643 C275 1.485 . S
C645 C266 1.511 . S
C661 C307 1.484 . S
C663 C278 1.511 . S
C679 C343 1.485 . S
C681 C334 1.511 . S
C697 C375 1.485 . S
C699 C346 1.511 . S
C715 C402 1.511 . S
C717 C207 1.485 . S
C733 C17 1.710 . S
C735 C221 1.710 . S
C751 C51 1.710 . S
C753 C255 1.710 . S
C769 C289 1.710 . S
C771 C85 1.710 . S
C787 C323 1.710 . S
C789 C119 1.710 . S
C805 C153 1.710 . S
C807 C357 1.710 . S
C823 C187 1.710 . S
C825 C391 1.710 . S
C841 C273 2.803 . S
C843 C1 2.803 . S
C859 C309 2.803 . S
C861 C37 2.803 . S
C877 C341 2.803 . S
C879 C69 2.803 . S
C895 C105 2.803 . S
C897 C377 2.803 . S
C913 C205 2.803 . S
C915 C137 2.803 . S
C931 C241 2.803 . S
C933 C173 2.803 . S
C949 C260 0.971 . S
C951 C22 0.804 . S
C967 C287 0.971 . S
C969 C49 0.804 . S
C985 C328 0.971 . S
C987 C90 0.804 . S
C1003 C355 0.971 . S
C1005 C117 0.804 . S
C1021 C396 0.971 . S
C1023 C158 0.804 . S
C1039 C219 0.971 . S
C1041 C185 0.804 . S
C1057 C226 0.804 . S
C1059 C192 0.971 . S
C1075 C253 0.804 . S
C1077 C15 0.971 . S
C1093 C56 0.971 . S
C1095 C294 0.804 . S
C1111 C83 0.971 . S
C1113 C321 0.804 . S
C1129 C362 0.804 . S
C1131 C124 0.971 . S
C1147 C151 0.971 . S
C1149 C389 0.804 . S
