# Generated by pormake.
# Topology lcs-e, (6)-cn, num edge types: 1
# Building blocks:
#     Node 0, Type 0, BuildingBlock: KUMBOL_clean_sbu_1, # of connection points: 6
#     Node 1, Type 0, BuildingBlock: KUMBOL_clean_sbu_1, # of connection points: 6
#     Node 2, Type 0, BuildingBlock: KUMBOL_clean_sbu_1, # of connection points: 6
#     Node 3, Type 0, BuildingBlock: KUMBOL_clean_sbu_1, # of connection points: 6
#     Node 4, Type 0, BuildingBlock: KUMBOL_clean_sbu_1, # of connection points: 6
#     Node 5, Type 0, BuildingBlock: KUMBOL_clean_sbu_1, # of connection points: 6
#     Node 6, Type 0, BuildingBlock: KUMBOL_clean_sbu_1, # of connection points: 6
#     Node 7, Type 0, BuildingBlock: KUMBOL_clean_sbu_1, # of connection points: 6
#     Node 8, Type 0, BuildingBlock: KUMBOL_clean_sbu_1, # of connection points: 6
#     Node 9, Type 0, BuildingBlock: KUMBOL_clean_sbu_1, # of connection points: 6
#     Node 10, Type 0, BuildingBlock: KUMBOL_clean_sbu_1, # of connection points: 6
#     Node 11, Type 0, BuildingBlock: KUMBOL_clean_sbu_1, # of connection points: 6
#     Node 12, Type 0, BuildingBlock: KUMBOL_clean_sbu_1, # of connection points: 6
#     Node 13, Type 0, BuildingBlock: KUMBOL_clean_sbu_1, # of connection points: 6
#     Node 14, Type 0, BuildingBlock: KUMBOL_clean_sbu_1, # of connection points: 6
#     Node 15, Type 0, BuildingBlock: KUMBOL_clean_sbu_1, # of connection points: 6
#     Node 16, Type 0, BuildingBlock: KUMBOL_clean_sbu_1, # of connection points: 6
#     Node 17, Type 0, BuildingBlock: KUMBOL_clean_sbu_1, # of connection points: 6
#     Node 18, Type 0, BuildingBlock: KUMBOL_clean_sbu_1, # of connection points: 6
#     Node 19, Type 0, BuildingBlock: KUMBOL_clean_sbu_1, # of connection points: 6
#     Node 20, Type 0, BuildingBlock: KUMBOL_clean_sbu_1, # of connection points: 6
#     Node 21, Type 0, BuildingBlock: KUMBOL_clean_sbu_1, # of connection points: 6
#     Node 22, Type 0, BuildingBlock: KUMBOL_clean_sbu_1, # of connection points: 6
#     Node 23, Type 0, BuildingBlock: KUMBOL_clean_sbu_1, # of connection points: 6
#     Node 24, Type 0, BuildingBlock: KUMBOL_clean_sbu_1, # of connection points: 6
#     Node 25, Type 0, BuildingBlock: KUMBOL_clean_sbu_1, # of connection points: 6
#     Node 26, Type 0, BuildingBlock: KUMBOL_clean_sbu_1, # of connection points: 6
#     Node 27, Type 0, BuildingBlock: KUMBOL_clean_sbu_1, # of connection points: 6
#     Node 28, Type 0, BuildingBlock: KUMBOL_clean_sbu_1, # of connection points: 6
#     Node 29, Type 0, BuildingBlock: KUMBOL_clean_sbu_1, # of connection points: 6
#     Node 30, Type 0, BuildingBlock: KUMBOL_clean_sbu_1, # of connection points: 6
#     Node 31, Type 0, BuildingBlock: KUMBOL_clean_sbu_1, # of connection points: 6
#     Node 32, Type 0, BuildingBlock: KUMBOL_clean_sbu_1, # of connection points: 6
#     Node 33, Type 0, BuildingBlock: KUMBOL_clean_sbu_1, # of connection points: 6
#     Node 34, Type 0, BuildingBlock: KUMBOL_clean_sbu_1, # of connection points: 6
#     Node 35, Type 0, BuildingBlock: KUMBOL_clean_sbu_1, # of connection points: 6
#     Node 36, Type 0, BuildingBlock: KUMBOL_clean_sbu_1, # of connection points: 6
#     Node 37, Type 0, BuildingBlock: KUMBOL_clean_sbu_1, # of connection points: 6
#     Node 38, Type 0, BuildingBlock: KUMBOL_clean_sbu_1, # of connection points: 6
#     Node 39, Type 0, BuildingBlock: KUMBOL_clean_sbu_1, # of connection points: 6
#     Node 40, Type 0, BuildingBlock: KUMBOL_clean_sbu_1, # of connection points: 6
#     Node 41, Type 0, BuildingBlock: KUMBOL_clean_sbu_1, # of connection points: 6
#     Node 42, Type 0, BuildingBlock: KUMBOL_clean_sbu_1, # of connection points: 6
#     Node 43, Type 0, BuildingBlock: KUMBOL_clean_sbu_1, # of connection points: 6
#     Node 44, Type 0, BuildingBlock: KUMBOL_clean_sbu_1, # of connection points: 6
#     Node 45, Type 0, BuildingBlock: KUMBOL_clean_sbu_1, # of connection points: 6
#     Node 46, Type 0, BuildingBlock: KUMBOL_clean_sbu_1, # of connection points: 6
#     Node 47, Type 0, BuildingBlock: KUMBOL_clean_sbu_1, # of connection points: 6
#     Edge 48, Type (0, 0), BuildingBlock: CIFDUS_clean_linker_0, # of connection points: 2
#     Edge 49, Type (0, 0), BuildingBlock: CIFDUS_clean_linker_0, # of connection points: 2
#     Edge 50, Type (0, 0), BuildingBlock: CIFDUS_clean_linker_0, # of connection points: 2
#     Edge 51, Type (0, 0), BuildingBlock: CIFDUS_clean_linker_0, # of connection points: 2
#     Edge 52, Type (0, 0), BuildingBlock: CIFDUS_clean_linker_0, # of connection points: 2
#     Edge 53, Type (0, 0), BuildingBlock: CIFDUS_clean_linker_0, # of connection points: 2
#     Edge 54, Type (0, 0), BuildingBlock: CIFDUS_clean_linker_0, # of connection points: 2
#     Edge 55, Type (0, 0), BuildingBlock: CIFDUS_clean_linker_0, # of connection points: 2
#     Edge 56, Type (0, 0), BuildingBlock: CIFDUS_clean_linker_0, # of connection points: 2
#     Edge 57, Type (0, 0), BuildingBlock: CIFDUS_clean_linker_0, # of connection points: 2
#     Edge 58, Type (0, 0), BuildingBlock: CIFDUS_clean_linker_0, # of connection points: 2
#     Edge 59, Type (0, 0), BuildingBlock: CIFDUS_clean_linker_0, # of connection points: 2
#     Edge 60, Type (0, 0), BuildingBlock: CIFDUS_clean_linker_0, # of connection points: 2
#     Edge 61, Type (0, 0), BuildingBlock: CIFDUS_clean_linker_0, # of connection points: 2
#     Edge 62, Type (0, 0), BuildingBlock: CIFDUS_clean_linker_0, # of connection points: 2
#     Edge 63, Type (0, 0), BuildingBlock: CIFDUS_clean_linker_0, # of connection points: 2
#     Edge 64, Type (0, 0), BuildingBlock: CIFDUS_clean_linker_0, # of connection points: 2
#     Edge 65, Type (0, 0), BuildingBlock: CIFDUS_clean_linker_0, # of connection points: 2
#     Edge 66, Type (0, 0), BuildingBlock: CIFDUS_clean_linker_0, # of connection points: 2
#     Edge 67, Type (0, 0), BuildingBlock: CIFDUS_clean_linker_0, # of connection points: 2
#     Edge 68, Type (0, 0), BuildingBlock: CIFDUS_clean_linker_0, # of connection points: 2
#     Edge 69, Type (0, 0), BuildingBlock: CIFDUS_clean_linker_0, # of connection points: 2
#     Edge 70, Type (0, 0), BuildingBlock: CIFDUS_clean_linker_0, # of connection points: 2
#     Edge 71, Type (0, 0), BuildingBlock: CIFDUS_clean_linker_0, # of connection points: 2
#     Edge 72, Type (0, 0), BuildingBlock: CIFDUS_clean_linker_0, # of connection points: 2
#     Edge 73, Type (0, 0), BuildingBlock: CIFDUS_clean_linker_0, # of connection points: 2
#     Edge 74, Type (0, 0), BuildingBlock: CIFDUS_clean_linker_0, # of connection points: 2
#     Edge 75, Type (0, 0), BuildingBlock: CIFDUS_clean_linker_0, # of connection points: 2
#     Edge 76, Type (0, 0), BuildingBlock: CIFDUS_clean_linker_0, # of connection points: 2
#     Edge 77, Type (0, 0), BuildingBlock: CIFDUS_clean_linker_0, # of connection points: 2
#     Edge 78, Type (0, 0), BuildingBlock: CIFDUS_clean_linker_0, # of connection points: 2
#     Edge 79, Type (0, 0), BuildingBlock: CIFDUS_clean_linker_0, # of connection points: 2
#     Edge 80, Type (0, 0), BuildingBlock: CIFDUS_clean_linker_0, # of connection points: 2
#     Edge 81, Type (0, 0), BuildingBlock: CIFDUS_clean_linker_0, # of connection points: 2
#     Edge 82, Type (0, 0), BuildingBlock: CIFDUS_clean_linker_0, # of connection points: 2
#     Edge 83, Type (0, 0), BuildingBlock: CIFDUS_clean_linker_0, # of connection points: 2
#     Edge 84, Type (0, 0), BuildingBlock: CIFDUS_clean_linker_0, # of connection points: 2
#     Edge 85, Type (0, 0), BuildingBlock: CIFDUS_clean_linker_0, # of connection points: 2
#     Edge 86, Type (0, 0), BuildingBlock: CIFDUS_clean_linker_0, # of connection points: 2
#     Edge 87, Type (0, 0), BuildingBlock: CIFDUS_clean_linker_0, # of connection points: 2
#     Edge 88, Type (0, 0), BuildingBlock: CIFDUS_clean_linker_0, # of connection points: 2
#     Edge 89, Type (0, 0), BuildingBlock: CIFDUS_clean_linker_0, # of connection points: 2
#     Edge 90, Type (0, 0), BuildingBlock: CIFDUS_clean_linker_0, # of connection points: 2
#     Edge 91, Type (0, 0), BuildingBlock: CIFDUS_clean_linker_0, # of connection points: 2
#     Edge 92, Type (0, 0), BuildingBlock: CIFDUS_clean_linker_0, # of connection points: 2
#     Edge 93, Type (0, 0), BuildingBlock: CIFDUS_clean_linker_0, # of connection points: 2
#     Edge 94, Type (0, 0), BuildingBlock: CIFDUS_clean_linker_0, # of connection points: 2
#     Edge 95, Type (0, 0), BuildingBlock: CIFDUS_clean_linker_0, # of connection points: 2
#     Edge 96, Type (0, 0), BuildingBlock: CIFDUS_clean_linker_0, # of connection points: 2
#     Edge 97, Type (0, 0), BuildingBlock: CIFDUS_clean_linker_0, # of connection points: 2
#     Edge 98, Type (0, 0), BuildingBlock: CIFDUS_clean_linker_0, # of connection points: 2
#     Edge 99, Type (0, 0), BuildingBlock: CIFDUS_clean_linker_0, # of connection points: 2
#     Edge 100, Type (0, 0), BuildingBlock: CIFDUS_clean_linker_0, # of connection points: 2
#     Edge 101, Type (0, 0), BuildingBlock: CIFDUS_clean_linker_0, # of connection points: 2
#     Edge 102, Type (0, 0), BuildingBlock: CIFDUS_clean_linker_0, # of connection points: 2
#     Edge 103, Type (0, 0), BuildingBlock: CIFDUS_clean_linker_0, # of connection points: 2
#     Edge 104, Type (0, 0), BuildingBlock: CIFDUS_clean_linker_0, # of connection points: 2
#     Edge 105, Type (0, 0), BuildingBlock: CIFDUS_clean_linker_0, # of connection points: 2
#     Edge 106, Type (0, 0), BuildingBlock: CIFDUS_clean_linker_0, # of connection points: 2
#     Edge 107, Type (0, 0), BuildingBlock: CIFDUS_clean_linker_0, # of connection points: 2
#     Edge 108, Type (0, 0), BuildingBlock: CIFDUS_clean_linker_0, # of connection points: 2
#     Edge 109, Type (0, 0), BuildingBlock: CIFDUS_clean_linker_0, # of connection points: 2
#     Edge 110, Type (0, 0), BuildingBlock: CIFDUS_clean_linker_0, # of connection points: 2
#     Edge 111, Type (0, 0), BuildingBlock: CIFDUS_clean_linker_0, # of connection points: 2
#     Edge 112, Type (0, 0), BuildingBlock: CIFDUS_clean_linker_0, # of connection points: 2
#     Edge 113, Type (0, 0), BuildingBlock: CIFDUS_clean_linker_0, # of connection points: 2
#     Edge 114, Type (0, 0), BuildingBlock: CIFDUS_clean_linker_0, # of connection points: 2
#     Edge 115, Type (0, 0), BuildingBlock: CIFDUS_clean_linker_0, # of connection points: 2
#     Edge 116, Type (0, 0), BuildingBlock: CIFDUS_clean_linker_0, # of connection points: 2
#     Edge 117, Type (0, 0), BuildingBlock: CIFDUS_clean_linker_0, # of connection points: 2
#     Edge 118, Type (0, 0), BuildingBlock: CIFDUS_clean_linker_0, # of connection points: 2
#     Edge 119, Type (0, 0), BuildingBlock: CIFDUS_clean_linker_0, # of connection points: 2
#     Edge 120, Type (0, 0), BuildingBlock: CIFDUS_clean_linker_0, # of connection points: 2
#     Edge 121, Type (0, 0), BuildingBlock: CIFDUS_clean_linker_0, # of connection points: 2
#     Edge 122, Type (0, 0), BuildingBlock: CIFDUS_clean_linker_0, # of connection points: 2
#     Edge 123, Type (0, 0), BuildingBlock: CIFDUS_clean_linker_0, # of connection points: 2
#     Edge 124, Type (0, 0), BuildingBlock: CIFDUS_clean_linker_0, # of connection points: 2
#     Edge 125, Type (0, 0), BuildingBlock: CIFDUS_clean_linker_0, # of connection points: 2
#     Edge 126, Type (0, 0), BuildingBlock: CIFDUS_clean_linker_0, # of connection points: 2
#     Edge 127, Type (0, 0), BuildingBlock: CIFDUS_clean_linker_0, # of connection points: 2
#     Edge 128, Type (0, 0), BuildingBlock: CIFDUS_clean_linker_0, # of connection points: 2
#     Edge 129, Type (0, 0), BuildingBlock: CIFDUS_clean_linker_0, # of connection points: 2
#     Edge 130, Type (0, 0), BuildingBlock: CIFDUS_clean_linker_0, # of connection points: 2
#     Edge 131, Type (0, 0), BuildingBlock: CIFDUS_clean_linker_0, # of connection points: 2
#     Edge 132, Type (0, 0), BuildingBlock: CIFDUS_clean_linker_0, # of connection points: 2
#     Edge 133, Type (0, 0), BuildingBlock: CIFDUS_clean_linker_0, # of connection points: 2
#     Edge 134, Type (0, 0), BuildingBlock: CIFDUS_clean_linker_0, # of connection points: 2
#     Edge 135, Type (0, 0), BuildingBlock: CIFDUS_clean_linker_0, # of connection points: 2
#     Edge 136, Type (0, 0), BuildingBlock: CIFDUS_clean_linker_0, # of connection points: 2
#     Edge 137, Type (0, 0), BuildingBlock: CIFDUS_clean_linker_0, # of connection points: 2
#     Edge 138, Type (0, 0), BuildingBlock: CIFDUS_clean_linker_0, # of connection points: 2
#     Edge 139, Type (0, 0), BuildingBlock: CIFDUS_clean_linker_0, # of connection points: 2
#     Edge 140, Type (0, 0), BuildingBlock: CIFDUS_clean_linker_0, # of connection points: 2
#     Edge 141, Type (0, 0), BuildingBlock: CIFDUS_clean_linker_0, # of connection points: 2
#     Edge 142, Type (0, 0), BuildingBlock: CIFDUS_clean_linker_0, # of connection points: 2
#     Edge 143, Type (0, 0), BuildingBlock: CIFDUS_clean_linker_0, # of connection points: 2
#     Edge 144, Type (0, 0), BuildingBlock: CIFDUS_clean_linker_0, # of connection points: 2
#     Edge 145, Type (0, 0), BuildingBlock: CIFDUS_clean_linker_0, # of connection points: 2
#     Edge 146, Type (0, 0), BuildingBlock: CIFDUS_clean_linker_0, # of connection points: 2
#     Edge 147, Type (0, 0), BuildingBlock: CIFDUS_clean_linker_0, # of connection points: 2
#     Edge 148, Type (0, 0), BuildingBlock: CIFDUS_clean_linker_0, # of connection points: 2
#     Edge 149, Type (0, 0), BuildingBlock: CIFDUS_clean_linker_0, # of connection points: 2
#     Edge 150, Type (0, 0), BuildingBlock: CIFDUS_clean_linker_0, # of connection points: 2
#     Edge 151, Type (0, 0), BuildingBlock: CIFDUS_clean_linker_0, # of connection points: 2
#     Edge 152, Type (0, 0), BuildingBlock: CIFDUS_clean_linker_0, # of connection points: 2
#     Edge 153, Type (0, 0), BuildingBlock: CIFDUS_clean_linker_0, # of connection points: 2
#     Edge 154, Type (0, 0), BuildingBlock: CIFDUS_clean_linker_0, # of connection points: 2
#     Edge 155, Type (0, 0), BuildingBlock: CIFDUS_clean_linker_0, # of connection points: 2
#     Edge 156, Type (0, 0), BuildingBlock: CIFDUS_clean_linker_0, # of connection points: 2
#     Edge 157, Type (0, 0), BuildingBlock: CIFDUS_clean_linker_0, # of connection points: 2
#     Edge 158, Type (0, 0), BuildingBlock: CIFDUS_clean_linker_0, # of connection points: 2
#     Edge 159, Type (0, 0), BuildingBlock: CIFDUS_clean_linker_0, # of connection points: 2
#     Edge 160, Type (0, 0), BuildingBlock: CIFDUS_clean_linker_0, # of connection points: 2
#     Edge 161, Type (0, 0), BuildingBlock: CIFDUS_clean_linker_0, # of connection points: 2
#     Edge 162, Type (0, 0), BuildingBlock: CIFDUS_clean_linker_0, # of connection points: 2
#     Edge 163, Type (0, 0), BuildingBlock: CIFDUS_clean_linker_0, # of connection points: 2
#     Edge 164, Type (0, 0), BuildingBlock: CIFDUS_clean_linker_0, # of connection points: 2
#     Edge 165, Type (0, 0), BuildingBlock: CIFDUS_clean_linker_0, # of connection points: 2
#     Edge 166, Type (0, 0), BuildingBlock: CIFDUS_clean_linker_0, # of connection points: 2
#     Edge 167, Type (0, 0), BuildingBlock: CIFDUS_clean_linker_0, # of connection points: 2
#     Edge 168, Type (0, 0), BuildingBlock: CIFDUS_clean_linker_0, # of connection points: 2
#     Edge 169, Type (0, 0), BuildingBlock: CIFDUS_clean_linker_0, # of connection points: 2
#     Edge 170, Type (0, 0), BuildingBlock: CIFDUS_clean_linker_0, # of connection points: 2
#     Edge 171, Type (0, 0), BuildingBlock: CIFDUS_clean_linker_0, # of connection points: 2
#     Edge 172, Type (0, 0), BuildingBlock: CIFDUS_clean_linker_0, # of connection points: 2
#     Edge 173, Type (0, 0), BuildingBlock: CIFDUS_clean_linker_0, # of connection points: 2
#     Edge 174, Type (0, 0), BuildingBlock: CIFDUS_clean_linker_0, # of connection points: 2
#     Edge 175, Type (0, 0), BuildingBlock: CIFDUS_clean_linker_0, # of connection points: 2
#     Edge 176, Type (0, 0), BuildingBlock: CIFDUS_clean_linker_0, # of connection points: 2
#     Edge 177, Type (0, 0), BuildingBlock: CIFDUS_clean_linker_0, # of connection points: 2
#     Edge 178, Type (0, 0), BuildingBlock: CIFDUS_clean_linker_0, # of connection points: 2
#     Edge 179, Type (0, 0), BuildingBlock: CIFDUS_clean_linker_0, # of connection points: 2
#     Edge 180, Type (0, 0), BuildingBlock: CIFDUS_clean_linker_0, # of connection points: 2
#     Edge 181, Type (0, 0), BuildingBlock: CIFDUS_clean_linker_0, # of connection points: 2
#     Edge 182, Type (0, 0), BuildingBlock: CIFDUS_clean_linker_0, # of connection points: 2
#     Edge 183, Type (0, 0), BuildingBlock: CIFDUS_clean_linker_0, # of connection points: 2
#     Edge 184, Type (0, 0), BuildingBlock: CIFDUS_clean_linker_0, # of connection points: 2
#     Edge 185, Type (0, 0), BuildingBlock: CIFDUS_clean_linker_0, # of connection points: 2
#     Edge 186, Type (0, 0), BuildingBlock: CIFDUS_clean_linker_0, # of connection points: 2
#     Edge 187, Type (0, 0), BuildingBlock: CIFDUS_clean_linker_0, # of connection points: 2
#     Edge 188, Type (0, 0), BuildingBlock: CIFDUS_clean_linker_0, # of connection points: 2
#     Edge 189, Type (0, 0), BuildingBlock: CIFDUS_clean_linker_0, # of connection points: 2
#     Edge 190, Type (0, 0), BuildingBlock: CIFDUS_clean_linker_0, # of connection points: 2
#     Edge 191, Type (0, 0), BuildingBlock: CIFDUS_clean_linker_0, # of connection points: 2
# Relax obj value: 0.326
# Max RMSD: 0.254
# Mean RMSD: 0.251
data_MOF--net-lcs-e--node1-KUMBOL_clean_sbu_1--edge1-CIFDUS_clean_linker_0
_symmetry_space_group_name_H-M    P1
_symmetry_Int_Tables_number       1
_symmetry_cell_setting            triclinic
loop_
_symmetry_equiv_pos_as_xyz
'x, y, z'
_cell_length_a     58.529906
_cell_length_b     58.454899
_cell_length_c     58.921693
_cell_angle_alpha  90.062825
_cell_angle_beta   90.092629
_cell_angle_gamma 89.884165
loop_
_atom_site_label
_atom_site_type_symbol
_atom_site_fract_x
_atom_site_fract_y
_atom_site_fract_z
_atom_type_partial_charge
C0 C 0.96645 0.41892 0.27128 0.0
C1 C 0.95818 0.40316 0.23417 0.0
C2 C 0.9725 0.40471 0.25342 0.0
C3 C 0.93728 0.41503 0.23378 0.0
C4 C 0.94603 0.43176 0.2705 0.0
C5 C 0.93121 0.42929 0.25192 0.0
N6 N 0.98115 0.42113 0.28891 0.0
C7 C 0.9774 0.43696 0.30554 0.0
C8 C 0.9414 0.44713 0.28817 0.0
C9 C 0.95735 0.44999 0.3056 0.0
Gd10 Gd 0.05687 0.3902 0.24843 0.0
Gd11 Gd 1.01238 0.39608 0.28934 0.0
N12 N 0.99298 0.3936 0.25423 0.0
C13 C 0.96562 0.39031 0.21557 0.0
C14 C 1.00077 0.38237 0.23559 0.0
C15 C 0.98722 0.38024 0.21612 0.0
H16 H 0.01757 0.37556 0.2355 0.0
H17 H 0.99356 0.37104 0.20148 0.0
H18 H 0.10846 0.41478 0.25884 0.0
H19 H 0.98985 0.43933 0.3188 0.0
H20 H 0.14823 0.40154 0.2634 0.0
H21 H 0.95519 0.38875 0.20044 0.0
H22 H 0.92598 0.41379 0.21925 0.0
H23 H 0.033 0.35355 0.20942 0.0
H24 H 0.92588 0.45727 0.28821 0.0
H25 H 0.95422 0.46222 0.31905 0.0
H26 H 0.14657 0.3231 0.23945 0.0
H27 H 0.91531 0.4388 0.25113 0.0
H28 H 0.07828 0.29638 0.20361 0.0
H29 H 0.04172 0.31532 0.19397 0.0
N30 N 0.06338 0.35527 0.22942 0.0
C31 C 0.08471 0.34649 0.23262 0.0
C32 C 0.04882 0.34533 0.21405 0.0
C33 C 0.07443 0.31307 0.21066 0.0
C34 C 0.05377 0.32371 0.20515 0.0
C35 C 0.09056 0.32481 0.22381 0.0
H36 H 0.11733 0.29933 0.221 0.0
N37 N 0.09606 0.38217 0.24847 0.0
C38 C 0.10145 0.36025 0.24258 0.0
C39 C 0.14088 0.36705 0.25276 0.0
C40 C 0.12406 0.35213 0.24461 0.0
C41 C 0.11262 0.39717 0.25517 0.0
C42 C 0.1352 0.38975 0.25768 0.0
O43 O 0.0189 0.43459 0.27835 0.0
O44 O 0.04669 0.43087 0.25089 0.0
O45 O 0.07478 0.3933 0.21724 0.0
O46 O 0.04038 0.40793 0.2198 0.0
O47 O 1.00853 0.35719 0.27768 0.0
O48 O 0.04124 0.35276 0.25715 0.0
O49 O 0.07337 0.3811 0.28128 0.0
O50 O 0.04015 0.37066 0.29887 0.0
O51 O 0.98272 0.38944 0.31146 0.0
O52 O 1.01705 0.39022 0.32481 0.0
O53 O 0.07045 0.41469 0.27505 0.0
O54 O 0.04175 0.41772 0.30215 0.0
C55 C 0.03256 0.44473 0.26312 0.0
C56 C 0.02325 0.34294 0.26734 0.0
C57 C 0.06877 0.4266 0.19642 0.0
C58 C 0.10218 0.44931 0.18619 0.0
C59 C 0.06554 0.45668 0.16821 0.0
C60 C 0.05557 0.43906 0.18085 0.0
C61 C 0.08877 0.46177 0.17079 0.0
C62 C 0.09209 0.43211 0.19914 0.0
C63 C 0.0593 0.40617 0.20774 0.0
C64 C 0.12936 0.32974 0.23768 0.0
C65 C 0.11268 0.31615 0.22724 0.0
H66 H 0.15843 0.36143 0.2546 0.0
C67 C 0.06254 0.37181 0.29831 0.0
C68 C 0.06241 0.4224 0.29462 0.0
C69 C 0.98843 0.39807 0.35098 0.0
C70 C 0.97321 0.38946 0.38836 0.0
C71 C 0.99645 0.42344 0.38261 0.0
C72 C 0.99928 0.41757 0.35985 0.0
C73 C 0.98385 0.40929 0.39694 0.0
C74 C 0.9748 0.38467 0.36507 0.0
C75 C 0.9956 0.38798 0.32939 0.0
H76 H 0.05533 0.46615 0.1561 0.0
H77 H 0.03776 0.43486 0.17813 0.0
H78 H 0.09633 0.4752 0.16062 0.0
H79 H 0.10277 0.4227 0.21095 0.0
H80 H 1.00509 0.43829 0.38946 0.0
H81 H 1.0109 0.42755 0.34959 0.0
H82 H 0.98338 0.41338 0.41485 0.0
H83 H 0.96677 0.36951 0.35808 0.0
C84 C 0.86158 0.71391 0.51802 0.0
C85 C 0.87457 0.71341 0.47899 0.0
C86 C 0.87669 0.72159 0.50146 0.0
C87 C 0.85749 0.69743 0.47358 0.0
C88 C 0.8441 0.69827 0.51255 0.0
C89 C 0.84229 0.68991 0.4903 0.0
N90 N 0.86341 0.72243 0.53935 0.0
C91 C 0.84855 0.71629 0.55604 0.0
C92 C 0.82875 0.69173 0.52957 0.0
C93 C 0.83091 0.70089 0.55139 0.0
Gd94 Gd 0.89814 0.80735 0.52072 0.0
Gd95 Gd 0.89421 0.74636 0.54635 0.0
N96 N 0.89303 0.73728 0.50716 0.0
C97 C 0.88954 0.72164 0.46248 0.0
C98 C 0.90748 0.74538 0.49091 0.0
C99 C 0.90596 0.73778 0.46845 0.0
H100 H 0.92004 0.75799 0.49467 0.0
H101 H 0.91748 0.74445 0.45573 0.0
H102 H 0.8616 0.84481 0.54323 0.0
H103 H 0.85051 0.72321 0.57296 0.0
H104 H 0.86266 0.8839 0.55965 0.0
H105 H 0.88844 0.7158 0.44505 0.0
H106 H 0.85574 0.69095 0.45643 0.0
H107 H 0.93792 0.8052 0.47952 0.0
H108 H 0.81508 0.67978 0.52601 0.0
H109 H 0.81912 0.69597 0.56463 0.0
H110 H 0.93576 0.91269 0.536 0.0
H111 H 0.82905 0.67779 0.48578 0.0
H112 H 0.97783 0.86636 0.48327 0.0
H113 H 0.97033 0.82843 0.4661 0.0
N114 N 0.92765 0.82935 0.50465 0.0
C115 C 0.93062 0.85059 0.5132 0.0
C116 C 0.94102 0.82173 0.48717 0.0
C117 C 0.96364 0.85617 0.4893 0.0
C118 C 0.95942 0.83482 0.47951 0.0
C119 C 0.94883 0.86456 0.50601 0.0
H120 H 0.96509 0.8976 0.50998 0.0
N121 N 0.89573 0.84572 0.53205 0.0
C122 C 0.91411 0.85905 0.5276 0.0
C123 C 0.89696 0.89043 0.54805 0.0
C124 C 0.91535 0.88175 0.53554 0.0
C125 C 0.87701 0.85467 0.54236 0.0
C126 C 0.87745 0.87698 0.55103 0.0
O127 O 0.85616 0.75893 0.53374 0.0
O128 O 0.85758 0.79813 0.52539 0.0
O129 O 0.8719 0.81915 0.49866 0.0
O130 O 0.89617 0.79339 0.48616 0.0
O131 O 0.93266 0.75275 0.53463 0.0
O132 O 0.93573 0.78929 0.5194 0.0
O133 O 0.91453 0.80974 0.55556 0.0
O134 O 0.92015 0.77092 0.56451 0.0
O135 O 0.90576 0.71081 0.54934 0.0
O136 O 0.89871 0.73102 0.57925 0.0
O137 O 0.88449 0.78574 0.54729 0.0
O138 O 0.87517 0.7644 0.57447 0.0
C139 C 0.84494 0.77858 0.52808 0.0
C140 C 0.94599 0.76953 0.52611 0.0
C141 C 0.88073 0.82174 0.45987 0.0
C142 C 0.86938 0.85648 0.439 0.0
C143 C 0.88858 0.82513 0.41954 0.0
C144 C 0.88951 0.81251 0.43972 0.0
C145 C 0.87859 0.84695 0.41912 0.0
C146 C 0.87082 0.84385 0.45927 0.0
C147 C 0.87963 0.8079 0.48103 0.0
C148 C 0.93432 0.89528 0.52982 0.0
C149 C 0.95103 0.8867 0.51501 0.0
H150 H 0.89719 0.90779 0.5545 0.0
C151 C 0.92382 0.79327 0.56817 0.0
C152 C 0.87497 0.78506 0.56746 0.0
C153 C 0.89697 0.69146 0.58424 0.0
C154 C 0.89939 0.66981 0.6194 0.0
C155 C 0.87541 0.65636 0.58846 0.0
C156 C 0.88209 0.67502 0.57518 0.0
C157 C 0.88424 0.65356 0.61038 0.0
C158 C 0.90525 0.6889 0.60641 0.0
C159 C 0.90508 0.71132 0.57141 0.0
H160 H 0.89523 0.81779 0.40402 0.0
H161 H 0.89676 0.79544 0.4395 0.0
H162 H 0.87745 0.85603 0.40315 0.0
H163 H 0.86372 0.85128 0.47457 0.0
H164 H 0.86391 0.64367 0.58149 0.0
H165 H 0.87586 0.67643 0.55794 0.0
H166 H 0.87982 0.63844 0.62003 0.0
H167 H 0.9174 0.70118 0.61313 0.0
C168 C 0.51562 0.66986 0.71535 0.0
C169 C 0.5528 0.65365 0.70746 0.0
C170 C 0.53298 0.65488 0.72111 0.0
C171 C 0.55429 0.66684 0.6876 0.0
C172 C 0.51747 0.68395 0.69599 0.0
C173 C 0.53666 0.68197 0.68189 0.0
N174 N 0.49752 0.6717 0.72948 0.0
C175 C 0.48129 0.68813 0.726 0.0
C176 C 0.50028 0.70008 0.69174 0.0
C177 C 0.48226 0.7024 0.70703 0.0
Gd178 Gd 0.5382 0.63989 0.80369 0.0
Gd179 Gd 0.49524 0.64525 0.75936 0.0
N180 N 0.53121 0.64275 0.74078 0.0
C181 C 0.57092 0.63985 0.71459 0.0
C182 C 0.54955 0.63064 0.74832 0.0
C183 C 0.56943 0.62863 0.73534 0.0
H184 H 0.54945 0.62341 0.76465 0.0
H185 H 0.58378 0.61875 0.74156 0.0
H186 H 0.52634 0.6649 0.8548 0.0
H187 H 0.46798 0.69057 0.73827 0.0
H188 H 0.52194 0.65213 0.89431 0.0
H189 H 0.58644 0.63849 0.70467 0.0
H190 H 0.5693 0.66593 0.6769 0.0
H191 H 0.57747 0.60333 0.78044 0.0
H192 H 0.50112 0.71124 0.6771 0.0
H193 H 0.46924 0.7153 0.70435 0.0
H194 H 0.5484 0.57451 0.89387 0.0
H195 H 0.53829 0.6925 0.66685 0.0
H196 H 0.58522 0.54747 0.82663 0.0
H197 H 0.59416 0.56574 0.78988 0.0
N198 N 0.55764 0.60533 0.81069 0.0
C199 C 0.55468 0.59693 0.83205 0.0
C200 C 0.57316 0.59537 0.79634 0.0
C201 C 0.57764 0.56387 0.82247 0.0
C202 C 0.58276 0.57414 0.80172 0.0
C203 C 0.56413 0.57561 0.83826 0.0
H204 H 0.56772 0.55075 0.86529 0.0
N205 N 0.53761 0.63235 0.84278 0.0
C206 C 0.54418 0.6107 0.84845 0.0
C207 C 0.53364 0.61785 0.88749 0.0
C208 C 0.54233 0.60292 0.87103 0.0
C209 C 0.5304 0.64741 0.85904 0.0
C210 C 0.52803 0.64029 0.88154 0.0
O211 O 0.50451 0.68368 0.76689 0.0
O212 O 0.53682 0.67883 0.78862 0.0
O213 O 0.56786 0.64601 0.82396 0.0
O214 O 0.56861 0.65472 0.78786 0.0
O215 O 0.50433 0.60537 0.75876 0.0
O216 O 0.52929 0.60241 0.78871 0.0
O217 O 0.50515 0.63009 0.81999 0.0
O218 O 0.48523 0.621 0.78746 0.0
O219 O 0.47454 0.63783 0.72895 0.0
O220 O 0.45878 0.64281 0.76159 0.0
O221 O 0.51243 0.6654 0.81672 0.0
O222 O 0.48342 0.66583 0.78966 0.0
C223 C 0.52253 0.69309 0.77707 0.0
C224 C 0.51661 0.59194 0.77277 0.0
C225 C 0.58945 0.67833 0.81447 0.0
C226 C 0.6006 0.70535 0.8444 0.0
C227 C 0.60822 0.71398 0.80472 0.0
C228 C 0.5985 0.69318 0.79813 0.0
C229 C 0.60918 0.72011 0.82765 0.0
C230 C 0.5909 0.68447 0.83765 0.0
C231 C 0.57894 0.65628 0.80774 0.0
C232 C 0.54999 0.58086 0.87667 0.0
C233 C 0.56094 0.56729 0.86037 0.0
H234 H 0.53193 0.61247 0.905 0.0
C235 C 0.48769 0.62075 0.80964 0.0
C236 C 0.49203 0.67174 0.80952 0.0
C237 C 0.43558 0.65086 0.73025 0.0
C238 C 0.40004 0.64556 0.70941 0.0
C239 C 0.40535 0.67927 0.73301 0.0
C240 C 0.4266 0.671 0.73988 0.0
C241 C 0.39192 0.66648 0.71815 0.0
C242 C 0.42261 0.63884 0.71432 0.0
C243 C 0.4555 0.63921 0.74019 0.0
H244 H 0.615 0.72543 0.79199 0.0
H245 H 0.59792 0.68879 0.78027 0.0
H246 H 0.61686 0.7363 0.8323 0.0
H247 H 0.58409 0.67322 0.85058 0.0
H248 H 0.39858 0.6948 0.74047 0.0
H249 H 0.43538 0.67978 0.75349 0.0
H250 H 0.37463 0.67224 0.71497 0.0
H251 H 0.42938 0.62301 0.70746 0.0
C252 C 0.67129 0.30572 0.03274 0.0
C253 C 0.65406 0.32263 0.99942 0.0
C254 C 0.65444 0.30548 1.01634 0.0
C255 C 0.67033 0.34025 0.99985 0.0
C256 C 0.6881 0.32302 0.03292 0.0
C257 C 0.68732 0.34046 1.01658 0.0
N258 N 0.67188 0.28841 0.04796 0.0
C259 C 0.68903 0.28711 0.06363 0.0
C260 C 0.70543 0.32206 0.04928 0.0
C261 C 0.706 0.30388 0.0646 0.0
Gd262 Gd 0.63066 0.2176 1.00076 0.0
Gd263 Gd 0.6411 0.2626 0.04803 0.0
N264 N 0.63914 0.28796 1.0163 0.0
C265 C 0.63768 0.3213 0.98223 0.0
C266 C 0.62382 0.28628 0.99886 0.0
C267 C 0.6227 0.30286 0.9818 0.0
H268 H 0.61297 0.27184 0.99713 0.0
H269 H 0.61043 0.30119 0.96813 0.0
H270 H 0.67942 0.1865 0.99619 0.0
H271 H 0.69014 0.2724 0.07455 0.0
H272 H 0.69079 0.14652 0.99054 0.0
H273 H 0.63686 0.33404 0.96891 0.0
H274 H 0.67016 0.35358 0.98708 0.0
H275 H 0.5784 0.22222 0.97654 0.0
H276 H 0.71868 0.33497 0.04993 0.0
H277 H 0.71965 0.3026 0.07695 0.0
H278 H 0.62105 0.10851 0.97058 0.0
H279 H 0.69999 0.35395 1.01651 0.0
H280 H 0.55447 0.15525 0.96033 0.0
H281 H 0.5478 0.19694 0.96324 0.0
N282 N 0.60199 0.19512 0.9832 0.0
C283 C 0.60624 0.17251 0.98063 0.0
C284 C 0.58147 0.20403 0.97634 0.0
C285 C 0.5679 0.16626 0.9667 0.0
C286 C 0.56407 0.18976 0.96834 0.0
C287 C 0.58937 0.15741 0.97239 0.0
H288 H 0.58191 0.12224 0.96332 0.0
N289 N 0.64393 0.18041 0.99121 0.0
C290 C 0.62805 0.16486 0.98475 0.0
C291 C 0.65665 0.13505 0.98335 0.0
C292 C 0.63388 0.14177 0.9807 0.0
C293 C 0.66641 0.17413 0.99239 0.0
C294 C 0.67301 0.15138 0.989 0.0
O295 O 0.67784 0.25433 0.03333 0.0
O296 O 0.6716 0.22528 1.0069 0.0
O297 O 0.62694 0.22072 0.96445 0.0
O298 O 0.64642 0.24629 0.98304 0.0
O299 O 0.60068 0.26458 0.03809 0.0
O300 O 0.59469 0.23764 1.0093 0.0
O301 O 0.60862 0.20127 0.02798 0.0
O302 O 0.62277 0.23201 0.03926 0.0
O303 O 0.62711 0.28825 0.07133 0.0
O304 O 0.64329 0.25793 0.0844 0.0
O305 O 0.65425 0.20302 0.02806 0.0
O306 O 0.6563 0.22797 0.0594 0.0
C307 C 0.68647 0.23927 0.01843 0.0
C308 C 0.5859 0.25346 0.02385 0.0
C309 C 0.66388 0.22797 0.95115 0.0
C310 C 0.68678 0.19512 0.93834 0.0
C311 C 0.7039 0.23292 0.94159 0.0
C312 C 0.68311 0.24207 0.94912 0.0
C313 C 0.70586 0.20956 0.93661 0.0
C314 C 0.66578 0.20467 0.94483 0.0
C315 C 0.6432 0.23588 0.96348 0.0
C316 C 0.61696 0.12635 0.97355 0.0
C317 C 0.59469 0.13416 0.96942 0.0
H318 H 0.66188 0.1175 0.98041 0.0
C319 C 0.6109 0.21422 0.04546 0.0
C320 C 0.66062 0.20806 0.04912 0.0
C321 C 0.64473 0.2909 0.10783 0.0
C322 C 0.64002 0.31786 0.13924 0.0
C323 C 0.67621 0.29826 0.13383 0.0
C324 C 0.66692 0.28607 0.11569 0.0
C325 C 0.66286 0.31402 0.14564 0.0
C326 C 0.63146 0.30701 0.11961 0.0
C327 C 0.63403 0.27747 0.08937 0.0
H328 H 0.71874 0.24384 0.9403 0.0
H329 H 0.68227 0.25989 0.95409 0.0
H330 H 0.7223 0.20277 0.9315 0.0
H331 H 0.65126 0.19336 0.9465 0.0
H332 H 0.69341 0.29458 0.13953 0.0
H333 H 0.67687 0.27232 0.10855 0.0
H334 H 0.66998 0.32197 0.16067 0.0
H335 H 0.61401 0.31009 0.11421 0.0
C336 C 0.97798 0.61 0.25686 0.0
C337 C 0.96681 0.62272 0.29445 0.0
C338 C 0.98079 0.62508 0.27502 0.0
C339 C 0.9506 0.60508 0.29551 0.0
C340 C 0.96164 0.59228 0.25793 0.0
C341 C 0.94804 0.58991 0.27734 0.0
N342 N 0.9914 0.61238 0.23824 0.0
C343 C 0.9892 0.59801 0.22002 0.0
C344 C 0.95941 0.5774 0.23942 0.0
C345 C 0.97325 0.58028 0.22039 0.0
Gd346 Gd 0.06345 0.64805 0.28031 0.0
Gd347 Gd 1.01651 0.64341 0.23847 0.0
N348 N 0.99683 0.64203 0.27371 0.0
C349 C 0.96931 0.63826 0.31228 0.0
C350 C 0.9987 0.65754 0.29103 0.0
C351 C 0.98526 0.65576 0.31051 0.0
H352 H 1.0114 0.67055 0.29098 0.0
H353 H 0.9874 0.66783 0.32429 0.0
H354 H 0.09432 0.59856 0.28065 0.0
H355 H 1.00005 0.60004 0.20534 0.0
H356 H 0.13428 0.58623 0.28248 0.0
H357 H 0.95896 0.63695 0.32745 0.0
H358 H 0.93984 0.60308 0.31033 0.0
H359 H 0.0624 0.69801 0.30896 0.0
H360 H 0.94706 0.56361 0.23966 0.0
H361 H 0.97166 0.56884 0.20602 0.0
H362 H 0.17549 0.65512 0.2989 0.0
H363 H 0.93542 0.57642 0.27844 0.0
H364 H 0.13095 0.72119 0.31822 0.0
H365 H 0.0893 0.72784 0.32107 0.0
N366 N 0.08833 0.67497 0.29761 0.0
C367 C 0.11103 0.67076 0.2969 0.0
C368 C 0.08048 0.695 0.30688 0.0
C369 C 0.11917 0.70815 0.31243 0.0
C370 C 0.0957 0.71194 0.31409 0.0
C371 C 0.12712 0.68712 0.30429 0.0
H372 H 0.16314 0.69401 0.30946 0.0
N373 N 0.10146 0.6339 0.28532 0.0
C374 C 0.11789 0.64928 0.29065 0.0
C375 C 0.14715 0.62017 0.28829 0.0
C376 C 0.14116 0.64302 0.29201 0.0
C377 C 0.1072 0.61128 0.28327 0.0
C378 C 0.13 0.60414 0.28442 0.0
O379 O 0.02498 0.60474 0.24869 0.0
O380 O 0.05569 0.60774 0.27317 0.0
O381 O 0.06153 0.65101 0.3168 0.0
O382 O 0.0359 0.63139 0.29863 0.0
O383 O 1.01557 0.68227 0.25095 0.0
O384 O 0.04714 0.6858 0.27378 0.0
O385 O 0.07041 0.67361 0.25281 0.0
O386 O 0.04642 0.66223 0.22387 0.0
O387 O 0.98699 0.66158 0.22501 0.0
O388 O 1.0079 0.64198 0.20232 0.0
O389 O 0.0773 0.62789 0.2511 0.0
O390 O 0.0495 0.62823 0.22265 0.0
C391 C 0.04051 0.59425 0.26187 0.0
C392 C 0.02958 0.69602 0.26282 0.0
C393 C 0.05337 0.61474 0.33114 0.0
C394 C 0.0843 0.58846 0.34222 0.0
C395 C 0.04454 0.57982 0.35132 0.0
C396 C 0.0373 0.59995 0.3407 0.0
C397 C 0.06776 0.57401 0.35196 0.0
C398 C 0.07685 0.60911 0.33251 0.0
C399 C 0.04602 0.63514 0.31816 0.0
C400 C 0.15751 0.65951 0.29807 0.0
C401 C 0.15049 0.68161 0.30412 0.0
H402 H 0.16479 0.6146 0.28935 0.0
C403 C 0.06419 0.67359 0.23144 0.0
C404 C 0.07026 0.62297 0.23046 0.0
C405 C 0.97017 0.65081 0.18992 0.0
C406 C 0.9493 0.65741 0.15452 0.0
C407 C 0.93349 0.63262 0.18365 0.0
C408 C 0.95237 0.63678 0.19757 0.0
C409 C 0.93201 0.6427 0.16221 0.0
C410 C 0.96841 0.66139 0.16848 0.0
C411 C 0.99037 0.65541 0.20415 0.0
H412 H 0.03206 0.56846 0.35879 0.0
H413 H 0.01922 0.60386 0.33975 0.0
H414 H 0.07273 0.55817 0.36012 0.0
H415 H 0.08937 0.62051 0.32536 0.0
H416 H 0.91991 0.62158 0.18954 0.0
H417 H 0.95297 0.62916 0.21427 0.0
H418 H 0.91724 0.63921 0.15167 0.0
H419 H 0.98199 0.67246 0.16256 0.0
C420 C 0.67874 0.71853 0.52251 0.0
C421 C 0.66047 0.70947 0.55824 0.0
C422 C 0.66166 0.72291 0.53825 0.0
C423 C 0.67617 0.69168 0.56186 0.0
C424 C 0.69501 0.70102 0.52653 0.0
C425 C 0.69342 0.6875 0.54608 0.0
N426 N 0.6801 0.73189 0.50375 0.0
C427 C 0.69795 0.72907 0.48884 0.0
C428 C 0.71273 0.69776 0.51099 0.0
C429 C 0.71432 0.71201 0.49218 0.0
Gd430 Gd 0.6401 0.80807 0.53669 0.0
Gd431 Gd 0.64995 0.75857 0.4981 0.0
N432 N 0.64682 0.74061 0.53455 0.0
C433 C 0.64375 0.71444 0.57433 0.0
C434 C 0.63098 0.74564 0.55088 0.0
C435 C 0.62913 0.73277 0.57072 0.0
H436 H 0.62055 0.76039 0.54992 0.0
H437 H 0.61657 0.7373 0.58344 0.0
H438 H 0.6893 0.83876 0.54214 0.0
H439 H 0.70015 0.74046 0.47458 0.0
H440 H 0.70183 0.87871 0.54005 0.0
H441 H 0.64236 0.70459 0.58984 0.0
H442 H 0.67534 0.68126 0.57704 0.0
H443 H 0.58701 0.8109 0.55867 0.0
H444 H 0.72552 0.68458 0.51359 0.0
H445 H 0.7283 0.71002 0.48034 0.0
H446 H 0.63183 0.92156 0.53787 0.0
H447 H 0.70566 0.67395 0.54931 0.0
H448 H 0.56327 0.8799 0.55389 0.0
H449 H 0.55601 0.83909 0.5623 0.0
N450 N 0.6114 0.83498 0.5465 0.0
C451 C 0.61588 0.85736 0.54297 0.0
C452 C 0.59033 0.82846 0.55416 0.0
C453 C 0.57686 0.86747 0.55178 0.0
C454 C 0.57272 0.84448 0.55658 0.0
C455 C 0.59884 0.87427 0.54548 0.0
H456 H 0.59169 0.91066 0.54413 0.0
N457 N 0.6539 0.84641 0.53894 0.0
C458 C 0.63812 0.86337 0.53915 0.0
C459 C 0.66764 0.89213 0.53761 0.0
C460 C 0.64442 0.88664 0.53815 0.0
C461 C 0.67659 0.85188 0.54038 0.0
C462 C 0.6838 0.87466 0.53937 0.0
O463 O 0.68699 0.76852 0.51039 0.0
O464 O 0.68102 0.80029 0.53277 0.0
O465 O 0.63381 0.81272 0.57245 0.0
O466 O 0.65489 0.78424 0.56112 0.0
O467 O 0.60999 0.75678 0.5075 0.0
O468 O 0.60355 0.78893 0.5293 0.0
O469 O 0.61547 0.81104 0.50748 0.0
O470 O 0.63078 0.78671 0.48071 0.0
O471 O 0.63089 0.73246 0.47892 0.0
O472 O 0.66155 0.74629 0.46551 0.0
O473 O 0.66191 0.82113 0.5087 0.0
O474 O 0.66406 0.79185 0.48199 0.0
C475 C 0.69584 0.78509 0.5232 0.0
C476 C 0.59482 0.77041 0.51838 0.0
C477 C 0.66796 0.80674 0.59235 0.0
C478 C 0.69232 0.83903 0.60373 0.0
C479 C 0.70137 0.80015 0.61582 0.0
C480 C 0.68239 0.79173 0.60411 0.0
C481 C 0.70647 0.82352 0.61544 0.0
C482 C 0.67269 0.83055 0.59285 0.0
C483 C 0.64914 0.7976 0.57814 0.0
C484 C 0.62741 0.90361 0.539 0.0
C485 C 0.60458 0.89741 0.54261 0.0
H486 H 0.67324 0.90978 0.53696 0.0
C487 C 0.61712 0.80335 0.48665 0.0
C488 C 0.66805 0.81319 0.48882 0.0
C489 C 0.63238 0.74081 0.43941 0.0
C490 C 0.61308 0.73089 0.40397 0.0
C491 C 0.6226 0.77049 0.41209 0.0
C492 C 0.63253 0.76387 0.43246 0.0
C493 C 0.61296 0.75417 0.3979 0.0
C494 C 0.62278 0.72424 0.42492 0.0
C495 C 0.64363 0.73442 0.46102 0.0
H496 H 0.7125 0.78844 0.62482 0.0
H497 H 0.67915 0.77349 0.60395 0.0
H498 H 0.72163 0.82946 0.62419 0.0
H499 H 0.66167 0.84245 0.58401 0.0
H500 H 0.62281 0.7883 0.40705 0.0
H501 H 0.64094 0.77688 0.4424 0.0
H502 H 0.60596 0.75975 0.38179 0.0
H503 H 0.62299 0.70637 0.42982 0.0
C504 C 0.57107 0.41354 0.77393 0.0
C505 C 0.5764 0.3917 0.80836 0.0
C506 C 0.56326 0.39714 0.78889 0.0
C507 C 0.59782 0.40194 0.8117 0.0
C508 C 0.59191 0.42505 0.77811 0.0
C509 C 0.60554 0.41862 0.79662 0.0
N510 N 0.55739 0.41965 0.75641 0.0
C511 C 0.56266 0.43864 0.74372 0.0
C512 C 0.59803 0.44334 0.76414 0.0
C513 C 0.58306 0.45048 0.74719 0.0
Gd514 Gd 0.47391 0.39183 0.78485 0.0
Gd515 Gd 0.52538 0.39576 0.74908 0.0
N516 N 0.54209 0.38803 0.7855 0.0
C517 C 0.56724 0.3769 0.8245 0.0
C518 C 0.53264 0.37504 0.80234 0.0
C519 C 0.54505 0.36898 0.82171 0.0
H520 H 0.51525 0.3699 0.80175 0.0
H521 H 0.53728 0.35847 0.83467 0.0
H522 H 0.44385 0.44147 0.78034 0.0
H523 H 0.55106 0.445 0.7309 0.0
H524 H 0.40392 0.45423 0.77995 0.0
H525 H 0.57673 0.37238 0.83966 0.0
H526 H 0.60815 0.39771 0.8264 0.0
H527 H 0.47274 0.34113 0.81178 0.0
H528 H 0.6138 0.45262 0.76688 0.0
H529 H 0.58715 0.4652 0.73684 0.0
H530 H 0.36107 0.38616 0.79552 0.0
H531 H 0.6217 0.42704 0.79988 0.0
H532 H 0.40332 0.31928 0.81702 0.0
H533 H 0.44463 0.31166 0.82191 0.0
N534 N 0.44784 0.36489 0.7997 0.0
C535 C 0.4253 0.36962 0.79773 0.0
C536 C 0.45483 0.34453 0.80888 0.0
C537 C 0.41564 0.33218 0.81214 0.0
C538 C 0.43892 0.32782 0.81495 0.0
C539 C 0.40854 0.35348 0.80391 0.0
H540 H 0.37218 0.34714 0.80677 0.0
N541 N 0.43597 0.40642 0.78636 0.0
C542 C 0.41912 0.39127 0.79102 0.0
C543 C 0.39041 0.42063 0.78633 0.0
C544 C 0.3959 0.39781 0.79082 0.0
C545 C 0.43066 0.42902 0.78315 0.0
C546 C 0.40792 0.43638 0.78286 0.0
O547 O 0.51872 0.43361 0.76162 0.0
O548 O 0.48376 0.43177 0.77959 0.0
O549 O 0.47098 0.3887 0.82126 0.0
O550 O 0.49886 0.40865 0.80693 0.0
O551 O 0.52415 0.35587 0.75839 0.0
O552 O 0.48985 0.35398 0.77745 0.0
O553 O 0.4683 0.36756 0.75615 0.0
O554 O 0.49635 0.37794 0.73088 0.0
O555 O 0.54612 0.37445 0.72614 0.0
O556 O 0.53917 0.40908 0.71782 0.0
O557 O 0.46197 0.41069 0.75413 0.0
O558 O 0.49547 0.41559 0.73379 0.0
C559 C 0.50147 0.44452 0.77182 0.0
C560 C 0.50792 0.34287 0.76809 0.0
C561 C 0.47494 0.42618 0.83523 0.0
C562 C 0.44051 0.44902 0.84469 0.0
C563 C 0.47875 0.46498 0.84939 0.0
C564 C 0.4887 0.4447 0.84151 0.0
C565 C 0.45497 0.46719 0.8509 0.0
C566 C 0.45081 0.42846 0.83717 0.0
C567 C 0.48526 0.40546 0.82446 0.0
C568 C 0.37901 0.38156 0.79591 0.0
C569 C 0.38532 0.35937 0.80234 0.0
H570 H 0.3728 0.42639 0.78616 0.0
C571 C 0.47716 0.36755 0.73579 0.0
C572 C 0.47324 0.4185 0.73657 0.0
C573 C 0.53495 0.38345 0.68831 0.0
C574 C 0.53698 0.36857 0.64998 0.0
C575 C 0.50126 0.38371 0.66376 0.0
C576 C 0.51191 0.38938 0.68413 0.0
C577 C 0.51374 0.37318 0.64669 0.0
C578 C 0.54756 0.37325 0.67088 0.0
C579 C 0.54584 0.38967 0.71011 0.0
H580 H 0.48956 0.47919 0.8542 0.0
H581 H 0.50711 0.44361 0.83996 0.0
H582 H 0.44796 0.48311 0.85724 0.0
H583 H 0.4399 0.41444 0.8321 0.0
H584 H 0.48348 0.38808 0.66102 0.0
H585 H 0.50207 0.39894 0.69625 0.0
H586 H 0.50555 0.3695 0.63058 0.0
H587 H 0.56558 0.36961 0.67328 0.0
C588 C 0.85044 0.30259 1.01585 0.0
C589 C 0.86281 0.31223 0.05398 0.0
C590 C 0.86567 0.29935 0.03382 0.0
C591 C 0.84446 0.32761 0.05601 0.0
C592 C 0.83202 0.31811 0.01789 0.0
C593 C 0.8291 0.3305 0.03805 0.0
N594 N 0.85335 0.29033 0.99648 0.0
C595 C 0.83892 0.29307 0.97837 0.0
C596 C 0.81697 0.32074 0.99956 0.0
C597 C 0.82045 0.30816 0.97972 0.0
Gd598 Gd 0.889 0.2191 0.03704 0.0
Gd599 Gd 0.88511 0.26598 0.99544 0.0
N600 N 0.8833 0.28409 0.03157 0.0
C601 C 0.87862 0.30958 0.07153 0.0
C602 C 0.89917 0.2823 0.04856 0.0
C603 C 0.89694 0.29469 0.06873 0.0
H604 H 0.91302 0.2706 0.04768 0.0
H605 H 0.90935 0.29257 0.08221 0.0
H606 H 0.83841 0.19015 0.04102 0.0
H607 H 0.84145 0.28321 0.96305 0.0
H608 H 0.8252 0.15044 0.04032 0.0
H609 H 0.87698 0.31912 0.08723 0.0
H610 H 0.84208 0.33749 0.0714 0.0
H611 H 0.94055 0.21662 0.06293 0.0
H612 H 0.80264 0.33246 1.00055 0.0
H613 H 0.80893 0.31012 0.96547 0.0
H614 H 0.89399 0.10591 0.04582 0.0
H615 H 0.81506 0.34247 0.0399 0.0
H616 H 0.96262 0.14692 0.06375 0.0
H617 H 0.97049 0.18802 0.07008 0.0
N618 N 0.916 0.19232 0.05125 0.0
C619 C 0.91118 0.16989 0.04881 0.0
C620 C 0.93686 0.19884 0.05958 0.0
C621 C 0.94944 0.15948 0.06026 0.0
C622 C 0.95392 0.18263 0.06391 0.0
C623 C 0.92764 0.1528 0.05318 0.0
H624 H 0.93397 0.11625 0.05407 0.0
N625 N 0.87386 0.18152 0.04163 0.0
C626 C 0.88909 0.16421 0.0439 0.0
C627 C 0.85904 0.13612 0.04153 0.0
C628 C 0.88229 0.14108 0.04361 0.0
C629 C 0.85099 0.1767 0.04135 0.0
C630 C 0.84331 0.15404 0.04097 0.0
O631 O 0.84654 0.25653 1.00453 0.0
O632 O 0.84879 0.22751 0.03089 0.0
O633 O 0.8952 0.22084 0.07308 0.0
O634 O 0.87234 0.24543 0.05748 0.0
O635 O 0.92456 0.26652 1.00689 0.0
O636 O 0.92629 0.23525 0.03018 0.0
O637 O 0.91466 0.21277 1.00941 0.0
O638 O 0.90378 0.23617 0.9798 0.0
O639 O 0.90133 0.29712 0.98324 0.0
O640 O 0.8838 0.27535 0.95957 0.0
O641 O 0.86849 0.20591 1.00794 0.0
O642 O 0.86974 0.23337 0.97922 0.0
C643 C 0.83571 0.24183 0.01824 0.0
C644 C 0.93747 0.25219 0.01932 0.0
C645 C 0.86047 0.22677 0.09143 0.0
C646 C 0.83985 0.19427 0.10765 0.0
C647 C 0.82797 0.23319 0.11617 0.0
C648 C 0.84554 0.24182 0.10252 0.0
C649 C 0.82506 0.20953 0.11869 0.0
C650 C 0.85751 0.20295 0.09424 0.0
C651 C 0.87871 0.23537 0.07634 0.0
C652 C 0.89878 0.12379 0.04642 0.0
C653 C 0.92151 0.12967 0.05114 0.0
H654 H 0.85302 0.1186 0.04133 0.0
C655 C 0.91509 0.21855 0.98791 0.0
C656 C 0.8639 0.21288 0.98722 0.0
C657 C 0.89107 0.3136 0.94771 0.0
C658 C 0.90072 0.3352 0.9136 0.0
C659 C 0.87094 0.34884 0.93895 0.0
C660 C 0.87488 0.33032 0.95349 0.0
C661 C 0.88369 0.35124 0.91901 0.0
C662 C 0.90405 0.31626 0.9279 0.0
C663 C 0.89591 0.29367 0.96219 0.0
H664 H 0.81648 0.24487 0.12473 0.0
H665 H 0.84741 0.26015 0.10056 0.0
H666 H 0.8113 0.20314 0.12917 0.0
H667 H 0.86889 0.19095 0.08597 0.0
H668 H 0.85829 0.36161 0.94338 0.0
H669 H 0.86556 0.32933 0.96926 0.0
H670 H 0.88087 0.36604 0.9083 0.0
H671 H 0.91708 0.30371 0.92375 0.0
C672 C 0.22291 0.02085 0.36334 0.0
C673 C 0.2119 0.98691 0.3841 0.0
C674 C 0.22712 1.0054 0.38067 0.0
C675 C 0.19225 0.98481 0.37059 0.0
C676 C 0.20363 0.01817 0.34907 0.0
C677 C 0.18813 1.00038 0.3531 0.0
N678 N 0.23822 0.03779 0.35962 0.0
C679 C 0.23584 0.05185 0.34112 0.0
C680 C 0.20069 0.03312 0.3308 0.0
C681 C 0.21706 0.04982 0.32662 0.0
Gd682 Gd 0.31282 1.00167 0.39626 0.0
Gd683 Gd 0.26729 0.04244 0.3872 0.0
N684 N 0.24657 1.00764 0.39329 0.0
C685 C 0.21709 0.97064 0.40062 0.0
C686 C 0.25197 0.99089 0.4086 0.0
C687 C 0.23742 0.97245 0.41263 0.0
H688 H 0.26807 0.99048 0.41684 0.0
H689 H 0.24217 0.95939 0.42479 0.0
H690 H 0.35709 1.0009 0.35898 0.0
H691 H 0.24862 0.06453 0.33716 0.0
H692 H 0.39929 1.00053 0.36112 0.0
H693 H 0.20592 0.9562 0.40367 0.0
H694 H 0.18039 0.97084 0.37318 0.0
H695 H 0.29444 0.96849 0.43965 0.0
H696 H 0.18614 0.03155 0.3195 0.0
H697 H 0.21528 0.06112 0.31218 0.0
H698 H 0.41512 0.98152 0.43891 0.0
H699 H 0.17317 0.99823 0.34246 0.0
H700 H 0.35148 0.95696 0.48384 0.0
H701 H 0.31019 0.95312 0.47549 0.0
N702 N 0.32636 0.98161 0.42831 0.0
C703 C 0.34919 0.98233 0.4318 0.0
C704 C 0.31251 0.97016 0.44315 0.0
C705 C 0.34464 0.96375 0.46813 0.0
C706 C 0.32135 0.96146 0.46345 0.0
C707 C 0.35899 0.97372 0.45193 0.0
H708 H 0.39068 0.96833 0.47026 0.0
N709 N 0.35261 0.99554 0.39431 0.0
C710 C 0.36284 0.98963 0.41416 0.0
C711 C 0.40004 0.99354 0.39701 0.0
C712 C 0.38681 0.98868 0.41617 0.0
C713 C 0.36534 0.99833 0.37515 0.0
C714 C 0.38923 0.99779 0.37626 0.0
O715 O 0.27461 0.02661 0.35099 0.0
O716 O 0.30781 1.00569 0.35489 0.0
O717 O 0.31655 0.96515 0.39457 0.0
O718 O 0.28651 0.9815 0.37925 0.0
O719 O 0.26514 0.03421 0.42718 0.0
O720 O 0.29654 1.01151 0.43311 0.0
O721 O 0.3241 0.03299 0.4159 0.0
O722 O 0.29476 0.05823 0.40824 0.0
O723 O 0.24242 0.06467 0.40456 0.0
O724 O 0.25879 0.07591 0.37427 0.0
O725 O 0.32842 0.02802 0.37401 0.0
O726 O 0.30073 0.05636 0.371 0.0
C727 C 0.29122 1.01449 0.34104 0.0
C728 C 0.27886 0.02327 0.44213 0.0
C729 C 0.30672 0.95267 0.35811 0.0
C730 C 0.33681 0.94315 0.3305 0.0
C731 C 0.2967 0.93631 0.32161 0.0
C732 C 0.29016 0.94495 0.34276 0.0
C733 C 0.31976 0.93555 0.31544 0.0
C734 C 0.33013 0.95138 0.35192 0.0
C735 C 0.29979 0.96321 0.38002 0.0
C736 C 0.39672 0.98193 0.43687 0.0
C737 C 0.38281 0.97442 0.45473 0.0
H738 H 0.41852 0.99302 0.39782 0.0
C739 C 0.31422 0.05307 0.41785 0.0
C740 C 0.32166 0.0483 0.36717 0.0
C741 C 0.25477 0.10349 0.40256 0.0
C742 C 0.24757 0.13792 0.42485 0.0
C743 C 0.28496 0.13156 0.40847 0.0
C744 C 0.27749 0.11088 0.39939 0.0
C745 C 0.27016 0.14496 0.42131 0.0
C746 C 0.2398 0.11718 0.41542 0.0
C747 C 0.24687 0.08207 0.39162 0.0
H748 H 0.28379 0.9304 0.30981 0.0
H749 H 0.27219 0.94583 0.34705 0.0
H750 H 0.3243 0.92896 0.29885 0.0
H751 H 0.34323 0.95739 0.36342 0.0
H752 H 0.30227 0.13722 0.40545 0.0
H753 H 0.28951 0.10086 0.38957 0.0
H754 H 0.27628 0.16092 0.42845 0.0
H755 H 0.22227 0.11184 0.41798 0.0
C756 C 0.31267 1.01021 0.67693 0.0
C757 C 0.31681 0.97186 0.66179 0.0
C758 C 0.30673 0.99385 0.66074 0.0
C759 C 0.33229 0.96655 0.67926 0.0
C760 C 0.32828 1.00491 0.69446 0.0
C761 C 0.33797 0.98299 0.69555 0.0
N762 N 0.30298 0.03127 0.67579 0.0
C763 C 0.30833 0.04794 0.69118 0.0
C764 C 0.33371 0.02181 0.71044 0.0
C765 C 0.3237 0.04344 0.70877 0.0
Gd766 Gd 0.22671 1.0045 0.6365 0.0
Gd767 Gd 0.2782 0.03779 0.64547 0.0
N768 N 0.29142 0.99934 0.64403 0.0
C769 C 0.31124 0.95578 0.64515 0.0
C770 C 0.28649 0.98363 0.62752 0.0
C771 C 0.2961 0.96174 0.62793 0.0
H772 H 0.27418 0.98694 0.61464 0.0
H773 H 0.29158 0.94936 0.61502 0.0
H774 H 0.18727 1.00763 0.67843 0.0
H775 H 0.30041 0.06462 0.69005 0.0
H776 H 0.14551 1.01345 0.68162 0.0
H777 H 0.31859 0.93875 0.64541 0.0
H778 H 0.34005 0.94973 0.68026 0.0
H779 H 0.23328 0.97327 0.58826 0.0
H780 H 0.3456 0.01834 0.72414 0.0
H781 H 0.32778 0.0566 0.72105 0.0
H782 H 0.11835 1.00821 0.60492 0.0
H783 H 0.34997 0.97861 0.70889 0.0
H784 H 0.17108 0.97834 0.55025 0.0
H785 H 0.21134 0.96565 0.55324 0.0
N786 N 0.20624 0.99166 0.60427 0.0
C787 C 0.18375 0.99708 0.60363 0.0
C788 C 0.21583 0.97927 0.58697 0.0
C789 C 0.18074 0.98203 0.56552 0.0
C790 C 0.20343 0.97478 0.56716 0.0
C791 C 0.17039 0.99266 0.58418 0.0
H792 H 0.13646 0.99496 0.56956 0.0
N793 N 0.18685 1.00603 0.64237 0.0
C794 C 0.17365 1.0045 0.62346 0.0
C795 C 0.13977 1.01198 0.64558 0.0
C796 C 0.1498 1.00776 0.62445 0.0
C797 C 0.17694 1.0082 0.66323 0.0
C798 C 0.15332 1.01148 0.66511 0.0
O799 O 0.26763 0.02633 0.68294 0.0
O800 O 0.23445 1.00585 0.67757 0.0
O801 O 0.21454 0.96986 0.63533 0.0
O802 O 0.24746 0.97721 0.65116 0.0
O803 O 0.27946 0.02862 0.60572 0.0
O804 O 0.24485 1.01156 0.60003 0.0
O805 O 0.21928 0.03845 0.6194 0.0
O806 O 0.25411 0.05669 0.62253 0.0
O807 O 0.31197 0.04874 0.63413 0.0
O808 O 0.28868 0.07341 0.64922 0.0
O809 O 0.21721 0.03216 0.66042 0.0
O810 O 0.24792 0.05729 0.66168 0.0
C811 C 0.25081 1.01389 0.69214 0.0
C812 C 0.26393 0.02051 0.59085 0.0
C813 C 0.2216 0.95129 0.66994 0.0
C814 C 0.18903 0.9384 0.69315 0.0
C815 C 0.2278 0.93739 0.70828 0.0
C816 C 0.2364 0.94618 0.68797 0.0
C817 C 0.20436 0.93366 0.71093 0.0
C818 C 0.19786 0.94697 0.6726 0.0
C819 C 0.23046 0.96256 0.64905 0.0
C820 C 0.13665 1.00536 0.6046 0.0
C821 C 0.14695 0.99782 0.58446 0.0
H822 H 0.12148 1.01446 0.64712 0.0
C823 C 0.23295 0.05577 0.61525 0.0
C824 C 0.22653 0.05158 0.66653 0.0
C825 C 0.32655 0.08673 0.64078 0.0
C826 C 0.34365 0.12195 0.62653 0.0
C827 C 0.36047 0.10205 0.65878 0.0
C828 C 0.34362 0.08515 0.65738 0.0
C829 C 0.36049 0.1204 0.64352 0.0
C830 C 0.32666 0.10504 0.62543 0.0
C831 C 0.30798 0.07003 0.63901 0.0
H832 H 0.23936 0.93363 0.72214 0.0
H833 H 0.25457 0.94933 0.68651 0.0
H834 H 0.19824 0.92684 0.72689 0.0
H835 H 0.18602 0.95096 0.659 0.0
H836 H 0.37362 0.10087 0.67166 0.0
H837 H 0.34393 0.07102 0.6692 0.0
H838 H 0.37389 0.1331 0.64472 0.0
H839 H 0.31332 0.10622 0.61267 0.0
C840 C 0.26401 0.04956 0.92844 0.0
C841 C 0.29953 0.06245 0.91179 0.0
C842 C 0.28 0.04817 0.91105 0.0
C843 C 0.30296 0.0773 0.93021 0.0
C844 C 0.26728 0.0648 0.94682 0.0
C845 C 0.28689 0.07849 0.94765 0.0
N846 N 0.24515 0.03618 0.92741 0.0
C847 C 0.22872 0.03748 0.9439 0.0
C848 C 0.25066 0.06599 0.96383 0.0
C849 C 0.23129 0.05225 0.96235 0.0
Gd850 Gd 0.28716 0.96991 0.88853 0.0
Gd851 Gd 0.24157 1.01214 0.89558 0.0
N852 N 0.27618 0.0337 0.89317 0.0
C853 C 0.31485 0.06193 0.89371 0.0
C854 C 0.29062 0.03452 0.87491 0.0
C855 C 0.31022 0.04811 0.8751 0.0
H856 H 0.28791 0.02474 0.8601 0.0
H857 H 0.32168 0.04803 0.8607 0.0
H858 H 0.29007 0.93642 0.93616 0.0
H859 H 0.21418 0.02613 0.94329 0.0
H860 H 0.29396 0.89573 0.94544 0.0
H861 H 0.32999 0.07258 0.89368 0.0
H862 H 0.31787 0.08825 0.93095 0.0
H863 H 0.31504 0.97603 0.83892 0.0
H864 H 0.25262 0.07745 0.97816 0.0
H865 H 0.21841 0.05289 0.9755 0.0
H866 H 0.31137 0.85992 0.87418 0.0
H867 H 0.28967 0.09023 0.96163 0.0
H868 H 0.32761 0.90945 0.81147 0.0
H869 H 0.32825 0.95158 0.80749 0.0
N870 N 0.30563 0.94808 0.86015 0.0
C871 C 0.30632 0.92516 0.86304 0.0
C872 C 0.31414 0.95766 0.84074 0.0
C873 C 0.3215 0.92012 0.82524 0.0
C874 C 0.32191 0.94387 0.82294 0.0
C875 C 0.31414 0.91048 0.84568 0.0
H876 H 0.32072 0.87519 0.83638 0.0
N877 N 0.29505 0.93179 0.90054 0.0
C878 C 0.30092 0.91667 0.88408 0.0
C879 C 0.30023 0.88547 0.91091 0.0
C880 C 0.30339 0.89311 0.88866 0.0
C881 C 0.29345 0.92451 0.92259 0.0
C882 C 0.29571 0.90133 0.92802 0.0
O883 O 0.25306 1.00169 0.93352 0.0
O884 O 0.28279 0.97632 0.92903 0.0
O885 O 0.32386 0.97218 0.8861 0.0
O886 O 0.30474 0.99915 0.90324 0.0
O887 O 0.24757 1.01115 0.8549 0.0
O888 O 0.27742 0.98594 0.85149 0.0
O889 O 0.25862 0.9583 0.86611 0.0
O890 O 0.22833 0.98173 0.87614 0.0
O891 O 0.22479 0.04233 0.88112 0.0
O892 O 0.20536 0.01848 0.90112 0.0
O893 O 0.25997 0.95393 0.90992 0.0
O894 O 0.22868 0.97861 0.91111 0.0
C895 C 0.26931 0.98868 0.94325 0.0
C896 C 0.26176 0.99949 0.84099 0.0
C897 C 0.33753 0.98348 0.92169 0.0
C898 C 0.34938 0.95489 0.94998 0.0
C899 C 0.35561 0.99559 0.95671 0.0
C900 C 0.34547 1.00096 0.93588 0.0
C901 C 0.35734 0.97281 0.96385 0.0
C902 C 0.34019 0.96041 0.92864 0.0
C903 C 0.32463 0.98895 0.9007 0.0
C904 C 0.30977 0.87812 0.8711 0.0
C905 C 0.31511 0.8868 0.84959 0.0
H906 H 0.30205 0.86753 0.91516 0.0
C907 C 0.23688 0.96368 0.8658 0.0
C908 C 0.23888 0.95888 0.91574 0.0
C909 C 0.18785 0.05474 0.89386 0.0
C910 C 0.15718 0.07885 0.87934 0.0
C911 C 0.16348 0.07591 0.91989 0.0
C912 C 0.18146 0.06064 0.91608 0.0
C913 C 0.15118 0.0848 0.90161 0.0
C914 C 0.17582 0.06426 0.87553 0.0
C915 C 0.20483 0.03681 0.88884 0.0
H916 H 0.36167 1.00917 0.96765 0.0
H917 H 0.3435 0.01873 0.93101 0.0
H918 H 0.3647 0.9692 0.98034 0.0
H919 H 0.33426 0.94669 0.91787 0.0
H920 H 0.15861 0.08028 0.93707 0.0
H921 H 0.18967 0.05314 0.93056 0.0
H922 H 0.13673 0.09596 0.90482 0.0
H923 H 0.18006 0.05922 0.85831 0.0
C924 C 0.28741 0.05616 0.10738 0.0
C925 C 0.2535 0.07095 0.12559 0.0
C926 C 0.27137 0.05471 0.12442 0.0
C927 C 0.25262 0.08897 0.10983 0.0
C928 C 0.28638 0.07388 0.09116 0.0
C929 C 0.26907 0.09045 0.09267 0.0
N930 N 0.30362 0.03971 0.10618 0.0
C931 C 0.31926 0.03966 0.08906 0.0
C932 C 0.30265 0.07421 0.07376 0.0
C933 C 0.31908 0.05689 0.07262 0.0
Gd934 Gd 0.26113 0.96625 0.14925 0.0
Gd935 Gd 0.30558 1.01309 0.13584 0.0
N936 N 0.27277 0.03697 0.13928 0.0
C937 C 0.2368 0.06838 0.14228 0.0
C938 C 0.25599 0.03413 0.15507 0.0
C939 C 0.23792 0.04971 0.15691 0.0
H940 H 0.25579 0.01958 0.1659 0.0
H941 H 0.22474 0.04717 0.16953 0.0
H942 H 0.2595 0.9263 0.10749 0.0
H943 H 0.33148 0.02591 0.08788 0.0
H944 H 0.25868 0.88421 0.10463 0.0
H945 H 0.22275 0.08039 0.14371 0.0
H946 H 0.23911 0.10165 0.11059 0.0
H947 H 0.23241 0.97918 0.19737 0.0
H948 H 0.30246 0.08753 0.06099 0.0
H949 H 0.33153 0.05675 0.05906 0.0
H950 H 0.24288 0.85932 0.18063 0.0
H951 H 0.26805 0.10427 0.08046 0.0
H952 H 0.22298 0.91725 0.23474 0.0
H953 H 0.21967 0.95936 0.232 0.0
N954 N 0.24473 0.94882 0.1814 0.0
C955 C 0.24507 0.92567 0.18188 0.0
C956 C 0.23468 0.96087 0.19865 0.0
C957 C 0.22903 0.92592 0.21967 0.0
C958 C 0.22712 0.94968 0.21819 0.0
C959 C 0.2375 0.91355 0.20113 0.0
H960 H 0.2322 0.87989 0.21553 0.0
N961 N 0.25566 0.9267 0.14339 0.0
C962 C 0.25081 0.91419 0.16218 0.0
C963 C 0.25317 0.87924 0.14043 0.0
C964 C 0.24951 0.89013 0.16127 0.0
C965 C 0.25748 0.91627 0.12272 0.0
C966 C 0.25671 0.89241 0.12099 0.0
O967 O 0.28987 1.00413 0.09996 0.0
O968 O 0.26346 0.97519 0.10788 0.0
O969 O 0.22491 0.96098 0.15037 0.0
O970 O 0.23824 0.99254 0.13562 0.0
O971 O 0.29837 1.01421 0.17681 0.0
O972 O 0.2705 0.98681 0.18456 0.0
O973 O 0.2925 0.95067 0.16756 0.0
O974 O 0.29769 0.98273 0.15368 0.0
O975 O 0.32926 0.03882 0.14863 0.0
O976 O 0.34202 1.00851 0.13184 0.0
O977 O 0.28658 0.95349 0.12322 0.0
O978 O 0.31709 0.97931 0.11886 0.0
C979 C 0.27428 0.98916 0.0923 0.0
C980 C 0.28541 1.00273 0.19246 0.0
C981 C 0.20743 0.97285 0.11676 0.0
C982 C 0.19366 0.94408 0.08968 0.0
C983 C 0.18426 0.98428 0.0845 0.0
C984 C 0.19648 0.98998 0.10416 0.0
C985 C 0.18302 0.96152 0.07717 0.0
C986 C 0.20568 0.94983 0.10945 0.0
C987 C 0.22063 0.97861 0.13751 0.0
C988 C 0.24366 0.87783 0.18091 0.0
C989 C 0.23761 0.88953 0.2008 0.0
H990 H 0.25237 0.86078 0.13901 0.0
C991 C 0.30768 0.96624 0.16469 0.0
C992 C 0.30688 0.95926 0.11518 0.0
C993 C 0.36479 0.04187 0.12931 0.0
C994 C 0.39488 0.07011 0.13407 0.0
C995 C 0.39292 0.04756 0.09954 0.0
C996 C 0.37425 0.0356 0.10826 0.0
C997 C 0.40344 0.06459 0.11248 0.0
C998 C 0.37468 0.05969 0.14159 0.0
C999 C 0.34708 0.0282 0.14065 0.0
H1000 H 0.17588 0.99759 0.0748 0.0
H1001 H 0.19742 1.0077 0.10947 0.0
H1002 H 0.17376 0.95751 0.06173 0.0
H1003 H 0.21395 0.93624 0.11885 0.0
H1004 H 0.40008 0.0427 0.0833 0.0
H1005 H 0.36784 0.02107 0.09886 0.0
H1006 H 0.41904 0.07226 0.10626 0.0
H1007 H 0.3677 0.06413 0.15808 0.0
C1008 C 0.36024 0.20997 0.01818 0.0
C1009 C 0.37752 0.20872 0.98095 0.0
C1010 C 0.37539 0.21892 1.00259 0.0
C1011 C 0.36551 0.18852 0.97601 0.0
C1012 C 0.347 0.19056 1.01281 0.0
C1013 C 0.35027 0.17944 0.99193 0.0
N1014 N 0.35722 0.22133 0.03798 0.0
C1015 C 0.33997 0.21543 0.05236 0.0
C1016 C 0.33029 0.18345 0.02823 0.0
C1017 C 0.32646 0.19624 0.0479 0.0
Gd1018 Gd 0.39211 0.30774 1.01413 0.0
Gd1019 Gd 0.38316 0.2508 0.04605 0.0
N1020 N 0.38634 0.23876 1.0078 0.0
C1021 C 0.39075 0.21974 0.96458 0.0
C1022 C 0.39733 0.25047 0.99121 0.0
C1023 C 0.40022 0.24103 0.96956 0.0
H1024 H 0.40345 0.26716 0.99459 0.0
H1025 H 0.40944 0.25031 0.95661 0.0
H1026 H 0.37635 0.35489 0.04308 0.0
H1027 H 0.33654 0.22568 0.0671 0.0
H1028 H 0.39185 0.39322 0.05123 0.0
H1029 H 0.39279 0.21255 0.94774 0.0
H1030 H 0.36722 0.18029 0.95962 0.0
H1031 H 0.42337 0.2871 0.96964 0.0
H1032 H 0.31974 0.16866 0.02473 0.0
H1033 H 0.31303 0.19142 0.05955 0.0
H1034 H 0.46087 0.3962 1.00786 0.0
H1035 H 0.34049 0.16432 0.98761 0.0
H1036 H 0.47795 0.33392 0.95827 0.0
H1037 H 0.45781 0.29812 0.94857 0.0
N1038 N 0.42492 0.31531 0.99253 0.0
C1039 C 0.43448 0.33611 0.99682 0.0
C1040 C 0.43223 0.30246 0.97446 0.0
C1041 C 0.46297 0.32899 0.96785 0.0
C1042 C 0.45168 0.30876 0.96233 0.0
C1043 C 0.45411 0.34322 0.98482 0.0
H1044 H 0.47897 0.37026 0.98047 0.0
N1045 N 0.40386 0.34493 0.02223 0.0
C1046 C 0.42384 0.35113 1.01209 0.0
C1047 C 0.4217 0.38813 0.03048 0.0
C1048 C 0.43321 0.37304 1.01598 0.0
C1049 C 0.39225 0.35982 0.03574 0.0
C1050 C 0.40105 0.38154 0.04027 0.0
O1051 O 0.34531 0.261 0.03272 0.0
O1052 O 0.35124 0.29644 1.01525 0.0
O1053 O 0.37283 0.33285 0.99567 0.0
O1054 O 0.38015 0.29878 0.98052 0.0
O1055 O 0.42252 0.25225 0.03308 0.0
O1056 O 0.42855 0.28798 1.01665 0.0
O1057 O 0.40247 0.31459 0.05062 0.0
O1058 O 0.41066 0.27651 0.05894 0.0
O1059 O 0.38869 0.21602 0.0594 0.0
O1060 O 0.39152 0.24571 0.08097 0.0
O1061 O 0.37405 0.29092 0.04136 0.0
O1062 O 0.36097 0.27324 0.06915 0.0
C1063 C 0.3364 0.27932 0.02179 0.0
C1064 C 0.43726 0.26786 0.02408 0.0
C1065 C 0.37963 0.33152 0.95596 0.0
C1066 C 0.38038 0.36639 0.93292 0.0
C1067 C 0.39654 0.33095 0.91831 0.0
C1068 C 0.39039 0.31957 0.93822 0.0
C1069 C 0.39154 0.35418 0.91559 0.0
C1070 C 0.37489 0.35492 0.95318 0.0
C1071 C 0.37273 0.31994 0.97723 0.0
C1072 C 0.45342 0.37949 1.00494 0.0
C1073 C 0.46378 0.36469 0.98937 0.0
H1074 H 0.42838 0.40507 0.03388 0.0
C1075 C 0.41146 0.29871 0.06412 0.0
C1076 C 0.36261 0.29318 0.06033 0.0
C1077 C 0.38019 0.21255 0.09901 0.0
C1078 C 0.3892 0.1948 0.13509 0.0
C1079 C 0.35389 0.21641 0.13056 0.0
C1080 C 0.36027 0.222 0.10851 0.0
C1081 C 0.36856 0.20346 0.14408 0.0
C1082 C 0.39343 0.19751 0.1118 0.0
C1083 C 0.39157 0.22363 0.07991 0.0
H1084 H 0.40486 0.32162 0.90475 0.0
H1085 H 0.39404 0.30146 0.93966 0.0
H1086 H 0.39574 0.36235 0.89965 0.0
H1087 H 0.36665 0.36422 0.96683 0.0
H1088 H 0.33869 0.22397 0.13788 0.0
H1089 H 0.35073 0.23517 0.09981 0.0
H1090 H 0.36444 0.20201 0.16189 0.0
H1091 H 0.40879 0.19051 0.10424 0.0
C1092 C 0.07378 0.92255 0.26425 0.0
C1093 C 0.08532 0.90261 0.29829 0.0
C1094 C 0.06978 0.90577 0.28016 0.0
C1095 C 0.10557 0.91545 0.29912 0.0
C1096 C 0.09331 0.93664 0.2659 0.0
C1097 C 0.10954 0.93247 0.28294 0.0
N1098 N 0.05751 0.92646 0.2484 0.0
C1099 C 0.05897 0.94537 0.23468 0.0
C1100 C 0.09548 0.9551 0.25099 0.0
C1101 C 0.07799 0.95974 0.2356 0.0
Gd1102 Gd 0.97784 0.89045 0.28737 0.0
Gd1103 Gd 0.02809 0.89875 0.24515 0.0
N1104 N 0.04966 0.89421 0.27921 0.0
C1105 C 0.0795 0.88754 0.3157 0.0
C1106 C 0.04319 0.88124 0.29733 0.0
C1107 C 0.05807 0.87727 0.31549 0.0
H1108 H 0.02646 0.8743 0.2984 0.0
H1109 H 0.05281 0.86656 0.32951 0.0
H1110 H 0.94376 0.93729 0.28601 0.0
H1111 H 0.04534 0.94963 0.22301 0.0
H1112 H 0.90262 0.94633 0.28603 0.0
H1113 H 0.0909 0.88468 0.32993 0.0
H1114 H 0.11779 0.91301 0.31274 0.0
H1115 H 0.98178 0.83871 0.31267 0.0
H1116 H 0.11015 0.96635 0.25179 0.0
H1117 H 0.07906 0.97445 0.22451 0.0
H1118 H 0.86637 0.87402 0.29914 0.0
H1119 H 0.12478 0.9429 0.28429 0.0
H1120 H 0.91469 0.81062 0.31802 0.0
H1121 H 0.95654 0.80666 0.32243 0.0
N1122 N 0.9548 0.86013 0.30066 0.0
C1123 C 0.93185 0.86304 0.29927 0.0
C1124 C 0.96367 0.84044 0.30965 0.0
C1125 C 0.92576 0.82461 0.31312 0.0
C1126 C 0.94936 0.8223 0.31563 0.0
C1127 C 0.91668 0.84536 0.3054 0.0
H1128 H 0.8811 0.83583 0.30894 0.0
N1129 N 0.93891 0.90139 0.28943 0.0
C1130 C 0.92362 0.88444 0.29357 0.0
C1131 C 0.89232 0.91131 0.29071 0.0
C1132 C 0.89991 0.88887 0.2941 0.0
C1133 C 0.9316 0.92354 0.28755 0.0
C1134 C 0.90827 0.92878 0.28782 0.0
O1135 O 0.02008 0.9353 0.2601 0.0
O1136 O 0.98749 0.93081 0.28221 0.0
O1137 O 0.96885 0.88838 0.3227 0.0
O1138 O 1.00072 0.90485 0.31318 0.0
O1139 O 0.02955 0.85921 0.25562 0.0
O1140 O 0.99833 0.85443 0.27966 0.0
O1141 O 0.96412 0.86861 0.25941 0.0
O1142 O 0.99575 0.87974 0.24286 0.0
O1143 O 0.04538 0.87664 0.21979 0.0
O1144 O 0.03769 0.91127 0.21231 0.0
O1145 O 0.96708 0.91442 0.25894 0.0
O1146 O 0.99526 0.91419 0.23081 0.0
C1147 C 1.00368 0.94474 0.27284 0.0
C1148 C 1.01588 0.84498 0.26764 0.0
C1149 C 0.97635 0.92323 0.34081 0.0
C1150 C 0.94476 0.94952 0.35074 0.0
C1151 C 0.98397 0.9576 0.36254 0.0
C1152 C 0.99176 0.93772 0.35188 0.0
C1153 C 0.96081 0.96352 0.36191 0.0
C1154 C 0.9527 0.92902 0.34081 0.0
C1155 C 0.98486 0.90242 0.32885 0.0
C1156 C 0.88464 0.87101 0.29894 0.0
C1157 C 0.89302 0.84926 0.30453 0.0
H1158 H 0.87427 0.91545 0.29113 0.0
C1159 C 0.97665 0.86847 0.24139 0.0
C1160 C 0.97476 0.91982 0.23856 0.0
C1161 C 0.03595 0.88684 0.18121 0.0
C1162 C 0.04092 0.86916 0.14393 0.0
C1163 C 1.00916 0.89509 0.15052 0.0
C1164 C 1.01649 0.89838 0.17279 0.0
C1165 C 0.02126 0.88058 0.13615 0.0
C1166 C 0.04801 0.87212 0.16665 0.0
C1167 C 0.04495 0.89228 0.20416 0.0
H1168 H 0.996 0.96864 0.37118 0.0
H1169 H 1.00983 0.93367 0.35225 0.0
H1170 H 0.95547 0.97913 0.3703 0.0
H1171 H 0.94046 0.91789 0.33268 0.0
H1172 H 0.99414 0.90398 0.14434 0.0
H1173 H 1.00696 0.91012 0.18338 0.0
H1174 H 1.0153 0.87838 0.11886 0.0
H1175 H 0.06345 0.86383 0.17269 0.0
C1176 C 0.18143 0.80543 0.51525 0.0
C1177 C 0.16396 0.81556 0.47933 0.0
C1178 C 0.16382 0.80259 0.49964 0.0
C1179 C 0.18158 0.83126 0.4752 0.0
C1180 C 0.19939 0.82097 0.51092 0.0
C1181 C 0.19926 0.83392 0.49091 0.0
N1182 N 0.1812 0.79296 0.53462 0.0
C1183 C 0.19833 0.79507 0.55029 0.0
C1184 C 0.21702 0.82311 0.52685 0.0
C1185 C 0.21655 0.80997 0.54657 0.0
Gd1186 Gd 0.14034 0.72144 0.50201 0.0
Gd1187 Gd 0.1489 0.77023 0.54105 0.0
N1188 N 0.14686 0.78715 0.50403 0.0
C1189 C 0.14644 0.81241 0.46358 0.0
C1190 C 0.13005 0.78391 0.48813 0.0
C1191 C 0.12956 0.79638 0.46793 0.0
H1192 H 0.11772 0.77076 0.48961 0.0
H1193 H 0.11626 0.79329 0.45552 0.0
H1194 H 0.18939 0.68915 0.50253 0.0
H1195 H 0.19798 0.78474 0.56551 0.0
H1196 H 0.20087 0.64927 0.49904 0.0
H1197 H 0.14601 0.82198 0.44784 0.0
H1198 H 0.18178 0.84134 0.45977 0.0
H1199 H 0.08892 0.72332 0.47636 0.0
H1200 H 0.23108 0.8348 0.52406 0.0
H1201 H 0.23014 0.8114 0.55897 0.0
H1202 H 0.13181 0.60964 0.48056 0.0
H1203 H 0.21281 0.84602 0.48741 0.0
H1204 H 0.06579 0.65524 0.46412 0.0
H1205 H 0.05894 0.69699 0.46375 0.0
N1206 N 0.1126 0.69696 0.48531 0.0
C1207 C 0.11681 0.67423 0.48486 0.0
C1208 C 0.09215 0.70517 0.47735 0.0
C1209 C 0.07899 0.66676 0.47008 0.0
C1210 C 0.07507 0.69028 0.46984 0.0
C1211 C 0.10021 0.65846 0.47725 0.0
H1212 H 0.09299 0.62267 0.47084 0.0
N1213 N 0.15386 0.6831 0.49645 0.0
C1214 C 0.13831 0.667 0.49056 0.0
C1215 C 0.16694 0.6372 0.49216 0.0
C1216 C 0.14427 0.64365 0.48848 0.0
C1217 C 0.17633 0.67682 0.49893 0.0
C1218 C 0.18309 0.65394 0.49699 0.0
O1219 O 0.18563 0.75562 0.53348 0.0
O1220 O 0.18135 0.72756 0.50634 0.0
O1221 O 0.13303 0.72759 0.46659 0.0
O1222 O 0.15953 0.74722 0.48324 0.0
O1223 O 0.10922 0.77189 0.53071 0.0
O1224 O 0.1035 0.73856 0.51056 0.0
O1225 O 0.11825 0.71579 0.53291 0.0
O1226 O 0.12525 0.74569 0.55778 0.0
O1227 O 0.14273 0.80485 0.55512 0.0
O1228 O 0.14906 0.77643 0.57723 0.0
O1229 O 0.15913 0.70738 0.53148 0.0
O1230 O 0.16384 0.73733 0.55734 0.0
C1231 C 0.19537 0.74087 0.51915 0.0
C1232 C 0.09445 0.75719 0.52082 0.0
C1233 C 0.16734 0.7306 0.44705 0.0
C1234 C 0.18639 0.69697 0.43095 0.0
C1235 C 0.19463 0.735 0.41645 0.0
C1236 C 0.17932 0.7447 0.43203 0.0
C1237 C 0.19839 0.71129 0.41607 0.0
C1238 C 0.17069 0.70672 0.44599 0.0
C1239 C 0.15111 0.74011 0.46383 0.0
C1240 C 0.12762 0.62765 0.48197 0.0
C1241 C 0.10556 0.63506 0.47641 0.0
H1242 H 0.17227 0.6195 0.49057 0.0
C1243 C 0.11591 0.72606 0.55264 0.0
C1244 C 0.16596 0.71552 0.55108 0.0
C1245 C 0.15067 0.8127 0.59495 0.0
C1246 C 0.14076 0.82618 0.63329 0.0
C1247 C 0.18012 0.82772 0.61974 0.0
C1248 C 0.17351 0.81848 0.59893 0.0
C1249 C 0.1641 0.83101 0.63695 0.0
C1250 C 0.13433 0.81758 0.61172 0.0
C1251 C 0.14361 0.79776 0.57594 0.0
H1252 H 0.20389 0.74593 0.40486 0.0
H1253 H 0.17683 0.76307 0.43235 0.0
H1254 H 0.21081 0.70417 0.40442 0.0
H1255 H 0.16117 0.69556 0.45695 0.0
H1256 H 0.19793 0.8316 0.62283 0.0
H1257 H 0.18644 0.81547 0.58645 0.0
H1258 H 0.17041 0.83683 0.65319 0.0
H1259 H 0.11668 0.81375 0.60788 0.0
C1260 C 0.9359 0.67899 0.8039 0.0
C1261 C 0.89999 0.65895 0.80071 0.0
C1262 C 0.92386 0.65981 0.79757 0.0
C1263 C 0.88838 0.67838 0.80883 0.0
C1264 C 0.92458 0.69807 0.8134 0.0
C1265 C 0.90067 0.69793 0.81515 0.0
N1266 N 0.95893 0.67818 0.80255 0.0
C1267 C 0.97186 0.69534 0.81184 0.0
C1268 C 0.9377 0.71627 0.82167 0.0
C1269 C 0.96148 0.7147 0.82123 0.0
Gd1270 Gd 0.02344 0.63619 0.74597 0.0
Gd1271 Gd 0.97517 0.64656 0.78329 0.0
N1272 N 0.93578 0.64127 0.79031 0.0
C1273 C 0.88871 0.63828 0.79659 0.0
C1274 C 0.92507 0.62069 0.78787 0.0
C1275 C 0.9014 0.61893 0.79062 0.0
H1276 H 0.93488 0.60546 0.78445 0.0
H1277 H 0.893 0.6026 0.78845 0.0
H1278 H 0.02015 0.67169 0.7939 0.0
H1279 H 0.99029 0.69415 0.81191 0.0
H1280 H 0.04359 0.6818 0.82603 0.0
H1281 H 0.87041 0.63685 0.79893 0.0
H1282 H 0.87001 0.67816 0.81105 0.0
H1283 H 0.04178 0.58262 0.73097 0.0
H1284 H 0.92967 0.73121 0.82911 0.0
H1285 H 0.97184 0.72835 0.82818 0.0
H1286 H 0.10227 0.62522 0.82685 0.0
H1287 H 0.89162 0.71252 0.82212 0.0
H1288 H 0.09891 0.56507 0.77235 0.0
H1289 H 0.0727 0.55618 0.74073 0.0
N1290 N 0.05035 0.60737 0.75648 0.0
C1291 C 0.06408 0.61206 0.77441 0.0
C1292 C 0.05321 0.5872 0.74469 0.0
C1293 C 0.08536 0.57697 0.76808 0.0
C1294 C 0.07064 0.5719 0.75024 0.0
C1295 C 0.08207 0.59704 0.78057 0.0
H1296 H 0.10996 0.59098 0.80402 0.0
N1297 N 0.04134 0.64485 0.7817 0.0
C1298 C 0.05958 0.63137 0.78729 0.0
C1299 C 0.06777 0.65481 0.82023 0.0
C1300 C 0.07323 0.63607 0.80663 0.0
C1301 C 0.03557 0.66249 0.79591 0.0
C1302 C 0.04862 0.66783 0.81504 0.0
O1303 O 0.96803 0.66706 0.75166 0.0
O1304 O 0.99432 0.65249 0.72626 0.0
O1305 O 0.04694 0.65541 0.72393 0.0
O1306 O 0.03986 0.62068 0.71699 0.0
O1307 O 0.96078 0.62382 0.75601 0.0
O1308 O 0.99168 0.61895 0.73147 0.0
O1309 O 1.01139 0.59936 0.75829 0.0
O1310 O 0.97952 0.60505 0.78078 0.0
O1311 O 0.97693 0.64858 0.8198 0.0
O1312 O 1.00281 0.62923 0.80142 0.0
O1313 O 0.02262 0.67685 0.7501 0.0
O1314 O 0.99036 0.68335 0.77133 0.0
C1315 C 0.97574 0.66444 0.7309 0.0
C1316 C 0.97006 0.61556 0.7373 0.0
C1317 C 0.04199 0.64411 0.6856 0.0
C1318 C 0.05061 0.65742 0.6476 0.0
C1319 C 1.01334 0.64169 0.65568 0.0
C1320 C 0.02008 0.63782 0.67801 0.0
C1321 C 0.02851 0.65158 0.6405 0.0
C1322 C 0.0574 0.65381 0.6702 0.0
C1323 C 0.04867 0.63909 0.70918 0.0
C1324 C 0.09162 0.62169 0.8122 0.0
C1325 C 0.096 0.6022 0.79923 0.0
H1326 H 0.07776 0.65891 0.83519 0.0
C1327 C 0.99475 0.59031 0.77104 0.0
C1328 C 1.00794 0.69202 0.75926 0.0
C1329 C 0.98419 0.61184 0.83344 0.0
C1330 C 0.95263 0.5861 0.84418 0.0
C1331 C 0.99203 0.57717 0.85463 0.0
C1332 C 0.99978 0.59702 0.84386 0.0
C1333 C 0.96875 0.57158 0.85455 0.0
C1334 C 0.9605 0.60651 0.8343 0.0
C1335 C 0.99222 0.63241 0.82089 0.0
H1336 H 0.99647 0.63673 0.65005 0.0
H1337 H 1.00839 0.62938 0.68932 0.0
H1338 H 0.02316 0.65438 0.6231 0.0
H1339 H 0.0745 0.65836 0.67566 0.0
H1340 H 1.00418 0.56575 0.86262 0.0
H1341 H 0.01791 0.60071 0.84353 0.0
H1342 H 0.96335 0.55576 0.86243 0.0
H1343 H 0.94817 0.6179 0.82675 0.0
C1344 C 0.09196 0.20591 0.54003 0.0
C1345 C 0.09806 0.16774 0.52459 0.0
C1346 C 0.10585 0.19023 0.52852 0.0
C1347 C 0.07583 0.16159 0.53105 0.0
C1348 C 0.07039 0.19901 0.54822 0.0
C1349 C 0.06206 0.17716 0.54287 0.0
N1350 N 0.10049 0.22695 0.54534 0.0
C1351 C 0.09025 0.23994 0.56184 0.0
C1352 C 0.05842 0.21374 0.56273 0.0
C1353 C 0.0687 0.23397 0.57009 0.0
Gd1354 Gd 0.14334 0.28337 0.49007 0.0
Gd1355 Gd 0.13583 0.23528 0.52808 0.0
N1356 N 0.12771 0.19626 0.52325 0.0
C1357 C 0.11319 0.15174 0.51524 0.0
C1358 C 0.14292 0.18031 0.51547 0.0
C1359 C 0.1358 0.15794 0.51106 0.0
H1360 H 0.16057 0.18466 0.51269 0.0
H1361 H 0.14781 0.14545 0.50457 0.0
H1362 H 0.1221 0.27181 0.54313 0.0
H1363 H 0.09819 0.25542 0.56787 0.0
H1364 H 0.11696 0.2914 0.57948 0.0
H1365 H 0.10782 0.1343 0.51201 0.0
H1366 H 0.06949 0.14447 0.52789 0.0
H1367 H 0.18993 0.30653 0.46692 0.0
H1368 H 0.04182 0.20905 0.56934 0.0
H1369 H 0.06009 0.24487 0.58224 0.0
H1370 H 0.16273 0.3586 0.57219 0.0
H1371 H 0.04537 0.17175 0.54871 0.0
H1372 H 0.20911 0.36518 0.50574 0.0
H1373 H 0.21425 0.34059 0.47191 0.0
N1374 N 0.16996 0.31287 0.4961 0.0
C1375 C 0.16767 0.32536 0.5153 0.0
C1376 C 0.18688 0.31776 0.48097 0.0
C1377 C 0.19806 0.35054 0.50322 0.0
C1378 C 0.20099 0.33676 0.4841 0.0
C1379 C 0.18158 0.34466 0.51936 0.0
H1380 H 0.18953 0.37194 0.543 0.0
N1381 N 0.14085 0.29805 0.52772 0.0
C1382 C 0.15259 0.31777 0.53162 0.0
C1383 C 0.13736 0.32022 0.56967 0.0
C1384 C 0.15105 0.32944 0.55261 0.0
C1385 C 0.12901 0.28834 0.54502 0.0
C1386 C 0.12667 0.2993 0.566 0.0
O1387 O 0.12722 0.2222 0.49338 0.0
O1388 O 0.11788 0.25678 0.47754 0.0
O1389 O 0.13699 0.31599 0.47221 0.0
O1390 O 0.14046 0.28462 0.45375 0.0
O1391 O 0.16182 0.22401 0.50211 0.0
O1392 O 0.16411 0.25348 0.47571 0.0
O1393 O 0.18159 0.27413 0.4991 0.0
O1394 O 0.17555 0.24942 0.52886 0.0
O1395 O 0.14005 0.21161 0.5554 0.0
O1396 O 0.15093 0.24693 0.56024 0.0
O1397 O 0.10412 0.28638 0.50168 0.0
O1398 O 0.09865 0.25238 0.52014 0.0
C1399 C 0.11909 0.2343 0.47647 0.0
C1400 C 0.16939 0.23264 0.48283 0.0
C1401 C 0.1494 0.31776 0.43335 0.0
C1402 C 0.14682 0.34197 0.39968 0.0
C1403 C 0.18093 0.31932 0.40657 0.0
C1404 C 0.17074 0.30979 0.4257 0.0
C1405 C 0.16909 0.33535 0.39359 0.0
C1406 C 0.13751 0.33388 0.4202 0.0
C1407 C 0.13744 0.30644 0.4523 0.0
C1408 C 0.16391 0.34937 0.55627 0.0
C1409 C 0.17917 0.35696 0.53967 0.0
H1410 H 0.13576 0.32857 0.58602 0.0
C1411 C 0.19052 0.26188 0.51605 0.0
C1412 C 0.08942 0.27148 0.51128 0.0
C1413 C 0.17145 0.21647 0.57936 0.0
C1414 C 0.19306 0.18283 0.59204 0.0
C1415 C 0.20954 0.22092 0.59507 0.0
C1416 C 0.18967 0.23055 0.58594 0.0
C1417 C 0.21136 0.19722 0.5979 0.0
C1418 C 0.17311 0.19263 0.58305 0.0
C1419 C 0.15064 0.22601 0.56855 0.0
H1420 H 0.19749 0.31325 0.40102 0.0
H1421 H 0.17915 0.2955 0.43382 0.0
H1422 H 0.17665 0.34112 0.37785 0.0
H1423 H 0.12032 0.33882 0.42504 0.0
H1424 H 0.22364 0.23186 0.59988 0.0
H1425 H 0.18862 0.24893 0.58389 0.0
H1426 H 0.22695 0.19016 0.60496 0.0
H1427 H 0.15905 0.18151 0.5784 0.0
C1428 C 0.48738 0.42703 0.1865 0.0
C1429 C 0.49613 0.40713 0.15152 0.0
C1430 C 0.49427 0.40731 0.17537 0.0
C1431 C 0.49255 0.42746 0.13929 0.0
C1432 C 0.48188 0.44695 0.17414 0.0
C1433 C 0.48539 0.44734 0.15059 0.0
N1434 N 0.48388 0.42596 0.20919 0.0
C1435 C 0.47237 0.44317 0.22013 0.0
C1436 C 0.47205 0.46547 0.18568 0.0
C1437 C 0.46675 0.46334 0.20868 0.0
Gd1438 Gd 0.53686 0.38648 0.276 0.0
Gd1439 Gd 0.49882 0.39317 0.22732 0.0
N1440 N 0.49716 0.38787 0.1877 0.0
C1441 C 0.50057 0.38631 0.14064 0.0
C1442 C 0.4996 0.36724 0.17704 0.0
C1443 C 0.50177 0.36621 0.15341 0.0
H1444 H 0.5003 0.35157 0.18674 0.0
H1445 H 0.50436 0.34991 0.14506 0.0
H1446 H 0.48473 0.41466 0.26733 0.0
H1447 H 0.4682 0.44157 0.23795 0.0
H1448 H 0.45206 0.42617 0.28964 0.0
H1449 H 0.50216 0.38543 0.12234 0.0
H1450 H 0.49433 0.42776 0.12099 0.0
H1451 H 0.55489 0.33634 0.30023 0.0
H1452 H 0.4676 0.48108 0.1768 0.0
H1453 H 0.45839 0.47721 0.2176 0.0
H1454 H 0.45927 0.38327 0.35813 0.0
H1455 H 0.48173 0.46263 0.14084 0.0
H1456 H 0.51843 0.32716 0.36206 0.0
H1457 H 0.54874 0.31519 0.33545 0.0
N1458 N 0.52911 0.36156 0.30692 0.0
C1459 C 0.51154 0.36747 0.32064 0.0
C1460 C 0.5419 0.34243 0.31178 0.0
C1461 C 0.52122 0.33684 0.34664 0.0
C1462 C 0.53833 0.33004 0.3317 0.0
C1463 C 0.50727 0.35542 0.34101 0.0
H1464 H 0.48544 0.35288 0.37056 0.0
N1465 N 0.50042 0.3944 0.29286 0.0
C1466 C 0.49679 0.38448 0.31348 0.0
C1467 C 0.46163 0.40576 0.31841 0.0
C1468 C 0.47742 0.38998 0.32679 0.0
C1469 C 0.484 0.40864 0.28425 0.0
C1470 C 0.46472 0.41475 0.29682 0.0
O1471 O 0.53195 0.40906 0.21572 0.0
O1472 O 0.55434 0.40617 0.24792 0.0
O1473 O 0.55956 0.40579 0.29874 0.0
O1474 O 0.56836 0.372 0.28833 0.0
O1475 O 0.52481 0.36779 0.21597 0.0
O1476 O 0.55178 0.36878 0.24485 0.0
O1477 O 0.5247 0.34894 0.26833 0.0
O1478 O 0.50007 0.35284 0.23794 0.0
O1479 O 0.46355 0.3955 0.21802 0.0
O1480 O 0.47272 0.37831 0.2496 0.0
O1481 O 0.52943 0.42667 0.27553 0.0
O1482 O 0.50906 0.42999 0.24251 0.0
C1483 C 0.55101 0.41293 0.22688 0.0
C1484 C 0.54481 0.36247 0.22448 0.0
C1485 C 0.59742 0.39854 0.28636 0.0
C1486 C 0.63226 0.42093 0.28802 0.0
C1487 C 0.62423 0.39771 0.25481 0.0
C1488 C 0.60392 0.39057 0.2647 0.0
C1489 C 0.6384 0.41279 0.26638 0.0
C1490 C 0.61166 0.41369 0.29791 0.0
C1491 C 0.57586 0.39085 0.29667 0.0
C1492 C 0.4739 0.37902 0.34767 0.0
C1493 C 0.48878 0.36174 0.35475 0.0
H1494 H 0.44656 0.41038 0.32805 0.0
C1495 C 0.51047 0.33916 0.25357 0.0
C1496 C 0.5199 0.4403 0.25976 0.0
C1497 C 0.44405 0.36148 0.22514 0.0
C1498 C 0.42958 0.33914 0.19274 0.0
C1499 C 0.4244 0.32551 0.23143 0.0
C1500 C 0.43551 0.34488 0.23999 0.0
C1501 C 0.4216 0.32253 0.208 0.0
C1502 C 0.44067 0.35854 0.20147 0.0
C1503 C 0.45694 0.38156 0.23389 0.0
H1504 H 0.62899 0.39156 0.23813 0.0
H1505 H 0.59341 0.37866 0.25538 0.0
H1506 H 0.6541 0.41815 0.25832 0.0
H1507 H 0.60694 0.41922 0.31484 0.0
H1508 H 0.41807 0.31264 0.24301 0.0
H1509 H 0.43776 0.34669 0.25816 0.0
H1510 H 0.41295 0.30738 0.20183 0.0
H1511 H 0.44711 0.37108 0.18957 0.0
C1512 C 0.42386 0.86111 0.05684 0.0
C1513 C 0.39554 0.89117 0.05714 0.0
C1514 C 0.40177 0.86811 0.05353 0.0
C1515 C 0.41235 0.90716 0.06324 0.0
C1516 C 0.4407 0.87677 0.06401 0.0
C1517 C 0.43494 0.89996 0.06668 0.0
N1518 N 0.42854 0.83859 0.0543 0.0
C1519 C 0.44962 0.8303 0.06017 0.0
C1520 C 0.46263 0.86854 0.06879 0.0
C1521 C 0.46699 0.84511 0.06722 0.0
Gd1522 Gd 0.38944 0.77117 0.98971 0.0
Gd1523 Gd 0.40018 0.81537 0.03718 0.0
N1524 N 0.38611 0.852 0.04805 0.0
C1525 C 0.37259 0.89734 0.05487 0.0
C1526 C 0.36348 0.85774 0.04755 0.0
C1527 C 0.35648 0.88047 0.05016 0.0
H1528 H 0.35065 0.84507 0.04451 0.0
H1529 H 0.3386 0.88492 0.04857 0.0
H1530 H 0.41852 0.76115 0.03992 0.0
H1531 H 0.45321 0.81221 0.0597 0.0
H1532 H 0.42166 0.73183 0.06871 0.0
H1533 H 0.36706 0.91488 0.05725 0.0
H1534 H 0.40796 0.92499 0.06584 0.0
H1535 H 0.3408 0.75907 0.96192 0.0
H1536 H 0.47608 0.87998 0.07431 0.0
H1537 H 0.4837 0.83843 0.0715 0.0
H1538 H 0.36144 0.67968 0.05112 0.0
H1539 H 0.44768 0.91232 0.07191 0.0
H1540 H 0.31224 0.6977 0.98878 0.0
H1541 H 0.31133 0.72928 0.96096 0.0
N1542 N 0.35906 0.74444 0.98978 0.0
C1543 C 0.35971 0.72731 1.00521 0.0
C1544 C 0.34189 0.74517 0.97392 0.0
C1545 C 0.32547 0.71064 0.98915 0.0
C1546 C 0.32491 0.7284 0.97342 0.0
C1547 C 0.34291 0.70996 1.00537 0.0
H1548 H 0.33119 0.67918 0.02216 0.0
N1549 N 0.39204 0.74515 0.02106 0.0
C1550 C 0.37674 0.72764 0.02135 0.0
C1551 C 0.39409 0.71181 0.05519 0.0
C1552 C 0.37739 0.71053 0.03833 0.0
C1553 C 0.40772 0.74671 0.03822 0.0
C1554 C 0.40914 0.73016 0.05527 0.0
O1555 O 0.42294 0.83194 1.01099 0.0
O1556 O 0.40785 0.80207 0.99814 0.0
O1557 O 0.40709 0.75026 0.96384 0.0
O1558 O 0.37883 0.77199 0.95515 0.0
O1559 O 0.37645 0.83084 1.01034 0.0
O1560 O 0.37596 0.80669 0.9785 0.0
O1561 O 0.35311 0.77851 1.0051 0.0
O1562 O 0.35921 0.80863 0.03022 0.0
O1563 O 0.40526 0.81002 0.07305 0.0
O1564 O 0.38473 0.78589 0.05381 0.0
O1565 O 0.42994 0.76866 0.99877 0.0
O1566 O 0.43612 0.79536 0.0278 0.0
C1567 C 0.42029 0.81986 0.99302 0.0
C1568 C 0.37104 0.82642 0.98887 0.0
C1569 C 0.40346 0.76371 0.9252 0.0
C1570 C 0.42863 0.75506 0.8937 0.0
C1571 C 0.39994 0.78462 0.88958 0.0
C1572 C 0.39256 0.78043 0.91165 0.0
C1573 C 0.41795 0.77201 0.88061 0.0
C1574 C 0.42154 0.75099 0.91602 0.0
C1575 C 0.39396 0.75784 0.94761 0.0
C1576 C 0.36108 0.69295 0.03829 0.0
C1577 C 0.34386 0.69267 0.02183 0.0
H1578 H 0.39512 0.6991 0.06853 0.0
C1579 C 0.34442 0.79427 0.01908 0.0
C1580 C 0.44482 0.77964 1.01303 0.0
C1581 C 0.3693 0.80141 0.0879 0.0
C1582 C 0.34637 0.83294 0.10315 0.0
C1583 C 0.3306 0.79455 0.10095 0.0
C1584 C 0.35099 0.78641 0.09145 0.0
C1585 C 0.32809 0.81778 0.10634 0.0
C1586 C 0.36702 0.82445 0.09471 0.0
C1587 C 0.38918 0.79467 0.07386 0.0
H1588 H 0.39144 0.79743 0.87932 0.0
H1589 H 0.37815 0.79019 0.91793 0.0
H1590 H 0.42305 0.77487 0.86317 0.0
H1591 H 0.42929 0.73725 0.92572 0.0
H1592 H 0.31641 0.78298 0.10341 0.0
H1593 H 0.35219 0.76869 0.08617 0.0
H1594 H 0.31188 0.82395 0.11278 0.0
H1595 H 0.3808 0.83647 0.0919 0.0
C1596 C 0.94054 0.35031 0.73036 0.0
C1597 C 0.90271 0.36605 0.73618 0.0
C1598 C 0.92666 0.36817 0.73742 0.0
C1599 C 0.89302 0.34517 0.72932 0.0
C1600 C 0.9309 0.33004 0.72159 0.0
C1601 C 0.9071 0.3272 0.72198 0.0
N1602 N 0.96342 0.35375 0.72995 0.0
C1603 C 0.97738 0.3388 0.71846 0.0
C1604 C 0.94539 0.31372 0.71174 0.0
C1605 C 0.96867 0.3184 0.70966 0.0
Gd1606 Gd 0.01794 0.39329 0.79421 0.0
Gd1607 Gd 0.97624 0.38647 0.74997 0.0
N1608 N 0.9366 0.38827 0.74348 0.0
C1609 C 0.88926 0.3853 0.7409 0.0
C1610 C 0.92368 0.40753 0.74614 0.0
C1611 C 0.89981 0.40627 0.74532 0.0
H1612 H 0.93178 0.42387 0.7489 0.0
H1613 H 0.88958 0.42147 0.74799 0.0
H1614 H 0.02708 0.36319 0.7436 0.0
H1615 H 0.99545 0.34236 0.71683 0.0
H1616 H 0.04688 0.36855 0.70824 0.0
H1617 H 0.87079 0.38439 0.74016 0.0
H1618 H 0.87464 0.34307 0.72867 0.0
H1619 H 0.03432 0.43732 0.82644 0.0
H1620 H 0.93864 0.29794 0.70481 0.0
H1621 H 0.97991 0.30631 0.70133 0.0
H1622 H 0.08527 0.43991 0.71676 0.0
H1623 H 0.89938 0.31156 0.71576 0.0
H1624 H 0.07988 0.47899 0.78776 0.0
H1625 H 0.05918 0.47128 0.82346 0.0
N1626 N 0.04111 0.42588 0.79279 0.0
C1627 C 0.0525 0.42957 0.7731 0.0
C1628 C 0.04355 0.44042 0.81088 0.0
C1629 C 0.06909 0.46401 0.78901 0.0
C1630 C 0.05746 0.45972 0.80919 0.0
C1631 C 0.06675 0.4489 0.77069 0.0
H1632 H 0.08926 0.46733 0.74805 0.0
N1633 N 0.03618 0.3953 0.75812 0.0
C1634 C 0.04984 0.41408 0.7553 0.0
C1635 C 0.06045 0.40131 0.71764 0.0
C1636 C 0.06204 0.41762 0.73487 0.0
C1637 C 0.03606 0.37872 0.7417 0.0
C1638 C 0.04769 0.38164 0.72123 0.0
O1639 O 0.96129 0.36769 0.7798 0.0
O1640 O 0.98923 0.37122 0.80735 0.0
O1641 O 0.04979 0.37979 0.80771 0.0
O1642 O 0.02533 0.39512 0.83055 0.0
O1643 O 0.95945 0.40821 0.77663 0.0
O1644 O 0.98407 0.40789 0.80785 0.0
O1645 O 1.00647 0.43156 0.78619 0.0
O1646 O 0.98325 0.42723 0.75486 0.0
O1647 O 0.97284 0.3856 0.71383 0.0
O1648 O 0.99944 0.40677 0.72874 0.0
O1649 O 0.02 0.35339 0.78565 0.0
O1650 O 0.99279 0.35021 0.75838 0.0
C1651 C 0.96927 0.36361 0.80027 0.0
C1652 C 0.96425 0.4131 0.79799 0.0
C1653 C 0.06307 0.38866 0.84489 0.0
C1654 C 0.08318 0.37615 0.87889 0.0
C1655 C 0.09628 0.40952 0.8582 0.0
C1656 C 0.07898 0.40634 0.8421 0.0
C1657 C 0.09833 0.39459 0.87663 0.0
C1658 C 0.06541 0.37351 0.86315 0.0
C1659 C 0.04459 0.38428 0.82862 0.0
C1660 C 0.07595 0.43699 0.73237 0.0
C1661 C 0.07829 0.45258 0.7502 0.0
H1662 H 0.06953 0.40343 0.70177 0.0
C1663 C 0.99452 0.44136 0.7694 0.0
C1664 C 1.00759 0.33977 0.77217 0.0
C1665 C 0.9759 0.42206 0.69862 0.0
C1666 C 0.94098 0.4403 0.68434 0.0
C1667 C 0.97793 0.45822 0.6785 0.0
C1668 C 0.98883 0.44016 0.68988 0.0
C1669 C 0.9541 0.45839 0.67582 0.0
C1670 C 0.95193 0.42231 0.6955 0.0
C1671 C 0.98673 0.4026 0.71073 0.0
H1672 H 0.10842 0.42331 0.85613 0.0
H1673 H 0.07838 0.41737 0.82746 0.0
H1674 H 0.11218 0.39693 0.88863 0.0
H1675 H 0.05356 0.35937 0.86496 0.0
H1676 H 0.98799 0.47211 0.67168 0.0
H1677 H 1.00724 0.4403 0.69182 0.0
H1678 H 0.94598 0.4724 0.66687 0.0
H1679 H 0.94144 0.40839 0.70159 0.0
C1680 C 0.43981 0.21255 0.48791 0.0
C1681 C 0.43846 0.17375 0.50283 0.0
C1682 C 0.42819 0.19538 0.49973 0.0
C1683 C 0.46086 0.16996 0.49518 0.0
C1684 C 0.46149 0.20794 0.47847 0.0
C1685 C 0.4723 0.18697 0.48297 0.0
N1686 N 0.42904 0.23287 0.48371 0.0
C1687 C 0.43692 0.24696 0.46687 0.0
C1688 C 0.4711 0.22399 0.46369 0.0
C1689 C 0.45843 0.2432 0.4573 0.0
Gd1690 Gd 0.38797 0.2831 0.54408 0.0
Gd1691 Gd 0.39408 0.23729 0.50318 0.0
N1692 N 0.4061 0.19909 0.50618 0.0
C1693 C 0.42557 0.15619 0.51263 0.0
C1694 C 0.393 0.18156 0.51423 0.0
C1695 C 0.40264 0.16 0.51796 0.0
H1696 H 0.37518 0.1842 0.51786 0.0
H1697 H 0.39234 0.1463 0.52481 0.0
H1698 H 0.40436 0.27395 0.48934 0.0
H1699 H 0.4271 0.26155 0.46149 0.0
H1700 H 0.40778 0.29586 0.45377 0.0
H1701 H 0.4329 0.13937 0.51533 0.0
H1702 H 0.46911 0.15355 0.49772 0.0
H1703 H 0.34347 0.30607 0.5718 0.0
H1704 H 0.4877 0.22104 0.4561 0.0
H1705 H 0.46516 0.25502 0.44487 0.0
H1706 H 0.3673 0.36514 0.46942 0.0
H1707 H 0.48914 0.18335 0.47622 0.0
H1708 H 0.32469 0.36832 0.53857 0.0
H1709 H 0.31997 0.34116 0.5704 0.0
N1710 N 0.36221 0.31396 0.5421 0.0
C1711 C 0.3641 0.32787 0.52386 0.0
C1712 C 0.34597 0.31805 0.55824 0.0
C1713 C 0.33524 0.35308 0.53935 0.0
C1714 C 0.3325 0.3378 0.55732 0.0
C1715 C 0.35079 0.34796 0.52205 0.0
H1716 H 0.34288 0.3774 0.50111 0.0
N1717 N 0.38889 0.30043 0.50774 0.0
C1718 C 0.37795 0.32095 0.50613 0.0
C1719 C 0.39044 0.32521 0.4673 0.0
C1720 C 0.37867 0.33401 0.48597 0.0
C1721 C 0.39845 0.29106 0.48891 0.0
C1722 C 0.39985 0.30335 0.46859 0.0
O1723 O 0.40374 0.22262 0.53667 0.0
O1724 O 0.41464 0.25629 0.55325 0.0
O1725 O 0.3927 0.31355 0.56577 0.0
O1726 O 0.39685 0.27978 0.57932 0.0
O1727 O 0.3702 0.22372 0.53058 0.0
O1728 O 0.36721 0.25308 0.55712 0.0
O1729 O 0.34935 0.27391 0.53592 0.0
O1730 O 0.35475 0.25188 0.50393 0.0
O1731 O 0.39003 0.21342 0.47632 0.0
O1732 O 0.37651 0.24783 0.47165 0.0
O1733 O 0.42624 0.28773 0.53057 0.0
O1734 O 0.43104 0.25481 0.51012 0.0
C1735 C 0.41361 0.23384 0.55314 0.0
C1736 C 0.36275 0.23202 0.55021 0.0
C1737 C 0.38491 0.30727 0.60525 0.0
C1738 C 0.38812 0.32296 0.64356 0.0
C1739 C 0.35548 0.29946 0.63319 0.0
C1740 C 0.36459 0.29623 0.61158 0.0
C1741 C 0.36717 0.31263 0.64915 0.0
C1742 C 0.39653 0.3207 0.62126 0.0
C1743 C 0.39643 0.30139 0.58384 0.0
C1744 C 0.36666 0.35479 0.48466 0.0
C1745 C 0.35273 0.36176 0.50268 0.0
H1746 H 0.39131 0.3346 0.45148 0.0
C1747 C 0.34006 0.26294 0.5182 0.0
C1748 C 0.44055 0.27334 0.5197 0.0
C1749 C 0.35935 0.21595 0.45121 0.0
C1750 C 0.34271 0.1808 0.43603 0.0
C1751 C 0.32462 0.21747 0.42863 0.0
C1752 C 0.34172 0.22865 0.44105 0.0
C1753 C 0.32502 0.19362 0.42619 0.0
C1754 C 0.35976 0.19199 0.44832 0.0
C1755 C 0.37857 0.22708 0.46318 0.0
H1756 H 0.33981 0.2909 0.63791 0.0
H1757 H 0.35622 0.28436 0.60019 0.0
H1758 H 0.36034 0.31376 0.66618 0.0
H1759 H 0.41267 0.32846 0.61665 0.0
H1760 H 0.3111 0.22732 0.42075 0.0
H1761 H 0.34128 0.24712 0.4425 0.0
H1762 H 0.31176 0.18524 0.41643 0.0
H1763 H 0.37349 0.18179 0.45549 0.0
C1764 C 0.57883 0.68852 0.23945 0.0
C1765 C 0.61651 0.68799 0.25715 0.0
C1766 C 0.59517 0.67749 0.25312 0.0
C1767 C 0.62095 0.70978 0.24822 0.0
C1768 C 0.58406 0.70973 0.22928 0.0
C1769 C 0.60483 0.72057 0.2343 0.0
N1770 N 0.55861 0.67791 0.23478 0.0
C1771 C 0.54491 0.68561 0.21753 0.0
C1772 C 0.5687 0.71901 0.21351 0.0
C1773 C 0.54935 0.70662 0.20719 0.0
Gd1774 Gd 0.501 0.63417 0.2948 0.0
Gd1775 Gd 0.55366 0.64345 0.25443 0.0
N1776 N 0.59088 0.65609 0.26127 0.0
C1777 C 0.63314 0.67598 0.26946 0.0
C1778 C 0.6075 0.64384 0.2721 0.0
C1779 C 0.62872 0.65369 0.27668 0.0
H1780 H 0.60427 0.62658 0.27724 0.0
H1781 H 0.6417 0.64406 0.28565 0.0
H1782 H 0.51613 0.64906 0.24221 0.0
H1783 H 0.53 0.67607 0.2126 0.0
H1784 H 0.49854 0.65484 0.20432 0.0
H1785 H 0.64969 0.6835 0.27289 0.0
H1786 H 0.63716 0.71813 0.25137 0.0
H1787 H 0.46779 0.59457 0.32078 0.0
H1788 H 0.57215 0.73526 0.20537 0.0
H1789 H 0.53789 0.71321 0.19432 0.0
H1790 H 0.42273 0.62609 0.21337 0.0
H1791 H 0.60892 0.73701 0.22688 0.0
H1792 H 0.40691 0.58563 0.28206 0.0
H1793 H 0.43014 0.5772 0.3161 0.0
N1794 N 0.46585 0.61454 0.29043 0.0
C1795 C 0.45389 0.61826 0.27111 0.0
C1796 C 0.45781 0.59931 0.30615 0.0
C1797 C 0.42337 0.59382 0.28423 0.0
C1798 C 0.43642 0.58903 0.30345 0.0
C1799 C 0.43226 0.60819 0.2675 0.0
H1800 H 0.40404 0.60446 0.24391 0.0
N1801 N 0.48612 0.63749 0.25755 0.0
C1802 C 0.46439 0.63026 0.25405 0.0
C1803 C 0.4658 0.64256 0.21497 0.0
C1804 C 0.45355 0.63272 0.23275 0.0
C1805 C 0.49853 0.64548 0.23982 0.0
C1806 C 0.4886 0.64845 0.21838 0.0
O1807 O 0.56513 0.65368 0.28922 0.0
O1808 O 0.52892 0.6603 0.30454 0.0
O1809 O 0.47745 0.65339 0.31657 0.0
O1810 O 0.49422 0.62299 0.32892 0.0
O1811 O 0.54182 0.624 0.28321 0.0
O1812 O 0.52762 0.61211 0.31317 0.0
O1813 O 0.50769 0.59731 0.27849 0.0
O1814 O 0.53992 0.60338 0.25567 0.0
O1815 O 0.57995 0.62717 0.23542 0.0
O1816 O 0.54561 0.63277 0.2196 0.0
O1817 O 0.5022 0.6741 0.28345 0.0
O1818 O 0.53356 0.67948 0.2597 0.0
C1819 C 0.55141 0.66344 0.30409 0.0
C1820 C 0.54625 0.61282 0.30187 0.0
C1821 C 0.49587 0.65456 0.35247 0.0
C1822 C 0.49613 0.6793 0.38529 0.0
C1823 C 0.53174 0.66415 0.37141 0.0
C1824 C 0.51982 0.6527 0.35446 0.0
C1825 C 0.51995 0.67773 0.38672 0.0
C1826 C 0.48399 0.66787 0.36816 0.0
C1827 C 0.48394 0.64185 0.3344 0.0
C1828 C 0.43138 0.62415 0.22953 0.0
C1829 C 0.42075 0.61184 0.2469 0.0
H1830 H 0.45821 0.64463 0.19831 0.0
C1831 C 0.52375 0.58867 0.26447 0.0
C1832 C 0.51571 0.68851 0.2712 0.0
C1833 C 0.57601 0.61546 0.19639 0.0
C1834 C 0.60942 0.60339 0.17502 0.0
C1835 C 0.57256 0.60624 0.15634 0.0
C1836 C 0.56255 0.61326 0.17677 0.0
C1837 C 0.596 0.60155 0.15536 0.0
C1838 C 0.59932 0.61013 0.1954 0.0
C1839 C 0.56688 0.62567 0.21728 0.0
H1840 H 0.55007 0.66223 0.37284 0.0
H1841 H 0.52941 0.6422 0.34299 0.0
H1842 H 0.52925 0.68623 0.40022 0.0
H1843 H 0.4655 0.66888 0.36745 0.0
H1844 H 0.56219 0.60473 0.14119 0.0
H1845 H 0.54452 0.61748 0.17707 0.0
H1846 H 0.60358 0.59627 0.13942 0.0
H1847 H 0.61 0.61196 0.21035 0.0
C1848 C 0.1224 0.86209 0.98278 0.0
C1849 C 0.15208 0.89017 0.98766 0.0
C1850 C 0.14459 0.86723 0.98777 0.0
C1851 C 0.13618 0.90785 0.98409 0.0
C1852 C 0.10655 0.87957 0.97768 0.0
C1853 C 0.11338 0.90254 0.97912 0.0
N1854 N 0.11685 0.83975 0.98108 0.0
C1855 C 0.09587 0.83365 0.97275 0.0
C1856 C 0.08464 0.87337 0.97053 0.0
C1857 C 0.07943 0.85027 0.96762 0.0
Gd1858 Gd 0.14635 0.76584 0.03787 0.0
Gd1859 Gd 0.14273 0.81253 0.99643 0.0
N1860 N 0.15924 0.84953 0.99072 0.0
C1861 C 0.17538 0.89455 0.99025 0.0
C1862 C 0.18226 0.8538 0.99149 0.0
C1863 C 0.19057 0.87623 0.99168 0.0
H1864 H 0.19463 0.84024 0.99227 0.0
H1865 H 0.20875 0.87935 0.9929 0.0
H1866 H 0.11764 0.75947 0.98611 0.0
H1867 H 0.0916 0.81593 0.96992 0.0
H1868 H 0.12162 0.73749 0.9517 0.0
H1869 H 0.18188 0.91189 0.99026 0.0
H1870 H 0.14151 0.92559 0.98433 0.0
H1871 H 0.19013 0.74897 0.07039 0.0
H1872 H 0.07193 0.88624 0.96647 0.0
H1873 H 0.06277 0.84524 0.9614 0.0
H1874 H 0.18962 0.69378 0.96249 0.0
H1875 H 0.10139 0.91625 0.97563 0.0
H1876 H 0.22895 0.69942 0.03331 0.0
H1877 H 0.22261 0.72201 0.06822 0.0
N1878 N 0.17835 0.74175 0.03692 0.0
C1879 C 0.18123 0.72927 0.01768 0.0
C1880 C 0.19271 0.73904 0.05512 0.0
C1881 C 0.21464 0.71118 0.03418 0.0
C1882 C 0.21115 0.7239 0.05391 0.0
C1883 C 0.19962 0.71368 1.01582 0.0
H1884 H 0.21663 0.68916 0.99403 0.0
N1885 N 0.14803 0.74718 1.00196 0.0
C1886 C 0.16589 0.73218 0.99975 0.0
C1887 C 0.15282 0.72131 0.96224 0.0
C1888 C 0.16878 0.71909 0.97972 0.0
C1889 C 0.13191 0.74834 0.98513 0.0
C1890 C 0.13423 0.73583 0.96506 0.0
O1891 O 0.11716 0.81957 0.02408 0.0
O1892 O 0.12578 0.7945 0.05316 0.0
O1893 O 0.13088 0.73422 0.04949 0.0
O1894 O 0.14763 0.75635 0.07361 0.0
O1895 O 0.16202 0.82624 0.02606 0.0
O1896 O 0.16047 0.79865 0.05461 0.0
O1897 O 0.18474 0.77567 0.02957 0.0
O1898 O 0.18284 0.80484 1.00352 0.0
O1899 O 0.13718 0.80866 0.96041 0.0
O1900 O 0.1598 0.78515 0.97796 0.0
O1901 O 0.10695 0.76611 0.02711 0.0
O1902 O 0.10532 0.79576 1.00171 0.0
C1903 C 0.11512 0.81259 0.04518 0.0
C1904 C 0.16589 0.81935 0.04693 0.0
C1905 C 0.14205 0.71772 0.08457 0.0
C1906 C 0.13341 0.69613 0.11866 0.0
C1907 C 0.16175 0.68195 0.09212 0.0
C1908 C 0.15758 0.70068 0.07788 0.0
C1909 C 0.14972 0.67964 0.11253 0.0
C1910 C 0.1301 0.71531 0.10489 0.0
C1911 C 0.13631 0.73758 0.07055 0.0
C1912 C 0.18722 0.70381 0.97779 0.0
C1913 C 0.20257 0.70112 0.99576 0.0
H1914 H 0.1545 0.71161 0.94664 0.0
C1915 C 0.19572 0.79055 1.0163 0.0
C1916 C 0.09415 0.7796 1.01374 0.0
C1917 C 0.17259 0.80185 0.94355 0.0
C1918 C 0.19409 0.83365 0.92727 0.0
C1919 C 0.20787 0.79464 0.92316 0.0
C1920 C 0.18905 0.78649 0.93537 0.0
C1921 C 0.21054 0.81814 0.91932 0.0
C1922 C 0.17515 0.82544 0.9391 0.0
C1923 C 0.15387 0.79406 0.95842 0.0
H1924 H 0.17384 0.66889 0.08704 0.0
H1925 H 0.16611 0.70157 0.06166 0.0
H1926 H 0.15243 0.66464 0.12297 0.0
H1927 H 0.11753 0.72811 0.10968 0.0
H1928 H 0.22063 0.78275 0.91699 0.0
H1929 H 0.18755 0.76834 0.93876 0.0
H1930 H 0.22542 0.82421 0.91024 0.0
H1931 H 0.16279 0.8377 0.94542 0.0
C1932 C 0.6965 0.04114 0.58966 0.0
C1933 C 0.657 0.02997 0.59558 0.0
C1934 C 0.67984 0.03105 0.60319 0.0
C1935 C 0.65141 0.03791 0.57377 0.0
C1936 C 0.69042 0.05106 0.56868 0.0
C1937 C 0.66806 0.04854 0.56039 0.0
N1938 N 0.71798 0.0436 0.59818 0.0
C1939 C 0.73279 0.05886 0.58854 0.0
C1940 C 0.70656 0.06449 0.55734 0.0
C1941 C 0.72756 0.06899 0.56768 0.0
Gd1942 Gd 0.76923 0.98245 0.64146 0.0
Gd1943 Gd 0.72483 0.02404 0.63244 0.0
N1944 N 0.6855 0.02452 0.62465 0.0
C1945 C 0.64024 0.02198 0.61051 0.0
C1946 C 0.66898 0.01833 0.63975 0.0
C1947 C 0.6462 0.01657 0.63282 0.0
H1948 H 0.67321 1.01501 0.65719 0.0
H1949 H 0.6332 1.01131 0.64475 0.0
H1950 H 0.7662 0.03505 0.61586 0.0
H1951 H 0.74887 0.06273 0.59659 0.0
H1952 H 0.78956 0.06929 0.61152 0.0
H1953 H 0.62252 0.02088 0.60529 0.0
H1954 H 0.63401 0.03693 0.56754 0.0
H1955 H 0.78844 0.95679 0.68782 0.0
H1956 H 0.70251 0.07247 0.54123 0.0
H1957 H 0.7397 0.08031 0.55962 0.0
H1958 H 0.85121 0.05752 0.66362 0.0
H1959 H 0.6632 0.05567 0.54412 0.0
H1960 H 0.84898 0.99072 0.7105 0.0
H1961 H 0.82152 0.95876 0.71393 0.0
N1962 N 0.79823 0.98571 0.66879 0.0
C1963 C 0.81242 1.00385 0.66723 0.0
C1964 C 0.801 0.96994 0.68561 0.0
C1965 C 0.8348 0.98949 0.69872 0.0
C1966 C 0.8194 0.9714 0.70068 0.0
C1967 C 0.83121 1.00622 0.68212 0.0
H1968 H 0.85998 0.0275 0.69152 0.0
N1969 N 0.7883 0.01827 0.63845 0.0
C1970 C 0.80735 0.02066 0.65157 0.0
C1971 C 0.81494 0.05784 0.63533 0.0
C1972 C 0.82116 0.04044 0.65033 0.0
C1973 C 0.78186 0.03575 0.62463 0.0
C1974 C 0.79501 0.05559 0.62263 0.0
O1975 O 0.70929 0.98962 0.62293 0.0
O1976 O 0.7433 0.97217 0.61508 0.0
O1977 O 0.79987 0.96183 0.63395 0.0
O1978 O 0.7678 0.94573 0.64223 0.0
O1979 O 0.71119 0.99919 0.65793 0.0
O1980 O 0.73776 0.96982 0.66063 0.0
O1981 O 0.7606 0.99411 0.67894 0.0
O1982 O 0.7357 0.02389 0.67307 0.0
O1983 O 0.70634 0.0552 0.63784 0.0
O1984 O 0.74262 0.05326 0.64734 0.0
O1985 O 0.77155 0.99087 0.60143 0.0
O1986 O 0.74105 1.01478 0.59532 0.0
C1987 C 0.72092 0.97197 0.61515 0.0
C1988 C 0.7177 0.97899 0.66549 0.0
C1989 C 0.80041 0.92248 0.64617 0.0
C1990 C 0.82162 0.8875 0.63824 0.0
C1991 C 0.80351 0.89282 0.6749 0.0
C1992 C 0.79451 0.91365 0.66757 0.0
C1993 C 0.81694 0.87971 0.66031 0.0
C1994 C 0.81412 0.90936 0.63168 0.0
C1995 C 0.78893 0.94267 0.63657 0.0
C1996 C 0.84039 0.04253 0.66448 0.0
C1997 C 0.8454 0.02545 0.68036 0.0
H1998 H 0.82501 0.07331 0.63391 0.0
C1999 C 0.74863 1.01137 0.68792 0.0
C2000 C 0.75837 1.00245 0.58639 0.0
C2001 C 0.7169 0.07524 0.67085 0.0
C2002 C 0.68769 0.08554 0.69894 0.0
C2003 C 0.72788 0.09304 0.70648 0.0
C2004 C 0.73383 0.08382 0.68541 0.0
C2005 C 0.70503 0.09377 0.71329 0.0
C2006 C 0.69372 0.07652 0.67766 0.0
C2007 C 0.72325 0.0649 0.6487 0.0
H2008 H 0.79897 0.8862 0.69143 0.0
H2009 H 0.78207 0.92205 0.6782 0.0
H2010 H 0.82233 0.86286 0.66578 0.0
H2011 H 0.81758 0.91547 0.61465 0.0
H2012 H 0.74107 0.09952 0.71766 0.0
H2013 H 0.75167 0.08326 0.68057 0.0
H2014 H 0.70087 0.10087 0.72977 0.0
H2015 H 0.68031 0.06999 0.66675 0.0
C2016 C 0.74922 0.93099 0.34938 0.0
C2017 C 0.76188 0.89607 0.36753 0.0
C2018 C 0.75849 0.91995 0.36799 0.0
C2019 C 0.75728 0.88381 0.3475 0.0
C2020 C 0.74272 0.9185 0.32993 0.0
C2021 C 0.74765 0.89501 0.32873 0.0
N2022 N 0.74418 0.95352 0.35139 0.0
C2023 C 0.73014 0.96392 0.33587 0.0
C2024 C 0.73034 0.92971 0.31288 0.0
C2025 C 0.72353 0.95239 0.31614 0.0
Gd2026 Gd 0.79183 0.02436 0.3901 0.0
Gd2027 Gd 0.75952 0.97224 0.3835 0.0
N2028 N 0.76193 0.93222 0.38728 0.0
C2029 C 0.76872 0.88511 0.38753 0.0
C2030 C 0.76671 0.92138 0.40723 0.0
C2031 C 0.77065 0.89776 0.40758 0.0
H2032 H 0.76754 0.93091 0.42291 0.0
H2033 H 0.77499 0.8893 0.42334 0.0
H2034 H 0.74003 0.01922 0.36146 0.0
H2035 H 0.7246 0.9814 0.33847 0.0
H2036 H 0.70265 0.03726 0.36235 0.0
H2037 H 0.77154 0.86679 0.3879 0.0
H2038 H 0.76011 0.86551 0.3467 0.0
H2039 H 0.81931 0.04488 0.43528 0.0
H2040 H 0.72501 0.92072 0.29768 0.0
H2041 H 0.71312 0.96095 0.30353 0.0
H2042 H 0.70561 0.08775 0.42608 0.0
H2043 H 0.74317 0.88517 0.31378 0.0
H2044 H 0.77452 0.09143 0.46958 0.0
H2045 H 0.81205 0.07216 0.46663 0.0
N2046 N 0.78611 0.04865 0.42103 0.0
C2047 C 0.76536 0.05899 0.42222 0.0
C2048 C 0.80288 0.05327 0.43655 0.0
C2049 C 0.77761 0.07949 0.45584 0.0
C2050 C 0.79881 0.06862 0.45428 0.0
C2051 C 0.76059 0.07475 0.43977 0.0
H2052 H 0.73505 0.09727 0.45424 0.0
N2053 N 0.75342 0.03739 0.38984 0.0
C2054 C 0.74861 0.0532 0.40633 0.0
C2055 C 0.71028 0.05789 0.39158 0.0
C2056 C 0.72686 0.06367 0.40765 0.0
C2057 C 0.73716 0.03204 0.37403 0.0
C2058 C 0.71546 0.04201 0.37474 0.0
O2059 O 0.79374 0.96413 0.36726 0.0
O2060 O 0.8116 0.9993 0.36829 0.0
O2061 O 0.80093 0.05813 0.37725 0.0
O2062 O 0.82679 0.03679 0.39259 0.0
O2063 O 0.78792 0.96399 0.40757 0.0
O2064 O 0.81255 0.99513 0.40638 0.0
O2065 O 0.78036 1.01418 0.42749 0.0
O2066 O 0.7612 0.97996 0.42438 0.0
O2067 O 0.72559 0.9587 0.3847 0.0
O2068 O 0.73217 0.9929 0.3984 0.0
O2069 O 0.78117 0.02488 0.35107 0.0
O2070 O 0.76554 0.98951 0.3465 0.0
C2071 C 0.81119 0.97752 0.36252 0.0
C2072 C 0.8075 0.97387 0.41244 0.0
C2073 C 0.83625 0.07599 0.38749 0.0
C2074 C 0.87033 0.0982 0.37898 0.0
C2075 C 0.84438 0.11069 0.40861 0.0
C2076 C 0.83 0.09214 0.40398 0.0
C2077 C 0.86456 0.11369 0.39624 0.0
C2078 C 0.85629 0.07923 0.37496 0.0
C2079 C 0.82242 0.05578 0.38213 0.0
C2080 C 0.72222 0.07961 0.42491 0.0
C2081 C 0.73899 0.08508 0.44093 0.0
H2082 H 0.6934 0.06553 0.39207 0.0
C2083 C 0.76911 0.99721 0.43782 0.0
C2084 C 0.7732 1.00887 0.3368 0.0
C2085 C 0.70579 0.96792 0.41797 0.0
C2086 C 0.69411 0.93736 0.44416 0.0
C2087 C 0.68131 0.97655 0.45009 0.0
C2088 C 0.69322 0.98371 0.43081 0.0
C2089 C 0.68182 0.9536 0.4568 0.0
C2090 C 0.70606 0.9446 0.42477 0.0
C2091 C 0.71786 0.9755 0.39711 0.0
H2092 H 0.83963 0.12303 0.42149 0.0
H2093 H 0.81405 0.09067 0.41302 0.0
H2094 H 0.87516 0.12851 0.39952 0.0
H2095 H 0.8608 0.06715 0.36169 0.0
H2096 H 0.67167 0.98887 0.45993 0.0
H2097 H 0.69255 1.00155 0.42588 0.0
H2098 H 0.67262 0.94849 0.4719 0.0
H2099 H 0.71573 0.93202 0.41526 0.0
C2100 C 0.72746 0.10347 0.17019 0.0
C2101 C 0.73089 0.13623 0.14545 0.0
C2102 C 0.73322 0.11255 0.14942 0.0
C2103 C 0.72405 0.15071 0.16326 0.0
C2104 C 0.71922 0.11768 0.18774 0.0
C2105 C 0.71823 0.14144 0.1844 0.0
N2106 N 0.72825 0.08047 0.17259 0.0
C2107 C 0.71923 0.07037 0.19149 0.0
C2108 C 0.71146 0.10749 0.20778 0.0
C2109 C 0.71104 0.08369 0.20946 0.0
Gd2110 Gd 0.79426 1.01399 0.13463 0.0
Gd2111 Gd 0.74649 0.05955 0.14347 0.0
N2112 N 0.73947 0.09794 0.13262 0.0
C2113 C 0.73474 0.1445 0.12352 0.0
C2114 C 0.7419 0.10579 0.1109 0.0
C2115 C 0.73985 0.12914 0.10609 0.0
H2116 H 0.7456 0.09411 0.09717 0.0
H2117 H 0.74218 0.13526 0.08892 0.0
H2118 H 0.74193 1.00505 0.15992 0.0
H2119 H 0.718 0.05199 0.19274 0.0
H2120 H 0.71289 0.97535 0.16136 0.0
H2121 H 0.73308 0.16256 0.11974 0.0
H2122 H 0.7225 0.16899 0.16065 0.0
H2123 H 0.82376 1.00384 0.0879 0.0
H2124 H 0.70498 0.11779 0.22166 0.0
H2125 H 0.70427 0.07557 0.22451 0.0
H2126 H 0.7361 0.92156 0.1045 0.0
H2127 H 0.71228 0.15269 0.19778 0.0
H2128 H 0.80147 0.94026 0.05933 0.0
H2129 H 0.82806 0.97315 0.05916 0.0
N2130 N 0.79608 0.98788 0.10452 0.0
C2131 C 0.78108 0.9703 0.10466 0.0
C2132 C 0.8127 0.98916 0.08839 0.0
C2133 C 0.79982 0.95351 0.0721 0.0
C2134 C 0.81487 0.97202 0.07196 0.0
C2135 C 0.78248 0.9526 0.08842 0.0
H2136 H 0.76727 0.92099 0.07654 0.0
N2137 N 0.76265 0.98843 0.13534 0.0
C2138 C 0.76375 0.9706 0.12052 0.0
C2139 C 0.72884 0.95471 0.13562 0.0
C2140 C 0.74703 0.95319 0.12038 0.0
C2141 C 0.74427 0.99035 0.14947 0.0
C2142 C 0.72729 0.97357 0.14999 0.0
O2143 O 0.7739 0.07523 0.1662 0.0
O2144 O 0.78291 0.04419 0.15116 0.0
O2145 O 0.81828 0.98852 0.14829 0.0
O2146 O 0.8305 0.02088 0.13606 0.0
O2147 O 0.77454 0.07346 0.12047 0.0
O2148 O 0.80608 0.04834 0.11931 0.0
O2149 O 0.78087 0.02294 0.09769 0.0
O2150 O 0.75328 0.05161 0.10256 0.0
O2151 O 0.70971 0.0604 0.14375 0.0
O2152 O 0.72735 0.03134 0.12838 0.0
O2153 O 0.78236 1.0114 0.17414 0.0
O2154 O 0.75384 0.03901 0.17969 0.0
C2155 C 0.79027 0.06086 0.16388 0.0
C2156 C 0.79583 0.06823 0.11474 0.0
C2157 C 0.85704 0.9903 0.13526 0.0
C2158 C 0.89148 0.96743 0.1421 0.0
C2159 C 0.8864 0.98736 0.10625 0.0
C2160 C 0.86579 0.99646 0.11392 0.0
C2161 C 0.89921 0.97297 0.1202 0.0
C2162 C 0.87004 0.97579 0.1493 0.0
C2163 C 0.83611 1.00113 0.14437 0.0
C2164 C 0.74868 0.93514 0.1047 0.0
C2165 C 0.7664 0.93483 0.08877 0.0
H2166 H 0.71562 0.94177 0.13601 0.0
C2167 C 0.76564 0.0375 0.08835 0.0
C2168 C 0.76818 0.0229 0.18866 0.0
C2169 C 0.69727 0.04961 0.10757 0.0
C2170 C 0.68744 0.07938 0.07981 0.0
C2171 C 0.68375 0.03903 0.07008 0.0
C2172 C 0.69164 0.03275 0.09162 0.0
C2173 C 0.68199 0.06214 0.06406 0.0
C2174 C 0.69439 0.07292 0.10166 0.0
C2175 C 0.70836 0.04346 0.12939 0.0
H2176 H 0.89291 0.99218 0.08976 0.0
H2177 H 0.85724 1.00896 0.10344 0.0
H2178 H 0.9157 0.9671 0.11422 0.0
H2179 H 0.8638 0.97167 0.16612 0.0
H2180 H 0.67956 0.02594 0.05777 0.0
H2181 H 0.69379 1.0148 0.09566 0.0
H2182 H 0.6764 0.06653 0.04707 0.0
H2183 H 0.69856 0.08624 0.11371 0.0
C2184 C 0.79449 0.09272 0.84664 0.0
C2185 C 0.78839 0.13184 0.85893 0.0
C2186 C 0.78687 0.10812 0.86291 0.0
C2187 C 0.79641 0.13977 0.83789 0.0
C2188 C 0.80447 0.10067 0.82636 0.0
C2189 C 0.80452 0.12421 0.82166 0.0
N2190 N 0.79447 0.07012 0.8518 0.0
C2191 C 0.80722 0.05506 0.83924 0.0
C2192 C 0.81524 0.08484 0.81205 0.0
C2193 C 0.8172 0.06204 0.81885 0.0
Gd2194 Gd 0.73023 0.01822 0.89067 0.0
Gd2195 Gd 0.77389 0.06021 0.88471 0.0
N2196 N 0.77998 0.0999 0.88336 0.0
C2197 C 0.7827 0.14688 0.87655 0.0
C2198 C 0.7759 0.11446 0.90105 0.0
C2199 C 0.77687 0.13814 0.89782 0.0
H2200 H 0.77189 0.10795 0.9177 0.0
H2201 H 0.77319 0.14963 0.91177 0.0
H2202 H 0.78303 1.01604 0.86403 0.0
H2203 H 0.80886 0.03744 0.84449 0.0
H2204 H 0.81508 0.98993 0.86056 0.0
H2205 H 0.7836 0.16523 0.87416 0.0
H2206 H 0.79736 0.15794 0.8344 0.0
H2207 H 0.70252 1.00137 0.93655 0.0
H2208 H 0.82311 0.09026 0.79632 0.0
H2209 H 0.8264 0.04986 0.80844 0.0
H2210 H 0.79929 0.93131 0.91479 0.0
H2211 H 0.81169 0.13061 0.80597 0.0
H2212 H 0.73238 0.93916 0.96077 0.0
H2213 H 0.70202 0.96861 0.96309 0.0
N2214 N 0.73146 0.98965 0.91853 0.0
C2215 C 0.74867 0.97425 0.91746 0.0
C2216 C 0.71507 0.98802 0.93489 0.0
C2217 C 0.73229 0.95327 0.94885 0.0
C2218 C 0.71511 0.96979 0.95019 0.0
C2219 C 0.74954 0.95553 0.93258 0.0
H2220 H 0.76862 0.92537 0.9426 0.0
N2221 N 0.76482 0.99656 0.88814 0.0
C2222 C 0.76589 0.97777 0.90182 0.0
C2223 C 0.80216 0.96661 0.88557 0.0
C2224 C 0.78452 0.96234 0.90088 0.0
C2225 C 0.78244 1.00081 0.87362 0.0
C2226 C 0.80121 0.98607 0.87206 0.0
O2227 O 0.74123 0.07803 0.87405 0.0
O2228 O 0.72241 0.04529 0.86476 0.0
O2229 O 0.70953 0.98865 0.88037 0.0
O2230 O 0.69344 0.01944 0.89239 0.0
O2231 O 0.74852 0.07566 0.90863 0.0
O2232 O 0.71806 0.05029 0.91068 0.0
O2233 O 0.74182 0.02588 0.92862 0.0
O2234 O 0.77061 0.05236 0.92573 0.0
O2235 O 0.80931 0.06825 0.88858 0.0
O2236 O 0.79622 0.03577 0.90203 0.0
O2237 O 0.73965 1.01556 0.8504 0.0
O2238 O 0.76419 0.0457 0.84725 0.0
C2239 C 0.72306 0.0676 0.86605 0.0
C2240 C 0.72804 0.07002 0.91595 0.0
C2241 C 0.67137 0.98567 0.89468 0.0
C2242 C 0.64124 0.95749 0.88898 0.0
C2243 C 0.64238 0.97995 0.92363 0.0
C2244 C 0.66125 0.99188 0.91546 0.0
C2245 C 0.6324 0.96281 0.91051 0.0
C2246 C 0.66115 0.96852 0.88147 0.0
C2247 C 0.69034 0.99889 0.88481 0.0
C2248 C 0.78517 0.94332 0.91542 0.0
C2249 C 0.76772 0.93992 0.93125 0.0
H2250 H 0.81677 0.95526 0.88438 0.0
C2251 C 0.75758 0.03865 0.93924 0.0
C2252 C 0.75223 0.02912 0.83658 0.0
C2253 C 0.82289 0.05766 0.92439 0.0
C2254 C 0.83245 0.08766 0.95194 0.0
C2255 C 0.83887 0.04756 0.96108 0.0
C2256 C 0.83043 0.04103 0.9398 0.0
C2257 C 0.83965 0.07069 0.96724 0.0
C2258 C 0.82428 0.08104 0.93057 0.0
C2259 C 0.81294 0.05097 0.9022 0.0
H2260 H 0.63484 0.98471 0.93973 0.0
H2261 H 0.66734 1.00636 0.92511 0.0
H2262 H 0.61692 0.95475 0.9166 0.0
H2263 H 0.66799 0.9646 0.86482 0.0
H2264 H 0.84452 0.03464 0.97297 0.0
H2265 H 0.82958 0.02303 0.93548 0.0
H2266 H 0.84596 0.07533 0.98391 0.0
H2267 H 0.81843 0.09426 0.91907 0.0
C2268 C 0.60143 0.69272 0.04124 0.0
C2269 C 0.61261 0.65477 0.0286 0.0
C2270 C 0.6172 0.67836 0.03074 0.0
C2271 C 0.59144 0.64613 0.03576 0.0
C2272 C 0.58106 0.68364 0.05027 0.0
C2273 C 0.57571 0.66053 0.04661 0.0
N2274 N 0.60734 0.71488 0.0451 0.0
C2275 C 0.59553 0.72762 0.06073 0.0
C2276 C 0.56739 0.69766 0.06397 0.0
C2277 C 0.575 0.71953 0.06974 0.0
Gd2278 Gd 0.64602 0.77547 0.99036 0.0
Gd2279 Gd 0.64087 0.72702 0.02642 0.0
N2280 N 0.63795 0.687 0.02485 0.0
C2281 C 0.62987 0.64037 0.0204 0.0
C2282 C 0.6553 0.67281 0.01831 0.0
C2283 C 0.65142 0.64937 1.01567 0.0
H2284 H 0.67221 0.67944 1.01518 0.0
H2285 H 0.66511 0.63822 1.01014 0.0
H2286 H 0.62478 0.7659 0.04433 0.0
H2287 H 0.60142 0.74443 0.06552 0.0
H2288 H 0.62022 0.78713 0.07968 0.0
H2289 H 0.62702 0.62215 0.01857 0.0
H2290 H 0.5875 0.62811 0.03396 0.0
H2291 H 0.69164 0.79861 0.96464 0.0
H2292 H 0.55162 0.69132 0.07121 0.0
H2293 H 0.56515 0.73009 0.08124 0.0
H2294 H 0.66598 0.85388 0.06903 0.0
H2295 H 0.55995 0.65336 0.05308 0.0
H2296 H 0.7116 0.85801 1.00196 0.0
H2297 H 0.71625 0.83255 0.96873 0.0
N2298 N 0.67263 0.80524 0.99459 0.0
C2299 C 0.67063 0.81822 1.01354 0.0
C2300 C 0.68929 0.80976 0.97897 0.0
C2301 C 0.70066 0.84319 1.00011 0.0
C2302 C 0.70335 0.82888 0.98135 0.0
C2303 C 0.68446 0.83775 1.01669 0.0
H2304 H 0.69242 0.86607 0.03908 0.0
N2305 N 0.64381 0.79137 0.02751 0.0
C2306 C 0.6557 0.8112 0.03041 0.0
C2307 C 0.64073 0.8154 0.06844 0.0
C2308 C 0.6543 0.8238 0.05088 0.0
C2309 C 0.63202 0.78247 0.04536 0.0
C2310 C 0.62992 0.79438 0.06582 0.0
O2311 O 0.62941 0.71418 0.99227 0.0
O2312 O 0.61958 0.74954 0.97903 0.0
O2313 O 0.64317 0.80743 0.97066 0.0
O2314 O 0.63447 0.77519 0.95584 0.0
O2315 O 0.66386 0.71558 0.9979 0.0
O2316 O 0.66626 0.74672 0.97356 0.0
O2317 O 0.68464 0.76585 0.99786 0.0
O2318 O 0.6819 0.73689 0.02404 0.0
O2319 O 0.64533 0.70935 0.05789 0.0
O2320 O 0.65935 0.74386 0.05415 0.0
O2321 O 0.60789 0.77945 1.00402 0.0
O2322 O 0.60306 0.74431 0.02032 0.0
C2323 C 0.62025 0.72722 0.9766 0.0
C2324 C 0.67082 0.72527 0.97894 0.0
C2325 C 0.64932 0.8016 0.93096 0.0
C2326 C 0.64597 0.81549 0.89222 0.0
C2327 C 0.678 0.79133 0.90295 0.0
C2328 C 0.66913 0.78944 0.92483 0.0
C2329 C 0.66645 0.80422 0.88663 0.0
C2330 C 0.63796 0.81472 0.91466 0.0
C2331 C 0.63744 0.7967 0.95226 0.0
C2332 C 0.6671 0.84393 0.05354 0.0
C2333 C 0.68216 0.85087 0.0365 0.0
H2334 H 0.63924 0.82452 0.0844 0.0
C2335 C 0.69545 0.75164 1.01216 0.0
C2336 C 0.59344 0.76396 1.01282 0.0
C2337 C 0.68094 0.71548 0.07494 0.0
C2338 C 0.70611 0.68268 0.08264 0.0
C2339 C 0.71889 0.72159 0.09035 0.0
C2340 C 0.69801 0.73032 0.08278 0.0
C2341 C 0.72301 0.69803 0.09012 0.0
C2342 C 0.68504 0.69154 0.07529 0.0
C2343 C 0.65902 0.72481 0.06621 0.0
H2344 H 0.69326 0.78193 0.89835 0.0
H2345 H 0.67713 0.77764 0.93655 0.0
H2346 H 0.67293 0.80443 0.86942 0.0
H2347 H 0.62213 0.82326 0.91915 0.0
H2348 H 0.73204 0.73316 0.09626 0.0
H2349 H 0.69527 0.74865 0.08288 0.0
H2350 H 0.73941 0.69181 0.09599 0.0
H2351 H 0.67211 0.6797 0.06937 0.0
C2352 C 0.07722 0.18903 0.72851 0.0
C2353 C 0.11737 0.18435 0.73844 0.0
C2354 C 0.09477 0.176 0.73827 0.0
C2355 C 0.12192 0.20638 0.73016 0.0
C2356 C 0.08234 0.21018 0.71819 0.0
C2357 C 0.10448 0.21922 0.71998 0.0
N2358 N 0.05588 0.1798 0.72665 0.0
C2359 C 0.04045 0.18883 0.71161 0.0
C2360 C 0.06552 0.2209 0.70502 0.0
C2361 C 0.04476 0.20983 0.70114 0.0
Gd2362 Gd 1.00915 0.13797 0.79145 0.0
Gd2363 Gd 0.05129 0.14508 0.74638 0.0
N2364 N 0.09022 0.1542 0.74509 0.0
C2365 C 0.13498 0.16984 0.74575 0.0
C2366 C 0.10752 0.13946 0.75056 0.0
C2367 C 0.13008 0.14718 0.75138 0.0
H2368 H 0.10401 0.12172 0.7542 0.0
H2369 H 0.1437 0.13559 0.75614 0.0
H2370 H 1.01414 0.15577 0.7363 0.0
H2371 H 0.02453 0.18027 0.7083 0.0
H2372 H 0.98918 0.1619 0.70322 0.0
H2373 H 0.15254 0.17565 0.74611 0.0
H2374 H 0.13913 0.21317 0.73046 0.0
H2375 H 0.98786 0.09302 0.81854 0.0
H2376 H 0.06884 0.23711 0.69677 0.0
H2377 H 0.0321 0.21743 0.69006 0.0
H2378 H 0.92008 0.12364 0.72348 0.0
H2379 H 0.10857 0.23564 0.71253 0.0
H2380 H 0.92186 0.0781 0.791 0.0
H2381 H 0.95183 0.07098 0.81987 0.0
N2382 N 0.97754 0.11344 0.79079 0.0
C2383 C 0.96202 0.11668 0.7741 0.0
C2384 C 0.97448 0.09673 0.8066 0.0
C2385 C 0.93743 0.08809 0.79076 0.0
C2386 C 0.95428 0.08401 0.80707 0.0
C2387 C 0.94141 0.1042 0.77366 0.0
H2388 H 0.90991 0.0983 0.75519 0.0
N2389 N 0.98883 0.14089 0.75663 0.0
C2390 C 0.9678 0.13097 0.75642 0.0
C2391 C 0.9605 0.14531 0.71867 0.0
C2392 C 0.95299 0.13309 0.73758 0.0
C2393 C 0.9968 0.15087 0.7374 0.0
C2394 C 0.98274 0.1537 0.71835 0.0
O2395 O 0.06915 0.15423 0.77852 0.0
O2396 O 0.03756 0.16312 0.80002 0.0
O2397 O 0.98084 0.14676 0.8144 0.0
O2398 O 1.01409 0.13819 0.82768 0.0
O2399 O 0.06728 0.12148 0.7727 0.0
O2400 O 0.03952 0.11599 0.8004 0.0
O2401 O 1.01597 0.09988 0.7805 0.0
O2402 O 0.03668 0.10595 0.74786 0.0
O2403 O 0.07088 0.14107 0.71599 0.0
O2404 O 0.03707 0.12577 0.71754 0.0
O2405 O 1.00649 0.17731 0.78209 0.0
O2406 O 0.03447 0.18219 0.7553 0.0
C2407 C 0.0598 0.16338 0.79657 0.0
C2408 C 0.06004 0.11238 0.79195 0.0
C2409 C 0.98328 0.13367 0.85293 0.0
C2410 C 0.96189 0.13952 0.88798 0.0
C2411 C 0.98158 0.10351 0.88119 0.0
C2412 C 0.99009 0.112 0.86078 0.0
C2413 C 0.96751 0.11712 0.89473 0.0
C2414 C 0.96928 0.14734 0.86665 0.0
C2415 C 0.99331 0.14403 0.83248 0.0
C2416 C 0.93174 0.12195 0.73769 0.0
C2417 C 0.92596 0.1075 0.75572 0.0
H2418 H 0.94974 0.14726 0.70381 0.0
C2419 C 0.02582 0.09114 0.76202 0.0
C2420 C 0.01855 0.19158 0.76891 0.0
C2421 C 0.06712 0.10601 0.69725 0.0
C2422 C 0.10112 0.08243 0.69026 0.0
C2423 C 0.06364 0.06957 0.67774 0.0
C2424 C 0.05364 0.08952 0.68633 0.0
C2425 C 0.08718 0.06592 0.67985 0.0
C2426 C 0.09104 0.10246 0.69876 0.0
C2427 C 0.05654 0.12715 0.70645 0.0
H2428 H 0.98658 0.08664 0.88694 0.0
H2429 H 1.00249 0.10187 0.85161 0.0
H2430 H 0.96163 0.11038 0.91081 0.0
H2431 H 0.96553 0.1647 0.86133 0.0
H2432 H 0.05309 0.05682 0.66953 0.0
H2433 H 0.03537 0.09198 0.68458 0.0
H2434 H 0.09456 0.05025 0.67326 0.0
H2435 H 0.10194 0.11499 0.70688 0.0
C2436 C 0.91406 0.36214 0.55447 0.0
C2437 C 0.88646 0.3925 0.55017 0.0
C2438 C 0.8926 0.36918 0.54846 0.0
C2439 C 0.90297 0.40867 0.55662 0.0
C2440 C 0.93049 0.37804 0.56208 0.0
C2441 C 0.92502 0.40144 0.56252 0.0
N2442 N 0.91836 0.33943 0.55427 0.0
C2443 C 0.93867 0.3313 0.56255 0.0
C2444 C 0.95166 0.36986 0.56955 0.0
C2445 C 0.95563 0.34632 0.5701 0.0
Gd2446 Gd 0.88623 0.26855 0.49455 0.0
Gd2447 Gd 0.89191 0.31509 0.53582 0.0
N2448 N 0.87724 0.35289 0.54262 0.0
C2449 C 0.86379 0.39875 0.54614 0.0
C2450 C 0.85467 0.35892 0.54033 0.0
C2451 C 0.84774 0.38179 0.54164 0.0
H2452 H 0.84163 0.34644 0.53709 0.0
H2453 H 0.82994 0.38629 0.53931 0.0
H2454 H 0.91753 0.26762 0.54578 0.0
H2455 H 0.94192 0.31312 0.56332 0.0
H2456 H 0.92364 0.24218 0.5772 0.0
H2457 H 0.85834 0.41644 0.54733 0.0
H2458 H 0.89868 0.42668 0.55773 0.0
H2459 H 0.83545 0.25075 0.47179 0.0
H2460 H 0.96479 0.38148 0.57546 0.0
H2461 H 0.97176 0.33972 0.57632 0.0
H2462 H 0.86553 0.18595 0.56958 0.0
H2463 H 0.93748 0.41396 0.56803 0.0
H2464 H 0.81244 0.19263 0.5087 0.0
H2465 H 0.80793 0.21979 0.47701 0.0
N2466 N 0.85679 0.24096 0.49976 0.0
C2467 C 0.85924 0.22645 0.51758 0.0
C2468 C 0.83839 0.23864 0.48534 0.0
C2469 C 0.82496 0.20604 0.50631 0.0
C2470 C 0.82238 0.22127 0.4884 0.0
C2471 C 0.84335 0.20857 0.52125 0.0
H2472 H 0.834 0.18012 0.54283 0.0
N2473 N 0.89153 0.24799 0.52957 0.0
C2474 C 0.87706 0.22995 0.53277 0.0
C2475 C 0.89665 0.21943 0.56753 0.0
C2476 C 0.8793 0.21531 0.55184 0.0
C2477 C 0.90783 0.25233 0.54576 0.0
C2478 C 0.91077 0.23819 0.5646 0.0
O2479 O 0.91629 0.32199 0.50775 0.0
O2480 O 0.90382 0.29893 0.47854 0.0
O2481 O 0.90649 0.24475 0.47368 0.0
O2482 O 0.87406 0.25628 0.46224 0.0
O2483 O 0.87112 0.3297 0.50748 0.0
O2484 O 0.87056 0.30165 0.47948 0.0
O2485 O 0.84908 0.27671 0.50775 0.0
O2486 O 0.85126 0.30905 0.52987 0.0
O2487 O 0.89645 0.30839 0.57168 0.0
O2488 O 0.87575 0.28551 0.55127 0.0
O2489 O 0.92603 0.26818 0.50399 0.0
O2490 O 0.93015 0.30037 0.52626 0.0
C2491 C 0.91529 0.3166 0.48624 0.0
C2492 C 0.86555 0.32251 0.48709 0.0
C2493 C 0.90161 0.25307 0.43451 0.0
C2494 C 0.91754 0.24412 0.39741 0.0
C2495 C 0.90698 0.28324 0.40662 0.0
C2496 C 0.89987 0.27619 0.42799 0.0
C2497 C 0.91572 0.26734 0.39137 0.0
C2498 C 0.91037 0.23702 0.41909 0.0
C2499 C 0.89249 0.24581 0.45663 0.0
C2500 C 0.86392 0.19725 0.55509 0.0
C2501 C 0.84597 0.19392 0.53987 0.0
H2502 H 0.89883 0.20865 0.58234 0.0
C2503 C 0.83827 0.29293 0.51957 0.0
C2504 C 0.94018 0.2828 0.51477 0.0
C2505 C 0.86009 0.3001 0.58533 0.0
C2506 C 0.83369 0.33089 0.59599 0.0
C2507 C 0.82429 0.29102 0.60375 0.0
C2508 C 0.8448 0.28386 0.59379 0.0
C2509 C 0.81857 0.31431 0.60454 0.0
C2510 C 0.85472 0.32357 0.58732 0.0
C2511 C 0.88013 0.2933 0.57169 0.0
H2512 H 0.90548 0.30105 0.4018 0.0
H2513 H 0.89244 0.2888 0.43917 0.0
H2514 H 0.92086 0.27318 0.3747 0.0
H2515 H 0.91164 0.21917 0.42394 0.0
H2516 H 0.81245 0.27844 0.61025 0.0
H2517 H 0.84848 0.26575 0.59225 0.0
H2518 H 0.80226 0.31934 0.61164 0.0
H2519 H 0.86644 0.33624 0.58097 0.0
C2520 C 0.46496 0.9252 0.77294 0.0
C2521 C 0.45926 0.91214 0.73431 0.0
C2522 C 0.47088 0.91052 0.75529 0.0
C2523 C 0.44162 0.92824 0.73156 0.0
C2524 C 0.44774 0.94186 0.77003 0.0
C2525 C 0.4359 0.94308 0.74934 0.0
N2526 N 0.47682 0.92393 0.79267 0.0
C2527 C 0.47271 0.93873 0.81013 0.0
C2528 C 0.4432 0.95704 0.7879 0.0
C2529 C 0.45586 0.95557 0.80798 0.0
Gd2530 Gd 0.55504 0.88938 0.75612 0.0
Gd2531 Gd 0.50318 0.89428 0.79573 0.0
N2532 N 0.48832 0.89524 0.75836 0.0
C2533 C 0.46589 0.89773 0.71656 0.0
C2534 C 0.49495 0.88152 0.74085 0.0
C2535 C 0.48391 0.88249 0.71981 0.0
H2536 H 0.50893 0.87006 0.74254 0.0
H2537 H 0.48943 0.8715 0.70606 0.0
H2538 H 0.59989 0.91832 0.77672 0.0
H2539 H 0.48241 0.93733 0.8257 0.0
H2540 H 0.64048 0.91034 0.78591 0.0
H2541 H 0.45743 0.89846 0.7002 0.0
H2542 H 0.43248 0.92958 0.7156 0.0
H2543 H 0.53931 0.85143 0.7156 0.0
H2544 H 0.43012 0.97008 0.78628 0.0
H2545 H 0.45254 0.96728 0.82183 0.0
H2546 H 0.65375 0.83595 0.75384 0.0
H2547 H 0.4225 0.95564 0.74683 0.0
H2548 H 0.59401 0.80307 0.70884 0.0
H2549 H 0.55537 0.81643 0.69799 0.0
N2550 N 0.56816 0.85682 0.73696 0.0
C2551 C 0.59017 0.85104 0.74164 0.0
C2552 C 0.55622 0.84563 0.72035 0.0
C2553 C 0.58703 0.81835 0.71664 0.0
C2554 C 0.56522 0.82585 0.71043 0.0
C2555 C 0.60004 0.83129 0.73194 0.0
H2556 H 0.63056 0.81034 0.73002 0.0
N2557 N 0.59418 0.88586 0.76215 0.0
C2558 C 0.60348 0.86585 0.75472 0.0
C2559 C 0.63987 0.87671 0.77083 0.0
C2560 C 0.62664 0.86074 0.75893 0.0
C2561 C 0.60723 0.90204 0.77249 0.0
C2562 C 0.63021 0.89761 0.77733 0.0
O2563 O 0.51104 0.93343 0.78205 0.0
O2564 O 0.54439 0.92966 0.76048 0.0
O2565 O 0.5748 0.9071 0.7325 0.0
O2566 O 0.53879 0.89762 0.72315 0.0
O2567 O 0.50717 0.85502 0.78402 0.0
O2568 O 0.5391 0.8518 0.76094 0.0
O2569 O 0.56709 0.87633 0.78922 0.0
O2570 O 0.53251 0.8697 0.80835 0.0
O2571 O 0.4699 0.88047 0.80523 0.0
O2572 O 0.49368 0.89142 0.83108 0.0
O2573 O 0.54114 0.90525 0.78631 0.0
O2574 O 0.52758 0.91409 0.81815 0.0
C2575 C 0.52768 0.94349 0.7694 0.0
C2576 C 0.52212 0.84159 0.77253 0.0
C2577 C 0.56331 0.91864 0.69548 0.0
C2578 C 0.59173 0.93865 0.67294 0.0
C2579 C 0.55749 0.92383 0.65501 0.0
C2580 C 0.54991 0.91539 0.67599 0.0
C2581 C 0.57857 0.93513 0.65337 0.0
C2582 C 0.58376 0.93094 0.69379 0.0
C2583 C 0.55841 0.90723 0.71716 0.0
C2584 C 0.63603 0.84026 0.75057 0.0
C2585 C 0.6228 0.82564 0.73704 0.0
H2586 H 0.65773 0.87339 0.77446 0.0
C2587 C 0.55505 0.86659 0.80548 0.0
C2588 C 0.54559 0.91507 0.80588 0.0
C2589 C 0.45509 0.89029 0.84181 0.0
C2590 C 0.43884 0.88956 0.87974 0.0
C2591 C 0.42061 0.91184 0.85006 0.0
C2592 C 0.43711 0.90442 0.83452 0.0
C2593 C 0.42152 0.90457 0.87267 0.0
C2594 C 0.45566 0.8827 0.86433 0.0
C2595 C 0.4737 0.88285 0.82684 0.0
H2596 H 0.54731 0.92108 0.6399 0.0
H2597 H 0.53412 0.9058 0.67683 0.0
H2598 H 0.58458 0.94099 0.63701 0.0
H2599 H 0.59435 0.93377 0.70866 0.0
H2600 H 0.40692 0.92299 0.8445 0.0
H2601 H 0.43581 0.90973 0.81699 0.0
H2602 H 0.40834 0.91001 0.8844 0.0
H2603 H 0.46918 0.87126 0.8699 0.0
C2604 C 1.01529 0.17681 0.21979 0.0
C2605 C 0.05472 0.16526 0.21503 0.0
C2606 C 0.03334 0.16263 0.2259 0.0
C2607 C 0.05785 0.1827 0.19897 0.0
C2608 C 0.01829 0.19414 0.20337 0.0
C2609 C 0.0397 0.19712 0.19318 0.0
N2610 N 0.99479 0.17384 0.23004 0.0
C2611 C 0.97646 0.18726 0.22436 0.0
C2612 C 0.99967 0.20804 0.19764 0.0
C2613 C 0.97865 0.20453 0.20815 0.0
Gd2614 Gd 0.03577 0.14306 0.30223 0.0
Gd2615 Gd 0.99259 0.14537 0.25803 0.0
N2616 N 0.02985 0.14583 0.24166 0.0
C2617 C 0.07223 0.14988 0.22005 0.0
C2618 C 0.04662 0.13 0.24523 0.0
C2619 C 0.06799 0.1319 0.23482 0.0
H2620 H 0.04382 0.11536 0.25527 0.0
H2621 H 0.0811 0.11919 0.23788 0.0
H2622 H 1.01679 0.16352 0.3532 0.0
H2623 H 0.96028 0.18523 0.23286 0.0
H2624 H 1.01472 0.14969 0.39261 0.0
H2625 H 0.0888 0.15122 0.21197 0.0
H2626 H 0.0742 0.18495 0.19065 0.0
H2627 H 0.07641 0.11016 0.27716 0.0
H2628 H 1.00134 0.22152 0.18515 0.0
H2629 H 0.96416 0.21525 0.20392 0.0
H2630 H 0.05433 0.07796 0.39142 0.0
H2631 H 0.04233 0.21037 0.18062 0.0
H2632 H 0.09297 0.05625 0.32332 0.0
H2633 H 0.09785 0.0749 0.28602 0.0
N2634 N 0.05825 0.11041 0.30835 0.0
C2635 C 0.05698 0.10179 0.32982 0.0
C2636 C 0.07384 0.10191 0.29325 0.0
C2637 C 0.08335 0.07161 0.31943 0.0
C2638 C 0.08615 0.08207 0.29833 0.0
C2639 C 0.06914 0.08176 0.33569 0.0
H2640 H 0.07649 0.05745 0.36246 0.0
N2641 N 0.03456 0.13405 0.34105 0.0
C2642 C 0.0447 0.11374 0.34645 0.0
C2643 C 0.03274 0.11834 0.38551 0.0
C2644 C 0.04398 0.10539 0.36891 0.0
C2645 C 0.02432 0.1472 0.35741 0.0
C2646 C 0.02312 0.13943 0.37979 0.0
O2647 O 1.00051 0.18452 0.26484 0.0
O2648 O 0.0349 0.17993 0.28296 0.0
O2649 O 0.05893 0.15743 0.32596 0.0
O2650 O 0.06985 0.15391 0.29006 0.0
O2651 O 1.00096 0.10563 0.26161 0.0
O2652 O 0.02832 0.10464 0.28938 0.0
O2653 O 1.00401 0.13001 0.31891 0.0
O2654 O 0.9791 0.1266 0.28873 0.0
O2655 O 0.97813 0.12866 0.22823 0.0
O2656 O 0.95639 0.1479 0.25051 0.0
O2657 O 1.00959 0.169 0.31273 0.0
O2658 O 0.97846 0.16499 0.28836 0.0
C2659 C 0.01944 0.19418 0.2731 0.0
C2660 C 1.01402 0.09312 0.27559 0.0
C2661 C 0.09669 0.17088 0.31837 0.0
C2662 C 0.11824 0.19105 0.34784 0.0
C2663 C 0.13535 0.18374 0.31095 0.0
C2664 C 0.11538 0.17279 0.30366 0.0
C2665 C 0.13672 0.19305 0.33281 0.0
C2666 C 0.09844 0.17976 0.34058 0.0
C2667 C 0.07503 0.16028 0.31097 0.0
C2668 C 0.05493 0.08471 0.3743 0.0
C2669 C 0.06752 0.07298 0.35778 0.0
H2670 H 0.03181 0.11244 0.40291 0.0
C2671 C 0.9846 0.12321 0.31014 0.0
C2672 C 0.98832 0.17325 0.30685 0.0
C2673 C 0.94154 0.11402 0.23595 0.0
C2674 C 0.90619 0.0947 0.22557 0.0
C2675 C 0.92964 0.08004 0.25642 0.0
C2676 C 0.94525 0.09757 0.25293 0.0
C2677 C 0.91015 0.07866 0.24299 0.0
C2678 C 0.92203 0.11249 0.2222 0.0
C2679 C 0.95719 0.13352 0.23379 0.0
H2680 H 0.14971 0.18526 0.2995 0.0
H2681 H 0.11451 0.166 0.28657 0.0
H2682 H 0.15215 0.20184 0.338 0.0
H2683 H 0.08408 0.17867 0.35213 0.0
H2684 H 0.93253 0.06766 0.26979 0.0
H2685 H 0.95992 0.09838 0.26387 0.0
H2686 H 0.898 0.06518 0.24652 0.0
H2687 H 0.91923 0.12511 0.20902 0.0
C2688 C 0.46764 0.11558 0.75829 0.0
C2689 C 0.45934 0.13033 0.79575 0.0
C2690 C 0.47312 0.13009 0.77604 0.0
C2691 C 0.43977 0.11653 0.79688 0.0
C2692 C 0.44847 0.10099 0.75971 0.0
C2693 C 0.43436 0.10188 0.77889 0.0
N2694 N 0.48177 0.11476 0.74013 0.0
C2695 C 0.47836 0.09904 0.72332 0.0
C2696 C 0.44437 0.08553 0.74203 0.0
C2697 C 0.45959 0.08434 0.72388 0.0
Gd2698 Gd 0.55474 0.14506 0.78224 0.0
Gd2699 Gd 0.51121 0.14206 0.7387 0.0
N2700 N 0.49247 0.14296 0.77459 0.0
C2701 C 0.46592 0.14397 0.81406 0.0
C2702 C 0.4993 0.15525 0.79299 0.0
C2703 C 0.4862 0.15624 0.81277 0.0
H2704 H 0.51513 0.16367 0.79301 0.0
H2705 H 0.49195 0.16623 0.82716 0.0
H2706 H 0.60531 0.11867 0.7697 0.0
H2707 H 0.49079 0.09721 0.7101 0.0
H2708 H 0.64554 0.12978 0.76549 0.0
H2709 H 0.45588 0.1446 0.82949 0.0
H2710 H 0.42899 0.11668 0.81181 0.0
H2711 H 0.53232 0.1827 0.82065 0.0
H2712 H 0.42989 0.07402 0.74254 0.0
H2713 H 0.45705 0.07193 0.71048 0.0
H2714 H 0.64834 0.20642 0.79421 0.0
H2715 H 0.41949 0.09094 0.7802 0.0
H2716 H 0.58137 0.23591 0.83024 0.0
H2717 H 0.54325 0.21952 0.83786 0.0
N2718 N 0.56323 0.17916 0.80185 0.0
C2719 C 0.58513 0.18662 0.79941 0.0
C2720 C 0.54885 0.18981 0.81688 0.0
C2721 C 0.57658 0.21983 0.82243 0.0
C2722 C 0.55504 0.21063 0.82678 0.0
C2723 C 0.59219 0.20748 0.80922 0.0
H2724 H 0.62043 0.231 0.81363 0.0
N2725 N 0.59445 0.15135 0.78153 0.0
C2726 C 0.6011 0.17244 0.78881 0.0
C2727 C 0.64013 0.16393 0.77818 0.0
C2728 C 0.62416 0.17927 0.78726 0.0
C2729 C 0.61025 0.13584 0.77397 0.0
C2730 C 0.63319 0.142 0.77186 0.0
O2731 O 0.51762 0.10308 0.74783 0.0
O2732 O 0.53941 0.10633 0.78014 0.0
O2733 O 0.57588 0.13377 0.80886 0.0
O2734 O 0.53854 0.13578 0.81511 0.0
O2735 O 0.50912 0.18133 0.75095 0.0
O2736 O 0.54121 0.18306 0.77317 0.0
O2737 O 0.57207 0.15632 0.75058 0.0
O2738 O 0.54064 0.16546 0.72879 0.0
O2739 O 0.48046 0.15187 0.71924 0.0
O2740 O 0.51207 0.14498 0.70225 0.0
O2741 O 0.56641 0.11859 0.75702 0.0
O2742 O 0.5427 0.12255 0.72569 0.0
C2743 C 0.52767 0.09277 0.76547 0.0
C2744 C 0.52407 0.19426 0.76271 0.0
C2745 C 0.56469 0.12317 0.84618 0.0
C2746 C 0.59367 0.10777 0.87172 0.0
C2747 C 0.55435 0.11158 0.88432 0.0
C2748 C 0.54812 0.12057 0.86313 0.0
C2749 C 0.57697 0.10483 0.88852 0.0
C2750 C 0.58746 0.11724 0.8509 0.0
C2751 C 0.55911 0.13139 0.82321 0.0
C2752 C 0.63076 0.20081 0.7955 0.0
C2753 C 0.61484 0.21484 0.80652 0.0
H2754 H 0.65797 0.16858 0.77669 0.0
C2755 C 0.56288 0.16544 0.73246 0.0
C2756 C 0.56142 0.11452 0.73557 0.0
C2757 C 0.47894 0.14036 0.68001 0.0
C2758 C 0.45323 0.14549 0.64763 0.0
C2759 C 0.47599 0.11088 0.65098 0.0
C2760 C 0.48635 0.11955 0.67046 0.0
C2761 C 0.4595 0.1237 0.63961 0.0
C2762 C 0.46246 0.15336 0.66834 0.0
C2763 C 0.49081 0.15048 0.6998 0.0
H2764 H 0.54152 0.10936 0.89734 0.0
H2765 H 0.53048 0.12519 0.85994 0.0
H2766 H 0.58137 0.09707 0.90464 0.0
H2767 H 0.60046 0.11877 0.83789 0.0
H2768 H 0.48162 0.09469 0.64399 0.0
H2769 H 0.50072 0.11031 0.67745 0.0
H2770 H 0.45288 0.11723 0.62368 0.0
H2771 H 0.45778 0.17014 0.6747 0.0
C2772 C 0.16532 0.21421 0.02679 0.0
C2773 C 0.14974 0.20889 0.06461 0.0
C2774 C 0.14962 0.22063 0.04359 0.0
C2775 C 0.16489 0.19059 0.0682 0.0
C2776 C 0.18118 0.19638 0.03088 0.0
C2777 C 0.18057 0.18441 0.05144 0.0
N2778 N 0.16575 0.22583 1.00682 0.0
C2779 C 0.18238 0.22141 0.99092 0.0
C2780 C 0.19755 0.19124 1.01432 0.0
C2781 C 0.19832 0.204 0.99439 0.0
Gd2782 Gd 0.1352 0.30583 0.03587 0.0
Gd2783 Gd 0.13625 0.25293 1.00221 0.0
N2784 N 0.13509 0.2387 0.03996 0.0
C2785 C 0.135 0.21612 0.08178 0.0
C2786 C 0.12167 0.24641 0.05737 0.0
C2787 C 0.12121 0.23517 0.07826 0.0
H2788 H 0.11199 0.26183 0.05605 0.0
H2789 H 0.11042 0.24148 0.0918 0.0
H2790 H 0.18491 0.33515 0.02936 0.0
H2791 H 0.18305 0.23128 0.97547 0.0
H2792 H 0.19814 0.37475 0.02735 0.0
H2793 H 0.13466 0.20756 0.09808 0.0
H2794 H 0.16496 0.18139 0.08416 0.0
H2795 H 0.08483 0.30934 0.06296 0.0
H2796 H 0.20997 0.17772 1.01696 0.0
H2797 H 0.21119 0.20044 0.98168 0.0
H2798 H 0.13128 0.41954 0.04299 0.0
H2799 H 0.19245 0.17055 0.05472 0.0
H2800 H 0.06427 0.37932 0.06676 0.0
H2801 H 0.05611 0.33829 0.07285 0.0
N2802 N 0.10866 0.33332 0.04941 0.0
C2803 C 0.11364 0.3557 0.0467 0.0
C2804 C 0.08841 0.32705 0.05924 0.0
C2805 C 0.07679 0.36658 0.06181 0.0
C2806 C 0.07213 0.34347 0.06528 0.0
C2807 C 0.09795 0.37299 0.05289 0.0
H2808 H 0.09237 0.40958 0.05527 0.0
N2809 N 0.14992 0.34384 0.03505 0.0
C2810 C 0.13517 0.3612 0.03943 0.0
C2811 C 0.16492 0.38918 0.0337 0.0
C2812 C 0.14211 0.3843 0.03864 0.0
C2813 C 0.17255 0.34862 0.03156 0.0
C2814 C 0.18028 0.37122 0.03049 0.0
O2815 O 0.1752 0.26233 1.01005 0.0
O2816 O 0.17513 0.296 0.03043 0.0
O2817 O 0.13136 0.31019 0.0721 0.0
O2818 O 0.1525 0.2825 0.05937 0.0
O2819 O 0.09821 0.25283 1.01612 0.0
O2820 O 0.09711 0.28931 0.03036 0.0
O2821 O 0.10807 0.30702 1.00919 0.0
O2822 O 0.12149 0.2825 0.98195 0.0
O2823 O 0.1383 0.22055 0.98343 0.0
O2824 O 0.11347 0.24499 0.97403 0.0
O2825 O 0.15447 0.31485 1.00405 0.0
O2826 O 0.15547 0.28089 0.98306 0.0
C2827 C 0.18715 0.27872 0.02083 0.0
C2828 C 0.08552 0.27026 0.02372 0.0
C2829 C 0.16864 0.30873 0.08655 0.0
C2830 C 0.18932 0.34479 0.09432 0.0
C2831 C 0.20816 0.30783 0.09908 0.0
C2832 C 0.18832 0.29636 0.09232 0.0
C2833 C 0.20876 0.33176 0.09984 0.0
C2834 C 0.16919 0.33306 0.08813 0.0
C2835 C 0.14861 0.29682 0.0762 0.0
C2836 C 0.12634 0.40171 0.04375 0.0
C2837 C 0.10422 0.39605 0.05077 0.0
H2838 H 0.17099 0.40667 0.03309 0.0
C2839 C 0.10965 0.30065 0.98796 0.0
C2840 C 0.16043 0.30288 0.98601 0.0
C2841 C 0.13144 0.22587 0.94434 0.0
C2842 C 0.12408 0.21579 0.90471 0.0
C2843 C 0.15629 0.24015 0.91465 0.0
C2844 C 0.15017 0.23909 0.93747 0.0
C2845 C 0.14334 0.22867 0.89833 0.0
C2846 C 0.11851 0.21418 0.92795 0.0
C2847 C 0.12382 0.22649 0.96812 0.0
H2848 H 0.22331 0.29811 0.10338 0.0
H2849 H 0.18853 0.27787 0.09108 0.0
H2850 H 0.22447 0.3401 0.10493 0.0
H2851 H 0.15429 0.34308 0.0836 0.0
H2852 H 0.17072 0.25046 0.9095 0.0
H2853 H 0.1597 0.24911 0.94966 0.0
H2854 H 0.14793 0.23066 0.88065 0.0
H2855 H 0.10381 0.20434 0.93331 0.0
C2856 C 0.36218 0.80419 0.51735 0.0
C2857 C 0.37893 0.81724 0.55272 0.0
C2858 C 0.37906 0.80205 0.53396 0.0
C2859 C 0.36226 0.83445 0.55429 0.0
C2860 C 0.34522 0.82138 0.51912 0.0
C2861 C 0.34547 0.83651 0.53757 0.0
N2862 N 0.36207 0.78944 0.49957 0.0
C2863 C 0.34555 0.7908 0.48317 0.0
C2864 C 0.32836 0.82289 0.50231 0.0
C2865 C 0.32846 0.80742 0.48432 0.0
Gd2866 Gd 0.39727 0.71724 0.53838 0.0
Gd2867 Gd 0.39262 0.76354 0.49759 0.0
N2868 N 0.39508 0.78502 0.53221 0.0
C2869 C 0.39539 0.81463 0.56966 0.0
C2870 C 0.41057 0.78216 0.54947 0.0
C2871 C 0.41109 0.79687 0.56813 0.0
H2872 H 0.42158 0.76772 0.55031 0.0
H2873 H 0.42337 0.79416 0.58162 0.0
H2874 H 0.34959 0.68388 0.53021 0.0
H2875 H 0.34503 0.77832 0.46981 0.0
H2876 H 0.33807 0.64418 0.53483 0.0
H2877 H 0.39578 0.82589 0.58428 0.0
H2878 H 0.36208 0.84619 0.56854 0.0
H2879 H 0.44424 0.72196 0.57045 0.0
H2880 H 0.31507 0.8358 0.50318 0.0
H2881 H 0.31531 0.80817 0.47141 0.0
H2882 H 0.40331 0.60754 0.56811 0.0
H2883 H 0.33263 0.84981 0.53913 0.0
H2884 H 0.466 0.65513 0.59056 0.0
H2885 H 0.47253 0.69689 0.58887 0.0
N2886 N 0.42217 0.69468 0.56073 0.0
C2887 C 0.41798 0.672 0.56223 0.0
C2888 C 0.44129 0.70373 0.57063 0.0
C2889 C 0.45359 0.66606 0.58224 0.0
C2890 C 0.45733 0.6896 0.58133 0.0
C2891 C 0.43353 0.65701 0.57299 0.0
H2892 H 0.44016 0.62179 0.58248 0.0
N2893 N 0.3831 0.67932 0.54422 0.0
C2894 C 0.3976 0.66405 0.55389 0.0
C2895 C 0.37014 0.63356 0.54926 0.0
C2896 C 0.39172 0.64076 0.5564 0.0
C2897 C 0.36168 0.67229 0.53776 0.0
C2898 C 0.35496 0.64948 0.54016 0.0
O2899 O 0.35479 0.75217 0.50547 0.0
O2900 O 0.3565 0.72299 0.53162 0.0
O2901 O 0.39707 0.72445 0.57443 0.0
O2902 O 0.37957 0.74724 0.55087 0.0
O2903 O 0.43188 0.76522 0.50944 0.0
O2904 O 0.43558 0.73347 0.53234 0.0
O2905 O 0.42356 0.71025 0.51177 0.0
O2906 O 0.41375 0.73541 0.48329 0.0
O2907 O 0.39567 0.79616 0.47902 0.0
O2908 O 0.40206 0.76445 0.46227 0.0
O2909 O 0.38235 0.70141 0.50715 0.0
O2910 O 0.37383 0.73183 0.48304 0.0
C2911 C 0.34366 0.73754 0.51892 0.0
C2912 C 0.44585 0.75105 0.52107 0.0
C2913 C 0.35951 0.73466 0.58339 0.0
C2914 C 0.33023 0.70608 0.59249 0.0
C2915 C 0.32348 0.74662 0.59975 0.0
C2916 C 0.34503 0.75207 0.59109 0.0
C2917 C 0.31602 0.72387 0.60027 0.0
C2918 C 0.35215 0.71168 0.58464 0.0
C2919 C 0.38128 0.74007 0.57192 0.0
C2920 C 0.40739 0.62552 0.56633 0.0
C2921 C 0.42834 0.63363 0.57453 0.0
H2922 H 0.3649 0.61588 0.55104 0.0
C2923 C 0.42491 0.71762 0.49085 0.0
C2924 C 0.37367 0.70966 0.4883 0.0
C2925 C 0.39076 0.79442 0.43872 0.0
C2926 C 0.39734 0.81336 0.40248 0.0
C2927 C 0.36343 0.79011 0.40798 0.0
C2928 C 0.371 0.7843 0.42966 0.0
C2929 C 0.37656 0.80443 0.39435 0.0
C2930 C 0.40366 0.80919 0.42516 0.0
C2931 C 0.40092 0.78631 0.46006 0.0
H2932 H 0.3123 0.76013 0.60567 0.0
H2933 H 0.35024 0.76981 0.59007 0.0
H2934 H 0.29908 0.72021 0.60668 0.0
H2935 H 0.36315 0.69814 0.57862 0.0
H2936 H 0.34811 0.78232 0.40117 0.0
H2937 H 0.36214 0.77094 0.43865 0.0
H2938 H 0.3712 0.80711 0.37696 0.0
H2939 H 0.41954 0.81606 0.43175 0.0
C2940 C 0.72787 0.5248 0.86041 0.0
C2941 C 0.71681 0.48999 0.87962 0.0
C2942 C 0.73154 0.50908 0.87763 0.0
C2943 C 0.69844 0.48731 0.86449 0.0
C2944 C 0.70972 0.52187 0.84482 0.0
C2945 C 0.69492 0.5032 0.84713 0.0
N2946 N 0.74244 0.54263 0.85839 0.0
C2947 C 0.74035 0.5577 0.84083 0.0
C2948 C 0.70713 0.53764 0.82715 0.0
C2949 C 0.72269 0.55553 0.82501 0.0
Gd2950 Gd 0.81462 0.50705 0.89729 0.0
Gd2951 Gd 0.77015 0.54723 0.88685 0.0
N2952 N 0.74975 0.51198 0.89188 0.0
C2953 C 0.72108 0.47386 0.89652 0.0
C2954 C 0.75409 0.4956 0.90792 0.0
C2955 C 0.73995 0.47658 0.91056 0.0
H2956 H 0.76928 0.49582 0.91775 0.0
H2957 H 0.74394 0.46376 0.92322 0.0
H2958 H 0.86117 0.50511 0.86267 0.0
H2959 H 0.75298 0.5708 0.83859 0.0
H2960 H 0.90307 0.50598 0.86743 0.0
H2961 H 0.71025 0.45899 0.89852 0.0
H2962 H 0.68702 0.47282 0.8659 0.0
H2963 H 0.79464 0.47382 0.94036 0.0
H2964 H 0.69346 0.53591 0.81485 0.0
H2965 H 0.72122 0.56752 0.8111 0.0
H2966 H 0.91446 0.49105 0.94676 0.0
H2967 H 0.68085 0.50074 0.8354 0.0
H2968 H 0.84896 0.46606 0.98853 0.0
H2969 H 0.8086 0.45993 0.9775 0.0
N2970 N 0.82642 0.48889 0.93118 0.0
C2971 C 0.84902 0.49033 0.93591 0.0
C2972 C 0.81228 0.47656 0.94507 0.0
C2973 C 0.84287 0.47229 0.97229 0.0
C2974 C 0.82011 0.46871 0.9661 0.0
C2975 C 0.85784 0.48249 0.9568 0.0
H2976 H 0.8885 0.4784 0.97707 0.0
N2977 N 0.85452 0.50157 0.89794 0.0
C2978 C 0.86359 0.49705 0.91871 0.0
C2979 C 0.90171 0.50085 0.90361 0.0
C2980 C 0.88743 0.49667 0.92216 0.0
C2981 C 0.86838 0.5036 0.87945 0.0
C2982 C 0.89215 0.50376 0.88206 0.0
O2983 O 0.77959 0.53456 0.84951 0.0
O2984 O 0.80648 0.5067 0.85618 0.0
O2985 O 0.82141 0.47105 0.89646 0.0
O2986 O 0.78968 0.48438 0.8815 0.0
O2987 O 0.76637 0.53814 0.92712 0.0
O2988 O 0.79881 0.51746 0.93384 0.0
O2989 O 0.82779 0.54214 0.90889 0.0
O2990 O 0.79357 0.56035 0.91395 0.0
O2991 O 0.73872 0.56754 0.89197 0.0
O2992 O 0.77081 0.58406 0.88551 0.0
O2993 O 0.83039 0.53099 0.8725 0.0
O2994 O 0.80333 0.55979 0.86881 0.0
C2995 C 0.79291 0.51805 0.84095 0.0
C2996 C 0.78035 0.52793 0.94256 0.0
C2997 C 0.80942 0.4538 0.86269 0.0
C2998 C 0.83779 0.44087 0.835 0.0
C2999 C 0.79795 0.42979 0.83106 0.0
C3000 C 0.79241 0.44194 0.85079 0.0
C3001 C 0.82046 0.42939 0.82307 0.0
C3002 C 0.83216 0.45302 0.85472 0.0
C3003 C 0.80374 0.46681 0.88347 0.0
C3004 C 0.89621 0.49102 0.94367 0.0
C3005 C 0.88142 0.48386 0.96095 0.0
H3006 H 0.92013 0.50077 0.90554 0.0
C3007 C 0.81584 0.56006 0.91565 0.0
C3008 C 0.82398 0.55106 0.86473 0.0
C3009 C 0.73803 0.6064 0.8781 0.0
C3010 C 0.71507 0.64116 0.88238 0.0
C3011 C 0.7365 0.63452 0.84773 0.0
C3012 C 0.74547 0.6144 0.85687 0.0
C3013 C 0.72146 0.64792 0.86041 0.0
C3014 C 0.72262 0.6198 0.89064 0.0
C3015 C 0.74928 0.5869 0.88953 0.0
H3016 H 0.78473 0.42078 0.82184 0.0
H3017 H 0.77488 0.4422 0.85667 0.0
H3018 H 0.8244 0.41999 0.80771 0.0
H3019 H 0.84559 0.46208 0.86362 0.0
H3020 H 0.74226 0.64042 0.8313 0.0
H3021 H 0.75901 0.60588 0.84774 0.0
H3022 H 0.71611 0.66427 0.85358 0.0
H3023 H 0.71775 0.61429 0.90752 0.0
C3024 C 0.82552 0.5179 0.16404 0.0
C3025 C 0.8272 0.48 0.14779 0.0
C3026 C 0.81585 0.50118 0.15075 0.0
C3027 C 0.84883 0.4765 0.15752 0.0
C3028 C 0.84672 0.51401 0.17495 0.0
C3029 C 0.85857 0.49349 0.17112 0.0
N3030 N 0.81334 0.53724 0.16778 0.0
C3031 C 0.82079 0.55264 0.18374 0.0
C3032 C 0.85496 0.53044 0.19009 0.0
C3033 C 0.84172 0.54965 0.1948 0.0
Gd3034 Gd 0.73162 0.50319 0.13704 0.0
Gd3035 Gd 0.77926 0.54246 0.14633 0.0
N3036 N 0.79461 0.50494 0.14217 0.0
C3037 C 0.81611 0.46261 0.13589 0.0
C3038 C 0.78346 0.4875 0.13171 0.0
C3039 C 0.79395 0.46627 0.12816 0.0
H3040 H 0.76638 0.4897 0.12653 0.0
H3041 H 0.78485 0.45259 0.11973 0.0
H3042 H 0.68157 0.52404 0.15915 0.0
H3043 H 0.81075 0.56729 0.18855 0.0
H3044 H 0.64384 0.53519 0.1445 0.0
H3045 H 0.82415 0.4461 0.13332 0.0
H3046 H 0.85781 0.46043 0.15524 0.0
H3047 H 0.75176 0.46352 0.09972 0.0
H3048 H 0.87109 0.52805 0.19885 0.0
H3049 H 0.8475 0.5621 0.20714 0.0
H3050 H 0.64426 0.51018 0.06706 0.0
H3051 H 0.87494 0.49032 0.17917 0.0
H3052 H 0.70715 0.46439 0.04212 0.0
H3053 H 0.74183 0.44976 0.06128 0.0
N3054 N 0.72383 0.48677 0.10151 0.0
C3055 C 0.70343 0.49331 0.09231 0.0
C3056 C 0.73667 0.47002 0.09143 0.0
C3057 C 0.71149 0.47057 0.05893 0.0
C3058 C 0.73107 0.46223 0.0697 0.0
C3059 C 0.69703 0.48573 0.07047 0.0
H3060 H 0.67098 0.48723 0.04434 0.0
N3061 N 0.69352 0.51136 0.12734 0.0
C3062 C 0.68801 0.50607 0.10543 0.0
C3063 C 0.65058 0.52292 0.11067 0.0
C3064 C 0.66634 0.51182 0.09656 0.0
C3065 C 0.67767 0.52092 0.14156 0.0
C3066 C 0.65615 0.52715 0.13333 0.0
O3067 O 0.77193 0.53036 0.18362 0.0
O3068 O 0.7474 0.50055 0.17606 0.0
O3069 O 0.70491 0.47851 0.14187 0.0
O3070 O 0.74015 0.46831 0.14803 0.0
O3071 O 0.78202 0.53345 0.10647 0.0
O3072 O 0.74971 0.51196 0.10048 0.0
O3073 O 0.71932 0.53862 0.12733 0.0
O3074 O 0.75384 0.55591 0.12053 0.0
O3075 O 0.80305 0.56715 0.13123 0.0
O3076 O 0.78392 0.57547 0.1613 0.0
O3077 O 0.72197 0.52527 0.16627 0.0
O3078 O 0.74673 0.55571 0.16315 0.0
C3079 C 0.75994 0.51278 0.19159 0.0
C3080 C 0.76793 0.52285 0.09154 0.0
C3081 C 0.71045 0.45222 0.17138 0.0
C3082 C 0.67902 0.44297 0.19729 0.0
C3083 C 0.71835 0.43447 0.20782 0.0
C3084 C 0.72606 0.44331 0.1872 0.0
C3085 C 0.69505 0.43448 0.21295 0.0
C3086 C 0.68681 0.45147 0.17638 0.0
C3087 C 0.71845 0.46284 0.14996 0.0
C3088 C 0.66073 0.50565 0.07421 0.0
C3089 C 0.67598 0.49261 0.06123 0.0
H3090 H 0.6338 0.52765 0.10443 0.0
C3091 C 0.73149 0.55513 0.11838 0.0
C3092 C 0.72816 0.54616 0.17136 0.0
C3093 C 0.78674 0.60446 0.13469 0.0
C3094 C 0.79134 0.63804 0.11114 0.0
C3095 C 0.75581 0.63224 0.13119 0.0
C3096 C 0.76432 0.61179 0.1399 0.0
C3097 C 0.76932 0.64541 0.1169 0.0
C3098 C 0.80018 0.61772 0.12025 0.0
C3099 C 0.79607 0.58337 0.14479 0.0
H3100 H 0.73052 0.4278 0.22 0.0
H3101 H 0.74424 0.4434 0.18378 0.0
H3102 H 0.68952 0.42773 0.22915 0.0
H3103 H 0.67447 0.45816 0.16434 0.0
H3104 H 0.73869 0.63782 0.13544 0.0
H3105 H 0.75334 0.60189 0.15088 0.0
H3106 H 0.76265 0.66136 0.11035 0.0
H3107 H 0.81739 0.61227 0.11605 0.0
C3108 C 0.7611 0.55783 0.42599 0.0
C3109 C 0.79915 0.567 0.41259 0.0
C3110 C 0.77884 0.55404 0.41065 0.0
C3111 C 0.80149 0.58318 0.43007 0.0
C3112 C 0.76346 0.57412 0.44357 0.0
C3113 C 0.78373 0.5867 0.44551 0.0
N3114 N 0.74164 0.54539 0.42399 0.0
C3115 C 0.72386 0.54844 0.43875 0.0
C3116 C 0.74538 0.57724 0.4588 0.0
C3117 C 0.72552 0.56431 0.4564 0.0
Gd3118 Gd 0.78053 0.47156 0.38858 0.0
Gd3119 Gd 0.73986 0.52023 0.39317 0.0
N3120 N 0.77628 0.53806 0.39386 0.0
C3121 C 0.81655 0.56355 0.39677 0.0
C3122 C 0.79315 0.53533 0.37804 0.0
C3123 C 0.81348 0.54772 0.3794 0.0
H3124 H 0.79199 0.52278 0.36499 0.0
H3125 H 0.82689 0.54491 0.36707 0.0
H3126 H 0.78355 0.44232 0.43909 0.0
H3127 H 0.70855 0.53826 0.43714 0.0
H3128 H 0.78253 0.40277 0.45228 0.0
H3129 H 0.83237 0.57311 0.39774 0.0
H3130 H 0.81699 0.59316 0.43174 0.0
H3131 H 0.80612 0.4681 0.3374 0.0
H3132 H 0.74662 0.58954 0.47252 0.0
H3133 H 0.71149 0.56655 0.46814 0.0
H3134 H 0.78686 0.35802 0.38412 0.0
H3135 H 0.78582 0.59925 0.4589 0.0
H3136 H 0.8053 0.39833 0.31577 0.0
H3137 H 0.81254 0.43922 0.30776 0.0
N3138 N 0.79362 0.44423 0.36178 0.0
C3139 C 0.79071 0.42188 0.36671 0.0
C3140 C 0.80219 0.45045 0.34107 0.0
C3141 C 0.80202 0.41104 0.32877 0.0
C3142 C 0.80617 0.43406 0.32421 0.0
C3143 C 0.79479 0.40461 0.35045 0.0
H3144 H 0.79514 0.36803 0.34437 0.0
N3145 N 0.78377 0.43377 0.40379 0.0
C3146 C 0.78573 0.41638 0.3887 0.0
C3147 C 0.78322 0.38838 0.41868 0.0
C3148 C 0.78515 0.39326 0.39557 0.0
C3149 C 0.78353 0.42895 0.42655 0.0
C3150 C 0.78305 0.40632 0.43427 0.0
O3151 O 0.75066 0.51084 0.43137 0.0
O3152 O 0.77467 0.47956 0.42878 0.0
O3153 O 0.81696 0.47053 0.38335 0.0
O3154 O 0.80222 0.49785 0.40357 0.0
O3155 O 0.75113 0.51983 0.35406 0.0
O3156 O 0.77358 0.48774 0.35079 0.0
O3157 O 0.7525 0.46699 0.36331 0.0
O3158 O 0.72339 0.49101 0.37472 0.0
O3159 O 0.72714 0.54987 0.37479 0.0
O3160 O 0.70404 0.53107 0.39584 0.0
O3161 O 0.75098 0.45969 0.40935 0.0
O3162 O 0.72294 0.48813 0.40808 0.0
C3163 C 0.76343 0.49491 0.44202 0.0
C3164 C 0.76246 0.50524 0.34037 0.0
C3165 C 0.83557 0.47884 0.41733 0.0
C3166 C 0.84841 0.44821 0.44276 0.0
C3167 C 0.86125 0.48735 0.44855 0.0
C3168 C 0.84838 0.49466 0.42985 0.0
C3169 C 0.861 0.46435 0.45519 0.0
C3170 C 0.83621 0.45548 0.4236 0.0
C3171 C 0.82079 0.4864 0.39836 0.0
C3172 C 0.78767 0.37587 0.37927 0.0
C3173 C 0.79241 0.38156 0.35666 0.0
H3174 H 0.78284 0.37088 0.42471 0.0
C3175 C 0.73114 0.47374 0.36279 0.0
C3176 C 0.73035 0.46742 0.41382 0.0
C3177 C 0.69306 0.56911 0.38555 0.0
C3178 C 0.65938 0.59279 0.37696 0.0
C3179 C 0.68985 0.60725 0.40138 0.0
C3180 C 0.70201 0.58687 0.39882 0.0
C3181 C 0.6688 0.61024 0.39057 0.0
C3182 C 0.67179 0.57217 0.37453 0.0
C3183 C 0.70623 0.54788 0.38171 0.0
H3184 H 0.87107 0.49965 0.45822 0.0
H3185 H 0.84825 0.51261 0.4253 0.0
H3186 H 0.87047 0.45918 0.47015 0.0
H3187 H 0.82672 0.44292 0.41399 0.0
H3188 H 0.69689 0.62092 0.41163 0.0
H3189 H 0.71853 0.58514 0.40692 0.0
H3190 H 0.66002 0.62644 0.39263 0.0
H3191 H 0.6649 0.55847 0.36418 0.0
C3192 C 0.77181 0.55605 0.61231 0.0
C3193 C 0.73739 0.56437 0.63347 0.0
C3194 C 0.75705 0.55069 0.62979 0.0
C3195 C 0.73324 0.58356 0.61977 0.0
C3196 C 0.76725 0.57495 0.59799 0.0
C3197 C 0.74812 0.58882 0.60205 0.0
N3198 N 0.79005 0.54225 0.60861 0.0
C3199 C 0.80374 0.54585 0.59005 0.0
C3200 C 0.78177 0.57913 0.57966 0.0
C3201 C 0.79992 0.56432 0.57552 0.0
Gd3202 Gd 0.75921 0.46684 0.64766 0.0
Gd3203 Gd 0.79706 0.51298 0.63566 0.0
N3204 N 0.7613 0.5317 0.64253 0.0
C3205 C 0.72216 0.55818 0.65057 0.0
C3206 C 0.74588 0.52551 0.65873 0.0
C3207 C 0.72632 0.5385 0.66308 0.0
H3208 H 0.7476 0.50987 0.66748 0.0
H3209 H 0.71427 0.53306 0.6759 0.0
H3210 H 0.76116 0.41803 0.61603 0.0
H3211 H 0.81741 0.5342 0.58582 0.0
H3212 H 0.76413 0.3766 0.62352 0.0
H3213 H 0.70688 0.56816 0.65386 0.0
H3214 H 0.71831 0.59421 0.62249 0.0
H3215 H 0.72542 0.48842 0.68959 0.0
H3216 H 0.77878 0.5934 0.5683 0.0
H3217 H 0.8109 0.56699 0.561 0.0
H3218 H 0.74795 0.36978 0.70307 0.0
H3219 H 0.74448 0.60344 0.59132 0.0
H3220 H 0.71963 0.43677 0.74064 0.0
H3221 H 0.7121 0.47624 0.7274 0.0
N3222 N 0.74152 0.4566 0.68207 0.0
C3223 C 0.74393 0.43436 0.68812 0.0
C3224 C 0.72889 0.47121 0.69524 0.0
C3225 C 0.72564 0.44208 0.72408 0.0
C3226 C 0.7213 0.46436 0.71666 0.0
C3227 C 0.73644 0.42655 0.70948 0.0
H3228 H 0.73369 0.39708 0.73158 0.0
N3229 N 0.75615 0.42684 0.65067 0.0
C3230 C 0.75162 0.41897 0.6719 0.0
C3231 C 0.75791 0.38012 0.65938 0.0
C3232 C 0.7525 0.3954 0.67688 0.0
C3233 C 0.75954 0.4119 0.63319 0.0
C3234 C 0.76091 0.38837 0.63734 0.0
O3235 O 0.78238 0.50433 0.59936 0.0
O3236 O 0.76095 0.47209 0.60606 0.0
O3237 O 0.72431 0.45615 0.64618 0.0
O3238 O 0.73393 0.48953 0.63199 0.0
O3239 O 0.79104 0.5162 0.6762 0.0
O3240 O 0.77094 0.4836 0.68391 0.0
O3241 O 0.79283 0.45455 0.66252 0.0
O3242 O 0.8142 0.48737 0.65839 0.0
O3243 O 0.81931 0.53927 0.65041 0.0
O3244 O 0.82966 0.52065 0.62084 0.0
O3245 O 0.7838 0.45195 0.62331 0.0
O3246 O 0.81157 0.47982 0.61941 0.0
C3247 C 0.76956 0.48757 0.59086 0.0
C3248 C 0.78226 0.50197 0.69207 0.0
C3249 C 0.70496 0.467 0.61294 0.0
C3250 C 0.68925 0.43746 0.58764 0.0
C3251 C 0.67779 0.4772 0.58341 0.0
C3252 C 0.69193 0.48352 0.60153 0.0
C3253 C 0.6763 0.45431 0.5766 0.0
C3254 C 0.70378 0.44389 0.60559 0.0
C3255 C 0.71811 0.47349 0.63358 0.0
C3256 C 0.74699 0.38779 0.69882 0.0
C3257 C 0.7389 0.40334 0.71508 0.0
H3258 H 0.75881 0.36188 0.6625 0.0
C3259 C 0.81149 0.46653 0.66603 0.0
C3260 C 0.80364 0.45889 0.61569 0.0
C3261 C 0.857 0.52428 0.64906 0.0
C3262 C 0.88703 0.52857 0.67693 0.0
C3263 C 0.88566 0.49433 0.65402 0.0
C3264 C 0.86613 0.50262 0.64326 0.0
C3265 C 0.89617 0.50729 0.67084 0.0
C3266 C 0.8675 0.53708 0.66611 0.0
C3267 C 0.83635 0.53304 0.63766 0.0
H3268 H 0.66768 0.49007 0.5748 0.0
H3269 H 0.69237 0.50125 0.60689 0.0
H3270 H 0.66501 0.44973 0.56274 0.0
H3271 H 0.71364 0.43075 0.61412 0.0
H3272 H 0.89277 0.47796 0.64912 0.0
H3273 H 0.85834 0.49203 0.63031 0.0
H3274 H 0.91171 0.50104 0.67873 0.0
H3275 H 0.86093 0.55388 0.6705 0.0
C3276 C 0.42715 0.16736 0.3036 0.0
C3277 C 0.39576 0.14129 0.29791 0.0
C3278 C 0.41922 0.14658 0.29624 0.0
C3279 C 0.38034 0.15801 0.30566 0.0
C3280 C 0.41198 0.18392 0.31242 0.0
C3281 C 0.38844 0.17936 0.31282 0.0
N3282 N 0.44998 0.17071 0.30368 0.0
C3283 C 0.45891 0.19005 0.31339 0.0
C3284 C 0.42099 0.2042 0.32128 0.0
C3285 C 0.44461 0.20712 0.32205 0.0
Gd3286 Gd 0.52208 0.13845 0.24554 0.0
Gd3287 Gd 0.47341 0.14317 0.28551 0.0
N3288 N 0.43475 0.13087 0.28918 0.0
C3289 C 0.38863 0.11912 0.29264 0.0
C3290 C 0.42789 0.10884 0.28524 0.0
C3291 C 0.40485 0.10272 0.28665 0.0
H3292 H 0.44006 0.09578 0.28099 0.0
H3293 H 0.39967 0.08528 0.28326 0.0
H3294 H 0.52451 0.16797 0.29678 0.0
H3295 H 0.47718 0.19227 0.31478 0.0
H3296 H 0.54609 0.16607 0.33191 0.0
H3297 H 0.37081 0.11429 0.2939 0.0
H3298 H 0.36223 0.15436 0.3068 0.0
H3299 H 0.54075 0.09445 0.21479 0.0
H3300 H 0.40992 0.21735 0.3282 0.0
H3301 H 0.45185 0.22243 0.32947 0.0
H3302 H 0.59361 0.10007 0.32366 0.0
H3303 H 0.37648 0.19192 0.31933 0.0
H3304 H 0.59082 0.05834 0.2539 0.0
H3305 H 0.56873 0.06291 0.21838 0.0
N3306 N 0.54708 0.10745 0.24794 0.0
C3307 C 0.55913 0.10549 0.26753 0.0
C3308 C 0.55048 0.09262 0.23029 0.0
C3309 C 0.57862 0.07223 0.25239 0.0
C3310 C 0.5662 0.07474 0.2323 0.0
C3311 C 0.57522 0.08767 0.27027 0.0
H3312 H 0.5999 0.07226 0.29305 0.0
N3313 N 0.5396 0.13836 0.28188 0.0
C3314 C 0.55528 0.12124 0.28492 0.0
C3315 C 0.56444 0.1357 0.32234 0.0
C3316 C 0.56792 0.11943 0.30532 0.0
C3317 C 0.5368 0.15461 0.29838 0.0
C3318 C 0.5489 0.15338 0.31881 0.0
O3319 O 0.46838 0.16873 0.25818 0.0
O3320 O 0.49182 0.15635 0.22921 0.0
O3321 O 0.55287 0.15492 0.23286 0.0
O3322 O 0.53136 0.13659 0.20967 0.0
O3323 O 0.46085 0.12309 0.25537 0.0
O3324 O 0.49093 0.12217 0.22925 0.0
O3325 O 0.51228 0.09975 0.25556 0.0
O3326 O 0.48048 0.10301 0.27869 0.0
O3327 O 0.47423 0.14523 0.32213 0.0
O3328 O 0.50053 0.12607 0.3044 0.0
O3329 O 0.52142 0.17771 0.25562 0.0
O3330 O 0.48921 0.18102 0.27767 0.0
C3331 C 0.47362 0.16725 0.23668 0.0
C3332 C 0.46978 0.11743 0.23561 0.0
C3333 C 0.56949 0.14352 0.1978 0.0
C3334 C 0.5898 0.14819 0.1619 0.0
C3335 C 0.60564 0.12414 0.1917 0.0
C3336 C 0.58713 0.12935 0.20574 0.0
C3337 C 0.60692 0.13334 0.16986 0.0
C3338 C 0.57107 0.1532 0.17597 0.0
C3339 C 0.54949 0.14903 0.21191 0.0
C3340 C 0.58386 0.10165 0.30809 0.0
C3341 C 0.58748 0.08582 0.29065 0.0
H3342 H 0.57379 0.13485 0.33821 0.0
C3343 C 0.49591 0.08943 0.26795 0.0
C3344 C 0.50654 0.19134 0.26637 0.0
C3345 C 0.48101 0.10814 0.33518 0.0
C3346 C 0.44915 0.08206 0.34372 0.0
C3347 C 0.48847 0.07148 0.35286 0.0
C3348 C 0.49646 0.09213 0.34396 0.0
C3349 C 0.46512 0.06635 0.35251 0.0
C3350 C 0.45726 0.10322 0.33578 0.0
C3351 C 0.48939 0.12901 0.32353 0.0
H3352 H 0.6191 0.11299 0.1978 0.0
H3353 H 0.58667 0.1224 0.22274 0.0
H3354 H 0.62143 0.1291 0.15925 0.0
H3355 H 0.55761 0.16439 0.16984 0.0
H3356 H 0.5005 0.05915 0.35962 0.0
H3357 H 0.51466 0.09545 0.34362 0.0
H3358 H 0.45953 0.04998 0.35905 0.0
H3359 H 0.44504 0.11544 0.32931 0.0
C3360 C 0.99825 0.92155 0.67821 0.0
C3361 C 1.00827 0.89746 0.64646 0.0
C3362 C 1.00653 0.90114 0.67005 0.0
C3363 C 1.0027 0.91526 0.63138 0.0
C3364 C 0.99145 0.93911 0.66321 0.0
C3365 C 0.99432 0.93609 0.63976 0.0
N3366 N 0.99535 0.92358 0.70084 0.0
C3367 C 0.98412 0.94224 0.70956 0.0
C3368 C 0.98129 0.95883 0.6722 0.0
C3369 C 0.97726 0.96021 0.69548 0.0
Gd3370 Gd 0.03547 0.88918 0.77963 0.0
Gd3371 Gd 1.01099 0.89442 0.72409 0.0
N3372 N 1.01146 0.88435 0.68518 0.0
C3373 C 1.01488 0.87582 0.63875 0.0
C3374 C 1.01683 0.86289 0.67768 0.0
C3375 C 0.01884 0.85836 0.65444 0.0
H3376 H 0.0198 0.84915 0.68951 0.0
H3377 H 0.02345 0.8414 0.64864 0.0
H3378 H 0.98644 0.92175 0.76602 0.0
H3379 H 0.98042 0.94332 0.72751 0.0
H3380 H 0.94977 0.92977 0.78338 0.0
H3381 H 1.01639 0.87226 0.62077 0.0
H3382 H 1.00422 0.91287 0.6132 0.0
H3383 H 0.05124 0.83727 0.80159 0.0
H3384 H 0.97585 0.97271 0.66127 0.0
H3385 H 0.96879 0.97505 0.7026 0.0
H3386 H 0.94321 0.87499 0.84274 0.0
H3387 H 0.98949 0.94947 0.62796 0.0
H3388 H 1.00107 0.81819 0.85047 0.0
H3389 H 0.03747 0.81055 0.83076 0.0
N3390 N 0.02289 0.86014 0.80467 0.0
C3391 C 1.00235 0.86418 0.81464 0.0
C3392 C 0.03521 0.84073 0.80997 0.0
C3393 C 1.00698 0.82997 0.83757 0.0
C3394 C 0.0275 0.82557 0.8265 0.0
C3395 C 0.99404 0.84922 0.83159 0.0
H3396 H 0.9665 0.84246 0.85512 0.0
N3397 N 0.99682 0.89667 0.79036 0.0
C3398 C 0.98916 0.88287 0.80751 0.0
C3399 C 0.95356 0.90407 0.80912 0.0
C3400 C 0.96741 0.8865 0.81741 0.0
C3401 C 0.98236 0.91276 0.78129 0.0
C3402 C 0.96087 0.9169 0.79068 0.0
O3403 O 0.04409 0.91499 0.72367 0.0
O3404 O 0.0624 0.9036 0.75649 0.0
O3405 O 0.04947 0.88253 0.81346 0.0
O3406 O 0.06287 0.90972 0.79428 0.0
O3407 O 0.04156 0.87243 0.71825 0.0
O3408 O 0.05794 0.86906 0.75427 0.0
O3409 O 0.02538 0.85174 0.7677 0.0
O3410 O 1.01252 0.85313 0.73073 0.0
O3411 O 0.97428 0.89724 0.72135 0.0
O3412 O 0.98916 0.87873 0.74964 0.0
O3413 O 0.02582 0.92861 0.7766 0.0
O3414 O 0.01879 0.93232 0.73857 0.0
C3415 C 0.06222 0.91441 0.73697 0.0
C3416 C 0.05761 0.8649 0.73203 0.0
C3417 C 0.08928 0.88696 0.81322 0.0
C3418 C 0.12943 0.89351 0.82195 0.0
C3419 C 0.11802 0.85999 0.80025 0.0
C3420 C 0.0953 0.86711 0.80117 0.0
C3421 C 0.13507 0.87321 0.81032 0.0
C3422 C 0.10625 0.89965 0.82411 0.0
C3423 C 0.06614 0.89649 0.8114 0.0
C3424 C 0.95971 0.87217 0.83489 0.0
C3425 C 0.97295 0.85361 0.84192 0.0
H3426 H 0.9368 0.90728 0.81625 0.0
C3427 C 0.01747 0.84046 0.74951 0.0
C3428 C 0.02281 0.94249 0.75867 0.0
C3429 C 0.9598 0.86047 0.72755 0.0
C3430 C 0.94857 0.83656 0.69476 0.0
C3431 C 0.94384 0.82268 0.73351 0.0
C3432 C 0.95282 0.84304 0.74225 0.0
C3433 C 0.94177 0.81941 0.71003 0.0
C3434 C 0.95755 0.85704 0.70375 0.0
C3435 C 0.97118 0.88141 0.73652 0.0
H3436 H 0.12255 0.84476 0.7908 0.0
H3437 H 0.08263 0.85758 0.79179 0.0
H3438 H 0.15268 0.86804 0.80797 0.0
H3439 H 0.10136 0.91499 0.83325 0.0
H3440 H 0.93853 0.80928 0.745 0.0
H3441 H 0.95463 0.84504 0.76045 0.0
H3442 H 0.93453 0.80354 0.70386 0.0
H3443 H 0.96332 0.87006 0.69204 0.0
C3444 C 0.43766 0.85074 0.22981 0.0
C3445 C 0.4006 0.86863 0.23421 0.0
C3446 C 0.42461 0.86953 0.23588 0.0
C3447 C 0.38995 0.84801 0.228 0.0
C3448 C 0.42715 0.83058 0.22184 0.0
C3449 C 0.40322 0.82901 0.22181 0.0
N3450 N 0.46069 0.85299 0.22977 0.0
C3451 C 0.47411 0.83669 0.21958 0.0
C3452 C 0.44096 0.81301 0.21326 0.0
C3453 C 0.46451 0.81632 0.21163 0.0
Gd3454 Gd 0.51731 0.89217 0.29209 0.0
Gd3455 Gd 0.47492 0.88569 0.24882 0.0
N3456 N 0.43549 0.88924 0.24151 0.0
C3457 C 0.3881 0.88871 0.23795 0.0
C3458 C 0.42352 0.90922 0.24339 0.0
C3459 C 0.39966 0.90921 0.242 0.0
H3460 H 0.43239 0.9252 0.24593 0.0
H3461 H 0.3902 0.92501 0.24398 0.0
H3462 H 0.51398 0.86601 0.23861 0.0
H3463 H 0.49238 0.83907 0.21833 0.0
H3464 H 0.53897 0.85791 0.20706 0.0
H3465 H 0.36962 0.88876 0.2368 0.0
H3466 H 0.3715 0.84685 0.22705 0.0
H3467 H 0.53891 0.94015 0.31645 0.0
H3468 H 0.43354 0.79724 0.20702 0.0
H3469 H 0.4753 0.80318 0.20433 0.0
H3470 H 0.60342 0.90596 0.21993 0.0
H3471 H 0.39481 0.81351 0.21618 0.0
H3472 H 0.60121 0.95704 0.28309 0.0
H3473 H 0.57317 0.96396 0.31361 0.0
N3474 N 0.54747 0.91884 0.28817 0.0
C3475 C 0.56228 0.91534 0.27085 0.0
C3476 C 0.55111 0.93638 0.30324 0.0
C3477 C 0.58622 0.94628 0.28435 0.0
C3478 C 0.57046 0.95022 0.30158 0.0
C3479 C 0.58214 0.92889 0.26856 0.0
H3480 H 0.61251 0.93512 0.24853 0.0
N3481 N 0.537 0.88718 0.25669 0.0
C3482 C 0.557 0.89895 0.25473 0.0
C3483 C 0.56549 0.88017 0.21906 0.0
C3484 C 0.57173 0.89569 0.23593 0.0
C3485 C 0.53055 0.87305 0.23934 0.0
C3486 C 0.54459 0.86912 0.22059 0.0
O3487 O 0.45877 0.86914 0.27859 0.0
O3488 O 0.48763 0.87101 0.30531 0.0
O3489 O 0.54236 0.87481 0.31396 0.0
O3490 O 0.52411 0.90398 0.3261 0.0
O3491 O 0.45864 0.90894 0.27436 0.0
O3492 O 0.48377 0.90872 0.30488 0.0
O3493 O 0.51102 0.9298 0.27916 0.0
O3494 O 0.48081 0.92684 0.25418 0.0
O3495 O 0.47273 0.88414 0.21248 0.0
O3496 O 0.49902 0.90537 0.22795 0.0
O3497 O 0.52024 0.85241 0.28306 0.0
O3498 O 0.48893 0.84803 0.26033 0.0
C3499 C 0.46705 0.86471 0.29872 0.0
C3500 C 0.46394 0.91437 0.2954 0.0
C3501 C 0.53134 0.87571 0.35276 0.0
C3502 C 0.54179 0.85919 0.38928 0.0
C3503 C 0.50184 0.863 0.37886 0.0
C3504 C 0.50815 0.87279 0.35829 0.0
C3505 C 0.51853 0.85605 0.39422 0.0
C3506 C 0.54818 0.86912 0.36848 0.0
C3507 C 0.53761 0.88739 0.33151 0.0
C3508 C 0.59194 0.90844 0.23414 0.0
C3509 C 0.59711 0.92504 0.2504 0.0
H3510 H 0.57626 0.87726 0.20438 0.0
C3511 C 0.49593 0.94027 0.26567 0.0
C3512 C 0.50607 0.83812 0.27202 0.0
C3513 C 0.47619 0.92086 0.19742 0.0
C3514 C 0.44154 0.94032 0.18317 0.0
C3515 C 0.47923 0.95744 0.17834 0.0
C3516 C 0.48956 0.93895 0.18946 0.0
C3517 C 0.45549 0.95819 0.17523 0.0
C3518 C 0.45222 0.9217 0.19401 0.0
C3519 C 0.48665 0.9012 0.2097 0.0
H3520 H 0.48396 0.86113 0.38306 0.0
H3521 H 0.49481 0.87862 0.34698 0.0
H3522 H 0.51327 0.84865 0.41024 0.0
H3523 H 0.56609 0.87174 0.36461 0.0
H3524 H 0.48969 0.97133 0.17211 0.0
H3525 H 0.50791 0.93879 0.19183 0.0
H3526 H 0.44815 0.97266 0.16636 0.0
H3527 H 0.44167 0.90791 0.20011 0.0
C3528 C 0.92175 0.67825 0.98503 0.0
C3529 C 0.89225 0.64961 0.98893 0.0
C3530 C 0.89945 0.67262 0.99006 0.0
C3531 C 0.90823 0.63232 0.98407 0.0
C3532 C 0.93765 0.66108 0.97905 0.0
C3533 C 0.93092 0.63805 0.9792 0.0
N3534 N 0.92745 0.70072 0.98436 0.0
C3535 C 0.94842 0.70719 0.97637 0.0
C3536 C 0.95956 0.66763 0.97225 0.0
C3537 C 0.96483 0.69081 0.97056 0.0
Gd3538 Gd 0.89426 0.77518 0.04273 0.0
Gd3539 Gd 0.89957 0.72729 0.99676 0.0
N3540 N 0.88439 0.68982 0.99422 0.0
C3541 C 0.86906 0.64474 0.9918 0.0
C3542 C 0.86154 0.68519 0.99569 0.0
C3543 C 0.8536 0.66266 0.99486 0.0
H3544 H 0.84923 0.6988 0.99743 0.0
H3545 H 0.83551 0.65915 0.99635 0.0
H3546 H 0.91518 0.78229 0.98921 0.0
H3547 H 0.95258 0.72493 0.97384 0.0
H3548 H 0.91007 0.80843 0.95722 0.0
H3549 H 0.86283 0.62732 0.9909 0.0
H3550 H 0.90306 0.61455 0.98335 0.0
H3551 H 0.85243 0.78686 0.0787 0.0
H3552 H 0.97224 0.65498 0.96748 0.0
H3553 H 0.98144 0.69611 0.96448 0.0
H3554 H 0.84897 0.85783 0.98055 0.0
H3555 H 0.94292 0.62462 0.97484 0.0
H3556 H 0.81375 0.84333 0.05253 0.0
H3557 H 0.82078 0.81477 0.08274 0.0
N3558 N 0.86286 0.79959 0.04659 0.0
C3559 C 0.85931 0.815 0.02982 0.0
C3560 C 0.84935 0.7993 0.06547 0.0
C3561 C 0.82759 0.83114 0.0507 0.0
C3562 C 0.83147 0.81502 0.06778 0.0
C3563 C 0.84152 0.83122 0.03138 0.0
H3564 H 0.82458 0.85949 1.0145 0.0
N3565 N 0.8897 0.79765 1.00972 0.0
C3566 C 0.8731 0.81398 1.01077 0.0
C3567 C 0.88303 0.8274 0.97331 0.0
C3568 C 0.86936 0.82931 0.99265 0.0
C3569 C 0.90267 0.79548 0.99065 0.0
C3570 C 0.89963 0.81029 0.97225 0.0
O3571 O 0.9236 0.71174 0.02272 0.0
O3572 O 0.91163 0.74344 0.03436 0.0
O3573 O 0.91449 0.80135 0.05913 0.0
O3574 O 0.89588 0.77721 0.07969 0.0
O3575 O 0.87694 0.71708 0.0268 0.0
O3576 O 0.88146 0.74225 0.05777 0.0
O3577 O 0.85604 0.76577 0.03254 0.0
O3578 O 0.85937 0.73831 1.00398 0.0
O3579 O 0.90178 0.71875 0.96128 0.0
O3580 O 0.88479 0.75025 0.97119 0.0
O3581 O 0.93297 0.77497 0.03021 0.0
O3582 O 0.93574 0.74893 1.00036 0.0
C3583 C 0.92348 0.72531 0.03988 0.0
C3584 C 0.87411 0.72302 0.0484 0.0
C3585 C 0.90334 0.81373 0.09546 0.0
C3586 C 0.90894 0.83154 0.1323 0.0
C3587 C 0.88429 0.84955 0.10444 0.0
C3588 C 0.88912 0.83202 0.08906 0.0
C3589 C 0.8941 0.84931 0.12603 0.0
C3590 C 0.91345 0.8137 0.11705 0.0
C3591 C 0.9089 0.79521 0.07956 0.0
C3592 C 0.85197 0.84585 0.99427 0.0
C3593 C 0.83808 0.8468 1.01359 0.0
H3594 H 0.88071 0.83883 0.95902 0.0
C3595 C 0.84577 0.75206 0.01723 0.0
C3596 C 0.9461 0.76412 1.01467 0.0
C3597 C 0.86661 0.72565 0.9436 0.0
C3598 C 0.84156 0.69333 0.93326 0.0
C3599 C 0.83023 0.7327 0.92511 0.0
C3600 C 0.85041 0.74092 0.9348 0.0
C3601 C 0.82573 0.70921 0.92451 0.0
C3602 C 0.86229 0.70172 0.94212 0.0
C3603 C 0.88734 0.73451 0.95537 0.0
H3604 H 0.87319 0.86352 0.09949 0.0
H3605 H 0.88203 0.83298 0.07215 0.0
H3606 H 0.89053 0.86322 0.13768 0.0
H3607 H 0.92497 0.79997 0.12191 0.0
H3608 H 0.81779 0.74463 0.91837 0.0
H3609 H 0.85327 0.75921 0.93563 0.0
H3610 H 0.80973 0.70346 0.91724 0.0
H3611 H 0.87458 0.68955 0.94867 0.0
C3612 C 0.61925 0.37239 0.51256 0.0
C3613 C 0.65292 0.3959 0.51504 0.0
C3614 C 0.64256 0.37433 0.51211 0.0
C3615 C 0.6394 0.41491 0.52087 0.0
C3616 C 0.60533 0.39172 0.51642 0.0
C3617 C 0.61556 0.41281 0.52157 0.0
N3618 N 0.61022 0.35204 0.50654 0.0
C3619 C 0.5873 0.35022 0.50235 0.0
C3620 C 0.58168 0.38952 0.51374 0.0
C3621 C 0.57268 0.36877 0.5062 0.0
Gd3622 Gd 0.64234 0.26315 0.54137 0.0
Gd3623 Gd 0.63503 0.32015 0.50533 0.0
N3624 N 0.65476 0.35568 0.50573 0.0
C3625 C 0.67624 0.39799 0.51048 0.0
C3626 C 0.67694 0.35827 0.49902 0.0
C3627 C 0.68815 0.37922 0.50184 0.0
H3628 H 0.68603 0.34446 0.49097 0.0
H3629 H 0.70594 0.38091 0.4972 0.0
H3630 H 0.61523 0.26164 0.48884 0.0
H3631 H 0.58004 0.33455 0.49603 0.0
H3632 H 0.62068 0.24297 0.45243 0.0
H3633 H 0.68489 0.41425 0.51245 0.0
H3634 H 0.64709 0.43152 0.52365 0.0
H3635 H 0.68671 0.24746 0.5725 0.0
H3636 H 0.57036 0.40396 0.51646 0.0
H3637 H 0.55451 0.36706 0.5032 0.0
H3638 H 0.68995 0.20037 0.46093 0.0
H3639 H 0.60519 0.42781 0.52494 0.0
H3640 H 0.72871 0.20287 0.53248 0.0
H3641 H 0.72102 0.22278 0.56876 0.0
N3642 N 0.67559 0.24148 0.5387 0.0
C3643 C 0.67924 0.23059 0.51868 0.0
C3644 C 0.69011 0.23876 0.55665 0.0
C3645 C 0.71368 0.21361 0.53407 0.0
C3646 C 0.70944 0.22485 0.55457 0.0
C3647 C 0.69856 0.21641 0.51581 0.0
H3648 H 0.71699 0.19463 0.49235 0.0
N3649 N 0.64549 0.24824 0.50404 0.0
C3650 C 0.66394 0.23418 0.50086 0.0
C3651 C 0.652 0.22648 0.46228 0.0
C3652 C 0.66769 0.22312 0.47984 0.0
C3653 C 0.62984 0.25086 0.48699 0.0
C3654 C 0.63298 0.24033 0.46592 0.0
O3655 O 0.61193 0.32189 0.53605 0.0
O3656 O 0.61494 0.28705 0.55587 0.0
O3657 O 0.63006 0.22854 0.54783 0.0
O3658 O 0.64105 0.2499 0.57574 0.0
O3659 O 0.6486 0.30351 0.53444 0.0
O3660 O 0.65696 0.29 0.5661 0.0
O3661 O 0.68015 0.27641 0.52956 0.0
O3662 O 0.67565 0.31177 0.51108 0.0
O3663 O 0.62594 0.32529 0.47002 0.0
O3664 O 0.64469 0.2951 0.47987 0.0
O3665 O 0.60342 0.26669 0.52733 0.0
O3666 O 0.59856 0.30091 0.50728 0.0
C3667 C 0.60645 0.30791 0.55288 0.0
C3668 C 0.65648 0.30863 0.5545 0.0
C3669 C 0.63826 0.21023 0.58323 0.0
C3670 C 0.62967 0.1873 0.61666 0.0
C3671 C 0.66166 0.17721 0.59234 0.0
C3672 C 0.65648 0.19557 0.57795 0.0
C3673 C 0.64843 0.17315 0.61173 0.0
C3674 C 0.62489 0.2059 0.60241 0.0
C3675 C 0.63238 0.23043 0.56968 0.0
C3676 C 0.68687 0.20892 0.47697 0.0
C3677 C 0.70226 0.2056 0.49487 0.0
H3678 H 0.65432 0.21834 0.44591 0.0
C3679 C 0.68971 0.29478 0.51916 0.0
C3680 C 0.58932 0.28173 0.5164 0.0
C3681 C 0.65751 0.31499 0.44761 0.0
C3682 C 0.68505 0.34376 0.43537 0.0
C3683 C 0.69025 0.30389 0.42485 0.0
C3684 C 0.67029 0.29804 0.43649 0.0
C3685 C 0.69783 0.32657 0.4246 0.0
C3686 C 0.66469 0.33797 0.44635 0.0
C3687 C 0.63888 0.30853 0.46319 0.0
H3688 H 0.67585 0.16601 0.58838 0.0
H3689 H 0.66658 0.19822 0.56284 0.0
H3690 H 0.65248 0.1587 0.62252 0.0
H3691 H 0.61068 0.21717 0.60636 0.0
H3692 H 0.70024 0.29071 0.41657 0.0
H3693 H 0.66525 0.28024 0.43746 0.0
H3694 H 0.71374 0.33068 0.41618 0.0
H3695 H 0.65528 0.3513 0.45511 0.0
C3696 C 0.18077 0.53608 0.09924 0.0
C3697 C 0.14754 0.52685 0.1217 0.0
C3698 C 0.17143 0.52878 0.11943 0.0
C3699 C 0.13342 0.5306 0.10274 0.0
C3700 C 0.16658 0.5418 0.08071 0.0
C3701 C 0.14294 0.53809 0.08225 0.0
N3702 N 0.20353 0.5401 0.09868 0.0
C3703 C 0.21277 0.55232 0.08111 0.0
C3704 C 0.1764 0.55228 0.06174 0.0
C3705 C 0.19952 0.55809 0.0622 0.0
Gd3706 Gd 0.27634 0.49111 0.13632 0.0
Gd3707 Gd 0.22509 0.5259 0.12968 0.0
N3708 N 0.18558 0.52601 0.1375 0.0
C3709 C 0.13852 0.5225 0.14323 0.0
C3710 C 0.17678 0.52349 0.15879 0.0
C3711 C 0.15316 0.5215 0.16194 0.0
H3712 H 0.18795 0.52295 0.17338 0.0
H3713 H 0.14622 0.51942 0.1788 0.0
H3714 H 0.27486 0.5419 0.10517 0.0
H3715 H 0.23051 0.55746 0.08156 0.0
H3716 H 0.29264 0.57919 0.10648 0.0
H3717 H 0.12025 0.52102 0.14575 0.0
H3718 H 0.11505 0.52882 0.10405 0.0
H3719 H 0.29746 0.46337 0.18067 0.0
H3720 H 0.16609 0.55699 0.04718 0.0
H3721 H 0.20711 0.56715 0.0481 0.0
H3722 H 0.33901 0.57758 0.17321 0.0
H3723 H 0.13179 0.542 0.06807 0.0
H3724 H 0.34246 0.50849 0.21645 0.0
H3725 H 0.32419 0.47058 0.21247 0.0
N3726 N 0.3008 0.49684 0.16701 0.0
C3727 C 0.31075 0.5177 0.16862 0.0
C3728 C 0.30556 0.4799 0.18228 0.0
C3729 C 0.33082 0.50538 0.20246 0.0
C3730 C 0.32055 0.48396 0.2003 0.0
C3731 C 0.32602 0.52254 0.18656 0.0
H3732 H 0.34777 0.54829 0.20177 0.0
N3733 N 0.29057 0.52918 0.13527 0.0
C3734 C 0.30548 0.53429 0.15245 0.0
C3735 C 0.31108 0.57232 0.13728 0.0
C3736 C 0.31589 0.55606 0.15395 0.0
C3737 C 0.28654 0.545 0.11863 0.0
C3738 C 0.29646 0.5667 0.1195 0.0
O3739 O 0.21641 0.49156 0.11308 0.0
O3740 O 0.25112 0.4727 0.11417 0.0
O3741 O 0.31001 0.48005 0.12471 0.0
O3742 O 0.28663 0.45529 0.13832 0.0
O3743 O 0.21633 0.49769 0.15334 0.0
O3744 O 0.24697 0.47221 0.1539 0.0
O3745 O 0.26523 0.50204 0.17415 0.0
O3746 O 0.23355 0.52529 0.1705 0.0
O3747 O 0.21539 0.56132 0.12892 0.0
O3748 O 0.24814 0.55148 0.14396 0.0
O3749 O 0.2757 0.49997 0.0964 0.0
O3750 O 0.24214 0.51959 0.09286 0.0
C3751 C 0.22953 0.47383 0.10821 0.0
C3752 C 0.22588 0.47828 0.15942 0.0
C3753 C 0.32561 0.4439 0.13624 0.0
C3754 C 0.3448 0.40661 0.13377 0.0
C3755 C 0.3618 0.43786 0.1554 0.0
C3756 C 0.34363 0.45224 0.14955 0.0
C3757 C 0.36245 0.41526 0.14758 0.0
C3758 C 0.32628 0.42111 0.12843 0.0
C3759 C 0.30639 0.45859 0.12906 0.0
C3760 C 0.331 0.56094 0.17185 0.0
C3761 C 0.33603 0.54426 0.18811 0.0
H3762 H 0.31869 0.58919 0.13787 0.0
C3763 C 0.2497 0.51575 0.18428 0.0
C3764 C 0.26008 0.5096 0.08253 0.0
C3765 C 0.22515 0.58011 0.16269 0.0
C3766 C 0.19502 0.59295 0.18886 0.0
C3767 C 0.23491 0.60199 0.19636 0.0
C3768 C 0.24156 0.59054 0.17658 0.0
C3769 C 0.21187 0.60305 0.20257 0.0
C3770 C 0.20174 0.5816 0.1689 0.0
C3771 C 0.23233 0.56748 0.14196 0.0
H3772 H 0.37566 0.44437 0.16571 0.0
H3773 H 0.34382 0.46986 0.15522 0.0
H3774 H 0.37713 0.40479 0.15182 0.0
H3775 H 0.31238 0.41477 0.11801 0.0
H3776 H 0.24771 0.6099 0.20706 0.0
H3777 H 0.25952 0.58971 0.17221 0.0
H3778 H 0.20717 0.61171 0.21815 0.0
H3779 H 0.18869 0.57352 0.15861 0.0
C3780 C 0.32425 0.5567 0.93427 0.0
C3781 C 0.3636 0.54483 0.94144 0.0
C3782 C 0.34365 0.54392 0.92792 0.0
C3783 C 0.36372 0.55779 0.9615 0.0
C3784 C 0.32505 0.57074 0.95379 0.0
C3785 C 0.34458 0.57072 0.96761 0.0
N3786 N 0.30516 0.55647 0.92089 0.0
C3787 C 0.2882 0.57226 0.92405 0.0
C3788 C 0.3065 0.58517 0.95844 0.0
C3789 C 0.28827 0.58633 0.94321 0.0
Gd3790 Gd 0.26295 0.48352 0.87942 0.0
Gd3791 Gd 0.30812 0.53217 0.88952 0.0
N3792 N 0.34354 0.53168 0.90816 0.0
C3793 C 0.38317 0.53315 0.93417 0.0
C3794 C 0.363 0.52119 0.90052 0.0
C3795 C 0.38293 0.52149 0.91353 0.0
H3796 H 0.36294 0.51209 0.88466 0.0
H3797 H 0.39811 0.51274 0.9076 0.0
H3798 H 0.26588 0.53941 0.89502 0.0
H3799 H 0.2747 0.57391 0.91183 0.0
H3800 H 0.23875 0.57192 0.90043 0.0
H3801 H 0.39874 0.53345 0.94415 0.0
H3802 H 0.37884 0.55845 0.97212 0.0
H3803 H 0.24468 0.45462 0.83475 0.0
H3804 H 0.30656 0.59622 0.97322 0.0
H3805 H 0.27442 0.59829 0.94606 0.0
H3806 H 0.17131 0.54738 0.86185 0.0
H3807 H 0.34529 0.58119 0.98279 0.0
H3808 H 0.17767 0.47882 0.81747 0.0
H3809 H 0.20932 0.45123 0.81163 0.0
N3810 N 0.23217 0.48229 0.85422 0.0
C3811 C 0.21571 0.49828 0.85684 0.0
C3812 C 0.23052 0.46602 0.83776 0.0
C3813 C 0.19291 0.47997 0.82787 0.0
C3814 C 0.21073 0.46437 0.82451 0.0
C3815 C 0.19549 0.49756 0.84383 0.0
H3816 H 0.16329 0.51456 0.83686 0.0
N3817 N 0.24112 0.51755 0.8811 0.0
C3818 C 0.22027 0.51656 0.8709 0.0
C3819 C 0.21113 0.55453 0.88414 0.0
C3820 C 0.20463 0.53489 0.8723 0.0
C3821 C 0.24838 0.53756 0.89033 0.0
C3822 C 0.23332 0.55613 0.89262 0.0
O3823 O 0.32369 0.49837 0.90009 0.0
O3824 O 0.28995 0.47873 0.90725 0.0
O3825 O 0.23457 0.46235 0.89173 0.0
O3826 O 0.26546 0.44681 0.87829 0.0
O3827 O 0.29938 0.50188 0.87071 0.0
O3828 O 0.29289 0.46916 0.85853 0.0
O3829 O 0.2676 0.50058 0.84248 0.0
O3830 O 0.29271 0.53078 0.8501 0.0
O3831 O 0.33544 0.5486 0.87162 0.0
O3832 O 0.30192 0.56568 0.87513 0.0
O3833 O 0.2632 0.49547 0.91918 0.0
O3834 O 0.28771 0.52638 0.92498 0.0
C3835 C 0.31237 0.4811 0.90916 0.0
C3836 C 0.30828 0.48472 0.85952 0.0
C3837 C 0.23329 0.42243 0.88127 0.0
C3838 C 0.21409 0.38823 0.89537 0.0
C3839 C 0.22773 0.38977 0.85641 0.0
C3840 C 0.23657 0.41157 0.86024 0.0
C3841 C 0.21685 0.378 0.87389 0.0
C3842 C 0.22152 0.41091 0.89847 0.0
C3843 C 0.24559 0.44345 0.88748 0.0
C3844 C 0.18365 0.53358 0.86072 0.0
C3845 C 0.17909 0.51492 0.84646 0.0
H3846 H 0.19968 0.56904 0.88561 0.0
C3847 C 0.27952 0.51872 0.83468 0.0
C3848 C 0.273 0.51088 0.93376 0.0
C3849 C 0.33572 0.58876 0.87637 0.0
C3850 C 0.37132 0.61068 0.87678 0.0
C3851 C 0.33603 0.6277 0.89074 0.0
C3852 C 0.32412 0.60764 0.88561 0.0
C3853 C 0.35941 0.62937 0.88614 0.0
C3854 C 0.35932 0.59025 0.87271 0.0
C3855 C 0.32366 0.56766 0.86952 0.0
H3856 H 0.23039 0.38148 0.84018 0.0
H3857 H 0.2468 0.41929 0.84712 0.0
H3858 H 0.2117 0.3605 0.8708 0.0
H3859 H 0.21938 0.41928 0.91476 0.0
H3860 H 0.32698 0.64224 0.89776 0.0
H3861 H 0.30591 0.60703 0.88871 0.0
H3862 H 0.36789 0.64551 0.88924 0.0
H3863 H 0.3683 0.57543 0.86618 0.0
C3864 C 0.22288 0.59116 0.67745 0.0
C3865 C 0.22584 0.63093 0.66633 0.0
C3866 C 0.22914 0.60751 0.66163 0.0
C3867 C 0.21722 0.63763 0.68759 0.0
C3868 C 0.2125 0.59772 0.69804 0.0
C3869 C 0.21047 0.62105 0.70338 0.0
N3870 N 0.22508 0.5688 0.67177 0.0
C3871 C 0.21449 0.55227 0.68442 0.0
C3872 C 0.20362 0.58068 0.71217 0.0
C3873 C 0.20409 0.55789 0.70503 0.0
Gd3874 Gd 0.29448 0.52349 0.63243 0.0
Gd3875 Gd 0.24732 0.56151 0.63912 0.0
N3876 N 0.23695 0.60039 0.64107 0.0
C3877 C 0.23062 0.64686 0.64928 0.0
C3878 C 0.24031 0.61575 0.62398 0.0
C3879 C 0.23745 0.63919 0.62787 0.0
H3880 H 0.24493 0.60996 0.60724 0.0
H3881 H 0.24046 0.65132 0.61434 0.0
H3882 H 0.24271 0.51593 0.66043 0.0
H3883 H 0.21481 0.53463 0.67901 0.0
H3884 H 0.21365 0.48673 0.66404 0.0
H3885 H 0.22836 0.66502 0.65223 0.0
H3886 H 0.21491 0.65557 0.69165 0.0
H3887 H 0.32253 0.51078 0.58512 0.0
H3888 H 0.19552 0.58501 0.72814 0.0
H3889 H 0.19653 0.54466 0.71541 0.0
H3890 H 0.23401 0.431 0.60819 0.0
H3891 H 0.20299 0.62644 0.71933 0.0
H3892 H 0.29825 0.44628 0.56051 0.0
H3893 H 0.32546 0.47852 0.55795 0.0
N3894 N 0.29499 0.49625 0.60331 0.0
C3895 C 0.27948 0.47916 0.60464 0.0
C3896 C 0.31116 0.49636 0.58665 0.0
C3897 C 0.29715 0.46024 0.57257 0.0
C3898 C 0.31256 0.47837 0.57109 0.0
C3899 C 0.28019 0.46059 0.5893 0.0
H3900 H 0.26427 0.42865 0.57945 0.0
N3901 N 0.26195 0.49911 0.6351 0.0
C3902 C 0.26246 0.48062 0.62093 0.0
C3903 C 0.22816 0.4654 0.63806 0.0
C3904 C 0.24566 0.46328 0.62214 0.0
C3905 C 0.24447 0.50121 0.65025 0.0
C3906 C 0.22743 0.4846 0.65199 0.0
O3907 O 0.27586 0.58095 0.6546 0.0
O3908 O 0.30396 0.55316 0.65523 0.0
O3909 O 0.31601 0.49542 0.64512 0.0
O3910 O 0.33117 0.52396 0.62768 0.0
O3911 O 0.27237 0.58043 0.61689 0.0
O3912 O 0.3048 0.55742 0.61584 0.0
O3913 O 0.28018 0.53014 0.59487 0.0
O3914 O 0.25289 0.5584 0.59808 0.0
O3915 O 0.21083 0.56261 0.63682 0.0
O3916 O 0.22945 0.53488 0.61985 0.0
O3917 O 0.28683 0.52075 0.6724 0.0
O3918 O 0.25853 0.5473 0.67623 0.0
C3919 C 0.29618 0.57368 0.66037 0.0
C3920 C 0.2939 0.57677 0.61116 0.0
C3921 C 0.35449 0.49065 0.6314 0.0
C3922 C 0.38639 0.46632 0.64332 0.0
C3923 C 0.38461 0.48079 0.60472 0.0
C3924 C 0.36454 0.49264 0.60984 0.0
C3925 C 0.39554 0.46777 0.62133 0.0
C3926 C 0.3655 0.47735 0.64802 0.0
C3927 C 0.33481 0.50491 0.63831 0.0
C3928 C 0.24666 0.44448 0.60731 0.0
C3929 C 0.26389 0.44313 0.59094 0.0
H3930 H 0.21493 0.45254 0.63946 0.0
C3931 C 0.26537 0.54432 0.58445 0.0
C3932 C 0.27322 0.5328 0.6864 0.0
C3933 C 0.19964 0.55515 0.5998 0.0
C3934 C 0.18956 0.58773 0.57558 0.0
C3935 C 0.17994 0.54896 0.56407 0.0
C3936 C 0.18981 0.54022 0.58398 0.0
C3937 C 0.18001 0.57257 0.55973 0.0
C3938 C 0.19911 0.57891 0.59543 0.0
C3939 C 0.21028 0.54685 0.62112 0.0
H3940 H 0.39213 0.48234 0.58802 0.0
H3941 H 0.35753 0.5039 0.59714 0.0
H3942 H 0.41142 0.45922 0.61713 0.0
H3943 H 0.35854 0.47682 0.66506 0.0
H3944 H 0.1723 0.53738 0.55189 0.0
H3945 H 0.18973 0.52195 0.58703 0.0
H3946 H 0.17252 0.57899 0.54416 0.0
H3947 H 0.20627 0.59083 0.60744 0.0
C3948 C 0.2863 0.61698 0.35388 0.0
C3949 C 0.2807 0.64953 0.3785 0.0
C3950 C 0.27947 0.62577 0.37439 0.0
C3951 C 0.28767 0.66428 0.36102 0.0
C3952 C 0.2946 0.6315 0.33665 0.0
C3953 C 0.2946 0.65527 0.34009 0.0
N3954 N 0.28655 0.59399 0.35149 0.0
C3955 C 0.29668 0.58428 0.33286 0.0
C3956 C 0.30347 0.62164 0.31689 0.0
C3957 C 0.3049 0.59788 0.31518 0.0
Gd3958 Gd 0.23695 0.51996 0.38785 0.0
Gd3959 Gd 0.26898 0.57192 0.38026 0.0
N3960 N 0.27328 0.61088 0.39089 0.0
C3961 C 0.27571 0.65764 0.40026 0.0
C3962 C 0.26952 0.61871 0.41245 0.0
C3963 C 0.2705 0.6421 0.4174 0.0
H3964 H 0.26554 0.60714 0.42603 0.0
H3965 H 0.26728 0.64811 0.43448 0.0
H3966 H 0.28561 0.5211 0.35374 0.0
H3967 H 0.29861 0.56593 0.3316 0.0
H3968 H 0.32227 0.50176 0.35196 0.0
H3969 H 0.27652 0.67574 0.40415 0.0
H3970 H 0.28844 0.6826 0.36376 0.0
H3971 H 0.21222 0.4996 0.43439 0.0
H3972 H 0.31003 0.63218 0.30327 0.0
H3973 H 0.31249 0.59002 0.30035 0.0
H3974 H 0.32416 0.45447 0.41797 0.0
H3975 H 0.30065 0.66674 0.32698 0.0
H3976 H 0.25882 0.45325 0.46649 0.0
H3977 H 0.22118 0.47247 0.46537 0.0
N3978 N 0.24463 0.49588 0.41851 0.0
C3979 C 0.2652 0.48514 0.4184 0.0
C3980 C 0.22869 0.4912 0.43481 0.0
C3981 C 0.25498 0.46512 0.4529 0.0
C3982 C 0.23371 0.47593 0.45234 0.0
C3983 C 0.27097 0.46954 0.43579 0.0
H3984 H 0.29705 0.44667 0.44873 0.0
N3985 N 0.27443 0.50461 0.38401 0.0
C3986 C 0.28047 0.48962 0.40081 0.0
C3987 C 0.31698 0.48285 0.38273 0.0
C3988 C 0.30192 0.47844 0.40055 0.0
C3989 C 0.28923 0.50869 0.36651 0.0
C3990 C 0.3106 0.49803 0.36569 0.0
O3991 O 0.23567 0.57711 0.36054 0.0
O3992 O 0.21545 0.54399 0.36739 0.0
O3993 O 0.22699 0.48602 0.37626 0.0
O3994 O 0.20206 0.50793 0.3922 0.0
O3995 O 0.23938 0.58255 0.40103 0.0
O3996 O 0.21703 0.5498 0.40493 0.0
O3997 O 0.24826 0.5316 0.42549 0.0
O3998 O 0.26562 0.56671 0.42124 0.0
O3999 O 0.30581 0.57096 0.3784 0.0
O4000 O 0.28757 0.54445 0.39671 0.0
O4001 O 0.24431 0.52087 0.34723 0.0
O4002 O 0.26077 0.5561 0.34309 0.0
C4003 C 0.21704 0.56453 0.35864 0.0
C4004 C 0.221 0.57201 0.4082 0.0
C4005 C 0.19305 0.46844 0.39026 0.0
C4006 C 0.15809 0.44632 0.38585 0.0
C4007 C 0.18968 0.43132 0.40825 0.0
C4008 C 0.20269 0.45074 0.40319 0.0
C4009 C 0.16753 0.42897 0.39948 0.0
C4010 C 0.17067 0.46639 0.38231 0.0
C4011 C 0.20591 0.48844 0.38253 0.0
C4012 C 0.30775 0.46311 0.41797 0.0
C4013 C 0.29233 0.45867 0.43551 0.0
H4014 H 0.33359 0.47466 0.382 0.0
C4015 C 0.2583 0.54978 0.43536 0.0
C4016 C 0.25228 0.53714 0.33299 0.0
C4017 C 0.32127 0.56023 0.41364 0.0
C4018 C 0.34172 0.58816 0.43744 0.0
C4019 C 0.3433 0.54745 0.44617 0.0
C4020 C 0.3293 0.54254 0.42756 0.0
C4021 C 0.34965 0.56999 0.45094 0.0
C4022 C 0.32719 0.5832 0.41898 0.0
C4023 C 0.30722 0.55464 0.39337 0.0
H4024 H 0.19708 0.41768 0.41828 0.0
H4025 H 0.22022 0.45168 0.40896 0.0
H4026 H 0.1583 0.41323 0.40249 0.0
H4027 H 0.16343 0.48015 0.37223 0.0
H4028 H 0.34954 0.53366 0.45676 0.0
H4029 H 0.32491 0.52491 0.42391 0.0
H4030 H 0.36091 0.57327 0.46519 0.0
H4031 H 0.3212 0.59715 0.40843 0.0
H4032 H 0.0668 0.48205 0.27005 0.0
H4033 H 0.99594 0.47373 0.25236 0.0
H4034 H 0.99174 0.51543 0.24975 0.0
H4035 H 1.00738 0.55668 0.25254 0.0
H4036 H 0.07729 0.56489 0.27368 0.0
H4037 H 0.08188 0.52338 0.27476 0.0
C4038 C 0.05031 0.48896 0.26531 0.0
C4039 C 0.03185 0.47266 0.26078 0.0
C4040 C 0.04756 0.51432 0.26452 0.0
C4041 C 1.01093 0.48409 0.25558 0.0
C4042 C 1.00841 0.50868 0.25415 0.0
C4043 C 0.02385 0.5498 0.2574 0.0
C4044 C 0.04201 0.56619 0.26284 0.0
C4045 C 0.02647 0.52446 0.25856 0.0
C4046 C 0.06259 0.55471 0.26927 0.0
C4047 C 0.06534 0.53011 0.26986 0.0
H4048 H 0.80716 0.81309 0.53427 0.0
H4049 H 0.81639 0.74193 0.51758 0.0
H4050 H 0.77502 0.73735 0.5145 0.0
H4051 H 0.7339 0.75259 0.51625 0.0
H4052 H 0.72402 0.82299 0.53524 0.0
H4053 H 0.76547 0.82801 0.53758 0.0
C4054 C 0.80052 0.7964 0.52986 0.0
C4055 C 0.81703 0.77789 0.52609 0.0
C4056 C 0.77525 0.79347 0.5285 0.0
C4057 C 0.80591 0.75685 0.52074 0.0
C4058 C 0.78149 0.75413 0.5189 0.0
C4059 C 0.74038 0.76925 0.52095 0.0
C4060 C 0.72366 0.78734 0.52546 0.0
C4061 C 0.76553 0.77216 0.52271 0.0
C4062 C 0.73456 0.80827 0.53165 0.0
C4063 C 0.7591 0.81127 0.53293 0.0
H4064 H 0.53645 0.47961 0.76308 0.0
H4065 H 0.4661 0.47509 0.78387 0.0
H4066 H 0.46374 0.5169 0.78493 0.0
H4067 H 0.4811 0.55702 0.78011 0.0
H4068 H 0.55217 0.56157 0.76216 0.0
H4069 H 0.5543 0.51967 0.76009 0.0
C4070 C 0.52039 0.48742 0.76791 0.0
C4071 C 0.5013 0.47228 0.77316 0.0
C4072 C 0.51913 0.51271 0.76901 0.0
C4073 C 0.48128 0.4846 0.77948 0.0
C4074 C 0.47989 0.50923 0.78011 0.0
C4075 C 0.49721 0.54918 0.77556 0.0
C4076 C 0.51649 0.56427 0.77099 0.0
C4077 C 0.49858 0.52389 0.77486 0.0
C4078 C 0.5368 0.55196 0.76572 0.0
C4079 C 0.53805 0.52734 0.7645 0.0
H4080 H 0.79738 0.21366 0.99961 0.0
H4081 H 0.80809 0.27355 0.04082 0.0
H4082 H 0.76661 0.27823 0.04461 0.0
H4083 H 0.72515 0.266 0.03684 0.0
H4084 H 0.71401 0.20739 0.99399 0.0
H4085 H 0.75546 0.20217 0.9907 0.0
C4086 C 0.79101 0.22776 1.00971 0.0
C4087 C 0.80788 0.24293 0.02032 0.0
C4088 C 0.7658 0.23081 1.01166 0.0
C4089 C 0.79723 0.26107 0.03256 0.0
C4090 C 0.77279 0.26387 0.03473 0.0
C4091 C 0.73134 0.25189 0.02668 0.0
C4092 C 0.7143 0.23705 1.01595 0.0
C4093 C 0.75647 0.24896 0.02447 0.0
C4094 C 0.72485 0.21937 1.00291 0.0
C4095 C 0.74935 0.2163 1.00095 0.0
H4096 H 0.30422 1.00768 0.4839 0.0
H4097 H 0.24082 0.0406 0.46613 0.0
H4098 H 0.23045 0.04229 0.50636 0.0
H4099 H 0.23805 0.03453 0.54908 0.0
H4100 H 0.30265 1.00434 0.56716 0.0
H4101 H 0.3126 1.00155 0.52677 0.0
C4102 C 0.28795 1.01525 0.48836 0.0
C4103 C 0.27354 0.02374 0.46968 0.0
C4104 C 0.28179 0.01666 0.51297 0.0
C4105 C 0.25286 0.03354 0.47821 0.0
C4106 C 0.2467 0.03456 0.50203 0.0
C4107 C 0.25444 0.0272 0.54462 0.0
C4108 C 0.26919 0.01946 0.56335 0.0
C4109 C 0.26077 0.02615 0.52005 0.0
C4110 C 0.2903 1.0106 0.55494 0.0
C4111 C 0.29619 1.00895 0.53107 0.0
H4112 H 0.28526 1.01603 0.72963 0.0
H4113 H 0.21339 1.00314 0.72124 0.0
H4114 H 0.20961 0.99903 0.76257 0.0
H4115 H 0.22605 0.99881 0.80382 0.0
H4116 H 0.29864 1.00783 0.81138 0.0
H4117 H 0.30202 1.01337 0.77027 0.0
C4118 C 0.26851 1.01233 0.73639 0.0
C4119 C 0.24956 1.01039 0.72002 0.0
C4120 C 0.26636 1.00917 0.76151 0.0
C4121 C 0.22867 1.00513 0.73143 0.0
C4122 C 0.22643 1.0027 0.75591 0.0
C4123 C 0.24285 1.00209 0.79691 0.0
C4124 C 0.26211 1.00303 0.81307 0.0
C4125 C 0.24502 1.00469 0.77166 0.0
C4126 C 0.28313 1.00691 0.80139 0.0
C4127 C 0.28514 1.01018 0.77704 0.0
H4128 H 0.30333 0.97834 0.0524 0.0
H4129 H 0.23433 0.9993 0.06665 0.0
H4130 H 0.22681 1.00216 0.02567 0.0
H4131 H 0.23918 0.99936 0.98327 0.0
H4132 H 0.307 0.9745 0.96948 0.0
H4133 H 0.3147 0.9728 1.01036 0.0
C4134 C 0.28636 0.98331 0.04696 0.0
C4135 C 0.26952 0.9883 0.06476 0.0
C4136 C 0.28165 0.98442 0.02207 0.0
C4137 C 0.24805 0.99481 0.05517 0.0
C4138 C 0.24366 0.99662 0.03095 0.0
C4139 C 0.25581 0.99342 0.98878 0.0
C4140 C 0.27246 0.98734 0.97105 0.0
C4141 C 0.26019 0.99157 1.01374 0.0
C4142 C 0.29342 0.97961 0.98083 0.0
C4143 C 0.29794 0.97853 1.00499 0.0
H4144 H 0.25794 0.99156 0.23386 0.0
H4145 H 0.32215 0.02272 0.2166 0.0
H4146 H 0.33066 0.02768 0.25709 0.0
H4147 H 0.32071 0.02391 0.29997 0.0
H4148 H 0.25506 0.99556 0.31671 0.0
H4149 H 0.24729 0.98935 0.27632 0.0
C4150 C 0.27393 0.99958 0.23848 0.0
C4151 C 0.28912 1.00661 0.21995 0.0
C4152 C 0.27891 1.00298 0.26312 0.0
C4153 C 0.30945 0.01696 0.22863 0.0
C4154 C 0.31454 0.01981 0.25258 0.0
C4155 C 0.30469 1.01602 0.29521 0.0
C4156 C 0.28895 1.00976 0.31359 0.0
C4157 C 0.2996 1.01293 0.27049 0.0
C4158 C 0.26824 1.00039 0.30476 0.0
C4159 C 0.26357 0.99684 0.28089 0.0
H4160 H 0.47907 0.29655 0.02809 0.0
H4161 H 0.46052 0.2261 0.01759 0.0
H4162 H 0.50111 0.21577 1.01548 0.0
H4163 H 0.54412 0.22558 1.01673 0.0
H4164 H 0.56273 0.29521 0.03156 0.0
H4165 H 0.52215 0.30595 0.03173 0.0
C4166 C 0.48351 0.27878 0.02525 0.0
C4167 C 0.4647 0.26244 0.02274 0.0
C4168 C 0.50816 0.2724 0.02481 0.0
C4169 C 0.47292 0.23968 0.01953 0.0
C4170 C 0.49686 0.23358 0.01831 0.0
C4171 C 0.53971 0.24327 0.02001 0.0
C4172 C 0.55852 0.25932 0.02389 0.0
C4173 C 0.51507 0.24959 0.02093 0.0
C4174 C 0.55032 0.28187 0.02837 0.0
C4175 C 0.52639 0.28821 0.02847 0.0
H4176 H 0.97225 0.28992 0.01901 0.0
H4177 H 0.96895 0.21642 0.0221 0.0
H4178 H 1.0107 0.21451 0.02308 0.0
H4179 H 0.05068 0.23301 0.023 0.0
H4180 H 0.05407 0.30657 0.02352 0.0
H4181 H 1.0123 0.30852 0.02141 0.0
C4182 C 0.9803 0.27326 0.01989 0.0
C4183 C 0.96539 0.25318 0.02025 0.0
C4184 C 1.00571 0.27212 0.02121 0.0
C4185 C 0.9782 0.23243 0.02174 0.0
C4186 C 1.00284 0.23128 0.0223 0.0
C4187 C 0.04265 0.24971 0.02277 0.0
C4188 C 0.05758 0.26975 0.02348 0.0
C4189 C 0.01726 0.25089 0.02206 0.0
C4190 C 0.0448 0.29056 0.02318 0.0
C4191 C 0.02015 0.29174 0.02186 0.0
H4192 H 0.05872 0.7379 0.26527 0.0
H4193 H 0.9876 0.71936 0.26416 0.0
H4194 H 0.97703 0.7599 0.26672 0.0
H4195 H 0.98684 0.80299 0.26894 0.0
H4196 H 0.05787 0.82164 0.26584 0.0
H4197 H 0.06848 0.78104 0.26532 0.0
C4198 C 0.04075 0.74231 0.26567 0.0
C4199 C 0.02427 0.7235 0.26473 0.0
C4200 C 0.03433 0.76699 0.26641 0.0
C4201 C 1.0013 0.73176 0.2649 0.0
C4202 C 0.99505 0.75567 0.2664 0.0
C4203 C 1.00481 0.79858 0.2683 0.0
C4204 C 0.02127 0.81745 0.26786 0.0
C4205 C 1.01121 0.77391 0.26716 0.0
C4206 C 0.0442 0.80921 0.26645 0.0
C4207 C 0.05047 0.78526 0.26611 0.0
H4208 H 0.55289 0.78932 0.5417 0.0
H4209 H 0.57082 0.73793 0.49239 0.0
H4210 H 0.53048 0.72764 0.48865 0.0
H4211 H 0.48766 0.732 0.49879 0.0
H4212 H 0.46945 0.78334 0.54795 0.0
H4213 H 0.50995 0.79362 0.55194 0.0
C4214 C 0.54846 0.77571 0.53005 0.0
C4215 C 0.56721 0.76468 0.5175 0.0
C4216 C 0.52381 0.76933 0.52785 0.0
C4217 C 0.55869 0.74721 0.50277 0.0
C4218 C 0.53481 0.74112 0.50051 0.0
C4219 C 0.49213 0.74545 0.51062 0.0
C4220 C 0.47339 0.7564 0.52317 0.0
C4221 C 0.51674 0.7518 0.51291 0.0
C4222 C 0.48174 0.77395 0.53785 0.0
C4223 C 0.50566 0.78005 0.54018 0.0
H4224 H 0.98696 0.79778 0.51294 0.0
H4225 H 0.97065 0.73027 0.53731 0.0
H4226 H 1.01114 0.72046 0.53767 0.0
H4227 H 0.0535 0.72962 0.53126 0.0
H4228 H 0.07073 0.79751 0.50911 0.0
H4229 H 0.02991 0.80736 0.50748 0.0
C4230 C 0.99185 0.78074 0.51827 0.0
C4231 C 0.97358 0.76498 0.52487 0.0
C4232 C 1.01663 0.77477 0.51877 0.0
C4233 C 0.9825 0.74332 0.53178 0.0
C4234 C 1.00643 0.73747 0.53206 0.0
C4235 C 0.04871 0.7467 0.52595 0.0
C4236 C 0.06709 0.76249 0.52018 0.0
C4237 C 0.02407 0.75281 0.52557 0.0
C4238 C 0.05854 0.78444 0.51383 0.0
C4239 C 0.0345 0.79024 0.51286 0.0
H4240 H 0.98808 0.2338 0.27246 0.0
H4241 H 0.06024 0.21974 0.27002 0.0
H4242 H 0.0679 0.26093 0.26693 0.0
H4243 H 0.05493 0.30322 0.26506 0.0
H4244 H 0.98297 0.31719 0.27149 0.0
H4245 H 0.9753 0.27599 0.27279 0.0
C4246 C 1.00567 0.23937 0.27121 0.0
C4247 C 0.02342 0.22173 0.27135 0.0
C4248 C 1.01029 0.26431 0.27012 0.0
C4249 C 0.04575 0.23128 0.27001 0.0
C4250 C 0.05026 0.25553 0.26818 0.0
C4251 C 0.03738 0.29762 0.26667 0.0
C4252 C 0.01964 0.31527 0.26782 0.0
C4253 C 0.03282 0.27265 0.26821 0.0
C4254 C 0.99743 0.30567 0.27033 0.0
C4255 C 0.9929 0.2814 0.27112 0.0
H4256 H 0.55511 0.80312 0.77298 0.0
H4257 H 0.48244 0.81467 0.77332 0.0
H4258 H 0.47605 0.77322 0.77389 0.0
H4259 H 0.49024 0.73155 0.7744 0.0
H4260 H 0.56272 0.71986 0.77816 0.0
H4261 H 0.56931 0.76129 0.7761 0.0
C4262 C 0.53769 0.7969 0.77307 0.0
C4263 C 0.51932 0.8139 0.77268 0.0
C4264 C 0.53386 0.77183 0.77427 0.0
C4265 C 0.4973 0.80362 0.77337 0.0
C4266 C 0.49354 0.77923 0.77373 0.0
C4267 C 0.50767 0.73772 0.77481 0.0
C4268 C 0.52591 0.7207 0.77641 0.0
C4269 C 0.51153 0.76276 0.7742 0.0
C4270 C 0.54795 0.73094 0.7771 0.0
C4271 C 0.55181 0.75532 0.77579 0.0
H4272 H 0.98722 0.47981 0.80153 0.0
H4273 H 1.00148 0.46858 0.73076 0.0
H4274 H 1.00373 0.51009 0.72492 0.0
H4275 H 1.0024 0.55183 0.73932 0.0
H4276 H 0.98272 0.56318 0.80864 0.0
H4277 H 0.98199 0.52168 0.81501 0.0
C4278 C 0.99072 0.48609 0.78461 0.0
C4279 C 0.99421 0.46912 0.76665 0.0
C4280 C 0.99118 0.51124 0.78094 0.0
C4281 C 0.9985 0.47956 0.74525 0.0
C4282 C 0.9999 0.50401 0.74184 0.0
C4283 C 0.99781 0.54558 0.75598 0.0
C4284 C 0.99292 0.56258 0.77358 0.0
C4285 C 0.99638 0.52045 0.75943 0.0
C4286 C 0.98679 0.55217 0.79451 0.0
C4287 C 0.98638 0.52772 0.79821 0.0
H4288 H 0.22986 0.26354 0.48446 0.0
H4289 H 0.21726 0.25917 0.55621 0.0
H4290 H 0.25858 0.25977 0.56333 0.0
H4291 H 0.30069 0.26214 0.55001 0.0
H4292 H 0.31335 0.26227 0.47806 0.0
H4293 H 0.27197 0.2628 0.47103 0.0
C4294 C 0.23576 0.26265 0.50186 0.0
C4295 C 0.21833 0.26134 0.5197 0.0
C4296 C 0.26088 0.26237 0.50607 0.0
C4297 C 0.22844 0.26 0.54168 0.0
C4298 C 0.25285 0.26049 0.54586 0.0
C4299 C 0.2948 0.26228 0.53259 0.0
C4300 C 0.31223 0.26246 0.5147 0.0
C4301 C 0.26969 0.26175 0.52835 0.0
C4302 C 0.30213 0.26223 0.49265 0.0
C4303 C 0.27771 0.26256 0.48851 0.0
H4304 H 0.55074 0.47831 0.24711 0.0
H4305 H 0.48503 0.4674 0.2779 0.0
H4306 H 0.48004 0.50892 0.28185 0.0
H4307 H 0.49369 0.5504 0.27713 0.0
H4308 H 0.55888 0.56159 0.2453 0.0
H4309 H 0.56411 0.52006 0.24169 0.0
C4310 C 0.53524 0.48469 0.2549 0.0
C4311 C 0.51845 0.4679 0.2625 0.0
C4312 C 0.53214 0.50981 0.25702 0.0
C4313 C 0.49869 0.47835 0.27203 0.0
C4314 C 0.49573 0.50275 0.27427 0.0
C4315 C 0.50916 0.54413 0.26919 0.0
C4316 C 0.52573 0.56105 0.26141 0.0
C4317 C 0.51221 0.51906 0.2669 0.0
C4318 C 0.54535 0.55064 0.25145 0.0
C4319 C 0.54846 0.52619 0.2494 0.0
H4320 H 0.30654 0.76348 1.00716 0.0
H4321 H 0.31628 0.83129 0.0339 0.0
H4322 H 0.27484 0.83691 0.03465 0.0
H4323 H 0.23326 0.82327 0.02769 0.0
H4324 H 0.22393 0.75464 1.00292 0.0
H4325 H 0.26542 0.74938 1.00163 0.0
C4326 C 0.30001 0.77967 1.01328 0.0
C4327 C 0.31665 0.79684 0.02053 0.0
C4328 C 0.27488 0.78293 1.01397 0.0
C4329 C 0.30575 0.81724 0.0283 0.0
C4330 C 0.28125 0.82061 0.02862 0.0
C4331 C 0.23996 0.80706 0.02176 0.0
C4332 C 0.22351 0.78946 1.01508 0.0
C4333 C 0.26517 0.80373 0.02145 0.0
C4334 C 0.2345 0.76885 1.00816 0.0
C4335 C 0.25894 0.76575 1.00739 0.0
H4336 H 0.78296 0.96987 0.47898 0.0
H4337 H 0.74539 0.03084 0.46194 0.0
H4338 H 0.73855 0.03808 0.50234 0.0
H4339 H 0.74253 0.02799 0.54491 0.0
H4340 H 0.7825 0.96862 0.56218 0.0
H4341 H 0.78825 0.96069 0.52176 0.0
C4342 C 0.77296 0.98474 0.48368 0.0
C4343 C 0.76446 0.99936 0.46525 0.0
C4344 C 0.76931 0.98948 0.50835 0.0
C4345 C 0.75225 0.01864 0.47396 0.0
C4346 C 0.74825 0.02295 0.49783 0.0
C4347 C 0.75269 1.01325 0.54031 0.0
C4348 C 0.76193 0.9992 0.55883 0.0
C4349 C 0.7566 1.00867 0.51567 0.0
C4350 C 0.7749 0.98038 0.55015 0.0
C4351 C 0.77826 0.97563 0.52624 0.0
H4352 H 0.77477 0.9797 0.29481 0.0
H4353 H 0.76732 0.05049 0.31365 0.0
H4354 H 0.764 0.06087 0.2735 0.0
H4355 H 0.76328 0.05111 0.23066 0.0
H4356 H 0.77493 0.98099 0.21155 0.0
H4357 H 0.77633 0.97024 0.25179 0.0
C4358 C 0.77236 0.99755 0.29056 0.0
C4359 C 0.77116 1.01397 0.30941 0.0
C4360 C 0.77111 1.00397 0.26605 0.0
C4361 C 0.76836 0.03681 0.30129 0.0
C4362 C 0.76639 0.04297 0.27757 0.0
C4363 C 0.76602 0.03329 0.23487 0.0
C4364 C 0.76854 0.01712 0.21596 0.0
C4365 C 0.76771 0.02691 0.25933 0.0
C4366 C 0.7726 0.99443 0.22398 0.0
C4367 C 0.77347 0.98809 0.24775 0.0
H4368 H 0.79244 0.04479 0.97707 0.0
H4369 H 0.72026 0.03401 0.96822 0.0
H4370 H 0.71521 0.03401 1.0094 0.0
H4371 H 0.73042 0.03612 0.05066 0.0
H4372 H 0.80301 0.0433 0.05962 0.0
H4373 H 0.80788 0.04546 0.01839 0.0
C4374 C 0.77539 0.04253 0.9837 0.0
C4375 C 0.75676 0.03963 0.96723 0.0
C4376 C 0.77236 0.04182 1.00893 0.0
C4377 C 0.73539 0.03641 0.97854 0.0
C4378 C 0.73235 0.03639 1.00293 0.0
C4379 C 0.74748 0.03844 0.04403 0.0
C4380 C 0.76626 0.04 0.0605 0.0
C4381 C 0.75056 0.03899 0.01883 0.0
C4382 C 0.78777 0.04228 0.04924 0.0
C4383 C 0.79068 0.04349 0.02485 0.0
H4384 H 0.75735 0.04817 0.72327 0.0
H4385 H 0.73742 0.97746 0.71932 0.0
H4386 H 0.73588 0.97564 0.76082 0.0
H4387 H 0.74033 0.99331 0.80104 0.0
H4388 H 0.76339 0.06311 0.80495 0.0
H4389 H 0.76335 0.06536 0.76351 0.0
C4390 C 0.75235 0.03219 0.73106 0.0
C4391 C 0.74697 1.01296 0.71587 0.0
C4392 C 0.75211 0.03086 0.75647 0.0
C4393 C 0.74141 0.99293 0.72862 0.0
C4394 C 0.74057 0.99181 0.75319 0.0
C4395 C 0.74541 1.00928 0.79327 0.0
C4396 C 0.7518 0.02818 0.8085 0.0
C4397 C 0.74591 1.01053 0.76786 0.0
C4398 C 0.75831 0.04792 0.79571 0.0
C4399 C 0.75827 0.04932 0.77114 0.0
H4400 H 0.48693 0.80695 0.02057 0.0
H4401 H 0.46754 0.73776 1.00475 0.0
H4402 H 0.50799 0.72654 1.00452 0.0
H4403 H 0.55125 0.73538 1.00837 0.0
H4404 H 0.57044 0.8055 0.01993 0.0
H4405 H 0.52999 0.81622 0.02206 0.0
C4406 C 0.49114 0.78925 0.01706 0.0
C4407 C 0.47215 0.7735 1.01292 0.0
C4408 C 0.5157 0.78264 1.01613 0.0
C4409 C 0.4801 0.75091 1.00815 0.0
C4410 C 0.50396 0.74428 1.00802 0.0
C4411 C 0.54699 0.75314 1.01148 0.0
C4412 C 0.56596 0.76927 1.01428 0.0
C4413 C 0.52238 0.7598 1.01194 0.0
C4414 C 0.55792 0.79206 0.01778 0.0
C4415 C 0.53406 0.7984 0.01901 0.0
H4416 H 0.98537 0.76089 0.9816 0.0
H4417 H 0.97247 0.77532 0.05216 0.0
H4418 H 1.01337 0.78008 0.05868 0.0
H4419 H 0.05513 0.78058 0.0455 0.0
H4420 H 0.06837 0.77026 0.97443 0.0
H4421 H 0.02739 0.76391 0.96782 0.0
C4422 C 0.99112 0.76512 0.99856 0.0
C4423 C 0.97377 0.76748 1.01629 0.0
C4424 C 1.01602 0.76871 1.00244 0.0
C4425 C 0.98367 0.77324 0.03769 0.0
C4426 C 1.00781 0.776 0.04161 0.0
C4427 C 0.04943 0.77686 0.02839 0.0
C4428 C 0.06676 0.77576 1.01064 0.0
C4429 C 0.02459 0.77383 0.0243 0.0
C4430 C 0.05702 0.77128 0.98889 0.0
C4431 C 0.03289 0.76756 0.985 0.0
H4432 H 0.03497 0.2323 0.74304 0.0
H4433 H 0.99381 0.21616 0.80134 0.0
H4434 H 0.98767 0.25694 0.80819 0.0
H4435 H 0.99297 0.2994 0.79833 0.0
H4436 H 0.03225 0.31584 0.73892 0.0
H4437 H 0.03932 0.2749 0.73239 0.0
C4438 C 0.02443 0.23729 0.75724 0.0
C4439 C 1.01491 0.21913 0.77137 0.0
C4440 C 0.02041 0.26206 0.76121 0.0
C4441 C 1.00157 0.22805 0.7896 0.0
C4442 C 0.99798 0.2521 0.79371 0.0
C4443 C 1.00331 0.29439 0.78393 0.0
C4444 C 1.01229 0.31253 0.76952 0.0
C4445 C 1.00718 0.26967 0.77978 0.0
C4446 C 0.02512 0.30378 0.75089 0.0
C4447 C 0.02919 0.27972 0.74701 0.0
H4448 H 0.48109 0.24308 0.51478 0.0
H4449 H 0.46525 0.3146 0.5226 0.0
H4450 H 0.50615 0.32361 0.5213 0.0
H4451 H 0.54867 0.31218 0.51835 0.0
H4452 H 0.56467 0.2404 0.51408 0.0
H4453 H 0.5237 0.23148 0.51363 0.0
C4454 C 0.48619 0.26082 0.51613 0.0
C4455 C 0.46807 0.27797 0.51858 0.0
C4456 C 0.51102 0.2662 0.516 0.0
C4457 C 0.47711 0.30051 0.52061 0.0
C4458 C 0.50122 0.30583 0.51985 0.0
C4459 C 0.54359 0.29443 0.5171 0.0
C4460 C 0.56176 0.27721 0.51578 0.0
C4461 C 0.51878 0.289 0.51756 0.0
C4462 C 0.55276 0.25457 0.51488 0.0
C4463 C 0.52862 0.24931 0.51465 0.0
H4464 H 0.98168 0.31282 0.51434 0.0
H4465 H 0.96438 0.24129 0.51489 0.0
H4466 H 1.0051 0.23142 0.51496 0.0
H4467 H 0.048 0.24194 0.51457 0.0
H4468 H 0.0653 0.31333 0.51008 0.0
H4469 H 0.02461 0.32328 0.51175 0.0
C4470 C 0.9864 0.29491 0.51457 0.0
C4471 C 0.96785 0.27808 0.51494 0.0
C4472 C 1.01118 0.28889 0.51382 0.0
C4473 C 0.97652 0.25523 0.51474 0.0
C4474 C 1.00056 0.24939 0.51477 0.0
C4475 C 0.04329 0.25986 0.51396 0.0
C4476 C 0.06184 0.27661 0.51233 0.0
C4477 C 0.01852 0.26587 0.51427 0.0
C4478 C 0.05318 0.29944 0.51135 0.0
C4479 C 0.02914 0.30533 0.51235 0.0
H4480 H 0.99338 0.73405 0.78404 0.0
H4481 H 0.02969 0.71489 0.72345 0.0
H4482 H 0.03467 0.7554 0.71397 0.0
H4483 H 0.02972 0.79866 0.72223 0.0
H4484 H 0.99586 0.81737 0.78436 0.0
H4485 H 0.98971 0.77696 0.79302 0.0
C4486 C 1.00246 0.73831 0.76864 0.0
C4487 C 1.01093 0.71941 0.75471 0.0
C4488 C 1.00596 0.76286 0.76318 0.0
C4489 C 0.02273 0.72742 0.7351 0.0
C4490 C 0.02564 0.75131 0.72946 0.0
C4491 C 0.02069 0.79428 0.73764 0.0
C4492 C 1.01309 0.81306 0.75224 0.0
C4493 C 0.01743 0.76965 0.7432 0.0
C4494 C 1.00207 0.80492 0.77222 0.0
C4495 C 0.99843 0.7811 0.77736 0.0
H4496 H 0.5408 0.30053 0.26439 0.0
H4497 H 0.47083 0.31287 0.24571 0.0
H4498 H 0.46276 0.27183 0.24934 0.0
H4499 H 0.47497 0.23012 0.25775 0.0
H4500 H 0.54612 0.21755 0.27162 0.0
H4501 H 0.5536 0.25878 0.26983 0.0
C4502 C 0.52364 0.29457 0.26093 0.0
C4503 C 0.50652 0.31167 0.25472 0.0
C4504 C 0.51907 0.26969 0.26231 0.0
C4505 C 0.48477 0.3017 0.2504 0.0
C4506 C 0.48005 0.27755 0.25259 0.0
C4507 C 0.49224 0.23609 0.26062 0.0
C4508 C 0.50976 0.21893 0.2655 0.0
C4509 C 0.49691 0.26095 0.25859 0.0
C4510 C 0.53181 0.22881 0.26824 0.0
C4511 C 0.53622 0.25305 0.26713 0.0
H4512 H 0.55629 0.05335 0.75133 0.0
H4513 H 0.49291 0.06673 0.78581 0.0
H4514 H 0.48685 0.02537 0.79014 0.0
H4515 H 0.49887 0.98304 0.78455 0.0
H4516 H 0.5619 0.97006 0.74909 0.0
H4517 H 0.56799 1.01126 0.74528 0.0
C4518 C 0.54109 0.0476 0.76007 0.0
C4519 C 0.5254 0.06511 0.76858 0.0
C4520 C 0.53734 0.02256 0.76244 0.0
C4521 C 0.50589 0.0553 0.77922 0.0
C4522 C 0.50228 0.03093 0.78168 0.0
C4523 C 0.51409 0.98883 0.77587 0.0
C4524 C 0.52981 0.97134 0.7672 0.0
C4525 C 0.51776 1.01393 0.77345 0.0
C4526 C 0.54904 0.98133 0.75616 0.0
C4527 C 0.55269 1.00565 0.75393 0.0
H4528 H 0.22593 0.31213 1.01673 0.0
H4529 H 0.21449 0.24016 0.02701 0.0
H4530 H 0.25576 0.23367 0.02829 0.0
H4531 H 0.29746 0.24743 0.02692 0.0
H4532 H 0.3094 0.3188 1.01356 0.0
H4533 H 0.26803 0.32564 1.0133 0.0
C4534 C 0.23209 0.29486 0.01938 0.0
C4535 C 0.21503 0.27672 0.02189 0.0
C4536 C 0.25726 0.29082 0.01959 0.0
C4537 C 0.22547 0.25486 0.02486 0.0
C4538 C 0.24982 0.25102 0.02568 0.0
C4539 C 0.29142 0.26467 0.02378 0.0
C4540 C 0.30863 0.28246 0.02032 0.0
C4541 C 0.26634 0.2687 0.02307 0.0
C4542 C 0.29834 0.30426 1.01634 0.0
C4543 C 0.27392 0.30831 1.01621 0.0
H4544 H 0.9792 0.05682 0.28157 0.0
H4545 H 0.05086 0.06364 0.26682 0.0
H4546 H 0.05432 0.02188 0.26442 0.0
H4547 H 0.03763 0.98125 0.26606 0.0
H4548 H 0.96679 0.97403 0.28419 0.0
H4549 H 0.96299 1.01584 0.28554 0.0
C4550 C 0.99576 0.0495 0.27773 0.0
C4551 C 1.01479 0.0653 0.2742 0.0
C4552 C 0.99795 0.02418 0.27693 0.0
C4553 C 0.03565 0.05357 0.26972 0.0
C4554 C 0.03767 0.029 0.26827 0.0
C4555 C 0.02116 0.98845 0.27042 0.0
C4556 C 1.00245 0.97253 0.27485 0.0
C4557 C 0.01906 1.0137 0.2718 0.0
C4558 C 0.98181 0.98414 0.28057 0.0
C4559 C 0.97957 1.00878 0.28132 0.0
H4560 H 0.30474 0.72864 0.55086 0.0
H4561 H 0.31703 0.74563 0.48086 0.0
H4562 H 0.27596 0.7468 0.4738 0.0
H4563 H 0.23414 0.74418 0.48667 0.0
H4564 H 0.2215 0.73089 0.55733 0.0
H4565 H 0.26269 0.72734 0.56409 0.0
C4566 C 0.2988 0.73242 0.53387 0.0
C4567 C 0.31598 0.73666 0.51645 0.0
C4568 C 0.27378 0.73384 0.52971 0.0
C4569 C 0.30588 0.74205 0.49505 0.0
C4570 C 0.28166 0.74275 0.49083 0.0
C4571 C 0.24002 0.74016 0.50363 0.0
C4572 C 0.22281 0.73726 0.52124 0.0
C4573 C 0.26499 0.7388 0.50788 0.0
C4574 C 0.23278 0.73289 0.54292 0.0
C4575 C 0.25702 0.7309 0.54694 0.0
H4576 H 0.80937 0.52427 0.98431 0.0
H4577 H 0.73826 0.52997 0.96647 0.0
H4578 H 0.72811 0.52788 1.00685 0.0
H4579 H 0.73832 0.52435 0.04974 0.0
H4580 H 0.80966 0.52309 0.06754 0.0
H4581 H 0.81965 0.52351 0.02713 0.0
C4582 C 0.79146 0.52517 0.9888 0.0
C4583 C 0.7749 0.52726 0.97009 0.0
C4584 C 0.78534 0.52466 1.01344 0.0
C4585 C 0.75207 0.52844 0.97861 0.0
C4586 C 0.74606 0.52717 1.0025 0.0
C4587 C 0.75624 0.52412 0.04522 0.0
C4588 C 0.77294 0.52333 0.06393 0.0
C4589 C 0.76234 0.52524 0.02057 0.0
C4590 C 0.79577 0.52352 0.05539 0.0
C4591 C 0.80169 0.52378 0.03148 0.0
H4592 H 0.75947 0.54262 0.23215 0.0
H4593 H 0.76075 0.47077 0.21634 0.0
H4594 H 0.76283 0.46198 0.25712 0.0
H4595 H 0.7646 0.47389 0.29979 0.0
H4596 H 0.75899 0.54575 0.31503 0.0
H4597 H 0.75828 0.5543 0.27436 0.0
C4598 C 0.76015 0.52483 0.2372 0.0
C4599 C 0.76003 0.50761 0.21904 0.0
C4600 C 0.76069 0.51954 0.26194 0.0
C4601 C 0.76067 0.48498 0.22812 0.0
C4602 C 0.76198 0.47981 0.25222 0.0
C4603 C 0.76336 0.49162 0.29462 0.0
C4604 C 0.76238 0.50902 0.31266 0.0
C4605 C 0.76211 0.49678 0.26978 0.0
C4606 C 0.76015 0.53146 0.30338 0.0
C4607 C 0.75969 0.53652 0.27934 0.0
H4608 H 0.77598 0.52023 0.553 0.0
H4609 H 0.75677 0.44988 0.56257 0.0
H4610 H 0.75443 0.44503 0.52116 0.0
H4611 H 0.75783 0.46015 0.47958 0.0
H4612 H 0.77343 0.53155 0.47092 0.0
H4613 H 0.77692 0.53582 0.51212 0.0
C4614 C 0.77116 0.50361 0.54646 0.0
C4615 C 0.76678 0.48544 0.5631 0.0
C4616 C 0.7692 0.50087 0.52137 0.0
C4617 C 0.76045 0.4646 0.55208 0.0
C4618 C 0.75912 0.46174 0.52759 0.0
C4619 C 0.76213 0.47683 0.48631 0.0
C4620 C 0.76561 0.49549 0.46991 0.0
C4621 C 0.7635 0.4796 0.51155 0.0
C4622 C 0.77063 0.5165 0.48122 0.0
C4623 C 0.77268 0.51903 0.50557 0.0
H4624 H 0.7834 0.54558 0.7989 0.0
H4625 H 0.80088 0.47657 0.81709 0.0
H4626 H 0.7981 0.46523 0.77706 0.0
H4627 H 0.7905 0.47383 0.73424 0.0
H4628 H 0.77826 0.54398 0.71567 0.0
H4629 H 0.77934 0.55481 0.75591 0.0
C4630 C 0.78681 0.5279 0.79456 0.0
C4631 C 0.79231 0.5122 0.81338 0.0
C4632 C 0.78604 0.52127 0.76998 0.0
C4633 C 0.79657 0.48968 0.80494 0.0
C4634 C 0.79491 0.483 0.78121 0.0
C4635 C 0.78799 0.49167 0.73853 0.0
C4636 C 0.78384 0.50768 0.71962 0.0
C4637 C 0.78958 0.49842 0.76306 0.0
C4638 C 0.7813 0.53053 0.72793 0.0
C4639 C 0.78194 0.53695 0.75176 0.0
H4640 H 0.54487 0.30729 0.76753 0.0
H4641 H 0.47147 0.31203 0.76633 0.0
H4642 H 0.46896 0.27029 0.76363 0.0
H4643 H 0.48693 0.22988 0.76141 0.0
H4644 H 0.56016 0.22508 0.76674 0.0
H4645 H 0.56272 0.26683 0.76798 0.0
C4646 C 0.5281 0.29957 0.76671 0.0
C4647 C 0.50828 0.31488 0.76708 0.0
C4648 C 0.52654 0.27415 0.76581 0.0
C4649 C 0.48733 0.30245 0.76619 0.0
C4650 C 0.48582 0.27782 0.76456 0.0
C4651 C 0.50368 0.23759 0.76277 0.0
C4652 C 0.52346 0.22225 0.7636 0.0
C4653 C 0.5052 0.263 0.76429 0.0
C4654 C 0.54433 0.23466 0.76585 0.0
C4655 C 0.54588 0.25931 0.76658 0.0
H4656 H 0.46516 0.97904 0.2782 0.0
H4657 H 0.53166 0.96714 0.24942 0.0
H4658 H 0.53783 1.00856 0.24695 0.0
H4659 H 0.52526 0.05048 0.25295 0.0
H4660 H 0.46021 0.06212 0.285 0.0
H4661 H 0.45338 0.02095 0.28583 0.0
C4662 C 0.48102 0.98514 0.27097 0.0
C4663 C 0.49753 0.96802 0.26329 0.0
C4664 C 0.48505 1.01025 0.27016 0.0
C4665 C 0.51799 0.97828 0.25505 0.0
C4666 C 0.52169 1.00267 0.25372 0.0
C4667 C 0.5094 0.04442 0.26015 0.0
C4668 C 0.49323 0.06158 0.26855 0.0
C4669 C 0.50549 0.01929 0.2612 0.0
C4670 C 0.47329 0.0512 0.27791 0.0
C4671 C 0.46926 0.02684 0.27849 0.0
H4672 H 0.80706 0.75685 0.98355 0.0
H4673 H 0.81761 0.743 0.0545 0.0
H4674 H 0.7762 0.74014 0.05992 0.0
H4675 H 0.7342 0.74224 0.04553 0.0
H4676 H 0.72395 0.75973 0.97528 0.0
H4677 H 0.76526 0.76038 0.96957 0.0
C4678 C 0.80074 0.75299 1.00037 0.0
C4679 C 0.81772 0.74975 0.01846 0.0
C4680 C 0.77544 0.75208 1.00386 0.0
C4681 C 0.80684 0.74542 0.03974 0.0
C4682 C 0.78234 0.74381 0.04299 0.0
C4683 C 0.74056 0.74608 0.02874 0.0
C4684 C 0.72361 0.75065 1.01085 0.0
C4685 C 0.76591 0.74715 0.02534 0.0
C4686 C 0.73461 0.75592 0.98984 0.0
C4687 C 0.75909 0.75633 0.9864 0.0
H4688 H 0.01918 0.05194 0.79248 0.0
H4689 H 0.03236 0.06522 0.72194 0.0
H4690 H 0.03208 0.02391 0.71427 0.0
H4691 H 0.02803 0.98171 0.72692 0.0
H4692 H 0.01757 0.96881 0.7981 0.0
H4693 H 1.0169 1.01005 0.80534 0.0
C4694 C 0.02201 0.04616 0.77524 0.0
C4695 C 0.02572 0.0636 0.7579 0.0
C4696 C 0.02229 0.02121 0.77078 0.0
C4697 C 0.02949 0.05382 0.73607 0.0
C4698 C 0.02926 0.0295 0.73157 0.0
C4699 C 0.02554 0.98756 0.74418 0.0
C4700 C 0.02266 0.97019 0.7618 0.0
C4701 C 0.02567 1.01258 0.74865 0.0
C4702 C 0.01981 0.9801 0.78373 0.0
C4703 C 0.01941 1.00439 0.78802 0.0
H4704 H 0.72828 0.26258 0.52527 0.0
H4705 H 0.71704 0.33417 0.51246 0.0
H4706 H 0.75817 0.34062 0.51239 0.0
H4707 H 0.8 0.32674 0.51578 0.0
H4708 H 0.81111 0.25477 0.52678 0.0
H4709 H 0.7698 0.24855 0.52775 0.0
C4710 C 0.73443 0.27977 0.52242 0.0
C4711 C 0.71743 0.29771 0.51876 0.0
C4712 C 0.75947 0.28364 0.52216 0.0
C4713 C 0.72784 0.31946 0.51509 0.0
C4714 C 0.75219 0.32333 0.51519 0.0
C4715 C 0.79374 0.30957 0.51864 0.0
C4716 C 0.8106 0.29133 0.52143 0.0
C4717 C 0.76865 0.3057 0.51872 0.0
C4718 C 0.80016 0.26954 0.52454 0.0
C4719 C 0.77584 0.26585 0.52512 0.0
H4720 H 0.24909 0.48079 0.04195 0.0
H4721 H 0.28015 0.54557 0.05759 0.0
H4722 H 0.28672 0.55211 1.01692 0.0
H4723 H 0.28446 0.54011 0.97446 0.0
H4724 H 0.25217 0.4758 0.95906 0.0
H4725 H 0.24608 0.46924 0.99962 0.0
C4726 C 0.25743 0.49649 0.0369 0.0
C4727 C 0.26413 0.51243 0.05501 0.0
C4728 C 0.26119 0.50055 1.01214 0.0
C4729 C 0.27465 0.53241 0.04585 0.0
C4730 C 0.27848 0.5363 0.02182 0.0
C4731 C 0.27589 0.52455 0.97951 0.0
C4732 C 0.26883 0.5087 0.9614 0.0
C4733 C 0.27196 0.52063 1.00431 0.0
C4734 C 0.25794 0.48895 0.97067 0.0
C4735 C 0.2544 0.485 0.99469 0.0
H4736 H 0.25113 0.50396 0.79516 0.0
H4737 H 0.31055 0.54511 0.80868 0.0
H4738 H 0.31468 0.55223 0.76785 0.0
H4739 H 0.30213 0.54745 0.72582 0.0
H4740 H 0.24141 0.50821 0.71258 0.0
H4741 H 0.23768 0.50051 0.75337 0.0
C4742 C 0.2651 0.5147 0.78961 0.0
C4743 C 0.28043 0.52384 0.8072 0.0
C4744 C 0.26739 0.5193 0.76479 0.0
C4745 C 0.29801 0.53757 0.79743 0.0
C4746 C 0.3005 0.54171 0.77328 0.0
C4747 C 0.28795 0.53705 0.73144 0.0
C4748 C 0.27225 0.52836 0.71397 0.0
C4749 C 0.28544 0.53278 0.75632 0.0
C4750 C 0.25422 0.51533 0.72382 0.0
C4751 C 0.25199 0.51082 0.74791 0.0
H4752 H 0.26414 0.57919 0.54655 0.0
H4753 H 0.26211 0.50619 0.55592 0.0
H4754 H 0.25923 0.50094 0.51475 0.0
H4755 H 0.25727 0.51611 0.47357 0.0
H4756 H 0.26392 0.58872 0.46374 0.0
H4757 H 0.26487 0.5942 0.50497 0.0
C4758 C 0.26289 0.56192 0.54 0.0
C4759 C 0.26294 0.54314 0.55659 0.0
C4760 C 0.26203 0.55866 0.51481 0.0
C4761 C 0.2619 0.52142 0.54547 0.0
C4762 C 0.26026 0.51829 0.52113 0.0
C4763 C 0.25888 0.53337 0.48 0.0
C4764 C 0.25999 0.55196 0.46326 0.0
C4765 C 0.26029 0.53662 0.50512 0.0
C4766 C 0.2626 0.57362 0.47424 0.0
C4767 C 0.26322 0.57688 0.49866 0.0
H4768 H 0.25129 0.49853 0.29822 0.0
H4769 H 0.25126 0.57215 0.30034 0.0
H4770 H 0.24927 0.57322 0.25885 0.0
H4771 H 0.24764 0.55402 0.21906 0.0
H4772 H 0.25162 0.48055 0.21669 0.0
H4773 H 0.25185 0.47935 0.25829 0.0
C4774 C 0.25081 0.5151 0.29005 0.0
C4775 C 0.25126 0.53546 0.30485 0.0
C4776 C 0.25028 0.51579 0.26456 0.0
C4777 C 0.25091 0.55591 0.2915 0.0
C4778 C 0.24973 0.55658 0.26689 0.0
C4779 C 0.24839 0.53745 0.22721 0.0
C4780 C 0.24912 0.51715 0.21239 0.0
C4781 C 0.24935 0.53675 0.25267 0.0
C4782 C 0.25072 0.49671 0.22564 0.0
C4783 C 0.25091 0.49599 0.25029 0.0
H4784 H 0.47578 0.79694 0.27204 0.0
H4785 H 0.54742 0.8134 0.27096 0.0
H4786 H 0.55672 0.77248 0.26941 0.0
H4787 H 0.54559 0.72964 0.26847 0.0
H4788 H 0.4742 0.71311 0.2741 0.0
H4789 H 0.46479 0.75405 0.2738 0.0
C4790 C 0.49361 0.79199 0.27147 0.0
C4791 C 0.51064 0.81038 0.27144 0.0
C4792 C 0.49928 0.76709 0.27138 0.0
C4793 C 0.53335 0.80141 0.271 0.0
C4794 C 0.53885 0.77726 0.27007 0.0
C4795 C 0.52778 0.73458 0.26957 0.0
C4796 C 0.51082 0.71618 0.27095 0.0
C4797 C 0.52215 0.75947 0.27024 0.0
C4798 C 0.48819 0.72512 0.27281 0.0
C4799 C 0.48264 0.74928 0.27265 0.0
H4800 H 0.10368 0.38719 0.31281 0.0
H4801 H 0.04978 0.33968 0.32903 0.0
H4802 H 0.07007 0.32823 0.36346 0.0
H4803 H 0.10388 0.33028 0.3877 0.0
H4804 H 0.15728 0.37869 0.37259 0.0
H4805 H 0.13601 0.39181 0.33922 0.0
C4806 C 0.09648 0.37421 0.32383 0.0
C4807 C 0.0755 0.36395 0.31825 0.0
C4808 C 0.10792 0.36819 0.3439 0.0
C4809 C 0.06606 0.34759 0.33289 0.0
C4810 C 0.07756 0.34116 0.35262 0.0
C4811 C 0.11061 0.34414 0.37749 0.0
C4812 C 0.13216 0.35345 0.38256 0.0
C4813 C 0.09853 0.35127 0.35822 0.0
C4814 C 0.1408 0.37114 0.36891 0.0
C4815 C 0.12874 0.37851 0.34977 0.0
H4816 H 0.95801 0.79818 0.66965 0.0
H4817 H 0.93343 0.86746 0.66297 0.0
H4818 H 0.92669 0.86131 0.62246 0.0
H4819 H 0.92445 0.83516 0.58953 0.0
H4820 H 0.94796 0.76548 0.59685 0.0
H4821 H 0.95875 0.77308 0.63609 0.0
C4822 C 0.95119 0.81197 0.65935 0.0
C4823 C 0.94603 0.8332 0.66959 0.0
C4824 C 0.94721 0.80829 0.636 0.0
C4825 C 0.93767 0.85096 0.65571 0.0
C4826 C 0.93373 0.84744 0.63247 0.0
C4827 C 0.93244 0.82176 0.5995 0.0
C4828 C 0.93508 0.79964 0.5901 0.0
C4829 C 0.93808 0.82604 0.62246 0.0
C4830 C 0.94543 0.78258 0.6035 0.0
C4831 C 0.95151 0.78687 0.62609 0.0
H4832 H 0.50558 0.7027 0.84096 0.0
H4833 H 0.44617 0.66926 0.81299 0.0
H4834 H 0.42149 0.69046 0.83889 0.0
H4835 H 0.4166 0.72028 0.86751 0.0
H4836 H 0.47521 0.75538 0.89457 0.0
H4837 H 0.50071 0.7316 0.87116 0.0
C4838 C 0.48723 0.70011 0.84065 0.0
C4839 C 0.47754 0.68486 0.82497 0.0
C4840 C 0.47315 0.71258 0.85536 0.0
C4841 C 0.45383 0.68142 0.82461 0.0
C4842 C 0.43977 0.69335 0.83949 0.0
C4843 C 0.43501 0.72238 0.86841 0.0
C4844 C 0.4443 0.73924 0.88248 0.0
C4845 C 0.44922 0.70921 0.85462 0.0
C4846 C 0.46799 0.74223 0.88377 0.0
C4847 C 0.48243 0.72881 0.87035 0.0
H4848 H 0.60369 0.17111 0.05857 0.0
H4849 H 0.60378 0.24015 0.08396 0.0
H4850 H 0.59688 0.22594 0.12264 0.0
H4851 H 0.59171 0.19315 0.14926 0.0
H4852 H 0.59168 0.12444 0.12259 0.0
H4853 H 0.59698 0.13918 0.08417 0.0
C4854 C 0.60204 0.18312 0.07254 0.0
C4855 C 0.605 0.20664 0.06865 0.0
C4856 C 0.59784 0.17477 0.09441 0.0
C4857 C 0.60264 0.22195 0.08682 0.0
C4858 C 0.59835 0.21379 0.10881 0.0
C4859 C 0.59267 0.18153 0.13494 0.0
C4860 C 0.59138 0.15774 0.13865 0.0
C4861 C 0.59616 0.19016 0.11286 0.0
C4862 C 0.59278 0.14277 0.12008 0.0
C4863 C 0.59581 0.15118 0.09816 0.0
H4864 H 0.05366 0.6848 0.18846 0.0
H4865 H 0.10996 0.68223 0.23576 0.0
H4866 H 0.13693 0.68858 0.20471 0.0
H4867 H 0.14452 0.69186 0.16339 0.0
H4868 H 0.08766 0.69324 0.11679 0.0
H4869 H 0.06086 0.68967 0.14824 0.0
C4870 C 0.07181 0.68604 0.19206 0.0
C4871 C 0.07981 0.68302 0.2143 0.0
C4872 C 0.08714 0.68888 0.17416 0.0
C4873 C 0.10335 0.68476 0.21876 0.0
C4874 C 0.1188 0.68803 0.20097 0.0
C4875 C 0.12626 0.69125 0.16029 0.0
C4876 C 0.11793 0.69266 0.13798 0.0
C4877 C 0.11091 0.68949 0.17851 0.0
C4878 C 0.0943 0.69214 0.13394 0.0
C4879 C 0.07902 0.69023 0.15185 0.0
H4880 H 0.6136 0.84578 0.46834 0.0
H4881 H 0.58605 0.77753 0.46539 0.0
H4882 H 0.56091 0.78852 0.43411 0.0
H4883 H 0.54654 0.81756 0.40788 0.0
H4884 H 0.57504 0.88543 0.40879 0.0
H4885 H 0.60043 0.87463 0.44027 0.0
C4886 C 0.60179 0.83356 0.46095 0.0
C4887 C 0.60103 0.81113 0.46931 0.0
C4888 C 0.5879 0.83984 0.44248 0.0
C4889 C 0.58638 0.79504 0.45935 0.0
C4890 C 0.57219 0.80124 0.44142 0.0
C4891 C 0.55844 0.82989 0.41494 0.0
C4892 C 0.55898 0.8522 0.40626 0.0
C4893 C 0.5728 0.82357 0.43287 0.0
C4894 C 0.57454 0.86809 0.41523 0.0
C4895 C 0.58885 0.86198 0.43331 0.0
H4896 H 0.43189 0.37024 0.72957 0.0
H4897 H 0.49335 0.34217 0.70043 0.0
H4898 H 0.4712 0.32638 0.6687 0.0
H4899 H 0.43419 0.3201 0.6499 0.0
H4900 H 0.37323 0.35083 0.67787 0.0
H4901 H 0.39541 0.36614 0.70951 0.0
C4902 C 0.44034 0.36047 0.71633 0.0
C4903 C 0.46404 0.35701 0.71732 0.0
C4904 C 0.42763 0.3521 0.69796 0.0
C4905 C 0.47503 0.34484 0.69994 0.0
C4906 C 0.4624 0.3359 0.68184 0.0
C4907 C 0.42579 0.33051 0.66265 0.0
C4908 C 0.40201 0.3342 0.66152 0.0
C4909 C 0.43868 0.33947 0.68068 0.0
C4910 C 0.39142 0.34742 0.67848 0.0
C4911 C 0.40408 0.35622 0.69656 0.0
H4912 H 0.96889 0.14322 0.93345 0.0
H4913 H 0.92956 0.17216 0.87838 0.0
H4914 H 0.91367 0.20076 0.90414 0.0
H4915 H 0.91102 0.21749 0.94213 0.0
H4916 H 0.94699 0.18588 0.99797 0.0
H4917 H 0.96455 0.15859 0.97186 0.0
C4918 C 0.9565 0.15547 0.9271 0.0
C4919 C 0.95047 0.15551 0.90397 0.0
C4920 C 0.94714 0.1716 0.94205 0.0
C4921 C 0.93475 0.17189 0.89603 0.0
C4922 C 0.92563 0.18824 0.91075 0.0
C4923 C 0.92267 0.20461 0.94863 0.0
C4924 C 0.92758 0.20365 0.97196 0.0
C4925 C 0.93183 0.18833 0.93373 0.0
C4926 C 0.94289 0.18699 0.98006 0.0
C4927 C 0.95283 0.17129 0.96518 0.0
H4928 H 0.35356 0.03299 0.33798 0.0
H4929 H 0.33104 0.09476 0.37083 0.0
H4930 H 0.36842 0.11247 0.36312 0.0
H4931 H 0.41025 0.10679 0.35521 0.0
H4932 H 0.4324 0.04259 0.32634 0.0
H4933 H 0.39313 0.02891 0.32586 0.0
C4934 C 0.35684 0.0503 0.34364 0.0
C4935 C 0.33984 0.0621 0.35589 0.0
C4936 C 0.37882 0.05951 0.34097 0.0
C4937 C 0.34385 0.08509 0.36166 0.0
C4938 C 0.36545 0.09501 0.35775 0.0
C4939 C 0.4064 0.08992 0.3486 0.0
C4940 C 0.42448 0.07546 0.34145 0.0
C4941 C 0.38355 0.08184 0.34878 0.0
C4942 C 0.41905 0.05379 0.3326 0.0
C4943 C 0.39653 0.046 0.33215 0.0
H4944 H 0.19181 0.078 0.61944 0.0
H4945 H 0.25656 0.08041 0.58473 0.0
H4946 H 0.24933 0.11982 0.57335 0.0
H4947 H 0.22722 0.15516 0.57757 0.0
H4948 H 0.16274 0.15389 0.61267 0.0
H4949 H 0.16711 0.11273 0.61952 0.0
C4950 C 0.20395 0.08699 0.60882 0.0
C4951 C 0.22481 0.07642 0.60316 0.0
C4952 C 0.20002 0.11009 0.60293 0.0
C4953 C 0.24046 0.08827 0.58946 0.0
C4954 C 0.23645 0.11089 0.58311 0.0
C4955 C 0.21413 0.14584 0.58669 0.0
C4956 C 0.19493 0.1576 0.59497 0.0
C4957 C 0.21678 0.12226 0.59057 0.0
C4958 C 0.17779 0.14522 0.60627 0.0
C4959 C 0.1803 0.12169 0.61023 0.0
H4960 H 0.19596 0.97402 0.84781 0.0
H4961 H 0.24145 0.91753 0.86145 0.0
H4962 H 0.21169 0.89043 0.85018 0.0
H4963 H 0.17206 0.88305 0.8385 0.0
H4964 H 0.12813 0.94029 0.82186 0.0
H4965 H 0.15768 0.96676 0.8334 0.0
C4966 C 0.19943 0.95577 0.848 0.0
C4967 C 0.22074 0.94771 0.85532 0.0
C4968 C 0.18236 0.94042 0.84161 0.0
C4969 C 0.22519 0.92409 0.85547 0.0
C4970 C 0.20813 0.90861 0.8493 0.0
C4971 C 0.16899 0.90128 0.83705 0.0
C4972 C 0.1476 0.90947 0.82963 0.0
C4973 C 0.18652 0.91661 0.84264 0.0
C4974 C 0.144 0.93327 0.82826 0.0
C4975 C 0.16107 0.94855 0.83448 0.0
H4976 H 0.31406 0.86006 0.08438 0.0
H4977 H 0.37388 0.86209 0.12703 0.0
H4978 H 0.37082 0.90382 0.12971 0.0
H4979 H 0.34786 0.93908 0.12398 0.0
H4980 H 0.28981 0.93686 0.0791 0.0
H4981 H 0.29583 0.89608 0.07269 0.0
C4982 C 0.32613 0.86963 0.09464 0.0
C4983 C 0.34364 0.858 0.10617 0.0
C4984 C 0.32469 0.8936 0.09559 0.0
C4985 C 0.3599 0.87068 0.11847 0.0
C4986 C 0.35822 0.89451 0.11994 0.0
C4987 C 0.33716 0.92982 0.11212 0.0
C4988 C 0.31808 0.94071 0.10251 0.0
C4989 C 0.34041 0.90614 0.10895 0.0
C4990 C 0.30454 0.92869 0.08681 0.0
C4991 C 0.30763 0.90526 0.08356 0.0
H4992 H 0.41313 0.97761 0.18529 0.0
H4993 H 0.41182 0.90443 0.17525 0.0
H4994 H 0.3704 0.90559 0.17134 0.0
H4995 H 0.33439 0.92784 0.16738 0.0
H4996 H 0.3366 1.0008 0.1771 0.0
H4997 H 0.37738 0.99931 0.18348 0.0
C4998 C 0.40395 0.9619 0.18182 0.0
C4999 C 0.41598 0.94103 0.18041 0.0
C5000 C 0.38006 0.96267 0.17892 0.0
C5001 C 0.40333 0.92083 0.17666 0.0
C5002 C 0.37951 0.92146 0.17416 0.0
C5003 C 0.34382 0.94337 0.17103 0.0
C5004 C 0.33237 0.9646 0.17074 0.0
C5005 C 0.36768 0.94234 0.17483 0.0
C5006 C 0.34483 0.9844 0.17604 0.0
C5007 C 0.36834 0.98354 0.17995 0.0
H5008 H 0.31772 0.14949 0.45851 0.0
H5009 H 0.37095 0.1563 0.40869 0.0
H5010 H 0.37173 0.11467 0.40329 0.0
H5011 H 0.35222 0.07736 0.40786 0.0
H5012 H 0.29731 0.07156 0.45597 0.0
H5013 H 0.30257 0.11132 0.46749 0.0
C5014 C 0.32947 0.14173 0.44653 0.0
C5015 C 0.34374 0.15571 0.43348 0.0
C5016 C 0.32955 0.11791 0.4433 0.0
C5017 C 0.35939 0.1457 0.41841 0.0
C5018 C 0.35981 0.12197 0.41532 0.0
C5019 C 0.34209 0.08466 0.42146 0.0
C5020 C 0.32445 0.0717 0.43109 0.0
C5021 C 0.34436 0.10798 0.42703 0.0
C5022 C 0.31124 0.08122 0.4486 0.0
C5023 C 0.31395 0.10407 0.45488 0.0
H5024 H 0.1994 0.04136 0.70148 0.0
H5025 H 0.21604 0.09615 0.65579 0.0
H5026 H 0.17785 0.11278 0.66137 0.0
H5027 H 0.13714 0.10649 0.67261 0.0
H5028 H 0.12059 0.04858 0.71468 0.0
H5029 H 0.16098 0.03817 0.71697 0.0
C5030 C 0.19492 0.05743 0.6934 0.0
C5031 C 0.21034 0.0673 0.67795 0.0
C5032 C 0.1725 0.06574 0.69533 0.0
C5033 C 0.20449 0.08819 0.66774 0.0
C5034 C 0.18243 0.09738 0.67052 0.0
C5035 C 0.14254 0.09182 0.68252 0.0
C5036 C 0.12595 0.07807 0.69323 0.0
C5037 C 0.16585 0.08546 0.68313 0.0
C5038 C 0.13305 0.05917 0.70609 0.0
C5039 C 0.15613 0.0533 0.70749 0.0
H5040 H 0.22187 0.86114 0.95141 0.0
H5041 H 0.1722 0.86174 0.89749 0.0
H5042 H 0.17791 0.90302 0.89225 0.0
H5043 H 0.20076 0.93777 0.9001 0.0
H5044 H 0.25059 0.93655 0.95395 0.0
H5045 H 0.24055 0.89704 0.96286 0.0
C5046 C 0.21231 0.87043 0.93859 0.0
C5047 C 0.19711 0.85857 0.92445 0.0
C5048 C 0.21551 0.89408 0.93592 0.0
C5049 C 0.18433 0.87064 0.90821 0.0
C5050 C 0.18752 0.89419 0.90532 0.0
C5051 C 0.20872 0.92908 0.91432 0.0
C5052 C 0.22639 0.93992 0.92636 0.0
C5053 C 0.20346 0.90601 0.91874 0.0
C5054 C 0.23684 0.92848 0.94458 0.0
C5055 C 0.23136 0.9058 0.94944 0.0
H5056 H 0.33324 0.39221 0.09108 0.0
H5057 H 0.35988 0.36754 0.1549 0.0
H5058 H 0.36602 0.32977 0.13822 0.0
H5059 H 0.36685 0.30458 0.10456 0.0
H5060 H 0.33991 0.32923 0.04108 0.0
H5061 H 0.33006 0.36575 0.05873 0.0
C5062 C 0.33999 0.3785 0.10152 0.0
C5063 C 0.34634 0.38294 0.1242 0.0
C5064 C 0.34353 0.35676 0.09182 0.0
C5065 C 0.35524 0.36486 0.1373 0.0
C5066 C 0.35866 0.34317 0.1278 0.0
C5067 C 0.35869 0.31795 0.09468 0.0
C5068 C 0.35482 0.31456 0.07136 0.0
C5069 C 0.35344 0.33909 0.10492 0.0
C5070 C 0.34359 0.33162 0.05889 0.0
C5071 C 0.33797 0.35256 0.06901 0.0
H5072 H 0.85275 0.12368 0.93018 0.0
H5073 H 0.81166 0.10659 0.98841 0.0
H5074 H 0.81286 0.14634 1.00114 0.0
H5075 H 0.83029 0.18418 0.99896 0.0
H5076 H 0.87402 0.20136 0.94295 0.0
H5077 H 0.86683 0.16375 0.92577 0.0
C5078 C 0.84402 0.12879 0.9456 0.0
C5079 C 0.8325 0.11218 0.95864 0.0
C5080 C 0.84547 0.15163 0.95328 0.0
C5081 C 0.82106 0.11896 0.97844 0.0
C5082 C 0.82172 0.14168 0.98569 0.0
C5083 C 0.83794 0.17982 0.98278 0.0
C5084 C 0.85326 0.19521 0.9726 0.0
C5085 C 0.83453 0.15791 0.97371 0.0
C5086 C 0.86247 0.1897 0.9513 0.0
C5087 C 0.85853 0.16807 0.94163 0.0
H5088 H 0.10095 0.59021 0.24056 0.0
H5089 H 0.08108 0.63606 0.18695 0.0
H5090 H 0.11789 0.62958 0.16797 0.0
H5091 H 0.15795 0.61443 0.16948 0.0
H5092 H 0.17792 0.57152 0.22558 0.0
H5093 H 0.13916 0.57332 0.24086 0.0
C5094 C 0.10454 0.59851 0.22454 0.0
C5095 C 0.08837 0.61375 0.21531 0.0
C5096 C 0.12606 0.59547 0.2144 0.0
C5097 C 0.09309 0.62407 0.19432 0.0
C5098 C 0.11432 0.6206 0.18365 0.0
C5099 C 0.15362 0.6053 0.18488 0.0
C5100 C 0.17077 0.59291 0.19649 0.0
C5101 C 0.13128 0.60694 0.19395 0.0
C5102 C 0.16505 0.58124 0.21648 0.0
C5103 C 0.14289 0.58226 0.2252 0.0
H5104 H 0.69994 0.84478 0.49839 0.0
H5105 H 0.65511 0.82218 0.44496 0.0
H5106 H 0.66083 0.85852 0.42484 0.0
H5107 H 0.67445 0.89908 0.42545 0.0
H5108 H 0.71634 0.92188 0.48123 0.0
H5109 H 0.71587 0.88343 0.49753 0.0
C5110 C 0.69185 0.84763 0.48207 0.0
C5111 C 0.67718 0.8308 0.47316 0.0
C5112 C 0.69435 0.86892 0.47129 0.0
C5113 C 0.66686 0.83464 0.45196 0.0
C5114 C 0.66982 0.85563 0.44068 0.0
C5115 C 0.68372 0.89542 0.44098 0.0
C5116 C 0.6954 0.91326 0.45221 0.0
C5117 C 0.68286 0.87325 0.4506 0.0
C5118 C 0.70721 0.90843 0.47239 0.0
C5119 C 0.70693 0.88646 0.4817 0.0
H5120 H 0.96651 0.90992 0.19447 0.0
H5121 H 0.94636 0.95517 0.24867 0.0
H5122 H 0.91781 0.97303 0.22402 0.0
H5123 H 0.89932 0.97639 0.18676 0.0
H5124 H 0.91853 0.93026 0.13278 0.0
H5125 H 0.94682 0.91221 0.15756 0.0
C5126 C 0.9561 0.92394 0.20069 0.0
C5127 C 0.9587 0.93151 0.22318 0.0
C5128 C 0.9395 0.93386 0.18651 0.0
C5129 C 0.94464 0.94914 0.23138 0.0
C5130 C 0.92833 0.95933 0.2173 0.0
C5131 C 0.90937 0.96211 0.18051 0.0
C5132 C 0.90681 0.95476 0.1579 0.0
C5133 C 0.92559 0.95181 0.19484 0.0
C5134 C 0.92032 0.93646 0.15003 0.0
C5135 C 0.9365 0.92611 0.16417 0.0
H5136 H 0.16753 0.62191 0.59837 0.0
H5137 H 0.21522 0.60935 0.54411 0.0
H5138 H 0.21795 0.65051 0.53688 0.0
H5139 H 0.20193 0.6889 0.54166 0.0
H5140 H 0.15088 0.70144 0.59262 0.0
H5141 H 0.15464 0.66187 0.60605 0.0
C5142 C 0.1784 0.6283 0.58491 0.0
C5143 C 0.19069 0.61271 0.5713 0.0
C5144 C 0.17928 0.65198 0.58037 0.0
C5145 C 0.20513 0.62106 0.55427 0.0
C5146 C 0.20678 0.64455 0.55026 0.0
C5147 C 0.19227 0.68316 0.55627 0.0
C5148 C 0.17603 0.69795 0.56604 0.0
C5149 C 0.19335 0.66005 0.56265 0.0
C5150 C 0.16366 0.69044 0.58498 0.0
C5151 C 0.16544 0.66764 0.59228 0.0
H5152 H 0.0641 0.41945 0.34035 0.0
H5153 H 0.09757 0.4499 0.28264 0.0
H5154 H 0.12975 0.46104 0.30656 0.0
H5155 H 0.15012 0.45776 0.34224 0.0
H5156 H 0.118 0.42634 0.40022 0.0
H5157 H 0.08357 0.41919 0.37752 0.0
C5158 C 0.07813 0.42917 0.33322 0.0
C5159 C 0.07859 0.43391 0.30983 0.0
C5160 C 0.09697 0.4347 0.34691 0.0
C5161 C 0.09699 0.44606 0.30061 0.0
C5162 C 0.11541 0.45226 0.31423 0.0
C5163 C 0.1354 0.44992 0.35021 0.0
C5164 C 0.13655 0.44281 0.37298 0.0
C5165 C 0.11588 0.44597 0.33717 0.0
C5166 C 0.11757 0.43189 0.3827 0.0
C5167 C 0.09786 0.42797 0.36978 0.0
H5168 H 0.47363 0.63478 0.85144 0.0
H5169 H 0.45773 0.58816 0.7968 0.0
H5170 H 0.42071 0.58017 0.81366 0.0
H5171 H 0.39129 0.59048 0.8403 0.0
H5172 H 0.40619 0.63602 0.89621 0.0
H5173 H 0.44497 0.64127 0.8817 0.0
C5174 C 0.46229 0.62238 0.84364 0.0
C5175 C 0.46829 0.61212 0.82288 0.0
C5176 C 0.44065 0.61832 0.85313 0.0
C5177 C 0.45341 0.59629 0.81276 0.0
C5178 C 0.43218 0.59186 0.82227 0.0
C5179 C 0.40307 0.60092 0.85 0.0
C5180 C 0.39561 0.61274 0.86945 0.0
C5181 C 0.42535 0.60339 0.84197 0.0
C5182 C 0.41121 0.62694 0.88098 0.0
C5183 C 0.4335 0.62979 0.87283 0.0
H5184 H 0.90067 0.69454 0.65897 0.0
H5185 H 0.92854 0.63507 0.62548 0.0
H5186 H 0.95595 0.62991 0.65619 0.0
H5187 H 0.97298 0.64323 0.69101 0.0
H5188 H 0.9432 0.69879 0.72855 0.0
H5189 H 0.91579 0.70535 0.69741 0.0
C5190 C 0.91256 0.68029 0.65874 0.0
C5191 C 0.91263 0.66505 0.64017 0.0
C5192 C 0.92821 0.67726 0.67668 0.0
C5193 C 0.92805 0.64671 0.6398 0.0
C5194 C 0.94392 0.64398 0.65715 0.0
C5195 C 0.96073 0.65685 0.69242 0.0
C5196 C 0.96053 0.6707 0.7118 0.0
C5197 C 0.9444 0.65938 0.67536 0.0
C5198 C 0.94398 0.68809 0.71355 0.0
C5199 C 0.92822 0.69167 0.69586 0.0
H5200 H 0.11822 0.25381 0.43468 0.0
H5201 H 0.11169 0.18867 0.46831 0.0
H5202 H 0.11043 0.16935 0.43139 0.0
H5203 H 0.11296 0.17101 0.3893 0.0
H5204 H 0.12412 0.23605 0.3568 0.0
H5205 H 0.12248 0.25541 0.3936 0.0
C5206 C 0.11644 0.23542 0.43408 0.0
C5207 C 0.11498 0.22279 0.45434 0.0
C5208 C 0.11698 0.22439 0.41292 0.0
C5209 C 0.11269 0.19888 0.45301 0.0
C5210 C 0.11215 0.1878 0.43189 0.0
C5211 C 0.11512 0.1894 0.39041 0.0
C5212 C 0.11873 0.20216 0.37046 0.0
C5213 C 0.11464 0.20036 0.41172 0.0
C5214 C 0.12156 0.22593 0.37198 0.0
C5215 C 0.12046 0.23699 0.39297 0.0
H5216 H 0.5886 0.37352 0.21562 0.0
H5217 H 0.53561 0.32531 0.19878 0.0
H5218 H 0.56024 0.30784 0.17002 0.0
H5219 H 0.5966 0.30638 0.15001 0.0
H5220 H 0.64858 0.35677 0.16422 0.0
H5221 H 0.62442 0.37357 0.19372 0.0
C5222 C 0.58268 0.35897 0.20588 0.0
C5223 C 0.56063 0.35033 0.20946 0.0
C5224 C 0.59654 0.34973 0.18878 0.0
C5225 C 0.55272 0.33194 0.19636 0.0
C5226 C 0.56669 0.32212 0.17988 0.0
C5227 C 0.60252 0.32138 0.15911 0.0
C5228 C 0.62441 0.33027 0.15486 0.0
C5229 C 0.58853 0.33102 0.17582 0.0
C5230 C 0.6319 0.34942 0.1673 0.0
C5231 C 0.61813 0.35901 0.18418 0.0
H5232 H 0.43452 0.86214 0.98264 0.0
H5233 H 0.42157 0.79607 0.95328 0.0
H5234 H 0.4281 0.8119 0.91509 0.0
H5235 H 0.43268 0.84537 0.89033 0.0
H5236 H 0.44501 0.9116 0.92002 0.0
H5237 H 0.44308 0.8949 0.95819 0.0
C5238 C 0.43313 0.85114 0.96787 0.0
C5239 C 0.4269 0.82806 0.97042 0.0
C5240 C 0.43612 0.86051 0.94624 0.0
C5241 C 0.42555 0.81395 0.95134 0.0
C5242 C 0.42913 0.82301 0.9297 0.0
C5243 C 0.43504 0.85603 0.90523 0.0
C5244 C 0.4386 0.87962 0.90266 0.0
C5245 C 0.43359 0.8464 0.92693 0.0
C5246 C 0.44179 0.89345 0.92185 0.0
C5247 C 0.44076 0.88391 0.94355 0.0
H5248 H 0.88945 0.34185 0.86905 0.0
H5249 H 0.94682 0.33704 0.9148 0.0
H5250 H 0.97321 0.34343 0.88339 0.0
H5251 H 0.97997 0.35139 0.84339 0.0
H5252 H 0.92299 0.35646 0.797 0.0
H5253 H 0.89654 0.3483 0.82802 0.0
C5254 C 0.90774 0.34217 0.87202 0.0
C5255 C 0.91625 0.33893 0.89413 0.0
C5256 C 0.92287 0.34559 0.85376 0.0
C5257 C 0.93995 0.33928 0.89786 0.0
C5258 C 0.95502 0.34295 0.87993 0.0
C5259 C 0.96179 0.3504 0.8399 0.0
C5260 C 0.95356 0.35451 0.81782 0.0
C5261 C 0.94668 0.34612 0.85784 0.0
C5262 C 0.9299 0.35315 0.81375 0.0
C5263 C 0.91471 0.34872 0.83155 0.0
H5264 H 0.4627 0.18971 0.63767 0.0
H5265 H 0.41476 0.13568 0.62295 0.0
H5266 H 0.39827 0.15847 0.59221 0.0
H5267 H 0.39989 0.19219 0.56754 0.0
H5268 H 0.44687 0.24686 0.58299 0.0
H5269 H 0.46153 0.22521 0.61546 0.0
C5270 C 0.44824 0.18316 0.62816 0.0
C5271 C 0.44007 0.16097 0.63249 0.0
C5272 C 0.43908 0.19621 0.61035 0.0
C5273 C 0.4215 0.15262 0.61979 0.0
C5274 C 0.41215 0.16559 0.60216 0.0
C5275 C 0.41335 0.19937 0.57801 0.0
C5276 C 0.42261 0.2209 0.57268 0.0
C5277 C 0.4213 0.18709 0.59686 0.0
C5278 C 0.43967 0.2302 0.58665 0.0
C5279 C 0.44798 0.21788 0.60523 0.0
H5280 H 0.57327 0.734 0.38117 0.0
H5281 H 0.63198 0.69022 0.38998 0.0
H5282 H 0.61875 0.66576 0.35873 0.0
H5283 H 0.5912 0.65817 0.32757 0.0
H5284 H 0.53256 0.70236 0.31985 0.0
H5285 H 0.54569 0.72608 0.35128 0.0
C5286 C 0.58319 0.71911 0.37624 0.0
C5287 C 0.60366 0.71404 0.38766 0.0
C5288 C 0.57585 0.70564 0.35804 0.0
C5289 C 0.61608 0.69439 0.38149 0.0
C5290 C 0.6087 0.68061 0.36345 0.0
C5291 C 0.58149 0.67312 0.33273 0.0
C5292 C 0.56102 0.67863 0.32149 0.0
C5293 C 0.58882 0.68635 0.3513 0.0
C5294 C 0.5484 0.69788 0.3283 0.0
C5295 C 0.55582 0.71137 0.34632 0.0
H5296 H 0.10153 0.80024 0.08754 0.0
H5297 H 0.09473 0.85394 0.03762 0.0
H5298 H 0.07098 0.87592 0.06374 0.0
H5299 H 0.0531 0.88041 0.10105 0.0
H5300 H 0.05956 0.82681 0.15093 0.0
H5301 H 0.08274 0.80429 0.1245 0.0
C5302 C 0.09483 0.81673 0.08231 0.0
C5303 C 0.09995 0.82543 0.06065 0.0
C5304 C 0.08123 0.82932 0.09743 0.0
C5305 C 0.09101 0.84678 0.05416 0.0
C5306 C 0.07747 0.85941 0.06911 0.0
C5307 C 0.05937 0.86368 0.10604 0.0
C5308 C 0.05464 0.85525 0.12789 0.0
C5309 C 0.07259 0.85089 0.0908 0.0
C5310 C 0.06319 0.83374 0.13428 0.0
C5311 C 0.07634 0.82084 0.11915 0.0
H5312 H 0.68168 0.99384 0.6896 0.0
H5313 H 0.71164 0.93259 0.66179 0.0
H5314 H 0.67407 0.91416 0.66146 0.0
H5315 H 0.6318 0.91828 0.66241 0.0
H5316 H 0.60215 0.98168 0.68543 0.0
H5317 H 0.64027 0.99745 0.6922 0.0
C5318 C 0.67997 0.97636 0.68365 0.0
C5319 C 0.69916 0.96489 0.67496 0.0
C5320 C 0.65818 0.96693 0.68112 0.0
C5321 C 0.69708 0.94186 0.66848 0.0
C5322 C 0.6755 0.93156 0.66766 0.0
C5323 C 0.63386 0.93571 0.6684 0.0
C5324 C 0.61445 0.94927 0.67257 0.0
C5325 C 0.65582 0.94449 0.67249 0.0
C5326 C 0.61702 0.97142 0.68132 0.0
C5327 C 0.63872 0.98019 0.68562 0.0
H5328 H 0.8818 0.89696 0.41859 0.0
H5329 H 0.82824 0.86593 0.45827 0.0
H5330 H 0.80652 0.90148 0.45736 0.0
H5331 H 0.80118 0.94027 0.443 0.0
H5332 H 0.8531 0.97145 0.4017 0.0
H5333 H 0.87748 0.93757 0.40645 0.0
C5334 C 0.86542 0.89805 0.42709 0.0
C5335 C 0.85675 0.87873 0.43855 0.0
C5336 C 0.85287 0.91873 0.42651 0.0
C5337 C 0.83552 0.88052 0.44959 0.0
C5338 C 0.82303 0.90087 0.44906 0.0
C5339 C 0.818 0.93979 0.43533 0.0
C5340 C 0.82514 0.95817 0.42169 0.0
C5341 C 0.8314 0.91996 0.43738 0.0
C5342 C 0.8472 0.95759 0.41236 0.0
C5343 C 0.86098 0.93802 0.41477 0.0
H5344 H 0.81152 0.10043 0.17423 0.0
H5345 H 0.81952 0.02731 0.178 0.0
H5346 H 0.85713 0.03156 0.19446 0.0
H5347 H 0.88719 0.0559 0.20931 0.0
H5348 H 0.87827 0.12922 0.21001 0.0
H5349 H 0.84199 0.1252 0.18973 0.0
C5350 C 0.8216 0.08548 0.17864 0.0
C5351 C 0.81308 0.06349 0.17404 0.0
C5352 C 0.84311 0.08816 0.18884 0.0
C5353 C 0.82603 0.04431 0.18018 0.0
C5354 C 0.84752 0.04677 0.18994 0.0
C5355 C 0.87725 0.07105 0.20524 0.0
C5356 C 0.8853 0.09278 0.21145 0.0
C5357 C 0.85615 0.06859 0.19445 0.0
C5358 C 0.87254 0.11226 0.20533 0.0
C5359 C 0.85168 0.10997 0.19396 0.0
H5360 H 0.71946 0.16672 0.95525 0.0
H5361 H 0.65775 0.16647 0.91523 0.0
H5362 H 0.66124 0.12516 0.90984 0.0
H5363 H 0.68592 0.09028 0.91062 0.0
H5364 H 0.74659 0.09092 0.95206 0.0
H5365 H 0.73931 0.13048 0.96281 0.0
C5366 C 0.70698 0.15769 0.945 0.0
C5367 C 0.68886 0.16988 0.93498 0.0
C5368 C 0.70899 0.13388 0.94202 0.0
C5369 C 0.67218 0.15765 0.92275 0.0
C5370 C 0.67419 0.13398 0.91956 0.0
C5371 C 0.697 0.09884 0.92265 0.0
C5372 C 0.71706 0.08787 0.93005 0.0
C5373 C 0.693 0.122 0.92839 0.0
C5374 C 0.73109 0.09906 0.94598 0.0
C5375 C 0.7272 0.12187 0.95181 0.0
H5376 H 0.63454 0.12999 0.86886 0.0
H5377 H 0.60415 0.06338 0.87725 0.0
H5378 H 0.64141 0.0453 0.87205 0.0
H5379 H 0.68151 0.04835 0.86384 0.0
H5380 H 0.71463 0.11422 0.86284 0.0
H5381 H 0.67695 0.13298 0.86459 0.0
C5382 C 0.63631 0.11156 0.87002 0.0
C5383 C 0.6168 0.09793 0.87375 0.0
C5384 C 0.65791 0.1013 0.86737 0.0
C5385 C 0.61904 0.07411 0.87496 0.0
C5386 C 0.64022 0.06381 0.8716 0.0
C5387 C 0.68081 0.06682 0.86433 0.0
C5388 C 0.701 0.07981 0.86339 0.0
C5389 C 0.65962 0.07723 0.86756 0.0
C5390 C 0.69936 0.10379 0.86336 0.0
C5391 C 0.67787 0.11446 0.86465 0.0
H5392 H 0.74151 0.93445 0.59769 0.0
H5393 H 0.6753 0.95935 0.61841 0.0
H5394 H 0.65975 0.92046 0.61474 0.0
H5395 H 0.66649 0.87831 0.61011 0.0
H5396 H 0.7339 0.85487 0.59155 0.0
H5397 H 0.74747 0.89417 0.59032 0.0
C5398 C 0.72356 0.93162 0.60122 0.0
C5399 C 0.70971 0.94995 0.60863 0.0
C5400 C 0.71505 0.90923 0.59993 0.0
C5401 C 0.68642 0.9457 0.61265 0.0
C5402 C 0.67757 0.92336 0.61075 0.0
C5403 C 0.68407 0.88189 0.6056 0.0
C5404 C 0.69931 0.86353 0.60144 0.0
C5405 C 0.69195 0.90481 0.60517 0.0
C5406 C 0.72198 0.86853 0.59542 0.0
C5407 C 0.72973 0.89105 0.59455 0.0
H5408 H 0.84913 1.00025 0.34847 0.0
H5409 H 0.82404 0.93199 0.36046 0.0
H5410 H 0.86293 0.91682 0.35645 0.0
H5411 H 0.90497 0.92368 0.35384 0.0
H5412 H 0.9289 0.99259 0.34257 0.0
H5413 H 0.88979 1.00658 0.34246 0.0
C5414 C 0.85196 0.98196 0.34984 0.0
C5415 C 0.83346 0.96739 0.35488 0.0
C5416 C 0.87444 0.97345 0.3482 0.0
C5417 C 0.83775 0.94371 0.3564 0.0
C5418 C 0.86012 0.93503 0.35437 0.0
C5419 C 0.90164 0.94171 0.35108 0.0
C5420 C 0.9202 0.95707 0.3488 0.0
C5421 C 0.87877 0.94983 0.35096 0.0
C5422 C 0.91526 0.98037 0.34512 0.0
C5423 C 0.89278 0.98843 0.34483 0.0
H5424 H 0.81408 0.16678 0.08111 0.0
H5425 H 0.85936 0.16596 0.13872 0.0
H5426 H 0.85377 0.12455 0.14292 0.0
H5427 H 0.83271 0.08947 0.13245 0.0
H5428 H 0.78568 0.09115 0.07626 0.0
H5429 H 0.79606 0.13083 0.06832 0.0
C5430 C 0.82284 0.15738 0.09441 0.0
C5431 C 0.83686 0.16922 0.10977 0.0
C5432 C 0.81955 0.13365 0.09662 0.0
C5433 C 0.84827 0.15707 0.12691 0.0
C5434 C 0.84518 0.13344 0.1292 0.0
C5435 C 0.82542 0.09834 0.11801 0.0
C5436 C 0.80863 0.08743 0.10484 0.0
C5437 C 0.83054 0.12159 0.1144 0.0
C5438 C 0.79895 0.09914 0.08636 0.0
C5439 C 0.80458 0.12195 0.08208 0.0
H5440 H 0.66273 0.72053 0.93402 0.0
H5441 H 0.70556 0.69651 0.98864 0.0
H5442 H 0.72266 0.66788 0.96355 0.0
H5443 H 0.72485 0.64938 0.92655 0.0
H5444 H 0.67986 0.67083 0.87244 0.0
H5445 H 0.66392 0.70068 0.89694 0.0
C5446 C 0.67608 0.70922 0.9402 0.0
C5447 C 0.68322 0.71067 0.96291 0.0
C5448 C 0.68509 0.69217 0.92595 0.0
C5449 C 0.70007 0.6957 0.97108 0.0
C5450 C 0.70968 0.67928 0.95682 0.0
C5451 C 0.71122 0.66023 0.92018 0.0
C5452 C 0.70349 0.65774 0.8977 0.0
C5453 C 0.70209 0.67716 0.93434 0.0
C5454 C 0.68623 0.67244 0.88964 0.0
C5455 C 0.67713 0.68953 0.90362 0.0
H5456 H 0.17239 0.90687 0.10832 0.0
H5457 H 0.21492 0.92776 0.05245 0.0
H5458 H 0.21404 0.88892 0.037 0.0
H5459 H 0.19802 0.85042 0.03714 0.0
H5460 H 0.15203 0.82984 0.09025 0.0
H5461 H 0.15797 0.86667 0.10956 0.0
C5462 C 0.18154 0.90275 0.09285 0.0
C5463 C 0.19352 0.92011 0.08131 0.0
C5464 C 0.18044 0.8804 0.08374 0.0
C5465 C 0.20538 0.9147 0.06136 0.0
C5466 C 0.20494 0.89251 0.0526 0.0
C5467 C 0.18964 0.85384 0.05318 0.0
C5468 C 0.17463 0.83746 0.06225 0.0
C5469 C 0.19212 0.8754 0.06335 0.0
C5470 C 0.16401 0.84199 0.08314 0.0
C5471 C 0.16709 0.86323 0.09393 0.0
H5472 H 0.87558 0.42453 0.8567 0.0
H5473 H 0.85326 0.45676 0.79472 0.0
H5474 H 0.89227 0.45528 0.77987 0.0
H5475 H 0.9317 0.44207 0.78325 0.0
H5476 H 0.95333 0.40486 0.84257 0.0
H5477 H 0.91611 0.41203 0.8604 0.0
C5478 C 0.87941 0.43134 0.84002 0.0
C5479 C 0.86166 0.44058 0.82667 0.0
C5480 C 0.90178 0.42976 0.83134 0.0
C5481 C 0.86666 0.44936 0.8051 0.0
C5482 C 0.88893 0.44861 0.7967 0.0
C5483 C 0.92827 0.43553 0.80008 0.0
C5484 C 0.94505 0.42257 0.81138 0.0
C5485 C 0.90647 0.43843 0.80946 0.0
C5486 C 0.94075 0.41501 0.83357 0.0
C5487 C 0.91933 0.41881 0.84359 0.0
H5488 H 0.34596 0.18913 0.54277 0.0
H5489 H 0.35935 0.23798 0.59607 0.0
H5490 H 0.35402 0.20831 0.62454 0.0
H5491 H 0.3496 0.16756 0.63423 0.0
H5492 H 0.33832 0.11842 0.58073 0.0
H5493 H 0.33956 0.1489 0.55246 0.0
C5494 C 0.34768 0.19331 0.56058 0.0
C5495 C 0.35357 0.21567 0.56711 0.0
C5496 C 0.34545 0.17596 0.57689 0.0
C5497 C 0.35483 0.22095 0.59041 0.0
C5498 C 0.35209 0.20389 0.60677 0.0
C5499 C 0.34742 0.16357 0.61638 0.0
C5500 C 0.34397 0.14076 0.60959 0.0
C5501 C 0.34815 0.18119 0.60018 0.0
C5502 C 0.34085 0.13586 0.58642 0.0
C5503 C 0.34157 0.15327 0.57024 0.0
H5504 H 0.10561 0.11978 0.79496 0.0
H5505 H 0.05097 0.07927 0.82294 0.0
H5506 H 0.07662 0.06504 0.85252 0.0
H5507 H 0.11372 0.06647 0.87203 0.0
H5508 H 0.16847 0.10657 0.844 0.0
H5509 H 0.14359 0.11883 0.81265 0.0
C5510 C 0.09951 0.10727 0.80703 0.0
C5511 C 0.07652 0.10041 0.80666 0.0
C5512 C 0.11422 0.09954 0.8242 0.0
C5513 C 0.06866 0.08474 0.8229 0.0
C5514 C 0.08325 0.07672 0.83987 0.0
C5515 C 0.1201 0.07785 0.85896 0.0
C5516 C 0.1426 0.08594 0.86025 0.0
C5517 C 0.10587 0.08446 0.841 0.0
C5518 C 0.15105 0.10036 0.84323 0.0
C5519 C 0.1369 0.10727 0.82537 0.0
H5520 H 0.86532 0.40864 0.42404 0.0
H5521 H 0.82581 0.4346 0.48012 0.0
H5522 H 0.82312 0.39614 0.49613 0.0
H5523 H 0.83572 0.35628 0.4966 0.0
H5524 H 0.87853 0.33039 0.44305 0.0
H5525 H 0.87557 0.36711 0.42313 0.0
C5526 C 0.85603 0.4057 0.43967 0.0
C5527 C 0.84607 0.42439 0.45116 0.0
C5528 C 0.85504 0.3835 0.4491 0.0
C5529 C 0.83391 0.42049 0.47127 0.0
C5530 C 0.8323 0.39851 0.48036 0.0
C5531 C 0.84408 0.35856 0.48038 0.0
C5532 C 0.8575 0.34071 0.47147 0.0
C5533 C 0.84331 0.38004 0.46977 0.0
C5534 C 0.86785 0.34372 0.45018 0.0
C5535 C 0.86649 0.3649 0.43899 0.0
H5536 H 0.93345 0.59052 0.74991 0.0
H5537 H 0.97711 0.60487 0.69282 0.0
H5538 H 0.95404 0.58026 0.66885 0.0
H5539 H 0.92219 0.55373 0.66444 0.0
H5540 H 0.88038 0.53647 0.72196 0.0
H5541 H 0.90244 0.56286 0.74603 0.0
C5542 C 0.93773 0.58858 0.73222 0.0
C5543 C 0.95632 0.6004 0.72294 0.0
C5544 C 0.92506 0.5735 0.71888 0.0
C5545 C 0.96233 0.59676 0.70017 0.0
C5546 C 0.94932 0.58244 0.6865 0.0
C5547 C 0.91808 0.55583 0.68229 0.0
C5548 C 0.90002 0.54357 0.69173 0.0
C5549 C 0.93077 0.57068 0.69574 0.0
C5550 C 0.89439 0.54605 0.71467 0.0
C5551 C 0.90691 0.56104 0.72827 0.0
H5552 H 0.64271 0.42576 0.17332 0.0
H5553 H 0.66002 0.46192 0.23479 0.0
H5554 H 0.62048 0.45931 0.24769 0.0
H5555 H 0.58278 0.44137 0.24437 0.0
H5556 H 0.56462 0.4054 0.18311 0.0
H5557 H 0.60256 0.41312 0.1673 0.0
C5558 C 0.63768 0.43333 0.18937 0.0
C5559 C 0.65434 0.4436 0.20334 0.0
C5560 C 0.61487 0.43142 0.1969 0.0
C5561 C 0.64759 0.45356 0.22397 0.0
C5562 C 0.62497 0.45215 0.23131 0.0
C5563 C 0.58693 0.43579 0.22729 0.0
C5564 C 0.57106 0.42263 0.21502 0.0
C5565 C 0.60872 0.44026 0.21839 0.0
C5566 C 0.57653 0.41565 0.19285 0.0
C5567 C 0.59833 0.41986 0.18391 0.0
H5568 H 0.6001 0.81201 0.88628 0.0
H5569 H 0.66055 0.84311 0.85797 0.0
H5570 H 0.63752 0.8605 0.82799 0.0
H5571 H 0.60076 0.86736 0.81068 0.0
H5572 H 0.53948 0.83826 0.83938 0.0
H5573 H 0.56255 0.8195 0.8688 0.0
C5574 C 0.60818 0.82286 0.87373 0.0
C5575 C 0.63197 0.82644 0.87438 0.0
C5576 C 0.59482 0.83299 0.85674 0.0
C5577 C 0.64231 0.84004 0.85771 0.0
C5578 C 0.62917 0.85001 0.84065 0.0
C5579 C 0.59228 0.85678 0.82318 0.0
C5580 C 0.56838 0.85414 0.82279 0.0
C5581 C 0.60547 0.84658 0.84007 0.0
C5582 C 0.55784 0.84057 0.83936 0.0
C5583 C 0.57101 0.82991 0.85615 0.0
H5584 H 0.40745 0.33964 0.08713 0.0
H5585 H 0.43455 0.27113 0.09341 0.0
H5586 H 0.4426 0.27765 0.13332 0.0
H5587 H 0.4396 0.30158 0.1674 0.0
H5588 H 0.4133 0.37025 0.16185 0.0
H5589 H 0.4076 0.36499 0.12096 0.0
C5590 C 0.41552 0.3263 0.09712 0.0
C5591 C 0.42006 0.3048 0.08717 0.0
C5592 C 0.42005 0.33007 0.1204 0.0
C5593 C 0.43054 0.28776 0.10051 0.0
C5594 C 0.43513 0.29142 0.12347 0.0
C5595 C 0.43256 0.31536 0.15724 0.0
C5596 C 0.42665 0.33615 0.16773 0.0
C5597 C 0.42941 0.31225 0.13375 0.0
C5598 C 0.41801 0.35405 0.15421 0.0
C5599 C 0.41474 0.35104 0.13081 0.0
H5600 H 0.95579 0.24993 0.3731 0.0
H5601 H 0.90157 0.20168 0.38526 0.0
H5602 H 0.91774 0.17576 0.35662 0.0
H5603 H 0.9478 0.16703 0.32817 0.0
H5604 H 1.00247 0.21526 0.31809 0.0
H5605 H 0.98516 0.24152 0.34528 0.0
C5606 C 0.94738 0.23383 0.36932 0.0
C5607 C 0.92748 0.22776 0.38104 0.0
C5608 C 0.95665 0.21927 0.35295 0.0
C5609 C 0.91702 0.20662 0.37645 0.0
C5610 C 0.92613 0.19193 0.35999 0.0
C5611 C 0.95554 0.1835 0.33174 0.0
C5612 C 0.97601 0.1896 0.32101 0.0
C5613 C 0.94592 0.19815 0.34806 0.0
C5614 C 0.98647 0.21056 0.32602 0.0
C5615 C 0.97671 0.22544 0.34165 0.0
H5616 H 0.1159 0.68248 0.56711 0.0
H5617 H 0.08313 0.74791 0.57639 0.0
H5618 H 0.06039 0.73252 0.60762 0.0
H5619 H 0.05025 0.70046 0.63246 0.0
H5620 H 0.08475 0.63576 0.6252 0.0
H5621 H 0.10712 0.65089 0.59335 0.0
C5622 C 0.10359 0.69317 0.57592 0.0
C5623 C 0.10085 0.71608 0.5696 0.0
C5624 C 0.09139 0.68448 0.59441 0.0
C5625 C 0.08526 0.73013 0.58114 0.0
C5626 C 0.07243 0.72141 0.59899 0.0
C5627 C 0.06294 0.68991 0.62402 0.0
C5628 C 0.06624 0.66728 0.63097 0.0
C5629 C 0.07553 0.69869 0.6059 0.0
C5630 C 0.08239 0.6534 0.62006 0.0
C5631 C 0.09491 0.66195 0.60181 0.0
H5632 H 0.55147 0.17331 0.6885 0.0
H5633 H 0.60916 0.17199 0.73422 0.0
H5634 H 0.63516 0.17752 0.70235 0.0
H5635 H 0.64159 0.18188 0.66107 0.0
H5636 H 0.58365 0.18292 0.61581 0.0
H5637 H 0.55771 0.17801 0.64785 0.0
C5638 C 0.56969 0.17463 0.69161 0.0
C5639 C 0.57828 0.17236 0.71378 0.0
C5640 C 0.58457 0.17739 0.67318 0.0
C5641 C 0.60202 0.17375 0.71735 0.0
C5642 C 0.61695 0.17678 0.6991 0.0
C5643 C 0.6233 0.18084 0.65831 0.0
C5644 C 0.61448 0.18274 0.63619 0.0
C5645 C 0.60843 0.17832 0.67689 0.0
C5646 C 0.59076 0.1816 0.63275 0.0
C5647 C 0.57594 0.17886 0.65104 0.0
H5648 H 0.08388 0.38315 0.92432 0.0
H5649 H 0.08983 0.3306 0.87336 0.0
H5650 H 0.09713 0.30189 0.90275 0.0
H5651 H 0.10369 0.29223 0.94285 0.0
H5652 H 0.09623 0.34484 0.99386 0.0
H5653 H 0.08723 0.37285 0.96467 0.0
C5654 C 0.08672 0.36538 0.91977 0.0
C5655 C 0.08657 0.3589 0.89686 0.0
C5656 C 0.09049 0.34897 0.93674 0.0
C5657 C 0.08993 0.33585 0.891 0.0
C5658 C 0.0941 0.31948 0.90775 0.0
C5659 C 0.0998 0.30975 0.94757 0.0
C5660 C 0.10077 0.3164 0.97046 0.0
C5661 C 0.09464 0.32589 0.93068 0.0
C5662 C 0.09554 0.33916 0.97636 0.0
C5663 C 0.09055 0.3553 0.95966 0.0
H5664 H 0.93714 0.84588 0.23362 0.0
H5665 H 0.99993 0.8665 0.20203 0.0
H5666 H 0.9853 0.85493 0.16479 0.0
H5667 H 0.95263 0.84311 0.14101 0.0
H5668 H 0.88997 0.82212 0.17299 0.0
H5669 H 0.90662 0.82914 0.21054 0.0
C5670 C 0.94768 0.84758 0.21859 0.0
C5671 C 0.96924 0.8578 0.22014 0.0
C5672 C 0.9391 0.84087 0.19743 0.0
C5673 C 0.98298 0.85946 0.20079 0.0
C5674 C 0.97464 0.8528 0.17963 0.0
C5675 C 0.94289 0.8397 0.15629 0.0
C5676 C 0.92018 0.8323 0.15456 0.0
C5677 C 0.95242 0.84417 0.17767 0.0
C5678 C 0.90748 0.82796 0.17421 0.0
C5679 C 0.91695 0.83203 0.19556 0.0
H5680 H 0.47629 0.65792 0.41963 0.0
H5681 H 0.49036 0.72465 0.39209 0.0
H5682 H 0.47121 0.74275 0.42452 0.0
H5683 H 0.44934 0.73906 0.45939 0.0
H5684 H 0.43549 0.67241 0.48749 0.0
H5685 H 0.45652 0.65436 0.45624 0.0
C5686 C 0.47492 0.6764 0.42085 0.0
C5687 C 0.48395 0.6902 0.40373 0.0
C5688 C 0.46441 0.68644 0.43955 0.0
C5689 C 0.48292 0.71404 0.4052 0.0
C5690 C 0.47223 0.72425 0.42367 0.0
C5691 C 0.45112 0.72058 0.45871 0.0
C5692 C 0.44073 0.70688 0.47518 0.0
C5693 C 0.46279 0.71056 0.44078 0.0
C5694 C 0.44349 0.68309 0.47477 0.0
C5695 C 0.45523 0.67285 0.45688 0.0
H5696 H 0.85764 0.5353 0.83764 0.0
H5697 H 0.83363 0.59714 0.86939 0.0
H5698 H 0.87138 0.61471 0.86392 0.0
H5699 H 0.91321 0.60996 0.8556 0.0
H5700 H 0.93682 0.54579 0.82794 0.0
H5701 H 0.89773 0.53146 0.82699 0.0
C5702 C 0.86056 0.55274 0.84316 0.0
C5703 C 0.84287 0.56466 0.85433 0.0
C5704 C 0.88263 0.56208 0.8413 0.0
C5705 C 0.84679 0.58753 0.86064 0.0
C5706 C 0.86858 0.59743 0.85788 0.0
C5707 C 0.90971 0.59294 0.84917 0.0
C5708 C 0.92811 0.57881 0.84221 0.0
C5709 C 0.88696 0.58449 0.84916 0.0
C5710 C 0.92317 0.55685 0.8338 0.0
C5711 C 0.90076 0.54868 0.83312 0.0
H5712 H 0.75035 0.58522 0.08893 0.0
H5713 H 0.68686 0.56981 0.12253 0.0
H5714 H 0.67158 0.60726 0.11128 0.0
H5715 H 0.67971 0.64737 0.09905 0.0
H5716 H 0.74293 0.66139 0.06435 0.0
H5717 H 0.75453 0.62132 0.06871 0.0
C5718 C 0.73305 0.58989 0.09364 0.0
C5719 C 0.72013 0.57507 0.10737 0.0
C5720 C 0.72453 0.61152 0.08753 0.0
C5721 C 0.69743 0.58108 0.11246 0.0
C5722 C 0.68877 0.60262 0.10624 0.0
C5723 C 0.69591 0.6416 0.0922 0.0
C5724 C 0.71092 0.65758 0.08222 0.0
C5725 C 0.70272 0.61854 0.09502 0.0
C5726 C 0.73153 0.64964 0.07288 0.0
C5727 C 0.73816 0.6268 0.07532 0.0
H5728 H 0.68579 0.48119 0.35803 0.0
H5729 H 0.74243 0.44306 0.32982 0.0
H5730 H 0.71687 0.42502 0.30259 0.0
H5731 H 0.67831 0.41766 0.28928 0.0
H5732 H 0.62173 0.45675 0.31616 0.0
H5733 H 0.64765 0.47675 0.34183 0.0
C5734 C 0.69257 0.46899 0.34589 0.0
C5735 C 0.71583 0.46314 0.3462 0.0
C5736 C 0.67787 0.45874 0.33027 0.0
C5737 C 0.72445 0.4475 0.33022 0.0
C5738 C 0.70991 0.43726 0.31457 0.0
C5739 C 0.67165 0.43098 0.30026 0.0
C5740 C 0.6481 0.43548 0.30104 0.0
C5741 C 0.68656 0.44246 0.31476 0.0
C5742 C 0.63976 0.45259 0.31565 0.0
C5743 C 0.65455 0.46409 0.33024 0.0
H5744 H 0.85913 0.36949 0.60545 0.0
H5745 H 0.79308 0.34757 0.58105 0.0
H5746 H 0.78057 0.38725 0.57848 0.0
H5747 H 0.78659 0.42739 0.58737 0.0
H5748 H 0.8502 0.44968 0.61657 0.0
H5749 H 0.86654 0.41133 0.6101 0.0
C5750 C 0.84205 0.37342 0.59947 0.0
C5751 C 0.8268 0.35544 0.59412 0.0
C5752 C 0.83478 0.39646 0.5983 0.0
C5753 C 0.80487 0.36093 0.58604 0.0
C5754 C 0.79781 0.38365 0.58425 0.0
C5755 C 0.8041 0.42389 0.59233 0.0
C5756 C 0.81679 0.44099 0.60347 0.0
C5757 C 0.81235 0.40143 0.59098 0.0
C5758 C 0.83988 0.43672 0.60838 0.0
C5759 C 0.84897 0.4146 0.60534 0.0
H5760 H 0.90866 0.4641 0.70743 0.0
H5761 H 0.91735 0.4135 0.65502 0.0
H5762 H 0.87594 0.41229 0.64892 0.0
H5763 H 0.83792 0.43013 0.65445 0.0
H5764 H 0.83029 0.48347 0.70423 0.0
H5765 H 0.86998 0.47856 0.71611 0.0
C5766 C 0.90137 0.45288 0.69467 0.0
C5767 C 0.91589 0.43946 0.68116 0.0
C5768 C 0.87759 0.45259 0.691 0.0
C5769 C 0.90639 0.42444 0.66514 0.0
C5770 C 0.88275 0.42373 0.66168 0.0
C5771 C 0.84487 0.44015 0.66828 0.0
C5772 C 0.8313 0.45713 0.67841 0.0
C5773 C 0.86822 0.43829 0.67395 0.0
C5774 C 0.84039 0.47008 0.69638 0.0
C5775 C 0.8632 0.46753 0.70294 0.0
H5776 H 0.7954 0.59587 0.93663 0.0
H5777 H 0.86075 0.5743 0.91047 0.0
H5778 H 0.87533 0.61348 0.91498 0.0
H5779 H 0.86785 0.6551 0.92258 0.0
H5780 H 0.8014 0.67525 0.94736 0.0
H5781 H 0.78898 0.63558 0.94693 0.0
C5782 C 0.81299 0.5995 0.93218 0.0
C5783 C 0.82684 0.58199 0.923 0.0
C5784 C 0.82097 0.6221 0.93419 0.0
C5785 C 0.84966 0.58726 0.91768 0.0
C5786 C 0.85793 0.6098 0.92003 0.0
C5787 C 0.85074 0.65074 0.92809 0.0
C5788 C 0.83542 0.6684 0.93449 0.0
C5789 C 0.8435 0.62757 0.92765 0.0
C5790 C 0.81338 0.66228 0.94174 0.0
C5791 C 0.80628 0.6395 0.94167 0.0
H5792 H 0.63115 0.572 0.20033 0.0
H5793 H 0.64255 0.62446 0.15035 0.0
H5794 H 0.68369 0.61613 0.15087 0.0
H5795 H 0.71428 0.58838 0.15923 0.0
H5796 H 0.70185 0.53412 0.20705 0.0
H5797 H 0.66327 0.54859 0.21374 0.0
C5798 C 0.64271 0.58145 0.18944 0.0
C5799 C 0.63402 0.59827 0.17481 0.0
C5800 C 0.66598 0.57597 0.18915 0.0
C5801 C 0.64897 0.61087 0.16112 0.0
C5802 C 0.67237 0.60613 0.16142 0.0
C5803 C 0.70345 0.58039 0.17184 0.0
C5804 C 0.71061 0.56013 0.18244 0.0
C5805 C 0.68088 0.588 0.17455 0.0
C5806 C 0.6965 0.54976 0.19869 0.0
C5807 C 0.67435 0.55777 0.20219 0.0
H5808 H 0.74003 0.43533 0.44493 0.0
H5809 H 0.68563 0.46001 0.40215 0.0
H5810 H 0.66508 0.4238 0.40715 0.0
H5811 H 0.66608 0.38278 0.4184 0.0
H5812 H 0.72361 0.35737 0.4566 0.0
H5813 H 0.7397 0.39589 0.45852 0.0
C5814 C 0.7235 0.43287 0.437 0.0
C5815 C 0.71451 0.4501 0.42294 0.0
C5816 C 0.71275 0.41157 0.43861 0.0
C5817 C 0.69281 0.44705 0.41321 0.0
C5818 C 0.6813 0.42617 0.41572 0.0
C5819 C 0.68209 0.38584 0.42717 0.0
C5820 C 0.69396 0.36736 0.43698 0.0
C5821 C 0.69166 0.40793 0.42745 0.0
C5822 C 0.71456 0.37135 0.44849 0.0
C5823 C 0.72367 0.39334 0.44968 0.0
H5824 H 0.84156 0.81634 0.56085 0.0
H5825 H 0.89184 0.79381 0.60909 0.0
H5826 H 0.88167 0.82518 0.63464 0.0
H5827 H 0.8576 0.8585 0.64343 0.0
H5828 H 0.80642 0.88023 0.59517 0.0
H5829 H 0.81862 0.85053 0.56875 0.0
C5830 C 0.85095 0.81898 0.57645 0.0
C5831 C 0.86883 0.80426 0.58224 0.0
C5832 C 0.84482 0.83694 0.59098 0.0
C5833 C 0.87915 0.80615 0.60365 0.0
C5834 C 0.87318 0.82389 0.61833 0.0
C5835 C 0.84929 0.85683 0.62704 0.0
C5836 C 0.83123 0.87156 0.62125 0.0
C5837 C 0.85606 0.83945 0.6121 0.0
C5838 C 0.82064 0.86933 0.5999 0.0
C5839 C 0.82738 0.85217 0.5849 0.0
H5840 H 0.31723 0.62686 0.44881 0.0
H5841 H 0.38559 0.60236 0.43642 0.0
H5842 H 0.40125 0.63942 0.44762 0.0
H5843 H 0.39597 0.67719 0.46499 0.0
H5844 H 0.32834 0.70161 0.47987 0.0
H5845 H 0.31185 0.66664 0.46358 0.0
C5846 C 0.3355 0.62984 0.44825 0.0
C5847 C 0.35027 0.61182 0.4419 0.0
C5848 C 0.3445 0.65123 0.45524 0.0
C5849 C 0.37392 0.61587 0.4414 0.0
C5850 C 0.38289 0.63707 0.4478 0.0
C5851 C 0.3776 0.67516 0.46395 0.0
C5852 C 0.36338 0.69229 0.47302 0.0
C5853 C 0.36841 0.65468 0.45526 0.0
C5854 C 0.33961 0.68912 0.47226 0.0
C5855 C 0.33023 0.66889 0.46326 0.0
H5856 H 0.59318 0.0843 0.74994 0.0
H5857 H 0.5722 0.12243 0.69092 0.0
H5858 H 0.60942 0.11526 0.67321 0.0
H5859 H 0.64994 0.10263 0.67703 0.0
H5860 H 0.67123 0.06835 0.73831 0.0
H5861 H 0.63224 0.07 0.75287 0.0
C5862 C 0.5966 0.09069 0.733 0.0
C5863 C 0.58004 0.10412 0.72191 0.0
C5864 C 0.61842 0.08766 0.7236 0.0
C5865 C 0.58457 0.11193 0.69981 0.0
C5866 C 0.60603 0.10814 0.68984 0.0
C5867 C 0.6459 0.09529 0.69343 0.0
C5868 C 0.66349 0.08553 0.70669 0.0
C5869 C 0.62341 0.09678 0.70196 0.0
C5870 C 0.65807 0.07619 0.72796 0.0
C5871 C 0.63575 0.07701 0.73622 0.0
H5872 H 0.19161 0.33691 0.98707 0.0
H5873 H 0.14949 0.29723 0.94174 0.0
H5874 H 0.16077 0.3214 0.90989 0.0
H5875 H 0.18198 0.35423 0.89523 0.0
H5876 H 0.22775 0.39096 0.93993 0.0
H5877 H 0.21502 0.36806 0.97181 0.0
C5878 C 0.18508 0.33353 0.97017 0.0
C5879 C 0.16976 0.31549 0.96665 0.0
C5880 C 0.19199 0.34718 0.9519 0.0
C5881 C 0.16151 0.31098 0.94472 0.0
C5882 C 0.16781 0.32487 0.92656 0.0
C5883 C 0.18946 0.35711 0.91183 0.0
C5884 C 0.20562 0.37463 0.91499 0.0
C5885 C 0.18298 0.34309 0.92999 0.0
C5886 C 0.21474 0.37819 0.93688 0.0
C5887 C 0.20775 0.36484 0.95518 0.0
H5888 H 0.43174 0.47014 0.65211 0.0
H5889 H 0.37038 0.43741 0.67615 0.0
H5890 H 0.39178 0.42038 0.70762 0.0
H5891 H 0.42779 0.41509 0.72831 0.0
H5892 H 0.48941 0.44688 0.70354 0.0
H5893 H 0.46796 0.46407 0.67227 0.0
C5894 C 0.4231 0.45904 0.66406 0.0
C5895 C 0.39951 0.455 0.66177 0.0
C5896 C 0.43548 0.44936 0.68206 0.0
C5897 C 0.38848 0.44093 0.67765 0.0
C5898 C 0.4007 0.43118 0.69561 0.0
C5899 C 0.43651 0.42593 0.71618 0.0
C5900 C 0.46013 0.42986 0.71834 0.0
C5901 C 0.42417 0.43543 0.69806 0.0
C5902 C 0.47123 0.44365 0.70228 0.0
C5903 C 0.45899 0.45343 0.68438 0.0
H5904 H 0.66953 0.1162 0.10287 0.0
H5905 H 0.70598 0.09796 0.04184 0.0
H5906 H 0.70521 0.13775 0.02947 0.0
H5907 H 0.69073 0.17675 0.03387 0.0
H5908 H 0.65147 0.19506 0.09289 0.0
H5909 H 0.65758 0.15669 0.10869 0.0
C5910 C 0.67739 0.121 0.08693 0.0
C5911 C 0.68736 0.10399 0.07304 0.0
C5912 C 0.67651 0.144 0.07966 0.0
C5913 C 0.69765 0.11054 0.05253 0.0
C5914 C 0.69735 0.13334 0.04551 0.0
C5915 C 0.68373 0.17241 0.05031 0.0
C5916 C 0.67034 0.18857 0.06199 0.0
C5917 C 0.68633 0.15006 0.05862 0.0
C5918 C 0.66196 0.18298 0.08361 0.0
C5919 C 0.66515 0.16089 0.09246 0.0
H5920 H 0.56623 0.89776 0.84247 0.0
H5921 H 0.57241 0.95018 0.79165 0.0
H5922 H 0.60547 0.96615 0.81157 0.0
H5923 H 0.62937 0.96761 0.84582 0.0
H5924 H 0.622 0.91581 0.89736 0.0
H5925 H 0.59323 0.89631 0.87422 0.0
C5926 C 0.57551 0.91202 0.83524 0.0
C5927 C 0.56773 0.92215 0.81509 0.0
C5928 C 0.59418 0.92116 0.84698 0.0
C5929 C 0.5787 0.94166 0.80671 0.0
C5930 C 0.59749 0.95082 0.81816 0.0
C5931 C 0.62196 0.95168 0.85167 0.0
C5932 C 0.62766 0.94316 0.87327 0.0
C5933 C 0.60501 0.94102 0.83861 0.0
C5934 C 0.61768 0.92273 0.88085 0.0
C5935 C 0.60121 0.91167 0.86769 0.0
H5936 H 0.91576 0.09921 0.38927 0.0
H5937 H 0.86777 0.10681 0.33422 0.0
H5938 H 0.89906 0.11373 0.3077 0.0
H5939 H 0.9396 0.11857 0.30041 0.0
H5940 H 0.9884 0.11041 0.35483 0.0
H5941 H 0.95731 0.10237 0.38132 0.0
C5942 C 0.91231 0.10246 0.37146 0.0
C5943 C 0.88965 0.10267 0.36358 0.0
C5944 C 0.93045 0.10611 0.35625 0.0
C5945 C 0.88518 0.10661 0.34052 0.0
C5946 C 0.90302 0.11052 0.3254 0.0
C5947 C 0.94359 0.11472 0.31798 0.0
C5948 C 0.96635 0.11527 0.32562 0.0
C5949 C 0.92568 0.11033 0.33308 0.0
C5950 C 0.97103 0.11035 0.34852 0.0
C5951 C 0.95324 0.10579 0.3637 0.0
H5952 H 0.38594 0.17478 0.17696 0.0
H5953 H 0.43571 0.19934 0.12844 0.0
H5954 H 0.46605 0.19221 0.15514 0.0
H5955 H 0.47871 0.18189 0.19346 0.0
H5956 H 0.42827 0.16419 0.24379 0.0
H5957 H 0.39799 0.16746 0.21571 0.0
C5958 C 0.4033 0.17894 0.17216 0.0
C5959 C 0.40808 0.18747 0.15042 0.0
C5960 C 0.4207 0.17682 0.18828 0.0
C5961 C 0.43106 0.19197 0.1446 0.0
C5962 C 0.44864 0.18843 0.16011 0.0
C5963 C 0.46103 0.17916 0.19825 0.0
C5964 C 0.45564 0.17315 0.22053 0.0
C5965 C 0.4436 0.18141 0.18215 0.0
C5966 C 0.43275 0.16939 0.22672 0.0
C5967 C 0.41545 0.17089 0.21063 0.0
H5968 H 0.59933 0.74961 0.94202 0.0
H5969 H 0.62634 0.68341 0.96047 0.0
H5970 H 0.62185 0.67041 0.92117 0.0
H5971 H 0.61338 0.67913 0.88083 0.0
H5972 H 0.58885 0.7464 0.86285 0.0
H5973 H 0.59002 0.75793 0.90263 0.0
C5974 C 0.60413 0.73225 0.9376 0.0
C5975 C 0.61336 0.7176 0.95425 0.0
C5976 C 0.60239 0.72524 0.91489 0.0
C5977 C 0.61905 0.69505 0.94811 0.0
C5978 C 0.61673 0.68768 0.92555 0.0
C5979 C 0.60808 0.69623 0.88568 0.0
C5980 C 0.60116 0.71194 0.86883 0.0
C5981 C 0.60893 0.70283 0.90869 0.0
C5982 C 0.59457 0.73411 0.87538 0.0
C5983 C 0.59505 0.74065 0.89816 0.0
H5984 H 0.14328 0.85342 0.67193 0.0
H5985 H 0.09863 0.80484 0.63827 0.0
H5986 H 0.06996 0.8112 0.66686 0.0
H5987 H 0.05648 0.83161 0.70063 0.0
H5988 H 0.10244 0.87571 0.73727 0.0
H5989 H 0.13244 0.86834 0.70922 0.0
C5990 C 0.12775 0.84349 0.67088 0.0
C5991 C 0.12349 0.82903 0.65204 0.0
C5992 C 0.11163 0.84589 0.6884 0.0
C5993 C 0.10257 0.817 0.65151 0.0
C5994 C 0.08609 0.82019 0.66828 0.0
C5995 C 0.07333 0.839 0.70281 0.0
C5996 C 0.07731 0.85424 0.72079 0.0
C5997 C 0.09036 0.83471 0.68666 0.0
C5998 C 0.09913 0.86371 0.72363 0.0
C5999 C 0.11613 0.85978 0.70739 0.0
H6000 H 0.93626 0.30672 0.44653 0.0
H6001 H 0.91591 0.36245 0.4901 0.0
H6002 H 0.93055 0.3901 0.46284 0.0
H6003 H 0.94909 0.39837 0.42682 0.0
H6004 H 0.97344 0.34255 0.38512 0.0
H6005 H 0.95644 0.31509 0.41095 0.0
C6006 C 0.93511 0.32493 0.44993 0.0
C6007 C 0.92528 0.33266 0.47015 0.0
C6008 C 0.94394 0.3407 0.43441 0.0
C6009 C 0.92386 0.35621 0.47468 0.0
C6010 C 0.93204 0.372 0.45907 0.0
C6011 C 0.95097 0.38023 0.42346 0.0
C6012 C 0.96235 0.37272 0.40386 0.0
C6013 C 0.9422 0.36443 0.43894 0.0
C6014 C 0.96421 0.34902 0.39968 0.0
C6015 C 0.95478 0.3332 0.41462 0.0
H6016 H 0.47722 0.83911 0.33567 0.0
H6017 H 0.42138 0.87209 0.30067 0.0
H6018 H 0.39529 0.8615 0.3311 0.0
H6019 H 0.38821 0.84235 0.36735 0.0
H6020 H 0.44359 0.80703 0.40102 0.0
H6021 H 0.47004 0.81971 0.3719 0.0
C6022 C 0.45932 0.84387 0.33476 0.0
C6023 C 0.45118 0.85615 0.316 0.0
C6024 C 0.44438 0.83764 0.35224 0.0
C6025 C 0.42794 0.86217 0.3148 0.0
C6026 C 0.41306 0.85637 0.3323 0.0
C6027 C 0.40606 0.83745 0.36835 0.0
C6028 C 0.41381 0.82382 0.38643 0.0
C6029 C 0.42108 0.84404 0.35106 0.0
C6030 C 0.43713 0.81792 0.3876 0.0
C6031 C 0.45227 0.82488 0.37075 0.0
H6032 H 0.94625 0.70273 0.14293 0.0
H6033 H 0.94793 0.63467 0.11471 0.0
H6034 H 0.94162 0.65013 0.07671 0.0
H6035 H 0.93326 0.68231 0.052 0.0
H6036 H 0.93059 0.75074 0.0789 0.0
H6037 H 0.9394 0.73598 0.11704 0.0
C6038 C 0.94548 0.69142 0.12835 0.0
C6039 C 0.94753 0.66759 0.13152 0.0
C6040 C 0.94132 0.70046 0.1065 0.0
C6041 C 0.94632 0.65302 0.11262 0.0
C6042 C 0.94269 0.66185 0.09094 0.0
C6043 C 0.93477 0.69411 0.06614 0.0
C6044 C 0.93074 0.7176 0.06277 0.0
C6045 C 0.93979 0.68545 0.08775 0.0
C6046 C 0.93289 0.73258 0.08125 0.0
C6047 C 0.93814 0.7241 0.10298 0.0
H6048 H 0.13669 0.19524 0.86488 0.0
H6049 H 0.07737 0.21373 0.90442 0.0
H6050 H 0.05244 0.19917 0.87462 0.0
H6051 H 0.04729 0.18235 0.83691 0.0
H6052 H 0.10651 0.16531 0.79658 0.0
H6053 H 0.13154 0.17869 0.82688 0.0
C6054 C 0.11832 0.19625 0.86695 0.0
C6055 C 0.10902 0.20557 0.88699 0.0
C6056 C 0.10399 0.18837 0.84947 0.0
C6057 C 0.08511 0.2063 0.88945 0.0
C6058 C 0.07078 0.19821 0.87227 0.0
C6059 C 0.06567 0.18168 0.83463 0.0
C6060 C 0.07493 0.17291 0.81439 0.0
C6061 C 0.08002 0.18941 0.85214 0.0
C6062 C 0.09883 0.17208 0.81189 0.0
C6063 C 0.11321 0.17966 0.82927 0.0
H6064 H 0.53969 0.32567 0.63401 0.0
H6065 H 0.56332 0.39449 0.62305 0.0
H6066 H 0.58465 0.38211 0.58943 0.0
H6067 H 0.59773 0.35146 0.56457 0.0
H6068 H 0.57725 0.28183 0.57769 0.0
H6069 H 0.55275 0.29476 0.60872 0.0
C6070 C 0.54965 0.33777 0.62419 0.0
C6071 C 0.55044 0.36073 0.63074 0.0
C6072 C 0.56203 0.33046 0.60528 0.0
C6073 C 0.56299 0.37663 0.61814 0.0
C6074 C 0.57495 0.36961 0.59897 0.0
C6075 C 0.5877 0.33918 0.57409 0.0
C6076 C 0.58944 0.31579 0.56925 0.0
C6077 C 0.57471 0.34655 0.59251 0.0
C6078 C 0.57638 0.29995 0.58152 0.0
C6079 C 0.56247 0.30729 0.59924 0.0
H6080 H 0.13743 0.42466 0.16881 0.0
H6081 H 0.12176 0.48388 0.20955 0.0
H6082 H 0.16238 0.49367 0.21149 0.0
H6083 H 0.20053 0.48957 0.19537 0.0
H6084 H 0.21585 0.43333 0.15074 0.0
H6085 H 0.17784 0.41709 0.1578 0.0
C6086 C 0.14309 0.43955 0.17826 0.0
C6087 C 0.12683 0.45393 0.18862 0.0
C6088 C 0.1664 0.44541 0.17869 0.0
C6089 C 0.13409 0.47295 0.20114 0.0
C6090 C 0.15726 0.47841 0.20234 0.0
C6091 C 0.19575 0.47333 0.1878 0.0
C6092 C 0.21053 0.46298 0.17204 0.0
C6093 C 0.17336 0.46537 0.19034 0.0
C6094 C 0.2046 0.44171 0.16274 0.0
C6095 C 0.18266 0.43278 0.16632 0.0
H6096 H 0.35705 0.468 0.90355 0.0
H6097 H 0.29505 0.4511 0.93943 0.0
H6098 H 0.31127 0.41461 0.9508 0.0
H6099 H 0.34056 0.38564 0.94646 0.0
H6100 H 0.4032 0.40141 0.91129 0.0
H6101 H 0.38911 0.44014 0.90364 0.0
C6102 C 0.34733 0.45652 0.91425 0.0
C6103 C 0.32469 0.46205 0.9202 0.0
C6104 C 0.35661 0.43516 0.92042 0.0
C6105 C 0.31236 0.44709 0.93425 0.0
C6106 C 0.32157 0.42614 0.94071 0.0
C6107 C 0.35146 0.39761 0.93756 0.0
C6108 C 0.3729 0.3905 0.92943 0.0
C6109 C 0.3433 0.41968 0.9332 0.0
C6110 C 0.38645 0.40625 0.91744 0.0
C6111 C 0.37844 0.42844 0.91312 0.0
H6112 H 0.36304 0.65458 0.68219 0.0
H6113 H 0.40008 0.59893 0.71387 0.0
H6114 H 0.37138 0.57213 0.7013 0.0
H6115 H 0.3345 0.56448 0.68387 0.0
H6116 H 0.29529 0.62 0.6552 0.0
H6117 H 0.32553 0.64696 0.66517 0.0
C6118 C 0.36483 0.63664 0.68648 0.0
C6119 C 0.38393 0.62901 0.69891 0.0
C6120 C 0.34751 0.6213 0.68038 0.0
C6121 C 0.38606 0.60549 0.7038 0.0
C6122 C 0.36936 0.59006 0.69701 0.0
C6123 C 0.33249 0.58253 0.68003 0.0
C6124 C 0.31269 0.59031 0.66914 0.0
C6125 C 0.34983 0.59785 0.68577 0.0
C6126 C 0.31023 0.6137 0.66411 0.0
C6127 C 0.32763 0.62906 0.66951 0.0
H6128 H 0.16494 0.66056 0.41068 0.0
H6129 H 0.22003 0.67829 0.45593 0.0
H6130 H 0.2312 0.63804 0.45869 0.0
H6131 H 0.22896 0.59921 0.44372 0.0
H6132 H 0.17681 0.58127 0.39552 0.0
H6133 H 0.15992 0.6196 0.39922 0.0
C6134 C 0.17928 0.65545 0.42119 0.0
C6135 C 0.19202 0.67228 0.43275 0.0
C6136 C 0.18587 0.6322 0.42235 0.0
C6137 C 0.21036 0.6656 0.44657 0.0
C6138 C 0.21662 0.64261 0.44826 0.0
C6139 C 0.21335 0.60342 0.43474 0.0
C6140 C 0.20439 0.58759 0.4191 0.0
C6141 C 0.20493 0.62589 0.43573 0.0
C6142 C 0.18407 0.59315 0.40765 0.0
C6143 C 0.17474 0.61527 0.4094 0.0
H6144 H 0.12304 0.61533 0.34671 0.0
H6145 H 0.10142 0.54576 0.33436 0.0
H6146 H 0.14099 0.53307 0.33477 0.0
H6147 H 0.18119 0.54076 0.34205 0.0
H6148 H 0.20385 0.60974 0.35477 0.0
H6149 H 0.16462 0.62374 0.34944 0.0
C6150 C 0.12694 0.59742 0.34385 0.0
C6151 C 0.10896 0.58145 0.3412 0.0
C6152 C 0.15 0.59014 0.34384 0.0
C6153 C 0.11463 0.55837 0.33731 0.0
C6154 C 0.13735 0.55109 0.33725 0.0
C6155 C 0.1777 0.55896 0.34327 0.0
C6156 C 0.19547 0.57412 0.34912 0.0
C6157 C 0.15509 0.5667 0.34102 0.0
C6158 C 0.19061 0.59767 0.35018 0.0
C6159 C 0.16806 0.60562 0.34749 0.0
H6160 H 0.22193 0.37221 0.07579 0.0
H6161 H 0.15895 0.37538 0.11336 0.0
H6162 H 0.16329 0.41693 0.11766 0.0
H6163 H 0.18823 0.4517 0.1154 0.0
H6164 H 0.2511 0.44731 0.07755 0.0
H6165 H 0.24343 0.40741 0.06856 0.0
C6166 C 0.2091 0.38199 0.08489 0.0
C6167 C 0.19043 0.37049 0.09471 0.0
C6168 C 0.21177 0.40585 0.08737 0.0
C6169 C 0.17363 0.38364 0.10581 0.0
C6170 C 0.17618 0.40746 0.10836 0.0
C6171 C 0.19984 0.4422 0.10457 0.0
C6172 C 0.22039 0.45257 0.0974 0.0
C6173 C 0.19558 0.41873 0.09984 0.0
C6174 C 0.23526 0.43983 0.08347 0.0
C6175 C 0.231 0.41687 0.07846 0.0
H6176 H 0.33311 0.44536 0.86225 0.0
H6177 H 0.33808 0.51583 0.8418 0.0
H6178 H 0.37904 0.51091 0.83441 0.0
H6179 H 0.41393 0.48705 0.83587 0.0
H6180 H 0.40875 0.41647 0.8568 0.0
H6181 H 0.36757 0.42077 0.86117 0.0
C6182 C 0.34317 0.4596 0.85604 0.0
C6183 C 0.33275 0.48121 0.85335 0.0
C6184 C 0.36678 0.45659 0.85191 0.0
C6185 C 0.34587 0.49932 0.84484 0.0
C6186 C 0.36928 0.49642 0.84045 0.0
C6187 C 0.40391 0.4726 0.84161 0.0
C6188 C 0.41487 0.4515 0.84624 0.0
C6189 C 0.38007 0.47528 0.8445 0.0
C6190 C 0.40114 0.4329 0.85291 0.0
C6191 C 0.37745 0.43537 0.85558 0.0
H6192 H 0.35265 0.6664 0.60449 0.0
H6193 H 0.28883 0.69144 0.57726 0.0
H6194 H 0.2736 0.65265 0.57674 0.0
H6195 H 0.27723 0.6122 0.58653 0.0
H6196 H 0.3393 0.58712 0.61707 0.0
H6197 H 0.35696 0.62483 0.61232 0.0
C6198 C 0.33548 0.66333 0.59827 0.0
C6199 C 0.32174 0.68198 0.59137 0.0
C6200 C 0.32666 0.64085 0.59825 0.0
C6201 C 0.29957 0.67759 0.58324 0.0
C6202 C 0.29091 0.65535 0.58272 0.0
C6203 C 0.2946 0.61497 0.59221 0.0
C6204 C 0.30668 0.59698 0.60264 0.0
C6205 C 0.3041 0.63695 0.59063 0.0
C6206 C 0.32958 0.60059 0.6089 0.0
C6207 C 0.33956 0.6223 0.60653 0.0
H6208 H 0.22005 0.17181 0.40979 0.0
H6209 H 0.24281 0.13743 0.47037 0.0
H6210 H 0.22128 0.16455 0.49388 0.0
H6211 H 0.19681 0.19837 0.49705 0.0
H6212 H 0.17366 0.23307 0.43665 0.0
H6213 H 0.19484 0.20577 0.41306 0.0
C6214 C 0.2199 0.17018 0.42813 0.0
C6215 C 0.23247 0.15258 0.43851 0.0
C6216 C 0.20778 0.18603 0.44145 0.0
C6217 C 0.23278 0.15069 0.46221 0.0
C6218 C 0.22068 0.16626 0.47557 0.0
C6219 C 0.19633 0.19991 0.47871 0.0
C6220 C 0.18373 0.21766 0.46857 0.0
C6221 C 0.20826 0.18406 0.46537 0.0
C6222 C 0.18354 0.21971 0.44483 0.0
C6223 C 0.19544 0.20399 0.43135 0.0
H6224 H 0.6905 0.33851 0.54394 0.0
H6225 H 0.63255 0.33011 0.58777 0.0
H6226 H 0.63646 0.36962 0.60107 0.0
H6227 H 0.65649 0.40701 0.59981 0.0
H6228 H 0.71755 0.41361 0.55972 0.0
H6229 H 0.71313 0.37416 0.54604 0.0
C6230 C 0.67863 0.34544 0.55618 0.0
C6231 C 0.6603 0.33195 0.56375 0.0
C6232 C 0.68194 0.36774 0.56473 0.0
C6233 C 0.64592 0.34064 0.58072 0.0
C6234 C 0.64839 0.36314 0.58855 0.0
C6235 C 0.66878 0.39971 0.58809 0.0
C6236 C 0.68719 0.41315 0.58055 0.0
C6237 C 0.66622 0.37696 0.5805 0.0
C6238 C 0.70323 0.40354 0.56563 0.0
C6239 C 0.70064 0.38104 0.55779 0.0
H6240 H 0.43202 0.94406 0.28056 0.0
H6241 H 0.45278 0.90691 0.34019 0.0
H6242 H 0.41541 0.91449 0.35765 0.0
H6243 H 0.3747 0.92683 0.35329 0.0
H6244 H 0.35397 0.96035 0.29136 0.0
H6245 H 0.39306 0.95845 0.27719 0.0
C6246 C 0.42845 0.93776 0.29747 0.0
C6247 C 0.44503 0.92459 0.30886 0.0
C6248 C 0.4066 0.94106 0.30673 0.0
C6249 C 0.44042 0.91724 0.33108 0.0
C6250 C 0.41887 0.92125 0.3409 0.0
C6251 C 0.37886 0.93395 0.33683 0.0
C6252 C 0.36129 0.94342 0.32324 0.0
C6253 C 0.40148 0.93235 0.32849 0.0
C6254 C 0.367 0.9526 0.30196 0.0
C6255 C 0.38939 0.95164 0.29389 0.0
H6256 H 0.83089 0.65863 0.12159 0.0
H6257 H 0.78262 0.64861 0.06727 0.0
H6258 H 0.80466 0.67367 0.0426 0.0
H6259 H 0.8368 0.69944 0.03718 0.0
H6260 H 0.88434 0.71145 0.09182 0.0
H6261 H 0.86353 0.68452 0.11596 0.0
C6262 C 0.82545 0.66188 0.10427 0.0
C6263 C 0.80531 0.65201 0.09606 0.0
C6264 C 0.83798 0.67662 0.09045 0.0
C6265 C 0.79802 0.65628 0.07381 0.0
C6266 C 0.81062 0.67052 0.05975 0.0
C6267 C 0.84269 0.6959 0.05427 0.0
C6268 C 0.86193 0.70707 0.06285 0.0
C6269 C 0.83048 0.68092 0.06799 0.0
C6270 C 0.86933 0.70296 0.08512 0.0
C6271 C 0.85754 0.68759 0.09881 0.0
H6272 H 0.56008 0.62048 0.3448 0.0
H6273 H 0.58227 0.58978 0.28226 0.0
H6274 H 0.61918 0.57989 0.29998 0.0
H6275 H 0.64557 0.58144 0.33341 0.0
H6276 H 0.62154 0.61232 0.39559 0.0
H6277 H 0.58509 0.62112 0.37774 0.0
C6278 C 0.573 0.61189 0.33488 0.0
C6279 C 0.56879 0.60678 0.31193 0.0
C6280 C 0.59395 0.6064 0.34519 0.0
C6281 C 0.58543 0.59464 0.29973 0.0
C6282 C 0.60647 0.58891 0.30993 0.0
C6283 C 0.63227 0.58985 0.34311 0.0
C6284 C 0.63656 0.59638 0.36586 0.0
C6285 C 0.61103 0.59491 0.33266 0.0
C6286 C 0.61904 0.60743 0.37803 0.0
C6287 C 0.59806 0.61238 0.36786 0.0
H6288 H 0.34609 0.86203 1.00442 0.0
H6289 H 0.37735 0.83609 0.94348 0.0
H6290 H 0.37187 0.87339 0.92508 0.0
H6291 H 0.36253 0.91502 0.92828 0.0
H6292 H 0.3345 0.94054 0.99111 0.0
H6293 H 0.33489 0.90212 1.00696 0.0
C6294 C 0.35167 0.86447 0.9871 0.0
C6295 C 0.36253 0.84638 0.97558 0.0
C6296 C 0.34947 0.88617 0.97712 0.0
C6297 C 0.36889 0.84965 0.9528 0.0
C6298 C 0.36602 0.87111 0.94237 0.0
C6299 C 0.3564 0.9121 0.94538 0.0
C6300 C 0.34892 0.93084 0.95865 0.0
C6301 C 0.35707 0.88977 0.95466 0.0
C6302 C 0.34085 0.92665 0.98071 0.0
C6303 C 0.34092 0.9046 0.98976 0.0
H6304 H 0.40163 0.05983 0.178 0.0
H6305 H 0.42027 0.10911 0.12673 0.0
H6306 H 0.4459 0.12798 0.15389 0.0
H6307 H 0.46375 0.12923 0.19192 0.0
H6308 H 0.44243 0.0812 0.24313 0.0
H6309 H 0.41657 0.06296 0.2161 0.0
C6310 C 0.41075 0.07508 0.17279 0.0
C6311 C 0.40887 0.08321 0.15044 0.0
C6312 C 0.42506 0.08579 0.18837 0.0
C6313 C 0.42152 0.10249 0.14385 0.0
C6314 C 0.43613 0.11324 0.15933 0.0
C6315 C 0.45337 0.11478 0.19701 0.0
C6316 C 0.45482 0.10636 0.21925 0.0
C6317 C 0.43823 0.10479 0.18153 0.0
C6318 C 0.44131 0.08788 0.22604 0.0
C6319 C 0.42664 0.07748 0.21062 0.0
H6320 H 0.16289 0.95093 0.72926 0.0
H6321 H 0.15865 0.91748 0.66418 0.0
H6322 H 0.11808 0.90935 0.67063 0.0
H6323 H 0.08423 0.90947 0.69622 0.0
H6324 H 0.08988 0.94123 0.76202 0.0
H6325 H 0.12909 0.9527 0.75372 0.0
C6326 C 0.15309 0.9419 0.71645 0.0
C6327 C 0.16392 0.93471 0.69633 0.0
C6328 C 0.12983 0.93718 0.72034 0.0
C6329 C 0.15078 0.92334 0.67977 0.0
C6330 C 0.12756 0.91864 0.68348 0.0
C6331 C 0.09392 0.91943 0.70843 0.0
C6332 C 0.08412 0.92472 0.72964 0.0
C6333 C 0.11691 0.92527 0.70383 0.0
C6334 C 0.09703 0.93708 0.74557 0.0
C6335 C 0.11951 0.94351 0.74088 0.0
loop_
_geom_bond_atom_site_label_1
_geom_bond_atom_site_label_2
_geom_bond_distance
_geom_bond_site_symmetry_2
_ccdc_geom_bond_type
C0 C2 1.422 . S
C0 C4 1.415 . S
C0 N6 1.369 . S
C1 C2 1.421 . S
C1 C3 1.417 . S
C1 C13 1.422 . S
C2 C0 1.422 . S
C2 C1 1.421 . S
C2 N12 1.359 . S
C3 C1 1.417 . S
C3 C5 1.329 . S
C3 H22 0.930 . S
C4 C0 1.415 . S
C4 C5 1.437 . S
C4 C8 1.413 . S
C5 C3 1.329 . S
C5 C4 1.437 . S
C5 H27 0.929 . S
N6 C0 1.369 . S
N6 C7 1.313 1_655 S
N6 Gd11 2.622 . S
C7 N6 1.313 1_455 S
C7 C9 1.370 1_455 S
C7 H19 0.965 . S
C8 C4 1.413 . S
C8 C9 1.348 . S
C8 H24 0.931 . S
C9 C7 1.370 1_655 S
C9 C8 1.348 . S
C9 H25 0.930 1_655 S
Gd10 N30 2.622 . S
Gd10 N37 2.570 . S
Gd10 O44 2.353 . S
Gd10 O45 2.468 . S
Gd10 O46 2.427 . S
Gd10 O48 2.388 . S
Gd10 O49 2.386 . S
Gd10 O53 2.307 . S
Gd10 C63 2.805 . S
Gd11 N6 2.622 . S
Gd11 N12 2.570 . S
Gd11 O43 2.386 1_655 S
Gd11 O47 2.307 . S
Gd11 O50 2.353 1_655 S
Gd11 O51 2.468 . S
Gd11 O52 2.427 . S
Gd11 O54 2.388 1_655 S
Gd11 C75 2.805 . S
N12 C2 1.359 . S
N12 Gd11 2.570 . S
N12 C14 1.343 . S
C13 C1 1.422 . S
C13 C15 1.321 . S
C13 H21 0.931 . S
C14 N12 1.343 . S
C14 C15 1.390 . S
C14 H16 0.931 . S
C15 C13 1.321 . S
C15 C14 1.390 . S
C15 H17 0.930 . S
H16 C14 0.931 . S
H17 C15 0.930 . S
H18 C41 0.931 . S
H19 C7 0.965 . S
H20 C42 0.930 . S
H21 C13 0.931 . S
H22 C3 0.930 . S
H23 C32 0.929 . S
H24 C8 0.931 . S
H25 C9 0.930 1_455 S
H26 C64 0.930 . S
H27 C5 0.929 . S
H28 C33 0.931 . S
H29 C34 0.930 . S
N30 Gd10 2.622 . S
N30 C31 1.369 . S
N30 C32 1.338 . S
C31 N30 1.369 . S
C31 C35 1.415 . S
C31 C38 1.422 . S
C32 H23 0.929 . S
C32 N30 1.338 . S
C32 C34 1.378 . S
C33 H28 0.931 . S
C33 C34 1.348 . S
C33 C35 1.413 . S
C34 H29 0.930 . S
C34 C32 1.378 . S
C34 C33 1.348 . S
C35 C31 1.415 . S
C35 C33 1.413 . S
C35 C65 1.437 . S
H36 C65 0.929 . S
N37 Gd10 2.570 . S
N37 C38 1.359 . S
N37 C41 1.343 . S
C38 C31 1.422 . S
C38 N37 1.359 . S
C38 C40 1.421 . S
C39 C40 1.422 . S
C39 C42 1.321 . S
C39 H66 0.931 . S
C40 C38 1.421 . S
C40 C39 1.422 . S
C40 C64 1.417 . S
C41 H18 0.931 . S
C41 N37 1.343 . S
C41 C42 1.390 . S
C42 H20 0.930 . S
C42 C39 1.321 . S
C42 C41 1.390 . S
O43 Gd11 2.386 1_455 S
O43 C55 1.265 . S
O44 Gd10 2.353 . S
O44 C55 1.242 . S
O45 Gd10 2.468 . S
O45 C63 1.263 . S
O46 Gd10 2.427 . S
O46 C63 1.252 . S
O47 Gd11 2.307 . S
O47 C56 1.261 . S
O48 Gd10 2.388 . S
O48 C56 1.252 1_455 S
O49 Gd10 2.386 . S
O49 C67 1.265 . S
O50 Gd11 2.353 1_455 S
O50 C67 1.242 . S
O51 Gd11 2.468 . S
O51 C75 1.263 . S
O52 Gd11 2.427 . S
O52 C75 1.252 . S
O53 Gd10 2.307 . S
O53 C68 1.261 . S
O54 Gd11 2.388 1_455 S
O54 C68 1.252 . S
C55 O43 1.265 . S
C55 O44 1.242 . S
C56 O47 1.261 . S
C56 O48 1.252 1_655 S
C57 C60 1.394 . S
C57 C62 1.370 . S
C57 C63 1.500 . S
C58 C61 1.383 . S
C58 C62 1.395 . S
C59 C60 1.396 . S
C59 C61 1.365 . S
C59 H76 0.929 . S
C60 C57 1.394 . S
C60 C59 1.396 . S
C60 H77 0.930 . S
C61 C58 1.383 . S
C61 C59 1.365 . S
C61 H78 0.931 . S
C62 C57 1.370 . S
C62 C58 1.395 . S
C62 H79 0.930 . S
C63 Gd10 2.805 . S
C63 O45 1.263 . S
C63 O46 1.252 . S
C63 C57 1.500 . S
C64 H26 0.930 . S
C64 C40 1.417 . S
C64 C65 1.329 . S
C65 C35 1.437 . S
C65 H36 0.929 . S
C65 C64 1.329 . S
H66 C39 0.931 . S
C67 O49 1.265 . S
C67 O50 1.242 . S
C68 O53 1.261 . S
C68 O54 1.252 . S
C69 C72 1.394 . S
C69 C74 1.370 . S
C69 C75 1.500 . S
C70 C73 1.383 . S
C70 C74 1.395 . S
C71 C72 1.396 . S
C71 C73 1.365 . S
C71 H80 0.929 . S
C72 C69 1.394 . S
C72 C71 1.396 . S
C72 H81 0.930 . S
C73 C70 1.383 . S
C73 C71 1.365 . S
C73 H82 0.931 . S
C74 C69 1.370 . S
C74 C70 1.395 . S
C74 H83 0.930 . S
C75 Gd11 2.805 . S
C75 O51 1.263 . S
C75 O52 1.252 . S
C75 C69 1.500 . S
H76 C59 0.929 . S
H77 C60 0.930 . S
H78 C61 0.931 . S
H79 C62 0.930 . S
H80 C71 0.929 . S
H81 C72 0.930 . S
H82 C73 0.931 . S
H83 C74 0.930 . S
C84 C86 1.422 . S
C84 C88 1.415 . S
C84 N90 1.369 . S
C85 C86 1.421 . S
C85 C87 1.417 . S
C85 C97 1.422 . S
C86 C84 1.422 . S
C86 C85 1.421 . S
C86 N96 1.359 . S
C87 C85 1.417 . S
C87 C89 1.329 . S
C87 H106 0.930 . S
C88 C84 1.415 . S
C88 C89 1.437 . S
C88 C92 1.413 . S
C89 C87 1.329 . S
C89 C88 1.437 . S
C89 H111 0.929 . S
N90 C84 1.369 . S
N90 C91 1.338 . S
N90 Gd95 2.622 . S
C91 N90 1.338 . S
C91 C93 1.378 . S
C91 H103 0.929 . S
C92 C88 1.413 . S
C92 C93 1.348 . S
C92 H108 0.931 . S
C93 C91 1.378 . S
C93 C92 1.348 . S
C93 H109 0.930 . S
Gd94 N114 2.622 . S
Gd94 N121 2.570 . S
Gd94 O128 2.353 . S
Gd94 O129 2.468 . S
Gd94 O130 2.427 . S
Gd94 O132 2.388 . S
Gd94 O133 2.386 . S
Gd94 O137 2.307 . S
Gd94 C147 2.805 . S
Gd95 N90 2.622 . S
Gd95 N96 2.570 . S
Gd95 O127 2.386 . S
Gd95 O131 2.307 . S
Gd95 O134 2.353 . S
Gd95 O135 2.468 . S
Gd95 O136 2.427 . S
Gd95 O138 2.388 . S
Gd95 C159 2.805 . S
N96 C86 1.359 . S
N96 Gd95 2.570 . S
N96 C98 1.343 . S
C97 C85 1.422 . S
C97 C99 1.321 . S
C97 H105 0.931 . S
C98 N96 1.343 . S
C98 C99 1.390 . S
C98 H100 0.931 . S
C99 C97 1.321 . S
C99 C98 1.390 . S
C99 H101 0.930 . S
H100 C98 0.931 . S
H101 C99 0.930 . S
H102 C125 0.931 . S
H103 C91 0.929 . S
H104 C126 0.930 . S
H105 C97 0.931 . S
H106 C87 0.930 . S
H107 C116 0.929 . S
H108 C92 0.931 . S
H109 C93 0.930 . S
H110 C148 0.930 . S
H111 C89 0.929 . S
H112 C117 0.931 . S
H113 C118 0.930 . S
N114 Gd94 2.622 . S
N114 C115 1.369 . S
N114 C116 1.338 . S
C115 N114 1.369 . S
C115 C119 1.415 . S
C115 C122 1.422 . S
C116 H107 0.929 . S
C116 N114 1.338 . S
C116 C118 1.378 . S
C117 H112 0.931 . S
C117 C118 1.348 . S
C117 C119 1.413 . S
C118 H113 0.930 . S
C118 C116 1.378 . S
C118 C117 1.348 . S
C119 C115 1.415 . S
C119 C117 1.413 . S
C119 C149 1.437 . S
H120 C149 0.929 . S
N121 Gd94 2.570 . S
N121 C122 1.359 . S
N121 C125 1.343 . S
C122 C115 1.422 . S
C122 N121 1.359 . S
C122 C124 1.421 . S
C123 C124 1.422 . S
C123 C126 1.321 . S
C123 H150 0.931 . S
C124 C122 1.421 . S
C124 C123 1.422 . S
C124 C148 1.417 . S
C125 H102 0.931 . S
C125 N121 1.343 . S
C125 C126 1.390 . S
C126 H104 0.930 . S
C126 C123 1.321 . S
C126 C125 1.390 . S
O127 Gd95 2.386 . S
O127 C139 1.265 . S
O128 Gd94 2.353 . S
O128 C139 1.242 . S
O129 Gd94 2.468 . S
O129 C147 1.263 . S
O130 Gd94 2.427 . S
O130 C147 1.252 . S
O131 Gd95 2.307 . S
O131 C140 1.261 . S
O132 Gd94 2.388 . S
O132 C140 1.252 . S
O133 Gd94 2.386 . S
O133 C151 1.265 . S
O134 Gd95 2.353 . S
O134 C151 1.242 . S
O135 Gd95 2.468 . S
O135 C159 1.263 . S
O136 Gd95 2.427 . S
O136 C159 1.252 . S
O137 Gd94 2.307 . S
O137 C152 1.261 . S
O138 Gd95 2.388 . S
O138 C152 1.252 . S
C139 O127 1.265 . S
C139 O128 1.242 . S
C140 O131 1.261 . S
C140 O132 1.252 . S
C141 C144 1.394 . S
C141 C146 1.370 . S
C141 C147 1.500 . S
C142 C145 1.383 . S
C142 C146 1.395 . S
C143 C144 1.396 . S
C143 C145 1.365 . S
C143 H160 0.929 . S
C144 C141 1.394 . S
C144 C143 1.396 . S
C144 H161 0.930 . S
C145 C142 1.383 . S
C145 C143 1.365 . S
C145 H162 0.931 . S
C146 C141 1.370 . S
C146 C142 1.395 . S
C146 H163 0.930 . S
C147 Gd94 2.805 . S
C147 O129 1.263 . S
C147 O130 1.252 . S
C147 C141 1.500 . S
C148 H110 0.930 . S
C148 C124 1.417 . S
C148 C149 1.329 . S
C149 C119 1.437 . S
C149 H120 0.929 . S
C149 C148 1.329 . S
H150 C123 0.931 . S
C151 O133 1.265 . S
C151 O134 1.242 . S
C152 O137 1.261 . S
C152 O138 1.252 . S
C153 C156 1.394 . S
C153 C158 1.370 . S
C153 C159 1.500 . S
C154 C157 1.383 . S
C154 C158 1.395 . S
C155 C156 1.396 . S
C155 C157 1.365 . S
C155 H164 0.929 . S
C156 C153 1.394 . S
C156 C155 1.396 . S
C156 H165 0.930 . S
C157 C154 1.383 . S
C157 C155 1.365 . S
C157 H166 0.931 . S
C158 C153 1.370 . S
C158 C154 1.395 . S
C158 H167 0.930 . S
C159 Gd95 2.805 . S
C159 O135 1.263 . S
C159 O136 1.252 . S
C159 C153 1.500 . S
H160 C143 0.929 . S
H161 C144 0.930 . S
H162 C145 0.931 . S
H163 C146 0.930 . S
H164 C155 0.929 . S
H165 C156 0.930 . S
H166 C157 0.931 . S
H167 C158 0.930 . S
C168 C170 1.422 . S
C168 C172 1.415 . S
C168 N174 1.369 . S
C169 C170 1.421 . S
C169 C171 1.417 . S
C169 C181 1.422 . S
C170 C168 1.422 . S
C170 C169 1.421 . S
C170 N180 1.359 . S
C171 C169 1.417 . S
C171 C173 1.329 . S
C171 H190 0.930 . S
C172 C168 1.415 . S
C172 C173 1.437 . S
C172 C176 1.413 . S
C173 C171 1.329 . S
C173 C172 1.437 . S
C173 H195 0.929 . S
N174 C168 1.369 . S
N174 C175 1.338 . S
N174 Gd179 2.622 . S
C175 N174 1.338 . S
C175 C177 1.378 . S
C175 H187 0.929 . S
C176 C172 1.413 . S
C176 C177 1.348 . S
C176 H192 0.931 . S
C177 C175 1.378 . S
C177 C176 1.348 . S
C177 H193 0.930 . S
Gd178 N198 2.622 . S
Gd178 N205 2.570 . S
Gd178 O212 2.353 . S
Gd178 O213 2.468 . S
Gd178 O214 2.427 . S
Gd178 O216 2.388 . S
Gd178 O217 2.386 . S
Gd178 O221 2.307 . S
Gd178 C231 2.805 . S
Gd179 N174 2.622 . S
Gd179 N180 2.570 . S
Gd179 O211 2.386 . S
Gd179 O215 2.307 . S
Gd179 O218 2.353 . S
Gd179 O219 2.468 . S
Gd179 O220 2.427 . S
Gd179 O222 2.388 . S
Gd179 C243 2.805 . S
N180 C170 1.359 . S
N180 Gd179 2.570 . S
N180 C182 1.343 . S
C181 C169 1.422 . S
C181 C183 1.321 . S
C181 H189 0.931 . S
C182 N180 1.343 . S
C182 C183 1.390 . S
C182 H184 0.931 . S
C183 C181 1.321 . S
C183 C182 1.390 . S
C183 H185 0.930 . S
H184 C182 0.931 . S
H185 C183 0.930 . S
H186 C209 0.931 . S
H187 C175 0.929 . S
H188 C210 0.930 . S
H189 C181 0.931 . S
H190 C171 0.930 . S
H191 C200 0.929 . S
H192 C176 0.931 . S
H193 C177 0.930 . S
H194 C232 0.930 . S
H195 C173 0.929 . S
H196 C201 0.931 . S
H197 C202 0.930 . S
N198 Gd178 2.622 . S
N198 C199 1.369 . S
N198 C200 1.338 . S
C199 N198 1.369 . S
C199 C203 1.415 . S
C199 C206 1.422 . S
C200 H191 0.929 . S
C200 N198 1.338 . S
C200 C202 1.378 . S
C201 H196 0.931 . S
C201 C202 1.348 . S
C201 C203 1.413 . S
C202 H197 0.930 . S
C202 C200 1.378 . S
C202 C201 1.348 . S
C203 C199 1.415 . S
C203 C201 1.413 . S
C203 C233 1.437 . S
H204 C233 0.929 . S
N205 Gd178 2.570 . S
N205 C206 1.359 . S
N205 C209 1.343 . S
C206 C199 1.422 . S
C206 N205 1.359 . S
C206 C208 1.421 . S
C207 C208 1.422 . S
C207 C210 1.321 . S
C207 H234 0.931 . S
C208 C206 1.421 . S
C208 C207 1.422 . S
C208 C232 1.417 . S
C209 H186 0.931 . S
C209 N205 1.343 . S
C209 C210 1.390 . S
C210 H188 0.930 . S
C210 C207 1.321 . S
C210 C209 1.390 . S
O211 Gd179 2.386 . S
O211 C223 1.265 . S
O212 Gd178 2.353 . S
O212 C223 1.242 . S
O213 Gd178 2.468 . S
O213 C231 1.263 . S
O214 Gd178 2.427 . S
O214 C231 1.252 . S
O215 Gd179 2.307 . S
O215 C224 1.261 . S
O216 Gd178 2.388 . S
O216 C224 1.252 . S
O217 Gd178 2.386 . S
O217 C235 1.265 . S
O218 Gd179 2.353 . S
O218 C235 1.242 . S
O219 Gd179 2.468 . S
O219 C243 1.263 . S
O220 Gd179 2.427 . S
O220 C243 1.252 . S
O221 Gd178 2.307 . S
O221 C236 1.261 . S
O222 Gd179 2.388 . S
O222 C236 1.252 . S
C223 O211 1.265 . S
C223 O212 1.242 . S
C224 O215 1.261 . S
C224 O216 1.252 . S
C225 C228 1.394 . S
C225 C230 1.370 . S
C225 C231 1.500 . S
C226 C229 1.383 . S
C226 C230 1.395 . S
C227 C228 1.396 . S
C227 C229 1.365 . S
C227 H244 0.929 . S
C228 C225 1.394 . S
C228 C227 1.396 . S
C228 H245 0.930 . S
C229 C226 1.383 . S
C229 C227 1.365 . S
C229 H246 0.931 . S
C230 C225 1.370 . S
C230 C226 1.395 . S
C230 H247 0.930 . S
C231 Gd178 2.805 . S
C231 O213 1.263 . S
C231 O214 1.252 . S
C231 C225 1.500 . S
C232 H194 0.930 . S
C232 C208 1.417 . S
C232 C233 1.329 . S
C233 C203 1.437 . S
C233 H204 0.929 . S
C233 C232 1.329 . S
H234 C207 0.931 . S
C235 O217 1.265 . S
C235 O218 1.242 . S
C236 O221 1.261 . S
C236 O222 1.252 . S
C237 C240 1.394 . S
C237 C242 1.370 . S
C237 C243 1.500 . S
C238 C241 1.383 . S
C238 C242 1.395 . S
C239 C240 1.396 . S
C239 C241 1.365 . S
C239 H248 0.929 . S
C240 C237 1.394 . S
C240 C239 1.396 . S
C240 H249 0.930 . S
C241 C238 1.383 . S
C241 C239 1.365 . S
C241 H250 0.931 . S
C242 C237 1.370 . S
C242 C238 1.395 . S
C242 H251 0.930 . S
C243 Gd179 2.805 . S
C243 O219 1.263 . S
C243 O220 1.252 . S
C243 C237 1.500 . S
H244 C227 0.929 . S
H245 C228 0.930 . S
H246 C229 0.931 . S
H247 C230 0.930 . S
H248 C239 0.929 . S
H249 C240 0.930 . S
H250 C241 0.931 . S
H251 C242 0.930 . S
C252 C254 1.422 . S
C252 C256 1.415 . S
C252 N258 1.369 . S
C253 C254 1.421 . S
C253 C255 1.417 . S
C253 C265 1.422 . S
C254 C252 1.422 . S
C254 C253 1.421 . S
C254 N264 1.359 . S
C255 C253 1.417 . S
C255 C257 1.329 . S
C255 H274 0.930 . S
C256 C252 1.415 . S
C256 C257 1.437 . S
C256 C260 1.413 . S
C257 C255 1.329 . S
C257 C256 1.437 . S
C257 H279 0.929 . S
N258 C252 1.369 . S
N258 C259 1.338 . S
N258 Gd263 2.622 . S
C259 N258 1.338 . S
C259 C261 1.378 . S
C259 H271 0.929 . S
C260 C256 1.413 . S
C260 C261 1.348 . S
C260 H276 0.931 . S
C261 C259 1.378 . S
C261 C260 1.348 . S
C261 H277 0.930 . S
Gd262 N282 2.622 . S
Gd262 N289 2.570 1_556 S
Gd262 O296 2.353 . S
Gd262 O297 2.468 . S
Gd262 O298 2.427 . S
Gd262 O300 2.388 . S
Gd262 O301 2.386 1_556 S
Gd262 O305 2.307 1_556 S
Gd262 C315 2.805 . S
Gd263 N258 2.622 . S
Gd263 N264 2.570 . S
Gd263 O295 2.386 . S
Gd263 O299 2.307 . S
Gd263 O302 2.353 . S
Gd263 O303 2.468 . S
Gd263 O304 2.427 . S
Gd263 O306 2.388 . S
Gd263 C327 2.805 . S
N264 C254 1.359 . S
N264 Gd263 2.570 . S
N264 C266 1.343 . S
C265 C253 1.422 . S
C265 C267 1.321 . S
C265 H273 0.931 . S
C266 N264 1.343 . S
C266 C267 1.390 . S
C266 H268 0.931 . S
C267 C265 1.321 . S
C267 C266 1.390 . S
C267 H269 0.930 . S
H268 C266 0.931 . S
H269 C267 0.930 . S
H270 C293 0.931 . S
H271 C259 0.929 . S
H272 C294 0.930 . S
H273 C265 0.931 . S
H274 C255 0.930 . S
H275 C284 0.929 . S
H276 C260 0.931 . S
H277 C261 0.930 . S
H278 C316 0.930 . S
H279 C257 0.929 . S
H280 C285 0.931 . S
H281 C286 0.930 . S
N282 Gd262 2.622 . S
N282 C283 1.369 . S
N282 C284 1.338 . S
C283 N282 1.369 . S
C283 C287 1.415 . S
C283 C290 1.422 1_556 S
C284 H275 0.929 . S
C284 N282 1.338 . S
C284 C286 1.378 . S
C285 H280 0.931 . S
C285 C286 1.348 . S
C285 C287 1.413 . S
C286 H281 0.930 . S
C286 C284 1.378 . S
C286 C285 1.348 . S
C287 C283 1.415 . S
C287 C285 1.413 . S
C287 C317 1.437 . S
H288 C317 0.929 . S
N289 Gd262 2.570 1_554 S
N289 C290 1.359 . S
N289 C293 1.343 . S
C290 C283 1.422 1_554 S
C290 N289 1.359 . S
C290 C292 1.421 . S
C291 C292 1.422 . S
C291 C294 1.321 . S
C291 H318 0.931 . S
C292 C290 1.421 . S
C292 C291 1.422 . S
C292 C316 1.417 . S
C293 H270 0.931 . S
C293 N289 1.343 . S
C293 C294 1.390 . S
C294 H272 0.930 . S
C294 C291 1.321 . S
C294 C293 1.390 . S
O295 Gd263 2.386 . S
O295 C307 1.265 1_554 S
O296 Gd262 2.353 . S
O296 C307 1.242 . S
O297 Gd262 2.468 . S
O297 C315 1.263 . S
O298 Gd262 2.427 . S
O298 C315 1.252 . S
O299 Gd263 2.307 . S
O299 C308 1.261 . S
O300 Gd262 2.388 . S
O300 C308 1.252 1_556 S
O301 Gd262 2.386 1_554 S
O301 C319 1.265 . S
O302 Gd263 2.353 . S
O302 C319 1.242 . S
O303 Gd263 2.468 . S
O303 C327 1.263 . S
O304 Gd263 2.427 . S
O304 C327 1.252 . S
O305 Gd262 2.307 1_554 S
O305 C320 1.261 . S
O306 Gd263 2.388 . S
O306 C320 1.252 . S
C307 O295 1.265 1_556 S
C307 O296 1.242 . S
C308 O299 1.261 . S
C308 O300 1.252 1_554 S
C309 C312 1.394 . S
C309 C314 1.370 . S
C309 C315 1.500 . S
C310 C313 1.383 . S
C310 C314 1.395 . S
C311 C312 1.396 . S
C311 C313 1.365 . S
C311 H328 0.929 . S
C312 C309 1.394 . S
C312 C311 1.396 . S
C312 H329 0.930 . S
C313 C310 1.383 . S
C313 C311 1.365 . S
C313 H330 0.931 . S
C314 C309 1.370 . S
C314 C310 1.395 . S
C314 H331 0.930 . S
C315 Gd262 2.805 . S
C315 O297 1.263 . S
C315 O298 1.252 . S
C315 C309 1.500 . S
C316 H278 0.930 . S
C316 C292 1.417 . S
C316 C317 1.329 1_554 S
C317 C287 1.437 . S
C317 H288 0.929 . S
C317 C316 1.329 1_556 S
H318 C291 0.931 . S
C319 O301 1.265 . S
C319 O302 1.242 . S
C320 O305 1.261 . S
C320 O306 1.252 . S
C321 C324 1.394 . S
C321 C326 1.370 . S
C321 C327 1.500 . S
C322 C325 1.383 . S
C322 C326 1.395 . S
C323 C324 1.396 . S
C323 C325 1.365 . S
C323 H332 0.929 . S
C324 C321 1.394 . S
C324 C323 1.396 . S
C324 H333 0.930 . S
C325 C322 1.383 . S
C325 C323 1.365 . S
C325 H334 0.931 . S
C326 C321 1.370 . S
C326 C322 1.395 . S
C326 H335 0.930 . S
C327 Gd263 2.805 . S
C327 O303 1.263 . S
C327 O304 1.252 . S
C327 C321 1.500 . S
H328 C311 0.929 . S
H329 C312 0.930 . S
H330 C313 0.931 . S
H331 C314 0.930 . S
H332 C323 0.929 . S
H333 C324 0.930 . S
H334 C325 0.931 . S
H335 C326 0.930 . S
C336 C338 1.422 . S
C336 C340 1.415 . S
C336 N342 1.369 . S
C337 C338 1.421 . S
C337 C339 1.417 . S
C337 C349 1.422 . S
C338 C336 1.422 . S
C338 C337 1.421 . S
C338 N348 1.359 . S
C339 C337 1.417 . S
C339 C341 1.329 . S
C339 H358 0.930 . S
C340 C336 1.415 . S
C340 C341 1.437 . S
C340 C344 1.413 . S
C341 C339 1.329 . S
C341 C340 1.437 . S
C341 H363 0.929 . S
N342 C336 1.369 . S
N342 C343 1.335 . S
N342 Gd347 2.622 . S
C343 N342 1.335 . S
C343 C345 1.377 . S
C343 H355 0.933 1_655 S
C344 C340 1.413 . S
C344 C345 1.348 . S
C344 H360 0.931 . S
C345 C343 1.377 . S
C345 C344 1.348 . S
C345 H361 0.930 1_655 S
Gd346 N366 2.622 . S
Gd346 N373 2.570 . S
Gd346 O380 2.353 . S
Gd346 O381 2.468 . S
Gd346 O382 2.427 . S
Gd346 O384 2.388 . S
Gd346 O385 2.386 . S
Gd346 O389 2.307 . S
Gd346 C399 2.805 . S
Gd347 N342 2.622 . S
Gd347 N348 2.570 . S
Gd347 O379 2.386 1_655 S
Gd347 O383 2.307 . S
Gd347 O386 2.353 1_655 S
Gd347 O387 2.468 . S
Gd347 O388 2.427 . S
Gd347 O390 2.388 1_655 S
Gd347 C411 2.805 . S
N348 C338 1.359 . S
N348 Gd347 2.570 . S
N348 C350 1.343 . S
C349 C337 1.422 . S
C349 C351 1.321 . S
C349 H357 0.931 . S
C350 N348 1.343 . S
C350 C351 1.390 . S
C350 H352 0.931 . S
C351 C349 1.321 . S
C351 C350 1.390 . S
C351 H353 0.930 . S
H352 C350 0.931 . S
H353 C351 0.930 . S
H354 C377 0.931 . S
H355 C343 0.933 1_455 S
H356 C378 0.930 . S
H357 C349 0.931 . S
H358 C339 0.930 . S
H359 C368 0.929 . S
H360 C344 0.931 . S
H361 C345 0.930 1_455 S
H362 C400 0.930 . S
H363 C341 0.929 . S
H364 C369 0.931 . S
H365 C370 0.930 . S
N366 Gd346 2.622 . S
N366 C367 1.369 . S
N366 C368 1.338 . S
C367 N366 1.369 . S
C367 C371 1.415 . S
C367 C374 1.422 . S
C368 H359 0.929 . S
C368 N366 1.338 . S
C368 C370 1.378 . S
C369 H364 0.931 . S
C369 C370 1.348 . S
C369 C371 1.413 . S
C370 H365 0.930 . S
C370 C368 1.378 . S
C370 C369 1.348 . S
C371 C367 1.415 . S
C371 C369 1.413 . S
C371 C401 1.437 . S
H372 C401 0.929 . S
N373 Gd346 2.570 . S
N373 C374 1.359 . S
N373 C377 1.343 . S
C374 C367 1.422 . S
C374 N373 1.359 . S
C374 C376 1.421 . S
C375 C376 1.422 . S
C375 C378 1.321 . S
C375 H402 0.931 . S
C376 C374 1.421 . S
C376 C375 1.422 . S
C376 C400 1.417 . S
C377 H354 0.931 . S
C377 N373 1.343 . S
C377 C378 1.390 . S
C378 H356 0.930 . S
C378 C375 1.321 . S
C378 C377 1.390 . S
O379 Gd347 2.386 1_455 S
O379 C391 1.267 . S
O380 Gd346 2.353 . S
O380 C391 1.242 . S
O381 Gd346 2.468 . S
O381 C399 1.263 . S
O382 Gd346 2.427 . S
O382 C399 1.252 . S
O383 Gd347 2.307 . S
O383 C392 1.261 . S
O384 Gd346 2.388 . S
O384 C392 1.252 1_455 S
O385 Gd346 2.386 . S
O385 C403 1.265 . S
O386 Gd347 2.353 1_455 S
O386 C403 1.242 . S
O387 Gd347 2.468 . S
O387 C411 1.263 . S
O388 Gd347 2.427 . S
O388 C411 1.252 . S
O389 Gd346 2.307 . S
O389 C404 1.261 . S
O390 Gd347 2.388 1_455 S
O390 C404 1.252 . S
C391 O379 1.267 . S
C391 O380 1.242 . S
C392 O383 1.261 . S
C392 O384 1.252 1_655 S
C393 C396 1.394 . S
C393 C398 1.370 . S
C393 C399 1.500 . S
C394 C397 1.383 . S
C394 C398 1.395 . S
C395 C396 1.396 . S
C395 C397 1.365 . S
C395 H412 0.929 . S
C396 C393 1.394 . S
C396 C395 1.396 . S
C396 H413 0.930 . S
C397 C394 1.383 . S
C397 C395 1.365 . S
C397 H414 0.931 . S
C398 C393 1.370 . S
C398 C394 1.395 . S
C398 H415 0.930 . S
C399 Gd346 2.805 . S
C399 O381 1.263 . S
C399 O382 1.252 . S
C399 C393 1.500 . S
C400 H362 0.930 . S
C400 C376 1.417 . S
C400 C401 1.329 . S
C401 C371 1.437 . S
C401 H372 0.929 . S
C401 C400 1.329 . S
H402 C375 0.931 . S
C403 O385 1.265 . S
C403 O386 1.242 . S
C404 O389 1.261 . S
C404 O390 1.252 . S
C405 C408 1.394 . S
C405 C410 1.370 . S
C405 C411 1.500 . S
C406 C409 1.383 . S
C406 C410 1.395 . S
C407 C408 1.396 . S
C407 C409 1.365 . S
C407 H416 0.929 . S
C408 C405 1.394 . S
C408 C407 1.396 . S
C408 H417 0.930 . S
C409 C406 1.383 . S
C409 C407 1.365 . S
C409 H418 0.931 . S
C410 C405 1.370 . S
C410 C406 1.395 . S
C410 H419 0.930 . S
C411 Gd347 2.805 . S
C411 O387 1.263 . S
C411 O388 1.252 . S
C411 C405 1.500 . S
H412 C395 0.929 . S
H413 C396 0.930 . S
H414 C397 0.931 . S
H415 C398 0.930 . S
H416 C407 0.929 . S
H417 C408 0.930 . S
H418 C409 0.931 . S
H419 C410 0.930 . S
C420 C422 1.422 . S
C420 C424 1.415 . S
C420 N426 1.369 . S
C421 C422 1.421 . S
C421 C423 1.417 . S
C421 C433 1.422 . S
C422 C420 1.422 . S
C422 C421 1.421 . S
C422 N432 1.359 . S
C423 C421 1.417 . S
C423 C425 1.329 . S
C423 H442 0.930 . S
C424 C420 1.415 . S
C424 C425 1.437 . S
C424 C428 1.413 . S
C425 C423 1.329 . S
C425 C424 1.437 . S
C425 H447 0.929 . S
N426 C420 1.369 . S
N426 C427 1.338 . S
N426 Gd431 2.622 . S
C427 N426 1.338 . S
C427 C429 1.378 . S
C427 H439 0.929 . S
C428 C424 1.413 . S
C428 C429 1.348 . S
C428 H444 0.931 . S
C429 C427 1.378 . S
C429 C428 1.348 . S
C429 H445 0.930 . S
Gd430 N450 2.622 . S
Gd430 N457 2.570 . S
Gd430 O464 2.353 . S
Gd430 O465 2.468 . S
Gd430 O466 2.427 . S
Gd430 O468 2.388 . S
Gd430 O469 2.386 . S
Gd430 O473 2.307 . S
Gd430 C483 2.805 . S
Gd431 N426 2.622 . S
Gd431 N432 2.570 . S
Gd431 O463 2.386 . S
Gd431 O467 2.307 . S
Gd431 O470 2.353 . S
Gd431 O471 2.468 . S
Gd431 O472 2.427 . S
Gd431 O474 2.388 . S
Gd431 C495 2.805 . S
N432 C422 1.359 . S
N432 Gd431 2.570 . S
N432 C434 1.343 . S
C433 C421 1.422 . S
C433 C435 1.321 . S
C433 H441 0.931 . S
C434 N432 1.343 . S
C434 C435 1.390 . S
C434 H436 0.931 . S
C435 C433 1.321 . S
C435 C434 1.390 . S
C435 H437 0.930 . S
H436 C434 0.931 . S
H437 C435 0.930 . S
H438 C461 0.931 . S
H439 C427 0.929 . S
H440 C462 0.930 . S
H441 C433 0.931 . S
H442 C423 0.930 . S
H443 C452 0.929 . S
H444 C428 0.931 . S
H445 C429 0.930 . S
H446 C484 0.930 . S
H447 C425 0.929 . S
H448 C453 0.931 . S
H449 C454 0.930 . S
N450 Gd430 2.622 . S
N450 C451 1.369 . S
N450 C452 1.338 . S
C451 N450 1.369 . S
C451 C455 1.415 . S
C451 C458 1.422 . S
C452 H443 0.929 . S
C452 N450 1.338 . S
C452 C454 1.378 . S
C453 H448 0.931 . S
C453 C454 1.348 . S
C453 C455 1.413 . S
C454 H449 0.930 . S
C454 C452 1.378 . S
C454 C453 1.348 . S
C455 C451 1.415 . S
C455 C453 1.413 . S
C455 C485 1.437 . S
H456 C485 0.929 . S
N457 Gd430 2.570 . S
N457 C458 1.359 . S
N457 C461 1.343 . S
C458 C451 1.422 . S
C458 N457 1.359 . S
C458 C460 1.421 . S
C459 C460 1.422 . S
C459 C462 1.321 . S
C459 H486 0.931 . S
C460 C458 1.421 . S
C460 C459 1.422 . S
C460 C484 1.417 . S
C461 H438 0.931 . S
C461 N457 1.343 . S
C461 C462 1.390 . S
C462 H440 0.930 . S
C462 C459 1.321 . S
C462 C461 1.390 . S
O463 Gd431 2.386 . S
O463 C475 1.265 . S
O464 Gd430 2.353 . S
O464 C475 1.242 . S
O465 Gd430 2.468 . S
O465 C483 1.263 . S
O466 Gd430 2.427 . S
O466 C483 1.252 . S
O467 Gd431 2.307 . S
O467 C476 1.261 . S
O468 Gd430 2.388 . S
O468 C476 1.252 . S
O469 Gd430 2.386 . S
O469 C487 1.265 . S
O470 Gd431 2.353 . S
O470 C487 1.242 . S
O471 Gd431 2.468 . S
O471 C495 1.263 . S
O472 Gd431 2.427 . S
O472 C495 1.252 . S
O473 Gd430 2.307 . S
O473 C488 1.261 . S
O474 Gd431 2.388 . S
O474 C488 1.252 . S
C475 O463 1.265 . S
C475 O464 1.242 . S
C476 O467 1.261 . S
C476 O468 1.252 . S
C477 C480 1.394 . S
C477 C482 1.370 . S
C477 C483 1.500 . S
C478 C481 1.383 . S
C478 C482 1.395 . S
C479 C480 1.396 . S
C479 C481 1.365 . S
C479 H496 0.929 . S
C480 C477 1.394 . S
C480 C479 1.396 . S
C480 H497 0.930 . S
C481 C478 1.383 . S
C481 C479 1.365 . S
C481 H498 0.931 . S
C482 C477 1.370 . S
C482 C478 1.395 . S
C482 H499 0.930 . S
C483 Gd430 2.805 . S
C483 O465 1.263 . S
C483 O466 1.252 . S
C483 C477 1.500 . S
C484 H446 0.930 . S
C484 C460 1.417 . S
C484 C485 1.329 . S
C485 C455 1.437 . S
C485 H456 0.929 . S
C485 C484 1.329 . S
H486 C459 0.931 . S
C487 O469 1.265 . S
C487 O470 1.242 . S
C488 O473 1.261 . S
C488 O474 1.252 . S
C489 C492 1.394 . S
C489 C494 1.370 . S
C489 C495 1.500 . S
C490 C493 1.383 . S
C490 C494 1.395 . S
C491 C492 1.396 . S
C491 C493 1.365 . S
C491 H500 0.929 . S
C492 C489 1.394 . S
C492 C491 1.396 . S
C492 H501 0.930 . S
C493 C490 1.383 . S
C493 C491 1.365 . S
C493 H502 0.931 . S
C494 C489 1.370 . S
C494 C490 1.395 . S
C494 H503 0.930 . S
C495 Gd431 2.805 . S
C495 O471 1.263 . S
C495 O472 1.252 . S
C495 C489 1.500 . S
H496 C479 0.929 . S
H497 C480 0.930 . S
H498 C481 0.931 . S
H499 C482 0.930 . S
H500 C491 0.929 . S
H501 C492 0.930 . S
H502 C493 0.931 . S
H503 C494 0.930 . S
C504 C506 1.422 . S
C504 C508 1.415 . S
C504 N510 1.369 . S
C505 C506 1.421 . S
C505 C507 1.417 . S
C505 C517 1.422 . S
C506 C504 1.422 . S
C506 C505 1.421 . S
C506 N516 1.359 . S
C507 C505 1.417 . S
C507 C509 1.329 . S
C507 H526 0.930 . S
C508 C504 1.415 . S
C508 C509 1.437 . S
C508 C512 1.413 . S
C509 C507 1.329 . S
C509 C508 1.437 . S
C509 H531 0.929 . S
N510 C504 1.369 . S
N510 C511 1.338 . S
N510 Gd515 2.622 . S
C511 N510 1.338 . S
C511 C513 1.378 . S
C511 H523 0.929 . S
C512 C508 1.413 . S
C512 C513 1.348 . S
C512 H528 0.931 . S
C513 C511 1.378 . S
C513 C512 1.348 . S
C513 H529 0.930 . S
Gd514 N534 2.622 . S
Gd514 N541 2.570 . S
Gd514 O548 2.353 . S
Gd514 O549 2.468 . S
Gd514 O550 2.427 . S
Gd514 O552 2.388 . S
Gd514 O553 2.386 . S
Gd514 O557 2.307 . S
Gd514 C567 2.805 . S
Gd515 N510 2.622 . S
Gd515 N516 2.570 . S
Gd515 O547 2.386 . S
Gd515 O551 2.307 . S
Gd515 O554 2.353 . S
Gd515 O555 2.468 . S
Gd515 O556 2.427 . S
Gd515 O558 2.388 . S
Gd515 C579 2.805 . S
N516 C506 1.359 . S
N516 Gd515 2.570 . S
N516 C518 1.343 . S
C517 C505 1.422 . S
C517 C519 1.321 . S
C517 H525 0.931 . S
C518 N516 1.343 . S
C518 C519 1.390 . S
C518 H520 0.931 . S
C519 C517 1.321 . S
C519 C518 1.390 . S
C519 H521 0.930 . S
H520 C518 0.931 . S
H521 C519 0.930 . S
H522 C545 0.931 . S
H523 C511 0.929 . S
H524 C546 0.930 . S
H525 C517 0.931 . S
H526 C507 0.930 . S
H527 C536 0.929 . S
H528 C512 0.931 . S
H529 C513 0.930 . S
H530 C568 0.930 . S
H531 C509 0.929 . S
H532 C537 0.931 . S
H533 C538 0.930 . S
N534 Gd514 2.622 . S
N534 C535 1.369 . S
N534 C536 1.338 . S
C535 N534 1.369 . S
C535 C539 1.415 . S
C535 C542 1.422 . S
C536 H527 0.929 . S
C536 N534 1.338 . S
C536 C538 1.378 . S
C537 H532 0.931 . S
C537 C538 1.348 . S
C537 C539 1.413 . S
C538 H533 0.930 . S
C538 C536 1.378 . S
C538 C537 1.348 . S
C539 C535 1.415 . S
C539 C537 1.413 . S
C539 C569 1.437 . S
H540 C569 0.929 . S
N541 Gd514 2.570 . S
N541 C542 1.359 . S
N541 C545 1.343 . S
C542 C535 1.422 . S
C542 N541 1.359 . S
C542 C544 1.421 . S
C543 C544 1.422 . S
C543 C546 1.321 . S
C543 H570 0.931 . S
C544 C542 1.421 . S
C544 C543 1.422 . S
C544 C568 1.417 . S
C545 H522 0.931 . S
C545 N541 1.343 . S
C545 C546 1.390 . S
C546 H524 0.930 . S
C546 C543 1.321 . S
C546 C545 1.390 . S
O547 Gd515 2.386 . S
O547 C559 1.265 . S
O548 Gd514 2.353 . S
O548 C559 1.242 . S
O549 Gd514 2.468 . S
O549 C567 1.263 . S
O550 Gd514 2.427 . S
O550 C567 1.252 . S
O551 Gd515 2.307 . S
O551 C560 1.261 . S
O552 Gd514 2.388 . S
O552 C560 1.252 . S
O553 Gd514 2.386 . S
O553 C571 1.265 . S
O554 Gd515 2.353 . S
O554 C571 1.242 . S
O555 Gd515 2.468 . S
O555 C579 1.263 . S
O556 Gd515 2.427 . S
O556 C579 1.252 . S
O557 Gd514 2.307 . S
O557 C572 1.261 . S
O558 Gd515 2.388 . S
O558 C572 1.252 . S
C559 O547 1.265 . S
C559 O548 1.242 . S
C560 O551 1.261 . S
C560 O552 1.252 . S
C561 C564 1.394 . S
C561 C566 1.370 . S
C561 C567 1.500 . S
C562 C565 1.383 . S
C562 C566 1.395 . S
C563 C564 1.396 . S
C563 C565 1.365 . S
C563 H580 0.929 . S
C564 C561 1.394 . S
C564 C563 1.396 . S
C564 H581 0.930 . S
C565 C562 1.383 . S
C565 C563 1.365 . S
C565 H582 0.931 . S
C566 C561 1.370 . S
C566 C562 1.395 . S
C566 H583 0.930 . S
C567 Gd514 2.805 . S
C567 O549 1.263 . S
C567 O550 1.252 . S
C567 C561 1.500 . S
C568 H530 0.930 . S
C568 C544 1.417 . S
C568 C569 1.329 . S
C569 C539 1.437 . S
C569 H540 0.929 . S
C569 C568 1.329 . S
H570 C543 0.931 . S
C571 O553 1.265 . S
C571 O554 1.242 . S
C572 O557 1.261 . S
C572 O558 1.252 . S
C573 C576 1.394 . S
C573 C578 1.370 . S
C573 C579 1.500 . S
C574 C577 1.383 . S
C574 C578 1.395 . S
C575 C576 1.396 . S
C575 C577 1.365 . S
C575 H584 0.929 . S
C576 C573 1.394 . S
C576 C575 1.396 . S
C576 H585 0.930 . S
C577 C574 1.383 . S
C577 C575 1.365 . S
C577 H586 0.931 . S
C578 C573 1.370 . S
C578 C574 1.395 . S
C578 H587 0.930 . S
C579 Gd515 2.805 . S
C579 O555 1.263 . S
C579 O556 1.252 . S
C579 C573 1.500 . S
H580 C563 0.929 . S
H581 C564 0.930 . S
H582 C565 0.931 . S
H583 C566 0.930 . S
H584 C575 0.929 . S
H585 C576 0.930 . S
H586 C577 0.931 . S
H587 C578 0.930 . S
C588 C590 1.422 . S
C588 C592 1.415 . S
C588 N594 1.369 . S
C589 C590 1.421 . S
C589 C591 1.417 . S
C589 C601 1.422 . S
C590 C588 1.422 . S
C590 C589 1.421 . S
C590 N600 1.359 . S
C591 C589 1.417 . S
C591 C593 1.329 . S
C591 H610 0.930 . S
C592 C588 1.415 . S
C592 C593 1.437 . S
C592 C596 1.413 . S
C593 C591 1.329 . S
C593 C592 1.437 . S
C593 H615 0.929 . S
N594 C588 1.369 . S
N594 C595 1.338 . S
N594 Gd599 2.622 . S
C595 N594 1.338 . S
C595 C597 1.378 . S
C595 H607 0.929 . S
C596 C592 1.413 . S
C596 C597 1.348 . S
C596 H612 0.931 . S
C597 C595 1.378 . S
C597 C596 1.348 . S
C597 H613 0.930 . S
Gd598 N618 2.622 . S
Gd598 N625 2.570 1_554 S
Gd598 O632 2.353 . S
Gd598 O633 2.468 . S
Gd598 O634 2.427 . S
Gd598 O636 2.388 . S
Gd598 O637 2.386 1_554 S
Gd598 O641 2.307 1_554 S
Gd598 C651 2.805 . S
Gd599 N594 2.622 . S
Gd599 N600 2.570 . S
Gd599 O631 2.386 . S
Gd599 O635 2.307 . S
Gd599 O638 2.353 . S
Gd599 O639 2.468 . S
Gd599 O640 2.427 . S
Gd599 O642 2.388 . S
Gd599 C663 2.805 . S
N600 C590 1.359 . S
N600 Gd599 2.570 . S
N600 C602 1.343 . S
C601 C589 1.422 . S
C601 C603 1.321 . S
C601 H609 0.931 . S
C602 N600 1.343 . S
C602 C603 1.390 . S
C602 H604 0.931 . S
C603 C601 1.321 . S
C603 C602 1.390 . S
C603 H605 0.930 . S
H604 C602 0.931 . S
H605 C603 0.930 . S
H606 C629 0.931 . S
H607 C595 0.929 . S
H608 C630 0.930 . S
H609 C601 0.931 . S
H610 C591 0.930 . S
H611 C620 0.929 . S
H612 C596 0.931 . S
H613 C597 0.930 . S
H614 C652 0.930 . S
H615 C593 0.929 . S
H616 C621 0.931 . S
H617 C622 0.930 . S
N618 Gd598 2.622 . S
N618 C619 1.369 . S
N618 C620 1.338 . S
C619 N618 1.369 . S
C619 C623 1.415 . S
C619 C626 1.422 1_554 S
C620 H611 0.929 . S
C620 N618 1.338 . S
C620 C622 1.378 . S
C621 H616 0.931 . S
C621 C622 1.348 . S
C621 C623 1.413 . S
C622 H617 0.930 . S
C622 C620 1.378 . S
C622 C621 1.348 . S
C623 C619 1.415 . S
C623 C621 1.413 . S
C623 C653 1.437 . S
H624 C653 0.929 . S
N625 Gd598 2.570 1_556 S
N625 C626 1.359 . S
N625 C629 1.343 . S
C626 C619 1.422 1_556 S
C626 N625 1.359 . S
C626 C628 1.421 . S
C627 C628 1.422 . S
C627 C630 1.321 . S
C627 H654 0.931 . S
C628 C626 1.421 . S
C628 C627 1.422 . S
C628 C652 1.417 . S
C629 H606 0.931 . S
C629 N625 1.343 . S
C629 C630 1.390 . S
C630 H608 0.930 . S
C630 C627 1.321 . S
C630 C629 1.390 . S
O631 Gd599 2.386 . S
O631 C643 1.265 1_556 S
O632 Gd598 2.353 . S
O632 C643 1.242 . S
O633 Gd598 2.468 . S
O633 C651 1.263 . S
O634 Gd598 2.427 . S
O634 C651 1.252 . S
O635 Gd599 2.307 . S
O635 C644 1.246 1_556 S
O636 Gd598 2.388 . S
O636 C644 1.265 . S
O637 Gd598 2.386 1_556 S
O637 C655 1.265 . S
O638 Gd599 2.353 . S
O638 C655 1.242 . S
O639 Gd599 2.468 . S
O639 C663 1.263 . S
O640 Gd599 2.427 . S
O640 C663 1.252 . S
O641 Gd598 2.307 1_556 S
O641 C656 1.261 . S
O642 Gd599 2.388 . S
O642 C656 1.252 . S
C643 O631 1.265 1_554 S
C643 O632 1.242 . S
C644 O635 1.246 1_554 S
C644 O636 1.265 . S
C645 C648 1.394 . S
C645 C650 1.370 . S
C645 C651 1.500 . S
C646 C649 1.383 . S
C646 C650 1.395 . S
C647 C648 1.396 . S
C647 C649 1.365 . S
C647 H664 0.929 . S
C648 C645 1.394 . S
C648 C647 1.396 . S
C648 H665 0.930 . S
C649 C646 1.383 . S
C649 C647 1.365 . S
C649 H666 0.931 . S
C650 C645 1.370 . S
C650 C646 1.395 . S
C650 H667 0.930 . S
C651 Gd598 2.805 . S
C651 O633 1.263 . S
C651 O634 1.252 . S
C651 C645 1.500 . S
C652 H614 0.930 . S
C652 C628 1.417 . S
C652 C653 1.329 1_556 S
C653 C623 1.437 . S
C653 H624 0.929 . S
C653 C652 1.329 1_554 S
H654 C627 0.931 . S
C655 O637 1.265 . S
C655 O638 1.242 . S
C656 O641 1.261 . S
C656 O642 1.252 . S
C657 C660 1.394 . S
C657 C662 1.370 . S
C657 C663 1.500 . S
C658 C661 1.383 . S
C658 C662 1.395 . S
C659 C660 1.396 . S
C659 C661 1.365 . S
C659 H668 0.929 . S
C660 C657 1.394 . S
C660 C659 1.396 . S
C660 H669 0.930 . S
C661 C658 1.383 . S
C661 C659 1.365 . S
C661 H670 0.931 . S
C662 C657 1.370 . S
C662 C658 1.395 . S
C662 H671 0.930 . S
C663 Gd599 2.805 . S
C663 O639 1.263 . S
C663 O640 1.252 . S
C663 C657 1.500 . S
H664 C647 0.929 . S
H665 C648 0.930 . S
H666 C649 0.931 . S
H667 C650 0.930 . S
H668 C659 0.929 . S
H669 C660 0.930 . S
H670 C661 0.931 . S
H671 C662 0.930 . S
C672 C674 1.422 . S
C672 C676 1.415 . S
C672 N678 1.369 . S
C673 C674 1.421 . S
C673 C675 1.417 . S
C673 C685 1.422 . S
C674 C672 1.422 . S
C674 C673 1.421 . S
C674 N684 1.359 . S
C675 C673 1.417 . S
C675 C677 1.329 . S
C675 H694 0.930 . S
C676 C672 1.415 . S
C676 C677 1.437 . S
C676 C680 1.413 . S
C677 C675 1.329 . S
C677 C676 1.437 . S
C677 H699 0.929 . S
N678 C672 1.369 . S
N678 C679 1.338 . S
N678 Gd683 2.622 . S
C679 N678 1.338 . S
C679 C681 1.378 . S
C679 H691 0.929 . S
C680 C676 1.413 . S
C680 C681 1.348 . S
C680 H696 0.931 . S
C681 C679 1.378 . S
C681 C680 1.348 . S
C681 H697 0.930 . S
Gd682 N702 2.622 . S
Gd682 N709 2.570 1_565 S
Gd682 O716 2.353 . S
Gd682 O717 2.468 . S
Gd682 O718 2.427 . S
Gd682 O720 2.388 . S
Gd682 O721 2.386 1_565 S
Gd682 O725 2.307 1_565 S
Gd682 C735 2.805 . S
Gd683 N678 2.622 . S
Gd683 N684 2.570 . S
Gd683 O715 2.386 . S
Gd683 O719 2.307 . S
Gd683 O722 2.353 . S
Gd683 O723 2.468 . S
Gd683 O724 2.427 . S
Gd683 O726 2.388 . S
Gd683 C747 2.805 . S
N684 C674 1.359 . S
N684 Gd683 2.570 . S
N684 C686 1.343 . S
C685 C673 1.422 . S
C685 C687 1.321 . S
C685 H693 0.931 . S
C686 N684 1.343 . S
C686 C687 1.390 . S
C686 H688 0.931 . S
C687 C685 1.321 . S
C687 C686 1.390 . S
C687 H689 0.930 . S
H688 C686 0.931 . S
H689 C687 0.930 . S
H690 C713 0.931 . S
H691 C679 0.929 . S
H692 C714 0.930 . S
H693 C685 0.931 . S
H694 C675 0.930 . S
H695 C704 0.929 . S
H696 C680 0.931 . S
H697 C681 0.930 . S
H698 C736 0.930 . S
H699 C677 0.929 . S
H700 C705 0.931 . S
H701 C706 0.930 . S
N702 Gd682 2.622 . S
N702 C703 1.369 . S
N702 C704 1.338 . S
C703 N702 1.369 . S
C703 C707 1.415 . S
C703 C710 1.422 1_565 S
C704 H695 0.929 . S
C704 N702 1.338 . S
C704 C706 1.378 . S
C705 H700 0.931 . S
C705 C706 1.348 . S
C705 C707 1.413 . S
C706 H701 0.930 . S
C706 C704 1.378 . S
C706 C705 1.348 . S
C707 C703 1.415 . S
C707 C705 1.413 . S
C707 C737 1.437 . S
H708 C737 0.929 . S
N709 Gd682 2.570 1_545 S
N709 C710 1.359 . S
N709 C713 1.343 . S
C710 C703 1.422 1_545 S
C710 N709 1.359 . S
C710 C712 1.421 . S
C711 C712 1.422 . S
C711 C714 1.321 . S
C711 H738 0.931 . S
C712 C710 1.421 . S
C712 C711 1.422 . S
C712 C736 1.417 . S
C713 H690 0.931 . S
C713 N709 1.343 . S
C713 C714 1.390 . S
C714 H692 0.930 . S
C714 C711 1.321 . S
C714 C713 1.390 . S
O715 Gd683 2.386 . S
O715 C727 1.265 1_545 S
O716 Gd682 2.353 . S
O716 C727 1.242 . S
O717 Gd682 2.468 . S
O717 C735 1.263 . S
O718 Gd682 2.427 . S
O718 C735 1.252 . S
O719 Gd683 2.307 . S
O719 C728 1.244 1_545 S
O720 Gd682 2.388 . S
O720 C728 1.267 . S
O721 Gd682 2.386 1_545 S
O721 C739 1.265 . S
O722 Gd683 2.353 . S
O722 C739 1.242 . S
O723 Gd683 2.468 . S
O723 C747 1.263 . S
O724 Gd683 2.427 . S
O724 C747 1.252 . S
O725 Gd682 2.307 1_545 S
O725 C740 1.261 . S
O726 Gd683 2.388 . S
O726 C740 1.252 . S
C727 O715 1.265 1_565 S
C727 O716 1.242 . S
C728 O719 1.244 1_565 S
C728 O720 1.267 . S
C729 C732 1.394 . S
C729 C734 1.370 . S
C729 C735 1.500 . S
C730 C733 1.383 . S
C730 C734 1.395 . S
C731 C732 1.396 . S
C731 C733 1.365 . S
C731 H748 0.929 . S
C732 C729 1.394 . S
C732 C731 1.396 . S
C732 H749 0.930 . S
C733 C730 1.383 . S
C733 C731 1.365 . S
C733 H750 0.931 . S
C734 C729 1.370 . S
C734 C730 1.395 . S
C734 H751 0.930 . S
C735 Gd682 2.805 . S
C735 O717 1.263 . S
C735 O718 1.252 . S
C735 C729 1.500 . S
C736 H698 0.930 . S
C736 C712 1.417 . S
C736 C737 1.329 1_545 S
C737 C707 1.437 . S
C737 H708 0.929 . S
C737 C736 1.329 1_565 S
H738 C711 0.931 . S
C739 O721 1.265 . S
C739 O722 1.242 . S
C740 O725 1.261 . S
C740 O726 1.252 . S
C741 C744 1.394 . S
C741 C746 1.370 . S
C741 C747 1.500 . S
C742 C745 1.383 . S
C742 C746 1.395 . S
C743 C744 1.396 . S
C743 C745 1.365 . S
C743 H752 0.929 . S
C744 C741 1.394 . S
C744 C743 1.396 . S
C744 H753 0.930 . S
C745 C742 1.383 . S
C745 C743 1.365 . S
C745 H754 0.931 . S
C746 C741 1.370 . S
C746 C742 1.395 . S
C746 H755 0.930 . S
C747 Gd683 2.805 . S
C747 O723 1.263 . S
C747 O724 1.252 . S
C747 C741 1.500 . S
H748 C731 0.929 . S
H749 C732 0.930 . S
H750 C733 0.931 . S
H751 C734 0.930 . S
H752 C743 0.929 . S
H753 C744 0.930 . S
H754 C745 0.931 . S
H755 C746 0.930 . S
C756 C758 1.422 . S
C756 C760 1.415 . S
C756 N762 1.369 . S
C757 C758 1.421 . S
C757 C759 1.417 . S
C757 C769 1.422 . S
C758 C756 1.422 . S
C758 C757 1.421 . S
C758 N768 1.359 . S
C759 C757 1.417 . S
C759 C761 1.329 . S
C759 H778 0.930 . S
C760 C756 1.415 . S
C760 C761 1.437 . S
C760 C764 1.413 . S
C761 C759 1.329 . S
C761 C760 1.437 . S
C761 H783 0.929 . S
N762 C756 1.369 . S
N762 C763 1.338 . S
N762 Gd767 2.622 . S
C763 N762 1.338 . S
C763 C765 1.378 . S
C763 H775 0.929 . S
C764 C760 1.413 . S
C764 C765 1.348 . S
C764 H780 0.931 . S
C765 C763 1.378 . S
C765 C764 1.348 . S
C765 H781 0.930 . S
Gd766 N786 2.622 . S
Gd766 N793 2.570 1_565 S
Gd766 O800 2.353 . S
Gd766 O801 2.468 . S
Gd766 O802 2.427 . S
Gd766 O804 2.388 . S
Gd766 O805 2.386 1_565 S
Gd766 O809 2.307 1_565 S
Gd766 C819 2.805 . S
Gd767 N762 2.622 . S
Gd767 N768 2.570 . S
Gd767 O799 2.386 . S
Gd767 O803 2.307 . S
Gd767 O806 2.353 . S
Gd767 O807 2.468 . S
Gd767 O808 2.427 . S
Gd767 O810 2.388 . S
Gd767 C831 2.805 . S
N768 C758 1.359 . S
N768 Gd767 2.570 . S
N768 C770 1.343 . S
C769 C757 1.422 . S
C769 C771 1.321 . S
C769 H777 0.931 . S
C770 N768 1.343 . S
C770 C771 1.390 . S
C770 H772 0.931 . S
C771 C769 1.321 . S
C771 C770 1.390 . S
C771 H773 0.930 . S
H772 C770 0.931 . S
H773 C771 0.930 . S
H774 C797 0.931 . S
H775 C763 0.929 . S
H776 C798 0.930 . S
H777 C769 0.931 . S
H778 C759 0.930 . S
H779 C788 0.929 . S
H780 C764 0.931 . S
H781 C765 0.930 . S
H782 C820 0.930 . S
H783 C761 0.929 . S
H784 C789 0.931 . S
H785 C790 0.930 . S
N786 Gd766 2.622 . S
N786 C787 1.369 . S
N786 C788 1.338 . S
C787 N786 1.369 . S
C787 C791 1.415 . S
C787 C794 1.422 1_565 S
C788 H779 0.929 . S
C788 N786 1.338 . S
C788 C790 1.378 . S
C789 H784 0.931 . S
C789 C790 1.348 . S
C789 C791 1.413 . S
C790 H785 0.930 . S
C790 C788 1.378 . S
C790 C789 1.348 . S
C791 C787 1.415 . S
C791 C789 1.413 . S
C791 C821 1.437 . S
H792 C821 0.929 . S
N793 Gd766 2.570 1_545 S
N793 C794 1.359 . S
N793 C797 1.343 . S
C794 C787 1.422 1_545 S
C794 N793 1.359 . S
C794 C796 1.421 . S
C795 C796 1.422 . S
C795 C798 1.321 . S
C795 H822 0.931 . S
C796 C794 1.421 . S
C796 C795 1.422 . S
C796 C820 1.417 . S
C797 H774 0.931 . S
C797 N793 1.343 . S
C797 C798 1.390 . S
C798 H776 0.930 . S
C798 C795 1.321 . S
C798 C797 1.390 . S
O799 Gd767 2.386 . S
O799 C811 1.265 1_545 S
O800 Gd766 2.353 . S
O800 C811 1.242 . S
O801 Gd766 2.468 . S
O801 C819 1.263 . S
O802 Gd766 2.427 . S
O802 C819 1.252 . S
O803 Gd767 2.307 . S
O803 C812 1.262 1_545 S
O804 Gd766 2.388 . S
O804 C812 1.251 . S
O805 Gd766 2.386 1_545 S
O805 C823 1.265 . S
O806 Gd767 2.353 . S
O806 C823 1.242 . S
O807 Gd767 2.468 . S
O807 C831 1.263 . S
O808 Gd767 2.427 . S
O808 C831 1.252 . S
O809 Gd766 2.307 1_545 S
O809 C824 1.261 . S
O810 Gd767 2.388 . S
O810 C824 1.252 . S
C811 O799 1.265 1_565 S
C811 O800 1.242 . S
C812 O803 1.262 1_565 S
C812 O804 1.251 . S
C813 C816 1.394 . S
C813 C818 1.370 . S
C813 C819 1.500 . S
C814 C817 1.383 . S
C814 C818 1.395 . S
C815 C816 1.396 . S
C815 C817 1.365 . S
C815 H832 0.929 . S
C816 C813 1.394 . S
C816 C815 1.396 . S
C816 H833 0.930 . S
C817 C814 1.383 . S
C817 C815 1.365 . S
C817 H834 0.931 . S
C818 C813 1.370 . S
C818 C814 1.395 . S
C818 H835 0.930 . S
C819 Gd766 2.805 . S
C819 O801 1.263 . S
C819 O802 1.252 . S
C819 C813 1.500 . S
C820 H782 0.930 . S
C820 C796 1.417 . S
C820 C821 1.329 1_545 S
C821 C791 1.437 . S
C821 H792 0.929 . S
C821 C820 1.329 1_565 S
H822 C795 0.931 . S
C823 O805 1.265 . S
C823 O806 1.242 . S
C824 O809 1.261 . S
C824 O810 1.252 . S
C825 C828 1.394 . S
C825 C830 1.370 . S
C825 C831 1.500 . S
C826 C829 1.383 . S
C826 C830 1.395 . S
C827 C828 1.396 . S
C827 C829 1.365 . S
C827 H836 0.929 . S
C828 C825 1.394 . S
C828 C827 1.396 . S
C828 H837 0.930 . S
C829 C826 1.383 . S
C829 C827 1.365 . S
C829 H838 0.931 . S
C830 C825 1.370 . S
C830 C826 1.395 . S
C830 H839 0.930 . S
C831 Gd767 2.805 . S
C831 O807 1.263 . S
C831 O808 1.252 . S
C831 C825 1.500 . S
H832 C815 0.929 . S
H833 C816 0.930 . S
H834 C817 0.931 . S
H835 C818 0.930 . S
H836 C827 0.929 . S
H837 C828 0.930 . S
H838 C829 0.931 . S
H839 C830 0.930 . S
C840 C842 1.422 . S
C840 C844 1.415 . S
C840 N846 1.369 . S
C841 C842 1.421 . S
C841 C843 1.417 . S
C841 C853 1.422 . S
C842 C840 1.422 . S
C842 C841 1.421 . S
C842 N852 1.359 . S
C843 C841 1.417 . S
C843 C845 1.329 . S
C843 H862 0.930 . S
C844 C840 1.415 . S
C844 C845 1.437 . S
C844 C848 1.413 . S
C845 C843 1.329 . S
C845 C844 1.437 . S
C845 H867 0.929 . S
N846 C840 1.369 . S
N846 C847 1.352 . S
N846 Gd851 2.622 . S
C847 N846 1.352 . S
C847 C849 1.383 . S
C847 H859 0.909 1_545 S
C848 C844 1.413 . S
C848 C849 1.348 . S
C848 H864 0.931 . S
C849 C847 1.383 . S
C849 C848 1.348 . S
C849 H865 0.930 1_545 S
Gd850 N870 2.622 . S
Gd850 N877 2.570 . S
Gd850 O884 2.353 . S
Gd850 O885 2.468 . S
Gd850 O886 2.427 . S
Gd850 O888 2.388 . S
Gd850 O889 2.386 . S
Gd850 O893 2.307 . S
Gd850 C903 2.805 . S
Gd851 N846 2.622 . S
Gd851 N852 2.570 . S
Gd851 O883 2.386 1_545 S
Gd851 O887 2.307 . S
Gd851 O890 2.353 1_545 S
Gd851 O891 2.468 . S
Gd851 O892 2.427 . S
Gd851 O894 2.388 1_545 S
Gd851 C915 2.805 . S
N852 C842 1.359 . S
N852 Gd851 2.570 . S
N852 C854 1.343 . S
C853 C841 1.422 . S
C853 C855 1.321 . S
C853 H861 0.931 . S
C854 N852 1.343 . S
C854 C855 1.390 . S
C854 H856 0.931 . S
C855 C853 1.321 . S
C855 C854 1.390 . S
C855 H857 0.930 . S
H856 C854 0.931 . S
H857 C855 0.930 . S
H858 C881 0.931 . S
H859 C847 0.909 1_565 S
H860 C882 0.930 . S
H861 C853 0.931 . S
H862 C843 0.930 . S
H863 C872 0.929 . S
H864 C848 0.931 . S
H865 C849 0.930 1_565 S
H866 C904 0.930 . S
H867 C845 0.929 . S
H868 C873 0.931 . S
H869 C874 0.930 . S
N870 Gd850 2.622 . S
N870 C871 1.369 . S
N870 C872 1.338 . S
C871 N870 1.369 . S
C871 C875 1.415 . S
C871 C878 1.422 . S
C872 H863 0.929 . S
C872 N870 1.338 . S
C872 C874 1.378 . S
C873 H868 0.931 . S
C873 C874 1.348 . S
C873 C875 1.413 . S
C874 H869 0.930 . S
C874 C872 1.378 . S
C874 C873 1.348 . S
C875 C871 1.415 . S
C875 C873 1.413 . S
C875 C905 1.437 . S
H876 C905 0.929 . S
N877 Gd850 2.570 . S
N877 C878 1.359 . S
N877 C881 1.343 . S
C878 C871 1.422 . S
C878 N877 1.359 . S
C878 C880 1.421 . S
C879 C880 1.422 . S
C879 C882 1.321 . S
C879 H906 0.931 . S
C880 C878 1.421 . S
C880 C879 1.422 . S
C880 C904 1.417 . S
C881 H858 0.931 . S
C881 N877 1.343 . S
C881 C882 1.390 . S
C882 H860 0.930 . S
C882 C879 1.321 . S
C882 C881 1.390 . S
O883 Gd851 2.386 1_565 S
O883 C895 1.265 . S
O884 Gd850 2.353 . S
O884 C895 1.242 . S
O885 Gd850 2.468 . S
O885 C903 1.263 . S
O886 Gd850 2.427 . S
O886 C903 1.252 . S
O887 Gd851 2.307 . S
O887 C896 1.261 . S
O888 Gd850 2.388 . S
O888 C896 1.252 1_565 S
O889 Gd850 2.386 . S
O889 C907 1.265 . S
O890 Gd851 2.353 1_565 S
O890 C907 1.242 . S
O891 Gd851 2.468 . S
O891 C915 1.263 . S
O892 Gd851 2.427 . S
O892 C915 1.252 . S
O893 Gd850 2.307 . S
O893 C908 1.261 . S
O894 Gd851 2.388 1_565 S
O894 C908 1.252 . S
C895 O883 1.265 . S
C895 O884 1.242 . S
C896 O887 1.261 . S
C896 O888 1.252 1_545 S
C897 C900 1.394 . S
C897 C902 1.370 . S
C897 C903 1.500 . S
C898 C901 1.383 . S
C898 C902 1.395 . S
C899 C900 1.396 . S
C899 C901 1.365 . S
C899 H916 0.929 . S
C900 C897 1.394 . S
C900 C899 1.396 . S
C900 H917 0.930 . S
C901 C898 1.383 . S
C901 C899 1.365 . S
C901 H918 0.931 . S
C902 C897 1.370 . S
C902 C898 1.395 . S
C902 H919 0.930 . S
C903 Gd850 2.805 . S
C903 O885 1.263 . S
C903 O886 1.252 . S
C903 C897 1.500 . S
C904 H866 0.930 . S
C904 C880 1.417 . S
C904 C905 1.329 . S
C905 C875 1.437 . S
C905 H876 0.929 . S
C905 C904 1.329 . S
H906 C879 0.931 . S
C907 O889 1.265 . S
C907 O890 1.242 . S
C908 O893 1.261 . S
C908 O894 1.252 . S
C909 C912 1.394 . S
C909 C914 1.370 . S
C909 C915 1.500 . S
C910 C913 1.383 . S
C910 C914 1.395 . S
C911 C912 1.396 . S
C911 C913 1.365 . S
C911 H920 0.929 . S
C912 C909 1.394 . S
C912 C911 1.396 . S
C912 H921 0.930 . S
C913 C910 1.383 . S
C913 C911 1.365 . S
C913 H922 0.931 . S
C914 C909 1.370 . S
C914 C910 1.395 . S
C914 H923 0.930 . S
C915 Gd851 2.805 . S
C915 O891 1.263 . S
C915 O892 1.252 . S
C915 C909 1.500 . S
H916 C899 0.929 . S
H917 C900 0.930 . S
H918 C901 0.931 . S
H919 C902 0.930 . S
H920 C911 0.929 . S
H921 C912 0.930 . S
H922 C913 0.931 . S
H923 C914 0.930 . S
C924 C926 1.422 . S
C924 C928 1.415 . S
C924 N930 1.369 . S
C925 C926 1.421 . S
C925 C927 1.417 . S
C925 C937 1.422 . S
C926 C924 1.422 . S
C926 C925 1.421 . S
C926 N936 1.359 . S
C927 C925 1.417 . S
C927 C929 1.329 . S
C927 H946 0.930 . S
C928 C924 1.415 . S
C928 C929 1.437 . S
C928 C932 1.413 . S
C929 C927 1.329 . S
C929 C928 1.437 . S
C929 H951 0.929 . S
N930 C924 1.369 . S
N930 C931 1.350 . S
N930 Gd935 2.622 . S
C931 N930 1.350 . S
C931 C933 1.383 . S
C931 H943 0.912 1_545 S
C932 C928 1.413 . S
C932 C933 1.348 . S
C932 H948 0.931 . S
C933 C931 1.383 . S
C933 C932 1.348 . S
C933 H949 0.930 1_545 S
Gd934 N954 2.622 . S
Gd934 N961 2.570 . S
Gd934 O968 2.353 . S
Gd934 O969 2.468 . S
Gd934 O970 2.427 . S
Gd934 O972 2.388 . S
Gd934 O973 2.386 . S
Gd934 O977 2.307 . S
Gd934 C987 2.805 . S
Gd935 N930 2.622 . S
Gd935 N936 2.570 . S
Gd935 O967 2.386 . S
Gd935 O971 2.307 . S
Gd935 O974 2.353 1_545 S
Gd935 O975 2.468 . S
Gd935 O976 2.427 . S
Gd935 O978 2.388 1_545 S
Gd935 C999 2.805 . S
N936 C926 1.359 . S
N936 Gd935 2.570 . S
N936 C938 1.343 . S
C937 C925 1.422 . S
C937 C939 1.321 . S
C937 H945 0.931 . S
C938 N936 1.343 . S
C938 C939 1.390 . S
C938 H940 0.931 . S
C939 C937 1.321 . S
C939 C938 1.390 . S
C939 H941 0.930 . S
H940 C938 0.931 . S
H941 C939 0.930 . S
H942 C965 0.931 . S
H943 C931 0.912 1_565 S
H944 C966 0.930 . S
H945 C937 0.931 . S
H946 C927 0.930 . S
H947 C956 0.929 . S
H948 C932 0.931 . S
H949 C933 0.930 1_565 S
H950 C988 0.930 . S
H951 C929 0.929 . S
H952 C957 0.931 . S
H953 C958 0.930 . S
N954 Gd934 2.622 . S
N954 C955 1.369 . S
N954 C956 1.338 . S
C955 N954 1.369 . S
C955 C959 1.415 . S
C955 C962 1.422 . S
C956 H947 0.929 . S
C956 N954 1.338 . S
C956 C958 1.378 . S
C957 H952 0.931 . S
C957 C958 1.348 . S
C957 C959 1.413 . S
C958 H953 0.930 . S
C958 C956 1.378 . S
C958 C957 1.348 . S
C959 C955 1.415 . S
C959 C957 1.413 . S
C959 C989 1.437 . S
H960 C989 0.929 . S
N961 Gd934 2.570 . S
N961 C962 1.359 . S
N961 C965 1.343 . S
C962 C955 1.422 . S
C962 N961 1.359 . S
C962 C964 1.421 . S
C963 C964 1.422 . S
C963 C966 1.321 . S
C963 H990 0.931 . S
C964 C962 1.421 . S
C964 C963 1.422 . S
C964 C988 1.417 . S
C965 H942 0.931 . S
C965 N961 1.343 . S
C965 C966 1.390 . S
C966 H944 0.930 . S
C966 C963 1.321 . S
C966 C965 1.390 . S
O967 Gd935 2.386 . S
O967 C979 1.266 1_545 S
O968 Gd934 2.353 . S
O968 C979 1.242 . S
O969 Gd934 2.468 . S
O969 C987 1.263 . S
O970 Gd934 2.427 . S
O970 C987 1.252 . S
O971 Gd935 2.307 . S
O971 C980 1.261 . S
O972 Gd934 2.388 . S
O972 C980 1.252 1_565 S
O973 Gd934 2.386 . S
O973 C991 1.265 . S
O974 Gd935 2.353 1_565 S
O974 C991 1.242 . S
O975 Gd935 2.468 . S
O975 C999 1.263 . S
O976 Gd935 2.427 . S
O976 C999 1.252 . S
O977 Gd934 2.307 . S
O977 C992 1.261 . S
O978 Gd935 2.388 1_565 S
O978 C992 1.252 . S
C979 O967 1.266 1_565 S
C979 O968 1.242 . S
C980 O971 1.261 . S
C980 O972 1.252 1_545 S
C981 C984 1.394 . S
C981 C986 1.370 . S
C981 C987 1.500 . S
C982 C985 1.383 . S
C982 C986 1.395 . S
C983 C984 1.396 . S
C983 C985 1.365 . S
C983 H1000 0.929 . S
C984 C981 1.394 . S
C984 C983 1.396 . S
C984 H1001 0.930 . S
C985 C982 1.383 . S
C985 C983 1.365 . S
C985 H1002 0.931 . S
C986 C981 1.370 . S
C986 C982 1.395 . S
C986 H1003 0.930 . S
C987 Gd934 2.805 . S
C987 O969 1.263 . S
C987 O970 1.252 . S
C987 C981 1.500 . S
C988 H950 0.930 . S
C988 C964 1.417 . S
C988 C989 1.329 . S
C989 C959 1.437 . S
C989 H960 0.929 . S
C989 C988 1.329 . S
H990 C963 0.931 . S
C991 O973 1.265 . S
C991 O974 1.242 . S
C992 O977 1.261 . S
C992 O978 1.252 . S
C993 C996 1.394 . S
C993 C998 1.370 . S
C993 C999 1.500 . S
C994 C997 1.383 . S
C994 C998 1.395 . S
C995 C996 1.396 . S
C995 C997 1.365 . S
C995 H1004 0.929 . S
C996 C993 1.394 . S
C996 C995 1.396 . S
C996 H1005 0.930 . S
C997 C994 1.383 . S
C997 C995 1.365 . S
C997 H1006 0.931 . S
C998 C993 1.370 . S
C998 C994 1.395 . S
C998 H1007 0.930 . S
C999 Gd935 2.805 . S
C999 O975 1.263 . S
C999 O976 1.252 . S
C999 C993 1.500 . S
H1000 C983 0.929 . S
H1001 C984 0.930 . S
H1002 C985 0.931 . S
H1003 C986 0.930 . S
H1004 C995 0.929 . S
H1005 C996 0.930 . S
H1006 C997 0.931 . S
H1007 C998 0.930 . S
C1008 C1010 1.422 . S
C1008 C1012 1.415 . S
C1008 N1014 1.369 . S
C1009 C1010 1.421 . S
C1009 C1011 1.417 . S
C1009 C1021 1.422 . S
C1010 C1008 1.422 . S
C1010 C1009 1.421 . S
C1010 N1020 1.359 . S
C1011 C1009 1.417 . S
C1011 C1013 1.329 . S
C1011 H1030 0.930 . S
C1012 C1008 1.415 . S
C1012 C1013 1.437 . S
C1012 C1016 1.413 . S
C1013 C1011 1.329 . S
C1013 C1012 1.437 . S
C1013 H1035 0.929 . S
N1014 C1008 1.369 . S
N1014 C1015 1.338 . S
N1014 Gd1019 2.622 . S
C1015 N1014 1.338 . S
C1015 C1017 1.378 . S
C1015 H1027 0.929 . S
C1016 C1012 1.413 . S
C1016 C1017 1.348 . S
C1016 H1032 0.931 . S
C1017 C1015 1.378 . S
C1017 C1016 1.348 . S
C1017 H1033 0.930 . S
Gd1018 N1038 2.622 . S
Gd1018 N1045 2.570 1_556 S
Gd1018 O1052 2.353 . S
Gd1018 O1053 2.468 . S
Gd1018 O1054 2.427 . S
Gd1018 O1056 2.388 . S
Gd1018 O1057 2.386 1_556 S
Gd1018 O1061 2.307 1_556 S
Gd1018 C1071 2.805 . S
Gd1019 N1014 2.622 . S
Gd1019 N1020 2.570 . S
Gd1019 O1051 2.386 . S
Gd1019 O1055 2.307 . S
Gd1019 O1058 2.353 . S
Gd1019 O1059 2.468 . S
Gd1019 O1060 2.427 . S
Gd1019 O1062 2.388 . S
Gd1019 C1083 2.805 . S
N1020 C1010 1.359 . S
N1020 Gd1019 2.570 . S
N1020 C1022 1.343 . S
C1021 C1009 1.422 . S
C1021 C1023 1.321 . S
C1021 H1029 0.931 . S
C1022 N1020 1.343 . S
C1022 C1023 1.390 . S
C1022 H1024 0.931 . S
C1023 C1021 1.321 . S
C1023 C1022 1.390 . S
C1023 H1025 0.930 . S
H1024 C1022 0.931 . S
H1025 C1023 0.930 . S
H1026 C1049 0.931 . S
H1027 C1015 0.929 . S
H1028 C1050 0.930 . S
H1029 C1021 0.931 . S
H1030 C1011 0.930 . S
H1031 C1040 0.929 . S
H1032 C1016 0.931 . S
H1033 C1017 0.930 . S
H1034 C1072 0.930 . S
H1035 C1013 0.929 . S
H1036 C1041 0.931 . S
H1037 C1042 0.930 . S
N1038 Gd1018 2.622 . S
N1038 C1039 1.369 . S
N1038 C1040 1.338 . S
C1039 N1038 1.369 . S
C1039 C1043 1.415 . S
C1039 C1046 1.422 1_556 S
C1040 H1031 0.929 . S
C1040 N1038 1.338 . S
C1040 C1042 1.378 . S
C1041 H1036 0.931 . S
C1041 C1042 1.348 . S
C1041 C1043 1.413 . S
C1042 H1037 0.930 . S
C1042 C1040 1.378 . S
C1042 C1041 1.348 . S
C1043 C1039 1.415 . S
C1043 C1041 1.413 . S
C1043 C1073 1.437 . S
H1044 C1073 0.929 . S
N1045 Gd1018 2.570 1_554 S
N1045 C1046 1.359 . S
N1045 C1049 1.343 . S
C1046 C1039 1.422 1_554 S
C1046 N1045 1.359 . S
C1046 C1048 1.421 . S
C1047 C1048 1.422 . S
C1047 C1050 1.321 . S
C1047 H1074 0.931 . S
C1048 C1046 1.421 . S
C1048 C1047 1.422 . S
C1048 C1072 1.417 . S
C1049 H1026 0.931 . S
C1049 N1045 1.343 . S
C1049 C1050 1.390 . S
C1050 H1028 0.930 . S
C1050 C1047 1.321 . S
C1050 C1049 1.390 . S
O1051 Gd1019 2.386 . S
O1051 C1063 1.265 1_554 S
O1052 Gd1018 2.353 . S
O1052 C1063 1.242 . S
O1053 Gd1018 2.468 . S
O1053 C1071 1.263 . S
O1054 Gd1018 2.427 . S
O1054 C1071 1.252 . S
O1055 Gd1019 2.307 . S
O1055 C1064 1.261 . S
O1056 Gd1018 2.388 . S
O1056 C1064 1.252 1_556 S
O1057 Gd1018 2.386 1_554 S
O1057 C1075 1.265 . S
O1058 Gd1019 2.353 . S
O1058 C1075 1.242 . S
O1059 Gd1019 2.468 . S
O1059 C1083 1.263 . S
O1060 Gd1019 2.427 . S
O1060 C1083 1.252 . S
O1061 Gd1018 2.307 1_554 S
O1061 C1076 1.261 . S
O1062 Gd1019 2.388 . S
O1062 C1076 1.252 . S
C1063 O1051 1.265 1_556 S
C1063 O1052 1.242 . S
C1064 O1055 1.261 . S
C1064 O1056 1.252 1_554 S
C1065 C1068 1.394 . S
C1065 C1070 1.370 . S
C1065 C1071 1.500 . S
C1066 C1069 1.383 . S
C1066 C1070 1.395 . S
C1067 C1068 1.396 . S
C1067 C1069 1.365 . S
C1067 H1084 0.929 . S
C1068 C1065 1.394 . S
C1068 C1067 1.396 . S
C1068 H1085 0.930 . S
C1069 C1066 1.383 . S
C1069 C1067 1.365 . S
C1069 H1086 0.931 . S
C1070 C1065 1.370 . S
C1070 C1066 1.395 . S
C1070 H1087 0.930 . S
C1071 Gd1018 2.805 . S
C1071 O1053 1.263 . S
C1071 O1054 1.252 . S
C1071 C1065 1.500 . S
C1072 H1034 0.930 . S
C1072 C1048 1.417 . S
C1072 C1073 1.329 1_554 S
C1073 C1043 1.437 . S
C1073 H1044 0.929 . S
C1073 C1072 1.329 1_556 S
H1074 C1047 0.931 . S
C1075 O1057 1.265 . S
C1075 O1058 1.242 . S
C1076 O1061 1.261 . S
C1076 O1062 1.252 . S
C1077 C1080 1.394 . S
C1077 C1082 1.370 . S
C1077 C1083 1.500 . S
C1078 C1081 1.383 . S
C1078 C1082 1.395 . S
C1079 C1080 1.396 . S
C1079 C1081 1.365 . S
C1079 H1088 0.929 . S
C1080 C1077 1.394 . S
C1080 C1079 1.396 . S
C1080 H1089 0.930 . S
C1081 C1078 1.383 . S
C1081 C1079 1.365 . S
C1081 H1090 0.931 . S
C1082 C1077 1.370 . S
C1082 C1078 1.395 . S
C1082 H1091 0.930 . S
C1083 Gd1019 2.805 . S
C1083 O1059 1.263 . S
C1083 O1060 1.252 . S
C1083 C1077 1.500 . S
H1084 C1067 0.929 . S
H1085 C1068 0.930 . S
H1086 C1069 0.931 . S
H1087 C1070 0.930 . S
H1088 C1079 0.929 . S
H1089 C1080 0.930 . S
H1090 C1081 0.931 . S
H1091 C1082 0.930 . S
C1092 C1094 1.422 . S
C1092 C1096 1.415 . S
C1092 N1098 1.369 . S
C1093 C1094 1.421 . S
C1093 C1095 1.417 . S
C1093 C1105 1.422 . S
C1094 C1092 1.422 . S
C1094 C1093 1.421 . S
C1094 N1104 1.359 . S
C1095 C1093 1.417 . S
C1095 C1097 1.329 . S
C1095 H1114 0.930 . S
C1096 C1092 1.415 . S
C1096 C1097 1.437 . S
C1096 C1100 1.413 . S
C1097 C1095 1.329 . S
C1097 C1096 1.437 . S
C1097 H1119 0.929 . S
N1098 C1092 1.369 . S
N1098 C1099 1.369 . S
N1098 Gd1103 2.622 . S
C1099 N1098 1.369 . S
C1099 C1101 1.389 . S
C1099 H1111 0.887 1_455 S
C1100 C1096 1.413 . S
C1100 C1101 1.348 . S
C1100 H1116 0.931 . S
C1101 C1099 1.389 . S
C1101 C1100 1.348 . S
C1101 H1117 0.930 1_455 S
Gd1102 N1122 2.622 . S
Gd1102 N1129 2.570 . S
Gd1102 O1136 2.353 . S
Gd1102 O1137 2.468 . S
Gd1102 O1138 2.427 . S
Gd1102 O1140 2.388 . S
Gd1102 O1141 2.386 . S
Gd1102 O1145 2.307 . S
Gd1102 C1155 2.805 . S
Gd1103 N1098 2.622 . S
Gd1103 N1104 2.570 . S
Gd1103 O1135 2.389 . S
Gd1103 O1139 2.307 . S
Gd1103 O1142 2.353 1_455 S
Gd1103 O1143 2.468 . S
Gd1103 O1144 2.427 . S
Gd1103 O1146 2.388 1_455 S
Gd1103 C1167 2.805 . S
N1104 C1094 1.359 . S
N1104 Gd1103 2.570 . S
N1104 C1106 1.343 . S
C1105 C1093 1.422 . S
C1105 C1107 1.321 . S
C1105 H1113 0.931 . S
C1106 N1104 1.343 . S
C1106 C1107 1.390 . S
C1106 H1108 0.931 . S
C1107 C1105 1.321 . S
C1107 C1106 1.390 . S
C1107 H1109 0.930 . S
H1108 C1106 0.931 . S
H1109 C1107 0.930 . S
H1110 C1133 0.931 . S
H1111 C1099 0.887 1_655 S
H1112 C1134 0.930 . S
H1113 C1105 0.931 . S
H1114 C1095 0.930 . S
H1115 C1124 0.929 . S
H1116 C1100 0.931 . S
H1117 C1101 0.930 1_655 S
H1118 C1156 0.930 . S
H1119 C1097 0.929 . S
H1120 C1125 0.931 . S
H1121 C1126 0.930 . S
N1122 Gd1102 2.622 . S
N1122 C1123 1.369 . S
N1122 C1124 1.338 . S
C1123 N1122 1.369 . S
C1123 C1127 1.415 . S
C1123 C1130 1.422 . S
C1124 H1115 0.929 . S
C1124 N1122 1.338 . S
C1124 C1126 1.378 . S
C1125 H1120 0.931 . S
C1125 C1126 1.348 . S
C1125 C1127 1.413 . S
C1126 H1121 0.930 . S
C1126 C1124 1.378 . S
C1126 C1125 1.348 . S
C1127 C1123 1.415 . S
C1127 C1125 1.413 . S
C1127 C1157 1.437 . S
H1128 C1157 0.929 . S
N1129 Gd1102 2.570 . S
N1129 C1130 1.359 . S
N1129 C1133 1.343 . S
C1130 C1123 1.422 . S
C1130 N1129 1.359 . S
C1130 C1132 1.421 . S
C1131 C1132 1.422 . S
C1131 C1134 1.321 . S
C1131 H1158 0.931 . S
C1132 C1130 1.421 . S
C1132 C1131 1.422 . S
C1132 C1156 1.417 . S
C1133 H1110 0.931 . S
C1133 N1129 1.343 . S
C1133 C1134 1.390 . S
C1134 H1112 0.930 . S
C1134 C1131 1.321 . S
C1134 C1133 1.390 . S
O1135 Gd1103 2.389 . S
O1135 C1147 1.253 1_455 S
O1136 Gd1102 2.353 . S
O1136 C1147 1.242 . S
O1137 Gd1102 2.468 . S
O1137 C1155 1.263 . S
O1138 Gd1102 2.427 . S
O1138 C1155 1.252 . S
O1139 Gd1103 2.307 . S
O1139 C1148 1.261 . S
O1140 Gd1102 2.388 . S
O1140 C1148 1.252 1_655 S
O1141 Gd1102 2.386 . S
O1141 C1159 1.265 . S
O1142 Gd1103 2.353 1_655 S
O1142 C1159 1.242 . S
O1143 Gd1103 2.468 . S
O1143 C1167 1.263 . S
O1144 Gd1103 2.427 . S
O1144 C1167 1.252 . S
O1145 Gd1102 2.307 . S
O1145 C1160 1.261 . S
O1146 Gd1103 2.388 1_655 S
O1146 C1160 1.252 . S
C1147 O1135 1.253 1_655 S
C1147 O1136 1.242 . S
C1148 O1139 1.261 . S
C1148 O1140 1.252 1_455 S
C1149 C1152 1.394 . S
C1149 C1154 1.370 . S
C1149 C1155 1.500 . S
C1150 C1153 1.383 . S
C1150 C1154 1.395 . S
C1151 C1152 1.396 . S
C1151 C1153 1.365 . S
C1151 H1168 0.929 . S
C1152 C1149 1.394 . S
C1152 C1151 1.396 . S
C1152 H1169 0.930 . S
C1153 C1150 1.383 . S
C1153 C1151 1.365 . S
C1153 H1170 0.931 . S
C1154 C1149 1.370 . S
C1154 C1150 1.395 . S
C1154 H1171 0.930 . S
C1155 Gd1102 2.805 . S
C1155 O1137 1.263 . S
C1155 O1138 1.252 . S
C1155 C1149 1.500 . S
C1156 H1118 0.930 . S
C1156 C1132 1.417 . S
C1156 C1157 1.329 . S
C1157 C1127 1.437 . S
C1157 H1128 0.929 . S
C1157 C1156 1.329 . S
H1158 C1131 0.931 . S
C1159 O1141 1.265 . S
C1159 O1142 1.242 . S
C1160 O1145 1.261 . S
C1160 O1146 1.252 . S
C1161 C1164 1.394 . S
C1161 C1166 1.370 . S
C1161 C1167 1.500 . S
C1162 C1165 1.383 . S
C1162 C1166 1.395 . S
C1163 C1164 1.396 . S
C1163 C1165 1.365 . S
C1163 H1172 0.929 . S
C1164 C1161 1.394 . S
C1164 C1163 1.396 . S
C1164 H1173 0.930 . S
C1165 C1162 1.383 . S
C1165 C1163 1.365 . S
C1165 H1174 0.931 . S
C1166 C1161 1.370 . S
C1166 C1162 1.395 . S
C1166 H1175 0.930 . S
C1167 Gd1103 2.805 . S
C1167 O1143 1.263 . S
C1167 O1144 1.252 . S
C1167 C1161 1.500 . S
H1168 C1151 0.929 . S
H1169 C1152 0.930 . S
H1170 C1153 0.931 . S
H1171 C1154 0.930 . S
H1172 C1163 0.929 . S
H1173 C1164 0.930 . S
H1174 C1165 0.931 . S
H1175 C1166 0.930 . S
C1176 C1178 1.422 . S
C1176 C1180 1.415 . S
C1176 N1182 1.369 . S
C1177 C1178 1.421 . S
C1177 C1179 1.417 . S
C1177 C1189 1.422 . S
C1178 C1176 1.422 . S
C1178 C1177 1.421 . S
C1178 N1188 1.359 . S
C1179 C1177 1.417 . S
C1179 C1181 1.329 . S
C1179 H1198 0.930 . S
C1180 C1176 1.415 . S
C1180 C1181 1.437 . S
C1180 C1184 1.413 . S
C1181 C1179 1.329 . S
C1181 C1180 1.437 . S
C1181 H1203 0.929 . S
N1182 C1176 1.369 . S
N1182 C1183 1.338 . S
N1182 Gd1187 2.622 . S
C1183 N1182 1.338 . S
C1183 C1185 1.378 . S
C1183 H1195 0.929 . S
C1184 C1180 1.413 . S
C1184 C1185 1.348 . S
C1184 H1200 0.931 . S
C1185 C1183 1.378 . S
C1185 C1184 1.348 . S
C1185 H1201 0.930 . S
Gd1186 N1206 2.622 . S
Gd1186 N1213 2.570 . S
Gd1186 O1220 2.353 . S
Gd1186 O1221 2.468 . S
Gd1186 O1222 2.427 . S
Gd1186 O1224 2.388 . S
Gd1186 O1225 2.386 . S
Gd1186 O1229 2.307 . S
Gd1186 C1239 2.805 . S
Gd1187 N1182 2.622 . S
Gd1187 N1188 2.570 . S
Gd1187 O1219 2.386 . S
Gd1187 O1223 2.307 . S
Gd1187 O1226 2.353 . S
Gd1187 O1227 2.468 . S
Gd1187 O1228 2.427 . S
Gd1187 O1230 2.388 . S
Gd1187 C1251 2.805 . S
N1188 C1178 1.359 . S
N1188 Gd1187 2.570 . S
N1188 C1190 1.343 . S
C1189 C1177 1.422 . S
C1189 C1191 1.321 . S
C1189 H1197 0.931 . S
C1190 N1188 1.343 . S
C1190 C1191 1.390 . S
C1190 H1192 0.931 . S
C1191 C1189 1.321 . S
C1191 C1190 1.390 . S
C1191 H1193 0.930 . S
H1192 C1190 0.931 . S
H1193 C1191 0.930 . S
H1194 C1217 0.931 . S
H1195 C1183 0.929 . S
H1196 C1218 0.930 . S
H1197 C1189 0.931 . S
H1198 C1179 0.930 . S
H1199 C1208 0.929 . S
H1200 C1184 0.931 . S
H1201 C1185 0.930 . S
H1202 C1240 0.930 . S
H1203 C1181 0.929 . S
H1204 C1209 0.931 . S
H1205 C1210 0.930 . S
N1206 Gd1186 2.622 . S
N1206 C1207 1.369 . S
N1206 C1208 1.338 . S
C1207 N1206 1.369 . S
C1207 C1211 1.415 . S
C1207 C1214 1.422 . S
C1208 H1199 0.929 . S
C1208 N1206 1.338 . S
C1208 C1210 1.378 . S
C1209 H1204 0.931 . S
C1209 C1210 1.348 . S
C1209 C1211 1.413 . S
C1210 H1205 0.930 . S
C1210 C1208 1.378 . S
C1210 C1209 1.348 . S
C1211 C1207 1.415 . S
C1211 C1209 1.413 . S
C1211 C1241 1.437 . S
H1212 C1241 0.929 . S
N1213 Gd1186 2.570 . S
N1213 C1214 1.359 . S
N1213 C1217 1.343 . S
C1214 C1207 1.422 . S
C1214 N1213 1.359 . S
C1214 C1216 1.421 . S
C1215 C1216 1.422 . S
C1215 C1218 1.321 . S
C1215 H1242 0.931 . S
C1216 C1214 1.421 . S
C1216 C1215 1.422 . S
C1216 C1240 1.417 . S
C1217 H1194 0.931 . S
C1217 N1213 1.343 . S
C1217 C1218 1.390 . S
C1218 H1196 0.930 . S
C1218 C1215 1.321 . S
C1218 C1217 1.390 . S
O1219 Gd1187 2.386 . S
O1219 C1231 1.265 . S
O1220 Gd1186 2.353 . S
O1220 C1231 1.242 . S
O1221 Gd1186 2.468 . S
O1221 C1239 1.263 . S
O1222 Gd1186 2.427 . S
O1222 C1239 1.252 . S
O1223 Gd1187 2.307 . S
O1223 C1232 1.261 . S
O1224 Gd1186 2.388 . S
O1224 C1232 1.252 . S
O1225 Gd1186 2.386 . S
O1225 C1243 1.265 . S
O1226 Gd1187 2.353 . S
O1226 C1243 1.242 . S
O1227 Gd1187 2.468 . S
O1227 C1251 1.263 . S
O1228 Gd1187 2.427 . S
O1228 C1251 1.252 . S
O1229 Gd1186 2.307 . S
O1229 C1244 1.261 . S
O1230 Gd1187 2.388 . S
O1230 C1244 1.252 . S
C1231 O1219 1.265 . S
C1231 O1220 1.242 . S
C1232 O1223 1.261 . S
C1232 O1224 1.252 . S
C1233 C1236 1.394 . S
C1233 C1238 1.370 . S
C1233 C1239 1.500 . S
C1234 C1237 1.383 . S
C1234 C1238 1.395 . S
C1235 C1236 1.396 . S
C1235 C1237 1.365 . S
C1235 H1252 0.929 . S
C1236 C1233 1.394 . S
C1236 C1235 1.396 . S
C1236 H1253 0.930 . S
C1237 C1234 1.383 . S
C1237 C1235 1.365 . S
C1237 H1254 0.931 . S
C1238 C1233 1.370 . S
C1238 C1234 1.395 . S
C1238 H1255 0.930 . S
C1239 Gd1186 2.805 . S
C1239 O1221 1.263 . S
C1239 O1222 1.252 . S
C1239 C1233 1.500 . S
C1240 H1202 0.930 . S
C1240 C1216 1.417 . S
C1240 C1241 1.329 . S
C1241 C1211 1.437 . S
C1241 H1212 0.929 . S
C1241 C1240 1.329 . S
H1242 C1215 0.931 . S
C1243 O1225 1.265 . S
C1243 O1226 1.242 . S
C1244 O1229 1.261 . S
C1244 O1230 1.252 . S
C1245 C1248 1.394 . S
C1245 C1250 1.370 . S
C1245 C1251 1.500 . S
C1246 C1249 1.383 . S
C1246 C1250 1.395 . S
C1247 C1248 1.396 . S
C1247 C1249 1.365 . S
C1247 H1256 0.929 . S
C1248 C1245 1.394 . S
C1248 C1247 1.396 . S
C1248 H1257 0.930 . S
C1249 C1246 1.383 . S
C1249 C1247 1.365 . S
C1249 H1258 0.931 . S
C1250 C1245 1.370 . S
C1250 C1246 1.395 . S
C1250 H1259 0.930 . S
C1251 Gd1187 2.805 . S
C1251 O1227 1.263 . S
C1251 O1228 1.252 . S
C1251 C1245 1.500 . S
H1252 C1235 0.929 . S
H1253 C1236 0.930 . S
H1254 C1237 0.931 . S
H1255 C1238 0.930 . S
H1256 C1247 0.929 . S
H1257 C1248 0.930 . S
H1258 C1249 0.931 . S
H1259 C1250 0.930 . S
C1260 C1262 1.422 . S
C1260 C1264 1.415 . S
C1260 N1266 1.369 . S
C1261 C1262 1.421 . S
C1261 C1263 1.417 . S
C1261 C1273 1.422 . S
C1262 C1260 1.422 . S
C1262 C1261 1.421 . S
C1262 N1272 1.359 . S
C1263 C1261 1.417 . S
C1263 C1265 1.329 . S
C1263 H1282 0.930 . S
C1264 C1260 1.415 . S
C1264 C1265 1.437 . S
C1264 C1268 1.413 . S
C1265 C1263 1.329 . S
C1265 C1264 1.437 . S
C1265 H1287 0.929 . S
N1266 C1260 1.369 . S
N1266 C1267 1.338 . S
N1266 Gd1271 2.622 . S
C1267 N1266 1.338 . S
C1267 C1269 1.378 . S
C1267 H1279 0.929 . S
C1268 C1264 1.413 . S
C1268 C1269 1.348 . S
C1268 H1284 0.931 . S
C1269 C1267 1.378 . S
C1269 C1268 1.348 . S
C1269 H1285 0.930 . S
Gd1270 N1290 2.622 . S
Gd1270 N1297 2.570 . S
Gd1270 O1304 2.353 1_455 S
Gd1270 O1305 2.468 . S
Gd1270 O1306 2.427 . S
Gd1270 O1308 2.388 1_455 S
Gd1270 O1309 2.386 1_455 S
Gd1270 O1313 2.307 . S
Gd1270 C1323 2.805 . S
Gd1271 N1266 2.622 . S
Gd1271 N1272 2.570 . S
Gd1271 O1303 2.386 . S
Gd1271 O1307 2.307 . S
Gd1271 O1310 2.353 . S
Gd1271 O1311 2.468 . S
Gd1271 O1312 2.427 . S
Gd1271 O1314 2.388 . S
Gd1271 C1335 2.805 . S
N1272 C1262 1.359 . S
N1272 Gd1271 2.570 . S
N1272 C1274 1.343 . S
C1273 C1261 1.422 . S
C1273 C1275 1.321 . S
C1273 H1281 0.931 . S
C1274 N1272 1.343 . S
C1274 C1275 1.390 . S
C1274 H1276 0.931 . S
C1275 C1273 1.321 . S
C1275 C1274 1.390 . S
C1275 H1277 0.930 . S
H1276 C1274 0.931 . S
H1277 C1275 0.930 . S
H1278 C1301 0.931 . S
H1279 C1267 0.929 . S
H1280 C1302 0.930 . S
H1281 C1273 0.931 . S
H1282 C1263 0.930 . S
H1283 C1292 0.976 . S
H1284 C1268 0.931 . S
H1285 C1269 0.930 . S
H1286 C1324 0.930 . S
H1287 C1265 0.929 . S
H1288 C1293 0.931 . S
H1289 C1294 0.930 1_655 S
N1290 Gd1270 2.622 . S
N1290 C1291 1.369 . S
N1290 C1292 1.305 1_455 S
C1291 N1290 1.369 . S
C1291 C1295 1.415 . S
C1291 C1298 1.422 . S
C1292 H1283 0.976 . S
C1292 N1290 1.305 1_655 S
C1292 C1294 1.368 1_655 S
C1293 H1288 0.931 . S
C1293 C1294 1.348 . S
C1293 C1295 1.413 . S
C1294 H1289 0.930 1_455 S
C1294 C1292 1.368 1_455 S
C1294 C1293 1.348 . S
C1295 C1291 1.415 . S
C1295 C1293 1.413 . S
C1295 C1325 1.437 . S
H1296 C1325 0.929 . S
N1297 Gd1270 2.570 . S
N1297 C1298 1.359 . S
N1297 C1301 1.343 . S
C1298 C1291 1.422 . S
C1298 N1297 1.359 . S
C1298 C1300 1.421 . S
C1299 C1300 1.422 . S
C1299 C1302 1.321 . S
C1299 H1326 0.931 . S
C1300 C1298 1.421 . S
C1300 C1299 1.422 . S
C1300 C1324 1.417 . S
C1301 H1278 0.931 . S
C1301 N1297 1.343 . S
C1301 C1302 1.390 . S
C1302 H1280 0.930 . S
C1302 C1299 1.321 . S
C1302 C1301 1.390 . S
O1303 Gd1271 2.386 . S
O1303 C1315 1.265 . S
O1304 Gd1270 2.353 1_655 S
O1304 C1315 1.242 . S
O1305 Gd1270 2.468 . S
O1305 C1323 1.263 . S
O1306 Gd1270 2.427 . S
O1306 C1323 1.252 . S
O1307 Gd1271 2.307 . S
O1307 C1316 1.261 . S
O1308 Gd1270 2.388 1_655 S
O1308 C1316 1.252 . S
O1309 Gd1270 2.386 1_655 S
O1309 C1327 1.265 . S
O1310 Gd1271 2.353 . S
O1310 C1327 1.242 . S
O1311 Gd1271 2.468 . S
O1311 C1335 1.263 . S
O1312 Gd1271 2.427 . S
O1312 C1335 1.252 . S
O1313 Gd1270 2.307 . S
O1313 C1328 1.261 . S
O1314 Gd1271 2.388 . S
O1314 C1328 1.252 1_655 S
C1315 O1303 1.265 . S
C1315 O1304 1.242 . S
C1316 O1307 1.261 . S
C1316 O1308 1.252 . S
C1317 C1320 1.394 . S
C1317 C1322 1.370 . S
C1317 C1323 1.500 . S
C1318 C1321 1.383 . S
C1318 C1322 1.395 . S
C1319 C1320 1.396 . S
C1319 C1321 1.365 . S
C1319 H1336 0.929 . S
C1320 C1317 1.394 . S
C1320 C1319 1.396 . S
C1320 H1337 0.930 . S
C1321 C1318 1.383 . S
C1321 C1319 1.365 . S
C1321 H1338 0.931 . S
C1322 C1317 1.370 . S
C1322 C1318 1.395 . S
C1322 H1339 0.930 . S
C1323 Gd1270 2.805 . S
C1323 O1305 1.263 . S
C1323 O1306 1.252 . S
C1323 C1317 1.500 . S
C1324 H1286 0.930 . S
C1324 C1300 1.417 . S
C1324 C1325 1.329 . S
C1325 C1295 1.437 . S
C1325 H1296 0.929 . S
C1325 C1324 1.329 . S
H1326 C1299 0.931 . S
C1327 O1309 1.265 . S
C1327 O1310 1.242 . S
C1328 O1313 1.261 . S
C1328 O1314 1.252 1_455 S
C1329 C1332 1.394 . S
C1329 C1334 1.370 . S
C1329 C1335 1.500 . S
C1330 C1333 1.383 . S
C1330 C1334 1.395 . S
C1331 C1332 1.396 . S
C1331 C1333 1.365 . S
C1331 H1340 0.929 . S
C1332 C1329 1.394 . S
C1332 C1331 1.396 . S
C1332 H1341 0.930 . S
C1333 C1330 1.383 . S
C1333 C1331 1.365 . S
C1333 H1342 0.931 . S
C1334 C1329 1.370 . S
C1334 C1330 1.395 . S
C1334 H1343 0.930 . S
C1335 Gd1271 2.805 . S
C1335 O1311 1.263 . S
C1335 O1312 1.252 . S
C1335 C1329 1.500 . S
H1336 C1319 0.929 . S
H1337 C1320 0.930 . S
H1338 C1321 0.931 . S
H1339 C1322 0.930 . S
H1340 C1331 0.929 . S
H1341 C1332 0.930 . S
H1342 C1333 0.931 . S
H1343 C1334 0.930 . S
C1344 C1346 1.422 . S
C1344 C1348 1.415 . S
C1344 N1350 1.369 . S
C1345 C1346 1.421 . S
C1345 C1347 1.417 . S
C1345 C1357 1.422 . S
C1346 C1344 1.422 . S
C1346 C1345 1.421 . S
C1346 N1356 1.359 . S
C1347 C1345 1.417 . S
C1347 C1349 1.329 . S
C1347 H1366 0.930 . S
C1348 C1344 1.415 . S
C1348 C1349 1.437 . S
C1348 C1352 1.413 . S
C1349 C1347 1.329 . S
C1349 C1348 1.437 . S
C1349 H1371 0.929 . S
N1350 C1344 1.369 . S
N1350 C1351 1.338 . S
N1350 Gd1355 2.622 . S
C1351 N1350 1.338 . S
C1351 C1353 1.378 . S
C1351 H1363 0.929 . S
C1352 C1348 1.413 . S
C1352 C1353 1.348 . S
C1352 H1368 0.931 . S
C1353 C1351 1.378 . S
C1353 C1352 1.348 . S
C1353 H1369 0.930 . S
Gd1354 N1374 2.622 . S
Gd1354 N1381 2.570 . S
Gd1354 O1388 2.353 . S
Gd1354 O1389 2.468 . S
Gd1354 O1390 2.427 . S
Gd1354 O1392 2.388 . S
Gd1354 O1393 2.386 . S
Gd1354 O1397 2.307 . S
Gd1354 C1407 2.805 . S
Gd1355 N1350 2.622 . S
Gd1355 N1356 2.570 . S
Gd1355 O1387 2.386 . S
Gd1355 O1391 2.307 . S
Gd1355 O1394 2.353 . S
Gd1355 O1395 2.468 . S
Gd1355 O1396 2.427 . S
Gd1355 O1398 2.388 . S
Gd1355 C1419 2.805 . S
N1356 C1346 1.359 . S
N1356 Gd1355 2.570 . S
N1356 C1358 1.343 . S
C1357 C1345 1.422 . S
C1357 C1359 1.321 . S
C1357 H1365 0.931 . S
C1358 N1356 1.343 . S
C1358 C1359 1.390 . S
C1358 H1360 0.931 . S
C1359 C1357 1.321 . S
C1359 C1358 1.390 . S
C1359 H1361 0.930 . S
H1360 C1358 0.931 . S
H1361 C1359 0.930 . S
H1362 C1385 0.931 . S
H1363 C1351 0.929 . S
H1364 C1386 0.930 . S
H1365 C1357 0.931 . S
H1366 C1347 0.930 . S
H1367 C1376 0.929 . S
H1368 C1352 0.931 . S
H1369 C1353 0.930 . S
H1370 C1408 0.930 . S
H1371 C1349 0.929 . S
H1372 C1377 0.931 . S
H1373 C1378 0.930 . S
N1374 Gd1354 2.622 . S
N1374 C1375 1.369 . S
N1374 C1376 1.338 . S
C1375 N1374 1.369 . S
C1375 C1379 1.415 . S
C1375 C1382 1.422 . S
C1376 H1367 0.929 . S
C1376 N1374 1.338 . S
C1376 C1378 1.378 . S
C1377 H1372 0.931 . S
C1377 C1378 1.348 . S
C1377 C1379 1.413 . S
C1378 H1373 0.930 . S
C1378 C1376 1.378 . S
C1378 C1377 1.348 . S
C1379 C1375 1.415 . S
C1379 C1377 1.413 . S
C1379 C1409 1.437 . S
H1380 C1409 0.929 . S
N1381 Gd1354 2.570 . S
N1381 C1382 1.359 . S
N1381 C1385 1.343 . S
C1382 C1375 1.422 . S
C1382 N1381 1.359 . S
C1382 C1384 1.421 . S
C1383 C1384 1.422 . S
C1383 C1386 1.321 . S
C1383 H1410 0.931 . S
C1384 C1382 1.421 . S
C1384 C1383 1.422 . S
C1384 C1408 1.417 . S
C1385 H1362 0.931 . S
C1385 N1381 1.343 . S
C1385 C1386 1.390 . S
C1386 H1364 0.930 . S
C1386 C1383 1.321 . S
C1386 C1385 1.390 . S
O1387 Gd1355 2.386 . S
O1387 C1399 1.265 . S
O1388 Gd1354 2.353 . S
O1388 C1399 1.242 . S
O1389 Gd1354 2.468 . S
O1389 C1407 1.263 . S
O1390 Gd1354 2.427 . S
O1390 C1407 1.252 . S
O1391 Gd1355 2.307 . S
O1391 C1400 1.261 . S
O1392 Gd1354 2.388 . S
O1392 C1400 1.252 . S
O1393 Gd1354 2.386 . S
O1393 C1411 1.265 . S
O1394 Gd1355 2.353 . S
O1394 C1411 1.242 . S
O1395 Gd1355 2.468 . S
O1395 C1419 1.263 . S
O1396 Gd1355 2.427 . S
O1396 C1419 1.252 . S
O1397 Gd1354 2.307 . S
O1397 C1412 1.261 . S
O1398 Gd1355 2.388 . S
O1398 C1412 1.252 . S
C1399 O1387 1.265 . S
C1399 O1388 1.242 . S
C1400 O1391 1.261 . S
C1400 O1392 1.252 . S
C1401 C1404 1.394 . S
C1401 C1406 1.370 . S
C1401 C1407 1.500 . S
C1402 C1405 1.383 . S
C1402 C1406 1.395 . S
C1403 C1404 1.396 . S
C1403 C1405 1.365 . S
C1403 H1420 0.929 . S
C1404 C1401 1.394 . S
C1404 C1403 1.396 . S
C1404 H1421 0.930 . S
C1405 C1402 1.383 . S
C1405 C1403 1.365 . S
C1405 H1422 0.931 . S
C1406 C1401 1.370 . S
C1406 C1402 1.395 . S
C1406 H1423 0.930 . S
C1407 Gd1354 2.805 . S
C1407 O1389 1.263 . S
C1407 O1390 1.252 . S
C1407 C1401 1.500 . S
C1408 H1370 0.930 . S
C1408 C1384 1.417 . S
C1408 C1409 1.329 . S
C1409 C1379 1.437 . S
C1409 H1380 0.929 . S
C1409 C1408 1.329 . S
H1410 C1383 0.931 . S
C1411 O1393 1.265 . S
C1411 O1394 1.242 . S
C1412 O1397 1.261 . S
C1412 O1398 1.252 . S
C1413 C1416 1.394 . S
C1413 C1418 1.370 . S
C1413 C1419 1.500 . S
C1414 C1417 1.383 . S
C1414 C1418 1.395 . S
C1415 C1416 1.396 . S
C1415 C1417 1.365 . S
C1415 H1424 0.929 . S
C1416 C1413 1.394 . S
C1416 C1415 1.396 . S
C1416 H1425 0.930 . S
C1417 C1414 1.383 . S
C1417 C1415 1.365 . S
C1417 H1426 0.931 . S
C1418 C1413 1.370 . S
C1418 C1414 1.395 . S
C1418 H1427 0.930 . S
C1419 Gd1355 2.805 . S
C1419 O1395 1.263 . S
C1419 O1396 1.252 . S
C1419 C1413 1.500 . S
H1420 C1403 0.929 . S
H1421 C1404 0.930 . S
H1422 C1405 0.931 . S
H1423 C1406 0.930 . S
H1424 C1415 0.929 . S
H1425 C1416 0.930 . S
H1426 C1417 0.931 . S
H1427 C1418 0.930 . S
C1428 C1430 1.422 . S
C1428 C1432 1.415 . S
C1428 N1434 1.369 . S
C1429 C1430 1.421 . S
C1429 C1431 1.417 . S
C1429 C1441 1.422 . S
C1430 C1428 1.422 . S
C1430 C1429 1.421 . S
C1430 N1440 1.359 . S
C1431 C1429 1.417 . S
C1431 C1433 1.329 . S
C1431 H1450 0.930 . S
C1432 C1428 1.415 . S
C1432 C1433 1.437 . S
C1432 C1436 1.413 . S
C1433 C1431 1.329 . S
C1433 C1432 1.437 . S
C1433 H1455 0.929 . S
N1434 C1428 1.369 . S
N1434 C1435 1.338 . S
N1434 Gd1439 2.622 . S
C1435 N1434 1.338 . S
C1435 C1437 1.378 . S
C1435 H1447 0.929 . S
C1436 C1432 1.413 . S
C1436 C1437 1.348 . S
C1436 H1452 0.931 . S
C1437 C1435 1.378 . S
C1437 C1436 1.348 . S
C1437 H1453 0.930 . S
Gd1438 N1458 2.622 . S
Gd1438 N1465 2.570 . S
Gd1438 O1472 2.353 . S
Gd1438 O1473 2.468 . S
Gd1438 O1474 2.427 . S
Gd1438 O1476 2.388 . S
Gd1438 O1477 2.386 . S
Gd1438 O1481 2.307 . S
Gd1438 C1491 2.805 . S
Gd1439 N1434 2.622 . S
Gd1439 N1440 2.570 . S
Gd1439 O1471 2.386 . S
Gd1439 O1475 2.307 . S
Gd1439 O1478 2.353 . S
Gd1439 O1479 2.468 . S
Gd1439 O1480 2.427 . S
Gd1439 O1482 2.388 . S
Gd1439 C1503 2.805 . S
N1440 C1430 1.359 . S
N1440 Gd1439 2.570 . S
N1440 C1442 1.343 . S
C1441 C1429 1.422 . S
C1441 C1443 1.321 . S
C1441 H1449 0.931 . S
C1442 N1440 1.343 . S
C1442 C1443 1.390 . S
C1442 H1444 0.931 . S
C1443 C1441 1.321 . S
C1443 C1442 1.390 . S
C1443 H1445 0.930 . S
H1444 C1442 0.931 . S
H1445 C1443 0.930 . S
H1446 C1469 0.931 . S
H1447 C1435 0.929 . S
H1448 C1470 0.930 . S
H1449 C1441 0.931 . S
H1450 C1431 0.930 . S
H1451 C1460 0.929 . S
H1452 C1436 0.931 . S
H1453 C1437 0.930 . S
H1454 C1492 0.930 . S
H1455 C1433 0.929 . S
H1456 C1461 0.931 . S
H1457 C1462 0.930 . S
N1458 Gd1438 2.622 . S
N1458 C1459 1.369 . S
N1458 C1460 1.338 . S
C1459 N1458 1.369 . S
C1459 C1463 1.415 . S
C1459 C1466 1.422 . S
C1460 H1451 0.929 . S
C1460 N1458 1.338 . S
C1460 C1462 1.378 . S
C1461 H1456 0.931 . S
C1461 C1462 1.348 . S
C1461 C1463 1.413 . S
C1462 H1457 0.930 . S
C1462 C1460 1.378 . S
C1462 C1461 1.348 . S
C1463 C1459 1.415 . S
C1463 C1461 1.413 . S
C1463 C1493 1.437 . S
H1464 C1493 0.929 . S
N1465 Gd1438 2.570 . S
N1465 C1466 1.359 . S
N1465 C1469 1.343 . S
C1466 C1459 1.422 . S
C1466 N1465 1.359 . S
C1466 C1468 1.421 . S
C1467 C1468 1.422 . S
C1467 C1470 1.321 . S
C1467 H1494 0.931 . S
C1468 C1466 1.421 . S
C1468 C1467 1.422 . S
C1468 C1492 1.417 . S
C1469 H1446 0.931 . S
C1469 N1465 1.343 . S
C1469 C1470 1.390 . S
C1470 H1448 0.930 . S
C1470 C1467 1.321 . S
C1470 C1469 1.390 . S
O1471 Gd1439 2.386 . S
O1471 C1483 1.265 . S
O1472 Gd1438 2.353 . S
O1472 C1483 1.242 . S
O1473 Gd1438 2.468 . S
O1473 C1491 1.263 . S
O1474 Gd1438 2.427 . S
O1474 C1491 1.252 . S
O1475 Gd1439 2.307 . S
O1475 C1484 1.261 . S
O1476 Gd1438 2.388 . S
O1476 C1484 1.252 . S
O1477 Gd1438 2.386 . S
O1477 C1495 1.265 . S
O1478 Gd1439 2.353 . S
O1478 C1495 1.242 . S
O1479 Gd1439 2.468 . S
O1479 C1503 1.263 . S
O1480 Gd1439 2.427 . S
O1480 C1503 1.252 . S
O1481 Gd1438 2.307 . S
O1481 C1496 1.261 . S
O1482 Gd1439 2.388 . S
O1482 C1496 1.252 . S
C1483 O1471 1.265 . S
C1483 O1472 1.242 . S
C1484 O1475 1.261 . S
C1484 O1476 1.252 . S
C1485 C1488 1.394 . S
C1485 C1490 1.370 . S
C1485 C1491 1.500 . S
C1486 C1489 1.383 . S
C1486 C1490 1.395 . S
C1487 C1488 1.396 . S
C1487 C1489 1.365 . S
C1487 H1504 0.929 . S
C1488 C1485 1.394 . S
C1488 C1487 1.396 . S
C1488 H1505 0.930 . S
C1489 C1486 1.383 . S
C1489 C1487 1.365 . S
C1489 H1506 0.931 . S
C1490 C1485 1.370 . S
C1490 C1486 1.395 . S
C1490 H1507 0.930 . S
C1491 Gd1438 2.805 . S
C1491 O1473 1.263 . S
C1491 O1474 1.252 . S
C1491 C1485 1.500 . S
C1492 H1454 0.930 . S
C1492 C1468 1.417 . S
C1492 C1493 1.329 . S
C1493 C1463 1.437 . S
C1493 H1464 0.929 . S
C1493 C1492 1.329 . S
H1494 C1467 0.931 . S
C1495 O1477 1.265 . S
C1495 O1478 1.242 . S
C1496 O1481 1.261 . S
C1496 O1482 1.252 . S
C1497 C1500 1.394 . S
C1497 C1502 1.370 . S
C1497 C1503 1.500 . S
C1498 C1501 1.383 . S
C1498 C1502 1.395 . S
C1499 C1500 1.396 . S
C1499 C1501 1.365 . S
C1499 H1508 0.929 . S
C1500 C1497 1.394 . S
C1500 C1499 1.396 . S
C1500 H1509 0.930 . S
C1501 C1498 1.383 . S
C1501 C1499 1.365 . S
C1501 H1510 0.931 . S
C1502 C1497 1.370 . S
C1502 C1498 1.395 . S
C1502 H1511 0.930 . S
C1503 Gd1439 2.805 . S
C1503 O1479 1.263 . S
C1503 O1480 1.252 . S
C1503 C1497 1.500 . S
H1504 C1487 0.929 . S
H1505 C1488 0.930 . S
H1506 C1489 0.931 . S
H1507 C1490 0.930 . S
H1508 C1499 0.929 . S
H1509 C1500 0.930 . S
H1510 C1501 0.931 . S
H1511 C1502 0.930 . S
C1512 C1514 1.422 1_554 S
C1512 C1516 1.415 . S
C1512 N1518 1.369 . S
C1513 C1514 1.421 . S
C1513 C1515 1.417 . S
C1513 C1525 1.422 . S
C1514 C1512 1.422 1_556 S
C1514 C1513 1.421 . S
C1514 N1524 1.359 . S
C1515 C1513 1.417 . S
C1515 C1517 1.329 1_556 S
C1515 H1534 0.930 . S
C1516 C1512 1.415 . S
C1516 C1517 1.437 . S
C1516 C1520 1.413 . S
C1517 C1515 1.329 1_554 S
C1517 C1516 1.437 . S
C1517 H1539 0.929 . S
N1518 C1512 1.369 . S
N1518 C1519 1.338 . S
N1518 Gd1523 2.622 . S
C1519 N1518 1.338 . S
C1519 C1521 1.378 . S
C1519 H1531 0.929 . S
C1520 C1516 1.413 . S
C1520 C1521 1.348 . S
C1520 H1536 0.931 . S
C1521 C1519 1.378 . S
C1521 C1520 1.348 . S
C1521 H1537 0.930 . S
Gd1522 N1542 2.622 . S
Gd1522 N1549 2.570 . S
Gd1522 O1556 2.353 . S
Gd1522 O1557 2.468 . S
Gd1522 O1558 2.427 . S
Gd1522 O1560 2.388 . S
Gd1522 O1561 2.386 . S
Gd1522 O1565 2.307 . S
Gd1522 C1575 2.805 . S
Gd1523 N1518 2.622 . S
Gd1523 N1524 2.570 1_554 S
Gd1523 O1555 2.386 1_554 S
Gd1523 O1559 2.307 1_554 S
Gd1523 O1562 2.353 . S
Gd1523 O1563 2.468 . S
Gd1523 O1564 2.427 . S
Gd1523 O1566 2.388 . S
Gd1523 C1587 2.805 . S
N1524 C1514 1.359 . S
N1524 Gd1523 2.570 1_556 S
N1524 C1526 1.343 . S
C1525 C1513 1.422 . S
C1525 C1527 1.321 . S
C1525 H1533 0.931 . S
C1526 N1524 1.343 . S
C1526 C1527 1.390 . S
C1526 H1528 0.931 . S
C1527 C1525 1.321 . S
C1527 C1526 1.390 . S
C1527 H1529 0.930 . S
H1528 C1526 0.931 . S
H1529 C1527 0.930 . S
H1530 C1553 0.931 . S
H1531 C1519 0.929 . S
H1532 C1554 0.930 . S
H1533 C1525 0.931 . S
H1534 C1515 0.930 . S
H1535 C1544 0.929 . S
H1536 C1520 0.931 . S
H1537 C1521 0.930 . S
H1538 C1576 0.930 . S
H1539 C1517 0.929 . S
H1540 C1545 0.931 . S
H1541 C1546 0.930 . S
N1542 Gd1522 2.622 . S
N1542 C1543 1.369 . S
N1542 C1544 1.338 . S
C1543 N1542 1.369 . S
C1543 C1547 1.415 . S
C1543 C1550 1.422 . S
C1544 H1535 0.929 . S
C1544 N1542 1.338 . S
C1544 C1546 1.378 . S
C1545 H1540 0.931 . S
C1545 C1546 1.348 . S
C1545 C1547 1.413 . S
C1546 H1541 0.930 . S
C1546 C1544 1.378 . S
C1546 C1545 1.348 . S
C1547 C1543 1.415 . S
C1547 C1545 1.413 . S
C1547 C1577 1.437 . S
H1548 C1577 0.929 . S
N1549 Gd1522 2.570 . S
N1549 C1550 1.359 . S
N1549 C1553 1.343 . S
C1550 C1543 1.422 . S
C1550 N1549 1.359 . S
C1550 C1552 1.421 . S
C1551 C1552 1.422 . S
C1551 C1554 1.321 . S
C1551 H1578 0.931 . S
C1552 C1550 1.421 . S
C1552 C1551 1.422 . S
C1552 C1576 1.417 . S
C1553 H1530 0.931 . S
C1553 N1549 1.343 . S
C1553 C1554 1.390 . S
C1554 H1532 0.930 . S
C1554 C1551 1.321 . S
C1554 C1553 1.390 . S
O1555 Gd1523 2.386 1_556 S
O1555 C1567 1.265 . S
O1556 Gd1522 2.353 . S
O1556 C1567 1.242 . S
O1557 Gd1522 2.468 . S
O1557 C1575 1.263 . S
O1558 Gd1522 2.427 . S
O1558 C1575 1.252 . S
O1559 Gd1523 2.307 1_556 S
O1559 C1568 1.261 . S
O1560 Gd1522 2.388 . S
O1560 C1568 1.252 . S
O1561 Gd1522 2.386 . S
O1561 C1579 1.265 1_556 S
O1562 Gd1523 2.353 . S
O1562 C1579 1.242 . S
O1563 Gd1523 2.468 . S
O1563 C1587 1.263 . S
O1564 Gd1523 2.427 . S
O1564 C1587 1.252 . S
O1565 Gd1522 2.307 . S
O1565 C1580 1.261 . S
O1566 Gd1523 2.388 . S
O1566 C1580 1.252 1_554 S
C1567 O1555 1.265 . S
C1567 O1556 1.242 . S
C1568 O1559 1.261 . S
C1568 O1560 1.252 . S
C1569 C1572 1.394 . S
C1569 C1574 1.370 . S
C1569 C1575 1.500 . S
C1570 C1573 1.383 . S
C1570 C1574 1.395 . S
C1571 C1572 1.396 . S
C1571 C1573 1.365 . S
C1571 H1588 0.929 . S
C1572 C1569 1.394 . S
C1572 C1571 1.396 . S
C1572 H1589 0.930 . S
C1573 C1570 1.383 . S
C1573 C1571 1.365 . S
C1573 H1590 0.931 . S
C1574 C1569 1.370 . S
C1574 C1570 1.395 . S
C1574 H1591 0.930 . S
C1575 Gd1522 2.805 . S
C1575 O1557 1.263 . S
C1575 O1558 1.252 . S
C1575 C1569 1.500 . S
C1576 H1538 0.930 . S
C1576 C1552 1.417 . S
C1576 C1577 1.329 . S
C1577 C1547 1.437 . S
C1577 H1548 0.929 . S
C1577 C1576 1.329 . S
H1578 C1551 0.931 . S
C1579 O1561 1.265 1_554 S
C1579 O1562 1.242 . S
C1580 O1565 1.261 . S
C1580 O1566 1.252 1_556 S
C1581 C1584 1.394 . S
C1581 C1586 1.370 . S
C1581 C1587 1.500 . S
C1582 C1585 1.383 . S
C1582 C1586 1.395 . S
C1583 C1584 1.396 . S
C1583 C1585 1.365 . S
C1583 H1592 0.929 . S
C1584 C1581 1.394 . S
C1584 C1583 1.396 . S
C1584 H1593 0.930 . S
C1585 C1582 1.383 . S
C1585 C1583 1.365 . S
C1585 H1594 0.931 . S
C1586 C1581 1.370 . S
C1586 C1582 1.395 . S
C1586 H1595 0.930 . S
C1587 Gd1523 2.805 . S
C1587 O1563 1.263 . S
C1587 O1564 1.252 . S
C1587 C1581 1.500 . S
H1588 C1571 0.929 . S
H1589 C1572 0.930 . S
H1590 C1573 0.931 . S
H1591 C1574 0.930 . S
H1592 C1583 0.929 . S
H1593 C1584 0.930 . S
H1594 C1585 0.931 . S
H1595 C1586 0.930 . S
C1596 C1598 1.422 . S
C1596 C1600 1.415 . S
C1596 N1602 1.369 . S
C1597 C1598 1.421 . S
C1597 C1599 1.417 . S
C1597 C1609 1.422 . S
C1598 C1596 1.422 . S
C1598 C1597 1.421 . S
C1598 N1608 1.359 . S
C1599 C1597 1.417 . S
C1599 C1601 1.329 . S
C1599 H1618 0.930 . S
C1600 C1596 1.415 . S
C1600 C1601 1.437 . S
C1600 C1604 1.413 . S
C1601 C1599 1.329 . S
C1601 C1600 1.437 . S
C1601 H1623 0.929 . S
N1602 C1596 1.369 . S
N1602 C1603 1.338 . S
N1602 Gd1607 2.622 . S
C1603 N1602 1.338 . S
C1603 C1605 1.378 . S
C1603 H1615 0.929 . S
C1604 C1600 1.413 . S
C1604 C1605 1.348 . S
C1604 H1620 0.931 . S
C1605 C1603 1.378 . S
C1605 C1604 1.348 . S
C1605 H1621 0.930 . S
Gd1606 N1626 2.622 . S
Gd1606 N1633 2.570 . S
Gd1606 O1640 2.353 1_455 S
Gd1606 O1641 2.468 . S
Gd1606 O1642 2.427 . S
Gd1606 O1644 2.388 1_455 S
Gd1606 O1645 2.385 1_455 S
Gd1606 O1649 2.307 . S
Gd1606 C1659 2.805 . S
Gd1607 N1602 2.622 . S
Gd1607 N1608 2.570 . S
Gd1607 O1639 2.386 . S
Gd1607 O1643 2.307 . S
Gd1607 O1646 2.353 . S
Gd1607 O1647 2.468 . S
Gd1607 O1648 2.427 . S
Gd1607 O1650 2.388 . S
Gd1607 C1671 2.805 . S
N1608 C1598 1.359 . S
N1608 Gd1607 2.570 . S
N1608 C1610 1.343 . S
C1609 C1597 1.422 . S
C1609 C1611 1.321 . S
C1609 H1617 0.931 . S
C1610 N1608 1.343 . S
C1610 C1611 1.390 . S
C1610 H1612 0.931 . S
C1611 C1609 1.321 . S
C1611 C1610 1.390 . S
C1611 H1613 0.930 . S
H1612 C1610 0.931 . S
H1613 C1611 0.930 . S
H1614 C1637 0.931 . S
H1615 C1603 0.929 . S
H1616 C1638 0.930 . S
H1617 C1609 0.931 . S
H1618 C1599 0.930 . S
H1619 C1628 0.927 . S
H1620 C1604 0.931 . S
H1621 C1605 0.930 . S
H1622 C1660 0.930 . S
H1623 C1601 0.929 . S
H1624 C1629 0.931 . S
H1625 C1630 0.930 1_655 S
N1626 Gd1606 2.622 . S
N1626 C1627 1.369 . S
N1626 C1628 1.339 1_455 S
C1627 N1626 1.369 . S
C1627 C1631 1.415 . S
C1627 C1634 1.422 . S
C1628 H1619 0.927 . S
C1628 N1626 1.339 1_655 S
C1628 C1630 1.379 1_655 S
C1629 H1624 0.931 . S
C1629 C1630 1.348 . S
C1629 C1631 1.413 . S
C1630 H1625 0.930 1_455 S
C1630 C1628 1.379 1_455 S
C1630 C1629 1.348 . S
C1631 C1627 1.415 . S
C1631 C1629 1.413 . S
C1631 C1661 1.437 . S
H1632 C1661 0.929 . S
N1633 Gd1606 2.570 . S
N1633 C1634 1.359 . S
N1633 C1637 1.343 . S
C1634 C1627 1.422 . S
C1634 N1633 1.359 . S
C1634 C1636 1.421 . S
C1635 C1636 1.422 . S
C1635 C1638 1.321 . S
C1635 H1662 0.931 . S
C1636 C1634 1.421 . S
C1636 C1635 1.422 . S
C1636 C1660 1.417 . S
C1637 H1614 0.931 . S
C1637 N1633 1.343 . S
C1637 C1638 1.390 . S
C1638 H1616 0.930 . S
C1638 C1635 1.321 . S
C1638 C1637 1.390 . S
O1639 Gd1607 2.386 . S
O1639 C1651 1.265 . S
O1640 Gd1606 2.353 1_655 S
O1640 C1651 1.242 . S
O1641 Gd1606 2.468 . S
O1641 C1659 1.263 . S
O1642 Gd1606 2.427 . S
O1642 C1659 1.252 . S
O1643 Gd1607 2.307 . S
O1643 C1652 1.261 . S
O1644 Gd1606 2.388 1_655 S
O1644 C1652 1.252 . S
O1645 Gd1606 2.385 1_655 S
O1645 C1663 1.268 . S
O1646 Gd1607 2.353 . S
O1646 C1663 1.242 . S
O1647 Gd1607 2.468 . S
O1647 C1671 1.263 . S
O1648 Gd1607 2.427 . S
O1648 C1671 1.252 . S
O1649 Gd1606 2.307 . S
O1649 C1664 1.261 . S
O1650 Gd1607 2.388 . S
O1650 C1664 1.252 1_655 S
C1651 O1639 1.265 . S
C1651 O1640 1.242 . S
C1652 O1643 1.261 . S
C1652 O1644 1.252 . S
C1653 C1656 1.394 . S
C1653 C1658 1.370 . S
C1653 C1659 1.500 . S
C1654 C1657 1.383 . S
C1654 C1658 1.395 . S
C1655 C1656 1.396 . S
C1655 C1657 1.365 . S
C1655 H1672 0.929 . S
C1656 C1653 1.394 . S
C1656 C1655 1.396 . S
C1656 H1673 0.930 . S
C1657 C1654 1.383 . S
C1657 C1655 1.365 . S
C1657 H1674 0.931 . S
C1658 C1653 1.370 . S
C1658 C1654 1.395 . S
C1658 H1675 0.930 . S
C1659 Gd1606 2.805 . S
C1659 O1641 1.263 . S
C1659 O1642 1.252 . S
C1659 C1653 1.500 . S
C1660 H1622 0.930 . S
C1660 C1636 1.417 . S
C1660 C1661 1.329 . S
C1661 C1631 1.437 . S
C1661 H1632 0.929 . S
C1661 C1660 1.329 . S
H1662 C1635 0.931 . S
C1663 O1645 1.268 . S
C1663 O1646 1.242 . S
C1664 O1649 1.261 . S
C1664 O1650 1.252 1_455 S
C1665 C1668 1.394 . S
C1665 C1670 1.370 . S
C1665 C1671 1.500 . S
C1666 C1669 1.383 . S
C1666 C1670 1.395 . S
C1667 C1668 1.396 . S
C1667 C1669 1.365 . S
C1667 H1676 0.929 . S
C1668 C1665 1.394 . S
C1668 C1667 1.396 . S
C1668 H1677 0.930 . S
C1669 C1666 1.383 . S
C1669 C1667 1.365 . S
C1669 H1678 0.931 . S
C1670 C1665 1.370 . S
C1670 C1666 1.395 . S
C1670 H1679 0.930 . S
C1671 Gd1607 2.805 . S
C1671 O1647 1.263 . S
C1671 O1648 1.252 . S
C1671 C1665 1.500 . S
H1672 C1655 0.929 . S
H1673 C1656 0.930 . S
H1674 C1657 0.931 . S
H1675 C1658 0.930 . S
H1676 C1667 0.929 . S
H1677 C1668 0.930 . S
H1678 C1669 0.931 . S
H1679 C1670 0.930 . S
C1680 C1682 1.422 . S
C1680 C1684 1.415 . S
C1680 N1686 1.369 . S
C1681 C1682 1.421 . S
C1681 C1683 1.417 . S
C1681 C1693 1.422 . S
C1682 C1680 1.422 . S
C1682 C1681 1.421 . S
C1682 N1692 1.359 . S
C1683 C1681 1.417 . S
C1683 C1685 1.329 . S
C1683 H1702 0.930 . S
C1684 C1680 1.415 . S
C1684 C1685 1.437 . S
C1684 C1688 1.413 . S
C1685 C1683 1.329 . S
C1685 C1684 1.437 . S
C1685 H1707 0.929 . S
N1686 C1680 1.369 . S
N1686 C1687 1.338 . S
N1686 Gd1691 2.622 . S
C1687 N1686 1.338 . S
C1687 C1689 1.378 . S
C1687 H1699 0.929 . S
C1688 C1684 1.413 . S
C1688 C1689 1.348 . S
C1688 H1704 0.931 . S
C1689 C1687 1.378 . S
C1689 C1688 1.348 . S
C1689 H1705 0.930 . S
Gd1690 N1710 2.622 . S
Gd1690 N1717 2.570 . S
Gd1690 O1724 2.353 . S
Gd1690 O1725 2.468 . S
Gd1690 O1726 2.427 . S
Gd1690 O1728 2.388 . S
Gd1690 O1729 2.386 . S
Gd1690 O1733 2.307 . S
Gd1690 C1743 2.805 . S
Gd1691 N1686 2.622 . S
Gd1691 N1692 2.570 . S
Gd1691 O1723 2.386 . S
Gd1691 O1727 2.307 . S
Gd1691 O1730 2.353 . S
Gd1691 O1731 2.468 . S
Gd1691 O1732 2.427 . S
Gd1691 O1734 2.388 . S
Gd1691 C1755 2.805 . S
N1692 C1682 1.359 . S
N1692 Gd1691 2.570 . S
N1692 C1694 1.343 . S
C1693 C1681 1.422 . S
C1693 C1695 1.321 . S
C1693 H1701 0.931 . S
C1694 N1692 1.343 . S
C1694 C1695 1.390 . S
C1694 H1696 0.931 . S
C1695 C1693 1.321 . S
C1695 C1694 1.390 . S
C1695 H1697 0.930 . S
H1696 C1694 0.931 . S
H1697 C1695 0.930 . S
H1698 C1721 0.931 . S
H1699 C1687 0.929 . S
H1700 C1722 0.930 . S
H1701 C1693 0.931 . S
H1702 C1683 0.930 . S
H1703 C1712 0.929 . S
H1704 C1688 0.931 . S
H1705 C1689 0.930 . S
H1706 C1744 0.930 . S
H1707 C1685 0.929 . S
H1708 C1713 0.931 . S
H1709 C1714 0.930 . S
N1710 Gd1690 2.622 . S
N1710 C1711 1.369 . S
N1710 C1712 1.338 . S
C1711 N1710 1.369 . S
C1711 C1715 1.415 . S
C1711 C1718 1.422 . S
C1712 H1703 0.929 . S
C1712 N1710 1.338 . S
C1712 C1714 1.378 . S
C1713 H1708 0.931 . S
C1713 C1714 1.348 . S
C1713 C1715 1.413 . S
C1714 H1709 0.930 . S
C1714 C1712 1.378 . S
C1714 C1713 1.348 . S
C1715 C1711 1.415 . S
C1715 C1713 1.413 . S
C1715 C1745 1.437 . S
H1716 C1745 0.929 . S
N1717 Gd1690 2.570 . S
N1717 C1718 1.359 . S
N1717 C1721 1.343 . S
C1718 C1711 1.422 . S
C1718 N1717 1.359 . S
C1718 C1720 1.421 . S
C1719 C1720 1.422 . S
C1719 C1722 1.321 . S
C1719 H1746 0.931 . S
C1720 C1718 1.421 . S
C1720 C1719 1.422 . S
C1720 C1744 1.417 . S
C1721 H1698 0.931 . S
C1721 N1717 1.343 . S
C1721 C1722 1.390 . S
C1722 H1700 0.930 . S
C1722 C1719 1.321 . S
C1722 C1721 1.390 . S
O1723 Gd1691 2.386 . S
O1723 C1735 1.265 . S
O1724 Gd1690 2.353 . S
O1724 C1735 1.242 . S
O1725 Gd1690 2.468 . S
O1725 C1743 1.263 . S
O1726 Gd1690 2.427 . S
O1726 C1743 1.252 . S
O1727 Gd1691 2.307 . S
O1727 C1736 1.261 . S
O1728 Gd1690 2.388 . S
O1728 C1736 1.252 . S
O1729 Gd1690 2.386 . S
O1729 C1747 1.265 . S
O1730 Gd1691 2.353 . S
O1730 C1747 1.242 . S
O1731 Gd1691 2.468 . S
O1731 C1755 1.263 . S
O1732 Gd1691 2.427 . S
O1732 C1755 1.252 . S
O1733 Gd1690 2.307 . S
O1733 C1748 1.261 . S
O1734 Gd1691 2.388 . S
O1734 C1748 1.252 . S
C1735 O1723 1.265 . S
C1735 O1724 1.242 . S
C1736 O1727 1.261 . S
C1736 O1728 1.252 . S
C1737 C1740 1.394 . S
C1737 C1742 1.370 . S
C1737 C1743 1.500 . S
C1738 C1741 1.383 . S
C1738 C1742 1.395 . S
C1739 C1740 1.396 . S
C1739 C1741 1.365 . S
C1739 H1756 0.929 . S
C1740 C1737 1.394 . S
C1740 C1739 1.396 . S
C1740 H1757 0.930 . S
C1741 C1738 1.383 . S
C1741 C1739 1.365 . S
C1741 H1758 0.931 . S
C1742 C1737 1.370 . S
C1742 C1738 1.395 . S
C1742 H1759 0.930 . S
C1743 Gd1690 2.805 . S
C1743 O1725 1.263 . S
C1743 O1726 1.252 . S
C1743 C1737 1.500 . S
C1744 H1706 0.930 . S
C1744 C1720 1.417 . S
C1744 C1745 1.329 . S
C1745 C1715 1.437 . S
C1745 H1716 0.929 . S
C1745 C1744 1.329 . S
H1746 C1719 0.931 . S
C1747 O1729 1.265 . S
C1747 O1730 1.242 . S
C1748 O1733 1.261 . S
C1748 O1734 1.252 . S
C1749 C1752 1.394 . S
C1749 C1754 1.370 . S
C1749 C1755 1.500 . S
C1750 C1753 1.383 . S
C1750 C1754 1.395 . S
C1751 C1752 1.396 . S
C1751 C1753 1.365 . S
C1751 H1760 0.929 . S
C1752 C1749 1.394 . S
C1752 C1751 1.396 . S
C1752 H1761 0.930 . S
C1753 C1750 1.383 . S
C1753 C1751 1.365 . S
C1753 H1762 0.931 . S
C1754 C1749 1.370 . S
C1754 C1750 1.395 . S
C1754 H1763 0.930 . S
C1755 Gd1691 2.805 . S
C1755 O1731 1.263 . S
C1755 O1732 1.252 . S
C1755 C1749 1.500 . S
H1756 C1739 0.929 . S
H1757 C1740 0.930 . S
H1758 C1741 0.931 . S
H1759 C1742 0.930 . S
H1760 C1751 0.929 . S
H1761 C1752 0.930 . S
H1762 C1753 0.931 . S
H1763 C1754 0.930 . S
C1764 C1766 1.422 . S
C1764 C1768 1.415 . S
C1764 N1770 1.369 . S
C1765 C1766 1.421 . S
C1765 C1767 1.417 . S
C1765 C1777 1.422 . S
C1766 C1764 1.422 . S
C1766 C1765 1.421 . S
C1766 N1776 1.359 . S
C1767 C1765 1.417 . S
C1767 C1769 1.329 . S
C1767 H1786 0.930 . S
C1768 C1764 1.415 . S
C1768 C1769 1.437 . S
C1768 C1772 1.413 . S
C1769 C1767 1.329 . S
C1769 C1768 1.437 . S
C1769 H1791 0.929 . S
N1770 C1764 1.369 . S
N1770 C1771 1.338 . S
N1770 Gd1775 2.622 . S
C1771 N1770 1.338 . S
C1771 C1773 1.378 . S
C1771 H1783 0.929 . S
C1772 C1768 1.413 . S
C1772 C1773 1.348 . S
C1772 H1788 0.931 . S
C1773 C1771 1.378 . S
C1773 C1772 1.348 . S
C1773 H1789 0.930 . S
Gd1774 N1794 2.622 . S
Gd1774 N1801 2.570 . S
Gd1774 O1808 2.353 . S
Gd1774 O1809 2.468 . S
Gd1774 O1810 2.427 . S
Gd1774 O1812 2.388 . S
Gd1774 O1813 2.386 . S
Gd1774 O1817 2.307 . S
Gd1774 C1827 2.805 . S
Gd1775 N1770 2.622 . S
Gd1775 N1776 2.570 . S
Gd1775 O1807 2.386 . S
Gd1775 O1811 2.307 . S
Gd1775 O1814 2.353 . S
Gd1775 O1815 2.468 . S
Gd1775 O1816 2.427 . S
Gd1775 O1818 2.388 . S
Gd1775 C1839 2.805 . S
N1776 C1766 1.359 . S
N1776 Gd1775 2.570 . S
N1776 C1778 1.343 . S
C1777 C1765 1.422 . S
C1777 C1779 1.321 . S
C1777 H1785 0.931 . S
C1778 N1776 1.343 . S
C1778 C1779 1.390 . S
C1778 H1780 0.931 . S
C1779 C1777 1.321 . S
C1779 C1778 1.390 . S
C1779 H1781 0.930 . S
H1780 C1778 0.931 . S
H1781 C1779 0.930 . S
H1782 C1805 0.931 . S
H1783 C1771 0.929 . S
H1784 C1806 0.930 . S
H1785 C1777 0.931 . S
H1786 C1767 0.930 . S
H1787 C1796 0.929 . S
H1788 C1772 0.931 . S
H1789 C1773 0.930 . S
H1790 C1828 0.930 . S
H1791 C1769 0.929 . S
H1792 C1797 0.931 . S
H1793 C1798 0.930 . S
N1794 Gd1774 2.622 . S
N1794 C1795 1.369 . S
N1794 C1796 1.338 . S
C1795 N1794 1.369 . S
C1795 C1799 1.415 . S
C1795 C1802 1.422 . S
C1796 H1787 0.929 . S
C1796 N1794 1.338 . S
C1796 C1798 1.378 . S
C1797 H1792 0.931 . S
C1797 C1798 1.348 . S
C1797 C1799 1.413 . S
C1798 H1793 0.930 . S
C1798 C1796 1.378 . S
C1798 C1797 1.348 . S
C1799 C1795 1.415 . S
C1799 C1797 1.413 . S
C1799 C1829 1.437 . S
H1800 C1829 0.929 . S
N1801 Gd1774 2.570 . S
N1801 C1802 1.359 . S
N1801 C1805 1.343 . S
C1802 C1795 1.422 . S
C1802 N1801 1.359 . S
C1802 C1804 1.421 . S
C1803 C1804 1.422 . S
C1803 C1806 1.321 . S
C1803 H1830 0.931 . S
C1804 C1802 1.421 . S
C1804 C1803 1.422 . S
C1804 C1828 1.417 . S
C1805 H1782 0.931 . S
C1805 N1801 1.343 . S
C1805 C1806 1.390 . S
C1806 H1784 0.930 . S
C1806 C1803 1.321 . S
C1806 C1805 1.390 . S
O1807 Gd1775 2.386 . S
O1807 C1819 1.265 . S
O1808 Gd1774 2.353 . S
O1808 C1819 1.242 . S
O1809 Gd1774 2.468 . S
O1809 C1827 1.263 . S
O1810 Gd1774 2.427 . S
O1810 C1827 1.252 . S
O1811 Gd1775 2.307 . S
O1811 C1820 1.261 . S
O1812 Gd1774 2.388 . S
O1812 C1820 1.252 . S
O1813 Gd1774 2.386 . S
O1813 C1831 1.265 . S
O1814 Gd1775 2.353 . S
O1814 C1831 1.242 . S
O1815 Gd1775 2.468 . S
O1815 C1839 1.263 . S
O1816 Gd1775 2.427 . S
O1816 C1839 1.252 . S
O1817 Gd1774 2.307 . S
O1817 C1832 1.261 . S
O1818 Gd1775 2.388 . S
O1818 C1832 1.252 . S
C1819 O1807 1.265 . S
C1819 O1808 1.242 . S
C1820 O1811 1.261 . S
C1820 O1812 1.252 . S
C1821 C1824 1.394 . S
C1821 C1826 1.370 . S
C1821 C1827 1.500 . S
C1822 C1825 1.383 . S
C1822 C1826 1.395 . S
C1823 C1824 1.396 . S
C1823 C1825 1.365 . S
C1823 H1840 0.929 . S
C1824 C1821 1.394 . S
C1824 C1823 1.396 . S
C1824 H1841 0.930 . S
C1825 C1822 1.383 . S
C1825 C1823 1.365 . S
C1825 H1842 0.931 . S
C1826 C1821 1.370 . S
C1826 C1822 1.395 . S
C1826 H1843 0.930 . S
C1827 Gd1774 2.805 . S
C1827 O1809 1.263 . S
C1827 O1810 1.252 . S
C1827 C1821 1.500 . S
C1828 H1790 0.930 . S
C1828 C1804 1.417 . S
C1828 C1829 1.329 . S
C1829 C1799 1.437 . S
C1829 H1800 0.929 . S
C1829 C1828 1.329 . S
H1830 C1803 0.931 . S
C1831 O1813 1.265 . S
C1831 O1814 1.242 . S
C1832 O1817 1.261 . S
C1832 O1818 1.252 . S
C1833 C1836 1.394 . S
C1833 C1838 1.370 . S
C1833 C1839 1.500 . S
C1834 C1837 1.383 . S
C1834 C1838 1.395 . S
C1835 C1836 1.396 . S
C1835 C1837 1.365 . S
C1835 H1844 0.929 . S
C1836 C1833 1.394 . S
C1836 C1835 1.396 . S
C1836 H1845 0.930 . S
C1837 C1834 1.383 . S
C1837 C1835 1.365 . S
C1837 H1846 0.931 . S
C1838 C1833 1.370 . S
C1838 C1834 1.395 . S
C1838 H1847 0.930 . S
C1839 Gd1775 2.805 . S
C1839 O1815 1.263 . S
C1839 O1816 1.252 . S
C1839 C1833 1.500 . S
H1840 C1823 0.929 . S
H1841 C1824 0.930 . S
H1842 C1825 0.931 . S
H1843 C1826 0.930 . S
H1844 C1835 0.929 . S
H1845 C1836 0.930 . S
H1846 C1837 0.931 . S
H1847 C1838 0.930 . S
C1848 C1850 1.422 1_556 S
C1848 C1852 1.415 . S
C1848 N1854 1.369 . S
C1849 C1850 1.421 . S
C1849 C1851 1.417 . S
C1849 C1861 1.422 . S
C1850 C1848 1.422 1_554 S
C1850 C1849 1.421 . S
C1850 N1860 1.359 . S
C1851 C1849 1.417 . S
C1851 C1853 1.329 1_554 S
C1851 H1870 0.930 . S
C1852 C1848 1.415 . S
C1852 C1853 1.437 . S
C1852 C1856 1.413 . S
C1853 C1851 1.329 1_556 S
C1853 C1852 1.437 . S
C1853 H1875 0.929 . S
N1854 C1848 1.369 . S
N1854 C1855 1.338 . S
N1854 Gd1859 2.622 . S
C1855 N1854 1.338 . S
C1855 C1857 1.378 . S
C1855 H1867 0.929 . S
C1856 C1852 1.413 . S
C1856 C1857 1.348 . S
C1856 H1872 0.931 . S
C1857 C1855 1.378 . S
C1857 C1856 1.348 . S
C1857 H1873 0.930 . S
Gd1858 N1878 2.622 . S
Gd1858 N1885 2.570 . S
Gd1858 O1892 2.353 . S
Gd1858 O1893 2.468 . S
Gd1858 O1894 2.427 . S
Gd1858 O1896 2.388 . S
Gd1858 O1897 2.386 . S
Gd1858 O1901 2.307 . S
Gd1858 C1911 2.805 . S
Gd1859 N1854 2.622 . S
Gd1859 N1860 2.570 1_556 S
Gd1859 O1891 2.386 1_556 S
Gd1859 O1895 2.307 1_556 S
Gd1859 O1898 2.353 . S
Gd1859 O1899 2.468 . S
Gd1859 O1900 2.427 . S
Gd1859 O1902 2.388 . S
Gd1859 C1923 2.805 . S
N1860 C1850 1.359 . S
N1860 Gd1859 2.570 1_554 S
N1860 C1862 1.343 . S
C1861 C1849 1.422 . S
C1861 C1863 1.321 . S
C1861 H1869 0.931 . S
C1862 N1860 1.343 . S
C1862 C1863 1.390 . S
C1862 H1864 0.931 . S
C1863 C1861 1.321 . S
C1863 C1862 1.390 . S
C1863 H1865 0.930 . S
H1864 C1862 0.931 . S
H1865 C1863 0.930 . S
H1866 C1889 0.931 . S
H1867 C1855 0.929 . S
H1868 C1890 0.930 . S
H1869 C1861 0.931 . S
H1870 C1851 0.930 . S
H1871 C1880 0.929 . S
H1872 C1856 0.931 . S
H1873 C1857 0.930 . S
H1874 C1912 0.930 . S
H1875 C1853 0.929 . S
H1876 C1881 0.931 . S
H1877 C1882 0.930 . S
N1878 Gd1858 2.622 . S
N1878 C1879 1.369 . S
N1878 C1880 1.338 . S
C1879 N1878 1.369 . S
C1879 C1883 1.415 . S
C1879 C1886 1.422 . S
C1880 H1871 0.929 . S
C1880 N1878 1.338 . S
C1880 C1882 1.378 . S
C1881 H1876 0.931 . S
C1881 C1882 1.348 . S
C1881 C1883 1.413 . S
C1882 H1877 0.930 . S
C1882 C1880 1.378 . S
C1882 C1881 1.348 . S
C1883 C1879 1.415 . S
C1883 C1881 1.413 . S
C1883 C1913 1.437 . S
H1884 C1913 0.929 . S
N1885 Gd1858 2.570 . S
N1885 C1886 1.359 . S
N1885 C1889 1.343 . S
C1886 C1879 1.422 . S
C1886 N1885 1.359 . S
C1886 C1888 1.421 . S
C1887 C1888 1.422 . S
C1887 C1890 1.321 . S
C1887 H1914 0.931 . S
C1888 C1886 1.421 . S
C1888 C1887 1.422 . S
C1888 C1912 1.417 . S
C1889 H1866 0.931 . S
C1889 N1885 1.343 . S
C1889 C1890 1.390 . S
C1890 H1868 0.930 . S
C1890 C1887 1.321 . S
C1890 C1889 1.390 . S
O1891 Gd1859 2.386 1_554 S
O1891 C1903 1.265 . S
O1892 Gd1858 2.353 . S
O1892 C1903 1.242 . S
O1893 Gd1858 2.468 . S
O1893 C1911 1.263 . S
O1894 Gd1858 2.427 . S
O1894 C1911 1.252 . S
O1895 Gd1859 2.307 1_554 S
O1895 C1904 1.261 . S
O1896 Gd1858 2.388 . S
O1896 C1904 1.252 . S
O1897 Gd1858 2.386 . S
O1897 C1915 1.265 1_554 S
O1898 Gd1859 2.353 . S
O1898 C1915 1.242 . S
O1899 Gd1859 2.468 . S
O1899 C1923 1.263 . S
O1900 Gd1859 2.427 . S
O1900 C1923 1.252 . S
O1901 Gd1858 2.307 . S
O1901 C1916 1.243 1_554 S
O1902 Gd1859 2.388 . S
O1902 C1916 1.268 . S
C1903 O1891 1.265 . S
C1903 O1892 1.242 . S
C1904 O1895 1.261 . S
C1904 O1896 1.252 . S
C1905 C1908 1.394 . S
C1905 C1910 1.370 . S
C1905 C1911 1.500 . S
C1906 C1909 1.383 . S
C1906 C1910 1.395 . S
C1907 C1908 1.396 . S
C1907 C1909 1.365 . S
C1907 H1924 0.929 . S
C1908 C1905 1.394 . S
C1908 C1907 1.396 . S
C1908 H1925 0.930 . S
C1909 C1906 1.383 . S
C1909 C1907 1.365 . S
C1909 H1926 0.931 . S
C1910 C1905 1.370 . S
C1910 C1906 1.395 . S
C1910 H1927 0.930 . S
C1911 Gd1858 2.805 . S
C1911 O1893 1.263 . S
C1911 O1894 1.252 . S
C1911 C1905 1.500 . S
C1912 H1874 0.930 . S
C1912 C1888 1.417 . S
C1912 C1913 1.329 . S
C1913 C1883 1.437 . S
C1913 H1884 0.929 . S
C1913 C1912 1.329 . S
H1914 C1887 0.931 . S
C1915 O1897 1.265 1_556 S
C1915 O1898 1.242 . S
C1916 O1901 1.243 1_556 S
C1916 O1902 1.268 . S
C1917 C1920 1.394 . S
C1917 C1922 1.370 . S
C1917 C1923 1.500 . S
C1918 C1921 1.383 . S
C1918 C1922 1.395 . S
C1919 C1920 1.396 . S
C1919 C1921 1.365 . S
C1919 H1928 0.929 . S
C1920 C1917 1.394 . S
C1920 C1919 1.396 . S
C1920 H1929 0.930 . S
C1921 C1918 1.383 . S
C1921 C1919 1.365 . S
C1921 H1930 0.931 . S
C1922 C1917 1.370 . S
C1922 C1918 1.395 . S
C1922 H1931 0.930 . S
C1923 Gd1859 2.805 . S
C1923 O1899 1.263 . S
C1923 O1900 1.252 . S
C1923 C1917 1.500 . S
H1924 C1907 0.929 . S
H1925 C1908 0.930 . S
H1926 C1909 0.931 . S
H1927 C1910 0.930 . S
H1928 C1919 0.929 . S
H1929 C1920 0.930 . S
H1930 C1921 0.931 . S
H1931 C1922 0.930 . S
C1932 C1934 1.422 1_545 S
C1932 C1936 1.415 . S
C1932 N1938 1.369 . S
C1933 C1934 1.421 . S
C1933 C1935 1.417 . S
C1933 C1945 1.422 . S
C1934 C1932 1.422 1_565 S
C1934 C1933 1.421 . S
C1934 N1944 1.359 . S
C1935 C1933 1.417 . S
C1935 C1937 1.329 1_565 S
C1935 H1954 0.930 . S
C1936 C1932 1.415 . S
C1936 C1937 1.437 . S
C1936 C1940 1.413 . S
C1937 C1935 1.329 1_545 S
C1937 C1936 1.437 . S
C1937 H1959 0.929 . S
N1938 C1932 1.369 . S
N1938 C1939 1.338 . S
N1938 Gd1943 2.622 . S
C1939 N1938 1.338 . S
C1939 C1941 1.378 . S
C1939 H1951 0.929 . S
C1940 C1936 1.413 . S
C1940 C1941 1.348 . S
C1940 H1956 0.931 . S
C1941 C1939 1.378 . S
C1941 C1940 1.348 . S
C1941 H1957 0.930 . S
Gd1942 N1962 2.622 . S
Gd1942 N1969 2.570 . S
Gd1942 O1976 2.353 . S
Gd1942 O1977 2.468 . S
Gd1942 O1978 2.427 . S
Gd1942 O1980 2.388 . S
Gd1942 O1981 2.386 . S
Gd1942 O1985 2.307 . S
Gd1942 C1995 2.805 . S
Gd1943 N1938 2.622 . S
Gd1943 N1944 2.570 1_545 S
Gd1943 O1975 2.386 1_545 S
Gd1943 O1979 2.307 1_545 S
Gd1943 O1982 2.353 . S
Gd1943 O1983 2.468 . S
Gd1943 O1984 2.427 . S
Gd1943 O1986 2.388 . S
Gd1943 C2007 2.805 . S
N1944 C1934 1.359 . S
N1944 Gd1943 2.570 1_565 S
N1944 C1946 1.343 . S
C1945 C1933 1.422 . S
C1945 C1947 1.321 . S
C1945 H1953 0.931 . S
C1946 N1944 1.343 . S
C1946 C1947 1.390 . S
C1946 H1948 0.931 . S
C1947 C1945 1.321 . S
C1947 C1946 1.390 . S
C1947 H1949 0.930 . S
H1948 C1946 0.931 . S
H1949 C1947 0.930 . S
H1950 C1973 0.931 . S
H1951 C1939 0.929 . S
H1952 C1974 0.930 . S
H1953 C1945 0.931 . S
H1954 C1935 0.930 . S
H1955 C1964 0.929 . S
H1956 C1940 0.931 . S
H1957 C1941 0.930 . S
H1958 C1996 0.930 . S
H1959 C1937 0.929 . S
H1960 C1965 0.931 . S
H1961 C1966 0.930 . S
N1962 Gd1942 2.622 . S
N1962 C1963 1.369 . S
N1962 C1964 1.338 . S
C1963 N1962 1.369 . S
C1963 C1967 1.415 . S
C1963 C1970 1.422 . S
C1964 H1955 0.929 . S
C1964 N1962 1.338 . S
C1964 C1966 1.378 . S
C1965 H1960 0.931 . S
C1965 C1966 1.348 . S
C1965 C1967 1.413 . S
C1966 H1961 0.930 . S
C1966 C1964 1.378 . S
C1966 C1965 1.348 . S
C1967 C1963 1.415 . S
C1967 C1965 1.413 . S
C1967 C1997 1.437 . S
H1968 C1997 0.929 . S
N1969 Gd1942 2.570 . S
N1969 C1970 1.359 . S
N1969 C1973 1.343 . S
C1970 C1963 1.422 . S
C1970 N1969 1.359 . S
C1970 C1972 1.421 . S
C1971 C1972 1.422 . S
C1971 C1974 1.321 . S
C1971 H1998 0.931 . S
C1972 C1970 1.421 . S
C1972 C1971 1.422 . S
C1972 C1996 1.417 . S
C1973 H1950 0.931 . S
C1973 N1969 1.343 . S
C1973 C1974 1.390 . S
C1974 H1952 0.930 . S
C1974 C1971 1.321 . S
C1974 C1973 1.390 . S
O1975 Gd1943 2.386 1_565 S
O1975 C1987 1.265 . S
O1976 Gd1942 2.353 . S
O1976 C1987 1.242 . S
O1977 Gd1942 2.468 . S
O1977 C1995 1.263 . S
O1978 Gd1942 2.427 . S
O1978 C1995 1.252 . S
O1979 Gd1943 2.307 1_565 S
O1979 C1988 1.261 . S
O1980 Gd1942 2.388 . S
O1980 C1988 1.252 . S
O1981 Gd1942 2.386 . S
O1981 C1999 1.265 1_565 S
O1982 Gd1943 2.353 . S
O1982 C1999 1.242 . S
O1983 Gd1943 2.468 . S
O1983 C2007 1.263 . S
O1984 Gd1943 2.427 . S
O1984 C2007 1.252 . S
O1985 Gd1942 2.307 . S
O1985 C2000 1.244 1_565 S
O1986 Gd1943 2.388 . S
O1986 C2000 1.267 . S
C1987 O1975 1.265 . S
C1987 O1976 1.242 . S
C1988 O1979 1.261 . S
C1988 O1980 1.252 . S
C1989 C1992 1.394 . S
C1989 C1994 1.370 . S
C1989 C1995 1.500 . S
C1990 C1993 1.383 . S
C1990 C1994 1.395 . S
C1991 C1992 1.396 . S
C1991 C1993 1.365 . S
C1991 H2008 0.929 . S
C1992 C1989 1.394 . S
C1992 C1991 1.396 . S
C1992 H2009 0.930 . S
C1993 C1990 1.383 . S
C1993 C1991 1.365 . S
C1993 H2010 0.931 . S
C1994 C1989 1.370 . S
C1994 C1990 1.395 . S
C1994 H2011 0.930 . S
C1995 Gd1942 2.805 . S
C1995 O1977 1.263 . S
C1995 O1978 1.252 . S
C1995 C1989 1.500 . S
C1996 H1958 0.930 . S
C1996 C1972 1.417 . S
C1996 C1997 1.329 . S
C1997 C1967 1.437 . S
C1997 H1968 0.929 . S
C1997 C1996 1.329 . S
H1998 C1971 0.931 . S
C1999 O1981 1.265 1_545 S
C1999 O1982 1.242 . S
C2000 O1985 1.244 1_545 S
C2000 O1986 1.267 . S
C2001 C2004 1.394 . S
C2001 C2006 1.370 . S
C2001 C2007 1.500 . S
C2002 C2005 1.383 . S
C2002 C2006 1.395 . S
C2003 C2004 1.396 . S
C2003 C2005 1.365 . S
C2003 H2012 0.929 . S
C2004 C2001 1.394 . S
C2004 C2003 1.396 . S
C2004 H2013 0.930 . S
C2005 C2002 1.383 . S
C2005 C2003 1.365 . S
C2005 H2014 0.931 . S
C2006 C2001 1.370 . S
C2006 C2002 1.395 . S
C2006 H2015 0.930 . S
C2007 Gd1943 2.805 . S
C2007 O1983 1.263 . S
C2007 O1984 1.252 . S
C2007 C2001 1.500 . S
H2008 C1991 0.929 . S
H2009 C1992 0.930 . S
H2010 C1993 0.931 . S
H2011 C1994 0.930 . S
H2012 C2003 0.929 . S
H2013 C2004 0.930 . S
H2014 C2005 0.931 . S
H2015 C2006 0.930 . S
C2016 C2018 1.422 . S
C2016 C2020 1.415 . S
C2016 N2022 1.369 . S
C2017 C2018 1.421 . S
C2017 C2019 1.417 . S
C2017 C2029 1.422 . S
C2018 C2016 1.422 . S
C2018 C2017 1.421 . S
C2018 N2028 1.359 . S
C2019 C2017 1.417 . S
C2019 C2021 1.329 . S
C2019 H2038 0.930 . S
C2020 C2016 1.415 . S
C2020 C2021 1.437 . S
C2020 C2024 1.413 . S
C2021 C2019 1.329 . S
C2021 C2020 1.437 . S
C2021 H2043 0.929 . S
N2022 C2016 1.369 . S
N2022 C2023 1.338 . S
N2022 Gd2027 2.622 . S
C2023 N2022 1.338 . S
C2023 C2025 1.378 . S
C2023 H2035 0.929 . S
C2024 C2020 1.413 . S
C2024 C2025 1.348 . S
C2024 H2040 0.931 . S
C2025 C2023 1.378 . S
C2025 C2024 1.348 . S
C2025 H2041 0.930 . S
Gd2026 N2046 2.622 . S
Gd2026 N2053 2.570 . S
Gd2026 O2060 2.353 1_545 S
Gd2026 O2061 2.468 . S
Gd2026 O2062 2.427 . S
Gd2026 O2064 2.388 1_545 S
Gd2026 O2065 2.386 . S
Gd2026 O2069 2.307 . S
Gd2026 C2079 2.805 . S
Gd2027 N2022 2.622 . S
Gd2027 N2028 2.570 . S
Gd2027 O2059 2.386 . S
Gd2027 O2063 2.307 . S
Gd2027 O2066 2.353 . S
Gd2027 O2067 2.468 . S
Gd2027 O2068 2.427 . S
Gd2027 O2070 2.388 . S
Gd2027 C2091 2.805 . S
N2028 C2018 1.359 . S
N2028 Gd2027 2.570 . S
N2028 C2030 1.343 . S
C2029 C2017 1.422 . S
C2029 C2031 1.321 . S
C2029 H2037 0.931 . S
C2030 N2028 1.343 . S
C2030 C2031 1.390 . S
C2030 H2032 0.931 . S
C2031 C2029 1.321 . S
C2031 C2030 1.390 . S
C2031 H2033 0.930 . S
H2032 C2030 0.931 . S
H2033 C2031 0.930 . S
H2034 C2057 0.931 . S
H2035 C2023 0.929 . S
H2036 C2058 0.930 . S
H2037 C2029 0.931 . S
H2038 C2019 0.930 . S
H2039 C2048 0.929 1_565 S
H2040 C2024 0.931 . S
H2041 C2025 0.930 . S
H2042 C2080 0.930 . S
H2043 C2021 0.929 . S
H2044 C2049 0.931 . S
H2045 C2050 0.930 1_565 S
N2046 Gd2026 2.622 . S
N2046 C2047 1.369 . S
N2046 C2048 1.338 . S
C2047 N2046 1.369 . S
C2047 C2051 1.415 . S
C2047 C2054 1.422 . S
C2048 H2039 0.929 1_545 S
C2048 N2046 1.338 . S
C2048 C2050 1.378 . S
C2049 H2044 0.931 . S
C2049 C2050 1.348 . S
C2049 C2051 1.413 . S
C2050 H2045 0.930 1_545 S
C2050 C2048 1.378 . S
C2050 C2049 1.348 . S
C2051 C2047 1.415 . S
C2051 C2049 1.413 . S
C2051 C2081 1.437 . S
H2052 C2081 0.929 . S
N2053 Gd2026 2.570 . S
N2053 C2054 1.359 . S
N2053 C2057 1.343 . S
C2054 C2047 1.422 . S
C2054 N2053 1.359 . S
C2054 C2056 1.421 . S
C2055 C2056 1.422 . S
C2055 C2058 1.321 . S
C2055 H2082 0.931 . S
C2056 C2054 1.421 . S
C2056 C2055 1.422 . S
C2056 C2080 1.417 . S
C2057 H2034 0.931 . S
C2057 N2053 1.343 . S
C2057 C2058 1.390 . S
C2058 H2036 0.930 . S
C2058 C2055 1.321 . S
C2058 C2057 1.390 . S
O2059 Gd2027 2.386 . S
O2059 C2071 1.265 . S
O2060 Gd2026 2.353 1_565 S
O2060 C2071 1.242 . S
O2061 Gd2026 2.468 . S
O2061 C2079 1.263 . S
O2062 Gd2026 2.427 . S
O2062 C2079 1.252 . S
O2063 Gd2027 2.307 . S
O2063 C2072 1.261 . S
O2064 Gd2026 2.388 1_565 S
O2064 C2072 1.252 . S
O2065 Gd2026 2.386 . S
O2065 C2083 1.265 1_545 S
O2066 Gd2027 2.353 . S
O2066 C2083 1.242 . S
O2067 Gd2027 2.468 . S
O2067 C2091 1.263 . S
O2068 Gd2027 2.427 . S
O2068 C2091 1.252 . S
O2069 Gd2026 2.307 . S
O2069 C2084 1.261 . S
O2070 Gd2027 2.388 . S
O2070 C2084 1.252 1_565 S
C2071 O2059 1.265 . S
C2071 O2060 1.242 . S
C2072 O2063 1.261 . S
C2072 O2064 1.252 . S
C2073 C2076 1.394 . S
C2073 C2078 1.370 . S
C2073 C2079 1.500 . S
C2074 C2077 1.383 . S
C2074 C2078 1.395 . S
C2075 C2076 1.396 . S
C2075 C2077 1.365 . S
C2075 H2092 0.929 . S
C2076 C2073 1.394 . S
C2076 C2075 1.396 . S
C2076 H2093 0.930 . S
C2077 C2074 1.383 . S
C2077 C2075 1.365 . S
C2077 H2094 0.931 . S
C2078 C2073 1.370 . S
C2078 C2074 1.395 . S
C2078 H2095 0.930 . S
C2079 Gd2026 2.805 . S
C2079 O2061 1.263 . S
C2079 O2062 1.252 . S
C2079 C2073 1.500 . S
C2080 H2042 0.930 . S
C2080 C2056 1.417 . S
C2080 C2081 1.329 . S
C2081 C2051 1.437 . S
C2081 H2052 0.929 . S
C2081 C2080 1.329 . S
H2082 C2055 0.931 . S
C2083 O2065 1.265 1_565 S
C2083 O2066 1.242 . S
C2084 O2069 1.261 . S
C2084 O2070 1.252 1_545 S
C2085 C2088 1.394 . S
C2085 C2090 1.370 . S
C2085 C2091 1.500 . S
C2086 C2089 1.383 . S
C2086 C2090 1.395 . S
C2087 C2088 1.396 . S
C2087 C2089 1.365 . S
C2087 H2096 0.929 . S
C2088 C2085 1.394 . S
C2088 C2087 1.396 . S
C2088 H2097 0.930 . S
C2089 C2086 1.383 . S
C2089 C2087 1.365 . S
C2089 H2098 0.931 . S
C2090 C2085 1.370 . S
C2090 C2086 1.395 . S
C2090 H2099 0.930 . S
C2091 Gd2027 2.805 . S
C2091 O2067 1.263 . S
C2091 O2068 1.252 . S
C2091 C2085 1.500 . S
H2092 C2075 0.929 . S
H2093 C2076 0.930 . S
H2094 C2077 0.931 . S
H2095 C2078 0.930 . S
H2096 C2087 0.929 . S
H2097 C2088 0.930 . S
H2098 C2089 0.931 . S
H2099 C2090 0.930 . S
C2100 C2102 1.422 . S
C2100 C2104 1.415 . S
C2100 N2106 1.369 . S
C2101 C2102 1.421 . S
C2101 C2103 1.417 . S
C2101 C2113 1.422 . S
C2102 C2100 1.422 . S
C2102 C2101 1.421 . S
C2102 N2112 1.359 . S
C2103 C2101 1.417 . S
C2103 C2105 1.329 . S
C2103 H2122 0.930 . S
C2104 C2100 1.415 . S
C2104 C2105 1.437 . S
C2104 C2108 1.413 . S
C2105 C2103 1.329 . S
C2105 C2104 1.437 . S
C2105 H2127 0.929 . S
N2106 C2100 1.369 . S
N2106 C2107 1.338 . S
N2106 Gd2111 2.622 . S
C2107 N2106 1.338 . S
C2107 C2109 1.378 . S
C2107 H2119 0.929 . S
C2108 C2104 1.413 . S
C2108 C2109 1.348 . S
C2108 H2124 0.931 . S
C2109 C2107 1.378 . S
C2109 C2108 1.348 . S
C2109 H2125 0.930 . S
Gd2110 N2130 2.622 . S
Gd2110 N2137 2.570 . S
Gd2110 O2144 2.353 1_565 S
Gd2110 O2145 2.468 . S
Gd2110 O2146 2.427 . S
Gd2110 O2148 2.388 1_565 S
Gd2110 O2149 2.388 . S
Gd2110 O2153 2.307 . S
Gd2110 C2163 2.805 . S
Gd2111 N2106 2.622 . S
Gd2111 N2112 2.570 . S
Gd2111 O2143 2.386 . S
Gd2111 O2147 2.307 . S
Gd2111 O2150 2.353 . S
Gd2111 O2151 2.468 . S
Gd2111 O2152 2.427 . S
Gd2111 O2154 2.388 . S
Gd2111 C2175 2.805 . S
N2112 C2102 1.359 . S
N2112 Gd2111 2.570 . S
N2112 C2114 1.343 . S
C2113 C2101 1.422 . S
C2113 C2115 1.321 . S
C2113 H2121 0.931 . S
C2114 N2112 1.343 . S
C2114 C2115 1.390 . S
C2114 H2116 0.931 . S
C2115 C2113 1.321 . S
C2115 C2114 1.390 . S
C2115 H2117 0.930 . S
H2116 C2114 0.931 . S
H2117 C2115 0.930 . S
H2118 C2141 0.931 . S
H2119 C2107 0.929 . S
H2120 C2142 0.930 . S
H2121 C2113 0.931 . S
H2122 C2103 0.930 . S
H2123 C2132 0.929 1_545 S
H2124 C2108 0.931 . S
H2125 C2109 0.930 . S
H2126 C2164 0.930 . S
H2127 C2105 0.929 . S
H2128 C2133 0.931 . S
H2129 C2134 0.930 1_545 S
N2130 Gd2110 2.622 . S
N2130 C2131 1.369 . S
N2130 C2132 1.338 . S
C2131 N2130 1.369 . S
C2131 C2135 1.415 . S
C2131 C2138 1.422 . S
C2132 H2123 0.929 1_565 S
C2132 N2130 1.338 . S
C2132 C2134 1.378 . S
C2133 H2128 0.931 . S
C2133 C2134 1.348 . S
C2133 C2135 1.413 . S
C2134 H2129 0.930 1_565 S
C2134 C2132 1.378 . S
C2134 C2133 1.348 . S
C2135 C2131 1.415 . S
C2135 C2133 1.413 . S
C2135 C2165 1.437 . S
H2136 C2165 0.929 . S
N2137 Gd2110 2.570 . S
N2137 C2138 1.359 . S
N2137 C2141 1.343 . S
C2138 C2131 1.422 . S
C2138 N2137 1.359 . S
C2138 C2140 1.421 . S
C2139 C2140 1.422 . S
C2139 C2142 1.321 . S
C2139 H2166 0.931 . S
C2140 C2138 1.421 . S
C2140 C2139 1.422 . S
C2140 C2164 1.417 . S
C2141 H2118 0.931 . S
C2141 N2137 1.343 . S
C2141 C2142 1.390 . S
C2142 H2120 0.930 . S
C2142 C2139 1.321 . S
C2142 C2141 1.390 . S
O2143 Gd2111 2.386 . S
O2143 C2155 1.265 . S
O2144 Gd2110 2.353 1_545 S
O2144 C2155 1.242 . S
O2145 Gd2110 2.468 . S
O2145 C2163 1.263 . S
O2146 Gd2110 2.427 . S
O2146 C2163 1.252 . S
O2147 Gd2111 2.307 . S
O2147 C2156 1.261 . S
O2148 Gd2110 2.388 1_545 S
O2148 C2156 1.252 . S
O2149 Gd2110 2.388 . S
O2149 C2167 1.258 1_565 S
O2150 Gd2111 2.353 . S
O2150 C2167 1.242 . S
O2151 Gd2111 2.468 . S
O2151 C2175 1.263 . S
O2152 Gd2111 2.427 . S
O2152 C2175 1.252 . S
O2153 Gd2110 2.307 . S
O2153 C2168 1.261 . S
O2154 Gd2111 2.388 . S
O2154 C2168 1.252 1_545 S
C2155 O2143 1.265 . S
C2155 O2144 1.242 . S
C2156 O2147 1.261 . S
C2156 O2148 1.252 . S
C2157 C2160 1.394 . S
C2157 C2162 1.370 . S
C2157 C2163 1.500 . S
C2158 C2161 1.383 . S
C2158 C2162 1.395 . S
C2159 C2160 1.396 . S
C2159 C2161 1.365 . S
C2159 H2176 0.929 . S
C2160 C2157 1.394 . S
C2160 C2159 1.396 . S
C2160 H2177 0.930 . S
C2161 C2158 1.383 . S
C2161 C2159 1.365 . S
C2161 H2178 0.931 . S
C2162 C2157 1.370 . S
C2162 C2158 1.395 . S
C2162 H2179 0.930 . S
C2163 Gd2110 2.805 . S
C2163 O2145 1.263 . S
C2163 O2146 1.252 . S
C2163 C2157 1.500 . S
C2164 H2126 0.930 . S
C2164 C2140 1.417 . S
C2164 C2165 1.329 . S
C2165 C2135 1.437 . S
C2165 H2136 0.929 . S
C2165 C2164 1.329 . S
H2166 C2139 0.931 . S
C2167 O2149 1.258 1_545 S
C2167 O2150 1.242 . S
C2168 O2153 1.261 . S
C2168 O2154 1.252 1_565 S
C2169 C2172 1.394 . S
C2169 C2174 1.370 . S
C2169 C2175 1.500 . S
C2170 C2173 1.383 . S
C2170 C2174 1.395 . S
C2171 C2172 1.396 . S
C2171 C2173 1.365 . S
C2171 H2180 0.929 . S
C2172 C2169 1.394 . S
C2172 C2171 1.396 . S
C2172 H2181 0.930 . S
C2173 C2170 1.383 . S
C2173 C2171 1.365 . S
C2173 H2182 0.931 . S
C2174 C2169 1.370 . S
C2174 C2170 1.395 . S
C2174 H2183 0.930 . S
C2175 Gd2111 2.805 . S
C2175 O2151 1.263 . S
C2175 O2152 1.252 . S
C2175 C2169 1.500 . S
H2176 C2159 0.929 . S
H2177 C2160 0.930 . S
H2178 C2161 0.931 . S
H2179 C2162 0.930 . S
H2180 C2171 0.929 . S
H2181 C2172 0.930 . S
H2182 C2173 0.931 . S
H2183 C2174 0.930 . S
C2184 C2186 1.422 . S
C2184 C2188 1.415 . S
C2184 N2190 1.369 . S
C2185 C2186 1.421 . S
C2185 C2187 1.417 . S
C2185 C2197 1.422 . S
C2186 C2184 1.422 . S
C2186 C2185 1.421 . S
C2186 N2196 1.359 . S
C2187 C2185 1.417 . S
C2187 C2189 1.329 . S
C2187 H2206 0.930 . S
C2188 C2184 1.415 . S
C2188 C2189 1.437 . S
C2188 C2192 1.413 . S
C2189 C2187 1.329 . S
C2189 C2188 1.437 . S
C2189 H2211 0.929 . S
N2190 C2184 1.369 . S
N2190 C2191 1.338 . S
N2190 Gd2195 2.622 . S
C2191 N2190 1.338 . S
C2191 C2193 1.378 . S
C2191 H2203 0.929 . S
C2192 C2188 1.413 . S
C2192 C2193 1.348 . S
C2192 H2208 0.931 . S
C2193 C2191 1.378 . S
C2193 C2192 1.348 . S
C2193 H2209 0.930 . S
Gd2194 N2214 2.622 . S
Gd2194 N2221 2.570 . S
Gd2194 O2228 2.353 1_565 S
Gd2194 O2229 2.468 . S
Gd2194 O2230 2.427 . S
Gd2194 O2232 2.388 1_565 S
Gd2194 O2233 2.386 . S
Gd2194 O2237 2.307 . S
Gd2194 C2247 2.805 . S
Gd2195 N2190 2.622 . S
Gd2195 N2196 2.570 . S
Gd2195 O2227 2.386 . S
Gd2195 O2231 2.307 . S
Gd2195 O2234 2.353 . S
Gd2195 O2235 2.468 . S
Gd2195 O2236 2.427 . S
Gd2195 O2238 2.388 . S
Gd2195 C2259 2.805 . S
N2196 C2186 1.359 . S
N2196 Gd2195 2.570 . S
N2196 C2198 1.343 . S
C2197 C2185 1.422 . S
C2197 C2199 1.321 . S
C2197 H2205 0.931 . S
C2198 N2196 1.343 . S
C2198 C2199 1.390 . S
C2198 H2200 0.931 . S
C2199 C2197 1.321 . S
C2199 C2198 1.390 . S
C2199 H2201 0.930 . S
H2200 C2198 0.931 . S
H2201 C2199 0.930 . S
H2202 C2225 0.931 . S
H2203 C2191 0.929 . S
H2204 C2226 0.930 . S
H2205 C2197 0.931 . S
H2206 C2187 0.930 . S
H2207 C2216 0.910 1_545 S
H2208 C2192 0.931 . S
H2209 C2193 0.930 . S
H2210 C2248 0.930 . S
H2211 C2189 0.929 . S
H2212 C2217 0.931 . S
H2213 C2218 0.930 1_545 S
N2214 Gd2194 2.622 . S
N2214 C2215 1.369 . S
N2214 C2216 1.352 . S
C2215 N2214 1.369 . S
C2215 C2219 1.415 . S
C2215 C2222 1.422 . S
C2216 H2207 0.910 1_565 S
C2216 N2214 1.352 . S
C2216 C2218 1.383 . S
C2217 H2212 0.931 . S
C2217 C2218 1.348 . S
C2217 C2219 1.413 . S
C2218 H2213 0.930 1_565 S
C2218 C2216 1.383 . S
C2218 C2217 1.348 . S
C2219 C2215 1.415 . S
C2219 C2217 1.413 . S
C2219 C2249 1.437 . S
H2220 C2249 0.929 . S
N2221 Gd2194 2.570 . S
N2221 C2222 1.359 . S
N2221 C2225 1.343 . S
C2222 C2215 1.422 . S
C2222 N2221 1.359 . S
C2222 C2224 1.421 . S
C2223 C2224 1.422 . S
C2223 C2226 1.321 . S
C2223 H2250 0.931 . S
C2224 C2222 1.421 . S
C2224 C2223 1.422 . S
C2224 C2248 1.417 . S
C2225 H2202 0.931 . S
C2225 N2221 1.343 . S
C2225 C2226 1.390 . S
C2226 H2204 0.930 . S
C2226 C2223 1.321 . S
C2226 C2225 1.390 . S
O2227 Gd2195 2.386 . S
O2227 C2239 1.265 . S
O2228 Gd2194 2.353 1_545 S
O2228 C2239 1.242 . S
O2229 Gd2194 2.468 . S
O2229 C2247 1.263 . S
O2230 Gd2194 2.427 . S
O2230 C2247 1.252 . S
O2231 Gd2195 2.307 . S
O2231 C2240 1.261 . S
O2232 Gd2194 2.388 1_545 S
O2232 C2240 1.252 . S
O2233 Gd2194 2.386 . S
O2233 C2251 1.263 1_565 S
O2234 Gd2195 2.353 . S
O2234 C2251 1.242 . S
O2235 Gd2195 2.468 . S
O2235 C2259 1.263 . S
O2236 Gd2195 2.427 . S
O2236 C2259 1.252 . S
O2237 Gd2194 2.307 . S
O2237 C2252 1.261 . S
O2238 Gd2195 2.388 . S
O2238 C2252 1.252 1_545 S
C2239 O2227 1.265 . S
C2239 O2228 1.242 . S
C2240 O2231 1.261 . S
C2240 O2232 1.252 . S
C2241 C2244 1.394 . S
C2241 C2246 1.370 . S
C2241 C2247 1.500 . S
C2242 C2245 1.383 . S
C2242 C2246 1.395 . S
C2243 C2244 1.396 . S
C2243 C2245 1.365 . S
C2243 H2260 0.929 . S
C2244 C2241 1.394 . S
C2244 C2243 1.396 . S
C2244 H2261 0.930 . S
C2245 C2242 1.383 . S
C2245 C2243 1.365 . S
C2245 H2262 0.931 . S
C2246 C2241 1.370 . S
C2246 C2242 1.395 . S
C2246 H2263 0.930 . S
C2247 Gd2194 2.805 . S
C2247 O2229 1.263 . S
C2247 O2230 1.252 . S
C2247 C2241 1.500 . S
C2248 H2210 0.930 . S
C2248 C2224 1.417 . S
C2248 C2249 1.329 . S
C2249 C2219 1.437 . S
C2249 H2220 0.929 . S
C2249 C2248 1.329 . S
H2250 C2223 0.931 . S
C2251 O2233 1.263 1_545 S
C2251 O2234 1.242 . S
C2252 O2237 1.261 . S
C2252 O2238 1.252 1_565 S
C2253 C2256 1.394 . S
C2253 C2258 1.370 . S
C2253 C2259 1.500 . S
C2254 C2257 1.383 . S
C2254 C2258 1.395 . S
C2255 C2256 1.396 . S
C2255 C2257 1.365 . S
C2255 H2264 0.929 . S
C2256 C2253 1.394 . S
C2256 C2255 1.396 . S
C2256 H2265 0.930 . S
C2257 C2254 1.383 . S
C2257 C2255 1.365 . S
C2257 H2266 0.931 . S
C2258 C2253 1.370 . S
C2258 C2254 1.395 . S
C2258 H2267 0.930 . S
C2259 Gd2195 2.805 . S
C2259 O2235 1.263 . S
C2259 O2236 1.252 . S
C2259 C2253 1.500 . S
H2260 C2243 0.929 . S
H2261 C2244 0.930 . S
H2262 C2245 0.931 . S
H2263 C2246 0.930 . S
H2264 C2255 0.929 . S
H2265 C2256 0.930 . S
H2266 C2257 0.931 . S
H2267 C2258 0.930 . S
C2268 C2270 1.422 1_554 S
C2268 C2272 1.415 . S
C2268 N2274 1.369 . S
C2269 C2270 1.421 . S
C2269 C2271 1.417 . S
C2269 C2281 1.422 . S
C2270 C2268 1.422 1_556 S
C2270 C2269 1.421 . S
C2270 N2280 1.359 . S
C2271 C2269 1.417 . S
C2271 C2273 1.329 1_556 S
C2271 H2290 0.930 . S
C2272 C2268 1.415 . S
C2272 C2273 1.437 . S
C2272 C2276 1.413 . S
C2273 C2271 1.329 1_554 S
C2273 C2272 1.437 . S
C2273 H2295 0.929 . S
N2274 C2268 1.369 . S
N2274 C2275 1.338 . S
N2274 Gd2279 2.622 . S
C2275 N2274 1.338 . S
C2275 C2277 1.378 . S
C2275 H2287 0.929 . S
C2276 C2272 1.413 . S
C2276 C2277 1.348 . S
C2276 H2292 0.931 . S
C2277 C2275 1.378 . S
C2277 C2276 1.348 . S
C2277 H2293 0.930 . S
Gd2278 N2298 2.622 . S
Gd2278 N2305 2.570 . S
Gd2278 O2312 2.353 . S
Gd2278 O2313 2.468 . S
Gd2278 O2314 2.427 . S
Gd2278 O2316 2.388 . S
Gd2278 O2317 2.386 . S
Gd2278 O2321 2.307 . S
Gd2278 C2331 2.805 . S
Gd2279 N2274 2.622 . S
Gd2279 N2280 2.570 1_554 S
Gd2279 O2311 2.386 1_554 S
Gd2279 O2315 2.307 1_554 S
Gd2279 O2318 2.353 . S
Gd2279 O2319 2.468 . S
Gd2279 O2320 2.427 . S
Gd2279 O2322 2.388 . S
Gd2279 C2343 2.805 . S
N2280 C2270 1.359 . S
N2280 Gd2279 2.570 1_556 S
N2280 C2282 1.343 . S
C2281 C2269 1.422 . S
C2281 C2283 1.321 . S
C2281 H2289 0.931 . S
C2282 N2280 1.343 . S
C2282 C2283 1.390 . S
C2282 H2284 0.931 . S
C2283 C2281 1.321 . S
C2283 C2282 1.390 . S
C2283 H2285 0.930 . S
H2284 C2282 0.931 . S
H2285 C2283 0.930 . S
H2286 C2309 0.931 . S
H2287 C2275 0.929 . S
H2288 C2310 0.930 . S
H2289 C2281 0.931 . S
H2290 C2271 0.930 . S
H2291 C2300 0.929 . S
H2292 C2276 0.931 . S
H2293 C2277 0.930 . S
H2294 C2332 0.930 . S
H2295 C2273 0.929 . S
H2296 C2301 0.931 . S
H2297 C2302 0.930 . S
N2298 Gd2278 2.622 . S
N2298 C2299 1.369 . S
N2298 C2300 1.338 . S
C2299 N2298 1.369 . S
C2299 C2303 1.415 . S
C2299 C2306 1.422 . S
C2300 H2291 0.929 . S
C2300 N2298 1.338 . S
C2300 C2302 1.378 . S
C2301 H2296 0.931 . S
C2301 C2302 1.348 . S
C2301 C2303 1.413 . S
C2302 H2297 0.930 . S
C2302 C2300 1.378 . S
C2302 C2301 1.348 . S
C2303 C2299 1.415 . S
C2303 C2301 1.413 . S
C2303 C2333 1.437 . S
H2304 C2333 0.929 . S
N2305 Gd2278 2.570 . S
N2305 C2306 1.359 . S
N2305 C2309 1.343 . S
C2306 C2299 1.422 . S
C2306 N2305 1.359 . S
C2306 C2308 1.421 . S
C2307 C2308 1.422 . S
C2307 C2310 1.321 . S
C2307 H2334 0.931 . S
C2308 C2306 1.421 . S
C2308 C2307 1.422 . S
C2308 C2332 1.417 . S
C2309 H2286 0.931 . S
C2309 N2305 1.343 . S
C2309 C2310 1.390 . S
C2310 H2288 0.930 . S
C2310 C2307 1.321 . S
C2310 C2309 1.390 . S
O2311 Gd2279 2.386 1_556 S
O2311 C2323 1.265 . S
O2312 Gd2278 2.353 . S
O2312 C2323 1.242 . S
O2313 Gd2278 2.468 . S
O2313 C2331 1.263 . S
O2314 Gd2278 2.427 . S
O2314 C2331 1.252 . S
O2315 Gd2279 2.307 1_556 S
O2315 C2324 1.261 . S
O2316 Gd2278 2.388 . S
O2316 C2324 1.252 . S
O2317 Gd2278 2.386 . S
O2317 C2335 1.265 1_556 S
O2318 Gd2279 2.353 . S
O2318 C2335 1.242 . S
O2319 Gd2279 2.468 . S
O2319 C2343 1.263 . S
O2320 Gd2279 2.427 . S
O2320 C2343 1.252 . S
O2321 Gd2278 2.307 . S
O2321 C2336 1.261 . S
O2322 Gd2279 2.388 . S
O2322 C2336 1.252 1_554 S
C2323 O2311 1.265 . S
C2323 O2312 1.242 . S
C2324 O2315 1.261 . S
C2324 O2316 1.252 . S
C2325 C2328 1.394 . S
C2325 C2330 1.370 . S
C2325 C2331 1.500 . S
C2326 C2329 1.383 . S
C2326 C2330 1.395 . S
C2327 C2328 1.396 . S
C2327 C2329 1.365 . S
C2327 H2344 0.929 . S
C2328 C2325 1.394 . S
C2328 C2327 1.396 . S
C2328 H2345 0.930 . S
C2329 C2326 1.383 . S
C2329 C2327 1.365 . S
C2329 H2346 0.931 . S
C2330 C2325 1.370 . S
C2330 C2326 1.395 . S
C2330 H2347 0.930 . S
C2331 Gd2278 2.805 . S
C2331 O2313 1.263 . S
C2331 O2314 1.252 . S
C2331 C2325 1.500 . S
C2332 H2294 0.930 . S
C2332 C2308 1.417 . S
C2332 C2333 1.329 . S
C2333 C2303 1.437 . S
C2333 H2304 0.929 . S
C2333 C2332 1.329 . S
H2334 C2307 0.931 . S
C2335 O2317 1.265 1_554 S
C2335 O2318 1.242 . S
C2336 O2321 1.261 . S
C2336 O2322 1.252 1_556 S
C2337 C2340 1.394 . S
C2337 C2342 1.370 . S
C2337 C2343 1.500 . S
C2338 C2341 1.383 . S
C2338 C2342 1.395 . S
C2339 C2340 1.396 . S
C2339 C2341 1.365 . S
C2339 H2348 0.929 . S
C2340 C2337 1.394 . S
C2340 C2339 1.396 . S
C2340 H2349 0.930 . S
C2341 C2338 1.383 . S
C2341 C2339 1.365 . S
C2341 H2350 0.931 . S
C2342 C2337 1.370 . S
C2342 C2338 1.395 . S
C2342 H2351 0.930 . S
C2343 Gd2279 2.805 . S
C2343 O2319 1.263 . S
C2343 O2320 1.252 . S
C2343 C2337 1.500 . S
H2344 C2327 0.929 . S
H2345 C2328 0.930 . S
H2346 C2329 0.931 . S
H2347 C2330 0.930 . S
H2348 C2339 0.929 . S
H2349 C2340 0.930 . S
H2350 C2341 0.931 . S
H2351 C2342 0.930 . S
C2352 C2354 1.422 . S
C2352 C2356 1.415 . S
C2352 N2358 1.369 . S
C2353 C2354 1.421 . S
C2353 C2355 1.417 . S
C2353 C2365 1.422 . S
C2354 C2352 1.422 . S
C2354 C2353 1.421 . S
C2354 N2364 1.359 . S
C2355 C2353 1.417 . S
C2355 C2357 1.329 . S
C2355 H2374 0.930 . S
C2356 C2352 1.415 . S
C2356 C2357 1.437 . S
C2356 C2360 1.413 . S
C2357 C2355 1.329 . S
C2357 C2356 1.437 . S
C2357 H2379 0.929 . S
N2358 C2352 1.369 . S
N2358 C2359 1.338 . S
N2358 Gd2363 2.622 . S
C2359 N2358 1.338 . S
C2359 C2361 1.378 . S
C2359 H2371 0.929 . S
C2360 C2356 1.413 . S
C2360 C2361 1.348 . S
C2360 H2376 0.931 . S
C2361 C2359 1.378 . S
C2361 C2360 1.348 . S
C2361 H2377 0.930 . S
Gd2362 N2382 2.622 . S
Gd2362 N2389 2.570 . S
Gd2362 O2396 2.353 1_655 S
Gd2362 O2397 2.468 . S
Gd2362 O2398 2.427 . S
Gd2362 O2400 2.388 1_655 S
Gd2362 O2401 2.386 1_655 S
Gd2362 O2405 2.307 . S
Gd2362 C2415 2.805 . S
Gd2363 N2358 2.622 . S
Gd2363 N2364 2.570 . S
Gd2363 O2395 2.386 . S
Gd2363 O2399 2.307 . S
Gd2363 O2402 2.353 . S
Gd2363 O2403 2.468 . S
Gd2363 O2404 2.427 . S
Gd2363 O2406 2.388 . S
Gd2363 C2427 2.805 . S
N2364 C2354 1.359 . S
N2364 Gd2363 2.570 . S
N2364 C2366 1.343 . S
C2365 C2353 1.422 . S
C2365 C2367 1.321 . S
C2365 H2373 0.931 . S
C2366 N2364 1.343 . S
C2366 C2367 1.390 . S
C2366 H2368 0.931 . S
C2367 C2365 1.321 . S
C2367 C2366 1.390 . S
C2367 H2369 0.930 . S
H2368 C2366 0.931 . S
H2369 C2367 0.930 . S
H2370 C2393 0.931 . S
H2371 C2359 0.929 . S
H2372 C2394 0.930 . S
H2373 C2365 0.931 . S
H2374 C2355 0.930 . S
H2375 C2384 0.926 1_455 S
H2376 C2360 0.931 . S
H2377 C2361 0.930 . S
H2378 C2416 0.930 . S
H2379 C2357 0.929 . S
H2380 C2385 0.931 . S
H2381 C2386 0.930 1_455 S
N2382 Gd2362 2.622 . S
N2382 C2383 1.369 . S
N2382 C2384 1.340 . S
C2383 N2382 1.369 . S
C2383 C2387 1.415 . S
C2383 C2390 1.422 . S
C2384 H2375 0.926 1_655 S
C2384 N2382 1.340 . S
C2384 C2386 1.379 . S
C2385 H2380 0.931 . S
C2385 C2386 1.348 . S
C2385 C2387 1.413 . S
C2386 H2381 0.930 1_655 S
C2386 C2384 1.379 . S
C2386 C2385 1.348 . S
C2387 C2383 1.415 . S
C2387 C2385 1.413 . S
C2387 C2417 1.437 . S
H2388 C2417 0.929 . S
N2389 Gd2362 2.570 . S
N2389 C2390 1.359 . S
N2389 C2393 1.343 . S
C2390 C2383 1.422 . S
C2390 N2389 1.359 . S
C2390 C2392 1.421 . S
C2391 C2392 1.422 . S
C2391 C2394 1.321 . S
C2391 H2418 0.931 . S
C2392 C2390 1.421 . S
C2392 C2391 1.422 . S
C2392 C2416 1.417 . S
C2393 H2370 0.931 . S
C2393 N2389 1.343 . S
C2393 C2394 1.390 . S
C2394 H2372 0.930 . S
C2394 C2391 1.321 . S
C2394 C2393 1.390 . S
O2395 Gd2363 2.386 . S
O2395 C2407 1.265 . S
O2396 Gd2362 2.353 1_455 S
O2396 C2407 1.242 . S
O2397 Gd2362 2.468 . S
O2397 C2415 1.263 . S
O2398 Gd2362 2.427 . S
O2398 C2415 1.252 . S
O2399 Gd2363 2.307 . S
O2399 C2408 1.261 . S
O2400 Gd2362 2.388 1_455 S
O2400 C2408 1.252 . S
O2401 Gd2362 2.386 1_455 S
O2401 C2419 1.264 . S
O2402 Gd2363 2.353 . S
O2402 C2419 1.242 . S
O2403 Gd2363 2.468 . S
O2403 C2427 1.263 . S
O2404 Gd2363 2.427 . S
O2404 C2427 1.252 . S
O2405 Gd2362 2.307 . S
O2405 C2420 1.261 . S
O2406 Gd2363 2.388 . S
O2406 C2420 1.252 1_455 S
C2407 O2395 1.265 . S
C2407 O2396 1.242 . S
C2408 O2399 1.261 . S
C2408 O2400 1.252 . S
C2409 C2412 1.394 . S
C2409 C2414 1.370 . S
C2409 C2415 1.500 . S
C2410 C2413 1.383 . S
C2410 C2414 1.395 . S
C2411 C2412 1.396 . S
C2411 C2413 1.365 . S
C2411 H2428 0.929 . S
C2412 C2409 1.394 . S
C2412 C2411 1.396 . S
C2412 H2429 0.930 . S
C2413 C2410 1.383 . S
C2413 C2411 1.365 . S
C2413 H2430 0.931 . S
C2414 C2409 1.370 . S
C2414 C2410 1.395 . S
C2414 H2431 0.930 . S
C2415 Gd2362 2.805 . S
C2415 O2397 1.263 . S
C2415 O2398 1.252 . S
C2415 C2409 1.500 . S
C2416 H2378 0.930 . S
C2416 C2392 1.417 . S
C2416 C2417 1.329 . S
C2417 C2387 1.437 . S
C2417 H2388 0.929 . S
C2417 C2416 1.329 . S
H2418 C2391 0.931 . S
C2419 O2401 1.264 . S
C2419 O2402 1.242 . S
C2420 O2405 1.261 . S
C2420 O2406 1.252 1_655 S
C2421 C2424 1.394 . S
C2421 C2426 1.370 . S
C2421 C2427 1.500 . S
C2422 C2425 1.383 . S
C2422 C2426 1.395 . S
C2423 C2424 1.396 . S
C2423 C2425 1.365 . S
C2423 H2432 0.929 . S
C2424 C2421 1.394 . S
C2424 C2423 1.396 . S
C2424 H2433 0.930 . S
C2425 C2422 1.383 . S
C2425 C2423 1.365 . S
C2425 H2434 0.931 . S
C2426 C2421 1.370 . S
C2426 C2422 1.395 . S
C2426 H2435 0.930 . S
C2427 Gd2363 2.805 . S
C2427 O2403 1.263 . S
C2427 O2404 1.252 . S
C2427 C2421 1.500 . S
H2428 C2411 0.929 . S
H2429 C2412 0.930 . S
H2430 C2413 0.931 . S
H2431 C2414 0.930 . S
H2432 C2423 0.929 . S
H2433 C2424 0.930 . S
H2434 C2425 0.931 . S
H2435 C2426 0.930 . S
C2436 C2438 1.422 . S
C2436 C2440 1.415 . S
C2436 N2442 1.369 . S
C2437 C2438 1.421 . S
C2437 C2439 1.417 . S
C2437 C2449 1.422 . S
C2438 C2436 1.422 . S
C2438 C2437 1.421 . S
C2438 N2448 1.359 . S
C2439 C2437 1.417 . S
C2439 C2441 1.329 . S
C2439 H2458 0.930 . S
C2440 C2436 1.415 . S
C2440 C2441 1.437 . S
C2440 C2444 1.413 . S
C2441 C2439 1.329 . S
C2441 C2440 1.437 . S
C2441 H2463 0.929 . S
N2442 C2436 1.369 . S
N2442 C2443 1.338 . S
N2442 Gd2447 2.622 . S
C2443 N2442 1.338 . S
C2443 C2445 1.378 . S
C2443 H2455 0.929 . S
C2444 C2440 1.413 . S
C2444 C2445 1.348 . S
C2444 H2460 0.931 . S
C2445 C2443 1.378 . S
C2445 C2444 1.348 . S
C2445 H2461 0.930 . S
Gd2446 N2466 2.622 . S
Gd2446 N2473 2.570 . S
Gd2446 O2480 2.353 . S
Gd2446 O2481 2.468 . S
Gd2446 O2482 2.427 . S
Gd2446 O2484 2.388 . S
Gd2446 O2485 2.386 . S
Gd2446 O2489 2.307 . S
Gd2446 C2499 2.805 . S
Gd2447 N2442 2.622 . S
Gd2447 N2448 2.570 . S
Gd2447 O2479 2.386 . S
Gd2447 O2483 2.307 . S
Gd2447 O2486 2.353 . S
Gd2447 O2487 2.468 . S
Gd2447 O2488 2.427 . S
Gd2447 O2490 2.388 . S
Gd2447 C2511 2.805 . S
N2448 C2438 1.359 . S
N2448 Gd2447 2.570 . S
N2448 C2450 1.343 . S
C2449 C2437 1.422 . S
C2449 C2451 1.321 . S
C2449 H2457 0.931 . S
C2450 N2448 1.343 . S
C2450 C2451 1.390 . S
C2450 H2452 0.931 . S
C2451 C2449 1.321 . S
C2451 C2450 1.390 . S
C2451 H2453 0.930 . S
H2452 C2450 0.931 . S
H2453 C2451 0.930 . S
H2454 C2477 0.931 . S
H2455 C2443 0.929 . S
H2456 C2478 0.930 . S
H2457 C2449 0.931 . S
H2458 C2439 0.930 . S
H2459 C2468 0.929 . S
H2460 C2444 0.931 . S
H2461 C2445 0.930 . S
H2462 C2500 0.930 . S
H2463 C2441 0.929 . S
H2464 C2469 0.931 . S
H2465 C2470 0.930 . S
N2466 Gd2446 2.622 . S
N2466 C2467 1.369 . S
N2466 C2468 1.338 . S
C2467 N2466 1.369 . S
C2467 C2471 1.415 . S
C2467 C2474 1.422 . S
C2468 H2459 0.929 . S
C2468 N2466 1.338 . S
C2468 C2470 1.378 . S
C2469 H2464 0.931 . S
C2469 C2470 1.348 . S
C2469 C2471 1.413 . S
C2470 H2465 0.930 . S
C2470 C2468 1.378 . S
C2470 C2469 1.348 . S
C2471 C2467 1.415 . S
C2471 C2469 1.413 . S
C2471 C2501 1.437 . S
H2472 C2501 0.929 . S
N2473 Gd2446 2.570 . S
N2473 C2474 1.359 . S
N2473 C2477 1.343 . S
C2474 C2467 1.422 . S
C2474 N2473 1.359 . S
C2474 C2476 1.421 . S
C2475 C2476 1.422 . S
C2475 C2478 1.321 . S
C2475 H2502 0.931 . S
C2476 C2474 1.421 . S
C2476 C2475 1.422 . S
C2476 C2500 1.417 . S
C2477 H2454 0.931 . S
C2477 N2473 1.343 . S
C2477 C2478 1.390 . S
C2478 H2456 0.930 . S
C2478 C2475 1.321 . S
C2478 C2477 1.390 . S
O2479 Gd2447 2.386 . S
O2479 C2491 1.265 . S
O2480 Gd2446 2.353 . S
O2480 C2491 1.242 . S
O2481 Gd2446 2.468 . S
O2481 C2499 1.263 . S
O2482 Gd2446 2.427 . S
O2482 C2499 1.252 . S
O2483 Gd2447 2.307 . S
O2483 C2492 1.261 . S
O2484 Gd2446 2.388 . S
O2484 C2492 1.252 . S
O2485 Gd2446 2.386 . S
O2485 C2503 1.265 . S
O2486 Gd2447 2.353 . S
O2486 C2503 1.242 . S
O2487 Gd2447 2.468 . S
O2487 C2511 1.263 . S
O2488 Gd2447 2.427 . S
O2488 C2511 1.252 . S
O2489 Gd2446 2.307 . S
O2489 C2504 1.261 . S
O2490 Gd2447 2.388 . S
O2490 C2504 1.252 . S
C2491 O2479 1.265 . S
C2491 O2480 1.242 . S
C2492 O2483 1.261 . S
C2492 O2484 1.252 . S
C2493 C2496 1.394 . S
C2493 C2498 1.370 . S
C2493 C2499 1.500 . S
C2494 C2497 1.383 . S
C2494 C2498 1.395 . S
C2495 C2496 1.396 . S
C2495 C2497 1.365 . S
C2495 H2512 0.929 . S
C2496 C2493 1.394 . S
C2496 C2495 1.396 . S
C2496 H2513 0.930 . S
C2497 C2494 1.383 . S
C2497 C2495 1.365 . S
C2497 H2514 0.931 . S
C2498 C2493 1.370 . S
C2498 C2494 1.395 . S
C2498 H2515 0.930 . S
C2499 Gd2446 2.805 . S
C2499 O2481 1.263 . S
C2499 O2482 1.252 . S
C2499 C2493 1.500 . S
C2500 H2462 0.930 . S
C2500 C2476 1.417 . S
C2500 C2501 1.329 . S
C2501 C2471 1.437 . S
C2501 H2472 0.929 . S
C2501 C2500 1.329 . S
H2502 C2475 0.931 . S
C2503 O2485 1.265 . S
C2503 O2486 1.242 . S
C2504 O2489 1.261 . S
C2504 O2490 1.252 . S
C2505 C2508 1.394 . S
C2505 C2510 1.370 . S
C2505 C2511 1.500 . S
C2506 C2509 1.383 . S
C2506 C2510 1.395 . S
C2507 C2508 1.396 . S
C2507 C2509 1.365 . S
C2507 H2516 0.929 . S
C2508 C2505 1.394 . S
C2508 C2507 1.396 . S
C2508 H2517 0.930 . S
C2509 C2506 1.383 . S
C2509 C2507 1.365 . S
C2509 H2518 0.931 . S
C2510 C2505 1.370 . S
C2510 C2506 1.395 . S
C2510 H2519 0.930 . S
C2511 Gd2447 2.805 . S
C2511 O2487 1.263 . S
C2511 O2488 1.252 . S
C2511 C2505 1.500 . S
H2512 C2495 0.929 . S
H2513 C2496 0.930 . S
H2514 C2497 0.931 . S
H2515 C2498 0.930 . S
H2516 C2507 0.929 . S
H2517 C2508 0.930 . S
H2518 C2509 0.931 . S
H2519 C2510 0.930 . S
C2520 C2522 1.422 . S
C2520 C2524 1.415 . S
C2520 N2526 1.369 . S
C2521 C2522 1.421 . S
C2521 C2523 1.417 . S
C2521 C2533 1.422 . S
C2522 C2520 1.422 . S
C2522 C2521 1.421 . S
C2522 N2532 1.359 . S
C2523 C2521 1.417 . S
C2523 C2525 1.329 . S
C2523 H2542 0.930 . S
C2524 C2520 1.415 . S
C2524 C2525 1.437 . S
C2524 C2528 1.413 . S
C2525 C2523 1.329 . S
C2525 C2524 1.437 . S
C2525 H2547 0.929 . S
N2526 C2520 1.369 . S
N2526 C2527 1.338 . S
N2526 Gd2531 2.622 . S
C2527 N2526 1.338 . S
C2527 C2529 1.378 . S
C2527 H2539 0.929 . S
C2528 C2524 1.413 . S
C2528 C2529 1.348 . S
C2528 H2544 0.931 . S
C2529 C2527 1.378 . S
C2529 C2528 1.348 . S
C2529 H2545 0.930 . S
Gd2530 N2550 2.622 . S
Gd2530 N2557 2.570 . S
Gd2530 O2564 2.353 . S
Gd2530 O2565 2.468 . S
Gd2530 O2566 2.427 . S
Gd2530 O2568 2.388 . S
Gd2530 O2569 2.386 . S
Gd2530 O2573 2.307 . S
Gd2530 C2583 2.805 . S
Gd2531 N2526 2.622 . S
Gd2531 N2532 2.570 . S
Gd2531 O2563 2.386 . S
Gd2531 O2567 2.307 . S
Gd2531 O2570 2.353 . S
Gd2531 O2571 2.468 . S
Gd2531 O2572 2.427 . S
Gd2531 O2574 2.388 . S
Gd2531 C2595 2.805 . S
N2532 C2522 1.359 . S
N2532 Gd2531 2.570 . S
N2532 C2534 1.343 . S
C2533 C2521 1.422 . S
C2533 C2535 1.321 . S
C2533 H2541 0.931 . S
C2534 N2532 1.343 . S
C2534 C2535 1.390 . S
C2534 H2536 0.931 . S
C2535 C2533 1.321 . S
C2535 C2534 1.390 . S
C2535 H2537 0.930 . S
H2536 C2534 0.931 . S
H2537 C2535 0.930 . S
H2538 C2561 0.931 . S
H2539 C2527 0.929 . S
H2540 C2562 0.930 . S
H2541 C2533 0.931 . S
H2542 C2523 0.930 . S
H2543 C2552 0.929 . S
H2544 C2528 0.931 . S
H2545 C2529 0.930 . S
H2546 C2584 0.930 . S
H2547 C2525 0.929 . S
H2548 C2553 0.931 . S
H2549 C2554 0.930 . S
N2550 Gd2530 2.622 . S
N2550 C2551 1.369 . S
N2550 C2552 1.338 . S
C2551 N2550 1.369 . S
C2551 C2555 1.415 . S
C2551 C2558 1.422 . S
C2552 H2543 0.929 . S
C2552 N2550 1.338 . S
C2552 C2554 1.378 . S
C2553 H2548 0.931 . S
C2553 C2554 1.348 . S
C2553 C2555 1.413 . S
C2554 H2549 0.930 . S
C2554 C2552 1.378 . S
C2554 C2553 1.348 . S
C2555 C2551 1.415 . S
C2555 C2553 1.413 . S
C2555 C2585 1.437 . S
H2556 C2585 0.929 . S
N2557 Gd2530 2.570 . S
N2557 C2558 1.359 . S
N2557 C2561 1.343 . S
C2558 C2551 1.422 . S
C2558 N2557 1.359 . S
C2558 C2560 1.421 . S
C2559 C2560 1.422 . S
C2559 C2562 1.321 . S
C2559 H2586 0.931 . S
C2560 C2558 1.421 . S
C2560 C2559 1.422 . S
C2560 C2584 1.417 . S
C2561 H2538 0.931 . S
C2561 N2557 1.343 . S
C2561 C2562 1.390 . S
C2562 H2540 0.930 . S
C2562 C2559 1.321 . S
C2562 C2561 1.390 . S
O2563 Gd2531 2.386 . S
O2563 C2575 1.265 . S
O2564 Gd2530 2.353 . S
O2564 C2575 1.242 . S
O2565 Gd2530 2.468 . S
O2565 C2583 1.263 . S
O2566 Gd2530 2.427 . S
O2566 C2583 1.252 . S
O2567 Gd2531 2.307 . S
O2567 C2576 1.261 . S
O2568 Gd2530 2.388 . S
O2568 C2576 1.252 . S
O2569 Gd2530 2.386 . S
O2569 C2587 1.265 . S
O2570 Gd2531 2.353 . S
O2570 C2587 1.242 . S
O2571 Gd2531 2.468 . S
O2571 C2595 1.263 . S
O2572 Gd2531 2.427 . S
O2572 C2595 1.252 . S
O2573 Gd2530 2.307 . S
O2573 C2588 1.261 . S
O2574 Gd2531 2.388 . S
O2574 C2588 1.252 . S
C2575 O2563 1.265 . S
C2575 O2564 1.242 . S
C2576 O2567 1.261 . S
C2576 O2568 1.252 . S
C2577 C2580 1.394 . S
C2577 C2582 1.370 . S
C2577 C2583 1.500 . S
C2578 C2581 1.383 . S
C2578 C2582 1.395 . S
C2579 C2580 1.396 . S
C2579 C2581 1.365 . S
C2579 H2596 0.929 . S
C2580 C2577 1.394 . S
C2580 C2579 1.396 . S
C2580 H2597 0.930 . S
C2581 C2578 1.383 . S
C2581 C2579 1.365 . S
C2581 H2598 0.931 . S
C2582 C2577 1.370 . S
C2582 C2578 1.395 . S
C2582 H2599 0.930 . S
C2583 Gd2530 2.805 . S
C2583 O2565 1.263 . S
C2583 O2566 1.252 . S
C2583 C2577 1.500 . S
C2584 H2546 0.930 . S
C2584 C2560 1.417 . S
C2584 C2585 1.329 . S
C2585 C2555 1.437 . S
C2585 H2556 0.929 . S
C2585 C2584 1.329 . S
H2586 C2559 0.931 . S
C2587 O2569 1.265 . S
C2587 O2570 1.242 . S
C2588 O2573 1.261 . S
C2588 O2574 1.252 . S
C2589 C2592 1.394 . S
C2589 C2594 1.370 . S
C2589 C2595 1.500 . S
C2590 C2593 1.383 . S
C2590 C2594 1.395 . S
C2591 C2592 1.396 . S
C2591 C2593 1.365 . S
C2591 H2600 0.929 . S
C2592 C2589 1.394 . S
C2592 C2591 1.396 . S
C2592 H2601 0.930 . S
C2593 C2590 1.383 . S
C2593 C2591 1.365 . S
C2593 H2602 0.931 . S
C2594 C2589 1.370 . S
C2594 C2590 1.395 . S
C2594 H2603 0.930 . S
C2595 Gd2531 2.805 . S
C2595 O2571 1.263 . S
C2595 O2572 1.252 . S
C2595 C2589 1.500 . S
H2596 C2579 0.929 . S
H2597 C2580 0.930 . S
H2598 C2581 0.931 . S
H2599 C2582 0.930 . S
H2600 C2591 0.929 . S
H2601 C2592 0.930 . S
H2602 C2593 0.931 . S
H2603 C2594 0.930 . S
C2604 C2606 1.422 . S
C2604 C2608 1.415 . S
C2604 N2610 1.369 . S
C2605 C2606 1.421 . S
C2605 C2607 1.417 . S
C2605 C2617 1.422 . S
C2606 C2604 1.422 . S
C2606 C2605 1.421 . S
C2606 N2616 1.359 . S
C2607 C2605 1.417 . S
C2607 C2609 1.329 . S
C2607 H2626 0.930 . S
C2608 C2604 1.415 . S
C2608 C2609 1.437 . S
C2608 C2612 1.413 . S
C2609 C2607 1.329 . S
C2609 C2608 1.437 . S
C2609 H2631 0.929 . S
N2610 C2604 1.369 . S
N2610 C2611 1.338 . S
N2610 Gd2615 2.622 . S
C2611 N2610 1.338 . S
C2611 C2613 1.378 . S
C2611 H2623 0.929 . S
C2612 C2608 1.413 . S
C2612 C2613 1.348 . S
C2612 H2628 0.931 . S
C2613 C2611 1.378 . S
C2613 C2612 1.348 . S
C2613 H2629 0.930 . S
Gd2614 N2634 2.622 . S
Gd2614 N2641 2.570 1_455 S
Gd2614 O2648 2.353 . S
Gd2614 O2649 2.468 . S
Gd2614 O2650 2.427 . S
Gd2614 O2652 2.388 . S
Gd2614 O2653 2.386 1_455 S
Gd2614 O2657 2.307 1_455 S
Gd2614 C2667 2.805 . S
Gd2615 N2610 2.622 . S
Gd2615 N2616 2.570 . S
Gd2615 O2647 2.386 . S
Gd2615 O2651 2.307 . S
Gd2615 O2654 2.353 . S
Gd2615 O2655 2.468 . S
Gd2615 O2656 2.427 . S
Gd2615 O2658 2.388 . S
Gd2615 C2679 2.805 . S
N2616 C2606 1.359 . S
N2616 Gd2615 2.570 . S
N2616 C2618 1.343 . S
C2617 C2605 1.422 . S
C2617 C2619 1.321 . S
C2617 H2625 0.931 . S
C2618 N2616 1.343 . S
C2618 C2619 1.390 . S
C2618 H2620 0.931 . S
C2619 C2617 1.321 . S
C2619 C2618 1.390 . S
C2619 H2621 0.930 . S
H2620 C2618 0.931 . S
H2621 C2619 0.930 . S
H2622 C2645 0.931 . S
H2623 C2611 0.929 . S
H2624 C2646 0.930 . S
H2625 C2617 0.931 . S
H2626 C2607 0.930 . S
H2627 C2636 0.929 . S
H2628 C2612 0.931 . S
H2629 C2613 0.930 . S
H2630 C2668 0.930 . S
H2631 C2609 0.929 . S
H2632 C2637 0.931 . S
H2633 C2638 0.930 . S
N2634 Gd2614 2.622 . S
N2634 C2635 1.369 . S
N2634 C2636 1.338 . S
C2635 N2634 1.369 . S
C2635 C2639 1.415 . S
C2635 C2642 1.422 1_455 S
C2636 H2627 0.929 . S
C2636 N2634 1.338 . S
C2636 C2638 1.378 . S
C2637 H2632 0.931 . S
C2637 C2638 1.348 . S
C2637 C2639 1.413 . S
C2638 H2633 0.930 . S
C2638 C2636 1.378 . S
C2638 C2637 1.348 . S
C2639 C2635 1.415 . S
C2639 C2637 1.413 . S
C2639 C2669 1.437 . S
H2640 C2669 0.929 . S
N2641 Gd2614 2.570 1_655 S
N2641 C2642 1.359 . S
N2641 C2645 1.343 . S
C2642 C2635 1.422 1_655 S
C2642 N2641 1.359 . S
C2642 C2644 1.421 . S
C2643 C2644 1.422 . S
C2643 C2646 1.321 . S
C2643 H2670 0.931 . S
C2644 C2642 1.421 . S
C2644 C2643 1.422 . S
C2644 C2668 1.417 . S
C2645 H2622 0.931 . S
C2645 N2641 1.343 . S
C2645 C2646 1.390 . S
C2646 H2624 0.930 . S
C2646 C2643 1.321 . S
C2646 C2645 1.390 . S
O2647 Gd2615 2.386 . S
O2647 C2659 1.265 1_655 S
O2648 Gd2614 2.353 . S
O2648 C2659 1.242 . S
O2649 Gd2614 2.468 . S
O2649 C2667 1.263 . S
O2650 Gd2614 2.427 . S
O2650 C2667 1.252 . S
O2651 Gd2615 2.307 . S
O2651 C2660 1.262 . S
O2652 Gd2614 2.388 . S
O2652 C2660 1.251 1_455 S
O2653 Gd2614 2.386 1_655 S
O2653 C2671 1.265 . S
O2654 Gd2615 2.353 . S
O2654 C2671 1.242 . S
O2655 Gd2615 2.468 . S
O2655 C2679 1.263 . S
O2656 Gd2615 2.427 . S
O2656 C2679 1.252 . S
O2657 Gd2614 2.307 1_655 S
O2657 C2672 1.261 . S
O2658 Gd2615 2.388 . S
O2658 C2672 1.252 . S
C2659 O2647 1.265 1_455 S
C2659 O2648 1.242 . S
C2660 O2651 1.262 . S
C2660 O2652 1.251 1_655 S
C2661 C2664 1.394 . S
C2661 C2666 1.370 . S
C2661 C2667 1.500 . S
C2662 C2665 1.383 . S
C2662 C2666 1.395 . S
C2663 C2664 1.396 . S
C2663 C2665 1.365 . S
C2663 H2680 0.929 . S
C2664 C2661 1.394 . S
C2664 C2663 1.396 . S
C2664 H2681 0.930 . S
C2665 C2662 1.383 . S
C2665 C2663 1.365 . S
C2665 H2682 0.931 . S
C2666 C2661 1.370 . S
C2666 C2662 1.395 . S
C2666 H2683 0.930 . S
C2667 Gd2614 2.805 . S
C2667 O2649 1.263 . S
C2667 O2650 1.252 . S
C2667 C2661 1.500 . S
C2668 H2630 0.930 . S
C2668 C2644 1.417 . S
C2668 C2669 1.329 1_655 S
C2669 C2639 1.437 . S
C2669 H2640 0.929 . S
C2669 C2668 1.329 1_455 S
H2670 C2643 0.931 . S
C2671 O2653 1.265 . S
C2671 O2654 1.242 . S
C2672 O2657 1.261 . S
C2672 O2658 1.252 . S
C2673 C2676 1.394 . S
C2673 C2678 1.370 . S
C2673 C2679 1.500 . S
C2674 C2677 1.383 . S
C2674 C2678 1.395 . S
C2675 C2676 1.396 . S
C2675 C2677 1.365 . S
C2675 H2684 0.929 . S
C2676 C2673 1.394 . S
C2676 C2675 1.396 . S
C2676 H2685 0.930 . S
C2677 C2674 1.383 . S
C2677 C2675 1.365 . S
C2677 H2686 0.931 . S
C2678 C2673 1.370 . S
C2678 C2674 1.395 . S
C2678 H2687 0.930 . S
C2679 Gd2615 2.805 . S
C2679 O2655 1.263 . S
C2679 O2656 1.252 . S
C2679 C2673 1.500 . S
H2680 C2663 0.929 . S
H2681 C2664 0.930 . S
H2682 C2665 0.931 . S
H2683 C2666 0.930 . S
H2684 C2675 0.929 . S
H2685 C2676 0.930 . S
H2686 C2677 0.931 . S
H2687 C2678 0.930 . S
C2688 C2690 1.422 . S
C2688 C2692 1.415 . S
C2688 N2694 1.369 . S
C2689 C2690 1.421 . S
C2689 C2691 1.417 . S
C2689 C2701 1.422 . S
C2690 C2688 1.422 . S
C2690 C2689 1.421 . S
C2690 N2700 1.359 . S
C2691 C2689 1.417 . S
C2691 C2693 1.329 . S
C2691 H2710 0.930 . S
C2692 C2688 1.415 . S
C2692 C2693 1.437 . S
C2692 C2696 1.413 . S
C2693 C2691 1.329 . S
C2693 C2692 1.437 . S
C2693 H2715 0.929 . S
N2694 C2688 1.369 . S
N2694 C2695 1.338 . S
N2694 Gd2699 2.622 . S
C2695 N2694 1.338 . S
C2695 C2697 1.378 . S
C2695 H2707 0.929 . S
C2696 C2692 1.413 . S
C2696 C2697 1.348 . S
C2696 H2712 0.931 . S
C2697 C2695 1.378 . S
C2697 C2696 1.348 . S
C2697 H2713 0.930 . S
Gd2698 N2718 2.622 . S
Gd2698 N2725 2.570 . S
Gd2698 O2732 2.353 . S
Gd2698 O2733 2.468 . S
Gd2698 O2734 2.427 . S
Gd2698 O2736 2.388 . S
Gd2698 O2737 2.386 . S
Gd2698 O2741 2.307 . S
Gd2698 C2751 2.805 . S
Gd2699 N2694 2.622 . S
Gd2699 N2700 2.570 . S
Gd2699 O2731 2.386 . S
Gd2699 O2735 2.307 . S
Gd2699 O2738 2.353 . S
Gd2699 O2739 2.468 . S
Gd2699 O2740 2.427 . S
Gd2699 O2742 2.388 . S
Gd2699 C2763 2.805 . S
N2700 C2690 1.359 . S
N2700 Gd2699 2.570 . S
N2700 C2702 1.343 . S
C2701 C2689 1.422 . S
C2701 C2703 1.321 . S
C2701 H2709 0.931 . S
C2702 N2700 1.343 . S
C2702 C2703 1.390 . S
C2702 H2704 0.931 . S
C2703 C2701 1.321 . S
C2703 C2702 1.390 . S
C2703 H2705 0.930 . S
H2704 C2702 0.931 . S
H2705 C2703 0.930 . S
H2706 C2729 0.931 . S
H2707 C2695 0.929 . S
H2708 C2730 0.930 . S
H2709 C2701 0.931 . S
H2710 C2691 0.930 . S
H2711 C2720 0.929 . S
H2712 C2696 0.931 . S
H2713 C2697 0.930 . S
H2714 C2752 0.930 . S
H2715 C2693 0.929 . S
H2716 C2721 0.931 . S
H2717 C2722 0.930 . S
N2718 Gd2698 2.622 . S
N2718 C2719 1.369 . S
N2718 C2720 1.338 . S
C2719 N2718 1.369 . S
C2719 C2723 1.415 . S
C2719 C2726 1.422 . S
C2720 H2711 0.929 . S
C2720 N2718 1.338 . S
C2720 C2722 1.378 . S
C2721 H2716 0.931 . S
C2721 C2722 1.348 . S
C2721 C2723 1.413 . S
C2722 H2717 0.930 . S
C2722 C2720 1.378 . S
C2722 C2721 1.348 . S
C2723 C2719 1.415 . S
C2723 C2721 1.413 . S
C2723 C2753 1.437 . S
H2724 C2753 0.929 . S
N2725 Gd2698 2.570 . S
N2725 C2726 1.359 . S
N2725 C2729 1.343 . S
C2726 C2719 1.422 . S
C2726 N2725 1.359 . S
C2726 C2728 1.421 . S
C2727 C2728 1.422 . S
C2727 C2730 1.321 . S
C2727 H2754 0.931 . S
C2728 C2726 1.421 . S
C2728 C2727 1.422 . S
C2728 C2752 1.417 . S
C2729 H2706 0.931 . S
C2729 N2725 1.343 . S
C2729 C2730 1.390 . S
C2730 H2708 0.930 . S
C2730 C2727 1.321 . S
C2730 C2729 1.390 . S
O2731 Gd2699 2.386 . S
O2731 C2743 1.265 . S
O2732 Gd2698 2.353 . S
O2732 C2743 1.242 . S
O2733 Gd2698 2.468 . S
O2733 C2751 1.263 . S
O2734 Gd2698 2.427 . S
O2734 C2751 1.252 . S
O2735 Gd2699 2.307 . S
O2735 C2744 1.261 . S
O2736 Gd2698 2.388 . S
O2736 C2744 1.252 . S
O2737 Gd2698 2.386 . S
O2737 C2755 1.265 . S
O2738 Gd2699 2.353 . S
O2738 C2755 1.242 . S
O2739 Gd2699 2.468 . S
O2739 C2763 1.263 . S
O2740 Gd2699 2.427 . S
O2740 C2763 1.252 . S
O2741 Gd2698 2.307 . S
O2741 C2756 1.261 . S
O2742 Gd2699 2.388 . S
O2742 C2756 1.252 . S
C2743 O2731 1.265 . S
C2743 O2732 1.242 . S
C2744 O2735 1.261 . S
C2744 O2736 1.252 . S
C2745 C2748 1.394 . S
C2745 C2750 1.370 . S
C2745 C2751 1.500 . S
C2746 C2749 1.383 . S
C2746 C2750 1.395 . S
C2747 C2748 1.396 . S
C2747 C2749 1.365 . S
C2747 H2764 0.929 . S
C2748 C2745 1.394 . S
C2748 C2747 1.396 . S
C2748 H2765 0.930 . S
C2749 C2746 1.383 . S
C2749 C2747 1.365 . S
C2749 H2766 0.931 . S
C2750 C2745 1.370 . S
C2750 C2746 1.395 . S
C2750 H2767 0.930 . S
C2751 Gd2698 2.805 . S
C2751 O2733 1.263 . S
C2751 O2734 1.252 . S
C2751 C2745 1.500 . S
C2752 H2714 0.930 . S
C2752 C2728 1.417 . S
C2752 C2753 1.329 . S
C2753 C2723 1.437 . S
C2753 H2724 0.929 . S
C2753 C2752 1.329 . S
H2754 C2727 0.931 . S
C2755 O2737 1.265 . S
C2755 O2738 1.242 . S
C2756 O2741 1.261 . S
C2756 O2742 1.252 . S
C2757 C2760 1.394 . S
C2757 C2762 1.370 . S
C2757 C2763 1.500 . S
C2758 C2761 1.383 . S
C2758 C2762 1.395 . S
C2759 C2760 1.396 . S
C2759 C2761 1.365 . S
C2759 H2768 0.929 . S
C2760 C2757 1.394 . S
C2760 C2759 1.396 . S
C2760 H2769 0.930 . S
C2761 C2758 1.383 . S
C2761 C2759 1.365 . S
C2761 H2770 0.931 . S
C2762 C2757 1.370 . S
C2762 C2758 1.395 . S
C2762 H2771 0.930 . S
C2763 Gd2699 2.805 . S
C2763 O2739 1.263 . S
C2763 O2740 1.252 . S
C2763 C2757 1.500 . S
H2764 C2747 0.929 . S
H2765 C2748 0.930 . S
H2766 C2749 0.931 . S
H2767 C2750 0.930 . S
H2768 C2759 0.929 . S
H2769 C2760 0.930 . S
H2770 C2761 0.931 . S
H2771 C2762 0.930 . S
C2772 C2774 1.422 . S
C2772 C2776 1.415 . S
C2772 N2778 1.369 . S
C2773 C2774 1.421 . S
C2773 C2775 1.417 . S
C2773 C2785 1.422 . S
C2774 C2772 1.422 . S
C2774 C2773 1.421 . S
C2774 N2784 1.359 . S
C2775 C2773 1.417 . S
C2775 C2777 1.329 . S
C2775 H2794 0.930 . S
C2776 C2772 1.415 . S
C2776 C2777 1.437 . S
C2776 C2780 1.413 . S
C2777 C2775 1.329 . S
C2777 C2776 1.437 . S
C2777 H2799 0.929 . S
N2778 C2772 1.369 . S
N2778 C2779 1.338 . S
N2778 Gd2783 2.622 . S
C2779 N2778 1.338 . S
C2779 C2781 1.378 . S
C2779 H2791 0.929 . S
C2780 C2776 1.413 . S
C2780 C2781 1.348 . S
C2780 H2796 0.931 . S
C2781 C2779 1.378 . S
C2781 C2780 1.348 . S
C2781 H2797 0.930 . S
Gd2782 N2802 2.622 . S
Gd2782 N2809 2.570 1_554 S
Gd2782 O2816 2.353 . S
Gd2782 O2817 2.468 . S
Gd2782 O2818 2.427 . S
Gd2782 O2820 2.388 . S
Gd2782 O2821 2.386 1_554 S
Gd2782 O2825 2.307 1_554 S
Gd2782 C2835 2.805 . S
Gd2783 N2778 2.622 . S
Gd2783 N2784 2.570 . S
Gd2783 O2815 2.386 . S
Gd2783 O2819 2.307 . S
Gd2783 O2822 2.353 . S
Gd2783 O2823 2.468 . S
Gd2783 O2824 2.427 . S
Gd2783 O2826 2.388 . S
Gd2783 C2847 2.805 . S
N2784 C2774 1.359 . S
N2784 Gd2783 2.570 . S
N2784 C2786 1.343 . S
C2785 C2773 1.422 . S
C2785 C2787 1.321 . S
C2785 H2793 0.931 . S
C2786 N2784 1.343 . S
C2786 C2787 1.390 . S
C2786 H2788 0.931 . S
C2787 C2785 1.321 . S
C2787 C2786 1.390 . S
C2787 H2789 0.930 . S
H2788 C2786 0.931 . S
H2789 C2787 0.930 . S
H2790 C2813 0.931 . S
H2791 C2779 0.929 . S
H2792 C2814 0.930 . S
H2793 C2785 0.931 . S
H2794 C2775 0.930 . S
H2795 C2804 0.929 . S
H2796 C2780 0.931 . S
H2797 C2781 0.930 . S
H2798 C2836 0.930 . S
H2799 C2777 0.929 . S
H2800 C2805 0.931 . S
H2801 C2806 0.930 . S
N2802 Gd2782 2.622 . S
N2802 C2803 1.369 . S
N2802 C2804 1.338 . S
C2803 N2802 1.369 . S
C2803 C2807 1.415 . S
C2803 C2810 1.422 1_554 S
C2804 H2795 0.929 . S
C2804 N2802 1.338 . S
C2804 C2806 1.378 . S
C2805 H2800 0.931 . S
C2805 C2806 1.348 . S
C2805 C2807 1.413 . S
C2806 H2801 0.930 . S
C2806 C2804 1.378 . S
C2806 C2805 1.348 . S
C2807 C2803 1.415 . S
C2807 C2805 1.413 . S
C2807 C2837 1.437 . S
H2808 C2837 0.929 . S
N2809 Gd2782 2.570 1_556 S
N2809 C2810 1.359 . S
N2809 C2813 1.343 . S
C2810 C2803 1.422 1_556 S
C2810 N2809 1.359 . S
C2810 C2812 1.421 . S
C2811 C2812 1.422 . S
C2811 C2814 1.321 . S
C2811 H2838 0.931 . S
C2812 C2810 1.421 . S
C2812 C2811 1.422 . S
C2812 C2836 1.417 . S
C2813 H2790 0.931 . S
C2813 N2809 1.343 . S
C2813 C2814 1.390 . S
C2814 H2792 0.930 . S
C2814 C2811 1.321 . S
C2814 C2813 1.390 . S
O2815 Gd2783 2.386 . S
O2815 C2827 1.265 1_556 S
O2816 Gd2782 2.353 . S
O2816 C2827 1.242 . S
O2817 Gd2782 2.468 . S
O2817 C2835 1.263 . S
O2818 Gd2782 2.427 . S
O2818 C2835 1.252 . S
O2819 Gd2783 2.307 . S
O2819 C2828 1.278 . S
O2820 Gd2782 2.388 . S
O2820 C2828 1.236 1_554 S
O2821 Gd2782 2.386 1_556 S
O2821 C2839 1.265 . S
O2822 Gd2783 2.353 . S
O2822 C2839 1.242 . S
O2823 Gd2783 2.468 . S
O2823 C2847 1.263 . S
O2824 Gd2783 2.427 . S
O2824 C2847 1.252 . S
O2825 Gd2782 2.307 1_556 S
O2825 C2840 1.261 . S
O2826 Gd2783 2.388 . S
O2826 C2840 1.252 . S
C2827 O2815 1.265 1_554 S
C2827 O2816 1.242 . S
C2828 O2819 1.278 . S
C2828 O2820 1.236 1_556 S
C2829 C2832 1.394 . S
C2829 C2834 1.370 . S
C2829 C2835 1.500 . S
C2830 C2833 1.383 . S
C2830 C2834 1.395 . S
C2831 C2832 1.396 . S
C2831 C2833 1.365 . S
C2831 H2848 0.929 . S
C2832 C2829 1.394 . S
C2832 C2831 1.396 . S
C2832 H2849 0.930 . S
C2833 C2830 1.383 . S
C2833 C2831 1.365 . S
C2833 H2850 0.931 . S
C2834 C2829 1.370 . S
C2834 C2830 1.395 . S
C2834 H2851 0.930 . S
C2835 Gd2782 2.805 . S
C2835 O2817 1.263 . S
C2835 O2818 1.252 . S
C2835 C2829 1.500 . S
C2836 H2798 0.930 . S
C2836 C2812 1.417 . S
C2836 C2837 1.329 1_556 S
C2837 C2807 1.437 . S
C2837 H2808 0.929 . S
C2837 C2836 1.329 1_554 S
H2838 C2811 0.931 . S
C2839 O2821 1.265 . S
C2839 O2822 1.242 . S
C2840 O2825 1.261 . S
C2840 O2826 1.252 . S
C2841 C2844 1.394 . S
C2841 C2846 1.370 . S
C2841 C2847 1.500 . S
C2842 C2845 1.383 . S
C2842 C2846 1.395 . S
C2843 C2844 1.396 . S
C2843 C2845 1.365 . S
C2843 H2852 0.929 . S
C2844 C2841 1.394 . S
C2844 C2843 1.396 . S
C2844 H2853 0.930 . S
C2845 C2842 1.383 . S
C2845 C2843 1.365 . S
C2845 H2854 0.931 . S
C2846 C2841 1.370 . S
C2846 C2842 1.395 . S
C2846 H2855 0.930 . S
C2847 Gd2783 2.805 . S
C2847 O2823 1.263 . S
C2847 O2824 1.252 . S
C2847 C2841 1.500 . S
H2848 C2831 0.929 . S
H2849 C2832 0.930 . S
H2850 C2833 0.931 . S
H2851 C2834 0.930 . S
H2852 C2843 0.929 . S
H2853 C2844 0.930 . S
H2854 C2845 0.931 . S
H2855 C2846 0.930 . S
C2856 C2858 1.422 . S
C2856 C2860 1.415 . S
C2856 N2862 1.369 . S
C2857 C2858 1.421 . S
C2857 C2859 1.417 . S
C2857 C2869 1.422 . S
C2858 C2856 1.422 . S
C2858 C2857 1.421 . S
C2858 N2868 1.359 . S
C2859 C2857 1.417 . S
C2859 C2861 1.329 . S
C2859 H2878 0.930 . S
C2860 C2856 1.415 . S
C2860 C2861 1.437 . S
C2860 C2864 1.413 . S
C2861 C2859 1.329 . S
C2861 C2860 1.437 . S
C2861 H2883 0.929 . S
N2862 C2856 1.369 . S
N2862 C2863 1.338 . S
N2862 Gd2867 2.622 . S
C2863 N2862 1.338 . S
C2863 C2865 1.378 . S
C2863 H2875 0.929 . S
C2864 C2860 1.413 . S
C2864 C2865 1.348 . S
C2864 H2880 0.931 . S
C2865 C2863 1.378 . S
C2865 C2864 1.348 . S
C2865 H2881 0.930 . S
Gd2866 N2886 2.622 . S
Gd2866 N2893 2.570 . S
Gd2866 O2900 2.353 . S
Gd2866 O2901 2.468 . S
Gd2866 O2902 2.427 . S
Gd2866 O2904 2.388 . S
Gd2866 O2905 2.386 . S
Gd2866 O2909 2.307 . S
Gd2866 C2919 2.805 . S
Gd2867 N2862 2.622 . S
Gd2867 N2868 2.570 . S
Gd2867 O2899 2.386 . S
Gd2867 O2903 2.307 . S
Gd2867 O2906 2.353 . S
Gd2867 O2907 2.468 . S
Gd2867 O2908 2.427 . S
Gd2867 O2910 2.388 . S
Gd2867 C2931 2.805 . S
N2868 C2858 1.359 . S
N2868 Gd2867 2.570 . S
N2868 C2870 1.343 . S
C2869 C2857 1.422 . S
C2869 C2871 1.321 . S
C2869 H2877 0.931 . S
C2870 N2868 1.343 . S
C2870 C2871 1.390 . S
C2870 H2872 0.931 . S
C2871 C2869 1.321 . S
C2871 C2870 1.390 . S
C2871 H2873 0.930 . S
H2872 C2870 0.931 . S
H2873 C2871 0.930 . S
H2874 C2897 0.931 . S
H2875 C2863 0.929 . S
H2876 C2898 0.930 . S
H2877 C2869 0.931 . S
H2878 C2859 0.930 . S
H2879 C2888 0.929 . S
H2880 C2864 0.931 . S
H2881 C2865 0.930 . S
H2882 C2920 0.930 . S
H2883 C2861 0.929 . S
H2884 C2889 0.931 . S
H2885 C2890 0.930 . S
N2886 Gd2866 2.622 . S
N2886 C2887 1.369 . S
N2886 C2888 1.338 . S
C2887 N2886 1.369 . S
C2887 C2891 1.415 . S
C2887 C2894 1.422 . S
C2888 H2879 0.929 . S
C2888 N2886 1.338 . S
C2888 C2890 1.378 . S
C2889 H2884 0.931 . S
C2889 C2890 1.348 . S
C2889 C2891 1.413 . S
C2890 H2885 0.930 . S
C2890 C2888 1.378 . S
C2890 C2889 1.348 . S
C2891 C2887 1.415 . S
C2891 C2889 1.413 . S
C2891 C2921 1.437 . S
H2892 C2921 0.929 . S
N2893 Gd2866 2.570 . S
N2893 C2894 1.359 . S
N2893 C2897 1.343 . S
C2894 C2887 1.422 . S
C2894 N2893 1.359 . S
C2894 C2896 1.421 . S
C2895 C2896 1.422 . S
C2895 C2898 1.321 . S
C2895 H2922 0.931 . S
C2896 C2894 1.421 . S
C2896 C2895 1.422 . S
C2896 C2920 1.417 . S
C2897 H2874 0.931 . S
C2897 N2893 1.343 . S
C2897 C2898 1.390 . S
C2898 H2876 0.930 . S
C2898 C2895 1.321 . S
C2898 C2897 1.390 . S
O2899 Gd2867 2.386 . S
O2899 C2911 1.265 . S
O2900 Gd2866 2.353 . S
O2900 C2911 1.242 . S
O2901 Gd2866 2.468 . S
O2901 C2919 1.263 . S
O2902 Gd2866 2.427 . S
O2902 C2919 1.252 . S
O2903 Gd2867 2.307 . S
O2903 C2912 1.261 . S
O2904 Gd2866 2.388 . S
O2904 C2912 1.252 . S
O2905 Gd2866 2.386 . S
O2905 C2923 1.265 . S
O2906 Gd2867 2.353 . S
O2906 C2923 1.242 . S
O2907 Gd2867 2.468 . S
O2907 C2931 1.263 . S
O2908 Gd2867 2.427 . S
O2908 C2931 1.252 . S
O2909 Gd2866 2.307 . S
O2909 C2924 1.261 . S
O2910 Gd2867 2.388 . S
O2910 C2924 1.252 . S
C2911 O2899 1.265 . S
C2911 O2900 1.242 . S
C2912 O2903 1.261 . S
C2912 O2904 1.252 . S
C2913 C2916 1.394 . S
C2913 C2918 1.370 . S
C2913 C2919 1.500 . S
C2914 C2917 1.383 . S
C2914 C2918 1.395 . S
C2915 C2916 1.396 . S
C2915 C2917 1.365 . S
C2915 H2932 0.929 . S
C2916 C2913 1.394 . S
C2916 C2915 1.396 . S
C2916 H2933 0.930 . S
C2917 C2914 1.383 . S
C2917 C2915 1.365 . S
C2917 H2934 0.931 . S
C2918 C2913 1.370 . S
C2918 C2914 1.395 . S
C2918 H2935 0.930 . S
C2919 Gd2866 2.805 . S
C2919 O2901 1.263 . S
C2919 O2902 1.252 . S
C2919 C2913 1.500 . S
C2920 H2882 0.930 . S
C2920 C2896 1.417 . S
C2920 C2921 1.329 . S
C2921 C2891 1.437 . S
C2921 H2892 0.929 . S
C2921 C2920 1.329 . S
H2922 C2895 0.931 . S
C2923 O2905 1.265 . S
C2923 O2906 1.242 . S
C2924 O2909 1.261 . S
C2924 O2910 1.252 . S
C2925 C2928 1.394 . S
C2925 C2930 1.370 . S
C2925 C2931 1.500 . S
C2926 C2929 1.383 . S
C2926 C2930 1.395 . S
C2927 C2928 1.396 . S
C2927 C2929 1.365 . S
C2927 H2936 0.929 . S
C2928 C2925 1.394 . S
C2928 C2927 1.396 . S
C2928 H2937 0.930 . S
C2929 C2926 1.383 . S
C2929 C2927 1.365 . S
C2929 H2938 0.931 . S
C2930 C2925 1.370 . S
C2930 C2926 1.395 . S
C2930 H2939 0.930 . S
C2931 Gd2867 2.805 . S
C2931 O2907 1.263 . S
C2931 O2908 1.252 . S
C2931 C2925 1.500 . S
H2932 C2915 0.929 . S
H2933 C2916 0.930 . S
H2934 C2917 0.931 . S
H2935 C2918 0.930 . S
H2936 C2927 0.929 . S
H2937 C2928 0.930 . S
H2938 C2929 0.931 . S
H2939 C2930 0.930 . S
C2940 C2942 1.422 . S
C2940 C2944 1.415 . S
C2940 N2946 1.369 . S
C2941 C2942 1.421 . S
C2941 C2943 1.417 . S
C2941 C2953 1.422 . S
C2942 C2940 1.422 . S
C2942 C2941 1.421 . S
C2942 N2952 1.359 . S
C2943 C2941 1.417 . S
C2943 C2945 1.329 . S
C2943 H2962 0.930 . S
C2944 C2940 1.415 . S
C2944 C2945 1.437 . S
C2944 C2948 1.413 . S
C2945 C2943 1.329 . S
C2945 C2944 1.437 . S
C2945 H2967 0.929 . S
N2946 C2940 1.369 . S
N2946 C2947 1.338 . S
N2946 Gd2951 2.622 . S
C2947 N2946 1.338 . S
C2947 C2949 1.378 . S
C2947 H2959 0.929 . S
C2948 C2944 1.413 . S
C2948 C2949 1.348 . S
C2948 H2964 0.931 . S
C2949 C2947 1.378 . S
C2949 C2948 1.348 . S
C2949 H2965 0.930 . S
Gd2950 N2970 2.622 . S
Gd2950 N2977 2.570 . S
Gd2950 O2984 2.353 . S
Gd2950 O2985 2.468 . S
Gd2950 O2986 2.427 . S
Gd2950 O2988 2.388 . S
Gd2950 O2989 2.386 . S
Gd2950 O2993 2.307 . S
Gd2950 C3003 2.805 . S
Gd2951 N2946 2.622 . S
Gd2951 N2952 2.570 . S
Gd2951 O2983 2.386 . S
Gd2951 O2987 2.307 . S
Gd2951 O2990 2.353 . S
Gd2951 O2991 2.468 . S
Gd2951 O2992 2.427 . S
Gd2951 O2994 2.388 . S
Gd2951 C3015 2.805 . S
N2952 C2942 1.359 . S
N2952 Gd2951 2.570 . S
N2952 C2954 1.343 . S
C2953 C2941 1.422 . S
C2953 C2955 1.321 . S
C2953 H2961 0.931 . S
C2954 N2952 1.343 . S
C2954 C2955 1.390 . S
C2954 H2956 0.931 . S
C2955 C2953 1.321 . S
C2955 C2954 1.390 . S
C2955 H2957 0.930 . S
H2956 C2954 0.931 . S
H2957 C2955 0.930 . S
H2958 C2981 0.931 . S
H2959 C2947 0.929 . S
H2960 C2982 0.930 . S
H2961 C2953 0.931 . S
H2962 C2943 0.930 . S
H2963 C2972 0.929 . S
H2964 C2948 0.931 . S
H2965 C2949 0.930 . S
H2966 C3004 0.930 . S
H2967 C2945 0.929 . S
H2968 C2973 0.931 . S
H2969 C2974 0.930 . S
N2970 Gd2950 2.622 . S
N2970 C2971 1.369 . S
N2970 C2972 1.338 . S
C2971 N2970 1.369 . S
C2971 C2975 1.415 . S
C2971 C2978 1.422 . S
C2972 H2963 0.929 . S
C2972 N2970 1.338 . S
C2972 C2974 1.378 . S
C2973 H2968 0.931 . S
C2973 C2974 1.348 . S
C2973 C2975 1.413 . S
C2974 H2969 0.930 . S
C2974 C2972 1.378 . S
C2974 C2973 1.348 . S
C2975 C2971 1.415 . S
C2975 C2973 1.413 . S
C2975 C3005 1.437 . S
H2976 C3005 0.929 . S
N2977 Gd2950 2.570 . S
N2977 C2978 1.359 . S
N2977 C2981 1.343 . S
C2978 C2971 1.422 . S
C2978 N2977 1.359 . S
C2978 C2980 1.421 . S
C2979 C2980 1.422 . S
C2979 C2982 1.321 . S
C2979 H3006 0.931 . S
C2980 C2978 1.421 . S
C2980 C2979 1.422 . S
C2980 C3004 1.417 . S
C2981 H2958 0.931 . S
C2981 N2977 1.343 . S
C2981 C2982 1.390 . S
C2982 H2960 0.930 . S
C2982 C2979 1.321 . S
C2982 C2981 1.390 . S
O2983 Gd2951 2.386 . S
O2983 C2995 1.265 . S
O2984 Gd2950 2.353 . S
O2984 C2995 1.242 . S
O2985 Gd2950 2.468 . S
O2985 C3003 1.263 . S
O2986 Gd2950 2.427 . S
O2986 C3003 1.252 . S
O2987 Gd2951 2.307 . S
O2987 C2996 1.261 . S
O2988 Gd2950 2.388 . S
O2988 C2996 1.252 . S
O2989 Gd2950 2.386 . S
O2989 C3007 1.265 . S
O2990 Gd2951 2.353 . S
O2990 C3007 1.242 . S
O2991 Gd2951 2.468 . S
O2991 C3015 1.263 . S
O2992 Gd2951 2.427 . S
O2992 C3015 1.252 . S
O2993 Gd2950 2.307 . S
O2993 C3008 1.261 . S
O2994 Gd2951 2.388 . S
O2994 C3008 1.252 . S
C2995 O2983 1.265 . S
C2995 O2984 1.242 . S
C2996 O2987 1.261 . S
C2996 O2988 1.252 . S
C2997 C3000 1.394 . S
C2997 C3002 1.370 . S
C2997 C3003 1.500 . S
C2998 C3001 1.383 . S
C2998 C3002 1.395 . S
C2999 C3000 1.396 . S
C2999 C3001 1.365 . S
C2999 H3016 0.929 . S
C3000 C2997 1.394 . S
C3000 C2999 1.396 . S
C3000 H3017 0.930 . S
C3001 C2998 1.383 . S
C3001 C2999 1.365 . S
C3001 H3018 0.931 . S
C3002 C2997 1.370 . S
C3002 C2998 1.395 . S
C3002 H3019 0.930 . S
C3003 Gd2950 2.805 . S
C3003 O2985 1.263 . S
C3003 O2986 1.252 . S
C3003 C2997 1.500 . S
C3004 H2966 0.930 . S
C3004 C2980 1.417 . S
C3004 C3005 1.329 . S
C3005 C2975 1.437 . S
C3005 H2976 0.929 . S
C3005 C3004 1.329 . S
H3006 C2979 0.931 . S
C3007 O2989 1.265 . S
C3007 O2990 1.242 . S
C3008 O2993 1.261 . S
C3008 O2994 1.252 . S
C3009 C3012 1.394 . S
C3009 C3014 1.370 . S
C3009 C3015 1.500 . S
C3010 C3013 1.383 . S
C3010 C3014 1.395 . S
C3011 C3012 1.396 . S
C3011 C3013 1.365 . S
C3011 H3020 0.929 . S
C3012 C3009 1.394 . S
C3012 C3011 1.396 . S
C3012 H3021 0.930 . S
C3013 C3010 1.383 . S
C3013 C3011 1.365 . S
C3013 H3022 0.931 . S
C3014 C3009 1.370 . S
C3014 C3010 1.395 . S
C3014 H3023 0.930 . S
C3015 Gd2951 2.805 . S
C3015 O2991 1.263 . S
C3015 O2992 1.252 . S
C3015 C3009 1.500 . S
H3016 C2999 0.929 . S
H3017 C3000 0.930 . S
H3018 C3001 0.931 . S
H3019 C3002 0.930 . S
H3020 C3011 0.929 . S
H3021 C3012 0.930 . S
H3022 C3013 0.931 . S
H3023 C3014 0.930 . S
C3024 C3026 1.422 . S
C3024 C3028 1.415 . S
C3024 N3030 1.369 . S
C3025 C3026 1.421 . S
C3025 C3027 1.417 . S
C3025 C3037 1.422 . S
C3026 C3024 1.422 . S
C3026 C3025 1.421 . S
C3026 N3036 1.359 . S
C3027 C3025 1.417 . S
C3027 C3029 1.329 . S
C3027 H3046 0.930 . S
C3028 C3024 1.415 . S
C3028 C3029 1.437 . S
C3028 C3032 1.413 . S
C3029 C3027 1.329 . S
C3029 C3028 1.437 . S
C3029 H3051 0.929 . S
N3030 C3024 1.369 . S
N3030 C3031 1.338 . S
N3030 Gd3035 2.622 . S
C3031 N3030 1.338 . S
C3031 C3033 1.378 . S
C3031 H3043 0.929 . S
C3032 C3028 1.413 . S
C3032 C3033 1.348 . S
C3032 H3048 0.931 . S
C3033 C3031 1.378 . S
C3033 C3032 1.348 . S
C3033 H3049 0.930 . S
Gd3034 N3054 2.622 . S
Gd3034 N3061 2.570 . S
Gd3034 O3068 2.353 . S
Gd3034 O3069 2.468 . S
Gd3034 O3070 2.427 . S
Gd3034 O3072 2.388 . S
Gd3034 O3073 2.386 . S
Gd3034 O3077 2.307 . S
Gd3034 C3087 2.805 . S
Gd3035 N3030 2.622 . S
Gd3035 N3036 2.570 . S
Gd3035 O3067 2.386 . S
Gd3035 O3071 2.307 . S
Gd3035 O3074 2.353 . S
Gd3035 O3075 2.468 . S
Gd3035 O3076 2.427 . S
Gd3035 O3078 2.388 . S
Gd3035 C3099 2.805 . S
N3036 C3026 1.359 . S
N3036 Gd3035 2.570 . S
N3036 C3038 1.343 . S
C3037 C3025 1.422 . S
C3037 C3039 1.321 . S
C3037 H3045 0.931 . S
C3038 N3036 1.343 . S
C3038 C3039 1.390 . S
C3038 H3040 0.931 . S
C3039 C3037 1.321 . S
C3039 C3038 1.390 . S
C3039 H3041 0.930 . S
H3040 C3038 0.931 . S
H3041 C3039 0.930 . S
H3042 C3065 0.931 . S
H3043 C3031 0.929 . S
H3044 C3066 0.930 . S
H3045 C3037 0.931 . S
H3046 C3027 0.930 . S
H3047 C3056 0.929 . S
H3048 C3032 0.931 . S
H3049 C3033 0.930 . S
H3050 C3088 0.930 . S
H3051 C3029 0.929 . S
H3052 C3057 0.931 . S
H3053 C3058 0.930 . S
N3054 Gd3034 2.622 . S
N3054 C3055 1.369 . S
N3054 C3056 1.338 . S
C3055 N3054 1.369 . S
C3055 C3059 1.415 . S
C3055 C3062 1.422 . S
C3056 H3047 0.929 . S
C3056 N3054 1.338 . S
C3056 C3058 1.378 . S
C3057 H3052 0.931 . S
C3057 C3058 1.348 . S
C3057 C3059 1.413 . S
C3058 H3053 0.930 . S
C3058 C3056 1.378 . S
C3058 C3057 1.348 . S
C3059 C3055 1.415 . S
C3059 C3057 1.413 . S
C3059 C3089 1.437 . S
H3060 C3089 0.929 . S
N3061 Gd3034 2.570 . S
N3061 C3062 1.359 . S
N3061 C3065 1.343 . S
C3062 C3055 1.422 . S
C3062 N3061 1.359 . S
C3062 C3064 1.421 . S
C3063 C3064 1.422 . S
C3063 C3066 1.321 . S
C3063 H3090 0.931 . S
C3064 C3062 1.421 . S
C3064 C3063 1.422 . S
C3064 C3088 1.417 . S
C3065 H3042 0.931 . S
C3065 N3061 1.343 . S
C3065 C3066 1.390 . S
C3066 H3044 0.930 . S
C3066 C3063 1.321 . S
C3066 C3065 1.390 . S
O3067 Gd3035 2.386 . S
O3067 C3079 1.265 . S
O3068 Gd3034 2.353 . S
O3068 C3079 1.242 . S
O3069 Gd3034 2.468 . S
O3069 C3087 1.263 . S
O3070 Gd3034 2.427 . S
O3070 C3087 1.252 . S
O3071 Gd3035 2.307 . S
O3071 C3080 1.261 . S
O3072 Gd3034 2.388 . S
O3072 C3080 1.252 . S
O3073 Gd3034 2.386 . S
O3073 C3091 1.265 . S
O3074 Gd3035 2.353 . S
O3074 C3091 1.242 . S
O3075 Gd3035 2.468 . S
O3075 C3099 1.263 . S
O3076 Gd3035 2.427 . S
O3076 C3099 1.252 . S
O3077 Gd3034 2.307 . S
O3077 C3092 1.261 . S
O3078 Gd3035 2.388 . S
O3078 C3092 1.252 . S
C3079 O3067 1.265 . S
C3079 O3068 1.242 . S
C3080 O3071 1.261 . S
C3080 O3072 1.252 . S
C3081 C3084 1.394 . S
C3081 C3086 1.370 . S
C3081 C3087 1.500 . S
C3082 C3085 1.383 . S
C3082 C3086 1.395 . S
C3083 C3084 1.396 . S
C3083 C3085 1.365 . S
C3083 H3100 0.929 . S
C3084 C3081 1.394 . S
C3084 C3083 1.396 . S
C3084 H3101 0.930 . S
C3085 C3082 1.383 . S
C3085 C3083 1.365 . S
C3085 H3102 0.931 . S
C3086 C3081 1.370 . S
C3086 C3082 1.395 . S
C3086 H3103 0.930 . S
C3087 Gd3034 2.805 . S
C3087 O3069 1.263 . S
C3087 O3070 1.252 . S
C3087 C3081 1.500 . S
C3088 H3050 0.930 . S
C3088 C3064 1.417 . S
C3088 C3089 1.329 . S
C3089 C3059 1.437 . S
C3089 H3060 0.929 . S
C3089 C3088 1.329 . S
H3090 C3063 0.931 . S
C3091 O3073 1.265 . S
C3091 O3074 1.242 . S
C3092 O3077 1.261 . S
C3092 O3078 1.252 . S
C3093 C3096 1.394 . S
C3093 C3098 1.370 . S
C3093 C3099 1.500 . S
C3094 C3097 1.383 . S
C3094 C3098 1.395 . S
C3095 C3096 1.396 . S
C3095 C3097 1.365 . S
C3095 H3104 0.929 . S
C3096 C3093 1.394 . S
C3096 C3095 1.396 . S
C3096 H3105 0.930 . S
C3097 C3094 1.383 . S
C3097 C3095 1.365 . S
C3097 H3106 0.931 . S
C3098 C3093 1.370 . S
C3098 C3094 1.395 . S
C3098 H3107 0.930 . S
C3099 Gd3035 2.805 . S
C3099 O3075 1.263 . S
C3099 O3076 1.252 . S
C3099 C3093 1.500 . S
H3100 C3083 0.929 . S
H3101 C3084 0.930 . S
H3102 C3085 0.931 . S
H3103 C3086 0.930 . S
H3104 C3095 0.929 . S
H3105 C3096 0.930 . S
H3106 C3097 0.931 . S
H3107 C3098 0.930 . S
C3108 C3110 1.422 . S
C3108 C3112 1.415 . S
C3108 N3114 1.369 . S
C3109 C3110 1.421 . S
C3109 C3111 1.417 . S
C3109 C3121 1.422 . S
C3110 C3108 1.422 . S
C3110 C3109 1.421 . S
C3110 N3120 1.359 . S
C3111 C3109 1.417 . S
C3111 C3113 1.329 . S
C3111 H3130 0.930 . S
C3112 C3108 1.415 . S
C3112 C3113 1.437 . S
C3112 C3116 1.413 . S
C3113 C3111 1.329 . S
C3113 C3112 1.437 . S
C3113 H3135 0.929 . S
N3114 C3108 1.369 . S
N3114 C3115 1.338 . S
N3114 Gd3119 2.622 . S
C3115 N3114 1.338 . S
C3115 C3117 1.378 . S
C3115 H3127 0.929 . S
C3116 C3112 1.413 . S
C3116 C3117 1.348 . S
C3116 H3132 0.931 . S
C3117 C3115 1.378 . S
C3117 C3116 1.348 . S
C3117 H3133 0.930 . S
Gd3118 N3138 2.622 . S
Gd3118 N3145 2.570 . S
Gd3118 O3152 2.353 . S
Gd3118 O3153 2.468 . S
Gd3118 O3154 2.427 . S
Gd3118 O3156 2.388 . S
Gd3118 O3157 2.386 . S
Gd3118 O3161 2.307 . S
Gd3118 C3171 2.805 . S
Gd3119 N3114 2.622 . S
Gd3119 N3120 2.570 . S
Gd3119 O3151 2.386 . S
Gd3119 O3155 2.307 . S
Gd3119 O3158 2.353 . S
Gd3119 O3159 2.468 . S
Gd3119 O3160 2.427 . S
Gd3119 O3162 2.388 . S
Gd3119 C3183 2.805 . S
N3120 C3110 1.359 . S
N3120 Gd3119 2.570 . S
N3120 C3122 1.343 . S
C3121 C3109 1.422 . S
C3121 C3123 1.321 . S
C3121 H3129 0.931 . S
C3122 N3120 1.343 . S
C3122 C3123 1.390 . S
C3122 H3124 0.931 . S
C3123 C3121 1.321 . S
C3123 C3122 1.390 . S
C3123 H3125 0.930 . S
H3124 C3122 0.931 . S
H3125 C3123 0.930 . S
H3126 C3149 0.931 . S
H3127 C3115 0.929 . S
H3128 C3150 0.930 . S
H3129 C3121 0.931 . S
H3130 C3111 0.930 . S
H3131 C3140 0.929 . S
H3132 C3116 0.931 . S
H3133 C3117 0.930 . S
H3134 C3172 0.930 . S
H3135 C3113 0.929 . S
H3136 C3141 0.931 . S
H3137 C3142 0.930 . S
N3138 Gd3118 2.622 . S
N3138 C3139 1.369 . S
N3138 C3140 1.338 . S
C3139 N3138 1.369 . S
C3139 C3143 1.415 . S
C3139 C3146 1.422 . S
C3140 H3131 0.929 . S
C3140 N3138 1.338 . S
C3140 C3142 1.378 . S
C3141 H3136 0.931 . S
C3141 C3142 1.348 . S
C3141 C3143 1.413 . S
C3142 H3137 0.930 . S
C3142 C3140 1.378 . S
C3142 C3141 1.348 . S
C3143 C3139 1.415 . S
C3143 C3141 1.413 . S
C3143 C3173 1.437 . S
H3144 C3173 0.929 . S
N3145 Gd3118 2.570 . S
N3145 C3146 1.359 . S
N3145 C3149 1.343 . S
C3146 C3139 1.422 . S
C3146 N3145 1.359 . S
C3146 C3148 1.421 . S
C3147 C3148 1.422 . S
C3147 C3150 1.321 . S
C3147 H3174 0.931 . S
C3148 C3146 1.421 . S
C3148 C3147 1.422 . S
C3148 C3172 1.417 . S
C3149 H3126 0.931 . S
C3149 N3145 1.343 . S
C3149 C3150 1.390 . S
C3150 H3128 0.930 . S
C3150 C3147 1.321 . S
C3150 C3149 1.390 . S
O3151 Gd3119 2.386 . S
O3151 C3163 1.265 . S
O3152 Gd3118 2.353 . S
O3152 C3163 1.242 . S
O3153 Gd3118 2.468 . S
O3153 C3171 1.263 . S
O3154 Gd3118 2.427 . S
O3154 C3171 1.252 . S
O3155 Gd3119 2.307 . S
O3155 C3164 1.261 . S
O3156 Gd3118 2.388 . S
O3156 C3164 1.252 . S
O3157 Gd3118 2.386 . S
O3157 C3175 1.265 . S
O3158 Gd3119 2.353 . S
O3158 C3175 1.242 . S
O3159 Gd3119 2.468 . S
O3159 C3183 1.263 . S
O3160 Gd3119 2.427 . S
O3160 C3183 1.252 . S
O3161 Gd3118 2.307 . S
O3161 C3176 1.261 . S
O3162 Gd3119 2.388 . S
O3162 C3176 1.252 . S
C3163 O3151 1.265 . S
C3163 O3152 1.242 . S
C3164 O3155 1.261 . S
C3164 O3156 1.252 . S
C3165 C3168 1.394 . S
C3165 C3170 1.370 . S
C3165 C3171 1.500 . S
C3166 C3169 1.383 . S
C3166 C3170 1.395 . S
C3167 C3168 1.396 . S
C3167 C3169 1.365 . S
C3167 H3184 0.929 . S
C3168 C3165 1.394 . S
C3168 C3167 1.396 . S
C3168 H3185 0.930 . S
C3169 C3166 1.383 . S
C3169 C3167 1.365 . S
C3169 H3186 0.931 . S
C3170 C3165 1.370 . S
C3170 C3166 1.395 . S
C3170 H3187 0.930 . S
C3171 Gd3118 2.805 . S
C3171 O3153 1.263 . S
C3171 O3154 1.252 . S
C3171 C3165 1.500 . S
C3172 H3134 0.930 . S
C3172 C3148 1.417 . S
C3172 C3173 1.329 . S
C3173 C3143 1.437 . S
C3173 H3144 0.929 . S
C3173 C3172 1.329 . S
H3174 C3147 0.931 . S
C3175 O3157 1.265 . S
C3175 O3158 1.242 . S
C3176 O3161 1.261 . S
C3176 O3162 1.252 . S
C3177 C3180 1.394 . S
C3177 C3182 1.370 . S
C3177 C3183 1.500 . S
C3178 C3181 1.383 . S
C3178 C3182 1.395 . S
C3179 C3180 1.396 . S
C3179 C3181 1.365 . S
C3179 H3188 0.929 . S
C3180 C3177 1.394 . S
C3180 C3179 1.396 . S
C3180 H3189 0.930 . S
C3181 C3178 1.383 . S
C3181 C3179 1.365 . S
C3181 H3190 0.931 . S
C3182 C3177 1.370 . S
C3182 C3178 1.395 . S
C3182 H3191 0.930 . S
C3183 Gd3119 2.805 . S
C3183 O3159 1.263 . S
C3183 O3160 1.252 . S
C3183 C3177 1.500 . S
H3184 C3167 0.929 . S
H3185 C3168 0.930 . S
H3186 C3169 0.931 . S
H3187 C3170 0.930 . S
H3188 C3179 0.929 . S
H3189 C3180 0.930 . S
H3190 C3181 0.931 . S
H3191 C3182 0.930 . S
C3192 C3194 1.422 . S
C3192 C3196 1.415 . S
C3192 N3198 1.369 . S
C3193 C3194 1.421 . S
C3193 C3195 1.417 . S
C3193 C3205 1.422 . S
C3194 C3192 1.422 . S
C3194 C3193 1.421 . S
C3194 N3204 1.359 . S
C3195 C3193 1.417 . S
C3195 C3197 1.329 . S
C3195 H3214 0.930 . S
C3196 C3192 1.415 . S
C3196 C3197 1.437 . S
C3196 C3200 1.413 . S
C3197 C3195 1.329 . S
C3197 C3196 1.437 . S
C3197 H3219 0.929 . S
N3198 C3192 1.369 . S
N3198 C3199 1.338 . S
N3198 Gd3203 2.622 . S
C3199 N3198 1.338 . S
C3199 C3201 1.378 . S
C3199 H3211 0.929 . S
C3200 C3196 1.413 . S
C3200 C3201 1.348 . S
C3200 H3216 0.931 . S
C3201 C3199 1.378 . S
C3201 C3200 1.348 . S
C3201 H3217 0.930 . S
Gd3202 N3222 2.622 . S
Gd3202 N3229 2.570 . S
Gd3202 O3236 2.353 . S
Gd3202 O3237 2.468 . S
Gd3202 O3238 2.427 . S
Gd3202 O3240 2.388 . S
Gd3202 O3241 2.386 . S
Gd3202 O3245 2.307 . S
Gd3202 C3255 2.805 . S
Gd3203 N3198 2.622 . S
Gd3203 N3204 2.570 . S
Gd3203 O3235 2.386 . S
Gd3203 O3239 2.307 . S
Gd3203 O3242 2.353 . S
Gd3203 O3243 2.468 . S
Gd3203 O3244 2.427 . S
Gd3203 O3246 2.388 . S
Gd3203 C3267 2.805 . S
N3204 C3194 1.359 . S
N3204 Gd3203 2.570 . S
N3204 C3206 1.343 . S
C3205 C3193 1.422 . S
C3205 C3207 1.321 . S
C3205 H3213 0.931 . S
C3206 N3204 1.343 . S
C3206 C3207 1.390 . S
C3206 H3208 0.931 . S
C3207 C3205 1.321 . S
C3207 C3206 1.390 . S
C3207 H3209 0.930 . S
H3208 C3206 0.931 . S
H3209 C3207 0.930 . S
H3210 C3233 0.931 . S
H3211 C3199 0.929 . S
H3212 C3234 0.930 . S
H3213 C3205 0.931 . S
H3214 C3195 0.930 . S
H3215 C3224 0.929 . S
H3216 C3200 0.931 . S
H3217 C3201 0.930 . S
H3218 C3256 0.930 . S
H3219 C3197 0.929 . S
H3220 C3225 0.931 . S
H3221 C3226 0.930 . S
N3222 Gd3202 2.622 . S
N3222 C3223 1.369 . S
N3222 C3224 1.338 . S
C3223 N3222 1.369 . S
C3223 C3227 1.415 . S
C3223 C3230 1.422 . S
C3224 H3215 0.929 . S
C3224 N3222 1.338 . S
C3224 C3226 1.378 . S
C3225 H3220 0.931 . S
C3225 C3226 1.348 . S
C3225 C3227 1.413 . S
C3226 H3221 0.930 . S
C3226 C3224 1.378 . S
C3226 C3225 1.348 . S
C3227 C3223 1.415 . S
C3227 C3225 1.413 . S
C3227 C3257 1.437 . S
H3228 C3257 0.929 . S
N3229 Gd3202 2.570 . S
N3229 C3230 1.359 . S
N3229 C3233 1.343 . S
C3230 C3223 1.422 . S
C3230 N3229 1.359 . S
C3230 C3232 1.421 . S
C3231 C3232 1.422 . S
C3231 C3234 1.321 . S
C3231 H3258 0.931 . S
C3232 C3230 1.421 . S
C3232 C3231 1.422 . S
C3232 C3256 1.417 . S
C3233 H3210 0.931 . S
C3233 N3229 1.343 . S
C3233 C3234 1.390 . S
C3234 H3212 0.930 . S
C3234 C3231 1.321 . S
C3234 C3233 1.390 . S
O3235 Gd3203 2.386 . S
O3235 C3247 1.265 . S
O3236 Gd3202 2.353 . S
O3236 C3247 1.242 . S
O3237 Gd3202 2.468 . S
O3237 C3255 1.263 . S
O3238 Gd3202 2.427 . S
O3238 C3255 1.252 . S
O3239 Gd3203 2.307 . S
O3239 C3248 1.261 . S
O3240 Gd3202 2.388 . S
O3240 C3248 1.252 . S
O3241 Gd3202 2.386 . S
O3241 C3259 1.265 . S
O3242 Gd3203 2.353 . S
O3242 C3259 1.242 . S
O3243 Gd3203 2.468 . S
O3243 C3267 1.263 . S
O3244 Gd3203 2.427 . S
O3244 C3267 1.252 . S
O3245 Gd3202 2.307 . S
O3245 C3260 1.261 . S
O3246 Gd3203 2.388 . S
O3246 C3260 1.252 . S
C3247 O3235 1.265 . S
C3247 O3236 1.242 . S
C3248 O3239 1.261 . S
C3248 O3240 1.252 . S
C3249 C3252 1.394 . S
C3249 C3254 1.370 . S
C3249 C3255 1.500 . S
C3250 C3253 1.383 . S
C3250 C3254 1.395 . S
C3251 C3252 1.396 . S
C3251 C3253 1.365 . S
C3251 H3268 0.929 . S
C3252 C3249 1.394 . S
C3252 C3251 1.396 . S
C3252 H3269 0.930 . S
C3253 C3250 1.383 . S
C3253 C3251 1.365 . S
C3253 H3270 0.931 . S
C3254 C3249 1.370 . S
C3254 C3250 1.395 . S
C3254 H3271 0.930 . S
C3255 Gd3202 2.805 . S
C3255 O3237 1.263 . S
C3255 O3238 1.252 . S
C3255 C3249 1.500 . S
C3256 H3218 0.930 . S
C3256 C3232 1.417 . S
C3256 C3257 1.329 . S
C3257 C3227 1.437 . S
C3257 H3228 0.929 . S
C3257 C3256 1.329 . S
H3258 C3231 0.931 . S
C3259 O3241 1.265 . S
C3259 O3242 1.242 . S
C3260 O3245 1.261 . S
C3260 O3246 1.252 . S
C3261 C3264 1.394 . S
C3261 C3266 1.370 . S
C3261 C3267 1.500 . S
C3262 C3265 1.383 . S
C3262 C3266 1.395 . S
C3263 C3264 1.396 . S
C3263 C3265 1.365 . S
C3263 H3272 0.929 . S
C3264 C3261 1.394 . S
C3264 C3263 1.396 . S
C3264 H3273 0.930 . S
C3265 C3262 1.383 . S
C3265 C3263 1.365 . S
C3265 H3274 0.931 . S
C3266 C3261 1.370 . S
C3266 C3262 1.395 . S
C3266 H3275 0.930 . S
C3267 Gd3203 2.805 . S
C3267 O3243 1.263 . S
C3267 O3244 1.252 . S
C3267 C3261 1.500 . S
H3268 C3251 0.929 . S
H3269 C3252 0.930 . S
H3270 C3253 0.931 . S
H3271 C3254 0.930 . S
H3272 C3263 0.929 . S
H3273 C3264 0.930 . S
H3274 C3265 0.931 . S
H3275 C3266 0.930 . S
C3276 C3278 1.422 . S
C3276 C3280 1.415 . S
C3276 N3282 1.369 . S
C3277 C3278 1.421 . S
C3277 C3279 1.417 . S
C3277 C3289 1.422 . S
C3278 C3276 1.422 . S
C3278 C3277 1.421 . S
C3278 N3288 1.359 . S
C3279 C3277 1.417 . S
C3279 C3281 1.329 . S
C3279 H3298 0.930 . S
C3280 C3276 1.415 . S
C3280 C3281 1.437 . S
C3280 C3284 1.413 . S
C3281 C3279 1.329 . S
C3281 C3280 1.437 . S
C3281 H3303 0.929 . S
N3282 C3276 1.369 . S
N3282 C3283 1.338 . S
N3282 Gd3287 2.622 . S
C3283 N3282 1.338 . S
C3283 C3285 1.378 . S
C3283 H3295 0.929 . S
C3284 C3280 1.413 . S
C3284 C3285 1.348 . S
C3284 H3300 0.931 . S
C3285 C3283 1.378 . S
C3285 C3284 1.348 . S
C3285 H3301 0.930 . S
Gd3286 N3306 2.622 . S
Gd3286 N3313 2.570 . S
Gd3286 O3320 2.353 . S
Gd3286 O3321 2.468 . S
Gd3286 O3322 2.427 . S
Gd3286 O3324 2.388 . S
Gd3286 O3325 2.386 . S
Gd3286 O3329 2.307 . S
Gd3286 C3339 2.805 . S
Gd3287 N3282 2.622 . S
Gd3287 N3288 2.570 . S
Gd3287 O3319 2.386 . S
Gd3287 O3323 2.307 . S
Gd3287 O3326 2.353 . S
Gd3287 O3327 2.468 . S
Gd3287 O3328 2.427 . S
Gd3287 O3330 2.388 . S
Gd3287 C3351 2.805 . S
N3288 C3278 1.359 . S
N3288 Gd3287 2.570 . S
N3288 C3290 1.343 . S
C3289 C3277 1.422 . S
C3289 C3291 1.321 . S
C3289 H3297 0.931 . S
C3290 N3288 1.343 . S
C3290 C3291 1.390 . S
C3290 H3292 0.931 . S
C3291 C3289 1.321 . S
C3291 C3290 1.390 . S
C3291 H3293 0.930 . S
H3292 C3290 0.931 . S
H3293 C3291 0.930 . S
H3294 C3317 0.931 . S
H3295 C3283 0.929 . S
H3296 C3318 0.930 . S
H3297 C3289 0.931 . S
H3298 C3279 0.930 . S
H3299 C3308 0.929 . S
H3300 C3284 0.931 . S
H3301 C3285 0.930 . S
H3302 C3340 0.930 . S
H3303 C3281 0.929 . S
H3304 C3309 0.931 . S
H3305 C3310 0.930 . S
N3306 Gd3286 2.622 . S
N3306 C3307 1.369 . S
N3306 C3308 1.338 . S
C3307 N3306 1.369 . S
C3307 C3311 1.415 . S
C3307 C3314 1.422 . S
C3308 H3299 0.929 . S
C3308 N3306 1.338 . S
C3308 C3310 1.378 . S
C3309 H3304 0.931 . S
C3309 C3310 1.348 . S
C3309 C3311 1.413 . S
C3310 H3305 0.930 . S
C3310 C3308 1.378 . S
C3310 C3309 1.348 . S
C3311 C3307 1.415 . S
C3311 C3309 1.413 . S
C3311 C3341 1.437 . S
H3312 C3341 0.929 . S
N3313 Gd3286 2.570 . S
N3313 C3314 1.359 . S
N3313 C3317 1.343 . S
C3314 C3307 1.422 . S
C3314 N3313 1.359 . S
C3314 C3316 1.421 . S
C3315 C3316 1.422 . S
C3315 C3318 1.321 . S
C3315 H3342 0.931 . S
C3316 C3314 1.421 . S
C3316 C3315 1.422 . S
C3316 C3340 1.417 . S
C3317 H3294 0.931 . S
C3317 N3313 1.343 . S
C3317 C3318 1.390 . S
C3318 H3296 0.930 . S
C3318 C3315 1.321 . S
C3318 C3317 1.390 . S
O3319 Gd3287 2.386 . S
O3319 C3331 1.265 . S
O3320 Gd3286 2.353 . S
O3320 C3331 1.242 . S
O3321 Gd3286 2.468 . S
O3321 C3339 1.263 . S
O3322 Gd3286 2.427 . S
O3322 C3339 1.252 . S
O3323 Gd3287 2.307 . S
O3323 C3332 1.261 . S
O3324 Gd3286 2.388 . S
O3324 C3332 1.252 . S
O3325 Gd3286 2.386 . S
O3325 C3343 1.265 . S
O3326 Gd3287 2.353 . S
O3326 C3343 1.242 . S
O3327 Gd3287 2.468 . S
O3327 C3351 1.263 . S
O3328 Gd3287 2.427 . S
O3328 C3351 1.252 . S
O3329 Gd3286 2.307 . S
O3329 C3344 1.261 . S
O3330 Gd3287 2.388 . S
O3330 C3344 1.252 . S
C3331 O3319 1.265 . S
C3331 O3320 1.242 . S
C3332 O3323 1.261 . S
C3332 O3324 1.252 . S
C3333 C3336 1.394 . S
C3333 C3338 1.370 . S
C3333 C3339 1.500 . S
C3334 C3337 1.383 . S
C3334 C3338 1.395 . S
C3335 C3336 1.396 . S
C3335 C3337 1.365 . S
C3335 H3352 0.929 . S
C3336 C3333 1.394 . S
C3336 C3335 1.396 . S
C3336 H3353 0.930 . S
C3337 C3334 1.383 . S
C3337 C3335 1.365 . S
C3337 H3354 0.931 . S
C3338 C3333 1.370 . S
C3338 C3334 1.395 . S
C3338 H3355 0.930 . S
C3339 Gd3286 2.805 . S
C3339 O3321 1.263 . S
C3339 O3322 1.252 . S
C3339 C3333 1.500 . S
C3340 H3302 0.930 . S
C3340 C3316 1.417 . S
C3340 C3341 1.329 . S
C3341 C3311 1.437 . S
C3341 H3312 0.929 . S
C3341 C3340 1.329 . S
H3342 C3315 0.931 . S
C3343 O3325 1.265 . S
C3343 O3326 1.242 . S
C3344 O3329 1.261 . S
C3344 O3330 1.252 . S
C3345 C3348 1.394 . S
C3345 C3350 1.370 . S
C3345 C3351 1.500 . S
C3346 C3349 1.383 . S
C3346 C3350 1.395 . S
C3347 C3348 1.396 . S
C3347 C3349 1.365 . S
C3347 H3356 0.929 . S
C3348 C3345 1.394 . S
C3348 C3347 1.396 . S
C3348 H3357 0.930 . S
C3349 C3346 1.383 . S
C3349 C3347 1.365 . S
C3349 H3358 0.931 . S
C3350 C3345 1.370 . S
C3350 C3346 1.395 . S
C3350 H3359 0.930 . S
C3351 Gd3287 2.805 . S
C3351 O3327 1.263 . S
C3351 O3328 1.252 . S
C3351 C3345 1.500 . S
H3352 C3335 0.929 . S
H3353 C3336 0.930 . S
H3354 C3337 0.931 . S
H3355 C3338 0.930 . S
H3356 C3347 0.929 . S
H3357 C3348 0.930 . S
H3358 C3349 0.931 . S
H3359 C3350 0.930 . S
C3360 C3362 1.422 1_655 S
C3360 C3364 1.415 . S
C3360 N3366 1.369 . S
C3361 C3362 1.421 . S
C3361 C3363 1.417 . S
C3361 C3373 1.422 . S
C3362 C3360 1.422 1_455 S
C3362 C3361 1.421 . S
C3362 N3372 1.359 . S
C3363 C3361 1.417 . S
C3363 C3365 1.329 1_455 S
C3363 H3382 0.930 . S
C3364 C3360 1.415 . S
C3364 C3365 1.437 . S
C3364 C3368 1.413 . S
C3365 C3363 1.329 1_655 S
C3365 C3364 1.437 . S
C3365 H3387 0.929 . S
N3366 C3360 1.369 . S
N3366 C3367 1.338 . S
N3366 Gd3371 2.622 . S
C3367 N3366 1.338 . S
C3367 C3369 1.378 . S
C3367 H3379 0.929 . S
C3368 C3364 1.413 . S
C3368 C3369 1.348 . S
C3368 H3384 0.931 . S
C3369 C3367 1.378 . S
C3369 C3368 1.348 . S
C3369 H3385 0.930 . S
Gd3370 N3390 2.622 . S
Gd3370 N3397 2.570 . S
Gd3370 O3404 2.353 . S
Gd3370 O3405 2.468 . S
Gd3370 O3406 2.427 . S
Gd3370 O3408 2.388 . S
Gd3370 O3409 2.386 . S
Gd3370 O3413 2.307 . S
Gd3370 C3423 2.805 . S
Gd3371 N3366 2.622 . S
Gd3371 N3372 2.570 1_655 S
Gd3371 O3403 2.386 1_655 S
Gd3371 O3407 2.307 1_655 S
Gd3371 O3410 2.353 . S
Gd3371 O3411 2.468 . S
Gd3371 O3412 2.427 . S
Gd3371 O3414 2.388 . S
Gd3371 C3435 2.805 . S
N3372 C3362 1.359 . S
N3372 Gd3371 2.570 1_455 S
N3372 C3374 1.343 . S
C3373 C3361 1.422 . S
C3373 C3375 1.321 . S
C3373 H3381 0.931 . S
C3374 N3372 1.343 . S
C3374 C3375 1.390 . S
C3374 H3376 0.931 . S
C3375 C3373 1.321 . S
C3375 C3374 1.390 . S
C3375 H3377 0.930 . S
H3376 C3374 0.931 . S
H3377 C3375 0.930 . S
H3378 C3401 0.931 . S
H3379 C3367 0.929 . S
H3380 C3402 0.930 . S
H3381 C3373 0.931 . S
H3382 C3363 0.930 . S
H3383 C3392 0.929 . S
H3384 C3368 0.931 . S
H3385 C3369 0.930 . S
H3386 C3424 0.930 . S
H3387 C3365 0.929 . S
H3388 C3393 0.931 . S
H3389 C3394 0.930 . S
N3390 Gd3370 2.622 . S
N3390 C3391 1.369 . S
N3390 C3392 1.338 . S
C3391 N3390 1.369 . S
C3391 C3395 1.415 . S
C3391 C3398 1.422 . S
C3392 H3383 0.929 . S
C3392 N3390 1.338 . S
C3392 C3394 1.378 . S
C3393 H3388 0.931 . S
C3393 C3394 1.348 . S
C3393 C3395 1.413 . S
C3394 H3389 0.930 . S
C3394 C3392 1.378 . S
C3394 C3393 1.348 . S
C3395 C3391 1.415 . S
C3395 C3393 1.413 . S
C3395 C3425 1.437 . S
H3396 C3425 0.929 . S
N3397 Gd3370 2.570 . S
N3397 C3398 1.359 . S
N3397 C3401 1.343 . S
C3398 C3391 1.422 . S
C3398 N3397 1.359 . S
C3398 C3400 1.421 . S
C3399 C3400 1.422 . S
C3399 C3402 1.321 . S
C3399 H3426 0.931 . S
C3400 C3398 1.421 . S
C3400 C3399 1.422 . S
C3400 C3424 1.417 . S
C3401 H3378 0.931 . S
C3401 N3397 1.343 . S
C3401 C3402 1.390 . S
C3402 H3380 0.930 . S
C3402 C3399 1.321 . S
C3402 C3401 1.390 . S
O3403 Gd3371 2.386 1_455 S
O3403 C3415 1.265 . S
O3404 Gd3370 2.353 . S
O3404 C3415 1.242 . S
O3405 Gd3370 2.468 . S
O3405 C3423 1.263 . S
O3406 Gd3370 2.427 . S
O3406 C3423 1.252 . S
O3407 Gd3371 2.307 1_455 S
O3407 C3416 1.261 . S
O3408 Gd3370 2.388 . S
O3408 C3416 1.252 . S
O3409 Gd3370 2.386 . S
O3409 C3427 1.265 1_455 S
O3410 Gd3371 2.353 . S
O3410 C3427 1.242 . S
O3411 Gd3371 2.468 . S
O3411 C3435 1.263 . S
O3412 Gd3371 2.427 . S
O3412 C3435 1.252 . S
O3413 Gd3370 2.307 . S
O3413 C3428 1.280 . S
O3414 Gd3371 2.388 . S
O3414 C3428 1.235 1_655 S
C3415 O3403 1.265 . S
C3415 O3404 1.242 . S
C3416 O3407 1.261 . S
C3416 O3408 1.252 . S
C3417 C3420 1.394 . S
C3417 C3422 1.370 . S
C3417 C3423 1.500 . S
C3418 C3421 1.383 . S
C3418 C3422 1.395 . S
C3419 C3420 1.396 . S
C3419 C3421 1.365 . S
C3419 H3436 0.929 . S
C3420 C3417 1.394 . S
C3420 C3419 1.396 . S
C3420 H3437 0.930 . S
C3421 C3418 1.383 . S
C3421 C3419 1.365 . S
C3421 H3438 0.931 . S
C3422 C3417 1.370 . S
C3422 C3418 1.395 . S
C3422 H3439 0.930 . S
C3423 Gd3370 2.805 . S
C3423 O3405 1.263 . S
C3423 O3406 1.252 . S
C3423 C3417 1.500 . S
C3424 H3386 0.930 . S
C3424 C3400 1.417 . S
C3424 C3425 1.329 . S
C3425 C3395 1.437 . S
C3425 H3396 0.929 . S
C3425 C3424 1.329 . S
H3426 C3399 0.931 . S
C3427 O3409 1.265 1_655 S
C3427 O3410 1.242 . S
C3428 O3413 1.280 . S
C3428 O3414 1.235 1_455 S
C3429 C3432 1.394 . S
C3429 C3434 1.370 . S
C3429 C3435 1.500 . S
C3430 C3433 1.383 . S
C3430 C3434 1.395 . S
C3431 C3432 1.396 . S
C3431 C3433 1.365 . S
C3431 H3440 0.929 . S
C3432 C3429 1.394 . S
C3432 C3431 1.396 . S
C3432 H3441 0.930 . S
C3433 C3430 1.383 . S
C3433 C3431 1.365 . S
C3433 H3442 0.931 . S
C3434 C3429 1.370 . S
C3434 C3430 1.395 . S
C3434 H3443 0.930 . S
C3435 Gd3371 2.805 . S
C3435 O3411 1.263 . S
C3435 O3412 1.252 . S
C3435 C3429 1.500 . S
H3436 C3419 0.929 . S
H3437 C3420 0.930 . S
H3438 C3421 0.931 . S
H3439 C3422 0.930 . S
H3440 C3431 0.929 . S
H3441 C3432 0.930 . S
H3442 C3433 0.931 . S
H3443 C3434 0.930 . S
C3444 C3446 1.422 . S
C3444 C3448 1.415 . S
C3444 N3450 1.369 . S
C3445 C3446 1.421 . S
C3445 C3447 1.417 . S
C3445 C3457 1.422 . S
C3446 C3444 1.422 . S
C3446 C3445 1.421 . S
C3446 N3456 1.359 . S
C3447 C3445 1.417 . S
C3447 C3449 1.329 . S
C3447 H3466 0.930 . S
C3448 C3444 1.415 . S
C3448 C3449 1.437 . S
C3448 C3452 1.413 . S
C3449 C3447 1.329 . S
C3449 C3448 1.437 . S
C3449 H3471 0.929 . S
N3450 C3444 1.369 . S
N3450 C3451 1.338 . S
N3450 Gd3455 2.622 . S
C3451 N3450 1.338 . S
C3451 C3453 1.378 . S
C3451 H3463 0.929 . S
C3452 C3448 1.413 . S
C3452 C3453 1.348 . S
C3452 H3468 0.931 . S
C3453 C3451 1.378 . S
C3453 C3452 1.348 . S
C3453 H3469 0.930 . S
Gd3454 N3474 2.622 . S
Gd3454 N3481 2.570 . S
Gd3454 O3488 2.353 . S
Gd3454 O3489 2.468 . S
Gd3454 O3490 2.427 . S
Gd3454 O3492 2.388 . S
Gd3454 O3493 2.386 . S
Gd3454 O3497 2.307 . S
Gd3454 C3507 2.805 . S
Gd3455 N3450 2.622 . S
Gd3455 N3456 2.570 . S
Gd3455 O3487 2.386 . S
Gd3455 O3491 2.307 . S
Gd3455 O3494 2.353 . S
Gd3455 O3495 2.468 . S
Gd3455 O3496 2.427 . S
Gd3455 O3498 2.388 . S
Gd3455 C3519 2.805 . S
N3456 C3446 1.359 . S
N3456 Gd3455 2.570 . S
N3456 C3458 1.343 . S
C3457 C3445 1.422 . S
C3457 C3459 1.321 . S
C3457 H3465 0.931 . S
C3458 N3456 1.343 . S
C3458 C3459 1.390 . S
C3458 H3460 0.931 . S
C3459 C3457 1.321 . S
C3459 C3458 1.390 . S
C3459 H3461 0.930 . S
H3460 C3458 0.931 . S
H3461 C3459 0.930 . S
H3462 C3485 0.931 . S
H3463 C3451 0.929 . S
H3464 C3486 0.930 . S
H3465 C3457 0.931 . S
H3466 C3447 0.930 . S
H3467 C3476 0.929 . S
H3468 C3452 0.931 . S
H3469 C3453 0.930 . S
H3470 C3508 0.930 . S
H3471 C3449 0.929 . S
H3472 C3477 0.931 . S
H3473 C3478 0.930 . S
N3474 Gd3454 2.622 . S
N3474 C3475 1.369 . S
N3474 C3476 1.338 . S
C3475 N3474 1.369 . S
C3475 C3479 1.415 . S
C3475 C3482 1.422 . S
C3476 H3467 0.929 . S
C3476 N3474 1.338 . S
C3476 C3478 1.378 . S
C3477 H3472 0.931 . S
C3477 C3478 1.348 . S
C3477 C3479 1.413 . S
C3478 H3473 0.930 . S
C3478 C3476 1.378 . S
C3478 C3477 1.348 . S
C3479 C3475 1.415 . S
C3479 C3477 1.413 . S
C3479 C3509 1.437 . S
H3480 C3509 0.929 . S
N3481 Gd3454 2.570 . S
N3481 C3482 1.359 . S
N3481 C3485 1.343 . S
C3482 C3475 1.422 . S
C3482 N3481 1.359 . S
C3482 C3484 1.421 . S
C3483 C3484 1.422 . S
C3483 C3486 1.321 . S
C3483 H3510 0.931 . S
C3484 C3482 1.421 . S
C3484 C3483 1.422 . S
C3484 C3508 1.417 . S
C3485 H3462 0.931 . S
C3485 N3481 1.343 . S
C3485 C3486 1.390 . S
C3486 H3464 0.930 . S
C3486 C3483 1.321 . S
C3486 C3485 1.390 . S
O3487 Gd3455 2.386 . S
O3487 C3499 1.265 . S
O3488 Gd3454 2.353 . S
O3488 C3499 1.242 . S
O3489 Gd3454 2.468 . S
O3489 C3507 1.263 . S
O3490 Gd3454 2.427 . S
O3490 C3507 1.252 . S
O3491 Gd3455 2.307 . S
O3491 C3500 1.261 . S
O3492 Gd3454 2.388 . S
O3492 C3500 1.252 . S
O3493 Gd3454 2.386 . S
O3493 C3511 1.265 . S
O3494 Gd3455 2.353 . S
O3494 C3511 1.242 . S
O3495 Gd3455 2.468 . S
O3495 C3519 1.263 . S
O3496 Gd3455 2.427 . S
O3496 C3519 1.252 . S
O3497 Gd3454 2.307 . S
O3497 C3512 1.261 . S
O3498 Gd3455 2.388 . S
O3498 C3512 1.252 . S
C3499 O3487 1.265 . S
C3499 O3488 1.242 . S
C3500 O3491 1.261 . S
C3500 O3492 1.252 . S
C3501 C3504 1.394 . S
C3501 C3506 1.370 . S
C3501 C3507 1.500 . S
C3502 C3505 1.383 . S
C3502 C3506 1.395 . S
C3503 C3504 1.396 . S
C3503 C3505 1.365 . S
C3503 H3520 0.929 . S
C3504 C3501 1.394 . S
C3504 C3503 1.396 . S
C3504 H3521 0.930 . S
C3505 C3502 1.383 . S
C3505 C3503 1.365 . S
C3505 H3522 0.931 . S
C3506 C3501 1.370 . S
C3506 C3502 1.395 . S
C3506 H3523 0.930 . S
C3507 Gd3454 2.805 . S
C3507 O3489 1.263 . S
C3507 O3490 1.252 . S
C3507 C3501 1.500 . S
C3508 H3470 0.930 . S
C3508 C3484 1.417 . S
C3508 C3509 1.329 . S
C3509 C3479 1.437 . S
C3509 H3480 0.929 . S
C3509 C3508 1.329 . S
H3510 C3483 0.931 . S
C3511 O3493 1.265 . S
C3511 O3494 1.242 . S
C3512 O3497 1.261 . S
C3512 O3498 1.252 . S
C3513 C3516 1.394 . S
C3513 C3518 1.370 . S
C3513 C3519 1.500 . S
C3514 C3517 1.383 . S
C3514 C3518 1.395 . S
C3515 C3516 1.396 . S
C3515 C3517 1.365 . S
C3515 H3524 0.929 . S
C3516 C3513 1.394 . S
C3516 C3515 1.396 . S
C3516 H3525 0.930 . S
C3517 C3514 1.383 . S
C3517 C3515 1.365 . S
C3517 H3526 0.931 . S
C3518 C3513 1.370 . S
C3518 C3514 1.395 . S
C3518 H3527 0.930 . S
C3519 Gd3455 2.805 . S
C3519 O3495 1.263 . S
C3519 O3496 1.252 . S
C3519 C3513 1.500 . S
H3520 C3503 0.929 . S
H3521 C3504 0.930 . S
H3522 C3505 0.931 . S
H3523 C3506 0.930 . S
H3524 C3515 0.929 . S
H3525 C3516 0.930 . S
H3526 C3517 0.931 . S
H3527 C3518 0.930 . S
C3528 C3530 1.422 1_556 S
C3528 C3532 1.415 . S
C3528 N3534 1.369 . S
C3529 C3530 1.421 . S
C3529 C3531 1.417 . S
C3529 C3541 1.422 . S
C3530 C3528 1.422 1_554 S
C3530 C3529 1.421 . S
C3530 N3540 1.359 . S
C3531 C3529 1.417 . S
C3531 C3533 1.329 1_554 S
C3531 H3550 0.930 . S
C3532 C3528 1.415 . S
C3532 C3533 1.437 . S
C3532 C3536 1.413 . S
C3533 C3531 1.329 1_556 S
C3533 C3532 1.437 . S
C3533 H3555 0.929 . S
N3534 C3528 1.369 . S
N3534 C3535 1.338 . S
N3534 Gd3539 2.622 . S
C3535 N3534 1.338 . S
C3535 C3537 1.378 . S
C3535 H3547 0.929 . S
C3536 C3532 1.413 . S
C3536 C3537 1.348 . S
C3536 H3552 0.931 . S
C3537 C3535 1.378 . S
C3537 C3536 1.348 . S
C3537 H3553 0.930 . S
Gd3538 N3558 2.622 . S
Gd3538 N3565 2.570 . S
Gd3538 O3572 2.353 . S
Gd3538 O3573 2.468 . S
Gd3538 O3574 2.427 . S
Gd3538 O3576 2.388 . S
Gd3538 O3577 2.386 . S
Gd3538 O3581 2.307 . S
Gd3538 C3591 2.805 . S
Gd3539 N3534 2.622 . S
Gd3539 N3540 2.570 1_556 S
Gd3539 O3571 2.386 1_556 S
Gd3539 O3575 2.307 1_556 S
Gd3539 O3578 2.353 . S
Gd3539 O3579 2.468 . S
Gd3539 O3580 2.427 . S
Gd3539 O3582 2.388 . S
Gd3539 C3603 2.805 . S
N3540 C3530 1.359 . S
N3540 Gd3539 2.570 1_554 S
N3540 C3542 1.343 . S
C3541 C3529 1.422 . S
C3541 C3543 1.321 . S
C3541 H3549 0.931 . S
C3542 N3540 1.343 . S
C3542 C3543 1.390 . S
C3542 H3544 0.931 . S
C3543 C3541 1.321 . S
C3543 C3542 1.390 . S
C3543 H3545 0.930 . S
H3544 C3542 0.931 . S
H3545 C3543 0.930 . S
H3546 C3569 0.931 . S
H3547 C3535 0.929 . S
H3548 C3570 0.930 . S
H3549 C3541 0.931 . S
H3550 C3531 0.930 . S
H3551 C3560 0.929 . S
H3552 C3536 0.931 . S
H3553 C3537 0.930 . S
H3554 C3592 0.930 . S
H3555 C3533 0.929 . S
H3556 C3561 0.931 . S
H3557 C3562 0.930 . S
N3558 Gd3538 2.622 . S
N3558 C3559 1.369 . S
N3558 C3560 1.338 . S
C3559 N3558 1.369 . S
C3559 C3563 1.415 . S
C3559 C3566 1.422 . S
C3560 H3551 0.929 . S
C3560 N3558 1.338 . S
C3560 C3562 1.378 . S
C3561 H3556 0.931 . S
C3561 C3562 1.348 . S
C3561 C3563 1.413 . S
C3562 H3557 0.930 . S
C3562 C3560 1.378 . S
C3562 C3561 1.348 . S
C3563 C3559 1.415 . S
C3563 C3561 1.413 . S
C3563 C3593 1.437 . S
H3564 C3593 0.929 . S
N3565 Gd3538 2.570 . S
N3565 C3566 1.359 . S
N3565 C3569 1.343 . S
C3566 C3559 1.422 . S
C3566 N3565 1.359 . S
C3566 C3568 1.421 . S
C3567 C3568 1.422 . S
C3567 C3570 1.321 . S
C3567 H3594 0.931 . S
C3568 C3566 1.421 . S
C3568 C3567 1.422 . S
C3568 C3592 1.417 . S
C3569 H3546 0.931 . S
C3569 N3565 1.343 . S
C3569 C3570 1.390 . S
C3570 H3548 0.930 . S
C3570 C3567 1.321 . S
C3570 C3569 1.390 . S
O3571 Gd3539 2.386 1_554 S
O3571 C3583 1.265 . S
O3572 Gd3538 2.353 . S
O3572 C3583 1.242 . S
O3573 Gd3538 2.468 . S
O3573 C3591 1.263 . S
O3574 Gd3538 2.427 . S
O3574 C3591 1.252 . S
O3575 Gd3539 2.307 1_554 S
O3575 C3584 1.261 . S
O3576 Gd3538 2.388 . S
O3576 C3584 1.252 . S
O3577 Gd3538 2.386 . S
O3577 C3595 1.265 1_554 S
O3578 Gd3539 2.353 . S
O3578 C3595 1.242 . S
O3579 Gd3539 2.468 . S
O3579 C3603 1.263 . S
O3580 Gd3539 2.427 . S
O3580 C3603 1.252 . S
O3581 Gd3538 2.307 . S
O3581 C3596 1.270 . S
O3582 Gd3539 2.388 . S
O3582 C3596 1.244 1_556 S
C3583 O3571 1.265 . S
C3583 O3572 1.242 . S
C3584 O3575 1.261 . S
C3584 O3576 1.252 . S
C3585 C3588 1.394 . S
C3585 C3590 1.370 . S
C3585 C3591 1.500 . S
C3586 C3589 1.383 . S
C3586 C3590 1.395 . S
C3587 C3588 1.396 . S
C3587 C3589 1.365 . S
C3587 H3604 0.929 . S
C3588 C3585 1.394 . S
C3588 C3587 1.396 . S
C3588 H3605 0.930 . S
C3589 C3586 1.383 . S
C3589 C3587 1.365 . S
C3589 H3606 0.931 . S
C3590 C3585 1.370 . S
C3590 C3586 1.395 . S
C3590 H3607 0.930 . S
C3591 Gd3538 2.805 . S
C3591 O3573 1.263 . S
C3591 O3574 1.252 . S
C3591 C3585 1.500 . S
C3592 H3554 0.930 . S
C3592 C3568 1.417 . S
C3592 C3593 1.329 . S
C3593 C3563 1.437 . S
C3593 H3564 0.929 . S
C3593 C3592 1.329 . S
H3594 C3567 0.931 . S
C3595 O3577 1.265 1_556 S
C3595 O3578 1.242 . S
C3596 O3581 1.270 . S
C3596 O3582 1.244 1_554 S
C3597 C3600 1.394 . S
C3597 C3602 1.370 . S
C3597 C3603 1.500 . S
C3598 C3601 1.383 . S
C3598 C3602 1.395 . S
C3599 C3600 1.396 . S
C3599 C3601 1.365 . S
C3599 H3608 0.929 . S
C3600 C3597 1.394 . S
C3600 C3599 1.396 . S
C3600 H3609 0.930 . S
C3601 C3598 1.383 . S
C3601 C3599 1.365 . S
C3601 H3610 0.931 . S
C3602 C3597 1.370 . S
C3602 C3598 1.395 . S
C3602 H3611 0.930 . S
C3603 Gd3539 2.805 . S
C3603 O3579 1.263 . S
C3603 O3580 1.252 . S
C3603 C3597 1.500 . S
H3604 C3587 0.929 . S
H3605 C3588 0.930 . S
H3606 C3589 0.931 . S
H3607 C3590 0.930 . S
H3608 C3599 0.929 . S
H3609 C3600 0.930 . S
H3610 C3601 0.931 . S
H3611 C3602 0.930 . S
C3612 C3614 1.422 . S
C3612 C3616 1.415 . S
C3612 N3618 1.369 . S
C3613 C3614 1.421 . S
C3613 C3615 1.417 . S
C3613 C3625 1.422 . S
C3614 C3612 1.422 . S
C3614 C3613 1.421 . S
C3614 N3624 1.359 . S
C3615 C3613 1.417 . S
C3615 C3617 1.329 . S
C3615 H3634 0.930 . S
C3616 C3612 1.415 . S
C3616 C3617 1.437 . S
C3616 C3620 1.413 . S
C3617 C3615 1.329 . S
C3617 C3616 1.437 . S
C3617 H3639 0.929 . S
N3618 C3612 1.369 . S
N3618 C3619 1.338 . S
N3618 Gd3623 2.622 . S
C3619 N3618 1.338 . S
C3619 C3621 1.378 . S
C3619 H3631 0.929 . S
C3620 C3616 1.413 . S
C3620 C3621 1.348 . S
C3620 H3636 0.931 . S
C3621 C3619 1.378 . S
C3621 C3620 1.348 . S
C3621 H3637 0.930 . S
Gd3622 N3642 2.622 . S
Gd3622 N3649 2.570 . S
Gd3622 O3656 2.353 . S
Gd3622 O3657 2.468 . S
Gd3622 O3658 2.427 . S
Gd3622 O3660 2.388 . S
Gd3622 O3661 2.386 . S
Gd3622 O3665 2.307 . S
Gd3622 C3675 2.805 . S
Gd3623 N3618 2.622 . S
Gd3623 N3624 2.570 . S
Gd3623 O3655 2.386 . S
Gd3623 O3659 2.307 . S
Gd3623 O3662 2.353 . S
Gd3623 O3663 2.468 . S
Gd3623 O3664 2.427 . S
Gd3623 O3666 2.388 . S
Gd3623 C3687 2.805 . S
N3624 C3614 1.359 . S
N3624 Gd3623 2.570 . S
N3624 C3626 1.343 . S
C3625 C3613 1.422 . S
C3625 C3627 1.321 . S
C3625 H3633 0.931 . S
C3626 N3624 1.343 . S
C3626 C3627 1.390 . S
C3626 H3628 0.931 . S
C3627 C3625 1.321 . S
C3627 C3626 1.390 . S
C3627 H3629 0.930 . S
H3628 C3626 0.931 . S
H3629 C3627 0.930 . S
H3630 C3653 0.931 . S
H3631 C3619 0.929 . S
H3632 C3654 0.930 . S
H3633 C3625 0.931 . S
H3634 C3615 0.930 . S
H3635 C3644 0.929 . S
H3636 C3620 0.931 . S
H3637 C3621 0.930 . S
H3638 C3676 0.930 . S
H3639 C3617 0.929 . S
H3640 C3645 0.931 . S
H3641 C3646 0.930 . S
N3642 Gd3622 2.622 . S
N3642 C3643 1.369 . S
N3642 C3644 1.338 . S
C3643 N3642 1.369 . S
C3643 C3647 1.415 . S
C3643 C3650 1.422 . S
C3644 H3635 0.929 . S
C3644 N3642 1.338 . S
C3644 C3646 1.378 . S
C3645 H3640 0.931 . S
C3645 C3646 1.348 . S
C3645 C3647 1.413 . S
C3646 H3641 0.930 . S
C3646 C3644 1.378 . S
C3646 C3645 1.348 . S
C3647 C3643 1.415 . S
C3647 C3645 1.413 . S
C3647 C3677 1.437 . S
H3648 C3677 0.929 . S
N3649 Gd3622 2.570 . S
N3649 C3650 1.359 . S
N3649 C3653 1.343 . S
C3650 C3643 1.422 . S
C3650 N3649 1.359 . S
C3650 C3652 1.421 . S
C3651 C3652 1.422 . S
C3651 C3654 1.321 . S
C3651 H3678 0.931 . S
C3652 C3650 1.421 . S
C3652 C3651 1.422 . S
C3652 C3676 1.417 . S
C3653 H3630 0.931 . S
C3653 N3649 1.343 . S
C3653 C3654 1.390 . S
C3654 H3632 0.930 . S
C3654 C3651 1.321 . S
C3654 C3653 1.390 . S
O3655 Gd3623 2.386 . S
O3655 C3667 1.265 . S
O3656 Gd3622 2.353 . S
O3656 C3667 1.242 . S
O3657 Gd3622 2.468 . S
O3657 C3675 1.263 . S
O3658 Gd3622 2.427 . S
O3658 C3675 1.252 . S
O3659 Gd3623 2.307 . S
O3659 C3668 1.261 . S
O3660 Gd3622 2.388 . S
O3660 C3668 1.252 . S
O3661 Gd3622 2.386 . S
O3661 C3679 1.265 . S
O3662 Gd3623 2.353 . S
O3662 C3679 1.242 . S
O3663 Gd3623 2.468 . S
O3663 C3687 1.263 . S
O3664 Gd3623 2.427 . S
O3664 C3687 1.252 . S
O3665 Gd3622 2.307 . S
O3665 C3680 1.261 . S
O3666 Gd3623 2.388 . S
O3666 C3680 1.252 . S
C3667 O3655 1.265 . S
C3667 O3656 1.242 . S
C3668 O3659 1.261 . S
C3668 O3660 1.252 . S
C3669 C3672 1.394 . S
C3669 C3674 1.370 . S
C3669 C3675 1.500 . S
C3670 C3673 1.383 . S
C3670 C3674 1.395 . S
C3671 C3672 1.396 . S
C3671 C3673 1.365 . S
C3671 H3688 0.929 . S
C3672 C3669 1.394 . S
C3672 C3671 1.396 . S
C3672 H3689 0.930 . S
C3673 C3670 1.383 . S
C3673 C3671 1.365 . S
C3673 H3690 0.931 . S
C3674 C3669 1.370 . S
C3674 C3670 1.395 . S
C3674 H3691 0.930 . S
C3675 Gd3622 2.805 . S
C3675 O3657 1.263 . S
C3675 O3658 1.252 . S
C3675 C3669 1.500 . S
C3676 H3638 0.930 . S
C3676 C3652 1.417 . S
C3676 C3677 1.329 . S
C3677 C3647 1.437 . S
C3677 H3648 0.929 . S
C3677 C3676 1.329 . S
H3678 C3651 0.931 . S
C3679 O3661 1.265 . S
C3679 O3662 1.242 . S
C3680 O3665 1.261 . S
C3680 O3666 1.252 . S
C3681 C3684 1.394 . S
C3681 C3686 1.370 . S
C3681 C3687 1.500 . S
C3682 C3685 1.383 . S
C3682 C3686 1.395 . S
C3683 C3684 1.396 . S
C3683 C3685 1.365 . S
C3683 H3692 0.929 . S
C3684 C3681 1.394 . S
C3684 C3683 1.396 . S
C3684 H3693 0.930 . S
C3685 C3682 1.383 . S
C3685 C3683 1.365 . S
C3685 H3694 0.931 . S
C3686 C3681 1.370 . S
C3686 C3682 1.395 . S
C3686 H3695 0.930 . S
C3687 Gd3623 2.805 . S
C3687 O3663 1.263 . S
C3687 O3664 1.252 . S
C3687 C3681 1.500 . S
H3688 C3671 0.929 . S
H3689 C3672 0.930 . S
H3690 C3673 0.931 . S
H3691 C3674 0.930 . S
H3692 C3683 0.929 . S
H3693 C3684 0.930 . S
H3694 C3685 0.931 . S
H3695 C3686 0.930 . S
C3696 C3698 1.422 . S
C3696 C3700 1.415 . S
C3696 N3702 1.369 . S
C3697 C3698 1.421 . S
C3697 C3699 1.417 . S
C3697 C3709 1.422 . S
C3698 C3696 1.422 . S
C3698 C3697 1.421 . S
C3698 N3708 1.359 . S
C3699 C3697 1.417 . S
C3699 C3701 1.329 . S
C3699 H3718 0.930 . S
C3700 C3696 1.415 . S
C3700 C3701 1.437 . S
C3700 C3704 1.413 . S
C3701 C3699 1.329 . S
C3701 C3700 1.437 . S
C3701 H3723 0.929 . S
N3702 C3696 1.369 . S
N3702 C3703 1.338 . S
N3702 Gd3707 2.622 . S
C3703 N3702 1.338 . S
C3703 C3705 1.378 . S
C3703 H3715 0.929 . S
C3704 C3700 1.413 . S
C3704 C3705 1.348 . S
C3704 H3720 0.931 . S
C3705 C3703 1.378 . S
C3705 C3704 1.348 . S
C3705 H3721 0.930 . S
Gd3706 N3726 2.622 . S
Gd3706 N3733 2.570 . S
Gd3706 O3740 2.353 . S
Gd3706 O3741 2.468 . S
Gd3706 O3742 2.427 . S
Gd3706 O3744 2.388 . S
Gd3706 O3745 2.386 . S
Gd3706 O3749 2.307 . S
Gd3706 C3759 2.805 . S
Gd3707 N3702 2.622 . S
Gd3707 N3708 2.570 . S
Gd3707 O3739 2.386 . S
Gd3707 O3743 2.307 . S
Gd3707 O3746 2.353 . S
Gd3707 O3747 2.468 . S
Gd3707 O3748 2.427 . S
Gd3707 O3750 2.388 . S
Gd3707 C3771 2.805 . S
N3708 C3698 1.359 . S
N3708 Gd3707 2.570 . S
N3708 C3710 1.343 . S
C3709 C3697 1.422 . S
C3709 C3711 1.321 . S
C3709 H3717 0.931 . S
C3710 N3708 1.343 . S
C3710 C3711 1.390 . S
C3710 H3712 0.931 . S
C3711 C3709 1.321 . S
C3711 C3710 1.390 . S
C3711 H3713 0.930 . S
H3712 C3710 0.931 . S
H3713 C3711 0.930 . S
H3714 C3737 0.931 . S
H3715 C3703 0.929 . S
H3716 C3738 0.930 . S
H3717 C3709 0.931 . S
H3718 C3699 0.930 . S
H3719 C3728 0.929 . S
H3720 C3704 0.931 . S
H3721 C3705 0.930 . S
H3722 C3760 0.930 . S
H3723 C3701 0.929 . S
H3724 C3729 0.931 . S
H3725 C3730 0.930 . S
N3726 Gd3706 2.622 . S
N3726 C3727 1.369 . S
N3726 C3728 1.338 . S
C3727 N3726 1.369 . S
C3727 C3731 1.415 . S
C3727 C3734 1.422 . S
C3728 H3719 0.929 . S
C3728 N3726 1.338 . S
C3728 C3730 1.378 . S
C3729 H3724 0.931 . S
C3729 C3730 1.348 . S
C3729 C3731 1.413 . S
C3730 H3725 0.930 . S
C3730 C3728 1.378 . S
C3730 C3729 1.348 . S
C3731 C3727 1.415 . S
C3731 C3729 1.413 . S
C3731 C3761 1.437 . S
H3732 C3761 0.929 . S
N3733 Gd3706 2.570 . S
N3733 C3734 1.359 . S
N3733 C3737 1.343 . S
C3734 C3727 1.422 . S
C3734 N3733 1.359 . S
C3734 C3736 1.421 . S
C3735 C3736 1.422 . S
C3735 C3738 1.321 . S
C3735 H3762 0.931 . S
C3736 C3734 1.421 . S
C3736 C3735 1.422 . S
C3736 C3760 1.417 . S
C3737 H3714 0.931 . S
C3737 N3733 1.343 . S
C3737 C3738 1.390 . S
C3738 H3716 0.930 . S
C3738 C3735 1.321 . S
C3738 C3737 1.390 . S
O3739 Gd3707 2.386 . S
O3739 C3751 1.265 . S
O3740 Gd3706 2.353 . S
O3740 C3751 1.242 . S
O3741 Gd3706 2.468 . S
O3741 C3759 1.263 . S
O3742 Gd3706 2.427 . S
O3742 C3759 1.252 . S
O3743 Gd3707 2.307 . S
O3743 C3752 1.261 . S
O3744 Gd3706 2.388 . S
O3744 C3752 1.252 . S
O3745 Gd3706 2.386 . S
O3745 C3763 1.265 . S
O3746 Gd3707 2.353 . S
O3746 C3763 1.242 . S
O3747 Gd3707 2.468 . S
O3747 C3771 1.263 . S
O3748 Gd3707 2.427 . S
O3748 C3771 1.252 . S
O3749 Gd3706 2.307 . S
O3749 C3764 1.261 . S
O3750 Gd3707 2.388 . S
O3750 C3764 1.252 . S
C3751 O3739 1.265 . S
C3751 O3740 1.242 . S
C3752 O3743 1.261 . S
C3752 O3744 1.252 . S
C3753 C3756 1.394 . S
C3753 C3758 1.370 . S
C3753 C3759 1.500 . S
C3754 C3757 1.383 . S
C3754 C3758 1.395 . S
C3755 C3756 1.396 . S
C3755 C3757 1.365 . S
C3755 H3772 0.929 . S
C3756 C3753 1.394 . S
C3756 C3755 1.396 . S
C3756 H3773 0.930 . S
C3757 C3754 1.383 . S
C3757 C3755 1.365 . S
C3757 H3774 0.931 . S
C3758 C3753 1.370 . S
C3758 C3754 1.395 . S
C3758 H3775 0.930 . S
C3759 Gd3706 2.805 . S
C3759 O3741 1.263 . S
C3759 O3742 1.252 . S
C3759 C3753 1.500 . S
C3760 H3722 0.930 . S
C3760 C3736 1.417 . S
C3760 C3761 1.329 . S
C3761 C3731 1.437 . S
C3761 H3732 0.929 . S
C3761 C3760 1.329 . S
H3762 C3735 0.931 . S
C3763 O3745 1.265 . S
C3763 O3746 1.242 . S
C3764 O3749 1.261 . S
C3764 O3750 1.252 . S
C3765 C3768 1.394 . S
C3765 C3770 1.370 . S
C3765 C3771 1.500 . S
C3766 C3769 1.383 . S
C3766 C3770 1.395 . S
C3767 C3768 1.396 . S
C3767 C3769 1.365 . S
C3767 H3776 0.929 . S
C3768 C3765 1.394 . S
C3768 C3767 1.396 . S
C3768 H3777 0.930 . S
C3769 C3766 1.383 . S
C3769 C3767 1.365 . S
C3769 H3778 0.931 . S
C3770 C3765 1.370 . S
C3770 C3766 1.395 . S
C3770 H3779 0.930 . S
C3771 Gd3707 2.805 . S
C3771 O3747 1.263 . S
C3771 O3748 1.252 . S
C3771 C3765 1.500 . S
H3772 C3755 0.929 . S
H3773 C3756 0.930 . S
H3774 C3757 0.931 . S
H3775 C3758 0.930 . S
H3776 C3767 0.929 . S
H3777 C3768 0.930 . S
H3778 C3769 0.931 . S
H3779 C3770 0.930 . S
C3780 C3782 1.422 . S
C3780 C3784 1.415 . S
C3780 N3786 1.369 . S
C3781 C3782 1.421 . S
C3781 C3783 1.417 . S
C3781 C3793 1.422 . S
C3782 C3780 1.422 . S
C3782 C3781 1.421 . S
C3782 N3792 1.359 . S
C3783 C3781 1.417 . S
C3783 C3785 1.329 . S
C3783 H3802 0.930 . S
C3784 C3780 1.415 . S
C3784 C3785 1.437 . S
C3784 C3788 1.413 . S
C3785 C3783 1.329 . S
C3785 C3784 1.437 . S
C3785 H3807 0.929 . S
N3786 C3780 1.369 . S
N3786 C3787 1.338 . S
N3786 Gd3791 2.622 . S
C3787 N3786 1.338 . S
C3787 C3789 1.378 . S
C3787 H3799 0.929 . S
C3788 C3784 1.413 . S
C3788 C3789 1.348 . S
C3788 H3804 0.931 . S
C3789 C3787 1.378 . S
C3789 C3788 1.348 . S
C3789 H3805 0.930 . S
Gd3790 N3810 2.622 . S
Gd3790 N3817 2.570 . S
Gd3790 O3824 2.353 . S
Gd3790 O3825 2.468 . S
Gd3790 O3826 2.427 . S
Gd3790 O3828 2.388 . S
Gd3790 O3829 2.386 . S
Gd3790 O3833 2.307 . S
Gd3790 C3843 2.805 . S
Gd3791 N3786 2.622 . S
Gd3791 N3792 2.570 . S
Gd3791 O3823 2.386 . S
Gd3791 O3827 2.307 . S
Gd3791 O3830 2.353 . S
Gd3791 O3831 2.468 . S
Gd3791 O3832 2.427 . S
Gd3791 O3834 2.388 . S
Gd3791 C3855 2.805 . S
N3792 C3782 1.359 . S
N3792 Gd3791 2.570 . S
N3792 C3794 1.343 . S
C3793 C3781 1.422 . S
C3793 C3795 1.321 . S
C3793 H3801 0.931 . S
C3794 N3792 1.343 . S
C3794 C3795 1.390 . S
C3794 H3796 0.931 . S
C3795 C3793 1.321 . S
C3795 C3794 1.390 . S
C3795 H3797 0.930 . S
H3796 C3794 0.931 . S
H3797 C3795 0.930 . S
H3798 C3821 0.931 . S
H3799 C3787 0.929 . S
H3800 C3822 0.930 . S
H3801 C3793 0.931 . S
H3802 C3783 0.930 . S
H3803 C3812 0.929 . S
H3804 C3788 0.931 . S
H3805 C3789 0.930 . S
H3806 C3844 0.930 . S
H3807 C3785 0.929 . S
H3808 C3813 0.931 . S
H3809 C3814 0.930 . S
N3810 Gd3790 2.622 . S
N3810 C3811 1.369 . S
N3810 C3812 1.338 . S
C3811 N3810 1.369 . S
C3811 C3815 1.415 . S
C3811 C3818 1.422 . S
C3812 H3803 0.929 . S
C3812 N3810 1.338 . S
C3812 C3814 1.378 . S
C3813 H3808 0.931 . S
C3813 C3814 1.348 . S
C3813 C3815 1.413 . S
C3814 H3809 0.930 . S
C3814 C3812 1.378 . S
C3814 C3813 1.348 . S
C3815 C3811 1.415 . S
C3815 C3813 1.413 . S
C3815 C3845 1.437 . S
H3816 C3845 0.929 . S
N3817 Gd3790 2.570 . S
N3817 C3818 1.359 . S
N3817 C3821 1.343 . S
C3818 C3811 1.422 . S
C3818 N3817 1.359 . S
C3818 C3820 1.421 . S
C3819 C3820 1.422 . S
C3819 C3822 1.321 . S
C3819 H3846 0.931 . S
C3820 C3818 1.421 . S
C3820 C3819 1.422 . S
C3820 C3844 1.417 . S
C3821 H3798 0.931 . S
C3821 N3817 1.343 . S
C3821 C3822 1.390 . S
C3822 H3800 0.930 . S
C3822 C3819 1.321 . S
C3822 C3821 1.390 . S
O3823 Gd3791 2.386 . S
O3823 C3835 1.265 . S
O3824 Gd3790 2.353 . S
O3824 C3835 1.242 . S
O3825 Gd3790 2.468 . S
O3825 C3843 1.263 . S
O3826 Gd3790 2.427 . S
O3826 C3843 1.252 . S
O3827 Gd3791 2.307 . S
O3827 C3836 1.261 . S
O3828 Gd3790 2.388 . S
O3828 C3836 1.252 . S
O3829 Gd3790 2.386 . S
O3829 C3847 1.265 . S
O3830 Gd3791 2.353 . S
O3830 C3847 1.242 . S
O3831 Gd3791 2.468 . S
O3831 C3855 1.263 . S
O3832 Gd3791 2.427 . S
O3832 C3855 1.252 . S
O3833 Gd3790 2.307 . S
O3833 C3848 1.261 . S
O3834 Gd3791 2.388 . S
O3834 C3848 1.252 . S
C3835 O3823 1.265 . S
C3835 O3824 1.242 . S
C3836 O3827 1.261 . S
C3836 O3828 1.252 . S
C3837 C3840 1.394 . S
C3837 C3842 1.370 . S
C3837 C3843 1.500 . S
C3838 C3841 1.383 . S
C3838 C3842 1.395 . S
C3839 C3840 1.396 . S
C3839 C3841 1.365 . S
C3839 H3856 0.929 . S
C3840 C3837 1.394 . S
C3840 C3839 1.396 . S
C3840 H3857 0.930 . S
C3841 C3838 1.383 . S
C3841 C3839 1.365 . S
C3841 H3858 0.931 . S
C3842 C3837 1.370 . S
C3842 C3838 1.395 . S
C3842 H3859 0.930 . S
C3843 Gd3790 2.805 . S
C3843 O3825 1.263 . S
C3843 O3826 1.252 . S
C3843 C3837 1.500 . S
C3844 H3806 0.930 . S
C3844 C3820 1.417 . S
C3844 C3845 1.329 . S
C3845 C3815 1.437 . S
C3845 H3816 0.929 . S
C3845 C3844 1.329 . S
H3846 C3819 0.931 . S
C3847 O3829 1.265 . S
C3847 O3830 1.242 . S
C3848 O3833 1.261 . S
C3848 O3834 1.252 . S
C3849 C3852 1.394 . S
C3849 C3854 1.370 . S
C3849 C3855 1.500 . S
C3850 C3853 1.383 . S
C3850 C3854 1.395 . S
C3851 C3852 1.396 . S
C3851 C3853 1.365 . S
C3851 H3860 0.929 . S
C3852 C3849 1.394 . S
C3852 C3851 1.396 . S
C3852 H3861 0.930 . S
C3853 C3850 1.383 . S
C3853 C3851 1.365 . S
C3853 H3862 0.931 . S
C3854 C3849 1.370 . S
C3854 C3850 1.395 . S
C3854 H3863 0.930 . S
C3855 Gd3791 2.805 . S
C3855 O3831 1.263 . S
C3855 O3832 1.252 . S
C3855 C3849 1.500 . S
H3856 C3839 0.929 . S
H3857 C3840 0.930 . S
H3858 C3841 0.931 . S
H3859 C3842 0.930 . S
H3860 C3851 0.929 . S
H3861 C3852 0.930 . S
H3862 C3853 0.931 . S
H3863 C3854 0.930 . S
C3864 C3866 1.422 . S
C3864 C3868 1.415 . S
C3864 N3870 1.369 . S
C3865 C3866 1.421 . S
C3865 C3867 1.417 . S
C3865 C3877 1.422 . S
C3866 C3864 1.422 . S
C3866 C3865 1.421 . S
C3866 N3876 1.359 . S
C3867 C3865 1.417 . S
C3867 C3869 1.329 . S
C3867 H3886 0.930 . S
C3868 C3864 1.415 . S
C3868 C3869 1.437 . S
C3868 C3872 1.413 . S
C3869 C3867 1.329 . S
C3869 C3868 1.437 . S
C3869 H3891 0.929 . S
N3870 C3864 1.369 . S
N3870 C3871 1.338 . S
N3870 Gd3875 2.622 . S
C3871 N3870 1.338 . S
C3871 C3873 1.378 . S
C3871 H3883 0.929 . S
C3872 C3868 1.413 . S
C3872 C3873 1.348 . S
C3872 H3888 0.931 . S
C3873 C3871 1.378 . S
C3873 C3872 1.348 . S
C3873 H3889 0.930 . S
Gd3874 N3894 2.622 . S
Gd3874 N3901 2.570 . S
Gd3874 O3908 2.353 . S
Gd3874 O3909 2.468 . S
Gd3874 O3910 2.427 . S
Gd3874 O3912 2.388 . S
Gd3874 O3913 2.386 . S
Gd3874 O3917 2.307 . S
Gd3874 C3927 2.805 . S
Gd3875 N3870 2.622 . S
Gd3875 N3876 2.570 . S
Gd3875 O3907 2.386 . S
Gd3875 O3911 2.307 . S
Gd3875 O3914 2.353 . S
Gd3875 O3915 2.468 . S
Gd3875 O3916 2.427 . S
Gd3875 O3918 2.388 . S
Gd3875 C3939 2.805 . S
N3876 C3866 1.359 . S
N3876 Gd3875 2.570 . S
N3876 C3878 1.343 . S
C3877 C3865 1.422 . S
C3877 C3879 1.321 . S
C3877 H3885 0.931 . S
C3878 N3876 1.343 . S
C3878 C3879 1.390 . S
C3878 H3880 0.931 . S
C3879 C3877 1.321 . S
C3879 C3878 1.390 . S
C3879 H3881 0.930 . S
H3880 C3878 0.931 . S
H3881 C3879 0.930 . S
H3882 C3905 0.931 . S
H3883 C3871 0.929 . S
H3884 C3906 0.930 . S
H3885 C3877 0.931 . S
H3886 C3867 0.930 . S
H3887 C3896 0.929 . S
H3888 C3872 0.931 . S
H3889 C3873 0.930 . S
H3890 C3928 0.930 . S
H3891 C3869 0.929 . S
H3892 C3897 0.931 . S
H3893 C3898 0.930 . S
N3894 Gd3874 2.622 . S
N3894 C3895 1.369 . S
N3894 C3896 1.338 . S
C3895 N3894 1.369 . S
C3895 C3899 1.415 . S
C3895 C3902 1.422 . S
C3896 H3887 0.929 . S
C3896 N3894 1.338 . S
C3896 C3898 1.378 . S
C3897 H3892 0.931 . S
C3897 C3898 1.348 . S
C3897 C3899 1.413 . S
C3898 H3893 0.930 . S
C3898 C3896 1.378 . S
C3898 C3897 1.348 . S
C3899 C3895 1.415 . S
C3899 C3897 1.413 . S
C3899 C3929 1.437 . S
H3900 C3929 0.929 . S
N3901 Gd3874 2.570 . S
N3901 C3902 1.359 . S
N3901 C3905 1.343 . S
C3902 C3895 1.422 . S
C3902 N3901 1.359 . S
C3902 C3904 1.421 . S
C3903 C3904 1.422 . S
C3903 C3906 1.321 . S
C3903 H3930 0.931 . S
C3904 C3902 1.421 . S
C3904 C3903 1.422 . S
C3904 C3928 1.417 . S
C3905 H3882 0.931 . S
C3905 N3901 1.343 . S
C3905 C3906 1.390 . S
C3906 H3884 0.930 . S
C3906 C3903 1.321 . S
C3906 C3905 1.390 . S
O3907 Gd3875 2.386 . S
O3907 C3919 1.265 . S
O3908 Gd3874 2.353 . S
O3908 C3919 1.242 . S
O3909 Gd3874 2.468 . S
O3909 C3927 1.263 . S
O3910 Gd3874 2.427 . S
O3910 C3927 1.252 . S
O3911 Gd3875 2.307 . S
O3911 C3920 1.261 . S
O3912 Gd3874 2.388 . S
O3912 C3920 1.252 . S
O3913 Gd3874 2.386 . S
O3913 C3931 1.265 . S
O3914 Gd3875 2.353 . S
O3914 C3931 1.242 . S
O3915 Gd3875 2.468 . S
O3915 C3939 1.263 . S
O3916 Gd3875 2.427 . S
O3916 C3939 1.252 . S
O3917 Gd3874 2.307 . S
O3917 C3932 1.261 . S
O3918 Gd3875 2.388 . S
O3918 C3932 1.252 . S
C3919 O3907 1.265 . S
C3919 O3908 1.242 . S
C3920 O3911 1.261 . S
C3920 O3912 1.252 . S
C3921 C3924 1.394 . S
C3921 C3926 1.370 . S
C3921 C3927 1.500 . S
C3922 C3925 1.383 . S
C3922 C3926 1.395 . S
C3923 C3924 1.396 . S
C3923 C3925 1.365 . S
C3923 H3940 0.929 . S
C3924 C3921 1.394 . S
C3924 C3923 1.396 . S
C3924 H3941 0.930 . S
C3925 C3922 1.383 . S
C3925 C3923 1.365 . S
C3925 H3942 0.931 . S
C3926 C3921 1.370 . S
C3926 C3922 1.395 . S
C3926 H3943 0.930 . S
C3927 Gd3874 2.805 . S
C3927 O3909 1.263 . S
C3927 O3910 1.252 . S
C3927 C3921 1.500 . S
C3928 H3890 0.930 . S
C3928 C3904 1.417 . S
C3928 C3929 1.329 . S
C3929 C3899 1.437 . S
C3929 H3900 0.929 . S
C3929 C3928 1.329 . S
H3930 C3903 0.931 . S
C3931 O3913 1.265 . S
C3931 O3914 1.242 . S
C3932 O3917 1.261 . S
C3932 O3918 1.252 . S
C3933 C3936 1.394 . S
C3933 C3938 1.370 . S
C3933 C3939 1.500 . S
C3934 C3937 1.383 . S
C3934 C3938 1.395 . S
C3935 C3936 1.396 . S
C3935 C3937 1.365 . S
C3935 H3944 0.929 . S
C3936 C3933 1.394 . S
C3936 C3935 1.396 . S
C3936 H3945 0.930 . S
C3937 C3934 1.383 . S
C3937 C3935 1.365 . S
C3937 H3946 0.931 . S
C3938 C3933 1.370 . S
C3938 C3934 1.395 . S
C3938 H3947 0.930 . S
C3939 Gd3875 2.805 . S
C3939 O3915 1.263 . S
C3939 O3916 1.252 . S
C3939 C3933 1.500 . S
H3940 C3923 0.929 . S
H3941 C3924 0.930 . S
H3942 C3925 0.931 . S
H3943 C3926 0.930 . S
H3944 C3935 0.929 . S
H3945 C3936 0.930 . S
H3946 C3937 0.931 . S
H3947 C3938 0.930 . S
C3948 C3950 1.422 . S
C3948 C3952 1.415 . S
C3948 N3954 1.369 . S
C3949 C3950 1.421 . S
C3949 C3951 1.417 . S
C3949 C3961 1.422 . S
C3950 C3948 1.422 . S
C3950 C3949 1.421 . S
C3950 N3960 1.359 . S
C3951 C3949 1.417 . S
C3951 C3953 1.329 . S
C3951 H3970 0.930 . S
C3952 C3948 1.415 . S
C3952 C3953 1.437 . S
C3952 C3956 1.413 . S
C3953 C3951 1.329 . S
C3953 C3952 1.437 . S
C3953 H3975 0.929 . S
N3954 C3948 1.369 . S
N3954 C3955 1.338 . S
N3954 Gd3959 2.622 . S
C3955 N3954 1.338 . S
C3955 C3957 1.378 . S
C3955 H3967 0.929 . S
C3956 C3952 1.413 . S
C3956 C3957 1.348 . S
C3956 H3972 0.931 . S
C3957 C3955 1.378 . S
C3957 C3956 1.348 . S
C3957 H3973 0.930 . S
Gd3958 N3978 2.622 . S
Gd3958 N3985 2.570 . S
Gd3958 O3992 2.353 . S
Gd3958 O3993 2.468 . S
Gd3958 O3994 2.427 . S
Gd3958 O3996 2.388 . S
Gd3958 O3997 2.386 . S
Gd3958 O4001 2.307 . S
Gd3958 C4011 2.805 . S
Gd3959 N3954 2.622 . S
Gd3959 N3960 2.570 . S
Gd3959 O3991 2.386 . S
Gd3959 O3995 2.307 . S
Gd3959 O3998 2.353 . S
Gd3959 O3999 2.468 . S
Gd3959 O4000 2.427 . S
Gd3959 O4002 2.388 . S
Gd3959 C4023 2.805 . S
N3960 C3950 1.359 . S
N3960 Gd3959 2.570 . S
N3960 C3962 1.343 . S
C3961 C3949 1.422 . S
C3961 C3963 1.321 . S
C3961 H3969 0.931 . S
C3962 N3960 1.343 . S
C3962 C3963 1.390 . S
C3962 H3964 0.931 . S
C3963 C3961 1.321 . S
C3963 C3962 1.390 . S
C3963 H3965 0.930 . S
H3964 C3962 0.931 . S
H3965 C3963 0.930 . S
H3966 C3989 0.931 . S
H3967 C3955 0.929 . S
H3968 C3990 0.930 . S
H3969 C3961 0.931 . S
H3970 C3951 0.930 . S
H3971 C3980 0.929 . S
H3972 C3956 0.931 . S
H3973 C3957 0.930 . S
H3974 C4012 0.930 . S
H3975 C3953 0.929 . S
H3976 C3981 0.931 . S
H3977 C3982 0.930 . S
N3978 Gd3958 2.622 . S
N3978 C3979 1.369 . S
N3978 C3980 1.338 . S
C3979 N3978 1.369 . S
C3979 C3983 1.415 . S
C3979 C3986 1.422 . S
C3980 H3971 0.929 . S
C3980 N3978 1.338 . S
C3980 C3982 1.378 . S
C3981 H3976 0.931 . S
C3981 C3982 1.348 . S
C3981 C3983 1.413 . S
C3982 H3977 0.930 . S
C3982 C3980 1.378 . S
C3982 C3981 1.348 . S
C3983 C3979 1.415 . S
C3983 C3981 1.413 . S
C3983 C4013 1.437 . S
H3984 C4013 0.929 . S
N3985 Gd3958 2.570 . S
N3985 C3986 1.359 . S
N3985 C3989 1.343 . S
C3986 C3979 1.422 . S
C3986 N3985 1.359 . S
C3986 C3988 1.421 . S
C3987 C3988 1.422 . S
C3987 C3990 1.321 . S
C3987 H4014 0.931 . S
C3988 C3986 1.421 . S
C3988 C3987 1.422 . S
C3988 C4012 1.417 . S
C3989 H3966 0.931 . S
C3989 N3985 1.343 . S
C3989 C3990 1.390 . S
C3990 H3968 0.930 . S
C3990 C3987 1.321 . S
C3990 C3989 1.390 . S
O3991 Gd3959 2.386 . S
O3991 C4003 1.265 . S
O3992 Gd3958 2.353 . S
O3992 C4003 1.242 . S
O3993 Gd3958 2.468 . S
O3993 C4011 1.263 . S
O3994 Gd3958 2.427 . S
O3994 C4011 1.252 . S
O3995 Gd3959 2.307 . S
O3995 C4004 1.261 . S
O3996 Gd3958 2.388 . S
O3996 C4004 1.252 . S
O3997 Gd3958 2.386 . S
O3997 C4015 1.265 . S
O3998 Gd3959 2.353 . S
O3998 C4015 1.242 . S
O3999 Gd3959 2.468 . S
O3999 C4023 1.263 . S
O4000 Gd3959 2.427 . S
O4000 C4023 1.252 . S
O4001 Gd3958 2.307 . S
O4001 C4016 1.261 . S
O4002 Gd3959 2.388 . S
O4002 C4016 1.252 . S
C4003 O3991 1.265 . S
C4003 O3992 1.242 . S
C4004 O3995 1.261 . S
C4004 O3996 1.252 . S
C4005 C4008 1.394 . S
C4005 C4010 1.370 . S
C4005 C4011 1.500 . S
C4006 C4009 1.383 . S
C4006 C4010 1.395 . S
C4007 C4008 1.396 . S
C4007 C4009 1.365 . S
C4007 H4024 0.929 . S
C4008 C4005 1.394 . S
C4008 C4007 1.396 . S
C4008 H4025 0.930 . S
C4009 C4006 1.383 . S
C4009 C4007 1.365 . S
C4009 H4026 0.931 . S
C4010 C4005 1.370 . S
C4010 C4006 1.395 . S
C4010 H4027 0.930 . S
C4011 Gd3958 2.805 . S
C4011 O3993 1.263 . S
C4011 O3994 1.252 . S
C4011 C4005 1.500 . S
C4012 H3974 0.930 . S
C4012 C3988 1.417 . S
C4012 C4013 1.329 . S
C4013 C3983 1.437 . S
C4013 H3984 0.929 . S
C4013 C4012 1.329 . S
H4014 C3987 0.931 . S
C4015 O3997 1.265 . S
C4015 O3998 1.242 . S
C4016 O4001 1.261 . S
C4016 O4002 1.252 . S
C4017 C4020 1.394 . S
C4017 C4022 1.370 . S
C4017 C4023 1.500 . S
C4018 C4021 1.383 . S
C4018 C4022 1.395 . S
C4019 C4020 1.396 . S
C4019 C4021 1.365 . S
C4019 H4028 0.929 . S
C4020 C4017 1.394 . S
C4020 C4019 1.396 . S
C4020 H4029 0.930 . S
C4021 C4018 1.383 . S
C4021 C4019 1.365 . S
C4021 H4030 0.931 . S
C4022 C4017 1.370 . S
C4022 C4018 1.395 . S
C4022 H4031 0.930 . S
C4023 Gd3959 2.805 . S
C4023 O3999 1.263 . S
C4023 O4000 1.252 . S
C4023 C4017 1.500 . S
H4024 C4007 0.929 . S
H4025 C4008 0.930 . S
H4026 C4009 0.931 . S
H4027 C4010 0.930 . S
H4028 C4019 0.929 . S
H4029 C4020 0.930 . S
H4030 C4021 0.931 . S
H4031 C4022 0.930 . S
H4032 C4038 0.930 . S
H4033 C4041 0.930 . S
H4034 C4042 0.930 . S
H4035 C4043 0.930 . S
H4036 C4046 0.930 . S
H4037 C4047 0.930 . S
C4038 H4032 0.930 . S
C4038 C4039 1.355 . S
C4038 C4040 1.415 . S
C4039 C4038 1.355 . S
C4039 C4041 1.419 1_455 S
C4040 C4038 1.415 . S
C4040 C4045 1.425 1_455 S
C4040 C4047 1.409 . S
C4041 H4033 0.930 . S
C4041 C4039 1.419 1_655 S
C4041 C4042 1.362 . S
C4042 H4034 0.930 . S
C4042 C4041 1.362 . S
C4042 C4045 1.409 . S
C4043 H4035 0.930 . S
C4043 C4044 1.355 1_655 S
C4043 C4045 1.415 . S
C4044 C4043 1.355 1_455 S
C4044 C4046 1.419 . S
C4045 C4040 1.425 1_655 S
C4045 C4042 1.409 . S
C4045 C4043 1.415 . S
C4046 H4036 0.930 . S
C4046 C4044 1.419 . S
C4046 C4047 1.362 . S
C4047 H4037 0.930 . S
C4047 C4040 1.409 . S
C4047 C4046 1.362 . S
H4048 C4054 0.930 . S
H4049 C4057 0.930 . S
H4050 C4058 0.930 . S
H4051 C4059 0.930 . S
H4052 C4062 0.930 . S
H4053 C4063 0.930 . S
C4054 H4048 0.930 . S
C4054 C4055 1.355 . S
C4054 C4056 1.415 . S
C4055 C4054 1.355 . S
C4055 C4057 1.419 . S
C4056 C4054 1.415 . S
C4056 C4061 1.425 . S
C4056 C4063 1.409 . S
C4057 H4049 0.930 . S
C4057 C4055 1.419 . S
C4057 C4058 1.362 . S
C4058 H4050 0.930 . S
C4058 C4057 1.362 . S
C4058 C4061 1.409 . S
C4059 H4051 0.930 . S
C4059 C4060 1.355 . S
C4059 C4061 1.415 . S
C4060 C4059 1.355 . S
C4060 C4062 1.419 . S
C4061 C4056 1.425 . S
C4061 C4058 1.409 . S
C4061 C4059 1.415 . S
C4062 H4052 0.930 . S
C4062 C4060 1.419 . S
C4062 C4063 1.362 . S
C4063 H4053 0.930 . S
C4063 C4056 1.409 . S
C4063 C4062 1.362 . S
H4064 C4070 0.930 . S
H4065 C4073 0.930 . S
H4066 C4074 0.930 . S
H4067 C4075 0.930 . S
H4068 C4078 0.930 . S
H4069 C4079 0.930 . S
C4070 H4064 0.930 . S
C4070 C4071 1.355 . S
C4070 C4072 1.415 . S
C4071 C4070 1.355 . S
C4071 C4073 1.419 . S
C4072 C4070 1.415 . S
C4072 C4077 1.425 . S
C4072 C4079 1.409 . S
C4073 H4065 0.930 . S
C4073 C4071 1.419 . S
C4073 C4074 1.362 . S
C4074 H4066 0.930 . S
C4074 C4073 1.362 . S
C4074 C4077 1.409 . S
C4075 H4067 0.930 . S
C4075 C4076 1.355 . S
C4075 C4077 1.415 . S
C4076 C4075 1.355 . S
C4076 C4078 1.419 . S
C4077 C4072 1.425 . S
C4077 C4074 1.409 . S
C4077 C4075 1.415 . S
C4078 H4068 0.930 . S
C4078 C4076 1.419 . S
C4078 C4079 1.362 . S
C4079 H4069 0.930 . S
C4079 C4072 1.409 . S
C4079 C4078 1.362 . S
H4080 C4086 0.930 . S
H4081 C4089 0.930 . S
H4082 C4090 0.930 . S
H4083 C4091 0.930 . S
H4084 C4094 0.930 . S
H4085 C4095 0.930 . S
C4086 H4080 0.930 . S
C4086 C4087 1.355 1_556 S
C4086 C4088 1.415 . S
C4087 C4086 1.355 1_554 S
C4087 C4089 1.419 . S
C4088 C4086 1.415 . S
C4088 C4093 1.425 1_556 S
C4088 C4095 1.409 . S
C4089 H4081 0.930 . S
C4089 C4087 1.419 . S
C4089 C4090 1.362 . S
C4090 H4082 0.930 . S
C4090 C4089 1.362 . S
C4090 C4093 1.409 . S
C4091 H4083 0.930 . S
C4091 C4092 1.355 1_554 S
C4091 C4093 1.415 . S
C4092 C4091 1.355 1_556 S
C4092 C4094 1.419 . S
C4093 C4088 1.425 1_554 S
C4093 C4090 1.409 . S
C4093 C4091 1.415 . S
C4094 H4084 0.930 . S
C4094 C4092 1.419 . S
C4094 C4095 1.362 . S
C4095 H4085 0.930 . S
C4095 C4088 1.409 . S
C4095 C4094 1.362 . S
H4096 C4102 0.930 . S
H4097 C4105 0.930 . S
H4098 C4106 0.930 . S
H4099 C4107 0.930 . S
H4100 C4110 0.930 . S
H4101 C4111 0.930 . S
C4102 H4096 0.930 . S
C4102 C4103 1.320 1_565 S
C4102 C4104 1.415 . S
C4103 C4102 1.320 1_545 S
C4103 C4105 1.463 . S
C4104 C4102 1.415 . S
C4104 C4109 1.425 1_565 S
C4104 C4111 1.409 . S
C4105 H4097 0.930 . S
C4105 C4103 1.463 . S
C4105 C4106 1.362 . S
C4106 H4098 0.930 . S
C4106 C4105 1.362 . S
C4106 C4109 1.409 . S
C4107 H4099 0.930 . S
C4107 C4108 1.355 1_545 S
C4107 C4109 1.415 . S
C4108 C4107 1.355 1_565 S
C4108 C4110 1.419 . S
C4109 C4104 1.425 1_545 S
C4109 C4106 1.409 . S
C4109 C4107 1.415 . S
C4110 H4100 0.930 . S
C4110 C4108 1.419 . S
C4110 C4111 1.362 . S
C4111 H4101 0.930 . S
C4111 C4104 1.409 . S
C4111 C4110 1.362 . S
H4112 C4118 0.930 . S
H4113 C4121 0.930 . S
H4114 C4122 0.930 . S
H4115 C4123 0.930 . S
H4116 C4126 0.930 . S
H4117 C4127 0.930 . S
C4118 H4112 0.930 . S
C4118 C4119 1.355 . S
C4118 C4120 1.415 . S
C4119 C4118 1.355 . S
C4119 C4121 1.419 1_565 S
C4120 C4118 1.415 . S
C4120 C4125 1.425 1_565 S
C4120 C4127 1.409 . S
C4121 H4113 0.930 . S
C4121 C4119 1.419 1_545 S
C4121 C4122 1.362 . S
C4122 H4114 0.930 . S
C4122 C4121 1.362 . S
C4122 C4125 1.409 . S
C4123 H4115 0.930 . S
C4123 C4124 1.355 . S
C4123 C4125 1.415 . S
C4124 C4123 1.355 . S
C4124 C4126 1.419 1_545 S
C4125 C4120 1.425 1_545 S
C4125 C4122 1.409 . S
C4125 C4123 1.415 . S
C4126 H4116 0.930 . S
C4126 C4124 1.419 1_565 S
C4126 C4127 1.362 . S
C4127 H4117 0.930 . S
C4127 C4120 1.409 . S
C4127 C4126 1.362 . S
H4128 C4134 0.930 . S
H4129 C4137 0.930 . S
H4130 C4138 0.930 . S
H4131 C4139 0.930 . S
H4132 C4142 0.930 . S
H4133 C4143 0.930 . S
C4134 H4128 0.930 . S
C4134 C4135 1.355 1_565 S
C4134 C4136 1.415 . S
C4135 C4134 1.355 1_545 S
C4135 C4137 1.419 . S
C4136 C4134 1.415 . S
C4136 C4141 1.425 1_564 S
C4136 C4143 1.409 1_554 S
C4137 H4129 0.930 . S
C4137 C4135 1.419 . S
C4137 C4138 1.362 . S
C4138 H4130 0.930 . S
C4138 C4137 1.362 . S
C4138 C4141 1.409 1_554 S
C4139 H4131 0.930 . S
C4139 C4140 1.355 1_545 S
C4139 C4141 1.415 . S
C4140 C4139 1.355 1_565 S
C4140 C4142 1.419 . S
C4141 C4136 1.425 1_546 S
C4141 C4138 1.409 1_556 S
C4141 C4139 1.415 . S
C4142 H4132 0.930 . S
C4142 C4140 1.419 . S
C4142 C4143 1.362 . S
C4143 H4133 0.930 . S
C4143 C4136 1.409 1_556 S
C4143 C4142 1.362 . S
H4144 C4150 0.930 . S
H4145 C4153 0.930 . S
H4146 C4154 0.930 . S
H4147 C4155 0.930 . S
H4148 C4158 0.930 . S
H4149 C4159 0.930 . S
C4150 H4144 0.930 . S
C4150 C4151 1.355 . S
C4150 C4152 1.415 . S
C4151 C4150 1.355 . S
C4151 C4153 1.419 1_545 S
C4152 C4150 1.415 . S
C4152 C4157 1.425 1_545 S
C4152 C4159 1.409 . S
C4153 H4145 0.930 . S
C4153 C4151 1.419 1_565 S
C4153 C4154 1.362 . S
C4154 H4146 0.930 . S
C4154 C4153 1.362 . S
C4154 C4157 1.409 . S
C4155 H4147 0.930 . S
C4155 C4156 1.355 . S
C4155 C4157 1.415 . S
C4156 C4155 1.355 . S
C4156 C4158 1.419 1_565 S
C4157 C4152 1.425 1_565 S
C4157 C4154 1.409 . S
C4157 C4155 1.415 . S
C4158 H4148 0.930 . S
C4158 C4156 1.419 1_545 S
C4158 C4159 1.362 . S
C4159 H4149 0.930 . S
C4159 C4152 1.409 . S
C4159 C4158 1.362 . S
H4160 C4166 0.930 . S
H4161 C4169 0.930 . S
H4162 C4170 0.930 . S
H4163 C4171 0.930 . S
H4164 C4174 0.930 . S
H4165 C4175 0.930 . S
C4166 H4160 0.930 . S
C4166 C4167 1.355 1_556 S
C4166 C4168 1.415 . S
C4167 C4166 1.355 1_554 S
C4167 C4169 1.419 . S
C4168 C4166 1.415 . S
C4168 C4173 1.425 1_556 S
C4168 C4175 1.409 . S
C4169 H4161 0.930 . S
C4169 C4167 1.419 . S
C4169 C4170 1.362 . S
C4170 H4162 0.930 . S
C4170 C4169 1.362 . S
C4170 C4173 1.409 . S
C4171 H4163 0.930 . S
C4171 C4172 1.357 1_554 S
C4171 C4173 1.415 . S
C4172 C4171 1.357 1_556 S
C4172 C4174 1.417 . S
C4173 C4168 1.425 1_554 S
C4173 C4170 1.409 . S
C4173 C4171 1.415 . S
C4174 H4164 0.930 . S
C4174 C4172 1.417 . S
C4174 C4175 1.362 . S
C4175 H4165 0.930 . S
C4175 C4168 1.409 . S
C4175 C4174 1.362 . S
H4176 C4182 0.930 . S
H4177 C4185 0.930 . S
H4178 C4186 0.930 . S
H4179 C4187 0.930 . S
H4180 C4190 0.930 . S
H4181 C4191 0.930 . S
C4182 H4176 0.930 . S
C4182 C4183 1.347 1_554 S
C4182 C4184 1.415 . S
C4183 C4182 1.347 1_556 S
C4183 C4185 1.430 . S
C4184 C4182 1.415 . S
C4184 C4189 1.425 1_654 S
C4184 C4191 1.409 1_655 S
C4185 H4177 0.930 . S
C4185 C4183 1.430 . S
C4185 C4186 1.362 . S
C4186 H4178 0.930 . S
C4186 C4185 1.362 . S
C4186 C4189 1.409 1_655 S
C4187 H4179 0.930 . S
C4187 C4188 1.355 1_556 S
C4187 C4189 1.415 . S
C4188 C4187 1.355 1_554 S
C4188 C4190 1.419 . S
C4189 C4184 1.425 1_456 S
C4189 C4186 1.409 1_455 S
C4189 C4187 1.415 . S
C4190 H4180 0.930 . S
C4190 C4188 1.419 . S
C4190 C4191 1.362 . S
C4191 H4181 0.930 . S
C4191 C4184 1.409 1_455 S
C4191 C4190 1.362 . S
H4192 C4198 0.930 . S
H4193 C4201 0.930 . S
H4194 C4202 0.930 . S
H4195 C4203 0.930 . S
H4196 C4206 0.930 . S
H4197 C4207 0.930 . S
C4198 H4192 0.930 . S
C4198 C4199 1.355 1_455 S
C4198 C4200 1.415 . S
C4199 C4198 1.355 1_655 S
C4199 C4201 1.419 . S
C4200 C4198 1.415 . S
C4200 C4205 1.425 1_455 S
C4200 C4207 1.409 . S
C4201 H4193 0.930 . S
C4201 C4199 1.419 . S
C4201 C4202 1.362 . S
C4202 H4194 0.930 . S
C4202 C4201 1.362 . S
C4202 C4205 1.409 . S
C4203 H4195 0.930 . S
C4203 C4204 1.355 1_655 S
C4203 C4205 1.415 . S
C4204 C4203 1.355 1_455 S
C4204 C4206 1.419 . S
C4205 C4200 1.425 1_655 S
C4205 C4202 1.409 . S
C4205 C4203 1.415 . S
C4206 H4196 0.930 . S
C4206 C4204 1.419 . S
C4206 C4207 1.362 . S
C4207 H4197 0.930 . S
C4207 C4200 1.409 . S
C4207 C4206 1.362 . S
H4208 C4214 0.930 . S
H4209 C4217 0.930 . S
H4210 C4218 0.930 . S
H4211 C4219 0.930 . S
H4212 C4222 0.930 . S
H4213 C4223 0.930 . S
C4214 H4208 0.930 . S
C4214 C4215 1.355 . S
C4214 C4216 1.415 . S
C4215 C4214 1.355 . S
C4215 C4217 1.419 . S
C4216 C4214 1.415 . S
C4216 C4221 1.425 . S
C4216 C4223 1.409 . S
C4217 H4209 0.930 . S
C4217 C4215 1.419 . S
C4217 C4218 1.362 . S
C4218 H4210 0.930 . S
C4218 C4217 1.362 . S
C4218 C4221 1.409 . S
C4219 H4211 0.930 . S
C4219 C4220 1.355 . S
C4219 C4221 1.415 . S
C4220 C4219 1.355 . S
C4220 C4222 1.419 . S
C4221 C4216 1.425 . S
C4221 C4218 1.409 . S
C4221 C4219 1.415 . S
C4222 H4212 0.930 . S
C4222 C4220 1.419 . S
C4222 C4223 1.362 . S
C4223 H4213 0.930 . S
C4223 C4216 1.409 . S
C4223 C4222 1.362 . S
H4224 C4230 0.930 . S
H4225 C4233 0.930 . S
H4226 C4234 0.930 . S
H4227 C4235 0.930 . S
H4228 C4238 0.930 . S
H4229 C4239 0.930 . S
C4230 H4224 0.930 . S
C4230 C4231 1.355 . S
C4230 C4232 1.415 . S
C4231 C4230 1.355 . S
C4231 C4233 1.419 . S
C4232 C4230 1.415 . S
C4232 C4237 1.425 1_655 S
C4232 C4239 1.409 1_655 S
C4233 H4225 0.930 . S
C4233 C4231 1.419 . S
C4233 C4234 1.362 . S
C4234 H4226 0.930 . S
C4234 C4233 1.362 . S
C4234 C4237 1.409 1_655 S
C4235 H4227 0.930 . S
C4235 C4236 1.355 . S
C4235 C4237 1.415 . S
C4236 C4235 1.355 . S
C4236 C4238 1.419 . S
C4237 C4232 1.425 1_455 S
C4237 C4234 1.409 1_455 S
C4237 C4235 1.415 . S
C4238 H4228 0.930 . S
C4238 C4236 1.419 . S
C4238 C4239 1.362 . S
C4239 H4229 0.930 . S
C4239 C4232 1.409 1_455 S
C4239 C4238 1.362 . S
H4240 C4246 0.930 . S
H4241 C4249 0.930 . S
H4242 C4250 0.930 . S
H4243 C4251 0.930 . S
H4244 C4254 0.930 . S
H4245 C4255 0.930 . S
C4246 H4240 0.930 . S
C4246 C4247 1.355 1_655 S
C4246 C4248 1.415 . S
C4247 C4246 1.355 1_455 S
C4247 C4249 1.419 . S
C4248 C4246 1.415 . S
C4248 C4253 1.425 1_655 S
C4248 C4255 1.409 . S
C4249 H4241 0.930 . S
C4249 C4247 1.419 . S
C4249 C4250 1.362 . S
C4250 H4242 0.930 . S
C4250 C4249 1.362 . S
C4250 C4253 1.409 . S
C4251 H4243 0.930 . S
C4251 C4252 1.355 1_455 S
C4251 C4253 1.415 . S
C4252 C4251 1.355 1_655 S
C4252 C4254 1.419 . S
C4253 C4248 1.425 1_455 S
C4253 C4250 1.409 . S
C4253 C4251 1.415 . S
C4254 H4244 0.930 . S
C4254 C4252 1.419 . S
C4254 C4255 1.362 . S
C4255 H4245 0.930 . S
C4255 C4248 1.409 . S
C4255 C4254 1.362 . S
H4256 C4262 0.930 . S
H4257 C4265 0.930 . S
H4258 C4266 0.930 . S
H4259 C4267 0.930 . S
H4260 C4270 0.930 . S
H4261 C4271 0.930 . S
C4262 H4256 0.930 . S
C4262 C4263 1.355 . S
C4262 C4264 1.415 . S
C4263 C4262 1.355 . S
C4263 C4265 1.419 . S
C4264 C4262 1.415 . S
C4264 C4269 1.425 . S
C4264 C4271 1.409 . S
C4265 H4257 0.930 . S
C4265 C4263 1.419 . S
C4265 C4266 1.362 . S
C4266 H4258 0.930 . S
C4266 C4265 1.362 . S
C4266 C4269 1.409 . S
C4267 H4259 0.930 . S
C4267 C4268 1.355 . S
C4267 C4269 1.415 . S
C4268 C4267 1.355 . S
C4268 C4270 1.419 . S
C4269 C4264 1.425 . S
C4269 C4266 1.409 . S
C4269 C4267 1.415 . S
C4270 H4260 0.930 . S
C4270 C4268 1.419 . S
C4270 C4271 1.362 . S
C4271 H4261 0.930 . S
C4271 C4264 1.409 . S
C4271 C4270 1.362 . S
H4272 C4278 0.930 . S
H4273 C4281 0.930 . S
H4274 C4282 0.930 . S
H4275 C4283 0.930 . S
H4276 C4286 0.930 . S
H4277 C4287 0.930 . S
C4278 H4272 0.930 . S
C4278 C4279 1.373 . S
C4278 C4280 1.415 . S
C4279 C4278 1.373 . S
C4279 C4281 1.398 1_655 S
C4280 C4278 1.415 . S
C4280 C4285 1.425 1_655 S
C4280 C4287 1.409 . S
C4281 H4273 0.930 . S
C4281 C4279 1.398 1_455 S
C4281 C4282 1.362 . S
C4282 H4274 0.930 . S
C4282 C4281 1.362 . S
C4282 C4285 1.409 . S
C4283 H4275 0.930 . S
C4283 C4284 1.355 1_455 S
C4283 C4285 1.415 . S
C4284 C4283 1.355 1_655 S
C4284 C4286 1.419 . S
C4285 C4280 1.425 1_455 S
C4285 C4282 1.409 . S
C4285 C4283 1.415 . S
C4286 H4276 0.930 . S
C4286 C4284 1.419 . S
C4286 C4287 1.362 . S
C4287 H4277 0.930 . S
C4287 C4280 1.409 . S
C4287 C4286 1.362 . S
H4288 C4294 0.930 . S
H4289 C4297 0.930 . S
H4290 C4298 0.930 . S
H4291 C4299 0.930 . S
H4292 C4302 0.930 . S
H4293 C4303 0.930 . S
C4294 H4288 0.930 . S
C4294 C4295 1.355 . S
C4294 C4296 1.415 . S
C4295 C4294 1.355 . S
C4295 C4297 1.419 . S
C4296 C4294 1.415 . S
C4296 C4301 1.425 . S
C4296 C4303 1.409 . S
C4297 H4289 0.930 . S
C4297 C4295 1.419 . S
C4297 C4298 1.362 . S
C4298 H4290 0.930 . S
C4298 C4297 1.362 . S
C4298 C4301 1.409 . S
C4299 H4291 0.930 . S
C4299 C4300 1.355 . S
C4299 C4301 1.415 . S
C4300 C4299 1.355 . S
C4300 C4302 1.419 . S
C4301 C4296 1.425 . S
C4301 C4298 1.409 . S
C4301 C4299 1.415 . S
C4302 H4292 0.930 . S
C4302 C4300 1.419 . S
C4302 C4303 1.362 . S
C4303 H4293 0.930 . S
C4303 C4296 1.409 . S
C4303 C4302 1.362 . S
H4304 C4310 0.930 . S
H4305 C4313 0.930 . S
H4306 C4314 0.930 . S
H4307 C4315 0.930 . S
H4308 C4318 0.930 . S
H4309 C4319 0.930 . S
C4310 H4304 0.930 . S
C4310 C4311 1.355 . S
C4310 C4312 1.415 . S
C4311 C4310 1.355 . S
C4311 C4313 1.419 . S
C4312 C4310 1.415 . S
C4312 C4317 1.425 . S
C4312 C4319 1.409 . S
C4313 H4305 0.930 . S
C4313 C4311 1.419 . S
C4313 C4314 1.362 . S
C4314 H4306 0.930 . S
C4314 C4313 1.362 . S
C4314 C4317 1.409 . S
C4315 H4307 0.930 . S
C4315 C4316 1.355 . S
C4315 C4317 1.415 . S
C4316 C4315 1.355 . S
C4316 C4318 1.419 . S
C4317 C4312 1.425 . S
C4317 C4314 1.409 . S
C4317 C4315 1.415 . S
C4318 H4308 0.930 . S
C4318 C4316 1.419 . S
C4318 C4319 1.362 . S
C4319 H4309 0.930 . S
C4319 C4312 1.409 . S
C4319 C4318 1.362 . S
H4320 C4326 0.930 . S
H4321 C4329 0.930 . S
H4322 C4330 0.930 . S
H4323 C4331 0.930 . S
H4324 C4334 0.930 . S
H4325 C4335 0.930 . S
C4326 H4320 0.930 . S
C4326 C4327 1.355 . S
C4326 C4328 1.415 . S
C4327 C4326 1.355 . S
C4327 C4329 1.419 1_554 S
C4328 C4326 1.415 . S
C4328 C4333 1.425 1_554 S
C4328 C4335 1.409 . S
C4329 H4321 0.930 . S
C4329 C4327 1.419 1_556 S
C4329 C4330 1.362 . S
C4330 H4322 0.930 . S
C4330 C4329 1.362 . S
C4330 C4333 1.409 . S
C4331 H4323 0.930 . S
C4331 C4332 1.355 . S
C4331 C4333 1.415 . S
C4332 C4331 1.355 . S
C4332 C4334 1.419 1_556 S
C4333 C4328 1.425 1_556 S
C4333 C4330 1.409 . S
C4333 C4331 1.415 . S
C4334 H4324 0.930 . S
C4334 C4332 1.419 1_554 S
C4334 C4335 1.362 . S
C4335 H4325 0.930 . S
C4335 C4328 1.409 . S
C4335 C4334 1.362 . S
H4336 C4342 0.930 . S
H4337 C4345 0.930 . S
H4338 C4346 0.930 . S
H4339 C4347 0.930 . S
H4340 C4350 0.930 . S
H4341 C4351 0.930 . S
C4342 H4336 0.930 . S
C4342 C4343 1.355 1_565 S
C4342 C4344 1.415 . S
C4343 C4342 1.355 1_545 S
C4343 C4345 1.419 . S
C4344 C4342 1.415 . S
C4344 C4349 1.425 1_565 S
C4344 C4351 1.409 . S
C4345 H4337 0.930 . S
C4345 C4343 1.419 . S
C4345 C4346 1.362 . S
C4346 H4338 0.930 . S
C4346 C4345 1.362 . S
C4346 C4349 1.409 . S
C4347 H4339 0.930 . S
C4347 C4348 1.329 1_545 S
C4347 C4349 1.415 . S
C4348 C4347 1.329 1_565 S
C4348 C4350 1.452 . S
C4349 C4344 1.425 1_545 S
C4349 C4346 1.409 . S
C4349 C4347 1.415 . S
C4350 H4340 0.930 . S
C4350 C4348 1.452 . S
C4350 C4351 1.362 . S
C4351 H4341 0.930 . S
C4351 C4344 1.409 . S
C4351 C4350 1.362 . S
H4352 C4358 0.930 . S
H4353 C4361 0.930 . S
H4354 C4362 0.930 . S
H4355 C4363 0.930 . S
H4356 C4366 0.930 . S
H4357 C4367 0.930 . S
C4358 H4352 0.930 . S
C4358 C4359 1.355 1_565 S
C4358 C4360 1.415 . S
C4359 C4358 1.355 1_545 S
C4359 C4361 1.419 . S
C4360 C4358 1.415 . S
C4360 C4365 1.425 1_565 S
C4360 C4367 1.409 . S
C4361 H4353 0.930 . S
C4361 C4359 1.419 . S
C4361 C4362 1.362 . S
C4362 H4354 0.930 . S
C4362 C4361 1.362 . S
C4362 C4365 1.409 . S
C4363 H4355 0.930 . S
C4363 C4364 1.355 1_545 S
C4363 C4365 1.415 . S
C4364 C4363 1.355 1_565 S
C4364 C4366 1.419 . S
C4365 C4360 1.425 1_545 S
C4365 C4362 1.409 . S
C4365 C4363 1.415 . S
C4366 H4356 0.930 . S
C4366 C4364 1.419 . S
C4366 C4367 1.362 . S
C4367 H4357 0.930 . S
C4367 C4360 1.409 . S
C4367 C4366 1.362 . S
H4368 C4374 0.929 . S
H4369 C4377 0.930 . S
H4370 C4378 0.930 . S
H4371 C4379 0.929 . S
H4372 C4382 0.930 . S
H4373 C4383 0.930 . S
C4374 H4368 0.929 . S
C4374 C4375 1.354 1_545 S
C4374 C4376 1.442 . S
C4375 C4374 1.354 1_565 S
C4375 C4377 1.420 . S
C4376 C4374 1.442 . S
C4376 C4381 1.420 1_546 S
C4376 C4383 1.389 1_556 S
C4377 H4369 0.930 . S
C4377 C4375 1.420 . S
C4377 C4378 1.362 . S
C4378 H4370 0.930 . S
C4378 C4377 1.362 . S
C4378 C4381 1.409 1_556 S
C4379 H4371 0.929 . S
C4379 C4380 1.355 . S
C4379 C4381 1.414 1_545 S
C4380 C4379 1.355 . S
C4380 C4382 1.419 . S
C4381 C4376 1.420 1_564 S
C4381 C4378 1.409 1_554 S
C4381 C4379 1.414 1_565 S
C4382 H4372 0.930 . S
C4382 C4380 1.419 . S
C4382 C4383 1.362 . S
C4383 H4373 0.930 . S
C4383 C4376 1.389 1_554 S
C4383 C4382 1.362 . S
H4384 C4390 0.930 . S
H4385 C4393 0.930 . S
H4386 C4394 0.930 . S
H4387 C4395 0.930 . S
H4388 C4398 0.930 . S
H4389 C4399 0.930 . S
C4390 H4384 0.930 . S
C4390 C4391 1.355 . S
C4390 C4392 1.415 . S
C4391 C4390 1.355 . S
C4391 C4393 1.419 1_545 S
C4392 C4390 1.415 . S
C4392 C4397 1.425 1_545 S
C4392 C4399 1.409 . S
C4393 H4385 0.930 . S
C4393 C4391 1.419 1_565 S
C4393 C4394 1.362 . S
C4394 H4386 0.930 . S
C4394 C4393 1.362 . S
C4394 C4397 1.409 . S
C4395 H4387 0.930 . S
C4395 C4396 1.355 . S
C4395 C4397 1.415 . S
C4396 C4395 1.355 . S
C4396 C4398 1.419 1_565 S
C4397 C4392 1.425 1_565 S
C4397 C4394 1.409 . S
C4397 C4395 1.415 . S
C4398 H4388 0.930 . S
C4398 C4396 1.419 1_545 S
C4398 C4399 1.362 . S
C4399 H4389 0.930 . S
C4399 C4392 1.409 . S
C4399 C4398 1.362 . S
H4400 C4406 0.930 . S
H4401 C4409 0.930 . S
H4402 C4410 0.930 . S
H4403 C4411 0.930 . S
H4404 C4414 0.930 . S
H4405 C4415 0.930 . S
C4406 H4400 0.930 . S
C4406 C4407 1.355 1_554 S
C4406 C4408 1.415 . S
C4407 C4406 1.355 1_556 S
C4407 C4409 1.419 . S
C4408 C4406 1.415 . S
C4408 C4413 1.425 1_554 S
C4408 C4415 1.409 . S
C4409 H4401 0.930 . S
C4409 C4407 1.419 . S
C4409 C4410 1.362 . S
C4410 H4402 0.930 . S
C4410 C4409 1.362 . S
C4410 C4413 1.409 . S
C4411 H4403 0.930 . S
C4411 C4412 1.349 1_556 S
C4411 C4413 1.415 . S
C4412 C4411 1.349 1_554 S
C4412 C4414 1.427 . S
C4413 C4408 1.425 1_556 S
C4413 C4410 1.409 . S
C4413 C4411 1.415 . S
C4414 H4404 0.930 . S
C4414 C4412 1.427 . S
C4414 C4415 1.362 . S
C4415 H4405 0.930 . S
C4415 C4408 1.409 . S
C4415 C4414 1.362 . S
H4416 C4422 0.930 . S
H4417 C4425 0.930 . S
H4418 C4426 0.930 . S
H4419 C4427 0.930 . S
H4420 C4430 0.930 . S
H4421 C4431 0.930 . S
C4422 H4416 0.930 . S
C4422 C4423 1.355 1_556 S
C4422 C4424 1.415 . S
C4423 C4422 1.355 1_554 S
C4423 C4425 1.419 . S
C4424 C4422 1.415 . S
C4424 C4429 1.425 1_656 S
C4424 C4431 1.409 1_655 S
C4425 H4417 0.930 . S
C4425 C4423 1.419 . S
C4425 C4426 1.362 . S
C4426 H4418 0.930 . S
C4426 C4425 1.362 . S
C4426 C4429 1.409 1_655 S
C4427 H4419 0.930 . S
C4427 C4428 1.355 1_554 S
C4427 C4429 1.415 . S
C4428 C4427 1.355 1_556 S
C4428 C4430 1.419 . S
C4429 C4424 1.425 1_454 S
C4429 C4426 1.409 1_455 S
C4429 C4427 1.415 . S
C4430 H4420 0.930 . S
C4430 C4428 1.419 . S
C4430 C4431 1.362 . S
C4431 H4421 0.930 . S
C4431 C4424 1.409 1_455 S
C4431 C4430 1.362 . S
H4432 C4438 0.930 . S
H4433 C4441 0.930 . S
H4434 C4442 0.930 . S
H4435 C4443 0.930 . S
H4436 C4446 0.930 . S
H4437 C4447 0.930 . S
C4438 H4432 0.930 . S
C4438 C4439 1.355 . S
C4438 C4440 1.415 . S
C4439 C4438 1.355 . S
C4439 C4441 1.419 1_655 S
C4440 C4438 1.415 . S
C4440 C4445 1.425 1_655 S
C4440 C4447 1.409 . S
C4441 H4433 0.930 . S
C4441 C4439 1.419 1_455 S
C4441 C4442 1.362 . S
C4442 H4434 0.930 . S
C4442 C4441 1.362 . S
C4442 C4445 1.409 . S
C4443 H4435 0.930 . S
C4443 C4444 1.355 . S
C4443 C4445 1.415 . S
C4444 C4443 1.355 . S
C4444 C4446 1.419 1_455 S
C4445 C4440 1.425 1_455 S
C4445 C4442 1.409 . S
C4445 C4443 1.415 . S
C4446 H4436 0.930 . S
C4446 C4444 1.419 1_655 S
C4446 C4447 1.362 . S
C4447 H4437 0.930 . S
C4447 C4440 1.409 . S
C4447 C4446 1.362 . S
H4448 C4454 0.930 . S
H4449 C4457 0.930 . S
H4450 C4458 0.930 . S
H4451 C4459 0.930 . S
H4452 C4462 0.930 . S
H4453 C4463 0.930 . S
C4454 H4448 0.930 . S
C4454 C4455 1.355 . S
C4454 C4456 1.415 . S
C4455 C4454 1.355 . S
C4455 C4457 1.419 . S
C4456 C4454 1.415 . S
C4456 C4461 1.425 . S
C4456 C4463 1.409 . S
C4457 H4449 0.930 . S
C4457 C4455 1.419 . S
C4457 C4458 1.362 . S
C4458 H4450 0.930 . S
C4458 C4457 1.362 . S
C4458 C4461 1.409 . S
C4459 H4451 0.930 . S
C4459 C4460 1.355 . S
C4459 C4461 1.415 . S
C4460 C4459 1.355 . S
C4460 C4462 1.419 . S
C4461 C4456 1.425 . S
C4461 C4458 1.409 . S
C4461 C4459 1.415 . S
C4462 H4452 0.930 . S
C4462 C4460 1.419 . S
C4462 C4463 1.362 . S
C4463 H4453 0.930 . S
C4463 C4456 1.409 . S
C4463 C4462 1.362 . S
H4464 C4470 0.930 . S
H4465 C4473 0.930 . S
H4466 C4474 0.930 1_455 S
H4467 C4475 0.930 . S
H4468 C4478 0.930 . S
H4469 C4479 0.930 . S
C4470 H4464 0.930 . S
C4470 C4471 1.355 . S
C4470 C4472 1.415 . S
C4471 C4470 1.355 . S
C4471 C4473 1.419 . S
C4472 C4470 1.415 . S
C4472 C4477 1.425 1_655 S
C4472 C4479 1.409 1_655 S
C4473 H4465 0.930 . S
C4473 C4471 1.419 . S
C4473 C4474 1.362 . S
C4474 H4466 0.930 1_655 S
C4474 C4473 1.362 . S
C4474 C4477 1.409 1_655 S
C4475 H4467 0.930 . S
C4475 C4476 1.355 . S
C4475 C4477 1.415 . S
C4476 C4475 1.355 . S
C4476 C4478 1.419 . S
C4477 C4472 1.425 1_455 S
C4477 C4474 1.409 1_455 S
C4477 C4475 1.415 . S
C4478 H4468 0.930 . S
C4478 C4476 1.419 . S
C4478 C4479 1.362 . S
C4479 H4469 0.930 . S
C4479 C4472 1.409 1_455 S
C4479 C4478 1.362 . S
H4480 C4486 0.930 . S
H4481 C4489 0.930 . S
H4482 C4490 0.930 . S
H4483 C4491 0.930 . S
H4484 C4494 0.930 . S
H4485 C4495 0.930 . S
C4486 H4480 0.930 . S
C4486 C4487 1.355 . S
C4486 C4488 1.415 . S
C4487 C4486 1.355 . S
C4487 C4489 1.419 1_455 S
C4488 C4486 1.415 . S
C4488 C4493 1.425 1_455 S
C4488 C4495 1.409 . S
C4489 H4481 0.930 . S
C4489 C4487 1.419 1_655 S
C4489 C4490 1.362 . S
C4490 H4482 0.930 . S
C4490 C4489 1.362 . S
C4490 C4493 1.409 . S
C4491 H4483 0.930 . S
C4491 C4492 1.355 . S
C4491 C4493 1.415 . S
C4492 C4491 1.355 . S
C4492 C4494 1.419 1_655 S
C4493 C4488 1.425 1_655 S
C4493 C4490 1.409 . S
C4493 C4491 1.415 . S
C4494 H4484 0.930 . S
C4494 C4492 1.419 1_455 S
C4494 C4495 1.362 . S
C4495 H4485 0.930 . S
C4495 C4488 1.409 . S
C4495 C4494 1.362 . S
H4496 C4502 0.930 . S
H4497 C4505 0.930 . S
H4498 C4506 0.930 . S
H4499 C4507 0.930 . S
H4500 C4510 0.930 . S
H4501 C4511 0.930 . S
C4502 H4496 0.930 . S
C4502 C4503 1.355 . S
C4502 C4504 1.415 . S
C4503 C4502 1.355 . S
C4503 C4505 1.419 . S
C4504 C4502 1.415 . S
C4504 C4509 1.425 . S
C4504 C4511 1.409 . S
C4505 H4497 0.930 . S
C4505 C4503 1.419 . S
C4505 C4506 1.362 . S
C4506 H4498 0.930 . S
C4506 C4505 1.362 . S
C4506 C4509 1.409 . S
C4507 H4499 0.930 . S
C4507 C4508 1.355 . S
C4507 C4509 1.415 . S
C4508 C4507 1.355 . S
C4508 C4510 1.419 . S
C4509 C4504 1.425 . S
C4509 C4506 1.409 . S
C4509 C4507 1.415 . S
C4510 H4500 0.930 . S
C4510 C4508 1.419 . S
C4510 C4511 1.362 . S
C4511 H4501 0.930 . S
C4511 C4504 1.409 . S
C4511 C4510 1.362 . S
H4512 C4518 0.930 . S
H4513 C4521 0.930 . S
H4514 C4522 0.930 . S
H4515 C4523 0.930 . S
H4516 C4526 0.930 . S
H4517 C4527 0.930 . S
C4518 H4512 0.930 . S
C4518 C4519 1.355 . S
C4518 C4520 1.415 . S
C4519 C4518 1.355 . S
C4519 C4521 1.419 . S
C4520 C4518 1.415 . S
C4520 C4525 1.425 1_545 S
C4520 C4527 1.409 1_545 S
C4521 H4513 0.930 . S
C4521 C4519 1.419 . S
C4521 C4522 1.362 . S
C4522 H4514 0.930 . S
C4522 C4521 1.362 . S
C4522 C4525 1.409 1_545 S
C4523 H4515 0.930 . S
C4523 C4524 1.355 . S
C4523 C4525 1.415 . S
C4524 C4523 1.355 . S
C4524 C4526 1.419 . S
C4525 C4520 1.425 1_565 S
C4525 C4522 1.409 1_565 S
C4525 C4523 1.415 . S
C4526 H4516 0.930 . S
C4526 C4524 1.419 . S
C4526 C4527 1.362 . S
C4527 H4517 0.930 . S
C4527 C4520 1.409 1_565 S
C4527 C4526 1.362 . S
H4528 C4534 0.930 . S
H4529 C4537 0.930 . S
H4530 C4538 0.930 . S
H4531 C4539 0.930 . S
H4532 C4542 0.934 . S
H4533 C4543 0.930 . S
C4534 H4528 0.930 . S
C4534 C4535 1.355 . S
C4534 C4536 1.415 . S
C4535 C4534 1.355 . S
C4535 C4537 1.418 1_554 S
C4536 C4534 1.415 . S
C4536 C4541 1.425 1_554 S
C4536 C4543 1.409 . S
C4537 H4529 0.930 . S
C4537 C4535 1.418 1_556 S
C4537 C4538 1.363 . S
C4538 H4530 0.930 . S
C4538 C4537 1.363 . S
C4538 C4541 1.409 . S
C4539 H4531 0.930 . S
C4539 C4540 1.355 . S
C4539 C4541 1.415 . S
C4540 C4539 1.355 . S
C4540 C4542 1.408 1_556 S
C4541 C4536 1.425 1_556 S
C4541 C4538 1.409 . S
C4541 C4539 1.415 . S
C4542 H4532 0.934 . S
C4542 C4540 1.408 1_554 S
C4542 C4543 1.371 . S
C4543 H4533 0.930 . S
C4543 C4536 1.409 . S
C4543 C4542 1.371 . S
H4544 C4550 0.930 . S
H4545 C4553 0.930 . S
H4546 C4554 0.930 . S
H4547 C4555 0.930 . S
H4548 C4558 0.930 . S
H4549 C4559 0.930 . S
C4550 H4544 0.930 . S
C4550 C4551 1.355 1_655 S
C4550 C4552 1.415 . S
C4551 C4550 1.355 1_455 S
C4551 C4553 1.419 . S
C4552 C4550 1.415 . S
C4552 C4557 1.414 1_645 S
C4552 C4559 1.409 1_545 S
C4553 H4545 0.930 . S
C4553 C4551 1.419 . S
C4553 C4554 1.362 . S
C4554 H4546 0.930 . S
C4554 C4553 1.362 . S
C4554 C4557 1.371 1_545 S
C4555 H4547 0.930 . S
C4555 C4556 1.355 1_455 S
C4555 C4557 1.465 . S
C4556 C4555 1.355 1_655 S
C4556 C4558 1.419 . S
C4557 C4552 1.414 1_465 S
C4557 C4554 1.371 1_565 S
C4557 C4555 1.465 . S
C4558 H4548 0.930 . S
C4558 C4556 1.419 . S
C4558 C4559 1.362 . S
C4559 H4549 0.930 . S
C4559 C4552 1.409 1_565 S
C4559 C4558 1.362 . S
H4560 C4566 0.930 . S
H4561 C4569 0.930 . S
H4562 C4570 0.930 . S
H4563 C4571 0.930 . S
H4564 C4574 0.930 . S
H4565 C4575 0.930 . S
C4566 H4560 0.930 . S
C4566 C4567 1.355 . S
C4566 C4568 1.415 . S
C4567 C4566 1.355 . S
C4567 C4569 1.419 . S
C4568 C4566 1.415 . S
C4568 C4573 1.425 . S
C4568 C4575 1.409 . S
C4569 H4561 0.930 . S
C4569 C4567 1.419 . S
C4569 C4570 1.362 . S
C4570 H4562 0.930 . S
C4570 C4569 1.362 . S
C4570 C4573 1.409 . S
C4571 H4563 0.930 . S
C4571 C4572 1.355 . S
C4571 C4573 1.415 . S
C4572 C4571 1.355 . S
C4572 C4574 1.419 . S
C4573 C4568 1.425 . S
C4573 C4570 1.409 . S
C4573 C4571 1.415 . S
C4574 H4564 0.930 . S
C4574 C4572 1.419 . S
C4574 C4575 1.362 . S
C4575 H4565 0.930 . S
C4575 C4568 1.409 . S
C4575 C4574 1.362 . S
H4576 C4582 0.930 . S
H4577 C4585 0.930 . S
H4578 C4586 0.955 . S
H4579 C4587 0.930 . S
H4580 C4590 0.930 . S
H4581 C4591 0.941 . S
C4582 H4576 0.930 . S
C4582 C4583 1.355 . S
C4582 C4584 1.415 . S
C4583 C4582 1.355 . S
C4583 C4585 1.419 . S
C4584 C4582 1.415 . S
C4584 C4589 1.425 1_556 S
C4584 C4591 1.409 1_556 S
C4585 H4577 0.930 . S
C4585 C4583 1.419 . S
C4585 C4586 1.362 . S
C4586 H4578 0.955 . S
C4586 C4585 1.362 . S
C4586 C4589 1.409 1_556 S
C4587 H4579 0.930 . S
C4587 C4588 1.355 . S
C4587 C4589 1.415 . S
C4588 C4587 1.355 . S
C4588 C4590 1.419 . S
C4589 C4584 1.425 1_554 S
C4589 C4586 1.409 1_554 S
C4589 C4587 1.415 . S
C4590 H4580 0.930 . S
C4590 C4588 1.419 . S
C4590 C4591 1.362 . S
C4591 H4581 0.941 . S
C4591 C4584 1.409 1_554 S
C4591 C4590 1.362 . S
H4592 C4598 0.930 . S
H4593 C4601 0.930 . S
H4594 C4602 0.930 . S
H4595 C4603 0.930 . S
H4596 C4606 0.930 . S
H4597 C4607 0.930 . S
C4598 H4592 0.930 . S
C4598 C4599 1.355 . S
C4598 C4600 1.415 . S
C4599 C4598 1.355 . S
C4599 C4601 1.419 . S
C4600 C4598 1.415 . S
C4600 C4605 1.425 . S
C4600 C4607 1.409 . S
C4601 H4593 0.930 . S
C4601 C4599 1.419 . S
C4601 C4602 1.362 . S
C4602 H4594 0.930 . S
C4602 C4601 1.362 . S
C4602 C4605 1.409 . S
C4603 H4595 0.930 . S
C4603 C4604 1.355 . S
C4603 C4605 1.415 . S
C4604 C4603 1.355 . S
C4604 C4606 1.419 . S
C4605 C4600 1.425 . S
C4605 C4602 1.409 . S
C4605 C4603 1.415 . S
C4606 H4596 0.930 . S
C4606 C4604 1.419 . S
C4606 C4607 1.362 . S
C4607 H4597 0.930 . S
C4607 C4600 1.409 . S
C4607 C4606 1.362 . S
H4608 C4614 0.930 . S
H4609 C4617 0.930 . S
H4610 C4618 0.930 . S
H4611 C4619 0.930 . S
H4612 C4622 0.930 . S
H4613 C4623 0.930 . S
C4614 H4608 0.930 . S
C4614 C4615 1.355 . S
C4614 C4616 1.415 . S
C4615 C4614 1.355 . S
C4615 C4617 1.419 . S
C4616 C4614 1.415 . S
C4616 C4621 1.425 . S
C4616 C4623 1.409 . S
C4617 H4609 0.930 . S
C4617 C4615 1.419 . S
C4617 C4618 1.362 . S
C4618 H4610 0.930 . S
C4618 C4617 1.362 . S
C4618 C4621 1.409 . S
C4619 H4611 0.930 . S
C4619 C4620 1.355 . S
C4619 C4621 1.415 . S
C4620 C4619 1.355 . S
C4620 C4622 1.419 . S
C4621 C4616 1.425 . S
C4621 C4618 1.409 . S
C4621 C4619 1.415 . S
C4622 H4612 0.930 . S
C4622 C4620 1.419 . S
C4622 C4623 1.362 . S
C4623 H4613 0.930 . S
C4623 C4616 1.409 . S
C4623 C4622 1.362 . S
H4624 C4630 0.930 . S
H4625 C4633 0.930 . S
H4626 C4634 0.930 . S
H4627 C4635 0.930 . S
H4628 C4638 0.930 . S
H4629 C4639 0.930 . S
C4630 H4624 0.930 . S
C4630 C4631 1.355 . S
C4630 C4632 1.415 . S
C4631 C4630 1.355 . S
C4631 C4633 1.419 . S
C4632 C4630 1.415 . S
C4632 C4637 1.425 . S
C4632 C4639 1.409 . S
C4633 H4625 0.930 . S
C4633 C4631 1.419 . S
C4633 C4634 1.362 . S
C4634 H4626 0.930 . S
C4634 C4633 1.362 . S
C4634 C4637 1.409 . S
C4635 H4627 0.930 . S
C4635 C4636 1.355 . S
C4635 C4637 1.415 . S
C4636 C4635 1.355 . S
C4636 C4638 1.419 . S
C4637 C4632 1.425 . S
C4637 C4634 1.409 . S
C4637 C4635 1.415 . S
C4638 H4628 0.930 . S
C4638 C4636 1.419 . S
C4638 C4639 1.362 . S
C4639 H4629 0.930 . S
C4639 C4632 1.409 . S
C4639 C4638 1.362 . S
H4640 C4646 0.930 . S
H4641 C4649 0.930 . S
H4642 C4650 0.930 . S
H4643 C4651 0.930 . S
H4644 C4654 0.930 . S
H4645 C4655 0.930 . S
C4646 H4640 0.930 . S
C4646 C4647 1.355 . S
C4646 C4648 1.415 . S
C4647 C4646 1.355 . S
C4647 C4649 1.419 . S
C4648 C4646 1.415 . S
C4648 C4653 1.425 . S
C4648 C4655 1.409 . S
C4649 H4641 0.930 . S
C4649 C4647 1.419 . S
C4649 C4650 1.362 . S
C4650 H4642 0.930 . S
C4650 C4649 1.362 . S
C4650 C4653 1.409 . S
C4651 H4643 0.930 . S
C4651 C4652 1.355 . S
C4651 C4653 1.415 . S
C4652 C4651 1.355 . S
C4652 C4654 1.419 . S
C4653 C4648 1.425 . S
C4653 C4650 1.409 . S
C4653 C4651 1.415 . S
C4654 H4644 0.930 . S
C4654 C4652 1.419 . S
C4654 C4655 1.362 . S
C4655 H4645 0.930 . S
C4655 C4648 1.409 . S
C4655 C4654 1.362 . S
H4656 C4662 0.930 . S
H4657 C4665 0.930 . S
H4658 C4666 0.930 . S
H4659 C4667 0.930 . S
H4660 C4670 0.930 . S
H4661 C4671 0.930 . S
C4662 H4656 0.930 . S
C4662 C4663 1.355 . S
C4662 C4664 1.415 . S
C4663 C4662 1.355 . S
C4663 C4665 1.419 . S
C4664 C4662 1.415 . S
C4664 C4669 1.414 1_565 S
C4664 C4671 1.409 1_565 S
C4665 H4657 0.930 . S
C4665 C4663 1.419 . S
C4665 C4666 1.362 . S
C4666 H4658 0.930 . S
C4666 C4665 1.362 . S
C4666 C4669 1.370 1_565 S
C4667 H4659 0.930 . S
C4667 C4668 1.355 . S
C4667 C4669 1.466 . S
C4668 C4667 1.355 . S
C4668 C4670 1.419 . S
C4669 C4664 1.414 1_545 S
C4669 C4666 1.370 1_545 S
C4669 C4667 1.466 . S
C4670 H4660 0.930 . S
C4670 C4668 1.419 . S
C4670 C4671 1.362 . S
C4671 H4661 0.930 . S
C4671 C4664 1.409 1_545 S
C4671 C4670 1.362 . S
H4672 C4678 0.930 . S
H4673 C4681 0.930 . S
H4674 C4682 0.930 . S
H4675 C4683 0.930 . S
H4676 C4686 0.930 . S
H4677 C4687 0.930 . S
C4678 H4672 0.930 . S
C4678 C4679 1.355 . S
C4678 C4680 1.415 . S
C4679 C4678 1.355 . S
C4679 C4681 1.419 1_556 S
C4680 C4678 1.415 . S
C4680 C4685 1.425 1_556 S
C4680 C4687 1.409 . S
C4681 H4673 0.930 . S
C4681 C4679 1.419 1_554 S
C4681 C4682 1.362 . S
C4682 H4674 0.930 . S
C4682 C4681 1.362 . S
C4682 C4685 1.409 . S
C4683 H4675 0.930 . S
C4683 C4684 1.355 . S
C4683 C4685 1.415 . S
C4684 C4683 1.355 . S
C4684 C4686 1.419 1_554 S
C4685 C4680 1.425 1_554 S
C4685 C4682 1.409 . S
C4685 C4683 1.415 . S
C4686 H4676 0.930 . S
C4686 C4684 1.419 1_556 S
C4686 C4687 1.362 . S
C4687 H4677 0.930 . S
C4687 C4680 1.409 . S
C4687 C4686 1.362 . S
H4688 C4694 0.930 . S
H4689 C4697 0.930 . S
H4690 C4698 0.930 1_565 S
H4691 C4699 0.930 . S
H4692 C4702 0.930 . S
H4693 C4703 0.930 . S
C4694 H4688 0.930 . S
C4694 C4695 1.355 1_655 S
C4694 C4696 1.415 . S
C4695 C4694 1.355 1_455 S
C4695 C4697 1.419 . S
C4696 C4694 1.415 . S
C4696 C4701 1.425 1_645 S
C4696 C4703 1.409 1_545 S
C4697 H4689 0.930 . S
C4697 C4695 1.419 . S
C4697 C4698 1.362 . S
C4698 H4690 0.930 1_545 S
C4698 C4697 1.362 . S
C4698 C4701 1.409 1_545 S
C4699 H4691 0.930 . S
C4699 C4700 1.355 1_455 S
C4699 C4701 1.415 . S
C4700 C4699 1.355 1_655 S
C4700 C4702 1.419 . S
C4701 C4696 1.425 1_465 S
C4701 C4698 1.409 1_565 S
C4701 C4699 1.415 . S
C4702 H4692 0.930 . S
C4702 C4700 1.419 . S
C4702 C4703 1.362 . S
C4703 H4693 0.930 . S
C4703 C4696 1.409 1_565 S
C4703 C4702 1.362 . S
H4704 C4710 0.930 . S
H4705 C4713 0.930 . S
H4706 C4714 0.930 . S
H4707 C4715 0.930 . S
H4708 C4718 0.930 . S
H4709 C4719 0.930 . S
C4710 H4704 0.930 . S
C4710 C4711 1.355 . S
C4710 C4712 1.415 . S
C4711 C4710 1.355 . S
C4711 C4713 1.419 . S
C4712 C4710 1.415 . S
C4712 C4717 1.425 . S
C4712 C4719 1.409 . S
C4713 H4705 0.930 . S
C4713 C4711 1.419 . S
C4713 C4714 1.362 . S
C4714 H4706 0.930 . S
C4714 C4713 1.362 . S
C4714 C4717 1.409 . S
C4715 H4707 0.930 . S
C4715 C4716 1.355 . S
C4715 C4717 1.415 . S
C4716 C4715 1.355 . S
C4716 C4718 1.419 . S
C4717 C4712 1.425 . S
C4717 C4714 1.409 . S
C4717 C4715 1.415 . S
C4718 H4708 0.930 . S
C4718 C4716 1.419 . S
C4718 C4719 1.362 . S
C4719 H4709 0.930 . S
C4719 C4712 1.409 . S
C4719 C4718 1.362 . S
H4720 C4726 0.930 . S
H4721 C4729 0.930 . S
H4722 C4730 0.930 . S
H4723 C4731 0.930 . S
H4724 C4734 0.930 . S
H4725 C4735 0.930 . S
C4726 H4720 0.930 . S
C4726 C4727 1.355 . S
C4726 C4728 1.415 . S
C4727 C4726 1.355 . S
C4727 C4729 1.419 . S
C4728 C4726 1.415 . S
C4728 C4733 1.425 1_554 S
C4728 C4735 1.409 1_554 S
C4729 H4721 0.930 . S
C4729 C4727 1.419 . S
C4729 C4730 1.362 . S
C4730 H4722 0.930 . S
C4730 C4729 1.362 . S
C4730 C4733 1.409 1_554 S
C4731 H4723 0.930 . S
C4731 C4732 1.355 . S
C4731 C4733 1.415 . S
C4732 C4731 1.355 . S
C4732 C4734 1.419 . S
C4733 C4728 1.425 1_556 S
C4733 C4730 1.409 1_556 S
C4733 C4731 1.415 . S
C4734 H4724 0.930 . S
C4734 C4732 1.419 . S
C4734 C4735 1.362 . S
C4735 H4725 0.930 . S
C4735 C4728 1.409 1_556 S
C4735 C4734 1.362 . S
H4736 C4742 0.930 . S
H4737 C4745 0.930 . S
H4738 C4746 0.930 . S
H4739 C4747 0.930 . S
H4740 C4750 0.930 . S
H4741 C4751 0.930 . S
C4742 H4736 0.930 . S
C4742 C4743 1.355 . S
C4742 C4744 1.415 . S
C4743 C4742 1.355 . S
C4743 C4745 1.419 . S
C4744 C4742 1.415 . S
C4744 C4749 1.425 . S
C4744 C4751 1.409 . S
C4745 H4737 0.930 . S
C4745 C4743 1.419 . S
C4745 C4746 1.362 . S
C4746 H4738 0.930 . S
C4746 C4745 1.362 . S
C4746 C4749 1.409 . S
C4747 H4739 0.930 . S
C4747 C4748 1.355 . S
C4747 C4749 1.415 . S
C4748 C4747 1.355 . S
C4748 C4750 1.419 . S
C4749 C4744 1.425 . S
C4749 C4746 1.409 . S
C4749 C4747 1.415 . S
C4750 H4740 0.930 . S
C4750 C4748 1.419 . S
C4750 C4751 1.362 . S
C4751 H4741 0.930 . S
C4751 C4744 1.409 . S
C4751 C4750 1.362 . S
H4752 C4758 0.930 . S
H4753 C4761 0.930 . S
H4754 C4762 0.930 . S
H4755 C4763 0.930 . S
H4756 C4766 0.930 . S
H4757 C4767 0.930 . S
C4758 H4752 0.930 . S
C4758 C4759 1.355 . S
C4758 C4760 1.415 . S
C4759 C4758 1.355 . S
C4759 C4761 1.419 . S
C4760 C4758 1.415 . S
C4760 C4765 1.425 . S
C4760 C4767 1.409 . S
C4761 H4753 0.930 . S
C4761 C4759 1.419 . S
C4761 C4762 1.362 . S
C4762 H4754 0.930 . S
C4762 C4761 1.362 . S
C4762 C4765 1.409 . S
C4763 H4755 0.930 . S
C4763 C4764 1.355 . S
C4763 C4765 1.415 . S
C4764 C4763 1.355 . S
C4764 C4766 1.419 . S
C4765 C4760 1.425 . S
C4765 C4762 1.409 . S
C4765 C4763 1.415 . S
C4766 H4756 0.930 . S
C4766 C4764 1.419 . S
C4766 C4767 1.362 . S
C4767 H4757 0.930 . S
C4767 C4760 1.409 . S
C4767 C4766 1.362 . S
H4768 C4774 0.930 . S
H4769 C4777 0.930 . S
H4770 C4778 0.930 . S
H4771 C4779 0.930 . S
H4772 C4782 0.930 . S
H4773 C4783 0.930 . S
C4774 H4768 0.930 . S
C4774 C4775 1.355 . S
C4774 C4776 1.415 . S
C4775 C4774 1.355 . S
C4775 C4777 1.419 . S
C4776 C4774 1.415 . S
C4776 C4781 1.425 . S
C4776 C4783 1.409 . S
C4777 H4769 0.930 . S
C4777 C4775 1.419 . S
C4777 C4778 1.362 . S
C4778 H4770 0.930 . S
C4778 C4777 1.362 . S
C4778 C4781 1.409 . S
C4779 H4771 0.930 . S
C4779 C4780 1.355 . S
C4779 C4781 1.415 . S
C4780 C4779 1.355 . S
C4780 C4782 1.419 . S
C4781 C4776 1.425 . S
C4781 C4778 1.409 . S
C4781 C4779 1.415 . S
C4782 H4772 0.930 . S
C4782 C4780 1.419 . S
C4782 C4783 1.362 . S
C4783 H4773 0.930 . S
C4783 C4776 1.409 . S
C4783 C4782 1.362 . S
H4784 C4790 0.930 . S
H4785 C4793 0.930 . S
H4786 C4794 0.930 . S
H4787 C4795 0.930 . S
H4788 C4798 0.930 . S
H4789 C4799 0.930 . S
C4790 H4784 0.930 . S
C4790 C4791 1.355 . S
C4790 C4792 1.415 . S
C4791 C4790 1.355 . S
C4791 C4793 1.419 . S
C4792 C4790 1.415 . S
C4792 C4797 1.425 . S
C4792 C4799 1.409 . S
C4793 H4785 0.930 . S
C4793 C4791 1.419 . S
C4793 C4794 1.362 . S
C4794 H4786 0.930 . S
C4794 C4793 1.362 . S
C4794 C4797 1.409 . S
C4795 H4787 0.930 . S
C4795 C4796 1.355 . S
C4795 C4797 1.415 . S
C4796 C4795 1.355 . S
C4796 C4798 1.419 . S
C4797 C4792 1.425 . S
C4797 C4794 1.409 . S
C4797 C4795 1.415 . S
C4798 H4788 0.930 . S
C4798 C4796 1.419 . S
C4798 C4799 1.362 . S
C4799 H4789 0.930 . S
C4799 C4792 1.409 . S
C4799 C4798 1.362 . S
H4800 C4806 0.930 . S
H4801 C4809 0.930 . S
H4802 C4810 0.930 . S
H4803 C4811 0.930 . S
H4804 C4814 0.930 . S
H4805 C4815 0.930 . S
C4806 H4800 0.930 . S
C4806 C4807 1.355 . S
C4806 C4808 1.415 . S
C4807 C4806 1.355 . S
C4807 C4809 1.419 . S
C4808 C4806 1.415 . S
C4808 C4813 1.425 . S
C4808 C4815 1.409 . S
C4809 H4801 0.930 . S
C4809 C4807 1.419 . S
C4809 C4810 1.362 . S
C4810 H4802 0.930 . S
C4810 C4809 1.362 . S
C4810 C4813 1.409 . S
C4811 H4803 0.930 . S
C4811 C4812 1.355 . S
C4811 C4813 1.415 . S
C4812 C4811 1.355 . S
C4812 C4814 1.419 . S
C4813 C4808 1.425 . S
C4813 C4810 1.409 . S
C4813 C4811 1.415 . S
C4814 H4804 0.930 . S
C4814 C4812 1.419 . S
C4814 C4815 1.362 . S
C4815 H4805 0.930 . S
C4815 C4808 1.409 . S
C4815 C4814 1.362 . S
H4816 C4822 0.930 . S
H4817 C4825 0.930 . S
H4818 C4826 0.930 . S
H4819 C4827 0.930 . S
H4820 C4830 0.930 . S
H4821 C4831 0.930 . S
C4822 H4816 0.930 . S
C4822 C4823 1.355 . S
C4822 C4824 1.415 . S
C4823 C4822 1.355 . S
C4823 C4825 1.419 . S
C4824 C4822 1.415 . S
C4824 C4829 1.425 . S
C4824 C4831 1.409 . S
C4825 H4817 0.930 . S
C4825 C4823 1.419 . S
C4825 C4826 1.362 . S
C4826 H4818 0.930 . S
C4826 C4825 1.362 . S
C4826 C4829 1.409 . S
C4827 H4819 0.930 . S
C4827 C4828 1.355 . S
C4827 C4829 1.415 . S
C4828 C4827 1.355 . S
C4828 C4830 1.419 . S
C4829 C4824 1.425 . S
C4829 C4826 1.409 . S
C4829 C4827 1.415 . S
C4830 H4820 0.930 . S
C4830 C4828 1.419 . S
C4830 C4831 1.362 . S
C4831 H4821 0.930 . S
C4831 C4824 1.409 . S
C4831 C4830 1.362 . S
H4832 C4838 0.930 . S
H4833 C4841 0.930 . S
H4834 C4842 0.930 . S
H4835 C4843 0.930 . S
H4836 C4846 0.930 . S
H4837 C4847 0.930 . S
C4838 H4832 0.930 . S
C4838 C4839 1.355 . S
C4838 C4840 1.415 . S
C4839 C4838 1.355 . S
C4839 C4841 1.419 . S
C4840 C4838 1.415 . S
C4840 C4845 1.425 . S
C4840 C4847 1.409 . S
C4841 H4833 0.930 . S
C4841 C4839 1.419 . S
C4841 C4842 1.362 . S
C4842 H4834 0.930 . S
C4842 C4841 1.362 . S
C4842 C4845 1.409 . S
C4843 H4835 0.930 . S
C4843 C4844 1.355 . S
C4843 C4845 1.415 . S
C4844 C4843 1.355 . S
C4844 C4846 1.419 . S
C4845 C4840 1.425 . S
C4845 C4842 1.409 . S
C4845 C4843 1.415 . S
C4846 H4836 0.930 . S
C4846 C4844 1.419 . S
C4846 C4847 1.362 . S
C4847 H4837 0.930 . S
C4847 C4840 1.409 . S
C4847 C4846 1.362 . S
H4848 C4854 0.930 . S
H4849 C4857 0.930 . S
H4850 C4858 0.930 . S
H4851 C4859 0.930 . S
H4852 C4862 0.930 . S
H4853 C4863 0.930 . S
C4854 H4848 0.930 . S
C4854 C4855 1.355 . S
C4854 C4856 1.415 . S
C4855 C4854 1.355 . S
C4855 C4857 1.419 . S
C4856 C4854 1.415 . S
C4856 C4861 1.425 . S
C4856 C4863 1.409 . S
C4857 H4849 0.930 . S
C4857 C4855 1.419 . S
C4857 C4858 1.362 . S
C4858 H4850 0.930 . S
C4858 C4857 1.362 . S
C4858 C4861 1.409 . S
C4859 H4851 0.930 . S
C4859 C4860 1.355 . S
C4859 C4861 1.415 . S
C4860 C4859 1.355 . S
C4860 C4862 1.419 . S
C4861 C4856 1.425 . S
C4861 C4858 1.409 . S
C4861 C4859 1.415 . S
C4862 H4852 0.930 . S
C4862 C4860 1.419 . S
C4862 C4863 1.362 . S
C4863 H4853 0.930 . S
C4863 C4856 1.409 . S
C4863 C4862 1.362 . S
H4864 C4870 0.930 . S
H4865 C4873 0.930 . S
H4866 C4874 0.930 . S
H4867 C4875 0.930 . S
H4868 C4878 0.930 . S
H4869 C4879 0.930 . S
C4870 H4864 0.930 . S
C4870 C4871 1.355 . S
C4870 C4872 1.415 . S
C4871 C4870 1.355 . S
C4871 C4873 1.419 . S
C4872 C4870 1.415 . S
C4872 C4877 1.425 . S
C4872 C4879 1.409 . S
C4873 H4865 0.930 . S
C4873 C4871 1.419 . S
C4873 C4874 1.362 . S
C4874 H4866 0.930 . S
C4874 C4873 1.362 . S
C4874 C4877 1.409 . S
C4875 H4867 0.930 . S
C4875 C4876 1.355 . S
C4875 C4877 1.415 . S
C4876 C4875 1.355 . S
C4876 C4878 1.419 . S
C4877 C4872 1.425 . S
C4877 C4874 1.409 . S
C4877 C4875 1.415 . S
C4878 H4868 0.930 . S
C4878 C4876 1.419 . S
C4878 C4879 1.362 . S
C4879 H4869 0.930 . S
C4879 C4872 1.409 . S
C4879 C4878 1.362 . S
H4880 C4886 0.930 . S
H4881 C4889 0.930 . S
H4882 C4890 0.930 . S
H4883 C4891 0.930 . S
H4884 C4894 0.930 . S
H4885 C4895 0.930 . S
C4886 H4880 0.930 . S
C4886 C4887 1.355 . S
C4886 C4888 1.415 . S
C4887 C4886 1.355 . S
C4887 C4889 1.419 . S
C4888 C4886 1.415 . S
C4888 C4893 1.425 . S
C4888 C4895 1.409 . S
C4889 H4881 0.930 . S
C4889 C4887 1.419 . S
C4889 C4890 1.362 . S
C4890 H4882 0.930 . S
C4890 C4889 1.362 . S
C4890 C4893 1.409 . S
C4891 H4883 0.930 . S
C4891 C4892 1.355 . S
C4891 C4893 1.415 . S
C4892 C4891 1.355 . S
C4892 C4894 1.419 . S
C4893 C4888 1.425 . S
C4893 C4890 1.409 . S
C4893 C4891 1.415 . S
C4894 H4884 0.930 . S
C4894 C4892 1.419 . S
C4894 C4895 1.362 . S
C4895 H4885 0.930 . S
C4895 C4888 1.409 . S
C4895 C4894 1.362 . S
H4896 C4902 0.930 . S
H4897 C4905 0.930 . S
H4898 C4906 0.930 . S
H4899 C4907 0.930 . S
H4900 C4910 0.930 . S
H4901 C4911 0.930 . S
C4902 H4896 0.930 . S
C4902 C4903 1.355 . S
C4902 C4904 1.415 . S
C4903 C4902 1.355 . S
C4903 C4905 1.419 . S
C4904 C4902 1.415 . S
C4904 C4909 1.425 . S
C4904 C4911 1.409 . S
C4905 H4897 0.930 . S
C4905 C4903 1.419 . S
C4905 C4906 1.362 . S
C4906 H4898 0.930 . S
C4906 C4905 1.362 . S
C4906 C4909 1.409 . S
C4907 H4899 0.930 . S
C4907 C4908 1.355 . S
C4907 C4909 1.415 . S
C4908 C4907 1.355 . S
C4908 C4910 1.419 . S
C4909 C4904 1.425 . S
C4909 C4906 1.409 . S
C4909 C4907 1.415 . S
C4910 H4900 0.930 . S
C4910 C4908 1.419 . S
C4910 C4911 1.362 . S
C4911 H4901 0.930 . S
C4911 C4904 1.409 . S
C4911 C4910 1.362 . S
H4912 C4918 0.930 . S
H4913 C4921 0.930 . S
H4914 C4922 0.930 . S
H4915 C4923 0.930 . S
H4916 C4926 0.930 . S
H4917 C4927 0.930 . S
C4918 H4912 0.930 . S
C4918 C4919 1.355 . S
C4918 C4920 1.415 . S
C4919 C4918 1.355 . S
C4919 C4921 1.419 . S
C4920 C4918 1.415 . S
C4920 C4925 1.425 . S
C4920 C4927 1.409 . S
C4921 H4913 0.930 . S
C4921 C4919 1.419 . S
C4921 C4922 1.362 . S
C4922 H4914 0.930 . S
C4922 C4921 1.362 . S
C4922 C4925 1.409 . S
C4923 H4915 0.930 . S
C4923 C4924 1.355 . S
C4923 C4925 1.415 . S
C4924 C4923 1.355 . S
C4924 C4926 1.419 . S
C4925 C4920 1.425 . S
C4925 C4922 1.409 . S
C4925 C4923 1.415 . S
C4926 H4916 0.930 . S
C4926 C4924 1.419 . S
C4926 C4927 1.362 . S
C4927 H4917 0.930 . S
C4927 C4920 1.409 . S
C4927 C4926 1.362 . S
H4928 C4934 0.930 . S
H4929 C4937 0.930 . S
H4930 C4938 0.930 . S
H4931 C4939 0.930 . S
H4932 C4942 0.930 . S
H4933 C4943 0.930 . S
C4934 H4928 0.930 . S
C4934 C4935 1.355 . S
C4934 C4936 1.415 . S
C4935 C4934 1.355 . S
C4935 C4937 1.419 . S
C4936 C4934 1.415 . S
C4936 C4941 1.425 . S
C4936 C4943 1.409 . S
C4937 H4929 0.930 . S
C4937 C4935 1.419 . S
C4937 C4938 1.362 . S
C4938 H4930 0.930 . S
C4938 C4937 1.362 . S
C4938 C4941 1.409 . S
C4939 H4931 0.930 . S
C4939 C4940 1.355 . S
C4939 C4941 1.415 . S
C4940 C4939 1.355 . S
C4940 C4942 1.419 . S
C4941 C4936 1.425 . S
C4941 C4938 1.409 . S
C4941 C4939 1.415 . S
C4942 H4932 0.930 . S
C4942 C4940 1.419 . S
C4942 C4943 1.362 . S
C4943 H4933 0.930 . S
C4943 C4936 1.409 . S
C4943 C4942 1.362 . S
H4944 C4950 0.930 . S
H4945 C4953 0.930 . S
H4946 C4954 0.930 . S
H4947 C4955 0.930 . S
H4948 C4958 0.930 . S
H4949 C4959 0.930 . S
C4950 H4944 0.930 . S
C4950 C4951 1.355 . S
C4950 C4952 1.415 . S
C4951 C4950 1.355 . S
C4951 C4953 1.419 . S
C4952 C4950 1.415 . S
C4952 C4957 1.425 . S
C4952 C4959 1.409 . S
C4953 H4945 0.930 . S
C4953 C4951 1.419 . S
C4953 C4954 1.362 . S
C4954 H4946 0.930 . S
C4954 C4953 1.362 . S
C4954 C4957 1.409 . S
C4955 H4947 0.930 . S
C4955 C4956 1.355 . S
C4955 C4957 1.415 . S
C4956 C4955 1.355 . S
C4956 C4958 1.419 . S
C4957 C4952 1.425 . S
C4957 C4954 1.409 . S
C4957 C4955 1.415 . S
C4958 H4948 0.930 . S
C4958 C4956 1.419 . S
C4958 C4959 1.362 . S
C4959 H4949 0.930 . S
C4959 C4952 1.409 . S
C4959 C4958 1.362 . S
H4960 C4966 0.930 . S
H4961 C4969 0.930 . S
H4962 C4970 0.930 . S
H4963 C4971 0.930 . S
H4964 C4974 0.930 . S
H4965 C4975 0.930 . S
C4966 H4960 0.930 . S
C4966 C4967 1.355 . S
C4966 C4968 1.415 . S
C4967 C4966 1.355 . S
C4967 C4969 1.419 . S
C4968 C4966 1.415 . S
C4968 C4973 1.425 . S
C4968 C4975 1.409 . S
C4969 H4961 0.930 . S
C4969 C4967 1.419 . S
C4969 C4970 1.362 . S
C4970 H4962 0.930 . S
C4970 C4969 1.362 . S
C4970 C4973 1.409 . S
C4971 H4963 0.930 . S
C4971 C4972 1.355 . S
C4971 C4973 1.415 . S
C4972 C4971 1.355 . S
C4972 C4974 1.419 . S
C4973 C4968 1.425 . S
C4973 C4970 1.409 . S
C4973 C4971 1.415 . S
C4974 H4964 0.930 . S
C4974 C4972 1.419 . S
C4974 C4975 1.362 . S
C4975 H4965 0.930 . S
C4975 C4968 1.409 . S
C4975 C4974 1.362 . S
H4976 C4982 0.930 . S
H4977 C4985 0.930 . S
H4978 C4986 0.930 . S
H4979 C4987 0.930 . S
H4980 C4990 0.930 . S
H4981 C4991 0.930 . S
C4982 H4976 0.930 . S
C4982 C4983 1.355 . S
C4982 C4984 1.415 . S
C4983 C4982 1.355 . S
C4983 C4985 1.419 . S
C4984 C4982 1.415 . S
C4984 C4989 1.425 . S
C4984 C4991 1.409 . S
C4985 H4977 0.930 . S
C4985 C4983 1.419 . S
C4985 C4986 1.362 . S
C4986 H4978 0.930 . S
C4986 C4985 1.362 . S
C4986 C4989 1.409 . S
C4987 H4979 0.930 . S
C4987 C4988 1.355 . S
C4987 C4989 1.415 . S
C4988 C4987 1.355 . S
C4988 C4990 1.419 . S
C4989 C4984 1.425 . S
C4989 C4986 1.409 . S
C4989 C4987 1.415 . S
C4990 H4980 0.930 . S
C4990 C4988 1.419 . S
C4990 C4991 1.362 . S
C4991 H4981 0.930 . S
C4991 C4984 1.409 . S
C4991 C4990 1.362 . S
H4992 C4998 0.930 . S
H4993 C5001 0.930 . S
H4994 C5002 0.930 . S
H4995 C5003 0.930 . S
H4996 C5006 0.930 . S
H4997 C5007 0.930 . S
C4998 H4992 0.930 . S
C4998 C4999 1.355 . S
C4998 C5000 1.415 . S
C4999 C4998 1.355 . S
C4999 C5001 1.419 . S
C5000 C4998 1.415 . S
C5000 C5005 1.425 . S
C5000 C5007 1.409 . S
C5001 H4993 0.930 . S
C5001 C4999 1.419 . S
C5001 C5002 1.362 . S
C5002 H4994 0.930 . S
C5002 C5001 1.362 . S
C5002 C5005 1.409 . S
C5003 H4995 0.930 . S
C5003 C5004 1.355 . S
C5003 C5005 1.415 . S
C5004 C5003 1.355 . S
C5004 C5006 1.419 . S
C5005 C5000 1.425 . S
C5005 C5002 1.409 . S
C5005 C5003 1.415 . S
C5006 H4996 0.930 . S
C5006 C5004 1.419 . S
C5006 C5007 1.362 . S
C5007 H4997 0.930 . S
C5007 C5000 1.409 . S
C5007 C5006 1.362 . S
H5008 C5014 0.930 . S
H5009 C5017 0.930 . S
H5010 C5018 0.930 . S
H5011 C5019 0.930 . S
H5012 C5022 0.930 . S
H5013 C5023 0.930 . S
C5014 H5008 0.930 . S
C5014 C5015 1.355 . S
C5014 C5016 1.415 . S
C5015 C5014 1.355 . S
C5015 C5017 1.419 . S
C5016 C5014 1.415 . S
C5016 C5021 1.425 . S
C5016 C5023 1.409 . S
C5017 H5009 0.930 . S
C5017 C5015 1.419 . S
C5017 C5018 1.362 . S
C5018 H5010 0.930 . S
C5018 C5017 1.362 . S
C5018 C5021 1.409 . S
C5019 H5011 0.930 . S
C5019 C5020 1.355 . S
C5019 C5021 1.415 . S
C5020 C5019 1.355 . S
C5020 C5022 1.419 . S
C5021 C5016 1.425 . S
C5021 C5018 1.409 . S
C5021 C5019 1.415 . S
C5022 H5012 0.930 . S
C5022 C5020 1.419 . S
C5022 C5023 1.362 . S
C5023 H5013 0.930 . S
C5023 C5016 1.409 . S
C5023 C5022 1.362 . S
H5024 C5030 0.930 . S
H5025 C5033 0.930 . S
H5026 C5034 0.930 . S
H5027 C5035 0.930 . S
H5028 C5038 0.930 . S
H5029 C5039 0.930 . S
C5030 H5024 0.930 . S
C5030 C5031 1.355 . S
C5030 C5032 1.415 . S
C5031 C5030 1.355 . S
C5031 C5033 1.419 . S
C5032 C5030 1.415 . S
C5032 C5037 1.425 . S
C5032 C5039 1.409 . S
C5033 H5025 0.930 . S
C5033 C5031 1.419 . S
C5033 C5034 1.362 . S
C5034 H5026 0.930 . S
C5034 C5033 1.362 . S
C5034 C5037 1.409 . S
C5035 H5027 0.930 . S
C5035 C5036 1.355 . S
C5035 C5037 1.415 . S
C5036 C5035 1.355 . S
C5036 C5038 1.419 . S
C5037 C5032 1.425 . S
C5037 C5034 1.409 . S
C5037 C5035 1.415 . S
C5038 H5028 0.930 . S
C5038 C5036 1.419 . S
C5038 C5039 1.362 . S
C5039 H5029 0.930 . S
C5039 C5032 1.409 . S
C5039 C5038 1.362 . S
H5040 C5046 0.930 . S
H5041 C5049 0.930 . S
H5042 C5050 0.930 . S
H5043 C5051 0.930 . S
H5044 C5054 0.930 . S
H5045 C5055 0.930 . S
C5046 H5040 0.930 . S
C5046 C5047 1.355 . S
C5046 C5048 1.415 . S
C5047 C5046 1.355 . S
C5047 C5049 1.419 . S
C5048 C5046 1.415 . S
C5048 C5053 1.425 . S
C5048 C5055 1.409 . S
C5049 H5041 0.930 . S
C5049 C5047 1.419 . S
C5049 C5050 1.362 . S
C5050 H5042 0.930 . S
C5050 C5049 1.362 . S
C5050 C5053 1.409 . S
C5051 H5043 0.930 . S
C5051 C5052 1.355 . S
C5051 C5053 1.415 . S
C5052 C5051 1.355 . S
C5052 C5054 1.419 . S
C5053 C5048 1.425 . S
C5053 C5050 1.409 . S
C5053 C5051 1.415 . S
C5054 H5044 0.930 . S
C5054 C5052 1.419 . S
C5054 C5055 1.362 . S
C5055 H5045 0.930 . S
C5055 C5048 1.409 . S
C5055 C5054 1.362 . S
H5056 C5062 0.930 . S
H5057 C5065 0.930 . S
H5058 C5066 0.930 . S
H5059 C5067 0.930 . S
H5060 C5070 0.930 . S
H5061 C5071 0.930 . S
C5062 H5056 0.930 . S
C5062 C5063 1.355 . S
C5062 C5064 1.415 . S
C5063 C5062 1.355 . S
C5063 C5065 1.419 . S
C5064 C5062 1.415 . S
C5064 C5069 1.425 . S
C5064 C5071 1.409 . S
C5065 H5057 0.930 . S
C5065 C5063 1.419 . S
C5065 C5066 1.362 . S
C5066 H5058 0.930 . S
C5066 C5065 1.362 . S
C5066 C5069 1.409 . S
C5067 H5059 0.930 . S
C5067 C5068 1.355 . S
C5067 C5069 1.415 . S
C5068 C5067 1.355 . S
C5068 C5070 1.419 . S
C5069 C5064 1.425 . S
C5069 C5066 1.409 . S
C5069 C5067 1.415 . S
C5070 H5060 0.930 . S
C5070 C5068 1.419 . S
C5070 C5071 1.362 . S
C5071 H5061 0.930 . S
C5071 C5064 1.409 . S
C5071 C5070 1.362 . S
H5072 C5078 0.930 . S
H5073 C5081 0.930 . S
H5074 C5082 0.930 . S
H5075 C5083 0.930 . S
H5076 C5086 0.930 . S
H5077 C5087 0.930 . S
C5078 H5072 0.930 . S
C5078 C5079 1.355 . S
C5078 C5080 1.415 . S
C5079 C5078 1.355 . S
C5079 C5081 1.419 . S
C5080 C5078 1.415 . S
C5080 C5085 1.425 . S
C5080 C5087 1.409 . S
C5081 H5073 0.930 . S
C5081 C5079 1.419 . S
C5081 C5082 1.362 . S
C5082 H5074 0.930 . S
C5082 C5081 1.362 . S
C5082 C5085 1.409 . S
C5083 H5075 0.930 . S
C5083 C5084 1.355 . S
C5083 C5085 1.415 . S
C5084 C5083 1.355 . S
C5084 C5086 1.419 . S
C5085 C5080 1.425 . S
C5085 C5082 1.409 . S
C5085 C5083 1.415 . S
C5086 H5076 0.930 . S
C5086 C5084 1.419 . S
C5086 C5087 1.362 . S
C5087 H5077 0.930 . S
C5087 C5080 1.409 . S
C5087 C5086 1.362 . S
H5088 C5094 0.930 . S
H5089 C5097 0.930 . S
H5090 C5098 0.930 . S
H5091 C5099 0.930 . S
H5092 C5102 0.930 . S
H5093 C5103 0.930 . S
C5094 H5088 0.930 . S
C5094 C5095 1.355 . S
C5094 C5096 1.415 . S
C5095 C5094 1.355 . S
C5095 C5097 1.419 . S
C5096 C5094 1.415 . S
C5096 C5101 1.425 . S
C5096 C5103 1.409 . S
C5097 H5089 0.930 . S
C5097 C5095 1.419 . S
C5097 C5098 1.362 . S
C5098 H5090 0.930 . S
C5098 C5097 1.362 . S
C5098 C5101 1.409 . S
C5099 H5091 0.930 . S
C5099 C5100 1.355 . S
C5099 C5101 1.415 . S
C5100 C5099 1.355 . S
C5100 C5102 1.419 . S
C5101 C5096 1.425 . S
C5101 C5098 1.409 . S
C5101 C5099 1.415 . S
C5102 H5092 0.930 . S
C5102 C5100 1.419 . S
C5102 C5103 1.362 . S
C5103 H5093 0.930 . S
C5103 C5096 1.409 . S
C5103 C5102 1.362 . S
H5104 C5110 0.930 . S
H5105 C5113 0.930 . S
H5106 C5114 0.930 . S
H5107 C5115 0.930 . S
H5108 C5118 0.930 . S
H5109 C5119 0.930 . S
C5110 H5104 0.930 . S
C5110 C5111 1.355 . S
C5110 C5112 1.415 . S
C5111 C5110 1.355 . S
C5111 C5113 1.419 . S
C5112 C5110 1.415 . S
C5112 C5117 1.425 . S
C5112 C5119 1.409 . S
C5113 H5105 0.930 . S
C5113 C5111 1.419 . S
C5113 C5114 1.362 . S
C5114 H5106 0.930 . S
C5114 C5113 1.362 . S
C5114 C5117 1.409 . S
C5115 H5107 0.930 . S
C5115 C5116 1.355 . S
C5115 C5117 1.415 . S
C5116 C5115 1.355 . S
C5116 C5118 1.419 . S
C5117 C5112 1.425 . S
C5117 C5114 1.409 . S
C5117 C5115 1.415 . S
C5118 H5108 0.930 . S
C5118 C5116 1.419 . S
C5118 C5119 1.362 . S
C5119 H5109 0.930 . S
C5119 C5112 1.409 . S
C5119 C5118 1.362 . S
H5120 C5126 0.930 . S
H5121 C5129 0.930 . S
H5122 C5130 0.930 . S
H5123 C5131 0.930 . S
H5124 C5134 0.930 . S
H5125 C5135 0.930 . S
C5126 H5120 0.930 . S
C5126 C5127 1.355 . S
C5126 C5128 1.415 . S
C5127 C5126 1.355 . S
C5127 C5129 1.419 . S
C5128 C5126 1.415 . S
C5128 C5133 1.425 . S
C5128 C5135 1.409 . S
C5129 H5121 0.930 . S
C5129 C5127 1.419 . S
C5129 C5130 1.362 . S
C5130 H5122 0.930 . S
C5130 C5129 1.362 . S
C5130 C5133 1.409 . S
C5131 H5123 0.930 . S
C5131 C5132 1.355 . S
C5131 C5133 1.415 . S
C5132 C5131 1.355 . S
C5132 C5134 1.419 . S
C5133 C5128 1.425 . S
C5133 C5130 1.409 . S
C5133 C5131 1.415 . S
C5134 H5124 0.930 . S
C5134 C5132 1.419 . S
C5134 C5135 1.362 . S
C5135 H5125 0.930 . S
C5135 C5128 1.409 . S
C5135 C5134 1.362 . S
H5136 C5142 0.930 . S
H5137 C5145 0.930 . S
H5138 C5146 0.930 . S
H5139 C5147 0.930 . S
H5140 C5150 0.930 . S
H5141 C5151 0.930 . S
C5142 H5136 0.930 . S
C5142 C5143 1.355 . S
C5142 C5144 1.415 . S
C5143 C5142 1.355 . S
C5143 C5145 1.419 . S
C5144 C5142 1.415 . S
C5144 C5149 1.425 . S
C5144 C5151 1.409 . S
C5145 H5137 0.930 . S
C5145 C5143 1.419 . S
C5145 C5146 1.362 . S
C5146 H5138 0.930 . S
C5146 C5145 1.362 . S
C5146 C5149 1.409 . S
C5147 H5139 0.930 . S
C5147 C5148 1.355 . S
C5147 C5149 1.415 . S
C5148 C5147 1.355 . S
C5148 C5150 1.419 . S
C5149 C5144 1.425 . S
C5149 C5146 1.409 . S
C5149 C5147 1.415 . S
C5150 H5140 0.930 . S
C5150 C5148 1.419 . S
C5150 C5151 1.362 . S
C5151 H5141 0.930 . S
C5151 C5144 1.409 . S
C5151 C5150 1.362 . S
H5152 C5158 0.930 . S
H5153 C5161 0.930 . S
H5154 C5162 0.930 . S
H5155 C5163 0.930 . S
H5156 C5166 0.930 . S
H5157 C5167 0.930 . S
C5158 H5152 0.930 . S
C5158 C5159 1.355 . S
C5158 C5160 1.415 . S
C5159 C5158 1.355 . S
C5159 C5161 1.419 . S
C5160 C5158 1.415 . S
C5160 C5165 1.425 . S
C5160 C5167 1.409 . S
C5161 H5153 0.930 . S
C5161 C5159 1.419 . S
C5161 C5162 1.362 . S
C5162 H5154 0.930 . S
C5162 C5161 1.362 . S
C5162 C5165 1.409 . S
C5163 H5155 0.930 . S
C5163 C5164 1.355 . S
C5163 C5165 1.415 . S
C5164 C5163 1.355 . S
C5164 C5166 1.419 . S
C5165 C5160 1.425 . S
C5165 C5162 1.409 . S
C5165 C5163 1.415 . S
C5166 H5156 0.930 . S
C5166 C5164 1.419 . S
C5166 C5167 1.362 . S
C5167 H5157 0.930 . S
C5167 C5160 1.409 . S
C5167 C5166 1.362 . S
H5168 C5174 0.930 . S
H5169 C5177 0.930 . S
H5170 C5178 0.930 . S
H5171 C5179 0.930 . S
H5172 C5182 0.930 . S
H5173 C5183 0.930 . S
C5174 H5168 0.930 . S
C5174 C5175 1.355 . S
C5174 C5176 1.415 . S
C5175 C5174 1.355 . S
C5175 C5177 1.419 . S
C5176 C5174 1.415 . S
C5176 C5181 1.425 . S
C5176 C5183 1.409 . S
C5177 H5169 0.930 . S
C5177 C5175 1.419 . S
C5177 C5178 1.362 . S
C5178 H5170 0.930 . S
C5178 C5177 1.362 . S
C5178 C5181 1.409 . S
C5179 H5171 0.930 . S
C5179 C5180 1.355 . S
C5179 C5181 1.415 . S
C5180 C5179 1.355 . S
C5180 C5182 1.419 . S
C5181 C5176 1.425 . S
C5181 C5178 1.409 . S
C5181 C5179 1.415 . S
C5182 H5172 0.930 . S
C5182 C5180 1.419 . S
C5182 C5183 1.362 . S
C5183 H5173 0.930 . S
C5183 C5176 1.409 . S
C5183 C5182 1.362 . S
H5184 C5190 0.930 . S
H5185 C5193 0.930 . S
H5186 C5194 0.930 . S
H5187 C5195 0.930 . S
H5188 C5198 0.930 . S
H5189 C5199 0.930 . S
C5190 H5184 0.930 . S
C5190 C5191 1.355 . S
C5190 C5192 1.415 . S
C5191 C5190 1.355 . S
C5191 C5193 1.419 . S
C5192 C5190 1.415 . S
C5192 C5197 1.425 . S
C5192 C5199 1.409 . S
C5193 H5185 0.930 . S
C5193 C5191 1.419 . S
C5193 C5194 1.362 . S
C5194 H5186 0.930 . S
C5194 C5193 1.362 . S
C5194 C5197 1.409 . S
C5195 H5187 0.930 . S
C5195 C5196 1.355 . S
C5195 C5197 1.415 . S
C5196 C5195 1.355 . S
C5196 C5198 1.419 . S
C5197 C5192 1.425 . S
C5197 C5194 1.409 . S
C5197 C5195 1.415 . S
C5198 H5188 0.930 . S
C5198 C5196 1.419 . S
C5198 C5199 1.362 . S
C5199 H5189 0.930 . S
C5199 C5192 1.409 . S
C5199 C5198 1.362 . S
H5200 C5206 0.930 . S
H5201 C5209 0.930 . S
H5202 C5210 0.930 . S
H5203 C5211 0.930 . S
H5204 C5214 0.930 . S
H5205 C5215 0.930 . S
C5206 H5200 0.930 . S
C5206 C5207 1.355 . S
C5206 C5208 1.415 . S
C5207 C5206 1.355 . S
C5207 C5209 1.419 . S
C5208 C5206 1.415 . S
C5208 C5213 1.425 . S
C5208 C5215 1.409 . S
C5209 H5201 0.930 . S
C5209 C5207 1.419 . S
C5209 C5210 1.362 . S
C5210 H5202 0.930 . S
C5210 C5209 1.362 . S
C5210 C5213 1.409 . S
C5211 H5203 0.930 . S
C5211 C5212 1.355 . S
C5211 C5213 1.415 . S
C5212 C5211 1.355 . S
C5212 C5214 1.419 . S
C5213 C5208 1.425 . S
C5213 C5210 1.409 . S
C5213 C5211 1.415 . S
C5214 H5204 0.930 . S
C5214 C5212 1.419 . S
C5214 C5215 1.362 . S
C5215 H5205 0.930 . S
C5215 C5208 1.409 . S
C5215 C5214 1.362 . S
H5216 C5222 0.930 . S
H5217 C5225 0.930 . S
H5218 C5226 0.930 . S
H5219 C5227 0.930 . S
H5220 C5230 0.930 . S
H5221 C5231 0.930 . S
C5222 H5216 0.930 . S
C5222 C5223 1.355 . S
C5222 C5224 1.415 . S
C5223 C5222 1.355 . S
C5223 C5225 1.419 . S
C5224 C5222 1.415 . S
C5224 C5229 1.425 . S
C5224 C5231 1.409 . S
C5225 H5217 0.930 . S
C5225 C5223 1.419 . S
C5225 C5226 1.362 . S
C5226 H5218 0.930 . S
C5226 C5225 1.362 . S
C5226 C5229 1.409 . S
C5227 H5219 0.930 . S
C5227 C5228 1.355 . S
C5227 C5229 1.415 . S
C5228 C5227 1.355 . S
C5228 C5230 1.419 . S
C5229 C5224 1.425 . S
C5229 C5226 1.409 . S
C5229 C5227 1.415 . S
C5230 H5220 0.930 . S
C5230 C5228 1.419 . S
C5230 C5231 1.362 . S
C5231 H5221 0.930 . S
C5231 C5224 1.409 . S
C5231 C5230 1.362 . S
H5232 C5238 0.930 . S
H5233 C5241 0.930 . S
H5234 C5242 0.930 . S
H5235 C5243 0.930 . S
H5236 C5246 0.930 . S
H5237 C5247 0.930 . S
C5238 H5232 0.930 . S
C5238 C5239 1.355 . S
C5238 C5240 1.415 . S
C5239 C5238 1.355 . S
C5239 C5241 1.419 . S
C5240 C5238 1.415 . S
C5240 C5245 1.425 . S
C5240 C5247 1.409 . S
C5241 H5233 0.930 . S
C5241 C5239 1.419 . S
C5241 C5242 1.362 . S
C5242 H5234 0.930 . S
C5242 C5241 1.362 . S
C5242 C5245 1.409 . S
C5243 H5235 0.930 . S
C5243 C5244 1.355 . S
C5243 C5245 1.415 . S
C5244 C5243 1.355 . S
C5244 C5246 1.419 . S
C5245 C5240 1.425 . S
C5245 C5242 1.409 . S
C5245 C5243 1.415 . S
C5246 H5236 0.930 . S
C5246 C5244 1.419 . S
C5246 C5247 1.362 . S
C5247 H5237 0.930 . S
C5247 C5240 1.409 . S
C5247 C5246 1.362 . S
H5248 C5254 0.930 . S
H5249 C5257 0.930 . S
H5250 C5258 0.930 . S
H5251 C5259 0.930 . S
H5252 C5262 0.930 . S
H5253 C5263 0.930 . S
C5254 H5248 0.930 . S
C5254 C5255 1.355 . S
C5254 C5256 1.415 . S
C5255 C5254 1.355 . S
C5255 C5257 1.419 . S
C5256 C5254 1.415 . S
C5256 C5261 1.425 . S
C5256 C5263 1.409 . S
C5257 H5249 0.930 . S
C5257 C5255 1.419 . S
C5257 C5258 1.362 . S
C5258 H5250 0.930 . S
C5258 C5257 1.362 . S
C5258 C5261 1.409 . S
C5259 H5251 0.930 . S
C5259 C5260 1.355 . S
C5259 C5261 1.415 . S
C5260 C5259 1.355 . S
C5260 C5262 1.419 . S
C5261 C5256 1.425 . S
C5261 C5258 1.409 . S
C5261 C5259 1.415 . S
C5262 H5252 0.930 . S
C5262 C5260 1.419 . S
C5262 C5263 1.362 . S
C5263 H5253 0.930 . S
C5263 C5256 1.409 . S
C5263 C5262 1.362 . S
H5264 C5270 0.930 . S
H5265 C5273 0.930 . S
H5266 C5274 0.930 . S
H5267 C5275 0.930 . S
H5268 C5278 0.930 . S
H5269 C5279 0.930 . S
C5270 H5264 0.930 . S
C5270 C5271 1.355 . S
C5270 C5272 1.415 . S
C5271 C5270 1.355 . S
C5271 C5273 1.419 . S
C5272 C5270 1.415 . S
C5272 C5277 1.425 . S
C5272 C5279 1.409 . S
C5273 H5265 0.930 . S
C5273 C5271 1.419 . S
C5273 C5274 1.362 . S
C5274 H5266 0.930 . S
C5274 C5273 1.362 . S
C5274 C5277 1.409 . S
C5275 H5267 0.930 . S
C5275 C5276 1.355 . S
C5275 C5277 1.415 . S
C5276 C5275 1.355 . S
C5276 C5278 1.419 . S
C5277 C5272 1.425 . S
C5277 C5274 1.409 . S
C5277 C5275 1.415 . S
C5278 H5268 0.930 . S
C5278 C5276 1.419 . S
C5278 C5279 1.362 . S
C5279 H5269 0.930 . S
C5279 C5272 1.409 . S
C5279 C5278 1.362 . S
H5280 C5286 0.930 . S
H5281 C5289 0.930 . S
H5282 C5290 0.930 . S
H5283 C5291 0.930 . S
H5284 C5294 0.930 . S
H5285 C5295 0.930 . S
C5286 H5280 0.930 . S
C5286 C5287 1.355 . S
C5286 C5288 1.415 . S
C5287 C5286 1.355 . S
C5287 C5289 1.419 . S
C5288 C5286 1.415 . S
C5288 C5293 1.425 . S
C5288 C5295 1.409 . S
C5289 H5281 0.930 . S
C5289 C5287 1.419 . S
C5289 C5290 1.362 . S
C5290 H5282 0.930 . S
C5290 C5289 1.362 . S
C5290 C5293 1.409 . S
C5291 H5283 0.930 . S
C5291 C5292 1.355 . S
C5291 C5293 1.415 . S
C5292 C5291 1.355 . S
C5292 C5294 1.419 . S
C5293 C5288 1.425 . S
C5293 C5290 1.409 . S
C5293 C5291 1.415 . S
C5294 H5284 0.930 . S
C5294 C5292 1.419 . S
C5294 C5295 1.362 . S
C5295 H5285 0.930 . S
C5295 C5288 1.409 . S
C5295 C5294 1.362 . S
H5296 C5302 0.930 . S
H5297 C5305 0.930 . S
H5298 C5306 0.930 . S
H5299 C5307 0.930 . S
H5300 C5310 0.930 . S
H5301 C5311 0.930 . S
C5302 H5296 0.930 . S
C5302 C5303 1.355 . S
C5302 C5304 1.415 . S
C5303 C5302 1.355 . S
C5303 C5305 1.419 . S
C5304 C5302 1.415 . S
C5304 C5309 1.425 . S
C5304 C5311 1.409 . S
C5305 H5297 0.930 . S
C5305 C5303 1.419 . S
C5305 C5306 1.362 . S
C5306 H5298 0.930 . S
C5306 C5305 1.362 . S
C5306 C5309 1.409 . S
C5307 H5299 0.930 . S
C5307 C5308 1.355 . S
C5307 C5309 1.415 . S
C5308 C5307 1.355 . S
C5308 C5310 1.419 . S
C5309 C5304 1.425 . S
C5309 C5306 1.409 . S
C5309 C5307 1.415 . S
C5310 H5300 0.930 . S
C5310 C5308 1.419 . S
C5310 C5311 1.362 . S
C5311 H5301 0.930 . S
C5311 C5304 1.409 . S
C5311 C5310 1.362 . S
H5312 C5318 0.930 . S
H5313 C5321 0.930 . S
H5314 C5322 0.930 . S
H5315 C5323 0.930 . S
H5316 C5326 0.930 . S
H5317 C5327 0.930 . S
C5318 H5312 0.930 . S
C5318 C5319 1.355 . S
C5318 C5320 1.415 . S
C5319 C5318 1.355 . S
C5319 C5321 1.419 . S
C5320 C5318 1.415 . S
C5320 C5325 1.425 . S
C5320 C5327 1.409 . S
C5321 H5313 0.930 . S
C5321 C5319 1.419 . S
C5321 C5322 1.362 . S
C5322 H5314 0.930 . S
C5322 C5321 1.362 . S
C5322 C5325 1.409 . S
C5323 H5315 0.930 . S
C5323 C5324 1.355 . S
C5323 C5325 1.415 . S
C5324 C5323 1.355 . S
C5324 C5326 1.419 . S
C5325 C5320 1.425 . S
C5325 C5322 1.409 . S
C5325 C5323 1.415 . S
C5326 H5316 0.930 . S
C5326 C5324 1.419 . S
C5326 C5327 1.362 . S
C5327 H5317 0.930 . S
C5327 C5320 1.409 . S
C5327 C5326 1.362 . S
H5328 C5334 0.930 . S
H5329 C5337 0.930 . S
H5330 C5338 0.930 . S
H5331 C5339 0.930 . S
H5332 C5342 0.930 . S
H5333 C5343 0.930 . S
C5334 H5328 0.930 . S
C5334 C5335 1.355 . S
C5334 C5336 1.415 . S
C5335 C5334 1.355 . S
C5335 C5337 1.419 . S
C5336 C5334 1.415 . S
C5336 C5341 1.425 . S
C5336 C5343 1.409 . S
C5337 H5329 0.930 . S
C5337 C5335 1.419 . S
C5337 C5338 1.362 . S
C5338 H5330 0.930 . S
C5338 C5337 1.362 . S
C5338 C5341 1.409 . S
C5339 H5331 0.930 . S
C5339 C5340 1.355 . S
C5339 C5341 1.415 . S
C5340 C5339 1.355 . S
C5340 C5342 1.419 . S
C5341 C5336 1.425 . S
C5341 C5338 1.409 . S
C5341 C5339 1.415 . S
C5342 H5332 0.930 . S
C5342 C5340 1.419 . S
C5342 C5343 1.362 . S
C5343 H5333 0.930 . S
C5343 C5336 1.409 . S
C5343 C5342 1.362 . S
H5344 C5350 0.930 . S
H5345 C5353 0.930 . S
H5346 C5354 0.930 . S
H5347 C5355 0.930 . S
H5348 C5358 0.930 . S
H5349 C5359 0.930 . S
C5350 H5344 0.930 . S
C5350 C5351 1.355 . S
C5350 C5352 1.415 . S
C5351 C5350 1.355 . S
C5351 C5353 1.419 . S
C5352 C5350 1.415 . S
C5352 C5357 1.425 . S
C5352 C5359 1.409 . S
C5353 H5345 0.930 . S
C5353 C5351 1.419 . S
C5353 C5354 1.362 . S
C5354 H5346 0.930 . S
C5354 C5353 1.362 . S
C5354 C5357 1.409 . S
C5355 H5347 0.930 . S
C5355 C5356 1.355 . S
C5355 C5357 1.415 . S
C5356 C5355 1.355 . S
C5356 C5358 1.419 . S
C5357 C5352 1.425 . S
C5357 C5354 1.409 . S
C5357 C5355 1.415 . S
C5358 H5348 0.930 . S
C5358 C5356 1.419 . S
C5358 C5359 1.362 . S
C5359 H5349 0.930 . S
C5359 C5352 1.409 . S
C5359 C5358 1.362 . S
H5360 C5366 0.930 . S
H5361 C5369 0.930 . S
H5362 C5370 0.930 . S
H5363 C5371 0.930 . S
H5364 C5374 0.930 . S
H5365 C5375 0.930 . S
C5366 H5360 0.930 . S
C5366 C5367 1.355 . S
C5366 C5368 1.415 . S
C5367 C5366 1.355 . S
C5367 C5369 1.419 . S
C5368 C5366 1.415 . S
C5368 C5373 1.425 . S
C5368 C5375 1.409 . S
C5369 H5361 0.930 . S
C5369 C5367 1.419 . S
C5369 C5370 1.362 . S
C5370 H5362 0.930 . S
C5370 C5369 1.362 . S
C5370 C5373 1.409 . S
C5371 H5363 0.930 . S
C5371 C5372 1.355 . S
C5371 C5373 1.415 . S
C5372 C5371 1.355 . S
C5372 C5374 1.419 . S
C5373 C5368 1.425 . S
C5373 C5370 1.409 . S
C5373 C5371 1.415 . S
C5374 H5364 0.930 . S
C5374 C5372 1.419 . S
C5374 C5375 1.362 . S
C5375 H5365 0.930 . S
C5375 C5368 1.409 . S
C5375 C5374 1.362 . S
H5376 C5382 0.930 . S
H5377 C5385 0.930 . S
H5378 C5386 0.930 . S
H5379 C5387 0.930 . S
H5380 C5390 0.930 . S
H5381 C5391 0.930 . S
C5382 H5376 0.930 . S
C5382 C5383 1.355 . S
C5382 C5384 1.415 . S
C5383 C5382 1.355 . S
C5383 C5385 1.419 . S
C5384 C5382 1.415 . S
C5384 C5389 1.425 . S
C5384 C5391 1.409 . S
C5385 H5377 0.930 . S
C5385 C5383 1.419 . S
C5385 C5386 1.362 . S
C5386 H5378 0.930 . S
C5386 C5385 1.362 . S
C5386 C5389 1.409 . S
C5387 H5379 0.930 . S
C5387 C5388 1.355 . S
C5387 C5389 1.415 . S
C5388 C5387 1.355 . S
C5388 C5390 1.419 . S
C5389 C5384 1.425 . S
C5389 C5386 1.409 . S
C5389 C5387 1.415 . S
C5390 H5380 0.930 . S
C5390 C5388 1.419 . S
C5390 C5391 1.362 . S
C5391 H5381 0.930 . S
C5391 C5384 1.409 . S
C5391 C5390 1.362 . S
H5392 C5398 0.930 . S
H5393 C5401 0.930 . S
H5394 C5402 0.930 . S
H5395 C5403 0.930 . S
H5396 C5406 0.930 . S
H5397 C5407 0.930 . S
C5398 H5392 0.930 . S
C5398 C5399 1.355 . S
C5398 C5400 1.415 . S
C5399 C5398 1.355 . S
C5399 C5401 1.419 . S
C5400 C5398 1.415 . S
C5400 C5405 1.425 . S
C5400 C5407 1.409 . S
C5401 H5393 0.930 . S
C5401 C5399 1.419 . S
C5401 C5402 1.362 . S
C5402 H5394 0.930 . S
C5402 C5401 1.362 . S
C5402 C5405 1.409 . S
C5403 H5395 0.930 . S
C5403 C5404 1.355 . S
C5403 C5405 1.415 . S
C5404 C5403 1.355 . S
C5404 C5406 1.419 . S
C5405 C5400 1.425 . S
C5405 C5402 1.409 . S
C5405 C5403 1.415 . S
C5406 H5396 0.930 . S
C5406 C5404 1.419 . S
C5406 C5407 1.362 . S
C5407 H5397 0.930 . S
C5407 C5400 1.409 . S
C5407 C5406 1.362 . S
H5408 C5414 0.930 . S
H5409 C5417 0.930 . S
H5410 C5418 0.930 . S
H5411 C5419 0.930 . S
H5412 C5422 0.930 . S
H5413 C5423 0.930 . S
C5414 H5408 0.930 . S
C5414 C5415 1.355 . S
C5414 C5416 1.415 . S
C5415 C5414 1.355 . S
C5415 C5417 1.419 . S
C5416 C5414 1.415 . S
C5416 C5421 1.425 . S
C5416 C5423 1.409 . S
C5417 H5409 0.930 . S
C5417 C5415 1.419 . S
C5417 C5418 1.362 . S
C5418 H5410 0.930 . S
C5418 C5417 1.362 . S
C5418 C5421 1.409 . S
C5419 H5411 0.930 . S
C5419 C5420 1.355 . S
C5419 C5421 1.415 . S
C5420 C5419 1.355 . S
C5420 C5422 1.419 . S
C5421 C5416 1.425 . S
C5421 C5418 1.409 . S
C5421 C5419 1.415 . S
C5422 H5412 0.930 . S
C5422 C5420 1.419 . S
C5422 C5423 1.362 . S
C5423 H5413 0.930 . S
C5423 C5416 1.409 . S
C5423 C5422 1.362 . S
H5424 C5430 0.930 . S
H5425 C5433 0.930 . S
H5426 C5434 0.930 . S
H5427 C5435 0.930 . S
H5428 C5438 0.930 . S
H5429 C5439 0.930 . S
C5430 H5424 0.930 . S
C5430 C5431 1.355 . S
C5430 C5432 1.415 . S
C5431 C5430 1.355 . S
C5431 C5433 1.419 . S
C5432 C5430 1.415 . S
C5432 C5437 1.425 . S
C5432 C5439 1.409 . S
C5433 H5425 0.930 . S
C5433 C5431 1.419 . S
C5433 C5434 1.362 . S
C5434 H5426 0.930 . S
C5434 C5433 1.362 . S
C5434 C5437 1.409 . S
C5435 H5427 0.930 . S
C5435 C5436 1.355 . S
C5435 C5437 1.415 . S
C5436 C5435 1.355 . S
C5436 C5438 1.419 . S
C5437 C5432 1.425 . S
C5437 C5434 1.409 . S
C5437 C5435 1.415 . S
C5438 H5428 0.930 . S
C5438 C5436 1.419 . S
C5438 C5439 1.362 . S
C5439 H5429 0.930 . S
C5439 C5432 1.409 . S
C5439 C5438 1.362 . S
H5440 C5446 0.930 . S
H5441 C5449 0.930 . S
H5442 C5450 0.930 . S
H5443 C5451 0.930 . S
H5444 C5454 0.930 . S
H5445 C5455 0.930 . S
C5446 H5440 0.930 . S
C5446 C5447 1.355 . S
C5446 C5448 1.415 . S
C5447 C5446 1.355 . S
C5447 C5449 1.419 . S
C5448 C5446 1.415 . S
C5448 C5453 1.425 . S
C5448 C5455 1.409 . S
C5449 H5441 0.930 . S
C5449 C5447 1.419 . S
C5449 C5450 1.362 . S
C5450 H5442 0.930 . S
C5450 C5449 1.362 . S
C5450 C5453 1.409 . S
C5451 H5443 0.930 . S
C5451 C5452 1.355 . S
C5451 C5453 1.415 . S
C5452 C5451 1.355 . S
C5452 C5454 1.419 . S
C5453 C5448 1.425 . S
C5453 C5450 1.409 . S
C5453 C5451 1.415 . S
C5454 H5444 0.930 . S
C5454 C5452 1.419 . S
C5454 C5455 1.362 . S
C5455 H5445 0.930 . S
C5455 C5448 1.409 . S
C5455 C5454 1.362 . S
H5456 C5462 0.930 . S
H5457 C5465 0.930 . S
H5458 C5466 0.930 . S
H5459 C5467 0.930 . S
H5460 C5470 0.930 . S
H5461 C5471 0.930 . S
C5462 H5456 0.930 . S
C5462 C5463 1.355 . S
C5462 C5464 1.415 . S
C5463 C5462 1.355 . S
C5463 C5465 1.419 . S
C5464 C5462 1.415 . S
C5464 C5469 1.425 . S
C5464 C5471 1.409 . S
C5465 H5457 0.930 . S
C5465 C5463 1.419 . S
C5465 C5466 1.362 . S
C5466 H5458 0.930 . S
C5466 C5465 1.362 . S
C5466 C5469 1.409 . S
C5467 H5459 0.930 . S
C5467 C5468 1.355 . S
C5467 C5469 1.415 . S
C5468 C5467 1.355 . S
C5468 C5470 1.419 . S
C5469 C5464 1.425 . S
C5469 C5466 1.409 . S
C5469 C5467 1.415 . S
C5470 H5460 0.930 . S
C5470 C5468 1.419 . S
C5470 C5471 1.362 . S
C5471 H5461 0.930 . S
C5471 C5464 1.409 . S
C5471 C5470 1.362 . S
H5472 C5478 0.930 . S
H5473 C5481 0.930 . S
H5474 C5482 0.930 . S
H5475 C5483 0.930 . S
H5476 C5486 0.930 . S
H5477 C5487 0.930 . S
C5478 H5472 0.930 . S
C5478 C5479 1.355 . S
C5478 C5480 1.415 . S
C5479 C5478 1.355 . S
C5479 C5481 1.419 . S
C5480 C5478 1.415 . S
C5480 C5485 1.425 . S
C5480 C5487 1.409 . S
C5481 H5473 0.930 . S
C5481 C5479 1.419 . S
C5481 C5482 1.362 . S
C5482 H5474 0.930 . S
C5482 C5481 1.362 . S
C5482 C5485 1.409 . S
C5483 H5475 0.930 . S
C5483 C5484 1.355 . S
C5483 C5485 1.415 . S
C5484 C5483 1.355 . S
C5484 C5486 1.419 . S
C5485 C5480 1.425 . S
C5485 C5482 1.409 . S
C5485 C5483 1.415 . S
C5486 H5476 0.930 . S
C5486 C5484 1.419 . S
C5486 C5487 1.362 . S
C5487 H5477 0.930 . S
C5487 C5480 1.409 . S
C5487 C5486 1.362 . S
H5488 C5494 0.930 . S
H5489 C5497 0.930 . S
H5490 C5498 0.930 . S
H5491 C5499 0.930 . S
H5492 C5502 0.930 . S
H5493 C5503 0.930 . S
C5494 H5488 0.930 . S
C5494 C5495 1.355 . S
C5494 C5496 1.415 . S
C5495 C5494 1.355 . S
C5495 C5497 1.419 . S
C5496 C5494 1.415 . S
C5496 C5501 1.425 . S
C5496 C5503 1.409 . S
C5497 H5489 0.930 . S
C5497 C5495 1.419 . S
C5497 C5498 1.362 . S
C5498 H5490 0.930 . S
C5498 C5497 1.362 . S
C5498 C5501 1.409 . S
C5499 H5491 0.930 . S
C5499 C5500 1.355 . S
C5499 C5501 1.415 . S
C5500 C5499 1.355 . S
C5500 C5502 1.419 . S
C5501 C5496 1.425 . S
C5501 C5498 1.409 . S
C5501 C5499 1.415 . S
C5502 H5492 0.930 . S
C5502 C5500 1.419 . S
C5502 C5503 1.362 . S
C5503 H5493 0.930 . S
C5503 C5496 1.409 . S
C5503 C5502 1.362 . S
H5504 C5510 0.930 . S
H5505 C5513 0.930 . S
H5506 C5514 0.930 . S
H5507 C5515 0.930 . S
H5508 C5518 0.930 . S
H5509 C5519 0.930 . S
C5510 H5504 0.930 . S
C5510 C5511 1.355 . S
C5510 C5512 1.415 . S
C5511 C5510 1.355 . S
C5511 C5513 1.419 . S
C5512 C5510 1.415 . S
C5512 C5517 1.425 . S
C5512 C5519 1.409 . S
C5513 H5505 0.930 . S
C5513 C5511 1.419 . S
C5513 C5514 1.362 . S
C5514 H5506 0.930 . S
C5514 C5513 1.362 . S
C5514 C5517 1.409 . S
C5515 H5507 0.930 . S
C5515 C5516 1.355 . S
C5515 C5517 1.415 . S
C5516 C5515 1.355 . S
C5516 C5518 1.419 . S
C5517 C5512 1.425 . S
C5517 C5514 1.409 . S
C5517 C5515 1.415 . S
C5518 H5508 0.930 . S
C5518 C5516 1.419 . S
C5518 C5519 1.362 . S
C5519 H5509 0.930 . S
C5519 C5512 1.409 . S
C5519 C5518 1.362 . S
H5520 C5526 0.930 . S
H5521 C5529 0.930 . S
H5522 C5530 0.930 . S
H5523 C5531 0.930 . S
H5524 C5534 0.930 . S
H5525 C5535 0.930 . S
C5526 H5520 0.930 . S
C5526 C5527 1.355 . S
C5526 C5528 1.415 . S
C5527 C5526 1.355 . S
C5527 C5529 1.419 . S
C5528 C5526 1.415 . S
C5528 C5533 1.425 . S
C5528 C5535 1.409 . S
C5529 H5521 0.930 . S
C5529 C5527 1.419 . S
C5529 C5530 1.362 . S
C5530 H5522 0.930 . S
C5530 C5529 1.362 . S
C5530 C5533 1.409 . S
C5531 H5523 0.930 . S
C5531 C5532 1.355 . S
C5531 C5533 1.415 . S
C5532 C5531 1.355 . S
C5532 C5534 1.419 . S
C5533 C5528 1.425 . S
C5533 C5530 1.409 . S
C5533 C5531 1.415 . S
C5534 H5524 0.930 . S
C5534 C5532 1.419 . S
C5534 C5535 1.362 . S
C5535 H5525 0.930 . S
C5535 C5528 1.409 . S
C5535 C5534 1.362 . S
H5536 C5542 0.930 . S
H5537 C5545 0.930 . S
H5538 C5546 0.930 . S
H5539 C5547 0.930 . S
H5540 C5550 0.930 . S
H5541 C5551 0.930 . S
C5542 H5536 0.930 . S
C5542 C5543 1.355 . S
C5542 C5544 1.415 . S
C5543 C5542 1.355 . S
C5543 C5545 1.419 . S
C5544 C5542 1.415 . S
C5544 C5549 1.425 . S
C5544 C5551 1.409 . S
C5545 H5537 0.930 . S
C5545 C5543 1.419 . S
C5545 C5546 1.362 . S
C5546 H5538 0.930 . S
C5546 C5545 1.362 . S
C5546 C5549 1.409 . S
C5547 H5539 0.930 . S
C5547 C5548 1.355 . S
C5547 C5549 1.415 . S
C5548 C5547 1.355 . S
C5548 C5550 1.419 . S
C5549 C5544 1.425 . S
C5549 C5546 1.409 . S
C5549 C5547 1.415 . S
C5550 H5540 0.930 . S
C5550 C5548 1.419 . S
C5550 C5551 1.362 . S
C5551 H5541 0.930 . S
C5551 C5544 1.409 . S
C5551 C5550 1.362 . S
H5552 C5558 0.930 . S
H5553 C5561 0.930 . S
H5554 C5562 0.930 . S
H5555 C5563 0.930 . S
H5556 C5566 0.930 . S
H5557 C5567 0.930 . S
C5558 H5552 0.930 . S
C5558 C5559 1.355 . S
C5558 C5560 1.415 . S
C5559 C5558 1.355 . S
C5559 C5561 1.419 . S
C5560 C5558 1.415 . S
C5560 C5565 1.425 . S
C5560 C5567 1.409 . S
C5561 H5553 0.930 . S
C5561 C5559 1.419 . S
C5561 C5562 1.362 . S
C5562 H5554 0.930 . S
C5562 C5561 1.362 . S
C5562 C5565 1.409 . S
C5563 H5555 0.930 . S
C5563 C5564 1.355 . S
C5563 C5565 1.415 . S
C5564 C5563 1.355 . S
C5564 C5566 1.419 . S
C5565 C5560 1.425 . S
C5565 C5562 1.409 . S
C5565 C5563 1.415 . S
C5566 H5556 0.930 . S
C5566 C5564 1.419 . S
C5566 C5567 1.362 . S
C5567 H5557 0.930 . S
C5567 C5560 1.409 . S
C5567 C5566 1.362 . S
H5568 C5574 0.930 . S
H5569 C5577 0.930 . S
H5570 C5578 0.930 . S
H5571 C5579 0.930 . S
H5572 C5582 0.930 . S
H5573 C5583 0.930 . S
C5574 H5568 0.930 . S
C5574 C5575 1.355 . S
C5574 C5576 1.415 . S
C5575 C5574 1.355 . S
C5575 C5577 1.419 . S
C5576 C5574 1.415 . S
C5576 C5581 1.425 . S
C5576 C5583 1.409 . S
C5577 H5569 0.930 . S
C5577 C5575 1.419 . S
C5577 C5578 1.362 . S
C5578 H5570 0.930 . S
C5578 C5577 1.362 . S
C5578 C5581 1.409 . S
C5579 H5571 0.930 . S
C5579 C5580 1.355 . S
C5579 C5581 1.415 . S
C5580 C5579 1.355 . S
C5580 C5582 1.419 . S
C5581 C5576 1.425 . S
C5581 C5578 1.409 . S
C5581 C5579 1.415 . S
C5582 H5572 0.930 . S
C5582 C5580 1.419 . S
C5582 C5583 1.362 . S
C5583 H5573 0.930 . S
C5583 C5576 1.409 . S
C5583 C5582 1.362 . S
H5584 C5590 0.930 . S
H5585 C5593 0.930 . S
H5586 C5594 0.930 . S
H5587 C5595 0.930 . S
H5588 C5598 0.930 . S
H5589 C5599 0.930 . S
C5590 H5584 0.930 . S
C5590 C5591 1.355 . S
C5590 C5592 1.415 . S
C5591 C5590 1.355 . S
C5591 C5593 1.419 . S
C5592 C5590 1.415 . S
C5592 C5597 1.425 . S
C5592 C5599 1.409 . S
C5593 H5585 0.930 . S
C5593 C5591 1.419 . S
C5593 C5594 1.362 . S
C5594 H5586 0.930 . S
C5594 C5593 1.362 . S
C5594 C5597 1.409 . S
C5595 H5587 0.930 . S
C5595 C5596 1.355 . S
C5595 C5597 1.415 . S
C5596 C5595 1.355 . S
C5596 C5598 1.419 . S
C5597 C5592 1.425 . S
C5597 C5594 1.409 . S
C5597 C5595 1.415 . S
C5598 H5588 0.930 . S
C5598 C5596 1.419 . S
C5598 C5599 1.362 . S
C5599 H5589 0.930 . S
C5599 C5592 1.409 . S
C5599 C5598 1.362 . S
H5600 C5606 0.930 . S
H5601 C5609 0.930 . S
H5602 C5610 0.930 . S
H5603 C5611 0.930 . S
H5604 C5614 0.930 . S
H5605 C5615 0.930 . S
C5606 H5600 0.930 . S
C5606 C5607 1.355 . S
C5606 C5608 1.415 . S
C5607 C5606 1.355 . S
C5607 C5609 1.419 . S
C5608 C5606 1.415 . S
C5608 C5613 1.425 . S
C5608 C5615 1.409 . S
C5609 H5601 0.930 . S
C5609 C5607 1.419 . S
C5609 C5610 1.362 . S
C5610 H5602 0.930 . S
C5610 C5609 1.362 . S
C5610 C5613 1.409 . S
C5611 H5603 0.930 . S
C5611 C5612 1.355 . S
C5611 C5613 1.415 . S
C5612 C5611 1.355 . S
C5612 C5614 1.419 . S
C5613 C5608 1.425 . S
C5613 C5610 1.409 . S
C5613 C5611 1.415 . S
C5614 H5604 0.930 . S
C5614 C5612 1.419 . S
C5614 C5615 1.362 . S
C5615 H5605 0.930 . S
C5615 C5608 1.409 . S
C5615 C5614 1.362 . S
H5616 C5622 0.930 . S
H5617 C5625 0.930 . S
H5618 C5626 0.930 . S
H5619 C5627 0.930 . S
H5620 C5630 0.930 . S
H5621 C5631 0.930 . S
C5622 H5616 0.930 . S
C5622 C5623 1.355 . S
C5622 C5624 1.415 . S
C5623 C5622 1.355 . S
C5623 C5625 1.419 . S
C5624 C5622 1.415 . S
C5624 C5629 1.425 . S
C5624 C5631 1.409 . S
C5625 H5617 0.930 . S
C5625 C5623 1.419 . S
C5625 C5626 1.362 . S
C5626 H5618 0.930 . S
C5626 C5625 1.362 . S
C5626 C5629 1.409 . S
C5627 H5619 0.930 . S
C5627 C5628 1.355 . S
C5627 C5629 1.415 . S
C5628 C5627 1.355 . S
C5628 C5630 1.419 . S
C5629 C5624 1.425 . S
C5629 C5626 1.409 . S
C5629 C5627 1.415 . S
C5630 H5620 0.930 . S
C5630 C5628 1.419 . S
C5630 C5631 1.362 . S
C5631 H5621 0.930 . S
C5631 C5624 1.409 . S
C5631 C5630 1.362 . S
H5632 C5638 0.930 . S
H5633 C5641 0.930 . S
H5634 C5642 0.930 . S
H5635 C5643 0.930 . S
H5636 C5646 0.930 . S
H5637 C5647 0.930 . S
C5638 H5632 0.930 . S
C5638 C5639 1.355 . S
C5638 C5640 1.415 . S
C5639 C5638 1.355 . S
C5639 C5641 1.419 . S
C5640 C5638 1.415 . S
C5640 C5645 1.425 . S
C5640 C5647 1.409 . S
C5641 H5633 0.930 . S
C5641 C5639 1.419 . S
C5641 C5642 1.362 . S
C5642 H5634 0.930 . S
C5642 C5641 1.362 . S
C5642 C5645 1.409 . S
C5643 H5635 0.930 . S
C5643 C5644 1.355 . S
C5643 C5645 1.415 . S
C5644 C5643 1.355 . S
C5644 C5646 1.419 . S
C5645 C5640 1.425 . S
C5645 C5642 1.409 . S
C5645 C5643 1.415 . S
C5646 H5636 0.930 . S
C5646 C5644 1.419 . S
C5646 C5647 1.362 . S
C5647 H5637 0.930 . S
C5647 C5640 1.409 . S
C5647 C5646 1.362 . S
H5648 C5654 0.930 . S
H5649 C5657 0.930 . S
H5650 C5658 0.930 . S
H5651 C5659 0.930 . S
H5652 C5662 0.930 . S
H5653 C5663 0.930 . S
C5654 H5648 0.930 . S
C5654 C5655 1.355 . S
C5654 C5656 1.415 . S
C5655 C5654 1.355 . S
C5655 C5657 1.419 . S
C5656 C5654 1.415 . S
C5656 C5661 1.425 . S
C5656 C5663 1.409 . S
C5657 H5649 0.930 . S
C5657 C5655 1.419 . S
C5657 C5658 1.362 . S
C5658 H5650 0.930 . S
C5658 C5657 1.362 . S
C5658 C5661 1.409 . S
C5659 H5651 0.930 . S
C5659 C5660 1.355 . S
C5659 C5661 1.415 . S
C5660 C5659 1.355 . S
C5660 C5662 1.419 . S
C5661 C5656 1.425 . S
C5661 C5658 1.409 . S
C5661 C5659 1.415 . S
C5662 H5652 0.930 . S
C5662 C5660 1.419 . S
C5662 C5663 1.362 . S
C5663 H5653 0.930 . S
C5663 C5656 1.409 . S
C5663 C5662 1.362 . S
H5664 C5670 0.930 . S
H5665 C5673 0.930 . S
H5666 C5674 0.930 . S
H5667 C5675 0.930 . S
H5668 C5678 0.930 . S
H5669 C5679 0.930 . S
C5670 H5664 0.930 . S
C5670 C5671 1.355 . S
C5670 C5672 1.415 . S
C5671 C5670 1.355 . S
C5671 C5673 1.419 . S
C5672 C5670 1.415 . S
C5672 C5677 1.425 . S
C5672 C5679 1.409 . S
C5673 H5665 0.930 . S
C5673 C5671 1.419 . S
C5673 C5674 1.362 . S
C5674 H5666 0.930 . S
C5674 C5673 1.362 . S
C5674 C5677 1.409 . S
C5675 H5667 0.930 . S
C5675 C5676 1.355 . S
C5675 C5677 1.415 . S
C5676 C5675 1.355 . S
C5676 C5678 1.419 . S
C5677 C5672 1.425 . S
C5677 C5674 1.409 . S
C5677 C5675 1.415 . S
C5678 H5668 0.930 . S
C5678 C5676 1.419 . S
C5678 C5679 1.362 . S
C5679 H5669 0.930 . S
C5679 C5672 1.409 . S
C5679 C5678 1.362 . S
H5680 C5686 0.930 . S
H5681 C5689 0.930 . S
H5682 C5690 0.930 . S
H5683 C5691 0.930 . S
H5684 C5694 0.930 . S
H5685 C5695 0.930 . S
C5686 H5680 0.930 . S
C5686 C5687 1.355 . S
C5686 C5688 1.415 . S
C5687 C5686 1.355 . S
C5687 C5689 1.419 . S
C5688 C5686 1.415 . S
C5688 C5693 1.425 . S
C5688 C5695 1.409 . S
C5689 H5681 0.930 . S
C5689 C5687 1.419 . S
C5689 C5690 1.362 . S
C5690 H5682 0.930 . S
C5690 C5689 1.362 . S
C5690 C5693 1.409 . S
C5691 H5683 0.930 . S
C5691 C5692 1.355 . S
C5691 C5693 1.415 . S
C5692 C5691 1.355 . S
C5692 C5694 1.419 . S
C5693 C5688 1.425 . S
C5693 C5690 1.409 . S
C5693 C5691 1.415 . S
C5694 H5684 0.930 . S
C5694 C5692 1.419 . S
C5694 C5695 1.362 . S
C5695 H5685 0.930 . S
C5695 C5688 1.409 . S
C5695 C5694 1.362 . S
H5696 C5702 0.930 . S
H5697 C5705 0.930 . S
H5698 C5706 0.930 . S
H5699 C5707 0.930 . S
H5700 C5710 0.930 . S
H5701 C5711 0.930 . S
C5702 H5696 0.930 . S
C5702 C5703 1.355 . S
C5702 C5704 1.415 . S
C5703 C5702 1.355 . S
C5703 C5705 1.419 . S
C5704 C5702 1.415 . S
C5704 C5709 1.425 . S
C5704 C5711 1.409 . S
C5705 H5697 0.930 . S
C5705 C5703 1.419 . S
C5705 C5706 1.362 . S
C5706 H5698 0.930 . S
C5706 C5705 1.362 . S
C5706 C5709 1.409 . S
C5707 H5699 0.930 . S
C5707 C5708 1.355 . S
C5707 C5709 1.415 . S
C5708 C5707 1.355 . S
C5708 C5710 1.419 . S
C5709 C5704 1.425 . S
C5709 C5706 1.409 . S
C5709 C5707 1.415 . S
C5710 H5700 0.930 . S
C5710 C5708 1.419 . S
C5710 C5711 1.362 . S
C5711 H5701 0.930 . S
C5711 C5704 1.409 . S
C5711 C5710 1.362 . S
H5712 C5718 0.930 . S
H5713 C5721 0.930 . S
H5714 C5722 0.930 . S
H5715 C5723 0.930 . S
H5716 C5726 0.930 . S
H5717 C5727 0.930 . S
C5718 H5712 0.930 . S
C5718 C5719 1.355 . S
C5718 C5720 1.415 . S
C5719 C5718 1.355 . S
C5719 C5721 1.419 . S
C5720 C5718 1.415 . S
C5720 C5725 1.425 . S
C5720 C5727 1.409 . S
C5721 H5713 0.930 . S
C5721 C5719 1.419 . S
C5721 C5722 1.362 . S
C5722 H5714 0.930 . S
C5722 C5721 1.362 . S
C5722 C5725 1.409 . S
C5723 H5715 0.930 . S
C5723 C5724 1.355 . S
C5723 C5725 1.415 . S
C5724 C5723 1.355 . S
C5724 C5726 1.419 . S
C5725 C5720 1.425 . S
C5725 C5722 1.409 . S
C5725 C5723 1.415 . S
C5726 H5716 0.930 . S
C5726 C5724 1.419 . S
C5726 C5727 1.362 . S
C5727 H5717 0.930 . S
C5727 C5720 1.409 . S
C5727 C5726 1.362 . S
H5728 C5734 0.930 . S
H5729 C5737 0.930 . S
H5730 C5738 0.930 . S
H5731 C5739 0.930 . S
H5732 C5742 0.930 . S
H5733 C5743 0.930 . S
C5734 H5728 0.930 . S
C5734 C5735 1.355 . S
C5734 C5736 1.415 . S
C5735 C5734 1.355 . S
C5735 C5737 1.419 . S
C5736 C5734 1.415 . S
C5736 C5741 1.425 . S
C5736 C5743 1.409 . S
C5737 H5729 0.930 . S
C5737 C5735 1.419 . S
C5737 C5738 1.362 . S
C5738 H5730 0.930 . S
C5738 C5737 1.362 . S
C5738 C5741 1.409 . S
C5739 H5731 0.930 . S
C5739 C5740 1.355 . S
C5739 C5741 1.415 . S
C5740 C5739 1.355 . S
C5740 C5742 1.419 . S
C5741 C5736 1.425 . S
C5741 C5738 1.409 . S
C5741 C5739 1.415 . S
C5742 H5732 0.930 . S
C5742 C5740 1.419 . S
C5742 C5743 1.362 . S
C5743 H5733 0.930 . S
C5743 C5736 1.409 . S
C5743 C5742 1.362 . S
H5744 C5750 0.930 . S
H5745 C5753 0.930 . S
H5746 C5754 0.930 . S
H5747 C5755 0.930 . S
H5748 C5758 0.930 . S
H5749 C5759 0.930 . S
C5750 H5744 0.930 . S
C5750 C5751 1.355 . S
C5750 C5752 1.415 . S
C5751 C5750 1.355 . S
C5751 C5753 1.419 . S
C5752 C5750 1.415 . S
C5752 C5757 1.425 . S
C5752 C5759 1.409 . S
C5753 H5745 0.930 . S
C5753 C5751 1.419 . S
C5753 C5754 1.362 . S
C5754 H5746 0.930 . S
C5754 C5753 1.362 . S
C5754 C5757 1.409 . S
C5755 H5747 0.930 . S
C5755 C5756 1.355 . S
C5755 C5757 1.415 . S
C5756 C5755 1.355 . S
C5756 C5758 1.419 . S
C5757 C5752 1.425 . S
C5757 C5754 1.409 . S
C5757 C5755 1.415 . S
C5758 H5748 0.930 . S
C5758 C5756 1.419 . S
C5758 C5759 1.362 . S
C5759 H5749 0.930 . S
C5759 C5752 1.409 . S
C5759 C5758 1.362 . S
H5760 C5766 0.930 . S
H5761 C5769 0.930 . S
H5762 C5770 0.930 . S
H5763 C5771 0.930 . S
H5764 C5774 0.930 . S
H5765 C5775 0.930 . S
C5766 H5760 0.930 . S
C5766 C5767 1.355 . S
C5766 C5768 1.415 . S
C5767 C5766 1.355 . S
C5767 C5769 1.419 . S
C5768 C5766 1.415 . S
C5768 C5773 1.425 . S
C5768 C5775 1.409 . S
C5769 H5761 0.930 . S
C5769 C5767 1.419 . S
C5769 C5770 1.362 . S
C5770 H5762 0.930 . S
C5770 C5769 1.362 . S
C5770 C5773 1.409 . S
C5771 H5763 0.930 . S
C5771 C5772 1.355 . S
C5771 C5773 1.415 . S
C5772 C5771 1.355 . S
C5772 C5774 1.419 . S
C5773 C5768 1.425 . S
C5773 C5770 1.409 . S
C5773 C5771 1.415 . S
C5774 H5764 0.930 . S
C5774 C5772 1.419 . S
C5774 C5775 1.362 . S
C5775 H5765 0.930 . S
C5775 C5768 1.409 . S
C5775 C5774 1.362 . S
H5776 C5782 0.930 . S
H5777 C5785 0.930 . S
H5778 C5786 0.930 . S
H5779 C5787 0.930 . S
H5780 C5790 0.930 . S
H5781 C5791 0.930 . S
C5782 H5776 0.930 . S
C5782 C5783 1.355 . S
C5782 C5784 1.415 . S
C5783 C5782 1.355 . S
C5783 C5785 1.419 . S
C5784 C5782 1.415 . S
C5784 C5789 1.425 . S
C5784 C5791 1.409 . S
C5785 H5777 0.930 . S
C5785 C5783 1.419 . S
C5785 C5786 1.362 . S
C5786 H5778 0.930 . S
C5786 C5785 1.362 . S
C5786 C5789 1.409 . S
C5787 H5779 0.930 . S
C5787 C5788 1.355 . S
C5787 C5789 1.415 . S
C5788 C5787 1.355 . S
C5788 C5790 1.419 . S
C5789 C5784 1.425 . S
C5789 C5786 1.409 . S
C5789 C5787 1.415 . S
C5790 H5780 0.930 . S
C5790 C5788 1.419 . S
C5790 C5791 1.362 . S
C5791 H5781 0.930 . S
C5791 C5784 1.409 . S
C5791 C5790 1.362 . S
H5792 C5798 0.930 . S
H5793 C5801 0.930 . S
H5794 C5802 0.930 . S
H5795 C5803 0.930 . S
H5796 C5806 0.930 . S
H5797 C5807 0.930 . S
C5798 H5792 0.930 . S
C5798 C5799 1.355 . S
C5798 C5800 1.415 . S
C5799 C5798 1.355 . S
C5799 C5801 1.419 . S
C5800 C5798 1.415 . S
C5800 C5805 1.425 . S
C5800 C5807 1.409 . S
C5801 H5793 0.930 . S
C5801 C5799 1.419 . S
C5801 C5802 1.362 . S
C5802 H5794 0.930 . S
C5802 C5801 1.362 . S
C5802 C5805 1.409 . S
C5803 H5795 0.930 . S
C5803 C5804 1.355 . S
C5803 C5805 1.415 . S
C5804 C5803 1.355 . S
C5804 C5806 1.419 . S
C5805 C5800 1.425 . S
C5805 C5802 1.409 . S
C5805 C5803 1.415 . S
C5806 H5796 0.930 . S
C5806 C5804 1.419 . S
C5806 C5807 1.362 . S
C5807 H5797 0.930 . S
C5807 C5800 1.409 . S
C5807 C5806 1.362 . S
H5808 C5814 0.930 . S
H5809 C5817 0.930 . S
H5810 C5818 0.930 . S
H5811 C5819 0.930 . S
H5812 C5822 0.930 . S
H5813 C5823 0.930 . S
C5814 H5808 0.930 . S
C5814 C5815 1.355 . S
C5814 C5816 1.415 . S
C5815 C5814 1.355 . S
C5815 C5817 1.419 . S
C5816 C5814 1.415 . S
C5816 C5821 1.425 . S
C5816 C5823 1.409 . S
C5817 H5809 0.930 . S
C5817 C5815 1.419 . S
C5817 C5818 1.362 . S
C5818 H5810 0.930 . S
C5818 C5817 1.362 . S
C5818 C5821 1.409 . S
C5819 H5811 0.930 . S
C5819 C5820 1.355 . S
C5819 C5821 1.415 . S
C5820 C5819 1.355 . S
C5820 C5822 1.419 . S
C5821 C5816 1.425 . S
C5821 C5818 1.409 . S
C5821 C5819 1.415 . S
C5822 H5812 0.930 . S
C5822 C5820 1.419 . S
C5822 C5823 1.362 . S
C5823 H5813 0.930 . S
C5823 C5816 1.409 . S
C5823 C5822 1.362 . S
H5824 C5830 0.930 . S
H5825 C5833 0.930 . S
H5826 C5834 0.930 . S
H5827 C5835 0.930 . S
H5828 C5838 0.930 . S
H5829 C5839 0.930 . S
C5830 H5824 0.930 . S
C5830 C5831 1.355 . S
C5830 C5832 1.415 . S
C5831 C5830 1.355 . S
C5831 C5833 1.419 . S
C5832 C5830 1.415 . S
C5832 C5837 1.425 . S
C5832 C5839 1.409 . S
C5833 H5825 0.930 . S
C5833 C5831 1.419 . S
C5833 C5834 1.362 . S
C5834 H5826 0.930 . S
C5834 C5833 1.362 . S
C5834 C5837 1.409 . S
C5835 H5827 0.930 . S
C5835 C5836 1.355 . S
C5835 C5837 1.415 . S
C5836 C5835 1.355 . S
C5836 C5838 1.419 . S
C5837 C5832 1.425 . S
C5837 C5834 1.409 . S
C5837 C5835 1.415 . S
C5838 H5828 0.930 . S
C5838 C5836 1.419 . S
C5838 C5839 1.362 . S
C5839 H5829 0.930 . S
C5839 C5832 1.409 . S
C5839 C5838 1.362 . S
H5840 C5846 0.930 . S
H5841 C5849 0.930 . S
H5842 C5850 0.930 . S
H5843 C5851 0.930 . S
H5844 C5854 0.930 . S
H5845 C5855 0.930 . S
C5846 H5840 0.930 . S
C5846 C5847 1.355 . S
C5846 C5848 1.415 . S
C5847 C5846 1.355 . S
C5847 C5849 1.419 . S
C5848 C5846 1.415 . S
C5848 C5853 1.425 . S
C5848 C5855 1.409 . S
C5849 H5841 0.930 . S
C5849 C5847 1.419 . S
C5849 C5850 1.362 . S
C5850 H5842 0.930 . S
C5850 C5849 1.362 . S
C5850 C5853 1.409 . S
C5851 H5843 0.930 . S
C5851 C5852 1.355 . S
C5851 C5853 1.415 . S
C5852 C5851 1.355 . S
C5852 C5854 1.419 . S
C5853 C5848 1.425 . S
C5853 C5850 1.409 . S
C5853 C5851 1.415 . S
C5854 H5844 0.930 . S
C5854 C5852 1.419 . S
C5854 C5855 1.362 . S
C5855 H5845 0.930 . S
C5855 C5848 1.409 . S
C5855 C5854 1.362 . S
H5856 C5862 0.930 . S
H5857 C5865 0.930 . S
H5858 C5866 0.930 . S
H5859 C5867 0.930 . S
H5860 C5870 0.930 . S
H5861 C5871 0.930 . S
C5862 H5856 0.930 . S
C5862 C5863 1.355 . S
C5862 C5864 1.415 . S
C5863 C5862 1.355 . S
C5863 C5865 1.419 . S
C5864 C5862 1.415 . S
C5864 C5869 1.425 . S
C5864 C5871 1.409 . S
C5865 H5857 0.930 . S
C5865 C5863 1.419 . S
C5865 C5866 1.362 . S
C5866 H5858 0.930 . S
C5866 C5865 1.362 . S
C5866 C5869 1.409 . S
C5867 H5859 0.930 . S
C5867 C5868 1.355 . S
C5867 C5869 1.415 . S
C5868 C5867 1.355 . S
C5868 C5870 1.419 . S
C5869 C5864 1.425 . S
C5869 C5866 1.409 . S
C5869 C5867 1.415 . S
C5870 H5860 0.930 . S
C5870 C5868 1.419 . S
C5870 C5871 1.362 . S
C5871 H5861 0.930 . S
C5871 C5864 1.409 . S
C5871 C5870 1.362 . S
H5872 C5878 0.930 . S
H5873 C5881 0.930 . S
H5874 C5882 0.930 . S
H5875 C5883 0.930 . S
H5876 C5886 0.930 . S
H5877 C5887 0.930 . S
C5878 H5872 0.930 . S
C5878 C5879 1.355 . S
C5878 C5880 1.415 . S
C5879 C5878 1.355 . S
C5879 C5881 1.419 . S
C5880 C5878 1.415 . S
C5880 C5885 1.425 . S
C5880 C5887 1.409 . S
C5881 H5873 0.930 . S
C5881 C5879 1.419 . S
C5881 C5882 1.362 . S
C5882 H5874 0.930 . S
C5882 C5881 1.362 . S
C5882 C5885 1.409 . S
C5883 H5875 0.930 . S
C5883 C5884 1.355 . S
C5883 C5885 1.415 . S
C5884 C5883 1.355 . S
C5884 C5886 1.419 . S
C5885 C5880 1.425 . S
C5885 C5882 1.409 . S
C5885 C5883 1.415 . S
C5886 H5876 0.930 . S
C5886 C5884 1.419 . S
C5886 C5887 1.362 . S
C5887 H5877 0.930 . S
C5887 C5880 1.409 . S
C5887 C5886 1.362 . S
H5888 C5894 0.930 . S
H5889 C5897 0.930 . S
H5890 C5898 0.930 . S
H5891 C5899 0.930 . S
H5892 C5902 0.930 . S
H5893 C5903 0.930 . S
C5894 H5888 0.930 . S
C5894 C5895 1.355 . S
C5894 C5896 1.415 . S
C5895 C5894 1.355 . S
C5895 C5897 1.419 . S
C5896 C5894 1.415 . S
C5896 C5901 1.425 . S
C5896 C5903 1.409 . S
C5897 H5889 0.930 . S
C5897 C5895 1.419 . S
C5897 C5898 1.362 . S
C5898 H5890 0.930 . S
C5898 C5897 1.362 . S
C5898 C5901 1.409 . S
C5899 H5891 0.930 . S
C5899 C5900 1.355 . S
C5899 C5901 1.415 . S
C5900 C5899 1.355 . S
C5900 C5902 1.419 . S
C5901 C5896 1.425 . S
C5901 C5898 1.409 . S
C5901 C5899 1.415 . S
C5902 H5892 0.930 . S
C5902 C5900 1.419 . S
C5902 C5903 1.362 . S
C5903 H5893 0.930 . S
C5903 C5896 1.409 . S
C5903 C5902 1.362 . S
H5904 C5910 0.930 . S
H5905 C5913 0.930 . S
H5906 C5914 0.930 . S
H5907 C5915 0.930 . S
H5908 C5918 0.930 . S
H5909 C5919 0.930 . S
C5910 H5904 0.930 . S
C5910 C5911 1.355 . S
C5910 C5912 1.415 . S
C5911 C5910 1.355 . S
C5911 C5913 1.419 . S
C5912 C5910 1.415 . S
C5912 C5917 1.425 . S
C5912 C5919 1.409 . S
C5913 H5905 0.930 . S
C5913 C5911 1.419 . S
C5913 C5914 1.362 . S
C5914 H5906 0.930 . S
C5914 C5913 1.362 . S
C5914 C5917 1.409 . S
C5915 H5907 0.930 . S
C5915 C5916 1.355 . S
C5915 C5917 1.415 . S
C5916 C5915 1.355 . S
C5916 C5918 1.419 . S
C5917 C5912 1.425 . S
C5917 C5914 1.409 . S
C5917 C5915 1.415 . S
C5918 H5908 0.930 . S
C5918 C5916 1.419 . S
C5918 C5919 1.362 . S
C5919 H5909 0.930 . S
C5919 C5912 1.409 . S
C5919 C5918 1.362 . S
H5920 C5926 0.930 . S
H5921 C5929 0.930 . S
H5922 C5930 0.930 . S
H5923 C5931 0.930 . S
H5924 C5934 0.930 . S
H5925 C5935 0.930 . S
C5926 H5920 0.930 . S
C5926 C5927 1.355 . S
C5926 C5928 1.415 . S
C5927 C5926 1.355 . S
C5927 C5929 1.419 . S
C5928 C5926 1.415 . S
C5928 C5933 1.425 . S
C5928 C5935 1.409 . S
C5929 H5921 0.930 . S
C5929 C5927 1.419 . S
C5929 C5930 1.362 . S
C5930 H5922 0.930 . S
C5930 C5929 1.362 . S
C5930 C5933 1.409 . S
C5931 H5923 0.930 . S
C5931 C5932 1.355 . S
C5931 C5933 1.415 . S
C5932 C5931 1.355 . S
C5932 C5934 1.419 . S
C5933 C5928 1.425 . S
C5933 C5930 1.409 . S
C5933 C5931 1.415 . S
C5934 H5924 0.930 . S
C5934 C5932 1.419 . S
C5934 C5935 1.362 . S
C5935 H5925 0.930 . S
C5935 C5928 1.409 . S
C5935 C5934 1.362 . S
H5936 C5942 0.930 . S
H5937 C5945 0.930 . S
H5938 C5946 0.930 . S
H5939 C5947 0.930 . S
H5940 C5950 0.930 . S
H5941 C5951 0.930 . S
C5942 H5936 0.930 . S
C5942 C5943 1.355 . S
C5942 C5944 1.415 . S
C5943 C5942 1.355 . S
C5943 C5945 1.419 . S
C5944 C5942 1.415 . S
C5944 C5949 1.425 . S
C5944 C5951 1.409 . S
C5945 H5937 0.930 . S
C5945 C5943 1.419 . S
C5945 C5946 1.362 . S
C5946 H5938 0.930 . S
C5946 C5945 1.362 . S
C5946 C5949 1.409 . S
C5947 H5939 0.930 . S
C5947 C5948 1.355 . S
C5947 C5949 1.415 . S
C5948 C5947 1.355 . S
C5948 C5950 1.419 . S
C5949 C5944 1.425 . S
C5949 C5946 1.409 . S
C5949 C5947 1.415 . S
C5950 H5940 0.930 . S
C5950 C5948 1.419 . S
C5950 C5951 1.362 . S
C5951 H5941 0.930 . S
C5951 C5944 1.409 . S
C5951 C5950 1.362 . S
H5952 C5958 0.930 . S
H5953 C5961 0.930 . S
H5954 C5962 0.930 . S
H5955 C5963 0.930 . S
H5956 C5966 0.930 . S
H5957 C5967 0.930 . S
C5958 H5952 0.930 . S
C5958 C5959 1.355 . S
C5958 C5960 1.415 . S
C5959 C5958 1.355 . S
C5959 C5961 1.419 . S
C5960 C5958 1.415 . S
C5960 C5965 1.425 . S
C5960 C5967 1.409 . S
C5961 H5953 0.930 . S
C5961 C5959 1.419 . S
C5961 C5962 1.362 . S
C5962 H5954 0.930 . S
C5962 C5961 1.362 . S
C5962 C5965 1.409 . S
C5963 H5955 0.930 . S
C5963 C5964 1.355 . S
C5963 C5965 1.415 . S
C5964 C5963 1.355 . S
C5964 C5966 1.419 . S
C5965 C5960 1.425 . S
C5965 C5962 1.409 . S
C5965 C5963 1.415 . S
C5966 H5956 0.930 . S
C5966 C5964 1.419 . S
C5966 C5967 1.362 . S
C5967 H5957 0.930 . S
C5967 C5960 1.409 . S
C5967 C5966 1.362 . S
H5968 C5974 0.930 . S
H5969 C5977 0.930 . S
H5970 C5978 0.930 . S
H5971 C5979 0.930 . S
H5972 C5982 0.930 . S
H5973 C5983 0.930 . S
C5974 H5968 0.930 . S
C5974 C5975 1.355 . S
C5974 C5976 1.415 . S
C5975 C5974 1.355 . S
C5975 C5977 1.419 . S
C5976 C5974 1.415 . S
C5976 C5981 1.425 . S
C5976 C5983 1.409 . S
C5977 H5969 0.930 . S
C5977 C5975 1.419 . S
C5977 C5978 1.362 . S
C5978 H5970 0.930 . S
C5978 C5977 1.362 . S
C5978 C5981 1.409 . S
C5979 H5971 0.930 . S
C5979 C5980 1.355 . S
C5979 C5981 1.415 . S
C5980 C5979 1.355 . S
C5980 C5982 1.419 . S
C5981 C5976 1.425 . S
C5981 C5978 1.409 . S
C5981 C5979 1.415 . S
C5982 H5972 0.930 . S
C5982 C5980 1.419 . S
C5982 C5983 1.362 . S
C5983 H5973 0.930 . S
C5983 C5976 1.409 . S
C5983 C5982 1.362 . S
H5984 C5990 0.930 . S
H5985 C5993 0.930 . S
H5986 C5994 0.930 . S
H5987 C5995 0.930 . S
H5988 C5998 0.930 . S
H5989 C5999 0.930 . S
C5990 H5984 0.930 . S
C5990 C5991 1.355 . S
C5990 C5992 1.415 . S
C5991 C5990 1.355 . S
C5991 C5993 1.419 . S
C5992 C5990 1.415 . S
C5992 C5997 1.425 . S
C5992 C5999 1.409 . S
C5993 H5985 0.930 . S
C5993 C5991 1.419 . S
C5993 C5994 1.362 . S
C5994 H5986 0.930 . S
C5994 C5993 1.362 . S
C5994 C5997 1.409 . S
C5995 H5987 0.930 . S
C5995 C5996 1.355 . S
C5995 C5997 1.415 . S
C5996 C5995 1.355 . S
C5996 C5998 1.419 . S
C5997 C5992 1.425 . S
C5997 C5994 1.409 . S
C5997 C5995 1.415 . S
C5998 H5988 0.930 . S
C5998 C5996 1.419 . S
C5998 C5999 1.362 . S
C5999 H5989 0.930 . S
C5999 C5992 1.409 . S
C5999 C5998 1.362 . S
H6000 C6006 0.930 . S
H6001 C6009 0.930 . S
H6002 C6010 0.930 . S
H6003 C6011 0.930 . S
H6004 C6014 0.930 . S
H6005 C6015 0.930 . S
C6006 H6000 0.930 . S
C6006 C6007 1.355 . S
C6006 C6008 1.415 . S
C6007 C6006 1.355 . S
C6007 C6009 1.419 . S
C6008 C6006 1.415 . S
C6008 C6013 1.425 . S
C6008 C6015 1.409 . S
C6009 H6001 0.930 . S
C6009 C6007 1.419 . S
C6009 C6010 1.362 . S
C6010 H6002 0.930 . S
C6010 C6009 1.362 . S
C6010 C6013 1.409 . S
C6011 H6003 0.930 . S
C6011 C6012 1.355 . S
C6011 C6013 1.415 . S
C6012 C6011 1.355 . S
C6012 C6014 1.419 . S
C6013 C6008 1.425 . S
C6013 C6010 1.409 . S
C6013 C6011 1.415 . S
C6014 H6004 0.930 . S
C6014 C6012 1.419 . S
C6014 C6015 1.362 . S
C6015 H6005 0.930 . S
C6015 C6008 1.409 . S
C6015 C6014 1.362 . S
H6016 C6022 0.930 . S
H6017 C6025 0.930 . S
H6018 C6026 0.930 . S
H6019 C6027 0.930 . S
H6020 C6030 0.930 . S
H6021 C6031 0.930 . S
C6022 H6016 0.930 . S
C6022 C6023 1.355 . S
C6022 C6024 1.415 . S
C6023 C6022 1.355 . S
C6023 C6025 1.419 . S
C6024 C6022 1.415 . S
C6024 C6029 1.425 . S
C6024 C6031 1.409 . S
C6025 H6017 0.930 . S
C6025 C6023 1.419 . S
C6025 C6026 1.362 . S
C6026 H6018 0.930 . S
C6026 C6025 1.362 . S
C6026 C6029 1.409 . S
C6027 H6019 0.930 . S
C6027 C6028 1.355 . S
C6027 C6029 1.415 . S
C6028 C6027 1.355 . S
C6028 C6030 1.419 . S
C6029 C6024 1.425 . S
C6029 C6026 1.409 . S
C6029 C6027 1.415 . S
C6030 H6020 0.930 . S
C6030 C6028 1.419 . S
C6030 C6031 1.362 . S
C6031 H6021 0.930 . S
C6031 C6024 1.409 . S
C6031 C6030 1.362 . S
H6032 C6038 0.930 . S
H6033 C6041 0.930 . S
H6034 C6042 0.930 . S
H6035 C6043 0.930 . S
H6036 C6046 0.930 . S
H6037 C6047 0.930 . S
C6038 H6032 0.930 . S
C6038 C6039 1.355 . S
C6038 C6040 1.415 . S
C6039 C6038 1.355 . S
C6039 C6041 1.419 . S
C6040 C6038 1.415 . S
C6040 C6045 1.425 . S
C6040 C6047 1.409 . S
C6041 H6033 0.930 . S
C6041 C6039 1.419 . S
C6041 C6042 1.362 . S
C6042 H6034 0.930 . S
C6042 C6041 1.362 . S
C6042 C6045 1.409 . S
C6043 H6035 0.930 . S
C6043 C6044 1.355 . S
C6043 C6045 1.415 . S
C6044 C6043 1.355 . S
C6044 C6046 1.419 . S
C6045 C6040 1.425 . S
C6045 C6042 1.409 . S
C6045 C6043 1.415 . S
C6046 H6036 0.930 . S
C6046 C6044 1.419 . S
C6046 C6047 1.362 . S
C6047 H6037 0.930 . S
C6047 C6040 1.409 . S
C6047 C6046 1.362 . S
H6048 C6054 0.930 . S
H6049 C6057 0.930 . S
H6050 C6058 0.930 . S
H6051 C6059 0.930 . S
H6052 C6062 0.930 . S
H6053 C6063 0.930 . S
C6054 H6048 0.930 . S
C6054 C6055 1.355 . S
C6054 C6056 1.415 . S
C6055 C6054 1.355 . S
C6055 C6057 1.419 . S
C6056 C6054 1.415 . S
C6056 C6061 1.425 . S
C6056 C6063 1.409 . S
C6057 H6049 0.930 . S
C6057 C6055 1.419 . S
C6057 C6058 1.362 . S
C6058 H6050 0.930 . S
C6058 C6057 1.362 . S
C6058 C6061 1.409 . S
C6059 H6051 0.930 . S
C6059 C6060 1.355 . S
C6059 C6061 1.415 . S
C6060 C6059 1.355 . S
C6060 C6062 1.419 . S
C6061 C6056 1.425 . S
C6061 C6058 1.409 . S
C6061 C6059 1.415 . S
C6062 H6052 0.930 . S
C6062 C6060 1.419 . S
C6062 C6063 1.362 . S
C6063 H6053 0.930 . S
C6063 C6056 1.409 . S
C6063 C6062 1.362 . S
H6064 C6070 0.930 . S
H6065 C6073 0.930 . S
H6066 C6074 0.930 . S
H6067 C6075 0.930 . S
H6068 C6078 0.930 . S
H6069 C6079 0.930 . S
C6070 H6064 0.930 . S
C6070 C6071 1.355 . S
C6070 C6072 1.415 . S
C6071 C6070 1.355 . S
C6071 C6073 1.419 . S
C6072 C6070 1.415 . S
C6072 C6077 1.425 . S
C6072 C6079 1.409 . S
C6073 H6065 0.930 . S
C6073 C6071 1.419 . S
C6073 C6074 1.362 . S
C6074 H6066 0.930 . S
C6074 C6073 1.362 . S
C6074 C6077 1.409 . S
C6075 H6067 0.930 . S
C6075 C6076 1.355 . S
C6075 C6077 1.415 . S
C6076 C6075 1.355 . S
C6076 C6078 1.419 . S
C6077 C6072 1.425 . S
C6077 C6074 1.409 . S
C6077 C6075 1.415 . S
C6078 H6068 0.930 . S
C6078 C6076 1.419 . S
C6078 C6079 1.362 . S
C6079 H6069 0.930 . S
C6079 C6072 1.409 . S
C6079 C6078 1.362 . S
H6080 C6086 0.930 . S
H6081 C6089 0.930 . S
H6082 C6090 0.930 . S
H6083 C6091 0.930 . S
H6084 C6094 0.930 . S
H6085 C6095 0.930 . S
C6086 H6080 0.930 . S
C6086 C6087 1.355 . S
C6086 C6088 1.415 . S
C6087 C6086 1.355 . S
C6087 C6089 1.419 . S
C6088 C6086 1.415 . S
C6088 C6093 1.425 . S
C6088 C6095 1.409 . S
C6089 H6081 0.930 . S
C6089 C6087 1.419 . S
C6089 C6090 1.362 . S
C6090 H6082 0.930 . S
C6090 C6089 1.362 . S
C6090 C6093 1.409 . S
C6091 H6083 0.930 . S
C6091 C6092 1.355 . S
C6091 C6093 1.415 . S
C6092 C6091 1.355 . S
C6092 C6094 1.419 . S
C6093 C6088 1.425 . S
C6093 C6090 1.409 . S
C6093 C6091 1.415 . S
C6094 H6084 0.930 . S
C6094 C6092 1.419 . S
C6094 C6095 1.362 . S
C6095 H6085 0.930 . S
C6095 C6088 1.409 . S
C6095 C6094 1.362 . S
H6096 C6102 0.930 . S
H6097 C6105 0.930 . S
H6098 C6106 0.930 . S
H6099 C6107 0.930 . S
H6100 C6110 0.930 . S
H6101 C6111 0.930 . S
C6102 H6096 0.930 . S
C6102 C6103 1.355 . S
C6102 C6104 1.415 . S
C6103 C6102 1.355 . S
C6103 C6105 1.419 . S
C6104 C6102 1.415 . S
C6104 C6109 1.425 . S
C6104 C6111 1.409 . S
C6105 H6097 0.930 . S
C6105 C6103 1.419 . S
C6105 C6106 1.362 . S
C6106 H6098 0.930 . S
C6106 C6105 1.362 . S
C6106 C6109 1.409 . S
C6107 H6099 0.930 . S
C6107 C6108 1.355 . S
C6107 C6109 1.415 . S
C6108 C6107 1.355 . S
C6108 C6110 1.419 . S
C6109 C6104 1.425 . S
C6109 C6106 1.409 . S
C6109 C6107 1.415 . S
C6110 H6100 0.930 . S
C6110 C6108 1.419 . S
C6110 C6111 1.362 . S
C6111 H6101 0.930 . S
C6111 C6104 1.409 . S
C6111 C6110 1.362 . S
H6112 C6118 0.930 . S
H6113 C6121 0.930 . S
H6114 C6122 0.930 . S
H6115 C6123 0.930 . S
H6116 C6126 0.930 . S
H6117 C6127 0.930 . S
C6118 H6112 0.930 . S
C6118 C6119 1.355 . S
C6118 C6120 1.415 . S
C6119 C6118 1.355 . S
C6119 C6121 1.419 . S
C6120 C6118 1.415 . S
C6120 C6125 1.425 . S
C6120 C6127 1.409 . S
C6121 H6113 0.930 . S
C6121 C6119 1.419 . S
C6121 C6122 1.362 . S
C6122 H6114 0.930 . S
C6122 C6121 1.362 . S
C6122 C6125 1.409 . S
C6123 H6115 0.930 . S
C6123 C6124 1.355 . S
C6123 C6125 1.415 . S
C6124 C6123 1.355 . S
C6124 C6126 1.419 . S
C6125 C6120 1.425 . S
C6125 C6122 1.409 . S
C6125 C6123 1.415 . S
C6126 H6116 0.930 . S
C6126 C6124 1.419 . S
C6126 C6127 1.362 . S
C6127 H6117 0.930 . S
C6127 C6120 1.409 . S
C6127 C6126 1.362 . S
H6128 C6134 0.930 . S
H6129 C6137 0.930 . S
H6130 C6138 0.930 . S
H6131 C6139 0.930 . S
H6132 C6142 0.930 . S
H6133 C6143 0.930 . S
C6134 H6128 0.930 . S
C6134 C6135 1.355 . S
C6134 C6136 1.415 . S
C6135 C6134 1.355 . S
C6135 C6137 1.419 . S
C6136 C6134 1.415 . S
C6136 C6141 1.425 . S
C6136 C6143 1.409 . S
C6137 H6129 0.930 . S
C6137 C6135 1.419 . S
C6137 C6138 1.362 . S
C6138 H6130 0.930 . S
C6138 C6137 1.362 . S
C6138 C6141 1.409 . S
C6139 H6131 0.930 . S
C6139 C6140 1.355 . S
C6139 C6141 1.415 . S
C6140 C6139 1.355 . S
C6140 C6142 1.419 . S
C6141 C6136 1.425 . S
C6141 C6138 1.409 . S
C6141 C6139 1.415 . S
C6142 H6132 0.930 . S
C6142 C6140 1.419 . S
C6142 C6143 1.362 . S
C6143 H6133 0.930 . S
C6143 C6136 1.409 . S
C6143 C6142 1.362 . S
H6144 C6150 0.930 . S
H6145 C6153 0.930 . S
H6146 C6154 0.930 . S
H6147 C6155 0.930 . S
H6148 C6158 0.930 . S
H6149 C6159 0.930 . S
C6150 H6144 0.930 . S
C6150 C6151 1.355 . S
C6150 C6152 1.415 . S
C6151 C6150 1.355 . S
C6151 C6153 1.419 . S
C6152 C6150 1.415 . S
C6152 C6157 1.425 . S
C6152 C6159 1.409 . S
C6153 H6145 0.930 . S
C6153 C6151 1.419 . S
C6153 C6154 1.362 . S
C6154 H6146 0.930 . S
C6154 C6153 1.362 . S
C6154 C6157 1.409 . S
C6155 H6147 0.930 . S
C6155 C6156 1.355 . S
C6155 C6157 1.415 . S
C6156 C6155 1.355 . S
C6156 C6158 1.419 . S
C6157 C6152 1.425 . S
C6157 C6154 1.409 . S
C6157 C6155 1.415 . S
C6158 H6148 0.930 . S
C6158 C6156 1.419 . S
C6158 C6159 1.362 . S
C6159 H6149 0.930 . S
C6159 C6152 1.409 . S
C6159 C6158 1.362 . S
H6160 C6166 0.930 . S
H6161 C6169 0.930 . S
H6162 C6170 0.930 . S
H6163 C6171 0.930 . S
H6164 C6174 0.930 . S
H6165 C6175 0.930 . S
C6166 H6160 0.930 . S
C6166 C6167 1.355 . S
C6166 C6168 1.415 . S
C6167 C6166 1.355 . S
C6167 C6169 1.419 . S
C6168 C6166 1.415 . S
C6168 C6173 1.425 . S
C6168 C6175 1.409 . S
C6169 H6161 0.930 . S
C6169 C6167 1.419 . S
C6169 C6170 1.362 . S
C6170 H6162 0.930 . S
C6170 C6169 1.362 . S
C6170 C6173 1.409 . S
C6171 H6163 0.930 . S
C6171 C6172 1.355 . S
C6171 C6173 1.415 . S
C6172 C6171 1.355 . S
C6172 C6174 1.419 . S
C6173 C6168 1.425 . S
C6173 C6170 1.409 . S
C6173 C6171 1.415 . S
C6174 H6164 0.930 . S
C6174 C6172 1.419 . S
C6174 C6175 1.362 . S
C6175 H6165 0.930 . S
C6175 C6168 1.409 . S
C6175 C6174 1.362 . S
H6176 C6182 0.930 . S
H6177 C6185 0.930 . S
H6178 C6186 0.930 . S
H6179 C6187 0.930 . S
H6180 C6190 0.930 . S
H6181 C6191 0.930 . S
C6182 H6176 0.930 . S
C6182 C6183 1.355 . S
C6182 C6184 1.415 . S
C6183 C6182 1.355 . S
C6183 C6185 1.419 . S
C6184 C6182 1.415 . S
C6184 C6189 1.425 . S
C6184 C6191 1.409 . S
C6185 H6177 0.930 . S
C6185 C6183 1.419 . S
C6185 C6186 1.362 . S
C6186 H6178 0.930 . S
C6186 C6185 1.362 . S
C6186 C6189 1.409 . S
C6187 H6179 0.930 . S
C6187 C6188 1.355 . S
C6187 C6189 1.415 . S
C6188 C6187 1.355 . S
C6188 C6190 1.419 . S
C6189 C6184 1.425 . S
C6189 C6186 1.409 . S
C6189 C6187 1.415 . S
C6190 H6180 0.930 . S
C6190 C6188 1.419 . S
C6190 C6191 1.362 . S
C6191 H6181 0.930 . S
C6191 C6184 1.409 . S
C6191 C6190 1.362 . S
H6192 C6198 0.930 . S
H6193 C6201 0.930 . S
H6194 C6202 0.930 . S
H6195 C6203 0.930 . S
H6196 C6206 0.930 . S
H6197 C6207 0.930 . S
C6198 H6192 0.930 . S
C6198 C6199 1.355 . S
C6198 C6200 1.415 . S
C6199 C6198 1.355 . S
C6199 C6201 1.419 . S
C6200 C6198 1.415 . S
C6200 C6205 1.425 . S
C6200 C6207 1.409 . S
C6201 H6193 0.930 . S
C6201 C6199 1.419 . S
C6201 C6202 1.362 . S
C6202 H6194 0.930 . S
C6202 C6201 1.362 . S
C6202 C6205 1.409 . S
C6203 H6195 0.930 . S
C6203 C6204 1.355 . S
C6203 C6205 1.415 . S
C6204 C6203 1.355 . S
C6204 C6206 1.419 . S
C6205 C6200 1.425 . S
C6205 C6202 1.409 . S
C6205 C6203 1.415 . S
C6206 H6196 0.930 . S
C6206 C6204 1.419 . S
C6206 C6207 1.362 . S
C6207 H6197 0.930 . S
C6207 C6200 1.409 . S
C6207 C6206 1.362 . S
H6208 C6214 0.930 . S
H6209 C6217 0.930 . S
H6210 C6218 0.930 . S
H6211 C6219 0.930 . S
H6212 C6222 0.930 . S
H6213 C6223 0.930 . S
C6214 H6208 0.930 . S
C6214 C6215 1.355 . S
C6214 C6216 1.415 . S
C6215 C6214 1.355 . S
C6215 C6217 1.419 . S
C6216 C6214 1.415 . S
C6216 C6221 1.425 . S
C6216 C6223 1.409 . S
C6217 H6209 0.930 . S
C6217 C6215 1.419 . S
C6217 C6218 1.362 . S
C6218 H6210 0.930 . S
C6218 C6217 1.362 . S
C6218 C6221 1.409 . S
C6219 H6211 0.930 . S
C6219 C6220 1.355 . S
C6219 C6221 1.415 . S
C6220 C6219 1.355 . S
C6220 C6222 1.419 . S
C6221 C6216 1.425 . S
C6221 C6218 1.409 . S
C6221 C6219 1.415 . S
C6222 H6212 0.930 . S
C6222 C6220 1.419 . S
C6222 C6223 1.362 . S
C6223 H6213 0.930 . S
C6223 C6216 1.409 . S
C6223 C6222 1.362 . S
H6224 C6230 0.930 . S
H6225 C6233 0.930 . S
H6226 C6234 0.930 . S
H6227 C6235 0.930 . S
H6228 C6238 0.930 . S
H6229 C6239 0.930 . S
C6230 H6224 0.930 . S
C6230 C6231 1.355 . S
C6230 C6232 1.415 . S
C6231 C6230 1.355 . S
C6231 C6233 1.419 . S
C6232 C6230 1.415 . S
C6232 C6237 1.425 . S
C6232 C6239 1.409 . S
C6233 H6225 0.930 . S
C6233 C6231 1.419 . S
C6233 C6234 1.362 . S
C6234 H6226 0.930 . S
C6234 C6233 1.362 . S
C6234 C6237 1.409 . S
C6235 H6227 0.930 . S
C6235 C6236 1.355 . S
C6235 C6237 1.415 . S
C6236 C6235 1.355 . S
C6236 C6238 1.419 . S
C6237 C6232 1.425 . S
C6237 C6234 1.409 . S
C6237 C6235 1.415 . S
C6238 H6228 0.930 . S
C6238 C6236 1.419 . S
C6238 C6239 1.362 . S
C6239 H6229 0.930 . S
C6239 C6232 1.409 . S
C6239 C6238 1.362 . S
H6240 C6246 0.930 . S
H6241 C6249 0.930 . S
H6242 C6250 0.930 . S
H6243 C6251 0.930 . S
H6244 C6254 0.930 . S
H6245 C6255 0.930 . S
C6246 H6240 0.930 . S
C6246 C6247 1.355 . S
C6246 C6248 1.415 . S
C6247 C6246 1.355 . S
C6247 C6249 1.419 . S
C6248 C6246 1.415 . S
C6248 C6253 1.425 . S
C6248 C6255 1.409 . S
C6249 H6241 0.930 . S
C6249 C6247 1.419 . S
C6249 C6250 1.362 . S
C6250 H6242 0.930 . S
C6250 C6249 1.362 . S
C6250 C6253 1.409 . S
C6251 H6243 0.930 . S
C6251 C6252 1.355 . S
C6251 C6253 1.415 . S
C6252 C6251 1.355 . S
C6252 C6254 1.419 . S
C6253 C6248 1.425 . S
C6253 C6250 1.409 . S
C6253 C6251 1.415 . S
C6254 H6244 0.930 . S
C6254 C6252 1.419 . S
C6254 C6255 1.362 . S
C6255 H6245 0.930 . S
C6255 C6248 1.409 . S
C6255 C6254 1.362 . S
H6256 C6262 0.930 . S
H6257 C6265 0.930 . S
H6258 C6266 0.930 . S
H6259 C6267 0.930 . S
H6260 C6270 0.930 . S
H6261 C6271 0.930 . S
C6262 H6256 0.930 . S
C6262 C6263 1.355 . S
C6262 C6264 1.415 . S
C6263 C6262 1.355 . S
C6263 C6265 1.419 . S
C6264 C6262 1.415 . S
C6264 C6269 1.425 . S
C6264 C6271 1.409 . S
C6265 H6257 0.930 . S
C6265 C6263 1.419 . S
C6265 C6266 1.362 . S
C6266 H6258 0.930 . S
C6266 C6265 1.362 . S
C6266 C6269 1.409 . S
C6267 H6259 0.930 . S
C6267 C6268 1.355 . S
C6267 C6269 1.415 . S
C6268 C6267 1.355 . S
C6268 C6270 1.419 . S
C6269 C6264 1.425 . S
C6269 C6266 1.409 . S
C6269 C6267 1.415 . S
C6270 H6260 0.930 . S
C6270 C6268 1.419 . S
C6270 C6271 1.362 . S
C6271 H6261 0.930 . S
C6271 C6264 1.409 . S
C6271 C6270 1.362 . S
H6272 C6278 0.930 . S
H6273 C6281 0.930 . S
H6274 C6282 0.930 . S
H6275 C6283 0.930 . S
H6276 C6286 0.930 . S
H6277 C6287 0.930 . S
C6278 H6272 0.930 . S
C6278 C6279 1.355 . S
C6278 C6280 1.415 . S
C6279 C6278 1.355 . S
C6279 C6281 1.419 . S
C6280 C6278 1.415 . S
C6280 C6285 1.425 . S
C6280 C6287 1.409 . S
C6281 H6273 0.930 . S
C6281 C6279 1.419 . S
C6281 C6282 1.362 . S
C6282 H6274 0.930 . S
C6282 C6281 1.362 . S
C6282 C6285 1.409 . S
C6283 H6275 0.930 . S
C6283 C6284 1.355 . S
C6283 C6285 1.415 . S
C6284 C6283 1.355 . S
C6284 C6286 1.419 . S
C6285 C6280 1.425 . S
C6285 C6282 1.409 . S
C6285 C6283 1.415 . S
C6286 H6276 0.930 . S
C6286 C6284 1.419 . S
C6286 C6287 1.362 . S
C6287 H6277 0.930 . S
C6287 C6280 1.409 . S
C6287 C6286 1.362 . S
H6288 C6294 0.930 . S
H6289 C6297 0.930 . S
H6290 C6298 0.930 . S
H6291 C6299 0.930 . S
H6292 C6302 0.930 . S
H6293 C6303 0.930 . S
C6294 H6288 0.930 . S
C6294 C6295 1.355 . S
C6294 C6296 1.415 . S
C6295 C6294 1.355 . S
C6295 C6297 1.419 . S
C6296 C6294 1.415 . S
C6296 C6301 1.425 . S
C6296 C6303 1.409 . S
C6297 H6289 0.930 . S
C6297 C6295 1.419 . S
C6297 C6298 1.362 . S
C6298 H6290 0.930 . S
C6298 C6297 1.362 . S
C6298 C6301 1.409 . S
C6299 H6291 0.930 . S
C6299 C6300 1.355 . S
C6299 C6301 1.415 . S
C6300 C6299 1.355 . S
C6300 C6302 1.419 . S
C6301 C6296 1.425 . S
C6301 C6298 1.409 . S
C6301 C6299 1.415 . S
C6302 H6292 0.930 . S
C6302 C6300 1.419 . S
C6302 C6303 1.362 . S
C6303 H6293 0.930 . S
C6303 C6296 1.409 . S
C6303 C6302 1.362 . S
H6304 C6310 0.930 . S
H6305 C6313 0.930 . S
H6306 C6314 0.930 . S
H6307 C6315 0.930 . S
H6308 C6318 0.930 . S
H6309 C6319 0.930 . S
C6310 H6304 0.930 . S
C6310 C6311 1.355 . S
C6310 C6312 1.415 . S
C6311 C6310 1.355 . S
C6311 C6313 1.419 . S
C6312 C6310 1.415 . S
C6312 C6317 1.425 . S
C6312 C6319 1.409 . S
C6313 H6305 0.930 . S
C6313 C6311 1.419 . S
C6313 C6314 1.362 . S
C6314 H6306 0.930 . S
C6314 C6313 1.362 . S
C6314 C6317 1.409 . S
C6315 H6307 0.930 . S
C6315 C6316 1.355 . S
C6315 C6317 1.415 . S
C6316 C6315 1.355 . S
C6316 C6318 1.419 . S
C6317 C6312 1.425 . S
C6317 C6314 1.409 . S
C6317 C6315 1.415 . S
C6318 H6308 0.930 . S
C6318 C6316 1.419 . S
C6318 C6319 1.362 . S
C6319 H6309 0.930 . S
C6319 C6312 1.409 . S
C6319 C6318 1.362 . S
H6320 C6326 0.930 . S
H6321 C6329 0.930 . S
H6322 C6330 0.930 . S
H6323 C6331 0.930 . S
H6324 C6334 0.930 . S
H6325 C6335 0.930 . S
C6326 H6320 0.930 . S
C6326 C6327 1.355 . S
C6326 C6328 1.415 . S
C6327 C6326 1.355 . S
C6327 C6329 1.419 . S
C6328 C6326 1.415 . S
C6328 C6333 1.425 . S
C6328 C6335 1.409 . S
C6329 H6321 0.930 . S
C6329 C6327 1.419 . S
C6329 C6330 1.362 . S
C6330 H6322 0.930 . S
C6330 C6329 1.362 . S
C6330 C6333 1.409 . S
C6331 H6323 0.930 . S
C6331 C6332 1.355 . S
C6331 C6333 1.415 . S
C6332 C6331 1.355 . S
C6332 C6334 1.419 . S
C6333 C6328 1.425 . S
C6333 C6330 1.409 . S
C6333 C6331 1.415 . S
C6334 H6324 0.930 . S
C6334 C6332 1.419 . S
C6334 C6335 1.362 . S
C6335 H6325 0.930 . S
C6335 C6328 1.409 . S
C6335 C6334 1.362 . S
C4039 C55 3.189 . S
C4044 C391 3.178 . S
C4055 C139 3.185 . S
C4060 C475 3.176 . S
C4071 C559 3.216 . S
C4076 C224 3.339 . S
C4087 C643 3.273 . S
C4092 C307 3.252 . S
C4103 C728 3.404 1_545 S
C4108 C812 3.406 . S
C4119 C811 3.213 . S
C4124 C896 3.345 . S
C4135 C979 3.259 1_545 S
C4140 C895 3.234 . S
C4151 C980 3.384 . S
C4156 C727 3.283 . S
C4167 C1064 3.360 . S
C4172 C308 3.363 1_556 S
C4183 C644 3.290 1_556 S
C4188 C2828 3.289 1_554 S
C4199 C392 3.322 . S
C4204 C1148 3.319 . S
C4215 C476 3.289 . S
C4220 C2912 3.295 . S
C4231 C140 3.338 . S
C4236 C1232 3.343 . S
C4247 C2659 3.211 . S
C4252 C56 3.323 . S
C4263 C2576 3.309 . S
C4268 C223 3.189 . S
C4279 C1663 3.238 . S
C4284 C1327 3.233 . S
C4295 C1411 3.186 . S
C4300 C1747 3.208 . S
C4311 C1496 3.319 . S
C4316 C1831 3.193 . S
C4327 C1579 3.219 . S
C4332 C1915 3.229 . S
C4343 C2083 3.265 1_545 S
C4348 C2000 3.364 1_565 S
C4359 C2084 3.383 . S
C4364 C2168 3.387 . S
C4375 C2251 3.250 1_565 S
C4380 C2167 3.240 . S
C4391 C1999 3.245 . S
C4396 C2252 3.354 . S
C4407 C1580 3.361 . S
C4412 C2336 3.359 1_554 S
C4423 C3596 3.299 . S
C4428 C1916 3.306 . S
C4439 C2420 3.280 . S
C4444 C1664 3.283 . S
C4455 C1748 3.328 . S
C4460 C3680 3.330 . S
C4471 C2504 3.357 . S
C4476 C1412 3.356 . S
C4487 C1328 3.266 . S
C4492 C3427 3.158 . S
C4503 C1495 3.205 . S
C4508 C3344 3.310 . S
C4519 C2743 3.203 . S
C4524 C2575 3.184 . S
C4535 C2827 3.183 . S
C4540 C1063 3.159 . S
C4551 C2660 3.285 1_455 S
C4556 C1147 3.165 . S
C4567 C2911 3.220 . S
C4572 C1231 3.229 . S
C4583 C2996 3.417 . S
C4588 C3080 3.416 . S
C4599 C3079 3.250 . S
C4604 C3164 3.351 . S
C4615 C3247 3.243 . S
C4620 C3163 3.270 . S
C4631 C2995 3.295 . S
C4636 C3248 3.399 . S
C4647 C560 3.277 . S
C4652 C2744 3.279 . S
C4663 C3511 3.203 . S
C4668 C3343 3.180 . S
C4679 C3595 3.161 . S
C4684 C2335 3.167 . S
C4695 C2419 3.217 . S
C4700 C3428 3.338 1_655 S
C4711 C3679 3.229 . S
C4716 C2503 3.253 . S
C4727 C3764 3.408 . S
C4732 C3848 3.404 . S
C4743 C3847 3.215 . S
C4748 C3932 3.348 . S
C4759 C3931 3.258 . S
C4764 C4015 3.235 . S
C4775 C4016 3.371 . S
C4780 C3763 3.242 . S
C4791 C3512 3.320 . S
C4796 C1832 3.319 . S
C4807 C67 0.943 . S
C4812 C1402 0.891 . S
C4823 C3430 0.882 . S
C4828 C151 0.902 . S
C4839 C236 0.835 . S
C4844 C1570 0.883 . S
C4855 C319 0.839 . S
C4860 C3334 0.684 . S
C4871 C403 0.949 . S
C4876 C1906 0.932 . S
C4887 C487 0.939 . S
C4892 C3502 0.840 . S
C4903 C571 0.948 . S
C4908 C1738 0.818 . S
C4919 C2410 0.855 . S
C4924 C655 0.965 . S
C4935 C740 0.882 . S
C4940 C3346 0.965 . S
C4951 C823 0.950 . S
C4956 C1414 0.889 . S
C4967 C907 0.847 . S
C4972 C3418 0.750 . S
C4983 C1582 0.893 . S
C4988 C992 0.833 . S
C4999 C3514 0.928 . S
C5004 C991 0.863 . S
C5015 C1750 0.926 . S
C5020 C739 0.926 . S
C5031 C824 0.875 . S
C5036 C2422 1.013 . S
C5047 C1918 0.847 . S
C5052 C908 0.917 . S
C5063 C3754 0.705 . S
C5068 C1076 0.863 . S
C5079 C2254 0.956 . S
C5084 C656 0.868 . S
C5095 C404 0.843 . S
C5100 C3766 0.965 . S
C5111 C488 0.872 . S
C5116 C2086 1.009 . S
C5127 C1160 0.964 . S
C5132 C2158 0.803 . S
C5143 C3934 0.955 . S
C5148 C1244 0.903 . S
C5159 C68 0.840 . S
C5164 C4006 0.681 . S
C5175 C235 0.973 . S
C5180 C3850 0.897 . S
C5191 C154 0.930 . S
C5196 C1315 0.942 . S
C5207 C1399 0.981 . S
C5212 C2662 0.899 . S
C5223 C1484 0.948 . S
C5228 C322 0.838 . S
C5239 C1567 0.824 . S
C5244 C2590 0.717 . S
C5255 C658 0.937 . S
C5260 C1651 0.962 . S
C5271 C2758 0.903 . S
C5276 C1735 0.962 . S
C5287 C490 0.734 . S
C5292 C1819 0.906 . S
C5303 C1903 0.967 . S
C5308 C1162 0.938 . S
C5319 C1988 0.900 . S
C5324 C2578 0.945 . S
C5335 C142 1.012 . S
C5340 C2072 0.886 . S
C5351 C2155 0.867 . S
C5356 C2674 0.702 . S
C5367 C310 0.844 . S
C5372 C2240 0.885 . S
C5383 C2746 0.944 . S
C5388 C2239 0.971 . S
C5399 C1987 0.961 . S
C5404 C478 0.997 . S
C5415 C2071 1.007 . S
C5420 C1150 0.960 . S
C5431 C646 0.872 . S
C5436 C2156 0.975 . S
C5447 C2324 0.964 . S
C5452 C3010 0.808 . S
C5463 C982 0.946 . S
C5468 C1904 0.810 . S
C5479 C2998 0.980 . S
C5484 C1652 0.926 . S
C5495 C1736 0.952 . S
C5500 C826 0.943 . S
C5511 C2408 0.964 . S
C5516 C910 0.884 . S
C5527 C3166 0.933 . S
C5532 C2492 0.822 . S
C5543 C1316 0.851 . S
C5548 C3262 0.910 . S
C5559 C3082 1.012 . S
C5564 C1483 0.974 . S
C5575 C2326 0.685 . S
C5580 C2587 0.839 . S
C5591 C1075 0.965 . S
C5596 C1498 0.880 . S
C5607 C2494 0.694 . S
C5612 C2672 0.875 . S
C5623 C1243 0.905 . S
C5628 C1318 0.789 . S
C5639 C2755 0.965 . S
C5644 C3670 0.933 . S
C5655 C1654 0.849 . S
C5660 C2839 0.945 . S
C5671 C1159 0.898 . S
C5676 C3586 0.723 . S
C5687 C1822 0.937 . S
C5692 C2923 0.963 . S
C5703 C3008 0.820 . S
C5708 C1330 0.952 . S
C5719 C3091 0.928 . S
C5724 C2338 0.998 . S
C5735 C3175 0.938 . S
C5740 C1486 0.865 . S
C5751 C2506 0.927 . S
C5756 C3260 0.918 . S
C5767 C1666 0.853 . S
C5772 C3259 0.924 . S
C5783 C3007 0.912 . S
C5788 C3598 0.979 . S
C5799 C1834 0.900 . S
C5804 C3092 0.988 . S
C5815 C3176 0.824 . S
C5820 C3682 0.920 . S
C5831 C152 0.842 . S
C5836 C1990 0.708 . S
C5847 C4018 0.837 . S
C5852 C2924 0.927 . S
C5863 C2756 0.869 . S
C5868 C2002 0.985 . S
C5879 C2840 0.856 . S
C5884 C3838 0.727 . S
C5895 C3922 0.844 . S
C5900 C572 0.965 . S
C5911 C2170 0.960 . S
C5916 C320 0.919 . S
C5927 C2588 0.881 . S
C5932 C2242 0.705 . S
C5943 C2074 0.945 . S
C5948 C2671 0.980 . S
C5959 C1078 0.890 . S
C5964 C3331 0.901 . S
C5975 C2323 0.932 . S
C5980 C226 0.989 . S
C5991 C1246 0.800 . S
C5996 C3416 0.799 . S
C6007 C2491 0.937 . S
C6012 C70 0.928 . S
C6023 C3499 0.942 . S
C6028 C2926 0.928 . S
C6039 C406 0.717 . S
C6044 C3583 0.851 . S
C6055 C2842 0.882 . S
C6060 C2407 0.923 . S
C6071 C574 0.787 . S
C6076 C3667 0.936 . S
C6087 C58 0.936 . S
C6092 C3752 0.822 . S
C6103 C3835 0.926 . S
C6108 C1066 0.906 . S
C6119 C238 0.738 . S
C6124 C3919 0.843 . S
C6135 C1234 0.956 . S
C6140 C4004 0.814 . S
C6151 C394 0.966 . S
C6156 C4003 0.894 . S
C6167 C2830 0.908 . S
C6172 C3751 0.987 . S
C6183 C3836 0.873 . S
C6188 C562 0.960 . S
C6199 C2914 0.955 . S
C6204 C3920 0.886 . S
C6215 C742 0.880 . S
C6220 C1400 0.850 . S
C6231 C3668 0.808 . S
C6236 C3250 0.928 . S
C6247 C3500 0.914 . S
C6252 C730 0.986 . S
C6263 C3094 0.750 . S
C6268 C3584 0.844 . S
C6279 C1820 0.855 . S
C6284 C3178 0.702 . S
C6295 C1568 0.892 . S
C6300 C898 0.959 . S
C6311 C994 0.785 . S
C6316 C3332 0.927 . S
C6327 C814 0.903 . S
C6332 C3415 0.987 . S
