# Generated by pormake.
# Topology rho, (4)-cn, num edge types: 1
# Building blocks:
#     Node 0, Type 0, BuildingBlock: QUQFOY_clean_sbu_1, # of connection points: 4
#     Node 1, Type 0, BuildingBlock: QUQFOY_clean_sbu_1, # of connection points: 4
#     Node 2, Type 0, BuildingBlock: QUQFOY_clean_sbu_1, # of connection points: 4
#     Node 3, Type 0, BuildingBlock: QUQFOY_clean_sbu_1, # of connection points: 4
#     Node 4, Type 0, BuildingBlock: QUQFOY_clean_sbu_1, # of connection points: 4
#     Node 5, Type 0, BuildingBlock: QUQFOY_clean_sbu_1, # of connection points: 4
#     Node 6, Type 0, BuildingBlock: QUQFOY_clean_sbu_1, # of connection points: 4
#     Node 7, Type 0, BuildingBlock: QUQFOY_clean_sbu_1, # of connection points: 4
#     Node 8, Type 0, BuildingBlock: QUQFOY_clean_sbu_1, # of connection points: 4
#     Node 9, Type 0, BuildingBlock: QUQFOY_clean_sbu_1, # of connection points: 4
#     Node 10, Type 0, BuildingBlock: QUQFOY_clean_sbu_1, # of connection points: 4
#     Node 11, Type 0, BuildingBlock: QUQFOY_clean_sbu_1, # of connection points: 4
#     Node 12, Type 0, BuildingBlock: QUQFOY_clean_sbu_1, # of connection points: 4
#     Node 13, Type 0, BuildingBlock: QUQFOY_clean_sbu_1, # of connection points: 4
#     Node 14, Type 0, BuildingBlock: QUQFOY_clean_sbu_1, # of connection points: 4
#     Node 15, Type 0, BuildingBlock: QUQFOY_clean_sbu_1, # of connection points: 4
#     Node 16, Type 0, BuildingBlock: QUQFOY_clean_sbu_1, # of connection points: 4
#     Node 17, Type 0, BuildingBlock: QUQFOY_clean_sbu_1, # of connection points: 4
#     Node 18, Type 0, BuildingBlock: QUQFOY_clean_sbu_1, # of connection points: 4
#     Node 19, Type 0, BuildingBlock: QUQFOY_clean_sbu_1, # of connection points: 4
#     Node 20, Type 0, BuildingBlock: QUQFOY_clean_sbu_1, # of connection points: 4
#     Node 21, Type 0, BuildingBlock: QUQFOY_clean_sbu_1, # of connection points: 4
#     Node 22, Type 0, BuildingBlock: QUQFOY_clean_sbu_1, # of connection points: 4
#     Node 23, Type 0, BuildingBlock: QUQFOY_clean_sbu_1, # of connection points: 4
#     Node 24, Type 0, BuildingBlock: QUQFOY_clean_sbu_1, # of connection points: 4
#     Node 25, Type 0, BuildingBlock: QUQFOY_clean_sbu_1, # of connection points: 4
#     Node 26, Type 0, BuildingBlock: QUQFOY_clean_sbu_1, # of connection points: 4
#     Node 27, Type 0, BuildingBlock: QUQFOY_clean_sbu_1, # of connection points: 4
#     Node 28, Type 0, BuildingBlock: QUQFOY_clean_sbu_1, # of connection points: 4
#     Node 29, Type 0, BuildingBlock: QUQFOY_clean_sbu_1, # of connection points: 4
#     Node 30, Type 0, BuildingBlock: QUQFOY_clean_sbu_1, # of connection points: 4
#     Node 31, Type 0, BuildingBlock: QUQFOY_clean_sbu_1, # of connection points: 4
#     Node 32, Type 0, BuildingBlock: QUQFOY_clean_sbu_1, # of connection points: 4
#     Node 33, Type 0, BuildingBlock: QUQFOY_clean_sbu_1, # of connection points: 4
#     Node 34, Type 0, BuildingBlock: QUQFOY_clean_sbu_1, # of connection points: 4
#     Node 35, Type 0, BuildingBlock: QUQFOY_clean_sbu_1, # of connection points: 4
#     Node 36, Type 0, BuildingBlock: QUQFOY_clean_sbu_1, # of connection points: 4
#     Node 37, Type 0, BuildingBlock: QUQFOY_clean_sbu_1, # of connection points: 4
#     Node 38, Type 0, BuildingBlock: QUQFOY_clean_sbu_1, # of connection points: 4
#     Node 39, Type 0, BuildingBlock: QUQFOY_clean_sbu_1, # of connection points: 4
#     Node 40, Type 0, BuildingBlock: QUQFOY_clean_sbu_1, # of connection points: 4
#     Node 41, Type 0, BuildingBlock: QUQFOY_clean_sbu_1, # of connection points: 4
#     Node 42, Type 0, BuildingBlock: QUQFOY_clean_sbu_1, # of connection points: 4
#     Node 43, Type 0, BuildingBlock: QUQFOY_clean_sbu_1, # of connection points: 4
#     Node 44, Type 0, BuildingBlock: QUQFOY_clean_sbu_1, # of connection points: 4
#     Node 45, Type 0, BuildingBlock: QUQFOY_clean_sbu_1, # of connection points: 4
#     Node 46, Type 0, BuildingBlock: QUQFOY_clean_sbu_1, # of connection points: 4
#     Node 47, Type 0, BuildingBlock: QUQFOY_clean_sbu_1, # of connection points: 4
#     Edge 48, Type (0, 0), BuildingBlock: OJICUG_clean_linker_0, # of connection points: 2
#     Edge 49, Type (0, 0), BuildingBlock: OJICUG_clean_linker_0, # of connection points: 2
#     Edge 50, Type (0, 0), BuildingBlock: OJICUG_clean_linker_0, # of connection points: 2
#     Edge 51, Type (0, 0), BuildingBlock: OJICUG_clean_linker_0, # of connection points: 2
#     Edge 52, Type (0, 0), BuildingBlock: OJICUG_clean_linker_0, # of connection points: 2
#     Edge 53, Type (0, 0), BuildingBlock: OJICUG_clean_linker_0, # of connection points: 2
#     Edge 54, Type (0, 0), BuildingBlock: OJICUG_clean_linker_0, # of connection points: 2
#     Edge 55, Type (0, 0), BuildingBlock: OJICUG_clean_linker_0, # of connection points: 2
#     Edge 56, Type (0, 0), BuildingBlock: OJICUG_clean_linker_0, # of connection points: 2
#     Edge 57, Type (0, 0), BuildingBlock: OJICUG_clean_linker_0, # of connection points: 2
#     Edge 58, Type (0, 0), BuildingBlock: OJICUG_clean_linker_0, # of connection points: 2
#     Edge 59, Type (0, 0), BuildingBlock: OJICUG_clean_linker_0, # of connection points: 2
#     Edge 60, Type (0, 0), BuildingBlock: OJICUG_clean_linker_0, # of connection points: 2
#     Edge 61, Type (0, 0), BuildingBlock: OJICUG_clean_linker_0, # of connection points: 2
#     Edge 62, Type (0, 0), BuildingBlock: OJICUG_clean_linker_0, # of connection points: 2
#     Edge 63, Type (0, 0), BuildingBlock: OJICUG_clean_linker_0, # of connection points: 2
#     Edge 64, Type (0, 0), BuildingBlock: OJICUG_clean_linker_0, # of connection points: 2
#     Edge 65, Type (0, 0), BuildingBlock: OJICUG_clean_linker_0, # of connection points: 2
#     Edge 66, Type (0, 0), BuildingBlock: OJICUG_clean_linker_0, # of connection points: 2
#     Edge 67, Type (0, 0), BuildingBlock: OJICUG_clean_linker_0, # of connection points: 2
#     Edge 68, Type (0, 0), BuildingBlock: OJICUG_clean_linker_0, # of connection points: 2
#     Edge 69, Type (0, 0), BuildingBlock: OJICUG_clean_linker_0, # of connection points: 2
#     Edge 70, Type (0, 0), BuildingBlock: OJICUG_clean_linker_0, # of connection points: 2
#     Edge 71, Type (0, 0), BuildingBlock: OJICUG_clean_linker_0, # of connection points: 2
#     Edge 72, Type (0, 0), BuildingBlock: OJICUG_clean_linker_0, # of connection points: 2
#     Edge 73, Type (0, 0), BuildingBlock: OJICUG_clean_linker_0, # of connection points: 2
#     Edge 74, Type (0, 0), BuildingBlock: OJICUG_clean_linker_0, # of connection points: 2
#     Edge 75, Type (0, 0), BuildingBlock: OJICUG_clean_linker_0, # of connection points: 2
#     Edge 76, Type (0, 0), BuildingBlock: OJICUG_clean_linker_0, # of connection points: 2
#     Edge 77, Type (0, 0), BuildingBlock: OJICUG_clean_linker_0, # of connection points: 2
#     Edge 78, Type (0, 0), BuildingBlock: OJICUG_clean_linker_0, # of connection points: 2
#     Edge 79, Type (0, 0), BuildingBlock: OJICUG_clean_linker_0, # of connection points: 2
#     Edge 80, Type (0, 0), BuildingBlock: OJICUG_clean_linker_0, # of connection points: 2
#     Edge 81, Type (0, 0), BuildingBlock: OJICUG_clean_linker_0, # of connection points: 2
#     Edge 82, Type (0, 0), BuildingBlock: OJICUG_clean_linker_0, # of connection points: 2
#     Edge 83, Type (0, 0), BuildingBlock: OJICUG_clean_linker_0, # of connection points: 2
#     Edge 84, Type (0, 0), BuildingBlock: OJICUG_clean_linker_0, # of connection points: 2
#     Edge 85, Type (0, 0), BuildingBlock: OJICUG_clean_linker_0, # of connection points: 2
#     Edge 86, Type (0, 0), BuildingBlock: OJICUG_clean_linker_0, # of connection points: 2
#     Edge 87, Type (0, 0), BuildingBlock: OJICUG_clean_linker_0, # of connection points: 2
#     Edge 88, Type (0, 0), BuildingBlock: OJICUG_clean_linker_0, # of connection points: 2
#     Edge 89, Type (0, 0), BuildingBlock: OJICUG_clean_linker_0, # of connection points: 2
#     Edge 90, Type (0, 0), BuildingBlock: OJICUG_clean_linker_0, # of connection points: 2
#     Edge 91, Type (0, 0), BuildingBlock: OJICUG_clean_linker_0, # of connection points: 2
#     Edge 92, Type (0, 0), BuildingBlock: OJICUG_clean_linker_0, # of connection points: 2
#     Edge 93, Type (0, 0), BuildingBlock: OJICUG_clean_linker_0, # of connection points: 2
#     Edge 94, Type (0, 0), BuildingBlock: OJICUG_clean_linker_0, # of connection points: 2
#     Edge 95, Type (0, 0), BuildingBlock: OJICUG_clean_linker_0, # of connection points: 2
#     Edge 96, Type (0, 0), BuildingBlock: OJICUG_clean_linker_0, # of connection points: 2
#     Edge 97, Type (0, 0), BuildingBlock: OJICUG_clean_linker_0, # of connection points: 2
#     Edge 98, Type (0, 0), BuildingBlock: OJICUG_clean_linker_0, # of connection points: 2
#     Edge 99, Type (0, 0), BuildingBlock: OJICUG_clean_linker_0, # of connection points: 2
#     Edge 100, Type (0, 0), BuildingBlock: OJICUG_clean_linker_0, # of connection points: 2
#     Edge 101, Type (0, 0), BuildingBlock: OJICUG_clean_linker_0, # of connection points: 2
#     Edge 102, Type (0, 0), BuildingBlock: OJICUG_clean_linker_0, # of connection points: 2
#     Edge 103, Type (0, 0), BuildingBlock: OJICUG_clean_linker_0, # of connection points: 2
#     Edge 104, Type (0, 0), BuildingBlock: OJICUG_clean_linker_0, # of connection points: 2
#     Edge 105, Type (0, 0), BuildingBlock: OJICUG_clean_linker_0, # of connection points: 2
#     Edge 106, Type (0, 0), BuildingBlock: OJICUG_clean_linker_0, # of connection points: 2
#     Edge 107, Type (0, 0), BuildingBlock: OJICUG_clean_linker_0, # of connection points: 2
#     Edge 108, Type (0, 0), BuildingBlock: OJICUG_clean_linker_0, # of connection points: 2
#     Edge 109, Type (0, 0), BuildingBlock: OJICUG_clean_linker_0, # of connection points: 2
#     Edge 110, Type (0, 0), BuildingBlock: OJICUG_clean_linker_0, # of connection points: 2
#     Edge 111, Type (0, 0), BuildingBlock: OJICUG_clean_linker_0, # of connection points: 2
#     Edge 112, Type (0, 0), BuildingBlock: OJICUG_clean_linker_0, # of connection points: 2
#     Edge 113, Type (0, 0), BuildingBlock: OJICUG_clean_linker_0, # of connection points: 2
#     Edge 114, Type (0, 0), BuildingBlock: OJICUG_clean_linker_0, # of connection points: 2
#     Edge 115, Type (0, 0), BuildingBlock: OJICUG_clean_linker_0, # of connection points: 2
#     Edge 116, Type (0, 0), BuildingBlock: OJICUG_clean_linker_0, # of connection points: 2
#     Edge 117, Type (0, 0), BuildingBlock: OJICUG_clean_linker_0, # of connection points: 2
#     Edge 118, Type (0, 0), BuildingBlock: OJICUG_clean_linker_0, # of connection points: 2
#     Edge 119, Type (0, 0), BuildingBlock: OJICUG_clean_linker_0, # of connection points: 2
#     Edge 120, Type (0, 0), BuildingBlock: OJICUG_clean_linker_0, # of connection points: 2
#     Edge 121, Type (0, 0), BuildingBlock: OJICUG_clean_linker_0, # of connection points: 2
#     Edge 122, Type (0, 0), BuildingBlock: OJICUG_clean_linker_0, # of connection points: 2
#     Edge 123, Type (0, 0), BuildingBlock: OJICUG_clean_linker_0, # of connection points: 2
#     Edge 124, Type (0, 0), BuildingBlock: OJICUG_clean_linker_0, # of connection points: 2
#     Edge 125, Type (0, 0), BuildingBlock: OJICUG_clean_linker_0, # of connection points: 2
#     Edge 126, Type (0, 0), BuildingBlock: OJICUG_clean_linker_0, # of connection points: 2
#     Edge 127, Type (0, 0), BuildingBlock: OJICUG_clean_linker_0, # of connection points: 2
#     Edge 128, Type (0, 0), BuildingBlock: OJICUG_clean_linker_0, # of connection points: 2
#     Edge 129, Type (0, 0), BuildingBlock: OJICUG_clean_linker_0, # of connection points: 2
#     Edge 130, Type (0, 0), BuildingBlock: OJICUG_clean_linker_0, # of connection points: 2
#     Edge 131, Type (0, 0), BuildingBlock: OJICUG_clean_linker_0, # of connection points: 2
#     Edge 132, Type (0, 0), BuildingBlock: OJICUG_clean_linker_0, # of connection points: 2
#     Edge 133, Type (0, 0), BuildingBlock: OJICUG_clean_linker_0, # of connection points: 2
#     Edge 134, Type (0, 0), BuildingBlock: OJICUG_clean_linker_0, # of connection points: 2
#     Edge 135, Type (0, 0), BuildingBlock: OJICUG_clean_linker_0, # of connection points: 2
#     Edge 136, Type (0, 0), BuildingBlock: OJICUG_clean_linker_0, # of connection points: 2
#     Edge 137, Type (0, 0), BuildingBlock: OJICUG_clean_linker_0, # of connection points: 2
#     Edge 138, Type (0, 0), BuildingBlock: OJICUG_clean_linker_0, # of connection points: 2
#     Edge 139, Type (0, 0), BuildingBlock: OJICUG_clean_linker_0, # of connection points: 2
#     Edge 140, Type (0, 0), BuildingBlock: OJICUG_clean_linker_0, # of connection points: 2
#     Edge 141, Type (0, 0), BuildingBlock: OJICUG_clean_linker_0, # of connection points: 2
#     Edge 142, Type (0, 0), BuildingBlock: OJICUG_clean_linker_0, # of connection points: 2
#     Edge 143, Type (0, 0), BuildingBlock: OJICUG_clean_linker_0, # of connection points: 2
# Relax obj value: 0.016
# Max RMSD: 0.056
# Mean RMSD: 0.056
data_MOF--net-rho--node1-QUQFOY_clean_sbu_1--edge1-OJICUG_clean_linker_0
_symmetry_space_group_name_H-M    P1
_symmetry_Int_Tables_number       1
_symmetry_cell_setting            triclinic
loop_
_symmetry_equiv_pos_as_xyz
'x, y, z'
_cell_length_a     56.369109
_cell_length_b     56.371085
_cell_length_c     56.363627
_cell_angle_alpha  90.002888
_cell_angle_beta   90.000784
_cell_angle_gamma 90.002652
loop_
_atom_site_label
_atom_site_type_symbol
_atom_site_fract_x
_atom_site_fract_y
_atom_site_fract_z
_atom_type_partial_charge
O0 O 0.10903 0.23831 0.44381 0.0
Cd1 Cd 0.10312 0.23007 0.40862 0.0
Cd2 Cd 0.1015 0.27979 0.40701 0.0
O3 O 0.11344 0.27714 0.44169 0.0
O4 O 0.10979 0.19536 0.40792 0.0
O5 O 0.13171 0.22138 0.38857 0.0
C6 C 0.1281 0.19968 0.39496 0.0
C7 C 0.11513 0.31009 0.38191 0.0
C8 C 0.11368 0.25804 0.4537 0.0
C9 C 0.05642 0.25183 0.39651 0.0
O10 O 0.0663 0.27156 0.40116 0.0
O11 O 0.06844 0.23274 0.39672 0.0
O12 O 0.10223 0.31448 0.40024 0.0
O13 O 0.12151 0.28837 0.37836 0.0
O14 O 0.73802 0.06608 0.40141 0.0
Cd15 Cd 0.72997 0.10131 0.40727 0.0
Cd16 Cd 0.77969 0.10273 0.40868 0.0
O17 O 0.77683 0.06806 0.39677 0.0
O18 O 0.69525 0.10221 0.40062 0.0
O19 O 0.72138 0.12136 0.37865 0.0
C20 C 0.69964 0.11509 0.38228 0.0
C21 C 0.8101 0.12763 0.39492 0.0
C22 C 0.75769 0.05611 0.39667 0.0
C23 C 0.75196 0.1134 0.45387 0.0
O24 O 0.77163 0.10865 0.44391 0.0
O25 O 0.73281 0.11327 0.44193 0.0
O26 O 0.81442 0.1093 0.40783 0.0
O27 O 0.78838 0.1313 0.38861 0.0
O28 O 0.90136 0.77195 0.44383 0.0
Cd29 Cd 0.90717 0.78001 0.40859 0.0
Cd30 Cd 0.90855 0.7303 0.40715 0.0
O31 O 0.89664 0.73315 0.44183 0.0
O32 O 0.90046 0.81471 0.40769 0.0
O33 O 0.87851 0.78853 0.38858 0.0
C34 C 0.8821 0.81028 0.39484 0.0
C35 C 0.89483 0.69988 0.38224 0.0
C36 C 0.89659 0.75229 0.45379 0.0
C37 C 0.95376 0.75802 0.3965 0.0
O38 O 0.94377 0.73836 0.40126 0.0
O39 O 0.94183 0.77718 0.39662 0.0
O40 O 0.90773 0.69557 0.40059 0.0
O41 O 0.8885 0.72159 0.37857 0.0
O42 O 0.27179 0.94349 0.40125 0.0
Cd43 Cd 0.27989 0.90827 0.40711 0.0
Cd44 Cd 0.23024 0.90677 0.40859 0.0
O45 O 0.23298 0.94143 0.39663 0.0
O46 O 0.31458 0.90742 0.40037 0.0
O47 O 0.28842 0.88823 0.37847 0.0
C48 C 0.31017 0.89453 0.38204 0.0
C49 C 0.19992 0.88173 0.39489 0.0
C50 C 0.2521 0.95342 0.39651 0.0
C51 C 0.25803 0.89626 0.45377 0.0
O52 O 0.23834 0.90097 0.44382 0.0
O53 O 0.27715 0.89637 0.44179 0.0
O54 O 0.19554 0.90008 0.40776 0.0
O55 O 0.22165 0.87812 0.38858 0.0
O56 O 0.06613 0.73808 0.60871 0.0
Cd57 Cd 0.10134 0.72991 0.60284 0.0
Cd58 Cd 0.10294 0.77957 0.6013 0.0
O59 O 0.06827 0.7769 0.61323 0.0
O60 O 0.10215 0.69523 0.60963 0.0
O61 O 0.1214 0.7214 0.63147 0.0
C62 C 0.11507 0.69966 0.62794 0.0
C63 C 0.12798 0.8099 0.61499 0.0
C64 C 0.05625 0.7578 0.6134 0.0
C65 C 0.11344 0.7517 0.55616 0.0
O66 O 0.10879 0.77141 0.56608 0.0
O67 O 0.11324 0.73258 0.56815 0.0
O68 O 0.10966 0.81427 0.60207 0.0
O69 O 0.13157 0.78818 0.62133 0.0
O70 O 0.23813 0.10839 0.56622 0.0
Cd71 Cd 0.23006 0.10263 0.60147 0.0
Cd72 Cd 0.2797 0.10118 0.60293 0.0
O73 O 0.27693 0.11308 0.56825 0.0
O74 O 0.19538 0.10942 0.60235 0.0
O75 O 0.2216 0.13133 0.62145 0.0
C76 C 0.19985 0.12779 0.61518 0.0
C77 C 0.31004 0.1149 0.62794 0.0
C78 C 0.25781 0.11314 0.55627 0.0
C79 C 0.25194 0.05601 0.61356 0.0
O80 O 0.27161 0.06596 0.6088 0.0
O81 O 0.23281 0.06798 0.61346 0.0
O82 O 0.31441 0.10201 0.6096 0.0
O83 O 0.28831 0.12122 0.63155 0.0
O84 O 0.94415 0.27166 0.60858 0.0
Cd85 Cd 0.9089 0.27966 0.60272 0.0
Cd86 Cd 0.90756 0.22999 0.60138 0.0
O87 O 0.94222 0.23287 0.61334 0.0
O88 O 0.90798 0.31438 0.60932 0.0
O89 O 0.88886 0.28827 0.63133 0.0
C90 C 0.89511 0.31001 0.62768 0.0
C91 C 0.88251 0.19973 0.61518 0.0
C92 C 0.95414 0.25202 0.61339 0.0
C93 C 0.89693 0.2576 0.55613 0.0
O94 O 0.90173 0.23796 0.56613 0.0
O95 O 0.89696 0.27676 0.56806 0.0
O96 O 0.90087 0.19529 0.60234 0.0
O97 O 0.87891 0.22148 0.62141 0.0
O98 O 0.77164 0.90135 0.56607 0.0
Cd99 Cd 0.77982 0.90727 0.60127 0.0
Cd100 Cd 0.7301 0.90879 0.60282 0.0
O101 O 0.73282 0.89683 0.56815 0.0
O102 O 0.81453 0.9006 0.60204 0.0
O103 O 0.78846 0.87869 0.62134 0.0
C104 C 0.81018 0.88229 0.61498 0.0
C105 C 0.69978 0.8951 0.62786 0.0
C106 C 0.75193 0.89664 0.55616 0.0
C107 C 0.75795 0.95393 0.61335 0.0
O108 O 0.73825 0.94401 0.60867 0.0
O109 O 0.77707 0.94195 0.61317 0.0
O110 O 0.6954 0.908 0.60953 0.0
O111 O 0.72151 0.88877 0.63146 0.0
O112 O 0.40109 0.06596 0.27168 0.0
Cd113 Cd 0.40692 0.10118 0.27979 0.0
Cd114 Cd 0.40843 0.10269 0.23009 0.0
O115 O 0.39654 0.068 0.23286 0.0
O116 O 0.40025 0.10199 0.3145 0.0
O117 O 0.37828 0.12119 0.28841 0.0
C118 C 0.3819 0.11487 0.31014 0.0
C119 C 0.39466 0.12766 0.19975 0.0
C120 C 0.39639 0.05603 0.25198 0.0
C121 C 0.45356 0.11335 0.25793 0.0
O122 O 0.44364 0.10862 0.23822 0.0
O123 O 0.44157 0.11317 0.27704 0.0
O124 O 0.4076 0.10936 0.19538 0.0
O125 O 0.38834 0.13126 0.22148 0.0
O126 O 0.94374 0.40096 0.2717 0.0
Cd127 Cd 0.90855 0.40681 0.27993 0.0
Cd128 Cd 0.90692 0.40844 0.23023 0.0
O129 O 0.9416 0.39651 0.23288 0.0
O130 O 0.90782 0.40003 0.31462 0.0
O131 O 0.88852 0.37817 0.28851 0.0
C132 C 0.89491 0.38172 0.31023 0.0
C133 C 0.88186 0.39483 0.19988 0.0
C134 C 0.95362 0.39631 0.25197 0.0
C135 C 0.89641 0.45352 0.25821 0.0
O136 O 0.90106 0.44363 0.23848 0.0
O137 O 0.89662 0.4415 0.27731 0.0
O138 O 0.90018 0.40775 0.19553 0.0
O139 O 0.87829 0.38842 0.22159 0.0
O140 O 0.56598 0.90157 0.2381 0.0
Cd141 Cd 0.60122 0.90746 0.23009 0.0
Cd142 Cd 0.6026 0.90883 0.27976 0.0
O143 O 0.56796 0.89685 0.2769 0.0
O144 O 0.60215 0.90082 0.19538 0.0
O145 O 0.62129 0.87886 0.22153 0.0
C146 C 0.61503 0.88248 0.19978 0.0
C147 C 0.62761 0.89504 0.31007 0.0
C148 C 0.55601 0.89677 0.25775 0.0
C149 C 0.6132 0.95406 0.2521 0.0
O150 O 0.60843 0.94408 0.27176 0.0
O151 O 0.61313 0.94213 0.23295 0.0
O152 O 0.60926 0.9079 0.31447 0.0
O153 O 0.63124 0.8888 0.28831 0.0
O154 O 0.10843 0.56593 0.23801 0.0
Cd155 Cd 0.1026 0.60118 0.23002 0.0
Cd156 Cd 0.10125 0.60256 0.27968 0.0
O157 O 0.11319 0.5679 0.27681 0.0
O158 O 0.10934 0.60216 0.19533 0.0
O159 O 0.13125 0.62123 0.22157 0.0
C160 C 0.12768 0.61501 0.1998 0.0
C161 C 0.115 0.62754 0.31002 0.0
C162 C 0.11323 0.55596 0.25767 0.0
C163 C 0.05601 0.61319 0.25202 0.0
O164 O 0.066 0.60841 0.27167 0.0
O165 O 0.06794 0.61313 0.23286 0.0
O166 O 0.10214 0.60918 0.31439 0.0
O167 O 0.12127 0.63119 0.28828 0.0
O168 O 0.44384 0.90115 0.77185 0.0
Cd169 Cd 0.4086 0.90692 0.77994 0.0
Cd170 Cd 0.40712 0.90841 0.73026 0.0
O171 O 0.44181 0.89653 0.73303 0.0
O172 O 0.40776 0.90017 0.81464 0.0
O173 O 0.38862 0.87823 0.78847 0.0
C174 C 0.39491 0.88181 0.81021 0.0
C175 C 0.38214 0.8947 0.6999 0.0
C176 C 0.45379 0.89644 0.75216 0.0
C177 C 0.39648 0.95354 0.75808 0.0
O178 O 0.40122 0.94361 0.73839 0.0
O179 O 0.39661 0.94157 0.7772 0.0
O180 O 0.40047 0.90761 0.69555 0.0
O181 O 0.37853 0.88835 0.72162 0.0
O182 O 0.10857 0.44391 0.77193 0.0
Cd183 Cd 0.10273 0.40866 0.77991 0.0
Cd184 Cd 0.10135 0.40731 0.73024 0.0
O185 O 0.11329 0.44197 0.73313 0.0
O186 O 0.1094 0.4077 0.81462 0.0
O187 O 0.13136 0.38862 0.78843 0.0
C188 C 0.12775 0.39485 0.81019 0.0
C189 C 0.11515 0.38235 0.69989 0.0
C190 C 0.11335 0.4539 0.75228 0.0
C191 C 0.05613 0.39665 0.75791 0.0
O192 O 0.06611 0.40143 0.73825 0.0
O193 O 0.06807 0.39672 0.77706 0.0
O194 O 0.10227 0.4007 0.69552 0.0
O195 O 0.12141 0.3787 0.72163 0.0
O196 O 0.60865 0.06626 0.73825 0.0
Cd197 Cd 0.60276 0.10147 0.73013 0.0
Cd198 Cd 0.6013 0.10298 0.7798 0.0
O199 O 0.61328 0.06832 0.77706 0.0
O200 O 0.60948 0.10231 0.69543 0.0
O201 O 0.63138 0.12153 0.72157 0.0
C202 C 0.62781 0.11521 0.69983 0.0
C203 C 0.61499 0.12805 0.81009 0.0
C204 C 0.6134 0.05633 0.75794 0.0
C205 C 0.55611 0.11345 0.75202 0.0
O206 O 0.56607 0.10875 0.77171 0.0
O207 O 0.56807 0.11334 0.73289 0.0
O208 O 0.60214 0.1097 0.8145 0.0
O209 O 0.62129 0.13165 0.78835 0.0
O210 O 0.90118 0.56612 0.77155 0.0
Cd211 Cd 0.90707 0.60132 0.77976 0.0
Cd212 Cd 0.90867 0.60289 0.73003 0.0
O213 O 0.89674 0.56821 0.73272 0.0
O214 O 0.90044 0.60202 0.81448 0.0
O215 O 0.87849 0.62136 0.78848 0.0
C216 C 0.88212 0.61497 0.81018 0.0
C217 C 0.89498 0.62795 0.69972 0.0
C218 C 0.89652 0.55621 0.75183 0.0
C219 C 0.95376 0.61343 0.75795 0.0
O220 O 0.94387 0.60876 0.73822 0.0
O221 O 0.94175 0.61324 0.77705 0.0
O222 O 0.90789 0.60964 0.69533 0.0
O223 O 0.88862 0.63151 0.72145 0.0
O224 O 0.27182 0.40144 0.06611 0.0
Cd225 Cd 0.27985 0.40722 0.10136 0.0
Cd226 Cd 0.23021 0.40869 0.10281 0.0
O227 O 0.23302 0.39679 0.06813 0.0
O228 O 0.31453 0.40044 0.10229 0.0
O229 O 0.28829 0.37854 0.12136 0.0
C230 C 0.31006 0.38209 0.11513 0.0
C231 C 0.19985 0.39489 0.12775 0.0
C232 C 0.25214 0.39671 0.05616 0.0
C233 C 0.25798 0.45384 0.1135 0.0
O234 O 0.23829 0.44391 0.10874 0.0
O235 O 0.2771 0.44187 0.11337 0.0
O236 O 0.1955 0.40783 0.10943 0.0
O237 O 0.22158 0.3886 0.13138 0.0
O238 O 0.23811 0.56619 0.90153 0.0
Cd239 Cd 0.2301 0.60143 0.90741 0.0
Cd240 Cd 0.27978 0.60282 0.90879 0.0
O241 O 0.27691 0.56818 0.89682 0.0
O242 O 0.19539 0.60235 0.90078 0.0
O243 O 0.22152 0.62149 0.8788 0.0
C244 C 0.19977 0.61523 0.88243 0.0
C245 C 0.31014 0.62776 0.89499 0.0
C246 C 0.25777 0.55623 0.89673 0.0
C247 C 0.25211 0.61344 0.95402 0.0
O248 O 0.27177 0.60868 0.94404 0.0
O249 O 0.23296 0.61336 0.94208 0.0
O250 O 0.3145 0.60941 0.90787 0.0
O251 O 0.2884 0.63143 0.88874 0.0
O252 O 0.40098 0.27171 0.94375 0.0
Cd253 Cd 0.40688 0.27985 0.90854 0.0
Cd254 Cd 0.40844 0.23015 0.907 0.0
O255 O 0.39648 0.23289 0.94167 0.0
O256 O 0.40018 0.31455 0.90772 0.0
O257 O 0.37828 0.28844 0.88846 0.0
C258 C 0.38187 0.31017 0.89479 0.0
C259 C 0.39477 0.19977 0.88201 0.0
C260 C 0.39629 0.252 0.95366 0.0
C261 C 0.45356 0.25803 0.89646 0.0
O262 O 0.44365 0.23832 0.90114 0.0
O263 O 0.44156 0.27714 0.89663 0.0
O264 O 0.40768 0.19544 0.90035 0.0
O265 O 0.38842 0.22148 0.87838 0.0
O266 O 0.77188 0.44375 0.90142 0.0
Cd267 Cd 0.77995 0.40852 0.9072 0.0
Cd268 Cd 0.73024 0.40707 0.9086 0.0
O269 O 0.73308 0.44175 0.89672 0.0
O270 O 0.81465 0.40766 0.90049 0.0
O271 O 0.7885 0.38854 0.87852 0.0
C272 C 0.81025 0.39483 0.88212 0.0
C273 C 0.69984 0.38214 0.89487 0.0
C274 C 0.75221 0.45371 0.89666 0.0
C275 C 0.75799 0.39641 0.9538 0.0
O276 O 0.73832 0.40116 0.94382 0.0
O277 O 0.77713 0.39653 0.94186 0.0
O278 O 0.69552 0.40048 0.90778 0.0
O279 O 0.72156 0.37849 0.88854 0.0
O280 O 0.60895 0.73832 0.94387 0.0
Cd281 Cd 0.60312 0.73013 0.90866 0.0
Cd282 Cd 0.60152 0.77984 0.90709 0.0
O283 O 0.61343 0.77714 0.94178 0.0
O284 O 0.60983 0.69543 0.90792 0.0
O285 O 0.63175 0.72151 0.88865 0.0
C286 C 0.62816 0.69979 0.89501 0.0
C287 C 0.61518 0.81022 0.88209 0.0
C288 C 0.61361 0.75804 0.95378 0.0
C289 C 0.55643 0.75191 0.89652 0.0
O290 O 0.56633 0.77163 0.9012 0.0
O291 O 0.56845 0.73282 0.8967 0.0
O292 O 0.60224 0.81455 0.90041 0.0
O293 O 0.62156 0.78851 0.87849 0.0
O294 O 0.73811 0.60864 0.06633 0.0
Cd295 Cd 0.72989 0.60277 0.10152 0.0
Cd296 Cd 0.77957 0.6012 0.10316 0.0
O297 O 0.77692 0.61315 0.06848 0.0
O298 O 0.6952 0.60957 0.10228 0.0
O299 O 0.72134 0.6314 0.12157 0.0
C300 C 0.69961 0.62788 0.1152 0.0
C301 C 0.8099 0.61483 0.12823 0.0
C302 C 0.75784 0.61333 0.05645 0.0
C303 C 0.75164 0.55608 0.11361 0.0
O304 O 0.77136 0.566 0.10898 0.0
O305 O 0.73253 0.56808 0.11341 0.0
O306 O 0.81426 0.60192 0.1099 0.0
O307 O 0.78818 0.6212 0.13181 0.0
O308 O 0.44387 0.77176 0.10858 0.0
Cd309 Cd 0.40861 0.7797 0.10272 0.0
Cd310 Cd 0.40731 0.73008 0.10139 0.0
O311 O 0.44195 0.73297 0.11336 0.0
O312 O 0.40761 0.8144 0.10935 0.0
O313 O 0.38855 0.78822 0.13134 0.0
C314 C 0.39475 0.80998 0.12771 0.0
C315 C 0.38228 0.69981 0.11524 0.0
C316 C 0.45387 0.75213 0.1134 0.0
C317 C 0.39669 0.75765 0.05612 0.0
O318 O 0.4015 0.73801 0.06612 0.0
O319 O 0.3967 0.7768 0.06805 0.0
O320 O 0.40064 0.69537 0.1024 0.0
O321 O 0.37866 0.72158 0.12143 0.0
O322 O 0.56576 0.2381 0.10852 0.0
Cd323 Cd 0.60101 0.23012 0.10271 0.0
Cd324 Cd 0.60237 0.27976 0.10132 0.0
O325 O 0.56771 0.2769 0.11327 0.0
O326 O 0.60197 0.19543 0.10944 0.0
O327 O 0.62103 0.22165 0.13138 0.0
C328 C 0.61481 0.19989 0.1278 0.0
C329 C 0.62737 0.31009 0.11506 0.0
C330 C 0.55578 0.25775 0.11332 0.0
C331 C 0.61303 0.25208 0.05611 0.0
O332 O 0.60822 0.27173 0.06608 0.0
O333 O 0.61298 0.23294 0.06806 0.0
O334 O 0.60901 0.31447 0.10221 0.0
O335 O 0.631 0.28835 0.12135 0.0
O336 O 0.90144 0.772 0.56613 0.0
Cd337 Cd 0.90728 0.78008 0.60136 0.0
Cd338 Cd 0.90865 0.73039 0.60283 0.0
O339 O 0.89671 0.7332 0.56816 0.0
O340 O 0.90061 0.81479 0.60221 0.0
O341 O 0.87865 0.78866 0.62138 0.0
C342 C 0.88225 0.8104 0.61508 0.0
C343 C 0.89493 0.70002 0.62782 0.0
C344 C 0.89665 0.75232 0.55619 0.0
C345 C 0.95387 0.7581 0.61343 0.0
O346 O 0.94388 0.73844 0.60869 0.0
O347 O 0.94194 0.77725 0.61332 0.0
O348 O 0.90781 0.69567 0.60946 0.0
O349 O 0.88863 0.72175 0.63146 0.0
O350 O 0.27175 0.94373 0.60872 0.0
Cd351 Cd 0.2799 0.90852 0.60283 0.0
Cd352 Cd 0.23022 0.90698 0.60133 0.0
O353 O 0.23294 0.94164 0.6133 0.0
O354 O 0.3146 0.9077 0.60954 0.0
O355 O 0.28847 0.88846 0.63144 0.0
C356 C 0.31021 0.89478 0.62786 0.0
C357 C 0.19992 0.88193 0.61503 0.0
C358 C 0.25205 0.95364 0.61345 0.0
C359 C 0.25803 0.89644 0.55617 0.0
O360 O 0.23833 0.90114 0.56611 0.0
O361 O 0.27715 0.8966 0.56814 0.0
O362 O 0.19552 0.90027 0.60215 0.0
O363 O 0.22165 0.87834 0.62135 0.0
O364 O 0.1091 0.23858 0.56607 0.0
Cd365 Cd 0.10322 0.23047 0.60129 0.0
Cd366 Cd 0.10163 0.28018 0.60271 0.0
O367 O 0.11356 0.27741 0.56804 0.0
O368 O 0.10984 0.19575 0.60208 0.0
O369 O 0.13182 0.22179 0.62134 0.0
C370 C 0.12816 0.20007 0.61501 0.0
C371 C 0.11532 0.31049 0.62777 0.0
C372 C 0.11376 0.25827 0.5561 0.0
C373 C 0.05653 0.25231 0.61332 0.0
O374 O 0.06642 0.27202 0.60857 0.0
O375 O 0.06854 0.23322 0.61321 0.0
O376 O 0.10243 0.31488 0.60943 0.0
O377 O 0.12165 0.28876 0.63135 0.0
O378 O 0.73835 0.06628 0.60879 0.0
Cd379 Cd 0.73025 0.1015 0.60294 0.0
Cd380 Cd 0.77997 0.10295 0.6014 0.0
O381 O 0.77718 0.06827 0.6133 0.0
O382 O 0.69554 0.10231 0.6096 0.0
O383 O 0.72162 0.12153 0.63156 0.0
C384 C 0.69989 0.11521 0.62794 0.0
C385 C 0.81036 0.12791 0.61512 0.0
C386 C 0.75804 0.05632 0.61346 0.0
C387 C 0.75212 0.11356 0.55627 0.0
O388 O 0.77182 0.10883 0.56619 0.0
O389 O 0.73301 0.11343 0.56826 0.0
O390 O 0.81469 0.10959 0.60219 0.0
O391 O 0.78864 0.13154 0.62145 0.0
O392 O 0.94405 0.27119 0.40116 0.0
Cd393 Cd 0.90882 0.27924 0.40705 0.0
Cd394 Cd 0.90745 0.22958 0.40858 0.0
O395 O 0.94211 0.23237 0.39661 0.0
O396 O 0.90797 0.31395 0.40041 0.0
O397 O 0.88876 0.28786 0.37845 0.0
C398 C 0.89506 0.30959 0.38208 0.0
C399 C 0.88235 0.19934 0.39484 0.0
C400 C 0.95403 0.25152 0.39646 0.0
C401 C 0.89687 0.25736 0.45373 0.0
O402 O 0.90165 0.23768 0.44382 0.0
O403 O 0.89692 0.27647 0.44173 0.0
O404 O 0.90069 0.19489 0.4077 0.0
O405 O 0.87879 0.2211 0.38857 0.0
O406 O 0.77148 0.9012 0.44381 0.0
Cd407 Cd 0.77957 0.90708 0.40858 0.0
Cd408 Cd 0.72987 0.90855 0.40715 0.0
O409 O 0.73266 0.8966 0.44181 0.0
O410 O 0.81429 0.90045 0.40777 0.0
O411 O 0.78823 0.87847 0.38854 0.0
C412 C 0.80996 0.88211 0.39487 0.0
C413 C 0.69955 0.89485 0.3821 0.0
C414 C 0.7518 0.89648 0.45377 0.0
C415 C 0.75764 0.95372 0.39658 0.0
O416 O 0.73796 0.94378 0.40133 0.0
O417 O 0.77677 0.94175 0.39667 0.0
O418 O 0.69516 0.90771 0.40046 0.0
O419 O 0.72129 0.88855 0.37849 0.0
O420 O 0.06602 0.73798 0.40123 0.0
Cd421 Cd 0.10122 0.72979 0.40711 0.0
Cd422 Cd 0.10285 0.77947 0.4086 0.0
O423 O 0.06817 0.77679 0.39668 0.0
O424 O 0.102 0.69509 0.40037 0.0
O425 O 0.12127 0.72121 0.3785 0.0
C426 C 0.11493 0.69948 0.38206 0.0
C427 C 0.12791 0.80977 0.39489 0.0
C428 C 0.05614 0.75771 0.39652 0.0
C429 C 0.11336 0.75163 0.45376 0.0
O430 O 0.10871 0.77134 0.44382 0.0
O431 O 0.11314 0.73251 0.44179 0.0
O432 O 0.10959 0.81416 0.4078 0.0
O433 O 0.13148 0.78804 0.38856 0.0
O434 O 0.23815 0.10822 0.44392 0.0
Cd435 Cd 0.23011 0.1024 0.40868 0.0
Cd436 Cd 0.27973 0.10098 0.40723 0.0
O437 O 0.27695 0.11291 0.44191 0.0
O438 O 0.19542 0.10914 0.40778 0.0
O439 O 0.22162 0.13106 0.38866 0.0
C440 C 0.19987 0.12749 0.39492 0.0
C441 C 0.31 0.11477 0.3822 0.0
C442 C 0.25782 0.11298 0.45387 0.0
C443 C 0.25202 0.05579 0.39659 0.0
O444 O 0.27169 0.06574 0.40136 0.0
O445 O 0.23289 0.06775 0.3967 0.0
O446 O 0.31443 0.10189 0.40053 0.0
O447 O 0.28825 0.12104 0.37861 0.0
O448 O 0.60864 0.94401 0.73831 0.0
Cd449 Cd 0.60279 0.90879 0.73021 0.0
Cd450 Cd 0.60134 0.90732 0.7799 0.0
O451 O 0.61326 0.94199 0.77712 0.0
O452 O 0.60946 0.90796 0.6955 0.0
O453 O 0.63143 0.88877 0.72161 0.0
C454 C 0.62781 0.89508 0.69987 0.0
C455 C 0.6151 0.88229 0.81019 0.0
C456 C 0.61338 0.95396 0.75799 0.0
C457 C 0.55617 0.89668 0.75213 0.0
O458 O 0.56611 0.90143 0.77181 0.0
O459 O 0.56814 0.89682 0.733 0.0
O460 O 0.6022 0.90061 0.8146 0.0
O461 O 0.62139 0.87871 0.78845 0.0
O462 O 0.06613 0.60878 0.73854 0.0
Cd463 Cd 0.10137 0.60293 0.7305 0.0
Cd464 Cd 0.10274 0.60144 0.78019 0.0
O465 O 0.06807 0.61337 0.77737 0.0
O466 O 0.10221 0.60952 0.69578 0.0
O467 O 0.1214 0.63154 0.72185 0.0
C468 C 0.1151 0.62788 0.70012 0.0
C469 C 0.12776 0.61522 0.81049 0.0
C470 C 0.05615 0.6135 0.75821 0.0
C471 C 0.11337 0.55628 0.75244 0.0
O472 O 0.10859 0.56621 0.77212 0.0
O473 O 0.11331 0.56826 0.73332 0.0
O474 O 0.10942 0.60234 0.8149 0.0
O475 O 0.13136 0.62149 0.78874 0.0
O476 O 0.4438 0.10845 0.77178 0.0
Cd477 Cd 0.40858 0.10258 0.7799 0.0
Cd478 Cd 0.40707 0.10107 0.73022 0.0
O479 O 0.44174 0.11301 0.73296 0.0
O480 O 0.40773 0.10932 0.81459 0.0
O481 O 0.38852 0.1312 0.78843 0.0
C482 C 0.39483 0.12764 0.81017 0.0
C483 C 0.38203 0.1148 0.69991 0.0
C484 C 0.45372 0.11317 0.75208 0.0
C485 C 0.3965 0.05592 0.75805 0.0
O486 O 0.4012 0.06585 0.73835 0.0
O487 O 0.39666 0.0679 0.77717 0.0
O488 O 0.40036 0.1019 0.69552 0.0
O489 O 0.37845 0.12111 0.72165 0.0
O490 O 0.90117 0.44389 0.77143 0.0
Cd491 Cd 0.90706 0.40868 0.77958 0.0
Cd492 Cd 0.90862 0.4072 0.72985 0.0
O493 O 0.89667 0.44187 0.7326 0.0
O494 O 0.9004 0.40791 0.8143 0.0
O495 O 0.87846 0.38863 0.78824 0.0
C496 C 0.88208 0.39498 0.80996 0.0
C497 C 0.89495 0.38213 0.69954 0.0
C498 C 0.89649 0.45383 0.75173 0.0
C499 C 0.95374 0.39665 0.75772 0.0
O500 O 0.94383 0.40137 0.73801 0.0
O501 O 0.94174 0.39677 0.77683 0.0
O502 O 0.90783 0.40047 0.69515 0.0
O503 O 0.88861 0.37855 0.72128 0.0
O504 O 0.56592 0.10891 0.2384 0.0
Cd505 Cd 0.60115 0.10309 0.23033 0.0
Cd506 Cd 0.60256 0.10159 0.28003 0.0
O507 O 0.56789 0.11352 0.27722 0.0
O508 O 0.60199 0.10973 0.19561 0.0
O509 O 0.62116 0.13173 0.22169 0.0
C510 C 0.61486 0.12808 0.19996 0.0
C511 C 0.62759 0.11529 0.31036 0.0
C512 C 0.55594 0.11362 0.25807 0.0
C513 C 0.61319 0.05645 0.25224 0.0
O514 O 0.60841 0.06637 0.27192 0.0
O515 O 0.61311 0.06844 0.23312 0.0
O516 O 0.60924 0.10242 0.31474 0.0
O517 O 0.63119 0.12161 0.28862 0.0
O518 O 0.90106 0.56585 0.2387 0.0
Cd519 Cd 0.90692 0.60106 0.23057 0.0
Cd520 Cd 0.90855 0.60253 0.28025 0.0
O521 O 0.89662 0.56785 0.27754 0.0
O522 O 0.9002 0.60185 0.19587 0.0
O523 O 0.87829 0.6211 0.22197 0.0
C524 C 0.88188 0.61476 0.20024 0.0
C525 C 0.89483 0.62764 0.31051 0.0
C526 C 0.89641 0.5559 0.2584 0.0
C527 C 0.95363 0.61312 0.25235 0.0
O528 O 0.94375 0.60839 0.27207 0.0
O529 O 0.9416 0.61299 0.23326 0.0
O530 O 0.90773 0.60932 0.31494 0.0
O531 O 0.8885 0.63117 0.28876 0.0
O532 O 0.40108 0.94368 0.27155 0.0
Cd533 Cd 0.40697 0.90845 0.27958 0.0
Cd534 Cd 0.40843 0.90705 0.22993 0.0
O535 O 0.39646 0.9417 0.23273 0.0
O536 O 0.40033 0.90756 0.3143 0.0
O537 O 0.37838 0.88837 0.28819 0.0
C538 C 0.38201 0.89465 0.30993 0.0
C539 C 0.39467 0.88199 0.19964 0.0
C540 C 0.39634 0.95364 0.25187 0.0
C541 C 0.45363 0.89651 0.25765 0.0
O542 O 0.44368 0.90126 0.23797 0.0
O543 O 0.44165 0.89657 0.27678 0.0
O544 O 0.40752 0.90035 0.19522 0.0
O545 O 0.38842 0.87839 0.2214 0.0
O546 O 0.10841 0.44365 0.23786 0.0
Cd547 Cd 0.10259 0.40842 0.22978 0.0
Cd548 Cd 0.1012 0.40692 0.27945 0.0
O549 O 0.11312 0.44159 0.27666 0.0
O550 O 0.10932 0.40753 0.19509 0.0
O551 O 0.13125 0.38841 0.22127 0.0
C552 C 0.12768 0.39468 0.19952 0.0
C553 C 0.11497 0.38195 0.3098 0.0
C554 C 0.11318 0.45358 0.25754 0.0
C555 C 0.056 0.3963 0.25172 0.0
O556 O 0.06597 0.40103 0.27139 0.0
O557 O 0.06794 0.39645 0.23257 0.0
O558 O 0.10206 0.40027 0.31416 0.0
O559 O 0.12127 0.37832 0.28806 0.0
O560 O 0.73846 0.60861 0.94408 0.0
Cd561 Cd 0.73042 0.60275 0.90884 0.0
Cd562 Cd 0.78008 0.60124 0.90746 0.0
O563 O 0.77728 0.61319 0.94213 0.0
O564 O 0.69572 0.60945 0.90797 0.0
O565 O 0.72186 0.63138 0.8888 0.0
C566 C 0.70012 0.62778 0.89509 0.0
C567 C 0.81034 0.61498 0.88239 0.0
C568 C 0.75813 0.61333 0.95406 0.0
C569 C 0.7523 0.5561 0.89682 0.0
O570 O 0.77198 0.56602 0.90161 0.0
O571 O 0.73318 0.56808 0.8969 0.0
O572 O 0.81477 0.60211 0.90073 0.0
O573 O 0.7886 0.62127 0.87882 0.0
O574 O 0.77129 0.44377 0.1088 0.0
Cd575 Cd 0.77946 0.40857 0.10291 0.0
Cd576 Cd 0.72974 0.40705 0.10126 0.0
O577 O 0.73245 0.44173 0.11318 0.0
O578 O 0.81417 0.40783 0.1096 0.0
O579 O 0.78811 0.38852 0.13151 0.0
C580 C 0.80983 0.3949 0.12792 0.0
C581 C 0.69939 0.38204 0.11496 0.0
C582 C 0.75158 0.4537 0.11343 0.0
C583 C 0.75769 0.39647 0.05619 0.0
O584 O 0.73796 0.40115 0.06607 0.0
O585 O 0.77678 0.39666 0.06821 0.0
O586 O 0.69503 0.40034 0.10201 0.0
O587 O 0.72111 0.37846 0.12132 0.0
O588 O 0.60883 0.73856 0.06614 0.0
Cd589 Cd 0.60293 0.73048 0.10137 0.0
Cd590 Cd 0.6014 0.78019 0.10277 0.0
O591 O 0.61336 0.77738 0.06811 0.0
O592 O 0.60953 0.69576 0.10218 0.0
O593 O 0.63152 0.7218 0.12143 0.0
C594 C 0.62786 0.70008 0.1151 0.0
C595 C 0.61512 0.81051 0.12779 0.0
C596 C 0.61353 0.75824 0.05617 0.0
C597 C 0.55626 0.75238 0.11337 0.0
O598 O 0.56618 0.77207 0.10861 0.0
O599 O 0.56826 0.73327 0.11329 0.0
O600 O 0.60224 0.81489 0.10944 0.0
O601 O 0.62142 0.78878 0.1314 0.0
O602 O 0.23835 0.56617 0.10891 0.0
Cd603 Cd 0.23026 0.6014 0.10306 0.0
Cd604 Cd 0.27996 0.60284 0.1016 0.0
O605 O 0.27716 0.56818 0.11354 0.0
O606 O 0.19554 0.60222 0.10967 0.0
O607 O 0.2216 0.62142 0.13168 0.0
C608 C 0.19987 0.6151 0.12802 0.0
C609 C 0.31028 0.62786 0.11534 0.0
C610 C 0.25802 0.55622 0.11365 0.0
C611 C 0.2522 0.61344 0.05642 0.0
O612 O 0.27188 0.60868 0.06636 0.0
O613 O 0.23308 0.61335 0.06839 0.0
O614 O 0.31466 0.60952 0.10247 0.0
O615 O 0.28854 0.63148 0.12162 0.0
O616 O 0.40088 0.27149 0.06604 0.0
Cd617 Cd 0.40674 0.27952 0.10128 0.0
Cd618 Cd 0.40823 0.22985 0.10265 0.0
O619 O 0.39628 0.23267 0.06799 0.0
O620 O 0.40013 0.31423 0.10215 0.0
O621 O 0.37813 0.28815 0.12133 0.0
C622 C 0.38179 0.30988 0.11505 0.0
C623 C 0.3945 0.19955 0.12768 0.0
C624 C 0.39616 0.25182 0.05605 0.0
C625 C 0.45339 0.2576 0.11328 0.0
O626 O 0.44346 0.23793 0.10849 0.0
O627 O 0.4414 0.27672 0.11322 0.0
O628 O 0.40736 0.19515 0.10933 0.0
O629 O 0.38821 0.22128 0.13129 0.0
O630 O 0.27169 0.40142 0.94378 0.0
Cd631 Cd 0.27967 0.40723 0.90852 0.0
Cd632 Cd 0.23005 0.40865 0.90716 0.0
O633 O 0.23289 0.3967 0.94182 0.0
O634 O 0.31437 0.40055 0.90758 0.0
O635 O 0.2882 0.37859 0.88849 0.0
C636 C 0.30995 0.3822 0.89473 0.0
C637 C 0.19975 0.39486 0.88214 0.0
C638 C 0.25203 0.39664 0.95376 0.0
C639 C 0.25772 0.45385 0.89654 0.0
O640 O 0.23806 0.44389 0.90133 0.0
O641 O 0.27686 0.44189 0.89657 0.0
O642 O 0.19534 0.40772 0.9005 0.0
O643 O 0.2215 0.38862 0.87852 0.0
O644 O 0.56591 0.23851 0.90115 0.0
Cd645 Cd 0.60113 0.23043 0.90702 0.0
Cd646 Cd 0.60256 0.28009 0.90857 0.0
O647 O 0.56789 0.27733 0.89661 0.0
O648 O 0.60198 0.19573 0.90034 0.0
O649 O 0.62119 0.22184 0.87841 0.0
C650 C 0.61488 0.20011 0.88201 0.0
C651 C 0.62765 0.31036 0.89485 0.0
C652 C 0.55594 0.25819 0.89645 0.0
C653 C 0.61312 0.25228 0.95371 0.0
O654 O 0.60837 0.27197 0.9438 0.0
O655 O 0.61303 0.23317 0.94171 0.0
O656 O 0.60931 0.31479 0.90772 0.0
O657 O 0.63121 0.28861 0.88855 0.0
O658 O 0.44407 0.77134 0.9012 0.0
Cd659 Cd 0.40883 0.77937 0.90706 0.0
Cd660 Cd 0.40746 0.72973 0.90856 0.0
O661 O 0.44212 0.73252 0.8966 0.0
O662 O 0.40795 0.81408 0.90041 0.0
O663 O 0.38879 0.78796 0.87844 0.0
C664 C 0.39506 0.8097 0.88207 0.0
C665 C 0.38236 0.69949 0.8948 0.0
C666 C 0.45405 0.75167 0.89647 0.0
C667 C 0.39684 0.75746 0.95372 0.0
O668 O 0.40164 0.73779 0.9438 0.0
O669 O 0.39689 0.77658 0.94173 0.0
O670 O 0.40071 0.69504 0.90765 0.0
O671 O 0.3788 0.72124 0.88854 0.0
C672 C 0.114 0.37017 0.35246 0.0
C673 C 0.11994 0.36456 0.32891 0.0
H674 H 0.10823 0.35747 0.38768 0.0
C675 C 0.12772 0.34143 0.32367 0.0
H676 H 0.10816 0.38786 0.35718 0.0
C677 C 0.12777 0.32385 0.34132 0.0
C678 C 0.12002 0.32915 0.36445 0.0
H679 H 0.13245 0.33656 0.3057 0.0
H680 H 0.13252 0.30587 0.33649 0.0
C681 C 0.11404 0.3527 0.36999 0.0
C682 C 0.68581 0.12785 0.34175 0.0
C683 C 0.68055 0.12008 0.36488 0.0
H684 H 0.67302 0.13264 0.30617 0.0
C685 C 0.65699 0.11417 0.37048 0.0
H686 H 0.70379 0.13255 0.33688 0.0
C687 C 0.63947 0.11423 0.35299 0.0
C688 C 0.64503 0.12019 0.32943 0.0
H689 H 0.65225 0.10836 0.38817 0.0
H690 H 0.62177 0.10845 0.35775 0.0
C691 C 0.66818 0.1279 0.32415 0.0
C692 C 0.89587 0.6572 0.37055 0.0
C693 C 0.88989 0.68073 0.36489 0.0
H694 H 0.90171 0.62197 0.35791 0.0
C695 C 0.88212 0.68591 0.34174 0.0
H696 H 0.9017 0.65252 0.38826 0.0
C697 C 0.88212 0.66823 0.32419 0.0
C698 C 0.8899 0.64512 0.32953 0.0
H699 H 0.87737 0.70386 0.33683 0.0
H700 H 0.87737 0.67301 0.3062 0.0
C701 C 0.89587 0.63963 0.35311 0.0
C702 C 0.37025 0.89555 0.35259 0.0
C703 C 0.36462 0.88966 0.32903 0.0
H704 H 0.35757 0.90129 0.38783 0.0
C705 C 0.34147 0.88193 0.32379 0.0
H706 H 0.38796 0.90134 0.35732 0.0
C707 C 0.3239 0.8819 0.34143 0.0
C708 C 0.32921 0.8896 0.36458 0.0
H709 H 0.33659 0.87725 0.3058 0.0
H710 H 0.30591 0.87719 0.3366 0.0
C711 C 0.35278 0.89552 0.37013 0.0
C712 C 0.12777 0.6684 0.6862 0.0
C713 C 0.12003 0.64525 0.68099 0.0
H714 H 0.13248 0.70396 0.67334 0.0
C715 C 0.11409 0.6396 0.65745 0.0
H716 H 0.13249 0.6733 0.70417 0.0
C717 C 0.11409 0.65706 0.63989 0.0
C718 C 0.12002 0.68063 0.64541 0.0
H719 H 0.1083 0.62189 0.65274 0.0
H720 H 0.10828 0.65226 0.62221 0.0
C721 C 0.12777 0.68596 0.66854 0.0
C722 C 0.32387 0.12755 0.66851 0.0
C723 C 0.32913 0.11982 0.64536 0.0
H724 H 0.33664 0.13225 0.7041 0.0
C725 C 0.35268 0.11386 0.63977 0.0
H726 H 0.30589 0.13229 0.67336 0.0
C727 C 0.37019 0.11383 0.65728 0.0
C728 C 0.36461 0.11977 0.68084 0.0
H729 H 0.35742 0.10806 0.62207 0.0
H730 H 0.38787 0.10801 0.65252 0.0
C731 C 0.34148 0.12753 0.68612 0.0
C732 C 0.88237 0.32389 0.6682 0.0
C733 C 0.89014 0.32912 0.64506 0.0
H734 H 0.87758 0.3367 0.70377 0.0
C735 C 0.89606 0.35267 0.63945 0.0
H736 H 0.87765 0.30591 0.67308 0.0
C737 C 0.89602 0.37021 0.65692 0.0
C738 C 0.89005 0.36466 0.68048 0.0
H739 H 0.90189 0.35739 0.62175 0.0
H740 H 0.90182 0.3879 0.65215 0.0
C741 C 0.88232 0.34153 0.68578 0.0
C742 C 0.68597 0.88241 0.66843 0.0
C743 C 0.6807 0.89017 0.6453 0.0
H744 H 0.67322 0.87766 0.70402 0.0
C745 C 0.65715 0.89613 0.63972 0.0
H746 H 0.70395 0.87767 0.67327 0.0
C747 C 0.63965 0.89612 0.65723 0.0
C748 C 0.64523 0.89015 0.68078 0.0
H749 H 0.6524 0.90195 0.62203 0.0
H750 H 0.62195 0.90194 0.65249 0.0
C751 C 0.66836 0.8824 0.68604 0.0
C752 C 0.34134 0.1275 0.32399 0.0
C753 C 0.36449 0.1198 0.32924 0.0
H754 H 0.30576 0.13217 0.33678 0.0
C755 C 0.37011 0.11388 0.35279 0.0
H756 H 0.33646 0.13221 0.30601 0.0
C757 C 0.35263 0.11386 0.37032 0.0
C758 C 0.32906 0.11975 0.36475 0.0
H759 H 0.38782 0.1081 0.35752 0.0
H760 H 0.35741 0.10807 0.38801 0.0
C761 C 0.32375 0.12748 0.34162 0.0
C762 C 0.89604 0.35225 0.37031 0.0
C763 C 0.89009 0.3287 0.36469 0.0
H764 H 0.90181 0.38747 0.35762 0.0
C765 C 0.88231 0.32347 0.34156 0.0
H766 H 0.90187 0.35696 0.38801 0.0
C767 C 0.88227 0.34112 0.32398 0.0
C768 C 0.89001 0.36425 0.32929 0.0
H769 H 0.87758 0.3055 0.33668 0.0
H770 H 0.87751 0.3363 0.306 0.0
C771 C 0.896 0.36979 0.35285 0.0
C772 C 0.65692 0.89588 0.37024 0.0
C773 C 0.68048 0.88995 0.36465 0.0
H774 H 0.62173 0.90172 0.35747 0.0
C775 C 0.68576 0.88227 0.3415 0.0
H776 H 0.65216 0.90164 0.38794 0.0
C777 C 0.66816 0.88232 0.32387 0.0
C778 C 0.64502 0.89005 0.32915 0.0
H779 H 0.70374 0.87756 0.33664 0.0
H780 H 0.67303 0.87764 0.30588 0.0
C781 C 0.63943 0.89593 0.35272 0.0
C782 C 0.11397 0.63936 0.35267 0.0
C783 C 0.11992 0.64495 0.32912 0.0
H784 H 0.10812 0.65209 0.38788 0.0
C785 C 0.12767 0.6681 0.32387 0.0
H786 H 0.10816 0.62166 0.3574 0.0
C787 C 0.12765 0.6857 0.3415 0.0
C788 C 0.11988 0.68041 0.36463 0.0
H789 H 0.1324 0.67296 0.3059 0.0
H790 H 0.13237 0.70368 0.33666 0.0
C791 C 0.11394 0.65685 0.37019 0.0
C792 C 0.37033 0.89576 0.65725 0.0
C793 C 0.36473 0.88978 0.68079 0.0
H794 H 0.35759 0.90163 0.62205 0.0
C795 C 0.3416 0.88201 0.68603 0.0
H796 H 0.38802 0.90159 0.65252 0.0
C797 C 0.324 0.88204 0.66841 0.0
C798 C 0.32928 0.88983 0.64529 0.0
H799 H 0.33673 0.87725 0.704 0.0
H800 H 0.30601 0.87729 0.67324 0.0
C801 C 0.35284 0.89579 0.63973 0.0
C802 C 0.11421 0.37058 0.65722 0.0
C803 C 0.12013 0.36497 0.68078 0.0
H804 H 0.10846 0.35788 0.62199 0.0
C805 C 0.1279 0.34184 0.68602 0.0
H806 H 0.10839 0.38828 0.6525 0.0
C807 C 0.12795 0.32426 0.66837 0.0
C808 C 0.12022 0.32955 0.64523 0.0
H809 H 0.13262 0.33696 0.70399 0.0
H810 H 0.13269 0.30627 0.6732 0.0
C811 C 0.11426 0.35311 0.63969 0.0
C812 C 0.68602 0.1279 0.66848 0.0
C813 C 0.68078 0.12015 0.64534 0.0
H814 H 0.67321 0.13264 0.70406 0.0
C815 C 0.65724 0.11419 0.63973 0.0
H816 H 0.70399 0.13264 0.67336 0.0
C817 C 0.63971 0.1142 0.65721 0.0
C818 C 0.64526 0.12015 0.68077 0.0
H819 H 0.65251 0.10838 0.62203 0.0
H820 H 0.62202 0.10838 0.65244 0.0
C821 C 0.66838 0.12791 0.68607 0.0
C822 C 0.89599 0.65738 0.63961 0.0
C823 C 0.89001 0.68092 0.64522 0.0
H824 H 0.90184 0.62217 0.65233 0.0
C825 C 0.88225 0.68615 0.66836 0.0
H826 H 0.90181 0.65266 0.62191 0.0
C827 C 0.88226 0.66852 0.68595 0.0
C828 C 0.89004 0.6454 0.68066 0.0
H829 H 0.8775 0.70412 0.67323 0.0
H830 H 0.87752 0.67334 0.70394 0.0
C831 C 0.89601 0.63985 0.6571 0.0
C832 C 0.3237 0.34145 0.12773 0.0
C833 C 0.32907 0.36459 0.12007 0.0
H834 H 0.33633 0.3058 0.13235 0.0
C835 C 0.35266 0.37012 0.11421 0.0
H836 H 0.30569 0.33664 0.13239 0.0
C837 C 0.3701 0.35256 0.11418 0.0
C838 C 0.36442 0.329 0.12003 0.0
H839 H 0.35748 0.38782 0.10847 0.0
H840 H 0.38782 0.35727 0.10844 0.0
C841 C 0.34125 0.32378 0.12771 0.0
C842 C 0.34172 0.68582 0.88222 0.0
C843 C 0.36487 0.68047 0.88988 0.0
H844 H 0.30607 0.67319 0.87762 0.0
C845 C 0.37039 0.65689 0.89579 0.0
H846 H 0.33691 0.70382 0.87753 0.0
C847 C 0.35282 0.63945 0.89584 0.0
C848 C 0.32927 0.64512 0.88999 0.0
H849 H 0.38809 0.65208 0.90153 0.0
H850 H 0.35753 0.62173 0.90161 0.0
C851 C 0.32405 0.66827 0.88227 0.0
C852 C 0.32371 0.34161 0.88209 0.0
C853 C 0.32901 0.36476 0.88978 0.0
H854 H 0.33643 0.306 0.87743 0.0
C855 C 0.35258 0.37033 0.89568 0.0
H856 H 0.30572 0.33676 0.87741 0.0
C857 C 0.37007 0.35282 0.89569 0.0
C858 C 0.36446 0.32925 0.88981 0.0
H859 H 0.35735 0.38804 0.90144 0.0
H860 H 0.38778 0.35756 0.90147 0.0
C861 C 0.34131 0.32398 0.88211 0.0
C862 C 0.63961 0.35296 0.89588 0.0
C863 C 0.64513 0.3294 0.88992 0.0
H864 H 0.65247 0.38812 0.90171 0.0
C865 C 0.66825 0.32407 0.88216 0.0
H866 H 0.62194 0.35775 0.9017 0.0
C867 C 0.68591 0.34163 0.88216 0.0
C868 C 0.6807 0.36477 0.88993 0.0
H869 H 0.67304 0.30608 0.87741 0.0
H870 H 0.70387 0.33673 0.87742 0.0
C871 C 0.65717 0.37042 0.89589 0.0
C872 C 0.65749 0.63965 0.89608 0.0
C873 C 0.68104 0.64521 0.89013 0.0
H874 H 0.62229 0.65242 0.90187 0.0
C875 C 0.68633 0.66834 0.88238 0.0
H876 H 0.65273 0.62196 0.9019 0.0
C877 C 0.66872 0.68596 0.88236 0.0
C878 C 0.64558 0.6807 0.8901 0.0
H879 H 0.70431 0.67318 0.87765 0.0
H880 H 0.67358 0.70393 0.87762 0.0
C881 C 0.63999 0.65715 0.89606 0.0
C882 C 0.66836 0.68614 0.12785 0.0
C883 C 0.64522 0.68095 0.12006 0.0
H884 H 0.7039 0.67327 0.13265 0.0
C885 C 0.63957 0.65741 0.11409 0.0
H886 H 0.67326 0.7041 0.1326 0.0
C887 C 0.65702 0.63985 0.11411 0.0
C888 C 0.68058 0.64536 0.12011 0.0
H889 H 0.62187 0.65272 0.10824 0.0
H890 H 0.65223 0.62218 0.10829 0.0
C891 C 0.68591 0.66847 0.12788 0.0
C892 C 0.37043 0.65717 0.11439 0.0
C893 C 0.36485 0.68075 0.12023 0.0
H894 H 0.35768 0.62196 0.10868 0.0
C895 C 0.3417 0.68606 0.12791 0.0
H896 H 0.38814 0.6524 0.10864 0.0
C897 C 0.32408 0.66845 0.12793 0.0
C898 C 0.32936 0.64529 0.12028 0.0
H899 H 0.33684 0.70406 0.13255 0.0
H900 H 0.30609 0.67333 0.1326 0.0
C901 C 0.35292 0.63968 0.11442 0.0
C902 C 0.65675 0.37021 0.11395 0.0
C903 C 0.6803 0.36463 0.11991 0.0
H904 H 0.62154 0.35746 0.10816 0.0
C905 C 0.68555 0.34151 0.12771 0.0
H906 H 0.65201 0.3879 0.10811 0.0
C907 C 0.66793 0.32391 0.12774 0.0
C908 C 0.6448 0.32917 0.11998 0.0
H909 H 0.70353 0.33666 0.13245 0.0
H910 H 0.67278 0.30593 0.1325 0.0
C911 C 0.63923 0.35272 0.11399 0.0
C912 C 0.62784 0.84174 0.82396 0.0
C913 C 0.62005 0.86485 0.82926 0.0
H914 H 0.63262 0.80614 0.83668 0.0
C915 C 0.61408 0.87039 0.85282 0.0
H916 H 0.63258 0.83691 0.80598 0.0
C917 C 0.6141 0.85287 0.8703 0.0
C918 C 0.62009 0.82933 0.86469 0.0
H919 H 0.60825 0.88807 0.85759 0.0
H920 H 0.60828 0.85758 0.888 0.0
C921 C 0.62786 0.8241 0.84155 0.0
C922 C 0.15713 0.6143 0.87063 0.0
C923 C 0.18069 0.62019 0.86502 0.0
H924 H 0.12191 0.60852 0.8579 0.0
C925 C 0.18595 0.6279 0.84187 0.0
H926 H 0.15238 0.60853 0.88834 0.0
C927 C 0.16833 0.62789 0.82427 0.0
C928 C 0.14519 0.62019 0.82956 0.0
H929 H 0.20394 0.63259 0.837 0.0
H930 H 0.17318 0.63258 0.80627 0.0
C931 C 0.13961 0.6143 0.85313 0.0
C932 C 0.38211 0.16821 0.8239 0.0
C933 C 0.38988 0.1451 0.82922 0.0
H934 H 0.37735 0.20382 0.83659 0.0
C935 C 0.39583 0.13957 0.85279 0.0
H936 H 0.37737 0.17302 0.80591 0.0
C937 C 0.39582 0.15711 0.87026 0.0
C938 C 0.38985 0.18065 0.86463 0.0
H939 H 0.40166 0.12189 0.85757 0.0
H940 H 0.40164 0.1524 0.88796 0.0
C941 C 0.38209 0.18586 0.84148 0.0
C942 C 0.84157 0.38223 0.82386 0.0
C943 C 0.8647 0.39003 0.82908 0.0
H944 H 0.80601 0.37743 0.8367 0.0
C945 C 0.87032 0.39598 0.85263 0.0
H946 H 0.83669 0.3775 0.80589 0.0
C947 C 0.85285 0.39594 0.87017 0.0
C948 C 0.8293 0.38994 0.86464 0.0
H949 H 0.88801 0.40183 0.85734 0.0
H950 H 0.85763 0.40175 0.88786 0.0
C951 C 0.82399 0.38219 0.84152 0.0
C952 C 0.62746 0.1862 0.16842 0.0
C953 C 0.61977 0.18086 0.14528 0.0
H954 H 0.63215 0.17355 0.20405 0.0
C955 C 0.61389 0.15728 0.13974 0.0
H956 H 0.63213 0.20421 0.17324 0.0
C957 C 0.6139 0.13982 0.15729 0.0
C958 C 0.61979 0.14547 0.18085 0.0
H959 H 0.60813 0.15247 0.12205 0.0
H960 H 0.60815 0.1221 0.15258 0.0
C961 C 0.62747 0.16864 0.18607 0.0
C962 C 0.87003 0.61371 0.15761 0.0
C963 C 0.86445 0.61969 0.18116 0.0
H964 H 0.85727 0.6079 0.12241 0.0
C965 C 0.84133 0.62747 0.18642 0.0
H966 H 0.88771 0.60788 0.15287 0.0
C967 C 0.82372 0.62749 0.1688 0.0
C968 C 0.82898 0.61972 0.14567 0.0
H969 H 0.83648 0.63222 0.2044 0.0
H970 H 0.80575 0.63225 0.17365 0.0
C971 C 0.85253 0.61373 0.1401 0.0
C972 C 0.39558 0.85263 0.13951 0.0
C973 C 0.38975 0.82906 0.14512 0.0
H974 H 0.40128 0.88786 0.15223 0.0
C975 C 0.38209 0.82377 0.16828 0.0
H976 H 0.40131 0.85739 0.12179 0.0
C977 C 0.38207 0.84139 0.18589 0.0
C978 C 0.38972 0.86455 0.18058 0.0
H979 H 0.37746 0.80577 0.17316 0.0
H980 H 0.37743 0.83653 0.20389 0.0
C981 C 0.39556 0.87015 0.157 0.0
C982 C 0.15718 0.39576 0.13946 0.0
C983 C 0.18073 0.38988 0.14511 0.0
H984 H 0.12193 0.40146 0.15211 0.0
C985 C 0.18596 0.38214 0.16826 0.0
H986 H 0.15247 0.40156 0.12175 0.0
C987 C 0.1683 0.38208 0.18582 0.0
C988 C 0.14516 0.38977 0.18048 0.0
H989 H 0.20394 0.37746 0.17316 0.0
H990 H 0.17311 0.37737 0.20381 0.0
C991 C 0.13963 0.3957 0.15691 0.0
C992 C 0.85294 0.61391 0.87041 0.0
C993 C 0.82938 0.61991 0.86491 0.0
H994 H 0.88809 0.60806 0.85754 0.0
C995 C 0.82406 0.62769 0.8418 0.0
H996 H 0.85773 0.60808 0.88809 0.0
C997 C 0.84162 0.62769 0.82413 0.0
C998 C 0.86475 0.61989 0.82932 0.0
H999 H 0.80607 0.63246 0.837 0.0
H1000 H 0.83672 0.63245 0.80617 0.0
C1001 C 0.87039 0.61391 0.85286 0.0
C1002 C 0.39593 0.86989 0.85283 0.0
C1003 C 0.39001 0.86434 0.82926 0.0
H1004 H 0.40175 0.85709 0.88801 0.0
C1005 C 0.38232 0.84119 0.82394 0.0
H1006 H 0.40168 0.8876 0.85762 0.0
C1007 C 0.38236 0.82355 0.84152 0.0
C1008 C 0.39009 0.8288 0.86467 0.0
H1009 H 0.37762 0.83636 0.80595 0.0
H1010 H 0.37769 0.80557 0.83663 0.0
C1011 C 0.39596 0.85236 0.8703 0.0
C1012 C 0.18596 0.38222 0.84156 0.0
C1013 C 0.18067 0.38989 0.86472 0.0
H1014 H 0.1732 0.37757 0.80595 0.0
C1015 C 0.1571 0.39573 0.87033 0.0
H1016 H 0.20395 0.37757 0.83668 0.0
C1017 C 0.13959 0.39572 0.85283 0.0
C1018 C 0.14518 0.38988 0.82926 0.0
H1019 H 0.15234 0.40147 0.88805 0.0
H1020 H 0.12188 0.40146 0.85761 0.0
C1021 C 0.16834 0.38222 0.82395 0.0
C1022 C 0.61398 0.13994 0.85272 0.0
C1023 C 0.61991 0.14551 0.82916 0.0
H1024 H 0.60815 0.15272 0.88791 0.0
C1025 C 0.62761 0.16865 0.82386 0.0
H1026 H 0.6082 0.12224 0.85749 0.0
C1027 C 0.62758 0.18628 0.84146 0.0
C1028 C 0.61985 0.18102 0.8646 0.0
H1029 H 0.63232 0.17349 0.80587 0.0
H1030 H 0.63228 0.20426 0.83659 0.0
C1031 C 0.61395 0.15746 0.87021 0.0
C1032 C 0.84131 0.38212 0.18605 0.0
C1033 C 0.86442 0.38994 0.18079 0.0
H1034 H 0.80572 0.37735 0.17329 0.0
C1035 C 0.86997 0.39598 0.15725 0.0
H1036 H 0.83648 0.37732 0.20402 0.0
C1037 C 0.85246 0.396 0.13976 0.0
C1038 C 0.82892 0.38997 0.14533 0.0
H1039 H 0.88765 0.40185 0.15251 0.0
H1040 H 0.85719 0.40188 0.12208 0.0
C1041 C 0.82369 0.38214 0.16845 0.0
C1042 C 0.62775 0.84193 0.18598 0.0
C1043 C 0.62002 0.86507 0.1807 0.0
H1044 H 0.63248 0.80634 0.17323 0.0
C1045 C 0.61411 0.87065 0.15713 0.0
H1046 H 0.63244 0.83708 0.20397 0.0
C1047 C 0.61413 0.85315 0.13963 0.0
C1048 C 0.62006 0.82959 0.14522 0.0
H1049 H 0.60832 0.88835 0.15238 0.0
H1050 H 0.60835 0.8579 0.12192 0.0
C1051 C 0.62777 0.82432 0.16836 0.0
C1052 C 0.16829 0.6277 0.18613 0.0
C1053 C 0.14516 0.61999 0.18078 0.0
H1054 H 0.20393 0.63241 0.17349 0.0
C1055 C 0.13964 0.61411 0.15719 0.0
H1056 H 0.1731 0.63237 0.20414 0.0
C1057 C 0.1572 0.61413 0.13974 0.0
C1058 C 0.18075 0.62003 0.1454 0.0
H1059 H 0.12196 0.60833 0.15238 0.0
H1060 H 0.1525 0.60837 0.12201 0.0
C1061 C 0.18596 0.62772 0.16857 0.0
C1062 C 0.38186 0.18577 0.16827 0.0
C1063 C 0.38958 0.18048 0.14513 0.0
H1064 H 0.3772 0.17305 0.20389 0.0
C1065 C 0.39554 0.15692 0.13957 0.0
H1066 H 0.37713 0.20375 0.17311 0.0
C1067 C 0.39558 0.13944 0.15709 0.0
C1068 C 0.38967 0.14505 0.18065 0.0
H1069 H 0.40132 0.15216 0.12187 0.0
H1070 H 0.4014 0.12175 0.15236 0.0
C1071 C 0.3819 0.16818 0.18591 0.0
C1072 C 0.87036 0.85302 0.61399 0.0
C1073 C 0.86481 0.82947 0.61999 0.0
H1074 H 0.85756 0.88819 0.60812 0.0
C1075 C 0.84168 0.82419 0.62776 0.0
H1076 H 0.88805 0.85778 0.60817 0.0
C1077 C 0.82405 0.84177 0.62773 0.0
C1078 C 0.82929 0.8649 0.61993 0.0
H1079 H 0.83686 0.80621 0.63252 0.0
H1080 H 0.80608 0.83691 0.63248 0.0
C1081 C 0.85283 0.8705 0.61396 0.0
C1082 C 0.84173 0.18567 0.38218 0.0
C1083 C 0.86485 0.18032 0.38991 0.0
H1084 H 0.80609 0.17305 0.37749 0.0
C1085 C 0.87035 0.15675 0.39585 0.0
H1086 H 0.83694 0.20367 0.37745 0.0
C1087 C 0.85278 0.13931 0.39587 0.0
C1088 C 0.82924 0.14498 0.38995 0.0
H1089 H 0.88803 0.15194 0.40165 0.0
H1090 H 0.85747 0.1216 0.40168 0.0
C1091 C 0.82405 0.16813 0.3822 0.0
C1092 C 0.82386 0.84158 0.38218 0.0
C1093 C 0.82908 0.86472 0.38993 0.0
H1094 H 0.83669 0.80602 0.37744 0.0
C1095 C 0.85262 0.87036 0.39588 0.0
H1096 H 0.80589 0.83669 0.37745 0.0
C1097 C 0.87016 0.85289 0.39587 0.0
C1098 C 0.86463 0.82933 0.38991 0.0
H1099 H 0.85733 0.88806 0.40169 0.0
H1100 H 0.88785 0.85768 0.40167 0.0
C1101 C 0.84151 0.82401 0.38217 0.0
C1102 C 0.13977 0.8524 0.39589 0.0
C1103 C 0.14535 0.82884 0.38996 0.0
H1104 H 0.15254 0.8876 0.40168 0.0
C1105 C 0.16849 0.82356 0.38222 0.0
H1106 H 0.12208 0.85716 0.40168 0.0
C1107 C 0.1861 0.84116 0.38222 0.0
C1108 C 0.18084 0.8643 0.38995 0.0
H1109 H 0.17333 0.80557 0.37751 0.0
H1110 H 0.20408 0.8363 0.37751 0.0
C1111 C 0.15728 0.8699 0.39588 0.0
C1112 C 0.15727 0.13946 0.39595 0.0
C1113 C 0.18083 0.14497 0.38999 0.0
H1114 H 0.12211 0.15231 0.40178 0.0
C1115 C 0.18617 0.16809 0.38225 0.0
H1116 H 0.15247 0.12177 0.40175 0.0
C1117 C 0.16861 0.18575 0.38226 0.0
C1118 C 0.14547 0.18055 0.39002 0.0
H1119 H 0.20416 0.17289 0.37752 0.0
H1120 H 0.17351 0.20372 0.37754 0.0
C1121 C 0.13982 0.15701 0.39596 0.0
C1122 C 0.1862 0.16843 0.62777 0.0
C1123 C 0.18084 0.1453 0.62007 0.0
H1124 H 0.1736 0.20409 0.63241 0.0
C1125 C 0.15726 0.13981 0.61413 0.0
H1126 H 0.2042 0.17322 0.63249 0.0
C1127 C 0.13983 0.15739 0.61408 0.0
C1128 C 0.14551 0.18093 0.61998 0.0
H1129 H 0.15244 0.12212 0.60836 0.0
H1130 H 0.12212 0.1527 0.60828 0.0
C1131 C 0.16867 0.18612 0.62773 0.0
C1132 C 0.82425 0.16844 0.62782 0.0
C1133 C 0.82948 0.14529 0.62007 0.0
H1134 H 0.83709 0.204 0.63256 0.0
C1135 C 0.85302 0.13965 0.61415 0.0
H1136 H 0.80628 0.17333 0.63253 0.0
C1137 C 0.87057 0.15712 0.61417 0.0
C1138 C 0.86504 0.18068 0.62011 0.0
H1139 H 0.85773 0.12195 0.60835 0.0
H1140 H 0.88826 0.15233 0.60838 0.0
C1141 C 0.84191 0.18601 0.62784 0.0
C1142 C 0.18613 0.84135 0.6277 0.0
C1143 C 0.18085 0.86449 0.61996 0.0
H1144 H 0.17339 0.80575 0.6324 0.0
C1145 C 0.15729 0.87006 0.61401 0.0
H1146 H 0.20411 0.83652 0.63243 0.0
C1147 C 0.1398 0.85254 0.61399 0.0
C1148 C 0.1454 0.82899 0.61993 0.0
H1149 H 0.15253 0.88775 0.6082 0.0
H1150 H 0.1221 0.85728 0.60818 0.0
C1151 C 0.16853 0.82373 0.62768 0.0
C1152 C 0.11713 0.2802 0.49241 0.0
C1153 C 0.11734 0.25866 0.47978 0.0
H1154 H 0.11596 0.29707 0.52652 0.0
C1155 C 0.11899 0.23731 0.49256 0.0
H1156 H 0.11592 0.29697 0.48312 0.0
C1157 C 0.11902 0.23736 0.51732 0.0
C1158 C 0.11738 0.25877 0.53001 0.0
H1159 H 0.11945 0.22039 0.48347 0.0
H1160 H 0.11949 0.22048 0.52649 0.0
C1161 C 0.11716 0.28025 0.51729 0.0
C1162 C 0.73002 0.11706 0.51755 0.0
C1163 C 0.75155 0.11716 0.53018 0.0
H1164 H 0.71316 0.11592 0.48343 0.0
C1165 C 0.77292 0.11864 0.51741 0.0
H1166 H 0.71323 0.11599 0.52683 0.0
C1167 C 0.77288 0.11859 0.49265 0.0
C1168 C 0.75147 0.11707 0.47995 0.0
H1169 H 0.78984 0.11901 0.52652 0.0
H1170 H 0.78977 0.11893 0.48349 0.0
C1171 C 0.72998 0.11702 0.49266 0.0
C1172 C 0.89158 0.77318 0.49261 0.0
C1173 C 0.89299 0.75178 0.47988 0.0
H1174 H 0.89131 0.7901 0.52649 0.0
C1175 C 0.893 0.73027 0.49256 0.0
H1176 H 0.89128 0.79008 0.48347 0.0
C1177 C 0.89301 0.73028 0.51744 0.0
C1178 C 0.89302 0.7518 0.53011 0.0
H1179 H 0.89402 0.71346 0.4833 0.0
H1180 H 0.89404 0.71348 0.5267 0.0
C1181 C 0.8916 0.77319 0.51736 0.0
C1182 C 0.28008 0.89283 0.49253 0.0
C1183 C 0.25857 0.89269 0.47986 0.0
H1184 H 0.29688 0.89401 0.52667 0.0
C1185 C 0.23718 0.89118 0.4926 0.0
H1186 H 0.29688 0.89393 0.48327 0.0
C1187 C 0.23718 0.89123 0.51735 0.0
C1188 C 0.25857 0.89279 0.53009 0.0
H1189 H 0.22028 0.89078 0.48347 0.0
H1190 H 0.22028 0.89086 0.52649 0.0
C1191 C 0.28008 0.89288 0.51742 0.0
C1192 C 0.11682 0.7296 0.51741 0.0
C1193 C 0.11705 0.75112 0.53007 0.0
H1194 H 0.11559 0.71279 0.48328 0.0
C1195 C 0.11867 0.77249 0.51732 0.0
H1196 H 0.11563 0.71281 0.52668 0.0
C1197 C 0.11865 0.77248 0.49257 0.0
C1198 C 0.117 0.75109 0.47984 0.0
H1199 H 0.11915 0.7894 0.52644 0.0
H1200 H 0.11911 0.78937 0.48342 0.0
C1201 C 0.1168 0.72959 0.49253 0.0
C1202 C 0.23695 0.11808 0.49269 0.0
C1203 C 0.25834 0.11662 0.47996 0.0
H1204 H 0.22004 0.11846 0.52657 0.0
C1205 C 0.27986 0.11662 0.49263 0.0
H1206 H 0.22004 0.11839 0.48355 0.0
C1207 C 0.27985 0.11666 0.51752 0.0
C1208 C 0.25834 0.11671 0.53018 0.0
H1209 H 0.29666 0.11556 0.48338 0.0
H1210 H 0.29665 0.11563 0.52678 0.0
C1211 C 0.23694 0.11813 0.51744 0.0
C1212 C 0.89327 0.27954 0.51733 0.0
C1213 C 0.89331 0.25805 0.53005 0.0
H1214 H 0.89425 0.29626 0.48315 0.0
C1215 C 0.89191 0.23663 0.51736 0.0
H1216 H 0.89427 0.29637 0.52655 0.0
C1217 C 0.8919 0.23657 0.49261 0.0
C1218 C 0.89328 0.25793 0.47982 0.0
H1219 H 0.89165 0.21974 0.52653 0.0
H1220 H 0.89163 0.21964 0.48351 0.0
C1221 C 0.89325 0.27948 0.49244 0.0
C1222 C 0.72979 0.89303 0.49255 0.0
C1223 C 0.75129 0.89287 0.47985 0.0
H1224 H 0.71304 0.89423 0.52671 0.0
C1225 C 0.77269 0.89134 0.49257 0.0
H1226 H 0.71298 0.89415 0.48331 0.0
C1227 C 0.77272 0.89138 0.51732 0.0
C1228 C 0.75135 0.89297 0.53008 0.0
H1229 H 0.78958 0.89092 0.48341 0.0
H1230 H 0.78964 0.891 0.52643 0.0
C1231 C 0.72982 0.89307 0.51744 0.0
C1232 C 0.49239 0.11859 0.23712 0.0
C1233 C 0.47963 0.11704 0.2585 0.0
H1234 H 0.5263 0.11905 0.22027 0.0
C1235 C 0.49227 0.11699 0.28003 0.0
H1236 H 0.48328 0.11893 0.2202 0.0
C1237 C 0.51715 0.11707 0.28007 0.0
C1238 C 0.52985 0.11719 0.25857 0.0
H1239 H 0.48299 0.11587 0.29682 0.0
H1240 H 0.52638 0.116 0.29688 0.0
C1241 C 0.51714 0.11867 0.23716 0.0
C1242 C 0.8911 0.51712 0.23752 0.0
C1243 C 0.89278 0.52981 0.25892 0.0
H1244 H 0.89061 0.48327 0.22055 0.0
C1245 C 0.89303 0.51711 0.28041 0.0
H1246 H 0.89061 0.52628 0.22063 0.0
C1247 C 0.89303 0.49222 0.28037 0.0
C1248 C 0.89278 0.47959 0.25883 0.0
H1249 H 0.89425 0.52633 0.29722 0.0
H1250 H 0.89426 0.48294 0.29714 0.0
C1251 C 0.8911 0.49237 0.23747 0.0
C1252 C 0.51725 0.89304 0.27974 0.0
C1253 C 0.52994 0.89309 0.25824 0.0
H1254 H 0.48309 0.89395 0.29652 0.0
C1255 C 0.51723 0.89166 0.23683 0.0
H1256 H 0.52648 0.89407 0.29656 0.0
C1257 C 0.49248 0.89159 0.2368 0.0
C1258 C 0.47972 0.89295 0.25819 0.0
H1259 H 0.52638 0.89141 0.21993 0.0
H1260 H 0.48336 0.89129 0.21989 0.0
C1261 C 0.49236 0.89297 0.27972 0.0
C1262 C 0.11684 0.51718 0.27965 0.0
C1263 C 0.11683 0.52988 0.25815 0.0
H1264 H 0.11581 0.48303 0.29642 0.0
C1265 C 0.11823 0.51717 0.23674 0.0
H1266 H 0.11583 0.52642 0.29647 0.0
C1267 C 0.11822 0.49242 0.23671 0.0
C1268 C 0.11681 0.47966 0.25809 0.0
H1269 H 0.11852 0.52632 0.21984 0.0
H1270 H 0.1185 0.4833 0.21979 0.0
C1271 C 0.11683 0.4923 0.27962 0.0
C1272 C 0.49254 0.89299 0.7301 0.0
C1273 C 0.47988 0.89288 0.75162 0.0
H1274 H 0.52667 0.89416 0.71328 0.0
C1275 C 0.49262 0.89142 0.77301 0.0
H1276 H 0.48328 0.89405 0.7133 0.0
C1277 C 0.51737 0.89148 0.773 0.0
C1278 C 0.5301 0.89301 0.7516 0.0
H1279 H 0.48349 0.89104 0.78991 0.0
H1280 H 0.52651 0.89115 0.7899 0.0
C1281 C 0.51742 0.89305 0.73009 0.0
C1282 C 0.11701 0.49268 0.73031 0.0
C1283 C 0.11698 0.47998 0.75181 0.0
H1284 H 0.11602 0.52684 0.71356 0.0
C1285 C 0.11837 0.49268 0.77323 0.0
H1286 H 0.11601 0.48345 0.71349 0.0
C1287 C 0.11838 0.51743 0.77327 0.0
C1288 C 0.11699 0.5302 0.75189 0.0
H1289 H 0.11864 0.48352 0.79012 0.0
H1290 H 0.11865 0.52654 0.79019 0.0
C1291 C 0.11702 0.51756 0.73035 0.0
C1292 C 0.49254 0.11842 0.77291 0.0
C1293 C 0.47979 0.11685 0.75153 0.0
H1294 H 0.52643 0.11891 0.78979 0.0
C1295 C 0.49245 0.11677 0.73 0.0
H1296 H 0.48341 0.11878 0.78982 0.0
C1297 C 0.51733 0.11685 0.72999 0.0
C1298 C 0.53002 0.117 0.7515 0.0
H1299 H 0.48319 0.11563 0.71321 0.0
H1300 H 0.52658 0.11576 0.71318 0.0
C1301 C 0.51729 0.1185 0.77289 0.0
C1302 C 0.89308 0.51749 0.72972 0.0
C1303 C 0.89288 0.53014 0.75124 0.0
H1304 H 0.89426 0.48336 0.71289 0.0
C1305 C 0.89124 0.51738 0.77261 0.0
H1306 H 0.89428 0.52676 0.71293 0.0
C1307 C 0.89123 0.49263 0.77259 0.0
C1308 C 0.89286 0.47991 0.75119 0.0
H1309 H 0.89078 0.5265 0.78953 0.0
H1310 H 0.89077 0.48348 0.78948 0.0
C1311 C 0.89307 0.4926 0.72969 0.0
C1312 C 0.23715 0.51741 0.11871 0.0
C1313 C 0.25854 0.53013 0.11725 0.0
H1314 H 0.22022 0.48353 0.119 0.0
C1315 C 0.28005 0.51746 0.11717 0.0
H1316 H 0.22025 0.52655 0.11907 0.0
C1317 C 0.28004 0.49257 0.11713 0.0
C1318 C 0.25852 0.47991 0.11717 0.0
H1319 H 0.29686 0.52671 0.11611 0.0
H1320 H 0.29684 0.48331 0.11605 0.0
C1321 C 0.23713 0.49266 0.11868 0.0
C1322 C 0.27977 0.51748 0.89299 0.0
C1323 C 0.25826 0.53016 0.89307 0.0
H1324 H 0.29657 0.48334 0.8939 0.0
C1325 C 0.23686 0.51743 0.89167 0.0
H1326 H 0.29658 0.52673 0.89399 0.0
C1327 C 0.23685 0.49268 0.89161 0.0
C1328 C 0.25824 0.47994 0.89296 0.0
H1329 H 0.21995 0.52657 0.89143 0.0
H1330 H 0.21994 0.48356 0.89134 0.0
C1331 C 0.27976 0.4926 0.89293 0.0
C1332 C 0.49228 0.28015 0.89297 0.0
C1333 C 0.47964 0.25862 0.89283 0.0
H1334 H 0.52639 0.297 0.8941 0.0
C1335 C 0.49241 0.23725 0.89126 0.0
H1336 H 0.483 0.29693 0.89411 0.0
C1337 C 0.51716 0.23729 0.89126 0.0
C1338 C 0.52986 0.2587 0.89282 0.0
H1339 H 0.4833 0.22033 0.89086 0.0
H1340 H 0.52632 0.2204 0.89085 0.0
C1341 C 0.51716 0.28019 0.89297 0.0
C1342 C 0.73022 0.51737 0.89319 0.0
C1343 C 0.75175 0.53002 0.89317 0.0
H1344 H 0.71339 0.48324 0.89419 0.0
C1345 C 0.77313 0.51727 0.8917 0.0
H1346 H 0.71343 0.52664 0.89426 0.0
C1347 C 0.77311 0.49252 0.89165 0.0
C1348 C 0.75171 0.4798 0.89309 0.0
H1349 H 0.79004 0.52639 0.89139 0.0
H1350 H 0.79001 0.48338 0.89131 0.0
C1351 C 0.7302 0.49249 0.89315 0.0
C1352 C 0.49285 0.72971 0.89298 0.0
C1353 C 0.48013 0.75119 0.89285 0.0
H1354 H 0.52703 0.71299 0.89413 0.0
C1355 C 0.49282 0.7726 0.8913 0.0
H1356 H 0.48364 0.71289 0.89411 0.0
C1357 C 0.51757 0.77266 0.89131 0.0
C1358 C 0.53036 0.75131 0.89287 0.0
H1359 H 0.48365 0.78949 0.8909 0.0
H1360 H 0.52667 0.78959 0.89092 0.0
C1361 C 0.51774 0.72977 0.89299 0.0
C1362 C 0.72953 0.51734 0.11691 0.0
C1363 C 0.75105 0.52999 0.1172 0.0
H1364 H 0.71272 0.48321 0.11561 0.0
C1365 C 0.77242 0.51724 0.11886 0.0
H1366 H 0.71275 0.52661 0.11569 0.0
C1367 C 0.77241 0.49249 0.11882 0.0
C1368 C 0.75102 0.47977 0.1171 0.0
H1369 H 0.78933 0.52637 0.11939 0.0
H1370 H 0.7893 0.48335 0.1193 0.0
C1371 C 0.72952 0.49246 0.11686 0.0
C1372 C 0.51739 0.77318 0.11838 0.0
C1373 C 0.53018 0.75181 0.11699 0.0
H1374 H 0.48347 0.79 0.11865 0.0
C1375 C 0.51756 0.73027 0.11704 0.0
H1376 H 0.52648 0.7901 0.11864 0.0
C1377 C 0.49268 0.73021 0.11705 0.0
C1378 C 0.47996 0.75169 0.11701 0.0
H1379 H 0.52686 0.71348 0.11604 0.0
H1380 H 0.48346 0.71337 0.11606 0.0
C1381 C 0.49264 0.77311 0.11839 0.0
C1382 C 0.51699 0.23681 0.11831 0.0
C1383 C 0.52969 0.25823 0.11692 0.0
H1384 H 0.48313 0.21986 0.11857 0.0
C1385 C 0.51699 0.27972 0.11695 0.0
H1386 H 0.52614 0.21992 0.11859 0.0
C1387 C 0.49211 0.27968 0.11694 0.0
C1388 C 0.47947 0.25815 0.1169 0.0
H1389 H 0.52622 0.29654 0.11595 0.0
H1390 H 0.48283 0.29648 0.11593 0.0
C1391 C 0.49223 0.23678 0.1183 0.0
C1392 C 0.61876 0.73732 0.0174 0.0
C1393 C 0.61718 0.75873 0.03009 0.0
H1394 H 0.61919 0.72035 0.98354 0.0
C1395 C 0.61705 0.78022 0.01738 0.0
H1396 H 0.61916 0.72044 0.02656 0.0
C1397 C 0.61707 0.78017 0.99249 0.0
C1398 C 0.61722 0.75863 0.97987 0.0
H1399 H 0.6159 0.79703 0.02661 0.0
H1400 H 0.61593 0.79695 0.98321 0.0
C1401 C 0.61878 0.73727 0.99264 0.0
C1402 C 0.23012 0.61707 0.9928 0.0
C1403 C 0.25162 0.61705 0.98011 0.0
H1404 H 0.21334 0.61606 0.02695 0.0
C1405 C 0.27303 0.61846 0.99282 0.0
H1406 H 0.21331 0.61606 0.98356 0.0
C1407 C 0.27305 0.61846 0.01758 0.0
C1408 C 0.25167 0.61706 0.03034 0.0
H1409 H 0.28993 0.61874 0.98367 0.0
H1410 H 0.28997 0.61874 0.0267 0.0
C1411 C 0.23014 0.61707 0.01768 0.0
C1412 C 0.39267 0.22984 0.01726 0.0
C1413 C 0.39255 0.25133 0.02997 0.0
H1414 H 0.39382 0.2131 0.98308 0.0
C1415 C 0.39105 0.27274 0.01727 0.0
H1416 H 0.39375 0.21303 0.02648 0.0
C1417 C 0.39109 0.27279 0.99251 0.0
C1418 C 0.39263 0.25142 0.97974 0.0
H1419 H 0.39067 0.28963 0.02643 0.0
H1420 H 0.39073 0.28971 0.98341 0.0
C1421 C 0.3927 0.22989 0.99237 0.0
C1422 C 0.73697 0.39122 0.01731 0.0
C1423 C 0.75832 0.39282 0.03011 0.0
H1424 H 0.72016 0.39078 0.98337 0.0
C1425 C 0.77987 0.39296 0.0175 0.0
H1426 H 0.72004 0.39081 0.0264 0.0
C1427 C 0.77994 0.39294 0.99261 0.0
C1428 C 0.75846 0.39278 0.97988 0.0
H1429 H 0.79664 0.39412 0.02681 0.0
H1430 H 0.79676 0.39409 0.9834 0.0
C1431 C 0.73704 0.3912 0.99256 0.0
C1432 C 0.61815 0.27307 0.99258 0.0
C1433 C 0.61671 0.2517 0.9798 0.0
H1434 H 0.61843 0.28991 0.0265 0.0
C1435 C 0.61667 0.23017 0.99243 0.0
H1436 H 0.61847 0.28999 0.98348 0.0
C1437 C 0.61665 0.23012 0.01732 0.0
C1438 C 0.61667 0.25161 0.03003 0.0
H1439 H 0.61564 0.21338 0.98314 0.0
H1440 H 0.6156 0.2133 0.02654 0.0
C1441 C 0.61813 0.27302 0.01733 0.0
C1442 C 0.78001 0.61679 0.01777 0.0
C1443 C 0.75846 0.61696 0.03037 0.0
H1444 H 0.79691 0.61563 0.98367 0.0
C1445 C 0.73712 0.61856 0.01757 0.0
H1446 H 0.79678 0.61563 0.02707 0.0
C1447 C 0.73719 0.61856 0.99282 0.0
C1448 C 0.75861 0.61696 0.98015 0.0
H1449 H 0.72019 0.61899 0.02666 0.0
H1450 H 0.72032 0.61899 0.98364 0.0
C1451 C 0.78009 0.61679 0.99288 0.0
C1452 C 0.39183 0.73664 0.99257 0.0
C1453 C 0.39319 0.75801 0.9798 0.0
H1454 H 0.39153 0.71979 0.02649 0.0
C1455 C 0.39311 0.77955 0.99244 0.0
H1456 H 0.3916 0.71972 0.98347 0.0
C1457 C 0.39307 0.77959 0.01732 0.0
C1458 C 0.39311 0.7581 0.03003 0.0
H1459 H 0.39409 0.79634 0.98315 0.0
H1460 H 0.39402 0.79642 0.02655 0.0
C1461 C 0.39178 0.73668 0.01733 0.0
C1462 C 0.23008 0.39306 0.01742 0.0
C1463 C 0.2516 0.39309 0.03007 0.0
H1464 H 0.21323 0.39403 0.9833 0.0
C1465 C 0.27299 0.3917 0.01731 0.0
H1466 H 0.21328 0.39406 0.0267 0.0
C1467 C 0.27296 0.39167 0.99256 0.0
C1468 C 0.25155 0.39305 0.97985 0.0
H1469 H 0.2899 0.39143 0.02643 0.0
H1470 H 0.28986 0.3914 0.98341 0.0
C1471 C 0.23005 0.39303 0.99254 0.0
C1472 C 0.01738 0.61865 0.73726 0.0
C1473 C 0.03006 0.61711 0.75869 0.0
H1474 H 0.98354 0.61901 0.72027 0.0
C1475 C 0.01734 0.61698 0.78017 0.0
H1476 H 0.02656 0.61905 0.72038 0.0
C1477 C 0.99245 0.61696 0.7801 0.0
C1478 C 0.97984 0.61707 0.75855 0.0
H1479 H 0.02655 0.61586 0.79699 0.0
H1480 H 0.98316 0.61583 0.79688 0.0
C1481 C 0.99263 0.61863 0.7372 0.0
C1482 C 0.39127 0.99235 0.73723 0.0
C1483 C 0.39284 0.97962 0.75862 0.0
H1484 H 0.39088 0.02622 0.72031 0.0
C1485 C 0.39298 0.9923 0.78013 0.0
H1486 H 0.39086 0.98321 0.72032 0.0
C1487 C 0.39299 0.01718 0.78012 0.0
C1488 C 0.39286 0.02984 0.7586 0.0
H1489 H 0.39412 0.98305 0.79693 0.0
H1490 H 0.39413 0.02644 0.79692 0.0
C1491 C 0.39128 0.0171 0.73722 0.0
C1492 C 0.01734 0.39308 0.77988 0.0
C1493 C 0.03005 0.39303 0.75839 0.0
H1494 H 0.98317 0.39415 0.79662 0.0
C1495 C 0.01735 0.39156 0.73697 0.0
H1496 H 0.02656 0.39415 0.7967 0.0
C1497 C 0.9926 0.39156 0.73692 0.0
C1498 C 0.97982 0.39303 0.7583 0.0
H1499 H 0.02652 0.39122 0.72008 0.0
H1500 H 0.9835 0.39122 0.72 0.0
C1501 C 0.99245 0.39308 0.77983 0.0
C1502 C 0.61692 0.99272 0.78003 0.0
C1503 C 0.61701 0.98004 0.75852 0.0
H1504 H 0.61582 0.02686 0.79681 0.0
C1505 C 0.61854 0.99276 0.73712 0.0
H1506 H 0.61581 0.98347 0.79683 0.0
C1507 C 0.61855 0.01751 0.73711 0.0
C1508 C 0.61703 0.03026 0.75849 0.0
H1509 H 0.61891 0.98362 0.72022 0.0
H1510 H 0.61893 0.02663 0.7202 0.0
C1511 C 0.61693 0.0176 0.78001 0.0
C1512 C 0.99231 0.39285 0.22981 0.0
C1513 C 0.9797 0.39267 0.25135 0.0
H1514 H 0.02641 0.39401 0.21292 0.0
C1515 C 0.99249 0.39106 0.2727 0.0
H1516 H 0.98302 0.39402 0.21303 0.0
C1517 C 0.01724 0.39106 0.27264 0.0
C1518 C 0.02992 0.39266 0.25123 0.0
H1519 H 0.9834 0.39063 0.28963 0.0
H1520 H 0.02642 0.39062 0.28952 0.0
C1521 C 0.0172 0.39284 0.22974 0.0
C1522 C 0.61681 0.01773 0.23015 0.0
C1523 C 0.61681 0.03037 0.25169 0.0
H1524 H 0.6158 0.98361 0.2133 0.0
C1525 C 0.61822 0.01761 0.27307 0.0
H1526 H 0.61579 0.027 0.21336 0.0
C1527 C 0.61822 0.99286 0.27303 0.0
C1528 C 0.61681 0.98015 0.25162 0.0
H1529 H 0.61851 0.02672 0.28999 0.0
H1530 H 0.61851 0.9837 0.28993 0.0
C1531 C 0.61682 0.99284 0.23012 0.0
C1532 C 0.01726 0.61829 0.273 0.0
C1533 C 0.02993 0.6168 0.25157 0.0
H1534 H 0.98343 0.61862 0.29001 0.0
C1535 C 0.01719 0.61671 0.23009 0.0
H1536 H 0.02645 0.61866 0.28987 0.0
C1537 C 0.9923 0.61669 0.23017 0.0
C1538 C 0.97971 0.61676 0.25173 0.0
H1539 H 0.02639 0.61563 0.21326 0.0
H1540 H 0.983 0.61559 0.2134 0.0
C1541 C 0.99251 0.61827 0.27308 0.0
C1542 C 0.39282 0.0173 0.22989 0.0
C1543 C 0.39276 0.02995 0.25142 0.0
H1544 H 0.39388 0.98318 0.21305 0.0
C1545 C 0.39125 0.01719 0.2728 0.0
H1546 H 0.39391 0.02657 0.2131 0.0
C1547 C 0.39123 0.99244 0.27277 0.0
C1548 C 0.39272 0.97973 0.25137 0.0
H1549 H 0.39091 0.02631 0.28972 0.0
H1550 H 0.39088 0.98329 0.28967 0.0
C1551 C 0.3928 0.99242 0.22987 0.0
C1552 C 0.78006 0.01755 0.61691 0.0
C1553 C 0.75856 0.03023 0.61706 0.0
H1554 H 0.79683 0.9834 0.61573 0.0
C1555 C 0.73716 0.01751 0.61859 0.0
H1556 H 0.79687 0.02679 0.61579 0.0
C1557 C 0.73714 0.99276 0.61856 0.0
C1558 C 0.75852 0.98001 0.61699 0.0
H1559 H 0.72027 0.02666 0.619 0.0
H1560 H 0.72023 0.98364 0.61894 0.0
C1561 C 0.78004 0.99266 0.61687 0.0
C1562 C 0.7797 0.01735 0.39305 0.0
C1563 C 0.75819 0.03003 0.39304 0.0
H1564 H 0.79649 0.98321 0.39406 0.0
C1565 C 0.7368 0.0173 0.39159 0.0
H1566 H 0.79651 0.0266 0.3941 0.0
C1567 C 0.73679 0.99255 0.39156 0.0
C1568 C 0.75818 0.97981 0.39299 0.0
H1569 H 0.71989 0.02644 0.39128 0.0
H1570 H 0.71988 0.98343 0.39124 0.0
C1571 C 0.77969 0.99247 0.39302 0.0
C1572 C 0.99258 0.77996 0.393 0.0
C1573 C 0.97984 0.75849 0.39287 0.0
H1574 H 0.02677 0.79665 0.39413 0.0
C1575 C 0.99251 0.73706 0.39132 0.0
H1576 H 0.98337 0.79679 0.39412 0.0
C1577 C 0.01726 0.73699 0.39133 0.0
C1578 C 0.03006 0.75833 0.39288 0.0
H1579 H 0.98332 0.72019 0.39092 0.0
H1580 H 0.02634 0.72005 0.39093 0.0
C1581 C 0.01746 0.77988 0.393 0.0
C1582 C 0.23 0.01703 0.393 0.0
C1583 C 0.25151 0.02972 0.39294 0.0
H1584 H 0.21323 0.98288 0.39406 0.0
C1585 C 0.27291 0.017 0.39142 0.0
H1586 H 0.21319 0.02627 0.3941 0.0
C1587 C 0.27293 0.99225 0.39139 0.0
C1588 C 0.25155 0.9795 0.39289 0.0
H1589 H 0.2898 0.02615 0.39107 0.0
H1590 H 0.28984 0.98313 0.39103 0.0
C1591 C 0.23002 0.99215 0.39297 0.0
C1592 C 0.01754 0.27254 0.39126 0.0
C1593 C 0.03034 0.2512 0.39287 0.0
H1594 H 0.98361 0.28935 0.3908 0.0
C1595 C 0.01773 0.22965 0.39303 0.0
H1596 H 0.02662 0.28947 0.39084 0.0
C1597 C 0.99285 0.22958 0.39301 0.0
C1598 C 0.98012 0.25105 0.39283 0.0
H1599 H 0.02704 0.21288 0.3942 0.0
H1600 H 0.98364 0.21275 0.39417 0.0
C1601 C 0.99279 0.27247 0.39124 0.0
C1602 C 0.27282 0.01722 0.61872 0.0
C1603 C 0.25142 0.02993 0.61719 0.0
H1604 H 0.28977 0.98336 0.61907 0.0
C1605 C 0.22992 0.01724 0.61705 0.0
H1606 H 0.28972 0.02637 0.61913 0.0
C1607 C 0.22995 0.99236 0.61701 0.0
C1608 C 0.25148 0.97971 0.61712 0.0
H1609 H 0.21311 0.02648 0.61593 0.0
H1610 H 0.21316 0.98308 0.61588 0.0
C1611 C 0.27285 0.99247 0.61869 0.0
C1612 C 0.9929 0.273 0.61844 0.0
C1613 C 0.98022 0.25157 0.617 0.0
H1614 H 0.02674 0.29 0.61873 0.0
C1615 C 0.99295 0.2301 0.61696 0.0
H1616 H 0.98372 0.28988 0.61876 0.0
C1617 C 0.01784 0.23017 0.61694 0.0
C1618 C 0.03045 0.25172 0.61695 0.0
H1619 H 0.98375 0.21327 0.61592 0.0
H1620 H 0.02714 0.21339 0.61588 0.0
C1621 C 0.01765 0.27307 0.61842 0.0
C1622 C 0.01737 0.73707 0.61859 0.0
C1623 C 0.03017 0.75842 0.61704 0.0
H1624 H 0.98344 0.72027 0.619 0.0
C1625 C 0.01757 0.77997 0.61692 0.0
H1626 H 0.02646 0.72014 0.61898 0.0
C1627 C 0.99268 0.78004 0.61693 0.0
C1628 C 0.97995 0.75857 0.61706 0.0
H1629 H 0.02687 0.79674 0.6158 0.0
H1630 H 0.98347 0.79687 0.61581 0.0
C1631 C 0.99262 0.73714 0.6186 0.0
loop_
_geom_bond_atom_site_label_1
_geom_bond_atom_site_label_2
_geom_bond_distance
_geom_bond_site_symmetry_2
_ccdc_geom_bond_type
O0 Cd1 2.223 . S
O0 C8 1.315 . S
Cd1 O0 2.223 . S
Cd1 O4 2.297 . S
Cd1 O5 2.439 . S
Cd1 O11 2.240 . S
Cd2 O3 2.240 . S
Cd2 O10 2.223 . S
Cd2 O12 2.297 . S
Cd2 O13 2.439 . S
O3 Cd2 2.240 . S
O3 C8 1.279 . S
O4 Cd1 2.297 . S
O4 C6 1.247 . S
O5 Cd1 2.439 . S
O5 C6 1.208 . S
C6 O4 1.247 . S
C6 O5 1.208 . S
C7 O12 1.247 . S
C7 O13 1.208 . S
C8 O0 1.315 . S
C8 O3 1.279 . S
C9 O10 1.315 . S
C9 O11 1.279 . S
O10 Cd2 2.223 . S
O10 C9 1.315 . S
O11 Cd1 2.240 . S
O11 C9 1.279 . S
O12 Cd2 2.297 . S
O12 C7 1.247 . S
O13 Cd2 2.439 . S
O13 C7 1.208 . S
O14 Cd15 2.223 . S
O14 C22 1.315 . S
Cd15 O14 2.223 . S
Cd15 O18 2.297 . S
Cd15 O19 2.439 . S
Cd15 O25 2.240 . S
Cd16 O17 2.240 . S
Cd16 O24 2.223 . S
Cd16 O26 2.297 . S
Cd16 O27 2.439 . S
O17 Cd16 2.240 . S
O17 C22 1.279 . S
O18 Cd15 2.297 . S
O18 C20 1.247 . S
O19 Cd15 2.439 . S
O19 C20 1.208 . S
C20 O18 1.247 . S
C20 O19 1.208 . S
C21 O26 1.247 . S
C21 O27 1.208 . S
C22 O14 1.315 . S
C22 O17 1.279 . S
C23 O24 1.315 . S
C23 O25 1.279 . S
O24 Cd16 2.223 . S
O24 C23 1.315 . S
O25 Cd15 2.240 . S
O25 C23 1.279 . S
O26 Cd16 2.297 . S
O26 C21 1.247 . S
O27 Cd16 2.439 . S
O27 C21 1.208 . S
O28 Cd29 2.223 . S
O28 C36 1.315 . S
Cd29 O28 2.223 . S
Cd29 O32 2.297 . S
Cd29 O33 2.439 . S
Cd29 O39 2.240 . S
Cd30 O31 2.240 . S
Cd30 O38 2.223 . S
Cd30 O40 2.297 . S
Cd30 O41 2.439 . S
O31 Cd30 2.240 . S
O31 C36 1.279 . S
O32 Cd29 2.297 . S
O32 C34 1.247 . S
O33 Cd29 2.439 . S
O33 C34 1.208 . S
C34 O32 1.247 . S
C34 O33 1.208 . S
C35 O40 1.247 . S
C35 O41 1.208 . S
C36 O28 1.315 . S
C36 O31 1.279 . S
C37 O38 1.315 . S
C37 O39 1.279 . S
O38 Cd30 2.223 . S
O38 C37 1.315 . S
O39 Cd29 2.240 . S
O39 C37 1.279 . S
O40 Cd30 2.297 . S
O40 C35 1.247 . S
O41 Cd30 2.439 . S
O41 C35 1.208 . S
O42 Cd43 2.223 . S
O42 C50 1.315 . S
Cd43 O42 2.223 . S
Cd43 O46 2.297 . S
Cd43 O47 2.439 . S
Cd43 O53 2.240 . S
Cd44 O45 2.240 . S
Cd44 O52 2.223 . S
Cd44 O54 2.297 . S
Cd44 O55 2.439 . S
O45 Cd44 2.240 . S
O45 C50 1.279 . S
O46 Cd43 2.297 . S
O46 C48 1.247 . S
O47 Cd43 2.439 . S
O47 C48 1.208 . S
C48 O46 1.247 . S
C48 O47 1.208 . S
C49 O54 1.247 . S
C49 O55 1.208 . S
C50 O42 1.315 . S
C50 O45 1.279 . S
C51 O52 1.315 . S
C51 O53 1.279 . S
O52 Cd44 2.223 . S
O52 C51 1.315 . S
O53 Cd43 2.240 . S
O53 C51 1.279 . S
O54 Cd44 2.297 . S
O54 C49 1.247 . S
O55 Cd44 2.439 . S
O55 C49 1.208 . S
O56 Cd57 2.223 . S
O56 C64 1.315 . S
Cd57 O56 2.223 . S
Cd57 O60 2.297 . S
Cd57 O61 2.439 . S
Cd57 O67 2.240 . S
Cd58 O59 2.240 . S
Cd58 O66 2.223 . S
Cd58 O68 2.297 . S
Cd58 O69 2.439 . S
O59 Cd58 2.240 . S
O59 C64 1.279 . S
O60 Cd57 2.297 . S
O60 C62 1.247 . S
O61 Cd57 2.439 . S
O61 C62 1.208 . S
C62 O60 1.247 . S
C62 O61 1.208 . S
C63 O68 1.247 . S
C63 O69 1.208 . S
C64 O56 1.315 . S
C64 O59 1.279 . S
C65 O66 1.315 . S
C65 O67 1.279 . S
O66 Cd58 2.223 . S
O66 C65 1.315 . S
O67 Cd57 2.240 . S
O67 C65 1.279 . S
O68 Cd58 2.297 . S
O68 C63 1.247 . S
O69 Cd58 2.439 . S
O69 C63 1.208 . S
O70 Cd71 2.223 . S
O70 C78 1.315 . S
Cd71 O70 2.223 . S
Cd71 O74 2.297 . S
Cd71 O75 2.439 . S
Cd71 O81 2.240 . S
Cd72 O73 2.240 . S
Cd72 O80 2.223 . S
Cd72 O82 2.297 . S
Cd72 O83 2.439 . S
O73 Cd72 2.240 . S
O73 C78 1.279 . S
O74 Cd71 2.297 . S
O74 C76 1.247 . S
O75 Cd71 2.439 . S
O75 C76 1.208 . S
C76 O74 1.247 . S
C76 O75 1.208 . S
C77 O82 1.247 . S
C77 O83 1.208 . S
C78 O70 1.315 . S
C78 O73 1.279 . S
C79 O80 1.315 . S
C79 O81 1.279 . S
O80 Cd72 2.223 . S
O80 C79 1.315 . S
O81 Cd71 2.240 . S
O81 C79 1.279 . S
O82 Cd72 2.297 . S
O82 C77 1.247 . S
O83 Cd72 2.439 . S
O83 C77 1.208 . S
O84 Cd85 2.223 . S
O84 C92 1.315 . S
Cd85 O84 2.223 . S
Cd85 O88 2.297 . S
Cd85 O89 2.439 . S
Cd85 O95 2.240 . S
Cd86 O87 2.240 . S
Cd86 O94 2.223 . S
Cd86 O96 2.297 . S
Cd86 O97 2.439 . S
O87 Cd86 2.240 . S
O87 C92 1.279 . S
O88 Cd85 2.297 . S
O88 C90 1.247 . S
O89 Cd85 2.439 . S
O89 C90 1.208 . S
C90 O88 1.247 . S
C90 O89 1.208 . S
C91 O96 1.247 . S
C91 O97 1.208 . S
C92 O84 1.315 . S
C92 O87 1.279 . S
C93 O94 1.315 . S
C93 O95 1.279 . S
O94 Cd86 2.223 . S
O94 C93 1.315 . S
O95 Cd85 2.240 . S
O95 C93 1.279 . S
O96 Cd86 2.297 . S
O96 C91 1.247 . S
O97 Cd86 2.439 . S
O97 C91 1.208 . S
O98 Cd99 2.223 . S
O98 C106 1.315 . S
Cd99 O98 2.223 . S
Cd99 O102 2.297 . S
Cd99 O103 2.439 . S
Cd99 O109 2.240 . S
Cd100 O101 2.240 . S
Cd100 O108 2.223 . S
Cd100 O110 2.297 . S
Cd100 O111 2.439 . S
O101 Cd100 2.240 . S
O101 C106 1.279 . S
O102 Cd99 2.297 . S
O102 C104 1.247 . S
O103 Cd99 2.439 . S
O103 C104 1.208 . S
C104 O102 1.247 . S
C104 O103 1.208 . S
C105 O110 1.247 . S
C105 O111 1.208 . S
C106 O98 1.315 . S
C106 O101 1.279 . S
C107 O108 1.315 . S
C107 O109 1.279 . S
O108 Cd100 2.223 . S
O108 C107 1.315 . S
O109 Cd99 2.240 . S
O109 C107 1.279 . S
O110 Cd100 2.297 . S
O110 C105 1.247 . S
O111 Cd100 2.439 . S
O111 C105 1.208 . S
O112 Cd113 2.223 . S
O112 C120 1.315 . S
Cd113 O112 2.223 . S
Cd113 O116 2.297 . S
Cd113 O117 2.439 . S
Cd113 O123 2.240 . S
Cd114 O115 2.240 . S
Cd114 O122 2.223 . S
Cd114 O124 2.297 . S
Cd114 O125 2.439 . S
O115 Cd114 2.240 . S
O115 C120 1.279 . S
O116 Cd113 2.297 . S
O116 C118 1.247 . S
O117 Cd113 2.439 . S
O117 C118 1.208 . S
C118 O116 1.247 . S
C118 O117 1.208 . S
C119 O124 1.247 . S
C119 O125 1.208 . S
C120 O112 1.315 . S
C120 O115 1.279 . S
C121 O122 1.315 . S
C121 O123 1.279 . S
O122 Cd114 2.223 . S
O122 C121 1.315 . S
O123 Cd113 2.240 . S
O123 C121 1.279 . S
O124 Cd114 2.297 . S
O124 C119 1.247 . S
O125 Cd114 2.439 . S
O125 C119 1.208 . S
O126 Cd127 2.223 . S
O126 C134 1.315 . S
Cd127 O126 2.223 . S
Cd127 O130 2.297 . S
Cd127 O131 2.439 . S
Cd127 O137 2.240 . S
Cd128 O129 2.240 . S
Cd128 O136 2.223 . S
Cd128 O138 2.297 . S
Cd128 O139 2.439 . S
O129 Cd128 2.240 . S
O129 C134 1.279 . S
O130 Cd127 2.297 . S
O130 C132 1.247 . S
O131 Cd127 2.439 . S
O131 C132 1.208 . S
C132 O130 1.247 . S
C132 O131 1.208 . S
C133 O138 1.247 . S
C133 O139 1.208 . S
C134 O126 1.315 . S
C134 O129 1.279 . S
C135 O136 1.315 . S
C135 O137 1.279 . S
O136 Cd128 2.223 . S
O136 C135 1.315 . S
O137 Cd127 2.240 . S
O137 C135 1.279 . S
O138 Cd128 2.297 . S
O138 C133 1.247 . S
O139 Cd128 2.439 . S
O139 C133 1.208 . S
O140 Cd141 2.223 . S
O140 C148 1.315 . S
Cd141 O140 2.223 . S
Cd141 O144 2.297 . S
Cd141 O145 2.439 . S
Cd141 O151 2.240 . S
Cd142 O143 2.240 . S
Cd142 O150 2.223 . S
Cd142 O152 2.297 . S
Cd142 O153 2.439 . S
O143 Cd142 2.240 . S
O143 C148 1.279 . S
O144 Cd141 2.297 . S
O144 C146 1.247 . S
O145 Cd141 2.439 . S
O145 C146 1.208 . S
C146 O144 1.247 . S
C146 O145 1.208 . S
C147 O152 1.247 . S
C147 O153 1.208 . S
C148 O140 1.315 . S
C148 O143 1.279 . S
C149 O150 1.315 . S
C149 O151 1.279 . S
O150 Cd142 2.223 . S
O150 C149 1.315 . S
O151 Cd141 2.240 . S
O151 C149 1.279 . S
O152 Cd142 2.297 . S
O152 C147 1.247 . S
O153 Cd142 2.439 . S
O153 C147 1.208 . S
O154 Cd155 2.223 . S
O154 C162 1.315 . S
Cd155 O154 2.223 . S
Cd155 O158 2.297 . S
Cd155 O159 2.439 . S
Cd155 O165 2.240 . S
Cd156 O157 2.240 . S
Cd156 O164 2.223 . S
Cd156 O166 2.297 . S
Cd156 O167 2.439 . S
O157 Cd156 2.240 . S
O157 C162 1.279 . S
O158 Cd155 2.297 . S
O158 C160 1.247 . S
O159 Cd155 2.439 . S
O159 C160 1.208 . S
C160 O158 1.247 . S
C160 O159 1.208 . S
C161 O166 1.247 . S
C161 O167 1.208 . S
C162 O154 1.315 . S
C162 O157 1.279 . S
C163 O164 1.315 . S
C163 O165 1.279 . S
O164 Cd156 2.223 . S
O164 C163 1.315 . S
O165 Cd155 2.240 . S
O165 C163 1.279 . S
O166 Cd156 2.297 . S
O166 C161 1.247 . S
O167 Cd156 2.439 . S
O167 C161 1.208 . S
O168 Cd169 2.223 . S
O168 C176 1.315 . S
Cd169 O168 2.223 . S
Cd169 O172 2.297 . S
Cd169 O173 2.439 . S
Cd169 O179 2.240 . S
Cd170 O171 2.240 . S
Cd170 O178 2.223 . S
Cd170 O180 2.297 . S
Cd170 O181 2.439 . S
O171 Cd170 2.240 . S
O171 C176 1.279 . S
O172 Cd169 2.297 . S
O172 C174 1.247 . S
O173 Cd169 2.439 . S
O173 C174 1.208 . S
C174 O172 1.247 . S
C174 O173 1.208 . S
C175 O180 1.247 . S
C175 O181 1.208 . S
C176 O168 1.315 . S
C176 O171 1.279 . S
C177 O178 1.315 . S
C177 O179 1.279 . S
O178 Cd170 2.223 . S
O178 C177 1.315 . S
O179 Cd169 2.240 . S
O179 C177 1.279 . S
O180 Cd170 2.297 . S
O180 C175 1.247 . S
O181 Cd170 2.439 . S
O181 C175 1.208 . S
O182 Cd183 2.223 . S
O182 C190 1.315 . S
Cd183 O182 2.223 . S
Cd183 O186 2.297 . S
Cd183 O187 2.439 . S
Cd183 O193 2.240 . S
Cd184 O185 2.240 . S
Cd184 O192 2.223 . S
Cd184 O194 2.297 . S
Cd184 O195 2.439 . S
O185 Cd184 2.240 . S
O185 C190 1.279 . S
O186 Cd183 2.297 . S
O186 C188 1.247 . S
O187 Cd183 2.439 . S
O187 C188 1.208 . S
C188 O186 1.247 . S
C188 O187 1.208 . S
C189 O194 1.247 . S
C189 O195 1.208 . S
C190 O182 1.315 . S
C190 O185 1.279 . S
C191 O192 1.315 . S
C191 O193 1.279 . S
O192 Cd184 2.223 . S
O192 C191 1.315 . S
O193 Cd183 2.240 . S
O193 C191 1.279 . S
O194 Cd184 2.297 . S
O194 C189 1.247 . S
O195 Cd184 2.439 . S
O195 C189 1.208 . S
O196 Cd197 2.223 . S
O196 C204 1.315 . S
Cd197 O196 2.223 . S
Cd197 O200 2.297 . S
Cd197 O201 2.439 . S
Cd197 O207 2.240 . S
Cd198 O199 2.240 . S
Cd198 O206 2.223 . S
Cd198 O208 2.297 . S
Cd198 O209 2.439 . S
O199 Cd198 2.240 . S
O199 C204 1.279 . S
O200 Cd197 2.297 . S
O200 C202 1.247 . S
O201 Cd197 2.439 . S
O201 C202 1.208 . S
C202 O200 1.247 . S
C202 O201 1.208 . S
C203 O208 1.247 . S
C203 O209 1.208 . S
C204 O196 1.315 . S
C204 O199 1.279 . S
C205 O206 1.315 . S
C205 O207 1.279 . S
O206 Cd198 2.223 . S
O206 C205 1.315 . S
O207 Cd197 2.240 . S
O207 C205 1.279 . S
O208 Cd198 2.297 . S
O208 C203 1.247 . S
O209 Cd198 2.439 . S
O209 C203 1.208 . S
O210 Cd211 2.223 . S
O210 C218 1.315 . S
Cd211 O210 2.223 . S
Cd211 O214 2.297 . S
Cd211 O215 2.439 . S
Cd211 O221 2.240 . S
Cd212 O213 2.240 . S
Cd212 O220 2.223 . S
Cd212 O222 2.297 . S
Cd212 O223 2.439 . S
O213 Cd212 2.240 . S
O213 C218 1.279 . S
O214 Cd211 2.297 . S
O214 C216 1.247 . S
O215 Cd211 2.439 . S
O215 C216 1.208 . S
C216 O214 1.247 . S
C216 O215 1.208 . S
C217 O222 1.247 . S
C217 O223 1.208 . S
C218 O210 1.315 . S
C218 O213 1.279 . S
C219 O220 1.315 . S
C219 O221 1.279 . S
O220 Cd212 2.223 . S
O220 C219 1.315 . S
O221 Cd211 2.240 . S
O221 C219 1.279 . S
O222 Cd212 2.297 . S
O222 C217 1.247 . S
O223 Cd212 2.439 . S
O223 C217 1.208 . S
O224 Cd225 2.223 . S
O224 C232 1.315 . S
Cd225 O224 2.223 . S
Cd225 O228 2.297 . S
Cd225 O229 2.439 . S
Cd225 O235 2.240 . S
Cd226 O227 2.240 . S
Cd226 O234 2.223 . S
Cd226 O236 2.297 . S
Cd226 O237 2.439 . S
O227 Cd226 2.240 . S
O227 C232 1.279 . S
O228 Cd225 2.297 . S
O228 C230 1.247 . S
O229 Cd225 2.439 . S
O229 C230 1.208 . S
C230 O228 1.247 . S
C230 O229 1.208 . S
C231 O236 1.247 . S
C231 O237 1.208 . S
C232 O224 1.315 . S
C232 O227 1.279 . S
C233 O234 1.315 . S
C233 O235 1.279 . S
O234 Cd226 2.223 . S
O234 C233 1.315 . S
O235 Cd225 2.240 . S
O235 C233 1.279 . S
O236 Cd226 2.297 . S
O236 C231 1.247 . S
O237 Cd226 2.439 . S
O237 C231 1.208 . S
O238 Cd239 2.223 . S
O238 C246 1.315 . S
Cd239 O238 2.223 . S
Cd239 O242 2.297 . S
Cd239 O243 2.439 . S
Cd239 O249 2.240 . S
Cd240 O241 2.240 . S
Cd240 O248 2.223 . S
Cd240 O250 2.297 . S
Cd240 O251 2.439 . S
O241 Cd240 2.240 . S
O241 C246 1.279 . S
O242 Cd239 2.297 . S
O242 C244 1.247 . S
O243 Cd239 2.439 . S
O243 C244 1.208 . S
C244 O242 1.247 . S
C244 O243 1.208 . S
C245 O250 1.247 . S
C245 O251 1.208 . S
C246 O238 1.315 . S
C246 O241 1.279 . S
C247 O248 1.315 . S
C247 O249 1.279 . S
O248 Cd240 2.223 . S
O248 C247 1.315 . S
O249 Cd239 2.240 . S
O249 C247 1.279 . S
O250 Cd240 2.297 . S
O250 C245 1.247 . S
O251 Cd240 2.439 . S
O251 C245 1.208 . S
O252 Cd253 2.223 . S
O252 C260 1.315 . S
Cd253 O252 2.223 . S
Cd253 O256 2.297 . S
Cd253 O257 2.439 . S
Cd253 O263 2.240 . S
Cd254 O255 2.240 . S
Cd254 O262 2.223 . S
Cd254 O264 2.297 . S
Cd254 O265 2.439 . S
O255 Cd254 2.240 . S
O255 C260 1.279 . S
O256 Cd253 2.297 . S
O256 C258 1.247 . S
O257 Cd253 2.439 . S
O257 C258 1.208 . S
C258 O256 1.247 . S
C258 O257 1.208 . S
C259 O264 1.247 . S
C259 O265 1.208 . S
C260 O252 1.315 . S
C260 O255 1.279 . S
C261 O262 1.315 . S
C261 O263 1.279 . S
O262 Cd254 2.223 . S
O262 C261 1.315 . S
O263 Cd253 2.240 . S
O263 C261 1.279 . S
O264 Cd254 2.297 . S
O264 C259 1.247 . S
O265 Cd254 2.439 . S
O265 C259 1.208 . S
O266 Cd267 2.223 . S
O266 C274 1.315 . S
Cd267 O266 2.223 . S
Cd267 O270 2.297 . S
Cd267 O271 2.439 . S
Cd267 O277 2.240 . S
Cd268 O269 2.240 . S
Cd268 O276 2.223 . S
Cd268 O278 2.297 . S
Cd268 O279 2.439 . S
O269 Cd268 2.240 . S
O269 C274 1.279 . S
O270 Cd267 2.297 . S
O270 C272 1.247 . S
O271 Cd267 2.439 . S
O271 C272 1.208 . S
C272 O270 1.247 . S
C272 O271 1.208 . S
C273 O278 1.247 . S
C273 O279 1.208 . S
C274 O266 1.315 . S
C274 O269 1.279 . S
C275 O276 1.315 . S
C275 O277 1.279 . S
O276 Cd268 2.223 . S
O276 C275 1.315 . S
O277 Cd267 2.240 . S
O277 C275 1.279 . S
O278 Cd268 2.297 . S
O278 C273 1.247 . S
O279 Cd268 2.439 . S
O279 C273 1.208 . S
O280 Cd281 2.223 . S
O280 C288 1.315 . S
Cd281 O280 2.223 . S
Cd281 O284 2.297 . S
Cd281 O285 2.439 . S
Cd281 O291 2.240 . S
Cd282 O283 2.240 . S
Cd282 O290 2.223 . S
Cd282 O292 2.297 . S
Cd282 O293 2.439 . S
O283 Cd282 2.240 . S
O283 C288 1.279 . S
O284 Cd281 2.297 . S
O284 C286 1.247 . S
O285 Cd281 2.439 . S
O285 C286 1.208 . S
C286 O284 1.247 . S
C286 O285 1.208 . S
C287 O292 1.247 . S
C287 O293 1.208 . S
C288 O280 1.315 . S
C288 O283 1.279 . S
C289 O290 1.315 . S
C289 O291 1.279 . S
O290 Cd282 2.223 . S
O290 C289 1.315 . S
O291 Cd281 2.240 . S
O291 C289 1.279 . S
O292 Cd282 2.297 . S
O292 C287 1.247 . S
O293 Cd282 2.439 . S
O293 C287 1.208 . S
O294 Cd295 2.223 . S
O294 C302 1.315 . S
Cd295 O294 2.223 . S
Cd295 O298 2.297 . S
Cd295 O299 2.439 . S
Cd295 O305 2.240 . S
Cd296 O297 2.240 . S
Cd296 O304 2.223 . S
Cd296 O306 2.297 . S
Cd296 O307 2.439 . S
O297 Cd296 2.240 . S
O297 C302 1.279 . S
O298 Cd295 2.297 . S
O298 C300 1.247 . S
O299 Cd295 2.439 . S
O299 C300 1.208 . S
C300 O298 1.247 . S
C300 O299 1.208 . S
C301 O306 1.247 . S
C301 O307 1.208 . S
C302 O294 1.315 . S
C302 O297 1.279 . S
C303 O304 1.315 . S
C303 O305 1.279 . S
O304 Cd296 2.223 . S
O304 C303 1.315 . S
O305 Cd295 2.240 . S
O305 C303 1.279 . S
O306 Cd296 2.297 . S
O306 C301 1.247 . S
O307 Cd296 2.439 . S
O307 C301 1.208 . S
O308 Cd309 2.223 . S
O308 C316 1.315 . S
Cd309 O308 2.223 . S
Cd309 O312 2.297 . S
Cd309 O313 2.439 . S
Cd309 O319 2.240 . S
Cd310 O311 2.240 . S
Cd310 O318 2.223 . S
Cd310 O320 2.297 . S
Cd310 O321 2.439 . S
O311 Cd310 2.240 . S
O311 C316 1.279 . S
O312 Cd309 2.297 . S
O312 C314 1.247 . S
O313 Cd309 2.439 . S
O313 C314 1.208 . S
C314 O312 1.247 . S
C314 O313 1.208 . S
C315 O320 1.247 . S
C315 O321 1.208 . S
C316 O308 1.315 . S
C316 O311 1.279 . S
C317 O318 1.315 . S
C317 O319 1.279 . S
O318 Cd310 2.223 . S
O318 C317 1.315 . S
O319 Cd309 2.240 . S
O319 C317 1.279 . S
O320 Cd310 2.297 . S
O320 C315 1.247 . S
O321 Cd310 2.439 . S
O321 C315 1.208 . S
O322 Cd323 2.223 . S
O322 C330 1.315 . S
Cd323 O322 2.223 . S
Cd323 O326 2.297 . S
Cd323 O327 2.439 . S
Cd323 O333 2.240 . S
Cd324 O325 2.240 . S
Cd324 O332 2.223 . S
Cd324 O334 2.297 . S
Cd324 O335 2.439 . S
O325 Cd324 2.240 . S
O325 C330 1.279 . S
O326 Cd323 2.297 . S
O326 C328 1.247 . S
O327 Cd323 2.439 . S
O327 C328 1.208 . S
C328 O326 1.247 . S
C328 O327 1.208 . S
C329 O334 1.247 . S
C329 O335 1.208 . S
C330 O322 1.315 . S
C330 O325 1.279 . S
C331 O332 1.315 . S
C331 O333 1.279 . S
O332 Cd324 2.223 . S
O332 C331 1.315 . S
O333 Cd323 2.240 . S
O333 C331 1.279 . S
O334 Cd324 2.297 . S
O334 C329 1.247 . S
O335 Cd324 2.439 . S
O335 C329 1.208 . S
O336 Cd337 2.223 . S
O336 C344 1.315 . S
Cd337 O336 2.223 . S
Cd337 O340 2.297 . S
Cd337 O341 2.439 . S
Cd337 O347 2.240 . S
Cd338 O339 2.240 . S
Cd338 O346 2.223 . S
Cd338 O348 2.297 . S
Cd338 O349 2.439 . S
O339 Cd338 2.240 . S
O339 C344 1.279 . S
O340 Cd337 2.297 . S
O340 C342 1.247 . S
O341 Cd337 2.439 . S
O341 C342 1.208 . S
C342 O340 1.247 . S
C342 O341 1.208 . S
C343 O348 1.247 . S
C343 O349 1.208 . S
C344 O336 1.315 . S
C344 O339 1.279 . S
C345 O346 1.315 . S
C345 O347 1.279 . S
O346 Cd338 2.223 . S
O346 C345 1.315 . S
O347 Cd337 2.240 . S
O347 C345 1.279 . S
O348 Cd338 2.297 . S
O348 C343 1.247 . S
O349 Cd338 2.439 . S
O349 C343 1.208 . S
O350 Cd351 2.223 . S
O350 C358 1.315 . S
Cd351 O350 2.223 . S
Cd351 O354 2.297 . S
Cd351 O355 2.439 . S
Cd351 O361 2.240 . S
Cd352 O353 2.240 . S
Cd352 O360 2.223 . S
Cd352 O362 2.297 . S
Cd352 O363 2.439 . S
O353 Cd352 2.240 . S
O353 C358 1.279 . S
O354 Cd351 2.297 . S
O354 C356 1.247 . S
O355 Cd351 2.439 . S
O355 C356 1.208 . S
C356 O354 1.247 . S
C356 O355 1.208 . S
C357 O362 1.247 . S
C357 O363 1.208 . S
C358 O350 1.315 . S
C358 O353 1.279 . S
C359 O360 1.315 . S
C359 O361 1.279 . S
O360 Cd352 2.223 . S
O360 C359 1.315 . S
O361 Cd351 2.240 . S
O361 C359 1.279 . S
O362 Cd352 2.297 . S
O362 C357 1.247 . S
O363 Cd352 2.439 . S
O363 C357 1.208 . S
O364 Cd365 2.223 . S
O364 C372 1.315 . S
Cd365 O364 2.223 . S
Cd365 O368 2.297 . S
Cd365 O369 2.439 . S
Cd365 O375 2.240 . S
Cd366 O367 2.240 . S
Cd366 O374 2.223 . S
Cd366 O376 2.297 . S
Cd366 O377 2.439 . S
O367 Cd366 2.240 . S
O367 C372 1.279 . S
O368 Cd365 2.297 . S
O368 C370 1.247 . S
O369 Cd365 2.439 . S
O369 C370 1.208 . S
C370 O368 1.247 . S
C370 O369 1.208 . S
C371 O376 1.247 . S
C371 O377 1.208 . S
C372 O364 1.315 . S
C372 O367 1.279 . S
C373 O374 1.315 . S
C373 O375 1.279 . S
O374 Cd366 2.223 . S
O374 C373 1.315 . S
O375 Cd365 2.240 . S
O375 C373 1.279 . S
O376 Cd366 2.297 . S
O376 C371 1.247 . S
O377 Cd366 2.439 . S
O377 C371 1.208 . S
O378 Cd379 2.223 . S
O378 C386 1.315 . S
Cd379 O378 2.223 . S
Cd379 O382 2.297 . S
Cd379 O383 2.439 . S
Cd379 O389 2.240 . S
Cd380 O381 2.240 . S
Cd380 O388 2.223 . S
Cd380 O390 2.297 . S
Cd380 O391 2.439 . S
O381 Cd380 2.240 . S
O381 C386 1.279 . S
O382 Cd379 2.297 . S
O382 C384 1.247 . S
O383 Cd379 2.439 . S
O383 C384 1.208 . S
C384 O382 1.247 . S
C384 O383 1.208 . S
C385 O390 1.247 . S
C385 O391 1.208 . S
C386 O378 1.315 . S
C386 O381 1.279 . S
C387 O388 1.315 . S
C387 O389 1.279 . S
O388 Cd380 2.223 . S
O388 C387 1.315 . S
O389 Cd379 2.240 . S
O389 C387 1.279 . S
O390 Cd380 2.297 . S
O390 C385 1.247 . S
O391 Cd380 2.439 . S
O391 C385 1.208 . S
O392 Cd393 2.223 . S
O392 C400 1.315 . S
Cd393 O392 2.223 . S
Cd393 O396 2.297 . S
Cd393 O397 2.439 . S
Cd393 O403 2.240 . S
Cd394 O395 2.240 . S
Cd394 O402 2.223 . S
Cd394 O404 2.297 . S
Cd394 O405 2.439 . S
O395 Cd394 2.240 . S
O395 C400 1.279 . S
O396 Cd393 2.297 . S
O396 C398 1.247 . S
O397 Cd393 2.439 . S
O397 C398 1.208 . S
C398 O396 1.247 . S
C398 O397 1.208 . S
C399 O404 1.247 . S
C399 O405 1.208 . S
C400 O392 1.315 . S
C400 O395 1.279 . S
C401 O402 1.315 . S
C401 O403 1.279 . S
O402 Cd394 2.223 . S
O402 C401 1.315 . S
O403 Cd393 2.240 . S
O403 C401 1.279 . S
O404 Cd394 2.297 . S
O404 C399 1.247 . S
O405 Cd394 2.439 . S
O405 C399 1.208 . S
O406 Cd407 2.223 . S
O406 C414 1.315 . S
Cd407 O406 2.223 . S
Cd407 O410 2.297 . S
Cd407 O411 2.439 . S
Cd407 O417 2.240 . S
Cd408 O409 2.240 . S
Cd408 O416 2.223 . S
Cd408 O418 2.297 . S
Cd408 O419 2.439 . S
O409 Cd408 2.240 . S
O409 C414 1.279 . S
O410 Cd407 2.297 . S
O410 C412 1.247 . S
O411 Cd407 2.439 . S
O411 C412 1.208 . S
C412 O410 1.247 . S
C412 O411 1.208 . S
C413 O418 1.247 . S
C413 O419 1.208 . S
C414 O406 1.315 . S
C414 O409 1.279 . S
C415 O416 1.315 . S
C415 O417 1.279 . S
O416 Cd408 2.223 . S
O416 C415 1.315 . S
O417 Cd407 2.240 . S
O417 C415 1.279 . S
O418 Cd408 2.297 . S
O418 C413 1.247 . S
O419 Cd408 2.439 . S
O419 C413 1.208 . S
O420 Cd421 2.223 . S
O420 C428 1.315 . S
Cd421 O420 2.223 . S
Cd421 O424 2.297 . S
Cd421 O425 2.439 . S
Cd421 O431 2.240 . S
Cd422 O423 2.240 . S
Cd422 O430 2.223 . S
Cd422 O432 2.297 . S
Cd422 O433 2.439 . S
O423 Cd422 2.240 . S
O423 C428 1.279 . S
O424 Cd421 2.297 . S
O424 C426 1.247 . S
O425 Cd421 2.439 . S
O425 C426 1.208 . S
C426 O424 1.247 . S
C426 O425 1.208 . S
C427 O432 1.247 . S
C427 O433 1.208 . S
C428 O420 1.315 . S
C428 O423 1.279 . S
C429 O430 1.315 . S
C429 O431 1.279 . S
O430 Cd422 2.223 . S
O430 C429 1.315 . S
O431 Cd421 2.240 . S
O431 C429 1.279 . S
O432 Cd422 2.297 . S
O432 C427 1.247 . S
O433 Cd422 2.439 . S
O433 C427 1.208 . S
O434 Cd435 2.223 . S
O434 C442 1.315 . S
Cd435 O434 2.223 . S
Cd435 O438 2.297 . S
Cd435 O439 2.439 . S
Cd435 O445 2.240 . S
Cd436 O437 2.240 . S
Cd436 O444 2.223 . S
Cd436 O446 2.297 . S
Cd436 O447 2.439 . S
O437 Cd436 2.240 . S
O437 C442 1.279 . S
O438 Cd435 2.297 . S
O438 C440 1.247 . S
O439 Cd435 2.439 . S
O439 C440 1.208 . S
C440 O438 1.247 . S
C440 O439 1.208 . S
C441 O446 1.247 . S
C441 O447 1.208 . S
C442 O434 1.315 . S
C442 O437 1.279 . S
C443 O444 1.315 . S
C443 O445 1.279 . S
O444 Cd436 2.223 . S
O444 C443 1.315 . S
O445 Cd435 2.240 . S
O445 C443 1.279 . S
O446 Cd436 2.297 . S
O446 C441 1.247 . S
O447 Cd436 2.439 . S
O447 C441 1.208 . S
O448 Cd449 2.223 . S
O448 C456 1.315 . S
Cd449 O448 2.223 . S
Cd449 O452 2.297 . S
Cd449 O453 2.439 . S
Cd449 O459 2.240 . S
Cd450 O451 2.240 . S
Cd450 O458 2.223 . S
Cd450 O460 2.297 . S
Cd450 O461 2.439 . S
O451 Cd450 2.240 . S
O451 C456 1.279 . S
O452 Cd449 2.297 . S
O452 C454 1.247 . S
O453 Cd449 2.439 . S
O453 C454 1.208 . S
C454 O452 1.247 . S
C454 O453 1.208 . S
C455 O460 1.247 . S
C455 O461 1.208 . S
C456 O448 1.315 . S
C456 O451 1.279 . S
C457 O458 1.315 . S
C457 O459 1.279 . S
O458 Cd450 2.223 . S
O458 C457 1.315 . S
O459 Cd449 2.240 . S
O459 C457 1.279 . S
O460 Cd450 2.297 . S
O460 C455 1.247 . S
O461 Cd450 2.439 . S
O461 C455 1.208 . S
O462 Cd463 2.223 . S
O462 C470 1.315 . S
Cd463 O462 2.223 . S
Cd463 O466 2.297 . S
Cd463 O467 2.439 . S
Cd463 O473 2.240 . S
Cd464 O465 2.240 . S
Cd464 O472 2.223 . S
Cd464 O474 2.297 . S
Cd464 O475 2.439 . S
O465 Cd464 2.240 . S
O465 C470 1.279 . S
O466 Cd463 2.297 . S
O466 C468 1.247 . S
O467 Cd463 2.439 . S
O467 C468 1.208 . S
C468 O466 1.247 . S
C468 O467 1.208 . S
C469 O474 1.247 . S
C469 O475 1.208 . S
C470 O462 1.315 . S
C470 O465 1.279 . S
C471 O472 1.315 . S
C471 O473 1.279 . S
O472 Cd464 2.223 . S
O472 C471 1.315 . S
O473 Cd463 2.240 . S
O473 C471 1.279 . S
O474 Cd464 2.297 . S
O474 C469 1.247 . S
O475 Cd464 2.439 . S
O475 C469 1.208 . S
O476 Cd477 2.223 . S
O476 C484 1.315 . S
Cd477 O476 2.223 . S
Cd477 O480 2.297 . S
Cd477 O481 2.439 . S
Cd477 O487 2.240 . S
Cd478 O479 2.240 . S
Cd478 O486 2.223 . S
Cd478 O488 2.297 . S
Cd478 O489 2.439 . S
O479 Cd478 2.240 . S
O479 C484 1.279 . S
O480 Cd477 2.297 . S
O480 C482 1.247 . S
O481 Cd477 2.439 . S
O481 C482 1.208 . S
C482 O480 1.247 . S
C482 O481 1.208 . S
C483 O488 1.247 . S
C483 O489 1.208 . S
C484 O476 1.315 . S
C484 O479 1.279 . S
C485 O486 1.315 . S
C485 O487 1.279 . S
O486 Cd478 2.223 . S
O486 C485 1.315 . S
O487 Cd477 2.240 . S
O487 C485 1.279 . S
O488 Cd478 2.297 . S
O488 C483 1.247 . S
O489 Cd478 2.439 . S
O489 C483 1.208 . S
O490 Cd491 2.223 . S
O490 C498 1.315 . S
Cd491 O490 2.223 . S
Cd491 O494 2.297 . S
Cd491 O495 2.439 . S
Cd491 O501 2.240 . S
Cd492 O493 2.240 . S
Cd492 O500 2.223 . S
Cd492 O502 2.297 . S
Cd492 O503 2.439 . S
O493 Cd492 2.240 . S
O493 C498 1.279 . S
O494 Cd491 2.297 . S
O494 C496 1.247 . S
O495 Cd491 2.439 . S
O495 C496 1.208 . S
C496 O494 1.247 . S
C496 O495 1.208 . S
C497 O502 1.247 . S
C497 O503 1.208 . S
C498 O490 1.315 . S
C498 O493 1.279 . S
C499 O500 1.315 . S
C499 O501 1.279 . S
O500 Cd492 2.223 . S
O500 C499 1.315 . S
O501 Cd491 2.240 . S
O501 C499 1.279 . S
O502 Cd492 2.297 . S
O502 C497 1.247 . S
O503 Cd492 2.439 . S
O503 C497 1.208 . S
O504 Cd505 2.223 . S
O504 C512 1.315 . S
Cd505 O504 2.223 . S
Cd505 O508 2.297 . S
Cd505 O509 2.439 . S
Cd505 O515 2.240 . S
Cd506 O507 2.240 . S
Cd506 O514 2.223 . S
Cd506 O516 2.297 . S
Cd506 O517 2.439 . S
O507 Cd506 2.240 . S
O507 C512 1.279 . S
O508 Cd505 2.297 . S
O508 C510 1.247 . S
O509 Cd505 2.439 . S
O509 C510 1.208 . S
C510 O508 1.247 . S
C510 O509 1.208 . S
C511 O516 1.247 . S
C511 O517 1.208 . S
C512 O504 1.315 . S
C512 O507 1.279 . S
C513 O514 1.315 . S
C513 O515 1.279 . S
O514 Cd506 2.223 . S
O514 C513 1.315 . S
O515 Cd505 2.240 . S
O515 C513 1.279 . S
O516 Cd506 2.297 . S
O516 C511 1.247 . S
O517 Cd506 2.439 . S
O517 C511 1.208 . S
O518 Cd519 2.223 . S
O518 C526 1.315 . S
Cd519 O518 2.223 . S
Cd519 O522 2.297 . S
Cd519 O523 2.439 . S
Cd519 O529 2.240 . S
Cd520 O521 2.240 . S
Cd520 O528 2.223 . S
Cd520 O530 2.297 . S
Cd520 O531 2.439 . S
O521 Cd520 2.240 . S
O521 C526 1.279 . S
O522 Cd519 2.297 . S
O522 C524 1.247 . S
O523 Cd519 2.439 . S
O523 C524 1.208 . S
C524 O522 1.247 . S
C524 O523 1.208 . S
C525 O530 1.247 . S
C525 O531 1.208 . S
C526 O518 1.315 . S
C526 O521 1.279 . S
C527 O528 1.315 . S
C527 O529 1.279 . S
O528 Cd520 2.223 . S
O528 C527 1.315 . S
O529 Cd519 2.240 . S
O529 C527 1.279 . S
O530 Cd520 2.297 . S
O530 C525 1.247 . S
O531 Cd520 2.439 . S
O531 C525 1.208 . S
O532 Cd533 2.223 . S
O532 C540 1.315 . S
Cd533 O532 2.223 . S
Cd533 O536 2.297 . S
Cd533 O537 2.439 . S
Cd533 O543 2.240 . S
Cd534 O535 2.240 . S
Cd534 O542 2.223 . S
Cd534 O544 2.297 . S
Cd534 O545 2.439 . S
O535 Cd534 2.240 . S
O535 C540 1.279 . S
O536 Cd533 2.297 . S
O536 C538 1.247 . S
O537 Cd533 2.439 . S
O537 C538 1.208 . S
C538 O536 1.247 . S
C538 O537 1.208 . S
C539 O544 1.247 . S
C539 O545 1.208 . S
C540 O532 1.315 . S
C540 O535 1.279 . S
C541 O542 1.315 . S
C541 O543 1.279 . S
O542 Cd534 2.223 . S
O542 C541 1.315 . S
O543 Cd533 2.240 . S
O543 C541 1.279 . S
O544 Cd534 2.297 . S
O544 C539 1.247 . S
O545 Cd534 2.439 . S
O545 C539 1.208 . S
O546 Cd547 2.223 . S
O546 C554 1.315 . S
Cd547 O546 2.223 . S
Cd547 O550 2.297 . S
Cd547 O551 2.439 . S
Cd547 O557 2.240 . S
Cd548 O549 2.240 . S
Cd548 O556 2.223 . S
Cd548 O558 2.297 . S
Cd548 O559 2.439 . S
O549 Cd548 2.240 . S
O549 C554 1.279 . S
O550 Cd547 2.297 . S
O550 C552 1.247 . S
O551 Cd547 2.439 . S
O551 C552 1.208 . S
C552 O550 1.247 . S
C552 O551 1.208 . S
C553 O558 1.247 . S
C553 O559 1.208 . S
C554 O546 1.315 . S
C554 O549 1.279 . S
C555 O556 1.315 . S
C555 O557 1.279 . S
O556 Cd548 2.223 . S
O556 C555 1.315 . S
O557 Cd547 2.240 . S
O557 C555 1.279 . S
O558 Cd548 2.297 . S
O558 C553 1.247 . S
O559 Cd548 2.439 . S
O559 C553 1.208 . S
O560 Cd561 2.223 . S
O560 C568 1.315 . S
Cd561 O560 2.223 . S
Cd561 O564 2.297 . S
Cd561 O565 2.439 . S
Cd561 O571 2.240 . S
Cd562 O563 2.240 . S
Cd562 O570 2.223 . S
Cd562 O572 2.297 . S
Cd562 O573 2.439 . S
O563 Cd562 2.240 . S
O563 C568 1.279 . S
O564 Cd561 2.297 . S
O564 C566 1.247 . S
O565 Cd561 2.439 . S
O565 C566 1.208 . S
C566 O564 1.247 . S
C566 O565 1.208 . S
C567 O572 1.247 . S
C567 O573 1.208 . S
C568 O560 1.315 . S
C568 O563 1.279 . S
C569 O570 1.315 . S
C569 O571 1.279 . S
O570 Cd562 2.223 . S
O570 C569 1.315 . S
O571 Cd561 2.240 . S
O571 C569 1.279 . S
O572 Cd562 2.297 . S
O572 C567 1.247 . S
O573 Cd562 2.439 . S
O573 C567 1.208 . S
O574 Cd575 2.223 . S
O574 C582 1.315 . S
Cd575 O574 2.223 . S
Cd575 O578 2.297 . S
Cd575 O579 2.439 . S
Cd575 O585 2.240 . S
Cd576 O577 2.240 . S
Cd576 O584 2.223 . S
Cd576 O586 2.297 . S
Cd576 O587 2.439 . S
O577 Cd576 2.240 . S
O577 C582 1.279 . S
O578 Cd575 2.297 . S
O578 C580 1.247 . S
O579 Cd575 2.439 . S
O579 C580 1.208 . S
C580 O578 1.247 . S
C580 O579 1.208 . S
C581 O586 1.247 . S
C581 O587 1.208 . S
C582 O574 1.315 . S
C582 O577 1.279 . S
C583 O584 1.315 . S
C583 O585 1.279 . S
O584 Cd576 2.223 . S
O584 C583 1.315 . S
O585 Cd575 2.240 . S
O585 C583 1.279 . S
O586 Cd576 2.297 . S
O586 C581 1.247 . S
O587 Cd576 2.439 . S
O587 C581 1.208 . S
O588 Cd589 2.223 . S
O588 C596 1.315 . S
Cd589 O588 2.223 . S
Cd589 O592 2.297 . S
Cd589 O593 2.439 . S
Cd589 O599 2.240 . S
Cd590 O591 2.240 . S
Cd590 O598 2.223 . S
Cd590 O600 2.297 . S
Cd590 O601 2.439 . S
O591 Cd590 2.240 . S
O591 C596 1.279 . S
O592 Cd589 2.297 . S
O592 C594 1.247 . S
O593 Cd589 2.439 . S
O593 C594 1.208 . S
C594 O592 1.247 . S
C594 O593 1.208 . S
C595 O600 1.247 . S
C595 O601 1.208 . S
C596 O588 1.315 . S
C596 O591 1.279 . S
C597 O598 1.315 . S
C597 O599 1.279 . S
O598 Cd590 2.223 . S
O598 C597 1.315 . S
O599 Cd589 2.240 . S
O599 C597 1.279 . S
O600 Cd590 2.297 . S
O600 C595 1.247 . S
O601 Cd590 2.439 . S
O601 C595 1.208 . S
O602 Cd603 2.223 . S
O602 C610 1.315 . S
Cd603 O602 2.223 . S
Cd603 O606 2.297 . S
Cd603 O607 2.439 . S
Cd603 O613 2.240 . S
Cd604 O605 2.240 . S
Cd604 O612 2.223 . S
Cd604 O614 2.297 . S
Cd604 O615 2.439 . S
O605 Cd604 2.240 . S
O605 C610 1.279 . S
O606 Cd603 2.297 . S
O606 C608 1.247 . S
O607 Cd603 2.439 . S
O607 C608 1.208 . S
C608 O606 1.247 . S
C608 O607 1.208 . S
C609 O614 1.247 . S
C609 O615 1.208 . S
C610 O602 1.315 . S
C610 O605 1.279 . S
C611 O612 1.315 . S
C611 O613 1.279 . S
O612 Cd604 2.223 . S
O612 C611 1.315 . S
O613 Cd603 2.240 . S
O613 C611 1.279 . S
O614 Cd604 2.297 . S
O614 C609 1.247 . S
O615 Cd604 2.439 . S
O615 C609 1.208 . S
O616 Cd617 2.223 . S
O616 C624 1.315 . S
Cd617 O616 2.223 . S
Cd617 O620 2.297 . S
Cd617 O621 2.439 . S
Cd617 O627 2.240 . S
Cd618 O619 2.240 . S
Cd618 O626 2.223 . S
Cd618 O628 2.297 . S
Cd618 O629 2.439 . S
O619 Cd618 2.240 . S
O619 C624 1.279 . S
O620 Cd617 2.297 . S
O620 C622 1.247 . S
O621 Cd617 2.439 . S
O621 C622 1.208 . S
C622 O620 1.247 . S
C622 O621 1.208 . S
C623 O628 1.247 . S
C623 O629 1.208 . S
C624 O616 1.315 . S
C624 O619 1.279 . S
C625 O626 1.315 . S
C625 O627 1.279 . S
O626 Cd618 2.223 . S
O626 C625 1.315 . S
O627 Cd617 2.240 . S
O627 C625 1.279 . S
O628 Cd618 2.297 . S
O628 C623 1.247 . S
O629 Cd618 2.439 . S
O629 C623 1.208 . S
O630 Cd631 2.223 . S
O630 C638 1.315 . S
Cd631 O630 2.223 . S
Cd631 O634 2.297 . S
Cd631 O635 2.439 . S
Cd631 O641 2.240 . S
Cd632 O633 2.240 . S
Cd632 O640 2.223 . S
Cd632 O642 2.297 . S
Cd632 O643 2.439 . S
O633 Cd632 2.240 . S
O633 C638 1.279 . S
O634 Cd631 2.297 . S
O634 C636 1.247 . S
O635 Cd631 2.439 . S
O635 C636 1.208 . S
C636 O634 1.247 . S
C636 O635 1.208 . S
C637 O642 1.247 . S
C637 O643 1.208 . S
C638 O630 1.315 . S
C638 O633 1.279 . S
C639 O640 1.315 . S
C639 O641 1.279 . S
O640 Cd632 2.223 . S
O640 C639 1.315 . S
O641 Cd631 2.240 . S
O641 C639 1.279 . S
O642 Cd632 2.297 . S
O642 C637 1.247 . S
O643 Cd632 2.439 . S
O643 C637 1.208 . S
O644 Cd645 2.223 . S
O644 C652 1.315 . S
Cd645 O644 2.223 . S
Cd645 O648 2.297 . S
Cd645 O649 2.439 . S
Cd645 O655 2.240 . S
Cd646 O647 2.240 . S
Cd646 O654 2.223 . S
Cd646 O656 2.297 . S
Cd646 O657 2.439 . S
O647 Cd646 2.240 . S
O647 C652 1.279 . S
O648 Cd645 2.297 . S
O648 C650 1.247 . S
O649 Cd645 2.439 . S
O649 C650 1.208 . S
C650 O648 1.247 . S
C650 O649 1.208 . S
C651 O656 1.247 . S
C651 O657 1.208 . S
C652 O644 1.315 . S
C652 O647 1.279 . S
C653 O654 1.315 . S
C653 O655 1.279 . S
O654 Cd646 2.223 . S
O654 C653 1.315 . S
O655 Cd645 2.240 . S
O655 C653 1.279 . S
O656 Cd646 2.297 . S
O656 C651 1.247 . S
O657 Cd646 2.439 . S
O657 C651 1.208 . S
O658 Cd659 2.223 . S
O658 C666 1.315 . S
Cd659 O658 2.223 . S
Cd659 O662 2.297 . S
Cd659 O663 2.439 . S
Cd659 O669 2.240 . S
Cd660 O661 2.240 . S
Cd660 O668 2.223 . S
Cd660 O670 2.297 . S
Cd660 O671 2.439 . S
O661 Cd660 2.240 . S
O661 C666 1.279 . S
O662 Cd659 2.297 . S
O662 C664 1.247 . S
O663 Cd659 2.439 . S
O663 C664 1.208 . S
C664 O662 1.247 . S
C664 O663 1.208 . S
C665 O670 1.247 . S
C665 O671 1.208 . S
C666 O658 1.315 . S
C666 O661 1.279 . S
C667 O668 1.315 . S
C667 O669 1.279 . S
O668 Cd660 2.223 . S
O668 C667 1.315 . S
O669 Cd659 2.240 . S
O669 C667 1.279 . S
O670 Cd660 2.297 . S
O670 C665 1.247 . S
O671 Cd660 2.439 . S
O671 C665 1.208 . S
C672 C673 1.387 . S
C672 H676 0.950 . S
C672 C681 1.390 . S
C673 C672 1.387 . S
C673 C675 1.387 . S
H674 C681 0.950 . S
C675 C673 1.387 . S
C675 C677 1.390 . S
C675 H679 0.950 . S
H676 C672 0.950 . S
C677 C675 1.390 . S
C677 C678 1.387 . S
C677 H680 0.950 . S
C678 C677 1.387 . S
C678 C681 1.387 . S
H679 C675 0.950 . S
H680 C677 0.950 . S
C681 C672 1.390 . S
C681 H674 0.950 . S
C681 C678 1.387 . S
C682 C683 1.387 . S
C682 H686 0.950 . S
C682 C691 1.390 . S
C683 C682 1.387 . S
C683 C685 1.387 . S
H684 C691 0.950 . S
C685 C683 1.387 . S
C685 C687 1.390 . S
C685 H689 0.950 . S
H686 C682 0.950 . S
C687 C685 1.390 . S
C687 C688 1.387 . S
C687 H690 0.950 . S
C688 C687 1.387 . S
C688 C691 1.387 . S
H689 C685 0.950 . S
H690 C687 0.950 . S
C691 C682 1.390 . S
C691 H684 0.950 . S
C691 C688 1.387 . S
C692 C693 1.387 . S
C692 H696 0.950 . S
C692 C701 1.390 . S
C693 C692 1.387 . S
C693 C695 1.387 . S
H694 C701 0.950 . S
C695 C693 1.387 . S
C695 C697 1.390 . S
C695 H699 0.950 . S
H696 C692 0.950 . S
C697 C695 1.390 . S
C697 C698 1.387 . S
C697 H700 0.950 . S
C698 C697 1.387 . S
C698 C701 1.387 . S
H699 C695 0.950 . S
H700 C697 0.950 . S
C701 C692 1.390 . S
C701 H694 0.950 . S
C701 C698 1.387 . S
C702 C703 1.387 . S
C702 H706 0.950 . S
C702 C711 1.390 . S
C703 C702 1.387 . S
C703 C705 1.387 . S
H704 C711 0.950 . S
C705 C703 1.387 . S
C705 C707 1.390 . S
C705 H709 0.950 . S
H706 C702 0.950 . S
C707 C705 1.390 . S
C707 C708 1.387 . S
C707 H710 0.950 . S
C708 C707 1.387 . S
C708 C711 1.387 . S
H709 C705 0.950 . S
H710 C707 0.950 . S
C711 C702 1.390 . S
C711 H704 0.950 . S
C711 C708 1.387 . S
C712 C713 1.387 . S
C712 H716 0.950 . S
C712 C721 1.390 . S
C713 C712 1.387 . S
C713 C715 1.387 . S
H714 C721 0.950 . S
C715 C713 1.387 . S
C715 C717 1.390 . S
C715 H719 0.950 . S
H716 C712 0.950 . S
C717 C715 1.390 . S
C717 C718 1.387 . S
C717 H720 0.950 . S
C718 C717 1.387 . S
C718 C721 1.387 . S
H719 C715 0.950 . S
H720 C717 0.950 . S
C721 C712 1.390 . S
C721 H714 0.950 . S
C721 C718 1.387 . S
C722 C723 1.387 . S
C722 H726 0.950 . S
C722 C731 1.390 . S
C723 C722 1.387 . S
C723 C725 1.387 . S
H724 C731 0.950 . S
C725 C723 1.387 . S
C725 C727 1.390 . S
C725 H729 0.950 . S
H726 C722 0.950 . S
C727 C725 1.390 . S
C727 C728 1.387 . S
C727 H730 0.950 . S
C728 C727 1.387 . S
C728 C731 1.387 . S
H729 C725 0.950 . S
H730 C727 0.950 . S
C731 C722 1.390 . S
C731 H724 0.950 . S
C731 C728 1.387 . S
C732 C733 1.387 . S
C732 H736 0.950 . S
C732 C741 1.390 . S
C733 C732 1.387 . S
C733 C735 1.387 . S
H734 C741 0.950 . S
C735 C733 1.387 . S
C735 C737 1.390 . S
C735 H739 0.950 . S
H736 C732 0.950 . S
C737 C735 1.390 . S
C737 C738 1.387 . S
C737 H740 0.950 . S
C738 C737 1.387 . S
C738 C741 1.387 . S
H739 C735 0.950 . S
H740 C737 0.950 . S
C741 C732 1.390 . S
C741 H734 0.950 . S
C741 C738 1.387 . S
C742 C743 1.387 . S
C742 H746 0.950 . S
C742 C751 1.390 . S
C743 C742 1.387 . S
C743 C745 1.387 . S
H744 C751 0.950 . S
C745 C743 1.387 . S
C745 C747 1.390 . S
C745 H749 0.950 . S
H746 C742 0.950 . S
C747 C745 1.390 . S
C747 C748 1.387 . S
C747 H750 0.950 . S
C748 C747 1.387 . S
C748 C751 1.387 . S
H749 C745 0.950 . S
H750 C747 0.950 . S
C751 C742 1.390 . S
C751 H744 0.950 . S
C751 C748 1.387 . S
C752 C753 1.387 . S
C752 H756 0.950 . S
C752 C761 1.390 . S
C753 C752 1.387 . S
C753 C755 1.387 . S
H754 C761 0.950 . S
C755 C753 1.387 . S
C755 C757 1.390 . S
C755 H759 0.950 . S
H756 C752 0.950 . S
C757 C755 1.390 . S
C757 C758 1.387 . S
C757 H760 0.950 . S
C758 C757 1.387 . S
C758 C761 1.387 . S
H759 C755 0.950 . S
H760 C757 0.950 . S
C761 C752 1.390 . S
C761 H754 0.950 . S
C761 C758 1.387 . S
C762 C763 1.387 . S
C762 H766 0.950 . S
C762 C771 1.390 . S
C763 C762 1.387 . S
C763 C765 1.387 . S
H764 C771 0.950 . S
C765 C763 1.387 . S
C765 C767 1.390 . S
C765 H769 0.950 . S
H766 C762 0.950 . S
C767 C765 1.390 . S
C767 C768 1.387 . S
C767 H770 0.950 . S
C768 C767 1.387 . S
C768 C771 1.387 . S
H769 C765 0.950 . S
H770 C767 0.950 . S
C771 C762 1.390 . S
C771 H764 0.950 . S
C771 C768 1.387 . S
C772 C773 1.387 . S
C772 H776 0.950 . S
C772 C781 1.390 . S
C773 C772 1.387 . S
C773 C775 1.387 . S
H774 C781 0.950 . S
C775 C773 1.387 . S
C775 C777 1.390 . S
C775 H779 0.950 . S
H776 C772 0.950 . S
C777 C775 1.390 . S
C777 C778 1.387 . S
C777 H780 0.950 . S
C778 C777 1.387 . S
C778 C781 1.387 . S
H779 C775 0.950 . S
H780 C777 0.950 . S
C781 C772 1.390 . S
C781 H774 0.950 . S
C781 C778 1.387 . S
C782 C783 1.387 . S
C782 H786 0.950 . S
C782 C791 1.390 . S
C783 C782 1.387 . S
C783 C785 1.387 . S
H784 C791 0.950 . S
C785 C783 1.387 . S
C785 C787 1.390 . S
C785 H789 0.950 . S
H786 C782 0.950 . S
C787 C785 1.390 . S
C787 C788 1.387 . S
C787 H790 0.950 . S
C788 C787 1.387 . S
C788 C791 1.387 . S
H789 C785 0.950 . S
H790 C787 0.950 . S
C791 C782 1.390 . S
C791 H784 0.950 . S
C791 C788 1.387 . S
C792 C793 1.387 . S
C792 H796 0.950 . S
C792 C801 1.390 . S
C793 C792 1.387 . S
C793 C795 1.387 . S
H794 C801 0.950 . S
C795 C793 1.387 . S
C795 C797 1.390 . S
C795 H799 0.950 . S
H796 C792 0.950 . S
C797 C795 1.390 . S
C797 C798 1.387 . S
C797 H800 0.950 . S
C798 C797 1.387 . S
C798 C801 1.387 . S
H799 C795 0.950 . S
H800 C797 0.950 . S
C801 C792 1.390 . S
C801 H794 0.950 . S
C801 C798 1.387 . S
C802 C803 1.387 . S
C802 H806 0.950 . S
C802 C811 1.390 . S
C803 C802 1.387 . S
C803 C805 1.387 . S
H804 C811 0.950 . S
C805 C803 1.387 . S
C805 C807 1.390 . S
C805 H809 0.950 . S
H806 C802 0.950 . S
C807 C805 1.390 . S
C807 C808 1.387 . S
C807 H810 0.950 . S
C808 C807 1.387 . S
C808 C811 1.387 . S
H809 C805 0.950 . S
H810 C807 0.950 . S
C811 C802 1.390 . S
C811 H804 0.950 . S
C811 C808 1.387 . S
C812 C813 1.387 . S
C812 H816 0.950 . S
C812 C821 1.390 . S
C813 C812 1.387 . S
C813 C815 1.387 . S
H814 C821 0.950 . S
C815 C813 1.387 . S
C815 C817 1.390 . S
C815 H819 0.950 . S
H816 C812 0.950 . S
C817 C815 1.390 . S
C817 C818 1.387 . S
C817 H820 0.950 . S
C818 C817 1.387 . S
C818 C821 1.387 . S
H819 C815 0.950 . S
H820 C817 0.950 . S
C821 C812 1.390 . S
C821 H814 0.950 . S
C821 C818 1.387 . S
C822 C823 1.387 . S
C822 H826 0.950 . S
C822 C831 1.390 . S
C823 C822 1.387 . S
C823 C825 1.387 . S
H824 C831 0.950 . S
C825 C823 1.387 . S
C825 C827 1.390 . S
C825 H829 0.950 . S
H826 C822 0.950 . S
C827 C825 1.390 . S
C827 C828 1.387 . S
C827 H830 0.950 . S
C828 C827 1.387 . S
C828 C831 1.387 . S
H829 C825 0.950 . S
H830 C827 0.950 . S
C831 C822 1.390 . S
C831 H824 0.950 . S
C831 C828 1.387 . S
C832 C833 1.387 . S
C832 H836 0.950 . S
C832 C841 1.390 . S
C833 C832 1.387 . S
C833 C835 1.387 . S
H834 C841 0.950 . S
C835 C833 1.387 . S
C835 C837 1.390 . S
C835 H839 0.950 . S
H836 C832 0.950 . S
C837 C835 1.390 . S
C837 C838 1.387 . S
C837 H840 0.950 . S
C838 C837 1.387 . S
C838 C841 1.387 . S
H839 C835 0.950 . S
H840 C837 0.950 . S
C841 C832 1.390 . S
C841 H834 0.950 . S
C841 C838 1.387 . S
C842 C843 1.387 . S
C842 H846 0.950 . S
C842 C851 1.390 . S
C843 C842 1.387 . S
C843 C845 1.387 . S
H844 C851 0.950 . S
C845 C843 1.387 . S
C845 C847 1.390 . S
C845 H849 0.950 . S
H846 C842 0.950 . S
C847 C845 1.390 . S
C847 C848 1.387 . S
C847 H850 0.950 . S
C848 C847 1.387 . S
C848 C851 1.387 . S
H849 C845 0.950 . S
H850 C847 0.950 . S
C851 C842 1.390 . S
C851 H844 0.950 . S
C851 C848 1.387 . S
C852 C853 1.387 . S
C852 H856 0.950 . S
C852 C861 1.390 . S
C853 C852 1.387 . S
C853 C855 1.387 . S
H854 C861 0.950 . S
C855 C853 1.387 . S
C855 C857 1.390 . S
C855 H859 0.950 . S
H856 C852 0.950 . S
C857 C855 1.390 . S
C857 C858 1.387 . S
C857 H860 0.950 . S
C858 C857 1.387 . S
C858 C861 1.387 . S
H859 C855 0.950 . S
H860 C857 0.950 . S
C861 C852 1.390 . S
C861 H854 0.950 . S
C861 C858 1.387 . S
C862 C863 1.387 . S
C862 H866 0.950 . S
C862 C871 1.390 . S
C863 C862 1.387 . S
C863 C865 1.387 . S
H864 C871 0.950 . S
C865 C863 1.387 . S
C865 C867 1.390 . S
C865 H869 0.950 . S
H866 C862 0.950 . S
C867 C865 1.390 . S
C867 C868 1.387 . S
C867 H870 0.950 . S
C868 C867 1.387 . S
C868 C871 1.387 . S
H869 C865 0.950 . S
H870 C867 0.950 . S
C871 C862 1.390 . S
C871 H864 0.950 . S
C871 C868 1.387 . S
C872 C873 1.387 . S
C872 H876 0.950 . S
C872 C881 1.390 . S
C873 C872 1.387 . S
C873 C875 1.387 . S
H874 C881 0.950 . S
C875 C873 1.387 . S
C875 C877 1.390 . S
C875 H879 0.950 . S
H876 C872 0.950 . S
C877 C875 1.390 . S
C877 C878 1.387 . S
C877 H880 0.950 . S
C878 C877 1.387 . S
C878 C881 1.387 . S
H879 C875 0.950 . S
H880 C877 0.950 . S
C881 C872 1.390 . S
C881 H874 0.950 . S
C881 C878 1.387 . S
C882 C883 1.387 . S
C882 H886 0.950 . S
C882 C891 1.390 . S
C883 C882 1.387 . S
C883 C885 1.387 . S
H884 C891 0.950 . S
C885 C883 1.387 . S
C885 C887 1.390 . S
C885 H889 0.950 . S
H886 C882 0.950 . S
C887 C885 1.390 . S
C887 C888 1.387 . S
C887 H890 0.950 . S
C888 C887 1.387 . S
C888 C891 1.387 . S
H889 C885 0.950 . S
H890 C887 0.950 . S
C891 C882 1.390 . S
C891 H884 0.950 . S
C891 C888 1.387 . S
C892 C893 1.387 . S
C892 H896 0.950 . S
C892 C901 1.390 . S
C893 C892 1.387 . S
C893 C895 1.387 . S
H894 C901 0.950 . S
C895 C893 1.387 . S
C895 C897 1.390 . S
C895 H899 0.950 . S
H896 C892 0.950 . S
C897 C895 1.390 . S
C897 C898 1.387 . S
C897 H900 0.950 . S
C898 C897 1.387 . S
C898 C901 1.387 . S
H899 C895 0.950 . S
H900 C897 0.950 . S
C901 C892 1.390 . S
C901 H894 0.950 . S
C901 C898 1.387 . S
C902 C903 1.387 . S
C902 H906 0.950 . S
C902 C911 1.390 . S
C903 C902 1.387 . S
C903 C905 1.387 . S
H904 C911 0.950 . S
C905 C903 1.387 . S
C905 C907 1.390 . S
C905 H909 0.950 . S
H906 C902 0.950 . S
C907 C905 1.390 . S
C907 C908 1.387 . S
C907 H910 0.950 . S
C908 C907 1.387 . S
C908 C911 1.387 . S
H909 C905 0.950 . S
H910 C907 0.950 . S
C911 C902 1.390 . S
C911 H904 0.950 . S
C911 C908 1.387 . S
C912 C913 1.387 . S
C912 H916 0.950 . S
C912 C921 1.390 . S
C913 C912 1.387 . S
C913 C915 1.387 . S
H914 C921 0.950 . S
C915 C913 1.387 . S
C915 C917 1.390 . S
C915 H919 0.950 . S
H916 C912 0.950 . S
C917 C915 1.390 . S
C917 C918 1.387 . S
C917 H920 0.950 . S
C918 C917 1.387 . S
C918 C921 1.387 . S
H919 C915 0.950 . S
H920 C917 0.950 . S
C921 C912 1.390 . S
C921 H914 0.950 . S
C921 C918 1.387 . S
C922 C923 1.387 . S
C922 H926 0.950 . S
C922 C931 1.390 . S
C923 C922 1.387 . S
C923 C925 1.387 . S
H924 C931 0.950 . S
C925 C923 1.387 . S
C925 C927 1.390 . S
C925 H929 0.950 . S
H926 C922 0.950 . S
C927 C925 1.390 . S
C927 C928 1.387 . S
C927 H930 0.950 . S
C928 C927 1.387 . S
C928 C931 1.387 . S
H929 C925 0.950 . S
H930 C927 0.950 . S
C931 C922 1.390 . S
C931 H924 0.950 . S
C931 C928 1.387 . S
C932 C933 1.387 . S
C932 H936 0.950 . S
C932 C941 1.390 . S
C933 C932 1.387 . S
C933 C935 1.387 . S
H934 C941 0.950 . S
C935 C933 1.387 . S
C935 C937 1.390 . S
C935 H939 0.950 . S
H936 C932 0.950 . S
C937 C935 1.390 . S
C937 C938 1.387 . S
C937 H940 0.950 . S
C938 C937 1.387 . S
C938 C941 1.387 . S
H939 C935 0.950 . S
H940 C937 0.950 . S
C941 C932 1.390 . S
C941 H934 0.950 . S
C941 C938 1.387 . S
C942 C943 1.387 . S
C942 H946 0.950 . S
C942 C951 1.390 . S
C943 C942 1.387 . S
C943 C945 1.387 . S
H944 C951 0.950 . S
C945 C943 1.387 . S
C945 C947 1.390 . S
C945 H949 0.950 . S
H946 C942 0.950 . S
C947 C945 1.390 . S
C947 C948 1.387 . S
C947 H950 0.950 . S
C948 C947 1.387 . S
C948 C951 1.387 . S
H949 C945 0.950 . S
H950 C947 0.950 . S
C951 C942 1.390 . S
C951 H944 0.950 . S
C951 C948 1.387 . S
C952 C953 1.387 . S
C952 H956 0.950 . S
C952 C961 1.390 . S
C953 C952 1.387 . S
C953 C955 1.387 . S
H954 C961 0.950 . S
C955 C953 1.387 . S
C955 C957 1.390 . S
C955 H959 0.950 . S
H956 C952 0.950 . S
C957 C955 1.390 . S
C957 C958 1.387 . S
C957 H960 0.950 . S
C958 C957 1.387 . S
C958 C961 1.387 . S
H959 C955 0.950 . S
H960 C957 0.950 . S
C961 C952 1.390 . S
C961 H954 0.950 . S
C961 C958 1.387 . S
C962 C963 1.387 . S
C962 H966 0.950 . S
C962 C971 1.390 . S
C963 C962 1.387 . S
C963 C965 1.387 . S
H964 C971 0.950 . S
C965 C963 1.387 . S
C965 C967 1.390 . S
C965 H969 0.950 . S
H966 C962 0.950 . S
C967 C965 1.390 . S
C967 C968 1.387 . S
C967 H970 0.950 . S
C968 C967 1.387 . S
C968 C971 1.387 . S
H969 C965 0.950 . S
H970 C967 0.950 . S
C971 C962 1.390 . S
C971 H964 0.950 . S
C971 C968 1.387 . S
C972 C973 1.387 . S
C972 H976 0.950 . S
C972 C981 1.390 . S
C973 C972 1.387 . S
C973 C975 1.387 . S
H974 C981 0.950 . S
C975 C973 1.387 . S
C975 C977 1.390 . S
C975 H979 0.950 . S
H976 C972 0.950 . S
C977 C975 1.390 . S
C977 C978 1.387 . S
C977 H980 0.950 . S
C978 C977 1.387 . S
C978 C981 1.387 . S
H979 C975 0.950 . S
H980 C977 0.950 . S
C981 C972 1.390 . S
C981 H974 0.950 . S
C981 C978 1.387 . S
C982 C983 1.387 . S
C982 H986 0.950 . S
C982 C991 1.390 . S
C983 C982 1.387 . S
C983 C985 1.387 . S
H984 C991 0.950 . S
C985 C983 1.387 . S
C985 C987 1.390 . S
C985 H989 0.950 . S
H986 C982 0.950 . S
C987 C985 1.390 . S
C987 C988 1.387 . S
C987 H990 0.950 . S
C988 C987 1.387 . S
C988 C991 1.387 . S
H989 C985 0.950 . S
H990 C987 0.950 . S
C991 C982 1.390 . S
C991 H984 0.950 . S
C991 C988 1.387 . S
C992 C993 1.387 . S
C992 H996 0.950 . S
C992 C1001 1.390 . S
C993 C992 1.387 . S
C993 C995 1.387 . S
H994 C1001 0.950 . S
C995 C993 1.387 . S
C995 C997 1.390 . S
C995 H999 0.950 . S
H996 C992 0.950 . S
C997 C995 1.390 . S
C997 C998 1.387 . S
C997 H1000 0.950 . S
C998 C997 1.387 . S
C998 C1001 1.387 . S
H999 C995 0.950 . S
H1000 C997 0.950 . S
C1001 C992 1.390 . S
C1001 H994 0.950 . S
C1001 C998 1.387 . S
C1002 C1003 1.387 . S
C1002 H1006 0.950 . S
C1002 C1011 1.390 . S
C1003 C1002 1.387 . S
C1003 C1005 1.387 . S
H1004 C1011 0.950 . S
C1005 C1003 1.387 . S
C1005 C1007 1.390 . S
C1005 H1009 0.950 . S
H1006 C1002 0.950 . S
C1007 C1005 1.390 . S
C1007 C1008 1.387 . S
C1007 H1010 0.950 . S
C1008 C1007 1.387 . S
C1008 C1011 1.387 . S
H1009 C1005 0.950 . S
H1010 C1007 0.950 . S
C1011 C1002 1.390 . S
C1011 H1004 0.950 . S
C1011 C1008 1.387 . S
C1012 C1013 1.387 . S
C1012 H1016 0.950 . S
C1012 C1021 1.390 . S
C1013 C1012 1.387 . S
C1013 C1015 1.387 . S
H1014 C1021 0.950 . S
C1015 C1013 1.387 . S
C1015 C1017 1.390 . S
C1015 H1019 0.950 . S
H1016 C1012 0.950 . S
C1017 C1015 1.390 . S
C1017 C1018 1.387 . S
C1017 H1020 0.950 . S
C1018 C1017 1.387 . S
C1018 C1021 1.387 . S
H1019 C1015 0.950 . S
H1020 C1017 0.950 . S
C1021 C1012 1.390 . S
C1021 H1014 0.950 . S
C1021 C1018 1.387 . S
C1022 C1023 1.387 . S
C1022 H1026 0.950 . S
C1022 C1031 1.390 . S
C1023 C1022 1.387 . S
C1023 C1025 1.387 . S
H1024 C1031 0.950 . S
C1025 C1023 1.387 . S
C1025 C1027 1.390 . S
C1025 H1029 0.950 . S
H1026 C1022 0.950 . S
C1027 C1025 1.390 . S
C1027 C1028 1.387 . S
C1027 H1030 0.950 . S
C1028 C1027 1.387 . S
C1028 C1031 1.387 . S
H1029 C1025 0.950 . S
H1030 C1027 0.950 . S
C1031 C1022 1.390 . S
C1031 H1024 0.950 . S
C1031 C1028 1.387 . S
C1032 C1033 1.387 . S
C1032 H1036 0.950 . S
C1032 C1041 1.390 . S
C1033 C1032 1.387 . S
C1033 C1035 1.387 . S
H1034 C1041 0.950 . S
C1035 C1033 1.387 . S
C1035 C1037 1.390 . S
C1035 H1039 0.950 . S
H1036 C1032 0.950 . S
C1037 C1035 1.390 . S
C1037 C1038 1.387 . S
C1037 H1040 0.950 . S
C1038 C1037 1.387 . S
C1038 C1041 1.387 . S
H1039 C1035 0.950 . S
H1040 C1037 0.950 . S
C1041 C1032 1.390 . S
C1041 H1034 0.950 . S
C1041 C1038 1.387 . S
C1042 C1043 1.387 . S
C1042 H1046 0.950 . S
C1042 C1051 1.390 . S
C1043 C1042 1.387 . S
C1043 C1045 1.387 . S
H1044 C1051 0.950 . S
C1045 C1043 1.387 . S
C1045 C1047 1.390 . S
C1045 H1049 0.950 . S
H1046 C1042 0.950 . S
C1047 C1045 1.390 . S
C1047 C1048 1.387 . S
C1047 H1050 0.950 . S
C1048 C1047 1.387 . S
C1048 C1051 1.387 . S
H1049 C1045 0.950 . S
H1050 C1047 0.950 . S
C1051 C1042 1.390 . S
C1051 H1044 0.950 . S
C1051 C1048 1.387 . S
C1052 C1053 1.387 . S
C1052 H1056 0.950 . S
C1052 C1061 1.390 . S
C1053 C1052 1.387 . S
C1053 C1055 1.387 . S
H1054 C1061 0.950 . S
C1055 C1053 1.387 . S
C1055 C1057 1.390 . S
C1055 H1059 0.950 . S
H1056 C1052 0.950 . S
C1057 C1055 1.390 . S
C1057 C1058 1.387 . S
C1057 H1060 0.950 . S
C1058 C1057 1.387 . S
C1058 C1061 1.387 . S
H1059 C1055 0.950 . S
H1060 C1057 0.950 . S
C1061 C1052 1.390 . S
C1061 H1054 0.950 . S
C1061 C1058 1.387 . S
C1062 C1063 1.387 . S
C1062 H1066 0.950 . S
C1062 C1071 1.390 . S
C1063 C1062 1.387 . S
C1063 C1065 1.387 . S
H1064 C1071 0.950 . S
C1065 C1063 1.387 . S
C1065 C1067 1.390 . S
C1065 H1069 0.950 . S
H1066 C1062 0.950 . S
C1067 C1065 1.390 . S
C1067 C1068 1.387 . S
C1067 H1070 0.950 . S
C1068 C1067 1.387 . S
C1068 C1071 1.387 . S
H1069 C1065 0.950 . S
H1070 C1067 0.950 . S
C1071 C1062 1.390 . S
C1071 H1064 0.950 . S
C1071 C1068 1.387 . S
C1072 C1073 1.387 . S
C1072 H1076 0.950 . S
C1072 C1081 1.390 . S
C1073 C1072 1.387 . S
C1073 C1075 1.387 . S
H1074 C1081 0.950 . S
C1075 C1073 1.387 . S
C1075 C1077 1.390 . S
C1075 H1079 0.950 . S
H1076 C1072 0.950 . S
C1077 C1075 1.390 . S
C1077 C1078 1.387 . S
C1077 H1080 0.950 . S
C1078 C1077 1.387 . S
C1078 C1081 1.387 . S
H1079 C1075 0.950 . S
H1080 C1077 0.950 . S
C1081 C1072 1.390 . S
C1081 H1074 0.950 . S
C1081 C1078 1.387 . S
C1082 C1083 1.387 . S
C1082 H1086 0.950 . S
C1082 C1091 1.390 . S
C1083 C1082 1.387 . S
C1083 C1085 1.387 . S
H1084 C1091 0.950 . S
C1085 C1083 1.387 . S
C1085 C1087 1.390 . S
C1085 H1089 0.950 . S
H1086 C1082 0.950 . S
C1087 C1085 1.390 . S
C1087 C1088 1.387 . S
C1087 H1090 0.950 . S
C1088 C1087 1.387 . S
C1088 C1091 1.387 . S
H1089 C1085 0.950 . S
H1090 C1087 0.950 . S
C1091 C1082 1.390 . S
C1091 H1084 0.950 . S
C1091 C1088 1.387 . S
C1092 C1093 1.387 . S
C1092 H1096 0.950 . S
C1092 C1101 1.390 . S
C1093 C1092 1.387 . S
C1093 C1095 1.387 . S
H1094 C1101 0.950 . S
C1095 C1093 1.387 . S
C1095 C1097 1.390 . S
C1095 H1099 0.950 . S
H1096 C1092 0.950 . S
C1097 C1095 1.390 . S
C1097 C1098 1.387 . S
C1097 H1100 0.950 . S
C1098 C1097 1.387 . S
C1098 C1101 1.387 . S
H1099 C1095 0.950 . S
H1100 C1097 0.950 . S
C1101 C1092 1.390 . S
C1101 H1094 0.950 . S
C1101 C1098 1.387 . S
C1102 C1103 1.387 . S
C1102 H1106 0.950 . S
C1102 C1111 1.390 . S
C1103 C1102 1.387 . S
C1103 C1105 1.387 . S
H1104 C1111 0.950 . S
C1105 C1103 1.387 . S
C1105 C1107 1.390 . S
C1105 H1109 0.950 . S
H1106 C1102 0.950 . S
C1107 C1105 1.390 . S
C1107 C1108 1.387 . S
C1107 H1110 0.950 . S
C1108 C1107 1.387 . S
C1108 C1111 1.387 . S
H1109 C1105 0.950 . S
H1110 C1107 0.950 . S
C1111 C1102 1.390 . S
C1111 H1104 0.950 . S
C1111 C1108 1.387 . S
C1112 C1113 1.387 . S
C1112 H1116 0.950 . S
C1112 C1121 1.390 . S
C1113 C1112 1.387 . S
C1113 C1115 1.387 . S
H1114 C1121 0.950 . S
C1115 C1113 1.387 . S
C1115 C1117 1.390 . S
C1115 H1119 0.950 . S
H1116 C1112 0.950 . S
C1117 C1115 1.390 . S
C1117 C1118 1.387 . S
C1117 H1120 0.950 . S
C1118 C1117 1.387 . S
C1118 C1121 1.387 . S
H1119 C1115 0.950 . S
H1120 C1117 0.950 . S
C1121 C1112 1.390 . S
C1121 H1114 0.950 . S
C1121 C1118 1.387 . S
C1122 C1123 1.387 . S
C1122 H1126 0.950 . S
C1122 C1131 1.390 . S
C1123 C1122 1.387 . S
C1123 C1125 1.387 . S
H1124 C1131 0.950 . S
C1125 C1123 1.387 . S
C1125 C1127 1.390 . S
C1125 H1129 0.950 . S
H1126 C1122 0.950 . S
C1127 C1125 1.390 . S
C1127 C1128 1.387 . S
C1127 H1130 0.950 . S
C1128 C1127 1.387 . S
C1128 C1131 1.387 . S
H1129 C1125 0.950 . S
H1130 C1127 0.950 . S
C1131 C1122 1.390 . S
C1131 H1124 0.950 . S
C1131 C1128 1.387 . S
C1132 C1133 1.387 . S
C1132 H1136 0.950 . S
C1132 C1141 1.390 . S
C1133 C1132 1.387 . S
C1133 C1135 1.387 . S
H1134 C1141 0.950 . S
C1135 C1133 1.387 . S
C1135 C1137 1.390 . S
C1135 H1139 0.950 . S
H1136 C1132 0.950 . S
C1137 C1135 1.390 . S
C1137 C1138 1.387 . S
C1137 H1140 0.950 . S
C1138 C1137 1.387 . S
C1138 C1141 1.387 . S
H1139 C1135 0.950 . S
H1140 C1137 0.950 . S
C1141 C1132 1.390 . S
C1141 H1134 0.950 . S
C1141 C1138 1.387 . S
C1142 C1143 1.387 . S
C1142 H1146 0.950 . S
C1142 C1151 1.390 . S
C1143 C1142 1.387 . S
C1143 C1145 1.387 . S
H1144 C1151 0.950 . S
C1145 C1143 1.387 . S
C1145 C1147 1.390 . S
C1145 H1149 0.950 . S
H1146 C1142 0.950 . S
C1147 C1145 1.390 . S
C1147 C1148 1.387 . S
C1147 H1150 0.950 . S
C1148 C1147 1.387 . S
C1148 C1151 1.387 . S
H1149 C1145 0.950 . S
H1150 C1147 0.950 . S
C1151 C1142 1.390 . S
C1151 H1144 0.950 . S
C1151 C1148 1.387 . S
C1152 C1153 1.387 . S
C1152 H1156 0.950 . S
C1152 C1161 1.390 . S
C1153 C1152 1.387 . S
C1153 C1155 1.387 . S
H1154 C1161 0.950 . S
C1155 C1153 1.387 . S
C1155 C1157 1.390 . S
C1155 H1159 0.950 . S
H1156 C1152 0.950 . S
C1157 C1155 1.390 . S
C1157 C1158 1.387 . S
C1157 H1160 0.950 . S
C1158 C1157 1.387 . S
C1158 C1161 1.387 . S
H1159 C1155 0.950 . S
H1160 C1157 0.950 . S
C1161 C1152 1.390 . S
C1161 H1154 0.950 . S
C1161 C1158 1.387 . S
C1162 C1163 1.387 . S
C1162 H1166 0.950 . S
C1162 C1171 1.390 . S
C1163 C1162 1.387 . S
C1163 C1165 1.387 . S
H1164 C1171 0.950 . S
C1165 C1163 1.387 . S
C1165 C1167 1.390 . S
C1165 H1169 0.950 . S
H1166 C1162 0.950 . S
C1167 C1165 1.390 . S
C1167 C1168 1.387 . S
C1167 H1170 0.950 . S
C1168 C1167 1.387 . S
C1168 C1171 1.387 . S
H1169 C1165 0.950 . S
H1170 C1167 0.950 . S
C1171 C1162 1.390 . S
C1171 H1164 0.950 . S
C1171 C1168 1.387 . S
C1172 C1173 1.387 . S
C1172 H1176 0.950 . S
C1172 C1181 1.390 . S
C1173 C1172 1.387 . S
C1173 C1175 1.387 . S
H1174 C1181 0.950 . S
C1175 C1173 1.387 . S
C1175 C1177 1.390 . S
C1175 H1179 0.950 . S
H1176 C1172 0.950 . S
C1177 C1175 1.390 . S
C1177 C1178 1.387 . S
C1177 H1180 0.950 . S
C1178 C1177 1.387 . S
C1178 C1181 1.387 . S
H1179 C1175 0.950 . S
H1180 C1177 0.950 . S
C1181 C1172 1.390 . S
C1181 H1174 0.950 . S
C1181 C1178 1.387 . S
C1182 C1183 1.387 . S
C1182 H1186 0.950 . S
C1182 C1191 1.390 . S
C1183 C1182 1.387 . S
C1183 C1185 1.387 . S
H1184 C1191 0.950 . S
C1185 C1183 1.387 . S
C1185 C1187 1.390 . S
C1185 H1189 0.950 . S
H1186 C1182 0.950 . S
C1187 C1185 1.390 . S
C1187 C1188 1.387 . S
C1187 H1190 0.950 . S
C1188 C1187 1.387 . S
C1188 C1191 1.387 . S
H1189 C1185 0.950 . S
H1190 C1187 0.950 . S
C1191 C1182 1.390 . S
C1191 H1184 0.950 . S
C1191 C1188 1.387 . S
C1192 C1193 1.387 . S
C1192 H1196 0.950 . S
C1192 C1201 1.390 . S
C1193 C1192 1.387 . S
C1193 C1195 1.387 . S
H1194 C1201 0.950 . S
C1195 C1193 1.387 . S
C1195 C1197 1.390 . S
C1195 H1199 0.950 . S
H1196 C1192 0.950 . S
C1197 C1195 1.390 . S
C1197 C1198 1.387 . S
C1197 H1200 0.950 . S
C1198 C1197 1.387 . S
C1198 C1201 1.387 . S
H1199 C1195 0.950 . S
H1200 C1197 0.950 . S
C1201 C1192 1.390 . S
C1201 H1194 0.950 . S
C1201 C1198 1.387 . S
C1202 C1203 1.387 . S
C1202 H1206 0.950 . S
C1202 C1211 1.390 . S
C1203 C1202 1.387 . S
C1203 C1205 1.387 . S
H1204 C1211 0.950 . S
C1205 C1203 1.387 . S
C1205 C1207 1.390 . S
C1205 H1209 0.950 . S
H1206 C1202 0.950 . S
C1207 C1205 1.390 . S
C1207 C1208 1.387 . S
C1207 H1210 0.950 . S
C1208 C1207 1.387 . S
C1208 C1211 1.387 . S
H1209 C1205 0.950 . S
H1210 C1207 0.950 . S
C1211 C1202 1.390 . S
C1211 H1204 0.950 . S
C1211 C1208 1.387 . S
C1212 C1213 1.387 . S
C1212 H1216 0.950 . S
C1212 C1221 1.390 . S
C1213 C1212 1.387 . S
C1213 C1215 1.387 . S
H1214 C1221 0.950 . S
C1215 C1213 1.387 . S
C1215 C1217 1.390 . S
C1215 H1219 0.950 . S
H1216 C1212 0.950 . S
C1217 C1215 1.390 . S
C1217 C1218 1.387 . S
C1217 H1220 0.950 . S
C1218 C1217 1.387 . S
C1218 C1221 1.387 . S
H1219 C1215 0.950 . S
H1220 C1217 0.950 . S
C1221 C1212 1.390 . S
C1221 H1214 0.950 . S
C1221 C1218 1.387 . S
C1222 C1223 1.387 . S
C1222 H1226 0.950 . S
C1222 C1231 1.390 . S
C1223 C1222 1.387 . S
C1223 C1225 1.387 . S
H1224 C1231 0.950 . S
C1225 C1223 1.387 . S
C1225 C1227 1.390 . S
C1225 H1229 0.950 . S
H1226 C1222 0.950 . S
C1227 C1225 1.390 . S
C1227 C1228 1.387 . S
C1227 H1230 0.950 . S
C1228 C1227 1.387 . S
C1228 C1231 1.387 . S
H1229 C1225 0.950 . S
H1230 C1227 0.950 . S
C1231 C1222 1.390 . S
C1231 H1224 0.950 . S
C1231 C1228 1.387 . S
C1232 C1233 1.387 . S
C1232 H1236 0.950 . S
C1232 C1241 1.390 . S
C1233 C1232 1.387 . S
C1233 C1235 1.387 . S
H1234 C1241 0.950 . S
C1235 C1233 1.387 . S
C1235 C1237 1.390 . S
C1235 H1239 0.950 . S
H1236 C1232 0.950 . S
C1237 C1235 1.390 . S
C1237 C1238 1.387 . S
C1237 H1240 0.950 . S
C1238 C1237 1.387 . S
C1238 C1241 1.387 . S
H1239 C1235 0.950 . S
H1240 C1237 0.950 . S
C1241 C1232 1.390 . S
C1241 H1234 0.950 . S
C1241 C1238 1.387 . S
C1242 C1243 1.387 . S
C1242 H1246 0.950 . S
C1242 C1251 1.390 . S
C1243 C1242 1.387 . S
C1243 C1245 1.387 . S
H1244 C1251 0.950 . S
C1245 C1243 1.387 . S
C1245 C1247 1.390 . S
C1245 H1249 0.950 . S
H1246 C1242 0.950 . S
C1247 C1245 1.390 . S
C1247 C1248 1.387 . S
C1247 H1250 0.950 . S
C1248 C1247 1.387 . S
C1248 C1251 1.387 . S
H1249 C1245 0.950 . S
H1250 C1247 0.950 . S
C1251 C1242 1.390 . S
C1251 H1244 0.950 . S
C1251 C1248 1.387 . S
C1252 C1253 1.387 . S
C1252 H1256 0.950 . S
C1252 C1261 1.390 . S
C1253 C1252 1.387 . S
C1253 C1255 1.387 . S
H1254 C1261 0.950 . S
C1255 C1253 1.387 . S
C1255 C1257 1.390 . S
C1255 H1259 0.950 . S
H1256 C1252 0.950 . S
C1257 C1255 1.390 . S
C1257 C1258 1.387 . S
C1257 H1260 0.950 . S
C1258 C1257 1.387 . S
C1258 C1261 1.387 . S
H1259 C1255 0.950 . S
H1260 C1257 0.950 . S
C1261 C1252 1.390 . S
C1261 H1254 0.950 . S
C1261 C1258 1.387 . S
C1262 C1263 1.387 . S
C1262 H1266 0.950 . S
C1262 C1271 1.390 . S
C1263 C1262 1.387 . S
C1263 C1265 1.387 . S
H1264 C1271 0.950 . S
C1265 C1263 1.387 . S
C1265 C1267 1.390 . S
C1265 H1269 0.950 . S
H1266 C1262 0.950 . S
C1267 C1265 1.390 . S
C1267 C1268 1.387 . S
C1267 H1270 0.950 . S
C1268 C1267 1.387 . S
C1268 C1271 1.387 . S
H1269 C1265 0.950 . S
H1270 C1267 0.950 . S
C1271 C1262 1.390 . S
C1271 H1264 0.950 . S
C1271 C1268 1.387 . S
C1272 C1273 1.387 . S
C1272 H1276 0.950 . S
C1272 C1281 1.390 . S
C1273 C1272 1.387 . S
C1273 C1275 1.387 . S
H1274 C1281 0.950 . S
C1275 C1273 1.387 . S
C1275 C1277 1.390 . S
C1275 H1279 0.950 . S
H1276 C1272 0.950 . S
C1277 C1275 1.390 . S
C1277 C1278 1.387 . S
C1277 H1280 0.950 . S
C1278 C1277 1.387 . S
C1278 C1281 1.387 . S
H1279 C1275 0.950 . S
H1280 C1277 0.950 . S
C1281 C1272 1.390 . S
C1281 H1274 0.950 . S
C1281 C1278 1.387 . S
C1282 C1283 1.387 . S
C1282 H1286 0.950 . S
C1282 C1291 1.390 . S
C1283 C1282 1.387 . S
C1283 C1285 1.387 . S
H1284 C1291 0.950 . S
C1285 C1283 1.387 . S
C1285 C1287 1.390 . S
C1285 H1289 0.950 . S
H1286 C1282 0.950 . S
C1287 C1285 1.390 . S
C1287 C1288 1.387 . S
C1287 H1290 0.950 . S
C1288 C1287 1.387 . S
C1288 C1291 1.387 . S
H1289 C1285 0.950 . S
H1290 C1287 0.950 . S
C1291 C1282 1.390 . S
C1291 H1284 0.950 . S
C1291 C1288 1.387 . S
C1292 C1293 1.387 . S
C1292 H1296 0.950 . S
C1292 C1301 1.390 . S
C1293 C1292 1.387 . S
C1293 C1295 1.387 . S
H1294 C1301 0.950 . S
C1295 C1293 1.387 . S
C1295 C1297 1.390 . S
C1295 H1299 0.950 . S
H1296 C1292 0.950 . S
C1297 C1295 1.390 . S
C1297 C1298 1.387 . S
C1297 H1300 0.950 . S
C1298 C1297 1.387 . S
C1298 C1301 1.387 . S
H1299 C1295 0.950 . S
H1300 C1297 0.950 . S
C1301 C1292 1.390 . S
C1301 H1294 0.950 . S
C1301 C1298 1.387 . S
C1302 C1303 1.387 . S
C1302 H1306 0.950 . S
C1302 C1311 1.390 . S
C1303 C1302 1.387 . S
C1303 C1305 1.387 . S
H1304 C1311 0.950 . S
C1305 C1303 1.387 . S
C1305 C1307 1.390 . S
C1305 H1309 0.950 . S
H1306 C1302 0.950 . S
C1307 C1305 1.390 . S
C1307 C1308 1.387 . S
C1307 H1310 0.950 . S
C1308 C1307 1.387 . S
C1308 C1311 1.387 . S
H1309 C1305 0.950 . S
H1310 C1307 0.950 . S
C1311 C1302 1.390 . S
C1311 H1304 0.950 . S
C1311 C1308 1.387 . S
C1312 C1313 1.387 . S
C1312 H1316 0.950 . S
C1312 C1321 1.390 . S
C1313 C1312 1.387 . S
C1313 C1315 1.387 . S
H1314 C1321 0.950 . S
C1315 C1313 1.387 . S
C1315 C1317 1.390 . S
C1315 H1319 0.950 . S
H1316 C1312 0.950 . S
C1317 C1315 1.390 . S
C1317 C1318 1.387 . S
C1317 H1320 0.950 . S
C1318 C1317 1.387 . S
C1318 C1321 1.387 . S
H1319 C1315 0.950 . S
H1320 C1317 0.950 . S
C1321 C1312 1.390 . S
C1321 H1314 0.950 . S
C1321 C1318 1.387 . S
C1322 C1323 1.387 . S
C1322 H1326 0.950 . S
C1322 C1331 1.390 . S
C1323 C1322 1.387 . S
C1323 C1325 1.387 . S
H1324 C1331 0.950 . S
C1325 C1323 1.387 . S
C1325 C1327 1.390 . S
C1325 H1329 0.950 . S
H1326 C1322 0.950 . S
C1327 C1325 1.390 . S
C1327 C1328 1.387 . S
C1327 H1330 0.950 . S
C1328 C1327 1.387 . S
C1328 C1331 1.387 . S
H1329 C1325 0.950 . S
H1330 C1327 0.950 . S
C1331 C1322 1.390 . S
C1331 H1324 0.950 . S
C1331 C1328 1.387 . S
C1332 C1333 1.387 . S
C1332 H1336 0.950 . S
C1332 C1341 1.390 . S
C1333 C1332 1.387 . S
C1333 C1335 1.387 . S
H1334 C1341 0.950 . S
C1335 C1333 1.387 . S
C1335 C1337 1.390 . S
C1335 H1339 0.950 . S
H1336 C1332 0.950 . S
C1337 C1335 1.390 . S
C1337 C1338 1.387 . S
C1337 H1340 0.950 . S
C1338 C1337 1.387 . S
C1338 C1341 1.387 . S
H1339 C1335 0.950 . S
H1340 C1337 0.950 . S
C1341 C1332 1.390 . S
C1341 H1334 0.950 . S
C1341 C1338 1.387 . S
C1342 C1343 1.387 . S
C1342 H1346 0.950 . S
C1342 C1351 1.390 . S
C1343 C1342 1.387 . S
C1343 C1345 1.387 . S
H1344 C1351 0.950 . S
C1345 C1343 1.387 . S
C1345 C1347 1.390 . S
C1345 H1349 0.950 . S
H1346 C1342 0.950 . S
C1347 C1345 1.390 . S
C1347 C1348 1.387 . S
C1347 H1350 0.950 . S
C1348 C1347 1.387 . S
C1348 C1351 1.387 . S
H1349 C1345 0.950 . S
H1350 C1347 0.950 . S
C1351 C1342 1.390 . S
C1351 H1344 0.950 . S
C1351 C1348 1.387 . S
C1352 C1353 1.387 . S
C1352 H1356 0.950 . S
C1352 C1361 1.390 . S
C1353 C1352 1.387 . S
C1353 C1355 1.387 . S
H1354 C1361 0.950 . S
C1355 C1353 1.387 . S
C1355 C1357 1.390 . S
C1355 H1359 0.950 . S
H1356 C1352 0.950 . S
C1357 C1355 1.390 . S
C1357 C1358 1.387 . S
C1357 H1360 0.950 . S
C1358 C1357 1.387 . S
C1358 C1361 1.387 . S
H1359 C1355 0.950 . S
H1360 C1357 0.950 . S
C1361 C1352 1.390 . S
C1361 H1354 0.950 . S
C1361 C1358 1.387 . S
C1362 C1363 1.387 . S
C1362 H1366 0.950 . S
C1362 C1371 1.390 . S
C1363 C1362 1.387 . S
C1363 C1365 1.387 . S
H1364 C1371 0.950 . S
C1365 C1363 1.387 . S
C1365 C1367 1.390 . S
C1365 H1369 0.950 . S
H1366 C1362 0.950 . S
C1367 C1365 1.390 . S
C1367 C1368 1.387 . S
C1367 H1370 0.950 . S
C1368 C1367 1.387 . S
C1368 C1371 1.387 . S
H1369 C1365 0.950 . S
H1370 C1367 0.950 . S
C1371 C1362 1.390 . S
C1371 H1364 0.950 . S
C1371 C1368 1.387 . S
C1372 C1373 1.387 . S
C1372 H1376 0.950 . S
C1372 C1381 1.390 . S
C1373 C1372 1.387 . S
C1373 C1375 1.387 . S
H1374 C1381 0.950 . S
C1375 C1373 1.387 . S
C1375 C1377 1.390 . S
C1375 H1379 0.950 . S
H1376 C1372 0.950 . S
C1377 C1375 1.390 . S
C1377 C1378 1.387 . S
C1377 H1380 0.950 . S
C1378 C1377 1.387 . S
C1378 C1381 1.387 . S
H1379 C1375 0.950 . S
H1380 C1377 0.950 . S
C1381 C1372 1.390 . S
C1381 H1374 0.950 . S
C1381 C1378 1.387 . S
C1382 C1383 1.387 . S
C1382 H1386 0.950 . S
C1382 C1391 1.390 . S
C1383 C1382 1.387 . S
C1383 C1385 1.387 . S
H1384 C1391 0.950 . S
C1385 C1383 1.387 . S
C1385 C1387 1.390 . S
C1385 H1389 0.950 . S
H1386 C1382 0.950 . S
C1387 C1385 1.390 . S
C1387 C1388 1.387 . S
C1387 H1390 0.950 . S
C1388 C1387 1.387 . S
C1388 C1391 1.387 . S
H1389 C1385 0.950 . S
H1390 C1387 0.950 . S
C1391 C1382 1.390 . S
C1391 H1384 0.950 . S
C1391 C1388 1.387 . S
C1392 C1393 1.387 . S
C1392 H1396 0.950 . S
C1392 C1401 1.390 1_554 S
C1393 C1392 1.387 . S
C1393 C1395 1.387 . S
H1394 C1401 0.950 . S
C1395 C1393 1.387 . S
C1395 C1397 1.390 1_554 S
C1395 H1399 0.950 . S
H1396 C1392 0.950 . S
C1397 C1395 1.390 1_556 S
C1397 C1398 1.387 . S
C1397 H1400 0.950 . S
C1398 C1397 1.387 . S
C1398 C1401 1.387 . S
H1399 C1395 0.950 . S
H1400 C1397 0.950 . S
C1401 C1392 1.390 1_556 S
C1401 H1394 0.950 . S
C1401 C1398 1.387 . S
C1402 C1403 1.387 . S
C1402 H1406 0.950 . S
C1402 C1411 1.390 1_556 S
C1403 C1402 1.387 . S
C1403 C1405 1.387 . S
H1404 C1411 0.950 . S
C1405 C1403 1.387 . S
C1405 C1407 1.390 1_556 S
C1405 H1409 0.950 . S
H1406 C1402 0.950 . S
C1407 C1405 1.390 1_554 S
C1407 C1408 1.387 . S
C1407 H1410 0.950 . S
C1408 C1407 1.387 . S
C1408 C1411 1.387 . S
H1409 C1405 0.950 . S
H1410 C1407 0.950 . S
C1411 C1402 1.390 1_554 S
C1411 H1404 0.950 . S
C1411 C1408 1.387 . S
C1412 C1413 1.387 . S
C1412 H1416 0.950 . S
C1412 C1421 1.390 1_554 S
C1413 C1412 1.387 . S
C1413 C1415 1.387 . S
H1414 C1421 0.950 . S
C1415 C1413 1.387 . S
C1415 C1417 1.390 1_554 S
C1415 H1419 0.950 . S
H1416 C1412 0.950 . S
C1417 C1415 1.390 1_556 S
C1417 C1418 1.387 . S
C1417 H1420 0.950 . S
C1418 C1417 1.387 . S
C1418 C1421 1.387 . S
H1419 C1415 0.950 . S
H1420 C1417 0.950 . S
C1421 C1412 1.390 1_556 S
C1421 H1414 0.950 . S
C1421 C1418 1.387 . S
C1422 C1423 1.387 . S
C1422 H1426 0.950 . S
C1422 C1431 1.390 1_554 S
C1423 C1422 1.387 . S
C1423 C1425 1.387 . S
H1424 C1431 0.950 . S
C1425 C1423 1.387 . S
C1425 C1427 1.390 1_554 S
C1425 H1429 0.950 . S
H1426 C1422 0.950 . S
C1427 C1425 1.390 1_556 S
C1427 C1428 1.387 . S
C1427 H1430 0.950 . S
C1428 C1427 1.387 . S
C1428 C1431 1.387 . S
H1429 C1425 0.950 . S
H1430 C1427 0.950 . S
C1431 C1422 1.390 1_556 S
C1431 H1424 0.950 . S
C1431 C1428 1.387 . S
C1432 C1433 1.387 . S
C1432 H1436 0.950 . S
C1432 C1441 1.390 1_556 S
C1433 C1432 1.387 . S
C1433 C1435 1.387 . S
H1434 C1441 0.950 . S
C1435 C1433 1.387 . S
C1435 C1437 1.390 1_556 S
C1435 H1439 0.950 . S
H1436 C1432 0.950 . S
C1437 C1435 1.390 1_554 S
C1437 C1438 1.387 . S
C1437 H1440 0.950 . S
C1438 C1437 1.387 . S
C1438 C1441 1.387 . S
H1439 C1435 0.950 . S
H1440 C1437 0.950 . S
C1441 C1432 1.390 1_554 S
C1441 H1434 0.950 . S
C1441 C1438 1.387 . S
C1442 C1443 1.387 . S
C1442 H1446 0.950 . S
C1442 C1451 1.390 1_554 S
C1443 C1442 1.387 . S
C1443 C1445 1.387 . S
H1444 C1451 0.950 . S
C1445 C1443 1.387 . S
C1445 C1447 1.390 1_554 S
C1445 H1449 0.950 . S
H1446 C1442 0.950 . S
C1447 C1445 1.390 1_556 S
C1447 C1448 1.387 . S
C1447 H1450 0.950 . S
C1448 C1447 1.387 . S
C1448 C1451 1.387 . S
H1449 C1445 0.950 . S
H1450 C1447 0.950 . S
C1451 C1442 1.390 1_556 S
C1451 H1444 0.950 . S
C1451 C1448 1.387 . S
C1452 C1453 1.387 . S
C1452 H1456 0.950 . S
C1452 C1461 1.390 1_556 S
C1453 C1452 1.387 . S
C1453 C1455 1.387 . S
H1454 C1461 0.950 . S
C1455 C1453 1.387 . S
C1455 C1457 1.390 1_556 S
C1455 H1459 0.950 . S
H1456 C1452 0.950 . S
C1457 C1455 1.390 1_554 S
C1457 C1458 1.387 . S
C1457 H1460 0.950 . S
C1458 C1457 1.387 . S
C1458 C1461 1.387 . S
H1459 C1455 0.950 . S
H1460 C1457 0.950 . S
C1461 C1452 1.390 1_554 S
C1461 H1454 0.950 . S
C1461 C1458 1.387 . S
C1462 C1463 1.387 . S
C1462 H1466 0.950 . S
C1462 C1471 1.390 1_554 S
C1463 C1462 1.387 . S
C1463 C1465 1.387 . S
H1464 C1471 0.950 . S
C1465 C1463 1.387 . S
C1465 C1467 1.390 1_554 S
C1465 H1469 0.950 . S
H1466 C1462 0.950 . S
C1467 C1465 1.390 1_556 S
C1467 C1468 1.387 . S
C1467 H1470 0.950 . S
C1468 C1467 1.387 . S
C1468 C1471 1.387 . S
H1469 C1465 0.950 . S
H1470 C1467 0.950 . S
C1471 C1462 1.390 1_556 S
C1471 H1464 0.950 . S
C1471 C1468 1.387 . S
C1472 C1473 1.387 . S
C1472 H1476 0.950 . S
C1472 C1481 1.390 1_455 S
C1473 C1472 1.387 . S
C1473 C1475 1.387 . S
H1474 C1481 0.950 . S
C1475 C1473 1.387 . S
C1475 C1477 1.390 1_455 S
C1475 H1479 0.950 . S
H1476 C1472 0.950 . S
C1477 C1475 1.390 1_655 S
C1477 C1478 1.387 . S
C1477 H1480 0.950 . S
C1478 C1477 1.387 . S
C1478 C1481 1.387 . S
H1479 C1475 0.950 . S
H1480 C1477 0.950 . S
C1481 C1472 1.390 1_655 S
C1481 H1474 0.950 . S
C1481 C1478 1.387 . S
C1482 C1483 1.387 . S
C1482 H1486 0.950 . S
C1482 C1491 1.390 1_565 S
C1483 C1482 1.387 . S
C1483 C1485 1.387 . S
H1484 C1491 0.950 . S
C1485 C1483 1.387 . S
C1485 C1487 1.390 1_565 S
C1485 H1489 0.950 . S
H1486 C1482 0.950 . S
C1487 C1485 1.390 1_545 S
C1487 C1488 1.387 . S
C1487 H1490 0.950 . S
C1488 C1487 1.387 . S
C1488 C1491 1.387 . S
H1489 C1485 0.950 . S
H1490 C1487 0.950 . S
C1491 C1482 1.390 1_545 S
C1491 H1484 0.950 . S
C1491 C1488 1.387 . S
C1492 C1493 1.387 . S
C1492 H1496 0.950 . S
C1492 C1501 1.390 1_455 S
C1493 C1492 1.387 . S
C1493 C1495 1.387 . S
H1494 C1501 0.950 . S
C1495 C1493 1.387 . S
C1495 C1497 1.390 1_455 S
C1495 H1499 0.950 . S
H1496 C1492 0.950 . S
C1497 C1495 1.390 1_655 S
C1497 C1498 1.387 . S
C1497 H1500 0.950 . S
C1498 C1497 1.387 . S
C1498 C1501 1.387 . S
H1499 C1495 0.950 . S
H1500 C1497 0.950 . S
C1501 C1492 1.390 1_655 S
C1501 H1494 0.950 . S
C1501 C1498 1.387 . S
C1502 C1503 1.387 . S
C1502 H1506 0.950 . S
C1502 C1511 1.390 1_565 S
C1503 C1502 1.387 . S
C1503 C1505 1.387 . S
H1504 C1511 0.950 . S
C1505 C1503 1.387 . S
C1505 C1507 1.390 1_565 S
C1505 H1509 0.950 . S
H1506 C1502 0.950 . S
C1507 C1505 1.390 1_545 S
C1507 C1508 1.387 . S
C1507 H1510 0.950 . S
C1508 C1507 1.387 . S
C1508 C1511 1.387 . S
H1509 C1505 0.950 . S
H1510 C1507 0.950 . S
C1511 C1502 1.390 1_545 S
C1511 H1504 0.950 . S
C1511 C1508 1.387 . S
C1512 C1513 1.387 . S
C1512 H1516 0.950 . S
C1512 C1521 1.390 1_655 S
C1513 C1512 1.387 . S
C1513 C1515 1.387 . S
H1514 C1521 0.950 . S
C1515 C1513 1.387 . S
C1515 C1517 1.390 1_655 S
C1515 H1519 0.950 . S
H1516 C1512 0.950 . S
C1517 C1515 1.390 1_455 S
C1517 C1518 1.387 . S
C1517 H1520 0.950 . S
C1518 C1517 1.387 . S
C1518 C1521 1.387 . S
H1519 C1515 0.950 . S
H1520 C1517 0.950 . S
C1521 C1512 1.390 1_455 S
C1521 H1514 0.950 . S
C1521 C1518 1.387 . S
C1522 C1523 1.387 . S
C1522 H1526 0.950 . S
C1522 C1531 1.390 1_545 S
C1523 C1522 1.387 . S
C1523 C1525 1.387 . S
H1524 C1531 0.950 . S
C1525 C1523 1.387 . S
C1525 C1527 1.390 1_545 S
C1525 H1529 0.950 . S
H1526 C1522 0.950 . S
C1527 C1525 1.390 1_565 S
C1527 C1528 1.387 . S
C1527 H1530 0.950 . S
C1528 C1527 1.387 . S
C1528 C1531 1.387 . S
H1529 C1525 0.950 . S
H1530 C1527 0.950 . S
C1531 C1522 1.390 1_565 S
C1531 H1524 0.950 . S
C1531 C1528 1.387 . S
C1532 C1533 1.387 . S
C1532 H1536 0.950 . S
C1532 C1541 1.390 1_455 S
C1533 C1532 1.387 . S
C1533 C1535 1.387 . S
H1534 C1541 0.950 . S
C1535 C1533 1.387 . S
C1535 C1537 1.390 1_455 S
C1535 H1539 0.950 . S
H1536 C1532 0.950 . S
C1537 C1535 1.390 1_655 S
C1537 C1538 1.387 . S
C1537 H1540 0.950 . S
C1538 C1537 1.387 . S
C1538 C1541 1.387 . S
H1539 C1535 0.950 . S
H1540 C1537 0.950 . S
C1541 C1532 1.390 1_655 S
C1541 H1534 0.950 . S
C1541 C1538 1.387 . S
C1542 C1543 1.387 . S
C1542 H1546 0.950 . S
C1542 C1551 1.390 1_545 S
C1543 C1542 1.387 . S
C1543 C1545 1.387 . S
H1544 C1551 0.950 . S
C1545 C1543 1.387 . S
C1545 C1547 1.390 1_545 S
C1545 H1549 0.950 . S
H1546 C1542 0.950 . S
C1547 C1545 1.390 1_565 S
C1547 C1548 1.387 . S
C1547 H1550 0.950 . S
C1548 C1547 1.387 . S
C1548 C1551 1.387 . S
H1549 C1545 0.950 . S
H1550 C1547 0.950 . S
C1551 C1542 1.390 1_565 S
C1551 H1544 0.950 . S
C1551 C1548 1.387 . S
C1552 C1553 1.387 . S
C1552 H1556 0.950 . S
C1552 C1561 1.390 1_545 S
C1553 C1552 1.387 . S
C1553 C1555 1.387 . S
H1554 C1561 0.950 . S
C1555 C1553 1.387 . S
C1555 C1557 1.390 1_545 S
C1555 H1559 0.950 . S
H1556 C1552 0.950 . S
C1557 C1555 1.390 1_565 S
C1557 C1558 1.387 . S
C1557 H1560 0.950 . S
C1558 C1557 1.387 . S
C1558 C1561 1.387 . S
H1559 C1555 0.950 . S
H1560 C1557 0.950 . S
C1561 C1552 1.390 1_565 S
C1561 H1554 0.950 . S
C1561 C1558 1.387 . S
C1562 C1563 1.387 . S
C1562 H1566 0.950 . S
C1562 C1571 1.390 1_545 S
C1563 C1562 1.387 . S
C1563 C1565 1.387 . S
H1564 C1571 0.950 . S
C1565 C1563 1.387 . S
C1565 C1567 1.390 1_545 S
C1565 H1569 0.950 . S
H1566 C1562 0.950 . S
C1567 C1565 1.390 1_565 S
C1567 C1568 1.387 . S
C1567 H1570 0.950 . S
C1568 C1567 1.387 . S
C1568 C1571 1.387 . S
H1569 C1565 0.950 . S
H1570 C1567 0.950 . S
C1571 C1562 1.390 1_565 S
C1571 H1564 0.950 . S
C1571 C1568 1.387 . S
C1572 C1573 1.387 . S
C1572 H1576 0.950 . S
C1572 C1581 1.390 1_655 S
C1573 C1572 1.387 . S
C1573 C1575 1.387 . S
H1574 C1581 0.950 . S
C1575 C1573 1.387 . S
C1575 C1577 1.390 1_655 S
C1575 H1579 0.950 . S
H1576 C1572 0.950 . S
C1577 C1575 1.390 1_455 S
C1577 C1578 1.387 . S
C1577 H1580 0.950 . S
C1578 C1577 1.387 . S
C1578 C1581 1.387 . S
H1579 C1575 0.950 . S
H1580 C1577 0.950 . S
C1581 C1572 1.390 1_455 S
C1581 H1574 0.950 . S
C1581 C1578 1.387 . S
C1582 C1583 1.387 . S
C1582 H1586 0.950 . S
C1582 C1591 1.390 1_545 S
C1583 C1582 1.387 . S
C1583 C1585 1.387 . S
H1584 C1591 0.950 . S
C1585 C1583 1.387 . S
C1585 C1587 1.390 1_545 S
C1585 H1589 0.950 . S
H1586 C1582 0.950 . S
C1587 C1585 1.390 1_565 S
C1587 C1588 1.387 . S
C1587 H1590 0.950 . S
C1588 C1587 1.387 . S
C1588 C1591 1.387 . S
H1589 C1585 0.950 . S
H1590 C1587 0.950 . S
C1591 C1582 1.390 1_565 S
C1591 H1584 0.950 . S
C1591 C1588 1.387 . S
C1592 C1593 1.387 . S
C1592 H1596 0.950 . S
C1592 C1601 1.390 1_455 S
C1593 C1592 1.387 . S
C1593 C1595 1.387 . S
H1594 C1601 0.950 . S
C1595 C1593 1.387 . S
C1595 C1597 1.390 1_455 S
C1595 H1599 0.950 . S
H1596 C1592 0.950 . S
C1597 C1595 1.390 1_655 S
C1597 C1598 1.387 . S
C1597 H1600 0.950 . S
C1598 C1597 1.387 . S
C1598 C1601 1.387 . S
H1599 C1595 0.950 . S
H1600 C1597 0.950 . S
C1601 C1592 1.390 1_655 S
C1601 H1594 0.950 . S
C1601 C1598 1.387 . S
C1602 C1603 1.387 . S
C1602 H1606 0.950 . S
C1602 C1611 1.390 1_545 S
C1603 C1602 1.387 . S
C1603 C1605 1.387 . S
H1604 C1611 0.950 . S
C1605 C1603 1.387 . S
C1605 C1607 1.390 1_545 S
C1605 H1609 0.950 . S
H1606 C1602 0.950 . S
C1607 C1605 1.390 1_565 S
C1607 C1608 1.387 . S
C1607 H1610 0.950 . S
C1608 C1607 1.387 . S
C1608 C1611 1.387 . S
H1609 C1605 0.950 . S
H1610 C1607 0.950 . S
C1611 C1602 1.390 1_565 S
C1611 H1604 0.950 . S
C1611 C1608 1.387 . S
C1612 C1613 1.387 . S
C1612 H1616 0.950 . S
C1612 C1621 1.390 1_655 S
C1613 C1612 1.387 . S
C1613 C1615 1.387 . S
H1614 C1621 0.950 . S
C1615 C1613 1.387 . S
C1615 C1617 1.390 1_655 S
C1615 H1619 0.950 . S
H1616 C1612 0.950 . S
C1617 C1615 1.390 1_455 S
C1617 C1618 1.387 . S
C1617 H1620 0.950 . S
C1618 C1617 1.387 . S
C1618 C1621 1.387 . S
H1619 C1615 0.950 . S
H1620 C1617 0.950 . S
C1621 C1612 1.390 1_455 S
C1621 H1614 0.950 . S
C1621 C1618 1.387 . S
C1622 C1623 1.387 . S
C1622 H1626 0.950 . S
C1622 C1631 1.390 1_455 S
C1623 C1622 1.387 . S
C1623 C1625 1.387 . S
H1624 C1631 0.950 . S
C1625 C1623 1.387 . S
C1625 C1627 1.390 1_455 S
C1625 H1629 0.950 . S
H1626 C1622 0.950 . S
C1627 C1625 1.390 1_655 S
C1627 C1628 1.387 . S
C1627 H1630 0.950 . S
C1628 C1627 1.387 . S
C1628 C1631 1.387 . S
H1629 C1625 0.950 . S
H1630 C1627 0.950 . S
C1631 C1622 1.390 1_655 S
C1631 H1624 0.950 . S
C1631 C1628 1.387 . S
C673 C553 1.409 . S
C678 C7 1.412 . S
C683 C20 1.409 . S
C688 C511 1.412 . S
C693 C35 1.412 . S
C698 C525 1.409 . S
C703 C538 1.409 . S
C708 C48 1.412 . S
C713 C468 1.412 . S
C718 C62 1.409 . S
C723 C77 1.409 . S
C728 C483 1.412 . S
C733 C90 1.409 . S
C738 C497 1.412 . S
C743 C105 1.409 . S
C748 C454 1.412 . S
C753 C118 1.409 . S
C758 C441 1.412 . S
C763 C398 1.409 . S
C768 C132 1.412 . S
C773 C413 1.409 . S
C778 C147 1.412 . S
C783 C161 1.412 . S
C788 C426 1.409 . S
C793 C175 1.412 . S
C798 C356 1.409 . S
C803 C189 1.412 . S
C808 C371 1.409 . S
C813 C384 1.412 . S
C818 C202 1.409 . S
C823 C343 1.409 . S
C828 C217 1.412 . S
C833 C230 1.409 . S
C838 C622 1.412 . S
C843 C665 1.412 . S
C848 C245 1.409 . S
C853 C636 1.412 . S
C858 C258 1.409 . S
C863 C651 1.409 . S
C868 C273 1.412 . S
C873 C566 1.409 . S
C878 C286 1.412 . S
C883 C594 1.412 . S
C888 C300 1.409 . S
C893 C315 1.412 . S
C898 C609 1.409 . S
C903 C581 1.409 . S
C908 C329 1.412 . S
C913 C455 1.412 . S
C918 C287 1.409 . S
C923 C244 1.412 . S
C928 C469 1.409 . S
C933 C482 1.412 . S
C938 C259 1.409 . S
C943 C496 1.412 . S
C948 C272 1.409 . S
C953 C328 1.409 . S
C958 C510 1.412 . S
C963 C524 1.409 . S
C968 C301 1.412 . S
C973 C314 1.412 . S
C978 C539 1.409 . S
C983 C231 1.412 . S
C988 C552 1.409 . S
C993 C567 1.409 . S
C998 C216 1.412 . S
C1003 C174 1.412 . S
C1008 C664 1.409 . S
C1013 C637 1.412 . S
C1018 C188 1.409 . S
C1023 C203 1.412 . S
C1028 C650 1.409 . S
C1033 C133 1.409 . S
C1038 C580 1.412 . S
C1043 C146 1.409 . S
C1048 C595 1.412 . S
C1053 C160 1.409 . S
C1058 C608 1.412 . S
C1063 C623 1.412 . S
C1068 C119 1.409 . S
C1073 C342 1.409 . S
C1078 C104 1.412 . S
C1083 C399 1.412 . S
C1088 C21 1.409 . S
C1093 C412 1.412 . S
C1098 C34 1.409 . S
C1103 C427 1.409 . S
C1108 C49 1.412 . S
C1113 C440 1.409 . S
C1118 C6 1.412 . S
C1123 C76 1.409 . S
C1128 C370 1.412 . S
C1133 C385 1.412 . S
C1138 C91 1.409 . S
C1143 C357 1.412 . S
C1148 C63 1.409 . S
C1153 C8 1.510 . S
C1158 C372 1.509 . S
C1163 C387 1.511 . S
C1168 C23 1.509 . S
C1173 C36 1.511 . S
C1178 C344 1.509 . S
C1183 C51 1.509 . S
C1188 C359 1.511 . S
C1193 C65 1.511 . S
C1198 C429 1.509 . S
C1203 C442 1.509 . S
C1208 C78 1.511 . S
C1213 C93 1.509 . S
C1218 C401 1.511 . S
C1223 C414 1.509 . S
C1228 C106 1.510 . S
C1233 C121 1.510 . S
C1238 C512 1.510 . S
C1243 C526 1.510 . S
C1248 C135 1.510 . S
C1253 C148 1.509 . S
C1258 C541 1.510 . S
C1263 C162 1.510 . S
C1268 C554 1.509 . S
C1273 C176 1.510 . S
C1278 C457 1.510 . S
C1283 C190 1.509 . S
C1288 C471 1.510 . S
C1293 C484 1.509 . S
C1298 C205 1.510 . S
C1303 C218 1.509 . S
C1308 C498 1.510 . S
C1313 C610 1.509 . S
C1318 C233 1.511 . S
C1323 C246 1.509 . S
C1328 C639 1.511 . S
C1333 C261 1.509 . S
C1338 C652 1.511 . S
C1343 C569 1.511 . S
C1348 C274 1.509 . S
C1353 C666 1.510 . S
C1358 C289 1.509 . S
C1363 C303 1.511 . S
C1368 C582 1.509 . S
C1373 C597 1.509 . S
C1378 C316 1.511 . S
C1383 C330 1.511 . S
C1388 C625 1.509 . S
C1393 C596 1.510 . S
C1398 C288 1.510 . S
C1403 C247 1.509 . S
C1408 C611 1.510 . S
C1413 C624 1.509 . S
C1418 C260 1.511 . S
C1423 C583 1.510 . S
C1428 C275 1.510 . S
C1433 C653 1.509 . S
C1438 C331 1.511 . S
C1443 C302 1.511 . S
C1448 C568 1.509 . S
C1453 C667 1.509 . S
C1458 C317 1.511 . S
C1463 C232 1.509 . S
C1468 C638 1.511 . S
C1473 C470 1.510 . S
C1478 C219 1.509 . S
C1483 C177 1.509 . S
C1488 C485 1.511 . S
C1493 C191 1.509 . S
C1498 C499 1.511 . S
C1503 C456 1.510 . S
C1508 C204 1.509 . S
C1513 C134 1.510 . S
C1518 C555 1.510 . S
C1523 C513 1.511 . S
C1528 C149 1.509 . S
C1533 C163 1.511 . S
C1538 C527 1.509 . S
C1543 C120 1.510 . S
C1548 C540 1.509 . S
C1553 C386 1.509 . S
C1558 C107 1.510 . S
C1563 C22 1.509 . S
C1568 C415 1.511 . S
C1573 C37 1.509 . S
C1578 C428 1.510 . S
C1583 C443 1.509 . S
C1588 C50 1.510 . S
C1593 C9 1.509 . S
C1598 C400 1.510 . S
C1603 C79 1.509 . S
C1608 C358 1.511 . S
C1613 C92 1.510 . S
C1618 C373 1.509 . S
C1623 C64 1.509 . S
C1628 C345 1.511 . S
